# Generated by pormake.
# Topology wnd, (6)-cn, num edge types: 1
# Building blocks:
#     Node 0, Type 0, BuildingBlock: JUFBIX_clean_sbu_0, # of connection points: 6
#     Node 1, Type 0, BuildingBlock: JUFBIX_clean_sbu_0, # of connection points: 6
#     Node 2, Type 0, BuildingBlock: JUFBIX_clean_sbu_0, # of connection points: 6
#     Node 3, Type 0, BuildingBlock: JUFBIX_clean_sbu_0, # of connection points: 6
#     Node 4, Type 0, BuildingBlock: JUFBIX_clean_sbu_0, # of connection points: 6
#     Node 5, Type 0, BuildingBlock: JUFBIX_clean_sbu_0, # of connection points: 6
#     Node 6, Type 0, BuildingBlock: JUFBIX_clean_sbu_0, # of connection points: 6
#     Node 7, Type 0, BuildingBlock: JUFBIX_clean_sbu_0, # of connection points: 6
#     Node 8, Type 0, BuildingBlock: JUFBIX_clean_sbu_0, # of connection points: 6
#     Node 9, Type 0, BuildingBlock: JUFBIX_clean_sbu_0, # of connection points: 6
#     Node 10, Type 0, BuildingBlock: JUFBIX_clean_sbu_0, # of connection points: 6
#     Node 11, Type 0, BuildingBlock: JUFBIX_clean_sbu_0, # of connection points: 6
#     Node 12, Type 0, BuildingBlock: JUFBIX_clean_sbu_0, # of connection points: 6
#     Node 13, Type 0, BuildingBlock: JUFBIX_clean_sbu_0, # of connection points: 6
#     Node 14, Type 0, BuildingBlock: JUFBIX_clean_sbu_0, # of connection points: 6
#     Node 15, Type 0, BuildingBlock: JUFBIX_clean_sbu_0, # of connection points: 6
#     Node 16, Type 0, BuildingBlock: JUFBIX_clean_sbu_0, # of connection points: 6
#     Node 17, Type 0, BuildingBlock: JUFBIX_clean_sbu_0, # of connection points: 6
#     Node 18, Type 0, BuildingBlock: JUFBIX_clean_sbu_0, # of connection points: 6
#     Node 19, Type 0, BuildingBlock: JUFBIX_clean_sbu_0, # of connection points: 6
#     Node 20, Type 0, BuildingBlock: JUFBIX_clean_sbu_0, # of connection points: 6
#     Node 21, Type 0, BuildingBlock: JUFBIX_clean_sbu_0, # of connection points: 6
#     Node 22, Type 0, BuildingBlock: JUFBIX_clean_sbu_0, # of connection points: 6
#     Node 23, Type 0, BuildingBlock: JUFBIX_clean_sbu_0, # of connection points: 6
#     Node 24, Type 0, BuildingBlock: JUFBIX_clean_sbu_0, # of connection points: 6
#     Node 25, Type 0, BuildingBlock: JUFBIX_clean_sbu_0, # of connection points: 6
#     Node 26, Type 0, BuildingBlock: JUFBIX_clean_sbu_0, # of connection points: 6
#     Node 27, Type 0, BuildingBlock: JUFBIX_clean_sbu_0, # of connection points: 6
#     Node 28, Type 0, BuildingBlock: JUFBIX_clean_sbu_0, # of connection points: 6
#     Node 29, Type 0, BuildingBlock: JUFBIX_clean_sbu_0, # of connection points: 6
#     Node 30, Type 0, BuildingBlock: JUFBIX_clean_sbu_0, # of connection points: 6
#     Node 31, Type 0, BuildingBlock: JUFBIX_clean_sbu_0, # of connection points: 6
#     Node 32, Type 0, BuildingBlock: JUFBIX_clean_sbu_0, # of connection points: 6
#     Node 33, Type 0, BuildingBlock: JUFBIX_clean_sbu_0, # of connection points: 6
#     Node 34, Type 0, BuildingBlock: JUFBIX_clean_sbu_0, # of connection points: 6
#     Node 35, Type 0, BuildingBlock: JUFBIX_clean_sbu_0, # of connection points: 6
#     Edge 36, Type (0, 0), BuildingBlock: OJICUG_clean_linker_0, # of connection points: 2
#     Edge 37, Type (0, 0), BuildingBlock: OJICUG_clean_linker_0, # of connection points: 2
#     Edge 38, Type (0, 0), BuildingBlock: OJICUG_clean_linker_0, # of connection points: 2
#     Edge 39, Type (0, 0), BuildingBlock: OJICUG_clean_linker_0, # of connection points: 2
#     Edge 40, Type (0, 0), BuildingBlock: OJICUG_clean_linker_0, # of connection points: 2
#     Edge 41, Type (0, 0), BuildingBlock: OJICUG_clean_linker_0, # of connection points: 2
#     Edge 42, Type (0, 0), BuildingBlock: OJICUG_clean_linker_0, # of connection points: 2
#     Edge 43, Type (0, 0), BuildingBlock: OJICUG_clean_linker_0, # of connection points: 2
#     Edge 44, Type (0, 0), BuildingBlock: OJICUG_clean_linker_0, # of connection points: 2
#     Edge 45, Type (0, 0), BuildingBlock: OJICUG_clean_linker_0, # of connection points: 2
#     Edge 46, Type (0, 0), BuildingBlock: OJICUG_clean_linker_0, # of connection points: 2
#     Edge 47, Type (0, 0), BuildingBlock: OJICUG_clean_linker_0, # of connection points: 2
#     Edge 48, Type (0, 0), BuildingBlock: OJICUG_clean_linker_0, # of connection points: 2
#     Edge 49, Type (0, 0), BuildingBlock: OJICUG_clean_linker_0, # of connection points: 2
#     Edge 50, Type (0, 0), BuildingBlock: OJICUG_clean_linker_0, # of connection points: 2
#     Edge 51, Type (0, 0), BuildingBlock: OJICUG_clean_linker_0, # of connection points: 2
#     Edge 52, Type (0, 0), BuildingBlock: OJICUG_clean_linker_0, # of connection points: 2
#     Edge 53, Type (0, 0), BuildingBlock: OJICUG_clean_linker_0, # of connection points: 2
#     Edge 54, Type (0, 0), BuildingBlock: OJICUG_clean_linker_0, # of connection points: 2
#     Edge 55, Type (0, 0), BuildingBlock: OJICUG_clean_linker_0, # of connection points: 2
#     Edge 56, Type (0, 0), BuildingBlock: OJICUG_clean_linker_0, # of connection points: 2
#     Edge 57, Type (0, 0), BuildingBlock: OJICUG_clean_linker_0, # of connection points: 2
#     Edge 58, Type (0, 0), BuildingBlock: OJICUG_clean_linker_0, # of connection points: 2
#     Edge 59, Type (0, 0), BuildingBlock: OJICUG_clean_linker_0, # of connection points: 2
#     Edge 60, Type (0, 0), BuildingBlock: OJICUG_clean_linker_0, # of connection points: 2
#     Edge 61, Type (0, 0), BuildingBlock: OJICUG_clean_linker_0, # of connection points: 2
#     Edge 62, Type (0, 0), BuildingBlock: OJICUG_clean_linker_0, # of connection points: 2
#     Edge 63, Type (0, 0), BuildingBlock: OJICUG_clean_linker_0, # of connection points: 2
#     Edge 64, Type (0, 0), BuildingBlock: OJICUG_clean_linker_0, # of connection points: 2
#     Edge 65, Type (0, 0), BuildingBlock: OJICUG_clean_linker_0, # of connection points: 2
#     Edge 66, Type (0, 0), BuildingBlock: OJICUG_clean_linker_0, # of connection points: 2
#     Edge 67, Type (0, 0), BuildingBlock: OJICUG_clean_linker_0, # of connection points: 2
#     Edge 68, Type (0, 0), BuildingBlock: OJICUG_clean_linker_0, # of connection points: 2
#     Edge 69, Type (0, 0), BuildingBlock: OJICUG_clean_linker_0, # of connection points: 2
#     Edge 70, Type (0, 0), BuildingBlock: OJICUG_clean_linker_0, # of connection points: 2
#     Edge 71, Type (0, 0), BuildingBlock: OJICUG_clean_linker_0, # of connection points: 2
#     Edge 72, Type (0, 0), BuildingBlock: OJICUG_clean_linker_0, # of connection points: 2
#     Edge 73, Type (0, 0), BuildingBlock: OJICUG_clean_linker_0, # of connection points: 2
#     Edge 74, Type (0, 0), BuildingBlock: OJICUG_clean_linker_0, # of connection points: 2
#     Edge 75, Type (0, 0), BuildingBlock: OJICUG_clean_linker_0, # of connection points: 2
#     Edge 76, Type (0, 0), BuildingBlock: OJICUG_clean_linker_0, # of connection points: 2
#     Edge 77, Type (0, 0), BuildingBlock: OJICUG_clean_linker_0, # of connection points: 2
#     Edge 78, Type (0, 0), BuildingBlock: OJICUG_clean_linker_0, # of connection points: 2
#     Edge 79, Type (0, 0), BuildingBlock: OJICUG_clean_linker_0, # of connection points: 2
#     Edge 80, Type (0, 0), BuildingBlock: OJICUG_clean_linker_0, # of connection points: 2
#     Edge 81, Type (0, 0), BuildingBlock: OJICUG_clean_linker_0, # of connection points: 2
#     Edge 82, Type (0, 0), BuildingBlock: OJICUG_clean_linker_0, # of connection points: 2
#     Edge 83, Type (0, 0), BuildingBlock: OJICUG_clean_linker_0, # of connection points: 2
#     Edge 84, Type (0, 0), BuildingBlock: OJICUG_clean_linker_0, # of connection points: 2
#     Edge 85, Type (0, 0), BuildingBlock: OJICUG_clean_linker_0, # of connection points: 2
#     Edge 86, Type (0, 0), BuildingBlock: OJICUG_clean_linker_0, # of connection points: 2
#     Edge 87, Type (0, 0), BuildingBlock: OJICUG_clean_linker_0, # of connection points: 2
#     Edge 88, Type (0, 0), BuildingBlock: OJICUG_clean_linker_0, # of connection points: 2
#     Edge 89, Type (0, 0), BuildingBlock: OJICUG_clean_linker_0, # of connection points: 2
#     Edge 90, Type (0, 0), BuildingBlock: OJICUG_clean_linker_0, # of connection points: 2
#     Edge 91, Type (0, 0), BuildingBlock: OJICUG_clean_linker_0, # of connection points: 2
#     Edge 92, Type (0, 0), BuildingBlock: OJICUG_clean_linker_0, # of connection points: 2
#     Edge 93, Type (0, 0), BuildingBlock: OJICUG_clean_linker_0, # of connection points: 2
#     Edge 94, Type (0, 0), BuildingBlock: OJICUG_clean_linker_0, # of connection points: 2
#     Edge 95, Type (0, 0), BuildingBlock: OJICUG_clean_linker_0, # of connection points: 2
#     Edge 96, Type (0, 0), BuildingBlock: OJICUG_clean_linker_0, # of connection points: 2
#     Edge 97, Type (0, 0), BuildingBlock: OJICUG_clean_linker_0, # of connection points: 2
#     Edge 98, Type (0, 0), BuildingBlock: OJICUG_clean_linker_0, # of connection points: 2
#     Edge 99, Type (0, 0), BuildingBlock: OJICUG_clean_linker_0, # of connection points: 2
#     Edge 100, Type (0, 0), BuildingBlock: OJICUG_clean_linker_0, # of connection points: 2
#     Edge 101, Type (0, 0), BuildingBlock: OJICUG_clean_linker_0, # of connection points: 2
#     Edge 102, Type (0, 0), BuildingBlock: OJICUG_clean_linker_0, # of connection points: 2
#     Edge 103, Type (0, 0), BuildingBlock: OJICUG_clean_linker_0, # of connection points: 2
#     Edge 104, Type (0, 0), BuildingBlock: OJICUG_clean_linker_0, # of connection points: 2
#     Edge 105, Type (0, 0), BuildingBlock: OJICUG_clean_linker_0, # of connection points: 2
#     Edge 106, Type (0, 0), BuildingBlock: OJICUG_clean_linker_0, # of connection points: 2
#     Edge 107, Type (0, 0), BuildingBlock: OJICUG_clean_linker_0, # of connection points: 2
#     Edge 108, Type (0, 0), BuildingBlock: OJICUG_clean_linker_0, # of connection points: 2
#     Edge 109, Type (0, 0), BuildingBlock: OJICUG_clean_linker_0, # of connection points: 2
#     Edge 110, Type (0, 0), BuildingBlock: OJICUG_clean_linker_0, # of connection points: 2
#     Edge 111, Type (0, 0), BuildingBlock: OJICUG_clean_linker_0, # of connection points: 2
#     Edge 112, Type (0, 0), BuildingBlock: OJICUG_clean_linker_0, # of connection points: 2
#     Edge 113, Type (0, 0), BuildingBlock: OJICUG_clean_linker_0, # of connection points: 2
#     Edge 114, Type (0, 0), BuildingBlock: OJICUG_clean_linker_0, # of connection points: 2
#     Edge 115, Type (0, 0), BuildingBlock: OJICUG_clean_linker_0, # of connection points: 2
#     Edge 116, Type (0, 0), BuildingBlock: OJICUG_clean_linker_0, # of connection points: 2
#     Edge 117, Type (0, 0), BuildingBlock: OJICUG_clean_linker_0, # of connection points: 2
#     Edge 118, Type (0, 0), BuildingBlock: OJICUG_clean_linker_0, # of connection points: 2
#     Edge 119, Type (0, 0), BuildingBlock: OJICUG_clean_linker_0, # of connection points: 2
#     Edge 120, Type (0, 0), BuildingBlock: OJICUG_clean_linker_0, # of connection points: 2
#     Edge 121, Type (0, 0), BuildingBlock: OJICUG_clean_linker_0, # of connection points: 2
#     Edge 122, Type (0, 0), BuildingBlock: OJICUG_clean_linker_0, # of connection points: 2
#     Edge 123, Type (0, 0), BuildingBlock: OJICUG_clean_linker_0, # of connection points: 2
#     Edge 124, Type (0, 0), BuildingBlock: OJICUG_clean_linker_0, # of connection points: 2
#     Edge 125, Type (0, 0), BuildingBlock: OJICUG_clean_linker_0, # of connection points: 2
#     Edge 126, Type (0, 0), BuildingBlock: OJICUG_clean_linker_0, # of connection points: 2
#     Edge 127, Type (0, 0), BuildingBlock: OJICUG_clean_linker_0, # of connection points: 2
#     Edge 128, Type (0, 0), BuildingBlock: OJICUG_clean_linker_0, # of connection points: 2
#     Edge 129, Type (0, 0), BuildingBlock: OJICUG_clean_linker_0, # of connection points: 2
#     Edge 130, Type (0, 0), BuildingBlock: OJICUG_clean_linker_0, # of connection points: 2
#     Edge 131, Type (0, 0), BuildingBlock: OJICUG_clean_linker_0, # of connection points: 2
#     Edge 132, Type (0, 0), BuildingBlock: OJICUG_clean_linker_0, # of connection points: 2
#     Edge 133, Type (0, 0), BuildingBlock: OJICUG_clean_linker_0, # of connection points: 2
#     Edge 134, Type (0, 0), BuildingBlock: OJICUG_clean_linker_0, # of connection points: 2
#     Edge 135, Type (0, 0), BuildingBlock: OJICUG_clean_linker_0, # of connection points: 2
#     Edge 136, Type (0, 0), BuildingBlock: OJICUG_clean_linker_0, # of connection points: 2
#     Edge 137, Type (0, 0), BuildingBlock: OJICUG_clean_linker_0, # of connection points: 2
#     Edge 138, Type (0, 0), BuildingBlock: OJICUG_clean_linker_0, # of connection points: 2
#     Edge 139, Type (0, 0), BuildingBlock: OJICUG_clean_linker_0, # of connection points: 2
#     Edge 140, Type (0, 0), BuildingBlock: OJICUG_clean_linker_0, # of connection points: 2
#     Edge 141, Type (0, 0), BuildingBlock: OJICUG_clean_linker_0, # of connection points: 2
#     Edge 142, Type (0, 0), BuildingBlock: OJICUG_clean_linker_0, # of connection points: 2
#     Edge 143, Type (0, 0), BuildingBlock: OJICUG_clean_linker_0, # of connection points: 2
# Relax obj value: 0.323
# Max RMSD: 0.238
# Mean RMSD: 0.237
data_MOF--net-wnd--node1-JUFBIX_clean_sbu_0--edge1-OJICUG_clean_linker_0
_symmetry_space_group_name_H-M    P1
_symmetry_Int_Tables_number       1
_symmetry_cell_setting            triclinic
loop_
_symmetry_equiv_pos_as_xyz
'x, y, z'
_cell_length_a     25.393209
_cell_length_b     25.387299
_cell_length_c     119.44178
_cell_angle_alpha  90.117026
_cell_angle_beta   89.806101
_cell_angle_gamma 120.1699
loop_
_atom_site_label
_atom_site_type_symbol
_atom_site_fract_x
_atom_site_fract_y
_atom_site_fract_z
_atom_type_partial_charge
Co0 Co 0.46984 0.07127 0.05542 0.0
C1 C 0.50229 0.02617 0.03779 0.0
Co2 Co 0.50088 0.0094 0.06116 0.0
C3 C 0.47304 0.18339 0.05584 0.0
C4 C 0.42276 0.13245 0.04151 0.0
N5 N 0.44878 0.12798 0.05104 0.0
N6 N 0.46477 0.22264 0.04965 0.0
C7 C 0.43316 0.19119 0.04059 0.0
H8 H 0.5015 0.19661 0.06323 0.0
H9 H 0.40199 0.09706 0.03524 0.0
C10 C 0.46643 0.06054 0.07847 0.0
N11 N 0.52864 0.95711 0.06565 0.0
C12 C 0.53191 0.91313 0.05979 0.0
C13 C 0.56004 0.96333 0.07513 0.0
N14 N 0.56479 0.89241 0.06519 0.0
C15 C 0.58218 0.92379 0.07487 0.0
C16 C 0.59596 0.12466 0.05874 0.0
O17 O 0.46245 0.08881 0.07017 0.0
O18 O 0.48105 0.01965 0.07683 0.0
O19 O 0.57973 0.07294 0.06281 0.0
O20 O 0.55527 0.13544 0.05509 0.0
O21 O 0.51912 1.00216 0.04537 0.0
H22 H 0.56855 0.99639 0.08162 0.0
H23 H 0.51277 0.89841 0.05152 0.0
O24 O 0.47636 0.05526 0.04069 0.0
O25 O 0.38541 1.00446 0.05559 0.0
O26 O 0.4225 0.94439 0.05935 0.0
C27 C 0.37734 0.95091 0.05711 0.0
H28 H 0.421 0.21002 0.0336 0.0
H29 H 0.60916 0.91869 0.08131 0.0
Co30 Co 0.99914 0.4416 0.05491 0.0
C31 C 0.04283 0.51548 0.03715 0.0
Co32 Co 0.05651 0.5348 0.06066 0.0
C33 C 0.88496 0.33534 0.05436 0.0
C34 C 0.94699 0.3203 0.0446 0.0
N35 N 0.94373 0.36207 0.0511 0.0
N36 N 0.85097 0.2794 0.05006 0.0
C37 C 0.88965 0.26884 0.04401 0.0
H38 H 0.86706 0.35648 0.05988 0.0
H39 H 0.98782 0.32723 0.04041 0.0
C40 C 1.00636 0.45213 0.07802 0.0
N41 N 0.10617 0.6162 0.06483 0.0
C42 C 0.1492 0.66389 0.05889 0.0
C43 C 0.09935 0.64135 0.07428 0.0
N44 N 0.16898 0.71774 0.06424 0.0
C45 C 0.13777 0.70338 0.07396 0.0
C46 C 0.94046 0.50986 0.05769 0.0
O47 O 0.97858 0.41948 0.06971 0.0
O48 O 0.0479 0.50744 0.07638 0.0
O49 O 0.99008 0.54657 0.06233 0.0
O50 O 0.93454 0.46137 0.05341 0.0
O51 O 0.06231 0.55728 0.04467 0.0
H52 H 0.06698 0.6164 0.08087 0.0
H53 H 0.16426 0.65937 0.05064 0.0
O54 O 0.01751 0.46052 0.04016 0.0
O55 O 0.06721 0.42615 0.05617 0.0
O56 O 0.12416 0.52495 0.05901 0.0
C57 C 0.12001 0.47353 0.05745 0.0
H58 H 0.8771 0.22773 0.0393 0.0
H59 H 0.14254 0.73535 0.08044 0.0
Co60 Co 0.63157 0.60247 0.0548 0.0
C61 C 0.5562 0.56609 0.03699 0.0
Co62 Co 0.53645 0.56302 0.06035 0.0
C63 C 0.74452 0.60697 0.0557 0.0
C64 C 0.74227 0.65518 0.04121 0.0
N65 N 0.71185 0.62912 0.05078 0.0
N66 N 0.79271 0.6163 0.04951 0.0
C67 C 0.79184 0.64671 0.04035 0.0
H68 H 0.72949 0.57833 0.06308 0.0
H69 H 0.72646 0.6739 0.0348 0.0
C70 C 0.6192 0.60006 0.07785 0.0
N71 N 0.45431 0.52938 0.06446 0.0
C72 C 0.40753 0.52922 0.059 0.0
C73 C 0.42804 0.49315 0.07343 0.0
N74 N 0.35316 0.49383 0.06416 0.0
C75 C 0.36629 0.47137 0.07327 0.0
C76 C 0.56731 0.47583 0.05797 0.0
O77 O 0.65382 0.60843 0.06965 0.0
O78 O 0.56304 0.58224 0.07608 0.0
O79 O 0.52746 0.48622 0.062 0.0
O80 O 0.61623 0.51973 0.05403 0.0
O81 O 0.51422 0.54496 0.04447 0.0
H82 H 0.45214 0.48212 0.07958 0.0
H83 H 0.41309 0.55333 0.05122 0.0
O84 O 0.61102 0.59699 0.04 0.0
O85 O 0.64349 0.68441 0.05543 0.0
O86 O 0.54464 0.63981 0.05867 0.0
C87 C 0.59527 0.68793 0.05685 0.0
H88 H 0.82261 0.65872 0.03329 0.0
H89 H 0.33369 0.44176 0.07947 0.0
Co90 Co 0.99978 0.43391 0.47242 0.0
C91 C 0.05797 0.46785 0.45136 0.0
Co92 Co 0.05952 0.53164 0.46995 0.0
C93 C 0.88845 0.32246 0.47481 0.0
C94 C 0.9589 0.30667 0.46891 0.0
N95 N 0.94915 0.35024 0.47316 0.0
N96 N 0.85911 0.2645 0.47111 0.0
C97 C 0.90359 0.25388 0.46762 0.0
H98 H 0.8655 0.3463 0.47757 0.0
H99 H 1.00241 0.3144 0.46588 0.0
C100 C 0.00912 0.49425 0.49161 0.0
N101 N 0.10215 0.6167 0.46941 0.0
C102 C 0.16169 0.65983 0.46883 0.0
C103 C 0.07338 0.64848 0.4715 0.0
N104 N 0.17013 0.71658 0.47033 0.0
C105 C 0.11452 0.70916 0.47195 0.0
C106 C 0.93922 0.49295 0.46513 0.0
O107 O 0.98743 0.44071 0.4878 0.0
O108 O 0.03646 0.53898 0.48493 0.0
O109 O 0.99344 0.53482 0.46387 0.0
O110 O 0.92975 0.44254 0.46898 0.0
O111 O 0.08455 0.52233 0.45517 0.0
H112 H 0.02544 0.62887 0.47335 0.0
H113 H 0.19803 0.6497 0.46777 0.0
O114 O 0.01454 0.4259 0.457 0.0
O115 O 0.07022 0.42828 0.47594 0.0
O116 O 0.12602 0.52857 0.47577 0.0
C117 C 0.12166 0.4769 0.4772 0.0
H118 H 0.89671 0.21252 0.46367 0.0
H119 H 0.10456 0.74475 0.47405 0.0
Co120 Co 0.6233 0.58703 0.46965 0.0
C121 C 0.60322 0.61662 0.4484 0.0
Co122 Co 0.52716 0.5584 0.46661 0.0
C123 C 0.72544 0.56829 0.47239 0.0
C124 C 0.75403 0.66209 0.46957 0.0
N125 N 0.70421 0.60756 0.47166 0.0
N126 N 0.78573 0.59542 0.47036 0.0
C127 C 0.8041 0.65479 0.46876 0.0
H128 H 0.69665 0.51965 0.4734 0.0
H129 H 0.75335 0.70347 0.46775 0.0
C130 C 0.55082 0.54071 0.48846 0.0
N131 N 0.44674 0.53422 0.464 0.0
C132 C 0.4041 0.53094 0.47119 0.0
C133 C 0.41593 0.50603 0.45461 0.0
N134 N 0.34787 0.50066 0.4667 0.0
C135 C 0.35512 0.48529 0.45625 0.0
C136 C 0.54924 0.4647 0.46307 0.0
O137 O 0.60527 0.56408 0.48488 0.0
O138 O 0.50842 0.53022 0.48161 0.0
O139 O 0.50971 0.48052 0.46198 0.0
O140 O 0.60276 0.50482 0.46592 0.0
O141 O 0.54812 0.59056 0.45172 0.0
H142 H 0.43612 0.49882 0.4472 0.0
H143 H 0.41369 0.54803 0.47969 0.0
O144 O 0.64239 0.6135 0.4545 0.0
O145 O 0.64068 0.66753 0.47347 0.0
O146 O 0.54282 0.63461 0.47141 0.0
C147 C 0.59595 0.67703 0.47389 0.0
H148 H 0.84979 0.68991 0.46653 0.0
H149 H 0.31897 0.46067 0.45026 0.0
Co150 Co 0.48075 0.06225 0.46995 0.0
C151 C 0.45596 0.01627 0.44847 0.0
Co152 Co 0.513 0.99786 0.46668 0.0
C153 C 0.49121 0.18093 0.47091 0.0
C154 C 0.39848 0.11037 0.47269 0.0
N155 N 0.45568 0.11978 0.47209 0.0
N156 N 0.45893 0.2098 0.47051 0.0
C157 C 0.40034 0.16547 0.47173 0.0
H158 H 0.53979 0.20417 0.46957 0.0
H159 H 0.35761 0.06615 0.47313 0.0
C160 C 0.52628 0.03715 0.48886 0.0
N161 N 0.54209 0.9458 0.46379 0.0
C162 C 0.54939 0.90855 0.47083 0.0
C163 C 0.56989 0.94486 0.4542 0.0
N164 N 0.58146 0.8852 0.46605 0.0
C165 C 0.59403 0.90762 0.45556 0.0
C166 C 0.60327 0.11545 0.46375 0.0
O167 O 0.49995 0.06511 0.48525 0.0
O168 O 0.54059 0.00794 0.48195 0.0
O169 O 0.58855 0.06078 0.46217 0.0
O170 O 0.5629 0.12721 0.46714 0.0
O171 O 0.4812 0.98653 0.45174 0.0
H172 H 0.57405 0.97119 0.4468 0.0
H173 H 0.53309 0.90013 0.47939 0.0
O174 O 0.45848 0.05781 0.45474 0.0
O175 O 0.40037 0.99421 0.47288 0.0
O176 O 0.43921 0.93414 0.47115 0.0
C177 C 0.39404 0.94097 0.47315 0.0
H178 H 0.36136 0.17195 0.47156 0.0
H179 H 0.61828 0.89723 0.44927 0.0
Co180 Co 0.56315 0.05723 0.96735 0.0
C181 C 0.59531 1.00476 0.95032 0.0
Co182 Co 0.5982 0.99996 0.97347 0.0
C183 C 0.528 0.15097 0.96869 0.0
C184 C 0.50049 0.09994 0.95345 0.0
N185 N 0.53223 0.10722 0.96292 0.0
N186 N 0.49441 0.17072 0.96322 0.0
C187 C 0.47743 0.13873 0.95359 0.0
H188 H 0.54748 0.16652 0.97692 0.0
H189 H 0.49281 0.067 0.94697 0.0
C190 C 0.56717 0.04479 0.99094 0.0
N191 N 0.62135 0.94437 0.97758 0.0
C192 C 0.58898 0.88536 0.97446 0.0
C193 C 0.66617 0.94789 0.98413 0.0
N194 N 0.61058 0.85152 0.97888 0.0
C195 C 0.65988 0.89054 0.98488 0.0
C196 C 0.68818 0.12046 0.97056 0.0
O197 O 0.54587 0.06422 0.98327 0.0
O198 O 0.59705 0.01946 0.98813 0.0
O199 O 0.68228 0.06773 0.97211 0.0
O200 O 0.6411 0.12466 0.96887 0.0
O201 O 0.60011 0.97814 0.9588 0.0
H202 H 0.70035 0.98898 0.98821 0.0
H203 H 0.55013 0.86725 0.96891 0.0
O204 O 0.58212 0.04681 0.9517 0.0
O205 O 0.48482 0.99111 0.96578 0.0
O206 O 0.51351 0.93589 0.975 0.0
C207 C 0.47137 0.94175 0.97057 0.0
H208 H 0.45044 0.14314 0.94707 0.0
H209 H 0.68839 0.87828 0.98962 0.0
Co210 Co 0.01525 0.53667 0.96648 0.0
C211 C 0.06526 0.62065 0.94905 0.0
Co212 Co 0.07052 0.63136 0.9722 0.0
C213 C 0.92002 0.40804 0.96784 0.0
C214 C 0.97667 0.42818 0.95336 0.0
N215 N 0.96672 0.45471 0.96228 0.0
N216 N 0.90092 0.35347 0.96279 0.0
C217 C 0.93653 0.36633 0.95364 0.0
H218 H 0.90162 0.41384 0.97563 0.0
H219 H 0.01201 0.45212 0.94717 0.0
C220 C 0.02721 0.55515 0.98992 0.0
N221 N 0.12324 0.71116 0.97645 0.0
C222 C 0.17895 0.74448 0.97181 0.0
C223 C 0.12535 0.74132 0.98592 0.0
N224 N 0.2162 0.79295 0.97807 0.0
C225 C 0.18304 0.79153 0.987 0.0
C226 C 0.94909 0.59542 0.96958 0.0
O227 O 1.00768 0.51349 0.98241 0.0
O228 O 0.05251 0.61007 0.98692 0.0
O229 O 1.00086 0.6435 0.97118 0.0
O230 O 0.94657 0.54494 0.96774 0.0
O231 O 0.09001 0.65473 0.95738 0.0
H232 H 0.08938 0.72511 0.99212 0.0
H233 H 0.19423 0.72994 0.96458 0.0
O234 O 0.02601 0.5644 0.95071 0.0
O235 O 0.083 0.52737 0.96528 0.0
O236 O 0.1377 0.61581 0.9734 0.0
C237 C 0.1328 0.56686 0.96953 0.0
H238 H 0.93358 0.33349 0.94752 0.0
H239 H 0.20022 0.82249 0.99405 0.0
Co240 Co 0.53304 0.50319 0.9668 0.0
C241 C 0.44822 0.47086 0.94953 0.0
Co242 Co 0.43942 0.47019 0.97258 0.0
C243 C 0.66066 0.53424 0.96781 0.0
C244 C 0.6388 0.56598 0.95294 0.0
N245 N 0.61345 0.53245 0.96224 0.0
N246 N 0.71437 0.56819 0.96239 0.0
C247 C 0.70051 0.58788 0.953 0.0
H248 H 0.65608 0.51305 0.97588 0.0
H249 H 0.61429 0.5759 0.94668 0.0
C250 C 0.51626 0.5008 0.99018 0.0
N251 N 0.36096 0.44801 0.97697 0.0
C252 C 0.32993 0.47216 0.97215 0.0
C253 C 0.33012 0.42209 0.98652 0.0
N254 N 0.28216 0.46386 0.97834 0.0
C255 C 0.28171 0.43236 0.98743 0.0
C256 C 0.46836 0.37872 0.97029 0.0
O257 O 0.55773 0.51913 0.98263 0.0
O258 O 0.46125 0.47479 0.98725 0.0
O259 O 0.42239 0.38585 0.97199 0.0
O260 O 0.52002 0.4247 0.96815 0.0
O261 O 0.41531 0.46474 0.95788 0.0
H262 H 0.3446 0.40155 0.99282 0.0
H263 H 0.34551 0.50074 0.96477 0.0
O264 O 0.50384 0.48579 0.9511 0.0
O265 O 0.54801 0.58203 0.96562 0.0
O266 O 0.46023 0.55546 0.97333 0.0
C267 C 0.51194 0.59711 0.96982 0.0
H268 H 0.73269 0.61612 0.94662 0.0
H269 H 0.25048 0.42021 0.99442 0.0
Co270 Co 1.00172 0.51458 0.56169 0.0
C271 C 0.03639 0.53856 0.53935 0.0
Co272 Co 0.06573 0.61074 0.5582 0.0
C273 C 0.91223 0.38923 0.5575 0.0
C274 C 0.9468 0.40415 0.57422 0.0
N275 N 0.94893 0.43348 0.56468 0.0
N276 N 0.88802 0.33337 0.56212 0.0
C277 C 0.90928 0.34262 0.57269 0.0
H278 H 0.9051 0.39768 0.54891 0.0
H279 H 0.97265 0.42593 0.5817 0.0
C280 C 0.02295 0.59141 0.57987 0.0
N281 N 0.12363 0.69195 0.55567 0.0
C282 C 0.17996 0.7207 0.56022 0.0
C283 C 0.1221 0.73398 0.54901 0.0
N284 N 0.21397 0.77846 0.5566 0.0
C285 C 0.17765 0.78742 0.5496 0.0
C286 C 0.94514 0.57768 0.55574 0.0
O287 O 0.99243 0.53616 0.57666 0.0
O288 O 0.06471 0.62991 0.57352 0.0
O289 O 0.99856 0.62462 0.55592 0.0
O290 O 0.93809 0.52538 0.55754 0.0
O291 O 0.06478 0.59322 0.54284 0.0
H292 H 0.08369 0.72596 0.54389 0.0
H293 H 0.19611 0.69974 0.56612 0.0
O294 O 0.00936 0.49555 0.54641 0.0
O295 O 0.06477 0.50163 0.56586 0.0
O296 O 0.13084 0.59306 0.56026 0.0
C297 C 0.11923 0.54106 0.56373 0.0
H298 H 0.89826 0.30751 0.57889 0.0
H299 H 0.19097 0.82888 0.54497 0.0
Co300 Co 0.53715 0.50508 0.55773 0.0
C301 C 0.50289 0.51976 0.53604 0.0
Co302 Co 0.43944 0.46624 0.55485 0.0
C303 C 0.66455 0.53061 0.5594 0.0
C304 C 0.65466 0.60845 0.55689 0.0
N305 N 0.62203 0.54755 0.55869 0.0
N306 N 0.72176 0.57889 0.55823 0.0
C307 C 0.71527 0.62765 0.55672 0.0
H308 H 0.65368 0.4838 0.56032 0.0
H309 H 0.63579 0.63731 0.55506 0.0
C310 C 0.4708 0.4411 0.57597 0.0
N311 N 0.35576 0.43286 0.55375 0.0
C312 C 0.32797 0.46574 0.55223 0.0
C313 C 0.31171 0.37859 0.55764 0.0
N314 N 0.26945 0.43602 0.55565 0.0
C315 C 0.2586 0.3804 0.55883 0.0
C316 C 0.48354 0.38863 0.54988 0.0
O317 O 0.52575 0.46996 0.57241 0.0
O318 O 0.42923 0.4416 0.57014 0.0
O319 O 0.43459 0.39077 0.55099 0.0
O320 O 0.53479 0.43588 0.55181 0.0
O321 O 0.4488 0.48762 0.53961 0.0
H322 H 0.31917 0.34247 0.56051 0.0
H323 H 0.35199 0.51311 0.54978 0.0
O324 O 0.54674 0.53653 0.54286 0.0
O325 O 0.53944 0.5739 0.56386 0.0
O326 O 0.44724 0.544 0.55861 0.0
C327 C 0.49712 0.58533 0.56259 0.0
H328 H 0.75152 0.67343 0.55486 0.0
H329 H 0.21675 0.34497 0.56252 0.0
Co330 Co 0.56445 0.06331 0.55855 0.0
C331 C 0.54691 0.01848 0.53684 0.0
Co332 Co 0.59113 0.99401 0.55614 0.0
C333 C 0.53685 0.15887 0.55373 0.0
C334 C 0.51199 0.12231 0.57031 0.0
N335 N 0.54032 0.11977 0.56092 0.0
N336 N 0.50628 0.18446 0.55826 0.0
C337 C 0.49097 0.16194 0.5687 0.0
H338 H 0.55411 0.16655 0.54524 0.0
H339 H 0.50487 0.09511 0.57773 0.0
C340 C 0.62051 0.04631 0.57722 0.0
N341 N 0.6116 0.93365 0.55452 0.0
C342 C 0.57225 0.87295 0.55406 0.0
C343 C 0.66605 0.93891 0.55678 0.0
N344 N 0.59925 0.84024 0.55642 0.0
C345 C 0.6586 0.88162 0.55795 0.0
C346 C 0.68295 0.11168 0.55176 0.0
O347 O 0.59565 0.07575 0.5736 0.0
O348 O 0.6168 1.00295 0.57133 0.0
O349 O 0.6722 0.05701 0.55235 0.0
O350 O 0.64093 0.12338 0.55388 0.0
O351 O 0.56888 0.98708 0.54079 0.0
H352 H 0.70741 0.98139 0.55848 0.0
H353 H 0.52362 0.85278 0.55303 0.0
O354 O 0.53748 0.05252 0.5434 0.0
O355 O 0.48617 1.00343 0.56308 0.0
O356 O 0.50829 0.93242 0.55995 0.0
C357 C 0.46904 0.9475 0.56246 0.0
H358 H 0.46634 0.17341 0.57472 0.0
H359 H 0.69355 0.87147 0.56039 0.0
Co360 Co 0.14571 0.40409 0.38961 0.0
C361 C 0.17354 0.35647 0.37188 0.0
Co362 Co 0.17805 0.3437 0.39532 0.0
C363 C 0.15666 0.51947 0.388 0.0
C364 C 0.07891 0.4552 0.37864 0.0
N365 N 0.1238 0.45995 0.38532 0.0
N366 N 0.13513 0.55245 0.38318 0.0
C367 C 0.08555 0.51236 0.37737 0.0
H368 H 0.19584 0.53854 0.39348 0.0
H369 H 0.04461 0.41338 0.37478 0.0
C370 C 0.14857 0.39879 0.41269 0.0
N371 N 0.20653 0.29176 0.39971 0.0
C372 C 0.21208 0.24981 0.3936 0.0
C373 C 0.2362 0.29626 0.40933 0.0
N374 N 0.24456 0.22857 0.39899 0.0
C375 C 0.25936 0.25758 0.40893 0.0
C376 C 0.27268 0.45738 0.39189 0.0
O377 O 0.14374 0.42616 0.40433 0.0
O378 O 0.16104 0.3563 0.41107 0.0
O379 O 0.25729 0.40708 0.39648 0.0
O380 O 0.2313 0.46702 0.38823 0.0
O381 O 0.19333 0.33482 0.3794 0.0
H382 H 0.24283 0.32755 0.41606 0.0
H383 H 0.19473 0.2369 0.38518 0.0
O384 O 0.14682 0.38464 0.3749 0.0
O385 O 0.0609 0.3376 0.39078 0.0
O386 O 0.0993 0.27829 0.39403 0.0
C387 C 0.05337 0.2842 0.39223 0.0
H388 H 0.05713 0.52376 0.37239 0.0
H389 H 0.28523 0.25147 0.41546 0.0
Co390 Co 0.6729 0.77401 0.38777 0.0
C391 C 0.71663 0.84965 0.37025 0.0
Co392 Co 0.72857 0.86707 0.3938 0.0
C393 C 0.55975 0.66712 0.38686 0.0
C394 C 0.6226 0.65396 0.37698 0.0
N395 N 0.61863 0.69471 0.38367 0.0
N396 N 0.52634 0.61172 0.38233 0.0
C397 C 0.56551 0.60226 0.3762 0.0
H398 H 0.5413 0.68731 0.39249 0.0
H399 H 0.66372 0.66181 0.37277 0.0
C400 C 0.678 0.78246 0.41091 0.0
N401 N 0.77749 0.94844 0.39824 0.0
C402 C 0.82255 0.99666 0.39271 0.0
C403 C 0.7686 0.97269 0.40762 0.0
N404 N 0.84165 0.04997 0.39825 0.0
C405 C 0.80776 0.03465 0.40766 0.0
C406 C 0.61248 0.84044 0.39062 0.0
O407 O 0.65139 0.75033 0.40248 0.0
O408 O 0.71906 0.8382 0.40946 0.0
O409 O 0.66142 0.8775 0.39542 0.0
O410 O 0.60786 0.79272 0.38624 0.0
O411 O 0.73502 0.8909 0.37786 0.0
H412 H 0.73456 0.94712 0.41393 0.0
H413 H 0.83976 0.99289 0.38463 0.0
O414 O 0.69227 0.79454 0.37313 0.0
O415 O 0.74112 0.75948 0.38907 0.0
O416 O 0.79675 0.85823 0.39218 0.0
C417 C 0.79339 0.80726 0.39048 0.0
H418 H 0.55345 0.56178 0.37133 0.0
H419 H 0.81131 0.06587 0.41419 0.0
Co420 Co 0.30392 0.93417 0.38754 0.0
C421 C 0.22727 0.90301 0.36991 0.0
Co422 Co 0.21003 0.9008 0.39326 0.0
C423 C 0.41439 0.93384 0.38802 0.0
C424 C 0.4136 0.98399 0.37371 0.0
N425 N 0.38266 0.95724 0.3832 0.0
N426 N 0.46275 0.94346 0.38188 0.0
C427 C 0.4628 0.97495 0.37282 0.0
H428 H 0.39906 0.90497 0.39537 0.0
H429 H 0.39878 1.00433 0.36743 0.0
C430 C 0.29442 0.93291 0.41054 0.0
N431 N 0.12926 0.8708 0.39777 0.0
C432 C 0.08183 0.86834 0.39216 0.0
C433 C 0.10406 0.83751 0.40711 0.0
N434 N 0.02812 0.8343 0.39759 0.0
C435 C 0.04226 0.81519 0.40702 0.0
C436 C 0.23233 0.8077 0.39035 0.0
O437 O 0.32762 0.93949 0.40221 0.0
O438 O 0.23883 0.918 0.40895 0.0
O439 O 0.19587 0.82254 0.39445 0.0
O440 O 0.28395 0.84932 0.38681 0.0
O441 O 0.18575 0.88482 0.37745 0.0
H442 H 0.12873 0.82813 0.4134 0.0
H443 H 0.08629 0.88924 0.38406 0.0
O444 O 0.28229 0.92946 0.37285 0.0
O445 O 0.32028 0.01811 0.3882 0.0
O446 O 0.22248 0.97896 0.39195 0.0
C447 C 0.27422 0.02504 0.38992 0.0
H448 H 0.49432 0.98793 0.36586 0.0
H449 H 0.01024 0.78714 0.41344 0.0
Co450 Co 0.66238 0.76504 0.80528 0.0
C451 C 0.70909 0.78722 0.78395 0.0
Co452 Co 0.73293 0.86173 0.80296 0.0
C453 C 0.54304 0.65854 0.80288 0.0
C454 C 0.59919 0.64085 0.81375 0.0
N455 N 0.59952 0.68487 0.8074 0.0
N456 N 0.50753 0.60014 0.80616 0.0
C457 C 0.54286 0.5887 0.81297 0.0
H458 H 0.52811 0.68155 0.7972 0.0
H459 H 0.63712 0.64645 0.81874 0.0
C460 C 0.69277 0.83532 0.82479 0.0
N461 N 0.79368 0.94188 0.80041 0.0
C462 C 0.80308 0.99351 0.80553 0.0
C463 C 0.83642 0.96109 0.79227 0.0
N464 N 0.84885 0.04368 0.80069 0.0
C465 C 0.87006 0.02352 0.79239 0.0
C466 C 0.61861 0.84483 0.80001 0.0
O467 O 0.66006 0.78204 0.82077 0.0
O468 O 0.72688 0.87893 0.81825 0.0
O469 O 0.67486 0.8832 0.79918 0.0
O470 O 0.60232 0.78967 0.8023 0.0
O471 O 0.73942 0.84133 0.78772 0.0
H472 H 0.8432 0.93174 0.78661 0.0
H473 H 0.77675 0.99449 0.81259 0.0
O474 O 0.66678 0.74685 0.78996 0.0
O475 O 0.72461 0.74407 0.8083 0.0
O476 O 0.79131 0.84198 0.8069 0.0
C477 C 0.77956 0.78807 0.80877 0.0
H478 H 0.52849 0.5462 0.81731 0.0
H479 H 0.90858 0.052 0.78705 0.0
Co480 Co 0.28934 0.92495 0.80352 0.0
C481 C 0.27083 0.95151 0.78214 0.0
Co482 Co 0.19305 0.89745 0.80056 0.0
C483 C 0.39648 0.91415 0.80178 0.0
C484 C 0.41199 0.98698 0.81284 0.0
N485 N 0.36946 0.94405 0.80611 0.0
N486 N 0.45367 0.93612 0.80558 0.0
C487 C 0.46393 0.9824 0.81248 0.0
H488 H 0.37479 0.87678 0.79591 0.0
H489 H 0.40532 0.01871 0.81784 0.0
C490 C 0.21541 0.88248 0.8225 0.0
N491 N 0.1119 0.87233 0.79741 0.0
C492 C 0.06448 0.85647 0.80448 0.0
C493 C 0.0859 0.85292 0.78726 0.0
N494 N 0.01027 0.82723 0.79914 0.0
C495 C 0.02383 0.82562 0.78829 0.0
C496 C 0.21399 0.8021 0.79773 0.0
O497 O 0.26979 0.90527 0.81891 0.0
O498 O 0.17294 0.87112 0.81562 0.0
O499 O 0.17559 0.81925 0.79639 0.0
O500 O 0.26778 0.84138 0.80063 0.0
O501 O 0.21623 0.92787 0.78565 0.0
H502 H 0.11006 0.85536 0.77964 0.0
H503 H 0.06931 0.8635 0.81344 0.0
O504 O 0.30983 0.94806 0.78826 0.0
O505 O 0.30767 0.00709 0.80649 0.0
O506 O 0.20943 0.97489 0.80488 0.0
C507 C 0.26339 0.01742 0.80689 0.0
H508 H 0.5053 0.00971 0.8172 0.0
H509 H 0.9912 0.80576 0.78155 0.0
Co510 Co 0.12808 0.39195 0.8051 0.0
C511 C 0.10407 0.34741 0.78361 0.0
Co512 Co 0.15129 0.31983 0.80252 0.0
C513 C 0.14478 0.51168 0.8025 0.0
C514 C 0.07137 0.45842 0.81381 0.0
N515 N 0.11371 0.45605 0.80732 0.0
N516 N 0.1237 0.54857 0.80571 0.0
C517 C 0.07721 0.51524 0.81279 0.0
H518 H 0.18173 0.52489 0.7966 0.0
H519 H 0.03861 0.42143 0.81899 0.0
C520 C 0.16531 0.35822 0.82444 0.0
N521 N 0.16774 0.25748 0.79984 0.0
C522 C 0.20883 0.24638 0.80488 0.0
C523 C 0.14269 0.21482 0.79172 0.0
N524 N 0.21104 0.19958 0.80002 0.0
C525 C 0.16946 0.17944 0.79179 0.0
C526 C 0.25162 0.43337 0.79988 0.0
O527 O 0.14698 0.39288 0.82056 0.0
O528 O 0.17266 0.32317 0.81781 0.0
O529 O 0.23288 0.37693 0.79901 0.0
O530 O 0.21319 0.4501 0.80213 0.0
O531 O 0.12668 0.31601 0.78725 0.0
H532 H 0.10692 0.20934 0.78612 0.0
H533 H 0.23684 0.27221 0.8119 0.0
O534 O 0.10613 0.38908 0.7898 0.0
O535 O 0.04423 0.33237 0.80811 0.0
O536 O 0.07088 0.26266 0.80618 0.0
C537 C 0.03046 0.2767 0.80825 0.0
H538 H 0.05022 0.53122 0.81706 0.0
H539 H 0.158 0.14061 0.78645 0.0
Co540 Co 0.23075 0.39106 0.30129 0.0
C541 C 0.26236 0.33932 0.28406 0.0
Co542 Co 0.26617 0.33379 0.30717 0.0
C543 C 0.19535 0.48476 0.30272 0.0
C544 C 0.16671 0.43272 0.2876 0.0
N545 N 0.19922 0.44069 0.297 0.0
N546 N 0.16125 0.50403 0.29728 0.0
C547 C 0.14356 0.47139 0.28774 0.0
H548 H 0.21553 0.50097 0.31088 0.0
H549 H 0.15865 0.39942 0.28117 0.0
C550 C 0.23564 0.37777 0.32484 0.0
N551 N 0.28976 0.27823 0.31106 0.0
C552 C 0.25731 0.2194 0.30784 0.0
C553 C 0.33497 0.28146 0.31745 0.0
N554 N 0.2792 0.18537 0.31205 0.0
C555 C 0.32881 0.22409 0.318 0.0
C556 C 0.35586 0.45461 0.30428 0.0
O557 O 0.21377 0.39726 0.31728 0.0
O558 O 0.26576 0.35292 0.32188 0.0
O559 O 0.35015 0.40185 0.3057 0.0
O560 O 0.30859 0.45873 0.30279 0.0
O561 O 0.26734 0.31232 0.29245 0.0
H562 H 0.36937 0.32235 0.32155 0.0
H563 H 0.21818 0.20154 0.30236 0.0
O564 O 0.24941 0.38142 0.28557 0.0
O565 O 0.15257 0.32473 0.29973 0.0
O566 O 0.1816 0.26943 0.3088 0.0
C567 C 0.13932 0.27525 0.30444 0.0
H568 H 0.11611 0.47537 0.28125 0.0
H569 H 0.35762 0.21161 0.32259 0.0
Co570 Co 0.68285 0.8709 0.2998 0.0
C571 C 0.73271 0.95532 0.28244 0.0
Co572 Co 0.73796 0.9654 0.30559 0.0
C573 C 0.58755 0.7423 0.30118 0.0
C574 C 0.64358 0.76235 0.28661 0.0
N575 N 0.63407 0.78894 0.29557 0.0
N576 N 0.56813 0.68769 0.29612 0.0
C577 C 0.60336 0.7005 0.28691 0.0
H578 H 0.56954 0.74814 0.30901 0.0
H579 H 0.67868 0.78625 0.28038 0.0
C580 C 0.69507 0.88887 0.32325 0.0
N581 N 0.7908 0.04503 0.30991 0.0
C582 C 0.84666 0.07824 0.30533 0.0
C583 C 0.79286 0.07493 0.31942 0.0
N584 N 0.88399 0.12635 0.31166 0.0
C585 C 0.85068 0.12485 0.32058 0.0
C586 C 0.61668 0.92966 0.30301 0.0
O587 O 0.67579 0.84741 0.3157 0.0
O588 O 0.71982 0.94382 0.3203 0.0
O589 O 0.66845 0.97775 0.30459 0.0
O590 O 0.61417 0.87917 0.30118 0.0
O591 O 0.75759 0.98911 0.29079 0.0
H592 H 0.75676 0.05866 0.32559 0.0
H593 H 0.86197 0.0638 0.29809 0.0
O594 O 0.69329 0.89904 0.28405 0.0
O595 O 0.75056 0.86161 0.29847 0.0
O596 O 0.805 0.94959 0.30675 0.0
C597 C 0.80026 0.90091 0.30278 0.0
H598 H 0.60012 0.66762 0.28077 0.0
H599 H 0.86782 0.15552 0.32767 0.0
Co600 Co 0.20074 0.83723 0.29983 0.0
C601 C 0.11571 0.80352 0.28258 0.0
Co602 Co 0.10726 0.80449 0.30563 0.0
C603 C 0.32828 0.86829 0.30093 0.0
C604 C 0.30656 0.89916 0.28594 0.0
N605 N 0.28113 0.86619 0.29529 0.0
N606 N 0.38204 0.9019 0.29552 0.0
C607 C 0.36828 0.92105 0.28605 0.0
H608 H 0.32362 0.84758 0.30906 0.0
H609 H 0.28211 0.9087 0.27961 0.0
C610 C 0.18429 0.83675 0.3232 0.0
N611 N 0.02887 0.78245 0.31002 0.0
C612 C 0.99779 0.80655 0.30521 0.0
C613 C 0.99805 0.75639 0.31956 0.0
N614 N 0.95 0.79814 0.3114 0.0
C615 C 0.94959 0.76658 0.32048 0.0
C616 C 0.13629 0.71304 0.30366 0.0
O617 O 0.22561 0.85453 0.31563 0.0
O618 O 0.12923 0.81015 0.3203 0.0
O619 O 0.09027 0.72019 0.30527 0.0
O620 O 0.18787 0.75891 0.30143 0.0
O621 O 0.08294 0.79802 0.29092 0.0
H622 H 0.01254 0.73581 0.32585 0.0
H623 H 0.01332 0.83512 0.29782 0.0
O624 O 0.17137 0.81858 0.28416 0.0
O625 O 0.21559 0.91593 0.2984 0.0
O626 O 0.12806 0.88978 0.30618 0.0
C627 C 0.17966 0.93124 0.30258 0.0
H628 H 0.40053 0.94892 0.27965 0.0
H629 H 0.91835 0.75432 0.32747 0.0
Co630 Co 0.66519 0.8491 0.89482 0.0
C631 C 0.70524 0.87507 0.87272 0.0
Co632 Co 0.72977 0.94557 0.8917 0.0
C633 C 0.57512 0.72373 0.89034 0.0
C634 C 0.61038 0.73787 0.90702 0.0
N635 N 0.61235 0.76764 0.89754 0.0
N636 N 0.55076 0.66768 0.89492 0.0
C637 C 0.57252 0.67648 0.90544 0.0
H638 H 0.56751 0.73254 0.88181 0.0
H639 H 0.63639 0.75933 0.91449 0.0
C640 C 0.68316 0.92451 0.91314 0.0
N641 N 0.78754 0.02709 0.88954 0.0
C642 C 0.84273 0.05571 0.89453 0.0
C643 C 0.7871 0.06964 0.88287 0.0
N644 N 0.87711 0.11387 0.89117 0.0
C645 C 0.84222 0.12327 0.88388 0.0
C646 C 0.60927 0.91218 0.88853 0.0
O647 O 0.65307 0.86947 0.90978 0.0
O648 O 0.72569 0.96342 0.90698 0.0
O649 O 0.66268 0.95905 0.88896 0.0
O650 O 0.60195 0.85972 0.89027 0.0
O651 O 0.73235 0.92943 0.87636 0.0
H652 H 0.74979 0.06187 0.87746 0.0
H653 H 0.85782 0.03434 0.90055 0.0
O654 O 0.67595 0.83142 0.87959 0.0
O655 O 0.72797 0.83639 0.89939 0.0
O656 O 0.79477 0.92842 0.89423 0.0
C657 C 0.78274 0.87617 0.89761 0.0
H658 H 0.56134 0.64113 0.91159 0.0
H659 H 0.85632 0.16515 0.87934 0.0
Co660 Co 0.20172 0.84077 0.89173 0.0
C661 C 0.16727 0.85664 0.87012 0.0
Co662 Co 0.1039 0.80215 0.88894 0.0
C663 C 0.32914 0.86571 0.89295 0.0
C664 C 0.31952 0.94407 0.89106 0.0
N665 N 0.28675 0.88298 0.89263 0.0
N666 N 0.38639 0.91394 0.89177 0.0
C667 C 0.38004 0.96301 0.89065 0.0
H668 H 0.31812 0.81872 0.89358 0.0
H669 H 0.30084 0.97335 0.8895 0.0
C670 C 0.13553 0.77616 0.90997 0.0
N671 N 0.02023 0.7689 0.88789 0.0
C672 C 0.9925 0.80187 0.88643 0.0
C673 C 0.97615 0.71454 0.89174 0.0
N674 N 0.93396 0.77208 0.88984 0.0
C675 C 0.92306 0.71636 0.89295 0.0
C676 C 0.1475 0.72438 0.88383 0.0
O677 O 0.19044 0.80518 0.90638 0.0
O678 O 0.09386 0.77684 0.9042 0.0
O679 O 0.09878 0.72689 0.88495 0.0
O680 O 0.19894 0.77149 0.88571 0.0
O681 O 0.11319 0.82431 0.8737 0.0
H682 H 0.98356 0.67829 0.89454 0.0
H683 H 0.01659 0.84928 0.88401 0.0
O684 O 0.21118 0.87275 0.8769 0.0
O685 O 0.20421 0.90957 0.89796 0.0
O686 O 0.11178 0.87966 0.89285 0.0
C687 C 0.16179 0.92096 0.89679 0.0
H688 H 0.41626 0.00894 0.88888 0.0
H689 H 0.88117 0.68079 0.8966 0.0
Co690 Co 0.225 0.39813 0.89359 0.0
C691 C 0.20195 0.35047 0.87207 0.0
Co692 Co 0.25147 0.32892 0.8909 0.0
C693 C 0.19827 0.49374 0.8888 0.0
C694 C 0.17375 0.4583 0.90546 0.0
N695 N 0.2014 0.45477 0.89605 0.0
N696 N 0.16851 0.52024 0.89327 0.0
C697 C 0.15336 0.49844 0.90376 0.0
H698 H 0.21519 0.50069 0.88028 0.0
H699 H 0.16674 0.43152 0.91293 0.0
C700 C 0.28472 0.38293 0.91179 0.0
N701 N 0.27196 0.26869 0.88909 0.0
C702 C 0.23285 0.20791 0.88879 0.0
C703 C 0.32699 0.27444 0.89093 0.0
N704 N 0.26068 0.17565 0.89082 0.0
C705 C 0.32021 0.21738 0.89199 0.0
C706 C 0.34213 0.4463 0.88588 0.0
O707 O 0.2592 0.41214 0.90838 0.0
O708 O 0.28023 0.33937 0.90586 0.0
O709 O 0.33162 0.39173 0.8865 0.0
O710 O 0.30046 0.45798 0.88835 0.0
O711 O 0.22559 0.32012 0.87578 0.0
H712 H 0.36853 0.31716 0.89239 0.0
H713 H 0.18401 0.18742 0.88808 0.0
O714 O 0.19449 0.38553 0.87869 0.0
O715 O 0.14781 0.33855 0.89866 0.0
O716 O 0.16979 0.26763 0.89527 0.0
C717 C 0.13081 0.28263 0.89805 0.0
H718 H 0.12928 0.51073 0.90976 0.0
H719 H 0.35585 0.20763 0.8941 0.0
Co720 Co 0.80212 0.73356 0.72179 0.0
C721 C 0.83785 0.6923 0.70419 0.0
Co722 Co 0.83842 0.67611 0.72761 0.0
C723 C 0.80128 0.84398 0.72247 0.0
C724 C 0.75279 0.79331 0.70799 0.0
N725 N 0.77811 0.78872 0.71759 0.0
N726 N 0.79321 0.88328 0.71623 0.0
C727 C 0.76264 0.85188 0.70707 0.0
H728 H 0.8295 0.85738 0.72989 0.0
H729 H 0.73345 0.7584 0.70161 0.0
C730 C 0.80067 0.72305 0.74492 0.0
N731 N 0.8696 0.626 0.73184 0.0
C732 C 0.87144 0.58097 0.72606 0.0
C733 C 0.90343 0.63387 0.74105 0.0
N734 N 0.90566 0.56105 0.73124 0.0
C735 C 0.92552 0.59424 0.74071 0.0
C736 C 0.92878 0.79358 0.72523 0.0
O737 O 0.79516 0.75048 0.73662 0.0
O738 O 0.81747 0.68381 0.74328 0.0
O739 O 0.91633 0.74312 0.72947 0.0
O740 O 0.88598 0.79974 0.72117 0.0
O741 O 0.85764 0.67119 0.7118 0.0
H742 H 0.91307 0.6677 0.74745 0.0
H743 H 0.84982 0.56459 0.71801 0.0
O744 O 0.80826 0.71782 0.70704 0.0
O745 O 0.71906 0.66454 0.72221 0.0
O746 O 0.76099 0.60842 0.72569 0.0
C747 C 0.71389 0.61208 0.72365 0.0
H748 H 0.75125 0.8708 0.7 0.0
H749 H 0.95386 0.59009 0.74698 0.0
Co750 Co 0.3318 0.10081 0.72075 0.0
C751 C 0.37323 0.17701 0.70305 0.0
Co752 Co 0.38906 0.19511 0.72648 0.0
C753 C 0.22242 0.9885 0.72187 0.0
C754 C 0.27112 0.99044 0.70708 0.0
N755 N 0.2769 0.0209 0.71671 0.0
N756 N 0.18251 0.94035 0.71581 0.0
C757 C 0.2126 0.94104 0.70646 0.0
H758 H 0.20977 1.00364 0.72936 0.0
H759 H 0.30502 1.00604 0.70051 0.0
C760 C 0.34214 0.11128 0.74384 0.0
N761 N 0.43828 0.27658 0.73072 0.0
C762 C 0.48407 0.32379 0.72512 0.0
C763 C 0.42907 0.30219 0.73987 0.0
N764 N 0.50318 0.3778 0.73038 0.0
C765 C 0.46868 0.36406 0.73969 0.0
C766 C 0.27113 0.16668 0.72413 0.0
O767 O 0.31516 0.07776 0.73558 0.0
O768 O 0.38113 0.16747 0.74217 0.0
O769 O 0.32175 0.20534 0.72824 0.0
O770 O 0.26501 0.11752 0.72011 0.0
O771 O 0.39444 0.21851 0.71061 0.0
H772 H 0.39446 0.27761 0.74615 0.0
H773 H 0.50173 0.31885 0.71717 0.0
O774 O 0.34737 0.12192 0.70599 0.0
O775 O 0.40136 0.0877 0.72122 0.0
O776 O 0.45716 0.18612 0.72469 0.0
C777 C 0.45373 0.13533 0.72271 0.0
H778 H 0.19274 0.91024 0.69945 0.0
H779 H 0.47207 0.39637 0.74598 0.0
Co780 Co 0.96517 0.26494 0.72102 0.0
C781 C 0.8902 0.23049 0.70315 0.0
Co782 Co 0.87041 0.22762 0.72655 0.0
C783 C 0.07658 0.26624 0.72206 0.0
C784 C 0.07619 0.31511 0.70753 0.0
N785 N 0.04523 0.28974 0.71708 0.0
N786 N 0.12442 0.2741 0.71592 0.0
C787 C 0.12472 0.30494 0.70674 0.0
H788 H 0.06074 0.23771 0.72945 0.0
H789 H 0.06135 0.33452 0.70107 0.0
C790 C 0.95294 0.26374 0.7441 0.0
N791 N 0.78853 0.19535 0.73061 0.0
C792 C 0.74194 0.19432 0.72492 0.0
C793 C 0.76197 0.16009 0.73967 0.0
N794 N 0.68741 0.15924 0.73004 0.0
C795 C 0.70019 0.13796 0.73935 0.0
C796 C 0.89838 0.13799 0.72419 0.0
O797 O 0.98712 0.27054 0.7359 0.0
O798 O 0.89703 0.24692 0.7423 0.0
O799 O 0.85957 0.14984 0.72824 0.0
O800 O 0.94783 0.1812 0.72025 0.0
O801 O 0.84821 0.2099 0.71063 0.0
H802 H 0.78583 0.14966 0.74598 0.0
H803 H 0.74768 0.2173 0.71701 0.0
O804 O 0.94508 0.26006 0.70619 0.0
O805 O 0.97885 0.34799 0.72165 0.0
O806 O 0.88011 0.30507 0.72483 0.0
C807 C 0.93122 0.35269 0.72306 0.0
H808 H 0.15556 0.31617 0.69971 0.0
H809 H 0.66728 0.10875 0.74554 0.0
Co810 Co 0.3309 0.1075 0.13879 0.0
C811 C 0.37821 0.12972 0.11739 0.0
Co812 Co 0.39783 0.20407 0.13613 0.0
C813 C 0.21651 1.0002 0.13565 0.0
C814 C 0.26915 0.98312 0.14752 0.0
N815 N 0.27125 0.02674 0.14079 0.0
N816 N 0.18 0.94241 0.13898 0.0
C817 C 0.21293 0.9309 0.14638 0.0
H818 H 0.20319 0.02277 0.12956 0.0
H819 H 0.30544 0.98929 0.15305 0.0
C820 C 0.3577 0.1773 0.15809 0.0
N821 N 0.45233 0.28556 0.13336 0.0
C822 C 0.48795 0.33135 0.14042 0.0
C823 C 0.45477 0.31333 0.12359 0.0
N824 N 0.51147 0.38641 0.13543 0.0
C825 C 0.49106 0.37505 0.12483 0.0
C826 C 0.28093 0.18042 0.13316 0.0
O827 O 0.3283 0.12339 0.15423 0.0
O828 O 0.38845 0.22137 0.15138 0.0
O829 O 0.3363 0.2197 0.13179 0.0
O830 O 0.26744 0.12716 0.13616 0.0
O831 O 0.40865 0.18399 0.12108 0.0
H832 H 0.42952 0.2904 0.11613 0.0
H833 H 0.49458 0.32471 0.14914 0.0
O834 O 0.33544 0.08996 0.12341 0.0
O835 O 0.39583 0.09104 0.14164 0.0
O836 O 0.45967 0.19008 0.14057 0.0
C837 C 0.44989 0.13658 0.14233 0.0
H838 H 0.19675 0.88862 0.15091 0.0
H839 H 0.50183 0.40899 0.11839 0.0
Co840 Co 0.95529 0.26126 0.13736 0.0
C841 C 0.93558 0.2909 0.11615 0.0
Co842 Co 0.85851 0.2299 0.13418 0.0
C843 C 0.0609 0.24779 0.14003 0.0
C844 C 0.08577 0.34142 0.13868 0.0
N845 N 0.03703 0.28493 0.13968 0.0
N846 N 0.12203 0.2783 0.1389 0.0
C847 C 0.13794 0.33752 0.13821 0.0
H848 H 0.03383 0.1987 0.14025 0.0
H849 H 0.08348 0.38246 0.13752 0.0
C850 C 0.88165 0.2117 0.15601 0.0
N851 N 0.77742 0.20224 0.1312 0.0
C852 C 0.73176 0.19235 0.13826 0.0
C853 C 0.74976 0.17729 0.12139 0.0
N854 N 0.67676 0.1614 0.13327 0.0
C855 C 0.68804 0.15233 0.12263 0.0
C856 C 0.88536 0.13951 0.13045 0.0
O857 O 0.93639 0.23711 0.15251 0.0
O858 O 0.83909 0.19997 0.1491 0.0
O859 O 0.84496 0.15407 0.12932 0.0
O860 O 0.93814 0.18014 0.13355 0.0
O861 O 0.88038 0.26383 0.11943 0.0
H862 H 0.77282 0.17527 0.11391 0.0
H863 H 0.7385 0.20559 0.14699 0.0
O864 O 0.97518 0.2888 0.12229 0.0
O865 O 0.9688 0.34043 0.14129 0.0
O866 O 0.87031 0.30433 0.13919 0.0
C867 C 0.92272 0.34782 0.14178 0.0
H868 H 0.18366 0.37527 0.13694 0.0
H869 H 0.65413 0.12957 0.11618 0.0
Co870 Co 0.80471 0.73321 0.13781 0.0
C871 C 0.77447 0.68244 0.11668 0.0
Co872 Co 0.8323 0.66477 0.13492 0.0
C873 C 0.82069 0.8541 0.13913 0.0
C874 C 0.72652 0.78551 0.13942 0.0
N875 N 0.78301 0.79303 0.1398 0.0
N876 N 0.79035 0.88467 0.138 0.0
C877 C 0.73088 0.8416 0.13833 0.0
H878 H 0.86968 0.87594 0.13861 0.0
H879 H 0.68477 0.74199 0.13913 0.0
C880 C 0.85191 0.70891 0.15665 0.0
N881 N 0.85804 0.60985 0.1321 0.0
C882 C 0.86744 0.57424 0.13922 0.0
C883 C 0.88307 0.60663 0.12231 0.0
N884 N 0.89839 0.55008 0.13428 0.0
C885 C 0.9078 0.56994 0.12363 0.0
C886 C 0.9261 0.78093 0.13106 0.0
O887 O 0.82819 0.73935 0.15301 0.0
O888 O 0.86165 0.6759 0.14988 0.0
O889 O 0.90881 0.72518 0.13008 0.0
O890 O 0.88717 0.79575 0.13398 0.0
O891 O 0.79908 0.65247 0.12012 0.0
H892 H 0.88566 0.63163 0.11481 0.0
H893 H 0.8541 0.56809 0.14795 0.0
O894 O 0.77816 0.72526 0.12273 0.0
O895 O 0.72405 0.66833 0.14177 0.0
O896 O 0.75731 0.60361 0.13992 0.0
C897 C 0.71488 0.61413 0.1424 0.0
H898 H 0.69311 0.84959 0.13736 0.0
H899 H 0.93076 0.55854 0.11724 0.0
Co900 Co 0.89912 0.72227 0.63381 0.0
C901 C 0.93457 0.67234 0.61675 0.0
Co902 Co 0.9353 0.66497 0.63989 0.0
C903 C 0.86657 0.81818 0.63482 0.0
C904 C 0.83289 0.76217 0.62022 0.0
N905 N 0.86769 0.77189 0.62936 0.0
N906 N 0.83186 0.83707 0.62949 0.0
C907 C 0.81093 0.8019 0.62027 0.0
H908 H 0.8891 0.83628 0.64274 0.0
H909 H 0.82252 0.72703 0.61405 0.0
C910 C 0.90144 0.70874 0.65732 0.0
N911 N 0.95907 0.60957 0.64416 0.0
C912 C 0.93674 0.55493 0.63907 0.0
C913 C 0.98282 0.60365 0.65386 0.0
N914 N 0.94405 0.51486 0.64521 0.0
C915 C 0.97304 0.54498 0.65457 0.0
C916 C 0.02397 0.78631 0.63739 0.0
O917 O 0.8816 0.72952 0.64965 0.0
O918 O 0.93016 0.68219 0.65455 0.0
O919 O 0.01859 0.73397 0.63917 0.0
O920 O 0.97686 0.78994 0.63533 0.0
O921 O 0.9412 0.64669 0.62518 0.0
H922 H 1.00108 0.63764 0.66041 0.0
H923 H 0.90952 0.54232 0.63152 0.0
O924 O 0.91816 0.71203 0.61815 0.0
O925 O 0.82114 0.6554 0.63231 0.0
O926 O 0.85132 0.59888 0.64071 0.0
C927 C 0.80865 0.60505 0.63659 0.0
H928 H 0.78199 0.80481 0.61396 0.0
H929 H 0.98344 0.52514 0.66163 0.0
Co930 Co 0.34856 0.20224 0.63244 0.0
C931 C 0.39979 0.28584 0.61506 0.0
Co932 Co 0.40502 0.29657 0.63822 0.0
C933 C 0.25341 0.0741 0.63399 0.0
C934 C 0.30841 0.09376 0.61929 0.0
N935 N 0.29931 0.12056 0.62826 0.0
N936 N 0.23405 0.01939 0.62901 0.0
C937 C 0.26856 0.03189 0.61971 0.0
H938 H 0.23595 0.0801 0.64188 0.0
H939 H 0.34319 0.11747 0.613 0.0
C940 C 0.36037 0.22053 0.65591 0.0
N941 N 0.4592 0.37626 0.64243 0.0
C942 C 0.51503 0.40844 0.63776 0.0
C943 C 0.46242 0.40679 0.65192 0.0
N944 N 0.55335 0.45649 0.64402 0.0
C945 C 0.52077 0.45601 0.65297 0.0
C946 C 0.28357 0.26252 0.63547 0.0
O947 O 0.34038 0.17907 0.64836 0.0
O948 O 0.38668 0.27558 0.65296 0.0
O949 O 0.33576 0.31011 0.63715 0.0
O950 O 0.28044 0.21174 0.63364 0.0
O951 O 0.42485 0.31965 0.6234 0.0
H952 H 0.42668 0.39137 0.65815 0.0
H953 H 0.52952 0.39325 0.63052 0.0
O954 O 0.35981 0.22983 0.61669 0.0
O955 O 0.41558 0.19144 0.63128 0.0
O956 O 0.47137 0.27937 0.63948 0.0
C957 C 0.46559 0.23005 0.6356 0.0
H958 H 0.26517 0.99876 0.61361 0.0
H959 H 0.53871 0.48692 0.66002 0.0
Co960 Co 0.86687 0.17222 0.63263 0.0
C961 C 0.78218 0.1361 0.61535 0.0
Co962 Co 0.77259 0.13428 0.63852 0.0
C963 C 0.99531 0.20465 0.63371 0.0
C964 C 0.97453 0.24037 0.61926 0.0
N965 N 0.94846 0.20449 0.62828 0.0
N966 N 0.04954 0.23975 0.62849 0.0
C967 C 0.03628 0.262 0.61937 0.0
H968 H 0.98999 0.18099 0.64153 0.0
H969 H 0.95037 0.25153 0.61314 0.0
C970 C 0.84929 0.16868 0.65612 0.0
N971 N 0.69299 0.10938 0.64279 0.0
C972 C 0.66099 0.13238 0.63791 0.0
C973 C 0.66294 0.08437 0.65244 0.0
N974 N 0.61356 0.12449 0.64417 0.0
C975 C 0.61422 0.0942 0.65336 0.0
C976 C 0.80664 0.04695 0.63615 0.0
O977 O 0.8907 0.18961 0.64853 0.0
O978 O 0.79421 0.13905 0.65322 0.0
O979 O 0.75898 0.05134 0.63778 0.0
O980 O 0.85732 0.09468 0.63416 0.0
O981 O 0.74892 0.12872 0.62373 0.0
H982 H 0.67844 0.06532 0.65885 0.0
H983 H 0.67601 0.16055 0.63047 0.0
O984 O 0.83842 0.15325 0.6169 0.0
O985 O 0.87761 0.25012 0.63117 0.0
O986 O 0.78996 0.21799 0.63947 0.0
C987 C 0.83914 0.2616 0.63552 0.0
H988 H 0.06882 0.29154 0.61316 0.0
H989 H 0.58382 0.08299 0.66046 0.0
Co990 Co 0.33488 0.18785 0.22818 0.0
C991 C 0.37642 0.21549 0.20611 0.0
Co992 Co 0.39924 0.28491 0.22515 0.0
C993 C 0.24643 0.06232 0.22351 0.0
C994 C 0.28127 0.07627 0.24021 0.0
N995 N 0.28302 0.10617 0.23077 0.0
N996 N 0.22266 1.0062 0.22801 0.0
C997 C 0.24416 0.01485 0.23855 0.0
H998 H 0.23878 0.07127 0.21499 0.0
H999 H 0.3069 0.09769 0.24772 0.0
C1000 C 0.35083 0.26223 0.24652 0.0
N1001 N 0.45594 0.36773 0.22321 0.0
C1002 C 0.51731 0.39338 0.22306 0.0
C1003 C 0.44653 0.41524 0.22435 0.0
N1004 N 0.54656 0.45438 0.22441 0.0
C1005 C 0.50196 0.46841 0.22507 0.0
C1006 C 0.27792 0.24932 0.22171 0.0
O1007 O 0.32186 0.20713 0.24316 0.0
O1008 O 0.3929 0.3018 0.24037 0.0
O1009 O 0.33114 0.29645 0.22205 0.0
O1010 O 0.27106 0.19725 0.22363 0.0
O1011 O 0.40402 0.26969 0.20985 0.0
H1012 H 0.40241 0.41138 0.2254 0.0
H1013 H 0.54051 0.36759 0.22278 0.0
O1014 O 0.34655 0.17152 0.2129 0.0
O1015 O 0.39797 0.17586 0.23276 0.0
O1016 O 0.46474 0.26884 0.22816 0.0
C1017 C 0.4528 0.21632 0.23136 0.0
H1018 H 0.23321 0.97937 0.24467 0.0
H1019 H 0.50854 0.51344 0.22646 0.0
Co1020 Co 0.86949 0.176 0.22531 0.0
C1021 C 0.83395 0.18958 0.20362 0.0
Co1022 Co 0.77182 0.13789 0.22262 0.0
C1023 C 0.99723 0.20111 0.22639 0.0
C1024 C 0.98705 0.2789 0.22409 0.0
N1025 N 0.95461 0.21806 0.22598 0.0
N1026 N 0.05429 0.24937 0.22498 0.0
C1027 C 0.04757 0.29807 0.2236 0.0
H1028 H 0.98651 0.15431 0.22725 0.0
H1029 H 0.96808 0.30777 0.22237 0.0
C1030 C 0.80422 0.1134 0.24372 0.0
N1031 N 0.68808 0.10557 0.22178 0.0
C1032 C 0.66096 0.13916 0.22031 0.0
C1033 C 0.64389 0.052 0.22588 0.0
N1034 N 0.60284 0.1106 0.22397 0.0
C1035 C 0.59147 0.05494 0.22725 0.0
C1036 C 0.81429 0.05878 0.21779 0.0
O1037 O 0.85895 0.14137 0.24002 0.0
O1038 O 0.76272 0.1148 0.238 0.0
O1039 O 0.76563 0.0614 0.21901 0.0
O1040 O 0.86591 0.10611 0.21943 0.0
O1041 O 0.78001 0.15759 0.20729 0.0
H1042 H 0.65093 0.01563 0.22877 0.0
H1043 H 0.68529 0.18623 0.21768 0.0
O1044 O 0.87808 0.20678 0.2104 0.0
O1045 O 0.87298 0.24555 0.23143 0.0
O1046 O 0.78118 0.21668 0.2261 0.0
C1047 C 0.83136 0.25786 0.23001 0.0
H1048 H 0.08351 0.34378 0.2216 0.0
H1049 H 0.54978 0.0202 0.2311 0.0
Co1050 Co 0.89692 0.73412 0.22616 0.0
C1051 C 0.87816 0.69065 0.20436 0.0
Co1052 Co 0.92503 0.66616 0.2232 0.0
C1053 C 0.86825 0.82937 0.22179 0.0
C1054 C 0.84451 0.79221 0.23834 0.0
N1055 N 0.87228 0.79005 0.22884 0.0
N1056 N 0.83793 0.8548 0.2265 0.0
C1057 C 0.82332 0.83187 0.23692 0.0
H1058 H 0.88499 0.83735 0.21325 0.0
H1059 H 0.83798 0.7648 0.2457 0.0
C1060 C 0.95486 0.71677 0.24441 0.0
N1061 N 0.94602 0.60617 0.22125 0.0
C1062 C 0.90694 0.54537 0.22082 0.0
C1063 C 1.00078 0.61175 0.22332 0.0
N1064 N 0.93438 0.51291 0.22305 0.0
C1065 C 0.99377 0.55459 0.22443 0.0
C1066 C 0.0152 0.78418 0.21886 0.0
O1067 O 0.92945 0.74615 0.24105 0.0
O1068 O 0.95152 0.67424 0.23831 0.0
O1069 O 1.00543 0.72981 0.21932 0.0
O1070 O 0.97286 0.79499 0.22128 0.0
O1071 O 0.9017 0.66006 0.208 0.0
H1072 H 0.04209 0.65436 0.22498 0.0
H1073 H 0.85821 0.52492 0.21994 0.0
O1074 O 0.86834 0.72357 0.21114 0.0
O1075 O 0.81936 0.67335 0.23092 0.0
O1076 O 0.84305 0.60411 0.22702 0.0
C1077 C 0.80336 0.6178 0.22996 0.0
H1078 H 0.79906 0.84308 0.24307 0.0
H1079 H 0.02907 0.54475 0.22677 0.0
C1080 C 0.44628 0.15507 0.10056 0.0
C1081 C 0.40024 0.11085 0.10739 0.0
H1082 H 0.50444 0.17333 0.08635 0.0
C1083 C 0.38098 0.04891 0.10534 0.0
H1084 H 0.46311 0.2031 0.10197 0.0
C1085 C 0.40614 0.03178 0.09649 0.0
C1086 C 0.4509 0.07625 0.0895 0.0
H1087 H 0.34649 0.01356 0.11058 0.0
H1088 H 0.38856 0.98387 0.09479 0.0
C1089 C 0.47084 0.13799 0.09173 0.0
C1090 C 0.91099 0.33635 0.09978 0.0
C1091 C 0.95493 0.33361 0.10646 0.0
H1092 H 0.89335 0.37802 0.08585 0.0
C1093 C 0.01696 0.37673 0.10454 0.0
H1094 H 0.86289 0.30486 0.1011 0.0
C1095 C 0.03446 0.42009 0.0959 0.0
C1096 C 0.99025 0.42108 0.08903 0.0
H1097 H 0.05207 0.37686 0.10968 0.0
H1098 H 0.08243 0.45047 0.09423 0.0
C1099 C 0.92843 0.37919 0.09117 0.0
C1100 C 0.65029 0.65852 0.09591 0.0
C1101 C 0.64808 0.61273 0.089 0.0
H1102 H 0.69333 0.7179 0.10992 0.0
C1103 C 0.68744 0.59015 0.09128 0.0
H1104 H 0.62195 0.67814 0.09411 0.0
C1105 C 0.72901 0.61347 0.10011 0.0
C1106 C 0.733 0.66072 0.10684 0.0
H1107 H 0.68772 0.55585 0.0859 0.0
H1108 H 0.75865 0.59496 0.10155 0.0
C1109 C 0.69239 0.68232 0.10476 0.0
C1110 C 0.06502 0.38852 0.43967 0.0
C1111 C 0.08301 0.45035 0.44159 0.0
H1112 H 0.07346 0.32349 0.42931 0.0
C1113 C 0.12857 0.49461 0.4347 0.0
H1114 H 0.03083 0.35299 0.44492 0.0
C1115 C 0.15319 0.47743 0.42584 0.0
C1116 C 0.13408 0.41564 0.42374 0.0
H1117 H 0.14441 0.54251 0.43601 0.0
H1118 H 0.18599 0.5126 0.42033 0.0
C1119 C 0.09043 0.37141 0.43088 0.0
C1120 C 0.68582 0.70285 0.43705 0.0
C1121 C 0.62348 0.66027 0.43883 0.0
H1122 H 0.75253 0.77736 0.42704 0.0
C1123 C 0.58033 0.66484 0.43223 0.0
H1124 H 0.72039 0.70164 0.44215 0.0
C1125 C 0.59882 0.70894 0.42382 0.0
C1126 C 0.66095 0.75037 0.42182 0.0
H1127 H 0.53205 0.63385 0.43346 0.0
H1128 H 0.56432 0.70912 0.41852 0.0
C1129 C 0.70437 0.74747 0.42862 0.0
C1130 C 0.36387 0.92244 0.42359 0.0
C1131 C 0.32479 0.94569 0.42154 0.0
H1132 H 0.43652 0.9271 0.4334 0.0
C1133 C 0.32918 0.99259 0.4284 0.0
H1134 H 0.3625 0.88727 0.41823 0.0
C1135 C 0.37305 0.01678 0.43695 0.0
C1136 C 0.41336 0.99452 0.43879 0.0
H1137 H 0.30119 0.01278 0.42677 0.0
H1138 H 0.37551 0.05316 0.44208 0.0
C1139 C 0.40728 0.94622 0.43212 0.0
C1140 C 0.65747 0.02875 0.93272 0.0
C1141 C 0.6095 0.98648 0.93946 0.0
H1142 H 0.71986 0.04244 0.91937 0.0
C1143 C 0.58636 0.9239 0.93751 0.0
H1144 H 0.67764 0.07714 0.93428 0.0
C1145 C 0.61114 0.90382 0.9292 0.0
C1146 C 0.66046 0.94582 0.92266 0.0
H1147 H 0.55039 0.89024 0.94279 0.0
H1148 H 0.59194 0.85528 0.92798 0.0
C1149 C 0.68271 0.00863 0.92441 0.0
C1150 C 0.16175 0.73497 0.92696 0.0
C1151 C 0.11771 0.73418 0.91979 0.0
H1152 H 0.17921 0.69814 0.94168 0.0
C1153 C 0.05601 0.68931 0.92157 0.0
H1154 H 0.20956 0.76797 0.92577 0.0
C1155 C 0.03871 0.64782 0.93051 0.0
C1156 C 0.08265 0.65058 0.93792 0.0
H1157 H 0.02075 0.68644 0.9161 0.0
H1158 H 0.99082 0.61604 0.93197 0.0
C1159 C 0.14435 0.69417 0.93596 0.0
C1160 C 0.37773 0.47952 0.93641 0.0
C1161 C 0.41739 0.45704 0.93853 0.0
H1162 H 0.30443 0.47338 0.92659 0.0
C1163 C 0.41344 0.41006 0.93174 0.0
H1164 H 0.37873 0.51474 0.9417 0.0
C1165 C 0.36938 0.38496 0.92322 0.0
C1166 C 0.32841 0.40637 0.92133 0.0
H1167 H 0.44192 0.39046 0.93341 0.0
H1168 H 0.36717 0.34845 0.91816 0.0
C1169 C 0.3342 0.4549 0.9279 0.0
C1170 C 0.99827 0.69656 0.59938 0.0
C1171 C 0.94878 0.65452 0.60587 0.0
H1172 H 0.06199 0.7097 0.58631 0.0
C1173 C 0.92466 0.59192 0.60383 0.0
H1174 H 0.01928 0.74492 0.60107 0.0
C1175 C 0.9499 0.57153 0.59567 0.0
C1176 C 1.00051 0.61321 0.58935 0.0
H1177 H 0.88765 0.55841 0.60895 0.0
H1178 H 0.92987 0.52293 0.59439 0.0
C1179 C 0.0238 0.67612 0.59119 0.0
C1180 C 0.49671 0.40019 0.59302 0.0
C1181 C 0.4528 0.39933 0.58581 0.0
H1182 H 0.51389 0.3634 0.60777 0.0
C1183 C 0.39106 0.3545 0.58756 0.0
H1184 H 0.54455 0.43317 0.59185 0.0
C1185 C 0.37359 0.31306 0.5965 0.0
C1186 C 0.4174 0.31587 0.60395 0.0
H1187 H 0.35591 0.3516 0.58205 0.0
H1188 H 0.32567 0.28127 0.59794 0.0
C1189 C 0.47915 0.35944 0.60203 0.0
C1190 C 0.71002 0.14222 0.60223 0.0
C1191 C 0.75117 0.12153 0.60434 0.0
H1192 H 0.6363 0.13442 0.59229 0.0
C1193 C 0.74903 0.07564 0.59745 0.0
H1194 H 0.70956 0.17653 0.60758 0.0
C1195 C 0.70549 0.05 0.58884 0.0
C1196 C 0.66324 0.06979 0.58693 0.0
H1197 H 0.77866 0.05734 0.5991 0.0
H1198 H 0.70486 0.01449 0.58371 0.0
C1199 C 0.66708 0.11716 0.59361 0.0
C1200 C 0.80205 0.79895 0.75816 0.0
C1201 C 0.78431 0.73774 0.75595 0.0
H1202 H 0.79157 0.86232 0.76841 0.0
C1203 C 0.74062 0.69235 0.76295 0.0
H1204 H 0.83476 0.83492 0.75277 0.0
C1205 C 0.71438 0.70806 0.77182 0.0
C1206 C 0.73148 0.76947 0.77387 0.0
H1207 H 0.72471 0.64475 0.76126 0.0
H1208 H 0.68088 0.6721 0.7771 0.0
C1209 C 0.7764 0.81463 0.76701 0.0
C1210 C 0.24693 0.99757 0.76581 0.0
C1211 C 0.29063 0.99328 0.77231 0.0
H1212 H 0.22967 0.04045 0.75205 0.0
C1213 C 0.35285 0.03474 0.77017 0.0
H1214 H 0.19872 0.96738 0.7673 0.0
C1215 C 0.37067 0.0781 0.76152 0.0
C1216 C 0.32658 0.08082 0.75488 0.0
H1217 H 0.3878 0.03368 0.77517 0.0
H1218 H 0.41865 0.10718 0.75967 0.0
C1219 C 0.26467 0.04044 0.75722 0.0
C1220 C 0.98139 0.32171 0.7623 0.0
C1221 C 0.98226 0.27789 0.75525 0.0
H1222 H 0.02072 0.37977 0.77664 0.0
C1223 C 0.02389 0.25809 0.75752 0.0
H1224 H 0.95116 0.33918 0.76055 0.0
C1225 C 0.06437 0.28194 0.76649 0.0
C1226 C 0.06502 0.32698 0.77343 0.0
H1227 H 0.02651 0.22527 0.75207 0.0
H1228 H 0.09555 0.26527 0.76794 0.0
C1229 C 0.02246 0.34609 0.77131 0.0
C1230 C 0.25418 0.25926 0.27112 0.0
C1231 C 0.27641 0.32165 0.27312 0.0
H1232 H 0.26073 0.19158 0.26145 0.0
C1233 C 0.32346 0.36454 0.2663 0.0
H1234 H 0.21888 0.22514 0.27644 0.0
C1235 C 0.34885 0.34525 0.25788 0.0
C1236 C 0.32765 0.28265 0.2561 0.0
H1237 H 0.34289 0.41282 0.26789 0.0
H1238 H 0.38535 0.37952 0.25279 0.0
C1239 C 0.27911 0.23999 0.2627 0.0
C1240 C 0.81203 0.02834 0.26933 0.0
C1241 C 0.75011 0.98569 0.27136 0.0
H1242 H 0.87783 0.1021 0.2592 0.0
C1243 C 0.70632 0.98484 0.26414 0.0
H1244 H 0.84679 0.03093 0.27492 0.0
C1245 C 0.72405 0.02714 0.25533 0.0
C1246 C 0.78603 0.071 0.25348 0.0
H1247 H 0.6583 0.95393 0.26567 0.0
H1248 H 0.68889 0.02566 0.25001 0.0
C1249 C 0.82984 0.06995 0.26045 0.0
C1250 C 0.03899 0.71867 0.256 0.0
C1251 C 0.99741 0.73932 0.25412 0.0
H1252 H 0.11146 0.7246 0.26629 0.0
C1253 C 1.00168 0.78667 0.26086 0.0
H1254 H 0.03794 0.6831 0.25082 0.0
C1255 C 0.04447 0.81101 0.26948 0.0
C1256 C 0.08487 0.7894 0.27158 0.0
H1257 H 0.9714 0.80457 0.25956 0.0
H1258 H 0.04446 0.84547 0.27486 0.0
C1259 C 0.08233 0.7435 0.26465 0.0
C1260 C 0.49 0.04811 0.01789 0.0
C1261 C 0.51685 0.02722 0.02576 0.0
H1262 H 0.48538 0.07128 1.00078 0.0
C1263 C 0.56144 0.01422 0.0221 0.0
H1264 H 0.45546 0.05882 0.02043 0.0
C1265 C 0.57907 0.02232 1.01085 0.0
C1266 C 0.55227 0.0433 1.00297 0.0
H1267 H 0.58356 0.99903 0.02795 0.0
H1268 H 0.61361 0.01159 1.00832 0.0
C1269 C 0.50752 0.05608 1.00663 0.0
C1270 C 0.01677 0.48674 1.00596 0.0
C1271 C 0.02781 0.54325 1.00204 0.0
H1272 H 0.01473 0.4344 0.02007 0.0
C1273 C 0.04602 0.59167 1.00975 0.0
H1274 H 1.00365 0.44898 1.00025 0.0
C1275 C 0.05321 0.58383 0.02112 0.0
C1276 C 0.04217 0.52733 0.02504 0.0
H1277 H 0.05521 0.63615 1.00701 0.0
H1278 H 0.06634 0.6216 0.02683 0.0
C1279 C 0.02395 0.4789 0.01732 0.0
C1280 C 0.48831 0.50346 0.02125 0.0
C1281 C 0.54469 0.55037 0.02497 0.0
H1282 H 0.43604 0.44961 1.00741 0.0
C1283 C 0.59324 0.57878 0.01721 0.0
H1284 H 0.45051 0.47999 0.02702 0.0
C1285 C 0.58543 0.561 1.00597 0.0
C1286 C 0.52885 0.51454 1.00224 0.0
H1287 H 0.63768 0.61496 0.01981 0.0
H1288 H 0.62309 0.58467 1.00017 0.0
C1289 C 0.48052 0.48568 1.01003 0.0
C1290 C 0.99532 0.46661 0.52298 0.0
C1291 C 0.02958 0.52632 0.52715 0.0
H1292 H 0.96094 0.40951 0.50847 0.0
C1293 C 0.0538 0.5752 0.51954 0.0
H1294 H 0.97538 0.428 0.52863 0.0
C1295 C 0.04466 0.56473 0.50805 0.0
C1296 C 0.01134 0.50507 0.50384 0.0
H1297 H 0.0798 0.62186 0.52245 0.0
H1298 H 0.06497 0.60354 0.50244 0.0
C1299 C 0.98643 0.45608 0.51144 0.0
C1300 C 0.5863 0.55527 0.50833 0.0
C1301 C 0.53812 0.53345 0.50063 0.0
H1302 H 0.61317 0.56969 0.52552 0.0
C1303 C 0.47836 0.5099 0.50467 0.0
H1304 H 0.63296 0.57446 0.5055 0.0
C1305 C 0.46702 0.50762 0.51618 0.0
C1306 C 0.51522 0.52913 0.52388 0.0
H1307 H 0.44026 0.4934 0.49896 0.0
H1308 H 0.42037 0.4882 0.51903 0.0
C1309 C 0.57502 0.55332 0.51982 0.0
C1310 C 0.51982 0.05956 0.52013 0.0
C1311 C 0.53917 0.0209 0.52457 0.0
H1312 H 0.50171 0.09582 0.50546 0.0
C1313 C 0.5559 0.98869 0.51713 0.0
H1314 H 0.50717 0.08553 0.52559 0.0
C1315 C 0.55337 0.99508 0.50552 0.0
C1316 C 0.534 0.03379 0.5011 0.0
H1317 H 0.57157 0.95893 0.52026 0.0
H1318 H 0.56597 0.96919 0.50003 0.0
C1319 C 0.51725 0.06589 0.50855 0.0
C1320 C 0.17463 0.38521 0.34073 0.0
C1321 C 0.22116 0.37545 0.33692 0.0
H1322 H 0.1218 0.38475 0.35471 0.0
C1323 C 0.25013 0.35626 0.34467 0.0
H1324 H 0.15075 0.39885 0.33499 0.0
C1325 C 0.23307 0.34717 0.35596 0.0
C1326 C 0.18681 0.35729 0.35978 0.0
H1327 H 0.28607 0.34783 0.34202 0.0
H1328 H 0.25706 0.33368 0.36171 0.0
C1329 C 0.15763 0.37619 0.35203 0.0
C1330 C 0.72212 0.91716 0.35442 0.0
C1331 C 0.7151 0.86187 0.35818 0.0
H1332 H 0.71913 0.9681 0.3405 0.0
C1333 C 0.69896 0.81423 0.35036 0.0
H1334 H 0.73339 0.95419 0.36022 0.0
C1335 C 0.6898 0.82159 0.33908 0.0
C1336 C 0.69681 0.87687 0.33533 0.0
H1337 H 0.69282 0.77065 0.35298 0.0
H1338 H 0.67848 0.78454 0.33328 0.0
C1339 C 0.71301 0.92455 0.34313 0.0
C1340 C 0.14877 0.82456 0.34303 0.0
C1341 C 0.19713 0.8517 0.33521 0.0
H1342 H 0.11965 0.82029 0.36006 0.0
C1343 C 0.25435 0.8973 0.33886 0.0
H1344 H 0.10376 0.78928 0.34049 0.0
C1345 C 0.26294 0.91548 0.35007 0.0
C1346 C 0.21457 0.88834 0.35789 0.0
H1347 H 0.29204 0.91973 0.33303 0.0
H1348 H 0.30795 0.95071 0.35262 0.0
C1349 C 0.15735 0.84276 0.35424 0.0
C1350 C 0.66187 0.79627 0.84443 0.0
C1351 C 0.69478 0.8454 0.83705 0.0
H1352 H 0.6399 0.76678 0.86148 0.0
C1353 C 0.73239 0.90376 0.84155 0.0
H1354 H 0.63281 0.7506 0.84125 0.0
C1355 C 0.73677 0.91289 0.85312 0.0
C1356 C 0.70374 0.86388 0.86051 0.0
H1357 H 0.75872 0.94253 0.83612 0.0
H1358 H 0.76583 0.95863 0.85627 0.0
C1359 C 0.66634 0.8054 0.85603 0.0
C1360 C 0.13137 0.84645 0.85027 0.0
C1361 C 0.17956 0.86762 0.85797 0.0
H1362 H 0.10472 0.83371 0.83304 0.0
C1363 C 0.23949 0.89342 0.85389 0.0
H1364 H 0.08463 0.82591 0.85313 0.0
C1365 C 0.25092 0.897 0.84239 0.0
C1366 C 0.20273 0.8752 0.83468 0.0
H1367 H 0.27768 0.90971 0.85958 0.0
H1368 H 0.29766 0.91713 0.83954 0.0
C1369 C 0.14284 0.85034 0.83875 0.0
C1370 C 0.19316 0.31668 0.84099 0.0
C1371 C 0.17456 0.35614 0.83664 0.0
H1372 H 0.21557 0.28327 0.85559 0.0
C1373 C 0.16258 0.39182 0.84409 0.0
H1374 H 0.20236 0.28824 0.83549 0.0
C1375 C 0.16969 0.38861 0.85562 0.0
C1376 C 0.18901 0.34969 0.85997 0.0
H1377 H 0.14774 0.42236 0.84102 0.0
H1378 H 0.16094 0.41739 0.86111 0.0
C1379 C 0.20033 0.31352 0.85253 0.0
C1380 C 0.82559 0.71422 0.68427 0.0
C1381 C 0.85285 0.69393 0.69217 0.0
H1382 H 0.82011 0.73601 0.66711 0.0
C1383 C 0.89756 0.68106 0.68854 0.0
H1384 H 0.79101 0.7249 0.68679 0.0
C1385 C 0.91461 0.68828 0.67727 0.0
C1386 C 0.88716 0.7083 0.66935 0.0
H1387 H 0.91997 0.6663 0.69441 0.0
H1388 H 0.94918 0.67757 0.67475 0.0
C1389 C 0.8426 0.72138 0.67299 0.0
C1390 C 0.38058 0.2563 0.67579 0.0
C1391 C 0.36015 0.2079 0.66801 0.0
H1392 H 0.40187 0.28515 0.6929 0.0
C1393 C 0.34564 0.15017 0.67185 0.0
H1394 H 0.39245 0.30169 0.67311 0.0
C1395 C 0.35175 0.14114 0.6832 0.0
C1396 C 0.37238 0.18957 0.69098 0.0
H1397 H 0.33062 0.11231 0.66609 0.0
H1398 H 0.34 0.09577 0.68587 0.0
C1399 C 0.38671 0.24727 0.68714 0.0
C1400 C 0.91866 0.22814 0.672 0.0
C1401 C 0.86168 0.18272 0.66819 0.0
H1402 H 0.97169 0.27991 0.68597 0.0
C1403 C 0.81326 0.15408 0.67598 0.0
H1404 H 0.95647 0.25159 0.66623 0.0
C1405 C 0.82147 0.17072 0.68727 0.0
C1406 C 0.87838 0.2162 0.69108 0.0
H1407 H 0.76844 0.11885 0.67334 0.0
H1408 H 0.78359 0.14732 0.69303 0.0
C1409 C 0.9269 0.24471 0.68331 0.0
C1410 C 0.33614 0.14658 0.18936 0.0
C1411 C 0.37378 0.20494 0.19385 0.0
H1412 H 0.3007 0.09225 0.17458 0.0
C1413 C 0.4051 0.25437 0.18646 0.0
H1414 H 0.3109 0.10762 0.1948 0.0
C1415 C 0.39878 0.24572 0.17487 0.0
C1416 C 0.36098 0.18742 0.17037 0.0
H1417 H 0.4342 0.30007 0.18962 0.0
H1418 H 0.42395 0.28473 0.16944 0.0
C1419 C 0.32982 0.13792 0.17775 0.0
C1420 C 0.80891 0.17908 0.17224 0.0
C1421 C 0.86877 0.20371 0.16817 0.0
H1422 H 0.7509 0.15628 0.18663 0.0
C1423 C 0.91702 0.22611 0.17587 0.0
H1424 H 0.77076 0.1621 0.16652 0.0
C1425 C 0.90576 0.22381 0.18736 0.0
C1426 C 0.84591 0.19869 0.19144 0.0
H1427 H 0.96376 0.24609 0.17304 0.0
H1428 H 0.94404 0.24078 0.19304 0.0
C1429 C 0.79758 0.17644 0.18375 0.0
C1430 C 0.846 0.73904 0.17641 0.0
C1431 C 0.86123 0.70631 0.16883 0.0
H1432 H 0.83833 0.75901 0.19356 0.0
C1433 C 0.88045 0.6671 0.17306 0.0
H1434 H 0.83053 0.76925 0.17345 0.0
C1435 C 0.88427 0.66072 0.1846 0.0
C1436 C 0.869 0.69341 0.19219 0.0
H1437 H 0.89196 0.64075 0.16746 0.0
H1438 H 0.89972 0.63048 0.18757 0.0
C1439 C 0.84984 0.73266 0.18796 0.0
C1440 C 0.63113 0.84638 0.06514 0.0
C1441 C 0.57784 0.84575 0.0616 0.0
H1442 H 0.67974 0.7973 0.06612 0.0
C1443 C 0.53554 0.79659 0.05511 0.0
H1444 H 0.6651 0.88414 0.07001 0.0
C1445 C 0.544 0.74727 0.05291 0.0
C1446 C 0.59544 0.74626 0.05698 0.0
H1447 H 0.49411 0.79455 0.05228 0.0
H1448 H 0.5087 0.70841 0.04843 0.0
C1449 C 0.64007 0.79719 0.06279 0.0
C1450 C 0.26347 0.78479 0.05376 0.0
C1451 C 0.21578 0.77782 0.06073 0.0
H1452 H 0.35163 0.84592 0.04702 0.0
C1453 C 0.21729 0.83067 0.0649 0.0
H1454 H 0.26404 0.74543 0.05042 0.0
C1455 C 0.26757 0.88877 0.06283 0.0
C1456 C 0.31721 0.89477 0.05662 0.0
H1457 H 0.18068 0.82702 0.07011 0.0
H1458 H 0.26953 0.92823 0.06675 0.0
C1459 C 0.31367 0.84249 0.0518 0.0
C1460 C 0.18225 0.42457 0.06249 0.0
C1461 C 0.1777 0.47195 0.05743 0.0
H1462 H 0.24208 0.39438 0.06861 0.0
C1463 C 0.23141 0.52369 0.05366 0.0
H1464 H 0.14183 0.38443 0.06555 0.0
C1465 C 0.28853 0.52952 0.05539 0.0
C1466 C 0.29376 0.48409 0.06108 0.0
H1467 H 0.22943 0.56105 0.04971 0.0
H1468 H 0.32877 0.57112 0.05278 0.0
C1469 C 0.23979 0.43076 0.06436 0.0
C1470 C 0.8403 0.48222 0.47168 0.0
C1471 C 0.89129 0.50967 0.46455 0.0
H1472 H 0.76747 0.4891 0.47936 0.0
C1473 C 0.90364 0.5627 0.4587 0.0
H1474 H 0.8302 0.4419 0.47643 0.0
C1475 C 0.8686 0.59013 0.4605 0.0
C1476 C 0.82001 0.56516 0.46817 0.0
H1477 H 0.94261 0.58496 0.45314 0.0
H1478 H 0.8803 0.63152 0.45599 0.0
C1479 C 0.80493 0.50974 0.47346 0.0
C1480 C 0.44591 0.29338 0.46289 0.0
C1481 C 0.48269 0.27356 0.468 0.0
H1482 H 0.43861 0.36898 0.45699 0.0
C1483 C 0.54377 0.31705 0.47039 0.0
H1484 H 0.39918 0.26124 0.4607 0.0
C1485 C 0.56684 0.37884 0.46805 0.0
C1486 C 0.52933 0.39885 0.46334 0.0
H1487 H 0.57345 0.30375 0.47439 0.0
H1488 H 0.61326 0.41114 0.47043 0.0
C1489 C 0.46891 0.35519 0.46059 0.0
C1490 C 0.77232 0.1837 0.46049 0.0
C1491 C 0.79458 0.22872 0.46887 0.0
H1492 H 0.69411 0.1139 0.45203 0.0
C1493 C 0.75298 0.24075 0.47456 0.0
H1494 H 0.80268 0.174 0.45571 0.0
C1495 C 0.69077 0.20762 0.47214 0.0
C1496 C 0.66865 0.16098 0.46412 0.0
H1497 H 0.76804 0.27463 0.48112 0.0
H1498 H 0.65969 0.21597 0.47704 0.0
C1499 C 0.71011 0.15007 0.45819 0.0
C1500 C 0.42173 0.26897 0.96444 0.0
C1501 C 0.46523 0.31894 0.9706 0.0
H1502 H 0.39682 0.18199 0.95726 0.0
C1503 C 0.51436 0.316 0.97535 0.0
H1504 H 0.38394 0.27038 0.96057 0.0
C1505 C 0.5221 0.26599 0.97343 0.0
C1506 C 0.4813 0.21781 0.96657 0.0
H1507 H 0.54884 0.35417 0.9801 0.0
H1508 H 0.56214 0.26695 0.97676 0.0
C1509 C 0.42983 0.21891 0.9624 0.0
C1510 C 0.80138 0.28904 0.97207 0.0
C1511 C 0.8514 0.29411 0.9661 0.0
H1512 H 0.7113 0.23006 0.97825 0.0
C1513 C 0.85034 0.24001 0.96285 0.0
H1514 H 0.80028 0.32933 0.97467 0.0
C1515 C 0.79913 0.18248 0.96503 0.0
C1516 C 0.74779 0.17808 0.97037 0.0
H1517 H 0.88852 0.24214 0.95839 0.0
H1518 H 0.79838 0.14192 0.96196 0.0
C1519 C 0.75025 0.23194 0.97411 0.0
C1520 C 0.82715 0.63372 0.9623 0.0
C1521 C 0.77404 0.57984 0.96564 0.0
H1522 H 0.92508 0.68207 0.9612 0.0
C1523 C 0.78032 0.53568 0.97156 0.0
H1524 H 0.82377 0.66906 0.95788 0.0
C1525 C 0.83795 0.54316 0.97341 0.0
C1526 C 0.89084 0.5954 0.96956 0.0
H1527 H 0.74056 0.49376 0.97421 0.0
H1528 H 0.84103 0.50671 0.97749 0.0
C1529 C 0.88515 0.64165 0.96432 0.0
C1530 C 0.24521 0.5182 0.55255 0.0
C1531 C 0.23301 0.46392 0.55798 0.0
H1532 H 0.2203 0.5867 0.55043 0.0
C1533 C 0.18713 0.43963 0.56621 0.0
H1534 H 0.27978 0.53821 0.54611 0.0
C1535 C 0.15309 0.46754 0.56866 0.0
C1536 C 0.1643 0.52073 0.56301 0.0
H1537 H 0.17722 0.39898 0.5708 0.0
H1538 H 0.11658 0.44633 0.57475 0.0
C1539 C 0.21155 0.54655 0.5551 0.0
C1540 C 0.56564 0.69136 0.56895 0.0
C1541 C 0.51307 0.64975 0.56308 0.0
H1542 H 0.63437 0.78421 0.57139 0.0
C1543 C 0.48591 0.67215 0.55572 0.0
H1544 H 0.5876 0.67542 0.57469 0.0
C1545 C 0.51357 0.73485 0.55367 0.0
C1546 C 0.56874 0.77603 0.55894 0.0
H1547 H 0.44593 0.64115 0.55095 0.0
H1548 H 0.49335 0.75076 0.54756 0.0
C1549 C 0.5932 0.75368 0.56689 0.0
C1550 C 0.3606 0.92308 0.56211 0.0
C1551 C 0.40276 0.90242 0.5626 0.0
H1552 H 0.26774 0.89982 0.55963 0.0
C1553 C 0.38091 0.83956 0.56176 0.0
H1554 H 0.37565 0.9712 0.56267 0.0
C1555 C 0.31863 0.79866 0.56013 0.0
C1556 C 0.2772 0.81992 0.5591 0.0
H1557 H 0.41208 0.82217 0.56201 0.0
H1558 H 0.30318 0.75062 0.55922 0.0
C1559 C 0.29876 0.8824 0.56026 0.0
C1560 C 0.31915 0.13246 0.39685 0.0
C1561 C 0.27764 0.08485 0.38999 0.0
H1562 H 0.34123 0.21616 0.40511 0.0
C1563 C 0.22953 0.08907 0.38512 0.0
H1564 H 0.35598 0.1298 0.40085 0.0
C1565 C 0.22061 0.13781 0.38761 0.0
C1566 C 0.25918 0.1833 0.39515 0.0
H1567 H 0.19647 0.05254 0.37988 0.0
H1568 H 0.18118 0.13766 0.38416 0.0
C1569 C 0.30989 0.18123 0.39944 0.0
C1570 C 0.99036 0.17517 0.38708 0.0
C1571 C 0.99338 0.22744 0.39182 0.0
H1572 H 0.94022 0.07824 0.38536 0.0
C1573 C 0.94261 0.22126 0.39767 0.0
H1574 H 0.02899 0.1786 0.38254 0.0
C1575 C 0.89152 0.16312 0.39939 0.0
C1576 C 0.89017 0.11031 0.39521 0.0
H1577 H 0.94393 0.26062 0.4015 0.0
H1578 H 0.85386 0.1594 0.40428 0.0
C1579 C 0.93939 0.11749 0.38869 0.0
C1580 C 0.90408 0.85796 0.3863 0.0
C1581 C 0.85131 0.80657 0.39043 0.0
H1582 H 1.00138 0.90693 0.38529 0.0
C1583 C 0.85713 0.76105 0.39594 0.0
H1584 H 0.90091 0.89386 0.38201 0.0
C1585 C 0.9152 0.76902 0.39794 0.0
C1586 C 0.96827 0.82225 0.39434 0.0
H1587 H 0.81733 0.7213 0.39929 0.0
H1588 H 0.91864 0.73429 0.40257 0.0
C1589 C 0.96175 0.86551 0.38815 0.0
C1590 C 0.5569 0.95279 0.80231 0.0
C1591 C 0.494 0.91282 0.80323 0.0
H1592 H 0.64497 0.96287 0.80022 0.0
C1593 C 0.47139 0.84974 0.80216 0.0
H1594 H 0.57545 1.00151 0.80298 0.0
C1595 C 0.51132 0.82709 0.8007 0.0
C1596 C 0.57455 0.86722 0.80005 0.0
H1597 H 0.42301 0.81784 0.80289 0.0
H1598 H 0.49285 0.77827 0.80035 0.0
C1599 C 0.59658 0.9304 0.80063 0.0
C1600 C 0.12915 0.69406 0.79812 0.0
C1601 C 0.19228 0.73586 0.798 0.0
H1602 H 0.05811 0.6019 0.80086 0.0
C1603 C 0.23266 0.7139 0.79963 0.0
H1604 H 0.09655 0.7092 0.79694 0.0
C1605 C 0.21016 0.65182 0.80174 0.0
C1606 C 0.14703 0.61106 0.8025 0.0
H1607 H 0.28144 0.74487 0.79965 0.0
H1608 H 0.24202 0.63613 0.80328 0.0
C1609 C 0.10688 0.63261 0.80047 0.0
C1610 C 0.40346 0.58127 0.80228 0.0
C1611 C 0.44426 0.55937 0.80346 0.0
H1612 H 0.31039 0.5588 0.80024 0.0
C1613 C 0.42177 0.49654 0.80242 0.0
H1614 H 0.41945 0.62947 0.80309 0.0
C1615 C 0.35974 0.45626 0.8006 0.0
C1616 C 0.31826 0.47764 0.79996 0.0
H1617 H 0.45218 0.47845 0.80315 0.0
H1618 H 0.34401 0.40796 0.80015 0.0
C1619 C 0.34101 0.54079 0.80064 0.0
C1620 C 0.09657 0.55204 0.29649 0.0
C1621 C 0.14854 0.5515 0.30054 0.0
H1622 H 0.05056 0.60333 0.29457 0.0
C1623 C 0.19028 0.60065 0.3071 0.0
H1624 H 0.06286 0.51437 0.29158 0.0
C1625 C 0.18293 0.65102 0.30883 0.0
C1626 C 0.13325 0.65334 0.30418 0.0
H1627 H 0.23072 0.602 0.31032 0.0
H1628 H 0.21805 0.68985 0.31334 0.0
C1629 C 0.08885 0.60246 0.29834 0.0
C1630 C 0.41817 0.56622 0.30773 0.0
C1631 C 0.41545 0.51229 0.30396 0.0
H1632 H 0.46821 0.66363 0.30824 0.0
C1633 C 0.46642 0.51666 0.29846 0.0
H1634 H 0.37952 0.56439 0.31199 0.0
C1635 C 0.51746 0.57418 0.29619 0.0
C1636 C 0.51876 0.62834 0.29948 0.0
H1637 H 0.46546 0.47606 0.29536 0.0
H1638 H 0.55532 0.57624 0.29162 0.0
C1639 C 0.46914 0.62331 0.30559 0.0
C1640 C 0.4948 0.96753 0.29548 0.0
C1641 C 0.44167 0.91378 0.29885 0.0
H1642 H 0.59274 0.01591 0.29443 0.0
C1643 C 0.44791 0.86994 0.30489 0.0
H1644 H 0.49145 1.00263 0.29095 0.0
C1645 C 0.50554 0.87757 0.30683 0.0
C1646 C 0.55845 0.92966 0.30295 0.0
H1647 H 0.40813 0.82812 0.30757 0.0
H1648 H 0.50861 0.84132 0.311 0.0
C1649 C 0.55279 0.97563 0.29758 0.0
C1650 C 0.85062 0.77479 0.90021 0.0
C1651 C 0.89737 0.79984 0.89215 0.0
H1652 H 0.779 0.78062 0.90854 0.0
C1653 C 0.91011 0.85461 0.88684 0.0
H1654 H 0.8402 0.73371 0.9047 0.0
C1655 C 0.87617 0.88269 0.88935 0.0
C1656 C 0.82802 0.8561 0.89707 0.0
H1657 H 0.94529 0.87522 0.88052 0.0
H1658 H 0.88538 0.92323 0.88476 0.0
C1659 C 0.81624 0.80243 0.9026 0.0
C1660 C 0.17532 0.06991 0.88831 0.0
C1661 C 0.23117 0.11148 0.89332 0.0
H1662 H 0.10796 0.97601 0.88573 0.0
C1663 C 0.25742 0.08954 0.90098 0.0
H1664 H 0.15375 0.08552 0.88243 0.0
C1665 C 0.23082 0.02725 0.903 0.0
C1666 C 0.17747 0.98529 0.89736 0.0
H1667 H 0.29921 0.12038 0.90529 0.0
H1668 H 0.25405 0.01168 0.9085 0.0
C1669 C 0.14864 0.00727 0.89031 0.0
C1670 C 0.98111 0.13392 0.89525 0.0
C1671 C 0.93974 0.15514 0.89409 0.0
H1672 H 0.07434 0.15749 0.89746 0.0
C1673 C 0.96083 0.21739 0.89549 0.0
H1674 H 0.96598 0.08604 0.89416 0.0
C1675 C 0.02236 0.258 0.89764 0.0
C1676 C 0.06461 0.23747 0.89819 0.0
H1677 H 0.92976 0.23471 0.89476 0.0
H1678 H 0.03719 0.30603 0.89832 0.0
C1679 C 0.04308 0.17475 0.89717 0.0
C1680 C 0.88101 0.41346 0.7193 0.0
C1681 C 0.9324 0.41172 0.7232 0.0
H1682 H 0.83233 0.46199 0.71874 0.0
C1683 C 0.97807 0.46282 0.72882 0.0
H1684 H 0.84486 0.37458 0.71497 0.0
C1685 C 0.97038 0.5129 0.73112 0.0
C1686 C 0.91723 0.51311 0.72773 0.0
H1687 H 0.01776 0.46251 0.73203 0.0
H1688 H 1.00532 0.55079 0.73582 0.0
C1689 C 0.87373 0.4636 0.72145 0.0
C1690 C 0.55172 0.49078 0.73048 0.0
C1691 C 0.55196 0.43749 0.72714 0.0
H1692 H 0.60247 0.58868 0.73172 0.0
C1693 C 0.60273 0.44368 0.72129 0.0
H1694 H 0.51284 0.4876 0.73486 0.0
C1695 C 0.65362 0.50125 0.71952 0.0
C1696 C 0.65482 0.55425 0.7234 0.0
H1697 H 0.60461 0.40388 0.71863 0.0
H1698 H 0.69336 0.50415 0.71551 0.0
C1699 C 0.6026 0.54873 0.72856 0.0
C1700 C 0.51663 0.08744 0.72777 0.0
C1701 C 0.51167 0.13441 0.72264 0.0
H1702 H 0.57699 0.0586 0.73418 0.0
C1703 C 0.56516 0.18662 0.71896 0.0
H1704 H 0.47634 0.04703 0.73079 0.0
C1705 C 0.62252 0.19335 0.72087 0.0
C1706 C 0.62805 0.14842 0.72668 0.0
H1707 H 0.56277 0.2237 0.71498 0.0
H1708 H 0.66263 0.2353 0.71835 0.0
C1709 C 0.57435 0.09457 0.72984 0.0
C1710 C 0.1797 0.16732 0.13886 0.0
C1711 C 0.23555 0.20079 0.13321 0.0
H1712 H 0.10075 0.16643 0.14543 0.0
C1713 C 0.25207 0.25894 0.12908 0.0
H1714 H 0.16603 0.12275 0.14228 0.0
C1715 C 0.21491 0.28408 0.1309 0.0
C1716 C 0.16015 0.25185 0.13694 0.0
H1717 H 0.29483 0.286 0.12468 0.0
H1718 H 0.2294 0.32894 0.12758 0.0
C1719 C 0.14248 0.19265 0.14073 0.0
C1720 C 0.80769 0.03079 0.12682 0.0
C1721 C 0.86632 0.07397 0.13055 0.0
H1722 H 0.73768 0.93725 0.12623 0.0
C1723 C 0.90108 0.05339 0.13619 0.0
H1724 H 0.77963 0.04505 0.12245 0.0
C1725 C 0.87642 0.99133 0.13855 0.0
C1726 C 0.81655 0.94849 0.13529 0.0
H1727 H 0.94604 0.08545 0.13932 0.0
H1728 H 0.90352 0.97729 0.14329 0.0
C1729 C 0.78314 0.96893 0.12916 0.0
C1730 C 0.07741 0.92659 0.1351 0.0
C1731 C 0.11734 0.90341 0.13588 0.0
H1732 H 0.98502 0.90608 0.13294 0.0
C1733 C 0.095 0.84151 0.13382 0.0
H1734 H 0.09379 0.97438 0.13667 0.0
C1735 C 0.03353 0.80294 0.13137 0.0
C1736 C 0.99249 0.8251 0.13122 0.0
H1737 H 0.1251 0.82291 0.13424 0.0
H1738 H 0.01773 0.75498 0.13015 0.0
C1739 C 0.01533 0.88765 0.13291 0.0
C1740 C 0.76699 0.88501 0.62931 0.0
C1741 C 0.82082 0.88587 0.6326 0.0
H1742 H 0.71909 0.93481 0.62811 0.0
C1743 C 0.86545 0.93717 0.63833 0.0
H1744 H 0.73125 0.84576 0.62502 0.0
C1745 C 0.85841 0.98779 0.64006 0.0
C1746 C 0.80616 0.98825 0.63628 0.0
H1747 H 0.90737 0.93958 0.64095 0.0
H1748 H 0.89524 0.02781 0.644 0.0
C1749 C 0.75953 0.93559 0.6312 0.0
C1750 C 0.13574 0.95497 0.63864 0.0
C1751 C 0.18548 0.96014 0.63255 0.0
H1752 H 0.04623 0.89564 0.64504 0.0
C1753 C 0.18501 0.90622 0.62942 0.0
H1754 H 0.13429 0.9952 0.64115 0.0
C1755 C 0.13446 0.84863 0.63178 0.0
C1756 C 0.08325 0.84404 0.63721 0.0
H1757 H 0.22306 0.90853 0.62487 0.0
H1758 H 0.13395 0.80811 0.62877 0.0
C1759 C 0.08521 0.89776 0.64086 0.0
C1760 C 0.22051 0.31055 0.63044 0.0
C1761 C 0.22542 0.26317 0.63541 0.0
H1762 H 0.16022 0.34016 0.6243 0.0
C1763 C 0.17183 0.21073 0.639 0.0
H1764 H 0.26085 0.35121 0.62751 0.0
C1765 C 0.11452 0.20435 0.63721 0.0
C1766 C 0.10901 0.24986 0.63161 0.0
H1767 H 0.17411 0.17334 0.64286 0.0
H1768 H 0.07437 0.16233 0.63969 0.0
C1769 C 0.16279 0.30376 0.62849 0.0
C1770 C 0.48682 0.14356 0.23673 0.0
C1771 C 0.49854 0.19676 0.23103 0.0
H1772 H 0.51027 0.07461 0.23904 0.0
C1773 C 0.54646 0.22251 0.22325 0.0
H1774 H 0.44972 0.12237 0.24271 0.0
C1775 C 0.58007 0.19391 0.22084 0.0
C1776 C 0.56714 0.13939 0.22628 0.0
H1777 H 0.55556 0.26261 0.21852 0.0
H1778 H 0.61498 0.21378 0.21446 0.0
C1779 C 0.52081 0.1154 0.23444 0.0
C1780 C 0.92961 0.42688 0.23354 0.0
C1781 C 0.90425 0.44878 0.22568 0.0
H1782 H 0.92451 0.34916 0.24148 0.0
C1783 C 0.84834 0.40725 0.22067 0.0
H1784 H 0.97142 0.45765 0.23785 0.0
C1785 C 0.82062 0.34472 0.22292 0.0
C1786 C 0.84841 0.32271 0.23022 0.0
H1787 H 0.82739 0.42275 0.21464 0.0
H1788 H 0.77985 0.31345 0.21837 0.0
C1789 C 0.90198 0.36471 0.2358 0.0
C1790 C 0.65358 0.47709 0.22282 0.0
C1791 C 0.61109 0.49393 0.22638 0.0
H1792 H 0.74744 0.50206 0.22144 0.0
C1793 C 0.63273 0.54933 0.23216 0.0
H1794 H 0.63903 0.43513 0.21828 0.0
C1795 C 0.6951 0.58777 0.23396 0.0
C1796 C 0.73755 0.57176 0.23008 0.0
H1797 H 0.60167 0.5634 0.23528 0.0
H1798 H 0.7102 0.63101 0.23811 0.0
C1799 C 0.71599 0.51538 0.2247 0.0
C1800 C 0.51882 0.3696 0.06478 0.0
C1801 C 0.55067 0.41215 0.0563 0.0
H1802 H 0.46642 0.27516 0.0692 0.0
C1803 C 0.55505 0.39168 0.0456 0.0
H1804 H 0.51399 0.38455 0.07303 0.0
C1805 C 0.52575 0.3292 0.0433 0.0
C1806 C 0.49299 0.28673 0.05176 0.0
H1807 H 0.57814 0.42386 0.03887 0.0
H1808 H 0.52864 0.31395 0.03497 0.0
C1809 C 0.49104 0.30738 0.06256 0.0
C1810 C 0.74775 0.26524 0.05203 0.0
C1811 C 0.78664 0.2406 0.05178 0.0
H1812 H 0.65633 0.24789 0.05435 0.0
C1813 C 0.76251 0.17856 0.05389 0.0
H1814 H 0.76558 0.31318 0.05037 0.0
C1815 C 0.70087 0.14188 0.05644 0.0
C1816 C 0.66165 0.16619 0.0567 0.0
H1817 H 0.79168 0.15883 0.05384 0.0
H1818 H 0.68381 0.09398 0.05805 0.0
C1819 C 0.68551 0.22815 0.05434 0.0
C1820 C 0.8863 0.5626 0.06439 0.0
C1821 C 0.89548 0.52939 0.05596 0.0
H1822 H 0.84572 0.6162 0.06886 0.0
C1823 C 0.86988 0.52465 0.04534 0.0
H1824 H 0.9064 0.56761 0.07259 0.0
C1825 C 0.83729 0.5545 0.0431 0.0
C1826 C 0.82879 0.58827 0.05152 0.0
H1827 H 0.87753 0.50038 0.03864 0.0
H1828 H 0.81836 0.55096 0.03483 0.0
C1829 C 0.85242 0.59092 0.06223 0.0
C1830 C 0.23741 0.43412 0.46921 0.0
C1831 C 0.29148 0.48832 0.47174 0.0
H1832 H 0.14004 0.38681 0.46941 0.0
C1833 C 0.28881 0.53289 0.47826 0.0
H1834 H 0.23864 0.39868 0.46436 0.0
C1835 C 0.23249 0.52628 0.48114 0.0
C1836 C 0.17825 0.47455 0.47767 0.0
H1837 H 0.32999 0.57491 0.48033 0.0
H1838 H 0.23141 0.5636 0.48534 0.0
C1839 C 0.18111 0.42699 0.47224 0.0
C1840 C 0.65086 0.78685 0.46923 0.0
C1841 C 0.60473 0.73821 0.47527 0.0
H1842 H 0.67935 0.87312 0.46151 0.0
C1843 C 0.55754 0.7443 0.48008 0.0
H1844 H 0.68735 0.78281 0.46537 0.0
C1845 C 0.55273 0.79552 0.47784 0.0
C1846 C 0.59468 0.84093 0.47064 0.0
H1847 H 0.52139 0.70704 0.48476 0.0
H1848 H 0.51318 0.79678 0.48089 0.0
C1849 C 0.64566 0.83789 0.46688 0.0
C1850 C 0.28184 0.88427 0.47026 0.0
C1851 C 0.33438 0.88544 0.47411 0.0
H1852 H 0.1886 0.82872 0.46557 0.0
C1853 C 0.33175 0.83047 0.47703 0.0
H1854 H 0.28307 0.92584 0.46773 0.0
C1855 C 0.27811 0.77498 0.47571 0.0
C1856 C 0.22603 0.77344 0.47148 0.0
H1857 H 0.37188 0.83021 0.48002 0.0
H1858 H 0.27741 0.73342 0.47801 0.0
C1859 C 0.22812 0.82863 0.46891 0.0
C1860 C 0.49694 0.68577 0.97433 0.0
C1861 C 0.53559 0.66247 0.97211 0.0
H1862 H 0.49115 0.76531 0.97821 0.0
C1863 C 0.5992 0.70205 0.97264 0.0
H1864 H 0.44793 0.6563 0.9741 0.0
C1865 C 0.6237 0.76352 0.97525 0.0
C1866 C 0.58531 0.78721 0.97717 0.0
H1867 H 0.63043 0.68541 0.97116 0.0
H1868 H 0.67269 0.79295 0.97547 0.0
C1869 C 0.52168 0.74789 0.97669 0.0
C1870 C 0.30272 0.85346 0.96561 0.0
C1871 C 0.28056 0.82998 0.9763 0.0
H1872 H 0.38129 0.90727 0.95541 0.0
C1873 C 0.32185 0.83882 0.9849 0.0
H1874 H 0.27143 0.84638 0.95886 0.0
C1875 C 0.38465 0.87157 0.98282 0.0
C1876 C 0.40666 0.89684 0.9722 0.0
H1877 H 0.30543 0.8199 0.99314 0.0
H1878 H 0.41591 0.87951 0.98963 0.0
C1879 C 0.36523 0.8874 0.96361 0.0
C1880 C 0.19091 0.51841 0.96297 0.0
C1881 C 0.17942 0.54993 0.97139 0.0
H1882 H 0.2331 0.46619 0.95868 0.0
C1883 C 0.20298 0.55367 0.98217 0.0
H1884 H 0.17213 0.51402 0.95465 0.0
C1885 C 0.23576 0.52423 0.98457 0.0
C1886 C 0.24633 0.49191 0.97615 0.0
H1887 H 0.19325 0.57647 0.98886 0.0
H1888 H 0.25299 0.52677 0.99295 0.0
C1889 C 0.22488 0.49046 0.96529 0.0
C1890 C 0.83366 0.63217 0.56001 0.0
C1891 C 0.77834 0.57931 0.55727 0.0
H1892 H 0.93068 0.67384 0.5614 0.0
C1893 C 0.77955 0.52845 0.55305 0.0
H1894 H 0.83405 0.672 0.56336 0.0
C1895 C 0.83475 0.52979 0.55187 0.0
C1896 C 0.88982 0.58198 0.5549 0.0
H1897 H 0.73796 0.48774 0.55062 0.0
H1898 H 0.83417 0.48923 0.54884 0.0
C1899 C 0.88904 0.6336 0.55879 0.0
C1900 C 0.54032 0.27862 0.54755 0.0
C1901 C 0.4943 0.22889 0.5534 0.0
H1902 H 0.57251 0.36933 0.54166 0.0
C1903 C 0.43932 0.22731 0.55578 0.0
H1904 H 0.58297 0.28057 0.54563 0.0
C1905 C 0.43274 0.2774 0.55336 0.0
C1906 C 0.48162 0.33008 0.54871 0.0
H1907 H 0.40292 0.18877 0.56014 0.0
H1908 H 0.39179 0.27692 0.5561 0.0
C1909 C 0.53423 0.3292 0.54529 0.0
C1910 C 0.80359 0.2735 0.54913 0.0
C1911 C 0.84511 0.27607 0.55714 0.0
H1912 H 0.71904 0.21722 0.5408 0.0
C1913 C 0.83995 0.22139 0.56104 0.0
H1914 H 0.80642 0.3147 0.54593 0.0
C1915 C 0.79022 0.16534 0.55795 0.0
C1916 C 0.74497 0.16362 0.55101 0.0
H1917 H 0.87228 0.22207 0.56701 0.0
H1918 H 0.78398 0.12422 0.56192 0.0
C1919 C 0.75374 0.21766 0.54612 0.0
C1920 C 0.2239 0.6564 0.38492 0.0
C1921 C 0.16033 0.61697 0.38436 0.0
H1922 H 0.29728 0.74854 0.38714 0.0
C1923 C 0.12169 0.64086 0.3856 0.0
H1924 H 0.25459 0.63877 0.3839 0.0
C1925 C 0.14581 0.70272 0.38767 0.0
C1926 C 0.2093 0.74238 0.38835 0.0
H1927 H 0.07272 0.61135 0.38528 0.0
H1928 H 0.11439 0.71953 0.38867 0.0
C1929 C 0.24832 0.71893 0.38677 0.0
C1930 C 0.4383 0.51063 0.38615 0.0
C1931 C 0.46206 0.57254 0.38396 0.0
H1932 H 0.36009 0.42627 0.39066 0.0
C1933 C 0.42303 0.59701 0.38427 0.0
H1934 H 0.46763 0.49108 0.38606 0.0
C1935 C 0.36113 0.56002 0.3868 0.0
C1936 C 0.33779 0.49836 0.38935 0.0
H1937 H 0.44063 0.64486 0.38254 0.0
H1938 H 0.33189 0.5797 0.38693 0.0
C1939 C 0.37695 0.47402 0.38893 0.0
C1940 C 0.5095 0.88354 0.37562 0.0
C1941 C 0.4994 0.91629 0.38401 0.0
H1942 H 0.55156 0.83091 0.37134 0.0
C1943 C 0.52189 0.91876 0.39482 0.0
H1944 H 0.49145 0.88022 0.36729 0.0
C1945 C 0.55622 0.89115 0.39712 0.0
C1946 C 0.56701 0.85896 0.38873 0.0
H1947 H 0.51393 0.94332 0.40142 0.0
H1948 H 0.57544 0.89597 0.4054 0.0
C1949 C 0.54258 0.85441 0.378 0.0
C1950 C 0.89878 0.75691 0.79843 0.0
C1951 C 0.95019 0.80443 0.80378 0.0
H1952 H 0.8019 0.71208 0.79626 0.0
C1953 C 0.94133 0.83385 0.81293 0.0
H1954 H 0.90413 0.73227 0.79153 0.0
C1955 C 0.88278 0.82146 0.81574 0.0
C1956 C 0.83217 0.7791 0.80951 0.0
H1957 H 0.9798 0.87036 0.81726 0.0
H1958 H 0.8777 0.84946 0.82202 0.0
C1959 C 0.84007 0.7442 0.8013 0.0
C1960 C 0.24139 0.09231 0.8157 0.0
C1961 C 0.27319 0.07925 0.80755 0.0
H1962 H 0.198 0.14395 0.8197 0.0
C1963 C 0.29565 0.11623 0.79801 0.0
H1964 H 0.2224 0.06321 0.82297 0.0
C1965 C 0.27997 0.1608 0.796 0.0
C1966 C 0.24318 0.16984 0.80364 0.0
H1967 H 0.31875 0.10574 0.79149 0.0
H1968 H 0.29196 0.18455 0.78805 0.0
C1969 C 0.22719 0.13808 0.81382 0.0
C1970 C 0.95117 0.18166 0.81696 0.0
C1971 C 0.9674 0.22652 0.80869 0.0
H1972 H 0.89772 0.08644 0.82088 0.0
C1973 C 0.93317 0.21205 0.79882 0.0
H1974 H 0.97816 0.19165 0.82451 0.0
C1975 C 0.88876 0.15171 0.79662 0.0
C1976 C 0.87714 0.10567 0.80438 0.0
H1977 H 0.94611 0.24556 0.79221 0.0
H1978 H 0.86751 0.13997 0.78845 0.0
C1979 C 0.90558 0.12156 0.81487 0.0
C1980 C 0.26724 0.03627 0.30518 0.0
C1981 C 0.20357 0.99667 0.30486 0.0
H1982 H 0.34101 0.12706 0.30801 0.0
C1983 C 0.16516 0.0199 0.30737 0.0
H1984 H 0.29833 0.01971 0.30347 0.0
C1985 C 0.19014 0.08189 0.30987 0.0
C1986 C 0.2538 0.12117 0.31018 0.0
H1987 H 0.11614 0.99043 0.30731 0.0
H1988 H 0.15977 0.09923 0.31163 0.0
C1989 C 0.292 0.09762 0.30793 0.0
C1990 C 0.05231 0.20494 0.31662 0.0
C1991 C 0.07467 0.23006 0.306 0.0
H1992 H 0.97274 0.1534 0.32686 0.0
C1993 C 0.03353 0.22038 0.29735 0.0
H1994 H 0.08335 0.21308 0.32347 0.0
C1995 C 0.97097 0.18645 0.29927 0.0
C1996 C 0.94843 0.16316 0.30996 0.0
H1997 H 0.04988 0.24017 0.28914 0.0
H1998 H 0.93993 0.1793 0.29247 0.0
C1999 C 0.98943 0.17216 0.31862 0.0
C2000 C 0.90347 0.85825 0.31771 0.0
C2001 C 0.91412 0.82617 0.30926 0.0
H2002 H 0.86079 0.9102 0.32208 0.0
C2003 C 0.89259 0.82485 0.29841 0.0
H2004 H 0.92075 0.86067 0.32609 0.0
C2005 C 0.85847 0.8527 0.29613 0.0
C2006 C 0.84691 0.88397 0.3046 0.0
H2007 H 0.90086 0.80075 0.29177 0.0
H2008 H 0.83964 0.84843 0.28783 0.0
C2009 C 0.87055 0.88759 0.31536 0.0
C2010 C 0.44373 0.86372 0.88604 0.0
C2011 C 0.44285 0.91432 0.89051 0.0
H2012 H 0.49801 0.82455 0.88149 0.0
C2013 C 0.49841 0.9669 0.89325 0.0
H2014 H 0.40195 0.82322 0.88361 0.0
C2015 C 0.55364 0.96827 0.89181 0.0
C2016 C 0.55412 0.91685 0.88772 0.0
H2017 H 0.49914 0.00651 0.89679 0.0
H2018 H 0.59542 0.00822 0.89447 0.0
C2019 C 0.49883 0.86499 0.88465 0.0
C2020 C 0.09609 0.61373 0.88782 0.0
C2021 C 0.14496 0.66547 0.88291 0.0
H2022 H 0.066 0.52613 0.8951 0.0
C2023 C 0.1972 0.66366 0.87959 0.0
H2024 H 0.05545 0.61402 0.89051 0.0
C2025 C 0.20294 0.61321 0.88217 0.0
C2026 C 0.15697 0.5646 0.88825 0.0
H2027 H 0.23548 0.70309 0.87578 0.0
H2028 H 0.2453 0.61449 0.88028 0.0
C2029 C 0.10236 0.56384 0.89057 0.0
C2030 C 0.45127 0.49985 0.89095 0.0
C2031 C 0.40398 0.4983 0.88467 0.0
H2032 H 0.53622 0.55641 0.8992 0.0
C2033 C 0.41163 0.55244 0.88 0.0
H2034 H 0.44604 0.4587 0.89473 0.0
C2035 C 0.46277 0.6082 0.88262 0.0
C2036 C 0.50659 0.61057 0.89005 0.0
H2037 H 0.37543 0.55216 0.87517 0.0
H2038 H 0.46504 0.64956 0.87967 0.0
C2039 C 0.50221 0.55579 0.89367 0.0
C2040 C 0.85567 0.98978 0.70981 0.0
C2041 C 0.82178 0.94763 0.71825 0.0
H2042 H 0.90946 0.08428 0.7053 0.0
C2043 C 0.81899 0.96892 0.72895 0.0
H2044 H 0.85926 0.97415 0.70156 0.0
C2045 C 0.84709 0.03137 0.73106 0.0
C2046 C 0.88025 0.07363 0.72261 0.0
H2047 H 0.79356 0.93704 0.73558 0.0
H2048 H 0.84172 0.04673 0.73924 0.0
C2049 C 0.88533 0.05245 0.71202 0.0
C2050 C 0.03664 0.84737 0.73145 0.0
C2051 C 0.99326 0.83889 0.72332 0.0
H2052 H 0.13152 0.88701 0.73534 0.0
C2053 C 0.01302 0.86475 0.71265 0.0
H2054 H 0.02238 0.82693 0.73966 0.0
C2055 C 0.07527 0.89684 0.71005 0.0
C2056 C 0.11849 0.90459 0.71817 0.0
H2057 H 0.9803 0.85751 0.70617 0.0
H2058 H 0.08977 0.91594 0.70176 0.0
C2059 C 0.09873 0.88081 0.72895 0.0
C2060 C 0.2158 0.21805 0.73094 0.0
C2061 C 0.22519 0.18505 0.7225 0.0
H2062 H 0.17563 0.27207 0.7354 0.0
C2063 C 0.19995 0.18073 0.71186 0.0
H2064 H 0.23581 0.22291 0.73915 0.0
C2065 C 0.16776 0.21099 0.7096 0.0
C2066 C 0.15928 0.24478 0.71802 0.0
H2067 H 0.20791 0.15679 0.70514 0.0
H2068 H 0.14939 0.20799 0.7013 0.0
C2069 C 0.18225 0.24675 0.72877 0.0
C2070 C 0.56497 0.09477 0.13367 0.0
C2071 C 0.61823 0.14501 0.13792 0.0
H2072 H 0.46788 0.05114 0.13213 0.0
C2073 C 0.61298 0.18306 0.14582 0.0
H2074 H 0.56779 0.0639 0.12776 0.0
C2075 C 0.55596 0.17542 0.14838 0.0
C2076 C 0.50338 0.12922 0.14317 0.0
H2077 H 0.65311 0.22193 0.14926 0.0
H2078 H 0.55349 0.20886 0.15367 0.0
C2079 C 0.50775 0.08671 0.13632 0.0
C2080 C 0.88084 0.41174 0.14826 0.0
C2081 C 0.92917 0.40795 0.14335 0.0
H2082 H 0.83336 0.4613 0.14923 0.0
C2083 C 0.97414 0.45776 0.13736 0.0
H2084 H 0.84559 0.37355 0.15291 0.0
C2085 C 0.96651 0.50744 0.1351 0.0
C2086 C 0.91436 0.50799 0.13894 0.0
H2087 H 0.01149 0.45553 0.13343 0.0
H2088 H 0.99911 0.54341 0.12972 0.0
C2089 C 0.87372 0.46175 0.14614 0.0
C2090 C 0.6049 0.55556 0.13793 0.0
C2091 C 0.65411 0.56108 0.14413 0.0
H2092 H 0.51949 0.49398 0.13028 0.0
C2093 C 0.64933 0.50934 0.14938 0.0
H2094 H 0.60785 0.59477 0.13373 0.0
C2095 C 0.59919 0.45181 0.14736 0.0
C2096 C 0.55358 0.44529 0.13996 0.0
H2097 H 0.68703 0.51273 0.15419 0.0
H2098 H 0.59913 0.41218 0.15071 0.0
C2099 C 0.55496 0.49785 0.13581 0.0
C2100 C 0.89227 0.36974 0.62943 0.0
C2101 C 0.85773 0.32581 0.63755 0.0
H2102 H 0.94674 0.46488 0.62559 0.0
C2103 C 0.85146 0.34491 0.64828 0.0
H2104 H 0.89861 0.35604 0.62117 0.0
C2105 C 0.88108 0.4071 0.65092 0.0
C2106 C 0.91619 0.45091 0.64281 0.0
H2107 H 0.82626 0.31177 0.65475 0.0
H2108 H 0.87635 0.42109 0.65926 0.0
C2109 C 0.92039 0.43172 0.63198 0.0
C2110 C 0.70276 0.54931 0.6295 0.0
C2111 C 0.74412 0.55914 0.63812 0.0
H2112 H 0.60898 0.50832 0.62471 0.0
C2113 C 0.72194 0.53415 0.64875 0.0
H2114 H 0.71894 0.56913 0.62129 0.0
C2115 C 0.65909 0.50153 0.65081 0.0
C2116 C 0.61784 0.49248 0.64219 0.0
H2117 H 0.75312 0.54249 0.65559 0.0
H2118 H 0.64261 0.48311 0.65908 0.0
C2119 C 0.64017 0.51544 0.63147 0.0
C2120 C 0.56847 0.18614 0.65046 0.0
C2121 C 0.57787 0.15289 0.64206 0.0
H2122 H 0.52736 0.23965 0.65481 0.0
C2123 C 0.5554 0.15092 0.63126 0.0
H2124 H 0.58646 0.18914 0.65879 0.0
C2125 C 0.52171 0.17932 0.629 0.0
C2126 C 0.5115 0.21188 0.63741 0.0
H2127 H 0.56269 0.12599 0.62465 0.0
H2128 H 0.50229 0.17461 0.62074 0.0
C2129 C 0.53599 0.21603 0.64812 0.0
C2130 C 0.16635 0.30315 0.22628 0.0
C2131 C 0.11088 0.25004 0.22373 0.0
H2132 H 0.26348 0.34534 0.22734 0.0
C2133 C 0.11196 0.1993 0.2194 0.0
H2134 H 0.16688 0.3429 0.22971 0.0
C2135 C 0.16725 0.20099 0.21797 0.0
C2136 C 0.22248 0.25342 0.22086 0.0
H2137 H 0.07022 0.15839 0.21711 0.0
H2138 H 0.16664 0.16045 0.21492 0.0
C2139 C 0.22173 0.30494 0.22481 0.0
C2140 C 0.76425 0.94823 0.22199 0.0
C2141 C 0.81203 0.99993 0.21686 0.0
H2142 H 0.73564 0.8607 0.22917 0.0
C2143 C 0.86383 0.99827 0.21316 0.0
H2144 H 0.72401 0.94842 0.22498 0.0
C2145 C 0.87027 0.94799 0.21553 0.0
C2146 C 0.82546 0.89926 0.22177 0.0
H2147 H 0.9013 0.03766 0.20918 0.0
H2148 H 0.91237 0.94945 0.21332 0.0
C2149 C 0.7712 0.89844 0.22451 0.0
C2150 C 0.08378 0.8907 0.21313 0.0
C2151 C 0.07672 0.83668 0.21774 0.0
H2152 H 0.13654 0.98784 0.21285 0.0
C2153 C 0.12436 0.83844 0.22392 0.0
H2154 H 0.04731 0.8902 0.20835 0.0
C2155 C 0.1751 0.89451 0.22665 0.0
C2156 C 0.17888 0.94913 0.2231 0.0
H2157 H 0.11958 0.79734 0.22764 0.0
H2158 H 0.20941 0.89533 0.23212 0.0
C2159 C 0.13471 0.94658 0.21575 0.0
loop_
_geom_bond_atom_site_label_1
_geom_bond_atom_site_label_2
_geom_bond_distance
_geom_bond_site_symmetry_2
_ccdc_geom_bond_type
Co0 N5 2.057 . S
Co0 O17 2.021 . S
Co0 O20 2.062 . S
Co0 O24 2.117 . S
Co0 O25 2.020 1_545 S
C1 O21 1.259 1_545 S
C1 O24 1.258 . S
Co2 N11 2.057 . S
Co2 O18 2.117 1_565 S
Co2 O19 2.020 1_565 S
Co2 O21 2.021 . S
Co2 O26 2.062 . S
C3 N5 1.316 . S
C3 N6 1.347 . S
C3 H8 0.931 . S
C4 N5 1.375 . S
C4 C7 1.350 . S
C4 H9 0.930 . S
N5 Co0 2.057 . S
N5 C3 1.316 . S
N5 C4 1.375 . S
N6 C3 1.347 . S
N6 C7 1.373 . S
C7 C4 1.350 . S
C7 N6 1.373 . S
C7 H28 0.931 . S
H8 C3 0.931 . S
H9 C4 0.930 . S
C10 O17 1.259 . S
C10 O18 1.258 . S
N11 Co2 2.057 . S
N11 C12 1.316 . S
N11 C13 1.375 . S
C12 N11 1.316 . S
C12 N14 1.347 . S
C12 H23 0.931 . S
C13 N11 1.375 . S
C13 C15 1.350 . S
C13 H22 0.930 . S
N14 C12 1.347 . S
N14 C15 1.373 . S
C15 C13 1.350 . S
C15 N14 1.373 . S
C15 H29 0.931 . S
C16 O19 1.256 . S
C16 O20 1.255 . S
O17 Co0 2.021 . S
O17 C10 1.259 . S
O18 Co2 2.117 1_545 S
O18 C10 1.258 . S
O19 Co2 2.020 1_545 S
O19 C16 1.256 . S
O20 Co0 2.062 . S
O20 C16 1.255 . S
O21 C1 1.259 1_565 S
O21 Co2 2.021 . S
H22 C13 0.930 . S
H23 C12 0.931 . S
O24 Co0 2.117 . S
O24 C1 1.258 . S
O25 Co0 2.020 1_565 S
O25 C27 1.256 . S
O26 Co2 2.062 . S
O26 C27 1.255 . S
C27 O25 1.256 . S
C27 O26 1.255 . S
H28 C7 0.931 . S
H29 C15 0.931 . S
Co30 N35 2.057 . S
Co30 O47 2.021 . S
Co30 O50 2.062 . S
Co30 O54 2.117 . S
Co30 O55 2.020 1_655 S
C31 O51 1.259 . S
C31 O54 1.258 1_455 S
Co32 N41 2.057 . S
Co32 O48 2.117 . S
Co32 O49 2.020 1_455 S
Co32 O51 2.021 . S
Co32 O56 2.062 . S
C33 N35 1.316 . S
C33 N36 1.347 . S
C33 H38 0.931 . S
C34 N35 1.375 . S
C34 C37 1.350 . S
C34 H39 0.930 . S
N35 Co30 2.057 . S
N35 C33 1.316 . S
N35 C34 1.375 . S
N36 C33 1.347 . S
N36 C37 1.373 . S
C37 C34 1.350 . S
C37 N36 1.373 . S
C37 H58 0.931 . S
H38 C33 0.931 . S
H39 C34 0.930 . S
C40 O47 1.259 1_455 S
C40 O48 1.258 . S
N41 Co32 2.057 . S
N41 C42 1.316 . S
N41 C43 1.375 . S
C42 N41 1.316 . S
C42 N44 1.347 . S
C42 H53 0.931 . S
C43 N41 1.375 . S
C43 C45 1.350 . S
C43 H52 0.930 . S
N44 C42 1.347 . S
N44 C45 1.373 . S
C45 C43 1.350 . S
C45 N44 1.373 . S
C45 H59 0.931 . S
C46 O49 1.256 . S
C46 O50 1.255 . S
O47 Co30 2.021 . S
O47 C40 1.259 1_655 S
O48 Co32 2.117 . S
O48 C40 1.258 . S
O49 Co32 2.020 1_655 S
O49 C46 1.256 . S
O50 Co30 2.062 . S
O50 C46 1.255 . S
O51 C31 1.259 . S
O51 Co32 2.021 . S
H52 C43 0.930 . S
H53 C42 0.931 . S
O54 Co30 2.117 . S
O54 C31 1.258 1_655 S
O55 Co30 2.020 1_455 S
O55 C57 1.256 . S
O56 Co32 2.062 . S
O56 C57 1.255 . S
C57 O55 1.256 . S
C57 O56 1.255 . S
H58 C37 0.931 . S
H59 C45 0.931 . S
Co60 N65 2.057 . S
Co60 O77 2.021 . S
Co60 O80 2.062 . S
Co60 O84 2.117 . S
Co60 O85 2.020 . S
C61 O81 1.259 . S
C61 O84 1.258 . S
Co62 N71 2.057 . S
Co62 O78 2.117 . S
Co62 O79 2.020 . S
Co62 O81 2.021 . S
Co62 O86 2.062 . S
C63 N65 1.316 . S
C63 N66 1.347 . S
C63 H68 0.931 . S
C64 N65 1.375 . S
C64 C67 1.350 . S
C64 H69 0.930 . S
N65 Co60 2.057 . S
N65 C63 1.316 . S
N65 C64 1.375 . S
N66 C63 1.347 . S
N66 C67 1.373 . S
C67 C64 1.350 . S
C67 N66 1.373 . S
C67 H88 0.931 . S
H68 C63 0.931 . S
H69 C64 0.930 . S
C70 O77 1.259 . S
C70 O78 1.258 . S
N71 Co62 2.057 . S
N71 C72 1.316 . S
N71 C73 1.375 . S
C72 N71 1.316 . S
C72 N74 1.347 . S
C72 H83 0.931 . S
C73 N71 1.375 . S
C73 C75 1.350 . S
C73 H82 0.930 . S
N74 C72 1.347 . S
N74 C75 1.373 . S
C75 C73 1.350 . S
C75 N74 1.373 . S
C75 H89 0.931 . S
C76 O79 1.256 . S
C76 O80 1.255 . S
O77 Co60 2.021 . S
O77 C70 1.259 . S
O78 Co62 2.117 . S
O78 C70 1.258 . S
O79 Co62 2.020 . S
O79 C76 1.256 . S
O80 Co60 2.062 . S
O80 C76 1.255 . S
O81 C61 1.259 . S
O81 Co62 2.021 . S
H82 C73 0.930 . S
H83 C72 0.931 . S
O84 Co60 2.117 . S
O84 C61 1.258 . S
O85 Co60 2.020 . S
O85 C87 1.256 . S
O86 Co62 2.062 . S
O86 C87 1.255 . S
C87 O85 1.256 . S
C87 O86 1.255 . S
H88 C67 0.931 . S
H89 C75 0.931 . S
Co90 N95 2.057 . S
Co90 O107 2.021 . S
Co90 O110 2.062 . S
Co90 O114 2.117 1_655 S
Co90 O115 2.020 1_655 S
C91 O111 1.259 . S
C91 O114 1.258 . S
Co92 N101 2.057 . S
Co92 O108 2.117 . S
Co92 O109 2.020 1_455 S
Co92 O111 2.021 . S
Co92 O116 2.062 . S
C93 N95 1.316 . S
C93 N96 1.347 . S
C93 H98 0.931 . S
C94 N95 1.375 . S
C94 C97 1.350 . S
C94 H99 0.930 . S
N95 Co90 2.057 . S
N95 C93 1.316 . S
N95 C94 1.375 . S
N96 C93 1.347 . S
N96 C97 1.373 . S
C97 C94 1.350 . S
C97 N96 1.373 . S
C97 H118 0.931 . S
H98 C93 0.931 . S
H99 C94 0.930 . S
C100 O107 1.259 1_455 S
C100 O108 1.258 . S
N101 Co92 2.057 . S
N101 C102 1.316 . S
N101 C103 1.375 . S
C102 N101 1.316 . S
C102 N104 1.347 . S
C102 H113 0.931 . S
C103 N101 1.375 . S
C103 C105 1.350 . S
C103 H112 0.930 . S
N104 C102 1.347 . S
N104 C105 1.373 . S
C105 C103 1.350 . S
C105 N104 1.373 . S
C105 H119 0.931 . S
C106 O109 1.256 . S
C106 O110 1.255 . S
O107 Co90 2.021 . S
O107 C100 1.259 1_655 S
O108 Co92 2.117 . S
O108 C100 1.258 . S
O109 Co92 2.020 1_655 S
O109 C106 1.256 . S
O110 Co90 2.062 . S
O110 C106 1.255 . S
O111 C91 1.259 . S
O111 Co92 2.021 . S
H112 C103 0.930 . S
H113 C102 0.931 . S
O114 Co90 2.117 1_455 S
O114 C91 1.258 . S
O115 Co90 2.020 1_455 S
O115 C117 1.256 . S
O116 Co92 2.062 . S
O116 C117 1.255 . S
C117 O115 1.256 . S
C117 O116 1.255 . S
H118 C97 0.931 . S
H119 C105 0.931 . S
Co120 N125 2.057 . S
Co120 O137 2.021 . S
Co120 O140 2.062 . S
Co120 O144 2.117 . S
Co120 O145 2.020 . S
C121 O141 1.259 . S
C121 O144 1.258 . S
Co122 N131 2.057 . S
Co122 O138 2.117 . S
Co122 O139 2.020 . S
Co122 O141 2.021 . S
Co122 O146 2.062 . S
C123 N125 1.316 . S
C123 N126 1.347 . S
C123 H128 0.931 . S
C124 N125 1.375 . S
C124 C127 1.350 . S
C124 H129 0.930 . S
N125 Co120 2.057 . S
N125 C123 1.316 . S
N125 C124 1.375 . S
N126 C123 1.347 . S
N126 C127 1.373 . S
C127 C124 1.350 . S
C127 N126 1.373 . S
C127 H148 0.931 . S
H128 C123 0.931 . S
H129 C124 0.930 . S
C130 O137 1.259 . S
C130 O138 1.258 . S
N131 Co122 2.057 . S
N131 C132 1.316 . S
N131 C133 1.375 . S
C132 N131 1.316 . S
C132 N134 1.347 . S
C132 H143 0.931 . S
C133 N131 1.375 . S
C133 C135 1.350 . S
C133 H142 0.930 . S
N134 C132 1.347 . S
N134 C135 1.373 . S
C135 C133 1.350 . S
C135 N134 1.373 . S
C135 H149 0.931 . S
C136 O139 1.256 . S
C136 O140 1.255 . S
O137 Co120 2.021 . S
O137 C130 1.259 . S
O138 Co122 2.117 . S
O138 C130 1.258 . S
O139 Co122 2.020 . S
O139 C136 1.256 . S
O140 Co120 2.062 . S
O140 C136 1.255 . S
O141 C121 1.259 . S
O141 Co122 2.021 . S
H142 C133 0.930 . S
H143 C132 0.931 . S
O144 Co120 2.117 . S
O144 C121 1.258 . S
O145 Co120 2.020 . S
O145 C147 1.256 . S
O146 Co122 2.062 . S
O146 C147 1.255 . S
C147 O145 1.256 . S
C147 O146 1.255 . S
H148 C127 0.931 . S
H149 C135 0.931 . S
Co150 N155 2.057 . S
Co150 O167 2.021 . S
Co150 O170 2.062 . S
Co150 O174 2.117 . S
Co150 O175 2.020 1_545 S
C151 O171 1.259 1_545 S
C151 O174 1.258 . S
Co152 N161 2.057 . S
Co152 O168 2.117 . S
Co152 O169 2.020 1_565 S
Co152 O171 2.021 . S
Co152 O176 2.062 . S
C153 N155 1.316 . S
C153 N156 1.347 . S
C153 H158 0.931 . S
C154 N155 1.375 . S
C154 C157 1.350 . S
C154 H159 0.930 . S
N155 Co150 2.057 . S
N155 C153 1.316 . S
N155 C154 1.375 . S
N156 C153 1.347 . S
N156 C157 1.373 . S
C157 C154 1.350 . S
C157 N156 1.373 . S
C157 H178 0.931 . S
H158 C153 0.931 . S
H159 C154 0.930 . S
C160 O167 1.259 . S
C160 O168 1.258 1_545 S
N161 Co152 2.057 . S
N161 C162 1.316 . S
N161 C163 1.375 . S
C162 N161 1.316 . S
C162 N164 1.347 . S
C162 H173 0.931 . S
C163 N161 1.375 . S
C163 C165 1.350 . S
C163 H172 0.930 . S
N164 C162 1.347 . S
N164 C165 1.373 . S
C165 C163 1.350 . S
C165 N164 1.373 . S
C165 H179 0.931 . S
C166 O169 1.256 . S
C166 O170 1.255 . S
O167 Co150 2.021 . S
O167 C160 1.259 . S
O168 Co152 2.117 . S
O168 C160 1.258 1_565 S
O169 Co152 2.020 1_545 S
O169 C166 1.256 . S
O170 Co150 2.062 . S
O170 C166 1.255 . S
O171 C151 1.259 1_565 S
O171 Co152 2.021 . S
H172 C163 0.930 . S
H173 C162 0.931 . S
O174 Co150 2.117 . S
O174 C151 1.258 . S
O175 Co150 2.020 1_565 S
O175 C177 1.256 . S
O176 Co152 2.062 . S
O176 C177 1.255 . S
C177 O175 1.256 . S
C177 O176 1.255 . S
H178 C157 0.931 . S
H179 C165 0.931 . S
Co180 N185 2.057 . S
Co180 O197 2.021 . S
Co180 O200 2.062 . S
Co180 O204 2.117 . S
Co180 O205 2.020 1_545 S
C181 O201 1.259 1_545 S
C181 O204 1.258 . S
Co182 N191 2.057 . S
Co182 O198 2.117 . S
Co182 O199 2.020 1_565 S
Co182 O201 2.021 . S
Co182 O206 2.062 . S
C183 N185 1.316 . S
C183 N186 1.347 . S
C183 H188 0.931 . S
C184 N185 1.375 . S
C184 C187 1.350 . S
C184 H189 0.930 . S
N185 Co180 2.057 . S
N185 C183 1.316 . S
N185 C184 1.375 . S
N186 C183 1.347 . S
N186 C187 1.373 . S
C187 C184 1.350 . S
C187 N186 1.373 . S
C187 H208 0.931 . S
H188 C183 0.931 . S
H189 C184 0.930 . S
C190 O197 1.259 . S
C190 O198 1.258 1_545 S
N191 Co182 2.057 . S
N191 C192 1.316 . S
N191 C193 1.375 . S
C192 N191 1.316 . S
C192 N194 1.347 . S
C192 H203 0.931 . S
C193 N191 1.375 . S
C193 C195 1.350 . S
C193 H202 0.930 . S
N194 C192 1.347 . S
N194 C195 1.373 . S
C195 C193 1.350 . S
C195 N194 1.373 . S
C195 H209 0.931 . S
C196 O199 1.256 . S
C196 O200 1.255 . S
O197 Co180 2.021 . S
O197 C190 1.259 . S
O198 Co182 2.117 . S
O198 C190 1.258 1_565 S
O199 Co182 2.020 1_545 S
O199 C196 1.256 . S
O200 Co180 2.062 . S
O200 C196 1.255 . S
O201 C181 1.259 1_565 S
O201 Co182 2.021 . S
H202 C193 0.930 . S
H203 C192 0.931 . S
O204 Co180 2.117 . S
O204 C181 1.258 . S
O205 Co180 2.020 1_565 S
O205 C207 1.256 . S
O206 Co182 2.062 . S
O206 C207 1.255 . S
C207 O205 1.256 . S
C207 O206 1.255 . S
H208 C187 0.931 . S
H209 C195 0.931 . S
Co210 N215 2.057 . S
Co210 O227 2.021 . S
Co210 O230 2.062 . S
Co210 O234 2.117 1_655 S
Co210 O235 2.020 1_655 S
C211 O231 1.259 . S
C211 O234 1.258 . S
Co212 N221 2.057 . S
Co212 O228 2.117 . S
Co212 O229 2.020 1_455 S
Co212 O231 2.021 . S
Co212 O236 2.062 . S
C213 N215 1.316 . S
C213 N216 1.347 . S
C213 H218 0.931 . S
C214 N215 1.375 . S
C214 C217 1.350 . S
C214 H219 0.930 . S
N215 Co210 2.057 . S
N215 C213 1.316 . S
N215 C214 1.375 . S
N216 C213 1.347 . S
N216 C217 1.373 . S
C217 C214 1.350 . S
C217 N216 1.373 . S
C217 H238 0.931 . S
H218 C213 0.931 . S
H219 C214 0.930 . S
C220 O227 1.259 1_455 S
C220 O228 1.258 . S
N221 Co212 2.057 . S
N221 C222 1.316 . S
N221 C223 1.375 . S
C222 N221 1.316 . S
C222 N224 1.347 . S
C222 H233 0.931 . S
C223 N221 1.375 . S
C223 C225 1.350 . S
C223 H232 0.930 . S
N224 C222 1.347 . S
N224 C225 1.373 . S
C225 C223 1.350 . S
C225 N224 1.373 . S
C225 H239 0.931 . S
C226 O229 1.256 . S
C226 O230 1.255 . S
O227 Co210 2.021 . S
O227 C220 1.259 1_655 S
O228 Co212 2.117 . S
O228 C220 1.258 . S
O229 Co212 2.020 1_655 S
O229 C226 1.256 . S
O230 Co210 2.062 . S
O230 C226 1.255 . S
O231 C211 1.259 . S
O231 Co212 2.021 . S
H232 C223 0.930 . S
H233 C222 0.931 . S
O234 Co210 2.117 1_455 S
O234 C211 1.258 . S
O235 Co210 2.020 1_455 S
O235 C237 1.256 . S
O236 Co212 2.062 . S
O236 C237 1.255 . S
C237 O235 1.256 . S
C237 O236 1.255 . S
H238 C217 0.931 . S
H239 C225 0.931 . S
Co240 N245 2.057 . S
Co240 O257 2.021 . S
Co240 O260 2.062 . S
Co240 O264 2.117 . S
Co240 O265 2.020 . S
C241 O261 1.259 . S
C241 O264 1.258 . S
Co242 N251 2.057 . S
Co242 O258 2.117 . S
Co242 O259 2.020 . S
Co242 O261 2.021 . S
Co242 O266 2.062 . S
C243 N245 1.316 . S
C243 N246 1.347 . S
C243 H248 0.931 . S
C244 N245 1.375 . S
C244 C247 1.350 . S
C244 H249 0.930 . S
N245 Co240 2.057 . S
N245 C243 1.316 . S
N245 C244 1.375 . S
N246 C243 1.347 . S
N246 C247 1.373 . S
C247 C244 1.350 . S
C247 N246 1.373 . S
C247 H268 0.931 . S
H248 C243 0.931 . S
H249 C244 0.930 . S
C250 O257 1.259 . S
C250 O258 1.258 . S
N251 Co242 2.057 . S
N251 C252 1.316 . S
N251 C253 1.375 . S
C252 N251 1.316 . S
C252 N254 1.347 . S
C252 H263 0.931 . S
C253 N251 1.375 . S
C253 C255 1.350 . S
C253 H262 0.930 . S
N254 C252 1.347 . S
N254 C255 1.373 . S
C255 C253 1.350 . S
C255 N254 1.373 . S
C255 H269 0.931 . S
C256 O259 1.256 . S
C256 O260 1.255 . S
O257 Co240 2.021 . S
O257 C250 1.259 . S
O258 Co242 2.117 . S
O258 C250 1.258 . S
O259 Co242 2.020 . S
O259 C256 1.256 . S
O260 Co240 2.062 . S
O260 C256 1.255 . S
O261 C241 1.259 . S
O261 Co242 2.021 . S
H262 C253 0.930 . S
H263 C252 0.931 . S
O264 Co240 2.117 . S
O264 C241 1.258 . S
O265 Co240 2.020 . S
O265 C267 1.256 . S
O266 Co242 2.062 . S
O266 C267 1.255 . S
C267 O265 1.256 . S
C267 O266 1.255 . S
H268 C247 0.931 . S
H269 C255 0.931 . S
Co270 N275 2.057 . S
Co270 O287 2.021 . S
Co270 O290 2.062 . S
Co270 O294 2.117 . S
Co270 O295 2.020 1_655 S
C271 O291 1.259 . S
C271 O294 1.258 1_455 S
Co272 N281 2.057 . S
Co272 O288 2.117 . S
Co272 O289 2.020 1_455 S
Co272 O291 2.021 . S
Co272 O296 2.062 . S
C273 N275 1.316 . S
C273 N276 1.347 . S
C273 H278 0.931 . S
C274 N275 1.375 . S
C274 C277 1.350 . S
C274 H279 0.930 . S
N275 Co270 2.057 . S
N275 C273 1.316 . S
N275 C274 1.375 . S
N276 C273 1.347 . S
N276 C277 1.373 . S
C277 C274 1.350 . S
C277 N276 1.373 . S
C277 H298 0.931 . S
H278 C273 0.931 . S
H279 C274 0.930 . S
C280 O287 1.259 1_455 S
C280 O288 1.258 . S
N281 Co272 2.057 . S
N281 C282 1.316 . S
N281 C283 1.375 . S
C282 N281 1.316 . S
C282 N284 1.347 . S
C282 H293 0.931 . S
C283 N281 1.375 . S
C283 C285 1.350 . S
C283 H292 0.930 . S
N284 C282 1.347 . S
N284 C285 1.373 . S
C285 C283 1.350 . S
C285 N284 1.373 . S
C285 H299 0.931 . S
C286 O289 1.256 . S
C286 O290 1.255 . S
O287 Co270 2.021 . S
O287 C280 1.259 1_655 S
O288 Co272 2.117 . S
O288 C280 1.258 . S
O289 Co272 2.020 1_655 S
O289 C286 1.256 . S
O290 Co270 2.062 . S
O290 C286 1.255 . S
O291 C271 1.259 . S
O291 Co272 2.021 . S
H292 C283 0.930 . S
H293 C282 0.931 . S
O294 Co270 2.117 . S
O294 C271 1.258 1_655 S
O295 Co270 2.020 1_455 S
O295 C297 1.256 . S
O296 Co272 2.062 . S
O296 C297 1.255 . S
C297 O295 1.256 . S
C297 O296 1.255 . S
H298 C277 0.931 . S
H299 C285 0.931 . S
Co300 N305 2.057 . S
Co300 O317 2.021 . S
Co300 O320 2.062 . S
Co300 O324 2.117 . S
Co300 O325 2.020 . S
C301 O321 1.259 . S
C301 O324 1.258 . S
Co302 N311 2.057 . S
Co302 O318 2.117 . S
Co302 O319 2.020 . S
Co302 O321 2.021 . S
Co302 O326 2.062 . S
C303 N305 1.316 . S
C303 N306 1.347 . S
C303 H308 0.931 . S
C304 N305 1.375 . S
C304 C307 1.350 . S
C304 H309 0.930 . S
N305 Co300 2.057 . S
N305 C303 1.316 . S
N305 C304 1.375 . S
N306 C303 1.347 . S
N306 C307 1.373 . S
C307 C304 1.350 . S
C307 N306 1.373 . S
C307 H328 0.931 . S
H308 C303 0.931 . S
H309 C304 0.930 . S
C310 O317 1.259 . S
C310 O318 1.258 . S
N311 Co302 2.057 . S
N311 C312 1.316 . S
N311 C313 1.375 . S
C312 N311 1.316 . S
C312 N314 1.347 . S
C312 H323 0.931 . S
C313 N311 1.375 . S
C313 C315 1.350 . S
C313 H322 0.930 . S
N314 C312 1.347 . S
N314 C315 1.373 . S
C315 C313 1.350 . S
C315 N314 1.373 . S
C315 H329 0.931 . S
C316 O319 1.256 . S
C316 O320 1.255 . S
O317 Co300 2.021 . S
O317 C310 1.259 . S
O318 Co302 2.117 . S
O318 C310 1.258 . S
O319 Co302 2.020 . S
O319 C316 1.256 . S
O320 Co300 2.062 . S
O320 C316 1.255 . S
O321 C301 1.259 . S
O321 Co302 2.021 . S
H322 C313 0.930 . S
H323 C312 0.931 . S
O324 Co300 2.117 . S
O324 C301 1.258 . S
O325 Co300 2.020 . S
O325 C327 1.256 . S
O326 Co302 2.062 . S
O326 C327 1.255 . S
C327 O325 1.256 . S
C327 O326 1.255 . S
H328 C307 0.931 . S
H329 C315 0.931 . S
Co330 N335 2.057 . S
Co330 O347 2.021 . S
Co330 O350 2.062 . S
Co330 O354 2.117 . S
Co330 O355 2.020 1_545 S
C331 O351 1.259 1_545 S
C331 O354 1.258 . S
Co332 N341 2.057 . S
Co332 O348 2.117 1_565 S
Co332 O349 2.020 1_565 S
Co332 O351 2.021 . S
Co332 O356 2.062 . S
C333 N335 1.316 . S
C333 N336 1.347 . S
C333 H338 0.931 . S
C334 N335 1.375 . S
C334 C337 1.350 . S
C334 H339 0.930 . S
N335 Co330 2.057 . S
N335 C333 1.316 . S
N335 C334 1.375 . S
N336 C333 1.347 . S
N336 C337 1.373 . S
C337 C334 1.350 . S
C337 N336 1.373 . S
C337 H358 0.931 . S
H338 C333 0.931 . S
H339 C334 0.930 . S
C340 O347 1.259 . S
C340 O348 1.258 . S
N341 Co332 2.057 . S
N341 C342 1.316 . S
N341 C343 1.375 . S
C342 N341 1.316 . S
C342 N344 1.347 . S
C342 H353 0.931 . S
C343 N341 1.375 . S
C343 C345 1.350 . S
C343 H352 0.930 . S
N344 C342 1.347 . S
N344 C345 1.373 . S
C345 C343 1.350 . S
C345 N344 1.373 . S
C345 H359 0.931 . S
C346 O349 1.256 . S
C346 O350 1.255 . S
O347 Co330 2.021 . S
O347 C340 1.259 . S
O348 Co332 2.117 1_545 S
O348 C340 1.258 . S
O349 Co332 2.020 1_545 S
O349 C346 1.256 . S
O350 Co330 2.062 . S
O350 C346 1.255 . S
O351 C331 1.259 1_565 S
O351 Co332 2.021 . S
H352 C343 0.930 . S
H353 C342 0.931 . S
O354 Co330 2.117 . S
O354 C331 1.258 . S
O355 Co330 2.020 1_565 S
O355 C357 1.256 . S
O356 Co332 2.062 . S
O356 C357 1.255 . S
C357 O355 1.256 . S
C357 O356 1.255 . S
H358 C337 0.931 . S
H359 C345 0.931 . S
Co360 N365 2.057 . S
Co360 O377 2.021 . S
Co360 O380 2.062 . S
Co360 O384 2.117 . S
Co360 O385 2.020 . S
C361 O381 1.259 . S
C361 O384 1.258 . S
Co362 N371 2.057 . S
Co362 O378 2.117 . S
Co362 O379 2.020 . S
Co362 O381 2.021 . S
Co362 O386 2.062 . S
C363 N365 1.316 . S
C363 N366 1.347 . S
C363 H368 0.931 . S
C364 N365 1.375 . S
C364 C367 1.350 . S
C364 H369 0.930 . S
N365 Co360 2.057 . S
N365 C363 1.316 . S
N365 C364 1.375 . S
N366 C363 1.347 . S
N366 C367 1.373 . S
C367 C364 1.350 . S
C367 N366 1.373 . S
C367 H388 0.931 . S
H368 C363 0.931 . S
H369 C364 0.930 . S
C370 O377 1.259 . S
C370 O378 1.258 . S
N371 Co362 2.057 . S
N371 C372 1.316 . S
N371 C373 1.375 . S
C372 N371 1.316 . S
C372 N374 1.347 . S
C372 H383 0.931 . S
C373 N371 1.375 . S
C373 C375 1.350 . S
C373 H382 0.930 . S
N374 C372 1.347 . S
N374 C375 1.373 . S
C375 C373 1.350 . S
C375 N374 1.373 . S
C375 H389 0.931 . S
C376 O379 1.256 . S
C376 O380 1.255 . S
O377 Co360 2.021 . S
O377 C370 1.259 . S
O378 Co362 2.117 . S
O378 C370 1.258 . S
O379 Co362 2.020 . S
O379 C376 1.256 . S
O380 Co360 2.062 . S
O380 C376 1.255 . S
O381 C361 1.259 . S
O381 Co362 2.021 . S
H382 C373 0.930 . S
H383 C372 0.931 . S
O384 Co360 2.117 . S
O384 C361 1.258 . S
O385 Co360 2.020 . S
O385 C387 1.256 . S
O386 Co362 2.062 . S
O386 C387 1.255 . S
C387 O385 1.256 . S
C387 O386 1.255 . S
H388 C367 0.931 . S
H389 C375 0.931 . S
Co390 N395 2.057 . S
Co390 O407 2.021 . S
Co390 O410 2.062 . S
Co390 O414 2.117 . S
Co390 O415 2.020 . S
C391 O411 1.259 . S
C391 O414 1.258 . S
Co392 N401 2.057 . S
Co392 O408 2.117 . S
Co392 O409 2.020 . S
Co392 O411 2.021 . S
Co392 O416 2.062 . S
C393 N395 1.316 . S
C393 N396 1.347 . S
C393 H398 0.931 . S
C394 N395 1.375 . S
C394 C397 1.350 . S
C394 H399 0.930 . S
N395 Co390 2.057 . S
N395 C393 1.316 . S
N395 C394 1.375 . S
N396 C393 1.347 . S
N396 C397 1.373 . S
C397 C394 1.350 . S
C397 N396 1.373 . S
C397 H418 0.931 . S
H398 C393 0.931 . S
H399 C394 0.930 . S
C400 O407 1.259 . S
C400 O408 1.258 . S
N401 Co392 2.057 . S
N401 C402 1.316 1_565 S
N401 C403 1.375 . S
C402 N401 1.316 1_545 S
C402 N404 1.347 . S
C402 H413 0.931 . S
C403 N401 1.375 . S
C403 C405 1.350 1_565 S
C403 H412 0.930 . S
N404 C402 1.347 . S
N404 C405 1.373 . S
C405 C403 1.350 1_545 S
C405 N404 1.373 . S
C405 H419 0.931 . S
C406 O409 1.256 . S
C406 O410 1.255 . S
O407 Co390 2.021 . S
O407 C400 1.259 . S
O408 Co392 2.117 . S
O408 C400 1.258 . S
O409 Co392 2.020 . S
O409 C406 1.256 . S
O410 Co390 2.062 . S
O410 C406 1.255 . S
O411 C391 1.259 . S
O411 Co392 2.021 . S
H412 C403 0.930 . S
H413 C402 0.931 . S
O414 Co390 2.117 . S
O414 C391 1.258 . S
O415 Co390 2.020 . S
O415 C417 1.256 . S
O416 Co392 2.062 . S
O416 C417 1.255 . S
C417 O415 1.256 . S
C417 O416 1.255 . S
H418 C397 0.931 . S
H419 C405 0.931 . S
Co420 N425 2.057 . S
Co420 O437 2.021 . S
Co420 O440 2.062 . S
Co420 O444 2.117 . S
Co420 O445 2.020 . S
C421 O441 1.259 . S
C421 O444 1.258 . S
Co422 N431 2.057 . S
Co422 O438 2.117 . S
Co422 O439 2.020 . S
Co422 O441 2.021 . S
Co422 O446 2.062 . S
C423 N425 1.316 . S
C423 N426 1.347 . S
C423 H428 0.931 . S
C424 N425 1.375 . S
C424 C427 1.350 . S
C424 H429 0.930 . S
N425 Co420 2.057 . S
N425 C423 1.316 . S
N425 C424 1.375 . S
N426 C423 1.347 . S
N426 C427 1.373 . S
C427 C424 1.350 . S
C427 N426 1.373 . S
C427 H448 0.931 . S
H428 C423 0.931 . S
H429 C424 0.930 . S
C430 O437 1.259 . S
C430 O438 1.258 . S
N431 Co422 2.057 . S
N431 C432 1.316 . S
N431 C433 1.375 . S
C432 N431 1.316 . S
C432 N434 1.347 1_455 S
C432 H443 0.931 . S
C433 N431 1.375 . S
C433 C435 1.350 . S
C433 H442 0.930 . S
N434 C432 1.347 1_655 S
N434 C435 1.373 1_655 S
C435 C433 1.350 . S
C435 N434 1.373 1_455 S
C435 H449 0.931 1_455 S
C436 O439 1.256 . S
C436 O440 1.255 . S
O437 Co420 2.021 . S
O437 C430 1.259 . S
O438 Co422 2.117 . S
O438 C430 1.258 . S
O439 Co422 2.020 . S
O439 C436 1.256 . S
O440 Co420 2.062 . S
O440 C436 1.255 . S
O441 C421 1.259 . S
O441 Co422 2.021 . S
H442 C433 0.930 . S
H443 C432 0.931 . S
O444 Co420 2.117 . S
O444 C421 1.258 . S
O445 Co420 2.020 . S
O445 C447 1.256 . S
O446 Co422 2.062 . S
O446 C447 1.255 . S
C447 O445 1.256 . S
C447 O446 1.255 . S
H448 C427 0.931 . S
H449 C435 0.931 1_655 S
Co450 N455 2.057 . S
Co450 O467 2.021 . S
Co450 O470 2.062 . S
Co450 O474 2.117 . S
Co450 O475 2.020 . S
C451 O471 1.259 . S
C451 O474 1.258 . S
Co452 N461 2.057 . S
Co452 O468 2.117 . S
Co452 O469 2.020 . S
Co452 O471 2.021 . S
Co452 O476 2.062 . S
C453 N455 1.316 . S
C453 N456 1.347 . S
C453 H458 0.931 . S
C454 N455 1.375 . S
C454 C457 1.350 . S
C454 H459 0.930 . S
N455 Co450 2.057 . S
N455 C453 1.316 . S
N455 C454 1.375 . S
N456 C453 1.347 . S
N456 C457 1.373 . S
C457 C454 1.350 . S
C457 N456 1.373 . S
C457 H478 0.931 . S
H458 C453 0.931 . S
H459 C454 0.930 . S
C460 O467 1.259 . S
C460 O468 1.258 . S
N461 Co452 2.057 . S
N461 C462 1.316 1_565 S
N461 C463 1.375 1_565 S
C462 N461 1.316 1_545 S
C462 N464 1.347 . S
C462 H473 0.931 . S
C463 N461 1.375 1_545 S
C463 C465 1.350 . S
C463 H472 0.930 . S
N464 C462 1.347 . S
N464 C465 1.373 . S
C465 C463 1.350 . S
C465 N464 1.373 . S
C465 H479 0.931 . S
C466 O469 1.256 . S
C466 O470 1.255 . S
O467 Co450 2.021 . S
O467 C460 1.259 . S
O468 Co452 2.117 . S
O468 C460 1.258 . S
O469 Co452 2.020 . S
O469 C466 1.256 . S
O470 Co450 2.062 . S
O470 C466 1.255 . S
O471 C451 1.259 . S
O471 Co452 2.021 . S
H472 C463 0.930 . S
H473 C462 0.931 . S
O474 Co450 2.117 . S
O474 C451 1.258 . S
O475 Co450 2.020 . S
O475 C477 1.256 . S
O476 Co452 2.062 . S
O476 C477 1.255 . S
C477 O475 1.256 . S
C477 O476 1.255 . S
H478 C457 0.931 . S
H479 C465 0.931 . S
Co480 N485 2.057 . S
Co480 O497 2.021 . S
Co480 O500 2.062 . S
Co480 O504 2.117 . S
Co480 O505 2.020 . S
C481 O501 1.259 . S
C481 O504 1.258 . S
Co482 N491 2.057 . S
Co482 O498 2.117 . S
Co482 O499 2.020 . S
Co482 O501 2.021 . S
Co482 O506 2.062 . S
C483 N485 1.316 . S
C483 N486 1.347 . S
C483 H488 0.931 . S
C484 N485 1.375 . S
C484 C487 1.350 . S
C484 H489 0.930 . S
N485 Co480 2.057 . S
N485 C483 1.316 . S
N485 C484 1.375 . S
N486 C483 1.347 . S
N486 C487 1.373 . S
C487 C484 1.350 . S
C487 N486 1.373 . S
C487 H508 0.931 . S
H488 C483 0.931 . S
H489 C484 0.930 . S
C490 O497 1.259 . S
C490 O498 1.258 . S
N491 Co482 2.057 . S
N491 C492 1.316 . S
N491 C493 1.375 . S
C492 N491 1.316 . S
C492 N494 1.347 1_455 S
C492 H503 0.931 . S
C493 N491 1.375 . S
C493 C495 1.350 1_455 S
C493 H502 0.930 . S
N494 C492 1.347 1_655 S
N494 C495 1.373 . S
C495 C493 1.350 1_655 S
C495 N494 1.373 . S
C495 H509 0.931 . S
C496 O499 1.256 . S
C496 O500 1.255 . S
O497 Co480 2.021 . S
O497 C490 1.259 . S
O498 Co482 2.117 . S
O498 C490 1.258 . S
O499 Co482 2.020 . S
O499 C496 1.256 . S
O500 Co480 2.062 . S
O500 C496 1.255 . S
O501 C481 1.259 . S
O501 Co482 2.021 . S
H502 C493 0.930 . S
H503 C492 0.931 . S
O504 Co480 2.117 . S
O504 C481 1.258 . S
O505 Co480 2.020 . S
O505 C507 1.256 . S
O506 Co482 2.062 . S
O506 C507 1.255 . S
C507 O505 1.256 . S
C507 O506 1.255 . S
H508 C487 0.931 . S
H509 C495 0.931 . S
Co510 N515 2.057 . S
Co510 O527 2.021 . S
Co510 O530 2.062 . S
Co510 O534 2.117 . S
Co510 O535 2.020 . S
C511 O531 1.259 . S
C511 O534 1.258 . S
Co512 N521 2.057 . S
Co512 O528 2.117 . S
Co512 O529 2.020 . S
Co512 O531 2.021 . S
Co512 O536 2.062 . S
C513 N515 1.316 . S
C513 N516 1.347 . S
C513 H518 0.931 . S
C514 N515 1.375 . S
C514 C517 1.350 . S
C514 H519 0.930 . S
N515 Co510 2.057 . S
N515 C513 1.316 . S
N515 C514 1.375 . S
N516 C513 1.347 . S
N516 C517 1.373 . S
C517 C514 1.350 . S
C517 N516 1.373 . S
C517 H538 0.931 . S
H518 C513 0.931 . S
H519 C514 0.930 . S
C520 O527 1.259 . S
C520 O528 1.258 . S
N521 Co512 2.057 . S
N521 C522 1.316 . S
N521 C523 1.375 . S
C522 N521 1.316 . S
C522 N524 1.347 . S
C522 H533 0.931 . S
C523 N521 1.375 . S
C523 C525 1.350 . S
C523 H532 0.930 . S
N524 C522 1.347 . S
N524 C525 1.373 . S
C525 C523 1.350 . S
C525 N524 1.373 . S
C525 H539 0.931 . S
C526 O529 1.256 . S
C526 O530 1.255 . S
O527 Co510 2.021 . S
O527 C520 1.259 . S
O528 Co512 2.117 . S
O528 C520 1.258 . S
O529 Co512 2.020 . S
O529 C526 1.256 . S
O530 Co510 2.062 . S
O530 C526 1.255 . S
O531 C511 1.259 . S
O531 Co512 2.021 . S
H532 C523 0.930 . S
H533 C522 0.931 . S
O534 Co510 2.117 . S
O534 C511 1.258 . S
O535 Co510 2.020 . S
O535 C537 1.256 . S
O536 Co512 2.062 . S
O536 C537 1.255 . S
C537 O535 1.256 . S
C537 O536 1.255 . S
H538 C517 0.931 . S
H539 C525 0.931 . S
Co540 N545 2.057 . S
Co540 O557 2.021 . S
Co540 O560 2.062 . S
Co540 O564 2.117 . S
Co540 O565 2.020 . S
C541 O561 1.259 . S
C541 O564 1.258 . S
Co542 N551 2.057 . S
Co542 O558 2.117 . S
Co542 O559 2.020 . S
Co542 O561 2.021 . S
Co542 O566 2.062 . S
C543 N545 1.316 . S
C543 N546 1.347 . S
C543 H548 0.931 . S
C544 N545 1.375 . S
C544 C547 1.350 . S
C544 H549 0.930 . S
N545 Co540 2.057 . S
N545 C543 1.316 . S
N545 C544 1.375 . S
N546 C543 1.347 . S
N546 C547 1.373 . S
C547 C544 1.350 . S
C547 N546 1.373 . S
C547 H568 0.931 . S
H548 C543 0.931 . S
H549 C544 0.930 . S
C550 O557 1.259 . S
C550 O558 1.258 . S
N551 Co542 2.057 . S
N551 C552 1.316 . S
N551 C553 1.375 . S
C552 N551 1.316 . S
C552 N554 1.347 . S
C552 H563 0.931 . S
C553 N551 1.375 . S
C553 C555 1.350 . S
C553 H562 0.930 . S
N554 C552 1.347 . S
N554 C555 1.373 . S
C555 C553 1.350 . S
C555 N554 1.373 . S
C555 H569 0.931 . S
C556 O559 1.256 . S
C556 O560 1.255 . S
O557 Co540 2.021 . S
O557 C550 1.259 . S
O558 Co542 2.117 . S
O558 C550 1.258 . S
O559 Co542 2.020 . S
O559 C556 1.256 . S
O560 Co540 2.062 . S
O560 C556 1.255 . S
O561 C541 1.259 . S
O561 Co542 2.021 . S
H562 C553 0.930 . S
H563 C552 0.931 . S
O564 Co540 2.117 . S
O564 C541 1.258 . S
O565 Co540 2.020 . S
O565 C567 1.256 . S
O566 Co542 2.062 . S
O566 C567 1.255 . S
C567 O565 1.256 . S
C567 O566 1.255 . S
H568 C547 0.931 . S
H569 C555 0.931 . S
Co570 N575 2.057 . S
Co570 O587 2.021 . S
Co570 O590 2.062 . S
Co570 O594 2.117 . S
Co570 O595 2.020 . S
C571 O591 1.259 . S
C571 O594 1.258 . S
Co572 N581 2.057 1_565 S
Co572 O588 2.117 . S
Co572 O589 2.020 . S
Co572 O591 2.021 . S
Co572 O596 2.062 . S
C573 N575 1.316 . S
C573 N576 1.347 . S
C573 H578 0.931 . S
C574 N575 1.375 . S
C574 C577 1.350 . S
C574 H579 0.930 . S
N575 Co570 2.057 . S
N575 C573 1.316 . S
N575 C574 1.375 . S
N576 C573 1.347 . S
N576 C577 1.373 . S
C577 C574 1.350 . S
C577 N576 1.373 . S
C577 H598 0.931 . S
H578 C573 0.931 . S
H579 C574 0.930 . S
C580 O587 1.259 . S
C580 O588 1.258 . S
N581 Co572 2.057 1_545 S
N581 C582 1.316 . S
N581 C583 1.375 . S
C582 N581 1.316 . S
C582 N584 1.347 . S
C582 H593 0.931 . S
C583 N581 1.375 . S
C583 C585 1.350 . S
C583 H592 0.930 . S
N584 C582 1.347 . S
N584 C585 1.373 . S
C585 C583 1.350 . S
C585 N584 1.373 . S
C585 H599 0.931 . S
C586 O589 1.256 . S
C586 O590 1.255 . S
O587 Co570 2.021 . S
O587 C580 1.259 . S
O588 Co572 2.117 . S
O588 C580 1.258 . S
O589 Co572 2.020 . S
O589 C586 1.256 . S
O590 Co570 2.062 . S
O590 C586 1.255 . S
O591 C571 1.259 . S
O591 Co572 2.021 . S
H592 C583 0.930 . S
H593 C582 0.931 . S
O594 Co570 2.117 . S
O594 C571 1.258 . S
O595 Co570 2.020 . S
O595 C597 1.256 . S
O596 Co572 2.062 . S
O596 C597 1.255 . S
C597 O595 1.256 . S
C597 O596 1.255 . S
H598 C577 0.931 . S
H599 C585 0.931 . S
Co600 N605 2.057 . S
Co600 O617 2.021 . S
Co600 O620 2.062 . S
Co600 O624 2.117 . S
Co600 O625 2.020 . S
C601 O621 1.259 . S
C601 O624 1.258 . S
Co602 N611 2.057 . S
Co602 O618 2.117 . S
Co602 O619 2.020 . S
Co602 O621 2.021 . S
Co602 O626 2.062 . S
C603 N605 1.316 . S
C603 N606 1.347 . S
C603 H608 0.931 . S
C604 N605 1.375 . S
C604 C607 1.350 . S
C604 H609 0.930 . S
N605 Co600 2.057 . S
N605 C603 1.316 . S
N605 C604 1.375 . S
N606 C603 1.347 . S
N606 C607 1.373 . S
C607 C604 1.350 . S
C607 N606 1.373 . S
C607 H628 0.931 . S
H608 C603 0.931 . S
H609 C604 0.930 . S
C610 O617 1.259 . S
C610 O618 1.258 . S
N611 Co602 2.057 . S
N611 C612 1.316 1_455 S
N611 C613 1.375 . S
C612 N611 1.316 1_655 S
C612 N614 1.347 . S
C612 H623 0.931 . S
C613 N611 1.375 . S
C613 C615 1.350 1_455 S
C613 H622 0.930 . S
N614 C612 1.347 . S
N614 C615 1.373 . S
C615 C613 1.350 1_655 S
C615 N614 1.373 . S
C615 H629 0.931 . S
C616 O619 1.256 . S
C616 O620 1.255 . S
O617 Co600 2.021 . S
O617 C610 1.259 . S
O618 Co602 2.117 . S
O618 C610 1.258 . S
O619 Co602 2.020 . S
O619 C616 1.256 . S
O620 Co600 2.062 . S
O620 C616 1.255 . S
O621 C601 1.259 . S
O621 Co602 2.021 . S
H622 C613 0.930 . S
H623 C612 0.931 . S
O624 Co600 2.117 . S
O624 C601 1.258 . S
O625 Co600 2.020 . S
O625 C627 1.256 . S
O626 Co602 2.062 . S
O626 C627 1.255 . S
C627 O625 1.256 . S
C627 O626 1.255 . S
H628 C607 0.931 . S
H629 C615 0.931 . S
Co630 N635 2.057 . S
Co630 O647 2.021 . S
Co630 O650 2.062 . S
Co630 O654 2.117 . S
Co630 O655 2.020 . S
C631 O651 1.259 . S
C631 O654 1.258 . S
Co632 N641 2.057 1_565 S
Co632 O648 2.117 . S
Co632 O649 2.020 . S
Co632 O651 2.021 . S
Co632 O656 2.062 . S
C633 N635 1.316 . S
C633 N636 1.347 . S
C633 H638 0.931 . S
C634 N635 1.375 . S
C634 C637 1.350 . S
C634 H639 0.930 . S
N635 Co630 2.057 . S
N635 C633 1.316 . S
N635 C634 1.375 . S
N636 C633 1.347 . S
N636 C637 1.373 . S
C637 C634 1.350 . S
C637 N636 1.373 . S
C637 H658 0.931 . S
H638 C633 0.931 . S
H639 C634 0.930 . S
C640 O647 1.259 . S
C640 O648 1.258 . S
N641 Co632 2.057 1_545 S
N641 C642 1.316 . S
N641 C643 1.375 . S
C642 N641 1.316 . S
C642 N644 1.347 . S
C642 H653 0.931 . S
C643 N641 1.375 . S
C643 C645 1.350 . S
C643 H652 0.930 . S
N644 C642 1.347 . S
N644 C645 1.373 . S
C645 C643 1.350 . S
C645 N644 1.373 . S
C645 H659 0.931 . S
C646 O649 1.256 . S
C646 O650 1.255 . S
O647 Co630 2.021 . S
O647 C640 1.259 . S
O648 Co632 2.117 . S
O648 C640 1.258 . S
O649 Co632 2.020 . S
O649 C646 1.256 . S
O650 Co630 2.062 . S
O650 C646 1.255 . S
O651 C631 1.259 . S
O651 Co632 2.021 . S
H652 C643 0.930 . S
H653 C642 0.931 . S
O654 Co630 2.117 . S
O654 C631 1.258 . S
O655 Co630 2.020 . S
O655 C657 1.256 . S
O656 Co632 2.062 . S
O656 C657 1.255 . S
C657 O655 1.256 . S
C657 O656 1.255 . S
H658 C637 0.931 . S
H659 C645 0.931 . S
Co660 N665 2.057 . S
Co660 O677 2.021 . S
Co660 O680 2.062 . S
Co660 O684 2.117 . S
Co660 O685 2.020 . S
C661 O681 1.259 . S
C661 O684 1.258 . S
Co662 N671 2.057 . S
Co662 O678 2.117 . S
Co662 O679 2.020 . S
Co662 O681 2.021 . S
Co662 O686 2.062 . S
C663 N665 1.316 . S
C663 N666 1.347 . S
C663 H668 0.931 . S
C664 N665 1.375 . S
C664 C667 1.350 . S
C664 H669 0.930 . S
N665 Co660 2.057 . S
N665 C663 1.316 . S
N665 C664 1.375 . S
N666 C663 1.347 . S
N666 C667 1.373 . S
C667 C664 1.350 . S
C667 N666 1.373 . S
C667 H688 0.931 . S
H668 C663 0.931 . S
H669 C664 0.930 . S
C670 O677 1.259 . S
C670 O678 1.258 . S
N671 Co662 2.057 . S
N671 C672 1.316 1_455 S
N671 C673 1.375 1_455 S
C672 N671 1.316 1_655 S
C672 N674 1.347 . S
C672 H683 0.931 . S
C673 N671 1.375 1_655 S
C673 C675 1.350 . S
C673 H682 0.930 . S
N674 C672 1.347 . S
N674 C675 1.373 . S
C675 C673 1.350 . S
C675 N674 1.373 . S
C675 H689 0.931 . S
C676 O679 1.256 . S
C676 O680 1.255 . S
O677 Co660 2.021 . S
O677 C670 1.259 . S
O678 Co662 2.117 . S
O678 C670 1.258 . S
O679 Co662 2.020 . S
O679 C676 1.256 . S
O680 Co660 2.062 . S
O680 C676 1.255 . S
O681 C661 1.259 . S
O681 Co662 2.021 . S
H682 C673 0.930 . S
H683 C672 0.931 . S
O684 Co660 2.117 . S
O684 C661 1.258 . S
O685 Co660 2.020 . S
O685 C687 1.256 . S
O686 Co662 2.062 . S
O686 C687 1.255 . S
C687 O685 1.256 . S
C687 O686 1.255 . S
H688 C667 0.931 . S
H689 C675 0.931 . S
Co690 N695 2.057 . S
Co690 O707 2.021 . S
Co690 O710 2.062 . S
Co690 O714 2.117 . S
Co690 O715 2.020 . S
C691 O711 1.259 . S
C691 O714 1.258 . S
Co692 N701 2.057 . S
Co692 O708 2.117 . S
Co692 O709 2.020 . S
Co692 O711 2.021 . S
Co692 O716 2.062 . S
C693 N695 1.316 . S
C693 N696 1.347 . S
C693 H698 0.931 . S
C694 N695 1.375 . S
C694 C697 1.350 . S
C694 H699 0.930 . S
N695 Co690 2.057 . S
N695 C693 1.316 . S
N695 C694 1.375 . S
N696 C693 1.347 . S
N696 C697 1.373 . S
C697 C694 1.350 . S
C697 N696 1.373 . S
C697 H718 0.931 . S
H698 C693 0.931 . S
H699 C694 0.930 . S
C700 O707 1.259 . S
C700 O708 1.258 . S
N701 Co692 2.057 . S
N701 C702 1.316 . S
N701 C703 1.375 . S
C702 N701 1.316 . S
C702 N704 1.347 . S
C702 H713 0.931 . S
C703 N701 1.375 . S
C703 C705 1.350 . S
C703 H712 0.930 . S
N704 C702 1.347 . S
N704 C705 1.373 . S
C705 C703 1.350 . S
C705 N704 1.373 . S
C705 H719 0.931 . S
C706 O709 1.256 . S
C706 O710 1.255 . S
O707 Co690 2.021 . S
O707 C700 1.259 . S
O708 Co692 2.117 . S
O708 C700 1.258 . S
O709 Co692 2.020 . S
O709 C706 1.256 . S
O710 Co690 2.062 . S
O710 C706 1.255 . S
O711 C691 1.259 . S
O711 Co692 2.021 . S
H712 C703 0.930 . S
H713 C702 0.931 . S
O714 Co690 2.117 . S
O714 C691 1.258 . S
O715 Co690 2.020 . S
O715 C717 1.256 . S
O716 Co692 2.062 . S
O716 C717 1.255 . S
C717 O715 1.256 . S
C717 O716 1.255 . S
H718 C697 0.931 . S
H719 C705 0.931 . S
Co720 N725 2.057 . S
Co720 O737 2.021 . S
Co720 O740 2.062 . S
Co720 O744 2.117 . S
Co720 O745 2.020 . S
C721 O741 1.259 . S
C721 O744 1.258 . S
Co722 N731 2.057 . S
Co722 O738 2.117 . S
Co722 O739 2.020 . S
Co722 O741 2.021 . S
Co722 O746 2.062 . S
C723 N725 1.316 . S
C723 N726 1.347 . S
C723 H728 0.931 . S
C724 N725 1.375 . S
C724 C727 1.350 . S
C724 H729 0.930 . S
N725 Co720 2.057 . S
N725 C723 1.316 . S
N725 C724 1.375 . S
N726 C723 1.347 . S
N726 C727 1.373 . S
C727 C724 1.350 . S
C727 N726 1.373 . S
C727 H748 0.931 . S
H728 C723 0.931 . S
H729 C724 0.930 . S
C730 O737 1.259 . S
C730 O738 1.258 . S
N731 Co722 2.057 . S
N731 C732 1.316 . S
N731 C733 1.375 . S
C732 N731 1.316 . S
C732 N734 1.347 . S
C732 H743 0.931 . S
C733 N731 1.375 . S
C733 C735 1.350 . S
C733 H742 0.930 . S
N734 C732 1.347 . S
N734 C735 1.373 . S
C735 C733 1.350 . S
C735 N734 1.373 . S
C735 H749 0.931 . S
C736 O739 1.256 . S
C736 O740 1.255 . S
O737 Co720 2.021 . S
O737 C730 1.259 . S
O738 Co722 2.117 . S
O738 C730 1.258 . S
O739 Co722 2.020 . S
O739 C736 1.256 . S
O740 Co720 2.062 . S
O740 C736 1.255 . S
O741 C721 1.259 . S
O741 Co722 2.021 . S
H742 C733 0.930 . S
H743 C732 0.931 . S
O744 Co720 2.117 . S
O744 C721 1.258 . S
O745 Co720 2.020 . S
O745 C747 1.256 . S
O746 Co722 2.062 . S
O746 C747 1.255 . S
C747 O745 1.256 . S
C747 O746 1.255 . S
H748 C727 0.931 . S
H749 C735 0.931 . S
Co750 N755 2.057 . S
Co750 O767 2.021 . S
Co750 O770 2.062 . S
Co750 O774 2.117 . S
Co750 O775 2.020 . S
C751 O771 1.259 . S
C751 O774 1.258 . S
Co752 N761 2.057 . S
Co752 O768 2.117 . S
Co752 O769 2.020 . S
Co752 O771 2.021 . S
Co752 O776 2.062 . S
C753 N755 1.316 1_565 S
C753 N756 1.347 . S
C753 H758 0.931 . S
C754 N755 1.375 . S
C754 C757 1.350 1_545 S
C754 H759 0.930 . S
N755 Co750 2.057 . S
N755 C753 1.316 1_545 S
N755 C754 1.375 . S
N756 C753 1.347 . S
N756 C757 1.373 . S
C757 C754 1.350 1_565 S
C757 N756 1.373 . S
C757 H778 0.931 . S
H758 C753 0.931 . S
H759 C754 0.930 . S
C760 O767 1.259 . S
C760 O768 1.258 . S
N761 Co752 2.057 . S
N761 C762 1.316 . S
N761 C763 1.375 . S
C762 N761 1.316 . S
C762 N764 1.347 . S
C762 H773 0.931 . S
C763 N761 1.375 . S
C763 C765 1.350 . S
C763 H772 0.930 . S
N764 C762 1.347 . S
N764 C765 1.373 . S
C765 C763 1.350 . S
C765 N764 1.373 . S
C765 H779 0.931 . S
C766 O769 1.256 . S
C766 O770 1.255 . S
O767 Co750 2.021 . S
O767 C760 1.259 . S
O768 Co752 2.117 . S
O768 C760 1.258 . S
O769 Co752 2.020 . S
O769 C766 1.256 . S
O770 Co750 2.062 . S
O770 C766 1.255 . S
O771 C751 1.259 . S
O771 Co752 2.021 . S
H772 C763 0.930 . S
H773 C762 0.931 . S
O774 Co750 2.117 . S
O774 C751 1.258 . S
O775 Co750 2.020 . S
O775 C777 1.256 . S
O776 Co752 2.062 . S
O776 C777 1.255 . S
C777 O775 1.256 . S
C777 O776 1.255 . S
H778 C757 0.931 . S
H779 C765 0.931 . S
Co780 N785 2.057 1_655 S
Co780 O797 2.021 . S
Co780 O800 2.062 . S
Co780 O804 2.117 . S
Co780 O805 2.020 . S
C781 O801 1.259 . S
C781 O804 1.258 . S
Co782 N791 2.057 . S
Co782 O798 2.117 . S
Co782 O799 2.020 . S
Co782 O801 2.021 . S
Co782 O806 2.062 . S
C783 N785 1.316 . S
C783 N786 1.347 . S
C783 H788 0.931 . S
C784 N785 1.375 . S
C784 C787 1.350 . S
C784 H789 0.930 . S
N785 Co780 2.057 1_455 S
N785 C783 1.316 . S
N785 C784 1.375 . S
N786 C783 1.347 . S
N786 C787 1.373 . S
C787 C784 1.350 . S
C787 N786 1.373 . S
C787 H808 0.931 . S
H788 C783 0.931 . S
H789 C784 0.930 . S
C790 O797 1.259 . S
C790 O798 1.258 . S
N791 Co782 2.057 . S
N791 C792 1.316 . S
N791 C793 1.375 . S
C792 N791 1.316 . S
C792 N794 1.347 . S
C792 H803 0.931 . S
C793 N791 1.375 . S
C793 C795 1.350 . S
C793 H802 0.930 . S
N794 C792 1.347 . S
N794 C795 1.373 . S
C795 C793 1.350 . S
C795 N794 1.373 . S
C795 H809 0.931 . S
C796 O799 1.256 . S
C796 O800 1.255 . S
O797 Co780 2.021 . S
O797 C790 1.259 . S
O798 Co782 2.117 . S
O798 C790 1.258 . S
O799 Co782 2.020 . S
O799 C796 1.256 . S
O800 Co780 2.062 . S
O800 C796 1.255 . S
O801 C781 1.259 . S
O801 Co782 2.021 . S
H802 C793 0.930 . S
H803 C792 0.931 . S
O804 Co780 2.117 . S
O804 C781 1.258 . S
O805 Co780 2.020 . S
O805 C807 1.256 . S
O806 Co782 2.062 . S
O806 C807 1.255 . S
C807 O805 1.256 . S
C807 O806 1.255 . S
H808 C787 0.931 . S
H809 C795 0.931 . S
Co810 N815 2.057 . S
Co810 O827 2.021 . S
Co810 O830 2.062 . S
Co810 O834 2.117 . S
Co810 O835 2.020 . S
C811 O831 1.259 . S
C811 O834 1.258 . S
Co812 N821 2.057 . S
Co812 O828 2.117 . S
Co812 O829 2.020 . S
Co812 O831 2.021 . S
Co812 O836 2.062 . S
C813 N815 1.316 1_565 S
C813 N816 1.347 . S
C813 H818 0.931 . S
C814 N815 1.375 1_565 S
C814 C817 1.350 . S
C814 H819 0.930 . S
N815 Co810 2.057 . S
N815 C813 1.316 1_545 S
N815 C814 1.375 1_545 S
N816 C813 1.347 . S
N816 C817 1.373 . S
C817 C814 1.350 . S
C817 N816 1.373 . S
C817 H838 0.931 . S
H818 C813 0.931 . S
H819 C814 0.930 . S
C820 O827 1.259 . S
C820 O828 1.258 . S
N821 Co812 2.057 . S
N821 C822 1.316 . S
N821 C823 1.375 . S
C822 N821 1.316 . S
C822 N824 1.347 . S
C822 H833 0.931 . S
C823 N821 1.375 . S
C823 C825 1.350 . S
C823 H832 0.930 . S
N824 C822 1.347 . S
N824 C825 1.373 . S
C825 C823 1.350 . S
C825 N824 1.373 . S
C825 H839 0.931 . S
C826 O829 1.256 . S
C826 O830 1.255 . S
O827 Co810 2.021 . S
O827 C820 1.259 . S
O828 Co812 2.117 . S
O828 C820 1.258 . S
O829 Co812 2.020 . S
O829 C826 1.256 . S
O830 Co810 2.062 . S
O830 C826 1.255 . S
O831 C811 1.259 . S
O831 Co812 2.021 . S
H832 C823 0.930 . S
H833 C822 0.931 . S
O834 Co810 2.117 . S
O834 C811 1.258 . S
O835 Co810 2.020 . S
O835 C837 1.256 . S
O836 Co812 2.062 . S
O836 C837 1.255 . S
C837 O835 1.256 . S
C837 O836 1.255 . S
H838 C817 0.931 . S
H839 C825 0.931 . S
Co840 N845 2.057 1_655 S
Co840 O857 2.021 . S
Co840 O860 2.062 . S
Co840 O864 2.117 . S
Co840 O865 2.020 . S
C841 O861 1.259 . S
C841 O864 1.258 . S
Co842 N851 2.057 . S
Co842 O858 2.117 . S
Co842 O859 2.020 . S
Co842 O861 2.021 . S
Co842 O866 2.062 . S
C843 N845 1.316 . S
C843 N846 1.347 . S
C843 H848 0.931 . S
C844 N845 1.375 . S
C844 C847 1.350 . S
C844 H849 0.930 . S
N845 Co840 2.057 1_455 S
N845 C843 1.316 . S
N845 C844 1.375 . S
N846 C843 1.347 . S
N846 C847 1.373 . S
C847 C844 1.350 . S
C847 N846 1.373 . S
C847 H868 0.931 . S
H848 C843 0.931 . S
H849 C844 0.930 . S
C850 O857 1.259 . S
C850 O858 1.258 . S
N851 Co842 2.057 . S
N851 C852 1.316 . S
N851 C853 1.375 . S
C852 N851 1.316 . S
C852 N854 1.347 . S
C852 H863 0.931 . S
C853 N851 1.375 . S
C853 C855 1.350 . S
C853 H862 0.930 . S
N854 C852 1.347 . S
N854 C855 1.373 . S
C855 C853 1.350 . S
C855 N854 1.373 . S
C855 H869 0.931 . S
C856 O859 1.256 . S
C856 O860 1.255 . S
O857 Co840 2.021 . S
O857 C850 1.259 . S
O858 Co842 2.117 . S
O858 C850 1.258 . S
O859 Co842 2.020 . S
O859 C856 1.256 . S
O860 Co840 2.062 . S
O860 C856 1.255 . S
O861 C841 1.259 . S
O861 Co842 2.021 . S
H862 C853 0.930 . S
H863 C852 0.931 . S
O864 Co840 2.117 . S
O864 C841 1.258 . S
O865 Co840 2.020 . S
O865 C867 1.256 . S
O866 Co842 2.062 . S
O866 C867 1.255 . S
C867 O865 1.256 . S
C867 O866 1.255 . S
H868 C847 0.931 . S
H869 C855 0.931 . S
Co870 N875 2.057 . S
Co870 O887 2.021 . S
Co870 O890 2.062 . S
Co870 O894 2.117 . S
Co870 O895 2.020 . S
C871 O891 1.259 . S
C871 O894 1.258 . S
Co872 N881 2.057 . S
Co872 O888 2.117 . S
Co872 O889 2.020 . S
Co872 O891 2.021 . S
Co872 O896 2.062 . S
C873 N875 1.316 . S
C873 N876 1.347 . S
C873 H878 0.931 . S
C874 N875 1.375 . S
C874 C877 1.350 . S
C874 H879 0.930 . S
N875 Co870 2.057 . S
N875 C873 1.316 . S
N875 C874 1.375 . S
N876 C873 1.347 . S
N876 C877 1.373 . S
C877 C874 1.350 . S
C877 N876 1.373 . S
C877 H898 0.931 . S
H878 C873 0.931 . S
H879 C874 0.930 . S
C880 O887 1.259 . S
C880 O888 1.258 . S
N881 Co872 2.057 . S
N881 C882 1.316 . S
N881 C883 1.375 . S
C882 N881 1.316 . S
C882 N884 1.347 . S
C882 H893 0.931 . S
C883 N881 1.375 . S
C883 C885 1.350 . S
C883 H892 0.930 . S
N884 C882 1.347 . S
N884 C885 1.373 . S
C885 C883 1.350 . S
C885 N884 1.373 . S
C885 H899 0.931 . S
C886 O889 1.256 . S
C886 O890 1.255 . S
O887 Co870 2.021 . S
O887 C880 1.259 . S
O888 Co872 2.117 . S
O888 C880 1.258 . S
O889 Co872 2.020 . S
O889 C886 1.256 . S
O890 Co870 2.062 . S
O890 C886 1.255 . S
O891 C871 1.259 . S
O891 Co872 2.021 . S
H892 C883 0.930 . S
H893 C882 0.931 . S
O894 Co870 2.117 . S
O894 C871 1.258 . S
O895 Co870 2.020 . S
O895 C897 1.256 . S
O896 Co872 2.062 . S
O896 C897 1.255 . S
C897 O895 1.256 . S
C897 O896 1.255 . S
H898 C877 0.931 . S
H899 C885 0.931 . S
Co900 N905 2.057 . S
Co900 O917 2.021 . S
Co900 O920 2.062 . S
Co900 O924 2.117 . S
Co900 O925 2.020 . S
C901 O921 1.259 . S
C901 O924 1.258 . S
Co902 N911 2.057 . S
Co902 O918 2.117 . S
Co902 O919 2.020 . S
Co902 O921 2.021 . S
Co902 O926 2.062 . S
C903 N905 1.316 . S
C903 N906 1.347 . S
C903 H908 0.931 . S
C904 N905 1.375 . S
C904 C907 1.350 . S
C904 H909 0.930 . S
N905 Co900 2.057 . S
N905 C903 1.316 . S
N905 C904 1.375 . S
N906 C903 1.347 . S
N906 C907 1.373 . S
C907 C904 1.350 . S
C907 N906 1.373 . S
C907 H928 0.931 . S
H908 C903 0.931 . S
H909 C904 0.930 . S
C910 O917 1.259 . S
C910 O918 1.258 . S
N911 Co902 2.057 . S
N911 C912 1.316 . S
N911 C913 1.375 . S
C912 N911 1.316 . S
C912 N914 1.347 . S
C912 H923 0.931 . S
C913 N911 1.375 . S
C913 C915 1.350 . S
C913 H922 0.930 . S
N914 C912 1.347 . S
N914 C915 1.373 . S
C915 C913 1.350 . S
C915 N914 1.373 . S
C915 H929 0.931 . S
C916 O919 1.256 . S
C916 O920 1.255 . S
O917 Co900 2.021 . S
O917 C910 1.259 . S
O918 Co902 2.117 . S
O918 C910 1.258 . S
O919 Co902 2.020 . S
O919 C916 1.256 . S
O920 Co900 2.062 . S
O920 C916 1.255 . S
O921 C901 1.259 . S
O921 Co902 2.021 . S
H922 C913 0.930 . S
H923 C912 0.931 . S
O924 Co900 2.117 . S
O924 C901 1.258 . S
O925 Co900 2.020 . S
O925 C927 1.256 . S
O926 Co902 2.062 . S
O926 C927 1.255 . S
C927 O925 1.256 . S
C927 O926 1.255 . S
H928 C907 0.931 . S
H929 C915 0.931 . S
Co930 N935 2.057 . S
Co930 O947 2.021 . S
Co930 O950 2.062 . S
Co930 O954 2.117 . S
Co930 O955 2.020 . S
C931 O951 1.259 . S
C931 O954 1.258 . S
Co932 N941 2.057 . S
Co932 O948 2.117 . S
Co932 O949 2.020 . S
Co932 O951 2.021 . S
Co932 O956 2.062 . S
C933 N935 1.316 . S
C933 N936 1.347 1_545 S
C933 H938 0.931 . S
C934 N935 1.375 . S
C934 C937 1.350 . S
C934 H939 0.930 . S
N935 Co930 2.057 . S
N935 C933 1.316 . S
N935 C934 1.375 . S
N936 C933 1.347 1_565 S
N936 C937 1.373 1_565 S
C937 C934 1.350 . S
C937 N936 1.373 1_545 S
C937 H958 0.931 1_545 S
H938 C933 0.931 . S
H939 C934 0.930 . S
C940 O947 1.259 . S
C940 O948 1.258 . S
N941 Co932 2.057 . S
N941 C942 1.316 . S
N941 C943 1.375 . S
C942 N941 1.316 . S
C942 N944 1.347 . S
C942 H953 0.931 . S
C943 N941 1.375 . S
C943 C945 1.350 . S
C943 H952 0.930 . S
N944 C942 1.347 . S
N944 C945 1.373 . S
C945 C943 1.350 . S
C945 N944 1.373 . S
C945 H959 0.931 . S
C946 O949 1.256 . S
C946 O950 1.255 . S
O947 Co930 2.021 . S
O947 C940 1.259 . S
O948 Co932 2.117 . S
O948 C940 1.258 . S
O949 Co932 2.020 . S
O949 C946 1.256 . S
O950 Co930 2.062 . S
O950 C946 1.255 . S
O951 C931 1.259 . S
O951 Co932 2.021 . S
H952 C943 0.930 . S
H953 C942 0.931 . S
O954 Co930 2.117 . S
O954 C931 1.258 . S
O955 Co930 2.020 . S
O955 C957 1.256 . S
O956 Co932 2.062 . S
O956 C957 1.255 . S
C957 O955 1.256 . S
C957 O956 1.255 . S
H958 C937 0.931 1_565 S
H959 C945 0.931 . S
Co960 N965 2.057 . S
Co960 O977 2.021 . S
Co960 O980 2.062 . S
Co960 O984 2.117 . S
Co960 O985 2.020 . S
C961 O981 1.259 . S
C961 O984 1.258 . S
Co962 N971 2.057 . S
Co962 O978 2.117 . S
Co962 O979 2.020 . S
Co962 O981 2.021 . S
Co962 O986 2.062 . S
C963 N965 1.316 1_455 S
C963 N966 1.347 . S
C963 H968 0.931 . S
C964 N965 1.375 . S
C964 C967 1.350 1_655 S
C964 H969 0.930 . S
N965 Co960 2.057 . S
N965 C963 1.316 1_655 S
N965 C964 1.375 . S
N966 C963 1.347 . S
N966 C967 1.373 . S
C967 C964 1.350 1_455 S
C967 N966 1.373 . S
C967 H988 0.931 . S
H968 C963 0.931 . S
H969 C964 0.930 . S
C970 O977 1.259 . S
C970 O978 1.258 . S
N971 Co962 2.057 . S
N971 C972 1.316 . S
N971 C973 1.375 . S
C972 N971 1.316 . S
C972 N974 1.347 . S
C972 H983 0.931 . S
C973 N971 1.375 . S
C973 C975 1.350 . S
C973 H982 0.930 . S
N974 C972 1.347 . S
N974 C975 1.373 . S
C975 C973 1.350 . S
C975 N974 1.373 . S
C975 H989 0.931 . S
C976 O979 1.256 . S
C976 O980 1.255 . S
O977 Co960 2.021 . S
O977 C970 1.259 . S
O978 Co962 2.117 . S
O978 C970 1.258 . S
O979 Co962 2.020 . S
O979 C976 1.256 . S
O980 Co960 2.062 . S
O980 C976 1.255 . S
O981 C961 1.259 . S
O981 Co962 2.021 . S
H982 C973 0.930 . S
H983 C972 0.931 . S
O984 Co960 2.117 . S
O984 C961 1.258 . S
O985 Co960 2.020 . S
O985 C987 1.256 . S
O986 Co962 2.062 . S
O986 C987 1.255 . S
C987 O985 1.256 . S
C987 O986 1.255 . S
H988 C967 0.931 . S
H989 C975 0.931 . S
Co990 N995 2.057 . S
Co990 O1007 2.021 . S
Co990 O1010 2.062 . S
Co990 O1014 2.117 . S
Co990 O1015 2.020 . S
C991 O1011 1.259 . S
C991 O1014 1.258 . S
Co992 N1001 2.057 . S
Co992 O1008 2.117 . S
Co992 O1009 2.020 . S
Co992 O1011 2.021 . S
Co992 O1016 2.062 . S
C993 N995 1.316 . S
C993 N996 1.347 1_545 S
C993 H998 0.931 . S
C994 N995 1.375 . S
C994 C997 1.350 1_545 S
C994 H999 0.930 . S
N995 Co990 2.057 . S
N995 C993 1.316 . S
N995 C994 1.375 . S
N996 C993 1.347 1_565 S
N996 C997 1.373 . S
C997 C994 1.350 1_565 S
C997 N996 1.373 . S
C997 H1018 0.931 . S
H998 C993 0.931 . S
H999 C994 0.930 . S
C1000 O1007 1.259 . S
C1000 O1008 1.258 . S
N1001 Co992 2.057 . S
N1001 C1002 1.316 . S
N1001 C1003 1.375 . S
C1002 N1001 1.316 . S
C1002 N1004 1.347 . S
C1002 H1013 0.931 . S
C1003 N1001 1.375 . S
C1003 C1005 1.350 . S
C1003 H1012 0.930 . S
N1004 C1002 1.347 . S
N1004 C1005 1.373 . S
C1005 C1003 1.350 . S
C1005 N1004 1.373 . S
C1005 H1019 0.931 . S
C1006 O1009 1.256 . S
C1006 O1010 1.255 . S
O1007 Co990 2.021 . S
O1007 C1000 1.259 . S
O1008 Co992 2.117 . S
O1008 C1000 1.258 . S
O1009 Co992 2.020 . S
O1009 C1006 1.256 . S
O1010 Co990 2.062 . S
O1010 C1006 1.255 . S
O1011 C991 1.259 . S
O1011 Co992 2.021 . S
H1012 C1003 0.930 . S
H1013 C1002 0.931 . S
O1014 Co990 2.117 . S
O1014 C991 1.258 . S
O1015 Co990 2.020 . S
O1015 C1017 1.256 . S
O1016 Co992 2.062 . S
O1016 C1017 1.255 . S
C1017 O1015 1.256 . S
C1017 O1016 1.255 . S
H1018 C997 0.931 . S
H1019 C1005 0.931 . S
Co1020 N1025 2.057 . S
Co1020 O1037 2.021 . S
Co1020 O1040 2.062 . S
Co1020 O1044 2.117 . S
Co1020 O1045 2.020 . S
C1021 O1041 1.259 . S
C1021 O1044 1.258 . S
Co1022 N1031 2.057 . S
Co1022 O1038 2.117 . S
Co1022 O1039 2.020 . S
Co1022 O1041 2.021 . S
Co1022 O1046 2.062 . S
C1023 N1025 1.316 1_455 S
C1023 N1026 1.347 . S
C1023 H1028 0.931 . S
C1024 N1025 1.375 1_455 S
C1024 C1027 1.350 . S
C1024 H1029 0.930 . S
N1025 Co1020 2.057 . S
N1025 C1023 1.316 1_655 S
N1025 C1024 1.375 1_655 S
N1026 C1023 1.347 . S
N1026 C1027 1.373 . S
C1027 C1024 1.350 . S
C1027 N1026 1.373 . S
C1027 H1048 0.931 . S
H1028 C1023 0.931 . S
H1029 C1024 0.930 . S
C1030 O1037 1.259 . S
C1030 O1038 1.258 . S
N1031 Co1022 2.057 . S
N1031 C1032 1.316 . S
N1031 C1033 1.375 . S
C1032 N1031 1.316 . S
C1032 N1034 1.347 . S
C1032 H1043 0.931 . S
C1033 N1031 1.375 . S
C1033 C1035 1.350 . S
C1033 H1042 0.930 . S
N1034 C1032 1.347 . S
N1034 C1035 1.373 . S
C1035 C1033 1.350 . S
C1035 N1034 1.373 . S
C1035 H1049 0.931 . S
C1036 O1039 1.256 . S
C1036 O1040 1.255 . S
O1037 Co1020 2.021 . S
O1037 C1030 1.259 . S
O1038 Co1022 2.117 . S
O1038 C1030 1.258 . S
O1039 Co1022 2.020 . S
O1039 C1036 1.256 . S
O1040 Co1020 2.062 . S
O1040 C1036 1.255 . S
O1041 C1021 1.259 . S
O1041 Co1022 2.021 . S
H1042 C1033 0.930 . S
H1043 C1032 0.931 . S
O1044 Co1020 2.117 . S
O1044 C1021 1.258 . S
O1045 Co1020 2.020 . S
O1045 C1047 1.256 . S
O1046 Co1022 2.062 . S
O1046 C1047 1.255 . S
C1047 O1045 1.256 . S
C1047 O1046 1.255 . S
H1048 C1027 0.931 . S
H1049 C1035 0.931 . S
Co1050 N1055 2.057 . S
Co1050 O1067 2.021 . S
Co1050 O1070 2.062 . S
Co1050 O1074 2.117 . S
Co1050 O1075 2.020 . S
C1051 O1071 1.259 . S
C1051 O1074 1.258 . S
Co1052 N1061 2.057 . S
Co1052 O1068 2.117 . S
Co1052 O1069 2.020 . S
Co1052 O1071 2.021 . S
Co1052 O1076 2.062 . S
C1053 N1055 1.316 . S
C1053 N1056 1.347 . S
C1053 H1058 0.931 . S
C1054 N1055 1.375 . S
C1054 C1057 1.350 . S
C1054 H1059 0.930 . S
N1055 Co1050 2.057 . S
N1055 C1053 1.316 . S
N1055 C1054 1.375 . S
N1056 C1053 1.347 . S
N1056 C1057 1.373 . S
C1057 C1054 1.350 . S
C1057 N1056 1.373 . S
C1057 H1078 0.931 . S
H1058 C1053 0.931 . S
H1059 C1054 0.930 . S
C1060 O1067 1.259 . S
C1060 O1068 1.258 . S
N1061 Co1052 2.057 . S
N1061 C1062 1.316 . S
N1061 C1063 1.375 . S
C1062 N1061 1.316 . S
C1062 N1064 1.347 . S
C1062 H1073 0.931 . S
C1063 N1061 1.375 . S
C1063 C1065 1.350 . S
C1063 H1072 0.930 . S
N1064 C1062 1.347 . S
N1064 C1065 1.373 . S
C1065 C1063 1.350 . S
C1065 N1064 1.373 . S
C1065 H1079 0.931 . S
C1066 O1069 1.256 . S
C1066 O1070 1.255 . S
O1067 Co1050 2.021 . S
O1067 C1060 1.259 . S
O1068 Co1052 2.117 . S
O1068 C1060 1.258 . S
O1069 Co1052 2.020 . S
O1069 C1066 1.256 . S
O1070 Co1050 2.062 . S
O1070 C1066 1.255 . S
O1071 C1051 1.259 . S
O1071 Co1052 2.021 . S
H1072 C1063 0.930 . S
H1073 C1062 0.931 . S
O1074 Co1050 2.117 . S
O1074 C1051 1.258 . S
O1075 Co1050 2.020 . S
O1075 C1077 1.256 . S
O1076 Co1052 2.062 . S
O1076 C1077 1.255 . S
C1077 O1075 1.256 . S
C1077 O1076 1.255 . S
H1078 C1057 0.931 . S
H1079 C1065 0.931 . S
C1080 C1081 1.387 . S
C1080 H1084 0.950 . S
C1080 C1089 1.390 . S
C1081 C1080 1.387 . S
C1081 C1083 1.387 . S
H1082 C1089 0.950 . S
C1083 C1081 1.387 . S
C1083 C1085 1.390 . S
C1083 H1087 0.950 . S
H1084 C1080 0.950 . S
C1085 C1083 1.390 . S
C1085 C1086 1.387 . S
C1085 H1088 0.950 . S
C1086 C1085 1.387 . S
C1086 C1089 1.387 . S
H1087 C1083 0.950 . S
H1088 C1085 0.950 . S
C1089 C1080 1.390 . S
C1089 H1082 0.950 . S
C1089 C1086 1.387 . S
C1090 C1091 1.387 . S
C1090 H1094 0.950 . S
C1090 C1099 1.390 . S
C1091 C1090 1.387 . S
C1091 C1093 1.387 . S
H1092 C1099 0.950 . S
C1093 C1091 1.387 . S
C1093 C1095 1.390 1_655 S
C1093 H1097 0.950 1_655 S
H1094 C1090 0.950 . S
C1095 C1093 1.390 1_455 S
C1095 C1096 1.387 1_455 S
C1095 H1098 0.950 . S
C1096 C1095 1.387 1_655 S
C1096 C1099 1.387 . S
H1097 C1093 0.950 1_455 S
H1098 C1095 0.950 . S
C1099 C1090 1.390 . S
C1099 H1092 0.950 . S
C1099 C1096 1.387 . S
C1100 C1101 1.387 . S
C1100 H1104 0.950 . S
C1100 C1109 1.390 . S
C1101 C1100 1.387 . S
C1101 C1103 1.387 . S
H1102 C1109 0.950 . S
C1103 C1101 1.387 . S
C1103 C1105 1.390 . S
C1103 H1107 0.950 . S
H1104 C1100 0.950 . S
C1105 C1103 1.390 . S
C1105 C1106 1.387 . S
C1105 H1108 0.950 . S
C1106 C1105 1.387 . S
C1106 C1109 1.387 . S
H1107 C1103 0.950 . S
H1108 C1105 0.950 . S
C1109 C1100 1.390 . S
C1109 H1102 0.950 . S
C1109 C1106 1.387 . S
C1110 C1111 1.387 . S
C1110 H1114 0.950 . S
C1110 C1119 1.390 . S
C1111 C1110 1.387 . S
C1111 C1113 1.387 . S
H1112 C1119 0.950 . S
C1113 C1111 1.387 . S
C1113 C1115 1.390 . S
C1113 H1117 0.950 . S
H1114 C1110 0.950 . S
C1115 C1113 1.390 . S
C1115 C1116 1.387 . S
C1115 H1118 0.950 . S
C1116 C1115 1.387 . S
C1116 C1119 1.387 . S
H1117 C1113 0.950 . S
H1118 C1115 0.950 . S
C1119 C1110 1.390 . S
C1119 H1112 0.950 . S
C1119 C1116 1.387 . S
C1120 C1121 1.387 . S
C1120 H1124 0.950 . S
C1120 C1129 1.390 . S
C1121 C1120 1.387 . S
C1121 C1123 1.387 . S
H1122 C1129 0.950 . S
C1123 C1121 1.387 . S
C1123 C1125 1.390 . S
C1123 H1127 0.950 . S
H1124 C1120 0.950 . S
C1125 C1123 1.390 . S
C1125 C1126 1.387 . S
C1125 H1128 0.950 . S
C1126 C1125 1.387 . S
C1126 C1129 1.387 . S
H1127 C1123 0.950 . S
H1128 C1125 0.950 . S
C1129 C1120 1.390 . S
C1129 H1122 0.950 . S
C1129 C1126 1.387 . S
C1130 C1131 1.387 . S
C1130 H1134 0.950 . S
C1130 C1139 1.390 . S
C1131 C1130 1.387 . S
C1131 C1133 1.387 . S
H1132 C1139 0.950 . S
C1133 C1131 1.387 . S
C1133 C1135 1.390 1_565 S
C1133 H1137 0.950 . S
H1134 C1130 0.950 . S
C1135 C1133 1.390 1_545 S
C1135 C1136 1.387 1_545 S
C1135 H1138 0.950 . S
C1136 C1135 1.387 1_565 S
C1136 C1139 1.387 . S
H1137 C1133 0.950 . S
H1138 C1135 0.950 . S
C1139 C1130 1.390 . S
C1139 H1132 0.950 . S
C1139 C1136 1.387 . S
C1140 C1141 1.387 1_545 S
C1140 H1144 0.950 . S
C1140 C1149 1.390 1_545 S
C1141 C1140 1.387 1_565 S
C1141 C1143 1.387 . S
H1142 C1149 0.950 1_545 S
C1143 C1141 1.387 . S
C1143 C1145 1.390 . S
C1143 H1147 0.950 . S
H1144 C1140 0.950 . S
C1145 C1143 1.390 . S
C1145 C1146 1.387 . S
C1145 H1148 0.950 . S
C1146 C1145 1.387 . S
C1146 C1149 1.387 . S
H1147 C1143 0.950 . S
H1148 C1145 0.950 . S
C1149 C1140 1.390 1_565 S
C1149 H1142 0.950 1_565 S
C1149 C1146 1.387 . S
C1150 C1151 1.387 . S
C1150 H1154 0.950 . S
C1150 C1159 1.390 . S
C1151 C1150 1.387 . S
C1151 C1153 1.387 . S
H1152 C1159 0.950 . S
C1153 C1151 1.387 . S
C1153 C1155 1.390 . S
C1153 H1157 0.950 . S
H1154 C1150 0.950 . S
C1155 C1153 1.390 . S
C1155 C1156 1.387 . S
C1155 H1158 0.960 . S
C1156 C1155 1.387 . S
C1156 C1159 1.387 . S
H1157 C1153 0.950 . S
H1158 C1155 0.960 . S
C1159 C1150 1.390 . S
C1159 H1152 0.950 . S
C1159 C1156 1.387 . S
C1160 C1161 1.387 . S
C1160 H1164 0.950 . S
C1160 C1169 1.390 . S
C1161 C1160 1.387 . S
C1161 C1163 1.387 . S
H1162 C1169 0.950 . S
C1163 C1161 1.387 . S
C1163 C1165 1.390 . S
C1163 H1167 0.950 . S
H1164 C1160 0.950 . S
C1165 C1163 1.390 . S
C1165 C1166 1.387 . S
C1165 H1168 0.950 . S
C1166 C1165 1.387 . S
C1166 C1169 1.387 . S
H1167 C1163 0.950 . S
H1168 C1165 0.950 . S
C1169 C1160 1.390 . S
C1169 H1162 0.950 . S
C1169 C1166 1.387 . S
C1170 C1171 1.387 . S
C1170 H1174 0.950 1_655 S
C1170 C1179 1.390 1_655 S
C1171 C1170 1.387 . S
C1171 C1173 1.387 . S
H1172 C1179 0.950 . S
C1173 C1171 1.387 . S
C1173 C1175 1.390 . S
C1173 H1177 0.950 . S
H1174 C1170 0.950 1_455 S
C1175 C1173 1.390 . S
C1175 C1176 1.387 . S
C1175 H1178 0.950 . S
C1176 C1175 1.387 . S
C1176 C1179 1.387 1_655 S
H1177 C1173 0.950 . S
H1178 C1175 0.950 . S
C1179 C1170 1.390 1_455 S
C1179 H1172 0.950 . S
C1179 C1176 1.387 1_455 S
C1180 C1181 1.387 . S
C1180 H1184 0.950 . S
C1180 C1189 1.390 . S
C1181 C1180 1.387 . S
C1181 C1183 1.387 . S
H1182 C1189 0.950 . S
C1183 C1181 1.387 . S
C1183 C1185 1.390 . S
C1183 H1187 0.950 . S
H1184 C1180 0.950 . S
C1185 C1183 1.390 . S
C1185 C1186 1.387 . S
C1185 H1188 0.950 . S
C1186 C1185 1.387 . S
C1186 C1189 1.387 . S
H1187 C1183 0.950 . S
H1188 C1185 0.950 . S
C1189 C1180 1.390 . S
C1189 H1182 0.950 . S
C1189 C1186 1.387 . S
C1190 C1191 1.387 . S
C1190 H1194 0.950 . S
C1190 C1199 1.390 . S
C1191 C1190 1.387 . S
C1191 C1193 1.387 . S
H1192 C1199 0.950 . S
C1193 C1191 1.387 . S
C1193 C1195 1.390 . S
C1193 H1197 0.950 . S
H1194 C1190 0.950 . S
C1195 C1193 1.390 . S
C1195 C1196 1.387 . S
C1195 H1198 0.950 1_545 S
C1196 C1195 1.387 . S
C1196 C1199 1.387 . S
H1197 C1193 0.950 . S
H1198 C1195 0.950 1_565 S
C1199 C1190 1.390 . S
C1199 H1192 0.950 . S
C1199 C1196 1.387 . S
C1200 C1201 1.387 . S
C1200 H1204 0.950 . S
C1200 C1209 1.390 . S
C1201 C1200 1.387 . S
C1201 C1203 1.387 . S
H1202 C1209 0.950 . S
C1203 C1201 1.387 . S
C1203 C1205 1.390 . S
C1203 H1207 0.950 . S
H1204 C1200 0.950 . S
C1205 C1203 1.390 . S
C1205 C1206 1.387 . S
C1205 H1208 0.950 . S
C1206 C1205 1.387 . S
C1206 C1209 1.387 . S
H1207 C1203 0.950 . S
H1208 C1205 0.950 . S
C1209 C1200 1.390 . S
C1209 H1202 0.950 . S
C1209 C1206 1.387 . S
C1210 C1211 1.387 . S
C1210 H1214 0.950 . S
C1210 C1219 1.390 1_565 S
C1211 C1210 1.387 . S
C1211 C1213 1.387 . S
H1212 C1219 0.950 . S
C1213 C1211 1.387 . S
C1213 C1215 1.390 1_565 S
C1213 H1217 0.950 . S
H1214 C1210 0.950 . S
C1215 C1213 1.390 1_545 S
C1215 C1216 1.387 . S
C1215 H1218 0.950 . S
C1216 C1215 1.387 . S
C1216 C1219 1.387 . S
H1217 C1213 0.950 . S
H1218 C1215 0.950 . S
C1219 C1210 1.390 1_545 S
C1219 H1212 0.950 . S
C1219 C1216 1.387 . S
C1220 C1221 1.388 1_455 S
C1220 H1224 0.947 1_455 S
C1220 C1229 1.393 . S
C1221 C1220 1.388 1_655 S
C1221 C1223 1.387 . S
H1222 C1229 0.950 . S
C1223 C1221 1.387 . S
C1223 C1225 1.390 1_655 S
C1223 H1227 0.950 . S
H1224 C1220 0.947 1_655 S
C1225 C1223 1.390 1_455 S
C1225 C1226 1.387 . S
C1225 H1228 0.950 . S
C1226 C1225 1.387 . S
C1226 C1229 1.387 . S
H1227 C1223 0.950 . S
H1228 C1225 0.950 . S
C1229 C1220 1.393 . S
C1229 H1222 0.950 . S
C1229 C1226 1.387 . S
C1230 C1231 1.387 . S
C1230 H1234 0.950 . S
C1230 C1239 1.390 . S
C1231 C1230 1.387 . S
C1231 C1233 1.387 . S
H1232 C1239 0.950 . S
C1233 C1231 1.387 . S
C1233 C1235 1.390 . S
C1233 H1237 0.950 . S
H1234 C1230 0.950 . S
C1235 C1233 1.390 . S
C1235 C1236 1.387 . S
C1235 H1238 0.950 . S
C1236 C1235 1.387 . S
C1236 C1239 1.387 . S
H1237 C1233 0.950 . S
H1238 C1235 0.950 . S
C1239 C1230 1.390 . S
C1239 H1232 0.950 . S
C1239 C1236 1.387 . S
C1240 C1241 1.387 . S
C1240 H1244 0.950 . S
C1240 C1249 1.390 1_565 S
C1241 C1240 1.387 . S
C1241 C1243 1.404 . S
H1242 C1249 0.950 . S
C1243 C1241 1.404 . S
C1243 C1245 1.375 1_565 S
C1243 H1247 0.948 . S
H1244 C1240 0.950 . S
C1245 C1243 1.375 1_545 S
C1245 C1246 1.387 . S
C1245 H1248 0.950 . S
C1246 C1245 1.387 . S
C1246 C1249 1.387 . S
H1247 C1243 0.948 . S
H1248 C1245 0.950 . S
C1249 C1240 1.390 1_545 S
C1249 H1242 0.950 . S
C1249 C1246 1.387 . S
C1250 C1251 1.387 1_455 S
C1250 H1254 0.950 . S
C1250 C1259 1.390 . S
C1251 C1250 1.387 1_655 S
C1251 C1253 1.387 . S
H1252 C1259 0.950 . S
C1253 C1251 1.387 . S
C1253 C1255 1.390 1_655 S
C1253 H1257 0.950 . S
H1254 C1250 0.950 . S
C1255 C1253 1.390 1_455 S
C1255 C1256 1.387 . S
C1255 H1258 0.950 . S
C1256 C1255 1.387 . S
C1256 C1259 1.387 . S
H1257 C1253 0.950 . S
H1258 C1255 0.950 . S
C1259 C1250 1.390 . S
C1259 H1252 0.950 . S
C1259 C1256 1.387 . S
C1260 C1261 1.387 . S
C1260 H1264 0.950 . S
C1260 C1269 1.390 1_554 S
C1261 C1260 1.387 . S
C1261 C1263 1.387 1_545 S
H1262 C1269 0.950 . S
C1263 C1261 1.387 1_565 S
C1263 C1265 1.390 1_554 S
C1263 H1267 0.950 . S
H1264 C1260 0.950 . S
C1265 C1263 1.390 1_556 S
C1265 C1266 1.387 1_565 S
C1265 H1268 0.950 . S
C1266 C1265 1.387 1_545 S
C1266 C1269 1.387 . S
H1267 C1263 0.950 . S
H1268 C1265 0.950 . S
C1269 C1260 1.390 1_556 S
C1269 H1262 0.950 . S
C1269 C1266 1.387 . S
C1270 C1271 1.387 1_655 S
C1270 H1274 0.950 . S
C1270 C1279 1.390 1_656 S
C1271 C1270 1.387 1_455 S
C1271 C1273 1.387 . S
H1272 C1279 0.950 1_655 S
C1273 C1271 1.387 . S
C1273 C1275 1.390 1_556 S
C1273 H1277 0.950 . S
H1274 C1270 0.950 . S
C1275 C1273 1.390 1_554 S
C1275 C1276 1.387 . S
C1275 H1278 0.950 . S
C1276 C1275 1.387 . S
C1276 C1279 1.387 . S
H1277 C1273 0.950 . S
H1278 C1275 0.950 . S
C1279 C1270 1.390 1_454 S
C1279 H1272 0.950 1_455 S
C1279 C1276 1.387 . S
C1280 C1281 1.387 . S
C1280 H1284 0.950 . S
C1280 C1289 1.390 1_554 S
C1281 C1280 1.387 . S
C1281 C1283 1.387 . S
H1282 C1289 0.950 . S
C1283 C1281 1.387 . S
C1283 C1285 1.390 1_554 S
C1283 H1287 0.950 . S
H1284 C1280 0.950 . S
C1285 C1283 1.390 1_556 S
C1285 C1286 1.387 . S
C1285 H1288 0.950 . S
C1286 C1285 1.387 . S
C1286 C1289 1.387 . S
H1287 C1283 0.950 . S
H1288 C1285 0.950 . S
C1289 C1280 1.390 1_556 S
C1289 H1282 0.950 . S
C1289 C1286 1.387 . S
C1290 C1291 1.387 1_655 S
C1290 H1294 0.950 . S
C1290 C1299 1.390 . S
C1291 C1290 1.387 1_455 S
C1291 C1293 1.387 . S
H1292 C1299 0.950 . S
C1293 C1291 1.387 . S
C1293 C1295 1.390 . S
C1293 H1297 0.950 . S
H1294 C1290 0.950 . S
C1295 C1293 1.390 . S
C1295 C1296 1.387 . S
C1295 H1298 0.950 . S
C1296 C1295 1.387 . S
C1296 C1299 1.387 1_455 S
H1297 C1293 0.950 . S
H1298 C1295 0.950 . S
C1299 C1290 1.390 . S
C1299 H1292 0.950 . S
C1299 C1296 1.387 1_655 S
C1300 C1301 1.387 . S
C1300 H1304 0.950 . S
C1300 C1309 1.390 . S
C1301 C1300 1.387 . S
C1301 C1303 1.387 . S
H1302 C1309 0.950 . S
C1303 C1301 1.387 . S
C1303 C1305 1.390 . S
C1303 H1307 0.950 . S
H1304 C1300 0.950 . S
C1305 C1303 1.390 . S
C1305 C1306 1.387 . S
C1305 H1308 0.950 . S
C1306 C1305 1.387 . S
C1306 C1309 1.387 . S
H1307 C1303 0.950 . S
H1308 C1305 0.950 . S
C1309 C1300 1.390 . S
C1309 H1302 0.950 . S
C1309 C1306 1.387 . S
C1310 C1311 1.387 . S
C1310 H1314 0.950 . S
C1310 C1319 1.390 . S
C1311 C1310 1.387 . S
C1311 C1313 1.387 1_545 S
H1312 C1319 0.950 . S
C1313 C1311 1.387 1_565 S
C1313 C1315 1.390 . S
C1313 H1317 0.950 . S
H1314 C1310 0.950 . S
C1315 C1313 1.390 . S
C1315 C1316 1.387 1_565 S
C1315 H1318 0.950 . S
C1316 C1315 1.387 1_545 S
C1316 C1319 1.387 . S
H1317 C1313 0.950 . S
H1318 C1315 0.950 . S
C1319 C1310 1.390 . S
C1319 H1312 0.950 . S
C1319 C1316 1.387 . S
C1320 C1321 1.387 . S
C1320 H1324 0.950 . S
C1320 C1329 1.390 . S
C1321 C1320 1.387 . S
C1321 C1323 1.387 . S
H1322 C1329 0.950 . S
C1323 C1321 1.387 . S
C1323 C1325 1.390 . S
C1323 H1327 0.950 . S
H1324 C1320 0.950 . S
C1325 C1323 1.390 . S
C1325 C1326 1.387 . S
C1325 H1328 0.950 . S
C1326 C1325 1.387 . S
C1326 C1329 1.387 . S
H1327 C1323 0.950 . S
H1328 C1325 0.950 . S
C1329 C1320 1.390 . S
C1329 H1322 0.950 . S
C1329 C1326 1.387 . S
C1330 C1331 1.387 . S
C1330 H1334 0.950 . S
C1330 C1339 1.390 . S
C1331 C1330 1.387 . S
C1331 C1333 1.387 . S
H1332 C1339 0.950 . S
C1333 C1331 1.387 . S
C1333 C1335 1.390 . S
C1333 H1337 0.950 . S
H1334 C1330 0.950 . S
C1335 C1333 1.390 . S
C1335 C1336 1.387 . S
C1335 H1338 0.950 . S
C1336 C1335 1.387 . S
C1336 C1339 1.387 . S
H1337 C1333 0.950 . S
H1338 C1335 0.950 . S
C1339 C1330 1.390 . S
C1339 H1332 0.950 . S
C1339 C1336 1.387 . S
C1340 C1341 1.387 . S
C1340 H1344 0.950 . S
C1340 C1349 1.390 . S
C1341 C1340 1.387 . S
C1341 C1343 1.387 . S
H1342 C1349 0.950 . S
C1343 C1341 1.387 . S
C1343 C1345 1.390 . S
C1343 H1347 0.950 . S
H1344 C1340 0.950 . S
C1345 C1343 1.390 . S
C1345 C1346 1.387 . S
C1345 H1348 0.950 . S
C1346 C1345 1.387 . S
C1346 C1349 1.387 . S
H1347 C1343 0.950 . S
H1348 C1345 0.950 . S
C1349 C1340 1.390 . S
C1349 H1342 0.950 . S
C1349 C1346 1.387 . S
C1350 C1351 1.387 . S
C1350 H1354 0.950 . S
C1350 C1359 1.390 . S
C1351 C1350 1.387 . S
C1351 C1353 1.387 . S
H1352 C1359 0.950 . S
C1353 C1351 1.387 . S
C1353 C1355 1.390 . S
C1353 H1357 0.950 . S
H1354 C1350 0.950 . S
C1355 C1353 1.390 . S
C1355 C1356 1.387 . S
C1355 H1358 0.950 . S
C1356 C1355 1.387 . S
C1356 C1359 1.387 . S
H1357 C1353 0.950 . S
H1358 C1355 0.950 . S
C1359 C1350 1.390 . S
C1359 H1352 0.950 . S
C1359 C1356 1.387 . S
C1360 C1361 1.387 . S
C1360 H1364 0.950 . S
C1360 C1369 1.390 . S
C1361 C1360 1.387 . S
C1361 C1363 1.387 . S
H1362 C1369 0.950 . S
C1363 C1361 1.387 . S
C1363 C1365 1.390 . S
C1363 H1367 0.950 . S
H1364 C1360 0.950 . S
C1365 C1363 1.390 . S
C1365 C1366 1.387 . S
C1365 H1368 0.950 . S
C1366 C1365 1.387 . S
C1366 C1369 1.387 . S
H1367 C1363 0.950 . S
H1368 C1365 0.950 . S
C1369 C1360 1.390 . S
C1369 H1362 0.950 . S
C1369 C1366 1.387 . S
C1370 C1371 1.387 . S
C1370 H1374 0.950 . S
C1370 C1379 1.390 . S
C1371 C1370 1.387 . S
C1371 C1373 1.387 . S
H1372 C1379 0.950 . S
C1373 C1371 1.387 . S
C1373 C1375 1.390 . S
C1373 H1377 0.950 . S
H1374 C1370 0.950 . S
C1375 C1373 1.390 . S
C1375 C1376 1.387 . S
C1375 H1378 0.950 . S
C1376 C1375 1.387 . S
C1376 C1379 1.387 . S
H1377 C1373 0.950 . S
H1378 C1375 0.950 . S
C1379 C1370 1.390 . S
C1379 H1372 0.950 . S
C1379 C1376 1.387 . S
C1380 C1381 1.387 . S
C1380 H1384 0.950 . S
C1380 C1389 1.390 . S
C1381 C1380 1.387 . S
C1381 C1383 1.387 . S
H1382 C1389 0.950 . S
C1383 C1381 1.387 . S
C1383 C1385 1.390 . S
C1383 H1387 0.950 . S
H1384 C1380 0.950 . S
C1385 C1383 1.390 . S
C1385 C1386 1.387 . S
C1385 H1388 0.950 . S
C1386 C1385 1.387 . S
C1386 C1389 1.387 . S
H1387 C1383 0.950 . S
H1388 C1385 0.950 . S
C1389 C1380 1.390 . S
C1389 H1382 0.950 . S
C1389 C1386 1.387 . S
C1390 C1391 1.387 . S
C1390 H1394 0.950 . S
C1390 C1399 1.390 . S
C1391 C1390 1.387 . S
C1391 C1393 1.387 . S
H1392 C1399 0.950 . S
C1393 C1391 1.387 . S
C1393 C1395 1.390 . S
C1393 H1397 0.950 . S
H1394 C1390 0.950 . S
C1395 C1393 1.390 . S
C1395 C1396 1.387 . S
C1395 H1398 0.950 . S
C1396 C1395 1.387 . S
C1396 C1399 1.387 . S
H1397 C1393 0.950 . S
H1398 C1395 0.950 . S
C1399 C1390 1.390 . S
C1399 H1392 0.950 . S
C1399 C1396 1.387 . S
C1400 C1401 1.387 . S
C1400 H1404 0.950 . S
C1400 C1409 1.390 . S
C1401 C1400 1.387 . S
C1401 C1403 1.387 . S
H1402 C1409 0.950 . S
C1403 C1401 1.387 . S
C1403 C1405 1.390 . S
C1403 H1407 0.950 . S
H1404 C1400 0.950 . S
C1405 C1403 1.390 . S
C1405 C1406 1.387 . S
C1405 H1408 0.950 . S
C1406 C1405 1.387 . S
C1406 C1409 1.387 . S
H1407 C1403 0.950 . S
H1408 C1405 0.950 . S
C1409 C1400 1.390 . S
C1409 H1402 0.950 . S
C1409 C1406 1.387 . S
C1410 C1411 1.387 . S
C1410 H1414 0.950 . S
C1410 C1419 1.390 . S
C1411 C1410 1.387 . S
C1411 C1413 1.387 . S
H1412 C1419 0.950 . S
C1413 C1411 1.387 . S
C1413 C1415 1.390 . S
C1413 H1417 0.950 . S
H1414 C1410 0.950 . S
C1415 C1413 1.390 . S
C1415 C1416 1.387 . S
C1415 H1418 0.950 . S
C1416 C1415 1.387 . S
C1416 C1419 1.387 . S
H1417 C1413 0.950 . S
H1418 C1415 0.950 . S
C1419 C1410 1.390 . S
C1419 H1412 0.950 . S
C1419 C1416 1.387 . S
C1420 C1421 1.387 . S
C1420 H1424 0.950 . S
C1420 C1429 1.390 . S
C1421 C1420 1.387 . S
C1421 C1423 1.387 . S
H1422 C1429 0.950 . S
C1423 C1421 1.387 . S
C1423 C1425 1.390 . S
C1423 H1427 0.950 . S
H1424 C1420 0.950 . S
C1425 C1423 1.390 . S
C1425 C1426 1.387 . S
C1425 H1428 0.950 . S
C1426 C1425 1.387 . S
C1426 C1429 1.387 . S
H1427 C1423 0.950 . S
H1428 C1425 0.950 . S
C1429 C1420 1.390 . S
C1429 H1422 0.950 . S
C1429 C1426 1.387 . S
C1430 C1431 1.387 . S
C1430 H1434 0.950 . S
C1430 C1439 1.390 . S
C1431 C1430 1.387 . S
C1431 C1433 1.387 . S
H1432 C1439 0.950 . S
C1433 C1431 1.387 . S
C1433 C1435 1.390 . S
C1433 H1437 0.950 . S
H1434 C1430 0.950 . S
C1435 C1433 1.390 . S
C1435 C1436 1.387 . S
C1435 H1438 0.950 . S
C1436 C1435 1.387 . S
C1436 C1439 1.387 . S
H1437 C1433 0.950 . S
H1438 C1435 0.950 . S
C1439 C1430 1.390 . S
C1439 H1432 0.950 . S
C1439 C1436 1.387 . S
C1440 C1441 1.387 . S
C1440 H1444 0.950 . S
C1440 C1449 1.390 . S
C1441 C1440 1.387 . S
C1441 C1443 1.387 . S
H1442 C1449 0.950 . S
C1443 C1441 1.387 . S
C1443 C1445 1.390 . S
C1443 H1447 0.950 . S
H1444 C1440 0.950 . S
C1445 C1443 1.390 . S
C1445 C1446 1.387 . S
C1445 H1448 0.950 . S
C1446 C1445 1.387 . S
C1446 C1449 1.387 . S
H1447 C1443 0.950 . S
H1448 C1445 0.950 . S
C1449 C1440 1.390 . S
C1449 H1442 0.950 . S
C1449 C1446 1.387 . S
C1450 C1451 1.387 . S
C1450 H1454 0.950 . S
C1450 C1459 1.390 . S
C1451 C1450 1.387 . S
C1451 C1453 1.387 . S
H1452 C1459 0.950 . S
C1453 C1451 1.387 . S
C1453 C1455 1.390 . S
C1453 H1457 0.950 . S
H1454 C1450 0.950 . S
C1455 C1453 1.390 . S
C1455 C1456 1.387 . S
C1455 H1458 0.950 . S
C1456 C1455 1.387 . S
C1456 C1459 1.387 . S
H1457 C1453 0.950 . S
H1458 C1455 0.950 . S
C1459 C1450 1.390 . S
C1459 H1452 0.950 . S
C1459 C1456 1.387 . S
C1460 C1461 1.387 . S
C1460 H1464 0.950 . S
C1460 C1469 1.390 . S
C1461 C1460 1.387 . S
C1461 C1463 1.387 . S
H1462 C1469 0.950 . S
C1463 C1461 1.387 . S
C1463 C1465 1.390 . S
C1463 H1467 0.950 . S
H1464 C1460 0.950 . S
C1465 C1463 1.390 . S
C1465 C1466 1.387 . S
C1465 H1468 0.950 . S
C1466 C1465 1.387 . S
C1466 C1469 1.387 . S
H1467 C1463 0.950 . S
H1468 C1465 0.950 . S
C1469 C1460 1.390 . S
C1469 H1462 0.950 . S
C1469 C1466 1.387 . S
C1470 C1471 1.387 . S
C1470 H1474 0.950 . S
C1470 C1479 1.390 . S
C1471 C1470 1.387 . S
C1471 C1473 1.387 . S
H1472 C1479 0.950 . S
C1473 C1471 1.387 . S
C1473 C1475 1.390 . S
C1473 H1477 0.950 . S
H1474 C1470 0.950 . S
C1475 C1473 1.390 . S
C1475 C1476 1.387 . S
C1475 H1478 0.950 . S
C1476 C1475 1.387 . S
C1476 C1479 1.387 . S
H1477 C1473 0.950 . S
H1478 C1475 0.950 . S
C1479 C1470 1.390 . S
C1479 H1472 0.950 . S
C1479 C1476 1.387 . S
C1480 C1481 1.387 . S
C1480 H1484 0.950 . S
C1480 C1489 1.390 . S
C1481 C1480 1.387 . S
C1481 C1483 1.387 . S
H1482 C1489 0.950 . S
C1483 C1481 1.387 . S
C1483 C1485 1.390 . S
C1483 H1487 0.950 . S
H1484 C1480 0.950 . S
C1485 C1483 1.390 . S
C1485 C1486 1.387 . S
C1485 H1488 0.950 . S
C1486 C1485 1.387 . S
C1486 C1489 1.387 . S
H1487 C1483 0.950 . S
H1488 C1485 0.950 . S
C1489 C1480 1.390 . S
C1489 H1482 0.950 . S
C1489 C1486 1.387 . S
C1490 C1491 1.387 . S
C1490 H1494 0.950 . S
C1490 C1499 1.390 . S
C1491 C1490 1.387 . S
C1491 C1493 1.387 . S
H1492 C1499 0.950 . S
C1493 C1491 1.387 . S
C1493 C1495 1.390 . S
C1493 H1497 0.950 . S
H1494 C1490 0.950 . S
C1495 C1493 1.390 . S
C1495 C1496 1.387 . S
C1495 H1498 0.950 . S
C1496 C1495 1.387 . S
C1496 C1499 1.387 . S
H1497 C1493 0.950 . S
H1498 C1495 0.950 . S
C1499 C1490 1.390 . S
C1499 H1492 0.950 . S
C1499 C1496 1.387 . S
C1500 C1501 1.387 . S
C1500 H1504 0.950 . S
C1500 C1509 1.390 . S
C1501 C1500 1.387 . S
C1501 C1503 1.387 . S
H1502 C1509 0.950 . S
C1503 C1501 1.387 . S
C1503 C1505 1.390 . S
C1503 H1507 0.950 . S
H1504 C1500 0.950 . S
C1505 C1503 1.390 . S
C1505 C1506 1.387 . S
C1505 H1508 0.950 . S
C1506 C1505 1.387 . S
C1506 C1509 1.387 . S
H1507 C1503 0.950 . S
H1508 C1505 0.950 . S
C1509 C1500 1.390 . S
C1509 H1502 0.950 . S
C1509 C1506 1.387 . S
C1510 C1511 1.387 . S
C1510 H1514 0.950 . S
C1510 C1519 1.390 . S
C1511 C1510 1.387 . S
C1511 C1513 1.387 . S
H1512 C1519 0.950 . S
C1513 C1511 1.387 . S
C1513 C1515 1.390 . S
C1513 H1517 0.950 . S
H1514 C1510 0.950 . S
C1515 C1513 1.390 . S
C1515 C1516 1.387 . S
C1515 H1518 0.950 . S
C1516 C1515 1.387 . S
C1516 C1519 1.387 . S
H1517 C1513 0.950 . S
H1518 C1515 0.950 . S
C1519 C1510 1.390 . S
C1519 H1512 0.950 . S
C1519 C1516 1.387 . S
C1520 C1521 1.387 . S
C1520 H1524 0.950 . S
C1520 C1529 1.390 . S
C1521 C1520 1.387 . S
C1521 C1523 1.387 . S
H1522 C1529 0.950 . S
C1523 C1521 1.387 . S
C1523 C1525 1.390 . S
C1523 H1527 0.950 . S
H1524 C1520 0.950 . S
C1525 C1523 1.390 . S
C1525 C1526 1.387 . S
C1525 H1528 0.950 . S
C1526 C1525 1.387 . S
C1526 C1529 1.387 . S
H1527 C1523 0.950 . S
H1528 C1525 0.950 . S
C1529 C1520 1.390 . S
C1529 H1522 0.950 . S
C1529 C1526 1.387 . S
C1530 C1531 1.387 . S
C1530 H1534 0.950 . S
C1530 C1539 1.390 . S
C1531 C1530 1.387 . S
C1531 C1533 1.387 . S
H1532 C1539 0.950 . S
C1533 C1531 1.387 . S
C1533 C1535 1.390 . S
C1533 H1537 0.950 . S
H1534 C1530 0.950 . S
C1535 C1533 1.390 . S
C1535 C1536 1.387 . S
C1535 H1538 0.950 . S
C1536 C1535 1.387 . S
C1536 C1539 1.387 . S
H1537 C1533 0.950 . S
H1538 C1535 0.950 . S
C1539 C1530 1.390 . S
C1539 H1532 0.950 . S
C1539 C1536 1.387 . S
C1540 C1541 1.387 . S
C1540 H1544 0.950 . S
C1540 C1549 1.390 . S
C1541 C1540 1.387 . S
C1541 C1543 1.387 . S
H1542 C1549 0.950 . S
C1543 C1541 1.387 . S
C1543 C1545 1.390 . S
C1543 H1547 0.950 . S
H1544 C1540 0.950 . S
C1545 C1543 1.390 . S
C1545 C1546 1.387 . S
C1545 H1548 0.950 . S
C1546 C1545 1.387 . S
C1546 C1549 1.387 . S
H1547 C1543 0.950 . S
H1548 C1545 0.950 . S
C1549 C1540 1.390 . S
C1549 H1542 0.950 . S
C1549 C1546 1.387 . S
C1550 C1551 1.387 . S
C1550 H1554 0.950 . S
C1550 C1559 1.390 . S
C1551 C1550 1.387 . S
C1551 C1553 1.387 . S
H1552 C1559 0.950 . S
C1553 C1551 1.387 . S
C1553 C1555 1.390 . S
C1553 H1557 0.950 . S
H1554 C1550 0.950 . S
C1555 C1553 1.390 . S
C1555 C1556 1.387 . S
C1555 H1558 0.950 . S
C1556 C1555 1.387 . S
C1556 C1559 1.387 . S
H1557 C1553 0.950 . S
H1558 C1555 0.950 . S
C1559 C1550 1.390 . S
C1559 H1552 0.950 . S
C1559 C1556 1.387 . S
C1560 C1561 1.387 . S
C1560 H1564 0.950 . S
C1560 C1569 1.390 . S
C1561 C1560 1.387 . S
C1561 C1563 1.387 . S
H1562 C1569 0.950 . S
C1563 C1561 1.387 . S
C1563 C1565 1.390 . S
C1563 H1567 0.950 . S
H1564 C1560 0.950 . S
C1565 C1563 1.390 . S
C1565 C1566 1.387 . S
C1565 H1568 0.950 . S
C1566 C1565 1.387 . S
C1566 C1569 1.387 . S
H1567 C1563 0.950 . S
H1568 C1565 0.950 . S
C1569 C1560 1.390 . S
C1569 H1562 0.950 . S
C1569 C1566 1.387 . S
C1570 C1571 1.387 1_655 S
C1570 H1574 0.950 . S
C1570 C1579 1.390 . S
C1571 C1570 1.387 1_455 S
C1571 C1573 1.387 . S
H1572 C1579 0.950 . S
C1573 C1571 1.387 . S
C1573 C1575 1.390 1_455 S
C1573 H1577 0.950 . S
H1574 C1570 0.950 . S
C1575 C1573 1.390 1_655 S
C1575 C1576 1.387 . S
C1575 H1578 0.950 . S
C1576 C1575 1.387 . S
C1576 C1579 1.387 . S
H1577 C1573 0.950 . S
H1578 C1575 0.950 . S
C1579 C1570 1.390 . S
C1579 H1572 0.950 . S
C1579 C1576 1.387 . S
C1580 C1581 1.387 . S
C1580 H1584 0.950 . S
C1580 C1589 1.390 . S
C1581 C1580 1.387 . S
C1581 C1583 1.387 . S
H1582 C1589 0.950 . S
C1583 C1581 1.387 . S
C1583 C1585 1.390 . S
C1583 H1587 0.950 . S
H1584 C1580 0.950 . S
C1585 C1583 1.390 . S
C1585 C1586 1.387 . S
C1585 H1588 0.950 . S
C1586 C1585 1.387 . S
C1586 C1589 1.387 . S
H1587 C1583 0.950 . S
H1588 C1585 0.950 . S
C1589 C1580 1.390 . S
C1589 H1582 0.950 . S
C1589 C1586 1.387 . S
C1590 C1591 1.387 . S
C1590 H1594 0.950 . S
C1590 C1599 1.390 . S
C1591 C1590 1.387 . S
C1591 C1593 1.387 . S
H1592 C1599 0.950 . S
C1593 C1591 1.387 . S
C1593 C1595 1.390 . S
C1593 H1597 0.950 . S
H1594 C1590 0.950 . S
C1595 C1593 1.390 . S
C1595 C1596 1.387 . S
C1595 H1598 0.950 . S
C1596 C1595 1.387 . S
C1596 C1599 1.387 . S
H1597 C1593 0.950 . S
H1598 C1595 0.950 . S
C1599 C1590 1.390 . S
C1599 H1592 0.950 . S
C1599 C1596 1.387 . S
C1600 C1601 1.387 . S
C1600 H1604 0.950 . S
C1600 C1609 1.390 . S
C1601 C1600 1.387 . S
C1601 C1603 1.387 . S
H1602 C1609 0.950 . S
C1603 C1601 1.387 . S
C1603 C1605 1.390 . S
C1603 H1607 0.950 . S
H1604 C1600 0.950 . S
C1605 C1603 1.390 . S
C1605 C1606 1.387 . S
C1605 H1608 0.950 . S
C1606 C1605 1.387 . S
C1606 C1609 1.387 . S
H1607 C1603 0.950 . S
H1608 C1605 0.950 . S
C1609 C1600 1.390 . S
C1609 H1602 0.950 . S
C1609 C1606 1.387 . S
C1610 C1611 1.387 . S
C1610 H1614 0.950 . S
C1610 C1619 1.390 . S
C1611 C1610 1.387 . S
C1611 C1613 1.387 . S
H1612 C1619 0.950 . S
C1613 C1611 1.387 . S
C1613 C1615 1.390 . S
C1613 H1617 0.950 . S
H1614 C1610 0.950 . S
C1615 C1613 1.390 . S
C1615 C1616 1.387 . S
C1615 H1618 0.950 . S
C1616 C1615 1.387 . S
C1616 C1619 1.387 . S
H1617 C1613 0.950 . S
H1618 C1615 0.950 . S
C1619 C1610 1.390 . S
C1619 H1612 0.950 . S
C1619 C1616 1.387 . S
C1620 C1621 1.387 . S
C1620 H1624 0.950 . S
C1620 C1629 1.390 . S
C1621 C1620 1.387 . S
C1621 C1623 1.387 . S
H1622 C1629 0.950 . S
C1623 C1621 1.387 . S
C1623 C1625 1.390 . S
C1623 H1627 0.950 . S
H1624 C1620 0.950 . S
C1625 C1623 1.390 . S
C1625 C1626 1.387 . S
C1625 H1628 0.950 . S
C1626 C1625 1.387 . S
C1626 C1629 1.387 . S
H1627 C1623 0.950 . S
H1628 C1625 0.950 . S
C1629 C1620 1.390 . S
C1629 H1622 0.950 . S
C1629 C1626 1.387 . S
C1630 C1631 1.387 . S
C1630 H1634 0.950 . S
C1630 C1639 1.390 . S
C1631 C1630 1.387 . S
C1631 C1633 1.387 . S
H1632 C1639 0.950 . S
C1633 C1631 1.387 . S
C1633 C1635 1.390 . S
C1633 H1637 0.950 . S
H1634 C1630 0.950 . S
C1635 C1633 1.390 . S
C1635 C1636 1.387 . S
C1635 H1638 0.950 . S
C1636 C1635 1.387 . S
C1636 C1639 1.387 . S
H1637 C1633 0.950 . S
H1638 C1635 0.950 . S
C1639 C1630 1.390 . S
C1639 H1632 0.950 . S
C1639 C1636 1.387 . S
C1640 C1641 1.387 . S
C1640 H1644 0.950 . S
C1640 C1649 1.390 . S
C1641 C1640 1.387 . S
C1641 C1643 1.387 . S
H1642 C1649 0.950 . S
C1643 C1641 1.387 . S
C1643 C1645 1.390 . S
C1643 H1647 0.950 . S
H1644 C1640 0.950 . S
C1645 C1643 1.390 . S
C1645 C1646 1.387 . S
C1645 H1648 0.950 . S
C1646 C1645 1.387 . S
C1646 C1649 1.387 . S
H1647 C1643 0.950 . S
H1648 C1645 0.950 . S
C1649 C1640 1.390 . S
C1649 H1642 0.950 . S
C1649 C1646 1.387 . S
C1650 C1651 1.387 . S
C1650 H1654 0.950 . S
C1650 C1659 1.390 . S
C1651 C1650 1.387 . S
C1651 C1653 1.387 . S
H1652 C1659 0.950 . S
C1653 C1651 1.387 . S
C1653 C1655 1.390 . S
C1653 H1657 0.950 . S
H1654 C1650 0.950 . S
C1655 C1653 1.390 . S
C1655 C1656 1.387 . S
C1655 H1658 0.950 . S
C1656 C1655 1.387 . S
C1656 C1659 1.387 . S
H1657 C1653 0.950 . S
H1658 C1655 0.950 . S
C1659 C1650 1.390 . S
C1659 H1652 0.950 . S
C1659 C1656 1.387 . S
C1660 C1661 1.387 . S
C1660 H1664 0.950 . S
C1660 C1669 1.390 . S
C1661 C1660 1.387 . S
C1661 C1663 1.387 . S
H1662 C1669 0.950 1_565 S
C1663 C1661 1.387 . S
C1663 C1665 1.390 . S
C1663 H1667 0.950 . S
H1664 C1660 0.950 . S
C1665 C1663 1.390 . S
C1665 C1666 1.384 1_545 S
C1665 H1668 0.950 . S
C1666 C1665 1.384 1_565 S
C1666 C1669 1.387 1_565 S
H1667 C1663 0.950 . S
H1668 C1665 0.950 . S
C1669 C1660 1.390 . S
C1669 H1662 0.950 1_545 S
C1669 C1666 1.387 1_545 S
C1670 C1671 1.387 . S
C1670 H1674 0.950 . S
C1670 C1679 1.390 1_655 S
C1671 C1670 1.387 . S
C1671 C1673 1.387 . S
H1672 C1679 0.950 . S
C1673 C1671 1.387 . S
C1673 C1675 1.390 1_655 S
C1673 H1677 0.950 . S
H1674 C1670 0.950 . S
C1675 C1673 1.390 1_455 S
C1675 C1676 1.387 . S
C1675 H1678 0.950 . S
C1676 C1675 1.387 . S
C1676 C1679 1.387 . S
H1677 C1673 0.950 . S
H1678 C1675 0.950 . S
C1679 C1670 1.390 1_455 S
C1679 H1672 0.950 . S
C1679 C1676 1.387 . S
C1680 C1681 1.387 . S
C1680 H1684 0.950 . S
C1680 C1689 1.390 . S
C1681 C1680 1.387 . S
C1681 C1683 1.387 . S
H1682 C1689 0.950 . S
C1683 C1681 1.387 . S
C1683 C1685 1.390 . S
C1683 H1687 0.950 . S
H1684 C1680 0.950 . S
C1685 C1683 1.390 . S
C1685 C1686 1.387 . S
C1685 H1688 0.950 . S
C1686 C1685 1.387 . S
C1686 C1689 1.387 . S
H1687 C1683 0.950 . S
H1688 C1685 0.950 . S
C1689 C1680 1.390 . S
C1689 H1682 0.950 . S
C1689 C1686 1.387 . S
C1690 C1691 1.387 . S
C1690 H1694 0.950 . S
C1690 C1699 1.390 . S
C1691 C1690 1.387 . S
C1691 C1693 1.387 . S
H1692 C1699 0.950 . S
C1693 C1691 1.387 . S
C1693 C1695 1.390 . S
C1693 H1697 0.950 . S
H1694 C1690 0.950 . S
C1695 C1693 1.390 . S
C1695 C1696 1.387 . S
C1695 H1698 0.950 . S
C1696 C1695 1.387 . S
C1696 C1699 1.387 . S
H1697 C1693 0.950 . S
H1698 C1695 0.950 . S
C1699 C1690 1.390 . S
C1699 H1692 0.950 . S
C1699 C1696 1.387 . S
C1700 C1701 1.387 . S
C1700 H1704 0.950 . S
C1700 C1709 1.390 . S
C1701 C1700 1.387 . S
C1701 C1703 1.387 . S
H1702 C1709 0.950 . S
C1703 C1701 1.387 . S
C1703 C1705 1.390 . S
C1703 H1707 0.950 . S
H1704 C1700 0.950 . S
C1705 C1703 1.390 . S
C1705 C1706 1.387 . S
C1705 H1708 0.950 . S
C1706 C1705 1.387 . S
C1706 C1709 1.387 . S
H1707 C1703 0.950 . S
H1708 C1705 0.950 . S
C1709 C1700 1.390 . S
C1709 H1702 0.950 . S
C1709 C1706 1.387 . S
C1710 C1711 1.387 . S
C1710 H1714 0.950 . S
C1710 C1719 1.390 . S
C1711 C1710 1.387 . S
C1711 C1713 1.387 . S
H1712 C1719 0.950 . S
C1713 C1711 1.387 . S
C1713 C1715 1.390 . S
C1713 H1717 0.950 . S
H1714 C1710 0.950 . S
C1715 C1713 1.390 . S
C1715 C1716 1.387 . S
C1715 H1718 0.950 . S
C1716 C1715 1.387 . S
C1716 C1719 1.387 . S
H1717 C1713 0.950 . S
H1718 C1715 0.950 . S
C1719 C1710 1.390 . S
C1719 H1712 0.950 . S
C1719 C1716 1.387 . S
C1720 C1721 1.387 . S
C1720 H1724 0.950 . S
C1720 C1729 1.390 1_545 S
C1721 C1720 1.387 . S
C1721 C1723 1.387 . S
H1722 C1729 0.950 . S
C1723 C1721 1.387 . S
C1723 C1725 1.390 1_545 S
C1723 H1727 0.950 . S
H1724 C1720 0.950 . S
C1725 C1723 1.390 1_565 S
C1725 C1726 1.387 . S
C1725 H1728 0.950 . S
C1726 C1725 1.387 . S
C1726 C1729 1.387 . S
H1727 C1723 0.950 . S
H1728 C1725 0.950 . S
C1729 C1720 1.390 1_565 S
C1729 H1722 0.950 . S
C1729 C1726 1.387 . S
C1730 C1731 1.387 . S
C1730 H1734 0.950 . S
C1730 C1739 1.390 . S
C1731 C1730 1.387 . S
C1731 C1733 1.387 . S
H1732 C1739 0.950 . S
C1733 C1731 1.387 . S
C1733 C1735 1.390 . S
C1733 H1737 0.950 . S
H1734 C1730 0.950 . S
C1735 C1733 1.390 . S
C1735 C1736 1.386 1_455 S
C1735 H1738 0.950 1_455 S
C1736 C1735 1.386 1_655 S
C1736 C1739 1.386 1_655 S
H1737 C1733 0.950 . S
H1738 C1735 0.950 1_655 S
C1739 C1730 1.390 . S
C1739 H1732 0.950 . S
C1739 C1736 1.386 1_455 S
C1740 C1741 1.387 . S
C1740 H1744 0.950 . S
C1740 C1749 1.390 . S
C1741 C1740 1.387 . S
C1741 C1743 1.387 . S
H1742 C1749 0.950 1_545 S
C1743 C1741 1.387 . S
C1743 C1745 1.390 . S
C1743 H1747 0.950 . S
H1744 C1740 0.950 . S
C1745 C1743 1.390 . S
C1745 C1746 1.387 1_565 S
C1745 H1748 0.950 . S
C1746 C1745 1.387 1_545 S
C1746 C1749 1.387 1_545 S
H1747 C1743 0.950 . S
H1748 C1745 0.950 . S
C1749 C1740 1.390 . S
C1749 H1742 0.950 1_565 S
C1749 C1746 1.387 1_565 S
C1750 C1751 1.387 . S
C1750 H1754 0.950 . S
C1750 C1759 1.390 . S
C1751 C1750 1.387 . S
C1751 C1753 1.387 . S
H1752 C1759 0.950 . S
C1753 C1751 1.387 . S
C1753 C1755 1.390 . S
C1753 H1757 0.950 . S
H1754 C1750 0.950 . S
C1755 C1753 1.390 . S
C1755 C1756 1.387 . S
C1755 H1758 0.950 . S
C1756 C1755 1.387 . S
C1756 C1759 1.387 . S
H1757 C1753 0.950 . S
H1758 C1755 0.950 . S
C1759 C1750 1.390 . S
C1759 H1752 0.950 . S
C1759 C1756 1.387 . S
C1760 C1761 1.387 . S
C1760 H1764 0.950 . S
C1760 C1769 1.390 . S
C1761 C1760 1.387 . S
C1761 C1763 1.387 . S
H1762 C1769 0.950 . S
C1763 C1761 1.387 . S
C1763 C1765 1.390 . S
C1763 H1767 0.950 . S
H1764 C1760 0.950 . S
C1765 C1763 1.390 . S
C1765 C1766 1.387 . S
C1765 H1768 0.950 . S
C1766 C1765 1.387 . S
C1766 C1769 1.387 . S
H1767 C1763 0.950 . S
H1768 C1765 0.950 . S
C1769 C1760 1.390 . S
C1769 H1762 0.950 . S
C1769 C1766 1.387 . S
C1770 C1771 1.387 . S
C1770 H1774 0.950 . S
C1770 C1779 1.390 . S
C1771 C1770 1.387 . S
C1771 C1773 1.387 . S
H1772 C1779 0.950 . S
C1773 C1771 1.387 . S
C1773 C1775 1.390 . S
C1773 H1777 0.950 . S
H1774 C1770 0.950 . S
C1775 C1773 1.390 . S
C1775 C1776 1.387 . S
C1775 H1778 0.950 . S
C1776 C1775 1.387 . S
C1776 C1779 1.387 . S
H1777 C1773 0.950 . S
H1778 C1775 0.950 . S
C1779 C1770 1.390 . S
C1779 H1772 0.950 . S
C1779 C1776 1.387 . S
C1780 C1781 1.387 . S
C1780 H1784 0.950 . S
C1780 C1789 1.390 . S
C1781 C1780 1.387 . S
C1781 C1783 1.387 . S
H1782 C1789 0.950 . S
C1783 C1781 1.387 . S
C1783 C1785 1.390 . S
C1783 H1787 0.950 . S
H1784 C1780 0.950 . S
C1785 C1783 1.390 . S
C1785 C1786 1.387 . S
C1785 H1788 0.950 . S
C1786 C1785 1.387 . S
C1786 C1789 1.387 . S
H1787 C1783 0.950 . S
H1788 C1785 0.950 . S
C1789 C1780 1.390 . S
C1789 H1782 0.950 . S
C1789 C1786 1.387 . S
C1790 C1791 1.387 . S
C1790 H1794 0.950 . S
C1790 C1799 1.390 . S
C1791 C1790 1.387 . S
C1791 C1793 1.387 . S
H1792 C1799 0.950 . S
C1793 C1791 1.387 . S
C1793 C1795 1.390 . S
C1793 H1797 0.950 . S
H1794 C1790 0.950 . S
C1795 C1793 1.390 . S
C1795 C1796 1.387 . S
C1795 H1798 0.950 . S
C1796 C1795 1.387 . S
C1796 C1799 1.387 . S
H1797 C1793 0.950 . S
H1798 C1795 0.950 . S
C1799 C1790 1.390 . S
C1799 H1792 0.950 . S
C1799 C1796 1.387 . S
C1800 C1801 1.387 . S
C1800 H1804 0.950 . S
C1800 C1809 1.390 . S
C1801 C1800 1.387 . S
C1801 C1803 1.387 . S
H1802 C1809 0.950 . S
C1803 C1801 1.387 . S
C1803 C1805 1.390 . S
C1803 H1807 0.950 . S
H1804 C1800 0.950 . S
C1805 C1803 1.390 . S
C1805 C1806 1.387 . S
C1805 H1808 0.950 . S
C1806 C1805 1.387 . S
C1806 C1809 1.387 . S
H1807 C1803 0.950 . S
H1808 C1805 0.950 . S
C1809 C1800 1.390 . S
C1809 H1802 0.950 . S
C1809 C1806 1.387 . S
C1810 C1811 1.387 . S
C1810 H1814 0.950 . S
C1810 C1819 1.390 . S
C1811 C1810 1.387 . S
C1811 C1813 1.387 . S
H1812 C1819 0.950 . S
C1813 C1811 1.387 . S
C1813 C1815 1.390 . S
C1813 H1817 0.950 . S
H1814 C1810 0.950 . S
C1815 C1813 1.390 . S
C1815 C1816 1.387 . S
C1815 H1818 0.950 . S
C1816 C1815 1.387 . S
C1816 C1819 1.387 . S
H1817 C1813 0.950 . S
H1818 C1815 0.950 . S
C1819 C1810 1.390 . S
C1819 H1812 0.950 . S
C1819 C1816 1.387 . S
C1820 C1821 1.387 . S
C1820 H1824 0.950 . S
C1820 C1829 1.390 . S
C1821 C1820 1.387 . S
C1821 C1823 1.387 . S
H1822 C1829 0.950 . S
C1823 C1821 1.387 . S
C1823 C1825 1.390 . S
C1823 H1827 0.950 . S
H1824 C1820 0.950 . S
C1825 C1823 1.390 . S
C1825 C1826 1.387 . S
C1825 H1828 0.950 . S
C1826 C1825 1.387 . S
C1826 C1829 1.387 . S
H1827 C1823 0.950 . S
H1828 C1825 0.950 . S
C1829 C1820 1.390 . S
C1829 H1822 0.950 . S
C1829 C1826 1.387 . S
C1830 C1831 1.387 . S
C1830 H1834 0.950 . S
C1830 C1839 1.390 . S
C1831 C1830 1.387 . S
C1831 C1833 1.387 . S
H1832 C1839 0.950 . S
C1833 C1831 1.387 . S
C1833 C1835 1.390 . S
C1833 H1837 0.950 . S
H1834 C1830 0.950 . S
C1835 C1833 1.390 . S
C1835 C1836 1.387 . S
C1835 H1838 0.950 . S
C1836 C1835 1.387 . S
C1836 C1839 1.387 . S
H1837 C1833 0.950 . S
H1838 C1835 0.950 . S
C1839 C1830 1.390 . S
C1839 H1832 0.950 . S
C1839 C1836 1.387 . S
C1840 C1841 1.387 . S
C1840 H1844 0.950 . S
C1840 C1849 1.390 . S
C1841 C1840 1.387 . S
C1841 C1843 1.387 . S
H1842 C1849 0.950 . S
C1843 C1841 1.387 . S
C1843 C1845 1.390 . S
C1843 H1847 0.950 . S
H1844 C1840 0.950 . S
C1845 C1843 1.390 . S
C1845 C1846 1.387 . S
C1845 H1848 0.950 . S
C1846 C1845 1.387 . S
C1846 C1849 1.387 . S
H1847 C1843 0.950 . S
H1848 C1845 0.950 . S
C1849 C1840 1.390 . S
C1849 H1842 0.950 . S
C1849 C1846 1.387 . S
C1850 C1851 1.387 . S
C1850 H1854 0.950 . S
C1850 C1859 1.390 . S
C1851 C1850 1.387 . S
C1851 C1853 1.387 . S
H1852 C1859 0.950 . S
C1853 C1851 1.387 . S
C1853 C1855 1.390 . S
C1853 H1857 0.950 . S
H1854 C1850 0.950 . S
C1855 C1853 1.390 . S
C1855 C1856 1.387 . S
C1855 H1858 0.950 . S
C1856 C1855 1.387 . S
C1856 C1859 1.387 . S
H1857 C1853 0.950 . S
H1858 C1855 0.950 . S
C1859 C1850 1.390 . S
C1859 H1852 0.950 . S
C1859 C1856 1.387 . S
C1860 C1861 1.387 . S
C1860 H1864 0.950 . S
C1860 C1869 1.390 . S
C1861 C1860 1.387 . S
C1861 C1863 1.387 . S
H1862 C1869 0.950 . S
C1863 C1861 1.387 . S
C1863 C1865 1.390 . S
C1863 H1867 0.950 . S
H1864 C1860 0.950 . S
C1865 C1863 1.390 . S
C1865 C1866 1.387 . S
C1865 H1868 0.950 . S
C1866 C1865 1.387 . S
C1866 C1869 1.387 . S
H1867 C1863 0.950 . S
H1868 C1865 0.950 . S
C1869 C1860 1.390 . S
C1869 H1862 0.950 . S
C1869 C1866 1.387 . S
C1870 C1871 1.387 . S
C1870 H1874 0.950 . S
C1870 C1879 1.390 . S
C1871 C1870 1.387 . S
C1871 C1873 1.387 . S
H1872 C1879 0.950 . S
C1873 C1871 1.387 . S
C1873 C1875 1.390 . S
C1873 H1877 0.950 . S
H1874 C1870 0.950 . S
C1875 C1873 1.390 . S
C1875 C1876 1.387 . S
C1875 H1878 0.950 . S
C1876 C1875 1.387 . S
C1876 C1879 1.387 . S
H1877 C1873 0.950 . S
H1878 C1875 0.950 . S
C1879 C1870 1.390 . S
C1879 H1872 0.950 . S
C1879 C1876 1.387 . S
C1880 C1881 1.387 . S
C1880 H1884 0.950 . S
C1880 C1889 1.390 . S
C1881 C1880 1.387 . S
C1881 C1883 1.387 . S
H1882 C1889 0.950 . S
C1883 C1881 1.387 . S
C1883 C1885 1.390 . S
C1883 H1887 0.950 . S
H1884 C1880 0.950 . S
C1885 C1883 1.390 . S
C1885 C1886 1.387 . S
C1885 H1888 0.950 . S
C1886 C1885 1.387 . S
C1886 C1889 1.387 . S
H1887 C1883 0.950 . S
H1888 C1885 0.950 . S
C1889 C1880 1.390 . S
C1889 H1882 0.950 . S
C1889 C1886 1.387 . S
C1890 C1891 1.387 . S
C1890 H1894 0.950 . S
C1890 C1899 1.390 . S
C1891 C1890 1.387 . S
C1891 C1893 1.387 . S
H1892 C1899 0.950 . S
C1893 C1891 1.387 . S
C1893 C1895 1.390 . S
C1893 H1897 0.950 . S
H1894 C1890 0.950 . S
C1895 C1893 1.390 . S
C1895 C1896 1.387 . S
C1895 H1898 0.950 . S
C1896 C1895 1.387 . S
C1896 C1899 1.387 . S
H1897 C1893 0.950 . S
H1898 C1895 0.950 . S
C1899 C1890 1.390 . S
C1899 H1892 0.950 . S
C1899 C1896 1.387 . S
C1900 C1901 1.387 . S
C1900 H1904 0.950 . S
C1900 C1909 1.390 . S
C1901 C1900 1.387 . S
C1901 C1903 1.387 . S
H1902 C1909 0.950 . S
C1903 C1901 1.387 . S
C1903 C1905 1.390 . S
C1903 H1907 0.950 . S
H1904 C1900 0.950 . S
C1905 C1903 1.390 . S
C1905 C1906 1.387 . S
C1905 H1908 0.950 . S
C1906 C1905 1.387 . S
C1906 C1909 1.387 . S
H1907 C1903 0.950 . S
H1908 C1905 0.950 . S
C1909 C1900 1.390 . S
C1909 H1902 0.950 . S
C1909 C1906 1.387 . S
C1910 C1911 1.387 . S
C1910 H1914 0.950 . S
C1910 C1919 1.390 . S
C1911 C1910 1.387 . S
C1911 C1913 1.387 . S
H1912 C1919 0.950 . S
C1913 C1911 1.387 . S
C1913 C1915 1.390 . S
C1913 H1917 0.950 . S
H1914 C1910 0.950 . S
C1915 C1913 1.390 . S
C1915 C1916 1.387 . S
C1915 H1918 0.950 . S
C1916 C1915 1.387 . S
C1916 C1919 1.387 . S
H1917 C1913 0.950 . S
H1918 C1915 0.950 . S
C1919 C1910 1.390 . S
C1919 H1912 0.950 . S
C1919 C1916 1.387 . S
C1920 C1921 1.387 . S
C1920 H1924 0.950 . S
C1920 C1929 1.390 . S
C1921 C1920 1.387 . S
C1921 C1923 1.387 . S
H1922 C1929 0.950 . S
C1923 C1921 1.387 . S
C1923 C1925 1.390 . S
C1923 H1927 0.950 . S
H1924 C1920 0.950 . S
C1925 C1923 1.390 . S
C1925 C1926 1.387 . S
C1925 H1928 0.950 . S
C1926 C1925 1.387 . S
C1926 C1929 1.387 . S
H1927 C1923 0.950 . S
H1928 C1925 0.950 . S
C1929 C1920 1.390 . S
C1929 H1922 0.950 . S
C1929 C1926 1.387 . S
C1930 C1931 1.387 . S
C1930 H1934 0.950 . S
C1930 C1939 1.390 . S
C1931 C1930 1.387 . S
C1931 C1933 1.387 . S
H1932 C1939 0.950 . S
C1933 C1931 1.387 . S
C1933 C1935 1.390 . S
C1933 H1937 0.950 . S
H1934 C1930 0.950 . S
C1935 C1933 1.390 . S
C1935 C1936 1.387 . S
C1935 H1938 0.950 . S
C1936 C1935 1.387 . S
C1936 C1939 1.387 . S
H1937 C1933 0.950 . S
H1938 C1935 0.950 . S
C1939 C1930 1.390 . S
C1939 H1932 0.950 . S
C1939 C1936 1.387 . S
C1940 C1941 1.387 . S
C1940 H1944 0.950 . S
C1940 C1949 1.390 . S
C1941 C1940 1.387 . S
C1941 C1943 1.387 . S
H1942 C1949 0.950 . S
C1943 C1941 1.387 . S
C1943 C1945 1.390 . S
C1943 H1947 0.950 . S
H1944 C1940 0.950 . S
C1945 C1943 1.390 . S
C1945 C1946 1.387 . S
C1945 H1948 0.950 . S
C1946 C1945 1.387 . S
C1946 C1949 1.387 . S
H1947 C1943 0.950 . S
H1948 C1945 0.950 . S
C1949 C1940 1.390 . S
C1949 H1942 0.950 . S
C1949 C1946 1.387 . S
C1950 C1951 1.387 . S
C1950 H1954 0.950 . S
C1950 C1959 1.390 . S
C1951 C1950 1.387 . S
C1951 C1953 1.387 . S
H1952 C1959 0.950 . S
C1953 C1951 1.387 . S
C1953 C1955 1.390 . S
C1953 H1957 0.950 . S
H1954 C1950 0.950 . S
C1955 C1953 1.390 . S
C1955 C1956 1.387 . S
C1955 H1958 0.950 . S
C1956 C1955 1.387 . S
C1956 C1959 1.387 . S
H1957 C1953 0.950 . S
H1958 C1955 0.950 . S
C1959 C1950 1.390 . S
C1959 H1952 0.950 . S
C1959 C1956 1.387 . S
C1960 C1961 1.387 . S
C1960 H1964 0.950 . S
C1960 C1969 1.390 . S
C1961 C1960 1.387 . S
C1961 C1963 1.387 . S
H1962 C1969 0.950 . S
C1963 C1961 1.387 . S
C1963 C1965 1.390 . S
C1963 H1967 0.967 . S
H1964 C1960 0.950 . S
C1965 C1963 1.390 . S
C1965 C1966 1.387 . S
C1965 H1968 0.950 . S
C1966 C1965 1.387 . S
C1966 C1969 1.387 . S
H1967 C1963 0.967 . S
H1968 C1965 0.950 . S
C1969 C1960 1.390 . S
C1969 H1962 0.950 . S
C1969 C1966 1.387 . S
C1970 C1971 1.387 1_655 S
C1970 H1974 0.950 . S
C1970 C1979 1.390 . S
C1971 C1970 1.387 1_455 S
C1971 C1973 1.387 . S
H1972 C1979 0.950 . S
C1973 C1971 1.387 . S
C1973 C1975 1.390 1_455 S
C1973 H1977 0.950 . S
H1974 C1970 0.950 . S
C1975 C1973 1.390 1_655 S
C1975 C1976 1.387 . S
C1975 H1978 0.950 . S
C1976 C1975 1.387 . S
C1976 C1979 1.387 . S
H1977 C1973 0.950 . S
H1978 C1975 0.950 . S
C1979 C1970 1.390 . S
C1979 H1972 0.950 . S
C1979 C1976 1.387 . S
C1980 C1981 1.387 1_545 S
C1980 H1984 0.950 . S
C1980 C1989 1.390 . S
C1981 C1980 1.387 1_565 S
C1981 C1983 1.387 1_565 S
H1982 C1989 0.950 . S
C1983 C1981 1.387 1_545 S
C1983 C1985 1.390 . S
C1983 H1987 0.950 . S
H1984 C1980 0.950 . S
C1985 C1983 1.390 . S
C1985 C1986 1.387 . S
C1985 H1988 0.950 . S
C1986 C1985 1.387 . S
C1986 C1989 1.387 . S
H1987 C1983 0.950 . S
H1988 C1985 0.950 . S
C1989 C1980 1.390 . S
C1989 H1982 0.950 . S
C1989 C1986 1.387 . S
C1990 C1991 1.387 . S
C1990 H1994 0.950 . S
C1990 C1999 1.390 1_455 S
C1991 C1990 1.387 . S
C1991 C1993 1.387 . S
H1992 C1999 0.950 . S
C1993 C1991 1.387 . S
C1993 C1995 1.390 1_455 S
C1993 H1997 0.950 . S
H1994 C1990 0.950 . S
C1995 C1993 1.390 1_655 S
C1995 C1996 1.387 . S
C1995 H1998 0.950 . S
C1996 C1995 1.387 . S
C1996 C1999 1.387 . S
H1997 C1993 0.950 . S
H1998 C1995 0.950 . S
C1999 C1990 1.390 1_655 S
C1999 H1992 0.950 . S
C1999 C1996 1.387 . S
C2000 C2001 1.387 . S
C2000 H2004 0.950 . S
C2000 C2009 1.390 . S
C2001 C2000 1.387 . S
C2001 C2003 1.387 . S
H2002 C2009 0.950 . S
C2003 C2001 1.387 . S
C2003 C2005 1.390 . S
C2003 H2007 0.950 . S
H2004 C2000 0.950 . S
C2005 C2003 1.390 . S
C2005 C2006 1.387 . S
C2005 H2008 0.950 . S
C2006 C2005 1.387 . S
C2006 C2009 1.387 . S
H2007 C2003 0.950 . S
H2008 C2005 0.950 . S
C2009 C2000 1.390 . S
C2009 H2002 0.950 . S
C2009 C2006 1.387 . S
C2010 C2011 1.387 . S
C2010 H2014 0.950 . S
C2010 C2019 1.390 . S
C2011 C2010 1.387 . S
C2011 C2013 1.387 . S
H2012 C2019 0.950 . S
C2013 C2011 1.387 . S
C2013 C2015 1.390 . S
C2013 H2017 0.950 . S
H2014 C2010 0.950 . S
C2015 C2013 1.390 . S
C2015 C2016 1.387 . S
C2015 H2018 0.950 . S
C2016 C2015 1.387 . S
C2016 C2019 1.387 . S
H2017 C2013 0.950 . S
H2018 C2015 0.950 . S
C2019 C2010 1.390 . S
C2019 H2012 0.950 . S
C2019 C2016 1.387 . S
C2020 C2021 1.387 . S
C2020 H2024 0.950 . S
C2020 C2029 1.390 . S
C2021 C2020 1.387 . S
C2021 C2023 1.387 . S
H2022 C2029 0.950 . S
C2023 C2021 1.387 . S
C2023 C2025 1.390 . S
C2023 H2027 0.950 . S
H2024 C2020 0.950 . S
C2025 C2023 1.390 . S
C2025 C2026 1.387 . S
C2025 H2028 0.950 . S
C2026 C2025 1.387 . S
C2026 C2029 1.387 . S
H2027 C2023 0.950 . S
H2028 C2025 0.950 . S
C2029 C2020 1.390 . S
C2029 H2022 0.950 . S
C2029 C2026 1.387 . S
C2030 C2031 1.387 . S
C2030 H2034 0.950 . S
C2030 C2039 1.390 . S
C2031 C2030 1.387 . S
C2031 C2033 1.387 . S
H2032 C2039 0.950 . S
C2033 C2031 1.387 . S
C2033 C2035 1.390 . S
C2033 H2037 0.950 . S
H2034 C2030 0.950 . S
C2035 C2033 1.390 . S
C2035 C2036 1.387 . S
C2035 H2038 0.950 . S
C2036 C2035 1.387 . S
C2036 C2039 1.387 . S
H2037 C2033 0.950 . S
H2038 C2035 0.950 . S
C2039 C2030 1.390 . S
C2039 H2032 0.950 . S
C2039 C2036 1.387 . S
C2040 C2041 1.387 . S
C2040 H2044 0.950 . S
C2040 C2049 1.390 1_565 S
C2041 C2040 1.387 . S
C2041 C2043 1.387 . S
H2042 C2049 0.950 . S
C2043 C2041 1.387 . S
C2043 C2045 1.390 1_565 S
C2043 H2047 0.950 . S
H2044 C2040 0.950 . S
C2045 C2043 1.390 1_545 S
C2045 C2046 1.387 . S
C2045 H2048 0.950 . S
C2046 C2045 1.387 . S
C2046 C2049 1.387 . S
H2047 C2043 0.950 . S
H2048 C2045 0.950 . S
C2049 C2040 1.390 1_545 S
C2049 H2042 0.950 . S
C2049 C2046 1.387 . S
C2050 C2051 1.387 1_455 S
C2050 H2054 0.950 . S
C2050 C2059 1.390 . S
C2051 C2050 1.387 1_655 S
C2051 C2053 1.387 1_655 S
H2052 C2059 0.950 . S
C2053 C2051 1.387 1_455 S
C2053 C2055 1.390 . S
C2053 H2057 0.950 1_455 S
H2054 C2050 0.950 . S
C2055 C2053 1.390 . S
C2055 C2056 1.387 . S
C2055 H2058 0.950 . S
C2056 C2055 1.387 . S
C2056 C2059 1.387 . S
H2057 C2053 0.950 1_655 S
H2058 C2055 0.950 . S
C2059 C2050 1.390 . S
C2059 H2052 0.950 . S
C2059 C2056 1.387 . S
C2060 C2061 1.387 . S
C2060 H2064 0.950 . S
C2060 C2069 1.390 . S
C2061 C2060 1.387 . S
C2061 C2063 1.387 . S
H2062 C2069 0.950 . S
C2063 C2061 1.387 . S
C2063 C2065 1.390 . S
C2063 H2067 0.950 . S
H2064 C2060 0.950 . S
C2065 C2063 1.390 . S
C2065 C2066 1.387 . S
C2065 H2068 0.950 . S
C2066 C2065 1.387 . S
C2066 C2069 1.387 . S
H2067 C2063 0.950 . S
H2068 C2065 0.950 . S
C2069 C2060 1.390 . S
C2069 H2062 0.950 . S
C2069 C2066 1.387 . S
C2070 C2071 1.387 . S
C2070 H2074 0.950 . S
C2070 C2079 1.390 . S
C2071 C2070 1.387 . S
C2071 C2073 1.387 . S
H2072 C2079 0.950 . S
C2073 C2071 1.387 . S
C2073 C2075 1.390 . S
C2073 H2077 0.950 . S
H2074 C2070 0.950 . S
C2075 C2073 1.390 . S
C2075 C2076 1.387 . S
C2075 H2078 0.950 . S
C2076 C2075 1.387 . S
C2076 C2079 1.387 . S
H2077 C2073 0.950 . S
H2078 C2075 0.950 . S
C2079 C2070 1.390 . S
C2079 H2072 0.950 . S
C2079 C2076 1.387 . S
C2080 C2081 1.387 . S
C2080 H2084 0.950 . S
C2080 C2089 1.390 . S
C2081 C2080 1.387 . S
C2081 C2083 1.387 . S
H2082 C2089 0.950 . S
C2083 C2081 1.387 . S
C2083 C2085 1.390 . S
C2083 H2087 0.950 . S
H2084 C2080 0.950 . S
C2085 C2083 1.390 . S
C2085 C2086 1.387 . S
C2085 H2088 0.950 . S
C2086 C2085 1.387 . S
C2086 C2089 1.387 . S
H2087 C2083 0.950 . S
H2088 C2085 0.950 . S
C2089 C2080 1.390 . S
C2089 H2082 0.950 . S
C2089 C2086 1.387 . S
C2090 C2091 1.387 . S
C2090 H2094 0.950 . S
C2090 C2099 1.390 . S
C2091 C2090 1.387 . S
C2091 C2093 1.387 . S
H2092 C2099 0.950 . S
C2093 C2091 1.387 . S
C2093 C2095 1.390 . S
C2093 H2097 0.950 . S
H2094 C2090 0.950 . S
C2095 C2093 1.390 . S
C2095 C2096 1.387 . S
C2095 H2098 0.950 . S
C2096 C2095 1.387 . S
C2096 C2099 1.387 . S
H2097 C2093 0.950 . S
H2098 C2095 0.950 . S
C2099 C2090 1.390 . S
C2099 H2092 0.950 . S
C2099 C2096 1.387 . S
C2100 C2101 1.387 . S
C2100 H2104 0.950 . S
C2100 C2109 1.390 . S
C2101 C2100 1.387 . S
C2101 C2103 1.387 . S
H2102 C2109 0.950 . S
C2103 C2101 1.387 . S
C2103 C2105 1.390 . S
C2103 H2107 0.950 . S
H2104 C2100 0.950 . S
C2105 C2103 1.390 . S
C2105 C2106 1.387 . S
C2105 H2108 0.950 . S
C2106 C2105 1.387 . S
C2106 C2109 1.387 . S
H2107 C2103 0.950 . S
H2108 C2105 0.950 . S
C2109 C2100 1.390 . S
C2109 H2102 0.950 . S
C2109 C2106 1.387 . S
C2110 C2111 1.387 . S
C2110 H2114 0.950 . S
C2110 C2119 1.390 . S
C2111 C2110 1.387 . S
C2111 C2113 1.387 . S
H2112 C2119 0.950 . S
C2113 C2111 1.387 . S
C2113 C2115 1.390 . S
C2113 H2117 0.950 . S
H2114 C2110 0.950 . S
C2115 C2113 1.390 . S
C2115 C2116 1.387 . S
C2115 H2118 0.950 . S
C2116 C2115 1.387 . S
C2116 C2119 1.387 . S
H2117 C2113 0.950 . S
H2118 C2115 0.950 . S
C2119 C2110 1.390 . S
C2119 H2112 0.950 . S
C2119 C2116 1.387 . S
C2120 C2121 1.387 . S
C2120 H2124 0.950 . S
C2120 C2129 1.390 . S
C2121 C2120 1.387 . S
C2121 C2123 1.387 . S
H2122 C2129 0.950 . S
C2123 C2121 1.387 . S
C2123 C2125 1.390 . S
C2123 H2127 0.950 . S
H2124 C2120 0.950 . S
C2125 C2123 1.390 . S
C2125 C2126 1.387 . S
C2125 H2128 0.950 . S
C2126 C2125 1.387 . S
C2126 C2129 1.387 . S
H2127 C2123 0.950 . S
H2128 C2125 0.950 . S
C2129 C2120 1.390 . S
C2129 H2122 0.950 . S
C2129 C2126 1.387 . S
C2130 C2131 1.387 . S
C2130 H2134 0.950 . S
C2130 C2139 1.390 . S
C2131 C2130 1.387 . S
C2131 C2133 1.387 . S
H2132 C2139 0.950 . S
C2133 C2131 1.387 . S
C2133 C2135 1.390 . S
C2133 H2137 0.950 . S
H2134 C2130 0.950 . S
C2135 C2133 1.390 . S
C2135 C2136 1.387 . S
C2135 H2138 0.950 . S
C2136 C2135 1.387 . S
C2136 C2139 1.387 . S
H2137 C2133 0.950 . S
H2138 C2135 0.950 . S
C2139 C2130 1.390 . S
C2139 H2132 0.950 . S
C2139 C2136 1.387 . S
C2140 C2141 1.387 . S
C2140 H2144 0.950 . S
C2140 C2149 1.390 1_545 S
C2141 C2140 1.387 . S
C2141 C2143 1.387 1_545 S
H2142 C2149 0.950 . S
C2143 C2141 1.387 1_565 S
C2143 C2145 1.390 . S
C2143 H2147 0.950 . S
H2144 C2140 0.950 . S
C2145 C2143 1.390 . S
C2145 C2146 1.387 . S
C2145 H2148 0.950 . S
C2146 C2145 1.387 . S
C2146 C2149 1.387 . S
H2147 C2143 0.950 . S
H2148 C2145 0.950 . S
C2149 C2140 1.390 1_565 S
C2149 H2142 0.950 . S
C2149 C2146 1.387 . S
C2150 C2151 1.387 . S
C2150 H2154 0.950 . S
C2150 C2159 1.390 . S
C2151 C2150 1.387 . S
C2151 C2153 1.387 . S
H2152 C2159 0.950 . S
C2153 C2151 1.387 . S
C2153 C2155 1.390 . S
C2153 H2157 0.950 . S
H2154 C2150 0.950 . S
C2155 C2153 1.390 . S
C2155 C2156 1.387 . S
C2155 H2158 0.950 . S
C2156 C2155 1.387 . S
C2156 C2159 1.387 . S
H2157 C2153 0.950 . S
H2158 C2155 0.950 . S
C2159 C2150 1.390 . S
C2159 H2152 0.950 . S
C2159 C2156 1.387 . S
C1081 C811 1.969 . S
C1086 C10 1.877 . S
C1091 C841 1.970 . S
C1096 C40 1.878 1_655 S
C1101 C70 1.876 . S
C1106 C871 1.968 . S
C1111 C91 1.967 . S
C1116 C370 1.875 . S
C1121 C121 1.967 . S
C1126 C400 1.874 . S
C1131 C430 1.878 . S
C1136 C151 1.970 1_565 S
C1141 C181 1.878 1_565 S
C1146 C640 1.970 . S
C1151 C670 1.967 . S
C1156 C211 1.874 . S
C1161 C241 1.874 . S
C1166 C700 1.967 . S
C1171 C901 1.878 . S
C1176 C280 1.970 1_655 S
C1181 C310 1.967 . S
C1186 C931 1.874 . S
C1191 C961 1.875 . S
C1196 C340 1.967 . S
C1201 C730 1.878 . S
C1206 C451 1.970 . S
C1211 C481 1.970 . S
C1216 C760 1.878 . S
C1221 C790 1.874 . S
C1226 C511 1.967 . S
C1231 C541 1.874 . S
C1236 C1000 1.966 . S
C1241 C571 1.874 . S
C1246 C1030 1.967 . S
C1251 C1060 1.968 . S
C1256 C601 1.876 . S
C1261 C1 1.612 . S
C1266 C190 1.612 . S
C1271 C220 1.612 . S
C1276 C31 1.612 . S
C1281 C61 1.612 . S
C1286 C250 1.612 . S
C1291 C271 1.595 . S
C1296 C100 1.595 . S
C1301 C130 1.595 . S
C1306 C301 1.595 . S
C1311 C331 1.595 . S
C1316 C160 1.595 . S
C1321 C550 1.612 . S
C1326 C361 1.612 . S
C1331 C391 1.611 . S
C1336 C580 1.611 . S
C1341 C610 1.611 . S
C1346 C421 1.611 . S
C1351 C460 1.595 . S
C1356 C631 1.595 . S
C1361 C661 1.595 . S
C1366 C490 1.595 . S
C1371 C520 1.594 . S
C1376 C691 1.594 . S
C1381 C721 1.612 . S
C1386 C910 1.612 . S
C1391 C940 1.612 . S
C1396 C751 1.612 . S
C1401 C970 1.612 . S
C1406 C781 1.612 . S
C1411 C991 1.595 . S
C1416 C820 1.595 . S
C1421 C850 1.595 . S
C1426 C1021 1.595 . S
C1431 C880 1.595 . S
C1436 C1051 1.595 . S
C1441 N14 1.369 . S
C1446 C87 1.330 . S
C1451 N44 1.370 . S
C1456 C27 1.333 . S
C1461 C57 1.330 . S
C1466 N74 1.369 . S
C1471 C106 1.447 . S
C1476 N126 1.399 . S
C1481 N156 1.397 . S
C1486 C136 1.446 . S
C1491 N96 1.396 . S
C1496 C166 1.445 . S
C1501 C256 1.333 . S
C1506 N186 1.370 . S
C1511 N216 1.369 . S
C1516 C196 1.331 . S
C1521 N246 1.370 . S
C1526 C226 1.333 . S
C1531 N314 1.395 . S
C1536 C297 1.445 . S
C1541 C327 1.447 . S
C1546 N344 1.398 . S
C1551 C357 1.447 . S
C1556 N284 1.398 . S
C1561 C447 1.331 1_545 S
C1566 N374 1.369 . S
C1571 C387 1.332 . S
C1576 N404 1.370 . S
C1581 C417 1.333 . S
C1586 N434 1.370 . S
C1591 N486 1.395 . S
C1596 C466 1.445 . S
C1601 C496 1.445 . S
C1606 N516 1.395 . S
C1611 N456 1.398 . S
C1616 C526 1.447 . S
C1621 N546 1.370 . S
C1626 C616 1.332 . S
C1631 C556 1.330 . S
C1636 N576 1.369 . S
C1641 N606 1.370 . S
C1646 C586 1.332 . S
C1651 N674 1.399 . S
C1656 C657 1.447 . S
C1661 N704 1.397 . S
C1666 C687 1.450 . S
C1671 N644 1.397 . S
C1676 C717 1.446 . S
C1681 C807 1.333 . S
C1686 N734 1.370 . S
C1691 N764 1.369 . S
C1696 C747 1.330 . S
C1701 C777 1.330 . S
C1706 N794 1.369 . S
C1711 C826 1.447 . S
C1716 N846 1.399 . S
C1721 C856 1.445 . S
C1726 N876 1.395 . S
C1731 N816 1.398 . S
C1736 C886 1.449 . S
C1741 N906 1.370 . S
C1746 C976 1.333 . S
C1751 N936 1.369 . S
C1756 C916 1.330 1_455 S
C1761 C946 1.333 . S
C1766 N966 1.370 . S
C1771 C1017 1.447 . S
C1776 N1034 1.399 . S
C1781 N1064 1.399 . S
C1786 C1047 1.447 . S
C1791 N1004 1.397 . S
C1796 C1077 1.446 . S
C1801 C76 1.196 . S
C1806 N6 1.202 . S
C1811 N36 1.200 . S
C1816 C16 1.193 . S
C1821 C46 1.197 . S
C1826 N66 1.202 . S
C1831 N134 0.968 . S
C1836 C117 0.992 . S
C1841 C147 0.991 . S
C1846 N164 0.967 . S
C1851 C177 0.992 . S
C1856 N104 0.967 . S
C1861 C267 1.196 . S
C1866 N194 1.201 . S
C1871 N224 1.199 . S
C1876 C207 1.194 . S
C1881 C237 1.194 . S
C1886 N254 1.199 . S
C1891 N306 0.961 . S
C1896 C286 0.987 . S
C1901 N336 0.966 . S
C1906 C316 0.991 . S
C1911 N276 0.968 . S
C1916 C346 0.992 . S
C1921 N366 1.199 . S
C1926 C436 1.193 . S
C1931 N396 1.200 . S
C1936 C376 1.195 . S
C1941 N426 1.200 . S
C1946 C406 1.193 . S
C1951 N494 0.968 . S
C1956 C477 0.992 . S
C1961 C507 0.989 1_545 S
C1966 N524 0.964 . S
C1971 C537 0.990 . S
C1976 N464 0.965 . S
C1981 C627 1.194 . S
C1986 N554 1.201 . S
C1991 C567 1.196 . S
C1996 N584 1.202 . S
C2001 N614 1.202 . S
C2006 C597 1.197 . S
C2011 N666 0.967 . S
C2016 C646 0.992 . S
C2021 C676 0.988 . S
C2026 N696 0.963 . S
C2031 C706 0.987 . S
C2036 N636 0.961 . S
C2041 N726 1.200 . S
C2046 C796 1.193 . S
C2051 C736 1.196 . S
C2056 N756 1.202 . S
C2061 C766 1.197 . S
C2066 N786 1.202 . S
C2071 N854 0.968 . S
C2076 C837 0.992 . S
C2081 C867 0.988 . S
C2086 N884 0.963 . S
C2091 C897 0.992 . S
C2096 N824 0.967 . S
C2101 C987 1.193 . S
C2106 N914 1.200 . S
C2111 C927 1.195 . S
C2116 N944 1.199 . S
C2121 N974 1.202 . S
C2126 C957 1.197 . S
C2131 N1026 0.961 . S
C2136 C1006 0.987 . S
C2141 C1036 0.988 . S
C2146 N1056 0.963 . S
C2151 C1066 0.992 1_455 S
C2156 N996 0.968 . S
