# Generated by pormake.
# Topology vbp, (6)-cn, num edge types: 1
# Building blocks:
#     Node 0, Type 0, BuildingBlock: IZENUY_clean_sbu_0, # of connection points: 6
#     Node 1, Type 0, BuildingBlock: IZENUY_clean_sbu_0, # of connection points: 6
#     Node 2, Type 0, BuildingBlock: IZENUY_clean_sbu_0, # of connection points: 6
#     Node 3, Type 0, BuildingBlock: IZENUY_clean_sbu_0, # of connection points: 6
#     Node 4, Type 0, BuildingBlock: IZENUY_clean_sbu_0, # of connection points: 6
#     Node 5, Type 0, BuildingBlock: IZENUY_clean_sbu_0, # of connection points: 6
#     Node 6, Type 0, BuildingBlock: IZENUY_clean_sbu_0, # of connection points: 6
#     Node 7, Type 0, BuildingBlock: IZENUY_clean_sbu_0, # of connection points: 6
#     Node 8, Type 0, BuildingBlock: IZENUY_clean_sbu_0, # of connection points: 6
#     Node 9, Type 0, BuildingBlock: IZENUY_clean_sbu_0, # of connection points: 6
#     Node 10, Type 0, BuildingBlock: IZENUY_clean_sbu_0, # of connection points: 6
#     Node 11, Type 0, BuildingBlock: IZENUY_clean_sbu_0, # of connection points: 6
#     Node 12, Type 0, BuildingBlock: IZENUY_clean_sbu_0, # of connection points: 6
#     Node 13, Type 0, BuildingBlock: IZENUY_clean_sbu_0, # of connection points: 6
#     Node 14, Type 0, BuildingBlock: IZENUY_clean_sbu_0, # of connection points: 6
#     Node 15, Type 0, BuildingBlock: IZENUY_clean_sbu_0, # of connection points: 6
#     Edge 16, Type (0, 0), None
#     Edge 17, Type (0, 0), None
#     Edge 18, Type (0, 0), None
#     Edge 19, Type (0, 0), None
#     Edge 20, Type (0, 0), None
#     Edge 21, Type (0, 0), None
#     Edge 22, Type (0, 0), None
#     Edge 23, Type (0, 0), None
#     Edge 24, Type (0, 0), None
#     Edge 25, Type (0, 0), None
#     Edge 26, Type (0, 0), None
#     Edge 27, Type (0, 0), None
#     Edge 28, Type (0, 0), None
#     Edge 29, Type (0, 0), None
#     Edge 30, Type (0, 0), None
#     Edge 31, Type (0, 0), None
#     Edge 32, Type (0, 0), None
#     Edge 33, Type (0, 0), None
#     Edge 34, Type (0, 0), None
#     Edge 35, Type (0, 0), None
#     Edge 36, Type (0, 0), None
#     Edge 37, Type (0, 0), None
#     Edge 38, Type (0, 0), None
#     Edge 39, Type (0, 0), None
#     Edge 40, Type (0, 0), None
#     Edge 41, Type (0, 0), None
#     Edge 42, Type (0, 0), None
#     Edge 43, Type (0, 0), None
#     Edge 44, Type (0, 0), None
#     Edge 45, Type (0, 0), None
#     Edge 46, Type (0, 0), None
#     Edge 47, Type (0, 0), None
#     Edge 48, Type (0, 0), None
#     Edge 49, Type (0, 0), None
#     Edge 50, Type (0, 0), None
#     Edge 51, Type (0, 0), None
#     Edge 52, Type (0, 0), None
#     Edge 53, Type (0, 0), None
#     Edge 54, Type (0, 0), None
#     Edge 55, Type (0, 0), None
#     Edge 56, Type (0, 0), None
#     Edge 57, Type (0, 0), None
#     Edge 58, Type (0, 0), None
#     Edge 59, Type (0, 0), None
#     Edge 60, Type (0, 0), None
#     Edge 61, Type (0, 0), None
#     Edge 62, Type (0, 0), None
#     Edge 63, Type (0, 0), None
# Relax obj value: 0.268
# Max RMSD: 0.259
# Mean RMSD: 0.259
data_MOF--net-vbp--node1-IZENUY_clean_sbu_0--edge1-none
_symmetry_space_group_name_H-M    P1
_symmetry_Int_Tables_number       1
_symmetry_cell_setting            triclinic
loop_
_symmetry_equiv_pos_as_xyz
'x, y, z'
_cell_length_a     13.424995
_cell_length_b     19.202999
_cell_length_c     24.073025
_cell_angle_alpha  90.001593
_cell_angle_beta   90.000002
_cell_angle_gamma 89.999863
loop_
_atom_site_label
_atom_site_type_symbol
_atom_site_fract_x
_atom_site_fract_y
_atom_site_fract_z
_atom_type_partial_charge
Fe0 Fe 0.31546 0.18216 0.20408 0.0
Fe1 Fe 0.47998 0.17439 0.11807 0.0
O2 O 0.39978 0.13191 0.16634 0.0
Fe3 Fe 0.39623 1.03754 0.17115 0.0
O4 O 0.26714 1.03598 0.14933 0.0
O5 O 0.2162 0.11854 0.20624 0.0
O6 O 0.25572 0.21388 0.13542 0.0
C7 C 0.29611 0.23001 0.08814 0.0
C8 C 0.3664 0.07368 0.28106 0.0
O9 O 0.38986 0.23637 0.08791 0.0
C10 C 0.59699 0.07065 0.17255 0.0
O11 O 0.40146 0.2604 0.21009 0.0
O12 O 0.53653 0.23306 0.16573 0.0
O13 O 0.35868 1.03177 0.24213 0.0
O14 O 0.36476 0.14112 0.2714 0.0
C15 C 0.46537 0.05956 0.06753 0.0
O16 O 0.58338 0.12143 0.14054 0.0
O17 O 0.52608 1.03515 0.19331 0.0
C18 C 0.49405 0.27113 0.19967 0.0
O19 O 0.42954 0.11802 0.06861 0.0
O20 O 0.43549 1.01689 0.102 0.0
C21 C 0.19869 0.0668 0.17611 0.0
Fe22 Fe 0.55302 0.43873 0.11806 0.0
Fe23 Fe 0.63677 0.57556 0.17116 0.0
O24 O 0.63321 0.48119 0.16634 0.0
Fe25 Fe 0.71754 0.43094 0.20408 0.0
O26 O 0.77726 0.39921 0.13541 0.0
O27 O 0.64313 0.37675 0.08788 0.0
O28 O 0.60348 0.49511 0.06862 0.0
C29 C 0.56763 0.55356 0.06753 0.0
C30 C 0.53894 0.34203 0.19967 0.0
O31 O 0.59746 0.59623 0.10202 0.0
C32 C 0.66663 0.53943 0.28106 0.0
O33 O 0.44962 0.49169 0.14054 0.0
O34 O 0.50692 0.57795 0.19333 0.0
O35 O 0.63152 0.35271 0.2101 0.0
O36 O 0.49645 0.38004 0.16568 0.0
C37 C 0.8343 0.54631 0.1761 0.0
O38 O 0.67435 0.58133 0.24213 0.0
O39 O 0.66827 0.47199 0.2714 0.0
C40 C 0.43601 0.54246 0.17257 0.0
O41 O 0.76584 0.57713 0.14932 0.0
O42 O 0.8168 0.49456 0.20622 0.0
C43 C 0.73688 0.3831 0.08812 0.0
Fe44 Fe 0.39623 0.07557 0.44778 0.0
Fe45 Fe 0.31546 0.93095 0.41485 0.0
O46 O 0.39978 0.9812 0.45258 0.0
Fe47 Fe 0.47998 0.93872 0.50085 0.0
O48 O 0.42955 0.99509 0.55032 0.0
O49 O 0.43549 0.09622 0.51693 0.0
O50 O 0.26714 0.07713 0.4696 0.0
C51 C 0.19869 1.04631 0.44281 0.0
C52 C 0.59699 1.04246 0.44638 0.0
O53 O 0.2162 0.99457 0.41269 0.0
C54 C 0.49405 0.84198 0.41925 0.0
O55 O 0.35868 0.08134 0.3768 0.0
O56 O 0.36476 0.97199 0.34753 0.0
O57 O 0.58338 0.99168 0.47839 0.0
O58 O 0.52608 0.07797 0.42562 0.0
C59 C 0.29611 0.8831 0.53079 0.0
O60 O 0.40146 0.85271 0.40884 0.0
O61 O 0.53653 0.88005 0.4532 0.0
C62 C 0.3664 1.03943 0.33787 0.0
O63 O 0.25572 0.89923 0.4835 0.0
O64 O 0.38986 0.87674 0.53102 0.0
C65 C 0.46537 1.05355 0.5514 0.0
Fe66 Fe 0.55302 0.67438 0.50087 0.0
Fe67 Fe 0.63677 0.53755 0.44777 0.0
O68 O 0.63321 0.63192 0.45259 0.0
Fe69 Fe 0.71754 0.68217 0.41485 0.0
O70 O 0.77726 0.7139 0.48351 0.0
O71 O 0.64313 0.73636 0.53105 0.0
O72 O 0.60348 0.618 0.55031 0.0
C73 C 0.56763 0.55955 0.5514 0.0
C74 C 0.53894 0.77109 0.41926 0.0
O75 O 0.59746 0.51688 0.51691 0.0
C76 C 0.66663 0.57368 0.33787 0.0
O77 O 0.44962 0.62142 0.47839 0.0
O78 O 0.50692 0.53516 0.4256 0.0
O79 O 0.63152 0.7604 0.40882 0.0
O80 O 0.49645 0.73307 0.45324 0.0
C81 C 0.8343 0.56681 0.44283 0.0
O82 O 0.67435 0.53177 0.3768 0.0
O83 O 0.66827 0.64112 0.34753 0.0
C84 C 0.43601 0.57065 0.44636 0.0
O85 O 0.76584 0.53598 0.4696 0.0
O86 O 0.8168 0.61855 0.41271 0.0
C87 C 0.73688 0.73002 0.53081 0.0
Fe88 Fe 0.55305 0.93867 1.00084 0.0
Fe89 Fe 0.71758 0.93093 0.91484 0.0
O90 O 0.63324 0.98116 0.95257 0.0
Fe91 Fe 0.63676 0.07553 0.94777 0.0
O92 O 0.59741 0.09616 1.0169 0.0
O93 O 0.60351 0.995 1.05033 0.0
O94 O 0.64316 0.87666 1.03099 0.0
C95 C 0.73691 0.88304 1.03078 0.0
C96 C 0.43602 1.04243 0.94637 0.0
O97 O 0.77731 0.8992 0.9835 0.0
C98 C 0.66668 1.03942 0.83787 0.0
O99 O 0.4965 0.88001 0.95316 0.0
O100 O 0.63159 0.85269 0.90882 0.0
O101 O 0.50692 0.0779 0.92558 0.0
O102 O 0.44964 0.99166 0.9784 0.0
C103 C 0.8343 1.04628 0.94283 0.0
O104 O 0.66829 0.97198 0.84752 0.0
O105 O 0.67437 0.08132 0.8768 0.0
C106 C 0.53898 0.84197 0.91918 0.0
O107 O 0.81681 0.99455 0.91269 0.0
O108 O 0.76584 0.0771 0.96961 0.0
C109 C 0.56776 1.05348 1.05143 0.0
Fe110 Fe 0.31542 0.68219 0.91485 0.0
Fe111 Fe 0.39624 0.53759 0.94776 0.0
O112 O 0.39976 0.63196 0.95257 0.0
Fe113 Fe 0.47995 0.67443 1.00085 0.0
O114 O 0.38985 0.73644 1.03101 0.0
O115 O 0.2557 0.71393 0.98351 0.0
O116 O 0.21618 0.61857 0.91272 0.0
C117 C 0.1987 0.56683 0.94285 0.0
C118 C 0.49403 0.77109 0.91919 0.0
O119 O 0.26717 0.53601 0.96962 0.0
C120 C 0.59698 0.57068 0.94636 0.0
O121 O 0.36468 0.64113 0.84752 0.0
O122 O 0.3586 0.53179 0.8768 0.0
O123 O 0.53651 0.73311 0.9532 0.0
O124 O 0.40142 0.76042 0.90881 0.0
C125 C 0.46524 0.55962 1.05142 0.0
O126 O 0.52607 0.53522 0.92555 0.0
O127 O 0.58335 0.62144 0.9784 0.0
C128 C 0.36628 0.57369 0.83787 0.0
O129 O 0.43564 0.51694 1.01688 0.0
O130 O 0.42946 0.61809 1.05032 0.0
C131 C 0.2961 0.73008 1.0308 0.0
Fe132 Fe 0.55305 0.17444 0.61809 0.0
Fe133 Fe 0.71758 0.18218 0.70409 0.0
O134 O 0.63324 0.13195 0.66636 0.0
Fe135 Fe 0.63676 1.03758 0.67116 0.0
O136 O 0.59741 1.01695 0.60203 0.0
O137 O 0.6035 0.11812 0.5686 0.0
O138 O 0.64316 0.23645 0.58794 0.0
C139 C 0.73691 0.23007 0.58815 0.0
C140 C 0.43602 0.07068 0.67255 0.0
O141 O 0.77731 0.21391 0.63543 0.0
C142 C 0.66668 0.07369 0.78106 0.0
O143 O 0.4965 0.2331 0.66577 0.0
O144 O 0.63159 0.26042 0.71011 0.0
O145 O 0.50692 1.0352 0.69335 0.0
O146 O 0.44964 0.12145 0.64053 0.0
C147 C 0.8343 0.06683 0.6761 0.0
O148 O 0.66829 0.14113 0.77141 0.0
O149 O 0.67436 1.03179 0.74213 0.0
C150 C 0.53898 0.27114 0.69975 0.0
O151 O 0.81681 0.11856 0.70624 0.0
O152 O 0.76584 1.03601 0.64932 0.0
C153 C 0.56776 0.05964 0.5675 0.0
Fe154 Fe 0.47995 0.43868 0.61808 0.0
Fe155 Fe 0.31542 0.43092 0.70408 0.0
O156 O 0.39977 0.48116 0.66635 0.0
Fe157 Fe 0.39624 0.57552 0.67117 0.0
O158 O 0.43563 0.59617 0.60205 0.0
O159 O 0.42947 0.49502 0.56861 0.0
O160 O 0.38985 0.37667 0.58792 0.0
C161 C 0.2961 0.38304 0.58813 0.0
C162 C 0.59698 0.54243 0.67257 0.0
O163 O 0.25571 0.39918 0.63542 0.0
C164 C 0.36628 0.53942 0.78106 0.0
O165 O 0.53652 0.38 0.66573 0.0
O166 O 0.40142 0.35269 0.71012 0.0
O167 O 0.52607 0.57789 0.69337 0.0
O168 O 0.58335 0.49167 0.64053 0.0
C169 C 0.1987 0.54628 0.67608 0.0
O170 O 0.36468 0.47198 0.77141 0.0
O171 O 0.3586 0.58132 0.74213 0.0
C172 C 0.49403 0.34202 0.69974 0.0
O173 O 0.21618 0.49454 0.70621 0.0
O174 O 0.26717 0.5771 0.64931 0.0
C175 C 0.46524 0.55349 0.56751 0.0
Fe176 Fe 0.81546 0.68216 0.70408 0.0
Fe177 Fe 0.97998 0.67439 0.61807 0.0
O178 O 0.89978 0.63191 0.66634 0.0
Fe179 Fe 0.89623 0.53754 0.67115 0.0
O180 O 0.76715 0.53598 0.64933 0.0
O181 O 0.71621 0.61854 0.70624 0.0
O182 O 0.75572 0.71388 0.63543 0.0
C183 C 0.79611 0.72999 0.58814 0.0
C184 C 0.86641 0.57368 0.78106 0.0
O185 O 0.88986 0.73637 0.58791 0.0
C186 C 0.09699 0.57067 0.67257 0.0
O187 O 0.90146 0.7604 0.71009 0.0
O188 O 0.03653 0.73306 0.66573 0.0
O189 O 0.85868 0.53177 0.74213 0.0
O190 O 0.86476 0.64112 0.7714 0.0
C191 C 0.96537 0.55956 0.56753 0.0
O192 O 0.08339 0.62143 0.64054 0.0
O193 O 0.02609 0.53514 0.69331 0.0
C194 C 0.99405 0.77113 0.69967 0.0
O195 O 0.92955 0.61802 0.56861 0.0
O196 O 0.93549 0.51689 0.602 0.0
C197 C 0.69869 0.5668 0.67612 0.0
Fe198 Fe 0.05301 0.93873 0.61806 0.0
Fe199 Fe 0.13676 0.07557 0.67116 0.0
O200 O 0.13321 0.98119 0.66634 0.0
Fe201 Fe 0.21754 0.93094 0.70408 0.0
O202 O 0.27727 0.89921 0.63542 0.0
O203 O 0.14313 0.87675 0.58788 0.0
O204 O 0.10348 0.99511 0.56862 0.0
C205 C 0.06763 1.05356 0.56753 0.0
C206 C 0.03894 0.84203 0.69967 0.0
O207 O 0.09746 0.09623 0.60202 0.0
C208 C 0.16662 1.03943 0.78106 0.0
O209 O 0.94962 0.99169 0.64054 0.0
O210 O 1.00692 0.07796 0.69333 0.0
O211 O 0.13152 0.85271 0.7101 0.0
O212 O 0.99645 0.88004 0.66569 0.0
C213 C 0.3343 1.04631 0.6761 0.0
O214 O 0.17435 0.08134 0.74213 0.0
O215 O 0.16826 0.97199 0.7714 0.0
C216 C 0.93601 1.04244 0.67258 0.0
O217 O 0.26584 0.07713 0.64933 0.0
O218 O 0.3168 0.99456 0.70622 0.0
C219 C 0.23688 0.88311 0.58812 0.0
Fe220 Fe 0.89623 0.57557 0.94778 0.0
Fe221 Fe 0.81546 0.43095 0.91484 0.0
O222 O 0.89978 0.4812 0.95258 0.0
Fe223 Fe 0.97998 0.43872 1.00085 0.0
O224 O 0.92955 0.49509 1.05032 0.0
O225 O 0.93549 0.59622 1.01693 0.0
O226 O 0.76715 0.57713 0.96959 0.0
C227 C 0.69869 0.54631 0.94281 0.0
C228 C 0.09699 0.54245 0.94636 0.0
O229 O 0.71621 0.49457 0.91268 0.0
C230 C 0.99405 0.34198 0.91925 0.0
O231 O 0.85869 0.58134 0.8768 0.0
O232 O 0.86476 0.47199 0.84753 0.0
O233 O 0.08339 0.49168 0.97839 0.0
O234 O 0.02609 0.57797 0.92563 0.0
C235 C 0.79611 0.38312 1.03079 0.0
O236 O 0.90146 0.35271 0.90884 0.0
O237 O 0.03653 0.38005 0.9532 0.0
C238 C 0.8664 0.53943 0.83787 0.0
O239 O 0.75572 0.39923 0.9835 0.0
O240 O 0.88986 0.37674 1.03102 0.0
C241 C 0.96537 0.55355 1.0514 0.0
Fe242 Fe 0.13677 1.03755 0.94777 0.0
Fe243 Fe 0.21754 0.18217 0.91485 0.0
O244 O 0.13321 0.13192 0.95259 0.0
Fe245 Fe 0.05301 0.17438 1.00087 0.0
O246 O 0.10348 0.118 1.05031 0.0
O247 O 0.09746 1.01688 1.01691 0.0
O248 O 0.26584 1.03598 0.9696 0.0
C249 C 0.3343 0.0668 0.94283 0.0
C250 C 0.93601 0.07067 0.94635 0.0
O251 O 0.3168 0.11855 0.91271 0.0
C252 C 0.03894 0.27109 0.91926 0.0
O253 O 0.17434 1.03177 0.8768 0.0
O254 O 0.16826 0.14112 0.84753 0.0
O255 O 0.94962 0.12142 0.97839 0.0
O256 O 1.00692 1.03515 0.9256 0.0
C257 C 0.23687 0.23 1.03081 0.0
O258 O 0.13152 0.2604 0.90882 0.0
O259 O 0.99645 0.23307 0.95324 0.0
C260 C 0.16663 0.07368 0.83787 0.0
O261 O 0.27727 0.2139 0.98351 0.0
O262 O 0.14313 0.23636 1.03105 0.0
C263 C 0.06763 0.05955 1.0514 0.0
Fe264 Fe 0.21757 0.43093 0.41484 0.0
Fe265 Fe 0.13676 0.57553 0.44777 0.0
O266 O 0.13323 0.48116 0.45257 0.0
Fe267 Fe 0.05304 0.43867 0.50084 0.0
O268 O 0.14316 0.37666 0.53098 0.0
O269 O 0.27731 0.3992 0.4835 0.0
O270 O 0.3168 0.49455 0.41269 0.0
C271 C 0.3343 0.54629 0.44283 0.0
C272 C 0.03898 0.34197 0.41918 0.0
O273 O 0.26583 0.5771 0.46961 0.0
C274 C 0.93602 0.54241 0.44636 0.0
O275 O 0.16829 0.47198 0.34752 0.0
O276 O 0.17436 0.58132 0.3768 0.0
O277 O 0.9965 0.38001 0.45316 0.0
O278 O 0.13159 0.35269 0.40882 0.0
C279 C 0.06776 0.55348 0.55143 0.0
O280 O 1.00692 0.57791 0.42558 0.0
O281 O 0.94964 0.49166 0.4784 0.0
C282 C 0.16668 0.53942 0.33787 0.0
O283 O 0.0974 0.59616 0.5169 0.0
O284 O 0.1035 0.495 0.55033 0.0
C285 C 0.2369 0.38306 0.53078 0.0
Fe286 Fe 0.81542 0.18219 0.41484 0.0
Fe287 Fe 0.89624 1.03759 0.44776 0.0
O288 O 0.89977 0.13196 0.45257 0.0
Fe289 Fe 0.97995 0.17443 0.50085 0.0
O290 O 0.88985 0.23644 0.53101 0.0
O291 O 0.7557 0.21393 0.48351 0.0
O292 O 0.71619 0.11857 0.41271 0.0
C293 C 0.6987 0.06683 0.44284 0.0
C294 C 0.99403 0.27109 0.41919 0.0
O295 O 0.76718 1.03601 0.46962 0.0
C296 C 0.09698 0.0707 0.44634 0.0
O297 O 0.86469 0.14113 0.34752 0.0
O298 O 0.8586 1.03179 0.3768 0.0
O299 O 0.03652 0.23311 0.4532 0.0
O300 O 0.90142 0.26042 0.40881 0.0
C301 C 0.96524 0.05962 0.55142 0.0
O302 O 0.02607 1.03522 0.42556 0.0
O303 O 0.08335 0.12144 0.4784 0.0
C304 C 0.86629 0.07369 0.33787 0.0
O305 O 0.93564 1.01694 0.51688 0.0
O306 O 0.92947 0.11809 0.55032 0.0
C307 C 0.7961 0.23006 0.5308 0.0
Fe308 Fe 0.05304 0.67444 0.11809 0.0
Fe309 Fe 0.21757 0.68218 0.20409 0.0
O310 O 0.13323 0.63195 0.16636 0.0
Fe311 Fe 0.13676 0.53758 0.17116 0.0
O312 O 0.09741 0.51696 0.10203 0.0
O313 O 0.1035 0.61812 0.0686 0.0
O314 O 0.14316 0.73645 0.08795 0.0
C315 C 0.2369 0.73005 0.08815 0.0
C316 C 0.93602 0.5707 0.17257 0.0
O317 O 0.27731 0.71391 0.13543 0.0
C318 C 0.16668 0.57369 0.28106 0.0
O319 O 0.9965 0.7331 0.16577 0.0
O320 O 0.13159 0.76042 0.21011 0.0
O321 O 1.00692 0.5352 0.19334 0.0
O322 O 0.94964 0.62145 0.14053 0.0
C323 C 0.3343 0.56683 0.1761 0.0
O324 O 0.16829 0.64113 0.27141 0.0
O325 O 0.17436 0.53179 0.24213 0.0
C326 C 0.03898 0.77114 0.19975 0.0
O327 O 0.3168 0.61856 0.20624 0.0
O328 O 0.26583 0.53601 0.14932 0.0
C329 C 0.06776 0.55964 0.0675 0.0
Fe330 Fe 0.97996 0.93868 0.11808 0.0
Fe331 Fe 0.81542 0.93092 0.20408 0.0
O332 O 0.89977 0.98116 0.16635 0.0
Fe333 Fe 0.89624 0.07553 0.17117 0.0
O334 O 0.93563 0.09617 0.10205 0.0
O335 O 0.92947 0.99502 0.06861 0.0
O336 O 0.88985 0.87667 0.08792 0.0
C337 C 0.7961 0.88306 0.08813 0.0
C338 C 0.09698 1.04241 0.17258 0.0
O339 O 0.7557 0.89918 0.13542 0.0
C340 C 0.86629 1.03942 0.28106 0.0
O341 O 0.03652 0.88 0.16573 0.0
O342 O 0.90142 0.85269 0.21012 0.0
O343 O 0.02607 0.0779 0.19337 0.0
O344 O 0.08336 0.99167 0.14053 0.0
C345 C 0.6987 1.04628 0.17609 0.0
O346 O 0.86469 0.97198 0.27141 0.0
O347 O 0.85861 0.08132 0.24213 0.0
C348 C 0.99403 0.84202 0.19974 0.0
O349 O 0.71619 0.99454 0.20622 0.0
O350 O 0.76718 0.0771 0.14931 0.0
C351 C 0.96524 1.05349 0.0675 0.0
loop_
_geom_bond_atom_site_label_1
_geom_bond_atom_site_label_2
_geom_bond_distance
_geom_bond_site_symmetry_2
_ccdc_geom_bond_type
Fe0 O2 1.918 . S
Fe0 O5 1.997 . S
Fe0 O6 2.002 . S
Fe0 O11 1.976 . S
Fe0 O14 1.996 . S
Fe1 O2 1.918 . S
Fe1 O9 1.997 . S
Fe1 O12 1.996 . S
Fe1 O16 1.976 . S
Fe1 O19 2.002 . S
O2 Fe0 1.918 . S
O2 Fe1 1.918 . S
O2 Fe3 1.918 1_545 S
Fe3 O2 1.918 1_565 S
Fe3 O4 2.002 . S
Fe3 O13 1.976 1_565 S
Fe3 O17 1.997 . S
Fe3 O20 1.997 . S
O4 Fe3 2.002 . S
O4 C21 1.295 . S
O5 Fe0 1.997 . S
O5 C21 1.235 1_545 S
O6 Fe0 2.002 . S
O6 C7 1.295 . S
C7 O6 1.295 . S
C7 O9 1.235 . S
C8 O13 1.287 . S
C8 O14 1.255 . S
O9 Fe1 1.997 . S
O9 C7 1.235 . S
C10 O16 1.287 . S
C10 O17 1.245 1_545 S
O11 Fe0 1.976 . S
O11 C18 1.287 . S
O12 Fe1 1.996 . S
O12 C18 1.255 . S
O13 Fe3 1.976 1_545 S
O13 C8 1.287 . S
O14 Fe0 1.996 . S
O14 C8 1.255 . S
C15 O19 1.295 1_565 S
C15 O20 1.235 . S
O16 Fe1 1.976 . S
O16 C10 1.287 . S
O17 Fe3 1.997 . S
O17 C10 1.245 1_565 S
C18 O11 1.287 . S
C18 O12 1.255 . S
O19 Fe1 2.002 . S
O19 C15 1.295 1_545 S
O20 Fe3 1.997 . S
O20 C15 1.235 . S
C21 O4 1.295 . S
C21 O5 1.235 1_565 S
Fe22 O24 1.918 . S
Fe22 O27 1.997 . S
Fe22 O28 2.002 . S
Fe22 O33 1.976 . S
Fe22 O36 1.996 . S
Fe23 O24 1.918 . S
Fe23 O31 1.997 . S
Fe23 O34 1.996 . S
Fe23 O38 1.976 . S
Fe23 O41 2.002 . S
O24 Fe22 1.918 . S
O24 Fe23 1.918 . S
O24 Fe25 1.918 . S
Fe25 O24 1.918 . S
Fe25 O26 2.002 . S
Fe25 O35 1.976 . S
Fe25 O39 1.996 . S
Fe25 O42 1.997 . S
O26 Fe25 2.002 . S
O26 C43 1.295 . S
O27 Fe22 1.997 . S
O27 C43 1.235 . S
O28 Fe22 2.002 . S
O28 C29 1.295 . S
C29 O28 1.295 . S
C29 O31 1.235 . S
C30 O35 1.287 . S
C30 O36 1.255 . S
O31 Fe23 1.997 . S
O31 C29 1.235 . S
C32 O38 1.287 . S
C32 O39 1.255 . S
O33 Fe22 1.976 . S
O33 C40 1.287 . S
O34 Fe23 1.996 . S
O34 C40 1.255 . S
O35 Fe25 1.976 . S
O35 C30 1.287 . S
O36 Fe22 1.996 . S
O36 C30 1.255 . S
C37 O41 1.295 . S
C37 O42 1.235 . S
O38 Fe23 1.976 . S
O38 C32 1.287 . S
O39 Fe25 1.996 . S
O39 C32 1.255 . S
C40 O33 1.287 . S
C40 O34 1.255 . S
O41 Fe23 2.002 . S
O41 C37 1.295 . S
O42 Fe25 1.997 . S
O42 C37 1.235 . S
C43 O26 1.295 . S
C43 O27 1.235 . S
Fe44 O46 1.918 1_545 S
Fe44 O49 1.997 . S
Fe44 O50 2.002 . S
Fe44 O55 1.976 1_545 S
Fe44 O58 1.997 . S
Fe45 O46 1.918 . S
Fe45 O53 1.997 . S
Fe45 O56 1.996 . S
Fe45 O60 1.976 . S
Fe45 O63 2.002 . S
O46 Fe44 1.918 1_565 S
O46 Fe45 1.918 . S
O46 Fe47 1.918 . S
Fe47 O46 1.918 . S
Fe47 O48 2.002 . S
Fe47 O57 1.976 . S
Fe47 O61 1.996 . S
Fe47 O64 1.997 . S
O48 Fe47 2.002 . S
O48 C65 1.295 1_565 S
O49 Fe44 1.997 . S
O49 C65 1.235 . S
O50 Fe44 2.002 . S
O50 C51 1.295 . S
C51 O50 1.295 . S
C51 O53 1.235 1_545 S
C52 O57 1.287 . S
C52 O58 1.245 1_565 S
O53 Fe45 1.997 . S
O53 C51 1.235 1_565 S
C54 O60 1.287 . S
C54 O61 1.255 . S
O55 Fe44 1.976 1_565 S
O55 C62 1.287 . S
O56 Fe45 1.996 . S
O56 C62 1.255 . S
O57 Fe47 1.976 . S
O57 C52 1.287 . S
O58 Fe44 1.997 . S
O58 C52 1.245 1_545 S
C59 O63 1.295 . S
C59 O64 1.235 . S
O60 Fe45 1.976 . S
O60 C54 1.287 . S
O61 Fe47 1.996 . S
O61 C54 1.255 . S
C62 O55 1.287 . S
C62 O56 1.255 . S
O63 Fe45 2.002 . S
O63 C59 1.295 . S
O64 Fe47 1.997 . S
O64 C59 1.235 . S
C65 O48 1.295 1_545 S
C65 O49 1.235 . S
Fe66 O68 1.918 . S
Fe66 O71 1.997 . S
Fe66 O72 2.002 . S
Fe66 O77 1.976 . S
Fe66 O80 1.996 . S
Fe67 O68 1.918 . S
Fe67 O75 1.997 . S
Fe67 O78 1.996 . S
Fe67 O82 1.976 . S
Fe67 O85 2.002 . S
O68 Fe66 1.918 . S
O68 Fe67 1.918 . S
O68 Fe69 1.918 . S
Fe69 O68 1.918 . S
Fe69 O70 2.002 . S
Fe69 O79 1.976 . S
Fe69 O83 1.996 . S
Fe69 O86 1.997 . S
O70 Fe69 2.002 . S
O70 C87 1.295 . S
O71 Fe66 1.997 . S
O71 C87 1.235 . S
O72 Fe66 2.002 . S
O72 C73 1.295 . S
C73 O72 1.295 . S
C73 O75 1.235 . S
C74 O79 1.287 . S
C74 O80 1.255 . S
O75 Fe67 1.997 . S
O75 C73 1.235 . S
C76 O82 1.287 . S
C76 O83 1.255 . S
O77 Fe66 1.976 . S
O77 C84 1.287 . S
O78 Fe67 1.996 . S
O78 C84 1.255 . S
O79 Fe69 1.976 . S
O79 C74 1.287 . S
O80 Fe66 1.996 . S
O80 C74 1.255 . S
C81 O85 1.295 . S
C81 O86 1.235 . S
O82 Fe67 1.976 . S
O82 C76 1.287 . S
O83 Fe69 1.996 . S
O83 C76 1.255 . S
C84 O77 1.287 . S
C84 O78 1.255 . S
O85 Fe67 2.002 . S
O85 C81 1.295 . S
O86 Fe69 1.997 . S
O86 C81 1.235 . S
C87 O70 1.295 . S
C87 O71 1.235 . S
Fe88 O90 1.918 . S
Fe88 O93 1.997 . S
Fe88 O94 2.002 . S
Fe88 O99 1.976 . S
Fe88 O102 1.996 . S
Fe89 O90 1.918 . S
Fe89 O97 1.997 . S
Fe89 O100 1.996 . S
Fe89 O104 1.976 . S
Fe89 O107 2.002 . S
O90 Fe88 1.918 . S
O90 Fe89 1.918 . S
O90 Fe91 1.918 1_565 S
Fe91 O90 1.918 1_545 S
Fe91 O92 2.002 . S
Fe91 O101 1.976 1_545 S
Fe91 O105 1.996 1_545 S
Fe91 O108 1.997 . S
O92 Fe91 2.002 . S
O92 C109 1.295 . S
O93 Fe88 1.997 . S
O93 C109 1.235 1_565 S
O94 Fe88 2.002 . S
O94 C95 1.295 . S
C95 O94 1.295 . S
C95 O97 1.235 . S
C96 O101 1.287 . S
C96 O102 1.255 . S
O97 Fe89 1.997 . S
O97 C95 1.235 . S
C98 O104 1.287 . S
C98 O105 1.255 . S
O99 Fe88 1.976 . S
O99 C106 1.287 . S
O100 Fe89 1.996 . S
O100 C106 1.255 . S
O101 Fe91 1.976 1_565 S
O101 C96 1.287 . S
O102 Fe88 1.996 . S
O102 C96 1.255 . S
C103 O107 1.295 1_545 S
C103 O108 1.235 . S
O104 Fe89 1.976 . S
O104 C98 1.287 . S
O105 Fe91 1.996 1_565 S
O105 C98 1.255 . S
C106 O99 1.287 . S
C106 O100 1.255 . S
O107 Fe89 2.002 . S
O107 C103 1.295 1_565 S
O108 Fe91 1.997 . S
O108 C103 1.235 . S
C109 O92 1.295 . S
C109 O93 1.235 1_545 S
Fe110 O112 1.918 . S
Fe110 O115 1.997 . S
Fe110 O116 2.002 . S
Fe110 O121 1.976 . S
Fe110 O124 1.996 . S
Fe111 O112 1.918 . S
Fe111 O119 1.997 . S
Fe111 O122 1.996 . S
Fe111 O126 1.976 . S
Fe111 O129 2.002 . S
O112 Fe110 1.918 . S
O112 Fe111 1.918 . S
O112 Fe113 1.918 . S
Fe113 O112 1.918 . S
Fe113 O114 2.002 . S
Fe113 O123 1.976 . S
Fe113 O127 1.996 . S
Fe113 O130 1.997 . S
O114 Fe113 2.002 . S
O114 C131 1.295 . S
O115 Fe110 1.997 . S
O115 C131 1.235 . S
O116 Fe110 2.002 . S
O116 C117 1.295 . S
C117 O116 1.295 . S
C117 O119 1.235 . S
C118 O123 1.287 . S
C118 O124 1.255 . S
O119 Fe111 1.997 . S
O119 C117 1.235 . S
C120 O126 1.287 . S
C120 O127 1.255 . S
O121 Fe110 1.976 . S
O121 C128 1.287 . S
O122 Fe111 1.996 . S
O122 C128 1.255 . S
O123 Fe113 1.976 . S
O123 C118 1.287 . S
O124 Fe110 1.996 . S
O124 C118 1.255 . S
C125 O129 1.295 . S
C125 O130 1.235 . S
O126 Fe111 1.976 . S
O126 C120 1.287 . S
O127 Fe113 1.996 . S
O127 C120 1.255 . S
C128 O121 1.287 . S
C128 O122 1.255 . S
O129 Fe111 2.002 . S
O129 C125 1.295 . S
O130 Fe113 1.997 . S
O130 C125 1.235 . S
C131 O114 1.295 . S
C131 O115 1.235 . S
Fe132 O134 1.918 . S
Fe132 O137 1.997 . S
Fe132 O138 2.002 . S
Fe132 O143 1.976 . S
Fe132 O146 1.996 . S
Fe133 O134 1.918 . S
Fe133 O141 1.997 . S
Fe133 O144 1.996 . S
Fe133 O148 1.976 . S
Fe133 O151 2.002 . S
O134 Fe132 1.918 . S
O134 Fe133 1.918 . S
O134 Fe135 1.918 1_545 S
Fe135 O134 1.918 1_565 S
Fe135 O136 2.002 . S
Fe135 O145 1.976 1_565 S
Fe135 O149 1.996 1_565 S
Fe135 O152 1.997 . S
O136 Fe135 2.002 . S
O136 C153 1.295 . S
O137 Fe132 1.997 . S
O137 C153 1.235 1_545 S
O138 Fe132 2.002 . S
O138 C139 1.295 . S
C139 O138 1.295 . S
C139 O141 1.235 . S
C140 O145 1.287 . S
C140 O146 1.255 . S
O141 Fe133 1.997 . S
O141 C139 1.235 . S
C142 O148 1.287 . S
C142 O149 1.255 . S
O143 Fe132 1.976 . S
O143 C150 1.287 . S
O144 Fe133 1.996 . S
O144 C150 1.255 . S
O145 Fe135 1.976 1_545 S
O145 C140 1.287 . S
O146 Fe132 1.996 . S
O146 C140 1.255 . S
C147 O151 1.295 1_565 S
C147 O152 1.235 . S
O148 Fe133 1.976 . S
O148 C142 1.287 . S
O149 Fe135 1.996 1_545 S
O149 C142 1.255 . S
C150 O143 1.287 . S
C150 O144 1.255 . S
O151 Fe133 2.002 . S
O151 C147 1.295 1_545 S
O152 Fe135 1.997 . S
O152 C147 1.235 . S
C153 O136 1.295 . S
C153 O137 1.235 1_565 S
Fe154 O156 1.918 . S
Fe154 O159 1.997 . S
Fe154 O160 2.002 . S
Fe154 O165 1.976 . S
Fe154 O168 1.996 . S
Fe155 O156 1.918 . S
Fe155 O163 1.997 . S
Fe155 O166 1.996 . S
Fe155 O170 1.976 . S
Fe155 O173 2.002 . S
O156 Fe154 1.918 . S
O156 Fe155 1.918 . S
O156 Fe157 1.918 . S
Fe157 O156 1.918 . S
Fe157 O158 2.002 . S
Fe157 O167 1.976 . S
Fe157 O171 1.996 . S
Fe157 O174 1.997 . S
O158 Fe157 2.002 . S
O158 C175 1.295 . S
O159 Fe154 1.997 . S
O159 C175 1.235 . S
O160 Fe154 2.002 . S
O160 C161 1.295 . S
C161 O160 1.295 . S
C161 O163 1.235 . S
C162 O167 1.287 . S
C162 O168 1.255 . S
O163 Fe155 1.997 . S
O163 C161 1.235 . S
C164 O170 1.287 . S
C164 O171 1.255 . S
O165 Fe154 1.976 . S
O165 C172 1.287 . S
O166 Fe155 1.996 . S
O166 C172 1.255 . S
O167 Fe157 1.976 . S
O167 C162 1.287 . S
O168 Fe154 1.996 . S
O168 C162 1.255 . S
C169 O173 1.295 . S
C169 O174 1.235 . S
O170 Fe155 1.976 . S
O170 C164 1.287 . S
O171 Fe157 1.996 . S
O171 C164 1.255 . S
C172 O165 1.287 . S
C172 O166 1.255 . S
O173 Fe155 2.002 . S
O173 C169 1.295 . S
O174 Fe157 1.997 . S
O174 C169 1.235 . S
C175 O158 1.295 . S
C175 O159 1.235 . S
Fe176 O178 1.918 . S
Fe176 O181 1.997 . S
Fe176 O182 2.002 . S
Fe176 O187 1.976 . S
Fe176 O190 1.996 . S
Fe177 O178 1.918 1_455 S
Fe177 O185 1.996 1_455 S
Fe177 O188 1.996 . S
Fe177 O192 1.976 . S
Fe177 O195 2.002 . S
O178 Fe176 1.918 . S
O178 Fe177 1.918 1_655 S
O178 Fe179 1.918 . S
Fe179 O178 1.918 . S
Fe179 O180 2.002 . S
Fe179 O189 1.976 . S
Fe179 O193 1.996 1_655 S
Fe179 O196 1.997 . S
O180 Fe179 2.002 . S
O180 C197 1.295 . S
O181 Fe176 1.997 . S
O181 C197 1.235 . S
O182 Fe176 2.002 . S
O182 C183 1.295 . S
C183 O182 1.295 . S
C183 O185 1.235 . S
C184 O189 1.287 . S
C184 O190 1.255 . S
O185 Fe177 1.996 1_655 S
O185 C183 1.235 . S
C186 O192 1.287 . S
C186 O193 1.255 . S
O187 Fe176 1.976 . S
O187 C194 1.287 . S
O188 Fe177 1.996 . S
O188 C194 1.255 1_455 S
O189 Fe179 1.976 . S
O189 C184 1.287 . S
O190 Fe176 1.996 . S
O190 C184 1.255 . S
C191 O195 1.294 1_655 S
C191 O196 1.235 . S
O192 Fe177 1.976 . S
O192 C186 1.287 . S
O193 Fe179 1.996 1_455 S
O193 C186 1.255 . S
C194 O187 1.287 . S
C194 O188 1.255 1_655 S
O195 Fe177 2.002 . S
O195 C191 1.294 1_455 S
O196 Fe179 1.997 . S
O196 C191 1.235 . S
C197 O180 1.295 . S
C197 O181 1.235 . S
Fe198 O200 1.918 1_655 S
Fe198 O203 1.996 1_655 S
Fe198 O204 2.002 . S
Fe198 O209 1.976 . S
Fe198 O212 1.996 . S
Fe199 O200 1.918 1_545 S
Fe199 O207 1.997 . S
Fe199 O210 1.997 1_455 S
Fe199 O214 1.976 1_545 S
Fe199 O217 2.002 . S
O200 Fe198 1.918 1_455 S
O200 Fe199 1.918 1_565 S
O200 Fe201 1.918 . S
Fe201 O200 1.918 . S
Fe201 O202 2.002 . S
Fe201 O211 1.976 . S
Fe201 O215 1.996 . S
Fe201 O218 1.997 . S
O202 Fe201 2.002 . S
O202 C219 1.295 . S
O203 Fe198 1.996 1_455 S
O203 C219 1.235 . S
O204 Fe198 2.002 . S
O204 C205 1.294 1_665 S
C205 O204 1.294 1_445 S
C205 O207 1.235 . S
C206 O211 1.287 . S
C206 O212 1.255 1_455 S
O207 Fe199 1.997 . S
O207 C205 1.235 . S
C208 O214 1.287 . S
C208 O215 1.255 . S
O209 Fe198 1.976 . S
O209 C216 1.287 . S
O210 Fe199 1.997 1_655 S
O210 C216 1.245 1_545 S
O211 Fe201 1.976 . S
O211 C206 1.287 . S
O212 Fe198 1.996 . S
O212 C206 1.255 1_655 S
C213 O217 1.295 . S
C213 O218 1.235 1_545 S
O214 Fe199 1.976 1_565 S
O214 C208 1.287 . S
O215 Fe201 1.996 . S
O215 C208 1.255 . S
C216 O209 1.287 . S
C216 O210 1.245 1_565 S
O217 Fe199 2.002 . S
O217 C213 1.295 . S
O218 Fe201 1.997 . S
O218 C213 1.235 1_565 S
C219 O202 1.295 . S
C219 O203 1.235 . S
Fe220 O222 1.918 . S
Fe220 O225 1.997 . S
Fe220 O226 2.002 . S
Fe220 O231 1.976 . S
Fe220 O234 1.996 1_655 S
Fe221 O222 1.918 . S
Fe221 O229 1.997 . S
Fe221 O232 1.996 . S
Fe221 O236 1.976 . S
Fe221 O239 2.002 . S
O222 Fe220 1.918 . S
O222 Fe221 1.918 . S
O222 Fe223 1.918 1_655 S
Fe223 O222 1.918 1_455 S
Fe223 O224 2.002 . S
Fe223 O233 1.976 . S
Fe223 O237 1.996 . S
Fe223 O240 1.996 1_455 S
O224 Fe223 2.002 . S
O224 C241 1.294 1_455 S
O225 Fe220 1.997 . S
O225 C241 1.235 . S
O226 Fe220 2.002 . S
O226 C227 1.295 . S
C227 O226 1.295 . S
C227 O229 1.235 . S
C228 O233 1.287 . S
C228 O234 1.255 . S
O229 Fe221 1.997 . S
O229 C227 1.235 . S
C230 O236 1.287 . S
C230 O237 1.255 1_655 S
O231 Fe220 1.976 . S
O231 C238 1.287 . S
O232 Fe221 1.996 . S
O232 C238 1.255 . S
O233 Fe223 1.976 . S
O233 C228 1.287 . S
O234 Fe220 1.996 1_455 S
O234 C228 1.255 . S
C235 O239 1.295 . S
C235 O240 1.235 . S
O236 Fe221 1.976 . S
O236 C230 1.287 . S
O237 Fe223 1.996 . S
O237 C230 1.255 1_455 S
C238 O231 1.287 . S
C238 O232 1.255 . S
O239 Fe221 2.002 . S
O239 C235 1.295 . S
O240 Fe223 1.996 1_655 S
O240 C235 1.235 . S
C241 O224 1.294 1_655 S
C241 O225 1.235 . S
Fe242 O244 1.918 1_565 S
Fe242 O247 1.997 . S
Fe242 O248 2.002 . S
Fe242 O253 1.976 1_565 S
Fe242 O256 1.997 1_455 S
Fe243 O244 1.918 . S
Fe243 O251 1.997 . S
Fe243 O254 1.996 . S
Fe243 O258 1.976 . S
Fe243 O261 2.002 . S
O244 Fe242 1.918 1_545 S
O244 Fe243 1.918 . S
O244 Fe245 1.918 1_455 S
Fe245 O244 1.918 1_655 S
Fe245 O246 2.002 . S
Fe245 O255 1.976 . S
Fe245 O259 1.996 . S
Fe245 O262 1.996 1_655 S
O246 Fe245 2.002 . S
O246 C263 1.294 1_645 S
O247 Fe242 1.997 . S
O247 C263 1.235 . S
O248 Fe242 2.002 . S
O248 C249 1.295 . S
C249 O248 1.295 . S
C249 O251 1.235 1_565 S
C250 O255 1.287 . S
C250 O256 1.245 1_545 S
O251 Fe243 1.997 . S
O251 C249 1.235 1_545 S
C252 O258 1.287 . S
C252 O259 1.255 1_455 S
O253 Fe242 1.976 1_545 S
O253 C260 1.287 . S
O254 Fe243 1.996 . S
O254 C260 1.255 . S
O255 Fe245 1.976 . S
O255 C250 1.287 . S
O256 Fe242 1.997 1_655 S
O256 C250 1.245 1_565 S
C257 O261 1.295 . S
C257 O262 1.235 . S
O258 Fe243 1.976 . S
O258 C252 1.287 . S
O259 Fe245 1.996 . S
O259 C252 1.255 1_655 S
C260 O253 1.287 . S
C260 O254 1.255 . S
O261 Fe243 2.002 . S
O261 C257 1.295 . S
O262 Fe245 1.996 1_455 S
O262 C257 1.235 . S
C263 O246 1.294 1_465 S
C263 O247 1.235 . S
Fe264 O266 1.918 . S
Fe264 O269 1.997 . S
Fe264 O270 2.002 . S
Fe264 O275 1.976 . S
Fe264 O278 1.996 . S
Fe265 O266 1.918 . S
Fe265 O273 1.997 . S
Fe265 O276 1.996 . S
Fe265 O280 1.976 1_455 S
Fe265 O283 2.002 . S
O266 Fe264 1.918 . S
O266 Fe265 1.918 . S
O266 Fe267 1.918 1_455 S
Fe267 O266 1.918 1_655 S
Fe267 O268 2.002 1_655 S
Fe267 O277 1.976 . S
Fe267 O281 1.996 . S
Fe267 O284 1.996 1_655 S
O268 Fe267 2.002 1_455 S
O268 C285 1.295 . S
O269 Fe264 1.997 . S
O269 C285 1.235 . S
O270 Fe264 2.002 . S
O270 C271 1.295 . S
C271 O270 1.295 . S
C271 O273 1.235 . S
C272 O277 1.287 1_455 S
C272 O278 1.255 . S
O273 Fe265 1.997 . S
O273 C271 1.235 . S
C274 O280 1.287 . S
C274 O281 1.255 . S
O275 Fe264 1.976 . S
O275 C282 1.287 . S
O276 Fe265 1.996 . S
O276 C282 1.255 . S
O277 Fe267 1.976 . S
O277 C272 1.287 1_655 S
O278 Fe264 1.996 . S
O278 C272 1.255 . S
C279 O283 1.295 . S
C279 O284 1.238 . S
O280 Fe265 1.976 1_655 S
O280 C274 1.287 . S
O281 Fe267 1.996 . S
O281 C274 1.255 . S
C282 O275 1.287 . S
C282 O276 1.255 . S
O283 Fe265 2.002 . S
O283 C279 1.295 . S
O284 Fe267 1.996 1_455 S
O284 C279 1.238 . S
C285 O268 1.295 . S
C285 O269 1.235 . S
Fe286 O288 1.918 . S
Fe286 O291 1.997 . S
Fe286 O292 2.002 . S
Fe286 O297 1.976 . S
Fe286 O300 1.996 . S
Fe287 O288 1.918 1_565 S
Fe287 O295 1.997 . S
Fe287 O298 1.996 1_565 S
Fe287 O302 1.976 1_665 S
Fe287 O305 2.002 . S
O288 Fe286 1.918 . S
O288 Fe287 1.918 1_545 S
O288 Fe289 1.918 1_655 S
Fe289 O288 1.918 1_455 S
Fe289 O290 2.002 1_455 S
Fe289 O299 1.976 . S
Fe289 O303 1.996 . S
Fe289 O306 1.996 1_455 S
O290 Fe289 2.002 1_655 S
O290 C307 1.295 . S
O291 Fe286 1.997 . S
O291 C307 1.235 . S
O292 Fe286 2.002 . S
O292 C293 1.295 1_545 S
C293 O292 1.295 1_565 S
C293 O295 1.235 . S
C294 O299 1.287 1_655 S
C294 O300 1.255 . S
O295 Fe287 1.997 . S
O295 C293 1.235 . S
C296 O302 1.287 . S
C296 O303 1.255 . S
O297 Fe286 1.976 . S
O297 C304 1.287 . S
O298 Fe287 1.996 1_545 S
O298 C304 1.255 . S
O299 Fe289 1.976 . S
O299 C294 1.287 1_455 S
O300 Fe286 1.996 . S
O300 C294 1.255 . S
C301 O305 1.295 . S
C301 O306 1.238 1_565 S
O302 Fe287 1.976 1_445 S
O302 C296 1.287 . S
O303 Fe289 1.996 . S
O303 C296 1.255 . S
C304 O297 1.287 . S
C304 O298 1.255 . S
O305 Fe287 2.002 . S
O305 C301 1.295 . S
O306 Fe289 1.996 1_655 S
O306 C301 1.238 1_545 S
C307 O290 1.295 . S
C307 O291 1.235 . S
Fe308 O310 1.918 1_655 S
Fe308 O313 1.996 1_655 S
Fe308 O314 2.002 1_655 S
Fe308 O319 1.976 . S
Fe308 O322 1.996 . S
Fe309 O310 1.918 . S
Fe309 O317 1.997 . S
Fe309 O320 1.996 . S
Fe309 O324 1.976 . S
Fe309 O327 2.002 . S
O310 Fe308 1.918 1_455 S
O310 Fe309 1.918 . S
O310 Fe311 1.918 . S
Fe311 O310 1.918 . S
Fe311 O312 2.002 . S
Fe311 O321 1.976 1_455 S
Fe311 O325 1.996 . S
Fe311 O328 1.997 . S
O312 Fe311 2.002 . S
O312 C329 1.295 . S
O313 Fe308 1.996 1_455 S
O313 C329 1.238 . S
O314 Fe308 2.002 1_455 S
O314 C315 1.295 . S
C315 O314 1.295 . S
C315 O317 1.235 . S
C316 O321 1.287 . S
C316 O322 1.255 . S
O317 Fe309 1.997 . S
O317 C315 1.235 . S
C318 O324 1.287 . S
C318 O325 1.255 . S
O319 Fe308 1.976 . S
O319 C326 1.287 1_655 S
O320 Fe309 1.996 . S
O320 C326 1.255 . S
O321 Fe311 1.976 1_655 S
O321 C316 1.287 . S
O322 Fe308 1.996 . S
O322 C316 1.255 . S
C323 O327 1.295 . S
C323 O328 1.235 . S
O324 Fe309 1.976 . S
O324 C318 1.287 . S
O325 Fe311 1.996 . S
O325 C318 1.255 . S
C326 O319 1.287 1_455 S
C326 O320 1.255 . S
O327 Fe309 2.002 . S
O327 C323 1.295 . S
O328 Fe311 1.997 . S
O328 C323 1.235 . S
C329 O312 1.295 . S
C329 O313 1.238 . S
Fe330 O332 1.918 1_455 S
Fe330 O335 1.996 1_455 S
Fe330 O336 2.002 1_455 S
Fe330 O341 1.976 . S
Fe330 O344 1.996 . S
Fe331 O332 1.918 . S
Fe331 O339 1.997 . S
Fe331 O342 1.996 . S
Fe331 O346 1.976 . S
Fe331 O349 2.002 . S
O332 Fe330 1.918 1_655 S
O332 Fe331 1.918 . S
O332 Fe333 1.918 1_565 S
Fe333 O332 1.918 1_545 S
Fe333 O334 2.002 . S
Fe333 O343 1.976 1_645 S
Fe333 O347 1.996 1_545 S
Fe333 O350 1.997 . S
O334 Fe333 2.002 . S
O334 C351 1.295 . S
O335 Fe330 1.996 1_655 S
O335 C351 1.238 1_565 S
O336 Fe330 2.002 1_655 S
O336 C337 1.295 . S
C337 O336 1.295 . S
C337 O339 1.235 . S
C338 O343 1.287 . S
C338 O344 1.255 . S
O339 Fe331 1.997 . S
O339 C337 1.235 . S
C340 O346 1.287 . S
C340 O347 1.255 . S
O341 Fe330 1.976 . S
O341 C348 1.287 1_455 S
O342 Fe331 1.996 . S
O342 C348 1.255 . S
O343 Fe333 1.976 1_465 S
O343 C338 1.287 . S
O344 Fe330 1.996 . S
O344 C338 1.255 . S
C345 O349 1.295 1_545 S
C345 O350 1.235 . S
O346 Fe331 1.976 . S
O346 C340 1.287 . S
O347 Fe333 1.996 1_565 S
O347 C340 1.255 . S
C348 O341 1.287 1_655 S
C348 O342 1.255 . S
O349 Fe331 2.002 . S
O349 C345 1.295 1_565 S
O350 Fe333 1.997 . S
O350 C345 1.235 . S
C351 O334 1.295 . S
C351 O335 1.238 1_545 S
C15 C109 1.590 1_564 S
C29 C125 1.590 1_554 S
C65 C153 1.590 1_545 S
C73 C175 1.590 . S
C191 C279 1.590 1_655 S
C205 C301 1.590 1_445 S
C241 C329 1.590 1_656 S
C263 C351 1.590 1_466 S
C8 C62 2.514 1_545 S
C32 C76 2.514 . S
C98 C142 2.410 1_565 S
C128 C164 2.410 . S
C238 C184 2.514 . S
C260 C208 2.514 1_545 S
C282 C318 2.410 . S
C304 C340 2.410 1_545 S
C7 C257 2.255 1_554 S
C235 C43 2.255 1_556 S
C59 C219 2.255 . S
C87 C183 2.255 . S
C95 C337 2.261 1_556 S
C131 C315 2.261 1_556 S
C307 C139 2.261 . S
C161 C285 2.261 . S
C10 C345 1.364 . S
C40 C323 1.364 . S
C52 C293 1.364 . S
C84 C271 1.364 . S
C249 C96 1.391 . S
C227 C120 1.391 . S
C213 C140 1.391 . S
C162 C197 1.391 . S
C169 C186 1.364 . S
C147 C216 1.364 . S
C117 C228 1.364 . S
C250 C103 1.364 . S
C274 C81 1.391 . S
C51 C296 1.391 . S
C316 C37 1.391 . S
C21 C338 1.391 . S
C18 C30 1.567 . S
C74 C54 1.567 . S
C106 C118 1.619 . S
C172 C150 1.619 . S
C206 C194 1.567 1_455 S
C230 C252 1.567 1_655 S
C294 C272 1.619 1_655 S
C348 C326 1.619 1_655 S
