# Generated by pormake.
# Topology ict, (4)-cn, num edge types: 1
# Building blocks:
#     Node 0, Type 0, BuildingBlock: NAHDIM_clean_sbu_0, # of connection points: 4
#     Node 1, Type 0, BuildingBlock: NAHDIM_clean_sbu_0, # of connection points: 4
#     Node 2, Type 0, BuildingBlock: NAHDIM_clean_sbu_0, # of connection points: 4
#     Node 3, Type 0, BuildingBlock: NAHDIM_clean_sbu_0, # of connection points: 4
#     Node 4, Type 0, BuildingBlock: NAHDIM_clean_sbu_0, # of connection points: 4
#     Node 5, Type 0, BuildingBlock: NAHDIM_clean_sbu_0, # of connection points: 4
#     Node 6, Type 0, BuildingBlock: NAHDIM_clean_sbu_0, # of connection points: 4
#     Node 7, Type 0, BuildingBlock: NAHDIM_clean_sbu_0, # of connection points: 4
#     Node 8, Type 0, BuildingBlock: NAHDIM_clean_sbu_0, # of connection points: 4
#     Node 9, Type 0, BuildingBlock: NAHDIM_clean_sbu_0, # of connection points: 4
#     Node 10, Type 0, BuildingBlock: NAHDIM_clean_sbu_0, # of connection points: 4
#     Node 11, Type 0, BuildingBlock: NAHDIM_clean_sbu_0, # of connection points: 4
#     Node 12, Type 0, BuildingBlock: NAHDIM_clean_sbu_0, # of connection points: 4
#     Node 13, Type 0, BuildingBlock: NAHDIM_clean_sbu_0, # of connection points: 4
#     Node 14, Type 0, BuildingBlock: NAHDIM_clean_sbu_0, # of connection points: 4
#     Node 15, Type 0, BuildingBlock: NAHDIM_clean_sbu_0, # of connection points: 4
#     Node 16, Type 0, BuildingBlock: NAHDIM_clean_sbu_0, # of connection points: 4
#     Node 17, Type 0, BuildingBlock: NAHDIM_clean_sbu_0, # of connection points: 4
#     Node 18, Type 0, BuildingBlock: NAHDIM_clean_sbu_0, # of connection points: 4
#     Node 19, Type 0, BuildingBlock: NAHDIM_clean_sbu_0, # of connection points: 4
#     Node 20, Type 0, BuildingBlock: NAHDIM_clean_sbu_0, # of connection points: 4
#     Node 21, Type 0, BuildingBlock: NAHDIM_clean_sbu_0, # of connection points: 4
#     Node 22, Type 0, BuildingBlock: NAHDIM_clean_sbu_0, # of connection points: 4
#     Node 23, Type 0, BuildingBlock: NAHDIM_clean_sbu_0, # of connection points: 4
#     Node 24, Type 0, BuildingBlock: NAHDIM_clean_sbu_0, # of connection points: 4
#     Node 25, Type 0, BuildingBlock: NAHDIM_clean_sbu_0, # of connection points: 4
#     Node 26, Type 0, BuildingBlock: NAHDIM_clean_sbu_0, # of connection points: 4
#     Node 27, Type 0, BuildingBlock: NAHDIM_clean_sbu_0, # of connection points: 4
#     Node 28, Type 0, BuildingBlock: NAHDIM_clean_sbu_0, # of connection points: 4
#     Node 29, Type 0, BuildingBlock: NAHDIM_clean_sbu_0, # of connection points: 4
#     Node 30, Type 0, BuildingBlock: NAHDIM_clean_sbu_0, # of connection points: 4
#     Node 31, Type 0, BuildingBlock: NAHDIM_clean_sbu_0, # of connection points: 4
#     Node 32, Type 0, BuildingBlock: NAHDIM_clean_sbu_0, # of connection points: 4
#     Node 33, Type 0, BuildingBlock: NAHDIM_clean_sbu_0, # of connection points: 4
#     Node 34, Type 0, BuildingBlock: NAHDIM_clean_sbu_0, # of connection points: 4
#     Node 35, Type 0, BuildingBlock: NAHDIM_clean_sbu_0, # of connection points: 4
#     Edge 36, Type (0, 0), BuildingBlock: OJICUG_clean_linker_0, # of connection points: 2
#     Edge 37, Type (0, 0), BuildingBlock: OJICUG_clean_linker_0, # of connection points: 2
#     Edge 38, Type (0, 0), BuildingBlock: OJICUG_clean_linker_0, # of connection points: 2
#     Edge 39, Type (0, 0), BuildingBlock: OJICUG_clean_linker_0, # of connection points: 2
#     Edge 40, Type (0, 0), BuildingBlock: OJICUG_clean_linker_0, # of connection points: 2
#     Edge 41, Type (0, 0), BuildingBlock: OJICUG_clean_linker_0, # of connection points: 2
#     Edge 42, Type (0, 0), BuildingBlock: OJICUG_clean_linker_0, # of connection points: 2
#     Edge 43, Type (0, 0), BuildingBlock: OJICUG_clean_linker_0, # of connection points: 2
#     Edge 44, Type (0, 0), BuildingBlock: OJICUG_clean_linker_0, # of connection points: 2
#     Edge 45, Type (0, 0), BuildingBlock: OJICUG_clean_linker_0, # of connection points: 2
#     Edge 46, Type (0, 0), BuildingBlock: OJICUG_clean_linker_0, # of connection points: 2
#     Edge 47, Type (0, 0), BuildingBlock: OJICUG_clean_linker_0, # of connection points: 2
#     Edge 48, Type (0, 0), BuildingBlock: OJICUG_clean_linker_0, # of connection points: 2
#     Edge 49, Type (0, 0), BuildingBlock: OJICUG_clean_linker_0, # of connection points: 2
#     Edge 50, Type (0, 0), BuildingBlock: OJICUG_clean_linker_0, # of connection points: 2
#     Edge 51, Type (0, 0), BuildingBlock: OJICUG_clean_linker_0, # of connection points: 2
#     Edge 52, Type (0, 0), BuildingBlock: OJICUG_clean_linker_0, # of connection points: 2
#     Edge 53, Type (0, 0), BuildingBlock: OJICUG_clean_linker_0, # of connection points: 2
#     Edge 54, Type (0, 0), BuildingBlock: OJICUG_clean_linker_0, # of connection points: 2
#     Edge 55, Type (0, 0), BuildingBlock: OJICUG_clean_linker_0, # of connection points: 2
#     Edge 56, Type (0, 0), BuildingBlock: OJICUG_clean_linker_0, # of connection points: 2
#     Edge 57, Type (0, 0), BuildingBlock: OJICUG_clean_linker_0, # of connection points: 2
#     Edge 58, Type (0, 0), BuildingBlock: OJICUG_clean_linker_0, # of connection points: 2
#     Edge 59, Type (0, 0), BuildingBlock: OJICUG_clean_linker_0, # of connection points: 2
#     Edge 60, Type (0, 0), BuildingBlock: OJICUG_clean_linker_0, # of connection points: 2
#     Edge 61, Type (0, 0), BuildingBlock: OJICUG_clean_linker_0, # of connection points: 2
#     Edge 62, Type (0, 0), BuildingBlock: OJICUG_clean_linker_0, # of connection points: 2
#     Edge 63, Type (0, 0), BuildingBlock: OJICUG_clean_linker_0, # of connection points: 2
#     Edge 64, Type (0, 0), BuildingBlock: OJICUG_clean_linker_0, # of connection points: 2
#     Edge 65, Type (0, 0), BuildingBlock: OJICUG_clean_linker_0, # of connection points: 2
#     Edge 66, Type (0, 0), BuildingBlock: OJICUG_clean_linker_0, # of connection points: 2
#     Edge 67, Type (0, 0), BuildingBlock: OJICUG_clean_linker_0, # of connection points: 2
#     Edge 68, Type (0, 0), BuildingBlock: OJICUG_clean_linker_0, # of connection points: 2
#     Edge 69, Type (0, 0), BuildingBlock: OJICUG_clean_linker_0, # of connection points: 2
#     Edge 70, Type (0, 0), BuildingBlock: OJICUG_clean_linker_0, # of connection points: 2
#     Edge 71, Type (0, 0), BuildingBlock: OJICUG_clean_linker_0, # of connection points: 2
#     Edge 72, Type (0, 0), BuildingBlock: OJICUG_clean_linker_0, # of connection points: 2
#     Edge 73, Type (0, 0), BuildingBlock: OJICUG_clean_linker_0, # of connection points: 2
#     Edge 74, Type (0, 0), BuildingBlock: OJICUG_clean_linker_0, # of connection points: 2
#     Edge 75, Type (0, 0), BuildingBlock: OJICUG_clean_linker_0, # of connection points: 2
#     Edge 76, Type (0, 0), BuildingBlock: OJICUG_clean_linker_0, # of connection points: 2
#     Edge 77, Type (0, 0), BuildingBlock: OJICUG_clean_linker_0, # of connection points: 2
#     Edge 78, Type (0, 0), BuildingBlock: OJICUG_clean_linker_0, # of connection points: 2
#     Edge 79, Type (0, 0), BuildingBlock: OJICUG_clean_linker_0, # of connection points: 2
#     Edge 80, Type (0, 0), BuildingBlock: OJICUG_clean_linker_0, # of connection points: 2
#     Edge 81, Type (0, 0), BuildingBlock: OJICUG_clean_linker_0, # of connection points: 2
#     Edge 82, Type (0, 0), BuildingBlock: OJICUG_clean_linker_0, # of connection points: 2
#     Edge 83, Type (0, 0), BuildingBlock: OJICUG_clean_linker_0, # of connection points: 2
#     Edge 84, Type (0, 0), BuildingBlock: OJICUG_clean_linker_0, # of connection points: 2
#     Edge 85, Type (0, 0), BuildingBlock: OJICUG_clean_linker_0, # of connection points: 2
#     Edge 86, Type (0, 0), BuildingBlock: OJICUG_clean_linker_0, # of connection points: 2
#     Edge 87, Type (0, 0), BuildingBlock: OJICUG_clean_linker_0, # of connection points: 2
#     Edge 88, Type (0, 0), BuildingBlock: OJICUG_clean_linker_0, # of connection points: 2
#     Edge 89, Type (0, 0), BuildingBlock: OJICUG_clean_linker_0, # of connection points: 2
#     Edge 90, Type (0, 0), BuildingBlock: OJICUG_clean_linker_0, # of connection points: 2
#     Edge 91, Type (0, 0), BuildingBlock: OJICUG_clean_linker_0, # of connection points: 2
#     Edge 92, Type (0, 0), BuildingBlock: OJICUG_clean_linker_0, # of connection points: 2
#     Edge 93, Type (0, 0), BuildingBlock: OJICUG_clean_linker_0, # of connection points: 2
#     Edge 94, Type (0, 0), BuildingBlock: OJICUG_clean_linker_0, # of connection points: 2
#     Edge 95, Type (0, 0), BuildingBlock: OJICUG_clean_linker_0, # of connection points: 2
#     Edge 96, Type (0, 0), BuildingBlock: OJICUG_clean_linker_0, # of connection points: 2
#     Edge 97, Type (0, 0), BuildingBlock: OJICUG_clean_linker_0, # of connection points: 2
#     Edge 98, Type (0, 0), BuildingBlock: OJICUG_clean_linker_0, # of connection points: 2
#     Edge 99, Type (0, 0), BuildingBlock: OJICUG_clean_linker_0, # of connection points: 2
#     Edge 100, Type (0, 0), BuildingBlock: OJICUG_clean_linker_0, # of connection points: 2
#     Edge 101, Type (0, 0), BuildingBlock: OJICUG_clean_linker_0, # of connection points: 2
#     Edge 102, Type (0, 0), BuildingBlock: OJICUG_clean_linker_0, # of connection points: 2
#     Edge 103, Type (0, 0), BuildingBlock: OJICUG_clean_linker_0, # of connection points: 2
#     Edge 104, Type (0, 0), BuildingBlock: OJICUG_clean_linker_0, # of connection points: 2
#     Edge 105, Type (0, 0), BuildingBlock: OJICUG_clean_linker_0, # of connection points: 2
#     Edge 106, Type (0, 0), BuildingBlock: OJICUG_clean_linker_0, # of connection points: 2
#     Edge 107, Type (0, 0), BuildingBlock: OJICUG_clean_linker_0, # of connection points: 2
# Relax obj value: 0.088
# Max RMSD: 0.119
# Mean RMSD: 0.119
data_MOF--net-ict--node1-NAHDIM_clean_sbu_0--edge1-OJICUG_clean_linker_0
_symmetry_space_group_name_H-M    P1
_symmetry_Int_Tables_number       1
_symmetry_cell_setting            triclinic
loop_
_symmetry_equiv_pos_as_xyz
'x, y, z'
_cell_length_a     48.502898
_cell_length_b     48.523588
_cell_length_c     26.672319
_cell_angle_alpha  90.058285
_cell_angle_beta   89.97293
_cell_angle_gamma 119.98711
loop_
_atom_site_label
_atom_site_type_symbol
_atom_site_fract_x
_atom_site_fract_y
_atom_site_fract_z
_atom_type_partial_charge
C0 C 0.26256 0.24435 0.9779 0.0
O1 O 0.23644 0.22665 0.95213 0.0
O2 O 0.18403 0.20665 0.03523 0.0
Zn3 Zn 0.22326 0.20605 0.05904 0.0
O4 O 0.22029 0.16381 0.04218 0.0
C5 C 0.20268 0.19755 0.16059 0.0
O6 O 0.17572 0.17746 0.13875 0.0
O7 O 0.26231 0.24039 0.02502 0.0
C8 C 0.21804 0.14363 0.07476 0.0
O9 O 0.21753 0.14976 0.12256 0.0
C10 C 0.15767 0.18123 0.02785 0.0
O11 O 0.15607 0.1536 0.03384 0.0
O12 O 0.22731 0.2135 0.13378 0.0
C13 C 0.73261 0.02243 0.9608 0.0
O14 O 0.74791 0.01187 0.93338 0.0
O15 O 0.76194 0.97242 0.01139 0.0
Zn16 Zn 0.76868 0.01432 0.0377 0.0
O17 O 0.81241 0.05029 0.0202 0.0
C18 C 0.78918 0.0162 0.13759 0.0
O19 O 0.81521 0.0225 0.11319 0.0
O20 O 0.73672 0.02447 0.00799 0.0
C21 C 0.81801 0.07848 0.02785 0.0
O22 O 0.79509 0.08277 0.04532 0.0
C23 C 0.785 0.96706 0.00822 0.0
O24 O 0.81373 0.98968 0.02055 0.0
O25 O 0.76486 0.01168 0.11289 0.0
C26 C 0.96499 0.72551 0.94795 0.0
O27 O 0.95726 0.74623 0.93145 0.0
O28 O 0.03119 0.8089 0.00705 0.0
Zn29 Zn 0.98938 0.77087 0.02619 0.0
O30 O 0.95299 0.77876 0.01186 0.0
C31 C 0.98411 0.78224 0.12783 0.0
O32 O 0.98009 0.80433 0.1063 0.0
O33 O 0.98088 0.73131 0.9883 0.0
C34 C 0.95598 0.80413 0.99291 0.0
O35 O 0.98452 0.82762 0.98182 0.0
C36 C 0.05522 0.8065 0.99484 0.0
O37 O 0.05253 0.77819 0.99313 0.0
O38 O 0.98938 0.76391 0.1005 0.0
C39 C 0.25113 0.28703 0.49069 0.0
O40 O 0.24023 0.2876 0.44583 0.0
O41 O 0.21897 0.18424 0.50319 0.0
Zn42 Zn 0.21269 0.21953 0.47605 0.0
O43 O 0.16841 0.21215 0.48948 0.0
C44 C 0.21103 0.19771 0.376 0.0
O45 O 0.19879 0.17039 0.39968 0.0
O46 O 0.24328 0.26035 0.51068 0.0
C47 C 0.14484 0.19708 0.4601 0.0
O48 O 0.14824 0.18375 0.41953 0.0
C49 C 0.19649 0.15585 0.50971 0.0
O50 O 0.16705 0.14877 0.50065 0.0
O51 O 0.22018 0.22311 0.40109 0.0
C52 C 0.72327 0.9854 0.53464 0.0
O53 O 0.74932 0.99353 0.56041 0.0
O54 O 0.80292 0.03272 0.47882 0.0
Zn55 Zn 0.76461 0.99319 0.45234 0.0
O56 O 0.76978 0.95486 0.46162 0.0
C57 C 0.78614 0.00454 0.35334 0.0
O58 O 0.81089 0.00665 0.377 0.0
O59 O 0.72434 0.98478 0.48708 0.0
C60 C 0.74605 0.92753 0.45265 0.0
O61 O 0.71916 0.92533 0.43805 0.0
C62 C 0.82328 0.03164 0.5075 0.0
O63 O 0.81864 0.00387 0.52258 0.0
O64 O 0.7616 0.99878 0.37852 0.0
C65 C 0.00911 0.73828 0.5232 0.0
O66 O 0.00837 0.76156 0.54726 0.0
O67 O 0.96339 0.7733 0.47018 0.0
Zn68 Zn 0.00101 0.77103 0.44223 0.0
O69 O 0.04208 0.81207 0.45499 0.0
C70 C 0.97989 0.77425 0.34382 0.0
O71 O 0.96706 0.78825 0.3691 0.0
O72 O 0.00509 0.73623 0.47598 0.0
C73 C 0.0534 0.83538 0.42464 0.0
O74 O 0.03774 0.83332 0.38337 0.0
C75 C 0.96536 0.7991 0.48535 0.0
O76 O 0.99325 0.82525 0.48599 0.0
O77 O 0.9954 0.76363 0.36744 0.0
C78 C 0.73907 0.75811 0.021 0.0
O79 O 0.76545 0.77722 0.04519 0.0
O80 O 0.81619 0.78932 0.95692 0.0
Zn81 Zn 0.77782 0.79254 0.93752 0.0
O82 O 0.78504 0.83569 0.95748 0.0
C83 C 0.78409 0.8114 0.83461 0.0
O84 O 0.79997 0.83966 0.85539 0.0
O85 O 0.73879 0.75955 0.97344 0.0
C86 C 0.76261 0.84198 0.95448 0.0
O87 O 0.73448 0.8198 0.93883 0.0
C88 C 0.84383 0.81287 0.94903 0.0
O89 O 0.84659 0.83883 0.92892 0.0
O90 O 0.77177 0.78691 0.86254 0.0
C91 C 0.2669 0.98436 0.02556 0.0
O92 O 0.25634 -0.00025 0.0527 0.0
O93 O 0.2264 0.02524 0.97614 0.0
Zn94 Zn 0.22351 0.98467 0.95145 0.0
O95 O 0.18098 0.94694 0.96862 0.0
C96 C 0.20329 0.98557 0.85368 0.0
O97 O 0.17953 0.98391 0.87983 0.0
O98 O 0.2573 0.97701 0.98063 0.0
C99 C 0.17648 0.91955 0.95723 0.0
O100 O 0.19973 0.91727 0.93605 0.0
C101 C 0.21168 0.02612 0.01497 0.0
O102 O 0.19478 -1e-05 0.04106 0.0
O103 O 0.2267 0.98662 0.87675 0.0
C104 C 0.01679 0.25909 0.0539 0.0
O105 O 0.00871 0.2317 0.07531 0.0
O106 O 0.9671 0.18379 0.98766 0.0
Zn107 Zn 0.00893 0.22166 0.96777 0.0
O108 O 0.04576 0.21463 0.9822 0.0
C109 C 0.00973 0.20791 0.86614 0.0
O110 O 0.01215 0.1849 0.88772 0.0
O111 O 0.01728 0.26066 0.00632 0.0
C112 C 0.04355 0.18794 0.99176 0.0
O113 O 0.01532 0.16222 0.99323 0.0
C114 C 0.94271 0.18697 0.99096 0.0
O115 O 0.94584 0.21514 0.9832 0.0
O116 O 0.00772 0.22827 0.89353 0.0
C117 C 0.75078 0.73866 0.43765 0.0
O118 O 0.77072 0.7657 0.41589 0.0
O119 O 0.78053 0.81551 0.49348 0.0
Zn120 Zn 0.78112 0.77726 0.52167 0.0
O121 O 0.82374 0.78042 0.51193 0.0
C122 C 0.78382 0.80183 0.61866 0.0
O123 O 0.79909 0.82815 0.59246 0.0
O124 O 0.74945 0.73753 0.48528 0.0
C125 C 0.85066 0.80504 0.51948 0.0
O126 O 0.85198 0.83161 0.53367 0.0
C127 C 0.75382 0.8142 0.48886 0.0
O128 O 0.72769 0.78746 0.49945 0.0
O129 O 0.77253 0.77523 0.59613 0.0
C130 C 0.26637 0.00891 0.4588 0.0
O131 O 0.24114 0.99874 0.43007 0.0
O132 O 0.18569 0.95323 0.5109 0.0
Zn133 Zn 0.22057 0.99493 0.53768 0.0
O134 O 0.20911 0.02891 0.52659 0.0
C135 C 0.2 0.98747 0.63747 0.0
O136 O 0.17533 0.98584 0.61426 0.0
O137 O 0.26307 0.00849 0.50607 0.0
C138 C 0.22811 0.05713 0.54115 0.0
O139 O 0.2553 0.06362 0.56177 0.0
C140 C 0.16788 0.95237 0.47529 0.0
O141 O 0.17354 0.9791 0.45399 0.0
O142 O 0.22355 0.99095 0.61171 0.0
C143 C 0.98138 0.24898 0.46952 0.0
O144 O 0.98504 0.22731 0.44566 0.0
O145 O 0.02594 0.21523 0.52671 0.0
Zn146 Zn 0.98652 0.21489 0.55152 0.0
O147 O 0.94686 0.1731 0.5361 0.0
C148 C 0.00614 0.21064 0.64998 0.0
O149 O 0.01959 0.19741 0.62428 0.0
O150 O 0.98204 0.24936 0.51718 0.0
C151 C 0.94025 0.14691 0.55682 0.0
O152 O 0.96033 0.14629 0.58916 0.0
C153 C 0.02634 0.195 0.49691 0.0
O154 O -0.00046 0.17274 0.47732 0.0
O155 O 0.9904 0.22115 0.62671 0.0
C156 C 0.94253 0.58684 0.29239 0.0
O157 O 0.91635 0.56811 0.26746 0.0
O158 O 0.86336 0.55381 0.34696 0.0
Zn159 Zn 0.90174 0.55239 0.37317 0.0
O160 O 0.89812 0.5097 0.3588 0.0
C161 C 0.8768 0.54147 0.47053 0.0
O162 O 0.85189 0.52147 0.44409 0.0
O163 O 0.94198 0.58559 0.34 0.0
C164 C 0.90154 0.49309 0.39248 0.0
O165 O 0.90742 0.5035 0.43888 0.0
C166 C 0.83941 0.52986 0.32757 0.0
O167 O 0.84016 0.50342 0.32089 0.0
O168 O 0.90294 0.55902 0.44793 0.0
C169 C 0.41511 0.35617 0.29539 0.0
O170 O 0.4349 0.34943 0.27212 0.0
O171 O 0.44168 0.30489 0.35838 0.0
Zn172 Zn 0.4442 0.34575 0.38084 0.0
O173 O 0.48844 0.38282 0.3709 0.0
C174 C 0.45392 0.33697 0.48061 0.0
O175 O 0.47661 0.33452 0.45774 0.0
O176 O 0.41377 0.35485 0.34297 0.0
C177 C 0.49311 0.41053 0.38012 0.0
O178 O 0.46908 0.41369 0.39538 0.0
C179 C 0.46207 0.30438 0.32905 0.0
O180 O 0.48482 0.33125 0.31044 0.0
O181 O 0.43506 0.3421 0.4545 0.0
C182 C 0.64974 0.06256 0.29333 0.0
O183 O 0.66262 0.0876 0.26387 0.0
O184 O 0.70426 0.14203 0.34096 0.0
Zn185 Zn 0.66083 0.11003 0.36701 0.0
O186 O 0.62791 0.12179 0.34756 0.0
C187 C 0.6599 0.13088 0.4661 0.0
O188 O 0.65649 0.15217 0.44073 0.0
O189 O 0.64717 0.06641 0.33987 0.0
C190 C 0.59918 0.1025 0.35945 0.0
O191 O 0.59232 0.07567 0.38171 0.0
C192 C 0.71258 0.1713 0.33761 0.0
O193 O 0.69203 0.18037 0.3495 0.0
O194 O 0.66248 0.10956 0.44234 0.0
C195 C 0.9029 0.59957 0.86407 0.0
O196 O 0.87398 0.57977 0.87989 0.0
O197 O 0.88472 0.5144 0.81061 0.0
Zn198 Zn 0.88214 0.55267 0.78823 0.0
O199 O 0.83822 0.54649 0.79974 0.0
C200 C 0.86828 0.53749 0.68674 0.0
O201 O 0.84279 0.51453 0.70838 0.0
O202 O 0.91334 0.59264 0.82518 0.0
C203 C 0.81543 0.52251 0.82102 0.0
O204 O 0.81945 0.49886 0.83541 0.0
C205 C 0.91146 0.51661 0.81963 0.0
O206 O 0.93744 0.54455 0.81627 0.0
O207 O 0.8904 0.55815 0.71413 0.0
C208 C 0.38252 0.31647 0.87535 0.0
O209 O 0.40906 0.32707 0.90096 0.0
O210 O 0.46028 0.37135 0.8205 0.0
Zn211 Zn 0.42584 0.32851 0.79584 0.0
O212 O 0.43679 0.29476 0.81316 0.0
C213 C 0.44491 0.32789 0.69651 0.0
O214 O 0.4662 0.3243 0.72159 0.0
O215 O 0.38369 0.31603 0.82778 0.0
C216 C 0.41691 0.26575 0.80402 0.0
O217 O 0.38905 0.25826 0.78493 0.0
C218 C 0.48849 0.37635 0.82548 0.0
O219 O 0.49421 0.35307 0.81645 0.0
O220 O 0.42357 0.33024 0.72064 0.0
C221 C 0.67408 0.08657 0.8642 0.0
O222 O 0.66711 0.1051 0.89073 0.0
O223 O 0.62463 0.11691 0.80439 0.0
Zn224 Zn 0.66614 0.12059 0.78278 0.0
O225 O 0.70256 0.16421 0.79878 0.0
C226 C 0.66215 0.13544 0.68259 0.0
O227 O 0.65996 0.15812 0.706 0.0
O228 O 0.67405 0.0882 0.81666 0.0
C229 C 0.73088 0.17014 0.79123 0.0
O230 O 0.73554 0.14751 0.77353 0.0
C231 C 0.62361 0.1354 0.83718 0.0
O232 O 0.65009 0.15656 0.85906 0.0
O233 O 0.66499 0.115 0.70832 0.0
C234 C 0.39173 0.07954 0.37189 0.0
O235 O 0.41698 0.09448 0.40066 0.0
O236 O 0.4714 0.1109 0.3181 0.0
Zn237 Zn 0.43572 0.11777 0.29434 0.0
O238 O 0.44272 0.16146 0.31242 0.0
C239 C 0.45518 0.1218 0.19126 0.0
O240 O 0.48373 0.13486 0.21115 0.0
O241 O 0.3944 0.08532 0.32517 0.0
C242 C 0.45766 0.18564 0.28419 0.0
O243 O 0.47059 0.18299 0.24257 0.0
C244 C 0.50014 0.1332 0.32209 0.0
O245 O 0.5073 0.16258 0.31247 0.0
O246 O 0.43102 0.11208 0.21952 0.0
C247 C 0.93551 0.32117 0.36196 0.0
O248 O 0.92762 0.33968 0.3865 0.0
O249 O 0.90535 0.36981 0.30452 0.0
Zn250 Zn 0.89798 0.32702 0.2819 0.0
O251 O 0.85255 0.29423 0.29662 0.0
C252 C 0.88546 0.33541 0.18287 0.0
O253 O 0.86518 0.34068 0.20786 0.0
O254 O 0.92662 0.31391 0.31666 0.0
C255 C 0.84266 0.26487 0.28939 0.0
O256 O 0.86261 0.25614 0.27252 0.0
C257 C 0.89119 0.37255 0.34268 0.0
O258 O 0.87264 0.34724 0.36949 0.0
O259 O 0.9038 0.32863 0.20719 0.0
C260 C 0.69801 0.62359 0.32017 0.0
O261 O 0.70354 0.62515 0.27174 0.0
O262 O 0.64045 0.51932 0.3353 0.0
Zn263 Zn 0.67941 0.55718 0.30661 0.0
O264 O 0.7186 0.5534 0.31633 0.0
C265 C 0.65464 0.53355 0.20904 0.0
O266 O 0.64018 0.50684 0.23447 0.0
O267 O 0.68698 0.59698 0.34233 0.0
C268 C 0.72177 0.53095 0.29799 0.0
O269 O 0.69808 0.50813 0.27281 0.0
C270 C 0.61569 0.52156 0.34182 0.0
O271 O 0.61714 0.54886 0.33266 0.0
O272 O 0.67281 0.55931 0.23217 0.0
C273 C 0.40165 0.06202 0.79907 0.0
O274 O 0.41759 0.08795 0.77212 0.0
O275 O 0.42754 0.14 0.85171 0.0
Zn276 Zn 0.436 0.10574 0.87698 0.0
O277 O 0.48006 0.11405 0.85819 0.0
C278 C 0.44129 0.12746 0.97827 0.0
O279 O 0.4535 0.15521 0.95592 0.0
O280 O 0.40483 0.06387 0.84641 0.0
C281 C 0.5043 0.12868 0.88645 0.0
O282 O 0.50157 0.14059 0.92911 0.0
C283 C 0.44954 0.16852 0.84447 0.0
O284 O 0.47929 0.17612 0.85189 0.0
O285 O 0.4312 0.10239 0.95204 0.0
C286 C 0.94364 0.34645 0.78343 0.0
O287 O 0.9176 0.34007 0.75897 0.0
O288 O 0.86571 0.29797 0.84101 0.0
Zn289 Zn 0.90308 0.33907 0.86517 0.0
O290 O 0.89734 0.37651 0.84914 0.0
C291 C 0.88752 0.34193 0.96635 0.0
O292 O 0.86748 0.34838 0.94331 0.0
O293 O 0.9432 0.34643 0.83108 0.0
C294 C 0.9205 0.40411 0.85865 0.0
O295 O 0.94681 0.40682 0.87734 0.0
C296 C 0.83774 0.29395 0.83916 0.0
O297 O 0.83316 0.31754 0.85174 0.0
O298 O 0.90646 0.33683 0.94024 0.0
C299 C 0.65315 0.58353 0.80944 0.0
O300 O 0.65826 0.56321 0.78426 0.0
O301 O 0.69883 0.54951 0.86765 0.0
Zn302 Zn 0.65885 0.54878 0.89054 0.0
O303 O 0.62138 0.50671 0.87081 0.0
C304 C 0.64611 0.52847 0.99285 0.0
O305 O 0.63166 0.50052 0.97084 0.0
O306 O 0.65361 0.58298 0.85705 0.0
C307 C 0.59301 0.50149 0.87325 0.0
O308 O 0.58793 0.52443 0.88796 0.0
C309 C 0.7008 0.52457 0.87401 0.0
O310 O 0.6769 0.49957 0.89505 0.0
O311 O 0.65978 0.55341 0.96595 0.0
C312 C 0.60199 0.92266 0.63547 0.0
O313 O 0.57605 0.90565 0.60897 0.0
O314 O 0.52237 0.88861 0.69535 0.0
Zn315 Zn 0.56065 0.88516 0.71511 0.0
O316 O 0.55442 0.8427 0.69339 0.0
C317 C 0.54852 0.86336 0.81591 0.0
O318 O 0.52991 0.83643 0.79267 0.0
O319 O 0.60085 0.91899 0.68273 0.0
C320 C 0.57587 0.83547 0.70112 0.0
O321 O 0.60238 0.85615 0.72353 0.0
C322 C 0.50322 0.87091 0.66152 0.0
O323 O 0.50923 0.85087 0.63743 0.0
O324 O 0.56477 0.88843 0.79018 0.0
C325 C 0.06284 0.66976 0.6199 0.0
O326 O 0.06636 0.64821 0.59548 0.0
O327 O 0.10311 0.62784 0.6694 0.0
Zn328 Zn 0.10969 0.67049 0.69066 0.0
O329 O 0.15354 0.70464 0.66999 0.0
C330 C 0.12806 0.66772 0.78994 0.0
O331 O 0.1506 0.66618 0.76493 0.0
O332 O 0.07787 0.681 0.66073 0.0
C333 C 0.16475 0.73256 0.68759 0.0
O334 O 0.14739 0.73837 0.71901 0.0
C335 C 0.11277 0.62329 0.6276 0.0
O336 O 0.12628 0.64678 0.59529 0.0
O337 O 0.1068 0.6701 0.76573 0.0
C338 C 0.31236 0.40242 0.60808 0.0
O339 O 0.31867 0.42957 0.58754 0.0
O340 O 0.37048 0.47604 0.66906 0.0
Zn341 Zn 0.32721 0.44182 0.69234 0.0
O342 O 0.29259 0.45261 0.67809 0.0
C343 C 0.33379 0.46074 0.79279 0.0
O344 O 0.33475 0.48508 0.76961 0.0
O345 O 0.31517 0.40128 0.65531 0.0
C346 C 0.26909 0.44335 0.7079 0.0
O347 O 0.26778 0.42735 0.74836 0.0
C348 C 0.37869 0.50527 0.66541 0.0
O349 O 0.35754 0.5141 0.67389 0.0
O350 O 0.33046 0.43724 0.76697 0.0
C351 C 0.58379 0.93645 0.2076 0.0
O352 O 0.56529 0.91196 0.23602 0.0
O353 O 0.55589 0.85541 0.15846 0.0
Zn354 Zn 0.55012 0.89086 0.13075 0.0
O355 O 0.50654 0.8844 0.14648 0.0
C356 C 0.54859 0.86642 0.03235 0.0
O357 O 0.53838 0.83993 0.05784 0.0
O358 O 0.58231 0.9329 0.1603 0.0
C359 C 0.48171 0.86511 0.12226 0.0
O360 O 0.48396 0.8477 0.08654 0.0
C361 C 0.53549 0.83277 0.18536 0.0
O362 O 0.50952 0.83281 0.19922 0.0
O363 O 0.55563 0.89198 0.05568 0.0
C364 C 0.0623 0.64634 0.18689 0.0
O365 O 0.08885 0.65658 0.21231 0.0
O366 O 0.14105 0.69181 0.13025 0.0
Zn367 Zn 0.1032 0.65144 0.10542 0.0
O368 O 0.10918 0.61393 0.11834 0.0
C369 C 0.1241 0.65826 0.00612 0.0
O370 O 0.14775 0.65838 0.03036 0.0
O371 O 0.06278 0.6433 0.1396 0.0
C372 C 0.08625 0.58619 0.10899 0.0
O373 O 0.05948 0.58299 0.09147 0.0
C374 C 0.16134 0.69197 0.16057 0.0
O375 O 0.15704 0.66487 0.17841 0.0
O376 O 0.10046 0.65542 0.03098 0.0
C377 C 0.36131 0.42104 0.18748 0.0
O378 O 0.34997 0.43649 0.21265 0.0
O379 O 0.31983 0.45787 0.13451 0.0
Zn380 Zn 0.35973 0.45962 0.10763 0.0
O381 O 0.39895 0.50218 0.12212 0.0
C382 C 0.3395 0.46305 0.00883 0.0
O383 O 0.3274 0.47791 0.03363 0.0
O384 O 0.36645 0.4262 0.14076 0.0
C385 C 0.40982 0.5261 0.09298 0.0
O386 O 0.39479 0.52407 0.05102 0.0
C387 C 0.31842 0.48271 0.14499 0.0
O388 O 0.34427 0.5107 0.14132 0.0
O389 O 0.35474 0.45223 0.03272 0.0
C390 C 0.06367 0.4036 0.67889 0.0
O391 O 0.09027 0.41538 0.70458 0.0
O392 O 0.14411 0.44332 0.62424 0.0
Zn393 Zn 0.10542 0.44486 0.60053 0.0
O394 O 0.11016 0.48791 0.61531 0.0
C395 C 0.12876 0.45863 0.50288 0.0
O396 O 0.15273 0.48045 0.52904 0.0
O397 O 0.0647 0.41166 0.63328 0.0
C398 C 0.1013 0.50154 0.58367 0.0
O399 O 0.08901 0.4875 0.54074 0.0
C400 C 0.16038 0.45712 0.66304 0.0
O401 O 0.15143 0.47287 0.69263 0.0
O402 O 0.10369 0.43869 0.52587 0.0
C403 C 0.59997 0.65084 0.70665 0.0
O404 O 0.58661 0.66409 0.73256 0.0
O405 O 0.57594 0.70388 0.64937 0.0
Zn406 Zn 0.56668 0.66061 0.626 0.0
O407 O 0.52138 0.6282 0.64356 0.0
C408 C 0.54752 0.65146 0.52297 0.0
O409 O 0.51956 0.64123 0.54389 0.0
O410 O 0.5956 0.64768 0.65954 0.0
C411 C 0.51146 0.59883 0.63619 0.0
O412 O 0.53146 0.59017 0.61932 0.0
C413 C 0.5553 0.71209 0.64056 0.0
O414 O 0.52896 0.6921 0.6171 0.0
O415 O 0.57199 0.66139 0.55073 0.0
C416 C 0.34604 0.93933 0.70355 0.0
O417 O 0.33429 0.91323 0.73054 0.0
O418 O 0.30108 0.86102 0.64721 0.0
Zn419 Zn 0.34369 0.89735 0.6257 0.0
O420 O 0.37946 0.89 0.64637 0.0
C421 C 0.32218 0.89606 0.52318 0.0
O422 O 0.29392 0.88522 0.54343 0.0
O423 O 0.35132 0.93802 0.65722 0.0
C424 C 0.38931 0.8762 0.61679 0.0
O425 O 0.37481 0.86532 0.57366 0.0
C426 C 0.28952 0.83343 0.62808 0.0
O427 O 0.30582 0.82837 0.59359 0.0
O428 O 0.3459 0.90275 0.55109 0.0
C429 C 0.0798 0.37399 0.17165 0.0
O430 O 0.08356 0.3724 0.22013 0.0
O431 O 0.12434 0.47818 0.16171 0.0
Zn432 Zn 0.12684 0.44031 0.18631 0.0
O433 O 0.17073 0.44641 0.17563 0.0
C434 C 0.13711 0.46022 0.28684 0.0
O435 O 0.15959 0.48558 0.2643 0.0
O436 O 0.09535 0.40065 0.14957 0.0
C437 C 0.19563 0.47343 0.17028 0.0
O438 O 0.19312 0.49917 0.16985 0.0
C439 C 0.09742 0.47542 0.15203 0.0
O440 O 0.07167 0.44738 0.15639 0.0
O441 O 0.11838 0.43627 0.26049 0.0
C442 C 0.62048 0.69126 0.12895 0.0
O443 O 0.59365 0.67901 0.10376 0.0
O444 O 0.54185 0.64344 0.18064 0.0
Zn445 Zn 0.57848 0.68329 0.21021 0.0
O446 O 0.57166 0.72067 0.20075 0.0
C447 C 0.55506 0.65721 0.30693 0.0
O448 O 0.52886 0.64118 0.2806 0.0
O449 O 0.61988 0.69433 0.17622 0.0
C450 C 0.54931 0.72281 0.22189 0.0
O451 O 0.52901 0.69945 0.25056 0.0
C452 C 0.52297 0.64351 0.14769 0.0
O453 O 0.52805 0.67072 0.12911 0.0
O454 O 0.58062 0.67679 0.2846 0.0
C455 C 0.31851 0.91481 0.12372 0.0
O456 O 0.32388 0.89478 0.0982 0.0
O457 O 0.35997 0.8783 0.19242 0.0
Zn458 Zn 0.31879 0.87752 0.20723 0.0
O459 O 0.2812 0.83578 0.18683 0.0
C460 C 0.33875 0.89895 0.30864 0.0
O461 O 0.36729 0.9136 0.2885 0.0
O462 O 0.31645 0.9125 0.17116 0.0
C463 C 0.27449 0.81053 0.21069 0.0
O464 O 0.29308 0.81197 0.24763 0.0
C465 C 0.36178 0.86008 0.15993 0.0
O466 O 0.33622 0.84041 0.13449 0.0
O467 O 0.31475 0.88248 0.28093 0.0
C468 C 0.32284 0.28593 0.87442 0.0
C469 C 0.35149 0.30146 0.90159 0.0
H470 H 0.27223 0.25583 0.87721 0.0
C471 C 0.35028 0.3004 0.95424 0.0
H472 H 0.32292 0.2864 0.83382 0.0
C473 C 0.32122 0.28288 0.97911 0.0
C474 C 0.29274 0.266 0.95187 0.0
H475 H 0.37188 0.31227 0.97633 0.0
H476 H 0.32126 0.28176 0.01966 0.0
C477 C 0.29377 0.26837 0.89931 0.0
C478 C 0.69656 0.05001 0.86073 0.0
C479 C 0.68545 0.06688 0.88922 0.0
H480 H 0.71997 0.02255 0.86101 0.0
C481 C 0.6874 0.06653 0.94176 0.0
H482 H 0.69526 0.04964 0.82018 0.0
C483 C 0.70153 0.05093 0.96521 0.0
C484 C 0.71408 0.03542 0.93657 0.0
H485 H 0.6789 0.07913 0.96483 0.0
H486 H 0.70358 0.05199 0.00568 0.0
C487 C 0.71075 0.03447 0.88416 0.0
C488 C 0.91863 0.67952 0.90861 0.0
C489 C 0.95028 0.69371 0.92504 0.0
H490 H 0.87875 0.63811 0.87766 0.0
C491 C 0.96678 0.67686 0.92084 0.0
H492 H 0.90534 0.69194 0.91187 0.0
C493 C 0.95177 0.64627 0.89975 0.0
C494 C 0.91981 0.63193 0.88467 0.0
H495 H 0.99124 0.68743 0.93338 0.0
H496 H 0.96477 0.63358 0.89633 0.0
C497 C 0.90338 0.64873 0.88938 0.0
C498 C 0.29189 0.34389 0.59875 0.0
C499 C 0.29948 0.37324 0.57713 0.0
H500 H 0.27092 0.29362 0.58831 0.0
C501 C 0.2931 0.37425 0.52596 0.0
H502 H 0.29665 0.34233 0.63801 0.0
C503 C 0.27827 0.34635 0.49751 0.0
C504 C 0.26962 0.31684 0.51954 0.0
H505 H 0.29877 0.39649 0.50805 0.0
H506 H 0.27297 0.34788 0.45851 0.0
C507 C 0.27717 0.31597 0.57021 0.0
C508 C 0.63446 0.94506 0.55756 0.0
C509 C 0.63291 0.94249 0.61009 0.0
H510 H 0.66419 0.96087 0.49249 0.0
C511 C 0.66141 0.95694 0.63775 0.0
H512 H 0.61296 0.93438 0.53513 0.0
C513 C 0.69082 0.97209 0.61326 0.0
C514 C 0.69236 0.97319 0.56063 0.0
H515 H 0.66106 0.95554 0.67828 0.0
H516 H 0.71232 0.982 0.63562 0.0
C517 C 0.66386 0.96028 0.53308 0.0
C518 C 0.02123 0.69369 0.52379 0.0
C519 C 0.01867 0.71757 0.54968 0.0
H520 H 0.03689 0.65954 0.52584 0.0
C521 C 0.02774 0.72318 0.60035 0.0
H522 H 0.01424 0.68862 0.4848 0.0
C523 C 0.04082 0.70663 0.62379 0.0
C524 C 0.04498 0.68396 0.59716 0.0
H525 H 0.02588 0.74125 0.62153 0.0
H526 H 0.04862 0.71237 0.66236 0.0
C527 C 0.03418 0.67698 0.54735 0.0
C528 C 0.68018 0.72194 0.12783 0.0
C529 C 0.65119 0.70499 0.10188 0.0
H530 H 0.73073 0.75189 0.12264 0.0
C531 C 0.65171 0.70332 0.04929 0.0
H532 H 0.68064 0.72356 0.16835 0.0
C533 C 0.68042 0.71956 0.02308 0.0
C534 C 0.70924 0.73784 0.04889 0.0
H535 H 0.62983 0.69029 0.02814 0.0
H536 H 0.67985 0.71858 0.98251 0.0
C537 C 0.70891 0.73821 0.10159 0.0
C538 C 0.3066 0.93511 0.04518 0.0
C539 C 0.31037 0.93665 0.09751 0.0
H540 H 0.29013 0.94926 0.98119 0.0
C541 C 0.30351 0.95723 0.12501 0.0
H542 H 0.31192 0.91969 0.02284 0.0
C543 C 0.2911 0.97427 0.10111 0.0
C544 C 0.28521 0.97099 0.04927 0.0
H545 H 0.30649 0.95923 0.16534 0.0
H546 H 0.28478 0.98884 0.12371 0.0
C547 C 0.2941 0.95208 0.02129 0.0
C548 C 0.04612 0.3147 0.16554 0.0
C549 C 0.0603 0.34465 0.1422 0.0
H550 H 0.02102 0.26416 0.15598 0.0
C551 C 0.05734 0.34615 0.08998 0.0
H552 H 0.04776 0.31269 0.20573 0.0
C553 C 0.04193 0.31831 0.06144 0.0
C554 C 0.02921 0.28837 0.08451 0.0
H555 H 0.06777 0.36886 0.07086 0.0
H556 H 0.04098 0.32032 0.02112 0.0
C557 C 0.03076 0.28685 0.13699 0.0
C558 C 0.72357 0.68288 0.32622 0.0
C559 C 0.70785 0.65296 0.34962 0.0
H560 H 0.74922 0.7334 0.33565 0.0
C561 C 0.7036 0.65152 0.40193 0.0
H562 H 0.72705 0.68485 0.28599 0.0
C563 C 0.71627 0.67941 0.43046 0.0
C564 C 0.73352 0.70931 0.40729 0.0
H565 H 0.69136 0.62883 0.42111 0.0
H566 H 0.71355 0.67747 0.47083 0.0
C567 C 0.73629 0.71074 0.35475 0.0
C568 C 0.30248 0.02667 0.38418 0.0
C569 C 0.29858 0.02392 0.43645 0.0
H570 H 0.33494 0.0462 0.32276 0.0
C571 C 0.32578 0.03748 0.4672 0.0
H572 H 0.28204 0.01635 0.35941 0.0
C573 C 0.35616 0.05464 0.44616 0.0
C574 C 0.35997 0.0586 0.39397 0.0
H575 H 0.32361 0.03565 0.50764 0.0
H576 H 0.37658 0.06556 0.47094 0.0
C577 C 0.33284 0.04382 0.36316 0.0
C578 C 0.95826 0.28482 0.36294 0.0
C579 C 0.95099 0.30572 0.38853 0.0
H580 H 0.9738 0.25074 0.36836 0.0
C581 C 0.95646 0.30986 0.44049 0.0
H582 H 0.95451 0.28122 0.32288 0.0
C583 C 0.96745 0.29227 0.46666 0.0
C584 C 0.97328 0.27027 0.44138 0.0
H585 H 0.95125 0.32588 0.46133 0.0
H586 H 0.97046 0.29527 0.5069 0.0
C587 C 0.96933 0.26733 0.38907 0.0
C588 C 0.00276 0.61996 0.187 0.0
C589 C 0.03168 0.63482 0.21352 0.0
H590 H 0.95193 0.59337 0.1911 0.0
C591 C 0.03091 0.63647 0.26609 0.0
H592 H 0.00249 0.61842 0.14647 0.0
C593 C 0.00188 0.62213 0.29172 0.0
C594 C 0.973 0.60578 0.26531 0.0
H595 H 0.05275 0.64794 0.28765 0.0
H596 H 0.00215 0.62289 0.33231 0.0
C597 C 0.97375 0.60557 0.21263 0.0
C598 C 0.40055 0.37201 0.21467 0.0
C599 C 0.3978 0.36905 0.26711 0.0
H600 H 0.39096 0.39048 0.14828 0.0
C601 C 0.38035 0.38076 0.2925 0.0
H602 H 0.41366 0.36307 0.19392 0.0
C603 C 0.36738 0.39655 0.26631 0.0
C604 C 0.37151 0.4009 0.21419 0.0
H605 H 0.37765 0.37875 0.33286 0.0
H606 H 0.35499 0.40621 0.28723 0.0
C607 C 0.38751 0.38772 0.18847 0.0
C608 C 0.62095 0.99518 0.19934 0.0
C609 C 0.60348 0.9684 0.23001 0.0
H610 H 0.64938 0.0459 0.19526 0.0
C611 C 0.60343 0.97272 0.28211 0.0
H612 H 0.62162 0.99268 0.15907 0.0
C613 C 0.61936 0.00325 0.30288 0.0
C614 C 0.63568 0.03013 0.27198 0.0
H615 H 0.59035 0.95258 0.30685 0.0
H616 H 0.61812 0.00579 0.34304 0.0
C617 C 0.63686 0.02572 0.2201 0.0
C618 C 0.35509 0.97282 0.77999 0.0
C619 C 0.35647 0.97046 0.72765 0.0
H620 H 0.36812 0.00364 0.84371 0.0
C621 C 0.37 0.99843 0.69878 0.0
H622 H 0.34463 0.95171 0.80328 0.0
C623 C 0.38341 0.02819 0.72194 0.0
C624 C 0.38363 0.03061 0.77443 0.0
H625 H 0.37118 0.99743 0.65832 0.0
H626 H 0.39461 0.0493 0.69868 0.0
C627 C 0.36857 0.0026 0.80317 0.0
C628 C 0.00401 0.37426 0.67814 0.0
C629 C 0.03264 0.38495 0.7046 0.0
H630 H 0.95342 0.35348 0.68222 0.0
C631 C 0.03139 0.38 0.75668 0.0
H632 H 0.0041 0.37752 0.63796 0.0
C633 C 0.00231 0.36628 0.78212 0.0
C634 C 0.97386 0.35715 0.75599 0.0
H635 H 0.05298 0.38779 0.77819 0.0
H636 H 0.0023 0.36383 0.82248 0.0
C637 C 0.97493 0.36048 0.70356 0.0
C638 C 0.63328 0.62234 0.80991 0.0
C639 C 0.64314 0.60387 0.78291 0.0
H640 H 0.61205 0.6518 0.807 0.0
C641 C 0.64114 0.60322 0.73032 0.0
H642 H 0.63461 0.62345 0.85045 0.0
C643 C 0.62823 0.61949 0.7054 0.0
C644 C 0.61698 0.63672 0.73254 0.0
H645 H 0.64869 0.58937 0.70835 0.0
H646 H 0.62619 0.61771 0.66494 0.0
C647 C 0.62031 0.63857 0.78498 0.0
C648 C 0.20383 0.05954 0.07853 0.0
C649 C 0.21334 0.05619 0.03023 0.0
H650 H 0.19814 0.08992 0.13058 0.0
C651 C 0.22422 0.08178 -0.00351 0.0
H652 H 0.19538 0.04026 0.10537 0.0
C653 C 0.22539 0.11009 0.01069 0.0
C654 C 0.2162 0.11353 0.05918 0.0
H655 H 0.23157 0.07986 0.9589 0.0
H656 H 0.23385 0.12938 0.98387 0.0
C657 C 0.20549 0.08801 0.09299 0.0
C658 C 0.88488 0.16338 0.01117 0.0
C659 C 0.91099 0.15917 0.0013 0.0
H660 H 0.83512 0.14125 0.0274 0.0
C661 C 0.90631 0.12814 0.00028 0.0
H662 H 0.88769 0.18697 0.01226 0.0
C663 C 0.87607 0.10187 0.0085 0.0
C664 C 0.84997 0.10612 0.01841 0.0
H665 H 0.92594 0.1241 0.99261 0.0
H666 H 0.87319 0.07826 0.00736 0.0
C667 C 0.85473 0.13716 0.01986 0.0
C668 C 0.90308 0.83665 0.95117 0.0
C669 C 0.87255 0.8109 0.96126 0.0
H670 H 0.95338 0.85476 0.95324 0.0
C671 C 0.86974 0.78313 0.98253 0.0
H672 H 0.90608 0.8584 0.93481 0.0
C673 C 0.89685 0.78106 0.9931 0.0
C674 C 0.92738 0.80671 0.98262 0.0
H675 H 0.84658 0.76288 0.99081 0.0
H676 H 0.89381 0.75924 0.00923 0.0
C677 C 0.93021 0.83457 0.96172 0.0
C678 C 0.08717 0.17646 0.4412 0.0
C679 C 0.11431 0.19598 0.4701 0.0
H680 H 0.03803 0.16077 0.427 0.0
C681 C 0.11226 0.21517 0.50768 0.0
H682 H 0.08798 0.16138 0.41194 0.0
C683 C 0.08378 0.21507 0.51591 0.0
C684 C 0.05661 0.19554 0.48706 0.0
H685 H 0.13275 0.23058 0.53047 0.0
H686 H 0.08304 0.23017 0.54519 0.0
C687 C 0.05855 0.17612 0.44977 0.0
C688 C 0.77985 0.87324 0.47718 0.0
C689 C 0.75225 0.84307 0.47635 0.0
H690 H 0.79953 0.92363 0.47074 0.0
C691 C 0.72281 0.84088 0.46604 0.0
H692 H 0.80288 0.87573 0.4852 0.0
C693 C 0.72092 0.86829 0.45752 0.0
C694 C 0.74838 0.89851 0.45961 0.0
H695 H 0.70112 0.81799 0.46504 0.0
H696 H 0.69781 0.86578 0.45019 0.0
C697 C 0.77791 0.90069 0.46914 0.0
C698 C 0.0937 0.89217 0.40656 0.0
C699 C 0.08344 0.8649 0.43638 0.0
H700 H 0.12845 0.94117 0.39541 0.0
C701 C 0.10191 0.86626 0.4779 0.0
H702 H 0.08005 0.89189 0.37425 0.0
C703 C 0.1298 0.89445 0.48979 0.0
C704 C 0.13965 0.92194 0.46066 0.0
H705 H 0.09473 0.84561 0.50149 0.0
H706 H 0.14327 0.89484 0.52243 0.0
C707 C 0.12145 0.92043 0.41869 0.0
C708 C 0.74875 0.91106 0.97929 0.0
C709 C 0.77935 0.93529 0.99314 0.0
H710 H 0.71945 0.86261 0.95624 0.0
C711 C 0.80442 0.92864 0.99368 0.0
H712 H 0.72892 0.9154 0.97848 0.0
C713 C 0.79898 0.89836 0.98112 0.0
C714 C 0.76835 0.87407 0.96759 0.0
H715 H 0.82828 0.94674 0.00421 0.0
H716 H 0.81881 0.89402 0.9821 0.0
C717 C 0.74332 0.88078 0.96658 0.0
C718 C 0.1415 0.8603 0.95835 0.0
C719 C 0.14544 0.89067 0.9668 0.0
H720 H 0.10998 0.80992 0.9606 0.0
C721 C 0.11937 0.89312 0.98404 0.0
H722 H 0.16112 0.85758 0.94505 0.0
C723 C 0.09 0.8658 0.99263 0.0
C724 C 0.08612 0.83541 0.9845 0.0
H725 H 0.12159 0.91617 0.99076 0.0
H726 H 0.07041 0.86852 0.00602 0.0
C727 C 0.11218 0.83296 0.96726 0.0
C728 C 0.09865 0.15488 0.015 0.0
C729 C 0.12858 0.18278 0.01668 0.0
H730 H 0.04829 0.13459 0.00611 0.0
C731 C 0.13031 0.21228 0.00943 0.0
H732 H 0.09647 0.13177 0.02055 0.0
C733 C 0.10272 0.21388 0.00114 0.0
C734 C 0.07273 0.18603 9e-05 0.0
H735 H 0.15298 0.23422 0.01048 0.0
H736 H 0.10493 0.23704 -0.00407 0.0
C737 C 0.071 0.1565 0.0069 0.0
C738 C 0.90603 0.773 0.49164 0.0
C739 C 0.93614 0.80031 0.49698 0.0
H740 H 0.85557 0.7531 0.49433 0.0
C741 C 0.93794 0.82912 0.51103 0.0
H742 H 0.90377 0.75044 0.4808 0.0
C743 C 0.91022 0.83067 0.51874 0.0
C744 C 0.88012 0.80347 0.51247 0.0
H745 H 0.96076 0.85061 0.51543 0.0
H746 H 0.91241 0.85327 0.52909 0.0
C747 C 0.87836 0.77457 0.49924 0.0
C748 C 0.18083 0.09832 0.51444 0.0
C749 C 0.20395 0.13048 0.52107 0.0
H750 H 0.1704 0.04994 0.51506 0.0
C751 C 0.23483 0.13823 0.53583 0.0
H752 H 0.15685 0.09157 0.5029 0.0
C753 C 0.24255 0.11437 0.54304 0.0
C754 C 0.21965 0.08228 0.53511 0.0
H755 H 0.25317 0.1628 0.54132 0.0
H756 H 0.26663 0.12115 0.55397 0.0
C757 C 0.18864 0.07448 0.52111 0.0
C758 C 0.88774 0.11841 0.51245 0.0
C759 C 0.91013 0.11748 0.54479 0.0
H760 H 0.84272 0.09216 0.47562 0.0
C761 C 0.9034 0.08817 0.56563 0.0
H762 H 0.89213 0.14062 0.49585 0.0
C763 C 0.87504 0.06035 0.55398 0.0
C764 C 0.85275 0.06125 0.52139 0.0
H765 H 0.92012 0.08663 0.59075 0.0
H766 H 0.8707 0.03811 0.57036 0.0
C767 C 0.85934 0.09063 0.50096 0.0
C768 C 0.90461 0.45604 0.33041 0.0
C769 C 0.89909 0.46236 0.37967 0.0
H770 H 0.90708 0.4228 0.28032 0.0
C771 C 0.89141 0.43912 0.4168 0.0
H772 H 0.91073 0.47361 0.30111 0.0
C773 C 0.88879 0.40988 0.40475 0.0
C774 C 0.89454 0.40364 0.3556 0.0
H775 H 0.88697 0.44335 0.45507 0.0
H776 H 0.8825 0.39224 0.43399 0.0
C777 C 0.90272 0.42707 0.31861 0.0
C778 C 0.58123 0.46259 0.35297 0.0
C779 C 0.58492 0.49322 0.35486 0.0
H780 H 0.54928 0.4124 0.35911 0.0
C781 C 0.55843 0.49641 0.36677 0.0
H782 H 0.60116 0.45932 0.34373 0.0
C783 C 0.52878 0.46957 0.37578 0.0
C784 C 0.52488 0.43891 0.37266 0.0
H785 H 0.56049 0.51967 0.36861 0.0
H786 H 0.50879 0.47288 0.38433 0.0
C787 C 0.55148 0.4357 0.36157 0.0
C788 C 0.51783 0.09494 0.34848 0.0
C789 C 0.52556 0.12569 0.33318 0.0
H790 H 0.53499 0.06355 0.3688 0.0
C791 C 0.55776 0.14884 0.3268 0.0
H792 H 0.49325 0.07656 0.35375 0.0
C793 C 0.58169 0.14128 0.33494 0.0
C794 C 0.57393 0.1105 0.3501 0.0
H795 H 0.5645 0.17272 0.31484 0.0
H796 H 0.60627 0.15961 0.32953 0.0
C797 C 0.54176 0.08748 0.35707 0.0
C798 C 0.76 0.49604 0.85572 0.0
C799 C 0.78554 0.52244 0.83253 0.0
H800 H 0.71324 0.47598 0.88688 0.0
C801 C 0.78268 0.54931 0.82198 0.0
H802 H 0.76141 0.47497 0.86433 0.0
C803 C 0.7551 0.54995 0.83507 0.0
C804 C 0.72973 0.5237 0.85887 0.0
H805 H 0.80193 0.57009 0.8042 0.0
H806 H 0.75379 0.57112 0.82685 0.0
C807 C 0.73238 0.49665 0.86868 0.0
C808 C 0.41007 0.18499 0.81961 0.0
C809 C 0.44145 0.19335 0.8322 0.0
H810 H 0.37773 0.20129 0.80073 0.0
C811 C 0.46476 0.22572 0.83483 0.0
H812 H 0.39156 0.16026 0.81723 0.0
C813 C 0.45677 0.24923 0.82585 0.0
C814 C 0.42535 0.24086 0.81358 0.0
H815 H 0.48913 0.23295 0.84459 0.0
H816 H 0.47525 0.27396 0.82847 0.0
C817 C 0.40214 0.20851 0.81018 0.0
C818 C 0.75329 0.22692 0.81789 0.0
C819 C 0.75822 0.20201 0.80246 0.0
H820 H 0.77449 0.27551 0.84121 0.0
C821 C 0.78955 0.20779 0.7981 0.0
H822 H 0.72944 0.22327 0.82148 0.0
C823 C 0.81538 0.23772 0.80953 0.0
C824 C 0.81045 0.26257 0.82534 0.0
H825 H 0.79418 0.18912 0.78626 0.0
H826 H 0.83922 0.24131 0.8062 0.0
C827 C 0.77913 0.2569 0.82908 0.0
C828 C 0.47934 0.24378 0.26928 0.0
C829 C 0.4593 0.21613 0.29666 0.0
H830 H 0.49599 0.29332 0.25808 0.0
C831 C 0.44019 0.21774 0.33485 0.0
H832 H 0.49438 0.24334 0.23962 0.0
C833 C 0.44086 0.24633 0.34505 0.0
C834 C 0.46091 0.27398 0.31763 0.0
H835 H 0.42441 0.19682 0.35649 0.0
H836 H 0.4258 0.24678 0.37465 0.0
C837 C 0.48026 0.27244 0.27982 0.0
C838 C 0.79877 0.2082 0.29693 0.0
C839 C 0.80917 0.24086 0.30032 0.0
H840 H 0.76011 0.16057 0.30599 0.0
C841 C 0.78731 0.2504 0.31468 0.0
H842 H 0.81501 0.20005 0.28591 0.0
C843 C 0.75583 0.22779 0.32592 0.0
C844 C 0.74553 0.19513 0.32332 0.0
H845 H 0.79452 0.27539 0.31748 0.0
H846 H 0.73969 0.23598 0.3373 0.0
C847 C 0.7673 0.18556 0.30844 0.0
C848 C 0.80717 0.55711 0.33259 0.0
C849 C 0.80986 0.53078 0.3175 0.0
H850 H 0.77729 0.57772 0.33865 0.0
C851 C 0.78349 0.50473 0.29501 0.0
H852 H 0.82699 0.57754 0.35016 0.0
C853 C 0.75494 0.50485 0.28833 0.0
C854 C 0.7521 0.53094 0.30428 0.0
H855 H 0.78476 0.48407 0.28297 0.0
H856 H 0.73501 0.48432 0.27116 0.0
C857 C 0.7786 0.55714 0.3262 0.0
C858 C 0.59117 0.15139 0.88978 0.0
C859 C 0.59308 0.13374 0.84951 0.0
H860 H 0.56168 0.16365 0.93296 0.0
C861 C 0.56566 0.11486 0.82076 0.0
H862 H 0.61186 0.1662 0.91261 0.0
C863 C 0.53692 0.11362 0.83215 0.0
C864 C 0.53495 0.13101 0.87279 0.0
H865 H 0.56639 0.1011 0.7893 0.0
H866 H 0.51618 0.09872 0.80946 0.0
C867 C 0.56239 0.14994 0.90141 0.0
C868 C 0.88651 0.45734 0.82655 0.0
C869 C 0.91347 0.48782 0.83108 0.0
H870 H 0.8676 0.40698 0.83133 0.0
C871 C 0.9426 0.49049 0.84527 0.0
H872 H 0.86372 0.45445 0.81557 0.0
C873 C 0.94479 0.4633 0.85448 0.0
C874 C 0.91795 0.43282 0.84933 0.0
H875 H 0.96381 0.5136 0.84916 0.0
H876 H 0.96763 0.46621 0.86521 0.0
C877 C 0.88876 0.43012 0.83539 0.0
C878 C 0.53463 0.46373 0.86101 0.0
C879 C 0.56608 0.46955 0.86128 0.0
H880 H 0.48534 0.42967 0.84954 0.0
C881 C 0.57165 0.4444 0.85046 0.0
H882 H 0.52955 0.4826 0.86927 0.0
C883 C 0.54639 0.41413 0.83946 0.0
C884 C 0.51495 0.4083 0.8388 0.0
H885 H 0.59558 0.44804 0.85054 0.0
H886 H 0.5516 0.39536 0.8311 0.0
C887 C 0.5093 0.4334 0.84977 0.0
C888 C 0.53759 0.75235 0.64657 0.0
C889 C 0.56075 0.7437 0.65618 0.0
H890 H 0.52418 0.788 0.65314 0.0
C891 C 0.58902 0.76554 0.68064 0.0
H892 H 0.51554 0.73611 0.62779 0.0
C893 C 0.59401 0.79539 0.69517 0.0
C894 C 0.5708 0.80399 0.68558 0.0
H895 H 0.60735 0.75961 0.68858 0.0
H896 H 0.61603 0.81168 0.71397 0.0
C897 C 0.54255 0.78214 0.66112 0.0
C898 C 0.21494 0.75248 0.63754 0.0
C899 C 0.1968 0.75825 0.6727 0.0
H900 H 0.25837 0.77164 0.59586 0.0
C901 C 0.20954 0.78888 0.69336 0.0
H902 H 0.20583 0.72914 0.62089 0.0
C903 C 0.23969 0.81323 0.67908 0.0
C904 C 0.25776 0.80751 0.64373 0.0
H905 H 0.19621 0.79412 0.72059 0.0
H906 H 0.24875 0.83658 0.69564 0.0
C907 C 0.24507 0.77686 0.62317 0.0
C908 C 0.23393 0.44984 0.64637 0.0
C909 C 0.24258 0.44895 0.69629 0.0
H910 H 0.20054 0.45246 0.59681 0.0
C911 C 0.22466 0.45185 0.73524 0.0
H912 H 0.24726 0.44748 0.6157 0.0
C913 C 0.19841 0.45543 0.72445 0.0
C914 C 0.1891 0.45519 0.67458 0.0
H915 H 0.23093 0.4513 0.77406 0.0
H916 H 0.18488 0.45744 0.75513 0.0
C917 C 0.20713 0.45248 0.63562 0.0
C918 C 0.41964 0.88161 0.17868 0.0
C919 C 0.39235 0.86101 0.1509 0.0
H920 H 0.46917 0.89897 0.19164 0.0
C921 C 0.39457 0.84132 0.11437 0.0
H922 H 0.41873 0.89704 0.20722 0.0
C923 C 0.42349 0.84241 0.10546 0.0
C924 C 0.45084 0.8632 0.13291 0.0
H925 H 0.37399 0.82512 0.09238 0.0
H926 H 0.42442 0.82707 0.07678 0.0
C927 C 0.44856 0.88268 0.1698 0.0
C928 C 0.06292 0.52713 0.11371 0.0
C929 C 0.08941 0.55786 0.11843 0.0
H930 H 0.04466 0.47702 0.1206 0.0
C931 C 0.11883 0.56123 0.13278 0.0
H932 H 0.03993 0.52371 0.10266 0.0
C933 C 0.12159 0.53443 0.14274 0.0
C934 C 0.09494 0.50372 0.13891 0.0
H935 H 0.13973 0.58458 0.13658 0.0
H936 H 0.14451 0.53785 0.15421 0.0
C937 C 0.06563 0.50035 0.12402 0.0
C938 C 0.48554 0.58522 0.15973 0.0
C939 C 0.49458 0.6133 0.1326 0.0
H940 H 0.4516 0.53577 0.16879 0.0
C941 C 0.47571 0.61239 0.09198 0.0
H942 H 0.49949 0.58514 0.19137 0.0
C943 C 0.44832 0.584 0.07885 0.0
C944 C 0.43906 0.55603 0.1064 0.0
H945 H 0.48205 0.63361 0.07032 0.0
H946 H 0.43423 0.58409 0.04742 0.0
C947 C 0.458 0.55693 0.14692 0.0
C948 C 0.10769 0.57179 0.6554 0.0
C949 C 0.10967 0.5921 0.61629 0.0
H950 H 0.10413 0.5274 0.67569 0.0
C951 C 0.1091 0.58251 0.56645 0.0
H952 H 0.10828 0.5787 0.6942 0.0
C953 C 0.10615 0.55293 0.55589 0.0
C954 C 0.10449 0.53277 0.595 0.0
H955 H 0.11055 0.59769 0.53561 0.0
H956 H 0.10552 0.54601 0.5171 0.0
C957 C 0.1055 0.54255 0.64485 0.0
C958 C 0.42294 0.56194 0.66052 0.0
C959 C 0.41242 0.5293 0.65607 0.0
H960 H 0.46248 0.6095 0.65823 0.0
C961 C 0.43475 0.51976 0.64482 0.0
H962 H 0.40639 0.57009 0.66935 0.0
C963 C 0.46689 0.54234 0.63845 0.0
C964 C 0.47746 0.57495 0.64347 0.0
H965 H 0.42745 0.4948 0.64117 0.0
H966 H 0.48346 0.53417 0.62986 0.0
C967 C 0.45513 0.58453 0.65443 0.0
C968 C 0.42711 0.85648 0.5987 0.0
C969 C 0.41795 0.87415 0.62922 0.0
H970 H 0.46115 0.84157 0.58495 0.0
C971 C 0.43701 0.89068 0.67063 0.0
H972 H 0.41295 0.84348 0.56651 0.0
C973 C 0.46482 0.88982 0.68095 0.0
C974 C 0.47401 0.8722 0.65032 0.0
H975 H 0.43067 0.90462 0.69479 0.0
H976 H 0.47905 0.90289 0.71305 0.0
C977 C 0.45477 0.85541 0.60925 0.0
C978 C 0.2297 0.44823 0.16312 0.0
C979 C 0.22716 0.47583 0.16549 0.0
H980 H 0.26046 0.42872 0.15517 0.0
C981 C 0.25506 0.50571 0.16337 0.0
H982 H 0.20869 0.42483 0.16487 0.0
C983 C 0.28479 0.50794 0.15816 0.0
C984 C 0.28725 0.48034 0.15471 0.0
H985 H 0.25397 0.52744 0.16541 0.0
H986 H 0.30576 0.53133 0.15589 0.0
C987 C 0.2594 0.45046 0.1577 0.0
C988 C 0.51724 0.77983 0.2261 0.0
C989 C 0.53977 0.80532 0.19703 0.0
H990 H 0.50255 0.73377 0.2568 0.0
C991 C 0.56581 0.80373 0.17722 0.0
H992 H 0.49691 0.78031 0.24189 0.0
C993 C 0.56895 0.77702 0.18552 0.0
C994 C 0.5462 0.75132 0.214 0.0
H995 H 0.58358 0.82291 0.15457 0.0
H996 H 0.58915 0.77648 0.1693 0.0
C997 C 0.52045 0.75313 0.23457 0.0
C998 C 0.21167 0.72308 0.20988 0.0
C999 C 0.1901 0.72231 0.17398 0.0
H1000 H 0.25525 0.75154 0.24968 0.0
C1001 C 0.19658 0.75077 0.15018 0.0
H1002 H 0.20738 0.70157 0.22887 0.0
C1003 C 0.22409 0.77933 0.16186 0.0
C1004 C 0.24565 0.78013 0.19782 0.0
H1005 H 0.18051 0.751 0.12221 0.0
H1006 H 0.22836 0.80082 0.14279 0.0
C1007 C 0.23913 0.75172 0.22179 0.0
C1008 C 0.18395 0.17133 0.2434 0.0
C1009 C 0.20509 0.19826 0.21567 0.0
H1010 H 0.16981 0.14993 0.31571 0.0
C1011 C 0.2287 0.22517 0.24093 0.0
H1012 H 0.16569 0.15016 0.22486 0.0
C1013 C 0.23072 0.22525 0.29331 0.0
C1014 C 0.20975 0.19808 0.32086 0.0
H1015 H 0.24529 0.24623 0.22029 0.0
H1016 H 0.24883 0.24635 0.31218 0.0
C1017 C 0.18649 0.17111 0.29539 0.0
C1018 C 0.81517 0.01799 0.21922 0.0
C1019 C 0.78828 0.01384 0.19287 0.0
H1020 H 0.83556 0.01835 0.29033 0.0
C1021 C 0.76069 0.00711 0.21981 0.0
H1022 H 0.83683 0.02325 0.19965 0.0
C1023 C 0.75998 0.00432 0.27205 0.0
C1024 C 0.78683 0.00818 0.29827 0.0
H1025 H 0.73959 0.00382 0.20057 0.0
H1026 H 0.73833 -0.00107 0.2918 0.0
C1027 C 0.81444 0.01517 0.2713 0.0
C1028 C 0.99123 0.75807 0.26027 0.0
C1029 C 0.97943 0.77445 0.28845 0.0
H1030 H 0.0018 0.74747 0.18705 0.0
C1031 C 0.96842 0.79249 0.26325 0.0
H1032 H -0.00015 0.74394 0.27867 0.0
C1033 C 0.96987 0.7948 0.21115 0.0
C1034 C 0.98205 0.77884 0.18292 0.0
H1035 H 0.95922 0.80545 0.28378 0.0
H1036 H 0.96151 0.80924 0.19304 0.0
C1037 C 0.99235 0.76009 0.20788 0.0
C1038 C 0.76803 0.77839 0.75592 0.0
C1039 C 0.78203 0.80837 0.77936 0.0
H1040 H 0.75751 0.75268 0.68653 0.0
C1041 C 0.79511 0.83582 0.74943 0.0
H1042 H 0.75768 0.75677 0.77797 0.0
C1043 C 0.79496 0.83348 0.69734 0.0
C1044 C 0.78177 0.80363 0.6738 0.0
H1045 H 0.80592 0.85928 0.76621 0.0
H1046 H 0.80569 0.85523 0.67558 0.0
C1047 C 0.76792 0.77604 0.70357 0.0
C1048 C 0.22713 0.98835 0.7178 0.0
C1049 C 0.20073 0.98641 0.69273 0.0
H1050 H 0.24869 0.98964 0.78839 0.0
C1051 C 0.17519 0.98402 0.721 0.0
H1052 H 0.2472 0.99023 0.69705 0.0
C1053 C 0.17608 0.98377 0.77327 0.0
C1054 C 0.20251 0.98584 0.79837 0.0
H1055 H 0.15451 0.98252 0.70283 0.0
H1056 H 0.15602 0.98197 0.79394 0.0
C1057 C 0.228 0.98805 0.77013 0.0
C1058 C 0.99813 0.22919 0.73397 0.0
C1059 C 0.00778 0.21116 0.70529 0.0
H1060 H 0.99151 0.24264 0.80774 0.0
C1061 C 0.0186 0.19279 0.72996 0.0
H1062 H 0.98975 0.24363 0.71593 0.0
C1063 C 0.01926 0.19195 0.78212 0.0
C1064 C 0.00951 0.20978 0.81092 0.0
H1065 H 0.02614 0.17857 0.70903 0.0
H1066 H 0.02748 0.17728 0.79985 0.0
C1067 C -0.00079 0.22868 0.78642 0.0
C1068 C 0.9009 0.56283 0.55509 0.0
C1069 C 0.87477 0.54146 0.52583 0.0
H1070 H 0.9194 0.57843 0.62912 0.0
C1071 C 0.84657 0.51923 0.54993 0.0
H1072 H 0.92296 0.58024 0.53759 0.0
C1073 C 0.84461 0.51806 0.6021 0.0
C1074 C 0.87072 0.53922 0.63147 0.0
H1075 H 0.82599 0.5024 0.52855 0.0
H1076 H 0.82253 0.50049 0.61935 0.0
C1077 C 0.89887 0.56178 0.60748 0.0
C1078 C 0.47224 0.32868 0.56363 0.0
C1079 C 0.4509 0.33416 0.53574 0.0
H1080 H 0.48701 0.32237 0.63597 0.0
C1081 C 0.42709 0.33713 0.56108 0.0
H1082 H 0.49083 0.32623 0.54531 0.0
C1083 C 0.42486 0.33488 0.61339 0.0
C1084 C 0.44643 0.32966 0.64121 0.0
H1085 H 0.41026 0.34133 0.54058 0.0
H1086 H 0.4064 0.33743 0.63198 0.0
C1087 C 0.47004 0.32647 0.61572 0.0
C1088 C 0.65818 0.15669 0.59932 0.0
C1089 C 0.66151 0.134 0.62724 0.0
H1090 H 0.65508 0.17349 0.52673 0.0
C1091 C 0.66432 0.11014 0.60174 0.0
H1092 H 0.65596 0.17538 0.61779 0.0
C1093 C 0.66383 0.10906 0.54934 0.0
C1094 C 0.66051 0.13181 0.52148 0.0
H1095 H 0.66693 0.09231 0.62221 0.0
H1096 H 0.66605 0.09041 0.53073 0.0
C1097 C 0.65768 0.1556 0.54705 0.0
C1098 C 0.42464 0.09849 0.11225 0.0
C1099 C 0.45156 0.1226 0.13672 0.0
H1100 H 0.40056 0.08083 0.04197 0.0
C1101 C 0.47465 0.14836 0.10897 0.0
H1102 H 0.40652 0.07843 0.13308 0.0
C1103 C 0.47073 0.15026 0.05757 0.0
C1104 C 0.44412 0.12595 0.03287 0.0
H1105 H 0.49544 0.16739 0.12717 0.0
H1106 H 0.48887 0.17044 0.03697 0.0
C1107 C 0.42122 0.09988 0.06041 0.0
C1108 C 0.86583 0.34465 0.10169 0.0
C1109 C 0.88652 0.33723 0.1275 0.0
H1110 H 0.84997 0.35196 0.03092 0.0
C1111 C 0.90787 0.33152 0.09987 0.0
H1112 H 0.84909 0.3492 0.12176 0.0
C1113 C 0.90839 0.33312 0.04744 0.0
C1114 C 0.88756 0.34044 0.02173 0.0
H1115 H 0.92412 0.32576 0.11869 0.0
H1116 H 0.92502 0.32854 0.02711 0.0
C1117 C 0.86634 0.34623 0.04948 0.0
C1118 C 0.63239 0.50393 0.12908 0.0
C1119 C 0.65126 0.533 0.15388 0.0
H1120 H 0.61597 0.47977 0.05911 0.0
C1121 C 0.66756 0.56099 0.12533 0.0
H1122 H 0.61943 0.48192 0.14988 0.0
C1123 C 0.66552 0.55975 0.07294 0.0
C1124 C 0.64722 0.53049 0.0482 0.0
H1125 H 0.68225 0.58378 0.14337 0.0
H1126 H 0.67868 0.58161 0.05185 0.0
C1127 C 0.63044 0.50269 0.07691 0.0
C1128 C 0.53609 0.83679 0.95127 0.0
C1129 C 0.54989 0.86595 0.97702 0.0
H1130 H 0.52474 0.81315 0.88029 0.0
C1131 C 0.56411 0.8944 0.94936 0.0
H1132 H 0.52492 0.81444 0.97145 0.0
C1133 C 0.56422 0.89365 0.89695 0.0
C1134 C 0.54979 0.86443 0.87126 0.0
H1135 H 0.57503 0.91725 0.96817 0.0
H1136 H 0.57511 0.91594 0.8766 0.0
C1137 C 0.5359 0.83604 0.89897 0.0
C1138 C 0.10069 0.66247 0.92457 0.0
C1139 C 0.1251 0.66114 0.95088 0.0
H1140 H 0.0825 0.66574 0.85302 0.0
C1141 C 0.15061 0.66246 0.92388 0.0
H1142 H 0.08073 0.66156 0.94431 0.0
C1143 C 0.1516 0.66478 0.87169 0.0
C1144 C 0.12715 0.66594 0.8453 0.0
H1145 H 0.16983 0.66152 0.94298 0.0
H1146 H 0.17154 0.66558 0.85207 0.0
C1147 C 0.10173 0.6649 0.87228 0.0
C1148 C 0.34402 0.44058 0.92632 0.0
C1149 C 0.33745 0.46144 0.95362 0.0
H1150 H 0.34759 0.42363 0.85357 0.0
C1151 C 0.32931 0.48151 0.92762 0.0
H1152 H 0.35029 0.4248 0.94545 0.0
C1153 C 0.32823 0.48116 0.87545 0.0
C1154 C 0.33478 0.46039 0.84803 0.0
H1155 H 0.32422 0.49793 0.94752 0.0
H1156 H 0.32208 0.49713 0.85663 0.0
C1157 C 0.3424 0.43985 0.87387 0.0
C1158 C 0.15641 0.48378 0.42282 0.0
C1159 C 0.1306 0.45856 0.44762 0.0
H1160 H 0.17853 0.50415 0.35282 0.0
C1161 C 0.10669 0.43374 0.41911 0.0
H1162 H 0.17518 0.50333 0.44366 0.0
C1163 C 0.10871 0.43414 0.36675 0.0
C1164 C 0.13452 0.45949 0.34205 0.0
H1165 H 0.08651 0.41397 0.4372 0.0
H1166 H 0.09001 0.41467 0.34568 0.0
C1167 C 0.15828 0.48431 0.37066 0.0
C1168 C 0.52435 0.63682 0.38634 0.0
C1169 C 0.55387 0.65438 0.36216 0.0
H1170 H 0.49928 0.62225 0.45584 0.0
C1171 C 0.58168 0.67006 0.39133 0.0
H1172 H 0.50246 0.62442 0.36505 0.0
C1173 C 0.57985 0.66863 0.44374 0.0
C1174 C 0.55015 0.65178 0.46778 0.0
H1175 H 0.60479 0.68371 0.37375 0.0
H1176 H 0.60158 0.68126 0.46536 0.0
C1177 C 0.52251 0.63565 0.4385 0.0
C1178 C 0.30389 0.88648 0.38426 0.0
C1179 C 0.33456 0.90009 0.36333 0.0
H1180 H 0.27589 0.87477 0.4512 0.0
C1181 C 0.3611 0.91376 0.3953 0.0
H1182 H 0.28294 0.87588 0.36058 0.0
C1183 C 0.35703 0.91297 0.4472 0.0
C1184 C 0.32634 0.89869 0.4682 0.0
H1185 H 0.38503 0.92448 0.38037 0.0
H1186 H 0.37798 0.9232 0.47087 0.0
C1187 C 0.29983 0.8859 0.43618 0.0
loop_
_geom_bond_atom_site_label_1
_geom_bond_atom_site_label_2
_geom_bond_distance
_geom_bond_site_symmetry_2
_ccdc_geom_bond_type
C0 O1 1.160 . S
C0 O7 1.185 1_556 S
O1 C0 1.160 . S
O2 Zn3 1.899 . S
O2 C10 1.284 . S
Zn3 O2 1.899 . S
Zn3 O4 2.032 . S
Zn3 O7 2.086 . S
Zn3 O12 1.977 . S
O4 Zn3 2.032 . S
O4 C8 1.278 . S
C5 O6 1.203 . S
C5 O12 1.267 . S
O6 C5 1.203 . S
O7 C0 1.185 1_554 S
O7 Zn3 2.086 . S
C8 O4 1.278 . S
C8 O9 1.211 . S
O9 C8 1.211 . S
C10 O2 1.284 . S
C10 O11 1.273 . S
O11 C10 1.273 . S
O12 Zn3 1.977 . S
O12 C5 1.267 . S
C13 O14 1.160 . S
C13 O20 1.185 1_556 S
O14 C13 1.160 . S
O15 Zn16 1.899 1_565 S
O15 C23 1.284 . S
Zn16 O15 1.899 1_545 S
Zn16 O17 2.032 . S
Zn16 O20 2.086 . S
Zn16 O25 1.977 . S
O17 Zn16 2.032 . S
O17 C21 1.278 . S
C18 O19 1.203 1_545 S
C18 O25 1.267 . S
O19 C18 1.203 1_565 S
O20 C13 1.185 1_554 S
O20 Zn16 2.086 . S
C21 O17 1.278 . S
C21 O22 1.211 . S
O22 C21 1.211 . S
C23 O15 1.284 . S
C23 O24 1.273 . S
O24 C23 1.273 . S
O25 Zn16 1.977 . S
O25 C18 1.267 . S
C26 O27 1.160 . S
C26 O33 1.185 1_556 S
O27 C26 1.160 . S
O28 Zn29 1.899 1_455 S
O28 C36 1.284 . S
Zn29 O28 1.899 1_655 S
Zn29 O30 2.032 . S
Zn29 O33 2.086 . S
Zn29 O38 1.977 . S
O30 Zn29 2.032 . S
O30 C34 1.278 . S
C31 O32 1.203 1_655 S
C31 O38 1.267 . S
O32 C31 1.203 1_455 S
O33 C26 1.185 1_554 S
O33 Zn29 2.086 . S
C34 O30 1.278 . S
C34 O35 1.211 . S
O35 C34 1.211 . S
C36 O28 1.284 . S
C36 O37 1.273 . S
O37 C36 1.273 . S
O38 Zn29 1.977 . S
O38 C31 1.267 . S
C39 O40 1.160 . S
C39 O46 1.185 . S
O40 C39 1.160 . S
O41 Zn42 1.899 . S
O41 C49 1.284 . S
Zn42 O41 1.899 . S
Zn42 O43 2.032 . S
Zn42 O46 2.086 . S
Zn42 O51 1.977 . S
O43 Zn42 2.032 . S
O43 C47 1.278 . S
C44 O45 1.203 . S
C44 O51 1.267 . S
O45 C44 1.203 . S
O46 C39 1.185 . S
O46 Zn42 2.086 . S
C47 O43 1.278 . S
C47 O48 1.211 . S
O48 C47 1.211 . S
C49 O41 1.284 . S
C49 O50 1.273 . S
O50 C49 1.273 . S
O51 Zn42 1.977 . S
O51 C44 1.267 . S
C52 O53 1.160 . S
C52 O59 1.185 . S
O53 C52 1.160 . S
O54 Zn55 1.899 1_545 S
O54 C62 1.284 . S
Zn55 O54 1.899 1_565 S
Zn55 O56 2.032 . S
Zn55 O59 2.086 . S
Zn55 O64 1.977 . S
O56 Zn55 2.032 . S
O56 C60 1.278 . S
C57 O58 1.203 1_565 S
C57 O64 1.267 . S
O58 C57 1.203 1_545 S
O59 C52 1.185 . S
O59 Zn55 2.086 . S
C60 O56 1.278 . S
C60 O61 1.211 . S
O61 C60 1.211 . S
C62 O54 1.284 . S
C62 O63 1.273 . S
O63 C62 1.273 . S
O64 Zn55 1.977 . S
O64 C57 1.267 . S
C65 O66 1.160 . S
C65 O72 1.185 . S
O66 C65 1.160 . S
O67 Zn68 1.899 1_655 S
O67 C75 1.284 . S
Zn68 O67 1.899 1_455 S
Zn68 O69 2.032 . S
Zn68 O72 2.086 . S
Zn68 O77 1.977 . S
O69 Zn68 2.032 . S
O69 C73 1.278 . S
C70 O71 1.203 1_455 S
C70 O77 1.267 . S
O71 C70 1.203 1_655 S
O72 C65 1.185 . S
O72 Zn68 2.086 . S
C73 O69 1.278 . S
C73 O74 1.211 . S
O74 C73 1.211 . S
C75 O67 1.284 . S
C75 O76 1.273 . S
O76 C75 1.273 . S
O77 Zn68 1.977 . S
O77 C70 1.267 . S
C78 O79 1.160 . S
C78 O85 1.185 1_554 S
O79 C78 1.160 . S
O80 Zn81 1.899 . S
O80 C88 1.284 . S
Zn81 O80 1.899 . S
Zn81 O82 2.032 . S
Zn81 O85 2.086 . S
Zn81 O90 1.977 . S
O82 Zn81 2.032 . S
O82 C86 1.278 . S
C83 O84 1.203 . S
C83 O90 1.267 . S
O84 C83 1.203 . S
O85 C78 1.185 1_556 S
O85 Zn81 2.086 . S
C86 O82 1.278 . S
C86 O87 1.211 . S
O87 C86 1.211 . S
C88 O80 1.284 . S
C88 O89 1.273 . S
O89 C88 1.273 . S
O90 Zn81 1.977 . S
O90 C83 1.267 . S
C91 O92 1.160 . S
C91 O98 1.185 1_554 S
O92 C91 1.160 . S
O93 Zn94 1.899 1_545 S
O93 C101 1.284 . S
Zn94 O93 1.899 1_565 S
Zn94 O95 2.032 . S
Zn94 O98 2.086 . S
Zn94 O103 1.977 . S
O95 Zn94 2.032 . S
O95 C99 1.278 . S
C96 O97 1.203 1_565 S
C96 O103 1.267 . S
O97 C96 1.203 1_545 S
O98 C91 1.185 1_556 S
O98 Zn94 2.086 . S
C99 O95 1.278 . S
C99 O100 1.211 . S
O100 C99 1.211 . S
C101 O93 1.284 . S
C101 O102 1.273 . S
O102 C101 1.273 . S
O103 Zn94 1.977 . S
O103 C96 1.267 . S
C104 O105 1.160 . S
C104 O111 1.185 1_554 S
O105 C104 1.160 . S
O106 Zn107 1.899 1_655 S
O106 C114 1.284 . S
Zn107 O106 1.899 1_455 S
Zn107 O108 2.032 . S
Zn107 O111 2.086 . S
Zn107 O116 1.977 . S
O108 Zn107 2.032 . S
O108 C112 1.278 . S
C109 O110 1.203 1_455 S
C109 O116 1.267 . S
O110 C109 1.203 1_655 S
O111 C104 1.185 1_556 S
O111 Zn107 2.086 . S
C112 O108 1.278 . S
C112 O113 1.211 . S
O113 C112 1.211 . S
C114 O106 1.284 . S
C114 O115 1.273 . S
O115 C114 1.273 . S
O116 Zn107 1.977 . S
O116 C109 1.267 . S
C117 O118 1.160 . S
C117 O124 1.185 . S
O118 C117 1.160 . S
O119 Zn120 1.899 . S
O119 C127 1.284 . S
Zn120 O119 1.899 . S
Zn120 O121 2.032 . S
Zn120 O124 2.086 . S
Zn120 O129 1.977 . S
O121 Zn120 2.032 . S
O121 C125 1.278 . S
C122 O123 1.203 . S
C122 O129 1.267 . S
O123 C122 1.203 . S
O124 C117 1.185 . S
O124 Zn120 2.086 . S
C125 O121 1.278 . S
C125 O126 1.211 . S
O126 C125 1.211 . S
C127 O119 1.284 . S
C127 O128 1.273 . S
O128 C127 1.273 . S
O129 Zn120 1.977 . S
O129 C122 1.267 . S
C130 O131 1.160 . S
C130 O137 1.185 . S
O131 C130 1.160 . S
O132 Zn133 1.899 1_565 S
O132 C140 1.284 . S
Zn133 O132 1.899 1_545 S
Zn133 O134 2.032 . S
Zn133 O137 2.086 . S
Zn133 O142 1.977 . S
O134 Zn133 2.032 . S
O134 C138 1.278 . S
C135 O136 1.203 1_545 S
C135 O142 1.267 . S
O136 C135 1.203 1_565 S
O137 C130 1.185 . S
O137 Zn133 2.086 . S
C138 O134 1.278 . S
C138 O139 1.211 . S
O139 C138 1.211 . S
C140 O132 1.284 . S
C140 O141 1.273 . S
O141 C140 1.273 . S
O142 Zn133 1.977 . S
O142 C135 1.267 . S
C143 O144 1.160 . S
C143 O150 1.185 . S
O144 C143 1.160 . S
O145 Zn146 1.899 1_455 S
O145 C153 1.284 . S
Zn146 O145 1.899 1_655 S
Zn146 O147 2.032 . S
Zn146 O150 2.086 . S
Zn146 O155 1.977 . S
O147 Zn146 2.032 . S
O147 C151 1.278 . S
C148 O149 1.203 1_655 S
C148 O155 1.267 . S
O149 C148 1.203 1_455 S
O150 C143 1.185 . S
O150 Zn146 2.086 . S
C151 O147 1.278 . S
C151 O152 1.211 . S
O152 C151 1.211 . S
C153 O145 1.284 . S
C153 O154 1.273 . S
O154 C153 1.273 . S
O155 Zn146 1.977 . S
O155 C148 1.267 . S
C156 O157 1.160 . S
C156 O163 1.185 . S
O157 C156 1.160 . S
O158 Zn159 1.899 . S
O158 C166 1.284 . S
Zn159 O158 1.899 . S
Zn159 O160 2.032 . S
Zn159 O163 2.086 . S
Zn159 O168 1.977 . S
O160 Zn159 2.032 . S
O160 C164 1.278 . S
C161 O162 1.203 . S
C161 O168 1.267 . S
O162 C161 1.203 . S
O163 C156 1.185 . S
O163 Zn159 2.086 . S
C164 O160 1.278 . S
C164 O165 1.211 . S
O165 C164 1.211 . S
C166 O158 1.284 . S
C166 O167 1.273 . S
O167 C166 1.273 . S
O168 Zn159 1.977 . S
O168 C161 1.267 . S
C169 O170 1.160 . S
C169 O176 1.185 . S
O170 C169 1.160 . S
O171 Zn172 1.899 . S
O171 C179 1.284 . S
Zn172 O171 1.899 . S
Zn172 O173 2.032 . S
Zn172 O176 2.086 . S
Zn172 O181 1.977 . S
O173 Zn172 2.032 . S
O173 C177 1.278 . S
C174 O175 1.203 . S
C174 O181 1.267 . S
O175 C174 1.203 . S
O176 C169 1.185 . S
O176 Zn172 2.086 . S
C177 O173 1.278 . S
C177 O178 1.211 . S
O178 C177 1.211 . S
C179 O171 1.284 . S
C179 O180 1.273 . S
O180 C179 1.273 . S
O181 Zn172 1.977 . S
O181 C174 1.267 . S
C182 O183 1.160 . S
C182 O189 1.185 . S
O183 C182 1.160 . S
O184 Zn185 1.899 . S
O184 C192 1.284 . S
Zn185 O184 1.899 . S
Zn185 O186 2.032 . S
Zn185 O189 2.086 . S
Zn185 O194 1.977 . S
O186 Zn185 2.032 . S
O186 C190 1.278 . S
C187 O188 1.203 . S
C187 O194 1.267 . S
O188 C187 1.203 . S
O189 C182 1.185 . S
O189 Zn185 2.086 . S
C190 O186 1.278 . S
C190 O191 1.211 . S
O191 C190 1.211 . S
C192 O184 1.284 . S
C192 O193 1.273 . S
O193 C192 1.273 . S
O194 Zn185 1.977 . S
O194 C187 1.267 . S
C195 O196 1.160 . S
C195 O202 1.185 . S
O196 C195 1.160 . S
O197 Zn198 1.899 . S
O197 C205 1.284 . S
Zn198 O197 1.899 . S
Zn198 O199 2.032 . S
Zn198 O202 2.086 . S
Zn198 O207 1.977 . S
O199 Zn198 2.032 . S
O199 C203 1.278 . S
C200 O201 1.203 . S
C200 O207 1.267 . S
O201 C200 1.203 . S
O202 C195 1.185 . S
O202 Zn198 2.086 . S
C203 O199 1.278 . S
C203 O204 1.211 . S
O204 C203 1.211 . S
C205 O197 1.284 . S
C205 O206 1.273 . S
O206 C205 1.273 . S
O207 Zn198 1.977 . S
O207 C200 1.267 . S
C208 O209 1.160 . S
C208 O215 1.185 . S
O209 C208 1.160 . S
O210 Zn211 1.899 . S
O210 C218 1.284 . S
Zn211 O210 1.899 . S
Zn211 O212 2.032 . S
Zn211 O215 2.086 . S
Zn211 O220 1.977 . S
O212 Zn211 2.032 . S
O212 C216 1.278 . S
C213 O214 1.203 . S
C213 O220 1.267 . S
O214 C213 1.203 . S
O215 C208 1.185 . S
O215 Zn211 2.086 . S
C216 O212 1.278 . S
C216 O217 1.211 . S
O217 C216 1.211 . S
C218 O210 1.284 . S
C218 O219 1.273 . S
O219 C218 1.273 . S
O220 Zn211 1.977 . S
O220 C213 1.267 . S
C221 O222 1.160 . S
C221 O228 1.185 . S
O222 C221 1.160 . S
O223 Zn224 1.899 . S
O223 C231 1.284 . S
Zn224 O223 1.899 . S
Zn224 O225 2.032 . S
Zn224 O228 2.086 . S
Zn224 O233 1.977 . S
O225 Zn224 2.032 . S
O225 C229 1.278 . S
C226 O227 1.203 . S
C226 O233 1.267 . S
O227 C226 1.203 . S
O228 C221 1.185 . S
O228 Zn224 2.086 . S
C229 O225 1.278 . S
C229 O230 1.211 . S
O230 C229 1.211 . S
C231 O223 1.284 . S
C231 O232 1.273 . S
O232 C231 1.273 . S
O233 Zn224 1.977 . S
O233 C226 1.267 . S
C234 O235 1.160 . S
C234 O241 1.185 . S
O235 C234 1.160 . S
O236 Zn237 1.899 . S
O236 C244 1.284 . S
Zn237 O236 1.899 . S
Zn237 O238 2.032 . S
Zn237 O241 2.086 . S
Zn237 O246 1.977 . S
O238 Zn237 2.032 . S
O238 C242 1.278 . S
C239 O240 1.203 . S
C239 O246 1.267 . S
O240 C239 1.203 . S
O241 C234 1.185 . S
O241 Zn237 2.086 . S
C242 O238 1.278 . S
C242 O243 1.211 . S
O243 C242 1.211 . S
C244 O236 1.284 . S
C244 O245 1.273 . S
O245 C244 1.273 . S
O246 Zn237 1.977 . S
O246 C239 1.267 . S
C247 O248 1.160 . S
C247 O254 1.185 . S
O248 C247 1.160 . S
O249 Zn250 1.899 . S
O249 C257 1.284 . S
Zn250 O249 1.899 . S
Zn250 O251 2.032 . S
Zn250 O254 2.086 . S
Zn250 O259 1.977 . S
O251 Zn250 2.032 . S
O251 C255 1.278 . S
C252 O253 1.203 . S
C252 O259 1.267 . S
O253 C252 1.203 . S
O254 C247 1.185 . S
O254 Zn250 2.086 . S
C255 O251 1.278 . S
C255 O256 1.211 . S
O256 C255 1.211 . S
C257 O249 1.284 . S
C257 O258 1.273 . S
O258 C257 1.273 . S
O259 Zn250 1.977 . S
O259 C252 1.267 . S
C260 O261 1.160 . S
C260 O267 1.185 . S
O261 C260 1.160 . S
O262 Zn263 1.899 . S
O262 C270 1.284 . S
Zn263 O262 1.899 . S
Zn263 O264 2.032 . S
Zn263 O267 2.086 . S
Zn263 O272 1.977 . S
O264 Zn263 2.032 . S
O264 C268 1.278 . S
C265 O266 1.203 . S
C265 O272 1.267 . S
O266 C265 1.203 . S
O267 C260 1.185 . S
O267 Zn263 2.086 . S
C268 O264 1.278 . S
C268 O269 1.211 . S
O269 C268 1.211 . S
C270 O262 1.284 . S
C270 O271 1.273 . S
O271 C270 1.273 . S
O272 Zn263 1.977 . S
O272 C265 1.267 . S
C273 O274 1.160 . S
C273 O280 1.185 . S
O274 C273 1.160 . S
O275 Zn276 1.899 . S
O275 C283 1.284 . S
Zn276 O275 1.899 . S
Zn276 O277 2.032 . S
Zn276 O280 2.086 . S
Zn276 O285 1.977 . S
O277 Zn276 2.032 . S
O277 C281 1.278 . S
C278 O279 1.203 . S
C278 O285 1.267 . S
O279 C278 1.203 . S
O280 C273 1.185 . S
O280 Zn276 2.086 . S
C281 O277 1.278 . S
C281 O282 1.211 . S
O282 C281 1.211 . S
C283 O275 1.284 . S
C283 O284 1.273 . S
O284 C283 1.273 . S
O285 Zn276 1.977 . S
O285 C278 1.267 . S
C286 O287 1.160 . S
C286 O293 1.185 . S
O287 C286 1.160 . S
O288 Zn289 1.899 . S
O288 C296 1.284 . S
Zn289 O288 1.899 . S
Zn289 O290 2.032 . S
Zn289 O293 2.086 . S
Zn289 O298 1.977 . S
O290 Zn289 2.032 . S
O290 C294 1.278 . S
C291 O292 1.203 . S
C291 O298 1.267 . S
O292 C291 1.203 . S
O293 C286 1.185 . S
O293 Zn289 2.086 . S
C294 O290 1.278 . S
C294 O295 1.211 . S
O295 C294 1.211 . S
C296 O288 1.284 . S
C296 O297 1.273 . S
O297 C296 1.273 . S
O298 Zn289 1.977 . S
O298 C291 1.267 . S
C299 O300 1.160 . S
C299 O306 1.185 . S
O300 C299 1.160 . S
O301 Zn302 1.899 . S
O301 C309 1.284 . S
Zn302 O301 1.899 . S
Zn302 O303 2.032 . S
Zn302 O306 2.086 . S
Zn302 O311 1.977 . S
O303 Zn302 2.032 . S
O303 C307 1.278 . S
C304 O305 1.203 . S
C304 O311 1.267 . S
O305 C304 1.203 . S
O306 C299 1.185 . S
O306 Zn302 2.086 . S
C307 O303 1.278 . S
C307 O308 1.211 . S
O308 C307 1.211 . S
C309 O301 1.284 . S
C309 O310 1.273 . S
O310 C309 1.273 . S
O311 Zn302 1.977 . S
O311 C304 1.267 . S
C312 O313 1.160 . S
C312 O319 1.185 . S
O313 C312 1.160 . S
O314 Zn315 1.899 . S
O314 C322 1.284 . S
Zn315 O314 1.899 . S
Zn315 O316 2.032 . S
Zn315 O319 2.086 . S
Zn315 O324 1.977 . S
O316 Zn315 2.032 . S
O316 C320 1.278 . S
C317 O318 1.203 . S
C317 O324 1.267 . S
O318 C317 1.203 . S
O319 C312 1.185 . S
O319 Zn315 2.086 . S
C320 O316 1.278 . S
C320 O321 1.211 . S
O321 C320 1.211 . S
C322 O314 1.284 . S
C322 O323 1.273 . S
O323 C322 1.273 . S
O324 Zn315 1.977 . S
O324 C317 1.267 . S
C325 O326 1.160 . S
C325 O332 1.185 . S
O326 C325 1.160 . S
O327 Zn328 1.899 . S
O327 C335 1.284 . S
Zn328 O327 1.899 . S
Zn328 O329 2.032 . S
Zn328 O332 2.086 . S
Zn328 O337 1.977 . S
O329 Zn328 2.032 . S
O329 C333 1.278 . S
C330 O331 1.203 . S
C330 O337 1.267 . S
O331 C330 1.203 . S
O332 C325 1.185 . S
O332 Zn328 2.086 . S
C333 O329 1.278 . S
C333 O334 1.211 . S
O334 C333 1.211 . S
C335 O327 1.284 . S
C335 O336 1.273 . S
O336 C335 1.273 . S
O337 Zn328 1.977 . S
O337 C330 1.267 . S
C338 O339 1.160 . S
C338 O345 1.185 . S
O339 C338 1.160 . S
O340 Zn341 1.899 . S
O340 C348 1.284 . S
Zn341 O340 1.899 . S
Zn341 O342 2.032 . S
Zn341 O345 2.086 . S
Zn341 O350 1.977 . S
O342 Zn341 2.032 . S
O342 C346 1.278 . S
C343 O344 1.203 . S
C343 O350 1.267 . S
O344 C343 1.203 . S
O345 C338 1.185 . S
O345 Zn341 2.086 . S
C346 O342 1.278 . S
C346 O347 1.211 . S
O347 C346 1.211 . S
C348 O340 1.284 . S
C348 O349 1.273 . S
O349 C348 1.273 . S
O350 Zn341 1.977 . S
O350 C343 1.267 . S
C351 O352 1.160 . S
C351 O358 1.185 . S
O352 C351 1.160 . S
O353 Zn354 1.899 . S
O353 C361 1.284 . S
Zn354 O353 1.899 . S
Zn354 O355 2.032 . S
Zn354 O358 2.086 . S
Zn354 O363 1.977 . S
O355 Zn354 2.032 . S
O355 C359 1.278 . S
C356 O357 1.203 . S
C356 O363 1.267 . S
O357 C356 1.203 . S
O358 C351 1.185 . S
O358 Zn354 2.086 . S
C359 O355 1.278 . S
C359 O360 1.211 . S
O360 C359 1.211 . S
C361 O353 1.284 . S
C361 O362 1.273 . S
O362 C361 1.273 . S
O363 Zn354 1.977 . S
O363 C356 1.267 . S
C364 O365 1.160 . S
C364 O371 1.185 . S
O365 C364 1.160 . S
O366 Zn367 1.899 . S
O366 C374 1.284 . S
Zn367 O366 1.899 . S
Zn367 O368 2.032 . S
Zn367 O371 2.086 . S
Zn367 O376 1.977 . S
O368 Zn367 2.032 . S
O368 C372 1.278 . S
C369 O370 1.203 . S
C369 O376 1.267 . S
O370 C369 1.203 . S
O371 C364 1.185 . S
O371 Zn367 2.086 . S
C372 O368 1.278 . S
C372 O373 1.211 . S
O373 C372 1.211 . S
C374 O366 1.284 . S
C374 O375 1.273 . S
O375 C374 1.273 . S
O376 Zn367 1.977 . S
O376 C369 1.267 . S
C377 O378 1.160 . S
C377 O384 1.185 . S
O378 C377 1.160 . S
O379 Zn380 1.899 . S
O379 C387 1.284 . S
Zn380 O379 1.899 . S
Zn380 O381 2.032 . S
Zn380 O384 2.086 . S
Zn380 O389 1.977 . S
O381 Zn380 2.032 . S
O381 C385 1.278 . S
C382 O383 1.203 . S
C382 O389 1.267 . S
O383 C382 1.203 . S
O384 C377 1.185 . S
O384 Zn380 2.086 . S
C385 O381 1.278 . S
C385 O386 1.211 . S
O386 C385 1.211 . S
C387 O379 1.284 . S
C387 O388 1.273 . S
O388 C387 1.273 . S
O389 Zn380 1.977 . S
O389 C382 1.267 . S
C390 O391 1.160 . S
C390 O397 1.185 . S
O391 C390 1.160 . S
O392 Zn393 1.899 . S
O392 C400 1.284 . S
Zn393 O392 1.899 . S
Zn393 O394 2.032 . S
Zn393 O397 2.086 . S
Zn393 O402 1.977 . S
O394 Zn393 2.032 . S
O394 C398 1.278 . S
C395 O396 1.203 . S
C395 O402 1.267 . S
O396 C395 1.203 . S
O397 C390 1.185 . S
O397 Zn393 2.086 . S
C398 O394 1.278 . S
C398 O399 1.211 . S
O399 C398 1.211 . S
C400 O392 1.284 . S
C400 O401 1.273 . S
O401 C400 1.273 . S
O402 Zn393 1.977 . S
O402 C395 1.267 . S
C403 O404 1.160 . S
C403 O410 1.185 . S
O404 C403 1.160 . S
O405 Zn406 1.899 . S
O405 C413 1.284 . S
Zn406 O405 1.899 . S
Zn406 O407 2.032 . S
Zn406 O410 2.086 . S
Zn406 O415 1.977 . S
O407 Zn406 2.032 . S
O407 C411 1.278 . S
C408 O409 1.203 . S
C408 O415 1.267 . S
O409 C408 1.203 . S
O410 C403 1.185 . S
O410 Zn406 2.086 . S
C411 O407 1.278 . S
C411 O412 1.211 . S
O412 C411 1.211 . S
C413 O405 1.284 . S
C413 O414 1.273 . S
O414 C413 1.273 . S
O415 Zn406 1.977 . S
O415 C408 1.267 . S
C416 O417 1.160 . S
C416 O423 1.185 . S
O417 C416 1.160 . S
O418 Zn419 1.899 . S
O418 C426 1.284 . S
Zn419 O418 1.899 . S
Zn419 O420 2.032 . S
Zn419 O423 2.086 . S
Zn419 O428 1.977 . S
O420 Zn419 2.032 . S
O420 C424 1.278 . S
C421 O422 1.203 . S
C421 O428 1.267 . S
O422 C421 1.203 . S
O423 C416 1.185 . S
O423 Zn419 2.086 . S
C424 O420 1.278 . S
C424 O425 1.211 . S
O425 C424 1.211 . S
C426 O418 1.284 . S
C426 O427 1.273 . S
O427 C426 1.273 . S
O428 Zn419 1.977 . S
O428 C421 1.267 . S
C429 O430 1.160 . S
C429 O436 1.185 . S
O430 C429 1.160 . S
O431 Zn432 1.899 . S
O431 C439 1.284 . S
Zn432 O431 1.899 . S
Zn432 O433 2.032 . S
Zn432 O436 2.086 . S
Zn432 O441 1.977 . S
O433 Zn432 2.032 . S
O433 C437 1.278 . S
C434 O435 1.203 . S
C434 O441 1.267 . S
O435 C434 1.203 . S
O436 C429 1.185 . S
O436 Zn432 2.086 . S
C437 O433 1.278 . S
C437 O438 1.211 . S
O438 C437 1.211 . S
C439 O431 1.284 . S
C439 O440 1.273 . S
O440 C439 1.273 . S
O441 Zn432 1.977 . S
O441 C434 1.267 . S
C442 O443 1.160 . S
C442 O449 1.185 . S
O443 C442 1.160 . S
O444 Zn445 1.899 . S
O444 C452 1.284 . S
Zn445 O444 1.899 . S
Zn445 O446 2.032 . S
Zn445 O449 2.086 . S
Zn445 O454 1.977 . S
O446 Zn445 2.032 . S
O446 C450 1.278 . S
C447 O448 1.203 . S
C447 O454 1.267 . S
O448 C447 1.203 . S
O449 C442 1.185 . S
O449 Zn445 2.086 . S
C450 O446 1.278 . S
C450 O451 1.211 . S
O451 C450 1.211 . S
C452 O444 1.284 . S
C452 O453 1.273 . S
O453 C452 1.273 . S
O454 Zn445 1.977 . S
O454 C447 1.267 . S
C455 O456 1.160 . S
C455 O462 1.185 . S
O456 C455 1.160 . S
O457 Zn458 1.899 . S
O457 C465 1.284 . S
Zn458 O457 1.899 . S
Zn458 O459 2.032 . S
Zn458 O462 2.086 . S
Zn458 O467 1.977 . S
O459 Zn458 2.032 . S
O459 C463 1.278 . S
C460 O461 1.203 . S
C460 O467 1.267 . S
O461 C460 1.203 . S
O462 C455 1.185 . S
O462 Zn458 2.086 . S
C463 O459 1.278 . S
C463 O464 1.211 . S
O464 C463 1.211 . S
C465 O457 1.284 . S
C465 O466 1.273 . S
O466 C465 1.273 . S
O467 Zn458 1.977 . S
O467 C460 1.267 . S
C468 C469 1.387 . S
C468 H472 0.950 . S
C468 C477 1.390 . S
C469 C468 1.387 . S
C469 C471 1.387 . S
H470 C477 0.950 . S
C471 C469 1.387 . S
C471 C473 1.390 . S
C471 H475 0.950 . S
H472 C468 0.950 . S
C473 C471 1.390 . S
C473 C474 1.387 . S
C473 H476 0.950 . S
C474 C473 1.387 . S
C474 C477 1.387 . S
H475 C471 0.950 . S
H476 C473 0.950 . S
C477 C468 1.390 . S
C477 H470 0.950 . S
C477 C474 1.387 . S
C478 C479 1.387 . S
C478 H482 0.950 . S
C478 C487 1.390 . S
C479 C478 1.387 . S
C479 C481 1.387 . S
H480 C487 0.950 . S
C481 C479 1.387 . S
C481 C483 1.390 . S
C481 H485 0.950 . S
H482 C478 0.950 . S
C483 C481 1.390 . S
C483 C484 1.387 . S
C483 H486 0.950 1_556 S
C484 C483 1.387 . S
C484 C487 1.387 . S
H485 C481 0.950 . S
H486 C483 0.950 1_554 S
C487 C478 1.390 . S
C487 H480 0.950 . S
C487 C484 1.387 . S
C488 C489 1.387 . S
C488 H492 0.950 . S
C488 C497 1.390 . S
C489 C488 1.387 . S
C489 C491 1.387 . S
H490 C497 0.950 . S
C491 C489 1.387 . S
C491 C493 1.390 . S
C491 H495 0.950 . S
H492 C488 0.950 . S
C493 C491 1.390 . S
C493 C494 1.387 . S
C493 H496 0.950 . S
C494 C493 1.387 . S
C494 C497 1.387 . S
H495 C491 0.950 . S
H496 C493 0.950 . S
C497 C488 1.390 . S
C497 H490 0.950 . S
C497 C494 1.387 . S
C498 C499 1.387 . S
C498 H502 0.950 . S
C498 C507 1.390 . S
C499 C498 1.387 . S
C499 C501 1.387 . S
H500 C507 0.950 . S
C501 C499 1.387 . S
C501 C503 1.390 . S
C501 H505 0.950 . S
H502 C498 0.950 . S
C503 C501 1.390 . S
C503 C504 1.387 . S
C503 H506 0.950 . S
C504 C503 1.387 . S
C504 C507 1.387 . S
H505 C501 0.950 . S
H506 C503 0.950 . S
C507 C498 1.390 . S
C507 H500 0.950 . S
C507 C504 1.387 . S
C508 C509 1.387 . S
C508 H512 0.950 . S
C508 C517 1.390 . S
C509 C508 1.387 . S
C509 C511 1.387 . S
H510 C517 0.950 . S
C511 C509 1.387 . S
C511 C513 1.390 . S
C511 H515 0.950 . S
H512 C508 0.950 . S
C513 C511 1.390 . S
C513 C514 1.387 . S
C513 H516 0.950 . S
C514 C513 1.387 . S
C514 C517 1.387 . S
H515 C511 0.950 . S
H516 C513 0.950 . S
C517 C508 1.390 . S
C517 H510 0.950 . S
C517 C514 1.387 . S
C518 C519 1.387 . S
C518 H522 0.950 . S
C518 C527 1.390 . S
C519 C518 1.387 . S
C519 C521 1.387 . S
H520 C527 0.950 . S
C521 C519 1.387 . S
C521 C523 1.390 . S
C521 H525 0.950 . S
H522 C518 0.950 . S
C523 C521 1.390 . S
C523 C524 1.387 . S
C523 H526 0.950 . S
C524 C523 1.387 . S
C524 C527 1.387 . S
H525 C521 0.950 . S
H526 C523 0.950 . S
C527 C518 1.390 . S
C527 H520 0.950 . S
C527 C524 1.387 . S
C528 C529 1.387 . S
C528 H532 0.950 . S
C528 C537 1.390 . S
C529 C528 1.387 . S
C529 C531 1.387 . S
H530 C537 0.950 . S
C531 C529 1.387 . S
C531 C533 1.390 . S
C531 H535 0.950 . S
H532 C528 0.950 . S
C533 C531 1.390 . S
C533 C534 1.387 . S
C533 H536 0.950 1_554 S
C534 C533 1.387 . S
C534 C537 1.387 . S
H535 C531 0.950 . S
H536 C533 0.950 1_556 S
C537 C528 1.390 . S
C537 H530 0.950 . S
C537 C534 1.387 . S
C538 C539 1.387 . S
C538 H542 0.950 . S
C538 C547 1.390 . S
C539 C538 1.387 . S
C539 C541 1.387 . S
H540 C547 0.950 . S
C541 C539 1.387 . S
C541 C543 1.390 . S
C541 H545 0.950 . S
H542 C538 0.950 . S
C543 C541 1.390 . S
C543 C544 1.387 . S
C543 H546 0.950 . S
C544 C543 1.387 . S
C544 C547 1.387 . S
H545 C541 0.950 . S
H546 C543 0.950 . S
C547 C538 1.390 . S
C547 H540 0.950 . S
C547 C544 1.387 . S
C548 C549 1.387 . S
C548 H552 0.950 . S
C548 C557 1.390 . S
C549 C548 1.387 . S
C549 C551 1.387 . S
H550 C557 0.950 . S
C551 C549 1.387 . S
C551 C553 1.390 . S
C551 H555 0.950 . S
H552 C548 0.950 . S
C553 C551 1.390 . S
C553 C554 1.387 . S
C553 H556 0.950 . S
C554 C553 1.387 . S
C554 C557 1.387 . S
H555 C551 0.950 . S
H556 C553 0.950 . S
C557 C548 1.390 . S
C557 H550 0.950 . S
C557 C554 1.387 . S
C558 C559 1.387 . S
C558 H562 0.950 . S
C558 C567 1.390 . S
C559 C558 1.387 . S
C559 C561 1.387 . S
H560 C567 0.950 . S
C561 C559 1.387 . S
C561 C563 1.390 . S
C561 H565 0.950 . S
H562 C558 0.950 . S
C563 C561 1.390 . S
C563 C564 1.387 . S
C563 H566 0.950 . S
C564 C563 1.387 . S
C564 C567 1.387 . S
H565 C561 0.950 . S
H566 C563 0.950 . S
C567 C558 1.390 . S
C567 H560 0.950 . S
C567 C564 1.387 . S
C568 C569 1.387 . S
C568 H572 0.950 . S
C568 C577 1.390 . S
C569 C568 1.387 . S
C569 C571 1.387 . S
H570 C577 0.950 . S
C571 C569 1.387 . S
C571 C573 1.390 . S
C571 H575 0.950 . S
H572 C568 0.950 . S
C573 C571 1.390 . S
C573 C574 1.387 . S
C573 H576 0.950 . S
C574 C573 1.387 . S
C574 C577 1.387 . S
H575 C571 0.950 . S
H576 C573 0.950 . S
C577 C568 1.390 . S
C577 H570 0.950 . S
C577 C574 1.387 . S
C578 C579 1.387 . S
C578 H582 0.950 . S
C578 C587 1.390 . S
C579 C578 1.387 . S
C579 C581 1.387 . S
H580 C587 0.950 . S
C581 C579 1.387 . S
C581 C583 1.390 . S
C581 H585 0.950 . S
H582 C578 0.950 . S
C583 C581 1.390 . S
C583 C584 1.387 . S
C583 H586 0.950 . S
C584 C583 1.387 . S
C584 C587 1.387 . S
H585 C581 0.950 . S
H586 C583 0.950 . S
C587 C578 1.390 . S
C587 H580 0.950 . S
C587 C584 1.387 . S
C588 C589 1.387 . S
C588 H592 0.950 . S
C588 C597 1.390 1_455 S
C589 C588 1.387 . S
C589 C591 1.387 . S
H590 C597 0.950 . S
C591 C589 1.387 . S
C591 C593 1.390 1_455 S
C591 H595 0.950 . S
H592 C588 0.950 . S
C593 C591 1.390 1_655 S
C593 C594 1.387 . S
C593 H596 0.950 . S
C594 C593 1.387 . S
C594 C597 1.387 . S
H595 C591 0.950 . S
H596 C593 0.950 . S
C597 C588 1.390 1_655 S
C597 H590 0.950 . S
C597 C594 1.387 . S
C598 C599 1.387 . S
C598 H602 0.950 . S
C598 C607 1.390 . S
C599 C598 1.387 . S
C599 C601 1.387 . S
H600 C607 0.950 . S
C601 C599 1.387 . S
C601 C603 1.390 . S
C601 H605 0.950 . S
H602 C598 0.950 . S
C603 C601 1.390 . S
C603 C604 1.387 . S
C603 H606 0.950 . S
C604 C603 1.387 . S
C604 C607 1.387 . S
H605 C601 0.950 . S
H606 C603 0.950 . S
C607 C598 1.390 . S
C607 H600 0.950 . S
C607 C604 1.387 . S
C608 C609 1.387 . S
C608 H612 0.950 . S
C608 C617 1.390 1_565 S
C609 C608 1.387 . S
C609 C611 1.387 . S
H610 C617 0.950 . S
C611 C609 1.387 . S
C611 C613 1.390 1_565 S
C611 H615 0.950 . S
H612 C608 0.950 . S
C613 C611 1.390 1_545 S
C613 C614 1.387 . S
C613 H616 0.950 . S
C614 C613 1.387 . S
C614 C617 1.387 . S
H615 C611 0.950 . S
H616 C613 0.950 . S
C617 C608 1.390 1_545 S
C617 H610 0.950 . S
C617 C614 1.387 . S
C618 C619 1.387 . S
C618 H622 0.950 . S
C618 C627 1.390 1_565 S
C619 C618 1.387 . S
C619 C621 1.387 . S
H620 C627 0.950 . S
C621 C619 1.387 . S
C621 C623 1.390 1_565 S
C621 H625 0.950 . S
H622 C618 0.950 . S
C623 C621 1.390 1_545 S
C623 C624 1.387 . S
C623 H626 0.950 . S
C624 C623 1.387 . S
C624 C627 1.387 . S
H625 C621 0.950 . S
H626 C623 0.950 . S
C627 C618 1.390 1_545 S
C627 H620 0.950 . S
C627 C624 1.387 . S
C628 C629 1.387 . S
C628 H632 0.950 . S
C628 C637 1.390 1_455 S
C629 C628 1.387 . S
C629 C631 1.387 . S
H630 C637 0.950 . S
C631 C629 1.387 . S
C631 C633 1.390 1_455 S
C631 H635 0.950 . S
H632 C628 0.950 . S
C633 C631 1.390 1_655 S
C633 C634 1.387 . S
C633 H636 0.950 . S
C634 C633 1.387 . S
C634 C637 1.387 . S
H635 C631 0.950 . S
H636 C633 0.950 . S
C637 C628 1.390 1_655 S
C637 H630 0.950 . S
C637 C634 1.387 . S
C638 C639 1.387 . S
C638 H642 0.950 . S
C638 C647 1.390 . S
C639 C638 1.387 . S
C639 C641 1.387 . S
H640 C647 0.950 . S
C641 C639 1.387 . S
C641 C643 1.390 . S
C641 H645 0.950 . S
H642 C638 0.950 . S
C643 C641 1.390 . S
C643 C644 1.387 . S
C643 H646 0.950 . S
C644 C643 1.387 . S
C644 C647 1.387 . S
H645 C641 0.950 . S
H646 C643 0.950 . S
C647 C638 1.390 . S
C647 H640 0.950 . S
C647 C644 1.387 . S
C648 C649 1.388 1_554 S
C648 H652 0.950 . S
C648 C657 1.390 . S
C649 C648 1.388 1_556 S
C649 C651 1.387 . S
H650 C657 0.950 . S
C651 C649 1.387 . S
C651 C653 1.390 . S
C651 H655 0.950 . S
H652 C648 0.950 . S
C653 C651 1.390 . S
C653 C654 1.387 1_556 S
C653 H656 0.950 . S
C654 C653 1.387 1_554 S
C654 C657 1.387 . S
H655 C651 0.950 . S
H656 C653 0.950 . S
C657 C648 1.390 . S
C657 H650 0.950 . S
C657 C654 1.387 . S
C658 C659 1.387 . S
C658 H662 0.950 . S
C658 C667 1.390 . S
C659 C658 1.387 . S
C659 C661 1.388 1_554 S
H660 C667 0.950 . S
C661 C659 1.388 1_556 S
C661 C663 1.390 . S
C661 H665 0.950 . S
H662 C658 0.950 . S
C663 C661 1.390 . S
C663 C664 1.387 1_556 S
C663 H666 0.950 . S
C664 C663 1.387 1_554 S
C664 C667 1.387 . S
H665 C661 0.950 . S
H666 C663 0.950 . S
C667 C658 1.390 . S
C667 H660 0.950 . S
C667 C664 1.387 . S
C668 C669 1.388 . S
C668 H672 0.950 . S
C668 C677 1.390 . S
C669 C668 1.388 . S
C669 C671 1.387 1_556 S
H670 C677 0.950 . S
C671 C669 1.387 1_554 S
C671 C673 1.390 . S
C671 H675 0.950 . S
H672 C668 0.950 . S
C673 C671 1.390 . S
C673 C674 1.387 . S
C673 H676 0.950 . S
C674 C673 1.387 . S
C674 C677 1.387 1_554 S
H675 C671 0.950 . S
H676 C673 0.950 . S
C677 C668 1.390 . S
C677 H670 0.950 . S
C677 C674 1.387 1_556 S
C678 C679 1.387 . S
C678 H682 0.950 . S
C678 C687 1.390 . S
C679 C678 1.387 . S
C679 C681 1.387 . S
H680 C687 0.950 . S
C681 C679 1.387 . S
C681 C683 1.390 . S
C681 H685 0.950 . S
H682 C678 0.950 . S
C683 C681 1.390 . S
C683 C684 1.387 . S
C683 H686 0.950 . S
C684 C683 1.387 . S
C684 C687 1.387 . S
H685 C681 0.950 . S
H686 C683 0.950 . S
C687 C678 1.390 . S
C687 H680 0.950 . S
C687 C684 1.387 . S
C688 C689 1.387 . S
C688 H692 0.950 . S
C688 C697 1.390 . S
C689 C688 1.387 . S
C689 C691 1.387 . S
H690 C697 0.950 . S
C691 C689 1.387 . S
C691 C693 1.390 . S
C691 H695 0.950 . S
H692 C688 0.950 . S
C693 C691 1.390 . S
C693 C694 1.387 . S
C693 H696 0.950 . S
C694 C693 1.387 . S
C694 C697 1.387 . S
H695 C691 0.950 . S
H696 C693 0.950 . S
C697 C688 1.390 . S
C697 H690 0.950 . S
C697 C694 1.387 . S
C698 C699 1.387 . S
C698 H702 0.950 . S
C698 C707 1.390 . S
C699 C698 1.387 . S
C699 C701 1.387 . S
H700 C707 0.950 . S
C701 C699 1.387 . S
C701 C703 1.390 . S
C701 H705 0.950 . S
H702 C698 0.950 . S
C703 C701 1.390 . S
C703 C704 1.387 . S
C703 H706 0.950 . S
C704 C703 1.387 . S
C704 C707 1.387 . S
H705 C701 0.950 . S
H706 C703 0.950 . S
C707 C698 1.390 . S
C707 H700 0.950 . S
C707 C704 1.387 . S
C708 C709 1.388 1_556 S
C708 H712 0.950 . S
C708 C717 1.390 . S
C709 C708 1.388 1_554 S
C709 C711 1.387 . S
H710 C717 0.950 . S
C711 C709 1.387 . S
C711 C713 1.390 . S
C711 H715 0.950 . S
H712 C708 0.950 . S
C713 C711 1.390 . S
C713 C714 1.387 1_554 S
C713 H716 0.950 . S
C714 C713 1.387 1_556 S
C714 C717 1.387 . S
H715 C711 0.950 . S
H716 C713 0.950 . S
C717 C708 1.390 . S
C717 H710 0.950 . S
C717 C714 1.387 . S
C718 C719 1.387 . S
C718 H722 0.950 . S
C718 C727 1.390 . S
C719 C718 1.387 . S
C719 C721 1.387 1_556 S
H720 C727 0.950 . S
C721 C719 1.387 1_554 S
C721 C723 1.390 . S
C721 H725 0.950 . S
H722 C718 0.950 . S
C723 C721 1.390 . S
C723 C724 1.388 1_554 S
C723 H726 0.950 . S
C724 C723 1.388 1_556 S
C724 C727 1.387 . S
H725 C721 0.950 . S
H726 C723 0.950 . S
C727 C718 1.390 . S
C727 H720 0.950 . S
C727 C724 1.387 . S
C728 C729 1.387 1_554 S
C728 H732 0.950 . S
C728 C737 1.390 1_554 S
C729 C728 1.387 1_556 S
C729 C731 1.389 . S
H730 C737 0.950 . S
C731 C729 1.389 . S
C731 C733 1.390 . S
C731 H735 0.950 . S
H732 C728 0.950 . S
C733 C731 1.390 . S
C733 C734 1.387 . S
C733 H736 0.950 . S
C734 C733 1.387 . S
C734 C737 1.387 . S
H735 C731 0.950 . S
H736 C733 0.950 . S
C737 C728 1.390 1_556 S
C737 H730 0.950 . S
C737 C734 1.387 . S
C738 C739 1.387 . S
C738 H742 0.950 . S
C738 C747 1.390 . S
C739 C738 1.387 . S
C739 C741 1.387 . S
H740 C747 0.950 . S
C741 C739 1.387 . S
C741 C743 1.390 . S
C741 H745 0.950 . S
H742 C738 0.950 . S
C743 C741 1.390 . S
C743 C744 1.387 . S
C743 H746 0.950 . S
C744 C743 1.387 . S
C744 C747 1.387 . S
H745 C741 0.950 . S
H746 C743 0.950 . S
C747 C738 1.390 . S
C747 H740 0.950 . S
C747 C744 1.387 . S
C748 C749 1.387 . S
C748 H752 0.950 . S
C748 C757 1.390 . S
C749 C748 1.387 . S
C749 C751 1.387 . S
H750 C757 0.950 . S
C751 C749 1.387 . S
C751 C753 1.390 . S
C751 H755 0.950 . S
H752 C748 0.950 . S
C753 C751 1.390 . S
C753 C754 1.387 . S
C753 H756 0.950 . S
C754 C753 1.387 . S
C754 C757 1.387 . S
H755 C751 0.950 . S
H756 C753 0.950 . S
C757 C748 1.390 . S
C757 H750 0.950 . S
C757 C754 1.387 . S
C758 C759 1.387 . S
C758 H762 0.950 . S
C758 C767 1.390 . S
C759 C758 1.387 . S
C759 C761 1.387 . S
H760 C767 0.950 . S
C761 C759 1.387 . S
C761 C763 1.390 . S
C761 H765 0.950 . S
H762 C758 0.950 . S
C763 C761 1.390 . S
C763 C764 1.387 . S
C763 H766 0.950 . S
C764 C763 1.387 . S
C764 C767 1.387 . S
H765 C761 0.950 . S
H766 C763 0.950 . S
C767 C758 1.390 . S
C767 H760 0.950 . S
C767 C764 1.387 . S
C768 C769 1.387 . S
C768 H772 0.950 . S
C768 C777 1.390 . S
C769 C768 1.387 . S
C769 C771 1.387 . S
H770 C777 0.950 . S
C771 C769 1.387 . S
C771 C773 1.390 . S
C771 H775 0.950 . S
H772 C768 0.950 . S
C773 C771 1.390 . S
C773 C774 1.387 . S
C773 H776 0.950 . S
C774 C773 1.387 . S
C774 C777 1.387 . S
H775 C771 0.950 . S
H776 C773 0.950 . S
C777 C768 1.390 . S
C777 H770 0.950 . S
C777 C774 1.387 . S
C778 C779 1.387 . S
C778 H782 0.950 . S
C778 C787 1.390 . S
C779 C778 1.387 . S
C779 C781 1.387 . S
H780 C787 0.950 . S
C781 C779 1.387 . S
C781 C783 1.390 . S
C781 H785 0.950 . S
H782 C778 0.950 . S
C783 C781 1.390 . S
C783 C784 1.387 . S
C783 H786 0.950 . S
C784 C783 1.387 . S
C784 C787 1.387 . S
H785 C781 0.950 . S
H786 C783 0.950 . S
C787 C778 1.390 . S
C787 H780 0.950 . S
C787 C784 1.387 . S
C788 C789 1.387 . S
C788 H792 0.950 . S
C788 C797 1.390 . S
C789 C788 1.387 . S
C789 C791 1.387 . S
H790 C797 0.950 . S
C791 C789 1.387 . S
C791 C793 1.390 . S
C791 H795 0.950 . S
H792 C788 0.950 . S
C793 C791 1.390 . S
C793 C794 1.387 . S
C793 H796 0.950 . S
C794 C793 1.387 . S
C794 C797 1.387 . S
H795 C791 0.950 . S
H796 C793 0.950 . S
C797 C788 1.390 . S
C797 H790 0.950 . S
C797 C794 1.387 . S
C798 C799 1.387 . S
C798 H802 0.950 . S
C798 C807 1.390 . S
C799 C798 1.387 . S
C799 C801 1.387 . S
H800 C807 0.950 . S
C801 C799 1.387 . S
C801 C803 1.390 . S
C801 H805 0.950 . S
H802 C798 0.950 . S
C803 C801 1.390 . S
C803 C804 1.387 . S
C803 H806 0.950 . S
C804 C803 1.387 . S
C804 C807 1.387 . S
H805 C801 0.950 . S
H806 C803 0.950 . S
C807 C798 1.390 . S
C807 H800 0.950 . S
C807 C804 1.387 . S
C808 C809 1.387 . S
C808 H812 0.950 . S
C808 C817 1.390 . S
C809 C808 1.387 . S
C809 C811 1.387 . S
H810 C817 0.950 . S
C811 C809 1.387 . S
C811 C813 1.390 . S
C811 H815 0.950 . S
H812 C808 0.950 . S
C813 C811 1.390 . S
C813 C814 1.387 . S
C813 H816 0.950 . S
C814 C813 1.387 . S
C814 C817 1.387 . S
H815 C811 0.950 . S
H816 C813 0.950 . S
C817 C808 1.390 . S
C817 H810 0.950 . S
C817 C814 1.387 . S
C818 C819 1.387 . S
C818 H822 0.950 . S
C818 C827 1.390 . S
C819 C818 1.387 . S
C819 C821 1.387 . S
H820 C827 0.950 . S
C821 C819 1.387 . S
C821 C823 1.390 . S
C821 H825 0.950 . S
H822 C818 0.950 . S
C823 C821 1.390 . S
C823 C824 1.387 . S
C823 H826 0.950 . S
C824 C823 1.387 . S
C824 C827 1.387 . S
H825 C821 0.950 . S
H826 C823 0.950 . S
C827 C818 1.390 . S
C827 H820 0.950 . S
C827 C824 1.387 . S
C828 C829 1.387 . S
C828 H832 0.950 . S
C828 C837 1.390 . S
C829 C828 1.387 . S
C829 C831 1.387 . S
H830 C837 0.950 . S
C831 C829 1.387 . S
C831 C833 1.390 . S
C831 H835 0.950 . S
H832 C828 0.950 . S
C833 C831 1.390 . S
C833 C834 1.387 . S
C833 H836 0.950 . S
C834 C833 1.387 . S
C834 C837 1.387 . S
H835 C831 0.950 . S
H836 C833 0.950 . S
C837 C828 1.390 . S
C837 H830 0.950 . S
C837 C834 1.387 . S
C838 C839 1.387 . S
C838 H842 0.950 . S
C838 C847 1.390 . S
C839 C838 1.387 . S
C839 C841 1.387 . S
H840 C847 0.950 . S
C841 C839 1.387 . S
C841 C843 1.390 . S
C841 H845 0.950 . S
H842 C838 0.950 . S
C843 C841 1.390 . S
C843 C844 1.387 . S
C843 H846 0.950 . S
C844 C843 1.387 . S
C844 C847 1.387 . S
H845 C841 0.950 . S
H846 C843 0.950 . S
C847 C838 1.390 . S
C847 H840 0.950 . S
C847 C844 1.387 . S
C848 C849 1.387 . S
C848 H852 0.950 . S
C848 C857 1.390 . S
C849 C848 1.387 . S
C849 C851 1.387 . S
H850 C857 0.950 . S
C851 C849 1.387 . S
C851 C853 1.390 . S
C851 H855 0.950 . S
H852 C848 0.950 . S
C853 C851 1.390 . S
C853 C854 1.387 . S
C853 H856 0.950 . S
C854 C853 1.387 . S
C854 C857 1.387 . S
H855 C851 0.950 . S
H856 C853 0.950 . S
C857 C848 1.390 . S
C857 H850 0.950 . S
C857 C854 1.387 . S
C858 C859 1.387 . S
C858 H862 0.950 . S
C858 C867 1.390 . S
C859 C858 1.387 . S
C859 C861 1.387 . S
H860 C867 0.950 . S
C861 C859 1.387 . S
C861 C863 1.390 . S
C861 H865 0.950 . S
H862 C858 0.950 . S
C863 C861 1.390 . S
C863 C864 1.387 . S
C863 H866 0.950 . S
C864 C863 1.387 . S
C864 C867 1.387 . S
H865 C861 0.950 . S
H866 C863 0.950 . S
C867 C858 1.390 . S
C867 H860 0.950 . S
C867 C864 1.387 . S
C868 C869 1.387 . S
C868 H872 0.950 . S
C868 C877 1.390 . S
C869 C868 1.387 . S
C869 C871 1.387 . S
H870 C877 0.950 . S
C871 C869 1.387 . S
C871 C873 1.390 . S
C871 H875 0.950 . S
H872 C868 0.950 . S
C873 C871 1.390 . S
C873 C874 1.387 . S
C873 H876 0.950 . S
C874 C873 1.387 . S
C874 C877 1.387 . S
H875 C871 0.950 . S
H876 C873 0.950 . S
C877 C868 1.390 . S
C877 H870 0.950 . S
C877 C874 1.387 . S
C878 C879 1.387 . S
C878 H882 0.950 . S
C878 C887 1.390 . S
C879 C878 1.387 . S
C879 C881 1.387 . S
H880 C887 0.950 . S
C881 C879 1.387 . S
C881 C883 1.390 . S
C881 H885 0.950 . S
H882 C878 0.950 . S
C883 C881 1.390 . S
C883 C884 1.387 . S
C883 H886 0.950 . S
C884 C883 1.387 . S
C884 C887 1.387 . S
H885 C881 0.950 . S
H886 C883 0.950 . S
C887 C878 1.390 . S
C887 H880 0.950 . S
C887 C884 1.387 . S
C888 C889 1.387 . S
C888 H892 0.950 . S
C888 C897 1.390 . S
C889 C888 1.387 . S
C889 C891 1.387 . S
H890 C897 0.950 . S
C891 C889 1.387 . S
C891 C893 1.390 . S
C891 H895 0.950 . S
H892 C888 0.950 . S
C893 C891 1.390 . S
C893 C894 1.387 . S
C893 H896 0.950 . S
C894 C893 1.387 . S
C894 C897 1.387 . S
H895 C891 0.950 . S
H896 C893 0.950 . S
C897 C888 1.390 . S
C897 H890 0.950 . S
C897 C894 1.387 . S
C898 C899 1.387 . S
C898 H902 0.950 . S
C898 C907 1.390 . S
C899 C898 1.387 . S
C899 C901 1.387 . S
H900 C907 0.950 . S
C901 C899 1.387 . S
C901 C903 1.390 . S
C901 H905 0.950 . S
H902 C898 0.950 . S
C903 C901 1.390 . S
C903 C904 1.387 . S
C903 H906 0.950 . S
C904 C903 1.387 . S
C904 C907 1.387 . S
H905 C901 0.950 . S
H906 C903 0.950 . S
C907 C898 1.390 . S
C907 H900 0.950 . S
C907 C904 1.387 . S
C908 C909 1.387 . S
C908 H912 0.950 . S
C908 C917 1.390 . S
C909 C908 1.387 . S
C909 C911 1.387 . S
H910 C917 0.950 . S
C911 C909 1.387 . S
C911 C913 1.390 . S
C911 H915 0.950 . S
H912 C908 0.950 . S
C913 C911 1.390 . S
C913 C914 1.387 . S
C913 H916 0.950 . S
C914 C913 1.387 . S
C914 C917 1.387 . S
H915 C911 0.950 . S
H916 C913 0.950 . S
C917 C908 1.390 . S
C917 H910 0.950 . S
C917 C914 1.387 . S
C918 C919 1.387 . S
C918 H922 0.950 . S
C918 C927 1.390 . S
C919 C918 1.387 . S
C919 C921 1.387 . S
H920 C927 0.950 . S
C921 C919 1.387 . S
C921 C923 1.390 . S
C921 H925 0.950 . S
H922 C918 0.950 . S
C923 C921 1.390 . S
C923 C924 1.387 . S
C923 H926 0.950 . S
C924 C923 1.387 . S
C924 C927 1.387 . S
H925 C921 0.950 . S
H926 C923 0.950 . S
C927 C918 1.390 . S
C927 H920 0.950 . S
C927 C924 1.387 . S
C928 C929 1.387 . S
C928 H932 0.950 . S
C928 C937 1.390 . S
C929 C928 1.387 . S
C929 C931 1.387 . S
H930 C937 0.950 . S
C931 C929 1.387 . S
C931 C933 1.390 . S
C931 H935 0.950 . S
H932 C928 0.950 . S
C933 C931 1.390 . S
C933 C934 1.387 . S
C933 H936 0.950 . S
C934 C933 1.387 . S
C934 C937 1.387 . S
H935 C931 0.950 . S
H936 C933 0.950 . S
C937 C928 1.390 . S
C937 H930 0.950 . S
C937 C934 1.387 . S
C938 C939 1.387 . S
C938 H942 0.950 . S
C938 C947 1.390 . S
C939 C938 1.387 . S
C939 C941 1.387 . S
H940 C947 0.950 . S
C941 C939 1.387 . S
C941 C943 1.390 . S
C941 H945 0.950 . S
H942 C938 0.950 . S
C943 C941 1.390 . S
C943 C944 1.387 . S
C943 H946 0.950 . S
C944 C943 1.387 . S
C944 C947 1.387 . S
H945 C941 0.950 . S
H946 C943 0.950 . S
C947 C938 1.390 . S
C947 H940 0.950 . S
C947 C944 1.387 . S
C948 C949 1.387 . S
C948 H952 0.950 . S
C948 C957 1.390 . S
C949 C948 1.387 . S
C949 C951 1.387 . S
H950 C957 0.950 . S
C951 C949 1.387 . S
C951 C953 1.390 . S
C951 H955 0.950 . S
H952 C948 0.950 . S
C953 C951 1.390 . S
C953 C954 1.387 . S
C953 H956 0.950 . S
C954 C953 1.387 . S
C954 C957 1.387 . S
H955 C951 0.950 . S
H956 C953 0.950 . S
C957 C948 1.390 . S
C957 H950 0.950 . S
C957 C954 1.387 . S
C958 C959 1.387 . S
C958 H962 0.950 . S
C958 C967 1.390 . S
C959 C958 1.387 . S
C959 C961 1.387 . S
H960 C967 0.950 . S
C961 C959 1.387 . S
C961 C963 1.390 . S
C961 H965 0.950 . S
H962 C958 0.950 . S
C963 C961 1.390 . S
C963 C964 1.387 . S
C963 H966 0.950 . S
C964 C963 1.387 . S
C964 C967 1.387 . S
H965 C961 0.950 . S
H966 C963 0.950 . S
C967 C958 1.390 . S
C967 H960 0.950 . S
C967 C964 1.387 . S
C968 C969 1.387 . S
C968 H972 0.950 . S
C968 C977 1.390 . S
C969 C968 1.387 . S
C969 C971 1.387 . S
H970 C977 0.950 . S
C971 C969 1.387 . S
C971 C973 1.390 . S
C971 H975 0.950 . S
H972 C968 0.950 . S
C973 C971 1.390 . S
C973 C974 1.387 . S
C973 H976 0.950 . S
C974 C973 1.387 . S
C974 C977 1.387 . S
H975 C971 0.950 . S
H976 C973 0.950 . S
C977 C968 1.390 . S
C977 H970 0.950 . S
C977 C974 1.387 . S
C978 C979 1.387 . S
C978 H982 0.950 . S
C978 C987 1.390 . S
C979 C978 1.387 . S
C979 C981 1.387 . S
H980 C987 0.950 . S
C981 C979 1.387 . S
C981 C983 1.390 . S
C981 H985 0.950 . S
H982 C978 0.950 . S
C983 C981 1.390 . S
C983 C984 1.387 . S
C983 H986 0.950 . S
C984 C983 1.387 . S
C984 C987 1.387 . S
H985 C981 0.950 . S
H986 C983 0.950 . S
C987 C978 1.390 . S
C987 H980 0.950 . S
C987 C984 1.387 . S
C988 C989 1.387 . S
C988 H992 0.950 . S
C988 C997 1.390 . S
C989 C988 1.387 . S
C989 C991 1.387 . S
H990 C997 0.950 . S
C991 C989 1.387 . S
C991 C993 1.390 . S
C991 H995 0.950 . S
H992 C988 0.950 . S
C993 C991 1.390 . S
C993 C994 1.387 . S
C993 H996 0.950 . S
C994 C993 1.387 . S
C994 C997 1.387 . S
H995 C991 0.950 . S
H996 C993 0.950 . S
C997 C988 1.390 . S
C997 H990 0.950 . S
C997 C994 1.387 . S
C998 C999 1.387 . S
C998 H1002 0.950 . S
C998 C1007 1.390 . S
C999 C998 1.387 . S
C999 C1001 1.387 . S
H1000 C1007 0.950 . S
C1001 C999 1.387 . S
C1001 C1003 1.390 . S
C1001 H1005 0.950 . S
H1002 C998 0.950 . S
C1003 C1001 1.390 . S
C1003 C1004 1.387 . S
C1003 H1006 0.950 . S
C1004 C1003 1.387 . S
C1004 C1007 1.387 . S
H1005 C1001 0.950 . S
H1006 C1003 0.950 . S
C1007 C998 1.390 . S
C1007 H1000 0.950 . S
C1007 C1004 1.387 . S
C1008 C1009 1.387 . S
C1008 H1012 0.950 . S
C1008 C1017 1.390 . S
C1009 C1008 1.387 . S
C1009 C1011 1.387 . S
H1010 C1017 0.950 . S
C1011 C1009 1.387 . S
C1011 C1013 1.390 . S
C1011 H1015 0.950 . S
H1012 C1008 0.950 . S
C1013 C1011 1.390 . S
C1013 C1014 1.387 . S
C1013 H1016 0.950 . S
C1014 C1013 1.387 . S
C1014 C1017 1.387 . S
H1015 C1011 0.950 . S
H1016 C1013 0.950 . S
C1017 C1008 1.390 . S
C1017 H1010 0.950 . S
C1017 C1014 1.387 . S
C1018 C1019 1.387 . S
C1018 H1022 0.950 . S
C1018 C1027 1.390 1_545 S
C1019 C1018 1.387 . S
C1019 C1021 1.387 . S
H1020 C1027 0.950 . S
C1021 C1019 1.387 . S
C1021 C1023 1.390 1_545 S
C1021 H1025 0.950 . S
H1022 C1018 0.950 . S
C1023 C1021 1.390 1_565 S
C1023 C1024 1.387 . S
C1023 H1026 0.950 . S
C1024 C1023 1.387 . S
C1024 C1027 1.387 . S
H1025 C1021 0.950 . S
H1026 C1023 0.950 . S
C1027 C1018 1.390 1_565 S
C1027 H1020 0.950 . S
C1027 C1024 1.387 . S
C1028 C1029 1.387 1_655 S
C1028 H1032 0.950 . S
C1028 C1037 1.390 . S
C1029 C1028 1.387 1_455 S
C1029 C1031 1.387 . S
H1030 C1037 0.950 . S
C1031 C1029 1.387 . S
C1031 C1033 1.390 . S
C1031 H1035 0.950 . S
H1032 C1028 0.950 . S
C1033 C1031 1.390 . S
C1033 C1034 1.387 1_455 S
C1033 H1036 0.950 . S
C1034 C1033 1.387 1_655 S
C1034 C1037 1.387 . S
H1035 C1031 0.950 . S
H1036 C1033 0.950 . S
C1037 C1028 1.390 . S
C1037 H1030 0.950 . S
C1037 C1034 1.387 . S
C1038 C1039 1.387 . S
C1038 H1042 0.950 . S
C1038 C1047 1.390 . S
C1039 C1038 1.387 . S
C1039 C1041 1.387 . S
H1040 C1047 0.950 . S
C1041 C1039 1.387 . S
C1041 C1043 1.390 . S
C1041 H1045 0.950 . S
H1042 C1038 0.950 . S
C1043 C1041 1.390 . S
C1043 C1044 1.387 . S
C1043 H1046 0.950 . S
C1044 C1043 1.387 . S
C1044 C1047 1.387 . S
H1045 C1041 0.950 . S
H1046 C1043 0.950 . S
C1047 C1038 1.390 . S
C1047 H1040 0.950 . S
C1047 C1044 1.387 . S
C1048 C1049 1.387 . S
C1048 H1052 0.950 . S
C1048 C1057 1.390 1_545 S
C1049 C1048 1.387 . S
C1049 C1051 1.387 . S
H1050 C1057 0.950 . S
C1051 C1049 1.387 . S
C1051 C1053 1.390 1_545 S
C1051 H1055 0.950 . S
H1052 C1048 0.950 . S
C1053 C1051 1.390 1_565 S
C1053 C1054 1.387 . S
C1053 H1056 0.950 . S
C1054 C1053 1.387 . S
C1054 C1057 1.387 . S
H1055 C1051 0.950 . S
H1056 C1053 0.950 . S
C1057 C1048 1.390 1_565 S
C1057 H1050 0.950 . S
C1057 C1054 1.387 . S
C1058 C1059 1.387 1_455 S
C1058 H1062 0.950 . S
C1058 C1067 1.390 . S
C1059 C1058 1.387 1_655 S
C1059 C1061 1.387 . S
H1060 C1067 0.950 . S
C1061 C1059 1.387 . S
C1061 C1063 1.390 . S
C1061 H1065 0.950 . S
H1062 C1058 0.950 . S
C1063 C1061 1.390 . S
C1063 C1064 1.387 1_655 S
C1063 H1066 0.950 . S
C1064 C1063 1.387 1_455 S
C1064 C1067 1.387 . S
H1065 C1061 0.950 . S
H1066 C1063 0.950 . S
C1067 C1058 1.390 . S
C1067 H1060 0.950 . S
C1067 C1064 1.387 . S
C1068 C1069 1.387 . S
C1068 H1072 0.950 . S
C1068 C1077 1.390 . S
C1069 C1068 1.387 . S
C1069 C1071 1.387 . S
H1070 C1077 0.950 . S
C1071 C1069 1.387 . S
C1071 C1073 1.390 . S
C1071 H1075 0.950 . S
H1072 C1068 0.950 . S
C1073 C1071 1.390 . S
C1073 C1074 1.387 . S
C1073 H1076 0.950 . S
C1074 C1073 1.387 . S
C1074 C1077 1.387 . S
H1075 C1071 0.950 . S
H1076 C1073 0.950 . S
C1077 C1068 1.390 . S
C1077 H1070 0.950 . S
C1077 C1074 1.387 . S
C1078 C1079 1.387 . S
C1078 H1082 0.950 . S
C1078 C1087 1.390 . S
C1079 C1078 1.387 . S
C1079 C1081 1.387 . S
H1080 C1087 0.950 . S
C1081 C1079 1.387 . S
C1081 C1083 1.390 . S
C1081 H1085 0.950 . S
H1082 C1078 0.950 . S
C1083 C1081 1.390 . S
C1083 C1084 1.387 . S
C1083 H1086 0.950 . S
C1084 C1083 1.387 . S
C1084 C1087 1.387 . S
H1085 C1081 0.950 . S
H1086 C1083 0.950 . S
C1087 C1078 1.390 . S
C1087 H1080 0.950 . S
C1087 C1084 1.387 . S
C1088 C1089 1.387 . S
C1088 H1092 0.950 . S
C1088 C1097 1.390 . S
C1089 C1088 1.387 . S
C1089 C1091 1.387 . S
H1090 C1097 0.950 . S
C1091 C1089 1.387 . S
C1091 C1093 1.390 . S
C1091 H1095 0.950 . S
H1092 C1088 0.950 . S
C1093 C1091 1.390 . S
C1093 C1094 1.387 . S
C1093 H1096 0.950 . S
C1094 C1093 1.387 . S
C1094 C1097 1.387 . S
H1095 C1091 0.950 . S
H1096 C1093 0.950 . S
C1097 C1088 1.390 . S
C1097 H1090 0.950 . S
C1097 C1094 1.387 . S
C1098 C1099 1.387 . S
C1098 H1102 0.950 . S
C1098 C1107 1.390 . S
C1099 C1098 1.387 . S
C1099 C1101 1.387 . S
H1100 C1107 0.950 . S
C1101 C1099 1.387 . S
C1101 C1103 1.390 . S
C1101 H1105 0.950 . S
H1102 C1098 0.950 . S
C1103 C1101 1.390 . S
C1103 C1104 1.387 . S
C1103 H1106 0.950 . S
C1104 C1103 1.387 . S
C1104 C1107 1.387 . S
H1105 C1101 0.950 . S
H1106 C1103 0.950 . S
C1107 C1098 1.390 . S
C1107 H1100 0.950 . S
C1107 C1104 1.387 . S
C1108 C1109 1.387 . S
C1108 H1112 0.950 . S
C1108 C1117 1.390 . S
C1109 C1108 1.387 . S
C1109 C1111 1.387 . S
H1110 C1117 0.950 . S
C1111 C1109 1.387 . S
C1111 C1113 1.390 . S
C1111 H1115 0.950 . S
H1112 C1108 0.950 . S
C1113 C1111 1.390 . S
C1113 C1114 1.387 . S
C1113 H1116 0.950 . S
C1114 C1113 1.387 . S
C1114 C1117 1.387 . S
H1115 C1111 0.950 . S
H1116 C1113 0.950 . S
C1117 C1108 1.390 . S
C1117 H1110 0.950 . S
C1117 C1114 1.387 . S
C1118 C1119 1.387 . S
C1118 H1122 0.950 . S
C1118 C1127 1.390 . S
C1119 C1118 1.387 . S
C1119 C1121 1.387 . S
H1120 C1127 0.950 . S
C1121 C1119 1.387 . S
C1121 C1123 1.390 . S
C1121 H1125 0.950 . S
H1122 C1118 0.950 . S
C1123 C1121 1.390 . S
C1123 C1124 1.387 . S
C1123 H1126 0.950 . S
C1124 C1123 1.387 . S
C1124 C1127 1.387 . S
H1125 C1121 0.950 . S
H1126 C1123 0.950 . S
C1127 C1118 1.390 . S
C1127 H1120 0.950 . S
C1127 C1124 1.387 . S
C1128 C1129 1.387 . S
C1128 H1132 0.950 . S
C1128 C1137 1.390 . S
C1129 C1128 1.387 . S
C1129 C1131 1.387 . S
H1130 C1137 0.950 . S
C1131 C1129 1.387 . S
C1131 C1133 1.390 . S
C1131 H1135 0.950 . S
H1132 C1128 0.950 . S
C1133 C1131 1.390 . S
C1133 C1134 1.387 . S
C1133 H1136 0.950 . S
C1134 C1133 1.387 . S
C1134 C1137 1.387 . S
H1135 C1131 0.950 . S
H1136 C1133 0.950 . S
C1137 C1128 1.390 . S
C1137 H1130 0.950 . S
C1137 C1134 1.387 . S
C1138 C1139 1.387 . S
C1138 H1142 0.950 . S
C1138 C1147 1.390 . S
C1139 C1138 1.387 . S
C1139 C1141 1.387 . S
H1140 C1147 0.950 . S
C1141 C1139 1.387 . S
C1141 C1143 1.390 . S
C1141 H1145 0.950 . S
H1142 C1138 0.950 . S
C1143 C1141 1.390 . S
C1143 C1144 1.387 . S
C1143 H1146 0.950 . S
C1144 C1143 1.387 . S
C1144 C1147 1.387 . S
H1145 C1141 0.950 . S
H1146 C1143 0.950 . S
C1147 C1138 1.390 . S
C1147 H1140 0.950 . S
C1147 C1144 1.387 . S
C1148 C1149 1.387 . S
C1148 H1152 0.950 . S
C1148 C1157 1.390 . S
C1149 C1148 1.387 . S
C1149 C1151 1.387 . S
H1150 C1157 0.950 . S
C1151 C1149 1.387 . S
C1151 C1153 1.390 . S
C1151 H1155 0.950 . S
H1152 C1148 0.950 . S
C1153 C1151 1.390 . S
C1153 C1154 1.387 . S
C1153 H1156 0.950 . S
C1154 C1153 1.387 . S
C1154 C1157 1.387 . S
H1155 C1151 0.950 . S
H1156 C1153 0.950 . S
C1157 C1148 1.390 . S
C1157 H1150 0.950 . S
C1157 C1154 1.387 . S
C1158 C1159 1.387 . S
C1158 H1162 0.950 . S
C1158 C1167 1.390 . S
C1159 C1158 1.387 . S
C1159 C1161 1.387 . S
H1160 C1167 0.950 . S
C1161 C1159 1.387 . S
C1161 C1163 1.390 . S
C1161 H1165 0.950 . S
H1162 C1158 0.950 . S
C1163 C1161 1.390 . S
C1163 C1164 1.387 . S
C1163 H1166 0.950 . S
C1164 C1163 1.387 . S
C1164 C1167 1.387 . S
H1165 C1161 0.950 . S
H1166 C1163 0.950 . S
C1167 C1158 1.390 . S
C1167 H1160 0.950 . S
C1167 C1164 1.387 . S
C1168 C1169 1.387 . S
C1168 H1172 0.950 . S
C1168 C1177 1.390 . S
C1169 C1168 1.387 . S
C1169 C1171 1.387 . S
H1170 C1177 0.950 . S
C1171 C1169 1.387 . S
C1171 C1173 1.390 . S
C1171 H1175 0.950 . S
H1172 C1168 0.950 . S
C1173 C1171 1.390 . S
C1173 C1174 1.387 . S
C1173 H1176 0.950 . S
C1174 C1173 1.387 . S
C1174 C1177 1.387 . S
H1175 C1171 0.950 . S
H1176 C1173 0.950 . S
C1177 C1168 1.390 . S
C1177 H1170 0.950 . S
C1177 C1174 1.387 . S
C1178 C1179 1.387 . S
C1178 H1182 0.950 . S
C1178 C1187 1.390 . S
C1179 C1178 1.387 . S
C1179 C1181 1.387 . S
H1180 C1187 0.950 . S
C1181 C1179 1.387 . S
C1181 C1183 1.390 . S
C1181 H1185 0.950 . S
H1182 C1178 0.950 . S
C1183 C1181 1.390 . S
C1183 C1184 1.387 . S
C1183 H1186 0.950 . S
C1184 C1183 1.387 . S
C1184 C1187 1.387 . S
H1185 C1181 0.950 . S
H1186 C1183 0.950 . S
C1187 C1178 1.390 . S
C1187 H1180 0.950 . S
C1187 C1184 1.387 . S
C469 C208 1.388 . S
C474 C0 1.388 . S
C479 C221 1.386 . S
C484 C13 1.387 . S
C489 C26 1.388 . S
C494 C195 1.388 . S
C499 C338 1.385 . S
C504 C39 1.385 . S
C509 C312 1.387 . S
C514 C52 1.387 . S
C519 C65 1.386 . S
C524 C325 1.386 . S
C529 C442 1.387 . S
C534 C78 1.386 . S
C539 C455 1.386 . S
C544 C91 1.386 . S
C549 C429 1.385 . S
C554 C104 1.385 . S
C559 C260 1.385 . S
C564 C117 1.385 . S
C569 C130 1.387 . S
C574 C234 1.387 . S
C579 C247 1.386 . S
C584 C143 1.386 . S
C589 C364 1.387 . S
C594 C156 1.388 . S
C599 C169 1.386 . S
C604 C377 1.385 . S
C609 C351 1.385 . S
C614 C182 1.385 . S
C619 C416 1.388 . S
C624 C273 1.388 . S
C629 C390 1.388 . S
C634 C286 1.387 . S
C639 C299 1.388 . S
C644 C403 1.387 . S
C649 C101 1.364 . S
C654 C8 1.366 . S
C659 C114 1.364 1_554 S
C664 C21 1.366 . S
C669 C88 1.366 . S
C674 C34 1.366 . S
C679 C47 1.366 . S
C684 C153 1.365 . S
C689 C127 1.367 . S
C694 C60 1.368 . S
C699 C73 1.367 . S
C704 C140 1.364 . S
C709 C23 1.366 . S
C714 C86 1.367 . S
C719 C99 1.367 . S
C724 C36 1.367 1_556 S
C729 C10 1.364 1_556 S
C734 C112 1.368 . S
C739 C75 1.366 . S
C744 C125 1.366 . S
C749 C49 1.364 . S
C754 C138 1.367 . S
C759 C151 1.367 . S
C764 C62 1.364 . S
C769 C164 1.367 . S
C774 C257 1.367 . S
C779 C270 1.367 . S
C784 C177 1.368 . S
C789 C244 1.365 . S
C794 C190 1.368 . S
C799 C203 1.366 . S
C804 C309 1.365 . S
C809 C283 1.364 . S
C814 C216 1.367 . S
C819 C229 1.368 . S
C824 C296 1.367 . S
C829 C242 1.368 . S
C834 C179 1.367 . S
C839 C255 1.367 . S
C844 C192 1.367 . S
C849 C166 1.365 . S
C854 C268 1.366 . S
C859 C231 1.365 . S
C864 C281 1.368 . S
C869 C205 1.364 . S
C874 C294 1.366 . S
C879 C307 1.367 . S
C884 C218 1.367 . S
C889 C413 1.367 . S
C894 C320 1.367 . S
C899 C333 1.367 . S
C904 C426 1.367 . S
C909 C346 1.368 . S
C914 C400 1.365 . S
C919 C465 1.365 . S
C924 C359 1.368 . S
C929 C372 1.366 . S
C934 C439 1.364 . S
C939 C452 1.367 . S
C944 C385 1.368 . S
C949 C335 1.364 . S
C954 C398 1.366 . S
C959 C348 1.364 . S
C964 C411 1.367 . S
C969 C424 1.368 . S
C974 C322 1.365 . S
C979 C437 1.366 . S
C984 C387 1.365 . S
C989 C361 1.367 . S
C994 C450 1.368 . S
C999 C374 1.367 . S
C1004 C463 1.368 . S
C1009 C5 1.373 . S
C1014 C44 1.374 . S
C1019 C18 1.373 . S
C1024 C57 1.374 . S
C1029 C70 1.376 . S
C1034 C31 1.375 . S
C1039 C83 1.373 . S
C1044 C122 1.374 . S
C1049 C135 1.374 . S
C1054 C96 1.374 . S
C1059 C148 1.373 . S
C1064 C109 1.374 . S
C1069 C161 1.376 . S
C1074 C200 1.374 . S
C1079 C174 1.374 . S
C1084 C213 1.374 . S
C1089 C226 1.373 . S
C1094 C187 1.374 . S
C1099 C239 1.373 . S
C1104 C278 1.374 1_554 S
C1109 C252 1.375 . S
C1114 C291 1.376 1_554 S
C1119 C265 1.375 . S
C1124 C304 1.376 1_554 S
C1129 C356 1.374 1_556 S
C1134 C317 1.374 . S
C1139 C369 1.375 1_556 S
C1144 C330 1.376 . S
C1149 C382 1.376 1_556 S
C1154 C343 1.374 . S
C1159 C395 1.375 . S
C1164 C434 1.376 . S
C1169 C447 1.375 . S
C1174 C408 1.376 . S
C1179 C460 1.376 . S
C1184 C421 1.373 . S
