# Generated by pormake.
# Topology snk, (6)-cn, num edge types: 1
# Building blocks:
#     Node 0, Type 0, BuildingBlock: CUKXOW_clean_sbu_0, # of connection points: 6
#     Node 1, Type 0, BuildingBlock: CUKXOW_clean_sbu_0, # of connection points: 6
#     Node 2, Type 0, BuildingBlock: CUKXOW_clean_sbu_0, # of connection points: 6
#     Node 3, Type 0, BuildingBlock: CUKXOW_clean_sbu_0, # of connection points: 6
#     Node 4, Type 0, BuildingBlock: CUKXOW_clean_sbu_0, # of connection points: 6
#     Node 5, Type 0, BuildingBlock: CUKXOW_clean_sbu_0, # of connection points: 6
#     Node 6, Type 0, BuildingBlock: CUKXOW_clean_sbu_0, # of connection points: 6
#     Node 7, Type 0, BuildingBlock: CUKXOW_clean_sbu_0, # of connection points: 6
#     Edge 8, Type (0, 0), BuildingBlock: TEMPAE_clean_linker_10, # of connection points: 2
#     Edge 9, Type (0, 0), BuildingBlock: TEMPAE_clean_linker_10, # of connection points: 2
#     Edge 10, Type (0, 0), BuildingBlock: TEMPAE_clean_linker_10, # of connection points: 2
#     Edge 11, Type (0, 0), BuildingBlock: TEMPAE_clean_linker_10, # of connection points: 2
#     Edge 12, Type (0, 0), BuildingBlock: TEMPAE_clean_linker_10, # of connection points: 2
#     Edge 13, Type (0, 0), BuildingBlock: TEMPAE_clean_linker_10, # of connection points: 2
#     Edge 14, Type (0, 0), BuildingBlock: TEMPAE_clean_linker_10, # of connection points: 2
#     Edge 15, Type (0, 0), BuildingBlock: TEMPAE_clean_linker_10, # of connection points: 2
#     Edge 16, Type (0, 0), BuildingBlock: TEMPAE_clean_linker_10, # of connection points: 2
#     Edge 17, Type (0, 0), BuildingBlock: TEMPAE_clean_linker_10, # of connection points: 2
#     Edge 18, Type (0, 0), BuildingBlock: TEMPAE_clean_linker_10, # of connection points: 2
#     Edge 19, Type (0, 0), BuildingBlock: TEMPAE_clean_linker_10, # of connection points: 2
#     Edge 20, Type (0, 0), BuildingBlock: TEMPAE_clean_linker_10, # of connection points: 2
#     Edge 21, Type (0, 0), BuildingBlock: TEMPAE_clean_linker_10, # of connection points: 2
#     Edge 22, Type (0, 0), BuildingBlock: TEMPAE_clean_linker_10, # of connection points: 2
#     Edge 23, Type (0, 0), BuildingBlock: TEMPAE_clean_linker_10, # of connection points: 2
#     Edge 24, Type (0, 0), BuildingBlock: TEMPAE_clean_linker_10, # of connection points: 2
#     Edge 25, Type (0, 0), BuildingBlock: TEMPAE_clean_linker_10, # of connection points: 2
#     Edge 26, Type (0, 0), BuildingBlock: TEMPAE_clean_linker_10, # of connection points: 2
#     Edge 27, Type (0, 0), BuildingBlock: TEMPAE_clean_linker_10, # of connection points: 2
#     Edge 28, Type (0, 0), BuildingBlock: TEMPAE_clean_linker_10, # of connection points: 2
#     Edge 29, Type (0, 0), BuildingBlock: TEMPAE_clean_linker_10, # of connection points: 2
#     Edge 30, Type (0, 0), BuildingBlock: TEMPAE_clean_linker_10, # of connection points: 2
#     Edge 31, Type (0, 0), BuildingBlock: TEMPAE_clean_linker_10, # of connection points: 2
# Relax obj value: 0.074
# Max RMSD: 0.180
# Mean RMSD: 0.129
data_MOF--net-snk--node1-CUKXOW_clean_sbu_0--edge1-TEMPAE_clean_linker_10
_symmetry_space_group_name_H-M    P1
_symmetry_Int_Tables_number       1
_symmetry_cell_setting            triclinic
loop_
_symmetry_equiv_pos_as_xyz
'x, y, z'
_cell_length_a     46.580734
_cell_length_b     46.569665
_cell_length_c     14.940632
_cell_angle_alpha  98.539684
_cell_angle_beta   98.415871
_cell_angle_gamma 90.757838
loop_
_atom_site_label
_atom_site_type_symbol
_atom_site_fract_x
_atom_site_fract_y
_atom_site_fract_z
_atom_type_partial_charge
Tb0 Tb 0.03465 0.0325 0.62474 0.0
C1 C 0.04764 0.96645 0.64135 0.0
Tb2 Tb 0.98269 0.98698 0.60447 0.0
O3 O 0.04421 0.04143 0.77602 0.0
O4 O 0.01074 0.01314 0.71091 0.0
O5 O 0.05779 0.99191 0.62674 0.0
C6 C 0.94169 0.95192 0.63534 0.0
O7 O 0.01979 0.96117 0.64557 0.0
C8 C 0.99559 0.99552 0.44065 0.0
C9 C 0.96883 0.05252 0.58967 0.0
O10 O 0.96159 0.94442 0.58509 0.0
O11 O 0.94488 0.97932 0.66933 0.0
O12 O 0.97572 0.97715 0.45198 0.0
O13 O 0.00632 0.00699 0.52059 0.0
O14 O 0.9591 0.02709 0.60588 0.0
O15 O 0.99678 0.05837 0.58656 0.0
C16 C 0.07588 0.05951 0.56295 0.0
O17 O 0.05994 0.072 0.62121 0.0
O18 O 0.0688 0.03211 0.54137 0.0
C19 C 0.02357 0.02413 0.7897 0.0
Tb20 Tb 0.23041 0.76979 0.798 0.0
C21 C 0.29663 0.79096 0.84126 0.0
Tb22 Tb 0.27613 0.72355 0.82054 0.0
O23 O 0.24194 0.78641 0.94444 0.0
O24 O 0.24434 0.74229 0.8996 0.0
O25 O 0.27006 0.79679 0.80326 0.0
C26 C 0.31535 0.68982 0.90106 0.0
O27 O 0.30271 0.76466 0.8629 0.0
C28 C 0.26989 0.73539 0.64844 0.0
C29 C 0.20949 0.70213 0.75928 0.0
O30 O 0.29872 0.68236 0.8229 0.0
O31 O 0.30954 0.71613 0.93423 0.0
O32 O 0.28807 0.71721 0.68079 0.0
O33 O 0.25712 0.7459 0.71447 0.0
O34 O 0.23605 0.69545 0.79611 0.0
O35 O 0.20323 0.7294 0.74724 0.0
C36 C 0.18842 0.80628 0.75089 0.0
O37 O 0.20882 0.79773 0.70333 0.0
O38 O 0.19143 0.79381 0.82361 0.0
C39 C 0.24897 0.76169 0.96996 0.0
Tb40 Tb 0.47777 0.02076 1.02527 0.0
C41 C 0.45719 0.95431 0.98311 0.0
Tb42 Tb 0.52432 0.97547 1.00438 0.0
O43 O 0.46124 0.00858 0.87917 0.0
O44 O 0.50538 0.00674 0.92387 0.0
O45 O 0.45104 0.9809 1.02054 0.0
C46 C 0.55899 0.93628 0.9282 0.0
O47 O 0.48357 0.94846 0.96178 0.0
C48 C 0.51245 0.98203 0.17641 0.0
C49 C 0.54521 0.04214 0.06443 0.0
O50 O 0.53262 0.94131 0.89359 0.0
O51 O 0.56597 0.95371 1.00505 0.0
O52 O 0.53076 0.96395 0.14426 0.0
O53 O 0.50178 0.99463 0.11035 0.0
O54 O 0.55198 0.01572 1.02661 0.0
O55 O 0.518 0.04805 0.078 0.0
C56 C 0.44119 0.06326 0.06749 0.0
O57 O 0.45592 0.06087 0.99967 0.0
O58 O 0.44752 0.04192 0.11317 0.0
C59 C 0.48601 0.00172 0.85372 0.0
Tb60 Tb 0.21056 0.21488 0.14119 0.0
C61 C 0.2785 0.20402 0.13833 0.0
Tb62 Tb 0.25475 0.26768 0.1647 0.0
O63 O 0.19906 0.20788 0.99052 0.0
O64 O 0.22873 0.24022 0.0562 0.0
O65 O 0.25185 0.1929 0.13639 0.0
C66 C 0.28493 0.31338 0.13965 0.0
O67 O 0.28458 0.23236 0.14626 0.0
C68 C 0.24685 0.25405 0.32768 0.0
C69 C 0.18903 0.27902 0.17161 0.0
O70 O 0.28866 0.28684 0.10302 0.0
O71 O 0.26434 0.31397 0.18921 0.0
O72 O 0.2642 0.27485 0.31666 0.0
O73 O 0.23626 0.24237 0.24776 0.0
O74 O 0.21276 0.28742 0.14175 0.0
O75 O 0.18472 0.2519 0.18608 0.0
C76 C 0.18414 0.17187 0.19673 0.0
O77 O 0.1711 0.18982 0.14664 0.0
O78 O 0.21178 0.17794 0.21355 0.0
C79 C 0.21657 0.22842 0.97753 0.0
Tb80 Tb 0.72869 0.27161 0.29253 0.0
C81 C 0.79508 0.29236 0.3352 0.0
Tb82 Tb 0.77413 0.22509 0.31246 0.0
O83 O 0.74083 0.28811 0.43861 0.0
O84 O 0.74285 0.24396 0.39353 0.0
O85 O 0.76852 0.29839 0.29744 0.0
C86 C 0.8128 0.18897 0.38351 0.0
O87 O 0.80101 0.26597 0.3564 0.0
C88 C 0.76747 0.23718 0.14073 0.0
C89 C 0.7074 0.20421 0.25274 0.0
O90 O 0.80832 0.21523 0.421 0.0
O91 O 0.79514 0.18299 0.3069 0.0
O92 O 0.78567 0.21898 0.17251 0.0
O93 O 0.75485 0.2477 0.20706 0.0
O94 O 0.73381 0.19748 0.29041 0.0
O95 O 0.70146 0.23141 0.23938 0.0
C96 C 0.68604 0.30809 0.25122 0.0
O97 O 0.68851 0.29327 0.31874 0.0
O98 O 0.70742 0.30194 0.20537 0.0
C99 C 0.74781 0.26335 0.46378 0.0
Tb100 Tb 0.71109 0.71253 0.67451 0.0
C101 C 0.77653 0.69936 0.65525 0.0
Tb102 Tb 0.75313 0.76314 0.69637 0.0
O103 O 0.69825 0.70393 0.52446 0.0
O104 O 0.72807 0.73692 0.5844 0.0
O105 O 0.75042 0.68855 0.66008 0.0
C106 C 0.79111 0.8045 0.68556 0.0
O107 O 0.78213 0.72774 0.6627 0.0
C108 C 0.73688 0.75293 0.85257 0.0
C109 C 0.68837 0.77642 0.70171 0.0
O110 O 0.79424 0.78685 0.74539 0.0
O111 O 0.76689 0.79851 0.6304 0.0
O112 O 0.74368 0.77834 0.83499 0.0
O113 O 0.74149 0.73439 0.78547 0.0
O114 O 0.71238 0.78498 0.67418 0.0
O115 O 0.68482 0.74946 0.71841 0.0
C116 C 0.68476 0.66924 0.7301 0.0
O117 O 0.67144 0.68846 0.6861 0.0
O118 O 0.71247 0.67422 0.74063 0.0
C119 C 0.71528 0.72423 0.50777 0.0
Tb120 Tb 0.53719 0.53994 0.18229 0.0
C121 C 0.54631 0.47177 0.18467 0.0
Tb122 Tb 0.48327 0.4972 0.16031 0.0
O123 O 0.54432 0.55173 0.33317 0.0
O124 O 0.51142 0.52272 0.26799 0.0
O125 O 0.55806 0.49815 0.18675 0.0
C126 C 0.43749 0.4677 0.188 0.0
O127 O 0.51785 0.46638 0.17694 0.0
C128 C 0.49691 0.50459 0.99664 0.0
C129 C 0.47375 0.56313 0.15288 0.0
O130 O 0.46403 0.46394 0.22416 0.0
O131 O 0.43692 0.48797 0.1373 0.0
O132 O 0.47552 0.48805 1.0081 0.0
O133 O 0.509 0.51473 0.07649 0.0
O134 O 0.46499 0.53999 0.18517 0.0
O135 O 0.50076 0.56615 0.13559 0.0
C136 C 0.58084 0.56454 0.12456 0.0
O137 O 0.56323 0.5785 0.17422 0.0
O138 O 0.5741 0.53702 0.10963 0.0
C139 C 0.52342 0.53471 0.3466 0.0
Tb140 Tb 0.97969 0.52103 0.52242 0.0
C141 C 0.9577 0.45388 0.47729 0.0
Tb142 Tb 0.02479 0.47388 0.49958 0.0
O143 O 0.99218 0.53774 0.40329 0.0
O144 O 0.99379 0.49356 0.40879 0.0
O145 O 0.95186 0.48107 0.51066 0.0
C146 C 0.05944 0.4344 0.42465 0.0
O147 O 0.98422 0.44689 0.45963 0.0
C148 C 0.01745 0.48542 0.67609 0.0
C149 C 0.04683 0.54059 0.56449 0.0
O150 O 0.04627 0.43212 0.49411 0.0
O151 O 0.05337 0.4592 0.39749 0.0
O152 O 0.03583 0.46735 0.64427 0.0
O153 O 0.00512 0.49614 0.60791 0.0
O154 O 0.05272 0.5143 0.5227 0.0
O155 O 0.02004 0.54686 0.58146 0.0
C156 C 0.93665 0.55696 0.55867 0.0
O157 O 0.93924 0.54221 0.47973 0.0
O158 O 0.95827 0.55124 0.61824 0.0
C159 C 0.99899 0.51294 0.36124 0.0
C160 C 0.10139 0.1043 0.53974 0.0
C161 C 0.09545 0.07444 0.51578 0.0
C162 C 0.11738 0.11909 0.48741 0.0
C163 C 0.12713 0.10346 0.40944 0.0
C164 C 0.12188 0.07314 0.38675 0.0
C165 C 0.10618 0.05891 0.44079 0.0
C166 C 0.12304 0.15149 0.51366 0.0
C167 C 0.13195 0.05592 0.30378 0.0
C168 C 0.13964 0.14693 0.22414 0.0
C169 C 0.16975 0.15163 0.2429 0.0
C170 C 0.12545 0.13052 0.27672 0.0
C171 C 0.14196 0.11903 0.34967 0.0
C172 C 0.17248 0.123 0.36691 0.0
C173 C 0.18608 0.1392 0.31271 0.0
C174 C 0.09281 0.12623 0.25619 0.0
C175 C 0.19062 0.11107 0.44448 0.0
H176 H 0.09299 0.11616 0.59788 0.0
H177 H 0.10143 0.03575 0.42227 0.0
H178 H 0.14661 0.15687 0.52044 0.0
H179 H 0.11187 0.16287 0.45896 0.0
H180 H 0.11533 0.16004 0.5791 0.0
H181 H 0.12699 0.03225 0.29794 0.0
H182 H 0.12122 0.06359 0.24073 0.0
H183 H 0.1557 0.05937 0.30676 0.0
H184 H 0.12716 0.15667 0.17002 0.0
H185 H 0.20942 0.14306 0.32737 0.0
H186 H 0.08291 0.13671 0.31543 0.0
H187 H 0.08664 0.10274 0.2455 0.0
H188 H 0.08342 0.13553 0.19449 0.0
H189 H 0.18492 0.12161 0.51085 0.0
H190 H 0.21428 0.11476 0.4452 0.0
H191 H 0.18599 0.0874 0.43934 0.0
C192 C 0.05806 0.9137 0.64388 0.0
C193 C 0.06832 0.94268 0.65416 0.0
C194 C 0.07721 0.89095 0.65557 0.0
C195 C 0.10743 0.89725 0.67985 0.0
C196 C 0.11795 0.92646 0.69037 0.0
C197 C 0.09834 0.94874 0.67662 0.0
C198 C 0.06505 0.86014 0.64208 0.0
C199 C 0.1499 0.93426 0.71776 0.0
C200 C 0.15274 0.84265 0.80077 0.0
C201 C 0.16706 0.82873 0.73099 0.0
C202 C 0.13356 0.86509 0.78523 0.0
C203 C 0.12792 0.87341 0.69701 0.0
C204 C 0.1419 0.85896 0.62571 0.0
C205 C 0.16159 0.83706 0.64386 0.0
C206 C 0.11966 0.88021 0.86375 0.0
C207 C 0.13602 0.8666 0.53019 0.0
H208 H 0.03496 0.90867 0.62573 0.0
H209 H 0.10654 0.97102 0.6851 0.0
H210 H 0.07576 0.84625 0.59062 0.0
H211 H 0.06963 0.8511 0.70711 0.0
H212 H 0.04122 0.85868 0.61907 0.0
H213 H 0.15466 0.95793 0.72273 0.0
H214 H 0.15771 0.92749 0.78502 0.0
H215 H 0.16248 0.92242 0.66729 0.0
H216 H 0.15706 0.83645 0.86845 0.0
H217 H 0.17257 0.8263 0.58967 0.0
H218 H 0.09567 0.87767 0.84718 0.0
H219 H 0.12523 0.90384 0.87477 0.0
H220 H 0.12672 0.87159 0.9286 0.0
H221 H 0.1124 0.86424 0.5043 0.0
H222 H 0.14781 0.85269 0.48163 0.0
H223 H 0.14262 0.88963 0.53119 0.0
C224 C 0.31822 0.83945 0.81682 0.0
C225 C 0.32033 0.81482 0.86166 0.0
C226 C 0.34025 0.86187 0.8351 0.0
C227 C 0.36512 0.86048 0.90193 0.0
C228 C 0.36718 0.83581 0.94818 0.0
C229 C 0.34518 0.81336 0.9269 0.0
C230 C 0.33699 0.88704 0.78191 0.0
C231 C 0.3926 0.83324 1.02134 0.0
C232 C 0.43572 0.90526 0.89858 0.0
C233 C 0.43367 0.93028 0.96288 0.0
C234 C 0.41369 0.88284 0.87758 0.0
C235 C 0.38886 0.88463 0.92315 0.0
C236 C 0.38686 0.90968 0.98902 0.0
C237 C 0.40887 0.93212 1.00705 0.0
C238 C 0.4169 0.85724 0.80543 0.0
C239 C 0.36147 0.91269 0.04143 0.0
H240 H 0.29941 0.84107 0.76598 0.0
H241 H 0.34725 0.79477 0.96295 0.0
H242 H 0.33624 0.90764 0.82937 0.0
H243 H 0.3561 0.88889 0.74635 0.0
H244 H 0.31702 0.8847 0.73029 0.0
H245 H 0.3908 0.81334 0.05322 0.0
H246 H 0.41311 0.83285 0.99174 0.0
H247 H 0.39416 0.85249 0.07563 0.0
H248 H 0.45445 0.90336 0.86307 0.0
H249 H 0.40681 0.95105 0.05718 0.0
H250 H 0.39782 0.85519 0.75059 0.0
H251 H 0.41754 0.83689 0.8358 0.0
H252 H 0.4369 0.85924 0.77408 0.0
H253 H 0.34096 0.91296 0.99339 0.0
H254 H 0.36335 0.93282 0.09247 0.0
H255 H 0.35983 0.8937 0.07757 0.0
C256 C 0.40926 0.10229 1.0162 0.0
C257 C 0.4187 0.08501 0.08336 0.0
C258 C 0.38674 0.12179 1.02667 0.0
C259 C 0.37359 0.12457 0.10715 0.0
C260 C 0.38354 0.10763 0.17624 0.0
C261 C 0.40578 0.08786 0.16314 0.0
C262 C 0.37663 0.13901 0.95062 0.0
C263 C 0.37055 0.11026 0.26378 0.0
C264 C 0.33176 0.19353 0.16079 0.0
C265 C 0.3028 0.18362 0.13157 0.0
C266 C 0.35489 0.17448 0.15522 0.0
C267 C 0.34913 0.14481 0.11787 0.0
C268 C 0.31995 0.1347 0.0881 0.0
C269 C 0.2972 0.1541 0.09609 0.0
C270 C 0.38557 0.18613 0.18925 0.0
C271 C 0.31277 0.10342 0.04632 0.0
H272 H 0.41905 0.10009 0.95414 0.0
H273 H 0.41303 0.07459 0.21531 0.0
H274 H 0.35328 0.13389 0.92481 0.0
H275 H 0.37885 0.16262 0.97693 0.0
H276 H 0.38907 0.13438 0.8924 0.0
H277 H 0.38156 0.09661 0.31254 0.0
H278 H 0.37205 0.13322 0.2976 0.0
H279 H 0.34718 0.10363 0.24822 0.0
H280 H 0.33638 0.2162 0.18909 0.0
H281 H 0.27497 0.14619 0.0729 0.0
H282 H 0.39842 0.18376 0.13184 0.0
H283 H 0.39623 0.17338 0.24112 0.0
H284 H 0.38637 0.2094 0.22017 0.0
H285 H 0.32336 0.09797 0.98437 0.0
H286 H 0.28903 0.0989 1.02684 0.0
H287 H 0.32139 0.08878 0.09529 0.0
C288 C 0.89778 0.94182 0.70337 0.0
C289 C 0.91841 0.93229 0.64742 0.0
C290 C 0.87528 0.92292 0.71355 0.0
C291 C 0.87372 0.89413 0.66638 0.0
C292 C 0.89447 0.88457 0.6094 0.0
C293 C 0.91668 0.90384 0.6008 0.0
C294 C 0.85337 0.93358 0.77488 0.0
C295 C 0.89333 0.85396 0.55797 0.0
C296 C 0.8367 0.8328 0.74759 0.0
C297 C 0.81135 0.82846 0.68363 0.0
C298 C 0.85668 0.8552 0.74555 0.0
C299 C 0.85094 0.87344 0.67784 0.0
C300 C 0.82485 0.86976 0.61508 0.0
C301 C 0.80526 0.84712 0.61864 0.0
C302 C 0.88444 0.85856 0.81319 0.0
C303 C 0.81819 0.88894 0.54208 0.0
H304 H 0.89926 0.96395 0.73911 0.0
H305 H 0.93267 0.8966 0.55722 0.0
H306 H 0.83111 0.93066 0.73577 0.0
H307 H 0.85419 0.92052 0.83152 0.0
H308 H 0.85729 0.95685 0.80476 0.0
H309 H 0.91092 0.85027 0.51514 0.0
H310 H 0.89528 0.83813 0.60701 0.0
H311 H 0.87213 0.84931 0.51298 0.0
H312 H 0.84116 0.81839 0.79828 0.0
H313 H 0.78542 0.84377 0.5698 0.0
H314 H 0.88794 0.88141 0.84748 0.0
H315 H 0.90317 0.85312 0.77644 0.0
H316 H 0.88434 0.84424 0.86636 0.0
H317 H 0.82114 0.91218 0.57276 0.0
H318 H 0.7957 0.88506 0.50482 0.0
H319 H 0.83355 0.88474 0.49184 0.0
C320 C 0.91863 0.07193 0.58905 0.0
C321 C 0.94695 0.07467 0.5685 0.0
C322 C 0.89705 0.09131 0.56371 0.0
C323 C 0.90366 0.11395 0.51547 0.0
C324 C 0.93232 0.1172 0.49594 0.0
C325 C 0.95361 0.09767 0.52307 0.0
C326 C 0.86695 0.08716 0.58698 0.0
C327 C 0.94031 0.14081 0.44397 0.0
C328 C 0.84077 0.1434 0.3651 0.0
C329 C 0.83559 0.16966 0.41864 0.0
C330 C 0.86292 0.12527 0.39548 0.0
C331 C 0.88026 0.13337 0.48212 0.0
C332 C 0.87493 0.1598 0.53685 0.0
C333 C 0.85278 0.17767 0.50429 0.0
C334 C 0.86786 0.09746 0.33448 0.0
C335 C 0.89263 0.16918 0.62988 0.0
H336 H 0.91318 0.05439 0.6245 0.0
H337 H 0.97529 0.09995 0.50613 0.0
H338 H 0.86008 0.10764 0.62472 0.0
H339 H 0.85121 0.0817 0.52312 0.0
H340 H 0.8657 0.06959 0.62923 0.0
H341 H 0.96375 0.14119 0.43718 0.0
H342 H 0.92742 0.1375 0.37442 0.0
H343 H 0.93495 0.16235 0.47892 0.0
H344 H 0.82765 0.13713 0.29867 0.0
H345 H 0.8489 0.19795 0.54599 0.0
H346 H 0.86484 0.07857 0.36994 0.0
H347 H 0.89052 0.0974 0.31972 0.0
H348 H 0.85285 0.09446 0.26854 0.0
H349 H 0.89073 0.15232 0.67416 0.0
H350 H 0.88562 0.19014 0.66449 0.0
H351 H 0.91592 0.1715 0.62315 0.0
C352 C 0.68466 0.15483 0.26516 0.0
C353 C 0.68352 0.18047 0.22527 0.0
C354 C 0.66233 0.13267 0.24093 0.0
C355 C 0.63816 0.13529 0.17265 0.0
C356 C 0.63712 0.16097 0.13124 0.0
C357 C 0.65932 0.18317 0.15867 0.0
C358 C 0.66451 0.10644 0.28952 0.0
C359 C 0.61259 0.16492 0.05666 0.0
C360 C 0.59457 0.06485 0.05185 0.0
C361 C 0.56894 0.06603 0.09191 0.0
C362 C 0.61676 0.08715 0.07613 0.0
C363 C 0.61417 0.11133 0.14463 0.0
C364 C 0.5885 0.11241 0.18619 0.0
C365 C 0.56627 0.09024 0.15872 0.0
C366 C 0.64298 0.08492 1.02735 0.0
C367 C 0.58459 0.13696 0.261 0.0
H368 H 0.7029 0.15223 0.317 0.0
H369 H 0.65796 0.20255 0.12633 0.0
H370 H 0.64476 0.104 0.32161 0.0
H371 H 0.6657 0.0865 0.23958 0.0
H372 H 0.68387 0.10792 0.34336 0.0
H373 H 0.61521 0.18543 1.02862 0.0
H374 H 0.61135 0.1464 0.99996 0.0
H375 H 0.59161 0.16504 0.0835 0.0
H376 H 0.59715 0.0466 0.99984 0.0
H377 H 0.5469 0.09163 0.19118 0.0
H378 H 0.6629 0.0837 0.07715 0.0
H379 H 0.64545 0.10468 0.9954 0.0
H380 H 0.64147 0.06556 0.97338 0.0
H381 H 0.6031 0.13817 0.31757 0.0
H382 H 0.56408 0.13437 0.28915 0.0
H383 H 0.58451 0.15795 0.23432 0.0
C384 C 0.64493 0.79293 0.77585 0.0
C385 C 0.66669 0.79864 0.7243 0.0
C386 C 0.6264 0.81483 0.80591 0.0
C387 C 0.62948 0.84315 0.7836 0.0
C388 C 0.65078 0.84877 0.72914 0.0
C389 C 0.6691 0.82656 0.70048 0.0
C390 C 0.60408 0.80786 0.86402 0.0
C391 C 0.65475 0.87853 0.70311 0.0
C392 C 0.56754 0.89562 0.8056 0.0
C393 C 0.57728 0.91304 0.88986 0.0
C394 C 0.58425 0.87287 0.77008 0.0
C395 C 0.61132 0.86723 0.82022 0.0
C396 C 0.62125 0.88485 0.90532 0.0
C397 C 0.60417 0.90755 0.93888 0.0
C398 C 0.5729 0.8548 0.67897 0.0
C399 C 0.64989 0.87963 0.96125 0.0
H400 H 0.64293 0.77156 0.79525 0.0
H401 H 0.68573 0.83129 0.66054 0.0
H402 H 0.60911 0.82096 0.93313 0.0
H403 H 0.5822 0.81375 0.83353 0.0
H404 H 0.6034 0.7845 0.87162 0.0
H405 H 0.67118 0.879 0.65638 0.0
H406 H 0.63384 0.8857 0.66927 0.0
H407 H 0.66174 0.89452 0.76564 0.0
H408 H 0.54675 0.89973 0.76743 0.0
H409 H 0.61177 0.92086 1.0042 0.0
H410 H 0.57046 0.83167 0.68749 0.0
H411 H 0.58867 0.85594 0.63056 0.0
H412 H 0.5516 0.86209 0.64805 0.0
H413 H 0.64993 0.85716 0.97768 0.0
H414 H 0.65444 0.89507 1.02627 0.0
H415 H 0.66783 0.88177 0.92107 0.0
C416 C 0.61177 0.56079 1.00327 0.0
C417 C 0.60076 0.57793 0.07485 0.0
C418 C 0.62688 0.57355 0.94444 0.0
C419 C 0.63127 0.60404 0.95895 0.0
C420 C 0.62153 0.6213 0.03411 0.0
C421 C 0.6061 0.60797 0.09118 0.0
C422 C 0.63696 0.55462 0.86462 0.0
C423 C 0.6265 0.65388 0.05219 0.0
C424 C 0.68834 0.63813 0.85036 0.0
C425 C 0.67118 0.64935 0.77947 0.0
C426 C 0.67565 0.62274 0.90857 0.0
C427 C 0.64521 0.61808 0.89375 0.0
C428 C 0.62791 0.62802 0.81915 0.0
C429 C 0.64117 0.64395 0.76311 0.0
C430 C 0.69462 0.61278 0.98836 0.0
C431 C 0.59537 0.6227 0.80068 0.0
H432 H 0.60745 0.53748 0.99055 0.0
H433 H 0.5975 0.62108 0.14674 0.0
H434 H 0.62494 0.55978 0.79951 0.0
H435 H 0.66036 0.55903 0.86368 0.0
H436 H 0.6335 0.5311 0.86678 0.0
H437 H 0.61975 0.66377 0.11787 0.0
H438 H 0.64979 0.65953 0.05384 0.0
H439 H 0.61406 0.66368 0.99585 0.0
H440 H 0.71162 0.64257 0.86327 0.0
H441 H 0.62806 0.65273 0.70805 0.0
H442 H 0.69031 0.58936 0.98941 0.0
H443 H 0.68943 0.62486 0.05348 0.0
H444 H 0.71812 0.61635 0.98613 0.0
H445 H 0.5899 0.59928 0.79753 0.0
H446 H 0.58545 0.62975 0.73559 0.0
H447 H 0.58542 0.63471 0.85757 0.0
C448 C 0.66118 0.34345 0.1562 0.0
C449 C 0.66414 0.33046 0.23576 0.0
C450 C 0.64132 0.36563 0.14361 0.0
C451 C 0.6244 0.37546 0.21304 0.0
C452 C 0.62724 0.3622 0.2932 0.0
C453 C 0.64683 0.33973 0.30314 0.0
C454 C 0.63864 0.37874 0.0564 0.0
C455 C 0.61007 0.37221 0.36964 0.0
C456 C 0.59578 0.45225 0.22656 0.0
C457 C 0.56623 0.44707 0.19117 0.0
C458 C 0.61486 0.42923 0.23385 0.0
C459 C 0.60439 0.40018 0.20348 0.0
C460 C 0.57468 0.3948 0.16644 0.0
C461 C 0.55593 0.41823 0.16158 0.0
C462 C 0.6462 0.43601 0.27539 0.0
C463 C 0.56267 0.36427 0.1318 0.0
H464 H 0.67446 0.33632 0.10382 0.0
H465 H 0.6491 0.32988 0.36502 0.0
H466 H 0.61563 0.37754 1.02327 0.0
H467 H 0.64555 0.40206 0.07229 0.0
H468 H 0.65205 0.36762 1.00694 0.0
H469 H 0.61454 0.3595 0.42716 0.0
H470 H 0.61542 0.39548 0.39642 0.0
H471 H 0.58647 0.37028 0.34344 0.0
H472 H 0.60399 0.47438 0.25011 0.0
H473 H 0.53323 0.41393 0.13341 0.0
H474 H 0.6607 0.42742 0.22584 0.0
H475 H 0.65157 0.42513 0.33667 0.0
H476 H 0.65096 0.4597 0.29587 0.0
H477 H 0.57518 0.35358 0.07917 0.0
H478 H 0.53937 0.36377 0.10159 0.0
H479 H 0.56502 0.35124 0.18868 0.0
C480 C 0.93562 0.40488 0.3944 0.0
C481 C 0.93363 0.43036 0.45688 0.0
C482 C 0.91325 0.3828 0.37343 0.0
C483 C 0.88809 0.38539 0.41734 0.0
C484 C 0.88611 0.41092 0.48135 0.0
C485 C 0.90847 0.43304 0.49922 0.0
C486 C 0.91648 0.3567 0.3031 0.0
C487 C 0.86038 0.41477 0.5321 0.0
C488 C 0.81733 0.34046 0.30973 0.0
C489 C 0.81892 0.31611 0.35589 0.0
C490 C 0.83955 0.36271 0.32807 0.0
C491 C 0.86405 0.36149 0.39643 0.0
C492 C 0.86553 0.33714 0.44413 0.0
C493 C 0.8434 0.31481 0.42266 0.0
C494 C 0.83692 0.38748 0.27313 0.0
C495 C 0.8905 0.33478 0.51902 0.0
H496 H 0.95462 0.40232 0.36027 0.0
H497 H 0.90643 0.45233 0.54794 0.0
H498 H 0.91675 0.33665 0.33497 0.0
H499 H 0.89758 0.35447 0.24757 0.0
H500 H 0.93667 0.35819 0.27238 0.0
H501 H 0.86228 0.43522 0.58179 0.0
H502 H 0.84013 0.41498 0.48286 0.0
H503 H 0.85821 0.39617 0.56954 0.0
H504 H 0.79882 0.34195 0.25769 0.0
H505 H 0.84506 0.29645 0.45976 0.0
H506 H 0.85629 0.38881 0.23843 0.0
H507 H 0.83618 0.40836 0.31925 0.0
H508 H 0.81718 0.38506 0.22061 0.0
H509 H 0.91122 0.33374 0.49059 0.0
H510 H 0.88814 0.31527 0.55239 0.0
H511 H 0.89206 0.35441 0.5719 0.0
C512 C 0.79588 0.64893 0.64382 0.0
C513 C 0.80044 0.67875 0.64249 0.0
C514 C 0.81819 0.62918 0.63307 0.0
C515 C 0.84588 0.63929 0.62012 0.0
C516 C 0.8507 0.66935 0.6189 0.0
C517 C 0.82801 0.68868 0.63029 0.0
C518 C 0.81205 0.59738 0.6352 0.0
C519 C 0.87979 0.68109 0.60475 0.0
C520 C 0.91111 0.59146 0.66432 0.0
C521 C 0.91347 0.57784 0.57561 0.0
C522 C 0.88926 0.61148 0.67998 0.0
C523 C 0.86945 0.61827 0.60505 0.0
C524 C 0.87192 0.6046 0.51534 0.0
C525 C 0.89375 0.58451 0.50184 0.0
C526 C 0.88728 0.6253 0.77675 0.0
C527 C 0.85149 0.61125 0.43337 0.0
H528 H 0.7748 0.64089 0.65365 0.0
H529 H 0.83191 0.71161 0.62916 0.0
H530 H 0.81497 0.58439 0.56885 0.0
H531 H 0.8277 0.58964 0.68908 0.0
H532 H 0.78967 0.59307 0.64852 0.0
H533 H 0.88025 0.70504 0.60704 0.0
H534 H 0.89707 0.67551 0.65815 0.0
H535 H 0.88511 0.67084 0.53754 0.0
H536 H 0.92628 0.58638 0.72159 0.0
H537 H 0.89551 0.57414 0.43303 0.0
H538 H 0.86562 0.62021 0.79422 0.0
H539 H 0.88957 0.64928 0.78284 0.0
H540 H 0.90422 0.61773 0.82752 0.0
H541 H 0.8288 0.60554 0.44024 0.0
H542 H 0.85657 0.59919 0.36799 0.0
H543 H 0.85261 0.63487 0.42993 0.0
C544 C 0.32632 0.33605 0.08568 0.0
C545 C 0.30391 0.33843 0.13873 0.0
C546 C 0.34666 0.35898 0.09359 0.0
C547 C 0.34446 0.38438 0.15692 0.0
C548 C 0.32122 0.38722 0.20818 0.0
C549 C 0.30099 0.36418 0.19782 0.0
C550 C 0.371 0.35567 0.03661 0.0
C551 C 0.31846 0.41399 0.27675 0.0
C552 C 0.41503 0.42667 0.24416 0.0
C553 C 0.41253 0.44871 0.18977 0.0
C554 C 0.3924 0.40603 0.23652 0.0
C555 C 0.36717 0.40753 0.17208 0.0
C556 C 0.36414 0.43045 0.11966 0.0
C557 C 0.38689 0.45101 0.12978 0.0
C558 C 0.39589 0.38207 0.29481 0.0
C559 C 0.33754 0.43247 0.04993 0.0
H560 H 0.32836 0.31607 0.03983 0.0
H561 H 0.28354 0.3659 0.23884 0.0
H562 H 0.37203 0.37446 0.99926 0.0
H563 H 0.39207 0.3554 0.08193 0.0
H564 H 0.36837 0.33538 0.98618 0.0
H565 H 0.29815 0.41332 0.30732 0.0
H566 H 0.33722 0.416 0.33268 0.0
H567 H 0.31887 0.43381 0.2439 0.0
H568 H 0.43493 0.42512 0.29072 0.0
H569 H 0.38507 0.46817 0.08772 0.0
H570 H 0.39681 0.36086 0.25052 0.0
H571 H 0.37689 0.38083 0.33122 0.0
H572 H 0.41592 0.38531 0.34615 0.0
H573 H 0.33611 0.41354 0.9946 0.0
H574 H 0.33794 0.45266 1.01872 0.0
H575 H 0.31757 0.43176 0.08196 0.0
C576 C 0.45795 0.60607 0.07512 0.0
C577 C 0.45169 0.58465 0.12716 0.0
C578 C 0.43626 0.62425 0.04157 0.0
C579 C 0.40752 0.62111 0.06057 0.0
C580 C 0.4013 0.60019 0.11554 0.0
C581 C 0.42335 0.58226 0.1479 0.0
C582 C 0.4439 0.64622 0.98327 0.0
C583 C 0.37109 0.59615 0.13808 0.0
C584 C 0.35476 0.68233 1.02843 0.0
C585 C 0.3384 0.672 0.94286 0.0
C586 C 0.37725 0.66606 0.06762 0.0
C587 C 0.3837 0.63881 1.01999 0.0
C588 C 0.36714 0.62829 0.93358 0.0
C589 C 0.34469 0.64495 0.89626 0.0
C590 C 0.39416 0.67807 0.15997 0.0
C591 C 0.37321 0.59943 0.88025 0.0
H592 H 0.47964 0.6081 0.05809 0.0
H593 H 0.41812 0.56588 0.18803 0.0
H594 H 0.43168 0.64068 0.9131 0.0
H595 H 0.43747 0.66817 1.0116 0.0
H596 H 0.46748 0.64707 0.97864 0.0
H597 H 0.3701 0.58008 0.18567 0.0
H598 H 0.36334 0.61716 0.16953 0.0
H599 H 0.35586 0.58863 0.07428 0.0
H600 H 0.35003 0.70323 0.06481 0.0
H601 H 0.33219 0.63688 0.83 0.0
H602 H 0.4175 0.68066 0.15425 0.0
H603 H 0.39246 0.66262 0.20895 0.0
H604 H 0.38633 0.69943 0.18862 0.0
H605 H 0.39599 0.59947 0.8666 0.0
H606 H 0.35853 0.59437 0.81388 0.0
H607 H 0.37063 0.58178 0.92113 0.0
C608 C 0.16119 0.68133 0.66614 0.0
C609 C 0.18576 0.67823 0.7309 0.0
C610 C 0.13909 0.65906 0.63784 0.0
C611 C 0.14065 0.63283 0.67635 0.0
C612 C 0.16524 0.62975 0.74266 0.0
C613 C 0.18742 0.65205 0.76789 0.0
C614 C 0.11406 0.66356 0.56555 0.0
C615 C 0.168 0.60289 0.78818 0.0
C616 C 0.06901 0.58749 0.66324 0.0
C617 C 0.07103 0.56397 0.59343 0.0
C618 C 0.0914 0.60945 0.69152 0.0
C619 C 0.11663 0.60888 0.64788 0.0
C620 C 0.11864 0.58534 0.57662 0.0
C621 C 0.09627 0.56322 0.55143 0.0
C622 C 0.0881 0.63327 0.76919 0.0
C623 C 0.14437 0.5837 0.52569 0.0
H624 H 0.1594 0.70112 0.63599 0.0
H625 H 0.20597 0.6491 0.81822 0.0
H626 H 0.11248 0.64551 0.5073 0.0
H627 H 0.09337 0.66329 0.59394 0.0
H628 H 0.11634 0.68445 0.5393 0.0
H629 H 0.18777 0.60393 0.84029 0.0
H630 H 0.14866 0.59997 0.82178 0.0
H631 H 0.1688 0.58341 0.73609 0.0
H632 H 0.04995 0.58856 0.69725 0.0
H633 H 0.09835 0.54551 0.49712 0.0
H634 H 0.08761 0.65463 0.74473 0.0
H635 H 0.10707 0.63404 0.82405 0.0
H636 H 0.06799 0.63021 0.79901 0.0
H637 H 0.14643 0.6038 0.49512 0.0
H638 H 0.14257 0.56469 0.47035 0.0
H639 H 0.16463 0.58223 0.57382 0.0
C640 C 0.13899 0.29498 0.19845 0.0
C641 C 0.16844 0.30174 0.19882 0.0
C642 C 0.12006 0.31648 0.22896 0.0
C643 C 0.13104 0.34518 0.26385 0.0
C644 C 0.16079 0.35201 0.26433 0.0
C645 C 0.17893 0.33041 0.23064 0.0
C646 C 0.08835 0.30842 0.22467 0.0
C647 C 0.17376 0.38193 0.30355 0.0
C648 C 0.08163 0.40996 0.29097 0.0
C649 C 0.07777 0.41186 0.38294 0.0
C650 C 0.09813 0.38784 0.25041 0.0
C651 C 0.11192 0.36776 0.30396 0.0
C652 C 0.10833 0.36995 0.39733 0.0
C653 C 0.09091 0.39162 0.43509 0.0
C654 C 0.10063 0.38584 0.15012 0.0
C655 C 0.12334 0.34974 0.45797 0.0
H656 H 0.13072 0.27292 0.17389 0.0
H657 H 0.20176 0.33577 0.23257 0.0
H658 H 0.08286 0.30997 0.29496 0.0
H659 H 0.07464 0.32387 0.18924 0.0
H660 H 0.0827 0.28602 0.18842 0.0
H661 H 0.19725 0.38382 0.29843 0.0
H662 H 0.16224 0.39855 0.26737 0.0
H663 H 0.17103 0.38707 0.37671 0.0
H664 H 0.07123 0.42539 0.25017 0.0
H665 H 0.08802 0.39307 0.50631 0.0
H666 H 0.09369 0.36373 0.11397 0.0
H667 H 0.12359 0.38949 0.14172 0.0
H668 H 0.08725 0.40197 0.11671 0.0
H669 H 0.11621 0.32692 0.43058 0.0
H670 H 0.11884 0.35468 0.52954 0.0
H671 H 0.14717 0.35139 0.45864 0.0
C672 C 0.04355 0.01729 0.95049 0.0
C673 C 0.0192 0.01766 0.88276 0.0
C674 C 0.04083 0.01371 0.04135 0.0
C675 C 0.01293 0.01173 0.06798 0.0
C676 C 0.98816 0.01239 0.99986 0.0
C677 C 0.99157 0.01476 0.90809 0.0
C678 C 0.06801 0.01183 0.10876 0.0
C679 C 0.95794 0.01144 1.02455 0.0
C680 C 0.00183 0.97641 0.27864 0.0
C681 C 0.0032 0.00021 0.34925 0.0
C682 C 0.00577 0.9798 0.18863 0.0
C683 C 0.0098 0.00796 0.16581 0.0
C684 C 0.01119 0.0322 0.23713 0.0
C685 C 0.00847 0.028 0.32799 0.0
C686 C 0.00566 0.95305 0.11779 0.0
C687 C 0.01468 0.06274 0.21701 0.0
H688 H 0.06503 0.01959 0.93202 0.0
H689 H 0.9726 0.01557 0.85712 0.0
H690 H 0.07 0.0307 0.16429 0.0
H691 H 0.0668 0.99195 0.14105 0.0
H692 H 0.08795 0.0114 0.07597 0.0
H693 H 0.94098 0.0138 0.96581 0.0
H694 H 0.95372 0.99059 0.04853 0.0
H695 H 0.95596 0.02912 0.08176 0.0
H696 H 0.99771 0.95483 0.29404 0.0
H697 H 0.0091 0.04661 0.38139 0.0
H698 H 0.02551 0.95325 0.08479 0.0
H699 H 0.98673 0.9529 0.06328 0.0
H700 H 0.00467 0.93267 0.14772 0.0
H701 H 0.03629 0.06594 0.19659 0.0
H702 H 0.01259 0.07934 0.27709 0.0
H703 H 0.99811 0.06644 0.15883 0.0
C704 C 0.2885 0.73425 0.49824 0.0
C705 C 0.26616 0.74134 0.55088 0.0
C706 C 0.28578 0.7376 0.40483 0.0
C707 C 0.25965 0.74763 0.36018 0.0
C708 C 0.23689 0.75483 0.41298 0.0
C709 C 0.24051 0.75194 0.5075 0.0
C710 C 0.3111 0.73043 0.35387 0.0
C711 C 0.20841 0.76506 0.36905 0.0
C712 C 0.26177 0.78057 0.13867 0.0
C713 C 0.25283 0.75707 0.06887 0.0
C714 C 0.2641 0.77779 0.23258 0.0
C715 C 0.25661 0.75096 0.2592 0.0
C716 C 0.24743 0.72712 0.18884 0.0
C717 C 0.24601 0.73033 0.09511 0.0
C718 C 0.27489 0.80366 0.30356 0.0
C719 C 0.23872 0.6982 0.2126 0.0
H720 H 0.30845 0.72605 0.53053 0.0
H721 H 0.22294 0.75714 0.54664 0.0
H722 H 0.30473 0.71245 0.29648 0.0
H723 H 0.31747 0.74952 0.32378 0.0
H724 H 0.33031 0.72391 0.39873 0.0
H725 H 0.19272 0.76952 0.41828 0.0
H726 H 0.21208 0.78514 0.34 0.0
H727 H 0.19859 0.74834 0.31149 0.0
H728 H 0.26715 0.80134 0.1197 0.0
H729 H 0.2388 0.71206 0.0423 0.0
H730 H 0.29454 0.79802 0.34821 0.0
H731 H 0.25816 0.80972 0.34803 0.0
H732 H 0.28032 0.82287 0.27231 0.0
H733 H 0.25751 0.68911 0.2523 0.0
H734 H 0.23074 0.6822 0.15078 0.0
H735 H 0.22141 0.70113 0.25656 0.0
C736 C 0.46728 0.98866 0.68529 0.0
C737 C 0.49063 0.99805 0.75496 0.0
C738 C 0.47002 0.98657 0.59144 0.0
C739 C 0.49664 0.99476 0.56491 0.0
C740 C 0.52033 0.00439 0.63516 0.0
C741 C 0.51718 0.00558 0.7288 0.0
C742 C 0.44435 0.97528 0.52046 0.0
C743 C 0.54901 0.01382 0.61136 0.0
C744 C 0.51392 0.96338 0.32623 0.0
C745 C 0.50638 0.98561 0.27373 0.0
C746 C 0.51054 0.96597 0.41953 0.0
C747 C 0.49998 0.99187 0.4641 0.0
C748 C 0.49228 0.01451 0.41144 0.0
C749 C 0.49524 0.01101 0.317 0.0
C750 C 0.51828 0.94079 0.47048 0.0
C751 C 0.48144 0.04273 0.45545 0.0
H752 H 0.44666 0.98276 0.70432 0.0
H753 H 0.53531 0.01315 0.78162 0.0
H754 H 0.43792 0.9919 0.47603 0.0
H755 H 0.45039 0.95578 0.47576 0.0
H756 H 0.42527 0.96943 0.5517 0.0
H757 H 0.56487 0.02211 0.67316 0.0
H758 H 0.55851 0.99529 0.57149 0.0
H759 H 0.54564 0.03111 0.56754 0.0
H760 H 0.52253 0.94361 0.29393 0.0
H761 H 0.48965 0.02848 0.27783 0.0
H762 H 0.49934 0.93398 0.50052 0.0
H763 H 0.53613 0.94754 0.5279 0.0
H764 H 0.52522 0.92175 0.42562 0.0
H765 H 0.46141 0.0386 0.48427 0.0
H766 H 0.47668 0.05837 0.40632 0.0
H767 H 0.49793 0.05285 0.51318 0.0
C768 C 0.19693 0.2316 0.81381 0.0
C769 C 0.22077 0.23481 0.88454 0.0
C770 C 0.20003 0.23438 0.7227 0.0
C771 C 0.22797 0.23917 0.69933 0.0
C772 C 0.25227 0.24206 0.77055 0.0
C773 C 0.24833 0.24043 0.86224 0.0
C774 C 0.17322 0.2321 0.65142 0.0
C775 C 0.28263 0.24589 0.7493 0.0
C776 C 0.23666 0.22132 0.44292 0.0
C777 C 0.23929 0.24912 0.41867 0.0
C778 C 0.23342 0.21761 0.53374 0.0
C779 C 0.23157 0.24227 0.60158 0.0
C780 C 0.23284 0.27028 0.57537 0.0
C781 C 0.23735 0.27331 0.48573 0.0
C782 C 0.23237 0.18719 0.55681 0.0
C783 C 0.2292 0.29724 0.642 0.0
H784 H 0.17557 0.22694 0.82997 0.0
H785 H 0.26699 0.24221 0.91568 0.0
H786 H 0.17314 0.25028 0.611 0.0
H787 H 0.17313 0.21156 0.60322 0.0
H788 H 0.15293 0.23237 0.68238 0.0
H789 H 0.29937 0.24607 0.81055 0.0
H790 H 0.28695 0.228 0.69551 0.0
H791 H 0.28484 0.26655 0.72198 0.0
H792 H 0.2384 0.20248 0.39212 0.0
H793 H 0.2392 0.2949 0.4677 0.0
H794 H 0.20952 0.18045 0.55784 0.0
H795 H 0.24482 0.18615 0.62544 0.0
H796 H 0.24113 0.17131 0.50541 0.0
H797 H 0.20887 0.29513 0.67146 0.0
H798 H 0.22843 0.3172 0.60932 0.0
H799 H 0.24745 0.29989 0.69956 0.0
C800 C 0.78612 0.2359 0.99098 0.0
C801 C 0.76385 0.24331 0.04358 0.0
C802 C 0.78349 0.23922 0.89769 0.0
C803 C 0.75754 0.24959 0.85325 0.0
C804 C 0.73487 0.2572 0.90601 0.0
C805 C 0.73839 0.25428 1.00045 0.0
C806 C 0.8087 0.23158 0.84659 0.0
C807 C 0.70659 0.26787 0.86213 0.0
C808 C 0.76071 0.28219 0.63213 0.0
C809 C 0.75146 0.25876 0.56247 0.0
C810 C 0.76274 0.27952 0.72595 0.0
C811 C 0.75464 0.25288 0.75247 0.0
C812 C 0.74515 0.2291 0.68224 0.0
C813 C 0.74401 0.23219 0.5886 0.0
C814 C 0.77385 0.30529 0.79693 0.0
C815 C 0.73584 0.20038 0.70607 0.0
H816 H 0.80593 0.22742 1.02317 0.0
H817 H 0.72089 0.25976 0.03971 0.0
H818 H 0.80205 0.21367 0.78918 0.0
H819 H 0.81541 0.25055 0.81652 0.0
H820 H 0.82778 0.22476 0.89135 0.0
H821 H 0.69094 0.2726 0.91137 0.0
H822 H 0.71061 0.28788 0.83316 0.0
H823 H 0.69655 0.25127 0.80452 0.0
H824 H 0.76654 0.30283 0.6131 0.0
H825 H 0.73654 0.214 0.53578 0.0
H826 H 0.79339 0.29938 0.84156 0.0
H827 H 0.7572 0.31163 0.84143 0.0
H828 H 0.77959 0.32439 0.76568 0.0
H829 H 0.7544 0.19099 0.74593 0.0
H830 H 0.72765 0.18446 0.64428 0.0
H831 H 0.71852 0.2037 0.7499 0.0
C832 C 0.74484 0.74047 0.39254 0.0
C833 C 0.71858 0.73001 0.41339 0.0
C834 C 0.74829 0.74312 0.30116 0.0
C835 C 0.72466 0.73609 0.22861 0.0
C836 C 0.69792 0.72622 0.2503 0.0
C837 C 0.69541 0.72287 0.34138 0.0
C838 C 0.77744 0.75297 0.28195 0.0
C839 C 0.67161 0.7198 0.17753 0.0
C840 C 0.72518 0.77058 1.01006 0.0
C841 C 0.73246 0.74745 0.94646 0.0
C842 C 0.72234 0.7671 0.10078 0.0
C843 C 0.72748 0.73986 0.13087 0.0
C844 C 0.73456 0.71625 0.06654 0.0
C845 C 0.73669 0.72023 0.97527 0.0
C846 C 0.71366 0.7927 0.16446 0.0
C847 C 0.74015 0.68675 0.09438 0.0
H848 H 0.76301 0.74567 0.4472 0.0
H849 H 0.67498 0.71485 0.35656 0.0
H850 H 0.78526 0.7365 0.2302 0.0
H851 H 0.7754 0.77354 0.25283 0.0
H852 H 0.79398 0.75647 0.34451 0.0
H853 H 0.65337 0.70946 0.20284 0.0
H854 H 0.66414 0.74036 0.15427 0.0
H855 H 0.67712 0.70539 0.11692 0.0
H856 H 0.72161 0.79166 0.98867 0.0
H857 H 0.74233 0.70219 0.9271 0.0
H858 H 0.73113 0.79858 0.22362 0.0
H859 H 0.69387 0.78686 0.19201 0.0
H860 H 0.70931 0.81209 0.12997 0.0
H861 H 0.7575 0.6887 0.15463 0.0
H862 H 0.74671 0.67098 0.03824 0.0
H863 H 0.72029 0.67792 0.11496 0.0
C864 C 0.52969 0.51337 0.87991 0.0
C865 C 0.50195 0.51216 0.90564 0.0
C866 C 0.53336 0.51658 0.78899 0.0
C867 C 0.50879 0.51985 0.72254 0.0
C868 C 0.4809 0.51994 0.75017 0.0
C869 C 0.47784 0.51544 0.83986 0.0
C870 C 0.56354 0.51581 0.76369 0.0
C871 C 0.4541 0.5248 0.68485 0.0
C872 C 0.52095 0.55436 0.51124 0.0
C873 C 0.51692 0.53067 0.43976 0.0
C874 C 0.51796 0.55126 0.60227 0.0
C875 C 0.51199 0.52344 0.62474 0.0
C876 C 0.50817 0.49931 0.55271 0.0
C877 C 0.51013 0.50328 0.46123 0.0
C878 C 0.52086 0.57797 0.67432 0.0
C879 C 0.50288 0.46905 0.57278 0.0
H880 H 0.54845 0.5105 0.92956 0.0
H881 H 0.45629 0.5146 0.85891 0.0
H882 H 0.56391 0.50068 0.69906 0.0
H883 H 0.57032 0.5377 0.75209 0.0
H884 H 0.5797 0.50898 0.81815 0.0
H885 H 0.43436 0.52669 0.7187 0.0
H886 H 0.45711 0.54491 0.65514 0.0
H887 H 0.45042 0.50651 0.62733 0.0
H888 H 0.52636 0.57561 0.4957 0.0
H889 H 0.50763 0.48471 0.40721 0.0
H890 H 0.53861 0.57558 0.73049 0.0
H891 H 0.50053 0.58053 0.70483 0.0
H892 H 0.52536 0.59807 0.64619 0.0
H893 H 0.52047 0.46379 0.62584 0.0
H894 H 0.50191 0.45237 0.51088 0.0
H895 H 0.48218 0.4678 0.60057 0.0
C896 C 0.03654 0.48485 0.84197 0.0
C897 C 0.01404 0.49183 0.77587 0.0
C898 C 0.03412 0.48838 0.93617 0.0
C899 C 0.00812 0.49851 0.96686 0.0
C900 C 0.9852 0.50566 0.90039 0.0
C901 C 0.98853 0.50258 0.80623 0.0
C902 C 0.0596 0.48123 1.00309 0.0
C903 C 0.95684 0.51598 0.92857 0.0
C904 C 0.99541 0.48149 0.20447 0.0
C905 C 0.00247 0.50826 0.26132 0.0
C906 C 0.99643 0.47819 0.10886 0.0
C907 C 0.00541 0.50197 0.06833 0.0
C908 C 0.01313 0.52883 0.12621 0.0
C909 C 0.01122 0.53169 0.22084 0.0
C910 C 0.98755 0.44923 0.05088 0.0
C911 C 0.02375 0.55463 0.0883 0.0
H912 H 0.0564 0.47653 0.81985 0.0
H913 H 0.97083 0.50772 0.75613 0.0
H914 H 0.06604 0.50032 0.05666 0.0
H915 H 0.05337 0.46322 0.0381 0.0
H916 H 0.07873 0.47478 0.96926 0.0
H917 H 0.94098 0.52034 0.86942 0.0
H918 H 0.94716 0.49935 0.96238 0.0
H919 H 0.96065 0.53614 0.97918 0.0
H920 H 0.98835 0.46326 0.2343 0.0
H921 H 0.01678 0.55248 0.26369 0.0
H922 H 0.00628 0.43997 1.0199 0.0
H923 H 0.97022 0.45212 0.99383 0.0
H924 H 0.97954 0.43336 0.091 0.0
H925 H 0.04328 0.54893 0.05582 0.0
H926 H 0.02929 0.5739 0.14196 0.0
H927 H 0.00688 0.56061 0.03444 0.0
loop_
_geom_bond_atom_site_label_1
_geom_bond_atom_site_label_2
_geom_bond_distance
_geom_bond_site_symmetry_2
_ccdc_geom_bond_type
Tb0 O3 2.453 . S
Tb0 O4 2.596 1_445 S
Tb0 O5 2.374 1_545 S
Tb0 O13 2.343 . S
Tb0 O15 2.353 1_455 S
Tb0 O17 2.427 . S
Tb0 O18 2.513 . S
C1 O5 1.251 . S
C1 O7 1.263 . S
Tb2 O4 2.343 . S
Tb2 O7 2.353 1_655 S
Tb2 O10 2.427 . S
Tb2 O11 2.513 . S
Tb2 O12 2.453 . S
Tb2 O13 2.596 1_665 S
Tb2 O14 2.374 1_565 S
O3 Tb0 2.453 . S
O3 C19 1.249 . S
O4 Tb0 2.596 1_665 S
O4 Tb2 2.343 . S
O4 C19 1.258 1_665 S
O5 Tb0 2.374 1_565 S
O5 C1 1.251 . S
C6 O10 1.275 . S
C6 O11 1.246 . S
O7 C1 1.263 . S
O7 Tb2 2.353 1_455 S
C8 O12 1.244 . S
C8 O13 1.260 1_665 S
C9 O14 1.250 . S
C9 O15 1.263 . S
O10 Tb2 2.427 . S
O10 C6 1.275 . S
O11 Tb2 2.513 . S
O11 C6 1.246 . S
O12 Tb2 2.453 . S
O12 C8 1.244 . S
O13 Tb0 2.343 . S
O13 Tb2 2.596 1_445 S
O13 C8 1.260 1_445 S
O14 Tb2 2.374 1_545 S
O14 C9 1.250 . S
O15 Tb0 2.353 1_655 S
O15 C9 1.263 . S
C16 O17 1.275 . S
C16 O18 1.246 . S
O17 Tb0 2.427 . S
O17 C16 1.275 . S
O18 Tb0 2.513 . S
O18 C16 1.246 . S
C19 O3 1.249 . S
C19 O4 1.258 1_445 S
Tb20 O23 2.453 . S
Tb20 O24 2.596 . S
Tb20 O25 2.374 . S
Tb20 O33 2.343 . S
Tb20 O35 2.353 . S
Tb20 O37 2.427 . S
Tb20 O38 2.513 . S
C21 O25 1.251 . S
C21 O27 1.263 . S
Tb22 O24 2.343 . S
Tb22 O27 2.353 . S
Tb22 O30 2.427 . S
Tb22 O31 2.513 . S
Tb22 O32 2.453 . S
Tb22 O33 2.596 . S
Tb22 O34 2.374 . S
O23 Tb20 2.453 . S
O23 C39 1.245 . S
O24 Tb20 2.596 . S
O24 Tb22 2.343 . S
O24 C39 1.259 . S
O25 Tb20 2.374 . S
O25 C21 1.251 . S
C26 O30 1.275 . S
C26 O31 1.246 . S
O27 C21 1.263 . S
O27 Tb22 2.353 . S
C28 O32 1.245 . S
C28 O33 1.259 . S
C29 O34 1.250 . S
C29 O35 1.263 . S
O30 Tb22 2.427 . S
O30 C26 1.275 . S
O31 Tb22 2.513 . S
O31 C26 1.246 . S
O32 Tb22 2.453 . S
O32 C28 1.245 . S
O33 Tb20 2.343 . S
O33 Tb22 2.596 . S
O33 C28 1.259 . S
O34 Tb22 2.374 . S
O34 C29 1.250 . S
O35 Tb20 2.353 . S
O35 C29 1.263 . S
C36 O37 1.275 . S
C36 O38 1.246 . S
O37 Tb20 2.427 . S
O37 C36 1.275 . S
O38 Tb20 2.513 . S
O38 C36 1.246 . S
C39 O23 1.245 . S
C39 O24 1.259 . S
Tb40 O43 2.453 . S
Tb40 O44 2.596 1_545 S
Tb40 O45 2.374 1_545 S
Tb40 O53 2.343 1_556 S
Tb40 O55 2.353 1_556 S
Tb40 O57 2.427 1_556 S
Tb40 O58 2.513 1_556 S
C41 O45 1.251 . S
C41 O47 1.263 . S
Tb42 O44 2.343 1_554 S
Tb42 O47 2.353 1_554 S
Tb42 O50 2.427 1_554 S
Tb42 O51 2.513 1_554 S
Tb42 O52 2.453 . S
Tb42 O53 2.596 1_565 S
Tb42 O54 2.374 1_565 S
O43 Tb40 2.453 . S
O43 C59 1.245 1_545 S
O44 Tb40 2.596 1_565 S
O44 Tb42 2.343 1_556 S
O44 C59 1.259 . S
O45 Tb40 2.374 1_565 S
O45 C41 1.251 . S
C46 O50 1.275 . S
C46 O51 1.246 . S
O47 C41 1.263 . S
O47 Tb42 2.353 1_556 S
C48 O52 1.245 1_545 S
C48 O53 1.259 . S
C49 O54 1.250 . S
C49 O55 1.263 . S
O50 Tb42 2.427 1_556 S
O50 C46 1.275 . S
O51 Tb42 2.513 1_556 S
O51 C46 1.246 . S
O52 Tb42 2.453 . S
O52 C48 1.245 1_565 S
O53 Tb40 2.343 1_554 S
O53 Tb42 2.596 1_545 S
O53 C48 1.259 . S
O54 Tb42 2.374 1_545 S
O54 C49 1.250 . S
O55 Tb40 2.353 1_554 S
O55 C49 1.263 . S
C56 O57 1.275 . S
C56 O58 1.246 . S
O57 Tb40 2.427 1_554 S
O57 C56 1.275 . S
O58 Tb40 2.513 1_554 S
O58 C56 1.246 . S
C59 O43 1.245 1_565 S
C59 O44 1.259 . S
Tb60 O63 2.453 . S
Tb60 O64 2.596 . S
Tb60 O65 2.374 . S
Tb60 O73 2.343 . S
Tb60 O75 2.353 . S
Tb60 O77 2.427 . S
Tb60 O78 2.513 . S
C61 O65 1.251 . S
C61 O67 1.263 . S
Tb62 O64 2.343 . S
Tb62 O67 2.353 . S
Tb62 O70 2.427 . S
Tb62 O71 2.513 . S
Tb62 O72 2.453 . S
Tb62 O73 2.596 . S
Tb62 O74 2.374 . S
O63 Tb60 2.453 . S
O63 C79 1.245 . S
O64 Tb60 2.596 . S
O64 Tb62 2.343 . S
O64 C79 1.259 . S
O65 Tb60 2.374 . S
O65 C61 1.251 . S
C66 O70 1.275 . S
C66 O71 1.246 . S
O67 C61 1.263 . S
O67 Tb62 2.353 . S
C68 O72 1.245 . S
C68 O73 1.259 . S
C69 O74 1.250 . S
C69 O75 1.263 . S
O70 Tb62 2.427 . S
O70 C66 1.275 . S
O71 Tb62 2.513 . S
O71 C66 1.246 . S
O72 Tb62 2.453 . S
O72 C68 1.245 . S
O73 Tb60 2.343 . S
O73 Tb62 2.596 . S
O73 C68 1.259 . S
O74 Tb62 2.374 . S
O74 C69 1.250 . S
O75 Tb60 2.353 . S
O75 C69 1.263 . S
C76 O77 1.275 . S
C76 O78 1.246 . S
O77 Tb60 2.427 . S
O77 C76 1.275 . S
O78 Tb60 2.513 . S
O78 C76 1.246 . S
C79 O63 1.245 . S
C79 O64 1.259 . S
Tb80 O83 2.453 . S
Tb80 O84 2.596 . S
Tb80 O85 2.374 . S
Tb80 O93 2.343 . S
Tb80 O95 2.353 . S
Tb80 O97 2.427 . S
Tb80 O98 2.513 . S
C81 O85 1.251 . S
C81 O87 1.263 . S
Tb82 O84 2.343 . S
Tb82 O87 2.353 . S
Tb82 O90 2.427 . S
Tb82 O91 2.513 . S
Tb82 O92 2.453 . S
Tb82 O93 2.596 . S
Tb82 O94 2.374 . S
O83 Tb80 2.453 . S
O83 C99 1.245 . S
O84 Tb80 2.596 . S
O84 Tb82 2.343 . S
O84 C99 1.259 . S
O85 Tb80 2.374 . S
O85 C81 1.251 . S
C86 O90 1.275 . S
C86 O91 1.246 . S
O87 C81 1.263 . S
O87 Tb82 2.353 . S
C88 O92 1.245 . S
C88 O93 1.259 . S
C89 O94 1.250 . S
C89 O95 1.263 . S
O90 Tb82 2.427 . S
O90 C86 1.275 . S
O91 Tb82 2.513 . S
O91 C86 1.246 . S
O92 Tb82 2.453 . S
O92 C88 1.245 . S
O93 Tb80 2.343 . S
O93 Tb82 2.596 . S
O93 C88 1.259 . S
O94 Tb82 2.374 . S
O94 C89 1.250 . S
O95 Tb80 2.353 . S
O95 C89 1.263 . S
C96 O97 1.275 . S
C96 O98 1.246 . S
O97 Tb80 2.427 . S
O97 C96 1.275 . S
O98 Tb80 2.513 . S
O98 C96 1.246 . S
C99 O83 1.245 . S
C99 O84 1.259 . S
Tb100 O103 2.453 . S
Tb100 O104 2.596 . S
Tb100 O105 2.374 . S
Tb100 O113 2.343 . S
Tb100 O115 2.353 . S
Tb100 O117 2.427 . S
Tb100 O118 2.513 . S
C101 O105 1.251 . S
C101 O107 1.263 . S
Tb102 O104 2.343 . S
Tb102 O107 2.353 . S
Tb102 O110 2.427 . S
Tb102 O111 2.513 . S
Tb102 O112 2.453 . S
Tb102 O113 2.596 . S
Tb102 O114 2.374 . S
O103 Tb100 2.453 . S
O103 C119 1.245 . S
O104 Tb100 2.596 . S
O104 Tb102 2.343 . S
O104 C119 1.259 . S
O105 Tb100 2.374 . S
O105 C101 1.251 . S
C106 O110 1.275 . S
C106 O111 1.246 . S
O107 C101 1.263 . S
O107 Tb102 2.353 . S
C108 O112 1.245 . S
C108 O113 1.259 . S
C109 O114 1.250 . S
C109 O115 1.263 . S
O110 Tb102 2.427 . S
O110 C106 1.275 . S
O111 Tb102 2.513 . S
O111 C106 1.246 . S
O112 Tb102 2.453 . S
O112 C108 1.245 . S
O113 Tb100 2.343 . S
O113 Tb102 2.596 . S
O113 C108 1.259 . S
O114 Tb102 2.374 . S
O114 C109 1.250 . S
O115 Tb100 2.353 . S
O115 C109 1.263 . S
C116 O117 1.275 . S
C116 O118 1.246 . S
O117 Tb100 2.427 . S
O117 C116 1.275 . S
O118 Tb100 2.513 . S
O118 C116 1.246 . S
C119 O103 1.245 . S
C119 O104 1.259 . S
Tb120 O123 2.453 . S
Tb120 O124 2.596 . S
Tb120 O125 2.374 . S
Tb120 O133 2.343 1_554 S
Tb120 O135 2.353 . S
Tb120 O137 2.427 1_554 S
Tb120 O138 2.513 1_554 S
C121 O125 1.251 . S
C121 O127 1.263 1_554 S
Tb122 O124 2.343 1_556 S
Tb122 O127 2.353 . S
Tb122 O130 2.427 1_556 S
Tb122 O131 2.513 1_556 S
Tb122 O132 2.453 . S
Tb122 O133 2.596 . S
Tb122 O134 2.374 . S
O123 Tb120 2.453 . S
O123 C139 1.245 . S
O124 Tb120 2.596 . S
O124 Tb122 2.343 1_554 S
O124 C139 1.259 . S
O125 Tb120 2.374 . S
O125 C121 1.251 . S
C126 O130 1.275 . S
C126 O131 1.246 . S
O127 C121 1.263 1_556 S
O127 Tb122 2.353 . S
C128 O132 1.245 . S
C128 O133 1.259 . S
C129 O134 1.250 . S
C129 O135 1.263 1_556 S
O130 Tb122 2.427 1_554 S
O130 C126 1.275 . S
O131 Tb122 2.513 1_554 S
O131 C126 1.246 . S
O132 Tb122 2.453 . S
O132 C128 1.245 . S
O133 Tb120 2.343 1_556 S
O133 Tb122 2.596 . S
O133 C128 1.259 . S
O134 Tb122 2.374 . S
O134 C129 1.250 . S
O135 Tb120 2.353 . S
O135 C129 1.263 1_554 S
C136 O137 1.275 . S
C136 O138 1.246 . S
O137 Tb120 2.427 1_556 S
O137 C136 1.275 . S
O138 Tb120 2.513 1_556 S
O138 C136 1.246 . S
C139 O123 1.245 . S
C139 O124 1.259 . S
Tb140 O143 2.453 . S
Tb140 O144 2.596 1_655 S
Tb140 O145 2.374 . S
Tb140 O153 2.343 . S
Tb140 O155 2.353 1_655 S
Tb140 O157 2.427 . S
Tb140 O158 2.513 . S
C141 O145 1.251 . S
C141 O147 1.263 . S
Tb142 O144 2.343 . S
Tb142 O147 2.353 1_455 S
Tb142 O150 2.427 . S
Tb142 O151 2.513 . S
Tb142 O152 2.453 . S
Tb142 O153 2.596 1_455 S
Tb142 O154 2.374 . S
O143 Tb140 2.453 . S
O143 C159 1.247 . S
O144 Tb140 2.596 1_455 S
O144 Tb142 2.343 . S
O144 C159 1.259 1_455 S
O145 Tb140 2.374 . S
O145 C141 1.251 . S
C146 O150 1.275 . S
C146 O151 1.246 . S
O147 C141 1.263 . S
O147 Tb142 2.353 1_655 S
C148 O152 1.252 . S
C148 O153 1.257 1_455 S
C149 O154 1.250 . S
C149 O155 1.263 . S
O150 Tb142 2.427 . S
O150 C146 1.275 . S
O151 Tb142 2.513 . S
O151 C146 1.246 . S
O152 Tb142 2.453 . S
O152 C148 1.252 . S
O153 Tb140 2.343 . S
O153 Tb142 2.596 1_655 S
O153 C148 1.257 1_655 S
O154 Tb142 2.374 . S
O154 C149 1.250 . S
O155 Tb140 2.353 1_455 S
O155 C149 1.263 . S
C156 O157 1.275 . S
C156 O158 1.246 . S
O157 Tb140 2.427 . S
O157 C156 1.275 . S
O158 Tb140 2.513 . S
O158 C156 1.246 . S
C159 O143 1.247 . S
C159 O144 1.259 1_655 S
C160 C161 1.391 . S
C160 C162 1.394 . S
C160 H176 0.931 . S
C161 C160 1.391 . S
C161 C165 1.376 . S
C162 C160 1.394 . S
C162 C163 1.369 . S
C162 C166 1.531 . S
C163 C162 1.369 . S
C163 C164 1.410 . S
C163 C171 1.503 . S
C164 C163 1.410 . S
C164 C165 1.392 . S
C164 C167 1.511 . S
C165 C161 1.376 . S
C165 C164 1.392 . S
C165 H177 0.929 . S
C166 C162 1.531 . S
C166 H178 0.960 . S
C166 H179 0.962 . S
C166 H180 0.960 . S
C167 C164 1.511 . S
C167 H181 0.961 . S
C167 H182 0.961 . S
C167 H183 0.961 . S
C168 C169 1.370 . S
C168 C170 1.363 . S
C168 H184 0.931 . S
C169 C168 1.370 . S
C169 C173 1.408 . S
C170 C168 1.363 . S
C170 C171 1.370 . S
C170 C174 1.524 . S
C171 C163 1.503 . S
C171 C170 1.370 . S
C171 C172 1.403 . S
C172 C171 1.403 . S
C172 C173 1.404 . S
C172 C175 1.539 . S
C173 C169 1.408 . S
C173 C172 1.404 . S
C173 H185 0.930 . S
C174 C170 1.524 . S
C174 H186 0.956 . S
C174 H187 0.961 . S
C174 H188 0.961 . S
C175 C172 1.539 . S
C175 H189 0.958 . S
C175 H190 0.961 . S
C175 H191 0.960 . S
H176 C160 0.931 . S
H177 C165 0.929 . S
H178 C166 0.960 . S
H179 C166 0.962 . S
H180 C166 0.960 . S
H181 C167 0.961 . S
H182 C167 0.961 . S
H183 C167 0.961 . S
H184 C168 0.931 . S
H185 C173 0.930 . S
H186 C174 0.956 . S
H187 C174 0.961 . S
H188 C174 0.961 . S
H189 C175 0.958 . S
H190 C175 0.961 . S
H191 C175 0.960 . S
C192 C193 1.391 . S
C192 C194 1.394 . S
C192 H208 0.931 . S
C193 C192 1.391 . S
C193 C197 1.376 . S
C194 C192 1.394 . S
C194 C195 1.369 . S
C194 C198 1.531 . S
C195 C194 1.369 . S
C195 C196 1.410 . S
C195 C203 1.503 . S
C196 C195 1.410 . S
C196 C197 1.392 . S
C196 C199 1.511 . S
C197 C193 1.376 . S
C197 C196 1.392 . S
C197 H209 0.929 . S
C198 C194 1.531 . S
C198 H210 0.960 . S
C198 H211 0.962 . S
C198 H212 0.960 . S
C199 C196 1.511 . S
C199 H213 0.961 . S
C199 H214 0.961 . S
C199 H215 0.961 . S
C200 C201 1.370 . S
C200 C202 1.363 . S
C200 H216 0.931 . S
C201 C200 1.370 . S
C201 C205 1.408 . S
C202 C200 1.363 . S
C202 C203 1.370 . S
C202 C206 1.524 . S
C203 C195 1.503 . S
C203 C202 1.370 . S
C203 C204 1.403 . S
C204 C203 1.403 . S
C204 C205 1.404 . S
C204 C207 1.539 . S
C205 C201 1.408 . S
C205 C204 1.404 . S
C205 H217 0.930 . S
C206 C202 1.524 . S
C206 H218 0.956 . S
C206 H219 0.961 . S
C206 H220 0.961 . S
C207 C204 1.539 . S
C207 H221 0.958 . S
C207 H222 0.961 . S
C207 H223 0.960 . S
H208 C192 0.931 . S
H209 C197 0.929 . S
H210 C198 0.960 . S
H211 C198 0.962 . S
H212 C198 0.960 . S
H213 C199 0.961 . S
H214 C199 0.961 . S
H215 C199 0.961 . S
H216 C200 0.931 . S
H217 C205 0.930 . S
H218 C206 0.956 . S
H219 C206 0.961 . S
H220 C206 0.961 . S
H221 C207 0.958 . S
H222 C207 0.961 . S
H223 C207 0.960 . S
C224 C225 1.391 . S
C224 C226 1.394 . S
C224 H240 0.931 . S
C225 C224 1.391 . S
C225 C229 1.376 . S
C226 C224 1.394 . S
C226 C227 1.369 . S
C226 C230 1.531 . S
C227 C226 1.369 . S
C227 C228 1.410 . S
C227 C235 1.503 . S
C228 C227 1.410 . S
C228 C229 1.392 . S
C228 C231 1.511 . S
C229 C225 1.376 . S
C229 C228 1.392 . S
C229 H241 0.929 . S
C230 C226 1.531 . S
C230 H242 0.960 . S
C230 H243 0.962 . S
C230 H244 0.960 . S
C231 C228 1.511 . S
C231 H245 0.961 . S
C231 H246 0.961 . S
C231 H247 0.961 . S
C232 C233 1.370 . S
C232 C234 1.363 . S
C232 H248 0.931 . S
C233 C232 1.370 . S
C233 C237 1.408 . S
C234 C232 1.363 . S
C234 C235 1.370 . S
C234 C238 1.524 . S
C235 C227 1.503 . S
C235 C234 1.370 . S
C235 C236 1.403 . S
C236 C235 1.403 . S
C236 C237 1.404 . S
C236 C239 1.539 1_556 S
C237 C233 1.408 . S
C237 C236 1.404 . S
C237 H249 0.930 1_556 S
C238 C234 1.524 . S
C238 H250 0.956 . S
C238 H251 0.961 . S
C238 H252 0.961 . S
C239 C236 1.539 1_554 S
C239 H253 0.958 . S
C239 H254 0.961 . S
C239 H255 0.960 . S
H240 C224 0.931 . S
H241 C229 0.929 . S
H242 C230 0.960 . S
H243 C230 0.962 . S
H244 C230 0.960 . S
H245 C231 0.961 . S
H246 C231 0.961 . S
H247 C231 0.961 . S
H248 C232 0.931 . S
H249 C237 0.930 1_554 S
H250 C238 0.956 . S
H251 C238 0.961 . S
H252 C238 0.961 . S
H253 C239 0.958 . S
H254 C239 0.961 . S
H255 C239 0.960 . S
C256 C257 1.391 . S
C256 C258 1.394 . S
C256 H272 0.931 . S
C257 C256 1.391 . S
C257 C261 1.376 . S
C258 C256 1.394 . S
C258 C259 1.369 . S
C258 C262 1.531 . S
C259 C258 1.369 . S
C259 C260 1.410 . S
C259 C267 1.503 . S
C260 C259 1.410 . S
C260 C261 1.392 . S
C260 C263 1.511 . S
C261 C257 1.376 . S
C261 C260 1.392 . S
C261 H273 0.929 . S
C262 C258 1.531 . S
C262 H274 0.960 . S
C262 H275 0.962 . S
C262 H276 0.960 . S
C263 C260 1.511 . S
C263 H277 0.961 . S
C263 H278 0.961 . S
C263 H279 0.961 . S
C264 C265 1.370 . S
C264 C266 1.363 . S
C264 H280 0.931 . S
C265 C264 1.370 . S
C265 C269 1.408 . S
C266 C264 1.363 . S
C266 C267 1.370 . S
C266 C270 1.524 . S
C267 C259 1.503 . S
C267 C266 1.370 . S
C267 C268 1.403 . S
C268 C267 1.403 . S
C268 C269 1.404 . S
C268 C271 1.539 . S
C269 C265 1.408 . S
C269 C268 1.404 . S
C269 H281 0.930 . S
C270 C266 1.524 . S
C270 H282 0.956 . S
C270 H283 0.961 . S
C270 H284 0.961 . S
C271 C268 1.539 . S
C271 H285 0.958 1_554 S
C271 H286 0.961 1_554 S
C271 H287 0.960 . S
H272 C256 0.931 . S
H273 C261 0.929 . S
H274 C262 0.960 . S
H275 C262 0.962 . S
H276 C262 0.960 . S
H277 C263 0.961 . S
H278 C263 0.961 . S
H279 C263 0.961 . S
H280 C264 0.931 . S
H281 C269 0.930 . S
H282 C270 0.956 . S
H283 C270 0.961 . S
H284 C270 0.961 . S
H285 C271 0.958 1_556 S
H286 C271 0.961 1_556 S
H287 C271 0.960 . S
C288 C289 1.391 . S
C288 C290 1.394 . S
C288 H304 0.931 . S
C289 C288 1.391 . S
C289 C293 1.376 . S
C290 C288 1.394 . S
C290 C291 1.369 . S
C290 C294 1.531 . S
C291 C290 1.369 . S
C291 C292 1.410 . S
C291 C299 1.503 . S
C292 C291 1.410 . S
C292 C293 1.392 . S
C292 C295 1.511 . S
C293 C289 1.376 . S
C293 C292 1.392 . S
C293 H305 0.929 . S
C294 C290 1.531 . S
C294 H306 0.960 . S
C294 H307 0.962 . S
C294 H308 0.960 . S
C295 C292 1.511 . S
C295 H309 0.961 . S
C295 H310 0.961 . S
C295 H311 0.961 . S
C296 C297 1.370 . S
C296 C298 1.363 . S
C296 H312 0.931 . S
C297 C296 1.370 . S
C297 C301 1.408 . S
C298 C296 1.363 . S
C298 C299 1.370 . S
C298 C302 1.524 . S
C299 C291 1.503 . S
C299 C298 1.370 . S
C299 C300 1.403 . S
C300 C299 1.403 . S
C300 C301 1.404 . S
C300 C303 1.539 . S
C301 C297 1.408 . S
C301 C300 1.404 . S
C301 H313 0.930 . S
C302 C298 1.524 . S
C302 H314 0.956 . S
C302 H315 0.961 . S
C302 H316 0.961 . S
C303 C300 1.539 . S
C303 H317 0.958 . S
C303 H318 0.961 . S
C303 H319 0.960 . S
H304 C288 0.931 . S
H305 C293 0.929 . S
H306 C294 0.960 . S
H307 C294 0.962 . S
H308 C294 0.960 . S
H309 C295 0.961 . S
H310 C295 0.961 . S
H311 C295 0.961 . S
H312 C296 0.931 . S
H313 C301 0.930 . S
H314 C302 0.956 . S
H315 C302 0.961 . S
H316 C302 0.961 . S
H317 C303 0.958 . S
H318 C303 0.961 . S
H319 C303 0.960 . S
C320 C321 1.391 . S
C320 C322 1.394 . S
C320 H336 0.931 . S
C321 C320 1.391 . S
C321 C325 1.376 . S
C322 C320 1.394 . S
C322 C323 1.369 . S
C322 C326 1.531 . S
C323 C322 1.369 . S
C323 C324 1.410 . S
C323 C331 1.503 . S
C324 C323 1.410 . S
C324 C325 1.392 . S
C324 C327 1.511 . S
C325 C321 1.376 . S
C325 C324 1.392 . S
C325 H337 0.929 . S
C326 C322 1.531 . S
C326 H338 0.960 . S
C326 H339 0.962 . S
C326 H340 0.960 . S
C327 C324 1.511 . S
C327 H341 0.961 . S
C327 H342 0.961 . S
C327 H343 0.961 . S
C328 C329 1.370 . S
C328 C330 1.363 . S
C328 H344 0.931 . S
C329 C328 1.370 . S
C329 C333 1.408 . S
C330 C328 1.363 . S
C330 C331 1.370 . S
C330 C334 1.524 . S
C331 C323 1.503 . S
C331 C330 1.370 . S
C331 C332 1.403 . S
C332 C331 1.403 . S
C332 C333 1.404 . S
C332 C335 1.539 . S
C333 C329 1.408 . S
C333 C332 1.404 . S
C333 H345 0.930 . S
C334 C330 1.524 . S
C334 H346 0.956 . S
C334 H347 0.961 . S
C334 H348 0.961 . S
C335 C332 1.539 . S
C335 H349 0.958 . S
C335 H350 0.961 . S
C335 H351 0.960 . S
H336 C320 0.931 . S
H337 C325 0.929 . S
H338 C326 0.960 . S
H339 C326 0.962 . S
H340 C326 0.960 . S
H341 C327 0.961 . S
H342 C327 0.961 . S
H343 C327 0.961 . S
H344 C328 0.931 . S
H345 C333 0.930 . S
H346 C334 0.956 . S
H347 C334 0.961 . S
H348 C334 0.961 . S
H349 C335 0.958 . S
H350 C335 0.961 . S
H351 C335 0.960 . S
C352 C353 1.391 . S
C352 C354 1.394 . S
C352 H368 0.931 . S
C353 C352 1.391 . S
C353 C357 1.376 . S
C354 C352 1.394 . S
C354 C355 1.369 . S
C354 C358 1.531 . S
C355 C354 1.369 . S
C355 C356 1.410 . S
C355 C363 1.503 . S
C356 C355 1.410 . S
C356 C357 1.392 . S
C356 C359 1.511 . S
C357 C353 1.376 . S
C357 C356 1.392 . S
C357 H369 0.929 . S
C358 C354 1.531 . S
C358 H370 0.960 . S
C358 H371 0.962 . S
C358 H372 0.960 . S
C359 C356 1.511 . S
C359 H373 0.961 . S
C359 H374 0.961 . S
C359 H375 0.961 . S
C360 C361 1.370 . S
C360 C362 1.363 . S
C360 H376 0.926 1_554 S
C361 C360 1.370 . S
C361 C365 1.408 . S
C362 C360 1.363 . S
C362 C363 1.370 . S
C362 C366 1.524 . S
C363 C355 1.503 . S
C363 C362 1.370 . S
C363 C364 1.403 . S
C364 C363 1.403 . S
C364 C365 1.404 . S
C364 C367 1.539 . S
C365 C361 1.408 . S
C365 C364 1.404 . S
C365 H377 0.930 . S
C366 C362 1.524 . S
C366 H378 0.956 . S
C366 H379 0.961 1_554 S
C366 H380 0.961 1_554 S
C367 C364 1.539 . S
C367 H381 0.958 . S
C367 H382 0.961 . S
C367 H383 0.960 . S
H368 C352 0.931 . S
H369 C357 0.929 . S
H370 C358 0.960 . S
H371 C358 0.962 . S
H372 C358 0.960 . S
H373 C359 0.961 . S
H374 C359 0.961 . S
H375 C359 0.961 . S
H376 C360 0.926 1_556 S
H377 C365 0.930 . S
H378 C366 0.956 . S
H379 C366 0.961 1_556 S
H380 C366 0.961 1_556 S
H381 C367 0.958 . S
H382 C367 0.961 . S
H383 C367 0.960 . S
C384 C385 1.391 . S
C384 C386 1.394 . S
C384 H400 0.931 . S
C385 C384 1.391 . S
C385 C389 1.376 . S
C386 C384 1.394 . S
C386 C387 1.369 . S
C386 C390 1.531 . S
C387 C386 1.369 . S
C387 C388 1.410 . S
C387 C395 1.503 . S
C388 C387 1.410 . S
C388 C389 1.392 . S
C388 C391 1.511 . S
C389 C385 1.376 . S
C389 C388 1.392 . S
C389 H401 0.929 . S
C390 C386 1.531 . S
C390 H402 0.960 . S
C390 H403 0.962 . S
C390 H404 0.960 1_556 S
C391 C388 1.511 . S
C391 H405 0.961 . S
C391 H406 0.961 . S
C391 H407 0.961 . S
C392 C393 1.370 . S
C392 C394 1.363 . S
C392 H408 0.931 . S
C393 C392 1.370 . S
C393 C397 1.408 . S
C394 C392 1.363 . S
C394 C395 1.370 . S
C394 C398 1.524 . S
C395 C387 1.503 . S
C395 C394 1.370 . S
C395 C396 1.403 . S
C396 C395 1.403 . S
C396 C397 1.404 . S
C396 C399 1.539 . S
C397 C393 1.408 . S
C397 C396 1.404 . S
C397 H409 0.930 . S
C398 C394 1.524 . S
C398 H410 0.956 . S
C398 H411 0.961 . S
C398 H412 0.961 . S
C399 C396 1.539 . S
C399 H413 0.958 . S
C399 H414 0.961 . S
C399 H415 0.960 . S
H400 C384 0.931 . S
H401 C389 0.929 . S
H402 C390 0.960 . S
H403 C390 0.962 . S
H404 C390 0.960 1_554 S
H405 C391 0.961 . S
H406 C391 0.961 . S
H407 C391 0.961 . S
H408 C392 0.931 . S
H409 C397 0.930 . S
H410 C398 0.956 . S
H411 C398 0.961 . S
H412 C398 0.961 . S
H413 C399 0.958 . S
H414 C399 0.961 . S
H415 C399 0.960 . S
C416 C417 1.391 . S
C416 C418 1.394 . S
C416 H432 0.931 . S
C417 C416 1.391 . S
C417 C421 1.376 . S
C418 C416 1.394 . S
C418 C419 1.369 . S
C418 C422 1.531 . S
C419 C418 1.369 . S
C419 C420 1.410 . S
C419 C427 1.503 . S
C420 C419 1.410 . S
C420 C421 1.392 . S
C420 C423 1.511 1_556 S
C421 C417 1.376 . S
C421 C420 1.392 . S
C421 H433 0.929 1_556 S
C422 C418 1.531 . S
C422 H434 0.960 . S
C422 H435 0.962 . S
C422 H436 0.960 . S
C423 C420 1.511 1_554 S
C423 H437 0.961 . S
C423 H438 0.961 . S
C423 H439 0.961 . S
C424 C425 1.370 . S
C424 C426 1.363 . S
C424 H440 0.931 . S
C425 C424 1.370 . S
C425 C429 1.408 . S
C426 C424 1.363 . S
C426 C427 1.370 . S
C426 C430 1.524 . S
C427 C419 1.503 . S
C427 C426 1.370 . S
C427 C428 1.403 . S
C428 C427 1.403 . S
C428 C429 1.404 . S
C428 C431 1.539 . S
C429 C425 1.408 . S
C429 C428 1.404 . S
C429 H441 0.930 . S
C430 C426 1.524 . S
C430 H442 0.956 . S
C430 H443 0.961 . S
C430 H444 0.961 . S
C431 C428 1.539 . S
C431 H445 0.958 . S
C431 H446 0.961 . S
C431 H447 0.960 . S
H432 C416 0.931 . S
H433 C421 0.929 1_554 S
H434 C422 0.960 . S
H435 C422 0.962 . S
H436 C422 0.960 . S
H437 C423 0.961 . S
H438 C423 0.961 . S
H439 C423 0.961 . S
H440 C424 0.931 . S
H441 C429 0.930 . S
H442 C430 0.956 . S
H443 C430 0.961 . S
H444 C430 0.961 . S
H445 C431 0.958 . S
H446 C431 0.961 . S
H447 C431 0.960 . S
C448 C449 1.391 . S
C448 C450 1.394 . S
C448 H464 0.931 . S
C449 C448 1.391 . S
C449 C453 1.376 . S
C450 C448 1.394 . S
C450 C451 1.369 . S
C450 C454 1.531 . S
C451 C450 1.369 . S
C451 C452 1.410 . S
C451 C459 1.503 . S
C452 C451 1.410 . S
C452 C453 1.392 . S
C452 C455 1.511 . S
C453 C449 1.376 . S
C453 C452 1.392 . S
C453 H465 0.929 . S
C454 C450 1.531 . S
C454 H466 0.960 1_554 S
C454 H467 0.962 . S
C454 H468 0.960 1_554 S
C455 C452 1.511 . S
C455 H469 0.961 . S
C455 H470 0.961 . S
C455 H471 0.961 . S
C456 C457 1.370 . S
C456 C458 1.363 . S
C456 H472 0.931 . S
C457 C456 1.370 . S
C457 C461 1.408 1_554 S
C458 C456 1.363 . S
C458 C459 1.370 . S
C458 C462 1.524 . S
C459 C451 1.503 . S
C459 C458 1.370 . S
C459 C460 1.403 1_554 S
C460 C459 1.403 1_556 S
C460 C461 1.404 . S
C460 C463 1.539 . S
C461 C457 1.408 1_556 S
C461 C460 1.404 . S
C461 H473 0.930 . S
C462 C458 1.524 . S
C462 H474 0.956 . S
C462 H475 0.961 . S
C462 H476 0.961 . S
C463 C460 1.539 . S
C463 H477 0.958 . S
C463 H478 0.961 . S
C463 H479 0.960 . S
H464 C448 0.931 . S
H465 C453 0.929 . S
H466 C454 0.960 1_556 S
H467 C454 0.962 . S
H468 C454 0.960 1_556 S
H469 C455 0.961 . S
H470 C455 0.961 . S
H471 C455 0.961 . S
H472 C456 0.931 . S
H473 C461 0.930 . S
H474 C462 0.956 . S
H475 C462 0.961 . S
H476 C462 0.961 . S
H477 C463 0.958 . S
H478 C463 0.961 . S
H479 C463 0.960 . S
C480 C481 1.391 . S
C480 C482 1.394 . S
C480 H496 0.931 . S
C481 C480 1.391 . S
C481 C485 1.376 . S
C482 C480 1.394 . S
C482 C483 1.369 . S
C482 C486 1.531 . S
C483 C482 1.369 . S
C483 C484 1.410 . S
C483 C491 1.503 . S
C484 C483 1.410 . S
C484 C485 1.392 . S
C484 C487 1.511 . S
C485 C481 1.376 . S
C485 C484 1.392 . S
C485 H497 0.929 . S
C486 C482 1.531 . S
C486 H498 0.960 . S
C486 H499 0.962 . S
C486 H500 0.960 . S
C487 C484 1.511 . S
C487 H501 0.961 . S
C487 H502 0.961 . S
C487 H503 0.961 . S
C488 C489 1.370 . S
C488 C490 1.363 . S
C488 H504 0.931 . S
C489 C488 1.370 . S
C489 C493 1.408 . S
C490 C488 1.363 . S
C490 C491 1.370 . S
C490 C494 1.524 . S
C491 C483 1.503 . S
C491 C490 1.370 . S
C491 C492 1.403 . S
C492 C491 1.403 . S
C492 C493 1.404 . S
C492 C495 1.539 . S
C493 C489 1.408 . S
C493 C492 1.404 . S
C493 H505 0.930 . S
C494 C490 1.524 . S
C494 H506 0.956 . S
C494 H507 0.961 . S
C494 H508 0.961 . S
C495 C492 1.539 . S
C495 H509 0.958 . S
C495 H510 0.961 . S
C495 H511 0.960 . S
H496 C480 0.931 . S
H497 C485 0.929 . S
H498 C486 0.960 . S
H499 C486 0.962 . S
H500 C486 0.960 . S
H501 C487 0.961 . S
H502 C487 0.961 . S
H503 C487 0.961 . S
H504 C488 0.931 . S
H505 C493 0.930 . S
H506 C494 0.956 . S
H507 C494 0.961 . S
H508 C494 0.961 . S
H509 C495 0.958 . S
H510 C495 0.961 . S
H511 C495 0.960 . S
C512 C513 1.391 . S
C512 C514 1.394 . S
C512 H528 0.931 . S
C513 C512 1.391 . S
C513 C517 1.376 . S
C514 C512 1.394 . S
C514 C515 1.369 . S
C514 C518 1.531 . S
C515 C514 1.369 . S
C515 C516 1.410 . S
C515 C523 1.503 . S
C516 C515 1.410 . S
C516 C517 1.392 . S
C516 C519 1.511 . S
C517 C513 1.376 . S
C517 C516 1.392 . S
C517 H529 0.929 . S
C518 C514 1.531 . S
C518 H530 0.960 . S
C518 H531 0.962 . S
C518 H532 0.960 . S
C519 C516 1.511 . S
C519 H533 0.961 . S
C519 H534 0.961 . S
C519 H535 0.961 . S
C520 C521 1.370 . S
C520 C522 1.363 . S
C520 H536 0.931 . S
C521 C520 1.370 . S
C521 C525 1.408 . S
C522 C520 1.363 . S
C522 C523 1.370 . S
C522 C526 1.524 . S
C523 C515 1.503 . S
C523 C522 1.370 . S
C523 C524 1.403 . S
C524 C523 1.403 . S
C524 C525 1.404 . S
C524 C527 1.539 . S
C525 C521 1.408 . S
C525 C524 1.404 . S
C525 H537 0.930 . S
C526 C522 1.524 . S
C526 H538 0.956 . S
C526 H539 0.961 . S
C526 H540 0.961 . S
C527 C524 1.539 . S
C527 H541 0.958 . S
C527 H542 0.961 . S
C527 H543 0.960 . S
H528 C512 0.931 . S
H529 C517 0.929 . S
H530 C518 0.960 . S
H531 C518 0.962 . S
H532 C518 0.960 . S
H533 C519 0.961 . S
H534 C519 0.961 . S
H535 C519 0.961 . S
H536 C520 0.931 . S
H537 C525 0.930 . S
H538 C526 0.956 . S
H539 C526 0.961 . S
H540 C526 0.961 . S
H541 C527 0.958 . S
H542 C527 0.961 . S
H543 C527 0.960 . S
C544 C545 1.391 . S
C544 C546 1.394 . S
C544 H560 0.931 . S
C545 C544 1.391 . S
C545 C549 1.376 . S
C546 C544 1.394 . S
C546 C547 1.369 . S
C546 C550 1.531 . S
C547 C546 1.369 . S
C547 C548 1.410 . S
C547 C555 1.503 . S
C548 C547 1.410 . S
C548 C549 1.392 . S
C548 C551 1.511 . S
C549 C545 1.376 . S
C549 C548 1.392 . S
C549 H561 0.929 . S
C550 C546 1.531 . S
C550 H562 0.960 1_554 S
C550 H563 0.962 . S
C550 H564 0.960 1_554 S
C551 C548 1.511 . S
C551 H565 0.961 . S
C551 H566 0.961 . S
C551 H567 0.961 . S
C552 C553 1.370 . S
C552 C554 1.363 . S
C552 H568 0.931 . S
C553 C552 1.370 . S
C553 C557 1.408 . S
C554 C552 1.363 . S
C554 C555 1.370 . S
C554 C558 1.524 . S
C555 C547 1.503 . S
C555 C554 1.370 . S
C555 C556 1.403 . S
C556 C555 1.403 . S
C556 C557 1.404 . S
C556 C559 1.539 1_554 S
C557 C553 1.408 . S
C557 C556 1.404 . S
C557 H569 0.930 1_554 S
C558 C554 1.524 . S
C558 H570 0.956 . S
C558 H571 0.961 . S
C558 H572 0.961 . S
C559 C556 1.539 1_556 S
C559 H573 0.958 . S
C559 H574 0.961 . S
C559 H575 0.960 1_556 S
H560 C544 0.931 . S
H561 C549 0.929 . S
H562 C550 0.960 1_556 S
H563 C550 0.962 . S
H564 C550 0.960 1_556 S
H565 C551 0.961 . S
H566 C551 0.961 . S
H567 C551 0.961 . S
H568 C552 0.931 . S
H569 C557 0.930 1_556 S
H570 C558 0.956 . S
H571 C558 0.961 . S
H572 C558 0.961 . S
H573 C559 0.958 . S
H574 C559 0.961 . S
H575 C559 0.960 1_554 S
C576 C577 1.391 . S
C576 C578 1.394 . S
C576 H592 0.931 1_556 S
C577 C576 1.391 . S
C577 C581 1.376 . S
C578 C576 1.394 . S
C578 C579 1.369 . S
C578 C582 1.531 1_556 S
C579 C578 1.369 . S
C579 C580 1.410 . S
C579 C587 1.503 . S
C580 C579 1.410 . S
C580 C581 1.392 . S
C580 C583 1.511 . S
C581 C577 1.376 . S
C581 C580 1.392 . S
C581 H593 0.929 . S
C582 C578 1.531 1_554 S
C582 H594 0.960 . S
C582 H595 0.962 . S
C582 H596 0.960 . S
C583 C580 1.511 . S
C583 H597 0.961 . S
C583 H598 0.961 . S
C583 H599 0.961 . S
C584 C585 1.370 . S
C584 C586 1.363 . S
C584 H600 0.931 . S
C585 C584 1.370 . S
C585 C589 1.408 . S
C586 C584 1.363 . S
C586 C587 1.370 . S
C586 C590 1.524 . S
C587 C579 1.503 . S
C587 C586 1.370 . S
C587 C588 1.403 . S
C588 C587 1.403 . S
C588 C589 1.404 . S
C588 C591 1.539 . S
C589 C585 1.408 . S
C589 C588 1.404 . S
C589 H601 0.930 . S
C590 C586 1.524 . S
C590 H602 0.956 1_556 S
C590 H603 0.961 . S
C590 H604 0.961 1_556 S
C591 C588 1.539 . S
C591 H605 0.958 . S
C591 H606 0.961 . S
C591 H607 0.960 . S
H592 C576 0.931 1_554 S
H593 C581 0.929 . S
H594 C582 0.960 . S
H595 C582 0.962 . S
H596 C582 0.960 . S
H597 C583 0.961 . S
H598 C583 0.961 . S
H599 C583 0.961 . S
H600 C584 0.931 . S
H601 C589 0.930 . S
H602 C590 0.956 1_554 S
H603 C590 0.961 . S
H604 C590 0.961 1_554 S
H605 C591 0.958 . S
H606 C591 0.961 . S
H607 C591 0.960 . S
C608 C609 1.391 . S
C608 C610 1.394 . S
C608 H624 0.931 . S
C609 C608 1.391 . S
C609 C613 1.376 . S
C610 C608 1.394 . S
C610 C611 1.369 . S
C610 C614 1.531 . S
C611 C610 1.369 . S
C611 C612 1.410 . S
C611 C619 1.503 . S
C612 C611 1.410 . S
C612 C613 1.392 . S
C612 C615 1.511 . S
C613 C609 1.376 . S
C613 C612 1.392 . S
C613 H625 0.929 . S
C614 C610 1.531 . S
C614 H626 0.960 . S
C614 H627 0.962 . S
C614 H628 0.960 . S
C615 C612 1.511 . S
C615 H629 0.961 . S
C615 H630 0.961 . S
C615 H631 0.961 . S
C616 C617 1.370 . S
C616 C618 1.363 . S
C616 H632 0.931 . S
C617 C616 1.370 . S
C617 C621 1.408 . S
C618 C616 1.363 . S
C618 C619 1.370 . S
C618 C622 1.524 . S
C619 C611 1.503 . S
C619 C618 1.370 . S
C619 C620 1.403 . S
C620 C619 1.403 . S
C620 C621 1.404 . S
C620 C623 1.539 . S
C621 C617 1.408 . S
C621 C620 1.404 . S
C621 H633 0.930 . S
C622 C618 1.524 . S
C622 H634 0.956 . S
C622 H635 0.961 . S
C622 H636 0.961 . S
C623 C620 1.539 . S
C623 H637 0.958 . S
C623 H638 0.961 . S
C623 H639 0.960 . S
H624 C608 0.931 . S
H625 C613 0.929 . S
H626 C614 0.960 . S
H627 C614 0.962 . S
H628 C614 0.960 . S
H629 C615 0.961 . S
H630 C615 0.961 . S
H631 C615 0.961 . S
H632 C616 0.931 . S
H633 C621 0.930 . S
H634 C622 0.956 . S
H635 C622 0.961 . S
H636 C622 0.961 . S
H637 C623 0.958 . S
H638 C623 0.961 . S
H639 C623 0.960 . S
C640 C641 1.391 . S
C640 C642 1.394 . S
C640 H656 0.931 . S
C641 C640 1.391 . S
C641 C645 1.376 . S
C642 C640 1.394 . S
C642 C643 1.369 . S
C642 C646 1.531 . S
C643 C642 1.369 . S
C643 C644 1.410 . S
C643 C651 1.503 . S
C644 C643 1.410 . S
C644 C645 1.392 . S
C644 C647 1.511 . S
C645 C641 1.376 . S
C645 C644 1.392 . S
C645 H657 0.929 . S
C646 C642 1.531 . S
C646 H658 0.960 . S
C646 H659 0.962 . S
C646 H660 0.960 . S
C647 C644 1.511 . S
C647 H661 0.961 . S
C647 H662 0.961 . S
C647 H663 0.961 . S
C648 C649 1.370 . S
C648 C650 1.363 . S
C648 H664 0.931 . S
C649 C648 1.370 . S
C649 C653 1.408 . S
C650 C648 1.363 . S
C650 C651 1.370 . S
C650 C654 1.524 . S
C651 C643 1.503 . S
C651 C650 1.370 . S
C651 C652 1.403 . S
C652 C651 1.403 . S
C652 C653 1.404 . S
C652 C655 1.539 . S
C653 C649 1.408 . S
C653 C652 1.404 . S
C653 H665 0.930 . S
C654 C650 1.524 . S
C654 H666 0.956 . S
C654 H667 0.961 . S
C654 H668 0.961 . S
C655 C652 1.539 . S
C655 H669 0.958 . S
C655 H670 0.961 . S
C655 H671 0.960 . S
H656 C640 0.931 . S
H657 C645 0.929 . S
H658 C646 0.960 . S
H659 C646 0.962 . S
H660 C646 0.960 . S
H661 C647 0.961 . S
H662 C647 0.961 . S
H663 C647 0.961 . S
H664 C648 0.931 . S
H665 C653 0.930 . S
H666 C654 0.956 . S
H667 C654 0.961 . S
H668 C654 0.961 . S
H669 C655 0.958 . S
H670 C655 0.961 . S
H671 C655 0.960 . S
C672 C673 1.391 1_445 S
C672 C674 1.394 . S
C672 H688 0.931 . S
C673 C672 1.391 1_665 S
C673 C677 1.376 . S
C674 C672 1.394 . S
C674 C675 1.369 1_455 S
C674 C678 1.531 . S
C675 C674 1.369 1_655 S
C675 C676 1.410 1_545 S
C675 C683 1.503 1_556 S
C676 C675 1.410 1_565 S
C676 C677 1.392 . S
C676 C679 1.511 . S
C677 C673 1.376 . S
C677 C676 1.392 . S
C677 H689 0.929 . S
C678 C674 1.531 . S
C678 H690 0.960 1_556 S
C678 H691 0.962 . S
C678 H692 0.960 . S
C679 C676 1.511 . S
C679 H693 0.961 . S
C679 H694 0.961 . S
C679 H695 0.930 1_565 S
C680 C681 1.370 1_565 S
C680 C682 1.363 . S
C680 H696 0.931 . S
C681 C680 1.370 1_545 S
C681 C685 1.408 1_455 S
C682 C680 1.363 . S
C682 C683 1.370 1_465 S
C682 C686 1.524 . S
C683 C675 1.503 1_554 S
C683 C682 1.370 1_645 S
C683 C684 1.403 . S
C684 C683 1.403 . S
C684 C685 1.404 . S
C684 C687 1.539 . S
C685 C681 1.408 1_655 S
C685 C684 1.404 . S
C685 H697 0.930 . S
C686 C682 1.524 . S
C686 H698 0.956 . S
C686 H699 0.961 1_554 S
C686 H700 0.961 . S
C687 C684 1.539 . S
C687 H701 0.958 . S
C687 H702 0.961 . S
C687 H703 0.960 . S
H688 C672 0.931 . S
H689 C677 0.929 . S
H690 C678 0.960 1_554 S
H691 C678 0.962 . S
H692 C678 0.960 . S
H693 C679 0.961 . S
H694 C679 0.961 . S
H695 C679 0.930 1_545 S
H696 C680 0.931 . S
H697 C685 0.930 . S
H698 C686 0.956 . S
H699 C686 0.961 1_556 S
H700 C686 0.961 . S
H701 C687 0.958 . S
H702 C687 0.961 . S
H703 C687 0.960 . S
C704 C705 1.391 . S
C704 C706 1.394 . S
C704 H720 0.931 . S
C705 C704 1.391 . S
C705 C709 1.376 . S
C706 C704 1.394 . S
C706 C707 1.369 . S
C706 C710 1.531 . S
C707 C706 1.369 . S
C707 C708 1.410 . S
C707 C715 1.503 . S
C708 C707 1.410 . S
C708 C709 1.392 . S
C708 C711 1.511 . S
C709 C705 1.376 . S
C709 C708 1.392 . S
C709 H721 0.929 . S
C710 C706 1.531 . S
C710 H722 0.960 . S
C710 H723 0.962 . S
C710 H724 0.960 . S
C711 C708 1.511 . S
C711 H725 0.961 . S
C711 H726 0.961 . S
C711 H727 0.961 . S
C712 C713 1.370 . S
C712 C714 1.363 . S
C712 H728 0.931 . S
C713 C712 1.370 . S
C713 C717 1.408 . S
C714 C712 1.363 . S
C714 C715 1.370 . S
C714 C718 1.524 . S
C715 C707 1.503 . S
C715 C714 1.370 . S
C715 C716 1.403 . S
C716 C715 1.403 . S
C716 C717 1.404 . S
C716 C719 1.539 . S
C717 C713 1.408 . S
C717 C716 1.404 . S
C717 H729 0.930 . S
C718 C714 1.524 . S
C718 H730 0.956 . S
C718 H731 0.961 . S
C718 H732 0.961 . S
C719 C716 1.539 . S
C719 H733 0.958 . S
C719 H734 0.961 . S
C719 H735 0.960 . S
H720 C704 0.931 . S
H721 C709 0.929 . S
H722 C710 0.960 . S
H723 C710 0.962 . S
H724 C710 0.960 . S
H725 C711 0.961 . S
H726 C711 0.961 . S
H727 C711 0.961 . S
H728 C712 0.931 . S
H729 C717 0.930 . S
H730 C718 0.956 . S
H731 C718 0.961 . S
H732 C718 0.961 . S
H733 C719 0.958 . S
H734 C719 0.961 . S
H735 C719 0.960 . S
C736 C737 1.385 1_545 S
C736 C738 1.400 . S
C736 H752 0.931 . S
C737 C736 1.385 1_565 S
C737 C741 1.376 . S
C738 C736 1.400 . S
C738 C739 1.369 . S
C738 C742 1.531 . S
C739 C738 1.369 . S
C739 C740 1.410 1_545 S
C739 C747 1.503 . S
C740 C739 1.410 1_565 S
C740 C741 1.392 . S
C740 C743 1.511 . S
C741 C737 1.376 . S
C741 C740 1.392 . S
C741 H753 0.929 . S
C742 C738 1.531 . S
C742 H754 0.960 . S
C742 H755 0.962 1_545 S
C742 H756 0.960 . S
C743 C740 1.511 . S
C743 H757 0.961 . S
C743 H758 0.961 . S
C743 H759 0.961 1_565 S
C744 C745 1.370 1_565 S
C744 C746 1.363 . S
C744 H760 0.931 . S
C745 C744 1.370 1_545 S
C745 C749 1.408 . S
C746 C744 1.363 . S
C746 C747 1.370 1_565 S
C746 C750 1.524 . S
C747 C739 1.503 . S
C747 C746 1.370 1_545 S
C747 C748 1.403 . S
C748 C747 1.403 . S
C748 C749 1.404 . S
C748 C751 1.539 . S
C749 C745 1.408 . S
C749 C748 1.404 . S
C749 H761 0.930 . S
C750 C746 1.524 . S
C750 H762 0.956 . S
C750 H763 0.961 . S
C750 H764 0.961 . S
C751 C748 1.539 . S
C751 H765 0.958 . S
C751 H766 0.961 . S
C751 H767 0.960 . S
H752 C736 0.931 . S
H753 C741 0.929 . S
H754 C742 0.960 . S
H755 C742 0.962 1_565 S
H756 C742 0.960 . S
H757 C743 0.961 . S
H758 C743 0.961 . S
H759 C743 0.961 1_545 S
H760 C744 0.931 . S
H761 C749 0.930 . S
H762 C750 0.956 . S
H763 C750 0.961 . S
H764 C750 0.961 . S
H765 C751 0.958 . S
H766 C751 0.961 . S
H767 C751 0.960 . S
C768 C769 1.391 . S
C768 C770 1.394 . S
C768 H784 0.931 . S
C769 C768 1.391 . S
C769 C773 1.376 . S
C770 C768 1.394 . S
C770 C771 1.369 . S
C770 C774 1.531 . S
C771 C770 1.369 . S
C771 C772 1.410 . S
C771 C779 1.503 . S
C772 C771 1.410 . S
C772 C773 1.392 . S
C772 C775 1.511 . S
C773 C769 1.376 . S
C773 C772 1.392 . S
C773 H785 0.929 . S
C774 C770 1.531 . S
C774 H786 0.960 . S
C774 H787 0.962 . S
C774 H788 0.960 . S
C775 C772 1.511 . S
C775 H789 0.961 . S
C775 H790 0.961 . S
C775 H791 0.961 . S
C776 C777 1.370 . S
C776 C778 1.363 . S
C776 H792 0.931 . S
C777 C776 1.370 . S
C777 C781 1.408 . S
C778 C776 1.363 . S
C778 C779 1.370 . S
C778 C782 1.524 . S
C779 C771 1.503 . S
C779 C778 1.370 . S
C779 C780 1.403 . S
C780 C779 1.403 . S
C780 C781 1.404 . S
C780 C783 1.539 . S
C781 C777 1.408 . S
C781 C780 1.404 . S
C781 H793 0.930 . S
C782 C778 1.524 . S
C782 H794 0.956 . S
C782 H795 0.961 . S
C782 H796 0.961 . S
C783 C780 1.539 . S
C783 H797 0.958 . S
C783 H798 0.961 . S
C783 H799 0.960 . S
H784 C768 0.931 . S
H785 C773 0.929 . S
H786 C774 0.960 . S
H787 C774 0.962 . S
H788 C774 0.960 . S
H789 C775 0.961 . S
H790 C775 0.961 . S
H791 C775 0.961 . S
H792 C776 0.931 . S
H793 C781 0.930 . S
H794 C782 0.956 . S
H795 C782 0.961 . S
H796 C782 0.961 . S
H797 C783 0.958 . S
H798 C783 0.961 . S
H799 C783 0.960 . S
C800 C801 1.391 . S
C800 C802 1.394 . S
C800 H816 0.931 . S
C801 C800 1.391 . S
C801 C805 1.376 . S
C802 C800 1.394 . S
C802 C803 1.369 . S
C802 C806 1.531 . S
C803 C802 1.369 . S
C803 C804 1.410 . S
C803 C811 1.503 . S
C804 C803 1.410 . S
C804 C805 1.392 . S
C804 C807 1.511 . S
C805 C801 1.376 . S
C805 C804 1.392 . S
C805 H817 0.929 . S
C806 C802 1.531 . S
C806 H818 0.960 . S
C806 H819 0.962 . S
C806 H820 0.960 . S
C807 C804 1.511 . S
C807 H821 0.961 . S
C807 H822 0.961 . S
C807 H823 0.961 . S
C808 C809 1.370 . S
C808 C810 1.363 . S
C808 H824 0.931 . S
C809 C808 1.370 . S
C809 C813 1.408 . S
C810 C808 1.363 . S
C810 C811 1.370 . S
C810 C814 1.524 . S
C811 C803 1.503 . S
C811 C810 1.370 . S
C811 C812 1.403 . S
C812 C811 1.403 . S
C812 C813 1.404 . S
C812 C815 1.539 . S
C813 C809 1.408 . S
C813 C812 1.404 . S
C813 H825 0.930 . S
C814 C810 1.524 . S
C814 H826 0.956 . S
C814 H827 0.961 . S
C814 H828 0.961 . S
C815 C812 1.539 . S
C815 H829 0.958 . S
C815 H830 0.961 . S
C815 H831 0.960 . S
H816 C800 0.931 . S
H817 C805 0.929 . S
H818 C806 0.960 . S
H819 C806 0.962 . S
H820 C806 0.960 . S
H821 C807 0.961 . S
H822 C807 0.961 . S
H823 C807 0.961 . S
H824 C808 0.931 . S
H825 C813 0.930 . S
H826 C814 0.956 . S
H827 C814 0.961 . S
H828 C814 0.961 . S
H829 C815 0.958 . S
H830 C815 0.961 . S
H831 C815 0.960 . S
C832 C833 1.391 . S
C832 C834 1.394 . S
C832 H848 0.931 . S
C833 C832 1.391 . S
C833 C837 1.376 . S
C834 C832 1.394 . S
C834 C835 1.369 . S
C834 C838 1.531 . S
C835 C834 1.369 . S
C835 C836 1.410 . S
C835 C843 1.503 . S
C836 C835 1.410 . S
C836 C837 1.392 . S
C836 C839 1.511 . S
C837 C833 1.376 . S
C837 C836 1.392 . S
C837 H849 0.929 . S
C838 C834 1.531 . S
C838 H850 0.960 . S
C838 H851 0.962 . S
C838 H852 0.960 . S
C839 C836 1.511 . S
C839 H853 0.961 . S
C839 H854 0.961 . S
C839 H855 0.961 . S
C840 C841 1.370 . S
C840 C842 1.363 . S
C840 H856 0.931 . S
C841 C840 1.370 . S
C841 C845 1.408 . S
C842 C840 1.363 . S
C842 C843 1.370 . S
C842 C846 1.524 . S
C843 C835 1.503 . S
C843 C842 1.370 . S
C843 C844 1.403 . S
C844 C843 1.403 . S
C844 C845 1.404 . S
C844 C847 1.539 . S
C845 C841 1.408 . S
C845 C844 1.404 . S
C845 H857 0.930 . S
C846 C842 1.524 . S
C846 H858 0.956 . S
C846 H859 0.961 . S
C846 H860 0.961 . S
C847 C844 1.539 . S
C847 H861 0.958 . S
C847 H862 0.961 . S
C847 H863 0.960 . S
H848 C832 0.931 . S
H849 C837 0.929 . S
H850 C838 0.960 . S
H851 C838 0.962 . S
H852 C838 0.960 . S
H853 C839 0.961 . S
H854 C839 0.961 . S
H855 C839 0.961 . S
H856 C840 0.931 . S
H857 C845 0.930 . S
H858 C846 0.956 . S
H859 C846 0.961 . S
H860 C846 0.961 . S
H861 C847 0.958 . S
H862 C847 0.961 . S
H863 C847 0.960 . S
C864 C865 1.391 . S
C864 C866 1.394 . S
C864 H880 0.931 . S
C865 C864 1.391 . S
C865 C869 1.376 . S
C866 C864 1.394 . S
C866 C867 1.369 . S
C866 C870 1.531 . S
C867 C866 1.369 . S
C867 C868 1.410 . S
C867 C875 1.503 . S
C868 C867 1.410 . S
C868 C869 1.392 . S
C868 C871 1.511 . S
C869 C865 1.376 . S
C869 C868 1.392 . S
C869 H881 0.929 . S
C870 C866 1.531 . S
C870 H882 0.960 . S
C870 H883 0.962 . S
C870 H884 0.960 . S
C871 C868 1.511 . S
C871 H885 0.961 . S
C871 H886 0.961 . S
C871 H887 0.961 . S
C872 C873 1.370 . S
C872 C874 1.363 . S
C872 H888 0.931 . S
C873 C872 1.370 . S
C873 C877 1.408 . S
C874 C872 1.363 . S
C874 C875 1.370 . S
C874 C878 1.524 . S
C875 C867 1.503 . S
C875 C874 1.370 . S
C875 C876 1.403 . S
C876 C875 1.403 . S
C876 C877 1.404 . S
C876 C879 1.539 . S
C877 C873 1.408 . S
C877 C876 1.404 . S
C877 H889 0.930 . S
C878 C874 1.524 . S
C878 H890 0.956 . S
C878 H891 0.961 . S
C878 H892 0.961 . S
C879 C876 1.539 . S
C879 H893 0.958 . S
C879 H894 0.961 . S
C879 H895 0.960 . S
H880 C864 0.931 . S
H881 C869 0.929 . S
H882 C870 0.960 . S
H883 C870 0.962 . S
H884 C870 0.960 . S
H885 C871 0.961 . S
H886 C871 0.961 . S
H887 C871 0.961 . S
H888 C872 0.931 . S
H889 C877 0.930 . S
H890 C878 0.956 . S
H891 C878 0.961 . S
H892 C878 0.961 . S
H893 C879 0.958 . S
H894 C879 0.961 . S
H895 C879 0.960 . S
C896 C897 1.391 1_455 S
C896 C898 1.394 . S
C896 H912 0.931 . S
C897 C896 1.391 1_655 S
C897 C901 1.376 . S
C898 C896 1.394 . S
C898 C899 1.369 . S
C898 C902 1.531 . S
C899 C898 1.369 . S
C899 C900 1.410 1_455 S
C899 C907 1.503 1_556 S
C900 C899 1.410 1_655 S
C900 C901 1.392 . S
C900 C903 1.511 . S
C901 C897 1.376 . S
C901 C900 1.392 . S
C901 H913 0.929 . S
C902 C898 1.531 . S
C902 H914 0.960 1_556 S
C902 H915 0.962 . S
C902 H916 0.960 . S
C903 C900 1.511 . S
C903 H917 0.961 . S
C903 H918 0.961 . S
C903 H919 0.961 . S
C904 C905 1.370 1_655 S
C904 C906 1.363 . S
C904 H920 0.931 . S
C905 C904 1.370 1_455 S
C905 C909 1.408 . S
C906 C904 1.363 . S
C906 C907 1.370 1_655 S
C906 C910 1.524 1_554 S
C907 C899 1.503 1_554 S
C907 C906 1.370 1_455 S
C907 C908 1.403 . S
C908 C907 1.403 . S
C908 C909 1.404 . S
C908 C911 1.539 . S
C909 C905 1.408 . S
C909 C908 1.404 . S
C909 H921 0.930 . S
C910 C906 1.524 1_556 S
C910 H922 0.956 1_655 S
C910 H923 0.961 . S
C910 H924 0.961 1_556 S
C911 C908 1.539 . S
C911 H925 0.958 . S
C911 H926 0.961 . S
C911 H927 0.959 . S
H912 C896 0.931 . S
H913 C901 0.929 . S
H914 C902 0.960 1_554 S
H915 C902 0.962 . S
H916 C902 0.960 . S
H917 C903 0.961 . S
H918 C903 0.961 . S
H919 C903 0.961 . S
H920 C904 0.931 . S
H921 C909 0.930 . S
H922 C910 0.956 1_455 S
H923 C910 0.961 . S
H924 C910 0.961 1_554 S
H925 C911 0.958 . S
H926 C911 0.961 . S
H927 C911 0.959 . S
C161 C16 1.156 . S
C169 C76 1.213 . S
C193 C1 1.542 . S
C201 C36 1.491 . S
C225 C21 1.855 . S
C233 C41 1.831 . S
C257 C56 1.453 . S
C265 C61 1.546 . S
C289 C6 1.165 . S
C297 C106 1.213 . S
C321 C9 1.521 . S
C329 C86 1.500 . S
C353 C89 1.821 . S
C361 C49 1.845 . S
C385 C109 1.543 . S
C393 C46 1.485 . S
C417 C136 1.185 . S
C425 C116 1.206 . S
C449 C96 1.516 . S
C457 C121 1.536 . S
C481 C141 1.817 . S
C489 C81 1.848 . S
C513 C101 1.558 . S
C521 C156 1.477 . S
C545 C66 1.225 . S
C553 C126 1.186 . S
C577 C129 1.556 . S
C585 C26 1.476 . S
C609 C29 1.842 . S
C617 C149 1.832 . S
C641 C69 1.559 . S
C649 C146 1.472 . S
C673 C19 1.878 1_665 S
C681 C8 1.913 1_445 S
C705 C28 1.927 . S
C713 C39 1.924 1_554 S
C737 C59 1.892 . S
C745 C48 1.940 . S
C769 C79 1.915 1_556 S
C777 C68 1.898 . S
C801 C88 1.904 1_556 S
C809 C99 1.934 . S
C833 C119 1.904 . S
C841 C108 1.906 1_554 S
C865 C128 1.872 . S
C873 C139 1.917 . S
C897 C148 1.952 1_655 S
C905 C159 1.912 1_455 S
