# Generated by pormake.
# Topology yfh, (5)-cn, num edge types: 1
# Building blocks:
#     Node 0, Type 0, BuildingBlock: BEQFEK_clean_sbu_0, # of connection points: 5
#     Node 1, Type 0, BuildingBlock: BEQFEK_clean_sbu_0, # of connection points: 5
#     Node 2, Type 0, BuildingBlock: BEQFEK_clean_sbu_0, # of connection points: 5
#     Node 3, Type 0, BuildingBlock: BEQFEK_clean_sbu_0, # of connection points: 5
#     Node 4, Type 0, BuildingBlock: BEQFEK_clean_sbu_0, # of connection points: 5
#     Node 5, Type 0, BuildingBlock: BEQFEK_clean_sbu_0, # of connection points: 5
#     Node 6, Type 0, BuildingBlock: BEQFEK_clean_sbu_0, # of connection points: 5
#     Node 7, Type 0, BuildingBlock: BEQFEK_clean_sbu_0, # of connection points: 5
#     Edge 8, Type (0, 0), BuildingBlock: XUDNAN_clean_linker_2, # of connection points: 2
#     Edge 9, Type (0, 0), BuildingBlock: XUDNAN_clean_linker_2, # of connection points: 2
#     Edge 10, Type (0, 0), BuildingBlock: XUDNAN_clean_linker_2, # of connection points: 2
#     Edge 11, Type (0, 0), BuildingBlock: XUDNAN_clean_linker_2, # of connection points: 2
#     Edge 12, Type (0, 0), BuildingBlock: XUDNAN_clean_linker_2, # of connection points: 2
#     Edge 13, Type (0, 0), BuildingBlock: XUDNAN_clean_linker_2, # of connection points: 2
#     Edge 14, Type (0, 0), BuildingBlock: XUDNAN_clean_linker_2, # of connection points: 2
#     Edge 15, Type (0, 0), BuildingBlock: XUDNAN_clean_linker_2, # of connection points: 2
#     Edge 16, Type (0, 0), BuildingBlock: XUDNAN_clean_linker_2, # of connection points: 2
#     Edge 17, Type (0, 0), BuildingBlock: XUDNAN_clean_linker_2, # of connection points: 2
#     Edge 18, Type (0, 0), BuildingBlock: XUDNAN_clean_linker_2, # of connection points: 2
#     Edge 19, Type (0, 0), BuildingBlock: XUDNAN_clean_linker_2, # of connection points: 2
#     Edge 20, Type (0, 0), BuildingBlock: XUDNAN_clean_linker_2, # of connection points: 2
#     Edge 21, Type (0, 0), BuildingBlock: XUDNAN_clean_linker_2, # of connection points: 2
#     Edge 22, Type (0, 0), BuildingBlock: XUDNAN_clean_linker_2, # of connection points: 2
#     Edge 23, Type (0, 0), BuildingBlock: XUDNAN_clean_linker_2, # of connection points: 2
#     Edge 24, Type (0, 0), BuildingBlock: XUDNAN_clean_linker_2, # of connection points: 2
#     Edge 25, Type (0, 0), BuildingBlock: XUDNAN_clean_linker_2, # of connection points: 2
#     Edge 26, Type (0, 0), BuildingBlock: XUDNAN_clean_linker_2, # of connection points: 2
#     Edge 27, Type (0, 0), BuildingBlock: XUDNAN_clean_linker_2, # of connection points: 2
# Relax obj value: 0.471
# Max RMSD: 0.266
# Mean RMSD: 0.266
data_MOF--net-yfh--node1-BEQFEK_clean_sbu_0--edge1-XUDNAN_clean_linker_2
_symmetry_space_group_name_H-M    P1
_symmetry_Int_Tables_number       1
_symmetry_cell_setting            triclinic
loop_
_symmetry_equiv_pos_as_xyz
'x, y, z'
_cell_length_a     29.30398
_cell_length_b     29.30689
_cell_length_c     57.712247
_cell_angle_alpha  89.941264
_cell_angle_beta   90.160516
_cell_angle_gamma 89.977374
loop_
_atom_site_label
_atom_site_type_symbol
_atom_site_fract_x
_atom_site_fract_y
_atom_site_fract_z
_atom_type_partial_charge
Co0 Co 0.2929 0.04014 0.06084 0.0
Co1 Co 0.35301 0.06556 0.10375 0.0
C2 C 0.27814 0.12602 0.0885 0.0
O3 O 0.27065 0.0994 0.0716 0.0
O4 O 0.30867 0.11706 0.10357 0.0
C5 C 0.20593 0.02128 0.04311 0.0
O6 O 0.19536 0.0276 0.06499 0.0
C7 C 0.38066 0.07437 0.15272 0.0
C8 C 0.45493 0.06309 0.14982 0.0
C9 C 0.42017 0.06859 0.16583 0.0
N10 N 0.39169 0.0711 0.13018 0.0
N11 N 0.43632 0.0658 0.12857 0.0
C12 C 0.3327 0.07871 0.16131 0.0
H13 H 0.30795 0.07189 0.14713 0.0
H14 H 0.32656 0.055 0.17597 0.0
H15 H 0.32729 0.11399 0.1677 0.0
C16 C 0.28287 0.95438 0.08624 0.0
N17 N 0.29756 0.9977 0.08502 0.0
N18 N 0.32289 0.00715 0.1033 0.0
C19 C 0.32475 0.96957 0.1169 0.0
C20 C 0.2989 0.93527 0.1066 0.0
C21 C 0.25957 0.9298 0.06676 0.0
H22 H 0.2718 0.94291 0.04987 0.0
H23 H 0.22223 0.93547 0.06796 0.0
H24 H 0.26611 0.89254 0.06753 0.0
O25 O 0.35261 0.04737 0.04647 0.0
O26 O 0.3946 0.07023 0.07641 0.0
H27 H 0.38655 0.97918 0.13629 0.0
H28 H 0.35302 0.93087 0.14575 0.0
C29 C 0.35145 0.96619 0.13899 0.0
H30 H 0.33464 0.98727 0.15234 0.0
H31 H 0.45374 0.06129 0.11301 0.0
O32 O 0.24771 0.02195 0.03729 0.0
C33 C 0.39044 0.06061 0.05498 0.0
Co34 Co 0.42911 0.78076 0.3085 0.0
Co35 Co 0.41821 0.84239 0.35227 0.0
C36 C 0.34105 0.78708 0.33597 0.0
O37 O 0.36554 0.77412 0.31907 0.0
O38 O 0.35706 0.8131 0.35165 0.0
C39 C 0.42814 0.69155 0.29311 0.0
O40 O 0.41803 0.68618 0.31512 0.0
C41 C 0.41009 0.87291 0.40089 0.0
C42 C 0.46071 0.92869 0.40099 0.0
C43 C 0.43289 0.90321 0.41549 0.0
N44 N 0.4254 0.87925 0.37916 0.0
N45 N 0.45467 0.91346 0.37927 0.0
C46 C 0.37398 0.83894 0.40711 0.0
H47 H 0.34805 0.83717 0.39316 0.0
H48 H 0.38954 0.80462 0.40899 0.0
H49 H 0.35664 0.84854 0.42347 0.0
C50 C 0.50854 0.74734 0.33464 0.0
N51 N 0.47121 0.77376 0.33279 0.0
N52 N 0.46625 0.79782 0.35184 0.0
C53 C 0.5 0.78621 0.36679 0.0
C54 C 0.52759 0.7536 0.35636 0.0
C55 C 0.52857 0.72037 0.31511 0.0
H56 H 0.51975 0.73621 0.29823 0.0
H57 H 0.51491 0.6851 0.31559 0.0
H58 H 0.56628 0.71842 0.31672 0.0
O59 O 0.43626 0.8408 0.29436 0.0
O60 O 0.42312 0.88491 0.32499 0.0
H61 H 0.51468 0.84147 0.38973 0.0
H62 H 0.53155 0.7863 0.4008 0.0
C63 C 0.50513 0.80493 0.39076 0.0
H64 H 0.4722 0.80216 0.4 0.0
H65 H 0.47247 0.92467 0.36471 0.0
O66 O 0.43647 0.73148 0.2856 0.0
C67 C 0.43129 0.88007 0.30342 0.0
Co68 Co 0.69342 0.94686 0.56447 0.0
Co69 Co 0.6294 0.93725 0.6072 0.0
C70 C 0.70332 0.87091 0.59978 0.0
O71 O 0.71376 0.88991 0.58067 0.0
O72 O 0.67171 0.8864 0.61258 0.0
C73 C 0.78148 0.95718 0.54581 0.0
O74 O 0.79292 0.95502 0.56782 0.0
C75 C 0.58966 0.92595 0.65384 0.0
C76 C 0.53734 0.9801 0.65287 0.0
C77 C 0.55836 0.94918 0.66771 0.0
N78 N 0.58843 0.94426 0.63246 0.0
N79 N 0.55595 0.9754 0.6318 0.0
C80 C 0.61825 0.88533 0.65993 0.0
H81 H 0.62135 0.86252 0.64473 0.0
H82 H 0.65296 0.89672 0.66505 0.0
H83 H 0.60253 0.86536 0.67416 0.0
C84 C 0.70687 0.03935 0.58441 0.0
N85 N 0.68926 0.99687 0.58492 0.0
N86 N 0.66391 0.99218 0.60355 0.0
C87 C 0.66652 0.03087 0.61611 0.0
C88 C 0.69312 0.06237 0.60422 0.0
C89 C 0.73258 0.05872 0.56431 0.0
H90 H 0.72133 0.04236 0.54795 0.0
H91 H 0.76954 0.05201 0.56677 0.0
H92 H 0.72741 0.09614 0.56296 0.0
O93 O 0.63424 0.93778 0.54931 0.0
O94 O 0.58973 0.92512 0.57977 0.0
H95 H 0.61092 0.04808 0.63835 0.0
H96 H 0.66612 0.06262 0.64985 0.0
C97 C 0.64686 0.03662 0.63984 0.0
H98 H 0.64801 0.00383 0.64939 0.0
H99 H 0.5484 0.99532 0.6173 0.0
O100 O 0.73946 0.95724 0.54035 0.0
C101 C 0.59563 0.92815 0.558 0.0
Co102 Co 0.55281 0.20856 0.81863 0.0
Co103 Co 0.57736 0.14135 0.85872 0.0
C104 C 0.64546 0.20641 0.8408 0.0
O105 O 0.61771 0.21909 0.82519 0.0
O106 O 0.63385 0.17778 0.85623 0.0
C107 C 0.55032 0.29811 0.804 0.0
O108 O 0.56823 0.3021 0.8248 0.0
C109 C 0.58839 0.11361 0.90703 0.0
C110 C 0.58204 0.03876 0.90435 0.0
C111 C 0.58568 0.07407 0.92026 0.0
N112 N 0.58523 0.10207 0.88457 0.0
N113 N 0.58293 0.05719 0.88303 0.0
C114 C 0.58959 0.16192 0.91542 0.0
H115 H 0.58288 0.18606 0.90098 0.0
H116 H 0.56435 0.16719 0.92946 0.0
H117 H 0.62394 0.16919 0.92266 0.0
C118 C 0.47715 0.23128 0.85015 0.0
N119 N 0.51654 0.20943 0.84568 0.0
N120 N 0.52402 0.17846 0.86181 0.0
C121 C 0.48838 0.17845 0.87661 0.0
C122 C 0.45793 0.21226 0.86987 0.0
C123 C 0.45855 0.26948 0.83562 0.0
H124 H 0.48302 0.29817 0.83584 0.0
H125 H 0.42579 0.28306 0.84213 0.0
H126 H 0.45438 0.25782 0.81746 0.0
O127 O 0.54604 0.1487 0.80317 0.0
O128 O 0.57068 0.10224 0.83111 0.0
H129 H 0.44228 0.13568 0.89597 0.0
H130 H 0.49192 0.15394 0.9115 0.0
C131 C 0.47945 0.14225 0.89437 0.0
H132 H 0.49676 0.11001 0.88965 0.0
H133 H 0.57929 0.03936 0.86751 0.0
O134 O 0.53722 0.25895 0.79722 0.0
C135 C 0.55636 0.10896 0.81054 0.0
Co136 Co 0.79282 0.45357 0.67559 0.0
Co137 Co 0.87142 0.43952 0.64016 0.0
C138 C 0.79759 0.37069 0.64489 0.0
O139 O 0.77979 0.39482 0.66073 0.0
O140 O 0.83405 0.38324 0.63478 0.0
C141 C 0.69957 0.45578 0.68711 0.0
O142 O 0.69574 0.43962 0.66597 0.0
C143 C 0.91434 0.43572 0.59502 0.0
C144 C 0.98474 0.4581 0.60276 0.0
C145 C 0.95568 0.44614 0.58482 0.0
N146 N 0.9187 0.44107 0.61796 0.0
N147 N 0.96114 0.4534 0.6226 0.0
C148 C 0.86984 0.42706 0.58301 0.0
H149 H 0.84085 0.43228 0.59506 0.0
H150 H 0.86604 0.44993 0.56778 0.0
H151 H 0.86926 0.39133 0.57668 0.0
C152 C 0.78508 0.54148 0.65178 0.0
N153 N 0.80243 0.49917 0.65327 0.0
N154 N 0.83606 0.49464 0.63838 0.0
C155 C 0.84145 0.53472 0.62704 0.0
C156 C 0.80931 0.56563 0.63524 0.0
C157 C 0.74807 0.55924 0.66718 0.0
H158 H 0.71718 0.53791 0.66495 0.0
H159 H 0.73891 0.59507 0.66307 0.0
H160 H 0.75913 0.55668 0.68554 0.0
O161 O 0.84694 0.44915 0.69612 0.0
O162 O 0.90208 0.43682 0.6706 0.0
H163 H 0.8815 0.58205 0.6066 0.0
H164 H 0.87637 0.52525 0.59497 0.0
C165 C 0.88029 0.54527 0.61113 0.0
H166 H 0.91293 0.53532 0.61947 0.0
H167 H 0.97323 0.4611 0.63916 0.0
O168 O 0.73873 0.46694 0.69474 0.0
C169 C 0.8888 0.44208 0.6914 0.0
Co170 Co 0.05448 0.28231 0.91934 0.0
Co171 Co 0.06999 0.37048 0.89015 0.0
C172 C 0.14708 0.31032 0.90372 0.0
O173 O 0.12081 0.28569 0.91583 0.0
O174 O 0.1321 0.34331 0.89157 0.0
C175 C 0.06607 0.18881 0.92715 0.0
O176 O 0.09345 0.19415 0.90936 0.0
C177 C 0.07847 0.41507 0.84581 0.0
C178 C 0.05136 0.48387 0.85293 0.0
C179 C 0.06495 0.4552 0.83512 0.0
N180 N 0.07228 0.4195 0.86871 0.0
N181 N 0.05762 0.46127 0.87301 0.0
C182 C 0.08973 0.37076 0.83424 0.0
H183 H 0.09335 0.34292 0.84715 0.0
H184 H 0.06287 0.36178 0.82144 0.0
H185 H 0.12229 0.37447 0.82465 0.0
C186 C 0.98778 0.26386 0.8828 0.0
N187 N 0.02335 0.288 0.89092 0.0
N188 N 0.02516 0.32754 0.88016 0.0
C189 C 0.98907 0.33076 0.86563 0.0
C190 C 0.96441 0.29035 0.86674 0.0
C191 C 0.97464 0.21763 0.89163 0.0
H192 H 0.96218 0.22059 0.9097 0.0
H193 H 0.00497 0.19511 0.8916 0.0
H194 H 0.94795 0.20159 0.88068 0.0
O195 O 0.03383 0.33151 0.94021 0.0
O196 O 0.05169 0.39467 0.92072 0.0
H197 H 0.93518 0.37552 0.8536 0.0
H198 H 0.98682 0.37741 0.83708 0.0
C199 C 0.97295 0.3745 0.85486 0.0
H200 H 0.98439 0.40409 0.86526 0.0
H201 H 0.04813 0.47293 0.88937 0.0
O202 O 0.04273 0.22266 0.93411 0.0
C203 C 0.03608 0.37485 0.93869 0.0
Co204 Co 0.19517 0.5371 0.16183 0.0
Co205 Co 0.11316 0.56103 0.12929 0.0
C206 C 0.19245 0.62404 0.13501 0.0
O207 O 0.21042 0.59689 0.14948 0.0
O208 O 0.15449 0.61492 0.12527 0.0
C209 C 0.28837 0.53076 0.17326 0.0
O210 O 0.29239 0.55032 0.15288 0.0
C211 C 0.06563 0.56124 0.08475 0.0
C212 C 0.99363 0.56413 0.09587 0.0
C213 C 0.02102 0.55834 0.07653 0.0
N214 N 0.06427 0.56705 0.10781 0.0
N215 N 0.02119 0.57026 0.11426 0.0
C216 C 0.10904 0.55394 0.0716 0.0
H217 H 0.1384 0.55007 0.08362 0.0
H218 H 0.1064 0.52355 0.06024 0.0
H219 H 0.11537 0.58404 0.06039 0.0
C220 C 0.19746 0.45457 0.1335 0.0
N221 N 0.18102 0.49645 0.13781 0.0
N222 N 0.14354 0.50324 0.12566 0.0
C223 C 0.13333 0.46421 0.11429 0.0
C224 C 0.16746 0.43233 0.11872 0.0
C225 C 0.24144 0.4369 0.14331 0.0
H226 H 0.26768 0.46394 0.14246 0.0
H227 H 0.25434 0.40703 0.13353 0.0
H228 H 0.23643 0.42737 0.16174 0.0
O229 O 0.14252 0.54124 0.18334 0.0
O230 O 0.08554 0.5618 0.16014 0.0
H231 H 0.07825 0.41837 0.10594 0.0
H232 H 0.09096 0.45976 0.0841 0.0
C233 C 0.08825 0.45446 0.10304 0.0
H234 H 0.06134 0.47698 0.11011 0.0
H235 H 0.01055 0.57358 0.13139 0.0
O236 O 0.24914 0.51803 0.18003 0.0
C237 C 0.10079 0.55189 0.18016 0.0
Co238 Co 0.92361 0.68577 0.41566 0.0
Co239 Co 0.92328 0.60036 0.38355 0.0
C240 C 0.83885 0.6561 0.39146 0.0
O241 O 0.85961 0.68385 0.40468 0.0
O242 O 0.85956 0.62267 0.3822 0.0
C243 C 0.90801 0.77784 0.42768 0.0
O244 O 0.88211 0.77627 0.40908 0.0
C245 C 0.92231 0.5606 0.33805 0.0
C246 C 0.9538 0.49303 0.34374 0.0
C247 C 0.93832 0.5224 0.32657 0.0
N248 N 0.92849 0.55433 0.36083 0.0
N249 N 0.94605 0.51334 0.36427 0.0
C250 C 0.90796 0.60513 0.32754 0.0
H251 H 0.8738 0.60104 0.31946 0.0
H252 H 0.90604 0.63224 0.3409 0.0
H253 H 0.93216 0.61547 0.31374 0.0
C254 C 0.00056 0.71174 0.38537 0.0
N255 N 0.96545 0.68417 0.39085 0.0
N256 N 0.96747 0.64697 0.37816 0.0
C257 C 0.00506 0.64899 0.36473 0.0
C258 C 0.02701 0.6903 0.36869 0.0
C259 C 0.0086 0.75744 0.39619 0.0
H260 H 0.97665 0.77759 0.3955 0.0
H261 H 0.03559 0.77693 0.3871 0.0
H262 H 0.01825 0.75284 0.41465 0.0
O263 O 0.93565 0.63337 0.437 0.0
O264 O 0.93448 0.57287 0.41381 0.0
H265 H 0.06132 0.61168 0.34958 0.0
H266 H 0.00869 0.60955 0.3336 0.0
C267 C 0.02368 0.60949 0.35125 0.0
H268 H 0.01509 0.57694 0.35995 0.0
H269 H 0.95567 0.50062 0.38044 0.0
O270 O 0.93065 0.74269 0.43357 0.0
C271 C 0.93891 0.59039 0.43382 0.0
H272 H 0.21784 0.02342 -0.0037 0.0
H273 H 0.11365 0.02822 0.04944 0.0
H274 H 0.05771 0.05452 0.02049 0.0
H275 H 0.1962 0.12168 0.97353 0.0
H276 H 0.20579 0.10831 0.94345 0.0
H277 H 0.23293 0.07491 0.96551 0.0
H278 H 0.19711 0.00122 0.94871 0.0
H279 H 0.17004 0.03451 0.92624 0.0
H280 H 0.13622 0.99785 0.94449 0.0
H281 H 0.02121 0.10114 0.99022 0.0
H282 H 0.00672 0.16055 0.9608 0.0
H283 H 0.13315 0.12492 0.92648 0.0
C284 C 0.1827 0.02785 0.0016 0.0
C285 C 0.17013 0.024 0.0251 0.0
C286 C 0.12407 0.0309 0.0315 0.0
C287 C 0.09193 0.04567 0.01511 0.0
C288 C 0.10624 0.05258 0.99235 0.0
C289 C 0.15041 0.04291 0.98545 0.0
C290 C 0.15963 0.06079 0.96129 0.0
C291 C 0.20101 0.09336 0.96097 0.0
C292 C 0.16611 0.02122 0.94417 0.0
C293 C 0.11539 0.08581 0.95662 0.0
C294 C 0.08444 0.0795 0.9744 0.0
C295 C 0.04437 0.10507 0.97578 0.0
C296 C 0.03653 0.13897 0.95909 0.0
C297 C 0.06872 0.14703 0.94134 0.0
C298 C 0.10745 0.11869 0.93955 0.0
H299 H 0.35563 0.59395 0.1737 0.0
H300 H 0.30184 0.47893 0.21208 0.0
H301 H 0.35076 0.49917 0.24538 0.0
H302 H 0.47446 0.59954 0.20331 0.0
H303 H 0.47175 0.66098 0.20301 0.0
H304 H 0.4463 0.62865 0.17974 0.0
H305 H 0.36939 0.66977 0.18688 0.0
H306 H 0.39411 0.70155 0.21024 0.0
H307 H 0.34396 0.66739 0.21528 0.0
H308 H 0.38835 0.54151 0.27682 0.0
H309 H 0.40964 0.6027 0.30394 0.0
H310 H 0.43632 0.69304 0.24595 0.0
C311 C 0.35614 0.57158 0.18864 0.0
C312 C 0.32559 0.53456 0.19031 0.0
C313 C 0.32551 0.50713 0.21046 0.0
C314 C 0.35335 0.5183 0.22939 0.0
C315 C 0.38093 0.55698 0.22784 0.0
C316 C 0.38287 0.58303 0.20784 0.0
C317 C 0.40734 0.62781 0.21203 0.0
C318 C 0.45267 0.62931 0.19874 0.0
C319 C 0.37686 0.66899 0.20576 0.0
C320 C 0.41551 0.62451 0.23786 0.0
C321 C 0.40163 0.58272 0.24649 0.0
C322 C 0.40049 0.57386 0.27021 0.0
C323 C 0.41238 0.60898 0.2855 0.0
C324 C 0.42452 0.65264 0.27701 0.0
C325 C 0.42776 0.65981 0.2529 0.0
H326 H 0.84253 0.84346 0.42891 0.0
H327 H 0.96822 0.80034 0.46213 0.0
H328 H 0.95731 0.85879 0.49237 0.0
H329 H 0.84699 0.9693 0.44713 0.0
H330 H 0.78618 0.96944 0.45176 0.0
H331 H 0.81047 0.93444 0.42925 0.0
H332 H 0.7712 0.86323 0.44687 0.0
H333 H 0.74705 0.89776 0.46932 0.0
H334 H 0.78154 0.84896 0.47683 0.0
H335 H 0.92518 0.90856 0.52281 0.0
H336 H 0.87298 0.94161 0.55168 0.0
H337 H 0.76719 0.95174 0.49918 0.0
C338 C 0.86877 0.84771 0.44198 0.0
C339 C 0.90636 0.81776 0.44314 0.0
C340 C 0.93925 0.8232 0.46092 0.0
C341 C 0.93351 0.85655 0.47805 0.0
C342 C 0.89484 0.88425 0.47706 0.0
C343 C 0.86312 0.88035 0.45936 0.0
C344 C 0.82067 0.908 0.46436 0.0
C345 C 0.81582 0.94766 0.4471 0.0
C346 C 0.77764 0.87766 0.46436 0.0
C347 C 0.83203 0.9253 0.48838 0.0
C348 C 0.87558 0.9126 0.49508 0.0
C349 C 0.89148 0.91973 0.51758 0.0
C350 C 0.86152 0.93846 0.5339 0.0
C351 C 0.81598 0.94911 0.52767 0.0
C352 C 0.80196 0.94442 0.50438 0.0
H353 H 0.63263 0.39223 0.68625 0.0
H354 H 0.6833 0.50754 0.72547 0.0
H355 H 0.63049 0.4887 0.7573 0.0
H356 H 0.51052 0.38886 0.71198 0.0
H357 H 0.51234 0.32738 0.71229 0.0
H358 H 0.54097 0.35862 0.68965 0.0
H359 H 0.61641 0.31687 0.69969 0.0
H360 H 0.58835 0.28597 0.72233 0.0
H361 H 0.63826 0.31955 0.72891 0.0
H362 H 0.58894 0.44795 0.78768 0.0
H363 H 0.56552 0.38736 0.81468 0.0
H364 H 0.54348 0.2957 0.7568 0.0
C365 C 0.63069 0.41487 0.70103 0.0
C366 C 0.66128 0.4517 0.70337 0.0
C367 C 0.6596 0.47949 0.72334 0.0
C368 C 0.6295 0.46916 0.74141 0.0
C369 C 0.60152 0.43088 0.73922 0.0
C370 C 0.60163 0.40424 0.71942 0.0
C371 C 0.57603 0.35994 0.72317 0.0
C372 C 0.53236 0.35865 0.7084 0.0
C373 C 0.60661 0.31819 0.71826 0.0
C374 C 0.56483 0.36411 0.74866 0.0
C375 C 0.57821 0.40604 0.75735 0.0
C376 C 0.57716 0.41553 0.78099 0.0
C377 C 0.56403 0.38078 0.79622 0.0
C378 C 0.55268 0.33691 0.78777 0.0
C379 C 0.55107 0.32923 0.76366 0.0
H380 H 0.51853 0.02086 0.93698 0.0
H381 H 0.61906 0.12094 0.9583 0.0
H382 H 0.58429 0.12317 -0.00256 0.0
H383 H 0.42769 0.0718 0.96264 0.0
H384 H 0.39899 0.0199 0.97087 0.0
H385 H 0.4366 0.02012 0.94635 0.0
H386 H 0.48433 0.95459 0.9645 0.0
H387 H 0.44639 0.95357 0.98902 0.0
H388 H 0.50686 0.96088 -0.00658 0.0
H389 H 0.53243 0.11958 0.03301 0.0
H390 H 0.46846 0.11178 0.06081 0.0
H391 H 0.40216 0.01631 0.01423 0.0
C392 C 0.53435 0.04209 0.95009 0.0
C393 C 0.57145 0.07069 0.9447 0.0
C394 C 0.59035 0.09899 0.96211 0.0
C395 C 0.57101 0.10023 0.98438 0.0
C396 C 0.53309 0.07278 0.98881 0.0
C397 C 0.51527 0.04403 0.9721 0.0
C398 C 0.47171 0.02157 0.98001 0.0
C399 C 0.4314 0.03413 0.96402 0.0
C400 C 0.4777 0.96957 0.98186 0.0
C401 C 0.46685 0.04307 0.00358 0.0
C402 C 0.50285 0.07187 0.00867 0.0
C403 C 0.50436 0.09674 0.02927 0.0
C404 C 0.46793 0.09218 0.04491 0.0
C405 C 0.43031 0.06371 0.03954 0.0
C406 C 0.4303 0.03858 0.01875 0.0
H407 H 0.4755 0.88732 0.26232 0.0
H408 H 0.38921 0.963 0.30959 0.0
H409 H 0.38315 0.02558 0.28081 0.0
H410 H 0.53514 0.98784 0.23723 0.0
H411 H 0.53667 0.96195 0.20892 0.0
H412 H 0.53868 0.92666 0.2345 0.0
H413 H 0.46843 0.88131 0.21965 0.0
H414 H 0.46609 0.91648 0.19416 0.0
H415 H 0.41668 0.91159 0.21252 0.0
H416 H 0.37762 0.07419 0.24407 0.0
H417 H 0.37735 0.10575 0.20412 0.0
H418 H 0.46952 0.99823 0.18259 0.0
C419 C 0.45612 0.91749 0.26685 0.0
C420 C 0.43276 0.92038 0.2881 0.0
C421 C 0.40767 0.96034 0.29341 0.0
C422 C 0.404 0.99597 0.27717 0.0
C423 C 0.42642 0.99135 0.256 0.0
C424 C 0.45265 0.95336 0.25106 0.0
C425 C 0.47115 0.95488 0.22669 0.0
C426 C 0.52352 0.95804 0.22686 0.0
C427 C 0.45457 0.91364 0.21243 0.0
C428 C 0.44982 -0.00123 0.21829 0.0
C429 C 0.42429 0.01966 0.23536 0.0
C430 C 0.39824 0.05856 0.23072 0.0
C431 C 0.39799 0.07607 0.208 0.0
C432 C 0.42357 0.05452 0.19036 0.0
C433 C 0.45043 0.01607 0.19583 0.0
H434 H 0.46302 0.97307 0.44208 0.0
H435 H 0.41943 0.83188 0.44659 0.0
H436 H 0.44199 0.82983 0.48737 0.0
H437 H 0.56292 0.95311 0.46801 0.0
H438 H 0.56789 0.00675 0.48307 0.0
H439 H 0.53453 0.0033 0.45702 0.0
H440 H 0.46385 0.03479 0.47868 0.0
H441 H 0.49726 0.03894 0.50488 0.0
H442 H 0.44466 0.00708 0.50479 0.0
H443 H 0.48112 0.83832 0.52575 0.0
H444 H 0.53888 0.85458 0.55615 0.0
H445 H 0.5668 0.98538 0.52429 0.0
C446 C 0.45637 0.94228 0.45189 0.0
C447 C 0.43729 0.90344 0.44113 0.0
C448 C 0.43109 0.86319 0.45442 0.0
C449 C 0.44448 0.86145 0.47775 0.0
C450 C 0.46488 0.89986 0.4875 0.0
C451 C 0.47101 0.93952 0.47488 0.0
C452 C 0.50174 0.97276 0.48751 0.0
C453 C 0.54426 0.98461 0.47305 0.0
C454 C 0.47529 0.01595 0.49438 0.0
C455 C 0.51398 0.94462 0.50857 0.0
C456 C 0.49099 0.90342 0.50877 0.0
C457 C 0.49878 0.87074 0.52595 0.0
C458 C 0.53157 0.88012 0.54308 0.0
C459 C 0.55691 0.92107 0.5423 0.0
C460 C 0.54749 0.95391 0.52513 0.0
H461 H 0.49688 0.09664 0.77463 0.0
H462 H 0.61138 0.03422 0.81032 0.0
H463 H 0.61454 0.974 0.78052 0.0
H464 H 0.44561 0.98387 0.75325 0.0
H465 H 0.42778 0.01025 0.72649 0.0
H466 H 0.42887 0.04306 0.7529 0.0
H467 H 0.48119 0.10294 0.73326 0.0
H468 H 0.48019 0.07051 0.70692 0.0
H469 H 0.53403 0.08456 0.72031 0.0
H470 H 0.61825 0.93529 0.74269 0.0
H471 H 0.61832 0.91638 0.70181 0.0
H472 H 0.49314 0.99376 0.69218 0.0
C473 C 0.52173 0.06949 0.77644 0.0
C474 C 0.55403 0.06998 0.79458 0.0
C475 C 0.58621 0.03418 0.79654 0.0
C476 C 0.58812 -0.00023 0.77977 0.0
C477 C 0.55662 0.00091 0.76165 0.0
C478 C 0.52324 0.03418 0.7602 0.0
C479 C 0.49617 0.03004 0.73795 0.0
C480 C 0.44667 0.01595 0.74296 0.0
C481 C 0.49807 0.07463 0.72379 0.0
C482 C 0.52209 0.99183 0.72625 0.0
C483 C 0.55643 0.9751 0.74033 0.0
C484 C 0.59003 0.94609 0.73185 0.0
C485 C 0.58936 0.9349 0.70827 0.0
C486 C 0.5545 0.95166 0.69341 0.0
C487 C 0.51957 0.97906 0.703 0.0
H488 H 0.97959 0.4748 0.82043 0.0
H489 H 0.11485 0.44051 0.7958 0.0
H490 H 0.08476 0.43502 0.75566 0.0
H491 H 0.92181 0.39626 0.78545 0.0
H492 H 0.87252 0.43184 0.78055 0.0
H493 H 0.9056 0.43827 0.80667 0.0
H494 H 0.91777 0.52414 0.7977 0.0
H495 H 0.88408 0.51822 0.77173 0.0
H496 H 0.94118 0.54085 0.77011 0.0
H497 H 0.03851 0.4293 0.71882 0.0
H498 H 0.98054 0.42512 0.68781 0.0
H499 H 0.87512 0.46028 0.73749 0.0
C500 C 0.00311 0.4676 0.80644 0.0
C501 C 0.04961 0.45891 0.81092 0.0
C502 C 0.07919 0.44776 0.79247 0.0
C503 C 0.06238 0.4445 0.76974 0.0
C504 C 0.01593 0.4521 0.76597 0.0
C505 C 0.98678 0.46354 0.78383 0.0
C506 C 0.93786 0.46685 0.77561 0.0
C507 C 0.90769 0.43118 0.78779 0.0
C508 C 0.91914 0.51541 0.77898 0.0
C509 C 0.94394 0.4557 0.75025 0.0
C510 C 0.98918 0.44738 0.74501 0.0
C511 C 0.00301 0.43595 0.7227 0.0
C512 C 0.96977 0.43353 0.70523 0.0
C513 C 0.9232 0.44234 0.7102 0.0
C514 C 0.91033 0.45326 0.73309 0.0
H515 H 0.06681 0.45893 0.95191 0.0
H516 H 0.97004 0.35268 0.9698 0.0
H517 H 0.94562 0.39724 0.00384 0.0
H518 H 0.1045 0.47703 0.00776 0.0
H519 H 0.11232 0.53779 0.00508 0.0
H520 H 0.11613 0.5021 0.97985 0.0
H521 H 0.05346 0.55047 0.95962 0.0
H522 H 0.04939 0.58629 0.98492 0.0
H523 H -0.00083 0.55847 0.97366 0.0
H524 H 0.93775 0.44787 0.03769 0.0
H525 H 0.95279 0.49658 0.07149 0.0
H526 H 0.05533 0.57054 0.03245 0.0
C527 C 0.03965 0.44571 0.96269 0.0
C528 C 0.01993 0.40268 0.95821 0.0
C529 C 0.98548 0.38567 0.973 0.0
C530 C 0.97109 0.41091 0.9922 0.0
C531 C 0.99165 0.45296 -0.00362 0.0
C532 C 0.02543 0.47016 0.98217 0.0
C533 C 0.04625 0.5131 0.99226 0.0
C534 C 0.09783 0.50711 -0.00351 0.0
C535 C 0.03646 0.55454 0.97668 0.0
C536 C 0.02021 0.5162 0.01482 0.0
C537 C 0.98804 0.48187 0.01651 0.0
C538 C 0.96232 0.47532 0.03646 0.0
C539 C 0.97104 0.50333 0.05555 0.0
C540 C 0.00573 0.53694 0.05468 0.0
C541 C 0.02912 0.5447 0.03371 0.0
H542 H 0.11881 0.52709 0.22511 0.0
H543 H 0.00933 0.57123 0.17934 0.0
H544 H 0.95432 0.56283 0.21128 0.0
H545 H 0.0548 0.44277 0.25614 0.0
H546 H 0.08118 0.4552 0.28367 0.0
H547 H 0.11229 0.46456 0.25721 0.0
H548 H 0.12604 0.54908 0.26863 0.0
H549 H 0.09565 0.53973 0.29527 0.0
H550 H 0.07795 0.58465 0.27588 0.0
H551 H 0.9114 0.55108 0.24837 0.0
H552 H 0.8849 0.54079 0.28878 0.0
H553 H 0.02203 0.50299 0.30962 0.0
C554 C 0.08333 0.53517 0.22178 0.0
C555 C 0.06844 0.54975 0.1997 0.0
C556 C 0.02163 0.55998 0.19611 0.0
C557 C 0.99003 0.55514 0.2141 0.0
C558 C 0.00577 0.53996 0.23553 0.0
C559 C 0.05134 0.53045 0.23949 0.0
C560 C 0.05961 0.51573 0.26425 0.0
C561 C 0.07805 0.46665 0.26537 0.0
C562 C 0.0917 0.5493 0.27674 0.0
C563 C 0.01158 0.51855 0.2736 0.0
C564 C 0.98095 0.53251 0.25678 0.0
C565 C 0.93496 0.53981 0.26167 0.0
C566 C 0.92021 0.53386 0.28456 0.0
C567 C 0.95142 0.52071 0.30205 0.0
C568 C 0.99732 0.51197 0.29638 0.0
H569 H 0.96219 0.61416 0.4783 0.0
H570 H 0.9337 0.49726 0.43434 0.0
H571 H 0.94342 0.44606 0.46785 0.0
H572 H 0.0481 0.55733 0.51515 0.0
H573 H 0.02914 0.58637 0.54091 0.0
H574 H 0.02376 0.6137 0.51304 0.0
H575 H 0.93702 0.62486 0.51991 0.0
H576 H 0.9422 0.59779 0.54777 0.0
H577 H 0.90216 0.57601 0.52677 0.0
H578 H 0.94662 0.40869 0.50672 0.0
H579 H 0.94612 0.38798 0.54839 0.0
H580 H 0.97709 0.528 0.56643 0.0
C581 C 0.95854 0.57776 0.47565 0.0
C582 C 0.94713 0.55977 0.45371 0.0
C583 C 0.94256 0.5119 0.45098 0.0
C584 C 0.94812 0.48246 0.46989 0.0
C585 C 0.95888 0.50136 0.49132 0.0
C586 C 0.96444 0.54784 0.49427 0.0
C587 C 0.97376 0.55961 0.51934 0.0
C588 C 0.02154 0.58048 0.52227 0.0
C589 C 0.93657 0.59143 0.52901 0.0
C590 C 0.97123 0.51263 0.5301 0.0
C591 C 0.96273 0.47942 0.51364 0.0
C592 C 0.95444 0.43411 0.51972 0.0
C593 C 0.95422 0.42262 0.5433 0.0
C594 C 0.96274 0.45628 0.56025 0.0
C595 C 0.97215 0.50151 0.55358 0.0
H596 H 0.1558 0.70665 0.12207 0.0
H597 H 0.28378 0.63854 0.13781 0.0
H598 H 0.32495 0.71116 0.13322 0.0
H599 H 0.2005 0.78621 0.07936 0.0
H600 H 0.16485 0.83264 0.08887 0.0
H601 H 0.14564 0.77462 0.09215 0.0
H602 H 0.13405 0.78838 0.13613 0.0
H603 H 0.15375 0.84626 0.133 0.0
H604 H 0.18121 0.80857 0.15343 0.0
H605 H 0.3526 0.79052 0.1264 0.0
H606 H 0.3644 0.87244 0.11792 0.0
H607 H 0.21835 0.89032 0.10989 0.0
C608 C 0.19254 0.707 0.12417 0.0
C609 C 0.21667 0.66701 0.13013 0.0
C610 C 0.26465 0.66884 0.13321 0.0
C611 C 0.28837 0.7099 0.13066 0.0
C612 C 0.26357 0.74892 0.12524 0.0
C613 C 0.21676 0.74796 0.12204 0.0
C614 C 0.19828 0.7952 0.11708 0.0
C615 C 0.17602 0.79727 0.09293 0.0
C616 C 0.16485 0.81049 0.13604 0.0
C617 C 0.24202 0.82261 0.1179 0.0
C618 C 0.27931 0.79525 0.12251 0.0
C619 C 0.32362 0.81253 0.12314 0.0
C620 C 0.32998 0.85908 0.11861 0.0
C621 C 0.29216 0.88761 0.11396 0.0
C622 C 0.24771 0.86917 0.11381 0.0
H623 H 0.78792 0.73446 0.39525 0.0
H624 H 0.77822 0.59044 0.37836 0.0
H625 H 0.69544 0.59898 0.37187 0.0
H626 H 0.6769 0.74575 0.42383 0.0
H627 H 0.66573 0.80123 0.41155 0.0
H628 H 0.72364 0.78343 0.41707 0.0
H629 H 0.74445 0.79862 0.37416 0.0
H630 H 0.68682 0.81687 0.36857 0.0
H631 H 0.71156 0.77171 0.35154 0.0
H632 H 0.61511 0.62291 0.36592 0.0
H633 H 0.54292 0.66257 0.35683 0.0
H634 H 0.60452 0.79193 0.37548 0.0
C635 C 0.76823 0.70465 0.39044 0.0
C636 C 0.78938 0.6617 0.38744 0.0
C637 C 0.7627 0.62366 0.38072 0.0
C638 C 0.71563 0.62808 0.37718 0.0
C639 C 0.69582 0.67083 0.38027 0.0
C640 C 0.72123 0.70861 0.38649 0.0
C641 C 0.69205 0.75136 0.38674 0.0
C642 C 0.68944 0.77163 0.41126 0.0
C643 C 0.70978 0.78671 0.3692 0.0
C644 C 0.64647 0.73176 0.37927 0.0
C645 C 0.64935 0.68509 0.37608 0.0
C646 C 0.61234 0.65939 0.36843 0.0
C647 C 0.5716 0.68216 0.36328 0.0
C648 C 0.5684 0.7301 0.36552 0.0
C649 C 0.60598 0.75512 0.37405 0.0
H650 H 0.77308 0.11162 0.60216 0.0
H651 H 0.62942 0.12285 0.61926 0.0
H652 H 0.64083 0.20307 0.63059 0.0
H653 H 0.81613 0.18168 0.6476 0.0
H654 H 0.85963 0.20856 0.63029 0.0
H655 H 0.8404 0.15187 0.62326 0.0
H656 H 0.8206 0.17832 0.58158 0.0
H657 H 0.83985 0.23512 0.58847 0.0
H658 H 0.78295 0.22631 0.57741 0.0
H659 H 0.6677 0.27975 0.64178 0.0
H660 H 0.70791 0.35106 0.65086 0.0
H661 H 0.83404 0.29363 0.62433 0.0
C662 C 0.74402 0.13121 0.60806 0.0
C663 C 0.70047 0.11094 0.61017 0.0
C664 C 0.66327 0.13743 0.61807 0.0
C665 C 0.66932 0.18312 0.62433 0.0
C666 C 0.71268 0.202 0.62227 0.0
C667 C 0.74938 0.17719 0.61415 0.0
C668 C 0.79235 0.20609 0.61371 0.0
C669 C 0.8293 0.18584 0.62967 0.0
C670 C 0.80997 0.2118 0.58881 0.0
C671 C 0.77408 0.25077 0.62319 0.0
C672 C 0.72803 0.24737 0.62802 0.0
C673 C 0.70364 0.28308 0.63785 0.0
C674 C 0.7269 0.32343 0.64301 0.0
C675 C 0.77408 0.32805 0.63819 0.0
C676 C 0.79786 0.2913 0.62791 0.0
H677 H 0.37636 0.22014 0.84737 0.0
H678 H 0.43881 0.2277 0.91542 0.0
H679 H 0.36485 0.25226 0.93204 0.0
H680 H 0.31345 0.3226 0.85284 0.0
H681 H 0.26484 0.30244 0.83661 0.0
H682 H 0.32076 0.27983 0.83073 0.0
H683 H 0.29128 0.19767 0.83803 0.0
H684 H 0.23511 0.21994 0.84368 0.0
H685 H 0.2631 0.1845 0.86494 0.0
H686 H 0.28423 0.27732 0.94072 0.0
H687 H 0.20363 0.30315 0.94076 0.0
H688 H 0.19805 0.28883 0.86611 0.0
C689 C 0.37446 0.22718 0.86576 0.0
C690 C 0.41315 0.22287 0.88013 0.0
C691 C 0.40929 0.23093 0.9042 0.0
C692 C 0.36761 0.24504 0.91371 0.0
C693 C 0.33054 0.25108 0.89881 0.0
C694 C 0.33366 0.2425 0.87534 0.0
C695 C 0.28987 0.25429 0.86278 0.0
C696 C 0.29772 0.29204 0.84468 0.0
C697 C 0.26858 0.21155 0.85171 0.0
C698 C 0.2616 0.27131 0.88283 0.0
C699 C 0.28535 0.26842 0.90354 0.0
C700 C 0.26548 0.28021 0.9246 0.0
C701 C 0.21998 0.29494 0.92447 0.0
C702 C 0.1956 0.29879 0.90339 0.0
C703 C 0.21669 0.28723 0.88233 0.0
H704 H 0.78838 0.61334 0.59573 0.0
H705 H 0.82601 0.62947 0.6679 0.0
H706 H 0.81042 0.71211 0.66534 0.0
H707 H 0.8341 0.72808 0.57597 0.0
H708 H 0.78771 0.73559 0.55574 0.0
H709 H 0.80855 0.67909 0.56224 0.0
H710 H 0.72682 0.65445 0.57372 0.0
H711 H 0.70583 0.71087 0.5676 0.0
H712 H 0.69685 0.68593 0.59578 0.0
H713 H 0.77712 0.78792 0.65737 0.0
H714 H 0.73692 0.85641 0.64287 0.0
H715 H 0.72579 0.7947 0.57487 0.0
C716 C 0.79475 0.63478 0.61067 0.0
C717 C 0.8082 0.61553 0.63203 0.0
C718 C 0.81561 0.64399 0.65144 0.0
C719 C 0.80692 0.69083 0.65012 0.0
C720 C 0.79172 0.70871 0.62912 0.0
C721 C 0.78664 0.68192 0.60956 0.0
C722 C 0.76687 0.70942 0.58963 0.0
C723 C 0.80138 0.71328 0.56971 0.0
C724 C 0.7214 0.68894 0.5812 0.0
C725 C 0.75971 0.75511 0.6014 0.0
C726 C 0.77438 0.75383 0.62418 0.0
C727 C 0.76677 0.78993 0.63939 0.0
C728 C 0.7437 0.82848 0.63108 0.0
C729 C 0.72918 0.83085 0.60774 0.0
C730 C 0.73778 0.79399 0.59263 0.0
H731 H 0.70669 0.20959 0.87662 0.0
H732 H 0.69005 0.24367 0.80386 0.0
H733 H 0.76976 0.2708 0.8025 0.0
H734 H 0.77731 0.30779 0.89085 0.0
H735 H 0.81178 0.27622 0.91123 0.0
H736 H 0.75318 0.26021 0.9064 0.0
H737 H 0.77899 0.17795 0.89629 0.0
H738 H 0.83766 0.1938 0.90091 0.0
H739 H 0.82034 0.16933 0.87364 0.0
H740 H 0.85306 0.28975 0.80862 0.0
H741 H 0.93211 0.30294 0.82266 0.0
H742 H 0.89102 0.26226 0.89178 0.0
C743 C 0.71979 0.22288 0.86043 0.0
C744 C 0.6924 0.22433 0.84034 0.0
C745 C 0.71054 0.24236 0.8195 0.0
C746 C 0.75574 0.25776 0.81852 0.0
C747 C 0.782 0.25552 0.83862 0.0
C748 C 0.7645 0.23908 0.85925 0.0
C749 C 0.79962 0.24067 0.87842 0.0
C750 C 0.78457 0.27317 0.89787 0.0
C751 C 0.80974 0.19258 0.88786 0.0
C752 C 0.83983 0.25963 0.86524 0.0
C753 C 0.82921 0.26785 0.84229 0.0
C754 C 0.8617 0.28375 0.82661 0.0
C755 C 0.90633 0.29112 0.83467 0.0
C756 C 0.91761 0.28272 0.85813 0.0
C757 C 0.88364 0.26771 0.8736 0.0
H758 H 0.19034 0.35748 0.14453 0.0
H759 H 0.15141 0.39948 0.07517 0.0
H760 H 0.16635 0.32132 0.06097 0.0
H761 H 0.28601 0.29837 0.12685 0.0
H762 H 0.28241 0.25402 0.14844 0.0
H763 H 0.25882 0.30949 0.15425 0.0
H764 H 0.18007 0.27314 0.16289 0.0
H765 H 0.2035 0.21736 0.1573 0.0
H766 H 0.15377 0.23654 0.14162 0.0
H767 H 0.19352 0.24189 0.05365 0.0
H768 H 0.23371 0.16814 0.05295 0.0
H769 H 0.26377 0.18107 0.12638 0.0
C770 C 0.18457 0.35012 0.12638 0.0
C771 C 0.17007 0.38444 0.11086 0.0
C772 C 0.16205 0.37343 0.08736 0.0
C773 C 0.1706 0.32922 0.07916 0.0
C774 C 0.18728 0.29677 0.09472 0.0
C775 C 0.19426 0.30671 0.11785 0.0
C776 C 0.21796 0.26789 0.13036 0.0
C777 C 0.26402 0.28338 0.14056 0.0
C778 C 0.18696 0.24752 0.14915 0.0
C779 C 0.22446 0.23497 0.11049 0.0
C780 C 0.20547 0.25182 0.09024 0.0
C781 C 0.20816 0.22817 0.06942 0.0
C782 C 0.23114 0.18633 0.06923 0.0
C783 C 0.25197 0.16898 0.08963 0.0
C784 C 0.24826 0.19356 0.11054 0.0
H785 H 0.28338 0.78303 0.3736 0.0
H786 H 0.2899 0.75755 0.29956 0.0
H787 H 0.20975 0.73245 0.29979 0.0
H788 H 0.2151 0.68482 0.38688 0.0
H789 H 0.18259 0.71295 0.40917 0.0
H790 H 0.24004 0.73109 0.40312 0.0
H791 H 0.2112 0.81362 0.39624 0.0
H792 H 0.15359 0.79566 0.40217 0.0
H793 H 0.1667 0.8238 0.37522 0.0
H794 H 0.12911 0.7104 0.30771 0.0
H795 H 0.05373 0.68898 0.32356 0.0
H796 H 0.10065 0.72385 0.39265 0.0
C797 C 0.26779 0.77249 0.35744 0.0
C798 C 0.29282 0.77244 0.33656 0.0
C799 C 0.27143 0.75777 0.3158 0.0
C800 C 0.22585 0.74361 0.3157 0.0
C801 C 0.20216 0.74389 0.33654 0.0
C802 C 0.22237 0.75756 0.35707 0.0
C803 C 0.18965 0.75264 0.3772 0.0
C804 C 0.20794 0.71833 0.39515 0.0
C805 C 0.17971 0.79921 0.38836 0.0
C806 C 0.14803 0.7342 0.36471 0.0
C807 C 0.15588 0.7298 0.34124 0.0
C808 C 0.12253 0.7136 0.32608 0.0
C809 C 0.07998 0.70142 0.3352 0.0
C810 C 0.07143 0.70514 0.35923 0.0
C811 C 0.10599 0.72159 0.37413 0.0
loop_
_geom_bond_atom_site_label_1
_geom_bond_atom_site_label_2
_geom_bond_distance
_geom_bond_site_symmetry_2
_ccdc_geom_bond_type
Co0 O3 1.970 . S
Co0 N17 1.989 . S
Co0 O25 1.967 . S
Co0 O32 1.920 . S
Co1 O4 1.966 . S
Co1 N10 2.022 . S
Co1 N18 1.993 . S
Co1 O26 1.941 . S
C2 O3 1.258 . S
C2 O4 1.263 . S
O3 Co0 1.970 . S
O3 C2 1.258 . S
O4 Co1 1.966 . S
O4 C2 1.263 . S
C5 O6 1.235 . S
C5 O32 1.289 . S
O6 C5 1.235 . S
C7 C9 1.400 . S
C7 N10 1.351 . S
C7 C12 1.501 . S
C8 C9 1.387 1_565 S
C8 N11 1.341 . S
C9 C7 1.400 . S
C9 C8 1.387 1_545 S
N10 Co1 2.022 . S
N10 C7 1.351 . S
N10 N11 1.365 1_545 S
N11 C8 1.341 . S
N11 N10 1.365 1_565 S
N11 H31 0.862 . S
C12 C7 1.501 . S
C12 H13 0.961 . S
C12 H14 0.961 . S
C12 H15 0.960 . S
H13 C12 0.961 . S
H14 C12 0.961 . S
H15 C12 0.960 . S
C16 N17 1.342 1_565 S
C16 C20 1.401 . S
C16 C21 1.499 . S
N17 Co0 1.989 . S
N17 C16 1.342 1_545 S
N17 N18 1.388 . S
N18 Co1 1.993 . S
N18 N17 1.388 . S
N18 C19 1.346 1_545 S
C19 N18 1.346 1_565 S
C19 C20 1.396 . S
C19 C29 1.510 . S
C20 C16 1.401 . S
C20 C19 1.396 . S
C21 C16 1.499 . S
C21 H22 0.959 1_565 S
C21 H23 0.960 . S
C21 H24 0.961 . S
H22 C21 0.959 1_545 S
H23 C21 0.960 . S
H24 C21 0.961 . S
O25 Co0 1.967 . S
O25 C33 1.258 . S
O26 Co1 1.941 . S
O26 C33 1.266 . S
H27 C29 0.959 . S
H28 C29 0.961 . S
C29 C19 1.510 . S
C29 H27 0.959 . S
C29 H28 0.961 . S
C29 H30 0.960 . S
H30 C29 0.960 . S
H31 N11 0.862 . S
O32 Co0 1.920 . S
O32 C5 1.289 . S
C33 O25 1.258 . S
C33 O26 1.266 . S
Co34 O37 1.970 . S
Co34 N51 1.989 . S
Co34 O59 1.967 . S
Co34 O66 1.920 . S
Co35 O38 1.966 . S
Co35 N44 2.022 . S
Co35 N52 1.993 . S
Co35 O60 1.941 . S
C36 O37 1.258 . S
C36 O38 1.263 . S
O37 Co34 1.970 . S
O37 C36 1.258 . S
O38 Co35 1.966 . S
O38 C36 1.263 . S
C39 O40 1.235 . S
C39 O66 1.289 . S
O40 C39 1.235 . S
C41 C43 1.400 . S
C41 N44 1.351 . S
C41 C46 1.501 . S
C42 C43 1.387 . S
C42 N45 1.341 . S
C43 C41 1.400 . S
C43 C42 1.387 . S
N44 Co35 2.022 . S
N44 C41 1.351 . S
N44 N45 1.365 . S
N45 C42 1.341 . S
N45 N44 1.365 . S
N45 H65 0.862 . S
C46 C41 1.501 . S
C46 H47 0.961 . S
C46 H48 0.961 . S
C46 H49 0.960 . S
H47 C46 0.961 . S
H48 C46 0.961 . S
H49 C46 0.960 . S
C50 N51 1.342 . S
C50 C54 1.401 . S
C50 C55 1.499 . S
N51 Co34 1.989 . S
N51 C50 1.342 . S
N51 N52 1.388 . S
N52 Co35 1.993 . S
N52 N51 1.388 . S
N52 C53 1.346 . S
C53 N52 1.346 . S
C53 C54 1.396 . S
C53 C63 1.510 . S
C54 C50 1.401 . S
C54 C53 1.396 . S
C55 C50 1.499 . S
C55 H56 0.959 . S
C55 H57 0.960 . S
C55 H58 0.961 . S
H56 C55 0.959 . S
H57 C55 0.960 . S
H58 C55 0.961 . S
O59 Co34 1.967 . S
O59 C67 1.258 . S
O60 Co35 1.941 . S
O60 C67 1.266 . S
H61 C63 0.959 . S
H62 C63 0.961 . S
C63 C53 1.510 . S
C63 H61 0.959 . S
C63 H62 0.961 . S
C63 H64 0.960 . S
H64 C63 0.960 . S
H65 N45 0.862 . S
O66 Co34 1.920 . S
O66 C39 1.289 . S
C67 O59 1.258 . S
C67 O60 1.266 . S
Co68 O71 1.970 . S
Co68 N85 1.989 . S
Co68 O93 1.967 . S
Co68 O100 1.920 . S
Co69 O72 1.966 . S
Co69 N78 2.022 . S
Co69 N86 1.993 . S
Co69 O94 1.941 . S
C70 O71 1.258 . S
C70 O72 1.263 . S
O71 Co68 1.970 . S
O71 C70 1.258 . S
O72 Co69 1.966 . S
O72 C70 1.263 . S
C73 O74 1.235 . S
C73 O100 1.289 . S
O74 C73 1.235 . S
C75 C77 1.400 . S
C75 N78 1.351 . S
C75 C80 1.501 . S
C76 C77 1.387 1_545 S
C76 N79 1.339 1_545 S
C77 C75 1.400 . S
C77 C76 1.387 1_565 S
N78 Co69 2.022 . S
N78 C75 1.351 . S
N78 N79 1.368 . S
N79 C76 1.339 1_565 S
N79 N78 1.368 . S
N79 H99 0.860 1_565 S
C80 C75 1.501 . S
C80 H81 0.961 . S
C80 H82 0.961 . S
C80 H83 0.960 . S
H81 C80 0.961 . S
H82 C80 0.961 . S
H83 C80 0.960 . S
C84 N85 1.342 1_545 S
C84 C88 1.401 . S
C84 C89 1.499 . S
N85 Co68 1.989 . S
N85 C84 1.342 1_565 S
N85 N86 1.388 . S
N86 Co69 1.993 . S
N86 N85 1.388 . S
N86 C87 1.346 1_565 S
C87 N86 1.346 1_545 S
C87 C88 1.396 . S
C87 C97 1.510 . S
C88 C84 1.401 . S
C88 C87 1.396 . S
C89 C84 1.499 . S
C89 H90 0.959 1_545 S
C89 H91 0.960 . S
C89 H92 0.961 . S
H90 C89 0.959 1_565 S
H91 C89 0.960 . S
H92 C89 0.961 . S
O93 Co68 1.967 . S
O93 C101 1.258 . S
O94 Co69 1.941 . S
O94 C101 1.266 . S
H95 C97 0.959 . S
H96 C97 0.961 . S
C97 C87 1.510 . S
C97 H95 0.959 . S
C97 H96 0.961 . S
C97 H98 0.960 . S
H98 C97 0.960 . S
H99 N79 0.860 1_545 S
O100 Co68 1.920 . S
O100 C73 1.289 . S
C101 O93 1.258 . S
C101 O94 1.266 . S
Co102 O105 1.970 . S
Co102 N119 1.989 . S
Co102 O127 1.967 . S
Co102 O134 1.920 . S
Co103 O106 1.966 . S
Co103 N112 2.022 . S
Co103 N120 1.993 . S
Co103 O128 1.941 . S
C104 O105 1.258 . S
C104 O106 1.263 . S
O105 Co102 1.970 . S
O105 C104 1.258 . S
O106 Co103 1.966 . S
O106 C104 1.263 . S
C107 O108 1.235 . S
C107 O134 1.289 . S
O108 C107 1.235 . S
C109 C111 1.400 . S
C109 N112 1.351 . S
C109 C114 1.501 . S
C110 C111 1.387 . S
C110 N113 1.341 . S
C111 C109 1.400 . S
C111 C110 1.387 . S
N112 Co103 2.022 . S
N112 C109 1.351 . S
N112 N113 1.365 . S
N113 C110 1.341 . S
N113 N112 1.365 . S
N113 H133 0.862 . S
C114 C109 1.501 . S
C114 H115 0.961 . S
C114 H116 0.961 . S
C114 H117 0.960 . S
H115 C114 0.961 . S
H116 C114 0.961 . S
H117 C114 0.960 . S
C118 N119 1.342 . S
C118 C122 1.401 . S
C118 C123 1.499 . S
N119 Co102 1.989 . S
N119 C118 1.342 . S
N119 N120 1.388 . S
N120 Co103 1.993 . S
N120 N119 1.388 . S
N120 C121 1.346 . S
C121 N120 1.346 . S
C121 C122 1.396 . S
C121 C131 1.510 . S
C122 C118 1.401 . S
C122 C121 1.396 . S
C123 C118 1.499 . S
C123 H124 0.959 . S
C123 H125 0.960 . S
C123 H126 0.961 . S
H124 C123 0.959 . S
H125 C123 0.960 . S
H126 C123 0.961 . S
O127 Co102 1.967 . S
O127 C135 1.258 . S
O128 Co103 1.941 . S
O128 C135 1.266 . S
H129 C131 0.959 . S
H130 C131 0.961 . S
C131 C121 1.510 . S
C131 H129 0.959 . S
C131 H130 0.961 . S
C131 H132 0.960 . S
H132 C131 0.960 . S
H133 N113 0.862 . S
O134 Co102 1.920 . S
O134 C107 1.289 . S
C135 O127 1.258 . S
C135 O128 1.266 . S
Co136 O139 1.970 . S
Co136 N153 1.989 . S
Co136 O161 1.967 . S
Co136 O168 1.920 . S
Co137 O140 1.966 . S
Co137 N146 2.022 . S
Co137 N154 1.993 . S
Co137 O162 1.941 . S
C138 O139 1.258 . S
C138 O140 1.263 . S
O139 Co136 1.970 . S
O139 C138 1.258 . S
O140 Co137 1.966 . S
O140 C138 1.263 . S
C141 O142 1.235 . S
C141 O168 1.289 . S
O142 C141 1.235 . S
C143 C145 1.400 . S
C143 N146 1.351 . S
C143 C148 1.501 . S
C144 C145 1.387 . S
C144 N147 1.341 . S
C145 C143 1.400 . S
C145 C144 1.387 . S
N146 Co137 2.022 . S
N146 C143 1.351 . S
N146 N147 1.365 . S
N147 C144 1.341 . S
N147 N146 1.365 . S
N147 H167 0.862 . S
C148 C143 1.501 . S
C148 H149 0.961 . S
C148 H150 0.961 . S
C148 H151 0.960 . S
H149 C148 0.961 . S
H150 C148 0.961 . S
H151 C148 0.960 . S
C152 N153 1.342 . S
C152 C156 1.401 . S
C152 C157 1.499 . S
N153 Co136 1.989 . S
N153 C152 1.342 . S
N153 N154 1.388 . S
N154 Co137 1.993 . S
N154 N153 1.388 . S
N154 C155 1.346 . S
C155 N154 1.346 . S
C155 C156 1.396 . S
C155 C165 1.510 . S
C156 C152 1.401 . S
C156 C155 1.396 . S
C157 C152 1.499 . S
C157 H158 0.959 . S
C157 H159 0.960 . S
C157 H160 0.961 . S
H158 C157 0.959 . S
H159 C157 0.960 . S
H160 C157 0.961 . S
O161 Co136 1.967 . S
O161 C169 1.258 . S
O162 Co137 1.941 . S
O162 C169 1.266 . S
H163 C165 0.959 . S
H164 C165 0.961 . S
C165 C155 1.510 . S
C165 H163 0.959 . S
C165 H164 0.961 . S
C165 H166 0.960 . S
H166 C165 0.960 . S
H167 N147 0.862 . S
O168 Co136 1.920 . S
O168 C141 1.289 . S
C169 O161 1.258 . S
C169 O162 1.266 . S
Co170 O173 1.970 . S
Co170 N187 1.989 . S
Co170 O195 1.967 . S
Co170 O202 1.920 . S
Co171 O174 1.966 . S
Co171 N180 2.022 . S
Co171 N188 1.993 . S
Co171 O196 1.941 . S
C172 O173 1.258 . S
C172 O174 1.263 . S
O173 Co170 1.970 . S
O173 C172 1.258 . S
O174 Co171 1.966 . S
O174 C172 1.263 . S
C175 O176 1.235 . S
C175 O202 1.289 . S
O176 C175 1.235 . S
C177 C179 1.400 . S
C177 N180 1.351 . S
C177 C182 1.501 . S
C178 C179 1.387 1_655 S
C178 N181 1.341 . S
C179 C177 1.400 . S
C179 C178 1.387 1_455 S
N180 Co171 2.022 . S
N180 C177 1.351 . S
N180 N181 1.365 1_455 S
N181 C178 1.341 . S
N181 N180 1.365 1_655 S
N181 H201 0.862 . S
C182 C177 1.501 . S
C182 H183 0.961 . S
C182 H184 0.961 . S
C182 H185 0.960 . S
H183 C182 0.961 . S
H184 C182 0.961 . S
H185 C182 0.960 . S
C186 N187 1.342 1_655 S
C186 C190 1.401 . S
C186 C191 1.499 . S
N187 Co170 1.989 . S
N187 C186 1.342 1_455 S
N187 N188 1.388 . S
N188 Co171 1.993 . S
N188 N187 1.388 . S
N188 C189 1.346 1_455 S
C189 N188 1.346 1_655 S
C189 C190 1.396 . S
C189 C199 1.510 . S
C190 C186 1.401 . S
C190 C189 1.396 . S
C191 C186 1.499 . S
C191 H192 0.959 1_655 S
C191 H193 0.960 . S
C191 H194 0.961 . S
H192 C191 0.959 1_455 S
H193 C191 0.960 . S
H194 C191 0.961 . S
O195 Co170 1.967 . S
O195 C203 1.258 . S
O196 Co171 1.941 . S
O196 C203 1.266 . S
H197 C199 0.959 . S
H198 C199 0.961 . S
C199 C189 1.510 . S
C199 H197 0.959 . S
C199 H198 0.961 . S
C199 H200 0.960 . S
H200 C199 0.960 . S
H201 N181 0.862 . S
O202 Co170 1.920 . S
O202 C175 1.289 . S
C203 O195 1.258 . S
C203 O196 1.266 . S
Co204 O207 1.970 . S
Co204 N221 1.989 . S
Co204 O229 1.967 . S
Co204 O236 1.920 . S
Co205 O208 1.966 . S
Co205 N214 2.022 . S
Co205 N222 1.993 . S
Co205 O230 1.941 . S
C206 O207 1.258 . S
C206 O208 1.263 . S
O207 Co204 1.970 . S
O207 C206 1.258 . S
O208 Co205 1.966 . S
O208 C206 1.263 . S
C209 O210 1.235 . S
C209 O236 1.289 . S
O210 C209 1.235 . S
C211 C213 1.400 . S
C211 N214 1.351 . S
C211 C216 1.501 . S
C212 C213 1.387 . S
C212 N215 1.341 . S
C213 C211 1.400 . S
C213 C212 1.387 . S
N214 Co205 2.022 . S
N214 C211 1.351 . S
N214 N215 1.365 . S
N215 C212 1.341 . S
N215 N214 1.365 . S
N215 H235 0.862 . S
C216 C211 1.501 . S
C216 H217 0.961 . S
C216 H218 0.961 . S
C216 H219 0.960 . S
H217 C216 0.961 . S
H218 C216 0.961 . S
H219 C216 0.960 . S
C220 N221 1.342 . S
C220 C224 1.401 . S
C220 C225 1.499 . S
N221 Co204 1.989 . S
N221 C220 1.342 . S
N221 N222 1.388 . S
N222 Co205 1.993 . S
N222 N221 1.388 . S
N222 C223 1.346 . S
C223 N222 1.346 . S
C223 C224 1.396 . S
C223 C233 1.510 . S
C224 C220 1.401 . S
C224 C223 1.396 . S
C225 C220 1.499 . S
C225 H226 0.959 . S
C225 H227 0.960 . S
C225 H228 0.961 . S
H226 C225 0.959 . S
H227 C225 0.960 . S
H228 C225 0.961 . S
O229 Co204 1.967 . S
O229 C237 1.258 . S
O230 Co205 1.941 . S
O230 C237 1.266 . S
H231 C233 0.959 . S
H232 C233 0.961 . S
C233 C223 1.510 . S
C233 H231 0.959 . S
C233 H232 0.961 . S
C233 H234 0.960 . S
H234 C233 0.960 . S
H235 N215 0.862 . S
O236 Co204 1.920 . S
O236 C209 1.289 . S
C237 O229 1.258 . S
C237 O230 1.266 . S
Co238 O241 1.970 . S
Co238 N255 1.989 . S
Co238 O263 1.967 . S
Co238 O270 1.920 . S
Co239 O242 1.966 . S
Co239 N248 2.022 . S
Co239 N256 1.993 . S
Co239 O264 1.941 . S
C240 O241 1.258 . S
C240 O242 1.263 . S
O241 Co238 1.970 . S
O241 C240 1.258 . S
O242 Co239 1.966 . S
O242 C240 1.263 . S
C243 O244 1.235 . S
C243 O270 1.289 . S
O244 C243 1.235 . S
C245 C247 1.400 . S
C245 N248 1.351 . S
C245 C250 1.501 . S
C246 C247 1.387 1_455 S
C246 N249 1.339 1_455 S
C247 C245 1.400 . S
C247 C246 1.387 1_655 S
N248 Co239 2.022 . S
N248 C245 1.351 . S
N248 N249 1.368 . S
N249 C246 1.339 1_655 S
N249 N248 1.368 . S
N249 H269 0.860 1_655 S
C250 C245 1.501 . S
C250 H251 0.961 . S
C250 H252 0.961 . S
C250 H253 0.960 . S
H251 C250 0.961 . S
H252 C250 0.961 . S
H253 C250 0.960 . S
C254 N255 1.342 1_455 S
C254 C258 1.401 . S
C254 C259 1.499 . S
N255 Co238 1.989 . S
N255 C254 1.342 1_655 S
N255 N256 1.388 . S
N256 Co239 1.993 . S
N256 N255 1.388 . S
N256 C257 1.346 1_655 S
C257 N256 1.346 1_455 S
C257 C258 1.396 . S
C257 C267 1.510 . S
C258 C254 1.401 . S
C258 C257 1.396 . S
C259 C254 1.499 . S
C259 H260 0.959 1_455 S
C259 H261 0.960 . S
C259 H262 0.961 . S
H260 C259 0.959 1_655 S
H261 C259 0.960 . S
H262 C259 0.961 . S
O263 Co238 1.967 . S
O263 C271 1.258 . S
O264 Co239 1.941 . S
O264 C271 1.266 . S
H265 C267 0.959 . S
H266 C267 0.961 . S
C267 C257 1.510 . S
C267 H265 0.959 . S
C267 H266 0.961 . S
C267 H268 0.960 . S
H268 C267 0.960 . S
H269 N249 0.860 1_455 S
O270 Co238 1.920 . S
O270 C243 1.289 . S
C271 O263 1.258 . S
C271 O264 1.266 . S
H272 C284 0.930 . S
H273 C286 0.930 . S
H274 C287 0.930 . S
H275 C291 0.959 . S
H276 C291 0.959 . S
H277 C291 0.961 . S
H278 C292 0.960 . S
H279 C292 0.961 . S
H280 C292 0.959 . S
H281 C295 0.929 1_554 S
H282 C296 0.931 . S
H283 C298 0.930 . S
C284 H272 0.930 . S
C284 C285 1.399 . S
C284 C289 1.399 . S
C285 C284 1.399 . S
C285 C286 1.376 . S
C286 H273 0.930 . S
C286 C285 1.376 . S
C286 C287 1.388 . S
C287 H274 0.930 . S
C287 C286 1.388 . S
C287 C288 1.390 . S
C288 C287 1.390 . S
C288 C289 1.394 . S
C288 C294 1.465 1_554 S
C289 C284 1.399 . S
C289 C288 1.394 . S
C289 C290 1.516 1_554 S
C290 C289 1.516 1_556 S
C290 C291 1.502 . S
C290 C292 1.561 . S
C290 C293 1.526 . S
C291 H275 0.959 . S
C291 H276 0.959 . S
C291 H277 0.961 . S
C291 C290 1.502 . S
C292 H278 0.960 . S
C292 H279 0.961 . S
C292 H280 0.959 . S
C292 C290 1.561 . S
C293 C290 1.526 . S
C293 C294 1.396 . S
C293 C298 1.390 . S
C294 C288 1.465 1_556 S
C294 C293 1.396 . S
C294 C295 1.399 . S
C295 H281 0.929 1_556 S
C295 C294 1.399 . S
C295 C296 1.385 . S
C296 H282 0.931 . S
C296 C295 1.385 . S
C296 C297 1.389 . S
C297 C296 1.389 . S
C297 C298 1.387 . S
C298 H283 0.930 . S
C298 C293 1.390 . S
C298 C297 1.387 . S
H299 C311 0.930 . S
H300 C313 0.930 . S
H301 C314 0.930 . S
H302 C318 0.959 . S
H303 C318 0.959 . S
H304 C318 0.961 . S
H305 C319 0.960 . S
H306 C319 0.961 . S
H307 C319 0.959 . S
H308 C322 0.929 . S
H309 C323 0.931 . S
H310 C325 0.930 . S
C311 H299 0.930 . S
C311 C312 1.399 . S
C311 C316 1.399 . S
C312 C311 1.399 . S
C312 C313 1.376 . S
C313 H300 0.930 . S
C313 C312 1.376 . S
C313 C314 1.388 . S
C314 H301 0.930 . S
C314 C313 1.388 . S
C314 C315 1.390 . S
C315 C314 1.390 . S
C315 C316 1.394 . S
C315 C321 1.465 . S
C316 C311 1.399 . S
C316 C315 1.394 . S
C316 C317 1.516 . S
C317 C316 1.516 . S
C317 C318 1.502 . S
C317 C319 1.561 . S
C317 C320 1.526 . S
C318 H302 0.959 . S
C318 H303 0.959 . S
C318 H304 0.961 . S
C318 C317 1.502 . S
C319 H305 0.960 . S
C319 H306 0.961 . S
C319 H307 0.959 . S
C319 C317 1.561 . S
C320 C317 1.526 . S
C320 C321 1.396 . S
C320 C325 1.390 . S
C321 C315 1.465 . S
C321 C320 1.396 . S
C321 C322 1.399 . S
C322 H308 0.929 . S
C322 C321 1.399 . S
C322 C323 1.385 . S
C323 H309 0.931 . S
C323 C322 1.385 . S
C323 C324 1.389 . S
C324 C323 1.389 . S
C324 C325 1.387 . S
C325 H310 0.930 . S
C325 C320 1.390 . S
C325 C324 1.387 . S
H326 C338 0.930 . S
H327 C340 0.930 . S
H328 C341 0.930 . S
H329 C345 0.959 . S
H330 C345 0.959 . S
H331 C345 0.961 . S
H332 C346 0.960 . S
H333 C346 0.961 . S
H334 C346 0.959 . S
H335 C349 0.929 . S
H336 C350 0.931 . S
H337 C352 0.930 . S
C338 H326 0.930 . S
C338 C339 1.399 . S
C338 C343 1.399 . S
C339 C338 1.399 . S
C339 C340 1.376 . S
C340 H327 0.930 . S
C340 C339 1.376 . S
C340 C341 1.388 . S
C341 H328 0.930 . S
C341 C340 1.388 . S
C341 C342 1.390 . S
C342 C341 1.390 . S
C342 C343 1.394 . S
C342 C348 1.465 . S
C343 C338 1.399 . S
C343 C342 1.394 . S
C343 C344 1.516 . S
C344 C343 1.516 . S
C344 C345 1.502 . S
C344 C346 1.561 . S
C344 C347 1.526 . S
C345 H329 0.959 . S
C345 H330 0.959 . S
C345 H331 0.961 . S
C345 C344 1.502 . S
C346 H332 0.960 . S
C346 H333 0.961 . S
C346 H334 0.959 . S
C346 C344 1.561 . S
C347 C344 1.526 . S
C347 C348 1.396 . S
C347 C352 1.390 . S
C348 C342 1.465 . S
C348 C347 1.396 . S
C348 C349 1.399 . S
C349 H335 0.929 . S
C349 C348 1.399 . S
C349 C350 1.385 . S
C350 H336 0.931 . S
C350 C349 1.385 . S
C350 C351 1.389 . S
C351 C350 1.389 . S
C351 C352 1.387 . S
C352 H337 0.930 . S
C352 C347 1.390 . S
C352 C351 1.387 . S
H353 C365 0.930 . S
H354 C367 0.930 . S
H355 C368 0.930 . S
H356 C372 0.959 . S
H357 C372 0.959 . S
H358 C372 0.961 . S
H359 C373 0.960 . S
H360 C373 0.961 . S
H361 C373 0.959 . S
H362 C376 0.929 . S
H363 C377 0.931 . S
H364 C379 0.930 . S
C365 H353 0.930 . S
C365 C366 1.399 . S
C365 C370 1.399 . S
C366 C365 1.399 . S
C366 C367 1.376 . S
C367 H354 0.930 . S
C367 C366 1.376 . S
C367 C368 1.388 . S
C368 H355 0.930 . S
C368 C367 1.388 . S
C368 C369 1.390 . S
C369 C368 1.390 . S
C369 C370 1.394 . S
C369 C375 1.465 . S
C370 C365 1.399 . S
C370 C369 1.394 . S
C370 C371 1.516 . S
C371 C370 1.516 . S
C371 C372 1.502 . S
C371 C373 1.561 . S
C371 C374 1.526 . S
C372 H356 0.959 . S
C372 H357 0.959 . S
C372 H358 0.961 . S
C372 C371 1.502 . S
C373 H359 0.960 . S
C373 H360 0.961 . S
C373 H361 0.959 . S
C373 C371 1.561 . S
C374 C371 1.526 . S
C374 C375 1.396 . S
C374 C379 1.390 . S
C375 C369 1.465 . S
C375 C374 1.396 . S
C375 C376 1.399 . S
C376 H362 0.929 . S
C376 C375 1.399 . S
C376 C377 1.385 . S
C377 H363 0.931 . S
C377 C376 1.385 . S
C377 C378 1.389 . S
C378 C377 1.389 . S
C378 C379 1.387 . S
C379 H364 0.930 . S
C379 C374 1.390 . S
C379 C378 1.387 . S
H380 C392 0.930 . S
H381 C394 0.930 . S
H382 C395 0.930 . S
H383 C399 0.959 1_545 S
H384 C399 0.959 . S
H385 C399 0.961 1_556 S
H386 C400 0.960 . S
H387 C400 0.961 . S
H388 C400 0.959 1_545 S
H389 C403 0.929 . S
H390 C404 0.931 . S
H391 C406 0.930 . S
C392 H380 0.930 . S
C392 C393 1.399 . S
C392 C397 1.399 . S
C393 C392 1.399 . S
C393 C394 1.376 . S
C394 H381 0.930 . S
C394 C393 1.376 . S
C394 C395 1.388 . S
C395 H382 0.930 . S
C395 C394 1.388 . S
C395 C396 1.390 1_556 S
C396 C395 1.390 1_554 S
C396 C397 1.394 1_554 S
C396 C402 1.465 . S
C397 C392 1.399 . S
C397 C396 1.394 1_556 S
C397 C398 1.516 1_556 S
C398 C397 1.516 1_554 S
C398 C399 1.502 1_545 S
C398 C400 1.561 1_545 S
C398 C401 1.526 . S
C399 H383 0.959 1_565 S
C399 H384 0.959 . S
C399 H385 0.961 1_554 S
C399 C398 1.502 1_565 S
C400 H386 0.960 . S
C400 H387 0.961 . S
C400 H388 0.959 1_565 S
C400 C398 1.561 1_565 S
C401 C398 1.526 . S
C401 C402 1.396 . S
C401 C406 1.390 . S
C402 C396 1.465 . S
C402 C401 1.396 . S
C402 C403 1.399 . S
C403 H389 0.929 . S
C403 C402 1.399 . S
C403 C404 1.385 . S
C404 H390 0.931 . S
C404 C403 1.385 . S
C404 C405 1.389 . S
C405 C404 1.389 . S
C405 C406 1.387 . S
C406 H391 0.930 . S
C406 C401 1.390 . S
C406 C405 1.387 . S
H407 C419 0.930 . S
H408 C421 0.930 . S
H409 C422 0.930 . S
H410 C426 0.959 . S
H411 C426 0.959 . S
H412 C426 0.961 . S
H413 C427 0.960 . S
H414 C427 0.961 . S
H415 C427 0.959 . S
H416 C430 0.929 . S
H417 C431 0.931 . S
H418 C433 0.930 . S
C419 H407 0.930 . S
C419 C420 1.399 . S
C419 C424 1.399 . S
C420 C419 1.399 . S
C420 C421 1.376 . S
C421 H408 0.930 . S
C421 C420 1.376 . S
C421 C422 1.388 . S
C422 H409 0.930 . S
C422 C421 1.388 . S
C422 C423 1.390 . S
C423 C422 1.390 . S
C423 C424 1.394 . S
C423 C429 1.465 . S
C424 C419 1.399 . S
C424 C423 1.394 . S
C424 C425 1.516 . S
C425 C424 1.516 . S
C425 C426 1.502 . S
C425 C427 1.561 . S
C425 C428 1.526 . S
C426 H410 0.959 . S
C426 H411 0.959 . S
C426 H412 0.961 . S
C426 C425 1.502 . S
C427 H413 0.960 . S
C427 H414 0.961 . S
C427 H415 0.959 . S
C427 C425 1.561 . S
C428 C425 1.526 . S
C428 C429 1.396 . S
C428 C433 1.390 . S
C429 C423 1.465 . S
C429 C428 1.396 . S
C429 C430 1.399 1_565 S
C430 H416 0.929 . S
C430 C429 1.399 1_545 S
C430 C431 1.385 . S
C431 H417 0.931 . S
C431 C430 1.385 . S
C431 C432 1.389 . S
C432 C431 1.389 . S
C432 C433 1.387 1_545 S
C433 H418 0.930 . S
C433 C428 1.390 . S
C433 C432 1.387 1_565 S
H434 C446 0.930 . S
H435 C448 0.930 . S
H436 C449 0.930 . S
H437 C453 0.959 . S
H438 C453 0.959 1_545 S
H439 C453 0.961 1_545 S
H440 C454 0.960 1_545 S
H441 C454 0.961 1_545 S
H442 C454 0.959 . S
H443 C457 0.929 . S
H444 C458 0.931 . S
H445 C460 0.930 . S
C446 H434 0.930 . S
C446 C447 1.399 . S
C446 C451 1.399 . S
C447 C446 1.399 . S
C447 C448 1.376 . S
C448 H435 0.930 . S
C448 C447 1.376 . S
C448 C449 1.388 . S
C449 H436 0.930 . S
C449 C448 1.388 . S
C449 C450 1.390 . S
C450 C449 1.390 . S
C450 C451 1.394 . S
C450 C456 1.465 . S
C451 C446 1.399 . S
C451 C450 1.394 . S
C451 C452 1.516 . S
C452 C451 1.516 . S
C452 C453 1.502 . S
C452 C454 1.561 . S
C452 C455 1.526 . S
C453 H437 0.959 . S
C453 H438 0.959 1_565 S
C453 H439 0.961 1_565 S
C453 C452 1.502 . S
C454 H440 0.960 1_565 S
C454 H441 0.961 1_565 S
C454 H442 0.959 . S
C454 C452 1.561 . S
C455 C452 1.526 . S
C455 C456 1.396 . S
C455 C460 1.390 . S
C456 C450 1.465 . S
C456 C455 1.396 . S
C456 C457 1.399 . S
C457 H443 0.929 . S
C457 C456 1.399 . S
C457 C458 1.385 . S
C458 H444 0.931 . S
C458 C457 1.385 . S
C458 C459 1.389 . S
C459 C458 1.389 . S
C459 C460 1.387 . S
C460 H445 0.930 . S
C460 C455 1.390 . S
C460 C459 1.387 . S
H461 C473 0.930 . S
H462 C475 0.930 . S
H463 C476 0.930 . S
H464 C480 0.959 . S
H465 C480 0.959 . S
H466 C480 0.961 . S
H467 C481 0.960 . S
H468 C481 0.961 . S
H469 C481 0.959 . S
H470 C484 0.929 . S
H471 C485 0.931 1_565 S
H472 C487 0.930 . S
C473 H461 0.930 . S
C473 C474 1.399 . S
C473 C478 1.399 . S
C474 C473 1.399 . S
C474 C475 1.376 . S
C475 H462 0.930 . S
C475 C474 1.376 . S
C475 C476 1.388 . S
C476 H463 0.930 . S
C476 C475 1.388 . S
C476 C477 1.390 . S
C477 C476 1.390 . S
C477 C478 1.394 . S
C477 C483 1.465 . S
C478 C473 1.399 . S
C478 C477 1.394 . S
C478 C479 1.516 . S
C479 C478 1.516 . S
C479 C480 1.502 1_545 S
C479 C481 1.561 . S
C479 C482 1.526 . S
C480 H464 0.959 . S
C480 H465 0.959 . S
C480 H466 0.961 . S
C480 C479 1.502 1_565 S
C481 H467 0.960 . S
C481 H468 0.961 . S
C481 H469 0.959 . S
C481 C479 1.561 . S
C482 C479 1.526 . S
C482 C483 1.396 . S
C482 C487 1.390 1_545 S
C483 C477 1.465 . S
C483 C482 1.396 . S
C483 C484 1.399 . S
C484 H470 0.929 . S
C484 C483 1.399 . S
C484 C485 1.385 . S
C485 H471 0.931 1_545 S
C485 C484 1.385 . S
C485 C486 1.389 1_545 S
C486 C485 1.389 1_565 S
C486 C487 1.387 . S
C487 H472 0.930 . S
C487 C482 1.390 1_565 S
C487 C486 1.387 . S
H488 C500 0.930 . S
H489 C502 0.930 . S
H490 C503 0.930 . S
H491 C507 0.959 . S
H492 C507 0.959 . S
H493 C507 0.961 . S
H494 C508 0.960 . S
H495 C508 0.961 . S
H496 C508 0.959 . S
H497 C511 0.929 1_455 S
H498 C512 0.931 . S
H499 C514 0.930 . S
C500 H488 0.930 . S
C500 C501 1.399 1_655 S
C500 C505 1.399 . S
C501 C500 1.399 1_455 S
C501 C502 1.376 . S
C502 H489 0.930 . S
C502 C501 1.376 . S
C502 C503 1.388 . S
C503 H490 0.930 . S
C503 C502 1.388 . S
C503 C504 1.390 1_455 S
C504 C503 1.390 1_655 S
C504 C505 1.394 . S
C504 C510 1.465 . S
C505 C500 1.399 . S
C505 C504 1.394 . S
C505 C506 1.516 . S
C506 C505 1.516 . S
C506 C507 1.502 . S
C506 C508 1.561 . S
C506 C509 1.526 . S
C507 H491 0.959 . S
C507 H492 0.959 . S
C507 H493 0.961 . S
C507 C506 1.502 . S
C508 H494 0.960 . S
C508 H495 0.961 . S
C508 H496 0.959 . S
C508 C506 1.561 . S
C509 C506 1.526 . S
C509 C510 1.396 . S
C509 C514 1.390 . S
C510 C504 1.465 . S
C510 C509 1.396 . S
C510 C511 1.399 . S
C511 H497 0.929 1_655 S
C511 C510 1.399 . S
C511 C512 1.385 . S
C512 H498 0.931 . S
C512 C511 1.385 . S
C512 C513 1.389 . S
C513 C512 1.389 . S
C513 C514 1.387 . S
C514 H499 0.930 . S
C514 C509 1.390 . S
C514 C513 1.387 . S
H515 C527 0.930 . S
H516 C529 0.930 . S
H517 C530 0.930 . S
H518 C534 0.959 . S
H519 C534 0.959 . S
H520 C534 0.961 . S
H521 C535 0.960 . S
H522 C535 0.961 . S
H523 C535 0.959 . S
H524 C538 0.929 . S
H525 C539 0.931 . S
H526 C541 0.930 . S
C527 H515 0.930 . S
C527 C528 1.399 . S
C527 C532 1.399 . S
C528 C527 1.399 . S
C528 C529 1.376 . S
C529 H516 0.930 . S
C529 C528 1.376 . S
C529 C530 1.388 . S
C530 H517 0.930 . S
C530 C529 1.388 . S
C530 C531 1.390 . S
C531 C530 1.390 . S
C531 C532 1.394 . S
C531 C537 1.465 1_556 S
C532 C527 1.399 . S
C532 C531 1.394 . S
C532 C533 1.516 . S
C533 C532 1.516 . S
C533 C534 1.502 . S
C533 C535 1.561 . S
C533 C536 1.526 1_556 S
C534 H518 0.959 . S
C534 H519 0.959 . S
C534 H520 0.961 . S
C534 C533 1.502 . S
C535 H521 0.960 . S
C535 H522 0.961 . S
C535 H523 0.959 . S
C535 C533 1.561 . S
C536 C533 1.526 1_554 S
C536 C537 1.396 . S
C536 C541 1.390 . S
C537 C531 1.465 1_554 S
C537 C536 1.396 . S
C537 C538 1.399 . S
C538 H524 0.929 . S
C538 C537 1.399 . S
C538 C539 1.385 . S
C539 H525 0.931 . S
C539 C538 1.385 . S
C539 C540 1.389 . S
C540 C539 1.389 . S
C540 C541 1.387 . S
C541 H526 0.930 . S
C541 C536 1.390 . S
C541 C540 1.387 . S
H542 C554 0.930 . S
H543 C556 0.930 . S
H544 C557 0.930 . S
H545 C561 0.959 . S
H546 C561 0.959 . S
H547 C561 0.961 . S
H548 C562 0.960 . S
H549 C562 0.961 . S
H550 C562 0.959 1_655 S
H551 C565 0.929 . S
H552 C566 0.931 . S
H553 C568 0.930 . S
C554 H542 0.930 . S
C554 C555 1.399 . S
C554 C559 1.399 . S
C555 C554 1.399 . S
C555 C556 1.376 . S
C556 H543 0.930 . S
C556 C555 1.376 . S
C556 C557 1.388 . S
C557 H544 0.930 . S
C557 C556 1.388 . S
C557 C558 1.390 . S
C558 C557 1.390 . S
C558 C559 1.394 . S
C558 C564 1.465 . S
C559 C554 1.399 . S
C559 C558 1.394 . S
C559 C560 1.516 . S
C560 C559 1.516 . S
C560 C561 1.502 . S
C560 C562 1.561 . S
C560 C563 1.526 . S
C561 H545 0.959 . S
C561 H546 0.959 . S
C561 H547 0.961 . S
C561 C560 1.502 . S
C562 H548 0.960 . S
C562 H549 0.961 . S
C562 H550 0.959 1_455 S
C562 C560 1.561 . S
C563 C560 1.526 . S
C563 C564 1.396 . S
C563 C568 1.390 . S
C564 C558 1.465 . S
C564 C563 1.396 . S
C564 C565 1.399 1_455 S
C565 H551 0.929 . S
C565 C564 1.399 1_655 S
C565 C566 1.385 . S
C566 H552 0.931 . S
C566 C565 1.385 . S
C566 C567 1.389 . S
C567 C566 1.389 . S
C567 C568 1.387 1_655 S
C568 H553 0.930 . S
C568 C563 1.390 . S
C568 C567 1.387 1_455 S
H569 C581 0.930 . S
H570 C583 0.930 . S
H571 C584 0.930 . S
H572 C588 0.959 . S
H573 C588 0.959 . S
H574 C588 0.961 . S
H575 C589 0.960 . S
H576 C589 0.961 . S
H577 C589 0.959 . S
H578 C592 0.929 . S
H579 C593 0.931 . S
H580 C595 0.930 . S
C581 H569 0.930 . S
C581 C582 1.399 . S
C581 C586 1.399 . S
C582 C581 1.399 . S
C582 C583 1.376 . S
C583 H570 0.930 . S
C583 C582 1.376 . S
C583 C584 1.388 . S
C584 H571 0.930 . S
C584 C583 1.388 . S
C584 C585 1.390 . S
C585 C584 1.390 . S
C585 C586 1.394 . S
C585 C591 1.465 . S
C586 C581 1.399 . S
C586 C585 1.394 . S
C586 C587 1.516 . S
C587 C586 1.516 . S
C587 C588 1.502 . S
C587 C589 1.561 . S
C587 C590 1.526 . S
C588 H572 0.959 . S
C588 H573 0.959 . S
C588 H574 0.961 . S
C588 C587 1.502 . S
C589 H575 0.960 . S
C589 H576 0.961 . S
C589 H577 0.959 . S
C589 C587 1.561 . S
C590 C587 1.526 . S
C590 C591 1.396 . S
C590 C595 1.390 . S
C591 C585 1.465 . S
C591 C590 1.396 . S
C591 C592 1.399 . S
C592 H578 0.929 . S
C592 C591 1.399 . S
C592 C593 1.385 . S
C593 H579 0.931 . S
C593 C592 1.385 . S
C593 C594 1.389 . S
C594 C593 1.389 . S
C594 C595 1.387 . S
C595 H580 0.930 . S
C595 C590 1.390 . S
C595 C594 1.387 . S
H596 C608 0.930 . S
H597 C610 0.930 . S
H598 C611 0.930 . S
H599 C615 0.959 . S
H600 C615 0.959 . S
H601 C615 0.961 . S
H602 C616 0.960 . S
H603 C616 0.961 . S
H604 C616 0.959 . S
H605 C619 0.929 . S
H606 C620 0.931 . S
H607 C622 0.930 . S
C608 H596 0.930 . S
C608 C609 1.399 . S
C608 C613 1.399 . S
C609 C608 1.399 . S
C609 C610 1.376 . S
C610 H597 0.930 . S
C610 C609 1.376 . S
C610 C611 1.388 . S
C611 H598 0.930 . S
C611 C610 1.388 . S
C611 C612 1.390 . S
C612 C611 1.390 . S
C612 C613 1.394 . S
C612 C618 1.465 . S
C613 C608 1.399 . S
C613 C612 1.394 . S
C613 C614 1.516 . S
C614 C613 1.516 . S
C614 C615 1.502 . S
C614 C616 1.561 . S
C614 C617 1.526 . S
C615 H599 0.959 . S
C615 H600 0.959 . S
C615 H601 0.961 . S
C615 C614 1.502 . S
C616 H602 0.960 . S
C616 H603 0.961 . S
C616 H604 0.959 . S
C616 C614 1.561 . S
C617 C614 1.526 . S
C617 C618 1.396 . S
C617 C622 1.390 . S
C618 C612 1.465 . S
C618 C617 1.396 . S
C618 C619 1.399 . S
C619 H605 0.929 . S
C619 C618 1.399 . S
C619 C620 1.385 . S
C620 H606 0.931 . S
C620 C619 1.385 . S
C620 C621 1.389 . S
C621 C620 1.389 . S
C621 C622 1.387 . S
C622 H607 0.930 . S
C622 C617 1.390 . S
C622 C621 1.387 . S
H623 C635 0.930 . S
H624 C637 0.930 . S
H625 C638 0.930 . S
H626 C642 0.959 . S
H627 C642 0.959 . S
H628 C642 0.961 . S
H629 C643 0.960 . S
H630 C643 0.961 . S
H631 C643 0.959 . S
H632 C646 0.929 . S
H633 C647 0.931 . S
H634 C649 0.930 . S
C635 H623 0.930 . S
C635 C636 1.399 . S
C635 C640 1.399 . S
C636 C635 1.399 . S
C636 C637 1.376 . S
C637 H624 0.930 . S
C637 C636 1.376 . S
C637 C638 1.388 . S
C638 H625 0.930 . S
C638 C637 1.388 . S
C638 C639 1.390 . S
C639 C638 1.390 . S
C639 C640 1.394 . S
C639 C645 1.465 . S
C640 C635 1.399 . S
C640 C639 1.394 . S
C640 C641 1.516 . S
C641 C640 1.516 . S
C641 C642 1.502 . S
C641 C643 1.561 . S
C641 C644 1.526 . S
C642 H626 0.959 . S
C642 H627 0.959 . S
C642 H628 0.961 . S
C642 C641 1.502 . S
C643 H629 0.960 . S
C643 H630 0.961 . S
C643 H631 0.959 . S
C643 C641 1.561 . S
C644 C641 1.526 . S
C644 C645 1.396 . S
C644 C649 1.390 . S
C645 C639 1.465 . S
C645 C644 1.396 . S
C645 C646 1.399 . S
C646 H632 0.929 . S
C646 C645 1.399 . S
C646 C647 1.385 . S
C647 H633 0.931 . S
C647 C646 1.385 . S
C647 C648 1.389 . S
C648 C647 1.389 . S
C648 C649 1.387 . S
C649 H634 0.930 . S
C649 C644 1.390 . S
C649 C648 1.387 . S
H650 C662 0.930 . S
H651 C664 0.930 . S
H652 C665 0.930 . S
H653 C669 0.959 . S
H654 C669 0.959 . S
H655 C669 0.961 . S
H656 C670 0.960 . S
H657 C670 0.961 . S
H658 C670 0.959 . S
H659 C673 0.929 . S
H660 C674 0.931 . S
H661 C676 0.930 . S
C662 H650 0.930 . S
C662 C663 1.399 . S
C662 C667 1.399 . S
C663 C662 1.399 . S
C663 C664 1.376 . S
C664 H651 0.930 . S
C664 C663 1.376 . S
C664 C665 1.388 . S
C665 H652 0.930 . S
C665 C664 1.388 . S
C665 C666 1.390 . S
C666 C665 1.390 . S
C666 C667 1.394 . S
C666 C672 1.465 . S
C667 C662 1.399 . S
C667 C666 1.394 . S
C667 C668 1.516 . S
C668 C667 1.516 . S
C668 C669 1.502 . S
C668 C670 1.561 . S
C668 C671 1.526 . S
C669 H653 0.959 . S
C669 H654 0.959 . S
C669 H655 0.961 . S
C669 C668 1.502 . S
C670 H656 0.960 . S
C670 H657 0.961 . S
C670 H658 0.959 . S
C670 C668 1.561 . S
C671 C668 1.526 . S
C671 C672 1.396 . S
C671 C676 1.390 . S
C672 C666 1.465 . S
C672 C671 1.396 . S
C672 C673 1.399 . S
C673 H659 0.929 . S
C673 C672 1.399 . S
C673 C674 1.385 . S
C674 H660 0.931 . S
C674 C673 1.385 . S
C674 C675 1.389 . S
C675 C674 1.389 . S
C675 C676 1.387 . S
C676 H661 0.930 . S
C676 C671 1.390 . S
C676 C675 1.387 . S
H677 C689 0.930 . S
H678 C691 0.930 . S
H679 C692 0.930 . S
H680 C696 0.959 . S
H681 C696 0.959 . S
H682 C696 0.961 . S
H683 C697 0.960 . S
H684 C697 0.961 . S
H685 C697 0.959 . S
H686 C700 0.929 . S
H687 C701 0.931 . S
H688 C703 0.930 . S
C689 H677 0.930 . S
C689 C690 1.399 . S
C689 C694 1.399 . S
C690 C689 1.399 . S
C690 C691 1.376 . S
C691 H678 0.930 . S
C691 C690 1.376 . S
C691 C692 1.388 . S
C692 H679 0.930 . S
C692 C691 1.388 . S
C692 C693 1.390 . S
C693 C692 1.390 . S
C693 C694 1.394 . S
C693 C699 1.465 . S
C694 C689 1.399 . S
C694 C693 1.394 . S
C694 C695 1.516 . S
C695 C694 1.516 . S
C695 C696 1.502 . S
C695 C697 1.561 . S
C695 C698 1.526 . S
C696 H680 0.959 . S
C696 H681 0.959 . S
C696 H682 0.961 . S
C696 C695 1.502 . S
C697 H683 0.960 . S
C697 H684 0.961 . S
C697 H685 0.959 . S
C697 C695 1.561 . S
C698 C695 1.526 . S
C698 C699 1.396 . S
C698 C703 1.390 . S
C699 C693 1.465 . S
C699 C698 1.396 . S
C699 C700 1.399 . S
C700 H686 0.929 . S
C700 C699 1.399 . S
C700 C701 1.385 . S
C701 H687 0.931 . S
C701 C700 1.385 . S
C701 C702 1.389 . S
C702 C701 1.389 . S
C702 C703 1.387 . S
C703 H688 0.930 . S
C703 C698 1.390 . S
C703 C702 1.387 . S
H704 C716 0.930 . S
H705 C718 0.930 . S
H706 C719 0.930 . S
H707 C723 0.959 . S
H708 C723 0.959 . S
H709 C723 0.961 . S
H710 C724 0.960 . S
H711 C724 0.961 . S
H712 C724 0.959 . S
H713 C727 0.929 . S
H714 C728 0.931 . S
H715 C730 0.930 . S
C716 H704 0.930 . S
C716 C717 1.399 . S
C716 C721 1.399 . S
C717 C716 1.399 . S
C717 C718 1.376 . S
C718 H705 0.930 . S
C718 C717 1.376 . S
C718 C719 1.388 . S
C719 H706 0.930 . S
C719 C718 1.388 . S
C719 C720 1.390 . S
C720 C719 1.390 . S
C720 C721 1.394 . S
C720 C726 1.465 . S
C721 C716 1.399 . S
C721 C720 1.394 . S
C721 C722 1.516 . S
C722 C721 1.516 . S
C722 C723 1.502 . S
C722 C724 1.561 . S
C722 C725 1.526 . S
C723 H707 0.959 . S
C723 H708 0.959 . S
C723 H709 0.961 . S
C723 C722 1.502 . S
C724 H710 0.960 . S
C724 H711 0.961 . S
C724 H712 0.959 . S
C724 C722 1.561 . S
C725 C722 1.526 . S
C725 C726 1.396 . S
C725 C730 1.390 . S
C726 C720 1.465 . S
C726 C725 1.396 . S
C726 C727 1.399 . S
C727 H713 0.929 . S
C727 C726 1.399 . S
C727 C728 1.385 . S
C728 H714 0.931 . S
C728 C727 1.385 . S
C728 C729 1.389 . S
C729 C728 1.389 . S
C729 C730 1.387 . S
C730 H715 0.930 . S
C730 C725 1.390 . S
C730 C729 1.387 . S
H731 C743 0.930 . S
H732 C745 0.930 . S
H733 C746 0.930 . S
H734 C750 0.959 . S
H735 C750 0.959 . S
H736 C750 0.961 . S
H737 C751 0.960 . S
H738 C751 0.961 . S
H739 C751 0.959 . S
H740 C754 0.929 . S
H741 C755 0.931 . S
H742 C757 0.930 . S
C743 H731 0.930 . S
C743 C744 1.399 . S
C743 C748 1.399 . S
C744 C743 1.399 . S
C744 C745 1.376 . S
C745 H732 0.930 . S
C745 C744 1.376 . S
C745 C746 1.388 . S
C746 H733 0.930 . S
C746 C745 1.388 . S
C746 C747 1.390 . S
C747 C746 1.390 . S
C747 C748 1.394 . S
C747 C753 1.465 . S
C748 C743 1.399 . S
C748 C747 1.394 . S
C748 C749 1.516 . S
C749 C748 1.516 . S
C749 C750 1.502 . S
C749 C751 1.561 . S
C749 C752 1.526 . S
C750 H734 0.959 . S
C750 H735 0.959 . S
C750 H736 0.961 . S
C750 C749 1.502 . S
C751 H737 0.960 . S
C751 H738 0.961 . S
C751 H739 0.959 . S
C751 C749 1.561 . S
C752 C749 1.526 . S
C752 C753 1.396 . S
C752 C757 1.390 . S
C753 C747 1.465 . S
C753 C752 1.396 . S
C753 C754 1.399 . S
C754 H740 0.929 . S
C754 C753 1.399 . S
C754 C755 1.385 . S
C755 H741 0.931 . S
C755 C754 1.385 . S
C755 C756 1.389 . S
C756 C755 1.389 . S
C756 C757 1.387 . S
C757 H742 0.930 . S
C757 C752 1.390 . S
C757 C756 1.387 . S
H758 C770 0.930 . S
H759 C772 0.930 . S
H760 C773 0.930 . S
H761 C777 0.959 . S
H762 C777 0.959 . S
H763 C777 0.961 . S
H764 C778 0.960 . S
H765 C778 0.961 . S
H766 C778 0.959 . S
H767 C781 0.929 . S
H768 C782 0.931 . S
H769 C784 0.930 . S
C770 H758 0.930 . S
C770 C771 1.399 . S
C770 C775 1.399 . S
C771 C770 1.399 . S
C771 C772 1.376 . S
C772 H759 0.930 . S
C772 C771 1.376 . S
C772 C773 1.388 . S
C773 H760 0.930 . S
C773 C772 1.388 . S
C773 C774 1.390 . S
C774 C773 1.390 . S
C774 C775 1.394 . S
C774 C780 1.465 . S
C775 C770 1.399 . S
C775 C774 1.394 . S
C775 C776 1.516 . S
C776 C775 1.516 . S
C776 C777 1.502 . S
C776 C778 1.561 . S
C776 C779 1.526 . S
C777 H761 0.959 . S
C777 H762 0.959 . S
C777 H763 0.961 . S
C777 C776 1.502 . S
C778 H764 0.960 . S
C778 H765 0.961 . S
C778 H766 0.959 . S
C778 C776 1.561 . S
C779 C776 1.526 . S
C779 C780 1.396 . S
C779 C784 1.390 . S
C780 C774 1.465 . S
C780 C779 1.396 . S
C780 C781 1.399 . S
C781 H767 0.929 . S
C781 C780 1.399 . S
C781 C782 1.385 . S
C782 H768 0.931 . S
C782 C781 1.385 . S
C782 C783 1.389 . S
C783 C782 1.389 . S
C783 C784 1.387 . S
C784 H769 0.930 . S
C784 C779 1.390 . S
C784 C783 1.387 . S
H785 C797 0.930 . S
H786 C799 0.930 . S
H787 C800 0.930 . S
H788 C804 0.959 . S
H789 C804 0.959 . S
H790 C804 0.961 . S
H791 C805 0.960 . S
H792 C805 0.961 . S
H793 C805 0.959 . S
H794 C808 0.929 . S
H795 C809 0.931 . S
H796 C811 0.930 . S
C797 H785 0.930 . S
C797 C798 1.399 . S
C797 C802 1.399 . S
C798 C797 1.399 . S
C798 C799 1.376 . S
C799 H786 0.930 . S
C799 C798 1.376 . S
C799 C800 1.388 . S
C800 H787 0.930 . S
C800 C799 1.388 . S
C800 C801 1.390 . S
C801 C800 1.390 . S
C801 C802 1.394 . S
C801 C807 1.465 . S
C802 C797 1.399 . S
C802 C801 1.394 . S
C802 C803 1.516 . S
C803 C802 1.516 . S
C803 C804 1.502 . S
C803 C805 1.561 . S
C803 C806 1.526 . S
C804 H788 0.959 . S
C804 H789 0.959 . S
C804 H790 0.961 . S
C804 C803 1.502 . S
C805 H791 0.960 . S
C805 H792 0.961 . S
C805 H793 0.959 . S
C805 C803 1.561 . S
C806 C803 1.526 . S
C806 C807 1.396 . S
C806 C811 1.390 . S
C807 C801 1.465 . S
C807 C806 1.396 . S
C807 C808 1.399 . S
C808 H794 0.929 . S
C808 C807 1.399 . S
C808 C809 1.385 . S
C809 H795 0.931 . S
C809 C808 1.385 . S
C809 C810 1.389 . S
C810 C809 1.389 . S
C810 C811 1.387 . S
C811 H796 0.930 . S
C811 C806 1.390 . S
C811 C810 1.387 . S
C285 C5 0.728 . S
C297 C175 0.780 . S
C312 C209 0.721 . S
C324 C39 0.712 . S
C339 C243 0.724 . S
C351 C73 0.710 . S
C366 C141 0.778 . S
C378 C107 0.724 . S
C393 C111 0.930 . S
C405 C33 0.926 . S
C420 C67 0.925 . S
C432 C9 0.929 . S
C447 C43 0.931 . S
C459 C101 0.927 . S
C474 C135 0.887 . S
C486 C77 0.900 . S
C501 C179 0.937 . S
C513 C169 0.942 . S
C528 C203 0.849 . S
C540 C213 0.865 . S
C555 C237 0.926 . S
C567 C247 0.921 . S
C582 C271 0.950 . S
C594 C145 0.946 . S
C609 C206 1.227 . S
C621 C20 1.247 . S
C636 C240 1.235 . S
C648 C54 1.244 . S
C663 C88 1.240 . S
C675 C138 1.189 . S
C690 C122 1.239 . S
C702 C172 1.187 . S
C717 C156 1.249 . S
C729 C70 1.255 . S
C744 C104 1.198 . S
C756 C190 1.240 . S
C771 C224 1.240 . S
C783 C2 1.187 . S
C798 C36 1.197 . S
C810 C258 1.240 . S
