# Generated by pormake.
# Topology wke, (5)-cn, num edge types: 1
# Building blocks:
#     Node 0, Type 0, BuildingBlock: XOMCOT_clean_sbu_0, # of connection points: 5
#     Node 1, Type 0, BuildingBlock: XOMCOT_clean_sbu_0, # of connection points: 5
#     Node 2, Type 0, BuildingBlock: XOMCOT_clean_sbu_0, # of connection points: 5
#     Node 3, Type 0, BuildingBlock: XOMCOT_clean_sbu_0, # of connection points: 5
#     Node 4, Type 0, BuildingBlock: XOMCOT_clean_sbu_0, # of connection points: 5
#     Node 5, Type 0, BuildingBlock: XOMCOT_clean_sbu_0, # of connection points: 5
#     Node 6, Type 0, BuildingBlock: XOMCOT_clean_sbu_0, # of connection points: 5
#     Node 7, Type 0, BuildingBlock: XOMCOT_clean_sbu_0, # of connection points: 5
#     Node 8, Type 0, BuildingBlock: XOMCOT_clean_sbu_0, # of connection points: 5
#     Node 9, Type 0, BuildingBlock: XOMCOT_clean_sbu_0, # of connection points: 5
#     Node 10, Type 0, BuildingBlock: XOMCOT_clean_sbu_0, # of connection points: 5
#     Node 11, Type 0, BuildingBlock: XOMCOT_clean_sbu_0, # of connection points: 5
#     Edge 12, Type (0, 0), BuildingBlock: MIFKUJ_clean_linker_0, # of connection points: 2
#     Edge 13, Type (0, 0), BuildingBlock: MIFKUJ_clean_linker_0, # of connection points: 2
#     Edge 14, Type (0, 0), BuildingBlock: MIFKUJ_clean_linker_0, # of connection points: 2
#     Edge 15, Type (0, 0), BuildingBlock: MIFKUJ_clean_linker_0, # of connection points: 2
#     Edge 16, Type (0, 0), BuildingBlock: MIFKUJ_clean_linker_0, # of connection points: 2
#     Edge 17, Type (0, 0), BuildingBlock: MIFKUJ_clean_linker_0, # of connection points: 2
#     Edge 18, Type (0, 0), BuildingBlock: MIFKUJ_clean_linker_0, # of connection points: 2
#     Edge 19, Type (0, 0), BuildingBlock: MIFKUJ_clean_linker_0, # of connection points: 2
#     Edge 20, Type (0, 0), BuildingBlock: MIFKUJ_clean_linker_0, # of connection points: 2
#     Edge 21, Type (0, 0), BuildingBlock: MIFKUJ_clean_linker_0, # of connection points: 2
#     Edge 22, Type (0, 0), BuildingBlock: MIFKUJ_clean_linker_0, # of connection points: 2
#     Edge 23, Type (0, 0), BuildingBlock: MIFKUJ_clean_linker_0, # of connection points: 2
#     Edge 24, Type (0, 0), BuildingBlock: MIFKUJ_clean_linker_0, # of connection points: 2
#     Edge 25, Type (0, 0), BuildingBlock: MIFKUJ_clean_linker_0, # of connection points: 2
#     Edge 26, Type (0, 0), BuildingBlock: MIFKUJ_clean_linker_0, # of connection points: 2
#     Edge 27, Type (0, 0), BuildingBlock: MIFKUJ_clean_linker_0, # of connection points: 2
#     Edge 28, Type (0, 0), BuildingBlock: MIFKUJ_clean_linker_0, # of connection points: 2
#     Edge 29, Type (0, 0), BuildingBlock: MIFKUJ_clean_linker_0, # of connection points: 2
#     Edge 30, Type (0, 0), BuildingBlock: MIFKUJ_clean_linker_0, # of connection points: 2
#     Edge 31, Type (0, 0), BuildingBlock: MIFKUJ_clean_linker_0, # of connection points: 2
#     Edge 32, Type (0, 0), BuildingBlock: MIFKUJ_clean_linker_0, # of connection points: 2
#     Edge 33, Type (0, 0), BuildingBlock: MIFKUJ_clean_linker_0, # of connection points: 2
#     Edge 34, Type (0, 0), BuildingBlock: MIFKUJ_clean_linker_0, # of connection points: 2
#     Edge 35, Type (0, 0), BuildingBlock: MIFKUJ_clean_linker_0, # of connection points: 2
#     Edge 36, Type (0, 0), BuildingBlock: MIFKUJ_clean_linker_0, # of connection points: 2
#     Edge 37, Type (0, 0), BuildingBlock: MIFKUJ_clean_linker_0, # of connection points: 2
#     Edge 38, Type (0, 0), BuildingBlock: MIFKUJ_clean_linker_0, # of connection points: 2
#     Edge 39, Type (0, 0), BuildingBlock: MIFKUJ_clean_linker_0, # of connection points: 2
#     Edge 40, Type (0, 0), BuildingBlock: MIFKUJ_clean_linker_0, # of connection points: 2
#     Edge 41, Type (0, 0), BuildingBlock: MIFKUJ_clean_linker_0, # of connection points: 2
# Relax obj value: 0.149
# Max RMSD: 0.152
# Mean RMSD: 0.152
data_MOF--net-wke--node1-XOMCOT_clean_sbu_0--edge1-MIFKUJ_clean_linker_0
_symmetry_space_group_name_H-M    P1
_symmetry_Int_Tables_number       1
_symmetry_cell_setting            triclinic
loop_
_symmetry_equiv_pos_as_xyz
'x, y, z'
_cell_length_a     91.104135
_cell_length_b     91.152508
_cell_length_c     22.080449
_cell_angle_alpha  89.984469
_cell_angle_beta   90.021454
_cell_angle_gamma 120.01151
loop_
_atom_site_label
_atom_site_type_symbol
_atom_site_fract_x
_atom_site_fract_y
_atom_site_fract_z
_atom_type_partial_charge
Co0 Co 0.11199 0.42614 0.30906 0.0
C1 C 0.10803 0.42244 0.17589 0.0
C2 C 0.08857 0.40062 0.22202 0.0
C3 C 0.08627 0.39791 0.16043 0.0
N4 N 0.10219 0.41599 0.23158 0.0
N5 N 0.09854 0.41162 0.13129 0.0
H6 H 0.11925 0.43462 0.16842 0.0
H7 H 0.08094 0.39189 0.25732 0.0
C8 C 0.08286 0.42078 0.38565 0.0
O9 O 0.09189 0.43684 0.40102 0.0
N10 N 0.12201 0.43594 0.38777 0.0
C11 C 0.13595 0.45095 0.40012 0.0
C12 C 0.13854 0.45243 0.46177 0.0
C13 C 0.1169 0.42821 0.44237 0.0
N14 N 0.12646 0.43819 0.48857 0.0
C15 C 0.12439 0.46079 0.27435 0.0
C16 C 0.09311 0.45823 0.2589 0.0
C17 C 0.10774 0.47421 0.2537 0.0
C18 C 0.12355 0.47521 0.25929 0.0
C19 C 0.0946 0.44408 0.27295 0.0
N20 N 0.11004 0.44574 0.28565 0.0
H21 H 0.13665 0.46173 0.27571 0.0
H22 H 0.08322 0.43182 0.27416 0.0
H23 H 0.14414 0.46014 0.36734 0.0
H24 H 0.10615 0.41561 0.44818 0.0
O25 O 0.13418 0.43325 0.27699 0.0
O26 O 0.11781 0.40875 0.32328 0.0
O27 O 0.08874 0.41445 0.34755 0.0
C28 C 0.13207 0.41884 0.29624 0.0
H29 H 0.07626 0.38668 0.13895 0.0
H30 H 0.14878 0.46313 0.48485 0.0
H31 H 0.08058 0.4566 0.25339 0.0
H32 H 0.13523 0.48701 0.25174 0.0
Co33 Co 0.68217 0.11113 0.82937 0.0
C34 C 0.68247 0.10777 0.69393 0.0
C35 C 0.69609 0.09767 0.7405 0.0
C36 C 0.69779 0.09627 0.67928 0.0
N37 N 0.68627 0.10464 0.74995 0.0
N38 N 0.68925 0.10266 0.64991 0.0
H39 H 0.67555 0.11425 0.68499 0.0
H40 H 0.7018 0.09399 0.776 0.0
C41 C 0.66674 0.07352 0.8342 0.0
O42 O 0.66196 0.07264 0.77757 0.0
N43 N 0.67872 0.11776 0.90857 0.0
C44 C 0.67281 0.12831 0.92128 0.0
C45 C 0.67188 0.12937 0.98323 0.0
C46 C 0.68149 0.11267 0.96258 0.0
N47 N 0.67735 0.11954 0.00909 0.0
C48 C 0.65666 0.11611 0.77246 0.0
C49 C 0.62918 0.09009 0.83103 0.0
C50 C 0.62653 0.10101 0.79381 0.0
C51 C 0.64056 0.11408 0.7639 0.0
C52 C 0.64551 0.09272 0.83902 0.0
N53 N 0.65904 0.10533 0.8087 0.0
H54 H 0.66735 0.12697 0.75227 0.0
H55 H 0.6472 0.08514 0.87264 0.0
H56 H 0.66937 0.13474 0.88786 0.0
H57 H 0.68619 0.10393 0.96762 0.0
O58 O 0.69396 0.13454 0.80462 0.0
O59 O 0.70607 0.12105 0.84623 0.0
O60 O 0.67456 0.08773 0.86161 0.0
C61 C 0.7077 0.13493 0.82314 0.0
H62 H 0.70483 0.09097 0.65823 0.0
H63 H 0.66771 0.13697 0.00734 0.0
H64 H 0.61882 0.07988 0.85558 0.0
H65 H 0.63933 0.12326 0.7365 0.0
Co66 Co 0.56801 0.68109 0.29475 0.0
C67 C 0.57183 0.68156 0.16147 0.0
C68 C 0.59445 0.686 0.20763 0.0
C69 C 0.59748 0.68737 0.14616 0.0
N70 N 0.57838 0.68236 0.21709 0.0
N71 N 0.58327 0.68461 0.11714 0.0
H72 H 0.55917 0.67942 0.15382 0.0
H73 H 0.60346 0.68794 0.24302 0.0
C74 C 0.57439 0.65749 0.36818 0.0
O75 O 0.55838 0.64993 0.38452 0.0
N76 N 0.55807 0.68039 0.37395 0.0
C77 C 0.54236 0.67736 0.3877 0.0
C78 C 0.54102 0.67824 0.44951 0.0
C79 C 0.56624 0.68381 0.42791 0.0
N80 N 0.55601 0.6822 0.47486 0.0
C81 C 0.53361 0.65867 0.25816 0.0
C82 C 0.53617 0.6299 0.2456 0.0
C83 C 0.5201 0.62841 0.24157 0.0
C84 C 0.51913 0.64328 0.24488 0.0
C85 C 0.55039 0.64569 0.25767 0.0
N86 N 0.54869 0.65947 0.26988 0.0
H87 H 0.53259 0.66994 0.25917 0.0
H88 H 0.56269 0.64666 0.25845 0.0
H89 H 0.53248 0.67503 0.35592 0.0
H90 H 0.57933 0.68699 0.43278 0.0
O91 O 0.56033 0.69591 0.26494 0.0
O92 O 0.58499 0.70439 0.31058 0.0
O93 O 0.58029 0.66992 0.33103 0.0
C94 C 0.57462 0.70834 0.28439 0.0
H95 H 0.60929 0.69026 0.12455 0.0
H96 H 0.52989 0.67634 0.47388 0.0
H97 H 0.5378 0.61898 0.24128 0.0
H98 H 0.50727 0.64306 0.23774 0.0
Co99 Co 0.88807 0.57504 0.7939 0.0
C100 C 0.89187 0.57835 0.65843 0.0
C101 C 0.90642 0.60191 0.70511 0.0
C102 C 0.90839 0.60501 0.64388 0.0
N103 N 0.89634 0.58514 0.71454 0.0
N104 N 0.89922 0.59018 0.61449 0.0
H105 H 0.88278 0.56531 0.64923 0.0
H106 H 0.91172 0.61135 0.74055 0.0
C107 C 0.92565 0.59345 0.80684 0.0
O108 O 0.92647 0.58668 0.75533 0.0
N109 N 0.87982 0.56551 0.87313 0.0
C110 C 0.86778 0.54945 0.88535 0.0
C111 C 0.86623 0.54739 0.94722 0.0
C112 C 0.88535 0.57307 0.92743 0.0
N113 N 0.87731 0.56224 0.97362 0.0
C114 C 0.88271 0.54424 0.73821 0.0
C115 C 0.90518 0.54002 0.81001 0.0
C116 C 0.89565 0.52764 0.76673 0.0
C117 C 0.88426 0.52987 0.73063 0.0
C118 C 0.90317 0.55415 0.81623 0.0
N119 N 0.8926 0.55658 0.77876 0.0
H120 H 0.87285 0.5449 0.71366 0.0
H121 H 0.90956 0.56269 0.85336 0.0
H122 H 0.8608 0.53985 0.85158 0.0
H123 H 0.89535 0.58609 0.93299 0.0
O124 O 0.86507 0.56448 0.76489 0.0
O125 O 0.87926 0.59021 0.80504 0.0
O126 O 0.91131 0.58996 0.82893 0.0
C127 C 0.86528 0.57829 0.78123 0.0
H128 H 0.91589 0.61729 0.62277 0.0
H129 H 0.85759 0.53586 0.97092 0.0
H130 H 0.91352 0.53841 0.84084 0.0
H131 H 0.87631 0.5204 0.69771 0.0
Co132 Co 0.31119 0.88645 0.31517 0.0
C133 C 0.31316 0.89132 0.17973 0.0
C134 C 0.30334 0.9052 0.22618 0.0
C135 C 0.30242 0.90733 0.16494 0.0
N136 N 0.31031 0.89536 0.23583 0.0
N137 N 0.30861 0.89861 0.13583 0.0
H138 H 0.3174 0.88247 0.17024 0.0
H139 H 0.2987 0.91006 0.26148 0.0
C140 C 0.33088 0.92382 0.32986 0.0
O141 O 0.33833 0.92444 0.27819 0.0
N142 N 0.31143 0.87752 0.3944 0.0
C143 C 0.31178 0.86319 0.4063 0.0
C144 C 0.31152 0.86109 0.46815 0.0
C145 C 0.31114 0.88404 0.44897 0.0
N146 N 0.31121 0.87424 0.49467 0.0
C147 C 0.33699 0.88114 0.2618 0.0
C148 C 0.36264 0.90192 0.34045 0.0
C149 C 0.36594 0.89303 0.29598 0.0
C150 C 0.35293 0.88256 0.25618 0.0
C151 C 0.34663 0.90037 0.34372 0.0
N152 N 0.33416 0.89057 0.30319 0.0
H153 H 0.32673 0.87168 0.2351 0.0
H154 H 0.34413 0.90649 0.38086 0.0
H155 H 0.31222 0.85486 0.37239 0.0
H156 H 0.3106 0.89553 0.45534 0.0
O157 O 0.29867 0.86372 0.28383 0.0
O158 O 0.28717 0.87804 0.32329 0.0
O159 O 0.31972 0.90957 0.35157 0.0
C160 C 0.28507 0.86412 0.29885 0.0
H161 H 0.2973 0.91448 0.14348 0.0
H162 H 0.31177 0.85082 0.49188 0.0
H163 H 0.37226 0.90975 0.3732 0.0
H164 H 0.35479 0.87488 0.22308 0.0
Co165 Co 0.42466 0.31175 0.78341 0.0
C166 C 0.42233 0.31316 0.65026 0.0
C167 C 0.40135 0.31326 0.69425 0.0
C168 C 0.39947 0.31385 0.63251 0.0
N169 N 0.41575 0.31295 0.70521 0.0
N170 N 0.41263 0.31372 0.605 0.0
H171 H 0.43402 0.313 0.64361 0.0
H172 H 0.39271 0.31288 0.72859 0.0
C173 C 0.41938 0.33645 0.85563 0.0
O174 O 0.43542 0.34381 0.87166 0.0
N175 N 0.4331 0.30981 0.863 0.0
C176 C 0.44473 0.30513 0.87513 0.0
C177 C 0.44579 0.30363 0.93675 0.0
C178 C 0.42656 0.31 0.91791 0.0
N179 N 0.43442 0.30682 0.9637 0.0
C180 C 0.46058 0.33478 0.77185 0.0
C181 C 0.45823 0.36268 0.73737 0.0
C182 C 0.47423 0.36466 0.74904 0.0
C183 C 0.47535 0.35039 0.76486 0.0
C184 C 0.44375 0.34684 0.74572 0.0
N185 N 0.44501 0.33335 0.76641 0.0
H186 H 0.46178 0.32387 0.78125 0.0
H187 H 0.43147 0.34556 0.73755 0.0
H188 H 0.4515 0.30213 0.84183 0.0
H189 H 0.41569 0.31158 0.92451 0.0
O190 O 0.43166 0.29683 0.74917 0.0
O191 O 0.40663 0.28856 0.79198 0.0
O192 O 0.41305 0.32341 0.82126 0.0
C193 C 0.41681 0.28451 0.76493 0.0
H194 H 0.38901 0.31392 0.6096 0.0
H195 H 0.4542 0.30029 0.95975 0.0
H196 H 0.45687 0.37337 0.7239 0.0
H197 H 0.48755 0.35128 0.7716 0.0
Co198 Co 0.56779 0.88227 0.19606 0.0
C199 C 0.57097 0.88544 0.32903 0.0
C200 C 0.59292 0.90537 0.28498 0.0
C201 C 0.59522 0.90738 0.34681 0.0
N202 N 0.57769 0.89166 0.27404 0.0
N203 N 0.58142 0.89481 0.37447 0.0
H204 H 0.55864 0.87431 0.33549 0.0
H205 H 0.60183 0.91322 0.25052 0.0
C206 C 0.57465 0.91223 0.12075 0.0
O207 O 0.55872 0.90382 0.10331 0.0
N208 N 0.5581 0.87256 0.11703 0.0
C209 C 0.54333 0.85832 0.10472 0.0
C210 C 0.54204 0.85551 0.0432 0.0
C211 C 0.56588 0.87772 0.06258 0.0
N212 N 0.55618 0.86778 0.01661 0.0
C213 C 0.53307 0.8706 0.22872 0.0
C214 C 0.53653 0.90227 0.24397 0.0
C215 C 0.52044 0.88792 0.24877 0.0
C216 C 0.51884 0.8719 0.24319 0.0
C217 C 0.55047 0.90035 0.23093 0.0
N218 N 0.54841 0.88474 0.21838 0.0
H219 H 0.53173 0.85819 0.22695 0.0
H220 H 0.5629 0.9115 0.23075 0.0
H221 H 0.53423 0.85004 0.13756 0.0
H222 H 0.57854 0.88839 0.05677 0.0
O223 O 0.56009 0.85987 0.2275 0.0
O224 O 0.58489 0.87605 0.18263 0.0
O225 O 0.58025 0.90563 0.15882 0.0
C226 C 0.57452 0.86179 0.20909 0.0
H227 H 0.60638 0.91712 0.36957 0.0
H228 H 0.53143 0.84522 0.01992 0.0
H229 H 0.53833 0.91484 0.25078 0.0
H230 H 0.50666 0.8605 0.24893 0.0
Co231 Co 0.68265 0.57454 0.7136 0.0
C232 C 0.68124 0.57762 0.84888 0.0
C233 C 0.69231 0.60146 0.80262 0.0
C234 C 0.69293 0.60446 0.8638 0.0
N235 N 0.68473 0.58462 0.79298 0.0
N236 N 0.68599 0.58947 0.89289 0.0
H237 H 0.67566 0.56429 0.85787 0.0
H238 H 0.69736 0.61097 0.76735 0.0
C239 C 0.66351 0.59302 0.70331 0.0
O240 O 0.65694 0.58696 0.75679 0.0
N241 N 0.68114 0.56506 0.63431 0.0
C242 C 0.67685 0.54898 0.62144 0.0
C243 C 0.67667 0.54721 0.55953 0.0
C244 C 0.68365 0.57292 0.58047 0.0
N245 N 0.68095 0.56228 0.53368 0.0
C246 C 0.65766 0.5432 0.76771 0.0
C247 C 0.6306 0.53923 0.69879 0.0
C248 C 0.62813 0.5262 0.73854 0.0
C249 C 0.64195 0.52839 0.77348 0.0
C250 C 0.64655 0.55367 0.69372 0.0
N251 N 0.65977 0.5559 0.72956 0.0
H252 H 0.66835 0.54392 0.7914 0.0
H253 H 0.64835 0.56252 0.65821 0.0
H254 H 0.6738 0.53916 0.65474 0.0
H255 H 0.68745 0.58617 0.57591 0.0
O256 O 0.69541 0.56418 0.74125 0.0
O257 O 0.70656 0.5899 0.70122 0.0
O258 O 0.67395 0.58923 0.67942 0.0
C259 C 0.70885 0.57804 0.72411 0.0
H260 H 0.69862 0.61678 0.88524 0.0
H261 H 0.67324 0.53558 0.53561 0.0
H262 H 0.62044 0.53815 0.67022 0.0
H263 H 0.64094 0.51841 0.80284 0.0
Co264 Co 0.10603 0.68247 0.22391 0.0
C265 C 0.10241 0.68154 0.35914 0.0
C266 C 0.08357 0.68495 0.31387 0.0
C267 C 0.08134 0.68541 0.37525 0.0
N268 N 0.09639 0.68188 0.30339 0.0
N269 N 0.0932 0.68326 0.40369 0.0
H270 H 0.11372 0.6809 0.36748 0.0
H271 H 0.07669 0.68745 0.27933 0.0
C272 C 0.06893 0.66139 0.20087 0.0
O273 O 0.06795 0.65213 0.24801 0.0
N274 N 0.11567 0.68369 0.14487 0.0
C275 C 0.12923 0.68202 0.13247 0.0
C276 C 0.13156 0.6829 0.07069 0.0
C277 C 0.10995 0.68561 0.09078 0.0
N278 N 0.1194 0.68509 0.04454 0.0
C279 C 0.11015 0.65572 0.27614 0.0
C280 C 0.09273 0.6321 0.18672 0.0
C281 C 0.10026 0.62781 0.23362 0.0
C282 C 0.109 0.63988 0.27892 0.0
C283 C 0.09404 0.64802 0.18609 0.0
N284 N 0.10222 0.65949 0.23148 0.0
H285 H 0.11822 0.6652 0.30816 0.0
H286 H 0.089 0.65133 0.14752 0.0
H287 H 0.13664 0.6799 0.16594 0.0
H288 H 0.09906 0.68726 0.08536 0.0
O289 O 0.12854 0.69476 0.25721 0.0
O290 O 0.11409 0.70647 0.22044 0.0
O291 O 0.08315 0.67405 0.18537 0.0
C292 C 0.12804 0.70844 0.24432 0.0
H293 H 0.07221 0.68793 0.39719 0.0
H294 H 0.14114 0.68146 0.04681 0.0
H295 H 0.08646 0.62354 0.14929 0.0
H296 H 0.11527 0.63731 0.31562 0.0
Co297 Co 0.42144 0.1082 0.72801 0.0
C298 C 0.41908 0.10453 0.86106 0.0
C299 C 0.39728 0.08439 0.817 0.0
C300 C 0.39517 0.08211 0.87873 0.0
N301 N 0.4123 0.09838 0.80614 0.0
N302 N 0.40887 0.09481 0.90641 0.0
H303 H 0.43123 0.11589 0.86748 0.0
H304 H 0.38834 0.07657 0.78253 0.0
C305 C 0.41723 0.07875 0.65637 0.0
O306 O 0.43305 0.08826 0.6389 0.0
N307 N 0.43006 0.1183 0.64824 0.0
C308 C 0.4422 0.13437 0.63576 0.0
C309 C 0.44293 0.13699 0.57426 0.0
C310 C 0.4229 0.11181 0.59371 0.0
N311 N 0.43081 0.12275 0.54759 0.0
C312 C 0.45737 0.1217 0.74505 0.0
C313 C 0.45521 0.0914 0.77763 0.0
C314 C 0.47121 0.10568 0.76867 0.0
C315 C 0.47221 0.12108 0.75389 0.0
C316 C 0.44068 0.09256 0.76754 0.0
N317 N 0.44189 0.10733 0.74753 0.0
H318 H 0.45841 0.13379 0.73691 0.0
H319 H 0.42842 0.0814 0.77425 0.0
H320 H 0.44941 0.14409 0.66869 0.0
H321 H 0.4116 0.0996 0.58802 0.0
O322 O 0.42798 0.13019 0.76039 0.0
O323 O 0.4032 0.11296 0.71671 0.0
O324 O 0.41043 0.08477 0.69167 0.0
C325 C 0.41316 0.12741 0.74295 0.0
H326 H 0.38415 0.07215 0.9014 0.0
H327 H 0.45159 0.14865 0.55136 0.0
H328 H 0.45391 0.07933 0.79043 0.0
H329 H 0.48437 0.13258 0.74946 0.0
Co330 Co 0.31038 0.41888 0.2054 0.0
C331 C 0.3121 0.41592 0.34059 0.0
C332 C 0.30522 0.39276 0.29418 0.0
C333 C 0.30472 0.38985 0.35549 0.0
N334 N 0.31028 0.40923 0.28446 0.0
N335 N 0.30905 0.40444 0.38475 0.0
H336 H 0.31444 0.4285 0.34971 0.0
H337 H 0.30168 0.38333 0.25897 0.0
C338 C 0.33134 0.40257 0.18625 0.0
O339 O 0.33893 0.40915 0.23799 0.0
N340 N 0.30992 0.42797 0.12674 0.0
C341 C 0.31245 0.44356 0.11516 0.0
C342 C 0.31267 0.44569 0.05333 0.0
C343 C 0.30845 0.42073 0.07207 0.0
N344 N 0.31023 0.43135 0.02624 0.0
C345 C 0.33574 0.45021 0.25952 0.0
C346 C 0.36142 0.45608 0.17953 0.0
C347 C 0.36468 0.46801 0.22521 0.0
C348 C 0.35153 0.46488 0.26556 0.0
C349 C 0.34554 0.44148 0.17574 0.0
N350 N 0.33308 0.43827 0.217 0.0
H351 H 0.32547 0.44897 0.28714 0.0
H352 H 0.34309 0.43318 0.13757 0.0
H353 H 0.31445 0.45289 0.1493 0.0
H354 H 0.3067 0.40819 0.06596 0.0
O355 O 0.29717 0.42816 0.23838 0.0
O356 O 0.28659 0.40254 0.1979 0.0
O357 O 0.31965 0.40519 0.1668 0.0
C358 C 0.2839 0.41383 0.2236 0.0
H359 H 0.3012 0.37783 0.37671 0.0
H360 H 0.3146 0.45699 0.03022 0.0
H361 H 0.3708 0.45827 0.14527 0.0
H362 H 0.35323 0.47383 0.3009 0.0
Co363 Co 0.88475 0.31433 0.68796 0.0
C364 C 0.88742 0.31329 0.82351 0.0
C365 C 0.89994 0.30207 0.77669 0.0
C366 C 0.90131 0.30026 0.83792 0.0
N367 N 0.89149 0.31051 0.76744 0.0
N368 N 0.89343 0.30733 0.86738 0.0
H369 H 0.87965 0.31882 0.8327 0.0
H370 H 0.90464 0.29737 0.74106 0.0
C371 C 0.92243 0.33201 0.68389 0.0
O372 O 0.92249 0.33758 0.73884 0.0
N373 N 0.87793 0.31751 0.60866 0.0
C374 C 0.86698 0.32295 0.59611 0.0
C375 C 0.86573 0.32372 0.53421 0.0
C376 C 0.88308 0.31487 0.55458 0.0
N377 N 0.87585 0.31865 0.50817 0.0
C378 C 0.87923 0.33919 0.7472 0.0
C379 C 0.904 0.36709 0.68631 0.0
C380 C 0.89364 0.36933 0.72768 0.0
C381 C 0.88113 0.3551 0.75836 0.0
C382 C 0.90165 0.35092 0.67644 0.0
N383 N 0.88983 0.33724 0.70854 0.0
H384 H 0.86863 0.32833 0.76766 0.0
H385 H 0.90877 0.34939 0.64047 0.0
H386 H 0.86038 0.32613 0.62965 0.0
H387 H 0.89206 0.31048 0.54942 0.0
O388 O 0.86139 0.30214 0.71248 0.0
O389 O 0.87528 0.29043 0.67125 0.0
O390 O 0.9084 0.32266 0.65658 0.0
C391 C 0.86125 0.28854 0.69398 0.0
H392 H 0.90763 0.2942 0.85894 0.0
H393 H 0.85777 0.32749 0.51025 0.0
H394 H 0.9133 0.3776 0.65952 0.0
H395 H 0.87258 0.35616 0.78977 0.0
H396 H 0.06182 0.38656 0.37298 0.0
H397 H 0.03403 0.36897 0.42014 0.0
H398 H 0.0383 0.41305 0.50904 0.0
H399 H 0.066 0.43071 0.46239 0.0
H400 H 0.02467 0.36401 0.54478 0.0
H401 H -0.00106 0.40934 0.50057 0.0
H402 H 0.0027 0.43138 0.42718 0.0
H403 H 0.01678 0.40741 0.28976 0.0
H404 H 0.01287 0.3851 0.36206 0.0
H405 H 0.95445 0.34881 0.73067 0.0
H406 H 0.98122 0.36099 0.67516 0.0
H407 H 0.95384 0.34174 0.50764 0.0
H408 H 0.92698 0.32949 0.56272 0.0
H409 H 0.97801 0.37573 0.50203 0.0
H410 H 0.97476 0.32351 0.56323 0.0
H411 H 0.97126 0.30146 0.63611 0.0
H412 H 0.01458 0.33825 0.73601 0.0
H413 H 0.01813 0.36055 0.66425 0.0
C414 C 0.05683 0.39251 0.40249 0.0
C415 C 0.06605 0.41005 0.41356 0.0
C416 C 0.04102 0.38243 0.4296 0.0
C417 C 0.03412 0.38977 0.46756 0.0
C418 C 0.04337 0.40721 0.47931 0.0
C419 C 0.05919 0.41727 0.45258 0.0
C420 C 0.01708 0.37931 0.49415 0.0
C421 C 0.01443 0.3665 0.53533 0.0
C422 C 0.00373 0.38251 0.48122 0.0
C423 C 0.00574 0.39564 0.43692 0.0
C424 C 0.00275 0.40873 0.4546 0.0
C425 C 0.00493 0.42127 0.41321 0.0
C426 C 0.01003 0.42082 0.3539 0.0
C427 C 0.01289 0.40778 0.33577 0.0
C428 C 0.01071 0.39519 0.37696 0.0
C429 C 0.95412 0.34703 0.68208 0.0
C430 C 0.9386 0.33823 0.65107 0.0
C431 C 0.96942 0.35393 0.65051 0.0
C432 C 0.96948 0.35219 0.5874 0.0
C433 C 0.95403 0.34319 0.55638 0.0
C434 C 0.93871 0.33616 0.58798 0.0
C435 C 0.98565 0.36059 0.55352 0.0
C436 C 0.98818 0.3731 0.51112 0.0
C437 C -0.00114 0.35709 0.56529 0.0
C438 C 0.9967 0.34369 0.60848 0.0
C439 C 0.98347 0.3269 0.60096 0.0
C440 C 0.98148 0.31436 0.64205 0.0
C441 C 0.99268 0.31845 0.69068 0.0
C442 C 0.00592 0.33509 0.6983 0.0
C443 C 0.00795 0.34767 0.65738 0.0
H444 H 0.99112 0.30872 0.72243 0.0
H445 H 0.01174 0.43056 0.32196 0.0
H446 H 0.6531 0.06631 0.94694 0.0
H447 H 0.64076 0.03914 0.9995 0.0
H448 H 0.65655 0.0187 0.85299 0.0
H449 H 0.66744 0.04546 0.7981 0.0
H450 H 0.6279 0.99724 0.87632 0.0
H451 H 0.67471 0.02874 0.00577 0.0
H452 H 0.6945 0.05227 0.07129 0.0
H453 H 0.65424 0.0411 0.19665 0.0
H454 H 0.63406 0.01784 0.131 0.0
H455 H 0.60892 0.932 0.13774 0.0
H456 H 0.62796 0.95956 0.09182 0.0
H457 H 0.58538 0.95857 1.00219 0.0
H458 H 0.56638 0.93094 0.04661 0.0
H459 H 0.63124 0.9897 0.09733 0.0
H460 H 0.59604 0.97549 0.86372 0.0
H461 H 0.58121 0.9516 0.79263 0.0
H462 H 0.60643 0.92704 0.87134 0.0
H463 H 0.62157 0.95083 0.94184 0.0
C464 C 0.65401 0.056 0.92639 0.0
C465 C 0.66109 0.05782 0.86856 0.0
C466 C 0.64712 0.04051 0.9567 0.0
C467 C 0.64788 0.0268 0.93086 0.0
C468 C 0.65566 0.02896 0.87392 0.0
C469 C 0.66193 0.04424 0.84261 0.0
C470 C 0.63932 0.00985 0.96045 0.0
C471 C 0.6288 0.99568 0.92463 0.0
C472 C 0.64072 0.00756 0.02335 0.0
C473 C 0.65282 0.0216 0.06306 0.0
C474 C 0.67002 0.0314 0.04698 0.0
C475 C 0.68131 0.04471 0.08413 0.0
C476 C 0.67561 0.04824 0.13792 0.0
C477 C 0.65861 0.03842 0.15477 0.0
C478 C 0.64724 0.02517 0.11757 0.0
C479 C 0.60361 0.93767 0.10829 0.0
C480 C 0.58614 0.92922 0.09546 0.0
C481 C 0.61451 0.95344 0.08224 0.0
C482 C 0.60814 0.96102 0.04291 0.0
C483 C 0.59064 0.95281 0.03143 0.0
C484 C 0.57977 0.93703 0.05709 0.0
C485 C 0.61967 0.97744 0.01318 0.0
C486 C 0.63062 0.99141 0.04897 0.0
C487 C 0.61932 0.9795 0.94983 0.0
C488 C 0.60982 0.96489 0.90847 0.0
C489 C 0.59841 0.96498 0.86576 0.0
C490 C 0.58997 0.95146 0.82546 0.0
C491 C 0.59287 0.9378 0.8273 0.0
C492 C 0.60415 0.93759 0.86973 0.0
C493 C 0.61265 0.95107 0.91001 0.0
H494 H 0.58642 0.92742 0.79569 0.0
H495 H 0.68436 0.05855 0.16665 0.0
H496 H 0.67352 0.6064 0.58989 0.0
H497 H 0.66141 0.61978 0.52715 0.0
H498 H 0.62641 0.61317 0.67041 0.0
H499 H 0.63865 0.60011 0.73391 0.0
H500 H 0.63017 0.60668 0.48392 0.0
H501 H 0.61632 0.64348 0.66611 0.0
H502 H 0.62827 0.65885 0.76176 0.0
H503 H 0.67786 0.66923 0.70787 0.0
H504 H 0.66623 0.6542 0.61138 0.0
H505 H 0.56513 0.62645 0.4153 0.0
H506 H 0.58353 0.6173 0.46265 0.0
H507 H 0.62712 0.66631 0.42725 0.0
H508 H 0.60884 0.67547 0.37853 0.0
H509 H 0.62254 0.65432 0.55147 0.0
H510 H 0.62598 0.63724 0.34948 0.0
H511 H 0.61488 0.62298 0.25149 0.0
H512 H 0.58808 0.57489 0.34166 0.0
H513 H 0.59889 0.58889 0.44031 0.0
C514 C 0.66338 0.60799 0.60839 0.0
C515 C 0.65706 0.60222 0.66699 0.0
C516 C 0.65644 0.61558 0.57235 0.0
C517 C 0.64311 0.6176 0.59427 0.0
C518 C 0.6369 0.61202 0.65297 0.0
C519 C 0.64388 0.60449 0.68914 0.0
C520 C 0.63518 0.62485 0.55489 0.0
C521 C 0.62861 0.61717 0.4986 0.0
C522 C 0.63324 0.63862 0.57377 0.0
C523 C 0.64038 0.64766 0.63168 0.0
C524 C 0.62978 0.6491 0.67459 0.0
C525 C 0.6365 0.65775 0.72895 0.0
C526 C 0.65381 0.66498 0.74096 0.0
C527 C 0.66444 0.6636 0.69856 0.0
C528 C 0.65779 0.65501 0.64403 0.0
C529 C 0.57865 0.63521 0.41708 0.0
C530 C 0.58558 0.65167 0.39339 0.0
C531 C 0.58913 0.62995 0.44381 0.0
C532 C 0.60663 0.64113 0.44803 0.0
C533 C 0.61362 0.65751 0.42399 0.0
C534 C 0.60319 0.66269 0.39617 0.0
C535 C 0.6174 0.63602 0.48142 0.0
C536 C 0.62434 0.644 0.53673 0.0
C537 C 0.61974 0.62261 0.46152 0.0
C538 C 0.61311 0.61414 0.40235 0.0
C539 C 0.61759 0.62365 0.34849 0.0
C540 C 0.61138 0.6156 0.2928 0.0
C541 C 0.60073 0.59804 0.29037 0.0
C542 C 0.59629 0.58849 0.34363 0.0
C543 C 0.60248 0.59647 0.39943 0.0
H544 H 0.59597 0.59184 0.2472 0.0
H545 H 0.65899 0.67167 0.78308 0.0
H546 H 0.06432 0.68099 0.11838 0.0
H547 H 0.0397 0.67274 0.05337 0.0
H548 H 0.01528 0.62254 0.13105 0.0
H549 H 0.03954 0.63096 0.19794 0.0
H550 H 0.02747 0.65162 0.96784 0.0
H551 H 0.97283 0.6038 0.12498 0.0
H552 H 0.9652 0.60021 0.23331 0.0
H553 H -0.00278 0.65367 0.26179 0.0
H554 H 0.00481 0.65764 0.15349 0.0
H555 H 0.95596 0.59435 0.79762 0.0
H556 H 0.98059 0.60926 0.86376 0.0
H557 H 0.95506 0.6309 0.96244 0.0
H558 H 0.93012 0.6154 0.89808 0.0
H559 H 0.96785 0.62 0.03846 0.0
H560 H 0.98979 0.65465 0.86404 0.0
H561 H -0.00244 0.66222 0.75697 0.0
H562 H 0.03093 0.64175 0.76497 0.0
H563 H 0.02316 0.63378 0.87182 0.0
C564 C 0.0536 0.66825 0.12205 0.0
C565 C 0.0538 0.65663 0.16342 0.0
C566 C 0.03956 0.66354 0.08477 0.0
C567 C 0.02553 0.64708 0.08768 0.0
C568 C 0.02575 0.63545 0.12894 0.0
C569 C 0.03966 0.64024 0.16698 0.0
C570 C 0.01104 0.6418 0.04553 0.0
C571 C 0.01442 0.64478 0.98331 0.0
C572 C 0.99401 0.63324 0.06577 0.0
C573 C 0.98952 0.63098 0.13112 0.0
C574 C 0.9782 0.6148 0.15429 0.0
C575 C 0.97388 0.6127 0.21571 0.0
C576 C 0.98077 0.62669 0.25444 0.0
C577 C 0.99195 0.64283 0.23179 0.0
C578 C 0.99628 0.64501 0.17039 0.0
C579 C 0.95569 0.60246 0.83295 0.0
C580 C 0.94113 0.6037 0.84281 0.0
C581 C 0.96982 0.61105 0.87058 0.0
C582 C 0.96979 0.62137 0.91779 0.0
C583 C 0.95539 0.62298 0.92649 0.0
C584 C 0.94116 0.61416 0.8896 0.0
C585 C 0.98427 0.62954 0.96059 0.0
C586 C 0.98089 0.62701 0.02296 0.0
C587 C 0.00129 0.63901 0.94061 0.0
C588 C 0.00576 0.64348 0.8759 0.0
C589 C -0.00135 0.6516 0.84283 0.0
C590 C 0.00309 0.65599 0.78218 0.0
C591 C 0.01471 0.65244 0.75415 0.0
C592 C 0.02192 0.64447 0.78671 0.0
C593 C 0.0175 0.64002 0.84733 0.0
H594 H 0.01816 0.65589 0.70725 0.0
H595 H 0.97741 0.62504 0.30197 0.0
H596 H 0.42424 0.0654 0.55792 0.0
H597 H 0.40646 0.03746 0.51313 0.0
H598 H 0.36955 0.02487 0.65499 0.0
H599 H 0.38721 0.05303 0.70004 0.0
H600 H 0.37882 0.99779 0.61388 0.0
H601 H 0.35761 0.03387 0.5464 0.0
H602 H 0.36321 0.06196 0.51229 0.0
H603 H 0.3875 0.05764 0.35217 0.0
H604 H 0.38244 0.02968 0.38617 0.0
H605 H 0.31921 0.92704 0.44054 0.0
H606 H 0.3305 0.95245 0.50352 0.0
H607 H 0.36705 0.98111 0.36462 0.0
H608 H 0.3557 0.95588 0.30105 0.0
H609 H 0.35428 -0.00068 0.41461 0.0
H610 H 0.37683 0.9642 0.48352 0.0
H611 H 0.37485 0.93792 0.52253 0.0
H612 H 0.34967 0.941 0.6822 0.0
H613 H 0.35101 0.96703 0.64329 0.0
C614 C 0.41246 0.05664 0.58013 0.0
C615 C 0.40704 0.06143 0.6322 0.0
C616 C 0.40235 0.04069 0.55457 0.0
C617 C 0.38676 0.0292 0.58094 0.0
C618 C 0.38161 0.0336 0.63437 0.0
C619 C 0.39162 0.0497 0.65961 0.0
C620 C 0.37531 0.01333 0.54878 0.0
C621 C 0.37308 -0.00204 0.57101 0.0
C622 C 0.36811 0.01376 0.49264 0.0
C623 C 0.36979 0.02977 0.4691 0.0
C624 C 0.36415 0.03892 0.50392 0.0
C625 C 0.36727 0.05482 0.48475 0.0
C626 C 0.37584 0.06163 0.43045 0.0
C627 C 0.38097 0.05238 0.39446 0.0
C628 C 0.37796 0.03649 0.41364 0.0
C629 C 0.32954 0.93878 0.42312 0.0
C630 C 0.33668 0.93941 0.366 0.0
C631 C 0.33599 0.95328 0.45923 0.0
C632 C 0.34975 0.9686 0.43901 0.0
C633 C 0.35642 0.96941 0.38106 0.0
C634 C 0.34997 0.95495 0.34489 0.0
C635 C 0.35789 0.98361 0.47911 0.0
C636 C 0.35959 -0.00107 0.45817 0.0
C637 C 0.36458 0.98306 0.53655 0.0
C638 C 0.36381 0.96744 0.56009 0.0
C639 C 0.37068 0.95917 0.52663 0.0
C640 C 0.36966 0.94431 0.54871 0.0
C641 C 0.36204 0.93774 0.60466 0.0
C642 C 0.35544 0.94603 0.63868 0.0
C643 C 0.3563 0.96082 0.61659 0.0
H644 H 0.3613 0.92626 0.62176 0.0
H645 H 0.37857 0.07411 0.41657 0.0
H646 H 0.38478 0.32073 0.85137 0.0
H647 H 0.36657 0.33026 0.89761 0.0
H648 H 0.41075 0.37514 0.9638 0.0
H649 H 0.42905 0.36572 0.91805 0.0
H650 H 0.36427 0.33653 0.01921 0.0
H651 H 0.40249 0.4078 0.95611 0.0
H652 H 0.42048 0.42583 0.87271 0.0
H653 H 0.39511 0.38435 0.74835 0.0
H654 H 0.37682 0.36615 0.83081 0.0
H655 H 0.35195 0.39013 0.21863 0.0
H656 H 0.36325 0.3765 0.15308 0.0
H657 H 0.33606 0.38109 1.00108 0.0
H658 H 0.32465 0.39468 0.06624 0.0
H659 H 0.36961 0.39242 0.97538 0.0
H660 H 0.32229 0.34307 0.05655 0.0
H661 H 0.30313 0.32454 0.13665 0.0
H662 H 0.3441 0.32097 0.21745 0.0
H663 H 0.36357 0.33962 0.13804 0.0
C664 C 0.39063 0.33269 0.87543 0.0
C665 C 0.40836 0.34248 0.88113 0.0
C666 C 0.3802 0.33807 0.90192 0.0
C667 C 0.38734 0.35344 0.9337 0.0
C668 C 0.40502 0.36333 0.93886 0.0
C669 C 0.41545 0.35789 0.9129 0.0
C670 C 0.37636 0.35893 0.96352 0.0
C671 C 0.36536 0.34871 0.00946 0.0
C672 C 0.37758 0.37466 0.94987 0.0
C673 C 0.38839 0.38557 0.8998 0.0
C674 C 0.4007 0.40255 0.91092 0.0
C675 C 0.41096 0.4128 0.86382 0.0
C676 C 0.40897 0.40623 0.80531 0.0
C677 C 0.39668 0.38941 0.79374 0.0
C678 C 0.38639 0.37911 0.84067 0.0
C679 C 0.34828 0.38813 0.17137 0.0
C680 C 0.33741 0.39347 0.14764 0.0
C681 C 0.35468 0.38028 0.13407 0.0
C682 C 0.35039 0.37772 0.0724 0.0
C683 C 0.33946 0.38293 0.04861 0.0
C684 C 0.33292 0.39063 0.08601 0.0
C685 C 0.35799 0.3703 0.03244 0.0
C686 C 0.36839 0.38017 0.98469 0.0
C687 C 0.35607 0.35417 0.04397 0.0
C688 C 0.34441 0.34283 0.09154 0.0
C689 C 0.32724 0.33841 0.09159 0.0
C690 C 0.31632 0.32786 0.13679 0.0
C691 C 0.32241 0.32158 0.1821 0.0
C692 C 0.33942 0.32582 0.18222 0.0
C693 C 0.35039 0.33635 0.13706 0.0
H694 H 0.31394 0.31343 0.2171 0.0
H695 H 0.41694 0.41418 0.76892 0.0
H696 H 0.12562 0.62156 0.26695 0.0
H697 H 0.12538 0.59477 0.26369 0.0
H698 H 0.07456 0.57005 0.19146 0.0
H699 H 0.07427 0.59667 0.19824 0.0
H700 H 0.07697 0.55028 0.27092 0.0
H701 H 0.10954 0.58078 0.10006 0.0
H702 H 0.13171 0.60499 0.04303 0.0
H703 H 0.17023 0.60291 0.1485 0.0
H704 H 0.14828 0.57883 0.20681 0.0
H705 H 0.08421 0.4778 0.18625 0.0
H706 H 0.08163 0.50314 0.17598 0.0
H707 H 0.12628 0.53131 0.28586 0.0
H708 H 0.12856 0.50599 0.299 0.0
H709 H 0.12516 0.54805 0.17581 0.0
H710 H 0.09068 0.51814 0.35097 0.0
H711 H 0.06764 0.49312 0.40188 0.0
H712 H 0.03147 0.49326 0.2775 0.0
H713 H 0.05435 0.51816 0.22527 0.0
C714 C 0.11424 0.6104 0.2514 0.0
C715 C 0.09995 0.61133 0.23288 0.0
C716 C 0.11423 0.59511 0.24863 0.0
C717 C 0.10009 0.58045 0.22608 0.0
C718 C 0.08568 0.58122 0.20855 0.0
C719 C 0.0856 0.5965 0.21197 0.0
C720 C 0.10039 0.56435 0.22146 0.0
C721 C 0.08736 0.54975 0.24914 0.0
C722 C 0.11396 0.56361 0.1932 0.0
C723 C 0.12724 0.57807 0.15814 0.0
C724 C 0.12273 0.58556 0.11141 0.0
C725 C 0.13526 0.59925 0.0788 0.0
C726 C 0.15237 0.60551 0.09221 0.0
C727 C 0.15698 0.59806 0.13819 0.0
C728 C 0.14449 0.58437 0.17099 0.0
C729 C 0.09341 0.48931 0.20878 0.0
C730 C 0.10658 0.48976 0.24367 0.0
C731 C 0.09197 0.50381 0.20241 0.0
C732 C 0.10376 0.51903 0.23025 0.0
C733 C 0.11713 0.51967 0.26373 0.0
C734 C 0.11845 0.50518 0.27083 0.0
C735 C 0.10199 0.53426 0.22627 0.0
C736 C 0.11471 0.54863 0.19689 0.0
C737 C 0.08801 0.53471 0.25195 0.0
C738 C 0.07425 0.51988 0.2838 0.0
C739 C 0.07783 0.51275 0.33417 0.0
C740 C 0.0648 0.49861 0.36332 0.0
C741 C 0.04811 0.49157 0.34282 0.0
C742 C 0.04441 0.4987 0.29326 0.0
C743 C 0.0574 0.51283 0.26389 0.0
H744 H 0.03804 0.48061 0.36543 0.0
H745 H 0.16205 0.61611 0.06691 0.0
H746 H 0.4972 0.11747 0.68809 0.0
H747 H 0.52278 0.1151 0.69351 0.0
H748 H 0.50599 0.08887 0.8642 0.0
H749 H 0.48023 0.0911 0.85879 0.0
H750 H 0.54088 0.11615 0.86068 0.0
H751 H 0.50211 0.06612 0.74972 0.0
H752 H 0.48171 0.05043 0.66821 0.0
H753 H 0.51994 0.07832 0.53463 0.0
H754 H 0.5405 0.09437 0.61539 0.0
H755 H 0.60285 0.09213 0.88408 0.0
H756 H 0.57569 0.09111 0.87948 0.0
H757 H 0.58493 0.10705 0.69266 0.0
H758 H 0.6117 0.10697 0.69554 0.0
H759 H 0.5531 0.08421 0.70597 0.0
H760 H 0.59148 0.13507 0.81124 0.0
H761 H 0.61239 0.15241 0.88923 0.0
H762 H 0.57593 0.12532 0.02887 0.0
H763 H 0.55485 0.10765 0.9517 0.0
C764 C 0.49902 0.11128 0.72691 0.0
C765 C 0.48679 0.10448 0.77309 0.0
C766 C 0.51355 0.10985 0.72976 0.0
C767 C 0.51617 0.10173 0.77905 0.0
C768 C 0.50412 0.09514 0.82574 0.0
C769 C 0.48943 0.09635 0.82249 0.0
C770 C 0.53159 0.10025 0.78177 0.0
C771 C 0.54347 0.10895 0.82753 0.0
C772 C 0.53511 0.09129 0.73725 0.0
C773 C 0.5228 0.08156 0.68862 0.0
C774 C 0.50613 0.06901 0.70296 0.0
C775 C 0.49454 0.06003 0.6569 0.0
C776 C 0.49951 0.0634 0.59628 0.0
C777 C 0.5161 0.07573 0.58161 0.0
C778 C 0.52773 0.08477 0.62752 0.0
C779 C 0.59901 0.09505 0.84147 0.0
C780 C 0.60957 0.09966 0.79013 0.0
C781 C 0.58353 0.09471 0.83924 0.0
C782 C 0.57841 0.09936 0.78613 0.0
C783 C 0.58867 0.10353 0.73432 0.0
C784 C 0.60406 0.10364 0.73623 0.0
C785 C 0.56253 0.10016 0.78501 0.0
C786 C 0.55055 0.09136 0.73943 0.0
C787 C 0.55902 0.10927 0.8292 0.0
C788 C 0.57165 0.11992 0.87572 0.0
C789 C 0.58796 0.13272 0.8586 0.0
C790 C 0.59984 0.14263 0.90265 0.0
C791 C 0.59551 0.13994 0.96397 0.0
C792 C 0.57927 0.12737 0.98135 0.0
C793 C 0.56735 0.11742 0.93748 0.0
H794 H 0.60472 0.14762 0.998 0.0
H795 H 0.49052 0.05643 0.56067 0.0
H796 H 0.51555 0.59988 0.18114 0.0
H797 H 0.49011 0.57196 0.17868 0.0
H798 H 0.46333 0.59101 0.28402 0.0
H799 H 0.48895 0.61847 0.29083 0.0
H800 H 0.45608 0.56218 0.32619 0.0
H801 H 0.45767 0.58321 0.12559 0.0
H802 H 0.47011 0.59512 0.02587 0.0
H803 H 0.4752 0.55167 0.98815 0.0
H804 H 0.46298 0.53959 0.08804 0.0
H805 H 0.37095 0.49985 0.25606 0.0
H806 H 0.39822 0.52606 0.25944 0.0
H807 H 0.4234 0.49915 0.20107 0.0
H808 H 0.39628 0.47261 0.20036 0.0
H809 H 0.43211 0.5305 0.13505 0.0
H810 H 0.4283 0.50928 0.33784 0.0
H811 H 0.41425 0.49793 0.43597 0.0
H812 H 0.41156 0.54303 0.467 0.0
H813 H 0.42537 0.55454 0.36857 0.0
C814 C 0.50432 0.59813 0.20435 0.0
C815 C 0.50439 0.61157 0.23603 0.0
C816 C 0.48968 0.58216 0.20217 0.0
C817 C 0.47469 0.57939 0.2305 0.0
C818 C 0.4747 0.5928 0.26169 0.0
C819 C 0.48936 0.60863 0.26476 0.0
C820 C 0.45905 0.56248 0.22917 0.0
C821 C 0.45079 0.55538 0.2842 0.0
C822 C 0.45225 0.55337 0.17464 0.0
C823 C 0.45959 0.56059 0.11456 0.0
C824 C 0.46157 0.57626 0.09623 0.0
C825 C 0.46856 0.58303 0.03964 0.0
C826 C 0.47349 0.57418 1.00078 0.0
C827 C 0.4714 0.55852 0.01835 0.0
C828 C 0.46444 0.5517 0.07492 0.0
C829 C 0.38227 0.49935 0.24512 0.0
C830 C 0.38134 0.484 0.22824 0.0
C831 C 0.39784 0.5144 0.24654 0.0
C832 C 0.41276 0.51448 0.23054 0.0
C833 C 0.41197 0.49931 0.21328 0.0
C834 C 0.39643 0.48418 0.21268 0.0
C835 C 0.42918 0.53049 0.23174 0.0
C836 C 0.43755 0.53735 0.17683 0.0
C837 C 0.43592 0.53954 0.28615 0.0
C838 C 0.42773 0.5327 0.34557 0.0
C839 C 0.42458 0.51671 0.36534 0.0
C840 C 0.41669 0.51026 0.42107 0.0
C841 C 0.41198 0.51974 0.45764 0.0
C842 C 0.4152 0.5357 0.43861 0.0
C843 C 0.42307 0.5422 0.38288 0.0
H844 H 0.40587 0.51472 0.50077 0.0
H845 H 0.4789 0.57944 0.95698 0.0
H846 H 0.86947 0.49511 0.75613 0.0
H847 H 0.87102 0.46915 0.75239 0.0
H848 H 0.92551 0.49849 0.76609 0.0
H849 H 0.92409 0.52465 0.7686 0.0
H850 H 0.91483 0.47331 0.67998 0.0
H851 H 0.90316 0.47829 0.88777 0.0
H852 H 0.888 0.48224 0.97297 0.0
H853 H 0.84218 0.4372 0.92127 0.0
H854 H 0.85701 0.43311 0.83517 0.0
H855 H 0.9225 0.40031 0.7375 0.0
H856 H 0.92457 0.42805 0.74728 0.0
H857 H 0.87001 0.40403 0.74419 0.0
H858 H 0.86786 0.37636 0.73449 0.0
H859 H 0.88303 0.42773 0.83026 0.0
H860 H 0.89397 0.42381 0.61896 0.0
H861 H 0.90879 0.41982 0.53267 0.0
H862 H 0.95565 0.46276 0.59019 0.0
H863 H 0.94113 0.46687 0.67735 0.0
C864 C 0.88181 0.49608 0.75756 0.0
C865 C 0.89667 0.51193 0.76255 0.0
C866 C 0.88266 0.48122 0.75603 0.0
C867 C 0.89837 0.4819 0.7597 0.0
C868 C 0.91326 0.49771 0.76348 0.0
C869 C 0.91242 0.5126 0.76525 0.0
C870 C 0.89913 0.46605 0.75971 0.0
C871 C 0.90812 0.46345 0.7134 0.0
C872 C 0.89013 0.4531 0.80278 0.0
C873 C 0.88118 0.45548 0.85469 0.0
C874 C 0.88982 0.4693 0.89427 0.0
C875 C 0.88129 0.47155 0.94278 0.0
C876 C 0.86413 0.46 0.95245 0.0
C877 C 0.85547 0.44615 0.91369 0.0
C878 C 0.86394 0.44385 0.86506 0.0
C879 C 0.91096 0.40097 0.73876 0.0
C880 C 0.89502 0.38615 0.73537 0.0
C881 C 0.91216 0.41681 0.74435 0.0
C882 C 0.89744 0.41812 0.74596 0.0
C883 C 0.88153 0.40332 0.74331 0.0
C884 C 0.88032 0.3875 0.73797 0.0
C885 C 0.89849 0.43485 0.74991 0.0
C886 C 0.88985 0.43764 0.79708 0.0
C887 C 0.90777 0.44794 0.70753 0.0
C888 C 0.9165 0.44553 0.65503 0.0
C889 C 0.90746 0.43232 0.61348 0.0
C890 C 0.9158 0.43005 0.56437 0.0
C891 C 0.93316 0.441 0.55606 0.0
C892 C 0.94221 0.45427 0.59675 0.0
C893 C 0.93393 0.45658 0.64599 0.0
H894 H 0.9396 0.43922 0.518 0.0
H895 H 0.85754 0.46176 0.99004 0.0
H896 H 0.4974 0.87467 0.34049 0.0
H897 H 0.47181 0.87679 0.35378 0.0
H898 H 0.48357 0.90629 0.18941 0.0
H899 H 0.50962 0.90497 0.17834 0.0
H900 H 0.47198 0.91882 0.26442 0.0
H901 H 0.45288 0.86198 0.199 0.0
H902 H 0.45008 0.83365 0.20164 0.0
H903 H 0.42711 0.8247 0.37761 0.0
H904 H 0.42997 0.85309 0.37634 0.0
H905 H 0.38666 0.89966 0.19838 0.0
H906 H 0.41381 0.90003 0.19503 0.0
H907 H 0.40916 0.88759 0.3851 0.0
H908 H 0.38223 0.88756 0.38898 0.0
H909 H 0.41678 0.86664 0.30034 0.0
H910 H 0.43546 0.92457 0.3581 0.0
H911 H 0.43737 0.95237 0.34625 0.0
H912 H 0.4601 0.95824 0.17103 0.0
H913 H 0.45808 0.93033 0.18146 0.0
C914 C 0.49449 0.88168 0.3076 0.0
C915 C 0.50534 0.88963 0.25836 0.0
C916 C 0.47984 0.8828 0.31488 0.0
C917 C 0.47551 0.89139 0.27186 0.0
C918 C 0.48658 0.89958 0.22322 0.0
C919 C 0.50143 0.89881 0.2168 0.0
C920 C 0.4594 0.89173 0.27695 0.0
C921 C 0.45992 0.90735 0.27159 0.0
C922 C 0.44359 0.87683 0.28702 0.0
C923 C 0.4418 0.85973 0.28783 0.0
C924 C 0.44734 0.85402 0.23843 0.0
C925 C 0.44573 0.83794 0.23966 0.0
C926 C 0.43847 0.8274 0.28983 0.0
C927 C 0.43276 0.83289 0.33882 0.0
C928 C 0.43436 0.84897 0.33785 0.0
C929 C 0.39151 0.89709 0.23939 0.0
C930 C 0.38247 0.89366 0.29397 0.0
C931 C 0.40697 0.89734 0.23748 0.0
C932 C 0.41342 0.89387 0.28988 0.0
C933 C 0.40435 0.89032 0.34431 0.0
C934 C 0.38907 0.8904 0.34651 0.0
C935 C 0.42951 0.89364 0.28756 0.0
C936 C 0.42892 0.87805 0.29335 0.0
C937 C 0.44516 0.90847 0.27648 0.0
C938 C 0.44645 0.92528 0.27031 0.0
C939 C 0.44071 0.93171 0.3168 0.0
C940 C 0.44185 0.94751 0.31039 0.0
C941 C 0.44881 0.95705 0.25785 0.0
C942 C 0.45469 0.95083 0.21167 0.0
C943 C 0.45356 0.93503 0.21783 0.0
H944 H 0.44968 0.96928 0.25298 0.0
H945 H 0.43723 0.81496 0.29069 0.0
H946 H 0.49895 0.37912 0.83421 0.0
H947 H 0.52451 0.40713 0.83127 0.0
H948 H 0.51002 0.41625 0.65545 0.0
H949 H 0.48425 0.38822 0.65844 0.0
H950 H 0.54508 0.42364 0.66772 0.0
H951 H 0.50455 0.43534 0.76404 0.0
H952 H 0.48291 0.43088 0.8402 0.0
H953 H 0.51899 0.4417 0.98277 0.0
H954 H 0.54078 0.44597 0.90745 0.0
H955 H 0.60648 0.50982 0.64391 0.0
H956 H 0.57982 0.48315 0.64599 0.0
H957 H 0.58624 0.4782 0.83712 0.0
H958 H 0.61242 0.5056 0.83645 0.0
H959 H 0.5547 0.46849 0.8161 0.0
H960 H 0.59488 0.45597 0.72621 0.0
H961 H 0.61704 0.4592 0.65448 0.0
H962 H 0.58275 0.44845 0.50574 0.0
H963 H 0.56044 0.44539 0.57654 0.0
C964 C 0.50126 0.38708 0.79486 0.0
C965 C 0.48969 0.38155 0.74648 0.0
C966 C 0.51578 0.40307 0.79339 0.0
C967 C 0.51906 0.41372 0.74328 0.0
C968 C 0.50764 0.40817 0.69452 0.0
C969 C 0.49295 0.39226 0.69638 0.0
C970 C 0.53451 0.4306 0.7419 0.0
C971 C 0.54712 0.43358 0.69943 0.0
C972 C 0.5373 0.44325 0.78478 0.0
C973 C 0.52425 0.44081 0.83011 0.0
C974 C 0.50783 0.43662 0.81165 0.0
C975 C 0.49554 0.43416 0.85466 0.0
C976 C 0.49956 0.43596 0.91629 0.0
C977 C 0.51589 0.44029 0.93502 0.0
C978 C 0.52822 0.44274 0.89218 0.0
C979 C 0.60212 0.50331 0.68681 0.0
C980 C 0.61167 0.50997 0.74012 0.0
C981 C 0.58695 0.48786 0.68766 0.0
C982 C 0.58116 0.47847 0.74143 0.0
C983 C 0.59049 0.48516 0.79496 0.0
C984 C 0.60557 0.50077 0.79436 0.0
C985 C 0.56542 0.46166 0.74169 0.0
C986 C 0.55272 0.45863 0.7841 0.0
C987 C 0.56267 0.44883 0.69937 0.0
C988 C 0.57604 0.45062 0.65665 0.0
C989 C 0.5921 0.45442 0.67817 0.0
C990 C 0.60468 0.4562 0.63768 0.0
C991 C 0.60132 0.45407 0.57558 0.0
C992 C 0.58535 0.45012 0.55385 0.0
C993 C 0.57272 0.44835 0.59414 0.0
H994 H 0.61108 0.45545 0.54431 0.0
H995 H 0.49003 0.43405 0.94953 0.0
H996 H 0.10974 0.40747 0.54505 0.0
H997 H 0.10484 0.40218 0.65385 0.0
H998 H 0.13218 0.45597 0.68773 0.0
H999 H 0.13707 0.46136 0.5795 0.0
H1000 H 0.14128 0.43998 0.76749 0.0
H1001 H 0.08843 0.43263 0.69069 0.0
H1002 H 0.06365 0.42013 0.62252 0.0
H1003 H 0.04869 0.37056 0.69166 0.0
H1004 H 0.0735 0.38274 0.75967 0.0
H1005 H 0.11537 0.4414 0.06943 0.0
H1006 H 0.11993 0.44516 0.96013 0.0
H1007 H 0.09212 0.39099 0.93552 0.0
H1008 H 0.0876 0.3871 0.04465 0.0
H1009 H 0.08313 0.4061 0.8507 0.0
H1010 H 0.13529 0.41327 0.92927 0.0
H1011 H 0.16047 0.4254 0.99543 0.0
H1012 H 0.17711 0.4748 0.92135 0.0
H1013 H 0.15184 0.46305 0.85558 0.0
C1014 C 0.11464 0.41819 0.5755 0.0
C1015 C 0.12383 0.43487 0.55303 0.0
C1016 C 0.11184 0.41514 0.63788 0.0
C1017 C 0.118 0.42868 0.67922 0.0
C1018 C 0.12734 0.4453 0.65697 0.0
C1019 C 0.13018 0.44835 0.59479 0.0
C1020 C 0.1147 0.42566 0.74561 0.0
C1021 C 0.12854 0.43275 0.78568 0.0
C1022 C 0.09812 0.41586 0.76951 0.0
C1023 C 0.08291 0.40858 0.72993 0.0
C1024 C 0.07989 0.41905 0.69119 0.0
C1025 C 0.06583 0.41203 0.65259 0.0
C1026 C 0.05461 0.39457 0.65269 0.0
C1027 C 0.05738 0.38409 0.69161 0.0
C1028 C 0.07143 0.39105 0.73026 0.0
C1029 C 0.11033 0.43026 0.041 0.0
C1030 C 0.10115 0.41394 0.06639 0.0
C1031 C 0.11291 0.43244 0.97828 0.0
C1032 C 0.10651 0.41835 0.93934 0.0
C1033 C 0.09716 0.40207 0.9644 0.0
C1034 C 0.09455 0.39988 0.02707 0.0
C1035 C 0.10972 0.4206 0.87267 0.0
C1036 C 0.09587 0.41334 0.83254 0.0
C1037 C 0.12631 0.43021 0.84862 0.0
C1038 C 0.14157 0.4373 0.88789 0.0
C1039 C 0.14424 0.42674 0.92741 0.0
C1040 C 0.15854 0.43354 0.96479 0.0
C1041 C 0.17037 0.45085 0.96264 0.0
C1042 C 0.16793 0.4614 0.92302 0.0
C1043 C 0.15362 0.45468 0.88568 0.0
H1044 H 0.18143 0.45608 0.9916 0.0
H1045 H 0.04376 0.38917 0.62267 0.0
H1046 H 0.71107 0.1035 0.56414 0.0
H1047 H 0.70884 0.10542 0.45491 0.0
H1048 H 0.6632 0.10804 0.47823 0.0
H1049 H 0.66488 0.10528 0.58773 0.0
H1050 H 0.65938 0.08754 0.38744 0.0
H1051 H 0.70186 0.14391 0.44415 0.0
H1052 H 0.72822 0.16576 0.49235 0.0
H1053 H 0.75723 0.15022 0.3843 0.0
H1054 H 0.73101 0.12823 0.33554 0.0
H1055 H 0.65755 0.12072 0.09814 0.0
H1056 H 0.65976 0.117 0.20673 0.0
H1057 H 0.7016 0.10852 0.17402 0.0
H1058 H 0.6996 0.11247 0.06515 0.0
H1059 H 0.70763 0.1313 0.26824 0.0
H1060 H 0.66421 0.07611 0.20551 0.0
H1061 H 0.63747 0.05574 0.15538 0.0
H1062 H 0.60963 0.06987 0.2757 0.0
H1063 H 0.63623 0.09068 0.32552 0.0
C1064 C 0.70043 0.1043 0.54628 0.0
C1065 C 0.68814 0.10422 0.58513 0.0
C1066 C 0.69929 0.1056 0.48362 0.0
C1067 C 0.68597 0.10711 0.45824 0.0
C1068 C 0.67363 0.10695 0.49673 0.0
C1069 C 0.6747 0.10554 0.55948 0.0
C1070 C 0.68487 0.10872 0.39157 0.0
C1071 C 0.66986 0.09725 0.36152 0.0
C1072 C 0.69867 0.12113 0.3574 0.0
C1073 C 0.71446 0.13433 0.3866 0.0
C1074 C 0.71385 0.14509 0.43095 0.0
C1075 C 0.72877 0.15752 0.45827 0.0
C1076 C 0.74439 0.15935 0.44152 0.0
C1077 C 0.74512 0.14878 0.39725 0.0
C1078 C 0.73024 0.13636 0.36964 0.0
C1079 C 0.66728 0.11816 0.11402 0.0
C1080 C 0.67842 0.11693 0.07299 0.0
C1081 C 0.66844 0.1159 0.17605 0.0
C1082 C 0.68078 0.11238 0.19838 0.0
C1083 C 0.69197 0.11119 0.15767 0.0
C1084 C 0.69073 0.11333 0.09548 0.0
C1085 C 0.68212 0.11022 0.26437 0.0
C1086 C 0.69718 0.12156 0.29422 0.0
C1087 C 0.66831 0.09779 0.29835 0.0
C1088 C 0.65226 0.08509 0.26894 0.0
C1089 C 0.65241 0.07499 0.22098 0.0
C1090 C 0.63727 0.06335 0.19264 0.0
C1091 C 0.62187 0.06151 0.21236 0.0
C1092 C 0.62157 0.07131 0.26046 0.0
C1093 C 0.63668 0.08304 0.28874 0.0
H1094 H 0.61017 0.05248 0.19041 0.0
H1095 H 0.75592 0.16897 0.46277 0.0
H1096 H 0.58628 0.70262 0.52962 0.0
H1097 H 0.59231 0.70497 0.63861 0.0
H1098 H 0.54042 0.66675 0.67379 0.0
H1099 H 0.53431 0.66474 0.56556 0.0
H1100 H 0.54985 0.69149 0.75177 0.0
H1101 H 0.57625 0.65989 0.67317 0.0
H1102 H 0.59646 0.65696 0.60682 0.0
H1103 H 0.63788 0.70108 0.68781 0.0
H1104 H 0.61794 0.70446 0.75377 0.0
H1105 H 0.5542 0.66724 0.05251 0.0
H1106 H 0.55071 0.66833 0.94301 0.0
H1107 H 0.60389 0.70513 0.92571 0.0
H1108 H 0.60746 0.70384 0.03491 0.0
H1109 H 0.59561 0.68354 0.8385 0.0
H1110 H 0.57246 0.71626 0.91538 0.0
H1111 H 0.55447 0.72297 0.97965 0.0
H1112 H 0.5098 0.68139 0.90201 0.0
H1113 H 0.52752 0.67426 0.83786 0.0
C1114 C 0.57621 0.69469 0.56068 0.0
C1115 C 0.5598 0.68352 0.53888 0.0
C1116 C 0.57966 0.696 0.62303 0.0
C1117 C 0.56688 0.68588 0.66477 0.0
C1118 C 0.55051 0.67475 0.64284 0.0
C1119 C 0.54701 0.67362 0.58081 0.0
C1120 C 0.57027 0.68681 0.73133 0.0
C1121 C 0.55973 0.68953 0.77068 0.0
C1122 C 0.58363 0.68501 0.75632 0.0
C1123 C 0.59557 0.68254 0.7179 0.0
C1124 C 0.58966 0.66901 0.67659 0.0
C1125 C 0.60107 0.66729 0.63899 0.0
C1126 C 0.61842 0.67893 0.6428 0.0
C1127 C 0.62443 0.69216 0.68468 0.0
C1128 C 0.61308 0.69397 0.72216 0.0
C1129 C 0.56511 0.67565 0.02543 0.0
C1130 C 0.5811 0.68544 0.05258 0.0
C1131 C 0.56311 0.67629 0.96272 0.0
C1132 C 0.577 0.68697 0.92579 0.0
C1133 C 0.59298 0.69674 0.95291 0.0
C1134 C 0.59501 0.69597 0.01548 0.0
C1135 C 0.5749 0.68779 0.85894 0.0
C1136 C 0.58571 0.68547 0.81961 0.0
C1137 C 0.56205 0.69035 0.83383 0.0
C1138 C 0.55132 0.69463 0.87218 0.0
C1139 C 0.5588 0.70846 0.91231 0.0
C1140 C 0.54865 0.71236 0.94868 0.0
C1141 C 0.53101 0.70259 0.94501 0.0
C1142 C 0.52347 0.68893 0.90485 0.0
C1143 C 0.53356 0.68497 0.86843 0.0
H1144 H 0.52317 0.70563 0.97319 0.0
H1145 H 0.62725 0.6777 0.61352 0.0
H1146 H 0.89143 0.56149 0.55231 0.0
H1147 H 0.88822 0.55732 0.44271 0.0
H1148 H 0.8997 0.60899 0.4197 0.0
H1149 H 0.90237 0.61308 0.52924 0.0
H1150 H 0.87359 0.5883 0.35019 0.0
H1151 H 0.92937 0.59755 0.38679 0.0
H1152 H 0.95113 0.59297 0.43534 0.0
H1153 H 0.92575 0.5415 0.37242 0.0
H1154 H 0.90372 0.54573 0.32401 0.0
H1155 H 0.88797 0.5922 0.03116 0.0
H1156 H 0.89238 0.59757 0.14025 0.0
H1157 H 0.87751 0.5452 0.1704 0.0
H1158 H 0.87333 0.53982 0.06156 0.0
H1159 H 0.906 0.56705 0.23546 0.0
H1160 H 0.85006 0.55837 0.19896 0.0
H1161 H 0.82896 0.56375 0.1493 0.0
H1162 H 0.85559 0.61529 0.21143 0.0
H1163 H 0.877 0.61028 0.26078 0.0
C1164 C 0.89312 0.57192 0.52404 0.0
C1165 C 0.89722 0.58764 0.54976 0.0
C1166 C 0.89146 0.56958 0.46126 0.0
C1167 C 0.89395 0.58292 0.42282 0.0
C1168 C 0.89781 0.59854 0.44838 0.0
C1169 C 0.89947 0.60089 0.5111 0.0
C1170 C 0.89234 0.58054 0.35602 0.0
C1171 C 0.88087 0.58389 0.32503 0.0
C1172 C 0.90161 0.57451 0.32317 0.0
C1173 C 0.9148 0.57191 0.35231 0.0
C1174 C 0.92835 0.58522 0.38372 0.0
C1175 C 0.94075 0.5827 0.41111 0.0
C1176 C 0.9398 0.56694 0.40711 0.0
C1177 C 0.92646 0.55369 0.37555 0.0
C1178 C 0.91403 0.55615 0.34806 0.0
C1179 C 0.88577 0.58187 0.06098 0.0
C1180 C 0.88019 0.56556 0.03768 0.0
C1181 C 0.88818 0.58493 0.12333 0.0
C1182 C 0.88512 0.57174 0.1635 0.0
C1183 C 0.87989 0.55554 0.14026 0.0
C1184 C 0.87736 0.55246 0.07807 0.0
C1185 C 0.88722 0.57474 0.22986 0.0
C1186 C 0.89878 0.57151 0.26071 0.0
C1187 C 0.87812 0.58098 0.2625 0.0
C1188 C 0.86523 0.584 0.23299 0.0
C1189 C 0.8515 0.57089 0.20159 0.0
C1190 C 0.83947 0.57386 0.17358 0.0
C1191 C 0.84096 0.58986 0.17705 0.0
C1192 C 0.85447 0.60291 0.20869 0.0
C1193 C 0.86655 0.60001 0.23672 0.0
H1194 H 0.83162 0.59213 0.15535 0.0
H1195 H 0.94941 0.56501 0.42836 0.0
H1196 H 0.29288 0.85095 0.5793 0.0
H1197 H 0.29223 0.85563 0.68814 0.0
H1198 H 0.32929 0.90851 0.66364 0.0
H1199 H 0.3291 0.90393 0.55415 0.0
H1200 H 0.31293 0.86362 0.77277 0.0
H1201 H 0.32664 0.933 0.77308 0.0
H1202 H 0.32241 0.95233 0.70662 0.0
H1203 H 0.2796 0.90986 0.62381 0.0
H1204 H 0.28341 0.89029 0.69041 0.0
H1205 H 0.33205 0.89498 0.07277 0.0
H1206 H 0.33289 0.89152 0.96304 0.0
H1207 H 0.28685 0.89365 0.94337 0.0
H1208 H 0.28628 0.89756 0.05265 0.0
H1209 H 0.30706 0.91087 0.85685 0.0
H1210 H 0.28759 0.85561 0.93816 0.0
H1211 H 0.28838 0.83419 1.00416 0.0
H1212 H 0.33536 0.84425 0.92319 0.0
H1213 H 0.33501 0.86595 0.85737 0.0
C1214 C 0.30079 0.86357 0.59737 0.0
C1215 C 0.31093 0.8771 0.55859 0.0
C1216 C 0.30048 0.86626 0.65954 0.0
C1217 C 0.31056 0.88249 0.68447 0.0
C1218 C 0.32104 0.89597 0.64565 0.0
C1219 C 0.32099 0.89335 0.58317 0.0
C1220 C 0.31015 0.88517 0.751 0.0
C1221 C 0.31163 0.87396 0.79096 0.0
C1222 C 0.30821 0.8985 0.77531 0.0
C1223 C 0.30545 0.91017 0.73626 0.0
C1224 C 0.31626 0.92779 0.74094 0.0
C1225 C 0.31395 0.93879 0.70318 0.0
C1226 C 0.3008 0.93232 0.66079 0.0
C1227 C 0.28984 0.91485 0.65644 0.0
C1228 C 0.29207 0.9038 0.69418 0.0
C1229 C 0.3221 0.89464 0.04494 0.0
C1230 C 0.30909 0.89651 0.07128 0.0
C1231 C 0.32257 0.89265 0.98225 0.0
C1232 C 0.30981 0.8921 0.94477 0.0
C1233 C 0.29688 0.89409 0.9711 0.0
C1234 C 0.29655 0.89632 0.03362 0.0
C1235 C 0.30981 0.88931 0.87828 0.0
C1236 C 0.30834 0.90053 0.83846 0.0
C1237 C 0.31115 0.87565 0.85403 0.0
C1238 C 0.31135 0.86252 0.89325 0.0
C1239 C 0.29815 0.85334 0.93471 0.0
C1240 C 0.29851 0.84113 0.97205 0.0
C1241 C 0.31192 0.83788 0.96794 0.0
C1242 C 0.32499 0.8468 0.92638 0.0
C1243 C 0.32472 0.85905 0.88903 0.0
H1244 H 0.31217 0.82842 0.99689 0.0
H1245 H 0.29908 0.94086 0.63144 0.0
H1246 H 0.42686 0.29783 0.54642 0.0
H1247 H 0.43047 0.29678 0.43703 0.0
H1248 H 0.40834 0.32847 0.40853 0.0
H1249 H 0.40428 0.32911 0.51784 0.0
H1250 H 0.396 0.30452 0.32932 0.0
H1251 H 0.45235 0.34346 0.396 0.0
H1252 H 0.47821 0.35347 0.45757 0.0
H1253 H 0.48463 0.3129 0.38962 0.0
H1254 H 0.45866 0.3025 0.32824 0.0
H1255 H 0.42224 0.32479 0.0215 0.0
H1256 H 0.41837 0.32606 0.13051 0.0
H1257 H 0.43624 0.29089 0.16111 0.0
H1258 H 0.44012 0.28955 0.05218 0.0
H1259 H 0.45088 0.31711 0.23846 0.0
H1260 H 0.39364 0.27837 0.17212 0.0
H1261 H 0.36828 0.26972 0.10884 0.0
H1262 H 0.36444 0.31198 0.17458 0.0
H1263 H 0.38984 0.32097 0.23794 0.0
C1264 C 0.42292 0.3047 0.5168 0.0
C1265 C 0.41534 0.3136 0.5407 0.0
C1266 C 0.42501 0.30412 0.45422 0.0
C1267 C 0.41991 0.31275 0.41425 0.0
C1268 C 0.41236 0.32168 0.4382 0.0
C1269 C 0.41005 0.32205 0.5007 0.0
C1270 C 0.42213 0.31223 0.34751 0.0
C1271 C 0.40808 0.30751 0.30953 0.0
C1272 C 0.4378 0.31585 0.32132 0.0
C1273 C 0.45347 0.32212 0.35796 0.0
C1274 C 0.45921 0.33661 0.39451 0.0
C1275 C 0.4739 0.34236 0.42932 0.0
C1276 C 0.48304 0.3338 0.42762 0.0
C1277 C 0.47753 0.3195 0.39095 0.0
C1278 C 0.46283 0.31368 0.3561 0.0
C1279 C 0.42512 0.31713 0.05129 0.0
C1280 C 0.43145 0.30702 0.0279 0.0
C1281 C 0.42294 0.31791 0.11371 0.0
C1282 C 0.42688 0.30846 0.1541 0.0
C1283 C 0.43316 0.29833 0.1309 0.0
C1284 C 0.4354 0.29759 0.06853 0.0
C1285 C 0.42475 0.30933 0.22061 0.0
C1286 C 0.43882 0.31413 0.25845 0.0
C1287 C 0.40916 0.30597 0.24659 0.0
C1288 C 0.39371 0.30041 0.2094 0.0
C1289 C 0.38742 0.28586 0.17288 0.0
C1290 C 0.37303 0.28088 0.13706 0.0
C1291 C 0.36476 0.29031 0.13763 0.0
C1292 C 0.37084 0.30469 0.17422 0.0
C1293 C 0.38521 0.30971 0.21018 0.0
H1294 H 0.35364 0.28647 0.10979 0.0
H1295 H 0.49441 0.33827 0.45461 0.0
H1296 H 0.56253 0.86461 0.43144 0.0
H1297 H 0.55841 0.85964 0.54054 0.0
H1298 H 0.59 0.91325 0.57316 0.0
H1299 H 0.59427 0.91825 0.46416 0.0
H1300 H 0.59807 0.89633 0.64942 0.0
H1301 H 0.54597 0.89249 0.58576 0.0
H1302 H 0.51996 0.88198 0.5246 0.0
H1303 H 0.50236 0.83146 0.58945 0.0
H1304 H 0.52838 0.84164 0.65037 0.0
H1305 H 0.57563 0.89744 0.95734 0.0
H1306 H 0.58016 0.90143 0.84809 0.0
H1307 H 0.54922 0.84765 0.82027 0.0
H1308 H 0.54449 0.84349 0.9295 0.0
H1309 H 0.54088 0.86426 0.74151 0.0
H1310 H 0.59317 0.86899 0.809 0.0
H1311 H 0.61926 0.8802 0.87002 0.0
H1312 H 0.63669 0.92997 0.79777 0.0
H1313 H 0.61056 0.91912 0.73716 0.0
C1314 C 0.56845 0.87536 0.46176 0.0
C1315 C 0.5787 0.89185 0.43889 0.0
C1316 C 0.5661 0.87251 0.52426 0.0
C1317 C 0.57373 0.88609 0.56534 0.0
C1318 C 0.58399 0.90254 0.54257 0.0
C1319 C 0.58645 0.90539 0.48015 0.0
C1320 C 0.57122 0.88317 0.63201 0.0
C1321 C 0.58555 0.88951 0.66961 0.0
C1322 C 0.55491 0.87394 0.65848 0.0
C1323 C 0.5392 0.8678 0.62215 0.0
C1324 C 0.53661 0.87912 0.58663 0.0
C1325 C 0.52186 0.87322 0.55206 0.0
C1326 C 0.50954 0.85605 0.55302 0.0
C1327 C 0.51192 0.84475 0.58869 0.0
C1328 C 0.52667 0.85058 0.62328 0.0
C1329 C 0.56999 0.88642 0.92817 0.0
C1330 C 0.55972 0.87012 0.9524 0.0
C1331 C 0.57259 0.88875 0.8656 0.0
C1332 C 0.56522 0.87488 0.82578 0.0
C1333 C 0.55504 0.85858 0.84989 0.0
C1334 C 0.55234 0.85622 0.91244 0.0
C1335 C 0.56774 0.87744 0.75899 0.0
C1336 C 0.55341 0.87105 0.72134 0.0
C1337 C 0.58407 0.88673 0.73253 0.0
C1338 C 0.59981 0.89326 0.76897 0.0
C1339 C 0.60249 0.88235 0.80651 0.0
C1340 C 0.6173 0.88864 0.84099 0.0
C1341 C 0.62961 0.90579 0.83788 0.0
C1342 C 0.62715 0.91668 0.80012 0.0
C1343 C 0.61234 0.91047 0.76569 0.0
H1344 H 0.64106 0.91063 0.86463 0.0
H1345 H 0.49813 0.85151 0.52622 0.0
H1346 H 0.67957 0.58843 0.47932 0.0
H1347 H 0.68096 0.59432 0.37111 0.0
H1348 H 0.68512 0.5501 0.33359 0.0
H1349 H 0.68469 0.54464 0.44159 0.0
H1350 H 0.7064 0.5754 0.26544 0.0
H1351 H 0.647 0.55077 0.31624 0.0
H1352 H 0.62313 0.54905 0.37472 0.0
H1353 H 0.63612 0.59897 0.31522 0.0
H1354 H 0.6602 0.60104 0.25678 0.0
H1355 H 0.68584 0.56362 0.9547 0.0
H1356 H 0.68482 0.5599 0.06448 0.0
H1357 H 0.68293 0.6059 0.08813 0.0
H1358 H 0.68346 0.60944 0.97824 0.0
H1359 H 0.66114 0.58146 0.16376 0.0
H1360 H 0.71955 0.60599 0.11036 0.0
H1361 H 0.74441 0.60889 0.05548 0.0
H1362 H 0.73408 0.56035 0.12181 0.0
H1363 H 0.70898 0.55705 0.17648 0.0
C1364 C 0.681 0.58005 0.44831 0.0
C1365 C 0.68193 0.56597 0.46966 0.0
C1366 C 0.68158 0.58334 0.3862 0.0
C1367 C 0.68285 0.57249 0.34404 0.0
C1368 C 0.68404 0.55861 0.36518 0.0
C1369 C 0.68362 0.5554 0.42717 0.0
C1370 C 0.68301 0.57553 0.27783 0.0
C1371 C 0.69637 0.5765 0.24313 0.0
C1372 C 0.67023 0.57753 0.24891 0.0
C1373 C 0.65549 0.57612 0.28262 0.0
C1374 C 0.6448 0.5614 0.3158 0.0
C1375 C 0.63124 0.56036 0.3489 0.0
C1376 C 0.62815 0.57391 0.34882 0.0
C1377 C 0.63854 0.58849 0.31527 0.0
C1378 C 0.65214 0.58959 0.28207 0.0
C1379 C 0.68498 0.57283 0.98312 0.0
C1380 C 0.68481 0.58688 0.95759 0.0
C1381 C 0.68456 0.57077 0.04595 0.0
C1382 C 0.68403 0.58275 0.08456 0.0
C1383 C 0.68343 0.59655 0.05924 0.0
C1384 C 0.68387 0.59863 0.99641 0.0
C1385 C 0.68435 0.58098 0.15134 0.0
C1386 C 0.67114 0.58034 0.18611 0.0
C1387 C 0.69731 0.57935 0.18046 0.0
C1388 C 0.71229 0.5812 0.14707 0.0
C1389 C 0.72247 0.59585 0.11278 0.0
C1390 C 0.73663 0.59759 0.08179 0.0
C1391 C 0.74082 0.58481 0.08508 0.0
C1392 C 0.73082 0.57024 0.11929 0.0
C1393 C 0.71663 0.56844 0.15032 0.0
H1394 H 0.75184 0.58621 0.06134 0.0
H1395 H 0.61769 0.57309 0.37476 0.0
H1396 H 0.06926 0.673 0.49094 0.0
H1397 H 0.07349 0.6735 0.60033 0.0
H1398 H 0.1272 0.69451 0.57258 0.0
H1399 H 0.12299 0.6939 0.46295 0.0
H1400 H 0.11576 0.67008 0.65566 0.0
H1401 H 0.11019 0.71929 0.62059 0.0
H1402 H 0.0962 0.73462 0.58212 0.0
H1403 H 0.05258 0.70376 0.6923 0.0
H1404 H 0.06624 0.6881 0.73089 0.0
H1405 H 0.14302 0.69633 0.95564 0.0
H1406 H 0.13817 0.69608 0.84677 0.0
H1407 H 0.08462 0.67496 0.87876 0.0
H1408 H 0.08942 0.67524 0.98789 0.0
H1409 H 0.09541 0.69903 0.79394 0.0
H1410 H 0.10052 0.65005 0.83012 0.0
H1411 H 0.11387 0.63412 0.86884 0.0
H1412 H 0.15742 0.66359 0.75663 0.0
H1413 H 0.14443 0.67987 0.71785 0.0
C1414 C 0.08199 0.67785 0.50815 0.0
C1415 C 0.09579 0.68348 0.46821 0.0
C1416 C 0.08439 0.67814 0.57072 0.0
C1417 C 0.1007 0.68428 0.59483 0.0
C1418 C 0.1145 0.68972 0.55506 0.0
C1419 C 0.11207 0.68932 0.49237 0.0
C1420 C 0.10335 0.68487 0.66144 0.0
C1421 C 0.11154 0.67663 0.68579 0.0
C1422 C 0.09737 0.69296 0.70105 0.0
C1423 C 0.08919 0.70244 0.67823 0.0
C1424 C 0.09758 0.7157 0.63632 0.0
C1425 C 0.08971 0.72446 0.61454 0.0
C1426 C 0.0735 0.72015 0.63466 0.0
C1427 C 0.06513 0.70709 0.67673 0.0
C1428 C 0.07294 0.69828 0.69862 0.0
C1429 C 0.1302 0.69157 0.93954 0.0
C1430 C 0.1166 0.6857 0.9805 0.0
C1431 C 0.12744 0.69143 0.87725 0.0
C1432 C 0.11099 0.68524 0.85446 0.0
C1433 C 0.09742 0.67977 0.89527 0.0
C1434 C 0.10019 0.67998 0.95769 0.0
C1435 C 0.10796 0.68437 0.78806 0.0
C1436 C 0.09966 0.69251 0.76379 0.0
C1437 C 0.11375 0.6761 0.74852 0.0
C1438 C 0.12157 0.66628 0.77152 0.0
C1439 C 0.113 0.65322 0.81404 0.0
C1440 C 0.12049 0.64412 0.83594 0.0
C1441 C 0.1365 0.64787 0.81532 0.0
C1442 C 0.14503 0.66071 0.77262 0.0
C1443 C 0.1376 0.66987 0.75062 0.0
H1444 H 0.14228 0.64081 0.83234 0.0
H1445 H 0.06743 0.72694 0.61773 0.0
H1446 H 0.42774 0.12491 0.96405 0.0
H1447 H 0.43139 0.1297 0.0733 0.0
H1448 H 0.39969 0.07605 0.10456 0.0
H1449 H 0.396 0.07118 0.99545 0.0
H1450 H 0.3908 0.09355 0.17712 0.0
H1451 H 0.44301 0.09617 0.12229 0.0
H1452 H 0.46957 0.10634 0.06481 0.0
H1453 H 0.48737 0.15692 0.12931 0.0
H1454 H 0.4608 0.14709 0.18653 0.0
H1455 H 0.41416 0.09243 0.48873 0.0
H1456 H 0.4097 0.0879 0.37945 0.0
H1457 H 0.43512 0.14181 0.35058 0.0
H1458 H 0.43941 0.14657 0.45936 0.0
H1459 H 0.447 0.1245 0.27702 0.0
H1460 H 0.39527 0.12093 0.33896 0.0
H1461 H 0.36817 0.11085 0.39226 0.0
H1462 H 0.34857 0.06176 0.31117 0.0
H1463 H 0.37579 0.07132 0.25915 0.0
C1464 C 0.42172 0.1141 0.99407 0.0
C1465 C 0.41157 0.09765 0.97083 0.0
C1466 C 0.4238 0.11686 0.05663 0.0
C1467 C 0.41592 0.10322 0.09727 0.0
C1468 C 0.40585 0.08679 0.07417 0.0
C1469 C 0.40372 0.08403 0.01171 0.0
C1470 C 0.41778 0.10606 0.16389 0.0
C1471 C 0.40308 0.10004 0.19924 0.0
C1472 C 0.43383 0.115 0.19235 0.0
C1473 C 0.44984 0.12092 0.15822 0.0
C1474 C 0.45253 0.10949 0.12385 0.0
C1475 C 0.46759 0.11518 0.09137 0.0
C1476 C 0.48013 0.13227 0.09328 0.0
C1477 C 0.47764 0.14369 0.12781 0.0
C1478 C 0.46259 0.13806 0.16031 0.0
C1479 C 0.41854 0.10335 0.45948 0.0
C1480 C 0.42721 0.1199 0.4834 0.0
C1481 C 0.41597 0.10071 0.39693 0.0
C1482 C 0.42193 0.11449 0.35703 0.0
C1483 C 0.43043 0.13098 0.3806 0.0
C1484 C 0.43294 0.13366 0.44301 0.0
C1485 C 0.41998 0.11178 0.29049 0.0
C1486 C 0.4347 0.11788 0.25511 0.0
C1487 C 0.40391 0.10281 0.26211 0.0
C1488 C 0.38777 0.09679 0.29592 0.0
C1489 C 0.38535 0.10787 0.33348 0.0
C1490 C 0.36991 0.10227 0.3633 0.0
C1491 C 0.35666 0.08566 0.35523 0.0
C1492 C 0.35883 0.07462 0.31736 0.0
C1493 C 0.37431 0.08011 0.28793 0.0
H1494 H 0.34471 0.08137 0.37824 0.0
H1495 H 0.49178 0.13666 0.06811 0.0
H1496 H 0.29459 0.40112 0.96734 0.0
H1497 H 0.29503 0.39634 0.85851 0.0
H1498 H 0.32701 0.45011 0.83041 0.0
H1499 H 0.32656 0.45496 0.93885 0.0
H1500 H 0.30295 0.43777 0.74885 0.0
H1501 H 0.34258 0.42243 0.82447 0.0
H1502 H 0.35297 0.40734 0.88851 0.0
H1503 H 0.31471 0.35974 0.81575 0.0
H1504 H 0.30392 0.37451 0.75191 0.0
H1505 H 0.32736 0.43406 0.44579 0.0
H1506 H 0.32799 0.43846 0.55517 0.0
H1507 H 0.29279 0.38521 0.58087 0.0
H1508 H 0.29196 0.38073 0.47162 0.0
H1509 H 0.31869 0.39721 0.66332 0.0
H1510 H 0.27968 0.41399 0.58596 0.0
H1511 H 0.27118 0.43031 0.52 0.0
H1512 H 0.31041 0.4768 0.59631 0.0
H1513 H 0.31944 0.46081 0.66174 0.0
C1514 C 0.30182 0.41191 0.93809 0.0
C1515 C 0.31049 0.42843 0.96201 0.0
C1516 C 0.30209 0.40917 0.87579 0.0
C1517 C 0.31119 0.42285 0.83612 0.0
C1518 C 0.31984 0.43934 0.85993 0.0
C1519 C 0.31952 0.4421 0.92207 0.0
C1520 C 0.31141 0.4201 0.76968 0.0
C1521 C 0.30661 0.42906 0.73021 0.0
C1522 C 0.31592 0.40852 0.74517 0.0
C1523 C 0.32233 0.39958 0.7838 0.0
C1524 C 0.33628 0.40873 0.82251 0.0
C1525 C 0.34227 0.40024 0.8587 0.0
C1526 C 0.33449 0.38259 0.85627 0.0
C1527 C 0.32071 0.37341 0.81763 0.0
C1528 C 0.31466 0.38183 0.7814 0.0
C1529 C 0.31963 0.4233 0.47454 0.0
C1530 C 0.30954 0.40705 0.44954 0.0
C1531 C 0.32005 0.42582 0.53719 0.0
C1532 C 0.31032 0.41219 0.57629 0.0
C1533 C 0.30045 0.39592 0.55166 0.0
C1534 C 0.30001 0.39338 0.48903 0.0
C1535 C 0.31025 0.4149 0.64276 0.0
C1536 C 0.31504 0.40591 0.68214 0.0
C1537 C 0.30593 0.4266 0.66724 0.0
C1538 C 0.30034 0.4362 0.6284 0.0
C1539 C 0.28658 0.4277 0.58838 0.0
C1540 C 0.28165 0.43689 0.55113 0.0
C1541 C 0.29024 0.45456 0.55398 0.0
C1542 C 0.30378 0.4631 0.59413 0.0
C1543 C 0.30881 0.45398 0.63129 0.0
H1544 H 0.28639 0.46164 0.52511 0.0
H1545 H 0.33918 0.37605 0.88419 0.0
H1546 H 0.87363 0.33781 0.41897 0.0
H1547 H 0.87673 0.33529 0.31031 0.0
H1548 H 0.88669 0.2944 0.3429 0.0
H1549 H 0.88374 0.29699 0.45204 0.0
H1550 H 0.90766 0.31526 0.2589 0.0
H1551 H 0.84776 0.28675 0.29174 0.0
H1552 H 0.82075 0.28342 0.32906 0.0
H1553 H 0.82762 0.32508 0.21805 0.0
H1554 H 0.8548 0.32881 0.18068 0.0
H1555 H 0.89447 0.2864 0.95296 0.0
H1556 H 0.89178 0.28807 0.06239 0.0
H1557 H 0.88501 0.33127 0.03885 0.0
H1558 H 0.88796 0.3299 0.92941 0.0
H1559 H 0.86205 0.30817 0.1183 0.0
H1560 H 0.92241 0.33668 0.08701 0.0
H1561 H 0.94918 0.33945 0.04959 0.0
H1562 H 0.94095 0.29681 0.15759 0.0
H1563 H 0.91399 0.29363 0.19502 0.0
C1564 C 0.87637 0.3282 0.40305 0.0
C1565 C 0.87827 0.31749 0.44416 0.0
C1566 C 0.87815 0.32678 0.34086 0.0
C1567 C 0.88164 0.31444 0.31826 0.0
C1568 C 0.88395 0.30398 0.35925 0.0
C1569 C 0.88229 0.30549 0.42162 0.0
C1570 C 0.88281 0.31248 0.25188 0.0
C1571 C 0.89758 0.31345 0.22827 0.0
C1572 C 0.86978 0.31042 0.21168 0.0
C1573 C 0.85339 0.30815 0.23383 0.0
C1574 C 0.84357 0.29528 0.27561 0.0
C1575 C 0.82822 0.29331 0.29673 0.0
C1576 C 0.82249 0.30406 0.27605 0.0
C1577 C 0.83208 0.31677 0.23408 0.0
C1578 C 0.84745 0.31881 0.21287 0.0
C1579 C 0.89258 0.29638 0.97091 0.0
C1580 C 0.89151 0.30806 0.93208 0.0
C1581 C 0.891 0.29727 0.03358 0.0
C1582 C 0.88836 0.30989 0.05883 0.0
C1583 C 0.88702 0.32142 0.02031 0.0
C1584 C 0.88865 0.32056 0.95764 0.0
C1585 C 0.88693 0.31107 0.12542 0.0
C1586 C 0.8721 0.30993 0.14902 0.0
C1587 C 0.89986 0.31288 0.16557 0.0
C1588 C 0.9161 0.31481 0.14333 0.0
C1589 C 0.92624 0.32781 0.1024 0.0
C1590 C 0.94146 0.32946 0.08126 0.0
C1591 C 0.94674 0.31828 0.10107 0.0
C1592 C 0.93683 0.30544 0.14221 0.0
C1593 C 0.92159 0.30372 0.16344 0.0
H1594 H 0.95853 0.31959 0.08465 0.0
H1595 H 0.81061 0.30251 0.29245 0.0
H1596 H 0.16073 0.43566 0.22885 0.0
H1597 H 0.18352 0.42917 0.21797 0.0
H1598 H 0.15671 0.38571 0.33459 0.0
H1599 H 0.13372 0.39217 0.34588 0.0
H1600 H 0.19016 0.4051 0.36582 0.0
H1601 H 0.15849 0.37881 0.18886 0.0
H1602 H 0.14252 0.37619 0.09549 0.0
H1603 H 0.18711 0.41721 0.01519 0.0
H1604 H 0.20332 0.42022 0.10842 0.0
H1605 H 0.25396 0.3865 0.188 0.0
H1606 H 0.22532 0.38183 0.204 0.0
H1607 H 0.2462 0.42937 0.29969 0.0
H1608 H 0.27477 0.43407 0.2842 0.0
H1609 H 0.21184 0.40052 0.16465 0.0
H1610 H 0.21964 0.42622 0.41146 0.0
H1611 H 0.23424 0.42638 0.5058 0.0
H1612 H 0.23484 0.38172 0.44788 0.0
H1613 H 0.22006 0.38116 0.35362 0.0
C1614 C 0.15961 0.42466 0.25198 0.0
C1615 C 0.14545 0.41441 0.28823 0.0
C1616 C 0.17261 0.42093 0.24546 0.0
C1617 C 0.17171 0.40688 0.27502 0.0
C1618 C 0.15758 0.39658 0.31127 0.0
C1619 C 0.14447 0.40025 0.31751 0.0
C1620 C 0.18594 0.40351 0.26946 0.0
C1621 C 0.19484 0.40395 0.32194 0.0
C1622 C 0.19175 0.40157 0.21225 0.0
C1623 C 0.18211 0.39978 0.15582 0.0
C1624 C 0.16488 0.38734 0.15145 0.0
C1625 C 0.15578 0.38577 0.09851 0.0
C1626 C 0.1638 0.39652 0.04944 0.0
C1627 C 0.18093 0.40887 0.05321 0.0
C1628 C 0.19009 0.41049 0.10608 0.0
C1629 C 0.25242 0.39589 0.21282 0.0
C1630 C 0.26659 0.41066 0.23482 0.0
C1631 C 0.23607 0.39321 0.22181 0.0
C1632 C 0.23364 0.40517 0.25349 0.0
C1633 C 0.24778 0.41985 0.27592 0.0
C1634 C 0.2641 0.42256 0.26673 0.0
C1635 C 0.21645 0.40284 0.26083 0.0
C1636 C 0.20702 0.40138 0.20864 0.0
C1637 C 0.20999 0.4035 0.3184 0.0
C1638 C 0.21881 0.40371 0.37526 0.0
C1639 C 0.22281 0.41638 0.41898 0.0
C1640 C 0.23113 0.41655 0.47242 0.0
C1641 C 0.23545 0.40406 0.48282 0.0
C1642 C 0.2315 0.3914 0.43973 0.0
C1643 C 0.22318 0.39117 0.38624 0.0
H1644 H 0.24183 0.40416 0.52431 0.0
H1645 H 0.15673 0.39526 0.00847 0.0
H1646 H 0.82944 0.28194 0.7202 0.0
H1647 H 0.80457 0.25453 0.74157 0.0
H1648 H 0.8336 0.22978 0.70758 0.0
H1649 H 0.85861 0.25733 0.68458 0.0
H1650 H 0.8016 0.21144 0.66271 0.0
H1651 H 0.82691 0.23714 0.85056 0.0
H1652 H 0.83965 0.26007 0.92621 0.0
H1653 H 0.79286 0.26054 0.93915 0.0
H1654 H 0.77992 0.2378 0.86276 0.0
H1655 H 0.73852 0.13684 0.81915 0.0
H1656 H 0.76606 0.16205 0.79807 0.0
H1657 H 0.74201 0.19246 0.78885 0.0
H1658 H 0.71444 0.1673 0.80851 0.0
H1659 H 0.77346 0.20628 0.86048 0.0
H1660 H 0.74921 0.18109 0.66598 0.0
H1661 H 0.73689 0.15732 0.59368 0.0
H1662 H 0.78287 0.15513 0.59669 0.0
H1663 H 0.79529 0.17856 0.67067 0.0
C1664 C 0.83052 0.27066 0.71677 0.0
C1665 C 0.84599 0.27176 0.70138 0.0
C1666 C 0.81631 0.25501 0.72916 0.0
C1667 C 0.81735 0.24017 0.72747 0.0
C1668 C 0.83258 0.24111 0.70949 0.0
C1669 C 0.84683 0.25683 0.69646 0.0
C1670 C 0.80264 0.22389 0.74692 0.0
C1671 C 0.79562 0.2102 0.70635 0.0
C1672 C 0.79483 0.22231 0.80388 0.0
C1673 C 0.80248 0.23583 0.85058 0.0
C1674 C 0.81937 0.2422 0.86925 0.0
C1675 C 0.82662 0.25516 0.91229 0.0
C1676 C 0.81708 0.26177 0.93741 0.0
C1677 C 0.80024 0.2554 0.91964 0.0
C1678 C 0.79293 0.24247 0.8765 0.0
C1679 C 0.73916 0.14894 0.81319 0.0
C1680 C 0.7244 0.15018 0.81531 0.0
C1681 C 0.75484 0.16327 0.80101 0.0
C1682 C 0.75596 0.17902 0.79178 0.0
C1683 C 0.74133 0.18037 0.79592 0.0
C1684 C 0.72563 0.16602 0.80693 0.0
C1685 C 0.77227 0.19407 0.77579 0.0
C1686 C 0.77959 0.2075 0.81716 0.0
C1687 C 0.78043 0.19529 0.72 0.0
C1688 C 0.7731 0.18143 0.67456 0.0
C1689 C 0.75663 0.17543 0.65179 0.0
C1690 C 0.74964 0.16203 0.61042 0.0
C1691 C 0.75908 0.1547 0.59065 0.0
C1692 C 0.77555 0.16079 0.61216 0.0
C1693 C 0.78257 0.17411 0.65391 0.0
H1694 H 0.75364 0.14434 0.55854 0.0
H1695 H 0.82272 0.27181 0.9707 0.0
H1696 H 0.55721 0.83305 0.27582 0.0
H1697 H 0.56378 0.81036 0.28888 0.0
H1698 H 0.60795 0.83728 0.17549 0.0
H1699 H 0.60143 0.86015 0.16209 0.0
H1700 H 0.58857 0.80371 0.14417 0.0
H1701 H 0.61408 0.83563 0.32152 0.0
H1702 H 0.61604 0.85173 0.41381 0.0
H1703 H 0.57479 0.80714 0.49314 0.0
H1704 H 0.57239 0.79082 0.40095 0.0
H1705 H 0.6028 0.73721 0.32389 0.0
H1706 H 0.60928 0.76657 0.30933 0.0
H1707 H 0.56217 0.74857 0.21268 0.0
H1708 H 0.55573 0.71945 0.22641 0.0
H1709 H 0.59192 0.78207 0.34703 0.0
H1710 H 0.56691 0.77456 0.09967 0.0
H1711 H 0.56556 0.75857 0.00774 0.0
H1712 H 0.60897 0.75585 0.06776 0.0
H1713 H 0.61073 0.77202 0.15962 0.0
C1714 C 0.56837 0.83419 0.25383 0.0
C1715 C 0.57881 0.84835 0.21791 0.0
C1716 C 0.57216 0.82127 0.26163 0.0
C1717 C 0.58645 0.82226 0.23368 0.0
C1718 C 0.59691 0.83636 0.19765 0.0
C1719 C 0.59319 0.84939 0.19015 0.0
C1720 C 0.58986 0.80808 0.24038 0.0
C1721 C 0.58951 0.79907 0.18841 0.0
C1722 C 0.59151 0.80232 0.29811 0.0
C1723 C 0.59302 0.81201 0.35411 0.0
C1724 C 0.60536 0.82927 0.35849 0.0
C1725 C 0.60655 0.83844 0.41082 0.0
C1726 C 0.59553 0.83047 0.45928 0.0
C1727 C 0.58332 0.8133 0.45557 0.0
C1728 C 0.58206 0.80407 0.40331 0.0
C1729 C 0.59389 0.73957 0.29933 0.0
C1730 C 0.57878 0.72606 0.27616 0.0
C1731 C 0.5976 0.7563 0.29113 0.0
C1732 C 0.58632 0.75972 0.25918 0.0
C1733 C 0.5712 0.74622 0.23645 0.0
C1734 C 0.56749 0.72957 0.24467 0.0
C1735 C 0.58981 0.77729 0.25101 0.0
C1736 C 0.59141 0.78692 0.30269 0.0
C1737 C 0.58955 0.78374 0.19295 0.0
C1738 C 0.5889 0.77447 0.13674 0.0
C1739 C 0.57626 0.77069 0.09304 0.0
C1740 C 0.5754 0.76155 0.04098 0.0
C1741 C 0.58716 0.75618 0.03195 0.0
C1742 C 0.59984 0.75998 0.07486 0.0
C1743 C 0.60077 0.76912 0.12696 0.0
H1744 H 0.58645 0.74908 0.99169 0.0
H1745 H 0.59647 0.83759 0.49973 0.0
H1746 H 0.83334 0.55369 0.75199 0.0
H1747 H 0.80831 0.55654 0.73936 0.0
H1748 H 0.8381 0.60997 0.77893 0.0
H1749 H 0.8632 0.60707 0.79361 0.0
H1750 H 0.80883 0.59711 0.83456 0.0
H1751 H 0.82575 0.59567 0.63292 0.0
H1752 H 0.83491 0.58536 0.54571 0.0
H1753 H 0.78775 0.53828 0.54949 0.0
H1754 H 0.7784 0.54821 0.63737 0.0
H1755 H 0.73951 0.60731 0.7217 0.0
H1756 H 0.7677 0.61007 0.72874 0.0
H1757 H 0.74454 0.55576 0.74199 0.0
H1758 H 0.71642 0.55292 0.73638 0.0
H1759 H 0.77234 0.57303 0.653 0.0
H1760 H 0.75724 0.57555 0.86256 0.0
H1761 H 0.74875 0.58776 0.94571 0.0
H1762 H 0.79414 0.63576 0.9209 0.0
H1763 H 0.80267 0.62394 0.83634 0.0
C1764 C 0.83459 0.56607 0.75787 0.0
C1765 C 0.85024 0.58018 0.77342 0.0
C1766 C 0.82028 0.5677 0.75035 0.0
C1767 C 0.82139 0.58354 0.757 0.0
C1768 C 0.83697 0.59765 0.77328 0.0
C1769 C 0.85129 0.59598 0.78152 0.0
C1770 C 0.80613 0.58516 0.74776 0.0
C1771 C 0.80103 0.59213 0.79432 0.0
C1772 C 0.79592 0.57866 0.69528 0.0
C1773 C 0.80142 0.57265 0.64206 0.0
C1774 C 0.81737 0.58307 0.61543 0.0
C1775 C 0.8226 0.5773 0.56583 0.0
C1776 C 0.81193 0.56117 0.54214 0.0
C1777 C 0.796 0.55078 0.56791 0.0
C1778 C 0.79072 0.55648 0.61758 0.0
C1779 C 0.74047 0.59599 0.72621 0.0
C1780 C 0.72583 0.57991 0.72871 0.0
C1781 C 0.75653 0.59759 0.73023 0.0
C1782 C 0.75811 0.58311 0.7358 0.0
C1783 C 0.74352 0.56706 0.73757 0.0
C1784 C 0.72749 0.56547 0.73471 0.0
C1785 C 0.77495 0.58455 0.74032 0.0
C1786 C 0.78031 0.57819 0.69276 0.0
C1787 C 0.78553 0.5919 0.79125 0.0
C1788 C 0.78048 0.59892 0.84258 0.0
C1789 C 0.76532 0.58876 0.87436 0.0
C1790 C 0.76052 0.5956 0.92186 0.0
C1791 C 0.7709 0.61253 0.93857 0.0
C1792 C 0.7861 0.62265 0.90784 0.0
C1793 C 0.79092 0.61589 0.86007 0.0
H1794 H 0.76718 0.61781 0.97539 0.0
H1795 H 0.81601 0.55672 0.50374 0.0
H1796 H 0.27747 0.83179 0.2764 0.0
H1797 H 0.2495 0.80688 0.2642 0.0
H1798 H 0.22633 0.83783 0.28744 0.0
H1799 H 0.25443 0.86281 0.30222 0.0
H1800 H 0.20911 0.80995 0.34791 0.0
H1801 H 0.22931 0.82233 0.14575 0.0
H1802 H 0.2494 0.82916 0.06124 0.0
H1803 H 0.24786 0.78168 0.0855 0.0
H1804 H 0.22798 0.77467 0.17081 0.0
H1805 H 0.12977 0.73927 0.23957 0.0
H1806 H 0.15536 0.76732 0.24681 0.0
H1807 H 0.18576 0.74368 0.27219 0.0
H1808 H 0.16035 0.71573 0.26604 0.0
H1809 H 0.19733 0.76961 0.17911 0.0
H1810 H 0.17858 0.75941 0.38895 0.0
H1811 H 0.15767 0.7531 0.47019 0.0
H1812 H 0.15534 0.79766 0.42418 0.0
H1813 H 0.17606 0.8041 0.342 0.0
C1814 C 0.26643 0.83332 0.27861 0.0
C1815 C 0.2681 0.84924 0.28991 0.0
C1816 C 0.25043 0.81907 0.2713 0.0
C1817 C 0.2358 0.82051 0.27361 0.0
C1818 C 0.23744 0.83642 0.28519 0.0
C1819 C 0.25347 0.85067 0.29349 0.0
C1820 C 0.21884 0.80525 0.26555 0.0
C1821 C 0.20645 0.80132 0.3103 0.0
C1822 C 0.21532 0.79391 0.21663 0.0
C1823 C 0.22722 0.79802 0.165 0.0
C1824 C 0.23334 0.81339 0.13335 0.0
C1825 C 0.24469 0.81729 0.08526 0.0
C1826 C 0.24991 0.80587 0.06806 0.0
C1827 C 0.2438 0.79051 0.09888 0.0
C1828 C 0.23247 0.78656 0.14707 0.0
C1829 C 0.14191 0.74009 0.2472 0.0
C1830 C 0.14309 0.72535 0.25236 0.0
C1831 C 0.15646 0.75608 0.25129 0.0
C1832 C 0.17238 0.75749 0.25985 0.0
C1833 C 0.17356 0.7428 0.26539 0.0
C1834 C 0.15903 0.72686 0.26222 0.0
C1835 C 0.18797 0.77425 0.26211 0.0
C1836 C 0.20002 0.77843 0.21612 0.0
C1837 C 0.19104 0.78593 0.3092 0.0
C1838 C 0.1787 0.78212 0.35888 0.0
C1839 C 0.17349 0.76778 0.39579 0.0
C1840 C 0.1617 0.76419 0.44209 0.0
C1841 C 0.15514 0.77494 0.45222 0.0
C1842 C 0.16041 0.78933 0.4162 0.0
C1843 C 0.17218 0.79295 0.36979 0.0
H1844 H 0.14602 0.77215 0.48808 0.0
H1845 H 0.25867 0.80889 0.03077 0.0
H1846 H 0.42841 0.2725 0.67594 0.0
H1847 H 0.42302 0.2436 0.66356 0.0
H1848 H 0.39038 0.22797 0.82058 0.0
H1849 H 0.39506 0.25674 0.83084 0.0
H1850 H 0.43218 0.2279 0.73131 0.0
H1851 H 0.36329 0.18576 0.82207 0.0
H1852 H 0.33589 0.18509 0.81956 0.0
H1853 H 0.35082 0.21479 0.65664 0.0
H1854 H 0.3782 0.21545 0.65768 0.0
H1855 H 0.42542 0.15289 0.82507 0.0
H1856 H 0.42133 0.17739 0.8262 0.0
H1857 H 0.38715 0.15686 0.67422 0.0
H1858 H 0.39073 0.1319 0.67446 0.0
H1859 H 0.37749 0.174 0.74835 0.0
H1860 H 0.42818 0.18444 0.64937 0.0
H1861 H 0.45509 0.1844 0.6384 0.0
H1862 H 0.47585 0.21805 0.79036 0.0
H1863 H 0.44893 0.21803 0.80295 0.0
C1864 C 0.41985 0.2628 0.7071 0.0
C1865 C 0.41218 0.26678 0.75442 0.0
C1866 C 0.41678 0.2463 0.70009 0.0
C1867 C 0.40626 0.23353 0.74103 0.0
C1868 C 0.39825 0.23745 0.78757 0.0
C1869 C 0.401 0.25391 0.79368 0.0
C1870 C 0.40503 0.21665 0.73827 0.0
C1871 C 0.42017 0.21617 0.73466 0.0
C1872 C 0.38938 0.20123 0.7416 0.0
C1873 C 0.37287 0.20078 0.74032 0.0
C1874 C 0.3607 0.19209 0.78557 0.0
C1875 C 0.34517 0.19172 0.78443 0.0
C1876 C 0.34164 0.19994 0.73808 0.0
C1877 C 0.3536 0.20849 0.69265 0.0
C1878 C 0.36914 0.20888 0.69355 0.0
C1879 C 0.41679 0.15345 0.79265 0.0
C1880 C 0.40857 0.14068 0.74915 0.0
C1881 C 0.41446 0.16744 0.7933 0.0
C1882 C 0.40427 0.16913 0.74934 0.0
C1883 C 0.39514 0.15583 0.70835 0.0
C1884 C 0.39722 0.14162 0.70844 0.0
C1885 C 0.40462 0.18548 0.74267 0.0
C1886 C 0.3894 0.18582 0.74458 0.0
C1887 C 0.42014 0.20081 0.73546 0.0
C1888 C 0.43649 0.20114 0.72737 0.0
C1889 C 0.43845 0.19176 0.68064 0.0
C1890 C 0.4537 0.19174 0.67414 0.0
C1891 C 0.46716 0.2012 0.71371 0.0
C1892 C 0.46541 0.21072 0.75977 0.0
C1893 C 0.45016 0.21074 0.7666 0.0
H1894 H 0.47896 0.20117 0.70863 0.0
H1895 H 0.32961 0.19965 0.7373 0.0
loop_
_geom_bond_atom_site_label_1
_geom_bond_atom_site_label_2
_geom_bond_distance
_geom_bond_site_symmetry_2
_ccdc_geom_bond_type
Co0 N4 2.148 . S
Co0 N10 2.128 . S
Co0 N20 2.194 . S
Co0 O25 2.351 . S
Co0 O26 2.155 . S
Co0 O27 2.096 . S
C1 N4 1.301 . S
C1 N5 1.328 . S
C1 H6 0.930 . S
C2 C3 1.333 . S
C2 N4 1.317 . S
C2 H7 0.930 . S
C3 C2 1.333 . S
C3 N5 1.350 . S
C3 H29 0.931 . S
N4 Co0 2.148 . S
N4 C1 1.301 . S
N4 C2 1.317 . S
N5 C1 1.328 . S
N5 C3 1.350 . S
H6 C1 0.930 . S
H7 C2 0.930 . S
C8 O9 1.224 . S
C8 O27 1.247 . S
O9 C8 1.224 . S
N10 Co0 2.128 . S
N10 C11 1.355 . S
N10 C13 1.311 . S
C11 N10 1.355 . S
C11 C12 1.363 . S
C11 H23 0.929 . S
C12 C11 1.363 . S
C12 N14 1.375 . S
C12 H30 0.931 . S
C13 N10 1.311 . S
C13 N14 1.347 . S
C13 H24 0.929 . S
N14 C12 1.375 . S
N14 C13 1.347 . S
C15 C18 1.365 . S
C15 N20 1.328 . S
C15 H21 0.929 . S
C16 C17 1.362 . S
C16 C19 1.378 . S
C16 H31 0.929 . S
C17 C16 1.362 . S
C17 C18 1.366 . S
C18 C15 1.365 . S
C18 C17 1.366 . S
C18 H32 0.930 . S
C19 C16 1.378 . S
C19 N20 1.315 . S
C19 H22 0.930 . S
N20 Co0 2.194 . S
N20 C15 1.328 . S
N20 C19 1.315 . S
H21 C15 0.929 . S
H22 C19 0.930 . S
H23 C11 0.929 . S
H24 C13 0.929 . S
O25 Co0 2.351 . S
O25 C28 1.244 . S
O26 Co0 2.155 . S
O26 C28 1.240 . S
O27 Co0 2.096 . S
O27 C8 1.247 . S
C28 O25 1.244 . S
C28 O26 1.240 . S
H29 C3 0.931 . S
H30 C12 0.931 . S
H31 C16 0.929 . S
H32 C18 0.930 . S
Co33 N37 2.148 . S
Co33 N43 2.128 . S
Co33 N53 2.194 . S
Co33 O58 2.351 . S
Co33 O59 2.155 . S
Co33 O60 2.096 . S
C34 N37 1.301 . S
C34 N38 1.328 . S
C34 H39 0.930 . S
C35 C36 1.333 . S
C35 N37 1.317 . S
C35 H40 0.930 . S
C36 C35 1.333 . S
C36 N38 1.350 . S
C36 H62 0.931 . S
N37 Co33 2.148 . S
N37 C34 1.301 . S
N37 C35 1.317 . S
N38 C34 1.328 . S
N38 C36 1.350 . S
H39 C34 0.930 . S
H40 C35 0.930 . S
C41 O42 1.224 . S
C41 O60 1.247 . S
O42 C41 1.224 . S
N43 Co33 2.128 . S
N43 C44 1.355 . S
N43 C46 1.311 . S
C44 N43 1.355 . S
C44 C45 1.363 . S
C44 H56 0.929 . S
C45 C44 1.363 . S
C45 N47 1.375 1_556 S
C45 H63 0.931 1_556 S
C46 N43 1.311 . S
C46 N47 1.347 1_556 S
C46 H57 0.929 . S
N47 C45 1.375 1_554 S
N47 C46 1.347 1_554 S
C48 C51 1.365 . S
C48 N53 1.328 . S
C48 H54 0.929 . S
C49 C50 1.362 . S
C49 C52 1.378 . S
C49 H64 0.929 . S
C50 C49 1.362 . S
C50 C51 1.366 . S
C51 C48 1.365 . S
C51 C50 1.366 . S
C51 H65 0.930 . S
C52 C49 1.378 . S
C52 N53 1.315 . S
C52 H55 0.930 . S
N53 Co33 2.194 . S
N53 C48 1.328 . S
N53 C52 1.315 . S
H54 C48 0.929 . S
H55 C52 0.930 . S
H56 C44 0.929 . S
H57 C46 0.929 . S
O58 Co33 2.351 . S
O58 C61 1.244 . S
O59 Co33 2.155 . S
O59 C61 1.240 . S
O60 Co33 2.096 . S
O60 C41 1.247 . S
C61 O58 1.244 . S
C61 O59 1.240 . S
H62 C36 0.931 . S
H63 C45 0.931 1_554 S
H64 C49 0.929 . S
H65 C51 0.930 . S
Co66 N70 2.148 . S
Co66 N76 2.128 . S
Co66 N86 2.194 . S
Co66 O91 2.351 . S
Co66 O92 2.155 . S
Co66 O93 2.096 . S
C67 N70 1.301 . S
C67 N71 1.328 . S
C67 H72 0.930 . S
C68 C69 1.333 . S
C68 N70 1.317 . S
C68 H73 0.930 . S
C69 C68 1.333 . S
C69 N71 1.350 . S
C69 H95 0.931 . S
N70 Co66 2.148 . S
N70 C67 1.301 . S
N70 C68 1.317 . S
N71 C67 1.328 . S
N71 C69 1.350 . S
H72 C67 0.930 . S
H73 C68 0.930 . S
C74 O75 1.224 . S
C74 O93 1.247 . S
O75 C74 1.224 . S
N76 Co66 2.128 . S
N76 C77 1.355 . S
N76 C79 1.311 . S
C77 N76 1.355 . S
C77 C78 1.363 . S
C77 H89 0.929 . S
C78 C77 1.363 . S
C78 N80 1.375 . S
C78 H96 0.931 . S
C79 N76 1.311 . S
C79 N80 1.347 . S
C79 H90 0.929 . S
N80 C78 1.375 . S
N80 C79 1.347 . S
C81 C84 1.365 . S
C81 N86 1.328 . S
C81 H87 0.929 . S
C82 C83 1.362 . S
C82 C85 1.378 . S
C82 H97 0.929 . S
C83 C82 1.362 . S
C83 C84 1.366 . S
C84 C81 1.365 . S
C84 C83 1.366 . S
C84 H98 0.930 . S
C85 C82 1.378 . S
C85 N86 1.315 . S
C85 H88 0.930 . S
N86 Co66 2.194 . S
N86 C81 1.328 . S
N86 C85 1.315 . S
H87 C81 0.929 . S
H88 C85 0.930 . S
H89 C77 0.929 . S
H90 C79 0.929 . S
O91 Co66 2.351 . S
O91 C94 1.244 . S
O92 Co66 2.155 . S
O92 C94 1.240 . S
O93 Co66 2.096 . S
O93 C74 1.247 . S
C94 O91 1.244 . S
C94 O92 1.240 . S
H95 C69 0.931 . S
H96 C78 0.931 . S
H97 C82 0.929 . S
H98 C84 0.930 . S
Co99 N103 2.148 . S
Co99 N109 2.128 . S
Co99 N119 2.194 . S
Co99 O124 2.351 . S
Co99 O125 2.155 . S
Co99 O126 2.096 . S
C100 N103 1.301 . S
C100 N104 1.328 . S
C100 H105 0.930 . S
C101 C102 1.333 . S
C101 N103 1.317 . S
C101 H106 0.930 . S
C102 C101 1.333 . S
C102 N104 1.350 . S
C102 H128 0.931 . S
N103 Co99 2.148 . S
N103 C100 1.301 . S
N103 C101 1.317 . S
N104 C100 1.328 . S
N104 C102 1.350 . S
H105 C100 0.930 . S
H106 C101 0.930 . S
C107 O108 1.224 . S
C107 O126 1.247 . S
O108 C107 1.224 . S
N109 Co99 2.128 . S
N109 C110 1.355 . S
N109 C112 1.311 . S
C110 N109 1.355 . S
C110 C111 1.363 . S
C110 H122 0.929 . S
C111 C110 1.363 . S
C111 N113 1.375 1_556 S
C111 H129 0.931 1_556 S
C112 N109 1.311 . S
C112 N113 1.347 1_556 S
C112 H123 0.929 . S
N113 C111 1.375 1_554 S
N113 C112 1.347 1_554 S
C114 C117 1.365 . S
C114 N119 1.328 . S
C114 H120 0.929 . S
C115 C116 1.362 . S
C115 C118 1.378 . S
C115 H130 0.929 . S
C116 C115 1.362 . S
C116 C117 1.366 . S
C117 C114 1.365 . S
C117 C116 1.366 . S
C117 H131 0.930 . S
C118 C115 1.378 . S
C118 N119 1.315 . S
C118 H121 0.930 . S
N119 Co99 2.194 . S
N119 C114 1.328 . S
N119 C118 1.315 . S
H120 C114 0.929 . S
H121 C118 0.930 . S
H122 C110 0.929 . S
H123 C112 0.929 . S
O124 Co99 2.351 . S
O124 C127 1.244 . S
O125 Co99 2.155 . S
O125 C127 1.240 . S
O126 Co99 2.096 . S
O126 C107 1.247 . S
C127 O124 1.244 . S
C127 O125 1.240 . S
H128 C102 0.931 . S
H129 C111 0.931 1_554 S
H130 C115 0.929 . S
H131 C117 0.930 . S
Co132 N136 2.148 . S
Co132 N142 2.128 . S
Co132 N152 2.194 . S
Co132 O157 2.351 . S
Co132 O158 2.155 . S
Co132 O159 2.096 . S
C133 N136 1.301 . S
C133 N137 1.328 . S
C133 H138 0.930 . S
C134 C135 1.333 . S
C134 N136 1.317 . S
C134 H139 0.930 . S
C135 C134 1.333 . S
C135 N137 1.350 . S
C135 H161 0.931 . S
N136 Co132 2.148 . S
N136 C133 1.301 . S
N136 C134 1.317 . S
N137 C133 1.328 . S
N137 C135 1.350 . S
H138 C133 0.930 . S
H139 C134 0.930 . S
C140 O141 1.224 . S
C140 O159 1.247 . S
O141 C140 1.224 . S
N142 Co132 2.128 . S
N142 C143 1.355 . S
N142 C145 1.311 . S
C143 N142 1.355 . S
C143 C144 1.363 . S
C143 H155 0.929 . S
C144 C143 1.363 . S
C144 N146 1.375 . S
C144 H162 0.931 . S
C145 N142 1.311 . S
C145 N146 1.347 . S
C145 H156 0.929 . S
N146 C144 1.375 . S
N146 C145 1.347 . S
C147 C150 1.365 . S
C147 N152 1.328 . S
C147 H153 0.929 . S
C148 C149 1.362 . S
C148 C151 1.378 . S
C148 H163 0.929 . S
C149 C148 1.362 . S
C149 C150 1.366 . S
C150 C147 1.365 . S
C150 C149 1.366 . S
C150 H164 0.930 . S
C151 C148 1.378 . S
C151 N152 1.315 . S
C151 H154 0.930 . S
N152 Co132 2.194 . S
N152 C147 1.328 . S
N152 C151 1.315 . S
H153 C147 0.929 . S
H154 C151 0.930 . S
H155 C143 0.929 . S
H156 C145 0.929 . S
O157 Co132 2.351 . S
O157 C160 1.244 . S
O158 Co132 2.155 . S
O158 C160 1.240 . S
O159 Co132 2.096 . S
O159 C140 1.247 . S
C160 O157 1.244 . S
C160 O158 1.240 . S
H161 C135 0.931 . S
H162 C144 0.931 . S
H163 C148 0.929 . S
H164 C150 0.930 . S
Co165 N169 2.148 . S
Co165 N175 2.128 . S
Co165 N185 2.194 . S
Co165 O190 2.351 . S
Co165 O191 2.155 . S
Co165 O192 2.096 . S
C166 N169 1.301 . S
C166 N170 1.328 . S
C166 H171 0.930 . S
C167 C168 1.333 . S
C167 N169 1.317 . S
C167 H172 0.930 . S
C168 C167 1.333 . S
C168 N170 1.350 . S
C168 H194 0.931 . S
N169 Co165 2.148 . S
N169 C166 1.301 . S
N169 C167 1.317 . S
N170 C166 1.328 . S
N170 C168 1.350 . S
H171 C166 0.930 . S
H172 C167 0.930 . S
C173 O174 1.224 . S
C173 O192 1.247 . S
O174 C173 1.224 . S
N175 Co165 2.128 . S
N175 C176 1.355 . S
N175 C178 1.311 . S
C176 N175 1.355 . S
C176 C177 1.363 . S
C176 H188 0.929 . S
C177 C176 1.363 . S
C177 N179 1.375 1_556 S
C177 H195 0.931 1_556 S
C178 N175 1.311 . S
C178 N179 1.347 1_556 S
C178 H189 0.929 . S
N179 C177 1.375 1_554 S
N179 C178 1.347 1_554 S
C180 C183 1.365 . S
C180 N185 1.328 . S
C180 H186 0.929 . S
C181 C182 1.362 . S
C181 C184 1.378 . S
C181 H196 0.929 . S
C182 C181 1.362 . S
C182 C183 1.366 . S
C183 C180 1.365 . S
C183 C182 1.366 . S
C183 H197 0.930 . S
C184 C181 1.378 . S
C184 N185 1.315 . S
C184 H187 0.930 . S
N185 Co165 2.194 . S
N185 C180 1.328 . S
N185 C184 1.315 . S
H186 C180 0.929 . S
H187 C184 0.930 . S
H188 C176 0.929 . S
H189 C178 0.929 . S
O190 Co165 2.351 . S
O190 C193 1.244 . S
O191 Co165 2.155 . S
O191 C193 1.240 . S
O192 Co165 2.096 . S
O192 C173 1.247 . S
C193 O190 1.244 . S
C193 O191 1.240 . S
H194 C168 0.931 . S
H195 C177 0.931 1_554 S
H196 C181 0.929 . S
H197 C183 0.930 . S
Co198 N202 2.148 . S
Co198 N208 2.128 . S
Co198 N218 2.194 . S
Co198 O223 2.351 . S
Co198 O224 2.155 . S
Co198 O225 2.096 . S
C199 N202 1.301 . S
C199 N203 1.328 . S
C199 H204 0.930 . S
C200 C201 1.333 . S
C200 N202 1.317 . S
C200 H205 0.930 . S
C201 C200 1.333 . S
C201 N203 1.350 . S
C201 H227 0.931 . S
N202 Co198 2.148 . S
N202 C199 1.301 . S
N202 C200 1.317 . S
N203 C199 1.328 . S
N203 C201 1.350 . S
H204 C199 0.930 . S
H205 C200 0.930 . S
C206 O207 1.224 . S
C206 O225 1.247 . S
O207 C206 1.224 . S
N208 Co198 2.128 . S
N208 C209 1.355 . S
N208 C211 1.311 . S
C209 N208 1.355 . S
C209 C210 1.363 . S
C209 H221 0.929 . S
C210 C209 1.363 . S
C210 N212 1.375 1_554 S
C210 H228 0.931 1_554 S
C211 N208 1.311 . S
C211 N212 1.347 1_554 S
C211 H222 0.929 . S
N212 C210 1.375 1_556 S
N212 C211 1.347 1_556 S
C213 C216 1.365 . S
C213 N218 1.328 . S
C213 H219 0.929 . S
C214 C215 1.362 . S
C214 C217 1.378 . S
C214 H229 0.929 . S
C215 C214 1.362 . S
C215 C216 1.366 . S
C216 C213 1.365 . S
C216 C215 1.366 . S
C216 H230 0.930 . S
C217 C214 1.378 . S
C217 N218 1.315 . S
C217 H220 0.930 . S
N218 Co198 2.194 . S
N218 C213 1.328 . S
N218 C217 1.315 . S
H219 C213 0.929 . S
H220 C217 0.930 . S
H221 C209 0.929 . S
H222 C211 0.929 . S
O223 Co198 2.351 . S
O223 C226 1.244 . S
O224 Co198 2.155 . S
O224 C226 1.240 . S
O225 Co198 2.096 . S
O225 C206 1.247 . S
C226 O223 1.244 . S
C226 O224 1.240 . S
H227 C201 0.931 . S
H228 C210 0.931 1_556 S
H229 C214 0.929 . S
H230 C216 0.930 . S
Co231 N235 2.148 . S
Co231 N241 2.128 . S
Co231 N251 2.194 . S
Co231 O256 2.351 . S
Co231 O257 2.155 . S
Co231 O258 2.096 . S
C232 N235 1.301 . S
C232 N236 1.328 . S
C232 H237 0.930 . S
C233 C234 1.333 . S
C233 N235 1.317 . S
C233 H238 0.930 . S
C234 C233 1.333 . S
C234 N236 1.350 . S
C234 H260 0.931 . S
N235 Co231 2.148 . S
N235 C232 1.301 . S
N235 C233 1.317 . S
N236 C232 1.328 . S
N236 C234 1.350 . S
H237 C232 0.930 . S
H238 C233 0.930 . S
C239 O240 1.224 . S
C239 O258 1.247 . S
O240 C239 1.224 . S
N241 Co231 2.128 . S
N241 C242 1.355 . S
N241 C244 1.311 . S
C242 N241 1.355 . S
C242 C243 1.363 . S
C242 H254 0.929 . S
C243 C242 1.363 . S
C243 N245 1.375 . S
C243 H261 0.931 . S
C244 N241 1.311 . S
C244 N245 1.347 . S
C244 H255 0.929 . S
N245 C243 1.375 . S
N245 C244 1.347 . S
C246 C249 1.365 . S
C246 N251 1.328 . S
C246 H252 0.929 . S
C247 C248 1.362 . S
C247 C250 1.378 . S
C247 H262 0.929 . S
C248 C247 1.362 . S
C248 C249 1.366 . S
C249 C246 1.365 . S
C249 C248 1.366 . S
C249 H263 0.930 . S
C250 C247 1.378 . S
C250 N251 1.315 . S
C250 H253 0.930 . S
N251 Co231 2.194 . S
N251 C246 1.328 . S
N251 C250 1.315 . S
H252 C246 0.929 . S
H253 C250 0.930 . S
H254 C242 0.929 . S
H255 C244 0.929 . S
O256 Co231 2.351 . S
O256 C259 1.244 . S
O257 Co231 2.155 . S
O257 C259 1.240 . S
O258 Co231 2.096 . S
O258 C239 1.247 . S
C259 O256 1.244 . S
C259 O257 1.240 . S
H260 C234 0.931 . S
H261 C243 0.931 . S
H262 C247 0.929 . S
H263 C249 0.930 . S
Co264 N268 2.148 . S
Co264 N274 2.128 . S
Co264 N284 2.194 . S
Co264 O289 2.351 . S
Co264 O290 2.155 . S
Co264 O291 2.096 . S
C265 N268 1.301 . S
C265 N269 1.328 . S
C265 H270 0.930 . S
C266 C267 1.333 . S
C266 N268 1.317 . S
C266 H271 0.930 . S
C267 C266 1.333 . S
C267 N269 1.350 . S
C267 H293 0.931 . S
N268 Co264 2.148 . S
N268 C265 1.301 . S
N268 C266 1.317 . S
N269 C265 1.328 . S
N269 C267 1.350 . S
H270 C265 0.930 . S
H271 C266 0.930 . S
C272 O273 1.224 . S
C272 O291 1.247 . S
O273 C272 1.224 . S
N274 Co264 2.128 . S
N274 C275 1.355 . S
N274 C277 1.311 . S
C275 N274 1.355 . S
C275 C276 1.363 . S
C275 H287 0.929 . S
C276 C275 1.363 . S
C276 N278 1.375 1_554 S
C276 H294 0.931 1_554 S
C277 N274 1.311 . S
C277 N278 1.347 1_554 S
C277 H288 0.929 . S
N278 C276 1.375 1_556 S
N278 C277 1.347 1_556 S
C279 C282 1.365 . S
C279 N284 1.328 . S
C279 H285 0.929 . S
C280 C281 1.362 . S
C280 C283 1.378 . S
C280 H295 0.929 . S
C281 C280 1.362 . S
C281 C282 1.366 . S
C282 C279 1.365 . S
C282 C281 1.366 . S
C282 H296 0.930 . S
C283 C280 1.378 . S
C283 N284 1.315 . S
C283 H286 0.930 . S
N284 Co264 2.194 . S
N284 C279 1.328 . S
N284 C283 1.315 . S
H285 C279 0.929 . S
H286 C283 0.930 . S
H287 C275 0.929 . S
H288 C277 0.929 . S
O289 Co264 2.351 . S
O289 C292 1.244 . S
O290 Co264 2.155 . S
O290 C292 1.240 . S
O291 Co264 2.096 . S
O291 C272 1.247 . S
C292 O289 1.244 . S
C292 O290 1.240 . S
H293 C267 0.931 . S
H294 C276 0.931 1_556 S
H295 C280 0.929 . S
H296 C282 0.930 . S
Co297 N301 2.148 . S
Co297 N307 2.128 . S
Co297 N317 2.194 . S
Co297 O322 2.351 . S
Co297 O323 2.155 . S
Co297 O324 2.096 . S
C298 N301 1.301 . S
C298 N302 1.328 . S
C298 H303 0.930 . S
C299 C300 1.333 . S
C299 N301 1.317 . S
C299 H304 0.930 . S
C300 C299 1.333 . S
C300 N302 1.350 . S
C300 H326 0.931 . S
N301 Co297 2.148 . S
N301 C298 1.301 . S
N301 C299 1.317 . S
N302 C298 1.328 . S
N302 C300 1.350 . S
H303 C298 0.930 . S
H304 C299 0.930 . S
C305 O306 1.224 . S
C305 O324 1.247 . S
O306 C305 1.224 . S
N307 Co297 2.128 . S
N307 C308 1.355 . S
N307 C310 1.311 . S
C308 N307 1.355 . S
C308 C309 1.363 . S
C308 H320 0.929 . S
C309 C308 1.363 . S
C309 N311 1.375 . S
C309 H327 0.931 . S
C310 N307 1.311 . S
C310 N311 1.347 . S
C310 H321 0.929 . S
N311 C309 1.375 . S
N311 C310 1.347 . S
C312 C315 1.365 . S
C312 N317 1.328 . S
C312 H318 0.929 . S
C313 C314 1.362 . S
C313 C316 1.378 . S
C313 H328 0.929 . S
C314 C313 1.362 . S
C314 C315 1.366 . S
C315 C312 1.365 . S
C315 C314 1.366 . S
C315 H329 0.930 . S
C316 C313 1.378 . S
C316 N317 1.315 . S
C316 H319 0.930 . S
N317 Co297 2.194 . S
N317 C312 1.328 . S
N317 C316 1.315 . S
H318 C312 0.929 . S
H319 C316 0.930 . S
H320 C308 0.929 . S
H321 C310 0.929 . S
O322 Co297 2.351 . S
O322 C325 1.244 . S
O323 Co297 2.155 . S
O323 C325 1.240 . S
O324 Co297 2.096 . S
O324 C305 1.247 . S
C325 O322 1.244 . S
C325 O323 1.240 . S
H326 C300 0.931 . S
H327 C309 0.931 . S
H328 C313 0.929 . S
H329 C315 0.930 . S
Co330 N334 2.148 . S
Co330 N340 2.128 . S
Co330 N350 2.194 . S
Co330 O355 2.351 . S
Co330 O356 2.155 . S
Co330 O357 2.096 . S
C331 N334 1.301 . S
C331 N335 1.328 . S
C331 H336 0.930 . S
C332 C333 1.333 . S
C332 N334 1.317 . S
C332 H337 0.930 . S
C333 C332 1.333 . S
C333 N335 1.350 . S
C333 H359 0.931 . S
N334 Co330 2.148 . S
N334 C331 1.301 . S
N334 C332 1.317 . S
N335 C331 1.328 . S
N335 C333 1.350 . S
H336 C331 0.930 . S
H337 C332 0.930 . S
C338 O339 1.224 . S
C338 O357 1.247 . S
O339 C338 1.224 . S
N340 Co330 2.128 . S
N340 C341 1.355 . S
N340 C343 1.311 . S
C341 N340 1.355 . S
C341 C342 1.363 . S
C341 H353 0.929 . S
C342 C341 1.363 . S
C342 N344 1.375 1_554 S
C342 H360 0.931 1_554 S
C343 N340 1.311 . S
C343 N344 1.347 1_554 S
C343 H354 0.929 . S
N344 C342 1.375 1_556 S
N344 C343 1.347 1_556 S
C345 C348 1.365 . S
C345 N350 1.328 . S
C345 H351 0.929 . S
C346 C347 1.362 . S
C346 C349 1.378 . S
C346 H361 0.929 . S
C347 C346 1.362 . S
C347 C348 1.366 . S
C348 C345 1.365 . S
C348 C347 1.366 . S
C348 H362 0.930 . S
C349 C346 1.378 . S
C349 N350 1.315 . S
C349 H352 0.930 . S
N350 Co330 2.194 . S
N350 C345 1.328 . S
N350 C349 1.315 . S
H351 C345 0.929 . S
H352 C349 0.930 . S
H353 C341 0.929 . S
H354 C343 0.929 . S
O355 Co330 2.351 . S
O355 C358 1.244 . S
O356 Co330 2.155 . S
O356 C358 1.240 . S
O357 Co330 2.096 . S
O357 C338 1.247 . S
C358 O355 1.244 . S
C358 O356 1.240 . S
H359 C333 0.931 . S
H360 C342 0.931 1_556 S
H361 C346 0.929 . S
H362 C348 0.930 . S
Co363 N367 2.148 . S
Co363 N373 2.128 . S
Co363 N383 2.194 . S
Co363 O388 2.351 . S
Co363 O389 2.155 . S
Co363 O390 2.096 . S
C364 N367 1.301 . S
C364 N368 1.328 . S
C364 H369 0.930 . S
C365 C366 1.333 . S
C365 N367 1.317 . S
C365 H370 0.930 . S
C366 C365 1.333 . S
C366 N368 1.350 . S
C366 H392 0.931 . S
N367 Co363 2.148 . S
N367 C364 1.301 . S
N367 C365 1.317 . S
N368 C364 1.328 . S
N368 C366 1.350 . S
H369 C364 0.930 . S
H370 C365 0.930 . S
C371 O372 1.224 . S
C371 O390 1.247 . S
O372 C371 1.224 . S
N373 Co363 2.128 . S
N373 C374 1.355 . S
N373 C376 1.311 . S
C374 N373 1.355 . S
C374 C375 1.363 . S
C374 H386 0.929 . S
C375 C374 1.363 . S
C375 N377 1.375 . S
C375 H393 0.931 . S
C376 N373 1.311 . S
C376 N377 1.347 . S
C376 H387 0.929 . S
N377 C375 1.375 . S
N377 C376 1.347 . S
C378 C381 1.365 . S
C378 N383 1.328 . S
C378 H384 0.929 . S
C379 C380 1.362 . S
C379 C382 1.378 . S
C379 H394 0.929 . S
C380 C379 1.362 . S
C380 C381 1.366 . S
C381 C378 1.365 . S
C381 C380 1.366 . S
C381 H395 0.930 . S
C382 C379 1.378 . S
C382 N383 1.315 . S
C382 H385 0.930 . S
N383 Co363 2.194 . S
N383 C378 1.328 . S
N383 C382 1.315 . S
H384 C378 0.929 . S
H385 C382 0.930 . S
H386 C374 0.929 . S
H387 C376 0.929 . S
O388 Co363 2.351 . S
O388 C391 1.244 . S
O389 Co363 2.155 . S
O389 C391 1.240 . S
O390 Co363 2.096 . S
O390 C371 1.247 . S
C391 O388 1.244 . S
C391 O389 1.240 . S
H392 C366 0.931 . S
H393 C375 0.931 . S
H394 C379 0.929 . S
H395 C381 0.930 . S
H396 C414 0.951 . S
H397 C416 0.951 . S
H398 C418 0.950 . S
H399 C419 0.950 . S
H400 C421 0.950 . S
H401 C424 0.950 . S
H402 C425 0.950 . S
H403 C427 0.950 1_655 S
H404 C428 0.943 1_655 S
H405 C429 0.951 . S
H406 C431 0.951 . S
H407 C433 0.950 . S
H408 C434 0.950 . S
H409 C436 0.950 . S
H410 C439 0.950 . S
H411 C440 0.950 . S
H412 C442 0.950 1_455 S
H413 C443 0.943 1_455 S
C414 H396 0.951 . S
C414 C415 1.366 . S
C414 C416 1.388 . S
C415 C414 1.366 . S
C415 C419 1.385 . S
C416 H397 0.951 . S
C416 C414 1.388 . S
C416 C417 1.366 . S
C417 C416 1.366 . S
C417 C418 1.414 . S
C417 C420 1.499 . S
C418 H398 0.950 . S
C418 C417 1.414 . S
C418 C419 1.374 . S
C419 H399 0.950 . S
C419 C415 1.385 . S
C419 C418 1.374 . S
C420 C417 1.499 . S
C420 C421 1.373 . S
C420 C422 1.389 . S
C421 H400 0.950 . S
C421 C420 1.373 . S
C421 C437 1.377 1_455 S
C422 C420 1.389 . S
C422 C423 1.524 . S
C422 C436 1.377 1_455 S
C423 C422 1.524 . S
C423 C424 1.397 . S
C423 C428 1.373 . S
C424 H401 0.950 . S
C424 C423 1.397 . S
C424 C425 1.334 . S
C425 H402 0.950 . S
C425 C424 1.334 . S
C425 C426 1.287 . S
C426 C425 1.287 . S
C426 C427 1.524 . S
C426 H445 0.913 . S
C427 H403 0.950 1_455 S
C427 C426 1.524 . S
C427 C428 1.412 . S
C428 H404 0.943 1_455 S
C428 C423 1.373 . S
C428 C427 1.412 . S
C429 H405 0.951 . S
C429 C430 1.366 . S
C429 C431 1.388 . S
C430 C429 1.366 . S
C430 C434 1.385 . S
C431 H406 0.951 . S
C431 C429 1.388 . S
C431 C432 1.366 . S
C432 C431 1.366 . S
C432 C433 1.414 . S
C432 C435 1.499 . S
C433 H407 0.950 . S
C433 C432 1.414 . S
C433 C434 1.374 . S
C434 H408 0.950 . S
C434 C430 1.385 . S
C434 C433 1.374 . S
C435 C432 1.499 . S
C435 C436 1.373 . S
C435 C437 1.389 . S
C436 H409 0.950 . S
C436 C422 1.377 1_655 S
C436 C435 1.373 . S
C437 C421 1.377 1_655 S
C437 C435 1.389 . S
C437 C438 1.524 . S
C438 C437 1.524 . S
C438 C439 1.397 . S
C438 C443 1.373 . S
C439 H410 0.950 . S
C439 C438 1.397 . S
C439 C440 1.334 . S
C440 H411 0.950 . S
C440 C439 1.334 . S
C440 C441 1.287 . S
C441 C440 1.287 . S
C441 C442 1.524 . S
C441 H444 0.999 . S
C442 H412 0.950 1_655 S
C442 C441 1.524 . S
C442 C443 1.412 . S
C443 H413 0.943 1_655 S
C443 C438 1.373 . S
C443 C442 1.412 . S
H444 C441 0.999 . S
H445 C426 0.913 . S
H446 C464 0.951 . S
H447 C466 0.951 . S
H448 C468 0.950 . S
H449 C469 0.950 . S
H450 C471 0.950 . S
H451 C474 0.950 . S
H452 C475 0.950 . S
H453 C477 0.950 . S
H454 C478 0.950 . S
H455 C479 0.951 . S
H456 C481 0.951 . S
H457 C483 0.950 . S
H458 C484 0.950 . S
H459 C486 0.950 . S
H460 C489 0.950 . S
H461 C490 0.950 . S
H462 C492 0.950 . S
H463 C493 0.950 . S
C464 H446 0.951 . S
C464 C465 1.366 . S
C464 C466 1.388 . S
C465 C464 1.366 . S
C465 C469 1.385 . S
C466 H447 0.951 . S
C466 C464 1.388 . S
C466 C467 1.366 . S
C467 C466 1.366 . S
C467 C468 1.414 . S
C467 C470 1.499 . S
C468 H448 0.950 . S
C468 C467 1.414 . S
C468 C469 1.374 . S
C469 H449 0.950 . S
C469 C465 1.385 . S
C469 C468 1.374 . S
C470 C467 1.499 . S
C470 C471 1.373 . S
C470 C472 1.389 1_556 S
C471 H450 0.950 . S
C471 C470 1.373 . S
C471 C487 1.377 1_545 S
C472 C470 1.389 1_554 S
C472 C473 1.524 . S
C472 C486 1.377 1_545 S
C473 C472 1.524 . S
C473 C474 1.397 . S
C473 C478 1.363 . S
C474 H451 0.950 . S
C474 C473 1.397 . S
C474 C475 1.334 . S
C475 H452 0.950 . S
C475 C474 1.334 . S
C475 C476 1.287 . S
C476 C475 1.287 . S
C476 C477 1.524 . S
C476 H495 0.913 . S
C477 H453 0.950 . S
C477 C476 1.524 . S
C477 C478 1.415 . S
C478 H454 0.950 . S
C478 C473 1.363 . S
C478 C477 1.415 . S
C479 H455 0.951 . S
C479 C480 1.366 . S
C479 C481 1.388 . S
C480 C479 1.366 . S
C480 C484 1.385 . S
C481 H456 0.951 . S
C481 C479 1.388 . S
C481 C482 1.366 . S
C482 C481 1.366 . S
C482 C483 1.414 . S
C482 C485 1.499 . S
C483 H457 0.950 . S
C483 C482 1.414 . S
C483 C484 1.374 . S
C484 H458 0.950 . S
C484 C480 1.385 . S
C484 C483 1.374 . S
C485 C482 1.499 . S
C485 C486 1.373 . S
C485 C487 1.389 1_554 S
C486 H459 0.950 . S
C486 C472 1.377 1_565 S
C486 C485 1.373 . S
C487 C471 1.377 1_565 S
C487 C485 1.389 1_556 S
C487 C488 1.524 . S
C488 C487 1.524 . S
C488 C489 1.397 . S
C488 C493 1.363 . S
C489 H460 0.950 . S
C489 C488 1.397 . S
C489 C490 1.334 . S
C490 H461 0.950 . S
C490 C489 1.334 . S
C490 C491 1.287 . S
C491 C490 1.287 . S
C491 C492 1.524 . S
C491 H494 0.999 . S
C492 H462 0.950 . S
C492 C491 1.524 . S
C492 C493 1.415 . S
C493 H463 0.950 . S
C493 C488 1.363 . S
C493 C492 1.415 . S
H494 C491 0.999 . S
H495 C476 0.913 . S
H496 C514 0.951 . S
H497 C516 0.951 . S
H498 C518 0.950 . S
H499 C519 0.950 . S
H500 C521 0.950 . S
H501 C524 0.950 . S
H502 C525 0.950 . S
H503 C527 0.950 . S
H504 C528 0.950 . S
H505 C529 0.951 . S
H506 C531 0.951 . S
H507 C533 0.950 . S
H508 C534 0.950 . S
H509 C536 0.950 . S
H510 C539 0.950 . S
H511 C540 0.950 . S
H512 C542 0.950 . S
H513 C543 0.950 . S
C514 H496 0.951 . S
C514 C515 1.366 . S
C514 C516 1.388 . S
C515 C514 1.366 . S
C515 C519 1.385 . S
C516 H497 0.951 . S
C516 C514 1.388 . S
C516 C517 1.366 . S
C517 C516 1.366 . S
C517 C518 1.414 . S
C517 C520 1.499 . S
C518 H498 0.950 . S
C518 C517 1.414 . S
C518 C519 1.374 . S
C519 H499 0.950 . S
C519 C515 1.385 . S
C519 C518 1.374 . S
C520 C517 1.499 . S
C520 C521 1.373 . S
C520 C522 1.389 . S
C521 H500 0.950 . S
C521 C520 1.373 . S
C521 C537 1.377 . S
C522 C520 1.389 . S
C522 C523 1.524 . S
C522 C536 1.377 . S
C523 C522 1.524 . S
C523 C524 1.397 . S
C523 C528 1.363 . S
C524 H501 0.950 . S
C524 C523 1.397 . S
C524 C525 1.334 . S
C525 H502 0.950 . S
C525 C524 1.334 . S
C525 C526 1.287 . S
C526 C525 1.287 . S
C526 C527 1.524 . S
C526 H545 0.913 . S
C527 H503 0.950 . S
C527 C526 1.524 . S
C527 C528 1.415 . S
C528 H504 0.950 . S
C528 C523 1.363 . S
C528 C527 1.415 . S
C529 H505 0.951 . S
C529 C530 1.366 . S
C529 C531 1.388 . S
C530 C529 1.366 . S
C530 C534 1.385 . S
C531 H506 0.951 . S
C531 C529 1.388 . S
C531 C532 1.366 . S
C532 C531 1.366 . S
C532 C533 1.414 . S
C532 C535 1.499 . S
C533 H507 0.950 . S
C533 C532 1.414 . S
C533 C534 1.374 . S
C534 H508 0.950 . S
C534 C530 1.385 . S
C534 C533 1.374 . S
C535 C532 1.499 . S
C535 C536 1.373 . S
C535 C537 1.389 . S
C536 H509 0.950 . S
C536 C522 1.377 . S
C536 C535 1.373 . S
C537 C521 1.377 . S
C537 C535 1.389 . S
C537 C538 1.524 . S
C538 C537 1.524 . S
C538 C539 1.397 . S
C538 C543 1.363 . S
C539 H510 0.950 . S
C539 C538 1.397 . S
C539 C540 1.334 . S
C540 H511 0.950 . S
C540 C539 1.334 . S
C540 C541 1.287 . S
C541 C540 1.287 . S
C541 C542 1.524 . S
C541 H544 0.999 . S
C542 H512 0.950 . S
C542 C541 1.524 . S
C542 C543 1.415 . S
C543 H513 0.950 . S
C543 C538 1.363 . S
C543 C542 1.415 . S
H544 C541 0.999 . S
H545 C526 0.913 . S
H546 C564 0.951 . S
H547 C566 0.951 . S
H548 C568 0.950 . S
H549 C569 0.950 . S
H550 C571 0.950 . S
H551 C574 0.950 . S
H552 C575 0.950 . S
H553 C577 0.950 . S
H554 C578 0.950 . S
H555 C579 0.951 . S
H556 C581 0.951 . S
H557 C583 0.950 . S
H558 C584 0.950 . S
H559 C586 0.950 . S
H560 C589 0.950 . S
H561 C590 0.950 . S
H562 C592 0.950 . S
H563 C593 0.950 . S
C564 H546 0.951 . S
C564 C565 1.366 . S
C564 C566 1.388 . S
C565 C564 1.366 . S
C565 C569 1.385 . S
C566 H547 0.951 . S
C566 C564 1.388 . S
C566 C567 1.366 . S
C567 C566 1.366 . S
C567 C568 1.414 . S
C567 C570 1.499 . S
C568 H548 0.950 . S
C568 C567 1.414 . S
C568 C569 1.374 . S
C569 H549 0.950 . S
C569 C565 1.385 . S
C569 C568 1.374 . S
C570 C567 1.499 . S
C570 C571 1.373 1_554 S
C570 C572 1.389 . S
C571 H550 0.950 . S
C571 C570 1.373 1_556 S
C571 C587 1.377 1_455 S
C572 C570 1.389 . S
C572 C573 1.524 . S
C572 C586 1.377 1_455 S
C573 C572 1.524 . S
C573 C574 1.397 . S
C573 C578 1.363 1_455 S
C574 H551 0.950 . S
C574 C573 1.397 . S
C574 C575 1.334 . S
C575 H552 0.950 . S
C575 C574 1.334 . S
C575 C576 1.287 . S
C576 C575 1.287 . S
C576 C577 1.524 1_455 S
C576 H595 0.913 . S
C577 H553 0.950 . S
C577 C576 1.524 1_655 S
C577 C578 1.415 . S
C578 H554 0.950 . S
C578 C573 1.363 1_655 S
C578 C577 1.415 . S
C579 H555 0.951 . S
C579 C580 1.366 . S
C579 C581 1.388 . S
C580 C579 1.366 . S
C580 C584 1.385 . S
C581 H556 0.951 . S
C581 C579 1.388 . S
C581 C582 1.366 . S
C582 C581 1.366 . S
C582 C583 1.414 . S
C582 C585 1.499 . S
C583 H557 0.950 . S
C583 C582 1.414 . S
C583 C584 1.374 . S
C584 H558 0.950 . S
C584 C580 1.385 . S
C584 C583 1.374 . S
C585 C582 1.499 . S
C585 C586 1.373 1_556 S
C585 C587 1.389 . S
C586 H559 0.950 . S
C586 C572 1.377 1_655 S
C586 C585 1.373 1_554 S
C587 C571 1.377 1_655 S
C587 C585 1.389 . S
C587 C588 1.524 . S
C588 C587 1.524 . S
C588 C589 1.397 . S
C588 C593 1.363 1_655 S
C589 H560 0.950 . S
C589 C588 1.397 . S
C589 C590 1.334 . S
C590 H561 0.950 . S
C590 C589 1.334 . S
C590 C591 1.287 . S
C591 C590 1.287 . S
C591 C592 1.524 1_655 S
C591 H594 0.999 . S
C592 H562 0.950 . S
C592 C591 1.524 1_455 S
C592 C593 1.415 . S
C593 H563 0.950 . S
C593 C588 1.363 1_455 S
C593 C592 1.415 . S
H594 C591 0.999 . S
H595 C576 0.913 . S
H596 C614 0.951 . S
H597 C616 0.951 . S
H598 C618 0.950 . S
H599 C619 0.950 . S
H600 C621 0.950 . S
H601 C624 0.950 . S
H602 C625 0.950 . S
H603 C627 0.950 . S
H604 C628 0.950 . S
H605 C629 0.951 . S
H606 C631 0.951 . S
H607 C633 0.950 . S
H608 C634 0.950 . S
H609 C636 0.950 . S
H610 C639 0.950 . S
H611 C640 0.950 . S
H612 C642 0.950 . S
H613 C643 0.950 . S
C614 H596 0.951 . S
C614 C615 1.366 . S
C614 C616 1.388 . S
C615 C614 1.366 . S
C615 C619 1.385 . S
C616 H597 0.951 . S
C616 C614 1.388 . S
C616 C617 1.366 . S
C617 C616 1.366 . S
C617 C618 1.414 . S
C617 C620 1.499 . S
C618 H598 0.950 . S
C618 C617 1.414 . S
C618 C619 1.374 . S
C619 H599 0.950 . S
C619 C615 1.385 . S
C619 C618 1.374 . S
C620 C617 1.499 . S
C620 C621 1.373 . S
C620 C622 1.389 . S
C621 H600 0.950 . S
C621 C620 1.373 . S
C621 C637 1.377 1_545 S
C622 C620 1.389 . S
C622 C623 1.524 . S
C622 C636 1.377 1_545 S
C623 C622 1.524 . S
C623 C624 1.397 . S
C623 C628 1.363 . S
C624 H601 0.950 . S
C624 C623 1.397 . S
C624 C625 1.334 . S
C625 H602 0.950 . S
C625 C624 1.334 . S
C625 C626 1.287 . S
C626 C625 1.287 . S
C626 C627 1.524 . S
C626 H645 0.913 . S
C627 H603 0.950 . S
C627 C626 1.524 . S
C627 C628 1.415 . S
C628 H604 0.950 . S
C628 C623 1.363 . S
C628 C627 1.415 . S
C629 H605 0.951 . S
C629 C630 1.366 . S
C629 C631 1.388 . S
C630 C629 1.366 . S
C630 C634 1.385 . S
C631 H606 0.951 . S
C631 C629 1.388 . S
C631 C632 1.366 . S
C632 C631 1.366 . S
C632 C633 1.414 . S
C632 C635 1.499 . S
C633 H607 0.950 . S
C633 C632 1.414 . S
C633 C634 1.374 . S
C634 H608 0.950 . S
C634 C630 1.385 . S
C634 C633 1.374 . S
C635 C632 1.499 . S
C635 C636 1.373 . S
C635 C637 1.389 . S
C636 H609 0.950 . S
C636 C622 1.377 1_565 S
C636 C635 1.373 . S
C637 C621 1.377 1_565 S
C637 C635 1.389 . S
C637 C638 1.524 . S
C638 C637 1.524 . S
C638 C639 1.397 . S
C638 C643 1.363 . S
C639 H610 0.950 . S
C639 C638 1.397 . S
C639 C640 1.334 . S
C640 H611 0.950 . S
C640 C639 1.334 . S
C640 C641 1.287 . S
C641 C640 1.287 . S
C641 C642 1.524 . S
C641 H644 0.999 . S
C642 H612 0.950 . S
C642 C641 1.524 . S
C642 C643 1.415 . S
C643 H613 0.950 . S
C643 C638 1.363 . S
C643 C642 1.415 . S
H644 C641 0.999 . S
H645 C626 0.913 . S
H646 C664 0.951 . S
H647 C666 0.951 . S
H648 C668 0.950 1_554 S
H649 C669 0.950 . S
H650 C671 0.950 . S
H651 C674 0.950 1_554 S
H652 C675 0.950 . S
H653 C677 0.950 . S
H654 C678 0.950 . S
H655 C679 0.951 . S
H656 C681 0.951 . S
H657 C683 0.950 1_556 S
H658 C684 0.950 . S
H659 C686 0.950 . S
H660 C689 0.950 1_556 S
H661 C690 0.950 . S
H662 C692 0.950 . S
H663 C693 0.950 . S
C664 H646 0.951 . S
C664 C665 1.366 . S
C664 C666 1.388 . S
C665 C664 1.366 . S
C665 C669 1.385 . S
C666 H647 0.951 . S
C666 C664 1.388 . S
C666 C667 1.366 . S
C667 C666 1.366 . S
C667 C668 1.414 . S
C667 C670 1.499 . S
C668 H648 0.950 1_556 S
C668 C667 1.414 . S
C668 C669 1.374 . S
C669 H649 0.950 . S
C669 C665 1.385 . S
C669 C668 1.374 . S
C670 C667 1.499 . S
C670 C671 1.380 . S
C670 C672 1.389 . S
C671 H650 0.950 . S
C671 C670 1.380 . S
C671 C687 1.370 1_556 S
C672 C670 1.389 . S
C672 C673 1.524 . S
C672 C686 1.370 1_556 S
C673 C672 1.524 . S
C673 C674 1.397 . S
C673 C678 1.363 . S
C674 H651 0.950 1_556 S
C674 C673 1.397 . S
C674 C675 1.334 . S
C675 H652 0.950 . S
C675 C674 1.334 . S
C675 C676 1.287 . S
C676 C675 1.287 . S
C676 C677 1.524 . S
C676 H695 0.913 . S
C677 H653 0.950 . S
C677 C676 1.524 . S
C677 C678 1.415 . S
C678 H654 0.950 . S
C678 C673 1.363 . S
C678 C677 1.415 . S
C679 H655 0.951 . S
C679 C680 1.366 . S
C679 C681 1.388 . S
C680 C679 1.366 . S
C680 C684 1.385 . S
C681 H656 0.951 . S
C681 C679 1.388 . S
C681 C682 1.366 . S
C682 C681 1.366 . S
C682 C683 1.414 . S
C682 C685 1.499 . S
C683 H657 0.950 1_554 S
C683 C682 1.414 . S
C683 C684 1.374 . S
C684 H658 0.950 . S
C684 C680 1.385 . S
C684 C683 1.374 . S
C685 C682 1.499 . S
C685 C686 1.380 . S
C685 C687 1.389 . S
C686 H659 0.950 . S
C686 C672 1.370 1_554 S
C686 C685 1.380 . S
C687 C671 1.370 1_554 S
C687 C685 1.389 . S
C687 C688 1.524 . S
C688 C687 1.524 . S
C688 C689 1.397 . S
C688 C693 1.363 . S
C689 H660 0.950 1_554 S
C689 C688 1.397 . S
C689 C690 1.334 . S
C690 H661 0.950 . S
C690 C689 1.334 . S
C690 C691 1.287 . S
C691 C690 1.287 . S
C691 C692 1.524 . S
C691 H694 0.999 . S
C692 H662 0.950 . S
C692 C691 1.524 . S
C692 C693 1.415 . S
C693 H663 0.950 . S
C693 C688 1.363 . S
C693 C692 1.415 . S
H694 C691 0.999 . S
H695 C676 0.913 . S
H696 C714 0.951 . S
H697 C716 0.951 . S
H698 C718 0.950 . S
H699 C719 0.950 . S
H700 C721 0.950 . S
H701 C724 0.950 . S
H702 C725 0.950 . S
H703 C727 0.950 . S
H704 C728 0.950 . S
H705 C729 0.951 . S
H706 C731 0.951 . S
H707 C733 0.950 . S
H708 C734 0.950 . S
H709 C736 0.950 . S
H710 C739 0.950 . S
H711 C740 0.950 . S
H712 C742 0.950 . S
H713 C743 0.950 . S
C714 H696 0.951 . S
C714 C715 1.366 . S
C714 C716 1.388 . S
C715 C714 1.366 . S
C715 C719 1.385 . S
C716 H697 0.951 . S
C716 C714 1.388 . S
C716 C717 1.366 . S
C717 C716 1.366 . S
C717 C718 1.414 . S
C717 C720 1.499 . S
C718 H698 0.950 . S
C718 C717 1.414 . S
C718 C719 1.374 . S
C719 H699 0.950 . S
C719 C715 1.385 . S
C719 C718 1.374 . S
C720 C717 1.499 . S
C720 C721 1.373 . S
C720 C722 1.389 . S
C721 H700 0.950 . S
C721 C720 1.373 . S
C721 C737 1.377 . S
C722 C720 1.389 . S
C722 C723 1.524 . S
C722 C736 1.377 . S
C723 C722 1.524 . S
C723 C724 1.397 . S
C723 C728 1.363 . S
C724 H701 0.950 . S
C724 C723 1.397 . S
C724 C725 1.334 . S
C725 H702 0.950 . S
C725 C724 1.334 . S
C725 C726 1.287 . S
C726 C725 1.287 . S
C726 C727 1.524 . S
C726 H745 0.913 . S
C727 H703 0.950 . S
C727 C726 1.524 . S
C727 C728 1.415 . S
C728 H704 0.950 . S
C728 C723 1.363 . S
C728 C727 1.415 . S
C729 H705 0.951 . S
C729 C730 1.366 . S
C729 C731 1.388 . S
C730 C729 1.366 . S
C730 C734 1.385 . S
C731 H706 0.951 . S
C731 C729 1.388 . S
C731 C732 1.366 . S
C732 C731 1.366 . S
C732 C733 1.414 . S
C732 C735 1.499 . S
C733 H707 0.950 . S
C733 C732 1.414 . S
C733 C734 1.374 . S
C734 H708 0.950 . S
C734 C730 1.385 . S
C734 C733 1.374 . S
C735 C732 1.499 . S
C735 C736 1.373 . S
C735 C737 1.389 . S
C736 H709 0.950 . S
C736 C722 1.377 . S
C736 C735 1.373 . S
C737 C721 1.377 . S
C737 C735 1.389 . S
C737 C738 1.524 . S
C738 C737 1.524 . S
C738 C739 1.397 . S
C738 C743 1.363 . S
C739 H710 0.950 . S
C739 C738 1.397 . S
C739 C740 1.334 . S
C740 H711 0.950 . S
C740 C739 1.334 . S
C740 C741 1.287 . S
C741 C740 1.287 . S
C741 C742 1.524 . S
C741 H744 0.999 . S
C742 H712 0.950 . S
C742 C741 1.524 . S
C742 C743 1.415 . S
C743 H713 0.950 . S
C743 C738 1.363 . S
C743 C742 1.415 . S
H744 C741 0.999 . S
H745 C726 0.913 . S
H746 C764 0.951 . S
H747 C766 0.951 . S
H748 C768 0.950 . S
H749 C769 0.950 . S
H750 C771 0.950 . S
H751 C774 0.950 . S
H752 C775 0.950 . S
H753 C777 0.950 . S
H754 C778 0.950 . S
H755 C779 0.951 . S
H756 C781 0.951 . S
H757 C783 0.950 . S
H758 C784 0.950 . S
H759 C786 0.950 . S
H760 C789 0.950 . S
H761 C790 0.950 . S
H762 C792 0.950 . S
H763 C793 0.950 . S
C764 H746 0.951 . S
C764 C765 1.366 . S
C764 C766 1.388 . S
C765 C764 1.366 . S
C765 C769 1.385 . S
C766 H747 0.951 . S
C766 C764 1.388 . S
C766 C767 1.366 . S
C767 C766 1.366 . S
C767 C768 1.414 . S
C767 C770 1.499 . S
C768 H748 0.950 . S
C768 C767 1.414 . S
C768 C769 1.374 . S
C769 H749 0.950 . S
C769 C765 1.385 . S
C769 C768 1.374 . S
C770 C767 1.499 . S
C770 C771 1.373 . S
C770 C772 1.389 . S
C771 H750 0.950 . S
C771 C770 1.373 . S
C771 C787 1.377 . S
C772 C770 1.389 . S
C772 C773 1.524 . S
C772 C786 1.377 . S
C773 C772 1.524 . S
C773 C774 1.397 . S
C773 C778 1.363 . S
C774 H751 0.950 . S
C774 C773 1.397 . S
C774 C775 1.334 . S
C775 H752 0.950 . S
C775 C774 1.334 . S
C775 C776 1.287 . S
C776 C775 1.287 . S
C776 C777 1.524 . S
C776 H795 0.913 . S
C777 H753 0.950 . S
C777 C776 1.524 . S
C777 C778 1.415 . S
C778 H754 0.950 . S
C778 C773 1.363 . S
C778 C777 1.415 . S
C779 H755 0.951 . S
C779 C780 1.366 . S
C779 C781 1.388 . S
C780 C779 1.366 . S
C780 C784 1.385 . S
C781 H756 0.951 . S
C781 C779 1.388 . S
C781 C782 1.366 . S
C782 C781 1.366 . S
C782 C783 1.414 . S
C782 C785 1.499 . S
C783 H757 0.950 . S
C783 C782 1.414 . S
C783 C784 1.374 . S
C784 H758 0.950 . S
C784 C780 1.385 . S
C784 C783 1.374 . S
C785 C782 1.499 . S
C785 C786 1.373 . S
C785 C787 1.389 . S
C786 H759 0.950 . S
C786 C772 1.377 . S
C786 C785 1.373 . S
C787 C771 1.377 . S
C787 C785 1.389 . S
C787 C788 1.524 . S
C788 C787 1.524 . S
C788 C789 1.397 . S
C788 C793 1.363 . S
C789 H760 0.950 . S
C789 C788 1.397 . S
C789 C790 1.334 . S
C790 H761 0.950 . S
C790 C789 1.334 . S
C790 C791 1.287 . S
C791 C790 1.287 . S
C791 C792 1.524 . S
C791 H794 0.999 . S
C792 H762 0.950 . S
C792 C791 1.524 . S
C792 C793 1.415 . S
C793 H763 0.950 . S
C793 C788 1.363 . S
C793 C792 1.415 . S
H794 C791 0.999 . S
H795 C776 0.913 . S
H796 C814 0.951 . S
H797 C816 0.951 . S
H798 C818 0.950 . S
H799 C819 0.950 . S
H800 C821 0.950 . S
H801 C824 0.950 . S
H802 C825 0.950 . S
H803 C827 0.950 . S
H804 C828 0.950 . S
H805 C829 0.951 . S
H806 C831 0.951 . S
H807 C833 0.950 . S
H808 C834 0.950 . S
H809 C836 0.950 . S
H810 C839 0.950 . S
H811 C840 0.950 . S
H812 C842 0.950 . S
H813 C843 0.950 . S
C814 H796 0.951 . S
C814 C815 1.366 . S
C814 C816 1.388 . S
C815 C814 1.366 . S
C815 C819 1.385 . S
C816 H797 0.951 . S
C816 C814 1.388 . S
C816 C817 1.366 . S
C817 C816 1.366 . S
C817 C818 1.414 . S
C817 C820 1.499 . S
C818 H798 0.950 . S
C818 C817 1.414 . S
C818 C819 1.374 . S
C819 H799 0.950 . S
C819 C815 1.385 . S
C819 C818 1.374 . S
C820 C817 1.499 . S
C820 C821 1.373 . S
C820 C822 1.389 . S
C821 H800 0.950 . S
C821 C820 1.373 . S
C821 C837 1.377 . S
C822 C820 1.389 . S
C822 C823 1.524 . S
C822 C836 1.377 . S
C823 C822 1.524 . S
C823 C824 1.397 . S
C823 C828 1.363 . S
C824 H801 0.950 . S
C824 C823 1.397 . S
C824 C825 1.334 . S
C825 H802 0.950 . S
C825 C824 1.334 . S
C825 C826 1.287 . S
C826 C825 1.287 . S
C826 C827 1.524 . S
C826 H845 0.913 . S
C827 H803 0.950 . S
C827 C826 1.524 . S
C827 C828 1.415 . S
C828 H804 0.950 . S
C828 C823 1.363 . S
C828 C827 1.415 . S
C829 H805 0.951 . S
C829 C830 1.366 . S
C829 C831 1.388 . S
C830 C829 1.366 . S
C830 C834 1.385 . S
C831 H806 0.951 . S
C831 C829 1.388 . S
C831 C832 1.366 . S
C832 C831 1.366 . S
C832 C833 1.414 . S
C832 C835 1.499 . S
C833 H807 0.950 . S
C833 C832 1.414 . S
C833 C834 1.374 . S
C834 H808 0.950 . S
C834 C830 1.385 . S
C834 C833 1.374 . S
C835 C832 1.499 . S
C835 C836 1.373 . S
C835 C837 1.389 . S
C836 H809 0.950 . S
C836 C822 1.377 . S
C836 C835 1.373 . S
C837 C821 1.377 . S
C837 C835 1.389 . S
C837 C838 1.524 . S
C838 C837 1.524 . S
C838 C839 1.397 . S
C838 C843 1.363 . S
C839 H810 0.950 . S
C839 C838 1.397 . S
C839 C840 1.334 . S
C840 H811 0.950 . S
C840 C839 1.334 . S
C840 C841 1.287 . S
C841 C840 1.287 . S
C841 C842 1.524 . S
C841 H844 0.999 . S
C842 H812 0.950 . S
C842 C841 1.524 . S
C842 C843 1.415 . S
C843 H813 0.950 . S
C843 C838 1.363 . S
C843 C842 1.415 . S
H844 C841 0.999 . S
H845 C826 0.913 . S
H846 C864 0.951 . S
H847 C866 0.951 . S
H848 C868 0.950 . S
H849 C869 0.950 . S
H850 C871 0.950 . S
H851 C874 0.950 . S
H852 C875 0.950 . S
H853 C877 0.950 . S
H854 C878 0.950 . S
H855 C879 0.951 . S
H856 C881 0.951 . S
H857 C883 0.950 . S
H858 C884 0.950 . S
H859 C886 0.950 . S
H860 C889 0.950 . S
H861 C890 0.950 . S
H862 C892 0.950 . S
H863 C893 0.950 . S
C864 H846 0.951 . S
C864 C865 1.366 . S
C864 C866 1.388 . S
C865 C864 1.366 . S
C865 C869 1.385 . S
C866 H847 0.951 . S
C866 C864 1.388 . S
C866 C867 1.366 . S
C867 C866 1.366 . S
C867 C868 1.414 . S
C867 C870 1.499 . S
C868 H848 0.950 . S
C868 C867 1.414 . S
C868 C869 1.374 . S
C869 H849 0.950 . S
C869 C865 1.385 . S
C869 C868 1.374 . S
C870 C867 1.499 . S
C870 C871 1.373 . S
C870 C872 1.389 . S
C871 H850 0.950 . S
C871 C870 1.373 . S
C871 C887 1.377 . S
C872 C870 1.389 . S
C872 C873 1.524 . S
C872 C886 1.377 . S
C873 C872 1.524 . S
C873 C874 1.397 . S
C873 C878 1.363 . S
C874 H851 0.950 . S
C874 C873 1.397 . S
C874 C875 1.334 . S
C875 H852 0.950 . S
C875 C874 1.334 . S
C875 C876 1.287 . S
C876 C875 1.287 . S
C876 C877 1.524 . S
C876 H895 0.916 . S
C877 H853 0.950 . S
C877 C876 1.524 . S
C877 C878 1.415 . S
C878 H854 0.950 . S
C878 C873 1.363 . S
C878 C877 1.415 . S
C879 H855 0.951 . S
C879 C880 1.366 . S
C879 C881 1.388 . S
C880 C879 1.366 . S
C880 C884 1.385 . S
C881 H856 0.951 . S
C881 C879 1.388 . S
C881 C882 1.366 . S
C882 C881 1.366 . S
C882 C883 1.414 . S
C882 C885 1.499 . S
C883 H857 0.950 . S
C883 C882 1.414 . S
C883 C884 1.374 . S
C884 H858 0.950 . S
C884 C880 1.385 . S
C884 C883 1.374 . S
C885 C882 1.499 . S
C885 C886 1.373 . S
C885 C887 1.389 . S
C886 H859 0.950 . S
C886 C872 1.377 . S
C886 C885 1.373 . S
C887 C871 1.377 . S
C887 C885 1.389 . S
C887 C888 1.524 . S
C888 C887 1.524 . S
C888 C889 1.397 . S
C888 C893 1.363 . S
C889 H860 0.950 . S
C889 C888 1.397 . S
C889 C890 1.334 . S
C890 H861 0.950 . S
C890 C889 1.334 . S
C890 C891 1.287 . S
C891 C890 1.287 . S
C891 C892 1.524 . S
C891 H894 0.999 . S
C892 H862 0.950 . S
C892 C891 1.524 . S
C892 C893 1.415 . S
C893 H863 0.950 . S
C893 C888 1.363 . S
C893 C892 1.415 . S
H894 C891 0.999 . S
H895 C876 0.916 . S
H896 C914 0.951 . S
H897 C916 0.951 . S
H898 C918 0.950 . S
H899 C919 0.950 . S
H900 C921 0.950 . S
H901 C924 0.950 . S
H902 C925 0.950 . S
H903 C927 0.950 . S
H904 C928 0.950 . S
H905 C929 0.951 . S
H906 C931 0.951 . S
H907 C933 0.950 . S
H908 C934 0.950 . S
H909 C936 0.950 . S
H910 C939 0.950 . S
H911 C940 0.950 . S
H912 C942 0.950 . S
H913 C943 0.950 . S
C914 H896 0.951 . S
C914 C915 1.366 . S
C914 C916 1.388 . S
C915 C914 1.366 . S
C915 C919 1.385 . S
C916 H897 0.951 . S
C916 C914 1.388 . S
C916 C917 1.366 . S
C917 C916 1.366 . S
C917 C918 1.414 . S
C917 C920 1.499 . S
C918 H898 0.950 . S
C918 C917 1.414 . S
C918 C919 1.374 . S
C919 H899 0.950 . S
C919 C915 1.385 . S
C919 C918 1.374 . S
C920 C917 1.499 . S
C920 C921 1.373 . S
C920 C922 1.389 . S
C921 H900 0.950 . S
C921 C920 1.373 . S
C921 C937 1.377 . S
C922 C920 1.389 . S
C922 C923 1.524 . S
C922 C936 1.377 . S
C923 C922 1.524 . S
C923 C924 1.397 . S
C923 C928 1.363 . S
C924 H901 0.950 . S
C924 C923 1.397 . S
C924 C925 1.334 . S
C925 H902 0.950 . S
C925 C924 1.334 . S
C925 C926 1.287 . S
C926 C925 1.287 . S
C926 C927 1.524 . S
C926 H945 0.913 . S
C927 H903 0.950 . S
C927 C926 1.524 . S
C927 C928 1.415 . S
C928 H904 0.950 . S
C928 C923 1.363 . S
C928 C927 1.415 . S
C929 H905 0.951 . S
C929 C930 1.366 . S
C929 C931 1.388 . S
C930 C929 1.366 . S
C930 C934 1.385 . S
C931 H906 0.951 . S
C931 C929 1.388 . S
C931 C932 1.366 . S
C932 C931 1.366 . S
C932 C933 1.414 . S
C932 C935 1.499 . S
C933 H907 0.950 . S
C933 C932 1.414 . S
C933 C934 1.374 . S
C934 H908 0.950 . S
C934 C930 1.385 . S
C934 C933 1.374 . S
C935 C932 1.499 . S
C935 C936 1.373 . S
C935 C937 1.389 . S
C936 H909 0.950 . S
C936 C922 1.377 . S
C936 C935 1.373 . S
C937 C921 1.377 . S
C937 C935 1.389 . S
C937 C938 1.524 . S
C938 C937 1.524 . S
C938 C939 1.397 . S
C938 C943 1.363 . S
C939 H910 0.950 . S
C939 C938 1.397 . S
C939 C940 1.334 . S
C940 H911 0.950 . S
C940 C939 1.334 . S
C940 C941 1.287 . S
C941 C940 1.287 . S
C941 C942 1.524 . S
C941 H944 0.999 . S
C942 H912 0.950 . S
C942 C941 1.524 . S
C942 C943 1.415 . S
C943 H913 0.950 . S
C943 C938 1.363 . S
C943 C942 1.415 . S
H944 C941 0.999 . S
H945 C926 0.913 . S
H946 C964 0.951 . S
H947 C966 0.951 . S
H948 C968 0.950 . S
H949 C969 0.950 . S
H950 C971 0.950 . S
H951 C974 0.950 . S
H952 C975 0.950 . S
H953 C977 0.950 1_554 S
H954 C978 0.950 . S
H955 C979 0.951 . S
H956 C981 0.951 . S
H957 C983 0.950 . S
H958 C984 0.950 . S
H959 C986 0.950 . S
H960 C989 0.950 . S
H961 C990 0.950 . S
H962 C992 0.950 . S
H963 C993 0.950 . S
C964 H946 0.951 . S
C964 C965 1.366 . S
C964 C966 1.388 . S
C965 C964 1.366 . S
C965 C969 1.385 . S
C966 H947 0.951 . S
C966 C964 1.388 . S
C966 C967 1.366 . S
C967 C966 1.366 . S
C967 C968 1.414 . S
C967 C970 1.499 . S
C968 H948 0.950 . S
C968 C967 1.414 . S
C968 C969 1.374 . S
C969 H949 0.950 . S
C969 C965 1.385 . S
C969 C968 1.374 . S
C970 C967 1.499 . S
C970 C971 1.373 . S
C970 C972 1.389 . S
C971 H950 0.950 . S
C971 C970 1.373 . S
C971 C987 1.377 . S
C972 C970 1.389 . S
C972 C973 1.524 . S
C972 C986 1.377 . S
C973 C972 1.524 . S
C973 C974 1.397 . S
C973 C978 1.363 . S
C974 H951 0.950 . S
C974 C973 1.397 . S
C974 C975 1.334 . S
C975 H952 0.950 . S
C975 C974 1.334 . S
C975 C976 1.287 . S
C976 C975 1.287 . S
C976 C977 1.524 . S
C976 H995 0.913 . S
C977 H953 0.950 1_556 S
C977 C976 1.524 . S
C977 C978 1.415 . S
C978 H954 0.950 . S
C978 C973 1.363 . S
C978 C977 1.415 . S
C979 H955 0.951 . S
C979 C980 1.366 . S
C979 C981 1.388 . S
C980 C979 1.366 . S
C980 C984 1.385 . S
C981 H956 0.951 . S
C981 C979 1.388 . S
C981 C982 1.366 . S
C982 C981 1.366 . S
C982 C983 1.414 . S
C982 C985 1.499 . S
C983 H957 0.950 . S
C983 C982 1.414 . S
C983 C984 1.374 . S
C984 H958 0.950 . S
C984 C980 1.385 . S
C984 C983 1.374 . S
C985 C982 1.499 . S
C985 C986 1.373 . S
C985 C987 1.389 . S
C986 H959 0.950 . S
C986 C972 1.377 . S
C986 C985 1.373 . S
C987 C971 1.377 . S
C987 C985 1.389 . S
C987 C988 1.524 . S
C988 C987 1.524 . S
C988 C989 1.397 . S
C988 C993 1.363 . S
C989 H960 0.950 . S
C989 C988 1.397 . S
C989 C990 1.334 . S
C990 H961 0.950 . S
C990 C989 1.334 . S
C990 C991 1.287 . S
C991 C990 1.287 . S
C991 C992 1.524 . S
C991 H994 0.999 . S
C992 H962 0.950 . S
C992 C991 1.524 . S
C992 C993 1.415 . S
C993 H963 0.950 . S
C993 C988 1.363 . S
C993 C992 1.415 . S
H994 C991 0.999 . S
H995 C976 0.913 . S
H996 C1014 0.951 . S
H997 C1016 0.951 . S
H998 C1018 0.950 . S
H999 C1019 0.950 . S
H1000 C1021 0.950 . S
H1001 C1024 0.950 . S
H1002 C1025 0.950 . S
H1003 C1027 0.950 . S
H1004 C1028 0.950 . S
H1005 C1029 0.951 . S
H1006 C1031 0.951 . S
H1007 C1033 0.950 . S
H1008 C1034 0.950 . S
H1009 C1036 0.950 . S
H1010 C1039 0.950 . S
H1011 C1040 0.950 . S
H1012 C1042 0.950 . S
H1013 C1043 0.950 . S
C1014 H996 0.951 . S
C1014 C1015 1.366 . S
C1014 C1016 1.388 . S
C1015 C1014 1.366 . S
C1015 C1019 1.385 . S
C1016 H997 0.951 . S
C1016 C1014 1.388 . S
C1016 C1017 1.366 . S
C1017 C1016 1.366 . S
C1017 C1018 1.414 . S
C1017 C1020 1.499 . S
C1018 H998 0.950 . S
C1018 C1017 1.414 . S
C1018 C1019 1.374 . S
C1019 H999 0.950 . S
C1019 C1015 1.385 . S
C1019 C1018 1.374 . S
C1020 C1017 1.499 . S
C1020 C1021 1.373 . S
C1020 C1022 1.389 . S
C1021 H1000 0.950 . S
C1021 C1020 1.373 . S
C1021 C1037 1.377 . S
C1022 C1020 1.389 . S
C1022 C1023 1.524 . S
C1022 C1036 1.377 . S
C1023 C1022 1.524 . S
C1023 C1024 1.397 . S
C1023 C1028 1.363 . S
C1024 H1001 0.950 . S
C1024 C1023 1.397 . S
C1024 C1025 1.334 . S
C1025 H1002 0.950 . S
C1025 C1024 1.334 . S
C1025 C1026 1.287 . S
C1026 C1025 1.287 . S
C1026 C1027 1.524 . S
C1026 H1045 0.913 . S
C1027 H1003 0.950 . S
C1027 C1026 1.524 . S
C1027 C1028 1.415 . S
C1028 H1004 0.950 . S
C1028 C1023 1.363 . S
C1028 C1027 1.415 . S
C1029 H1005 0.951 . S
C1029 C1030 1.366 . S
C1029 C1031 1.388 1_554 S
C1030 C1029 1.366 . S
C1030 C1034 1.385 . S
C1031 H1006 0.951 . S
C1031 C1029 1.388 1_556 S
C1031 C1032 1.366 . S
C1032 C1031 1.366 . S
C1032 C1033 1.414 . S
C1032 C1035 1.499 . S
C1033 H1007 0.950 . S
C1033 C1032 1.414 . S
C1033 C1034 1.374 1_556 S
C1034 H1008 0.950 . S
C1034 C1030 1.385 . S
C1034 C1033 1.374 1_554 S
C1035 C1032 1.499 . S
C1035 C1036 1.373 . S
C1035 C1037 1.389 . S
C1036 H1009 0.950 . S
C1036 C1022 1.377 . S
C1036 C1035 1.373 . S
C1037 C1021 1.377 . S
C1037 C1035 1.389 . S
C1037 C1038 1.524 . S
C1038 C1037 1.524 . S
C1038 C1039 1.397 . S
C1038 C1043 1.363 . S
C1039 H1010 0.950 . S
C1039 C1038 1.397 . S
C1039 C1040 1.334 . S
C1040 H1011 0.950 . S
C1040 C1039 1.334 . S
C1040 C1041 1.287 . S
C1041 C1040 1.287 . S
C1041 C1042 1.524 . S
C1041 H1044 0.999 . S
C1042 H1012 0.950 . S
C1042 C1041 1.524 . S
C1042 C1043 1.415 . S
C1043 H1013 0.950 . S
C1043 C1038 1.363 . S
C1043 C1042 1.415 . S
H1044 C1041 0.999 . S
H1045 C1026 0.913 . S
H1046 C1064 0.951 . S
H1047 C1066 0.951 . S
H1048 C1068 0.950 . S
H1049 C1069 0.950 . S
H1050 C1071 0.950 . S
H1051 C1074 0.950 . S
H1052 C1075 0.950 . S
H1053 C1077 0.950 . S
H1054 C1078 0.950 . S
H1055 C1079 0.951 . S
H1056 C1081 0.951 . S
H1057 C1083 0.950 . S
H1058 C1084 0.950 . S
H1059 C1086 0.950 . S
H1060 C1089 0.950 . S
H1061 C1090 0.950 . S
H1062 C1092 0.950 . S
H1063 C1093 0.950 . S
C1064 H1046 0.951 . S
C1064 C1065 1.366 . S
C1064 C1066 1.388 . S
C1065 C1064 1.366 . S
C1065 C1069 1.385 . S
C1066 H1047 0.951 . S
C1066 C1064 1.388 . S
C1066 C1067 1.366 . S
C1067 C1066 1.366 . S
C1067 C1068 1.414 . S
C1067 C1070 1.499 . S
C1068 H1048 0.950 . S
C1068 C1067 1.414 . S
C1068 C1069 1.374 . S
C1069 H1049 0.950 . S
C1069 C1065 1.385 . S
C1069 C1068 1.374 . S
C1070 C1067 1.499 . S
C1070 C1071 1.373 . S
C1070 C1072 1.389 . S
C1071 H1050 0.950 . S
C1071 C1070 1.373 . S
C1071 C1087 1.377 . S
C1072 C1070 1.389 . S
C1072 C1073 1.524 . S
C1072 C1086 1.377 . S
C1073 C1072 1.524 . S
C1073 C1074 1.397 . S
C1073 C1078 1.363 . S
C1074 H1051 0.950 . S
C1074 C1073 1.397 . S
C1074 C1075 1.334 . S
C1075 H1052 0.950 . S
C1075 C1074 1.334 . S
C1075 C1076 1.287 . S
C1076 C1075 1.287 . S
C1076 C1077 1.524 . S
C1076 H1095 0.913 . S
C1077 H1053 0.950 . S
C1077 C1076 1.524 . S
C1077 C1078 1.415 . S
C1078 H1054 0.950 . S
C1078 C1073 1.363 . S
C1078 C1077 1.415 . S
C1079 H1055 0.951 . S
C1079 C1080 1.366 . S
C1079 C1081 1.388 . S
C1080 C1079 1.366 . S
C1080 C1084 1.385 . S
C1081 H1056 0.951 . S
C1081 C1079 1.388 . S
C1081 C1082 1.366 . S
C1082 C1081 1.366 . S
C1082 C1083 1.414 . S
C1082 C1085 1.499 . S
C1083 H1057 0.950 . S
C1083 C1082 1.414 . S
C1083 C1084 1.374 . S
C1084 H1058 0.950 . S
C1084 C1080 1.385 . S
C1084 C1083 1.374 . S
C1085 C1082 1.499 . S
C1085 C1086 1.373 . S
C1085 C1087 1.389 . S
C1086 H1059 0.950 . S
C1086 C1072 1.377 . S
C1086 C1085 1.373 . S
C1087 C1071 1.377 . S
C1087 C1085 1.389 . S
C1087 C1088 1.524 . S
C1088 C1087 1.524 . S
C1088 C1089 1.397 . S
C1088 C1093 1.363 . S
C1089 H1060 0.950 . S
C1089 C1088 1.397 . S
C1089 C1090 1.334 . S
C1090 H1061 0.950 . S
C1090 C1089 1.334 . S
C1090 C1091 1.287 . S
C1091 C1090 1.287 . S
C1091 C1092 1.524 . S
C1091 H1094 0.999 . S
C1092 H1062 0.950 . S
C1092 C1091 1.524 . S
C1092 C1093 1.415 . S
C1093 H1063 0.950 . S
C1093 C1088 1.363 . S
C1093 C1092 1.415 . S
H1094 C1091 0.999 . S
H1095 C1076 0.913 . S
H1096 C1114 0.951 . S
H1097 C1116 0.951 . S
H1098 C1118 0.950 . S
H1099 C1119 0.950 . S
H1100 C1121 0.950 . S
H1101 C1124 0.950 . S
H1102 C1125 0.950 . S
H1103 C1127 0.950 . S
H1104 C1128 0.950 . S
H1105 C1129 0.951 . S
H1106 C1131 0.951 . S
H1107 C1133 0.950 . S
H1108 C1134 0.950 . S
H1109 C1136 0.950 . S
H1110 C1139 0.950 . S
H1111 C1140 0.950 . S
H1112 C1142 0.950 . S
H1113 C1143 0.950 . S
C1114 H1096 0.951 . S
C1114 C1115 1.366 . S
C1114 C1116 1.388 . S
C1115 C1114 1.366 . S
C1115 C1119 1.385 . S
C1116 H1097 0.951 . S
C1116 C1114 1.388 . S
C1116 C1117 1.366 . S
C1117 C1116 1.366 . S
C1117 C1118 1.414 . S
C1117 C1120 1.499 . S
C1118 H1098 0.950 . S
C1118 C1117 1.414 . S
C1118 C1119 1.374 . S
C1119 H1099 0.950 . S
C1119 C1115 1.385 . S
C1119 C1118 1.374 . S
C1120 C1117 1.499 . S
C1120 C1121 1.373 . S
C1120 C1122 1.389 . S
C1121 H1100 0.950 . S
C1121 C1120 1.373 . S
C1121 C1137 1.377 . S
C1122 C1120 1.389 . S
C1122 C1123 1.524 . S
C1122 C1136 1.377 . S
C1123 C1122 1.524 . S
C1123 C1124 1.397 . S
C1123 C1128 1.363 . S
C1124 H1101 0.950 . S
C1124 C1123 1.397 . S
C1124 C1125 1.334 . S
C1125 H1102 0.950 . S
C1125 C1124 1.334 . S
C1125 C1126 1.287 . S
C1126 C1125 1.287 . S
C1126 C1127 1.524 . S
C1126 H1145 0.913 . S
C1127 H1103 0.950 . S
C1127 C1126 1.524 . S
C1127 C1128 1.415 . S
C1128 H1104 0.950 . S
C1128 C1123 1.363 . S
C1128 C1127 1.415 . S
C1129 H1105 0.951 . S
C1129 C1130 1.366 . S
C1129 C1131 1.388 1_554 S
C1130 C1129 1.366 . S
C1130 C1134 1.385 . S
C1131 H1106 0.951 . S
C1131 C1129 1.388 1_556 S
C1131 C1132 1.366 . S
C1132 C1131 1.366 . S
C1132 C1133 1.414 . S
C1132 C1135 1.499 . S
C1133 H1107 0.950 . S
C1133 C1132 1.414 . S
C1133 C1134 1.374 1_556 S
C1134 H1108 0.950 . S
C1134 C1130 1.385 . S
C1134 C1133 1.374 1_554 S
C1135 C1132 1.499 . S
C1135 C1136 1.373 . S
C1135 C1137 1.389 . S
C1136 H1109 0.950 . S
C1136 C1122 1.377 . S
C1136 C1135 1.373 . S
C1137 C1121 1.377 . S
C1137 C1135 1.389 . S
C1137 C1138 1.524 . S
C1138 C1137 1.524 . S
C1138 C1139 1.397 . S
C1138 C1143 1.363 . S
C1139 H1110 0.950 . S
C1139 C1138 1.397 . S
C1139 C1140 1.334 . S
C1140 H1111 0.950 . S
C1140 C1139 1.334 . S
C1140 C1141 1.287 . S
C1141 C1140 1.287 . S
C1141 C1142 1.524 . S
C1141 H1144 0.999 . S
C1142 H1112 0.950 . S
C1142 C1141 1.524 . S
C1142 C1143 1.415 . S
C1143 H1113 0.950 . S
C1143 C1138 1.363 . S
C1143 C1142 1.415 . S
H1144 C1141 0.999 . S
H1145 C1126 0.913 . S
H1146 C1164 0.951 . S
H1147 C1166 0.951 . S
H1148 C1168 0.950 . S
H1149 C1169 0.950 . S
H1150 C1171 0.950 . S
H1151 C1174 0.950 . S
H1152 C1175 0.950 . S
H1153 C1177 0.950 . S
H1154 C1178 0.950 . S
H1155 C1179 0.951 . S
H1156 C1181 0.951 . S
H1157 C1183 0.950 . S
H1158 C1184 0.950 . S
H1159 C1186 0.950 . S
H1160 C1189 0.950 . S
H1161 C1190 0.950 . S
H1162 C1192 0.950 . S
H1163 C1193 0.950 . S
C1164 H1146 0.951 . S
C1164 C1165 1.366 . S
C1164 C1166 1.388 . S
C1165 C1164 1.366 . S
C1165 C1169 1.385 . S
C1166 H1147 0.951 . S
C1166 C1164 1.388 . S
C1166 C1167 1.366 . S
C1167 C1166 1.366 . S
C1167 C1168 1.414 . S
C1167 C1170 1.499 . S
C1168 H1148 0.950 . S
C1168 C1167 1.414 . S
C1168 C1169 1.374 . S
C1169 H1149 0.950 . S
C1169 C1165 1.385 . S
C1169 C1168 1.374 . S
C1170 C1167 1.499 . S
C1170 C1171 1.373 . S
C1170 C1172 1.389 . S
C1171 H1150 0.950 . S
C1171 C1170 1.373 . S
C1171 C1187 1.377 . S
C1172 C1170 1.389 . S
C1172 C1173 1.524 . S
C1172 C1186 1.377 . S
C1173 C1172 1.524 . S
C1173 C1174 1.397 . S
C1173 C1178 1.363 . S
C1174 H1151 0.950 . S
C1174 C1173 1.397 . S
C1174 C1175 1.334 . S
C1175 H1152 0.950 . S
C1175 C1174 1.334 . S
C1175 C1176 1.287 . S
C1176 C1175 1.287 . S
C1176 C1177 1.524 . S
C1176 H1195 0.913 . S
C1177 H1153 0.950 . S
C1177 C1176 1.524 . S
C1177 C1178 1.415 . S
C1178 H1154 0.950 . S
C1178 C1173 1.363 . S
C1178 C1177 1.415 . S
C1179 H1155 0.951 . S
C1179 C1180 1.366 . S
C1179 C1181 1.388 . S
C1180 C1179 1.366 . S
C1180 C1184 1.385 . S
C1181 H1156 0.951 . S
C1181 C1179 1.388 . S
C1181 C1182 1.366 . S
C1182 C1181 1.366 . S
C1182 C1183 1.414 . S
C1182 C1185 1.499 . S
C1183 H1157 0.950 . S
C1183 C1182 1.414 . S
C1183 C1184 1.374 . S
C1184 H1158 0.950 . S
C1184 C1180 1.385 . S
C1184 C1183 1.374 . S
C1185 C1182 1.499 . S
C1185 C1186 1.373 . S
C1185 C1187 1.389 . S
C1186 H1159 0.950 . S
C1186 C1172 1.377 . S
C1186 C1185 1.373 . S
C1187 C1171 1.377 . S
C1187 C1185 1.389 . S
C1187 C1188 1.524 . S
C1188 C1187 1.524 . S
C1188 C1189 1.397 . S
C1188 C1193 1.363 . S
C1189 H1160 0.950 . S
C1189 C1188 1.397 . S
C1189 C1190 1.334 . S
C1190 H1161 0.950 . S
C1190 C1189 1.334 . S
C1190 C1191 1.287 . S
C1191 C1190 1.287 . S
C1191 C1192 1.524 . S
C1191 H1194 0.999 . S
C1192 H1162 0.950 . S
C1192 C1191 1.524 . S
C1192 C1193 1.415 . S
C1193 H1163 0.950 . S
C1193 C1188 1.363 . S
C1193 C1192 1.415 . S
H1194 C1191 0.999 . S
H1195 C1176 0.913 . S
H1196 C1214 0.951 . S
H1197 C1216 0.951 . S
H1198 C1218 0.950 . S
H1199 C1219 0.950 . S
H1200 C1221 0.950 . S
H1201 C1224 0.950 . S
H1202 C1225 0.950 . S
H1203 C1227 0.950 . S
H1204 C1228 0.950 . S
H1205 C1229 0.951 . S
H1206 C1231 0.951 . S
H1207 C1233 0.950 . S
H1208 C1234 0.950 . S
H1209 C1236 0.950 . S
H1210 C1239 0.950 . S
H1211 C1240 0.950 . S
H1212 C1242 0.950 . S
H1213 C1243 0.950 . S
C1214 H1196 0.951 . S
C1214 C1215 1.366 . S
C1214 C1216 1.388 . S
C1215 C1214 1.366 . S
C1215 C1219 1.385 . S
C1216 H1197 0.951 . S
C1216 C1214 1.388 . S
C1216 C1217 1.366 . S
C1217 C1216 1.366 . S
C1217 C1218 1.414 . S
C1217 C1220 1.499 . S
C1218 H1198 0.950 . S
C1218 C1217 1.414 . S
C1218 C1219 1.374 . S
C1219 H1199 0.950 . S
C1219 C1215 1.385 . S
C1219 C1218 1.374 . S
C1220 C1217 1.499 . S
C1220 C1221 1.373 . S
C1220 C1222 1.389 . S
C1221 H1200 0.950 . S
C1221 C1220 1.373 . S
C1221 C1237 1.377 . S
C1222 C1220 1.389 . S
C1222 C1223 1.524 . S
C1222 C1236 1.377 . S
C1223 C1222 1.524 . S
C1223 C1224 1.397 . S
C1223 C1228 1.363 . S
C1224 H1201 0.950 . S
C1224 C1223 1.397 . S
C1224 C1225 1.334 . S
C1225 H1202 0.950 . S
C1225 C1224 1.334 . S
C1225 C1226 1.287 . S
C1226 C1225 1.287 . S
C1226 C1227 1.524 . S
C1226 H1245 0.913 . S
C1227 H1203 0.950 . S
C1227 C1226 1.524 . S
C1227 C1228 1.415 . S
C1228 H1204 0.950 . S
C1228 C1223 1.363 . S
C1228 C1227 1.415 . S
C1229 H1205 0.951 . S
C1229 C1230 1.366 . S
C1229 C1231 1.388 1_554 S
C1230 C1229 1.366 . S
C1230 C1234 1.385 . S
C1231 H1206 0.951 . S
C1231 C1229 1.388 1_556 S
C1231 C1232 1.366 . S
C1232 C1231 1.366 . S
C1232 C1233 1.414 . S
C1232 C1235 1.499 . S
C1233 H1207 0.950 . S
C1233 C1232 1.414 . S
C1233 C1234 1.374 1_556 S
C1234 H1208 0.950 . S
C1234 C1230 1.385 . S
C1234 C1233 1.374 1_554 S
C1235 C1232 1.499 . S
C1235 C1236 1.373 . S
C1235 C1237 1.389 . S
C1236 H1209 0.950 . S
C1236 C1222 1.377 . S
C1236 C1235 1.373 . S
C1237 C1221 1.377 . S
C1237 C1235 1.389 . S
C1237 C1238 1.524 . S
C1238 C1237 1.524 . S
C1238 C1239 1.397 . S
C1238 C1243 1.363 . S
C1239 H1210 0.950 . S
C1239 C1238 1.397 . S
C1239 C1240 1.334 . S
C1240 H1211 0.950 . S
C1240 C1239 1.334 . S
C1240 C1241 1.287 . S
C1241 C1240 1.287 . S
C1241 C1242 1.524 . S
C1241 H1244 0.999 . S
C1242 H1212 0.950 . S
C1242 C1241 1.524 . S
C1242 C1243 1.415 . S
C1243 H1213 0.950 . S
C1243 C1238 1.363 . S
C1243 C1242 1.415 . S
H1244 C1241 0.999 . S
H1245 C1226 0.913 . S
H1246 C1264 0.951 . S
H1247 C1266 0.951 . S
H1248 C1268 0.950 . S
H1249 C1269 0.950 . S
H1250 C1271 0.950 . S
H1251 C1274 0.950 . S
H1252 C1275 0.950 . S
H1253 C1277 0.950 . S
H1254 C1278 0.950 . S
H1255 C1279 0.951 . S
H1256 C1281 0.951 . S
H1257 C1283 0.950 . S
H1258 C1284 0.950 . S
H1259 C1286 0.950 . S
H1260 C1289 0.950 . S
H1261 C1290 0.950 . S
H1262 C1292 0.950 . S
H1263 C1293 0.950 . S
C1264 H1246 0.951 . S
C1264 C1265 1.366 . S
C1264 C1266 1.388 . S
C1265 C1264 1.366 . S
C1265 C1269 1.385 . S
C1266 H1247 0.951 . S
C1266 C1264 1.388 . S
C1266 C1267 1.366 . S
C1267 C1266 1.366 . S
C1267 C1268 1.414 . S
C1267 C1270 1.499 . S
C1268 H1248 0.950 . S
C1268 C1267 1.414 . S
C1268 C1269 1.374 . S
C1269 H1249 0.950 . S
C1269 C1265 1.385 . S
C1269 C1268 1.374 . S
C1270 C1267 1.499 . S
C1270 C1271 1.373 . S
C1270 C1272 1.389 . S
C1271 H1250 0.950 . S
C1271 C1270 1.373 . S
C1271 C1287 1.377 . S
C1272 C1270 1.389 . S
C1272 C1273 1.524 . S
C1272 C1286 1.377 . S
C1273 C1272 1.524 . S
C1273 C1274 1.397 . S
C1273 C1278 1.363 . S
C1274 H1251 0.950 . S
C1274 C1273 1.397 . S
C1274 C1275 1.334 . S
C1275 H1252 0.950 . S
C1275 C1274 1.334 . S
C1275 C1276 1.287 . S
C1276 C1275 1.287 . S
C1276 C1277 1.524 . S
C1276 H1295 0.913 . S
C1277 H1253 0.950 . S
C1277 C1276 1.524 . S
C1277 C1278 1.415 . S
C1278 H1254 0.950 . S
C1278 C1273 1.363 . S
C1278 C1277 1.415 . S
C1279 H1255 0.951 . S
C1279 C1280 1.366 . S
C1279 C1281 1.388 . S
C1280 C1279 1.366 . S
C1280 C1284 1.385 . S
C1281 H1256 0.951 . S
C1281 C1279 1.388 . S
C1281 C1282 1.366 . S
C1282 C1281 1.366 . S
C1282 C1283 1.414 . S
C1282 C1285 1.499 . S
C1283 H1257 0.950 . S
C1283 C1282 1.414 . S
C1283 C1284 1.374 . S
C1284 H1258 0.950 . S
C1284 C1280 1.385 . S
C1284 C1283 1.374 . S
C1285 C1282 1.499 . S
C1285 C1286 1.373 . S
C1285 C1287 1.389 . S
C1286 H1259 0.950 . S
C1286 C1272 1.377 . S
C1286 C1285 1.373 . S
C1287 C1271 1.377 . S
C1287 C1285 1.389 . S
C1287 C1288 1.524 . S
C1288 C1287 1.524 . S
C1288 C1289 1.397 . S
C1288 C1293 1.363 . S
C1289 H1260 0.950 . S
C1289 C1288 1.397 . S
C1289 C1290 1.334 . S
C1290 H1261 0.950 . S
C1290 C1289 1.334 . S
C1290 C1291 1.287 . S
C1291 C1290 1.287 . S
C1291 C1292 1.524 . S
C1291 H1294 0.999 . S
C1292 H1262 0.950 . S
C1292 C1291 1.524 . S
C1292 C1293 1.415 . S
C1293 H1263 0.950 . S
C1293 C1288 1.363 . S
C1293 C1292 1.415 . S
H1294 C1291 0.999 . S
H1295 C1276 0.913 . S
H1296 C1314 0.951 . S
H1297 C1316 0.951 . S
H1298 C1318 0.950 . S
H1299 C1319 0.950 . S
H1300 C1321 0.950 . S
H1301 C1324 0.950 . S
H1302 C1325 0.950 . S
H1303 C1327 0.950 . S
H1304 C1328 0.950 . S
H1305 C1329 0.951 . S
H1306 C1331 0.951 . S
H1307 C1333 0.950 . S
H1308 C1334 0.950 . S
H1309 C1336 0.950 . S
H1310 C1339 0.950 . S
H1311 C1340 0.950 . S
H1312 C1342 0.950 . S
H1313 C1343 0.950 . S
C1314 H1296 0.951 . S
C1314 C1315 1.366 . S
C1314 C1316 1.388 . S
C1315 C1314 1.366 . S
C1315 C1319 1.385 . S
C1316 H1297 0.951 . S
C1316 C1314 1.388 . S
C1316 C1317 1.366 . S
C1317 C1316 1.366 . S
C1317 C1318 1.414 . S
C1317 C1320 1.499 . S
C1318 H1298 0.950 . S
C1318 C1317 1.414 . S
C1318 C1319 1.374 . S
C1319 H1299 0.950 . S
C1319 C1315 1.385 . S
C1319 C1318 1.374 . S
C1320 C1317 1.499 . S
C1320 C1321 1.373 . S
C1320 C1322 1.389 . S
C1321 H1300 0.950 . S
C1321 C1320 1.373 . S
C1321 C1337 1.377 . S
C1322 C1320 1.389 . S
C1322 C1323 1.524 . S
C1322 C1336 1.377 . S
C1323 C1322 1.524 . S
C1323 C1324 1.397 . S
C1323 C1328 1.363 . S
C1324 H1301 0.950 . S
C1324 C1323 1.397 . S
C1324 C1325 1.334 . S
C1325 H1302 0.950 . S
C1325 C1324 1.334 . S
C1325 C1326 1.287 . S
C1326 C1325 1.287 . S
C1326 C1327 1.524 . S
C1326 H1345 0.913 . S
C1327 H1303 0.950 . S
C1327 C1326 1.524 . S
C1327 C1328 1.415 . S
C1328 H1304 0.950 . S
C1328 C1323 1.363 . S
C1328 C1327 1.415 . S
C1329 H1305 0.951 . S
C1329 C1330 1.366 . S
C1329 C1331 1.388 . S
C1330 C1329 1.366 . S
C1330 C1334 1.385 . S
C1331 H1306 0.951 . S
C1331 C1329 1.388 . S
C1331 C1332 1.366 . S
C1332 C1331 1.366 . S
C1332 C1333 1.414 . S
C1332 C1335 1.499 . S
C1333 H1307 0.950 . S
C1333 C1332 1.414 . S
C1333 C1334 1.374 . S
C1334 H1308 0.950 . S
C1334 C1330 1.385 . S
C1334 C1333 1.374 . S
C1335 C1332 1.499 . S
C1335 C1336 1.373 . S
C1335 C1337 1.389 . S
C1336 H1309 0.950 . S
C1336 C1322 1.377 . S
C1336 C1335 1.373 . S
C1337 C1321 1.377 . S
C1337 C1335 1.389 . S
C1337 C1338 1.524 . S
C1338 C1337 1.524 . S
C1338 C1339 1.397 . S
C1338 C1343 1.363 . S
C1339 H1310 0.950 . S
C1339 C1338 1.397 . S
C1339 C1340 1.334 . S
C1340 H1311 0.950 . S
C1340 C1339 1.334 . S
C1340 C1341 1.287 . S
C1341 C1340 1.287 . S
C1341 C1342 1.524 . S
C1341 H1344 0.999 . S
C1342 H1312 0.950 . S
C1342 C1341 1.524 . S
C1342 C1343 1.415 . S
C1343 H1313 0.950 . S
C1343 C1338 1.363 . S
C1343 C1342 1.415 . S
H1344 C1341 0.999 . S
H1345 C1326 0.913 . S
H1346 C1364 0.951 . S
H1347 C1366 0.951 . S
H1348 C1368 0.950 . S
H1349 C1369 0.950 . S
H1350 C1371 0.950 . S
H1351 C1374 0.950 . S
H1352 C1375 0.950 . S
H1353 C1377 0.950 . S
H1354 C1378 0.950 . S
H1355 C1379 0.951 . S
H1356 C1381 0.951 . S
H1357 C1383 0.950 . S
H1358 C1384 0.950 . S
H1359 C1386 0.950 . S
H1360 C1389 0.950 . S
H1361 C1390 0.950 . S
H1362 C1392 0.950 . S
H1363 C1393 0.950 . S
C1364 H1346 0.951 . S
C1364 C1365 1.366 . S
C1364 C1366 1.388 . S
C1365 C1364 1.366 . S
C1365 C1369 1.385 . S
C1366 H1347 0.951 . S
C1366 C1364 1.388 . S
C1366 C1367 1.366 . S
C1367 C1366 1.366 . S
C1367 C1368 1.414 . S
C1367 C1370 1.499 . S
C1368 H1348 0.950 . S
C1368 C1367 1.414 . S
C1368 C1369 1.374 . S
C1369 H1349 0.950 . S
C1369 C1365 1.385 . S
C1369 C1368 1.374 . S
C1370 C1367 1.499 . S
C1370 C1371 1.373 . S
C1370 C1372 1.389 . S
C1371 H1350 0.950 . S
C1371 C1370 1.373 . S
C1371 C1387 1.377 . S
C1372 C1370 1.389 . S
C1372 C1373 1.524 . S
C1372 C1386 1.377 . S
C1373 C1372 1.524 . S
C1373 C1374 1.397 . S
C1373 C1378 1.363 . S
C1374 H1351 0.950 . S
C1374 C1373 1.397 . S
C1374 C1375 1.334 . S
C1375 H1352 0.950 . S
C1375 C1374 1.334 . S
C1375 C1376 1.287 . S
C1376 C1375 1.287 . S
C1376 C1377 1.524 . S
C1376 H1395 0.913 . S
C1377 H1353 0.950 . S
C1377 C1376 1.524 . S
C1377 C1378 1.415 . S
C1378 H1354 0.950 . S
C1378 C1373 1.363 . S
C1378 C1377 1.415 . S
C1379 H1355 0.951 . S
C1379 C1380 1.366 . S
C1379 C1381 1.388 1_556 S
C1380 C1379 1.366 . S
C1380 C1384 1.385 . S
C1381 H1356 0.951 . S
C1381 C1379 1.388 1_554 S
C1381 C1382 1.366 . S
C1382 C1381 1.366 . S
C1382 C1383 1.414 . S
C1382 C1385 1.499 . S
C1383 H1357 0.950 . S
C1383 C1382 1.414 . S
C1383 C1384 1.374 1_554 S
C1384 H1358 0.950 . S
C1384 C1380 1.385 . S
C1384 C1383 1.374 1_556 S
C1385 C1382 1.499 . S
C1385 C1386 1.373 . S
C1385 C1387 1.389 . S
C1386 H1359 0.950 . S
C1386 C1372 1.377 . S
C1386 C1385 1.373 . S
C1387 C1371 1.377 . S
C1387 C1385 1.389 . S
C1387 C1388 1.524 . S
C1388 C1387 1.524 . S
C1388 C1389 1.397 . S
C1388 C1393 1.363 . S
C1389 H1360 0.950 . S
C1389 C1388 1.397 . S
C1389 C1390 1.334 . S
C1390 H1361 0.950 . S
C1390 C1389 1.334 . S
C1390 C1391 1.287 . S
C1391 C1390 1.287 . S
C1391 C1392 1.524 . S
C1391 H1394 0.999 . S
C1392 H1362 0.950 . S
C1392 C1391 1.524 . S
C1392 C1393 1.415 . S
C1393 H1363 0.950 . S
C1393 C1388 1.363 . S
C1393 C1392 1.415 . S
H1394 C1391 0.999 . S
H1395 C1376 0.913 . S
H1396 C1414 0.951 . S
H1397 C1416 0.951 . S
H1398 C1418 0.950 . S
H1399 C1419 0.950 . S
H1400 C1421 0.950 . S
H1401 C1424 0.950 . S
H1402 C1425 0.950 . S
H1403 C1427 0.950 . S
H1404 C1428 0.950 . S
H1405 C1429 0.951 . S
H1406 C1431 0.951 . S
H1407 C1433 0.950 . S
H1408 C1434 0.950 . S
H1409 C1436 0.950 . S
H1410 C1439 0.950 . S
H1411 C1440 0.950 . S
H1412 C1442 0.950 . S
H1413 C1443 0.950 . S
C1414 H1396 0.951 . S
C1414 C1415 1.366 . S
C1414 C1416 1.388 . S
C1415 C1414 1.366 . S
C1415 C1419 1.385 . S
C1416 H1397 0.951 . S
C1416 C1414 1.388 . S
C1416 C1417 1.366 . S
C1417 C1416 1.366 . S
C1417 C1418 1.414 . S
C1417 C1420 1.499 . S
C1418 H1398 0.950 . S
C1418 C1417 1.414 . S
C1418 C1419 1.374 . S
C1419 H1399 0.950 . S
C1419 C1415 1.385 . S
C1419 C1418 1.374 . S
C1420 C1417 1.499 . S
C1420 C1421 1.373 . S
C1420 C1422 1.389 . S
C1421 H1400 0.950 . S
C1421 C1420 1.373 . S
C1421 C1437 1.377 . S
C1422 C1420 1.389 . S
C1422 C1423 1.524 . S
C1422 C1436 1.377 . S
C1423 C1422 1.524 . S
C1423 C1424 1.397 . S
C1423 C1428 1.363 . S
C1424 H1401 0.950 . S
C1424 C1423 1.397 . S
C1424 C1425 1.334 . S
C1425 H1402 0.950 . S
C1425 C1424 1.334 . S
C1425 C1426 1.287 . S
C1426 C1425 1.287 . S
C1426 C1427 1.524 . S
C1426 H1445 0.913 . S
C1427 H1403 0.950 . S
C1427 C1426 1.524 . S
C1427 C1428 1.415 . S
C1428 H1404 0.950 . S
C1428 C1423 1.363 . S
C1428 C1427 1.415 . S
C1429 H1405 0.951 . S
C1429 C1430 1.366 . S
C1429 C1431 1.388 . S
C1430 C1429 1.366 . S
C1430 C1434 1.385 . S
C1431 H1406 0.951 . S
C1431 C1429 1.388 . S
C1431 C1432 1.366 . S
C1432 C1431 1.366 . S
C1432 C1433 1.414 . S
C1432 C1435 1.499 . S
C1433 H1407 0.950 . S
C1433 C1432 1.414 . S
C1433 C1434 1.374 . S
C1434 H1408 0.950 . S
C1434 C1430 1.385 . S
C1434 C1433 1.374 . S
C1435 C1432 1.499 . S
C1435 C1436 1.373 . S
C1435 C1437 1.389 . S
C1436 H1409 0.950 . S
C1436 C1422 1.377 . S
C1436 C1435 1.373 . S
C1437 C1421 1.377 . S
C1437 C1435 1.389 . S
C1437 C1438 1.524 . S
C1438 C1437 1.524 . S
C1438 C1439 1.397 . S
C1438 C1443 1.363 . S
C1439 H1410 0.950 . S
C1439 C1438 1.397 . S
C1439 C1440 1.334 . S
C1440 H1411 0.950 . S
C1440 C1439 1.334 . S
C1440 C1441 1.287 . S
C1441 C1440 1.287 . S
C1441 C1442 1.524 . S
C1441 H1444 0.999 . S
C1442 H1412 0.950 . S
C1442 C1441 1.524 . S
C1442 C1443 1.415 . S
C1443 H1413 0.950 . S
C1443 C1438 1.363 . S
C1443 C1442 1.415 . S
H1444 C1441 0.999 . S
H1445 C1426 0.913 . S
H1446 C1464 0.951 . S
H1447 C1466 0.951 . S
H1448 C1468 0.950 . S
H1449 C1469 0.950 . S
H1450 C1471 0.950 . S
H1451 C1474 0.950 . S
H1452 C1475 0.950 . S
H1453 C1477 0.950 . S
H1454 C1478 0.950 . S
H1455 C1479 0.951 . S
H1456 C1481 0.951 . S
H1457 C1483 0.950 . S
H1458 C1484 0.950 . S
H1459 C1486 0.950 . S
H1460 C1489 0.950 . S
H1461 C1490 0.950 . S
H1462 C1492 0.950 . S
H1463 C1493 0.950 . S
C1464 H1446 0.951 . S
C1464 C1465 1.366 . S
C1464 C1466 1.388 1_556 S
C1465 C1464 1.366 . S
C1465 C1469 1.385 . S
C1466 H1447 0.951 . S
C1466 C1464 1.388 1_554 S
C1466 C1467 1.366 . S
C1467 C1466 1.366 . S
C1467 C1468 1.414 . S
C1467 C1470 1.499 . S
C1468 H1448 0.950 . S
C1468 C1467 1.414 . S
C1468 C1469 1.374 1_554 S
C1469 H1449 0.950 . S
C1469 C1465 1.385 . S
C1469 C1468 1.374 1_556 S
C1470 C1467 1.499 . S
C1470 C1471 1.373 . S
C1470 C1472 1.389 . S
C1471 H1450 0.950 . S
C1471 C1470 1.373 . S
C1471 C1487 1.377 . S
C1472 C1470 1.389 . S
C1472 C1473 1.524 . S
C1472 C1486 1.377 . S
C1473 C1472 1.524 . S
C1473 C1474 1.397 . S
C1473 C1478 1.363 . S
C1474 H1451 0.950 . S
C1474 C1473 1.397 . S
C1474 C1475 1.334 . S
C1475 H1452 0.950 . S
C1475 C1474 1.334 . S
C1475 C1476 1.287 . S
C1476 C1475 1.287 . S
C1476 C1477 1.524 . S
C1476 H1495 0.913 . S
C1477 H1453 0.950 . S
C1477 C1476 1.524 . S
C1477 C1478 1.415 . S
C1478 H1454 0.950 . S
C1478 C1473 1.363 . S
C1478 C1477 1.415 . S
C1479 H1455 0.951 . S
C1479 C1480 1.366 . S
C1479 C1481 1.388 . S
C1480 C1479 1.366 . S
C1480 C1484 1.385 . S
C1481 H1456 0.951 . S
C1481 C1479 1.388 . S
C1481 C1482 1.366 . S
C1482 C1481 1.366 . S
C1482 C1483 1.414 . S
C1482 C1485 1.499 . S
C1483 H1457 0.950 . S
C1483 C1482 1.414 . S
C1483 C1484 1.374 . S
C1484 H1458 0.950 . S
C1484 C1480 1.385 . S
C1484 C1483 1.374 . S
C1485 C1482 1.499 . S
C1485 C1486 1.373 . S
C1485 C1487 1.389 . S
C1486 H1459 0.950 . S
C1486 C1472 1.377 . S
C1486 C1485 1.373 . S
C1487 C1471 1.377 . S
C1487 C1485 1.389 . S
C1487 C1488 1.524 . S
C1488 C1487 1.524 . S
C1488 C1489 1.397 . S
C1488 C1493 1.363 . S
C1489 H1460 0.950 . S
C1489 C1488 1.397 . S
C1489 C1490 1.334 . S
C1490 H1461 0.950 . S
C1490 C1489 1.334 . S
C1490 C1491 1.287 . S
C1491 C1490 1.287 . S
C1491 C1492 1.524 . S
C1491 H1494 0.999 . S
C1492 H1462 0.950 . S
C1492 C1491 1.524 . S
C1492 C1493 1.415 . S
C1493 H1463 0.950 . S
C1493 C1488 1.363 . S
C1493 C1492 1.415 . S
H1494 C1491 0.999 . S
H1495 C1476 0.913 . S
H1496 C1514 0.951 . S
H1497 C1516 0.951 . S
H1498 C1518 0.950 . S
H1499 C1519 0.950 . S
H1500 C1521 0.950 . S
H1501 C1524 0.950 . S
H1502 C1525 0.950 . S
H1503 C1527 0.950 . S
H1504 C1528 0.950 . S
H1505 C1529 0.951 . S
H1506 C1531 0.951 . S
H1507 C1533 0.950 . S
H1508 C1534 0.950 . S
H1509 C1536 0.950 . S
H1510 C1539 0.950 . S
H1511 C1540 0.950 . S
H1512 C1542 0.950 . S
H1513 C1543 0.950 . S
C1514 H1496 0.951 . S
C1514 C1515 1.366 . S
C1514 C1516 1.388 . S
C1515 C1514 1.366 . S
C1515 C1519 1.385 . S
C1516 H1497 0.951 . S
C1516 C1514 1.388 . S
C1516 C1517 1.366 . S
C1517 C1516 1.366 . S
C1517 C1518 1.414 . S
C1517 C1520 1.499 . S
C1518 H1498 0.950 . S
C1518 C1517 1.414 . S
C1518 C1519 1.374 . S
C1519 H1499 0.950 . S
C1519 C1515 1.385 . S
C1519 C1518 1.374 . S
C1520 C1517 1.499 . S
C1520 C1521 1.373 . S
C1520 C1522 1.389 . S
C1521 H1500 0.950 . S
C1521 C1520 1.373 . S
C1521 C1537 1.377 . S
C1522 C1520 1.389 . S
C1522 C1523 1.524 . S
C1522 C1536 1.377 . S
C1523 C1522 1.524 . S
C1523 C1524 1.397 . S
C1523 C1528 1.363 . S
C1524 H1501 0.950 . S
C1524 C1523 1.397 . S
C1524 C1525 1.334 . S
C1525 H1502 0.950 . S
C1525 C1524 1.334 . S
C1525 C1526 1.287 . S
C1526 C1525 1.287 . S
C1526 C1527 1.524 . S
C1526 H1545 0.913 . S
C1527 H1503 0.950 . S
C1527 C1526 1.524 . S
C1527 C1528 1.415 . S
C1528 H1504 0.950 . S
C1528 C1523 1.363 . S
C1528 C1527 1.415 . S
C1529 H1505 0.951 . S
C1529 C1530 1.366 . S
C1529 C1531 1.388 . S
C1530 C1529 1.366 . S
C1530 C1534 1.385 . S
C1531 H1506 0.951 . S
C1531 C1529 1.388 . S
C1531 C1532 1.366 . S
C1532 C1531 1.366 . S
C1532 C1533 1.414 . S
C1532 C1535 1.499 . S
C1533 H1507 0.950 . S
C1533 C1532 1.414 . S
C1533 C1534 1.374 . S
C1534 H1508 0.950 . S
C1534 C1530 1.385 . S
C1534 C1533 1.374 . S
C1535 C1532 1.499 . S
C1535 C1536 1.373 . S
C1535 C1537 1.389 . S
C1536 H1509 0.950 . S
C1536 C1522 1.377 . S
C1536 C1535 1.373 . S
C1537 C1521 1.377 . S
C1537 C1535 1.389 . S
C1537 C1538 1.524 . S
C1538 C1537 1.524 . S
C1538 C1539 1.397 . S
C1538 C1543 1.363 . S
C1539 H1510 0.950 . S
C1539 C1538 1.397 . S
C1539 C1540 1.334 . S
C1540 H1511 0.950 . S
C1540 C1539 1.334 . S
C1540 C1541 1.287 . S
C1541 C1540 1.287 . S
C1541 C1542 1.524 . S
C1541 H1544 0.999 . S
C1542 H1512 0.950 . S
C1542 C1541 1.524 . S
C1542 C1543 1.415 . S
C1543 H1513 0.950 . S
C1543 C1538 1.363 . S
C1543 C1542 1.415 . S
H1544 C1541 0.999 . S
H1545 C1526 0.913 . S
H1546 C1564 0.951 . S
H1547 C1566 0.951 . S
H1548 C1568 0.950 . S
H1549 C1569 0.950 . S
H1550 C1571 0.950 . S
H1551 C1574 0.950 . S
H1552 C1575 0.950 . S
H1553 C1577 0.950 . S
H1554 C1578 0.950 . S
H1555 C1579 0.951 . S
H1556 C1581 0.951 . S
H1557 C1583 0.950 . S
H1558 C1584 0.950 . S
H1559 C1586 0.950 . S
H1560 C1589 0.950 . S
H1561 C1590 0.950 . S
H1562 C1592 0.950 . S
H1563 C1593 0.950 . S
C1564 H1546 0.951 . S
C1564 C1565 1.366 . S
C1564 C1566 1.388 . S
C1565 C1564 1.366 . S
C1565 C1569 1.385 . S
C1566 H1547 0.951 . S
C1566 C1564 1.388 . S
C1566 C1567 1.366 . S
C1567 C1566 1.366 . S
C1567 C1568 1.414 . S
C1567 C1570 1.499 . S
C1568 H1548 0.950 . S
C1568 C1567 1.414 . S
C1568 C1569 1.374 . S
C1569 H1549 0.950 . S
C1569 C1565 1.385 . S
C1569 C1568 1.374 . S
C1570 C1567 1.499 . S
C1570 C1571 1.373 . S
C1570 C1572 1.389 . S
C1571 H1550 0.950 . S
C1571 C1570 1.373 . S
C1571 C1587 1.377 . S
C1572 C1570 1.389 . S
C1572 C1573 1.524 . S
C1572 C1586 1.377 . S
C1573 C1572 1.524 . S
C1573 C1574 1.397 . S
C1573 C1578 1.363 . S
C1574 H1551 0.950 . S
C1574 C1573 1.397 . S
C1574 C1575 1.334 . S
C1575 H1552 0.950 . S
C1575 C1574 1.334 . S
C1575 C1576 1.287 . S
C1576 C1575 1.287 . S
C1576 C1577 1.524 . S
C1576 H1595 0.913 . S
C1577 H1553 0.950 . S
C1577 C1576 1.524 . S
C1577 C1578 1.415 . S
C1578 H1554 0.950 . S
C1578 C1573 1.363 . S
C1578 C1577 1.415 . S
C1579 H1555 0.951 . S
C1579 C1580 1.366 . S
C1579 C1581 1.388 1_556 S
C1580 C1579 1.366 . S
C1580 C1584 1.385 . S
C1581 H1556 0.951 . S
C1581 C1579 1.388 1_554 S
C1581 C1582 1.366 . S
C1582 C1581 1.366 . S
C1582 C1583 1.414 . S
C1582 C1585 1.499 . S
C1583 H1557 0.950 . S
C1583 C1582 1.414 . S
C1583 C1584 1.374 1_554 S
C1584 H1558 0.950 . S
C1584 C1580 1.385 . S
C1584 C1583 1.374 1_556 S
C1585 C1582 1.499 . S
C1585 C1586 1.373 . S
C1585 C1587 1.389 . S
C1586 H1559 0.950 . S
C1586 C1572 1.377 . S
C1586 C1585 1.373 . S
C1587 C1571 1.377 . S
C1587 C1585 1.389 . S
C1587 C1588 1.524 . S
C1588 C1587 1.524 . S
C1588 C1589 1.397 . S
C1588 C1593 1.363 . S
C1589 H1560 0.950 . S
C1589 C1588 1.397 . S
C1589 C1590 1.334 . S
C1590 H1561 0.950 . S
C1590 C1589 1.334 . S
C1590 C1591 1.287 . S
C1591 C1590 1.287 . S
C1591 C1592 1.524 . S
C1591 H1594 0.999 . S
C1592 H1562 0.950 . S
C1592 C1591 1.524 . S
C1592 C1593 1.415 . S
C1593 H1563 0.950 . S
C1593 C1588 1.363 . S
C1593 C1592 1.415 . S
H1594 C1591 0.999 . S
H1595 C1576 0.913 . S
H1596 C1614 0.951 . S
H1597 C1616 0.951 . S
H1598 C1618 0.950 . S
H1599 C1619 0.950 . S
H1600 C1621 0.950 . S
H1601 C1624 0.950 . S
H1602 C1625 0.950 . S
H1603 C1627 0.950 . S
H1604 C1628 0.950 . S
H1605 C1629 0.951 . S
H1606 C1631 0.951 . S
H1607 C1633 0.950 . S
H1608 C1634 0.950 . S
H1609 C1636 0.950 . S
H1610 C1639 0.950 . S
H1611 C1640 0.950 . S
H1612 C1642 0.950 . S
H1613 C1643 0.950 . S
C1614 H1596 0.951 . S
C1614 C1615 1.366 . S
C1614 C1616 1.388 . S
C1615 C1614 1.366 . S
C1615 C1619 1.385 . S
C1616 H1597 0.951 . S
C1616 C1614 1.388 . S
C1616 C1617 1.366 . S
C1617 C1616 1.366 . S
C1617 C1618 1.414 . S
C1617 C1620 1.499 . S
C1618 H1598 0.950 . S
C1618 C1617 1.414 . S
C1618 C1619 1.374 . S
C1619 H1599 0.950 . S
C1619 C1615 1.385 . S
C1619 C1618 1.374 . S
C1620 C1617 1.499 . S
C1620 C1621 1.373 . S
C1620 C1622 1.389 . S
C1621 H1600 0.950 . S
C1621 C1620 1.373 . S
C1621 C1637 1.377 . S
C1622 C1620 1.389 . S
C1622 C1623 1.524 . S
C1622 C1636 1.377 . S
C1623 C1622 1.524 . S
C1623 C1624 1.397 . S
C1623 C1628 1.363 . S
C1624 H1601 0.950 . S
C1624 C1623 1.397 . S
C1624 C1625 1.334 . S
C1625 H1602 0.950 . S
C1625 C1624 1.334 . S
C1625 C1626 1.287 . S
C1626 C1625 1.287 . S
C1626 C1627 1.524 . S
C1626 H1645 0.913 . S
C1627 H1603 0.950 . S
C1627 C1626 1.524 . S
C1627 C1628 1.415 . S
C1628 H1604 0.950 . S
C1628 C1623 1.363 . S
C1628 C1627 1.415 . S
C1629 H1605 0.951 . S
C1629 C1630 1.366 . S
C1629 C1631 1.388 . S
C1630 C1629 1.366 . S
C1630 C1634 1.385 . S
C1631 H1606 0.951 . S
C1631 C1629 1.388 . S
C1631 C1632 1.366 . S
C1632 C1631 1.366 . S
C1632 C1633 1.414 . S
C1632 C1635 1.499 . S
C1633 H1607 0.950 . S
C1633 C1632 1.414 . S
C1633 C1634 1.374 . S
C1634 H1608 0.950 . S
C1634 C1630 1.385 . S
C1634 C1633 1.374 . S
C1635 C1632 1.499 . S
C1635 C1636 1.373 . S
C1635 C1637 1.389 . S
C1636 H1609 0.950 . S
C1636 C1622 1.377 . S
C1636 C1635 1.373 . S
C1637 C1621 1.377 . S
C1637 C1635 1.389 . S
C1637 C1638 1.524 . S
C1638 C1637 1.524 . S
C1638 C1639 1.397 . S
C1638 C1643 1.363 . S
C1639 H1610 0.950 . S
C1639 C1638 1.397 . S
C1639 C1640 1.334 . S
C1640 H1611 0.950 . S
C1640 C1639 1.334 . S
C1640 C1641 1.287 . S
C1641 C1640 1.287 . S
C1641 C1642 1.524 . S
C1641 H1644 0.999 . S
C1642 H1612 0.950 . S
C1642 C1641 1.524 . S
C1642 C1643 1.415 . S
C1643 H1613 0.950 . S
C1643 C1638 1.363 . S
C1643 C1642 1.415 . S
H1644 C1641 0.999 . S
H1645 C1626 0.913 . S
H1646 C1664 0.951 . S
H1647 C1666 0.951 . S
H1648 C1668 0.950 . S
H1649 C1669 0.950 . S
H1650 C1671 0.950 . S
H1651 C1674 0.950 . S
H1652 C1675 0.950 . S
H1653 C1677 0.950 . S
H1654 C1678 0.950 . S
H1655 C1679 0.951 . S
H1656 C1681 0.951 . S
H1657 C1683 0.950 . S
H1658 C1684 0.950 . S
H1659 C1686 0.950 . S
H1660 C1689 0.950 . S
H1661 C1690 0.950 . S
H1662 C1692 0.950 . S
H1663 C1693 0.950 . S
C1664 H1646 0.951 . S
C1664 C1665 1.366 . S
C1664 C1666 1.388 . S
C1665 C1664 1.366 . S
C1665 C1669 1.385 . S
C1666 H1647 0.951 . S
C1666 C1664 1.388 . S
C1666 C1667 1.366 . S
C1667 C1666 1.366 . S
C1667 C1668 1.414 . S
C1667 C1670 1.499 . S
C1668 H1648 0.950 . S
C1668 C1667 1.414 . S
C1668 C1669 1.374 . S
C1669 H1649 0.950 . S
C1669 C1665 1.385 . S
C1669 C1668 1.374 . S
C1670 C1667 1.499 . S
C1670 C1671 1.373 . S
C1670 C1672 1.389 . S
C1671 H1650 0.950 . S
C1671 C1670 1.373 . S
C1671 C1687 1.377 . S
C1672 C1670 1.389 . S
C1672 C1673 1.524 . S
C1672 C1686 1.377 . S
C1673 C1672 1.524 . S
C1673 C1674 1.397 . S
C1673 C1678 1.363 . S
C1674 H1651 0.950 . S
C1674 C1673 1.397 . S
C1674 C1675 1.334 . S
C1675 H1652 0.950 . S
C1675 C1674 1.334 . S
C1675 C1676 1.287 . S
C1676 C1675 1.287 . S
C1676 C1677 1.524 . S
C1676 H1695 0.913 . S
C1677 H1653 0.950 . S
C1677 C1676 1.524 . S
C1677 C1678 1.415 . S
C1678 H1654 0.950 . S
C1678 C1673 1.363 . S
C1678 C1677 1.415 . S
C1679 H1655 0.951 . S
C1679 C1680 1.366 . S
C1679 C1681 1.388 . S
C1680 C1679 1.366 . S
C1680 C1684 1.385 . S
C1681 H1656 0.951 . S
C1681 C1679 1.388 . S
C1681 C1682 1.366 . S
C1682 C1681 1.366 . S
C1682 C1683 1.414 . S
C1682 C1685 1.499 . S
C1683 H1657 0.950 . S
C1683 C1682 1.414 . S
C1683 C1684 1.374 . S
C1684 H1658 0.950 . S
C1684 C1680 1.385 . S
C1684 C1683 1.374 . S
C1685 C1682 1.499 . S
C1685 C1686 1.373 . S
C1685 C1687 1.389 . S
C1686 H1659 0.950 . S
C1686 C1672 1.377 . S
C1686 C1685 1.373 . S
C1687 C1671 1.377 . S
C1687 C1685 1.389 . S
C1687 C1688 1.524 . S
C1688 C1687 1.524 . S
C1688 C1689 1.397 . S
C1688 C1693 1.363 . S
C1689 H1660 0.950 . S
C1689 C1688 1.397 . S
C1689 C1690 1.334 . S
C1690 H1661 0.950 . S
C1690 C1689 1.334 . S
C1690 C1691 1.287 . S
C1691 C1690 1.287 . S
C1691 C1692 1.524 . S
C1691 H1694 0.999 . S
C1692 H1662 0.950 . S
C1692 C1691 1.524 . S
C1692 C1693 1.415 . S
C1693 H1663 0.950 . S
C1693 C1688 1.363 . S
C1693 C1692 1.415 . S
H1694 C1691 0.999 . S
H1695 C1676 0.913 . S
H1696 C1714 0.951 . S
H1697 C1716 0.951 . S
H1698 C1718 0.950 . S
H1699 C1719 0.950 . S
H1700 C1721 0.950 . S
H1701 C1724 0.950 . S
H1702 C1725 0.950 . S
H1703 C1727 0.950 . S
H1704 C1728 0.950 . S
H1705 C1729 0.951 . S
H1706 C1731 0.951 . S
H1707 C1733 0.950 . S
H1708 C1734 0.950 . S
H1709 C1736 0.950 . S
H1710 C1739 0.950 . S
H1711 C1740 0.950 . S
H1712 C1742 0.950 . S
H1713 C1743 0.950 . S
C1714 H1696 0.951 . S
C1714 C1715 1.366 . S
C1714 C1716 1.388 . S
C1715 C1714 1.366 . S
C1715 C1719 1.385 . S
C1716 H1697 0.951 . S
C1716 C1714 1.388 . S
C1716 C1717 1.366 . S
C1717 C1716 1.366 . S
C1717 C1718 1.414 . S
C1717 C1720 1.499 . S
C1718 H1698 0.950 . S
C1718 C1717 1.414 . S
C1718 C1719 1.374 . S
C1719 H1699 0.950 . S
C1719 C1715 1.385 . S
C1719 C1718 1.374 . S
C1720 C1717 1.499 . S
C1720 C1721 1.373 . S
C1720 C1722 1.389 . S
C1721 H1700 0.950 . S
C1721 C1720 1.373 . S
C1721 C1737 1.377 . S
C1722 C1720 1.389 . S
C1722 C1723 1.524 . S
C1722 C1736 1.377 . S
C1723 C1722 1.524 . S
C1723 C1724 1.397 . S
C1723 C1728 1.363 . S
C1724 H1701 0.950 . S
C1724 C1723 1.397 . S
C1724 C1725 1.334 . S
C1725 H1702 0.950 . S
C1725 C1724 1.334 . S
C1725 C1726 1.287 . S
C1726 C1725 1.287 . S
C1726 C1727 1.524 . S
C1726 H1745 0.913 . S
C1727 H1703 0.950 . S
C1727 C1726 1.524 . S
C1727 C1728 1.415 . S
C1728 H1704 0.950 . S
C1728 C1723 1.363 . S
C1728 C1727 1.415 . S
C1729 H1705 0.951 . S
C1729 C1730 1.366 . S
C1729 C1731 1.388 . S
C1730 C1729 1.366 . S
C1730 C1734 1.385 . S
C1731 H1706 0.951 . S
C1731 C1729 1.388 . S
C1731 C1732 1.366 . S
C1732 C1731 1.366 . S
C1732 C1733 1.414 . S
C1732 C1735 1.499 . S
C1733 H1707 0.950 . S
C1733 C1732 1.414 . S
C1733 C1734 1.374 . S
C1734 H1708 0.950 . S
C1734 C1730 1.385 . S
C1734 C1733 1.374 . S
C1735 C1732 1.499 . S
C1735 C1736 1.373 . S
C1735 C1737 1.389 . S
C1736 H1709 0.950 . S
C1736 C1722 1.377 . S
C1736 C1735 1.373 . S
C1737 C1721 1.377 . S
C1737 C1735 1.389 . S
C1737 C1738 1.524 . S
C1738 C1737 1.524 . S
C1738 C1739 1.397 . S
C1738 C1743 1.363 . S
C1739 H1710 0.950 . S
C1739 C1738 1.397 . S
C1739 C1740 1.334 . S
C1740 H1711 0.950 . S
C1740 C1739 1.334 . S
C1740 C1741 1.287 . S
C1741 C1740 1.287 . S
C1741 C1742 1.524 . S
C1741 H1744 0.999 . S
C1742 H1712 0.950 . S
C1742 C1741 1.524 . S
C1742 C1743 1.415 . S
C1743 H1713 0.950 . S
C1743 C1738 1.363 . S
C1743 C1742 1.415 . S
H1744 C1741 0.999 . S
H1745 C1726 0.913 . S
H1746 C1764 0.951 . S
H1747 C1766 0.951 . S
H1748 C1768 0.950 . S
H1749 C1769 0.950 . S
H1750 C1771 0.950 . S
H1751 C1774 0.950 . S
H1752 C1775 0.950 . S
H1753 C1777 0.950 . S
H1754 C1778 0.950 . S
H1755 C1779 0.951 . S
H1756 C1781 0.951 . S
H1757 C1783 0.950 . S
H1758 C1784 0.950 . S
H1759 C1786 0.950 . S
H1760 C1789 0.950 . S
H1761 C1790 0.950 . S
H1762 C1792 0.950 . S
H1763 C1793 0.950 . S
C1764 H1746 0.951 . S
C1764 C1765 1.366 . S
C1764 C1766 1.388 . S
C1765 C1764 1.366 . S
C1765 C1769 1.385 . S
C1766 H1747 0.951 . S
C1766 C1764 1.388 . S
C1766 C1767 1.366 . S
C1767 C1766 1.366 . S
C1767 C1768 1.414 . S
C1767 C1770 1.499 . S
C1768 H1748 0.950 . S
C1768 C1767 1.414 . S
C1768 C1769 1.374 . S
C1769 H1749 0.950 . S
C1769 C1765 1.385 . S
C1769 C1768 1.374 . S
C1770 C1767 1.499 . S
C1770 C1771 1.373 . S
C1770 C1772 1.389 . S
C1771 H1750 0.950 . S
C1771 C1770 1.373 . S
C1771 C1787 1.377 . S
C1772 C1770 1.389 . S
C1772 C1773 1.524 . S
C1772 C1786 1.377 . S
C1773 C1772 1.524 . S
C1773 C1774 1.397 . S
C1773 C1778 1.363 . S
C1774 H1751 0.950 . S
C1774 C1773 1.397 . S
C1774 C1775 1.334 . S
C1775 H1752 0.950 . S
C1775 C1774 1.334 . S
C1775 C1776 1.287 . S
C1776 C1775 1.287 . S
C1776 C1777 1.524 . S
C1776 H1795 0.913 . S
C1777 H1753 0.950 . S
C1777 C1776 1.524 . S
C1777 C1778 1.415 . S
C1778 H1754 0.950 . S
C1778 C1773 1.363 . S
C1778 C1777 1.415 . S
C1779 H1755 0.951 . S
C1779 C1780 1.366 . S
C1779 C1781 1.388 . S
C1780 C1779 1.366 . S
C1780 C1784 1.385 . S
C1781 H1756 0.951 . S
C1781 C1779 1.388 . S
C1781 C1782 1.366 . S
C1782 C1781 1.366 . S
C1782 C1783 1.414 . S
C1782 C1785 1.499 . S
C1783 H1757 0.950 . S
C1783 C1782 1.414 . S
C1783 C1784 1.374 . S
C1784 H1758 0.950 . S
C1784 C1780 1.385 . S
C1784 C1783 1.374 . S
C1785 C1782 1.499 . S
C1785 C1786 1.373 . S
C1785 C1787 1.389 . S
C1786 H1759 0.950 . S
C1786 C1772 1.377 . S
C1786 C1785 1.373 . S
C1787 C1771 1.377 . S
C1787 C1785 1.389 . S
C1787 C1788 1.524 . S
C1788 C1787 1.524 . S
C1788 C1789 1.397 . S
C1788 C1793 1.363 . S
C1789 H1760 0.950 . S
C1789 C1788 1.397 . S
C1789 C1790 1.334 . S
C1790 H1761 0.950 . S
C1790 C1789 1.334 . S
C1790 C1791 1.287 . S
C1791 C1790 1.287 . S
C1791 C1792 1.524 . S
C1791 H1794 0.999 . S
C1792 H1762 0.950 . S
C1792 C1791 1.524 . S
C1792 C1793 1.415 . S
C1793 H1763 0.950 . S
C1793 C1788 1.363 . S
C1793 C1792 1.415 . S
H1794 C1791 0.999 . S
H1795 C1776 0.913 . S
H1796 C1814 0.951 . S
H1797 C1816 0.951 . S
H1798 C1818 0.950 . S
H1799 C1819 0.950 . S
H1800 C1821 0.950 . S
H1801 C1824 0.950 . S
H1802 C1825 0.950 . S
H1803 C1827 0.950 . S
H1804 C1828 0.950 . S
H1805 C1829 0.951 . S
H1806 C1831 0.951 . S
H1807 C1833 0.950 . S
H1808 C1834 0.950 . S
H1809 C1836 0.950 . S
H1810 C1839 0.950 . S
H1811 C1840 0.950 . S
H1812 C1842 0.950 . S
H1813 C1843 0.950 . S
C1814 H1796 0.951 . S
C1814 C1815 1.366 . S
C1814 C1816 1.388 . S
C1815 C1814 1.366 . S
C1815 C1819 1.385 . S
C1816 H1797 0.951 . S
C1816 C1814 1.388 . S
C1816 C1817 1.366 . S
C1817 C1816 1.366 . S
C1817 C1818 1.414 . S
C1817 C1820 1.499 . S
C1818 H1798 0.950 . S
C1818 C1817 1.414 . S
C1818 C1819 1.374 . S
C1819 H1799 0.950 . S
C1819 C1815 1.385 . S
C1819 C1818 1.374 . S
C1820 C1817 1.499 . S
C1820 C1821 1.373 . S
C1820 C1822 1.389 . S
C1821 H1800 0.950 . S
C1821 C1820 1.373 . S
C1821 C1837 1.377 . S
C1822 C1820 1.389 . S
C1822 C1823 1.524 . S
C1822 C1836 1.377 . S
C1823 C1822 1.524 . S
C1823 C1824 1.397 . S
C1823 C1828 1.363 . S
C1824 H1801 0.950 . S
C1824 C1823 1.397 . S
C1824 C1825 1.334 . S
C1825 H1802 0.950 . S
C1825 C1824 1.334 . S
C1825 C1826 1.287 . S
C1826 C1825 1.287 . S
C1826 C1827 1.524 . S
C1826 H1845 0.913 . S
C1827 H1803 0.950 . S
C1827 C1826 1.524 . S
C1827 C1828 1.415 . S
C1828 H1804 0.950 . S
C1828 C1823 1.363 . S
C1828 C1827 1.415 . S
C1829 H1805 0.951 . S
C1829 C1830 1.366 . S
C1829 C1831 1.388 . S
C1830 C1829 1.366 . S
C1830 C1834 1.385 . S
C1831 H1806 0.951 . S
C1831 C1829 1.388 . S
C1831 C1832 1.366 . S
C1832 C1831 1.366 . S
C1832 C1833 1.414 . S
C1832 C1835 1.499 . S
C1833 H1807 0.950 . S
C1833 C1832 1.414 . S
C1833 C1834 1.374 . S
C1834 H1808 0.950 . S
C1834 C1830 1.385 . S
C1834 C1833 1.374 . S
C1835 C1832 1.499 . S
C1835 C1836 1.373 . S
C1835 C1837 1.389 . S
C1836 H1809 0.950 . S
C1836 C1822 1.377 . S
C1836 C1835 1.373 . S
C1837 C1821 1.377 . S
C1837 C1835 1.389 . S
C1837 C1838 1.524 . S
C1838 C1837 1.524 . S
C1838 C1839 1.397 . S
C1838 C1843 1.363 . S
C1839 H1810 0.950 . S
C1839 C1838 1.397 . S
C1839 C1840 1.334 . S
C1840 H1811 0.950 . S
C1840 C1839 1.334 . S
C1840 C1841 1.287 . S
C1841 C1840 1.287 . S
C1841 C1842 1.524 . S
C1841 H1844 0.999 . S
C1842 H1812 0.950 . S
C1842 C1841 1.524 . S
C1842 C1843 1.415 . S
C1843 H1813 0.950 . S
C1843 C1838 1.363 . S
C1843 C1842 1.415 . S
H1844 C1841 0.999 . S
H1845 C1826 0.913 . S
H1846 C1864 0.951 . S
H1847 C1866 0.951 . S
H1848 C1868 0.950 . S
H1849 C1869 0.950 . S
H1850 C1871 0.950 . S
H1851 C1874 0.950 . S
H1852 C1875 0.950 . S
H1853 C1877 0.950 . S
H1854 C1878 0.950 . S
H1855 C1879 0.951 . S
H1856 C1881 0.951 . S
H1857 C1883 0.950 . S
H1858 C1884 0.950 . S
H1859 C1886 0.950 . S
H1860 C1889 0.950 . S
H1861 C1890 0.950 . S
H1862 C1892 0.950 . S
H1863 C1893 0.950 . S
C1864 H1846 0.951 . S
C1864 C1865 1.366 . S
C1864 C1866 1.388 . S
C1865 C1864 1.366 . S
C1865 C1869 1.385 . S
C1866 H1847 0.951 . S
C1866 C1864 1.388 . S
C1866 C1867 1.366 . S
C1867 C1866 1.366 . S
C1867 C1868 1.414 . S
C1867 C1870 1.499 . S
C1868 H1848 0.950 . S
C1868 C1867 1.414 . S
C1868 C1869 1.374 . S
C1869 H1849 0.950 . S
C1869 C1865 1.385 . S
C1869 C1868 1.374 . S
C1870 C1867 1.499 . S
C1870 C1871 1.373 . S
C1870 C1872 1.389 . S
C1871 H1850 0.950 . S
C1871 C1870 1.373 . S
C1871 C1887 1.377 . S
C1872 C1870 1.389 . S
C1872 C1873 1.524 . S
C1872 C1886 1.377 . S
C1873 C1872 1.524 . S
C1873 C1874 1.397 . S
C1873 C1878 1.363 . S
C1874 H1851 0.950 . S
C1874 C1873 1.397 . S
C1874 C1875 1.334 . S
C1875 H1852 0.950 . S
C1875 C1874 1.334 . S
C1875 C1876 1.287 . S
C1876 C1875 1.287 . S
C1876 C1877 1.524 . S
C1876 H1895 0.913 . S
C1877 H1853 0.950 . S
C1877 C1876 1.524 . S
C1877 C1878 1.415 . S
C1878 H1854 0.950 . S
C1878 C1873 1.363 . S
C1878 C1877 1.415 . S
C1879 H1855 0.951 . S
C1879 C1880 1.366 . S
C1879 C1881 1.388 . S
C1880 C1879 1.366 . S
C1880 C1884 1.385 . S
C1881 H1856 0.951 . S
C1881 C1879 1.388 . S
C1881 C1882 1.366 . S
C1882 C1881 1.366 . S
C1882 C1883 1.414 . S
C1882 C1885 1.499 . S
C1883 H1857 0.950 . S
C1883 C1882 1.414 . S
C1883 C1884 1.374 . S
C1884 H1858 0.950 . S
C1884 C1880 1.385 . S
C1884 C1883 1.374 . S
C1885 C1882 1.499 . S
C1885 C1886 1.373 . S
C1885 C1887 1.389 . S
C1886 H1859 0.950 . S
C1886 C1872 1.377 . S
C1886 C1885 1.373 . S
C1887 C1871 1.377 . S
C1887 C1885 1.389 . S
C1887 C1888 1.524 . S
C1888 C1887 1.524 . S
C1888 C1889 1.397 . S
C1888 C1893 1.363 . S
C1889 H1860 0.950 . S
C1889 C1888 1.397 . S
C1889 C1890 1.334 . S
C1890 H1861 0.950 . S
C1890 C1889 1.334 . S
C1890 C1891 1.287 . S
C1891 C1890 1.287 . S
C1891 C1892 1.524 . S
C1891 H1894 0.999 . S
C1892 H1862 0.950 . S
C1892 C1891 1.524 . S
C1892 C1893 1.415 . S
C1893 H1863 0.950 . S
C1893 C1888 1.363 . S
C1893 C1892 1.415 . S
H1894 C1891 0.999 . S
H1895 C1876 0.913 . S
C415 C8 0.998 . S
C430 C371 0.996 . S
C465 C41 0.997 . S
C480 C206 0.998 . S
C515 C239 0.998 . S
C530 C74 0.998 . S
C565 C272 0.997 . S
C580 C107 0.997 . S
C615 C305 0.997 . S
C630 C140 0.998 . S
C665 C173 0.999 . S
C680 C338 0.997 . S
C715 C281 1.634 . S
C730 C17 1.634 . S
C765 C314 1.634 . S
C780 C50 1.634 . S
C815 C83 1.634 . S
C830 C347 1.634 . S
C865 C116 1.634 . S
C880 C380 1.634 . S
C915 C215 1.634 . S
C930 C149 1.634 . S
C965 C182 1.634 . S
C980 C248 1.634 . S
C1015 N14 1.297 . S
C1030 N5 1.299 . S
C1065 N38 1.299 . S
C1080 N47 1.297 . S
C1115 N80 1.297 . S
C1130 N71 1.299 . S
C1165 N104 1.299 . S
C1180 N113 1.297 . S
C1215 N146 1.297 . S
C1230 N137 1.299 . S
C1265 N170 1.299 . S
C1280 N179 1.297 . S
C1315 N203 1.299 . S
C1330 N212 1.297 . S
C1365 N245 1.297 . S
C1380 N236 1.299 . S
C1415 N269 1.299 . S
C1430 N278 1.297 . S
C1465 N302 1.299 . S
C1480 N311 1.297 . S
C1515 N344 1.297 . S
C1530 N335 1.299 . S
C1565 N377 1.297 . S
C1580 N368 1.299 . S
C1615 C28 1.139 . S
C1630 C358 1.139 . S
C1665 C391 1.138 . S
C1680 C61 1.138 . S
C1715 C226 1.138 . S
C1730 C94 1.139 . S
C1765 C127 1.138 . S
C1780 C259 1.138 . S
C1815 C160 1.138 . S
C1830 C292 1.137 . S
C1865 C193 1.139 . S
C1880 C325 1.139 . S
