# Generated by pormake.
# Topology whk, (6)-cn, num edge types: 1
# Building blocks:
#     Node 0, Type 0, BuildingBlock: PAMTOO_clean_sbu_0, # of connection points: 6
#     Node 1, Type 0, BuildingBlock: PAMTOO_clean_sbu_0, # of connection points: 6
#     Node 2, Type 0, BuildingBlock: PAMTOO_clean_sbu_0, # of connection points: 6
#     Node 3, Type 0, BuildingBlock: PAMTOO_clean_sbu_0, # of connection points: 6
#     Node 4, Type 0, BuildingBlock: PAMTOO_clean_sbu_0, # of connection points: 6
#     Node 5, Type 0, BuildingBlock: PAMTOO_clean_sbu_0, # of connection points: 6
#     Node 6, Type 0, BuildingBlock: PAMTOO_clean_sbu_0, # of connection points: 6
#     Node 7, Type 0, BuildingBlock: PAMTOO_clean_sbu_0, # of connection points: 6
#     Node 8, Type 0, BuildingBlock: PAMTOO_clean_sbu_0, # of connection points: 6
#     Node 9, Type 0, BuildingBlock: PAMTOO_clean_sbu_0, # of connection points: 6
#     Node 10, Type 0, BuildingBlock: PAMTOO_clean_sbu_0, # of connection points: 6
#     Node 11, Type 0, BuildingBlock: PAMTOO_clean_sbu_0, # of connection points: 6
#     Node 12, Type 0, BuildingBlock: PAMTOO_clean_sbu_0, # of connection points: 6
#     Node 13, Type 0, BuildingBlock: PAMTOO_clean_sbu_0, # of connection points: 6
#     Node 14, Type 0, BuildingBlock: PAMTOO_clean_sbu_0, # of connection points: 6
#     Node 15, Type 0, BuildingBlock: PAMTOO_clean_sbu_0, # of connection points: 6
#     Edge 16, Type (0, 0), BuildingBlock: UVAHIK_clean_linker_0, # of connection points: 2
#     Edge 17, Type (0, 0), BuildingBlock: UVAHIK_clean_linker_0, # of connection points: 2
#     Edge 18, Type (0, 0), BuildingBlock: UVAHIK_clean_linker_0, # of connection points: 2
#     Edge 19, Type (0, 0), BuildingBlock: UVAHIK_clean_linker_0, # of connection points: 2
#     Edge 20, Type (0, 0), BuildingBlock: UVAHIK_clean_linker_0, # of connection points: 2
#     Edge 21, Type (0, 0), BuildingBlock: UVAHIK_clean_linker_0, # of connection points: 2
#     Edge 22, Type (0, 0), BuildingBlock: UVAHIK_clean_linker_0, # of connection points: 2
#     Edge 23, Type (0, 0), BuildingBlock: UVAHIK_clean_linker_0, # of connection points: 2
#     Edge 24, Type (0, 0), BuildingBlock: UVAHIK_clean_linker_0, # of connection points: 2
#     Edge 25, Type (0, 0), BuildingBlock: UVAHIK_clean_linker_0, # of connection points: 2
#     Edge 26, Type (0, 0), BuildingBlock: UVAHIK_clean_linker_0, # of connection points: 2
#     Edge 27, Type (0, 0), BuildingBlock: UVAHIK_clean_linker_0, # of connection points: 2
#     Edge 28, Type (0, 0), BuildingBlock: UVAHIK_clean_linker_0, # of connection points: 2
#     Edge 29, Type (0, 0), BuildingBlock: UVAHIK_clean_linker_0, # of connection points: 2
#     Edge 30, Type (0, 0), BuildingBlock: UVAHIK_clean_linker_0, # of connection points: 2
#     Edge 31, Type (0, 0), BuildingBlock: UVAHIK_clean_linker_0, # of connection points: 2
#     Edge 32, Type (0, 0), BuildingBlock: UVAHIK_clean_linker_0, # of connection points: 2
#     Edge 33, Type (0, 0), BuildingBlock: UVAHIK_clean_linker_0, # of connection points: 2
#     Edge 34, Type (0, 0), BuildingBlock: UVAHIK_clean_linker_0, # of connection points: 2
#     Edge 35, Type (0, 0), BuildingBlock: UVAHIK_clean_linker_0, # of connection points: 2
#     Edge 36, Type (0, 0), BuildingBlock: UVAHIK_clean_linker_0, # of connection points: 2
#     Edge 37, Type (0, 0), BuildingBlock: UVAHIK_clean_linker_0, # of connection points: 2
#     Edge 38, Type (0, 0), BuildingBlock: UVAHIK_clean_linker_0, # of connection points: 2
#     Edge 39, Type (0, 0), BuildingBlock: UVAHIK_clean_linker_0, # of connection points: 2
#     Edge 40, Type (0, 0), BuildingBlock: UVAHIK_clean_linker_0, # of connection points: 2
#     Edge 41, Type (0, 0), BuildingBlock: UVAHIK_clean_linker_0, # of connection points: 2
#     Edge 42, Type (0, 0), BuildingBlock: UVAHIK_clean_linker_0, # of connection points: 2
#     Edge 43, Type (0, 0), BuildingBlock: UVAHIK_clean_linker_0, # of connection points: 2
#     Edge 44, Type (0, 0), BuildingBlock: UVAHIK_clean_linker_0, # of connection points: 2
#     Edge 45, Type (0, 0), BuildingBlock: UVAHIK_clean_linker_0, # of connection points: 2
#     Edge 46, Type (0, 0), BuildingBlock: UVAHIK_clean_linker_0, # of connection points: 2
#     Edge 47, Type (0, 0), BuildingBlock: UVAHIK_clean_linker_0, # of connection points: 2
#     Edge 48, Type (0, 0), BuildingBlock: UVAHIK_clean_linker_0, # of connection points: 2
#     Edge 49, Type (0, 0), BuildingBlock: UVAHIK_clean_linker_0, # of connection points: 2
#     Edge 50, Type (0, 0), BuildingBlock: UVAHIK_clean_linker_0, # of connection points: 2
#     Edge 51, Type (0, 0), BuildingBlock: UVAHIK_clean_linker_0, # of connection points: 2
#     Edge 52, Type (0, 0), BuildingBlock: UVAHIK_clean_linker_0, # of connection points: 2
#     Edge 53, Type (0, 0), BuildingBlock: UVAHIK_clean_linker_0, # of connection points: 2
#     Edge 54, Type (0, 0), BuildingBlock: UVAHIK_clean_linker_0, # of connection points: 2
#     Edge 55, Type (0, 0), BuildingBlock: UVAHIK_clean_linker_0, # of connection points: 2
#     Edge 56, Type (0, 0), BuildingBlock: UVAHIK_clean_linker_0, # of connection points: 2
#     Edge 57, Type (0, 0), BuildingBlock: UVAHIK_clean_linker_0, # of connection points: 2
#     Edge 58, Type (0, 0), BuildingBlock: UVAHIK_clean_linker_0, # of connection points: 2
#     Edge 59, Type (0, 0), BuildingBlock: UVAHIK_clean_linker_0, # of connection points: 2
#     Edge 60, Type (0, 0), BuildingBlock: UVAHIK_clean_linker_0, # of connection points: 2
#     Edge 61, Type (0, 0), BuildingBlock: UVAHIK_clean_linker_0, # of connection points: 2
#     Edge 62, Type (0, 0), BuildingBlock: UVAHIK_clean_linker_0, # of connection points: 2
#     Edge 63, Type (0, 0), BuildingBlock: UVAHIK_clean_linker_0, # of connection points: 2
# Relax obj value: 0.521
# Max RMSD: 0.303
# Mean RMSD: 0.303
data_MOF--net-whk--node1-PAMTOO_clean_sbu_0--edge1-UVAHIK_clean_linker_0
_symmetry_space_group_name_H-M    P1
_symmetry_Int_Tables_number       1
_symmetry_cell_setting            triclinic
loop_
_symmetry_equiv_pos_as_xyz
'x, y, z'
_cell_length_a     56.652975
_cell_length_b     56.58076
_cell_length_c     53.780452
_cell_angle_alpha  90.04087
_cell_angle_beta   90.055369
_cell_angle_gamma 90.009676
loop_
_atom_site_label
_atom_site_type_symbol
_atom_site_fract_x
_atom_site_fract_y
_atom_site_fract_z
_atom_type_partial_charge
Dy0 Dy 0.55726 0.19832 0.41453 0.0
Dy1 Dy 0.60045 0.23186 0.39442 0.0
C2 C 0.58072 0.19115 0.35961 0.0
O3 O 0.59041 0.18681 0.43418 0.0
O4 O 0.61693 0.19703 0.40393 0.0
O5 O 0.54399 0.16355 0.42433 0.0
O6 O 0.52156 0.19425 0.42814 0.0
O7 O 0.60121 0.23619 0.43531 0.0
O8 O 0.56278 0.2265 0.44416 0.0
O9 O 0.56843 0.25398 0.4007 0.0
O10 O 0.54063 0.22658 0.39097 0.0
O11 O 0.60995 0.2628 0.37302 0.0
O12 O 0.63682 0.2431 0.39287 0.0
C13 C 0.61153 0.18497 0.42405 0.0
O14 O 0.57044 0.18127 0.37901 0.0
O15 O 0.58856 0.21294 0.36045 0.0
C16 C 0.50243 0.15703 0.4211 0.0
C17 C 0.46177 0.12976 0.40928 0.0
C18 C 0.46401 0.15324 0.40084 0.0
C19 C 0.48411 0.16673 0.40667 0.0
C20 C 0.50037 0.13354 0.42919 0.0
C21 C 0.48037 0.12008 0.42336 0.0
C22 C 0.52293 0.1713 0.42966 0.0
C23 C 0.58286 0.23699 0.44997 0.0
C24 C 0.54698 0.2488 0.39344 0.0
C25 C 0.63739 0.28473 0.39627 0.0
C26 C 0.64803 0.3262 0.42336 0.0
C27 C 0.64551 0.30437 0.43558 0.0
C28 C 0.64015 0.28394 0.42223 0.0
C29 C 0.63878 0.30656 0.38409 0.0
C30 C 0.64396 0.32714 0.3975 0.0
C31 C 0.6312 0.26313 0.38235 0.0
H32 H 0.45022 0.16124 0.38972 0.0
H33 H 0.48512 0.18482 0.40017 0.0
H34 H 0.51408 0.12571 0.44058 0.0
H35 H 0.47922 0.10225 0.43056 0.0
H36 H 0.64878 0.30271 0.45535 0.0
H37 H 0.63857 0.26744 0.43229 0.0
H38 H 0.63602 0.30768 0.36419 0.0
H39 H 0.64532 0.34369 0.38751 0.0
Dy40 Dy 0.33943 0.5567 0.41685 0.0
Dy41 Dy 0.30767 0.59981 0.39349 0.0
C42 C 0.34921 0.57788 0.36139 0.0
O43 O 0.35186 0.59019 0.43514 0.0
O44 O 0.34254 0.61584 0.40362 0.0
O45 O 0.37329 0.54136 0.42616 0.0
O46 O 0.34123 0.52197 0.43385 0.0
O47 O 0.30221 0.60295 0.43415 0.0
O48 O 0.31137 0.56498 0.44586 0.0
O49 O 0.2848 0.56848 0.40088 0.0
O50 O 0.31194 0.54027 0.39231 0.0
O51 O 0.27756 0.6089 0.37061 0.0
O52 O 0.2975 0.63635 0.3893 0.0
C53 C 0.35415 0.61091 0.4242 0.0
O54 O 0.35807 0.56827 0.38171 0.0
O55 O 0.32762 0.58624 0.36086 0.0
C56 C 0.37569 0.49907 0.42555 0.0
C57 C 0.39968 0.45639 0.41364 0.0
C58 C 0.40441 0.47743 0.40052 0.0
C59 C 0.39256 0.4985 0.40638 0.0
C60 C 0.37065 0.47803 0.43835 0.0
C61 C 0.38242 0.45697 0.43246 0.0
C62 C 0.36423 0.52142 0.43368 0.0
C63 C 0.30124 0.58563 0.45019 0.0
C64 C 0.2898 0.5468 0.39424 0.0
C65 C 0.25586 0.6383 0.3913 0.0
C66 C 0.21379 0.64997 0.41677 0.0
C67 C 0.23557 0.64935 0.42937 0.0
C68 C 0.25627 0.64346 0.41686 0.0
C69 C 0.23418 0.63839 0.37868 0.0
C70 C 0.21332 0.64413 0.39129 0.0
C71 C 0.27762 0.63069 0.37853 0.0
H72 H 0.41733 0.47763 0.3857 0.0
H73 H 0.39685 0.51439 0.3961 0.0
H74 H 0.35789 0.47798 0.45334 0.0
H75 H 0.37846 0.44129 0.4432 0.0
H76 H 0.23688 0.65418 0.44881 0.0
H77 H 0.27263 0.64307 0.42729 0.0
H78 H 0.23337 0.6339 0.35911 0.0
H79 H 0.19688 0.64415 0.38103 0.0
Dy80 Dy 0.98446 0.33718 0.424 0.0
Dy81 Dy 0.93639 0.31178 0.40432 0.0
C82 C 0.96352 0.34517 0.36867 0.0
O83 O 0.95466 0.35339 0.44572 0.0
O84 O 0.92794 0.34916 0.41449 0.0
O85 O 1.00271 0.36926 0.43422 0.0
O86 O 0.02099 0.33575 0.4363 0.0
O87 O 0.93594 0.30915 0.44555 0.0
O88 O 0.97575 0.30796 0.45138 0.0
O89 O 0.96409 0.28355 0.40276 0.0
O90 O 0.99629 0.30784 0.39886 0.0
O91 O 0.9099 0.28441 0.40759 0.0
O92 O 0.90558 0.31247 0.38065 0.0
C93 C 0.93445 0.35919 0.43536 0.0
O94 O 0.97271 0.35537 0.38851 0.0
O95 O 0.95486 0.32376 0.37017 0.0
C96 C 0.04454 0.37004 0.42897 0.0
C97 C 0.08619 0.39476 0.41539 0.0
C98 C 0.06458 0.39936 0.40331 0.0
C99 C 0.04399 0.38713 0.41 0.0
C100 C 0.06617 0.365 0.44057 0.0
C101 C 0.08674 0.37715 0.43385 0.0
C102 C 0.02274 0.35863 0.4384 0.0
C103 C 0.95422 0.30235 0.45851 0.0
C104 C 0.98671 0.28663 0.39816 0.0
C105 C 0.87332 0.30444 0.40727 0.0
C106 C 0.83915 0.32434 0.43935 0.0
C107 C 0.84773 0.30135 0.4435 0.0
C108 C 0.86461 0.2915 0.42761 0.0
C109 C 0.86385 0.32699 0.4025 0.0
C110 C 0.84705 0.33682 0.41838 0.0
C111 C 0.89497 0.29654 0.39419 0.0
H112 H 0.06352 0.41255 0.38877 0.0
H113 H 0.02759 0.39137 0.40066 0.0
H114 H 0.06704 0.35204 0.45537 0.0
H115 H 0.10293 0.37328 0.44377 0.0
H116 H 0.84195 0.29124 0.45946 0.0
H117 H 0.87163 0.27417 0.43192 0.0
H118 H 0.87008 0.33754 0.38704 0.0
H119 H 0.84031 0.3543 0.41424 0.0
Dy120 Dy 0.20054 0.98099 0.41889 0.0
Dy121 Dy 0.22757 0.93355 0.39939 0.0
C122 C 0.19407 0.95974 0.36324 0.0
O123 O 0.18617 0.95027 0.44102 0.0
O124 O 0.19022 0.92506 0.40871 0.0
O125 O 0.16754 0.99742 0.42924 0.0
O126 O 0.19981 1.01778 0.43053 0.0
O127 O 0.23111 0.93446 0.44062 0.0
O128 O 0.23016 0.97434 0.44627 0.0
O129 O 0.25508 0.96174 0.39664 0.0
O130 O 0.23047 0.99412 0.39511 0.0
O131 O 0.25512 0.90721 0.40271 0.0
O132 O 0.22618 0.90183 0.37698 0.0
C133 C 0.18093 0.93005 0.43029 0.0
O134 O 0.18346 0.96871 0.38295 0.0
O135 O 0.21568 0.95165 0.36498 0.0
C136 C 0.16399 0.0393 0.42392 0.0
C137 C 0.13668 0.07986 0.41184 0.0
C138 C 0.13086 0.05749 0.40206 0.0
C139 C 0.14434 0.03745 0.40801 0.0
C140 C 0.17014 0.06167 0.43321 0.0
C141 C 0.15673 0.08169 0.42723 0.0
C142 C 0.17694 0.01815 0.43302 0.0
C143 C 0.23722 0.95321 0.45327 0.0
C144 C 0.25167 0.98456 0.3933 0.0
C145 C 0.23389 0.87135 0.40497 0.0
C146 C 0.20589 0.83795 0.43056 0.0
C147 C 0.21451 0.85804 0.44288 0.0
C148 C 0.22847 0.8744 0.43031 0.0
C149 C 0.22619 0.85085 0.39283 0.0
C150 C 0.21253 0.83417 0.40557 0.0
C151 C 0.24244 0.89176 0.39051 0.0
H152 H 0.11576 0.05542 0.38988 0.0
H153 H 0.13907 0.02047 0.40054 0.0
H154 H 0.18501 0.06359 0.44574 0.0
H155 H 0.16164 0.09848 0.43541 0.0
H156 H 0.20966 0.86176 0.46196 0.0
H157 H 0.23392 0.8901 0.4402 0.0
H158 H 0.22982 0.84826 0.37324 0.0
H159 H 0.20677 0.81856 0.39563 0.0
Dy160 Dy 0.06369 0.83712 0.09888 0.0
Dy161 Dy 0.10682 0.80349 0.11893 0.0
C162 C 0.08654 0.84359 0.1544 0.0
O163 O 0.09725 0.84994 0.08065 0.0
O164 O 0.12297 0.83869 0.11134 0.0
O165 O 0.05014 0.87187 0.09003 0.0
O166 O 0.02819 0.84112 0.08425 0.0
O167 O 0.10809 0.80133 0.07786 0.0
O168 O 0.06936 0.80912 0.06916 0.0
O169 O 0.07498 0.7814 0.11187 0.0
O170 O 0.04697 0.80841 0.1219 0.0
O171 O 0.11689 0.77259 0.14012 0.0
O172 O 0.14308 0.79186 0.11886 0.0
C173 C 0.11814 0.85131 0.09146 0.0
O174 O 0.07582 0.85334 0.13517 0.0
O175 O 0.0954 0.82218 0.15329 0.0
C176 C 1.00826 0.87747 0.09279 0.0
C177 C 0.96805 0.90521 0.10508 0.0
C178 C 0.99041 0.91056 0.11512 0.0
C179 C 1.01027 0.89687 0.10907 0.0
C180 C 0.9859 0.87189 0.08311 0.0
C181 C 0.96607 0.8855 0.0892 0.0
C182 C 0.02926 0.86412 0.08391 0.0
C183 C 0.08977 0.79943 0.06326 0.0
C184 C 0.05347 0.78625 0.11909 0.0
C185 C 0.14367 0.75031 0.11645 0.0
C186 C 0.15508 0.70871 0.09023 0.0
C187 C 0.14751 0.72892 0.07737 0.0
C188 C 0.14177 0.74949 0.09037 0.0
C189 C 0.15023 0.7299 0.1294 0.0
C190 C 0.15588 0.70926 0.11642 0.0
C191 C 0.13784 0.77211 0.13009 0.0
H192 H 0.9926 0.9254 0.12764 0.0
H193 H 0.02724 0.90174 0.11682 0.0
H194 H 0.98384 0.85727 0.07028 0.0
H195 H 0.94929 0.88099 0.08079 0.0
H196 H 0.14671 0.72901 0.05723 0.0
H197 H 0.13632 0.76489 0.07994 0.0
H198 H 0.15144 0.73007 0.14951 0.0
H199 H 0.16205 0.69409 0.12684 0.0
Dy200 Dy 0.70599 0.05278 0.10211 0.0
Dy201 Dy 0.73051 0.10028 0.12533 0.0
C202 C 0.69641 0.0712 0.15741 0.0
O203 O 0.68704 0.08326 0.08386 0.0
O204 O 0.69328 0.10947 0.11546 0.0
O205 O 0.70247 1.01504 0.10518 0.0
O206 O 0.68259 0.03347 0.07692 0.0
O207 O 0.73247 0.10215 0.0842 0.0
O208 O 0.73569 0.06296 0.07576 0.0
O209 O 0.76075 0.07494 0.12483 0.0
O210 O 0.73881 0.04085 0.12211 0.0
O211 O 0.75539 0.12923 0.12345 0.0
O212 O 0.72932 0.12812 0.15281 0.0
C213 C 0.68227 0.10347 0.09495 0.0
O214 O 0.68616 0.06399 0.13676 0.0
O215 O 0.71853 0.07783 0.15669 0.0
C216 C 0.66721 0.9964 0.09183 0.0
C217 C 0.63522 0.9586 0.10076 0.0
C218 C 0.64175 0.97423 0.12003 0.0
C219 C 0.65757 0.99289 0.11562 0.0
C220 C 0.66009 0.98142 0.07242 0.0
C221 C 0.64431 0.96279 0.07678 0.0
C222 C 0.68692 1.01318 0.08749 0.0
C223 C 0.74136 0.08509 0.07075 0.0
C224 C 0.75915 0.05176 0.12526 0.0
C225 C 0.73177 0.16324 0.12927 0.0
C226 C 0.70302 0.1951 0.10233 0.0
C227 C 0.72542 0.18863 0.09335 0.0
C228 C 0.73963 0.17292 0.10666 0.0
C229 C 0.71014 0.1711 0.13911 0.0
C230 C 0.69589 0.18671 0.12574 0.0
C231 C 0.74298 0.14156 0.1393 0.0
H232 H 0.63488 0.97187 0.13864 0.0
H233 H 0.66283 1.00413 0.13098 0.0
H234 H 0.66751 0.98354 0.05399 0.0
H235 H 0.64003 0.95108 0.0615 0.0
H236 H 0.73186 0.19544 0.07582 0.0
H237 H 0.75623 0.16738 0.09853 0.0
H238 H 0.70344 0.16402 0.15643 0.0
H239 H 0.67878 0.19129 0.13329 0.0
Dy240 Dy 0.49008 0.69489 0.1027 0.0
Dy241 Dy 0.44515 0.71891 0.13134 0.0
C242 C 0.47513 0.68252 0.15828 0.0
O243 O 0.45851 0.68219 0.08134 0.0
O244 O 0.43288 0.68494 0.11405 0.0
O245 O 0.50698 0.66333 0.08871 0.0
O246 O 0.52572 0.69659 0.0879 0.0
O247 O 0.44009 0.72943 0.092 0.0
O248 O 0.47775 0.72403 0.07678 0.0
O249 O 0.4717 0.74804 0.13024 0.0
O250 O 0.50471 0.72476 0.12589 0.0
O251 O 0.41711 0.74413 0.13796 0.0
O252 O 0.42102 0.71354 0.16182 0.0
C253 C 0.43813 0.6772 0.09171 0.0
O254 O 0.47977 0.67325 0.13644 0.0
O255 O 0.47029 0.705 0.15929 0.0
C256 C 0.54898 0.66168 0.09192 0.0
C257 C 0.591 0.63649 0.10336 0.0
C258 C 0.56991 0.63208 0.11647 0.0
C259 C 0.54916 0.64455 0.11085 0.0
C260 C 0.57006 0.66642 0.07915 0.0
C261 C 0.59081 0.65404 0.08481 0.0
C262 C 0.52697 0.67387 0.08415 0.0
C263 C 0.4564 0.73341 0.07518 0.0
C264 C 0.49479 0.74559 0.12964 0.0
C265 C 0.38325 0.72099 0.14674 0.0
C266 C 0.34531 0.69234 0.1311 0.0
C267 C 0.35802 0.70584 0.1138 0.0
C268 C 0.3768 0.71998 0.12151 0.0
C269 C 0.36967 0.70864 0.16426 0.0
C270 C 0.35078 0.69447 0.15652 0.0
C271 C 0.40678 0.72992 0.15373 0.0
H272 H 0.56943 0.61895 0.1311 0.0
H273 H 0.5332 0.64057 0.12111 0.0
H274 H 0.57037 0.67943 0.06439 0.0
H275 H 0.60655 0.65778 0.07411 0.0
H276 H 0.35378 0.70505 0.09417 0.0
H277 H 0.38706 0.72907 0.10747 0.0
H278 H 0.37457 0.7088 0.18374 0.0
H279 H 0.34119 0.68433 0.17028 0.0
Dy280 Dy 0.84668 0.47592 0.10161 0.0
Dy281 Dy 0.81383 0.43249 0.1224 0.0
C282 C 0.85368 0.4536 0.15722 0.0
O283 O 0.86003 0.44272 0.08321 0.0
O284 O 0.84913 0.41678 0.11385 0.0
O285 O 0.88095 0.49209 0.0961 0.0
O286 O 0.84953 0.50969 0.08279 0.0
O287 O 0.81063 0.43043 0.08146 0.0
O288 O 0.81838 0.46917 0.07242 0.0
O289 O 0.79136 0.4643 0.11581 0.0
O290 O 0.81851 0.49243 0.12524 0.0
O291 O 0.78236 0.42239 0.14255 0.0
O292 O 0.80406 0.3957 0.12497 0.0
C293 C 0.86161 0.4218 0.0939 0.0
O294 O 0.86347 0.46363 0.13761 0.0
O295 O 0.83213 0.44516 0.15645 0.0
C296 C 0.88233 0.53444 0.0929 0.0
C297 C 0.90481 0.57863 0.10162 0.0
C298 C 0.90981 0.5589 0.11672 0.0
C299 C 0.89875 0.53703 0.11237 0.0
C300 C 0.87681 0.5543 0.07837 0.0
C301 C 0.88783 0.57609 0.08268 0.0
C302 C 0.8723 0.51108 0.08582 0.0
C303 C 0.80883 0.44861 0.06666 0.0
C304 C 0.79637 0.48588 0.12287 0.0
C305 C 0.76262 0.39291 0.1195 0.0
C306 C 0.72294 0.3807 0.09016 0.0
C307 C 0.74598 0.37616 0.08166 0.0
C308 C 0.76554 0.38226 0.09607 0.0
C309 C 0.73968 0.39785 0.1279 0.0
C310 C 0.72006 0.39191 0.11335 0.0
C311 C 0.78334 0.4008 0.13409 0.0
H312 H 0.9229 0.56009 0.13134 0.0
H313 H 0.90352 0.52206 0.12386 0.0
H314 H 0.86431 0.55285 0.06318 0.0
H315 H 0.88319 0.59091 0.07093 0.0
H316 H 0.74901 0.36713 0.0642 0.0
H317 H 0.78295 0.37851 0.08877 0.0
H318 H 0.73694 0.40646 0.14566 0.0
H319 H 0.70261 0.39592 0.1204 0.0
Dy320 Dy 0.44063 0.81286 0.6299 0.0
Dy321 Dy 0.48217 0.83953 0.59847 0.0
C322 C 0.44743 0.80088 0.57223 0.0
O323 O 0.46792 0.78488 0.62483 0.0
O324 O 0.49944 0.80995 0.61986 0.0
O325 O 0.41258 0.78784 0.63742 0.0
O326 O 0.42217 0.81412 0.66489 0.0
O327 O 0.47336 0.86028 0.63327 0.0
O328 O 0.46775 0.8274 0.65535 0.0
O329 O 0.44875 0.85262 0.58107 0.0
O330 O 0.42551 0.84692 0.61543 0.0
O331 O 0.49745 0.87206 0.58493 0.0
O332 O 0.51642 0.83924 0.58036 0.0
C333 C 0.49079 0.7885 0.62311 0.0
O334 O 0.43261 0.80316 0.59086 0.0
O335 O 0.46841 0.81122 0.57221 0.0
C336 C 0.38206 0.80905 0.65775 0.0
C337 C 0.34284 0.83953 0.65699 0.0
C338 C 0.35101 0.82917 0.63492 0.0
C339 C 0.37049 0.81412 0.63525 0.0
C340 C 0.3729 0.8181 0.68005 0.0
C341 C 0.35336 0.8332 0.67969 0.0
C342 C 0.40611 0.79924 0.65742 0.0
C343 C 0.47074 0.85019 0.65502 0.0
C344 C 0.42905 0.85637 0.59337 0.0
C345 C 0.53939 0.87407 0.58559 0.0
C346 C 0.58168 0.89842 0.59769 0.0
C347 C 0.56196 0.89937 0.61362 0.0
C348 C 0.54107 0.88727 0.60768 0.0
C349 C 0.55908 0.87284 0.56985 0.0
C350 C 0.57999 0.88482 0.57582 0.0
C351 C 0.51718 0.86216 0.57813 0.0
H352 H 0.3428 0.83332 0.61725 0.0
H353 H 0.37728 0.80765 0.6177 0.0
H354 H 0.38175 0.8147 0.69755 0.0
H355 H 0.34724 0.84085 0.697 0.0
H356 H 0.5627 0.90939 0.63077 0.0
H357 H 0.52618 0.88841 0.62025 0.0
H358 H 0.55819 0.86284 0.55269 0.0
H359 H 0.59464 0.88387 0.56295 0.0
Dy360 Dy 0.73428 0.42913 0.61944 0.0
Dy361 Dy 0.70272 0.47594 0.60545 0.0
C362 C 0.73805 0.45259 0.56689 0.0
O363 O 0.76029 0.45851 0.61526 0.0
O364 O 0.73566 0.48924 0.62436 0.0
O365 O 0.76164 0.41173 0.64057 0.0
O366 O 0.74366 0.39305 0.61086 0.0
O367 O 0.68571 0.45795 0.63834 0.0
O368 O 0.71804 0.44012 0.65539 0.0
O369 O 0.68436 0.4449 0.58715 0.0
O370 O 0.69762 0.41591 0.61362 0.0
O371 O 0.68669 0.50647 0.62156 0.0
O372 O 0.68253 0.50035 0.58145 0.0
C373 C 0.75708 0.48068 0.62147 0.0
O374 O 0.73236 0.43318 0.57852 0.0
O375 O 0.73112 0.47317 0.57579 0.0
C376 C 0.78458 0.38629 0.6149 0.0
C377 C 0.82832 0.37049 0.59611 0.0
C378 C 0.82696 0.39154 0.60991 0.0
C379 C 0.80529 0.39944 0.61915 0.0
C380 C 0.78578 0.36595 0.60001 0.0
C381 C 0.80739 0.35819 0.5906 0.0
C382 C 0.76172 0.39334 0.62587 0.0
C383 C 0.69623 0.44768 0.6573 0.0
C384 C 0.68347 0.42299 0.59568 0.0
C385 C 0.66284 0.53549 0.60024 0.0
C386 C 0.63613 0.57806 0.6012 0.0
C387 C 0.64078 0.56543 0.62318 0.0
C388 C 0.65396 0.54456 0.62271 0.0
C389 C 0.65785 0.54768 0.57809 0.0
C390 C 0.64464 0.56876 0.57856 0.0
C391 C 0.67768 0.51379 0.60063 0.0
H392 H 0.84281 0.40139 0.61439 0.0
H393 H 0.80491 0.41545 0.63019 0.0
H394 H 0.77006 0.35561 0.59627 0.0
H395 H 0.80789 0.34171 0.58035 0.0
H396 H 0.6341 0.57158 0.6409 0.0
H397 H 0.65721 0.53551 0.64013 0.0
H398 H 0.66448 0.54117 0.56049 0.0
H399 H 0.64154 0.57802 0.56125 0.0
Dy400 Dy 0.10048 0.72854 0.63122 0.0
Dy401 Dy 0.06058 0.69643 0.60288 0.0
C402 C 0.09157 0.73595 0.57283 0.0
O403 O 0.07056 0.7518 0.62019 0.0
O404 O 0.04177 0.72447 0.62514 0.0
O405 O 0.10611 0.75414 0.66039 0.0
O406 O 0.13554 0.74202 0.63802 0.0
O407 O 0.07172 0.67599 0.63716 0.0
O408 O 0.08376 0.70703 0.66091 0.0
O409 O 0.09526 0.68518 0.58666 0.0
O410 O 0.1195 0.69561 0.6193 0.0
O411 O 0.04714 0.6624 0.59115 0.0
O412 O 0.02644 0.69385 0.58466 0.0
C413 C 0.04833 0.74673 0.62389 0.0
O414 O 0.1061 0.73748 0.59173 0.0
O415 O 0.07182 0.72343 0.57374 0.0
C416 C 0.13365 0.78245 0.64793 0.0
C417 C 0.14557 0.82941 0.63631 0.0
C418 C 0.13585 0.81455 0.61804 0.0
C419 C 0.1298 0.79128 0.62385 0.0
C420 C 0.14236 0.79747 0.66645 0.0
C421 C 0.14825 0.8208 0.66071 0.0
C422 C 0.12793 0.75781 0.65381 0.0
C423 C 0.07854 0.68464 0.65872 0.0
C424 C 0.11569 0.68402 0.59836 0.0
C425 C 1.00508 0.65788 0.59096 0.0
C426 C 0.96337 0.63134 0.60054 0.0
C427 C 0.98531 0.62424 0.61039 0.0
C428 C 1.00589 0.6373 0.60565 0.0
C429 C 0.98314 0.66521 0.5815 0.0
C430 C 0.96258 0.6522 0.58628 0.0
C431 C 0.02692 0.67083 0.58374 0.0
H432 H 0.13361 0.82071 0.59912 0.0
H433 H 0.12259 0.78004 0.60942 0.0
H434 H 0.1451 0.791 0.68519 0.0
H435 H 0.15609 0.83171 0.67507 0.0
H436 H 0.98677 0.60816 0.62119 0.0
H437 H 0.02249 0.63098 0.6131 0.0
H438 H 0.98193 0.68089 0.57002 0.0
H439 H 0.94603 0.65851 0.57869 0.0
Dy440 Dy 0.81288 0.09465 0.63141 0.0
Dy441 Dy 0.83988 0.05388 0.59886 0.0
C442 C 0.79461 0.0825 0.57572 0.0
O443 O 0.78553 0.06667 0.62927 0.0
O444 O 0.81121 0.03602 0.62137 0.0
O445 O 0.79809 0.12966 0.63512 0.0
O446 O 0.80535 0.10881 0.66799 0.0
O447 O 0.86227 0.0649 0.63192 0.0
O448 O 0.8309 0.06954 0.65651 0.0
O449 O 0.84935 0.08761 0.57958 0.0
O450 O 0.84585 0.10976 0.61482 0.0
O451 O 0.87283 0.03929 0.58516 0.0
O452 O 0.84046 0.01942 0.58129 0.0
C453 C 0.78983 0.04397 0.62667 0.0
O454 O 0.7919 0.09432 0.59659 0.0
O455 O 0.81187 0.06706 0.572 0.0
C456 C 0.81967 0.14794 0.66646 0.0
C457 C 0.85545 0.18234 0.66338 0.0
C458 C 0.86134 0.15844 0.66633 0.0
C459 C 0.8436 0.14141 0.66792 0.0
C460 C 0.81375 0.17196 0.66575 0.0
C461 C 0.83153 0.18908 0.66437 0.0
C462 C 0.80221 0.13002 0.65898 0.0
C463 C 0.85364 0.06754 0.65436 0.0
C464 C 0.85299 0.1074 0.59175 0.0
C465 C 0.87631 0.99728 0.5858 0.0
C466 C 0.90145 0.95492 0.59666 0.0
C467 C 0.91158 0.97277 0.58186 0.0
C468 C 0.89917 0.99359 0.57649 0.0
C469 C 0.86612 0.9796 0.60075 0.0
C470 C 0.87852 0.95867 0.60607 0.0
C471 C 0.86336 0.01919 0.57876 0.0
H472 H 0.8796 0.15278 0.66571 0.0
H473 H 0.84869 0.12297 0.66806 0.0
H474 H 0.79546 0.17736 0.66413 0.0
H475 H 0.82648 0.20738 0.66185 0.0
H476 H 0.92899 0.97048 0.57393 0.0
H477 H 0.90739 1.00679 0.56475 0.0
H478 H 0.84853 0.98188 0.60826 0.0
H479 H 0.87021 0.94551 0.61776 0.0
Dy480 Dy 0.93864 0.22713 0.8963 0.0
Dy481 Dy 0.98548 0.19756 0.91245 0.0
C482 C 0.96064 0.23337 0.94924 0.0
O483 O 0.96654 0.25497 0.89469 0.0
O484 O 0.99923 0.23079 0.89461 0.0
O485 O 0.91293 0.25469 0.90288 0.0
O486 O 0.90817 0.2302 0.87236 0.0
O487 O 0.96782 0.18036 0.87939 0.0
O488 O 0.95528 0.21419 0.86144 0.0
O489 O 0.95589 0.17923 0.93289 0.0
O490 O 0.92639 0.19077 0.90642 0.0
O491 O 1.01592 0.18093 0.89691 0.0
O492 O 1.01039 0.17913 0.93734 0.0
C493 C 0.98947 0.25186 0.89266 0.0
O494 O 0.94137 0.22708 0.93758 0.0
O495 O 0.98143 0.22722 0.94041 0.0
C496 C 0.87632 0.23483 0.90012 0.0
C497 C 0.84605 0.20712 0.92995 0.0
C498 C 0.85522 0.22857 0.93896 0.0
C499 C 0.87014 0.24231 0.9242 0.0
C500 C 0.8655 0.21442 0.89041 0.0
C501 C 0.85069 0.20065 0.9052 0.0
C502 C 0.89777 0.24442 0.88805 0.0
C503 C 0.96055 0.19176 0.85954 0.0
C504 C 0.93394 0.17755 0.92484 0.0
C505 C 0.04515 0.15847 0.91934 0.0
C506 C 0.08801 0.13246 0.91887 0.0
C507 C 0.07302 0.1327 0.898 0.0
C508 C 0.05199 0.14559 0.8982 0.0
C509 C 0.0596 0.15776 0.94056 0.0
C510 C 0.08085 0.14492 0.94032 0.0
C511 C 0.02361 0.17334 0.91832 0.0
H512 H 0.85129 0.23454 0.95764 0.0
H513 H 0.87799 0.25801 0.93225 0.0
H514 H 0.8698 0.20809 0.87194 0.0
H515 H 0.84387 0.1843 0.89758 0.0
H516 H 0.07749 0.12288 0.88138 0.0
H517 H 0.04109 0.14556 0.88163 0.0
H518 H 0.05479 0.1676 0.95708 0.0
H519 H 0.09195 0.14528 0.95672 0.0
Dy520 Dy 0.31479 0.93161 0.90565 0.0
Dy521 Dy 0.34729 0.97728 0.92084 0.0
C522 C 0.31188 0.95254 0.95934 0.0
O523 O 0.29178 0.96345 0.9097 0.0
O524 O 0.31781 0.99193 0.89781 0.0
O525 O 0.28198 0.91873 0.88999 0.0
O526 O 0.30619 0.89451 0.9079 0.0
O527 O 0.36111 0.96495 0.88344 0.0
O528 O 0.33062 0.94148 0.86931 0.0
O529 O 0.36204 0.94516 0.94007 0.0
O530 O 0.35149 0.91806 0.91061 0.0
O531 O 0.38198 0.99267 0.92646 0.0
O532 O 0.35059 1.01274 0.93536 0.0
C533 C 0.296 0.98481 0.90136 0.0
O534 O 0.31581 0.93321 0.94686 0.0
O535 O 0.3194 0.97298 0.95081 0.0
C536 C 0.26598 0.89177 0.91854 0.0
C537 C 0.23052 0.881 0.9536 0.0
C538 C 0.25272 0.88906 0.96144 0.0
C539 C 0.27024 0.89425 0.94416 0.0
C540 C 0.24354 0.88472 0.91049 0.0
C541 C 0.22596 0.87928 0.92787 0.0
C542 C 0.28453 0.89815 0.90055 0.0
C543 C 0.35092 0.95223 0.86579 0.0
C544 C 0.36463 0.9242 0.92969 0.0
C545 C 0.38515 0.03468 0.92453 0.0
C546 C 0.40763 0.07776 0.91162 0.0
C547 C 0.42014 0.05968 0.92385 0.0
C548 C 0.40902 0.03846 0.93023 0.0
C549 C 0.37262 0.05247 0.9119 0.0
C550 C 0.38375 0.07379 0.90553 0.0
C551 C 0.37355 1.01293 0.93382 0.0
H552 H 0.25683 0.89062 0.98102 0.0
H553 H 0.2873 0.89978 0.95099 0.0
H554 H 0.23975 0.88305 0.89082 0.0
H555 H 0.20918 0.8727 0.92114 0.0
H556 H 0.4384 0.06216 0.92922 0.0
H557 H 0.419 0.02515 0.94021 0.0
H558 H 0.35416 0.05008 0.90728 0.0
H559 H 0.37364 0.08718 0.89587 0.0
Dy560 Dy 0.60338 0.30332 0.90135 0.0
Dy561 Dy 0.56122 0.33649 0.92452 0.0
C562 C 0.58972 0.29831 0.9577 0.0
O563 O 0.57114 0.28139 0.90694 0.0
O564 O 0.54348 0.30974 0.90006 0.0
O565 O 0.61369 0.26816 0.89001 0.0
O566 O 0.6391 0.29662 0.88895 0.0
O567 O 0.57373 0.35326 0.88854 0.0
O568 O 0.58804 0.3207 0.86817 0.0
O569 O 0.59462 0.34959 0.94246 0.0
O570 O 0.62029 0.33765 0.9119 0.0
O571 O 0.54657 0.37107 0.93199 0.0
O572 O 0.52716 0.33979 0.94271 0.0
C573 C 0.54963 0.28738 0.90063 0.0
O574 O 0.60712 0.30119 0.94211 0.0
O575 O 0.56877 0.30759 0.95307 0.0
C576 C 0.6506 0.2605 0.90734 0.0
C577 C 0.67152 0.23343 0.94556 0.0
C578 C 0.66767 0.25778 0.94872 0.0
C579 C 0.65737 0.27114 0.92985 0.0
C580 C 0.65457 0.23627 0.90393 0.0
C581 C 0.66504 0.22285 0.92283 0.0
C582 C 0.63596 0.27377 0.88956 0.0
C583 C 0.58149 0.3429 0.8681 0.0
C584 C 0.61553 0.35039 0.93176 0.0
C585 C 0.5046 0.37438 0.93396 0.0
C586 C 0.46256 0.39962 0.92285 0.0
C587 C 0.48053 0.39713 0.9049 0.0
C588 C 0.50136 0.38468 0.91042 0.0
C589 C 0.48647 0.37627 0.95158 0.0
C590 C 0.46573 0.38869 0.94613 0.0
C591 C 0.52702 0.36278 0.9413 0.0
H592 H 0.6722 0.26652 0.966 0.0
H593 H 0.65404 0.28972 0.93323 0.0
H594 H 0.64907 0.22763 0.8869 0.0
H595 H 0.6682 0.20424 0.91951 0.0
H596 H 0.47882 0.40541 0.88684 0.0
H597 H 0.51509 0.38349 0.89646 0.0
H598 H 0.48852 0.36844 0.96984 0.0
H599 H 0.45218 0.38979 0.96027 0.0
Dy600 Dy 0.23176 0.59802 0.89249 0.0
Dy601 Dy 0.20501 0.55404 0.91927 0.0
C602 C 0.24291 0.58612 0.94878 0.0
O603 O 0.25881 0.56937 0.89369 0.0
O604 O 0.23369 0.53766 0.89604 0.0
O605 O 0.26118 0.62205 0.88827 0.0
O606 O 0.22983 0.62631 0.86565 0.0
O607 O 0.18527 0.56409 0.88407 0.0
O608 O 0.21708 0.57611 0.86196 0.0
O609 O 0.19208 0.58661 0.93898 0.0
O610 O 0.19623 0.61055 0.90528 0.0
O611 O 0.17247 0.53959 0.93398 0.0
O612 O 0.20402 0.51816 0.93329 0.0
C613 C 0.25503 0.54646 0.89291 0.0
O614 O 0.23793 0.603 0.93297 0.0
O615 O 0.23479 0.56444 0.94547 0.0
C616 C 0.24336 0.65986 0.88681 0.0
C617 C 0.22164 0.6962 0.91446 0.0
C618 C 0.23923 0.68209 0.92531 0.0
C619 C 0.24998 0.66411 0.91166 0.0
C620 C 0.22716 0.67518 0.87539 0.0
C621 C 0.21629 0.69308 0.88912 0.0
C622 C 0.2483 0.63669 0.87527 0.0
C623 C 0.19484 0.57 0.86264 0.0
C624 C 0.18708 0.60634 0.92723 0.0
C625 C 0.16689 0.49814 0.92993 0.0
C626 C 0.13879 0.45822 0.91752 0.0
C627 C 0.131 0.47489 0.93514 0.0
C628 C 0.14488 0.49453 0.94126 0.0
C629 C 0.17474 0.48168 0.91214 0.0
C630 C 0.16086 0.46192 0.90605 0.0
C631 C 0.18141 0.5187 0.93774 0.0
H632 H 0.24422 0.68447 0.9446 0.0
H633 H 0.26236 0.65265 0.92116 0.0
H634 H 0.22154 0.67217 0.85638 0.0
H635 H 0.20279 0.70363 0.88017 0.0
H636 H 0.11433 0.47252 0.94467 0.0
H637 H 0.13848 0.50684 0.95515 0.0
H638 H 0.19162 0.484 0.90303 0.0
H639 H 0.16735 0.44963 0.89222 0.0
C640 C 0.59599 0.18793 0.3159 0.0
C641 C 0.58657 0.1768 0.33709 0.0
C642 C 0.60529 0.17467 0.29623 0.0
C643 C 0.60883 0.11481 0.26759 0.0
H644 H 0.66861 0.13849 0.24291 0.0
C645 C 0.69365 0.08563 0.20147 0.0
C646 C 0.68223 0.07738 0.1799 0.0
C647 C 0.68077 0.0954 0.22117 0.0
C648 C 0.65203 0.13145 0.24966 0.0
H649 H 0.57855 0.14271 0.35341 0.0
H650 H 0.59479 0.1195 0.31893 0.0
H651 H 0.64785 0.16008 0.27525 0.0
H652 H 0.64796 0.07191 0.16287 0.0
H653 H 0.62542 0.08892 0.19739 0.0
H654 H 0.6133 0.086 0.24189 0.0
C655 C 0.5949 0.13859 0.31759 0.0
C656 C 0.63992 0.14405 0.26805 0.0
C657 C 0.58556 0.15193 0.33739 0.0
C658 C 0.65738 0.07798 0.1792 0.0
C659 C 0.64443 0.08777 0.19902 0.0
C660 C 0.62093 0.10222 0.24894 0.0
C661 C 0.60553 0.14982 0.29707 0.0
C662 C 0.61812 0.136 0.2773 0.0
C663 C 0.65603 0.09725 0.21997 0.0
C664 C 0.64278 0.11033 0.23981 0.0
H665 H 0.59692 0.20702 0.31477 0.0
H666 H 0.61277 0.18398 0.28051 0.0
H667 H 0.59206 0.10811 0.27417 0.0
H668 H 0.71273 0.08535 0.20285 0.0
H669 H 0.69032 0.10199 0.23719 0.0
C670 C 0.46355 0.64328 0.17708 0.0
C671 C 0.46873 0.66745 0.18002 0.0
C672 C 0.45356 0.63023 0.19667 0.0
C673 C 0.4422 0.63104 0.26518 0.0
H674 H 0.38847 0.59167 0.24844 0.0
C675 C 0.38935 0.58038 0.34101 0.0
C676 C 0.36461 0.58207 0.33927 0.0
C677 C 0.40384 0.58764 0.32122 0.0
C678 C 0.40344 0.60257 0.25349 0.0
H679 H 0.46844 0.69646 0.20637 0.0
H680 H 0.45139 0.67381 0.24038 0.0
H681 H 0.4112 0.61044 0.21536 0.0
H682 H 0.33583 0.59186 0.3147 0.0
H683 H 0.36091 0.60426 0.28041 0.0
H684 H 0.434 0.62375 0.30333 0.0
C685 C 0.455 0.66483 0.22301 0.0
C686 C 0.41667 0.61316 0.23445 0.0
C687 C 0.46476 0.67788 0.20341 0.0
C688 C 0.35478 0.59025 0.31681 0.0
C689 C 0.36922 0.59731 0.29701 0.0
C690 C 0.42906 0.62032 0.2842 0.0
C691 C 0.44873 0.64095 0.21979 0.0
C692 C 0.43602 0.62787 0.24002 0.0
C693 C 0.39398 0.59657 0.29907 0.0
C694 C 0.40924 0.60623 0.27867 0.0
H695 H 0.46622 0.63467 0.15931 0.0
H696 H 0.44926 0.61182 0.19357 0.0
H697 H 0.4571 0.64204 0.27022 0.0
H698 H 0.3976 0.57426 0.358 0.0
H699 H 0.42281 0.58652 0.3234 0.0
C700 C 0.95204 0.34758 0.32354 0.0
C701 C 0.9588 0.3591 0.34564 0.0
C702 C 0.94412 0.36048 0.3029 0.0
C703 C 0.91483 0.41654 0.28712 0.0
H704 H 0.92996 0.39923 0.2192 0.0
C705 C 0.85686 0.44254 0.2024 0.0
C706 C 0.86802 0.44879 0.17996 0.0
C707 C 0.87002 0.43464 0.22286 0.0
C708 C 0.9257 0.40449 0.23804 0.0
H709 H 0.96309 0.39345 0.36294 0.0
H710 H 0.94911 0.41596 0.32694 0.0
H711 H 0.95003 0.37949 0.2537 0.0
H712 H 0.90202 0.45215 0.16186 0.0
H713 H 0.92499 0.43819 0.19756 0.0
H714 H 0.89011 0.44114 0.27148 0.0
C715 C 0.94995 0.39688 0.32564 0.0
C716 C 0.93708 0.39301 0.25784 0.0
C717 C 0.95819 0.38397 0.34621 0.0
C718 C 0.89282 0.44767 0.17885 0.0
C719 C 0.90599 0.43942 0.19925 0.0
C720 C 0.90325 0.4278 0.26732 0.0
C721 C 0.94243 0.38528 0.30384 0.0
C722 C 0.93165 0.39871 0.28268 0.0
C723 C 0.89472 0.43246 0.22142 0.0
C724 C 0.90835 0.42178 0.2425 0.0
H725 H 0.9522 0.32847 0.3224 0.0
H726 H 0.93834 0.35091 0.28654 0.0
H727 H 0.91003 0.42126 0.30597 0.0
H728 H 0.83781 0.44312 0.20397 0.0
H729 H 0.8607 0.42929 0.2395 0.0
C730 C 0.15549 0.95258 0.34104 0.0
C731 C 0.18028 0.95413 0.34032 0.0
C732 C 0.14281 0.94339 0.32075 0.0
C733 C 0.14644 0.92956 0.25329 0.0
H734 H 0.10072 0.88059 0.26828 0.0
C735 C 0.09157 0.88288 0.17602 0.0
C736 C 0.09156 0.85802 0.17706 0.0
C737 C 0.09988 0.89636 0.19617 0.0
C738 C 0.11338 0.89427 0.26376 0.0
H739 H 0.21098 0.94824 0.31709 0.0
H740 H 0.18888 0.9328 0.28164 0.0
H741 H 0.12029 0.90175 0.30221 0.0
H742 H 0.09933 0.82798 0.20072 0.0
H743 H 0.11325 0.85143 0.23589 0.0
H744 H 0.13978 0.92184 0.21484 0.0
C745 C 0.17922 0.93854 0.29793 0.0
C746 C 0.12446 0.90656 0.28323 0.0
C747 C 0.19192 0.94738 0.31832 0.0
C748 C 0.09903 0.84707 0.19921 0.0
C749 C 0.10699 0.86054 0.21946 0.0
C750 C 0.13511 0.91751 0.23382 0.0
C751 C 0.15455 0.93588 0.29907 0.0
C752 C 0.1414 0.92415 0.27827 0.0
C753 C 0.10803 0.88535 0.21803 0.0
C754 C 0.11867 0.89946 0.23879 0.0
H755 H 0.14592 0.95743 0.3577 0.0
H756 H 0.12381 0.94182 0.32219 0.0
H757 H 0.15928 0.94308 0.24878 0.0
H758 H 0.08612 0.89195 0.15924 0.0
H759 H 0.10021 0.91543 0.19451 0.0
C760 C 0.35253 0.93466 0.82283 0.0
C761 C 0.36374 0.94738 0.84202 0.0
C762 C 0.36519 0.92683 0.80205 0.0
C763 C 0.42122 0.93334 0.76634 0.0
H764 H 0.40722 0.86901 0.74633 0.0
C765 C 0.45844 0.88831 0.67605 0.0
C766 C 0.46393 0.86408 0.67752 0.0
C767 C 0.44809 0.90013 0.69634 0.0
C768 C 0.41155 0.88694 0.75172 0.0
H769 H 0.39709 0.96272 0.85351 0.0
H770 H 0.4192 0.94903 0.81715 0.0
H771 H 0.38537 0.88687 0.78034 0.0
H772 H 0.46405 0.83375 0.70216 0.0
H773 H 0.44642 0.85424 0.73729 0.0
H774 H 0.44767 0.93313 0.73767 0.0
C775 C 0.40051 0.94519 0.81823 0.0
C776 C 0.39874 0.89734 0.7711 0.0
C777 C 0.3878 0.95305 0.83914 0.0
C778 C 0.45995 0.85235 0.7002 0.0
C779 C 0.44961 0.86409 0.72036 0.0
C780 C 0.434 0.92293 0.74674 0.0
C781 C 0.3895 0.93141 0.7997 0.0
C782 C 0.40333 0.9207 0.77874 0.0
C783 C 0.44291 0.88797 0.71855 0.0
C784 C 0.42942 0.8995 0.73926 0.0
H785 H 0.33401 0.93008 0.82415 0.0
H786 H 0.35592 0.91677 0.78794 0.0
H787 H 0.42519 0.95139 0.77159 0.0
H788 H 0.46113 0.89791 0.65887 0.0
H789 H 0.44314 0.91851 0.69421 0.0
C790 C 0.59072 0.34581 0.82254 0.0
C791 C 0.58678 0.35713 0.84547 0.0
C792 C 0.59952 0.35837 0.80211 0.0
C793 C 0.63631 0.40997 0.7875 0.0
H794 H 0.61602 0.39827 0.71972 0.0
C795 C 0.6937 0.43251 0.70127 0.0
C796 C 0.68241 0.44166 0.68003 0.0
C797 C 0.68057 0.42487 0.72184 0.0
C798 C 0.62179 0.40193 0.73854 0.0
H799 H 0.58832 0.39087 0.86453 0.0
H800 H 0.60382 0.4128 0.82885 0.0
H801 H 0.59451 0.3803 0.75426 0.0
H802 H 0.64827 0.45033 0.66417 0.0
H803 H 0.6254 0.43688 0.69998 0.0
H804 H 0.66386 0.43123 0.77176 0.0
C805 C 0.60011 0.39412 0.82675 0.0
C806 C 0.60956 0.39147 0.75834 0.0
C807 C 0.59098 0.3816 0.84713 0.0
C808 C 0.65762 0.44344 0.68018 0.0
C809 C 0.64447 0.43556 0.70066 0.0
C810 C 0.64871 0.42022 0.76768 0.0
C811 C 0.60491 0.38257 0.8041 0.0
C812 C 0.61677 0.39517 0.78309 0.0
C813 C 0.65575 0.42594 0.72167 0.0
C814 C 0.64175 0.41618 0.74291 0.0
H815 H 0.58773 0.32699 0.82057 0.0
H816 H 0.60312 0.34884 0.78506 0.0
H817 H 0.64251 0.41304 0.80629 0.0
H818 H 0.71274 0.43084 0.70187 0.0
H819 H 0.68986 0.41739 0.73759 0.0
C820 C 0.08822 0.67859 0.7039 0.0
C821 C 0.08374 0.6688 0.68028 0.0
C822 C 0.09683 0.66463 0.72342 0.0
C823 C 0.13079 0.60977 0.73491 0.0
H824 H 0.11436 0.62214 0.80365 0.0
C825 C 0.19027 0.58128 0.81759 0.0
C826 C 0.1798 0.57484 0.84034 0.0
C827 C 0.17652 0.58939 0.79764 0.0
C828 C 0.11901 0.61817 0.78458 0.0
H829 H 0.08416 0.63619 0.65913 0.0
H830 H 0.09904 0.61172 0.6933 0.0
H831 H 0.09301 0.64219 0.77042 0.0
H832 H 0.1463 0.57113 0.85938 0.0
H833 H 0.12229 0.58505 0.82452 0.0
H834 H 0.15689 0.58584 0.74909 0.0
C835 C 0.09606 0.63036 0.69662 0.0
C836 C 0.1069 0.62992 0.76545 0.0
C837 C 0.08725 0.64436 0.67706 0.0
C838 C 0.15503 0.57584 0.84218 0.0
C839 C 0.14125 0.58409 0.82222 0.0
C840 C 0.14298 0.59808 0.75405 0.0
C841 C 0.10139 0.6404 0.71998 0.0
C842 C 0.11282 0.62619 0.74031 0.0
C843 C 0.15183 0.59142 0.79978 0.0
C844 C 0.13751 0.60234 0.77922 0.0
H845 H 0.08582 0.69733 0.70716 0.0
H846 H 0.10088 0.67315 0.74095 0.0
H847 H 0.13606 0.60652 0.71586 0.0
H848 H 0.20927 0.58084 0.81541 0.0
H849 H 0.18543 0.59504 0.78086 0.0
C850 C 0.85803 0.07898 0.69909 0.0
C851 C 0.86858 0.07527 0.67572 0.0
C852 C 0.87027 0.0904 0.71822 0.0
C853 C 0.9288 0.1079 0.74196 0.0
H854 H 0.8934 0.15775 0.77453 0.0
C855 C 0.95844 0.15419 0.83419 0.0
C856 C 0.95427 0.17864 0.83636 0.0
C857 C 0.95029 0.14151 0.81342 0.0
C858 C 0.90365 0.14403 0.76556 0.0
H859 H 0.90093 0.07969 0.65474 0.0
H860 H 0.92259 0.09928 0.68856 0.0
H861 H 0.87518 0.13515 0.74106 0.0
H862 H 0.93889 0.20896 0.81771 0.0
H863 H 0.92475 0.18693 0.78172 0.0
H864 H 0.95727 0.1168 0.76674 0.0
C865 C 0.90468 0.0934 0.69187 0.0
C866 C 0.89309 0.13089 0.7465 0.0
C867 C 0.89229 0.08209 0.67252 0.0
C868 C 0.94241 0.19017 0.81681 0.0
C869 C 0.93413 0.17748 0.79619 0.0
C870 C 0.93932 0.12093 0.76132 0.0
C871 C 0.89354 0.09829 0.71472 0.0
C872 C 0.90544 0.11256 0.73453 0.0
C873 C 0.93758 0.15291 0.79437 0.0
C874 C 0.92686 0.13918 0.77338 0.0
H875 H 0.83986 0.07391 0.70237 0.0
H876 H 0.86129 0.09347 0.7357 0.0
H877 H 0.93877 0.09388 0.73317 0.0
H878 H 0.9675 0.1447 0.84885 0.0
H879 H 0.95316 0.12259 0.81274 0.0
C880 C 0.44148 0.09113 0.39912 0.0
C881 C 0.43997 0.11552 0.40412 0.0
C882 C 0.42109 0.07747 0.39575 0.0
C883 C 0.35665 0.08106 0.38202 0.0
H884 H 0.35543 0.01911 0.41269 0.0
C885 C 0.27074 0.02487 0.39116 0.0
C886 C 0.27267 1.00011 0.38959 0.0
C887 C 0.29095 0.03925 0.39092 0.0
C888 C 0.3555 0.03619 0.40364 0.0
H889 H 0.41543 0.14455 0.40916 0.0
H890 H 0.37992 0.12077 0.40319 0.0
H891 H 0.39069 0.0434 0.41605 0.0
H892 H 0.29758 0.97125 0.38542 0.0
H893 H 0.33254 0.99619 0.38444 0.0
H894 H 0.32135 0.07381 0.36971 0.0
C895 C 0.39696 0.11224 0.40164 0.0
C896 C 0.37582 0.05019 0.4056 0.0
C897 C 0.41739 0.12592 0.40505 0.0
C898 C 0.29531 0.99021 0.3868 0.0
C899 C 0.31547 1.00456 0.38648 0.0
C900 C 0.3363 0.067 0.38 0.0
C901 C 0.3985 0.08775 0.39723 0.0
C902 C 0.37674 0.07284 0.39483 0.0
C903 C 0.31367 0.02926 0.38906 0.0
C904 C 0.33542 0.04432 0.39077 0.0
H905 H 0.4585 0.08252 0.39775 0.0
H906 H 0.42306 0.05879 0.39188 0.0
H907 H 0.35675 0.09827 0.37323 0.0
H908 H 0.25365 0.03317 0.3935 0.0
H909 H 0.28878 0.05814 0.39314 0.0
C910 C 0.43754 0.43488 0.40349 0.0
C911 C 0.41315 0.43414 0.40836 0.0
C912 C 0.45039 0.41404 0.39949 0.0
C913 C 0.44838 0.34901 0.41038 0.0
H914 H 0.50037 0.34873 0.36359 0.0
C915 C 0.5052 0.26475 0.39112 0.0
C916 C 0.52975 0.26854 0.3907 0.0
C917 C 0.48946 0.284 0.39103 0.0
C918 C 0.48598 0.3485 0.37683 0.0
H919 H 0.38315 0.41061 0.41219 0.0
H920 H 0.40548 0.37435 0.40507 0.0
H921 H 0.47601 0.38397 0.36782 0.0
H922 H 0.55685 0.29562 0.38912 0.0
H923 H 0.5297 0.32876 0.38884 0.0
H924 H 0.45857 0.31351 0.41946 0.0
C925 C 0.4148 0.39106 0.40479 0.0
C926 C 0.47201 0.36879 0.37933 0.0
C927 C 0.40195 0.41192 0.40885 0.0
C928 C 0.53808 0.29194 0.38945 0.0
C929 C 0.52245 0.31105 0.38914 0.0
C930 C 0.46235 0.32864 0.40781 0.0
C931 C 0.43925 0.39178 0.40015 0.0
C932 C 0.45322 0.36953 0.39642 0.0
C933 C 0.49792 0.30744 0.3902 0.0
C934 C 0.48159 0.32824 0.39129 0.0
H935 H 0.44691 0.45156 0.4034 0.0
H936 H 0.46923 0.41541 0.39645 0.0
H937 H 0.43426 0.34889 0.42393 0.0
H938 H 0.49817 0.24698 0.39223 0.0
H939 H 0.47068 0.28055 0.39168 0.0
C940 C 0.10634 0.43342 0.4056 0.0
C941 C 0.10783 0.40889 0.40956 0.0
C942 C 0.12668 0.44691 0.40136 0.0
C943 C 0.19176 0.44615 0.41055 0.0
H944 H 0.18984 0.49964 0.36561 0.0
C945 C 0.27424 0.50497 0.39137 0.0
C946 C 0.27015 0.52949 0.39171 0.0
C947 C 0.25524 0.48898 0.3912 0.0
C948 C 0.19067 0.48485 0.37834 0.0
H949 H 0.1321 0.3793 0.41143 0.0
H950 H 0.16752 0.40277 0.40389 0.0
H951 H 0.1553 0.47429 0.36974 0.0
H952 H 0.24278 0.55633 0.39145 0.0
H953 H 0.20999 0.5287 0.39113 0.0
H954 H 0.22713 0.4569 0.41926 0.0
C955 C 0.15062 0.41169 0.40451 0.0
C956 C 0.1708 0.4703 0.38076 0.0
C957 C 0.13026 0.39819 0.40881 0.0
C958 C 0.24667 0.53759 0.39119 0.0
C959 C 0.22778 0.52169 0.39085 0.0
C960 C 0.21169 0.46069 0.40806 0.0
C961 C 0.14915 0.43628 0.40088 0.0
C962 C 0.1709 0.45093 0.39717 0.0
C963 C 0.23174 0.49716 0.39112 0.0
C964 C 0.2113 0.48045 0.3922 0.0
H965 H 0.08947 0.44238 0.40647 0.0
H966 H 0.12479 0.46583 0.3991 0.0
H967 H 0.19249 0.4316 0.42359 0.0
H968 H 0.29209 0.49811 0.39184 0.0
H969 H 0.25896 0.47021 0.3912 0.0
C970 C 0.09674 0.09917 0.40666 0.0
C971 C 0.12152 0.10105 0.40689 0.0
C972 C 0.0825 0.1192 0.40333 0.0
C973 C 0.08386 0.18473 0.40899 0.0
H974 H 0.02536 0.18134 0.37171 0.0
C975 C 0.02669 0.26802 0.39162 0.0
C976 C 1.00212 0.26553 0.39441 0.0
C977 C 0.04145 0.24812 0.39093 0.0
C978 C 0.04154 0.18258 0.38237 0.0
H979 H 0.15062 0.12566 0.40288 0.0
H980 H 0.12588 0.16047 0.397 0.0
H981 H 0.0506 0.14652 0.37473 0.0
H982 H 0.97387 0.23986 0.398 0.0
H983 H 0.99951 0.20533 0.39688 0.0
H984 H 0.07474 0.2207 0.41682 0.0
C985 C 0.11739 0.14354 0.39989 0.0
C986 C 0.05604 0.16255 0.38412 0.0
C987 C 0.13163 0.12352 0.40324 0.0
C988 C 0.99266 0.24255 0.3957 0.0
C989 C 1.00742 0.22266 0.39498 0.0
C990 C 0.06937 0.20474 0.40723 0.0
C991 C 0.0926 0.14173 0.4001 0.0
C992 C 0.07738 0.16328 0.39757 0.0
C993 C 0.03207 0.22515 0.39299 0.0
C994 C 0.04793 0.20396 0.39399 0.0
H995 H 0.08826 0.08228 0.40978 0.0
H996 H 0.06351 0.11707 0.40398 0.0
H997 H 0.0999 0.18595 0.41988 0.0
H998 H 0.03467 0.28539 0.39055 0.0
H999 H 0.06028 0.25078 0.38895 0.0
C1000 C 0.92451 0.91035 0.11374 0.0
C1001 C 0.947 0.92043 0.11039 0.0
C1002 C 0.90459 0.92462 0.11738 0.0
C1003 C 0.88551 0.98564 0.13456 0.0
H1004 H 0.82771 0.96732 0.1011 0.0
C1005 C 0.80353 0.0476 0.12681 0.0
C1006 C 0.78098 0.03718 0.12778 0.0
C1007 C 0.82397 0.03355 0.12649 0.0
C1008 C 0.84356 0.97259 0.1109 0.0
H1009 H 0.96595 0.95369 0.10848 0.0
H1010 H 0.93127 0.97853 0.11479 0.0
H1011 H 0.86266 0.94266 0.09721 0.0
H1012 H 0.76249 1.00367 0.13012 0.0
H1013 H 0.79791 0.97937 0.13 0.0
H1014 H 0.86634 1.01571 0.14809 0.0
C1015 C 0.92907 0.95952 0.11493 0.0
C1016 C 0.8637 0.95838 0.10866 0.0
C1017 C 0.94902 0.94523 0.1113 0.0
C1018 C 0.77948 1.01239 0.12923 0.0
C1019 C 0.79987 0.99838 0.12895 0.0
C1020 C 0.86532 0.99988 0.13681 0.0
C1021 C 0.9065 0.94943 0.11776 0.0
C1022 C 0.88499 0.96465 0.12046 0.0
C1023 C 0.82241 1.0087 0.12713 0.0
C1024 C 0.84402 0.99354 0.12504 0.0
H1025 H 0.92227 0.89134 0.11362 0.0
H1026 H 0.88764 0.91614 0.11999 0.0
H1027 H 0.90146 0.99094 0.14418 0.0
H1028 H 0.80543 0.0666 0.12552 0.0
H1029 H 0.84096 0.04218 0.12488 0.0
C1030 C 0.49963 0.78952 0.13556 0.0
C1031 C 0.50989 0.76721 0.13134 0.0
C1032 C 0.51318 0.81022 0.13419 0.0
C1033 C 0.57512 0.83312 0.13325 0.0
H1034 H 0.54601 0.88738 0.10171 0.0
C1035 C 0.62234 0.92431 0.12781 0.0
C1036 C 0.61988 0.93747 0.10573 0.0
C1037 C 0.60882 0.90389 0.13193 0.0
C1038 C 0.55454 0.87239 0.11041 0.0
H1039 H 0.54283 0.7494 0.12297 0.0
H1040 H 0.56638 0.78543 0.12045 0.0
H1041 H 0.52339 0.8512 0.10714 0.0
H1042 H 0.6006 0.93939 0.07092 0.0
H1043 H 0.57748 0.90372 0.07784 0.0
H1044 H 0.6065 0.85416 0.13587 0.0
C1045 C 0.54785 0.78694 0.1251 0.0
C1046 C 0.5414 0.85164 0.11386 0.0
C1047 C 0.53429 0.76619 0.12651 0.0
C1048 C 0.60325 0.92969 0.08804 0.0
C1049 C 0.58973 0.90928 0.09216 0.0
C1050 C 0.58828 0.85391 0.12981 0.0
C1051 C 0.53742 0.80933 0.12849 0.0
C1052 C 0.55147 0.83164 0.1253 0.0
C1053 C 0.59238 0.89596 0.11411 0.0
C1054 C 0.57822 0.87386 0.11825 0.0
H1055 H 0.48094 0.79111 0.1394 0.0
H1056 H 0.50453 0.82701 0.13745 0.0
H1057 H 0.5835 0.81824 0.14233 0.0
H1058 H 0.63512 0.92948 0.14178 0.0
H1059 H 0.61122 0.89436 0.1492 0.0
C1060 C 0.63531 0.63317 0.10824 0.0
C1061 C 0.61289 0.62243 0.10842 0.0
C1062 C 0.65584 0.6198 0.11213 0.0
C1063 C 0.67681 0.56157 0.13645 0.0
H1064 H 0.73253 0.575 0.09711 0.0
C1065 C 0.7532 0.49484 0.12615 0.0
C1066 C 0.77662 0.50312 0.1254 0.0
C1067 C 0.73417 0.51058 0.12641 0.0
C1068 C 0.71726 0.57121 0.10853 0.0
H1069 H 0.59474 0.58894 0.11267 0.0
H1070 H 0.63035 0.56568 0.11927 0.0
H1071 H 0.6976 0.59992 0.09283 0.0
H1072 H 0.79828 0.53467 0.1247 0.0
H1073 H 0.76489 0.56231 0.12516 0.0
H1074 H 0.69631 0.53259 0.15177 0.0
C1075 C 0.63212 0.58457 0.11662 0.0
C1076 C 0.69716 0.58553 0.10608 0.0
C1077 C 0.61161 0.59794 0.11281 0.0
C1078 C 0.7805 0.52768 0.1254 0.0
C1079 C 0.76135 0.54351 0.12545 0.0
C1080 C 0.69685 0.54723 0.13883 0.0
C1081 C 0.65458 0.59525 0.11627 0.0
C1082 C 0.67651 0.58075 0.11978 0.0
C1083 C 0.7379 0.53513 0.12579 0.0
C1084 C 0.71727 0.55164 0.12468 0.0
H1085 H 0.63702 0.65203 0.10528 0.0
H1086 H 0.67272 0.62879 0.11212 0.0
H1087 H 0.66151 0.55758 0.14775 0.0
H1088 H 0.74946 0.47606 0.12615 0.0
H1089 H 0.71644 0.5034 0.12635 0.0
C1090 C 1.01192 0.76976 0.12367 0.0
C1091 C 0.0364 0.76624 0.12109 0.0
C1092 C 0.99626 0.75039 0.12305 0.0
C1093 C 0.99301 0.68923 0.09867 0.0
H1094 H 0.93973 0.68113 0.143 0.0
C1095 C 0.92543 0.61425 0.08368 0.0
C1096 C 0.918 0.60143 0.10469 0.0
C1097 C 0.93838 0.63519 0.08624 0.0
C1098 C 0.95459 0.68309 0.13054 0.0
H1099 H 0.0635 0.73934 0.11696 0.0
H1100 H 0.03653 0.70616 0.11597 0.0
H1101 H 0.96501 0.71616 0.14701 0.0
H1102 H 0.91812 0.60115 0.14501 0.0
H1103 H 0.94098 0.63764 0.14947 0.0
H1104 H 0.98301 0.65623 0.08237 0.0
C1105 C 0.02927 0.72377 0.11803 0.0
C1106 C 0.96894 0.7033 0.13268 0.0
C1107 C 0.04479 0.74292 0.11874 0.0
C1108 C 0.92369 0.61039 0.1284 0.0
C1109 C 0.93659 0.63148 0.13096 0.0
C1110 C 0.97865 0.66923 0.09641 0.0
C1111 C 1.00477 0.72719 0.11967 0.0
C1112 C 0.98851 0.70648 0.11692 0.0
C1113 C 0.94433 0.64404 0.1099 0.0
C1114 C 0.95929 0.66577 0.11236 0.0
H1115 H 1.00482 0.78744 0.12548 0.0
H1116 H 0.97747 0.75366 0.12436 0.0
H1117 H 1.00773 0.69119 0.086 0.0
H1118 H 0.92168 0.60785 0.06512 0.0
H1119 H 0.94378 0.64447 0.06958 0.0
C1120 C 0.77251 1.00306 0.62221 0.0
C1121 C 0.7697 0.02706 0.62843 0.0
C1122 C 0.75295 0.98787 0.62113 0.0
C1123 C 0.68997 0.98191 0.64045 0.0
H1124 H 0.68584 0.93941 0.58406 0.0
C1125 C 0.60262 0.93502 0.61315 0.0
C1126 C 0.60374 0.91192 0.60348 0.0
C1127 C 0.62326 0.94802 0.61766 0.0
C1128 C 0.68679 0.95089 0.60015 0.0
H1129 H 0.74394 0.0536 0.63906 0.0
H1130 H 0.71007 0.02725 0.63719 0.0
H1131 H 0.72112 0.96341 0.58989 0.0
H1132 H 0.62773 0.88423 0.59175 0.0
H1133 H 0.66364 0.90675 0.59977 0.0
H1134 H 0.65559 0.9695 0.65064 0.0
C1135 C 0.72739 0.02005 0.63331 0.0
C1136 C 0.7071 0.96469 0.6035 0.0
C1137 C 0.7469 0.03524 0.6343 0.0
C1138 C 0.62613 0.90208 0.59881 0.0
C1139 C 0.64677 0.91505 0.60339 0.0
C1140 C 0.66968 0.96806 0.63713 0.0
C1141 C 0.73006 0.99623 0.62634 0.0
C1142 C 0.70892 0.98055 0.62359 0.0
C1143 C 0.64566 0.93829 0.61272 0.0
C1144 C 0.66769 0.95247 0.61681 0.0
H1145 H 0.78975 0.9961 0.6175 0.0
H1146 H 0.75574 0.96956 0.61601 0.0
H1147 H 0.69085 0.99364 0.65634 0.0
H1148 H 0.58573 0.94333 0.61664 0.0
H1149 H 0.62159 0.96595 0.62446 0.0
C1150 C 0.60586 0.60669 0.58389 0.0
C1151 C 0.62257 0.60081 0.60226 0.0
C1152 C 0.59246 0.62751 0.58575 0.0
C1153 C 0.59 0.6859 0.61854 0.0
H1154 H 0.52412 0.68403 0.59925 0.0
C1155 C 0.53096 0.77012 0.61689 0.0
C1156 C 0.50701 0.76772 0.62336 0.0
C1157 C 0.54554 0.75018 0.61456 0.0
C1158 C 0.54243 0.68488 0.60498 0.0
H1159 H 0.63876 0.613 0.63655 0.0
H1160 H 0.61511 0.64863 0.64012 0.0
H1161 H 0.54843 0.64889 0.59439 0.0
H1162 H 0.47995 0.74228 0.63323 0.0
H1163 H 0.50537 0.70778 0.62981 0.0
H1164 H 0.58381 0.72168 0.62982 0.0
C1165 C 0.61242 0.63734 0.6241 0.0
C1166 C 0.55652 0.66473 0.60181 0.0
C1167 C 0.62581 0.61662 0.62222 0.0
C1168 C 0.49825 0.74489 0.62813 0.0
C1169 C 0.51283 0.725 0.62591 0.0
C1170 C 0.57588 0.70604 0.62177 0.0
C1171 C 0.59539 0.64306 0.60601 0.0
C1172 C 0.58052 0.66487 0.60863 0.0
C1173 C 0.53662 0.72727 0.61872 0.0
C1174 C 0.55183 0.70582 0.61514 0.0
H1175 H 0.60273 0.59497 0.56831 0.0
H1176 H 0.57979 0.63139 0.57123 0.0
H1177 H 0.60844 0.6869 0.62373 0.0
H1178 H 0.53832 0.78736 0.61287 0.0
H1179 H 0.56365 0.75273 0.60875 0.0
C1180 C 0.92479 0.61401 0.58537 0.0
C1181 C 0.94157 0.61675 0.60451 0.0
C1182 C 0.90459 0.60008 0.58883 0.0
C1183 C 0.88065 0.55144 0.6277 0.0
H1184 H 0.82076 0.57084 0.59936 0.0
C1185 C 0.8009 0.48766 0.61919 0.0
C1186 C 0.778 0.49666 0.62291 0.0
C1187 C 0.82053 0.50271 0.61867 0.0
C1188 C 0.83726 0.56521 0.60763 0.0
H1189 H 0.94971 0.60703 0.64257 0.0
H1190 H 0.91462 0.58268 0.64853 0.0
H1191 H 0.85516 0.59648 0.59537 0.0
H1192 H 0.75804 0.52878 0.6294 0.0
H1193 H 0.79231 0.55502 0.62871 0.0
H1194 H 0.86271 0.52025 0.64011 0.0
C1195 C 0.91726 0.59113 0.63068 0.0
C1196 C 0.85712 0.57983 0.60507 0.0
C1197 C 0.93745 0.60512 0.62725 0.0
C1198 C 0.77536 0.52116 0.62652 0.0
C1199 C 0.79503 0.53626 0.62592 0.0
C1200 C 0.86081 0.53678 0.63019 0.0
C1201 C 0.90054 0.58836 0.6115 0.0
C1202 C 0.87915 0.5731 0.61493 0.0
C1203 C 0.8179 0.52727 0.62179 0.0
C1204 C 0.83885 0.54338 0.62006 0.0
H1205 H 0.92747 0.62225 0.56743 0.0
H1206 H 0.89239 0.59808 0.57346 0.0
H1207 H 0.8973 0.54551 0.63538 0.0
H1208 H 0.8037 0.46893 0.61621 0.0
H1209 H 0.83774 0.49511 0.61512 0.0
C1210 C 0.93927 0.9331 0.60659 0.0
C1211 C 0.91479 0.93255 0.60204 0.0
C1212 C 0.95196 0.91223 0.61095 0.0
C1213 C 0.94978 0.84704 0.60145 0.0
H1214 H 1.00121 0.84743 0.64901 0.0
C1215 C 1.00646 0.76286 0.62288 0.0
C1216 C 0.03096 0.76659 0.62481 0.0
C1217 C 0.99075 0.78215 0.62192 0.0
C1218 C 0.98704 0.84699 0.6355 0.0
H1219 H 0.88462 0.90919 0.59857 0.0
H1220 H 0.9067 0.87284 0.60648 0.0
H1221 H 0.97702 0.88262 0.64379 0.0
H1222 H 0.05794 0.79373 0.62767 0.0
H1223 H 0.0309 0.82685 0.62595 0.0
H1224 H 0.96006 0.8114 0.59301 0.0
C1225 C 0.91612 0.88948 0.60647 0.0
C1226 C 0.97313 0.86727 0.63247 0.0
C1227 C 0.90338 0.91042 0.6022 0.0
C1228 C 0.03922 0.79003 0.62623 0.0
C1229 C 0.02362 0.80916 0.62541 0.0
C1230 C 0.96374 0.82669 0.60449 0.0
C1231 C 0.94064 0.89006 0.61088 0.0
C1232 C 0.9545 0.86778 0.61513 0.0
C1233 C 0.99914 0.80562 0.62308 0.0
C1234 C 0.98284 0.82649 0.62128 0.0
H1235 H 0.9487 0.94974 0.60692 0.0
H1236 H 0.97082 0.91349 0.61396 0.0
H1237 H 0.93576 0.84674 0.58776 0.0
H1238 H 0.99946 0.74508 0.62163 0.0
H1239 H 0.97201 0.77867 0.62031 0.0
C1240 C 0.11952 0.10685 0.93862 0.0
C1241 C 0.111 0.11942 0.9179 0.0
C1242 C 0.14056 0.09385 0.93713 0.0
C1243 C 0.19485 0.0855 0.89833 0.0
H1244 H 0.19691 0.02471 0.93135 0.0
C1245 C 0.27926 0.0262 0.90048 0.0
C1246 C 0.27586 1.00159 0.89975 0.0
C1247 C 0.25985 0.04158 0.90233 0.0
C1248 C 0.19663 0.04154 0.92178 0.0
H1249 H 0.11874 0.12881 0.87963 0.0
H1250 H 0.15472 0.10564 0.87682 0.0
H1251 H 0.16215 0.04948 0.93561 0.0
H1252 H 0.24931 0.97397 0.89911 0.0
H1253 H 0.21577 1.00054 0.90154 0.0
H1254 H 0.22907 0.07709 0.88379 0.0
C1255 C 0.14535 0.10597 0.89436 0.0
C1256 C 0.17674 0.05598 0.92457 0.0
C1257 C 0.12442 0.11903 0.89587 0.0
C1258 C 0.25264 0.99281 0.89986 0.0
C1259 C 0.23334 1.0081 0.90151 0.0
C1260 C 0.21474 0.07098 0.89544 0.0
C1261 C 0.15367 0.09301 0.91489 0.0
C1262 C 0.17545 0.07812 0.91277 0.0
C1263 C 0.23662 0.03268 0.90336 0.0
C1264 C 0.21582 0.04867 0.90693 0.0
H1265 H 0.10968 0.1066 0.95586 0.0
H1266 H 0.14652 0.08442 0.95348 0.0
H1267 H 0.19473 0.10255 0.88922 0.0
H1268 H 0.29692 0.03355 0.90064 0.0
H1269 H 0.26314 0.06038 0.90383 0.0
C1270 C 0.44308 0.10142 0.89813 0.0
C1271 C 0.41941 0.1008 0.906 0.0
C1272 C 0.45467 0.12296 0.89436 0.0
C1273 C 0.45225 0.18625 0.91222 0.0
H1274 H 0.49954 0.19242 0.86058 0.0
C1275 C 0.50771 0.27214 0.89867 0.0
C1276 C 0.53213 0.26823 0.89632 0.0
C1277 C 0.49176 0.25316 0.89708 0.0
C1278 C 0.48642 0.19098 0.87514 0.0
H1279 H 0.38932 0.12264 0.91567 0.0
H1280 H 0.4094 0.16023 0.90859 0.0
H1281 H 0.47573 0.15662 0.86289 0.0
H1282 H 0.55879 0.24147 0.88954 0.0
H1283 H 0.53119 0.20874 0.88658 0.0
H1284 H 0.46325 0.22059 0.9246 0.0
C1285 C 0.4191 0.14399 0.90565 0.0
C1286 C 0.4728 0.17039 0.87652 0.0
C1287 C 0.40749 0.12239 0.90942 0.0
C1288 C 0.54011 0.24515 0.89149 0.0
C1289 C 0.52424 0.22634 0.88963 0.0
C1290 C 0.46585 0.20692 0.91076 0.0
C1291 C 0.44293 0.14458 0.89827 0.0
C1292 C 0.45586 0.16749 0.89541 0.0
C1293 C 0.49989 0.22998 0.89274 0.0
C1294 C 0.48346 0.20933 0.89252 0.0
H1295 H 0.45277 0.0852 0.895 0.0
H1296 H 0.47307 0.12262 0.88897 0.0
H1297 H 0.43957 0.18462 0.92717 0.0
H1298 H 0.501 0.28968 0.90251 0.0
H1299 H 0.47308 0.25658 0.89941 0.0
C1300 C 0.42957 0.41357 0.89451 0.0
C1301 C 0.44095 0.41415 0.9178 0.0
C1302 C 0.40932 0.42727 0.89006 0.0
C1303 C 0.37751 0.48028 0.91346 0.0
H1304 H 0.32439 0.4552 0.87637 0.0
C1305 C 0.29858 0.53965 0.88741 0.0
C1306 C 0.27577 0.5303 0.89072 0.0
C1307 C 0.31852 0.52507 0.88851 0.0
C1308 C 0.33902 0.46246 0.88686 0.0
H1309 H 0.43992 0.43008 0.95449 0.0
H1310 H 0.40468 0.45353 0.94688 0.0
H1311 H 0.35934 0.43062 0.88314 0.0
H1312 H 0.25621 0.49789 0.89693 0.0
H1313 H 0.29104 0.47245 0.8989 0.0
H1314 H 0.35718 0.51188 0.91766 0.0
C1315 C 0.41142 0.44261 0.93195 0.0
C1316 C 0.3592 0.44843 0.89053 0.0
C1317 C 0.43154 0.42888 0.93643 0.0
C1318 C 0.27344 0.50575 0.89418 0.0
C1319 C 0.29347 0.49112 0.89528 0.0
C1320 C 0.35746 0.4943 0.90971 0.0
C1321 C 0.40001 0.44207 0.9087 0.0
C1322 C 0.37868 0.4571 0.90403 0.0
C1323 C 0.31633 0.50067 0.893 0.0
C1324 C 0.33787 0.48561 0.89641 0.0
H1325 H 0.43617 0.40233 0.87977 0.0
H1326 H 0.40115 0.42652 0.87186 0.0
H1327 H 0.39222 0.48773 0.92369 0.0
H1328 H 0.30116 0.55842 0.88456 0.0
H1329 H 0.33576 0.53304 0.88613 0.0
C1330 C 0.09933 0.43873 0.90983 0.0
C1331 C 0.12406 0.43696 0.91159 0.0
C1332 C 0.08539 0.4187 0.90541 0.0
C1333 C 0.08633 0.35327 0.91075 0.0
H1334 H 0.03033 0.35693 0.86944 0.0
C1335 C 0.02984 0.27036 0.88929 0.0
C1336 C 1.00514 0.27296 0.89026 0.0
C1337 C 0.04471 0.29016 0.88975 0.0
C1338 C 0.04578 0.35561 0.88122 0.0
H1339 H 0.15342 0.41243 0.90978 0.0
H1340 H 0.12918 0.37759 0.90166 0.0
H1341 H 0.05556 0.39159 0.87419 0.0
H1342 H 0.97685 0.29876 0.8919 0.0
H1343 H 1.00272 0.33316 0.89277 0.0
H1344 H 0.07647 0.31738 0.91797 0.0
C1345 C 0.12051 0.3945 0.904 0.0
C1346 C 0.06029 0.37554 0.88396 0.0
C1347 C 0.13447 0.41457 0.90837 0.0
C1348 C 0.99575 0.29598 0.89097 0.0
C1349 C 1.01063 0.31579 0.89141 0.0
C1350 C 0.07183 0.33335 0.90801 0.0
C1351 C 0.09574 0.39624 0.90262 0.0
C1352 C 0.08071 0.37472 0.8989 0.0
C1353 C 0.03535 0.31317 0.89119 0.0
C1354 C 0.05126 0.33425 0.89331 0.0
H1355 H 0.09066 0.45568 0.91189 0.0
H1356 H 0.0664 0.42079 0.90472 0.0
H1357 H 0.10164 0.35199 0.92273 0.0
H1358 H 0.0378 0.25296 0.8887 0.0
H1359 H 0.06362 0.2874 0.88912 0.0
C1360 C 0.67602 0.36024 0.42527 0.0
C1361 C 0.65852 0.34663 0.43692 0.0
C1362 C 0.6916 0.37376 0.43937 0.0
C1363 C 0.72938 0.39392 0.47056 0.0
H1364 H 0.74829 0.3421 0.5131 0.0
C1365 C 0.82208 0.35925 0.46209 0.0
C1366 C 0.82127 0.33504 0.45612 0.0
C1367 C 0.8032 0.37007 0.47436 0.0
C1368 C 0.74334 0.35692 0.50147 0.0
H1369 H 0.64067 0.34042 0.47203 0.0
H1370 H 0.66835 0.36375 0.4968 0.0
H1371 H 0.70678 0.34964 0.50627 0.0
H1372 H 0.80092 0.30287 0.46023 0.0
H1373 H 0.76812 0.32147 0.48113 0.0
H1374 H 0.76592 0.39899 0.46291 0.0
C1375 C 0.67042 0.36336 0.47679 0.0
C1376 C 0.71938 0.36157 0.49783 0.0
C1377 C 0.65467 0.34986 0.46259 0.0
C1378 C 0.80217 0.32152 0.46458 0.0
C1379 C 0.78334 0.33228 0.47682 0.0
C1380 C 0.75333 0.38887 0.47365 0.0
C1381 C 0.69024 0.37382 0.46553 0.0
C1382 C 0.71225 0.37832 0.47999 0.0
C1383 C 0.78311 0.35689 0.48093 0.0
C1384 C 0.76036 0.36872 0.48709 0.0
H1385 H 0.67957 0.35845 0.40559 0.0
H1386 H 0.70644 0.38158 0.42975 0.0
H1387 H 0.72442 0.40785 0.45777 0.0
H1388 H 0.83688 0.37003 0.45637 0.0
H1389 H 0.80381 0.38897 0.47745 0.0
C1390 C 0.1774 0.67512 0.41717 0.0
C1391 C 0.19253 0.65944 0.42967 0.0
C1392 C 0.16203 0.68959 0.43052 0.0
C1393 C 0.13579 0.72454 0.46188 0.0
H1394 H 0.18833 0.75352 0.49635 0.0
C1395 C 0.17196 0.80943 0.43045 0.0
C1396 C 0.18996 0.82107 0.44358 0.0
C1397 C 0.15924 0.79116 0.44149 0.0
C1398 C 0.17287 0.74597 0.48758 0.0
H1399 H 0.20017 0.64364 0.46553 0.0
H1400 H 0.174 0.66965 0.48896 0.0
H1401 H 0.18665 0.71138 0.49276 0.0
H1402 H 0.20646 0.82463 0.47988 0.0
H1403 H 0.18365 0.79345 0.49939 0.0
H1404 H 0.12282 0.75952 0.45549 0.0
C1405 C 0.17419 0.67087 0.46885 0.0
C1406 C 0.17189 0.72144 0.48556 0.0
C1407 C 0.18942 0.65618 0.45543 0.0
C1408 C 0.19305 0.8158 0.46894 0.0
C1409 C 0.18004 0.79772 0.48015 0.0
C1410 C 0.13651 0.74914 0.46434 0.0
C1411 C 0.16169 0.68893 0.45667 0.0
C1412 C 0.15487 0.71076 0.47021 0.0
C1413 C 0.164 0.78415 0.46613 0.0
C1414 C 0.15658 0.76016 0.47461 0.0
H1415 H 0.1791 0.67814 0.39738 0.0
H1416 H 0.15271 0.70329 0.42044 0.0
H1417 H 0.12193 0.71665 0.45073 0.0
H1418 H 0.16831 0.81374 0.41121 0.0
H1419 H 0.14706 0.7814 0.42986 0.0
C1420 C 0.33004 0.6618 0.10128 0.0
C1421 C 0.32653 0.67607 0.1224 0.0
C1422 C 0.31148 0.64854 0.09131 0.0
C1423 C 0.24904 0.63069 0.10365 0.0
H1424 H 0.23922 0.64962 0.03525 0.0
C1425 C 0.1837 0.69321 0.05924 0.0
C1426 C 0.16595 0.68864 0.07676 0.0
C1427 C 0.20031 0.67586 0.05355 0.0
C1428 C 0.24161 0.64393 0.05431 0.0
H1429 H 0.30133 0.68643 0.15059 0.0
H1430 H 0.26898 0.66361 0.13335 0.0
H1431 H 0.27886 0.64964 0.05243 0.0
H1432 H 0.14836 0.66112 0.09765 0.0
H1433 H 0.17675 0.6304 0.08686 0.0
H1434 H 0.21192 0.62787 0.10683 0.0
C1435 C 0.28608 0.66228 0.12449 0.0
C1436 C 0.26449 0.64367 0.06412 0.0
C1437 C 0.30459 0.67558 0.13435 0.0
C1438 C 0.16248 0.6653 0.08481 0.0
C1439 C 0.17885 0.64775 0.07867 0.0
C1440 C 0.2262 0.63144 0.09405 0.0
C1441 C 0.2891 0.6491 0.10246 0.0
C1442 C 0.26801 0.63934 0.08961 0.0
C1443 C 0.19942 0.65359 0.0653 0.0
C1444 C 0.22202 0.64068 0.07009 0.0
H1445 H 0.34702 0.66129 0.09221 0.0
H1446 H 0.31444 0.63845 0.07449 0.0
H1447 H 0.25142 0.62609 0.12304 0.0
H1448 H 0.1866 0.71096 0.05232 0.0
H1449 H 0.21541 0.68126 0.04264 0.0
C1450 C 0.68381 0.36019 0.08925 0.0
C1451 C 0.70234 0.37105 0.07623 0.0
C1452 C 0.66813 0.34522 0.07697 0.0
C1453 C 0.67793 0.30278 0.02896 0.0
H1454 H 0.62537 0.27547 0.06487 0.0
C1455 C 0.67421 0.2286 0.09962 0.0
C1456 C 0.6875 0.21104 0.08761 0.0
C1457 C 0.66237 0.24576 0.08587 0.0
C1458 C 0.63979 0.28282 0.05415 0.0
H1459 H 0.71633 0.37792 0.03939 0.0
H1460 H 0.68896 0.35159 0.01792 0.0
H1461 H 0.62802 0.31828 0.06022 0.0
H1462 H 0.69614 0.19593 0.05162 0.0
H1463 H 0.67608 0.22666 0.02756 0.0
H1464 H 0.69088 0.26765 0.0248 0.0
C1465 C 0.68693 0.3542 0.03776 0.0
C1466 C 0.6413 0.30734 0.05143 0.0
C1467 C 0.70272 0.3692 0.05011 0.0
C1468 C 0.68684 0.20979 0.06145 0.0
C1469 C 0.67511 0.22715 0.04766 0.0
C1470 C 0.67634 0.27831 0.03152 0.0
C1471 C 0.67069 0.34057 0.05138 0.0
C1472 C 0.66189 0.31757 0.04151 0.0
C1473 C 0.66375 0.24598 0.05977 0.0
C1474 C 0.65865 0.2684 0.04654 0.0
H1475 H 0.6828 0.36117 0.10932 0.0
H1476 H 0.65592 0.33518 0.08828 0.0
H1477 H 0.69376 0.30985 0.02051 0.0
H1478 H 0.67427 0.23018 0.11968 0.0
H1479 H 0.65405 0.26013 0.09588 0.0
C1480 C 0.155 0.87194 0.64506 0.0
C1481 C 0.15663 0.85217 0.62937 0.0
C1482 C 0.17143 0.8903 0.64314 0.0
C1483 C 0.22061 0.90341 0.65627 0.0
H1484 H 0.26716 0.89865 0.6039 0.0
C1485 C 0.30416 0.85502 0.67198 0.0
C1486 C 0.32357 0.85712 0.65606 0.0
C1487 C 0.28468 0.86982 0.66909 0.0
C1488 C 0.25456 0.90089 0.61884 0.0
H1489 H 0.17422 0.83777 0.59698 0.0
H1490 H 0.20314 0.8686 0.59423 0.0
H1491 H 0.22577 0.90156 0.59321 0.0
H1492 H 0.33901 0.87771 0.62627 0.0
H1493 H 0.30494 0.90377 0.6212 0.0
H1494 H 0.24942 0.90272 0.68188 0.0
C1495 C 0.18935 0.87069 0.60794 0.0
C1496 C 0.23063 0.90222 0.61267 0.0
C1497 C 0.17267 0.85267 0.60955 0.0
C1498 C 0.3239 0.87538 0.63834 0.0
C1499 C 0.30447 0.89036 0.63555 0.0
C1500 C 0.24452 0.90286 0.66241 0.0
C1501 C 0.19026 0.88867 0.62611 0.0
C1502 C 0.21334 0.90048 0.63138 0.0
C1503 C 0.28426 0.88724 0.65034 0.0
C1504 C 0.2615 0.89885 0.64388 0.0
H1505 H 0.14225 0.8723 0.66006 0.0
H1506 H 0.17073 0.90447 0.65665 0.0
H1507 H 0.20813 0.90299 0.67147 0.0
H1508 H 0.30345 0.84107 0.68575 0.0
H1509 H 0.26936 0.86641 0.68055 0.0
C1510 C 0.87387 0.22256 0.66457 0.0
C1511 C 0.87343 0.19955 0.65488 0.0
C1512 C 0.88652 0.2403 0.65243 0.0
C1513 C 0.91781 0.27443 0.62252 0.0
H1514 H 0.87585 0.28221 0.56626 0.0
C1515 C 0.85585 0.34664 0.56935 0.0
C1516 C 0.85138 0.35887 0.59159 0.0
C1517 C 0.87384 0.32969 0.56828 0.0
C1518 C 0.88854 0.28052 0.58119 0.0
H1519 H 0.88768 0.17649 0.6264 0.0
H1520 H 0.90858 0.20795 0.60425 0.0
H1521 H 0.88125 0.24356 0.58412 0.0
H1522 H 0.8641 0.36529 0.62897 0.0
H1523 H 0.89427 0.33566 0.62772 0.0
H1524 H 0.92478 0.31143 0.62006 0.0
C1525 C 0.89966 0.21206 0.62153 0.0
C1526 C 0.89156 0.2581 0.59151 0.0
C1527 C 0.88757 0.19415 0.63414 0.0
C1528 C 0.86703 0.35609 0.61157 0.0
C1529 C 0.88462 0.33892 0.61071 0.0
C1530 C 0.91545 0.29675 0.61166 0.0
C1531 C 0.89848 0.23543 0.6301 0.0
C1532 C 0.90447 0.25537 0.61358 0.0
C1533 C 0.88714 0.32418 0.58971 0.0
C1534 C 0.8987 0.30054 0.59264 0.0
H1535 H 0.86326 0.22713 0.68062 0.0
H1536 H 0.8851 0.25828 0.65923 0.0
H1537 H 0.92828 0.27258 0.63927 0.0
H1538 H 0.84438 0.34894 0.5534 0.0
H1539 H 0.8759 0.31958 0.55133 0.0
C1540 C 0.81141 0.18042 0.93643 0.0
C1541 C 0.83134 0.19183 0.94617 0.0
C1542 C 0.79571 0.16878 0.95208 0.0
C1543 C 0.77376 0.17966 0.01387 0.0
H1544 H 0.72354 0.14612 0.98034 0.0
C1545 C 0.70236 0.2296 0.97863 0.0
C1546 C 0.68362 0.2195 0.96526 0.0
C1547 C 0.71643 0.21575 0.99403 0.0
C1548 C 0.73709 0.1551 0.99092 0.0
H1549 H 0.85209 0.19724 0.97964 0.0
H1550 H 0.82412 0.17754 1.00723 0.0
H1551 H 0.76399 0.13509 0.97271 0.0
H1552 H 0.66305 0.18752 0.96026 0.0
H1553 H 0.68763 0.16323 0.98728 0.0
H1554 H 0.74693 0.19975 0.03197 0.0
C1555 C 0.82047 0.17788 0.98747 0.0
C1556 C 0.7605 0.14886 0.98621 0.0
C1557 C 0.83634 0.18944 0.9717 0.0
C1558 C 0.67789 0.19568 0.96962 0.0
C1559 C 0.69192 0.18177 0.98529 0.0
C1560 C 0.75033 0.18514 0.01946 0.0
C1561 C 0.79934 0.16841 0.97801 0.0
C1562 C 0.7788 0.16367 0.99454 0.0
C1563 C 0.71229 0.19127 0.99648 0.0
C1564 C 0.73208 0.17566 1.00474 0.0
H1565 H 0.80695 0.18185 0.9169 0.0
H1566 H 0.7796 0.16208 0.94385 0.0
H1567 H 0.78742 0.19062 0.02195 0.0
H1568 H 0.70742 0.24785 0.97581 0.0
H1569 H 0.73187 0.2241 1.00198 0.0
C1570 C 0.18924 0.87209 0.96821 0.0
C1571 C 0.21374 0.87074 0.97187 0.0
C1572 C 0.17424 0.85606 0.98016 0.0
C1573 C 0.15896 0.80705 0.97323 0.0
H1574 H 0.19588 0.75934 1.0071 0.0
C1575 C 0.20297 0.73591 0.91945 0.0
C1576 C 0.20864 0.71382 0.9296 0.0
C1577 C 0.19134 0.7528 0.93369 0.0
C1578 C 0.18494 0.77224 0.99771 0.0
H1579 H 0.24104 0.85503 0.99491 0.0
H1580 H 0.21578 0.82714 0.01453 0.0
H1581 H 0.19187 0.79834 0.0254 0.0
H1582 H 0.20561 0.69173 0.96247 0.0
H1583 H 0.18584 0.72176 0.98774 0.0
H1584 H 0.15172 0.78077 0.94575 0.0
C1585 C 0.20747 0.8399 1.00242 0.0
C1586 C 0.18284 0.79484 1.00804 0.0
C1587 C 0.22234 0.85613 0.99092 0.0
C1588 C 0.20196 0.70882 0.95429 0.0
C1589 C 0.1905 0.72592 0.9687 0.0
C1590 C 0.16041 0.78436 0.9633 0.0
C1591 C 0.18377 0.8376 0.99468 0.0
C1592 C 0.17291 0.81339 0.99395 0.0
C1593 C 0.18512 0.74813 0.95854 0.0
C1594 C 0.17559 0.76763 0.97399 0.0
H1595 H 0.18189 0.88422 0.95471 0.0
H1596 H 0.15568 0.85646 0.97548 0.0
H1597 H 0.14959 0.82005 0.96232 0.0
H1598 H 0.20817 0.74048 0.90069 0.0
H1599 H 0.18817 0.76997 0.92546 0.0
C1600 C 0.65312 0.169 0.42692 0.0
C1601 C 0.63018 0.17083 0.43685 0.0
C1602 C 0.67106 0.15718 0.43998 0.0
C1603 C 0.68739 0.14004 0.50408 0.0
H1604 H 0.73381 0.09948 0.47266 0.0
C1605 C 0.7526 0.08806 0.56406 0.0
C1606 C 0.77628 0.0867 0.5565 0.0
C1607 C 0.73511 0.09602 0.54779 0.0
C1608 C 0.72114 0.11094 0.4817 0.0
H1609 H 0.60816 0.16092 0.46813 0.0
H1610 H 0.63926 0.14037 0.49071 0.0
H1611 H 0.70271 0.11782 0.4475 0.0
H1612 H 0.80013 0.09176 0.52559 0.0
H1613 H 0.76947 0.10625 0.49695 0.0
H1614 H 0.70578 0.13374 0.53809 0.0
C1615 C 0.6435 0.14831 0.47295 0.0
C1616 C 0.70327 0.12144 0.46726 0.0
C1617 C 0.62557 0.16001 0.45988 0.0
C1618 C 0.78196 0.09243 0.53181 0.0
C1619 C 0.76437 0.10078 0.51547 0.0
C1620 C 0.70523 0.12971 0.51841 0.0
C1621 C 0.6666 0.14702 0.46338 0.0
C1622 C 0.686 0.13595 0.47833 0.0
C1623 C 0.74078 0.10336 0.52353 0.0
C1624 C 0.72224 0.11475 0.50757 0.0
H1625 H 0.65737 0.1771 0.40924 0.0
H1626 H 0.68863 0.15668 0.43208 0.0
H1627 H 0.67483 0.15157 0.5132 0.0
H1628 H 0.74767 0.08353 0.58293 0.0
H1629 H 0.71713 0.09694 0.55453 0.0
C1630 C 0.41614 0.77836 0.54962 0.0
C1631 C 0.44007 0.78477 0.55172 0.0
C1632 C 0.40904 0.76028 0.5336 0.0
C1633 C 0.42504 0.72345 0.47968 0.0
H1634 H 0.38243 0.67863 0.51071 0.0
C1635 C 0.37123 0.6521 0.42528 0.0
C1636 C 0.36825 0.62984 0.43656 0.0
C1637 C 0.38263 0.67056 0.43794 0.0
C1638 C 0.39449 0.6908 0.50177 0.0
H1639 H 0.47513 0.77795 0.53735 0.0
H1640 H 0.46257 0.74624 0.50893 0.0
H1641 H 0.39712 0.71214 0.5345 0.0
H1642 H 0.37577 0.60946 0.46979 0.0
H1643 H 0.39555 0.64155 0.49175 0.0
H1644 H 0.42214 0.70201 0.4468 0.0
C1645 C 0.44938 0.75532 0.51992 0.0
C1646 C 0.40273 0.7102 0.51535 0.0
C1647 C 0.45657 0.77352 0.53614 0.0
C1648 C 0.37764 0.62633 0.4605 0.0
C1649 C 0.38889 0.64481 0.47318 0.0
C1650 C 0.41656 0.70407 0.46593 0.0
C1651 C 0.4256 0.74802 0.5191 0.0
C1652 C 0.41793 0.72691 0.50447 0.0
C1653 C 0.39119 0.66729 0.46226 0.0
C1654 C 0.4011 0.68753 0.47681 0.0
H1655 H 0.40282 0.7868 0.56102 0.0
H1656 H 0.39053 0.75552 0.533 0.0
H1657 H 0.43669 0.73602 0.47075 0.0
H1658 H 0.36427 0.65548 0.40686 0.0
H1659 H 0.38394 0.68766 0.42901 0.0
C1660 C 0.89802 0.38435 0.43521 0.0
C1661 C 0.91743 0.37498 0.44825 0.0
C1662 C 0.88047 0.39713 0.44762 0.0
C1663 C 0.85236 0.40125 0.50851 0.0
H1664 H 0.82199 0.45714 0.48145 0.0
C1665 C 0.75902 0.42771 0.53605 0.0
C1666 C 0.75625 0.45005 0.54722 0.0
C1667 C 0.77972 0.42187 0.52355 0.0
C1668 C 0.83048 0.4417 0.48932 0.0
H1669 H 0.93373 0.37207 0.48459 0.0
H1670 H 0.90279 0.39408 0.50639 0.0
H1671 H 0.85729 0.44092 0.46112 0.0
H1672 H 0.77247 0.48442 0.55216 0.0
H1673 H 0.80844 0.4745 0.52853 0.0
H1674 H 0.82508 0.40144 0.53609 0.0
C1675 C 0.90132 0.39165 0.48647 0.0
C1676 C 0.85055 0.43231 0.47764 0.0
C1677 C 0.91912 0.37918 0.47396 0.0
C1678 C 0.77388 0.4672 0.54347 0.0
C1679 C 0.79456 0.46144 0.53024 0.0
C1680 C 0.83217 0.41041 0.51994 0.0
C1681 C 0.88163 0.40053 0.47348 0.0
C1682 C 0.86157 0.41182 0.48695 0.0
C1683 C 0.79798 0.43836 0.52107 0.0
C1684 C 0.82083 0.43054 0.51028 0.0
H1685 H 0.8961 0.38138 0.41541 0.0
H1686 H 0.86544 0.40347 0.4371 0.0
H1687 H 0.8602 0.3853 0.516 0.0
H1688 H 0.7458 0.41405 0.53845 0.0
H1689 H 0.78187 0.40404 0.51665 0.0
C1690 C 0.12198 0.75496 0.54632 0.0
C1691 C 0.09793 0.75069 0.55101 0.0
C1692 C 0.12905 0.77341 0.53085 0.0
C1693 C 0.1108 0.8165 0.48312 0.0
H1694 H 0.15958 0.85505 0.51358 0.0
C1695 C 0.16064 0.89067 0.43018 0.0
C1696 C 0.16724 0.91125 0.44321 0.0
C1697 C 0.15015 0.87159 0.44246 0.0
C1698 C 0.14575 0.84472 0.50489 0.0
H1699 H 0.06237 0.76141 0.54156 0.0
H1700 H 0.0748 0.79363 0.51375 0.0
H1701 H 0.14519 0.82005 0.535 0.0
H1702 H 0.16745 0.92794 0.47946 0.0
H1703 H 0.14895 0.89463 0.50099 0.0
H1704 H 0.11141 0.84129 0.45296 0.0
C1705 C 0.08816 0.78265 0.52235 0.0
C1706 C 0.13769 0.82442 0.51705 0.0
C1707 C 0.08101 0.7641 0.5381 0.0
C1708 C 0.16249 0.91245 0.46882 0.0
C1709 C 0.1521 0.89323 0.48118 0.0
C1710 C 0.11898 0.83681 0.47084 0.0
C1711 C 0.11229 0.7881 0.51942 0.0
C1712 C 0.12023 0.80995 0.50629 0.0
C1713 C 0.14608 0.87239 0.46822 0.0
C1714 C 0.13661 0.8512 0.48156 0.0
H1715 H 0.13548 0.74481 0.55581 0.0
H1716 H 0.14775 0.77675 0.52858 0.0
H1717 H 0.09743 0.80569 0.47429 0.0
H1718 H 0.16411 0.88899 0.41045 0.0
H1719 H 0.14602 0.85586 0.43185 0.0
C1720 C 0.29663 0.93287 0.99742 0.0
C1721 C 0.29432 0.95081 0.97956 0.0
C1722 C 0.2774 0.92621 1.01219 0.0
C1723 C 0.23491 0.92059 0.04692 0.0
H1724 H 0.17849 0.90706 1.00866 0.0
C1725 C 0.16105 0.8615 0.08683 0.0
C1726 C 0.13743 0.86549 0.07992 0.0
C1727 C 0.17949 0.8739 0.07546 0.0
C1728 C 0.19387 0.91105 0.01984 0.0
H1729 H 0.27016 0.97605 0.96327 0.0
H1730 H 0.23631 0.96418 0.98884 0.0
H1731 H 0.21185 0.92661 0.9888 0.0
H1732 H 0.11479 0.88589 0.05557 0.0
H1733 H 0.14686 0.90824 0.03637 0.0
H1734 H 0.21712 0.90526 0.07799 0.0
C1735 C 0.25315 0.95555 0.99175 0.0
C1736 C 0.21306 0.92233 1.00838 0.0
C1737 C 0.27261 0.96263 0.9774 0.0
C1738 C 0.13276 0.88237 0.06138 0.0
C1739 C 0.15125 0.89507 0.05021 0.0
C1740 C 0.21567 0.90957 0.05845 0.0
C1741 C 0.25516 0.93683 1.00886 0.0
C1742 C 0.23395 0.92694 0.02169 0.0
C1743 C 0.17496 0.89101 0.05705 0.0
C1744 C 0.19495 0.9042 0.04501 0.0
H1745 H 0.31299 0.92306 0.99898 0.0
H1746 H 0.27954 0.91157 0.02495 0.0
H1747 H 0.25064 0.9241 0.05779 0.0
H1748 H 0.16543 0.84838 0.10074 0.0
H1749 H 0.1974 0.86964 0.08089 0.0
C1750 C 0.66066 0.14224 0.09602 0.0
C1751 C 0.66627 0.12123 0.08326 0.0
C1752 C 0.64835 0.16054 0.08423 0.0
C1753 C 0.63593 0.18351 0.02098 0.0
H1754 H 0.59492 0.22722 0.05599 0.0
C1755 C 0.6179 0.27617 0.98436 0.0
C1756 C 0.59429 0.2817 0.97865 0.0
C1757 C 0.62354 0.25634 0.99848 0.0
C1758 C 0.60612 0.21499 0.04595 0.0
H1759 H 0.66218 0.1027 0.04826 0.0
H1760 H 0.64021 0.13435 0.02781 0.0
H1761 H 0.60982 0.1919 0.07735 0.0
H1762 H 0.55794 0.27189 0.98572 0.0
H1763 H 0.56797 0.23797 1.01263 0.0
H1764 H 0.63244 0.20681 0.98978 0.0
C1765 C 0.64583 0.13693 0.04687 0.0
C1766 C 0.6149 0.19488 0.05821 0.0
C1767 C 0.65824 0.1186 0.05868 0.0
C1768 C 0.57629 0.26823 0.98983 0.0
C1769 C 0.58203 0.24871 1.00501 0.0
C1770 C 0.62731 0.20361 1.00887 0.0
C1771 C 0.64114 0.1584 0.0593 0.0
C1772 C 0.63017 0.17895 0.04596 0.0
C1773 C 0.60578 0.24212 1.00863 0.0
C1774 C 0.6126 0.21973 0.02126 0.0
H1775 H 0.66639 0.1449 0.11502 0.0
H1776 H 0.64536 0.17676 0.09444 0.0
H1777 H 0.64775 0.17195 1.01092 0.0
H1778 H 0.63226 0.28643 0.97665 0.0
H1779 H 0.64194 0.25168 1.00084 0.0
C1780 C 0.27682 0.57617 0.97744 0.0
C1781 C 0.25944 0.59215 0.96934 0.0
C1782 C 0.29555 0.58391 0.99265 0.0
C1783 C 0.32768 0.63955 1.00702 0.0
H1784 H 0.35908 0.60269 0.05793 0.0
C1785 C 0.39968 0.68024 0.06979 0.0
C1786 C 0.41902 0.66633 0.07683 0.0
C1787 C 0.38072 0.67037 0.05674 0.0
C1788 C 0.35072 0.6131 0.04351 0.0
H1789 H 0.24705 0.62827 0.97248 0.0
H1790 H 0.27888 0.64143 0.99953 0.0
H1791 H 0.32412 0.5867 0.03703 0.0
H1792 H 0.43397 0.6312 0.0757 0.0
H1793 H 0.40053 0.6136 0.05306 0.0
H1794 H 0.35413 0.66586 1.01323 0.0
C1795 C 0.27872 0.62316 0.99352 0.0
C1796 C 0.33058 0.60394 0.03158 0.0
C1797 C 0.26027 0.61553 0.9782 0.0
C1798 C 0.41921 0.64228 0.07042 0.0
C1799 C 0.39996 0.63222 0.05765 0.0
C1800 C 0.34771 0.64866 0.01888 0.0
C1801 C 0.29718 0.60776 1.00017 0.0
C1802 C 0.31865 0.61714 1.01326 0.0
C1803 C 0.38036 0.64614 0.05072 0.0
C1804 C 0.35949 0.63569 0.03744 0.0
H1805 H 0.27682 0.55811 0.97072 0.0
H1806 H 0.3094 0.5715 0.99734 0.0
H1807 H 0.31948 0.65005 0.99257 0.0
H1808 H 0.3992 0.69886 0.07446 0.0
H1809 H 0.36595 0.68168 0.05207 0.0
C1810 C 0.87271 0.37901 0.08929 0.0
C1811 C 0.87593 0.40271 0.08211 0.0
C1812 C 0.88453 0.36069 0.07698 0.0
C1813 C 0.93563 0.34575 0.03759 0.0
H1814 H 0.89629 0.29377 0.0156 0.0
C1815 C 0.96899 0.27245 0.96939 0.0
C1816 C 0.95791 0.25025 0.97008 0.0
C1817 C 0.96137 0.29081 0.98511 0.0
C1818 C 0.90782 0.30776 0.02201 0.0
H1819 H 0.89486 0.42564 0.05673 0.0
H1820 H 0.91589 0.39354 0.03551 0.0
H1821 H 0.87887 0.32603 0.03893 0.0
H1822 H 0.93128 0.22936 0.98864 0.0
H1823 H 0.91921 0.26047 0.01717 0.0
H1824 H 0.96473 0.32727 0.02108 0.0
C1825 C 0.90405 0.38924 0.05065 0.0
C1826 C 0.89767 0.32645 0.03529 0.0
C1827 C 0.89192 0.40762 0.06275 0.0
C1828 C 0.94023 0.24628 0.98784 0.0
C1829 C 0.93301 0.26435 1.00389 0.0
C1830 C 0.94593 0.3268 0.02459 0.0
C1831 C 0.90016 0.36551 0.05733 0.0
C1832 C 0.91139 0.3457 0.04326 0.0
C1833 C 0.94269 0.28725 1.00208 0.0
C1834 C 0.93217 0.30743 0.01659 0.0
H1835 H 0.86054 0.37446 0.10404 0.0
H1836 H 0.88129 0.34263 0.08275 0.0
H1837 H 0.94672 0.36028 0.04359 0.0
H1838 H 0.98227 0.27615 0.95544 0.0
H1839 H 0.96925 0.3081 0.98287 0.0
C1840 C 0.41443 0.8875 0.56346 0.0
C1841 C 0.40976 0.87041 0.58174 0.0
C1842 C 0.3959 0.90001 0.55212 0.0
C1843 C 0.33019 0.91133 0.55735 0.0
H1844 H 0.33718 0.93087 0.48869 0.0
C1845 C 0.253 0.92949 0.4887 0.0
C1846 C 0.25437 0.94986 0.47381 0.0
C1847 C 0.27155 0.92333 0.50464 0.0
C1848 C 0.33507 0.92579 0.50798 0.0
H1849 H 0.38198 0.85283 0.60204 0.0
H1850 H 0.34979 0.87318 0.58144 0.0
H1851 H 0.37035 0.91267 0.51017 0.0
H1852 H 0.27612 0.97995 0.4642 0.0
H1853 H 0.30898 0.96881 0.4917 0.0
H1854 H 0.29428 0.92321 0.55432 0.0
C1855 C 0.36765 0.87805 0.57655 0.0
C1856 C 0.35418 0.91538 0.52045 0.0
C1857 C 0.38618 0.86608 0.58831 0.0
C1858 C 0.27439 0.96441 0.47582 0.0
C1859 C 0.29328 0.9579 0.49132 0.0
C1860 C 0.31095 0.92125 0.54467 0.0
C1861 C 0.37212 0.89533 0.55827 0.0
C1862 C 0.35205 0.90774 0.54532 0.0
C1863 C 0.29222 0.93705 0.50557 0.0
C1864 C 0.31312 0.92846 0.5198 0.0
H1865 H 0.43244 0.89135 0.55806 0.0
H1866 H 0.40035 0.91341 0.53857 0.0
H1867 H 0.32776 0.9064 0.57662 0.0
H1868 H 0.2379 0.9178 0.48729 0.0
H1869 H 0.27027 0.9071 0.51524 0.0
C1870 C 0.67081 0.38089 0.58981 0.0
C1871 C 0.66835 0.40487 0.58328 0.0
C1872 C 0.65898 0.36322 0.57658 0.0
C1873 C 0.60857 0.34979 0.53642 0.0
H1874 H 0.64758 0.29776 0.51388 0.0
C1875 C 0.57421 0.27571 0.46985 0.0
C1876 C 0.58489 0.25335 0.47122 0.0
C1877 C 0.58217 0.29435 0.48495 0.0
C1878 C 0.63619 0.31179 0.52045 0.0
H1879 H 0.65066 0.42895 0.55805 0.0
H1880 H 0.62944 0.39785 0.5352 0.0
H1881 H 0.66537 0.33012 0.53691 0.0
H1882 H 0.61153 0.23263 0.48994 0.0
H1883 H 0.62424 0.26437 0.51756 0.0
H1884 H 0.57923 0.3312 0.52048 0.0
C1885 C 0.64078 0.39292 0.55057 0.0
C1886 C 0.64652 0.33051 0.53351 0.0
C1887 C 0.65294 0.41071 0.56366 0.0
C1888 C 0.60264 0.24957 0.48894 0.0
C1889 C 0.61029 0.268 0.50435 0.0
C1890 C 0.5981 0.33081 0.52364 0.0
C1891 C 0.64407 0.36894 0.55661 0.0
C1892 C 0.63286 0.34966 0.5418 0.0
C1893 C 0.60091 0.29097 0.50187 0.0
C1894 C 0.61174 0.31138 0.51563 0.0
H1895 H 0.68248 0.37556 0.60474 0.0
H1896 H 0.66168 0.34495 0.58188 0.0
H1897 H 0.59757 0.36427 0.54268 0.0
H1898 H 0.56106 0.27929 0.45569 0.0
H1899 H 0.57459 0.31171 0.48218 0.0
C1900 C 0.26668 0.57482 0.47693 0.0
C1901 C 0.28605 0.58964 0.47217 0.0
C1902 C 0.24876 0.58205 0.49333 0.0
C1903 C 0.20719 0.61387 0.51092 0.0
H1904 H 0.2191 0.63949 0.57657 0.0
C1905 C 0.13055 0.65174 0.57026 0.0
C1906 C 0.13531 0.67045 0.58672 0.0
C1907 C 0.14896 0.63974 0.55823 0.0
C1908 C 0.21536 0.63283 0.55812 0.0
H1909 H 0.30233 0.62312 0.48142 0.0
H1910 H 0.27178 0.63516 0.51094 0.0
H1911 H 0.25143 0.62221 0.55285 0.0
H1912 H 0.16322 0.69139 0.60321 0.0
H1913 H 0.19516 0.67146 0.58148 0.0
H1914 H 0.17164 0.62572 0.51512 0.0
C1915 C 0.27027 0.61809 0.50193 0.0
C1916 C 0.23397 0.62265 0.54464 0.0
C1917 C 0.28782 0.61115 0.48513 0.0
C1918 C 0.15894 0.67684 0.59091 0.0
C1919 C 0.17735 0.66521 0.57845 0.0
C1920 C 0.1887 0.62458 0.52409 0.0
C1921 C 0.25018 0.60398 0.50567 0.0
C1922 C 0.23012 0.61312 0.52085 0.0
C1923 C 0.17272 0.64645 0.56181 0.0
C1924 C 0.19243 0.63435 0.54794 0.0
H1925 H 0.26457 0.55845 0.4667 0.0
H1926 H 0.23347 0.57081 0.49586 0.0
H1927 H 0.20374 0.60695 0.49249 0.0
H1928 H 0.11254 0.64627 0.56673 0.0
H1929 H 0.14442 0.62512 0.54617 0.0
C1930 C 0.86 0.15086 0.58743 0.0
C1931 C 0.86523 0.12766 0.57979 0.0
C1932 C 0.871 0.17027 0.57623 0.0
C1933 C 0.92437 0.18863 0.54251 0.0
H1934 H 0.88569 0.24088 0.52004 0.0
C1935 C 0.96137 0.26349 0.4794 0.0
C1936 C 0.94978 0.2854 0.47895 0.0
C1937 C 0.95288 0.24502 0.49439 0.0
C1938 C 0.89701 0.22681 0.52665 0.0
H1939 H 0.88638 0.10668 0.55455 0.0
H1940 H 0.90645 0.14072 0.53562 0.0
H1941 H 0.86728 0.20726 0.54019 0.0
H1942 H 0.92131 0.30579 0.49497 0.0
H1943 H 0.90765 0.27451 0.52251 0.0
H1944 H 0.95421 0.20832 0.52958 0.0
C1945 C 0.89354 0.1438 0.55011 0.0
C1946 C 0.8863 0.20734 0.53806 0.0
C1947 C 0.88198 0.12432 0.56084 0.0
C1948 C 0.93062 0.28906 0.49503 0.0
C1949 C 0.92253 0.27088 0.51049 0.0
C1950 C 0.93519 0.20833 0.53145 0.0
C1951 C 0.88809 0.16702 0.55763 0.0
C1952 C 0.89978 0.18789 0.5459 0.0
C1953 C 0.93283 0.24819 0.50964 0.0
C1954 C 0.92167 0.2277 0.52307 0.0
H1955 H 0.8471 0.15408 0.60191 0.0
H1956 H 0.86637 0.18789 0.58243 0.0
H1957 H 0.9353 0.17407 0.5487 0.0
H1958 H 0.97586 0.26003 0.46677 0.0
H1959 H 0.96129 0.22792 0.49283 0.0
C1960 C 0.92074 0.15303 0.96163 0.0
C1961 C 0.9163 0.16231 0.93784 0.0
C1962 C 0.90279 0.1415 0.97499 0.0
C1963 C 0.85812 0.13349 1.00544 0.0
H1964 H 0.8096 0.09585 0.97334 0.0
C1965 C 0.76916 0.11482 0.05267 0.0
C1966 C 0.76026 0.09154 0.05258 0.0
C1967 C 0.78864 0.12108 0.03825 0.0
C1968 C 0.82313 0.10612 0.98263 0.0
H1969 H 0.88963 0.16564 0.90907 0.0
H1970 H 0.85856 0.14592 0.93225 0.0
H1971 H 0.84335 0.11006 0.94917 0.0
H1972 H 0.76471 0.05683 0.03623 0.0
H1973 H 0.79838 0.06823 1.00983 0.0
H1974 H 0.8378 0.12981 0.03877 0.0
C1975 C 0.87587 0.14733 0.94067 0.0
C1976 C 0.8424 0.1145 0.96873 0.0
C1977 C 0.89375 0.15886 0.92739 0.0
C1978 C 0.77097 0.07491 0.03671 0.0
C1979 C 0.79027 0.08144 0.02163 0.0
C1980 C 0.83883 0.12527 0.01924 0.0
C1981 C 0.87993 0.13885 0.96488 0.0
C1982 C 0.86011 0.12849 0.97989 0.0
C1983 C 0.79961 0.10455 0.02262 0.0
C1984 C 0.82093 0.11169 1.008 0.0
H1985 H 0.93783 0.15538 0.97033 0.0
H1986 H 0.90678 0.13489 0.99341 0.0
H1987 H 0.87106 0.14449 0.01471 0.0
H1988 H 0.76158 0.12827 0.06457 0.0
H1989 H 0.7952 0.13902 0.03944 0.0
C1990 C 0.38943 0.90995 0.96548 0.0
C1991 C 0.37989 0.90607 0.94167 0.0
C1992 C 0.40128 0.89182 0.97808 0.0
C1993 C 0.43001 0.8331 0.9709 0.0
H1994 H 0.4087 0.82358 0.03863 0.0
C1995 C 0.46753 0.76235 0.04122 0.0
C1996 C 0.45019 0.75025 0.05496 0.0
C1997 C 0.46116 0.78106 0.02533 0.0
C1998 C 0.41487 0.826 0.01974 0.0
H1999 H 0.37647 0.88031 0.91197 0.0
H2000 H 0.39723 0.84878 0.93392 0.0
H2001 H 0.39455 0.85756 0.01519 0.0
H2002 H 0.41242 0.74729 0.06127 0.0
H2003 H 0.40158 0.7796 0.03394 0.0
H2004 H 0.45014 0.80115 0.97561 0.0
C2005 C 0.39554 0.86586 0.94284 0.0
C2006 C 0.40694 0.84562 1.00637 0.0
C2007 C 0.38351 0.88394 0.93031 0.0
C2008 C 0.42635 0.75638 0.05133 0.0
C2009 C 0.42008 0.77501 0.0357 0.0
C2010 C 0.43822 0.81353 0.98446 0.0
C2011 C 0.40407 0.86939 0.96712 0.0
C2012 C 0.41414 0.84931 0.98168 0.0
C2013 C 0.43739 0.78804 0.02307 0.0
C2014 C 0.43038 0.80956 1.0089 0.0
H2015 H 0.38705 0.92675 0.97481 0.0
H2016 H 0.40789 0.89522 0.99664 0.0
H2017 H 0.436 0.83551 0.95195 0.0
H2018 H 0.48604 0.75814 0.04363 0.0
H2019 H 0.4749 0.79076 0.01575 0.0
C2020 C 0.79296 0.42516 0.03134 0.0
C2021 C 0.79222 0.44592 0.04566 0.0
C2022 C 0.77397 0.41886 0.01609 0.0
C2023 C 0.71025 0.42285 0.0138 0.0
H2024 H 0.71696 0.39866 0.94677 0.0
C2025 C 0.63039 0.38303 0.95976 0.0
C2026 C 0.63497 0.36428 0.9433 0.0
C2027 C 0.64904 0.39563 0.97079 0.0
C2028 C 0.71471 0.40497 0.96562 0.0
H2029 H 0.77111 0.4765 0.05512 0.0
H2030 H 0.73757 0.46531 0.02854 0.0
H2031 H 0.75079 0.41637 0.96761 0.0
H2032 H 0.66279 0.34359 0.92622 0.0
H2033 H 0.69497 0.36461 0.94603 0.0
H2034 H 0.67465 0.41024 1.01258 0.0
C2035 C 0.7531 0.45416 0.02884 0.0
C2036 C 0.73414 0.41538 0.97744 0.0
C2037 C 0.77241 0.46075 0.04372 0.0
C2038 C 0.65858 0.35823 0.93842 0.0
C2039 C 0.67714 0.37048 0.94975 0.0
C2040 C 0.69089 0.41199 1.00216 0.0
C2041 C 0.75351 0.43288 0.01527 0.0
C2042 C 0.73222 0.42419 1.00176 0.0
C2043 C 0.67275 0.38953 0.96599 0.0
C2044 C 0.69289 0.40255 0.97798 0.0
H2045 H 0.80778 0.41315 0.03296 0.0
H2046 H 0.77472 0.40226 1.00607 0.0
H2047 H 0.70832 0.42916 0.03271 0.0
H2048 H 0.6124 0.38813 0.96392 0.0
H2049 H 0.64478 0.41031 0.9829 0.0
C2050 C 0.11388 0.7828 0.02907 0.0
C2051 C 0.09241 0.78298 0.04206 0.0
C2052 C 0.11996 0.76369 0.01397 0.0
C2053 C 0.11111 0.70007 1.00777 0.0
H2054 H 0.14549 0.70899 0.94623 0.0
C2055 C 0.16895 0.62552 0.96503 0.0
C2056 C 0.17228 0.62491 0.93914 0.0
C2057 C 0.15653 0.64419 0.97622 0.0
C2058 C 0.1357 0.70591 0.96319 0.0
H2059 H 0.06024 0.76344 0.04906 0.0
H2060 H 0.07086 0.7299 0.02209 0.0
H2061 H 0.12717 0.74265 0.96643 0.0
H2062 H 0.16455 0.64317 0.90467 0.0
H2063 H 0.1421 0.67486 0.92381 0.0
H2064 H 0.11954 0.66329 1.00456 0.0
C2065 C 0.08289 0.7447 0.02363 0.0
C2066 C 0.12535 0.7254 0.97492 0.0
C2067 C 0.07662 0.76406 0.03869 0.0
C2068 C 0.16241 0.6431 0.92468 0.0
C2069 C 0.14967 0.66149 0.93578 0.0
C2070 C 0.1215 0.68049 0.99602 0.0
C2071 C 0.10491 0.74413 1.01148 0.0
C2072 C 0.11326 0.72284 0.99757 0.0
C2073 C 0.14676 0.66258 0.96178 0.0
C2074 C 0.13434 0.68315 0.97372 0.0
H2075 H 0.12664 0.79685 0.03175 0.0
H2076 H 0.13715 0.76358 1.00546 0.0
H2077 H 0.10208 0.69748 0.0253 0.0
H2078 H 0.17658 0.61197 0.97675 0.0
H2079 H 0.1552 0.64446 0.99629 0.0
loop_
_geom_bond_atom_site_label_1
_geom_bond_atom_site_label_2
_geom_bond_distance
_geom_bond_site_symmetry_2
_ccdc_geom_bond_type
Dy0 O3 2.307 . S
Dy0 O5 2.395 . S
Dy0 O6 2.379 . S
Dy0 O8 2.339 . S
Dy0 O10 2.298 . S
Dy0 O14 2.275 . S
Dy0 C22 2.738 . S
Dy1 O4 2.298 . S
Dy1 O7 2.275 . S
Dy1 O9 2.307 . S
Dy1 O11 2.395 . S
Dy1 O12 2.379 . S
Dy1 O15 2.339 . S
Dy1 C31 2.738 . S
C2 O14 1.254 . S
C2 O15 1.257 . S
O3 Dy0 2.307 . S
O3 C13 1.266 . S
O4 Dy1 2.298 . S
O4 C13 1.236 . S
O5 Dy0 2.395 . S
O5 C22 1.255 . S
O6 Dy0 2.379 . S
O6 C22 1.249 . S
O7 Dy1 2.275 . S
O7 C23 1.254 . S
O8 Dy0 2.339 . S
O8 C23 1.257 . S
O9 Dy1 2.307 . S
O9 C24 1.266 . S
O10 Dy0 2.298 . S
O10 C24 1.236 . S
O11 Dy1 2.395 . S
O11 C31 1.255 . S
O12 Dy1 2.379 . S
O12 C31 1.249 . S
C13 O3 1.266 . S
C13 O4 1.236 . S
O14 Dy0 2.275 . S
O14 C2 1.254 . S
O15 Dy1 2.339 . S
O15 C2 1.257 . S
C16 C19 1.344 . S
C16 C20 1.328 . S
C16 C22 1.516 . S
C17 C18 1.304 . S
C17 C21 1.323 . S
C18 C17 1.304 . S
C18 C19 1.371 . S
C18 H32 0.930 . S
C19 C16 1.344 . S
C19 C18 1.371 . S
C19 H33 0.931 . S
C20 C16 1.328 . S
C20 C21 1.433 . S
C20 H34 0.931 . S
C21 C17 1.323 . S
C21 C20 1.433 . S
C21 H35 0.933 . S
C22 Dy0 2.738 . S
C22 O5 1.255 . S
C22 O6 1.249 . S
C22 C16 1.516 . S
C23 O7 1.254 . S
C23 O8 1.257 . S
C24 O9 1.266 . S
C24 O10 1.236 . S
C25 C28 1.344 . S
C25 C29 1.328 . S
C25 C31 1.516 . S
C26 C27 1.304 . S
C26 C30 1.323 . S
C27 C26 1.304 . S
C27 C28 1.371 . S
C27 H36 0.930 . S
C28 C25 1.344 . S
C28 C27 1.371 . S
C28 H37 0.931 . S
C29 C25 1.328 . S
C29 C30 1.433 . S
C29 H38 0.931 . S
C30 C26 1.323 . S
C30 C29 1.433 . S
C30 H39 0.933 . S
C31 Dy1 2.738 . S
C31 O11 1.255 . S
C31 O12 1.249 . S
C31 C25 1.516 . S
H32 C18 0.930 . S
H33 C19 0.931 . S
H34 C20 0.931 . S
H35 C21 0.933 . S
H36 C27 0.930 . S
H37 C28 0.931 . S
H38 C29 0.931 . S
H39 C30 0.933 . S
Dy40 O43 2.307 . S
Dy40 O45 2.395 . S
Dy40 O46 2.379 . S
Dy40 O48 2.339 . S
Dy40 O50 2.298 . S
Dy40 O54 2.275 . S
Dy40 C62 2.738 . S
Dy41 O44 2.298 . S
Dy41 O47 2.275 . S
Dy41 O49 2.307 . S
Dy41 O51 2.395 . S
Dy41 O52 2.379 . S
Dy41 O55 2.339 . S
Dy41 C71 2.738 . S
C42 O54 1.254 . S
C42 O55 1.257 . S
O43 Dy40 2.307 . S
O43 C53 1.266 . S
O44 Dy41 2.298 . S
O44 C53 1.236 . S
O45 Dy40 2.395 . S
O45 C62 1.255 . S
O46 Dy40 2.379 . S
O46 C62 1.249 . S
O47 Dy41 2.275 . S
O47 C63 1.254 . S
O48 Dy40 2.339 . S
O48 C63 1.257 . S
O49 Dy41 2.307 . S
O49 C64 1.266 . S
O50 Dy40 2.298 . S
O50 C64 1.236 . S
O51 Dy41 2.395 . S
O51 C71 1.255 . S
O52 Dy41 2.379 . S
O52 C71 1.249 . S
C53 O43 1.266 . S
C53 O44 1.236 . S
O54 Dy40 2.275 . S
O54 C42 1.254 . S
O55 Dy41 2.339 . S
O55 C42 1.257 . S
C56 C59 1.344 . S
C56 C60 1.328 . S
C56 C62 1.516 . S
C57 C58 1.304 . S
C57 C61 1.323 . S
C58 C57 1.304 . S
C58 C59 1.371 . S
C58 H72 0.930 . S
C59 C56 1.344 . S
C59 C58 1.371 . S
C59 H73 0.931 . S
C60 C56 1.328 . S
C60 C61 1.433 . S
C60 H74 0.931 . S
C61 C57 1.323 . S
C61 C60 1.433 . S
C61 H75 0.933 . S
C62 Dy40 2.738 . S
C62 O45 1.255 . S
C62 O46 1.249 . S
C62 C56 1.516 . S
C63 O47 1.254 . S
C63 O48 1.257 . S
C64 O49 1.266 . S
C64 O50 1.236 . S
C65 C68 1.344 . S
C65 C69 1.328 . S
C65 C71 1.516 . S
C66 C67 1.304 . S
C66 C70 1.323 . S
C67 C66 1.304 . S
C67 C68 1.371 . S
C67 H76 0.930 . S
C68 C65 1.344 . S
C68 C67 1.371 . S
C68 H77 0.931 . S
C69 C65 1.328 . S
C69 C70 1.433 . S
C69 H78 0.931 . S
C70 C66 1.323 . S
C70 C69 1.433 . S
C70 H79 0.933 . S
C71 Dy41 2.738 . S
C71 O51 1.255 . S
C71 O52 1.249 . S
C71 C65 1.516 . S
H72 C58 0.930 . S
H73 C59 0.931 . S
H74 C60 0.931 . S
H75 C61 0.933 . S
H76 C67 0.930 . S
H77 C68 0.931 . S
H78 C69 0.931 . S
H79 C70 0.933 . S
Dy80 O83 2.307 . S
Dy80 O85 2.395 1_655 S
Dy80 O86 2.379 1_655 S
Dy80 O88 2.339 . S
Dy80 O90 2.298 . S
Dy80 O94 2.275 . S
Dy80 C102 2.738 1_655 S
Dy81 O84 2.298 . S
Dy81 O87 2.275 . S
Dy81 O89 2.307 . S
Dy81 O91 2.395 . S
Dy81 O92 2.379 . S
Dy81 O95 2.339 . S
Dy81 C111 2.738 . S
C82 O94 1.254 . S
C82 O95 1.257 . S
O83 Dy80 2.307 . S
O83 C93 1.266 . S
O84 Dy81 2.298 . S
O84 C93 1.236 . S
O85 Dy80 2.395 1_455 S
O85 C102 1.255 . S
O86 Dy80 2.379 1_455 S
O86 C102 1.249 . S
O87 Dy81 2.275 . S
O87 C103 1.254 . S
O88 Dy80 2.339 . S
O88 C103 1.257 . S
O89 Dy81 2.307 . S
O89 C104 1.266 . S
O90 Dy80 2.298 . S
O90 C104 1.236 . S
O91 Dy81 2.395 . S
O91 C111 1.255 . S
O92 Dy81 2.379 . S
O92 C111 1.249 . S
C93 O83 1.266 . S
C93 O84 1.236 . S
O94 Dy80 2.275 . S
O94 C82 1.254 . S
O95 Dy81 2.339 . S
O95 C82 1.257 . S
C96 C99 1.344 . S
C96 C100 1.328 . S
C96 C102 1.516 . S
C97 C98 1.304 . S
C97 C101 1.323 . S
C98 C97 1.304 . S
C98 C99 1.371 . S
C98 H112 0.930 . S
C99 C96 1.344 . S
C99 C98 1.371 . S
C99 H113 0.931 . S
C100 C96 1.328 . S
C100 C101 1.433 . S
C100 H114 0.931 . S
C101 C97 1.323 . S
C101 C100 1.433 . S
C101 H115 0.933 . S
C102 Dy80 2.738 1_455 S
C102 O85 1.255 . S
C102 O86 1.249 . S
C102 C96 1.516 . S
C103 O87 1.254 . S
C103 O88 1.257 . S
C104 O89 1.266 . S
C104 O90 1.236 . S
C105 C108 1.344 . S
C105 C109 1.328 . S
C105 C111 1.516 . S
C106 C107 1.304 . S
C106 C110 1.323 . S
C107 C106 1.304 . S
C107 C108 1.371 . S
C107 H116 0.930 . S
C108 C105 1.344 . S
C108 C107 1.371 . S
C108 H117 0.931 . S
C109 C105 1.328 . S
C109 C110 1.433 . S
C109 H118 0.931 . S
C110 C106 1.323 . S
C110 C109 1.433 . S
C110 H119 0.933 . S
C111 Dy81 2.738 . S
C111 O91 1.255 . S
C111 O92 1.249 . S
C111 C105 1.516 . S
H112 C98 0.930 . S
H113 C99 0.931 . S
H114 C100 0.931 . S
H115 C101 0.933 . S
H116 C107 0.930 . S
H117 C108 0.931 . S
H118 C109 0.931 . S
H119 C110 0.933 . S
Dy120 O123 2.307 . S
Dy120 O125 2.395 1_565 S
Dy120 O126 2.379 1_565 S
Dy120 O128 2.339 . S
Dy120 O130 2.298 . S
Dy120 O134 2.275 . S
Dy120 C142 2.738 1_565 S
Dy121 O124 2.298 . S
Dy121 O127 2.275 . S
Dy121 O129 2.307 . S
Dy121 O131 2.395 . S
Dy121 O132 2.379 . S
Dy121 O135 2.339 . S
Dy121 C151 2.738 . S
C122 O134 1.254 . S
C122 O135 1.257 . S
O123 Dy120 2.307 . S
O123 C133 1.266 . S
O124 Dy121 2.298 . S
O124 C133 1.236 . S
O125 Dy120 2.395 1_545 S
O125 C142 1.255 . S
O126 Dy120 2.379 1_545 S
O126 C142 1.249 . S
O127 Dy121 2.275 . S
O127 C143 1.254 . S
O128 Dy120 2.339 . S
O128 C143 1.257 . S
O129 Dy121 2.307 . S
O129 C144 1.266 . S
O130 Dy120 2.298 . S
O130 C144 1.236 . S
O131 Dy121 2.395 . S
O131 C151 1.255 . S
O132 Dy121 2.379 . S
O132 C151 1.249 . S
C133 O123 1.266 . S
C133 O124 1.236 . S
O134 Dy120 2.275 . S
O134 C122 1.254 . S
O135 Dy121 2.339 . S
O135 C122 1.257 . S
C136 C139 1.344 . S
C136 C140 1.328 . S
C136 C142 1.516 . S
C137 C138 1.304 . S
C137 C141 1.323 . S
C138 C137 1.304 . S
C138 C139 1.371 . S
C138 H152 0.930 . S
C139 C136 1.344 . S
C139 C138 1.371 . S
C139 H153 0.931 . S
C140 C136 1.328 . S
C140 C141 1.433 . S
C140 H154 0.931 . S
C141 C137 1.323 . S
C141 C140 1.433 . S
C141 H155 0.933 . S
C142 Dy120 2.738 1_545 S
C142 O125 1.255 . S
C142 O126 1.249 . S
C142 C136 1.516 . S
C143 O127 1.254 . S
C143 O128 1.257 . S
C144 O129 1.266 . S
C144 O130 1.236 . S
C145 C148 1.344 . S
C145 C149 1.328 . S
C145 C151 1.516 . S
C146 C147 1.304 . S
C146 C150 1.323 . S
C147 C146 1.304 . S
C147 C148 1.371 . S
C147 H156 0.930 . S
C148 C145 1.344 . S
C148 C147 1.371 . S
C148 H157 0.931 . S
C149 C145 1.328 . S
C149 C150 1.433 . S
C149 H158 0.931 . S
C150 C146 1.323 . S
C150 C149 1.433 . S
C150 H159 0.933 . S
C151 Dy121 2.738 . S
C151 O131 1.255 . S
C151 O132 1.249 . S
C151 C145 1.516 . S
H152 C138 0.930 . S
H153 C139 0.931 . S
H154 C140 0.931 . S
H155 C141 0.933 . S
H156 C147 0.930 . S
H157 C148 0.931 . S
H158 C149 0.931 . S
H159 C150 0.933 . S
Dy160 O163 2.307 . S
Dy160 O165 2.395 1_455 S
Dy160 O166 2.379 1_455 S
Dy160 O168 2.339 . S
Dy160 O170 2.298 . S
Dy160 O174 2.275 . S
Dy160 C182 2.738 1_455 S
Dy161 O164 2.298 . S
Dy161 O167 2.275 . S
Dy161 O169 2.307 . S
Dy161 O171 2.395 . S
Dy161 O172 2.379 . S
Dy161 O175 2.339 . S
Dy161 C191 2.738 . S
C162 O174 1.254 . S
C162 O175 1.257 . S
O163 Dy160 2.307 . S
O163 C173 1.266 . S
O164 Dy161 2.298 . S
O164 C173 1.236 . S
O165 Dy160 2.395 1_655 S
O165 C182 1.255 . S
O166 Dy160 2.379 1_655 S
O166 C182 1.249 . S
O167 Dy161 2.275 . S
O167 C183 1.254 . S
O168 Dy160 2.339 . S
O168 C183 1.257 . S
O169 Dy161 2.307 . S
O169 C184 1.266 . S
O170 Dy160 2.298 . S
O170 C184 1.236 . S
O171 Dy161 2.395 . S
O171 C191 1.255 . S
O172 Dy161 2.379 . S
O172 C191 1.249 . S
C173 O163 1.266 . S
C173 O164 1.236 . S
O174 Dy160 2.275 . S
O174 C162 1.254 . S
O175 Dy161 2.339 . S
O175 C162 1.257 . S
C176 C179 1.344 . S
C176 C180 1.328 . S
C176 C182 1.516 . S
C177 C178 1.304 . S
C177 C181 1.323 . S
C178 C177 1.304 . S
C178 C179 1.371 . S
C178 H192 0.930 . S
C179 C176 1.344 . S
C179 C178 1.371 . S
C179 H193 0.931 . S
C180 C176 1.328 . S
C180 C181 1.433 . S
C180 H194 0.931 . S
C181 C177 1.323 . S
C181 C180 1.433 . S
C181 H195 0.933 . S
C182 Dy160 2.738 1_655 S
C182 O165 1.255 . S
C182 O166 1.249 . S
C182 C176 1.516 . S
C183 O167 1.254 . S
C183 O168 1.257 . S
C184 O169 1.266 . S
C184 O170 1.236 . S
C185 C188 1.344 . S
C185 C189 1.328 . S
C185 C191 1.516 . S
C186 C187 1.304 . S
C186 C190 1.323 . S
C187 C186 1.304 . S
C187 C188 1.371 . S
C187 H196 0.930 . S
C188 C185 1.344 . S
C188 C187 1.371 . S
C188 H197 0.931 . S
C189 C185 1.328 . S
C189 C190 1.433 . S
C189 H198 0.931 . S
C190 C186 1.323 . S
C190 C189 1.433 . S
C190 H199 0.933 . S
C191 Dy161 2.738 . S
C191 O171 1.255 . S
C191 O172 1.249 . S
C191 C185 1.516 . S
H192 C178 0.930 . S
H193 C179 0.931 . S
H194 C180 0.931 . S
H195 C181 0.933 . S
H196 C187 0.930 . S
H197 C188 0.931 . S
H198 C189 0.931 . S
H199 C190 0.933 . S
Dy200 O203 2.307 . S
Dy200 O205 2.395 1_545 S
Dy200 O206 2.379 1_545 S
Dy200 O208 2.339 . S
Dy200 O210 2.298 . S
Dy200 O214 2.275 . S
Dy200 C222 2.738 1_545 S
Dy201 O204 2.298 . S
Dy201 O207 2.275 . S
Dy201 O209 2.307 . S
Dy201 O211 2.395 . S
Dy201 O212 2.379 . S
Dy201 O215 2.339 . S
Dy201 C231 2.738 . S
C202 O214 1.254 . S
C202 O215 1.257 . S
O203 Dy200 2.307 . S
O203 C213 1.266 . S
O204 Dy201 2.298 . S
O204 C213 1.236 . S
O205 Dy200 2.395 1_565 S
O205 C222 1.255 . S
O206 Dy200 2.379 1_565 S
O206 C222 1.249 . S
O207 Dy201 2.275 . S
O207 C223 1.254 . S
O208 Dy200 2.339 . S
O208 C223 1.257 . S
O209 Dy201 2.307 . S
O209 C224 1.266 . S
O210 Dy200 2.298 . S
O210 C224 1.236 . S
O211 Dy201 2.395 . S
O211 C231 1.255 . S
O212 Dy201 2.379 . S
O212 C231 1.249 . S
C213 O203 1.266 . S
C213 O204 1.236 . S
O214 Dy200 2.275 . S
O214 C202 1.254 . S
O215 Dy201 2.339 . S
O215 C202 1.257 . S
C216 C219 1.344 . S
C216 C220 1.328 . S
C216 C222 1.516 . S
C217 C218 1.304 . S
C217 C221 1.323 . S
C218 C217 1.304 . S
C218 C219 1.371 . S
C218 H232 0.930 . S
C219 C216 1.344 . S
C219 C218 1.371 . S
C219 H233 0.931 . S
C220 C216 1.328 . S
C220 C221 1.433 . S
C220 H234 0.931 . S
C221 C217 1.323 . S
C221 C220 1.433 . S
C221 H235 0.933 . S
C222 Dy200 2.738 1_565 S
C222 O205 1.255 . S
C222 O206 1.249 . S
C222 C216 1.516 . S
C223 O207 1.254 . S
C223 O208 1.257 . S
C224 O209 1.266 . S
C224 O210 1.236 . S
C225 C228 1.344 . S
C225 C229 1.328 . S
C225 C231 1.516 . S
C226 C227 1.304 . S
C226 C230 1.323 . S
C227 C226 1.304 . S
C227 C228 1.371 . S
C227 H236 0.930 . S
C228 C225 1.344 . S
C228 C227 1.371 . S
C228 H237 0.931 . S
C229 C225 1.328 . S
C229 C230 1.433 . S
C229 H238 0.931 . S
C230 C226 1.323 . S
C230 C229 1.433 . S
C230 H239 0.933 . S
C231 Dy201 2.738 . S
C231 O211 1.255 . S
C231 O212 1.249 . S
C231 C225 1.516 . S
H232 C218 0.930 . S
H233 C219 0.931 . S
H234 C220 0.931 . S
H235 C221 0.933 . S
H236 C227 0.930 . S
H237 C228 0.931 . S
H238 C229 0.931 . S
H239 C230 0.933 . S
Dy240 O243 2.307 . S
Dy240 O245 2.395 . S
Dy240 O246 2.379 . S
Dy240 O248 2.339 . S
Dy240 O250 2.298 . S
Dy240 O254 2.275 . S
Dy240 C262 2.738 . S
Dy241 O244 2.298 . S
Dy241 O247 2.275 . S
Dy241 O249 2.307 . S
Dy241 O251 2.395 . S
Dy241 O252 2.379 . S
Dy241 O255 2.339 . S
Dy241 C271 2.738 . S
C242 O254 1.254 . S
C242 O255 1.257 . S
O243 Dy240 2.307 . S
O243 C253 1.266 . S
O244 Dy241 2.298 . S
O244 C253 1.236 . S
O245 Dy240 2.395 . S
O245 C262 1.255 . S
O246 Dy240 2.379 . S
O246 C262 1.249 . S
O247 Dy241 2.275 . S
O247 C263 1.254 . S
O248 Dy240 2.339 . S
O248 C263 1.257 . S
O249 Dy241 2.307 . S
O249 C264 1.266 . S
O250 Dy240 2.298 . S
O250 C264 1.236 . S
O251 Dy241 2.395 . S
O251 C271 1.255 . S
O252 Dy241 2.379 . S
O252 C271 1.249 . S
C253 O243 1.266 . S
C253 O244 1.236 . S
O254 Dy240 2.275 . S
O254 C242 1.254 . S
O255 Dy241 2.339 . S
O255 C242 1.257 . S
C256 C259 1.344 . S
C256 C260 1.328 . S
C256 C262 1.516 . S
C257 C258 1.304 . S
C257 C261 1.323 . S
C258 C257 1.304 . S
C258 C259 1.371 . S
C258 H272 0.930 . S
C259 C256 1.344 . S
C259 C258 1.371 . S
C259 H273 0.931 . S
C260 C256 1.328 . S
C260 C261 1.433 . S
C260 H274 0.931 . S
C261 C257 1.323 . S
C261 C260 1.433 . S
C261 H275 0.933 . S
C262 Dy240 2.738 . S
C262 O245 1.255 . S
C262 O246 1.249 . S
C262 C256 1.516 . S
C263 O247 1.254 . S
C263 O248 1.257 . S
C264 O249 1.266 . S
C264 O250 1.236 . S
C265 C268 1.344 . S
C265 C269 1.328 . S
C265 C271 1.516 . S
C266 C267 1.304 . S
C266 C270 1.323 . S
C267 C266 1.304 . S
C267 C268 1.371 . S
C267 H276 0.930 . S
C268 C265 1.344 . S
C268 C267 1.371 . S
C268 H277 0.931 . S
C269 C265 1.328 . S
C269 C270 1.433 . S
C269 H278 0.931 . S
C270 C266 1.323 . S
C270 C269 1.433 . S
C270 H279 0.933 . S
C271 Dy241 2.738 . S
C271 O251 1.255 . S
C271 O252 1.249 . S
C271 C265 1.516 . S
H272 C258 0.930 . S
H273 C259 0.931 . S
H274 C260 0.931 . S
H275 C261 0.933 . S
H276 C267 0.930 . S
H277 C268 0.931 . S
H278 C269 0.931 . S
H279 C270 0.933 . S
Dy280 O283 2.307 . S
Dy280 O285 2.395 . S
Dy280 O286 2.379 . S
Dy280 O288 2.339 . S
Dy280 O290 2.298 . S
Dy280 O294 2.275 . S
Dy280 C302 2.738 . S
Dy281 O284 2.298 . S
Dy281 O287 2.275 . S
Dy281 O289 2.307 . S
Dy281 O291 2.395 . S
Dy281 O292 2.379 . S
Dy281 O295 2.339 . S
Dy281 C311 2.738 . S
C282 O294 1.254 . S
C282 O295 1.257 . S
O283 Dy280 2.307 . S
O283 C293 1.266 . S
O284 Dy281 2.298 . S
O284 C293 1.236 . S
O285 Dy280 2.395 . S
O285 C302 1.255 . S
O286 Dy280 2.379 . S
O286 C302 1.249 . S
O287 Dy281 2.275 . S
O287 C303 1.254 . S
O288 Dy280 2.339 . S
O288 C303 1.257 . S
O289 Dy281 2.307 . S
O289 C304 1.266 . S
O290 Dy280 2.298 . S
O290 C304 1.236 . S
O291 Dy281 2.395 . S
O291 C311 1.255 . S
O292 Dy281 2.379 . S
O292 C311 1.249 . S
C293 O283 1.266 . S
C293 O284 1.236 . S
O294 Dy280 2.275 . S
O294 C282 1.254 . S
O295 Dy281 2.339 . S
O295 C282 1.257 . S
C296 C299 1.344 . S
C296 C300 1.328 . S
C296 C302 1.516 . S
C297 C298 1.304 . S
C297 C301 1.323 . S
C298 C297 1.304 . S
C298 C299 1.371 . S
C298 H312 0.930 . S
C299 C296 1.344 . S
C299 C298 1.371 . S
C299 H313 0.931 . S
C300 C296 1.328 . S
C300 C301 1.433 . S
C300 H314 0.931 . S
C301 C297 1.323 . S
C301 C300 1.433 . S
C301 H315 0.933 . S
C302 Dy280 2.738 . S
C302 O285 1.255 . S
C302 O286 1.249 . S
C302 C296 1.516 . S
C303 O287 1.254 . S
C303 O288 1.257 . S
C304 O289 1.266 . S
C304 O290 1.236 . S
C305 C308 1.344 . S
C305 C309 1.328 . S
C305 C311 1.516 . S
C306 C307 1.304 . S
C306 C310 1.323 . S
C307 C306 1.304 . S
C307 C308 1.371 . S
C307 H316 0.930 . S
C308 C305 1.344 . S
C308 C307 1.371 . S
C308 H317 0.931 . S
C309 C305 1.328 . S
C309 C310 1.433 . S
C309 H318 0.931 . S
C310 C306 1.323 . S
C310 C309 1.433 . S
C310 H319 0.933 . S
C311 Dy281 2.738 . S
C311 O291 1.255 . S
C311 O292 1.249 . S
C311 C305 1.516 . S
H312 C298 0.930 . S
H313 C299 0.931 . S
H314 C300 0.931 . S
H315 C301 0.933 . S
H316 C307 0.930 . S
H317 C308 0.931 . S
H318 C309 0.931 . S
H319 C310 0.933 . S
Dy320 O323 2.307 . S
Dy320 O325 2.395 . S
Dy320 O326 2.379 . S
Dy320 O328 2.339 . S
Dy320 O330 2.298 . S
Dy320 O334 2.275 . S
Dy320 C342 2.738 . S
Dy321 O324 2.298 . S
Dy321 O327 2.275 . S
Dy321 O329 2.307 . S
Dy321 O331 2.395 . S
Dy321 O332 2.379 . S
Dy321 O335 2.339 . S
Dy321 C351 2.738 . S
C322 O334 1.254 . S
C322 O335 1.257 . S
O323 Dy320 2.307 . S
O323 C333 1.266 . S
O324 Dy321 2.298 . S
O324 C333 1.236 . S
O325 Dy320 2.395 . S
O325 C342 1.255 . S
O326 Dy320 2.379 . S
O326 C342 1.249 . S
O327 Dy321 2.275 . S
O327 C343 1.254 . S
O328 Dy320 2.339 . S
O328 C343 1.257 . S
O329 Dy321 2.307 . S
O329 C344 1.266 . S
O330 Dy320 2.298 . S
O330 C344 1.236 . S
O331 Dy321 2.395 . S
O331 C351 1.255 . S
O332 Dy321 2.379 . S
O332 C351 1.249 . S
C333 O323 1.266 . S
C333 O324 1.236 . S
O334 Dy320 2.275 . S
O334 C322 1.254 . S
O335 Dy321 2.339 . S
O335 C322 1.257 . S
C336 C339 1.344 . S
C336 C340 1.328 . S
C336 C342 1.516 . S
C337 C338 1.304 . S
C337 C341 1.323 . S
C338 C337 1.304 . S
C338 C339 1.371 . S
C338 H352 0.930 . S
C339 C336 1.344 . S
C339 C338 1.371 . S
C339 H353 0.931 . S
C340 C336 1.328 . S
C340 C341 1.433 . S
C340 H354 0.931 . S
C341 C337 1.323 . S
C341 C340 1.433 . S
C341 H355 0.933 . S
C342 Dy320 2.738 . S
C342 O325 1.255 . S
C342 O326 1.249 . S
C342 C336 1.516 . S
C343 O327 1.254 . S
C343 O328 1.257 . S
C344 O329 1.266 . S
C344 O330 1.236 . S
C345 C348 1.344 . S
C345 C349 1.328 . S
C345 C351 1.516 . S
C346 C347 1.304 . S
C346 C350 1.323 . S
C347 C346 1.304 . S
C347 C348 1.371 . S
C347 H356 0.930 . S
C348 C345 1.344 . S
C348 C347 1.371 . S
C348 H357 0.931 . S
C349 C345 1.328 . S
C349 C350 1.433 . S
C349 H358 0.931 . S
C350 C346 1.323 . S
C350 C349 1.433 . S
C350 H359 0.933 . S
C351 Dy321 2.738 . S
C351 O331 1.255 . S
C351 O332 1.249 . S
C351 C345 1.516 . S
H352 C338 0.930 . S
H353 C339 0.931 . S
H354 C340 0.931 . S
H355 C341 0.933 . S
H356 C347 0.930 . S
H357 C348 0.931 . S
H358 C349 0.931 . S
H359 C350 0.933 . S
Dy360 O363 2.307 . S
Dy360 O365 2.395 . S
Dy360 O366 2.379 . S
Dy360 O368 2.339 . S
Dy360 O370 2.298 . S
Dy360 O374 2.275 . S
Dy360 C382 2.738 . S
Dy361 O364 2.298 . S
Dy361 O367 2.275 . S
Dy361 O369 2.307 . S
Dy361 O371 2.395 . S
Dy361 O372 2.379 . S
Dy361 O375 2.339 . S
Dy361 C391 2.738 . S
C362 O374 1.254 . S
C362 O375 1.257 . S
O363 Dy360 2.307 . S
O363 C373 1.266 . S
O364 Dy361 2.298 . S
O364 C373 1.236 . S
O365 Dy360 2.395 . S
O365 C382 1.255 . S
O366 Dy360 2.379 . S
O366 C382 1.249 . S
O367 Dy361 2.275 . S
O367 C383 1.254 . S
O368 Dy360 2.339 . S
O368 C383 1.257 . S
O369 Dy361 2.307 . S
O369 C384 1.266 . S
O370 Dy360 2.298 . S
O370 C384 1.236 . S
O371 Dy361 2.395 . S
O371 C391 1.255 . S
O372 Dy361 2.379 . S
O372 C391 1.249 . S
C373 O363 1.266 . S
C373 O364 1.236 . S
O374 Dy360 2.275 . S
O374 C362 1.254 . S
O375 Dy361 2.339 . S
O375 C362 1.257 . S
C376 C379 1.344 . S
C376 C380 1.328 . S
C376 C382 1.516 . S
C377 C378 1.304 . S
C377 C381 1.323 . S
C378 C377 1.304 . S
C378 C379 1.371 . S
C378 H392 0.930 . S
C379 C376 1.344 . S
C379 C378 1.371 . S
C379 H393 0.931 . S
C380 C376 1.328 . S
C380 C381 1.433 . S
C380 H394 0.931 . S
C381 C377 1.323 . S
C381 C380 1.433 . S
C381 H395 0.933 . S
C382 Dy360 2.738 . S
C382 O365 1.255 . S
C382 O366 1.249 . S
C382 C376 1.516 . S
C383 O367 1.254 . S
C383 O368 1.257 . S
C384 O369 1.266 . S
C384 O370 1.236 . S
C385 C388 1.344 . S
C385 C389 1.328 . S
C385 C391 1.516 . S
C386 C387 1.304 . S
C386 C390 1.323 . S
C387 C386 1.304 . S
C387 C388 1.371 . S
C387 H396 0.930 . S
C388 C385 1.344 . S
C388 C387 1.371 . S
C388 H397 0.931 . S
C389 C385 1.328 . S
C389 C390 1.433 . S
C389 H398 0.931 . S
C390 C386 1.323 . S
C390 C389 1.433 . S
C390 H399 0.933 . S
C391 Dy361 2.738 . S
C391 O371 1.255 . S
C391 O372 1.249 . S
C391 C385 1.516 . S
H392 C378 0.930 . S
H393 C379 0.931 . S
H394 C380 0.931 . S
H395 C381 0.933 . S
H396 C387 0.930 . S
H397 C388 0.931 . S
H398 C389 0.931 . S
H399 C390 0.933 . S
Dy400 O403 2.307 . S
Dy400 O405 2.395 . S
Dy400 O406 2.379 . S
Dy400 O408 2.339 . S
Dy400 O410 2.298 . S
Dy400 O414 2.275 . S
Dy400 C422 2.738 . S
Dy401 O404 2.298 . S
Dy401 O407 2.275 . S
Dy401 O409 2.307 . S
Dy401 O411 2.395 1_455 S
Dy401 O412 2.379 1_455 S
Dy401 O415 2.339 . S
Dy401 C431 2.738 1_455 S
C402 O414 1.254 . S
C402 O415 1.257 . S
O403 Dy400 2.307 . S
O403 C413 1.266 . S
O404 Dy401 2.298 . S
O404 C413 1.236 . S
O405 Dy400 2.395 . S
O405 C422 1.255 . S
O406 Dy400 2.379 . S
O406 C422 1.249 . S
O407 Dy401 2.275 . S
O407 C423 1.254 . S
O408 Dy400 2.339 . S
O408 C423 1.257 . S
O409 Dy401 2.307 . S
O409 C424 1.266 . S
O410 Dy400 2.298 . S
O410 C424 1.236 . S
O411 Dy401 2.395 1_655 S
O411 C431 1.255 . S
O412 Dy401 2.379 1_655 S
O412 C431 1.249 . S
C413 O403 1.266 . S
C413 O404 1.236 . S
O414 Dy400 2.275 . S
O414 C402 1.254 . S
O415 Dy401 2.339 . S
O415 C402 1.257 . S
C416 C419 1.344 . S
C416 C420 1.328 . S
C416 C422 1.516 . S
C417 C418 1.304 . S
C417 C421 1.323 . S
C418 C417 1.304 . S
C418 C419 1.371 . S
C418 H432 0.930 . S
C419 C416 1.344 . S
C419 C418 1.371 . S
C419 H433 0.931 . S
C420 C416 1.328 . S
C420 C421 1.433 . S
C420 H434 0.931 . S
C421 C417 1.323 . S
C421 C420 1.433 . S
C421 H435 0.933 . S
C422 Dy400 2.738 . S
C422 O405 1.255 . S
C422 O406 1.249 . S
C422 C416 1.516 . S
C423 O407 1.254 . S
C423 O408 1.257 . S
C424 O409 1.266 . S
C424 O410 1.236 . S
C425 C428 1.344 . S
C425 C429 1.328 . S
C425 C431 1.516 . S
C426 C427 1.304 . S
C426 C430 1.323 . S
C427 C426 1.304 . S
C427 C428 1.371 . S
C427 H436 0.930 . S
C428 C425 1.344 . S
C428 C427 1.371 . S
C428 H437 0.931 . S
C429 C425 1.328 . S
C429 C430 1.433 . S
C429 H438 0.931 . S
C430 C426 1.323 . S
C430 C429 1.433 . S
C430 H439 0.933 . S
C431 Dy401 2.738 1_655 S
C431 O411 1.255 . S
C431 O412 1.249 . S
C431 C425 1.516 . S
H432 C418 0.930 . S
H433 C419 0.931 . S
H434 C420 0.931 . S
H435 C421 0.933 . S
H436 C427 0.930 . S
H437 C428 0.931 . S
H438 C429 0.931 . S
H439 C430 0.933 . S
Dy440 O443 2.307 . S
Dy440 O445 2.395 . S
Dy440 O446 2.379 . S
Dy440 O448 2.339 . S
Dy440 O450 2.298 . S
Dy440 O454 2.275 . S
Dy440 C462 2.738 . S
Dy441 O444 2.298 . S
Dy441 O447 2.275 . S
Dy441 O449 2.307 . S
Dy441 O451 2.395 1_545 S
Dy441 O452 2.379 1_545 S
Dy441 O455 2.339 . S
Dy441 C471 2.738 1_545 S
C442 O454 1.254 . S
C442 O455 1.257 . S
O443 Dy440 2.307 . S
O443 C453 1.266 . S
O444 Dy441 2.298 . S
O444 C453 1.236 . S
O445 Dy440 2.395 . S
O445 C462 1.255 . S
O446 Dy440 2.379 . S
O446 C462 1.249 . S
O447 Dy441 2.275 . S
O447 C463 1.254 . S
O448 Dy440 2.339 . S
O448 C463 1.257 . S
O449 Dy441 2.307 . S
O449 C464 1.266 . S
O450 Dy440 2.298 . S
O450 C464 1.236 . S
O451 Dy441 2.395 1_565 S
O451 C471 1.255 . S
O452 Dy441 2.379 1_565 S
O452 C471 1.249 . S
C453 O443 1.266 . S
C453 O444 1.236 . S
O454 Dy440 2.275 . S
O454 C442 1.254 . S
O455 Dy441 2.339 . S
O455 C442 1.257 . S
C456 C459 1.344 . S
C456 C460 1.328 . S
C456 C462 1.516 . S
C457 C458 1.304 . S
C457 C461 1.323 . S
C458 C457 1.304 . S
C458 C459 1.371 . S
C458 H472 0.930 . S
C459 C456 1.344 . S
C459 C458 1.371 . S
C459 H473 0.931 . S
C460 C456 1.328 . S
C460 C461 1.433 . S
C460 H474 0.931 . S
C461 C457 1.323 . S
C461 C460 1.433 . S
C461 H475 0.933 . S
C462 Dy440 2.738 . S
C462 O445 1.255 . S
C462 O446 1.249 . S
C462 C456 1.516 . S
C463 O447 1.254 . S
C463 O448 1.257 . S
C464 O449 1.266 . S
C464 O450 1.236 . S
C465 C468 1.344 . S
C465 C469 1.328 . S
C465 C471 1.516 . S
C466 C467 1.304 . S
C466 C470 1.323 . S
C467 C466 1.304 . S
C467 C468 1.371 . S
C467 H476 0.930 . S
C468 C465 1.344 . S
C468 C467 1.371 . S
C468 H477 0.931 . S
C469 C465 1.328 . S
C469 C470 1.433 . S
C469 H478 0.931 . S
C470 C466 1.323 . S
C470 C469 1.433 . S
C470 H479 0.933 . S
C471 Dy441 2.738 1_565 S
C471 O451 1.255 . S
C471 O452 1.249 . S
C471 C465 1.516 . S
H472 C458 0.930 . S
H473 C459 0.931 . S
H474 C460 0.931 . S
H475 C461 0.933 . S
H476 C467 0.930 . S
H477 C468 0.931 . S
H478 C469 0.931 . S
H479 C470 0.933 . S
Dy480 O483 2.307 . S
Dy480 O485 2.395 . S
Dy480 O486 2.379 . S
Dy480 O488 2.339 . S
Dy480 O490 2.298 . S
Dy480 O494 2.275 . S
Dy480 C502 2.738 . S
Dy481 O484 2.298 . S
Dy481 O487 2.275 . S
Dy481 O489 2.307 . S
Dy481 O491 2.395 1_655 S
Dy481 O492 2.379 1_655 S
Dy481 O495 2.339 . S
Dy481 C511 2.738 1_655 S
C482 O494 1.254 . S
C482 O495 1.257 . S
O483 Dy480 2.307 . S
O483 C493 1.266 . S
O484 Dy481 2.298 . S
O484 C493 1.236 . S
O485 Dy480 2.395 . S
O485 C502 1.255 . S
O486 Dy480 2.379 . S
O486 C502 1.249 . S
O487 Dy481 2.275 . S
O487 C503 1.254 . S
O488 Dy480 2.339 . S
O488 C503 1.257 . S
O489 Dy481 2.307 . S
O489 C504 1.266 . S
O490 Dy480 2.298 . S
O490 C504 1.236 . S
O491 Dy481 2.395 1_455 S
O491 C511 1.255 . S
O492 Dy481 2.379 1_455 S
O492 C511 1.249 . S
C493 O483 1.266 . S
C493 O484 1.236 . S
O494 Dy480 2.275 . S
O494 C482 1.254 . S
O495 Dy481 2.339 . S
O495 C482 1.257 . S
C496 C499 1.344 . S
C496 C500 1.328 . S
C496 C502 1.516 . S
C497 C498 1.304 . S
C497 C501 1.323 . S
C498 C497 1.304 . S
C498 C499 1.371 . S
C498 H512 0.930 . S
C499 C496 1.344 . S
C499 C498 1.371 . S
C499 H513 0.931 . S
C500 C496 1.328 . S
C500 C501 1.433 . S
C500 H514 0.931 . S
C501 C497 1.323 . S
C501 C500 1.433 . S
C501 H515 0.933 . S
C502 Dy480 2.738 . S
C502 O485 1.255 . S
C502 O486 1.249 . S
C502 C496 1.516 . S
C503 O487 1.254 . S
C503 O488 1.257 . S
C504 O489 1.266 . S
C504 O490 1.236 . S
C505 C508 1.344 . S
C505 C509 1.328 . S
C505 C511 1.516 . S
C506 C507 1.304 . S
C506 C510 1.323 . S
C507 C506 1.304 . S
C507 C508 1.371 . S
C507 H516 0.930 . S
C508 C505 1.344 . S
C508 C507 1.371 . S
C508 H517 0.931 . S
C509 C505 1.328 . S
C509 C510 1.433 . S
C509 H518 0.931 . S
C510 C506 1.323 . S
C510 C509 1.433 . S
C510 H519 0.933 . S
C511 Dy481 2.738 1_455 S
C511 O491 1.255 . S
C511 O492 1.249 . S
C511 C505 1.516 . S
H512 C498 0.930 . S
H513 C499 0.931 . S
H514 C500 0.931 . S
H515 C501 0.933 . S
H516 C507 0.930 . S
H517 C508 0.931 . S
H518 C509 0.931 . S
H519 C510 0.933 . S
Dy520 O523 2.307 . S
Dy520 O525 2.395 . S
Dy520 O526 2.379 . S
Dy520 O528 2.339 . S
Dy520 O530 2.298 . S
Dy520 O534 2.275 . S
Dy520 C542 2.738 . S
Dy521 O524 2.298 . S
Dy521 O527 2.275 . S
Dy521 O529 2.307 . S
Dy521 O531 2.395 1_565 S
Dy521 O532 2.379 1_565 S
Dy521 O535 2.339 . S
Dy521 C551 2.738 1_565 S
C522 O534 1.254 . S
C522 O535 1.257 . S
O523 Dy520 2.307 . S
O523 C533 1.266 . S
O524 Dy521 2.298 . S
O524 C533 1.236 . S
O525 Dy520 2.395 . S
O525 C542 1.255 . S
O526 Dy520 2.379 . S
O526 C542 1.249 . S
O527 Dy521 2.275 . S
O527 C543 1.254 . S
O528 Dy520 2.339 . S
O528 C543 1.257 . S
O529 Dy521 2.307 . S
O529 C544 1.266 . S
O530 Dy520 2.298 . S
O530 C544 1.236 . S
O531 Dy521 2.395 1_545 S
O531 C551 1.255 . S
O532 Dy521 2.379 1_545 S
O532 C551 1.249 . S
C533 O523 1.266 . S
C533 O524 1.236 . S
O534 Dy520 2.275 . S
O534 C522 1.254 . S
O535 Dy521 2.339 . S
O535 C522 1.257 . S
C536 C539 1.344 . S
C536 C540 1.328 . S
C536 C542 1.516 . S
C537 C538 1.304 . S
C537 C541 1.323 . S
C538 C537 1.304 . S
C538 C539 1.371 . S
C538 H552 0.930 . S
C539 C536 1.344 . S
C539 C538 1.371 . S
C539 H553 0.931 . S
C540 C536 1.328 . S
C540 C541 1.433 . S
C540 H554 0.931 . S
C541 C537 1.323 . S
C541 C540 1.433 . S
C541 H555 0.933 . S
C542 Dy520 2.738 . S
C542 O525 1.255 . S
C542 O526 1.249 . S
C542 C536 1.516 . S
C543 O527 1.254 . S
C543 O528 1.257 . S
C544 O529 1.266 . S
C544 O530 1.236 . S
C545 C548 1.344 . S
C545 C549 1.328 . S
C545 C551 1.516 . S
C546 C547 1.304 . S
C546 C550 1.323 . S
C547 C546 1.304 . S
C547 C548 1.371 . S
C547 H556 0.930 . S
C548 C545 1.344 . S
C548 C547 1.371 . S
C548 H557 0.931 . S
C549 C545 1.328 . S
C549 C550 1.433 . S
C549 H558 0.931 . S
C550 C546 1.323 . S
C550 C549 1.433 . S
C550 H559 0.933 . S
C551 Dy521 2.738 1_545 S
C551 O531 1.255 . S
C551 O532 1.249 . S
C551 C545 1.516 . S
H552 C538 0.930 . S
H553 C539 0.931 . S
H554 C540 0.931 . S
H555 C541 0.933 . S
H556 C547 0.930 . S
H557 C548 0.931 . S
H558 C549 0.931 . S
H559 C550 0.933 . S
Dy560 O563 2.307 . S
Dy560 O565 2.395 . S
Dy560 O566 2.379 . S
Dy560 O568 2.339 . S
Dy560 O570 2.298 . S
Dy560 O574 2.275 . S
Dy560 C582 2.738 . S
Dy561 O564 2.298 . S
Dy561 O567 2.275 . S
Dy561 O569 2.307 . S
Dy561 O571 2.395 . S
Dy561 O572 2.379 . S
Dy561 O575 2.339 . S
Dy561 C591 2.738 . S
C562 O574 1.254 . S
C562 O575 1.257 . S
O563 Dy560 2.307 . S
O563 C573 1.266 . S
O564 Dy561 2.298 . S
O564 C573 1.236 . S
O565 Dy560 2.395 . S
O565 C582 1.255 . S
O566 Dy560 2.379 . S
O566 C582 1.249 . S
O567 Dy561 2.275 . S
O567 C583 1.254 . S
O568 Dy560 2.339 . S
O568 C583 1.257 . S
O569 Dy561 2.307 . S
O569 C584 1.266 . S
O570 Dy560 2.298 . S
O570 C584 1.236 . S
O571 Dy561 2.395 . S
O571 C591 1.255 . S
O572 Dy561 2.379 . S
O572 C591 1.249 . S
C573 O563 1.266 . S
C573 O564 1.236 . S
O574 Dy560 2.275 . S
O574 C562 1.254 . S
O575 Dy561 2.339 . S
O575 C562 1.257 . S
C576 C579 1.344 . S
C576 C580 1.328 . S
C576 C582 1.516 . S
C577 C578 1.304 . S
C577 C581 1.323 . S
C578 C577 1.304 . S
C578 C579 1.371 . S
C578 H592 0.930 . S
C579 C576 1.344 . S
C579 C578 1.371 . S
C579 H593 0.931 . S
C580 C576 1.328 . S
C580 C581 1.433 . S
C580 H594 0.931 . S
C581 C577 1.323 . S
C581 C580 1.433 . S
C581 H595 0.933 . S
C582 Dy560 2.738 . S
C582 O565 1.255 . S
C582 O566 1.249 . S
C582 C576 1.516 . S
C583 O567 1.254 . S
C583 O568 1.257 . S
C584 O569 1.266 . S
C584 O570 1.236 . S
C585 C588 1.344 . S
C585 C589 1.328 . S
C585 C591 1.516 . S
C586 C587 1.304 . S
C586 C590 1.323 . S
C587 C586 1.304 . S
C587 C588 1.371 . S
C587 H596 0.930 . S
C588 C585 1.344 . S
C588 C587 1.371 . S
C588 H597 0.931 . S
C589 C585 1.328 . S
C589 C590 1.433 . S
C589 H598 0.931 . S
C590 C586 1.323 . S
C590 C589 1.433 . S
C590 H599 0.933 . S
C591 Dy561 2.738 . S
C591 O571 1.255 . S
C591 O572 1.249 . S
C591 C585 1.516 . S
H592 C578 0.930 . S
H593 C579 0.931 . S
H594 C580 0.931 . S
H595 C581 0.933 . S
H596 C587 0.930 . S
H597 C588 0.931 . S
H598 C589 0.931 . S
H599 C590 0.933 . S
Dy600 O603 2.307 . S
Dy600 O605 2.395 . S
Dy600 O606 2.379 . S
Dy600 O608 2.339 . S
Dy600 O610 2.298 . S
Dy600 O614 2.275 . S
Dy600 C622 2.738 . S
Dy601 O604 2.298 . S
Dy601 O607 2.275 . S
Dy601 O609 2.307 . S
Dy601 O611 2.395 . S
Dy601 O612 2.379 . S
Dy601 O615 2.339 . S
Dy601 C631 2.738 . S
C602 O614 1.254 . S
C602 O615 1.257 . S
O603 Dy600 2.307 . S
O603 C613 1.266 . S
O604 Dy601 2.298 . S
O604 C613 1.236 . S
O605 Dy600 2.395 . S
O605 C622 1.255 . S
O606 Dy600 2.379 . S
O606 C622 1.249 . S
O607 Dy601 2.275 . S
O607 C623 1.254 . S
O608 Dy600 2.339 . S
O608 C623 1.257 . S
O609 Dy601 2.307 . S
O609 C624 1.266 . S
O610 Dy600 2.298 . S
O610 C624 1.236 . S
O611 Dy601 2.395 . S
O611 C631 1.255 . S
O612 Dy601 2.379 . S
O612 C631 1.249 . S
C613 O603 1.266 . S
C613 O604 1.236 . S
O614 Dy600 2.275 . S
O614 C602 1.254 . S
O615 Dy601 2.339 . S
O615 C602 1.257 . S
C616 C619 1.344 . S
C616 C620 1.328 . S
C616 C622 1.516 . S
C617 C618 1.304 . S
C617 C621 1.323 . S
C618 C617 1.304 . S
C618 C619 1.371 . S
C618 H632 0.930 . S
C619 C616 1.344 . S
C619 C618 1.371 . S
C619 H633 0.931 . S
C620 C616 1.328 . S
C620 C621 1.433 . S
C620 H634 0.931 . S
C621 C617 1.323 . S
C621 C620 1.433 . S
C621 H635 0.933 . S
C622 Dy600 2.738 . S
C622 O605 1.255 . S
C622 O606 1.249 . S
C622 C616 1.516 . S
C623 O607 1.254 . S
C623 O608 1.257 . S
C624 O609 1.266 . S
C624 O610 1.236 . S
C625 C628 1.344 . S
C625 C629 1.328 . S
C625 C631 1.516 . S
C626 C627 1.304 . S
C626 C630 1.323 . S
C627 C626 1.304 . S
C627 C628 1.371 . S
C627 H636 0.930 . S
C628 C625 1.344 . S
C628 C627 1.371 . S
C628 H637 0.931 . S
C629 C625 1.328 . S
C629 C630 1.433 . S
C629 H638 0.931 . S
C630 C626 1.323 . S
C630 C629 1.433 . S
C630 H639 0.933 . S
C631 Dy601 2.738 . S
C631 O611 1.255 . S
C631 O612 1.249 . S
C631 C625 1.516 . S
H632 C618 0.930 . S
H633 C619 0.931 . S
H634 C620 0.931 . S
H635 C621 0.933 . S
H636 C627 0.930 . S
H637 C628 0.931 . S
H638 C629 0.931 . S
H639 C630 0.933 . S
C640 C641 1.349 . S
C640 C642 1.327 . S
C640 H665 0.950 . S
C641 C640 1.349 . S
C641 C657 1.349 . S
C642 C640 1.327 . S
C642 C661 1.429 . S
C642 H666 0.950 . S
C643 C660 1.574 . S
C643 C662 1.368 . S
C643 H667 0.949 . S
H644 C648 0.949 . S
C645 C646 1.349 . S
C645 C647 1.327 . S
C645 H668 0.950 . S
C646 C645 1.349 . S
C646 C658 1.349 . S
C647 C645 1.327 . S
C647 C663 1.429 . S
C647 H669 0.950 . S
C648 H644 0.949 . S
C648 C656 1.574 . S
C648 C664 1.368 . S
H649 C657 0.950 . S
H650 C655 0.950 . S
H651 C656 0.949 . S
H652 C658 0.950 . S
H653 C659 0.950 . S
H654 C660 0.949 . S
C655 H650 0.950 . S
C655 C657 1.327 . S
C655 C661 1.429 . S
C656 C648 1.574 . S
C656 H651 0.949 . S
C656 C662 1.368 . S
C657 C641 1.349 . S
C657 H649 0.950 . S
C657 C655 1.327 . S
C658 C646 1.349 . S
C658 H652 0.950 . S
C658 C659 1.327 . S
C659 H653 0.950 . S
C659 C658 1.327 . S
C659 C663 1.429 . S
C660 C643 1.574 . S
C660 H654 0.949 . S
C660 C664 1.368 . S
C661 C642 1.429 . S
C661 C655 1.429 . S
C661 C662 1.523 . S
C662 C643 1.368 . S
C662 C656 1.368 . S
C662 C661 1.523 . S
C663 C647 1.429 . S
C663 C659 1.429 . S
C663 C664 1.523 . S
C664 C648 1.368 . S
C664 C660 1.368 . S
C664 C663 1.523 . S
H665 C640 0.950 . S
H666 C642 0.950 . S
H667 C643 0.949 . S
H668 C645 0.950 . S
H669 C647 0.950 . S
C670 C671 1.349 . S
C670 C672 1.327 . S
C670 H695 0.950 . S
C671 C670 1.349 . S
C671 C687 1.349 . S
C672 C670 1.327 . S
C672 C691 1.429 . S
C672 H696 0.950 . S
C673 C690 1.574 . S
C673 C692 1.368 . S
C673 H697 0.949 . S
H674 C678 0.949 . S
C675 C676 1.349 . S
C675 C677 1.327 . S
C675 H698 0.950 . S
C676 C675 1.349 . S
C676 C688 1.349 . S
C677 C675 1.327 . S
C677 C693 1.429 . S
C677 H699 0.950 . S
C678 H674 0.949 . S
C678 C686 1.574 . S
C678 C694 1.368 . S
H679 C687 0.950 . S
H680 C685 0.950 . S
H681 C686 0.949 . S
H682 C688 0.950 . S
H683 C689 0.950 . S
H684 C690 0.949 . S
C685 H680 0.950 . S
C685 C687 1.327 . S
C685 C691 1.429 . S
C686 C678 1.574 . S
C686 H681 0.949 . S
C686 C692 1.368 . S
C687 C671 1.349 . S
C687 H679 0.950 . S
C687 C685 1.327 . S
C688 C676 1.349 . S
C688 H682 0.950 . S
C688 C689 1.327 . S
C689 H683 0.950 . S
C689 C688 1.327 . S
C689 C693 1.429 . S
C690 C673 1.574 . S
C690 H684 0.949 . S
C690 C694 1.368 . S
C691 C672 1.429 . S
C691 C685 1.429 . S
C691 C692 1.523 . S
C692 C673 1.368 . S
C692 C686 1.368 . S
C692 C691 1.523 . S
C693 C677 1.429 . S
C693 C689 1.429 . S
C693 C694 1.523 . S
C694 C678 1.368 . S
C694 C690 1.368 . S
C694 C693 1.523 . S
H695 C670 0.950 . S
H696 C672 0.950 . S
H697 C673 0.949 . S
H698 C675 0.950 . S
H699 C677 0.950 . S
C700 C701 1.349 . S
C700 C702 1.327 . S
C700 H725 0.950 . S
C701 C700 1.349 . S
C701 C717 1.349 . S
C702 C700 1.327 . S
C702 C721 1.429 . S
C702 H726 0.950 . S
C703 C720 1.574 . S
C703 C722 1.368 . S
C703 H727 0.949 . S
H704 C708 0.949 . S
C705 C706 1.349 . S
C705 C707 1.327 . S
C705 H728 0.950 . S
C706 C705 1.349 . S
C706 C718 1.349 . S
C707 C705 1.327 . S
C707 C723 1.429 . S
C707 H729 0.950 . S
C708 H704 0.949 . S
C708 C716 1.574 . S
C708 C724 1.368 . S
H709 C717 0.950 . S
H710 C715 0.950 . S
H711 C716 0.949 . S
H712 C718 0.950 . S
H713 C719 0.950 . S
H714 C720 0.949 . S
C715 H710 0.950 . S
C715 C717 1.327 . S
C715 C721 1.429 . S
C716 C708 1.574 . S
C716 H711 0.949 . S
C716 C722 1.368 . S
C717 C701 1.349 . S
C717 H709 0.950 . S
C717 C715 1.327 . S
C718 C706 1.349 . S
C718 H712 0.950 . S
C718 C719 1.327 . S
C719 H713 0.950 . S
C719 C718 1.327 . S
C719 C723 1.429 . S
C720 C703 1.574 . S
C720 H714 0.949 . S
C720 C724 1.368 . S
C721 C702 1.429 . S
C721 C715 1.429 . S
C721 C722 1.523 . S
C722 C703 1.368 . S
C722 C716 1.368 . S
C722 C721 1.523 . S
C723 C707 1.429 . S
C723 C719 1.429 . S
C723 C724 1.523 . S
C724 C708 1.368 . S
C724 C720 1.368 . S
C724 C723 1.523 . S
H725 C700 0.950 . S
H726 C702 0.950 . S
H727 C703 0.949 . S
H728 C705 0.950 . S
H729 C707 0.950 . S
C730 C731 1.349 . S
C730 C732 1.327 . S
C730 H755 0.950 . S
C731 C730 1.349 . S
C731 C747 1.349 . S
C732 C730 1.327 . S
C732 C751 1.429 . S
C732 H756 0.950 . S
C733 C750 1.574 . S
C733 C752 1.368 . S
C733 H757 0.949 . S
H734 C738 0.949 . S
C735 C736 1.349 . S
C735 C737 1.327 . S
C735 H758 0.950 . S
C736 C735 1.349 . S
C736 C748 1.349 . S
C737 C735 1.327 . S
C737 C753 1.429 . S
C737 H759 0.950 . S
C738 H734 0.949 . S
C738 C746 1.574 . S
C738 C754 1.368 . S
H739 C747 0.950 . S
H740 C745 0.950 . S
H741 C746 0.949 . S
H742 C748 0.950 . S
H743 C749 0.950 . S
H744 C750 0.949 . S
C745 H740 0.950 . S
C745 C747 1.327 . S
C745 C751 1.429 . S
C746 C738 1.574 . S
C746 H741 0.949 . S
C746 C752 1.368 . S
C747 C731 1.349 . S
C747 H739 0.950 . S
C747 C745 1.327 . S
C748 C736 1.349 . S
C748 H742 0.950 . S
C748 C749 1.327 . S
C749 H743 0.950 . S
C749 C748 1.327 . S
C749 C753 1.429 . S
C750 C733 1.574 . S
C750 H744 0.949 . S
C750 C754 1.368 . S
C751 C732 1.429 . S
C751 C745 1.429 . S
C751 C752 1.523 . S
C752 C733 1.368 . S
C752 C746 1.368 . S
C752 C751 1.523 . S
C753 C737 1.429 . S
C753 C749 1.429 . S
C753 C754 1.523 . S
C754 C738 1.368 . S
C754 C750 1.368 . S
C754 C753 1.523 . S
H755 C730 0.950 . S
H756 C732 0.950 . S
H757 C733 0.949 . S
H758 C735 0.950 . S
H759 C737 0.950 . S
C760 C761 1.349 . S
C760 C762 1.327 . S
C760 H785 0.950 . S
C761 C760 1.349 . S
C761 C777 1.349 . S
C762 C760 1.327 . S
C762 C781 1.429 . S
C762 H786 0.950 . S
C763 C780 1.574 . S
C763 C782 1.368 . S
C763 H787 0.949 . S
H764 C768 0.949 . S
C765 C766 1.349 . S
C765 C767 1.327 . S
C765 H788 0.950 . S
C766 C765 1.349 . S
C766 C778 1.349 . S
C767 C765 1.327 . S
C767 C783 1.429 . S
C767 H789 0.950 . S
C768 H764 0.949 . S
C768 C776 1.574 . S
C768 C784 1.368 . S
H769 C777 0.950 . S
H770 C775 0.950 . S
H771 C776 0.949 . S
H772 C778 0.950 . S
H773 C779 0.950 . S
H774 C780 0.949 . S
C775 H770 0.950 . S
C775 C777 1.327 . S
C775 C781 1.429 . S
C776 C768 1.574 . S
C776 H771 0.949 . S
C776 C782 1.368 . S
C777 C761 1.349 . S
C777 H769 0.950 . S
C777 C775 1.327 . S
C778 C766 1.349 . S
C778 H772 0.950 . S
C778 C779 1.327 . S
C779 H773 0.950 . S
C779 C778 1.327 . S
C779 C783 1.429 . S
C780 C763 1.574 . S
C780 H774 0.949 . S
C780 C784 1.368 . S
C781 C762 1.429 . S
C781 C775 1.429 . S
C781 C782 1.523 . S
C782 C763 1.368 . S
C782 C776 1.368 . S
C782 C781 1.523 . S
C783 C767 1.429 . S
C783 C779 1.429 . S
C783 C784 1.523 . S
C784 C768 1.368 . S
C784 C780 1.368 . S
C784 C783 1.523 . S
H785 C760 0.950 . S
H786 C762 0.950 . S
H787 C763 0.949 . S
H788 C765 0.950 . S
H789 C767 0.950 . S
C790 C791 1.349 . S
C790 C792 1.327 . S
C790 H815 0.950 . S
C791 C790 1.349 . S
C791 C807 1.349 . S
C792 C790 1.327 . S
C792 C811 1.429 . S
C792 H816 0.950 . S
C793 C810 1.574 . S
C793 C812 1.368 . S
C793 H817 0.949 . S
H794 C798 0.949 . S
C795 C796 1.349 . S
C795 C797 1.327 . S
C795 H818 0.950 . S
C796 C795 1.349 . S
C796 C808 1.349 . S
C797 C795 1.327 . S
C797 C813 1.429 . S
C797 H819 0.950 . S
C798 H794 0.949 . S
C798 C806 1.574 . S
C798 C814 1.368 . S
H799 C807 0.950 . S
H800 C805 0.950 . S
H801 C806 0.949 . S
H802 C808 0.950 . S
H803 C809 0.950 . S
H804 C810 0.949 . S
C805 H800 0.950 . S
C805 C807 1.327 . S
C805 C811 1.429 . S
C806 C798 1.574 . S
C806 H801 0.949 . S
C806 C812 1.368 . S
C807 C791 1.349 . S
C807 H799 0.950 . S
C807 C805 1.327 . S
C808 C796 1.349 . S
C808 H802 0.950 . S
C808 C809 1.327 . S
C809 H803 0.950 . S
C809 C808 1.327 . S
C809 C813 1.429 . S
C810 C793 1.574 . S
C810 H804 0.949 . S
C810 C814 1.368 . S
C811 C792 1.429 . S
C811 C805 1.429 . S
C811 C812 1.523 . S
C812 C793 1.368 . S
C812 C806 1.368 . S
C812 C811 1.523 . S
C813 C797 1.429 . S
C813 C809 1.429 . S
C813 C814 1.523 . S
C814 C798 1.368 . S
C814 C810 1.368 . S
C814 C813 1.523 . S
H815 C790 0.950 . S
H816 C792 0.950 . S
H817 C793 0.949 . S
H818 C795 0.950 . S
H819 C797 0.950 . S
C820 C821 1.349 . S
C820 C822 1.327 . S
C820 H845 0.950 . S
C821 C820 1.349 . S
C821 C837 1.349 . S
C822 C820 1.327 . S
C822 C841 1.429 . S
C822 H846 0.950 . S
C823 C840 1.574 . S
C823 C842 1.368 . S
C823 H847 0.949 . S
H824 C828 0.949 . S
C825 C826 1.349 . S
C825 C827 1.327 . S
C825 H848 0.950 . S
C826 C825 1.349 . S
C826 C838 1.349 . S
C827 C825 1.327 . S
C827 C843 1.429 . S
C827 H849 0.950 . S
C828 H824 0.949 . S
C828 C836 1.574 . S
C828 C844 1.368 . S
H829 C837 0.950 . S
H830 C835 0.950 . S
H831 C836 0.949 . S
H832 C838 0.950 . S
H833 C839 0.950 . S
H834 C840 0.949 . S
C835 H830 0.950 . S
C835 C837 1.327 . S
C835 C841 1.429 . S
C836 C828 1.574 . S
C836 H831 0.949 . S
C836 C842 1.368 . S
C837 C821 1.349 . S
C837 H829 0.950 . S
C837 C835 1.327 . S
C838 C826 1.349 . S
C838 H832 0.950 . S
C838 C839 1.327 . S
C839 H833 0.950 . S
C839 C838 1.327 . S
C839 C843 1.429 . S
C840 C823 1.574 . S
C840 H834 0.949 . S
C840 C844 1.368 . S
C841 C822 1.429 . S
C841 C835 1.429 . S
C841 C842 1.523 . S
C842 C823 1.368 . S
C842 C836 1.368 . S
C842 C841 1.523 . S
C843 C827 1.429 . S
C843 C839 1.429 . S
C843 C844 1.523 . S
C844 C828 1.368 . S
C844 C840 1.368 . S
C844 C843 1.523 . S
H845 C820 0.950 . S
H846 C822 0.950 . S
H847 C823 0.949 . S
H848 C825 0.950 . S
H849 C827 0.950 . S
C850 C851 1.349 . S
C850 C852 1.327 . S
C850 H875 0.950 . S
C851 C850 1.349 . S
C851 C867 1.349 . S
C852 C850 1.327 . S
C852 C871 1.429 . S
C852 H876 0.950 . S
C853 C870 1.574 . S
C853 C872 1.368 . S
C853 H877 0.949 . S
H854 C858 0.949 . S
C855 C856 1.349 . S
C855 C857 1.327 . S
C855 H878 0.950 . S
C856 C855 1.349 . S
C856 C868 1.349 . S
C857 C855 1.327 . S
C857 C873 1.429 . S
C857 H879 0.950 . S
C858 H854 0.949 . S
C858 C866 1.574 . S
C858 C874 1.368 . S
H859 C867 0.950 . S
H860 C865 0.950 . S
H861 C866 0.949 . S
H862 C868 0.950 . S
H863 C869 0.950 . S
H864 C870 0.949 . S
C865 H860 0.950 . S
C865 C867 1.327 . S
C865 C871 1.429 . S
C866 C858 1.574 . S
C866 H861 0.949 . S
C866 C872 1.368 . S
C867 C851 1.349 . S
C867 H859 0.950 . S
C867 C865 1.327 . S
C868 C856 1.349 . S
C868 H862 0.950 . S
C868 C869 1.327 . S
C869 H863 0.950 . S
C869 C868 1.327 . S
C869 C873 1.429 . S
C870 C853 1.574 . S
C870 H864 0.949 . S
C870 C874 1.368 . S
C871 C852 1.429 . S
C871 C865 1.429 . S
C871 C872 1.523 . S
C872 C853 1.368 . S
C872 C866 1.368 . S
C872 C871 1.523 . S
C873 C857 1.429 . S
C873 C869 1.429 . S
C873 C874 1.523 . S
C874 C858 1.368 . S
C874 C870 1.368 . S
C874 C873 1.523 . S
H875 C850 0.950 . S
H876 C852 0.950 . S
H877 C853 0.949 . S
H878 C855 0.950 . S
H879 C857 0.950 . S
C880 C881 1.349 . S
C880 C882 1.327 . S
C880 H905 0.950 . S
C881 C880 1.349 . S
C881 C897 1.349 . S
C882 C880 1.327 . S
C882 C901 1.429 . S
C882 H906 0.950 . S
C883 C900 1.574 . S
C883 C902 1.368 . S
C883 H907 0.949 . S
H884 C888 0.949 . S
C885 C886 1.349 . S
C885 C887 1.327 . S
C885 H908 0.950 . S
C886 C885 1.349 . S
C886 C898 1.349 . S
C887 C885 1.327 . S
C887 C903 1.429 . S
C887 H909 0.950 . S
C888 H884 0.949 . S
C888 C896 1.574 . S
C888 C904 1.368 . S
H889 C897 0.950 . S
H890 C895 0.950 . S
H891 C896 0.949 . S
H892 C898 0.950 1_565 S
H893 C899 0.950 . S
H894 C900 0.949 . S
C895 H890 0.950 . S
C895 C897 1.327 . S
C895 C901 1.429 . S
C896 C888 1.574 . S
C896 H891 0.949 . S
C896 C902 1.368 . S
C897 C881 1.349 . S
C897 H889 0.950 . S
C897 C895 1.327 . S
C898 C886 1.349 . S
C898 H892 0.950 1_545 S
C898 C899 1.327 . S
C899 H893 0.950 . S
C899 C898 1.327 . S
C899 C903 1.429 . S
C900 C883 1.574 . S
C900 H894 0.949 . S
C900 C904 1.368 . S
C901 C882 1.429 . S
C901 C895 1.429 . S
C901 C902 1.523 . S
C902 C883 1.368 . S
C902 C896 1.368 . S
C902 C901 1.523 . S
C903 C887 1.429 . S
C903 C899 1.429 . S
C903 C904 1.523 . S
C904 C888 1.368 . S
C904 C900 1.368 . S
C904 C903 1.523 . S
H905 C880 0.950 . S
H906 C882 0.950 . S
H907 C883 0.949 . S
H908 C885 0.950 . S
H909 C887 0.950 . S
C910 C911 1.349 . S
C910 C912 1.327 . S
C910 H935 0.950 . S
C911 C910 1.349 . S
C911 C927 1.349 . S
C912 C910 1.327 . S
C912 C931 1.429 . S
C912 H936 0.950 . S
C913 C930 1.574 . S
C913 C932 1.368 . S
C913 H937 0.949 . S
H914 C918 0.949 . S
C915 C916 1.349 . S
C915 C917 1.327 . S
C915 H938 0.950 . S
C916 C915 1.349 . S
C916 C928 1.349 . S
C917 C915 1.327 . S
C917 C933 1.429 . S
C917 H939 0.950 . S
C918 H914 0.949 . S
C918 C926 1.574 . S
C918 C934 1.368 . S
H919 C927 0.950 . S
H920 C925 0.950 . S
H921 C926 0.949 . S
H922 C928 0.950 . S
H923 C929 0.950 . S
H924 C930 0.949 . S
C925 H920 0.950 . S
C925 C927 1.327 . S
C925 C931 1.429 . S
C926 C918 1.574 . S
C926 H921 0.949 . S
C926 C932 1.368 . S
C927 C911 1.349 . S
C927 H919 0.950 . S
C927 C925 1.327 . S
C928 C916 1.349 . S
C928 H922 0.950 . S
C928 C929 1.327 . S
C929 H923 0.950 . S
C929 C928 1.327 . S
C929 C933 1.429 . S
C930 C913 1.574 . S
C930 H924 0.949 . S
C930 C934 1.368 . S
C931 C912 1.429 . S
C931 C925 1.429 . S
C931 C932 1.523 . S
C932 C913 1.368 . S
C932 C926 1.368 . S
C932 C931 1.523 . S
C933 C917 1.429 . S
C933 C929 1.429 . S
C933 C934 1.523 . S
C934 C918 1.368 . S
C934 C930 1.368 . S
C934 C933 1.523 . S
H935 C910 0.950 . S
H936 C912 0.950 . S
H937 C913 0.949 . S
H938 C915 0.950 . S
H939 C917 0.950 . S
C940 C941 1.349 . S
C940 C942 1.327 . S
C940 H965 0.950 . S
C941 C940 1.349 . S
C941 C957 1.349 . S
C942 C940 1.327 . S
C942 C961 1.429 . S
C942 H966 0.950 . S
C943 C960 1.574 . S
C943 C962 1.368 . S
C943 H967 0.949 . S
H944 C948 0.949 . S
C945 C946 1.349 . S
C945 C947 1.327 . S
C945 H968 0.950 . S
C946 C945 1.349 . S
C946 C958 1.349 . S
C947 C945 1.327 . S
C947 C963 1.429 . S
C947 H969 0.950 . S
C948 H944 0.949 . S
C948 C956 1.574 . S
C948 C964 1.368 . S
H949 C957 0.950 . S
H950 C955 0.950 . S
H951 C956 0.949 . S
H952 C958 0.950 . S
H953 C959 0.950 . S
H954 C960 0.949 . S
C955 H950 0.950 . S
C955 C957 1.327 . S
C955 C961 1.429 . S
C956 C948 1.574 . S
C956 H951 0.949 . S
C956 C962 1.368 . S
C957 C941 1.349 . S
C957 H949 0.950 . S
C957 C955 1.327 . S
C958 C946 1.349 . S
C958 H952 0.950 . S
C958 C959 1.327 . S
C959 H953 0.950 . S
C959 C958 1.327 . S
C959 C963 1.429 . S
C960 C943 1.574 . S
C960 H954 0.949 . S
C960 C964 1.368 . S
C961 C942 1.429 . S
C961 C955 1.429 . S
C961 C962 1.523 . S
C962 C943 1.368 . S
C962 C956 1.368 . S
C962 C961 1.523 . S
C963 C947 1.429 . S
C963 C959 1.429 . S
C963 C964 1.523 . S
C964 C948 1.368 . S
C964 C960 1.368 . S
C964 C963 1.523 . S
H965 C940 0.950 . S
H966 C942 0.950 . S
H967 C943 0.949 . S
H968 C945 0.950 . S
H969 C947 0.950 . S
C970 C971 1.349 . S
C970 C972 1.327 . S
C970 H995 0.950 . S
C971 C970 1.349 . S
C971 C987 1.349 . S
C972 C970 1.327 . S
C972 C991 1.429 . S
C972 H996 0.950 . S
C973 C990 1.574 . S
C973 C992 1.368 . S
C973 H997 0.949 . S
H974 C978 0.949 . S
C975 C976 1.349 . S
C975 C977 1.327 . S
C975 H998 0.950 . S
C976 C975 1.349 . S
C976 C988 1.349 . S
C977 C975 1.327 . S
C977 C993 1.429 . S
C977 H999 0.950 . S
C978 H974 0.949 . S
C978 C986 1.574 . S
C978 C994 1.368 . S
H979 C987 0.950 . S
H980 C985 0.950 . S
H981 C986 0.949 . S
H982 C988 0.950 1_655 S
H983 C989 0.950 . S
H984 C990 0.949 . S
C985 H980 0.950 . S
C985 C987 1.327 . S
C985 C991 1.429 . S
C986 C978 1.574 . S
C986 H981 0.949 . S
C986 C992 1.368 . S
C987 C971 1.349 . S
C987 H979 0.950 . S
C987 C985 1.327 . S
C988 C976 1.349 . S
C988 H982 0.950 1_455 S
C988 C989 1.327 . S
C989 H983 0.950 . S
C989 C988 1.327 . S
C989 C993 1.429 . S
C990 C973 1.574 . S
C990 H984 0.949 . S
C990 C994 1.368 . S
C991 C972 1.429 . S
C991 C985 1.429 . S
C991 C992 1.523 . S
C992 C973 1.368 . S
C992 C986 1.368 . S
C992 C991 1.523 . S
C993 C977 1.429 . S
C993 C989 1.429 . S
C993 C994 1.523 . S
C994 C978 1.368 . S
C994 C990 1.368 . S
C994 C993 1.523 . S
H995 C970 0.950 . S
H996 C972 0.950 . S
H997 C973 0.949 . S
H998 C975 0.950 . S
H999 C977 0.950 . S
C1000 C1001 1.349 . S
C1000 C1002 1.327 . S
C1000 H1025 0.950 . S
C1001 C1000 1.349 . S
C1001 C1017 1.349 . S
C1002 C1000 1.327 . S
C1002 C1021 1.429 . S
C1002 H1026 0.950 . S
C1003 C1020 1.574 . S
C1003 C1022 1.368 . S
C1003 H1027 0.949 . S
H1004 C1008 0.949 . S
C1005 C1006 1.349 . S
C1005 C1007 1.327 . S
C1005 H1028 0.950 1_565 S
C1006 C1005 1.349 . S
C1006 C1018 1.349 . S
C1007 C1005 1.327 . S
C1007 C1023 1.429 . S
C1007 H1029 0.950 . S
C1008 H1004 0.949 . S
C1008 C1016 1.574 . S
C1008 C1024 1.368 . S
H1009 C1017 0.950 . S
H1010 C1015 0.950 . S
H1011 C1016 0.949 . S
H1012 C1018 0.950 . S
H1013 C1019 0.950 . S
H1014 C1020 0.949 . S
C1015 H1010 0.950 . S
C1015 C1017 1.327 . S
C1015 C1021 1.429 . S
C1016 C1008 1.574 . S
C1016 H1011 0.949 . S
C1016 C1022 1.368 . S
C1017 C1001 1.349 . S
C1017 H1009 0.950 . S
C1017 C1015 1.327 . S
C1018 C1006 1.349 . S
C1018 H1012 0.950 . S
C1018 C1019 1.327 . S
C1019 H1013 0.950 . S
C1019 C1018 1.327 . S
C1019 C1023 1.429 . S
C1020 C1003 1.574 . S
C1020 H1014 0.949 . S
C1020 C1024 1.368 . S
C1021 C1002 1.429 . S
C1021 C1015 1.429 . S
C1021 C1022 1.523 . S
C1022 C1003 1.368 . S
C1022 C1016 1.368 . S
C1022 C1021 1.523 . S
C1023 C1007 1.429 . S
C1023 C1019 1.429 . S
C1023 C1024 1.523 . S
C1024 C1008 1.368 . S
C1024 C1020 1.368 . S
C1024 C1023 1.523 . S
H1025 C1000 0.950 . S
H1026 C1002 0.950 . S
H1027 C1003 0.949 . S
H1028 C1005 0.950 1_545 S
H1029 C1007 0.950 . S
C1030 C1031 1.349 . S
C1030 C1032 1.327 . S
C1030 H1055 0.950 . S
C1031 C1030 1.349 . S
C1031 C1047 1.349 . S
C1032 C1030 1.327 . S
C1032 C1051 1.429 . S
C1032 H1056 0.950 . S
C1033 C1050 1.574 . S
C1033 C1052 1.368 . S
C1033 H1057 0.949 . S
H1034 C1038 0.949 . S
C1035 C1036 1.349 . S
C1035 C1037 1.327 . S
C1035 H1058 0.950 . S
C1036 C1035 1.349 . S
C1036 C1048 1.349 . S
C1037 C1035 1.327 . S
C1037 C1053 1.429 . S
C1037 H1059 0.950 . S
C1038 H1034 0.949 . S
C1038 C1046 1.574 . S
C1038 C1054 1.368 . S
H1039 C1047 0.950 . S
H1040 C1045 0.950 . S
H1041 C1046 0.949 . S
H1042 C1048 0.950 . S
H1043 C1049 0.950 . S
H1044 C1050 0.949 . S
C1045 H1040 0.950 . S
C1045 C1047 1.327 . S
C1045 C1051 1.429 . S
C1046 C1038 1.574 . S
C1046 H1041 0.949 . S
C1046 C1052 1.368 . S
C1047 C1031 1.349 . S
C1047 H1039 0.950 . S
C1047 C1045 1.327 . S
C1048 C1036 1.349 . S
C1048 H1042 0.950 . S
C1048 C1049 1.327 . S
C1049 H1043 0.950 . S
C1049 C1048 1.327 . S
C1049 C1053 1.429 . S
C1050 C1033 1.574 . S
C1050 H1044 0.949 . S
C1050 C1054 1.368 . S
C1051 C1032 1.429 . S
C1051 C1045 1.429 . S
C1051 C1052 1.523 . S
C1052 C1033 1.368 . S
C1052 C1046 1.368 . S
C1052 C1051 1.523 . S
C1053 C1037 1.429 . S
C1053 C1049 1.429 . S
C1053 C1054 1.523 . S
C1054 C1038 1.368 . S
C1054 C1050 1.368 . S
C1054 C1053 1.523 . S
H1055 C1030 0.950 . S
H1056 C1032 0.950 . S
H1057 C1033 0.949 . S
H1058 C1035 0.950 . S
H1059 C1037 0.950 . S
C1060 C1061 1.349 . S
C1060 C1062 1.327 . S
C1060 H1085 0.950 . S
C1061 C1060 1.349 . S
C1061 C1077 1.349 . S
C1062 C1060 1.327 . S
C1062 C1081 1.429 . S
C1062 H1086 0.950 . S
C1063 C1080 1.574 . S
C1063 C1082 1.368 . S
C1063 H1087 0.949 . S
H1064 C1068 0.949 . S
C1065 C1066 1.349 . S
C1065 C1067 1.327 . S
C1065 H1088 0.950 . S
C1066 C1065 1.349 . S
C1066 C1078 1.349 . S
C1067 C1065 1.327 . S
C1067 C1083 1.429 . S
C1067 H1089 0.950 . S
C1068 H1064 0.949 . S
C1068 C1076 1.574 . S
C1068 C1084 1.368 . S
H1069 C1077 0.950 . S
H1070 C1075 0.950 . S
H1071 C1076 0.949 . S
H1072 C1078 0.950 . S
H1073 C1079 0.950 . S
H1074 C1080 0.949 . S
C1075 H1070 0.950 . S
C1075 C1077 1.327 . S
C1075 C1081 1.429 . S
C1076 C1068 1.574 . S
C1076 H1071 0.949 . S
C1076 C1082 1.368 . S
C1077 C1061 1.349 . S
C1077 H1069 0.950 . S
C1077 C1075 1.327 . S
C1078 C1066 1.349 . S
C1078 H1072 0.950 . S
C1078 C1079 1.327 . S
C1079 H1073 0.950 . S
C1079 C1078 1.327 . S
C1079 C1083 1.429 . S
C1080 C1063 1.574 . S
C1080 H1074 0.949 . S
C1080 C1084 1.368 . S
C1081 C1062 1.429 . S
C1081 C1075 1.429 . S
C1081 C1082 1.523 . S
C1082 C1063 1.368 . S
C1082 C1076 1.368 . S
C1082 C1081 1.523 . S
C1083 C1067 1.429 . S
C1083 C1079 1.429 . S
C1083 C1084 1.523 . S
C1084 C1068 1.368 . S
C1084 C1080 1.368 . S
C1084 C1083 1.523 . S
H1085 C1060 0.950 . S
H1086 C1062 0.950 . S
H1087 C1063 0.949 . S
H1088 C1065 0.950 . S
H1089 C1067 0.950 . S
C1090 C1091 1.349 . S
C1090 C1092 1.327 . S
C1090 H1115 0.950 . S
C1091 C1090 1.349 . S
C1091 C1107 1.349 . S
C1092 C1090 1.327 . S
C1092 C1111 1.429 . S
C1092 H1116 0.950 . S
C1093 C1110 1.574 . S
C1093 C1112 1.368 . S
C1093 H1117 0.949 . S
H1094 C1098 0.949 . S
C1095 C1096 1.349 . S
C1095 C1097 1.327 . S
C1095 H1118 0.950 . S
C1096 C1095 1.349 . S
C1096 C1108 1.349 . S
C1097 C1095 1.327 . S
C1097 C1113 1.429 . S
C1097 H1119 0.950 . S
C1098 H1094 0.949 . S
C1098 C1106 1.574 . S
C1098 C1114 1.368 . S
H1099 C1107 0.950 1_455 S
H1100 C1105 0.950 . S
H1101 C1106 0.949 . S
H1102 C1108 0.950 . S
H1103 C1109 0.950 . S
H1104 C1110 0.949 . S
C1105 H1100 0.950 . S
C1105 C1107 1.327 . S
C1105 C1111 1.429 . S
C1106 C1098 1.574 . S
C1106 H1101 0.949 . S
C1106 C1112 1.368 . S
C1107 C1091 1.349 . S
C1107 H1099 0.950 1_655 S
C1107 C1105 1.327 . S
C1108 C1096 1.349 . S
C1108 H1102 0.950 . S
C1108 C1109 1.327 . S
C1109 H1103 0.950 . S
C1109 C1108 1.327 . S
C1109 C1113 1.429 . S
C1110 C1093 1.574 . S
C1110 H1104 0.949 . S
C1110 C1114 1.368 . S
C1111 C1092 1.429 . S
C1111 C1105 1.429 . S
C1111 C1112 1.523 . S
C1112 C1093 1.368 . S
C1112 C1106 1.368 . S
C1112 C1111 1.523 . S
C1113 C1097 1.429 . S
C1113 C1109 1.429 . S
C1113 C1114 1.523 . S
C1114 C1098 1.368 . S
C1114 C1110 1.368 . S
C1114 C1113 1.523 . S
H1115 C1090 0.950 . S
H1116 C1092 0.950 . S
H1117 C1093 0.949 . S
H1118 C1095 0.950 . S
H1119 C1097 0.950 . S
C1120 C1121 1.349 . S
C1120 C1122 1.327 . S
C1120 H1145 0.950 . S
C1121 C1120 1.349 . S
C1121 C1137 1.349 . S
C1122 C1120 1.327 . S
C1122 C1141 1.429 . S
C1122 H1146 0.950 . S
C1123 C1140 1.574 . S
C1123 C1142 1.368 . S
C1123 H1147 0.949 . S
H1124 C1128 0.949 . S
C1125 C1126 1.349 . S
C1125 C1127 1.327 . S
C1125 H1148 0.950 . S
C1126 C1125 1.349 . S
C1126 C1138 1.349 . S
C1127 C1125 1.327 . S
C1127 C1143 1.429 . S
C1127 H1149 0.950 . S
C1128 H1124 0.949 . S
C1128 C1136 1.574 . S
C1128 C1144 1.368 . S
H1129 C1137 0.950 . S
H1130 C1135 0.950 . S
H1131 C1136 0.949 . S
H1132 C1138 0.950 . S
H1133 C1139 0.950 . S
H1134 C1140 0.949 . S
C1135 H1130 0.950 . S
C1135 C1137 1.327 . S
C1135 C1141 1.429 . S
C1136 C1128 1.574 . S
C1136 H1131 0.949 . S
C1136 C1142 1.368 . S
C1137 C1121 1.349 . S
C1137 H1129 0.950 . S
C1137 C1135 1.327 . S
C1138 C1126 1.349 . S
C1138 H1132 0.950 . S
C1138 C1139 1.327 . S
C1139 H1133 0.950 . S
C1139 C1138 1.327 . S
C1139 C1143 1.429 . S
C1140 C1123 1.574 . S
C1140 H1134 0.949 . S
C1140 C1144 1.368 . S
C1141 C1122 1.429 . S
C1141 C1135 1.429 . S
C1141 C1142 1.523 . S
C1142 C1123 1.368 . S
C1142 C1136 1.368 . S
C1142 C1141 1.523 . S
C1143 C1127 1.429 . S
C1143 C1139 1.429 . S
C1143 C1144 1.523 . S
C1144 C1128 1.368 . S
C1144 C1140 1.368 . S
C1144 C1143 1.523 . S
H1145 C1120 0.950 . S
H1146 C1122 0.950 . S
H1147 C1123 0.949 . S
H1148 C1125 0.950 . S
H1149 C1127 0.950 . S
C1150 C1151 1.349 . S
C1150 C1152 1.327 . S
C1150 H1175 0.950 . S
C1151 C1150 1.349 . S
C1151 C1167 1.349 . S
C1152 C1150 1.327 . S
C1152 C1171 1.429 . S
C1152 H1176 0.950 . S
C1153 C1170 1.574 . S
C1153 C1172 1.368 . S
C1153 H1177 0.949 . S
H1154 C1158 0.949 . S
C1155 C1156 1.349 . S
C1155 C1157 1.327 . S
C1155 H1178 0.950 . S
C1156 C1155 1.349 . S
C1156 C1168 1.349 . S
C1157 C1155 1.327 . S
C1157 C1173 1.429 . S
C1157 H1179 0.950 . S
C1158 H1154 0.949 . S
C1158 C1166 1.574 . S
C1158 C1174 1.368 . S
H1159 C1167 0.950 . S
H1160 C1165 0.950 . S
H1161 C1166 0.949 . S
H1162 C1168 0.950 . S
H1163 C1169 0.950 . S
H1164 C1170 0.949 . S
C1165 H1160 0.950 . S
C1165 C1167 1.327 . S
C1165 C1171 1.429 . S
C1166 C1158 1.574 . S
C1166 H1161 0.949 . S
C1166 C1172 1.368 . S
C1167 C1151 1.349 . S
C1167 H1159 0.950 . S
C1167 C1165 1.327 . S
C1168 C1156 1.349 . S
C1168 H1162 0.950 . S
C1168 C1169 1.327 . S
C1169 H1163 0.950 . S
C1169 C1168 1.327 . S
C1169 C1173 1.429 . S
C1170 C1153 1.574 . S
C1170 H1164 0.949 . S
C1170 C1174 1.368 . S
C1171 C1152 1.429 . S
C1171 C1165 1.429 . S
C1171 C1172 1.523 . S
C1172 C1153 1.368 . S
C1172 C1166 1.368 . S
C1172 C1171 1.523 . S
C1173 C1157 1.429 . S
C1173 C1169 1.429 . S
C1173 C1174 1.523 . S
C1174 C1158 1.368 . S
C1174 C1170 1.368 . S
C1174 C1173 1.523 . S
H1175 C1150 0.950 . S
H1176 C1152 0.950 . S
H1177 C1153 0.949 . S
H1178 C1155 0.950 . S
H1179 C1157 0.950 . S
C1180 C1181 1.349 . S
C1180 C1182 1.327 . S
C1180 H1205 0.950 . S
C1181 C1180 1.349 . S
C1181 C1197 1.349 . S
C1182 C1180 1.327 . S
C1182 C1201 1.429 . S
C1182 H1206 0.950 . S
C1183 C1200 1.574 . S
C1183 C1202 1.368 . S
C1183 H1207 0.949 . S
H1184 C1188 0.949 . S
C1185 C1186 1.349 . S
C1185 C1187 1.327 . S
C1185 H1208 0.950 . S
C1186 C1185 1.349 . S
C1186 C1198 1.349 . S
C1187 C1185 1.327 . S
C1187 C1203 1.429 . S
C1187 H1209 0.950 . S
C1188 H1184 0.949 . S
C1188 C1196 1.574 . S
C1188 C1204 1.368 . S
H1189 C1197 0.950 . S
H1190 C1195 0.950 . S
H1191 C1196 0.949 . S
H1192 C1198 0.950 . S
H1193 C1199 0.950 . S
H1194 C1200 0.949 . S
C1195 H1190 0.950 . S
C1195 C1197 1.327 . S
C1195 C1201 1.429 . S
C1196 C1188 1.574 . S
C1196 H1191 0.949 . S
C1196 C1202 1.368 . S
C1197 C1181 1.349 . S
C1197 H1189 0.950 . S
C1197 C1195 1.327 . S
C1198 C1186 1.349 . S
C1198 H1192 0.950 . S
C1198 C1199 1.327 . S
C1199 H1193 0.950 . S
C1199 C1198 1.327 . S
C1199 C1203 1.429 . S
C1200 C1183 1.574 . S
C1200 H1194 0.949 . S
C1200 C1204 1.368 . S
C1201 C1182 1.429 . S
C1201 C1195 1.429 . S
C1201 C1202 1.523 . S
C1202 C1183 1.368 . S
C1202 C1196 1.368 . S
C1202 C1201 1.523 . S
C1203 C1187 1.429 . S
C1203 C1199 1.429 . S
C1203 C1204 1.523 . S
C1204 C1188 1.368 . S
C1204 C1200 1.368 . S
C1204 C1203 1.523 . S
H1205 C1180 0.950 . S
H1206 C1182 0.950 . S
H1207 C1183 0.949 . S
H1208 C1185 0.950 . S
H1209 C1187 0.950 . S
C1210 C1211 1.349 . S
C1210 C1212 1.327 . S
C1210 H1235 0.950 . S
C1211 C1210 1.349 . S
C1211 C1227 1.349 . S
C1212 C1210 1.327 . S
C1212 C1231 1.429 . S
C1212 H1236 0.950 . S
C1213 C1230 1.574 . S
C1213 C1232 1.368 . S
C1213 H1237 0.949 . S
H1214 C1218 0.949 . S
C1215 C1216 1.349 . S
C1215 C1217 1.327 . S
C1215 H1238 0.950 1_655 S
C1216 C1215 1.349 . S
C1216 C1228 1.349 . S
C1217 C1215 1.327 . S
C1217 C1233 1.429 . S
C1217 H1239 0.950 . S
C1218 H1214 0.949 . S
C1218 C1226 1.574 . S
C1218 C1234 1.368 . S
H1219 C1227 0.950 . S
H1220 C1225 0.950 . S
H1221 C1226 0.949 . S
H1222 C1228 0.950 . S
H1223 C1229 0.950 . S
H1224 C1230 0.949 . S
C1225 H1220 0.950 . S
C1225 C1227 1.327 . S
C1225 C1231 1.429 . S
C1226 C1218 1.574 . S
C1226 H1221 0.949 . S
C1226 C1232 1.368 . S
C1227 C1211 1.349 . S
C1227 H1219 0.950 . S
C1227 C1225 1.327 . S
C1228 C1216 1.349 . S
C1228 H1222 0.950 . S
C1228 C1229 1.327 . S
C1229 H1223 0.950 . S
C1229 C1228 1.327 . S
C1229 C1233 1.429 . S
C1230 C1213 1.574 . S
C1230 H1224 0.949 . S
C1230 C1234 1.368 . S
C1231 C1212 1.429 . S
C1231 C1225 1.429 . S
C1231 C1232 1.523 . S
C1232 C1213 1.368 . S
C1232 C1226 1.368 . S
C1232 C1231 1.523 . S
C1233 C1217 1.429 . S
C1233 C1229 1.429 . S
C1233 C1234 1.523 . S
C1234 C1218 1.368 . S
C1234 C1230 1.368 . S
C1234 C1233 1.523 . S
H1235 C1210 0.950 . S
H1236 C1212 0.950 . S
H1237 C1213 0.949 . S
H1238 C1215 0.950 1_455 S
H1239 C1217 0.950 . S
C1240 C1241 1.349 . S
C1240 C1242 1.327 . S
C1240 H1265 0.950 . S
C1241 C1240 1.349 . S
C1241 C1257 1.349 . S
C1242 C1240 1.327 . S
C1242 C1261 1.429 . S
C1242 H1266 0.950 . S
C1243 C1260 1.574 . S
C1243 C1262 1.368 . S
C1243 H1267 0.949 . S
H1244 C1248 0.949 . S
C1245 C1246 1.349 . S
C1245 C1247 1.327 . S
C1245 H1268 0.950 . S
C1246 C1245 1.349 . S
C1246 C1258 1.349 . S
C1247 C1245 1.327 . S
C1247 C1263 1.429 . S
C1247 H1269 0.950 . S
C1248 H1244 0.949 . S
C1248 C1256 1.574 . S
C1248 C1264 1.368 . S
H1249 C1257 0.950 . S
H1250 C1255 0.950 . S
H1251 C1256 0.949 . S
H1252 C1258 0.950 1_565 S
H1253 C1259 0.950 . S
H1254 C1260 0.949 . S
C1255 H1250 0.950 . S
C1255 C1257 1.327 . S
C1255 C1261 1.429 . S
C1256 C1248 1.574 . S
C1256 H1251 0.949 . S
C1256 C1262 1.368 . S
C1257 C1241 1.349 . S
C1257 H1249 0.950 . S
C1257 C1255 1.327 . S
C1258 C1246 1.349 . S
C1258 H1252 0.950 1_545 S
C1258 C1259 1.327 . S
C1259 H1253 0.950 . S
C1259 C1258 1.327 . S
C1259 C1263 1.429 . S
C1260 C1243 1.574 . S
C1260 H1254 0.949 . S
C1260 C1264 1.368 . S
C1261 C1242 1.429 . S
C1261 C1255 1.429 . S
C1261 C1262 1.523 . S
C1262 C1243 1.368 . S
C1262 C1256 1.368 . S
C1262 C1261 1.523 . S
C1263 C1247 1.429 . S
C1263 C1259 1.429 . S
C1263 C1264 1.523 . S
C1264 C1248 1.368 . S
C1264 C1260 1.368 . S
C1264 C1263 1.523 . S
H1265 C1240 0.950 . S
H1266 C1242 0.950 . S
H1267 C1243 0.949 . S
H1268 C1245 0.950 . S
H1269 C1247 0.950 . S
C1270 C1271 1.349 . S
C1270 C1272 1.327 . S
C1270 H1295 0.950 . S
C1271 C1270 1.349 . S
C1271 C1287 1.349 . S
C1272 C1270 1.327 . S
C1272 C1291 1.429 . S
C1272 H1296 0.950 . S
C1273 C1290 1.574 . S
C1273 C1292 1.368 . S
C1273 H1297 0.949 . S
H1274 C1278 0.949 . S
C1275 C1276 1.349 . S
C1275 C1277 1.327 . S
C1275 H1298 0.950 . S
C1276 C1275 1.349 . S
C1276 C1288 1.349 . S
C1277 C1275 1.327 . S
C1277 C1293 1.429 . S
C1277 H1299 0.950 . S
C1278 H1274 0.949 . S
C1278 C1286 1.574 . S
C1278 C1294 1.368 . S
H1279 C1287 0.950 . S
H1280 C1285 0.950 . S
H1281 C1286 0.949 . S
H1282 C1288 0.950 . S
H1283 C1289 0.950 . S
H1284 C1290 0.949 . S
C1285 H1280 0.950 . S
C1285 C1287 1.327 . S
C1285 C1291 1.429 . S
C1286 C1278 1.574 . S
C1286 H1281 0.949 . S
C1286 C1292 1.368 . S
C1287 C1271 1.349 . S
C1287 H1279 0.950 . S
C1287 C1285 1.327 . S
C1288 C1276 1.349 . S
C1288 H1282 0.950 . S
C1288 C1289 1.327 . S
C1289 H1283 0.950 . S
C1289 C1288 1.327 . S
C1289 C1293 1.429 . S
C1290 C1273 1.574 . S
C1290 H1284 0.949 . S
C1290 C1294 1.368 . S
C1291 C1272 1.429 . S
C1291 C1285 1.429 . S
C1291 C1292 1.523 . S
C1292 C1273 1.368 . S
C1292 C1286 1.368 . S
C1292 C1291 1.523 . S
C1293 C1277 1.429 . S
C1293 C1289 1.429 . S
C1293 C1294 1.523 . S
C1294 C1278 1.368 . S
C1294 C1290 1.368 . S
C1294 C1293 1.523 . S
H1295 C1270 0.950 . S
H1296 C1272 0.950 . S
H1297 C1273 0.949 . S
H1298 C1275 0.950 . S
H1299 C1277 0.950 . S
C1300 C1301 1.349 . S
C1300 C1302 1.327 . S
C1300 H1325 0.950 . S
C1301 C1300 1.349 . S
C1301 C1317 1.349 . S
C1302 C1300 1.327 . S
C1302 C1321 1.429 . S
C1302 H1326 0.950 . S
C1303 C1320 1.574 . S
C1303 C1322 1.368 . S
C1303 H1327 0.949 . S
H1304 C1308 0.949 . S
C1305 C1306 1.349 . S
C1305 C1307 1.327 . S
C1305 H1328 0.950 . S
C1306 C1305 1.349 . S
C1306 C1318 1.349 . S
C1307 C1305 1.327 . S
C1307 C1323 1.429 . S
C1307 H1329 0.950 . S
C1308 H1304 0.949 . S
C1308 C1316 1.574 . S
C1308 C1324 1.368 . S
H1309 C1317 0.950 . S
H1310 C1315 0.950 . S
H1311 C1316 0.949 . S
H1312 C1318 0.950 . S
H1313 C1319 0.950 . S
H1314 C1320 0.949 . S
C1315 H1310 0.950 . S
C1315 C1317 1.327 . S
C1315 C1321 1.429 . S
C1316 C1308 1.574 . S
C1316 H1311 0.949 . S
C1316 C1322 1.368 . S
C1317 C1301 1.349 . S
C1317 H1309 0.950 . S
C1317 C1315 1.327 . S
C1318 C1306 1.349 . S
C1318 H1312 0.950 . S
C1318 C1319 1.327 . S
C1319 H1313 0.950 . S
C1319 C1318 1.327 . S
C1319 C1323 1.429 . S
C1320 C1303 1.574 . S
C1320 H1314 0.949 . S
C1320 C1324 1.368 . S
C1321 C1302 1.429 . S
C1321 C1315 1.429 . S
C1321 C1322 1.523 . S
C1322 C1303 1.368 . S
C1322 C1316 1.368 . S
C1322 C1321 1.523 . S
C1323 C1307 1.429 . S
C1323 C1319 1.429 . S
C1323 C1324 1.523 . S
C1324 C1308 1.368 . S
C1324 C1320 1.368 . S
C1324 C1323 1.523 . S
H1325 C1300 0.950 . S
H1326 C1302 0.950 . S
H1327 C1303 0.949 . S
H1328 C1305 0.950 . S
H1329 C1307 0.950 . S
C1330 C1331 1.349 . S
C1330 C1332 1.327 . S
C1330 H1355 0.950 . S
C1331 C1330 1.349 . S
C1331 C1347 1.349 . S
C1332 C1330 1.327 . S
C1332 C1351 1.429 . S
C1332 H1356 0.950 . S
C1333 C1350 1.574 . S
C1333 C1352 1.368 . S
C1333 H1357 0.949 . S
H1334 C1338 0.949 . S
C1335 C1336 1.349 . S
C1335 C1337 1.327 . S
C1335 H1358 0.950 1_455 S
C1336 C1335 1.349 . S
C1336 C1348 1.349 . S
C1337 C1335 1.327 . S
C1337 C1353 1.429 . S
C1337 H1359 0.950 . S
C1338 H1334 0.949 . S
C1338 C1346 1.574 . S
C1338 C1354 1.368 . S
H1339 C1347 0.950 . S
H1340 C1345 0.950 . S
H1341 C1346 0.949 . S
H1342 C1348 0.950 . S
H1343 C1349 0.950 . S
H1344 C1350 0.949 . S
C1345 H1340 0.950 . S
C1345 C1347 1.327 . S
C1345 C1351 1.429 . S
C1346 C1338 1.574 . S
C1346 H1341 0.949 . S
C1346 C1352 1.368 . S
C1347 C1331 1.349 . S
C1347 H1339 0.950 . S
C1347 C1345 1.327 . S
C1348 C1336 1.349 . S
C1348 H1342 0.950 . S
C1348 C1349 1.327 . S
C1349 H1343 0.950 . S
C1349 C1348 1.327 . S
C1349 C1353 1.429 . S
C1350 C1333 1.574 . S
C1350 H1344 0.949 . S
C1350 C1354 1.368 . S
C1351 C1332 1.429 . S
C1351 C1345 1.429 . S
C1351 C1352 1.523 . S
C1352 C1333 1.368 . S
C1352 C1346 1.368 . S
C1352 C1351 1.523 . S
C1353 C1337 1.429 . S
C1353 C1349 1.429 . S
C1353 C1354 1.523 . S
C1354 C1338 1.368 . S
C1354 C1350 1.368 . S
C1354 C1353 1.523 . S
H1355 C1330 0.950 . S
H1356 C1332 0.950 . S
H1357 C1333 0.949 . S
H1358 C1335 0.950 1_655 S
H1359 C1337 0.950 . S
C1360 C1361 1.349 . S
C1360 C1362 1.327 . S
C1360 H1385 0.950 . S
C1361 C1360 1.349 . S
C1361 C1377 1.349 . S
C1362 C1360 1.327 . S
C1362 C1381 1.429 . S
C1362 H1386 0.950 . S
C1363 C1380 1.574 . S
C1363 C1382 1.368 . S
C1363 H1387 0.949 . S
H1364 C1368 0.949 . S
C1365 C1366 1.349 . S
C1365 C1367 1.327 . S
C1365 H1388 0.950 . S
C1366 C1365 1.349 . S
C1366 C1378 1.349 . S
C1367 C1365 1.327 . S
C1367 C1383 1.429 . S
C1367 H1389 0.950 . S
C1368 H1364 0.949 . S
C1368 C1376 1.574 . S
C1368 C1384 1.368 . S
H1369 C1377 0.950 . S
H1370 C1375 0.950 . S
H1371 C1376 0.949 . S
H1372 C1378 0.950 . S
H1373 C1379 0.950 . S
H1374 C1380 0.949 . S
C1375 H1370 0.950 . S
C1375 C1377 1.327 . S
C1375 C1381 1.429 . S
C1376 C1368 1.574 . S
C1376 H1371 0.949 . S
C1376 C1382 1.368 . S
C1377 C1361 1.349 . S
C1377 H1369 0.950 . S
C1377 C1375 1.327 . S
C1378 C1366 1.349 . S
C1378 H1372 0.950 . S
C1378 C1379 1.327 . S
C1379 H1373 0.950 . S
C1379 C1378 1.327 . S
C1379 C1383 1.429 . S
C1380 C1363 1.574 . S
C1380 H1374 0.949 . S
C1380 C1384 1.368 . S
C1381 C1362 1.429 . S
C1381 C1375 1.429 . S
C1381 C1382 1.523 . S
C1382 C1363 1.368 . S
C1382 C1376 1.368 . S
C1382 C1381 1.523 . S
C1383 C1367 1.429 . S
C1383 C1379 1.429 . S
C1383 C1384 1.523 . S
C1384 C1368 1.368 . S
C1384 C1380 1.368 . S
C1384 C1383 1.523 . S
H1385 C1360 0.950 . S
H1386 C1362 0.950 . S
H1387 C1363 0.949 . S
H1388 C1365 0.950 . S
H1389 C1367 0.950 . S
C1390 C1391 1.349 . S
C1390 C1392 1.327 . S
C1390 H1415 0.950 . S
C1391 C1390 1.349 . S
C1391 C1407 1.349 . S
C1392 C1390 1.327 . S
C1392 C1411 1.429 . S
C1392 H1416 0.950 . S
C1393 C1410 1.574 . S
C1393 C1412 1.368 . S
C1393 H1417 0.949 . S
H1394 C1398 0.949 . S
C1395 C1396 1.349 . S
C1395 C1397 1.327 . S
C1395 H1418 0.950 . S
C1396 C1395 1.349 . S
C1396 C1408 1.349 . S
C1397 C1395 1.327 . S
C1397 C1413 1.429 . S
C1397 H1419 0.950 . S
C1398 H1394 0.949 . S
C1398 C1406 1.574 . S
C1398 C1414 1.368 . S
H1399 C1407 0.950 . S
H1400 C1405 0.950 . S
H1401 C1406 0.949 . S
H1402 C1408 0.950 . S
H1403 C1409 0.950 . S
H1404 C1410 0.949 . S
C1405 H1400 0.950 . S
C1405 C1407 1.327 . S
C1405 C1411 1.429 . S
C1406 C1398 1.574 . S
C1406 H1401 0.949 . S
C1406 C1412 1.368 . S
C1407 C1391 1.349 . S
C1407 H1399 0.950 . S
C1407 C1405 1.327 . S
C1408 C1396 1.349 . S
C1408 H1402 0.950 . S
C1408 C1409 1.327 . S
C1409 H1403 0.950 . S
C1409 C1408 1.327 . S
C1409 C1413 1.429 . S
C1410 C1393 1.574 . S
C1410 H1404 0.949 . S
C1410 C1414 1.368 . S
C1411 C1392 1.429 . S
C1411 C1405 1.429 . S
C1411 C1412 1.523 . S
C1412 C1393 1.368 . S
C1412 C1406 1.368 . S
C1412 C1411 1.523 . S
C1413 C1397 1.429 . S
C1413 C1409 1.429 . S
C1413 C1414 1.523 . S
C1414 C1398 1.368 . S
C1414 C1410 1.368 . S
C1414 C1413 1.523 . S
H1415 C1390 0.950 . S
H1416 C1392 0.950 . S
H1417 C1393 0.949 . S
H1418 C1395 0.950 . S
H1419 C1397 0.950 . S
C1420 C1421 1.349 . S
C1420 C1422 1.327 . S
C1420 H1445 0.950 . S
C1421 C1420 1.349 . S
C1421 C1437 1.349 . S
C1422 C1420 1.327 . S
C1422 C1441 1.429 . S
C1422 H1446 0.950 . S
C1423 C1440 1.574 . S
C1423 C1442 1.368 . S
C1423 H1447 0.949 . S
H1424 C1428 0.949 . S
C1425 C1426 1.349 . S
C1425 C1427 1.327 . S
C1425 H1448 0.950 . S
C1426 C1425 1.349 . S
C1426 C1438 1.349 . S
C1427 C1425 1.327 . S
C1427 C1443 1.429 . S
C1427 H1449 0.950 . S
C1428 H1424 0.949 . S
C1428 C1436 1.574 . S
C1428 C1444 1.368 . S
H1429 C1437 0.950 . S
H1430 C1435 0.950 . S
H1431 C1436 0.949 . S
H1432 C1438 0.950 . S
H1433 C1439 0.950 . S
H1434 C1440 0.949 . S
C1435 H1430 0.950 . S
C1435 C1437 1.327 . S
C1435 C1441 1.429 . S
C1436 C1428 1.574 . S
C1436 H1431 0.949 . S
C1436 C1442 1.368 . S
C1437 C1421 1.349 . S
C1437 H1429 0.950 . S
C1437 C1435 1.327 . S
C1438 C1426 1.349 . S
C1438 H1432 0.950 . S
C1438 C1439 1.327 . S
C1439 H1433 0.950 . S
C1439 C1438 1.327 . S
C1439 C1443 1.429 . S
C1440 C1423 1.574 . S
C1440 H1434 0.949 . S
C1440 C1444 1.368 . S
C1441 C1422 1.429 . S
C1441 C1435 1.429 . S
C1441 C1442 1.523 . S
C1442 C1423 1.368 . S
C1442 C1436 1.368 . S
C1442 C1441 1.523 . S
C1443 C1427 1.429 . S
C1443 C1439 1.429 . S
C1443 C1444 1.523 . S
C1444 C1428 1.368 . S
C1444 C1440 1.368 . S
C1444 C1443 1.523 . S
H1445 C1420 0.950 . S
H1446 C1422 0.950 . S
H1447 C1423 0.949 . S
H1448 C1425 0.950 . S
H1449 C1427 0.950 . S
C1450 C1451 1.349 . S
C1450 C1452 1.327 . S
C1450 H1475 0.950 . S
C1451 C1450 1.349 . S
C1451 C1467 1.349 . S
C1452 C1450 1.327 . S
C1452 C1471 1.429 . S
C1452 H1476 0.950 . S
C1453 C1470 1.574 . S
C1453 C1472 1.368 . S
C1453 H1477 0.949 . S
H1454 C1458 0.949 . S
C1455 C1456 1.349 . S
C1455 C1457 1.327 . S
C1455 H1478 0.950 . S
C1456 C1455 1.349 . S
C1456 C1468 1.349 . S
C1457 C1455 1.327 . S
C1457 C1473 1.429 . S
C1457 H1479 0.950 . S
C1458 H1454 0.949 . S
C1458 C1466 1.574 . S
C1458 C1474 1.368 . S
H1459 C1467 0.950 . S
H1460 C1465 0.950 . S
H1461 C1466 0.949 . S
H1462 C1468 0.950 . S
H1463 C1469 0.950 . S
H1464 C1470 0.949 . S
C1465 H1460 0.950 . S
C1465 C1467 1.327 . S
C1465 C1471 1.429 . S
C1466 C1458 1.574 . S
C1466 H1461 0.949 . S
C1466 C1472 1.368 . S
C1467 C1451 1.349 . S
C1467 H1459 0.950 . S
C1467 C1465 1.327 . S
C1468 C1456 1.349 . S
C1468 H1462 0.950 . S
C1468 C1469 1.327 . S
C1469 H1463 0.950 . S
C1469 C1468 1.327 . S
C1469 C1473 1.429 . S
C1470 C1453 1.574 . S
C1470 H1464 0.949 . S
C1470 C1474 1.368 . S
C1471 C1452 1.429 . S
C1471 C1465 1.429 . S
C1471 C1472 1.523 . S
C1472 C1453 1.368 . S
C1472 C1466 1.368 . S
C1472 C1471 1.523 . S
C1473 C1457 1.429 . S
C1473 C1469 1.429 . S
C1473 C1474 1.523 . S
C1474 C1458 1.368 . S
C1474 C1470 1.368 . S
C1474 C1473 1.523 . S
H1475 C1450 0.950 . S
H1476 C1452 0.950 . S
H1477 C1453 0.949 . S
H1478 C1455 0.950 . S
H1479 C1457 0.950 . S
C1480 C1481 1.349 . S
C1480 C1482 1.327 . S
C1480 H1505 0.950 . S
C1481 C1480 1.349 . S
C1481 C1497 1.349 . S
C1482 C1480 1.327 . S
C1482 C1501 1.429 . S
C1482 H1506 0.950 . S
C1483 C1500 1.574 . S
C1483 C1502 1.368 . S
C1483 H1507 0.949 . S
H1484 C1488 0.949 . S
C1485 C1486 1.349 . S
C1485 C1487 1.327 . S
C1485 H1508 0.950 . S
C1486 C1485 1.349 . S
C1486 C1498 1.349 . S
C1487 C1485 1.327 . S
C1487 C1503 1.429 . S
C1487 H1509 0.950 . S
C1488 H1484 0.949 . S
C1488 C1496 1.574 . S
C1488 C1504 1.368 . S
H1489 C1497 0.950 . S
H1490 C1495 0.950 . S
H1491 C1496 0.949 . S
H1492 C1498 0.950 . S
H1493 C1499 0.950 . S
H1494 C1500 0.949 . S
C1495 H1490 0.950 . S
C1495 C1497 1.327 . S
C1495 C1501 1.429 . S
C1496 C1488 1.574 . S
C1496 H1491 0.949 . S
C1496 C1502 1.368 . S
C1497 C1481 1.349 . S
C1497 H1489 0.950 . S
C1497 C1495 1.327 . S
C1498 C1486 1.349 . S
C1498 H1492 0.950 . S
C1498 C1499 1.327 . S
C1499 H1493 0.950 . S
C1499 C1498 1.327 . S
C1499 C1503 1.429 . S
C1500 C1483 1.574 . S
C1500 H1494 0.949 . S
C1500 C1504 1.368 . S
C1501 C1482 1.429 . S
C1501 C1495 1.429 . S
C1501 C1502 1.523 . S
C1502 C1483 1.368 . S
C1502 C1496 1.368 . S
C1502 C1501 1.523 . S
C1503 C1487 1.429 . S
C1503 C1499 1.429 . S
C1503 C1504 1.523 . S
C1504 C1488 1.368 . S
C1504 C1500 1.368 . S
C1504 C1503 1.523 . S
H1505 C1480 0.950 . S
H1506 C1482 0.950 . S
H1507 C1483 0.949 . S
H1508 C1485 0.950 . S
H1509 C1487 0.950 . S
C1510 C1511 1.349 . S
C1510 C1512 1.327 . S
C1510 H1535 0.950 . S
C1511 C1510 1.349 . S
C1511 C1527 1.349 . S
C1512 C1510 1.327 . S
C1512 C1531 1.429 . S
C1512 H1536 0.950 . S
C1513 C1530 1.574 . S
C1513 C1532 1.368 . S
C1513 H1537 0.949 . S
H1514 C1518 0.949 . S
C1515 C1516 1.349 . S
C1515 C1517 1.327 . S
C1515 H1538 0.950 . S
C1516 C1515 1.349 . S
C1516 C1528 1.349 . S
C1517 C1515 1.327 . S
C1517 C1533 1.429 . S
C1517 H1539 0.950 . S
C1518 H1514 0.949 . S
C1518 C1526 1.574 . S
C1518 C1534 1.368 . S
H1519 C1527 0.950 . S
H1520 C1525 0.950 . S
H1521 C1526 0.949 . S
H1522 C1528 0.950 . S
H1523 C1529 0.950 . S
H1524 C1530 0.949 . S
C1525 H1520 0.950 . S
C1525 C1527 1.327 . S
C1525 C1531 1.429 . S
C1526 C1518 1.574 . S
C1526 H1521 0.949 . S
C1526 C1532 1.368 . S
C1527 C1511 1.349 . S
C1527 H1519 0.950 . S
C1527 C1525 1.327 . S
C1528 C1516 1.349 . S
C1528 H1522 0.950 . S
C1528 C1529 1.327 . S
C1529 H1523 0.950 . S
C1529 C1528 1.327 . S
C1529 C1533 1.429 . S
C1530 C1513 1.574 . S
C1530 H1524 0.949 . S
C1530 C1534 1.368 . S
C1531 C1512 1.429 . S
C1531 C1525 1.429 . S
C1531 C1532 1.523 . S
C1532 C1513 1.368 . S
C1532 C1526 1.368 . S
C1532 C1531 1.523 . S
C1533 C1517 1.429 . S
C1533 C1529 1.429 . S
C1533 C1534 1.523 . S
C1534 C1518 1.368 . S
C1534 C1530 1.368 . S
C1534 C1533 1.523 . S
H1535 C1510 0.950 . S
H1536 C1512 0.950 . S
H1537 C1513 0.949 . S
H1538 C1515 0.950 . S
H1539 C1517 0.950 . S
C1540 C1541 1.349 . S
C1540 C1542 1.327 . S
C1540 H1565 0.950 . S
C1541 C1540 1.349 . S
C1541 C1557 1.349 . S
C1542 C1540 1.327 . S
C1542 C1561 1.429 . S
C1542 H1566 0.950 . S
C1543 C1560 1.574 . S
C1543 C1562 1.368 . S
C1543 H1567 0.949 . S
H1544 C1548 0.949 . S
C1545 C1546 1.349 . S
C1545 C1547 1.327 . S
C1545 H1568 0.950 . S
C1546 C1545 1.349 . S
C1546 C1558 1.349 . S
C1547 C1545 1.327 . S
C1547 C1563 1.429 . S
C1547 H1569 0.950 . S
C1548 H1544 0.949 . S
C1548 C1556 1.574 . S
C1548 C1564 1.368 . S
H1549 C1557 0.950 . S
H1550 C1555 0.950 . S
H1551 C1556 0.949 . S
H1552 C1558 0.950 . S
H1553 C1559 0.950 . S
H1554 C1560 0.949 . S
C1555 H1550 0.950 . S
C1555 C1557 1.327 . S
C1555 C1561 1.429 . S
C1556 C1548 1.574 . S
C1556 H1551 0.949 . S
C1556 C1562 1.368 . S
C1557 C1541 1.349 . S
C1557 H1549 0.950 . S
C1557 C1555 1.327 . S
C1558 C1546 1.349 . S
C1558 H1552 0.950 . S
C1558 C1559 1.327 . S
C1559 H1553 0.950 . S
C1559 C1558 1.327 . S
C1559 C1563 1.429 . S
C1560 C1543 1.574 . S
C1560 H1554 0.949 . S
C1560 C1564 1.368 . S
C1561 C1542 1.429 . S
C1561 C1555 1.429 . S
C1561 C1562 1.523 . S
C1562 C1543 1.368 . S
C1562 C1556 1.368 . S
C1562 C1561 1.523 . S
C1563 C1547 1.429 . S
C1563 C1559 1.429 . S
C1563 C1564 1.523 . S
C1564 C1548 1.368 . S
C1564 C1560 1.368 . S
C1564 C1563 1.523 . S
H1565 C1540 0.950 . S
H1566 C1542 0.950 . S
H1567 C1543 0.949 . S
H1568 C1545 0.950 . S
H1569 C1547 0.950 . S
C1570 C1571 1.349 . S
C1570 C1572 1.327 . S
C1570 H1595 0.950 . S
C1571 C1570 1.349 . S
C1571 C1587 1.349 . S
C1572 C1570 1.327 . S
C1572 C1591 1.429 . S
C1572 H1596 0.950 . S
C1573 C1590 1.574 . S
C1573 C1592 1.368 . S
C1573 H1597 0.949 . S
H1574 C1578 0.949 . S
C1575 C1576 1.349 . S
C1575 C1577 1.327 . S
C1575 H1598 0.950 . S
C1576 C1575 1.349 . S
C1576 C1588 1.349 . S
C1577 C1575 1.327 . S
C1577 C1593 1.429 . S
C1577 H1599 0.950 . S
C1578 H1574 0.949 . S
C1578 C1586 1.574 . S
C1578 C1594 1.368 . S
H1579 C1587 0.950 . S
H1580 C1585 0.950 . S
H1581 C1586 0.949 . S
H1582 C1588 0.950 . S
H1583 C1589 0.950 . S
H1584 C1590 0.949 . S
C1585 H1580 0.950 . S
C1585 C1587 1.327 . S
C1585 C1591 1.429 . S
C1586 C1578 1.574 . S
C1586 H1581 0.949 . S
C1586 C1592 1.368 . S
C1587 C1571 1.349 . S
C1587 H1579 0.950 . S
C1587 C1585 1.327 . S
C1588 C1576 1.349 . S
C1588 H1582 0.950 . S
C1588 C1589 1.327 . S
C1589 H1583 0.950 . S
C1589 C1588 1.327 . S
C1589 C1593 1.429 . S
C1590 C1573 1.574 . S
C1590 H1584 0.949 . S
C1590 C1594 1.368 . S
C1591 C1572 1.429 . S
C1591 C1585 1.429 . S
C1591 C1592 1.523 . S
C1592 C1573 1.368 . S
C1592 C1586 1.368 . S
C1592 C1591 1.523 . S
C1593 C1577 1.429 . S
C1593 C1589 1.429 . S
C1593 C1594 1.523 . S
C1594 C1578 1.368 . S
C1594 C1590 1.368 . S
C1594 C1593 1.523 . S
H1595 C1570 0.950 . S
H1596 C1572 0.950 . S
H1597 C1573 0.949 . S
H1598 C1575 0.950 . S
H1599 C1577 0.950 . S
C1600 C1601 1.349 . S
C1600 C1602 1.327 . S
C1600 H1625 0.950 . S
C1601 C1600 1.349 . S
C1601 C1617 1.349 . S
C1602 C1600 1.327 . S
C1602 C1621 1.429 . S
C1602 H1626 0.950 . S
C1603 C1620 1.574 . S
C1603 C1622 1.368 . S
C1603 H1627 0.949 . S
H1604 C1608 0.949 . S
C1605 C1606 1.349 . S
C1605 C1607 1.327 . S
C1605 H1628 0.950 . S
C1606 C1605 1.349 . S
C1606 C1618 1.349 . S
C1607 C1605 1.327 . S
C1607 C1623 1.429 . S
C1607 H1629 0.950 . S
C1608 H1604 0.949 . S
C1608 C1616 1.574 . S
C1608 C1624 1.368 . S
H1609 C1617 0.950 . S
H1610 C1615 0.950 . S
H1611 C1616 0.949 . S
H1612 C1618 0.950 . S
H1613 C1619 0.950 . S
H1614 C1620 0.949 . S
C1615 H1610 0.950 . S
C1615 C1617 1.327 . S
C1615 C1621 1.429 . S
C1616 C1608 1.574 . S
C1616 H1611 0.949 . S
C1616 C1622 1.368 . S
C1617 C1601 1.349 . S
C1617 H1609 0.950 . S
C1617 C1615 1.327 . S
C1618 C1606 1.349 . S
C1618 H1612 0.950 . S
C1618 C1619 1.327 . S
C1619 H1613 0.950 . S
C1619 C1618 1.327 . S
C1619 C1623 1.429 . S
C1620 C1603 1.574 . S
C1620 H1614 0.949 . S
C1620 C1624 1.368 . S
C1621 C1602 1.429 . S
C1621 C1615 1.429 . S
C1621 C1622 1.523 . S
C1622 C1603 1.368 . S
C1622 C1616 1.368 . S
C1622 C1621 1.523 . S
C1623 C1607 1.429 . S
C1623 C1619 1.429 . S
C1623 C1624 1.523 . S
C1624 C1608 1.368 . S
C1624 C1620 1.368 . S
C1624 C1623 1.523 . S
H1625 C1600 0.950 . S
H1626 C1602 0.950 . S
H1627 C1603 0.949 . S
H1628 C1605 0.950 . S
H1629 C1607 0.950 . S
C1630 C1631 1.349 . S
C1630 C1632 1.327 . S
C1630 H1655 0.950 . S
C1631 C1630 1.349 . S
C1631 C1647 1.349 . S
C1632 C1630 1.327 . S
C1632 C1651 1.429 . S
C1632 H1656 0.950 . S
C1633 C1650 1.574 . S
C1633 C1652 1.368 . S
C1633 H1657 0.949 . S
H1634 C1638 0.949 . S
C1635 C1636 1.349 . S
C1635 C1637 1.327 . S
C1635 H1658 0.950 . S
C1636 C1635 1.349 . S
C1636 C1648 1.349 . S
C1637 C1635 1.327 . S
C1637 C1653 1.429 . S
C1637 H1659 0.950 . S
C1638 H1634 0.949 . S
C1638 C1646 1.574 . S
C1638 C1654 1.368 . S
H1639 C1647 0.950 . S
H1640 C1645 0.950 . S
H1641 C1646 0.949 . S
H1642 C1648 0.950 . S
H1643 C1649 0.950 . S
H1644 C1650 0.949 . S
C1645 H1640 0.950 . S
C1645 C1647 1.327 . S
C1645 C1651 1.429 . S
C1646 C1638 1.574 . S
C1646 H1641 0.949 . S
C1646 C1652 1.368 . S
C1647 C1631 1.349 . S
C1647 H1639 0.950 . S
C1647 C1645 1.327 . S
C1648 C1636 1.349 . S
C1648 H1642 0.950 . S
C1648 C1649 1.327 . S
C1649 H1643 0.950 . S
C1649 C1648 1.327 . S
C1649 C1653 1.429 . S
C1650 C1633 1.574 . S
C1650 H1644 0.949 . S
C1650 C1654 1.368 . S
C1651 C1632 1.429 . S
C1651 C1645 1.429 . S
C1651 C1652 1.523 . S
C1652 C1633 1.368 . S
C1652 C1646 1.368 . S
C1652 C1651 1.523 . S
C1653 C1637 1.429 . S
C1653 C1649 1.429 . S
C1653 C1654 1.523 . S
C1654 C1638 1.368 . S
C1654 C1650 1.368 . S
C1654 C1653 1.523 . S
H1655 C1630 0.950 . S
H1656 C1632 0.950 . S
H1657 C1633 0.949 . S
H1658 C1635 0.950 . S
H1659 C1637 0.950 . S
C1660 C1661 1.349 . S
C1660 C1662 1.327 . S
C1660 H1685 0.950 . S
C1661 C1660 1.349 . S
C1661 C1677 1.349 . S
C1662 C1660 1.327 . S
C1662 C1681 1.429 . S
C1662 H1686 0.950 . S
C1663 C1680 1.574 . S
C1663 C1682 1.368 . S
C1663 H1687 0.949 . S
H1664 C1668 0.949 . S
C1665 C1666 1.349 . S
C1665 C1667 1.327 . S
C1665 H1688 0.950 . S
C1666 C1665 1.349 . S
C1666 C1678 1.349 . S
C1667 C1665 1.327 . S
C1667 C1683 1.429 . S
C1667 H1689 0.950 . S
C1668 H1664 0.949 . S
C1668 C1676 1.574 . S
C1668 C1684 1.368 . S
H1669 C1677 0.950 . S
H1670 C1675 0.950 . S
H1671 C1676 0.949 . S
H1672 C1678 0.950 . S
H1673 C1679 0.950 . S
H1674 C1680 0.949 . S
C1675 H1670 0.950 . S
C1675 C1677 1.327 . S
C1675 C1681 1.429 . S
C1676 C1668 1.574 . S
C1676 H1671 0.949 . S
C1676 C1682 1.368 . S
C1677 C1661 1.349 . S
C1677 H1669 0.950 . S
C1677 C1675 1.327 . S
C1678 C1666 1.349 . S
C1678 H1672 0.950 . S
C1678 C1679 1.327 . S
C1679 H1673 0.950 . S
C1679 C1678 1.327 . S
C1679 C1683 1.429 . S
C1680 C1663 1.574 . S
C1680 H1674 0.949 . S
C1680 C1684 1.368 . S
C1681 C1662 1.429 . S
C1681 C1675 1.429 . S
C1681 C1682 1.523 . S
C1682 C1663 1.368 . S
C1682 C1676 1.368 . S
C1682 C1681 1.523 . S
C1683 C1667 1.429 . S
C1683 C1679 1.429 . S
C1683 C1684 1.523 . S
C1684 C1668 1.368 . S
C1684 C1680 1.368 . S
C1684 C1683 1.523 . S
H1685 C1660 0.950 . S
H1686 C1662 0.950 . S
H1687 C1663 0.949 . S
H1688 C1665 0.950 . S
H1689 C1667 0.950 . S
C1690 C1691 1.349 . S
C1690 C1692 1.327 . S
C1690 H1715 0.950 . S
C1691 C1690 1.349 . S
C1691 C1707 1.349 . S
C1692 C1690 1.327 . S
C1692 C1711 1.429 . S
C1692 H1716 0.950 . S
C1693 C1710 1.574 . S
C1693 C1712 1.368 . S
C1693 H1717 0.949 . S
H1694 C1698 0.949 . S
C1695 C1696 1.349 . S
C1695 C1697 1.327 . S
C1695 H1718 0.950 . S
C1696 C1695 1.349 . S
C1696 C1708 1.349 . S
C1697 C1695 1.327 . S
C1697 C1713 1.429 . S
C1697 H1719 0.950 . S
C1698 H1694 0.949 . S
C1698 C1706 1.574 . S
C1698 C1714 1.368 . S
H1699 C1707 0.950 . S
H1700 C1705 0.950 . S
H1701 C1706 0.949 . S
H1702 C1708 0.950 . S
H1703 C1709 0.950 . S
H1704 C1710 0.949 . S
C1705 H1700 0.950 . S
C1705 C1707 1.327 . S
C1705 C1711 1.429 . S
C1706 C1698 1.574 . S
C1706 H1701 0.949 . S
C1706 C1712 1.368 . S
C1707 C1691 1.349 . S
C1707 H1699 0.950 . S
C1707 C1705 1.327 . S
C1708 C1696 1.349 . S
C1708 H1702 0.950 . S
C1708 C1709 1.327 . S
C1709 H1703 0.950 . S
C1709 C1708 1.327 . S
C1709 C1713 1.429 . S
C1710 C1693 1.574 . S
C1710 H1704 0.949 . S
C1710 C1714 1.368 . S
C1711 C1692 1.429 . S
C1711 C1705 1.429 . S
C1711 C1712 1.523 . S
C1712 C1693 1.368 . S
C1712 C1706 1.368 . S
C1712 C1711 1.523 . S
C1713 C1697 1.429 . S
C1713 C1709 1.429 . S
C1713 C1714 1.523 . S
C1714 C1698 1.368 . S
C1714 C1710 1.368 . S
C1714 C1713 1.523 . S
H1715 C1690 0.950 . S
H1716 C1692 0.950 . S
H1717 C1693 0.949 . S
H1718 C1695 0.950 . S
H1719 C1697 0.950 . S
C1720 C1721 1.349 . S
C1720 C1722 1.327 . S
C1720 H1745 0.950 . S
C1721 C1720 1.349 . S
C1721 C1737 1.349 . S
C1722 C1720 1.327 . S
C1722 C1741 1.429 . S
C1722 H1746 0.950 . S
C1723 C1740 1.574 . S
C1723 C1742 1.368 . S
C1723 H1747 0.949 . S
H1724 C1728 0.949 1_556 S
C1725 C1726 1.349 . S
C1725 C1727 1.327 . S
C1725 H1748 0.950 . S
C1726 C1725 1.349 . S
C1726 C1738 1.349 . S
C1727 C1725 1.327 . S
C1727 C1743 1.429 . S
C1727 H1749 0.950 . S
C1728 H1724 0.949 1_554 S
C1728 C1736 1.574 1_554 S
C1728 C1744 1.368 . S
H1729 C1737 0.950 . S
H1730 C1735 0.950 1_554 S
H1731 C1736 0.949 . S
H1732 C1738 0.950 . S
H1733 C1739 0.950 . S
H1734 C1740 0.949 . S
C1735 H1730 0.950 1_556 S
C1735 C1737 1.327 . S
C1735 C1741 1.429 . S
C1736 C1728 1.574 1_556 S
C1736 H1731 0.949 . S
C1736 C1742 1.368 1_556 S
C1737 C1721 1.349 . S
C1737 H1729 0.950 . S
C1737 C1735 1.327 . S
C1738 C1726 1.349 . S
C1738 H1732 0.950 . S
C1738 C1739 1.327 . S
C1739 H1733 0.950 . S
C1739 C1738 1.327 . S
C1739 C1743 1.429 . S
C1740 C1723 1.574 . S
C1740 H1734 0.949 . S
C1740 C1744 1.368 . S
C1741 C1722 1.429 . S
C1741 C1735 1.429 . S
C1741 C1742 1.523 1_556 S
C1742 C1723 1.368 . S
C1742 C1736 1.368 1_554 S
C1742 C1741 1.523 1_554 S
C1743 C1727 1.429 . S
C1743 C1739 1.429 . S
C1743 C1744 1.523 . S
C1744 C1728 1.368 . S
C1744 C1740 1.368 . S
C1744 C1743 1.523 . S
H1745 C1720 0.950 . S
H1746 C1722 0.950 . S
H1747 C1723 0.949 . S
H1748 C1725 0.950 . S
H1749 C1727 0.950 . S
C1750 C1751 1.349 . S
C1750 C1752 1.327 . S
C1750 H1775 0.950 . S
C1751 C1750 1.349 . S
C1751 C1767 1.349 . S
C1752 C1750 1.327 . S
C1752 C1771 1.429 . S
C1752 H1776 0.950 . S
C1753 C1770 1.574 1_554 S
C1753 C1772 1.368 . S
C1753 H1777 0.957 . S
H1754 C1758 0.949 . S
C1755 C1756 1.349 . S
C1755 C1757 1.327 . S
C1755 H1778 0.950 . S
C1756 C1755 1.349 . S
C1756 C1768 1.349 . S
C1757 C1755 1.327 . S
C1757 C1773 1.429 . S
C1757 H1779 0.950 . S
C1758 H1754 0.949 . S
C1758 C1766 1.574 . S
C1758 C1774 1.368 . S
H1759 C1767 0.950 . S
H1760 C1765 0.950 . S
H1761 C1766 0.949 . S
H1762 C1768 0.950 . S
H1763 C1769 0.950 1_554 S
H1764 C1770 0.949 . S
C1765 H1760 0.950 . S
C1765 C1767 1.327 . S
C1765 C1771 1.429 . S
C1766 C1758 1.574 . S
C1766 H1761 0.949 . S
C1766 C1772 1.368 . S
C1767 C1751 1.349 . S
C1767 H1759 0.950 . S
C1767 C1765 1.327 . S
C1768 C1756 1.349 . S
C1768 H1762 0.950 . S
C1768 C1769 1.327 . S
C1769 H1763 0.950 1_556 S
C1769 C1768 1.327 . S
C1769 C1773 1.429 . S
C1770 C1753 1.574 1_556 S
C1770 H1764 0.949 . S
C1770 C1774 1.368 1_556 S
C1771 C1752 1.429 . S
C1771 C1765 1.429 . S
C1771 C1772 1.523 . S
C1772 C1753 1.368 . S
C1772 C1766 1.368 . S
C1772 C1771 1.523 . S
C1773 C1757 1.429 . S
C1773 C1769 1.429 . S
C1773 C1774 1.523 1_556 S
C1774 C1758 1.368 . S
C1774 C1770 1.368 1_554 S
C1774 C1773 1.523 1_554 S
H1775 C1750 0.950 . S
H1776 C1752 0.950 . S
H1777 C1753 0.957 . S
H1778 C1755 0.950 . S
H1779 C1757 0.950 . S
C1780 C1781 1.349 . S
C1780 C1782 1.327 . S
C1780 H1805 0.950 . S
C1781 C1780 1.349 . S
C1781 C1797 1.349 . S
C1782 C1780 1.327 . S
C1782 C1801 1.429 . S
C1782 H1806 0.950 1_556 S
C1783 C1800 1.574 1_556 S
C1783 C1802 1.368 1_556 S
C1783 H1807 0.949 . S
H1784 C1788 0.949 . S
C1785 C1786 1.349 . S
C1785 C1787 1.327 . S
C1785 H1808 0.950 . S
C1786 C1785 1.349 . S
C1786 C1798 1.349 . S
C1787 C1785 1.327 . S
C1787 C1803 1.429 . S
C1787 H1809 0.950 . S
C1788 H1784 0.949 . S
C1788 C1796 1.574 . S
C1788 C1804 1.368 . S
H1789 C1797 0.950 . S
H1790 C1795 0.950 . S
H1791 C1796 0.949 . S
H1792 C1798 0.950 . S
H1793 C1799 0.950 . S
H1794 C1800 0.949 . S
C1795 H1790 0.950 . S
C1795 C1797 1.327 . S
C1795 C1801 1.429 . S
C1796 C1788 1.574 . S
C1796 H1791 0.949 . S
C1796 C1802 1.368 . S
C1797 C1781 1.349 . S
C1797 H1789 0.950 . S
C1797 C1795 1.327 . S
C1798 C1786 1.349 . S
C1798 H1792 0.950 . S
C1798 C1799 1.327 . S
C1799 H1793 0.950 . S
C1799 C1798 1.327 . S
C1799 C1803 1.429 . S
C1800 C1783 1.574 1_554 S
C1800 H1794 0.949 . S
C1800 C1804 1.368 . S
C1801 C1782 1.429 . S
C1801 C1795 1.429 . S
C1801 C1802 1.523 1_556 S
C1802 C1783 1.368 1_554 S
C1802 C1796 1.368 . S
C1802 C1801 1.523 1_554 S
C1803 C1787 1.429 . S
C1803 C1799 1.429 . S
C1803 C1804 1.523 . S
C1804 C1788 1.368 . S
C1804 C1800 1.368 . S
C1804 C1803 1.523 . S
H1805 C1780 0.950 . S
H1806 C1782 0.950 1_554 S
H1807 C1783 0.949 . S
H1808 C1785 0.950 . S
H1809 C1787 0.950 . S
C1810 C1811 1.349 . S
C1810 C1812 1.327 . S
C1810 H1835 0.950 . S
C1811 C1810 1.349 . S
C1811 C1827 1.349 . S
C1812 C1810 1.327 . S
C1812 C1831 1.429 . S
C1812 H1836 0.950 . S
C1813 C1830 1.574 1_554 S
C1813 C1832 1.368 . S
C1813 H1837 0.949 . S
H1814 C1818 0.949 . S
C1815 C1816 1.349 . S
C1815 C1817 1.327 . S
C1815 H1838 0.950 . S
C1816 C1815 1.349 . S
C1816 C1828 1.349 . S
C1817 C1815 1.327 . S
C1817 C1833 1.429 . S
C1817 H1839 0.950 . S
C1818 H1814 0.949 . S
C1818 C1826 1.574 . S
C1818 C1834 1.368 . S
H1819 C1827 0.950 . S
H1820 C1825 0.950 . S
H1821 C1826 0.949 . S
H1822 C1828 0.950 . S
H1823 C1829 0.950 1_554 S
H1824 C1830 0.949 . S
C1825 H1820 0.950 . S
C1825 C1827 1.327 . S
C1825 C1831 1.429 . S
C1826 C1818 1.574 . S
C1826 H1821 0.949 . S
C1826 C1832 1.368 . S
C1827 C1811 1.349 . S
C1827 H1819 0.950 . S
C1827 C1825 1.327 . S
C1828 C1816 1.349 . S
C1828 H1822 0.950 . S
C1828 C1829 1.327 . S
C1829 H1823 0.950 1_556 S
C1829 C1828 1.327 . S
C1829 C1833 1.429 . S
C1830 C1813 1.574 1_556 S
C1830 H1824 0.949 . S
C1830 C1834 1.368 1_556 S
C1831 C1812 1.429 . S
C1831 C1825 1.429 . S
C1831 C1832 1.523 . S
C1832 C1813 1.368 . S
C1832 C1826 1.368 . S
C1832 C1831 1.523 . S
C1833 C1817 1.429 . S
C1833 C1829 1.429 . S
C1833 C1834 1.523 1_556 S
C1834 C1818 1.368 . S
C1834 C1830 1.368 1_554 S
C1834 C1833 1.523 1_554 S
H1835 C1810 0.950 . S
H1836 C1812 0.950 . S
H1837 C1813 0.949 . S
H1838 C1815 0.950 . S
H1839 C1817 0.950 . S
C1840 C1841 1.349 . S
C1840 C1842 1.327 . S
C1840 H1865 0.950 . S
C1841 C1840 1.349 . S
C1841 C1857 1.349 . S
C1842 C1840 1.327 . S
C1842 C1861 1.429 . S
C1842 H1866 0.950 . S
C1843 C1860 1.574 . S
C1843 C1862 1.368 . S
C1843 H1867 0.949 . S
H1844 C1848 0.949 . S
C1845 C1846 1.349 . S
C1845 C1847 1.327 . S
C1845 H1868 0.950 . S
C1846 C1845 1.349 . S
C1846 C1858 1.349 . S
C1847 C1845 1.327 . S
C1847 C1863 1.429 . S
C1847 H1869 0.950 . S
C1848 H1844 0.949 . S
C1848 C1856 1.574 . S
C1848 C1864 1.368 . S
H1849 C1857 0.950 . S
H1850 C1855 0.950 . S
H1851 C1856 0.949 . S
H1852 C1858 0.950 . S
H1853 C1859 0.950 . S
H1854 C1860 0.949 . S
C1855 H1850 0.950 . S
C1855 C1857 1.327 . S
C1855 C1861 1.429 . S
C1856 C1848 1.574 . S
C1856 H1851 0.949 . S
C1856 C1862 1.368 . S
C1857 C1841 1.349 . S
C1857 H1849 0.950 . S
C1857 C1855 1.327 . S
C1858 C1846 1.349 . S
C1858 H1852 0.950 . S
C1858 C1859 1.327 . S
C1859 H1853 0.950 . S
C1859 C1858 1.327 . S
C1859 C1863 1.429 . S
C1860 C1843 1.574 . S
C1860 H1854 0.949 . S
C1860 C1864 1.368 . S
C1861 C1842 1.429 . S
C1861 C1855 1.429 . S
C1861 C1862 1.523 . S
C1862 C1843 1.368 . S
C1862 C1856 1.368 . S
C1862 C1861 1.523 . S
C1863 C1847 1.429 . S
C1863 C1859 1.429 . S
C1863 C1864 1.523 . S
C1864 C1848 1.368 . S
C1864 C1860 1.368 . S
C1864 C1863 1.523 . S
H1865 C1840 0.950 . S
H1866 C1842 0.950 . S
H1867 C1843 0.949 . S
H1868 C1845 0.950 . S
H1869 C1847 0.950 . S
C1870 C1871 1.349 . S
C1870 C1872 1.327 . S
C1870 H1895 0.950 . S
C1871 C1870 1.349 . S
C1871 C1887 1.349 . S
C1872 C1870 1.327 . S
C1872 C1891 1.429 . S
C1872 H1896 0.950 . S
C1873 C1890 1.574 . S
C1873 C1892 1.368 . S
C1873 H1897 0.949 . S
H1874 C1878 0.949 . S
C1875 C1876 1.349 . S
C1875 C1877 1.327 . S
C1875 H1898 0.950 . S
C1876 C1875 1.349 . S
C1876 C1888 1.349 . S
C1877 C1875 1.327 . S
C1877 C1893 1.429 . S
C1877 H1899 0.950 . S
C1878 H1874 0.949 . S
C1878 C1886 1.574 . S
C1878 C1894 1.368 . S
H1879 C1887 0.950 . S
H1880 C1885 0.950 . S
H1881 C1886 0.949 . S
H1882 C1888 0.950 . S
H1883 C1889 0.950 . S
H1884 C1890 0.949 . S
C1885 H1880 0.950 . S
C1885 C1887 1.327 . S
C1885 C1891 1.429 . S
C1886 C1878 1.574 . S
C1886 H1881 0.949 . S
C1886 C1892 1.368 . S
C1887 C1871 1.349 . S
C1887 H1879 0.950 . S
C1887 C1885 1.327 . S
C1888 C1876 1.349 . S
C1888 H1882 0.950 . S
C1888 C1889 1.327 . S
C1889 H1883 0.950 . S
C1889 C1888 1.327 . S
C1889 C1893 1.429 . S
C1890 C1873 1.574 . S
C1890 H1884 0.949 . S
C1890 C1894 1.368 . S
C1891 C1872 1.429 . S
C1891 C1885 1.429 . S
C1891 C1892 1.523 . S
C1892 C1873 1.368 . S
C1892 C1886 1.368 . S
C1892 C1891 1.523 . S
C1893 C1877 1.429 . S
C1893 C1889 1.429 . S
C1893 C1894 1.523 . S
C1894 C1878 1.368 . S
C1894 C1890 1.368 . S
C1894 C1893 1.523 . S
H1895 C1870 0.950 . S
H1896 C1872 0.950 . S
H1897 C1873 0.949 . S
H1898 C1875 0.950 . S
H1899 C1877 0.950 . S
C1900 C1901 1.349 . S
C1900 C1902 1.327 . S
C1900 H1925 0.950 . S
C1901 C1900 1.349 . S
C1901 C1917 1.349 . S
C1902 C1900 1.327 . S
C1902 C1921 1.429 . S
C1902 H1926 0.950 . S
C1903 C1920 1.574 . S
C1903 C1922 1.368 . S
C1903 H1927 0.949 . S
H1904 C1908 0.949 . S
C1905 C1906 1.349 . S
C1905 C1907 1.327 . S
C1905 H1928 0.950 . S
C1906 C1905 1.349 . S
C1906 C1918 1.349 . S
C1907 C1905 1.327 . S
C1907 C1923 1.429 . S
C1907 H1929 0.950 . S
C1908 H1904 0.949 . S
C1908 C1916 1.574 . S
C1908 C1924 1.368 . S
H1909 C1917 0.950 . S
H1910 C1915 0.950 . S
H1911 C1916 0.949 . S
H1912 C1918 0.950 . S
H1913 C1919 0.950 . S
H1914 C1920 0.949 . S
C1915 H1910 0.950 . S
C1915 C1917 1.327 . S
C1915 C1921 1.429 . S
C1916 C1908 1.574 . S
C1916 H1911 0.949 . S
C1916 C1922 1.368 . S
C1917 C1901 1.349 . S
C1917 H1909 0.950 . S
C1917 C1915 1.327 . S
C1918 C1906 1.349 . S
C1918 H1912 0.950 . S
C1918 C1919 1.327 . S
C1919 H1913 0.950 . S
C1919 C1918 1.327 . S
C1919 C1923 1.429 . S
C1920 C1903 1.574 . S
C1920 H1914 0.949 . S
C1920 C1924 1.368 . S
C1921 C1902 1.429 . S
C1921 C1915 1.429 . S
C1921 C1922 1.523 . S
C1922 C1903 1.368 . S
C1922 C1916 1.368 . S
C1922 C1921 1.523 . S
C1923 C1907 1.429 . S
C1923 C1919 1.429 . S
C1923 C1924 1.523 . S
C1924 C1908 1.368 . S
C1924 C1920 1.368 . S
C1924 C1923 1.523 . S
H1925 C1900 0.950 . S
H1926 C1902 0.950 . S
H1927 C1903 0.949 . S
H1928 C1905 0.950 . S
H1929 C1907 0.950 . S
C1930 C1931 1.349 . S
C1930 C1932 1.327 . S
C1930 H1955 0.950 . S
C1931 C1930 1.349 . S
C1931 C1947 1.349 . S
C1932 C1930 1.327 . S
C1932 C1951 1.429 . S
C1932 H1956 0.950 . S
C1933 C1950 1.574 . S
C1933 C1952 1.368 . S
C1933 H1957 0.949 . S
H1934 C1938 0.949 . S
C1935 C1936 1.349 . S
C1935 C1937 1.327 . S
C1935 H1958 0.950 . S
C1936 C1935 1.349 . S
C1936 C1948 1.349 . S
C1937 C1935 1.327 . S
C1937 C1953 1.429 . S
C1937 H1959 0.950 . S
C1938 H1934 0.949 . S
C1938 C1946 1.574 . S
C1938 C1954 1.368 . S
H1939 C1947 0.950 . S
H1940 C1945 0.950 . S
H1941 C1946 0.949 . S
H1942 C1948 0.950 . S
H1943 C1949 0.950 . S
H1944 C1950 0.949 . S
C1945 H1940 0.950 . S
C1945 C1947 1.327 . S
C1945 C1951 1.429 . S
C1946 C1938 1.574 . S
C1946 H1941 0.949 . S
C1946 C1952 1.368 . S
C1947 C1931 1.349 . S
C1947 H1939 0.950 . S
C1947 C1945 1.327 . S
C1948 C1936 1.349 . S
C1948 H1942 0.950 . S
C1948 C1949 1.327 . S
C1949 H1943 0.950 . S
C1949 C1948 1.327 . S
C1949 C1953 1.429 . S
C1950 C1933 1.574 . S
C1950 H1944 0.949 . S
C1950 C1954 1.368 . S
C1951 C1932 1.429 . S
C1951 C1945 1.429 . S
C1951 C1952 1.523 . S
C1952 C1933 1.368 . S
C1952 C1946 1.368 . S
C1952 C1951 1.523 . S
C1953 C1937 1.429 . S
C1953 C1949 1.429 . S
C1953 C1954 1.523 . S
C1954 C1938 1.368 . S
C1954 C1950 1.368 . S
C1954 C1953 1.523 . S
H1955 C1930 0.950 . S
H1956 C1932 0.950 . S
H1957 C1933 0.949 . S
H1958 C1935 0.950 . S
H1959 C1937 0.950 . S
C1960 C1961 1.349 . S
C1960 C1962 1.327 . S
C1960 H1985 0.950 . S
C1961 C1960 1.349 . S
C1961 C1977 1.349 . S
C1962 C1960 1.327 . S
C1962 C1981 1.429 . S
C1962 H1986 0.950 . S
C1963 C1980 1.591 . S
C1963 C1982 1.368 . S
C1963 H1987 0.949 . S
H1964 C1968 0.949 . S
C1965 C1966 1.349 . S
C1965 C1967 1.327 . S
C1965 H1988 0.950 . S
C1966 C1965 1.349 . S
C1966 C1978 1.349 . S
C1967 C1965 1.327 . S
C1967 C1983 1.429 . S
C1967 H1989 0.950 . S
C1968 H1964 0.949 . S
C1968 C1976 1.574 . S
C1968 C1984 1.368 . S
H1969 C1977 0.950 . S
H1970 C1975 0.950 . S
H1971 C1976 0.949 . S
H1972 C1978 0.950 . S
H1973 C1979 0.950 . S
H1974 C1980 0.933 1_554 S
C1975 H1970 0.950 . S
C1975 C1977 1.327 . S
C1975 C1981 1.429 . S
C1976 C1968 1.574 . S
C1976 H1971 0.949 . S
C1976 C1982 1.368 . S
C1977 C1961 1.349 . S
C1977 H1969 0.950 . S
C1977 C1975 1.327 . S
C1978 C1966 1.349 . S
C1978 H1972 0.950 . S
C1978 C1979 1.327 . S
C1979 H1973 0.950 . S
C1979 C1978 1.327 . S
C1979 C1983 1.429 . S
C1980 C1963 1.591 . S
C1980 H1974 0.933 1_556 S
C1980 C1984 1.370 . S
C1981 C1962 1.429 . S
C1981 C1975 1.429 . S
C1981 C1982 1.523 . S
C1982 C1963 1.368 . S
C1982 C1976 1.368 . S
C1982 C1981 1.523 . S
C1983 C1967 1.429 . S
C1983 C1979 1.429 . S
C1983 C1984 1.523 1_554 S
C1984 C1968 1.368 . S
C1984 C1980 1.370 . S
C1984 C1983 1.523 1_556 S
H1985 C1960 0.950 . S
H1986 C1962 0.950 . S
H1987 C1963 0.949 . S
H1988 C1965 0.950 . S
H1989 C1967 0.950 . S
C1990 C1991 1.349 . S
C1990 C1992 1.327 . S
C1990 H2015 0.950 . S
C1991 C1990 1.349 . S
C1991 C2007 1.349 . S
C1992 C1990 1.327 . S
C1992 C2011 1.429 . S
C1992 H2016 0.950 . S
C1993 C2010 1.574 . S
C1993 C2012 1.368 . S
C1993 H2017 0.949 . S
H1994 C1998 0.949 . S
C1995 C1996 1.349 . S
C1995 C1997 1.319 1_554 S
C1995 H2018 0.950 . S
C1996 C1995 1.349 . S
C1996 C2008 1.349 . S
C1997 C1995 1.319 1_556 S
C1997 C2013 1.421 1_556 S
C1997 H2019 0.965 . S
C1998 H1994 0.949 . S
C1998 C2006 1.557 1_554 S
C1998 C2014 1.368 1_554 S
H1999 C2007 0.950 . S
H2000 C2005 0.950 . S
H2001 C2006 0.934 1_554 S
H2002 C2008 0.950 . S
H2003 C2009 0.950 . S
H2004 C2010 0.949 . S
C2005 H2000 0.950 . S
C2005 C2007 1.327 . S
C2005 C2011 1.429 . S
C2006 C1998 1.557 1_556 S
C2006 H2001 0.934 1_556 S
C2006 C2012 1.404 . S
C2007 C1991 1.349 . S
C2007 H1999 0.950 . S
C2007 C2005 1.327 . S
C2008 C1996 1.349 . S
C2008 H2002 0.950 . S
C2008 C2009 1.327 . S
C2009 H2003 0.950 . S
C2009 C2008 1.327 . S
C2009 C2013 1.429 . S
C2010 C1993 1.574 . S
C2010 H2004 0.949 . S
C2010 C2014 1.368 . S
C2011 C1992 1.429 . S
C2011 C2005 1.429 . S
C2011 C2012 1.523 . S
C2012 C1993 1.368 . S
C2012 C2006 1.404 . S
C2012 C2011 1.523 . S
C2013 C1997 1.421 1_554 S
C2013 C2009 1.429 . S
C2013 C2014 1.523 1_554 S
C2014 C1998 1.368 1_556 S
C2014 C2010 1.368 . S
C2014 C2013 1.523 1_556 S
H2015 C1990 0.950 . S
H2016 C1992 0.950 . S
H2017 C1993 0.949 . S
H2018 C1995 0.950 . S
H2019 C1997 0.965 . S
C2020 C2021 1.349 . S
C2020 C2022 1.327 1_554 S
C2020 H2045 0.950 1_554 S
C2021 C2020 1.349 . S
C2021 C2037 1.349 . S
C2022 C2020 1.327 1_556 S
C2022 C2041 1.429 1_556 S
C2022 H2046 0.950 . S
C2023 C2040 1.574 . S
C2023 C2042 1.368 1_554 S
C2023 H2047 0.949 . S
H2024 C2028 0.949 . S
C2025 C2026 1.349 . S
C2025 C2027 1.327 . S
C2025 H2048 0.950 . S
C2026 C2025 1.349 . S
C2026 C2038 1.349 . S
C2027 C2025 1.327 . S
C2027 C2043 1.429 . S
C2027 H2049 0.950 . S
C2028 H2024 0.949 . S
C2028 C2036 1.574 . S
C2028 C2044 1.368 . S
H2029 C2037 0.950 . S
H2030 C2035 0.950 . S
H2031 C2036 0.949 . S
H2032 C2038 0.950 . S
H2033 C2039 0.950 . S
H2034 C2040 0.949 . S
C2035 H2030 0.950 . S
C2035 C2037 1.327 . S
C2035 C2041 1.429 . S
C2036 C2028 1.574 . S
C2036 H2031 0.949 . S
C2036 C2042 1.368 . S
C2037 C2021 1.349 . S
C2037 H2029 0.950 . S
C2037 C2035 1.327 . S
C2038 C2026 1.349 . S
C2038 H2032 0.950 . S
C2038 C2039 1.327 . S
C2039 H2033 0.950 . S
C2039 C2038 1.327 . S
C2039 C2043 1.429 . S
C2040 C2023 1.574 . S
C2040 H2034 0.949 . S
C2040 C2044 1.368 1_554 S
C2041 C2022 1.429 1_554 S
C2041 C2035 1.429 . S
C2041 C2042 1.523 1_554 S
C2042 C2023 1.368 1_556 S
C2042 C2036 1.368 . S
C2042 C2041 1.523 1_556 S
C2043 C2027 1.429 . S
C2043 C2039 1.429 . S
C2043 C2044 1.523 . S
C2044 C2028 1.368 . S
C2044 C2040 1.368 1_556 S
C2044 C2043 1.523 . S
H2045 C2020 0.950 1_556 S
H2046 C2022 0.950 . S
H2047 C2023 0.949 . S
H2048 C2025 0.950 . S
H2049 C2027 0.950 . S
C2050 C2051 1.349 . S
C2050 C2052 1.327 . S
C2050 H2075 0.950 . S
C2051 C2050 1.349 . S
C2051 C2067 1.349 . S
C2052 C2050 1.327 . S
C2052 C2071 1.429 . S
C2052 H2076 0.950 1_554 S
C2053 C2070 1.574 1_554 S
C2053 C2072 1.368 1_554 S
C2053 H2077 0.949 . S
H2054 C2058 0.949 . S
C2055 C2056 1.349 . S
C2055 C2057 1.327 . S
C2055 H2078 0.950 . S
C2056 C2055 1.349 . S
C2056 C2068 1.349 . S
C2057 C2055 1.327 . S
C2057 C2073 1.429 . S
C2057 H2079 0.950 . S
C2058 H2054 0.949 . S
C2058 C2066 1.574 . S
C2058 C2074 1.368 . S
H2059 C2067 0.950 . S
H2060 C2065 0.950 . S
H2061 C2066 0.949 . S
H2062 C2068 0.950 . S
H2063 C2069 0.950 . S
H2064 C2070 0.949 . S
C2065 H2060 0.950 . S
C2065 C2067 1.327 . S
C2065 C2071 1.429 . S
C2066 C2058 1.574 . S
C2066 H2061 0.949 . S
C2066 C2072 1.368 . S
C2067 C2051 1.349 . S
C2067 H2059 0.950 . S
C2067 C2065 1.327 . S
C2068 C2056 1.349 . S
C2068 H2062 0.950 . S
C2068 C2069 1.327 . S
C2069 H2063 0.950 . S
C2069 C2068 1.327 . S
C2069 C2073 1.429 . S
C2070 C2053 1.574 1_556 S
C2070 H2064 0.949 . S
C2070 C2074 1.368 . S
C2071 C2052 1.429 . S
C2071 C2065 1.429 . S
C2071 C2072 1.523 1_554 S
C2072 C2053 1.368 1_556 S
C2072 C2066 1.368 . S
C2072 C2071 1.523 1_556 S
C2073 C2057 1.429 . S
C2073 C2069 1.429 . S
C2073 C2074 1.523 . S
C2074 C2058 1.368 . S
C2074 C2070 1.368 . S
C2074 C2073 1.523 . S
H2075 C2050 0.950 . S
H2076 C2052 0.950 1_556 S
H2077 C2053 0.949 . S
H2078 C2055 0.950 . S
H2079 C2057 0.950 . S
C641 C2 2.349 . S
C646 C202 2.349 . S
C671 C242 2.350 . S
C676 C42 2.350 . S
C701 C82 2.349 . S
C706 C282 2.349 . S
C731 C122 2.350 . S
C736 C162 2.350 . S
C761 C543 2.349 . S
C766 C343 2.349 . S
C791 C583 2.350 . S
C796 C383 2.350 . S
C821 C423 2.349 . S
C826 C623 2.349 . S
C851 C463 2.350 . S
C856 C503 2.350 . S
C881 C17 1.810 . S
C886 C144 1.713 1_545 S
C911 C57 1.809 . S
C916 C24 1.713 . S
C941 C97 1.809 . S
C946 C64 1.713 . S
C971 C137 1.809 . S
C976 C104 1.713 1_455 S
C1001 C177 1.809 . S
C1006 C224 1.713 1_565 S
C1031 C264 1.713 . S
C1036 C217 1.809 . S
C1061 C257 1.809 . S
C1066 C304 1.713 . S
C1091 C184 1.713 1_655 S
C1096 C297 1.810 . S
C1121 C453 1.713 1_565 S
C1126 C346 1.809 . S
C1151 C386 1.809 . S
C1156 C333 1.713 . S
C1181 C426 1.809 . S
C1186 C373 1.713 . S
C1211 C466 1.809 . S
C1216 C413 1.713 1_655 S
C1241 C506 1.809 . S
C1246 C533 1.713 1_545 S
C1271 C546 1.809 . S
C1276 C573 1.713 . S
C1301 C586 1.809 . S
C1306 C613 1.713 . S
C1331 C626 1.809 . S
C1336 C493 1.713 1_455 S
C1361 C26 1.571 . S
C1366 C106 1.571 . S
C1391 C66 1.571 . S
C1396 C146 1.571 . S
C1421 C266 1.571 . S
C1426 C186 1.571 . S
C1451 C306 1.571 . S
C1456 C226 1.571 . S
C1481 C417 1.570 . S
C1486 C337 1.570 . S
C1511 C457 1.571 . S
C1516 C377 1.571 . S
C1541 C497 1.571 . S
C1546 C577 1.571 . S
C1571 C537 1.570 . S
C1576 C617 1.570 . S
C1601 C13 2.428 . S
C1606 C442 2.413 . S
C1631 C322 2.413 . S
C1636 C53 2.429 . S
C1661 C93 2.429 . S
C1666 C362 2.413 . S
C1691 C402 2.413 . S
C1696 C133 2.429 . S
C1721 C522 2.413 . S
C1726 C173 2.429 . S
C1751 C213 2.429 . S
C1756 C562 2.413 . S
C1781 C602 2.413 . S
C1786 C253 2.429 . S
C1811 C293 2.428 . S
C1816 C482 2.413 . S
C1841 C344 2.428 . S
C1846 C143 2.413 . S
C1871 C384 2.429 . S
C1876 C23 2.413 . S
C1901 C63 2.413 . S
C1906 C424 2.429 . S
C1931 C464 2.429 . S
C1936 C103 2.413 . S
C1961 C504 2.429 . S
C1966 C223 2.413 . S
C1991 C544 2.429 . S
C1996 C263 2.413 . S
C2021 C303 2.413 . S
C2026 C584 2.429 . S
C2051 C183 2.413 . S
C2056 C624 2.428 . S
