# Generated by pormake.
# Topology vcc, (6)-cn, num edge types: 1
# Building blocks:
#     Node 0, Type 0, BuildingBlock: MIDCAF_clean_sbu_0, # of connection points: 6
#     Node 1, Type 0, BuildingBlock: MIDCAF_clean_sbu_0, # of connection points: 6
#     Node 2, Type 0, BuildingBlock: MIDCAF_clean_sbu_0, # of connection points: 6
#     Node 3, Type 0, BuildingBlock: MIDCAF_clean_sbu_0, # of connection points: 6
#     Node 4, Type 0, BuildingBlock: MIDCAF_clean_sbu_0, # of connection points: 6
#     Node 5, Type 0, BuildingBlock: MIDCAF_clean_sbu_0, # of connection points: 6
#     Node 6, Type 0, BuildingBlock: MIDCAF_clean_sbu_0, # of connection points: 6
#     Node 7, Type 0, BuildingBlock: MIDCAF_clean_sbu_0, # of connection points: 6
#     Node 8, Type 0, BuildingBlock: MIDCAF_clean_sbu_0, # of connection points: 6
#     Node 9, Type 0, BuildingBlock: MIDCAF_clean_sbu_0, # of connection points: 6
#     Node 10, Type 0, BuildingBlock: MIDCAF_clean_sbu_0, # of connection points: 6
#     Node 11, Type 0, BuildingBlock: MIDCAF_clean_sbu_0, # of connection points: 6
#     Node 12, Type 0, BuildingBlock: MIDCAF_clean_sbu_0, # of connection points: 6
#     Node 13, Type 0, BuildingBlock: MIDCAF_clean_sbu_0, # of connection points: 6
#     Node 14, Type 0, BuildingBlock: MIDCAF_clean_sbu_0, # of connection points: 6
#     Node 15, Type 0, BuildingBlock: MIDCAF_clean_sbu_0, # of connection points: 6
#     Node 16, Type 0, BuildingBlock: MIDCAF_clean_sbu_0, # of connection points: 6
#     Node 17, Type 0, BuildingBlock: MIDCAF_clean_sbu_0, # of connection points: 6
#     Node 18, Type 0, BuildingBlock: MIDCAF_clean_sbu_0, # of connection points: 6
#     Node 19, Type 0, BuildingBlock: MIDCAF_clean_sbu_0, # of connection points: 6
#     Node 20, Type 0, BuildingBlock: MIDCAF_clean_sbu_0, # of connection points: 6
#     Node 21, Type 0, BuildingBlock: MIDCAF_clean_sbu_0, # of connection points: 6
#     Node 22, Type 0, BuildingBlock: MIDCAF_clean_sbu_0, # of connection points: 6
#     Node 23, Type 0, BuildingBlock: MIDCAF_clean_sbu_0, # of connection points: 6
#     Node 24, Type 0, BuildingBlock: MIDCAF_clean_sbu_0, # of connection points: 6
#     Node 25, Type 0, BuildingBlock: MIDCAF_clean_sbu_0, # of connection points: 6
#     Node 26, Type 0, BuildingBlock: MIDCAF_clean_sbu_0, # of connection points: 6
#     Node 27, Type 0, BuildingBlock: MIDCAF_clean_sbu_0, # of connection points: 6
#     Node 28, Type 0, BuildingBlock: MIDCAF_clean_sbu_0, # of connection points: 6
#     Node 29, Type 0, BuildingBlock: MIDCAF_clean_sbu_0, # of connection points: 6
#     Node 30, Type 0, BuildingBlock: MIDCAF_clean_sbu_0, # of connection points: 6
#     Node 31, Type 0, BuildingBlock: MIDCAF_clean_sbu_0, # of connection points: 6
#     Edge 32, Type (0, 0), None
#     Edge 33, Type (0, 0), None
#     Edge 34, Type (0, 0), None
#     Edge 35, Type (0, 0), None
#     Edge 36, Type (0, 0), None
#     Edge 37, Type (0, 0), None
#     Edge 38, Type (0, 0), None
#     Edge 39, Type (0, 0), None
#     Edge 40, Type (0, 0), None
#     Edge 41, Type (0, 0), None
#     Edge 42, Type (0, 0), None
#     Edge 43, Type (0, 0), None
#     Edge 44, Type (0, 0), None
#     Edge 45, Type (0, 0), None
#     Edge 46, Type (0, 0), None
#     Edge 47, Type (0, 0), None
#     Edge 48, Type (0, 0), None
#     Edge 49, Type (0, 0), None
#     Edge 50, Type (0, 0), None
#     Edge 51, Type (0, 0), None
#     Edge 52, Type (0, 0), None
#     Edge 53, Type (0, 0), None
#     Edge 54, Type (0, 0), None
#     Edge 55, Type (0, 0), None
#     Edge 56, Type (0, 0), None
#     Edge 57, Type (0, 0), None
#     Edge 58, Type (0, 0), None
#     Edge 59, Type (0, 0), None
#     Edge 60, Type (0, 0), None
#     Edge 61, Type (0, 0), None
#     Edge 62, Type (0, 0), None
#     Edge 63, Type (0, 0), None
#     Edge 64, Type (0, 0), None
#     Edge 65, Type (0, 0), None
#     Edge 66, Type (0, 0), None
#     Edge 67, Type (0, 0), None
#     Edge 68, Type (0, 0), None
#     Edge 69, Type (0, 0), None
#     Edge 70, Type (0, 0), None
#     Edge 71, Type (0, 0), None
#     Edge 72, Type (0, 0), None
#     Edge 73, Type (0, 0), None
#     Edge 74, Type (0, 0), None
#     Edge 75, Type (0, 0), None
#     Edge 76, Type (0, 0), None
#     Edge 77, Type (0, 0), None
#     Edge 78, Type (0, 0), None
#     Edge 79, Type (0, 0), None
#     Edge 80, Type (0, 0), None
#     Edge 81, Type (0, 0), None
#     Edge 82, Type (0, 0), None
#     Edge 83, Type (0, 0), None
#     Edge 84, Type (0, 0), None
#     Edge 85, Type (0, 0), None
#     Edge 86, Type (0, 0), None
#     Edge 87, Type (0, 0), None
#     Edge 88, Type (0, 0), None
#     Edge 89, Type (0, 0), None
#     Edge 90, Type (0, 0), None
#     Edge 91, Type (0, 0), None
#     Edge 92, Type (0, 0), None
#     Edge 93, Type (0, 0), None
#     Edge 94, Type (0, 0), None
#     Edge 95, Type (0, 0), None
#     Edge 96, Type (0, 0), None
#     Edge 97, Type (0, 0), None
#     Edge 98, Type (0, 0), None
#     Edge 99, Type (0, 0), None
#     Edge 100, Type (0, 0), None
#     Edge 101, Type (0, 0), None
#     Edge 102, Type (0, 0), None
#     Edge 103, Type (0, 0), None
#     Edge 104, Type (0, 0), None
#     Edge 105, Type (0, 0), None
#     Edge 106, Type (0, 0), None
#     Edge 107, Type (0, 0), None
#     Edge 108, Type (0, 0), None
#     Edge 109, Type (0, 0), None
#     Edge 110, Type (0, 0), None
#     Edge 111, Type (0, 0), None
#     Edge 112, Type (0, 0), None
#     Edge 113, Type (0, 0), None
#     Edge 114, Type (0, 0), None
#     Edge 115, Type (0, 0), None
#     Edge 116, Type (0, 0), None
#     Edge 117, Type (0, 0), None
#     Edge 118, Type (0, 0), None
#     Edge 119, Type (0, 0), None
#     Edge 120, Type (0, 0), None
#     Edge 121, Type (0, 0), None
#     Edge 122, Type (0, 0), None
#     Edge 123, Type (0, 0), None
#     Edge 124, Type (0, 0), None
#     Edge 125, Type (0, 0), None
#     Edge 126, Type (0, 0), None
#     Edge 127, Type (0, 0), None
# Relax obj value: 0.112
# Max RMSD: 0.158
# Mean RMSD: 0.158
data_MOF--net-vcc--node1-MIDCAF_clean_sbu_0--edge1-none
_symmetry_space_group_name_H-M    P1
_symmetry_Int_Tables_number       1
_symmetry_cell_setting            triclinic
loop_
_symmetry_equiv_pos_as_xyz
'x, y, z'
_cell_length_a     23.097221
_cell_length_b     27.125289
_cell_length_c     17.99674
_cell_angle_alpha  89.994428
_cell_angle_beta   89.996771
_cell_angle_gamma 90.583126
loop_
_atom_site_label
_atom_site_type_symbol
_atom_site_fract_x
_atom_site_fract_y
_atom_site_fract_z
_atom_type_partial_charge
Zn0 Zn 0.27007 0.94457 0.01635 0.0
Zn1 Zn 0.42532 0.05614 0.94459 0.0
Zn2 Zn 0.34256 1.01037 -0.01814 0.0
C3 C 0.44622 0.02376 0.08056 0.0
C4 C 0.36111 0.1186 0.0369 0.0
O5 O 0.27605 0.0215 0.90346 0.0
O6 O 0.21195 0.96606 0.94242 0.0
C7 C 0.38337 0.90787 -0.0201 0.0
O8 O 0.39176 0.0333 0.07968 0.0
O9 O 0.47309 0.02041 0.01991 0.0
O10 O 0.38856 0.12401 -0.02374 0.0
O11 O 0.34861 0.07431 0.05781 0.0
O12 O 0.33168 0.89419 -0.00756 0.0
O13 O 0.39638 0.95288 -0.02533 0.0
O14 O 0.31598 0.03367 0.09064 0.0
O15 O 0.25911 0.97005 0.11932 0.0
C16 C 0.28207 1.01103 0.1362 0.0
O17 O 0.33269 0.03376 0.86569 0.0
O18 O 0.42592 0.0293 0.84243 0.0
C19 C 0.22615 1.00075 0.89922 0.0
C20 C 0.37453 0.02804 0.8194 0.0
Zn21 Zn 0.8252 0.27145 0.03411 0.0
Zn22 Zn 0.04355 0.35015 0.06067 0.0
Zn23 Zn 0.95514 0.26621 0.02543 0.0
C24 C 0.02204 0.2813 0.18171 0.0
C25 C 0.92944 0.37353 -0.00809 0.0
O26 O 0.91269 0.2226 0.94221 0.0
O27 O 0.83755 0.27133 0.92259 0.0
C28 C 0.87356 0.17453 0.05727 0.0
O29 O 0.98455 0.26011 0.13906 0.0
O30 O 0.04856 0.32031 0.1625 0.0
O31 O 0.97567 0.38924 0.02217 0.0
O32 O 0.91748 0.32815 -0.01256 0.0
O33 O 0.83115 0.20165 0.07456 0.0
O34 O 0.91752 0.19229 0.0219 0.0
O35 O 0.91783 0.27209 0.13555 0.0
O36 O 0.85093 0.32511 0.10595 0.0
C37 C 0.87501 0.29915 0.15506 0.0
O38 O 0.03937 0.26295 -0.02543 0.0
O39 O 0.10159 0.3245 -0.00986 0.0
C40 C 0.87361 0.24004 0.89893 0.0
C41 C 0.08863 0.28324 -0.03807 0.0
Zn42 Zn 0.42502 0.21578 0.18942 0.0
Zn43 Zn 0.27351 0.3354 0.12376 0.0
Zn44 Zn 0.34619 0.26899 0.15854 0.0
C45 C 0.28135 0.26513 0.00695 0.0
C46 C 0.38532 0.37755 0.15551 0.0
O47 O 0.33875 0.24328 0.27397 0.0
O48 O 0.43038 0.22527 0.29538 0.0
C49 C 0.36362 0.15768 0.09345 0.0
O50 O 0.31671 0.24381 0.05151 0.0
O51 O 0.25958 0.30634 0.02322 0.0
O52 O 0.33359 0.38972 0.14183 0.0
O53 O 0.3984 0.33246 0.16216 0.0
O54 O 0.39258 0.14991 0.15172 0.0
O55 O 0.34918 0.20262 0.07827 0.0
O56 O 0.3883 0.24597 0.05921 0.0
O57 O 0.4692 0.26002 0.11874 0.0
C58 C 0.4422 0.25767 0.05802 0.0
O59 O 0.27988 0.25943 0.23944 0.0
O60 O 0.21689 0.31495 0.20092 0.0
C61 C 0.38019 0.23349 0.31932 0.0
C62 C 0.2307 0.28068 0.24466 0.0
Zn63 Zn 0.80444 0.03146 0.10043 0.0
Zn64 Zn 0.04419 0.946 0.08928 0.0
Zn65 Zn 0.95798 0.0285 0.11297 0.0
C66 C 0.02253 0.99562 -0.04145 0.0
C67 C 0.93136 0.91432 0.14727 0.0
O68 O 0.90327 0.99986 0.20046 0.0
O69 O 0.81857 0.03684 0.21085 0.0
C70 C 0.86914 0.12186 0.07245 0.0
O71 O 0.98868 0.01873 0.00216 0.0
O72 O 0.05266 0.96012 -0.01865 0.0
O73 O 0.98026 0.9003 0.12407 0.0
O74 O 0.91879 0.96027 0.1518 0.0
O75 O 0.81906 0.10202 0.07204 0.0
O76 O 0.91496 0.09725 0.08693 0.0
O77 O 0.92286 0.03679 0.00366 0.0
O78 O 0.85306 0.98596 0.03625 0.0
C79 C 0.87626 1.0129 -0.01315 0.0
O80 O 0.03819 0.05012 0.16489 0.0
O81 O 0.09567 0.98528 0.15719 0.0
C82 C 0.86508 0.0222 0.23976 0.0
C83 C 0.0863 0.02888 0.17901 0.0
Zn84 Zn 0.57516 0.02136 0.85717 0.0
Zn85 Zn 0.79348 0.10009 0.83063 0.0
Zn86 Zn 0.7051 1.01614 0.8659 0.0
C87 C 0.772 0.03121 0.70962 0.0
C88 C 0.67936 0.12346 0.89941 0.0
O89 O 0.66262 0.97253 -0.05089 0.0
O90 O 0.58747 0.02124 -0.03131 0.0
C91 C 0.62359 0.92446 0.834 0.0
O92 O 0.7345 1.01002 0.75227 0.0
O93 O 0.79851 0.07023 0.72883 0.0
O94 O 0.72559 0.13917 0.86913 0.0
O95 O 0.66742 0.07807 0.90389 0.0
O96 O 0.58119 0.95157 0.81669 0.0
O97 O 0.66753 0.94221 0.86944 0.0
O98 O 0.6678 0.02209 0.75579 0.0
O99 O 0.60086 0.07507 0.78538 0.0
C100 C 0.62497 0.04914 0.73628 0.0
O101 O 0.78935 1.01292 0.91676 0.0
O102 O 0.85154 0.0745 0.90117 0.0
C103 C 0.62354 0.98998 -0.00762 0.0
C104 C 0.83859 0.03322 0.92939 0.0
Zn105 Zn 0.17538 0.80614 -0.05345 0.0
Zn106 Zn 0.02014 0.69462 0.8748 0.0
Zn107 Zn 0.09261 0.76041 0.90928 0.0
C108 C 0.03214 0.76107 0.75492 0.0
C109 C 0.13343 0.65792 0.91128 0.0
O110 O 0.08274 0.78379 0.02545 0.0
O111 O 0.17597 0.77925 0.04869 0.0
C112 C 0.11116 0.86863 0.85431 0.0
O113 O 0.06605 0.78372 0.80047 0.0
O114 O 1.00919 0.72009 0.77181 0.0
O115 O 0.08174 0.64424 0.89872 0.0
O116 O 0.14644 0.70294 0.9165 0.0
O117 O 0.1386 0.87402 0.91494 0.0
O118 O 0.09866 0.82435 0.83335 0.0
O119 O 0.14179 0.78335 0.81144 0.0
O120 O 0.22312 0.77044 0.87118 0.0
C121 C 0.19624 0.77379 0.81054 0.0
O122 O 0.02609 0.77153 -0.01233 0.0
O123 O 0.962 0.7161 -0.05129 0.0
C124 C 0.12458 0.77803 0.07173 0.0
C125 C 0.97619 0.75079 -0.00809 0.0
Zn126 Zn 0.79427 0.69593 0.80187 0.0
Zn127 Zn 0.55452 0.78139 0.79072 0.0
Zn128 Zn 0.70805 0.77844 0.77816 0.0
C129 C 0.62633 0.76284 0.90429 0.0
C130 C 0.6192 0.87179 0.81876 0.0
O131 O 0.78826 0.80007 0.72625 0.0
O132 O 0.84574 0.73523 0.73394 0.0
C133 C 0.68143 0.66427 0.74389 0.0
O134 O 0.67293 0.78673 0.88747 0.0
O135 O 0.60314 0.73589 0.85491 0.0
O136 O 0.56912 0.85195 0.81913 0.0
O137 O 0.66502 0.84719 0.80428 0.0
O138 O 0.73033 0.65024 0.7671 0.0
O139 O 0.66886 0.71022 0.73935 0.0
O140 O 0.73876 0.76867 0.88896 0.0
O141 O 0.80274 0.71006 0.9098 0.0
C142 C 0.77261 0.74556 0.93258 0.0
O143 O 0.65335 0.74981 0.69066 0.0
O144 O 0.56864 0.78677 0.6803 0.0
C145 C 0.83637 0.77883 0.71213 0.0
C146 C 0.61514 0.77214 0.65137 0.0
Zn147 Zn 0.17503 0.96594 0.70188 0.0
Zn148 Zn 0.02344 0.08544 0.76758 0.0
Zn149 Zn 0.09616 0.01904 0.73277 0.0
C150 C 0.03132 1.01514 0.88437 0.0
C151 C 0.13525 0.12762 0.73586 0.0
O152 O 0.08873 0.99331 0.61736 0.0
O153 O 0.18039 0.97543 0.59592 0.0
C154 C 0.11366 0.90775 0.7978 0.0
O155 O 0.0667 0.99385 0.83982 0.0
O156 O 1.00952 0.05634 0.8681 0.0
O157 O 0.08352 0.13978 0.74956 0.0
O158 O 0.14834 0.08253 0.72916 0.0
O159 O 0.14265 0.90003 0.73954 0.0
O160 O 0.09918 0.95267 0.81302 0.0
O161 O 0.13828 0.99603 0.83213 0.0
O162 O 0.21918 1.01016 0.77259 0.0
C163 C 0.19218 1.00775 0.83329 0.0
O164 O 0.02985 1.00948 0.65188 0.0
O165 O 0.96685 0.065 0.69039 0.0
C166 C 0.13017 0.98355 0.572 0.0
C167 C 0.98067 0.03073 0.64666 0.0
Zn168 Zn 0.42543 0.55607 0.44466 0.0
Zn169 Zn 0.27012 0.44463 0.51649 0.0
Zn170 Zn 0.34262 0.5104 0.48195 0.0
C171 C 0.28215 0.51111 0.63631 0.0
C172 C 0.38339 0.4079 0.48005 0.0
O173 O 0.33277 0.53378 0.36578 0.0
O174 O 0.42599 0.52919 0.34253 0.0
C175 C 0.36126 0.61862 0.53688 0.0
O176 O 0.31607 0.53373 0.59074 0.0
O177 O 0.25917 0.47014 0.61945 0.0
O178 O 0.3317 0.39423 0.49263 0.0
O179 O 0.39641 0.4529 0.47477 0.0
O180 O 0.38872 0.62398 0.47624 0.0
O181 O 0.34872 0.57434 0.55785 0.0
O182 O 0.39183 0.53331 0.57978 0.0
O183 O 0.47316 0.52036 0.52004 0.0
C184 C 0.44628 0.52374 0.58067 0.0
O185 O 0.27611 0.52152 0.40356 0.0
O186 O 0.212 0.4661 0.44256 0.0
C187 C 0.3746 0.528 0.3195 0.0
C188 C 0.22621 0.50078 0.39933 0.0
Zn189 Zn 0.82519 0.7714 0.53396 0.0
Zn190 Zn 0.04355 0.8501 0.56043 0.0
Zn191 Zn 0.95516 0.76616 0.52523 0.0
C192 C 0.02209 0.78125 0.68149 0.0
C193 C 0.92943 0.87351 0.49173 0.0
O194 O 0.91267 0.72257 0.44203 0.0
O195 O 0.83752 0.77129 0.42244 0.0
C196 C 0.87362 0.6745 0.55714 0.0
O197 O 0.98458 0.76006 0.63885 0.0
O198 O 0.04859 0.82026 0.66226 0.0
O199 O 0.97568 0.88921 0.52196 0.0
O200 O 0.91748 0.82812 0.48725 0.0
O201 O 0.83122 0.70161 0.57443 0.0
O202 O 0.91756 0.69224 0.52172 0.0
O203 O 0.91787 0.77209 0.63535 0.0
O204 O 0.8509 0.82509 0.60576 0.0
C205 C 0.87506 0.79917 0.65484 0.0
O206 O 0.0394 0.7629 0.47436 0.0
O207 O 0.10159 0.82447 0.48989 0.0
C208 C 0.87359 0.74002 0.39876 0.0
C209 C 0.08865 0.78319 0.4617 0.0
Zn210 Zn 0.27349 0.83542 0.6235 0.0
Zn211 Zn 0.42511 0.71595 0.68924 0.0
Zn212 Zn 0.34619 0.76902 0.65837 0.0
C213 C 0.44221 0.75778 0.5578 0.0
C214 C 0.36376 0.65773 0.59336 0.0
O215 O 0.27986 0.75947 0.73923 0.0
O216 O 0.21687 0.81498 0.70067 0.0
C217 C 0.38528 0.87758 0.65534 0.0
O218 O 0.38832 0.74603 0.55901 0.0
O219 O 0.46921 0.7602 0.6185 0.0
O220 O 0.39277 0.65003 0.65161 0.0
O221 O 0.34925 0.70265 0.57814 0.0
O222 O 0.33355 0.88974 0.64158 0.0
O223 O 0.39837 0.8325 0.66204 0.0
O224 O 0.31676 0.74382 0.55132 0.0
O225 O 0.25959 0.80631 0.52299 0.0
C226 C 0.28139 0.76511 0.50674 0.0
O227 O 0.33875 0.74328 0.77378 0.0
O228 O 0.43043 0.72546 0.7952 0.0
C229 C 0.23068 0.78072 0.74442 0.0
C230 C 0.3802 0.73355 0.81913 0.0
Zn231 Zn 0.04425 0.44596 0.58942 0.0
Zn232 Zn 0.80453 0.53144 0.60052 0.0
Zn233 Zn 0.95805 0.52847 0.61308 0.0
C234 C 0.87634 0.51287 0.48695 0.0
C235 C 0.86922 0.62183 0.57241 0.0
O236 O 0.03827 0.5501 0.665 0.0
O237 O 0.09573 0.48524 0.65733 0.0
C238 C 0.93141 0.41429 0.64741 0.0
O239 O 0.92294 0.53676 0.50376 0.0
O240 O 0.85314 0.48593 0.53635 0.0
O241 O 0.81913 0.60199 0.57207 0.0
O242 O 0.91504 0.59723 0.58691 0.0
O243 O 0.98032 0.40025 0.62422 0.0
O244 O 0.91885 0.46024 0.65191 0.0
O245 O 0.98877 0.5187 0.50228 0.0
O246 O 0.05274 0.46007 0.48148 0.0
C247 C 0.02262 0.49558 0.45868 0.0
O248 O 0.90333 0.49983 0.70055 0.0
O249 O 0.81865 0.53684 0.71095 0.0
C250 C 0.08637 0.52885 0.67913 0.0
C251 C 0.86516 0.52219 0.73985 0.0
Zn252 Zn 0.57522 0.52145 0.35731 0.0
Zn253 Zn 0.79359 0.60013 0.33077 0.0
Zn254 Zn 0.70518 0.5162 0.36601 0.0
C255 C 0.7721 0.53129 0.20974 0.0
C256 C 0.67946 0.62353 0.39948 0.0
O257 O 0.66272 0.47258 0.44922 0.0
O258 O 0.58759 0.52132 0.46884 0.0
C259 C 0.62358 0.42453 0.33415 0.0
O260 O 0.73461 0.5101 0.25239 0.0
O261 O 0.79862 0.5703 0.22894 0.0
O262 O 0.72571 0.63924 0.36923 0.0
O263 O 0.66751 0.57815 0.40397 0.0
O264 O 0.58118 0.45165 0.31689 0.0
O265 O 0.66756 0.44228 0.36951 0.0
O266 O 0.66789 0.52207 0.25589 0.0
O267 O 0.60098 0.57509 0.28545 0.0
C268 C 0.62506 0.54912 0.23636 0.0
O269 O 0.78942 0.51291 0.41688 0.0
O270 O 0.85162 0.57449 0.40131 0.0
C271 C 0.62364 0.49003 0.4925 0.0
C272 C 0.83867 0.53321 0.4295 0.0
Zn273 Zn 0.17538 0.30606 0.44674 0.0
Zn274 Zn 0.02007 0.1946 0.37494 0.0
Zn275 Zn 0.09258 0.26037 0.40947 0.0
C276 C 0.03209 0.2611 0.25513 0.0
C277 C 0.13334 0.15784 0.4113 0.0
O278 O 0.08272 0.28378 0.52563 0.0
O279 O 0.17594 0.27922 0.5489 0.0
C280 C 0.11124 0.3686 0.35447 0.0
O281 O 0.06602 0.28372 0.30069 0.0
O282 O 1.00911 0.22013 0.272 0.0
O283 O 0.08164 0.14418 0.39873 0.0
O284 O 0.14636 0.20285 0.41662 0.0
O285 O 0.13871 0.37397 0.41509 0.0
O286 O 0.09868 0.32432 0.33354 0.0
O287 O 0.1418 0.28329 0.31164 0.0
O288 O 0.22312 0.27032 0.3714 0.0
C289 C 0.19624 0.27372 0.31077 0.0
O290 O 0.02607 0.27147 0.48788 0.0
O291 O 0.96198 0.21604 0.44891 0.0
C292 C 0.12455 0.27803 0.57193 0.0
C293 C 0.97618 0.25071 0.49213 0.0
Zn294 Zn 0.55447 0.28147 0.29091 0.0
Zn295 Zn 0.79417 0.19596 0.30207 0.0
Zn296 Zn 0.708 0.27849 0.27836 0.0
C297 C 0.77254 0.24559 0.43278 0.0
C298 C 0.68136 0.16431 0.24401 0.0
O299 O 0.65328 0.24986 0.1909 0.0
O300 O 0.56858 0.28684 0.18047 0.0
C301 C 0.61917 0.37186 0.31894 0.0
O302 O 0.73872 0.26873 0.38917 0.0
O303 O 0.80263 0.21006 0.41001 0.0
O304 O 0.73026 0.15026 0.26723 0.0
O305 O 0.6688 0.21027 0.23953 0.0
O306 O 0.56908 0.35203 0.31932 0.0
O307 O 0.66498 0.34725 0.30445 0.0
O308 O 0.67289 0.28679 0.38767 0.0
O309 O 0.60308 0.23597 0.3551 0.0
C310 C 0.62629 0.2629 0.40449 0.0
O311 O 0.78822 0.30011 0.22645 0.0
O312 O 0.84567 0.23525 0.23419 0.0
C313 C 0.6151 0.2722 0.15158 0.0
C314 C 0.83632 0.27886 0.21237 0.0
Zn315 Zn 0.17514 0.46588 0.20201 0.0
Zn316 Zn 0.02352 0.58539 0.26768 0.0
Zn317 Zn 0.09622 0.51899 0.23288 0.0
C318 C 0.03141 0.5151 0.38449 0.0
C319 C 0.13532 0.62756 0.23584 0.0
O320 O 0.08879 0.49328 0.11747 0.0
O321 O 0.18046 0.47539 0.09604 0.0
C322 C 0.11376 0.4077 0.29795 0.0
O323 O 0.06679 0.4938 0.33993 0.0
O324 O 1.00962 0.55631 0.36822 0.0
O325 O 0.08359 0.63972 0.24957 0.0
O326 O 0.14841 0.58247 0.22919 0.0
O327 O 0.14277 0.39997 0.23971 0.0
O328 O 0.09927 0.45263 0.31314 0.0
O329 O 0.13836 0.496 0.33223 0.0
O330 O 0.21926 0.51014 0.2727 0.0
C331 C 0.19224 0.50774 0.3334 0.0
O332 O 0.02991 0.50944 0.152 0.0
O333 O 0.9669 0.56495 0.19053 0.0
C334 C 0.13024 0.48354 0.07211 0.0
C335 C 0.98072 0.53068 0.14679 0.0
Zn336 Zn 0.77006 0.94456 0.51635 0.0
Zn337 Zn 0.92532 0.05614 0.44459 0.0
Zn338 Zn 0.84256 1.01037 0.48186 0.0
C339 C 0.94621 0.02377 0.58055 0.0
C340 C 0.86111 0.1186 0.53689 0.0
O341 O 0.77604 0.02148 0.40346 0.0
O342 O 0.71195 0.96603 0.44242 0.0
C343 C 0.88337 0.90787 0.47988 0.0
O344 O 0.89176 0.0333 0.57969 0.0
O345 O 0.97309 0.02042 0.51991 0.0
O346 O 0.88856 0.12401 0.47626 0.0
O347 O 0.8486 0.07431 0.5578 0.0
O348 O 0.83168 0.89419 0.49245 0.0
O349 O 0.89639 0.95288 0.47466 0.0
O350 O 0.81598 0.03367 0.59064 0.0
O351 O 0.75911 0.97005 0.61932 0.0
C352 C 0.78207 1.01103 0.6362 0.0
O353 O 0.83269 0.03376 0.36569 0.0
O354 O 0.92591 0.0293 0.34242 0.0
C355 C 0.72614 1.00072 0.39921 0.0
C356 C 0.87452 0.02804 0.3194 0.0
Zn357 Zn 0.32519 0.27145 0.5341 0.0
Zn358 Zn 0.54355 0.35015 0.56068 0.0
Zn359 Zn 0.45513 0.2662 0.52541 0.0
C360 C 0.52202 0.28128 0.6817 0.0
C361 C 0.42945 0.37353 0.49187 0.0
O362 O 0.41269 0.2226 0.44219 0.0
O363 O 0.33754 0.27132 0.42257 0.0
C364 C 0.37356 0.17453 0.55725 0.0
O365 O 0.48453 0.26009 0.63904 0.0
O366 O 0.54854 0.32029 0.6625 0.0
O367 O 0.47567 0.38923 0.52216 0.0
O368 O 0.41747 0.32815 0.48741 0.0
O369 O 0.33116 0.20165 0.57455 0.0
O370 O 0.41752 0.19229 0.52188 0.0
O371 O 0.41782 0.27211 0.63553 0.0
O372 O 0.35091 0.32511 0.60593 0.0
C373 C 0.37499 0.29916 0.65503 0.0
O374 O 0.53937 0.26295 0.47457 0.0
O375 O 0.60159 0.3245 0.49015 0.0
C376 C 0.37359 0.24003 0.39893 0.0
C377 C 0.58863 0.28323 0.46194 0.0
Zn378 Zn 0.92503 0.21577 0.68944 0.0
Zn379 Zn 0.77351 0.3354 0.62376 0.0
Zn380 Zn 0.8462 0.26899 0.65855 0.0
C381 C 0.78136 0.26512 0.50696 0.0
C382 C 0.88532 0.37755 0.65552 0.0
O383 O 0.83877 0.24329 0.77398 0.0
O384 O 0.93039 0.22524 0.7954 0.0
C385 C 0.86362 0.15768 0.59345 0.0
O386 O 0.81672 0.24381 0.55151 0.0
O387 O 0.75959 0.30634 0.52322 0.0
O388 O 0.83359 0.38972 0.64184 0.0
O389 O 0.89841 0.33246 0.66217 0.0
O390 O 0.89258 0.1499 0.65172 0.0
O391 O 0.84919 0.20262 0.57828 0.0
O392 O 0.88832 0.24597 0.55922 0.0
O393 O 0.96922 0.26001 0.61878 0.0
C394 C 0.94221 0.25767 0.55807 0.0
O395 O 0.77989 0.25943 0.73945 0.0
O396 O 0.71689 0.31494 0.70092 0.0
C397 C 0.8802 0.23348 0.81933 0.0
C398 C 0.73071 0.28067 0.74466 0.0
Zn399 Zn 0.30446 0.03145 0.60042 0.0
Zn400 Zn 0.5442 0.94596 0.58924 0.0
Zn401 Zn 0.45799 0.02849 0.61295 0.0
C402 C 0.52253 0.99558 0.45853 0.0
C403 C 0.43137 0.91432 0.64728 0.0
O404 O 0.40329 0.99986 0.70046 0.0
O405 O 0.31859 0.03683 0.71084 0.0
C406 C 0.36915 0.12185 0.57244 0.0
O407 O 0.4887 0.01871 0.50214 0.0
O408 O 0.55265 0.96008 0.48131 0.0
O409 O 0.48027 0.90028 0.62406 0.0
O410 O 0.4188 0.96027 0.65178 0.0
O411 O 0.31906 0.10202 0.57203 0.0
O412 O 0.41497 0.09725 0.58691 0.0
O413 O 0.42287 0.03678 0.50364 0.0
O414 O 0.35307 0.98596 0.53623 0.0
C415 C 0.37627 1.0129 0.48683 0.0
O416 O 0.5382 0.05011 0.66484 0.0
O417 O 0.59568 0.98526 0.65712 0.0
C418 C 0.3651 0.0222 0.73975 0.0
C419 C 0.58631 0.02886 0.67893 0.0
Zn420 Zn 0.07515 0.02139 0.35719 0.0
Zn421 Zn 0.2935 0.1001 0.33062 0.0
Zn422 Zn 0.20511 1.01615 0.3659 0.0
C423 C 0.272 0.03121 0.20962 0.0
C424 C 0.1794 0.12348 0.39944 0.0
O425 O 0.16262 0.97256 0.44913 0.0
O426 O 0.08747 0.02128 0.46871 0.0
C427 C 0.12359 0.92448 0.33402 0.0
O428 O 0.23449 1.01003 0.25227 0.0
O429 O 0.29851 0.07023 0.22882 0.0
O430 O 0.22562 0.13919 0.36914 0.0
O431 O 0.16743 0.07809 0.40389 0.0
O432 O 0.08119 0.9516 0.31671 0.0
O433 O 0.16753 0.94223 0.36946 0.0
O434 O 0.16779 0.02212 0.25579 0.0
O435 O 0.10081 0.07511 0.2854 0.0
C436 C 0.12498 0.0492 0.23631 0.0
O437 O 0.28935 1.01293 0.41675 0.0
O438 O 0.35155 0.0745 0.40116 0.0
C439 C 0.12353 0.99001 0.49238 0.0
C440 C 0.3386 0.03323 0.42938 0.0
Zn441 Zn 0.67536 0.80611 0.44654 0.0
Zn442 Zn 0.5201 0.69458 0.37478 0.0
Zn443 Zn 0.59259 0.76038 0.40927 0.0
C444 C 0.53213 0.76104 0.2549 0.0
C445 C 0.63339 0.6579 0.4113 0.0
O446 O 0.58273 0.78375 0.52545 0.0
O447 O 0.67596 0.77922 0.54868 0.0
C448 C 0.61114 0.8686 0.35429 0.0
O449 O 0.56603 0.78368 0.30046 0.0
O450 O 0.50917 0.72006 0.27179 0.0
O451 O 0.58171 0.64421 0.39873 0.0
O452 O 0.64642 0.70291 0.4165 0.0
O453 O 0.63858 0.87398 0.41493 0.0
O454 O 0.59865 0.82432 0.33334 0.0
O455 O 0.64179 0.78331 0.31143 0.0
O456 O 0.72312 0.77041 0.37119 0.0
C457 C 0.69624 0.77377 0.31054 0.0
O458 O 0.52608 0.77153 0.48765 0.0
O459 O 0.46197 0.7161 0.44869 0.0
C460 C 0.62457 0.77799 0.57172 0.0
C461 C 0.47617 0.7508 0.49187 0.0
Zn462 Zn 0.05451 0.78142 0.29072 0.0
Zn463 Zn 0.29426 0.69595 0.30186 0.0
Zn464 Zn 0.20804 0.77847 0.27816 0.0
C465 C 0.2726 0.74557 0.43257 0.0
C466 C 0.18141 0.6643 0.24388 0.0
O467 O 0.15334 0.74984 0.19067 0.0
O468 O 0.06864 0.78682 0.18029 0.0
C469 C 0.11919 0.87181 0.31878 0.0
O470 O 0.23876 0.76869 0.38896 0.0
O471 O 0.30274 0.71008 0.40979 0.0
O472 O 0.23031 0.65027 0.26709 0.0
O473 O 0.16884 0.71025 0.23935 0.0
O474 O 0.06911 0.85198 0.31915 0.0
O475 O 0.16502 0.84722 0.30429 0.0
O476 O 0.17292 0.78674 0.38747 0.0
O477 O 0.10309 0.7359 0.35491 0.0
C478 C 0.12633 0.76283 0.40428 0.0
O479 O 0.28825 0.80009 0.22624 0.0
O480 O 0.34573 0.73524 0.23393 0.0
C481 C 0.11515 0.77219 0.15138 0.0
C482 C 0.33636 0.77885 0.21211 0.0
Zn483 Zn 0.52345 0.08542 0.26757 0.0
Zn484 Zn 0.67503 0.96589 0.20187 0.0
Zn485 Zn 0.59617 0.01901 0.23275 0.0
C486 C 0.69218 1.00771 0.33328 0.0
C487 C 0.61365 0.90771 0.29778 0.0
O488 O 0.52986 1.00946 0.15187 0.0
O489 O 0.46686 0.06498 0.19039 0.0
C490 C 0.63527 0.12758 0.23585 0.0
O491 O 0.63828 0.99599 0.33211 0.0
O492 O 0.71919 1.0101 0.27258 0.0
O493 O 0.64263 0.89999 0.23952 0.0
O494 O 0.59918 0.95264 0.313 0.0
O495 O 0.58354 0.13975 0.24955 0.0
O496 O 0.64836 0.0825 0.22915 0.0
O497 O 0.5667 0.99382 0.33979 0.0
O498 O 0.50953 0.05632 0.36808 0.0
C499 C 0.53132 1.01511 0.38435 0.0
O500 O 0.58873 0.99328 0.11734 0.0
O501 O 0.68039 0.97537 0.09591 0.0
C502 C 0.48067 0.0307 0.14667 0.0
C503 C 0.63017 0.98351 0.07199 0.0
Zn504 Zn 0.92544 0.55606 0.94467 0.0
Zn505 Zn 0.77011 0.44462 0.0165 0.0
Zn506 Zn 0.84262 0.5104 -0.01805 0.0
C507 C 0.78215 0.5111 0.13631 0.0
C508 C 0.88338 0.4079 -0.01997 0.0
O509 O 0.83276 0.53378 0.86578 0.0
O510 O 0.92599 0.52918 0.84253 0.0
C511 C 0.86126 0.61861 0.03688 0.0
O512 O 0.81607 0.53372 0.09075 0.0
O513 O 0.75917 0.47013 0.11945 0.0
O514 O 0.8317 0.39422 -0.00736 0.0
O515 O 0.89642 0.4529 -0.02524 0.0
O516 O 0.88873 0.62397 -0.02375 0.0
O517 O 0.84871 0.57434 0.05785 0.0
O518 O 0.89183 0.53331 0.07979 0.0
O519 O 0.97316 0.52035 0.02004 0.0
C520 C 0.94627 0.52374 0.08067 0.0
O521 O 0.7761 0.5215 0.90356 0.0
O522 O 0.712 0.46607 0.94256 0.0
C523 C 0.87459 0.528 0.8195 0.0
C524 C 0.7262 0.50075 0.89932 0.0
Zn525 Zn 0.32518 0.7714 0.03395 0.0
Zn526 Zn 0.54355 0.85009 0.06044 0.0
Zn527 Zn 0.45515 0.76616 0.02521 0.0
C528 C 0.52207 0.78122 0.18148 0.0
C529 C 0.42944 0.87349 -0.00831 0.0
O530 O 0.41266 0.72256 0.942 0.0
O531 O 0.33751 0.77128 0.92242 0.0
C532 C 0.37362 0.67449 0.05713 0.0
O533 O 0.48456 0.76004 0.13884 0.0
O534 O 0.54858 0.82024 0.16226 0.0
O535 O 0.47567 0.8892 0.02196 0.0
O536 O 0.41747 0.82811 -0.01277 0.0
O537 O 0.33122 0.70161 0.07442 0.0
O538 O 0.41756 0.69224 0.02169 0.0
O539 O 0.41785 0.7721 0.13533 0.0
O540 O 0.35088 0.82509 0.10573 0.0
C541 C 0.37504 0.79918 0.15481 0.0
O542 O 0.5394 0.76289 -0.02565 0.0
O543 O 0.60159 0.82447 -0.0101 0.0
C544 C 0.37356 0.74001 0.89875 0.0
C545 C 0.58865 0.78318 -0.03828 0.0
Zn546 Zn 0.77348 0.83541 0.12351 0.0
Zn547 Zn 0.92512 0.71593 0.18926 0.0
Zn548 Zn 0.8462 0.76901 0.15838 0.0
C549 C 0.94222 0.75777 0.05784 0.0
C550 C 0.86377 0.65772 0.09337 0.0
O551 O 0.77988 0.75946 0.23924 0.0
O552 O 0.71687 0.81496 0.20068 0.0
C553 C 0.88527 0.87758 0.15535 0.0
O554 O 0.88834 0.74602 0.05902 0.0
O555 O 0.96923 0.76019 0.11854 0.0
O556 O 0.89278 0.65001 0.15161 0.0
O557 O 0.84926 0.70264 0.07815 0.0
O558 O 0.83355 0.88974 0.14159 0.0
O559 O 0.89837 0.8325 0.16204 0.0
O560 O 0.81677 0.74381 0.05132 0.0
O561 O 0.75959 0.8063 0.023 0.0
C562 C 0.78139 0.76509 0.00675 0.0
O563 O 0.83876 0.74328 0.27379 0.0
O564 O 0.93044 0.72544 0.29522 0.0
C565 C 0.73069 0.78069 0.24442 0.0
C566 C 0.88021 0.73354 0.31914 0.0
Zn567 Zn 0.30453 0.53143 0.10051 0.0
Zn568 Zn 0.54426 0.44592 0.08938 0.0
Zn569 Zn 0.45806 0.52846 0.11306 0.0
C570 C 0.52261 0.49555 -0.04135 0.0
C571 C 0.43142 0.41428 0.14741 0.0
O572 O 0.40335 0.49983 0.20054 0.0
O573 O 0.31866 0.53683 0.21094 0.0
C574 C 0.36922 0.62182 0.0724 0.0
O575 O 0.48879 0.51868 0.00226 0.0
O576 O 0.55272 0.46004 -0.01857 0.0
O577 O 0.48032 0.40024 0.1242 0.0
O578 O 0.41886 0.46024 0.1519 0.0
O579 O 0.31913 0.60199 0.07206 0.0
O580 O 0.41504 0.59722 0.08689 0.0
O581 O 0.42295 0.53676 0.00374 0.0
O582 O 0.35315 0.48593 0.03632 0.0
C583 C 0.37635 0.51287 -0.01307 0.0
O584 O 0.53828 0.55008 0.16496 0.0
O585 O 0.59574 0.48522 0.15726 0.0
C586 C 0.36517 0.52218 0.23984 0.0
C587 C 0.58638 0.52883 0.17906 0.0
Zn588 Zn 0.29361 0.60015 0.83076 0.0
Zn589 Zn 0.07521 0.52148 0.85734 0.0
Zn590 Zn 0.20519 0.51622 0.86601 0.0
C591 C 0.12507 0.54919 0.7364 0.0
C592 C 0.12359 0.42456 0.83418 0.0
O593 O 0.28943 0.51293 0.91686 0.0
O594 O 0.35164 0.57449 0.90129 0.0
C595 C 0.1795 0.62356 0.8995 0.0
O596 O 0.16788 0.52211 0.75589 0.0
O597 O 0.10093 0.57513 0.78546 0.0
O598 O 0.08118 0.45168 0.81691 0.0
O599 O 0.16756 0.44231 0.86954 0.0
O600 O 0.22574 0.63926 0.86924 0.0
O601 O 0.16752 0.57817 0.90396 0.0
O602 O 0.23461 0.51011 0.75239 0.0
O603 O 0.29862 0.57031 0.72893 0.0
C604 C 0.2721 0.5313 0.70973 0.0
O605 O 0.16272 0.47262 -0.05076 0.0
O606 O 0.08759 0.52136 -0.03114 0.0
C607 C 0.33868 0.53322 0.92949 0.0
C608 C 0.12363 0.49006 -0.0075 0.0
Zn609 Zn 0.67536 0.30604 -0.05327 0.0
Zn610 Zn 0.52004 0.19456 0.87492 0.0
Zn611 Zn 0.59257 0.26035 0.90946 0.0
C612 C 0.53207 0.26108 0.75512 0.0
C613 C 0.63331 0.15782 0.91132 0.0
O614 O 0.58271 0.28374 0.02563 0.0
O615 O 0.67593 0.2792 0.0489 0.0
C616 C 0.61122 0.36857 0.85446 0.0
O617 O 0.566 0.28369 0.80068 0.0
O618 O 0.50909 0.2201 0.77198 0.0
O619 O 0.58162 0.14415 0.89874 0.0
O620 O 0.64634 0.20283 0.91661 0.0
O621 O 0.63868 0.37394 0.91509 0.0
O622 O 0.59867 0.3243 0.83353 0.0
O623 O 0.6418 0.28327 0.81163 0.0
O624 O 0.72311 0.2703 0.87141 0.0
C625 C 0.69624 0.2737 0.81077 0.0
O626 O 0.52606 0.27146 -0.01214 0.0
O627 O 0.46195 0.21604 -0.05112 0.0
C628 C 0.62454 0.278 0.07192 0.0
C629 C 0.47616 0.25072 -0.00792 0.0
Zn630 Zn 0.05447 0.28151 0.7909 0.0
Zn631 Zn 0.29416 0.19598 0.80206 0.0
Zn632 Zn 0.20799 0.27852 0.77836 0.0
C633 C 0.27253 0.2456 0.93278 0.0
C634 C 0.18135 0.16434 0.744 0.0
O635 O 0.15327 0.2499 0.6909 0.0
O636 O 0.06859 0.28689 0.68047 0.0
C637 C 0.11917 0.37189 0.81896 0.0
O638 O 0.23871 0.26875 0.88917 0.0
O639 O 0.30262 0.21008 0.90999 0.0
O640 O 0.23024 0.15029 0.76722 0.0
O641 O 0.16879 0.2103 0.73953 0.0
O642 O 0.06908 0.35206 0.81934 0.0
O643 O 0.16498 0.34728 0.80447 0.0
O644 O 0.17288 0.2868 0.88767 0.0
O645 O 0.10304 0.23598 0.8551 0.0
C646 C 0.12629 0.2629 0.90447 0.0
O647 O 0.28821 0.30014 0.72645 0.0
O648 O 0.34566 0.23527 0.73417 0.0
C649 C 0.1151 0.27224 0.65158 0.0
C650 C 0.33631 0.27888 0.71236 0.0
Zn651 Zn 0.67514 0.46583 0.70199 0.0
Zn652 Zn 0.52353 0.58538 0.76767 0.0
Zn653 Zn 0.59623 0.51897 0.73286 0.0
C654 C 0.53141 0.51508 0.88447 0.0
C655 C 0.63534 0.62753 0.73582 0.0
O656 O 0.5888 0.49325 0.61745 0.0
O657 O 0.68045 0.47534 0.59603 0.0
C658 C 0.61374 0.40767 0.79794 0.0
O659 O 0.56678 0.49378 0.83991 0.0
O660 O 0.50963 0.55629 0.86821 0.0
O661 O 0.58361 0.6397 0.74956 0.0
O662 O 0.64843 0.58244 0.72917 0.0
O663 O 0.64274 0.39994 0.73969 0.0
O664 O 0.59926 0.4526 0.81312 0.0
O665 O 0.63836 0.49597 0.83221 0.0
O666 O 0.71926 0.51008 0.77268 0.0
C667 C 0.69224 0.5077 0.83338 0.0
O668 O 0.52991 0.50943 0.65199 0.0
O669 O 0.46691 0.56494 0.69052 0.0
C670 C 0.63024 0.4835 0.5721 0.0
C671 C 0.48073 0.53067 0.64679 0.0
loop_
_geom_bond_atom_site_label_1
_geom_bond_atom_site_label_2
_geom_bond_distance
_geom_bond_site_symmetry_2
_ccdc_geom_bond_type
Zn0 O6 1.920 . S
Zn0 O12 1.898 . S
Zn0 O15 1.905 . S
Zn1 O9 1.905 . S
Zn1 O10 1.898 . S
Zn1 O18 1.920 1_554 S
Zn2 O5 2.080 . S
Zn2 O8 2.114 . S
Zn2 O11 2.120 . S
Zn2 O13 2.120 1_545 S
Zn2 O14 2.114 1_545 S
Zn2 O17 2.080 1_554 S
C3 O8 1.166 . S
C3 O9 1.182 . S
C4 O10 1.167 . S
C4 O11 1.299 . S
O5 Zn2 2.080 . S
O5 C19 1.305 1_544 S
O6 Zn0 1.920 . S
O6 C19 1.234 1_554 S
C7 O12 1.167 . S
C7 O13 1.299 . S
O8 Zn2 2.114 . S
O8 C3 1.166 . S
O9 Zn1 1.905 . S
O9 C3 1.182 . S
O10 Zn1 1.898 . S
O10 C4 1.167 . S
O11 Zn2 2.120 . S
O11 C4 1.299 . S
O12 Zn0 1.898 . S
O12 C7 1.167 . S
O13 Zn2 2.120 1_565 S
O13 C7 1.299 . S
O14 Zn2 2.114 1_565 S
O14 C16 1.166 . S
O15 Zn0 1.905 . S
O15 C16 1.182 . S
C16 O14 1.166 . S
C16 O15 1.182 . S
O17 Zn2 2.080 1_556 S
O17 C20 1.305 . S
O18 Zn1 1.920 1_556 S
O18 C20 1.234 . S
C19 O5 1.305 1_566 S
C19 O6 1.234 1_556 S
C20 O17 1.305 . S
C20 O18 1.234 . S
Zn21 O27 1.920 1_554 S
Zn21 O33 1.898 . S
Zn21 O36 1.905 . S
Zn22 O30 1.905 . S
Zn22 O31 1.898 1_455 S
Zn22 O39 1.920 . S
Zn23 O26 2.080 1_554 S
Zn23 O29 2.114 . S
Zn23 O32 2.120 . S
Zn23 O34 2.120 . S
Zn23 O35 2.114 . S
Zn23 O38 2.080 . S
C24 O29 1.166 . S
C24 O30 1.182 1_655 S
C25 O31 1.167 . S
C25 O32 1.299 . S
O26 Zn23 2.080 1_556 S
O26 C40 1.305 . S
O27 Zn21 1.920 1_556 S
O27 C40 1.234 . S
C28 O33 1.167 . S
C28 O34 1.299 . S
O29 Zn23 2.114 . S
O29 C24 1.166 . S
O30 Zn22 1.905 . S
O30 C24 1.182 1_455 S
O31 Zn22 1.898 1_655 S
O31 C25 1.167 . S
O32 Zn23 2.120 . S
O32 C25 1.299 . S
O33 Zn21 1.898 . S
O33 C28 1.167 . S
O34 Zn23 2.120 . S
O34 C28 1.299 . S
O35 Zn23 2.114 . S
O35 C37 1.166 . S
O36 Zn21 1.905 . S
O36 C37 1.182 . S
C37 O35 1.166 . S
C37 O36 1.182 . S
O38 Zn23 2.080 . S
O38 C41 1.305 1_654 S
O39 Zn22 1.920 . S
O39 C41 1.234 1_554 S
C40 O26 1.305 . S
C40 O27 1.234 . S
C41 O38 1.305 1_456 S
C41 O39 1.234 1_556 S
Zn42 O48 1.920 . S
Zn42 O54 1.898 . S
Zn42 O57 1.905 . S
Zn43 O51 1.905 . S
Zn43 O52 1.898 . S
Zn43 O60 1.920 . S
Zn44 O47 2.080 . S
Zn44 O50 2.114 . S
Zn44 O53 2.120 . S
Zn44 O55 2.120 . S
Zn44 O56 2.114 . S
Zn44 O59 2.080 . S
C45 O50 1.166 . S
C45 O51 1.182 . S
C46 O52 1.167 . S
C46 O53 1.299 . S
O47 Zn44 2.080 . S
O47 C61 1.305 . S
O48 Zn42 1.920 . S
O48 C61 1.234 . S
C49 O54 1.167 . S
C49 O55 1.299 . S
O50 Zn44 2.114 . S
O50 C45 1.166 . S
O51 Zn43 1.905 . S
O51 C45 1.182 . S
O52 Zn43 1.898 . S
O52 C46 1.167 . S
O53 Zn44 2.120 . S
O53 C46 1.299 . S
O54 Zn42 1.898 . S
O54 C49 1.167 . S
O55 Zn44 2.120 . S
O55 C49 1.299 . S
O56 Zn44 2.114 . S
O56 C58 1.166 . S
O57 Zn42 1.905 . S
O57 C58 1.182 . S
C58 O56 1.166 . S
C58 O57 1.182 . S
O59 Zn44 2.080 . S
O59 C62 1.305 . S
O60 Zn43 1.920 . S
O60 C62 1.234 . S
C61 O47 1.305 . S
C61 O48 1.234 . S
C62 O59 1.305 . S
C62 O60 1.234 . S
Zn63 O69 1.920 . S
Zn63 O75 1.898 . S
Zn63 O78 1.905 . S
Zn64 O72 1.905 . S
Zn64 O73 1.898 1_455 S
Zn64 O81 1.920 . S
Zn65 O68 2.080 . S
Zn65 O71 2.114 1_545 S
Zn65 O74 2.120 1_545 S
Zn65 O76 2.120 . S
Zn65 O77 2.114 . S
Zn65 O80 2.080 . S
C66 O71 1.166 . S
C66 O72 1.182 1_655 S
C67 O73 1.167 . S
C67 O74 1.299 . S
O68 Zn65 2.080 . S
O68 C82 1.305 . S
O69 Zn63 1.920 . S
O69 C82 1.234 . S
C70 O75 1.167 . S
C70 O76 1.299 . S
O71 Zn65 2.114 1_565 S
O71 C66 1.166 . S
O72 Zn64 1.905 . S
O72 C66 1.182 1_455 S
O73 Zn64 1.898 1_655 S
O73 C67 1.167 . S
O74 Zn65 2.120 1_565 S
O74 C67 1.299 . S
O75 Zn63 1.898 . S
O75 C70 1.167 . S
O76 Zn65 2.120 . S
O76 C70 1.299 . S
O77 Zn65 2.114 . S
O77 C79 1.166 . S
O78 Zn63 1.905 . S
O78 C79 1.182 . S
C79 O77 1.166 . S
C79 O78 1.182 . S
O80 Zn65 2.080 . S
O80 C83 1.305 1_645 S
O81 Zn64 1.920 . S
O81 C83 1.234 . S
C82 O68 1.305 . S
C82 O69 1.234 . S
C83 O80 1.305 1_465 S
C83 O81 1.234 . S
Zn84 O90 1.920 1_556 S
Zn84 O96 1.898 . S
Zn84 O99 1.905 . S
Zn85 O93 1.905 . S
Zn85 O94 1.898 . S
Zn85 O102 1.920 . S
Zn86 O89 2.080 1_556 S
Zn86 O92 2.114 1_565 S
Zn86 O95 2.120 1_565 S
Zn86 O97 2.120 . S
Zn86 O98 2.114 . S
Zn86 O101 2.080 . S
C87 O92 1.166 . S
C87 O93 1.182 . S
C88 O94 1.167 . S
C88 O95 1.299 . S
O89 Zn86 2.080 1_554 S
O89 C103 1.305 . S
O90 Zn84 1.920 1_554 S
O90 C103 1.234 . S
C91 O96 1.167 . S
C91 O97 1.299 . S
O92 Zn86 2.114 1_545 S
O92 C87 1.166 . S
O93 Zn85 1.905 . S
O93 C87 1.182 . S
O94 Zn85 1.898 . S
O94 C88 1.167 . S
O95 Zn86 2.120 1_545 S
O95 C88 1.299 . S
O96 Zn84 1.898 . S
O96 C91 1.167 . S
O97 Zn86 2.120 . S
O97 C91 1.299 . S
O98 Zn86 2.114 . S
O98 C100 1.166 . S
O99 Zn84 1.905 . S
O99 C100 1.182 . S
C100 O98 1.166 . S
C100 O99 1.182 . S
O101 Zn86 2.080 . S
O101 C104 1.305 1_566 S
O102 Zn85 1.920 . S
O102 C104 1.234 1_556 S
C103 O89 1.305 . S
C103 O90 1.234 . S
C104 O101 1.305 1_544 S
C104 O102 1.234 1_554 S
Zn105 O111 1.920 1_556 S
Zn105 O117 1.898 . S
Zn105 O120 1.905 . S
Zn106 O114 1.905 . S
Zn106 O115 1.898 1_655 S
Zn106 O123 1.920 . S
Zn107 O110 2.080 1_556 S
Zn107 O113 2.114 . S
Zn107 O116 2.120 . S
Zn107 O118 2.120 . S
Zn107 O119 2.114 . S
Zn107 O122 2.080 . S
C108 O113 1.166 . S
C108 O114 1.182 1_455 S
C109 O115 1.167 . S
C109 O116 1.299 . S
O110 Zn107 2.080 1_554 S
O110 C124 1.305 . S
O111 Zn105 1.920 1_554 S
O111 C124 1.234 . S
C112 O117 1.167 . S
C112 O118 1.299 . S
O113 Zn107 2.114 . S
O113 C108 1.166 . S
O114 Zn106 1.905 . S
O114 C108 1.182 1_655 S
O115 Zn106 1.898 1_455 S
O115 C109 1.167 . S
O116 Zn107 2.120 . S
O116 C109 1.299 . S
O117 Zn105 1.898 . S
O117 C112 1.167 . S
O118 Zn107 2.120 . S
O118 C112 1.299 . S
O119 Zn107 2.114 . S
O119 C121 1.166 . S
O120 Zn105 1.905 . S
O120 C121 1.182 . S
C121 O119 1.166 . S
C121 O120 1.182 . S
O122 Zn107 2.080 . S
O122 C125 1.305 1_456 S
O123 Zn106 1.920 . S
O123 C125 1.234 1_556 S
C124 O110 1.305 . S
C124 O111 1.234 . S
C125 O122 1.305 1_654 S
C125 O123 1.234 1_554 S
Zn126 O132 1.920 . S
Zn126 O138 1.898 . S
Zn126 O141 1.905 . S
Zn127 O135 1.905 . S
Zn127 O136 1.898 . S
Zn127 O144 1.920 . S
Zn128 O131 2.080 . S
Zn128 O134 2.114 . S
Zn128 O137 2.120 . S
Zn128 O139 2.120 . S
Zn128 O140 2.114 . S
Zn128 O143 2.080 . S
C129 O134 1.166 . S
C129 O135 1.182 . S
C130 O136 1.167 . S
C130 O137 1.299 . S
O131 Zn128 2.080 . S
O131 C145 1.305 . S
O132 Zn126 1.920 . S
O132 C145 1.234 . S
C133 O138 1.167 . S
C133 O139 1.299 . S
O134 Zn128 2.114 . S
O134 C129 1.166 . S
O135 Zn127 1.905 . S
O135 C129 1.182 . S
O136 Zn127 1.898 . S
O136 C130 1.167 . S
O137 Zn128 2.120 . S
O137 C130 1.299 . S
O138 Zn126 1.898 . S
O138 C133 1.167 . S
O139 Zn128 2.120 . S
O139 C133 1.299 . S
O140 Zn128 2.114 . S
O140 C142 1.166 . S
O141 Zn126 1.905 . S
O141 C142 1.182 . S
C142 O140 1.166 . S
C142 O141 1.182 . S
O143 Zn128 2.080 . S
O143 C146 1.305 . S
O144 Zn127 1.920 . S
O144 C146 1.234 . S
C145 O131 1.305 . S
C145 O132 1.234 . S
C146 O143 1.305 . S
C146 O144 1.234 . S
Zn147 O153 1.920 . S
Zn147 O159 1.898 . S
Zn147 O162 1.905 . S
Zn148 O156 1.905 . S
Zn148 O157 1.898 1_655 S
Zn148 O165 1.920 . S
Zn149 O152 2.080 . S
Zn149 O155 2.114 1_565 S
Zn149 O158 2.120 1_565 S
Zn149 O160 2.120 . S
Zn149 O161 2.114 . S
Zn149 O164 2.080 . S
C150 O155 1.166 . S
C150 O156 1.182 1_455 S
C151 O157 1.167 . S
C151 O158 1.299 . S
O152 Zn149 2.080 . S
O152 C166 1.305 . S
O153 Zn147 1.920 . S
O153 C166 1.234 . S
C154 O159 1.167 . S
C154 O160 1.299 . S
O155 Zn149 2.114 1_545 S
O155 C150 1.166 . S
O156 Zn148 1.905 . S
O156 C150 1.182 1_655 S
O157 Zn148 1.898 1_455 S
O157 C151 1.167 . S
O158 Zn149 2.120 1_545 S
O158 C151 1.299 . S
O159 Zn147 1.898 . S
O159 C154 1.167 . S
O160 Zn149 2.120 . S
O160 C154 1.299 . S
O161 Zn149 2.114 . S
O161 C163 1.166 . S
O162 Zn147 1.905 . S
O162 C163 1.182 . S
C163 O161 1.166 . S
C163 O162 1.182 . S
O164 Zn149 2.080 . S
O164 C167 1.305 1_465 S
O165 Zn148 1.920 . S
O165 C167 1.234 . S
C166 O152 1.305 . S
C166 O153 1.234 . S
C167 O164 1.305 1_645 S
C167 O165 1.234 . S
Zn168 O174 1.920 . S
Zn168 O180 1.898 . S
Zn168 O183 1.905 . S
Zn169 O177 1.905 . S
Zn169 O178 1.898 . S
Zn169 O186 1.920 . S
Zn170 O173 2.080 . S
Zn170 O176 2.114 . S
Zn170 O179 2.120 . S
Zn170 O181 2.120 . S
Zn170 O182 2.114 . S
Zn170 O185 2.080 . S
C171 O176 1.166 . S
C171 O177 1.182 . S
C172 O178 1.167 . S
C172 O179 1.299 . S
O173 Zn170 2.080 . S
O173 C187 1.305 . S
O174 Zn168 1.920 . S
O174 C187 1.234 . S
C175 O180 1.167 . S
C175 O181 1.299 . S
O176 Zn170 2.114 . S
O176 C171 1.166 . S
O177 Zn169 1.905 . S
O177 C171 1.182 . S
O178 Zn169 1.898 . S
O178 C172 1.167 . S
O179 Zn170 2.120 . S
O179 C172 1.299 . S
O180 Zn168 1.898 . S
O180 C175 1.167 . S
O181 Zn170 2.120 . S
O181 C175 1.299 . S
O182 Zn170 2.114 . S
O182 C184 1.166 . S
O183 Zn168 1.905 . S
O183 C184 1.182 . S
C184 O182 1.166 . S
C184 O183 1.182 . S
O185 Zn170 2.080 . S
O185 C188 1.305 . S
O186 Zn169 1.920 . S
O186 C188 1.234 . S
C187 O173 1.305 . S
C187 O174 1.234 . S
C188 O185 1.305 . S
C188 O186 1.234 . S
Zn189 O195 1.920 . S
Zn189 O201 1.898 . S
Zn189 O204 1.905 . S
Zn190 O198 1.905 . S
Zn190 O199 1.898 1_455 S
Zn190 O207 1.920 . S
Zn191 O194 2.080 . S
Zn191 O197 2.114 . S
Zn191 O200 2.120 . S
Zn191 O202 2.120 . S
Zn191 O203 2.114 . S
Zn191 O206 2.080 . S
C192 O197 1.166 . S
C192 O198 1.182 1_655 S
C193 O199 1.167 . S
C193 O200 1.299 . S
O194 Zn191 2.080 . S
O194 C208 1.305 . S
O195 Zn189 1.920 . S
O195 C208 1.234 . S
C196 O201 1.167 . S
C196 O202 1.299 . S
O197 Zn191 2.114 . S
O197 C192 1.166 . S
O198 Zn190 1.905 . S
O198 C192 1.182 1_455 S
O199 Zn190 1.898 1_655 S
O199 C193 1.167 . S
O200 Zn191 2.120 . S
O200 C193 1.299 . S
O201 Zn189 1.898 . S
O201 C196 1.167 . S
O202 Zn191 2.120 . S
O202 C196 1.299 . S
O203 Zn191 2.114 . S
O203 C205 1.166 . S
O204 Zn189 1.905 . S
O204 C205 1.182 . S
C205 O203 1.166 . S
C205 O204 1.182 . S
O206 Zn191 2.080 . S
O206 C209 1.305 1_655 S
O207 Zn190 1.920 . S
O207 C209 1.234 . S
C208 O194 1.305 . S
C208 O195 1.234 . S
C209 O206 1.305 1_455 S
C209 O207 1.234 . S
Zn210 O216 1.920 . S
Zn210 O222 1.898 . S
Zn210 O225 1.905 . S
Zn211 O219 1.905 . S
Zn211 O220 1.898 . S
Zn211 O228 1.920 . S
Zn212 O215 2.080 . S
Zn212 O218 2.114 . S
Zn212 O221 2.120 . S
Zn212 O223 2.120 . S
Zn212 O224 2.114 . S
Zn212 O227 2.080 . S
C213 O218 1.166 . S
C213 O219 1.182 . S
C214 O220 1.167 . S
C214 O221 1.299 . S
O215 Zn212 2.080 . S
O215 C229 1.305 . S
O216 Zn210 1.920 . S
O216 C229 1.234 . S
C217 O222 1.167 . S
C217 O223 1.299 . S
O218 Zn212 2.114 . S
O218 C213 1.166 . S
O219 Zn211 1.905 . S
O219 C213 1.182 . S
O220 Zn211 1.898 . S
O220 C214 1.167 . S
O221 Zn212 2.120 . S
O221 C214 1.299 . S
O222 Zn210 1.898 . S
O222 C217 1.167 . S
O223 Zn212 2.120 . S
O223 C217 1.299 . S
O224 Zn212 2.114 . S
O224 C226 1.166 . S
O225 Zn210 1.905 . S
O225 C226 1.182 . S
C226 O224 1.166 . S
C226 O225 1.182 . S
O227 Zn212 2.080 . S
O227 C230 1.305 . S
O228 Zn211 1.920 . S
O228 C230 1.234 . S
C229 O215 1.305 . S
C229 O216 1.234 . S
C230 O227 1.305 . S
C230 O228 1.234 . S
Zn231 O237 1.920 . S
Zn231 O243 1.898 1_455 S
Zn231 O246 1.905 . S
Zn232 O240 1.905 . S
Zn232 O241 1.898 . S
Zn232 O249 1.920 . S
Zn233 O236 2.080 . S
Zn233 O239 2.114 . S
Zn233 O242 2.120 . S
Zn233 O244 2.120 . S
Zn233 O245 2.114 . S
Zn233 O248 2.080 . S
C234 O239 1.166 . S
C234 O240 1.182 . S
C235 O241 1.167 . S
C235 O242 1.299 . S
O236 Zn233 2.080 . S
O236 C250 1.305 1_655 S
O237 Zn231 1.920 . S
O237 C250 1.234 . S
C238 O243 1.167 . S
C238 O244 1.299 . S
O239 Zn233 2.114 . S
O239 C234 1.166 . S
O240 Zn232 1.905 . S
O240 C234 1.182 . S
O241 Zn232 1.898 . S
O241 C235 1.167 . S
O242 Zn233 2.120 . S
O242 C235 1.299 . S
O243 Zn231 1.898 1_655 S
O243 C238 1.167 . S
O244 Zn233 2.120 . S
O244 C238 1.299 . S
O245 Zn233 2.114 . S
O245 C247 1.166 . S
O246 Zn231 1.905 . S
O246 C247 1.182 1_455 S
C247 O245 1.166 . S
C247 O246 1.182 1_655 S
O248 Zn233 2.080 . S
O248 C251 1.305 . S
O249 Zn232 1.920 . S
O249 C251 1.234 . S
C250 O236 1.305 1_455 S
C250 O237 1.234 . S
C251 O248 1.305 . S
C251 O249 1.234 . S
Zn252 O258 1.920 . S
Zn252 O264 1.898 . S
Zn252 O267 1.905 . S
Zn253 O261 1.905 . S
Zn253 O262 1.898 . S
Zn253 O270 1.920 . S
Zn254 O257 2.080 . S
Zn254 O260 2.114 . S
Zn254 O263 2.120 . S
Zn254 O265 2.120 . S
Zn254 O266 2.114 . S
Zn254 O269 2.080 . S
C255 O260 1.166 . S
C255 O261 1.182 . S
C256 O262 1.167 . S
C256 O263 1.299 . S
O257 Zn254 2.080 . S
O257 C271 1.305 . S
O258 Zn252 1.920 . S
O258 C271 1.234 . S
C259 O264 1.167 . S
C259 O265 1.299 . S
O260 Zn254 2.114 . S
O260 C255 1.166 . S
O261 Zn253 1.905 . S
O261 C255 1.182 . S
O262 Zn253 1.898 . S
O262 C256 1.167 . S
O263 Zn254 2.120 . S
O263 C256 1.299 . S
O264 Zn252 1.898 . S
O264 C259 1.167 . S
O265 Zn254 2.120 . S
O265 C259 1.299 . S
O266 Zn254 2.114 . S
O266 C268 1.166 . S
O267 Zn252 1.905 . S
O267 C268 1.182 . S
C268 O266 1.166 . S
C268 O267 1.182 . S
O269 Zn254 2.080 . S
O269 C272 1.305 . S
O270 Zn253 1.920 . S
O270 C272 1.234 . S
C271 O257 1.305 . S
C271 O258 1.234 . S
C272 O269 1.305 . S
C272 O270 1.234 . S
Zn273 O279 1.920 . S
Zn273 O285 1.898 . S
Zn273 O288 1.905 . S
Zn274 O282 1.905 . S
Zn274 O283 1.898 1_655 S
Zn274 O291 1.920 . S
Zn275 O278 2.080 . S
Zn275 O281 2.114 . S
Zn275 O284 2.120 . S
Zn275 O286 2.120 . S
Zn275 O287 2.114 . S
Zn275 O290 2.080 . S
C276 O281 1.166 . S
C276 O282 1.182 1_455 S
C277 O283 1.167 . S
C277 O284 1.299 . S
O278 Zn275 2.080 . S
O278 C292 1.305 . S
O279 Zn273 1.920 . S
O279 C292 1.234 . S
C280 O285 1.167 . S
C280 O286 1.299 . S
O281 Zn275 2.114 . S
O281 C276 1.166 . S
O282 Zn274 1.905 . S
O282 C276 1.182 1_655 S
O283 Zn274 1.898 1_455 S
O283 C277 1.167 . S
O284 Zn275 2.120 . S
O284 C277 1.299 . S
O285 Zn273 1.898 . S
O285 C280 1.167 . S
O286 Zn275 2.120 . S
O286 C280 1.299 . S
O287 Zn275 2.114 . S
O287 C289 1.166 . S
O288 Zn273 1.905 . S
O288 C289 1.182 . S
C289 O287 1.166 . S
C289 O288 1.182 . S
O290 Zn275 2.080 . S
O290 C293 1.305 1_455 S
O291 Zn274 1.920 . S
O291 C293 1.234 . S
C292 O278 1.305 . S
C292 O279 1.234 . S
C293 O290 1.305 1_655 S
C293 O291 1.234 . S
Zn294 O300 1.920 . S
Zn294 O306 1.898 . S
Zn294 O309 1.905 . S
Zn295 O303 1.905 . S
Zn295 O304 1.898 . S
Zn295 O312 1.920 . S
Zn296 O299 2.080 . S
Zn296 O302 2.114 . S
Zn296 O305 2.120 . S
Zn296 O307 2.120 . S
Zn296 O308 2.114 . S
Zn296 O311 2.080 . S
C297 O302 1.166 . S
C297 O303 1.182 . S
C298 O304 1.167 . S
C298 O305 1.299 . S
O299 Zn296 2.080 . S
O299 C313 1.305 . S
O300 Zn294 1.920 . S
O300 C313 1.234 . S
C301 O306 1.167 . S
C301 O307 1.299 . S
O302 Zn296 2.114 . S
O302 C297 1.166 . S
O303 Zn295 1.905 . S
O303 C297 1.182 . S
O304 Zn295 1.898 . S
O304 C298 1.167 . S
O305 Zn296 2.120 . S
O305 C298 1.299 . S
O306 Zn294 1.898 . S
O306 C301 1.167 . S
O307 Zn296 2.120 . S
O307 C301 1.299 . S
O308 Zn296 2.114 . S
O308 C310 1.166 . S
O309 Zn294 1.905 . S
O309 C310 1.182 . S
C310 O308 1.166 . S
C310 O309 1.182 . S
O311 Zn296 2.080 . S
O311 C314 1.305 . S
O312 Zn295 1.920 . S
O312 C314 1.234 . S
C313 O299 1.305 . S
C313 O300 1.234 . S
C314 O311 1.305 . S
C314 O312 1.234 . S
Zn315 O321 1.920 . S
Zn315 O327 1.898 . S
Zn315 O330 1.905 . S
Zn316 O324 1.905 . S
Zn316 O325 1.898 1_655 S
Zn316 O333 1.920 . S
Zn317 O320 2.080 . S
Zn317 O323 2.114 . S
Zn317 O326 2.120 . S
Zn317 O328 2.120 . S
Zn317 O329 2.114 . S
Zn317 O332 2.080 . S
C318 O323 1.166 . S
C318 O324 1.182 1_455 S
C319 O325 1.167 . S
C319 O326 1.299 . S
O320 Zn317 2.080 . S
O320 C334 1.305 . S
O321 Zn315 1.920 . S
O321 C334 1.234 . S
C322 O327 1.167 . S
C322 O328 1.299 . S
O323 Zn317 2.114 . S
O323 C318 1.166 . S
O324 Zn316 1.905 . S
O324 C318 1.182 1_655 S
O325 Zn316 1.898 1_455 S
O325 C319 1.167 . S
O326 Zn317 2.120 . S
O326 C319 1.299 . S
O327 Zn315 1.898 . S
O327 C322 1.167 . S
O328 Zn317 2.120 . S
O328 C322 1.299 . S
O329 Zn317 2.114 . S
O329 C331 1.166 . S
O330 Zn315 1.905 . S
O330 C331 1.182 . S
C331 O329 1.166 . S
C331 O330 1.182 . S
O332 Zn317 2.080 . S
O332 C335 1.305 1_455 S
O333 Zn316 1.920 . S
O333 C335 1.234 . S
C334 O320 1.305 . S
C334 O321 1.234 . S
C335 O332 1.305 1_655 S
C335 O333 1.234 . S
Zn336 O342 1.920 . S
Zn336 O348 1.898 . S
Zn336 O351 1.905 . S
Zn337 O345 1.905 . S
Zn337 O346 1.898 . S
Zn337 O354 1.920 . S
Zn338 O341 2.080 . S
Zn338 O344 2.114 . S
Zn338 O347 2.120 . S
Zn338 O349 2.120 1_545 S
Zn338 O350 2.114 1_545 S
Zn338 O353 2.080 . S
C339 O344 1.166 . S
C339 O345 1.182 . S
C340 O346 1.167 . S
C340 O347 1.299 . S
O341 Zn338 2.080 . S
O341 C355 1.305 1_545 S
O342 Zn336 1.920 . S
O342 C355 1.234 . S
C343 O348 1.167 . S
C343 O349 1.299 . S
O344 Zn338 2.114 . S
O344 C339 1.166 . S
O345 Zn337 1.905 . S
O345 C339 1.182 . S
O346 Zn337 1.898 . S
O346 C340 1.167 . S
O347 Zn338 2.120 . S
O347 C340 1.299 . S
O348 Zn336 1.898 . S
O348 C343 1.167 . S
O349 Zn338 2.120 1_565 S
O349 C343 1.299 . S
O350 Zn338 2.114 1_565 S
O350 C352 1.166 . S
O351 Zn336 1.905 . S
O351 C352 1.182 . S
C352 O350 1.166 . S
C352 O351 1.182 . S
O353 Zn338 2.080 . S
O353 C356 1.305 . S
O354 Zn337 1.920 . S
O354 C356 1.234 . S
C355 O341 1.305 1_565 S
C355 O342 1.234 . S
C356 O353 1.305 . S
C356 O354 1.234 . S
Zn357 O363 1.920 . S
Zn357 O369 1.898 . S
Zn357 O372 1.905 . S
Zn358 O366 1.905 . S
Zn358 O367 1.898 . S
Zn358 O375 1.920 . S
Zn359 O362 2.080 . S
Zn359 O365 2.114 . S
Zn359 O368 2.120 . S
Zn359 O370 2.120 . S
Zn359 O371 2.114 . S
Zn359 O374 2.080 . S
C360 O365 1.166 . S
C360 O366 1.182 . S
C361 O367 1.167 . S
C361 O368 1.299 . S
O362 Zn359 2.080 . S
O362 C376 1.305 . S
O363 Zn357 1.920 . S
O363 C376 1.234 . S
C364 O369 1.167 . S
C364 O370 1.299 . S
O365 Zn359 2.114 . S
O365 C360 1.166 . S
O366 Zn358 1.905 . S
O366 C360 1.182 . S
O367 Zn358 1.898 . S
O367 C361 1.167 . S
O368 Zn359 2.120 . S
O368 C361 1.299 . S
O369 Zn357 1.898 . S
O369 C364 1.167 . S
O370 Zn359 2.120 . S
O370 C364 1.299 . S
O371 Zn359 2.114 . S
O371 C373 1.166 . S
O372 Zn357 1.905 . S
O372 C373 1.182 . S
C373 O371 1.166 . S
C373 O372 1.182 . S
O374 Zn359 2.080 . S
O374 C377 1.305 . S
O375 Zn358 1.920 . S
O375 C377 1.234 . S
C376 O362 1.305 . S
C376 O363 1.234 . S
C377 O374 1.305 . S
C377 O375 1.234 . S
Zn378 O384 1.920 . S
Zn378 O390 1.898 . S
Zn378 O393 1.905 . S
Zn379 O387 1.905 . S
Zn379 O388 1.898 . S
Zn379 O396 1.920 . S
Zn380 O383 2.080 . S
Zn380 O386 2.114 . S
Zn380 O389 2.120 . S
Zn380 O391 2.120 . S
Zn380 O392 2.114 . S
Zn380 O395 2.080 . S
C381 O386 1.166 . S
C381 O387 1.182 . S
C382 O388 1.167 . S
C382 O389 1.299 . S
O383 Zn380 2.080 . S
O383 C397 1.305 . S
O384 Zn378 1.920 . S
O384 C397 1.234 . S
C385 O390 1.167 . S
C385 O391 1.299 . S
O386 Zn380 2.114 . S
O386 C381 1.166 . S
O387 Zn379 1.905 . S
O387 C381 1.182 . S
O388 Zn379 1.898 . S
O388 C382 1.167 . S
O389 Zn380 2.120 . S
O389 C382 1.299 . S
O390 Zn378 1.898 . S
O390 C385 1.167 . S
O391 Zn380 2.120 . S
O391 C385 1.299 . S
O392 Zn380 2.114 . S
O392 C394 1.166 . S
O393 Zn378 1.905 . S
O393 C394 1.182 . S
C394 O392 1.166 . S
C394 O393 1.182 . S
O395 Zn380 2.080 . S
O395 C398 1.305 . S
O396 Zn379 1.920 . S
O396 C398 1.234 . S
C397 O383 1.305 . S
C397 O384 1.234 . S
C398 O395 1.305 . S
C398 O396 1.234 . S
Zn399 O405 1.920 . S
Zn399 O411 1.898 . S
Zn399 O414 1.905 . S
Zn400 O408 1.905 . S
Zn400 O409 1.898 . S
Zn400 O417 1.920 . S
Zn401 O404 2.080 . S
Zn401 O407 2.114 1_545 S
Zn401 O410 2.120 1_545 S
Zn401 O412 2.120 . S
Zn401 O413 2.114 . S
Zn401 O416 2.080 . S
C402 O407 1.166 . S
C402 O408 1.182 . S
C403 O409 1.167 . S
C403 O410 1.299 . S
O404 Zn401 2.080 . S
O404 C418 1.305 . S
O405 Zn399 1.920 . S
O405 C418 1.234 . S
C406 O411 1.167 . S
C406 O412 1.299 . S
O407 Zn401 2.114 1_565 S
O407 C402 1.166 . S
O408 Zn400 1.905 . S
O408 C402 1.182 . S
O409 Zn400 1.898 . S
O409 C403 1.167 . S
O410 Zn401 2.120 1_565 S
O410 C403 1.299 . S
O411 Zn399 1.898 . S
O411 C406 1.167 . S
O412 Zn401 2.120 . S
O412 C406 1.299 . S
O413 Zn401 2.114 . S
O413 C415 1.166 . S
O414 Zn399 1.905 . S
O414 C415 1.182 . S
C415 O413 1.166 . S
C415 O414 1.182 . S
O416 Zn401 2.080 . S
O416 C419 1.305 1_545 S
O417 Zn400 1.920 . S
O417 C419 1.234 . S
C418 O404 1.305 . S
C418 O405 1.234 . S
C419 O416 1.305 1_565 S
C419 O417 1.234 . S
Zn420 O426 1.920 . S
Zn420 O432 1.898 . S
Zn420 O435 1.905 . S
Zn421 O429 1.905 . S
Zn421 O430 1.898 . S
Zn421 O438 1.920 . S
Zn422 O425 2.080 . S
Zn422 O428 2.114 1_565 S
Zn422 O431 2.120 1_565 S
Zn422 O433 2.120 . S
Zn422 O434 2.114 . S
Zn422 O437 2.080 . S
C423 O428 1.166 . S
C423 O429 1.182 . S
C424 O430 1.167 . S
C424 O431 1.299 . S
O425 Zn422 2.080 . S
O425 C439 1.305 . S
O426 Zn420 1.920 . S
O426 C439 1.234 . S
C427 O432 1.167 . S
C427 O433 1.299 . S
O428 Zn422 2.114 1_545 S
O428 C423 1.166 . S
O429 Zn421 1.905 . S
O429 C423 1.182 . S
O430 Zn421 1.898 . S
O430 C424 1.167 . S
O431 Zn422 2.120 1_545 S
O431 C424 1.299 . S
O432 Zn420 1.898 . S
O432 C427 1.167 . S
O433 Zn422 2.120 . S
O433 C427 1.299 . S
O434 Zn422 2.114 . S
O434 C436 1.166 . S
O435 Zn420 1.905 . S
O435 C436 1.182 . S
C436 O434 1.166 . S
C436 O435 1.182 . S
O437 Zn422 2.080 . S
O437 C440 1.305 1_565 S
O438 Zn421 1.920 . S
O438 C440 1.234 . S
C439 O425 1.305 . S
C439 O426 1.234 . S
C440 O437 1.305 1_545 S
C440 O438 1.234 . S
Zn441 O447 1.920 . S
Zn441 O453 1.898 . S
Zn441 O456 1.905 . S
Zn442 O450 1.905 . S
Zn442 O451 1.898 . S
Zn442 O459 1.920 . S
Zn443 O446 2.080 . S
Zn443 O449 2.114 . S
Zn443 O452 2.120 . S
Zn443 O454 2.120 . S
Zn443 O455 2.114 . S
Zn443 O458 2.080 . S
C444 O449 1.166 . S
C444 O450 1.182 . S
C445 O451 1.167 . S
C445 O452 1.299 . S
O446 Zn443 2.080 . S
O446 C460 1.305 . S
O447 Zn441 1.920 . S
O447 C460 1.234 . S
C448 O453 1.167 . S
C448 O454 1.299 . S
O449 Zn443 2.114 . S
O449 C444 1.166 . S
O450 Zn442 1.905 . S
O450 C444 1.182 . S
O451 Zn442 1.898 . S
O451 C445 1.167 . S
O452 Zn443 2.120 . S
O452 C445 1.299 . S
O453 Zn441 1.898 . S
O453 C448 1.167 . S
O454 Zn443 2.120 . S
O454 C448 1.299 . S
O455 Zn443 2.114 . S
O455 C457 1.166 . S
O456 Zn441 1.905 . S
O456 C457 1.182 . S
C457 O455 1.166 . S
C457 O456 1.182 . S
O458 Zn443 2.080 . S
O458 C461 1.305 . S
O459 Zn442 1.920 . S
O459 C461 1.234 . S
C460 O446 1.305 . S
C460 O447 1.234 . S
C461 O458 1.305 . S
C461 O459 1.234 . S
Zn462 O468 1.920 . S
Zn462 O474 1.898 . S
Zn462 O477 1.905 . S
Zn463 O471 1.905 . S
Zn463 O472 1.898 . S
Zn463 O480 1.920 . S
Zn464 O467 2.080 . S
Zn464 O470 2.114 . S
Zn464 O473 2.120 . S
Zn464 O475 2.120 . S
Zn464 O476 2.114 . S
Zn464 O479 2.080 . S
C465 O470 1.166 . S
C465 O471 1.182 . S
C466 O472 1.167 . S
C466 O473 1.299 . S
O467 Zn464 2.080 . S
O467 C481 1.305 . S
O468 Zn462 1.920 . S
O468 C481 1.234 . S
C469 O474 1.167 . S
C469 O475 1.299 . S
O470 Zn464 2.114 . S
O470 C465 1.166 . S
O471 Zn463 1.905 . S
O471 C465 1.182 . S
O472 Zn463 1.898 . S
O472 C466 1.167 . S
O473 Zn464 2.120 . S
O473 C466 1.299 . S
O474 Zn462 1.898 . S
O474 C469 1.167 . S
O475 Zn464 2.120 . S
O475 C469 1.299 . S
O476 Zn464 2.114 . S
O476 C478 1.166 . S
O477 Zn462 1.905 . S
O477 C478 1.182 . S
C478 O476 1.166 . S
C478 O477 1.182 . S
O479 Zn464 2.080 . S
O479 C482 1.305 . S
O480 Zn463 1.920 . S
O480 C482 1.234 . S
C481 O467 1.305 . S
C481 O468 1.234 . S
C482 O479 1.305 . S
C482 O480 1.234 . S
Zn483 O489 1.920 . S
Zn483 O495 1.898 . S
Zn483 O498 1.905 . S
Zn484 O492 1.905 . S
Zn484 O493 1.898 . S
Zn484 O501 1.920 . S
Zn485 O488 2.080 . S
Zn485 O491 2.114 . S
Zn485 O494 2.120 . S
Zn485 O496 2.120 1_565 S
Zn485 O497 2.114 1_565 S
Zn485 O500 2.080 . S
C486 O491 1.166 . S
C486 O492 1.182 . S
C487 O493 1.167 . S
C487 O494 1.299 . S
O488 Zn485 2.080 . S
O488 C502 1.305 1_565 S
O489 Zn483 1.920 . S
O489 C502 1.234 . S
C490 O495 1.167 . S
C490 O496 1.299 . S
O491 Zn485 2.114 . S
O491 C486 1.166 . S
O492 Zn484 1.905 . S
O492 C486 1.182 . S
O493 Zn484 1.898 . S
O493 C487 1.167 . S
O494 Zn485 2.120 . S
O494 C487 1.299 . S
O495 Zn483 1.898 . S
O495 C490 1.167 . S
O496 Zn485 2.120 1_545 S
O496 C490 1.299 . S
O497 Zn485 2.114 1_545 S
O497 C499 1.166 . S
O498 Zn483 1.905 . S
O498 C499 1.182 . S
C499 O497 1.166 . S
C499 O498 1.182 . S
O500 Zn485 2.080 . S
O500 C503 1.305 . S
O501 Zn484 1.920 . S
O501 C503 1.234 . S
C502 O488 1.305 1_545 S
C502 O489 1.234 . S
C503 O500 1.305 . S
C503 O501 1.234 . S
Zn504 O510 1.920 1_554 S
Zn504 O516 1.898 . S
Zn504 O519 1.905 . S
Zn505 O513 1.905 . S
Zn505 O514 1.898 . S
Zn505 O522 1.920 . S
Zn506 O509 2.080 1_554 S
Zn506 O512 2.114 . S
Zn506 O515 2.120 . S
Zn506 O517 2.120 . S
Zn506 O518 2.114 . S
Zn506 O521 2.080 . S
C507 O512 1.166 . S
C507 O513 1.182 . S
C508 O514 1.167 . S
C508 O515 1.299 . S
O509 Zn506 2.080 1_556 S
O509 C523 1.305 . S
O510 Zn504 1.920 1_556 S
O510 C523 1.234 . S
C511 O516 1.167 . S
C511 O517 1.299 . S
O512 Zn506 2.114 . S
O512 C507 1.166 . S
O513 Zn505 1.905 . S
O513 C507 1.182 . S
O514 Zn505 1.898 . S
O514 C508 1.167 . S
O515 Zn506 2.120 . S
O515 C508 1.299 . S
O516 Zn504 1.898 . S
O516 C511 1.167 . S
O517 Zn506 2.120 . S
O517 C511 1.299 . S
O518 Zn506 2.114 . S
O518 C520 1.166 . S
O519 Zn504 1.905 . S
O519 C520 1.182 . S
C520 O518 1.166 . S
C520 O519 1.182 . S
O521 Zn506 2.080 . S
O521 C524 1.305 1_554 S
O522 Zn505 1.920 . S
O522 C524 1.234 1_554 S
C523 O509 1.305 . S
C523 O510 1.234 . S
C524 O521 1.305 1_556 S
C524 O522 1.234 1_556 S
Zn525 O531 1.920 1_554 S
Zn525 O537 1.898 . S
Zn525 O540 1.905 . S
Zn526 O534 1.905 . S
Zn526 O535 1.898 . S
Zn526 O543 1.920 . S
Zn527 O530 2.080 1_554 S
Zn527 O533 2.114 . S
Zn527 O536 2.120 . S
Zn527 O538 2.120 . S
Zn527 O539 2.114 . S
Zn527 O542 2.080 . S
C528 O533 1.166 . S
C528 O534 1.182 . S
C529 O535 1.167 . S
C529 O536 1.299 . S
O530 Zn527 2.080 1_556 S
O530 C544 1.305 . S
O531 Zn525 1.920 1_556 S
O531 C544 1.234 . S
C532 O537 1.167 . S
C532 O538 1.299 . S
O533 Zn527 2.114 . S
O533 C528 1.166 . S
O534 Zn526 1.905 . S
O534 C528 1.182 . S
O535 Zn526 1.898 . S
O535 C529 1.167 . S
O536 Zn527 2.120 . S
O536 C529 1.299 . S
O537 Zn525 1.898 . S
O537 C532 1.167 . S
O538 Zn527 2.120 . S
O538 C532 1.299 . S
O539 Zn527 2.114 . S
O539 C541 1.166 . S
O540 Zn525 1.905 . S
O540 C541 1.182 . S
C541 O539 1.166 . S
C541 O540 1.182 . S
O542 Zn527 2.080 . S
O542 C545 1.305 1_554 S
O543 Zn526 1.920 . S
O543 C545 1.234 1_554 S
C544 O530 1.305 . S
C544 O531 1.234 . S
C545 O542 1.305 1_556 S
C545 O543 1.234 1_556 S
Zn546 O552 1.920 . S
Zn546 O558 1.898 . S
Zn546 O561 1.905 . S
Zn547 O555 1.905 . S
Zn547 O556 1.898 . S
Zn547 O564 1.920 . S
Zn548 O551 2.080 . S
Zn548 O554 2.114 . S
Zn548 O557 2.120 . S
Zn548 O559 2.120 . S
Zn548 O560 2.114 . S
Zn548 O563 2.080 . S
C549 O554 1.166 . S
C549 O555 1.182 . S
C550 O556 1.167 . S
C550 O557 1.299 . S
O551 Zn548 2.080 . S
O551 C565 1.305 . S
O552 Zn546 1.920 . S
O552 C565 1.234 . S
C553 O558 1.167 . S
C553 O559 1.299 . S
O554 Zn548 2.114 . S
O554 C549 1.166 . S
O555 Zn547 1.905 . S
O555 C549 1.182 . S
O556 Zn547 1.898 . S
O556 C550 1.167 . S
O557 Zn548 2.120 . S
O557 C550 1.299 . S
O558 Zn546 1.898 . S
O558 C553 1.167 . S
O559 Zn548 2.120 . S
O559 C553 1.299 . S
O560 Zn548 2.114 . S
O560 C562 1.166 . S
O561 Zn546 1.905 . S
O561 C562 1.182 . S
C562 O560 1.166 . S
C562 O561 1.182 . S
O563 Zn548 2.080 . S
O563 C566 1.305 . S
O564 Zn547 1.920 . S
O564 C566 1.234 . S
C565 O551 1.305 . S
C565 O552 1.234 . S
C566 O563 1.305 . S
C566 O564 1.234 . S
Zn567 O573 1.920 . S
Zn567 O579 1.898 . S
Zn567 O582 1.905 . S
Zn568 O576 1.905 . S
Zn568 O577 1.898 . S
Zn568 O585 1.920 . S
Zn569 O572 2.080 . S
Zn569 O575 2.114 . S
Zn569 O578 2.120 . S
Zn569 O580 2.120 . S
Zn569 O581 2.114 . S
Zn569 O584 2.080 . S
C570 O575 1.166 . S
C570 O576 1.182 . S
C571 O577 1.167 . S
C571 O578 1.299 . S
O572 Zn569 2.080 . S
O572 C586 1.305 . S
O573 Zn567 1.920 . S
O573 C586 1.234 . S
C574 O579 1.167 . S
C574 O580 1.299 . S
O575 Zn569 2.114 . S
O575 C570 1.166 . S
O576 Zn568 1.905 . S
O576 C570 1.182 . S
O577 Zn568 1.898 . S
O577 C571 1.167 . S
O578 Zn569 2.120 . S
O578 C571 1.299 . S
O579 Zn567 1.898 . S
O579 C574 1.167 . S
O580 Zn569 2.120 . S
O580 C574 1.299 . S
O581 Zn569 2.114 . S
O581 C583 1.166 . S
O582 Zn567 1.905 . S
O582 C583 1.182 . S
C583 O581 1.166 . S
C583 O582 1.182 . S
O584 Zn569 2.080 . S
O584 C587 1.305 . S
O585 Zn568 1.920 . S
O585 C587 1.234 . S
C586 O572 1.305 . S
C586 O573 1.234 . S
C587 O584 1.305 . S
C587 O585 1.234 . S
Zn588 O594 1.920 . S
Zn588 O600 1.898 . S
Zn588 O603 1.905 . S
Zn589 O597 1.905 . S
Zn589 O598 1.898 . S
Zn589 O606 1.920 1_556 S
Zn590 O593 2.080 . S
Zn590 O596 2.114 . S
Zn590 O599 2.120 . S
Zn590 O601 2.120 . S
Zn590 O602 2.114 . S
Zn590 O605 2.080 1_556 S
C591 O596 1.166 . S
C591 O597 1.182 . S
C592 O598 1.167 . S
C592 O599 1.299 . S
O593 Zn590 2.080 . S
O593 C607 1.305 1_556 S
O594 Zn588 1.920 . S
O594 C607 1.234 1_556 S
C595 O600 1.167 . S
C595 O601 1.299 . S
O596 Zn590 2.114 . S
O596 C591 1.166 . S
O597 Zn589 1.905 . S
O597 C591 1.182 . S
O598 Zn589 1.898 . S
O598 C592 1.167 . S
O599 Zn590 2.120 . S
O599 C592 1.299 . S
O600 Zn588 1.898 . S
O600 C595 1.167 . S
O601 Zn590 2.120 . S
O601 C595 1.299 . S
O602 Zn590 2.114 . S
O602 C604 1.166 . S
O603 Zn588 1.905 . S
O603 C604 1.182 . S
C604 O602 1.166 . S
C604 O603 1.182 . S
O605 Zn590 2.080 1_554 S
O605 C608 1.305 . S
O606 Zn589 1.920 1_554 S
O606 C608 1.234 . S
C607 O593 1.305 1_554 S
C607 O594 1.234 1_554 S
C608 O605 1.305 . S
C608 O606 1.234 . S
Zn609 O615 1.920 1_556 S
Zn609 O621 1.898 . S
Zn609 O624 1.905 . S
Zn610 O618 1.905 . S
Zn610 O619 1.898 . S
Zn610 O627 1.920 . S
Zn611 O614 2.080 1_556 S
Zn611 O617 2.114 . S
Zn611 O620 2.120 . S
Zn611 O622 2.120 . S
Zn611 O623 2.114 . S
Zn611 O626 2.080 . S
C612 O617 1.166 . S
C612 O618 1.182 . S
C613 O619 1.167 . S
C613 O620 1.299 . S
O614 Zn611 2.080 1_554 S
O614 C628 1.305 . S
O615 Zn609 1.920 1_554 S
O615 C628 1.234 . S
C616 O621 1.167 . S
C616 O622 1.299 . S
O617 Zn611 2.114 . S
O617 C612 1.166 . S
O618 Zn610 1.905 . S
O618 C612 1.182 . S
O619 Zn610 1.898 . S
O619 C613 1.167 . S
O620 Zn611 2.120 . S
O620 C613 1.299 . S
O621 Zn609 1.898 . S
O621 C616 1.167 . S
O622 Zn611 2.120 . S
O622 C616 1.299 . S
O623 Zn611 2.114 . S
O623 C625 1.166 . S
O624 Zn609 1.905 . S
O624 C625 1.182 . S
C625 O623 1.166 . S
C625 O624 1.182 . S
O626 Zn611 2.080 . S
O626 C629 1.305 1_556 S
O627 Zn610 1.920 . S
O627 C629 1.234 1_556 S
C628 O614 1.305 . S
C628 O615 1.234 . S
C629 O626 1.305 1_554 S
C629 O627 1.234 1_554 S
Zn630 O636 1.920 . S
Zn630 O642 1.898 . S
Zn630 O645 1.905 . S
Zn631 O639 1.905 . S
Zn631 O640 1.898 . S
Zn631 O648 1.920 . S
Zn632 O635 2.080 . S
Zn632 O638 2.114 . S
Zn632 O641 2.120 . S
Zn632 O643 2.120 . S
Zn632 O644 2.114 . S
Zn632 O647 2.080 . S
C633 O638 1.166 . S
C633 O639 1.182 . S
C634 O640 1.167 . S
C634 O641 1.299 . S
O635 Zn632 2.080 . S
O635 C649 1.305 . S
O636 Zn630 1.920 . S
O636 C649 1.234 . S
C637 O642 1.167 . S
C637 O643 1.299 . S
O638 Zn632 2.114 . S
O638 C633 1.166 . S
O639 Zn631 1.905 . S
O639 C633 1.182 . S
O640 Zn631 1.898 . S
O640 C634 1.167 . S
O641 Zn632 2.120 . S
O641 C634 1.299 . S
O642 Zn630 1.898 . S
O642 C637 1.167 . S
O643 Zn632 2.120 . S
O643 C637 1.299 . S
O644 Zn632 2.114 . S
O644 C646 1.166 . S
O645 Zn630 1.905 . S
O645 C646 1.182 . S
C646 O644 1.166 . S
C646 O645 1.182 . S
O647 Zn632 2.080 . S
O647 C650 1.305 . S
O648 Zn631 1.920 . S
O648 C650 1.234 . S
C649 O635 1.305 . S
C649 O636 1.234 . S
C650 O647 1.305 . S
C650 O648 1.234 . S
Zn651 O657 1.920 . S
Zn651 O663 1.898 . S
Zn651 O666 1.905 . S
Zn652 O660 1.905 . S
Zn652 O661 1.898 . S
Zn652 O669 1.920 . S
Zn653 O656 2.080 . S
Zn653 O659 2.114 . S
Zn653 O662 2.120 . S
Zn653 O664 2.120 . S
Zn653 O665 2.114 . S
Zn653 O668 2.080 . S
C654 O659 1.166 . S
C654 O660 1.182 . S
C655 O661 1.167 . S
C655 O662 1.299 . S
O656 Zn653 2.080 . S
O656 C670 1.305 . S
O657 Zn651 1.920 . S
O657 C670 1.234 . S
C658 O663 1.167 . S
C658 O664 1.299 . S
O659 Zn653 2.114 . S
O659 C654 1.166 . S
O660 Zn652 1.905 . S
O660 C654 1.182 . S
O661 Zn652 1.898 . S
O661 C655 1.167 . S
O662 Zn653 2.120 . S
O662 C655 1.299 . S
O663 Zn651 1.898 . S
O663 C658 1.167 . S
O664 Zn653 2.120 . S
O664 C658 1.299 . S
O665 Zn653 2.114 . S
O665 C667 1.166 . S
O666 Zn651 1.905 . S
O666 C667 1.182 . S
C667 O665 1.166 . S
C667 O666 1.182 . S
O668 Zn653 2.080 . S
O668 C671 1.305 . S
O669 Zn652 1.920 . S
O669 C671 1.234 . S
C670 O656 1.305 . S
C670 O657 1.234 . S
C671 O668 1.305 . S
C671 O669 1.234 . S
C529 C7 2.116 . S
C508 C25 2.116 . S
C571 C46 2.116 . S
C553 C67 2.116 . S
C88 C613 2.116 . S
C109 C595 2.116 . S
C133 C655 2.116 . S
C634 C151 2.116 . S
C361 C172 2.116 . S
C343 C193 2.116 . S
C403 C217 2.116 . S
C382 C238 2.116 . S
C256 C445 2.116 . S
C424 C277 2.116 . S
C298 C490 2.116 . S
C466 C319 2.116 . S
C16 C423 1.048 1_565 S
C276 C24 1.048 1_455 S
C633 C45 1.048 1_556 S
C66 C150 1.048 1_664 S
C87 C352 1.048 1_545 S
C108 C192 1.048 1_455 S
C142 C562 1.048 1_556 S
C604 C171 1.048 . S
C465 C226 1.048 . S
C318 C247 1.048 1_455 S
C507 C255 1.048 . S
C297 C381 1.048 . S
C612 C360 1.048 . S
C402 C499 1.048 1_565 S
C528 C444 1.048 . S
C570 C654 1.048 1_554 S
C20 C418 1.668 . S
C40 C397 1.668 . S
C61 C376 1.668 . S
C82 C356 1.668 . S
C103 C503 1.668 . S
C124 C481 1.668 . S
C146 C460 1.668 . S
C166 C439 1.668 . S
C187 C586 1.668 . S
C208 C566 1.668 . S
C230 C544 1.668 . S
C251 C523 1.668 . S
C670 C271 1.668 . S
C649 C292 1.668 . S
C628 C313 1.668 . S
C608 C334 1.668 . S
C49 C4 0.657 . S
C70 C28 0.657 . S
C130 C91 0.657 . S
C112 C154 0.657 . S
C214 C175 0.657 . S
C196 C235 0.657 . S
C301 C259 0.657 . S
C280 C322 0.657 . S
C340 C385 0.657 . S
C364 C406 0.657 . S
C469 C427 0.657 . S
C448 C487 0.657 . S
C511 C550 0.657 . S
C574 C532 0.657 . S
C592 C637 0.657 . S
C616 C658 0.657 . S
C19 C163 1.613 . S
C646 C41 1.613 . S
C62 C289 1.613 . S
C83 C436 1.613 . S
C79 C104 1.613 . S
C125 C549 1.613 . S
C205 C145 1.613 . S
C339 C167 1.613 . S
C188 C331 1.613 . S
C478 C209 1.613 . S
C229 C121 1.613 . S
C591 C250 1.613 . S
C272 C234 1.613 . S
C293 C394 1.613 . S
C314 C37 1.613 . S
C520 C335 1.613 . S
C355 C486 1.613 . S
C377 C310 1.613 . S
C398 C625 1.613 . S
C419 C100 1.613 . S
C440 C415 1.613 . S
C213 C461 1.613 . S
C541 C482 1.613 . S
C502 C3 1.613 . S
C667 C524 1.613 . S
C129 C545 1.613 . S
C457 C565 1.613 . S
C587 C268 1.613 . S
C583 C607 1.613 . S
C58 C629 1.613 . S
C373 C650 1.613 . S
C671 C184 1.613 . S
