# Generated by pormake.
# Topology kag, (6)-cn, num edge types: 1
# Building blocks:
#     Node 0, Type 0, BuildingBlock: INOVEN_clean_sbu_0, # of connection points: 6
#     Node 1, Type 0, BuildingBlock: INOVEN_clean_sbu_0, # of connection points: 6
#     Node 2, Type 0, BuildingBlock: INOVEN_clean_sbu_0, # of connection points: 6
#     Edge 3, Type (0, 0), BuildingBlock: MIFKUJ_clean_linker_0, # of connection points: 2
#     Edge 4, Type (0, 0), BuildingBlock: MIFKUJ_clean_linker_0, # of connection points: 2
#     Edge 5, Type (0, 0), BuildingBlock: MIFKUJ_clean_linker_0, # of connection points: 2
#     Edge 6, Type (0, 0), BuildingBlock: MIFKUJ_clean_linker_0, # of connection points: 2
#     Edge 7, Type (0, 0), BuildingBlock: MIFKUJ_clean_linker_0, # of connection points: 2
#     Edge 8, Type (0, 0), BuildingBlock: MIFKUJ_clean_linker_0, # of connection points: 2
#     Edge 9, Type (0, 0), BuildingBlock: MIFKUJ_clean_linker_0, # of connection points: 2
#     Edge 10, Type (0, 0), BuildingBlock: MIFKUJ_clean_linker_0, # of connection points: 2
#     Edge 11, Type (0, 0), BuildingBlock: MIFKUJ_clean_linker_0, # of connection points: 2
# Relax obj value: 0.051
# Max RMSD: 0.171
# Mean RMSD: 0.091
data_MOF--net-kag--node1-INOVEN_clean_sbu_0--edge1-MIFKUJ_clean_linker_0
_symmetry_space_group_name_H-M    P1
_symmetry_Int_Tables_number       1
_symmetry_cell_setting            triclinic
loop_
_symmetry_equiv_pos_as_xyz
'x, y, z'
_cell_length_a     40.479168
_cell_length_b     51.014154
_cell_length_c     19.101267
_cell_angle_alpha  96.88707
_cell_angle_beta   91.948732
_cell_angle_gamma 100.75735
loop_
_atom_site_label
_atom_site_type_symbol
_atom_site_fract_x
_atom_site_fract_y
_atom_site_fract_z
_atom_type_partial_charge
Gd0 Gd 1.04069 0.482 0.01238 0.0
Gd1 Gd 0.05137 0.54027 0.99967 0.0
C2 C 0.97509 0.51048 0.99847 0.0
C3 C 1.0217 0.43429 0.04813 0.0
C4 C 0.99239 0.41162 0.03629 0.0
C5 C 0.9888 0.39274 0.97516 0.0
C6 C 0.96884 0.40766 0.08831 0.0
C7 C 0.93941 0.36604 0.01933 0.0
C8 C 0.94256 0.3852 0.0798 0.0
C9 C 0.9626 0.37028 0.96675 0.0
C10 C 0.04502 0.49308 0.87712 0.0
C11 C 0.11687 0.51167 0.01212 0.0
C12 C 0.06979 0.5879 0.96303 0.0
C13 C 0.09957 0.60988 0.96878 0.0
C14 C 0.11891 0.6187 0.03263 0.0
C15 C 0.10802 0.62296 0.90955 0.0
C16 C 0.15367 0.65441 0.97853 0.0
C17 C 0.1348 0.6449 0.91422 0.0
C18 C 0.14565 0.64079 0.03748 0.0
C19 C 0.04655 0.52889 0.13479 0.0
O20 O 0.98753 0.49039 0.01995 0.0
O21 O 0.99516 0.53121 0.97735 0.0
O22 O 1.03994 0.43921 0.9943 0.0
O23 O 1.01764 0.45626 0.08709 0.0
O24 O 0.05662 0.47372 0.90124 0.0
O25 O 1.02967 0.50463 0.92431 0.0
O26 O 0.10442 0.5318 0.99094 0.0
O27 O 0.0969 0.49108 0.03416 0.0
O28 O 0.05469 0.58333 0.02103 0.0
O29 O 0.07164 0.56584 0.92204 0.0
O30 O 1.0345 0.548 0.11033 0.0
O31 O 0.06236 0.51763 0.08788 0.0
H32 H 1.00654 0.39503 0.93412 0.0
H33 H 0.97112 0.42165 0.13639 0.0
H34 H 0.92538 0.38238 0.1217 0.0
H35 H 0.96065 0.3561 0.91913 0.0
H36 H 0.11301 0.60887 0.07911 0.0
H37 H 0.09356 0.61639 0.85968 0.0
H38 H 0.14063 0.6545 0.86737 0.0
H39 H 0.15941 0.64764 0.08798 0.0
Gd40 Gd 0.58315 0.01646 1.00187 0.0
Gd41 Gd 0.50966 1.00546 0.02235 0.0
C42 C 0.54302 0.06661 0.02874 0.0
C43 C 0.64306 0.03506 0.96442 0.0
C44 C 0.66422 0.06186 0.96267 0.0
C45 C 0.69797 0.06668 0.98813 0.0
C46 C 0.65107 0.08293 0.93812 0.0
C47 C 0.70519 0.11338 0.96561 0.0
C48 C 0.67132 0.10848 0.93982 0.0
C49 C 0.71826 0.09213 0.98955 0.0
C50 C 0.56749 0.01048 0.13653 0.0
C51 C 0.54936 0.95491 0.9915 0.0
C52 C 0.45105 0.98572 0.06342 0.0
C53 C 0.42941 0.95859 0.05503 0.0
C54 C 0.41888 0.94437 0.98786 0.0
C55 C 0.41987 0.94636 0.11521 0.0
C56 C 0.38949 0.90627 0.04143 0.0
C57 C 0.40025 0.92043 0.10852 0.0
C58 C 0.39899 0.91854 0.98118 0.0
C59 C 0.5249 0.01114 0.88738 0.0
O60 O 0.56864 0.05735 1.00043 0.0
O61 O 0.5179 0.05022 0.05248 0.0
O62 O 0.63693 0.02829 0.02718 0.0
O63 O 0.61665 0.02806 0.92003 0.0
O64 O 0.59181 1.00133 0.10565 0.0
O65 O 0.55326 0.02328 0.09571 0.0
O66 O 0.52243 0.96374 0.01426 0.0
O67 O 0.5762 0.97163 0.97532 0.0
O68 O 0.45527 0.9979 0.00692 0.0
O69 O 0.47886 0.98869 0.10294 0.0
O70 O 0.49999 0.01964 0.91772 0.0
O71 O 0.53945 0.99863 0.92848 0.0
H72 H 0.70858 0.05076 0.00763 0.0
H73 H 0.62516 0.07966 0.91777 0.0
H74 H 0.66056 0.1243 0.92031 0.0
H75 H 0.74407 0.0953 0.0107 0.0
H76 H 0.4261 0.95309 0.94035 0.0
H77 H 0.42772 0.95687 0.16755 0.0
H78 H 0.39307 0.9116 0.15591 0.0
H79 H 0.39139 0.90802 0.92878 0.0
Gd80 Gd 0.5551 0.54003 0.99775 0.0
Gd81 Gd 0.53665 0.48071 0.00904 0.0
C82 C 0.47604 0.51282 0.00804 0.0
C83 C 0.56366 0.58819 0.96067 0.0
C84 C 0.55474 0.61538 0.97047 0.0
C85 C 0.56884 0.63451 0.02812 0.0
C86 C 0.53596 0.62371 0.91681 0.0
C87 C 0.54738 0.66993 0.97606 0.0
C88 C 0.53214 0.6506 0.91978 0.0
C89 C 0.56519 0.66139 0.03084 0.0
C90 C 0.55593 0.52791 0.13284 0.0
C91 C 0.61552 0.50761 0.99698 0.0
C92 C 0.52736 0.43264 0.0463 0.0
C93 C 0.53723 0.40597 0.04411 0.0
C94 C 0.54018 0.39002 0.9801 0.0
C95 C 0.53928 0.39484 0.10744 0.0
C96 C 0.5444 0.35161 0.04296 0.0
C97 C 0.54285 0.36805 0.10699 0.0
C98 C 0.54387 0.36316 0.97958 0.0
C99 C 0.53522 0.49317 0.8743 0.0
O100 O 0.49772 0.53284 0.98721 0.0
O101 O 0.48646 0.492 0.03014 0.0
O102 O 0.58155 0.5814 0.01142 0.0
O103 O 0.54173 0.56784 0.92808 0.0
O104 O 0.57615 0.5477 0.11117 0.0
O105 O 0.53455 0.51679 0.08358 0.0
O106 O 0.59403 0.48787 0.01943 0.0
O107 O 0.60482 0.52817 0.97393 0.0
O108 O 0.51349 0.43857 0.98893 0.0
O109 O 0.54617 0.45354 0.0842 0.0
O110 O 0.51472 0.47359 0.89628 0.0
O111 O 0.55697 0.50397 0.92314 0.0
H112 H 0.58373 0.62898 0.07015 0.0
H113 H 0.52531 0.60964 0.87105 0.0
H114 H 0.51851 0.65649 0.87635 0.0
H115 H 0.57688 0.67563 0.07544 0.0
H116 H 0.53843 0.39797 0.93029 0.0
H117 H 0.53679 0.40664 0.15735 0.0
H118 H 0.54377 0.36005 0.1569 0.0
H119 H 0.5448 0.35111 0.92925 0.0
H120 H 1.0214 0.53236 0.81446 0.0
H121 H 1.02146 0.5387 0.68901 0.0
H122 H 0.06679 0.46887 0.64335 0.0
H123 H 0.06779 0.46311 0.76839 0.0
H124 H 0.0965 0.50624 0.57474 0.0
H125 H 0.97991 0.46942 0.60403 0.0
H126 H 0.92521 0.46783 0.65814 0.0
H127 H 0.9197 0.54553 0.59873 0.0
H128 H 0.97458 0.54772 0.54503 0.0
H129 H 0.07117 0.49019 0.19821 0.0
H130 H 0.07083 0.48379 0.32361 0.0
H131 H 1.02281 0.55223 0.3679 0.0
H132 H 1.02219 0.55807 0.2429 0.0
H133 H 0.99412 0.51555 0.43761 0.0
H134 H 0.11032 0.55314 0.41049 0.0
H135 H 0.16761 0.55758 0.36731 0.0
H136 H 0.17501 0.48024 0.42664 0.0
H137 H 0.11763 0.47518 0.46943 0.0
C138 C 1.03136 0.5184 0.77753 0.0
C139 C 1.04452 0.4972 0.80136 0.0
C140 C 1.03119 0.52191 0.70564 0.0
C141 C 1.0437 0.50404 0.65591 0.0
C142 C 0.05697 0.48297 0.68014 0.0
C143 C 0.05744 0.47964 0.75183 0.0
C144 C 1.04373 0.50737 0.57895 0.0
C145 C 0.07394 0.50785 0.54455 0.0
C146 C 1.01463 0.51027 0.53948 0.0
C147 C 0.98148 0.50883 0.57108 0.0
C148 C 0.96712 0.48623 0.60288 0.0
C149 C 0.93608 0.48521 0.63343 0.0
C150 C 0.91904 0.50659 0.63203 0.0
C151 C 0.93295 0.52899 0.59985 0.0
C152 C 0.964 0.53012 0.56929 0.0
C153 C 0.06058 0.50385 0.23483 0.0
C154 C 0.04681 0.52468 0.21058 0.0
C155 C 0.06058 0.5003 0.30674 0.0
C156 C 0.04719 0.51774 0.35613 0.0
C157 C 1.03329 0.53844 0.33145 0.0
C158 C 1.03304 0.54183 0.25975 0.0
C159 C 0.04696 0.51433 0.43311 0.0
C160 C 1.01669 0.51383 0.46758 0.0
C161 C 0.07606 0.51148 0.47277 0.0
C162 C 0.10958 0.5137 0.44261 0.0
C163 C 0.12397 0.53691 0.41336 0.0
C164 C 0.1565 0.53958 0.38922 0.0
C165 C 0.17494 0.51924 0.3945 0.0
C166 C 0.16071 0.49599 0.42277 0.0
C167 C 0.1282 0.49321 0.44694 0.0
H168 H 0.20038 0.5216 0.37739 0.0
H169 H 0.89502 0.50578 0.65575 0.0
H170 H 0.51852 0.0293 0.21322 0.0
H171 H 0.51069 0.02897 0.34 0.0
H172 H 0.59693 0.99123 0.35942 0.0
H173 H 0.60398 0.99067 0.23282 0.0
H174 H 0.5509 0.96892 0.43536 0.0
H175 H 0.59882 0.06094 0.41212 0.0
H176 H 0.60213 0.10432 0.36542 0.0
H177 H 0.50612 0.11181 0.44598 0.0
H178 H 0.50203 0.06828 0.49236 0.0
H179 H 0.57409 0.99245 0.81123 0.0
H180 H 0.58216 0.99279 0.68457 0.0
H181 H 0.49564 0.03012 0.66414 0.0
H182 H 0.48839 0.03074 0.7907 0.0
H183 H 0.54203 0.05259 0.58885 0.0
H184 H 0.4943 0.96019 0.61179 0.0
H185 H 0.49186 0.91718 0.66006 0.0
H186 H 0.58849 0.91074 0.58123 0.0
H187 H 0.59167 0.95388 0.53315 0.0
C188 C 0.53569 0.02086 0.2446 0.0
C189 C 0.56195 1.01013 0.213 0.0
C190 C 0.53136 0.02082 0.31727 0.0
C191 C 0.55356 0.01046 0.36014 0.0
C192 C 0.57944 0.99938 0.32805 0.0
C193 C 0.58354 0.99916 0.25549 0.0
C194 C 0.55009 0.01115 0.43822 0.0
C195 C 0.54936 0.98733 0.4689 0.0
C196 C 0.54745 0.03497 0.48251 0.0
C197 C 0.54998 0.06122 0.45507 0.0
C198 C 0.57832 0.07175 0.41945 0.0
C199 C 0.58035 0.09638 0.3931 0.0
C200 C 0.55431 0.11078 0.40255 0.0
C201 C 0.52624 0.10062 0.43859 0.0
C202 C 0.52407 0.07598 0.46497 0.0
C203 C 0.55693 1.00082 0.77967 0.0
C204 C 0.53053 0.01146 0.81097 0.0
C205 C 0.56138 1.00084 0.70706 0.0
C206 C 0.53916 0.01106 0.66394 0.0
C207 C 0.51314 0.02206 0.69572 0.0
C208 C 0.50892 0.02231 0.76824 0.0
C209 C 0.54276 0.01036 0.58592 0.0
C210 C 0.54353 0.03418 0.55527 0.0
C211 C 0.54551 0.98655 0.5417 0.0
C212 C 0.54334 0.96037 0.56942 0.0
C213 C 0.51509 0.94966 0.60503 0.0
C214 C 0.51357 0.92525 0.63233 0.0
C215 C 0.54004 0.91127 0.62387 0.0
C216 C 0.56802 0.9216 0.5878 0.0
C217 C 0.56967 0.94601 0.56044 0.0
H218 H 0.53885 0.8924 0.64514 0.0
H219 H 0.55593 0.12984 0.38208 0.0
H220 H 0.58273 0.52813 0.81423 0.0
H221 H 0.58633 0.53395 0.68883 0.0
H222 H 0.49534 0.47435 0.63874 0.0
H223 H 0.49207 0.46815 0.76353 0.0
H224 H 0.54018 0.46589 0.54551 0.0
H225 H 0.49702 0.54304 0.64328 0.0
H226 H 0.49728 0.58375 0.72735 0.0
H227 H 0.59208 0.62085 0.65591 0.0
H228 H 0.59267 0.58017 0.57219 0.0
H229 H 0.5088 0.49239 0.19233 0.0
H230 H 0.50489 0.48655 0.31768 0.0
H231 H 0.5947 0.54732 0.36911 0.0
H232 H 0.59823 0.55353 0.24439 0.0
H233 H 0.55028 0.55526 0.46203 0.0
H234 H 0.5936 0.47815 0.36463 0.0
H235 H 0.59495 0.43658 0.28509 0.0
H236 H 0.5006 0.39907 0.35757 0.0
H237 H 0.49839 0.44057 0.43671 0.0
C238 C 0.56347 0.51635 0.77644 0.0
C239 C 0.53712 0.49768 0.79887 0.0
C240 C 0.56545 0.51974 0.70467 0.0
C241 C 0.54094 0.50476 0.65382 0.0
C242 C 0.51463 0.48614 0.67648 0.0
C243 C 0.51271 0.48269 0.74804 0.0
C244 C 0.54271 0.5082 0.57706 0.0
C245 C 0.54191 0.48541 0.52724 0.0
C246 C 0.54574 0.5337 0.55283 0.0
C247 C 0.54503 0.55845 0.60188 0.0
C248 C 0.51801 0.55982 0.64574 0.0
C249 C 0.518 0.58289 0.69334 0.0
C250 C 0.54472 0.60484 0.6971 0.0
C251 C 0.57142 0.60381 0.65301 0.0
C252 C 0.5716 0.58076 0.60543 0.0
C253 C 0.52774 0.50443 0.23041 0.0
C254 C 0.55382 0.52343 0.20833 0.0
C255 C 0.52559 0.50102 0.30218 0.0
C256 C 0.54968 0.51632 0.35345 0.0
C257 C 0.57572 0.53527 0.33112 0.0
C258 C 0.5778 0.53874 0.25957 0.0
C259 C 0.54772 0.5129 0.43027 0.0
C260 C 0.54848 0.53572 0.48017 0.0
C261 C 0.54465 0.48739 0.4546 0.0
C262 C 0.54568 0.46257 0.40614 0.0
C263 C 0.57297 0.46113 0.36311 0.0
C264 C 0.57393 0.43756 0.31819 0.0
C265 C 0.54789 0.4152 0.31633 0.0
C266 C 0.52076 0.41641 0.3591 0.0
C267 C 0.51964 0.43994 0.40399 0.0
H268 H 0.54879 0.39691 0.28193 0.0
H269 H 0.54469 0.62266 0.73409 0.0
H270 H 0.15115 0.47143 0.03405 0.0
H271 H 0.2117 0.47252 0.03123 0.0
H272 H 0.22751 0.55475 0.98708 0.0
H273 H 0.1668 0.55355 0.98785 0.0
H274 H 0.26645 0.5286 0.90908 0.0
H275 H 0.24394 0.53732 0.15369 0.0
H276 H 0.21393 0.52438 0.25772 0.0
H277 H 0.24823 0.44919 0.23528 0.0
H278 H 0.27774 0.46145 0.12947 0.0
H279 H 0.44484 0.55481 0.98387 0.0
H280 H 0.38463 0.55596 0.98494 0.0
H281 H 0.3639 0.47415 0.03257 0.0
H282 H 0.42393 0.47314 0.03361 0.0
H283 H 0.3277 0.50178 0.10982 0.0
H284 H 0.34882 0.49277 0.86206 0.0
H285 H 0.37739 0.50569 0.75585 0.0
H286 H 0.34611 0.58199 0.78561 0.0
H287 H 0.3177 0.56966 0.89256 0.0
C288 C 0.16746 0.4898 0.02391 0.0
C289 C 0.15394 0.51246 0.0117 0.0
C290 C 0.20222 0.49043 0.02246 0.0
C291 C 0.22454 0.51387 0.00997 0.0
C292 C 0.21103 0.53641 0.9969 0.0
C293 C 0.17621 0.53572 0.9977 0.0
C294 C 0.26187 0.51495 0.01134 0.0
C295 C 0.27987 0.52307 0.95345 0.0
C296 C 0.27961 0.50734 0.06852 0.0
C297 C 0.26279 0.50021 0.13329 0.0
C298 C 0.24495 0.51797 0.17071 0.0
C299 C 0.22801 0.51073 0.23005 0.0
C300 C 0.22916 0.48595 0.2533 0.0
C301 C 0.24734 0.46838 0.21722 0.0
C302 C 0.26415 0.47545 0.15747 0.0
C303 C 0.42748 0.53705 0.99459 0.0
C304 C 0.43941 0.51387 0.00858 0.0
C305 C 0.39292 0.53767 0.9948 0.0
C306 C 0.36935 0.515 0.00787 0.0
C307 C 0.38133 0.49195 0.02234 0.0
C308 C 0.41583 0.49139 0.02276 0.0
C309 C 0.3323 0.51516 0.00721 0.0
C310 C 0.31432 0.50732 0.0654 0.0
C311 C 0.31464 0.52306 0.95033 0.0
C312 C 0.33142 0.53039 0.88568 0.0
C313 C 0.34821 0.51237 0.84619 0.0
C314 C 0.36436 0.51958 0.78583 0.0
C315 C 0.36364 0.54467 0.7641 0.0
C316 C 0.34668 0.56258 0.80255 0.0
C317 C 0.33053 0.55548 0.86301 0.0
H318 H 0.37617 0.55022 0.71738 0.0
H319 H 0.21598 0.48035 0.29924 0.0
H320 H 0.77079 0.12561 0.93105 0.0
H321 H 0.80745 0.16985 0.94144 0.0
H322 H 0.72562 0.20699 0.01593 0.0
H323 H 0.68866 0.16262 0.00573 0.0
H324 H 0.76111 0.23596 0.92411 0.0
H325 H 0.78626 0.19856 0.13176 0.0
H326 H 0.80073 0.16422 0.20151 0.0
H327 H 0.89434 0.16715 0.1008 0.0
H328 H 0.8802 0.20124 0.02961 0.0
H329 H 0.87305 0.36083 0.05186 0.0
H330 H 0.83056 0.31933 0.04379 0.0
H331 H 0.90357 0.27356 0.96271 0.0
H332 H 0.94625 0.31472 0.9723 0.0
H333 H 0.86951 0.25059 0.06579 0.0
H334 H 0.84171 0.28741 0.85428 0.0
H335 H 0.82645 0.32252 0.78825 0.0
H336 H 0.73682 0.32188 0.9025 0.0
H337 H 0.75177 0.28697 0.96985 0.0
C338 C 0.76059 0.14315 0.94996 0.0
C339 C 0.72688 0.14053 0.96827 0.0
C340 C 0.78157 0.16846 0.95575 0.0
C341 C 0.76946 0.19173 0.98059 0.0
C342 C 0.73554 0.18932 0.9968 0.0
C343 C 0.71444 0.16395 0.9908 0.0
C344 C 0.79257 0.21839 0.99087 0.0
C345 C 0.78458 0.2393 0.95593 0.0
C346 C 0.82333 0.22273 0.032 0.0
C347 C 0.83202 0.20229 0.07489 0.0
C348 C 0.80981 0.19174 0.12407 0.0
C349 C 0.81797 0.17234 0.16393 0.0
C350 C 0.8484 0.16346 0.15548 0.0
C351 C 0.87077 0.17402 0.10723 0.0
C352 C 0.8627 0.1934 0.06716 0.0
C353 C 0.88005 0.34191 0.03253 0.0
C354 C 0.91303 0.34112 0.01246 0.0
C355 C 0.85567 0.31824 0.0274 0.0
C356 C 0.8638 0.29335 1.00208 0.0
C357 C 0.89669 0.29253 0.9822 0.0
C358 C 0.92099 0.31613 0.98713 0.0
C359 C 0.83847 0.26795 0.99769 0.0
C360 C 0.84599 0.24729 0.03414 0.0
C361 C 0.8072 0.26399 0.95852 0.0
C362 C 0.79805 0.28479 0.91761 0.0
C363 C 0.81888 0.2949 0.86568 0.0
C364 C 0.81025 0.31473 0.82795 0.0
C365 C 0.78073 0.32448 0.84132 0.0
C366 C 0.7597 0.31433 0.89227 0.0
C367 C 0.76822 0.29451 0.93019 0.0
H368 H 0.77411 0.33985 0.8121 0.0
H369 H 0.85468 0.14845 0.1864 0.0
H370 H 0.60304 0.9291 0.99193 0.0
H371 H 0.60164 0.88075 0.98635 0.0
H372 H 0.49298 0.86572 0.96564 0.0
H373 H 0.49433 0.91407 0.97522 0.0
H374 H 0.50838 0.83494 0.04804 0.0
H375 H 0.54707 0.85277 0.82273 0.0
H376 H 0.58286 0.87564 0.73768 0.0
H377 H 0.66947 0.85173 0.82785 0.0
H378 H 0.63428 0.82901 0.9141 0.0
H379 H 0.49348 0.69279 0.94168 0.0
H380 H 0.49255 0.74069 0.94018 0.0
H381 H 0.59787 0.76089 0.00806 0.0
H382 H 0.59906 0.71318 0.00914 0.0
H383 H 0.5823 0.78803 0.89723 0.0
H384 H 0.53865 0.76956 0.12332 0.0
H385 H 0.49921 0.74593 0.20111 0.0
H386 H 0.41637 0.76996 0.09605 0.0
H387 H 0.45526 0.79339 0.0169 0.0
C388 C 0.57888 0.91545 0.98571 0.0
C389 C 0.54883 0.92547 0.98381 0.0
C390 C 0.57806 0.88771 0.98208 0.0
C391 C 0.54719 0.86923 0.97427 0.0
C392 C 0.51718 0.87932 0.97174 0.0
C393 C 0.51798 0.90706 0.97696 0.0
C394 C 0.54605 0.83954 0.97094 0.0
C395 C 0.5242 0.82471 0.01402 0.0
C396 C 0.56684 0.82588 0.92732 0.0
C397 C 0.58808 0.83939 0.8753 0.0
C398 C 0.57379 0.85253 0.82472 0.0
C399 C 0.59396 0.86545 0.77626 0.0
C400 C 0.62843 0.86519 0.77748 0.0
C401 C 0.64278 0.85194 0.82703 0.0
C402 C 0.62272 0.83901 0.87567 0.0
C403 C 0.51646 0.70743 0.95613 0.0
C404 C 0.54629 0.69909 0.97599 0.0
C405 C 0.51585 0.73484 0.95561 0.0
C406 C 0.5451 0.75449 0.97446 0.0
C407 C 0.57497 0.74617 0.99345 0.0
C408 C 0.57552 0.71886 0.99464 0.0
C409 C 0.5448 0.78372 0.97438 0.0
C410 C 0.56639 0.79838 0.93072 0.0
C411 C 0.52318 0.79708 0.01607 0.0
C412 C 0.49983 0.78296 0.06367 0.0
C413 C 0.51199 0.76959 0.11637 0.0
C414 C 0.48973 0.75627 0.16079 0.0
C415 C 0.45529 0.75637 0.15338 0.0
C416 C 0.44304 0.76985 0.10164 0.0
C417 C 0.46518 0.78315 0.05701 0.0
H418 H 0.43811 0.74606 0.18786 0.0
H419 H 0.64401 0.87521 0.73993 0.0
H420 H 0.93959 0.5472 0.95496 0.0
H421 H 0.8788 0.5455 0.9543 0.0
H422 H 0.86525 0.4697 0.03842 0.0
H423 H 0.92597 0.47104 0.03819 0.0
H424 H 0.81739 0.46778 0.93836 0.0
H425 H 0.8618 0.52931 0.14326 0.0
H426 H 0.89873 0.56886 0.21058 0.0
H427 H 0.85798 0.62096 0.08497 0.0
H428 H 0.82112 0.58167 0.0162 0.0
H429 H 0.64807 0.46855 0.03803 0.0
H430 H 0.70843 0.46781 0.03788 0.0
H431 H 0.7264 0.54336 0.95242 0.0
H432 H 0.66638 0.54442 0.95322 0.0
H433 H 0.77197 0.54448 0.05595 0.0
H434 H 0.72735 0.48211 0.85084 0.0
H435 H 0.69073 0.44214 0.78464 0.0
H436 H 0.73191 0.39106 0.91283 0.0
H437 H 0.76841 0.43078 0.98061 0.0
C438 C 0.92374 0.53013 0.97329 0.0
C439 C 0.9379 0.50932 0.99692 0.0
C440 C 0.88888 0.52923 0.97319 0.0
C441 C 0.86723 0.50764 0.99724 0.0
C442 C 0.88125 0.48662 0.01971 0.0
C443 C 0.91611 0.48747 0.01974 0.0
C444 C 0.83009 0.50701 0.99916 0.0
C445 C 0.80748 0.48442 0.96495 0.0
C446 C 0.81689 0.52884 0.03275 0.0
C447 C 0.83894 0.55252 0.07413 0.0
C448 C 0.8609 0.54918 0.12963 0.0
C449 C 0.88179 0.57156 0.16811 0.0
C450 C 0.88076 0.5974 0.15195 0.0
C451 C 0.85878 0.60092 0.09737 0.0
C452 C 0.83786 0.57861 0.05865 0.0
C453 C 0.66482 0.48497 0.01892 0.0
C454 C 0.65214 0.50651 0.99549 0.0
C455 C 0.69942 0.48447 0.01861 0.0
C456 C 0.72219 0.50542 0.99453 0.0
C457 C 0.70954 0.52693 0.9713 0.0
C458 C 0.67504 0.52745 0.97158 0.0
C459 C 0.75923 0.50535 0.99462 0.0
C460 C 0.78184 0.52782 0.02939 0.0
C461 C 0.77238 0.48335 0.96182 0.0
C462 C 0.75033 0.45946 0.92135 0.0
C463 C 0.72837 0.46238 0.86538 0.0
C464 C 0.70767 0.43976 0.82749 0.0
C465 C 0.70891 0.41408 0.84468 0.0
C466 C 0.73091 0.41097 0.8997 0.0
C467 C 0.75161 0.43353 0.93786 0.0
H468 H 0.69289 0.3966 0.81523 0.0
H469 H 0.89695 0.6147 0.18181 0.0
H470 H 0.21519 0.66419 0.05267 0.0
H471 H 0.25869 0.7051 0.06393 0.0
H472 H 0.19725 0.74088 0.92855 0.0
H473 H 0.15348 0.70044 0.9181 0.0
H474 H 0.2632 0.7486 0.89314 0.0
H475 H 0.20174 0.75808 0.10518 0.0
H476 H 0.17867 0.74377 0.21537 0.0
H477 H 0.27832 0.74267 0.29808 0.0
H478 H 0.30193 0.75663 0.18791 0.0
H479 H 0.33276 0.88702 0.95541 0.0
H480 H 0.29679 0.84244 0.94477 0.0
H481 H 0.36176 0.81901 0.09994 0.0
H482 H 0.39754 0.8639 0.11173 0.0
H483 H 0.2988 0.8024 0.1264 0.0
H484 H 0.36157 0.79573 0.92116 0.0
H485 H 0.38616 0.80931 0.81164 0.0
H486 H 0.28711 0.80366 0.71605 0.0
H487 H 0.26191 0.79041 0.82538 0.0
C488 C 0.2108 0.68083 0.02571 0.0
C489 C 0.18075 0.67894 0.98443 0.0
C490 C 0.23576 0.70417 0.03201 0.0
C491 C 0.23115 0.72611 0.99734 0.0
C492 C 0.20144 0.72415 0.95546 0.0
C493 C 0.17647 0.70092 0.94932 0.0
C494 C 0.25695 0.75132 1.00507 0.0
C495 C 0.2708 0.7605 0.94405 0.0
C496 C 0.26772 0.76636 0.07173 0.0
C497 C 0.25354 0.75811 0.13804 0.0
C498 C 0.21869 0.75458 0.14665 0.0
C499 C 0.20553 0.74657 0.20913 0.0
C500 C 0.227 0.74224 0.26361 0.0
C501 C 0.26171 0.74599 0.25579 0.0
C502 C 0.27499 0.75396 0.19337 0.0
C503 C 0.33955 0.87229 0.98679 0.0
C504 C 0.36804 0.87894 0.03423 0.0
C505 C 0.319 0.84677 0.98058 0.0
C506 C 0.32679 0.82714 0.02075 0.0
C507 C 0.35521 0.83377 0.06835 0.0
C508 C 0.37561 0.85942 0.07511 0.0
C509 C 0.30468 0.80003 0.01423 0.0
C510 C 0.29153 0.79043 0.07546 0.0
C511 C 0.29482 0.78445 0.94777 0.0
C512 C 0.30986 0.79228 0.88172 0.0
C513 C 0.34503 0.79756 0.87697 0.0
C514 C 0.35908 0.80517 0.81489 0.0
C515 C 0.33821 0.8074 0.75698 0.0
C516 C 0.30324 0.80194 0.76097 0.0
C517 C 0.28906 0.79435 0.82296 0.0
H518 H 0.34914 0.81329 0.70896 0.0
H519 H 0.21677 0.73604 0.31195 0.0
H520 H 0.50806 0.31616 0.12175 0.0
H521 H 0.50787 0.26825 0.12032 0.0
H522 H 0.58099 0.27225 0.961 0.0
H523 H 0.58108 0.32035 0.96179 0.0
H524 H 0.53463 0.22852 0.92849 0.0
H525 H 0.60237 0.2681 0.13774 0.0
H526 H 0.61655 0.29639 0.2527 0.0
H527 H 0.53249 0.24975 0.3413 0.0
H528 H 0.51751 0.2214 0.22652 0.0
H529 H 0.58398 0.10412 0.96377 0.0
H530 H 0.5835 0.15198 0.96766 0.0
H531 H 0.50106 0.14398 0.10549 0.0
H532 H 0.50139 0.09574 0.10189 0.0
H533 H 0.55166 0.18931 0.14939 0.0
H534 H 0.48532 0.14915 0.9372 0.0
H535 H 0.47363 0.12061 0.82214 0.0
H536 H 0.55842 0.16847 0.739 0.0
H537 H 0.57094 0.19707 0.85397 0.0
C538 C 0.52446 0.30699 0.08696 0.0
C539 C 0.54484 0.3223 0.04236 0.0
C540 C 0.52429 0.27948 0.08615 0.0
C541 C 0.54481 0.26653 0.04135 0.0
C542 C 0.56494 0.28168 0.99616 0.0
C543 C 0.56496 0.30922 0.99662 0.0
C544 C 0.54489 0.23718 0.04116 0.0
C545 C 0.53883 0.22008 0.97677 0.0
C546 C 0.54966 0.22583 0.10417 0.0
C547 C 0.55862 0.2428 0.17332 0.0
C548 C 0.58675 0.26401 0.18158 0.0
C549 C 0.59495 0.28003 0.24674 0.0
C550 C 0.57538 0.27492 0.30422 0.0
C551 C 0.5476 0.25372 0.2967 0.0
C552 C 0.53925 0.23765 0.23162 0.0
C553 C 0.56579 0.11243 0.99523 0.0
C554 C 0.54271 0.09593 0.0325 0.0
C555 C 0.56545 0.13987 0.99708 0.0
C556 C 0.54206 0.15162 0.03634 0.0
C557 C 0.51931 0.13537 0.07468 0.0
C558 C 0.51945 0.10777 0.07236 0.0
C559 C 0.54143 0.18081 0.03688 0.0
C560 C 0.54741 0.19783 0.10126 0.0
C561 C 0.53691 0.19212 0.97383 0.0
C562 C 0.52925 0.17511 0.90442 0.0
C563 C 0.50163 0.15347 0.89455 0.0
C564 C 0.49483 0.1373 0.82932 0.0
C565 C 0.51532 0.14268 0.77335 0.0
C566 C 0.5426 0.1643 0.78244 0.0
C567 C 0.54954 0.18052 0.84761 0.0
H568 H 0.51002 0.13012 0.72289 0.0
H569 H 0.58178 0.28735 0.35463 0.0
loop_
_geom_bond_atom_site_label_1
_geom_bond_atom_site_label_2
_geom_bond_distance
_geom_bond_site_symmetry_2
_ccdc_geom_bond_type
Gd0 C3 2.818 . S
Gd0 O20 2.377 . S
Gd0 O22 2.448 . S
Gd0 O23 2.506 1_556 S
Gd0 O24 2.435 . S
Gd0 O25 2.717 1_655 S
Gd0 O27 2.395 1_655 S
Gd0 O31 2.327 1_556 S
Gd1 C12 2.818 . S
Gd1 O21 2.395 1_455 S
Gd1 O25 2.327 1_554 S
Gd1 O26 2.377 . S
Gd1 O28 2.448 . S
Gd1 O29 2.506 1_554 S
Gd1 O30 2.435 . S
Gd1 O31 2.717 1_455 S
C2 O20 1.240 . S
C2 O21 1.240 1_556 S
C3 Gd0 2.818 . S
C3 C4 1.510 . S
C3 O22 1.249 . S
C3 O23 1.252 1_556 S
C4 C3 1.510 . S
C4 C5 1.404 . S
C4 C6 1.352 1_556 S
C5 C4 1.404 . S
C5 C9 1.389 . S
C5 H32 0.930 . S
C6 C4 1.352 1_554 S
C6 C8 1.374 . S
C6 H33 0.931 . S
C7 C8 1.357 1_556 S
C7 C9 1.366 . S
C8 C6 1.374 . S
C8 C7 1.357 1_554 S
C8 H34 0.931 . S
C9 C5 1.389 . S
C9 C7 1.366 . S
C9 H35 0.931 . S
C10 O24 1.253 1_455 S
C10 O25 1.260 . S
C11 O26 1.244 . S
C11 O27 1.238 1_554 S
C12 Gd1 2.818 . S
C12 C13 1.510 . S
C12 O28 1.249 . S
C12 O29 1.252 1_554 S
C13 C12 1.510 . S
C13 C14 1.404 . S
C13 C15 1.352 1_554 S
C14 C13 1.404 . S
C14 C18 1.389 . S
C14 H36 0.930 . S
C15 C13 1.352 1_556 S
C15 C17 1.374 . S
C15 H37 0.931 . S
C16 C17 1.350 1_554 S
C16 C18 1.375 . S
C17 C15 1.374 . S
C17 C16 1.350 1_556 S
C17 H38 0.931 . S
C18 C14 1.389 . S
C18 C16 1.375 . S
C18 H39 0.931 . S
C19 O30 1.256 . S
C19 O31 1.257 1_455 S
O20 Gd0 2.377 . S
O20 C2 1.240 . S
O21 Gd1 2.395 1_655 S
O21 C2 1.240 1_554 S
O22 Gd0 2.448 . S
O22 C3 1.249 . S
O23 Gd0 2.506 1_554 S
O23 C3 1.252 1_554 S
O24 Gd0 2.435 . S
O24 C10 1.253 1_655 S
O25 Gd0 2.717 1_455 S
O25 Gd1 2.327 1_556 S
O25 C10 1.260 . S
O26 Gd1 2.377 . S
O26 C11 1.244 . S
O27 Gd0 2.395 1_455 S
O27 C11 1.238 1_556 S
O28 Gd1 2.448 . S
O28 C12 1.249 . S
O29 Gd1 2.506 1_556 S
O29 C12 1.252 1_556 S
O30 Gd1 2.435 . S
O30 C19 1.256 . S
O31 Gd0 2.327 1_554 S
O31 Gd1 2.717 1_655 S
O31 C19 1.257 1_655 S
H32 C5 0.930 . S
H33 C6 0.931 . S
H34 C8 0.931 . S
H35 C9 0.931 . S
H36 C14 0.930 . S
H37 C15 0.931 . S
H38 C17 0.931 . S
H39 C18 0.931 . S
Gd40 C43 2.818 . S
Gd40 O60 2.377 . S
Gd40 O62 2.448 . S
Gd40 O63 2.506 1_554 S
Gd40 O64 2.435 . S
Gd40 O65 2.717 1_545 S
Gd40 O67 2.395 1_545 S
Gd40 O71 2.327 1_554 S
Gd41 C52 2.818 . S
Gd41 O61 2.395 1_565 S
Gd41 O65 2.327 1_556 S
Gd41 O66 2.377 . S
Gd41 O68 2.448 . S
Gd41 O69 2.506 1_556 S
Gd41 O70 2.435 . S
Gd41 O71 2.717 1_565 S
C42 O60 1.240 . S
C42 O61 1.240 1_554 S
C43 Gd40 2.818 . S
C43 C44 1.509 1_554 S
C43 O62 1.249 . S
C43 O63 1.252 1_554 S
C44 C43 1.509 1_556 S
C44 C45 1.398 1_556 S
C44 C46 1.360 . S
C45 C44 1.398 1_554 S
C45 C49 1.389 . S
C45 H72 0.930 . S
C46 C44 1.360 . S
C46 C48 1.374 . S
C46 H73 0.931 . S
C47 C48 1.359 . S
C47 C49 1.364 1_556 S
C48 C46 1.374 . S
C48 C47 1.359 . S
C48 H74 0.931 . S
C49 C45 1.389 . S
C49 C47 1.364 1_554 S
C49 H75 0.931 . S
C50 O64 1.256 . S
C50 O65 1.257 1_545 S
C51 O66 1.240 . S
C51 O67 1.240 1_556 S
C52 Gd41 2.818 . S
C52 C53 1.510 1_556 S
C52 O68 1.249 . S
C52 O69 1.252 1_556 S
C53 C52 1.510 1_554 S
C53 C54 1.404 1_554 S
C53 C55 1.352 . S
C54 C53 1.404 1_556 S
C54 C58 1.389 . S
C54 H76 0.930 . S
C55 C53 1.352 . S
C55 C57 1.374 . S
C55 H77 0.931 . S
C56 C57 1.359 . S
C56 C58 1.364 1_554 S
C57 C55 1.374 . S
C57 C56 1.359 . S
C57 H78 0.931 . S
C58 C54 1.389 . S
C58 C56 1.364 1_556 S
C58 H79 0.931 . S
C59 O70 1.256 . S
C59 O71 1.257 1_565 S
O60 Gd40 2.377 . S
O60 C42 1.240 . S
O61 Gd41 2.395 1_545 S
O61 C42 1.240 1_556 S
O62 Gd40 2.448 . S
O62 C43 1.249 . S
O63 Gd40 2.506 1_556 S
O63 C43 1.252 1_556 S
O64 Gd40 2.435 . S
O64 C50 1.256 . S
O65 Gd40 2.717 1_565 S
O65 Gd41 2.327 1_554 S
O65 C50 1.257 1_565 S
O66 Gd41 2.377 . S
O66 C51 1.240 . S
O67 Gd40 2.395 1_565 S
O67 C51 1.240 1_554 S
O68 Gd41 2.448 . S
O68 C52 1.249 . S
O69 Gd41 2.506 1_554 S
O69 C52 1.252 1_554 S
O70 Gd41 2.435 . S
O70 C59 1.256 . S
O71 Gd40 2.327 1_556 S
O71 Gd41 2.717 1_545 S
O71 C59 1.257 1_545 S
H72 C45 0.930 . S
H73 C46 0.931 . S
H74 C48 0.931 . S
H75 C49 0.931 . S
H76 C54 0.930 . S
H77 C55 0.931 . S
H78 C57 0.931 . S
H79 C58 0.931 . S
Gd80 C83 2.818 . S
Gd80 O100 2.377 . S
Gd80 O102 2.448 . S
Gd80 O103 2.506 1_554 S
Gd80 O104 2.435 . S
Gd80 O105 2.717 . S
Gd80 O107 2.395 . S
Gd80 O111 2.327 1_554 S
Gd81 C92 2.818 . S
Gd81 O101 2.395 . S
Gd81 O105 2.327 1_556 S
Gd81 O106 2.377 . S
Gd81 O108 2.448 . S
Gd81 O109 2.506 1_556 S
Gd81 O110 2.435 . S
Gd81 O111 2.717 . S
C82 O100 1.239 1_556 S
C82 O101 1.241 . S
C83 Gd80 2.818 . S
C83 C84 1.510 . S
C83 O102 1.249 . S
C83 O103 1.252 1_554 S
C84 C83 1.510 . S
C84 C85 1.404 . S
C84 C86 1.352 1_554 S
C85 C84 1.404 . S
C85 C89 1.389 . S
C85 H112 0.930 . S
C86 C84 1.352 1_556 S
C86 C88 1.374 . S
C86 H113 0.931 . S
C87 C88 1.359 . S
C87 C89 1.364 1_556 S
C88 C86 1.374 . S
C88 C87 1.359 . S
C88 H114 0.931 . S
C89 C85 1.389 . S
C89 C87 1.364 1_554 S
C89 H115 0.931 . S
C90 O104 1.256 . S
C90 O105 1.257 . S
C91 O106 1.235 1_554 S
C91 O107 1.243 . S
C92 Gd81 2.818 . S
C92 C93 1.510 . S
C92 O108 1.249 . S
C92 O109 1.252 1_556 S
C93 C92 1.510 . S
C93 C94 1.404 . S
C93 C95 1.352 1_556 S
C94 C93 1.404 . S
C94 C98 1.389 . S
C94 H116 0.930 . S
C95 C93 1.352 1_554 S
C95 C97 1.374 . S
C95 H117 0.931 . S
C96 C97 1.359 . S
C96 C98 1.364 1_554 S
C97 C95 1.374 . S
C97 C96 1.359 . S
C97 H118 0.931 . S
C98 C94 1.389 . S
C98 C96 1.364 1_556 S
C98 H119 0.931 . S
C99 O110 1.256 . S
C99 O111 1.257 . S
O100 Gd80 2.377 . S
O100 C82 1.239 1_554 S
O101 Gd81 2.395 . S
O101 C82 1.241 . S
O102 Gd80 2.448 . S
O102 C83 1.249 . S
O103 Gd80 2.506 1_556 S
O103 C83 1.252 1_556 S
O104 Gd80 2.435 . S
O104 C90 1.256 . S
O105 Gd80 2.717 . S
O105 Gd81 2.327 1_554 S
O105 C90 1.257 . S
O106 Gd81 2.377 . S
O106 C91 1.235 1_556 S
O107 Gd80 2.395 . S
O107 C91 1.243 . S
O108 Gd81 2.448 . S
O108 C92 1.249 . S
O109 Gd81 2.506 1_554 S
O109 C92 1.252 1_554 S
O110 Gd81 2.435 . S
O110 C99 1.256 . S
O111 Gd80 2.327 1_556 S
O111 Gd81 2.717 . S
O111 C99 1.257 . S
H112 C85 0.930 . S
H113 C86 0.931 . S
H114 C88 0.931 . S
H115 C89 0.931 . S
H116 C94 0.930 . S
H117 C95 0.931 . S
H118 C97 0.931 . S
H119 C98 0.931 . S
H120 C138 0.951 . S
H121 C140 0.951 . S
H122 C142 0.950 . S
H123 C143 0.950 . S
H124 C145 0.950 . S
H125 C148 0.950 . S
H126 C149 0.950 . S
H127 C151 0.950 . S
H128 C152 0.950 . S
H129 C153 0.951 . S
H130 C155 0.951 . S
H131 C157 0.950 . S
H132 C158 0.950 . S
H133 C160 0.947 . S
H134 C163 0.950 . S
H135 C164 0.950 . S
H136 C166 0.950 . S
H137 C167 0.950 . S
C138 H120 0.951 . S
C138 C139 1.366 . S
C138 C140 1.388 . S
C139 C138 1.366 . S
C139 C143 1.385 1_455 S
C140 H121 0.951 . S
C140 C138 1.388 . S
C140 C141 1.366 . S
C141 C140 1.366 . S
C141 C142 1.414 1_455 S
C141 C144 1.499 1_455 S
C142 H122 0.950 . S
C142 C141 1.414 1_655 S
C142 C143 1.374 . S
C143 H123 0.950 . S
C143 C139 1.385 1_655 S
C143 C142 1.374 . S
C144 C141 1.499 1_655 S
C144 C145 1.372 1_655 S
C144 C146 1.390 . S
C145 H124 0.950 . S
C145 C144 1.372 1_455 S
C145 C161 1.377 . S
C146 C144 1.390 . S
C146 C147 1.524 . S
C146 C160 1.375 1_655 S
C147 C146 1.524 . S
C147 C148 1.397 . S
C147 C152 1.363 1_655 S
C148 H125 0.950 . S
C148 C147 1.397 . S
C148 C149 1.334 . S
C149 H126 0.950 . S
C149 C148 1.334 . S
C149 C150 1.287 . S
C150 C149 1.287 . S
C150 C151 1.524 1_655 S
C150 H169 0.913 . S
C151 H127 0.950 . S
C151 C150 1.524 1_455 S
C151 C152 1.415 . S
C152 H128 0.950 . S
C152 C147 1.363 1_455 S
C152 C151 1.415 . S
C153 H129 0.951 . S
C153 C154 1.377 . S
C153 C155 1.388 . S
C154 C153 1.377 . S
C154 C158 1.373 1_655 S
C155 H130 0.951 . S
C155 C153 1.388 . S
C155 C156 1.366 1_655 S
C156 C155 1.366 1_455 S
C156 C157 1.414 . S
C156 C159 1.499 . S
C157 H131 0.950 . S
C157 C156 1.414 . S
C157 C158 1.374 . S
C158 H132 0.950 . S
C158 C154 1.373 1_455 S
C158 C157 1.374 . S
C159 C156 1.499 . S
C159 C160 1.379 . S
C159 C161 1.389 . S
C160 H133 0.947 . S
C160 C146 1.375 1_455 S
C160 C159 1.379 . S
C161 C145 1.377 . S
C161 C159 1.389 . S
C161 C162 1.524 . S
C162 C161 1.524 . S
C162 C163 1.397 . S
C162 C167 1.363 1_455 S
C163 H134 0.950 . S
C163 C162 1.397 . S
C163 C164 1.334 . S
C164 H135 0.950 . S
C164 C163 1.334 . S
C164 C165 1.287 . S
C165 C164 1.287 . S
C165 C166 1.524 1_455 S
C165 H168 0.999 . S
C166 H136 0.950 . S
C166 C165 1.524 1_655 S
C166 C167 1.415 . S
C167 H137 0.950 . S
C167 C162 1.363 1_655 S
C167 C166 1.415 . S
H168 C165 0.999 . S
H169 C150 0.913 . S
H170 C188 0.951 . S
H171 C190 0.951 . S
H172 C192 0.950 . S
H173 C193 0.950 . S
H174 C195 0.950 . S
H175 C198 0.950 . S
H176 C199 0.950 . S
H177 C201 0.945 1_565 S
H178 C202 0.950 . S
H179 C203 0.951 . S
H180 C205 0.951 . S
H181 C207 0.950 . S
H182 C208 0.950 . S
H183 C210 0.950 . S
H184 C213 0.950 . S
H185 C214 0.950 . S
H186 C216 0.951 1_545 S
H187 C217 0.950 . S
C188 H170 0.951 . S
C188 C189 1.353 1_565 S
C188 C190 1.388 . S
C189 C188 1.353 1_545 S
C189 C193 1.395 . S
C190 H171 0.951 . S
C190 C188 1.388 . S
C190 C191 1.366 1_565 S
C191 C190 1.366 1_545 S
C191 C192 1.414 . S
C191 C194 1.499 . S
C192 H172 0.950 . S
C192 C191 1.414 . S
C192 C193 1.374 . S
C193 H173 0.950 . S
C193 C189 1.395 . S
C193 C192 1.374 . S
C194 C191 1.499 . S
C194 C195 1.373 1_545 S
C194 C196 1.389 . S
C195 H174 0.950 . S
C195 C194 1.373 1_565 S
C195 C211 1.377 . S
C196 C194 1.389 . S
C196 C197 1.524 . S
C196 C210 1.377 . S
C197 C196 1.524 . S
C197 C198 1.397 . S
C197 C202 1.363 1_545 S
C198 H175 0.950 . S
C198 C197 1.397 . S
C198 C199 1.334 . S
C199 H176 0.950 . S
C199 C198 1.334 . S
C199 C200 1.287 . S
C200 C199 1.287 . S
C200 C201 1.535 . S
C200 H219 0.913 . S
C201 H177 0.945 1_545 S
C201 C200 1.535 . S
C201 C202 1.409 1_545 S
C202 H178 0.950 . S
C202 C197 1.363 1_565 S
C202 C201 1.409 1_565 S
C203 H179 0.951 . S
C203 C204 1.361 1_545 S
C203 C205 1.388 . S
C204 C203 1.361 1_565 S
C204 C208 1.389 . S
C205 H180 0.951 . S
C205 C203 1.388 . S
C205 C206 1.366 1_545 S
C206 C205 1.366 1_565 S
C206 C207 1.414 . S
C206 C209 1.499 . S
C207 H181 0.950 . S
C207 C206 1.414 . S
C207 C208 1.374 . S
C208 H182 0.950 . S
C208 C204 1.389 . S
C208 C207 1.374 . S
C209 C206 1.499 . S
C209 C210 1.373 1_565 S
C209 C211 1.389 . S
C210 H183 0.950 . S
C210 C196 1.377 . S
C210 C209 1.373 1_545 S
C211 C195 1.377 . S
C211 C209 1.389 . S
C211 C212 1.524 . S
C212 C211 1.524 . S
C212 C213 1.397 . S
C212 C217 1.363 1_565 S
C213 H184 0.950 . S
C213 C212 1.397 . S
C213 C214 1.334 . S
C214 H185 0.950 . S
C214 C213 1.334 . S
C214 C215 1.287 . S
C215 C214 1.287 . S
C215 C216 1.521 . S
C215 H218 0.999 . S
C216 H186 0.951 1_565 S
C216 C215 1.521 . S
C216 C217 1.416 1_565 S
C217 H187 0.950 . S
C217 C212 1.363 1_545 S
C217 C216 1.416 1_545 S
H218 C215 0.999 . S
H219 C200 0.913 . S
H220 C238 0.951 . S
H221 C240 0.951 . S
H222 C242 0.950 . S
H223 C243 0.950 . S
H224 C245 0.950 . S
H225 C248 0.950 . S
H226 C249 0.950 . S
H227 C251 0.950 . S
H228 C252 0.950 . S
H229 C253 0.951 . S
H230 C255 0.951 . S
H231 C257 0.950 . S
H232 C258 0.950 . S
H233 C260 0.950 . S
H234 C263 0.950 . S
H235 C264 0.950 . S
H236 C266 0.950 . S
H237 C267 0.950 . S
C238 H220 0.951 . S
C238 C239 1.366 . S
C238 C240 1.388 . S
C239 C238 1.366 . S
C239 C243 1.385 . S
C240 H221 0.951 . S
C240 C238 1.388 . S
C240 C241 1.366 . S
C241 C240 1.366 . S
C241 C242 1.414 . S
C241 C244 1.499 . S
C242 H222 0.950 . S
C242 C241 1.414 . S
C242 C243 1.374 . S
C243 H223 0.950 . S
C243 C239 1.385 . S
C243 C242 1.374 . S
C244 C241 1.499 . S
C244 C245 1.373 . S
C244 C246 1.389 . S
C245 H224 0.950 . S
C245 C244 1.373 . S
C245 C261 1.377 . S
C246 C244 1.389 . S
C246 C247 1.524 . S
C246 C260 1.377 . S
C247 C246 1.524 . S
C247 C248 1.397 . S
C247 C252 1.363 . S
C248 H225 0.950 . S
C248 C247 1.397 . S
C248 C249 1.334 . S
C249 H226 0.950 . S
C249 C248 1.334 . S
C249 C250 1.287 . S
C250 C249 1.287 . S
C250 C251 1.524 . S
C250 H269 0.913 . S
C251 H227 0.950 . S
C251 C250 1.524 . S
C251 C252 1.415 . S
C252 H228 0.950 . S
C252 C247 1.363 . S
C252 C251 1.415 . S
C253 H229 0.951 . S
C253 C254 1.366 . S
C253 C255 1.388 . S
C254 C253 1.366 . S
C254 C258 1.385 . S
C255 H230 0.951 . S
C255 C253 1.388 . S
C255 C256 1.366 . S
C256 C255 1.366 . S
C256 C257 1.414 . S
C256 C259 1.499 . S
C257 H231 0.950 . S
C257 C256 1.414 . S
C257 C258 1.374 . S
C258 H232 0.950 . S
C258 C254 1.385 . S
C258 C257 1.374 . S
C259 C256 1.499 . S
C259 C260 1.373 . S
C259 C261 1.389 . S
C260 H233 0.950 . S
C260 C246 1.377 . S
C260 C259 1.373 . S
C261 C245 1.377 . S
C261 C259 1.389 . S
C261 C262 1.524 . S
C262 C261 1.524 . S
C262 C263 1.397 . S
C262 C267 1.363 . S
C263 H234 0.950 . S
C263 C262 1.397 . S
C263 C264 1.334 . S
C264 H235 0.950 . S
C264 C263 1.334 . S
C264 C265 1.287 . S
C265 C264 1.287 . S
C265 C266 1.524 . S
C265 H268 0.999 . S
C266 H236 0.950 . S
C266 C265 1.524 . S
C266 C267 1.415 . S
C267 H237 0.950 . S
C267 C262 1.363 . S
C267 C266 1.415 . S
H268 C265 0.999 . S
H269 C250 0.913 . S
H270 C288 0.951 . S
H271 C290 0.951 . S
H272 C292 0.950 . S
H273 C293 0.950 . S
H274 C295 0.950 . S
H275 C298 0.950 . S
H276 C299 0.950 . S
H277 C301 0.950 . S
H278 C302 0.950 . S
H279 C303 0.951 . S
H280 C305 0.951 . S
H281 C307 0.951 . S
H282 C308 0.954 . S
H283 C310 0.950 . S
H284 C313 0.950 . S
H285 C314 0.950 . S
H286 C316 0.950 . S
H287 C317 0.950 . S
C288 H270 0.951 . S
C288 C289 1.366 1_554 S
C288 C290 1.388 . S
C289 C288 1.366 1_556 S
C289 C293 1.385 . S
C290 H271 0.951 . S
C290 C288 1.388 . S
C290 C291 1.366 1_554 S
C291 C290 1.366 1_556 S
C291 C292 1.414 . S
C291 C294 1.499 . S
C292 H272 0.950 . S
C292 C291 1.414 . S
C292 C293 1.374 . S
C293 H273 0.950 . S
C293 C289 1.385 . S
C293 C292 1.374 . S
C294 C291 1.499 . S
C294 C295 1.373 . S
C294 C296 1.389 1_556 S
C295 H274 0.950 . S
C295 C294 1.373 . S
C295 C311 1.377 . S
C296 C294 1.389 1_554 S
C296 C297 1.524 . S
C296 C310 1.377 . S
C297 C296 1.524 . S
C297 C298 1.397 . S
C297 C302 1.363 . S
C298 H275 0.950 . S
C298 C297 1.397 . S
C298 C299 1.334 . S
C299 H276 0.950 . S
C299 C298 1.334 . S
C299 C300 1.287 . S
C300 C299 1.287 . S
C300 C301 1.524 . S
C300 H319 0.913 . S
C301 H277 0.950 . S
C301 C300 1.524 . S
C301 C302 1.415 . S
C302 H278 0.950 . S
C302 C297 1.363 . S
C302 C301 1.415 . S
C303 H279 0.951 . S
C303 C304 1.366 . S
C303 C305 1.388 . S
C304 C303 1.366 . S
C304 C308 1.381 1_556 S
C305 H280 0.951 . S
C305 C303 1.388 . S
C305 C306 1.366 . S
C306 C305 1.366 . S
C306 C307 1.414 1_556 S
C306 C309 1.499 . S
C307 H281 0.951 . S
C307 C306 1.414 1_554 S
C307 C308 1.374 . S
C308 H282 0.954 . S
C308 C304 1.381 1_554 S
C308 C307 1.374 . S
C309 C306 1.499 . S
C309 C310 1.373 1_556 S
C309 C311 1.389 . S
C310 H283 0.950 . S
C310 C296 1.377 . S
C310 C309 1.373 1_554 S
C311 C295 1.377 . S
C311 C309 1.389 . S
C311 C312 1.524 . S
C312 C311 1.524 . S
C312 C313 1.397 . S
C312 C317 1.363 . S
C313 H284 0.950 . S
C313 C312 1.397 . S
C313 C314 1.334 . S
C314 H285 0.950 . S
C314 C313 1.334 . S
C314 C315 1.287 . S
C315 C314 1.287 . S
C315 C316 1.524 . S
C315 H318 0.999 . S
C316 H286 0.950 . S
C316 C315 1.524 . S
C316 C317 1.415 . S
C317 H287 0.950 . S
C317 C312 1.363 . S
C317 C316 1.415 . S
H318 C315 0.999 . S
H319 C300 0.913 . S
H320 C338 0.951 . S
H321 C340 0.951 . S
H322 C342 0.950 . S
H323 C343 0.950 . S
H324 C345 0.950 . S
H325 C348 0.950 . S
H326 C349 0.950 . S
H327 C351 0.950 . S
H328 C352 0.950 . S
H329 C353 0.951 . S
H330 C355 0.951 . S
H331 C357 0.950 . S
H332 C358 0.950 . S
H333 C360 0.950 . S
H334 C363 0.950 . S
H335 C364 0.950 . S
H336 C366 0.950 . S
H337 C367 0.950 . S
C338 H320 0.951 . S
C338 C339 1.366 . S
C338 C340 1.388 . S
C339 C338 1.366 . S
C339 C343 1.385 1_556 S
C340 H321 0.951 . S
C340 C338 1.388 . S
C340 C341 1.366 . S
C341 C340 1.366 . S
C341 C342 1.414 1_556 S
C341 C344 1.499 1_556 S
C342 H322 0.950 . S
C342 C341 1.414 1_554 S
C342 C343 1.374 . S
C343 H323 0.950 . S
C343 C339 1.385 1_554 S
C343 C342 1.374 . S
C344 C341 1.499 1_554 S
C344 C345 1.374 1_554 S
C344 C346 1.389 . S
C345 H324 0.950 . S
C345 C344 1.374 1_556 S
C345 C361 1.377 . S
C346 C344 1.389 . S
C346 C347 1.524 . S
C346 C360 1.377 . S
C347 C346 1.524 . S
C347 C348 1.397 . S
C347 C352 1.363 . S
C348 H325 0.950 . S
C348 C347 1.397 . S
C348 C349 1.334 . S
C349 H326 0.950 . S
C349 C348 1.334 . S
C349 C350 1.287 . S
C350 C349 1.287 . S
C350 C351 1.524 . S
C350 H369 0.913 . S
C351 H327 0.950 . S
C351 C350 1.524 . S
C351 C352 1.415 . S
C352 H328 0.950 . S
C352 C347 1.363 . S
C352 C351 1.415 . S
C353 H329 0.951 . S
C353 C354 1.366 1_554 S
C353 C355 1.388 . S
C354 C353 1.366 1_556 S
C354 C358 1.385 . S
C355 H330 0.951 . S
C355 C353 1.388 . S
C355 C356 1.366 1_554 S
C356 C355 1.366 1_556 S
C356 C357 1.414 . S
C356 C359 1.499 . S
C357 H331 0.950 . S
C357 C356 1.414 . S
C357 C358 1.374 . S
C358 H332 0.950 . S
C358 C354 1.385 . S
C358 C357 1.374 . S
C359 C356 1.499 . S
C359 C360 1.373 1_556 S
C359 C361 1.389 . S
C360 H333 0.950 . S
C360 C346 1.377 . S
C360 C359 1.373 1_554 S
C361 C345 1.377 . S
C361 C359 1.389 . S
C361 C362 1.524 . S
C362 C361 1.524 . S
C362 C363 1.397 . S
C362 C367 1.363 . S
C363 H334 0.950 . S
C363 C362 1.397 . S
C363 C364 1.334 . S
C364 H335 0.950 . S
C364 C363 1.334 . S
C364 C365 1.287 . S
C365 C364 1.287 . S
C365 C366 1.524 . S
C365 H368 0.999 . S
C366 H336 0.950 . S
C366 C365 1.524 . S
C366 C367 1.415 . S
C367 H337 0.950 . S
C367 C362 1.363 . S
C367 C366 1.415 . S
H368 C365 0.999 . S
H369 C350 0.913 . S
H370 C388 0.951 . S
H371 C390 0.951 . S
H372 C392 0.950 . S
H373 C393 0.950 . S
H374 C395 0.951 1_554 S
H375 C398 0.950 . S
H376 C399 0.950 . S
H377 C401 0.950 . S
H378 C402 0.950 . S
H379 C403 0.951 . S
H380 C405 0.951 . S
H381 C407 0.950 . S
H382 C408 0.950 . S
H383 C410 0.950 . S
H384 C413 0.950 . S
H385 C414 0.950 . S
H386 C416 0.950 . S
H387 C417 0.950 . S
C388 H370 0.951 . S
C388 C389 1.366 1_554 S
C388 C390 1.388 . S
C389 C388 1.366 1_556 S
C389 C393 1.385 . S
C390 H371 0.951 . S
C390 C388 1.388 . S
C390 C391 1.366 1_554 S
C391 C390 1.366 1_556 S
C391 C392 1.414 . S
C391 C394 1.499 . S
C392 H372 0.950 . S
C392 C391 1.414 . S
C392 C393 1.374 . S
C393 H373 0.950 . S
C393 C389 1.385 . S
C393 C392 1.374 . S
C394 C391 1.499 . S
C394 C395 1.375 . S
C394 C396 1.389 . S
C395 H374 0.951 1_556 S
C395 C394 1.375 . S
C395 C411 1.375 1_556 S
C396 C394 1.389 . S
C396 C397 1.524 . S
C396 C410 1.377 . S
C397 C396 1.524 . S
C397 C398 1.397 . S
C397 C402 1.363 1_556 S
C398 H375 0.950 . S
C398 C397 1.397 . S
C398 C399 1.334 . S
C399 H376 0.950 . S
C399 C398 1.334 . S
C399 C400 1.287 . S
C400 C399 1.287 . S
C400 C401 1.524 1_556 S
C400 H419 0.913 . S
C401 H377 0.950 . S
C401 C400 1.524 1_554 S
C401 C402 1.415 . S
C402 H378 0.950 . S
C402 C397 1.363 1_554 S
C402 C401 1.415 . S
C403 H379 0.951 . S
C403 C404 1.371 . S
C403 C405 1.388 . S
C404 C403 1.371 . S
C404 C408 1.380 1_556 S
C405 H380 0.951 . S
C405 C403 1.388 . S
C405 C406 1.366 1_556 S
C406 C405 1.366 1_554 S
C406 C407 1.414 . S
C406 C409 1.499 . S
C407 H381 0.950 . S
C407 C406 1.414 . S
C407 C408 1.374 . S
C408 H382 0.950 . S
C408 C404 1.380 1_554 S
C408 C407 1.374 . S
C409 C406 1.499 . S
C409 C410 1.373 1_554 S
C409 C411 1.389 . S
C410 H383 0.950 . S
C410 C396 1.377 . S
C410 C409 1.373 1_556 S
C411 C395 1.375 1_554 S
C411 C409 1.389 . S
C411 C412 1.524 . S
C412 C411 1.524 . S
C412 C413 1.397 . S
C412 C417 1.363 1_554 S
C413 H384 0.950 . S
C413 C412 1.397 . S
C413 C414 1.334 . S
C414 H385 0.950 . S
C414 C413 1.334 . S
C414 C415 1.287 . S
C415 C414 1.287 . S
C415 C416 1.524 1_554 S
C415 H418 0.999 . S
C416 H386 0.950 . S
C416 C415 1.524 1_556 S
C416 C417 1.415 . S
C417 H387 0.950 . S
C417 C412 1.363 1_556 S
C417 C416 1.415 . S
H418 C415 0.999 . S
H419 C400 0.913 . S
H420 C438 0.951 . S
H421 C440 0.951 . S
H422 C442 0.950 . S
H423 C443 0.950 . S
H424 C445 0.950 . S
H425 C448 0.950 . S
H426 C449 0.950 . S
H427 C451 0.950 . S
H428 C452 0.950 . S
H429 C453 0.951 . S
H430 C455 0.951 . S
H431 C457 0.950 . S
H432 C458 0.950 . S
H433 C460 0.950 . S
H434 C463 0.950 . S
H435 C464 0.950 . S
H436 C466 0.950 . S
H437 C467 0.950 . S
C438 H420 0.951 . S
C438 C439 1.366 . S
C438 C440 1.388 . S
C439 C438 1.366 . S
C439 C443 1.385 1_554 S
C440 H421 0.951 . S
C440 C438 1.388 . S
C440 C441 1.366 . S
C441 C440 1.366 . S
C441 C442 1.414 1_554 S
C441 C444 1.499 . S
C442 H422 0.950 . S
C442 C441 1.414 1_556 S
C442 C443 1.374 . S
C443 H423 0.950 . S
C443 C439 1.385 1_556 S
C443 C442 1.374 . S
C444 C441 1.499 . S
C444 C445 1.373 1_554 S
C444 C446 1.389 . S
C445 H424 0.950 . S
C445 C444 1.373 1_556 S
C445 C461 1.377 . S
C446 C444 1.389 . S
C446 C447 1.524 . S
C446 C460 1.377 . S
C447 C446 1.524 . S
C447 C448 1.397 . S
C447 C452 1.363 . S
C448 H425 0.950 . S
C448 C447 1.397 . S
C448 C449 1.334 . S
C449 H426 0.950 . S
C449 C448 1.334 . S
C449 C450 1.287 . S
C450 C449 1.287 . S
C450 C451 1.524 . S
C450 H469 0.913 . S
C451 H427 0.950 . S
C451 C450 1.524 . S
C451 C452 1.415 . S
C452 H428 0.950 . S
C452 C447 1.363 . S
C452 C451 1.415 . S
C453 H429 0.951 . S
C453 C454 1.366 1_556 S
C453 C455 1.388 . S
C454 C453 1.366 1_554 S
C454 C458 1.385 . S
C455 H430 0.951 . S
C455 C453 1.388 . S
C455 C456 1.366 1_556 S
C456 C455 1.366 1_554 S
C456 C457 1.414 . S
C456 C459 1.499 . S
C457 H431 0.950 . S
C457 C456 1.414 . S
C457 C458 1.374 . S
C458 H432 0.950 . S
C458 C454 1.385 . S
C458 C457 1.374 . S
C459 C456 1.499 . S
C459 C460 1.373 . S
C459 C461 1.389 1_554 S
C460 H433 0.950 . S
C460 C446 1.377 . S
C460 C459 1.373 . S
C461 C445 1.377 . S
C461 C459 1.389 1_556 S
C461 C462 1.524 . S
C462 C461 1.524 . S
C462 C463 1.397 . S
C462 C467 1.363 . S
C463 H434 0.950 . S
C463 C462 1.397 . S
C463 C464 1.334 . S
C464 H435 0.950 . S
C464 C463 1.334 . S
C464 C465 1.287 . S
C465 C464 1.287 . S
C465 C466 1.524 . S
C465 H468 0.999 . S
C466 H436 0.950 . S
C466 C465 1.524 . S
C466 C467 1.415 . S
C467 H437 0.950 . S
C467 C462 1.363 . S
C467 C466 1.415 . S
H468 C465 0.999 . S
H469 C450 0.913 . S
H470 C488 0.951 . S
H471 C490 0.951 . S
H472 C492 0.950 . S
H473 C493 0.950 . S
H474 C495 0.950 . S
H475 C498 0.950 . S
H476 C499 0.950 . S
H477 C501 0.950 . S
H478 C502 0.950 . S
H479 C503 0.951 . S
H480 C505 0.951 . S
H481 C507 0.950 . S
H482 C508 0.950 . S
H483 C510 0.950 . S
H484 C513 0.950 . S
H485 C514 0.950 . S
H486 C516 0.950 . S
H487 C517 0.950 . S
C488 H470 0.951 . S
C488 C489 1.366 . S
C488 C490 1.388 . S
C489 C488 1.366 . S
C489 C493 1.385 1_554 S
C490 H471 0.951 . S
C490 C488 1.388 . S
C490 C491 1.366 . S
C491 C490 1.366 . S
C491 C492 1.414 1_554 S
C491 C494 1.499 . S
C492 H472 0.950 . S
C492 C491 1.414 1_556 S
C492 C493 1.374 . S
C493 H473 0.950 . S
C493 C489 1.385 1_556 S
C493 C492 1.374 . S
C494 C491 1.499 . S
C494 C495 1.373 1_554 S
C494 C496 1.389 . S
C495 H474 0.950 . S
C495 C494 1.373 1_556 S
C495 C511 1.377 . S
C496 C494 1.389 . S
C496 C497 1.524 . S
C496 C510 1.377 . S
C497 C496 1.524 . S
C497 C498 1.397 . S
C497 C502 1.363 . S
C498 H475 0.950 . S
C498 C497 1.397 . S
C498 C499 1.334 . S
C499 H476 0.950 . S
C499 C498 1.334 . S
C499 C500 1.287 . S
C500 C499 1.287 . S
C500 C501 1.524 . S
C500 H519 0.913 . S
C501 H477 0.950 . S
C501 C500 1.524 . S
C501 C502 1.415 . S
C502 H478 0.950 . S
C502 C497 1.363 . S
C502 C501 1.415 . S
C503 H479 0.951 . S
C503 C504 1.366 1_556 S
C503 C505 1.388 . S
C504 C503 1.366 1_554 S
C504 C508 1.385 . S
C505 H480 0.951 . S
C505 C503 1.388 . S
C505 C506 1.366 1_556 S
C506 C505 1.366 1_554 S
C506 C507 1.414 . S
C506 C509 1.499 . S
C507 H481 0.950 . S
C507 C506 1.414 . S
C507 C508 1.374 . S
C508 H482 0.950 . S
C508 C504 1.385 . S
C508 C507 1.374 . S
C509 C506 1.499 . S
C509 C510 1.373 . S
C509 C511 1.389 1_554 S
C510 H483 0.950 . S
C510 C496 1.377 . S
C510 C509 1.373 . S
C511 C495 1.377 . S
C511 C509 1.389 1_556 S
C511 C512 1.524 . S
C512 C511 1.524 . S
C512 C513 1.397 . S
C512 C517 1.363 . S
C513 H484 0.950 . S
C513 C512 1.397 . S
C513 C514 1.334 . S
C514 H485 0.950 . S
C514 C513 1.334 . S
C514 C515 1.287 . S
C515 C514 1.287 . S
C515 C516 1.524 . S
C515 H518 0.999 . S
C516 H486 0.950 . S
C516 C515 1.524 . S
C516 C517 1.415 . S
C517 H487 0.950 . S
C517 C512 1.363 . S
C517 C516 1.415 . S
H518 C515 0.999 . S
H519 C500 0.913 . S
H520 C538 0.951 . S
H521 C540 0.951 . S
H522 C542 0.950 . S
H523 C543 0.950 . S
H524 C545 0.950 . S
H525 C548 0.950 . S
H526 C549 0.950 . S
H527 C551 0.950 . S
H528 C552 0.950 . S
H529 C553 0.951 . S
H530 C555 0.951 . S
H531 C557 0.950 . S
H532 C558 0.950 . S
H533 C560 0.950 . S
H534 C563 0.950 . S
H535 C564 0.950 . S
H536 C566 0.950 . S
H537 C567 0.950 . S
C538 H520 0.951 . S
C538 C539 1.381 . S
C538 C540 1.388 . S
C539 C538 1.381 . S
C539 C543 1.372 1_554 S
C540 H521 0.951 . S
C540 C538 1.388 . S
C540 C541 1.366 . S
C541 C540 1.366 . S
C541 C542 1.414 1_554 S
C541 C544 1.497 . S
C542 H522 0.950 . S
C542 C541 1.414 1_556 S
C542 C543 1.374 . S
C543 H523 0.950 . S
C543 C539 1.372 1_556 S
C543 C542 1.374 . S
C544 C541 1.497 . S
C544 C545 1.364 1_554 S
C544 C546 1.401 . S
C545 H524 0.950 . S
C545 C544 1.364 1_556 S
C545 C561 1.377 . S
C546 C544 1.401 . S
C546 C547 1.524 . S
C546 C560 1.377 . S
C547 C546 1.524 . S
C547 C548 1.397 . S
C547 C552 1.363 . S
C548 H525 0.950 . S
C548 C547 1.397 . S
C548 C549 1.334 . S
C549 H526 0.950 . S
C549 C548 1.334 . S
C549 C550 1.287 . S
C550 C549 1.287 . S
C550 C551 1.524 . S
C550 H569 0.913 . S
C551 H527 0.950 . S
C551 C550 1.524 . S
C551 C552 1.415 . S
C552 H528 0.950 . S
C552 C547 1.363 . S
C552 C551 1.415 . S
C553 H529 0.951 . S
C553 C554 1.366 1_556 S
C553 C555 1.388 . S
C554 C553 1.366 1_554 S
C554 C558 1.385 . S
C555 H530 0.951 . S
C555 C553 1.388 . S
C555 C556 1.366 1_556 S
C556 C555 1.366 1_554 S
C556 C557 1.414 . S
C556 C559 1.499 . S
C557 H531 0.950 . S
C557 C556 1.414 . S
C557 C558 1.374 . S
C558 H532 0.950 . S
C558 C554 1.385 . S
C558 C557 1.374 . S
C559 C556 1.499 . S
C559 C560 1.373 . S
C559 C561 1.389 1_554 S
C560 H533 0.950 . S
C560 C546 1.377 . S
C560 C559 1.373 . S
C561 C545 1.377 . S
C561 C559 1.389 1_556 S
C561 C562 1.524 . S
C562 C561 1.524 . S
C562 C563 1.397 . S
C562 C567 1.363 . S
C563 H534 0.950 . S
C563 C562 1.397 . S
C563 C564 1.334 . S
C564 H535 0.950 . S
C564 C563 1.334 . S
C564 C565 1.287 . S
C565 C564 1.287 . S
C565 C566 1.524 . S
C565 H568 0.999 . S
C566 H536 0.950 . S
C566 C565 1.524 . S
C566 C567 1.415 . S
C567 H537 0.950 . S
C567 C562 1.363 . S
C567 C566 1.415 . S
H568 C565 0.999 . S
H569 C550 0.913 . S
C139 C10 1.462 . S
C154 C19 1.460 1_655 S
C189 C50 1.462 . S
C204 C59 1.459 . S
C239 C99 1.462 . S
C254 C90 1.462 . S
C289 C11 2.613 1_556 S
C304 C82 2.585 . S
C339 C47 0.887 . S
C354 C7 0.885 . S
C389 C51 1.936 . S
C404 C87 1.901 . S
C439 C2 2.613 1_554 S
C454 C91 2.585 . S
C489 C16 0.884 . S
C504 C56 0.887 . S
C539 C96 1.900 . S
C554 C42 1.936 . S
