# Generated by pormake.
# Topology uol, (4)-cn, num edge types: 1
# Building blocks:
#     Node 0, Type 0, BuildingBlock: GALJAG_clean_sbu_0, # of connection points: 4
#     Node 1, Type 0, BuildingBlock: GALJAG_clean_sbu_0, # of connection points: 4
#     Node 2, Type 0, BuildingBlock: GALJAG_clean_sbu_0, # of connection points: 4
#     Node 3, Type 0, BuildingBlock: GALJAG_clean_sbu_0, # of connection points: 4
#     Node 4, Type 0, BuildingBlock: GALJAG_clean_sbu_0, # of connection points: 4
#     Node 5, Type 0, BuildingBlock: GALJAG_clean_sbu_0, # of connection points: 4
#     Node 6, Type 0, BuildingBlock: GALJAG_clean_sbu_0, # of connection points: 4
#     Node 7, Type 0, BuildingBlock: GALJAG_clean_sbu_0, # of connection points: 4
#     Node 8, Type 0, BuildingBlock: GALJAG_clean_sbu_0, # of connection points: 4
#     Node 9, Type 0, BuildingBlock: GALJAG_clean_sbu_0, # of connection points: 4
#     Node 10, Type 0, BuildingBlock: GALJAG_clean_sbu_0, # of connection points: 4
#     Node 11, Type 0, BuildingBlock: GALJAG_clean_sbu_0, # of connection points: 4
#     Edge 12, Type (0, 0), BuildingBlock: CIFDUS_clean_linker_0, # of connection points: 2
#     Edge 13, Type (0, 0), BuildingBlock: CIFDUS_clean_linker_0, # of connection points: 2
#     Edge 14, Type (0, 0), BuildingBlock: CIFDUS_clean_linker_0, # of connection points: 2
#     Edge 15, Type (0, 0), BuildingBlock: CIFDUS_clean_linker_0, # of connection points: 2
#     Edge 16, Type (0, 0), BuildingBlock: CIFDUS_clean_linker_0, # of connection points: 2
#     Edge 17, Type (0, 0), BuildingBlock: CIFDUS_clean_linker_0, # of connection points: 2
#     Edge 18, Type (0, 0), BuildingBlock: CIFDUS_clean_linker_0, # of connection points: 2
#     Edge 19, Type (0, 0), BuildingBlock: CIFDUS_clean_linker_0, # of connection points: 2
#     Edge 20, Type (0, 0), BuildingBlock: CIFDUS_clean_linker_0, # of connection points: 2
#     Edge 21, Type (0, 0), BuildingBlock: CIFDUS_clean_linker_0, # of connection points: 2
#     Edge 22, Type (0, 0), BuildingBlock: CIFDUS_clean_linker_0, # of connection points: 2
#     Edge 23, Type (0, 0), BuildingBlock: CIFDUS_clean_linker_0, # of connection points: 2
#     Edge 24, Type (0, 0), BuildingBlock: CIFDUS_clean_linker_0, # of connection points: 2
#     Edge 25, Type (0, 0), BuildingBlock: CIFDUS_clean_linker_0, # of connection points: 2
#     Edge 26, Type (0, 0), BuildingBlock: CIFDUS_clean_linker_0, # of connection points: 2
#     Edge 27, Type (0, 0), BuildingBlock: CIFDUS_clean_linker_0, # of connection points: 2
#     Edge 28, Type (0, 0), BuildingBlock: CIFDUS_clean_linker_0, # of connection points: 2
#     Edge 29, Type (0, 0), BuildingBlock: CIFDUS_clean_linker_0, # of connection points: 2
#     Edge 30, Type (0, 0), BuildingBlock: CIFDUS_clean_linker_0, # of connection points: 2
#     Edge 31, Type (0, 0), BuildingBlock: CIFDUS_clean_linker_0, # of connection points: 2
#     Edge 32, Type (0, 0), BuildingBlock: CIFDUS_clean_linker_0, # of connection points: 2
#     Edge 33, Type (0, 0), BuildingBlock: CIFDUS_clean_linker_0, # of connection points: 2
#     Edge 34, Type (0, 0), BuildingBlock: CIFDUS_clean_linker_0, # of connection points: 2
#     Edge 35, Type (0, 0), BuildingBlock: CIFDUS_clean_linker_0, # of connection points: 2
# Relax obj value: 0.121
# Max RMSD: 0.117
# Mean RMSD: 0.117
data_MOF--net-uol--node1-GALJAG_clean_sbu_0--edge1-CIFDUS_clean_linker_0
_symmetry_space_group_name_H-M    P1
_symmetry_Int_Tables_number       1
_symmetry_cell_setting            triclinic
loop_
_symmetry_equiv_pos_as_xyz
'x, y, z'
_cell_length_a     30.123432
_cell_length_b     30.143007
_cell_length_c     52.373675
_cell_angle_alpha  90.040146
_cell_angle_beta   89.865237
_cell_angle_gamma 119.89562
loop_
_atom_site_label
_atom_site_type_symbol
_atom_site_fract_x
_atom_site_fract_y
_atom_site_fract_z
_atom_type_partial_charge
In0 In 0.17652 0.38308 0.09778 0.0
O1 O 0.09061 0.32145 0.09692 0.0
O2 O 0.11567 0.38359 0.12289 0.0
C3 C 0.21742 0.37096 0.05413 0.0
C4 C 0.19994 0.48164 0.0953 0.0
C5 C 0.21109 0.33916 0.1313 0.0
O6 O 0.16944 0.35091 0.05697 0.0
O7 O 0.24351 0.39734 0.07283 0.0
O8 O 0.23361 0.38708 0.12816 0.0
O9 O 0.17162 0.31434 0.11785 0.0
C10 C 0.07891 0.34244 0.11461 0.0
O11 O 0.21264 0.46375 0.11396 0.0
O12 O 0.17647 0.45003 0.07756 0.0
In13 In 0.81181 0.16093 0.25768 0.0
O14 O 0.83402 0.10528 0.27478 0.0
O15 O 0.76005 0.07329 0.25848 0.0
C16 C 0.85059 0.18728 0.20991 0.0
C17 C 0.72547 0.16766 0.26304 0.0
C18 C 0.88576 0.22637 0.29017 0.0
O19 O 0.83136 0.14193 0.21815 0.0
O20 O 0.84761 0.218 0.22526 0.0
O21 O 0.89528 0.21419 0.26873 0.0
O22 O 0.83871 0.20651 0.29517 0.0
C23 C 0.7918 0.06549 0.27052 0.0
O24 O 0.7409 0.14851 0.27976 0.0
O25 O 0.75363 0.18379 0.24347 0.0
In26 In 0.65311 0.80648 0.41607 0.0
O27 O 0.70662 0.77342 0.4233 0.0
O28 O 0.69307 0.81213 0.4536 0.0
C29 C 0.67309 0.83584 0.36653 0.0
C30 C 0.56311 0.71715 0.41785 0.0
C31 C 0.667 0.89435 0.43714 0.0
O32 O 0.70608 0.83505 0.38108 0.0
O33 O 0.6295 0.81886 0.37656 0.0
O34 O 0.63068 0.8511 0.444 0.0
O35 O 0.69501 0.89275 0.41966 0.0
C36 C 0.71525 0.7883 0.44626 0.0
O37 O 0.56511 0.75998 0.41886 0.0
O38 O 0.60599 0.71965 0.41582 0.0
In39 In 0.83846 0.63359 0.59007 0.0
O40 O 0.79605 0.54491 0.59205 0.0
O41 O 0.87653 0.58465 0.58764 0.0
C42 C 0.76358 0.63146 0.6197 0.0
C43 C 0.9287 0.70156 0.61183 0.0
C44 C 0.82861 0.66979 0.54418 0.0
O45 O 0.76363 0.63444 0.59569 0.0
O46 O 0.79984 0.6267 0.62871 0.0
O47 O 0.84972 0.69803 0.56324 0.0
O48 O 0.8145 0.6232 0.54778 0.0
C49 C 0.83632 0.54207 0.59008 0.0
O50 O 0.92627 0.68013 0.59074 0.0
O51 O 0.88583 0.68997 0.62141 0.0
In52 In 0.19474 0.82472 0.75956 0.0
O53 O 0.21136 0.90639 0.76919 0.0
O54 O 0.24645 0.87358 0.79152 0.0
C55 C 0.14099 0.82624 0.71864 0.0
C56 C 0.27738 0.81752 0.74515 0.0
C57 C 0.11904 0.75015 0.78842 0.0
O58 O 0.14097 0.84662 0.73973 0.0
O59 O 0.17025 0.80749 0.71782 0.0
O60 O 0.12243 0.74577 0.7647 0.0
O61 O 0.15519 0.79047 0.79771 0.0
C62 C 0.24084 0.91172 0.78753 0.0
O63 O 0.24095 0.78264 0.75784 0.0
O64 O 0.27076 0.85423 0.73896 0.0
In65 In 0.36057 0.21178 0.92104 0.0
O66 O 0.29504 0.23014 0.92482 0.0
O67 O 0.35772 0.26552 0.95047 0.0
C68 C 0.3347 0.15466 0.87811 0.0
C69 C 0.45519 0.29132 0.91144 0.0
C70 C 0.33462 0.13424 0.95439 0.0
O71 O 0.31602 0.18307 0.8833 0.0
O72 O 0.36744 0.15721 0.89389 0.0
O73 O 0.38067 0.16441 0.94822 0.0
O74 O 0.30267 0.14411 0.94422 0.0
C75 C 0.31491 0.25947 0.94377 0.0
O76 O 0.44483 0.26304 0.93088 0.0
O77 O 0.41793 0.27906 0.89651 0.0
In78 In 0.62962 0.81505 0.74349 0.0
O79 O 0.54194 0.76249 0.74155 0.0
O80 O 0.57167 0.84269 0.74325 0.0
C81 C 0.65237 0.74991 0.71873 0.0
C82 C 0.68664 0.90533 0.7189 0.0
C83 C 0.65284 0.8049 0.79237 0.0
O84 O 0.61791 0.75879 0.71083 0.0
O85 O 0.67435 0.77335 0.73886 0.0
O86 O 0.68447 0.83919 0.77757 0.0
O87 O 0.60876 0.77797 0.78302 0.0
C88 C 0.53253 0.79889 0.742 0.0
O89 O 0.6715 0.90305 0.74163 0.0
O90 O 0.67381 0.86251 0.70894 0.0
In91 In 0.80965 0.64276 0.91314 0.0
O92 O 0.75121 0.66864 0.90422 0.0
O93 O 0.82724 0.71541 0.89123 0.0
C94 C 0.84812 0.6728 0.9606 0.0
C95 C 0.727 0.54717 0.91632 0.0
C96 C 0.88965 0.6467 0.88681 0.0
O97 O 0.83608 0.69946 0.94666 0.0
O98 O 0.83901 0.63077 0.95085 0.0
O99 O 0.84606 0.62986 0.87685 0.0
O100 O 0.89182 0.65935 0.90983 0.0
C101 C 0.78227 0.70804 0.89195 0.0
O102 O 0.75015 0.56559 0.89552 0.0
O103 O 0.74579 0.57646 0.93523 0.0
In104 In 0.1616 0.81019 0.07781 0.0
O105 O 0.08032 0.79873 0.07457 0.0
O106 O 0.09172 0.7373 0.06386 0.0
C107 C 0.19549 0.86221 0.12229 0.0
C108 C 0.19002 0.73835 0.07655 0.0
C109 C 0.19711 0.88451 0.04178 0.0
O110 O 0.14896 0.82895 0.11909 0.0
O111 O 0.22392 0.86799 0.10346 0.0
O112 O 0.22404 0.86622 0.04998 0.0
O113 O 0.15292 0.86459 0.05127 0.0
C114 C 0.06112 0.75426 0.06531 0.0
O115 O 0.19173 0.7639 0.05705 0.0
O116 O 0.175 0.74984 0.09676 0.0
In117 In 0.3763 0.17359 0.2501 0.0
O118 O 0.46162 0.21758 0.24113 0.0
O119 O 0.43592 0.15748 0.26843 0.0
C120 C 0.34783 0.23007 0.22149 0.0
C121 C 0.34276 0.08832 0.22145 0.0
C122 C 0.33845 0.18183 0.29577 0.0
O123 O 0.39162 0.2494 0.23154 0.0
O124 O 0.31938 0.18306 0.22582 0.0
O125 O 0.31589 0.14255 0.28188 0.0
O126 O 0.38135 0.2157 0.28731 0.0
C127 C 0.47307 0.19141 0.25568 0.0
O128 O 0.3229 0.08736 0.24289 0.0
O129 O 0.37911 0.13153 0.21495 0.0
In130 In 0.20476 0.37113 0.41243 0.0
O131 O 0.24721 0.4558 0.40025 0.0
O132 O 0.28338 0.43067 0.42671 0.0
C133 C 0.13492 0.35699 0.37638 0.0
C134 C 0.24233 0.30961 0.39736 0.0
C135 C 0.15354 0.35346 0.45734 0.0
O136 O 0.18235 0.37912 0.3715 0.0
O137 O 0.1234 0.34321 0.39929 0.0
O138 O 0.16455 0.32155 0.44787 0.0
O139 O 0.17073 0.39453 0.44491 0.0
C140 C 0.28616 0.46721 0.41376 0.0
O141 O 0.26632 0.34753 0.41187 0.0
O142 O 0.19806 0.3007 0.39162 0.0
In143 In 0.821 0.18399 0.57248 0.0
O144 O 0.77376 0.22448 0.5719 0.0
O145 O 0.84513 0.26126 0.59129 0.0
C146 C 0.75501 0.1181 0.53725 0.0
C147 C 0.91689 0.22699 0.5526 0.0
C148 C 0.81039 0.1225 0.61264 0.0
O149 O 0.74289 0.11729 0.56034 0.0
O150 O 0.79926 0.1537 0.53172 0.0
O151 O 0.82863 0.12043 0.59132 0.0
O152 O 0.79922 0.15762 0.61442 0.0
C153 C 0.80625 0.26338 0.58404 0.0
O154 O 0.90028 0.1911 0.56869 0.0
O155 O 0.88573 0.24188 0.54701 0.0
H156 H 0.20929 0.69202 0.11598 0.0
H157 H 0.19067 0.68619 0.03421 0.0
H158 H 0.19469 0.60721 0.0325 0.0
H159 H 0.19675 0.53619 0.05472 0.0
H160 H 0.219 0.54404 0.13628 0.0
H161 H 0.22074 0.62592 0.13759 0.0
C162 C 0.20672 0.67372 0.09777 0.0
C163 C 0.19921 0.69457 0.07529 0.0
C164 C 0.20943 0.62853 0.09691 0.0
C165 C 0.19646 0.67085 0.05179 0.0
C166 C 0.19851 0.62555 0.0508 0.0
C167 C 0.20254 0.55617 0.07272 0.0
C168 C 0.20724 0.53392 0.0954 0.0
C169 C 0.20395 0.60349 0.07331 0.0
C170 C 0.21527 0.56039 0.11856 0.0
C171 C 0.21606 0.60712 0.11935 0.0
H172 H 0.69243 0.2205 0.23405 0.0
H173 H 0.65106 0.11943 0.29897 0.0
H174 H 0.5703 0.11944 0.30324 0.0
H175 H 0.50962 0.14543 0.28746 0.0
H176 H 0.55217 0.24851 0.2233 0.0
H177 H 0.63413 0.25079 0.21997 0.0
C178 C 0.66577 0.19862 0.24916 0.0
C179 C 0.67758 0.1697 0.26603 0.0
C180 C 0.61953 0.1992 0.25168 0.0
C181 C 0.64287 0.14193 0.28568 0.0
C182 C 0.59662 0.14188 0.28814 0.0
C183 C 0.53706 0.16876 0.27292 0.0
C184 C 0.52467 0.1966 0.25562 0.0
C185 C 0.58431 0.17001 0.27112 0.0
C186 C 0.56073 0.22679 0.23692 0.0
C187 C 0.60758 0.22795 0.2349 0.0
H188 H 0.46642 0.69701 0.40622 0.0
H189 H 0.552 0.62604 0.43237 0.0
H190 H 0.47359 0.54315 0.4344 0.0
H191 H 0.38122 0.49038 0.42808 0.0
H192 H 0.29526 0.55855 0.39894 0.0
H193 H 0.37309 0.64291 0.39871 0.0
C194 C 0.46768 0.66335 0.41246 0.0
C195 C 0.51484 0.66761 0.41924 0.0
C196 C 0.42245 0.61536 0.41299 0.0
C197 C 0.51617 0.62369 0.427 0.0
C198 C 0.47136 0.57629 0.4282 0.0
C199 C 0.37945 0.52376 0.4218 0.0
C200 C 0.33259 0.51841 0.41372 0.0
C201 C 0.42438 0.57163 0.42115 0.0
C202 C 0.33097 0.5618 0.40527 0.0
C203 C 0.37542 0.60999 0.40516 0.0
H204 H 0.75632 0.44412 0.58482 0.0
H205 H 0.9193 0.53118 0.59777 0.0
H206 H 0.92358 0.45258 0.59909 0.0
H207 H 0.88206 0.35939 0.59498 0.0
H208 H 0.72032 0.2717 0.57922 0.0
H209 H 0.71438 0.34982 0.58081 0.0
C210 C 0.79265 0.44574 0.58803 0.0
C211 C 0.83742 0.49348 0.59115 0.0
C212 C 0.79508 0.4002 0.58831 0.0
C213 C 0.8843 0.49501 0.59516 0.0
C214 C 0.88681 0.45003 0.59599 0.0
C215 C 0.84538 0.35728 0.59221 0.0
C216 C 0.80164 0.30979 0.58716 0.0
C217 C 0.84257 0.40246 0.59241 0.0
C218 C 0.75454 0.30781 0.58321 0.0
C219 C 0.75116 0.3525 0.58404 0.0
H220 H 0.50526 0.86854 0.72877 0.0
H221 H 0.44238 0.71269 0.75434 0.0
H222 H 0.35679 0.70338 0.75662 0.0
H223 H 0.30072 0.74165 0.75346 0.0
H224 H 0.36478 0.89677 0.72613 0.0
H225 H 0.44871 0.90405 0.72222 0.0
C226 C 0.47276 0.83244 0.73473 0.0
C227 C 0.48014 0.79154 0.74163 0.0
C228 C 0.42382 0.82725 0.73568 0.0
C229 C 0.43763 0.74477 0.74897 0.0
C230 C 0.38874 0.73949 0.75033 0.0
C231 C 0.33297 0.77679 0.74639 0.0
C232 C 0.32646 0.81869 0.74026 0.0
C233 C 0.38145 0.78074 0.74403 0.0
C234 C 0.3686 0.86391 0.731 0.0
C235 C 0.41677 0.86824 0.72884 0.0
H236 H 0.53031 0.33971 0.94641 0.0
H237 H 0.49411 0.34563 0.86733 0.0
H238 H 0.57704 0.42344 0.8612 0.0
H239 H 0.65842 0.49223 0.879 0.0
H240 H 0.69068 0.48888 0.95894 0.0
H241 H 0.61107 0.40764 0.96405 0.0
C242 C 0.54077 0.35779 0.92777 0.0
C243 C 0.50624 0.3369 0.90733 0.0
C244 C 0.58784 0.40312 0.92458 0.0
C245 C 0.52005 0.36106 0.88337 0.0
C246 C 0.56745 0.40552 0.87986 0.0
C247 C 0.64816 0.47333 0.89744 0.0
C248 C 0.6804 0.49635 0.91855 0.0
C249 C 0.60147 0.42724 0.90041 0.0
C250 C 0.66642 0.4719 0.94242 0.0
C251 C 0.6209 0.42548 0.94536 0.0
H252 H 0.25704 0.19293 0.19765 0.0
H253 H 0.39952 0.33277 0.21027 0.0
H254 H 0.3693 0.37982 0.18407 0.0
H255 H 0.30224 0.38044 0.15691 0.0
H256 H 0.16098 0.23896 0.14439 0.0
H257 H 0.19086 0.19346 0.17132 0.0
C258 C 0.28154 0.23372 0.19473 0.0
C259 C 0.33043 0.25931 0.20585 0.0
C260 C 0.26408 0.26028 0.17967 0.0
C261 C 0.3617 0.31218 0.20185 0.0
C262 C 0.34444 0.3391 0.18691 0.0
C263 C 0.27802 0.33976 0.16024 0.0
C264 C 0.22948 0.31316 0.14866 0.0
C265 C 0.29566 0.31346 0.17565 0.0
C266 C 0.19854 0.26036 0.15302 0.0
C267 C 0.21555 0.23421 0.16841 0.0
H268 H 0.98805 0.28151 0.28129 0.0
H269 H 0.8748 0.23904 0.34088 0.0
H270 H 0.9426 0.27962 0.37274 0.0
H271 H 0.03361 0.32025 0.384 0.0
H272 H 0.14714 0.36304 0.32454 0.0
H273 H 0.07965 0.32981 0.2922 0.0
C274 C 0.97826 0.28173 0.30122 0.0
C275 C 0.92652 0.25692 0.30878 0.0
C276 C 0.01743 0.30495 0.31943 0.0
C277 C 0.91434 0.25783 0.3346 0.0
C278 C 0.95308 0.28083 0.35283 0.0
C279 C 0.04363 0.32286 0.36394 0.0
C280 C 0.09521 0.34357 0.35666 0.0
C281 C 0.00469 0.30345 0.34552 0.0
C282 C 0.10769 0.34716 0.33061 0.0
C283 C 0.06911 0.32797 0.31213 0.0
H284 H 0.77511 0.11194 0.48737 0.0
H285 H 0.66564 0.02947 0.54702 0.0
H286 H 0.62415 0.95349 0.51985 0.0
H287 H 0.62632 0.9074 0.48126 0.0
H288 H 0.7381 0.99025 0.4225 0.0
H289 H 0.77089 0.06905 0.44705 0.0
C290 C 0.74155 0.07766 0.49425 0.0
C291 C 0.72385 0.07616 0.51925 0.0
C292 C 0.7186 0.03389 0.47876 0.0
C293 C 0.68015 0.03156 0.52785 0.0
C294 C 0.65657 0.98798 0.51238 0.0
C295 C 0.65717 0.94293 0.47365 0.0
C296 C 0.68015 0.94282 0.45026 0.0
C297 C 0.67655 0.98817 0.48812 0.0
C298 C 0.72006 0.98916 0.44059 0.0
C299 C 0.73894 0.03429 0.45463 0.0
H300 H 0.76811 0.64447 0.67105 0.0
H301 H 0.68299 0.64262 0.60455 0.0
H302 H 0.63665 0.67445 0.63006 0.0
H303 H 0.62744 0.71205 0.67025 0.0
H304 H 0.71604 0.71723 0.73597 0.0
H305 H 0.75349 0.6747 0.71189 0.0
C306 C 0.7387 0.65005 0.66224 0.0
C307 C 0.72923 0.64145 0.63593 0.0
C308 C 0.71319 0.66961 0.67685 0.0
C309 C 0.6911 0.64905 0.62478 0.0
C310 C 0.66475 0.66751 0.63933 0.0
C311 C 0.65431 0.70309 0.67937 0.0
C312 C 0.66926 0.71819 0.70477 0.0
C313 C 0.67656 0.67938 0.66523 0.0
C314 C 0.70419 0.7064 0.71636 0.0
C315 C 0.72569 0.68208 0.7026 0.0
H316 H 0.89827 0.63014 0.83603 0.0
H317 H 0.98632 0.68843 0.9052 0.0
H318 H 0.06559 0.72058 0.88105 0.0
H319 H 0.11016 0.74167 0.83986 0.0
H320 H 0.02354 0.68328 0.77043 0.0
H321 H 0.94381 0.64105 0.79505 0.0
C322 C 0.9348 0.64903 0.84583 0.0
C323 C 0.93631 0.65753 0.87233 0.0
C324 C 0.98063 0.66778 0.83176 0.0
C325 C 0.98396 0.68176 0.88479 0.0
C326 C 0.02945 0.70033 0.87099 0.0
C327 C 0.07389 0.71882 0.83017 0.0
C328 C 0.07267 0.71602 0.8034 0.0
C329 C 0.02828 0.69501 0.8444 0.0
C330 C 0.02549 0.68597 0.79107 0.0
C331 C 0.97983 0.66213 0.80512 0.0
H332 H 0.29569 0.94953 0.02645 0.0
H333 H 0.13992 0.91674 0.01677 0.0
H334 H 0.169 0.99108 0.98915 0.0
H335 H 0.23809 0.06618 0.96853 0.0
H336 H 0.39457 0.10149 0.9779 0.0
H337 H 0.36591 0.02563 0.00498 0.0
C338 C 0.26821 0.95851 0.01807 0.0
C339 C 0.21574 0.92764 0.02361 0.0
C340 C 0.28531 0.00195 0.00237 0.0
C341 C 0.18052 0.9399 0.01283 0.0
C342 C 0.19709 0.98248 0.99707 0.0
C343 C 0.26604 0.05742 0.97651 0.0
C344 C 0.31836 0.08947 0.9713 0.0
C345 C 0.24933 0.01396 0.9919 0.0
C346 C 0.35403 0.07746 0.98173 0.0
C347 C 0.33765 0.03404 0.99714 0.0
H348 H 0.17185 0.30627 0.01347 0.0
H349 H 0.31909 0.41474 0.04492 0.0
H350 H 0.36211 0.39305 0.01203 0.0
H351 H 0.35831 0.33793 0.97701 0.0
H352 H 0.21254 0.229 0.94473 0.0
H353 H 0.16869 0.2566 0.97491 0.0
C354 C 0.21332 0.32561 0.01285 0.0
C355 C 0.24212 0.36163 0.03185 0.0
C356 C 0.23815 0.31269 0.99381 0.0
C357 C 0.29589 0.38653 0.03072 0.0
C358 C 0.32064 0.37415 0.0119 0.0
C359 C 0.31696 0.32068 0.97633 0.0
C360 C 0.28866 0.2812 0.95886 0.0
C361 C 0.29219 0.33644 0.99378 0.0
C362 C 0.23518 0.25955 0.95802 0.0
C363 C 0.2101 0.27511 0.97539 0.0
H364 H 0.89788 0.28333 0.19069 0.0
H365 H 0.87368 0.13202 0.17615 0.0
H366 H 0.93778 0.16595 0.14195 0.0
H367 H 0.00936 0.24085 0.12044 0.0
H368 H 0.03624 0.39212 0.13783 0.0
H369 H 0.9622 0.35608 0.16629 0.0
C370 C 0.90585 0.25753 0.17973 0.0
C371 C 0.88138 0.20531 0.18614 0.0
C372 C 0.94368 0.27751 0.16066 0.0
C373 C 0.89208 0.17243 0.17166 0.0
C374 C 0.92895 0.19188 0.15218 0.0
C375 C 0.99802 0.26564 0.12995 0.0
C376 C 0.02819 0.31905 0.12713 0.0
C377 C 0.95627 0.24466 0.14708 0.0
C378 C 0.01364 0.3509 0.1398 0.0
C379 C 0.97144 0.33034 0.15616 0.0
H380 H 0.69688 0.98221 0.27641 0.0
H381 H 0.8565 0.03845 0.29263 0.0
H382 H 0.83364 0.96591 0.32096 0.0
H383 H 0.76811 0.89486 0.34634 0.0
H384 H 0.60835 0.84158 0.3321 0.0
H385 H 0.63134 0.90371 0.29757 0.0
C386 C 0.72668 0.97782 0.28562 0.0
C387 C 0.77827 0.01596 0.28265 0.0
C388 C 0.71317 0.93676 0.30254 0.0
C389 C 0.81647 0.00983 0.29476 0.0
C390 C 0.80342 0.96844 0.31107 0.0
C391 C 0.7383 0.89591 0.33523 0.0
C392 C 0.68663 0.86405 0.34199 0.0
C393 C 0.75184 0.93286 0.31591 0.0
C394 C 0.64845 0.86592 0.32741 0.0
C395 C 0.66158 0.90167 0.30773 0.0
H396 H 0.83254 0.76074 0.53838 0.0
H397 H 0.79179 0.6203 0.49858 0.0
H398 H 0.75793 0.64724 0.46301 0.0
H399 H 0.73243 0.70745 0.44517 0.0
H400 H 0.76718 0.8438 0.48744 0.0
H401 H 0.81109 0.82205 0.51993 0.0
C402 C 0.81706 0.73636 0.52174 0.0
C403 C 0.81472 0.68861 0.52112 0.0
C404 C 0.79614 0.75128 0.50185 0.0
C405 C 0.79405 0.65727 0.49951 0.0
C406 C 0.77451 0.67259 0.47921 0.0
C407 C 0.75042 0.7327 0.46129 0.0
C408 C 0.74663 0.77715 0.46394 0.0
C409 C 0.77424 0.71901 0.48043 0.0
C410 C 0.76946 0.80928 0.48507 0.0
C411 C 0.79454 0.79685 0.50366 0.0
H412 H 0.13683 0.78811 0.67102 0.0
H413 H 0.06059 0.84365 0.7206 0.0
H414 H 0.98976 0.81411 0.69045 0.0
H415 H 0.94485 0.7633 0.65261 0.0
H416 H 0.02109 0.70836 0.60272 0.0
H417 H 0.0967 0.74732 0.63017 0.0
C418 C 0.10516 0.79461 0.67498 0.0
C419 C 0.1037 0.81749 0.69816 0.0
C420 C 0.0643 0.77717 0.65761 0.0
C421 C 0.06261 0.82601 0.70294 0.0
C422 C 0.02191 0.80885 0.68576 0.0
C423 C 0.97836 0.7606 0.64754 0.0
C424 C 0.97718 0.73248 0.62586 0.0
C425 C 0.0216 0.78295 0.66345 0.0
C426 C 0.02102 0.72972 0.61935 0.0
C427 C 0.06418 0.75177 0.63511 0.0
H428 H 0.3636 0.08504 0.868 0.0
H429 H 0.26357 0.13893 0.84116 0.0
H430 H 0.22744 0.07008 0.80933 0.0
H431 H 0.22068 0.99079 0.7911 0.0
H432 H 0.31893 0.93648 0.82032 0.0
H433 H 0.35929 0.00922 0.84919 0.0
C434 C 0.33428 0.08219 0.85502 0.0
C435 C 0.31629 0.11704 0.85696 0.0
C436 C 0.31305 0.04206 0.83729 0.0
C437 C 0.27814 0.1126 0.84003 0.0
C438 C 0.25735 0.07312 0.8219 0.0
C439 C 0.25123 0.99527 0.80364 0.0
C440 C 0.26661 0.95814 0.80363 0.0
C441 C 0.27391 0.03704 0.82065 0.0
C442 C 0.3061 0.96427 0.82005 0.0
C443 C 0.3293 0.00591 0.83658 0.0
H444 H 0.74935 0.84222 0.81067 0.0
H445 H 0.59117 0.73441 0.82769 0.0
H446 H 0.61744 0.69852 0.86244 0.0
H447 H 0.68545 0.69052 0.88422 0.0
H448 H 0.84356 0.79569 0.86563 0.0
H449 H 0.8173 0.84004 0.83552 0.0
C450 C 0.7206 0.81166 0.82236 0.0
C451 C 0.66839 0.79081 0.81648 0.0
C452 C 0.73602 0.79023 0.84186 0.0
C453 C 0.63163 0.75106 0.83176 0.0
C454 C 0.64663 0.73031 0.85155 0.0
C455 C 0.71417 0.72372 0.87393 0.0
C456 C 0.76636 0.73946 0.877 0.0
C457 C 0.69874 0.74844 0.85621 0.0
C458 C 0.80311 0.78257 0.86351 0.0
C459 C 0.78812 0.80791 0.84623 0.0
H460 H 0.87918 0.62223 0.99192 0.0
H461 H 0.88356 0.76662 0.98302 0.0
H462 H 0.94471 0.80272 0.01823 0.0
H463 H 0.00595 0.79654 0.04723 0.0
H464 H 0.00483 0.65333 0.05367 0.0
H465 H 0.93284 0.61323 0.02412 0.0
C466 C 0.89276 0.66134 0.99798 0.0
C467 C 0.8773 0.69187 0.98468 0.0
C468 C 0.9288 0.68213 0.01775 0.0
C469 C 0.89505 0.74236 0.99286 0.0
C470 C 0.93019 0.76309 0.01294 0.0
C471 C 0.98893 0.75619 0.04271 0.0
C472 C 0.01074 0.72793 0.05253 0.0
C473 C 0.94864 0.73383 0.02494 0.0
C474 C 0.98876 0.67587 0.04629 0.0
C475 C 0.94779 0.653 0.02928 0.0
H476 H 0.29352 0.93353 0.13147 0.0
H477 H 0.14228 0.86476 0.16449 0.0
H478 H 0.17559 0.92588 0.20001 0.0
H479 H 0.24702 0.00394 0.21957 0.0
H480 H 0.39641 0.07378 0.18429 0.0
H481 H 0.36466 0.00689 0.15192 0.0
C482 C 0.26781 0.93148 0.14655 0.0
C483 C 0.21545 0.89491 0.14526 0.0
C484 C 0.28698 0.96714 0.16649 0.0
C485 C 0.18276 0.89268 0.16502 0.0
C486 C 0.20178 0.9277 0.18528 0.0
C487 C 0.27265 0.00386 0.20502 0.0
C488 C 0.32392 0.04378 0.20423 0.0
C489 C 0.25371 0.96582 0.18595 0.0
C490 C 0.35672 0.04362 0.18518 0.0
C491 C 0.3386 0.00543 0.16664 0.0
H492 H 0.38343 0.25274 0.33334 0.0
H493 H 0.23669 0.13249 0.30723 0.0
H494 H 0.1933 0.15826 0.33837 0.0
H495 H 0.19701 0.22166 0.36939 0.0
H496 H 0.34393 0.3403 0.39632 0.0
H497 H 0.38716 0.30807 0.36886 0.0
C498 C 0.34199 0.23159 0.33483 0.0
C499 C 0.31332 0.19117 0.31782 0.0
C500 C 0.31727 0.24659 0.35282 0.0
C501 C 0.25968 0.16378 0.32009 0.0
C502 C 0.23479 0.17871 0.3378 0.0
C503 C 0.23844 0.23979 0.36961 0.0
C504 C 0.26719 0.28367 0.38465 0.0
C505 C 0.26315 0.22104 0.35373 0.0
C506 C 0.32085 0.30653 0.38489 0.0
C507 C 0.34567 0.28831 0.36907 0.0
H508 H 0.11117 0.26888 0.48824 0.0
H509 H 0.11211 0.4103 0.47376 0.0
H510 H 0.0408 0.385 0.5032 0.0
H511 H 0.9726 0.31924 0.52978 0.0
H512 H 0.97271 0.17914 0.54602 0.0
H513 H 0.04918 0.20742 0.51944 0.0
C514 C 0.09631 0.29447 0.4919 0.0
C515 C 0.11661 0.34113 0.47858 0.0
C516 C 0.0551 0.27972 0.50899 0.0
C517 C 0.09715 0.37407 0.48365 0.0
C518 C 0.05613 0.35955 0.50042 0.0
C519 C 0.9898 0.29523 0.52773 0.0
C520 C 0.96682 0.247 0.53954 0.0
C521 C 0.03392 0.31192 0.51265 0.0
C522 C 0.98976 0.21647 0.53705 0.0
C523 C 0.03334 0.23252 0.52177 0.0
H524 H 0.74372 0.92216 0.67637 0.0
H525 H 0.69044 0.99648 0.72841 0.0
H526 H 0.72714 0.07255 0.70098 0.0
H527 H 0.7685 0.11499 0.66016 0.0
H528 H 0.8232 0.03988 0.60924 0.0
H529 H 0.79237 0.96756 0.63833 0.0
C530 C 0.74061 0.95524 0.68184 0.0
C531 C 0.71401 0.95358 0.70421 0.0
C532 C 0.76193 0.99871 0.66609 0.0
C533 C 0.71077 0.99688 0.71124 0.0
C534 C 0.73155 0.04027 0.6955 0.0
C535 C 0.77429 0.08311 0.65566 0.0
C536 C 0.79771 0.08273 0.63241 0.0
C537 C 0.75638 0.04126 0.67259 0.0
C538 C 0.80514 0.0412 0.62691 0.0
C539 C 0.78735 0.99962 0.64351 0.0
loop_
_geom_bond_atom_site_label_1
_geom_bond_atom_site_label_2
_geom_bond_distance
_geom_bond_site_symmetry_2
_ccdc_geom_bond_type
In0 O1 2.294 . S
In0 O2 2.326 . S
In0 O6 2.266 . S
In0 O7 2.326 . S
In0 O8 2.266 . S
In0 O9 2.326 . S
In0 O11 2.294 . S
In0 O12 2.326 . S
O1 In0 2.294 . S
O1 C10 1.240 . S
O2 In0 2.326 . S
O2 C10 1.252 . S
C3 O6 1.252 . S
C3 O7 1.260 . S
C4 O11 1.240 . S
C4 O12 1.252 . S
C5 O8 1.252 . S
C5 O9 1.260 . S
O6 In0 2.266 . S
O6 C3 1.252 . S
O7 In0 2.326 . S
O7 C3 1.260 . S
O8 In0 2.266 . S
O8 C5 1.252 . S
O9 In0 2.326 . S
O9 C5 1.260 . S
C10 O1 1.240 . S
C10 O2 1.252 . S
O11 In0 2.294 . S
O11 C4 1.240 . S
O12 In0 2.326 . S
O12 C4 1.252 . S
In13 O14 2.294 . S
In13 O15 2.326 . S
In13 O19 2.266 . S
In13 O20 2.326 . S
In13 O21 2.266 . S
In13 O22 2.326 . S
In13 O24 2.294 . S
In13 O25 2.326 . S
O14 In13 2.294 . S
O14 C23 1.240 . S
O15 In13 2.326 . S
O15 C23 1.252 . S
C16 O19 1.252 . S
C16 O20 1.260 . S
C17 O24 1.240 . S
C17 O25 1.252 . S
C18 O21 1.252 . S
C18 O22 1.260 . S
O19 In13 2.266 . S
O19 C16 1.252 . S
O20 In13 2.326 . S
O20 C16 1.260 . S
O21 In13 2.266 . S
O21 C18 1.252 . S
O22 In13 2.326 . S
O22 C18 1.260 . S
C23 O14 1.240 . S
C23 O15 1.252 . S
O24 In13 2.294 . S
O24 C17 1.240 . S
O25 In13 2.326 . S
O25 C17 1.252 . S
In26 O27 2.294 . S
In26 O28 2.326 . S
In26 O32 2.266 . S
In26 O33 2.326 . S
In26 O34 2.266 . S
In26 O35 2.326 . S
In26 O37 2.294 . S
In26 O38 2.326 . S
O27 In26 2.294 . S
O27 C36 1.240 . S
O28 In26 2.326 . S
O28 C36 1.252 . S
C29 O32 1.252 . S
C29 O33 1.260 . S
C30 O37 1.240 . S
C30 O38 1.252 . S
C31 O34 1.252 . S
C31 O35 1.260 . S
O32 In26 2.266 . S
O32 C29 1.252 . S
O33 In26 2.326 . S
O33 C29 1.260 . S
O34 In26 2.266 . S
O34 C31 1.252 . S
O35 In26 2.326 . S
O35 C31 1.260 . S
C36 O27 1.240 . S
C36 O28 1.252 . S
O37 In26 2.294 . S
O37 C30 1.240 . S
O38 In26 2.326 . S
O38 C30 1.252 . S
In39 O40 2.294 . S
In39 O41 2.326 . S
In39 O45 2.266 . S
In39 O46 2.326 . S
In39 O47 2.266 . S
In39 O48 2.326 . S
In39 O50 2.294 . S
In39 O51 2.326 . S
O40 In39 2.294 . S
O40 C49 1.240 . S
O41 In39 2.326 . S
O41 C49 1.252 . S
C42 O45 1.252 . S
C42 O46 1.260 . S
C43 O50 1.240 . S
C43 O51 1.252 . S
C44 O47 1.252 . S
C44 O48 1.260 . S
O45 In39 2.266 . S
O45 C42 1.252 . S
O46 In39 2.326 . S
O46 C42 1.260 . S
O47 In39 2.266 . S
O47 C44 1.252 . S
O48 In39 2.326 . S
O48 C44 1.260 . S
C49 O40 1.240 . S
C49 O41 1.252 . S
O50 In39 2.294 . S
O50 C43 1.240 . S
O51 In39 2.326 . S
O51 C43 1.252 . S
In52 O53 2.294 . S
In52 O54 2.326 . S
In52 O58 2.266 . S
In52 O59 2.326 . S
In52 O60 2.266 . S
In52 O61 2.326 . S
In52 O63 2.294 . S
In52 O64 2.326 . S
O53 In52 2.294 . S
O53 C62 1.240 . S
O54 In52 2.326 . S
O54 C62 1.252 . S
C55 O58 1.252 . S
C55 O59 1.260 . S
C56 O63 1.240 . S
C56 O64 1.252 . S
C57 O60 1.252 . S
C57 O61 1.260 . S
O58 In52 2.266 . S
O58 C55 1.252 . S
O59 In52 2.326 . S
O59 C55 1.260 . S
O60 In52 2.266 . S
O60 C57 1.252 . S
O61 In52 2.326 . S
O61 C57 1.260 . S
C62 O53 1.240 . S
C62 O54 1.252 . S
O63 In52 2.294 . S
O63 C56 1.240 . S
O64 In52 2.326 . S
O64 C56 1.252 . S
In65 O66 2.294 . S
In65 O67 2.326 . S
In65 O71 2.266 . S
In65 O72 2.326 . S
In65 O73 2.266 . S
In65 O74 2.326 . S
In65 O76 2.294 . S
In65 O77 2.326 . S
O66 In65 2.294 . S
O66 C75 1.240 . S
O67 In65 2.326 . S
O67 C75 1.252 . S
C68 O71 1.252 . S
C68 O72 1.260 . S
C69 O76 1.240 . S
C69 O77 1.252 . S
C70 O73 1.252 . S
C70 O74 1.260 . S
O71 In65 2.266 . S
O71 C68 1.252 . S
O72 In65 2.326 . S
O72 C68 1.260 . S
O73 In65 2.266 . S
O73 C70 1.252 . S
O74 In65 2.326 . S
O74 C70 1.260 . S
C75 O66 1.240 . S
C75 O67 1.252 . S
O76 In65 2.294 . S
O76 C69 1.240 . S
O77 In65 2.326 . S
O77 C69 1.252 . S
In78 O79 2.294 . S
In78 O80 2.326 . S
In78 O84 2.266 . S
In78 O85 2.326 . S
In78 O86 2.266 . S
In78 O87 2.326 . S
In78 O89 2.294 . S
In78 O90 2.326 . S
O79 In78 2.294 . S
O79 C88 1.240 . S
O80 In78 2.326 . S
O80 C88 1.252 . S
C81 O84 1.252 . S
C81 O85 1.260 . S
C82 O89 1.240 . S
C82 O90 1.252 . S
C83 O86 1.252 . S
C83 O87 1.260 . S
O84 In78 2.266 . S
O84 C81 1.252 . S
O85 In78 2.326 . S
O85 C81 1.260 . S
O86 In78 2.266 . S
O86 C83 1.252 . S
O87 In78 2.326 . S
O87 C83 1.260 . S
C88 O79 1.240 . S
C88 O80 1.252 . S
O89 In78 2.294 . S
O89 C82 1.240 . S
O90 In78 2.326 . S
O90 C82 1.252 . S
In91 O92 2.294 . S
In91 O93 2.326 . S
In91 O97 2.266 . S
In91 O98 2.326 . S
In91 O99 2.266 . S
In91 O100 2.326 . S
In91 O102 2.294 . S
In91 O103 2.326 . S
O92 In91 2.294 . S
O92 C101 1.240 . S
O93 In91 2.326 . S
O93 C101 1.252 . S
C94 O97 1.252 . S
C94 O98 1.260 . S
C95 O102 1.240 . S
C95 O103 1.252 . S
C96 O99 1.252 . S
C96 O100 1.260 . S
O97 In91 2.266 . S
O97 C94 1.252 . S
O98 In91 2.326 . S
O98 C94 1.260 . S
O99 In91 2.266 . S
O99 C96 1.252 . S
O100 In91 2.326 . S
O100 C96 1.260 . S
C101 O92 1.240 . S
C101 O93 1.252 . S
O102 In91 2.294 . S
O102 C95 1.240 . S
O103 In91 2.326 . S
O103 C95 1.252 . S
In104 O105 2.294 . S
In104 O106 2.326 . S
In104 O110 2.266 . S
In104 O111 2.326 . S
In104 O112 2.266 . S
In104 O113 2.326 . S
In104 O115 2.294 . S
In104 O116 2.326 . S
O105 In104 2.294 . S
O105 C114 1.240 . S
O106 In104 2.326 . S
O106 C114 1.252 . S
C107 O110 1.252 . S
C107 O111 1.260 . S
C108 O115 1.240 . S
C108 O116 1.252 . S
C109 O112 1.252 . S
C109 O113 1.260 . S
O110 In104 2.266 . S
O110 C107 1.252 . S
O111 In104 2.326 . S
O111 C107 1.260 . S
O112 In104 2.266 . S
O112 C109 1.252 . S
O113 In104 2.326 . S
O113 C109 1.260 . S
C114 O105 1.240 . S
C114 O106 1.252 . S
O115 In104 2.294 . S
O115 C108 1.240 . S
O116 In104 2.326 . S
O116 C108 1.252 . S
In117 O118 2.294 . S
In117 O119 2.326 . S
In117 O123 2.266 . S
In117 O124 2.326 . S
In117 O125 2.266 . S
In117 O126 2.326 . S
In117 O128 2.294 . S
In117 O129 2.326 . S
O118 In117 2.294 . S
O118 C127 1.240 . S
O119 In117 2.326 . S
O119 C127 1.252 . S
C120 O123 1.252 . S
C120 O124 1.260 . S
C121 O128 1.240 . S
C121 O129 1.252 . S
C122 O125 1.252 . S
C122 O126 1.260 . S
O123 In117 2.266 . S
O123 C120 1.252 . S
O124 In117 2.326 . S
O124 C120 1.260 . S
O125 In117 2.266 . S
O125 C122 1.252 . S
O126 In117 2.326 . S
O126 C122 1.260 . S
C127 O118 1.240 . S
C127 O119 1.252 . S
O128 In117 2.294 . S
O128 C121 1.240 . S
O129 In117 2.326 . S
O129 C121 1.252 . S
In130 O131 2.294 . S
In130 O132 2.326 . S
In130 O136 2.266 . S
In130 O137 2.326 . S
In130 O138 2.266 . S
In130 O139 2.326 . S
In130 O141 2.294 . S
In130 O142 2.326 . S
O131 In130 2.294 . S
O131 C140 1.240 . S
O132 In130 2.326 . S
O132 C140 1.252 . S
C133 O136 1.252 . S
C133 O137 1.260 . S
C134 O141 1.240 . S
C134 O142 1.252 . S
C135 O138 1.252 . S
C135 O139 1.260 . S
O136 In130 2.266 . S
O136 C133 1.252 . S
O137 In130 2.326 . S
O137 C133 1.260 . S
O138 In130 2.266 . S
O138 C135 1.252 . S
O139 In130 2.326 . S
O139 C135 1.260 . S
C140 O131 1.240 . S
C140 O132 1.252 . S
O141 In130 2.294 . S
O141 C134 1.240 . S
O142 In130 2.326 . S
O142 C134 1.252 . S
In143 O144 2.294 . S
In143 O145 2.326 . S
In143 O149 2.266 . S
In143 O150 2.326 . S
In143 O151 2.266 . S
In143 O152 2.326 . S
In143 O154 2.294 . S
In143 O155 2.326 . S
O144 In143 2.294 . S
O144 C153 1.240 . S
O145 In143 2.326 . S
O145 C153 1.252 . S
C146 O149 1.252 . S
C146 O150 1.260 . S
C147 O154 1.240 . S
C147 O155 1.252 . S
C148 O151 1.252 . S
C148 O152 1.260 . S
O149 In143 2.266 . S
O149 C146 1.252 . S
O150 In143 2.326 . S
O150 C146 1.260 . S
O151 In143 2.266 . S
O151 C148 1.252 . S
O152 In143 2.326 . S
O152 C148 1.260 . S
C153 O144 1.240 . S
C153 O145 1.252 . S
O154 In143 2.294 . S
O154 C147 1.240 . S
O155 In143 2.326 . S
O155 C147 1.252 . S
H156 C162 0.930 . S
H157 C165 0.930 . S
H158 C166 0.930 . S
H159 C167 0.930 . S
H160 C170 0.930 . S
H161 C171 0.930 . S
C162 H156 0.930 . S
C162 C163 1.355 . S
C162 C164 1.415 . S
C163 C162 1.355 . S
C163 C165 1.419 . S
C164 C162 1.415 . S
C164 C169 1.425 . S
C164 C171 1.409 . S
C165 H157 0.930 . S
C165 C163 1.419 . S
C165 C166 1.362 . S
C166 H158 0.930 . S
C166 C165 1.362 . S
C166 C169 1.409 . S
C167 H159 0.930 . S
C167 C168 1.355 . S
C167 C169 1.415 . S
C168 C167 1.355 . S
C168 C170 1.419 . S
C169 C164 1.425 . S
C169 C166 1.409 . S
C169 C167 1.415 . S
C170 H160 0.930 . S
C170 C168 1.419 . S
C170 C171 1.362 . S
C171 H161 0.930 . S
C171 C164 1.409 . S
C171 C170 1.362 . S
H172 C178 0.930 . S
H173 C181 0.930 . S
H174 C182 0.930 . S
H175 C183 0.930 . S
H176 C186 0.930 . S
H177 C187 0.930 . S
C178 H172 0.930 . S
C178 C179 1.355 . S
C178 C180 1.415 . S
C179 C178 1.355 . S
C179 C181 1.419 . S
C180 C178 1.415 . S
C180 C185 1.425 . S
C180 C187 1.409 . S
C181 H173 0.930 . S
C181 C179 1.419 . S
C181 C182 1.362 . S
C182 H174 0.930 . S
C182 C181 1.362 . S
C182 C185 1.409 . S
C183 H175 0.930 . S
C183 C184 1.355 . S
C183 C185 1.415 . S
C184 C183 1.355 . S
C184 C186 1.419 . S
C185 C180 1.425 . S
C185 C182 1.409 . S
C185 C183 1.415 . S
C186 H176 0.930 . S
C186 C184 1.419 . S
C186 C187 1.362 . S
C187 H177 0.930 . S
C187 C180 1.409 . S
C187 C186 1.362 . S
H188 C194 0.930 . S
H189 C197 0.930 . S
H190 C198 0.930 . S
H191 C199 0.930 . S
H192 C202 0.930 . S
H193 C203 0.930 . S
C194 H188 0.930 . S
C194 C195 1.355 . S
C194 C196 1.415 . S
C195 C194 1.355 . S
C195 C197 1.419 . S
C196 C194 1.415 . S
C196 C201 1.425 . S
C196 C203 1.409 . S
C197 H189 0.930 . S
C197 C195 1.419 . S
C197 C198 1.362 . S
C198 H190 0.930 . S
C198 C197 1.362 . S
C198 C201 1.409 . S
C199 H191 0.930 . S
C199 C200 1.355 . S
C199 C201 1.415 . S
C200 C199 1.355 . S
C200 C202 1.419 . S
C201 C196 1.425 . S
C201 C198 1.409 . S
C201 C199 1.415 . S
C202 H192 0.930 . S
C202 C200 1.419 . S
C202 C203 1.362 . S
C203 H193 0.930 . S
C203 C196 1.409 . S
C203 C202 1.362 . S
H204 C210 0.930 . S
H205 C213 0.930 . S
H206 C214 0.930 . S
H207 C215 0.930 . S
H208 C218 0.930 . S
H209 C219 0.930 . S
C210 H204 0.930 . S
C210 C211 1.355 . S
C210 C212 1.415 . S
C211 C210 1.355 . S
C211 C213 1.419 . S
C212 C210 1.415 . S
C212 C217 1.425 . S
C212 C219 1.409 . S
C213 H205 0.930 . S
C213 C211 1.419 . S
C213 C214 1.362 . S
C214 H206 0.930 . S
C214 C213 1.362 . S
C214 C217 1.409 . S
C215 H207 0.930 . S
C215 C216 1.355 . S
C215 C217 1.415 . S
C216 C215 1.355 . S
C216 C218 1.419 . S
C217 C212 1.425 . S
C217 C214 1.409 . S
C217 C215 1.415 . S
C218 H208 0.930 . S
C218 C216 1.419 . S
C218 C219 1.362 . S
C219 H209 0.930 . S
C219 C212 1.409 . S
C219 C218 1.362 . S
H220 C226 0.930 . S
H221 C229 0.930 . S
H222 C230 0.930 . S
H223 C231 0.930 . S
H224 C234 0.930 . S
H225 C235 0.930 . S
C226 H220 0.930 . S
C226 C227 1.355 . S
C226 C228 1.415 . S
C227 C226 1.355 . S
C227 C229 1.419 . S
C228 C226 1.415 . S
C228 C233 1.425 . S
C228 C235 1.409 . S
C229 H221 0.930 . S
C229 C227 1.419 . S
C229 C230 1.362 . S
C230 H222 0.930 . S
C230 C229 1.362 . S
C230 C233 1.409 . S
C231 H223 0.930 . S
C231 C232 1.355 . S
C231 C233 1.415 . S
C232 C231 1.355 . S
C232 C234 1.419 . S
C233 C228 1.425 . S
C233 C230 1.409 . S
C233 C231 1.415 . S
C234 H224 0.930 . S
C234 C232 1.419 . S
C234 C235 1.362 . S
C235 H225 0.930 . S
C235 C228 1.409 . S
C235 C234 1.362 . S
H236 C242 0.930 . S
H237 C245 0.930 . S
H238 C246 0.930 . S
H239 C247 0.930 . S
H240 C250 0.930 . S
H241 C251 0.930 . S
C242 H236 0.930 . S
C242 C243 1.355 . S
C242 C244 1.415 . S
C243 C242 1.355 . S
C243 C245 1.419 . S
C244 C242 1.415 . S
C244 C249 1.425 . S
C244 C251 1.409 . S
C245 H237 0.930 . S
C245 C243 1.419 . S
C245 C246 1.362 . S
C246 H238 0.930 . S
C246 C245 1.362 . S
C246 C249 1.409 . S
C247 H239 0.930 . S
C247 C248 1.355 . S
C247 C249 1.415 . S
C248 C247 1.355 . S
C248 C250 1.419 . S
C249 C244 1.425 . S
C249 C246 1.409 . S
C249 C247 1.415 . S
C250 H240 0.930 . S
C250 C248 1.419 . S
C250 C251 1.362 . S
C251 H241 0.930 . S
C251 C244 1.409 . S
C251 C250 1.362 . S
H252 C258 0.930 . S
H253 C261 0.930 . S
H254 C262 0.930 . S
H255 C263 0.930 . S
H256 C266 0.930 . S
H257 C267 0.930 . S
C258 H252 0.930 . S
C258 C259 1.355 . S
C258 C260 1.415 . S
C259 C258 1.355 . S
C259 C261 1.419 . S
C260 C258 1.415 . S
C260 C265 1.425 . S
C260 C267 1.409 . S
C261 H253 0.930 . S
C261 C259 1.419 . S
C261 C262 1.362 . S
C262 H254 0.930 . S
C262 C261 1.362 . S
C262 C265 1.409 . S
C263 H255 0.930 . S
C263 C264 1.355 . S
C263 C265 1.415 . S
C264 C263 1.355 . S
C264 C266 1.419 . S
C265 C260 1.425 . S
C265 C262 1.409 . S
C265 C263 1.415 . S
C266 H256 0.930 . S
C266 C264 1.419 . S
C266 C267 1.362 . S
C267 H257 0.930 . S
C267 C260 1.409 . S
C267 C266 1.362 . S
H268 C274 0.930 . S
H269 C277 0.930 . S
H270 C278 0.930 . S
H271 C279 0.930 . S
H272 C282 0.930 . S
H273 C283 0.930 . S
C274 H268 0.930 . S
C274 C275 1.355 . S
C274 C276 1.415 1_655 S
C275 C274 1.355 . S
C275 C277 1.419 . S
C276 C274 1.415 1_455 S
C276 C281 1.425 1_455 S
C276 C283 1.409 . S
C277 H269 0.930 . S
C277 C275 1.419 . S
C277 C278 1.362 . S
C278 H270 0.930 . S
C278 C277 1.362 . S
C278 C281 1.409 . S
C279 H271 0.930 . S
C279 C280 1.355 . S
C279 C281 1.415 1_455 S
C280 C279 1.355 . S
C280 C282 1.419 . S
C281 C276 1.425 1_655 S
C281 C278 1.409 . S
C281 C279 1.415 1_655 S
C282 H272 0.930 . S
C282 C280 1.419 . S
C282 C283 1.362 . S
C283 H273 0.930 . S
C283 C276 1.409 . S
C283 C282 1.362 . S
H284 C290 0.930 . S
H285 C293 0.930 . S
H286 C294 0.930 . S
H287 C295 0.930 . S
H288 C298 0.930 . S
H289 C299 0.930 . S
C290 H284 0.930 . S
C290 C291 1.355 . S
C290 C292 1.415 . S
C291 C290 1.355 . S
C291 C293 1.419 . S
C292 C290 1.415 . S
C292 C297 1.425 1_545 S
C292 C299 1.409 . S
C293 H285 0.930 . S
C293 C291 1.419 . S
C293 C294 1.362 1_545 S
C294 H286 0.930 . S
C294 C293 1.362 1_565 S
C294 C297 1.409 . S
C295 H287 0.930 . S
C295 C296 1.355 . S
C295 C297 1.415 . S
C296 C295 1.355 . S
C296 C298 1.419 . S
C297 C292 1.425 1_565 S
C297 C294 1.409 . S
C297 C295 1.415 . S
C298 H288 0.930 . S
C298 C296 1.419 . S
C298 C299 1.362 1_565 S
C299 H289 0.930 . S
C299 C292 1.409 . S
C299 C298 1.362 1_545 S
H300 C306 0.930 . S
H301 C309 0.930 . S
H302 C310 0.930 . S
H303 C311 0.930 . S
H304 C314 0.930 . S
H305 C315 0.930 . S
C306 H300 0.930 . S
C306 C307 1.355 . S
C306 C308 1.415 . S
C307 C306 1.355 . S
C307 C309 1.419 . S
C308 C306 1.415 . S
C308 C313 1.425 . S
C308 C315 1.409 . S
C309 H301 0.930 . S
C309 C307 1.419 . S
C309 C310 1.362 . S
C310 H302 0.930 . S
C310 C309 1.362 . S
C310 C313 1.409 . S
C311 H303 0.930 . S
C311 C312 1.355 . S
C311 C313 1.415 . S
C312 C311 1.355 . S
C312 C314 1.419 . S
C313 C308 1.425 . S
C313 C310 1.409 . S
C313 C311 1.415 . S
C314 H304 0.930 . S
C314 C312 1.419 . S
C314 C315 1.362 . S
C315 H305 0.930 . S
C315 C308 1.409 . S
C315 C314 1.362 . S
H316 C322 0.930 . S
H317 C325 0.930 . S
H318 C326 0.930 . S
H319 C327 0.930 . S
H320 C330 0.930 . S
H321 C331 0.930 . S
C322 H316 0.930 . S
C322 C323 1.355 . S
C322 C324 1.415 . S
C323 C322 1.355 . S
C323 C325 1.419 . S
C324 C322 1.415 . S
C324 C329 1.425 1_655 S
C324 C331 1.409 . S
C325 H317 0.930 . S
C325 C323 1.419 . S
C325 C326 1.362 1_655 S
C326 H318 0.930 . S
C326 C325 1.362 1_455 S
C326 C329 1.409 . S
C327 H319 0.930 . S
C327 C328 1.355 . S
C327 C329 1.415 . S
C328 C327 1.355 . S
C328 C330 1.419 . S
C329 C324 1.425 1_455 S
C329 C326 1.409 . S
C329 C327 1.415 . S
C330 H320 0.930 . S
C330 C328 1.419 . S
C330 C331 1.362 1_455 S
C331 H321 0.930 . S
C331 C324 1.409 . S
C331 C330 1.362 1_655 S
H332 C338 0.930 . S
H333 C341 0.930 . S
H334 C342 0.930 1_545 S
H335 C343 0.930 . S
H336 C346 0.930 . S
H337 C347 0.930 1_565 S
C338 H332 0.930 . S
C338 C339 1.355 . S
C338 C340 1.415 1_554 S
C339 C338 1.355 . S
C339 C341 1.419 . S
C340 C338 1.415 1_556 S
C340 C345 1.425 1_566 S
C340 C347 1.409 1_565 S
C341 H333 0.930 . S
C341 C339 1.419 . S
C341 C342 1.362 . S
C342 H334 0.930 1_565 S
C342 C341 1.362 . S
C342 C345 1.409 1_565 S
C343 H335 0.930 . S
C343 C344 1.355 . S
C343 C345 1.415 1_556 S
C344 C343 1.355 . S
C344 C346 1.419 . S
C345 C340 1.425 1_544 S
C345 C342 1.409 1_545 S
C345 C343 1.415 1_554 S
C346 H336 0.930 . S
C346 C344 1.419 . S
C346 C347 1.362 . S
C347 H337 0.930 1_545 S
C347 C340 1.409 1_545 S
C347 C346 1.362 . S
H348 C354 0.930 . S
H349 C357 0.930 . S
H350 C358 0.930 . S
H351 C359 0.930 . S
H352 C362 0.930 . S
H353 C363 0.930 . S
C354 H348 0.930 . S
C354 C355 1.355 . S
C354 C356 1.415 . S
C355 C354 1.355 . S
C355 C357 1.419 . S
C356 C354 1.415 . S
C356 C361 1.425 . S
C356 C363 1.409 . S
C357 H349 0.930 . S
C357 C355 1.419 . S
C357 C358 1.362 . S
C358 H350 0.930 . S
C358 C357 1.362 . S
C358 C361 1.409 . S
C359 H351 0.930 . S
C359 C360 1.355 . S
C359 C361 1.415 1_556 S
C360 C359 1.355 . S
C360 C362 1.419 . S
C361 C356 1.425 . S
C361 C358 1.409 . S
C361 C359 1.415 1_554 S
C362 H352 0.930 . S
C362 C360 1.419 . S
C362 C363 1.362 1_556 S
C363 H353 0.930 . S
C363 C356 1.409 . S
C363 C362 1.362 1_554 S
H364 C370 0.930 . S
H365 C373 0.930 . S
H366 C374 0.930 . S
H367 C375 0.930 . S
H368 C378 0.930 . S
H369 C379 0.930 . S
C370 H364 0.930 . S
C370 C371 1.355 . S
C370 C372 1.415 . S
C371 C370 1.355 . S
C371 C373 1.419 . S
C372 C370 1.415 . S
C372 C377 1.425 . S
C372 C379 1.409 1_655 S
C373 H365 0.930 . S
C373 C371 1.419 . S
C373 C374 1.362 . S
C374 H366 0.930 . S
C374 C373 1.362 . S
C374 C377 1.409 . S
C375 H367 0.930 . S
C375 C376 1.355 1_655 S
C375 C377 1.415 . S
C376 C375 1.355 1_455 S
C376 C378 1.419 . S
C377 C372 1.425 . S
C377 C374 1.409 . S
C377 C375 1.415 . S
C378 H368 0.930 . S
C378 C376 1.419 . S
C378 C379 1.362 . S
C379 H369 0.930 . S
C379 C372 1.409 1_455 S
C379 C378 1.362 . S
H380 C386 0.930 1_565 S
H381 C389 0.930 . S
H382 C390 0.930 . S
H383 C391 0.930 . S
H384 C394 0.930 . S
H385 C395 0.930 . S
C386 H380 0.930 1_545 S
C386 C387 1.355 . S
C386 C388 1.415 1_545 S
C387 C386 1.355 . S
C387 C389 1.419 . S
C388 C386 1.415 1_565 S
C388 C393 1.425 . S
C388 C395 1.409 . S
C389 H381 0.930 . S
C389 C387 1.419 . S
C389 C390 1.362 . S
C390 H382 0.930 . S
C390 C389 1.362 . S
C390 C393 1.409 1_545 S
C391 H383 0.930 . S
C391 C392 1.355 . S
C391 C393 1.415 . S
C392 C391 1.355 . S
C392 C394 1.419 . S
C393 C388 1.425 . S
C393 C390 1.409 1_565 S
C393 C391 1.415 . S
C394 H384 0.930 . S
C394 C392 1.419 . S
C394 C395 1.362 . S
C395 H385 0.930 . S
C395 C388 1.409 . S
C395 C394 1.362 . S
H396 C402 0.930 . S
H397 C405 0.930 . S
H398 C406 0.930 . S
H399 C407 0.930 . S
H400 C410 0.930 . S
H401 C411 0.930 . S
C402 H396 0.930 . S
C402 C403 1.355 . S
C402 C404 1.415 . S
C403 C402 1.355 . S
C403 C405 1.419 . S
C404 C402 1.415 . S
C404 C409 1.425 . S
C404 C411 1.409 . S
C405 H397 0.930 . S
C405 C403 1.419 . S
C405 C406 1.362 . S
C406 H398 0.930 . S
C406 C405 1.362 . S
C406 C409 1.409 . S
C407 H399 0.930 . S
C407 C408 1.355 . S
C407 C409 1.415 . S
C408 C407 1.355 . S
C408 C410 1.419 . S
C409 C404 1.425 . S
C409 C406 1.409 . S
C409 C407 1.415 . S
C410 H400 0.930 . S
C410 C408 1.419 . S
C410 C411 1.362 . S
C411 H401 0.930 . S
C411 C404 1.409 . S
C411 C410 1.362 . S
H412 C418 0.930 . S
H413 C421 0.930 . S
H414 C422 0.930 1_655 S
H415 C423 0.930 . S
H416 C426 0.930 . S
H417 C427 0.930 . S
C418 H412 0.930 . S
C418 C419 1.355 . S
C418 C420 1.415 . S
C419 C418 1.355 . S
C419 C421 1.419 . S
C420 C418 1.415 . S
C420 C425 1.425 . S
C420 C427 1.409 . S
C421 H413 0.930 . S
C421 C419 1.419 . S
C421 C422 1.362 . S
C422 H414 0.930 1_455 S
C422 C421 1.362 . S
C422 C425 1.409 . S
C423 H415 0.930 . S
C423 C424 1.355 . S
C423 C425 1.415 1_655 S
C424 C423 1.355 . S
C424 C426 1.419 1_655 S
C425 C420 1.425 . S
C425 C422 1.409 . S
C425 C423 1.415 1_455 S
C426 H416 0.930 . S
C426 C424 1.419 1_455 S
C426 C427 1.362 . S
C427 H417 0.930 . S
C427 C420 1.409 . S
C427 C426 1.362 . S
H428 C434 0.930 . S
H429 C437 0.930 . S
H430 C438 0.930 . S
H431 C439 0.930 . S
H432 C442 0.930 . S
H433 C443 0.930 . S
C434 H428 0.930 . S
C434 C435 1.355 . S
C434 C436 1.415 . S
C435 C434 1.355 . S
C435 C437 1.419 . S
C436 C434 1.415 . S
C436 C441 1.425 . S
C436 C443 1.409 1_545 S
C437 H429 0.930 . S
C437 C435 1.419 . S
C437 C438 1.362 . S
C438 H430 0.930 . S
C438 C437 1.362 . S
C438 C441 1.409 . S
C439 H431 0.930 . S
C439 C440 1.355 1_545 S
C439 C441 1.415 . S
C440 C439 1.355 1_565 S
C440 C442 1.419 . S
C441 C436 1.425 . S
C441 C438 1.409 . S
C441 C439 1.415 . S
C442 H432 0.930 . S
C442 C440 1.419 . S
C442 C443 1.362 . S
C443 H433 0.930 . S
C443 C436 1.409 1_565 S
C443 C442 1.362 . S
H444 C450 0.930 . S
H445 C453 0.930 . S
H446 C454 0.930 . S
H447 C455 0.930 . S
H448 C458 0.930 . S
H449 C459 0.930 . S
C450 H444 0.930 . S
C450 C451 1.355 . S
C450 C452 1.415 . S
C451 C450 1.355 . S
C451 C453 1.419 . S
C452 C450 1.415 . S
C452 C457 1.425 . S
C452 C459 1.409 . S
C453 H445 0.930 . S
C453 C451 1.419 . S
C453 C454 1.362 . S
C454 H446 0.930 . S
C454 C453 1.362 . S
C454 C457 1.409 . S
C455 H447 0.930 . S
C455 C456 1.355 . S
C455 C457 1.415 . S
C456 C455 1.355 . S
C456 C458 1.419 . S
C457 C452 1.425 . S
C457 C454 1.409 . S
C457 C455 1.415 . S
C458 H448 0.930 . S
C458 C456 1.419 . S
C458 C459 1.362 . S
C459 H449 0.930 . S
C459 C452 1.409 . S
C459 C458 1.362 . S
H460 C466 0.930 . S
H461 C469 0.930 . S
H462 C470 0.944 . S
H463 C471 0.930 . S
H464 C474 0.930 . S
H465 C475 0.930 . S
C466 H460 0.930 . S
C466 C467 1.355 . S
C466 C468 1.415 . S
C467 C466 1.355 . S
C467 C469 1.419 . S
C468 C466 1.415 . S
C468 C473 1.415 1_556 S
C468 C475 1.409 1_655 S
C469 H461 0.930 . S
C469 C467 1.419 . S
C469 C470 1.349 1_556 S
C470 H462 0.944 . S
C470 C469 1.349 1_554 S
C470 C473 1.409 . S
C471 H463 0.930 . S
C471 C472 1.355 . S
C471 C473 1.424 1_455 S
C472 C471 1.355 . S
C472 C474 1.391 1_554 S
C473 C468 1.415 1_554 S
C473 C470 1.409 . S
C473 C471 1.424 1_655 S
C474 H464 0.930 . S
C474 C472 1.391 1_556 S
C474 C475 1.391 . S
C475 H465 0.930 . S
C475 C468 1.409 1_455 S
C475 C474 1.391 . S
H476 C482 0.930 . S
H477 C485 0.930 . S
H478 C486 0.930 . S
H479 C487 0.930 . S
H480 C490 0.930 . S
H481 C491 0.930 . S
C482 H476 0.930 . S
C482 C483 1.355 . S
C482 C484 1.415 . S
C483 C482 1.355 . S
C483 C485 1.419 . S
C484 C482 1.415 . S
C484 C489 1.425 . S
C484 C491 1.409 1_565 S
C485 H477 0.930 . S
C485 C483 1.419 . S
C485 C486 1.362 . S
C486 H478 0.930 . S
C486 C485 1.362 . S
C486 C489 1.409 . S
C487 H479 0.930 . S
C487 C488 1.355 . S
C487 C489 1.415 1_545 S
C488 C487 1.355 . S
C488 C490 1.419 . S
C489 C484 1.425 . S
C489 C486 1.409 . S
C489 C487 1.415 1_565 S
C490 H480 0.930 . S
C490 C488 1.419 . S
C490 C491 1.362 . S
C491 H481 0.930 . S
C491 C484 1.409 1_545 S
C491 C490 1.362 . S
H492 C498 0.930 . S
H493 C501 0.930 . S
H494 C502 0.930 . S
H495 C503 0.930 . S
H496 C506 0.930 . S
H497 C507 0.930 . S
C498 H492 0.930 . S
C498 C499 1.355 . S
C498 C500 1.415 . S
C499 C498 1.355 . S
C499 C501 1.419 . S
C500 C498 1.415 . S
C500 C505 1.425 . S
C500 C507 1.409 . S
C501 H493 0.930 . S
C501 C499 1.419 . S
C501 C502 1.362 . S
C502 H494 0.930 . S
C502 C501 1.362 . S
C502 C505 1.409 . S
C503 H495 0.930 . S
C503 C504 1.355 . S
C503 C505 1.415 . S
C504 C503 1.355 . S
C504 C506 1.419 . S
C505 C500 1.425 . S
C505 C502 1.409 . S
C505 C503 1.415 . S
C506 H496 0.930 . S
C506 C504 1.419 . S
C506 C507 1.362 . S
C507 H497 0.930 . S
C507 C500 1.409 . S
C507 C506 1.362 . S
H508 C514 0.930 . S
H509 C517 0.930 . S
H510 C518 0.930 1_655 S
H511 C519 0.930 . S
H512 C522 0.930 . S
H513 C523 0.930 . S
C514 H508 0.930 . S
C514 C515 1.355 . S
C514 C516 1.415 . S
C515 C514 1.355 . S
C515 C517 1.419 . S
C516 C514 1.415 . S
C516 C521 1.425 . S
C516 C523 1.409 . S
C517 H509 0.930 . S
C517 C515 1.419 . S
C517 C518 1.362 . S
C518 H510 0.930 1_455 S
C518 C517 1.362 . S
C518 C521 1.409 . S
C519 H511 0.930 . S
C519 C520 1.355 . S
C519 C521 1.415 1_655 S
C520 C519 1.355 . S
C520 C522 1.419 . S
C521 C516 1.425 . S
C521 C518 1.409 . S
C521 C519 1.415 1_455 S
C522 H512 0.930 . S
C522 C520 1.419 . S
C522 C523 1.362 1_655 S
C523 H513 0.930 . S
C523 C516 1.409 . S
C523 C522 1.362 1_455 S
H524 C530 0.930 . S
H525 C533 0.930 . S
H526 C534 0.930 . S
H527 C535 0.930 . S
H528 C538 0.930 . S
H529 C539 0.930 1_565 S
C530 H524 0.930 . S
C530 C531 1.355 . S
C530 C532 1.415 1_565 S
C531 C530 1.355 . S
C531 C533 1.419 1_565 S
C532 C530 1.415 1_545 S
C532 C537 1.425 . S
C532 C539 1.409 . S
C533 H525 0.930 . S
C533 C531 1.419 1_545 S
C533 C534 1.362 . S
C534 H526 0.930 . S
C534 C533 1.362 . S
C534 C537 1.409 . S
C535 H527 0.930 . S
C535 C536 1.355 . S
C535 C537 1.415 . S
C536 C535 1.355 . S
C536 C538 1.419 . S
C537 C532 1.425 . S
C537 C534 1.409 . S
C537 C535 1.415 . S
C538 H528 0.930 . S
C538 C536 1.419 . S
C538 C539 1.362 . S
C539 H529 0.930 1_545 S
C539 C532 1.409 . S
C539 C538 1.362 . S
C163 C108 1.261 . S
C168 C4 1.258 . S
C179 C17 1.264 . S
C184 C127 1.258 . S
C195 C30 1.258 . S
C200 C140 1.265 . S
C211 C49 1.259 . S
C216 C153 1.268 . S
C227 C88 1.268 . S
C232 C56 1.259 . S
C243 C69 1.278 . S
C248 C95 1.276 . S
C259 C120 1.080 . S
C264 C5 1.062 . S
C275 C18 1.055 . S
C280 C133 1.085 . S
C291 C146 1.077 . S
C296 C31 1.053 . S
C307 C42 1.085 . S
C312 C81 1.049 . S
C323 C96 1.066 . S
C328 C57 1.063 . S
C339 C109 1.054 . S
C344 C70 1.075 . S
C355 C3 1.572 . S
C360 C75 1.577 . S
C371 C16 1.595 . S
C376 C10 1.574 . S
C387 C23 1.573 . S
C392 C29 1.594 . S
C403 C44 1.596 . S
C408 C36 1.574 . S
C419 C55 1.575 . S
C424 C43 1.605 . S
C435 C68 1.593 . S
C440 C62 1.573 . S
C451 C83 1.583 . S
C456 C101 1.572 . S
C467 C94 1.602 . S
C472 C114 1.586 . S
C483 C107 1.601 . S
C488 C121 1.589 . S
C499 C122 1.582 . S
C504 C134 1.604 . S
C515 C135 1.562 . S
C520 C147 1.597 . S
C531 C82 1.595 . S
C536 C148 1.562 . S
