# Generated by pormake.
# Topology ana, (4)-cn, num edge types: 1
# Building blocks:
#     Node 0, Type 0, BuildingBlock: CEKHIL_clean_sbu_0, # of connection points: 4
#     Node 1, Type 0, BuildingBlock: CEKHIL_clean_sbu_0, # of connection points: 4
#     Node 2, Type 0, BuildingBlock: CEKHIL_clean_sbu_0, # of connection points: 4
#     Node 3, Type 0, BuildingBlock: CEKHIL_clean_sbu_0, # of connection points: 4
#     Node 4, Type 0, BuildingBlock: CEKHIL_clean_sbu_0, # of connection points: 4
#     Node 5, Type 0, BuildingBlock: CEKHIL_clean_sbu_0, # of connection points: 4
#     Node 6, Type 0, BuildingBlock: CEKHIL_clean_sbu_0, # of connection points: 4
#     Node 7, Type 0, BuildingBlock: CEKHIL_clean_sbu_0, # of connection points: 4
#     Node 8, Type 0, BuildingBlock: CEKHIL_clean_sbu_0, # of connection points: 4
#     Node 9, Type 0, BuildingBlock: CEKHIL_clean_sbu_0, # of connection points: 4
#     Node 10, Type 0, BuildingBlock: CEKHIL_clean_sbu_0, # of connection points: 4
#     Node 11, Type 0, BuildingBlock: CEKHIL_clean_sbu_0, # of connection points: 4
#     Node 12, Type 0, BuildingBlock: CEKHIL_clean_sbu_0, # of connection points: 4
#     Node 13, Type 0, BuildingBlock: CEKHIL_clean_sbu_0, # of connection points: 4
#     Node 14, Type 0, BuildingBlock: CEKHIL_clean_sbu_0, # of connection points: 4
#     Node 15, Type 0, BuildingBlock: CEKHIL_clean_sbu_0, # of connection points: 4
#     Node 16, Type 0, BuildingBlock: CEKHIL_clean_sbu_0, # of connection points: 4
#     Node 17, Type 0, BuildingBlock: CEKHIL_clean_sbu_0, # of connection points: 4
#     Node 18, Type 0, BuildingBlock: CEKHIL_clean_sbu_0, # of connection points: 4
#     Node 19, Type 0, BuildingBlock: CEKHIL_clean_sbu_0, # of connection points: 4
#     Node 20, Type 0, BuildingBlock: CEKHIL_clean_sbu_0, # of connection points: 4
#     Node 21, Type 0, BuildingBlock: CEKHIL_clean_sbu_0, # of connection points: 4
#     Node 22, Type 0, BuildingBlock: CEKHIL_clean_sbu_0, # of connection points: 4
#     Node 23, Type 0, BuildingBlock: CEKHIL_clean_sbu_0, # of connection points: 4
#     Node 24, Type 0, BuildingBlock: CEKHIL_clean_sbu_0, # of connection points: 4
#     Node 25, Type 0, BuildingBlock: CEKHIL_clean_sbu_0, # of connection points: 4
#     Node 26, Type 0, BuildingBlock: CEKHIL_clean_sbu_0, # of connection points: 4
#     Node 27, Type 0, BuildingBlock: CEKHIL_clean_sbu_0, # of connection points: 4
#     Node 28, Type 0, BuildingBlock: CEKHIL_clean_sbu_0, # of connection points: 4
#     Node 29, Type 0, BuildingBlock: CEKHIL_clean_sbu_0, # of connection points: 4
#     Node 30, Type 0, BuildingBlock: CEKHIL_clean_sbu_0, # of connection points: 4
#     Node 31, Type 0, BuildingBlock: CEKHIL_clean_sbu_0, # of connection points: 4
#     Node 32, Type 0, BuildingBlock: CEKHIL_clean_sbu_0, # of connection points: 4
#     Node 33, Type 0, BuildingBlock: CEKHIL_clean_sbu_0, # of connection points: 4
#     Node 34, Type 0, BuildingBlock: CEKHIL_clean_sbu_0, # of connection points: 4
#     Node 35, Type 0, BuildingBlock: CEKHIL_clean_sbu_0, # of connection points: 4
#     Node 36, Type 0, BuildingBlock: CEKHIL_clean_sbu_0, # of connection points: 4
#     Node 37, Type 0, BuildingBlock: CEKHIL_clean_sbu_0, # of connection points: 4
#     Node 38, Type 0, BuildingBlock: CEKHIL_clean_sbu_0, # of connection points: 4
#     Node 39, Type 0, BuildingBlock: CEKHIL_clean_sbu_0, # of connection points: 4
#     Node 40, Type 0, BuildingBlock: CEKHIL_clean_sbu_0, # of connection points: 4
#     Node 41, Type 0, BuildingBlock: CEKHIL_clean_sbu_0, # of connection points: 4
#     Node 42, Type 0, BuildingBlock: CEKHIL_clean_sbu_0, # of connection points: 4
#     Node 43, Type 0, BuildingBlock: CEKHIL_clean_sbu_0, # of connection points: 4
#     Node 44, Type 0, BuildingBlock: CEKHIL_clean_sbu_0, # of connection points: 4
#     Node 45, Type 0, BuildingBlock: CEKHIL_clean_sbu_0, # of connection points: 4
#     Node 46, Type 0, BuildingBlock: CEKHIL_clean_sbu_0, # of connection points: 4
#     Node 47, Type 0, BuildingBlock: CEKHIL_clean_sbu_0, # of connection points: 4
#     Edge 48, Type (0, 0), BuildingBlock: TEMPAE_clean_linker_10, # of connection points: 2
#     Edge 49, Type (0, 0), BuildingBlock: TEMPAE_clean_linker_10, # of connection points: 2
#     Edge 50, Type (0, 0), BuildingBlock: TEMPAE_clean_linker_10, # of connection points: 2
#     Edge 51, Type (0, 0), BuildingBlock: TEMPAE_clean_linker_10, # of connection points: 2
#     Edge 52, Type (0, 0), BuildingBlock: TEMPAE_clean_linker_10, # of connection points: 2
#     Edge 53, Type (0, 0), BuildingBlock: TEMPAE_clean_linker_10, # of connection points: 2
#     Edge 54, Type (0, 0), BuildingBlock: TEMPAE_clean_linker_10, # of connection points: 2
#     Edge 55, Type (0, 0), BuildingBlock: TEMPAE_clean_linker_10, # of connection points: 2
#     Edge 56, Type (0, 0), BuildingBlock: TEMPAE_clean_linker_10, # of connection points: 2
#     Edge 57, Type (0, 0), BuildingBlock: TEMPAE_clean_linker_10, # of connection points: 2
#     Edge 58, Type (0, 0), BuildingBlock: TEMPAE_clean_linker_10, # of connection points: 2
#     Edge 59, Type (0, 0), BuildingBlock: TEMPAE_clean_linker_10, # of connection points: 2
#     Edge 60, Type (0, 0), BuildingBlock: TEMPAE_clean_linker_10, # of connection points: 2
#     Edge 61, Type (0, 0), BuildingBlock: TEMPAE_clean_linker_10, # of connection points: 2
#     Edge 62, Type (0, 0), BuildingBlock: TEMPAE_clean_linker_10, # of connection points: 2
#     Edge 63, Type (0, 0), BuildingBlock: TEMPAE_clean_linker_10, # of connection points: 2
#     Edge 64, Type (0, 0), BuildingBlock: TEMPAE_clean_linker_10, # of connection points: 2
#     Edge 65, Type (0, 0), BuildingBlock: TEMPAE_clean_linker_10, # of connection points: 2
#     Edge 66, Type (0, 0), BuildingBlock: TEMPAE_clean_linker_10, # of connection points: 2
#     Edge 67, Type (0, 0), BuildingBlock: TEMPAE_clean_linker_10, # of connection points: 2
#     Edge 68, Type (0, 0), BuildingBlock: TEMPAE_clean_linker_10, # of connection points: 2
#     Edge 69, Type (0, 0), BuildingBlock: TEMPAE_clean_linker_10, # of connection points: 2
#     Edge 70, Type (0, 0), BuildingBlock: TEMPAE_clean_linker_10, # of connection points: 2
#     Edge 71, Type (0, 0), BuildingBlock: TEMPAE_clean_linker_10, # of connection points: 2
#     Edge 72, Type (0, 0), BuildingBlock: TEMPAE_clean_linker_10, # of connection points: 2
#     Edge 73, Type (0, 0), BuildingBlock: TEMPAE_clean_linker_10, # of connection points: 2
#     Edge 74, Type (0, 0), BuildingBlock: TEMPAE_clean_linker_10, # of connection points: 2
#     Edge 75, Type (0, 0), BuildingBlock: TEMPAE_clean_linker_10, # of connection points: 2
#     Edge 76, Type (0, 0), BuildingBlock: TEMPAE_clean_linker_10, # of connection points: 2
#     Edge 77, Type (0, 0), BuildingBlock: TEMPAE_clean_linker_10, # of connection points: 2
#     Edge 78, Type (0, 0), BuildingBlock: TEMPAE_clean_linker_10, # of connection points: 2
#     Edge 79, Type (0, 0), BuildingBlock: TEMPAE_clean_linker_10, # of connection points: 2
#     Edge 80, Type (0, 0), BuildingBlock: TEMPAE_clean_linker_10, # of connection points: 2
#     Edge 81, Type (0, 0), BuildingBlock: TEMPAE_clean_linker_10, # of connection points: 2
#     Edge 82, Type (0, 0), BuildingBlock: TEMPAE_clean_linker_10, # of connection points: 2
#     Edge 83, Type (0, 0), BuildingBlock: TEMPAE_clean_linker_10, # of connection points: 2
#     Edge 84, Type (0, 0), BuildingBlock: TEMPAE_clean_linker_10, # of connection points: 2
#     Edge 85, Type (0, 0), BuildingBlock: TEMPAE_clean_linker_10, # of connection points: 2
#     Edge 86, Type (0, 0), BuildingBlock: TEMPAE_clean_linker_10, # of connection points: 2
#     Edge 87, Type (0, 0), BuildingBlock: TEMPAE_clean_linker_10, # of connection points: 2
#     Edge 88, Type (0, 0), BuildingBlock: TEMPAE_clean_linker_10, # of connection points: 2
#     Edge 89, Type (0, 0), BuildingBlock: TEMPAE_clean_linker_10, # of connection points: 2
#     Edge 90, Type (0, 0), BuildingBlock: TEMPAE_clean_linker_10, # of connection points: 2
#     Edge 91, Type (0, 0), BuildingBlock: TEMPAE_clean_linker_10, # of connection points: 2
#     Edge 92, Type (0, 0), BuildingBlock: TEMPAE_clean_linker_10, # of connection points: 2
#     Edge 93, Type (0, 0), BuildingBlock: TEMPAE_clean_linker_10, # of connection points: 2
#     Edge 94, Type (0, 0), BuildingBlock: TEMPAE_clean_linker_10, # of connection points: 2
#     Edge 95, Type (0, 0), BuildingBlock: TEMPAE_clean_linker_10, # of connection points: 2
#     Edge 96, Type (0, 0), BuildingBlock: TEMPAE_clean_linker_10, # of connection points: 2
#     Edge 97, Type (0, 0), BuildingBlock: TEMPAE_clean_linker_10, # of connection points: 2
#     Edge 98, Type (0, 0), BuildingBlock: TEMPAE_clean_linker_10, # of connection points: 2
#     Edge 99, Type (0, 0), BuildingBlock: TEMPAE_clean_linker_10, # of connection points: 2
#     Edge 100, Type (0, 0), BuildingBlock: TEMPAE_clean_linker_10, # of connection points: 2
#     Edge 101, Type (0, 0), BuildingBlock: TEMPAE_clean_linker_10, # of connection points: 2
#     Edge 102, Type (0, 0), BuildingBlock: TEMPAE_clean_linker_10, # of connection points: 2
#     Edge 103, Type (0, 0), BuildingBlock: TEMPAE_clean_linker_10, # of connection points: 2
#     Edge 104, Type (0, 0), BuildingBlock: TEMPAE_clean_linker_10, # of connection points: 2
#     Edge 105, Type (0, 0), BuildingBlock: TEMPAE_clean_linker_10, # of connection points: 2
#     Edge 106, Type (0, 0), BuildingBlock: TEMPAE_clean_linker_10, # of connection points: 2
#     Edge 107, Type (0, 0), BuildingBlock: TEMPAE_clean_linker_10, # of connection points: 2
#     Edge 108, Type (0, 0), BuildingBlock: TEMPAE_clean_linker_10, # of connection points: 2
#     Edge 109, Type (0, 0), BuildingBlock: TEMPAE_clean_linker_10, # of connection points: 2
#     Edge 110, Type (0, 0), BuildingBlock: TEMPAE_clean_linker_10, # of connection points: 2
#     Edge 111, Type (0, 0), BuildingBlock: TEMPAE_clean_linker_10, # of connection points: 2
#     Edge 112, Type (0, 0), BuildingBlock: TEMPAE_clean_linker_10, # of connection points: 2
#     Edge 113, Type (0, 0), BuildingBlock: TEMPAE_clean_linker_10, # of connection points: 2
#     Edge 114, Type (0, 0), BuildingBlock: TEMPAE_clean_linker_10, # of connection points: 2
#     Edge 115, Type (0, 0), BuildingBlock: TEMPAE_clean_linker_10, # of connection points: 2
#     Edge 116, Type (0, 0), BuildingBlock: TEMPAE_clean_linker_10, # of connection points: 2
#     Edge 117, Type (0, 0), BuildingBlock: TEMPAE_clean_linker_10, # of connection points: 2
#     Edge 118, Type (0, 0), BuildingBlock: TEMPAE_clean_linker_10, # of connection points: 2
#     Edge 119, Type (0, 0), BuildingBlock: TEMPAE_clean_linker_10, # of connection points: 2
#     Edge 120, Type (0, 0), BuildingBlock: TEMPAE_clean_linker_10, # of connection points: 2
#     Edge 121, Type (0, 0), BuildingBlock: TEMPAE_clean_linker_10, # of connection points: 2
#     Edge 122, Type (0, 0), BuildingBlock: TEMPAE_clean_linker_10, # of connection points: 2
#     Edge 123, Type (0, 0), BuildingBlock: TEMPAE_clean_linker_10, # of connection points: 2
#     Edge 124, Type (0, 0), BuildingBlock: TEMPAE_clean_linker_10, # of connection points: 2
#     Edge 125, Type (0, 0), BuildingBlock: TEMPAE_clean_linker_10, # of connection points: 2
#     Edge 126, Type (0, 0), BuildingBlock: TEMPAE_clean_linker_10, # of connection points: 2
#     Edge 127, Type (0, 0), BuildingBlock: TEMPAE_clean_linker_10, # of connection points: 2
#     Edge 128, Type (0, 0), BuildingBlock: TEMPAE_clean_linker_10, # of connection points: 2
#     Edge 129, Type (0, 0), BuildingBlock: TEMPAE_clean_linker_10, # of connection points: 2
#     Edge 130, Type (0, 0), BuildingBlock: TEMPAE_clean_linker_10, # of connection points: 2
#     Edge 131, Type (0, 0), BuildingBlock: TEMPAE_clean_linker_10, # of connection points: 2
#     Edge 132, Type (0, 0), BuildingBlock: TEMPAE_clean_linker_10, # of connection points: 2
#     Edge 133, Type (0, 0), BuildingBlock: TEMPAE_clean_linker_10, # of connection points: 2
#     Edge 134, Type (0, 0), BuildingBlock: TEMPAE_clean_linker_10, # of connection points: 2
#     Edge 135, Type (0, 0), BuildingBlock: TEMPAE_clean_linker_10, # of connection points: 2
#     Edge 136, Type (0, 0), BuildingBlock: TEMPAE_clean_linker_10, # of connection points: 2
#     Edge 137, Type (0, 0), BuildingBlock: TEMPAE_clean_linker_10, # of connection points: 2
#     Edge 138, Type (0, 0), BuildingBlock: TEMPAE_clean_linker_10, # of connection points: 2
#     Edge 139, Type (0, 0), BuildingBlock: TEMPAE_clean_linker_10, # of connection points: 2
#     Edge 140, Type (0, 0), BuildingBlock: TEMPAE_clean_linker_10, # of connection points: 2
#     Edge 141, Type (0, 0), BuildingBlock: TEMPAE_clean_linker_10, # of connection points: 2
#     Edge 142, Type (0, 0), BuildingBlock: TEMPAE_clean_linker_10, # of connection points: 2
#     Edge 143, Type (0, 0), BuildingBlock: TEMPAE_clean_linker_10, # of connection points: 2
# Relax obj value: 0.099
# Max RMSD: 0.122
# Mean RMSD: 0.112
data_MOF--net-ana--node1-CEKHIL_clean_sbu_0--edge1-TEMPAE_clean_linker_10
_symmetry_space_group_name_H-M    P1
_symmetry_Int_Tables_number       1
_symmetry_cell_setting            triclinic
loop_
_symmetry_equiv_pos_as_xyz
'x, y, z'
_cell_length_a     66.050144
_cell_length_b     64.725895
_cell_length_c     64.807077
_cell_angle_alpha  90.054738
_cell_angle_beta   90.055461
_cell_angle_gamma 90.338977
loop_
_atom_site_label
_atom_site_type_symbol
_atom_site_fract_x
_atom_site_fract_y
_atom_site_fract_z
_atom_type_partial_charge
Co0 Co 0.12812 0.17076 0.41934 0.0
O1 O 0.15694 0.16989 0.42333 0.0
O2 O 0.13859 0.14515 0.40861 0.0
C3 C 0.12685 0.20317 0.40702 0.0
O4 O 0.09844 0.16643 0.41178 0.0
Co5 Co 0.10119 0.20204 0.44325 0.0
O6 O 0.08042 0.19369 0.42273 0.0
C7 C 0.11927 0.1665 0.4648 0.0
C8 C 0.15628 0.15195 0.41436 0.0
C9 C 0.08202 0.17706 0.41233 0.0
O10 O 0.12401 0.15817 0.44744 0.0
O11 O 0.11175 0.18463 0.46634 0.0
O12 O 0.1316 0.188 0.39481 0.0
O13 O 0.12493 0.1985 0.42625 0.0
Co14 Co 0.09199 0.86526 0.66449 0.0
O15 O 0.11405 0.86313 0.68375 0.0
O16 O 0.08376 0.87584 0.69092 0.0
C17 C 0.09458 0.83333 0.65136 0.0
O18 O 0.06529 0.86912 0.64953 0.0
Co19 Co 0.09843 0.86299 0.61743 0.0
O20 O 0.06845 0.86161 0.61589 0.0
C21 C 0.10972 0.90095 0.63965 0.0
C22 C 0.10188 0.87124 0.69721 0.0
C23 C 0.05766 0.86614 0.63151 0.0
O24 O 0.10172 0.89345 0.6561 0.0
O25 O 0.11112 0.89079 0.62276 0.0
O26 O 0.08504 0.83641 0.6686 0.0
O27 O 0.10375 0.84923 0.64355 0.0
Co28 Co 0.3644 0.82329 0.90778 0.0
O29 O 0.3355 0.82118 0.90696 0.0
O30 O 0.35319 0.84896 0.89775 0.0
C31 C 0.37047 0.79239 0.89349 0.0
O32 O 0.3944 0.83038 0.90557 0.0
Co33 Co 0.38903 0.79224 0.93447 0.0
O34 O 0.41208 0.80365 0.91836 0.0
C35 C 0.36563 0.825 0.95447 0.0
C36 C 0.33567 0.83993 0.89995 0.0
C37 C 0.41113 0.82068 0.90853 0.0
O38 O 0.36328 0.83395 0.93693 0.0
O39 O 0.37363 0.80716 0.95655 0.0
O40 O 0.36618 0.80807 0.88177 0.0
O41 O 0.3689 0.79548 0.91307 0.0
Co42 Co 0.4076 0.12724 0.15185 0.0
O43 O 0.38467 0.13142 0.16942 0.0
O44 O 0.41318 0.11617 0.1789 0.0
C45 C 0.40803 0.15926 0.13863 0.0
O46 O 0.43475 0.12117 0.13843 0.0
Co47 Co 0.40317 0.12917 0.10475 0.0
O48 O 0.4332 0.12853 0.10464 0.0
C49 C 0.38733 0.09305 0.1268 0.0
C50 C 0.39506 0.12231 0.18372 0.0
C51 C 0.44318 0.12351 0.12069 0.0
O52 O 0.39613 0.09981 0.14315 0.0
O53 O 0.387 0.10324 0.10988 0.0
O54 O 0.41654 0.15546 0.1563 0.0
O55 O 0.39811 0.14406 0.13032 0.0
Co56 Co 0.11719 0.8288 0.08073 0.0
O57 O 0.08821 0.82665 0.08064 0.0
O58 O 0.10675 0.83634 0.10755 0.0
C59 C 0.1203 0.84582 0.05073 0.0
O60 O 0.1473 0.83352 0.0861 0.0
Co61 Co 0.14214 0.80698 0.04632 0.0
O62 O 0.16436 0.82446 0.05745 0.0
C63 C 0.1221 0.78237 0.07857 0.0
C64 C 0.08892 0.83272 0.09971 0.0
C65 C 0.1636 0.83294 0.07521 0.0
O66 O 0.11898 0.79889 0.08914 0.0
O67 O 0.12941 0.78255 0.06029 0.0
O68 O 0.11589 0.85588 0.06748 0.0
O69 O 0.12046 0.82596 0.05233 0.0
Co70 Co 0.41384 0.8841 0.34318 0.0
O71 O 0.43312 0.88358 0.36532 0.0
O72 O 0.43883 0.87211 0.33362 0.0
C73 C 0.40352 0.91658 0.34775 0.0
O74 O 0.39821 0.8832 0.31618 0.0
Co75 Co 0.36809 0.8894 0.35183 0.0
O76 O 0.36641 0.89409 0.32165 0.0
C77 C 0.3867 0.84875 0.35812 0.0
C78 C 0.44559 0.87543 0.3522 0.0
C79 C 0.38074 0.88891 0.30959 0.0
O80 O 0.4035 0.85599 0.35116 0.0
O81 O 0.3709 0.85983 0.36069 0.0
O82 O 0.42012 0.91282 0.33774 0.0
O83 O 0.39491 0.90093 0.35663 0.0
Co84 Co 0.37804 0.16079 0.57074 0.0
O85 O 0.40695 0.16385 0.57061 0.0
O86 O 0.38904 0.1501 0.59615 0.0
C87 C 0.37492 0.14811 0.53867 0.0
O88 O 0.34829 0.15443 0.57596 0.0
Co89 Co 0.35128 0.18578 0.54016 0.0
O90 O 0.32959 0.16676 0.54975 0.0
C91 C 0.37218 0.20672 0.57456 0.0
C92 C 0.40663 0.15541 0.58877 0.0
C93 C 0.33142 0.15604 0.56614 0.0
O94 O 0.37563 0.18917 0.58312 0.0
O95 O 0.36439 0.20851 0.55656 0.0
O96 O 0.37977 0.13587 0.55376 0.0
O97 O 0.37413 0.16749 0.54315 0.0
Co98 Co 0.08694 0.1248 0.84714 0.0
O99 O 0.06659 0.12699 0.86811 0.0
O100 O 0.06248 0.13593 0.83534 0.0
C101 C 0.09726 0.09283 0.85446 0.0
O102 O 0.10395 0.12351 0.8211 0.0
Co103 Co 0.13232 0.12048 0.85912 0.0
O104 O 0.13582 0.11443 0.82941 0.0
C105 C 0.1134 0.1614 0.86044 0.0
C106 C 0.05481 0.13405 0.85373 0.0
C107 C 0.12201 0.11805 0.81619 0.0
O108 O 0.09687 0.15352 0.85343 0.0
O109 O 0.12908 0.15073 0.86477 0.0
O110 O 0.08096 0.09569 0.84362 0.0
O111 O 0.10525 0.10917 0.86271 0.0
Co112 Co 0.16592 0.39658 0.13731 0.0
O113 O 0.18745 0.3768 0.13842 0.0
O114 O 0.1903 0.40859 0.12597 0.0
C115 C 0.15411 0.39212 0.16935 0.0
O116 O 0.14761 0.42152 0.1348 0.0
Co117 Co 0.121 0.38234 0.1409 0.0
O118 O 0.1157 0.4124 0.1432 0.0
C119 C 0.14283 0.37589 0.10198 0.0
C120 C 0.19878 0.39097 0.13009 0.0
C121 C 0.12907 0.42597 0.13879 0.0
O122 O 0.15785 0.38641 0.10912 0.0
O123 O 0.12731 0.37111 0.11283 0.0
O124 O 0.17 0.40363 0.16618 0.0
O125 O 0.14759 0.38175 0.15362 0.0
Co126 Co 0.66225 0.09813 0.86587 0.0
O127 O 0.68354 0.11843 0.86437 0.0
O128 O 0.68677 0.0868 0.87705 0.0
C129 C 0.6507 0.10188 0.83365 0.0
O130 O 0.6446 0.07263 0.86904 0.0
Co131 Co 0.61715 0.10965 0.8621 0.0
O132 O 0.61264 0.07941 0.85956 0.0
C133 C 0.63829 0.11685 0.90148 0.0
C134 C 0.69513 0.10443 0.87243 0.0
C135 C 0.62645 0.06678 0.86478 0.0
O136 O 0.65421 0.10844 0.8939 0.0
O137 O 0.62212 0.11981 0.891 0.0
O138 O 0.6665 0.09064 0.83735 0.0
O139 O 0.64358 0.11229 0.84909 0.0
Co140 Co 0.84223 0.91408 0.37959 0.0
O141 O 0.86567 0.93141 0.37588 0.0
O142 O 0.83449 0.93923 0.36598 0.0
C143 C 0.84812 0.90591 0.41252 0.0
O144 O 0.81427 0.90097 0.38153 0.0
Co145 Co 0.84612 0.86735 0.38813 0.0
O146 O 0.81649 0.86827 0.39283 0.0
C147 C 0.85399 0.88304 0.34644 0.0
C148 C 0.85345 0.94459 0.36741 0.0
C149 C 0.80611 0.88398 0.38768 0.0
O150 O 0.8474 0.90072 0.35226 0.0
O151 O 0.85604 0.86774 0.35876 0.0
O152 O 0.83974 0.92339 0.40784 0.0
O153 O 0.85447 0.89479 0.39724 0.0
Co154 Co 0.84357 0.08181 0.11496 0.0
O155 O 0.86635 0.06362 0.11548 0.0
O156 O 0.83598 0.05624 0.1282 0.0
C157 C 0.84729 0.09169 0.08205 0.0
O158 O 0.81631 0.09623 0.11637 0.0
Co159 Co 0.84922 0.12872 0.10796 0.0
O160 O 0.81979 0.12738 0.10145 0.0
C161 C 0.8609 0.11038 0.14773 0.0
C162 C 0.85458 0.05058 0.12491 0.0
C163 C 0.80883 0.11269 0.10839 0.0
O164 O 0.85214 0.09349 0.14223 0.0
O165 O 0.86261 0.12604 0.13577 0.0
O166 O 0.83798 0.07447 0.08637 0.0
O167 O 0.85536 0.10135 0.09748 0.0
Co168 Co 0.34469 0.58618 0.61595 0.0
O169 O 0.3673 0.56781 0.61413 0.0
O170 O 0.33695 0.5594 0.62631 0.0
C171 C 0.34777 0.59979 0.58436 0.0
O172 O 0.31752 0.60034 0.61912 0.0
Co173 Co 0.35085 0.63343 0.61486 0.0
O174 O 0.32086 0.63443 0.61331 0.0
C175 C 0.36329 0.61026 0.65149 0.0
C176 C 0.35544 0.55394 0.62221 0.0
C177 C 0.31 0.61844 0.61656 0.0
O178 O 0.35367 0.5945 0.64436 0.0
O179 O 0.36542 0.62707 0.64131 0.0
O180 O 0.33861 0.58214 0.58694 0.0
O181 O 0.35638 0.6076 0.60055 0.0
Co182 Co 0.16756 0.59823 0.36597 0.0
O183 O 0.18823 0.61922 0.36627 0.0
O184 O 0.1922 0.58703 0.37715 0.0
C185 C 0.15662 0.60357 0.33375 0.0
O186 O 0.15049 0.57214 0.36714 0.0
Co187 Co 0.12226 0.60912 0.36176 0.0
O188 O 0.11845 0.57894 0.35786 0.0
C189 C 0.14236 0.61436 0.402 0.0
C190 C 0.20007 0.60519 0.37386 0.0
C191 C 0.13243 0.56627 0.36247 0.0
O192 O 0.15853 0.60652 0.39436 0.0
O193 O 0.12649 0.61791 0.39122 0.0
O194 O 0.17269 0.59262 0.33713 0.0
O195 O 0.14893 0.61285 0.34961 0.0
Co196 Co 0.33281 0.40214 0.86846 0.0
O197 O 0.31117 0.38228 0.87027 0.0
O198 O 0.30919 0.41507 0.87998 0.0
C199 C 0.34227 0.39483 0.83618 0.0
O200 O 0.35113 0.42736 0.868 0.0
Co201 Co 0.37741 0.38896 0.86303 0.0
O202 O 0.3824 0.41872 0.85765 0.0
C203 C 0.35858 0.38627 0.90411 0.0
C204 C 0.30031 0.39724 0.87765 0.0
C205 C 0.36919 0.43219 0.86233 0.0
O206 O 0.34244 0.39448 0.89682 0.0
O207 O 0.37392 0.38172 0.89296 0.0
O208 O 0.32692 0.40677 0.83961 0.0
O209 O 0.35011 0.38591 0.85215 0.0
Co210 Co 0.87228 0.83899 0.59433 0.0
O211 O 0.87366 0.81774 0.61497 0.0
O212 O 0.88433 0.81463 0.58267 0.0
C213 C 0.8403 0.84858 0.60059 0.0
O214 O 0.87256 0.85655 0.56846 0.0
Co215 Co 0.86629 0.88502 0.60506 0.0
O216 O 0.85759 0.88673 0.57572 0.0
C217 C 0.90659 0.86642 0.61036 0.0
C218 C 0.88177 0.80631 0.60073 0.0
C219 C 0.86406 0.87342 0.56288 0.0
O220 O 0.89973 0.84949 0.60261 0.0
O221 O 0.89553 0.88231 0.6135 0.0
O222 O 0.844 0.83249 0.58922 0.0
O223 O 0.85584 0.85718 0.60933 0.0
Co224 Co 0.9133 0.12874 0.32866 0.0
O225 O 0.89217 0.12796 0.30847 0.0
O226 O 0.92393 0.11868 0.30276 0.0
C227 C 0.90635 0.16047 0.34037 0.0
O228 O 0.93931 0.12863 0.34557 0.0
Co229 Co 0.90257 0.13188 0.37511 0.0
O230 O 0.93195 0.1372 0.37835 0.0
C231 C 0.89654 0.09248 0.35319 0.0
C232 C 0.90569 0.12134 0.29562 0.0
C233 C 0.94467 0.13353 0.36405 0.0
O234 O 0.90604 0.09982 0.33748 0.0
O235 O 0.89221 0.10335 0.36908 0.0
O236 O 0.91733 0.15813 0.32393 0.0
O237 O 0.89853 0.14383 0.34804 0.0
Co238 Co 0.62908 0.15578 0.09416 0.0
O239 O 0.62587 0.17279 0.11834 0.0
O240 O 0.61693 0.18153 0.08652 0.0
C241 C 0.66099 0.146 0.10042 0.0
O242 O 0.63085 0.14367 0.06536 0.0
Co243 Co 0.63526 0.10874 0.09633 0.0
O244 O 0.64072 0.1106 0.06629 0.0
C245 C 0.59472 0.12552 0.10387 0.0
C246 C 0.61828 0.18648 0.1059 0.0
C247 C 0.63645 0.12697 0.05635 0.0
O248 O 0.60149 0.14339 0.0986 0.0
O249 O 0.60606 0.1096 0.10527 0.0
O250 O 0.65726 0.16393 0.09233 0.0
O251 O 0.6454 0.13529 0.10633 0.0
Co252 Co 0.5848 0.8766 0.8419 0.0
O253 O 0.60751 0.87857 0.82376 0.0
O254 O 0.57599 0.88633 0.81511 0.0
C255 C 0.5925 0.84517 0.85391 0.0
O256 O 0.55746 0.87526 0.85637 0.0
Co257 Co 0.59168 0.87416 0.88892 0.0
O258 O 0.56245 0.86736 0.88976 0.0
C259 C 0.59635 0.91408 0.868 0.0
C260 C 0.59489 0.88456 0.8097 0.0
C261 C 0.5508 0.87029 0.87437 0.0
O262 O 0.58964 0.90579 0.8513 0.0
O263 O 0.59956 0.90382 0.88454 0.0
O264 O 0.58268 0.84719 0.83668 0.0
O265 O 0.59882 0.8621 0.86247 0.0
Co266 Co 0.87807 0.15395 0.90578 0.0
O267 O 0.8803 0.13063 0.92401 0.0
O268 O 0.86656 0.16079 0.93208 0.0
C269 C 0.90968 0.15305 0.89331 0.0
O270 O 0.87381 0.18171 0.89224 0.0
Co271 Co 0.88125 0.15003 0.85859 0.0
O272 O 0.88187 0.18074 0.85868 0.0
C273 C 0.84405 0.13621 0.87926 0.0
C274 C 0.8713 0.14215 0.93761 0.0
C275 C 0.87683 0.19066 0.87484 0.0
O276 O 0.85095 0.1438 0.89617 0.0
O277 O 0.85438 0.13576 0.86256 0.0
O278 O 0.90599 0.1617 0.91101 0.0
O279 O 0.89461 0.14356 0.88462 0.0
Co280 Co 0.57402 0.1057 0.6524 0.0
O281 O 0.55472 0.10758 0.63036 0.0
O282 O 0.55 0.11945 0.66211 0.0
C283 C 0.58218 0.07251 0.64748 0.0
O284 O 0.58989 0.10567 0.67922 0.0
Co285 Co 0.61943 0.09715 0.6428 0.0
O286 O 0.62227 0.09668 0.67329 0.0
C287 C 0.60211 0.13766 0.6336 0.0
C288 C 0.54294 0.11662 0.64357 0.0
C289 C 0.6079 0.10155 0.68546 0.0
O290 O 0.58634 0.13299 0.64424 0.0
O291 O 0.61601 0.12473 0.62911 0.0
O292 O 0.5658 0.0772 0.65748 0.0
O293 O 0.59177 0.08773 0.63903 0.0
Co294 Co 0.61935 0.848 0.41324 0.0
O295 O 0.6192 0.86848 0.43488 0.0
O296 O 0.63 0.83626 0.43808 0.0
C297 C 0.58792 0.85337 0.40146 0.0
O298 O 0.62098 0.82212 0.39591 0.0
Co299 Co 0.61594 0.85815 0.36691 0.0
O300 O 0.61196 0.82793 0.3631 0.0
C301 C 0.65471 0.86529 0.38834 0.0
C302 C 0.62664 0.85407 0.4466 0.0
C303 C 0.61645 0.81569 0.37775 0.0
O304 O 0.64726 0.85697 0.40467 0.0
O305 O 0.64437 0.86828 0.37189 0.0
O306 O 0.59092 0.84216 0.41779 0.0
O307 O 0.6037 0.86261 0.3939 0.0
Co308 Co 0.91994 0.87758 0.16224 0.0
O309 O 0.9404 0.87828 0.14116 0.0
O310 O 0.9446 0.86558 0.17263 0.0
C311 C 0.9092 0.91014 0.15763 0.0
O312 O 0.90317 0.87503 0.18835 0.0
Co313 Co 0.87423 0.8834 0.15242 0.0
O314 O 0.87098 0.88454 0.18277 0.0
C315 C 0.89402 0.84363 0.14327 0.0
C316 C 0.95223 0.8696 0.15457 0.0
C317 C 0.8852 0.87898 0.1948 0.0
O318 O 0.91037 0.84973 0.15226 0.0
O319 O 0.87863 0.85525 0.14053 0.0
O320 O 0.92519 0.9066 0.16878 0.0
O321 O 0.90132 0.89429 0.14852 0.0
Co322 Co 0.8275 0.5926 0.85796 0.0
O323 O 0.80769 0.61399 0.86074 0.0
O324 O 0.80311 0.58133 0.87005 0.0
C325 C 0.837 0.60035 0.8256 0.0
O326 O 0.84388 0.56621 0.85662 0.0
Co327 Co 0.87305 0.6034 0.85129 0.0
O328 O 0.87605 0.57322 0.84741 0.0
C329 C 0.85525 0.60675 0.89287 0.0
C330 C 0.79588 0.59991 0.86851 0.0
C331 C 0.86187 0.56052 0.85174 0.0
O332 O 0.83851 0.59898 0.88624 0.0
O333 O 0.87022 0.6111 0.88108 0.0
O334 O 0.82079 0.58932 0.82881 0.0
O335 O 0.84562 0.60789 0.84184 0.0
Co336 Co 0.33509 0.911 0.11991 0.0
O337 O 0.35611 0.93153 0.1193 0.0
O338 O 0.32451 0.93719 0.12918 0.0
C339 C 0.34125 0.8979 0.08856 0.0
O340 O 0.30912 0.89397 0.12147 0.0
Co341 Co 0.3455 0.8644 0.1184 0.0
O342 O 0.31606 0.86096 0.11351 0.0
C343 C 0.35154 0.88755 0.15703 0.0
C344 C 0.34261 0.94449 0.12577 0.0
C345 C 0.3035 0.87538 0.11717 0.0
O346 O 0.34292 0.90338 0.14895 0.0
O347 O 0.35522 0.87096 0.14698 0.0
O348 O 0.33037 0.91443 0.0905 0.0
O349 O 0.34955 0.89099 0.10523 0.0
Co350 Co 0.17117 0.08843 0.63624 0.0
O351 O 0.18951 0.11133 0.63321 0.0
O352 O 0.19561 0.07932 0.62281 0.0
C353 C 0.16289 0.09481 0.6691 0.0
O354 O 0.15654 0.06077 0.63747 0.0
Co355 Co 0.12555 0.09501 0.64514 0.0
O356 O 0.12501 0.06479 0.64977 0.0
C357 C 0.14133 0.10184 0.60316 0.0
C358 C 0.20177 0.09839 0.62448 0.0
C359 C 0.13957 0.05337 0.64393 0.0
O360 O 0.1587 0.09495 0.60875 0.0
O361 O 0.12652 0.10429 0.61564 0.0
O362 O 0.17938 0.08481 0.66482 0.0
O363 O 0.15293 0.10204 0.65357 0.0
Co364 Co 0.1586 0.91687 0.87998 0.0
O365 O 0.13634 0.93556 0.87837 0.0
O366 O 0.16763 0.94262 0.868 0.0
C367 C 0.1522 0.90701 0.91248 0.0
O368 O 0.18559 0.90197 0.8802 0.0
Co369 Co 0.15198 0.87008 0.88683 0.0
O370 O 0.18096 0.87095 0.89501 0.0
C371 C 0.14418 0.88821 0.84578 0.0
C372 C 0.1491 0.94879 0.87071 0.0
C373 C 0.19246 0.88544 0.88858 0.0
O374 O 0.1517 0.90553 0.85195 0.0
O375 O 0.14177 0.87262 0.85771 0.0
O376 O 0.16245 0.92383 0.90897 0.0
O377 O 0.14513 0.89751 0.89646 0.0
Co378 Co 0.66123 0.4163 0.38037 0.0
O379 O 0.63914 0.43519 0.37834 0.0
O380 O 0.67079 0.44217 0.36912 0.0
C381 C 0.65381 0.40583 0.41244 0.0
O382 O 0.68815 0.40128 0.38134 0.0
Co383 Co 0.65431 0.36938 0.38624 0.0
O384 O 0.68272 0.37046 0.39629 0.0
C385 C 0.64735 0.38838 0.3454 0.0
C386 C 0.65223 0.44843 0.3713 0.0
C387 C 0.69454 0.38493 0.39045 0.0
O388 O 0.65507 0.40546 0.35194 0.0
O389 O 0.64455 0.37263 0.35704 0.0
O390 O 0.66416 0.42272 0.4096 0.0
O391 O 0.64722 0.39669 0.39601 0.0
Co392 Co 0.82545 0.40525 0.64103 0.0
O393 O 0.8072 0.38202 0.64064 0.0
O394 O 0.80032 0.41312 0.62824 0.0
C395 C 0.83549 0.4018 0.67388 0.0
O396 O 0.83982 0.43307 0.63935 0.0
Co397 Co 0.87161 0.39951 0.6477 0.0
O398 O 0.87224 0.43005 0.64939 0.0
C399 C 0.85342 0.38889 0.60754 0.0
C400 C 0.79439 0.39423 0.63163 0.0
C401 C 0.85722 0.44096 0.64376 0.0
O402 O 0.83655 0.39668 0.61348 0.0
O403 O 0.86887 0.38724 0.61936 0.0
O404 O 0.81848 0.41084 0.66963 0.0
O405 O 0.84484 0.39346 0.6585 0.0
Co406 Co 0.67133 0.58741 0.13348 0.0
O407 O 0.68948 0.61053 0.13093 0.0
O408 O 0.69601 0.57872 0.12024 0.0
C409 C 0.66264 0.59333 0.16632 0.0
O410 O 0.65698 0.55958 0.13419 0.0
Co411 Co 0.62557 0.59341 0.14183 0.0
O412 O 0.62519 0.5631 0.14591 0.0
C413 C 0.64184 0.60113 0.10023 0.0
C414 C 0.70196 0.59783 0.12217 0.0
C415 C 0.63997 0.55192 0.1402 0.0
O416 O 0.65913 0.59415 0.10594 0.0
O417 O 0.62687 0.60334 0.11254 0.0
O418 O 0.67925 0.58353 0.1621 0.0
O419 O 0.65276 0.60064 0.15077 0.0
Co420 Co 0.63232 0.67171 0.91675 0.0
O421 O 0.66111 0.67091 0.92108 0.0
O422 O 0.64294 0.64611 0.90619 0.0
C423 C 0.63103 0.7041 0.90437 0.0
O424 O 0.60276 0.66724 0.90889 0.0
Co425 Co 0.60498 0.70288 0.9403 0.0
O426 O 0.58435 0.69426 0.91973 0.0
C427 C 0.62282 0.66737 0.96207 0.0
C428 C 0.66055 0.65293 0.91218 0.0
C429 C 0.58621 0.67764 0.90937 0.0
O430 O 0.6279 0.65911 0.94478 0.0
O431 O 0.61524 0.68547 0.96355 0.0
O432 O 0.63601 0.68895 0.89224 0.0
O433 O 0.62893 0.69944 0.92359 0.0
Co434 Co 0.59381 0.36459 0.16484 0.0
O435 O 0.61587 0.36309 0.1841 0.0
O436 O 0.58574 0.3764 0.19086 0.0
C437 C 0.59607 0.33209 0.15315 0.0
O438 O 0.56716 0.36801 0.14956 0.0
Co439 Co 0.60077 0.3603 0.11798 0.0
O440 O 0.5708 0.3591 0.11629 0.0
C441 C 0.61191 0.39914 0.13862 0.0
C442 C 0.60386 0.37189 0.19725 0.0
C443 C 0.5598 0.36433 0.13154 0.0
O444 O 0.60378 0.3923 0.15527 0.0
O445 O 0.61343 0.38831 0.12216 0.0
O446 O 0.58655 0.33604 0.17023 0.0
O447 O 0.60548 0.34751 0.14471 0.0
Co448 Co 0.8674 0.32742 0.41989 0.0
O449 O 0.83855 0.32462 0.42002 0.0
O450 O 0.85521 0.35333 0.41175 0.0
C451 C 0.87339 0.29766 0.40329 0.0
O452 O 0.89719 0.33527 0.41682 0.0
Co453 Co 0.89374 0.29524 0.44328 0.0
O454 O 0.91555 0.30766 0.42624 0.0
C455 C 0.87129 0.32663 0.46664 0.0
C456 C 0.83801 0.34363 0.41379 0.0
C457 C 0.91404 0.32538 0.41781 0.0
O458 O 0.86719 0.3362 0.44976 0.0
O459 O 0.88017 0.30911 0.46717 0.0
O460 O 0.86842 0.31403 0.39291 0.0
O461 O 0.8726 0.29936 0.42311 0.0
Co462 Co 0.90872 0.62762 0.65259 0.0
O463 O 0.88586 0.63149 0.67041 0.0
O464 O 0.91497 0.61731 0.67972 0.0
C465 C 0.90829 0.65921 0.63849 0.0
O466 O 0.93591 0.62205 0.63915 0.0
Co467 Co 0.90417 0.62815 0.60542 0.0
O468 O 0.9342 0.62895 0.60529 0.0
C469 C 0.89012 0.59182 0.62832 0.0
C470 C 0.89674 0.62293 0.6847 0.0
C471 C 0.9443 0.6245 0.62143 0.0
O472 O 0.89803 0.59968 0.64465 0.0
O473 O 0.88979 0.60123 0.61097 0.0
O474 O 0.91689 0.65615 0.65627 0.0
O475 O 0.89867 0.64356 0.63065 0.0
Co476 Co 0.61828 0.327 0.58053 0.0
O477 O 0.58939 0.32348 0.57986 0.0
O478 O 0.6069 0.33542 0.6066 0.0
C479 C 0.62141 0.3426 0.54983 0.0
O480 O 0.64793 0.33364 0.58658 0.0
Co481 Co 0.64592 0.30517 0.54846 0.0
O482 O 0.66651 0.32489 0.55892 0.0
C483 C 0.62774 0.28115 0.58223 0.0
C484 C 0.58943 0.33063 0.59859 0.0
C485 C 0.66461 0.33389 0.57629 0.0
O486 O 0.6211 0.29777 0.59062 0.0
O487 O 0.63697 0.28058 0.56491 0.0
O488 O 0.61607 0.35318 0.56597 0.0
O489 O 0.62262 0.32284 0.55234 0.0
Co490 Co 0.91156 0.37904 0.85392 0.0
O491 O 0.93088 0.37696 0.87588 0.0
O492 O 0.93554 0.3653 0.84406 0.0
C493 C 0.90366 0.41218 0.85873 0.0
O494 O 0.89553 0.37942 0.82712 0.0
Co495 Co 0.86639 0.38778 0.86284 0.0
O496 O 0.86679 0.39672 0.83353 0.0
C497 C 0.88185 0.34555 0.86795 0.0
C498 C 0.94266 0.36805 0.8626 0.0
C499 C 0.87978 0.38931 0.82109 0.0
O500 O 0.89931 0.3518 0.8618 0.0
O501 O 0.86667 0.35756 0.87017 0.0
O502 O 0.91987 0.40723 0.84858 0.0
O503 O 0.89401 0.39717 0.86762 0.0
Co504 Co 0.87942 0.65982 0.0727 0.0
O505 O 0.90834 0.66248 0.07345 0.0
O506 O 0.88948 0.64946 0.09865 0.0
C507 C 0.87712 0.64663 0.04076 0.0
O508 O 0.84945 0.65396 0.07708 0.0
Co509 Co 0.85396 0.68467 0.04091 0.0
O510 O 0.83167 0.66619 0.05017 0.0
C511 C 0.87419 0.70588 0.07552 0.0
C512 C 0.90735 0.65443 0.09176 0.0
C513 C 0.83288 0.65569 0.06676 0.0
O514 O 0.87704 0.68843 0.08449 0.0
O515 O 0.86699 0.7075 0.05724 0.0
O516 O 0.88133 0.63458 0.05622 0.0
O517 O 0.87645 0.6661 0.0449 0.0
Co518 Co 0.58958 0.62396 0.34551 0.0
O519 O 0.56963 0.62585 0.36689 0.0
O520 O 0.56469 0.63449 0.33415 0.0
C521 C 0.60076 0.5923 0.35283 0.0
O522 O 0.60608 0.62289 0.31914 0.0
Co523 Co 0.63521 0.62102 0.35663 0.0
O524 O 0.63836 0.61487 0.32687 0.0
C525 C 0.61511 0.66127 0.35877 0.0
C526 C 0.55746 0.63267 0.35274 0.0
C527 C 0.62418 0.61792 0.3139 0.0
O528 O 0.59895 0.65294 0.35143 0.0
O529 O 0.63102 0.65098 0.36321 0.0
O530 O 0.5842 0.5947 0.34229 0.0
O531 O 0.60854 0.60889 0.36081 0.0
Co532 Co 0.66351 0.89539 0.63474 0.0
O533 O 0.6847 0.87527 0.63552 0.0
O534 O 0.68783 0.90687 0.6227 0.0
C535 C 0.65266 0.89123 0.66719 0.0
O536 O 0.64536 0.92049 0.63229 0.0
Co537 Co 0.61851 0.88225 0.63991 0.0
O538 O 0.61547 0.91201 0.64673 0.0
C539 C 0.63866 0.87617 0.59982 0.0
C540 C 0.6961 0.88915 0.62685 0.0
C541 C 0.6281 0.92534 0.64 0.0
O542 O 0.65459 0.88518 0.60692 0.0
O543 O 0.62296 0.87243 0.61083 0.0
O544 O 0.66848 0.90263 0.66341 0.0
O545 O 0.64546 0.8809 0.65172 0.0
Co546 Co 0.37371 0.33952 0.09311 0.0
O547 O 0.37552 0.3196 0.11512 0.0
O548 O 0.38472 0.31422 0.08265 0.0
C549 C 0.34226 0.35051 0.09985 0.0
O550 O 0.3732 0.35487 0.06595 0.0
Co551 Co 0.36963 0.38633 0.10026 0.0
O552 O 0.36387 0.38783 0.0702 0.0
C553 C 0.40915 0.36672 0.10673 0.0
C554 C 0.38286 0.30714 0.10129 0.0
C555 C 0.36787 0.37245 0.05867 0.0
O556 O 0.40176 0.34978 0.09956 0.0
O557 O 0.39854 0.38298 0.10946 0.0
O558 O 0.34514 0.33348 0.08963 0.0
O559 O 0.35832 0.35934 0.10733 0.0
Co560 Co 0.41727 0.62017 0.83136 0.0
O561 O 0.39568 0.61725 0.81188 0.0
O562 O 0.42776 0.60965 0.80558 0.0
C563 C 0.40889 0.65192 0.84187 0.0
O564 O 0.4437 0.62235 0.84743 0.0
Co565 Co 0.40771 0.62445 0.87788 0.0
O566 O 0.43671 0.63205 0.87997 0.0
C567 C 0.40418 0.58376 0.85805 0.0
C568 C 0.40922 0.61095 0.79888 0.0
C569 C 0.44925 0.6285 0.86548 0.0
O570 O 0.41202 0.59131 0.84154 0.0
O571 O 0.39996 0.5947 0.87392 0.0
O572 O 0.41952 0.6494 0.82523 0.0
O573 O 0.40213 0.63527 0.85055 0.0
Co574 Co 0.13017 0.65712 0.59301 0.0
O575 O 0.12803 0.67563 0.61613 0.0
O576 O 0.11805 0.68258 0.58419 0.0
C577 C 0.16213 0.64731 0.5988 0.0
O578 O 0.13086 0.64318 0.56503 0.0
Co579 Co 0.13609 0.61035 0.59796 0.0
O580 O 0.1406 0.61015 0.56767 0.0
C581 C 0.09586 0.62785 0.60542 0.0
C582 C 0.12012 0.68864 0.6032 0.0
C583 C 0.13617 0.62595 0.55692 0.0
O584 O 0.10261 0.64543 0.59922 0.0
O585 O 0.1071 0.61193 0.60729 0.0
O586 O 0.15834 0.66456 0.58937 0.0
O587 O 0.14665 0.63737 0.60614 0.0
Co588 Co 0.08523 0.37658 0.34371 0.0
O589 O 0.10741 0.37656 0.32485 0.0
O590 O 0.07617 0.38606 0.3169 0.0
C591 C 0.09147 0.3451 0.35649 0.0
O592 O 0.05837 0.37741 0.35909 0.0
Co593 Co 0.09364 0.37529 0.3905 0.0
O594 O 0.06411 0.3704 0.39256 0.0
C595 C 0.1 0.41409 0.36804 0.0
C596 C 0.09476 0.38298 0.31101 0.0
C597 C 0.0521 0.37349 0.37749 0.0
O598 O 0.09208 0.40571 0.35196 0.0
O599 O 0.10328 0.40418 0.38478 0.0
O600 O 0.08122 0.34719 0.33953 0.0
O601 O 0.09905 0.36188 0.36427 0.0
Co602 Co 0.38226 0.65939 0.40816 0.0
O603 O 0.38356 0.63719 0.4278 0.0
O604 O 0.37092 0.6683 0.43394 0.0
C605 C 0.41387 0.65642 0.39605 0.0
O606 O 0.37922 0.68642 0.39285 0.0
Co607 Co 0.38577 0.65238 0.36126 0.0
O608 O 0.38796 0.68297 0.35962 0.0
C609 C 0.34813 0.6407 0.38253 0.0
C610 C 0.37503 0.64988 0.44065 0.0
C611 C 0.38312 0.69411 0.37504 0.0
O612 O 0.35485 0.64955 0.39892 0.0
O613 O 0.35872 0.6388 0.36611 0.0
O614 O 0.41046 0.66633 0.41314 0.0
O615 O 0.39847 0.64707 0.38786 0.0
Co616 Co 0.07476 0.60638 0.15494 0.0
O617 O 0.05414 0.60651 0.13412 0.0
O618 O 0.05079 0.61958 0.16557 0.0
C619 C 0.08372 0.57332 0.15054 0.0
O620 O 0.09203 0.60811 0.18084 0.0
Co621 Co 0.11976 0.59876 0.14392 0.0
O622 O 0.12391 0.59807 0.17418 0.0
C623 C 0.10174 0.63944 0.13564 0.0
C624 C 0.04281 0.61572 0.14761 0.0
C625 C 0.11012 0.60375 0.18664 0.0
O626 O 0.08536 0.63377 0.14479 0.0
O627 O 0.11667 0.62732 0.1325 0.0
O628 O 0.06817 0.57791 0.16189 0.0
O629 O 0.09225 0.5885 0.1409 0.0
Co630 Co 0.11907 0.34678 0.91653 0.0
O631 O 0.11818 0.36664 0.93865 0.0
O632 O 0.13179 0.33544 0.94056 0.0
C633 C 0.08686 0.34967 0.90621 0.0
O634 O 0.1221 0.32167 0.89832 0.0
Co635 Co 0.11295 0.35812 0.87075 0.0
O636 O 0.11073 0.32778 0.86633 0.0
C637 C 0.15156 0.36846 0.8911 0.0
C638 C 0.12744 0.35276 0.94962 0.0
C639 C 0.11696 0.31546 0.88024 0.0
O640 O 0.1457 0.35839 0.9071 0.0
O641 O 0.14023 0.37135 0.87533 0.0
O642 O 0.09141 0.33834 0.92208 0.0
O643 O 0.10152 0.36046 0.89836 0.0
Co644 Co 0.42009 0.37973 0.65648 0.0
O645 O 0.44047 0.37836 0.63542 0.0
O646 O 0.44437 0.36765 0.66768 0.0
C647 C 0.41032 0.41223 0.64992 0.0
O648 O 0.40325 0.37963 0.68266 0.0
Co649 Co 0.37463 0.38605 0.64568 0.0
O650 O 0.37113 0.38887 0.67587 0.0
C651 C 0.3933 0.34521 0.63973 0.0
C652 C 0.45205 0.37021 0.64939 0.0
C653 C 0.38521 0.38421 0.68844 0.0
O654 O 0.40972 0.35155 0.6484 0.0
O655 O 0.37822 0.35695 0.63597 0.0
O656 O 0.42628 0.40887 0.66117 0.0
O657 O 0.40202 0.39614 0.64164 0.0
Co658 Co 0.32298 0.09505 0.35606 0.0
O659 O 0.30267 0.11593 0.3591 0.0
O660 O 0.29899 0.08314 0.36835 0.0
C661 C 0.33215 0.10297 0.32365 0.0
O662 O 0.33995 0.06908 0.35445 0.0
Co663 Co 0.36825 0.10704 0.34907 0.0
O664 O 0.37194 0.07694 0.34518 0.0
C665 C 0.35067 0.10991 0.39075 0.0
C666 C 0.29129 0.10154 0.36697 0.0
C667 C 0.35805 0.06389 0.34945 0.0
O668 O 0.33409 0.10162 0.38427 0.0
O669 O 0.36539 0.11474 0.37883 0.0
O670 O 0.31613 0.09166 0.32695 0.0
O671 O 0.34064 0.11075 0.33984 0.0
C672 C 0.0836 0.3077 0.36003 0.0
C673 C 0.09614 0.32457 0.3648 0.0
C674 C 0.08848 0.28777 0.36672 0.0
C675 C 0.10658 0.28467 0.37798 0.0
C676 C 0.11931 0.30167 0.3828 0.0
C677 C 0.11377 0.32152 0.37637 0.0
C678 C 0.07426 0.27007 0.36181 0.0
C679 C 0.13889 0.29885 0.39447 0.0
C680 C 0.11104 0.23755 0.41205 0.0
C681 C 0.12182 0.22394 0.39937 0.0
C682 C 0.10574 0.25724 0.40513 0.0
C683 C 0.11188 0.2637 0.38526 0.0
C684 C 0.12302 0.25015 0.37245 0.0
C685 C 0.12766 0.23026 0.37959 0.0
C686 C 0.09344 0.27109 0.41904 0.0
C687 C 0.13016 0.25674 0.35132 0.0
H688 H 0.06992 0.31012 0.35111 0.0
H689 H 0.12357 0.33457 0.37985 0.0
H690 H 0.08219 0.25831 0.3524 0.0
H691 H 0.06936 0.2624 0.3763 0.0
H692 H 0.0606 0.2752 0.35327 0.0
H693 H 0.14741 0.31358 0.39636 0.0
H694 H 0.13577 0.29236 0.40999 0.0
H695 H 0.14866 0.28764 0.38624 0.0
H696 H 0.10648 0.23276 0.42736 0.0
H697 H 0.13611 0.21979 0.36982 0.0
H698 H 0.07932 0.2758 0.41107 0.0
H699 H 0.10209 0.28539 0.4226 0.0
H700 H 0.08931 0.26343 0.43379 0.0
H701 H 0.11698 0.2606 0.34146 0.0
H702 H 0.1391 0.24454 0.3435 0.0
H703 H 0.13964 0.27089 0.35261 0.0
C704 C 0.02281 0.86911 0.64632 0.0
C705 C 0.03544 0.86794 0.62895 0.0
C706 C 0.0017 0.86999 0.6442 0.0
C707 C 0.99302 0.86986 0.62424 0.0
C708 C 0.00567 0.86923 0.60663 0.0
C709 C 0.02673 0.86818 0.6092 0.0
C710 C 0.98867 0.87048 0.66333 0.0
C711 C 0.99693 0.86924 0.58509 0.0
C712 C 0.93968 0.84927 0.61705 0.0
C713 C 0.92847 0.86753 0.61521 0.0
C714 C 0.96062 0.84986 0.6204 0.0
C715 C 0.97067 0.86918 0.62175 0.0
C716 C 0.95944 0.88769 0.62026 0.0
C717 C 0.93842 0.88664 0.61713 0.0
C718 C 0.97204 0.82978 0.62219 0.0
C719 C 0.96971 0.90855 0.62148 0.0
H720 H 0.02937 0.86891 0.66165 0.0
H721 H 0.03635 0.86744 0.59568 0.0
H722 H 0.97824 0.88384 0.66277 0.0
H723 H 0.97918 0.85629 0.66403 0.0
H724 H 0.9978 0.87151 0.6777 0.0
H725 H 0.00886 0.86996 0.57303 0.0
H726 H 0.98776 0.85504 0.58263 0.0
H727 H 0.98669 0.88261 0.58307 0.0
H728 H 0.93209 0.83443 0.61576 0.0
H729 H 0.92987 0.90081 0.61563 0.0
H730 H 0.98066 0.82941 0.63688 0.0
H731 H 0.98317 0.82855 0.60944 0.0
H732 H 0.96184 0.81608 0.62161 0.0
H733 H 0.97845 0.90991 0.63604 0.0
H734 H 0.95874 0.92148 0.6207 0.0
H735 H 0.98063 0.91022 0.60858 0.0
C736 C 0.38884 0.75931 0.89767 0.0
C737 C 0.37741 0.77252 0.8852 0.0
C738 C 0.39503 0.73999 0.89042 0.0
C739 C 0.38908 0.73354 0.87046 0.0
C740 C 0.37763 0.74688 0.85772 0.0
C741 C 0.37216 0.76641 0.86517 0.0
C742 C 0.40771 0.72641 0.90421 0.0
C743 C 0.37069 0.74027 0.8365 0.0
C744 C 0.41684 0.68935 0.84493 0.0
C745 C 0.40423 0.67259 0.8498 0.0
C746 C 0.41222 0.70931 0.85177 0.0
C747 C 0.3943 0.71254 0.86323 0.0
C748 C 0.38147 0.69563 0.86811 0.0
C749 C 0.38677 0.67576 0.86156 0.0
C750 C 0.42654 0.7269 0.84683 0.0
C751 C 0.36205 0.69859 0.88001 0.0
H752 H 0.39303 0.76406 0.91312 0.0
H753 H 0.36322 0.77662 0.85559 0.0
H754 H 0.39909 0.71224 0.90829 0.0
H755 H 0.42158 0.72146 0.89597 0.0
H756 H 0.41226 0.73436 0.9187 0.0
H757 H 0.3621 0.75259 0.82845 0.0
H758 H 0.3839 0.73601 0.82687 0.0
H759 H 0.36089 0.72635 0.83775 0.0
H760 H 0.43043 0.68681 0.83593 0.0
H761 H 0.37695 0.66277 0.86517 0.0
H762 H 0.43158 0.73454 0.8613 0.0
H763 H 0.41866 0.73871 0.83746 0.0
H764 H 0.44012 0.72165 0.83823 0.0
H765 H 0.36542 0.705 0.89552 0.0
H766 H 0.35344 0.68392 0.88192 0.0
H767 H 0.35228 0.7099 0.87193 0.0
C768 C 0.47475 0.12083 0.09947 0.0
C769 C 0.46541 0.12081 0.11891 0.0
C770 C 0.49587 0.11975 0.09757 0.0
C771 C 0.508 0.11876 0.11556 0.0
C772 C 0.49869 0.11804 0.1352 0.0
C773 C 0.4775 0.11902 0.13665 0.0
C774 C 0.50524 0.1204 0.07633 0.0
C775 C 0.51113 0.11706 0.15473 0.0
C776 C 0.56332 0.10397 0.10901 0.0
C777 C 0.57271 0.12345 0.10801 0.0
C778 C 0.54227 0.10213 0.1118 0.0
C779 C 0.53042 0.12018 0.11379 0.0
C780 C 0.53989 0.13984 0.11334 0.0
C781 C 0.56086 0.14123 0.1104 0.0
C782 C 0.53266 0.08092 0.11212 0.0
C783 C 0.52781 0.15947 0.11558 0.0
H784 H 0.46558 0.12202 0.08565 0.0
H785 H 0.47047 0.11896 0.15175 0.0
H786 H 0.51399 0.13497 0.07445 0.0
H787 H 0.51597 0.10743 0.07437 0.0
H788 H 0.49369 0.11953 0.06388 0.0
H789 H 0.50158 0.11491 0.16868 0.0
H790 H 0.52212 0.1042 0.15386 0.0
H791 H 0.51997 0.13158 0.15652 0.0
H792 H 0.57232 0.09015 0.10715 0.0
H793 H 0.56796 0.15637 0.10986 0.0
H794 H 0.52218 0.07922 0.09883 0.0
H795 H 0.52354 0.0789 0.12635 0.0
H796 H 0.54407 0.0684 0.11136 0.0
H797 H 0.51692 0.1608 0.10261 0.0
H798 H 0.53759 0.1735 0.11576 0.0
H799 H 0.51888 0.15905 0.13006 0.0
C800 C 0.12284 0.66965 0.12492 0.0
C801 C 0.10364 0.66109 0.12865 0.0
C802 C 0.12501 0.69003 0.118 0.0
C803 C 0.10753 0.70204 0.11443 0.0
C804 C 0.0881 0.69363 0.11842 0.0
C805 C 0.08638 0.67326 0.12565 0.0
C806 C 0.146 0.69857 0.11416 0.0
C807 C 0.06913 0.70594 0.11453 0.0
C808 C 0.11543 0.75995 0.10935 0.0
C809 C 0.11725 0.76211 0.0879 0.0
C810 C 0.11182 0.74052 0.11826 0.0
C811 C 0.10969 0.72297 0.10537 0.0
C812 C 0.11082 0.72519 0.08369 0.0
C813 C 0.11472 0.7447 0.07523 0.0
C814 C 0.11092 0.73865 0.14146 0.0
C815 C 0.10837 0.70686 0.06942 0.0
H816 H 0.13626 0.66042 0.12746 0.0
H817 H 0.07149 0.66672 0.12848 0.0
H818 H 0.14792 0.702 0.0975 0.0
H819 H 0.14816 0.7133 0.12268 0.0
H820 H 0.15805 0.68765 0.11893 0.0
H821 H 0.05522 0.6975 0.11933 0.0
H822 H 0.06985 0.72086 0.12295 0.0
H823 H 0.06792 0.7096 0.09785 0.0
H824 H 0.11737 0.77335 0.11922 0.0
H825 H 0.11583 0.74628 0.05862 0.0
H826 H 0.1237 0.72906 0.14698 0.0
H827 H 0.09672 0.73074 0.1462 0.0
H828 H 0.11173 0.75393 0.14926 0.0
H829 H 0.12094 0.69585 0.07193 0.0
H830 H 0.1083 0.71145 0.0529 0.0
H831 H 0.09403 0.69854 0.07286 0.0
C832 C 0.47913 0.85891 0.34543 0.0
C833 C 0.46667 0.8709 0.35814 0.0
C834 C 0.49928 0.85488 0.35102 0.0
C835 C 0.50712 0.86332 0.36956 0.0
C836 C 0.4946 0.87549 0.38238 0.0
C837 C 0.47449 0.87899 0.37658 0.0
C838 C 0.51214 0.84156 0.33717 0.0
C839 C 0.50247 0.88493 0.40217 0.0
C840 C 0.5524 0.84093 0.39733 0.0
C841 C 0.56773 0.85495 0.39189 0.0
C842 C 0.53279 0.84286 0.38931 0.0
C843 C 0.52838 0.85943 0.37584 0.0
C844 C 0.54396 0.87327 0.36981 0.0
C845 C 0.56355 0.87075 0.3778 0.0
C846 C 0.51665 0.82759 0.39582 0.0
C847 C 0.53975 0.89126 0.35567 0.0
H848 H 0.47309 0.85257 0.33119 0.0
H849 H 0.46496 0.88837 0.38641 0.0
H850 H 0.52559 0.85041 0.33188 0.0
H851 H 0.51776 0.82801 0.3459 0.0
H852 H 0.50367 0.83594 0.32343 0.0
H853 H 0.49087 0.89437 0.41016 0.0
H854 H 0.50753 0.87259 0.41283 0.0
H855 H 0.51581 0.89489 0.39888 0.0
H856 H 0.55567 0.82852 0.40803 0.0
H857 H 0.57541 0.88158 0.37355 0.0
H858 H 0.50857 0.8214 0.3821 0.0
H859 H 0.50528 0.83548 0.40559 0.0
H860 H 0.52299 0.81444 0.40468 0.0
H861 H 0.53213 0.88584 0.34138 0.0
H862 H 0.55379 0.89975 0.35134 0.0
H863 H 0.52934 0.90219 0.36342 0.0
C864 C 0.37979 0.24442 0.57503 0.0
C865 C 0.37743 0.22583 0.58587 0.0
C866 C 0.38414 0.2629 0.58536 0.0
C867 C 0.38591 0.26284 0.60712 0.0
C868 C 0.38409 0.24407 0.61816 0.0
C869 C 0.37999 0.2257 0.60736 0.0
C870 C 0.38624 0.28259 0.57302 0.0
C871 C 0.38572 0.24353 0.64139 0.0
C872 C 0.40902 0.31154 0.62984 0.0
C873 C 0.39164 0.32332 0.63351 0.0
C874 C 0.40744 0.29134 0.62207 0.0
C875 C 0.38803 0.28278 0.61818 0.0
C876 C 0.37046 0.29421 0.62294 0.0
C877 C 0.37248 0.31439 0.63043 0.0
C878 C 0.42649 0.27961 0.61703 0.0
C879 C 0.3495 0.28549 0.61925 0.0
H880 H 0.37817 0.24458 0.55838 0.0
H881 H 0.37823 0.21136 0.61582 0.0
H882 H 0.37369 0.29321 0.5769 0.0
H883 H 0.40063 0.2906 0.57699 0.0
H884 H 0.38597 0.27971 0.55612 0.0
H885 H 0.38567 0.22749 0.64749 0.0
H886 H 0.39978 0.25144 0.64655 0.0
H887 H 0.3728 0.25196 0.64827 0.0
H888 H 0.42386 0.31837 0.63223 0.0
H889 H 0.35899 0.32331 0.63357 0.0
H890 H 0.42796 0.27812 0.60004 0.0
H891 H 0.42575 0.26376 0.62348 0.0
H892 H 0.44028 0.28747 0.62308 0.0
H893 H 0.34686 0.28375 0.60242 0.0
H894 H 0.33747 0.29555 0.62567 0.0
H895 H 0.34805 0.26993 0.62627 0.0
C896 C 0.0243 0.13089 0.87594 0.0
C897 C 0.03344 0.13886 0.85812 0.0
C898 C 0.00384 0.13445 0.88014 0.0
C899 C 0.99231 0.14664 0.86639 0.0
C900 C 0.00153 0.1551 0.84856 0.0
C901 C 0.022 0.15092 0.8445 0.0
C902 C 0.99448 0.12489 0.89917 0.0
C903 C 0.98979 0.16854 0.83383 0.0
C904 C 0.93567 0.13785 0.87003 0.0
C905 C 0.93018 0.15301 0.88437 0.0
C906 C 0.95577 0.13612 0.86331 0.0
C907 C 0.97055 0.15019 0.87079 0.0
C908 C 0.96478 0.16635 0.88426 0.0
C909 C 0.94468 0.16741 0.89109 0.0
C910 C 0.9614 0.11849 0.84919 0.0
C911 C 0.98001 0.18193 0.89219 0.0
H912 H 0.03306 0.12146 0.88644 0.0
H913 H 0.02908 0.15719 0.83076 0.0
H914 H 0.98851 0.13716 0.90942 0.0
H915 H 0.98152 0.11484 0.89471 0.0
H916 H 0.00547 0.11551 0.90808 0.0
H917 H -0.00061 0.17456 0.82108 0.0
H918 H 0.97703 0.15962 0.82706 0.0
H919 H 0.98317 0.18182 0.84225 0.0
H920 H 0.92446 0.1267 0.86482 0.0
H921 H 0.94038 0.17933 0.90198 0.0
H922 H 0.9712 0.1075 0.85765 0.0
H923 H 0.97018 0.12428 0.83579 0.0
H924 H 0.94789 0.10997 0.8434 0.0
H925 H 0.9905 0.17431 0.90313 0.0
H926 H 0.97264 0.19502 0.90028 0.0
H927 H 0.98925 0.18815 0.8793 0.0
C928 C 0.36865 0.1294 0.21005 0.0
C929 C 0.38631 0.11894 0.20437 0.0
C930 C 0.35984 0.12636 0.22945 0.0
C931 C 0.36877 0.1123 0.2434 0.0
C932 C 0.38653 0.10154 0.23771 0.0
C933 C 0.39519 0.10511 0.21826 0.0
C934 C 0.34106 0.13833 0.23509 0.0
C935 C 0.39631 0.08627 0.25216 0.0
C936 C 0.35694 0.11969 0.30005 0.0
C937 C 0.34137 0.10521 0.30308 0.0
C938 C 0.36613 0.122 0.28073 0.0
C939 C 0.35974 0.10934 0.26413 0.0
C940 C 0.34421 0.09448 0.26715 0.0
C941 C 0.33508 0.09269 0.28662 0.0
C942 C 0.38247 0.1382 0.27801 0.0
C943 C 0.33718 0.08059 0.24981 0.0
H944 H 0.36176 0.14017 0.19938 0.0
H945 H 0.40877 0.09689 0.21384 0.0
H946 H 0.32852 0.12752 0.23889 0.0
H947 H 0.34402 0.14785 0.24903 0.0
H948 H 0.33601 0.14867 0.22244 0.0
H949 H 0.40975 0.07876 0.24518 0.0
H950 H 0.4011 0.0942 0.26656 0.0
H951 H 0.38522 0.07412 0.25657 0.0
H952 H 0.36183 0.1294 0.31277 0.0
H953 H 0.32316 0.08135 0.28898 0.0
H954 H 0.37769 0.14962 0.26624 0.0
H955 H 0.39658 0.13094 0.27233 0.0
H956 H 0.38591 0.14655 0.2926 0.0
H957 H 0.33068 0.09002 0.23718 0.0
H958 H 0.32556 0.06922 0.25494 0.0
H959 H 0.35022 0.07206 0.24329 0.0
C960 C 0.12361 0.1656 0.50292 0.0
C961 C 0.1229 0.15494 0.48408 0.0
C962 C 0.12711 0.15519 0.52145 0.0
C963 C 0.12973 0.13352 0.5212 0.0
C964 C 0.12905 0.1226 0.50229 0.0
C965 C 0.12579 0.13349 0.48386 0.0
C966 C 0.12798 0.16742 0.54132 0.0
C967 C 0.13155 0.09944 0.50157 0.0
C968 C 0.15526 0.11266 0.56903 0.0
C969 C 0.13849 0.10776 0.58137 0.0
C970 C 0.15268 0.12017 0.54893 0.0
C971 C 0.13288 0.12251 0.54096 0.0
C972 C 0.11594 0.11649 0.55293 0.0
C973 C 0.11895 0.10933 0.57308 0.0
C974 C 0.17109 0.12669 0.53669 0.0
C975 C 0.0946 0.1185 0.54481 0.0
H976 H 0.12162 0.18221 0.50321 0.0
H977 H 0.12522 0.12517 0.46934 0.0
H978 H 0.11581 0.16216 0.5519 0.0
H979 H 0.14264 0.16477 0.54924 0.0
H980 H 0.12623 0.18428 0.53874 0.0
H981 H 0.13081 0.09329 0.48557 0.0
H982 H 0.14628 0.09506 0.50847 0.0
H983 H 0.11951 0.0919 0.51087 0.0
H984 H 0.17041 0.11147 0.57536 0.0
H985 H 0.10594 0.10527 0.58246 0.0
H986 H 0.17121 0.14375 0.53496 0.0
H987 H 0.17057 0.11996 0.52096 0.0
H988 H 0.18544 0.12199 0.54425 0.0
H989 H 0.09066 0.13509 0.54351 0.0
H990 H 0.08333 0.11087 0.55503 0.0
H991 H 0.09338 0.11167 0.52915 0.0
C992 C 0.12969 0.86763 0.81646 0.0
C993 C 0.13806 0.88621 0.82384 0.0
C994 C 0.12379 0.86552 0.79577 0.0
C995 C 0.12633 0.88238 0.78212 0.0
C996 C 0.13474 0.90117 0.78941 0.0
C997 C 0.1405 0.90287 0.81018 0.0
C998 C 0.11485 0.84524 0.78853 0.0
C999 C 0.1377 0.91945 0.77524 0.0
C1000 C 0.12811 0.87013 0.72493 0.0
C1001 C 0.10829 0.87476 0.71876 0.0
C1002 C 0.13427 0.87282 0.74547 0.0
C1003 C 0.12025 0.88026 0.76016 0.0
C1004 C 0.1003 0.8852 0.75399 0.0
C1005 C 0.09456 0.88242 0.73333 0.0
C1006 C 0.1557 0.86745 0.75149 0.0
C1007 C 0.08495 0.89315 0.76927 0.0
H1008 H 0.12771 0.85466 0.82684 0.0
H1009 H 0.14692 0.9173 0.81569 0.0
H1010 H 0.09948 0.84776 0.78213 0.0
H1011 H 0.12425 0.83873 0.77595 0.0
H1012 H 0.11379 0.83366 0.80113 0.0
H1013 H 0.14439 0.933 0.78334 0.0
H1014 H 0.14776 0.91516 0.76225 0.0
H1015 H 0.12296 0.92406 0.76848 0.0
H1016 H 0.13881 0.86426 0.71372 0.0
H1017 H 0.07923 0.88604 0.72864 0.0
H1018 H 0.15554 0.85487 0.76311 0.0
H1019 H 0.16323 0.88101 0.75872 0.0
H1020 H 0.16489 0.86239 0.73807 0.0
H1021 H 0.08235 0.88146 0.78151 0.0
H1022 H 0.0702 0.89675 0.76187 0.0
H1023 H 0.09079 0.90732 0.77692 0.0
C1024 C 0.35154 0.82532 0.99004 0.0
C1025 C 0.35967 0.83615 0.97326 0.0
C1026 C 0.34685 0.83554 0.00847 0.0
C1027 C 0.35109 0.85692 0.01032 0.0
C1028 C 0.35903 0.86799 0.99329 0.0
C1029 C 0.36293 0.85749 0.97479 0.0
C1030 C 0.33777 0.82339 0.0261 0.0
C1031 C 0.36423 0.89069 0.99487 0.0
C1032 C 0.32811 0.8881 0.0539 0.0
C1033 C 0.34358 0.88733 0.06867 0.0
C1034 C 0.33016 0.87793 0.03491 0.0
C1035 C 0.34838 0.86742 0.03045 0.0
C1036 C 0.36413 0.86686 0.04528 0.0
C1037 C 0.36138 0.87655 0.0644 0.0
C1038 C 0.31281 0.87824 0.01973 0.0
C1039 C 0.38397 0.85625 0.04087 0.0
H1040 H 0.34883 0.80883 0.98872 0.0
H1041 H 0.36935 0.86581 0.96181 0.0
H1042 H 0.34879 0.82252 0.039 0.0
H1043 H 0.32409 0.83127 0.03205 0.0
H1044 H 0.33355 0.8074 0.02147 0.0
H1045 H 0.36971 0.89715 0.98 0.0
H1046 H 0.35083 0.89959 -9e-05 0.0
H1047 H 0.37619 0.893 0.00671 0.0
H1048 H 0.31426 0.8963 0.05738 0.0
H1049 H 0.37335 0.87611 0.07584 0.0
H1050 H 0.30823 0.8622 0.01576 0.0
H1051 H 0.31764 0.88585 0.0052 0.0
H1052 H 0.29942 0.88652 0.02588 0.0
H1053 H 0.38133 0.83954 0.03809 0.0
H1054 H 0.39496 0.85796 0.05376 0.0
H1055 H 0.39087 0.86275 0.02666 0.0
C1056 C 0.39329 0.88954 0.27319 0.0
C1057 C 0.37702 0.88929 0.28709 0.0
C1058 C 0.38993 0.88995 0.25183 0.0
C1059 C 0.36984 0.88981 0.24422 0.0
C1060 C 0.35337 0.88957 0.25816 0.0
C1061 C 0.35716 0.88946 0.27944 0.0
C1062 C 0.40786 0.89048 0.23739 0.0
C1063 C 0.33173 0.88912 0.25059 0.0
C1064 C 0.35852 0.90723 0.18956 0.0
C1065 C 0.35695 0.88827 0.17917 0.0
C1066 C 0.36317 0.908 0.21067 0.0
C1067 C 0.36598 0.88936 0.22167 0.0
C1068 C 0.36454 0.87019 0.21126 0.0
C1069 C 0.36019 0.86988 0.1901 0.0
C1070 C 0.36489 0.92874 0.22125 0.0
C1071 C 0.36719 0.84997 0.22256 0.0
H1072 H 0.40868 0.8896 0.27901 0.0
H1073 H 0.34451 0.88918 0.29008 0.0
H1074 H 0.40781 0.87647 0.22752 0.0
H1075 H 0.4068 0.90404 0.22699 0.0
H1076 H 0.42251 0.89128 0.2458 0.0
H1077 H 0.32063 0.88906 0.26347 0.0
H1078 H 0.32878 0.90275 0.2407 0.0
H1079 H 0.32912 0.87515 0.24099 0.0
H1080 H 0.35619 0.92151 0.18117 0.0
H1081 H 0.35888 0.85515 0.18222 0.0
H1082 H 0.37979 0.93018 0.22906 0.0
H1083 H 0.35308 0.93007 0.23333 0.0
H1084 H 0.36319 0.94181 0.2103 0.0
H1085 H 0.38222 0.84958 0.23019 0.0
H1086 H 0.36586 0.8364 0.21213 0.0
H1087 H 0.35558 0.84852 0.23485 0.0
C1088 C 0.37148 0.11969 0.51267 0.0
C1089 C 0.36946 0.14057 0.51793 0.0
C1090 C 0.3672 0.11285 0.49255 0.0
C1091 C 0.36073 0.12727 0.47754 0.0
C1092 C 0.35802 0.14822 0.48303 0.0
C1093 C 0.36248 0.15462 0.50313 0.0
C1094 C 0.37026 0.09039 0.48717 0.0
C1095 C 0.35108 0.16405 0.46746 0.0
C1096 C 0.37221 0.11936 0.42103 0.0
C1097 C 0.35321 0.11356 0.41316 0.0
C1098 C 0.37499 0.12307 0.44211 0.0
C1099 C 0.35835 0.12104 0.45568 0.0
C1100 C 0.33922 0.11474 0.44799 0.0
C1101 C 0.33687 0.11103 0.42678 0.0
C1102 C 0.39564 0.12972 0.44977 0.0
C1103 C 0.32114 0.11249 0.46207 0.0
H1104 H 0.3768 0.10879 0.52411 0.0
H1105 H 0.36077 0.17077 0.50714 0.0
H1106 H 0.35657 0.08403 0.47947 0.0
H1107 H 0.38301 0.08895 0.47614 0.0
H1108 H 0.37364 0.08086 0.50099 0.0
H1109 H 0.34837 0.1794 0.4746 0.0
H1110 H 0.36271 0.16587 0.45525 0.0
H1111 H 0.3369 0.15879 0.45986 0.0
H1112 H 0.385 0.12111 0.4107 0.0
H1113 H 0.32215 0.10646 0.42087 0.0
H1114 H 0.40058 0.11963 0.46262 0.0
H1115 H 0.39489 0.14573 0.45586 0.0
H1116 H 0.40729 0.12925 0.43743 0.0
H1117 H 0.3249 0.10241 0.47535 0.0
H1118 H 0.30775 0.10593 0.45396 0.0
H1119 H 0.31702 0.12783 0.46842 0.0
C1120 C 0.14609 0.1214 0.787 0.0
C1121 C 0.12699 0.11544 0.79429 0.0
C1122 C 0.1514 0.11832 0.76632 0.0
C1123 C 0.13747 0.10843 0.75289 0.0
C1124 C 0.11818 0.10229 0.76023 0.0
C1125 C 0.11303 0.10619 0.78085 0.0
C1126 C 0.17189 0.12561 0.75886 0.0
C1127 C 0.10319 0.0912 0.74646 0.0
C1128 C 0.14454 0.11534 0.69535 0.0
C1129 C 0.15588 0.09784 0.69035 0.0
C1130 C 0.13842 0.119 0.71571 0.0
C1131 C 0.14323 0.10443 0.73118 0.0
C1132 C 0.15415 0.08638 0.72605 0.0
C1133 C 0.16066 0.08346 0.70568 0.0
C1134 C 0.12731 0.1387 0.72074 0.0
C1135 C 0.15903 0.07022 0.74207 0.0
H1136 H 0.15681 0.12866 0.79746 0.0
H1137 H 0.09835 0.10137 0.78665 0.0
H1138 H 0.18097 0.11222 0.75368 0.0
H1139 H 0.17006 0.13602 0.7454 0.0
H1140 H 0.1805 0.13396 0.77105 0.0
H1141 H 0.08892 0.08724 0.75466 0.0
H1142 H 0.09945 0.10093 0.73293 0.0
H1143 H 0.11 0.07675 0.74049 0.0
H1144 H 0.14097 0.1265 0.68344 0.0
H1145 H 0.16927 0.06982 0.70168 0.0
H1146 H 0.13613 0.14785 0.73216 0.0
H1147 H 0.11245 0.13508 0.72787 0.0
H1148 H 0.12472 0.14841 0.70687 0.0
H1149 H 0.1693 0.07687 0.75392 0.0
H1150 H 0.16638 0.05642 0.73525 0.0
H1151 H 0.14499 0.06523 0.75008 0.0
C1152 C 0.13792 0.84582 0.01686 0.0
C1153 C 0.1263 0.85632 0.03154 0.0
C1154 C 0.14344 0.85529 -0.00171 0.0
C1155 C 0.13658 0.87549 0.99403 0.0
C1156 C 0.12503 0.8863 0.00889 0.0
C1157 C 0.12025 0.87665 0.02766 0.0
C1158 C 0.1562 0.84346 0.98302 0.0
C1159 C 0.11708 0.9077 0.00463 0.0
C1160 C 0.16125 0.90454 0.94976 0.0
C1161 C 0.14822 0.89944 0.93346 0.0
C1162 C 0.15761 0.89698 0.96972 0.0
C1163 C 0.14026 0.88457 0.97338 0.0
C1164 C 0.12681 0.87986 0.95701 0.0
C1165 C 0.13112 0.88712 0.93716 0.0
C1166 C 0.17254 0.90181 0.98672 0.0
C1167 C 0.10794 0.867 0.9604 0.0
H1168 H 0.14276 0.83016 0.01986 0.0
H1169 H 0.11121 0.88475 0.039 0.0
H1170 H 0.14709 0.8398 0.96909 0.0
H1171 H 0.1693 0.853 0.97799 0.0
H1172 H 0.16196 0.82876 0.98957 0.0
H1173 H 0.10923 0.91441 0.01821 0.0
H1174 H 0.12964 0.91819 9e-05 0.0
H1175 H 0.10628 0.90708 0.99151 0.0
H1176 H 0.17452 0.91401 0.94681 0.0
H1177 H 0.12094 0.88337 0.92455 0.0
H1178 H 0.17923 0.88726 0.99257 0.0
H1179 H 0.16473 0.90929 -0.00013 0.0
H1180 H 0.185 0.91213 0.98143 0.0
H1181 H 0.11217 0.85111 0.96506 0.0
H1182 H 0.09834 0.866 0.94634 0.0
H1183 H 0.0988 0.87365 0.97311 0.0
C1184 C 0.30553 0.35146 0.09118 0.0
C1185 C 0.32181 0.35904 0.10287 0.0
C1186 C 0.28576 0.35837 0.09471 0.0
C1187 C 0.28218 0.37298 0.11054 0.0
C1188 C 0.29865 0.38115 0.12199 0.0
C1189 C 0.31833 0.37418 0.1179 0.0
C1190 C 0.26862 0.34954 0.08194 0.0
C1191 C 0.29539 0.39659 0.13913 0.0
C1192 C 0.23107 0.39969 0.11179 0.0
C1193 C 0.2203 0.38703 0.12553 0.0
C1194 C 0.25133 0.39545 0.10685 0.0
C1195 C 0.26105 0.37838 0.11614 0.0
C1196 C 0.25035 0.36587 0.13039 0.0
C1197 C 0.23006 0.37025 0.13477 0.0
C1198 C 0.2622 0.40893 0.09136 0.0
C1199 C 0.26027 0.34769 0.14085 0.0
H1200 H 0.30819 0.33991 0.07938 0.0
H1201 H 0.33091 0.38009 0.12696 0.0
H1202 H 0.2586 0.34 0.09188 0.0
H1203 H 0.25929 0.36217 0.07546 0.0
H1204 H 0.27415 0.33976 0.06905 0.0
H1205 H 0.30989 0.40253 0.14558 0.0
H1206 H 0.28638 0.40984 0.13348 0.0
H1207 H 0.28663 0.38921 0.15177 0.0
H1208 H 0.22353 0.41264 0.10457 0.0
H1209 H 0.22183 0.36052 0.14553 0.0
H1210 H 0.26661 0.39954 0.07778 0.0
H1211 H 0.27632 0.41528 0.0982 0.0
H1212 H 0.2527 0.42198 0.08599 0.0
H1213 H 0.26467 0.33604 0.12914 0.0
H1214 H 0.25014 0.34013 0.15229 0.0
H1215 H 0.2743 0.35278 0.14884 0.0
C1216 C 0.72989 0.09172 0.88046 0.0
C1217 C 0.71705 0.10803 0.87507 0.0
C1218 C 0.75092 0.09469 0.88162 0.0
C1219 C 0.75919 0.11445 0.87743 0.0
C1220 C 0.74626 0.13106 0.87238 0.0
C1221 C 0.72533 0.12763 0.8712 0.0
C1222 C 0.7643 0.07664 0.88701 0.0
C1223 C 0.75454 0.15242 0.86802 0.0
C1224 C 0.81109 0.12976 0.89713 0.0
C1225 C 0.82281 0.12871 0.87907 0.0
C1226 C 0.7905 0.1245 0.89696 0.0
C1227 C 0.78139 0.11794 0.87832 0.0
C1228 C 0.79324 0.11599 0.86023 0.0
C1229 C 0.81383 0.12144 0.86081 0.0
C1230 C 0.77834 0.12676 0.91656 0.0
C1231 C 0.78401 0.10884 0.84011 0.0
H1232 H 0.72356 0.07652 0.88339 0.0
H1233 H 0.71546 0.14029 0.86707 0.0
H1234 H 0.77492 0.07355 0.87413 0.0
H1235 H 0.77358 0.08036 0.9008 0.0
H1236 H 0.75544 0.06234 0.89016 0.0
H1237 H 0.74239 0.16373 0.86466 0.0
H1238 H 0.76342 0.15807 0.88146 0.0
H1239 H 0.76497 0.15188 0.85463 0.0
H1240 H 0.81787 0.1352 0.91139 0.0
H1241 H 0.82274 0.12045 0.84682 0.0
H1242 H 0.76994 0.11226 0.91992 0.0
H1243 H 0.76697 0.13916 0.91458 0.0
H1244 H 0.78799 0.13065 0.93008 0.0
H1245 H 0.77569 0.09407 0.84236 0.0
H1246 H 0.79557 0.10662 0.82788 0.0
H1247 H 0.77289 0.12041 0.83465 0.0
C1248 C 0.13703 0.46306 0.14528 0.0
C1249 C 0.12312 0.44786 0.13905 0.0
C1250 C 0.13118 0.48377 0.1471 0.0
C1251 C 0.11111 0.48939 0.14203 0.0
C1252 C 0.09719 0.47419 0.1351 0.0
C1253 C 0.10329 0.45352 0.13398 0.0
C1254 C 0.14629 0.4995 0.155 0.0
C1255 C 0.07581 0.47972 0.12905 0.0
C1256 C 0.0883 0.53796 0.16473 0.0
C1257 C 0.09115 0.55206 0.14863 0.0
C1258 C 0.09518 0.51759 0.16297 0.0
C1259 C 0.10451 0.51112 0.14441 0.0
C1260 C 0.10729 0.52532 0.12805 0.0
C1261 C 0.10085 0.54577 0.1305 0.0
C1262 C 0.09249 0.50301 0.18095 0.0
C1263 C 0.11668 0.51881 0.10783 0.0
H1264 H 0.15231 0.45865 0.14943 0.0
H1265 H 0.09257 0.44177 0.12902 0.0
H1266 H 0.14825 0.51211 0.14359 0.0
H1267 H 0.14054 0.5066 0.16943 0.0
H1268 H 0.16133 0.4926 0.15818 0.0
H1269 H 0.06726 0.46627 0.1228 0.0
H1270 H 0.06756 0.48578 0.14265 0.0
H1271 H 0.07602 0.49212 0.11723 0.0
H1272 H 0.08093 0.54295 0.17881 0.0
H1273 H 0.1029 0.5567 0.118 0.0
H1274 H 0.1073 0.49632 0.18537 0.0
H1275 H 0.08242 0.48998 0.17645 0.0
H1276 H 0.08588 0.51078 0.19465 0.0
H1277 H 0.13218 0.51288 0.11048 0.0
H1278 H 0.11752 0.53172 0.09657 0.0
H1279 H 0.10767 0.50603 0.10091 0.0
C1280 C 0.68707 0.87289 0.3697 0.0
C1281 C 0.67651 0.8707 0.38835 0.0
C1282 C 0.70809 0.87615 0.36954 0.0
C1283 C 0.71871 0.87754 0.38847 0.0
C1284 C 0.70804 0.87616 0.40734 0.0
C1285 C 0.68708 0.87261 0.40705 0.0
C1286 C 0.71901 0.87734 0.34911 0.0
C1287 C 0.71882 0.8779 0.42783 0.0
C1288 C 0.77423 0.86301 0.38907 0.0
C1289 C 0.78375 0.88242 0.38829 0.0
C1290 C 0.75307 0.86124 0.38906 0.0
C1291 C 0.74114 0.87932 0.38854 0.0
C1292 C 0.75062 0.89897 0.38802 0.0
C1293 C 0.77183 0.90029 0.38775 0.0
C1294 C 0.74349 0.83999 0.38939 0.0
C1295 C 0.73835 0.91859 0.38776 0.0
H1296 H 0.67903 0.87134 0.35519 0.0
H1297 H 0.67899 0.87112 0.42153 0.0
H1298 H 0.72819 0.89172 0.34825 0.0
H1299 H 0.72961 0.86417 0.34771 0.0
H1300 H 0.70843 0.87694 0.33578 0.0
H1301 H 0.70813 0.87802 0.44105 0.0
H1302 H 0.72928 0.86469 0.42976 0.0
H1303 H 0.72812 0.89222 0.42834 0.0
H1304 H 0.78332 0.84913 0.38936 0.0
H1305 H 0.77907 0.91536 0.38727 0.0
H1306 H 0.73366 0.8379 0.37563 0.0
H1307 H 0.73371 0.83832 0.4032 0.0
H1308 H 0.75492 0.82748 0.38957 0.0
H1309 H 0.72854 0.9189 0.37386 0.0
H1310 H 0.74805 0.93267 0.38778 0.0
H1311 H 0.72825 0.91908 0.40142 0.0
C1312 C 0.88572 0.93412 0.13993 0.0
C1313 C 0.90031 0.93083 0.15528 0.0
C1314 C 0.87773 0.95379 0.13649 0.0
C1315 C 0.88427 0.97051 0.14893 0.0
C1316 C 0.89847 0.96717 0.16495 0.0
C1317 C 0.9065 0.94733 0.16783 0.0
C1318 C 0.86283 0.95679 0.11905 0.0
C1319 C 0.90549 0.98463 0.17872 0.0
C1320 C 0.88073 0.02315 0.12397 0.0
C1321 C 0.86228 0.03038 0.13171 0.0
C1322 C 0.88828 0.00388 0.12985 0.0
C1323 C 0.87723 0.99167 0.14407 0.0
C1324 C 0.85886 -0.00088 0.15241 0.0
C1325 C 0.85149 0.01837 0.14598 0.0
C1326 C 0.90777 0.99632 0.12036 0.0
C1327 C 0.84687 0.98662 0.16785 0.0
H1328 H 0.8809 0.9214 0.13018 0.0
H1329 H 0.91766 0.94477 0.17982 0.0
H1330 H 0.84878 0.96402 0.12489 0.0
H1331 H 0.86942 0.9674 0.10738 0.0
H1332 H 0.85876 0.94201 0.11131 0.0
H1333 H 0.91518 0.97912 0.19159 0.0
H1334 H 0.91425 0.99603 0.16953 0.0
H1335 H 0.89227 0.99283 0.18529 0.0
H1336 H 0.88913 0.03241 0.11293 0.0
H1337 H 0.83732 0.02404 0.15216 0.0
H1338 H 0.90478 0.98209 0.11125 0.0
H1339 H 0.91877 0.99226 0.13263 0.0
H1340 H 0.91485 0.00801 0.11007 0.0
H1341 H 0.84112 0.97228 0.16045 0.0
H1342 H 0.83377 0.99531 0.1741 0.0
H1343 H 0.85673 0.98191 0.18087 0.0
C1344 C 0.19777 0.64533 0.58694 0.0
C1345 C 0.18304 0.64012 0.60158 0.0
C1346 C 0.21809 0.64003 0.58994 0.0
C1347 C 0.22386 0.62986 0.60834 0.0
C1348 C 0.20896 0.62426 0.62305 0.0
C1349 C 0.1886 0.6292 0.61932 0.0
C1350 C 0.23343 0.64572 0.5736 0.0
C1351 C 0.21462 0.61386 0.64306 0.0
C1352 C 0.27556 0.60459 0.60861 0.0
C1353 C 0.28778 0.6206 0.61636 0.0
C1354 C 0.2546 0.60718 0.60633 0.0
C1355 C 0.24565 0.62602 0.61247 0.0
C1356 C 0.25781 0.64185 0.62124 0.0
C1357 C 0.2788 0.63907 0.62279 0.0
C1358 C 0.24222 0.59016 0.59643 0.0
C1359 C 0.24873 0.66196 0.62846 0.0
H1360 H 0.19338 0.65362 0.57312 0.0
H1361 H 0.17717 0.62533 0.6307 0.0
H1362 H 0.24407 0.65753 0.57976 0.0
H1363 H 0.2425 0.632 0.56931 0.0
H1364 H 0.22621 0.65197 0.55946 0.0
H1365 H 0.20114 0.60969 0.65243 0.0
H1366 H 0.22345 0.59967 0.63999 0.0
H1367 H 0.22444 0.62436 0.65228 0.0
H1368 H 0.28252 0.59036 0.60346 0.0
H1369 H 0.28821 0.65139 0.62895 0.0
H1370 H 0.23615 0.59562 0.58144 0.0
H1371 H 0.22907 0.5861 0.60627 0.0
H1372 H 0.25125 0.576 0.59367 0.0
H1373 H 0.24297 0.67073 0.615 0.0
H1374 H 0.2599 0.6718 0.63679 0.0
H1375 H 0.23568 0.65891 0.63881 0.0
C1376 C 0.10865 0.4476 0.38532 0.0
C1377 C 0.1052 0.43632 0.36715 0.0
C1378 C 0.11303 0.46881 0.38463 0.0
C1379 C 0.11424 0.47889 0.3653 0.0
C1380 C 0.11103 0.46757 0.34689 0.0
C1381 C 0.10644 0.44644 0.34804 0.0
C1382 C 0.1162 0.48047 0.40458 0.0
C1383 C 0.11244 0.47778 0.32599 0.0
C1384 C 0.10755 0.537 0.36344 0.0
C1385 C 0.1277 0.54392 0.36285 0.0
C1386 C 0.10294 0.51584 0.36431 0.0
C1387 C 0.11887 0.50131 0.36433 0.0
C1388 C 0.13922 0.50817 0.36346 0.0
C1389 C 0.1434 0.52941 0.36285 0.0
C1390 C 0.08105 0.50904 0.36541 0.0
C1391 C 0.15657 0.49308 0.36317 0.0
H1392 H 0.10761 0.43992 0.40015 0.0
H1393 H 0.10394 0.43782 0.33391 0.0
H1394 H 0.1315 0.48763 0.4048 0.0
H1395 H 0.10505 0.49317 0.40579 0.0
H1396 H 0.11462 0.47036 0.41834 0.0
H1397 H 0.10986 0.4667 0.31314 0.0
H1398 H 0.1011 0.4903 0.32481 0.0
H1399 H 0.1276 0.48499 0.32402 0.0
H1400 H 0.09534 0.54812 0.36354 0.0
H1401 H 0.15901 0.53463 0.36223 0.0
H1402 H 0.07847 0.49989 0.37965 0.0
H1403 H 0.07736 0.49889 0.35212 0.0
H1404 H 0.07047 0.52232 0.36537 0.0
H1405 H 0.15632 0.48353 0.37738 0.0
H1406 H 0.17153 0.50095 0.3621 0.0
H1407 H 0.15493 0.48239 0.34987 0.0
C1408 C 0.39819 0.55002 0.84027 0.0
C1409 C 0.39978 0.56136 0.85867 0.0
C1410 C 0.39356 0.52886 0.84056 0.0
C1411 C 0.39074 0.51878 0.85971 0.0
C1412 C 0.39264 0.53004 0.87834 0.0
C1413 C 0.397 0.55125 0.87759 0.0
C1414 C 0.39137 0.51738 0.82037 0.0
C1415 C 0.38997 0.5197 0.89906 0.0
C1416 C 0.35969 0.46943 0.86113 0.0
C1417 C 0.37481 0.45431 0.86145 0.0
C1418 C 0.36468 0.49048 0.86039 0.0
C1419 C 0.3853 0.49654 0.86023 0.0
C1420 C 0.40065 0.48138 0.86061 0.0
C1421 C 0.39521 0.46041 0.86107 0.0
C1422 C 0.34791 0.50623 0.85974 0.0
C1423 C 0.42279 0.48734 0.86069 0.0
H1424 H 0.4002 0.55776 0.82558 0.0
H1425 H 0.39836 0.55989 0.89187 0.0
H1426 H 0.40209 0.50426 0.81985 0.0
H1427 H 0.37587 0.5108 0.81907 0.0
H1428 H 0.39422 0.52747 0.80681 0.0
H1429 H 0.39267 0.53051 0.91212 0.0
H1430 H 0.3744 0.51334 0.90038 0.0
H1431 H 0.40057 0.50654 0.90049 0.0
H1432 H 0.34388 0.46483 0.86126 0.0
H1433 H 0.40697 0.44881 0.86143 0.0
H1434 H 0.34949 0.51602 0.84579 0.0
H1435 H 0.34898 0.51659 0.87335 0.0
H1436 H 0.33264 0.49892 0.85958 0.0
H1437 H 0.42645 0.4965 0.84671 0.0
H1438 H 0.43286 0.47366 0.86117 0.0
H1439 H 0.42615 0.49725 0.87427 0.0
C1440 C 0.89211 0.68485 0.61512 0.0
C1441 C 0.90732 0.68 0.62935 0.0
C1442 C 0.88915 0.7053 0.60872 0.0
C1443 C 0.90197 0.72111 0.61648 0.0
C1444 C 0.9182 0.71605 0.62978 0.0
C1445 C 0.92057 0.69554 0.63622 0.0
C1446 C 0.87156 0.71015 0.59467 0.0
C1447 C 0.93244 0.73243 0.63804 0.0
C1448 C 0.89994 0.77394 0.59114 0.0
C1449 C 0.88739 0.78469 0.60484 0.0
C1450 C 0.90508 0.75326 0.59483 0.0
C1451 C 0.89717 0.7431 0.61241 0.0
C1452 C 0.88448 0.75391 0.62626 0.0
C1453 C 0.87988 0.77464 0.62238 0.0
C1454 C 0.91896 0.7423 0.57997 0.0
C1455 C 0.87557 0.74352 0.64507 0.0
H1456 H 0.88185 0.67284 0.6098 0.0
H1457 H 0.93249 0.69176 0.64706 0.0
H1458 H 0.86013 0.7192 0.60331 0.0
H1459 H 0.87665 0.71977 0.58149 0.0
H1460 H 0.86414 0.69596 0.58857 0.0
H1461 H 0.9457 0.72564 0.64606 0.0
H1462 H 0.93796 0.74246 0.62534 0.0
H1463 H 0.92426 0.74243 0.64912 0.0
H1464 H 0.90586 0.78173 0.57762 0.0
H1465 H 0.8701 0.78288 0.63295 0.0
H1466 H 0.91104 0.72879 0.57309 0.0
H1467 H 0.93238 0.73633 0.58833 0.0
H1468 H 0.92423 0.75256 0.56731 0.0
H1469 H 0.86651 0.72982 0.64034 0.0
H1470 H 0.86571 0.75403 0.6541 0.0
H1471 H 0.88788 0.73797 0.65528 0.0
C1472 C 0.98067 0.13965 0.35327 0.0
C1473 C 0.96646 0.13595 0.36894 0.0
C1474 C 0.00088 0.14459 0.35809 0.0
C1475 C 0.00696 0.14568 0.37902 0.0
C1476 C 0.99294 0.14078 0.3948 0.0
C1477 C 0.97287 0.13607 0.38958 0.0
C1478 C 0.0154 0.14975 0.34085 0.0
C1479 C 0.99888 0.14151 0.41731 0.0
C1480 C 0.06188 0.14827 0.39627 0.0
C1481 C 0.06381 0.16924 0.40146 0.0
C1482 C 0.04371 0.14042 0.38802 0.0
C1483 C 0.02724 0.15393 0.38474 0.0
C1484 C 0.02953 0.1753 0.38886 0.0
C1485 C 0.04774 0.18266 0.39726 0.0
C1486 C 0.0418 0.11755 0.38385 0.0
C1487 C 0.01241 0.19027 0.38531 0.0
H1488 H 0.97583 0.13959 0.33729 0.0
H1489 H 0.96204 0.13295 0.40176 0.0
H1490 H 0.01876 0.16657 0.34106 0.0
H1491 H 0.02995 0.14157 0.34303 0.0
H1492 H 0.00912 0.14565 0.32546 0.0
H1493 H 0.98675 0.13543 0.42754 0.0
H1494 H 0.01283 0.13242 0.41995 0.0
H1495 H 0.00222 0.15771 0.42186 0.0
H1496 H 0.07425 0.13781 0.39944 0.0
H1497 H 0.04923 0.19895 0.40092 0.0
H1498 H 0.03516 0.11476 0.36836 0.0
H1499 H 0.03141 0.11049 0.39533 0.0
H1500 H 0.05662 0.10959 0.3848 0.0
H1501 H 0.00626 0.18846 0.36948 0.0
H1502 H 0.01725 0.2066 0.38749 0.0
H1503 H -9e-05 0.18689 0.39625 0.0
C1504 C 0.60012 0.21975 0.10091 0.0
C1505 C 0.61243 0.20716 0.11318 0.0
C1506 C 0.59564 0.24003 0.10693 0.0
C1507 C 0.60404 0.24796 0.12543 0.0
C1508 C 0.61615 0.23516 0.13807 0.0
C1509 C 0.62003 0.21481 0.13188 0.0
C1510 C 0.58229 0.2531 0.09331 0.0
C1511 C 0.62557 0.24317 0.15778 0.0
C1512 C 0.61234 0.3057 0.13074 0.0
C1513 C 0.59705 0.31101 0.14469 0.0
C1514 C 0.61458 0.28523 0.12406 0.0
C1515 C 0.60092 0.26989 0.1312 0.0
C1516 C 0.58491 0.27536 0.14458 0.0
C1517 C 0.58329 0.29586 0.15134 0.0
C1518 C 0.63199 0.27991 0.10997 0.0
C1519 C 0.56979 0.25949 0.15211 0.0
H1520 H 0.59409 0.2138 0.08651 0.0
H1521 H 0.62963 0.20512 0.14134 0.0
H1522 H 0.56977 0.25982 0.10248 0.0
H1523 H 0.59121 0.26616 0.08688 0.0
H1524 H 0.57571 0.24412 0.08029 0.0
H1525 H 0.63424 0.23109 0.16608 0.0
H1526 H 0.63595 0.25624 0.15424 0.0
H1527 H 0.61367 0.24915 0.16823 0.0
H1528 H 0.62302 0.3174 0.12562 0.0
H1529 H 0.57133 0.30001 0.16199 0.0
H1530 H 0.62628 0.27217 0.09583 0.0
H1531 H 0.64224 0.2689 0.11785 0.0
H1532 H 0.64092 0.29375 0.10538 0.0
H1533 H 0.5632 0.25091 0.13885 0.0
H1534 H 0.55729 0.26659 0.16106 0.0
H1535 H 0.57752 0.24806 0.16207 0.0
C1536 C 0.43176 0.85073 0.89566 0.0
C1537 C 0.43028 0.82968 0.90065 0.0
C1538 C 0.45034 0.85949 0.88957 0.0
C1539 C 0.46771 0.84684 0.88827 0.0
C1540 C 0.46607 0.82544 0.89246 0.0
C1541 C 0.44743 0.81716 0.89867 0.0
C1542 C 0.45155 0.88239 0.8853 0.0
C1543 C 0.4842 0.81137 0.89104 0.0
C1544 C 0.51608 0.86247 0.86066 0.0
C1545 C 0.52881 0.86705 0.87741 0.0
C1546 C 0.49574 0.85684 0.86382 0.0
C1547 C 0.48799 0.85598 0.88417 0.0
C1548 C 0.50045 0.86181 0.90099 0.0
C1549 C 0.52072 0.86717 0.89742 0.0
C1550 C 0.48291 0.85067 0.84551 0.0
C1551 C 0.4927 0.86134 0.92291 0.0
H1552 H 0.41856 0.8605 0.89712 0.0
H1553 H 0.44636 0.80082 0.9022 0.0
H1554 H 0.46088 0.89003 0.89738 0.0
H1555 H 0.45908 0.88528 0.87028 0.0
H1556 H 0.43638 0.8897 0.8851 0.0
H1557 H 0.48006 0.79487 0.89335 0.0
H1558 H 0.49159 0.81301 0.87576 0.0
H1559 H 0.49552 0.81581 0.90293 0.0
H1560 H 0.52223 0.86235 0.84516 0.0
H1561 H 0.53038 0.87098 0.91042 0.0
H1562 H 0.46794 0.85832 0.84617 0.0
H1563 H 0.48014 0.83375 0.84588 0.0
H1564 H 0.4903 0.85463 0.83063 0.0
H1565 H 0.47813 0.86971 0.92407 0.0
H1566 H 0.50362 0.86835 0.93397 0.0
H1567 H 0.48983 0.84511 0.92761 0.0
C1568 C 0.87115 0.22467 0.89213 0.0
C1569 C 0.87478 0.21343 0.87396 0.0
C1570 C 0.87049 0.24629 0.89197 0.0
C1571 C 0.87343 0.25695 0.87319 0.0
C1572 C 0.87633 0.24575 0.85466 0.0
C1573 C 0.87704 0.22409 0.85527 0.0
C1574 C 0.86746 0.25773 0.91206 0.0
C1575 C 0.87935 0.25665 0.8343 0.0
C1576 C 0.86001 0.31382 0.86959 0.0
C1577 C 0.87917 0.32312 0.87133 0.0
C1578 C 0.85781 0.29224 0.87037 0.0
C1579 C 0.87516 0.27981 0.87319 0.0
C1580 C 0.89441 0.28918 0.87572 0.0
C1581 C 0.89619 0.3107 0.87466 0.0
C1582 C 0.83707 0.28273 0.86752 0.0
C1583 C 0.91322 0.27644 0.87909 0.0
H1584 H 0.8693 0.21663 0.90667 0.0
H1585 H 0.87969 0.21556 0.84114 0.0
H1586 H 0.88143 0.2665 0.91599 0.0
H1587 H 0.85504 0.26909 0.91052 0.0
H1588 H 0.86385 0.24714 0.92504 0.0
H1589 H 0.87973 0.24571 0.82108 0.0
H1590 H 0.86704 0.26794 0.83167 0.0
H1591 H 0.89382 0.26544 0.83461 0.0
H1592 H 0.84683 0.32334 0.86686 0.0
H1593 H 0.91102 0.31781 0.87618 0.0
H1594 H 0.83352 0.27222 0.88055 0.0
H1595 H 0.83683 0.27329 0.85322 0.0
H1596 H 0.82501 0.29456 0.86644 0.0
H1597 H 0.9112 0.26622 0.89268 0.0
H1598 H 0.92692 0.28617 0.88157 0.0
H1599 H 0.91585 0.26636 0.86551 0.0
C1600 C 0.44308 0.16291 0.595 0.0
C1601 C 0.42559 0.15169 0.60013 0.0
C1602 C 0.46171 0.15844 0.60425 0.0
C1603 C 0.46294 0.14207 0.61864 0.0
C1604 C 0.44517 0.13121 0.62448 0.0
C1605 C 0.42661 0.1363 0.61527 0.0
C1606 C 0.48025 0.17065 0.59792 0.0
C1607 C 0.44595 0.11348 0.63958 0.0
C1608 C 0.5135 0.11493 0.6197 0.0
C1609 C 0.5223 0.12293 0.63771 0.0
C1610 C 0.49397 0.12064 0.61369 0.0
C1611 C 0.48309 0.135 0.6258 0.0
C1612 C 0.49183 0.14308 0.64408 0.0
C1613 C 0.51134 0.1368 0.64993 0.0
C1614 C 0.48506 0.11146 0.59422 0.0
C1615 C 0.48077 0.15866 0.65717 0.0
H1616 H 0.44226 0.17502 0.58349 0.0
H1617 H 0.41308 0.12761 0.61924 0.0
H1618 H 0.48874 0.17596 0.61174 0.0
H1619 H 0.49051 0.16064 0.58884 0.0
H1620 H 0.47635 0.18434 0.58841 0.0
H1621 H 0.4306 0.10796 0.644 0.0
H1622 H 0.45429 0.10042 0.63256 0.0
H1623 H 0.45426 0.1181 0.65375 0.0
H1624 H 0.52186 0.10405 0.61031 0.0
H1625 H 0.51814 0.14304 0.66385 0.0
H1626 H 0.48241 0.12385 0.58273 0.0
H1627 H 0.47018 0.10417 0.5976 0.0
H1628 H 0.49508 0.09968 0.58717 0.0
H1629 H 0.47803 0.17288 0.64806 0.0
H1630 H 0.48938 0.16291 0.6713 0.0
H1631 H 0.46577 0.15245 0.6618 0.0
C1632 C 0.61624 0.77962 0.39109 0.0
C1633 C 0.61634 0.79313 0.37416 0.0
C1634 C 0.61607 0.7582 0.38831 0.0
C1635 C 0.6162 0.75002 0.36808 0.0
C1636 C 0.61638 0.76349 0.35087 0.0
C1637 C 0.61632 0.78495 0.35411 0.0
C1638 C 0.61563 0.7443 0.40703 0.0
C1639 C 0.6167 0.75523 0.32908 0.0
C1640 C 0.63391 0.69466 0.36304 0.0
C1641 C 0.61545 0.68395 0.36143 0.0
C1642 C 0.63439 0.71625 0.36472 0.0
C1643 C 0.61598 0.72732 0.36508 0.0
C1644 C 0.59731 0.71661 0.36355 0.0
C1645 C 0.59727 0.69505 0.36163 0.0
C1646 C 0.65459 0.72723 0.36617 0.0
C1647 C 0.57737 0.7279 0.3642 0.0
H1648 H 0.61608 0.78579 0.40665 0.0
H1649 H 0.61646 0.79529 0.34097 0.0
H1650 H 0.60204 0.73416 0.4065 0.0
H1651 H 0.62909 0.73413 0.40707 0.0
H1652 H 0.61542 0.75317 0.42172 0.0
H1653 H 0.61712 0.76777 0.31739 0.0
H1654 H 0.63013 0.74525 0.32687 0.0
H1655 H 0.6031 0.7455 0.32626 0.0
H1656 H 0.64802 0.6862 0.36269 0.0
H1657 H 0.58294 0.68688 0.36045 0.0
H1658 H 0.6558 0.73544 0.38115 0.0
H1659 H 0.65585 0.73903 0.35382 0.0
H1660 H 0.66753 0.71643 0.36479 0.0
H1661 H 0.5759 0.73623 0.3791 0.0
H1662 H 0.56419 0.71729 0.36243 0.0
H1663 H 0.5768 0.73963 0.35176 0.0
C1664 C 0.05224 0.82609 0.10523 0.0
C1665 C 0.07009 0.83612 0.11141 0.0
C1666 C 0.03367 0.83067 0.11454 0.0
C1667 C 0.03289 0.84598 0.13012 0.0
C1668 C 0.05101 0.85559 0.137 0.0
C1669 C 0.06949 0.85038 0.12767 0.0
C1670 C 0.01476 0.81975 0.10706 0.0
C1671 C 0.05073 0.87218 0.15338 0.0
C1672 C 0.98269 0.87386 0.13237 0.0
C1673 C 0.97333 0.86438 0.14931 0.0
C1674 C 0.00242 0.86859 0.12654 0.0
C1675 C 0.01289 0.85317 0.13768 0.0
C1676 C 0.00366 0.84379 0.15505 0.0
C1677 C 0.984 0.84966 0.16078 0.0
C1678 C 0.01187 0.8792 0.10813 0.0
C1679 C 0.01423 0.82706 0.16708 0.0
H1680 H 0.05272 0.81488 0.0928 0.0
H1681 H 0.08329 0.85819 0.13242 0.0
H1682 H 0.00596 0.81366 0.12032 0.0
H1683 H 0.00496 0.83086 0.09877 0.0
H1684 H 0.01824 0.80675 0.09646 0.0
H1685 H 0.06622 0.87666 0.15845 0.0
H1686 H 0.04307 0.8861 0.14723 0.0
H1687 H 0.04199 0.86692 0.16703 0.0
H1688 H 0.97456 0.8854 0.12359 0.0
H1689 H 0.97676 0.84228 0.17387 0.0
H1690 H 0.01415 0.86783 0.09553 0.0
H1691 H 0.02697 0.88556 0.11229 0.0
H1692 H 0.00235 0.89196 0.10215 0.0
H1693 H 0.01633 0.81331 0.15709 0.0
H1694 H 0.00557 0.82232 0.181 0.0
H1695 H 0.02951 0.83237 0.17194 0.0
C1696 C 0.64522 0.90894 0.70043 0.0
C1697 C 0.64203 0.89217 0.6871 0.0
C1698 C 0.63557 0.9098 0.71965 0.0
C1699 C 0.62283 0.89327 0.72581 0.0
C1700 C 0.61902 0.87665 0.71209 0.0
C1701 C 0.62854 0.87641 0.69276 0.0
C1702 C 0.63965 0.92799 0.73369 0.0
C1703 C 0.60575 0.8586 0.71822 0.0
C1704 C 0.62118 0.88088 0.78271 0.0
C1705 C 0.60192 0.88789 0.78836 0.0
C1706 C 0.62811 0.88268 0.76242 0.0
C1707 C 0.6156 0.89204 0.74743 0.0
C1708 C 0.59632 0.89964 0.75308 0.0
C1709 C 0.58958 0.89729 0.77353 0.0
C1710 C 0.64869 0.87417 0.75698 0.0
C1711 C 0.5828 0.91007 0.73751 0.0
H1712 H 0.65533 0.92137 0.69586 0.0
H1713 H 0.62596 0.86353 0.68237 0.0
H1714 H 0.62527 0.93396 0.74016 0.0
H1715 H 0.64918 0.923 0.74686 0.0
H1716 H 0.64759 0.94078 0.72556 0.0
H1717 H 0.60297 0.84781 0.70517 0.0
H1718 H 0.61311 0.84993 0.73092 0.0
H1719 H 0.59097 0.86413 0.72408 0.0
H1720 H 0.63077 0.87351 0.79408 0.0
H1721 H 0.57472 0.90279 0.77789 0.0
H1722 H 0.65847 0.88662 0.75065 0.0
H1723 H 0.64711 0.86215 0.74485 0.0
H1724 H 0.65648 0.86725 0.77049 0.0
H1725 H 0.59104 0.923 0.72997 0.0
H1726 H 0.56876 0.91618 0.74463 0.0
H1727 H 0.57851 0.89894 0.72521 0.0
C1728 C 0.87802 0.87316 0.5273 0.0
C1729 C 0.86202 0.87756 0.54072 0.0
C1730 C 0.87632 0.87709 0.50611 0.0
C1731 C 0.85789 0.88485 0.49818 0.0
C1732 C 0.84148 0.88875 0.51166 0.0
C1733 C 0.84389 0.88541 0.53289 0.0
C1734 C 0.89436 0.87344 0.49231 0.0
C1735 C 0.82141 0.89644 0.50367 0.0
C1736 C 0.85718 0.9152 0.44835 0.0
C1737 C 0.85136 0.90004 0.4341 0.0
C1738 C 0.86 0.91026 0.46917 0.0
C1739 C 0.85607 0.88986 0.47594 0.0
C1740 C 0.85006 0.87449 0.46157 0.0
C1741 C 0.84816 0.8797 0.44063 0.0
C1742 C 0.86714 0.9269 0.48389 0.0
C1743 C 0.8451 0.85274 0.46838 0.0
H1744 H 0.89205 0.86712 0.53349 0.0
H1745 H 0.83144 0.8885 0.54333 0.0
H1746 H 0.89037 0.8623 0.47993 0.0
H1747 H 0.89886 0.88812 0.4847 0.0
H1748 H 0.90759 0.86738 0.50095 0.0
H1749 H 0.80973 0.89715 0.51597 0.0
H1750 H 0.82331 0.91211 0.49701 0.0
H1751 H 0.81582 0.88618 0.49114 0.0
H1752 H 0.8598 0.9309 0.44313 0.0
H1753 H 0.8435 0.86809 0.42951 0.0
H1754 H 0.88076 0.92161 0.49239 0.0
H1755 H 0.85522 0.93006 0.49549 0.0
H1756 H 0.87089 0.94157 0.47584 0.0
H1757 H 0.85837 0.84576 0.47613 0.0
H1758 H 0.84051 0.84268 0.45528 0.0
H1759 H 0.83259 0.85305 0.47981 0.0
C1760 C 0.8702 0.09357 0.18108 0.0
C1761 C 0.86939 0.11147 0.16887 0.0
C1762 C 0.87766 0.09424 0.2013 0.0
C1763 C 0.88442 0.11329 0.20957 0.0
C1764 C 0.88419 0.13131 0.1972 0.0
C1765 C 0.8767 0.13018 0.17696 0.0
C1766 C 0.87772 0.07469 0.21401 0.0
C1767 C 0.89125 0.15191 0.20558 0.0
C1768 C 0.88033 0.12057 0.2673 0.0
C1769 C 0.90044 0.11807 0.27371 0.0
C1770 C 0.87496 0.11894 0.24648 0.0
C1771 C 0.89009 0.11467 0.23168 0.0
C1772 C 0.91039 0.11176 0.23804 0.0
C1773 C 0.91535 0.11349 0.25906 0.0
C1774 C 0.85312 0.12203 0.2403 0.0
C1775 C 0.92686 0.1071 0.22262 0.0
H1776 H 0.86483 0.07895 0.17492 0.0
H1777 H 0.87623 0.14406 0.16763 0.0
H1778 H 0.89292 0.07217 0.22082 0.0
H1779 H 0.86687 0.07618 0.22698 0.0
H1780 H 0.87346 0.06086 0.20478 0.0
H1781 H 0.89145 0.16413 0.19356 0.0
H1782 H 0.88106 0.15687 0.21823 0.0
H1783 H 0.90668 0.15053 0.21219 0.0
H1784 H 0.8687 0.12406 0.27855 0.0
H1785 H 0.93092 0.11158 0.26396 0.0
H1786 H 0.84734 0.10812 0.23214 0.0
H1787 H 0.85194 0.13522 0.22946 0.0
H1788 H 0.84318 0.12509 0.25378 0.0
H1789 H 0.92292 0.093 0.21371 0.0
H1790 H 0.94181 0.10478 0.23013 0.0
H1791 H 0.92822 0.11998 0.21142 0.0
C1792 C 0.61995 0.1235 0.93456 0.0
C1793 C 0.63827 0.1218 0.92378 0.0
C1794 C 0.61972 0.12552 0.95612 0.0
C1795 C 0.63826 0.12616 0.96708 0.0
C1796 C 0.65681 0.12547 0.95621 0.0
C1797 C 0.6566 0.12316 0.9347 0.0
C1798 C 0.59964 0.12607 0.96722 0.0
C1799 C 0.67688 0.12648 0.96736 0.0
C1800 C 0.63729 0.14537 0.02242 0.0
C1801 C 0.63747 0.12675 0.03353 0.0
C1802 C 0.63779 0.14544 0.00078 0.0
C1803 C 0.63823 0.12645 0.99 0.0
C1804 C 0.63848 0.10761 0.00109 0.0
C1805 C 0.63823 0.10799 0.02273 0.0
C1806 C 0.63779 0.16583 0.98947 0.0
C1807 C 0.63877 0.08703 0.99008 0.0
H1808 H 0.60573 0.12236 0.92627 0.0
H1809 H 0.67083 0.12204 0.92646 0.0
H1810 H 0.59806 0.11216 0.9771 0.0
H1811 H 0.59891 0.13976 0.97749 0.0
H1812 H 0.58661 0.12653 0.95637 0.0
H1813 H 0.68989 0.12743 0.95653 0.0
H1814 H 0.67738 0.1401 0.97777 0.0
H1815 H 0.67871 0.11253 0.9771 0.0
H1816 H 0.63685 0.15995 0.03064 0.0
H1817 H 0.63828 0.09355 0.03117 0.0
H1818 H 0.62419 0.16687 0.97947 0.0
H1819 H 0.65123 0.16691 0.97926 0.0
H1820 H 0.63793 0.17925 0.00016 0.0
H1821 H 0.6253 0.08558 0.97992 0.0
H1822 H 0.63885 0.07379 0.00098 0.0
H1823 H 0.65236 0.08601 0.9801 0.0
C1824 C 0.63129 0.11947 0.80576 0.0
C1825 C 0.64121 0.10191 0.81314 0.0
C1826 C 0.62417 0.1202 0.78535 0.0
C1827 C 0.6266 0.10275 0.77239 0.0
C1828 C 0.63561 0.0846 0.78024 0.0
C1829 C 0.64307 0.08451 0.80045 0.0
C1830 C 0.61498 0.13994 0.77736 0.0
C1831 C 0.63801 0.06549 0.76707 0.0
C1832 C 0.59721 0.09802 0.72224 0.0
C1833 C 0.61227 0.10271 0.70773 0.0
C1834 C 0.60153 0.09825 0.74345 0.0
C1835 C 0.6212 0.10384 0.7502 0.0
C1836 C 0.63624 0.10928 0.7356 0.0
C1837 C 0.63166 0.10838 0.71452 0.0
C1838 C 0.58528 0.09186 0.75856 0.0
C1839 C 0.65729 0.11572 0.74224 0.0
H1840 H 0.62994 0.13292 0.81562 0.0
H1841 H 0.65052 0.07083 0.8063 0.0
H1842 H 0.62499 0.14669 0.76534 0.0
H1843 H 0.60012 0.13676 0.77001 0.0
H1844 H 0.61287 0.15158 0.78978 0.0
H1845 H 0.64343 0.05205 0.77614 0.0
H1846 H 0.62339 0.06131 0.75969 0.0
H1847 H 0.64904 0.06861 0.75454 0.0
H1848 H 0.58223 0.09354 0.71697 0.0
H1849 H 0.64325 0.11227 0.70331 0.0
H1850 H 0.58318 0.10402 0.77042 0.0
H1851 H 0.59 0.07761 0.76672 0.0
H1852 H 0.57051 0.08886 0.75087 0.0
H1853 H 0.65645 0.12834 0.7538 0.0
H1854 H 0.66669 0.12106 0.72906 0.0
H1855 H 0.66502 0.10251 0.7497 0.0
C1856 C 0.62564 0.87627 0.47813 0.0
C1857 C 0.63023 0.85732 0.46885 0.0
C1858 C 0.62779 0.87901 0.4995 0.0
C1859 C 0.63466 0.86238 0.51178 0.0
C1860 C 0.63972 0.84336 0.50243 0.0
C1861 C 0.63746 0.84106 0.48105 0.0
C1862 C 0.62235 0.89956 0.50898 0.0
C1863 C 0.64714 0.8253 0.51504 0.0
C1864 C 0.65501 0.87515 0.56501 0.0
C1865 C 0.6381 0.87107 0.57752 0.0
C1866 C 0.65421 0.87209 0.54361 0.0
C1867 C 0.63608 0.86475 0.5345 0.0
C1868 C 0.61914 0.86005 0.54704 0.0
C1869 C 0.62035 0.86325 0.56841 0.0
C1870 C 0.67261 0.87716 0.5307 0.0
C1871 C 0.59959 0.85207 0.53783 0.0
H1872 H 0.62007 0.88889 0.46876 0.0
H1873 H 0.64106 0.82637 0.47395 0.0
H1874 H 0.60964 0.89748 0.51998 0.0
H1875 H 0.63539 0.90582 0.51785 0.0
H1876 H 0.61785 0.91112 0.4972 0.0
H1877 H 0.65111 0.81179 0.5053 0.0
H1878 H 0.66067 0.82991 0.52415 0.0
H1879 H 0.63527 0.82049 0.52618 0.0
H1880 H 0.66884 0.88111 0.57185 0.0
H1881 H 0.60721 0.86003 0.5779 0.0
H1882 H 0.669 0.88985 0.51982 0.0
H1883 H 0.67698 0.86357 0.52131 0.0
H1884 H 0.68579 0.88196 0.54026 0.0
H1885 H 0.59327 0.86375 0.52712 0.0
H1886 H 0.58805 0.8485 0.54978 0.0
H1887 H 0.60245 0.83789 0.52869 0.0
C1888 C 0.86237 0.89827 0.31221 0.0
C1889 C 0.85938 0.88062 0.32443 0.0
C1890 C 0.86701 0.89661 0.29123 0.0
C1891 C 0.86854 0.87681 0.28215 0.0
C1892 C 0.86573 0.8589 0.29435 0.0
C1893 C 0.86129 0.86101 0.31544 0.0
C1894 C 0.87012 0.91609 0.27876 0.0
C1895 C 0.86712 0.83755 0.28506 0.0
C1896 C 0.86086 0.87686 0.22427 0.0
C1897 C 0.8809 0.87699 0.2171 0.0
C1898 C 0.8566 0.87582 0.24543 0.0
C1899 C 0.87276 0.87512 0.25974 0.0
C1900 C 0.893 0.87465 0.25262 0.0
C1901 C 0.89682 0.8755 0.23136 0.0
C1902 C 0.83481 0.87615 0.25247 0.0
C1903 C 0.91062 0.8741 0.26747 0.0
H1904 H 0.86115 0.9135 0.31906 0.0
H1905 H 0.85894 0.84732 0.32479 0.0
H1906 H 0.88523 0.91591 0.27131 0.0
H1907 H 0.85864 0.91689 0.26628 0.0
H1908 H 0.86895 0.93028 0.28833 0.0
H1909 H 0.86493 0.82519 0.29674 0.0
H1910 H 0.85546 0.83568 0.27285 0.0
H1911 H 0.88209 0.83546 0.27764 0.0
H1912 H 0.84845 0.87776 0.21335 0.0
H1913 H 0.91235 0.87557 0.22597 0.0
H1914 H 0.83179 0.89079 0.26081 0.0
H1915 H 0.83185 0.8633 0.2634 0.0
H1916 H 0.82401 0.87485 0.23938 0.0
H1917 H 0.91115 0.88868 0.27649 0.0
H1918 H 0.92534 0.87221 0.25943 0.0
H1919 H 0.90869 0.86125 0.27862 0.0
C1920 C 0.8521 0.14448 0.97058 0.0
C1921 C 0.86648 0.13437 0.95839 0.0
C1922 C 0.84753 0.13742 0.99049 0.0
C1923 C 0.8579 0.1201 -0.00155 0.0
C1924 C 0.87232 0.10973 0.98612 0.0
C1925 C 0.87631 0.11689 0.96612 0.0
C1926 C 0.8318 0.14862 0.00308 0.0
C1927 C 0.8839 0.09139 0.99424 0.0
C1928 C 0.86313 0.11528 0.0564 0.0
C1929 C 0.84916 0.09952 0.06081 0.0
C1930 C 0.86601 0.12221 0.03615 0.0
C1931 C 0.85438 0.11338 0.02001 0.0
C1932 C 0.83984 0.09786 0.02445 0.0
C1933 C 0.83751 0.09097 0.04483 0.0
C1934 C 0.88182 0.13864 0.03197 0.0
C1935 C 0.82693 0.0884 0.00764 0.0
H1936 H 0.84432 0.15788 0.96453 0.0
H1937 H 0.88747 0.10908 0.95671 0.0
H1938 H 0.82012 0.13757 0.00863 0.0
H1939 H 0.83899 0.15565 0.0169 0.0
H1940 H 0.82421 0.16102 0.99415 0.0
H1941 H 0.89431 0.08481 0.98252 0.0
H1942 H 0.89291 0.09607 0.00794 0.0
H1943 H 0.87323 0.0791 -0.00072 0.0
H1944 H 0.87219 0.12189 0.06873 0.0
H1945 H 0.8266 0.07888 0.04825 0.0
H1946 H 0.87478 0.15213 0.02431 0.0
H1947 H 0.89347 0.1325 0.0213 0.0
H1948 H 0.88946 0.14402 0.04629 0.0
H1949 H 0.81884 0.10069 -0.00093 0.0
H1950 H 0.8156 0.07727 0.01382 0.0
H1951 H 0.83667 0.08022 0.99639 0.0
C1952 C 0.76465 0.59232 0.88911 0.0
C1953 C 0.7752 0.60507 0.87529 0.0
C1954 C 0.74534 0.59782 0.89629 0.0
C1955 C 0.73634 0.61629 0.88913 0.0
C1956 C 0.74675 0.62889 0.87475 0.0
C1957 C 0.76612 0.62322 0.86816 0.0
C1958 C 0.73481 0.5842 0.91188 0.0
C1959 C 0.73755 0.64854 0.8665 0.0
C1960 C 0.67996 0.62649 0.89241 0.0
C1961 C 0.67933 0.64139 0.9081 0.0
C1962 C 0.69834 0.61738 0.88665 0.0
C1963 C 0.71637 0.62307 0.89711 0.0
C1964 C 0.71555 0.63711 0.91384 0.0
C1965 C 0.69705 0.64627 0.919 0.0
C1966 C 0.69866 0.60266 0.86857 0.0
C1967 C 0.73437 0.64325 0.92565 0.0
H1968 H 0.7717 0.57831 0.89472 0.0
H1969 H 0.77416 0.63304 0.85733 0.0
H1970 H 0.73267 0.59286 0.92649 0.0
H1971 H 0.71955 0.57973 0.90621 0.0
H1972 H 0.74349 0.56994 0.91525 0.0
H1973 H 0.74718 0.656 0.85456 0.0
H1974 H 0.72245 0.64524 0.85969 0.0
H1975 H 0.73531 0.65969 0.87929 0.0
H1976 H 0.66626 0.6227 0.88395 0.0
H1977 H 0.69655 0.65761 0.93131 0.0
H1978 H 0.70717 0.58848 0.87253 0.0
H1979 H 0.70655 0.61009 0.85539 0.0
H1980 H 0.68317 0.59815 0.86352 0.0
H1981 H 0.74305 0.62935 0.93019 0.0
H1982 H 0.73079 0.65229 0.93975 0.0
H1983 H 0.74433 0.65279 0.91564 0.0
C1984 C 0.27501 0.84996 0.11439 0.0
C1985 C 0.2816 0.87058 0.11544 0.0
C1986 C 0.25471 0.84504 0.11032 0.0
C1987 C 0.24065 0.86112 0.10709 0.0
C1988 C 0.24693 0.88197 0.10922 0.0
C1989 C 0.26736 0.88646 0.11343 0.0
C1990 C 0.24858 0.8226 0.10836 0.0
C1991 C 0.23237 0.89953 0.10586 0.0
C1992 C 0.19858 0.84662 0.07011 0.0
C1993 C 0.18258 0.84192 0.08356 0.0
C1994 C 0.21726 0.8537 0.07759 0.0
C1995 C 0.22012 0.85603 0.0991 0.0
C1996 C 0.20384 0.85205 0.11277 0.0
C1997 C 0.18518 0.84512 0.10482 0.0
C1998 C 0.23416 0.858 0.06245 0.0
C1999 C 0.20638 0.85434 0.13581 0.0
H2000 H 0.28584 0.83757 0.11619 0.0
H2001 H 0.27229 0.90244 0.11426 0.0
H2002 H 0.23479 0.81941 0.11762 0.0
H2003 H 0.24488 0.81908 0.09202 0.0
H2004 H 0.26076 0.81199 0.11346 0.0
H2005 H 0.23889 0.91463 0.11072 0.0
H2006 H 0.22842 0.90047 0.08924 0.0
H2007 H 0.2181 0.8968 0.11447 0.0
H2008 H 0.19661 0.84451 0.05363 0.0
H2009 H 0.17287 0.84155 0.1153 0.0
H2010 H 0.24661 0.84683 0.0649 0.0
H2011 H 0.2405 0.8737 0.06501 0.0
H2012 H 0.22905 0.85678 0.04616 0.0
H2013 H 0.21701 0.84244 0.14155 0.0
H2014 H 0.19179 0.8526 0.14417 0.0
H2015 H 0.21305 0.86965 0.13961 0.0
C2016 C 0.88618 0.53195 0.85758 0.0
C2017 C 0.86665 0.53833 0.85218 0.0
C2018 C 0.89092 0.51095 0.85885 0.0
C2019 C 0.8759 0.496 0.85409 0.0
C2020 C 0.85621 0.50234 0.84836 0.0
C2021 C 0.85172 0.52349 0.84775 0.0
C2022 C 0.91199 0.50475 0.86541 0.0
C2023 C 0.84002 0.4868 0.84262 0.0
C2024 C 0.89759 0.44427 0.83901 0.0
C2025 C 0.89526 0.43304 0.8573 0.0
C2026 C 0.89029 0.46445 0.83738 0.0
C2027 C 0.88111 0.47378 0.85474 0.0
C2028 C 0.87836 0.46231 0.87314 0.0
C2029 C 0.8852 0.44184 0.87408 0.0
C2030 C 0.89288 0.47593 0.81727 0.0
C2031 C 0.869 0.47191 0.89208 0.0
H2032 H 0.89767 0.54341 0.86125 0.0
H2033 H 0.83664 0.52845 0.84348 0.0
H2034 H 0.91117 0.49428 0.87893 0.0
H2035 H 0.91949 0.49615 0.85276 0.0
H2036 H 0.9216 0.51829 0.86951 0.0
H2037 H 0.82554 0.49429 0.83827 0.0
H2038 H 0.84523 0.47722 0.82947 0.0
H2039 H 0.83713 0.47619 0.85573 0.0
H2040 H 0.90506 0.43721 0.8259 0.0
H2041 H 0.8834 0.43301 0.88818 0.0
H2042 H 0.90421 0.4885 0.81926 0.0
H2043 H 0.87842 0.4832 0.81259 0.0
H2044 H 0.89803 0.46565 0.8046 0.0
H2045 H 0.87879 0.48475 0.89766 0.0
H2046 H 0.86702 0.46058 0.9048 0.0
H2047 H 0.85404 0.4786 0.88827 0.0
C2048 C 0.23413 0.09176 0.60556 0.0
C2049 C 0.22161 0.10532 0.61651 0.0
C2050 C 0.25268 0.09856 0.59737 0.0
C2051 C 0.2588 0.11936 0.60029 0.0
C2052 C 0.24637 0.13299 0.61162 0.0
C2053 C 0.22792 0.12582 0.61956 0.0
C2054 C 0.26556 0.08361 0.58531 0.0
C2055 C 0.25241 0.15528 0.6151 0.0
C2056 C 0.31363 0.13596 0.59388 0.0
C2057 C 0.31318 0.14551 0.57444 0.0
C2058 C 0.29616 0.12684 0.60227 0.0
C2059 C 0.27785 0.12721 0.59092 0.0
C2060 C 0.27742 0.13625 0.57107 0.0
C2061 C 0.29507 0.14532 0.56308 0.0
C2062 C 0.29714 0.11735 0.62352 0.0
C2063 C 0.25818 0.13685 0.55846 0.0
H2064 H 0.22931 0.0759 0.60315 0.0
H2065 H 0.21835 0.13637 0.62807 0.0
H2066 H 0.26719 0.08908 0.56917 0.0
H2067 H 0.28099 0.08292 0.59205 0.0
H2068 H 0.259 0.06777 0.58508 0.0
H2069 H 0.24134 0.16368 0.62485 0.0
H2070 H 0.26748 0.15612 0.62264 0.0
H2071 H 0.25369 0.16336 0.60006 0.0
H2072 H 0.32754 0.13596 0.60277 0.0
H2073 H 0.29457 0.15246 0.54798 0.0
H2074 H 0.29119 0.1013 0.62315 0.0
H2075 H 0.28745 0.12624 0.63428 0.0
H2076 H 0.31281 0.11714 0.62978 0.0
H2077 H 0.25169 0.12108 0.55689 0.0
H2078 H 0.26068 0.14333 0.5428 0.0
H2079 H 0.24675 0.14645 0.56648 0.0
C2080 C 0.15521 0.98374 0.85531 0.0
C2081 C 0.14284 0.97019 0.86658 0.0
C2082 C 0.14936 0.00431 0.85204 0.0
C2083 C 0.13095 0.01141 0.86058 0.0
C2084 C 0.11846 0.99777 0.87198 0.0
C2085 C 0.12449 0.97729 0.87469 0.0
C2086 C 0.16281 0.01841 0.83948 0.0
C2087 C 0.0988 0.00483 0.88151 0.0
C2088 C 0.12115 0.06807 0.8708 0.0
C2089 C 0.10713 0.07255 0.85525 0.0
C2090 C 0.12973 0.04836 0.87227 0.0
C2091 C 0.12439 0.03304 0.85759 0.0
C2092 C 0.11103 0.03788 0.84125 0.0
C2093 C 0.10239 0.05755 0.8404 0.0
C2094 C 0.1437 0.04364 0.89008 0.0
C2095 C 0.10528 0.02205 0.8251 0.0
H2096 H 0.16939 0.97825 0.84899 0.0
H2097 H 0.11493 0.96691 0.88354 0.0
H2098 H 0.15422 0.0247 0.82619 0.0
H2099 H 0.16779 0.03175 0.849 0.0
H2100 H 0.17643 0.01036 0.83355 0.0
H2101 H 0.0911 0.99236 0.89034 0.0
H2102 H 0.10167 0.01805 0.89205 0.0
H2103 H 0.08835 0.01028 0.86928 0.0
H2104 H 0.12488 0.07975 0.88221 0.0
H2105 H 0.09181 0.06114 0.82813 0.0
H2106 H 0.1579 0.03658 0.88439 0.0
H2107 H 0.13634 0.03225 0.90049 0.0
H2108 H 0.14759 0.05766 0.8992 0.0
H2109 H 0.11901 0.01455 0.81879 0.0
H2110 H 0.09664 0.02897 0.81214 0.0
H2111 H 0.09582 0.00977 0.83222 0.0
C2112 C 0.80402 0.34091 0.39818 0.0
C2113 C 0.81854 0.35302 0.40835 0.0
C2114 C 0.78466 0.34855 0.39416 0.0
C2115 C 0.77949 0.36856 0.40112 0.0
C2116 C 0.79431 0.38111 0.41094 0.0
C2117 C 0.81387 0.37326 0.41418 0.0
C2118 C 0.76951 0.33488 0.3831 0.0
C2119 C 0.7892 0.40233 0.41899 0.0
C2120 C 0.73048 0.38983 0.37938 0.0
C2121 C 0.71646 0.3825 0.39388 0.0
C2122 C 0.75127 0.38612 0.38186 0.0
C2123 C 0.75811 0.37537 0.39954 0.0
C2124 C 0.74405 0.36902 0.41479 0.0
C2125 C 0.72335 0.37239 0.41161 0.0
C2126 C 0.76574 0.39269 0.36505 0.0
C2127 C 0.75078 0.35795 0.4341 0.0
H2128 H 0.80779 0.32531 0.39349 0.0
H2129 H 0.82516 0.38252 0.42215 0.0
H2130 H 0.75734 0.33018 0.39394 0.0
H2131 H 0.76229 0.34344 0.37025 0.0
H2132 H 0.77659 0.3207 0.37677 0.0
H2133 H 0.80283 0.41086 0.42445 0.0
H2134 H 0.78163 0.41159 0.40687 0.0
H2135 H 0.77843 0.40085 0.43204 0.0
H2136 H 0.72511 0.39765 0.36566 0.0
H2137 H 0.71251 0.36704 0.42301 0.0
H2138 H 0.77168 0.37877 0.35714 0.0
H2139 H 0.7789 0.4011 0.37169 0.0
H2140 H 0.75836 0.40271 0.35338 0.0
H2141 H 0.75622 0.34228 0.43005 0.0
H2142 H 0.73833 0.35635 0.44552 0.0
H2143 H 0.76357 0.36637 0.44146 0.0
C2144 C 0.84373 0.47668 0.63815 0.0
C2145 C 0.86026 0.46353 0.64144 0.0
C2146 C 0.8466 0.49803 0.63553 0.0
C2147 C 0.86645 0.50635 0.63603 0.0
C2148 C 0.88317 0.49318 0.63926 0.0
C2149 C 0.87987 0.47197 0.64202 0.0
C2150 C 0.82842 0.5117 0.63235 0.0
C2151 C 0.9046 0.50148 0.63981 0.0
C2152 C 0.87947 0.55826 0.61219 0.0
C2153 C 0.8818 0.57061 0.62983 0.0
C2154 C 0.87368 0.53742 0.61389 0.0
C2155 C 0.86993 0.5289 0.63365 0.0
C2156 C 0.87121 0.54159 0.65138 0.0
C2157 C 0.87722 0.56226 0.64926 0.0
C2158 C 0.87254 0.52429 0.59465 0.0
C2159 C 0.86709 0.53313 0.6727 0.0
H2160 H 0.82852 0.47032 0.63773 0.0
H2161 H 0.89275 0.46196 0.64442 0.0
H2162 H 0.8277 0.52344 0.64481 0.0
H2163 H 0.82983 0.52015 0.61754 0.0
H2164 H 0.81399 0.50279 0.63223 0.0
H2165 H 0.91596 0.48908 0.642 0.0
H2166 H 0.90805 0.50973 0.62522 0.0
H2167 H 0.90626 0.5128 0.65257 0.0
H2168 H 0.88297 0.56462 0.59714 0.0
H2169 H 0.8787 0.5718 0.66296 0.0
H2170 H 0.85793 0.51579 0.59403 0.0
H2171 H 0.88477 0.51261 0.59498 0.0
H2172 H 0.87417 0.53362 0.58036 0.0
H2173 H 0.85238 0.52478 0.67298 0.0
H2174 H 0.86683 0.54548 0.68462 0.0
H2175 H 0.879 0.52188 0.6769 0.0
C2176 C 0.61776 0.52056 0.14102 0.0
C2177 C 0.63724 0.52922 0.13988 0.0
C2178 C 0.61484 0.49912 0.14032 0.0
C2179 C 0.63183 0.486 0.13871 0.0
C2180 C 0.65155 0.49458 0.13767 0.0
C2181 C 0.65402 0.51612 0.13815 0.0
C2182 C 0.59355 0.4905 0.14128 0.0
C2183 C 0.67001 0.48102 0.13621 0.0
C2184 C 0.62257 0.43126 0.15706 0.0
C2185 C 0.61898 0.42085 0.1384 0.0
C2186 C 0.6276 0.45232 0.15732 0.0
C2187 C 0.62883 0.46327 0.13848 0.0
C2188 C 0.62587 0.45273 0.11956 0.0
C2189 C 0.62111 0.43158 0.11973 0.0
C2190 C 0.63095 0.46297 0.1778 0.0
C2191 C 0.62689 0.46398 0.09918 0.0
H2192 H 0.6047 0.53055 0.1422 0.0
H2193 H 0.66913 0.52269 0.13736 0.0
H2194 H 0.59049 0.48076 0.12752 0.0
H2195 H 0.59185 0.48049 0.15506 0.0
H2196 H 0.58195 0.50284 0.14201 0.0
H2197 H 0.68429 0.49014 0.13549 0.0
H2198 H 0.6707 0.4706 0.14978 0.0
H2199 H 0.66901 0.47109 0.12228 0.0
H2200 H 0.62119 0.42301 0.17155 0.0
H2201 H 0.6183 0.42363 0.10527 0.0
H2202 H 0.61874 0.47436 0.18049 0.0
H2203 H 0.6455 0.47162 0.17768 0.0
H2204 H 0.63109 0.45192 0.1909 0.0
H2205 H 0.61448 0.47542 0.09831 0.0
H2206 H 0.62553 0.45331 0.0858 0.0
H2207 H 0.64137 0.47265 0.09788 0.0
C2208 C 0.61452 0.73816 0.9091 0.0
C2209 C 0.62577 0.72477 0.89662 0.0
C2210 C 0.60887 0.7577 0.90204 0.0
C2211 C 0.61517 0.76426 0.88226 0.0
C2212 C 0.62684 0.75097 0.86968 0.0
C2213 C 0.6318 0.7312 0.87693 0.0
C2214 C 0.59599 0.77125 0.9157 0.0
C2215 C 0.63419 0.7577 0.84867 0.0
C2216 C 0.58599 0.80746 0.85672 0.0
C2217 C 0.59786 0.8247 0.86189 0.0
C2218 C 0.59143 0.78765 0.86331 0.0
C2219 C 0.60944 0.78506 0.87484 0.0
C2220 C 0.62156 0.80244 0.87997 0.0
C2221 C 0.61544 0.82215 0.87366 0.0
C2222 C 0.57783 0.76954 0.8581 0.0
C2223 C 0.64106 0.80018 0.89191 0.0
H2224 H 0.60982 0.73331 0.92434 0.0
H2225 H 0.64062 0.7209 0.86733 0.0
H2226 H 0.60423 0.78576 0.9194 0.0
H2227 H 0.58191 0.7756 0.90746 0.0
H2228 H 0.59178 0.76351 0.93039 0.0
H2229 H 0.64361 0.74574 0.84107 0.0
H2230 H 0.6211 0.76117 0.83855 0.0
H2231 H 0.64327 0.77212 0.8501 0.0
H2232 H 0.57235 0.80951 0.84765 0.0
H2233 H 0.62473 0.8355 0.87744 0.0
H2234 H 0.57281 0.76176 0.87249 0.0
H2235 H 0.58628 0.75799 0.84891 0.0
H2236 H 0.56421 0.77425 0.84924 0.0
H2237 H 0.63789 0.79372 0.90743 0.0
H2238 H 0.64919 0.81513 0.89381 0.0
H2239 H 0.6512 0.78917 0.88389 0.0
C2240 C 0.52457 0.36748 0.14542 0.0
C2241 C 0.53766 0.3662 0.12842 0.0
C2242 C 0.50352 0.36849 0.14269 0.0
C2243 C 0.49539 0.36842 0.12248 0.0
C2244 C 0.50851 0.36762 0.10525 0.0
C2245 C 0.52948 0.36641 0.10843 0.0
C2246 C 0.48997 0.36914 0.16143 0.0
C2247 C 0.50039 0.36771 0.08346 0.0
C2248 C 0.44187 0.34888 0.11372 0.0
C2249 C 0.43105 0.36736 0.11166 0.0
C2250 C 0.46273 0.34904 0.11763 0.0
C2251 C 0.47311 0.36816 0.11932 0.0
C2252 C 0.46229 0.38688 0.11749 0.0
C2253 C 0.44134 0.38627 0.1138 0.0
C2254 C 0.47371 0.32874 0.11974 0.0
C2255 C 0.47292 0.40755 0.11901 0.0
H2256 H 0.53073 0.36728 0.16092 0.0
H2257 H 0.53947 0.3656 0.09519 0.0
H2258 H 0.47984 0.38273 0.16064 0.0
H2259 H 0.48018 0.35515 0.16176 0.0
H2260 H 0.49871 0.3699 0.17607 0.0
H2261 H 0.51266 0.36814 0.07175 0.0
H2262 H 0.49102 0.35369 0.08078 0.0
H2263 H 0.49047 0.38128 0.08109 0.0
H2264 H 0.43402 0.33418 0.11227 0.0
H2265 H 0.43311 0.40061 0.11214 0.0
H2266 H 0.48186 0.32818 0.1347 0.0
H2267 H 0.48521 0.32731 0.10736 0.0
H2268 H 0.46328 0.31524 0.1188 0.0
H2269 H 0.48113 0.40879 0.1339 0.0
H2270 H 0.46225 0.42069 0.11776 0.0
H2271 H 0.48435 0.40894 0.10655 0.0
C2272 C 0.91602 0.19733 0.34556 0.0
C2273 C 0.90271 0.18088 0.34949 0.0
C2274 C 0.91248 0.21694 0.35397 0.0
C2275 C 0.89498 0.22014 0.3661 0.0
C2276 C 0.88144 0.20357 0.36998 0.0
C2277 C 0.88563 0.18403 0.36183 0.0
C2278 C 0.9275 0.23416 0.35002 0.0
C2279 C 0.86243 0.20652 0.38256 0.0
C2280 C 0.89148 0.26413 0.4043 0.0
C2281 C 0.88003 0.27851 0.39324 0.0
C2282 C 0.89722 0.2454 0.3953 0.0
C2283 C 0.89081 0.24076 0.37498 0.0
C2284 C 0.87947 0.25536 0.36362 0.0
C2285 C 0.87442 0.27424 0.37284 0.0
C2286 C 0.90975 0.2304 0.40769 0.0
C2287 C 0.87205 0.25072 0.34205 0.0
H2288 H 0.92932 0.19481 0.33612 0.0
H2289 H 0.87528 0.1713 0.36474 0.0
H2290 H 0.91998 0.24705 0.34183 0.0
H2291 H 0.93323 0.24039 0.3649 0.0
H2292 H 0.94061 0.22897 0.34066 0.0
H2293 H 0.85317 0.19217 0.38356 0.0
H2294 H 0.86641 0.21153 0.39843 0.0
H2295 H 0.85304 0.21888 0.37563 0.0
H2296 H 0.89597 0.26748 0.42004 0.0
H2297 H 0.86549 0.28536 0.36432 0.0
H2298 H 0.92318 0.22551 0.39869 0.0
H2299 H 0.90069 0.21631 0.41104 0.0
H2300 H 0.91499 0.23713 0.42255 0.0
H2301 H 0.88494 0.24654 0.33195 0.0
H2302 H 0.86399 0.26402 0.33507 0.0
H2303 H 0.86159 0.23724 0.3424 0.0
C2304 C 0.97609 0.62258 0.60048 0.0
C2305 C 0.9666 0.62255 0.61984 0.0
C2306 C 0.99724 0.62197 0.5988 0.0
C2307 C 0.00922 0.62147 0.61691 0.0
C2308 C -0.00024 0.6209 0.63649 0.0
C2309 C 0.97856 0.62138 0.63772 0.0
C2310 C 0.00679 0.62243 0.57764 0.0
C2311 C 0.01205 0.62047 0.65614 0.0
C2312 C 0.06449 0.60655 0.61117 0.0
C2313 C 0.07391 0.62599 0.60981 0.0
C2314 C 0.04345 0.60479 0.61384 0.0
C2315 C 0.03162 0.62289 0.61534 0.0
C2316 C 0.04111 0.64253 0.61461 0.0
C2317 C 0.0621 0.64384 0.61178 0.0
C2318 C 0.03381 0.58359 0.61447 0.0
C2319 C 0.02903 0.66221 0.61637 0.0
H2320 H 0.967 0.62332 0.58657 0.0
H2321 H 0.9714 0.62136 0.65276 0.0
H2322 H 0.01557 0.63697 0.5757 0.0
H2323 H 0.01754 0.60944 0.57591 0.0
H2324 H 0.99536 0.62143 0.56508 0.0
H2325 H 0.0024 0.61872 0.67007 0.0
H2326 H 0.02302 0.60757 0.65572 0.0
H2327 H 0.02092 0.63501 0.65759 0.0
H2328 H 0.07348 0.59268 0.60961 0.0
H2329 H 0.06924 0.65895 0.61094 0.0
H2330 H 0.02347 0.58165 0.6011 0.0
H2331 H 0.02454 0.58185 0.62864 0.0
H2332 H 0.04521 0.57104 0.61408 0.0
H2333 H 0.0183 0.66334 0.60324 0.0
H2334 H 0.03882 0.67622 0.61645 0.0
H2335 H 0.0199 0.66203 0.63074 0.0
C2336 C 0.63925 0.24954 0.60022 0.0
C2337 C 0.62344 0.26147 0.59242 0.0
C2338 C 0.63541 0.2299 0.60849 0.0
C2339 C 0.6154 0.22187 0.60811 0.0
C2340 C 0.59936 0.23409 0.60043 0.0
C2341 C 0.60357 0.25396 0.59294 0.0
C2342 C 0.65278 0.21758 0.61718 0.0
C2343 C 0.57796 0.22583 0.59921 0.0
C2344 C 0.61113 0.16349 0.6068 0.0
C2345 C 0.6048 0.15916 0.62693 0.0
C2346 C 0.61412 0.18393 0.60032 0.0
C2347 C 0.61148 0.20026 0.61462 0.0
C2348 C 0.60529 0.1959 0.63507 0.0
C2349 C 0.60163 0.17534 0.64088 0.0
C2350 C 0.62005 0.18805 0.5782 0.0
C2351 C 0.60302 0.21285 0.6509 0.0
H2352 H 0.65461 0.25556 0.59973 0.0
H2353 H 0.59146 0.26331 0.58666 0.0
H2354 H 0.64888 0.21167 0.63275 0.0
H2355 H 0.65571 0.204 0.60719 0.0
H2356 H 0.66693 0.22688 0.61829 0.0
H2357 H 0.56714 0.23757 0.59345 0.0
H2358 H 0.57746 0.21227 0.58873 0.0
H2359 H 0.57283 0.22049 0.6146 0.0
H2360 H 0.61344 0.15088 0.59604 0.0
H2361 H 0.59694 0.17185 0.65653 0.0
H2362 H 0.63531 0.19527 0.57764 0.0
H2363 H 0.60931 0.19907 0.57107 0.0
H2364 H 0.62027 0.17371 0.56876 0.0
H2365 H 0.61759 0.2213 0.65267 0.0
H2366 H 0.59836 0.2068 0.66623 0.0
H2367 H 0.59161 0.22421 0.64567 0.0
C2368 C 0.05224 0.3345 0.90296 0.0
C2369 C 0.06627 0.34986 0.89747 0.0
C2370 C 0.03222 0.3352 0.8958 0.0
C2371 C 0.02607 0.35187 0.88321 0.0
C2372 C 0.04037 0.36702 0.87703 0.0
C2373 C 0.06039 0.36573 0.88411 0.0
C2374 C 0.01748 0.31854 0.90236 0.0
C2375 C 0.03431 0.38517 0.86381 0.0
C2376 C 0.97577 0.35112 0.85469 0.0
C2377 C 0.96359 0.36249 0.86822 0.0
C2378 C 0.99607 0.34697 0.85959 0.0
C2379 C 0.00432 0.35468 0.87826 0.0
C2380 C 0.99195 0.36583 0.89211 0.0
C2381 C 0.9717 0.36947 0.88698 0.0
C2382 C 0.00877 0.33469 0.84467 0.0
C2383 C 0.00023 0.37445 0.91211 0.0
H2384 H 0.05684 0.32204 0.91306 0.0
H2385 H 0.07125 0.37758 0.8798 0.0
H2386 H 0.0063 0.32509 0.91329 0.0
H2387 H 0.00893 0.31259 0.88884 0.0
H2388 H 0.02519 0.3054 0.91002 0.0
H2389 H 0.04753 0.39479 0.85919 0.0
H2390 H 0.02642 0.37974 0.84969 0.0
H2391 H 0.02356 0.39504 0.87246 0.0
H2392 H 0.96951 0.34561 0.84022 0.0
H2393 H 0.96237 0.37829 0.89749 0.0
H2394 H 0.01606 0.32158 0.85275 0.0
H2395 H 0.02106 0.3446 0.8384 0.0
H2396 H -0.0003 0.32852 0.83156 0.0
H2397 H 0.0066 0.36183 0.92164 0.0
H2398 H 0.98851 0.38255 0.92129 0.0
H2399 H 0.01274 0.38548 0.90882 0.0
C2400 C 0.88159 0.7251 0.10825 0.0
C2401 C 0.87944 0.72507 0.08671 0.0
C2402 C 0.88565 0.74352 0.11896 0.0
C2403 C 0.88784 0.76218 0.1078 0.0
C2404 C 0.88652 0.76207 0.08602 0.0
C2405 C 0.88221 0.74354 0.07575 0.0
C2406 C 0.8868 0.74315 0.14223 0.0
C2407 C 0.88901 0.78165 0.07357 0.0
C2408 C 0.87366 0.81333 0.13158 0.0
C2409 C 0.89268 0.82216 0.13566 0.0
C2410 C 0.87192 0.79344 0.12332 0.0
C2411 C 0.88965 0.78217 0.11882 0.0
C2412 C 0.90891 0.79069 0.12345 0.0
C2413 C 0.91021 0.81061 0.13195 0.0
C2414 C 0.85109 0.78476 0.11878 0.0
C2415 C 0.92813 0.77911 0.11869 0.0
H2416 H 0.87954 0.71086 0.1168 0.0
H2417 H 0.8809 0.74356 0.05908 0.0
H2418 H 0.9008 0.75102 0.14763 0.0
H2419 H 0.87378 0.7517 0.14876 0.0
H2420 H 0.88653 0.72716 0.14846 0.0
H2421 H 0.88925 0.77861 0.0567 0.0
H2422 H 0.87634 0.79229 0.07696 0.0
H2423 H 0.90326 0.78971 0.07793 0.0
H2424 H 0.86003 0.82204 0.13469 0.0
H2425 H 0.92495 0.81736 0.13509 0.0
H2426 H 0.84932 0.76926 0.12586 0.0
H2427 H 0.84913 0.78288 0.10187 0.0
H2428 H 0.83883 0.79489 0.12461 0.0
H2429 H 0.92746 0.76334 0.12533 0.0
H2430 H 0.9418 0.78716 0.12476 0.0
H2431 H 0.92975 0.77739 0.10173 0.0
C2432 C 0.43887 0.63971 0.37271 0.0
C2433 C 0.43429 0.65524 0.387 0.0
C2434 C 0.45872 0.63711 0.36554 0.0
C2435 C 0.47418 0.65063 0.37255 0.0
C2436 C 0.46938 0.66705 0.3861 0.0
C2437 C 0.44949 0.66902 0.39335 0.0
C2438 C 0.46331 0.61924 0.35133 0.0
C2439 C 0.4854 0.68203 0.39358 0.0
C2440 C 0.5275 0.62976 0.37573 0.0
C2441 C 0.53625 0.63762 0.35766 0.0
C2442 C 0.50728 0.63382 0.38063 0.0
C2443 C 0.49564 0.64638 0.36734 0.0
C2444 C 0.50445 0.65464 0.3492 0.0
C2445 C 0.52466 0.64997 0.34445 0.0
C2446 C 0.49832 0.62446 0.39996 0.0
C2447 C 0.49257 0.66843 0.33492 0.0
H2448 H 0.42711 0.62904 0.36777 0.0
H2449 H 0.44591 0.6812 0.40422 0.0
H2450 H 0.47174 0.6247 0.33756 0.0
H2451 H 0.47312 0.608 0.35945 0.0
H2452 H 0.44937 0.61108 0.34611 0.0
H2453 H 0.47879 0.69527 0.4021 0.0
H2454 H 0.49607 0.67393 0.404 0.0
H2455 H 0.49433 0.68807 0.38038 0.0
H2456 H 0.53639 0.62011 0.38591 0.0
H2457 H 0.53146 0.65616 0.33053 0.0
H2458 H 0.48492 0.61484 0.39595 0.0
H2459 H 0.49308 0.63686 0.41046 0.0
H2460 H 0.50934 0.6147 0.40842 0.0
H2461 H 0.47921 0.65997 0.32879 0.0
H2462 H 0.50181 0.67403 0.32172 0.0
H2463 H 0.48682 0.68199 0.34356 0.0
C2464 C 0.83907 0.59121 0.78822 0.0
C2465 C 0.84588 0.6031 0.80494 0.0
C2466 C 0.84766 0.59367 0.76857 0.0
C2467 C 0.86317 0.60857 0.76563 0.0
C2468 C 0.87009 0.62059 0.78249 0.0
C2469 C 0.86144 0.61761 0.80199 0.0
C2470 C 0.84011 0.58041 0.75097 0.0
C2471 C 0.88643 0.63681 0.77987 0.0
C2472 C 0.89756 0.60522 0.7189 0.0
C2473 C 0.88843 0.61937 0.70549 0.0
C2474 C 0.88932 0.6013 0.73846 0.0
C2475 C 0.87179 0.61206 0.7448 0.0
C2476 C 0.86265 0.62649 0.73138 0.0
C2477 C 0.87099 0.62984 0.7118 0.0
C2478 C 0.89929 0.5856 0.75231 0.0
C2479 C 0.84413 0.6385 0.73775 0.0
H2480 H 0.82714 0.57988 0.79051 0.0
H2481 H 0.86672 0.62685 0.81489 0.0
H2482 H 0.83341 0.5903 0.73881 0.0
H2483 H 0.85293 0.572 0.74386 0.0
H2484 H 0.82852 0.56897 0.75601 0.0
H2485 H 0.8902 0.64473 0.79461 0.0
H2486 H 0.90039 0.62966 0.77369 0.0
H2487 H 0.88146 0.64858 0.76854 0.0
H2488 H 0.91095 0.59698 0.71397 0.0
H2489 H 0.86395 0.64085 0.70148 0.0
H2490 H 0.88822 0.57338 0.75659 0.0
H2491 H 0.90439 0.5931 0.76682 0.0
H2492 H 0.91255 0.5782 0.74486 0.0
H2493 H 0.83154 0.62772 0.74148 0.0
H2494 H 0.83895 0.64927 0.72552 0.0
H2495 H 0.84745 0.64757 0.75191 0.0
C2496 C 0.61991 0.60972 0.07007 0.0
C2497 C 0.63932 0.60745 0.0785 0.0
C2498 C 0.61729 0.61719 0.04997 0.0
C2499 C 0.63449 0.62283 0.03821 0.0
C2500 C 0.65415 0.61982 0.04633 0.0
C2501 C 0.65634 0.61203 0.06636 0.0
C2502 C 0.5961 0.61993 0.04168 0.0
C2503 C 0.67284 0.6259 0.03431 0.0
C2504 C 0.62835 0.63417 0.98109 0.0
C2505 C 0.62605 0.6557 0.98134 0.0
C2506 C 0.63108 0.62314 -0.00049 0.0
C2507 C 0.63185 0.63399 0.01847 0.0
C2508 C 0.62986 0.65573 0.01875 0.0
C2509 C 0.62685 0.66629 0.00021 0.0
C2510 C 0.6329 0.59991 -0.00125 0.0
C2511 C 0.63088 0.66788 0.03867 0.0
H2512 H 0.60671 0.60593 0.07928 0.0
H2513 H 0.67139 0.61031 0.07279 0.0
H2514 H 0.59269 0.63665 0.04039 0.0
H2515 H 0.5948 0.61318 0.02599 0.0
H2516 H 0.58451 0.61264 0.05177 0.0
H2517 H 0.68699 0.6208 0.04201 0.0
H2518 H 0.67231 0.61921 0.01856 0.0
H2519 H 0.6734 0.64295 0.03262 0.0
H2520 H 0.62768 0.62591 0.96654 0.0
H2521 H 0.62532 0.68295 0.00051 0.0
H2522 H 0.62054 0.59272 0.00788 0.0
H2523 H 0.64741 0.59506 0.00582 0.0
H2524 H 0.63218 0.59383 0.98273 0.0
H2525 H 0.61846 0.66294 0.0491 0.0
H2526 H 0.62964 0.68479 0.03611 0.0
H2527 H 0.64537 0.66477 0.04672 0.0
C2528 C 0.59689 0.38399 0.23318 0.0
C2529 C 0.6105 0.37615 0.2186 0.0
C2530 C 0.60284 0.38708 0.25376 0.0
C2531 C 0.62286 0.38225 0.2598 0.0
C2532 C 0.6368 0.37483 0.24502 0.0
C2533 C 0.63043 0.37183 0.2246 0.0
C2534 C 0.58757 0.39502 0.26912 0.0
C2535 C 0.6583 0.36959 0.25089 0.0
C2536 C 0.64356 0.40382 0.31012 0.0
C2537 C 0.64121 0.38687 0.32343 0.0
C2538 C 0.63755 0.4026 0.28937 0.0
C2539 C 0.629 0.384 0.28177 0.0
C2540 C 0.62656 0.36686 0.29508 0.0
C2541 C 0.63269 0.36849 0.31573 0.0
C2542 C 0.64042 0.42118 0.27557 0.0
C2543 C 0.61749 0.34675 0.2875 0.0
H2544 H 0.58148 0.38739 0.22861 0.0
H2545 H 0.64106 0.36586 0.21337 0.0
H2546 H 0.58475 0.38313 0.28113 0.0
H2547 H 0.59359 0.40895 0.27706 0.0
H2548 H 0.57291 0.39897 0.26174 0.0
H2549 H 0.66752 0.36495 0.23734 0.0
H2550 H 0.66571 0.38306 0.25842 0.0
H2551 H 0.65829 0.35674 0.2622 0.0
H2552 H 0.65007 0.41812 0.31589 0.0
H2553 H 0.63077 0.35529 0.32583 0.0
H2554 H 0.62565 0.42588 0.26894 0.0
H2555 H 0.65046 0.41717 0.26247 0.0
H2556 H 0.6471 0.43458 0.28393 0.0
H2557 H 0.60211 0.34946 0.2812 0.0
H2558 H 0.6164 0.33496 0.2999 0.0
H2559 H 0.62683 0.34043 0.27478 0.0
C2560 C 0.83742 0.37706 0.57453 0.0
C2561 C 0.85497 0.38132 0.58605 0.0
C2562 C 0.83868 0.36902 0.55447 0.0
C2563 C 0.85793 0.36543 0.54566 0.0
C2564 C 0.87568 0.37026 0.55697 0.0
C2565 C 0.87399 0.37802 0.57709 0.0
C2566 C 0.81943 0.36381 0.54295 0.0
C2567 C 0.89649 0.36687 0.54796 0.0
C2568 C 0.8648 0.32457 0.50449 0.0
C2569 C 0.86625 0.33655 0.48653 0.0
C2570 C 0.86136 0.33376 0.52373 0.0
C2571 C 0.85964 0.35549 0.52509 0.0
C2572 C 0.86058 0.36766 0.50698 0.0
C2573 C 0.86373 0.35801 0.48785 0.0
C2574 C 0.8601 0.32023 0.54268 0.0
C2575 C 0.85899 0.3909 0.5079 0.0
H2576 H 0.82266 0.37951 0.58138 0.0
H2577 H 0.88761 0.38147 0.58581 0.0
H2578 H 0.81933 0.37156 0.52769 0.0
H2579 H 0.81865 0.34692 0.54006 0.0
H2580 H 0.80566 0.36846 0.55159 0.0
H2581 H 0.90873 0.37264 0.55827 0.0
H2582 H 0.89886 0.35014 0.54522 0.0
H2583 H 0.89781 0.37477 0.53284 0.0
H2584 H 0.86649 0.30794 0.50355 0.0
H2585 H 0.86489 0.36736 0.47402 0.0
H2586 H 0.846 0.32351 0.55135 0.0
H2587 H 0.87302 0.32369 0.5531 0.0
H2588 H 0.86037 0.30351 0.5388 0.0
H2589 H 0.84503 0.39547 0.51619 0.0
H2590 H 0.85884 0.39802 0.49231 0.0
H2591 H 0.87202 0.39733 0.51667 0.0
C2592 C 0.87619 0.37432 0.786 0.0
C2593 C 0.87604 0.39161 0.79894 0.0
C2594 C 0.87062 0.37607 0.76519 0.0
C2595 C 0.86557 0.39572 0.75713 0.0
C2596 C 0.86648 0.4134 0.76999 0.0
C2597 C 0.87132 0.41105 0.79091 0.0
C2598 C 0.86922 0.35678 0.75212 0.0
C2599 C 0.8619 0.4347 0.7618 0.0
C2600 C 0.86418 0.40102 0.69882 0.0
C2601 C 0.8433 0.40063 0.69506 0.0
C2602 C 0.8717 0.39992 0.71905 0.0
C2603 C 0.85798 0.39757 0.73567 0.0
C2604 C 0.83688 0.39688 0.73183 0.0
C2605 C 0.82978 0.39883 0.71156 0.0
C2606 C 0.89424 0.40148 0.72265 0.0
C2607 C 0.82181 0.39376 0.74909 0.0
H2608 H 0.87975 0.3593 0.79241 0.0
H2609 H 0.87142 0.42442 0.80103 0.0
H2610 H 0.85332 0.35437 0.74705 0.0
H2611 H 0.87856 0.3585 0.73801 0.0
H2612 H 0.87427 0.3428 0.76057 0.0
H2613 H 0.86564 0.44702 0.77317 0.0
H2614 H 0.87056 0.43764 0.74742 0.0
H2615 H 0.84559 0.43579 0.75791 0.0
H2616 H 0.87459 0.40257 0.686 0.0
H2617 H 0.81363 0.39836 0.70854 0.0
H2618 H 0.89984 0.38708 0.72988 0.0
H2619 H 0.8976 0.41433 0.73351 0.0
H2620 H 0.90277 0.40418 0.70812 0.0
H2621 H 0.8254 0.37941 0.75768 0.0
H2622 H 0.80599 0.39266 0.74335 0.0
H2623 H 0.82282 0.40677 0.7602 0.0
C2624 C 0.84101 0.60862 0.92867 0.0
C2625 C 0.85762 0.61044 0.91529 0.0
C2626 C 0.84313 0.61252 0.94987 0.0
C2627 C 0.86231 0.61829 0.9578 0.0
C2628 C 0.87924 0.61952 0.94451 0.0
C2629 C 0.87668 0.61564 0.92342 0.0
C2630 C 0.82475 0.61111 0.96364 0.0
C2631 C 0.89996 0.62558 0.95245 0.0
C2632 C 0.86618 0.65276 0.00466 0.0
C2633 C 0.87224 0.63883 0.01997 0.0
C2634 C 0.8622 0.64608 0.98454 0.0
C2635 C 0.86446 0.62494 0.97958 0.0
C2636 C 0.87007 0.61066 0.99507 0.0
C2637 C 0.87389 0.61779 0.01518 0.0
C2638 C 0.85618 0.66178 0.96844 0.0
C2639 C 0.87262 0.588 0.99025 0.0
H2640 H 0.82624 0.60451 0.92256 0.0
H2641 H 0.88968 0.61683 0.91328 0.0
H2642 H 0.82798 0.60126 0.97723 0.0
H2643 H 0.82093 0.62672 0.96953 0.0
H2644 H 0.81133 0.60473 0.95543 0.0
H2645 H 0.91182 0.62436 0.94037 0.0
H2646 H 0.89967 0.64175 0.95813 0.0
H2647 H 0.90428 0.61563 0.96565 0.0
H2648 H 0.86478 0.66903 0.00829 0.0
H2649 H 0.87851 0.60698 0.02702 0.0
H2650 H 0.84198 0.65687 0.96066 0.0
H2651 H 0.86811 0.66284 0.95644 0.0
H2652 H 0.85391 0.6774 0.97514 0.0
H2653 H 0.8589 0.58186 0.98243 0.0
H2654 H 0.8755 0.57869 0.00434 0.0
H2655 H 0.88551 0.58595 0.97949 0.0
C2656 C 0.64763 0.62103 0.2841 0.0
C2657 C 0.62872 0.6151 0.2919 0.0
C2658 C 0.65248 0.61775 0.26333 0.0
C2659 C 0.63828 0.60769 0.25032 0.0
C2660 C 0.61917 0.60159 0.25817 0.0
C2661 C 0.61449 0.60568 0.27886 0.0
C2662 C 0.67279 0.62499 0.25534 0.0
C2663 C 0.6039 0.59034 0.24486 0.0
C2664 C 0.64431 0.61392 0.19257 0.0
C2665 C 0.65565 0.59641 0.18758 0.0
C2666 C 0.63848 0.61778 0.21298 0.0
C2667 C 0.6436 0.60341 0.22854 0.0
C2668 C 0.65445 0.58532 0.22342 0.0
C2669 C 0.66066 0.5822 0.20299 0.0
C2670 C 0.62741 0.63752 0.21798 0.0
C2671 C 0.65964 0.56936 0.23954 0.0
H2672 H 0.65857 0.62842 0.29424 0.0
H2673 H 0.59995 0.60088 0.28504 0.0
H2674 H 0.68179 0.61155 0.25013 0.0
H2675 H 0.67065 0.63522 0.24178 0.0
H2676 H 0.68164 0.63352 0.26722 0.0
H2677 H 0.5898 0.5865 0.25341 0.0
H2678 H 0.59991 0.59989 0.23127 0.0
H2679 H 0.61059 0.5758 0.23895 0.0
H2680 H 0.64056 0.62496 0.1806 0.0
H2681 H 0.66928 0.56856 0.19901 0.0
H2682 H 0.63649 0.64688 0.22901 0.0
H2683 H 0.61276 0.63396 0.22556 0.0
H2684 H 0.62444 0.64699 0.20403 0.0
H2685 H 0.67019 0.57614 0.25106 0.0
H2686 H 0.66681 0.55545 0.23273 0.0
H2687 H 0.64577 0.56451 0.24794 0.0
C2688 C 0.62072 0.37277 0.52606 0.0
C2689 C 0.62718 0.35266 0.53035 0.0
C2690 C 0.6256 0.38229 0.50727 0.0
C2691 C 0.63762 0.37156 0.49276 0.0
C2692 C 0.64472 0.3515 0.49733 0.0
C2693 C 0.63916 0.34216 0.51597 0.0
C2694 C 0.6174 0.40353 0.50269 0.0
C2695 C 0.65793 0.33978 0.48239 0.0
C2696 C 0.63302 0.3844 0.43605 0.0
C2697 C 0.6498 0.39735 0.43305 0.0
C2698 C 0.62867 0.37626 0.45555 0.0
C2699 C 0.64177 0.38077 0.47227 0.0
C2700 C 0.65888 0.39369 0.46928 0.0
C2701 C 0.66256 0.40209 0.44967 0.0
C2702 C 0.61005 0.36286 0.45825 0.0
C2703 C 0.67342 0.39838 0.48667 0.0
H2704 H 0.61141 0.38087 0.53716 0.0
H2705 H 0.6443 0.32666 0.51932 0.0
H2706 H 0.62996 0.4143 0.49885 0.0
H2707 H 0.60727 0.40277 0.48903 0.0
H2708 H 0.60877 0.41001 0.51587 0.0
H2709 H 0.66353 0.32505 0.48901 0.0
H2710 H 0.64926 0.33621 0.46815 0.0
H2711 H 0.67114 0.34939 0.47782 0.0
H2712 H 0.62307 0.38088 0.42319 0.0
H2713 H 0.67563 0.41201 0.44725 0.0
H2714 H 0.60031 0.36928 0.47062 0.0
H2715 H 0.61452 0.3471 0.46309 0.0
H2716 H 0.60097 0.36161 0.44386 0.0
H2717 H 0.66531 0.40593 0.49959 0.0
H2718 H 0.68608 0.4086 0.48174 0.0
H2719 H 0.67983 0.38377 0.49273 0.0
C2720 C 0.72679 0.86746 0.6309 0.0
C2721 C 0.71754 0.88483 0.62221 0.0
C2722 C 0.74709 0.86289 0.62681 0.0
C2723 C 0.75835 0.87586 0.61347 0.0
C2724 C 0.74911 0.89343 0.60458 0.0
C2725 C 0.72879 0.8978 0.60918 0.0
C2726 C 0.75647 0.84413 0.63677 0.0
C2727 C 0.76062 0.90743 0.59007 0.0
C2728 C 0.81538 0.87139 0.61826 0.0
C2729 C 0.81967 0.85687 0.60285 0.0
C2730 C 0.79554 0.87831 0.62145 0.0
C2731 C 0.77972 0.8707 0.60873 0.0
C2732 C 0.78415 0.85674 0.59255 0.0
C2733 C 0.80407 0.84987 0.5899 0.0
C2734 C 0.79136 0.89306 0.63899 0.0
C2735 C 0.76773 0.84852 0.57848 0.0
H2736 H 0.7182 0.85744 0.64108 0.0
H2737 H 0.72165 0.91121 0.60238 0.0
H2738 H 0.76152 0.83314 0.62471 0.0
H2739 H 0.77004 0.84877 0.64579 0.0
H2740 H 0.74577 0.83596 0.64722 0.0
H2741 H 0.75126 0.9205 0.5845 0.0
H2742 H 0.77425 0.91378 0.59789 0.0
H2743 H 0.76593 0.89847 0.57653 0.0
H2744 H 0.82744 0.87688 0.62826 0.0
H2745 H 0.80738 0.83883 0.57779 0.0
H2746 H 0.78191 0.88521 0.6508 0.0
H2747 H 0.78272 0.90657 0.63336 0.0
H2748 H 0.8055 0.89867 0.64648 0.0
H2749 H 0.75724 0.83851 0.5874 0.0
H2750 H 0.77396 0.83936 0.56546 0.0
H2751 H 0.75871 0.86143 0.57209 0.0
C2752 C 0.23493 0.5936 0.38328 0.0
C2753 C 0.22176 0.60949 0.37748 0.0
C2754 C 0.25581 0.59727 0.38519 0.0
C2755 C 0.2636 0.61729 0.38124 0.0
C2756 C 0.2503 0.6335 0.37592 0.0
C2757 C 0.22953 0.62939 0.37408 0.0
C2758 C 0.26958 0.57965 0.39096 0.0
C2759 C 0.25804 0.65509 0.37171 0.0
C2760 C 0.31523 0.63421 0.40062 0.0
C2761 C 0.32691 0.6331 0.38255 0.0
C2762 C 0.29476 0.6284 0.4006 0.0
C2763 C 0.28572 0.62135 0.38209 0.0
C2764 C 0.29755 0.61948 0.36398 0.0
C2765 C 0.31802 0.62537 0.36443 0.0
C2766 C 0.28263 0.6305 0.42024 0.0
C2767 C 0.28841 0.61193 0.34396 0.0
H2768 H 0.22899 0.57818 0.38592 0.0
H2769 H 0.21942 0.64175 0.36966 0.0
H2770 H 0.28017 0.57646 0.37808 0.0
H2771 H 0.27889 0.5839 0.40459 0.0
H2772 H 0.26103 0.56526 0.3945 0.0
H2773 H 0.24561 0.66609 0.36839 0.0
H2774 H 0.26676 0.66091 0.38518 0.0
H2775 H 0.26849 0.65489 0.35832 0.0
H2776 H 0.32197 0.63997 0.41477 0.0
H2777 H 0.3269 0.62435 0.35042 0.0
H2778 H 0.27454 0.61584 0.4237 0.0
H2779 H 0.27099 0.64263 0.41825 0.0
H2780 H 0.29226 0.63467 0.43369 0.0
H2781 H 0.28061 0.5969 0.34633 0.0
H2782 H 0.29995 0.61006 0.33164 0.0
H2783 H 0.27687 0.62308 0.33854 0.0
C2784 C 0.61021 0.04707 0.64776 0.0
C2785 C 0.5895 0.05121 0.6462 0.0
C2786 C 0.61729 0.0267 0.64713 0.0
C2787 C 0.60335 0.01031 0.64395 0.0
C2788 C 0.58244 0.01453 0.64184 0.0
C2789 C 0.57571 0.03496 0.64346 0.0
C2790 C 0.63959 0.0227 0.65023 0.0
C2791 C 0.56721 0.99752 0.63771 0.0
C2792 C 0.62363 0.95958 0.62345 0.0
C2793 C 0.62254 0.94717 0.64106 0.0
C2794 C 0.6173 0.98022 0.62412 0.0
C2795 C 0.61055 0.98867 0.64305 0.0
C2796 C 0.61014 0.97629 0.66105 0.0
C2797 C 0.61579 0.9555 0.65973 0.0
C2798 C 0.61731 0.99277 0.60449 0.0
C2799 C 0.60373 0.98496 0.68166 0.0
H2800 H 0.6208 0.05972 0.65005 0.0
H2801 H 0.55969 0.03831 0.64208 0.0
H2802 H 0.64176 0.01207 0.66347 0.0
H2803 H 0.64598 0.01504 0.63641 0.0
H2804 H 0.6483 0.03714 0.65321 0.0
H2805 H 0.55169 0.00358 0.63525 0.0
H2806 H 0.57174 0.9886 0.62384 0.0
H2807 H 0.56683 0.9866 0.65088 0.0
H2808 H 0.62878 0.95293 0.60903 0.0
H2809 H 0.6152 0.94579 0.67335 0.0
H2810 H 0.62702 0.00668 0.60634 0.0
H2811 H 0.60174 -0.00179 0.60114 0.0
H2812 H 0.62282 0.98379 0.59102 0.0
H2813 H 0.61261 -0.00088 0.68525 0.0
H2814 H 0.60578 0.9737 0.69441 0.0
H2815 H 0.58755 0.98942 0.68108 0.0
C2816 C 0.18498 0.37459 0.9083 0.0
C2817 C 0.17277 0.37601 0.89061 0.0
C2818 C 0.20561 0.37971 0.90762 0.0
C2819 C 0.21424 0.38638 0.8888 0.0
C2820 C 0.20186 0.38877 0.87113 0.0
C2821 C 0.18124 0.38359 0.87225 0.0
C2822 C 0.21832 0.37713 0.92683 0.0
C2823 C 0.21058 0.39589 0.85079 0.0
C2824 C 0.26654 0.41102 0.8881 0.0
C2825 C 0.27855 0.39431 0.88198 0.0
C2826 C 0.24557 0.40865 0.89071 0.0
C2827 C 0.23649 0.38912 0.88711 0.0
C2828 C 0.24863 0.37209 0.88141 0.0
C2829 C 0.26952 0.3749 0.87893 0.0
C2830 C 0.23307 0.4271 0.89689 0.0
C2831 C 0.23949 0.35099 0.87752 0.0
H2832 H 0.17855 0.36898 0.92264 0.0
H2833 H 0.17194 0.38484 0.85853 0.0
H2834 H 0.22909 0.36423 0.92457 0.0
H2835 H 0.22741 0.39128 0.9298 0.0
H2836 H 0.20896 0.37375 0.94067 0.0
H2837 H 0.19866 0.3986 0.83901 0.0
H2838 H 0.21941 0.41037 0.85292 0.0
H2839 H 0.22113 0.38404 0.8448 0.0
H2840 H 0.27346 0.42606 0.89048 0.0
H2841 H 0.27873 0.36191 0.87424 0.0
H2842 H 0.22404 0.42347 0.91087 0.0
H2843 H 0.22221 0.43086 0.88439 0.0
H2844 H 0.24256 0.44097 0.90006 0.0
H2845 H 0.23102 0.34569 0.89133 0.0
H2846 H 0.25111 0.33926 0.87368 0.0
H2847 H 0.22852 0.35182 0.86456 0.0
C2848 C 0.38712 0.4362 0.63174 0.0
C2849 C 0.4017 0.43297 0.64711 0.0
C2850 C 0.37908 0.45586 0.62831 0.0
C2851 C 0.38557 0.47259 0.64077 0.0
C2852 C 0.39991 0.46933 0.65667 0.0
C2853 C 0.40796 0.44952 0.65955 0.0
C2854 C 0.36401 0.45882 0.61102 0.0
C2855 C 0.40691 0.48679 0.67045 0.0
C2856 C 0.38106 0.52625 0.61814 0.0
C2857 C 0.36296 0.53311 0.62698 0.0
C2858 C 0.38863 0.50659 0.6226 0.0
C2859 C 0.37797 0.49366 0.63648 0.0
C2860 C 0.35981 0.5006 0.64567 0.0
C2861 C 0.3524 0.52023 0.64066 0.0
C2862 C 0.40789 0.49957 0.61225 0.0
C2863 C 0.34823 0.48729 0.66078 0.0
H2864 H 0.38226 0.42342 0.62208 0.0
H2865 H 0.41911 0.44699 0.67156 0.0
H2866 H 0.34983 0.46559 0.61711 0.0
H2867 H 0.37024 0.46983 0.59952 0.0
H2868 H 0.36024 0.4441 0.60303 0.0
H2869 H 0.41723 0.48142 0.68287 0.0
H2870 H 0.41496 0.49863 0.66114 0.0
H2871 H 0.39368 0.49443 0.67764 0.0
H2872 H 0.38924 0.53617 0.60752 0.0
H2873 H 0.33849 0.5256 0.64766 0.0
H2874 H 0.40487 0.48541 0.60305 0.0
H2875 H 0.41939 0.49558 0.62404 0.0
H2876 H 0.41437 0.51156 0.60188 0.0
H2877 H 0.34311 0.47286 0.65308 0.0
H2878 H 0.33478 0.49529 0.66716 0.0
H2879 H 0.35824 0.48276 0.67374 0.0
C2880 C 0.77756 0.12292 0.08975 0.0
C2881 C 0.78668 0.11493 0.10752 0.0
C2882 C 0.75656 0.12582 0.0888 0.0
C2883 C 0.74454 0.12135 0.10634 0.0
C2884 C 0.75368 0.11305 0.12427 0.0
C2885 C 0.77466 0.10958 0.12451 0.0
C2886 C 0.74732 0.13408 0.06917 0.0
C2887 C 0.74149 0.10874 0.1435 0.0
C2888 C 0.6968 0.15333 0.10921 0.0
C2889 C 0.68193 0.13899 0.10338 0.0
C2890 C 0.71709 0.14748 0.11118 0.0
C2891 C 0.72274 0.12697 0.10637 0.0
C2892 C 0.7077 0.11234 0.1006 0.0
C2893 C 0.68733 0.11846 0.09955 0.0
C2894 C 0.73252 0.16339 0.11804 0.0
C2895 C 0.71322 0.09053 0.09471 0.0
H2896 H 0.78689 0.1268 0.07653 0.0
H2897 H 0.7818 0.10348 0.13827 0.0
H2898 H 0.73419 0.12438 0.06446 0.0
H2899 H 0.74164 0.14995 0.07182 0.0
H2900 H 0.75837 0.13457 0.05626 0.0
H2901 H 0.75068 0.10134 0.15578 0.0
H2902 H 0.73534 0.12345 0.14961 0.0
H2903 H 0.7284 0.09857 0.13988 0.0
H2904 H 0.69251 0.16918 0.11234 0.0
H2905 H 0.67576 0.10746 0.09488 0.0
H2906 H 0.74303 0.16692 0.10516 0.0
H2907 H 0.74173 0.15724 0.13096 0.0
H2908 H 0.72536 0.17803 0.12311 0.0
H2909 H 0.72298 0.09082 0.08078 0.0
H2910 H 0.69967 0.08083 0.09141 0.0
H2911 H 0.72206 0.08317 0.10723 0.0
C2912 C 0.6372 0.02997 0.86742 0.0
C2913 C 0.62157 0.04448 0.86597 0.0
C2914 C 0.63298 0.00875 0.86814 0.0
C2915 C 0.61262 0.00189 0.86759 0.0
C2916 C 0.59673 0.01642 0.86639 0.0
C2917 C 0.6014 0.03757 0.86548 0.0
C2918 C 0.65032 0.99367 0.8692 0.0
C2919 C 0.57483 0.00961 0.86596 0.0
C2920 C 0.60252 0.94721 0.84927 0.0
C2921 C 0.60039 0.93657 0.868 0.0
C2922 C 0.60644 0.96849 0.84892 0.0
C2923 C 0.60802 0.97944 0.86777 0.0
C2924 C 0.60568 0.96888 0.88673 0.0
C2925 C 0.60203 0.94751 0.88663 0.0
C2926 C 0.60913 0.97922 0.82841 0.0
C2927 C 0.60706 0.98014 0.9071 0.0
H2928 H 0.65284 0.03514 0.8677 0.0
H2929 H 0.58923 0.04868 0.86447 0.0
H2930 H 0.6488 0.98379 0.8831 0.0
H2931 H 0.64992 0.98331 0.85556 0.0
H2932 H 0.66529 0.00156 0.86972 0.0
H2933 H 0.56425 0.02289 0.86569 0.0
H2934 H 0.57195 -9e-05 0.85214 0.0
H2935 H 0.5714 -2e-05 0.8797 0.0
H2936 H 0.6014 0.93884 0.8348 0.0
H2937 H 0.60024 0.93942 0.90115 0.0
H2938 H 0.6244 0.98643 0.8276 0.0
H2939 H 0.59791 0.99181 0.82681 0.0
H2940 H 0.60735 0.96847 0.81515 0.0
H2941 H 0.62228 0.98727 0.90884 0.0
H2942 H 0.60429 0.96976 0.92046 0.0
H2943 H 0.59586 0.99284 0.90755 0.0
C2944 C 0.89279 0.05828 0.33526 0.0
C2945 C 0.89048 0.07041 0.35307 0.0
C2946 C 0.88708 0.03735 0.33513 0.0
C2947 C 0.87898 0.02838 0.35324 0.0
C2948 C 0.87657 0.04053 0.37123 0.0
C2949 C 0.8823 0.06138 0.37091 0.0
C2950 C 0.88977 0.02483 0.31566 0.0
C2951 C 0.86803 0.03147 0.39089 0.0
C2952 C 0.84687 0.97976 0.35323 0.0
C2953 C 0.86057 0.96526 0.36102 0.0
C2954 C 0.85295 0.00021 0.34951 0.0
C2955 C 0.87317 0.00622 0.35373 0.0
C2956 C 0.88733 0.99136 0.3605 0.0
C2957 C 0.88084 0.97102 0.36406 0.0
C2958 C 0.83747 0.01562 0.34215 0.0
C2959 C 0.90904 0.99719 0.36511 0.0
H2960 H 0.89901 0.06513 0.32137 0.0
H2961 H 0.88048 0.07055 0.38477 0.0
H2962 H 0.90017 0.01176 0.31862 0.0
H2963 H 0.87503 0.01809 0.3108 0.0
H2964 H 0.89595 0.03421 0.30276 0.0
H2965 H 0.86703 0.04306 0.40349 0.0
H2966 H 0.85267 0.02506 0.388 0.0
H2967 H 0.87767 0.01854 0.39621 0.0
H2968 H 0.83121 0.97535 0.35071 0.0
H2969 H 0.89154 0.95983 0.36994 0.0
H2970 H 0.8435 0.02468 0.32897 0.0
H2971 H 0.8341 0.02669 0.35475 0.0
H2972 H 0.82309 0.00804 0.33734 0.0
H2973 H 0.91569 0.00594 0.35204 0.0
H2974 H 0.91859 0.98345 0.36817 0.0
H2975 H 0.90958 0.00739 0.37887 0.0
C2976 C 0.40085 0.27443 0.0929 0.0
C2977 C 0.38848 0.28572 0.10634 0.0
C2978 C 0.40575 0.25381 0.0971 0.0
C2979 C 0.39776 0.2442 0.11494 0.0
C2980 C 0.38541 0.25559 0.12865 0.0
C2981 C 0.38107 0.27631 0.12427 0.0
C2982 C 0.41932 0.24226 0.08238 0.0
C2983 C 0.37641 0.24577 0.14771 0.0
C2984 C 0.39157 0.18597 0.11673 0.0
C2985 C 0.40702 0.18046 0.13044 0.0
C2986 C 0.38869 0.20666 0.11111 0.0
C2987 C 0.40185 0.22207 0.1191 0.0
C2988 C 0.41817 0.21641 0.13203 0.0
C2989 C 0.42044 0.19565 0.13772 0.0
C2990 C 0.37097 0.21215 0.09747 0.0
C2991 C 0.43279 0.23235 0.14044 0.0
H2992 H 0.40674 0.28174 0.07909 0.0
H2993 H 0.37146 0.28499 0.13464 0.0
H2994 H 0.43239 0.23569 0.09084 0.0
H2995 H 0.41089 0.22914 0.07539 0.0
H2996 H 0.42513 0.2523 0.06978 0.0
H2997 H 0.36715 0.25679 0.1568 0.0
H2998 H 0.36671 0.23244 0.14324 0.0
H2999 H 0.38863 0.23976 0.15776 0.0
H3000 H 0.38113 0.17424 0.11113 0.0
H3001 H 0.4325 0.19138 0.14821 0.0
H3002 H 0.37619 0.22132 0.08402 0.0
H3003 H 0.36019 0.22189 0.10622 0.0
H3004 H 0.36276 0.19826 0.09173 0.0
H3005 H 0.43869 0.2422 0.12778 0.0
H3006 H 0.44579 0.22518 0.14857 0.0
H3007 H 0.42481 0.24261 0.15144 0.0
C3008 C 0.55174 0.68242 0.89441 0.0
C3009 C 0.56809 0.66938 0.89868 0.0
C3010 C 0.53353 0.67453 0.88648 0.0
C3011 C 0.53155 0.65303 0.88294 0.0
C3012 C 0.54832 0.63991 0.88619 0.0
C3013 C 0.56647 0.64827 0.89393 0.0
C3014 C 0.51608 0.68908 0.88292 0.0
C3015 C 0.54675 0.61691 0.88265 0.0
C3016 C 0.47792 0.63362 0.89004 0.0
C3017 C 0.47097 0.63237 0.86962 0.0
C3018 C 0.49791 0.63937 0.89448 0.0
C3019 C 0.51128 0.6442 0.87811 0.0
C3020 C 0.50466 0.64214 0.85742 0.0
C3021 C 0.48456 0.63614 0.8534 0.0
C3022 C 0.50446 0.64113 0.91677 0.0
C3023 C 0.51849 0.64723 0.83959 0.0
H3024 H 0.55299 0.6988 0.89774 0.0
H3025 H 0.57906 0.6381 0.89716 0.0
H3026 H 0.50946 0.68658 0.86737 0.0
H3027 H 0.50399 0.68594 0.89439 0.0
H3028 H 0.52073 0.70555 0.88433 0.0
H3029 H 0.56175 0.60927 0.88334 0.0
H3030 H 0.53684 0.60994 0.89462 0.0
H3031 H 0.53972 0.61358 0.86744 0.0
H3032 H 0.46758 0.63047 0.90265 0.0
H3033 H 0.47928 0.63524 0.83758 0.0
H3034 H 0.50763 0.65755 0.92058 0.0
H3035 H 0.51865 0.6324 0.91933 0.0
H3036 H 0.49274 0.63523 0.92759 0.0
H3037 H 0.52151 0.66411 0.83931 0.0
H3038 H 0.51182 0.64264 0.82451 0.0
H3039 H 0.53328 0.63942 0.84145 0.0
C3040 C 0.10183 0.72174 0.59719 0.0
C3041 C 0.11437 0.70963 0.60969 0.0
C3042 C 0.09688 0.74201 0.6029 0.0
C3043 C 0.10503 0.75039 0.62132 0.0
C3044 C 0.11758 0.73815 0.63405 0.0
C3045 C 0.12194 0.71783 0.62817 0.0
C3046 C 0.08312 0.7545 0.58918 0.0
C3047 C 0.12676 0.74665 0.65369 0.0
C3048 C 0.1112 0.80827 0.62772 0.0
C3049 C 0.09592 0.81264 0.64201 0.0
C3050 C 0.11398 0.78811 0.62036 0.0
C3051 C 0.1009 0.77212 0.62718 0.0
C3052 C 0.08478 0.77669 0.64077 0.0
C3053 C 0.08261 0.79691 0.64821 0.0
C3054 C 0.13149 0.78376 0.60605 0.0
C3055 C 0.07026 0.76012 0.64801 0.0
H3056 H 0.09584 0.71537 0.58294 0.0
H3057 H 0.13172 0.70852 0.63782 0.0
H3058 H 0.07011 0.76039 0.59822 0.0
H3059 H 0.09142 0.76812 0.58308 0.0
H3060 H 0.07721 0.74535 0.57594 0.0
H3061 H 0.13621 0.73509 0.66184 0.0
H3062 H 0.13632 0.76034 0.6501 0.0
H3063 H 0.11463 0.75183 0.66429 0.0
H3064 H 0.12152 0.82043 0.62292 0.0
H3065 H 0.07064 0.80033 0.6591 0.0
H3066 H 0.12608 0.77563 0.592 0.0
H3067 H 0.14244 0.77342 0.61386 0.0
H3068 H 0.13957 0.79808 0.60132 0.0
H3069 H 0.06421 0.75131 0.63464 0.0
H3070 H 0.05736 0.7666 0.65684 0.0
H3071 H 0.07836 0.74901 0.65804 0.0
C3072 C 0.01655 0.3673 0.36521 0.0
C3073 C 0.03009 0.37148 0.3814 0.0
C3074 C 0.99619 0.36237 0.36925 0.0
C3075 C 0.98928 0.36175 0.38992 0.0
C3076 C 0.00254 0.36742 0.40615 0.0
C3077 C 0.02278 0.37214 0.4017 0.0
C3078 C 0.98248 0.35646 0.35154 0.0
C3079 C 0.99573 0.36715 0.4284 0.0
C3080 C 0.93372 0.35591 0.40433 0.0
C3081 C 0.93269 0.33479 0.40916 0.0
C3082 C 0.95188 0.36491 0.39731 0.0
C3083 C 0.96928 0.35245 0.39499 0.0
C3084 C 0.96807 0.331 0.39905 0.0
C3085 C 0.94985 0.32248 0.40611 0.0
C3086 C 0.95264 0.38782 0.39308 0.0
C3087 C 0.98624 0.31712 0.39663 0.0
H3088 H 0.02206 0.36682 0.34947 0.0
H3089 H 0.03307 0.37569 0.41428 0.0
H3090 H 0.97992 0.3395 0.35168 0.0
H3091 H 0.9675 0.36394 0.35313 0.0
H3092 H 0.98909 0.36078 0.33637 0.0
H3093 H 0.0071 0.37431 0.43888 0.0
H3094 H 0.98119 0.37545 0.43015 0.0
H3095 H 0.99317 0.35094 0.43338 0.0
H3096 H 0.92051 0.36551 0.40656 0.0
H3097 H 0.94915 0.30608 0.40946 0.0
H3098 H 0.95951 0.39085 0.37775 0.0
H3099 H 0.96236 0.39555 0.40477 0.0
H3100 H 0.93739 0.39493 0.39355 0.0
H3101 H 0.99276 0.31881 0.38095 0.0
H3102 H 0.98242 0.30058 0.39918 0.0
H3103 H 0.99815 0.3217 0.40785 0.0
C3104 C 0.36653 0.81625 0.363 0.0
C3105 C 0.38539 0.82631 0.36223 0.0
C3106 C 0.36523 0.79472 0.36515 0.0
C3107 C 0.38321 0.78305 0.36683 0.0
C3108 C 0.40226 0.79315 0.3666 0.0
C3109 C 0.40313 0.81464 0.36419 0.0
C3110 C 0.34466 0.78441 0.3652 0.0
C3111 C 0.42175 0.78123 0.36868 0.0
C3112 C 0.381 0.7295 0.39026 0.0
C3113 C 0.38229 0.71684 0.3727 0.0
C3114 C 0.38102 0.75107 0.38854 0.0
C3115 C 0.38218 0.76023 0.36878 0.0
C3116 C 0.38306 0.7476 0.35096 0.0
C3117 C 0.38322 0.72603 0.35313 0.0
C3118 C 0.38025 0.76405 0.40791 0.0
C3119 C 0.3841 0.75689 0.32961 0.0
H3120 H 0.35277 0.82514 0.36133 0.0
H3121 H 0.41776 0.82231 0.36374 0.0
H3122 H 0.3435 0.77347 0.35205 0.0
H3123 H 0.34262 0.7753 0.37954 0.0
H3124 H 0.33213 0.79573 0.36402 0.0
H3125 H 0.43529 0.79149 0.36878 0.0
H3126 H 0.4216 0.77209 0.38315 0.0
H3127 H 0.42319 0.77015 0.3557 0.0
H3128 H 0.38037 0.72258 0.40547 0.0
H3129 H 0.3841 0.71638 0.33948 0.0
H3130 H 0.36726 0.77481 0.40722 0.0
H3131 H 0.39421 0.7736 0.40915 0.0
H3132 H 0.37882 0.75451 0.42208 0.0
H3133 H 0.37123 0.76756 0.32721 0.0
H3134 H 0.38377 0.74494 0.3173 0.0
H3135 H 0.39823 0.7661 0.32799 0.0
C3136 C 0.01246 0.61268 0.12513 0.0
C3137 C 0.02181 0.62143 0.1425 0.0
C3138 C 0.99286 0.61836 0.11934 0.0
C3139 C 0.98245 0.6334 0.13105 0.0
C3140 C 0.99161 0.64199 0.14888 0.0
C3141 C 0.01122 0.63579 0.15449 0.0
C3142 C 0.98351 0.60864 0.10036 0.0
C3143 C 0.98102 0.65821 0.16158 0.0
C3144 C 0.94375 0.6614 0.09874 0.0
C3145 C 0.92591 0.65078 0.10383 0.0
C3146 C 0.96207 0.65682 0.10856 0.0
C3147 C 0.96259 0.64096 0.12357 0.0
C3148 C 0.94443 0.63085 0.12949 0.0
C3149 C 0.92621 0.63601 0.11962 0.0
C3150 C 0.98105 0.66822 0.10208 0.0
C3151 C 0.94444 0.61376 0.14531 0.0
H3152 H 0.02052 0.60141 0.11594 0.0
H3153 H 0.01843 0.64258 0.16793 0.0
H3154 H 0.96839 0.60209 0.10409 0.0
H3155 H 0.9813 0.6206 0.08832 0.0
H3156 H 0.99306 0.59617 0.09382 0.0
H3157 H 0.9895 0.66212 0.17589 0.0
H3158 H 0.97926 0.67248 0.1523 0.0
H3159 H 0.96561 0.65286 0.16587 0.0
H3160 H 0.94349 0.67305 0.08674 0.0
H3161 H 0.91239 0.62782 0.12361 0.0
H3162 H 0.99108 0.65758 0.09346 0.0
H3163 H 0.98955 0.6737 0.11582 0.0
H3164 H 0.97768 0.68169 0.09207 0.0
H3165 H 0.95206 0.59999 0.13878 0.0
H3166 H 0.92887 0.60923 0.15002 0.0
H3167 H 0.95307 0.61851 0.15924 0.0
C3168 C 0.11403 0.28511 0.85621 0.0
C3169 C 0.11782 0.293 0.87601 0.0
C3170 C 0.11396 0.26372 0.85256 0.0
C3171 C 0.11754 0.25 0.86916 0.0
C3172 C 0.12166 0.25788 0.88908 0.0
C3173 C 0.12185 0.27925 0.89223 0.0
C3174 C 0.10978 0.25578 0.83105 0.0
C3175 C 0.12539 0.24372 0.9072 0.0
C3176 C 0.09689 0.19536 0.86662 0.0
C3177 C 0.1145 0.18403 0.86278 0.0
C3178 C 0.09764 0.21691 0.8685 0.0
C3179 C 0.11637 0.22735 0.86601 0.0
C3180 C 0.13413 0.21602 0.86171 0.0
C3181 C 0.13303 0.19443 0.86039 0.0
C3182 C 0.07847 0.22847 0.87356 0.0
C3183 C 0.15429 0.2267 0.8586 0.0
H3184 H 0.11099 0.29562 0.84358 0.0
H3185 H 0.12476 0.28513 0.90762 0.0
H3186 H 0.12208 0.24529 0.82608 0.0
H3187 H 0.0955 0.24666 0.83096 0.0
H3188 H 0.10841 0.26848 0.81963 0.0
H3189 H 0.12868 0.25236 0.92165 0.0
H3190 H 0.11192 0.23373 0.90979 0.0
H3191 H 0.13834 0.23339 0.9039 0.0
H3192 H 0.08256 0.18732 0.8685 0.0
H3193 H 0.14661 0.1857 0.8571 0.0
H3194 H 0.07548 0.24033 0.86161 0.0
H3195 H 0.08029 0.23668 0.8885 0.0
H3196 H 0.06508 0.21806 0.87463 0.0
H3197 H 0.15297 0.23867 0.84644 0.0
H3198 H 0.16641 0.21574 0.85413 0.0
H3199 H 0.15893 0.23467 0.87302 0.0
C3200 C 0.55273 0.32346 0.60362 0.0
C3201 C 0.57028 0.33411 0.60967 0.0
C3202 C 0.53391 0.32814 0.61236 0.0
C3203 C 0.53259 0.34417 0.62716 0.0
C3204 C 0.55041 0.35439 0.63396 0.0
C3205 C 0.56913 0.34907 0.62526 0.0
C3206 C 0.51532 0.31657 0.60504 0.0
C3207 C 0.54956 0.37176 0.64949 0.0
C3208 C 0.48256 0.37239 0.62705 0.0
C3209 C 0.47298 0.36411 0.64448 0.0
C3210 C 0.50222 0.36647 0.62167 0.0
C3211 C 0.51239 0.35159 0.6338 0.0
C3212 C 0.50287 0.34331 0.65156 0.0
C3213 C 0.48329 0.34984 0.65681 0.0
C3214 C 0.51198 0.37593 0.60281 0.0
C3215 C 0.51314 0.32716 0.66463 0.0
H3216 H 0.55364 0.31171 0.59173 0.0
H3217 H 0.5827 0.35735 0.62991 0.0
H3218 H 0.50621 0.3112 0.6184 0.0
H3219 H 0.50564 0.32705 0.59581 0.0
H3220 H 0.51921 0.303 0.59535 0.0
H3221 H 0.56488 0.3767 0.65468 0.0
H3222 H 0.54186 0.38524 0.64249 0.0
H3223 H 0.54059 0.36706 0.66318 0.0
H3224 H 0.47469 0.38358 0.61759 0.0
H3225 H 0.47586 0.34336 0.67026 0.0
H3226 H 0.51462 0.3638 0.59103 0.0
H3227 H 0.52694 0.38267 0.6069 0.0
H3228 H 0.50251 0.3882 0.59581 0.0
H3229 H 0.51564 0.31302 0.65531 0.0
H3230 H 0.50407 0.32296 0.67845 0.0
H3231 H 0.52822 0.33279 0.66976 0.0
C3232 C 0.11996 0.37712 0.28338 0.0
C3233 C 0.10149 0.38573 0.28951 0.0
C3234 C 0.12693 0.37911 0.26314 0.0
C3235 C 0.11528 0.39027 0.24867 0.0
C3236 C 0.09665 0.39915 0.25472 0.0
C3237 C 0.08985 0.39663 0.27512 0.0
C3238 C 0.14677 0.36919 0.25724 0.0
C3239 C 0.08404 0.4114 0.23969 0.0
C3240 C 0.14694 0.40816 0.2035 0.0
C3241 C 0.14298 0.39258 0.18901 0.0
C3242 C 0.13693 0.40841 0.22255 0.0
C3243 C 0.12294 0.39247 0.22729 0.0
C3244 C 0.11833 0.37713 0.21239 0.0
C3245 C 0.12833 0.37746 0.19333 0.0
C3246 C 0.142 0.4252 0.23794 0.0
C3247 C 0.10368 0.35975 0.217 0.0
H3248 H 0.12896 0.36854 0.2944 0.0
H3249 H 0.0756 0.40335 0.27987 0.0
H3250 H 0.14437 0.35827 0.24424 0.0
H3251 H 0.15765 0.38117 0.25194 0.0
H3252 H 0.15373 0.36063 0.27027 0.0
H3253 H 0.06999 0.41742 0.24686 0.0
H3254 H 0.09301 0.42462 0.23366 0.0
H3255 H 0.07983 0.4016 0.22629 0.0
H3256 H 0.15802 0.42009 0.20003 0.0
H3257 H 0.12515 0.36548 0.18206 0.0
H3258 H 0.15079 0.41854 0.2509 0.0
H3259 H 0.12797 0.43183 0.24451 0.0
H3260 H 0.15109 0.43786 0.23092 0.0
H3261 H 0.11025 0.34951 0.22895 0.0
H3262 H 0.10022 0.3503 0.2031 0.0
H3263 H 0.08931 0.36592 0.22326 0.0
C3264 C 0.37867 0.3809 0.93638 0.0
C3265 C 0.35981 0.38302 0.92667 0.0
C3266 C 0.38011 0.37937 0.95791 0.0
C3267 C 0.36225 0.37966 0.96996 0.0
C3268 C 0.34315 0.38134 0.96023 0.0
C3269 C 0.34216 0.38313 0.93871 0.0
C3270 C 0.40076 0.37774 0.9678 0.0
C3271 C 0.32376 0.38135 0.97258 0.0
C3272 C 0.36499 0.35678 0.02363 0.0
C3273 C 0.36628 0.37455 0.03601 0.0
C3274 C 0.3635 0.35825 0.00213 0.0
C3275 C 0.36355 0.37796 0.99274 0.0
C3276 C 0.36487 0.39597 0.0051 0.0
C3277 C 0.36607 0.39406 0.02665 0.0
C3278 C 0.36183 0.3387 0.98946 0.0
C3279 C 0.36516 0.41724 0.99555 0.0
H3280 H 0.39238 0.38098 0.92721 0.0
H3281 H 0.32752 0.38466 0.9313 0.0
H3282 H 0.40315 0.39081 0.97864 0.0
H3283 H 0.40174 0.36329 0.97692 0.0
H3284 H 0.41317 0.37786 0.95625 0.0
H3285 H 0.31011 0.38237 0.96261 0.0
H3286 H 0.32267 0.36705 0.98196 0.0
H3287 H 0.32376 0.3946 0.98345 0.0
H3288 H 0.36494 0.34164 0.03075 0.0
H3289 H 0.36713 0.40784 0.03612 0.0
H3290 H 0.37474 0.33771 0.97858 0.0
H3291 H 0.34777 0.33896 0.98009 0.0
H3292 H 0.36166 0.32458 -0.0008 0.0
H3293 H 0.37811 0.41863 0.98473 0.0
H3294 H 0.36643 0.42969 0.00731 0.0
H3295 H 0.35114 0.41968 0.98646 0.0
C3296 C 0.37313 0.58956 0.68244 0.0
C3297 C 0.37206 0.60878 0.67246 0.0
C3298 C 0.38074 0.58792 0.70256 0.0
C3299 C 0.38728 0.60595 0.71301 0.0
C3300 C 0.38679 0.6253 0.70285 0.0
C3301 C 0.37925 0.62647 0.68265 0.0
C3302 C 0.38117 0.567 0.71286 0.0
C3303 C 0.39356 0.64489 0.71358 0.0
C3304 C 0.38337 0.60866 0.7711 0.0
C3305 C 0.4037 0.60713 0.77713 0.0
C3306 C 0.3778 0.60766 0.7503 0.0
C3307 C 0.39294 0.60495 0.73513 0.0
C3308 C 0.41339 0.60242 0.74114 0.0
C3309 C 0.41856 0.60358 0.76215 0.0
C3310 C 0.3558 0.61035 0.74451 0.0
C3311 C 0.42987 0.59928 0.72535 0.0
H3312 H 0.36786 0.57573 0.67459 0.0
H3313 H 0.37856 0.64136 0.67505 0.0
H3314 H 0.39634 0.56409 0.71958 0.0
H3315 H 0.37011 0.56664 0.72572 0.0
H3316 H 0.3774 0.55427 0.70197 0.0
H3317 H 0.39343 0.65847 0.70311 0.0
H3318 H 0.3834 0.64809 0.72681 0.0
H3319 H 0.40908 0.64304 0.71984 0.0
H3320 H 0.37177 0.61126 0.78262 0.0
H3321 H 0.43429 0.60235 0.76675 0.0
H3322 H 0.35061 0.59728 0.73474 0.0
H3323 H 0.35401 0.62469 0.73534 0.0
H3324 H 0.3458 0.61131 0.75825 0.0
H3325 H 0.42572 0.58653 0.71467 0.0
H3326 H 0.44468 0.59569 0.73262 0.0
H3327 H 0.43164 0.61347 0.71593 0.0
C3328 C 0.14075 0.64259 0.52257 0.0
C3329 C 0.13721 0.62467 0.5342 0.0
C3330 C 0.14182 0.64181 0.50099 0.0
C3331 C 0.13889 0.62269 0.49079 0.0
C3332 C 0.13514 0.60455 0.50243 0.0
C3333 C 0.13456 0.60572 0.52405 0.0
C3334 C 0.14625 0.66139 0.48913 0.0
C3335 C 0.13162 0.58395 0.49203 0.0
C3336 C 0.12342 0.62299 0.43437 0.0
C3337 C 0.14172 0.61811 0.42456 0.0
C3338 C 0.12231 0.62472 0.45592 0.0
C3339 C 0.13995 0.62164 0.46793 0.0
C3340 C 0.15857 0.61728 0.45813 0.0
C3341 C 0.15923 0.61554 0.43658 0.0
C3342 C 0.10218 0.62936 0.46588 0.0
C3343 C 0.17773 0.61411 0.47044 0.0
H3344 H 0.14299 0.65725 0.53039 0.0
H3345 H 0.13168 0.59187 0.53299 0.0
H3346 H 0.16017 0.65944 0.47977 0.0
H3347 H 0.13368 0.66466 0.47826 0.0
H3348 H 0.14834 0.67497 0.49943 0.0
H3349 H 0.12845 0.57141 0.50328 0.0
H3350 H 0.11866 0.58504 0.48119 0.0
H3351 H 0.14511 0.57967 0.48282 0.0
H3352 H 0.1098 0.62496 0.42526 0.0
H3353 H 0.17347 0.61185 0.4292 0.0
H3354 H 0.10345 0.6434 0.47564 0.0
H3355 H 0.09769 0.61641 0.47614 0.0
H3356 H 0.08998 0.63178 0.45433 0.0
H3357 H 0.18069 0.62771 0.48045 0.0
H3358 H 0.19114 0.61162 0.46042 0.0
H3359 H 0.17594 0.60051 0.48069 0.0
C3360 C 0.13478 0.61117 0.21477 0.0
C3361 C 0.11519 0.6054 0.20872 0.0
C3362 C 0.14009 0.61219 0.23568 0.0
C3363 C 0.12559 0.60672 0.25083 0.0
C3364 C 0.10569 0.60112 0.24482 0.0
C3365 C 0.10064 0.6008 0.22378 0.0
C3366 C 0.16133 0.6187 0.24153 0.0
C3367 C 0.09001 0.59467 0.26051 0.0
C3368 C 0.1489 0.58689 0.30023 0.0
C3369 C 0.14715 0.60405 0.31325 0.0
C3370 C 0.14106 0.58726 0.28017 0.0
C3371 C 0.1318 0.60548 0.2728 0.0
C3372 C 0.12964 0.62276 0.28604 0.0
C3373 C 0.1371 0.62171 0.30631 0.0
C3374 C 0.14314 0.56831 0.26672 0.0
C3375 C 0.12028 0.64259 0.27853 0.0
H3376 H 0.14597 0.61497 0.20312 0.0
H3377 H 0.08551 0.59622 0.21907 0.0
H3378 H 0.16088 0.63118 0.25327 0.0
H3379 H 0.16943 0.60546 0.2485 0.0
H3380 H 0.17017 0.62426 0.22803 0.0
H3381 H 0.07495 0.59179 0.25339 0.0
H3382 H 0.09499 0.58034 0.26836 0.0
H3383 H 0.08841 0.60673 0.27256 0.0
H3384 H 0.15646 0.57312 0.30576 0.0
H3385 H 0.13584 0.63498 0.31644 0.0
H3386 H 0.15366 0.57164 0.25381 0.0
H3387 H 0.12828 0.56408 0.25987 0.0
H3388 H 0.14898 0.55482 0.27543 0.0
H3389 H 0.12981 0.64932 0.26611 0.0
H3390 H 0.11874 0.6542 0.29106 0.0
H3391 H 0.10511 0.63952 0.2718 0.0
C3392 C 0.15891 0.3764 0.06698 0.0
C3393 C 0.14283 0.37029 0.07981 0.0
C3394 C 0.15814 0.37302 0.04561 0.0
C3395 C 0.14089 0.36332 0.03691 0.0
C3396 C 0.12499 0.35639 0.04981 0.0
C3397 C 0.12615 0.35994 0.07111 0.0
C3398 C 0.17545 0.38047 0.03229 0.0
C3399 C 0.1064 0.34586 0.04105 0.0
C3400 C 0.12614 0.3743 0.98152 0.0
C3401 C 0.1322 0.35613 0.97161 0.0
C3402 C 0.12938 0.37706 0.00273 0.0
C3403 C 0.13893 0.36127 0.01421 0.0
C3404 C 0.14563 0.34315 0.00416 0.0
C3405 C 0.14216 0.34079 0.98295 0.0
C3406 C 0.12206 0.39662 0.01295 0.0
C3407 C 0.15594 0.32604 0.01592 0.0
H3408 H 0.17193 0.38431 0.07353 0.0
H3409 H 0.11369 0.35505 0.08085 0.0
H3410 H 0.18085 0.36779 0.0222 0.0
H3411 H 0.17016 0.39308 0.02208 0.0
H3412 H 0.18841 0.38632 0.0416 0.0
H3413 H 0.09587 0.34043 0.05329 0.0
H3414 H 0.09816 0.35673 0.03087 0.0
H3415 H 0.11083 0.33241 0.03147 0.0
H3416 H 0.11848 0.38623 0.97281 0.0
H3417 H 0.14696 0.32673 0.97534 0.0
H3418 H 0.13467 0.4042 0.02145 0.0
H3419 H 0.11012 0.39281 0.02439 0.0
H3420 H 0.11579 0.40781 0.00167 0.0
H3421 H 0.16899 0.33228 0.02478 0.0
H3422 H 0.16142 0.31356 0.00558 0.0
H3423 H 0.14522 0.3192 0.02721 0.0
C3424 C 0.34869 0.40897 0.80127 0.0
C3425 C 0.35091 0.39281 0.81541 0.0
C3426 C 0.35595 0.40715 0.78108 0.0
C3427 C 0.36511 0.38847 0.77479 0.0
C3428 C 0.36767 0.37219 0.78912 0.0
C3429 C 0.36077 0.37468 0.80944 0.0
C3430 C 0.35343 0.42506 0.76639 0.0
C3431 C 0.37697 0.3519 0.78278 0.0
C3432 C 0.36111 0.37863 0.71739 0.0
C3433 C 0.38055 0.38409 0.71064 0.0
C3434 C 0.35618 0.37908 0.7384 0.0
C3435 C 0.37091 0.38572 0.75287 0.0
C3436 C 0.39066 0.391 0.74617 0.0
C3437 C 0.39533 0.38985 0.72509 0.0
C3438 C 0.33509 0.37288 0.74504 0.0
C3439 C 0.40658 0.39864 0.76112 0.0
H3440 H 0.34129 0.4231 0.80602 0.0
H3441 H 0.3624 0.36219 0.82044 0.0
H3442 H 0.36813 0.42895 0.75903 0.0
H3443 H 0.34274 0.4207 0.75389 0.0
H3444 H 0.34758 0.43908 0.77422 0.0
H3445 H 0.37871 0.34115 0.79602 0.0
H3446 H 0.36729 0.34435 0.77094 0.0
H3447 H 0.39204 0.35455 0.7757 0.0
H3448 H 0.34974 0.37393 0.70622 0.0
H3449 H 0.41035 0.39418 0.71983 0.0
H3450 H 0.32704 0.38653 0.75124 0.0
H3451 H 0.33584 0.36125 0.75758 0.0
H3452 H 0.32604 0.36635 0.7321 0.0
H3453 H 0.40163 0.41345 0.76808 0.0
H3454 H 0.42148 0.40114 0.75357 0.0
H3455 H 0.4085 0.38745 0.77392 0.0
C3456 C 0.35645 0.65513 0.47372 0.0
C3457 C 0.3701 0.64359 0.46191 0.0
C3458 C 0.35149 0.64915 0.49389 0.0
C3459 C 0.36069 0.63143 0.50247 0.0
C3460 C 0.37459 0.61982 0.49064 0.0
C3461 C 0.37899 0.62595 0.47041 0.0
C3462 C 0.33635 0.66167 0.50597 0.0
C3463 C 0.3849 0.60098 0.49939 0.0
C3464 C 0.36424 0.62481 0.56041 0.0
C3465 C 0.34965 0.6094 0.56387 0.0
C3466 C 0.36763 0.63257 0.54053 0.0
C3467 C 0.35591 0.62495 0.52386 0.0
C3468 C 0.34048 0.61012 0.52746 0.0
C3469 C 0.33764 0.60239 0.54744 0.0
C3470 C 0.38435 0.64823 0.53722 0.0
C3471 C 0.32742 0.60194 0.5101 0.0
H3472 H 0.34945 0.6687 0.46711 0.0
H3473 H 0.38962 0.61705 0.46132 0.0
H3474 H 0.32348 0.65167 0.51077 0.0
H3475 H 0.34348 0.66778 0.52024 0.0
H3476 H 0.33033 0.67485 0.49693 0.0
H3477 H 0.3956 0.59389 0.48828 0.0
H3478 H 0.39335 0.60522 0.5136 0.0
H3479 H 0.37341 0.58921 0.50378 0.0
H3480 H 0.37355 0.63025 0.57311 0.0
H3481 H 0.32621 0.59061 0.55014 0.0
H3482 H 0.37847 0.66193 0.52893 0.0
H3483 H 0.39636 0.64138 0.52744 0.0
H3484 H 0.39129 0.65345 0.55196 0.0
H3485 H 0.32083 0.61491 0.50122 0.0
H3486 H 0.31492 0.59191 0.51579 0.0
H3487 H 0.33684 0.59283 0.49928 0.0
C3488 C 0.17543 0.12571 0.39406 0.0
C3489 C 0.17504 0.14054 0.40981 0.0
C3490 C 0.19378 0.11688 0.38772 0.0
C3491 C 0.21202 0.12283 0.39764 0.0
C3492 C 0.21147 0.13677 0.41447 0.0
C3493 C 0.19299 0.14562 0.42022 0.0
C3494 C 0.19379 0.10223 0.36958 0.0
C3495 C 0.23053 0.14318 0.42572 0.0
C3496 C 0.26067 0.09312 0.38818 0.0
C3497 C 0.27062 0.10616 0.37417 0.0
C3498 C 0.24142 0.09815 0.39585 0.0
C3499 C 0.23186 0.11644 0.38902 0.0
C3500 C 0.24164 0.12931 0.37441 0.0
C3501 C 0.26097 0.12411 0.36732 0.0
C3502 C 0.23157 0.08425 0.41166 0.0
C3503 C 0.23183 0.14879 0.36649 0.0
H3504 H 0.16156 0.12176 0.38597 0.0
H3505 H 0.19269 0.15691 0.43259 0.0
H3506 H 0.20107 0.10988 0.35616 0.0
H3507 H 0.20273 0.08823 0.37318 0.0
H3508 H 0.17823 0.09741 0.36506 0.0
H3509 H 0.22723 0.15209 0.43998 0.0
H3510 H 0.23958 0.12942 0.42992 0.0
H3511 H 0.24002 0.15294 0.41546 0.0
H3512 H 0.26816 0.07927 0.39357 0.0
H3513 H 0.26855 0.13414 0.35635 0.0
H3514 H 0.21619 0.07963 0.40648 0.0
H3515 H 0.22982 0.09276 0.42642 0.0
H3516 H 0.24054 0.07009 0.4146 0.0
H3517 H 0.2166 0.14521 0.36014 0.0
H3518 H 0.24097 0.15645 0.35428 0.0
H3519 H 0.22977 0.15987 0.37938 0.0
C3520 C 0.76879 0.36599 0.62813 0.0
C3521 C 0.77422 0.38674 0.62511 0.0
C3522 C 0.75011 0.35832 0.62117 0.0
C3523 C 0.73653 0.37174 0.611 0.0
C3524 C 0.74168 0.39283 0.6084 0.0
C3525 C 0.76051 0.40009 0.61547 0.0
C3526 C 0.74518 0.3357 0.62416 0.0
C3527 C 0.72754 0.40759 0.59765 0.0
C3528 C 0.70046 0.34608 0.57336 0.0
C3529 C 0.68261 0.34454 0.58503 0.0
C3530 C 0.71794 0.35533 0.5815 0.0
C3531 C 0.71762 0.36327 0.60183 0.0
C3532 C 0.69958 0.36225 0.61357 0.0
C3533 C 0.68226 0.35289 0.60503 0.0
C3534 C 0.73689 0.35619 0.56847 0.0
C3535 C 0.69873 0.37064 0.63529 0.0
H3536 H 0.77929 0.3556 0.63562 0.0
H3537 H 0.76461 0.41617 0.61317 0.0
H3538 H 0.73035 0.33391 0.63199 0.0
H3539 H 0.74392 0.32798 0.60891 0.0
H3540 H 0.75687 0.3276 0.63339 0.0
H3541 H 0.73315 0.42379 0.59821 0.0
H3542 H 0.72577 0.40298 0.58125 0.0
H3543 H 0.7123 0.40691 0.60481 0.0
H3544 H 0.7009 0.33987 0.55783 0.0
H3545 H 0.66854 0.35185 0.61414 0.0
H3546 H 0.74903 0.34706 0.57592 0.0
H3547 H 0.74246 0.37235 0.56725 0.0
H3548 H 0.73438 0.35005 0.55265 0.0
H3549 H 0.70917 0.36181 0.64534 0.0
H3550 H 0.68325 0.3697 0.64194 0.0
H3551 H 0.70384 0.387 0.63556 0.0
C3552 C 0.3975 0.95019 0.33064 0.0
C3553 C 0.39444 0.9372 0.34762 0.0
C3554 C 0.38982 0.97029 0.33051 0.0
C3555 C 0.37943 0.97771 0.34808 0.0
C3556 C 0.37598 0.96449 0.36514 0.0
C3557 C 0.38329 0.94419 0.36456 0.0
C3558 C 0.39328 0.98374 0.31179 0.0
C3559 C 0.36539 0.97206 0.38432 0.0
C3560 C 0.38256 0.0356 0.35556 0.0
C3561 C 0.36324 0.04182 0.34933 0.0
C3562 C 0.38778 0.01467 0.35582 0.0
C3563 C 0.3735 -0.00027 0.34909 0.0
C3564 C 0.35397 0.00594 0.34267 0.0
C3565 C 0.34895 0.02696 0.34317 0.0
C3566 C 0.4086 0.00858 0.36324 0.0
C3567 C 0.3386 0.99045 0.33485 0.0
H3568 H 0.40589 0.94459 0.31741 0.0
H3569 H 0.38101 0.93406 0.37768 0.0
H3570 H 0.37882 0.99078 0.30673 0.0
H3571 H 0.40381 0.99656 0.31577 0.0
H3572 H 0.39979 0.97496 0.29866 0.0
H3573 H 0.36304 0.95955 0.39581 0.0
H3574 H 0.37453 0.98453 0.3916 0.0
H3575 H 0.35048 0.97874 0.38031 0.0
H3576 H 0.39351 0.0471 0.36057 0.0
H3577 H 0.33403 0.03185 0.33825 0.0
H3578 H 0.4172 0.00147 0.3504 0.0
H3579 H 0.40732 0.99685 0.37566 0.0
H3580 H 0.41742 0.02198 0.3692 0.0
H3581 H 0.34467 0.98241 0.32106 0.0
H3582 H 0.32401 0.9978 0.33063 0.0
H3583 H 0.33564 0.9785 0.34674 0.0
C3584 C 0.81411 0.63625 0.09426 0.0
C3585 C 0.8143 0.64548 0.07467 0.0
C3586 C 0.79637 0.62728 0.10221 0.0
C3587 C 0.77844 0.62746 0.09024 0.0
C3588 C 0.77864 0.63626 0.07027 0.0
C3589 C 0.79655 0.64519 0.06274 0.0
C3590 C 0.79667 0.61808 0.12361 0.0
C3591 C 0.75982 0.63665 0.05701 0.0
C3592 C 0.73475 0.59158 0.10394 0.0
C3593 C 0.72181 0.60504 0.11448 0.0
C3594 C 0.75339 0.59858 0.09613 0.0
C3595 C 0.75916 0.61949 0.099 0.0
C3596 C 0.74625 0.63306 0.10985 0.0
C3597 C 0.72773 0.62568 0.11744 0.0
C3598 C 0.76679 0.58371 0.08459 0.0
C3599 C 0.75189 0.65547 0.11325 0.0
H3600 H 0.82773 0.63635 0.1036 0.0
H3601 H 0.79655 0.65211 0.04752 0.0
H3602 H 0.78644 0.62693 0.13386 0.0
H3603 H 0.79098 0.60192 0.12319 0.0
H3604 H 0.81208 0.61818 0.13049 0.0
H3605 H 0.76278 0.64308 0.04141 0.0
H3606 H 0.75352 0.62081 0.05529 0.0
H3607 H 0.74805 0.64617 0.06459 0.0
H3608 H 0.73025 0.57562 0.10161 0.0
H3609 H 0.71781 0.63616 0.12561 0.0
H3610 H 0.78196 0.58313 0.09192 0.0
H3611 H 0.76898 0.58915 0.06851 0.0
H3612 H 0.76035 0.56782 0.08415 0.0
H3613 H 0.76668 0.65659 0.12132 0.0
H3614 H 0.74038 0.66385 0.12247 0.0
H3615 H 0.75361 0.66337 0.09816 0.0
C3616 C 0.60607 0.55678 0.3395 0.0
C3617 C 0.61086 0.57216 0.35395 0.0
C3618 C 0.61475 0.53715 0.3408 0.0
C3619 C 0.62818 0.53274 0.35721 0.0
C3620 C 0.63361 0.54844 0.37144 0.0
C3621 C 0.625 0.56811 0.36951 0.0
C3622 C 0.6089 0.5209 0.32511 0.0
C3623 C 0.64768 0.54419 0.38929 0.0
C3624 C 0.62806 0.47731 0.37537 0.0
C3625 C 0.64626 0.46992 0.36718 0.0
C3626 C 0.62222 0.49782 0.37245 0.0
C3627 C 0.63472 0.51118 0.36073 0.0
C3628 C 0.65304 0.50379 0.35221 0.0
C3629 C 0.65872 0.48321 0.35571 0.0
C3630 C 0.60268 0.5052 0.38199 0.0
C3631 C 0.6665 0.51757 0.3393 0.0
H3632 H 0.59539 0.56003 0.32723 0.0
H3633 H 0.62875 0.58006 0.38062 0.0
H3634 H 0.62259 0.51321 0.31895 0.0
H3635 H 0.59945 0.50884 0.3326 0.0
H3636 H 0.60021 0.52749 0.31201 0.0
H3637 H 0.6517 0.55847 0.39794 0.0
H3638 H 0.64032 0.53318 0.4001 0.0
H3639 H 0.6618 0.53687 0.38374 0.0
H3640 H 0.61847 0.46712 0.3844 0.0
H3641 H 0.67278 0.47749 0.34934 0.0
H3642 H 0.59211 0.51031 0.36973 0.0
H3643 H 0.60568 0.51871 0.39212 0.0
H3644 H 0.59506 0.493 0.39126 0.0
H3645 H 0.65794 0.52338 0.32577 0.0
H3646 H 0.68019 0.50941 0.3337 0.0
H3647 H 0.67135 0.53123 0.34842 0.0
C3648 C 0.22274 0.87173 0.90669 0.0
C3649 C 0.21453 0.88263 0.89004 0.0
C3650 C 0.24353 0.86774 0.90774 0.0
C3651 C 0.2563 0.87427 0.89143 0.0
C3652 C 0.24818 0.88582 0.87486 0.0
C3653 C 0.22737 0.89011 0.8745 0.0
C3654 C 0.2517 0.85584 0.92594 0.0
C3655 C 0.26123 0.89263 0.85697 0.0
C3656 C 0.31284 0.87044 0.90156 0.0
C3657 C 0.31652 0.8502 0.89502 0.0
C3658 C 0.29337 0.87895 0.89983 0.0
C3659 C 0.27759 0.86704 0.89083 0.0
C3660 C 0.28175 0.84712 0.88292 0.0
C3661 C 0.30109 0.83881 0.88546 0.0
C3662 C 0.28941 0.90005 0.90884 0.0
C3663 C 0.26551 0.83415 0.87267 0.0
H3664 H 0.21284 0.86622 0.91886 0.0
H3665 H 0.22099 0.8985 0.86159 0.0
H3666 H 0.25646 0.84024 0.92084 0.0
H3667 H 0.26524 0.86375 0.93241 0.0
H3668 H 0.24027 0.85401 0.93839 0.0
H3669 H 0.25309 0.90324 0.8464 0.0
H3670 H 0.27515 0.90048 0.86261 0.0
H3671 H 0.26606 0.87887 0.84806 0.0
H3672 H 0.32482 0.87912 0.90913 0.0
H3673 H 0.30409 0.82318 0.88029 0.0
H3674 H 0.28 0.89838 0.92293 0.0
H3675 H 0.2808 0.90971 0.89781 0.0
H3676 H 0.30365 0.90825 0.91304 0.0
H3677 H 0.25423 0.82916 0.88435 0.0
H3678 H 0.27181 0.82015 0.86517 0.0
H3679 H 0.25738 0.84333 0.86086 0.0
C3680 C 0.36765 0.97334 0.12519 0.0
C3681 C 0.34762 0.96665 0.12802 0.0
C3682 C 0.3727 0.99437 0.12575 0.0
C3683 C 0.35733 0.0091 0.12919 0.0
C3684 C 0.33713 0.00247 0.13251 0.0
C3685 C 0.3325 0.98125 0.13191 0.0
C3686 C 0.39446 0.00082 0.1223 0.0
C3687 C 0.32039 0.01779 0.13629 0.0
C3688 C 0.37679 0.06149 0.14641 0.0
C3689 C 0.37783 0.07225 0.12761 0.0
C3690 C 0.36926 0.04123 0.14732 0.0
C3691 C 0.36261 0.03144 0.12899 0.0
C3692 C 0.36278 0.04246 0.11012 0.0
C3693 C 0.37038 0.06275 0.10965 0.0
C3694 C 0.36924 0.03001 0.16774 0.0
C3695 C 0.35574 0.03251 0.09027 0.0
H3696 H 0.37944 0.96213 0.12226 0.0
H3697 H 0.31698 0.97615 0.13408 0.0
H3698 H 0.39555 0.01071 0.10837 0.0
H3699 H 0.39998 0.01011 0.13558 0.0
H3700 H 0.40465 0.98738 0.12026 0.0
H3701 H 0.30563 0.01008 0.1394 0.0
H3702 H 0.32427 0.02786 0.1496 0.0
H3703 H 0.31867 0.02795 0.12263 0.0
H3704 H 0.38227 0.06874 0.16045 0.0
H3705 H 0.37098 0.07094 0.09509 0.0
H3706 H 0.38052 0.01738 0.16733 0.0
H3707 H 0.35423 0.02282 0.17064 0.0
H3708 H 0.37301 0.04043 0.18085 0.0
H3709 H 0.36621 0.01986 0.08601 0.0
H3710 H 0.35516 0.0437 0.0773 0.0
H3711 H 0.34049 0.02554 0.09231 0.0
C3712 C 0.12045 0.93243 0.65919 0.0
C3713 C 0.11683 0.92264 0.6402 0.0
C3714 C 0.12572 0.95341 0.66011 0.0
C3715 C 0.12714 0.96493 0.64162 0.0
C3716 C 0.12408 0.95503 0.62237 0.0
C3717 C 0.11909 0.93394 0.62188 0.0
C3718 C 0.12918 0.96339 0.68091 0.0
C3719 C 0.12528 0.96689 0.60235 0.0
C3720 C 0.11695 0.02234 0.64511 0.0
C3721 C 0.13655 0.03071 0.64384 0.0
C3722 C 0.11372 0.00095 0.64433 0.0
C3723 C 0.1305 0.98759 0.6425 0.0
C3724 C 0.15034 0.99588 0.6415 0.0
C3725 C 0.15313 0.01738 0.64205 0.0
C3726 C 0.09231 0.99266 0.64524 0.0
C3727 C 0.1686 0.98204 0.63984 0.0
H3728 H 0.11896 0.92374 0.6734 0.0
H3729 H 0.11626 0.92649 0.60716 0.0
H3730 H 0.14387 0.9718 0.68106 0.0
H3731 H 0.11714 0.97488 0.68392 0.0
H3732 H 0.12914 0.95194 0.69367 0.0
H3733 H 0.12362 0.95668 0.58865 0.0
H3734 H 0.11313 0.97866 0.6019 0.0
H3735 H 0.13995 0.97524 0.60125 0.0
H3736 H 0.10405 0.03253 0.64636 0.0
H3737 H 0.16833 0.02373 0.64118 0.0
H3738 H 0.09055 0.98224 0.65871 0.0
H3739 H 0.08899 0.9834 0.6312 0.0
H3740 H 0.08091 0.00516 0.64646 0.0
H3741 H 0.16892 0.97113 0.65304 0.0
H3742 H 0.18304 0.99093 0.63963 0.0
H3743 H 0.16762 0.97264 0.62555 0.0
loop_
_geom_bond_atom_site_label_1
_geom_bond_atom_site_label_2
_geom_bond_distance
_geom_bond_site_symmetry_2
_ccdc_geom_bond_type
Co0 O1 2.216 . S
Co0 O2 2.091 . S
Co0 O4 2.004 . S
Co0 O10 2.021 . S
Co0 O12 2.137 . S
Co0 O13 2.244 . S
O1 Co0 2.216 . S
O1 C8 1.247 . S
O2 Co0 2.091 . S
O2 C8 1.261 . S
C3 O12 1.247 . S
C3 O13 1.272 . S
O4 Co0 2.004 . S
O4 C9 1.259 . S
Co5 O6 2.061 . S
Co5 O11 2.052 . S
Co5 O13 2.135 . S
O6 Co5 2.061 . S
O6 C9 1.235 . S
C7 O10 1.238 . S
C7 O11 1.241 . S
C8 O1 1.247 . S
C8 O2 1.261 . S
C9 O4 1.259 . S
C9 O6 1.235 . S
O10 Co0 2.021 . S
O10 C7 1.238 . S
O11 Co5 2.052 . S
O11 C7 1.241 . S
O12 Co0 2.137 . S
O12 C3 1.247 . S
O13 Co0 2.244 . S
O13 C3 1.272 . S
O13 Co5 2.135 . S
Co14 O15 2.216 . S
Co14 O16 2.091 . S
Co14 O18 2.004 . S
Co14 O24 2.021 . S
Co14 O26 2.137 . S
Co14 O27 2.244 . S
O15 Co14 2.216 . S
O15 C22 1.247 . S
O16 Co14 2.091 . S
O16 C22 1.261 . S
C17 O26 1.247 . S
C17 O27 1.272 . S
O18 Co14 2.004 . S
O18 C23 1.259 . S
Co19 O20 2.061 . S
Co19 O25 2.052 . S
Co19 O27 2.135 . S
O20 Co19 2.061 . S
O20 C23 1.235 . S
C21 O24 1.238 . S
C21 O25 1.241 . S
C22 O15 1.247 . S
C22 O16 1.261 . S
C23 O18 1.259 . S
C23 O20 1.235 . S
O24 Co14 2.021 . S
O24 C21 1.238 . S
O25 Co19 2.052 . S
O25 C21 1.241 . S
O26 Co14 2.137 . S
O26 C17 1.247 . S
O27 Co14 2.244 . S
O27 C17 1.272 . S
O27 Co19 2.135 . S
Co28 O29 2.216 . S
Co28 O30 2.091 . S
Co28 O32 2.004 . S
Co28 O38 2.021 . S
Co28 O40 2.137 . S
Co28 O41 2.244 . S
O29 Co28 2.216 . S
O29 C36 1.247 . S
O30 Co28 2.091 . S
O30 C36 1.261 . S
C31 O40 1.247 . S
C31 O41 1.272 . S
O32 Co28 2.004 . S
O32 C37 1.259 . S
Co33 O34 2.061 . S
Co33 O39 2.052 . S
Co33 O41 2.135 . S
O34 Co33 2.061 . S
O34 C37 1.235 . S
C35 O38 1.238 . S
C35 O39 1.241 . S
C36 O29 1.247 . S
C36 O30 1.261 . S
C37 O32 1.259 . S
C37 O34 1.235 . S
O38 Co28 2.021 . S
O38 C35 1.238 . S
O39 Co33 2.052 . S
O39 C35 1.241 . S
O40 Co28 2.137 . S
O40 C31 1.247 . S
O41 Co28 2.244 . S
O41 C31 1.272 . S
O41 Co33 2.135 . S
Co42 O43 2.216 . S
Co42 O44 2.091 . S
Co42 O46 2.004 . S
Co42 O52 2.021 . S
Co42 O54 2.137 . S
Co42 O55 2.244 . S
O43 Co42 2.216 . S
O43 C50 1.247 . S
O44 Co42 2.091 . S
O44 C50 1.261 . S
C45 O54 1.247 . S
C45 O55 1.272 . S
O46 Co42 2.004 . S
O46 C51 1.259 . S
Co47 O48 2.061 . S
Co47 O53 2.052 . S
Co47 O55 2.135 . S
O48 Co47 2.061 . S
O48 C51 1.235 . S
C49 O52 1.238 . S
C49 O53 1.241 . S
C50 O43 1.247 . S
C50 O44 1.261 . S
C51 O46 1.259 . S
C51 O48 1.235 . S
O52 Co42 2.021 . S
O52 C49 1.238 . S
O53 Co47 2.052 . S
O53 C49 1.241 . S
O54 Co42 2.137 . S
O54 C45 1.247 . S
O55 Co42 2.244 . S
O55 C45 1.272 . S
O55 Co47 2.135 . S
Co56 O57 2.216 . S
Co56 O58 2.091 . S
Co56 O60 2.004 . S
Co56 O66 2.021 . S
Co56 O68 2.137 . S
Co56 O69 2.244 . S
O57 Co56 2.216 . S
O57 C64 1.247 . S
O58 Co56 2.091 . S
O58 C64 1.261 . S
C59 O68 1.247 . S
C59 O69 1.272 . S
O60 Co56 2.004 . S
O60 C65 1.259 . S
Co61 O62 2.061 . S
Co61 O67 2.052 . S
Co61 O69 2.135 . S
O62 Co61 2.061 . S
O62 C65 1.235 . S
C63 O66 1.238 . S
C63 O67 1.241 . S
C64 O57 1.247 . S
C64 O58 1.261 . S
C65 O60 1.259 . S
C65 O62 1.235 . S
O66 Co56 2.021 . S
O66 C63 1.238 . S
O67 Co61 2.052 . S
O67 C63 1.241 . S
O68 Co56 2.137 . S
O68 C59 1.247 . S
O69 Co56 2.244 . S
O69 C59 1.272 . S
O69 Co61 2.135 . S
Co70 O71 2.216 . S
Co70 O72 2.091 . S
Co70 O74 2.004 . S
Co70 O80 2.021 . S
Co70 O82 2.137 . S
Co70 O83 2.244 . S
O71 Co70 2.216 . S
O71 C78 1.247 . S
O72 Co70 2.091 . S
O72 C78 1.261 . S
C73 O82 1.247 . S
C73 O83 1.272 . S
O74 Co70 2.004 . S
O74 C79 1.259 . S
Co75 O76 2.061 . S
Co75 O81 2.052 . S
Co75 O83 2.135 . S
O76 Co75 2.061 . S
O76 C79 1.235 . S
C77 O80 1.238 . S
C77 O81 1.241 . S
C78 O71 1.247 . S
C78 O72 1.261 . S
C79 O74 1.259 . S
C79 O76 1.235 . S
O80 Co70 2.021 . S
O80 C77 1.238 . S
O81 Co75 2.052 . S
O81 C77 1.241 . S
O82 Co70 2.137 . S
O82 C73 1.247 . S
O83 Co70 2.244 . S
O83 C73 1.272 . S
O83 Co75 2.135 . S
Co84 O85 2.216 . S
Co84 O86 2.091 . S
Co84 O88 2.004 . S
Co84 O94 2.021 . S
Co84 O96 2.137 . S
Co84 O97 2.244 . S
O85 Co84 2.216 . S
O85 C92 1.247 . S
O86 Co84 2.091 . S
O86 C92 1.261 . S
C87 O96 1.247 . S
C87 O97 1.272 . S
O88 Co84 2.004 . S
O88 C93 1.259 . S
Co89 O90 2.061 . S
Co89 O95 2.052 . S
Co89 O97 2.135 . S
O90 Co89 2.061 . S
O90 C93 1.235 . S
C91 O94 1.238 . S
C91 O95 1.241 . S
C92 O85 1.247 . S
C92 O86 1.261 . S
C93 O88 1.259 . S
C93 O90 1.235 . S
O94 Co84 2.021 . S
O94 C91 1.238 . S
O95 Co89 2.052 . S
O95 C91 1.241 . S
O96 Co84 2.137 . S
O96 C87 1.247 . S
O97 Co84 2.244 . S
O97 C87 1.272 . S
O97 Co89 2.135 . S
Co98 O99 2.216 . S
Co98 O100 2.091 . S
Co98 O102 2.004 . S
Co98 O108 2.021 . S
Co98 O110 2.137 . S
Co98 O111 2.244 . S
O99 Co98 2.216 . S
O99 C106 1.247 . S
O100 Co98 2.091 . S
O100 C106 1.261 . S
C101 O110 1.247 . S
C101 O111 1.272 . S
O102 Co98 2.004 . S
O102 C107 1.259 . S
Co103 O104 2.061 . S
Co103 O109 2.052 . S
Co103 O111 2.135 . S
O104 Co103 2.061 . S
O104 C107 1.235 . S
C105 O108 1.238 . S
C105 O109 1.241 . S
C106 O99 1.247 . S
C106 O100 1.261 . S
C107 O102 1.259 . S
C107 O104 1.235 . S
O108 Co98 2.021 . S
O108 C105 1.238 . S
O109 Co103 2.052 . S
O109 C105 1.241 . S
O110 Co98 2.137 . S
O110 C101 1.247 . S
O111 Co98 2.244 . S
O111 C101 1.272 . S
O111 Co103 2.135 . S
Co112 O113 2.216 . S
Co112 O114 2.091 . S
Co112 O116 2.004 . S
Co112 O122 2.021 . S
Co112 O124 2.137 . S
Co112 O125 2.244 . S
O113 Co112 2.216 . S
O113 C120 1.247 . S
O114 Co112 2.091 . S
O114 C120 1.261 . S
C115 O124 1.247 . S
C115 O125 1.272 . S
O116 Co112 2.004 . S
O116 C121 1.259 . S
Co117 O118 2.061 . S
Co117 O123 2.052 . S
Co117 O125 2.135 . S
O118 Co117 2.061 . S
O118 C121 1.235 . S
C119 O122 1.238 . S
C119 O123 1.241 . S
C120 O113 1.247 . S
C120 O114 1.261 . S
C121 O116 1.259 . S
C121 O118 1.235 . S
O122 Co112 2.021 . S
O122 C119 1.238 . S
O123 Co117 2.052 . S
O123 C119 1.241 . S
O124 Co112 2.137 . S
O124 C115 1.247 . S
O125 Co112 2.244 . S
O125 C115 1.272 . S
O125 Co117 2.135 . S
Co126 O127 2.216 . S
Co126 O128 2.091 . S
Co126 O130 2.004 . S
Co126 O136 2.021 . S
Co126 O138 2.137 . S
Co126 O139 2.244 . S
O127 Co126 2.216 . S
O127 C134 1.247 . S
O128 Co126 2.091 . S
O128 C134 1.261 . S
C129 O138 1.247 . S
C129 O139 1.272 . S
O130 Co126 2.004 . S
O130 C135 1.259 . S
Co131 O132 2.061 . S
Co131 O137 2.052 . S
Co131 O139 2.135 . S
O132 Co131 2.061 . S
O132 C135 1.235 . S
C133 O136 1.238 . S
C133 O137 1.241 . S
C134 O127 1.247 . S
C134 O128 1.261 . S
C135 O130 1.259 . S
C135 O132 1.235 . S
O136 Co126 2.021 . S
O136 C133 1.238 . S
O137 Co131 2.052 . S
O137 C133 1.241 . S
O138 Co126 2.137 . S
O138 C129 1.247 . S
O139 Co126 2.244 . S
O139 C129 1.272 . S
O139 Co131 2.135 . S
Co140 O141 2.216 . S
Co140 O142 2.091 . S
Co140 O144 2.004 . S
Co140 O150 2.021 . S
Co140 O152 2.137 . S
Co140 O153 2.244 . S
O141 Co140 2.216 . S
O141 C148 1.247 . S
O142 Co140 2.091 . S
O142 C148 1.261 . S
C143 O152 1.247 . S
C143 O153 1.272 . S
O144 Co140 2.004 . S
O144 C149 1.259 . S
Co145 O146 2.061 . S
Co145 O151 2.052 . S
Co145 O153 2.135 . S
O146 Co145 2.061 . S
O146 C149 1.235 . S
C147 O150 1.238 . S
C147 O151 1.241 . S
C148 O141 1.247 . S
C148 O142 1.261 . S
C149 O144 1.259 . S
C149 O146 1.235 . S
O150 Co140 2.021 . S
O150 C147 1.238 . S
O151 Co145 2.052 . S
O151 C147 1.241 . S
O152 Co140 2.137 . S
O152 C143 1.247 . S
O153 Co140 2.244 . S
O153 C143 1.272 . S
O153 Co145 2.135 . S
Co154 O155 2.216 . S
Co154 O156 2.091 . S
Co154 O158 2.004 . S
Co154 O164 2.021 . S
Co154 O166 2.137 . S
Co154 O167 2.244 . S
O155 Co154 2.216 . S
O155 C162 1.247 . S
O156 Co154 2.091 . S
O156 C162 1.261 . S
C157 O166 1.247 . S
C157 O167 1.272 . S
O158 Co154 2.004 . S
O158 C163 1.259 . S
Co159 O160 2.061 . S
Co159 O165 2.052 . S
Co159 O167 2.135 . S
O160 Co159 2.061 . S
O160 C163 1.235 . S
C161 O164 1.238 . S
C161 O165 1.241 . S
C162 O155 1.247 . S
C162 O156 1.261 . S
C163 O158 1.259 . S
C163 O160 1.235 . S
O164 Co154 2.021 . S
O164 C161 1.238 . S
O165 Co159 2.052 . S
O165 C161 1.241 . S
O166 Co154 2.137 . S
O166 C157 1.247 . S
O167 Co154 2.244 . S
O167 C157 1.272 . S
O167 Co159 2.135 . S
Co168 O169 2.216 . S
Co168 O170 2.091 . S
Co168 O172 2.004 . S
Co168 O178 2.021 . S
Co168 O180 2.137 . S
Co168 O181 2.244 . S
O169 Co168 2.216 . S
O169 C176 1.247 . S
O170 Co168 2.091 . S
O170 C176 1.261 . S
C171 O180 1.247 . S
C171 O181 1.272 . S
O172 Co168 2.004 . S
O172 C177 1.259 . S
Co173 O174 2.061 . S
Co173 O179 2.052 . S
Co173 O181 2.135 . S
O174 Co173 2.061 . S
O174 C177 1.235 . S
C175 O178 1.238 . S
C175 O179 1.241 . S
C176 O169 1.247 . S
C176 O170 1.261 . S
C177 O172 1.259 . S
C177 O174 1.235 . S
O178 Co168 2.021 . S
O178 C175 1.238 . S
O179 Co173 2.052 . S
O179 C175 1.241 . S
O180 Co168 2.137 . S
O180 C171 1.247 . S
O181 Co168 2.244 . S
O181 C171 1.272 . S
O181 Co173 2.135 . S
Co182 O183 2.216 . S
Co182 O184 2.091 . S
Co182 O186 2.004 . S
Co182 O192 2.021 . S
Co182 O194 2.137 . S
Co182 O195 2.244 . S
O183 Co182 2.216 . S
O183 C190 1.247 . S
O184 Co182 2.091 . S
O184 C190 1.261 . S
C185 O194 1.247 . S
C185 O195 1.272 . S
O186 Co182 2.004 . S
O186 C191 1.259 . S
Co187 O188 2.061 . S
Co187 O193 2.052 . S
Co187 O195 2.135 . S
O188 Co187 2.061 . S
O188 C191 1.235 . S
C189 O192 1.238 . S
C189 O193 1.241 . S
C190 O183 1.247 . S
C190 O184 1.261 . S
C191 O186 1.259 . S
C191 O188 1.235 . S
O192 Co182 2.021 . S
O192 C189 1.238 . S
O193 Co187 2.052 . S
O193 C189 1.241 . S
O194 Co182 2.137 . S
O194 C185 1.247 . S
O195 Co182 2.244 . S
O195 C185 1.272 . S
O195 Co187 2.135 . S
Co196 O197 2.216 . S
Co196 O198 2.091 . S
Co196 O200 2.004 . S
Co196 O206 2.021 . S
Co196 O208 2.137 . S
Co196 O209 2.244 . S
O197 Co196 2.216 . S
O197 C204 1.247 . S
O198 Co196 2.091 . S
O198 C204 1.261 . S
C199 O208 1.247 . S
C199 O209 1.272 . S
O200 Co196 2.004 . S
O200 C205 1.259 . S
Co201 O202 2.061 . S
Co201 O207 2.052 . S
Co201 O209 2.135 . S
O202 Co201 2.061 . S
O202 C205 1.235 . S
C203 O206 1.238 . S
C203 O207 1.241 . S
C204 O197 1.247 . S
C204 O198 1.261 . S
C205 O200 1.259 . S
C205 O202 1.235 . S
O206 Co196 2.021 . S
O206 C203 1.238 . S
O207 Co201 2.052 . S
O207 C203 1.241 . S
O208 Co196 2.137 . S
O208 C199 1.247 . S
O209 Co196 2.244 . S
O209 C199 1.272 . S
O209 Co201 2.135 . S
Co210 O211 2.216 . S
Co210 O212 2.091 . S
Co210 O214 2.004 . S
Co210 O220 2.021 . S
Co210 O222 2.137 . S
Co210 O223 2.244 . S
O211 Co210 2.216 . S
O211 C218 1.247 . S
O212 Co210 2.091 . S
O212 C218 1.261 . S
C213 O222 1.247 . S
C213 O223 1.272 . S
O214 Co210 2.004 . S
O214 C219 1.259 . S
Co215 O216 2.061 . S
Co215 O221 2.052 . S
Co215 O223 2.135 . S
O216 Co215 2.061 . S
O216 C219 1.235 . S
C217 O220 1.238 . S
C217 O221 1.241 . S
C218 O211 1.247 . S
C218 O212 1.261 . S
C219 O214 1.259 . S
C219 O216 1.235 . S
O220 Co210 2.021 . S
O220 C217 1.238 . S
O221 Co215 2.052 . S
O221 C217 1.241 . S
O222 Co210 2.137 . S
O222 C213 1.247 . S
O223 Co210 2.244 . S
O223 C213 1.272 . S
O223 Co215 2.135 . S
Co224 O225 2.216 . S
Co224 O226 2.091 . S
Co224 O228 2.004 . S
Co224 O234 2.021 . S
Co224 O236 2.137 . S
Co224 O237 2.244 . S
O225 Co224 2.216 . S
O225 C232 1.247 . S
O226 Co224 2.091 . S
O226 C232 1.261 . S
C227 O236 1.247 . S
C227 O237 1.272 . S
O228 Co224 2.004 . S
O228 C233 1.259 . S
Co229 O230 2.061 . S
Co229 O235 2.052 . S
Co229 O237 2.135 . S
O230 Co229 2.061 . S
O230 C233 1.235 . S
C231 O234 1.238 . S
C231 O235 1.241 . S
C232 O225 1.247 . S
C232 O226 1.261 . S
C233 O228 1.259 . S
C233 O230 1.235 . S
O234 Co224 2.021 . S
O234 C231 1.238 . S
O235 Co229 2.052 . S
O235 C231 1.241 . S
O236 Co224 2.137 . S
O236 C227 1.247 . S
O237 Co224 2.244 . S
O237 C227 1.272 . S
O237 Co229 2.135 . S
Co238 O239 2.216 . S
Co238 O240 2.091 . S
Co238 O242 2.004 . S
Co238 O248 2.021 . S
Co238 O250 2.137 . S
Co238 O251 2.244 . S
O239 Co238 2.216 . S
O239 C246 1.247 . S
O240 Co238 2.091 . S
O240 C246 1.261 . S
C241 O250 1.247 . S
C241 O251 1.272 . S
O242 Co238 2.004 . S
O242 C247 1.259 . S
Co243 O244 2.061 . S
Co243 O249 2.052 . S
Co243 O251 2.135 . S
O244 Co243 2.061 . S
O244 C247 1.235 . S
C245 O248 1.238 . S
C245 O249 1.241 . S
C246 O239 1.247 . S
C246 O240 1.261 . S
C247 O242 1.259 . S
C247 O244 1.235 . S
O248 Co238 2.021 . S
O248 C245 1.238 . S
O249 Co243 2.052 . S
O249 C245 1.241 . S
O250 Co238 2.137 . S
O250 C241 1.247 . S
O251 Co238 2.244 . S
O251 C241 1.272 . S
O251 Co243 2.135 . S
Co252 O253 2.216 . S
Co252 O254 2.091 . S
Co252 O256 2.004 . S
Co252 O262 2.021 . S
Co252 O264 2.137 . S
Co252 O265 2.244 . S
O253 Co252 2.216 . S
O253 C260 1.247 . S
O254 Co252 2.091 . S
O254 C260 1.261 . S
C255 O264 1.247 . S
C255 O265 1.272 . S
O256 Co252 2.004 . S
O256 C261 1.259 . S
Co257 O258 2.061 . S
Co257 O263 2.052 . S
Co257 O265 2.135 . S
O258 Co257 2.061 . S
O258 C261 1.235 . S
C259 O262 1.238 . S
C259 O263 1.241 . S
C260 O253 1.247 . S
C260 O254 1.261 . S
C261 O256 1.259 . S
C261 O258 1.235 . S
O262 Co252 2.021 . S
O262 C259 1.238 . S
O263 Co257 2.052 . S
O263 C259 1.241 . S
O264 Co252 2.137 . S
O264 C255 1.247 . S
O265 Co252 2.244 . S
O265 C255 1.272 . S
O265 Co257 2.135 . S
Co266 O267 2.216 . S
Co266 O268 2.091 . S
Co266 O270 2.004 . S
Co266 O276 2.021 . S
Co266 O278 2.137 . S
Co266 O279 2.244 . S
O267 Co266 2.216 . S
O267 C274 1.247 . S
O268 Co266 2.091 . S
O268 C274 1.261 . S
C269 O278 1.247 . S
C269 O279 1.272 . S
O270 Co266 2.004 . S
O270 C275 1.259 . S
Co271 O272 2.061 . S
Co271 O277 2.052 . S
Co271 O279 2.135 . S
O272 Co271 2.061 . S
O272 C275 1.235 . S
C273 O276 1.238 . S
C273 O277 1.241 . S
C274 O267 1.247 . S
C274 O268 1.261 . S
C275 O270 1.259 . S
C275 O272 1.235 . S
O276 Co266 2.021 . S
O276 C273 1.238 . S
O277 Co271 2.052 . S
O277 C273 1.241 . S
O278 Co266 2.137 . S
O278 C269 1.247 . S
O279 Co266 2.244 . S
O279 C269 1.272 . S
O279 Co271 2.135 . S
Co280 O281 2.216 . S
Co280 O282 2.091 . S
Co280 O284 2.004 . S
Co280 O290 2.021 . S
Co280 O292 2.137 . S
Co280 O293 2.244 . S
O281 Co280 2.216 . S
O281 C288 1.247 . S
O282 Co280 2.091 . S
O282 C288 1.261 . S
C283 O292 1.247 . S
C283 O293 1.272 . S
O284 Co280 2.004 . S
O284 C289 1.259 . S
Co285 O286 2.061 . S
Co285 O291 2.052 . S
Co285 O293 2.135 . S
O286 Co285 2.061 . S
O286 C289 1.235 . S
C287 O290 1.238 . S
C287 O291 1.241 . S
C288 O281 1.247 . S
C288 O282 1.261 . S
C289 O284 1.259 . S
C289 O286 1.235 . S
O290 Co280 2.021 . S
O290 C287 1.238 . S
O291 Co285 2.052 . S
O291 C287 1.241 . S
O292 Co280 2.137 . S
O292 C283 1.247 . S
O293 Co280 2.244 . S
O293 C283 1.272 . S
O293 Co285 2.135 . S
Co294 O295 2.216 . S
Co294 O296 2.091 . S
Co294 O298 2.004 . S
Co294 O304 2.021 . S
Co294 O306 2.137 . S
Co294 O307 2.244 . S
O295 Co294 2.216 . S
O295 C302 1.247 . S
O296 Co294 2.091 . S
O296 C302 1.261 . S
C297 O306 1.247 . S
C297 O307 1.272 . S
O298 Co294 2.004 . S
O298 C303 1.259 . S
Co299 O300 2.061 . S
Co299 O305 2.052 . S
Co299 O307 2.135 . S
O300 Co299 2.061 . S
O300 C303 1.235 . S
C301 O304 1.238 . S
C301 O305 1.241 . S
C302 O295 1.247 . S
C302 O296 1.261 . S
C303 O298 1.259 . S
C303 O300 1.235 . S
O304 Co294 2.021 . S
O304 C301 1.238 . S
O305 Co299 2.052 . S
O305 C301 1.241 . S
O306 Co294 2.137 . S
O306 C297 1.247 . S
O307 Co294 2.244 . S
O307 C297 1.272 . S
O307 Co299 2.135 . S
Co308 O309 2.216 . S
Co308 O310 2.091 . S
Co308 O312 2.004 . S
Co308 O318 2.021 . S
Co308 O320 2.137 . S
Co308 O321 2.244 . S
O309 Co308 2.216 . S
O309 C316 1.247 . S
O310 Co308 2.091 . S
O310 C316 1.261 . S
C311 O320 1.247 . S
C311 O321 1.272 . S
O312 Co308 2.004 . S
O312 C317 1.259 . S
Co313 O314 2.061 . S
Co313 O319 2.052 . S
Co313 O321 2.135 . S
O314 Co313 2.061 . S
O314 C317 1.235 . S
C315 O318 1.238 . S
C315 O319 1.241 . S
C316 O309 1.247 . S
C316 O310 1.261 . S
C317 O312 1.259 . S
C317 O314 1.235 . S
O318 Co308 2.021 . S
O318 C315 1.238 . S
O319 Co313 2.052 . S
O319 C315 1.241 . S
O320 Co308 2.137 . S
O320 C311 1.247 . S
O321 Co308 2.244 . S
O321 C311 1.272 . S
O321 Co313 2.135 . S
Co322 O323 2.216 . S
Co322 O324 2.091 . S
Co322 O326 2.004 . S
Co322 O332 2.021 . S
Co322 O334 2.137 . S
Co322 O335 2.244 . S
O323 Co322 2.216 . S
O323 C330 1.247 . S
O324 Co322 2.091 . S
O324 C330 1.261 . S
C325 O334 1.247 . S
C325 O335 1.272 . S
O326 Co322 2.004 . S
O326 C331 1.259 . S
Co327 O328 2.061 . S
Co327 O333 2.052 . S
Co327 O335 2.135 . S
O328 Co327 2.061 . S
O328 C331 1.235 . S
C329 O332 1.238 . S
C329 O333 1.241 . S
C330 O323 1.247 . S
C330 O324 1.261 . S
C331 O326 1.259 . S
C331 O328 1.235 . S
O332 Co322 2.021 . S
O332 C329 1.238 . S
O333 Co327 2.052 . S
O333 C329 1.241 . S
O334 Co322 2.137 . S
O334 C325 1.247 . S
O335 Co322 2.244 . S
O335 C325 1.272 . S
O335 Co327 2.135 . S
Co336 O337 2.216 . S
Co336 O338 2.091 . S
Co336 O340 2.004 . S
Co336 O346 2.021 . S
Co336 O348 2.137 . S
Co336 O349 2.244 . S
O337 Co336 2.216 . S
O337 C344 1.247 . S
O338 Co336 2.091 . S
O338 C344 1.261 . S
C339 O348 1.247 . S
C339 O349 1.272 . S
O340 Co336 2.004 . S
O340 C345 1.259 . S
Co341 O342 2.061 . S
Co341 O347 2.052 . S
Co341 O349 2.135 . S
O342 Co341 2.061 . S
O342 C345 1.235 . S
C343 O346 1.238 . S
C343 O347 1.241 . S
C344 O337 1.247 . S
C344 O338 1.261 . S
C345 O340 1.259 . S
C345 O342 1.235 . S
O346 Co336 2.021 . S
O346 C343 1.238 . S
O347 Co341 2.052 . S
O347 C343 1.241 . S
O348 Co336 2.137 . S
O348 C339 1.247 . S
O349 Co336 2.244 . S
O349 C339 1.272 . S
O349 Co341 2.135 . S
Co350 O351 2.216 . S
Co350 O352 2.091 . S
Co350 O354 2.004 . S
Co350 O360 2.021 . S
Co350 O362 2.137 . S
Co350 O363 2.244 . S
O351 Co350 2.216 . S
O351 C358 1.247 . S
O352 Co350 2.091 . S
O352 C358 1.261 . S
C353 O362 1.247 . S
C353 O363 1.272 . S
O354 Co350 2.004 . S
O354 C359 1.259 . S
Co355 O356 2.061 . S
Co355 O361 2.052 . S
Co355 O363 2.135 . S
O356 Co355 2.061 . S
O356 C359 1.235 . S
C357 O360 1.238 . S
C357 O361 1.241 . S
C358 O351 1.247 . S
C358 O352 1.261 . S
C359 O354 1.259 . S
C359 O356 1.235 . S
O360 Co350 2.021 . S
O360 C357 1.238 . S
O361 Co355 2.052 . S
O361 C357 1.241 . S
O362 Co350 2.137 . S
O362 C353 1.247 . S
O363 Co350 2.244 . S
O363 C353 1.272 . S
O363 Co355 2.135 . S
Co364 O365 2.216 . S
Co364 O366 2.091 . S
Co364 O368 2.004 . S
Co364 O374 2.021 . S
Co364 O376 2.137 . S
Co364 O377 2.244 . S
O365 Co364 2.216 . S
O365 C372 1.247 . S
O366 Co364 2.091 . S
O366 C372 1.261 . S
C367 O376 1.247 . S
C367 O377 1.272 . S
O368 Co364 2.004 . S
O368 C373 1.259 . S
Co369 O370 2.061 . S
Co369 O375 2.052 . S
Co369 O377 2.135 . S
O370 Co369 2.061 . S
O370 C373 1.235 . S
C371 O374 1.238 . S
C371 O375 1.241 . S
C372 O365 1.247 . S
C372 O366 1.261 . S
C373 O368 1.259 . S
C373 O370 1.235 . S
O374 Co364 2.021 . S
O374 C371 1.238 . S
O375 Co369 2.052 . S
O375 C371 1.241 . S
O376 Co364 2.137 . S
O376 C367 1.247 . S
O377 Co364 2.244 . S
O377 C367 1.272 . S
O377 Co369 2.135 . S
Co378 O379 2.216 . S
Co378 O380 2.091 . S
Co378 O382 2.004 . S
Co378 O388 2.021 . S
Co378 O390 2.137 . S
Co378 O391 2.244 . S
O379 Co378 2.216 . S
O379 C386 1.247 . S
O380 Co378 2.091 . S
O380 C386 1.261 . S
C381 O390 1.247 . S
C381 O391 1.272 . S
O382 Co378 2.004 . S
O382 C387 1.259 . S
Co383 O384 2.061 . S
Co383 O389 2.052 . S
Co383 O391 2.135 . S
O384 Co383 2.061 . S
O384 C387 1.235 . S
C385 O388 1.238 . S
C385 O389 1.241 . S
C386 O379 1.247 . S
C386 O380 1.261 . S
C387 O382 1.259 . S
C387 O384 1.235 . S
O388 Co378 2.021 . S
O388 C385 1.238 . S
O389 Co383 2.052 . S
O389 C385 1.241 . S
O390 Co378 2.137 . S
O390 C381 1.247 . S
O391 Co378 2.244 . S
O391 C381 1.272 . S
O391 Co383 2.135 . S
Co392 O393 2.216 . S
Co392 O394 2.091 . S
Co392 O396 2.004 . S
Co392 O402 2.021 . S
Co392 O404 2.137 . S
Co392 O405 2.244 . S
O393 Co392 2.216 . S
O393 C400 1.247 . S
O394 Co392 2.091 . S
O394 C400 1.261 . S
C395 O404 1.247 . S
C395 O405 1.272 . S
O396 Co392 2.004 . S
O396 C401 1.259 . S
Co397 O398 2.061 . S
Co397 O403 2.052 . S
Co397 O405 2.135 . S
O398 Co397 2.061 . S
O398 C401 1.235 . S
C399 O402 1.238 . S
C399 O403 1.241 . S
C400 O393 1.247 . S
C400 O394 1.261 . S
C401 O396 1.259 . S
C401 O398 1.235 . S
O402 Co392 2.021 . S
O402 C399 1.238 . S
O403 Co397 2.052 . S
O403 C399 1.241 . S
O404 Co392 2.137 . S
O404 C395 1.247 . S
O405 Co392 2.244 . S
O405 C395 1.272 . S
O405 Co397 2.135 . S
Co406 O407 2.216 . S
Co406 O408 2.091 . S
Co406 O410 2.004 . S
Co406 O416 2.021 . S
Co406 O418 2.137 . S
Co406 O419 2.244 . S
O407 Co406 2.216 . S
O407 C414 1.247 . S
O408 Co406 2.091 . S
O408 C414 1.261 . S
C409 O418 1.247 . S
C409 O419 1.272 . S
O410 Co406 2.004 . S
O410 C415 1.259 . S
Co411 O412 2.061 . S
Co411 O417 2.052 . S
Co411 O419 2.135 . S
O412 Co411 2.061 . S
O412 C415 1.235 . S
C413 O416 1.238 . S
C413 O417 1.241 . S
C414 O407 1.247 . S
C414 O408 1.261 . S
C415 O410 1.259 . S
C415 O412 1.235 . S
O416 Co406 2.021 . S
O416 C413 1.238 . S
O417 Co411 2.052 . S
O417 C413 1.241 . S
O418 Co406 2.137 . S
O418 C409 1.247 . S
O419 Co406 2.244 . S
O419 C409 1.272 . S
O419 Co411 2.135 . S
Co420 O421 2.216 . S
Co420 O422 2.091 . S
Co420 O424 2.004 . S
Co420 O430 2.021 . S
Co420 O432 2.137 . S
Co420 O433 2.244 . S
O421 Co420 2.216 . S
O421 C428 1.247 . S
O422 Co420 2.091 . S
O422 C428 1.261 . S
C423 O432 1.247 . S
C423 O433 1.272 . S
O424 Co420 2.004 . S
O424 C429 1.259 . S
Co425 O426 2.061 . S
Co425 O431 2.052 . S
Co425 O433 2.135 . S
O426 Co425 2.061 . S
O426 C429 1.235 . S
C427 O430 1.238 . S
C427 O431 1.241 . S
C428 O421 1.247 . S
C428 O422 1.261 . S
C429 O424 1.259 . S
C429 O426 1.235 . S
O430 Co420 2.021 . S
O430 C427 1.238 . S
O431 Co425 2.052 . S
O431 C427 1.241 . S
O432 Co420 2.137 . S
O432 C423 1.247 . S
O433 Co420 2.244 . S
O433 C423 1.272 . S
O433 Co425 2.135 . S
Co434 O435 2.216 . S
Co434 O436 2.091 . S
Co434 O438 2.004 . S
Co434 O444 2.021 . S
Co434 O446 2.137 . S
Co434 O447 2.244 . S
O435 Co434 2.216 . S
O435 C442 1.247 . S
O436 Co434 2.091 . S
O436 C442 1.261 . S
C437 O446 1.247 . S
C437 O447 1.272 . S
O438 Co434 2.004 . S
O438 C443 1.259 . S
Co439 O440 2.061 . S
Co439 O445 2.052 . S
Co439 O447 2.135 . S
O440 Co439 2.061 . S
O440 C443 1.235 . S
C441 O444 1.238 . S
C441 O445 1.241 . S
C442 O435 1.247 . S
C442 O436 1.261 . S
C443 O438 1.259 . S
C443 O440 1.235 . S
O444 Co434 2.021 . S
O444 C441 1.238 . S
O445 Co439 2.052 . S
O445 C441 1.241 . S
O446 Co434 2.137 . S
O446 C437 1.247 . S
O447 Co434 2.244 . S
O447 C437 1.272 . S
O447 Co439 2.135 . S
Co448 O449 2.216 . S
Co448 O450 2.091 . S
Co448 O452 2.004 . S
Co448 O458 2.021 . S
Co448 O460 2.137 . S
Co448 O461 2.244 . S
O449 Co448 2.216 . S
O449 C456 1.247 . S
O450 Co448 2.091 . S
O450 C456 1.261 . S
C451 O460 1.247 . S
C451 O461 1.272 . S
O452 Co448 2.004 . S
O452 C457 1.259 . S
Co453 O454 2.061 . S
Co453 O459 2.052 . S
Co453 O461 2.135 . S
O454 Co453 2.061 . S
O454 C457 1.235 . S
C455 O458 1.238 . S
C455 O459 1.241 . S
C456 O449 1.247 . S
C456 O450 1.261 . S
C457 O452 1.259 . S
C457 O454 1.235 . S
O458 Co448 2.021 . S
O458 C455 1.238 . S
O459 Co453 2.052 . S
O459 C455 1.241 . S
O460 Co448 2.137 . S
O460 C451 1.247 . S
O461 Co448 2.244 . S
O461 C451 1.272 . S
O461 Co453 2.135 . S
Co462 O463 2.216 . S
Co462 O464 2.091 . S
Co462 O466 2.004 . S
Co462 O472 2.021 . S
Co462 O474 2.137 . S
Co462 O475 2.244 . S
O463 Co462 2.216 . S
O463 C470 1.247 . S
O464 Co462 2.091 . S
O464 C470 1.261 . S
C465 O474 1.247 . S
C465 O475 1.272 . S
O466 Co462 2.004 . S
O466 C471 1.259 . S
Co467 O468 2.061 . S
Co467 O473 2.052 . S
Co467 O475 2.135 . S
O468 Co467 2.061 . S
O468 C471 1.235 . S
C469 O472 1.238 . S
C469 O473 1.241 . S
C470 O463 1.247 . S
C470 O464 1.261 . S
C471 O466 1.259 . S
C471 O468 1.235 . S
O472 Co462 2.021 . S
O472 C469 1.238 . S
O473 Co467 2.052 . S
O473 C469 1.241 . S
O474 Co462 2.137 . S
O474 C465 1.247 . S
O475 Co462 2.244 . S
O475 C465 1.272 . S
O475 Co467 2.135 . S
Co476 O477 2.216 . S
Co476 O478 2.091 . S
Co476 O480 2.004 . S
Co476 O486 2.021 . S
Co476 O488 2.137 . S
Co476 O489 2.244 . S
O477 Co476 2.216 . S
O477 C484 1.247 . S
O478 Co476 2.091 . S
O478 C484 1.261 . S
C479 O488 1.247 . S
C479 O489 1.272 . S
O480 Co476 2.004 . S
O480 C485 1.259 . S
Co481 O482 2.061 . S
Co481 O487 2.052 . S
Co481 O489 2.135 . S
O482 Co481 2.061 . S
O482 C485 1.235 . S
C483 O486 1.238 . S
C483 O487 1.241 . S
C484 O477 1.247 . S
C484 O478 1.261 . S
C485 O480 1.259 . S
C485 O482 1.235 . S
O486 Co476 2.021 . S
O486 C483 1.238 . S
O487 Co481 2.052 . S
O487 C483 1.241 . S
O488 Co476 2.137 . S
O488 C479 1.247 . S
O489 Co476 2.244 . S
O489 C479 1.272 . S
O489 Co481 2.135 . S
Co490 O491 2.216 . S
Co490 O492 2.091 . S
Co490 O494 2.004 . S
Co490 O500 2.021 . S
Co490 O502 2.137 . S
Co490 O503 2.244 . S
O491 Co490 2.216 . S
O491 C498 1.247 . S
O492 Co490 2.091 . S
O492 C498 1.261 . S
C493 O502 1.247 . S
C493 O503 1.272 . S
O494 Co490 2.004 . S
O494 C499 1.259 . S
Co495 O496 2.061 . S
Co495 O501 2.052 . S
Co495 O503 2.135 . S
O496 Co495 2.061 . S
O496 C499 1.235 . S
C497 O500 1.238 . S
C497 O501 1.241 . S
C498 O491 1.247 . S
C498 O492 1.261 . S
C499 O494 1.259 . S
C499 O496 1.235 . S
O500 Co490 2.021 . S
O500 C497 1.238 . S
O501 Co495 2.052 . S
O501 C497 1.241 . S
O502 Co490 2.137 . S
O502 C493 1.247 . S
O503 Co490 2.244 . S
O503 C493 1.272 . S
O503 Co495 2.135 . S
Co504 O505 2.216 . S
Co504 O506 2.091 . S
Co504 O508 2.004 . S
Co504 O514 2.021 . S
Co504 O516 2.137 . S
Co504 O517 2.244 . S
O505 Co504 2.216 . S
O505 C512 1.247 . S
O506 Co504 2.091 . S
O506 C512 1.261 . S
C507 O516 1.247 . S
C507 O517 1.272 . S
O508 Co504 2.004 . S
O508 C513 1.259 . S
Co509 O510 2.061 . S
Co509 O515 2.052 . S
Co509 O517 2.135 . S
O510 Co509 2.061 . S
O510 C513 1.235 . S
C511 O514 1.238 . S
C511 O515 1.241 . S
C512 O505 1.247 . S
C512 O506 1.261 . S
C513 O508 1.259 . S
C513 O510 1.235 . S
O514 Co504 2.021 . S
O514 C511 1.238 . S
O515 Co509 2.052 . S
O515 C511 1.241 . S
O516 Co504 2.137 . S
O516 C507 1.247 . S
O517 Co504 2.244 . S
O517 C507 1.272 . S
O517 Co509 2.135 . S
Co518 O519 2.216 . S
Co518 O520 2.091 . S
Co518 O522 2.004 . S
Co518 O528 2.021 . S
Co518 O530 2.137 . S
Co518 O531 2.244 . S
O519 Co518 2.216 . S
O519 C526 1.247 . S
O520 Co518 2.091 . S
O520 C526 1.261 . S
C521 O530 1.247 . S
C521 O531 1.272 . S
O522 Co518 2.004 . S
O522 C527 1.259 . S
Co523 O524 2.061 . S
Co523 O529 2.052 . S
Co523 O531 2.135 . S
O524 Co523 2.061 . S
O524 C527 1.235 . S
C525 O528 1.238 . S
C525 O529 1.241 . S
C526 O519 1.247 . S
C526 O520 1.261 . S
C527 O522 1.259 . S
C527 O524 1.235 . S
O528 Co518 2.021 . S
O528 C525 1.238 . S
O529 Co523 2.052 . S
O529 C525 1.241 . S
O530 Co518 2.137 . S
O530 C521 1.247 . S
O531 Co518 2.244 . S
O531 C521 1.272 . S
O531 Co523 2.135 . S
Co532 O533 2.216 . S
Co532 O534 2.091 . S
Co532 O536 2.004 . S
Co532 O542 2.021 . S
Co532 O544 2.137 . S
Co532 O545 2.244 . S
O533 Co532 2.216 . S
O533 C540 1.247 . S
O534 Co532 2.091 . S
O534 C540 1.261 . S
C535 O544 1.247 . S
C535 O545 1.272 . S
O536 Co532 2.004 . S
O536 C541 1.259 . S
Co537 O538 2.061 . S
Co537 O543 2.052 . S
Co537 O545 2.135 . S
O538 Co537 2.061 . S
O538 C541 1.235 . S
C539 O542 1.238 . S
C539 O543 1.241 . S
C540 O533 1.247 . S
C540 O534 1.261 . S
C541 O536 1.259 . S
C541 O538 1.235 . S
O542 Co532 2.021 . S
O542 C539 1.238 . S
O543 Co537 2.052 . S
O543 C539 1.241 . S
O544 Co532 2.137 . S
O544 C535 1.247 . S
O545 Co532 2.244 . S
O545 C535 1.272 . S
O545 Co537 2.135 . S
Co546 O547 2.216 . S
Co546 O548 2.091 . S
Co546 O550 2.004 . S
Co546 O556 2.021 . S
Co546 O558 2.137 . S
Co546 O559 2.244 . S
O547 Co546 2.216 . S
O547 C554 1.247 . S
O548 Co546 2.091 . S
O548 C554 1.261 . S
C549 O558 1.247 . S
C549 O559 1.272 . S
O550 Co546 2.004 . S
O550 C555 1.259 . S
Co551 O552 2.061 . S
Co551 O557 2.052 . S
Co551 O559 2.135 . S
O552 Co551 2.061 . S
O552 C555 1.235 . S
C553 O556 1.238 . S
C553 O557 1.241 . S
C554 O547 1.247 . S
C554 O548 1.261 . S
C555 O550 1.259 . S
C555 O552 1.235 . S
O556 Co546 2.021 . S
O556 C553 1.238 . S
O557 Co551 2.052 . S
O557 C553 1.241 . S
O558 Co546 2.137 . S
O558 C549 1.247 . S
O559 Co546 2.244 . S
O559 C549 1.272 . S
O559 Co551 2.135 . S
Co560 O561 2.216 . S
Co560 O562 2.091 . S
Co560 O564 2.004 . S
Co560 O570 2.021 . S
Co560 O572 2.137 . S
Co560 O573 2.244 . S
O561 Co560 2.216 . S
O561 C568 1.247 . S
O562 Co560 2.091 . S
O562 C568 1.261 . S
C563 O572 1.247 . S
C563 O573 1.272 . S
O564 Co560 2.004 . S
O564 C569 1.259 . S
Co565 O566 2.061 . S
Co565 O571 2.052 . S
Co565 O573 2.135 . S
O566 Co565 2.061 . S
O566 C569 1.235 . S
C567 O570 1.238 . S
C567 O571 1.241 . S
C568 O561 1.247 . S
C568 O562 1.261 . S
C569 O564 1.259 . S
C569 O566 1.235 . S
O570 Co560 2.021 . S
O570 C567 1.238 . S
O571 Co565 2.052 . S
O571 C567 1.241 . S
O572 Co560 2.137 . S
O572 C563 1.247 . S
O573 Co560 2.244 . S
O573 C563 1.272 . S
O573 Co565 2.135 . S
Co574 O575 2.216 . S
Co574 O576 2.091 . S
Co574 O578 2.004 . S
Co574 O584 2.021 . S
Co574 O586 2.137 . S
Co574 O587 2.244 . S
O575 Co574 2.216 . S
O575 C582 1.247 . S
O576 Co574 2.091 . S
O576 C582 1.261 . S
C577 O586 1.247 . S
C577 O587 1.272 . S
O578 Co574 2.004 . S
O578 C583 1.259 . S
Co579 O580 2.061 . S
Co579 O585 2.052 . S
Co579 O587 2.135 . S
O580 Co579 2.061 . S
O580 C583 1.235 . S
C581 O584 1.238 . S
C581 O585 1.241 . S
C582 O575 1.247 . S
C582 O576 1.261 . S
C583 O578 1.259 . S
C583 O580 1.235 . S
O584 Co574 2.021 . S
O584 C581 1.238 . S
O585 Co579 2.052 . S
O585 C581 1.241 . S
O586 Co574 2.137 . S
O586 C577 1.247 . S
O587 Co574 2.244 . S
O587 C577 1.272 . S
O587 Co579 2.135 . S
Co588 O589 2.216 . S
Co588 O590 2.091 . S
Co588 O592 2.004 . S
Co588 O598 2.021 . S
Co588 O600 2.137 . S
Co588 O601 2.244 . S
O589 Co588 2.216 . S
O589 C596 1.247 . S
O590 Co588 2.091 . S
O590 C596 1.261 . S
C591 O600 1.247 . S
C591 O601 1.272 . S
O592 Co588 2.004 . S
O592 C597 1.259 . S
Co593 O594 2.061 . S
Co593 O599 2.052 . S
Co593 O601 2.135 . S
O594 Co593 2.061 . S
O594 C597 1.235 . S
C595 O598 1.238 . S
C595 O599 1.241 . S
C596 O589 1.247 . S
C596 O590 1.261 . S
C597 O592 1.259 . S
C597 O594 1.235 . S
O598 Co588 2.021 . S
O598 C595 1.238 . S
O599 Co593 2.052 . S
O599 C595 1.241 . S
O600 Co588 2.137 . S
O600 C591 1.247 . S
O601 Co588 2.244 . S
O601 C591 1.272 . S
O601 Co593 2.135 . S
Co602 O603 2.216 . S
Co602 O604 2.091 . S
Co602 O606 2.004 . S
Co602 O612 2.021 . S
Co602 O614 2.137 . S
Co602 O615 2.244 . S
O603 Co602 2.216 . S
O603 C610 1.247 . S
O604 Co602 2.091 . S
O604 C610 1.261 . S
C605 O614 1.247 . S
C605 O615 1.272 . S
O606 Co602 2.004 . S
O606 C611 1.259 . S
Co607 O608 2.061 . S
Co607 O613 2.052 . S
Co607 O615 2.135 . S
O608 Co607 2.061 . S
O608 C611 1.235 . S
C609 O612 1.238 . S
C609 O613 1.241 . S
C610 O603 1.247 . S
C610 O604 1.261 . S
C611 O606 1.259 . S
C611 O608 1.235 . S
O612 Co602 2.021 . S
O612 C609 1.238 . S
O613 Co607 2.052 . S
O613 C609 1.241 . S
O614 Co602 2.137 . S
O614 C605 1.247 . S
O615 Co602 2.244 . S
O615 C605 1.272 . S
O615 Co607 2.135 . S
Co616 O617 2.216 . S
Co616 O618 2.091 . S
Co616 O620 2.004 . S
Co616 O626 2.021 . S
Co616 O628 2.137 . S
Co616 O629 2.244 . S
O617 Co616 2.216 . S
O617 C624 1.247 . S
O618 Co616 2.091 . S
O618 C624 1.261 . S
C619 O628 1.247 . S
C619 O629 1.272 . S
O620 Co616 2.004 . S
O620 C625 1.259 . S
Co621 O622 2.061 . S
Co621 O627 2.052 . S
Co621 O629 2.135 . S
O622 Co621 2.061 . S
O622 C625 1.235 . S
C623 O626 1.238 . S
C623 O627 1.241 . S
C624 O617 1.247 . S
C624 O618 1.261 . S
C625 O620 1.259 . S
C625 O622 1.235 . S
O626 Co616 2.021 . S
O626 C623 1.238 . S
O627 Co621 2.052 . S
O627 C623 1.241 . S
O628 Co616 2.137 . S
O628 C619 1.247 . S
O629 Co616 2.244 . S
O629 C619 1.272 . S
O629 Co621 2.135 . S
Co630 O631 2.216 . S
Co630 O632 2.091 . S
Co630 O634 2.004 . S
Co630 O640 2.021 . S
Co630 O642 2.137 . S
Co630 O643 2.244 . S
O631 Co630 2.216 . S
O631 C638 1.247 . S
O632 Co630 2.091 . S
O632 C638 1.261 . S
C633 O642 1.247 . S
C633 O643 1.272 . S
O634 Co630 2.004 . S
O634 C639 1.259 . S
Co635 O636 2.061 . S
Co635 O641 2.052 . S
Co635 O643 2.135 . S
O636 Co635 2.061 . S
O636 C639 1.235 . S
C637 O640 1.238 . S
C637 O641 1.241 . S
C638 O631 1.247 . S
C638 O632 1.261 . S
C639 O634 1.259 . S
C639 O636 1.235 . S
O640 Co630 2.021 . S
O640 C637 1.238 . S
O641 Co635 2.052 . S
O641 C637 1.241 . S
O642 Co630 2.137 . S
O642 C633 1.247 . S
O643 Co630 2.244 . S
O643 C633 1.272 . S
O643 Co635 2.135 . S
Co644 O645 2.216 . S
Co644 O646 2.091 . S
Co644 O648 2.004 . S
Co644 O654 2.021 . S
Co644 O656 2.137 . S
Co644 O657 2.244 . S
O645 Co644 2.216 . S
O645 C652 1.247 . S
O646 Co644 2.091 . S
O646 C652 1.261 . S
C647 O656 1.247 . S
C647 O657 1.272 . S
O648 Co644 2.004 . S
O648 C653 1.259 . S
Co649 O650 2.061 . S
Co649 O655 2.052 . S
Co649 O657 2.135 . S
O650 Co649 2.061 . S
O650 C653 1.235 . S
C651 O654 1.238 . S
C651 O655 1.241 . S
C652 O645 1.247 . S
C652 O646 1.261 . S
C653 O648 1.259 . S
C653 O650 1.235 . S
O654 Co644 2.021 . S
O654 C651 1.238 . S
O655 Co649 2.052 . S
O655 C651 1.241 . S
O656 Co644 2.137 . S
O656 C647 1.247 . S
O657 Co644 2.244 . S
O657 C647 1.272 . S
O657 Co649 2.135 . S
Co658 O659 2.216 . S
Co658 O660 2.091 . S
Co658 O662 2.004 . S
Co658 O668 2.021 . S
Co658 O670 2.137 . S
Co658 O671 2.244 . S
O659 Co658 2.216 . S
O659 C666 1.247 . S
O660 Co658 2.091 . S
O660 C666 1.261 . S
C661 O670 1.247 . S
C661 O671 1.272 . S
O662 Co658 2.004 . S
O662 C667 1.259 . S
Co663 O664 2.061 . S
Co663 O669 2.052 . S
Co663 O671 2.135 . S
O664 Co663 2.061 . S
O664 C667 1.235 . S
C665 O668 1.238 . S
C665 O669 1.241 . S
C666 O659 1.247 . S
C666 O660 1.261 . S
C667 O662 1.259 . S
C667 O664 1.235 . S
O668 Co658 2.021 . S
O668 C665 1.238 . S
O669 Co663 2.052 . S
O669 C665 1.241 . S
O670 Co658 2.137 . S
O670 C661 1.247 . S
O671 Co658 2.244 . S
O671 C661 1.272 . S
O671 Co663 2.135 . S
C672 C673 1.391 . S
C672 C674 1.394 . S
C672 H688 0.931 . S
C673 C672 1.391 . S
C673 C677 1.376 . S
C674 C672 1.394 . S
C674 C675 1.369 . S
C674 C678 1.531 . S
C675 C674 1.369 . S
C675 C676 1.410 . S
C675 C683 1.503 . S
C676 C675 1.410 . S
C676 C677 1.392 . S
C676 C679 1.511 . S
C677 C673 1.376 . S
C677 C676 1.392 . S
C677 H689 0.929 . S
C678 C674 1.531 . S
C678 H690 0.960 . S
C678 H691 0.962 . S
C678 H692 0.960 . S
C679 C676 1.511 . S
C679 H693 0.961 . S
C679 H694 0.961 . S
C679 H695 0.961 . S
C680 C681 1.370 . S
C680 C682 1.363 . S
C680 H696 0.931 . S
C681 C680 1.370 . S
C681 C685 1.408 . S
C682 C680 1.363 . S
C682 C683 1.370 . S
C682 C686 1.524 . S
C683 C675 1.503 . S
C683 C682 1.370 . S
C683 C684 1.403 . S
C684 C683 1.403 . S
C684 C685 1.404 . S
C684 C687 1.539 . S
C685 C681 1.408 . S
C685 C684 1.404 . S
C685 H697 0.930 . S
C686 C682 1.524 . S
C686 H698 0.956 . S
C686 H699 0.961 . S
C686 H700 0.961 . S
C687 C684 1.539 . S
C687 H701 0.958 . S
C687 H702 0.961 . S
C687 H703 0.960 . S
H688 C672 0.931 . S
H689 C677 0.929 . S
H690 C678 0.960 . S
H691 C678 0.962 . S
H692 C678 0.960 . S
H693 C679 0.961 . S
H694 C679 0.961 . S
H695 C679 0.961 . S
H696 C680 0.931 . S
H697 C685 0.930 . S
H698 C686 0.956 . S
H699 C686 0.961 . S
H700 C686 0.961 . S
H701 C687 0.958 . S
H702 C687 0.961 . S
H703 C687 0.960 . S
C704 C705 1.391 . S
C704 C706 1.394 1_455 S
C704 H720 0.931 . S
C705 C704 1.391 . S
C705 C709 1.376 . S
C706 C704 1.394 1_655 S
C706 C707 1.369 . S
C706 C710 1.531 . S
C707 C706 1.369 . S
C707 C708 1.410 1_655 S
C707 C715 1.503 . S
C708 C707 1.410 1_455 S
C708 C709 1.392 . S
C708 C711 1.511 . S
C709 C705 1.376 . S
C709 C708 1.392 . S
C709 H721 0.929 . S
C710 C706 1.531 . S
C710 H722 0.960 . S
C710 H723 0.962 . S
C710 H724 0.960 . S
C711 C708 1.511 . S
C711 H725 0.961 . S
C711 H726 0.961 1_455 S
C711 H727 0.961 . S
C712 C713 1.370 . S
C712 C714 1.363 . S
C712 H728 0.931 . S
C713 C712 1.370 . S
C713 C717 1.408 . S
C714 C712 1.363 . S
C714 C715 1.370 . S
C714 C718 1.524 . S
C715 C707 1.503 . S
C715 C714 1.370 . S
C715 C716 1.403 . S
C716 C715 1.403 . S
C716 C717 1.404 . S
C716 C719 1.539 . S
C717 C713 1.408 . S
C717 C716 1.404 . S
C717 H729 0.930 . S
C718 C714 1.524 . S
C718 H730 0.956 . S
C718 H731 0.961 . S
C718 H732 0.961 . S
C719 C716 1.539 . S
C719 H733 0.958 . S
C719 H734 0.961 . S
C719 H735 0.960 . S
H720 C704 0.931 . S
H721 C709 0.929 . S
H722 C710 0.960 . S
H723 C710 0.962 . S
H724 C710 0.960 . S
H725 C711 0.961 . S
H726 C711 0.961 1_655 S
H727 C711 0.961 . S
H728 C712 0.931 . S
H729 C717 0.930 . S
H730 C718 0.956 . S
H731 C718 0.961 . S
H732 C718 0.961 . S
H733 C719 0.958 . S
H734 C719 0.961 . S
H735 C719 0.960 . S
C736 C737 1.391 . S
C736 C738 1.394 . S
C736 H752 0.931 . S
C737 C736 1.391 . S
C737 C741 1.376 . S
C738 C736 1.394 . S
C738 C739 1.369 . S
C738 C742 1.531 . S
C739 C738 1.369 . S
C739 C740 1.410 . S
C739 C747 1.503 . S
C740 C739 1.410 . S
C740 C741 1.392 . S
C740 C743 1.511 . S
C741 C737 1.376 . S
C741 C740 1.392 . S
C741 H753 0.929 . S
C742 C738 1.531 . S
C742 H754 0.960 . S
C742 H755 0.962 . S
C742 H756 0.960 . S
C743 C740 1.511 . S
C743 H757 0.961 . S
C743 H758 0.961 . S
C743 H759 0.961 . S
C744 C745 1.370 . S
C744 C746 1.363 . S
C744 H760 0.931 . S
C745 C744 1.370 . S
C745 C749 1.408 . S
C746 C744 1.363 . S
C746 C747 1.370 . S
C746 C750 1.524 . S
C747 C739 1.503 . S
C747 C746 1.370 . S
C747 C748 1.403 . S
C748 C747 1.403 . S
C748 C749 1.404 . S
C748 C751 1.539 . S
C749 C745 1.408 . S
C749 C748 1.404 . S
C749 H761 0.930 . S
C750 C746 1.524 . S
C750 H762 0.956 . S
C750 H763 0.961 . S
C750 H764 0.961 . S
C751 C748 1.539 . S
C751 H765 0.958 . S
C751 H766 0.961 . S
C751 H767 0.960 . S
H752 C736 0.931 . S
H753 C741 0.929 . S
H754 C742 0.960 . S
H755 C742 0.962 . S
H756 C742 0.960 . S
H757 C743 0.961 . S
H758 C743 0.961 . S
H759 C743 0.961 . S
H760 C744 0.931 . S
H761 C749 0.930 . S
H762 C750 0.956 . S
H763 C750 0.961 . S
H764 C750 0.961 . S
H765 C751 0.958 . S
H766 C751 0.961 . S
H767 C751 0.960 . S
C768 C769 1.391 . S
C768 C770 1.394 . S
C768 H784 0.931 . S
C769 C768 1.391 . S
C769 C773 1.376 . S
C770 C768 1.394 . S
C770 C771 1.369 . S
C770 C774 1.531 . S
C771 C770 1.369 . S
C771 C772 1.410 . S
C771 C779 1.503 . S
C772 C771 1.410 . S
C772 C773 1.392 . S
C772 C775 1.511 . S
C773 C769 1.376 . S
C773 C772 1.392 . S
C773 H785 0.929 . S
C774 C770 1.531 . S
C774 H786 0.960 . S
C774 H787 0.962 . S
C774 H788 0.960 . S
C775 C772 1.511 . S
C775 H789 0.961 . S
C775 H790 0.961 . S
C775 H791 0.961 . S
C776 C777 1.370 . S
C776 C778 1.363 . S
C776 H792 0.931 . S
C777 C776 1.370 . S
C777 C781 1.408 . S
C778 C776 1.363 . S
C778 C779 1.370 . S
C778 C782 1.524 . S
C779 C771 1.503 . S
C779 C778 1.370 . S
C779 C780 1.403 . S
C780 C779 1.403 . S
C780 C781 1.404 . S
C780 C783 1.539 . S
C781 C777 1.408 . S
C781 C780 1.404 . S
C781 H793 0.930 . S
C782 C778 1.524 . S
C782 H794 0.956 . S
C782 H795 0.961 . S
C782 H796 0.961 . S
C783 C780 1.539 . S
C783 H797 0.958 . S
C783 H798 0.961 . S
C783 H799 0.960 . S
H784 C768 0.931 . S
H785 C773 0.929 . S
H786 C774 0.960 . S
H787 C774 0.962 . S
H788 C774 0.960 . S
H789 C775 0.961 . S
H790 C775 0.961 . S
H791 C775 0.961 . S
H792 C776 0.931 . S
H793 C781 0.930 . S
H794 C782 0.956 . S
H795 C782 0.961 . S
H796 C782 0.961 . S
H797 C783 0.958 . S
H798 C783 0.961 . S
H799 C783 0.960 . S
C800 C801 1.391 . S
C800 C802 1.394 . S
C800 H816 0.931 . S
C801 C800 1.391 . S
C801 C805 1.376 . S
C802 C800 1.394 . S
C802 C803 1.369 . S
C802 C806 1.531 . S
C803 C802 1.369 . S
C803 C804 1.410 . S
C803 C811 1.503 . S
C804 C803 1.410 . S
C804 C805 1.392 . S
C804 C807 1.511 . S
C805 C801 1.376 . S
C805 C804 1.392 . S
C805 H817 0.929 . S
C806 C802 1.531 . S
C806 H818 0.960 . S
C806 H819 0.962 . S
C806 H820 0.960 . S
C807 C804 1.511 . S
C807 H821 0.961 . S
C807 H822 0.961 . S
C807 H823 0.961 . S
C808 C809 1.370 . S
C808 C810 1.363 . S
C808 H824 0.931 . S
C809 C808 1.370 . S
C809 C813 1.408 . S
C810 C808 1.363 . S
C810 C811 1.370 . S
C810 C814 1.524 . S
C811 C803 1.503 . S
C811 C810 1.370 . S
C811 C812 1.403 . S
C812 C811 1.403 . S
C812 C813 1.404 . S
C812 C815 1.539 . S
C813 C809 1.408 . S
C813 C812 1.404 . S
C813 H825 0.930 . S
C814 C810 1.524 . S
C814 H826 0.956 . S
C814 H827 0.961 . S
C814 H828 0.961 . S
C815 C812 1.539 . S
C815 H829 0.958 . S
C815 H830 0.961 . S
C815 H831 0.960 . S
H816 C800 0.931 . S
H817 C805 0.929 . S
H818 C806 0.960 . S
H819 C806 0.962 . S
H820 C806 0.960 . S
H821 C807 0.961 . S
H822 C807 0.961 . S
H823 C807 0.961 . S
H824 C808 0.931 . S
H825 C813 0.930 . S
H826 C814 0.956 . S
H827 C814 0.961 . S
H828 C814 0.961 . S
H829 C815 0.958 . S
H830 C815 0.961 . S
H831 C815 0.960 . S
C832 C833 1.391 . S
C832 C834 1.394 . S
C832 H848 0.931 . S
C833 C832 1.391 . S
C833 C837 1.376 . S
C834 C832 1.394 . S
C834 C835 1.369 . S
C834 C838 1.531 . S
C835 C834 1.369 . S
C835 C836 1.410 . S
C835 C843 1.503 . S
C836 C835 1.410 . S
C836 C837 1.392 . S
C836 C839 1.511 . S
C837 C833 1.376 . S
C837 C836 1.392 . S
C837 H849 0.929 . S
C838 C834 1.531 . S
C838 H850 0.960 . S
C838 H851 0.962 . S
C838 H852 0.960 . S
C839 C836 1.511 . S
C839 H853 0.961 . S
C839 H854 0.961 . S
C839 H855 0.961 . S
C840 C841 1.370 . S
C840 C842 1.363 . S
C840 H856 0.931 . S
C841 C840 1.370 . S
C841 C845 1.408 . S
C842 C840 1.363 . S
C842 C843 1.370 . S
C842 C846 1.524 . S
C843 C835 1.503 . S
C843 C842 1.370 . S
C843 C844 1.403 . S
C844 C843 1.403 . S
C844 C845 1.404 . S
C844 C847 1.539 . S
C845 C841 1.408 . S
C845 C844 1.404 . S
C845 H857 0.930 . S
C846 C842 1.524 . S
C846 H858 0.956 . S
C846 H859 0.961 . S
C846 H860 0.961 . S
C847 C844 1.539 . S
C847 H861 0.958 . S
C847 H862 0.961 . S
C847 H863 0.960 . S
H848 C832 0.931 . S
H849 C837 0.929 . S
H850 C838 0.960 . S
H851 C838 0.962 . S
H852 C838 0.960 . S
H853 C839 0.961 . S
H854 C839 0.961 . S
H855 C839 0.961 . S
H856 C840 0.931 . S
H857 C845 0.930 . S
H858 C846 0.956 . S
H859 C846 0.961 . S
H860 C846 0.961 . S
H861 C847 0.958 . S
H862 C847 0.961 . S
H863 C847 0.960 . S
C864 C865 1.391 . S
C864 C866 1.394 . S
C864 H880 0.931 . S
C865 C864 1.391 . S
C865 C869 1.376 . S
C866 C864 1.394 . S
C866 C867 1.369 . S
C866 C870 1.531 . S
C867 C866 1.369 . S
C867 C868 1.410 . S
C867 C875 1.503 . S
C868 C867 1.410 . S
C868 C869 1.392 . S
C868 C871 1.511 . S
C869 C865 1.376 . S
C869 C868 1.392 . S
C869 H881 0.929 . S
C870 C866 1.531 . S
C870 H882 0.960 . S
C870 H883 0.962 . S
C870 H884 0.960 . S
C871 C868 1.511 . S
C871 H885 0.961 . S
C871 H886 0.961 . S
C871 H887 0.961 . S
C872 C873 1.370 . S
C872 C874 1.363 . S
C872 H888 0.931 . S
C873 C872 1.370 . S
C873 C877 1.408 . S
C874 C872 1.363 . S
C874 C875 1.370 . S
C874 C878 1.524 . S
C875 C867 1.503 . S
C875 C874 1.370 . S
C875 C876 1.403 . S
C876 C875 1.403 . S
C876 C877 1.404 . S
C876 C879 1.539 . S
C877 C873 1.408 . S
C877 C876 1.404 . S
C877 H889 0.930 . S
C878 C874 1.524 . S
C878 H890 0.956 . S
C878 H891 0.961 . S
C878 H892 0.961 . S
C879 C876 1.539 . S
C879 H893 0.958 . S
C879 H894 0.961 . S
C879 H895 0.960 . S
H880 C864 0.931 . S
H881 C869 0.929 . S
H882 C870 0.960 . S
H883 C870 0.962 . S
H884 C870 0.960 . S
H885 C871 0.961 . S
H886 C871 0.961 . S
H887 C871 0.961 . S
H888 C872 0.931 . S
H889 C877 0.930 . S
H890 C878 0.956 . S
H891 C878 0.961 . S
H892 C878 0.961 . S
H893 C879 0.958 . S
H894 C879 0.961 . S
H895 C879 0.960 . S
C896 C897 1.391 . S
C896 C898 1.394 . S
C896 H912 0.931 . S
C897 C896 1.391 . S
C897 C901 1.376 . S
C898 C896 1.394 . S
C898 C899 1.369 1_455 S
C898 C902 1.531 1_455 S
C899 C898 1.369 1_655 S
C899 C900 1.423 . S
C899 C907 1.503 . S
C900 C899 1.423 . S
C900 C901 1.359 1_655 S
C900 C903 1.531 . S
C901 C897 1.376 . S
C901 C900 1.359 1_455 S
C901 H913 0.929 . S
C902 C898 1.531 1_655 S
C902 H914 0.960 . S
C902 H915 0.962 . S
C902 H916 0.960 1_655 S
C903 C900 1.531 . S
C903 H917 0.961 . S
C903 H918 0.961 . S
C903 H919 0.961 . S
C904 C905 1.370 . S
C904 C906 1.363 . S
C904 H920 0.931 . S
C905 C904 1.370 . S
C905 C909 1.408 . S
C906 C904 1.363 . S
C906 C907 1.370 . S
C906 C910 1.524 . S
C907 C899 1.503 . S
C907 C906 1.370 . S
C907 C908 1.403 . S
C908 C907 1.403 . S
C908 C909 1.404 . S
C908 C911 1.539 . S
C909 C905 1.408 . S
C909 C908 1.404 . S
C909 H921 0.930 . S
C910 C906 1.524 . S
C910 H922 0.956 . S
C910 H923 0.961 . S
C910 H924 0.961 . S
C911 C908 1.539 . S
C911 H925 0.958 . S
C911 H926 0.961 . S
C911 H927 0.960 . S
H912 C896 0.931 . S
H913 C901 0.929 . S
H914 C902 0.960 . S
H915 C902 0.962 . S
H916 C902 0.960 1_455 S
H917 C903 0.961 . S
H918 C903 0.961 . S
H919 C903 0.961 . S
H920 C904 0.931 . S
H921 C909 0.930 . S
H922 C910 0.956 . S
H923 C910 0.961 . S
H924 C910 0.961 . S
H925 C911 0.958 . S
H926 C911 0.961 . S
H927 C911 0.960 . S
C928 C929 1.391 . S
C928 C930 1.394 . S
C928 H944 0.931 . S
C929 C928 1.391 . S
C929 C933 1.376 . S
C930 C928 1.394 . S
C930 C931 1.369 . S
C930 C934 1.531 . S
C931 C930 1.369 . S
C931 C932 1.410 . S
C931 C939 1.503 . S
C932 C931 1.410 . S
C932 C933 1.392 . S
C932 C935 1.511 . S
C933 C929 1.376 . S
C933 C932 1.392 . S
C933 H945 0.929 . S
C934 C930 1.531 . S
C934 H946 0.960 . S
C934 H947 0.962 . S
C934 H948 0.960 . S
C935 C932 1.511 . S
C935 H949 0.961 . S
C935 H950 0.961 . S
C935 H951 0.961 . S
C936 C937 1.370 . S
C936 C938 1.363 . S
C936 H952 0.931 . S
C937 C936 1.370 . S
C937 C941 1.408 . S
C938 C936 1.363 . S
C938 C939 1.370 . S
C938 C942 1.524 . S
C939 C931 1.503 . S
C939 C938 1.370 . S
C939 C940 1.403 . S
C940 C939 1.403 . S
C940 C941 1.404 . S
C940 C943 1.539 . S
C941 C937 1.408 . S
C941 C940 1.404 . S
C941 H953 0.930 . S
C942 C938 1.524 . S
C942 H954 0.956 . S
C942 H955 0.961 . S
C942 H956 0.961 . S
C943 C940 1.539 . S
C943 H957 0.958 . S
C943 H958 0.961 . S
C943 H959 0.960 . S
H944 C928 0.931 . S
H945 C933 0.929 . S
H946 C934 0.960 . S
H947 C934 0.962 . S
H948 C934 0.960 . S
H949 C935 0.961 . S
H950 C935 0.961 . S
H951 C935 0.961 . S
H952 C936 0.931 . S
H953 C941 0.930 . S
H954 C942 0.956 . S
H955 C942 0.961 . S
H956 C942 0.961 . S
H957 C943 0.958 . S
H958 C943 0.961 . S
H959 C943 0.960 . S
C960 C961 1.391 . S
C960 C962 1.394 . S
C960 H976 0.931 . S
C961 C960 1.391 . S
C961 C965 1.376 . S
C962 C960 1.394 . S
C962 C963 1.369 . S
C962 C966 1.531 . S
C963 C962 1.369 . S
C963 C964 1.410 . S
C963 C971 1.503 . S
C964 C963 1.410 . S
C964 C965 1.392 . S
C964 C967 1.511 . S
C965 C961 1.376 . S
C965 C964 1.392 . S
C965 H977 0.929 . S
C966 C962 1.531 . S
C966 H978 0.960 . S
C966 H979 0.962 . S
C966 H980 0.960 . S
C967 C964 1.511 . S
C967 H981 0.961 . S
C967 H982 0.961 . S
C967 H983 0.961 . S
C968 C969 1.370 . S
C968 C970 1.363 . S
C968 H984 0.931 . S
C969 C968 1.370 . S
C969 C973 1.408 . S
C970 C968 1.363 . S
C970 C971 1.370 . S
C970 C974 1.524 . S
C971 C963 1.503 . S
C971 C970 1.370 . S
C971 C972 1.403 . S
C972 C971 1.403 . S
C972 C973 1.404 . S
C972 C975 1.539 . S
C973 C969 1.408 . S
C973 C972 1.404 . S
C973 H985 0.930 . S
C974 C970 1.524 . S
C974 H986 0.956 . S
C974 H987 0.961 . S
C974 H988 0.961 . S
C975 C972 1.539 . S
C975 H989 0.958 . S
C975 H990 0.961 . S
C975 H991 0.960 . S
H976 C960 0.931 . S
H977 C965 0.929 . S
H978 C966 0.960 . S
H979 C966 0.962 . S
H980 C966 0.960 . S
H981 C967 0.961 . S
H982 C967 0.961 . S
H983 C967 0.961 . S
H984 C968 0.931 . S
H985 C973 0.930 . S
H986 C974 0.956 . S
H987 C974 0.961 . S
H988 C974 0.961 . S
H989 C975 0.958 . S
H990 C975 0.961 . S
H991 C975 0.960 . S
C992 C993 1.391 . S
C992 C994 1.394 . S
C992 H1008 0.931 . S
C993 C992 1.391 . S
C993 C997 1.376 . S
C994 C992 1.394 . S
C994 C995 1.369 . S
C994 C998 1.531 . S
C995 C994 1.369 . S
C995 C996 1.410 . S
C995 C1003 1.503 . S
C996 C995 1.410 . S
C996 C997 1.392 . S
C996 C999 1.511 . S
C997 C993 1.376 . S
C997 C996 1.392 . S
C997 H1009 0.929 . S
C998 C994 1.531 . S
C998 H1010 0.960 . S
C998 H1011 0.962 . S
C998 H1012 0.960 . S
C999 C996 1.511 . S
C999 H1013 0.961 . S
C999 H1014 0.961 . S
C999 H1015 0.961 . S
C1000 C1001 1.370 . S
C1000 C1002 1.363 . S
C1000 H1016 0.931 . S
C1001 C1000 1.370 . S
C1001 C1005 1.408 . S
C1002 C1000 1.363 . S
C1002 C1003 1.370 . S
C1002 C1006 1.524 . S
C1003 C995 1.503 . S
C1003 C1002 1.370 . S
C1003 C1004 1.403 . S
C1004 C1003 1.403 . S
C1004 C1005 1.404 . S
C1004 C1007 1.539 . S
C1005 C1001 1.408 . S
C1005 C1004 1.404 . S
C1005 H1017 0.930 . S
C1006 C1002 1.524 . S
C1006 H1018 0.956 . S
C1006 H1019 0.961 . S
C1006 H1020 0.961 . S
C1007 C1004 1.539 . S
C1007 H1021 0.958 . S
C1007 H1022 0.961 . S
C1007 H1023 0.960 . S
H1008 C992 0.931 . S
H1009 C997 0.929 . S
H1010 C998 0.960 . S
H1011 C998 0.962 . S
H1012 C998 0.960 . S
H1013 C999 0.961 . S
H1014 C999 0.961 . S
H1015 C999 0.961 . S
H1016 C1000 0.931 . S
H1017 C1005 0.930 . S
H1018 C1006 0.956 . S
H1019 C1006 0.961 . S
H1020 C1006 0.961 . S
H1021 C1007 0.958 . S
H1022 C1007 0.961 . S
H1023 C1007 0.960 . S
C1024 C1025 1.391 . S
C1024 C1026 1.394 . S
C1024 H1040 0.931 . S
C1025 C1024 1.391 . S
C1025 C1029 1.376 . S
C1026 C1024 1.394 . S
C1026 C1027 1.369 1_556 S
C1026 C1030 1.531 1_556 S
C1027 C1026 1.369 1_554 S
C1027 C1028 1.410 1_554 S
C1027 C1035 1.503 . S
C1028 C1027 1.410 1_556 S
C1028 C1029 1.392 . S
C1028 C1031 1.511 1_556 S
C1029 C1025 1.376 . S
C1029 C1028 1.392 . S
C1029 H1041 0.929 . S
C1030 C1026 1.531 1_554 S
C1030 H1042 0.960 . S
C1030 H1043 0.962 . S
C1030 H1044 0.960 . S
C1031 C1028 1.511 1_554 S
C1031 H1045 0.961 1_554 S
C1031 H1046 0.961 . S
C1031 H1047 0.961 . S
C1032 C1033 1.370 . S
C1032 C1034 1.363 . S
C1032 H1048 0.931 . S
C1033 C1032 1.370 . S
C1033 C1037 1.408 . S
C1034 C1032 1.363 . S
C1034 C1035 1.370 . S
C1034 C1038 1.524 . S
C1035 C1027 1.503 . S
C1035 C1034 1.370 . S
C1035 C1036 1.403 . S
C1036 C1035 1.403 . S
C1036 C1037 1.404 . S
C1036 C1039 1.539 . S
C1037 C1033 1.408 . S
C1037 C1036 1.404 . S
C1037 H1049 0.930 . S
C1038 C1034 1.524 . S
C1038 H1050 0.956 . S
C1038 H1051 0.961 . S
C1038 H1052 0.961 . S
C1039 C1036 1.539 . S
C1039 H1053 0.958 . S
C1039 H1054 0.961 . S
C1039 H1055 0.960 . S
H1040 C1024 0.931 . S
H1041 C1029 0.929 . S
H1042 C1030 0.960 . S
H1043 C1030 0.962 . S
H1044 C1030 0.960 . S
H1045 C1031 0.961 1_556 S
H1046 C1031 0.961 . S
H1047 C1031 0.961 . S
H1048 C1032 0.931 . S
H1049 C1037 0.930 . S
H1050 C1038 0.956 . S
H1051 C1038 0.961 . S
H1052 C1038 0.961 . S
H1053 C1039 0.958 . S
H1054 C1039 0.961 . S
H1055 C1039 0.960 . S
C1056 C1057 1.391 . S
C1056 C1058 1.394 . S
C1056 H1072 0.931 . S
C1057 C1056 1.391 . S
C1057 C1061 1.376 . S
C1058 C1056 1.394 . S
C1058 C1059 1.369 . S
C1058 C1062 1.531 . S
C1059 C1058 1.369 . S
C1059 C1060 1.410 . S
C1059 C1067 1.503 . S
C1060 C1059 1.410 . S
C1060 C1061 1.392 . S
C1060 C1063 1.511 . S
C1061 C1057 1.376 . S
C1061 C1060 1.392 . S
C1061 H1073 0.929 . S
C1062 C1058 1.531 . S
C1062 H1074 0.960 . S
C1062 H1075 0.962 . S
C1062 H1076 0.960 . S
C1063 C1060 1.511 . S
C1063 H1077 0.961 . S
C1063 H1078 0.961 . S
C1063 H1079 0.961 . S
C1064 C1065 1.370 . S
C1064 C1066 1.363 . S
C1064 H1080 0.931 . S
C1065 C1064 1.370 . S
C1065 C1069 1.408 . S
C1066 C1064 1.363 . S
C1066 C1067 1.370 . S
C1066 C1070 1.524 . S
C1067 C1059 1.503 . S
C1067 C1066 1.370 . S
C1067 C1068 1.403 . S
C1068 C1067 1.403 . S
C1068 C1069 1.404 . S
C1068 C1071 1.539 . S
C1069 C1065 1.408 . S
C1069 C1068 1.404 . S
C1069 H1081 0.930 . S
C1070 C1066 1.524 . S
C1070 H1082 0.956 . S
C1070 H1083 0.961 . S
C1070 H1084 0.961 . S
C1071 C1068 1.539 . S
C1071 H1085 0.958 . S
C1071 H1086 0.961 . S
C1071 H1087 0.960 . S
H1072 C1056 0.931 . S
H1073 C1061 0.929 . S
H1074 C1062 0.960 . S
H1075 C1062 0.962 . S
H1076 C1062 0.960 . S
H1077 C1063 0.961 . S
H1078 C1063 0.961 . S
H1079 C1063 0.961 . S
H1080 C1064 0.931 . S
H1081 C1069 0.930 . S
H1082 C1070 0.956 . S
H1083 C1070 0.961 . S
H1084 C1070 0.961 . S
H1085 C1071 0.958 . S
H1086 C1071 0.961 . S
H1087 C1071 0.960 . S
C1088 C1089 1.391 . S
C1088 C1090 1.394 . S
C1088 H1104 0.931 . S
C1089 C1088 1.391 . S
C1089 C1093 1.376 . S
C1090 C1088 1.394 . S
C1090 C1091 1.369 . S
C1090 C1094 1.531 . S
C1091 C1090 1.369 . S
C1091 C1092 1.410 . S
C1091 C1099 1.503 . S
C1092 C1091 1.410 . S
C1092 C1093 1.392 . S
C1092 C1095 1.511 . S
C1093 C1089 1.376 . S
C1093 C1092 1.392 . S
C1093 H1105 0.929 . S
C1094 C1090 1.531 . S
C1094 H1106 0.960 . S
C1094 H1107 0.962 . S
C1094 H1108 0.960 . S
C1095 C1092 1.511 . S
C1095 H1109 0.961 . S
C1095 H1110 0.961 . S
C1095 H1111 0.961 . S
C1096 C1097 1.370 . S
C1096 C1098 1.363 . S
C1096 H1112 0.931 . S
C1097 C1096 1.370 . S
C1097 C1101 1.408 . S
C1098 C1096 1.363 . S
C1098 C1099 1.370 . S
C1098 C1102 1.524 . S
C1099 C1091 1.503 . S
C1099 C1098 1.370 . S
C1099 C1100 1.403 . S
C1100 C1099 1.403 . S
C1100 C1101 1.404 . S
C1100 C1103 1.539 . S
C1101 C1097 1.408 . S
C1101 C1100 1.404 . S
C1101 H1113 0.930 . S
C1102 C1098 1.524 . S
C1102 H1114 0.956 . S
C1102 H1115 0.961 . S
C1102 H1116 0.961 . S
C1103 C1100 1.539 . S
C1103 H1117 0.958 . S
C1103 H1118 0.961 . S
C1103 H1119 0.960 . S
H1104 C1088 0.931 . S
H1105 C1093 0.929 . S
H1106 C1094 0.960 . S
H1107 C1094 0.962 . S
H1108 C1094 0.960 . S
H1109 C1095 0.961 . S
H1110 C1095 0.961 . S
H1111 C1095 0.961 . S
H1112 C1096 0.931 . S
H1113 C1101 0.930 . S
H1114 C1102 0.956 . S
H1115 C1102 0.961 . S
H1116 C1102 0.961 . S
H1117 C1103 0.958 . S
H1118 C1103 0.961 . S
H1119 C1103 0.960 . S
C1120 C1121 1.391 . S
C1120 C1122 1.394 . S
C1120 H1136 0.931 . S
C1121 C1120 1.391 . S
C1121 C1125 1.376 . S
C1122 C1120 1.394 . S
C1122 C1123 1.369 . S
C1122 C1126 1.531 . S
C1123 C1122 1.369 . S
C1123 C1124 1.410 . S
C1123 C1131 1.503 . S
C1124 C1123 1.410 . S
C1124 C1125 1.392 . S
C1124 C1127 1.511 . S
C1125 C1121 1.376 . S
C1125 C1124 1.392 . S
C1125 H1137 0.929 . S
C1126 C1122 1.531 . S
C1126 H1138 0.960 . S
C1126 H1139 0.962 . S
C1126 H1140 0.960 . S
C1127 C1124 1.511 . S
C1127 H1141 0.961 . S
C1127 H1142 0.961 . S
C1127 H1143 0.961 . S
C1128 C1129 1.370 . S
C1128 C1130 1.363 . S
C1128 H1144 0.931 . S
C1129 C1128 1.370 . S
C1129 C1133 1.408 . S
C1130 C1128 1.363 . S
C1130 C1131 1.370 . S
C1130 C1134 1.524 . S
C1131 C1123 1.503 . S
C1131 C1130 1.370 . S
C1131 C1132 1.403 . S
C1132 C1131 1.403 . S
C1132 C1133 1.404 . S
C1132 C1135 1.539 . S
C1133 C1129 1.408 . S
C1133 C1132 1.404 . S
C1133 H1145 0.930 . S
C1134 C1130 1.524 . S
C1134 H1146 0.956 . S
C1134 H1147 0.961 . S
C1134 H1148 0.961 . S
C1135 C1132 1.539 . S
C1135 H1149 0.958 . S
C1135 H1150 0.961 . S
C1135 H1151 0.960 . S
H1136 C1120 0.931 . S
H1137 C1125 0.929 . S
H1138 C1126 0.960 . S
H1139 C1126 0.962 . S
H1140 C1126 0.960 . S
H1141 C1127 0.961 . S
H1142 C1127 0.961 . S
H1143 C1127 0.961 . S
H1144 C1128 0.931 . S
H1145 C1133 0.930 . S
H1146 C1134 0.956 . S
H1147 C1134 0.961 . S
H1148 C1134 0.961 . S
H1149 C1135 0.958 . S
H1150 C1135 0.961 . S
H1151 C1135 0.960 . S
C1152 C1153 1.391 . S
C1152 C1154 1.394 . S
C1152 H1168 0.931 . S
C1153 C1152 1.391 . S
C1153 C1157 1.376 . S
C1154 C1152 1.394 . S
C1154 C1155 1.369 1_554 S
C1154 C1158 1.531 1_554 S
C1155 C1154 1.369 1_556 S
C1155 C1156 1.410 1_556 S
C1155 C1163 1.503 . S
C1156 C1155 1.410 1_554 S
C1156 C1157 1.392 . S
C1156 C1159 1.511 1_554 S
C1157 C1153 1.376 . S
C1157 C1156 1.392 . S
C1157 H1169 0.929 . S
C1158 C1154 1.531 1_556 S
C1158 H1170 0.960 . S
C1158 H1171 0.962 . S
C1158 H1172 0.960 1_556 S
C1159 C1156 1.511 1_556 S
C1159 H1173 0.961 1_556 S
C1159 H1174 0.961 . S
C1159 H1175 0.961 . S
C1160 C1161 1.370 . S
C1160 C1162 1.363 . S
C1160 H1176 0.931 . S
C1161 C1160 1.370 . S
C1161 C1165 1.408 . S
C1162 C1160 1.363 . S
C1162 C1163 1.370 . S
C1162 C1166 1.524 . S
C1163 C1155 1.503 . S
C1163 C1162 1.370 . S
C1163 C1164 1.403 . S
C1164 C1163 1.403 . S
C1164 C1165 1.404 . S
C1164 C1167 1.539 . S
C1165 C1161 1.408 . S
C1165 C1164 1.404 . S
C1165 H1177 0.930 . S
C1166 C1162 1.524 . S
C1166 H1178 0.956 . S
C1166 H1179 0.961 . S
C1166 H1180 0.961 . S
C1167 C1164 1.539 . S
C1167 H1181 0.958 . S
C1167 H1182 0.961 . S
C1167 H1183 0.960 . S
H1168 C1152 0.931 . S
H1169 C1157 0.929 . S
H1170 C1158 0.960 . S
H1171 C1158 0.962 . S
H1172 C1158 0.960 1_554 S
H1173 C1159 0.961 1_554 S
H1174 C1159 0.961 . S
H1175 C1159 0.961 . S
H1176 C1160 0.931 . S
H1177 C1165 0.930 . S
H1178 C1166 0.956 . S
H1179 C1166 0.961 . S
H1180 C1166 0.961 . S
H1181 C1167 0.958 . S
H1182 C1167 0.961 . S
H1183 C1167 0.960 . S
C1184 C1185 1.391 . S
C1184 C1186 1.394 . S
C1184 H1200 0.931 . S
C1185 C1184 1.391 . S
C1185 C1189 1.376 . S
C1186 C1184 1.394 . S
C1186 C1187 1.369 . S
C1186 C1190 1.531 . S
C1187 C1186 1.369 . S
C1187 C1188 1.410 . S
C1187 C1195 1.503 . S
C1188 C1187 1.410 . S
C1188 C1189 1.392 . S
C1188 C1191 1.511 . S
C1189 C1185 1.376 . S
C1189 C1188 1.392 . S
C1189 H1201 0.929 . S
C1190 C1186 1.531 . S
C1190 H1202 0.960 . S
C1190 H1203 0.962 . S
C1190 H1204 0.960 . S
C1191 C1188 1.511 . S
C1191 H1205 0.961 . S
C1191 H1206 0.961 . S
C1191 H1207 0.961 . S
C1192 C1193 1.370 . S
C1192 C1194 1.363 . S
C1192 H1208 0.931 . S
C1193 C1192 1.370 . S
C1193 C1197 1.408 . S
C1194 C1192 1.363 . S
C1194 C1195 1.370 . S
C1194 C1198 1.524 . S
C1195 C1187 1.503 . S
C1195 C1194 1.370 . S
C1195 C1196 1.403 . S
C1196 C1195 1.403 . S
C1196 C1197 1.404 . S
C1196 C1199 1.539 . S
C1197 C1193 1.408 . S
C1197 C1196 1.404 . S
C1197 H1209 0.930 . S
C1198 C1194 1.524 . S
C1198 H1210 0.956 . S
C1198 H1211 0.961 . S
C1198 H1212 0.961 . S
C1199 C1196 1.539 . S
C1199 H1213 0.958 . S
C1199 H1214 0.961 . S
C1199 H1215 0.960 . S
H1200 C1184 0.931 . S
H1201 C1189 0.929 . S
H1202 C1190 0.960 . S
H1203 C1190 0.962 . S
H1204 C1190 0.960 . S
H1205 C1191 0.961 . S
H1206 C1191 0.961 . S
H1207 C1191 0.961 . S
H1208 C1192 0.931 . S
H1209 C1197 0.930 . S
H1210 C1198 0.956 . S
H1211 C1198 0.961 . S
H1212 C1198 0.961 . S
H1213 C1199 0.958 . S
H1214 C1199 0.961 . S
H1215 C1199 0.960 . S
C1216 C1217 1.391 . S
C1216 C1218 1.394 . S
C1216 H1232 0.931 . S
C1217 C1216 1.391 . S
C1217 C1221 1.376 . S
C1218 C1216 1.394 . S
C1218 C1219 1.369 . S
C1218 C1222 1.531 . S
C1219 C1218 1.369 . S
C1219 C1220 1.410 . S
C1219 C1227 1.503 . S
C1220 C1219 1.410 . S
C1220 C1221 1.392 . S
C1220 C1223 1.511 . S
C1221 C1217 1.376 . S
C1221 C1220 1.392 . S
C1221 H1233 0.929 . S
C1222 C1218 1.531 . S
C1222 H1234 0.960 . S
C1222 H1235 0.962 . S
C1222 H1236 0.960 . S
C1223 C1220 1.511 . S
C1223 H1237 0.961 . S
C1223 H1238 0.961 . S
C1223 H1239 0.961 . S
C1224 C1225 1.370 . S
C1224 C1226 1.363 . S
C1224 H1240 0.931 . S
C1225 C1224 1.370 . S
C1225 C1229 1.408 . S
C1226 C1224 1.363 . S
C1226 C1227 1.370 . S
C1226 C1230 1.524 . S
C1227 C1219 1.503 . S
C1227 C1226 1.370 . S
C1227 C1228 1.403 . S
C1228 C1227 1.403 . S
C1228 C1229 1.404 . S
C1228 C1231 1.539 . S
C1229 C1225 1.408 . S
C1229 C1228 1.404 . S
C1229 H1241 0.930 . S
C1230 C1226 1.524 . S
C1230 H1242 0.956 . S
C1230 H1243 0.961 . S
C1230 H1244 0.961 . S
C1231 C1228 1.539 . S
C1231 H1245 0.958 . S
C1231 H1246 0.961 . S
C1231 H1247 0.960 . S
H1232 C1216 0.931 . S
H1233 C1221 0.929 . S
H1234 C1222 0.960 . S
H1235 C1222 0.962 . S
H1236 C1222 0.960 . S
H1237 C1223 0.961 . S
H1238 C1223 0.961 . S
H1239 C1223 0.961 . S
H1240 C1224 0.931 . S
H1241 C1229 0.930 . S
H1242 C1230 0.956 . S
H1243 C1230 0.961 . S
H1244 C1230 0.961 . S
H1245 C1231 0.958 . S
H1246 C1231 0.961 . S
H1247 C1231 0.960 . S
C1248 C1249 1.391 . S
C1248 C1250 1.394 . S
C1248 H1264 0.931 . S
C1249 C1248 1.391 . S
C1249 C1253 1.376 . S
C1250 C1248 1.394 . S
C1250 C1251 1.369 . S
C1250 C1254 1.531 . S
C1251 C1250 1.369 . S
C1251 C1252 1.410 . S
C1251 C1259 1.503 . S
C1252 C1251 1.410 . S
C1252 C1253 1.392 . S
C1252 C1255 1.511 . S
C1253 C1249 1.376 . S
C1253 C1252 1.392 . S
C1253 H1265 0.929 . S
C1254 C1250 1.531 . S
C1254 H1266 0.960 . S
C1254 H1267 0.962 . S
C1254 H1268 0.960 . S
C1255 C1252 1.511 . S
C1255 H1269 0.961 . S
C1255 H1270 0.961 . S
C1255 H1271 0.961 . S
C1256 C1257 1.370 . S
C1256 C1258 1.363 . S
C1256 H1272 0.931 . S
C1257 C1256 1.370 . S
C1257 C1261 1.408 . S
C1258 C1256 1.363 . S
C1258 C1259 1.370 . S
C1258 C1262 1.524 . S
C1259 C1251 1.503 . S
C1259 C1258 1.370 . S
C1259 C1260 1.403 . S
C1260 C1259 1.403 . S
C1260 C1261 1.404 . S
C1260 C1263 1.539 . S
C1261 C1257 1.408 . S
C1261 C1260 1.404 . S
C1261 H1273 0.930 . S
C1262 C1258 1.524 . S
C1262 H1274 0.956 . S
C1262 H1275 0.961 . S
C1262 H1276 0.961 . S
C1263 C1260 1.539 . S
C1263 H1277 0.958 . S
C1263 H1278 0.961 . S
C1263 H1279 0.960 . S
H1264 C1248 0.931 . S
H1265 C1253 0.929 . S
H1266 C1254 0.960 . S
H1267 C1254 0.962 . S
H1268 C1254 0.960 . S
H1269 C1255 0.961 . S
H1270 C1255 0.961 . S
H1271 C1255 0.961 . S
H1272 C1256 0.931 . S
H1273 C1261 0.930 . S
H1274 C1262 0.956 . S
H1275 C1262 0.961 . S
H1276 C1262 0.961 . S
H1277 C1263 0.958 . S
H1278 C1263 0.961 . S
H1279 C1263 0.960 . S
C1280 C1281 1.391 . S
C1280 C1282 1.394 . S
C1280 H1296 0.931 . S
C1281 C1280 1.391 . S
C1281 C1285 1.376 . S
C1282 C1280 1.394 . S
C1282 C1283 1.369 . S
C1282 C1286 1.531 . S
C1283 C1282 1.369 . S
C1283 C1284 1.410 . S
C1283 C1291 1.503 . S
C1284 C1283 1.410 . S
C1284 C1285 1.392 . S
C1284 C1287 1.511 . S
C1285 C1281 1.376 . S
C1285 C1284 1.392 . S
C1285 H1297 0.929 . S
C1286 C1282 1.531 . S
C1286 H1298 0.960 . S
C1286 H1299 0.962 . S
C1286 H1300 0.960 . S
C1287 C1284 1.511 . S
C1287 H1301 0.961 . S
C1287 H1302 0.961 . S
C1287 H1303 0.961 . S
C1288 C1289 1.370 . S
C1288 C1290 1.363 . S
C1288 H1304 0.931 . S
C1289 C1288 1.370 . S
C1289 C1293 1.408 . S
C1290 C1288 1.363 . S
C1290 C1291 1.370 . S
C1290 C1294 1.524 . S
C1291 C1283 1.503 . S
C1291 C1290 1.370 . S
C1291 C1292 1.403 . S
C1292 C1291 1.403 . S
C1292 C1293 1.404 . S
C1292 C1295 1.539 . S
C1293 C1289 1.408 . S
C1293 C1292 1.404 . S
C1293 H1305 0.930 . S
C1294 C1290 1.524 . S
C1294 H1306 0.956 . S
C1294 H1307 0.961 . S
C1294 H1308 0.961 . S
C1295 C1292 1.539 . S
C1295 H1309 0.958 . S
C1295 H1310 0.961 . S
C1295 H1311 0.960 . S
H1296 C1280 0.931 . S
H1297 C1285 0.929 . S
H1298 C1286 0.960 . S
H1299 C1286 0.962 . S
H1300 C1286 0.960 . S
H1301 C1287 0.961 . S
H1302 C1287 0.961 . S
H1303 C1287 0.961 . S
H1304 C1288 0.931 . S
H1305 C1293 0.930 . S
H1306 C1294 0.956 . S
H1307 C1294 0.961 . S
H1308 C1294 0.961 . S
H1309 C1295 0.958 . S
H1310 C1295 0.961 . S
H1311 C1295 0.960 . S
C1312 C1313 1.391 . S
C1312 C1314 1.394 . S
C1312 H1328 0.931 . S
C1313 C1312 1.391 . S
C1313 C1317 1.376 . S
C1314 C1312 1.394 . S
C1314 C1315 1.369 . S
C1314 C1318 1.531 . S
C1315 C1314 1.369 . S
C1315 C1316 1.410 . S
C1315 C1323 1.503 . S
C1316 C1315 1.410 . S
C1316 C1317 1.392 . S
C1316 C1319 1.511 . S
C1317 C1313 1.376 . S
C1317 C1316 1.392 . S
C1317 H1329 0.929 . S
C1318 C1314 1.531 . S
C1318 H1330 0.960 . S
C1318 H1331 0.962 . S
C1318 H1332 0.960 . S
C1319 C1316 1.511 . S
C1319 H1333 0.961 . S
C1319 H1334 0.961 . S
C1319 H1335 0.961 . S
C1320 C1321 1.370 . S
C1320 C1322 1.363 . S
C1320 H1336 0.931 . S
C1321 C1320 1.370 . S
C1321 C1325 1.408 . S
C1322 C1320 1.363 . S
C1322 C1323 1.370 1_545 S
C1322 C1326 1.524 1_545 S
C1323 C1315 1.503 . S
C1323 C1322 1.370 1_565 S
C1323 C1324 1.403 . S
C1324 C1323 1.403 . S
C1324 C1325 1.404 1_565 S
C1324 C1327 1.539 . S
C1325 C1321 1.408 . S
C1325 C1324 1.404 1_545 S
C1325 H1337 0.930 . S
C1326 C1322 1.524 1_565 S
C1326 H1338 0.956 . S
C1326 H1339 0.961 . S
C1326 H1340 0.961 1_565 S
C1327 C1324 1.539 . S
C1327 H1341 0.958 . S
C1327 H1342 0.961 . S
C1327 H1343 0.960 . S
H1328 C1312 0.931 . S
H1329 C1317 0.929 . S
H1330 C1318 0.960 . S
H1331 C1318 0.962 . S
H1332 C1318 0.960 . S
H1333 C1319 0.961 . S
H1334 C1319 0.961 . S
H1335 C1319 0.961 . S
H1336 C1320 0.931 . S
H1337 C1325 0.930 . S
H1338 C1326 0.956 . S
H1339 C1326 0.961 . S
H1340 C1326 0.961 1_545 S
H1341 C1327 0.958 . S
H1342 C1327 0.961 . S
H1343 C1327 0.960 . S
C1344 C1345 1.391 . S
C1344 C1346 1.394 . S
C1344 H1360 0.931 . S
C1345 C1344 1.391 . S
C1345 C1349 1.376 . S
C1346 C1344 1.394 . S
C1346 C1347 1.369 . S
C1346 C1350 1.531 . S
C1347 C1346 1.369 . S
C1347 C1348 1.410 . S
C1347 C1355 1.503 . S
C1348 C1347 1.410 . S
C1348 C1349 1.392 . S
C1348 C1351 1.511 . S
C1349 C1345 1.376 . S
C1349 C1348 1.392 . S
C1349 H1361 0.929 . S
C1350 C1346 1.531 . S
C1350 H1362 0.960 . S
C1350 H1363 0.962 . S
C1350 H1364 0.960 . S
C1351 C1348 1.511 . S
C1351 H1365 0.961 . S
C1351 H1366 0.961 . S
C1351 H1367 0.961 . S
C1352 C1353 1.370 . S
C1352 C1354 1.363 . S
C1352 H1368 0.931 . S
C1353 C1352 1.370 . S
C1353 C1357 1.408 . S
C1354 C1352 1.363 . S
C1354 C1355 1.370 . S
C1354 C1358 1.524 . S
C1355 C1347 1.503 . S
C1355 C1354 1.370 . S
C1355 C1356 1.403 . S
C1356 C1355 1.403 . S
C1356 C1357 1.404 . S
C1356 C1359 1.539 . S
C1357 C1353 1.408 . S
C1357 C1356 1.404 . S
C1357 H1369 0.930 . S
C1358 C1354 1.524 . S
C1358 H1370 0.956 . S
C1358 H1371 0.961 . S
C1358 H1372 0.961 . S
C1359 C1356 1.539 . S
C1359 H1373 0.958 . S
C1359 H1374 0.961 . S
C1359 H1375 0.960 . S
H1360 C1344 0.931 . S
H1361 C1349 0.929 . S
H1362 C1350 0.960 . S
H1363 C1350 0.962 . S
H1364 C1350 0.960 . S
H1365 C1351 0.961 . S
H1366 C1351 0.961 . S
H1367 C1351 0.961 . S
H1368 C1352 0.931 . S
H1369 C1357 0.930 . S
H1370 C1358 0.956 . S
H1371 C1358 0.961 . S
H1372 C1358 0.961 . S
H1373 C1359 0.958 . S
H1374 C1359 0.961 . S
H1375 C1359 0.960 . S
C1376 C1377 1.391 . S
C1376 C1378 1.394 . S
C1376 H1392 0.931 . S
C1377 C1376 1.391 . S
C1377 C1381 1.376 . S
C1378 C1376 1.394 . S
C1378 C1379 1.369 . S
C1378 C1382 1.531 . S
C1379 C1378 1.369 . S
C1379 C1380 1.410 . S
C1379 C1387 1.503 . S
C1380 C1379 1.410 . S
C1380 C1381 1.392 . S
C1380 C1383 1.511 . S
C1381 C1377 1.376 . S
C1381 C1380 1.392 . S
C1381 H1393 0.929 . S
C1382 C1378 1.531 . S
C1382 H1394 0.960 . S
C1382 H1395 0.962 . S
C1382 H1396 0.960 . S
C1383 C1380 1.511 . S
C1383 H1397 0.961 . S
C1383 H1398 0.961 . S
C1383 H1399 0.961 . S
C1384 C1385 1.370 . S
C1384 C1386 1.363 . S
C1384 H1400 0.931 . S
C1385 C1384 1.370 . S
C1385 C1389 1.408 . S
C1386 C1384 1.363 . S
C1386 C1387 1.370 . S
C1386 C1390 1.524 . S
C1387 C1379 1.503 . S
C1387 C1386 1.370 . S
C1387 C1388 1.403 . S
C1388 C1387 1.403 . S
C1388 C1389 1.404 . S
C1388 C1391 1.539 . S
C1389 C1385 1.408 . S
C1389 C1388 1.404 . S
C1389 H1401 0.930 . S
C1390 C1386 1.524 . S
C1390 H1402 0.956 . S
C1390 H1403 0.961 . S
C1390 H1404 0.961 . S
C1391 C1388 1.539 . S
C1391 H1405 0.958 . S
C1391 H1406 0.961 . S
C1391 H1407 0.960 . S
H1392 C1376 0.931 . S
H1393 C1381 0.929 . S
H1394 C1382 0.960 . S
H1395 C1382 0.962 . S
H1396 C1382 0.960 . S
H1397 C1383 0.961 . S
H1398 C1383 0.961 . S
H1399 C1383 0.961 . S
H1400 C1384 0.931 . S
H1401 C1389 0.930 . S
H1402 C1390 0.956 . S
H1403 C1390 0.961 . S
H1404 C1390 0.961 . S
H1405 C1391 0.958 . S
H1406 C1391 0.961 . S
H1407 C1391 0.960 . S
C1408 C1409 1.391 . S
C1408 C1410 1.394 . S
C1408 H1424 0.931 . S
C1409 C1408 1.391 . S
C1409 C1413 1.376 . S
C1410 C1408 1.394 . S
C1410 C1411 1.369 . S
C1410 C1414 1.531 . S
C1411 C1410 1.369 . S
C1411 C1412 1.410 . S
C1411 C1419 1.503 . S
C1412 C1411 1.410 . S
C1412 C1413 1.392 . S
C1412 C1415 1.511 . S
C1413 C1409 1.376 . S
C1413 C1412 1.392 . S
C1413 H1425 0.929 . S
C1414 C1410 1.531 . S
C1414 H1426 0.960 . S
C1414 H1427 0.962 . S
C1414 H1428 0.960 . S
C1415 C1412 1.511 . S
C1415 H1429 0.961 . S
C1415 H1430 0.961 . S
C1415 H1431 0.961 . S
C1416 C1417 1.370 . S
C1416 C1418 1.363 . S
C1416 H1432 0.931 . S
C1417 C1416 1.370 . S
C1417 C1421 1.408 . S
C1418 C1416 1.363 . S
C1418 C1419 1.370 . S
C1418 C1422 1.524 . S
C1419 C1411 1.503 . S
C1419 C1418 1.370 . S
C1419 C1420 1.403 . S
C1420 C1419 1.403 . S
C1420 C1421 1.404 . S
C1420 C1423 1.539 . S
C1421 C1417 1.408 . S
C1421 C1420 1.404 . S
C1421 H1433 0.930 . S
C1422 C1418 1.524 . S
C1422 H1434 0.956 . S
C1422 H1435 0.961 . S
C1422 H1436 0.961 . S
C1423 C1420 1.539 . S
C1423 H1437 0.958 . S
C1423 H1438 0.961 . S
C1423 H1439 0.960 . S
H1424 C1408 0.931 . S
H1425 C1413 0.929 . S
H1426 C1414 0.960 . S
H1427 C1414 0.962 . S
H1428 C1414 0.960 . S
H1429 C1415 0.961 . S
H1430 C1415 0.961 . S
H1431 C1415 0.961 . S
H1432 C1416 0.931 . S
H1433 C1421 0.930 . S
H1434 C1422 0.956 . S
H1435 C1422 0.961 . S
H1436 C1422 0.961 . S
H1437 C1423 0.958 . S
H1438 C1423 0.961 . S
H1439 C1423 0.960 . S
C1440 C1441 1.391 . S
C1440 C1442 1.394 . S
C1440 H1456 0.931 . S
C1441 C1440 1.391 . S
C1441 C1445 1.376 . S
C1442 C1440 1.394 . S
C1442 C1443 1.369 . S
C1442 C1446 1.531 . S
C1443 C1442 1.369 . S
C1443 C1444 1.410 . S
C1443 C1451 1.503 . S
C1444 C1443 1.410 . S
C1444 C1445 1.392 . S
C1444 C1447 1.511 . S
C1445 C1441 1.376 . S
C1445 C1444 1.392 . S
C1445 H1457 0.929 . S
C1446 C1442 1.531 . S
C1446 H1458 0.960 . S
C1446 H1459 0.962 . S
C1446 H1460 0.960 . S
C1447 C1444 1.511 . S
C1447 H1461 0.961 . S
C1447 H1462 0.961 . S
C1447 H1463 0.961 . S
C1448 C1449 1.370 . S
C1448 C1450 1.363 . S
C1448 H1464 0.931 . S
C1449 C1448 1.370 . S
C1449 C1453 1.408 . S
C1450 C1448 1.363 . S
C1450 C1451 1.370 . S
C1450 C1454 1.524 . S
C1451 C1443 1.503 . S
C1451 C1450 1.370 . S
C1451 C1452 1.403 . S
C1452 C1451 1.403 . S
C1452 C1453 1.404 . S
C1452 C1455 1.539 . S
C1453 C1449 1.408 . S
C1453 C1452 1.404 . S
C1453 H1465 0.930 . S
C1454 C1450 1.524 . S
C1454 H1466 0.956 . S
C1454 H1467 0.961 . S
C1454 H1468 0.961 . S
C1455 C1452 1.539 . S
C1455 H1469 0.958 . S
C1455 H1470 0.961 . S
C1455 H1471 0.960 . S
H1456 C1440 0.931 . S
H1457 C1445 0.929 . S
H1458 C1446 0.960 . S
H1459 C1446 0.962 . S
H1460 C1446 0.960 . S
H1461 C1447 0.961 . S
H1462 C1447 0.961 . S
H1463 C1447 0.961 . S
H1464 C1448 0.931 . S
H1465 C1453 0.930 . S
H1466 C1454 0.956 . S
H1467 C1454 0.961 . S
H1468 C1454 0.961 . S
H1469 C1455 0.958 . S
H1470 C1455 0.961 . S
H1471 C1455 0.960 . S
C1472 C1473 1.391 . S
C1472 C1474 1.394 . S
C1472 H1488 0.931 . S
C1473 C1472 1.391 . S
C1473 C1477 1.376 . S
C1474 C1472 1.394 . S
C1474 C1475 1.369 1_655 S
C1474 C1478 1.531 1_655 S
C1475 C1474 1.369 1_455 S
C1475 C1476 1.410 1_455 S
C1475 C1483 1.503 . S
C1476 C1475 1.410 1_655 S
C1476 C1477 1.392 . S
C1476 C1479 1.511 . S
C1477 C1473 1.376 . S
C1477 C1476 1.392 . S
C1477 H1489 0.929 . S
C1478 C1474 1.531 1_455 S
C1478 H1490 0.960 . S
C1478 H1491 0.962 . S
C1478 H1492 0.960 . S
C1479 C1476 1.511 . S
C1479 H1493 0.961 . S
C1479 H1494 0.961 1_655 S
C1479 H1495 0.961 . S
C1480 C1481 1.370 . S
C1480 C1482 1.363 . S
C1480 H1496 0.931 . S
C1481 C1480 1.370 . S
C1481 C1485 1.408 . S
C1482 C1480 1.363 . S
C1482 C1483 1.370 . S
C1482 C1486 1.524 . S
C1483 C1475 1.503 . S
C1483 C1482 1.370 . S
C1483 C1484 1.403 . S
C1484 C1483 1.403 . S
C1484 C1485 1.404 . S
C1484 C1487 1.539 . S
C1485 C1481 1.408 . S
C1485 C1484 1.404 . S
C1485 H1497 0.930 . S
C1486 C1482 1.524 . S
C1486 H1498 0.956 . S
C1486 H1499 0.961 . S
C1486 H1500 0.961 . S
C1487 C1484 1.539 . S
C1487 H1501 0.958 . S
C1487 H1502 0.961 . S
C1487 H1503 0.960 . S
H1488 C1472 0.931 . S
H1489 C1477 0.929 . S
H1490 C1478 0.960 . S
H1491 C1478 0.962 . S
H1492 C1478 0.960 . S
H1493 C1479 0.961 . S
H1494 C1479 0.961 1_455 S
H1495 C1479 0.961 . S
H1496 C1480 0.931 . S
H1497 C1485 0.930 . S
H1498 C1486 0.956 . S
H1499 C1486 0.961 . S
H1500 C1486 0.961 . S
H1501 C1487 0.958 . S
H1502 C1487 0.961 . S
H1503 C1487 0.960 . S
C1504 C1505 1.391 . S
C1504 C1506 1.394 . S
C1504 H1520 0.931 . S
C1505 C1504 1.391 . S
C1505 C1509 1.376 . S
C1506 C1504 1.394 . S
C1506 C1507 1.369 . S
C1506 C1510 1.531 . S
C1507 C1506 1.369 . S
C1507 C1508 1.410 . S
C1507 C1515 1.503 . S
C1508 C1507 1.410 . S
C1508 C1509 1.392 . S
C1508 C1511 1.511 . S
C1509 C1505 1.376 . S
C1509 C1508 1.392 . S
C1509 H1521 0.929 . S
C1510 C1506 1.531 . S
C1510 H1522 0.960 . S
C1510 H1523 0.962 . S
C1510 H1524 0.960 . S
C1511 C1508 1.511 . S
C1511 H1525 0.961 . S
C1511 H1526 0.961 . S
C1511 H1527 0.961 . S
C1512 C1513 1.370 . S
C1512 C1514 1.363 . S
C1512 H1528 0.931 . S
C1513 C1512 1.370 . S
C1513 C1517 1.408 . S
C1514 C1512 1.363 . S
C1514 C1515 1.370 . S
C1514 C1518 1.524 . S
C1515 C1507 1.503 . S
C1515 C1514 1.370 . S
C1515 C1516 1.403 . S
C1516 C1515 1.403 . S
C1516 C1517 1.404 . S
C1516 C1519 1.539 . S
C1517 C1513 1.408 . S
C1517 C1516 1.404 . S
C1517 H1529 0.930 . S
C1518 C1514 1.524 . S
C1518 H1530 0.956 . S
C1518 H1531 0.961 . S
C1518 H1532 0.961 . S
C1519 C1516 1.539 . S
C1519 H1533 0.958 . S
C1519 H1534 0.961 . S
C1519 H1535 0.960 . S
H1520 C1504 0.931 . S
H1521 C1509 0.929 . S
H1522 C1510 0.960 . S
H1523 C1510 0.962 . S
H1524 C1510 0.960 . S
H1525 C1511 0.961 . S
H1526 C1511 0.961 . S
H1527 C1511 0.961 . S
H1528 C1512 0.931 . S
H1529 C1517 0.930 . S
H1530 C1518 0.956 . S
H1531 C1518 0.961 . S
H1532 C1518 0.961 . S
H1533 C1519 0.958 . S
H1534 C1519 0.961 . S
H1535 C1519 0.960 . S
C1536 C1537 1.391 . S
C1536 C1538 1.394 . S
C1536 H1552 0.931 . S
C1537 C1536 1.391 . S
C1537 C1541 1.376 . S
C1538 C1536 1.394 . S
C1538 C1539 1.369 . S
C1538 C1542 1.531 . S
C1539 C1538 1.369 . S
C1539 C1540 1.410 . S
C1539 C1547 1.503 . S
C1540 C1539 1.410 . S
C1540 C1541 1.392 . S
C1540 C1543 1.511 . S
C1541 C1537 1.376 . S
C1541 C1540 1.392 . S
C1541 H1553 0.929 . S
C1542 C1538 1.531 . S
C1542 H1554 0.960 . S
C1542 H1555 0.962 . S
C1542 H1556 0.960 . S
C1543 C1540 1.511 . S
C1543 H1557 0.961 . S
C1543 H1558 0.961 . S
C1543 H1559 0.961 . S
C1544 C1545 1.370 . S
C1544 C1546 1.363 . S
C1544 H1560 0.931 . S
C1545 C1544 1.370 . S
C1545 C1549 1.408 . S
C1546 C1544 1.363 . S
C1546 C1547 1.370 . S
C1546 C1550 1.524 . S
C1547 C1539 1.503 . S
C1547 C1546 1.370 . S
C1547 C1548 1.403 . S
C1548 C1547 1.403 . S
C1548 C1549 1.404 . S
C1548 C1551 1.539 . S
C1549 C1545 1.408 . S
C1549 C1548 1.404 . S
C1549 H1561 0.930 . S
C1550 C1546 1.524 . S
C1550 H1562 0.956 . S
C1550 H1563 0.961 . S
C1550 H1564 0.961 . S
C1551 C1548 1.539 . S
C1551 H1565 0.958 . S
C1551 H1566 0.961 . S
C1551 H1567 0.960 . S
H1552 C1536 0.931 . S
H1553 C1541 0.929 . S
H1554 C1542 0.960 . S
H1555 C1542 0.962 . S
H1556 C1542 0.960 . S
H1557 C1543 0.961 . S
H1558 C1543 0.961 . S
H1559 C1543 0.961 . S
H1560 C1544 0.931 . S
H1561 C1549 0.930 . S
H1562 C1550 0.956 . S
H1563 C1550 0.961 . S
H1564 C1550 0.961 . S
H1565 C1551 0.958 . S
H1566 C1551 0.961 . S
H1567 C1551 0.960 . S
C1568 C1569 1.391 . S
C1568 C1570 1.394 . S
C1568 H1584 0.931 . S
C1569 C1568 1.391 . S
C1569 C1573 1.376 . S
C1570 C1568 1.394 . S
C1570 C1571 1.369 . S
C1570 C1574 1.531 . S
C1571 C1570 1.369 . S
C1571 C1572 1.410 . S
C1571 C1579 1.503 . S
C1572 C1571 1.410 . S
C1572 C1573 1.392 . S
C1572 C1575 1.511 . S
C1573 C1569 1.376 . S
C1573 C1572 1.392 . S
C1573 H1585 0.929 . S
C1574 C1570 1.531 . S
C1574 H1586 0.960 . S
C1574 H1587 0.962 . S
C1574 H1588 0.960 . S
C1575 C1572 1.511 . S
C1575 H1589 0.961 . S
C1575 H1590 0.961 . S
C1575 H1591 0.961 . S
C1576 C1577 1.370 . S
C1576 C1578 1.363 . S
C1576 H1592 0.931 . S
C1577 C1576 1.370 . S
C1577 C1581 1.408 . S
C1578 C1576 1.363 . S
C1578 C1579 1.370 . S
C1578 C1582 1.524 . S
C1579 C1571 1.503 . S
C1579 C1578 1.370 . S
C1579 C1580 1.403 . S
C1580 C1579 1.403 . S
C1580 C1581 1.404 . S
C1580 C1583 1.539 . S
C1581 C1577 1.408 . S
C1581 C1580 1.404 . S
C1581 H1593 0.930 . S
C1582 C1578 1.524 . S
C1582 H1594 0.956 . S
C1582 H1595 0.961 . S
C1582 H1596 0.961 . S
C1583 C1580 1.539 . S
C1583 H1597 0.958 . S
C1583 H1598 0.961 . S
C1583 H1599 0.960 . S
H1584 C1568 0.931 . S
H1585 C1573 0.929 . S
H1586 C1574 0.960 . S
H1587 C1574 0.962 . S
H1588 C1574 0.960 . S
H1589 C1575 0.961 . S
H1590 C1575 0.961 . S
H1591 C1575 0.961 . S
H1592 C1576 0.931 . S
H1593 C1581 0.930 . S
H1594 C1582 0.956 . S
H1595 C1582 0.961 . S
H1596 C1582 0.961 . S
H1597 C1583 0.958 . S
H1598 C1583 0.961 . S
H1599 C1583 0.960 . S
C1600 C1601 1.391 . S
C1600 C1602 1.394 . S
C1600 H1616 0.931 . S
C1601 C1600 1.391 . S
C1601 C1605 1.376 . S
C1602 C1600 1.394 . S
C1602 C1603 1.369 . S
C1602 C1606 1.531 . S
C1603 C1602 1.369 . S
C1603 C1604 1.410 . S
C1603 C1611 1.503 . S
C1604 C1603 1.410 . S
C1604 C1605 1.392 . S
C1604 C1607 1.511 . S
C1605 C1601 1.376 . S
C1605 C1604 1.392 . S
C1605 H1617 0.929 . S
C1606 C1602 1.531 . S
C1606 H1618 0.960 . S
C1606 H1619 0.962 . S
C1606 H1620 0.960 . S
C1607 C1604 1.511 . S
C1607 H1621 0.961 . S
C1607 H1622 0.961 . S
C1607 H1623 0.961 . S
C1608 C1609 1.370 . S
C1608 C1610 1.363 . S
C1608 H1624 0.931 . S
C1609 C1608 1.370 . S
C1609 C1613 1.408 . S
C1610 C1608 1.363 . S
C1610 C1611 1.370 . S
C1610 C1614 1.524 . S
C1611 C1603 1.503 . S
C1611 C1610 1.370 . S
C1611 C1612 1.403 . S
C1612 C1611 1.403 . S
C1612 C1613 1.404 . S
C1612 C1615 1.539 . S
C1613 C1609 1.408 . S
C1613 C1612 1.404 . S
C1613 H1625 0.930 . S
C1614 C1610 1.524 . S
C1614 H1626 0.956 . S
C1614 H1627 0.961 . S
C1614 H1628 0.961 . S
C1615 C1612 1.539 . S
C1615 H1629 0.958 . S
C1615 H1630 0.961 . S
C1615 H1631 0.960 . S
H1616 C1600 0.931 . S
H1617 C1605 0.929 . S
H1618 C1606 0.960 . S
H1619 C1606 0.962 . S
H1620 C1606 0.960 . S
H1621 C1607 0.961 . S
H1622 C1607 0.961 . S
H1623 C1607 0.961 . S
H1624 C1608 0.931 . S
H1625 C1613 0.930 . S
H1626 C1614 0.956 . S
H1627 C1614 0.961 . S
H1628 C1614 0.961 . S
H1629 C1615 0.958 . S
H1630 C1615 0.961 . S
H1631 C1615 0.960 . S
C1632 C1633 1.391 . S
C1632 C1634 1.394 . S
C1632 H1648 0.931 . S
C1633 C1632 1.391 . S
C1633 C1637 1.376 . S
C1634 C1632 1.394 . S
C1634 C1635 1.369 . S
C1634 C1638 1.531 . S
C1635 C1634 1.369 . S
C1635 C1636 1.410 . S
C1635 C1643 1.503 . S
C1636 C1635 1.410 . S
C1636 C1637 1.392 . S
C1636 C1639 1.511 . S
C1637 C1633 1.376 . S
C1637 C1636 1.392 . S
C1637 H1649 0.929 . S
C1638 C1634 1.531 . S
C1638 H1650 0.960 . S
C1638 H1651 0.962 . S
C1638 H1652 0.960 . S
C1639 C1636 1.511 . S
C1639 H1653 0.961 . S
C1639 H1654 0.961 . S
C1639 H1655 0.961 . S
C1640 C1641 1.370 . S
C1640 C1642 1.363 . S
C1640 H1656 0.931 . S
C1641 C1640 1.370 . S
C1641 C1645 1.408 . S
C1642 C1640 1.363 . S
C1642 C1643 1.370 . S
C1642 C1646 1.524 . S
C1643 C1635 1.503 . S
C1643 C1642 1.370 . S
C1643 C1644 1.403 . S
C1644 C1643 1.403 . S
C1644 C1645 1.404 . S
C1644 C1647 1.539 . S
C1645 C1641 1.408 . S
C1645 C1644 1.404 . S
C1645 H1657 0.930 . S
C1646 C1642 1.524 . S
C1646 H1658 0.956 . S
C1646 H1659 0.961 . S
C1646 H1660 0.961 . S
C1647 C1644 1.539 . S
C1647 H1661 0.958 . S
C1647 H1662 0.961 . S
C1647 H1663 0.960 . S
H1648 C1632 0.931 . S
H1649 C1637 0.929 . S
H1650 C1638 0.960 . S
H1651 C1638 0.962 . S
H1652 C1638 0.960 . S
H1653 C1639 0.961 . S
H1654 C1639 0.961 . S
H1655 C1639 0.961 . S
H1656 C1640 0.931 . S
H1657 C1645 0.930 . S
H1658 C1646 0.956 . S
H1659 C1646 0.961 . S
H1660 C1646 0.961 . S
H1661 C1647 0.958 . S
H1662 C1647 0.961 . S
H1663 C1647 0.960 . S
C1664 C1665 1.391 . S
C1664 C1666 1.394 . S
C1664 H1680 0.931 . S
C1665 C1664 1.391 . S
C1665 C1669 1.376 . S
C1666 C1664 1.394 . S
C1666 C1667 1.369 . S
C1666 C1670 1.531 . S
C1667 C1666 1.369 . S
C1667 C1668 1.410 . S
C1667 C1675 1.503 . S
C1668 C1667 1.410 . S
C1668 C1669 1.392 . S
C1668 C1671 1.511 . S
C1669 C1665 1.376 . S
C1669 C1668 1.392 . S
C1669 H1681 0.929 . S
C1670 C1666 1.531 . S
C1670 H1682 0.960 . S
C1670 H1683 0.962 . S
C1670 H1684 0.960 . S
C1671 C1668 1.511 . S
C1671 H1685 0.961 . S
C1671 H1686 0.961 . S
C1671 H1687 0.961 . S
C1672 C1673 1.370 . S
C1672 C1674 1.363 . S
C1672 H1688 0.931 . S
C1673 C1672 1.370 . S
C1673 C1677 1.408 . S
C1674 C1672 1.363 . S
C1674 C1675 1.370 1_655 S
C1674 C1678 1.524 1_655 S
C1675 C1667 1.503 . S
C1675 C1674 1.370 1_455 S
C1675 C1676 1.403 1_455 S
C1676 C1675 1.403 1_655 S
C1676 C1677 1.404 . S
C1676 C1679 1.539 1_655 S
C1677 C1673 1.408 . S
C1677 C1676 1.404 . S
C1677 H1689 0.930 . S
C1678 C1674 1.524 1_455 S
C1678 H1690 0.956 . S
C1678 H1691 0.961 . S
C1678 H1692 0.961 . S
C1679 C1676 1.539 1_455 S
C1679 H1693 0.958 1_455 S
C1679 H1694 0.961 1_455 S
C1679 H1695 0.960 . S
H1680 C1664 0.931 . S
H1681 C1669 0.929 . S
H1682 C1670 0.960 . S
H1683 C1670 0.962 . S
H1684 C1670 0.960 . S
H1685 C1671 0.961 . S
H1686 C1671 0.961 . S
H1687 C1671 0.961 . S
H1688 C1672 0.931 . S
H1689 C1677 0.930 . S
H1690 C1678 0.956 . S
H1691 C1678 0.961 . S
H1692 C1678 0.961 . S
H1693 C1679 0.958 1_655 S
H1694 C1679 0.961 1_655 S
H1695 C1679 0.960 . S
C1696 C1697 1.391 . S
C1696 C1698 1.394 . S
C1696 H1712 0.931 . S
C1697 C1696 1.391 . S
C1697 C1701 1.376 . S
C1698 C1696 1.394 . S
C1698 C1699 1.369 . S
C1698 C1702 1.531 . S
C1699 C1698 1.369 . S
C1699 C1700 1.410 . S
C1699 C1707 1.503 . S
C1700 C1699 1.410 . S
C1700 C1701 1.392 . S
C1700 C1703 1.511 . S
C1701 C1697 1.376 . S
C1701 C1700 1.392 . S
C1701 H1713 0.929 . S
C1702 C1698 1.531 . S
C1702 H1714 0.960 . S
C1702 H1715 0.962 . S
C1702 H1716 0.960 . S
C1703 C1700 1.511 . S
C1703 H1717 0.961 . S
C1703 H1718 0.961 . S
C1703 H1719 0.961 . S
C1704 C1705 1.370 . S
C1704 C1706 1.363 . S
C1704 H1720 0.931 . S
C1705 C1704 1.370 . S
C1705 C1709 1.408 . S
C1706 C1704 1.363 . S
C1706 C1707 1.370 . S
C1706 C1710 1.524 . S
C1707 C1699 1.503 . S
C1707 C1706 1.370 . S
C1707 C1708 1.403 . S
C1708 C1707 1.403 . S
C1708 C1709 1.404 . S
C1708 C1711 1.539 . S
C1709 C1705 1.408 . S
C1709 C1708 1.404 . S
C1709 H1721 0.930 . S
C1710 C1706 1.524 . S
C1710 H1722 0.956 . S
C1710 H1723 0.961 . S
C1710 H1724 0.961 . S
C1711 C1708 1.539 . S
C1711 H1725 0.958 . S
C1711 H1726 0.961 . S
C1711 H1727 0.960 . S
H1712 C1696 0.931 . S
H1713 C1701 0.929 . S
H1714 C1702 0.960 . S
H1715 C1702 0.962 . S
H1716 C1702 0.960 . S
H1717 C1703 0.961 . S
H1718 C1703 0.961 . S
H1719 C1703 0.961 . S
H1720 C1704 0.931 . S
H1721 C1709 0.930 . S
H1722 C1710 0.956 . S
H1723 C1710 0.961 . S
H1724 C1710 0.961 . S
H1725 C1711 0.958 . S
H1726 C1711 0.961 . S
H1727 C1711 0.960 . S
C1728 C1729 1.391 . S
C1728 C1730 1.394 . S
C1728 H1744 0.931 . S
C1729 C1728 1.391 . S
C1729 C1733 1.376 . S
C1730 C1728 1.394 . S
C1730 C1731 1.369 . S
C1730 C1734 1.531 . S
C1731 C1730 1.369 . S
C1731 C1732 1.410 . S
C1731 C1739 1.503 . S
C1732 C1731 1.410 . S
C1732 C1733 1.392 . S
C1732 C1735 1.511 . S
C1733 C1729 1.376 . S
C1733 C1732 1.392 . S
C1733 H1745 0.929 . S
C1734 C1730 1.531 . S
C1734 H1746 0.960 . S
C1734 H1747 0.962 . S
C1734 H1748 0.960 . S
C1735 C1732 1.511 . S
C1735 H1749 0.961 . S
C1735 H1750 0.961 . S
C1735 H1751 0.961 . S
C1736 C1737 1.370 . S
C1736 C1738 1.363 . S
C1736 H1752 0.931 . S
C1737 C1736 1.370 . S
C1737 C1741 1.408 . S
C1738 C1736 1.363 . S
C1738 C1739 1.370 . S
C1738 C1742 1.524 . S
C1739 C1731 1.503 . S
C1739 C1738 1.370 . S
C1739 C1740 1.403 . S
C1740 C1739 1.403 . S
C1740 C1741 1.404 . S
C1740 C1743 1.539 . S
C1741 C1737 1.408 . S
C1741 C1740 1.404 . S
C1741 H1753 0.930 . S
C1742 C1738 1.524 . S
C1742 H1754 0.956 . S
C1742 H1755 0.961 . S
C1742 H1756 0.961 . S
C1743 C1740 1.539 . S
C1743 H1757 0.958 . S
C1743 H1758 0.961 . S
C1743 H1759 0.960 . S
H1744 C1728 0.931 . S
H1745 C1733 0.929 . S
H1746 C1734 0.960 . S
H1747 C1734 0.962 . S
H1748 C1734 0.960 . S
H1749 C1735 0.961 . S
H1750 C1735 0.961 . S
H1751 C1735 0.961 . S
H1752 C1736 0.931 . S
H1753 C1741 0.930 . S
H1754 C1742 0.956 . S
H1755 C1742 0.961 . S
H1756 C1742 0.961 . S
H1757 C1743 0.958 . S
H1758 C1743 0.961 . S
H1759 C1743 0.960 . S
C1760 C1761 1.391 . S
C1760 C1762 1.394 . S
C1760 H1776 0.931 . S
C1761 C1760 1.391 . S
C1761 C1765 1.376 . S
C1762 C1760 1.394 . S
C1762 C1763 1.369 . S
C1762 C1766 1.531 . S
C1763 C1762 1.369 . S
C1763 C1764 1.410 . S
C1763 C1771 1.503 . S
C1764 C1763 1.410 . S
C1764 C1765 1.392 . S
C1764 C1767 1.511 . S
C1765 C1761 1.376 . S
C1765 C1764 1.392 . S
C1765 H1777 0.929 . S
C1766 C1762 1.531 . S
C1766 H1778 0.960 . S
C1766 H1779 0.962 . S
C1766 H1780 0.960 . S
C1767 C1764 1.511 . S
C1767 H1781 0.961 . S
C1767 H1782 0.961 . S
C1767 H1783 0.961 . S
C1768 C1769 1.370 . S
C1768 C1770 1.363 . S
C1768 H1784 0.931 . S
C1769 C1768 1.370 . S
C1769 C1773 1.408 . S
C1770 C1768 1.363 . S
C1770 C1771 1.370 . S
C1770 C1774 1.524 . S
C1771 C1763 1.503 . S
C1771 C1770 1.370 . S
C1771 C1772 1.403 . S
C1772 C1771 1.403 . S
C1772 C1773 1.404 . S
C1772 C1775 1.539 . S
C1773 C1769 1.408 . S
C1773 C1772 1.404 . S
C1773 H1785 0.930 . S
C1774 C1770 1.524 . S
C1774 H1786 0.956 . S
C1774 H1787 0.961 . S
C1774 H1788 0.961 . S
C1775 C1772 1.539 . S
C1775 H1789 0.958 . S
C1775 H1790 0.961 . S
C1775 H1791 0.960 . S
H1776 C1760 0.931 . S
H1777 C1765 0.929 . S
H1778 C1766 0.960 . S
H1779 C1766 0.962 . S
H1780 C1766 0.960 . S
H1781 C1767 0.961 . S
H1782 C1767 0.961 . S
H1783 C1767 0.961 . S
H1784 C1768 0.931 . S
H1785 C1773 0.930 . S
H1786 C1774 0.956 . S
H1787 C1774 0.961 . S
H1788 C1774 0.961 . S
H1789 C1775 0.958 . S
H1790 C1775 0.961 . S
H1791 C1775 0.960 . S
C1792 C1793 1.391 . S
C1792 C1794 1.394 . S
C1792 H1808 0.931 . S
C1793 C1792 1.391 . S
C1793 C1797 1.376 . S
C1794 C1792 1.394 . S
C1794 C1795 1.369 . S
C1794 C1798 1.531 . S
C1795 C1794 1.369 . S
C1795 C1796 1.410 . S
C1795 C1803 1.503 . S
C1796 C1795 1.410 . S
C1796 C1797 1.392 . S
C1796 C1799 1.511 . S
C1797 C1793 1.376 . S
C1797 C1796 1.392 . S
C1797 H1809 0.929 . S
C1798 C1794 1.531 . S
C1798 H1810 0.960 . S
C1798 H1811 0.962 . S
C1798 H1812 0.960 . S
C1799 C1796 1.511 . S
C1799 H1813 0.961 . S
C1799 H1814 0.961 . S
C1799 H1815 0.961 . S
C1800 C1801 1.370 . S
C1800 C1802 1.363 1_554 S
C1800 H1816 0.931 . S
C1801 C1800 1.370 . S
C1801 C1805 1.408 . S
C1802 C1800 1.363 1_556 S
C1802 C1803 1.370 . S
C1802 C1806 1.524 . S
C1803 C1795 1.503 . S
C1803 C1802 1.370 . S
C1803 C1804 1.403 1_556 S
C1804 C1803 1.403 1_554 S
C1804 C1805 1.404 . S
C1804 C1807 1.539 . S
C1805 C1801 1.408 . S
C1805 C1804 1.404 . S
C1805 H1817 0.930 . S
C1806 C1802 1.524 . S
C1806 H1818 0.956 . S
C1806 H1819 0.961 . S
C1806 H1820 0.961 . S
C1807 C1804 1.539 . S
C1807 H1821 0.958 . S
C1807 H1822 0.961 . S
C1807 H1823 0.960 1_554 S
H1808 C1792 0.931 . S
H1809 C1797 0.929 . S
H1810 C1798 0.960 . S
H1811 C1798 0.962 . S
H1812 C1798 0.960 . S
H1813 C1799 0.961 . S
H1814 C1799 0.961 . S
H1815 C1799 0.961 . S
H1816 C1800 0.931 . S
H1817 C1805 0.930 . S
H1818 C1806 0.956 . S
H1819 C1806 0.961 . S
H1820 C1806 0.961 . S
H1821 C1807 0.958 . S
H1822 C1807 0.961 . S
H1823 C1807 0.960 1_556 S
C1824 C1825 1.391 . S
C1824 C1826 1.394 . S
C1824 H1840 0.931 . S
C1825 C1824 1.391 . S
C1825 C1829 1.376 . S
C1826 C1824 1.394 . S
C1826 C1827 1.369 . S
C1826 C1830 1.531 . S
C1827 C1826 1.369 . S
C1827 C1828 1.410 . S
C1827 C1835 1.503 . S
C1828 C1827 1.410 . S
C1828 C1829 1.392 . S
C1828 C1831 1.511 . S
C1829 C1825 1.376 . S
C1829 C1828 1.392 . S
C1829 H1841 0.929 . S
C1830 C1826 1.531 . S
C1830 H1842 0.960 . S
C1830 H1843 0.962 . S
C1830 H1844 0.960 . S
C1831 C1828 1.511 . S
C1831 H1845 0.961 . S
C1831 H1846 0.961 . S
C1831 H1847 0.961 . S
C1832 C1833 1.370 . S
C1832 C1834 1.363 . S
C1832 H1848 0.931 . S
C1833 C1832 1.370 . S
C1833 C1837 1.408 . S
C1834 C1832 1.363 . S
C1834 C1835 1.370 . S
C1834 C1838 1.524 . S
C1835 C1827 1.503 . S
C1835 C1834 1.370 . S
C1835 C1836 1.403 . S
C1836 C1835 1.403 . S
C1836 C1837 1.404 . S
C1836 C1839 1.539 . S
C1837 C1833 1.408 . S
C1837 C1836 1.404 . S
C1837 H1849 0.930 . S
C1838 C1834 1.524 . S
C1838 H1850 0.956 . S
C1838 H1851 0.961 . S
C1838 H1852 0.961 . S
C1839 C1836 1.539 . S
C1839 H1853 0.958 . S
C1839 H1854 0.961 . S
C1839 H1855 0.960 . S
H1840 C1824 0.931 . S
H1841 C1829 0.929 . S
H1842 C1830 0.960 . S
H1843 C1830 0.962 . S
H1844 C1830 0.960 . S
H1845 C1831 0.961 . S
H1846 C1831 0.961 . S
H1847 C1831 0.961 . S
H1848 C1832 0.931 . S
H1849 C1837 0.930 . S
H1850 C1838 0.956 . S
H1851 C1838 0.961 . S
H1852 C1838 0.961 . S
H1853 C1839 0.958 . S
H1854 C1839 0.961 . S
H1855 C1839 0.960 . S
C1856 C1857 1.391 . S
C1856 C1858 1.394 . S
C1856 H1872 0.931 . S
C1857 C1856 1.391 . S
C1857 C1861 1.376 . S
C1858 C1856 1.394 . S
C1858 C1859 1.369 . S
C1858 C1862 1.531 . S
C1859 C1858 1.369 . S
C1859 C1860 1.410 . S
C1859 C1867 1.503 . S
C1860 C1859 1.410 . S
C1860 C1861 1.392 . S
C1860 C1863 1.511 . S
C1861 C1857 1.376 . S
C1861 C1860 1.392 . S
C1861 H1873 0.929 . S
C1862 C1858 1.531 . S
C1862 H1874 0.960 . S
C1862 H1875 0.962 . S
C1862 H1876 0.960 . S
C1863 C1860 1.511 . S
C1863 H1877 0.961 . S
C1863 H1878 0.961 . S
C1863 H1879 0.961 . S
C1864 C1865 1.370 . S
C1864 C1866 1.363 . S
C1864 H1880 0.931 . S
C1865 C1864 1.370 . S
C1865 C1869 1.408 . S
C1866 C1864 1.363 . S
C1866 C1867 1.370 . S
C1866 C1870 1.524 . S
C1867 C1859 1.503 . S
C1867 C1866 1.370 . S
C1867 C1868 1.403 . S
C1868 C1867 1.403 . S
C1868 C1869 1.404 . S
C1868 C1871 1.539 . S
C1869 C1865 1.408 . S
C1869 C1868 1.404 . S
C1869 H1881 0.930 . S
C1870 C1866 1.524 . S
C1870 H1882 0.956 . S
C1870 H1883 0.961 . S
C1870 H1884 0.961 . S
C1871 C1868 1.539 . S
C1871 H1885 0.958 . S
C1871 H1886 0.961 . S
C1871 H1887 0.960 . S
H1872 C1856 0.931 . S
H1873 C1861 0.929 . S
H1874 C1862 0.960 . S
H1875 C1862 0.962 . S
H1876 C1862 0.960 . S
H1877 C1863 0.961 . S
H1878 C1863 0.961 . S
H1879 C1863 0.961 . S
H1880 C1864 0.931 . S
H1881 C1869 0.930 . S
H1882 C1870 0.956 . S
H1883 C1870 0.961 . S
H1884 C1870 0.961 . S
H1885 C1871 0.958 . S
H1886 C1871 0.961 . S
H1887 C1871 0.960 . S
C1888 C1889 1.391 . S
C1888 C1890 1.394 . S
C1888 H1904 0.931 . S
C1889 C1888 1.391 . S
C1889 C1893 1.376 . S
C1890 C1888 1.394 . S
C1890 C1891 1.369 . S
C1890 C1894 1.531 . S
C1891 C1890 1.369 . S
C1891 C1892 1.410 . S
C1891 C1899 1.503 . S
C1892 C1891 1.410 . S
C1892 C1893 1.392 . S
C1892 C1895 1.511 . S
C1893 C1889 1.376 . S
C1893 C1892 1.392 . S
C1893 H1905 0.929 . S
C1894 C1890 1.531 . S
C1894 H1906 0.960 . S
C1894 H1907 0.962 . S
C1894 H1908 0.960 . S
C1895 C1892 1.511 . S
C1895 H1909 0.961 . S
C1895 H1910 0.961 . S
C1895 H1911 0.961 . S
C1896 C1897 1.370 . S
C1896 C1898 1.363 . S
C1896 H1912 0.931 . S
C1897 C1896 1.370 . S
C1897 C1901 1.408 . S
C1898 C1896 1.363 . S
C1898 C1899 1.370 . S
C1898 C1902 1.524 . S
C1899 C1891 1.503 . S
C1899 C1898 1.370 . S
C1899 C1900 1.403 . S
C1900 C1899 1.403 . S
C1900 C1901 1.404 . S
C1900 C1903 1.539 . S
C1901 C1897 1.408 . S
C1901 C1900 1.404 . S
C1901 H1913 0.930 . S
C1902 C1898 1.524 . S
C1902 H1914 0.956 . S
C1902 H1915 0.961 . S
C1902 H1916 0.961 . S
C1903 C1900 1.539 . S
C1903 H1917 0.958 . S
C1903 H1918 0.961 . S
C1903 H1919 0.960 . S
H1904 C1888 0.931 . S
H1905 C1893 0.929 . S
H1906 C1894 0.960 . S
H1907 C1894 0.962 . S
H1908 C1894 0.960 . S
H1909 C1895 0.961 . S
H1910 C1895 0.961 . S
H1911 C1895 0.961 . S
H1912 C1896 0.931 . S
H1913 C1901 0.930 . S
H1914 C1902 0.956 . S
H1915 C1902 0.961 . S
H1916 C1902 0.961 . S
H1917 C1903 0.958 . S
H1918 C1903 0.961 . S
H1919 C1903 0.960 . S
C1920 C1921 1.391 . S
C1920 C1922 1.394 . S
C1920 H1936 0.931 . S
C1921 C1920 1.391 . S
C1921 C1925 1.376 . S
C1922 C1920 1.394 . S
C1922 C1923 1.369 1_556 S
C1922 C1926 1.524 1_556 S
C1923 C1922 1.369 1_554 S
C1923 C1924 1.425 . S
C1923 C1931 1.503 . S
C1924 C1923 1.425 . S
C1924 C1925 1.344 1_554 S
C1924 C1927 1.543 . S
C1925 C1921 1.376 . S
C1925 C1924 1.344 1_556 S
C1925 H1937 0.929 . S
C1926 C1922 1.524 1_554 S
C1926 H1938 0.979 . S
C1926 H1939 0.970 . S
C1926 H1940 0.942 1_554 S
C1927 C1924 1.543 . S
C1927 H1941 0.961 . S
C1927 H1942 0.961 . S
C1927 H1943 0.961 . S
C1928 C1929 1.370 . S
C1928 C1930 1.363 . S
C1928 H1944 0.931 . S
C1929 C1928 1.370 . S
C1929 C1933 1.408 . S
C1930 C1928 1.363 . S
C1930 C1931 1.370 . S
C1930 C1934 1.524 . S
C1931 C1923 1.503 . S
C1931 C1930 1.370 . S
C1931 C1932 1.403 . S
C1932 C1931 1.403 . S
C1932 C1933 1.404 . S
C1932 C1935 1.539 . S
C1933 C1929 1.408 . S
C1933 C1932 1.404 . S
C1933 H1945 0.930 . S
C1934 C1930 1.524 . S
C1934 H1946 0.956 . S
C1934 H1947 0.961 . S
C1934 H1948 0.961 . S
C1935 C1932 1.539 . S
C1935 H1949 0.958 . S
C1935 H1950 0.961 . S
C1935 H1951 0.960 . S
H1936 C1920 0.931 . S
H1937 C1925 0.929 . S
H1938 C1926 0.979 . S
H1939 C1926 0.970 . S
H1940 C1926 0.942 1_556 S
H1941 C1927 0.961 . S
H1942 C1927 0.961 . S
H1943 C1927 0.961 . S
H1944 C1928 0.931 . S
H1945 C1933 0.930 . S
H1946 C1934 0.956 . S
H1947 C1934 0.961 . S
H1948 C1934 0.961 . S
H1949 C1935 0.958 . S
H1950 C1935 0.961 . S
H1951 C1935 0.960 . S
C1952 C1953 1.391 . S
C1952 C1954 1.394 . S
C1952 H1968 0.931 . S
C1953 C1952 1.391 . S
C1953 C1957 1.376 . S
C1954 C1952 1.394 . S
C1954 C1955 1.369 . S
C1954 C1958 1.531 . S
C1955 C1954 1.369 . S
C1955 C1956 1.410 . S
C1955 C1963 1.503 . S
C1956 C1955 1.410 . S
C1956 C1957 1.392 . S
C1956 C1959 1.511 . S
C1957 C1953 1.376 . S
C1957 C1956 1.392 . S
C1957 H1969 0.929 . S
C1958 C1954 1.531 . S
C1958 H1970 0.960 . S
C1958 H1971 0.962 . S
C1958 H1972 0.960 . S
C1959 C1956 1.511 . S
C1959 H1973 0.961 . S
C1959 H1974 0.961 . S
C1959 H1975 0.961 . S
C1960 C1961 1.370 . S
C1960 C1962 1.363 . S
C1960 H1976 0.931 . S
C1961 C1960 1.370 . S
C1961 C1965 1.408 . S
C1962 C1960 1.363 . S
C1962 C1963 1.370 . S
C1962 C1966 1.524 . S
C1963 C1955 1.503 . S
C1963 C1962 1.370 . S
C1963 C1964 1.403 . S
C1964 C1963 1.403 . S
C1964 C1965 1.404 . S
C1964 C1967 1.539 . S
C1965 C1961 1.408 . S
C1965 C1964 1.404 . S
C1965 H1977 0.930 . S
C1966 C1962 1.524 . S
C1966 H1978 0.956 . S
C1966 H1979 0.961 . S
C1966 H1980 0.961 . S
C1967 C1964 1.539 . S
C1967 H1981 0.958 . S
C1967 H1982 0.961 . S
C1967 H1983 0.960 . S
H1968 C1952 0.931 . S
H1969 C1957 0.929 . S
H1970 C1958 0.960 . S
H1971 C1958 0.962 . S
H1972 C1958 0.960 . S
H1973 C1959 0.961 . S
H1974 C1959 0.961 . S
H1975 C1959 0.961 . S
H1976 C1960 0.931 . S
H1977 C1965 0.930 . S
H1978 C1966 0.956 . S
H1979 C1966 0.961 . S
H1980 C1966 0.961 . S
H1981 C1967 0.958 . S
H1982 C1967 0.961 . S
H1983 C1967 0.960 . S
C1984 C1985 1.391 . S
C1984 C1986 1.394 . S
C1984 H2000 0.931 . S
C1985 C1984 1.391 . S
C1985 C1989 1.376 . S
C1986 C1984 1.394 . S
C1986 C1987 1.369 . S
C1986 C1990 1.531 . S
C1987 C1986 1.369 . S
C1987 C1988 1.410 . S
C1987 C1995 1.503 . S
C1988 C1987 1.410 . S
C1988 C1989 1.392 . S
C1988 C1991 1.511 . S
C1989 C1985 1.376 . S
C1989 C1988 1.392 . S
C1989 H2001 0.929 . S
C1990 C1986 1.531 . S
C1990 H2002 0.960 . S
C1990 H2003 0.962 . S
C1990 H2004 0.960 . S
C1991 C1988 1.511 . S
C1991 H2005 0.961 . S
C1991 H2006 0.961 . S
C1991 H2007 0.961 . S
C1992 C1993 1.370 . S
C1992 C1994 1.363 . S
C1992 H2008 0.931 . S
C1993 C1992 1.370 . S
C1993 C1997 1.408 . S
C1994 C1992 1.363 . S
C1994 C1995 1.370 . S
C1994 C1998 1.524 . S
C1995 C1987 1.503 . S
C1995 C1994 1.370 . S
C1995 C1996 1.403 . S
C1996 C1995 1.403 . S
C1996 C1997 1.404 . S
C1996 C1999 1.539 . S
C1997 C1993 1.408 . S
C1997 C1996 1.404 . S
C1997 H2009 0.930 . S
C1998 C1994 1.524 . S
C1998 H2010 0.956 . S
C1998 H2011 0.961 . S
C1998 H2012 0.961 . S
C1999 C1996 1.539 . S
C1999 H2013 0.958 . S
C1999 H2014 0.961 . S
C1999 H2015 0.960 . S
H2000 C1984 0.931 . S
H2001 C1989 0.929 . S
H2002 C1990 0.960 . S
H2003 C1990 0.962 . S
H2004 C1990 0.960 . S
H2005 C1991 0.961 . S
H2006 C1991 0.961 . S
H2007 C1991 0.961 . S
H2008 C1992 0.931 . S
H2009 C1997 0.930 . S
H2010 C1998 0.956 . S
H2011 C1998 0.961 . S
H2012 C1998 0.961 . S
H2013 C1999 0.958 . S
H2014 C1999 0.961 . S
H2015 C1999 0.960 . S
C2016 C2017 1.391 . S
C2016 C2018 1.394 . S
C2016 H2032 0.931 . S
C2017 C2016 1.391 . S
C2017 C2021 1.376 . S
C2018 C2016 1.394 . S
C2018 C2019 1.369 . S
C2018 C2022 1.531 . S
C2019 C2018 1.369 . S
C2019 C2020 1.410 . S
C2019 C2027 1.503 . S
C2020 C2019 1.410 . S
C2020 C2021 1.392 . S
C2020 C2023 1.511 . S
C2021 C2017 1.376 . S
C2021 C2020 1.392 . S
C2021 H2033 0.929 . S
C2022 C2018 1.531 . S
C2022 H2034 0.960 . S
C2022 H2035 0.962 . S
C2022 H2036 0.960 . S
C2023 C2020 1.511 . S
C2023 H2037 0.961 . S
C2023 H2038 0.961 . S
C2023 H2039 0.961 . S
C2024 C2025 1.370 . S
C2024 C2026 1.363 . S
C2024 H2040 0.931 . S
C2025 C2024 1.370 . S
C2025 C2029 1.408 . S
C2026 C2024 1.363 . S
C2026 C2027 1.370 . S
C2026 C2030 1.524 . S
C2027 C2019 1.503 . S
C2027 C2026 1.370 . S
C2027 C2028 1.403 . S
C2028 C2027 1.403 . S
C2028 C2029 1.404 . S
C2028 C2031 1.539 . S
C2029 C2025 1.408 . S
C2029 C2028 1.404 . S
C2029 H2041 0.930 . S
C2030 C2026 1.524 . S
C2030 H2042 0.956 . S
C2030 H2043 0.961 . S
C2030 H2044 0.961 . S
C2031 C2028 1.539 . S
C2031 H2045 0.958 . S
C2031 H2046 0.961 . S
C2031 H2047 0.960 . S
H2032 C2016 0.931 . S
H2033 C2021 0.929 . S
H2034 C2022 0.960 . S
H2035 C2022 0.962 . S
H2036 C2022 0.960 . S
H2037 C2023 0.961 . S
H2038 C2023 0.961 . S
H2039 C2023 0.961 . S
H2040 C2024 0.931 . S
H2041 C2029 0.930 . S
H2042 C2030 0.956 . S
H2043 C2030 0.961 . S
H2044 C2030 0.961 . S
H2045 C2031 0.958 . S
H2046 C2031 0.961 . S
H2047 C2031 0.960 . S
C2048 C2049 1.391 . S
C2048 C2050 1.394 . S
C2048 H2064 0.931 . S
C2049 C2048 1.391 . S
C2049 C2053 1.376 . S
C2050 C2048 1.394 . S
C2050 C2051 1.369 . S
C2050 C2054 1.531 . S
C2051 C2050 1.369 . S
C2051 C2052 1.410 . S
C2051 C2059 1.503 . S
C2052 C2051 1.410 . S
C2052 C2053 1.392 . S
C2052 C2055 1.511 . S
C2053 C2049 1.376 . S
C2053 C2052 1.392 . S
C2053 H2065 0.929 . S
C2054 C2050 1.531 . S
C2054 H2066 0.960 . S
C2054 H2067 0.962 . S
C2054 H2068 0.960 . S
C2055 C2052 1.511 . S
C2055 H2069 0.961 . S
C2055 H2070 0.961 . S
C2055 H2071 0.961 . S
C2056 C2057 1.370 . S
C2056 C2058 1.363 . S
C2056 H2072 0.931 . S
C2057 C2056 1.370 . S
C2057 C2061 1.408 . S
C2058 C2056 1.363 . S
C2058 C2059 1.370 . S
C2058 C2062 1.524 . S
C2059 C2051 1.503 . S
C2059 C2058 1.370 . S
C2059 C2060 1.403 . S
C2060 C2059 1.403 . S
C2060 C2061 1.404 . S
C2060 C2063 1.539 . S
C2061 C2057 1.408 . S
C2061 C2060 1.404 . S
C2061 H2073 0.930 . S
C2062 C2058 1.524 . S
C2062 H2074 0.956 . S
C2062 H2075 0.961 . S
C2062 H2076 0.961 . S
C2063 C2060 1.539 . S
C2063 H2077 0.958 . S
C2063 H2078 0.961 . S
C2063 H2079 0.960 . S
H2064 C2048 0.931 . S
H2065 C2053 0.929 . S
H2066 C2054 0.960 . S
H2067 C2054 0.962 . S
H2068 C2054 0.960 . S
H2069 C2055 0.961 . S
H2070 C2055 0.961 . S
H2071 C2055 0.961 . S
H2072 C2056 0.931 . S
H2073 C2061 0.930 . S
H2074 C2062 0.956 . S
H2075 C2062 0.961 . S
H2076 C2062 0.961 . S
H2077 C2063 0.958 . S
H2078 C2063 0.961 . S
H2079 C2063 0.960 . S
C2080 C2081 1.391 . S
C2080 C2082 1.447 . S
C2080 H2096 0.931 . S
C2081 C2080 1.391 . S
C2081 C2085 1.376 . S
C2082 C2080 1.447 . S
C2082 C2083 1.349 1_565 S
C2082 C2086 1.499 1_565 S
C2083 C2082 1.349 1_545 S
C2083 C2084 1.410 1_545 S
C2083 C2091 1.503 . S
C2084 C2083 1.410 1_565 S
C2084 C2085 1.392 . S
C2084 C2087 1.511 1_565 S
C2085 C2081 1.376 . S
C2085 C2084 1.392 . S
C2085 H2097 0.929 . S
C2086 C2082 1.499 1_545 S
C2086 H2098 0.960 . S
C2086 H2099 0.962 . S
C2086 H2100 0.960 . S
C2087 C2084 1.511 1_545 S
C2087 H2101 0.961 1_545 S
C2087 H2102 0.961 . S
C2087 H2103 0.960 1_545 S
C2088 C2089 1.370 . S
C2088 C2090 1.363 . S
C2088 H2104 0.931 . S
C2089 C2088 1.370 . S
C2089 C2093 1.408 . S
C2090 C2088 1.363 . S
C2090 C2091 1.370 . S
C2090 C2094 1.524 . S
C2091 C2083 1.503 . S
C2091 C2090 1.370 . S
C2091 C2092 1.403 . S
C2092 C2091 1.403 . S
C2092 C2093 1.404 . S
C2092 C2095 1.539 . S
C2093 C2089 1.408 . S
C2093 C2092 1.404 . S
C2093 H2105 0.930 . S
C2094 C2090 1.524 . S
C2094 H2106 0.956 . S
C2094 H2107 0.961 . S
C2094 H2108 0.961 . S
C2095 C2092 1.539 . S
C2095 H2109 0.958 . S
C2095 H2110 0.961 . S
C2095 H2111 0.960 . S
H2096 C2080 0.931 . S
H2097 C2085 0.929 . S
H2098 C2086 0.960 . S
H2099 C2086 0.962 . S
H2100 C2086 0.960 . S
H2101 C2087 0.961 1_565 S
H2102 C2087 0.961 . S
H2103 C2087 0.960 1_565 S
H2104 C2088 0.931 . S
H2105 C2093 0.930 . S
H2106 C2094 0.956 . S
H2107 C2094 0.961 . S
H2108 C2094 0.961 . S
H2109 C2095 0.958 . S
H2110 C2095 0.961 . S
H2111 C2095 0.960 . S
C2112 C2113 1.391 . S
C2112 C2114 1.394 . S
C2112 H2128 0.931 . S
C2113 C2112 1.391 . S
C2113 C2117 1.376 . S
C2114 C2112 1.394 . S
C2114 C2115 1.369 . S
C2114 C2118 1.531 . S
C2115 C2114 1.369 . S
C2115 C2116 1.410 . S
C2115 C2123 1.503 . S
C2116 C2115 1.410 . S
C2116 C2117 1.392 . S
C2116 C2119 1.511 . S
C2117 C2113 1.376 . S
C2117 C2116 1.392 . S
C2117 H2129 0.929 . S
C2118 C2114 1.531 . S
C2118 H2130 0.960 . S
C2118 H2131 0.962 . S
C2118 H2132 0.960 . S
C2119 C2116 1.511 . S
C2119 H2133 0.961 . S
C2119 H2134 0.961 . S
C2119 H2135 0.961 . S
C2120 C2121 1.370 . S
C2120 C2122 1.363 . S
C2120 H2136 0.931 . S
C2121 C2120 1.370 . S
C2121 C2125 1.408 . S
C2122 C2120 1.363 . S
C2122 C2123 1.370 . S
C2122 C2126 1.524 . S
C2123 C2115 1.503 . S
C2123 C2122 1.370 . S
C2123 C2124 1.403 . S
C2124 C2123 1.403 . S
C2124 C2125 1.404 . S
C2124 C2127 1.539 . S
C2125 C2121 1.408 . S
C2125 C2124 1.404 . S
C2125 H2137 0.930 . S
C2126 C2122 1.524 . S
C2126 H2138 0.956 . S
C2126 H2139 0.961 . S
C2126 H2140 0.961 . S
C2127 C2124 1.539 . S
C2127 H2141 0.958 . S
C2127 H2142 0.961 . S
C2127 H2143 0.960 . S
H2128 C2112 0.931 . S
H2129 C2117 0.929 . S
H2130 C2118 0.960 . S
H2131 C2118 0.962 . S
H2132 C2118 0.960 . S
H2133 C2119 0.961 . S
H2134 C2119 0.961 . S
H2135 C2119 0.961 . S
H2136 C2120 0.931 . S
H2137 C2125 0.930 . S
H2138 C2126 0.956 . S
H2139 C2126 0.961 . S
H2140 C2126 0.961 . S
H2141 C2127 0.958 . S
H2142 C2127 0.961 . S
H2143 C2127 0.960 . S
C2144 C2145 1.391 . S
C2144 C2146 1.394 . S
C2144 H2160 0.931 . S
C2145 C2144 1.391 . S
C2145 C2149 1.376 . S
C2146 C2144 1.394 . S
C2146 C2147 1.369 . S
C2146 C2150 1.531 . S
C2147 C2146 1.369 . S
C2147 C2148 1.410 . S
C2147 C2155 1.503 . S
C2148 C2147 1.410 . S
C2148 C2149 1.392 . S
C2148 C2151 1.511 . S
C2149 C2145 1.376 . S
C2149 C2148 1.392 . S
C2149 H2161 0.929 . S
C2150 C2146 1.531 . S
C2150 H2162 0.960 . S
C2150 H2163 0.962 . S
C2150 H2164 0.960 . S
C2151 C2148 1.511 . S
C2151 H2165 0.961 . S
C2151 H2166 0.961 . S
C2151 H2167 0.961 . S
C2152 C2153 1.370 . S
C2152 C2154 1.363 . S
C2152 H2168 0.931 . S
C2153 C2152 1.370 . S
C2153 C2157 1.408 . S
C2154 C2152 1.363 . S
C2154 C2155 1.370 . S
C2154 C2158 1.524 . S
C2155 C2147 1.503 . S
C2155 C2154 1.370 . S
C2155 C2156 1.403 . S
C2156 C2155 1.403 . S
C2156 C2157 1.404 . S
C2156 C2159 1.539 . S
C2157 C2153 1.408 . S
C2157 C2156 1.404 . S
C2157 H2169 0.930 . S
C2158 C2154 1.524 . S
C2158 H2170 0.956 . S
C2158 H2171 0.961 . S
C2158 H2172 0.961 . S
C2159 C2156 1.539 . S
C2159 H2173 0.958 . S
C2159 H2174 0.961 . S
C2159 H2175 0.960 . S
H2160 C2144 0.931 . S
H2161 C2149 0.929 . S
H2162 C2150 0.960 . S
H2163 C2150 0.962 . S
H2164 C2150 0.960 . S
H2165 C2151 0.961 . S
H2166 C2151 0.961 . S
H2167 C2151 0.961 . S
H2168 C2152 0.931 . S
H2169 C2157 0.930 . S
H2170 C2158 0.956 . S
H2171 C2158 0.961 . S
H2172 C2158 0.961 . S
H2173 C2159 0.958 . S
H2174 C2159 0.961 . S
H2175 C2159 0.960 . S
C2176 C2177 1.391 . S
C2176 C2178 1.394 . S
C2176 H2192 0.931 . S
C2177 C2176 1.391 . S
C2177 C2181 1.376 . S
C2178 C2176 1.394 . S
C2178 C2179 1.369 . S
C2178 C2182 1.531 . S
C2179 C2178 1.369 . S
C2179 C2180 1.410 . S
C2179 C2187 1.503 . S
C2180 C2179 1.410 . S
C2180 C2181 1.392 . S
C2180 C2183 1.511 . S
C2181 C2177 1.376 . S
C2181 C2180 1.392 . S
C2181 H2193 0.929 . S
C2182 C2178 1.531 . S
C2182 H2194 0.960 . S
C2182 H2195 0.962 . S
C2182 H2196 0.960 . S
C2183 C2180 1.511 . S
C2183 H2197 0.961 . S
C2183 H2198 0.961 . S
C2183 H2199 0.961 . S
C2184 C2185 1.370 . S
C2184 C2186 1.363 . S
C2184 H2200 0.931 . S
C2185 C2184 1.370 . S
C2185 C2189 1.408 . S
C2186 C2184 1.363 . S
C2186 C2187 1.370 . S
C2186 C2190 1.524 . S
C2187 C2179 1.503 . S
C2187 C2186 1.370 . S
C2187 C2188 1.403 . S
C2188 C2187 1.403 . S
C2188 C2189 1.404 . S
C2188 C2191 1.539 . S
C2189 C2185 1.408 . S
C2189 C2188 1.404 . S
C2189 H2201 0.930 . S
C2190 C2186 1.524 . S
C2190 H2202 0.956 . S
C2190 H2203 0.961 . S
C2190 H2204 0.961 . S
C2191 C2188 1.539 . S
C2191 H2205 0.958 . S
C2191 H2206 0.961 . S
C2191 H2207 0.960 . S
H2192 C2176 0.931 . S
H2193 C2181 0.929 . S
H2194 C2182 0.960 . S
H2195 C2182 0.962 . S
H2196 C2182 0.960 . S
H2197 C2183 0.961 . S
H2198 C2183 0.961 . S
H2199 C2183 0.961 . S
H2200 C2184 0.931 . S
H2201 C2189 0.930 . S
H2202 C2190 0.956 . S
H2203 C2190 0.961 . S
H2204 C2190 0.961 . S
H2205 C2191 0.958 . S
H2206 C2191 0.961 . S
H2207 C2191 0.960 . S
C2208 C2209 1.391 . S
C2208 C2210 1.394 . S
C2208 H2224 0.931 . S
C2209 C2208 1.391 . S
C2209 C2213 1.376 . S
C2210 C2208 1.394 . S
C2210 C2211 1.369 . S
C2210 C2214 1.531 . S
C2211 C2210 1.369 . S
C2211 C2212 1.410 . S
C2211 C2219 1.503 . S
C2212 C2211 1.410 . S
C2212 C2213 1.392 . S
C2212 C2215 1.511 . S
C2213 C2209 1.376 . S
C2213 C2212 1.392 . S
C2213 H2225 0.929 . S
C2214 C2210 1.531 . S
C2214 H2226 0.960 . S
C2214 H2227 0.962 . S
C2214 H2228 0.960 . S
C2215 C2212 1.511 . S
C2215 H2229 0.961 . S
C2215 H2230 0.961 . S
C2215 H2231 0.961 . S
C2216 C2217 1.370 . S
C2216 C2218 1.363 . S
C2216 H2232 0.931 . S
C2217 C2216 1.370 . S
C2217 C2221 1.408 . S
C2218 C2216 1.363 . S
C2218 C2219 1.370 . S
C2218 C2222 1.524 . S
C2219 C2211 1.503 . S
C2219 C2218 1.370 . S
C2219 C2220 1.403 . S
C2220 C2219 1.403 . S
C2220 C2221 1.404 . S
C2220 C2223 1.539 . S
C2221 C2217 1.408 . S
C2221 C2220 1.404 . S
C2221 H2233 0.930 . S
C2222 C2218 1.524 . S
C2222 H2234 0.956 . S
C2222 H2235 0.961 . S
C2222 H2236 0.961 . S
C2223 C2220 1.539 . S
C2223 H2237 0.958 . S
C2223 H2238 0.961 . S
C2223 H2239 0.960 . S
H2224 C2208 0.931 . S
H2225 C2213 0.929 . S
H2226 C2214 0.960 . S
H2227 C2214 0.962 . S
H2228 C2214 0.960 . S
H2229 C2215 0.961 . S
H2230 C2215 0.961 . S
H2231 C2215 0.961 . S
H2232 C2216 0.931 . S
H2233 C2221 0.930 . S
H2234 C2222 0.956 . S
H2235 C2222 0.961 . S
H2236 C2222 0.961 . S
H2237 C2223 0.958 . S
H2238 C2223 0.961 . S
H2239 C2223 0.960 . S
C2240 C2241 1.391 . S
C2240 C2242 1.394 . S
C2240 H2256 0.931 . S
C2241 C2240 1.391 . S
C2241 C2245 1.376 . S
C2242 C2240 1.394 . S
C2242 C2243 1.369 . S
C2242 C2246 1.531 . S
C2243 C2242 1.369 . S
C2243 C2244 1.410 . S
C2243 C2251 1.503 . S
C2244 C2243 1.410 . S
C2244 C2245 1.392 . S
C2244 C2247 1.511 . S
C2245 C2241 1.376 . S
C2245 C2244 1.392 . S
C2245 H2257 0.929 . S
C2246 C2242 1.531 . S
C2246 H2258 0.960 . S
C2246 H2259 0.962 . S
C2246 H2260 0.960 . S
C2247 C2244 1.511 . S
C2247 H2261 0.961 . S
C2247 H2262 0.961 . S
C2247 H2263 0.961 . S
C2248 C2249 1.370 . S
C2248 C2250 1.363 . S
C2248 H2264 0.931 . S
C2249 C2248 1.370 . S
C2249 C2253 1.408 . S
C2250 C2248 1.363 . S
C2250 C2251 1.370 . S
C2250 C2254 1.524 . S
C2251 C2243 1.503 . S
C2251 C2250 1.370 . S
C2251 C2252 1.403 . S
C2252 C2251 1.403 . S
C2252 C2253 1.404 . S
C2252 C2255 1.539 . S
C2253 C2249 1.408 . S
C2253 C2252 1.404 . S
C2253 H2265 0.930 . S
C2254 C2250 1.524 . S
C2254 H2266 0.956 . S
C2254 H2267 0.961 . S
C2254 H2268 0.961 . S
C2255 C2252 1.539 . S
C2255 H2269 0.958 . S
C2255 H2270 0.961 . S
C2255 H2271 0.960 . S
H2256 C2240 0.931 . S
H2257 C2245 0.929 . S
H2258 C2246 0.960 . S
H2259 C2246 0.962 . S
H2260 C2246 0.960 . S
H2261 C2247 0.961 . S
H2262 C2247 0.961 . S
H2263 C2247 0.961 . S
H2264 C2248 0.931 . S
H2265 C2253 0.930 . S
H2266 C2254 0.956 . S
H2267 C2254 0.961 . S
H2268 C2254 0.961 . S
H2269 C2255 0.958 . S
H2270 C2255 0.961 . S
H2271 C2255 0.960 . S
C2272 C2273 1.391 . S
C2272 C2274 1.394 . S
C2272 H2288 0.931 . S
C2273 C2272 1.391 . S
C2273 C2277 1.376 . S
C2274 C2272 1.394 . S
C2274 C2275 1.369 . S
C2274 C2278 1.531 . S
C2275 C2274 1.369 . S
C2275 C2276 1.410 . S
C2275 C2283 1.503 . S
C2276 C2275 1.410 . S
C2276 C2277 1.392 . S
C2276 C2279 1.511 . S
C2277 C2273 1.376 . S
C2277 C2276 1.392 . S
C2277 H2289 0.929 . S
C2278 C2274 1.531 . S
C2278 H2290 0.960 . S
C2278 H2291 0.962 . S
C2278 H2292 0.960 . S
C2279 C2276 1.511 . S
C2279 H2293 0.961 . S
C2279 H2294 0.961 . S
C2279 H2295 0.961 . S
C2280 C2281 1.370 . S
C2280 C2282 1.363 . S
C2280 H2296 0.931 . S
C2281 C2280 1.370 . S
C2281 C2285 1.408 . S
C2282 C2280 1.363 . S
C2282 C2283 1.370 . S
C2282 C2286 1.524 . S
C2283 C2275 1.503 . S
C2283 C2282 1.370 . S
C2283 C2284 1.403 . S
C2284 C2283 1.403 . S
C2284 C2285 1.404 . S
C2284 C2287 1.539 . S
C2285 C2281 1.408 . S
C2285 C2284 1.404 . S
C2285 H2297 0.930 . S
C2286 C2282 1.524 . S
C2286 H2298 0.956 . S
C2286 H2299 0.961 . S
C2286 H2300 0.961 . S
C2287 C2284 1.539 . S
C2287 H2301 0.958 . S
C2287 H2302 0.961 . S
C2287 H2303 0.960 . S
H2288 C2272 0.931 . S
H2289 C2277 0.929 . S
H2290 C2278 0.960 . S
H2291 C2278 0.962 . S
H2292 C2278 0.960 . S
H2293 C2279 0.961 . S
H2294 C2279 0.961 . S
H2295 C2279 0.961 . S
H2296 C2280 0.931 . S
H2297 C2285 0.930 . S
H2298 C2286 0.956 . S
H2299 C2286 0.961 . S
H2300 C2286 0.961 . S
H2301 C2287 0.958 . S
H2302 C2287 0.961 . S
H2303 C2287 0.960 . S
C2304 C2305 1.391 . S
C2304 C2306 1.394 . S
C2304 H2320 0.931 . S
C2305 C2304 1.391 . S
C2305 C2309 1.376 . S
C2306 C2304 1.394 . S
C2306 C2307 1.369 1_655 S
C2306 C2310 1.531 1_655 S
C2307 C2306 1.369 1_455 S
C2307 C2308 1.410 . S
C2307 C2315 1.503 . S
C2308 C2307 1.410 . S
C2308 C2309 1.392 1_455 S
C2308 C2311 1.511 . S
C2309 C2305 1.376 . S
C2309 C2308 1.392 1_655 S
C2309 H2321 0.929 . S
C2310 C2306 1.531 1_455 S
C2310 H2322 0.960 . S
C2310 H2323 0.962 . S
C2310 H2324 0.960 1_455 S
C2311 C2308 1.511 . S
C2311 H2325 0.961 . S
C2311 H2326 0.961 . S
C2311 H2327 0.961 . S
C2312 C2313 1.370 . S
C2312 C2314 1.363 . S
C2312 H2328 0.931 . S
C2313 C2312 1.370 . S
C2313 C2317 1.408 . S
C2314 C2312 1.363 . S
C2314 C2315 1.370 . S
C2314 C2318 1.524 . S
C2315 C2307 1.503 . S
C2315 C2314 1.370 . S
C2315 C2316 1.403 . S
C2316 C2315 1.403 . S
C2316 C2317 1.404 . S
C2316 C2319 1.539 . S
C2317 C2313 1.408 . S
C2317 C2316 1.404 . S
C2317 H2329 0.930 . S
C2318 C2314 1.524 . S
C2318 H2330 0.956 . S
C2318 H2331 0.961 . S
C2318 H2332 0.961 . S
C2319 C2316 1.539 . S
C2319 H2333 0.958 . S
C2319 H2334 0.961 . S
C2319 H2335 0.960 . S
H2320 C2304 0.931 . S
H2321 C2309 0.929 . S
H2322 C2310 0.960 . S
H2323 C2310 0.962 . S
H2324 C2310 0.960 1_655 S
H2325 C2311 0.961 . S
H2326 C2311 0.961 . S
H2327 C2311 0.961 . S
H2328 C2312 0.931 . S
H2329 C2317 0.930 . S
H2330 C2318 0.956 . S
H2331 C2318 0.961 . S
H2332 C2318 0.961 . S
H2333 C2319 0.958 . S
H2334 C2319 0.961 . S
H2335 C2319 0.960 . S
C2336 C2337 1.391 . S
C2336 C2338 1.394 . S
C2336 H2352 0.931 . S
C2337 C2336 1.391 . S
C2337 C2341 1.376 . S
C2338 C2336 1.394 . S
C2338 C2339 1.369 . S
C2338 C2342 1.531 . S
C2339 C2338 1.369 . S
C2339 C2340 1.410 . S
C2339 C2347 1.503 . S
C2340 C2339 1.410 . S
C2340 C2341 1.392 . S
C2340 C2343 1.511 . S
C2341 C2337 1.376 . S
C2341 C2340 1.392 . S
C2341 H2353 0.929 . S
C2342 C2338 1.531 . S
C2342 H2354 0.960 . S
C2342 H2355 0.962 . S
C2342 H2356 0.960 . S
C2343 C2340 1.511 . S
C2343 H2357 0.961 . S
C2343 H2358 0.961 . S
C2343 H2359 0.961 . S
C2344 C2345 1.370 . S
C2344 C2346 1.363 . S
C2344 H2360 0.931 . S
C2345 C2344 1.370 . S
C2345 C2349 1.408 . S
C2346 C2344 1.363 . S
C2346 C2347 1.370 . S
C2346 C2350 1.524 . S
C2347 C2339 1.503 . S
C2347 C2346 1.370 . S
C2347 C2348 1.403 . S
C2348 C2347 1.403 . S
C2348 C2349 1.404 . S
C2348 C2351 1.539 . S
C2349 C2345 1.408 . S
C2349 C2348 1.404 . S
C2349 H2361 0.930 . S
C2350 C2346 1.524 . S
C2350 H2362 0.956 . S
C2350 H2363 0.961 . S
C2350 H2364 0.961 . S
C2351 C2348 1.539 . S
C2351 H2365 0.958 . S
C2351 H2366 0.961 . S
C2351 H2367 0.960 . S
H2352 C2336 0.931 . S
H2353 C2341 0.929 . S
H2354 C2342 0.960 . S
H2355 C2342 0.962 . S
H2356 C2342 0.960 . S
H2357 C2343 0.961 . S
H2358 C2343 0.961 . S
H2359 C2343 0.961 . S
H2360 C2344 0.931 . S
H2361 C2349 0.930 . S
H2362 C2350 0.956 . S
H2363 C2350 0.961 . S
H2364 C2350 0.961 . S
H2365 C2351 0.958 . S
H2366 C2351 0.961 . S
H2367 C2351 0.960 . S
C2368 C2369 1.391 . S
C2368 C2370 1.394 . S
C2368 H2384 0.931 . S
C2369 C2368 1.391 . S
C2369 C2373 1.376 . S
C2370 C2368 1.394 . S
C2370 C2371 1.369 . S
C2370 C2374 1.531 . S
C2371 C2370 1.369 . S
C2371 C2372 1.410 . S
C2371 C2379 1.503 . S
C2372 C2371 1.410 . S
C2372 C2373 1.392 . S
C2372 C2375 1.511 . S
C2373 C2369 1.376 . S
C2373 C2372 1.392 . S
C2373 H2385 0.929 . S
C2374 C2370 1.531 . S
C2374 H2386 0.960 . S
C2374 H2387 0.962 . S
C2374 H2388 0.960 . S
C2375 C2372 1.511 . S
C2375 H2389 0.961 . S
C2375 H2390 0.961 . S
C2375 H2391 0.961 . S
C2376 C2377 1.370 . S
C2376 C2378 1.363 1_655 S
C2376 H2392 0.931 . S
C2377 C2376 1.370 . S
C2377 C2381 1.408 . S
C2378 C2376 1.363 1_455 S
C2378 C2379 1.370 . S
C2378 C2382 1.524 . S
C2379 C2371 1.503 . S
C2379 C2378 1.370 . S
C2379 C2380 1.403 1_455 S
C2380 C2379 1.403 1_655 S
C2380 C2381 1.404 . S
C2380 C2383 1.539 . S
C2381 C2377 1.408 . S
C2381 C2380 1.404 . S
C2381 H2393 0.930 . S
C2382 C2378 1.524 . S
C2382 H2394 0.956 . S
C2382 H2395 0.961 . S
C2382 H2396 0.961 . S
C2383 C2380 1.539 . S
C2383 H2397 0.961 . S
C2383 H2398 0.961 . S
C2383 H2399 0.960 1_655 S
H2384 C2368 0.931 . S
H2385 C2373 0.929 . S
H2386 C2374 0.960 . S
H2387 C2374 0.962 . S
H2388 C2374 0.960 . S
H2389 C2375 0.961 . S
H2390 C2375 0.961 . S
H2391 C2375 0.961 . S
H2392 C2376 0.931 . S
H2393 C2381 0.930 . S
H2394 C2382 0.956 . S
H2395 C2382 0.961 . S
H2396 C2382 0.961 . S
H2397 C2383 0.961 . S
H2398 C2383 0.961 . S
H2399 C2383 0.960 1_455 S
C2400 C2401 1.391 . S
C2400 C2402 1.394 . S
C2400 H2416 0.931 . S
C2401 C2400 1.391 . S
C2401 C2405 1.376 . S
C2402 C2400 1.394 . S
C2402 C2403 1.369 . S
C2402 C2406 1.531 . S
C2403 C2402 1.369 . S
C2403 C2404 1.410 . S
C2403 C2411 1.503 . S
C2404 C2403 1.410 . S
C2404 C2405 1.392 . S
C2404 C2407 1.511 . S
C2405 C2401 1.376 . S
C2405 C2404 1.392 . S
C2405 H2417 0.929 . S
C2406 C2402 1.531 . S
C2406 H2418 0.960 . S
C2406 H2419 0.962 . S
C2406 H2420 0.960 . S
C2407 C2404 1.511 . S
C2407 H2421 0.961 . S
C2407 H2422 0.961 . S
C2407 H2423 0.961 . S
C2408 C2409 1.370 . S
C2408 C2410 1.363 . S
C2408 H2424 0.931 . S
C2409 C2408 1.370 . S
C2409 C2413 1.408 . S
C2410 C2408 1.363 . S
C2410 C2411 1.370 . S
C2410 C2414 1.524 . S
C2411 C2403 1.503 . S
C2411 C2410 1.370 . S
C2411 C2412 1.403 . S
C2412 C2411 1.403 . S
C2412 C2413 1.404 . S
C2412 C2415 1.539 . S
C2413 C2409 1.408 . S
C2413 C2412 1.404 . S
C2413 H2425 0.930 . S
C2414 C2410 1.524 . S
C2414 H2426 0.956 . S
C2414 H2427 0.961 . S
C2414 H2428 0.961 . S
C2415 C2412 1.539 . S
C2415 H2429 0.958 . S
C2415 H2430 0.961 . S
C2415 H2431 0.960 . S
H2416 C2400 0.931 . S
H2417 C2405 0.929 . S
H2418 C2406 0.960 . S
H2419 C2406 0.962 . S
H2420 C2406 0.960 . S
H2421 C2407 0.961 . S
H2422 C2407 0.961 . S
H2423 C2407 0.961 . S
H2424 C2408 0.931 . S
H2425 C2413 0.930 . S
H2426 C2414 0.956 . S
H2427 C2414 0.961 . S
H2428 C2414 0.961 . S
H2429 C2415 0.958 . S
H2430 C2415 0.961 . S
H2431 C2415 0.960 . S
C2432 C2433 1.391 . S
C2432 C2434 1.394 . S
C2432 H2448 0.931 . S
C2433 C2432 1.391 . S
C2433 C2437 1.376 . S
C2434 C2432 1.394 . S
C2434 C2435 1.369 . S
C2434 C2438 1.531 . S
C2435 C2434 1.369 . S
C2435 C2436 1.410 . S
C2435 C2443 1.503 . S
C2436 C2435 1.410 . S
C2436 C2437 1.392 . S
C2436 C2439 1.511 . S
C2437 C2433 1.376 . S
C2437 C2436 1.392 . S
C2437 H2449 0.929 . S
C2438 C2434 1.531 . S
C2438 H2450 0.960 . S
C2438 H2451 0.962 . S
C2438 H2452 0.960 . S
C2439 C2436 1.511 . S
C2439 H2453 0.961 . S
C2439 H2454 0.961 . S
C2439 H2455 0.961 . S
C2440 C2441 1.370 . S
C2440 C2442 1.363 . S
C2440 H2456 0.931 . S
C2441 C2440 1.370 . S
C2441 C2445 1.408 . S
C2442 C2440 1.363 . S
C2442 C2443 1.370 . S
C2442 C2446 1.524 . S
C2443 C2435 1.503 . S
C2443 C2442 1.370 . S
C2443 C2444 1.403 . S
C2444 C2443 1.403 . S
C2444 C2445 1.404 . S
C2444 C2447 1.539 . S
C2445 C2441 1.408 . S
C2445 C2444 1.404 . S
C2445 H2457 0.930 . S
C2446 C2442 1.524 . S
C2446 H2458 0.956 . S
C2446 H2459 0.961 . S
C2446 H2460 0.961 . S
C2447 C2444 1.539 . S
C2447 H2461 0.958 . S
C2447 H2462 0.961 . S
C2447 H2463 0.960 . S
H2448 C2432 0.931 . S
H2449 C2437 0.929 . S
H2450 C2438 0.960 . S
H2451 C2438 0.962 . S
H2452 C2438 0.960 . S
H2453 C2439 0.961 . S
H2454 C2439 0.961 . S
H2455 C2439 0.961 . S
H2456 C2440 0.931 . S
H2457 C2445 0.930 . S
H2458 C2446 0.956 . S
H2459 C2446 0.961 . S
H2460 C2446 0.961 . S
H2461 C2447 0.958 . S
H2462 C2447 0.961 . S
H2463 C2447 0.960 . S
C2464 C2465 1.391 . S
C2464 C2466 1.394 . S
C2464 H2480 0.931 . S
C2465 C2464 1.391 . S
C2465 C2469 1.376 . S
C2466 C2464 1.394 . S
C2466 C2467 1.369 . S
C2466 C2470 1.531 . S
C2467 C2466 1.369 . S
C2467 C2468 1.410 . S
C2467 C2475 1.503 . S
C2468 C2467 1.410 . S
C2468 C2469 1.392 . S
C2468 C2471 1.511 . S
C2469 C2465 1.376 . S
C2469 C2468 1.392 . S
C2469 H2481 0.929 . S
C2470 C2466 1.531 . S
C2470 H2482 0.960 . S
C2470 H2483 0.962 . S
C2470 H2484 0.960 . S
C2471 C2468 1.511 . S
C2471 H2485 0.961 . S
C2471 H2486 0.961 . S
C2471 H2487 0.961 . S
C2472 C2473 1.370 . S
C2472 C2474 1.363 . S
C2472 H2488 0.931 . S
C2473 C2472 1.370 . S
C2473 C2477 1.408 . S
C2474 C2472 1.363 . S
C2474 C2475 1.370 . S
C2474 C2478 1.524 . S
C2475 C2467 1.503 . S
C2475 C2474 1.370 . S
C2475 C2476 1.403 . S
C2476 C2475 1.403 . S
C2476 C2477 1.404 . S
C2476 C2479 1.539 . S
C2477 C2473 1.408 . S
C2477 C2476 1.404 . S
C2477 H2489 0.930 . S
C2478 C2474 1.524 . S
C2478 H2490 0.956 . S
C2478 H2491 0.961 . S
C2478 H2492 0.961 . S
C2479 C2476 1.539 . S
C2479 H2493 0.958 . S
C2479 H2494 0.961 . S
C2479 H2495 0.960 . S
H2480 C2464 0.931 . S
H2481 C2469 0.929 . S
H2482 C2470 0.960 . S
H2483 C2470 0.962 . S
H2484 C2470 0.960 . S
H2485 C2471 0.961 . S
H2486 C2471 0.961 . S
H2487 C2471 0.961 . S
H2488 C2472 0.931 . S
H2489 C2477 0.930 . S
H2490 C2478 0.956 . S
H2491 C2478 0.961 . S
H2492 C2478 0.961 . S
H2493 C2479 0.958 . S
H2494 C2479 0.961 . S
H2495 C2479 0.960 . S
C2496 C2497 1.391 . S
C2496 C2498 1.394 . S
C2496 H2512 0.931 . S
C2497 C2496 1.391 . S
C2497 C2501 1.376 . S
C2498 C2496 1.394 . S
C2498 C2499 1.369 . S
C2498 C2502 1.531 . S
C2499 C2498 1.369 . S
C2499 C2500 1.410 . S
C2499 C2507 1.503 . S
C2500 C2499 1.410 . S
C2500 C2501 1.392 . S
C2500 C2503 1.511 . S
C2501 C2497 1.376 . S
C2501 C2500 1.392 . S
C2501 H2513 0.929 . S
C2502 C2498 1.531 . S
C2502 H2514 0.960 . S
C2502 H2515 0.962 . S
C2502 H2516 0.960 . S
C2503 C2500 1.511 . S
C2503 H2517 0.961 . S
C2503 H2518 0.961 . S
C2503 H2519 0.961 . S
C2504 C2505 1.370 . S
C2504 C2506 1.363 . S
C2504 H2520 0.931 . S
C2505 C2504 1.370 . S
C2505 C2509 1.408 . S
C2506 C2504 1.363 . S
C2506 C2507 1.370 1_556 S
C2506 C2510 1.524 1_556 S
C2507 C2499 1.503 . S
C2507 C2506 1.370 1_554 S
C2507 C2508 1.403 1_554 S
C2508 C2507 1.403 1_556 S
C2508 C2509 1.404 . S
C2508 C2511 1.539 1_556 S
C2509 C2505 1.408 . S
C2509 C2508 1.404 . S
C2509 H2521 0.930 . S
C2510 C2506 1.524 1_554 S
C2510 H2522 0.956 . S
C2510 H2523 0.961 . S
C2510 H2524 0.961 1_554 S
C2511 C2508 1.539 1_554 S
C2511 H2525 0.958 . S
C2511 H2526 0.995 . S
C2511 H2527 0.960 . S
H2512 C2496 0.931 . S
H2513 C2501 0.929 . S
H2514 C2502 0.960 . S
H2515 C2502 0.962 . S
H2516 C2502 0.960 . S
H2517 C2503 0.961 . S
H2518 C2503 0.961 . S
H2519 C2503 0.961 . S
H2520 C2504 0.931 . S
H2521 C2509 0.930 . S
H2522 C2510 0.956 . S
H2523 C2510 0.961 . S
H2524 C2510 0.961 1_556 S
H2525 C2511 0.958 . S
H2526 C2511 0.995 . S
H2527 C2511 0.960 . S
C2528 C2529 1.391 . S
C2528 C2530 1.394 . S
C2528 H2544 0.931 . S
C2529 C2528 1.391 . S
C2529 C2533 1.376 . S
C2530 C2528 1.394 . S
C2530 C2531 1.369 . S
C2530 C2534 1.531 . S
C2531 C2530 1.369 . S
C2531 C2532 1.410 . S
C2531 C2539 1.503 . S
C2532 C2531 1.410 . S
C2532 C2533 1.392 . S
C2532 C2535 1.511 . S
C2533 C2529 1.376 . S
C2533 C2532 1.392 . S
C2533 H2545 0.929 . S
C2534 C2530 1.531 . S
C2534 H2546 0.960 . S
C2534 H2547 0.962 . S
C2534 H2548 0.960 . S
C2535 C2532 1.511 . S
C2535 H2549 0.961 . S
C2535 H2550 0.961 . S
C2535 H2551 0.961 . S
C2536 C2537 1.370 . S
C2536 C2538 1.363 . S
C2536 H2552 0.931 . S
C2537 C2536 1.370 . S
C2537 C2541 1.408 . S
C2538 C2536 1.363 . S
C2538 C2539 1.370 . S
C2538 C2542 1.524 . S
C2539 C2531 1.503 . S
C2539 C2538 1.370 . S
C2539 C2540 1.403 . S
C2540 C2539 1.403 . S
C2540 C2541 1.404 . S
C2540 C2543 1.539 . S
C2541 C2537 1.408 . S
C2541 C2540 1.404 . S
C2541 H2553 0.930 . S
C2542 C2538 1.524 . S
C2542 H2554 0.956 . S
C2542 H2555 0.961 . S
C2542 H2556 0.961 . S
C2543 C2540 1.539 . S
C2543 H2557 0.958 . S
C2543 H2558 0.961 . S
C2543 H2559 0.960 . S
H2544 C2528 0.931 . S
H2545 C2533 0.929 . S
H2546 C2534 0.960 . S
H2547 C2534 0.962 . S
H2548 C2534 0.960 . S
H2549 C2535 0.961 . S
H2550 C2535 0.961 . S
H2551 C2535 0.961 . S
H2552 C2536 0.931 . S
H2553 C2541 0.930 . S
H2554 C2542 0.956 . S
H2555 C2542 0.961 . S
H2556 C2542 0.961 . S
H2557 C2543 0.958 . S
H2558 C2543 0.961 . S
H2559 C2543 0.960 . S
C2560 C2561 1.391 . S
C2560 C2562 1.394 . S
C2560 H2576 0.931 . S
C2561 C2560 1.391 . S
C2561 C2565 1.376 . S
C2562 C2560 1.394 . S
C2562 C2563 1.369 . S
C2562 C2566 1.531 . S
C2563 C2562 1.369 . S
C2563 C2564 1.410 . S
C2563 C2571 1.503 . S
C2564 C2563 1.410 . S
C2564 C2565 1.392 . S
C2564 C2567 1.511 . S
C2565 C2561 1.376 . S
C2565 C2564 1.392 . S
C2565 H2577 0.929 . S
C2566 C2562 1.531 . S
C2566 H2578 0.960 . S
C2566 H2579 0.962 . S
C2566 H2580 0.960 . S
C2567 C2564 1.511 . S
C2567 H2581 0.961 . S
C2567 H2582 0.961 . S
C2567 H2583 0.961 . S
C2568 C2569 1.370 . S
C2568 C2570 1.363 . S
C2568 H2584 0.931 . S
C2569 C2568 1.370 . S
C2569 C2573 1.408 . S
C2570 C2568 1.363 . S
C2570 C2571 1.370 . S
C2570 C2574 1.524 . S
C2571 C2563 1.503 . S
C2571 C2570 1.370 . S
C2571 C2572 1.403 . S
C2572 C2571 1.403 . S
C2572 C2573 1.404 . S
C2572 C2575 1.539 . S
C2573 C2569 1.408 . S
C2573 C2572 1.404 . S
C2573 H2585 0.930 . S
C2574 C2570 1.524 . S
C2574 H2586 0.956 . S
C2574 H2587 0.961 . S
C2574 H2588 0.961 . S
C2575 C2572 1.539 . S
C2575 H2589 0.958 . S
C2575 H2590 0.961 . S
C2575 H2591 0.960 . S
H2576 C2560 0.931 . S
H2577 C2565 0.929 . S
H2578 C2566 0.960 . S
H2579 C2566 0.962 . S
H2580 C2566 0.960 . S
H2581 C2567 0.961 . S
H2582 C2567 0.961 . S
H2583 C2567 0.961 . S
H2584 C2568 0.931 . S
H2585 C2573 0.930 . S
H2586 C2574 0.956 . S
H2587 C2574 0.961 . S
H2588 C2574 0.961 . S
H2589 C2575 0.958 . S
H2590 C2575 0.961 . S
H2591 C2575 0.960 . S
C2592 C2593 1.391 . S
C2592 C2594 1.394 . S
C2592 H2608 0.931 . S
C2593 C2592 1.391 . S
C2593 C2597 1.376 . S
C2594 C2592 1.394 . S
C2594 C2595 1.369 . S
C2594 C2598 1.531 . S
C2595 C2594 1.369 . S
C2595 C2596 1.410 . S
C2595 C2603 1.503 . S
C2596 C2595 1.410 . S
C2596 C2597 1.392 . S
C2596 C2599 1.511 . S
C2597 C2593 1.376 . S
C2597 C2596 1.392 . S
C2597 H2609 0.929 . S
C2598 C2594 1.531 . S
C2598 H2610 0.960 . S
C2598 H2611 0.962 . S
C2598 H2612 0.960 . S
C2599 C2596 1.511 . S
C2599 H2613 0.961 . S
C2599 H2614 0.961 . S
C2599 H2615 0.961 . S
C2600 C2601 1.370 . S
C2600 C2602 1.363 . S
C2600 H2616 0.931 . S
C2601 C2600 1.370 . S
C2601 C2605 1.408 . S
C2602 C2600 1.363 . S
C2602 C2603 1.370 . S
C2602 C2606 1.524 . S
C2603 C2595 1.503 . S
C2603 C2602 1.370 . S
C2603 C2604 1.403 . S
C2604 C2603 1.403 . S
C2604 C2605 1.404 . S
C2604 C2607 1.539 . S
C2605 C2601 1.408 . S
C2605 C2604 1.404 . S
C2605 H2617 0.930 . S
C2606 C2602 1.524 . S
C2606 H2618 0.956 . S
C2606 H2619 0.961 . S
C2606 H2620 0.961 . S
C2607 C2604 1.539 . S
C2607 H2621 0.958 . S
C2607 H2622 0.961 . S
C2607 H2623 0.960 . S
H2608 C2592 0.931 . S
H2609 C2597 0.929 . S
H2610 C2598 0.960 . S
H2611 C2598 0.962 . S
H2612 C2598 0.960 . S
H2613 C2599 0.961 . S
H2614 C2599 0.961 . S
H2615 C2599 0.961 . S
H2616 C2600 0.931 . S
H2617 C2605 0.930 . S
H2618 C2606 0.956 . S
H2619 C2606 0.961 . S
H2620 C2606 0.961 . S
H2621 C2607 0.958 . S
H2622 C2607 0.961 . S
H2623 C2607 0.960 . S
C2624 C2625 1.391 . S
C2624 C2626 1.394 . S
C2624 H2640 0.931 . S
C2625 C2624 1.391 . S
C2625 C2629 1.376 . S
C2626 C2624 1.394 . S
C2626 C2627 1.369 . S
C2626 C2630 1.531 . S
C2627 C2626 1.369 . S
C2627 C2628 1.410 . S
C2627 C2635 1.503 . S
C2628 C2627 1.410 . S
C2628 C2629 1.392 . S
C2628 C2631 1.511 . S
C2629 C2625 1.376 . S
C2629 C2628 1.392 . S
C2629 H2641 0.929 . S
C2630 C2626 1.531 . S
C2630 H2642 0.960 . S
C2630 H2643 0.962 . S
C2630 H2644 0.960 . S
C2631 C2628 1.511 . S
C2631 H2645 0.961 . S
C2631 H2646 0.961 . S
C2631 H2647 0.961 . S
C2632 C2633 1.370 . S
C2632 C2634 1.363 . S
C2632 H2648 0.931 . S
C2633 C2632 1.370 . S
C2633 C2637 1.408 . S
C2634 C2632 1.363 . S
C2634 C2635 1.370 1_554 S
C2634 C2638 1.524 1_554 S
C2635 C2627 1.503 . S
C2635 C2634 1.370 1_556 S
C2635 C2636 1.403 1_556 S
C2636 C2635 1.403 1_554 S
C2636 C2637 1.404 . S
C2636 C2639 1.539 . S
C2637 C2633 1.408 . S
C2637 C2636 1.404 . S
C2637 H2649 0.930 . S
C2638 C2634 1.524 1_556 S
C2638 H2650 0.956 . S
C2638 H2651 0.961 . S
C2638 H2652 0.961 . S
C2639 C2636 1.539 . S
C2639 H2653 0.958 . S
C2639 H2654 0.961 . S
C2639 H2655 0.960 1_554 S
H2640 C2624 0.931 . S
H2641 C2629 0.929 . S
H2642 C2630 0.960 . S
H2643 C2630 0.962 . S
H2644 C2630 0.960 . S
H2645 C2631 0.961 . S
H2646 C2631 0.961 . S
H2647 C2631 0.961 . S
H2648 C2632 0.931 . S
H2649 C2637 0.930 . S
H2650 C2638 0.956 . S
H2651 C2638 0.961 . S
H2652 C2638 0.961 . S
H2653 C2639 0.958 . S
H2654 C2639 0.961 . S
H2655 C2639 0.960 1_556 S
C2656 C2657 1.391 . S
C2656 C2658 1.394 . S
C2656 H2672 0.931 . S
C2657 C2656 1.391 . S
C2657 C2661 1.376 . S
C2658 C2656 1.394 . S
C2658 C2659 1.369 . S
C2658 C2662 1.531 . S
C2659 C2658 1.369 . S
C2659 C2660 1.410 . S
C2659 C2667 1.503 . S
C2660 C2659 1.410 . S
C2660 C2661 1.392 . S
C2660 C2663 1.511 . S
C2661 C2657 1.376 . S
C2661 C2660 1.392 . S
C2661 H2673 0.929 . S
C2662 C2658 1.531 . S
C2662 H2674 0.960 . S
C2662 H2675 0.962 . S
C2662 H2676 0.960 . S
C2663 C2660 1.511 . S
C2663 H2677 0.961 . S
C2663 H2678 0.961 . S
C2663 H2679 0.961 . S
C2664 C2665 1.370 . S
C2664 C2666 1.363 . S
C2664 H2680 0.931 . S
C2665 C2664 1.370 . S
C2665 C2669 1.408 . S
C2666 C2664 1.363 . S
C2666 C2667 1.370 . S
C2666 C2670 1.524 . S
C2667 C2659 1.503 . S
C2667 C2666 1.370 . S
C2667 C2668 1.403 . S
C2668 C2667 1.403 . S
C2668 C2669 1.404 . S
C2668 C2671 1.539 . S
C2669 C2665 1.408 . S
C2669 C2668 1.404 . S
C2669 H2681 0.930 . S
C2670 C2666 1.524 . S
C2670 H2682 0.956 . S
C2670 H2683 0.961 . S
C2670 H2684 0.961 . S
C2671 C2668 1.539 . S
C2671 H2685 0.958 . S
C2671 H2686 0.961 . S
C2671 H2687 0.960 . S
H2672 C2656 0.931 . S
H2673 C2661 0.929 . S
H2674 C2662 0.960 . S
H2675 C2662 0.962 . S
H2676 C2662 0.960 . S
H2677 C2663 0.961 . S
H2678 C2663 0.961 . S
H2679 C2663 0.961 . S
H2680 C2664 0.931 . S
H2681 C2669 0.930 . S
H2682 C2670 0.956 . S
H2683 C2670 0.961 . S
H2684 C2670 0.961 . S
H2685 C2671 0.958 . S
H2686 C2671 0.961 . S
H2687 C2671 0.960 . S
C2688 C2689 1.391 . S
C2688 C2690 1.394 . S
C2688 H2704 0.931 . S
C2689 C2688 1.391 . S
C2689 C2693 1.376 . S
C2690 C2688 1.394 . S
C2690 C2691 1.369 . S
C2690 C2694 1.531 . S
C2691 C2690 1.369 . S
C2691 C2692 1.410 . S
C2691 C2699 1.503 . S
C2692 C2691 1.410 . S
C2692 C2693 1.392 . S
C2692 C2695 1.511 . S
C2693 C2689 1.376 . S
C2693 C2692 1.392 . S
C2693 H2705 0.929 . S
C2694 C2690 1.531 . S
C2694 H2706 0.960 . S
C2694 H2707 0.962 . S
C2694 H2708 0.960 . S
C2695 C2692 1.511 . S
C2695 H2709 0.961 . S
C2695 H2710 0.961 . S
C2695 H2711 0.961 . S
C2696 C2697 1.370 . S
C2696 C2698 1.363 . S
C2696 H2712 0.931 . S
C2697 C2696 1.370 . S
C2697 C2701 1.408 . S
C2698 C2696 1.363 . S
C2698 C2699 1.370 . S
C2698 C2702 1.524 . S
C2699 C2691 1.503 . S
C2699 C2698 1.370 . S
C2699 C2700 1.403 . S
C2700 C2699 1.403 . S
C2700 C2701 1.404 . S
C2700 C2703 1.539 . S
C2701 C2697 1.408 . S
C2701 C2700 1.404 . S
C2701 H2713 0.930 . S
C2702 C2698 1.524 . S
C2702 H2714 0.956 . S
C2702 H2715 0.961 . S
C2702 H2716 0.961 . S
C2703 C2700 1.539 . S
C2703 H2717 0.958 . S
C2703 H2718 0.961 . S
C2703 H2719 0.960 . S
H2704 C2688 0.931 . S
H2705 C2693 0.929 . S
H2706 C2694 0.960 . S
H2707 C2694 0.962 . S
H2708 C2694 0.960 . S
H2709 C2695 0.961 . S
H2710 C2695 0.961 . S
H2711 C2695 0.961 . S
H2712 C2696 0.931 . S
H2713 C2701 0.930 . S
H2714 C2702 0.956 . S
H2715 C2702 0.961 . S
H2716 C2702 0.961 . S
H2717 C2703 0.958 . S
H2718 C2703 0.961 . S
H2719 C2703 0.960 . S
C2720 C2721 1.391 . S
C2720 C2722 1.394 . S
C2720 H2736 0.931 . S
C2721 C2720 1.391 . S
C2721 C2725 1.376 . S
C2722 C2720 1.394 . S
C2722 C2723 1.369 . S
C2722 C2726 1.531 . S
C2723 C2722 1.369 . S
C2723 C2724 1.410 . S
C2723 C2731 1.503 . S
C2724 C2723 1.410 . S
C2724 C2725 1.392 . S
C2724 C2727 1.511 . S
C2725 C2721 1.376 . S
C2725 C2724 1.392 . S
C2725 H2737 0.929 . S
C2726 C2722 1.531 . S
C2726 H2738 0.960 . S
C2726 H2739 0.962 . S
C2726 H2740 0.960 . S
C2727 C2724 1.511 . S
C2727 H2741 0.961 . S
C2727 H2742 0.961 . S
C2727 H2743 0.961 . S
C2728 C2729 1.370 . S
C2728 C2730 1.363 . S
C2728 H2744 0.931 . S
C2729 C2728 1.370 . S
C2729 C2733 1.408 . S
C2730 C2728 1.363 . S
C2730 C2731 1.370 . S
C2730 C2734 1.524 . S
C2731 C2723 1.503 . S
C2731 C2730 1.370 . S
C2731 C2732 1.403 . S
C2732 C2731 1.403 . S
C2732 C2733 1.404 . S
C2732 C2735 1.539 . S
C2733 C2729 1.408 . S
C2733 C2732 1.404 . S
C2733 H2745 0.930 . S
C2734 C2730 1.524 . S
C2734 H2746 0.956 . S
C2734 H2747 0.961 . S
C2734 H2748 0.961 . S
C2735 C2732 1.539 . S
C2735 H2749 0.958 . S
C2735 H2750 0.961 . S
C2735 H2751 0.960 . S
H2736 C2720 0.931 . S
H2737 C2725 0.929 . S
H2738 C2726 0.960 . S
H2739 C2726 0.962 . S
H2740 C2726 0.960 . S
H2741 C2727 0.961 . S
H2742 C2727 0.961 . S
H2743 C2727 0.961 . S
H2744 C2728 0.931 . S
H2745 C2733 0.930 . S
H2746 C2734 0.956 . S
H2747 C2734 0.961 . S
H2748 C2734 0.961 . S
H2749 C2735 0.958 . S
H2750 C2735 0.961 . S
H2751 C2735 0.960 . S
C2752 C2753 1.391 . S
C2752 C2754 1.394 . S
C2752 H2768 0.931 . S
C2753 C2752 1.391 . S
C2753 C2757 1.376 . S
C2754 C2752 1.394 . S
C2754 C2755 1.369 . S
C2754 C2758 1.531 . S
C2755 C2754 1.369 . S
C2755 C2756 1.410 . S
C2755 C2763 1.503 . S
C2756 C2755 1.410 . S
C2756 C2757 1.392 . S
C2756 C2759 1.511 . S
C2757 C2753 1.376 . S
C2757 C2756 1.392 . S
C2757 H2769 0.929 . S
C2758 C2754 1.531 . S
C2758 H2770 0.960 . S
C2758 H2771 0.962 . S
C2758 H2772 0.960 . S
C2759 C2756 1.511 . S
C2759 H2773 0.961 . S
C2759 H2774 0.961 . S
C2759 H2775 0.961 . S
C2760 C2761 1.370 . S
C2760 C2762 1.363 . S
C2760 H2776 0.931 . S
C2761 C2760 1.370 . S
C2761 C2765 1.408 . S
C2762 C2760 1.363 . S
C2762 C2763 1.370 . S
C2762 C2766 1.524 . S
C2763 C2755 1.503 . S
C2763 C2762 1.370 . S
C2763 C2764 1.403 . S
C2764 C2763 1.403 . S
C2764 C2765 1.404 . S
C2764 C2767 1.539 . S
C2765 C2761 1.408 . S
C2765 C2764 1.404 . S
C2765 H2777 0.930 . S
C2766 C2762 1.524 . S
C2766 H2778 0.956 . S
C2766 H2779 0.961 . S
C2766 H2780 0.961 . S
C2767 C2764 1.539 . S
C2767 H2781 0.958 . S
C2767 H2782 0.961 . S
C2767 H2783 0.960 . S
H2768 C2752 0.931 . S
H2769 C2757 0.929 . S
H2770 C2758 0.960 . S
H2771 C2758 0.962 . S
H2772 C2758 0.960 . S
H2773 C2759 0.961 . S
H2774 C2759 0.961 . S
H2775 C2759 0.961 . S
H2776 C2760 0.931 . S
H2777 C2765 0.930 . S
H2778 C2766 0.956 . S
H2779 C2766 0.961 . S
H2780 C2766 0.961 . S
H2781 C2767 0.958 . S
H2782 C2767 0.961 . S
H2783 C2767 0.960 . S
C2784 C2785 1.391 . S
C2784 C2786 1.394 . S
C2784 H2800 0.931 . S
C2785 C2784 1.391 . S
C2785 C2789 1.376 . S
C2786 C2784 1.394 . S
C2786 C2787 1.369 . S
C2786 C2790 1.531 . S
C2787 C2786 1.369 . S
C2787 C2788 1.410 . S
C2787 C2795 1.503 . S
C2788 C2787 1.410 . S
C2788 C2789 1.392 . S
C2788 C2791 1.511 . S
C2789 C2785 1.376 . S
C2789 C2788 1.392 . S
C2789 H2801 0.929 . S
C2790 C2786 1.531 . S
C2790 H2802 0.960 . S
C2790 H2803 0.962 . S
C2790 H2804 0.960 . S
C2791 C2788 1.511 . S
C2791 H2805 0.961 . S
C2791 H2806 0.961 . S
C2791 H2807 0.961 . S
C2792 C2793 1.370 . S
C2792 C2794 1.315 1_565 S
C2792 H2808 0.931 . S
C2793 C2792 1.370 . S
C2793 C2797 1.408 . S
C2794 C2792 1.315 1_545 S
C2794 C2795 1.384 . S
C2794 C2798 1.560 . S
C2795 C2787 1.503 . S
C2795 C2794 1.384 . S
C2795 C2796 1.403 1_545 S
C2796 C2795 1.403 1_565 S
C2796 C2797 1.404 . S
C2796 C2799 1.539 . S
C2797 C2793 1.408 . S
C2797 C2796 1.404 . S
C2797 H2809 0.930 . S
C2798 C2794 1.560 . S
C2798 H2810 0.956 . S
C2798 H2811 0.961 . S
C2798 H2812 0.961 . S
C2799 C2796 1.539 . S
C2799 H2813 0.958 . S
C2799 H2814 0.961 . S
C2799 H2815 0.960 1_565 S
H2800 C2784 0.931 . S
H2801 C2789 0.929 . S
H2802 C2790 0.960 . S
H2803 C2790 0.962 . S
H2804 C2790 0.960 . S
H2805 C2791 0.961 . S
H2806 C2791 0.961 . S
H2807 C2791 0.961 . S
H2808 C2792 0.931 . S
H2809 C2797 0.930 . S
H2810 C2798 0.956 . S
H2811 C2798 0.961 . S
H2812 C2798 0.961 . S
H2813 C2799 0.958 . S
H2814 C2799 0.961 . S
H2815 C2799 0.960 1_545 S
C2816 C2817 1.391 . S
C2816 C2818 1.394 . S
C2816 H2832 0.931 . S
C2817 C2816 1.391 . S
C2817 C2821 1.376 . S
C2818 C2816 1.394 . S
C2818 C2819 1.369 . S
C2818 C2822 1.531 . S
C2819 C2818 1.369 . S
C2819 C2820 1.410 . S
C2819 C2827 1.503 . S
C2820 C2819 1.410 . S
C2820 C2821 1.392 . S
C2820 C2823 1.511 . S
C2821 C2817 1.376 . S
C2821 C2820 1.392 . S
C2821 H2833 0.929 . S
C2822 C2818 1.531 . S
C2822 H2834 0.960 . S
C2822 H2835 0.962 . S
C2822 H2836 0.960 . S
C2823 C2820 1.511 . S
C2823 H2837 0.961 . S
C2823 H2838 0.961 . S
C2823 H2839 0.961 . S
C2824 C2825 1.370 . S
C2824 C2826 1.363 . S
C2824 H2840 0.931 . S
C2825 C2824 1.370 . S
C2825 C2829 1.408 . S
C2826 C2824 1.363 . S
C2826 C2827 1.370 . S
C2826 C2830 1.524 . S
C2827 C2819 1.503 . S
C2827 C2826 1.370 . S
C2827 C2828 1.403 . S
C2828 C2827 1.403 . S
C2828 C2829 1.404 . S
C2828 C2831 1.539 . S
C2829 C2825 1.408 . S
C2829 C2828 1.404 . S
C2829 H2841 0.930 . S
C2830 C2826 1.524 . S
C2830 H2842 0.956 . S
C2830 H2843 0.961 . S
C2830 H2844 0.961 . S
C2831 C2828 1.539 . S
C2831 H2845 0.958 . S
C2831 H2846 0.961 . S
C2831 H2847 0.960 . S
H2832 C2816 0.931 . S
H2833 C2821 0.929 . S
H2834 C2822 0.960 . S
H2835 C2822 0.962 . S
H2836 C2822 0.960 . S
H2837 C2823 0.961 . S
H2838 C2823 0.961 . S
H2839 C2823 0.961 . S
H2840 C2824 0.931 . S
H2841 C2829 0.930 . S
H2842 C2830 0.956 . S
H2843 C2830 0.961 . S
H2844 C2830 0.961 . S
H2845 C2831 0.958 . S
H2846 C2831 0.961 . S
H2847 C2831 0.960 . S
C2848 C2849 1.391 . S
C2848 C2850 1.394 . S
C2848 H2864 0.931 . S
C2849 C2848 1.391 . S
C2849 C2853 1.376 . S
C2850 C2848 1.394 . S
C2850 C2851 1.369 . S
C2850 C2854 1.531 . S
C2851 C2850 1.369 . S
C2851 C2852 1.410 . S
C2851 C2859 1.503 . S
C2852 C2851 1.410 . S
C2852 C2853 1.392 . S
C2852 C2855 1.511 . S
C2853 C2849 1.376 . S
C2853 C2852 1.392 . S
C2853 H2865 0.929 . S
C2854 C2850 1.531 . S
C2854 H2866 0.960 . S
C2854 H2867 0.962 . S
C2854 H2868 0.960 . S
C2855 C2852 1.511 . S
C2855 H2869 0.961 . S
C2855 H2870 0.961 . S
C2855 H2871 0.961 . S
C2856 C2857 1.370 . S
C2856 C2858 1.363 . S
C2856 H2872 0.931 . S
C2857 C2856 1.370 . S
C2857 C2861 1.408 . S
C2858 C2856 1.363 . S
C2858 C2859 1.370 . S
C2858 C2862 1.524 . S
C2859 C2851 1.503 . S
C2859 C2858 1.370 . S
C2859 C2860 1.403 . S
C2860 C2859 1.403 . S
C2860 C2861 1.404 . S
C2860 C2863 1.539 . S
C2861 C2857 1.408 . S
C2861 C2860 1.404 . S
C2861 H2873 0.930 . S
C2862 C2858 1.524 . S
C2862 H2874 0.956 . S
C2862 H2875 0.961 . S
C2862 H2876 0.961 . S
C2863 C2860 1.539 . S
C2863 H2877 0.958 . S
C2863 H2878 0.961 . S
C2863 H2879 0.960 . S
H2864 C2848 0.931 . S
H2865 C2853 0.929 . S
H2866 C2854 0.960 . S
H2867 C2854 0.962 . S
H2868 C2854 0.960 . S
H2869 C2855 0.961 . S
H2870 C2855 0.961 . S
H2871 C2855 0.961 . S
H2872 C2856 0.931 . S
H2873 C2861 0.930 . S
H2874 C2862 0.956 . S
H2875 C2862 0.961 . S
H2876 C2862 0.961 . S
H2877 C2863 0.958 . S
H2878 C2863 0.961 . S
H2879 C2863 0.960 . S
C2880 C2881 1.391 . S
C2880 C2882 1.394 . S
C2880 H2896 0.931 . S
C2881 C2880 1.391 . S
C2881 C2885 1.376 . S
C2882 C2880 1.394 . S
C2882 C2883 1.369 . S
C2882 C2886 1.531 . S
C2883 C2882 1.369 . S
C2883 C2884 1.410 . S
C2883 C2891 1.503 . S
C2884 C2883 1.410 . S
C2884 C2885 1.392 . S
C2884 C2887 1.511 . S
C2885 C2881 1.376 . S
C2885 C2884 1.392 . S
C2885 H2897 0.929 . S
C2886 C2882 1.531 . S
C2886 H2898 0.960 . S
C2886 H2899 0.962 . S
C2886 H2900 0.960 . S
C2887 C2884 1.511 . S
C2887 H2901 0.961 . S
C2887 H2902 0.961 . S
C2887 H2903 0.961 . S
C2888 C2889 1.370 . S
C2888 C2890 1.363 . S
C2888 H2904 0.931 . S
C2889 C2888 1.370 . S
C2889 C2893 1.408 . S
C2890 C2888 1.363 . S
C2890 C2891 1.370 . S
C2890 C2894 1.524 . S
C2891 C2883 1.503 . S
C2891 C2890 1.370 . S
C2891 C2892 1.403 . S
C2892 C2891 1.403 . S
C2892 C2893 1.404 . S
C2892 C2895 1.539 . S
C2893 C2889 1.408 . S
C2893 C2892 1.404 . S
C2893 H2905 0.930 . S
C2894 C2890 1.524 . S
C2894 H2906 0.956 . S
C2894 H2907 0.961 . S
C2894 H2908 0.961 . S
C2895 C2892 1.539 . S
C2895 H2909 0.958 . S
C2895 H2910 0.961 . S
C2895 H2911 0.960 . S
H2896 C2880 0.931 . S
H2897 C2885 0.929 . S
H2898 C2886 0.960 . S
H2899 C2886 0.962 . S
H2900 C2886 0.960 . S
H2901 C2887 0.961 . S
H2902 C2887 0.961 . S
H2903 C2887 0.961 . S
H2904 C2888 0.931 . S
H2905 C2893 0.930 . S
H2906 C2894 0.956 . S
H2907 C2894 0.961 . S
H2908 C2894 0.961 . S
H2909 C2895 0.958 . S
H2910 C2895 0.961 . S
H2911 C2895 0.960 . S
C2912 C2913 1.391 . S
C2912 C2914 1.394 . S
C2912 H2928 0.931 . S
C2913 C2912 1.391 . S
C2913 C2917 1.376 . S
C2914 C2912 1.394 . S
C2914 C2915 1.369 1_545 S
C2914 C2918 1.531 1_545 S
C2915 C2914 1.369 1_565 S
C2915 C2916 1.410 1_565 S
C2915 C2923 1.503 . S
C2916 C2915 1.410 1_545 S
C2916 C2917 1.392 . S
C2916 C2919 1.511 1_545 S
C2917 C2913 1.376 . S
C2917 C2916 1.392 . S
C2917 H2929 0.929 . S
C2918 C2914 1.531 1_565 S
C2918 H2930 0.960 . S
C2918 H2931 0.962 . S
C2918 H2932 0.960 . S
C2919 C2916 1.511 1_565 S
C2919 H2933 0.961 1_565 S
C2919 H2934 0.961 . S
C2919 H2935 0.964 . S
C2920 C2921 1.370 . S
C2920 C2922 1.363 . S
C2920 H2936 0.931 . S
C2921 C2920 1.370 . S
C2921 C2925 1.408 . S
C2922 C2920 1.363 . S
C2922 C2923 1.370 . S
C2922 C2926 1.524 . S
C2923 C2915 1.503 . S
C2923 C2922 1.370 . S
C2923 C2924 1.403 . S
C2924 C2923 1.403 . S
C2924 C2925 1.404 . S
C2924 C2927 1.539 . S
C2925 C2921 1.408 . S
C2925 C2924 1.404 . S
C2925 H2937 0.930 . S
C2926 C2922 1.524 . S
C2926 H2938 0.956 . S
C2926 H2939 0.961 . S
C2926 H2940 0.961 . S
C2927 C2924 1.539 . S
C2927 H2941 0.958 . S
C2927 H2942 0.961 . S
C2927 H2943 0.960 . S
H2928 C2912 0.931 . S
H2929 C2917 0.929 . S
H2930 C2918 0.960 . S
H2931 C2918 0.962 . S
H2932 C2918 0.960 . S
H2933 C2919 0.961 1_545 S
H2934 C2919 0.961 . S
H2935 C2919 0.964 . S
H2936 C2920 0.931 . S
H2937 C2925 0.930 . S
H2938 C2926 0.956 . S
H2939 C2926 0.961 . S
H2940 C2926 0.961 . S
H2941 C2927 0.958 . S
H2942 C2927 0.961 . S
H2943 C2927 0.960 . S
C2944 C2945 1.391 . S
C2944 C2946 1.394 . S
C2944 H2960 0.931 . S
C2945 C2944 1.391 . S
C2945 C2949 1.376 . S
C2946 C2944 1.394 . S
C2946 C2947 1.369 . S
C2946 C2950 1.531 . S
C2947 C2946 1.369 . S
C2947 C2948 1.410 . S
C2947 C2955 1.503 . S
C2948 C2947 1.410 . S
C2948 C2949 1.392 . S
C2948 C2951 1.511 . S
C2949 C2945 1.376 . S
C2949 C2948 1.392 . S
C2949 H2961 0.929 . S
C2950 C2946 1.531 . S
C2950 H2962 0.960 . S
C2950 H2963 0.962 . S
C2950 H2964 0.960 . S
C2951 C2948 1.511 . S
C2951 H2965 0.961 . S
C2951 H2966 0.961 . S
C2951 H2967 0.961 . S
C2952 C2953 1.370 . S
C2952 C2954 1.363 1_565 S
C2952 H2968 0.931 . S
C2953 C2952 1.370 . S
C2953 C2957 1.408 . S
C2954 C2952 1.363 1_545 S
C2954 C2955 1.370 . S
C2954 C2958 1.524 . S
C2955 C2947 1.503 . S
C2955 C2954 1.370 . S
C2955 C2956 1.403 1_545 S
C2956 C2955 1.403 1_565 S
C2956 C2957 1.404 . S
C2956 C2959 1.544 . S
C2957 C2953 1.408 . S
C2957 C2956 1.404 . S
C2957 H2969 0.930 . S
C2958 C2954 1.524 . S
C2958 H2970 0.956 . S
C2958 H2971 0.961 . S
C2958 H2972 0.961 . S
C2959 C2956 1.544 . S
C2959 H2973 0.955 1_565 S
C2959 H2974 0.976 . S
C2959 H2975 0.944 1_565 S
H2960 C2944 0.931 . S
H2961 C2949 0.929 . S
H2962 C2950 0.960 . S
H2963 C2950 0.962 . S
H2964 C2950 0.960 . S
H2965 C2951 0.961 . S
H2966 C2951 0.961 . S
H2967 C2951 0.961 . S
H2968 C2952 0.931 . S
H2969 C2957 0.930 . S
H2970 C2958 0.956 . S
H2971 C2958 0.961 . S
H2972 C2958 0.961 . S
H2973 C2959 0.955 1_545 S
H2974 C2959 0.976 . S
H2975 C2959 0.944 1_545 S
C2976 C2977 1.391 . S
C2976 C2978 1.394 . S
C2976 H2992 0.931 . S
C2977 C2976 1.391 . S
C2977 C2981 1.376 . S
C2978 C2976 1.394 . S
C2978 C2979 1.369 . S
C2978 C2982 1.531 . S
C2979 C2978 1.369 . S
C2979 C2980 1.410 . S
C2979 C2987 1.503 . S
C2980 C2979 1.410 . S
C2980 C2981 1.392 . S
C2980 C2983 1.511 . S
C2981 C2977 1.376 . S
C2981 C2980 1.392 . S
C2981 H2993 0.929 . S
C2982 C2978 1.531 . S
C2982 H2994 0.960 . S
C2982 H2995 0.962 . S
C2982 H2996 0.960 . S
C2983 C2980 1.511 . S
C2983 H2997 0.961 . S
C2983 H2998 0.961 . S
C2983 H2999 0.961 . S
C2984 C2985 1.370 . S
C2984 C2986 1.363 . S
C2984 H3000 0.931 . S
C2985 C2984 1.370 . S
C2985 C2989 1.408 . S
C2986 C2984 1.363 . S
C2986 C2987 1.370 . S
C2986 C2990 1.524 . S
C2987 C2979 1.503 . S
C2987 C2986 1.370 . S
C2987 C2988 1.403 . S
C2988 C2987 1.403 . S
C2988 C2989 1.404 . S
C2988 C2991 1.539 . S
C2989 C2985 1.408 . S
C2989 C2988 1.404 . S
C2989 H3001 0.930 . S
C2990 C2986 1.524 . S
C2990 H3002 0.956 . S
C2990 H3003 0.961 . S
C2990 H3004 0.961 . S
C2991 C2988 1.539 . S
C2991 H3005 0.958 . S
C2991 H3006 0.961 . S
C2991 H3007 0.960 . S
H2992 C2976 0.931 . S
H2993 C2981 0.929 . S
H2994 C2982 0.960 . S
H2995 C2982 0.962 . S
H2996 C2982 0.960 . S
H2997 C2983 0.961 . S
H2998 C2983 0.961 . S
H2999 C2983 0.961 . S
H3000 C2984 0.931 . S
H3001 C2989 0.930 . S
H3002 C2990 0.956 . S
H3003 C2990 0.961 . S
H3004 C2990 0.961 . S
H3005 C2991 0.958 . S
H3006 C2991 0.961 . S
H3007 C2991 0.960 . S
C3008 C3009 1.391 . S
C3008 C3010 1.394 . S
C3008 H3024 0.931 . S
C3009 C3008 1.391 . S
C3009 C3013 1.376 . S
C3010 C3008 1.394 . S
C3010 C3011 1.369 . S
C3010 C3014 1.531 . S
C3011 C3010 1.369 . S
C3011 C3012 1.410 . S
C3011 C3019 1.503 . S
C3012 C3011 1.410 . S
C3012 C3013 1.392 . S
C3012 C3015 1.511 . S
C3013 C3009 1.376 . S
C3013 C3012 1.392 . S
C3013 H3025 0.929 . S
C3014 C3010 1.531 . S
C3014 H3026 0.960 . S
C3014 H3027 0.962 . S
C3014 H3028 0.960 . S
C3015 C3012 1.511 . S
C3015 H3029 0.961 . S
C3015 H3030 0.961 . S
C3015 H3031 0.961 . S
C3016 C3017 1.370 . S
C3016 C3018 1.363 . S
C3016 H3032 0.931 . S
C3017 C3016 1.370 . S
C3017 C3021 1.408 . S
C3018 C3016 1.363 . S
C3018 C3019 1.370 . S
C3018 C3022 1.524 . S
C3019 C3011 1.503 . S
C3019 C3018 1.370 . S
C3019 C3020 1.403 . S
C3020 C3019 1.403 . S
C3020 C3021 1.404 . S
C3020 C3023 1.539 . S
C3021 C3017 1.408 . S
C3021 C3020 1.404 . S
C3021 H3033 0.930 . S
C3022 C3018 1.524 . S
C3022 H3034 0.956 . S
C3022 H3035 0.961 . S
C3022 H3036 0.961 . S
C3023 C3020 1.539 . S
C3023 H3037 0.958 . S
C3023 H3038 0.961 . S
C3023 H3039 0.960 . S
H3024 C3008 0.931 . S
H3025 C3013 0.929 . S
H3026 C3014 0.960 . S
H3027 C3014 0.962 . S
H3028 C3014 0.960 . S
H3029 C3015 0.961 . S
H3030 C3015 0.961 . S
H3031 C3015 0.961 . S
H3032 C3016 0.931 . S
H3033 C3021 0.930 . S
H3034 C3022 0.956 . S
H3035 C3022 0.961 . S
H3036 C3022 0.961 . S
H3037 C3023 0.958 . S
H3038 C3023 0.961 . S
H3039 C3023 0.960 . S
C3040 C3041 1.391 . S
C3040 C3042 1.394 . S
C3040 H3056 0.931 . S
C3041 C3040 1.391 . S
C3041 C3045 1.376 . S
C3042 C3040 1.394 . S
C3042 C3043 1.369 . S
C3042 C3046 1.531 . S
C3043 C3042 1.369 . S
C3043 C3044 1.410 . S
C3043 C3051 1.503 . S
C3044 C3043 1.410 . S
C3044 C3045 1.392 . S
C3044 C3047 1.511 . S
C3045 C3041 1.376 . S
C3045 C3044 1.392 . S
C3045 H3057 0.929 . S
C3046 C3042 1.531 . S
C3046 H3058 0.960 . S
C3046 H3059 0.962 . S
C3046 H3060 0.960 . S
C3047 C3044 1.511 . S
C3047 H3061 0.961 . S
C3047 H3062 0.961 . S
C3047 H3063 0.961 . S
C3048 C3049 1.370 . S
C3048 C3050 1.363 . S
C3048 H3064 0.931 . S
C3049 C3048 1.370 . S
C3049 C3053 1.408 . S
C3050 C3048 1.363 . S
C3050 C3051 1.370 . S
C3050 C3054 1.524 . S
C3051 C3043 1.503 . S
C3051 C3050 1.370 . S
C3051 C3052 1.403 . S
C3052 C3051 1.403 . S
C3052 C3053 1.404 . S
C3052 C3055 1.539 . S
C3053 C3049 1.408 . S
C3053 C3052 1.404 . S
C3053 H3065 0.930 . S
C3054 C3050 1.524 . S
C3054 H3066 0.956 . S
C3054 H3067 0.961 . S
C3054 H3068 0.961 . S
C3055 C3052 1.539 . S
C3055 H3069 0.958 . S
C3055 H3070 0.961 . S
C3055 H3071 0.960 . S
H3056 C3040 0.931 . S
H3057 C3045 0.929 . S
H3058 C3046 0.960 . S
H3059 C3046 0.962 . S
H3060 C3046 0.960 . S
H3061 C3047 0.961 . S
H3062 C3047 0.961 . S
H3063 C3047 0.961 . S
H3064 C3048 0.931 . S
H3065 C3053 0.930 . S
H3066 C3054 0.956 . S
H3067 C3054 0.961 . S
H3068 C3054 0.961 . S
H3069 C3055 0.958 . S
H3070 C3055 0.961 . S
H3071 C3055 0.960 . S
C3072 C3073 1.391 . S
C3072 C3074 1.394 . S
C3072 H3088 0.931 . S
C3073 C3072 1.391 . S
C3073 C3077 1.376 . S
C3074 C3072 1.394 . S
C3074 C3075 1.369 1_455 S
C3074 C3078 1.531 1_455 S
C3075 C3074 1.369 1_655 S
C3075 C3076 1.410 1_655 S
C3075 C3083 1.503 . S
C3076 C3075 1.410 1_455 S
C3076 C3077 1.392 . S
C3076 C3079 1.511 1_455 S
C3077 C3073 1.376 . S
C3077 C3076 1.392 . S
C3077 H3089 0.929 . S
C3078 C3074 1.531 1_655 S
C3078 H3090 0.960 . S
C3078 H3091 0.962 . S
C3078 H3092 0.960 1_655 S
C3079 C3076 1.511 1_655 S
C3079 H3093 0.961 1_655 S
C3079 H3094 0.961 . S
C3079 H3095 0.965 . S
C3080 C3081 1.370 . S
C3080 C3082 1.363 . S
C3080 H3096 0.931 . S
C3081 C3080 1.370 . S
C3081 C3085 1.408 . S
C3082 C3080 1.363 . S
C3082 C3083 1.370 . S
C3082 C3086 1.524 . S
C3083 C3075 1.503 . S
C3083 C3082 1.370 . S
C3083 C3084 1.403 . S
C3084 C3083 1.403 . S
C3084 C3085 1.404 . S
C3084 C3087 1.539 . S
C3085 C3081 1.408 . S
C3085 C3084 1.404 . S
C3085 H3097 0.930 . S
C3086 C3082 1.524 . S
C3086 H3098 0.956 . S
C3086 H3099 0.961 . S
C3086 H3100 0.961 . S
C3087 C3084 1.539 . S
C3087 H3101 0.958 . S
C3087 H3102 0.961 . S
C3087 H3103 0.960 . S
H3088 C3072 0.931 . S
H3089 C3077 0.929 . S
H3090 C3078 0.960 . S
H3091 C3078 0.962 . S
H3092 C3078 0.960 1_455 S
H3093 C3079 0.961 1_455 S
H3094 C3079 0.961 . S
H3095 C3079 0.965 . S
H3096 C3080 0.931 . S
H3097 C3085 0.930 . S
H3098 C3086 0.956 . S
H3099 C3086 0.961 . S
H3100 C3086 0.961 . S
H3101 C3087 0.958 . S
H3102 C3087 0.961 . S
H3103 C3087 0.960 . S
C3104 C3105 1.391 . S
C3104 C3106 1.394 . S
C3104 H3120 0.931 . S
C3105 C3104 1.391 . S
C3105 C3109 1.376 . S
C3106 C3104 1.394 . S
C3106 C3107 1.369 . S
C3106 C3110 1.531 . S
C3107 C3106 1.369 . S
C3107 C3108 1.410 . S
C3107 C3115 1.503 . S
C3108 C3107 1.410 . S
C3108 C3109 1.392 . S
C3108 C3111 1.511 . S
C3109 C3105 1.376 . S
C3109 C3108 1.392 . S
C3109 H3121 0.929 . S
C3110 C3106 1.531 . S
C3110 H3122 0.960 . S
C3110 H3123 0.962 . S
C3110 H3124 0.960 . S
C3111 C3108 1.511 . S
C3111 H3125 0.961 . S
C3111 H3126 0.961 . S
C3111 H3127 0.961 . S
C3112 C3113 1.370 . S
C3112 C3114 1.363 . S
C3112 H3128 0.931 . S
C3113 C3112 1.370 . S
C3113 C3117 1.408 . S
C3114 C3112 1.363 . S
C3114 C3115 1.370 . S
C3114 C3118 1.524 . S
C3115 C3107 1.503 . S
C3115 C3114 1.370 . S
C3115 C3116 1.403 . S
C3116 C3115 1.403 . S
C3116 C3117 1.404 . S
C3116 C3119 1.539 . S
C3117 C3113 1.408 . S
C3117 C3116 1.404 . S
C3117 H3129 0.930 . S
C3118 C3114 1.524 . S
C3118 H3130 0.956 . S
C3118 H3131 0.961 . S
C3118 H3132 0.961 . S
C3119 C3116 1.539 . S
C3119 H3133 0.958 . S
C3119 H3134 0.961 . S
C3119 H3135 0.960 . S
H3120 C3104 0.931 . S
H3121 C3109 0.929 . S
H3122 C3110 0.960 . S
H3123 C3110 0.962 . S
H3124 C3110 0.960 . S
H3125 C3111 0.961 . S
H3126 C3111 0.961 . S
H3127 C3111 0.961 . S
H3128 C3112 0.931 . S
H3129 C3117 0.930 . S
H3130 C3118 0.956 . S
H3131 C3118 0.961 . S
H3132 C3118 0.961 . S
H3133 C3119 0.958 . S
H3134 C3119 0.961 . S
H3135 C3119 0.960 . S
C3136 C3137 1.391 . S
C3136 C3138 1.394 . S
C3136 H3152 0.931 . S
C3137 C3136 1.391 . S
C3137 C3141 1.376 . S
C3138 C3136 1.394 . S
C3138 C3139 1.369 1_455 S
C3138 C3142 1.534 . S
C3139 C3138 1.369 1_655 S
C3139 C3140 1.410 1_655 S
C3139 C3147 1.503 . S
C3140 C3139 1.410 1_455 S
C3140 C3141 1.392 . S
C3140 C3143 1.511 1_455 S
C3141 C3137 1.376 . S
C3141 C3140 1.392 . S
C3141 H3153 0.929 . S
C3142 C3138 1.534 . S
C3142 H3154 0.952 1_455 S
C3142 H3155 0.962 . S
C3142 H3156 0.965 . S
C3143 C3140 1.511 1_655 S
C3143 H3157 0.961 . S
C3143 H3158 0.961 . S
C3143 H3159 0.961 . S
C3144 C3145 1.370 . S
C3144 C3146 1.363 . S
C3144 H3160 0.931 . S
C3145 C3144 1.370 . S
C3145 C3149 1.408 . S
C3146 C3144 1.363 . S
C3146 C3147 1.370 . S
C3146 C3150 1.524 . S
C3147 C3139 1.503 . S
C3147 C3146 1.370 . S
C3147 C3148 1.403 . S
C3148 C3147 1.403 . S
C3148 C3149 1.404 . S
C3148 C3151 1.539 . S
C3149 C3145 1.408 . S
C3149 C3148 1.404 . S
C3149 H3161 0.930 . S
C3150 C3146 1.524 . S
C3150 H3162 0.956 . S
C3150 H3163 0.961 . S
C3150 H3164 0.961 . S
C3151 C3148 1.539 . S
C3151 H3165 0.958 . S
C3151 H3166 0.961 . S
C3151 H3167 0.960 . S
H3152 C3136 0.931 . S
H3153 C3141 0.929 . S
H3154 C3142 0.952 1_655 S
H3155 C3142 0.962 . S
H3156 C3142 0.965 . S
H3157 C3143 0.961 . S
H3158 C3143 0.961 . S
H3159 C3143 0.961 . S
H3160 C3144 0.931 . S
H3161 C3149 0.930 . S
H3162 C3150 0.956 . S
H3163 C3150 0.961 . S
H3164 C3150 0.961 . S
H3165 C3151 0.958 . S
H3166 C3151 0.961 . S
H3167 C3151 0.960 . S
C3168 C3169 1.391 . S
C3168 C3170 1.394 . S
C3168 H3184 0.931 . S
C3169 C3168 1.391 . S
C3169 C3173 1.376 . S
C3170 C3168 1.394 . S
C3170 C3171 1.369 . S
C3170 C3174 1.531 . S
C3171 C3170 1.369 . S
C3171 C3172 1.410 . S
C3171 C3179 1.503 . S
C3172 C3171 1.410 . S
C3172 C3173 1.392 . S
C3172 C3175 1.511 . S
C3173 C3169 1.376 . S
C3173 C3172 1.392 . S
C3173 H3185 0.929 . S
C3174 C3170 1.531 . S
C3174 H3186 0.960 . S
C3174 H3187 0.962 . S
C3174 H3188 0.960 . S
C3175 C3172 1.511 . S
C3175 H3189 0.961 . S
C3175 H3190 0.961 . S
C3175 H3191 0.961 . S
C3176 C3177 1.370 . S
C3176 C3178 1.363 . S
C3176 H3192 0.931 . S
C3177 C3176 1.370 . S
C3177 C3181 1.408 . S
C3178 C3176 1.363 . S
C3178 C3179 1.370 . S
C3178 C3182 1.524 . S
C3179 C3171 1.503 . S
C3179 C3178 1.370 . S
C3179 C3180 1.403 . S
C3180 C3179 1.403 . S
C3180 C3181 1.404 . S
C3180 C3183 1.539 . S
C3181 C3177 1.408 . S
C3181 C3180 1.404 . S
C3181 H3193 0.930 . S
C3182 C3178 1.524 . S
C3182 H3194 0.956 . S
C3182 H3195 0.961 . S
C3182 H3196 0.961 . S
C3183 C3180 1.539 . S
C3183 H3197 0.958 . S
C3183 H3198 0.961 . S
C3183 H3199 0.960 . S
H3184 C3168 0.931 . S
H3185 C3173 0.929 . S
H3186 C3174 0.960 . S
H3187 C3174 0.962 . S
H3188 C3174 0.960 . S
H3189 C3175 0.961 . S
H3190 C3175 0.961 . S
H3191 C3175 0.961 . S
H3192 C3176 0.931 . S
H3193 C3181 0.930 . S
H3194 C3182 0.956 . S
H3195 C3182 0.961 . S
H3196 C3182 0.961 . S
H3197 C3183 0.958 . S
H3198 C3183 0.961 . S
H3199 C3183 0.960 . S
C3200 C3201 1.391 . S
C3200 C3202 1.394 . S
C3200 H3216 0.931 . S
C3201 C3200 1.391 . S
C3201 C3205 1.376 . S
C3202 C3200 1.394 . S
C3202 C3203 1.369 . S
C3202 C3206 1.531 . S
C3203 C3202 1.369 . S
C3203 C3204 1.410 . S
C3203 C3211 1.503 . S
C3204 C3203 1.410 . S
C3204 C3205 1.392 . S
C3204 C3207 1.511 . S
C3205 C3201 1.376 . S
C3205 C3204 1.392 . S
C3205 H3217 0.929 . S
C3206 C3202 1.531 . S
C3206 H3218 0.960 . S
C3206 H3219 0.962 . S
C3206 H3220 0.960 . S
C3207 C3204 1.511 . S
C3207 H3221 0.961 . S
C3207 H3222 0.961 . S
C3207 H3223 0.961 . S
C3208 C3209 1.370 . S
C3208 C3210 1.363 . S
C3208 H3224 0.931 . S
C3209 C3208 1.370 . S
C3209 C3213 1.408 . S
C3210 C3208 1.363 . S
C3210 C3211 1.370 . S
C3210 C3214 1.524 . S
C3211 C3203 1.503 . S
C3211 C3210 1.370 . S
C3211 C3212 1.403 . S
C3212 C3211 1.403 . S
C3212 C3213 1.404 . S
C3212 C3215 1.539 . S
C3213 C3209 1.408 . S
C3213 C3212 1.404 . S
C3213 H3225 0.930 . S
C3214 C3210 1.524 . S
C3214 H3226 0.956 . S
C3214 H3227 0.961 . S
C3214 H3228 0.961 . S
C3215 C3212 1.539 . S
C3215 H3229 0.958 . S
C3215 H3230 0.961 . S
C3215 H3231 0.960 . S
H3216 C3200 0.931 . S
H3217 C3205 0.929 . S
H3218 C3206 0.960 . S
H3219 C3206 0.962 . S
H3220 C3206 0.960 . S
H3221 C3207 0.961 . S
H3222 C3207 0.961 . S
H3223 C3207 0.961 . S
H3224 C3208 0.931 . S
H3225 C3213 0.930 . S
H3226 C3214 0.956 . S
H3227 C3214 0.961 . S
H3228 C3214 0.961 . S
H3229 C3215 0.958 . S
H3230 C3215 0.961 . S
H3231 C3215 0.960 . S
C3232 C3233 1.391 . S
C3232 C3234 1.394 . S
C3232 H3248 0.931 . S
C3233 C3232 1.391 . S
C3233 C3237 1.376 . S
C3234 C3232 1.394 . S
C3234 C3235 1.369 . S
C3234 C3238 1.531 . S
C3235 C3234 1.369 . S
C3235 C3236 1.410 . S
C3235 C3243 1.503 . S
C3236 C3235 1.410 . S
C3236 C3237 1.392 . S
C3236 C3239 1.511 . S
C3237 C3233 1.376 . S
C3237 C3236 1.392 . S
C3237 H3249 0.929 . S
C3238 C3234 1.531 . S
C3238 H3250 0.960 . S
C3238 H3251 0.962 . S
C3238 H3252 0.960 . S
C3239 C3236 1.511 . S
C3239 H3253 0.961 . S
C3239 H3254 0.961 . S
C3239 H3255 0.961 . S
C3240 C3241 1.370 . S
C3240 C3242 1.363 . S
C3240 H3256 0.931 . S
C3241 C3240 1.370 . S
C3241 C3245 1.408 . S
C3242 C3240 1.363 . S
C3242 C3243 1.370 . S
C3242 C3246 1.524 . S
C3243 C3235 1.503 . S
C3243 C3242 1.370 . S
C3243 C3244 1.403 . S
C3244 C3243 1.403 . S
C3244 C3245 1.404 . S
C3244 C3247 1.539 . S
C3245 C3241 1.408 . S
C3245 C3244 1.404 . S
C3245 H3257 0.930 . S
C3246 C3242 1.524 . S
C3246 H3258 0.956 . S
C3246 H3259 0.961 . S
C3246 H3260 0.961 . S
C3247 C3244 1.539 . S
C3247 H3261 0.958 . S
C3247 H3262 0.961 . S
C3247 H3263 0.960 . S
H3248 C3232 0.931 . S
H3249 C3237 0.929 . S
H3250 C3238 0.960 . S
H3251 C3238 0.962 . S
H3252 C3238 0.960 . S
H3253 C3239 0.961 . S
H3254 C3239 0.961 . S
H3255 C3239 0.961 . S
H3256 C3240 0.931 . S
H3257 C3245 0.930 . S
H3258 C3246 0.956 . S
H3259 C3246 0.961 . S
H3260 C3246 0.961 . S
H3261 C3247 0.958 . S
H3262 C3247 0.961 . S
H3263 C3247 0.960 . S
C3264 C3265 1.391 . S
C3264 C3266 1.394 . S
C3264 H3280 0.931 . S
C3265 C3264 1.391 . S
C3265 C3269 1.376 . S
C3266 C3264 1.394 . S
C3266 C3267 1.369 . S
C3266 C3270 1.531 . S
C3267 C3266 1.369 . S
C3267 C3268 1.410 . S
C3267 C3275 1.503 . S
C3268 C3267 1.410 . S
C3268 C3269 1.392 . S
C3268 C3271 1.511 . S
C3269 C3265 1.376 . S
C3269 C3268 1.392 . S
C3269 H3281 0.929 . S
C3270 C3266 1.531 . S
C3270 H3282 0.960 . S
C3270 H3283 0.962 . S
C3270 H3284 0.960 . S
C3271 C3268 1.511 . S
C3271 H3285 0.961 . S
C3271 H3286 0.961 . S
C3271 H3287 0.961 . S
C3272 C3273 1.370 . S
C3272 C3274 1.363 . S
C3272 H3288 0.931 . S
C3273 C3272 1.370 . S
C3273 C3277 1.408 . S
C3274 C3272 1.363 . S
C3274 C3275 1.370 1_554 S
C3274 C3278 1.524 1_554 S
C3275 C3267 1.503 . S
C3275 C3274 1.370 1_556 S
C3275 C3276 1.403 1_556 S
C3276 C3275 1.403 1_554 S
C3276 C3277 1.404 . S
C3276 C3279 1.539 1_554 S
C3277 C3273 1.408 . S
C3277 C3276 1.404 . S
C3277 H3289 0.930 . S
C3278 C3274 1.524 1_556 S
C3278 H3290 0.956 . S
C3278 H3291 0.961 . S
C3278 H3292 0.961 1_556 S
C3279 C3276 1.539 1_556 S
C3279 H3293 0.958 . S
C3279 H3294 0.961 1_556 S
C3279 H3295 0.960 . S
H3280 C3264 0.931 . S
H3281 C3269 0.929 . S
H3282 C3270 0.960 . S
H3283 C3270 0.962 . S
H3284 C3270 0.960 . S
H3285 C3271 0.961 . S
H3286 C3271 0.961 . S
H3287 C3271 0.961 . S
H3288 C3272 0.931 . S
H3289 C3277 0.930 . S
H3290 C3278 0.956 . S
H3291 C3278 0.961 . S
H3292 C3278 0.961 1_554 S
H3293 C3279 0.958 . S
H3294 C3279 0.961 1_554 S
H3295 C3279 0.960 . S
C3296 C3297 1.391 . S
C3296 C3298 1.394 . S
C3296 H3312 0.931 . S
C3297 C3296 1.391 . S
C3297 C3301 1.376 . S
C3298 C3296 1.394 . S
C3298 C3299 1.369 . S
C3298 C3302 1.531 . S
C3299 C3298 1.369 . S
C3299 C3300 1.410 . S
C3299 C3307 1.503 . S
C3300 C3299 1.410 . S
C3300 C3301 1.392 . S
C3300 C3303 1.511 . S
C3301 C3297 1.376 . S
C3301 C3300 1.392 . S
C3301 H3313 0.929 . S
C3302 C3298 1.531 . S
C3302 H3314 0.960 . S
C3302 H3315 0.962 . S
C3302 H3316 0.960 . S
C3303 C3300 1.511 . S
C3303 H3317 0.961 . S
C3303 H3318 0.961 . S
C3303 H3319 0.961 . S
C3304 C3305 1.370 . S
C3304 C3306 1.363 . S
C3304 H3320 0.931 . S
C3305 C3304 1.370 . S
C3305 C3309 1.408 . S
C3306 C3304 1.363 . S
C3306 C3307 1.370 . S
C3306 C3310 1.524 . S
C3307 C3299 1.503 . S
C3307 C3306 1.370 . S
C3307 C3308 1.403 . S
C3308 C3307 1.403 . S
C3308 C3309 1.404 . S
C3308 C3311 1.539 . S
C3309 C3305 1.408 . S
C3309 C3308 1.404 . S
C3309 H3321 0.930 . S
C3310 C3306 1.524 . S
C3310 H3322 0.956 . S
C3310 H3323 0.961 . S
C3310 H3324 0.961 . S
C3311 C3308 1.539 . S
C3311 H3325 0.958 . S
C3311 H3326 0.961 . S
C3311 H3327 0.960 . S
H3312 C3296 0.931 . S
H3313 C3301 0.929 . S
H3314 C3302 0.960 . S
H3315 C3302 0.962 . S
H3316 C3302 0.960 . S
H3317 C3303 0.961 . S
H3318 C3303 0.961 . S
H3319 C3303 0.961 . S
H3320 C3304 0.931 . S
H3321 C3309 0.930 . S
H3322 C3310 0.956 . S
H3323 C3310 0.961 . S
H3324 C3310 0.961 . S
H3325 C3311 0.958 . S
H3326 C3311 0.961 . S
H3327 C3311 0.960 . S
C3328 C3329 1.391 . S
C3328 C3330 1.394 . S
C3328 H3344 0.931 . S
C3329 C3328 1.391 . S
C3329 C3333 1.376 . S
C3330 C3328 1.394 . S
C3330 C3331 1.369 . S
C3330 C3334 1.531 . S
C3331 C3330 1.369 . S
C3331 C3332 1.410 . S
C3331 C3339 1.503 . S
C3332 C3331 1.410 . S
C3332 C3333 1.392 . S
C3332 C3335 1.511 . S
C3333 C3329 1.376 . S
C3333 C3332 1.392 . S
C3333 H3345 0.929 . S
C3334 C3330 1.531 . S
C3334 H3346 0.960 . S
C3334 H3347 0.962 . S
C3334 H3348 0.960 . S
C3335 C3332 1.511 . S
C3335 H3349 0.961 . S
C3335 H3350 0.961 . S
C3335 H3351 0.961 . S
C3336 C3337 1.370 . S
C3336 C3338 1.363 . S
C3336 H3352 0.931 . S
C3337 C3336 1.370 . S
C3337 C3341 1.408 . S
C3338 C3336 1.363 . S
C3338 C3339 1.370 . S
C3338 C3342 1.524 . S
C3339 C3331 1.503 . S
C3339 C3338 1.370 . S
C3339 C3340 1.403 . S
C3340 C3339 1.403 . S
C3340 C3341 1.404 . S
C3340 C3343 1.539 . S
C3341 C3337 1.408 . S
C3341 C3340 1.404 . S
C3341 H3353 0.930 . S
C3342 C3338 1.524 . S
C3342 H3354 0.956 . S
C3342 H3355 0.961 . S
C3342 H3356 0.961 . S
C3343 C3340 1.539 . S
C3343 H3357 0.958 . S
C3343 H3358 0.961 . S
C3343 H3359 0.960 . S
H3344 C3328 0.931 . S
H3345 C3333 0.929 . S
H3346 C3334 0.960 . S
H3347 C3334 0.962 . S
H3348 C3334 0.960 . S
H3349 C3335 0.961 . S
H3350 C3335 0.961 . S
H3351 C3335 0.961 . S
H3352 C3336 0.931 . S
H3353 C3341 0.930 . S
H3354 C3342 0.956 . S
H3355 C3342 0.961 . S
H3356 C3342 0.961 . S
H3357 C3343 0.958 . S
H3358 C3343 0.961 . S
H3359 C3343 0.960 . S
C3360 C3361 1.391 . S
C3360 C3362 1.394 . S
C3360 H3376 0.931 . S
C3361 C3360 1.391 . S
C3361 C3365 1.376 . S
C3362 C3360 1.394 . S
C3362 C3363 1.369 . S
C3362 C3366 1.531 . S
C3363 C3362 1.369 . S
C3363 C3364 1.410 . S
C3363 C3371 1.503 . S
C3364 C3363 1.410 . S
C3364 C3365 1.392 . S
C3364 C3367 1.511 . S
C3365 C3361 1.376 . S
C3365 C3364 1.392 . S
C3365 H3377 0.929 . S
C3366 C3362 1.531 . S
C3366 H3378 0.960 . S
C3366 H3379 0.962 . S
C3366 H3380 0.960 . S
C3367 C3364 1.511 . S
C3367 H3381 0.961 . S
C3367 H3382 0.961 . S
C3367 H3383 0.961 . S
C3368 C3369 1.370 . S
C3368 C3370 1.363 . S
C3368 H3384 0.931 . S
C3369 C3368 1.370 . S
C3369 C3373 1.408 . S
C3370 C3368 1.363 . S
C3370 C3371 1.370 . S
C3370 C3374 1.524 . S
C3371 C3363 1.503 . S
C3371 C3370 1.370 . S
C3371 C3372 1.403 . S
C3372 C3371 1.403 . S
C3372 C3373 1.404 . S
C3372 C3375 1.539 . S
C3373 C3369 1.408 . S
C3373 C3372 1.404 . S
C3373 H3385 0.930 . S
C3374 C3370 1.524 . S
C3374 H3386 0.956 . S
C3374 H3387 0.961 . S
C3374 H3388 0.961 . S
C3375 C3372 1.539 . S
C3375 H3389 0.958 . S
C3375 H3390 0.961 . S
C3375 H3391 0.960 . S
H3376 C3360 0.931 . S
H3377 C3365 0.929 . S
H3378 C3366 0.960 . S
H3379 C3366 0.962 . S
H3380 C3366 0.960 . S
H3381 C3367 0.961 . S
H3382 C3367 0.961 . S
H3383 C3367 0.961 . S
H3384 C3368 0.931 . S
H3385 C3373 0.930 . S
H3386 C3374 0.956 . S
H3387 C3374 0.961 . S
H3388 C3374 0.961 . S
H3389 C3375 0.958 . S
H3390 C3375 0.961 . S
H3391 C3375 0.960 . S
C3392 C3393 1.391 . S
C3392 C3394 1.394 . S
C3392 H3408 0.931 . S
C3393 C3392 1.391 . S
C3393 C3397 1.376 . S
C3394 C3392 1.394 . S
C3394 C3395 1.369 . S
C3394 C3398 1.531 . S
C3395 C3394 1.369 . S
C3395 C3396 1.410 . S
C3395 C3403 1.503 . S
C3396 C3395 1.410 . S
C3396 C3397 1.392 . S
C3396 C3399 1.511 . S
C3397 C3393 1.376 . S
C3397 C3396 1.392 . S
C3397 H3409 0.929 . S
C3398 C3394 1.531 . S
C3398 H3410 0.960 . S
C3398 H3411 0.962 . S
C3398 H3412 0.960 . S
C3399 C3396 1.511 . S
C3399 H3413 0.961 . S
C3399 H3414 0.961 . S
C3399 H3415 0.961 . S
C3400 C3401 1.370 . S
C3400 C3402 1.312 1_556 S
C3400 H3416 0.931 . S
C3401 C3400 1.370 . S
C3401 C3405 1.408 . S
C3402 C3400 1.312 1_554 S
C3402 C3403 1.391 . S
C3402 C3406 1.555 . S
C3403 C3395 1.503 . S
C3403 C3402 1.391 . S
C3403 C3404 1.403 1_554 S
C3404 C3403 1.403 1_556 S
C3404 C3405 1.404 . S
C3404 C3407 1.539 1_556 S
C3405 C3401 1.408 . S
C3405 C3404 1.404 . S
C3405 H3417 0.930 . S
C3406 C3402 1.555 . S
C3406 H3418 0.956 . S
C3406 H3419 0.961 . S
C3406 H3420 0.961 . S
C3407 C3404 1.539 1_554 S
C3407 H3421 0.958 . S
C3407 H3422 0.961 1_554 S
C3407 H3423 0.960 . S
H3408 C3392 0.931 . S
H3409 C3397 0.929 . S
H3410 C3398 0.960 . S
H3411 C3398 0.962 . S
H3412 C3398 0.960 . S
H3413 C3399 0.961 . S
H3414 C3399 0.961 . S
H3415 C3399 0.961 . S
H3416 C3400 0.931 . S
H3417 C3405 0.930 . S
H3418 C3406 0.956 . S
H3419 C3406 0.961 . S
H3420 C3406 0.961 . S
H3421 C3407 0.958 . S
H3422 C3407 0.961 1_556 S
H3423 C3407 0.960 . S
C3424 C3425 1.391 . S
C3424 C3426 1.394 . S
C3424 H3440 0.931 . S
C3425 C3424 1.391 . S
C3425 C3429 1.376 . S
C3426 C3424 1.394 . S
C3426 C3427 1.369 . S
C3426 C3430 1.531 . S
C3427 C3426 1.369 . S
C3427 C3428 1.410 . S
C3427 C3435 1.503 . S
C3428 C3427 1.410 . S
C3428 C3429 1.392 . S
C3428 C3431 1.511 . S
C3429 C3425 1.376 . S
C3429 C3428 1.392 . S
C3429 H3441 0.929 . S
C3430 C3426 1.531 . S
C3430 H3442 0.960 . S
C3430 H3443 0.962 . S
C3430 H3444 0.960 . S
C3431 C3428 1.511 . S
C3431 H3445 0.961 . S
C3431 H3446 0.961 . S
C3431 H3447 0.961 . S
C3432 C3433 1.370 . S
C3432 C3434 1.363 . S
C3432 H3448 0.931 . S
C3433 C3432 1.370 . S
C3433 C3437 1.408 . S
C3434 C3432 1.363 . S
C3434 C3435 1.370 . S
C3434 C3438 1.524 . S
C3435 C3427 1.503 . S
C3435 C3434 1.370 . S
C3435 C3436 1.403 . S
C3436 C3435 1.403 . S
C3436 C3437 1.404 . S
C3436 C3439 1.539 . S
C3437 C3433 1.408 . S
C3437 C3436 1.404 . S
C3437 H3449 0.930 . S
C3438 C3434 1.524 . S
C3438 H3450 0.956 . S
C3438 H3451 0.961 . S
C3438 H3452 0.961 . S
C3439 C3436 1.539 . S
C3439 H3453 0.958 . S
C3439 H3454 0.961 . S
C3439 H3455 0.960 . S
H3440 C3424 0.931 . S
H3441 C3429 0.929 . S
H3442 C3430 0.960 . S
H3443 C3430 0.962 . S
H3444 C3430 0.960 . S
H3445 C3431 0.961 . S
H3446 C3431 0.961 . S
H3447 C3431 0.961 . S
H3448 C3432 0.931 . S
H3449 C3437 0.930 . S
H3450 C3438 0.956 . S
H3451 C3438 0.961 . S
H3452 C3438 0.961 . S
H3453 C3439 0.958 . S
H3454 C3439 0.961 . S
H3455 C3439 0.960 . S
C3456 C3457 1.391 . S
C3456 C3458 1.394 . S
C3456 H3472 0.931 . S
C3457 C3456 1.391 . S
C3457 C3461 1.376 . S
C3458 C3456 1.394 . S
C3458 C3459 1.369 . S
C3458 C3462 1.531 . S
C3459 C3458 1.369 . S
C3459 C3460 1.410 . S
C3459 C3467 1.503 . S
C3460 C3459 1.410 . S
C3460 C3461 1.392 . S
C3460 C3463 1.511 . S
C3461 C3457 1.376 . S
C3461 C3460 1.392 . S
C3461 H3473 0.929 . S
C3462 C3458 1.531 . S
C3462 H3474 0.960 . S
C3462 H3475 0.962 . S
C3462 H3476 0.960 . S
C3463 C3460 1.511 . S
C3463 H3477 0.961 . S
C3463 H3478 0.961 . S
C3463 H3479 0.961 . S
C3464 C3465 1.370 . S
C3464 C3466 1.363 . S
C3464 H3480 0.931 . S
C3465 C3464 1.370 . S
C3465 C3469 1.408 . S
C3466 C3464 1.363 . S
C3466 C3467 1.370 . S
C3466 C3470 1.524 . S
C3467 C3459 1.503 . S
C3467 C3466 1.370 . S
C3467 C3468 1.403 . S
C3468 C3467 1.403 . S
C3468 C3469 1.404 . S
C3468 C3471 1.539 . S
C3469 C3465 1.408 . S
C3469 C3468 1.404 . S
C3469 H3481 0.930 . S
C3470 C3466 1.524 . S
C3470 H3482 0.956 . S
C3470 H3483 0.961 . S
C3470 H3484 0.961 . S
C3471 C3468 1.539 . S
C3471 H3485 0.958 . S
C3471 H3486 0.961 . S
C3471 H3487 0.960 . S
H3472 C3456 0.931 . S
H3473 C3461 0.929 . S
H3474 C3462 0.960 . S
H3475 C3462 0.962 . S
H3476 C3462 0.960 . S
H3477 C3463 0.961 . S
H3478 C3463 0.961 . S
H3479 C3463 0.961 . S
H3480 C3464 0.931 . S
H3481 C3469 0.930 . S
H3482 C3470 0.956 . S
H3483 C3470 0.961 . S
H3484 C3470 0.961 . S
H3485 C3471 0.958 . S
H3486 C3471 0.961 . S
H3487 C3471 0.960 . S
C3488 C3489 1.391 . S
C3488 C3490 1.394 . S
C3488 H3504 0.931 . S
C3489 C3488 1.391 . S
C3489 C3493 1.376 . S
C3490 C3488 1.394 . S
C3490 C3491 1.369 . S
C3490 C3494 1.531 . S
C3491 C3490 1.369 . S
C3491 C3492 1.410 . S
C3491 C3499 1.503 . S
C3492 C3491 1.410 . S
C3492 C3493 1.392 . S
C3492 C3495 1.511 . S
C3493 C3489 1.376 . S
C3493 C3492 1.392 . S
C3493 H3505 0.929 . S
C3494 C3490 1.531 . S
C3494 H3506 0.960 . S
C3494 H3507 0.962 . S
C3494 H3508 0.960 . S
C3495 C3492 1.511 . S
C3495 H3509 0.961 . S
C3495 H3510 0.961 . S
C3495 H3511 0.961 . S
C3496 C3497 1.370 . S
C3496 C3498 1.363 . S
C3496 H3512 0.931 . S
C3497 C3496 1.370 . S
C3497 C3501 1.408 . S
C3498 C3496 1.363 . S
C3498 C3499 1.370 . S
C3498 C3502 1.524 . S
C3499 C3491 1.503 . S
C3499 C3498 1.370 . S
C3499 C3500 1.403 . S
C3500 C3499 1.403 . S
C3500 C3501 1.404 . S
C3500 C3503 1.539 . S
C3501 C3497 1.408 . S
C3501 C3500 1.404 . S
C3501 H3513 0.930 . S
C3502 C3498 1.524 . S
C3502 H3514 0.956 . S
C3502 H3515 0.961 . S
C3502 H3516 0.961 . S
C3503 C3500 1.539 . S
C3503 H3517 0.958 . S
C3503 H3518 0.961 . S
C3503 H3519 0.960 . S
H3504 C3488 0.931 . S
H3505 C3493 0.929 . S
H3506 C3494 0.960 . S
H3507 C3494 0.962 . S
H3508 C3494 0.960 . S
H3509 C3495 0.961 . S
H3510 C3495 0.961 . S
H3511 C3495 0.961 . S
H3512 C3496 0.931 . S
H3513 C3501 0.930 . S
H3514 C3502 0.956 . S
H3515 C3502 0.961 . S
H3516 C3502 0.961 . S
H3517 C3503 0.958 . S
H3518 C3503 0.961 . S
H3519 C3503 0.960 . S
C3520 C3521 1.391 . S
C3520 C3522 1.394 . S
C3520 H3536 0.931 . S
C3521 C3520 1.391 . S
C3521 C3525 1.376 . S
C3522 C3520 1.394 . S
C3522 C3523 1.369 . S
C3522 C3526 1.531 . S
C3523 C3522 1.369 . S
C3523 C3524 1.410 . S
C3523 C3531 1.503 . S
C3524 C3523 1.410 . S
C3524 C3525 1.392 . S
C3524 C3527 1.511 . S
C3525 C3521 1.376 . S
C3525 C3524 1.392 . S
C3525 H3537 0.929 . S
C3526 C3522 1.531 . S
C3526 H3538 0.960 . S
C3526 H3539 0.962 . S
C3526 H3540 0.960 . S
C3527 C3524 1.511 . S
C3527 H3541 0.961 . S
C3527 H3542 0.961 . S
C3527 H3543 0.961 . S
C3528 C3529 1.370 . S
C3528 C3530 1.363 . S
C3528 H3544 0.931 . S
C3529 C3528 1.370 . S
C3529 C3533 1.408 . S
C3530 C3528 1.363 . S
C3530 C3531 1.370 . S
C3530 C3534 1.524 . S
C3531 C3523 1.503 . S
C3531 C3530 1.370 . S
C3531 C3532 1.403 . S
C3532 C3531 1.403 . S
C3532 C3533 1.404 . S
C3532 C3535 1.539 . S
C3533 C3529 1.408 . S
C3533 C3532 1.404 . S
C3533 H3545 0.930 . S
C3534 C3530 1.524 . S
C3534 H3546 0.956 . S
C3534 H3547 0.961 . S
C3534 H3548 0.961 . S
C3535 C3532 1.539 . S
C3535 H3549 0.958 . S
C3535 H3550 0.961 . S
C3535 H3551 0.960 . S
H3536 C3520 0.931 . S
H3537 C3525 0.929 . S
H3538 C3526 0.960 . S
H3539 C3526 0.962 . S
H3540 C3526 0.960 . S
H3541 C3527 0.961 . S
H3542 C3527 0.961 . S
H3543 C3527 0.961 . S
H3544 C3528 0.931 . S
H3545 C3533 0.930 . S
H3546 C3534 0.956 . S
H3547 C3534 0.961 . S
H3548 C3534 0.961 . S
H3549 C3535 0.958 . S
H3550 C3535 0.961 . S
H3551 C3535 0.960 . S
C3552 C3553 1.391 . S
C3552 C3554 1.394 . S
C3552 H3568 0.931 . S
C3553 C3552 1.391 . S
C3553 C3557 1.376 . S
C3554 C3552 1.394 . S
C3554 C3555 1.369 . S
C3554 C3558 1.531 . S
C3555 C3554 1.369 . S
C3555 C3556 1.410 . S
C3555 C3563 1.503 . S
C3556 C3555 1.410 . S
C3556 C3557 1.392 . S
C3556 C3559 1.511 . S
C3557 C3553 1.376 . S
C3557 C3556 1.392 . S
C3557 H3569 0.929 . S
C3558 C3554 1.531 . S
C3558 H3570 0.960 . S
C3558 H3571 0.962 . S
C3558 H3572 0.960 . S
C3559 C3556 1.511 . S
C3559 H3573 0.961 . S
C3559 H3574 0.961 . S
C3559 H3575 0.961 . S
C3560 C3561 1.370 . S
C3560 C3562 1.363 . S
C3560 H3576 0.931 . S
C3561 C3560 1.370 . S
C3561 C3565 1.408 . S
C3562 C3560 1.363 . S
C3562 C3563 1.370 1_545 S
C3562 C3566 1.524 1_545 S
C3563 C3555 1.503 . S
C3563 C3562 1.370 1_565 S
C3563 C3564 1.403 1_565 S
C3564 C3563 1.403 1_545 S
C3564 C3565 1.404 . S
C3564 C3567 1.539 1_545 S
C3565 C3561 1.408 . S
C3565 C3564 1.404 . S
C3565 H3577 0.930 . S
C3566 C3562 1.524 1_565 S
C3566 H3578 0.956 . S
C3566 H3579 0.961 . S
C3566 H3580 0.961 1_565 S
C3567 C3564 1.539 1_565 S
C3567 H3581 0.958 . S
C3567 H3582 0.961 . S
C3567 H3583 0.960 . S
H3568 C3552 0.931 . S
H3569 C3557 0.929 . S
H3570 C3558 0.960 . S
H3571 C3558 0.962 . S
H3572 C3558 0.960 . S
H3573 C3559 0.961 . S
H3574 C3559 0.961 . S
H3575 C3559 0.961 . S
H3576 C3560 0.931 . S
H3577 C3565 0.930 . S
H3578 C3566 0.956 . S
H3579 C3566 0.961 . S
H3580 C3566 0.961 1_545 S
H3581 C3567 0.958 . S
H3582 C3567 0.961 . S
H3583 C3567 0.960 . S
C3584 C3585 1.391 . S
C3584 C3586 1.394 . S
C3584 H3600 0.931 . S
C3585 C3584 1.391 . S
C3585 C3589 1.376 . S
C3586 C3584 1.394 . S
C3586 C3587 1.369 . S
C3586 C3590 1.531 . S
C3587 C3586 1.369 . S
C3587 C3588 1.410 . S
C3587 C3595 1.503 . S
C3588 C3587 1.410 . S
C3588 C3589 1.392 . S
C3588 C3591 1.511 . S
C3589 C3585 1.376 . S
C3589 C3588 1.392 . S
C3589 H3601 0.929 . S
C3590 C3586 1.531 . S
C3590 H3602 0.960 . S
C3590 H3603 0.962 . S
C3590 H3604 0.960 . S
C3591 C3588 1.511 . S
C3591 H3605 0.961 . S
C3591 H3606 0.961 . S
C3591 H3607 0.961 . S
C3592 C3593 1.370 . S
C3592 C3594 1.363 . S
C3592 H3608 0.931 . S
C3593 C3592 1.370 . S
C3593 C3597 1.408 . S
C3594 C3592 1.363 . S
C3594 C3595 1.370 . S
C3594 C3598 1.524 . S
C3595 C3587 1.503 . S
C3595 C3594 1.370 . S
C3595 C3596 1.403 . S
C3596 C3595 1.403 . S
C3596 C3597 1.404 . S
C3596 C3599 1.539 . S
C3597 C3593 1.408 . S
C3597 C3596 1.404 . S
C3597 H3609 0.930 . S
C3598 C3594 1.524 . S
C3598 H3610 0.956 . S
C3598 H3611 0.961 . S
C3598 H3612 0.961 . S
C3599 C3596 1.539 . S
C3599 H3613 0.958 . S
C3599 H3614 0.961 . S
C3599 H3615 0.960 . S
H3600 C3584 0.931 . S
H3601 C3589 0.929 . S
H3602 C3590 0.960 . S
H3603 C3590 0.962 . S
H3604 C3590 0.960 . S
H3605 C3591 0.961 . S
H3606 C3591 0.961 . S
H3607 C3591 0.961 . S
H3608 C3592 0.931 . S
H3609 C3597 0.930 . S
H3610 C3598 0.956 . S
H3611 C3598 0.961 . S
H3612 C3598 0.961 . S
H3613 C3599 0.958 . S
H3614 C3599 0.961 . S
H3615 C3599 0.960 . S
C3616 C3617 1.391 . S
C3616 C3618 1.394 . S
C3616 H3632 0.931 . S
C3617 C3616 1.391 . S
C3617 C3621 1.376 . S
C3618 C3616 1.394 . S
C3618 C3619 1.369 . S
C3618 C3622 1.531 . S
C3619 C3618 1.369 . S
C3619 C3620 1.410 . S
C3619 C3627 1.503 . S
C3620 C3619 1.410 . S
C3620 C3621 1.392 . S
C3620 C3623 1.511 . S
C3621 C3617 1.376 . S
C3621 C3620 1.392 . S
C3621 H3633 0.929 . S
C3622 C3618 1.531 . S
C3622 H3634 0.960 . S
C3622 H3635 0.962 . S
C3622 H3636 0.960 . S
C3623 C3620 1.511 . S
C3623 H3637 0.961 . S
C3623 H3638 0.961 . S
C3623 H3639 0.961 . S
C3624 C3625 1.370 . S
C3624 C3626 1.363 . S
C3624 H3640 0.931 . S
C3625 C3624 1.370 . S
C3625 C3629 1.408 . S
C3626 C3624 1.363 . S
C3626 C3627 1.370 . S
C3626 C3630 1.524 . S
C3627 C3619 1.503 . S
C3627 C3626 1.370 . S
C3627 C3628 1.403 . S
C3628 C3627 1.403 . S
C3628 C3629 1.404 . S
C3628 C3631 1.539 . S
C3629 C3625 1.408 . S
C3629 C3628 1.404 . S
C3629 H3641 0.930 . S
C3630 C3626 1.524 . S
C3630 H3642 0.956 . S
C3630 H3643 0.961 . S
C3630 H3644 0.961 . S
C3631 C3628 1.539 . S
C3631 H3645 0.958 . S
C3631 H3646 0.961 . S
C3631 H3647 0.960 . S
H3632 C3616 0.931 . S
H3633 C3621 0.929 . S
H3634 C3622 0.960 . S
H3635 C3622 0.962 . S
H3636 C3622 0.960 . S
H3637 C3623 0.961 . S
H3638 C3623 0.961 . S
H3639 C3623 0.961 . S
H3640 C3624 0.931 . S
H3641 C3629 0.930 . S
H3642 C3630 0.956 . S
H3643 C3630 0.961 . S
H3644 C3630 0.961 . S
H3645 C3631 0.958 . S
H3646 C3631 0.961 . S
H3647 C3631 0.960 . S
C3648 C3649 1.391 . S
C3648 C3650 1.394 . S
C3648 H3664 0.931 . S
C3649 C3648 1.391 . S
C3649 C3653 1.376 . S
C3650 C3648 1.394 . S
C3650 C3651 1.369 . S
C3650 C3654 1.531 . S
C3651 C3650 1.369 . S
C3651 C3652 1.410 . S
C3651 C3659 1.503 . S
C3652 C3651 1.410 . S
C3652 C3653 1.392 . S
C3652 C3655 1.511 . S
C3653 C3649 1.376 . S
C3653 C3652 1.392 . S
C3653 H3665 0.929 . S
C3654 C3650 1.531 . S
C3654 H3666 0.960 . S
C3654 H3667 0.962 . S
C3654 H3668 0.960 . S
C3655 C3652 1.511 . S
C3655 H3669 0.961 . S
C3655 H3670 0.961 . S
C3655 H3671 0.961 . S
C3656 C3657 1.370 . S
C3656 C3658 1.363 . S
C3656 H3672 0.931 . S
C3657 C3656 1.370 . S
C3657 C3661 1.408 . S
C3658 C3656 1.363 . S
C3658 C3659 1.370 . S
C3658 C3662 1.524 . S
C3659 C3651 1.503 . S
C3659 C3658 1.370 . S
C3659 C3660 1.403 . S
C3660 C3659 1.403 . S
C3660 C3661 1.404 . S
C3660 C3663 1.539 . S
C3661 C3657 1.408 . S
C3661 C3660 1.404 . S
C3661 H3673 0.930 . S
C3662 C3658 1.524 . S
C3662 H3674 0.956 . S
C3662 H3675 0.961 . S
C3662 H3676 0.961 . S
C3663 C3660 1.539 . S
C3663 H3677 0.958 . S
C3663 H3678 0.961 . S
C3663 H3679 0.960 . S
H3664 C3648 0.931 . S
H3665 C3653 0.929 . S
H3666 C3654 0.960 . S
H3667 C3654 0.962 . S
H3668 C3654 0.960 . S
H3669 C3655 0.961 . S
H3670 C3655 0.961 . S
H3671 C3655 0.961 . S
H3672 C3656 0.931 . S
H3673 C3661 0.930 . S
H3674 C3662 0.956 . S
H3675 C3662 0.961 . S
H3676 C3662 0.961 . S
H3677 C3663 0.958 . S
H3678 C3663 0.961 . S
H3679 C3663 0.960 . S
C3680 C3681 1.391 . S
C3680 C3682 1.394 . S
C3680 H3696 0.931 . S
C3681 C3680 1.391 . S
C3681 C3685 1.376 . S
C3682 C3680 1.394 . S
C3682 C3683 1.369 1_565 S
C3682 C3686 1.537 . S
C3683 C3682 1.369 1_545 S
C3683 C3684 1.399 1_545 S
C3683 C3691 1.503 . S
C3684 C3683 1.399 1_565 S
C3684 C3685 1.428 . S
C3684 C3687 1.488 1_565 S
C3685 C3681 1.376 . S
C3685 C3684 1.428 . S
C3685 H3697 0.929 . S
C3686 C3682 1.537 . S
C3686 H3698 0.940 1_565 S
C3686 H3699 0.962 . S
C3686 H3700 0.974 . S
C3687 C3684 1.488 1_545 S
C3687 H3701 0.961 . S
C3687 H3702 0.961 . S
C3687 H3703 0.961 . S
C3688 C3689 1.370 . S
C3688 C3690 1.363 . S
C3688 H3704 0.931 . S
C3689 C3688 1.370 . S
C3689 C3693 1.408 . S
C3690 C3688 1.363 . S
C3690 C3691 1.370 . S
C3690 C3694 1.524 . S
C3691 C3683 1.503 . S
C3691 C3690 1.370 . S
C3691 C3692 1.403 . S
C3692 C3691 1.403 . S
C3692 C3693 1.404 . S
C3692 C3695 1.539 . S
C3693 C3689 1.408 . S
C3693 C3692 1.404 . S
C3693 H3705 0.930 . S
C3694 C3690 1.524 . S
C3694 H3706 0.956 . S
C3694 H3707 0.961 . S
C3694 H3708 0.961 . S
C3695 C3692 1.539 . S
C3695 H3709 0.958 . S
C3695 H3710 0.961 . S
C3695 H3711 0.960 . S
H3696 C3680 0.931 . S
H3697 C3685 0.929 . S
H3698 C3686 0.940 1_545 S
H3699 C3686 0.962 . S
H3700 C3686 0.974 . S
H3701 C3687 0.961 . S
H3702 C3687 0.961 . S
H3703 C3687 0.961 . S
H3704 C3688 0.931 . S
H3705 C3693 0.930 . S
H3706 C3694 0.956 . S
H3707 C3694 0.961 . S
H3708 C3694 0.961 . S
H3709 C3695 0.958 . S
H3710 C3695 0.961 . S
H3711 C3695 0.960 . S
C3712 C3713 1.391 . S
C3712 C3714 1.394 . S
C3712 H3728 0.931 . S
C3713 C3712 1.391 . S
C3713 C3717 1.376 . S
C3714 C3712 1.394 . S
C3714 C3715 1.369 . S
C3714 C3718 1.531 . S
C3715 C3714 1.369 . S
C3715 C3716 1.410 . S
C3715 C3723 1.503 . S
C3716 C3715 1.410 . S
C3716 C3717 1.392 . S
C3716 C3719 1.511 . S
C3717 C3713 1.376 . S
C3717 C3716 1.392 . S
C3717 H3729 0.929 . S
C3718 C3714 1.531 . S
C3718 H3730 0.960 . S
C3718 H3731 0.962 . S
C3718 H3732 0.960 . S
C3719 C3716 1.511 . S
C3719 H3733 0.961 . S
C3719 H3734 0.961 . S
C3719 H3735 0.961 . S
C3720 C3721 1.370 . S
C3720 C3722 1.363 . S
C3720 H3736 0.931 . S
C3721 C3720 1.370 . S
C3721 C3725 1.408 . S
C3722 C3720 1.363 . S
C3722 C3723 1.370 1_545 S
C3722 C3726 1.524 1_545 S
C3723 C3715 1.503 . S
C3723 C3722 1.370 1_565 S
C3723 C3724 1.403 1_565 S
C3724 C3723 1.403 1_545 S
C3724 C3725 1.404 . S
C3724 C3727 1.539 1_545 S
C3725 C3721 1.408 . S
C3725 C3724 1.404 . S
C3725 H3737 0.930 . S
C3726 C3722 1.524 1_565 S
C3726 H3738 0.956 . S
C3726 H3739 0.961 . S
C3726 H3740 0.942 1_565 S
C3727 C3724 1.539 1_565 S
C3727 H3741 0.964 . S
C3727 H3742 0.961 1_565 S
C3727 H3743 0.960 . S
H3728 C3712 0.931 . S
H3729 C3717 0.929 . S
H3730 C3718 0.960 . S
H3731 C3718 0.962 . S
H3732 C3718 0.960 . S
H3733 C3719 0.961 . S
H3734 C3719 0.961 . S
H3735 C3719 0.961 . S
H3736 C3720 0.931 . S
H3737 C3725 0.930 . S
H3738 C3726 0.956 . S
H3739 C3726 0.961 . S
H3740 C3726 0.942 1_545 S
H3741 C3727 0.964 . S
H3742 C3727 0.961 1_545 S
H3743 C3727 0.960 . S
C673 C591 1.362 . S
C681 C3 1.393 . S
C705 C23 1.395 . S
C713 C217 1.389 . S
C737 C31 1.379 . S
C745 C563 1.371 . S
C769 C51 1.370 . S
C777 C245 1.385 . S
C801 C623 1.388 . S
C809 C63 1.355 . S
C833 C78 1.386 . S
C841 C297 1.379 . S
C865 C91 1.330 . S
C873 C651 1.382 . S
C897 C106 1.364 . S
C905 C269 1.339 . S
C929 C50 1.376 . S
C937 C661 1.346 . S
C961 C7 1.359 . S
C969 C357 1.373 . S
C993 C371 1.369 . S
C1001 C22 1.368 . S
C1025 C35 1.317 . S
C1033 C339 1.365 . S
C1057 C79 1.408 . S
C1065 C343 1.403 . S
C1089 C87 1.385 . S
C1097 C665 1.386 . S
C1121 C107 1.398 . S
C1129 C353 1.386 . S
C1153 C59 1.393 . S
C1161 C367 1.385 . S
C1185 C549 1.381 . S
C1193 C120 1.377 . S
C1217 C134 1.341 . S
C1225 C273 1.362 . S
C1249 C121 1.376 . S
C1257 C619 1.365 . S
C1281 C301 1.413 . S
C1289 C149 1.405 . S
C1313 C311 1.378 . S
C1321 C162 1.368 . S
C1345 C577 1.388 . S
C1353 C177 1.406 . S
C1377 C595 1.405 . S
C1385 C191 1.398 . S
C1409 C567 1.409 . S
C1417 C205 1.408 . S
C1441 C465 1.305 . S
C1449 C218 1.343 . S
C1473 C233 1.389 . S
C1481 C9 1.350 . S
C1505 C246 1.346 . S
C1513 C437 1.328 . S
C1537 C37 1.375 . S
C1545 C261 1.411 . S
C1569 C275 1.345 . S
C1577 C497 1.358 . S
C1601 C92 1.371 . S
C1609 C288 1.365 . S
C1633 C303 1.349 . S
C1641 C525 1.355 . S
C1665 C64 1.391 . S
C1673 C316 1.394 . S
C1697 C535 1.344 . S
C1705 C260 1.355 . S
C1729 C219 1.366 . S
C1737 C143 1.357 . S
C1761 C161 1.352 . S
C1769 C232 1.353 . S
C1793 C133 1.363 . S
C1801 C247 1.367 . S
C1825 C129 1.379 . S
C1833 C289 1.393 . S
C1857 C302 1.335 . S
C1865 C539 1.320 . S
C1889 C147 1.405 . S
C1897 C317 1.396 . S
C1921 C274 1.328 . S
C1929 C157 1.308 . S
C1953 C330 1.372 . S
C1961 C428 1.374 . S
C1985 C345 1.435 . S
C1993 C65 1.402 . S
C2017 C331 1.388 . S
C2025 C493 1.378 . S
C2049 C358 1.409 . S
C2057 C93 1.356 . S
C2081 C372 1.360 . S
C2089 C101 1.342 . S
C2113 C456 1.385 . S
C2121 C387 1.393 . S
C2145 C401 1.362 . S
C2153 C469 1.375 . S
C2177 C415 1.394 . S
C2185 C441 1.387 . S
C2209 C423 1.392 . S
C2217 C255 1.385 . S
C2241 C443 1.390 . S
C2249 C553 1.381 . S
C2273 C227 1.354 . S
C2281 C451 1.381 . S
C2305 C471 1.379 . S
C2313 C581 1.396 . S
C2337 C483 1.382 . S
C2345 C287 1.383 . S
C2369 C633 1.324 . S
C2377 C498 1.365 . S
C2401 C511 1.375 . S
C2409 C315 1.376 . S
C2433 C605 1.329 . S
C2441 C526 1.367 . S
C2465 C325 1.374 . S
C2473 C470 1.365 . S
C2497 C413 1.381 . S
C2505 C427 1.347 . S
C2529 C442 1.377 . S
C2537 C385 1.370 . S
C2561 C399 1.356 . S
C2569 C455 1.351 . S
C2593 C499 1.396 . S
C2601 C395 1.380 . S
C2625 C329 1.380 . S
C2633 C507 1.392 . S
C2657 C527 1.396 . S
C2665 C409 1.384 . S
C2689 C479 1.388 . S
C2697 C381 1.365 . S
C2721 C540 1.366 . S
C2729 C213 1.356 . S
C2753 C190 1.335 . S
C2761 C609 1.356 . S
C2785 C283 1.344 . S
C2793 C541 1.380 . S
C2817 C637 1.360 . S
C2825 C204 1.373 . S
C2849 C647 1.350 . S
C2857 C176 1.354 . S
C2881 C163 1.407 . S
C2889 C241 1.397 . S
C2913 C135 1.400 . S
C2921 C259 1.406 . S
C2945 C231 1.384 . S
C2953 C148 1.386 . S
C2977 C554 1.322 . S
C2985 C45 1.325 . S
C3009 C429 1.371 . S
C3017 C569 1.409 . S
C3041 C582 1.341 . S
C3049 C17 1.335 . S
C3073 C597 1.390 . S
C3081 C457 1.357 . S
C3105 C77 1.335 . S
C3113 C611 1.341 . S
C3137 C624 1.363 . S
C3145 C512 1.383 . S
C3169 C639 1.340 . S
C3177 C105 1.346 . S
C3201 C484 1.374 . S
C3209 C652 1.367 . S
C3233 C596 1.344 . S
C3241 C115 1.356 . S
C3265 C203 1.350 . S
C3273 C555 1.371 . S
C3297 C175 1.367 . S
C3305 C568 1.354 . S
C3329 C583 1.357 . S
C3337 C189 1.361 . S
C3361 C625 1.396 . S
C3369 C185 1.384 . S
C3393 C119 1.333 . S
C3401 C638 1.321 . S
C3425 C199 1.373 . S
C3433 C653 1.392 . S
C3457 C610 1.331 . S
C3465 C171 1.310 . S
C3489 C8 1.382 . S
C3497 C666 1.374 . S
C3521 C400 1.378 . S
C3529 C485 1.368 . S
C3553 C73 1.389 . S
C3561 C667 1.397 . S
C3585 C513 1.329 . S
C3593 C414 1.401 . S
C3617 C521 1.325 . S
C3625 C386 1.353 . S
C3649 C373 1.379 . S
C3657 C36 1.388 . S
C3681 C344 1.343 . S
C3689 C49 1.346 . S
C3713 C21 1.407 . S
C3721 C359 1.399 . S
