# Generated by pormake.
# Topology ilc, (8)-cn, num edge types: 1
# Building blocks:
#     Node 0, Type 0, BuildingBlock: TAGTUT_clean_sbu_1, # of connection points: 8
#     Node 1, Type 0, BuildingBlock: TAGTUT_clean_sbu_1, # of connection points: 8
#     Node 2, Type 0, BuildingBlock: TAGTUT_clean_sbu_1, # of connection points: 8
#     Edge 3, Type (0, 0), BuildingBlock: MIFKUJ_clean_linker_0, # of connection points: 2
#     Edge 4, Type (0, 0), BuildingBlock: MIFKUJ_clean_linker_0, # of connection points: 2
#     Edge 5, Type (0, 0), BuildingBlock: MIFKUJ_clean_linker_0, # of connection points: 2
#     Edge 6, Type (0, 0), BuildingBlock: MIFKUJ_clean_linker_0, # of connection points: 2
#     Edge 7, Type (0, 0), BuildingBlock: MIFKUJ_clean_linker_0, # of connection points: 2
#     Edge 8, Type (0, 0), BuildingBlock: MIFKUJ_clean_linker_0, # of connection points: 2
#     Edge 9, Type (0, 0), BuildingBlock: MIFKUJ_clean_linker_0, # of connection points: 2
#     Edge 10, Type (0, 0), BuildingBlock: MIFKUJ_clean_linker_0, # of connection points: 2
#     Edge 11, Type (0, 0), BuildingBlock: MIFKUJ_clean_linker_0, # of connection points: 2
#     Edge 12, Type (0, 0), BuildingBlock: MIFKUJ_clean_linker_0, # of connection points: 2
#     Edge 13, Type (0, 0), BuildingBlock: MIFKUJ_clean_linker_0, # of connection points: 2
#     Edge 14, Type (0, 0), BuildingBlock: MIFKUJ_clean_linker_0, # of connection points: 2
# Relax obj value: 0.128
# Max RMSD: 0.139
# Mean RMSD: 0.139
data_MOF--net-ilc--node1-TAGTUT_clean_sbu_1--edge1-MIFKUJ_clean_linker_0
_symmetry_space_group_name_H-M    P1
_symmetry_Int_Tables_number       1
_symmetry_cell_setting            triclinic
loop_
_symmetry_equiv_pos_as_xyz
'x, y, z'
_cell_length_a     33.369196
_cell_length_b     36.268595
_cell_length_c     17.87763
_cell_angle_alpha  95.295513
_cell_angle_beta   88.195791
_cell_angle_gamma 134.04766
loop_
_atom_site_label
_atom_site_type_symbol
_atom_site_fract_x
_atom_site_fract_y
_atom_site_fract_z
_atom_type_partial_charge
C0 C 0.07231 0.94072 0.15039 0.0
C1 C 0.06968 0.04959 0.22727 0.0
C2 C 0.88109 0.94322 0.04839 0.0
Mg3 Mg 0.11054 0.03891 0.08855 0.0
O4 O 0.03867 0.99006 0.044 0.0
Mg5 Mg 0.97434 0.94176 0.10959 0.0
Mg6 Mg 1.00983 0.01524 0.99383 0.0
O7 O 0.98165 0.04057 0.94135 0.0
Mg8 Mg 0.91211 0.99043 0.88969 0.0
Mg9 Mg 0.04884 0.09045 0.87976 0.0
C10 C 0.14023 0.08847 0.93743 0.0
C11 C 0.07817 0.13619 0.05664 0.0
O12 O 0.02137 0.9194 0.14806 0.0
O13 O 0.11246 0.98572 0.12911 0.0
O14 O 0.02061 1.00434 0.21274 0.0
O15 O 0.10077 0.07587 0.17442 0.0
O16 O 0.15727 0.08321 -0.00506 0.0
O17 O 0.08891 0.06497 0.92724 0.0
C18 C 0.9404 0.89341 0.93335 0.0
O19 O 0.96357 0.93797 0.91458 0.0
O20 O 0.93808 0.88537 0.00249 0.0
O21 O 1.00103 0.11009 0.83355 0.0
O22 O 0.90916 0.04157 0.8437 0.0
O23 O 0.013 0.02799 0.78266 0.0
C24 C 0.94977 0.08724 0.82489 0.0
O25 O 0.92496 0.95566 0.80269 0.0
O26 O 0.8665 0.94759 0.98652 0.0
C27 C 0.96924 0.98033 0.76613 0.0
O28 O 0.93229 0.96723 0.06355 0.0
O29 O 0.05419 0.09101 0.07317 0.0
O30 O 0.08209 0.14608 0.98802 0.0
C31 C 0.77817 0.30308 0.47332 0.0
C32 C 0.74111 0.39212 0.55851 0.0
C33 C 0.5551 0.27203 0.41673 0.0
Mg34 Mg 0.79202 0.3903 0.41885 0.0
O35 O 0.71975 0.33253 0.37547 0.0
Mg36 Mg 0.66191 0.28117 0.44505 0.0
Mg37 Mg 0.67737 0.34637 0.33177 0.0
O38 O 0.63619 0.36241 0.29097 0.0
Mg39 Mg 0.55991 0.31179 0.26559 0.0
Mg40 Mg 0.68961 0.4068 0.21374 0.0
C41 C 0.80072 0.42898 0.26085 0.0
C42 C 0.7374 0.46563 0.38459 0.0
O43 O 0.72515 0.27488 0.47381 0.0
O44 O 0.81228 0.34894 0.45305 0.0
O45 O 0.70048 0.34415 0.53888 0.0
O46 O 0.78316 0.42172 0.51853 0.0
O47 O 0.82492 0.43295 0.31999 0.0
O48 O 0.74707 0.39602 0.2517 0.0
C49 C 0.61821 0.22708 0.27357 0.0
O50 O 0.63346 0.26887 0.2555 0.0
O51 O 0.62427 0.22239 0.3415 0.0
O52 O 0.62971 0.41624 0.17851 0.0
O53 O 0.54502 0.35558 0.22436 0.0
O54 O 0.63978 0.33338 0.12782 0.0
C55 C 0.57923 0.39504 0.18752 0.0
O56 O 0.55634 0.26941 0.17425 0.0
O57 O 0.53008 0.27477 0.36802 0.0
C58 C 0.59233 0.28616 0.12465 0.0
O59 O 0.60657 0.29507 0.41158 0.0
O60 O 0.72261 0.4245 0.40508 0.0
O61 O 0.73018 0.46902 0.31594 0.0
C62 C 0.40413 0.604 0.8155 0.0
C63 C 0.41575 0.73109 0.86987 0.0
C64 C 0.21087 0.60258 0.72267 0.0
Mg65 Mg 0.44258 0.69512 0.73459 0.0
O66 O 0.36781 0.65308 0.70768 0.0
Mg67 Mg 0.30949 0.61177 0.78215 0.0
Mg68 Mg 0.33698 0.67728 0.66062 0.0
O69 O 0.30268 0.6969 0.60927 0.0
Mg70 Mg 0.23205 0.641 0.55975 0.0
Mg71 Mg 0.36587 0.74727 0.54454 0.0
C72 C 0.46111 0.74126 0.58331 0.0
C73 C 0.40356 0.79886 0.71783 0.0
O74 O 0.35682 0.59005 0.82334 0.0
O75 O 0.44284 0.64204 0.77871 0.0
O76 O 0.36506 0.68655 0.86725 0.0
O77 O 0.45119 0.74199 0.82266 0.0
O78 O 0.4794 0.73193 0.63268 0.0
O79 O 0.41266 0.72567 0.58649 0.0
C80 C 0.26459 0.55413 0.61126 0.0
O81 O 0.28889 0.59827 0.58892 0.0
O82 O 0.26421 0.54822 0.68145 0.0
O83 O 0.30924 0.75949 0.50357 0.0
O84 O 0.21972 0.68704 0.51998 0.0
O85 O 0.32925 0.68643 0.45022 0.0
C86 C 0.25643 0.73273 0.49926 0.0
O87 O 0.24338 0.60963 0.46111 0.0
O88 O 0.19055 0.59875 0.65911 0.0
C89 C 0.28827 0.63961 0.42586 0.0
O90 O 0.26371 0.63256 0.73574 0.0
O91 O 0.38404 0.75552 0.73653 0.0
O92 O 0.40145 0.80509 0.64908 0.0
H93 H 0.94646 0.96647 0.61807 0.0
H94 H 0.97977 0.94328 0.52108 0.0
H95 H 0.03931 0.91098 0.69002 0.0
H96 H 1.00834 0.93743 0.78763 0.0
H97 H 0.1206 0.9793 0.60867 0.0
H98 H 0.93423 0.81986 0.54573 0.0
H99 H 0.83588 0.77718 0.53632 0.0
H100 H 0.86782 0.85007 0.3376 0.0
H101 H 0.96682 0.89806 0.35057 0.0
H102 H 0.16347 0.06731 0.22459 0.0
H103 H 0.17593 0.02382 0.3029 0.0
H104 H 0.05943 1.00066 0.45643 0.0
H105 H 0.04032 0.0367 0.3729 0.0
H106 H 0.03895 0.90414 0.35038 0.0
H107 H 0.17512 0.07222 0.57291 0.0
H108 H 0.27002 0.15913 0.57366 0.0
H109 H 0.32085 0.09888 0.42615 0.0
H110 H 0.22662 0.01148 0.42598 0.0
C111 C 0.9646 0.95239 0.63392 0.0
C112 C 0.97398 0.9525 0.70928 0.0
C113 C 0.98365 0.9389 0.57861 0.0
C114 C 1.01151 0.92445 0.59797 0.0
C115 C 0.0173 0.9212 0.67371 0.0
C116 C 0.99916 0.93578 0.72922 0.0
C117 C 0.04351 0.92322 0.5405 0.0
C118 C 0.1021 0.96133 0.5524 0.0
C119 C 0.01998 0.89862 0.46672 0.0
C120 C 0.95864 0.86239 0.44932 0.0
C121 C 0.92018 0.82641 0.49965 0.0
C122 C 0.86453 0.8021 0.4945 0.0
C123 C 0.84573 0.8105 0.43609 0.0
C124 C 0.88246 0.84336 0.38262 0.0
C125 C 0.93871 0.86971 0.38949 0.0
C126 C 0.14132 0.05387 0.27612 0.0
C127 C 0.09876 0.0529 0.29127 0.0
C128 C 0.1486 0.02898 0.3204 0.0
C129 C 0.11626 1.00667 0.38279 0.0
C130 C 0.08266 0.01559 0.40613 0.0
C131 C 0.07265 0.03728 0.35955 0.0
C132 C 0.10989 0.96817 0.41943 0.0
C133 C 0.05641 0.91857 0.40734 0.0
C134 C 0.13601 0.98478 0.49101 0.0
C135 C 0.19451 0.03514 0.50177 0.0
C136 C 0.20725 0.07723 0.54339 0.0
C137 C 0.26071 0.12667 0.54294 0.0
C138 C 0.30163 0.13449 0.50079 0.0
C139 C 0.28938 0.09275 0.45963 0.0
C140 C 0.23605 0.04323 0.46004 0.0
H141 H 0.34263 0.17299 0.49934 0.0
H142 H 0.80291 0.79214 0.43309 0.0
H143 H 0.78029 0.39352 0.68861 0.0
H144 H 0.70046 0.32871 0.76117 0.0
H145 H 0.61158 0.36353 0.67634 0.0
H146 H 0.69075 0.42629 0.60039 0.0
H147 H 0.56701 0.32205 0.79235 0.0
H148 H 0.53929 0.20654 0.58819 0.0
H149 H 0.5602 0.17228 0.48606 0.0
H150 H 0.68605 0.20767 0.62974 0.0
H151 H 0.66616 0.24319 0.73159 0.0
H152 H 0.48638 0.19565 0.08045 0.0
H153 H 0.4548 0.15799 0.95081 0.0
H154 H 0.62651 0.25784 0.88879 0.0
H155 H 0.65811 0.29653 0.01688 0.0
H156 H 0.54457 0.17115 0.77479 0.0
H157 H 0.55569 0.32682 0.93337 0.0
H158 H 0.49508 0.32804 0.01379 0.0
H159 H 0.35104 0.17413 0.92211 0.0
H160 H 0.4107 0.17231 0.84046 0.0
C161 C 0.74484 0.38939 0.68871 0.0
C162 C 0.73832 0.40974 0.63302 0.0
C163 C 0.69824 0.3505 0.72721 0.0
C164 C 0.64768 0.33671 0.71572 0.0
C165 C 0.64831 0.36988 0.67967 0.0
C166 C 0.69465 0.40754 0.63912 0.0
C167 C 0.59557 0.28792 0.74111 0.0
C168 C 0.56141 0.28866 0.78714 0.0
C169 C 0.58301 0.24154 0.72857 0.0
C170 C 0.60363 0.23047 0.66524 0.0
C171 C 0.57349 0.20966 0.59604 0.0
C172 C 0.58426 0.18895 0.53896 0.0
C173 C 0.62465 0.18804 0.55121 0.0
C174 C 0.65514 0.20886 0.62003 0.0
C175 C 0.64437 0.22965 0.67727 0.0
C176 C 0.51742 0.20822 0.03953 0.0
C177 C 0.57475 0.25128 0.05697 0.0
C178 C 0.49906 0.18609 0.96565 0.0
C179 C 0.53811 0.20694 0.90992 0.0
C180 C 0.59536 0.2419 0.93084 0.0
C181 C 0.6137 0.26488 0.00393 0.0
C182 C 0.52466 0.21029 0.8351 0.0
C183 C 0.54738 0.20286 0.77617 0.0
C184 C 0.523 0.24803 0.83122 0.0
C185 C 0.4876 0.24943 0.88079 0.0
C186 C 0.51105 0.2934 0.92998 0.0
C187 C 0.47687 0.29418 0.97589 0.0
C188 C 0.41923 0.25125 0.97296 0.0
C189 C 0.39566 0.20741 0.92425 0.0
C190 C 0.42961 0.20648 0.87817 0.0
H191 H 0.39283 0.25192 0.00846 0.0
H192 H 0.63176 0.1707 0.50749 0.0
H193 H 0.52238 0.82573 0.89581 0.0
H194 H 0.56421 0.87146 0.0196 0.0
H195 H 0.40006 0.77387 0.10915 0.0
H196 H 0.35814 0.72649 0.98691 0.0
H197 H 0.49804 0.8704 0.2114 0.0
H198 H 0.44978 0.69739 0.0489 0.0
H199 H 0.48945 0.68296 0.94554 0.0
H200 H 0.65131 0.83463 0.00077 0.0
H201 H 0.61283 0.84962 0.10588 0.0
H202 H 0.255 0.64761 0.29894 0.0
H203 H 0.33772 0.71638 0.2341 0.0
H204 H 0.42126 0.6737 0.30899 0.0
H205 H 0.33925 0.60689 0.37667 0.0
H206 H 0.46168 0.71198 0.19099 0.0
H207 H 0.46864 0.7942 0.40548 0.0
H208 H 0.46074 0.83406 0.51649 0.0
H209 H 0.40502 0.88118 0.37365 0.0
H210 H 0.41185 0.84073 0.2623 0.0
C211 C 0.49494 0.81497 0.94151 0.0
C212 C 0.43727 0.76993 0.93372 0.0
C213 C 0.51915 0.84207 0.01191 0.0
C214 C 0.48556 0.82402 0.07382 0.0
C215 C 0.42705 0.78738 0.06206 0.0
C216 C 0.40289 0.75943 0.99237 0.0
C217 C 0.50603 0.82385 0.14514 0.0
C218 C 0.49092 0.83622 0.2088 0.0
C219 C 0.50502 0.78424 0.14684 0.0
C220 C 0.52855 0.7745 0.0856 0.0
C221 C 0.49402 0.7274 0.0398 0.0
C222 C 0.51623 0.71917 0.98073 0.0
C223 C 0.5729 0.75779 0.96678 0.0
C224 C 0.60748 0.80469 0.01195 0.0
C225 C 0.58553 0.81305 0.07135 0.0
C226 C 0.28991 0.65098 0.29803 0.0
C227 C 0.29344 0.62622 0.34931 0.0
C228 C 0.33825 0.69213 0.26425 0.0
C229 C 0.38786 0.70395 0.27451 0.0
C230 C 0.38515 0.66835 0.30635 0.0
C231 C 0.33709 0.62841 0.34209 0.0
C232 C 0.44072 0.75152 0.24766 0.0
C233 C 0.47028 0.74698 0.1971 0.0
C234 C 0.45638 0.79944 0.25985 0.0
C235 C 0.43983 0.81341 0.32591 0.0
C236 C 0.45257 0.81115 0.3983 0.0
C237 C 0.44884 0.8344 0.46115 0.0
C238 C 0.43133 0.85932 0.45238 0.0
C239 C 0.41772 0.86114 0.38061 0.0
C240 C 0.42141 0.83792 0.31763 0.0
H241 H 0.42875 0.87757 0.50107 0.0
H242 H 0.58998 0.75141 0.92085 0.0
H243 H 0.30986 0.80825 0.40393 0.0
H244 H 0.27502 0.84007 0.34465 0.0
H245 H 0.12125 0.73557 0.45909 0.0
H246 H 0.15588 0.70318 0.51732 0.0
H247 H 0.10056 0.73555 0.3156 0.0
H248 H 0.22746 0.86478 0.51705 0.0
H249 H 0.31887 0.9256 0.58552 0.0
H250 H 0.39523 0.01359 0.39492 0.0
H251 H 0.30467 0.95156 0.32361 0.0
H252 H 1.00396 0.85152 0.22147 0.0
H253 H 0.0308 0.81372 0.28377 0.0
H254 H 0.19808 0.92933 0.20724 0.0
H255 H 0.17262 0.96922 0.15007 0.0
H256 H 0.20803 0.92188 0.34001 0.0
H257 H 0.09056 0.79143 0.13235 0.0
H258 H 1.00441 0.72582 0.05226 0.0
H259 H 0.91559 0.64217 0.24341 0.0
H260 H 1.001 0.70755 0.32474 0.0
C261 C 0.26916 0.79273 0.41733 0.0
C262 C 0.23632 0.75393 0.46631 0.0
C263 C 0.24897 0.81067 0.38308 0.0
C264 C 0.19567 0.79077 0.39811 0.0
C265 C 0.16251 0.75164 0.44659 0.0
C266 C 0.18254 0.73336 0.48019 0.0
C267 C 0.17465 0.81096 0.36382 0.0
C268 C 0.12373 0.77625 0.32157 0.0
C269 C 0.20536 0.86421 0.37029 0.0
C270 C 0.25926 0.90306 0.41461 0.0
C271 C 0.26377 0.89683 0.48942 0.0
C272 C 0.31555 0.93143 0.52863 0.0
C273 C 0.36291 0.97346 0.49457 0.0
C274 C 0.35855 0.98094 0.42116 0.0
C275 C 0.30702 0.94587 0.38115 0.0
C276 C 0.04639 0.86869 0.21754 0.0
C277 C 0.08619 0.91381 0.18133 0.0
C278 C 0.06167 0.84675 0.25286 0.0
C279 C 0.11656 0.86819 0.25 0.0
C280 C 0.15562 0.91209 0.21125 0.0
C281 C 0.14082 0.93478 0.17794 0.0
C282 C 0.13459 0.8467 0.28926 0.0
C283 C 0.18475 0.88116 0.33349 0.0
C284 C 0.1037 0.79335 0.28332 0.0
C285 C 0.05206 0.75463 0.23472 0.0
C286 C 0.05253 0.75927 0.15738 0.0
C287 C 1.00386 0.72208 0.11175 0.0
C288 C 0.95458 0.67988 0.14275 0.0
C289 C 0.95379 0.67486 0.21947 0.0
C290 C 1.00231 0.71195 0.26533 0.0
H291 H 0.91707 0.65096 0.10728 0.0
H292 H 0.40298 1.00031 0.52511 0.0
H293 H 0.17127 0.45123 0.6197 0.0
H294 H 0.13533 0.37865 0.52802 0.0
H295 H 0.27076 0.48426 0.38487 0.0
H296 H 0.30458 0.55658 0.47517 0.0
H297 H 0.18863 0.4171 0.29863 0.0
H298 H 0.2592 0.39799 0.51122 0.0
H299 H 0.26452 0.38803 0.64434 0.0
H300 H 0.0888 0.25171 0.6333 0.0
H301 H 0.08248 0.26099 0.50021 0.0
H302 H 0.17077 0.23964 0.05959 0.0
H303 H 0.20151 0.30813 0.15634 0.0
H304 H 0.06053 0.19501 0.28653 0.0
H305 H 0.03254 0.12616 0.19256 0.0
H306 H 0.13953 0.26315 0.37946 0.0
H307 H 0.07143 0.27983 0.16285 0.0
H308 H 0.06818 0.28916 0.02873 0.0
H309 H 0.24119 0.43136 0.0471 0.0
H310 H 0.24559 0.4226 0.18109 0.0
C311 C 0.19297 0.45884 0.56826 0.0
C312 C 0.24047 0.50978 0.55419 0.0
C313 C 0.17273 0.41715 0.51587 0.0
C314 C 0.20068 0.42512 0.44921 0.0
C315 C 0.24785 0.47632 0.43513 0.0
C316 C 0.26719 0.51794 0.48663 0.0
C317 C 0.18145 0.38084 0.394 0.0
C318 C 0.17866 0.38384 0.31666 0.0
C319 C 0.16647 0.3361 0.4163 0.0
C320 C 0.17036 0.33034 0.49602 0.0
C321 C 0.22172 0.36598 0.53732 0.0
C322 C 0.22492 0.36043 0.61269 0.0
C323 C 0.17704 0.3193 0.64725 0.0
C324 C 0.12587 0.28352 0.60645 0.0
C325 C 0.12249 0.28882 0.53101 0.0
C326 C 0.14664 0.22941 0.10922 0.0
C327 C 0.09899 0.17746 0.11805 0.0
C328 C 0.16383 0.26874 0.1643 0.0
C329 C 0.13234 0.25754 0.22813 0.0
C330 C 0.0856 0.20531 0.23796 0.0
C331 C 0.06949 0.16579 0.18405 0.0
C332 C 0.14782 0.29995 0.28409 0.0
C333 C 0.14952 0.29643 0.36149 0.0
C334 C 0.162 0.34434 0.26184 0.0
C335 C 0.15888 0.35038 0.18186 0.0
C336 C 0.10876 0.31304 0.13823 0.0
C337 C 0.10674 0.31822 0.06224 0.0
C338 C 0.15446 0.3608 0.02942 0.0
C339 C 0.20423 0.39846 0.07263 0.0
C340 C 0.2065 0.39343 0.1486 0.0
H341 H 0.15288 0.36462 0.97052 0.0
H342 H 0.1796 0.31512 0.70563 0.0
H343 H 0.55919 0.84122 0.58644 0.0
H344 H 0.63236 0.87728 0.49571 0.0
H345 H 0.51983 0.73499 0.35116 0.0
H346 H 0.44767 0.69842 0.44413 0.0
H347 H 0.61258 0.75984 0.37252 0.0
H348 H 0.56744 0.85552 0.31523 0.0
H349 H 0.55565 0.91555 0.34329 0.0
H350 H 0.72799 0.03642 0.41739 0.0
H351 H 0.74057 0.97712 0.39077 0.0
H352 H 0.77027 0.88555 0.02714 0.0
H353 H 0.70154 0.8528 0.12183 0.0
H354 H 0.82141 0.90099 0.29345 0.0
H355 H 0.89272 0.93648 0.19843 0.0
H356 H 0.7304 0.92696 0.26345 0.0
H357 H 0.69929 0.77361 0.40573 0.0
H358 H 0.71338 0.71524 0.38281 0.0
H359 H 0.69825 0.71303 0.14468 0.0
H360 H 0.67997 0.76821 0.16597 0.0
C361 C 0.54956 0.81861 0.53372 0.0
C362 C 0.49719 0.76788 0.52027 0.0
C363 C 0.59143 0.83907 0.48203 0.0
C364 C 0.58158 0.80907 0.41594 0.0
C365 C 0.52835 0.75899 0.40139 0.0
C366 C 0.48677 0.73841 0.45352 0.0
C367 C 0.62775 0.8277 0.36538 0.0
C368 C 0.63822 0.79641 0.34866 0.0
C369 C 0.66237 0.87603 0.33558 0.0
C370 C 0.6547 0.91169 0.35138 0.0
C371 C 0.60262 0.89481 0.3378 0.0
C372 C 0.59582 0.92866 0.35344 0.0
C373 C 0.64095 0.97962 0.38214 0.0
C374 C 0.69302 0.9969 0.39518 0.0
C375 C 0.7 0.96319 0.37978 0.0
C376 C 0.7825 0.889 0.08471 0.0
C377 C 0.83762 0.91441 0.10505 0.0
C378 C 0.74286 0.87021 0.13876 0.0
C379 C 0.75647 0.87482 0.21435 0.0
C380 C 0.81024 0.89719 0.23509 0.0
C381 C 0.85077 0.91712 0.18073 0.0
C382 C 0.71454 0.85889 0.27057 0.0
C383 C 0.70498 0.8907 0.28823 0.0
C384 C 0.68114 0.81134 0.30182 0.0
C385 C 0.69025 0.7767 0.2875 0.0
C386 C 0.69883 0.76061 0.34842 0.0
C387 C 0.70726 0.72787 0.33577 0.0
C388 C 0.70825 0.71169 0.26248 0.0
C389 C 0.69857 0.72647 0.2015 0.0
C390 C 0.68892 0.75835 0.21384 0.0
H391 H 0.71635 0.68758 0.25328 0.0
H392 H 0.63558 1.00574 0.39418 0.0
H393 H 0.88715 0.35663 0.51155 0.0
H394 H 0.92264 0.3241 0.5668 0.0
H395 H 0.75649 0.17156 0.55226 0.0
H396 H 0.72109 0.20337 0.49545 0.0
H397 H 0.8064 0.20404 0.69374 0.0
H398 H 0.85265 0.19906 0.43874 0.0
H399 H 0.89688 0.23205 0.31826 0.0
H400 H 0.05901 0.33525 0.42995 0.0
H401 H 0.01585 0.30383 0.55176 0.0
H402 H 0.84686 0.04729 0.78383 0.0
H403 H 0.82449 0.08909 0.72425 0.0
H404 H 0.99944 0.22913 0.72808 0.0
H405 H 0.02252 0.18695 0.78635 0.0
H406 H 0.95222 0.21083 0.59733 0.0
H407 H 0.90714 0.21572 0.85181 0.0
H408 H 0.86352 0.18256 0.97268 0.0
H409 H 0.70079 0.0808 0.86285 0.0
H410 H 0.74337 0.11284 0.7411 0.0
C411 C 0.85822 0.31599 0.51913 0.0
C412 C 0.80087 0.28278 0.50038 0.0
C413 C 0.87867 0.29748 0.55066 0.0
C414 C 0.84219 0.24544 0.564 0.0
C415 C 0.78535 0.21196 0.54306 0.0
C416 C 0.76505 0.23031 0.51103 0.0
C417 C 0.86209 0.22624 0.60424 0.0
C418 C 0.83787 0.20499 0.67224 0.0
C419 C 0.90474 0.22938 0.57756 0.0
C420 C 0.93086 0.24967 0.50477 0.0
C421 C 0.89772 0.22945 0.438 0.0
C422 C 0.92264 0.24775 0.36939 0.0
C423 C 0.98073 0.28593 0.3666 0.0
C424 C 0.01405 0.30589 0.43242 0.0
C425 C 0.98935 0.28789 0.50127 0.0
C426 C 0.88076 0.0871 0.77256 0.0
C427 C 0.93657 0.11376 0.79045 0.0
C428 C 0.86779 0.1111 0.73872 0.0
C429 C 0.91012 0.16265 0.72288 0.0
C430 C 0.96597 0.18942 0.74015 0.0
C431 C 0.97909 0.16525 0.77365 0.0
C432 C 0.89576 0.18772 0.68626 0.0
C433 C 0.92112 0.21027 0.61921 0.0
C434 C 0.85435 0.18614 0.71395 0.0
C435 C 0.82854 0.16634 0.78709 0.0
C436 C 0.86206 0.18591 0.85326 0.0
C437 C 0.83751 0.16736 0.92197 0.0
C438 C 0.77944 0.12939 0.92534 0.0
C439 C 0.74577 0.11002 0.86006 0.0
C440 C 0.7701 0.12845 0.79122 0.0
H441 H 0.76051 0.11519 0.97862 0.0
H442 H 0.99996 0.29988 0.31338 0.0
H443 H 0.70568 0.51733 0.40139 0.0
H444 H 0.73705 0.58587 0.49773 0.0
H445 H 0.85146 0.58264 0.59358 0.0
H446 H 0.81649 0.51071 0.50005 0.0
H447 H 0.8119 0.59967 0.70286 0.0
H448 H 0.91733 0.7073 0.49111 0.0
H449 H 0.92366 0.72079 0.3566 0.0
H450 H 0.77227 0.68718 0.36357 0.0
H451 H 0.76579 0.67445 0.49847 0.0
H452 H 0.97202 0.84174 0.92278 0.0
H453 H 0.94067 0.77103 0.83107 0.0
H454 H 0.83094 0.77596 0.72239 0.0
H455 H 0.86602 0.84981 0.81144 0.0
H456 H 0.86803 0.75629 0.62086 0.0
H457 H 0.79704 0.68362 0.86026 0.0
H458 H 0.80736 0.67709 0.99334 0.0
H459 H 0.90476 0.64321 0.93161 0.0
H460 H 0.89741 0.65174 0.79873 0.0
C461 C 0.73779 0.53143 0.44273 0.0
C462 C 0.75897 0.50885 0.4425 0.0
C463 C 0.75638 0.57131 0.49752 0.0
C464 C 0.79867 0.59163 0.55178 0.0
C465 C 0.81929 0.56844 0.55231 0.0
C466 C 0.79932 0.52724 0.4987 0.0
C467 C 0.82077 0.63664 0.60758 0.0
C468 C 0.82474 0.6342 0.68475 0.0
C469 C 0.83739 0.68186 0.58496 0.0
C470 C 0.84114 0.69 0.50448 0.0
C471 C 0.88554 0.70293 0.46381 0.0
C472 C 0.8892 0.71053 0.38766 0.0
C473 C 0.84837 0.70482 0.35156 0.0
C474 C 0.80383 0.69155 0.39156 0.0
C475 C 0.80033 0.68445 0.46794 0.0
C476 C 0.94126 0.82778 0.87912 0.0
C477 C 0.92118 0.85116 0.87484 0.0
C478 C 0.9227 0.78668 0.82692 0.0
C479 C 0.88134 0.76588 0.77067 0.0
C480 C 0.8622 0.79024 0.76538 0.0
C481 C 0.8822 0.83259 0.8164 0.0
C482 C 0.85907 0.71985 0.71658 0.0
C483 C 0.85507 0.72196 0.63925 0.0
C484 C 0.84381 0.67492 0.73936 0.0
C485 C 0.84701 0.66876 0.81937 0.0
C486 C 0.82092 0.67505 0.875 0.0
C487 C 0.82624 0.67101 0.95039 0.0
C488 C 0.85632 0.65948 0.97072 0.0
C489 C 0.88143 0.65213 0.91577 0.0
C490 C 0.8769 0.65677 0.84044 0.0
H491 H 0.86017 0.6563 0.0291 0.0
H492 H 0.85124 0.71068 0.29261 0.0
H493 H 0.57808 0.3204 0.55349 0.0
H494 H 0.51188 0.28962 0.65356 0.0
H495 H 0.39312 0.14075 0.52593 0.0
H496 H 0.45947 0.17196 0.42701 0.0
H497 H 0.42671 0.27106 0.64245 0.0
H498 H 0.27948 0.04623 0.6297 0.0
H499 H 0.2854 0.98202 0.62511 0.0
H500 H 0.4587 0.10085 0.6955 0.0
H501 H 0.4533 0.16561 0.70261 0.0
H502 H 0.126 0.0562 0.7894 0.0
H503 H 0.20102 0.09022 0.70299 0.0
H504 H 0.3206 0.21854 0.86708 0.0
H505 H 0.2461 0.18305 0.9553 0.0
H506 H 0.28761 0.09974 0.73909 0.0
H507 H 0.43279 0.32079 0.76876 0.0
H508 H 0.428 0.386 0.78188 0.0
H509 H 0.26157 0.27478 0.6823 0.0
H510 H 0.26534 0.20906 0.66824 0.0
C511 C 0.53908 0.28031 0.54969 0.0
C512 C 0.52455 0.24807 0.48449 0.0
C513 C 0.50071 0.26291 0.60583 0.0
C514 C 0.44679 0.2129 0.59748 0.0
C515 C 0.43398 0.17945 0.53443 0.0
C516 C 0.4722 0.19707 0.478 0.0
C517 C 0.40224 0.19848 0.64867 0.0
C518 C 0.39729 0.23392 0.66492 0.0
C519 C 0.36191 0.14926 0.67593 0.0
C520 C 0.36611 0.11092 0.66717 0.0
C521 C 0.31886 0.05872 0.64458 0.0
C522 C 0.32205 0.02218 0.64167 0.0
C523 C 0.37234 0.03741 0.66086 0.0
C524 C 0.41974 0.08922 0.68151 0.0
C525 C 0.41662 0.1258 0.68506 0.0
C526 C 0.16793 0.09271 0.80578 0.0
C527 C 0.18039 0.11732 0.87857 0.0
C528 C 0.21083 0.11193 0.75658 0.0
C529 C 0.26643 0.15689 0.77847 0.0
C530 C 0.27807 0.18389 0.84888 0.0
C531 C 0.23548 0.16384 0.89898 0.0
C532 C 0.31268 0.17211 0.73172 0.0
C533 C 0.3177 0.13686 0.7166 0.0
C534 C 0.35327 0.22147 0.70605 0.0
C535 C 0.34937 0.25993 0.71767 0.0
C536 C 0.39513 0.31023 0.74979 0.0
C537 C 0.39259 0.34728 0.75738 0.0
C538 C 0.34461 0.33454 0.73257 0.0
C539 C 0.29871 0.28454 0.70139 0.0
C540 C 0.30098 0.24733 0.69383 0.0
H541 H 0.34313 0.36348 0.73687 0.0
H542 H 0.37474 1.00915 0.65998 0.0
H543 H 0.62141 0.45205 0.06679 0.0
H544 H 0.58559 0.48179 0.00352 0.0
H545 H 0.45508 0.4131 0.16175 0.0
H546 H 0.4893 0.38127 0.22318 0.0
H547 H 0.41362 0.39849 0.02885 0.0
H548 H 0.58047 0.54184 0.17214 0.0
H549 H 0.67992 0.60214 0.21103 0.0
H550 H 0.72522 0.65967 0.9939 0.0
H551 H 0.62649 0.59639 0.95133 0.0
H552 H 0.34932 0.54188 0.93095 0.0
H553 H 0.37378 0.50321 -0.00265 0.0
H554 H 0.50889 0.56552 0.84933 0.0
H555 H 0.48595 0.60558 0.78482 0.0
H556 H 0.54436 0.5832 0.98655 0.0
H557 H 0.37858 0.43381 0.84021 0.0
H558 H 0.27902 0.3729 0.79977 0.0
H559 H 0.23236 0.33308 0.02589 0.0
H560 H 0.33157 0.39426 0.06804 0.0
C561 C 0.58527 0.44351 0.08844 0.0
C562 C 0.55882 0.41498 0.15091 0.0
C563 C 0.56467 0.46044 0.05202 0.0
C564 C 0.51812 0.45066 0.07855 0.0
C565 C 0.49108 0.42138 0.14014 0.0
C566 C 0.511 0.40352 0.17564 0.0
C567 C 0.49877 0.47228 0.04367 0.0
C568 C 0.44221 0.43902 0.02027 0.0
C569 C 0.53592 0.5252 0.03192 0.0
C570 C 0.59572 0.56354 0.05805 0.0
C571 C 0.6116 0.56651 0.13206 0.0
C572 C 0.66803 0.60102 0.15462 0.0
C573 C 0.70906 0.63457 0.1049 0.0
C574 C 0.69367 0.63325 0.03222 0.0
C575 C 0.63741 0.59762 0.00854 0.0
C576 C 0.3839 0.54689 0.91211 0.0
C577 C 0.41561 0.57683 0.8524 0.0
C578 C 0.39779 0.52462 0.95008 0.0
C579 C 0.443 0.53094 0.92814 0.0
C580 C 0.47397 0.5601 0.8677 0.0
C581 C 0.46065 0.58291 0.83058 0.0
C582 C 0.45997 0.5092 0.96917 0.0
C583 C 0.51595 0.54262 -0.00526 0.0
C584 C 0.42235 0.45663 0.98293 0.0
C585 C 0.3626 0.41894 0.95733 0.0
C586 C 0.34709 0.4122 0.88139 0.0
C587 C 0.29071 0.37762 0.85818 0.0
C588 C 0.24941 0.34912 0.91028 0.0
C589 C 0.2644 0.35507 0.98564 0.0
C590 C 0.3207 0.3897 0.00921 0.0
H591 H 0.2058 0.32243 0.89227 0.0
H592 H 0.75272 0.66185 0.12291 0.0
H593 H 0.38829 0.79617 0.86993 0.0
H594 H 0.42809 0.86818 0.96536 0.0
H595 H 0.50567 0.97202 0.79161 0.0
H596 H 0.47072 0.90098 0.69787 0.0
H597 H 0.57384 0.02071 0.90328 0.0
H598 H 0.37569 0.91855 0.88392 0.0
H599 H 0.27566 0.83929 0.88774 0.0
H600 H 0.29971 0.82997 0.11732 0.0
H601 H 0.39999 0.90886 0.11457 0.0
H602 H 0.63073 0.22932 0.12079 0.0
H603 H 0.59347 0.15755 0.02589 0.0
H604 H 0.5213 0.05511 0.2009 0.0
H605 H 0.55502 0.12588 0.2944 0.0
H606 H 0.4509 1.00592 0.08913 0.0
H607 H 0.64869 0.10864 0.10893 0.0
H608 H 0.74895 0.18726 0.10484 0.0
H609 H 0.72575 0.19548 0.87422 0.0
H610 H 0.62524 0.11721 0.87717 0.0
C611 C 0.41562 0.83465 0.85267 0.0
C612 C 0.42757 0.84269 0.7765 0.0
C613 C 0.43722 0.87587 0.90707 0.0
C614 C 0.46937 0.92609 0.88628 0.0
C615 C 0.48124 0.93407 0.80996 0.0
C616 C 0.46081 0.89311 0.75601 0.0
C617 C 0.49034 0.97028 0.94307 0.0
C618 C 0.54656 0.01748 0.94313 0.0
C619 C 0.45571 0.96652 -0.00304 0.0
C620 C 0.39537 0.91934 -0.0012 0.0
C621 C 0.35966 0.89944 0.93507 0.0
C622 C 0.30293 0.85459 0.93707 0.0
C623 C 0.28137 0.82954 0.00267 0.0
C624 C 0.31647 0.84937 0.06652 0.0
C625 C 0.37323 0.89417 0.06479 0.0
C626 C 0.60539 0.19116 0.13849 0.0
C627 C 0.59479 0.18338 0.215 0.0
C628 C 0.58512 0.15018 0.08439 0.0
C629 C 0.55498 0.10046 0.10572 0.0
C630 C 0.54425 0.09273 0.18227 0.0
C631 C 0.56386 0.13349 0.23601 0.0
C632 C 0.53429 0.05635 0.0491 0.0
C633 C 0.47814 1.00916 0.04914 0.0
C634 C 0.56897 0.06018 -0.00473 0.0
C635 C 0.62933 0.10741 0.99358 0.0
C636 C 0.6649 0.12747 0.05756 0.0
C637 C 0.72177 0.17195 0.05542 0.0
C638 C 0.74363 0.19653 0.98946 0.0
C639 C 0.7087 0.17658 0.9254 0.0
C640 C 0.65181 0.13211 0.92724 0.0
H641 H 0.78771 0.23084 0.98783 0.0
H642 H 0.23745 0.79482 0.00409 0.0
H643 H 0.2317 0.64612 0.86586 0.0
H644 H 0.16253 0.61998 0.95794 0.0
H645 H 0.03424 0.48126 0.8135 0.0
H646 H 0.10304 0.50962 0.71877 0.0
H647 H 0.99725 0.52067 0.85564 0.0
H648 H 0.08728 0.48503 -0.00086 0.0
H649 H 0.17004 0.50863 0.0554 0.0
H650 H 0.21333 0.63907 0.18401 0.0
H651 H 0.1305 0.61569 0.1296 0.0
H652 H 0.78267 0.38784 0.11708 0.0
H653 H 0.85447 0.4201 0.02656 0.0
H654 H 0.97339 0.56165 0.17092 0.0
H655 H 0.90216 0.52759 0.26417 0.0
H656 H 0.017 0.52507 0.13093 0.0
H657 H 0.92967 0.56297 0.97967 0.0
H658 H 0.84353 0.53548 0.92829 0.0
H659 H 0.79307 0.39655 0.8221 0.0
H660 H 0.87989 0.42474 0.86855 0.0
C661 C 0.18906 0.60927 0.85485 0.0
C662 C 0.17276 0.57966 0.78547 0.0
C663 C 0.14933 0.59422 0.9077 0.0
C664 C 0.0928 0.54821 0.89351 0.0
C665 C 0.07734 0.51704 0.82595 0.0
C666 C 0.11676 0.5329 0.77213 0.0
C667 C 0.04916 0.53452 0.94578 0.0
C668 C 1.00161 0.52118 0.9157 0.0
C669 C 0.05477 0.53634 0.02464 0.0
C670 C 0.10288 0.54871 0.06022 0.0
C671 C 0.11436 0.51855 0.0398 0.0
C672 C 0.16121 0.53182 0.0715 0.0
C673 C 0.19688 0.57522 0.12354 0.0
C674 C 0.1855 0.60517 0.14439 0.0
C675 C 0.13845 0.59178 0.11345 0.0
C676 C 0.82343 0.42669 0.12802 0.0
C677 C 0.8367 0.45548 0.19714 0.0
C678 C 0.86474 0.44523 0.07617 0.0
C679 C 0.91959 0.49376 0.09114 0.0
C680 C 0.93161 0.52411 0.15796 0.0
C681 C 0.8907 0.50497 0.21072 0.0
C682 C 0.96517 0.51073 0.04043 0.0
C683 C 0.01307 0.5249 0.07086 0.0
C684 C 0.96005 0.50968 0.96196 0.0
C685 C 0.91117 0.49601 0.92704 0.0
C686 C 0.90055 0.52711 0.94385 0.0
C687 C 0.85171 0.51153 0.9152 0.0
C688 C 0.81294 0.46456 0.87086 0.0
C689 C 0.82341 0.43353 0.85437 0.0
C690 C 0.87277 0.44957 0.88103 0.0
H691 H 0.77465 0.45202 0.84983 0.0
H692 H 0.23338 0.58568 0.14752 0.0
loop_
_geom_bond_atom_site_label_1
_geom_bond_atom_site_label_2
_geom_bond_distance
_geom_bond_site_symmetry_2
_ccdc_geom_bond_type
C0 O12 1.241 . S
C0 O13 1.280 . S
C1 O14 1.277 1_445 S
C1 O15 1.245 . S
C2 O26 1.247 1_554 S
C2 O28 1.289 . S
Mg3 O4 1.926 1_545 S
Mg3 O13 1.984 1_545 S
Mg3 O15 1.988 . S
Mg3 O16 2.061 . S
O4 Mg3 1.926 1_565 S
O4 Mg5 1.986 1_455 S
O4 Mg6 1.917 1_565 S
Mg5 O4 1.986 1_655 S
Mg5 O12 2.042 1_655 S
Mg5 O14 2.041 . S
Mg5 O20 2.038 . S
Mg5 O28 2.238 . S
Mg6 O4 1.917 1_545 S
Mg6 O7 1.917 1_454 S
Mg6 O17 2.106 1_554 S
Mg6 O19 2.079 1_444 S
Mg6 O28 2.106 1_445 S
Mg6 O29 2.079 . S
O7 Mg6 1.917 1_656 S
O7 Mg8 1.926 1_545 S
O7 Mg9 1.986 1_655 S
Mg8 O7 1.926 1_565 S
Mg8 O22 1.984 1_565 S
Mg8 O25 1.988 . S
Mg8 O26 2.061 . S
Mg9 O7 1.986 1_455 S
Mg9 O17 2.238 . S
Mg9 O21 2.042 1_455 S
Mg9 O23 2.041 . S
Mg9 O30 2.038 . S
C10 O16 1.247 1_556 S
C10 O17 1.289 . S
C11 O29 1.245 . S
C11 O30 1.274 1_554 S
O12 C0 1.241 . S
O12 Mg5 2.042 1_455 S
O13 C0 1.280 . S
O13 Mg3 1.984 1_565 S
O14 C1 1.277 1_665 S
O14 Mg5 2.041 . S
O15 C1 1.245 . S
O15 Mg3 1.988 . S
O16 Mg3 2.061 . S
O16 C10 1.247 1_554 S
O17 Mg6 2.106 1_556 S
O17 Mg9 2.238 . S
O17 C10 1.289 . S
C18 O19 1.245 . S
C18 O20 1.274 1_556 S
O19 Mg6 2.079 1_666 S
O19 C18 1.245 . S
O20 Mg5 2.038 . S
O20 C18 1.274 1_554 S
O21 Mg9 2.042 1_655 S
O21 C24 1.241 . S
O22 Mg8 1.984 1_545 S
O22 C24 1.280 . S
O23 Mg9 2.041 . S
O23 C27 1.277 1_445 S
C24 O21 1.241 . S
C24 O22 1.280 . S
O25 Mg8 1.988 . S
O25 C27 1.245 . S
O26 C2 1.247 1_556 S
O26 Mg8 2.061 . S
C27 O23 1.277 1_665 S
C27 O25 1.245 . S
O28 C2 1.289 . S
O28 Mg5 2.238 . S
O28 Mg6 2.106 1_665 S
O29 Mg6 2.079 . S
O29 C11 1.245 . S
O30 Mg9 2.038 . S
O30 C11 1.274 1_556 S
C31 O43 1.241 . S
C31 O44 1.280 . S
C32 O45 1.277 . S
C32 O46 1.245 . S
C33 O57 1.247 . S
C33 O59 1.289 . S
Mg34 O35 1.926 . S
Mg34 O44 1.984 . S
Mg34 O46 1.988 . S
Mg34 O47 2.061 . S
O35 Mg34 1.926 . S
O35 Mg36 1.986 . S
O35 Mg37 1.917 . S
Mg36 O35 1.986 . S
Mg36 O43 2.042 . S
Mg36 O45 2.041 . S
Mg36 O51 2.038 . S
Mg36 O59 2.238 . S
Mg37 O35 1.917 . S
Mg37 O38 1.917 . S
Mg37 O48 2.106 . S
Mg37 O50 2.079 . S
Mg37 O59 2.106 . S
Mg37 O60 2.079 . S
O38 Mg37 1.917 . S
O38 Mg39 1.926 . S
O38 Mg40 1.986 . S
Mg39 O38 1.926 . S
Mg39 O53 1.984 . S
Mg39 O56 1.988 . S
Mg39 O57 2.061 . S
Mg40 O38 1.986 . S
Mg40 O48 2.238 . S
Mg40 O52 2.042 . S
Mg40 O54 2.041 . S
Mg40 O61 2.038 . S
C41 O47 1.247 . S
C41 O48 1.289 . S
C42 O60 1.245 . S
C42 O61 1.274 . S
O43 C31 1.241 . S
O43 Mg36 2.042 . S
O44 C31 1.280 . S
O44 Mg34 1.984 . S
O45 C32 1.277 . S
O45 Mg36 2.041 . S
O46 C32 1.245 . S
O46 Mg34 1.988 . S
O47 Mg34 2.061 . S
O47 C41 1.247 . S
O48 Mg37 2.106 . S
O48 Mg40 2.238 . S
O48 C41 1.289 . S
C49 O50 1.245 . S
C49 O51 1.274 . S
O50 Mg37 2.079 . S
O50 C49 1.245 . S
O51 Mg36 2.038 . S
O51 C49 1.274 . S
O52 Mg40 2.042 . S
O52 C55 1.241 . S
O53 Mg39 1.984 . S
O53 C55 1.280 . S
O54 Mg40 2.041 . S
O54 C58 1.277 . S
C55 O52 1.241 . S
C55 O53 1.280 . S
O56 Mg39 1.988 . S
O56 C58 1.245 . S
O57 C33 1.247 . S
O57 Mg39 2.061 . S
C58 O54 1.277 . S
C58 O56 1.245 . S
O59 C33 1.289 . S
O59 Mg36 2.238 . S
O59 Mg37 2.106 . S
O60 Mg37 2.079 . S
O60 C42 1.245 . S
O61 Mg40 2.038 . S
O61 C42 1.274 . S
C62 O74 1.241 . S
C62 O75 1.280 . S
C63 O76 1.277 . S
C63 O77 1.245 . S
C64 O88 1.247 . S
C64 O90 1.289 . S
Mg65 O66 1.926 . S
Mg65 O75 1.984 . S
Mg65 O77 1.988 . S
Mg65 O78 2.061 . S
O66 Mg65 1.926 . S
O66 Mg67 1.986 . S
O66 Mg68 1.917 . S
Mg67 O66 1.986 . S
Mg67 O74 2.042 . S
Mg67 O76 2.041 . S
Mg67 O82 2.038 . S
Mg67 O90 2.238 . S
Mg68 O66 1.917 . S
Mg68 O69 1.917 . S
Mg68 O79 2.106 . S
Mg68 O81 2.079 . S
Mg68 O90 2.106 . S
Mg68 O91 2.079 . S
O69 Mg68 1.917 . S
O69 Mg70 1.926 . S
O69 Mg71 1.986 . S
Mg70 O69 1.926 . S
Mg70 O84 1.984 . S
Mg70 O87 1.988 . S
Mg70 O88 2.061 . S
Mg71 O69 1.986 . S
Mg71 O79 2.238 . S
Mg71 O83 2.042 . S
Mg71 O85 2.041 . S
Mg71 O92 2.038 . S
C72 O78 1.247 . S
C72 O79 1.289 . S
C73 O91 1.245 . S
C73 O92 1.274 . S
O74 C62 1.241 . S
O74 Mg67 2.042 . S
O75 C62 1.280 . S
O75 Mg65 1.984 . S
O76 C63 1.277 . S
O76 Mg67 2.041 . S
O77 C63 1.245 . S
O77 Mg65 1.988 . S
O78 Mg65 2.061 . S
O78 C72 1.247 . S
O79 Mg68 2.106 . S
O79 Mg71 2.238 . S
O79 C72 1.289 . S
C80 O81 1.245 . S
C80 O82 1.274 . S
O81 Mg68 2.079 . S
O81 C80 1.245 . S
O82 Mg67 2.038 . S
O82 C80 1.274 . S
O83 Mg71 2.042 . S
O83 C86 1.241 . S
O84 Mg70 1.984 . S
O84 C86 1.280 . S
O85 Mg71 2.041 . S
O85 C89 1.277 . S
C86 O83 1.241 . S
C86 O84 1.280 . S
O87 Mg70 1.988 . S
O87 C89 1.245 . S
O88 C64 1.247 . S
O88 Mg70 2.061 . S
C89 O85 1.277 . S
C89 O87 1.245 . S
O90 C64 1.289 . S
O90 Mg67 2.238 . S
O90 Mg68 2.106 . S
O91 Mg68 2.079 . S
O91 C73 1.245 . S
O92 Mg71 2.038 . S
O92 C73 1.274 . S
H93 C111 0.951 . S
H94 C113 0.951 . S
H95 C115 0.950 . S
H96 C116 0.950 . S
H97 C118 0.940 . S
H98 C121 0.950 . S
H99 C122 0.950 . S
H100 C124 0.931 1_545 S
H101 C125 0.950 . S
H102 C126 0.951 . S
H103 C128 0.951 . S
H104 C130 0.950 . S
H105 C131 0.950 . S
H106 C133 0.963 . S
H107 C136 0.950 . S
H108 C137 0.950 . S
H109 C139 0.924 1_565 S
H110 C140 0.950 . S
C111 H93 0.951 . S
C111 C112 1.366 1_545 S
C111 C113 1.388 . S
C112 C111 1.366 1_565 S
C112 C116 1.385 . S
C113 H94 0.951 . S
C113 C111 1.388 . S
C113 C114 1.366 1_545 S
C114 C113 1.366 1_565 S
C114 C115 1.414 . S
C114 C117 1.499 . S
C115 H95 0.950 . S
C115 C114 1.414 . S
C115 C116 1.374 . S
C116 H96 0.950 . S
C116 C112 1.385 . S
C116 C115 1.374 . S
C117 C114 1.499 . S
C117 C118 1.366 1_655 S
C117 C119 1.389 . S
C118 H97 0.940 . S
C118 C117 1.366 1_455 S
C118 C134 1.376 1_565 S
C119 C117 1.389 . S
C119 C120 1.524 . S
C119 C133 1.375 1_565 S
C120 C119 1.524 . S
C120 C121 1.397 . S
C120 C125 1.363 1_565 S
C121 H98 0.950 . S
C121 C120 1.397 . S
C121 C122 1.334 . S
C122 H99 0.950 . S
C122 C121 1.334 . S
C122 C123 1.287 . S
C123 C122 1.287 . S
C123 C124 1.536 . S
C123 H142 0.913 . S
C124 H100 0.931 1_565 S
C124 C123 1.536 . S
C124 C125 1.424 1_565 S
C125 H101 0.950 . S
C125 C120 1.363 1_545 S
C125 C124 1.424 1_545 S
C126 H102 0.951 . S
C126 C127 1.366 1_565 S
C126 C128 1.388 . S
C127 C126 1.366 1_545 S
C127 C131 1.385 . S
C128 H103 0.951 . S
C128 C126 1.388 . S
C128 C129 1.366 1_565 S
C129 C128 1.366 1_545 S
C129 C130 1.414 . S
C129 C132 1.499 . S
C130 H104 0.950 . S
C130 C129 1.414 . S
C130 C131 1.374 . S
C131 H105 0.950 . S
C131 C127 1.385 . S
C131 C130 1.374 . S
C132 C129 1.499 . S
C132 C133 1.362 1_455 S
C132 C134 1.389 . S
C133 H106 0.963 . S
C133 C119 1.375 1_545 S
C133 C132 1.362 1_655 S
C134 C118 1.376 1_545 S
C134 C132 1.389 . S
C134 C135 1.524 . S
C135 C134 1.524 . S
C135 C136 1.397 . S
C135 C140 1.363 1_545 S
C136 H107 0.950 . S
C136 C135 1.397 . S
C136 C137 1.334 . S
C137 H108 0.950 . S
C137 C136 1.334 . S
C137 C138 1.287 . S
C138 C137 1.287 . S
C138 C139 1.540 . S
C138 H141 0.999 . S
C139 H109 0.924 1_545 S
C139 C138 1.540 . S
C139 C140 1.428 1_545 S
C140 H110 0.950 . S
C140 C135 1.363 1_565 S
C140 C139 1.428 1_565 S
H141 C138 0.999 . S
H142 C123 0.913 . S
H143 C161 0.951 . S
H144 C163 0.951 . S
H145 C165 0.950 . S
H146 C166 0.950 . S
H147 C168 0.950 . S
H148 C171 0.950 . S
H149 C172 0.950 . S
H150 C174 0.950 . S
H151 C175 0.950 . S
H152 C176 0.951 . S
H153 C178 0.951 . S
H154 C180 0.950 . S
H155 C181 0.950 . S
H156 C183 0.950 . S
H157 C186 0.950 . S
H158 C187 0.950 . S
H159 C189 0.950 . S
H160 C190 0.950 . S
C161 H143 0.951 . S
C161 C162 1.366 . S
C161 C163 1.388 . S
C162 C161 1.366 . S
C162 C166 1.385 . S
C163 H144 0.951 . S
C163 C161 1.388 . S
C163 C164 1.366 . S
C164 C163 1.366 . S
C164 C165 1.414 . S
C164 C167 1.499 . S
C165 H145 0.950 . S
C165 C164 1.414 . S
C165 C166 1.374 . S
C166 H146 0.950 . S
C166 C162 1.385 . S
C166 C165 1.374 . S
C167 C164 1.499 . S
C167 C168 1.373 . S
C167 C169 1.389 . S
C168 H147 0.950 . S
C168 C167 1.373 . S
C168 C184 1.377 . S
C169 C167 1.389 . S
C169 C170 1.524 . S
C169 C183 1.377 . S
C170 C169 1.524 . S
C170 C171 1.397 . S
C170 C175 1.363 . S
C171 H148 0.950 . S
C171 C170 1.397 . S
C171 C172 1.334 . S
C172 H149 0.950 . S
C172 C171 1.334 . S
C172 C173 1.287 . S
C173 C172 1.287 . S
C173 C174 1.524 . S
C173 H192 0.913 . S
C174 H150 0.950 . S
C174 C173 1.524 . S
C174 C175 1.415 . S
C175 H151 0.950 . S
C175 C170 1.363 . S
C175 C174 1.415 . S
C176 H152 0.951 . S
C176 C177 1.366 . S
C176 C178 1.388 . S
C177 C176 1.366 . S
C177 C181 1.385 . S
C178 H153 0.951 . S
C178 C176 1.388 . S
C178 C179 1.366 1_554 S
C179 C178 1.366 1_556 S
C179 C180 1.414 1_556 S
C179 C182 1.499 . S
C180 H154 0.950 . S
C180 C179 1.414 1_554 S
C180 C181 1.374 . S
C181 H155 0.950 . S
C181 C177 1.385 . S
C181 C180 1.374 . S
C182 C179 1.499 . S
C182 C183 1.373 . S
C182 C184 1.389 . S
C183 H156 0.950 . S
C183 C169 1.377 . S
C183 C182 1.373 . S
C184 C168 1.377 . S
C184 C182 1.389 . S
C184 C185 1.524 . S
C185 C184 1.524 . S
C185 C186 1.397 . S
C185 C190 1.363 . S
C186 H157 0.950 . S
C186 C185 1.397 . S
C186 C187 1.334 1_556 S
C187 H158 0.950 . S
C187 C186 1.334 1_554 S
C187 C188 1.287 . S
C188 C187 1.287 . S
C188 C189 1.524 1_554 S
C188 H191 0.999 . S
C189 H159 0.950 . S
C189 C188 1.524 1_556 S
C189 C190 1.415 . S
C190 H160 0.950 . S
C190 C185 1.363 . S
C190 C189 1.415 . S
H191 C188 0.999 . S
H192 C173 0.913 . S
H193 C211 0.951 . S
H194 C213 0.951 1_554 S
H195 C215 0.950 . S
H196 C216 0.950 . S
H197 C218 0.950 . S
H198 C221 0.950 . S
H199 C222 0.953 . S
H200 C224 0.950 . S
H201 C225 0.950 . S
H202 C226 0.951 . S
H203 C228 0.951 . S
H204 C230 0.950 . S
H205 C231 0.950 . S
H206 C233 0.950 . S
H207 C236 0.950 . S
H208 C237 0.950 . S
H209 C239 0.950 . S
H210 C240 0.950 . S
C211 H193 0.951 . S
C211 C212 1.366 . S
C211 C213 1.388 . S
C212 C211 1.366 . S
C212 C216 1.385 . S
C213 H194 0.951 1_556 S
C213 C211 1.388 . S
C213 C214 1.366 1_556 S
C214 C213 1.366 1_554 S
C214 C215 1.414 1_554 S
C214 C217 1.499 . S
C215 H195 0.950 . S
C215 C214 1.414 1_556 S
C215 C216 1.374 . S
C216 H196 0.950 . S
C216 C212 1.385 . S
C216 C215 1.374 . S
C217 C214 1.499 . S
C217 C218 1.373 . S
C217 C219 1.389 . S
C218 H197 0.950 . S
C218 C217 1.373 . S
C218 C234 1.377 . S
C219 C217 1.389 . S
C219 C220 1.524 . S
C219 C233 1.377 . S
C220 C219 1.524 . S
C220 C221 1.397 . S
C220 C225 1.363 . S
C221 H198 0.950 . S
C221 C220 1.397 . S
C221 C222 1.332 1_554 S
C222 H199 0.953 . S
C222 C221 1.332 1_556 S
C222 C223 1.285 1_556 S
C223 C222 1.285 1_554 S
C223 C224 1.524 . S
C223 H242 0.912 1_554 S
C224 H200 0.950 . S
C224 C223 1.524 . S
C224 C225 1.415 . S
C225 H201 0.950 . S
C225 C220 1.363 . S
C225 C224 1.415 . S
C226 H202 0.951 . S
C226 C227 1.366 . S
C226 C228 1.388 . S
C227 C226 1.366 . S
C227 C231 1.385 . S
C228 H203 0.951 . S
C228 C226 1.388 . S
C228 C229 1.366 . S
C229 C228 1.366 . S
C229 C230 1.414 . S
C229 C232 1.499 . S
C230 H204 0.950 . S
C230 C229 1.414 . S
C230 C231 1.374 . S
C231 H205 0.950 . S
C231 C227 1.385 . S
C231 C230 1.374 . S
C232 C229 1.499 . S
C232 C233 1.373 . S
C232 C234 1.389 . S
C233 H206 0.950 . S
C233 C219 1.377 . S
C233 C232 1.373 . S
C234 C218 1.377 . S
C234 C232 1.389 . S
C234 C235 1.524 . S
C235 C234 1.524 . S
C235 C236 1.397 . S
C235 C240 1.363 . S
C236 H207 0.950 . S
C236 C235 1.397 . S
C236 C237 1.334 . S
C237 H208 0.950 . S
C237 C236 1.334 . S
C237 C238 1.287 . S
C238 C237 1.287 . S
C238 C239 1.524 . S
C238 H241 0.999 . S
C239 H209 0.950 . S
C239 C238 1.524 . S
C239 C240 1.415 . S
C240 H210 0.950 . S
C240 C235 1.363 . S
C240 C239 1.415 . S
H241 C238 0.999 . S
H242 C223 0.912 1_556 S
H243 C261 0.951 . S
H244 C263 0.951 . S
H245 C265 0.950 . S
H246 C266 0.950 . S
H247 C268 0.950 . S
H248 C271 0.950 . S
H249 C272 0.950 . S
H250 C274 0.950 1_545 S
H251 C275 0.950 . S
H252 C276 0.951 . S
H253 C278 0.951 . S
H254 C280 0.950 . S
H255 C281 0.950 . S
H256 C283 0.950 . S
H257 C286 0.950 . S
H258 C287 0.950 . S
H259 C289 0.950 . S
H260 C290 0.950 . S
C261 H243 0.951 . S
C261 C262 1.366 . S
C261 C263 1.388 . S
C262 C261 1.366 . S
C262 C266 1.385 . S
C263 H244 0.951 . S
C263 C261 1.388 . S
C263 C264 1.366 . S
C264 C263 1.366 . S
C264 C265 1.414 . S
C264 C267 1.499 . S
C265 H245 0.950 . S
C265 C264 1.414 . S
C265 C266 1.374 . S
C266 H246 0.950 . S
C266 C262 1.385 . S
C266 C265 1.374 . S
C267 C264 1.499 . S
C267 C268 1.373 . S
C267 C269 1.389 . S
C268 H247 0.950 . S
C268 C267 1.373 . S
C268 C284 1.377 . S
C269 C267 1.389 . S
C269 C270 1.524 . S
C269 C283 1.377 . S
C270 C269 1.524 . S
C270 C271 1.397 . S
C270 C275 1.363 . S
C271 H248 0.950 . S
C271 C270 1.397 . S
C271 C272 1.334 . S
C272 H249 0.950 . S
C272 C271 1.334 . S
C272 C273 1.287 . S
C273 C272 1.287 . S
C273 C274 1.524 . S
C273 H292 0.913 1_565 S
C274 H250 0.950 1_565 S
C274 C273 1.524 . S
C274 C275 1.415 . S
C275 H251 0.950 . S
C275 C270 1.363 . S
C275 C274 1.415 . S
C276 H252 0.951 . S
C276 C277 1.366 . S
C276 C278 1.388 . S
C277 C276 1.366 . S
C277 C281 1.385 . S
C278 H253 0.951 . S
C278 C276 1.388 . S
C278 C279 1.366 . S
C279 C278 1.366 . S
C279 C280 1.414 . S
C279 C282 1.499 . S
C280 H254 0.950 . S
C280 C279 1.414 . S
C280 C281 1.374 . S
C281 H255 0.950 . S
C281 C277 1.385 . S
C281 C280 1.374 . S
C282 C279 1.499 . S
C282 C283 1.373 . S
C282 C284 1.389 . S
C283 H256 0.950 . S
C283 C269 1.377 . S
C283 C282 1.373 . S
C284 C268 1.377 . S
C284 C282 1.389 . S
C284 C285 1.524 . S
C285 C284 1.524 . S
C285 C286 1.397 . S
C285 C290 1.363 . S
C286 H257 0.950 . S
C286 C285 1.397 . S
C286 C287 1.334 . S
C287 H258 0.950 . S
C287 C286 1.334 . S
C287 C288 1.287 1_455 S
C288 C287 1.287 1_655 S
C288 C289 1.524 . S
C288 H291 0.999 . S
C289 H259 0.950 . S
C289 C288 1.524 . S
C289 C290 1.415 1_655 S
C290 H260 0.950 . S
C290 C285 1.363 . S
C290 C289 1.415 1_455 S
H291 C288 0.999 . S
H292 C273 0.913 1_545 S
H293 C311 0.951 . S
H294 C313 0.951 . S
H295 C315 0.950 . S
H296 C316 0.950 . S
H297 C318 0.950 . S
H298 C321 0.950 . S
H299 C322 0.950 . S
H300 C324 0.950 . S
H301 C325 0.950 . S
H302 C326 0.951 . S
H303 C328 0.951 . S
H304 C330 0.950 . S
H305 C331 0.950 . S
H306 C333 0.950 . S
H307 C336 0.950 . S
H308 C337 0.950 . S
H309 C339 0.950 . S
H310 C340 0.950 . S
C311 H293 0.951 . S
C311 C312 1.366 . S
C311 C313 1.388 . S
C312 C311 1.366 . S
C312 C316 1.385 . S
C313 H294 0.951 . S
C313 C311 1.388 . S
C313 C314 1.366 . S
C314 C313 1.366 . S
C314 C315 1.414 . S
C314 C317 1.499 . S
C315 H295 0.950 . S
C315 C314 1.414 . S
C315 C316 1.374 . S
C316 H296 0.950 . S
C316 C312 1.385 . S
C316 C315 1.374 . S
C317 C314 1.499 . S
C317 C318 1.373 . S
C317 C319 1.389 . S
C318 H297 0.950 . S
C318 C317 1.373 . S
C318 C334 1.377 . S
C319 C317 1.389 . S
C319 C320 1.524 . S
C319 C333 1.377 . S
C320 C319 1.524 . S
C320 C321 1.397 . S
C320 C325 1.363 . S
C321 H298 0.950 . S
C321 C320 1.397 . S
C321 C322 1.334 . S
C322 H299 0.950 . S
C322 C321 1.334 . S
C322 C323 1.287 . S
C323 C322 1.287 . S
C323 C324 1.524 . S
C323 H342 0.913 . S
C324 H300 0.950 . S
C324 C323 1.524 . S
C324 C325 1.415 . S
C325 H301 0.950 . S
C325 C320 1.363 . S
C325 C324 1.415 . S
C326 H302 0.951 . S
C326 C327 1.366 . S
C326 C328 1.388 . S
C327 C326 1.366 . S
C327 C331 1.385 . S
C328 H303 0.951 . S
C328 C326 1.388 . S
C328 C329 1.366 . S
C329 C328 1.366 . S
C329 C330 1.414 . S
C329 C332 1.499 . S
C330 H304 0.950 . S
C330 C329 1.414 . S
C330 C331 1.374 . S
C331 H305 0.950 . S
C331 C327 1.385 . S
C331 C330 1.374 . S
C332 C329 1.499 . S
C332 C333 1.373 . S
C332 C334 1.389 . S
C333 H306 0.950 . S
C333 C319 1.377 . S
C333 C332 1.373 . S
C334 C318 1.377 . S
C334 C332 1.389 . S
C334 C335 1.524 . S
C335 C334 1.524 . S
C335 C336 1.397 . S
C335 C340 1.363 . S
C336 H307 0.950 . S
C336 C335 1.397 . S
C336 C337 1.334 . S
C337 H308 0.950 . S
C337 C336 1.334 . S
C337 C338 1.287 . S
C338 C337 1.287 . S
C338 C339 1.524 . S
C338 H341 0.999 1_554 S
C339 H309 0.950 . S
C339 C338 1.524 . S
C339 C340 1.415 . S
C340 H310 0.950 . S
C340 C335 1.363 . S
C340 C339 1.415 . S
H341 C338 0.999 1_556 S
H342 C323 0.913 . S
H343 C361 0.951 . S
H344 C363 0.951 . S
H345 C365 0.950 . S
H346 C366 0.950 . S
H347 C368 0.950 . S
H348 C371 0.950 . S
H349 C372 0.950 . S
H350 C374 0.950 . S
H351 C375 0.950 . S
H352 C376 0.951 . S
H353 C378 0.951 . S
H354 C380 0.950 . S
H355 C381 0.950 . S
H356 C383 0.950 . S
H357 C386 0.950 . S
H358 C387 0.950 . S
H359 C389 0.950 . S
H360 C390 0.950 . S
C361 H343 0.951 . S
C361 C362 1.366 . S
C361 C363 1.388 . S
C362 C361 1.366 . S
C362 C366 1.385 . S
C363 H344 0.951 . S
C363 C361 1.388 . S
C363 C364 1.366 . S
C364 C363 1.366 . S
C364 C365 1.414 . S
C364 C367 1.499 . S
C365 H345 0.950 . S
C365 C364 1.414 . S
C365 C366 1.374 . S
C366 H346 0.950 . S
C366 C362 1.385 . S
C366 C365 1.374 . S
C367 C364 1.499 . S
C367 C368 1.373 . S
C367 C369 1.389 . S
C368 H347 0.950 . S
C368 C367 1.373 . S
C368 C384 1.377 . S
C369 C367 1.389 . S
C369 C370 1.524 . S
C369 C383 1.377 . S
C370 C369 1.524 . S
C370 C371 1.397 . S
C370 C375 1.363 . S
C371 H348 0.950 . S
C371 C370 1.397 . S
C371 C372 1.334 . S
C372 H349 0.950 . S
C372 C371 1.334 . S
C372 C373 1.287 . S
C373 C372 1.287 . S
C373 C374 1.524 . S
C373 H392 0.913 . S
C374 H350 0.950 . S
C374 C373 1.524 . S
C374 C375 1.415 . S
C375 H351 0.950 . S
C375 C370 1.363 . S
C375 C374 1.415 . S
C376 H352 0.951 . S
C376 C377 1.366 . S
C376 C378 1.388 . S
C377 C376 1.366 . S
C377 C381 1.385 . S
C378 H353 0.951 . S
C378 C376 1.388 . S
C378 C379 1.366 . S
C379 C378 1.366 . S
C379 C380 1.414 . S
C379 C382 1.499 . S
C380 H354 0.950 . S
C380 C379 1.414 . S
C380 C381 1.374 . S
C381 H355 0.950 . S
C381 C377 1.385 . S
C381 C380 1.374 . S
C382 C379 1.499 . S
C382 C383 1.373 . S
C382 C384 1.389 . S
C383 H356 0.950 . S
C383 C369 1.377 . S
C383 C382 1.373 . S
C384 C368 1.377 . S
C384 C382 1.389 . S
C384 C385 1.524 . S
C385 C384 1.524 . S
C385 C386 1.397 . S
C385 C390 1.363 . S
C386 H357 0.950 . S
C386 C385 1.397 . S
C386 C387 1.334 . S
C387 H358 0.950 . S
C387 C386 1.334 . S
C387 C388 1.287 . S
C388 C387 1.287 . S
C388 C389 1.524 . S
C388 H391 0.999 . S
C389 H359 0.950 . S
C389 C388 1.524 . S
C389 C390 1.415 . S
C390 H360 0.950 . S
C390 C385 1.363 . S
C390 C389 1.415 . S
H391 C388 0.999 . S
H392 C373 0.913 . S
H393 C411 0.951 . S
H394 C413 0.951 . S
H395 C415 0.950 . S
H396 C416 0.950 . S
H397 C418 0.950 . S
H398 C421 0.950 . S
H399 C422 0.950 . S
H400 C424 0.950 1_455 S
H401 C425 0.950 . S
H402 C426 0.951 . S
H403 C428 0.951 . S
H404 C430 0.950 . S
H405 C431 0.950 . S
H406 C433 0.950 . S
H407 C436 0.950 . S
H408 C437 0.950 . S
H409 C439 0.950 1_565 S
H410 C440 0.950 . S
C411 H393 0.951 . S
C411 C412 1.366 . S
C411 C413 1.388 . S
C412 C411 1.366 . S
C412 C416 1.385 . S
C413 H394 0.951 . S
C413 C411 1.388 . S
C413 C414 1.366 . S
C414 C413 1.366 . S
C414 C415 1.414 . S
C414 C417 1.499 . S
C415 H395 0.950 . S
C415 C414 1.414 . S
C415 C416 1.374 . S
C416 H396 0.950 . S
C416 C412 1.385 . S
C416 C415 1.374 . S
C417 C414 1.499 . S
C417 C418 1.373 . S
C417 C419 1.389 . S
C418 H397 0.950 . S
C418 C417 1.373 . S
C418 C434 1.377 . S
C419 C417 1.389 . S
C419 C420 1.524 . S
C419 C433 1.377 . S
C420 C419 1.524 . S
C420 C421 1.397 . S
C420 C425 1.363 . S
C421 H398 0.950 . S
C421 C420 1.397 . S
C421 C422 1.334 . S
C422 H399 0.950 . S
C422 C421 1.334 . S
C422 C423 1.287 . S
C423 C422 1.287 . S
C423 C424 1.524 . S
C423 H442 0.913 . S
C424 H400 0.950 1_655 S
C424 C423 1.524 . S
C424 C425 1.415 . S
C425 H401 0.950 . S
C425 C420 1.363 . S
C425 C424 1.415 . S
C426 H402 0.951 . S
C426 C427 1.366 . S
C426 C428 1.388 . S
C427 C426 1.366 . S
C427 C431 1.385 . S
C428 H403 0.951 . S
C428 C426 1.388 . S
C428 C429 1.366 . S
C429 C428 1.366 . S
C429 C430 1.414 . S
C429 C432 1.499 . S
C430 H404 0.950 . S
C430 C429 1.414 . S
C430 C431 1.374 . S
C431 H405 0.950 . S
C431 C427 1.385 . S
C431 C430 1.374 . S
C432 C429 1.499 . S
C432 C433 1.373 . S
C432 C434 1.389 . S
C433 H406 0.950 . S
C433 C419 1.377 . S
C433 C432 1.373 . S
C434 C418 1.377 . S
C434 C432 1.389 . S
C434 C435 1.524 . S
C435 C434 1.524 . S
C435 C436 1.397 . S
C435 C440 1.363 . S
C436 H407 0.950 . S
C436 C435 1.397 . S
C436 C437 1.334 . S
C437 H408 0.950 . S
C437 C436 1.334 . S
C437 C438 1.287 . S
C438 C437 1.287 . S
C438 C439 1.524 . S
C438 H441 0.999 . S
C439 H409 0.950 1_545 S
C439 C438 1.524 . S
C439 C440 1.415 . S
C440 H410 0.950 . S
C440 C435 1.363 . S
C440 C439 1.415 . S
H441 C438 0.999 . S
H442 C423 0.913 . S
H443 C461 0.951 . S
H444 C463 0.951 . S
H445 C465 0.950 . S
H446 C466 0.950 . S
H447 C468 0.950 . S
H448 C471 0.950 . S
H449 C472 0.950 . S
H450 C474 0.950 . S
H451 C475 0.950 . S
H452 C476 0.951 . S
H453 C478 0.951 . S
H454 C480 0.950 . S
H455 C481 0.950 . S
H456 C483 0.950 . S
H457 C486 0.950 . S
H458 C487 0.950 . S
H459 C489 0.950 . S
H460 C490 0.950 . S
C461 H443 0.951 . S
C461 C462 1.366 . S
C461 C463 1.388 . S
C462 C461 1.366 . S
C462 C466 1.385 . S
C463 H444 0.951 . S
C463 C461 1.388 . S
C463 C464 1.366 . S
C464 C463 1.366 . S
C464 C465 1.414 . S
C464 C467 1.499 . S
C465 H445 0.950 . S
C465 C464 1.414 . S
C465 C466 1.374 . S
C466 H446 0.950 . S
C466 C462 1.385 . S
C466 C465 1.374 . S
C467 C464 1.499 . S
C467 C468 1.373 . S
C467 C469 1.389 . S
C468 H447 0.950 . S
C468 C467 1.373 . S
C468 C484 1.377 . S
C469 C467 1.389 . S
C469 C470 1.524 . S
C469 C483 1.377 . S
C470 C469 1.524 . S
C470 C471 1.397 . S
C470 C475 1.363 . S
C471 H448 0.950 . S
C471 C470 1.397 . S
C471 C472 1.334 . S
C472 H449 0.950 . S
C472 C471 1.334 . S
C472 C473 1.287 . S
C473 C472 1.287 . S
C473 C474 1.524 . S
C473 H492 0.913 . S
C474 H450 0.950 . S
C474 C473 1.524 . S
C474 C475 1.415 . S
C475 H451 0.950 . S
C475 C470 1.363 . S
C475 C474 1.415 . S
C476 H452 0.951 . S
C476 C477 1.366 . S
C476 C478 1.388 . S
C477 C476 1.366 . S
C477 C481 1.385 . S
C478 H453 0.951 . S
C478 C476 1.388 . S
C478 C479 1.366 . S
C479 C478 1.366 . S
C479 C480 1.414 . S
C479 C482 1.499 . S
C480 H454 0.950 . S
C480 C479 1.414 . S
C480 C481 1.374 . S
C481 H455 0.950 . S
C481 C477 1.385 . S
C481 C480 1.374 . S
C482 C479 1.499 . S
C482 C483 1.373 . S
C482 C484 1.389 . S
C483 H456 0.950 . S
C483 C469 1.377 . S
C483 C482 1.373 . S
C484 C468 1.377 . S
C484 C482 1.389 . S
C484 C485 1.524 . S
C485 C484 1.524 . S
C485 C486 1.397 . S
C485 C490 1.363 . S
C486 H457 0.950 . S
C486 C485 1.397 . S
C486 C487 1.334 . S
C487 H458 0.950 . S
C487 C486 1.334 . S
C487 C488 1.287 . S
C488 C487 1.287 . S
C488 C489 1.524 . S
C488 H491 0.999 1_556 S
C489 H459 0.950 . S
C489 C488 1.524 . S
C489 C490 1.415 . S
C490 H460 0.950 . S
C490 C485 1.363 . S
C490 C489 1.415 . S
H491 C488 0.999 1_554 S
H492 C473 0.913 . S
H493 C511 0.951 . S
H494 C513 0.951 . S
H495 C515 0.950 . S
H496 C516 0.950 . S
H497 C518 0.950 . S
H498 C521 0.950 . S
H499 C522 0.950 . S
H500 C524 0.950 . S
H501 C525 0.950 . S
H502 C526 0.951 . S
H503 C528 0.951 . S
H504 C530 0.950 . S
H505 C531 0.950 . S
H506 C533 0.950 . S
H507 C536 0.950 . S
H508 C537 0.950 . S
H509 C539 0.950 . S
H510 C540 0.950 . S
C511 H493 0.951 . S
C511 C512 1.366 . S
C511 C513 1.388 . S
C512 C511 1.366 . S
C512 C516 1.385 . S
C513 H494 0.951 . S
C513 C511 1.388 . S
C513 C514 1.366 . S
C514 C513 1.366 . S
C514 C515 1.414 . S
C514 C517 1.499 . S
C515 H495 0.950 . S
C515 C514 1.414 . S
C515 C516 1.374 . S
C516 H496 0.950 . S
C516 C512 1.385 . S
C516 C515 1.374 . S
C517 C514 1.499 . S
C517 C518 1.373 . S
C517 C519 1.389 . S
C518 H497 0.950 . S
C518 C517 1.373 . S
C518 C534 1.377 . S
C519 C517 1.389 . S
C519 C520 1.524 . S
C519 C533 1.377 . S
C520 C519 1.524 . S
C520 C521 1.397 . S
C520 C525 1.363 . S
C521 H498 0.950 . S
C521 C520 1.397 . S
C521 C522 1.334 . S
C522 H499 0.950 . S
C522 C521 1.334 . S
C522 C523 1.287 . S
C523 C522 1.287 . S
C523 C524 1.524 . S
C523 H542 0.913 . S
C524 H500 0.950 . S
C524 C523 1.524 . S
C524 C525 1.415 . S
C525 H501 0.950 . S
C525 C520 1.363 . S
C525 C524 1.415 . S
C526 H502 0.951 . S
C526 C527 1.366 . S
C526 C528 1.388 . S
C527 C526 1.366 . S
C527 C531 1.385 . S
C528 H503 0.951 . S
C528 C526 1.388 . S
C528 C529 1.366 . S
C529 C528 1.366 . S
C529 C530 1.414 . S
C529 C532 1.499 . S
C530 H504 0.950 . S
C530 C529 1.414 . S
C530 C531 1.374 . S
C531 H505 0.950 . S
C531 C527 1.385 . S
C531 C530 1.374 . S
C532 C529 1.499 . S
C532 C533 1.373 . S
C532 C534 1.389 . S
C533 H506 0.950 . S
C533 C519 1.377 . S
C533 C532 1.373 . S
C534 C518 1.377 . S
C534 C532 1.389 . S
C534 C535 1.524 . S
C535 C534 1.524 . S
C535 C536 1.397 . S
C535 C540 1.363 . S
C536 H507 0.950 . S
C536 C535 1.397 . S
C536 C537 1.334 . S
C537 H508 0.950 . S
C537 C536 1.334 . S
C537 C538 1.287 . S
C538 C537 1.287 . S
C538 C539 1.524 . S
C538 H541 0.999 . S
C539 H509 0.950 . S
C539 C538 1.524 . S
C539 C540 1.415 . S
C540 H510 0.950 . S
C540 C535 1.363 . S
C540 C539 1.415 . S
H541 C538 0.999 . S
H542 C523 0.913 . S
H543 C561 0.951 . S
H544 C563 0.951 . S
H545 C565 0.950 . S
H546 C566 0.950 . S
H547 C568 0.950 . S
H548 C571 0.950 . S
H549 C572 0.950 . S
H550 C574 0.950 . S
H551 C575 0.950 1_556 S
H552 C576 0.951 . S
H553 C578 0.951 . S
H554 C580 0.950 . S
H555 C581 0.950 . S
H556 C583 0.950 . S
H557 C586 0.950 . S
H558 C587 0.950 . S
H559 C589 0.950 . S
H560 C590 0.950 1_554 S
C561 H543 0.951 . S
C561 C562 1.366 . S
C561 C563 1.388 . S
C562 C561 1.366 . S
C562 C566 1.385 . S
C563 H544 0.951 . S
C563 C561 1.388 . S
C563 C564 1.366 . S
C564 C563 1.366 . S
C564 C565 1.414 . S
C564 C567 1.499 . S
C565 H545 0.950 . S
C565 C564 1.414 . S
C565 C566 1.374 . S
C566 H546 0.950 . S
C566 C562 1.385 . S
C566 C565 1.374 . S
C567 C564 1.499 . S
C567 C568 1.373 . S
C567 C569 1.389 . S
C568 H547 0.950 . S
C568 C567 1.373 . S
C568 C584 1.377 1_554 S
C569 C567 1.389 . S
C569 C570 1.524 . S
C569 C583 1.377 1_554 S
C570 C569 1.524 . S
C570 C571 1.397 . S
C570 C575 1.363 . S
C571 H548 0.950 . S
C571 C570 1.397 . S
C571 C572 1.334 . S
C572 H549 0.950 . S
C572 C571 1.334 . S
C572 C573 1.287 . S
C573 C572 1.287 . S
C573 C574 1.524 . S
C573 H592 0.913 . S
C574 H550 0.950 . S
C574 C573 1.524 . S
C574 C575 1.415 . S
C575 H551 0.950 1_554 S
C575 C570 1.363 . S
C575 C574 1.415 . S
C576 H552 0.951 . S
C576 C577 1.366 . S
C576 C578 1.388 . S
C577 C576 1.366 . S
C577 C581 1.385 . S
C578 H553 0.951 . S
C578 C576 1.388 . S
C578 C579 1.366 . S
C579 C578 1.366 . S
C579 C580 1.414 . S
C579 C582 1.499 . S
C580 H554 0.950 . S
C580 C579 1.414 . S
C580 C581 1.374 . S
C581 H555 0.950 . S
C581 C577 1.385 . S
C581 C580 1.374 . S
C582 C579 1.499 . S
C582 C583 1.373 . S
C582 C584 1.389 . S
C583 H556 0.950 . S
C583 C569 1.377 1_556 S
C583 C582 1.373 . S
C584 C568 1.377 1_556 S
C584 C582 1.389 . S
C584 C585 1.524 . S
C585 C584 1.524 . S
C585 C586 1.397 . S
C585 C590 1.363 . S
C586 H557 0.950 . S
C586 C585 1.397 . S
C586 C587 1.334 . S
C587 H558 0.950 . S
C587 C586 1.334 . S
C587 C588 1.287 . S
C588 C587 1.287 . S
C588 C589 1.524 . S
C588 H591 0.999 . S
C589 H559 0.950 . S
C589 C588 1.524 . S
C589 C590 1.415 . S
C590 H560 0.950 1_556 S
C590 C585 1.363 . S
C590 C589 1.415 . S
H591 C588 0.999 . S
H592 C573 0.913 . S
H593 C611 0.951 . S
H594 C613 0.951 . S
H595 C615 0.950 . S
H596 C616 0.950 . S
H597 C618 0.950 . S
H598 C621 0.950 . S
H599 C622 0.950 . S
H600 C624 0.950 1_554 S
H601 C625 0.950 . S
H602 C626 0.951 . S
H603 C628 0.951 . S
H604 C630 0.950 . S
H605 C631 0.950 . S
H606 C633 0.950 . S
H607 C636 0.950 . S
H608 C637 0.950 . S
H609 C639 0.950 1_556 S
H610 C640 0.950 . S
C611 H593 0.951 . S
C611 C612 1.366 . S
C611 C613 1.388 . S
C612 C611 1.366 . S
C612 C616 1.385 . S
C613 H594 0.951 . S
C613 C611 1.388 . S
C613 C614 1.366 . S
C614 C613 1.366 . S
C614 C615 1.414 . S
C614 C617 1.499 . S
C615 H595 0.950 . S
C615 C614 1.414 . S
C615 C616 1.374 . S
C616 H596 0.950 . S
C616 C612 1.385 . S
C616 C615 1.374 . S
C617 C614 1.499 . S
C617 C618 1.373 . S
C617 C619 1.389 . S
C618 H597 0.950 . S
C618 C617 1.373 . S
C618 C634 1.377 1_566 S
C619 C617 1.389 . S
C619 C620 1.524 . S
C619 C633 1.377 1_566 S
C620 C619 1.524 . S
C620 C621 1.397 . S
C620 C625 1.363 1_556 S
C621 H598 0.950 . S
C621 C620 1.397 . S
C621 C622 1.334 . S
C622 H599 0.950 . S
C622 C621 1.334 . S
C622 C623 1.287 . S
C623 C622 1.287 . S
C623 C624 1.524 . S
C623 H642 0.913 . S
C624 H600 0.950 1_556 S
C624 C623 1.524 . S
C624 C625 1.415 1_556 S
C625 H601 0.950 . S
C625 C620 1.363 1_554 S
C625 C624 1.415 1_554 S
C626 H602 0.951 . S
C626 C627 1.366 . S
C626 C628 1.388 . S
C627 C626 1.366 . S
C627 C631 1.385 . S
C628 H603 0.951 . S
C628 C626 1.388 . S
C628 C629 1.366 . S
C629 C628 1.366 . S
C629 C630 1.414 . S
C629 C632 1.499 . S
C630 H604 0.950 . S
C630 C629 1.414 . S
C630 C631 1.374 . S
C631 H605 0.950 . S
C631 C627 1.385 . S
C631 C630 1.374 . S
C632 C629 1.499 . S
C632 C633 1.373 . S
C632 C634 1.389 . S
C633 H606 0.950 . S
C633 C619 1.377 1_544 S
C633 C632 1.373 . S
C634 C618 1.377 1_544 S
C634 C632 1.389 . S
C634 C635 1.524 . S
C635 C634 1.524 . S
C635 C636 1.397 . S
C635 C640 1.363 1_554 S
C636 H607 0.950 . S
C636 C635 1.397 . S
C636 C637 1.334 . S
C637 H608 0.950 . S
C637 C636 1.334 . S
C637 C638 1.287 . S
C638 C637 1.287 . S
C638 C639 1.524 . S
C638 H641 0.999 . S
C639 H609 0.950 1_554 S
C639 C638 1.524 . S
C639 C640 1.415 1_554 S
C640 H610 0.950 . S
C640 C635 1.363 1_556 S
C640 C639 1.415 1_556 S
H641 C638 0.999 . S
H642 C623 0.913 . S
H643 C661 0.951 . S
H644 C663 0.951 . S
H645 C665 0.950 . S
H646 C666 0.950 . S
H647 C668 0.950 . S
H648 C671 0.950 . S
H649 C672 0.950 . S
H650 C674 0.950 . S
H651 C675 0.950 . S
H652 C676 0.951 . S
H653 C678 0.951 . S
H654 C680 0.950 . S
H655 C681 0.950 . S
H656 C683 0.950 . S
H657 C686 0.950 . S
H658 C687 0.950 . S
H659 C689 0.950 . S
H660 C690 0.950 . S
C661 H643 0.951 . S
C661 C662 1.366 . S
C661 C663 1.388 . S
C662 C661 1.366 . S
C662 C666 1.385 . S
C663 H644 0.951 . S
C663 C661 1.388 . S
C663 C664 1.366 . S
C664 C663 1.366 . S
C664 C665 1.414 . S
C664 C667 1.499 . S
C665 H645 0.950 . S
C665 C664 1.414 . S
C665 C666 1.374 . S
C666 H646 0.950 . S
C666 C662 1.385 . S
C666 C665 1.374 . S
C667 C664 1.499 . S
C667 C668 1.373 1_455 S
C667 C669 1.389 1_556 S
C668 H647 0.950 . S
C668 C667 1.373 1_655 S
C668 C684 1.377 . S
C669 C667 1.389 1_554 S
C669 C670 1.524 . S
C669 C683 1.377 . S
C670 C669 1.524 . S
C670 C671 1.397 . S
C670 C675 1.363 . S
C671 H648 0.950 . S
C671 C670 1.397 . S
C671 C672 1.334 . S
C672 H649 0.950 . S
C672 C671 1.334 . S
C672 C673 1.287 . S
C673 C672 1.287 . S
C673 C674 1.524 . S
C673 H692 0.913 . S
C674 H650 0.950 . S
C674 C673 1.524 . S
C674 C675 1.415 . S
C675 H651 0.950 . S
C675 C670 1.363 . S
C675 C674 1.415 . S
C676 H652 0.951 . S
C676 C677 1.366 . S
C676 C678 1.388 . S
C677 C676 1.366 . S
C677 C681 1.385 . S
C678 H653 0.951 . S
C678 C676 1.388 . S
C678 C679 1.366 . S
C679 C678 1.366 . S
C679 C680 1.414 . S
C679 C682 1.499 . S
C680 H654 0.950 . S
C680 C679 1.414 . S
C680 C681 1.374 . S
C681 H655 0.950 . S
C681 C677 1.385 . S
C681 C680 1.374 . S
C682 C679 1.499 . S
C682 C683 1.373 1_655 S
C682 C684 1.389 1_554 S
C683 H656 0.950 . S
C683 C669 1.377 . S
C683 C682 1.373 1_455 S
C684 C668 1.377 . S
C684 C682 1.389 1_556 S
C684 C685 1.524 . S
C685 C684 1.524 . S
C685 C686 1.397 . S
C685 C690 1.363 . S
C686 H657 0.950 . S
C686 C685 1.397 . S
C686 C687 1.334 . S
C687 H658 0.950 . S
C687 C686 1.334 . S
C687 C688 1.287 . S
C688 C687 1.287 . S
C688 C689 1.524 . S
C688 H691 0.999 . S
C689 H659 0.950 . S
C689 C688 1.524 . S
C689 C690 1.415 . S
C690 H660 0.950 . S
C690 C685 1.363 . S
C690 C689 1.415 . S
H691 C688 0.999 . S
H692 C673 0.913 . S
C112 C27 1.054 . S
C127 C1 1.054 . S
C162 C32 1.055 . S
C177 C58 1.055 . S
C212 C63 1.055 . S
C227 C89 1.055 . S
C262 C86 2.166 . S
C277 C0 2.166 . S
C312 C80 2.111 . S
C327 C11 2.108 . S
C362 C72 1.677 . S
C377 C2 1.677 . S
C412 C31 2.166 . S
C427 C24 2.166 . S
C462 C42 2.111 . S
C477 C18 2.114 . S
C512 C33 1.677 . S
C527 C10 1.677 . S
C562 C55 2.166 . S
C577 C62 2.166 . S
C612 C73 2.111 . S
C627 C49 2.111 . S
C662 C64 1.677 . S
C677 C41 1.677 . S
