# Generated by pormake.
# Topology som, (6)-cn, num edge types: 1
# Building blocks:
#     Node 0, Type 0, BuildingBlock: BETDEL_clean_sbu_0, # of connection points: 6
#     Node 1, Type 0, BuildingBlock: BETDEL_clean_sbu_0, # of connection points: 6
#     Node 2, Type 0, BuildingBlock: BETDEL_clean_sbu_0, # of connection points: 6
#     Node 3, Type 0, BuildingBlock: BETDEL_clean_sbu_0, # of connection points: 6
#     Node 4, Type 0, BuildingBlock: BETDEL_clean_sbu_0, # of connection points: 6
#     Node 5, Type 0, BuildingBlock: BETDEL_clean_sbu_0, # of connection points: 6
#     Node 6, Type 0, BuildingBlock: BETDEL_clean_sbu_0, # of connection points: 6
#     Node 7, Type 0, BuildingBlock: BETDEL_clean_sbu_0, # of connection points: 6
#     Node 8, Type 0, BuildingBlock: BETDEL_clean_sbu_0, # of connection points: 6
#     Node 9, Type 0, BuildingBlock: BETDEL_clean_sbu_0, # of connection points: 6
#     Node 10, Type 0, BuildingBlock: BETDEL_clean_sbu_0, # of connection points: 6
#     Node 11, Type 0, BuildingBlock: BETDEL_clean_sbu_0, # of connection points: 6
#     Node 12, Type 0, BuildingBlock: BETDEL_clean_sbu_0, # of connection points: 6
#     Node 13, Type 0, BuildingBlock: BETDEL_clean_sbu_0, # of connection points: 6
#     Node 14, Type 0, BuildingBlock: BETDEL_clean_sbu_0, # of connection points: 6
#     Node 15, Type 0, BuildingBlock: BETDEL_clean_sbu_0, # of connection points: 6
#     Node 16, Type 0, BuildingBlock: BETDEL_clean_sbu_0, # of connection points: 6
#     Node 17, Type 0, BuildingBlock: BETDEL_clean_sbu_0, # of connection points: 6
#     Node 18, Type 0, BuildingBlock: BETDEL_clean_sbu_0, # of connection points: 6
#     Node 19, Type 0, BuildingBlock: BETDEL_clean_sbu_0, # of connection points: 6
#     Node 20, Type 0, BuildingBlock: BETDEL_clean_sbu_0, # of connection points: 6
#     Node 21, Type 0, BuildingBlock: BETDEL_clean_sbu_0, # of connection points: 6
#     Node 22, Type 0, BuildingBlock: BETDEL_clean_sbu_0, # of connection points: 6
#     Node 23, Type 0, BuildingBlock: BETDEL_clean_sbu_0, # of connection points: 6
#     Node 24, Type 0, BuildingBlock: BETDEL_clean_sbu_0, # of connection points: 6
#     Node 25, Type 0, BuildingBlock: BETDEL_clean_sbu_0, # of connection points: 6
#     Node 26, Type 0, BuildingBlock: BETDEL_clean_sbu_0, # of connection points: 6
#     Node 27, Type 0, BuildingBlock: BETDEL_clean_sbu_0, # of connection points: 6
#     Node 28, Type 0, BuildingBlock: BETDEL_clean_sbu_0, # of connection points: 6
#     Node 29, Type 0, BuildingBlock: BETDEL_clean_sbu_0, # of connection points: 6
#     Node 30, Type 0, BuildingBlock: BETDEL_clean_sbu_0, # of connection points: 6
#     Node 31, Type 0, BuildingBlock: BETDEL_clean_sbu_0, # of connection points: 6
#     Edge 32, Type (0, 0), BuildingBlock: CIFDUS_clean_linker_0, # of connection points: 2
#     Edge 33, Type (0, 0), BuildingBlock: CIFDUS_clean_linker_0, # of connection points: 2
#     Edge 34, Type (0, 0), BuildingBlock: CIFDUS_clean_linker_0, # of connection points: 2
#     Edge 35, Type (0, 0), BuildingBlock: CIFDUS_clean_linker_0, # of connection points: 2
#     Edge 36, Type (0, 0), BuildingBlock: CIFDUS_clean_linker_0, # of connection points: 2
#     Edge 37, Type (0, 0), BuildingBlock: CIFDUS_clean_linker_0, # of connection points: 2
#     Edge 38, Type (0, 0), BuildingBlock: CIFDUS_clean_linker_0, # of connection points: 2
#     Edge 39, Type (0, 0), BuildingBlock: CIFDUS_clean_linker_0, # of connection points: 2
#     Edge 40, Type (0, 0), BuildingBlock: CIFDUS_clean_linker_0, # of connection points: 2
#     Edge 41, Type (0, 0), BuildingBlock: CIFDUS_clean_linker_0, # of connection points: 2
#     Edge 42, Type (0, 0), BuildingBlock: CIFDUS_clean_linker_0, # of connection points: 2
#     Edge 43, Type (0, 0), BuildingBlock: CIFDUS_clean_linker_0, # of connection points: 2
#     Edge 44, Type (0, 0), BuildingBlock: CIFDUS_clean_linker_0, # of connection points: 2
#     Edge 45, Type (0, 0), BuildingBlock: CIFDUS_clean_linker_0, # of connection points: 2
#     Edge 46, Type (0, 0), BuildingBlock: CIFDUS_clean_linker_0, # of connection points: 2
#     Edge 47, Type (0, 0), BuildingBlock: CIFDUS_clean_linker_0, # of connection points: 2
#     Edge 48, Type (0, 0), BuildingBlock: CIFDUS_clean_linker_0, # of connection points: 2
#     Edge 49, Type (0, 0), BuildingBlock: CIFDUS_clean_linker_0, # of connection points: 2
#     Edge 50, Type (0, 0), BuildingBlock: CIFDUS_clean_linker_0, # of connection points: 2
#     Edge 51, Type (0, 0), BuildingBlock: CIFDUS_clean_linker_0, # of connection points: 2
#     Edge 52, Type (0, 0), BuildingBlock: CIFDUS_clean_linker_0, # of connection points: 2
#     Edge 53, Type (0, 0), BuildingBlock: CIFDUS_clean_linker_0, # of connection points: 2
#     Edge 54, Type (0, 0), BuildingBlock: CIFDUS_clean_linker_0, # of connection points: 2
#     Edge 55, Type (0, 0), BuildingBlock: CIFDUS_clean_linker_0, # of connection points: 2
#     Edge 56, Type (0, 0), BuildingBlock: CIFDUS_clean_linker_0, # of connection points: 2
#     Edge 57, Type (0, 0), BuildingBlock: CIFDUS_clean_linker_0, # of connection points: 2
#     Edge 58, Type (0, 0), BuildingBlock: CIFDUS_clean_linker_0, # of connection points: 2
#     Edge 59, Type (0, 0), BuildingBlock: CIFDUS_clean_linker_0, # of connection points: 2
#     Edge 60, Type (0, 0), BuildingBlock: CIFDUS_clean_linker_0, # of connection points: 2
#     Edge 61, Type (0, 0), BuildingBlock: CIFDUS_clean_linker_0, # of connection points: 2
#     Edge 62, Type (0, 0), BuildingBlock: CIFDUS_clean_linker_0, # of connection points: 2
#     Edge 63, Type (0, 0), BuildingBlock: CIFDUS_clean_linker_0, # of connection points: 2
#     Edge 64, Type (0, 0), BuildingBlock: CIFDUS_clean_linker_0, # of connection points: 2
#     Edge 65, Type (0, 0), BuildingBlock: CIFDUS_clean_linker_0, # of connection points: 2
#     Edge 66, Type (0, 0), BuildingBlock: CIFDUS_clean_linker_0, # of connection points: 2
#     Edge 67, Type (0, 0), BuildingBlock: CIFDUS_clean_linker_0, # of connection points: 2
#     Edge 68, Type (0, 0), BuildingBlock: CIFDUS_clean_linker_0, # of connection points: 2
#     Edge 69, Type (0, 0), BuildingBlock: CIFDUS_clean_linker_0, # of connection points: 2
#     Edge 70, Type (0, 0), BuildingBlock: CIFDUS_clean_linker_0, # of connection points: 2
#     Edge 71, Type (0, 0), BuildingBlock: CIFDUS_clean_linker_0, # of connection points: 2
#     Edge 72, Type (0, 0), BuildingBlock: CIFDUS_clean_linker_0, # of connection points: 2
#     Edge 73, Type (0, 0), BuildingBlock: CIFDUS_clean_linker_0, # of connection points: 2
#     Edge 74, Type (0, 0), BuildingBlock: CIFDUS_clean_linker_0, # of connection points: 2
#     Edge 75, Type (0, 0), BuildingBlock: CIFDUS_clean_linker_0, # of connection points: 2
#     Edge 76, Type (0, 0), BuildingBlock: CIFDUS_clean_linker_0, # of connection points: 2
#     Edge 77, Type (0, 0), BuildingBlock: CIFDUS_clean_linker_0, # of connection points: 2
#     Edge 78, Type (0, 0), BuildingBlock: CIFDUS_clean_linker_0, # of connection points: 2
#     Edge 79, Type (0, 0), BuildingBlock: CIFDUS_clean_linker_0, # of connection points: 2
#     Edge 80, Type (0, 0), BuildingBlock: CIFDUS_clean_linker_0, # of connection points: 2
#     Edge 81, Type (0, 0), BuildingBlock: CIFDUS_clean_linker_0, # of connection points: 2
#     Edge 82, Type (0, 0), BuildingBlock: CIFDUS_clean_linker_0, # of connection points: 2
#     Edge 83, Type (0, 0), BuildingBlock: CIFDUS_clean_linker_0, # of connection points: 2
#     Edge 84, Type (0, 0), BuildingBlock: CIFDUS_clean_linker_0, # of connection points: 2
#     Edge 85, Type (0, 0), BuildingBlock: CIFDUS_clean_linker_0, # of connection points: 2
#     Edge 86, Type (0, 0), BuildingBlock: CIFDUS_clean_linker_0, # of connection points: 2
#     Edge 87, Type (0, 0), BuildingBlock: CIFDUS_clean_linker_0, # of connection points: 2
#     Edge 88, Type (0, 0), BuildingBlock: CIFDUS_clean_linker_0, # of connection points: 2
#     Edge 89, Type (0, 0), BuildingBlock: CIFDUS_clean_linker_0, # of connection points: 2
#     Edge 90, Type (0, 0), BuildingBlock: CIFDUS_clean_linker_0, # of connection points: 2
#     Edge 91, Type (0, 0), BuildingBlock: CIFDUS_clean_linker_0, # of connection points: 2
#     Edge 92, Type (0, 0), BuildingBlock: CIFDUS_clean_linker_0, # of connection points: 2
#     Edge 93, Type (0, 0), BuildingBlock: CIFDUS_clean_linker_0, # of connection points: 2
#     Edge 94, Type (0, 0), BuildingBlock: CIFDUS_clean_linker_0, # of connection points: 2
#     Edge 95, Type (0, 0), BuildingBlock: CIFDUS_clean_linker_0, # of connection points: 2
#     Edge 96, Type (0, 0), BuildingBlock: CIFDUS_clean_linker_0, # of connection points: 2
#     Edge 97, Type (0, 0), BuildingBlock: CIFDUS_clean_linker_0, # of connection points: 2
#     Edge 98, Type (0, 0), BuildingBlock: CIFDUS_clean_linker_0, # of connection points: 2
#     Edge 99, Type (0, 0), BuildingBlock: CIFDUS_clean_linker_0, # of connection points: 2
#     Edge 100, Type (0, 0), BuildingBlock: CIFDUS_clean_linker_0, # of connection points: 2
#     Edge 101, Type (0, 0), BuildingBlock: CIFDUS_clean_linker_0, # of connection points: 2
#     Edge 102, Type (0, 0), BuildingBlock: CIFDUS_clean_linker_0, # of connection points: 2
#     Edge 103, Type (0, 0), BuildingBlock: CIFDUS_clean_linker_0, # of connection points: 2
#     Edge 104, Type (0, 0), BuildingBlock: CIFDUS_clean_linker_0, # of connection points: 2
#     Edge 105, Type (0, 0), BuildingBlock: CIFDUS_clean_linker_0, # of connection points: 2
#     Edge 106, Type (0, 0), BuildingBlock: CIFDUS_clean_linker_0, # of connection points: 2
#     Edge 107, Type (0, 0), BuildingBlock: CIFDUS_clean_linker_0, # of connection points: 2
#     Edge 108, Type (0, 0), BuildingBlock: CIFDUS_clean_linker_0, # of connection points: 2
#     Edge 109, Type (0, 0), BuildingBlock: CIFDUS_clean_linker_0, # of connection points: 2
#     Edge 110, Type (0, 0), BuildingBlock: CIFDUS_clean_linker_0, # of connection points: 2
#     Edge 111, Type (0, 0), BuildingBlock: CIFDUS_clean_linker_0, # of connection points: 2
#     Edge 112, Type (0, 0), BuildingBlock: CIFDUS_clean_linker_0, # of connection points: 2
#     Edge 113, Type (0, 0), BuildingBlock: CIFDUS_clean_linker_0, # of connection points: 2
#     Edge 114, Type (0, 0), BuildingBlock: CIFDUS_clean_linker_0, # of connection points: 2
#     Edge 115, Type (0, 0), BuildingBlock: CIFDUS_clean_linker_0, # of connection points: 2
#     Edge 116, Type (0, 0), BuildingBlock: CIFDUS_clean_linker_0, # of connection points: 2
#     Edge 117, Type (0, 0), BuildingBlock: CIFDUS_clean_linker_0, # of connection points: 2
#     Edge 118, Type (0, 0), BuildingBlock: CIFDUS_clean_linker_0, # of connection points: 2
#     Edge 119, Type (0, 0), BuildingBlock: CIFDUS_clean_linker_0, # of connection points: 2
#     Edge 120, Type (0, 0), BuildingBlock: CIFDUS_clean_linker_0, # of connection points: 2
#     Edge 121, Type (0, 0), BuildingBlock: CIFDUS_clean_linker_0, # of connection points: 2
#     Edge 122, Type (0, 0), BuildingBlock: CIFDUS_clean_linker_0, # of connection points: 2
#     Edge 123, Type (0, 0), BuildingBlock: CIFDUS_clean_linker_0, # of connection points: 2
#     Edge 124, Type (0, 0), BuildingBlock: CIFDUS_clean_linker_0, # of connection points: 2
#     Edge 125, Type (0, 0), BuildingBlock: CIFDUS_clean_linker_0, # of connection points: 2
#     Edge 126, Type (0, 0), BuildingBlock: CIFDUS_clean_linker_0, # of connection points: 2
#     Edge 127, Type (0, 0), BuildingBlock: CIFDUS_clean_linker_0, # of connection points: 2
# Relax obj value: 0.060
# Max RMSD: 0.111
# Mean RMSD: 0.111
data_MOF--net-som--node1-BETDEL_clean_sbu_0--edge1-CIFDUS_clean_linker_0
_symmetry_space_group_name_H-M    P1
_symmetry_Int_Tables_number       1
_symmetry_cell_setting            triclinic
loop_
_symmetry_equiv_pos_as_xyz
'x, y, z'
_cell_length_a     16.35023
_cell_length_b     51.220064
_cell_length_c     98.501975
_cell_angle_alpha  89.982319
_cell_angle_beta   89.987045
_cell_angle_gamma 89.925998
loop_
_atom_site_label
_atom_site_type_symbol
_atom_site_fract_x
_atom_site_fract_y
_atom_site_fract_z
_atom_type_partial_charge
Dy0 Dy 0.92476 0.49527 0.08268 0.0
C1 C 0.27622 0.4756 0.08768 0.0
C2 C 0.75785 0.49621 0.08089 0.0
Dy3 Dy 0.11451 0.48074 0.08142 0.0
O4 O 0.7994 0.49316 0.09199 0.0
O5 O 0.80759 0.49946 0.07071 0.0
O6 O 0.94911 0.51052 0.10371 0.0
O7 O 1.01654 0.47858 0.09629 0.0
C8 C 1.00784 0.49403 0.10612 0.0
C9 C 0.0569 0.48952 0.05625 0.0
O10 O 0.06001 0.44055 0.08284 0.0
O11 O 0.92395 0.45236 0.07876 0.0
O12 O 0.24 0.46468 0.07741 0.0
O13 O 0.22312 0.48842 0.09495 0.0
O14 O 0.132 0.48299 0.0588 0.0
O15 O 1.0187 0.49089 0.06735 0.0
O16 O 0.97505 0.53446 0.07805 0.0
O17 O 0.10982 0.52451 0.08413 0.0
C18 C 0.98212 0.43456 0.08037 0.0
C19 C 0.0511 0.54152 0.08096 0.0
Dy20 Dy 0.35282 0.73345 0.08341 0.0
C21 C 1.0054 0.7499 0.08411 0.0
C22 C 0.5201 0.73106 0.08144 0.0
Dy23 Dy 0.17221 0.7473 0.08132 0.0
O24 O 0.4795 0.73949 0.09187 0.0
O25 O 0.4692 0.72336 0.07212 0.0
O26 O 0.32939 0.71865 0.10462 0.0
O27 O 0.26312 0.75073 0.09719 0.0
C28 C 0.27133 0.73534 0.10705 0.0
C29 C 0.24853 0.74656 0.05733 0.0
O30 O 0.22269 0.78784 0.0832 0.0
O31 O 0.35553 0.77563 0.0778 0.0
O32 O 0.04428 0.74276 0.07327 0.0
O33 O 0.05783 0.75624 0.09349 0.0
O34 O 0.18956 0.76252 0.06043 0.0
O35 O 0.26136 0.73078 0.06705 0.0
O36 O 0.30762 0.69316 0.08055 0.0
O37 O 0.17261 0.7038 0.08541 0.0
C38 C 0.29947 0.79375 0.08004 0.0
C39 C 0.2313 0.68633 0.08317 0.0
Dy40 Dy 0.97476 0.73841 0.20301 0.0
C41 C 0.32115 0.75896 0.2009 0.0
C42 C 0.80675 0.73592 0.20501 0.0
Dy43 Dy 0.15323 0.75656 0.20334 0.0
O44 O 0.85781 0.7307 0.21481 0.0
O45 O 0.8478 0.74159 0.19414 0.0
O46 O 0.99977 0.71589 0.18393 0.0
O47 O 0.06206 0.75122 0.18751 0.0
C48 C 0.05599 0.73182 0.17969 0.0
C49 C 0.07594 0.7622 0.22717 0.0
O50 O 0.09501 0.79469 0.19744 0.0
O51 O 0.96547 0.78185 0.20436 0.0
O52 O 0.28092 0.75399 0.21194 0.0
O53 O 0.26932 0.76355 0.19113 0.0
O54 O 0.13043 0.77837 0.22254 0.0
O55 O 0.06757 0.74324 0.21902 0.0
O56 O 0.02904 0.70046 0.20926 0.0
O57 O 0.16041 0.71252 0.20277 0.0
C58 C 1.01696 0.79998 0.2001 0.0
C59 C 0.10661 0.69465 0.20674 0.0
Dy60 Dy 0.32166 0.49801 0.20017 0.0
C61 C 0.97032 0.47784 0.19877 0.0
C62 C 0.48804 0.50057 0.20089 0.0
Dy63 Dy 0.13561 0.47989 0.20238 0.0
O64 O 0.44551 0.48866 0.19165 0.0
O65 O 0.43952 0.51167 0.20967 0.0
O66 O 0.2915 0.51878 0.18072 0.0
O67 O 0.22588 0.48505 0.18616 0.0
C68 C 0.23074 0.50352 0.17775 0.0
C69 C 0.20526 0.482 0.22712 0.0
O70 O 0.19361 0.44047 0.2001 0.0
O71 O 0.32859 0.45462 0.20312 0.0
O72 O 1.00892 0.49317 0.207 0.0
O73 O 0.02238 0.46297 0.19232 0.0
O74 O 0.13118 0.47371 0.22513 0.0
O75 O 0.23616 0.48719 0.21576 0.0
O76 O 0.26483 0.53472 0.20776 0.0
O77 O 0.1349 0.52363 0.20006 0.0
C78 C 0.27331 0.43582 0.20166 0.0
C79 C 0.18803 0.54093 0.20485 0.0
Dy80 Dy 0.90517 0.50043 0.95151 0.0
C81 C 0.25942 0.49429 0.95064 0.0
C82 C 0.74435 0.49943 0.94435 0.0
Dy83 Dy 0.094 0.48834 0.95088 0.0
O84 O 0.77908 0.51821 0.95115 0.0
O85 O 0.79851 0.48207 0.94093 0.0
O86 O 0.88584 0.50249 0.97414 0.0
O87 O 1.00095 0.49436 0.96623 0.0
C88 C 0.96142 0.4972 0.97711 0.0
C89 C 1.01213 0.48265 0.92747 0.0
O90 O 0.05067 0.44981 0.95825 0.0
O91 O 0.91658 0.45659 0.95103 0.0
O92 O 0.22153 0.47541 0.95691 0.0
O93 O 0.20743 0.50939 0.94459 0.0
O94 O 0.07411 0.46828 0.93084 0.0
O95 O 1.00087 0.5003 0.93613 0.0
O96 O 0.95689 0.54044 0.9479 0.0
O97 O 0.08493 0.53027 0.95667 0.0
C98 C 0.97629 0.4411 0.95542 0.0
C99 C 0.03065 0.54746 0.95226 0.0
Dy100 Dy 0.88436 0.2351 0.95042 0.0
C101 C 0.52554 0.24856 0.95254 0.0
C102 C 0.04646 0.23481 0.94555 0.0
Dy103 Dy 0.68883 0.24719 0.94911 0.0
O104 O 1.0077 0.25226 0.95257 0.0
O105 O 0.99631 0.21713 0.94092 0.0
O106 O 0.89306 0.22856 0.97303 0.0
O107 O 0.78227 0.23816 0.96411 0.0
C108 C 0.81643 0.23363 0.97531 0.0
C109 C 0.76269 0.24712 0.9244 0.0
O110 O 0.7363 0.28655 0.95425 0.0
O111 O 0.87284 0.27878 0.94822 0.0
O112 O 0.56548 0.23024 0.94634 0.0
O113 O 0.5751 0.26638 0.95719 0.0
O114 O 0.68462 0.25065 0.9259 0.0
O115 O 0.79203 0.2447 0.93599 0.0
O116 O 0.83134 0.19561 0.94567 0.0
O117 O 0.69928 0.20468 0.95346 0.0
C118 C 0.81199 0.29465 0.95183 0.0
C119 C 0.75587 0.18819 0.94904 0.0
Dy120 Dy 0.93437 0.23838 0.834 0.0
C121 C 0.2898 0.24216 0.83329 0.0
C122 C 0.77345 0.23871 0.84103 0.0
Dy123 Dy 0.12463 0.24851 0.83469 0.0
O124 O 0.80927 0.22017 0.83419 0.0
O125 O 0.82646 0.25634 0.8445 0.0
O126 O 0.91412 0.23933 0.81137 0.0
O127 O 0.0299 0.24555 0.81939 0.0
C128 C 0.98994 0.24434 0.80848 0.0
C129 C 0.04733 0.25037 0.85882 0.0
O130 O 0.08222 0.28773 0.82799 0.0
O131 O 0.94957 0.28175 0.83601 0.0
O132 O 0.23761 0.22415 0.83634 0.0
O133 O 0.25209 0.26408 0.83084 0.0
O134 O 0.11377 0.26313 0.85617 0.0
O135 O 0.03113 0.23534 0.84911 0.0
O136 O 0.98312 0.19753 0.83591 0.0
O137 O 0.11212 0.20758 0.82747 0.0
C138 C 1.00898 0.29688 0.83128 0.0
C139 C 0.05598 0.19041 0.83116 0.0
Dy140 Dy 0.88294 0.50295 0.82917 0.0
C141 C 0.53675 0.48344 0.83212 0.0
C142 C 0.05107 0.50696 0.8302 0.0
Dy143 Dy 0.70507 0.48718 0.8324 0.0
O144 O 1.00394 0.51742 0.8211 0.0
O145 O 1.00597 0.49497 0.83911 0.0
O146 O 0.85869 0.51796 0.80844 0.0
O147 O 0.79178 0.48565 0.81532 0.0
C148 C 0.80055 0.50168 0.80564 0.0
C149 C 0.79248 0.48906 0.85551 0.0
O150 O 0.75347 0.44856 0.8261 0.0
O151 O 0.88839 0.45892 0.83093 0.0
O152 O 0.58498 0.47297 0.84106 0.0
O153 O 0.58077 0.49525 0.82301 0.0
O154 O 0.73522 0.47215 0.85328 0.0
O155 O 0.79642 0.50502 0.84584 0.0
O156 O 0.83007 0.54216 0.83448 0.0
O157 O 0.69647 0.53032 0.82965 0.0
C158 C 0.83032 0.44152 0.82828 0.0
C159 C 0.75233 0.54832 0.83214 0.0
Dy160 Dy 0.93317 -0.00051 0.58204 0.0
C161 C 0.2894 0.98429 0.58528 0.0
C162 C 0.76924 0.00074 0.57886 0.0
Dy163 Dy 0.12651 0.98541 0.58074 0.0
O164 O 0.80979 0.9826 0.5851 0.0
O165 O 0.81854 0.01853 0.57406 0.0
O166 O 0.92794 0.00306 0.60519 0.0
O167 O 0.03369 -0.00725 0.59553 0.0
C168 C 1.00407 -0.00318 0.60703 0.0
C169 C 0.06274 0.98854 0.5555 0.0
O170 O 0.07005 0.94577 0.58388 0.0
O171 O 0.93958 0.95746 0.57635 0.0
O172 O 0.24977 0.00308 0.57943 0.0
O173 O 0.23961 0.96568 0.58897 0.0
O174 O 0.13806 0.98219 0.55801 0.0
O175 O 0.02677 -0.00801 0.5667 0.0
O176 O 0.98459 0.0391 0.57884 0.0
O177 O 0.11761 0.02838 0.5856 0.0
C178 C 0.99394 0.93972 0.58018 0.0
C179 C 0.05996 0.04575 0.58243 0.0
Dy180 Dy 0.37178 0.23616 0.58673 0.0
C181 C 0.02367 0.25365 0.58707 0.0
C182 C 0.5389 0.23339 0.58469 0.0
Dy183 Dy 0.19037 0.25078 0.58425 0.0
O184 O 0.4986 0.24104 0.59532 0.0
O185 O 0.48773 0.2266 0.57522 0.0
O186 O 0.34654 0.222 0.60797 0.0
O187 O 0.2815 0.25406 0.60009 0.0
C188 C 0.28851 0.23889 0.61007 0.0
C189 C 0.26925 0.24839 0.56053 0.0
O190 O 0.24195 0.29119 0.586 0.0
O191 O 0.37514 0.27845 0.58109 0.0
O192 O 0.06238 0.24744 0.57604 0.0
O193 O 0.07623 0.25902 0.59658 0.0
O194 O 0.21 0.26463 0.56309 0.0
O195 O 0.28016 0.23325 0.57054 0.0
O196 O 0.32437 0.19598 0.58407 0.0
O197 O 0.18912 0.20731 0.58848 0.0
C198 C 0.31925 0.29681 0.58302 0.0
C199 C 0.24736 0.18954 0.58652 0.0
Dy200 Dy 0.95719 0.23907 0.70284 0.0
C201 C 0.30756 0.25642 0.69774 0.0
C202 C 0.79038 0.23799 0.70344 0.0
Dy203 Dy 0.14491 0.25336 0.70383 0.0
O204 O 0.8376 0.2235 0.71099 0.0
O205 O 0.83428 0.25285 0.69566 0.0
O206 O 0.98082 0.21853 0.683 0.0
O207 O 0.05087 0.25129 0.6882 0.0
C208 C 0.04186 0.23331 0.67965 0.0
C209 C 0.08604 0.25079 0.72931 0.0
O210 O 0.08868 0.2926 0.69976 0.0
O211 O 0.95728 0.2818 0.70696 0.0
O212 O 0.26102 0.2764 0.70045 0.0
O213 O 0.26455 0.23517 0.69791 0.0
O214 O 0.1612 0.25677 0.72647 0.0
O215 O 0.04801 0.24707 0.71837 0.0
O216 O 1.00725 0.20141 0.7101 0.0
O217 O 0.13842 0.20954 0.702 0.0
C218 C 1.01269 0.29917 0.7032 0.0
C219 C 0.0813 0.19337 0.70662 0.0
Dy220 Dy 0.36429 -0.00055 0.69755 0.0
C221 C 1.00783 0.9871 0.69392 0.0
C222 C 0.52797 0.00069 0.70077 0.0
Dy223 Dy 0.17004 0.98765 0.69896 0.0
O224 O 0.48772 0.98223 0.69476 0.0
O225 O 0.47853 0.01866 0.70534 0.0
O226 O 0.36925 0.0036 0.67441 0.0
O227 O 0.26203 -0.00459 0.68412 0.0
C228 C 0.29209 -0.00108 0.67261 0.0
C229 C 0.23488 0.9879 0.72409 0.0
O230 O 0.22198 0.94749 0.69572 0.0
O231 O 0.35471 0.95737 0.70284 0.0
O232 O 0.04638 0.00503 0.7006 0.0
O233 O 0.0583 0.96909 0.6897 0.0
O234 O 0.15888 0.98245 0.72154 0.0
O235 O 0.27115 -0.00821 0.71295 0.0
O236 O 0.31818 0.03893 0.70244 0.0
O237 O 0.18197 0.03126 0.69632 0.0
C238 C 0.2974 0.94042 0.69929 0.0
C239 C 0.24289 0.0471 0.69986 0.0
Dy240 Dy 0.89986 -4e-05 0.45102 0.0
C241 C 0.2575 0.98536 0.45313 0.0
C242 C 0.73722 0.00124 0.44613 0.0
Dy243 Dy 0.09361 0.98668 0.44979 0.0
O244 O 0.78687 0.02039 0.44324 0.0
O245 O 0.77693 0.98178 0.45134 0.0
O246 O 0.88764 0.00323 0.47374 0.0
O247 O 0.99953 -0.00615 0.46512 0.0
C248 C 0.96319 -0.00279 0.4763 0.0
C249 C 0.0236 0.99 0.42473 0.0
O250 O 0.04394 0.94704 0.45322 0.0
O251 O 0.90976 0.95673 0.44666 0.0
O252 O 0.20831 0.9669 0.45722 0.0
O253 O 0.21682 0.00424 0.44755 0.0
O254 O 0.10026 0.98456 0.42659 0.0
O255 O 0.99278 -0.00719 0.43624 0.0
O256 O 0.95642 0.03959 0.44752 0.0
O257 O 0.08522 0.02832 0.45585 0.0
C258 C 0.96883 0.93984 0.44982 0.0
C259 C 0.03196 0.04585 0.45145 0.0
Dy260 Dy 0.87651 0.73418 0.44892 0.0
C261 C 0.51827 0.74648 0.45066 0.0
C262 C 0.03886 0.73328 0.44445 0.0
Dy263 Dy 0.68127 0.74488 0.44696 0.0
O264 O 0.98871 0.71543 0.44001 0.0
O265 O 1.00001 0.75129 0.45107 0.0
O266 O 0.88398 0.73043 0.47177 0.0
O267 O 0.77358 0.7383 0.4624 0.0
C268 C 0.80696 0.73525 0.4738 0.0
C269 C 0.75446 0.7429 0.42226 0.0
O270 O 0.72672 0.78528 0.45033 0.0
O271 O 0.86353 0.77718 0.4447 0.0
O272 O 0.56827 0.76433 0.45512 0.0
O273 O 0.55759 0.72802 0.44446 0.0
O274 O 0.67644 0.74652 0.42378 0.0
O275 O 0.78477 0.74107 0.43386 0.0
O276 O 0.82785 0.6938 0.44535 0.0
O277 O 0.69332 0.70258 0.45201 0.0
C278 C 0.80201 0.79334 0.44754 0.0
C279 C 0.7524 0.68614 0.44848 0.0
Dy280 Dy 0.93226 0.73257 0.32835 0.0
C281 C 0.27779 0.74737 0.33276 0.0
C282 C 0.76414 0.73115 0.3272 0.0
Dy283 Dy 0.10966 0.74606 0.33179 0.0
O284 O 0.81321 0.73143 0.31689 0.0
O285 O 0.80696 0.73106 0.33833 0.0
O286 O 0.96289 0.71156 0.30935 0.0
O287 O 0.02732 0.74595 0.31407 0.0
C288 C 1.01966 0.7276 0.30551 0.0
C289 C 1.02069 0.75055 0.35458 0.0
O290 O 0.06859 0.78563 0.32565 0.0
O291 O 0.93212 0.77652 0.32986 0.0
O292 O 0.23463 0.7469 0.32166 0.0
O293 O 0.22904 0.74772 0.34311 0.0
O294 O 0.08101 0.76584 0.35145 0.0
O295 O 1.01362 0.73267 0.34582 0.0
O296 O 0.97652 0.69267 0.3342 0.0
O297 O 0.11232 0.70264 0.32994 0.0
C298 C 0.9919 0.7933 0.32725 0.0
C299 C 0.054 0.68552 0.33259 0.0
Dy300 Dy 0.87587 -0.00136 0.33237 0.0
C301 C 0.51659 0.98197 0.32701 0.0
C302 C 0.03827 -1e-05 0.33837 0.0
Dy303 Dy 0.6791 0.98378 0.33278 0.0
O304 O 1.00108 0.01632 0.33033 0.0
O305 O 0.98589 0.98378 0.34359 0.0
O306 O 0.88666 0.0009 0.30946 0.0
O307 O 0.77829 0.98998 0.31853 0.0
C308 C 0.81165 -0.00622 0.3072 0.0
C309 C 0.74556 0.98945 0.35799 0.0
O310 O 0.73372 0.94527 0.32748 0.0
O311 O 0.87121 0.95462 0.33254 0.0
O312 O 0.55356 0.96706 0.3358 0.0
O313 O 0.56942 -0.00317 0.32088 0.0
O314 O 0.66992 0.98279 0.35592 0.0
O315 O 0.77751 -0.00753 0.34652 0.0
O316 O 0.81761 0.03772 0.33692 0.0
O317 O 0.68192 0.02704 0.33132 0.0
C318 C 0.81113 0.93811 0.32938 0.0
C319 C 0.73962 0.04415 0.33454 0.0
Dy320 Dy 0.49014 0.49609 0.57948 0.0
C321 C 0.83979 0.4776 0.57824 0.0
C322 C 0.32349 0.49891 0.57738 0.0
Dy323 Dy 0.67285 0.48085 0.57663 0.0
O324 O 0.3634 0.48796 0.58723 0.0
O325 O 0.37475 0.50893 0.56872 0.0
O326 O 0.51089 0.51229 0.60038 0.0
O327 O 0.5851 0.48171 0.59314 0.0
C328 C 0.57579 0.4982 0.60252 0.0
C329 C 0.58826 0.4804 0.55333 0.0
O330 O 0.61973 0.44122 0.58043 0.0
O331 O 0.48644 0.45326 0.57516 0.0
O332 O 0.79919 0.49067 0.5692 0.0
O333 O 0.78909 0.46572 0.58633 0.0
O334 O 0.64977 0.46502 0.55581 0.0
O335 O 0.57961 0.49635 0.56298 0.0
O336 O 0.54119 0.53562 0.57552 0.0
O337 O 0.67508 0.52407 0.58085 0.0
C338 C 0.54213 0.43526 0.57794 0.0
C339 C 0.61833 0.54189 0.5781 0.0
Dy340 Dy 0.81505 0.74046 0.57855 0.0
C341 C 0.46338 0.76203 0.58311 0.0
C342 C 0.98208 0.73903 0.57682 0.0
Dy343 Dy 0.62573 0.75754 0.57698 0.0
O344 O 0.94047 0.74218 0.58792 0.0
O345 O 0.93227 0.73578 0.56665 0.0
O346 O 0.78827 0.72164 0.59861 0.0
O347 O 0.72076 0.75479 0.59247 0.0
C348 C 0.72743 0.73713 0.60134 0.0
C349 C 0.68905 0.7509 0.55192 0.0
O350 O 0.68391 0.79681 0.58028 0.0
O351 O 0.81978 0.78392 0.57679 0.0
O352 O 0.49963 0.77339 0.57295 0.0
O353 O 0.51669 0.74918 0.5903 0.0
O354 O 0.61409 0.75815 0.5541 0.0
O355 O 0.72366 0.74823 0.56326 0.0
O356 O 0.76043 0.70246 0.57247 0.0
O357 O 0.62495 0.71359 0.57775 0.0
C358 C 0.76321 0.80213 0.57875 0.0
C359 C 0.68248 0.69624 0.57454 0.0
Dy360 Dy 0.44772 0.74045 0.69893 0.0
C361 C 0.79852 0.75784 0.69536 0.0
C362 C 0.28108 0.73924 0.69971 0.0
Dy363 Dy 0.63626 0.75318 0.70118 0.0
O364 O 0.32861 0.72251 0.70579 0.0
O365 O 0.32454 0.75648 0.69332 0.0
O366 O 0.46927 0.72574 0.67757 0.0
O367 O 0.54356 0.75508 0.68544 0.0
C368 C 0.53362 0.74001 0.67554 0.0
C369 C 0.57434 0.74696 0.72629 0.0
O370 O 0.58148 0.79306 0.69835 0.0
O371 O 0.44934 0.78221 0.70513 0.0
O372 O 0.75247 0.77672 0.69982 0.0
O373 O 0.75537 0.73683 0.69372 0.0
O374 O 0.65025 0.75276 0.72391 0.0
O375 O 0.53726 0.74511 0.7151 0.0
O376 O 0.4952 0.70133 0.70435 0.0
O377 O 0.62875 0.70979 0.69752 0.0
C378 C 0.50579 0.79968 0.70196 0.0
C379 C 0.56965 0.69338 0.70111 0.0
Dy380 Dy 0.85518 0.49896 0.69974 0.0
C381 C 0.50573 0.48383 0.69981 0.0
C382 C 1.02141 0.50092 0.70207 0.0
Dy383 Dy 0.67213 0.48634 0.70198 0.0
O384 O 0.98168 0.4899 0.69223 0.0
O385 O 0.97027 0.51125 0.71065 0.0
O386 O 0.83835 0.51464 0.67856 0.0
O387 O 0.76125 0.48499 0.68583 0.0
C388 C 0.77294 0.50096 0.67632 0.0
C389 C 0.75159 0.48495 0.72572 0.0
O390 O 0.72144 0.44583 0.69896 0.0
O391 O 0.85484 0.45657 0.70471 0.0
O392 O 0.54554 0.49602 0.70925 0.0
O393 O 0.55686 0.47261 0.69155 0.0
O394 O 0.69013 0.46999 0.72271 0.0
O395 O 0.76427 0.50096 0.71615 0.0
O396 O 0.81072 0.53927 0.70293 0.0
O397 O 0.6752 0.52976 0.69775 0.0
C398 C 0.79788 0.4391 0.70191 0.0
C399 C 0.73507 0.5467 0.70015 0.0
Dy400 Dy 0.42122 0.49937 0.45036 0.0
C401 C 0.76866 0.47808 0.45036 0.0
C402 C 0.2532 0.50375 0.4488 0.0
Dy403 Dy 0.60089 0.48258 0.44845 0.0
O404 O 0.3008 0.51794 0.45633 0.0
O405 O 0.29786 0.48784 0.44167 0.0
O406 O 0.44111 0.51346 0.47164 0.0
O407 O 0.50965 0.48194 0.46458 0.0
C408 C 0.5005 0.49753 0.47433 0.0
C409 C 0.52256 0.48306 0.42456 0.0
O410 O 0.54421 0.44439 0.45481 0.0
O411 O 0.41275 0.45598 0.44835 0.0
O412 O 0.72153 0.46403 0.44268 0.0
O413 O 0.7236 0.49389 0.45748 0.0
O414 O 0.58375 0.46792 0.42734 0.0
O415 O 0.51201 0.4993 0.43404 0.0
O416 O 0.47578 0.53749 0.44407 0.0
O417 O 0.60826 0.52632 0.4502 0.0
C418 C 0.46701 0.43814 0.45203 0.0
C419 C 0.55253 0.54401 0.44685 0.0
Dy420 Dy 0.41155 0.22389 0.45756 0.0
C421 C 0.06421 0.24749 0.45655 0.0
C422 C 0.57993 0.21939 0.45619 0.0
Dy423 Dy 0.23241 0.24306 0.45497 0.0
O424 O 0.53244 0.20669 0.46445 0.0
O425 O 0.53487 0.23364 0.44823 0.0
O426 O 0.38627 0.20941 0.47851 0.0
O427 O 0.32249 0.24208 0.47143 0.0
C428 C 0.32885 0.22614 0.48115 0.0
C429 C 0.31749 0.24272 0.43183 0.0
O430 O 0.29054 0.28092 0.46101 0.0
O431 O 0.42354 0.2675 0.45626 0.0
O432 O 0.1112 0.25988 0.44808 0.0
O433 O 0.10971 0.23361 0.46463 0.0
O434 O 0.25601 0.25814 0.434 0.0
O435 O 0.32297 0.22593 0.44113 0.0
O436 O 0.35258 0.18626 0.45104 0.0
O437 O 0.22004 0.19961 0.45601 0.0
C438 C 0.3693 0.28607 0.45893 0.0
C439 C 0.27361 0.18113 0.45296 0.0
Dy440 Dy 0.36902 0.22496 0.3301 0.0
C441 C 0.72421 0.24338 0.33135 0.0
C442 C 0.20593 0.22049 0.3354 0.0
Dy443 Dy 0.55739 0.24208 0.33224 0.0
O444 O 0.25194 0.20158 0.33089 0.0
O445 O 0.24975 0.24121 0.33748 0.0
O446 O 0.36079 0.22402 0.30707 0.0
O447 O 0.4678 0.23449 0.31671 0.0
C448 C 0.43573 0.23166 0.30525 0.0
C449 C 0.47127 0.24286 0.35546 0.0
O450 O 0.50005 0.28018 0.32656 0.0
O451 O 0.36731 0.26842 0.33279 0.0
O452 O 0.67654 0.25955 0.32484 0.0
O453 O 0.68074 0.22696 0.33827 0.0
O454 O 0.53493 0.25741 0.35327 0.0
O455 O 0.46287 0.22692 0.34585 0.0
O456 O 0.43086 0.18672 0.33444 0.0
O457 O 0.5609 0.19947 0.32731 0.0
C458 C 0.42243 0.28609 0.32917 0.0
C459 C 0.50804 0.18128 0.33114 0.0
Dy460 Dy 0.40014 0.50022 0.32969 0.0
C461 C 0.0427 0.48389 0.32632 0.0
C462 C 0.56351 0.50133 0.33379 0.0
Dy463 Dy 0.20593 0.48524 0.33063 0.0
O464 O 0.51431 0.52042 0.33706 0.0
O465 O 0.52301 0.48202 0.32863 0.0
O466 O 0.40816 0.50414 0.30673 0.0
O467 O 0.30043 0.49357 0.31598 0.0
C468 C 0.33272 0.49742 0.30463 0.0
C469 C 0.27261 0.48906 0.35566 0.0
O470 O 0.26315 0.44615 0.32683 0.0
O471 O 0.3938 0.45754 0.33446 0.0
O472 O 0.09196 0.46454 0.32352 0.0
O473 O 0.08311 0.50357 0.33108 0.0
O474 O 0.19653 0.48301 0.35365 0.0
O475 O 0.30563 0.49181 0.3443 0.0
O476 O 0.34299 0.53893 0.33415 0.0
O477 O 0.21263 0.52809 0.32617 0.0
C478 C 0.33923 0.43997 0.33045 0.0
C479 C 0.26709 0.54536 0.33057 0.0
Dy480 Dy 0.4476 0.99048 0.08046 0.0
C481 C 0.79763 0.98153 0.08504 0.0
C482 C 0.28245 0.98413 0.07994 0.0
Dy483 Dy 0.63651 0.98123 0.07831 0.0
O484 O 0.31974 0.0056 0.07653 0.0
O485 O 0.33496 0.96656 0.08357 0.0
O486 O 0.46449 0.00378 0.10215 0.0
O487 O 0.54438 0.97631 0.09396 0.0
C488 C 0.53097 0.99051 0.1041 0.0
C489 C 0.57674 0.98841 0.05314 0.0
O490 O 0.58911 0.94019 0.08034 0.0
O491 O 0.45967 0.95026 0.07226 0.0
O492 O 0.76246 0.96356 0.07774 0.0
O493 O 0.74407 -0.0014 0.08905 0.0
O494 O 0.65312 0.9835 0.05568 0.0
O495 O 0.5377 0.98883 0.0642 0.0
O496 O 0.4853 0.03058 0.07481 0.0
O497 O 0.62064 0.02452 0.08137 0.0
C498 C 0.51571 0.93301 0.07588 0.0
C499 C 0.55861 0.03984 0.07781 0.0
Dy500 Dy 0.82986 0.23514 0.08086 0.0
C501 C 0.47751 0.25033 0.08405 0.0
C502 C 0.99561 0.23403 0.07951 0.0
Dy503 Dy 0.64046 0.24733 0.07876 0.0
O504 O 0.95307 0.25048 0.08662 0.0
O505 O 0.94761 0.21805 0.07303 0.0
O506 O 0.81266 0.21971 0.10217 0.0
O507 O 0.73268 0.24793 0.09457 0.0
C508 C 0.74515 0.23243 0.10422 0.0
C509 C 0.70333 0.24276 0.05368 0.0
O510 O 0.69283 0.28772 0.08112 0.0
O511 O 0.82681 0.27708 0.07516 0.0
O512 O 0.5263 0.27038 0.08363 0.0
O513 O 0.51816 0.229 0.08194 0.0
O514 O 0.62739 0.24862 0.05602 0.0
O515 O 0.73987 0.2405 0.06488 0.0
O516 O 0.78319 0.19624 0.07507 0.0
O517 O 0.6506 0.20399 0.08261 0.0
C518 C 0.76916 0.29443 0.07794 0.0
C519 C 0.7096 0.18792 0.07854 0.0
Dy520 Dy 0.46121 0.23738 0.20089 0.0
C521 C 0.81361 0.25702 0.20072 0.0
C522 C 0.29528 0.23487 0.20189 0.0
Dy523 Dy 0.64862 0.25454 0.20407 0.0
O524 O 0.33712 0.24871 0.19332 0.0
O525 O 0.34419 0.22188 0.20987 0.0
O526 O 0.4867 0.22057 0.18022 0.0
O527 O 0.55982 0.2509 0.18769 0.0
C528 C 0.5527 0.23422 0.17838 0.0
C529 C 0.57537 0.25066 0.22849 0.0
O530 O 0.59104 0.29413 0.20175 0.0
O531 O 0.45559 0.28043 0.20477 0.0
O532 O 0.77454 0.23953 0.20762 0.0
O533 O 0.76227 0.27377 0.19548 0.0
O534 O 0.65015 0.25869 0.22696 0.0
O535 O 0.54613 0.24644 0.21691 0.0
O536 O 0.51732 0.19962 0.20721 0.0
O537 O 0.64835 0.21124 0.20026 0.0
C538 C 0.51144 0.29904 0.2033 0.0
C539 C 0.5943 0.19356 0.20432 0.0
Dy540 Dy 0.80741 -0.00424 0.20163 0.0
C541 C 0.46058 0.9732 0.20359 0.0
C542 C 0.97569 -0.00016 0.20275 0.0
Dy543 Dy 0.62884 0.97745 0.20495 0.0
O544 O 0.92831 0.01188 0.1942 0.0
O545 O 0.93066 0.98642 0.21109 0.0
O546 O 0.77995 0.01097 0.18074 0.0
O547 O 0.71459 0.9787 0.18812 0.0
C548 C 0.71887 -0.00464 0.17874 0.0
C549 C 0.71372 0.979 0.22831 0.0
O550 O 0.68677 0.93922 0.19866 0.0
O551 O 0.82017 0.95247 0.20283 0.0
O552 O 0.50783 0.96078 0.21201 0.0
O553 O 0.50575 0.98712 0.19551 0.0
O554 O 0.65434 0.96291 0.22588 0.0
O555 O 0.72013 -0.00499 0.21859 0.0
O556 O 0.75313 0.03383 0.20808 0.0
O557 O 0.61872 0.02136 0.20395 0.0
C558 C 0.7661 0.93399 0.20021 0.0
C559 C 0.67456 0.03959 0.2064 0.0
Dy560 Dy 0.41371 0.00138 0.94871 0.0
C561 C 0.76982 0.98618 0.94925 0.0
C562 C 0.25187 0.00488 0.94227 0.0
Dy563 Dy 0.60301 0.98687 0.94754 0.0
O564 O 0.28775 0.01772 0.95196 0.0
O565 O 0.3052 0.99086 0.9357 0.0
O566 O 0.39886 0.00328 0.97145 0.0
O567 O 0.5114 -0.00569 0.96292 0.0
C568 C 0.47449 -0.00258 0.97405 0.0
C569 C 0.51582 0.98165 0.92466 0.0
O570 O 0.55446 0.94904 0.95482 0.0
O571 O 0.41876 0.95727 0.94865 0.0
O572 O 0.72822 0.98735 0.93805 0.0
O573 O 0.72022 0.98468 0.95955 0.0
O574 O 0.5751 0.96598 0.928 0.0
O575 O 0.50877 -0.00022 0.93324 0.0
O576 O 0.46697 0.04124 0.94511 0.0
O577 O 0.60421 0.03034 0.94871 0.0
C578 C 0.4784 0.94119 0.95259 0.0
C579 C 0.54532 0.0477 0.94666 0.0
Dy580 Dy 0.37272 0.73423 0.95343 0.0
C581 C 0.02367 0.74968 0.95322 0.0
C582 C 0.53904 0.73221 0.95061 0.0
Dy583 Dy 0.19027 0.74751 0.95106 0.0
O584 O 0.48686 0.72558 0.94127 0.0
O585 O 0.50027 0.73941 0.96146 0.0
O586 O 0.35351 0.71674 0.97384 0.0
O587 O 0.28006 0.74842 0.9677 0.0
C588 C 0.29259 0.73187 0.97706 0.0
C589 C 0.27591 0.75057 0.92795 0.0
O590 O 0.23363 0.78754 0.95527 0.0
O591 O 0.37037 0.77817 0.95092 0.0
O592 O 0.07471 0.75715 0.96256 0.0
O593 O 0.06372 0.74147 0.94268 0.0
O594 O 0.2123 0.76505 0.93036 0.0
O595 O 0.28462 0.73379 0.93716 0.0
O596 O 0.3236 0.69385 0.9499 0.0
O597 O 0.18901 0.70468 0.95494 0.0
C598 C 0.30999 0.79503 0.95323 0.0
C599 C 0.2464 0.6872 0.95232 0.0
Dy600 Dy 0.39785 0.73311 0.82987 0.0
C601 C 0.75275 0.74707 0.83218 0.0
C602 C 0.23523 0.72874 0.83533 0.0
Dy603 Dy 0.58635 0.74561 0.83271 0.0
O604 O 0.28176 0.70957 0.83137 0.0
O605 O 0.27799 0.74991 0.83664 0.0
O606 O 0.38609 0.73311 0.80715 0.0
O607 O 0.49859 0.74083 0.8162 0.0
C608 C 0.46224 0.73883 0.80494 0.0
C609 C 0.49704 0.74642 0.8558 0.0
O610 O 0.54057 0.78442 0.82668 0.0
O611 O 0.40639 0.77665 0.83335 0.0
O612 O 0.7053 0.76411 0.82634 0.0
O613 O 0.70936 0.72936 0.83823 0.0
O614 O 0.56267 0.76027 0.85412 0.0
O615 O 0.48849 0.73146 0.84584 0.0
O616 O 0.45278 0.69317 0.83297 0.0
O617 O 0.58486 0.70415 0.82629 0.0
C618 C 0.46644 0.79276 0.82978 0.0
C619 C 0.52886 0.68663 0.82952 0.0
Dy620 Dy 0.38205 0.00101 0.82782 0.0
C621 C 0.03372 0.98771 0.82787 0.0
C622 C 0.54832 0.00278 0.83087 0.0
Dy623 Dy 0.20045 0.98956 0.83 0.0
O624 O 0.50999 -0.0042 0.81995 0.0
O625 O 0.49572 0.00919 0.8402 0.0
O626 O 0.36781 0.01621 0.80683 0.0
O627 O 0.29088 0.98577 0.81355 0.0
C628 C 0.30643 0.00122 0.8038 0.0
C629 C 0.283 0.9901 0.8536 0.0
O630 O 0.24055 0.94886 0.82716 0.0
O631 O 0.37681 0.95751 0.83202 0.0
O632 O 0.07385 -0.00421 0.83841 0.0
O633 O 0.0847 0.98028 0.81851 0.0
O634 O 0.22302 0.97417 0.85118 0.0
O635 O 0.29214 0.00549 0.84377 0.0
O636 O 0.33574 0.04201 0.83018 0.0
O637 O 0.20145 0.03186 0.82475 0.0
C638 C 0.31558 0.94092 0.8299 0.0
C639 C 0.25961 0.0491 0.82724 0.0
H640 H 0.82658 0.41606 0.08012 0.0
H641 H 0.07882 0.39077 0.07929 0.0
H642 H 0.03402 0.34528 0.07813 0.0
H643 H 0.92409 0.31308 0.07751 0.0
H644 H 0.67181 0.33818 0.07891 0.0
H645 H 0.71646 0.38378 0.07965 0.0
C646 C 0.87213 0.40068 0.07963 0.0
C647 C 0.95623 0.40689 0.07974 0.0
C648 C 0.84597 0.37466 0.07906 0.0
C649 C 1.0139 0.38659 0.07924 0.0
C650 C 0.98828 0.36059 0.07855 0.0
C651 C 0.87845 0.32845 0.07788 0.0
C652 C 0.79443 0.32218 0.07806 0.0
C653 C 0.90454 0.35446 0.07846 0.0
C654 C 0.73667 0.34243 0.07874 0.0
C655 C 0.76223 0.36848 0.07916 0.0
H656 H 0.36109 0.91456 0.07446 0.0
H657 H 0.61225 0.88923 0.07812 0.0
H658 H 0.56639 0.84376 0.07956 0.0
H659 H 0.45514 0.81174 0.08023 0.0
H660 H 0.20399 0.83755 0.0776 0.0
H661 H 0.25025 0.8828 0.07542 0.0
C662 C 0.40627 0.89917 0.07545 0.0
C663 C 0.49031 0.9053 0.07607 0.0
C664 C 0.37939 0.87332 0.07657 0.0
C665 C 0.54742 0.88504 0.07757 0.0
C666 C 0.52115 0.85909 0.07842 0.0
C667 C 0.41027 0.82721 0.07912 0.0
C668 C 0.32602 0.82126 0.079 0.0
C669 C 0.43729 0.85308 0.07801 0.0
C670 C 0.26898 0.8416 0.07774 0.0
C671 C 0.29546 0.86743 0.07646 0.0
H672 H 0.92508 0.91958 0.19755 0.0
H673 H 0.68104 0.88766 0.19986 0.0
H674 H 0.73815 0.84339 0.19945 0.0
H675 H 0.85708 0.81418 0.19956 0.0
H676 H 0.10105 0.84617 0.19738 0.0
H677 H 0.04358 0.89035 0.19656 0.0
C678 C 0.88393 0.903 0.19794 0.0
C679 C 0.79855 0.907 0.19887 0.0
C680 C 0.91721 0.87774 0.19776 0.0
C681 C 0.7467 0.8852 0.19916 0.0
C682 C 0.77944 0.85991 0.19897 0.0
C683 C 0.89806 0.83076 0.19889 0.0
C684 C 0.98364 0.82683 0.19868 0.0
C685 C 0.86459 0.856 0.19846 0.0
C686 C 0.03525 0.84859 0.19759 0.0
C687 C 1.00233 0.87384 0.19716 0.0
H688 H 0.43219 0.41983 0.20217 0.0
H689 H 0.1848 0.39023 0.20175 0.0
H690 H 0.23745 0.34554 0.20241 0.0
H691 H 0.35285 0.31514 0.20305 0.0
H692 H 0.60038 0.34461 0.20319 0.0
H693 H 0.5478 0.38936 0.20272 0.0
C694 C 0.38937 0.40369 0.20225 0.0
C695 C 0.30427 0.40852 0.20194 0.0
C696 C 0.42005 0.37807 0.20259 0.0
C697 C 0.25035 0.3872 0.20196 0.0
C698 C 0.28048 0.36162 0.20236 0.0
C699 C 0.39576 0.33126 0.20304 0.0
C700 C 0.48084 0.32639 0.20321 0.0
C701 C 0.36514 0.35687 0.20268 0.0
C702 C 0.53484 0.34769 0.20308 0.0
C703 C 0.50474 0.37329 0.20281 0.0
H704 H 0.18579 0.56566 0.95359 0.0
H705 H 0.93506 0.59134 0.94983 0.0
H706 H 0.98095 0.63685 0.94942 0.0
H707 H 0.09159 0.66893 0.95035 0.0
H708 H 0.34257 0.64323 0.95355 0.0
H709 H 0.29676 0.5977 0.95388 0.0
C710 C 0.14083 0.58117 0.95275 0.0
C711 C 0.05679 0.57511 0.95189 0.0
C712 C 0.16772 0.60713 0.95237 0.0
C713 C 0.99987 0.59546 0.95055 0.0
C714 C 0.02614 0.62145 0.95032 0.0
C715 C 0.13658 0.65343 0.95116 0.0
C716 C 0.22058 0.6595 0.95205 0.0
C717 C 0.10983 0.62745 0.95127 0.0
C718 C 0.27775 0.63911 0.95287 0.0
C719 C 0.25151 0.61311 0.95309 0.0
H720 H 0.60132 0.16932 0.94901 0.0
H721 H 0.85364 0.14482 0.94609 0.0
H722 H 0.80959 0.09921 0.94463 0.0
H723 H 0.70005 0.06662 0.94481 0.0
H724 H 0.44779 0.09132 0.94761 0.0
H725 H 0.49181 0.13693 0.94839 0.0
C726 C 0.64707 0.15406 0.94811 0.0
C727 C 0.73097 0.16049 0.94783 0.0
C728 C 0.62131 0.12804 0.94722 0.0
C729 C 0.78888 0.14043 0.94639 0.0
C730 C 0.76367 0.11438 0.94557 0.0
C731 C 0.65435 0.08191 0.94559 0.0
C732 C 0.57049 0.07548 0.94626 0.0
C733 C 0.6801 0.108 0.94607 0.0
C734 C 0.51253 0.09566 0.94707 0.0
C735 C 0.53773 0.12172 0.94757 0.0
H736 H 0.2089 0.1709 0.82856 0.0
H737 H 0.95617 0.14734 0.83207 0.0
H738 H 0.99787 0.10143 0.83076 0.0
H739 H 0.10583 0.06845 0.82888 0.0
H740 H 0.35881 0.09218 0.82628 0.0
H741 H 0.31671 0.13805 0.82697 0.0
C742 C 0.16252 0.15581 0.82896 0.0
C743 C 0.07924 0.16256 0.83032 0.0
C744 C 0.18701 0.12964 0.82839 0.0
C745 C 1.02049 0.14267 0.83102 0.0
C746 C 0.04435 0.11647 0.83026 0.0
C747 C 0.15199 0.08361 0.82836 0.0
C748 C 0.23551 0.07691 0.82742 0.0
C749 C 0.12742 0.10979 0.82896 0.0
C750 C 0.2943 0.09682 0.82699 0.0
C751 C 0.27021 0.123 0.82738 0.0
H752 H 0.68504 0.66925 0.83009 0.0
H753 H 0.43477 0.64229 0.83065 0.0
H754 H 0.48301 0.59704 0.83187 0.0
H755 H 0.59572 0.5656 0.8325 0.0
H756 H 0.84585 0.59273 0.83229 0.0
H757 H 0.7975 0.63794 0.83133 0.0
C758 C 0.64067 0.65353 0.83038 0.0
C759 C 0.55618 0.65913 0.83012 0.0
C760 C 0.66878 0.62777 0.83123 0.0
C761 C 0.49995 0.6385 0.83078 0.0
C762 C 0.52756 0.61268 0.83148 0.0
C763 C 0.63999 0.58135 0.83225 0.0
C764 C 0.72452 0.57578 0.83238 0.0
C765 C 0.61178 0.60715 0.83168 0.0
C766 C 0.78064 0.59647 0.83221 0.0
C767 C 0.75299 0.62228 0.83161 0.0
H768 H 0.83702 0.92298 0.57903 0.0
H769 H 0.0854 0.89465 0.58194 0.0
H770 H 0.03487 0.84961 0.5819 0.0
H771 H 0.92074 0.81867 0.58075 0.0
H772 H 0.67245 0.84728 0.57816 0.0
H773 H 0.72309 0.8922 0.57842 0.0
C774 C 0.88059 0.90703 0.57959 0.0
C775 C 0.96528 0.91224 0.58034 0.0
C776 C 0.8511 0.88134 0.57965 0.0
C777 C 1.02015 0.89123 0.5813 0.0
C778 C 0.99121 0.8655 0.58127 0.0
C779 C 0.87732 0.83466 0.58021 0.0
C780 C 0.79259 0.82952 0.57934 0.0
C781 C 0.90686 0.86038 0.5804 0.0
C782 C 0.73773 0.8506 0.57883 0.0
C783 C 0.76673 0.87628 0.57894 0.0
H784 H 0.47561 0.31421 0.5817 0.0
H785 H 0.22527 0.34128 0.58206 0.0
H786 H 0.27295 0.38644 0.58021 0.0
H787 H 0.38532 0.41793 0.57865 0.0
H788 H 0.63561 0.39078 0.57888 0.0
H789 H 0.58775 0.34563 0.58032 0.0
C790 C 0.4311 0.32991 0.58132 0.0
C791 C 0.34671 0.3243 0.58196 0.0
C792 C 0.45894 0.35573 0.58037 0.0
C793 C 0.2904 0.34501 0.5816 0.0
C794 C 0.31768 0.37081 0.58052 0.0
C795 C 0.4297 0.40218 0.57893 0.0
C796 C 0.51418 0.40778 0.57858 0.0
C797 C 0.40177 0.37636 0.5799 0.0
C798 C 0.57042 0.38707 0.57913 0.0
C799 C 0.54305 0.36126 0.57995 0.0
H800 H 0.85695 0.31742 0.70328 0.0
H801 H 0.10855 0.34292 0.70166 0.0
H802 H 0.06309 0.38843 0.70109 0.0
H803 H 0.95275 0.4206 0.70129 0.0
H804 H 0.7009 0.39533 0.70242 0.0
H805 H 0.74613 0.34971 0.70291 0.0
C806 C 0.90211 0.3329 0.70286 0.0
C807 C 0.98626 0.32678 0.70263 0.0
C808 C 0.87553 0.35891 0.70244 0.0
C809 C 0.04359 0.34709 0.70186 0.0
C810 C 1.0176 0.37308 0.70156 0.0
C811 C 0.90741 0.40518 0.7017 0.0
C812 C 0.82337 0.41138 0.70194 0.0
C813 C 0.93382 0.37917 0.70189 0.0
C814 C 0.76581 0.39109 0.70225 0.0
C815 C 0.79169 0.36504 0.70255 0.0
H816 H 0.35066 0.8185 0.70159 0.0
H817 H 0.60342 0.84301 0.70143 0.0
H818 H 0.55995 0.88867 0.7005 0.0
H819 H 0.45119 0.92119 0.69969 0.0
H820 H 0.19813 0.89708 0.69927 0.0
H821 H 0.24122 0.85126 0.70037 0.0
C822 C 0.39645 0.8338 0.70145 0.0
C823 C 0.48037 0.82737 0.7017 0.0
C824 C 0.37102 0.85991 0.70075 0.0
C825 C 0.53862 0.84744 0.70128 0.0
C826 C 0.51377 0.87351 0.70075 0.0
C827 C 0.40506 0.906 0.6999 0.0
C828 C 0.32133 0.91257 0.69952 0.0
C829 C 0.43024 0.87991 0.70047 0.0
C830 C 0.26282 0.89255 0.69956 0.0
C831 C 0.28749 0.8664 0.70023 0.0
H832 H 0.18948 0.0613 0.45065 0.0
H833 H 0.94289 0.09161 0.4505 0.0
H834 H 0.99706 0.1363 0.45048 0.0
H835 H 0.1143 0.16627 0.45138 0.0
H836 H 0.36042 0.1354 0.45137 0.0
H837 H 0.30587 0.09099 0.45053 0.0
C838 C 0.14712 0.07762 0.45067 0.0
C839 C 0.06197 0.07311 0.4508 0.0
C840 C 0.17865 0.10301 0.45062 0.0
C841 C 1.00848 0.09453 0.45048 0.0
C842 C 0.03953 0.12004 0.45049 0.0
C843 C 0.15631 0.14987 0.45117 0.0
C844 C 0.24164 0.15419 0.45156 0.0
C845 C 0.12449 0.12445 0.4507 0.0
C846 C 0.29476 0.13268 0.4511 0.0
C847 C 0.26354 0.10729 0.45066 0.0
H848 H 0.60051 0.66594 0.44641 0.0
H849 H 0.85458 0.64342 0.44893 0.0
H850 H 0.81488 0.59727 0.44838 0.0
H851 H 0.70743 0.56359 0.44769 0.0
H852 H 0.45397 0.58687 0.44469 0.0
H853 H 0.49447 0.63269 0.44489 0.0
C854 C 0.64749 0.651 0.44691 0.0
C855 C 0.73046 0.65812 0.44788 0.0
C856 C 0.6243 0.6247 0.44647 0.0
C857 C 0.79034 0.63846 0.44822 0.0
C858 C 0.76761 0.6121 0.44792 0.0
C859 C 0.66095 0.57866 0.44705 0.0
C860 C 0.5776 0.57175 0.44624 0.0
C861 C 0.68469 0.60502 0.44712 0.0
C862 C 0.51843 0.59158 0.4453 0.0
C863 C 0.54152 0.6178 0.44546 0.0
H864 H 0.11111 0.56376 0.33004 0.0
H865 H 0.36241 0.58886 0.33356 0.0
H866 H 0.31726 0.63424 0.33511 0.0
H867 H 0.20764 0.66657 0.33493 0.0
H868 H 0.95594 0.64196 0.33155 0.0
H869 H 1.00042 0.59627 0.33066 0.0
C870 C 0.15622 0.57913 0.33109 0.0
C871 C 0.24028 0.57291 0.33154 0.0
C872 C 0.12979 0.60515 0.33208 0.0
C873 C 0.29753 0.59308 0.33314 0.0
C874 C 0.27173 0.61902 0.33403 0.0
C875 C 0.16215 0.65127 0.33402 0.0
C876 C 0.07845 0.6577 0.3332 0.0
C877 C 0.18815 0.62524 0.33344 0.0
C878 C 1.02062 0.63756 0.33222 0.0
C879 C 0.04611 0.61147 0.33164 0.0
H880 H 0.58426 0.06136 0.33705 0.0
H881 H 0.83265 0.08902 0.33329 0.0
H882 H 0.78211 0.1341 0.33192 0.0
H883 H 0.66681 0.16507 0.33079 0.0
H884 H 0.41911 0.13655 0.33447 0.0
H885 H 0.4706 0.09199 0.33668 0.0
C886 C 0.62785 0.07716 0.33593 0.0
C887 C 0.71234 0.07175 0.33512 0.0
C888 C 0.59838 0.10276 0.33499 0.0
C889 C 0.76748 0.09261 0.33394 0.0
C890 C 0.73849 0.11834 0.33307 0.0
C891 C 0.62385 0.14913 0.33201 0.0
C892 C 0.53889 0.15416 0.33231 0.0
C893 C 0.65395 0.12356 0.33338 0.0
C894 C 0.48454 0.13327 0.33413 0.0
C895 C 0.51398 0.10779 0.33542 0.0
H896 H 0.03122 0.53173 0.125 0.0
H897 H 0.08311 0.45094 0.1162 0.0
H898 H 0.15129 0.44612 0.13817 0.0
H899 H 0.19717 0.46505 0.15988 0.0
H900 H 0.15969 0.54697 0.16753 0.0
H901 H 0.08403 0.55129 0.14614 0.0
C902 C 0.05751 0.51311 0.12794 0.0
C903 C 0.05174 0.49166 0.11912 0.0
C904 C 0.09864 0.5107 0.14041 0.0
C905 C 0.08692 0.46771 0.12288 0.0
C906 C 0.12561 0.46492 0.13544 0.0
C907 C 0.1717 0.48373 0.15686 0.0
C908 C 0.18255 0.50561 0.16522 0.0
C909 C 0.1317 0.48626 0.1443 0.0
C910 C 0.15132 0.52991 0.16118 0.0
C911 C 0.10836 0.53236 0.14898 0.0
H912 H 0.24223 0.6985 0.12625 0.0
H913 H 0.20928 0.78027 0.11744 0.0
H914 H 0.14512 0.78691 0.13961 0.0
H915 H 0.09652 0.7693 0.16148 0.0
H916 H 0.11471 0.68671 0.1692 0.0
H917 H 0.18688 0.68045 0.14763 0.0
C918 C 0.22105 0.71773 0.12925 0.0
C919 C 0.23096 0.73891 0.12033 0.0
C920 C 0.18179 0.72123 0.14183 0.0
C921 C 0.20225 0.76369 0.12417 0.0
C922 C 0.16578 0.76751 0.13685 0.0
C923 C 0.11687 0.75 0.15843 0.0
C924 C 0.10131 0.7285 0.16688 0.0
C925 C 0.15514 0.74643 0.14577 0.0
C926 C 0.12634 0.7035 0.16279 0.0
C927 C 0.16748 0.69993 0.15048 0.0
H928 H 0.82538 0.45152 0.87397 0.0
H929 H 0.85419 0.53383 0.86622 0.0
H930 H 0.91944 0.53955 0.88839 0.0
H931 H 0.96936 0.52092 0.90998 0.0
H932 H 0.95499 0.4379 0.91652 0.0
H933 H 0.88226 0.43253 0.89493 0.0
C934 C 0.84603 0.47067 0.87718 0.0
C935 C 0.83466 0.49226 0.8686 0.0
C936 C 0.88558 0.47363 0.88974 0.0
C937 C 0.86251 0.51694 0.87271 0.0
C938 C 0.89949 0.52023 0.88538 0.0
C939 C 0.94964 0.50174 0.90665 0.0
C940 C 0.96624 0.47983 0.91475 0.0
C941 C 0.91126 0.49872 0.89399 0.0
C942 C 0.94231 0.45496 0.91035 0.0
C943 C 0.90096 0.45191 0.89805 0.0
H944 H 0.89538 0.23251 0.86481 0.0
H945 H 0.10895 0.2675 0.88281 0.0
H946 H 0.04224 0.26763 0.90503 0.0
H947 H 0.92079 0.25923 0.91923 0.0
H948 H 0.70108 0.2299 0.90054 0.0
H949 H 0.7715 0.22644 0.87867 0.0
C950 C 0.92679 0.24039 0.87357 0.0
C951 C 1.00651 0.25014 0.87218 0.0
C952 C 0.88674 0.24146 0.88618 0.0
C953 C 0.04721 0.26002 0.88364 0.0
C954 C 1.00918 0.26008 0.89634 0.0
C955 C 0.8888 0.25197 0.91035 0.0
C956 C 0.80641 0.24463 0.91141 0.0
C957 C 0.92868 0.25105 0.89772 0.0
C958 C 0.76473 0.23562 0.89988 0.0
C959 C 0.80491 0.23362 0.8874 0.0
H960 H 0.16843 -0.00468 0.61179 0.0
H961 H 0.93443 -0.00262 0.63194 0.0
H962 H 1.0019 -0.00261 0.65408 0.0
H963 H 0.12799 -0.00227 0.66781 0.0
H964 H 0.36208 -0.00229 0.64769 0.0
H965 H 0.29465 -0.00397 0.62555 0.0
C966 C 0.13247 -0.00435 0.62105 0.0
C967 C 0.04671 -0.00374 0.62026 0.0
C968 C 0.1718 -0.00388 0.63377 0.0
C969 C 1.00064 -0.00307 0.6323 0.0
C970 C 0.03914 -0.00307 0.64497 0.0
C971 C 0.16399 -0.00276 0.65857 0.0
C972 C 0.24973 -0.00225 0.65936 0.0
C973 C 0.12472 -0.00334 0.64585 0.0
C974 C 0.29587 -0.00264 0.64732 0.0
C975 C 0.25739 -0.00362 0.63465 0.0
H976 H 0.24708 0.20111 0.62805 0.0
H977 H 0.22838 0.28382 0.6206 0.0
H978 H 0.15523 0.28973 0.64205 0.0
H979 H 0.09482 0.27123 0.66283 0.0
H980 H 0.09808 0.18798 0.66896 0.0
H981 H 0.17938 0.18224 0.64824 0.0
C982 C 0.22709 0.22038 0.6312 0.0
C983 C 0.24357 0.24205 0.62292 0.0
C984 C 0.18247 0.22347 0.6433 0.0
C985 C 0.21631 0.2669 0.62689 0.0
C986 C 0.17469 0.27029 0.63914 0.0
C987 C 0.11383 0.2519 0.6596 0.0
C988 C 0.09152 0.23005 0.66734 0.0
C989 C 0.15732 0.24872 0.64742 0.0
C990 C 0.11486 0.20501 0.66306 0.0
C991 C 0.16125 0.20176 0.65125 0.0
H992 H 0.85989 0.98847 0.41939 0.0
H993 H 0.09578 -0.00397 0.40024 0.0
H994 H 0.03093 -0.00164 0.37791 0.0
H995 H 0.90684 -0.00276 0.36374 0.0
H996 H 0.67218 0.98581 0.3826 0.0
H997 H 0.73585 0.98656 0.40506 0.0
C998 C 0.89678 0.99078 0.41031 0.0
C999 C 0.98235 -0.00785 0.41143 0.0
C1000 C 0.85914 0.99144 0.39744 0.0
C1001 C 0.02972 -0.00511 0.39961 0.0
C1002 C 0.99272 -0.00375 0.38684 0.0
C1003 C 0.87005 -0.00533 0.37274 0.0
C1004 C 0.78532 0.99114 0.37148 0.0
C1005 C 0.90751 -0.00568 0.38561 0.0
C1006 C 0.73779 0.9884 0.38329 0.0
C1007 C 0.77414 0.98879 0.39615 0.0
H1008 H 0.87643 0.72847 0.36201 0.0
H1009 H 0.08212 0.77127 0.37781 0.0
H1010 H 1.02193 0.77055 0.40052 0.0
H1011 H 0.90775 0.75911 0.41583 0.0
H1012 H 0.69433 0.72148 0.39931 0.0
H1013 H 0.75978 0.71878 0.37701 0.0
C1014 C 0.9077 0.73769 0.37042 0.0
C1015 C 0.98332 0.74992 0.36824 0.0
C1016 C 0.87121 0.73809 0.38335 0.0
C1017 C 0.0235 0.76183 0.37923 0.0
C1018 C 0.98924 0.76138 0.39223 0.0
C1019 C 0.87623 0.75014 0.40734 0.0
C1020 C 0.79696 0.74027 0.40915 0.0
C1021 C 0.91281 0.74973 0.39441 0.0
C1022 C 0.75566 0.72912 0.39809 0.0
C1023 C 0.79296 0.7276 0.38535 0.0
H1024 H 0.51949 0.50332 0.62814 0.0
H1025 H 0.74071 0.49554 0.60483 0.0
H1026 H 0.82256 0.49645 0.62563 0.0
H1027 H 0.83048 0.49914 0.65063 0.0
H1028 H 0.60866 0.50499 0.67396 0.0
H1029 H 0.52718 0.50522 0.65312 0.0
C1030 C 0.58563 0.50183 0.62768 0.0
C1031 C 0.62446 0.49894 0.61506 0.0
C1032 C 0.63179 0.50201 0.6397 0.0
C1033 C 0.70989 0.497 0.61449 0.0
C1034 C 0.75655 0.49781 0.62636 0.0
C1035 C 0.7643 0.50051 0.65107 0.0
C1036 C 0.72501 0.50169 0.66372 0.0
C1037 C 0.71812 0.50018 0.63904 0.0
C1038 C 0.63952 0.50338 0.6643 0.0
C1039 C 0.59318 0.50374 0.65239 0.0
H1040 H 0.75369 0.76428 0.62432 0.0
H1041 H 0.59734 0.70606 0.60651 0.0
H1042 H 0.52277 0.70157 0.62801 0.0
H1043 H 0.50417 0.71378 0.65205 0.0
H1044 H 0.66394 0.77113 0.67001 0.0
H1045 H 0.73589 0.77621 0.64842 0.0
C1046 C 0.70273 0.75083 0.6252 0.0
C1047 C 0.6797 0.73579 0.61394 0.0
C1048 C 0.66158 0.74802 0.63764 0.0
C1049 C 0.61494 0.71803 0.61509 0.0
C1050 C 0.57277 0.71539 0.62737 0.0
C1051 C 0.55485 0.72733 0.65122 0.0
C1052 C 0.57865 0.7421 0.66257 0.0
C1053 C 0.5959 0.73016 0.63875 0.0
C1054 C 0.64443 0.75958 0.66139 0.0
C1055 C 0.68549 0.76253 0.64904 0.0
H1056 H 0.43147 0.48136 0.36244 0.0
H1057 H 0.19717 0.50372 0.37879 0.0
H1058 H 0.25565 0.50651 0.40159 0.0
H1059 H 0.37186 0.49984 0.41713 0.0
H1060 H 0.60151 0.47231 0.40107 0.0
H1061 H 0.54733 0.47442 0.37799 0.0
C1062 C 0.39381 0.4871 0.37101 0.0
C1063 C 0.31059 0.49241 0.36905 0.0
C1064 C 0.42703 0.48759 0.38416 0.0
C1065 C 0.2616 0.4995 0.38016 0.0
C1066 C 0.2949 0.50109 0.39318 0.0
C1067 C 0.40986 0.49452 0.40854 0.0
C1068 C 0.49017 0.48595 0.41072 0.0
C1069 C 0.37725 0.49476 0.39534 0.0
C1070 C 0.53911 0.47885 0.39958 0.0
C1071 C 0.50829 0.48007 0.38639 0.0
H1072 H 0.25964 0.22414 0.40816 0.0
H1073 H 0.46968 0.26025 0.42661 0.0
H1074 H 0.53598 0.26393 0.40437 0.0
H1075 H 0.53102 0.25853 0.37963 0.0
H1076 H 0.32425 0.22042 0.36112 0.0
H1077 H 0.25881 0.216 0.3834 0.0
C1078 C 0.32048 0.23239 0.40724 0.0
C1079 C 0.36079 0.2416 0.41886 0.0
C1080 C 0.35781 0.23441 0.39445 0.0
C1081 C 0.43884 0.25259 0.41773 0.0
C1082 C 0.47617 0.25492 0.40504 0.0
C1083 C 0.47154 0.24931 0.38049 0.0
C1084 C 0.43166 0.24015 0.3688 0.0
C1085 C 0.43572 0.24621 0.39332 0.0
C1086 C 0.35545 0.22782 0.37002 0.0
C1087 C 0.3183 0.22522 0.38273 0.0
H1088 H 0.76189 0.97327 0.15488 0.0
H1089 H 0.57073 0.01723 0.17444 0.0
H1090 H 0.49522 0.01993 0.15297 0.0
H1091 H 0.48593 0.01079 0.12845 0.0
H1092 H 0.67534 0.96567 0.10898 0.0
H1093 H 0.74976 0.96256 0.13047 0.0
C1094 C 0.70321 0.98315 0.15439 0.0
C1095 C 0.6709 -0.00524 0.16613 0.0
C1096 C 0.66055 0.98465 0.14201 0.0
C1097 C 0.59562 0.00781 0.1655 0.0
C1098 C 0.55292 0.00951 0.15323 0.0
C1099 C 0.54352 0.00031 0.12893 0.0
C1100 C 0.57558 0.9887 0.11713 0.0
C1101 C 0.58512 -0.00181 0.14139 0.0
C1102 C 0.64981 0.97494 0.11791 0.0
C1103 C 0.69224 0.97309 0.13021 0.0
H1104 H 0.80466 0.23161 0.12986 0.0
H1105 H 0.58075 0.23351 0.10689 0.0
H1106 H 0.50073 0.233 0.12789 0.0
H1107 H 0.49495 0.23222 0.15285 0.0
H1108 H 0.7182 0.23592 0.17595 0.0
H1109 H 0.79872 0.23417 0.15494 0.0
C1110 C 0.73834 0.23182 0.12953 0.0
C1111 C 0.69809 0.23225 0.11693 0.0
C1112 C 0.69309 0.23263 0.14166 0.0
C1113 C 0.61247 0.23309 0.11651 0.0
C1114 C 0.56692 0.23278 0.1285 0.0
C1115 C 0.56126 0.23263 0.15322 0.0
C1116 C 0.60109 0.23399 0.16581 0.0
C1117 C 0.60659 0.23257 0.14113 0.0
C1118 C 0.68673 0.23495 0.1663 0.0
C1119 C 0.73255 0.23386 0.15431 0.0
H1120 H 0.31438 0.95206 0.87212 0.0
H1121 H 0.34807 0.03416 0.86436 0.0
H1122 H 0.41725 0.03928 0.88622 0.0
H1123 H 0.47078 0.02022 0.90744 0.0
H1124 H 0.45277 0.93728 0.91394 0.0
H1125 H 0.37446 0.93255 0.89284 0.0
C1126 C 0.33673 0.97104 0.87529 0.0
C1127 C 0.32562 -0.00725 0.86675 0.0
C1128 C 0.37909 0.97364 0.88767 0.0
C1129 C 0.35594 0.01718 0.8708 0.0
C1130 C 0.39532 0.02013 0.8833 0.0
C1131 C 0.44908 0.00119 0.90423 0.0
C1132 C 0.4665 0.97914 0.9122 0.0
C1133 C 0.40744 -0.0015 0.89181 0.0
C1134 C 0.43974 0.95448 0.9079 0.0
C1135 C 0.39509 0.95179 0.89586 0.0
H1136 H 0.53201 0.7664 0.88072 0.0
H1137 H 0.34732 0.7243 0.85852 0.0
H1138 H 0.26051 0.72288 0.8787 0.0
H1139 H 0.23794 0.73297 0.90293 0.0
H1140 H 0.4274 0.77153 0.92567 0.0
H1141 H 0.51199 0.77478 0.9052 0.0
C1142 C 0.4726 0.75703 0.88033 0.0
C1143 C 0.44537 0.74585 0.86811 0.0
C1144 C 0.42424 0.7555 0.89213 0.0
C1145 C 0.36896 0.73337 0.86776 0.0
C1146 C 0.31949 0.73244 0.87932 0.0
C1147 C 0.29777 0.74208 0.90332 0.0
C1148 C 0.32665 0.75214 0.91566 0.0
C1149 C 0.34654 0.74336 0.89157 0.0
C1150 C 0.40425 0.76371 0.91621 0.0
C1151 C 0.45246 0.76559 0.90452 0.0
H1152 H 0.08004 0.66449 0.08158 0.0
H1153 H 0.33625 0.64504 0.08502 0.0
H1154 H 0.30296 0.59864 0.08469 0.0
H1155 H 0.20169 0.56362 0.08319 0.0
H1156 H 0.94559 0.58291 0.07914 0.0
H1157 H 0.97856 0.62933 0.07989 0.0
C1158 C 0.12858 0.65011 0.08234 0.0
C1159 C 0.21047 0.65825 0.08336 0.0
C1160 C 0.10916 0.62342 0.08196 0.0
C1161 C 0.27268 0.63934 0.08419 0.0
C1162 C 0.25374 0.61277 0.084 0.0
C1163 C 0.15292 0.57793 0.08247 0.0
C1164 C 0.07126 0.56971 0.08112 0.0
C1165 C 0.17226 0.6046 0.08284 0.0
C1166 C 1.00906 0.58862 0.08014 0.0
C1167 C 0.02779 0.6152 0.0806 0.0
H1168 H 1.01289 0.65074 0.20724 0.0
H1169 H 0.26368 0.6769 0.20816 0.0
H1170 H 0.3112 0.63174 0.20833 0.0
H1171 H 0.28195 0.58471 0.20726 0.0
H1172 H 0.0311 0.55873 0.20542 0.0
H1173 H 0.9836 0.60378 0.2066 0.0
C1174 C 0.0779 0.64657 0.20761 0.0
C1175 C 0.13449 0.66719 0.20768 0.0
C1176 C 0.10502 0.62052 0.20747 0.0
C1177 C 0.21863 0.66141 0.20803 0.0
C1178 C 0.24599 0.63557 0.20813 0.0
C1179 C 0.21691 0.5889 0.20723 0.0
C1180 C 0.16034 0.56834 0.20622 0.0
C1181 C 0.18979 0.61495 0.20771 0.0
C1182 C 0.07619 0.57416 0.20609 0.0
C1183 C 0.0488 0.59994 0.20679 0.0
H1184 H 0.96051 0.31798 0.95461 0.0
H1185 H 0.70223 0.33483 0.95166 0.0
H1186 H 0.73052 0.38149 0.95308 0.0
H1187 H 0.82818 0.41744 0.95452 0.0
H1188 H 0.0865 0.40098 0.95787 0.0
H1189 H 0.05828 0.35415 0.95709 0.0
C1190 C 0.9104 0.33186 0.95425 0.0
C1191 C 0.82941 0.32291 0.95292 0.0
C1192 C 0.92699 0.35869 0.95521 0.0
C1193 C 0.76513 0.34115 0.95268 0.0
C1194 C 0.78122 0.36786 0.95348 0.0
C1195 C 0.87848 0.40365 0.95514 0.0
C1196 C 0.95942 0.41275 0.95617 0.0
C1197 C 0.86188 0.37683 0.95467 0.0
C1198 C 0.0236 0.39455 0.9571 0.0
C1199 C 1.00755 0.36775 0.95659 0.0
H1200 H 0.98267 0.4197 0.828 0.0
H1201 H 0.72554 0.40031 0.82759 0.0
H1202 H 0.759 0.35402 0.82815 0.0
H1203 H 0.86 0.31919 0.82953 0.0
H1204 H 0.11751 0.33759 0.82953 0.0
H1205 H 0.08499 0.38426 0.82826 0.0
C1206 C 0.93397 0.40535 0.82799 0.0
C1207 C 0.85169 0.4135 0.82783 0.0
C1208 C 0.9536 0.37864 0.82826 0.0
C1209 C 0.78937 0.39463 0.8277 0.0
C1210 C 0.80838 0.36812 0.82805 0.0
C1211 C 0.90922 0.33337 0.82926 0.0
C1212 C 0.99104 0.32499 0.82978 0.0
C1213 C 0.89013 0.35995 0.82847 0.0
C1214 C 0.05399 0.34359 0.82917 0.0
C1215 C 0.03541 0.37024 0.82848 0.0
H1216 H 0.21098 0.06701 0.58562 0.0
H1217 H 0.95622 0.08775 0.58122 0.0
H1218 H 0.99149 0.13398 0.58263 0.0
H1219 H 0.09484 0.16854 0.58473 0.0
H1220 H 0.34977 0.14758 0.58844 0.0
H1221 H 0.31389 0.10139 0.58775 0.0
C1222 C 0.16294 0.08158 0.58502 0.0
C1223 C 0.08101 0.07383 0.58333 0.0
C1224 C 0.18364 0.10813 0.58572 0.0
C1225 C 1.01984 0.0931 0.58248 0.0
C1226 C 0.03991 0.11957 0.58331 0.0
C1227 C 0.14255 0.15388 0.58548 0.0
C1228 C 0.22489 0.16155 0.58665 0.0
C1229 C 0.12164 0.12731 0.58489 0.0
C1230 C 0.28593 0.14226 0.58749 0.0
C1231 C 0.26549 0.11582 0.5871 0.0
H1232 H 0.22863 0.16982 0.70313 0.0
H1233 H 0.973 0.15325 0.71002 0.0
H1234 H 1.00038 0.10654 0.70828 0.0
H1235 H 0.09627 0.07043 0.70427 0.0
H1236 H 0.35231 0.08704 0.69803 0.0
H1237 H 0.32511 0.13376 0.69997 0.0
C1238 C 0.17886 0.15602 0.70431 0.0
C1239 C 0.09887 0.16506 0.70665 0.0
C1240 C 0.19495 0.1292 0.70332 0.0
C1241 C 0.03526 0.14686 0.70825 0.0
C1242 C 0.05074 0.12013 0.70719 0.0
C1243 C 0.14602 0.08429 0.70327 0.0
C1244 C 0.22602 0.07532 0.70091 0.0
C1245 C 0.1302 0.1111 0.7046 0.0
C1246 C 0.29013 0.09346 0.69985 0.0
C1247 C 0.27467 0.12018 0.70096 0.0
H1248 H 0.9505 0.81694 0.44788 0.0
H1249 H 0.69158 0.83364 0.44736 0.0
H1250 H 0.72036 0.88043 0.44774 0.0
H1251 H 0.81913 0.91659 0.44851 0.0
H1252 H 0.07778 0.89942 0.44972 0.0
H1253 H 0.04868 0.85282 0.44877 0.0
C1254 C 0.9002 0.83076 0.44777 0.0
C1255 C 0.81899 0.82173 0.44755 0.0
C1256 C 0.91709 0.85759 0.44815 0.0
C1257 C 0.75471 0.84 0.44756 0.0
C1258 C 0.77109 0.86679 0.44776 0.0
C1259 C 0.86919 0.90267 0.44851 0.0
C1260 C 0.95053 0.91156 0.44917 0.0
C1261 C 0.85207 0.8758 0.4481 0.0
C1262 C 1.01455 0.8932 0.44928 0.0
C1263 C 0.99804 0.8665 0.44871 0.0
H1264 H 0.84101 0.81546 0.32643 0.0
H1265 H 0.09822 0.83452 0.32673 0.0
H1266 H 0.06487 0.88101 0.32713 0.0
H1267 H 0.96283 0.91612 0.32819 0.0
H1268 H 0.70565 0.89686 0.32768 0.0
H1269 H 0.73924 0.85053 0.32653 0.0
C1270 C 0.88993 0.82975 0.32655 0.0
C1271 C 0.97202 0.82147 0.32664 0.0
C1272 C 0.87039 0.85642 0.32678 0.0
C1273 C 0.03449 0.84031 0.32666 0.0
C1274 C 1.01549 0.86691 0.32692 0.0
C1275 C 0.914 0.90183 0.32782 0.0
C1276 C 0.83179 0.91004 0.32812 0.0
C1277 C 0.93365 0.87517 0.32712 0.0
C1278 C 0.76947 0.89118 0.32747 0.0
C1279 C 0.78857 0.86464 0.32684 0.0
H1280 H 0.52081 0.58453 0.5745 0.0
H1281 H 0.77261 0.56171 0.58059 0.0
H1282 H 0.815 0.60721 0.57934 0.0
H1283 H 0.78087 0.65361 0.57682 0.0
H1284 H 0.52883 0.67656 0.57139 0.0
H1285 H 0.48668 0.63091 0.57198 0.0
C1286 C 0.58497 0.58947 0.57556 0.0
C1287 C 0.64323 0.56966 0.57765 0.0
C1288 C 0.60913 0.61574 0.57489 0.0
C1289 C 0.72616 0.5765 0.57902 0.0
C1290 C 0.75067 0.60256 0.57827 0.0
C1291 C 0.71683 0.64862 0.57563 0.0
C1292 C 0.65822 0.66847 0.57402 0.0
C1293 C 0.69272 0.62234 0.57621 0.0
C1294 C 0.5753 0.66166 0.57267 0.0
C1295 C 0.55104 0.63555 0.57302 0.0
H1296 H 0.58598 0.57021 0.70147 0.0
H1297 H 0.84407 0.58671 0.69802 0.0
H1298 H 0.81553 0.63344 0.69786 0.0
H1299 H 0.71786 0.66963 0.69898 0.0
H1300 H 0.45995 0.65331 0.7031 0.0
H1301 H 0.48811 0.60654 0.70276 0.0
C1302 C 0.63594 0.58402 0.70061 0.0
C1303 C 0.71696 0.57496 0.69974 0.0
C1304 C 0.61927 0.61092 0.70071 0.0
C1305 C 0.78109 0.59314 0.69876 0.0
C1306 C 0.76489 0.61989 0.69866 0.0
C1307 C 0.6677 0.65588 0.69978 0.0
C1308 C 0.58696 0.66502 0.70105 0.0
C1309 C 0.68427 0.629 0.69968 0.0
C1310 C 0.52281 0.64686 0.70216 0.0
C1311 C 0.53877 0.62007 0.70193 0.0
H1312 H 0.55608 0.39383 0.457 0.0
H1313 H 0.30893 0.42166 0.45123 0.0
H1314 H 0.25662 0.37762 0.4538 0.0
H1315 H 0.28025 0.33077 0.45679 0.0
H1316 H 0.527 0.30235 0.46182 0.0
H1317 H 0.57946 0.34681 0.46056 0.0
C1318 C 0.49084 0.39026 0.45635 0.0
C1319 C 0.43696 0.41109 0.45385 0.0
C1320 C 0.46062 0.36468 0.45772 0.0
C1321 C 0.35236 0.40605 0.45304 0.0
C1322 C 0.322 0.38081 0.45455 0.0
C1323 C 0.34536 0.33434 0.45778 0.0
C1324 C 0.39938 0.31327 0.45939 0.0
C1325 C 0.3755 0.35993 0.45679 0.0
C1326 C 0.48383 0.31822 0.46051 0.0
C1327 C 0.51409 0.34366 0.45978 0.0
H1328 H 0.51568 0.33014 0.33013 0.0
H1329 H 0.26596 0.30375 0.32668 0.0
H1330 H 0.21776 0.34879 0.32649 0.0
H1331 H 0.24588 0.3959 0.32784 0.0
H1332 H 0.49573 0.42199 0.33204 0.0
H1333 H 0.54377 0.37711 0.33142 0.0
C1334 C 0.45081 0.33426 0.32924 0.0
C1335 C 0.39473 0.31359 0.32843 0.0
C1336 C 0.42313 0.36025 0.32935 0.0
C1337 C 0.31067 0.31928 0.3274 0.0
C1338 C 0.28286 0.34506 0.32728 0.0
C1339 C 0.31078 0.39177 0.32859 0.0
C1340 C 0.36672 0.41238 0.33004 0.0
C1341 C 0.33845 0.36574 0.32835 0.0
C1342 C 0.45081 0.40659 0.33103 0.0
C1343 C 0.47868 0.38086 0.33063 0.0
H1344 H 0.70411 0.06502 0.07777 0.0
H1345 H 0.44357 0.07877 0.07729 0.0
H1346 H 0.46712 0.1259 0.07765 0.0
H1347 H 0.56212 0.1632 0.07834 0.0
H1348 H 0.82247 0.14883 0.07812 0.0
H1349 H 0.79832 0.10192 0.07784 0.0
C1350 C 0.65233 0.07828 0.07776 0.0
C1351 C 0.57222 0.06837 0.07757 0.0
C1352 C 0.66626 0.10527 0.07787 0.0
C1353 C 0.50592 0.08588 0.0774 0.0
C1354 C 0.51931 0.11283 0.07765 0.0
C1355 C 0.61351 0.14979 0.07827 0.0
C1356 C 0.69393 0.15952 0.0783 0.0
C1357 C 0.59927 0.12275 0.07794 0.0
C1358 C 0.75991 0.1419 0.07805 0.0
C1359 C 0.74623 0.11504 0.07792 0.0
H1360 H 0.50052 0.1498 0.20742 0.0
H1361 H 0.75087 0.17535 0.20316 0.0
H1362 H 0.79794 0.13029 0.20407 0.0
H1363 H 0.76849 0.08342 0.20543 0.0
H1364 H 0.51813 0.05763 0.20896 0.0
H1365 H 0.47116 0.10283 0.20905 0.0
C1366 C 0.56538 0.14553 0.20675 0.0
C1367 C 0.62181 0.16601 0.20518 0.0
C1368 C 0.59233 0.11945 0.20714 0.0
C1369 C 0.70573 0.16004 0.20428 0.0
C1370 C 0.73295 0.13423 0.20483 0.0
C1371 C 0.70372 0.08768 0.20634 0.0
C1372 C 0.64711 0.06712 0.2072 0.0
C1373 C 0.67682 0.11375 0.20618 0.0
C1374 C 0.56324 0.07304 0.20824 0.0
C1375 C 0.53617 0.09892 0.20829 0.0
H1376 H 0.45906 0.81824 0.95527 0.0
H1377 H 0.20137 0.83533 0.95148 0.0
H1378 H 0.23063 0.88197 0.95127 0.0
H1379 H 0.32915 0.91789 0.95173 0.0
H1380 H 0.58679 0.90098 0.95596 0.0
H1381 H 0.55744 0.85433 0.95653 0.0
C1382 C 0.4093 0.83216 0.95439 0.0
C1383 C 0.32824 0.82328 0.95334 0.0
C1384 C 0.42641 0.85901 0.95439 0.0
C1385 C 0.26439 0.8416 0.95233 0.0
C1386 C 0.28101 0.86831 0.95219 0.0
C1387 C 0.37897 0.90404 0.95282 0.0
C1388 C 0.46004 0.91299 0.95375 0.0
C1389 C 0.36178 0.87723 0.95317 0.0
C1390 C 0.5237 0.89471 0.95525 0.0
C1391 C 0.50707 0.86798 0.95553 0.0
H1392 H 0.32037 0.81793 0.83201 0.0
H1393 H 0.57957 0.83165 0.8275 0.0
H1394 H 0.55617 0.87861 0.8276 0.0
H1395 H 0.4622 0.91592 0.8287 0.0
H1396 H 0.20276 0.90216 0.83255 0.0
H1397 H 0.22644 0.85519 0.83303 0.0
C1398 C 0.37177 0.83117 0.83107 0.0
C1399 C 0.45148 0.82122 0.82974 0.0
C1400 C 0.35798 0.85821 0.83103 0.0
C1401 C 0.51738 0.83871 0.82848 0.0
C1402 C 0.50419 0.86562 0.82856 0.0
C1403 C 0.41092 0.90265 0.82971 0.0
C1404 C 0.33096 0.91254 0.83058 0.0
C1405 C 0.42476 0.8756 0.82981 0.0
C1406 C 0.26503 0.89507 0.83179 0.0
C1407 C 0.27843 0.86818 0.83208 0.0
H1408 H 0.64775 0.4963 0.1015 0.0
H1409 H 0.66777 0.48824 0.05805 0.0
H1410 H 0.5212 0.47908 0.05652 0.0
H1411 H 0.38751 0.47329 0.06753 0.0
H1412 H 0.36442 0.48492 0.11069 0.0
H1413 H 0.51229 0.49241 0.11244 0.0
C1414 C 0.61977 0.49269 0.0917 0.0
C1415 C 0.66829 0.49293 0.07989 0.0
C1416 C 0.53528 0.48777 0.09089 0.0
C1417 C 0.63148 0.48832 0.06725 0.0
C1418 C 0.54784 0.48292 0.06639 0.0
C1419 C 0.41514 0.47715 0.07734 0.0
C1420 C 0.36577 0.47811 0.08902 0.0
C1421 C 0.49928 0.48245 0.07814 0.0
C1422 C 0.40164 0.48381 0.10161 0.0
C1423 C 0.48595 0.48822 0.10258 0.0
H1424 H 0.62989 0.74977 0.09972 0.0
H1425 H 0.61225 0.71506 0.05994 0.0
H1426 H 0.76063 0.71836 0.05718 0.0
H1427 H 0.89528 0.73134 0.06601 0.0
H1428 H 0.91388 0.76568 0.10585 0.0
H1429 H 0.76523 0.7625 0.10864 0.0
C1430 C 0.65866 0.74283 0.09048 0.0
C1431 C 0.61024 0.7321 0.08005 0.0
C1432 C 0.74405 0.74489 0.08895 0.0
C1433 C 0.64822 0.7233 0.06812 0.0
C1434 C 0.73303 0.72525 0.06653 0.0
C1435 C 0.86673 0.73823 0.07529 0.0
C1436 C 0.91538 0.74884 0.0857 0.0
C1437 C 0.78149 0.7361 0.07685 0.0
C1438 C 0.87767 0.75751 0.09769 0.0
C1439 C 0.79274 0.75564 0.09929 0.0
H1440 H 0.6978 0.75164 0.18572 0.0
H1441 H 0.71233 0.72535 0.22724 0.0
H1442 H 0.56421 0.73079 0.22971 0.0
H1443 H 0.43026 0.74328 0.22011 0.0
H1444 H 0.41525 0.76934 0.17856 0.0
H1445 H 0.56352 0.76398 0.17608 0.0
C1446 C 0.66846 0.74696 0.19529 0.0
C1447 C 0.71619 0.73797 0.20627 0.0
C1448 C 0.58312 0.75031 0.19665 0.0
C1449 C 0.67717 0.73217 0.21862 0.0
C1450 C 0.59241 0.73537 0.22004 0.0
C1451 C 0.4595 0.74792 0.21053 0.0
C1452 C 0.41164 0.75685 0.19954 0.0
C1453 C 0.54476 0.74453 0.20915 0.0
C1454 C 0.45053 0.76256 0.18718 0.0
C1455 C 0.53536 0.75941 0.18575 0.0
H1456 H 0.86517 0.50732 0.21301 0.0
H1457 H 0.8744 0.44993 0.18102 0.0
H1458 H 0.72498 0.45248 0.1786 0.0
H1459 H 0.59208 0.47117 0.18576 0.0
H1460 H 0.58534 0.52782 0.21815 0.0
H1461 H 0.7342 0.52557 0.22021 0.0
C1462 C 0.83459 0.49531 0.2055 0.0
C1463 C 0.88052 0.47843 0.19719 0.0
C1464 C 0.74941 0.49688 0.20423 0.0
C1465 C 0.84014 0.46301 0.18753 0.0
C1466 C 0.75491 0.46453 0.18614 0.0
C1467 C 0.62341 0.48311 0.19321 0.0
C1468 C 0.57809 0.49977 0.20176 0.0
C1469 C 0.70896 0.48144 0.19444 0.0
C1470 C 0.61905 0.51494 0.21145 0.0
C1471 C 0.70403 0.51362 0.21264 0.0
H1472 H 0.62295 0.53463 0.94881 0.0
H1473 H 0.66687 0.45387 0.93881 0.0
H1474 H 0.52097 0.44445 0.94088 0.0
H1475 H 0.38033 0.45901 0.94613 0.0
H1476 H 0.33508 0.54049 0.95398 0.0
H1477 H 0.48152 0.54982 0.95236 0.0
C1478 C 0.60024 0.51508 0.94692 0.0
C1479 C 0.65533 0.495 0.94368 0.0
C1480 C 0.5161 0.50986 0.94797 0.0
C1481 C 0.6254 0.46972 0.94123 0.0
C1482 C 0.54207 0.46425 0.94252 0.0
C1483 C 0.40308 0.47869 0.94761 0.0
C1484 C 0.34802 0.49897 0.95043 0.0
C1485 C 0.48692 0.48409 0.94606 0.0
C1486 C 0.37712 0.52457 0.95195 0.0
C1487 C 0.46059 0.52993 0.95096 0.0
H1488 H 0.42316 0.21401 0.94127 0.0
H1489 H 0.42914 0.28587 0.96413 0.0
H1490 H 0.2796 0.28839 0.96325 0.0
H1491 H 0.14906 0.27004 0.95603 0.0
H1492 H 0.14252 0.19805 0.93329 0.0
H1493 H 0.29232 0.19587 0.93381 0.0
C1494 C 0.39165 0.23017 0.94611 0.0
C1495 C 0.43628 0.24972 0.9528 0.0
C1496 C 0.30653 0.23155 0.94543 0.0
C1497 C 0.3954 0.2706 0.95899 0.0
C1498 C 0.31031 0.27208 0.95843 0.0
C1499 C 0.18045 0.25394 0.95111 0.0
C1500 C 0.13562 0.23418 0.94463 0.0
C1501 C 0.26557 0.25269 0.95164 0.0
C1502 C 0.17643 0.21345 0.93829 0.0
C1503 C 0.26165 0.21216 0.93866 0.0
H1504 H 0.65549 0.20385 0.83447 0.0
H1505 H 0.69223 0.28239 0.84897 0.0
H1506 H 0.54577 0.2912 0.84702 0.0
H1507 H 0.40717 0.27691 0.84045 0.0
H1508 H 0.3697 0.19747 0.82747 0.0
H1509 H 0.51631 0.18872 0.82933 0.0
C1510 C 0.63111 0.22275 0.83737 0.0
C1511 C 0.68426 0.24244 0.84183 0.0
C1512 C 0.5469 0.22765 0.83625 0.0
C1513 C 0.65222 0.26687 0.84557 0.0
C1514 C 0.56862 0.272 0.84435 0.0
C1515 C 0.43161 0.25782 0.83791 0.0
C1516 C 0.37865 0.23798 0.8336 0.0
C1517 C 0.51552 0.25267 0.8395 0.0
C1518 C 0.41001 0.21308 0.83067 0.0
C1519 C 0.49359 0.20804 0.8318 0.0
H1520 H 0.15804 0.47937 0.84609 0.0
H1521 H 0.14804 0.53234 0.8121 0.0
H1522 H 0.29627 0.52924 0.80936 0.0
H1523 H 0.42965 0.51116 0.81645 0.0
H1524 H 0.44023 0.45826 0.85045 0.0
H1525 H 0.29187 0.46143 0.85327 0.0
C1526 C 0.18849 0.49038 0.83816 0.0
C1527 C 0.14191 0.50618 0.82936 0.0
C1528 C 0.27413 0.48831 0.83655 0.0
C1529 C 0.18231 0.52014 0.81906 0.0
C1530 C 0.2672 0.51829 0.81744 0.0
C1531 C 0.39934 0.50019 0.82441 0.0
C1532 C 0.44601 0.48436 0.83317 0.0
C1533 C 0.31381 0.50232 0.82607 0.0
C1534 C 0.40581 0.47048 0.84352 0.0
C1535 C 0.32088 0.47236 0.84517 0.0
H1536 H 0.39122 0.02056 0.57544 0.0
H1537 H 0.38725 0.94657 0.59641 0.0
H1538 H 0.53722 0.94511 0.59593 0.0
H1539 H 0.66775 0.96469 0.58919 0.0
H1540 H 0.67101 0.03844 0.56798 0.0
H1541 H 0.52128 0.04007 0.56871 0.0
C1542 C 0.42317 0.00416 0.57998 0.0
C1543 C 0.37889 0.98368 0.58598 0.0
C1544 C 0.50846 0.00335 0.57947 0.0
C1545 C 0.42057 0.96253 0.59178 0.0
C1546 C 0.50595 0.96168 0.59145 0.0
C1547 C 0.63563 0.98109 0.58468 0.0
C1548 C 0.67969 0.00144 0.57852 0.0
C1549 C 0.55026 0.98191 0.58523 0.0
C1550 C 0.63787 0.02257 0.57273 0.0
C1551 C 0.55261 0.02353 0.5732 0.0
H1552 H 0.64914 0.25092 0.60321 0.0
H1553 H 0.63039 0.2192 0.56278 0.0
H1554 H 0.77846 0.2233 0.55985 0.0
H1555 H 0.91316 0.2362 0.56872 0.0
H1556 H 0.93278 0.26751 0.60921 0.0
H1557 H 0.78447 0.26351 0.61217 0.0
C1558 C 0.67761 0.24478 0.59379 0.0
C1559 C 0.62896 0.23468 0.58323 0.0
C1560 C 0.7628 0.24733 0.59216 0.0
C1561 C 0.66655 0.22693 0.57106 0.0
C1562 C 0.75117 0.22936 0.56937 0.0
C1563 C 0.88489 0.24226 0.57817 0.0
C1564 C 0.93373 0.25228 0.58871 0.0
C1565 C 0.79984 0.23963 0.57982 0.0
C1566 C 0.8964 0.25986 0.60093 0.0
C1567 C 0.81167 0.2575 0.60263 0.0
H1568 H 0.68839 0.27608 0.69471 0.0
H1569 H 0.69087 0.19862 0.71185 0.0
H1570 H 0.54131 0.19691 0.71063 0.0
H1571 H 0.41014 0.2176 0.70483 0.0
H1572 H 0.4062 0.29663 0.68981 0.0
H1573 H 0.55631 0.29764 0.68993 0.0
C1574 C 0.65597 0.25886 0.69818 0.0
C1575 C 0.70019 0.23742 0.70329 0.0
C1576 C 0.57005 0.25831 0.69774 0.0
C1577 C 0.65786 0.21534 0.70791 0.0
C1578 C 0.57252 0.21433 0.70716 0.0
C1579 C 0.4423 0.23495 0.70146 0.0
C1580 C 0.39767 0.2569 0.69712 0.0
C1581 C 0.52806 0.23568 0.70207 0.0
C1582 C 0.43962 0.27948 0.69309 0.0
C1583 C 0.52524 0.28005 0.69319 0.0
H1584 H 0.90436 0.02238 0.70422 0.0
H1585 H 0.91234 0.95008 0.68176 0.0
H1586 H 0.76251 0.94784 0.6822 0.0
H1587 H 0.631 0.96604 0.68954 0.0
H1588 H 0.62402 0.03816 0.71217 0.0
H1589 H 0.77347 0.04075 0.71131 0.0
C1590 C 0.87329 0.00619 0.69934 0.0
C1591 C 0.91859 0.98638 0.69297 0.0
C1592 C 0.78814 0.00492 0.69983 0.0
C1593 C 0.87813 0.96553 0.68669 0.0
C1594 C 0.79286 0.96422 0.68701 0.0
C1595 C 0.6623 0.98227 0.69433 0.0
C1596 C 0.61733 0.00187 0.70096 0.0
C1597 C 0.74752 0.98368 0.69368 0.0
C1598 C 0.65796 0.02285 0.70707 0.0
C1599 C 0.74303 0.02437 0.70653 0.0
H1600 H 0.63514 0.96396 0.45482 0.0
H1601 H 0.63959 0.04044 0.43644 0.0
H1602 H 0.48978 0.04232 0.43739 0.0
H1603 H 0.35921 0.02242 0.44386 0.0
H1604 H 0.35551 0.94617 0.46252 0.0
H1605 H 0.50504 0.94411 0.46128 0.0
C1606 C 0.6033 0.98099 0.45093 0.0
C1607 C 0.6477 0.00204 0.44553 0.0
C1608 C 0.51809 0.98204 0.45174 0.0
C1609 C 0.60618 0.02401 0.44058 0.0
C1610 C 0.52088 0.02512 0.44119 0.0
C1611 C 0.39122 0.00539 0.44771 0.0
C1612 C 0.34706 0.98446 0.45331 0.0
C1613 C 0.47649 0.00432 0.44685 0.0
C1614 C 0.38873 0.96251 0.45824 0.0
C1615 C 0.47387 0.9613 0.45747 0.0
H1616 H 0.41486 0.71181 0.43981 0.0
H1617 H 0.42322 0.78402 0.46235 0.0
H1618 H 0.27361 0.78664 0.46181 0.0
H1619 H 0.14234 0.76835 0.45486 0.0
H1620 H 0.13378 0.69607 0.43239 0.0
H1621 H 0.28349 0.69366 0.43273 0.0
C1622 C 0.38386 0.72807 0.44466 0.0
C1623 C 0.42912 0.7477 0.45115 0.0
C1624 C 0.29875 0.7295 0.44417 0.0
C1625 C 0.38893 0.7687 0.45735 0.0
C1626 C 0.30382 0.77023 0.45699 0.0
C1627 C 0.1733 0.75213 0.44997 0.0
C1628 C 0.12795 0.73239 0.4436 0.0
C1629 C 0.25841 0.75078 0.45038 0.0
C1630 C 0.16813 0.71147 0.43731 0.0
C1631 C 0.25329 0.71006 0.43756 0.0
H1632 H 0.38902 0.7419 0.31223 0.0
H1633 H 0.36897 0.74801 0.35576 0.0
H1634 H 0.5168 0.74281 0.35806 0.0
H1635 H 0.65288 0.73641 0.34771 0.0
H1636 H 0.67305 0.73046 0.30418 0.0
H1637 H 0.52514 0.73553 0.30188 0.0
C1638 C 0.41721 0.74223 0.3222 0.0
C1639 C 0.36809 0.74544 0.33379 0.0
C1640 C 0.50257 0.73908 0.32346 0.0
C1641 C 0.40541 0.74567 0.34665 0.0
C1642 C 0.49003 0.74262 0.34799 0.0
C1643 C 0.6247 0.73608 0.33775 0.0
C1644 C 0.67385 0.73295 0.32615 0.0
C1645 C 0.53934 0.73922 0.33648 0.0
C1646 C 0.63656 0.73274 0.31328 0.0
C1647 C 0.5519 0.73572 0.31195 0.0
H1648 H 0.15185 0.02023 0.32136 0.0
H1649 H 0.12345 0.96994 0.35617 0.0
H1650 H 0.26866 0.9585 0.35519 0.0
H1651 H 0.40302 0.96218 0.34415 0.0
H1652 H 0.43141 0.01229 0.30928 0.0
H1653 H 0.2864 0.02396 0.31034 0.0
C1654 C 0.17786 0.00708 0.32885 0.0
C1655 C 0.12751 -0.0039 0.3389 0.0
C1656 C 0.26084 0.00013 0.32801 0.0
C1657 C 0.1614 0.97876 0.3484 0.0
C1658 C 0.24417 0.97206 0.34778 0.0
C1659 C 0.37712 0.97537 0.33668 0.0
C1660 C 0.42742 0.98618 0.32657 0.0
C1661 C 0.2942 0.98237 0.33752 0.0
C1662 C 0.39354 0.00354 0.31707 0.0
C1663 C 0.31087 0.01038 0.31774 0.0
H1664 H 0.21521 0.47279 0.59313 0.0
H1665 H 0.23068 0.52274 0.55797 0.0
H1666 H 0.08219 0.52012 0.555 0.0
H1667 H 0.9481 0.50354 0.56241 0.0
H1668 H 0.93281 0.45327 0.59744 0.0
H1669 H 0.08128 0.45589 0.60042 0.0
C1670 C 0.18596 0.48319 0.58486 0.0
C1671 C 0.23361 0.49806 0.57582 0.0
C1672 C 0.10079 0.48137 0.58315 0.0
C1673 C 0.19515 0.51126 0.56508 0.0
C1674 C 0.11035 0.50971 0.56337 0.0
C1675 C 0.97739 0.49307 0.57065 0.0
C1676 C 0.92976 0.47816 0.57968 0.0
C1677 C 0.06261 0.49477 0.57232 0.0
C1678 C 0.96831 0.46477 0.59034 0.0
C1679 C 0.0531 0.46634 0.59207 0.0
H1680 H 0.35122 0.76361 0.56301 0.0
H1681 H 0.37613 0.75265 0.60619 0.0
H1682 H 0.22876 0.74445 0.60811 0.0
H1683 H 0.09307 0.73971 0.59734 0.0
H1684 H 0.07129 0.74699 0.55387 0.0
H1685 H 0.21727 0.75691 0.55215 0.0
C1686 C 0.32405 0.75976 0.57285 0.0
C1687 C 0.37385 0.75921 0.58449 0.0
C1688 C 0.24014 0.75401 0.57377 0.0
C1689 C 0.33858 0.75347 0.59713 0.0
C1690 C 0.25454 0.74865 0.59821 0.0
C1691 C 0.12055 0.7433 0.58749 0.0
C1692 C 0.07161 0.74262 0.57574 0.0
C1693 C 0.2048 0.74867 0.58657 0.0
C1694 C 0.10784 0.74724 0.56305 0.0
C1695 C 0.19118 0.75308 0.56207 0.0
H1696 H 0.90167 0.7176 0.69939 0.0
H1697 H 0.89586 0.79995 0.69043 0.0
H1698 H 0.04588 0.80132 0.69066 0.0
H1699 H 0.17829 0.77906 0.69389 0.0
H1700 H 0.18282 0.69766 0.70505 0.0
H1701 H 0.03336 0.69587 0.70363 0.0
C1702 C 0.93346 0.73577 0.69735 0.0
C1703 C 0.88842 0.75859 0.69469 0.0
C1704 C 1.01914 0.73656 0.69805 0.0
C1705 C 0.92973 0.78215 0.69239 0.0
C1706 C 1.01526 0.78292 0.69256 0.0
C1707 C 0.14634 0.76096 0.69602 0.0
C1708 C 0.19103 0.73847 0.6995 0.0
C1709 C 0.06053 0.76027 0.69547 0.0
C1710 C 0.14936 0.7152 0.70239 0.0
C1711 C 0.0641 0.71416 0.70152 0.0
H1712 H 0.13017 0.47657 0.6857 0.0
H1713 H 0.11334 0.5242 0.72169 0.0
H1714 H 0.26224 0.52281 0.72424 0.0
H1715 H 0.39687 0.50799 0.71621 0.0
H1716 H 0.41383 0.46025 0.68026 0.0
H1717 H 0.26488 0.46158 0.67772 0.0
C1718 C 0.15922 0.48669 0.69408 0.0
C1719 C 0.11118 0.50054 0.70348 0.0
C1720 C 0.24461 0.48567 0.6955 0.0
C1721 C 0.14928 0.51347 0.71432 0.0
C1722 C 0.23427 0.51265 0.71578 0.0
C1723 C 0.36785 0.49782 0.70784 0.0
C1724 C 0.41594 0.48399 0.69844 0.0
C1725 C 0.28247 0.49878 0.70644 0.0
C1726 C 0.37786 0.47096 0.68763 0.0
C1727 C 0.29283 0.47177 0.68617 0.0
H1728 H 0.87413 0.51321 0.46175 0.0
H1729 H 0.86711 0.44456 0.43647 0.0
H1730 H 1.01526 0.44688 0.43327 0.0
H1731 H 0.14766 0.46865 0.43748 0.0
H1732 H 0.15491 0.53727 0.46277 0.0
H1733 H 1.0067 0.53497 0.46599 0.0
C1734 C 0.90522 0.49863 0.45565 0.0
C1735 C 0.85952 0.47862 0.44944 0.0
C1736 C 0.99068 0.50028 0.45371 0.0
C1737 C 0.90072 0.46007 0.44143 0.0
C1738 C 0.98553 0.46146 0.43954 0.0
C1739 C 0.11663 0.48321 0.4436 0.0
C1740 C 0.16237 0.50322 0.4498 0.0
C1741 C 0.03121 0.48157 0.44555 0.0
C1742 C 0.12125 0.52177 0.45782 0.0
C1743 C 0.03641 0.52038 0.45972 0.0
H1744 H 0.95945 0.21456 0.46988 0.0
H1745 H 0.96456 0.27718 0.44065 0.0
H1746 H 0.81664 0.27348 0.4375 0.0
H1747 H 0.68482 0.25223 0.44291 0.0
H1748 H 0.67944 0.18961 0.47214 0.0
H1749 H 0.82745 0.19327 0.47529 0.0
C1750 C 0.92801 0.22755 0.46292 0.0
C1751 C 0.97322 0.24629 0.45559 0.0
C1752 C 0.8426 0.22509 0.46103 0.0
C1753 C 0.93145 0.26272 0.44649 0.0
C1754 C 0.84672 0.26053 0.44463 0.0
C1755 C 0.71619 0.23924 0.44988 0.0
C1756 C 0.67091 0.22053 0.45721 0.0
C1757 C 0.80157 0.24169 0.45178 0.0
C1758 C 0.71262 0.20406 0.46631 0.0
C1759 C 0.79739 0.20624 0.46817 0.0
H1760 H 0.10593 0.26143 0.33104 0.0
H1761 H 0.10459 0.17904 0.33994 0.0
H1762 H 0.95442 0.17905 0.33969 0.0
H1763 H 0.82391 0.20264 0.33677 0.0
H1764 H 0.82615 0.28404 0.32563 0.0
H1765 H 0.97598 0.28436 0.32678 0.0
C1766 C 0.07258 0.24353 0.33303 0.0
C1767 C 0.11574 0.22032 0.33573 0.0
C1768 C 0.98677 0.24355 0.33235 0.0
C1769 C 0.07231 0.19713 0.33796 0.0
C1770 C 0.98667 0.19715 0.33778 0.0
C1771 C 0.8574 0.22042 0.33458 0.0
C1772 C 0.81446 0.24337 0.33122 0.0
C1773 C 0.94332 0.22024 0.33495 0.0
C1774 C 0.85816 0.26618 0.32821 0.0
C1775 C 0.94364 0.26637 0.32893 0.0
H1776 H 0.94177 0.52181 0.3348 0.0
H1777 H 0.94374 0.44432 0.3176 0.0
H1778 H 0.79405 0.44279 0.31896 0.0
H1779 H 0.66441 0.46338 0.32529 0.0
H1780 H 0.66254 0.5408 0.34258 0.0
H1781 H 0.8122 0.54235 0.3412 0.0
C1782 C 0.9094 0.50463 0.33127 0.0
C1783 C 0.95309 0.4832 0.32606 0.0
C1784 C 0.82421 0.50381 0.33228 0.0
C1785 C 0.91089 0.46103 0.32158 0.0
C1786 C 0.82568 0.46014 0.32243 0.0
C1787 C 0.6968 0.48056 0.32884 0.0
C1788 C 0.65313 0.50197 0.33407 0.0
C1789 C 0.782 0.48135 0.32785 0.0
C1790 C 0.69536 0.5241 0.33859 0.0
C1791 C 0.78056 0.52501 0.33772 0.0
H1792 H 0.9166 0.94615 0.07966 0.0
H1793 H 0.87723 0.02572 0.09241 0.0
H1794 H 0.02404 0.03423 0.09119 0.0
H1795 H 0.16384 0.01933 0.0858 0.0
H1796 H 0.20411 0.93884 0.07492 0.0
H1797 H 0.05703 0.93039 0.07593 0.0
C1798 C 0.94049 0.96523 0.08232 0.0
C1799 C 0.88659 0.98528 0.08608 0.0
C1800 C 0.02498 0.9699 0.08173 0.0
C1801 C 0.91788 0.00992 0.08956 0.0
C1802 C 1.00169 0.01487 0.08876 0.0
C1803 C 0.13994 5e-05 0.08357 0.0
C1804 C 0.19376 0.97983 0.08008 0.0
C1805 C 0.05573 -0.00489 0.08469 0.0
C1806 C 0.1631 0.95472 0.07752 0.0
C1807 C 0.07925 0.94986 0.07814 0.0
H1808 H 0.09877 0.27159 0.08819 0.0
H1809 H 0.0926 0.19457 0.07052 0.0
H1810 H 0.24205 0.19244 0.07116 0.0
H1811 H 0.37354 0.21254 0.07663 0.0
H1812 H 0.38158 0.29069 0.09283 0.0
H1813 H 0.23154 0.29238 0.09302 0.0
C1814 C 0.13038 0.25438 0.08448 0.0
C1815 C 0.08536 0.2332 0.07936 0.0
C1816 C 0.21608 0.2535 0.08469 0.0
C1817 C 0.12641 0.21108 0.07446 0.0
C1818 C 0.21162 0.20984 0.07487 0.0
C1819 C 0.34237 0.22987 0.0803 0.0
C1820 C 0.38789 0.25139 0.08484 0.0
C1821 C 0.2569 0.23091 0.07999 0.0
C1822 C 0.34728 0.27389 0.08936 0.0
C1823 C 0.2618 0.27485 0.08943 0.0
H1824 H 0.91825 0.2244 0.21305 0.0
H1825 H 0.90945 0.28916 0.18509 0.0
H1826 H 0.05895 0.28753 0.18274 0.0
H1827 H 0.19154 0.26752 0.1888 0.0
H1828 H 0.1984 0.20351 0.21726 0.0
H1829 H 0.04933 0.20489 0.21925 0.0
C1830 C 0.94898 0.2382 0.20644 0.0
C1831 C 0.90326 0.25689 0.19924 0.0
C1832 C 0.0342 0.23716 0.20523 0.0
C1833 C 0.94367 0.27466 0.19074 0.0
C1834 C 0.02891 0.27367 0.18939 0.0
C1835 C 0.1602 0.25381 0.19538 0.0
C1836 C 0.20545 0.23532 0.20284 0.0
C1837 C 0.0747 0.25497 0.19659 0.0
C1838 C 0.1646 0.21783 0.21143 0.0
C1839 C 0.07956 0.21865 0.21256 0.0
H1840 H 0.35547 0.00477 0.18952 0.0
H1841 H 0.36134 0.94428 0.21994 0.0
H1842 H 0.21304 0.94767 0.22277 0.0
H1843 H 0.08076 0.96813 0.21675 0.0
H1844 H 0.07484 0.02856 0.1863 0.0
H1845 H 0.22312 0.02512 0.18344 0.0
C1846 C 0.32414 -0.00781 0.19668 0.0
C1847 C 0.36961 0.97417 0.20445 0.0
C1848 C 0.23856 -0.00555 0.19837 0.0
C1849 C 0.32799 0.95821 0.21378 0.0
C1850 C 0.24306 0.96022 0.21545 0.0
C1851 C 0.11208 0.98069 0.20958 0.0
C1852 C 0.06662 -0.00126 0.20182 0.0
C1853 C 0.19763 0.97839 0.20787 0.0
C1854 C 0.1082 0.01463 0.19246 0.0
C1855 C 0.19311 0.01259 0.19077 0.0
H1856 H 0.88098 0.98216 0.92887 0.0
H1857 H 0.85854 -0.00155 0.97167 0.0
H1858 H 1.005 0.00774 0.97298 0.0
H1859 H 0.13938 0.01121 0.96198 0.0
H1860 H 0.1652 0.9913 0.91969 0.0
H1861 H 1.01732 0.98375 0.91805 0.0
C1862 C 0.90844 0.9876 0.93849 0.0
C1863 C 0.85928 0.98964 0.95016 0.0
C1864 C 0.99296 -0.00746 0.93919 0.0
C1865 C 0.89535 -0.0034 0.96257 0.0
C1866 C 0.97894 0.00207 0.9633 0.0
C1867 C 0.11235 0.00552 0.95237 0.0
C1868 C 0.16245 0.00223 0.9409 0.0
C1869 C 0.02821 0.00023 0.95167 0.0
C1870 C 0.12736 -0.0058 0.9286 0.0
C1871 C 0.04305 0.98977 0.92769 0.0
H1872 H 0.91368 0.73147 0.93494 0.0
H1873 H 0.93259 0.76575 0.9748 0.0
H1874 H 0.78414 0.76293 0.97757 0.0
H1875 H 0.64924 0.75045 0.96872 0.0
H1876 H 0.62957 0.71649 0.9288 0.0
H1877 H 0.77822 0.71926 0.926 0.0
C1878 C 0.88515 0.73841 0.94421 0.0
C1879 C 0.9338 0.74886 0.95465 0.0
C1880 C 0.79985 0.73663 0.94573 0.0
C1881 C 0.89629 0.75769 0.96662 0.0
C1882 C 0.8115 0.75603 0.96821 0.0
C1883 C 0.67758 0.74358 0.95943 0.0
C1884 C 0.62878 0.73317 0.949 0.0
C1885 C 0.76276 0.74545 0.95786 0.0
C1886 C 0.66606 0.72449 0.93698 0.0
C1887 C 0.75093 0.72613 0.93537 0.0
H1888 H 0.13157 0.76897 0.83192 0.0
H1889 H 0.13877 0.68633 0.84011 0.0
H1890 H 0.98877 0.68486 0.84026 0.0
H1891 H 0.85598 0.70713 0.83751 0.0
H1892 H 0.85014 0.78895 0.82723 0.0
H1893 H 0.99961 0.79079 0.82832 0.0
C1894 C 0.10012 0.75071 0.83386 0.0
C1895 C 0.14549 0.72783 0.83617 0.0
C1896 C 1.01446 0.74989 0.83342 0.0
C1897 C 0.1046 0.70417 0.83839 0.0
C1898 C 1.01911 0.70334 0.83844 0.0
C1899 C 0.88767 0.72533 0.83552 0.0
C1900 C 0.84266 0.74792 0.83236 0.0
C1901 C 0.97347 0.72606 0.83587 0.0
C1902 C 0.8839 0.77134 0.82964 0.0
C1903 C 0.96915 0.77241 0.83032 0.0
H1904 H 0.65916 0.98545 0.81263 0.0
H1905 H 0.63826 0.01834 0.85277 0.0
H1906 H 0.78715 0.01631 0.85547 0.0
H1907 H 0.92321 0.00506 0.84634 0.0
H1908 H 0.94311 0.97187 0.80623 0.0
H1909 H 0.79449 0.97397 0.80359 0.0
C1910 C 0.68727 -0.00776 0.82195 0.0
C1911 C 0.63808 0.00211 0.83248 0.0
C1912 C 0.77257 0.99082 0.82344 0.0
C1913 C 0.67507 0.01072 0.84453 0.0
C1914 C 0.76007 0.00951 0.84607 0.0
C1915 C 0.89485 -0.00178 0.83705 0.0
C1916 C 0.94382 0.98828 0.8265 0.0
C1917 C 0.80941 -0.00044 0.8356 0.0
C1918 C 0.90655 0.97955 0.8145 0.0
C1919 C 0.82166 0.98079 0.81298 0.0
H1920 H 0.14242 0.48486 0.03315 0.0
H1921 H 0.90037 0.50164 0.04822 0.0
H1922 H 0.85008 0.50575 0.02483 0.0
H1923 H 0.87551 0.50382 1.0002 0.0
H1924 H 0.11786 0.48676 0.98528 0.0
H1925 H 0.16818 0.48346 1.00867 0.0
C1926 C 0.07858 0.48948 0.03133 0.0
C1927 C 0.02483 0.49289 0.04237 0.0
C1928 C 0.05061 0.49168 0.01794 0.0
C1929 C 0.94256 0.49889 0.03988 0.0
C1930 C 0.91403 0.50121 0.02653 0.0
C1931 C 0.93942 0.49942 1.00208 0.0
C1932 C 0.99315 0.4955 0.99108 0.0
C1933 C 0.96752 0.49753 1.0155 0.0
C1934 C 0.07563 0.48983 0.9936 0.0
C1935 C 0.10422 0.48795 1.00695 0.0
H1936 H 0.35021 0.70618 0.99917 0.0
H1937 H 0.18702 0.76832 0.98716 0.0
H1938 H 0.16205 0.77893 1.01103 0.0
H1939 H 0.18924 0.77123 0.03517 0.0
H1940 H 0.35188 0.70908 0.04733 0.0
H1941 H 0.37616 0.69812 0.02343 0.0
C1942 C 0.30863 0.72192 1.00177 0.0
C1943 C 0.27041 0.73647 0.99141 0.0
C1944 C 0.29565 0.72814 1.0155 0.0
C1945 C 0.2169 0.75681 0.99494 0.0
C1946 C 0.20306 0.76297 1.00858 0.0
C1947 C 0.23036 0.75535 0.03261 0.0
C1948 C 0.26895 0.741 0.043 0.0
C1949 C 0.24281 0.74895 0.01892 0.0
C1950 C 0.32179 0.72045 0.03951 0.0
C1951 C 0.33524 0.71411 0.02587 0.0
H1952 H 0.05404 0.77174 0.291 0.0
H1953 H 0.02447 0.68842 0.28727 0.0
H1954 H 0.0335 0.69173 0.26258 0.0
H1955 H 0.04589 0.71839 0.24195 0.0
H1956 H 0.0769 0.80167 0.24549 0.0
H1957 H 0.06931 0.79844 0.27026 0.0
C1958 C 0.05115 0.75431 0.28477 0.0
C1959 C 0.0392 0.72985 0.29092 0.0
C1960 C 0.05465 0.75643 0.27052 0.0
C1961 C 0.03415 0.70745 0.28273 0.0
C1962 C 0.03859 0.70934 0.26862 0.0
C1963 C 0.04985 0.73585 0.24815 0.0
C1964 C 0.06101 0.76027 0.24193 0.0
C1965 C 0.0475 0.73376 0.26238 0.0
C1966 C 0.06759 0.78268 0.25008 0.0
C1967 C 0.06391 0.78082 0.26424 0.0
H1968 H 0.13223 0.47496 0.25131 0.0
H1969 H 0.36152 0.49716 0.23303 0.0
H1970 H 0.42046 0.5044 0.25561 0.0
H1971 H 0.40595 0.50446 0.28045 0.0
H1972 H 0.1763 0.48254 0.29871 0.0
H1973 H 0.11746 0.47527 0.27613 0.0
C1974 C 0.19526 0.48128 0.25228 0.0
C1975 C 0.24285 0.48546 0.24058 0.0
C1976 C 0.22809 0.48557 0.26523 0.0
C1977 C 0.32407 0.49378 0.24192 0.0
C1978 C 0.35753 0.49795 0.25481 0.0
C1979 C 0.34288 0.49819 0.27947 0.0
C1980 C 0.29522 0.49405 0.29116 0.0
C1981 C 0.30997 0.49398 0.26651 0.0
C1982 C 0.21383 0.48588 0.28982 0.0
C1983 C 0.18042 0.48167 0.27693 0.0
H1984 H 0.89539 0.22653 0.99891 0.0
H1985 H 0.65763 0.24435 0.98231 0.0
H1986 H 0.6021 0.24861 1.00536 0.0
H1987 H 0.6226 0.24798 0.03007 0.0
H1988 H 0.8609 0.23072 0.04663 0.0
H1989 H 0.91565 0.22558 0.02359 0.0
C1990 C 0.83125 0.23123 1.00034 0.0
C1991 C 0.78035 0.2351 0.98899 0.0
C1992 C 0.80044 0.23385 1.01354 0.0
C1993 C 0.69764 0.24125 0.99093 0.0
C1994 C 0.66615 0.24373 1.00408 0.0
C1995 C 0.6866 0.2431 0.02864 0.0
C1996 C 0.73798 0.23977 0.03998 0.0
C1997 C 0.71719 0.24022 1.01543 0.0
C1998 C 0.82053 0.23342 0.03802 0.0
C1999 C 0.85159 0.23046 0.02488 0.0
H2000 H 0.90389 0.23882 0.78538 0.0
H2001 H 0.14667 0.25475 0.80036 0.0
H2002 H 0.19706 0.25831 0.77697 0.0
H2003 H 0.17151 0.25677 0.75241 0.0
H2004 H 0.92915 0.24031 0.7374 0.0
H2005 H 0.8785 0.23704 0.7608 0.0
C2006 C 0.96789 0.24308 0.78352 0.0
C2007 C 1.02174 0.24656 0.79453 0.0
C2008 C 0.99608 0.24498 0.77011 0.0
C2009 C 0.10434 0.25203 0.79202 0.0
C2010 C 0.13297 0.25405 0.77867 0.0
C2011 C 0.10751 0.25249 0.75426 0.0
C2012 C 0.05385 0.24881 0.74325 0.0
C2013 C 0.07933 0.25056 0.76767 0.0
C2014 C 0.97132 0.24322 0.74575 0.0
C2015 C 0.94255 0.24135 0.7591 0.0
H2016 H 0.85622 0.52631 0.78326 0.0
H2017 H 0.69832 0.46357 0.79615 0.0
H2018 H 0.6729 0.45194 0.77237 0.0
H2019 H 0.69682 0.45955 0.74803 0.0
H2020 H 0.85595 0.52212 0.73531 0.0
H2021 H 0.88164 0.5335 0.75905 0.0
C2022 C 0.81584 0.51016 0.78088 0.0
C2023 C 0.77893 0.49582 0.79142 0.0
C2024 C 0.80293 0.50335 0.76727 0.0
C2025 C 0.72707 0.47492 0.78819 0.0
C2026 C 0.713 0.4682 0.77462 0.0
C2027 C 0.73765 0.47556 0.75046 0.0
C2028 C 0.77447 0.49003 0.73996 0.0
C2029 C 0.75109 0.48218 0.7641 0.0
C2030 C 0.82715 0.51069 0.74323 0.0
C2031 C 0.84136 0.51729 0.75679 0.0
H2032 H 0.14584 0.98178 0.5322 0.0
H2033 H 0.90612 0.00097 0.54759 0.0
H2034 H 0.85542 0.00558 0.52423 0.0
H2035 H 0.88002 0.00415 0.49959 0.0
H2036 H 0.1198 0.98496 0.48423 0.0
H2037 H 0.17049 0.98042 0.50759 0.0
C2038 C 0.08233 0.98693 0.53046 0.0
C2039 C 0.02951 0.991 0.54159 0.0
C2040 C 0.05417 0.9896 0.51707 0.0
C2041 C 0.94767 -0.00228 0.53919 0.0
C2042 C 0.91893 0.00037 0.52585 0.0
C2043 C 0.94354 -0.00098 0.50134 0.0
C2044 C 0.99638 -0.00508 0.49021 0.0
C2045 C 0.97173 -0.00361 0.51474 0.0
C2046 C 0.07825 0.98825 0.49263 0.0
C2047 C 0.10698 0.98563 0.50596 0.0
H2048 H 0.3812 0.20251 0.50415 0.0
H2049 H 0.22463 0.26438 0.48963 0.0
H2050 H 0.19557 0.27749 0.51304 0.0
H2051 H 0.21657 0.27173 0.53752 0.0
H2052 H 0.37326 0.20993 0.55208 0.0
H2053 H 0.40213 0.19673 0.52867 0.0
C2054 C 0.3402 0.21874 0.50611 0.0
C2055 C 0.30492 0.23247 0.49521 0.0
C2056 C 0.32497 0.22639 0.51956 0.0
C2057 C 0.25226 0.25351 0.49788 0.0
C2058 C 0.23605 0.26107 0.51124 0.0
C2059 C 0.25747 0.25547 0.53557 0.0
C2060 C 0.29291 0.24181 0.54649 0.0
C2061 C 0.27267 0.2478 0.52214 0.0
C2062 C 0.34556 0.22077 0.54383 0.0
C2063 C 0.36163 0.21314 0.53046 0.0
H2064 H 0.38636 0.01694 0.78101 0.0
H2065 H 0.17606 0.97331 0.79459 0.0
H2066 H 0.13889 0.9642 0.77099 0.0
H2067 H 0.16427 0.96956 0.74666 0.0
H2068 H 0.37627 0.01181 0.73277 0.0
H2069 H 0.41626 0.02012 0.75645 0.0
C2070 C 0.33222 0.0055 0.7788 0.0
C2071 C 0.2832 -0.00394 0.78953 0.0
C2072 C 0.31238 -0.00011 0.76522 0.0
C2073 C 0.21414 0.98094 0.78652 0.0
C2074 C 0.19317 0.97567 0.77304 0.0
C2075 C 0.21978 0.98038 0.74881 0.0
C2076 C 0.26732 0.99016 0.73803 0.0
C2077 C 0.24168 0.98511 0.76234 0.0
C2078 C 0.33915 0.00399 0.74092 0.0
C2079 C 0.36146 0.00889 0.75444 0.0
H2080 H 0.88225 0.72806 0.49776 0.0
H2081 H 0.6488 0.74831 0.48029 0.0
H2082 H 0.59196 0.75477 0.50312 0.0
H2083 H 0.61052 0.75567 0.52796 0.0
H2084 H 0.84407 0.73525 0.54526 0.0
H2085 H 0.8998 0.72791 0.5225 0.0
C2086 C 0.81873 0.73377 0.49894 0.0
C2087 C 0.76958 0.73775 0.48739 0.0
C2088 C 0.78707 0.73755 0.51203 0.0
C2089 C 0.68757 0.74512 0.48905 0.0
C2090 C 0.65532 0.74886 0.50208 0.0
C2091 C 0.67368 0.74961 0.52674 0.0
C2092 C 0.72364 0.74619 0.53827 0.0
C2093 C 0.70477 0.74533 0.51363 0.0
C2094 C 0.80495 0.73819 0.53656 0.0
C2095 C 0.83655 0.73394 0.52355 0.0
H2096 H 0.64399 0.96277 0.25184 0.0
H2097 H 0.84559 0.00782 0.23608 0.0
H2098 H 0.8914 0.0171 0.25927 0.0
H2099 H 0.87536 0.01165 0.28388 0.0
H2100 H 0.6708 0.96833 0.29982 0.0
H2101 H 0.62352 0.95942 0.2766 0.0
C2102 C 0.69814 0.97455 0.25348 0.0
C2103 C 0.74214 0.98438 0.24228 0.0
C2104 C 0.72279 0.98027 0.26682 0.0
C2105 C 0.81125 -5e-05 0.24455 0.0
C2106 C 0.8372 0.00529 0.25779 0.0
C2107 C 0.81998 0.00043 0.28227 0.0
C2108 C 0.77654 0.99057 0.2935 0.0
C2109 C 0.79353 -0.0045 0.26897 0.0
C2110 C 0.70482 0.9762 0.29132 0.0
C2111 C 0.67827 0.97099 0.27806 0.0
H2112 H 0.63682 0.45641 0.53021 0.0
H2113 H 0.47483 0.51626 0.54533 0.0
H2114 H 0.43516 0.52743 0.5221 0.0
H2115 H 0.44906 0.52077 0.4975 0.0
H2116 H 0.6121 0.46121 0.48238 0.0
H2117 H 0.65026 0.44962 0.50563 0.0
C2118 C 0.59234 0.47176 0.52842 0.0
C2119 C 0.55855 0.48547 0.53944 0.0
C2120 C 0.57105 0.47835 0.51505 0.0
C2121 C 0.5013 0.50537 0.53699 0.0
C2122 C 0.47904 0.51186 0.52372 0.0
C2123 C 0.49329 0.50536 0.4993 0.0
C2124 C 0.52788 0.49186 0.48828 0.0
C2125 C 0.51416 0.49865 0.51267 0.0
C2126 C 0.58482 0.47187 0.49073 0.0
C2127 C 0.60634 0.46518 0.50401 0.0
H2128 H 0.38164 0.73368 0.78131 0.0
H2129 H 0.62108 0.74942 0.79776 0.0
H2130 H 0.67634 0.75315 0.77465 0.0
H2131 H 0.65574 0.75192 0.74991 0.0
H2132 H 0.41609 0.73622 0.73353 0.0
H2133 H 0.36109 0.73239 0.75663 0.0
C2134 C 0.44602 0.73793 0.77985 0.0
C2135 C 0.49746 0.74129 0.7912 0.0
C2136 C 0.47689 0.74 0.76661 0.0
C2137 C 0.58053 0.74678 0.78917 0.0
C2138 C 0.61192 0.74889 0.77598 0.0
C2139 C 0.5914 0.74764 0.75139 0.0
C2140 C 0.53978 0.74434 0.74007 0.0
C2141 C 0.5606 0.74554 0.76465 0.0
C2142 C 0.45676 0.73881 0.74211 0.0
C2143 C 0.4255 0.73665 0.75529 0.0
H2144 H 0.36515 0.22639 0.28066 0.0
H2145 H 0.59178 0.24761 0.30012 0.0
H2146 H 0.65396 0.25602 0.27792 0.0
H2147 H 0.64367 0.25702 0.25307 0.0
H2148 H 0.41779 0.23548 0.23351 0.0
H2149 H 0.35471 0.22758 0.25573 0.0
C2150 C 0.42821 0.23282 0.28002 0.0
C2151 C 0.47414 0.23636 0.29195 0.0
C2152 C 0.46321 0.23761 0.26725 0.0
C2153 C 0.55555 0.24474 0.29104 0.0
C2154 C 0.59092 0.24957 0.27837 0.0
C2155 C 0.58047 0.2507 0.25368 0.0
C2156 C 0.53512 0.24684 0.24172 0.0
C2157 C 0.54527 0.24606 0.26643 0.0
C2158 C 0.45359 0.23857 0.2426 0.0
C2159 C 0.41776 0.23404 0.25529 0.0
H2160 H 0.6607 0.98371 0.02975 0.0
H2161 H 0.41886 -0.00108 0.0454 0.0
H2162 H 0.36666 0.00311 0.02212 0.0
H2163 H 0.39047 0.00239 0.99745 0.0
H2164 H 0.63191 0.98653 0.98187 0.0
H2165 H 0.68422 0.9826 1.00511 0.0
C2166 C 0.59648 0.98796 0.02808 0.0
C2167 C 0.54351 0.99105 0.03925 0.0
C2168 C 0.56724 0.99019 1.01473 0.0
C2169 C 0.46061 -0.00351 0.03695 0.0
C2170 C 0.43094 -0.00113 0.02366 0.0
C2171 C 0.45463 -0.00193 0.99913 0.0
C2172 C 0.50759 -0.00519 0.98796 0.0
C2173 C 0.48376 -0.00425 1.01249 0.0
C2174 C 0.59028 0.98916 0.99029 0.0
C2175 C 0.61998 0.98692 1.00357 0.0
loop_
_geom_bond_atom_site_label_1
_geom_bond_atom_site_label_2
_geom_bond_distance
_geom_bond_site_symmetry_2
_ccdc_geom_bond_type
Dy0 O4 2.398 . S
Dy0 O5 2.491 . S
Dy0 O6 2.403 . S
Dy0 O7 2.664 1_655 S
Dy0 O11 2.326 . S
Dy0 O15 2.315 . S
Dy0 O16 2.351 1_655 S
C1 O12 1.185 . S
C1 O13 1.355 . S
C2 O4 1.185 . S
C2 O5 1.355 . S
Dy3 O7 2.310 . S
Dy3 O10 2.351 . S
Dy3 O12 2.398 . S
Dy3 O13 2.491 . S
Dy3 O14 2.403 . S
Dy3 O15 2.655 1_455 S
Dy3 O17 2.326 . S
O4 Dy0 2.398 . S
O4 C2 1.185 . S
O5 Dy0 2.491 . S
O5 C2 1.355 . S
O6 Dy0 2.403 . S
O6 C8 1.254 1_655 S
O7 Dy0 2.664 1_455 S
O7 Dy3 2.310 . S
O7 C8 1.268 . S
C8 O6 1.254 1_455 S
C8 O7 1.268 . S
C9 O14 1.254 . S
C9 O15 1.263 1_455 S
O10 Dy3 2.351 . S
O10 C18 1.249 1_455 S
O11 Dy0 2.326 . S
O11 C18 1.267 . S
O12 C1 1.185 . S
O12 Dy3 2.398 . S
O13 C1 1.355 . S
O13 Dy3 2.491 . S
O14 Dy3 2.403 . S
O14 C9 1.254 . S
O15 Dy0 2.315 . S
O15 Dy3 2.655 1_655 S
O15 C9 1.263 1_655 S
O16 Dy0 2.351 1_455 S
O16 C19 1.249 . S
O17 Dy3 2.326 . S
O17 C19 1.267 . S
C18 O10 1.249 1_655 S
C18 O11 1.267 . S
C19 O16 1.249 . S
C19 O17 1.267 . S
Dy20 O24 2.398 . S
Dy20 O25 2.491 . S
Dy20 O26 2.403 . S
Dy20 O27 2.664 . S
Dy20 O31 2.326 . S
Dy20 O35 2.310 . S
Dy20 O36 2.351 . S
C21 O32 1.185 . S
C21 O33 1.355 1_655 S
C22 O24 1.185 . S
C22 O25 1.355 . S
Dy23 O27 2.310 . S
Dy23 O30 2.351 . S
Dy23 O32 2.398 1_455 S
Dy23 O33 2.491 . S
Dy23 O34 2.403 . S
Dy23 O35 2.664 . S
Dy23 O37 2.326 . S
O24 Dy20 2.398 . S
O24 C22 1.185 . S
O25 Dy20 2.491 . S
O25 C22 1.355 . S
O26 Dy20 2.403 . S
O26 C28 1.254 . S
O27 Dy20 2.664 . S
O27 Dy23 2.310 . S
O27 C28 1.268 . S
C28 O26 1.254 . S
C28 O27 1.268 . S
C29 O34 1.254 . S
C29 O35 1.268 . S
O30 Dy23 2.351 . S
O30 C38 1.249 . S
O31 Dy20 2.326 . S
O31 C38 1.267 . S
O32 C21 1.185 . S
O32 Dy23 2.398 1_655 S
O33 C21 1.355 1_455 S
O33 Dy23 2.491 . S
O34 Dy23 2.403 . S
O34 C29 1.254 . S
O35 Dy20 2.310 . S
O35 Dy23 2.664 . S
O35 C29 1.268 . S
O36 Dy20 2.351 . S
O36 C39 1.249 . S
O37 Dy23 2.326 . S
O37 C39 1.267 . S
C38 O30 1.249 . S
C38 O31 1.267 . S
C39 O36 1.249 . S
C39 O37 1.267 . S
Dy40 O44 2.398 . S
Dy40 O45 2.491 . S
Dy40 O46 2.403 . S
Dy40 O47 2.664 1_655 S
Dy40 O51 2.326 . S
Dy40 O55 2.315 . S
Dy40 O56 2.351 1_655 S
C41 O52 1.185 . S
C41 O53 1.355 . S
C42 O44 1.185 . S
C42 O45 1.355 . S
Dy43 O47 2.310 . S
Dy43 O50 2.351 . S
Dy43 O52 2.398 . S
Dy43 O53 2.491 . S
Dy43 O54 2.403 . S
Dy43 O55 2.655 1_455 S
Dy43 O57 2.326 . S
O44 Dy40 2.398 . S
O44 C42 1.185 . S
O45 Dy40 2.491 . S
O45 C42 1.355 . S
O46 Dy40 2.403 . S
O46 C48 1.254 1_655 S
O47 Dy40 2.664 1_455 S
O47 Dy43 2.310 . S
O47 C48 1.268 . S
C48 O46 1.254 1_455 S
C48 O47 1.268 . S
C49 O54 1.254 . S
C49 O55 1.263 1_455 S
O50 Dy43 2.351 . S
O50 C58 1.249 1_455 S
O51 Dy40 2.326 . S
O51 C58 1.267 . S
O52 C41 1.185 . S
O52 Dy43 2.398 . S
O53 C41 1.355 . S
O53 Dy43 2.491 . S
O54 Dy43 2.403 . S
O54 C49 1.254 . S
O55 Dy40 2.315 . S
O55 Dy43 2.655 1_655 S
O55 C49 1.263 1_655 S
O56 Dy40 2.351 1_455 S
O56 C59 1.249 . S
O57 Dy43 2.326 . S
O57 C59 1.267 . S
C58 O50 1.249 1_655 S
C58 O51 1.267 . S
C59 O56 1.249 . S
C59 O57 1.267 . S
Dy60 O64 2.398 . S
Dy60 O65 2.491 . S
Dy60 O66 2.403 . S
Dy60 O67 2.664 . S
Dy60 O71 2.326 . S
Dy60 O75 2.310 . S
Dy60 O76 2.351 . S
C61 O72 1.185 . S
C61 O73 1.355 1_655 S
C62 O64 1.185 . S
C62 O65 1.355 . S
Dy63 O67 2.310 . S
Dy63 O70 2.351 . S
Dy63 O72 2.398 1_455 S
Dy63 O73 2.491 . S
Dy63 O74 2.403 . S
Dy63 O75 2.664 . S
Dy63 O77 2.326 . S
O64 Dy60 2.398 . S
O64 C62 1.185 . S
O65 Dy60 2.491 . S
O65 C62 1.355 . S
O66 Dy60 2.403 . S
O66 C68 1.254 . S
O67 Dy60 2.664 . S
O67 Dy63 2.310 . S
O67 C68 1.268 . S
C68 O66 1.254 . S
C68 O67 1.268 . S
C69 O74 1.254 . S
C69 O75 1.268 . S
O70 Dy63 2.351 . S
O70 C78 1.249 . S
O71 Dy60 2.326 . S
O71 C78 1.267 . S
O72 C61 1.185 . S
O72 Dy63 2.398 1_655 S
O73 C61 1.355 1_455 S
O73 Dy63 2.491 . S
O74 Dy63 2.403 . S
O74 C69 1.254 . S
O75 Dy60 2.310 . S
O75 Dy63 2.664 . S
O75 C69 1.268 . S
O76 Dy60 2.351 . S
O76 C79 1.249 . S
O77 Dy63 2.326 . S
O77 C79 1.267 . S
C78 O70 1.249 . S
C78 O71 1.267 . S
C79 O76 1.249 . S
C79 O77 1.267 . S
Dy80 O84 2.398 . S
Dy80 O85 2.491 . S
Dy80 O86 2.403 . S
Dy80 O87 2.655 1_655 S
Dy80 O91 2.326 . S
Dy80 O95 2.310 . S
Dy80 O96 2.351 . S
C81 O92 1.185 . S
C81 O93 1.355 . S
C82 O84 1.185 . S
C82 O85 1.355 . S
Dy83 O87 2.315 . S
Dy83 O90 2.351 1_455 S
Dy83 O92 2.398 . S
Dy83 O93 2.491 . S
Dy83 O94 2.403 . S
Dy83 O95 2.664 1_455 S
Dy83 O97 2.326 . S
O84 Dy80 2.398 . S
O84 C82 1.185 . S
O85 Dy80 2.491 . S
O85 C82 1.355 . S
O86 Dy80 2.403 . S
O86 C88 1.254 . S
O87 Dy80 2.655 1_455 S
O87 Dy83 2.315 . S
O87 C88 1.263 1_455 S
C88 O86 1.254 . S
C88 O87 1.263 1_655 S
C89 O94 1.254 1_655 S
C89 O95 1.268 . S
O90 Dy83 2.351 1_655 S
O90 C98 1.249 . S
O91 Dy80 2.326 . S
O91 C98 1.267 . S
O92 C81 1.185 . S
O92 Dy83 2.398 . S
O93 C81 1.355 . S
O93 Dy83 2.491 . S
O94 Dy83 2.403 . S
O94 C89 1.254 1_455 S
O95 Dy80 2.310 . S
O95 Dy83 2.664 1_655 S
O95 C89 1.268 . S
O96 Dy80 2.351 . S
O96 C99 1.249 1_655 S
O97 Dy83 2.326 . S
O97 C99 1.267 . S
C98 O90 1.249 . S
C98 O91 1.267 . S
C99 O96 1.249 1_455 S
C99 O97 1.267 . S
Dy100 O104 2.398 1_655 S
Dy100 O105 2.491 . S
Dy100 O106 2.403 . S
Dy100 O107 2.664 . S
Dy100 O111 2.326 . S
Dy100 O115 2.310 . S
Dy100 O116 2.351 . S
C101 O112 1.185 . S
C101 O113 1.355 . S
C102 O104 1.185 . S
C102 O105 1.355 1_455 S
Dy103 O107 2.310 . S
Dy103 O110 2.351 . S
Dy103 O112 2.398 . S
Dy103 O113 2.491 . S
Dy103 O114 2.403 . S
Dy103 O115 2.664 . S
Dy103 O117 2.326 . S
O104 Dy100 2.398 1_455 S
O104 C102 1.185 . S
O105 Dy100 2.491 . S
O105 C102 1.355 1_655 S
O106 Dy100 2.403 . S
O106 C108 1.254 . S
O107 Dy100 2.664 . S
O107 Dy103 2.310 . S
O107 C108 1.268 . S
C108 O106 1.254 . S
C108 O107 1.268 . S
C109 O114 1.254 . S
C109 O115 1.268 . S
O110 Dy103 2.351 . S
O110 C118 1.249 . S
O111 Dy100 2.326 . S
O111 C118 1.267 . S
O112 C101 1.185 . S
O112 Dy103 2.398 . S
O113 C101 1.355 . S
O113 Dy103 2.491 . S
O114 Dy103 2.403 . S
O114 C109 1.254 . S
O115 Dy100 2.310 . S
O115 Dy103 2.664 . S
O115 C109 1.268 . S
O116 Dy100 2.351 . S
O116 C119 1.249 . S
O117 Dy103 2.326 . S
O117 C119 1.267 . S
C118 O110 1.249 . S
C118 O111 1.267 . S
C119 O116 1.249 . S
C119 O117 1.267 . S
Dy120 O124 2.398 . S
Dy120 O125 2.491 . S
Dy120 O126 2.403 . S
Dy120 O127 2.655 1_655 S
Dy120 O131 2.326 . S
Dy120 O135 2.310 . S
Dy120 O136 2.351 . S
C121 O132 1.185 . S
C121 O133 1.355 . S
C122 O124 1.185 . S
C122 O125 1.355 . S
Dy123 O127 2.315 . S
Dy123 O130 2.351 1_455 S
Dy123 O132 2.398 . S
Dy123 O133 2.491 . S
Dy123 O134 2.403 . S
Dy123 O135 2.664 1_455 S
Dy123 O137 2.326 . S
O124 Dy120 2.398 . S
O124 C122 1.185 . S
O125 Dy120 2.491 . S
O125 C122 1.355 . S
O126 Dy120 2.403 . S
O126 C128 1.254 . S
O127 Dy120 2.655 1_455 S
O127 Dy123 2.315 . S
O127 C128 1.263 1_455 S
C128 O126 1.254 . S
C128 O127 1.263 1_655 S
C129 O134 1.254 1_655 S
C129 O135 1.268 . S
O130 Dy123 2.351 1_655 S
O130 C138 1.249 . S
O131 Dy120 2.326 . S
O131 C138 1.267 . S
O132 C121 1.185 . S
O132 Dy123 2.398 . S
O133 C121 1.355 . S
O133 Dy123 2.491 . S
O134 Dy123 2.403 . S
O134 C129 1.254 1_455 S
O135 Dy120 2.310 . S
O135 Dy123 2.664 1_655 S
O135 C129 1.268 . S
O136 Dy120 2.351 . S
O136 C139 1.249 1_655 S
O137 Dy123 2.326 . S
O137 C139 1.267 . S
C138 O130 1.249 . S
C138 O131 1.267 . S
C139 O136 1.249 1_455 S
C139 O137 1.267 . S
Dy140 O144 2.398 1_655 S
Dy140 O145 2.491 . S
Dy140 O146 2.403 . S
Dy140 O147 2.664 . S
Dy140 O151 2.326 . S
Dy140 O155 2.310 . S
Dy140 O156 2.351 . S
C141 O152 1.185 . S
C141 O153 1.355 . S
C142 O144 1.185 . S
C142 O145 1.355 1_455 S
Dy143 O147 2.310 . S
Dy143 O150 2.351 . S
Dy143 O152 2.398 . S
Dy143 O153 2.491 . S
Dy143 O154 2.403 . S
Dy143 O155 2.664 . S
Dy143 O157 2.326 . S
O144 Dy140 2.398 1_455 S
O144 C142 1.185 . S
O145 Dy140 2.491 . S
O145 C142 1.355 1_655 S
O146 Dy140 2.403 . S
O146 C148 1.254 . S
O147 Dy140 2.664 . S
O147 Dy143 2.310 . S
O147 C148 1.268 . S
C148 O146 1.254 . S
C148 O147 1.268 . S
C149 O154 1.254 . S
C149 O155 1.268 . S
O150 Dy143 2.351 . S
O150 C158 1.249 . S
O151 Dy140 2.326 . S
O151 C158 1.267 . S
O152 C141 1.185 . S
O152 Dy143 2.398 . S
O153 C141 1.355 . S
O153 Dy143 2.491 . S
O154 Dy143 2.403 . S
O154 C149 1.254 . S
O155 Dy140 2.310 . S
O155 Dy143 2.664 . S
O155 C149 1.268 . S
O156 Dy140 2.351 . S
O156 C159 1.249 . S
O157 Dy143 2.326 . S
O157 C159 1.267 . S
C158 O150 1.249 . S
C158 O151 1.267 . S
C159 O156 1.249 . S
C159 O157 1.267 . S
Dy160 O164 2.398 . S
Dy160 O165 2.491 1_545 S
Dy160 O166 2.403 . S
Dy160 O167 2.664 1_645 S
Dy160 O171 2.326 1_545 S
Dy160 O175 2.315 1_545 S
Dy160 O176 2.351 1_655 S
C161 O172 1.185 1_545 S
C161 O173 1.355 . S
C162 O164 1.185 1_565 S
C162 O165 1.355 . S
Dy163 O167 2.310 . S
Dy163 O170 2.351 . S
Dy163 O172 2.398 . S
Dy163 O173 2.491 1_565 S
Dy163 O174 2.403 . S
Dy163 O175 2.655 1_455 S
Dy163 O177 2.326 1_565 S
O164 Dy160 2.398 . S
O164 C162 1.185 1_545 S
O165 Dy160 2.491 1_565 S
O165 C162 1.355 . S
O166 Dy160 2.403 . S
O166 C168 1.264 1_655 S
O167 Dy160 2.664 1_465 S
O167 Dy163 2.310 . S
O167 C168 1.265 1_565 S
C168 O166 1.264 1_455 S
C168 O167 1.265 1_545 S
C169 O174 1.254 . S
C169 O175 1.263 1_455 S
O170 Dy163 2.351 . S
O170 C178 1.249 1_455 S
O171 Dy160 2.326 1_565 S
O171 C178 1.267 . S
O172 C161 1.185 1_565 S
O172 Dy163 2.398 . S
O173 C161 1.355 . S
O173 Dy163 2.491 1_545 S
O174 Dy163 2.403 . S
O174 C169 1.254 . S
O175 Dy160 2.315 1_565 S
O175 Dy163 2.655 1_655 S
O175 C169 1.263 1_655 S
O176 Dy160 2.351 1_455 S
O176 C179 1.249 . S
O177 Dy163 2.326 1_545 S
O177 C179 1.267 . S
C178 O170 1.249 1_655 S
C178 O171 1.267 . S
C179 O176 1.249 . S
C179 O177 1.267 . S
Dy180 O184 2.398 . S
Dy180 O185 2.491 . S
Dy180 O186 2.403 . S
Dy180 O187 2.664 . S
Dy180 O191 2.326 . S
Dy180 O195 2.310 . S
Dy180 O196 2.351 . S
C181 O192 1.185 . S
C181 O193 1.355 1_655 S
C182 O184 1.185 . S
C182 O185 1.355 . S
Dy183 O187 2.310 . S
Dy183 O190 2.351 . S
Dy183 O192 2.398 1_455 S
Dy183 O193 2.491 . S
Dy183 O194 2.403 . S
Dy183 O195 2.664 . S
Dy183 O197 2.326 . S
O184 Dy180 2.398 . S
O184 C182 1.185 . S
O185 Dy180 2.491 . S
O185 C182 1.355 . S
O186 Dy180 2.403 . S
O186 C188 1.254 . S
O187 Dy180 2.664 . S
O187 Dy183 2.310 . S
O187 C188 1.268 . S
C188 O186 1.254 . S
C188 O187 1.268 . S
C189 O194 1.254 . S
C189 O195 1.268 . S
O190 Dy183 2.351 . S
O190 C198 1.249 . S
O191 Dy180 2.326 . S
O191 C198 1.267 . S
O192 C181 1.185 . S
O192 Dy183 2.398 1_655 S
O193 C181 1.355 1_455 S
O193 Dy183 2.491 . S
O194 Dy183 2.403 . S
O194 C189 1.254 . S
O195 Dy180 2.310 . S
O195 Dy183 2.664 . S
O195 C189 1.268 . S
O196 Dy180 2.351 . S
O196 C199 1.249 . S
O197 Dy183 2.326 . S
O197 C199 1.267 . S
C198 O190 1.249 . S
C198 O191 1.267 . S
C199 O196 1.249 . S
C199 O197 1.267 . S
Dy200 O204 2.398 . S
Dy200 O205 2.491 . S
Dy200 O206 2.403 . S
Dy200 O207 2.664 1_655 S
Dy200 O211 2.326 . S
Dy200 O215 2.315 . S
Dy200 O216 2.351 1_655 S
C201 O212 1.185 . S
C201 O213 1.355 . S
C202 O204 1.185 . S
C202 O205 1.355 . S
Dy203 O207 2.310 . S
Dy203 O210 2.351 . S
Dy203 O212 2.398 . S
Dy203 O213 2.491 . S
Dy203 O214 2.403 . S
Dy203 O215 2.655 1_455 S
Dy203 O217 2.326 . S
O204 Dy200 2.398 . S
O204 C202 1.185 . S
O205 Dy200 2.491 . S
O205 C202 1.355 . S
O206 Dy200 2.403 . S
O206 C208 1.254 1_655 S
O207 Dy200 2.664 1_455 S
O207 Dy203 2.310 . S
O207 C208 1.268 . S
C208 O206 1.254 1_455 S
C208 O207 1.268 . S
C209 O214 1.254 . S
C209 O215 1.263 1_455 S
O210 Dy203 2.351 . S
O210 C218 1.249 1_455 S
O211 Dy200 2.326 . S
O211 C218 1.267 . S
O212 C201 1.185 . S
O212 Dy203 2.398 . S
O213 C201 1.355 . S
O213 Dy203 2.491 . S
O214 Dy203 2.403 . S
O214 C209 1.254 . S
O215 Dy200 2.315 . S
O215 Dy203 2.655 1_655 S
O215 C209 1.263 1_655 S
O216 Dy200 2.351 1_455 S
O216 C219 1.249 . S
O217 Dy203 2.326 . S
O217 C219 1.267 . S
C218 O210 1.249 1_655 S
C218 O211 1.267 . S
C219 O216 1.249 . S
C219 O217 1.267 . S
Dy220 O224 2.398 . S
Dy220 O225 2.491 1_545 S
Dy220 O226 2.403 . S
Dy220 O227 2.664 1_545 S
Dy220 O231 2.326 1_545 S
Dy220 O235 2.310 1_545 S
Dy220 O236 2.351 . S
C221 O232 1.185 1_545 S
C221 O233 1.355 1_655 S
C222 O224 1.185 1_565 S
C222 O225 1.355 . S
Dy223 O227 2.310 . S
Dy223 O230 2.351 . S
Dy223 O232 2.398 1_455 S
Dy223 O233 2.491 1_565 S
Dy223 O234 2.403 . S
Dy223 O235 2.664 . S
Dy223 O237 2.326 1_565 S
O224 Dy220 2.398 . S
O224 C222 1.185 1_545 S
O225 Dy220 2.491 1_565 S
O225 C222 1.355 . S
O226 Dy220 2.403 . S
O226 C228 1.264 . S
O227 Dy220 2.664 1_565 S
O227 Dy223 2.310 . S
O227 C228 1.265 1_565 S
C228 O226 1.264 . S
C228 O227 1.265 1_545 S
C229 O234 1.254 . S
C229 O235 1.268 . S
O230 Dy223 2.351 . S
O230 C238 1.249 . S
O231 Dy220 2.326 1_565 S
O231 C238 1.267 . S
O232 C221 1.185 1_565 S
O232 Dy223 2.398 1_655 S
O233 C221 1.355 1_455 S
O233 Dy223 2.491 1_545 S
O234 Dy223 2.403 . S
O234 C229 1.254 . S
O235 Dy220 2.310 1_565 S
O235 Dy223 2.664 . S
O235 C229 1.268 . S
O236 Dy220 2.351 . S
O236 C239 1.249 . S
O237 Dy223 2.326 1_545 S
O237 C239 1.267 . S
C238 O230 1.249 . S
C238 O231 1.267 . S
C239 O236 1.249 . S
C239 O237 1.267 . S
Dy240 O244 2.398 . S
Dy240 O245 2.491 1_545 S
Dy240 O246 2.403 . S
Dy240 O247 2.655 1_655 S
Dy240 O251 2.326 1_545 S
Dy240 O255 2.310 . S
Dy240 O256 2.351 . S
C241 O252 1.185 1_545 S
C241 O253 1.355 . S
C242 O244 1.185 1_565 S
C242 O245 1.355 . S
Dy243 O247 2.315 1_565 S
Dy243 O250 2.351 1_455 S
Dy243 O252 2.398 . S
Dy243 O253 2.491 1_565 S
Dy243 O254 2.403 . S
Dy243 O255 2.664 1_465 S
Dy243 O257 2.326 1_565 S
O244 Dy240 2.398 . S
O244 C242 1.185 1_545 S
O245 Dy240 2.491 1_565 S
O245 C242 1.355 . S
O246 Dy240 2.403 . S
O246 C248 1.254 . S
O247 Dy240 2.655 1_455 S
O247 Dy243 2.315 1_545 S
O247 C248 1.263 1_455 S
C248 O246 1.254 . S
C248 O247 1.263 1_655 S
C249 O254 1.264 1_655 S
C249 O255 1.265 1_565 S
O250 Dy243 2.351 1_655 S
O250 C258 1.249 . S
O251 Dy240 2.326 1_565 S
O251 C258 1.267 . S
O252 C241 1.185 1_565 S
O252 Dy243 2.398 . S
O253 C241 1.355 . S
O253 Dy243 2.491 1_545 S
O254 Dy243 2.403 . S
O254 C249 1.264 1_455 S
O255 Dy240 2.310 . S
O255 Dy243 2.664 1_645 S
O255 C249 1.265 1_545 S
O256 Dy240 2.351 . S
O256 C259 1.249 1_655 S
O257 Dy243 2.326 1_545 S
O257 C259 1.267 . S
C258 O250 1.249 . S
C258 O251 1.267 . S
C259 O256 1.249 1_455 S
C259 O257 1.267 . S
Dy260 O264 2.398 1_655 S
Dy260 O265 2.491 . S
Dy260 O266 2.403 . S
Dy260 O267 2.664 . S
Dy260 O271 2.326 . S
Dy260 O275 2.310 . S
Dy260 O276 2.351 . S
C261 O272 1.185 . S
C261 O273 1.355 . S
C262 O264 1.185 . S
C262 O265 1.355 1_455 S
Dy263 O267 2.310 . S
Dy263 O270 2.351 . S
Dy263 O272 2.398 . S
Dy263 O273 2.491 . S
Dy263 O274 2.403 . S
Dy263 O275 2.664 . S
Dy263 O277 2.326 . S
O264 Dy260 2.398 1_455 S
O264 C262 1.185 . S
O265 Dy260 2.491 . S
O265 C262 1.355 1_655 S
O266 Dy260 2.403 . S
O266 C268 1.254 . S
O267 Dy260 2.664 . S
O267 Dy263 2.310 . S
O267 C268 1.268 . S
C268 O266 1.254 . S
C268 O267 1.268 . S
C269 O274 1.254 . S
C269 O275 1.268 . S
O270 Dy263 2.351 . S
O270 C278 1.249 . S
O271 Dy260 2.326 . S
O271 C278 1.267 . S
O272 C261 1.185 . S
O272 Dy263 2.398 . S
O273 C261 1.355 . S
O273 Dy263 2.491 . S
O274 Dy263 2.403 . S
O274 C269 1.254 . S
O275 Dy260 2.310 . S
O275 Dy263 2.664 . S
O275 C269 1.268 . S
O276 Dy260 2.351 . S
O276 C279 1.249 . S
O277 Dy263 2.326 . S
O277 C279 1.267 . S
C278 O270 1.249 . S
C278 O271 1.267 . S
C279 O276 1.249 . S
C279 O277 1.267 . S
Dy280 O284 2.398 . S
Dy280 O285 2.491 . S
Dy280 O286 2.403 . S
Dy280 O287 2.655 1_655 S
Dy280 O291 2.326 . S
Dy280 O295 2.310 . S
Dy280 O296 2.351 . S
C281 O292 1.185 . S
C281 O293 1.355 . S
C282 O284 1.185 . S
C282 O285 1.355 . S
Dy283 O287 2.315 . S
Dy283 O290 2.351 1_455 S
Dy283 O292 2.398 . S
Dy283 O293 2.491 . S
Dy283 O294 2.403 . S
Dy283 O295 2.664 1_455 S
Dy283 O297 2.326 . S
O284 Dy280 2.398 . S
O284 C282 1.185 . S
O285 Dy280 2.491 . S
O285 C282 1.355 . S
O286 Dy280 2.403 . S
O286 C288 1.254 . S
O287 Dy280 2.655 1_455 S
O287 Dy283 2.315 . S
O287 C288 1.263 1_455 S
C288 O286 1.254 . S
C288 O287 1.263 1_655 S
C289 O294 1.254 1_655 S
C289 O295 1.268 . S
O290 Dy283 2.351 1_655 S
O290 C298 1.249 . S
O291 Dy280 2.326 . S
O291 C298 1.267 . S
O292 C281 1.185 . S
O292 Dy283 2.398 . S
O293 C281 1.355 . S
O293 Dy283 2.491 . S
O294 Dy283 2.403 . S
O294 C289 1.254 1_455 S
O295 Dy280 2.310 . S
O295 Dy283 2.664 1_655 S
O295 C289 1.268 . S
O296 Dy280 2.351 . S
O296 C299 1.249 1_655 S
O297 Dy283 2.326 . S
O297 C299 1.267 . S
C298 O290 1.249 . S
C298 O291 1.267 . S
C299 O296 1.249 1_455 S
C299 O297 1.267 . S
Dy300 O304 2.398 1_655 S
Dy300 O305 2.491 1_545 S
Dy300 O306 2.403 . S
Dy300 O307 2.664 . S
Dy300 O311 2.326 1_545 S
Dy300 O315 2.310 . S
Dy300 O316 2.351 . S
C301 O312 1.185 1_545 S
C301 O313 1.355 . S
C302 O304 1.185 1_565 S
C302 O305 1.355 1_455 S
Dy303 O307 2.310 1_565 S
Dy303 O310 2.351 . S
Dy303 O312 2.398 . S
Dy303 O313 2.491 1_565 S
Dy303 O314 2.403 . S
Dy303 O315 2.664 1_565 S
Dy303 O317 2.326 1_565 S
O304 Dy300 2.398 1_455 S
O304 C302 1.185 1_545 S
O305 Dy300 2.491 1_565 S
O305 C302 1.355 1_655 S
O306 Dy300 2.403 . S
O306 C308 1.254 . S
O307 Dy300 2.664 . S
O307 Dy303 2.310 1_545 S
O307 C308 1.268 . S
C308 O306 1.254 . S
C308 O307 1.268 . S
C309 O314 1.264 . S
C309 O315 1.265 1_565 S
O310 Dy303 2.351 . S
O310 C318 1.249 . S
O311 Dy300 2.326 1_565 S
O311 C318 1.267 . S
O312 C301 1.185 1_565 S
O312 Dy303 2.398 . S
O313 C301 1.355 . S
O313 Dy303 2.491 1_545 S
O314 Dy303 2.403 . S
O314 C309 1.264 . S
O315 Dy300 2.310 . S
O315 Dy303 2.664 1_545 S
O315 C309 1.265 1_545 S
O316 Dy300 2.351 . S
O316 C319 1.249 . S
O317 Dy303 2.326 1_545 S
O317 C319 1.267 . S
C318 O310 1.249 . S
C318 O311 1.267 . S
C319 O316 1.249 . S
C319 O317 1.267 . S
Dy320 O324 2.398 . S
Dy320 O325 2.491 . S
Dy320 O326 2.403 . S
Dy320 O327 2.664 . S
Dy320 O331 2.326 . S
Dy320 O335 2.310 . S
Dy320 O336 2.351 . S
C321 O332 1.185 . S
C321 O333 1.355 . S
C322 O324 1.185 . S
C322 O325 1.355 . S
Dy323 O327 2.310 . S
Dy323 O330 2.351 . S
Dy323 O332 2.398 . S
Dy323 O333 2.491 . S
Dy323 O334 2.403 . S
Dy323 O335 2.664 . S
Dy323 O337 2.326 . S
O324 Dy320 2.398 . S
O324 C322 1.185 . S
O325 Dy320 2.491 . S
O325 C322 1.355 . S
O326 Dy320 2.403 . S
O326 C328 1.254 . S
O327 Dy320 2.664 . S
O327 Dy323 2.310 . S
O327 C328 1.268 . S
C328 O326 1.254 . S
C328 O327 1.268 . S
C329 O334 1.254 . S
C329 O335 1.268 . S
O330 Dy323 2.351 . S
O330 C338 1.249 . S
O331 Dy320 2.326 . S
O331 C338 1.267 . S
O332 C321 1.185 . S
O332 Dy323 2.398 . S
O333 C321 1.355 . S
O333 Dy323 2.491 . S
O334 Dy323 2.403 . S
O334 C329 1.254 . S
O335 Dy320 2.310 . S
O335 Dy323 2.664 . S
O335 C329 1.268 . S
O336 Dy320 2.351 . S
O336 C339 1.249 . S
O337 Dy323 2.326 . S
O337 C339 1.267 . S
C338 O330 1.249 . S
C338 O331 1.267 . S
C339 O336 1.249 . S
C339 O337 1.267 . S
Dy340 O344 2.398 . S
Dy340 O345 2.491 . S
Dy340 O346 2.403 . S
Dy340 O347 2.664 . S
Dy340 O351 2.326 . S
Dy340 O355 2.310 . S
Dy340 O356 2.351 . S
C341 O352 1.185 . S
C341 O353 1.355 . S
C342 O344 1.185 . S
C342 O345 1.355 . S
Dy343 O347 2.310 . S
Dy343 O350 2.351 . S
Dy343 O352 2.398 . S
Dy343 O353 2.491 . S
Dy343 O354 2.403 . S
Dy343 O355 2.664 . S
Dy343 O357 2.326 . S
O344 Dy340 2.398 . S
O344 C342 1.185 . S
O345 Dy340 2.491 . S
O345 C342 1.355 . S
O346 Dy340 2.403 . S
O346 C348 1.254 . S
O347 Dy340 2.664 . S
O347 Dy343 2.310 . S
O347 C348 1.268 . S
C348 O346 1.254 . S
C348 O347 1.268 . S
C349 O354 1.254 . S
C349 O355 1.268 . S
O350 Dy343 2.351 . S
O350 C358 1.249 . S
O351 Dy340 2.326 . S
O351 C358 1.267 . S
O352 C341 1.185 . S
O352 Dy343 2.398 . S
O353 C341 1.355 . S
O353 Dy343 2.491 . S
O354 Dy343 2.403 . S
O354 C349 1.254 . S
O355 Dy340 2.310 . S
O355 Dy343 2.664 . S
O355 C349 1.268 . S
O356 Dy340 2.351 . S
O356 C359 1.249 . S
O357 Dy343 2.326 . S
O357 C359 1.267 . S
C358 O350 1.249 . S
C358 O351 1.267 . S
C359 O356 1.249 . S
C359 O357 1.267 . S
Dy360 O364 2.398 . S
Dy360 O365 2.491 . S
Dy360 O366 2.403 . S
Dy360 O367 2.664 . S
Dy360 O371 2.326 . S
Dy360 O375 2.310 . S
Dy360 O376 2.351 . S
C361 O372 1.185 . S
C361 O373 1.355 . S
C362 O364 1.185 . S
C362 O365 1.355 . S
Dy363 O367 2.310 . S
Dy363 O370 2.351 . S
Dy363 O372 2.398 . S
Dy363 O373 2.491 . S
Dy363 O374 2.403 . S
Dy363 O375 2.664 . S
Dy363 O377 2.326 . S
O364 Dy360 2.398 . S
O364 C362 1.185 . S
O365 Dy360 2.491 . S
O365 C362 1.355 . S
O366 Dy360 2.403 . S
O366 C368 1.254 . S
O367 Dy360 2.664 . S
O367 Dy363 2.310 . S
O367 C368 1.268 . S
C368 O366 1.254 . S
C368 O367 1.268 . S
C369 O374 1.254 . S
C369 O375 1.268 . S
O370 Dy363 2.351 . S
O370 C378 1.249 . S
O371 Dy360 2.326 . S
O371 C378 1.267 . S
O372 C361 1.185 . S
O372 Dy363 2.398 . S
O373 C361 1.355 . S
O373 Dy363 2.491 . S
O374 Dy363 2.403 . S
O374 C369 1.254 . S
O375 Dy360 2.310 . S
O375 Dy363 2.664 . S
O375 C369 1.268 . S
O376 Dy360 2.351 . S
O376 C379 1.249 . S
O377 Dy363 2.326 . S
O377 C379 1.267 . S
C378 O370 1.249 . S
C378 O371 1.267 . S
C379 O376 1.249 . S
C379 O377 1.267 . S
Dy380 O384 2.398 . S
Dy380 O385 2.491 . S
Dy380 O386 2.403 . S
Dy380 O387 2.664 . S
Dy380 O391 2.326 . S
Dy380 O395 2.310 . S
Dy380 O396 2.351 . S
C381 O392 1.185 . S
C381 O393 1.355 . S
C382 O384 1.185 . S
C382 O385 1.355 . S
Dy383 O387 2.310 . S
Dy383 O390 2.351 . S
Dy383 O392 2.398 . S
Dy383 O393 2.491 . S
Dy383 O394 2.403 . S
Dy383 O395 2.664 . S
Dy383 O397 2.326 . S
O384 Dy380 2.398 . S
O384 C382 1.185 . S
O385 Dy380 2.491 . S
O385 C382 1.355 . S
O386 Dy380 2.403 . S
O386 C388 1.254 . S
O387 Dy380 2.664 . S
O387 Dy383 2.310 . S
O387 C388 1.268 . S
C388 O386 1.254 . S
C388 O387 1.268 . S
C389 O394 1.254 . S
C389 O395 1.268 . S
O390 Dy383 2.351 . S
O390 C398 1.249 . S
O391 Dy380 2.326 . S
O391 C398 1.267 . S
O392 C381 1.185 . S
O392 Dy383 2.398 . S
O393 C381 1.355 . S
O393 Dy383 2.491 . S
O394 Dy383 2.403 . S
O394 C389 1.254 . S
O395 Dy380 2.310 . S
O395 Dy383 2.664 . S
O395 C389 1.268 . S
O396 Dy380 2.351 . S
O396 C399 1.249 . S
O397 Dy383 2.326 . S
O397 C399 1.267 . S
C398 O390 1.249 . S
C398 O391 1.267 . S
C399 O396 1.249 . S
C399 O397 1.267 . S
Dy400 O404 2.398 . S
Dy400 O405 2.491 . S
Dy400 O406 2.403 . S
Dy400 O407 2.664 . S
Dy400 O411 2.326 . S
Dy400 O415 2.310 . S
Dy400 O416 2.351 . S
C401 O412 1.185 . S
C401 O413 1.355 . S
C402 O404 1.185 . S
C402 O405 1.355 . S
Dy403 O407 2.310 . S
Dy403 O410 2.351 . S
Dy403 O412 2.398 . S
Dy403 O413 2.491 . S
Dy403 O414 2.403 . S
Dy403 O415 2.664 . S
Dy403 O417 2.326 . S
O404 Dy400 2.398 . S
O404 C402 1.185 . S
O405 Dy400 2.491 . S
O405 C402 1.355 . S
O406 Dy400 2.403 . S
O406 C408 1.254 . S
O407 Dy400 2.664 . S
O407 Dy403 2.310 . S
O407 C408 1.268 . S
C408 O406 1.254 . S
C408 O407 1.268 . S
C409 O414 1.254 . S
C409 O415 1.268 . S
O410 Dy403 2.351 . S
O410 C418 1.249 . S
O411 Dy400 2.326 . S
O411 C418 1.267 . S
O412 C401 1.185 . S
O412 Dy403 2.398 . S
O413 C401 1.355 . S
O413 Dy403 2.491 . S
O414 Dy403 2.403 . S
O414 C409 1.254 . S
O415 Dy400 2.310 . S
O415 Dy403 2.664 . S
O415 C409 1.268 . S
O416 Dy400 2.351 . S
O416 C419 1.249 . S
O417 Dy403 2.326 . S
O417 C419 1.267 . S
C418 O410 1.249 . S
C418 O411 1.267 . S
C419 O416 1.249 . S
C419 O417 1.267 . S
Dy420 O424 2.398 . S
Dy420 O425 2.491 . S
Dy420 O426 2.403 . S
Dy420 O427 2.664 . S
Dy420 O431 2.326 . S
Dy420 O435 2.310 . S
Dy420 O436 2.351 . S
C421 O432 1.185 . S
C421 O433 1.355 . S
C422 O424 1.185 . S
C422 O425 1.355 . S
Dy423 O427 2.310 . S
Dy423 O430 2.351 . S
Dy423 O432 2.398 . S
Dy423 O433 2.491 . S
Dy423 O434 2.403 . S
Dy423 O435 2.664 . S
Dy423 O437 2.326 . S
O424 Dy420 2.398 . S
O424 C422 1.185 . S
O425 Dy420 2.491 . S
O425 C422 1.355 . S
O426 Dy420 2.403 . S
O426 C428 1.254 . S
O427 Dy420 2.664 . S
O427 Dy423 2.310 . S
O427 C428 1.268 . S
C428 O426 1.254 . S
C428 O427 1.268 . S
C429 O434 1.254 . S
C429 O435 1.268 . S
O430 Dy423 2.351 . S
O430 C438 1.249 . S
O431 Dy420 2.326 . S
O431 C438 1.267 . S
O432 C421 1.185 . S
O432 Dy423 2.398 . S
O433 C421 1.355 . S
O433 Dy423 2.491 . S
O434 Dy423 2.403 . S
O434 C429 1.254 . S
O435 Dy420 2.310 . S
O435 Dy423 2.664 . S
O435 C429 1.268 . S
O436 Dy420 2.351 . S
O436 C439 1.249 . S
O437 Dy423 2.326 . S
O437 C439 1.267 . S
C438 O430 1.249 . S
C438 O431 1.267 . S
C439 O436 1.249 . S
C439 O437 1.267 . S
Dy440 O444 2.398 . S
Dy440 O445 2.491 . S
Dy440 O446 2.403 . S
Dy440 O447 2.664 . S
Dy440 O451 2.326 . S
Dy440 O455 2.310 . S
Dy440 O456 2.351 . S
C441 O452 1.185 . S
C441 O453 1.355 . S
C442 O444 1.185 . S
C442 O445 1.355 . S
Dy443 O447 2.310 . S
Dy443 O450 2.351 . S
Dy443 O452 2.398 . S
Dy443 O453 2.491 . S
Dy443 O454 2.403 . S
Dy443 O455 2.664 . S
Dy443 O457 2.326 . S
O444 Dy440 2.398 . S
O444 C442 1.185 . S
O445 Dy440 2.491 . S
O445 C442 1.355 . S
O446 Dy440 2.403 . S
O446 C448 1.254 . S
O447 Dy440 2.664 . S
O447 Dy443 2.310 . S
O447 C448 1.268 . S
C448 O446 1.254 . S
C448 O447 1.268 . S
C449 O454 1.254 . S
C449 O455 1.268 . S
O450 Dy443 2.351 . S
O450 C458 1.249 . S
O451 Dy440 2.326 . S
O451 C458 1.267 . S
O452 C441 1.185 . S
O452 Dy443 2.398 . S
O453 C441 1.355 . S
O453 Dy443 2.491 . S
O454 Dy443 2.403 . S
O454 C449 1.254 . S
O455 Dy440 2.310 . S
O455 Dy443 2.664 . S
O455 C449 1.268 . S
O456 Dy440 2.351 . S
O456 C459 1.249 . S
O457 Dy443 2.326 . S
O457 C459 1.267 . S
C458 O450 1.249 . S
C458 O451 1.267 . S
C459 O456 1.249 . S
C459 O457 1.267 . S
Dy460 O464 2.398 . S
Dy460 O465 2.491 . S
Dy460 O466 2.403 . S
Dy460 O467 2.664 . S
Dy460 O471 2.326 . S
Dy460 O475 2.310 . S
Dy460 O476 2.351 . S
C461 O472 1.185 . S
C461 O473 1.355 . S
C462 O464 1.185 . S
C462 O465 1.355 . S
Dy463 O467 2.310 . S
Dy463 O470 2.351 . S
Dy463 O472 2.398 . S
Dy463 O473 2.491 . S
Dy463 O474 2.403 . S
Dy463 O475 2.664 . S
Dy463 O477 2.326 . S
O464 Dy460 2.398 . S
O464 C462 1.185 . S
O465 Dy460 2.491 . S
O465 C462 1.355 . S
O466 Dy460 2.403 . S
O466 C468 1.254 . S
O467 Dy460 2.664 . S
O467 Dy463 2.310 . S
O467 C468 1.268 . S
C468 O466 1.254 . S
C468 O467 1.268 . S
C469 O474 1.254 . S
C469 O475 1.268 . S
O470 Dy463 2.351 . S
O470 C478 1.249 . S
O471 Dy460 2.326 . S
O471 C478 1.267 . S
O472 C461 1.185 . S
O472 Dy463 2.398 . S
O473 C461 1.355 . S
O473 Dy463 2.491 . S
O474 Dy463 2.403 . S
O474 C469 1.254 . S
O475 Dy460 2.310 . S
O475 Dy463 2.664 . S
O475 C469 1.268 . S
O476 Dy460 2.351 . S
O476 C479 1.249 . S
O477 Dy463 2.326 . S
O477 C479 1.267 . S
C478 O470 1.249 . S
C478 O471 1.267 . S
C479 O476 1.249 . S
C479 O477 1.267 . S
Dy480 O484 2.398 . S
Dy480 O485 2.491 1_545 S
Dy480 O486 2.403 . S
Dy480 O487 2.664 1_545 S
Dy480 O491 2.326 1_545 S
Dy480 O495 2.310 1_545 S
Dy480 O496 2.351 . S
C481 O492 1.185 1_545 S
C481 O493 1.355 . S
C482 O484 1.185 1_565 S
C482 O485 1.355 . S
Dy483 O487 2.310 . S
Dy483 O490 2.351 . S
Dy483 O492 2.398 . S
Dy483 O493 2.491 1_565 S
Dy483 O494 2.403 . S
Dy483 O495 2.664 . S
Dy483 O497 2.326 1_565 S
O484 Dy480 2.398 . S
O484 C482 1.185 1_545 S
O485 Dy480 2.491 1_565 S
O485 C482 1.355 . S
O486 Dy480 2.403 . S
O486 C488 1.264 . S
O487 Dy480 2.664 1_565 S
O487 Dy483 2.310 . S
O487 C488 1.265 1_565 S
C488 O486 1.264 . S
C488 O487 1.265 1_545 S
C489 O494 1.254 . S
C489 O495 1.268 . S
O490 Dy483 2.351 . S
O490 C498 1.249 . S
O491 Dy480 2.326 1_565 S
O491 C498 1.267 . S
O492 C481 1.185 1_565 S
O492 Dy483 2.398 . S
O493 C481 1.355 . S
O493 Dy483 2.491 1_545 S
O494 Dy483 2.403 . S
O494 C489 1.254 . S
O495 Dy480 2.310 1_565 S
O495 Dy483 2.664 . S
O495 C489 1.268 . S
O496 Dy480 2.351 . S
O496 C499 1.249 . S
O497 Dy483 2.326 1_545 S
O497 C499 1.267 . S
C498 O490 1.249 . S
C498 O491 1.267 . S
C499 O496 1.249 . S
C499 O497 1.267 . S
Dy500 O504 2.398 . S
Dy500 O505 2.491 . S
Dy500 O506 2.403 . S
Dy500 O507 2.664 . S
Dy500 O511 2.326 . S
Dy500 O515 2.310 . S
Dy500 O516 2.351 . S
C501 O512 1.185 . S
C501 O513 1.355 . S
C502 O504 1.185 . S
C502 O505 1.355 . S
Dy503 O507 2.310 . S
Dy503 O510 2.351 . S
Dy503 O512 2.398 . S
Dy503 O513 2.491 . S
Dy503 O514 2.403 . S
Dy503 O515 2.664 . S
Dy503 O517 2.326 . S
O504 Dy500 2.398 . S
O504 C502 1.185 . S
O505 Dy500 2.491 . S
O505 C502 1.355 . S
O506 Dy500 2.403 . S
O506 C508 1.254 . S
O507 Dy500 2.664 . S
O507 Dy503 2.310 . S
O507 C508 1.268 . S
C508 O506 1.254 . S
C508 O507 1.268 . S
C509 O514 1.254 . S
C509 O515 1.268 . S
O510 Dy503 2.351 . S
O510 C518 1.249 . S
O511 Dy500 2.326 . S
O511 C518 1.267 . S
O512 C501 1.185 . S
O512 Dy503 2.398 . S
O513 C501 1.355 . S
O513 Dy503 2.491 . S
O514 Dy503 2.403 . S
O514 C509 1.254 . S
O515 Dy500 2.310 . S
O515 Dy503 2.664 . S
O515 C509 1.268 . S
O516 Dy500 2.351 . S
O516 C519 1.249 . S
O517 Dy503 2.326 . S
O517 C519 1.267 . S
C518 O510 1.249 . S
C518 O511 1.267 . S
C519 O516 1.249 . S
C519 O517 1.267 . S
Dy520 O524 2.398 . S
Dy520 O525 2.491 . S
Dy520 O526 2.403 . S
Dy520 O527 2.664 . S
Dy520 O531 2.326 . S
Dy520 O535 2.310 . S
Dy520 O536 2.351 . S
C521 O532 1.185 . S
C521 O533 1.355 . S
C522 O524 1.185 . S
C522 O525 1.355 . S
Dy523 O527 2.310 . S
Dy523 O530 2.351 . S
Dy523 O532 2.398 . S
Dy523 O533 2.491 . S
Dy523 O534 2.403 . S
Dy523 O535 2.664 . S
Dy523 O537 2.326 . S
O524 Dy520 2.398 . S
O524 C522 1.185 . S
O525 Dy520 2.491 . S
O525 C522 1.355 . S
O526 Dy520 2.403 . S
O526 C528 1.254 . S
O527 Dy520 2.664 . S
O527 Dy523 2.310 . S
O527 C528 1.268 . S
C528 O526 1.254 . S
C528 O527 1.268 . S
C529 O534 1.254 . S
C529 O535 1.268 . S
O530 Dy523 2.351 . S
O530 C538 1.249 . S
O531 Dy520 2.326 . S
O531 C538 1.267 . S
O532 C521 1.185 . S
O532 Dy523 2.398 . S
O533 C521 1.355 . S
O533 Dy523 2.491 . S
O534 Dy523 2.403 . S
O534 C529 1.254 . S
O535 Dy520 2.310 . S
O535 Dy523 2.664 . S
O535 C529 1.268 . S
O536 Dy520 2.351 . S
O536 C539 1.249 . S
O537 Dy523 2.326 . S
O537 C539 1.267 . S
C538 O530 1.249 . S
C538 O531 1.267 . S
C539 O536 1.249 . S
C539 O537 1.267 . S
Dy540 O544 2.398 . S
Dy540 O545 2.491 1_545 S
Dy540 O546 2.403 . S
Dy540 O547 2.664 1_545 S
Dy540 O551 2.326 1_545 S
Dy540 O555 2.310 1_545 S
Dy540 O556 2.351 . S
C541 O552 1.185 1_545 S
C541 O553 1.355 . S
C542 O544 1.185 1_565 S
C542 O545 1.355 . S
Dy543 O547 2.310 . S
Dy543 O550 2.351 . S
Dy543 O552 2.398 . S
Dy543 O553 2.491 1_565 S
Dy543 O554 2.403 . S
Dy543 O555 2.664 . S
Dy543 O557 2.326 1_565 S
O544 Dy540 2.398 . S
O544 C542 1.185 1_545 S
O545 Dy540 2.491 1_565 S
O545 C542 1.355 . S
O546 Dy540 2.403 . S
O546 C548 1.264 . S
O547 Dy540 2.664 1_565 S
O547 Dy543 2.310 . S
O547 C548 1.265 1_565 S
C548 O546 1.264 . S
C548 O547 1.265 1_545 S
C549 O554 1.254 . S
C549 O555 1.268 . S
O550 Dy543 2.351 . S
O550 C558 1.249 . S
O551 Dy540 2.326 1_565 S
O551 C558 1.267 . S
O552 C541 1.185 1_565 S
O552 Dy543 2.398 . S
O553 C541 1.355 . S
O553 Dy543 2.491 1_545 S
O554 Dy543 2.403 . S
O554 C549 1.254 . S
O555 Dy540 2.310 1_565 S
O555 Dy543 2.664 . S
O555 C549 1.268 . S
O556 Dy540 2.351 . S
O556 C559 1.249 . S
O557 Dy543 2.326 1_545 S
O557 C559 1.267 . S
C558 O550 1.249 . S
C558 O551 1.267 . S
C559 O556 1.249 . S
C559 O557 1.267 . S
Dy560 O564 2.398 . S
Dy560 O565 2.491 1_545 S
Dy560 O566 2.403 . S
Dy560 O567 2.664 . S
Dy560 O571 2.326 1_545 S
Dy560 O575 2.310 . S
Dy560 O576 2.351 . S
C561 O572 1.185 1_545 S
C561 O573 1.355 . S
C562 O564 1.185 1_565 S
C562 O565 1.355 . S
Dy563 O567 2.310 1_565 S
Dy563 O570 2.351 . S
Dy563 O572 2.398 . S
Dy563 O573 2.491 1_565 S
Dy563 O574 2.403 . S
Dy563 O575 2.664 1_565 S
Dy563 O577 2.326 1_565 S
O564 Dy560 2.398 . S
O564 C562 1.185 1_545 S
O565 Dy560 2.491 1_565 S
O565 C562 1.355 . S
O566 Dy560 2.403 . S
O566 C568 1.254 . S
O567 Dy560 2.664 . S
O567 Dy563 2.310 1_545 S
O567 C568 1.268 . S
C568 O566 1.254 . S
C568 O567 1.268 . S
C569 O574 1.264 . S
C569 O575 1.265 1_565 S
O570 Dy563 2.351 . S
O570 C578 1.249 . S
O571 Dy560 2.326 1_565 S
O571 C578 1.267 . S
O572 C561 1.185 1_565 S
O572 Dy563 2.398 . S
O573 C561 1.355 . S
O573 Dy563 2.491 1_545 S
O574 Dy563 2.403 . S
O574 C569 1.264 . S
O575 Dy560 2.310 . S
O575 Dy563 2.664 1_545 S
O575 C569 1.265 1_545 S
O576 Dy560 2.351 . S
O576 C579 1.249 . S
O577 Dy563 2.326 1_545 S
O577 C579 1.267 . S
C578 O570 1.249 . S
C578 O571 1.267 . S
C579 O576 1.249 . S
C579 O577 1.267 . S
Dy580 O584 2.398 . S
Dy580 O585 2.491 . S
Dy580 O586 2.403 . S
Dy580 O587 2.664 . S
Dy580 O591 2.326 . S
Dy580 O595 2.310 . S
Dy580 O596 2.351 . S
C581 O592 1.185 . S
C581 O593 1.355 . S
C582 O584 1.185 . S
C582 O585 1.355 . S
Dy583 O587 2.310 . S
Dy583 O590 2.351 . S
Dy583 O592 2.398 . S
Dy583 O593 2.491 . S
Dy583 O594 2.403 . S
Dy583 O595 2.664 . S
Dy583 O597 2.326 . S
O584 Dy580 2.398 . S
O584 C582 1.185 . S
O585 Dy580 2.491 . S
O585 C582 1.355 . S
O586 Dy580 2.403 . S
O586 C588 1.254 . S
O587 Dy580 2.664 . S
O587 Dy583 2.310 . S
O587 C588 1.268 . S
C588 O586 1.254 . S
C588 O587 1.268 . S
C589 O594 1.254 . S
C589 O595 1.268 . S
O590 Dy583 2.351 . S
O590 C598 1.249 . S
O591 Dy580 2.326 . S
O591 C598 1.267 . S
O592 C581 1.185 . S
O592 Dy583 2.398 . S
O593 C581 1.355 . S
O593 Dy583 2.491 . S
O594 Dy583 2.403 . S
O594 C589 1.254 . S
O595 Dy580 2.310 . S
O595 Dy583 2.664 . S
O595 C589 1.268 . S
O596 Dy580 2.351 . S
O596 C599 1.249 . S
O597 Dy583 2.326 . S
O597 C599 1.267 . S
C598 O590 1.249 . S
C598 O591 1.267 . S
C599 O596 1.249 . S
C599 O597 1.267 . S
Dy600 O604 2.398 . S
Dy600 O605 2.491 . S
Dy600 O606 2.403 . S
Dy600 O607 2.664 . S
Dy600 O611 2.326 . S
Dy600 O615 2.310 . S
Dy600 O616 2.351 . S
C601 O612 1.185 . S
C601 O613 1.355 . S
C602 O604 1.185 . S
C602 O605 1.355 . S
Dy603 O607 2.310 . S
Dy603 O610 2.351 . S
Dy603 O612 2.398 . S
Dy603 O613 2.491 . S
Dy603 O614 2.403 . S
Dy603 O615 2.664 . S
Dy603 O617 2.326 . S
O604 Dy600 2.398 . S
O604 C602 1.185 . S
O605 Dy600 2.491 . S
O605 C602 1.355 . S
O606 Dy600 2.403 . S
O606 C608 1.254 . S
O607 Dy600 2.664 . S
O607 Dy603 2.310 . S
O607 C608 1.268 . S
C608 O606 1.254 . S
C608 O607 1.268 . S
C609 O614 1.254 . S
C609 O615 1.268 . S
O610 Dy603 2.351 . S
O610 C618 1.249 . S
O611 Dy600 2.326 . S
O611 C618 1.267 . S
O612 C601 1.185 . S
O612 Dy603 2.398 . S
O613 C601 1.355 . S
O613 Dy603 2.491 . S
O614 Dy603 2.403 . S
O614 C609 1.254 . S
O615 Dy600 2.310 . S
O615 Dy603 2.664 . S
O615 C609 1.268 . S
O616 Dy600 2.351 . S
O616 C619 1.249 . S
O617 Dy603 2.326 . S
O617 C619 1.267 . S
C618 O610 1.249 . S
C618 O611 1.267 . S
C619 O616 1.249 . S
C619 O617 1.267 . S
Dy620 O624 2.398 . S
Dy620 O625 2.491 1_545 S
Dy620 O626 2.403 . S
Dy620 O627 2.664 . S
Dy620 O631 2.326 1_545 S
Dy620 O635 2.310 . S
Dy620 O636 2.351 . S
C621 O632 1.185 1_545 S
C621 O633 1.355 . S
C622 O624 1.185 1_565 S
C622 O625 1.355 . S
Dy623 O627 2.310 1_565 S
Dy623 O630 2.351 . S
Dy623 O632 2.398 . S
Dy623 O633 2.491 1_565 S
Dy623 O634 2.403 . S
Dy623 O635 2.664 1_565 S
Dy623 O637 2.326 1_565 S
O624 Dy620 2.398 . S
O624 C622 1.185 1_545 S
O625 Dy620 2.491 1_565 S
O625 C622 1.355 . S
O626 Dy620 2.403 . S
O626 C628 1.254 . S
O627 Dy620 2.664 . S
O627 Dy623 2.310 1_545 S
O627 C628 1.268 . S
C628 O626 1.254 . S
C628 O627 1.268 . S
C629 O634 1.264 . S
C629 O635 1.265 1_565 S
O630 Dy623 2.351 . S
O630 C638 1.249 . S
O631 Dy620 2.326 1_565 S
O631 C638 1.267 . S
O632 C621 1.185 1_565 S
O632 Dy623 2.398 . S
O633 C621 1.355 . S
O633 Dy623 2.491 1_545 S
O634 Dy623 2.403 . S
O634 C629 1.264 . S
O635 Dy620 2.310 . S
O635 Dy623 2.664 1_545 S
O635 C629 1.265 1_545 S
O636 Dy620 2.351 . S
O636 C639 1.249 . S
O637 Dy623 2.326 1_545 S
O637 C639 1.267 . S
C638 O630 1.249 . S
C638 O631 1.267 . S
C639 O636 1.249 . S
C639 O637 1.267 . S
H640 C646 0.930 . S
H641 C649 0.930 . S
H642 C650 0.930 . S
H643 C651 0.930 . S
H644 C654 0.930 . S
H645 C655 0.930 . S
C646 H640 0.930 . S
C646 C647 1.355 . S
C646 C648 1.415 . S
C647 C646 1.355 . S
C647 C649 1.419 . S
C648 C646 1.415 . S
C648 C653 1.425 . S
C648 C655 1.409 . S
C649 H641 0.930 . S
C649 C647 1.419 . S
C649 C650 1.362 . S
C650 H642 0.930 . S
C650 C649 1.362 . S
C650 C653 1.409 . S
C651 H643 0.930 . S
C651 C652 1.355 . S
C651 C653 1.415 . S
C652 C651 1.355 . S
C652 C654 1.419 . S
C653 C648 1.425 . S
C653 C650 1.409 . S
C653 C651 1.415 . S
C654 H644 0.930 . S
C654 C652 1.419 . S
C654 C655 1.362 . S
C655 H645 0.930 . S
C655 C648 1.409 . S
C655 C654 1.362 . S
H656 C662 0.930 . S
H657 C665 0.930 . S
H658 C666 0.930 . S
H659 C667 0.930 . S
H660 C670 0.930 . S
H661 C671 0.930 . S
C662 H656 0.930 . S
C662 C663 1.355 . S
C662 C664 1.415 . S
C663 C662 1.355 . S
C663 C665 1.419 . S
C664 C662 1.415 . S
C664 C669 1.425 . S
C664 C671 1.409 . S
C665 H657 0.930 . S
C665 C663 1.419 . S
C665 C666 1.362 . S
C666 H658 0.930 . S
C666 C665 1.362 . S
C666 C669 1.409 . S
C667 H659 0.930 . S
C667 C668 1.355 . S
C667 C669 1.415 . S
C668 C667 1.355 . S
C668 C670 1.419 . S
C669 C664 1.425 . S
C669 C666 1.409 . S
C669 C667 1.415 . S
C670 H660 0.930 . S
C670 C668 1.419 . S
C670 C671 1.362 . S
C671 H661 0.930 . S
C671 C664 1.409 . S
C671 C670 1.362 . S
H672 C678 0.930 . S
H673 C681 0.930 . S
H674 C682 0.930 . S
H675 C683 0.930 . S
H676 C686 0.930 . S
H677 C687 0.930 . S
C678 H672 0.930 . S
C678 C679 1.355 . S
C678 C680 1.415 . S
C679 C678 1.355 . S
C679 C681 1.419 . S
C680 C678 1.415 . S
C680 C685 1.425 . S
C680 C687 1.409 . S
C681 H673 0.930 . S
C681 C679 1.419 . S
C681 C682 1.362 . S
C682 H674 0.930 . S
C682 C681 1.362 . S
C682 C685 1.409 . S
C683 H675 0.930 . S
C683 C684 1.355 . S
C683 C685 1.415 . S
C684 C683 1.355 . S
C684 C686 1.419 . S
C685 C680 1.425 . S
C685 C682 1.409 . S
C685 C683 1.415 . S
C686 H676 0.930 . S
C686 C684 1.419 . S
C686 C687 1.362 . S
C687 H677 0.930 . S
C687 C680 1.409 . S
C687 C686 1.362 . S
H688 C694 0.930 . S
H689 C697 0.930 . S
H690 C698 0.930 . S
H691 C699 0.930 . S
H692 C702 0.930 . S
H693 C703 0.930 . S
C694 H688 0.930 . S
C694 C695 1.355 . S
C694 C696 1.415 . S
C695 C694 1.355 . S
C695 C697 1.419 . S
C696 C694 1.415 . S
C696 C701 1.425 . S
C696 C703 1.409 . S
C697 H689 0.930 . S
C697 C695 1.419 . S
C697 C698 1.362 . S
C698 H690 0.930 . S
C698 C697 1.362 . S
C698 C701 1.409 . S
C699 H691 0.930 . S
C699 C700 1.355 . S
C699 C701 1.415 . S
C700 C699 1.355 . S
C700 C702 1.419 . S
C701 C696 1.425 . S
C701 C698 1.409 . S
C701 C699 1.415 . S
C702 H692 0.930 . S
C702 C700 1.419 . S
C702 C703 1.362 . S
C703 H693 0.930 . S
C703 C696 1.409 . S
C703 C702 1.362 . S
H704 C710 0.930 . S
H705 C713 0.930 . S
H706 C714 0.930 . S
H707 C715 0.930 . S
H708 C718 0.930 . S
H709 C719 0.930 . S
C710 H704 0.930 . S
C710 C711 1.355 . S
C710 C712 1.415 . S
C711 C710 1.355 . S
C711 C713 1.419 . S
C712 C710 1.415 . S
C712 C717 1.425 . S
C712 C719 1.409 . S
C713 H705 0.930 . S
C713 C711 1.419 . S
C713 C714 1.362 . S
C714 H706 0.930 . S
C714 C713 1.362 . S
C714 C717 1.409 . S
C715 H707 0.930 . S
C715 C716 1.355 . S
C715 C717 1.415 . S
C716 C715 1.355 . S
C716 C718 1.419 . S
C717 C712 1.425 . S
C717 C714 1.409 . S
C717 C715 1.415 . S
C718 H708 0.930 . S
C718 C716 1.419 . S
C718 C719 1.362 . S
C719 H709 0.930 . S
C719 C712 1.409 . S
C719 C718 1.362 . S
H720 C726 0.930 . S
H721 C729 0.930 . S
H722 C730 0.930 . S
H723 C731 0.930 . S
H724 C734 0.930 . S
H725 C735 0.930 . S
C726 H720 0.930 . S
C726 C727 1.355 . S
C726 C728 1.415 . S
C727 C726 1.355 . S
C727 C729 1.419 . S
C728 C726 1.415 . S
C728 C733 1.425 . S
C728 C735 1.409 . S
C729 H721 0.930 . S
C729 C727 1.419 . S
C729 C730 1.362 . S
C730 H722 0.930 . S
C730 C729 1.362 . S
C730 C733 1.409 . S
C731 H723 0.930 . S
C731 C732 1.355 . S
C731 C733 1.415 . S
C732 C731 1.355 . S
C732 C734 1.419 . S
C733 C728 1.425 . S
C733 C730 1.409 . S
C733 C731 1.415 . S
C734 H724 0.930 . S
C734 C732 1.419 . S
C734 C735 1.362 . S
C735 H725 0.930 . S
C735 C728 1.409 . S
C735 C734 1.362 . S
H736 C742 0.930 . S
H737 C745 0.930 . S
H738 C746 0.930 . S
H739 C747 0.930 . S
H740 C750 0.930 . S
H741 C751 0.930 . S
C742 H736 0.930 . S
C742 C743 1.355 . S
C742 C744 1.415 . S
C743 C742 1.355 . S
C743 C745 1.419 . S
C744 C742 1.415 . S
C744 C749 1.425 . S
C744 C751 1.409 . S
C745 H737 0.930 . S
C745 C743 1.419 . S
C745 C746 1.362 . S
C746 H738 0.930 . S
C746 C745 1.362 . S
C746 C749 1.409 . S
C747 H739 0.930 . S
C747 C748 1.355 . S
C747 C749 1.415 . S
C748 C747 1.355 . S
C748 C750 1.419 . S
C749 C744 1.425 . S
C749 C746 1.409 . S
C749 C747 1.415 . S
C750 H740 0.930 . S
C750 C748 1.419 . S
C750 C751 1.362 . S
C751 H741 0.930 . S
C751 C744 1.409 . S
C751 C750 1.362 . S
H752 C758 0.930 . S
H753 C761 0.930 . S
H754 C762 0.930 . S
H755 C763 0.930 . S
H756 C766 0.930 . S
H757 C767 0.930 . S
C758 H752 0.930 . S
C758 C759 1.355 . S
C758 C760 1.415 . S
C759 C758 1.355 . S
C759 C761 1.419 . S
C760 C758 1.415 . S
C760 C765 1.425 . S
C760 C767 1.409 . S
C761 H753 0.930 . S
C761 C759 1.419 . S
C761 C762 1.362 . S
C762 H754 0.930 . S
C762 C761 1.362 . S
C762 C765 1.409 . S
C763 H755 0.930 . S
C763 C764 1.355 . S
C763 C765 1.415 . S
C764 C763 1.355 . S
C764 C766 1.419 . S
C765 C760 1.425 . S
C765 C762 1.409 . S
C765 C763 1.415 . S
C766 H756 0.930 . S
C766 C764 1.419 . S
C766 C767 1.362 . S
C767 H757 0.930 . S
C767 C760 1.409 . S
C767 C766 1.362 . S
H768 C774 0.930 . S
H769 C777 0.930 1_455 S
H770 C778 0.930 1_455 S
H771 C779 0.930 . S
H772 C782 0.930 . S
H773 C783 0.930 . S
C774 H768 0.930 . S
C774 C775 1.355 . S
C774 C776 1.415 . S
C775 C774 1.355 . S
C775 C777 1.419 . S
C776 C774 1.415 . S
C776 C781 1.425 . S
C776 C783 1.409 . S
C777 H769 0.930 1_655 S
C777 C775 1.419 . S
C777 C778 1.362 . S
C778 H770 0.930 1_655 S
C778 C777 1.362 . S
C778 C781 1.409 . S
C779 H771 0.930 . S
C779 C780 1.355 . S
C779 C781 1.415 . S
C780 C779 1.355 . S
C780 C782 1.419 . S
C781 C776 1.425 . S
C781 C778 1.409 . S
C781 C779 1.415 . S
C782 H772 0.930 . S
C782 C780 1.419 . S
C782 C783 1.362 . S
C783 H773 0.930 . S
C783 C776 1.409 . S
C783 C782 1.362 . S
H784 C790 0.930 . S
H785 C793 0.930 . S
H786 C794 0.930 . S
H787 C795 0.930 . S
H788 C798 0.930 . S
H789 C799 0.930 . S
C790 H784 0.930 . S
C790 C791 1.355 . S
C790 C792 1.415 . S
C791 C790 1.355 . S
C791 C793 1.419 . S
C792 C790 1.415 . S
C792 C797 1.425 . S
C792 C799 1.409 . S
C793 H785 0.930 . S
C793 C791 1.419 . S
C793 C794 1.362 . S
C794 H786 0.930 . S
C794 C793 1.362 . S
C794 C797 1.409 . S
C795 H787 0.930 . S
C795 C796 1.355 . S
C795 C797 1.415 . S
C796 C795 1.355 . S
C796 C798 1.419 . S
C797 C792 1.425 . S
C797 C794 1.409 . S
C797 C795 1.415 . S
C798 H788 0.930 . S
C798 C796 1.419 . S
C798 C799 1.362 . S
C799 H789 0.930 . S
C799 C792 1.409 . S
C799 C798 1.362 . S
H800 C806 0.930 . S
H801 C809 0.930 1_455 S
H802 C810 0.930 1_455 S
H803 C811 0.930 . S
H804 C814 0.930 . S
H805 C815 0.930 . S
C806 H800 0.930 . S
C806 C807 1.355 . S
C806 C808 1.415 . S
C807 C806 1.355 . S
C807 C809 1.419 . S
C808 C806 1.415 . S
C808 C813 1.425 . S
C808 C815 1.409 . S
C809 H801 0.930 1_655 S
C809 C807 1.419 . S
C809 C810 1.362 . S
C810 H802 0.930 1_655 S
C810 C809 1.362 . S
C810 C813 1.409 . S
C811 H803 0.930 . S
C811 C812 1.355 . S
C811 C813 1.415 . S
C812 C811 1.355 . S
C812 C814 1.419 . S
C813 C808 1.425 . S
C813 C810 1.409 . S
C813 C811 1.415 . S
C814 H804 0.930 . S
C814 C812 1.419 . S
C814 C815 1.362 . S
C815 H805 0.930 . S
C815 C808 1.409 . S
C815 C814 1.362 . S
H816 C822 0.930 . S
H817 C825 0.930 . S
H818 C826 0.930 . S
H819 C827 0.930 . S
H820 C830 0.930 . S
H821 C831 0.930 . S
C822 H816 0.930 . S
C822 C823 1.355 . S
C822 C824 1.415 . S
C823 C822 1.355 . S
C823 C825 1.419 . S
C824 C822 1.415 . S
C824 C829 1.425 . S
C824 C831 1.409 . S
C825 H817 0.930 . S
C825 C823 1.419 . S
C825 C826 1.362 . S
C826 H818 0.930 . S
C826 C825 1.362 . S
C826 C829 1.409 . S
C827 H819 0.930 . S
C827 C828 1.355 . S
C827 C829 1.415 . S
C828 C827 1.355 . S
C828 C830 1.419 . S
C829 C824 1.425 . S
C829 C826 1.409 . S
C829 C827 1.415 . S
C830 H820 0.930 . S
C830 C828 1.419 . S
C830 C831 1.362 . S
C831 H821 0.930 . S
C831 C824 1.409 . S
C831 C830 1.362 . S
H832 C838 0.930 . S
H833 C841 0.930 . S
H834 C842 0.930 . S
H835 C843 0.930 . S
H836 C846 0.930 . S
H837 C847 0.930 . S
C838 H832 0.930 . S
C838 C839 1.355 . S
C838 C840 1.415 . S
C839 C838 1.355 . S
C839 C841 1.419 . S
C840 C838 1.415 . S
C840 C845 1.425 . S
C840 C847 1.409 . S
C841 H833 0.930 . S
C841 C839 1.419 . S
C841 C842 1.362 . S
C842 H834 0.930 . S
C842 C841 1.362 . S
C842 C845 1.409 . S
C843 H835 0.930 . S
C843 C844 1.355 . S
C843 C845 1.415 . S
C844 C843 1.355 . S
C844 C846 1.419 . S
C845 C840 1.425 . S
C845 C842 1.409 . S
C845 C843 1.415 . S
C846 H836 0.930 . S
C846 C844 1.419 . S
C846 C847 1.362 . S
C847 H837 0.930 . S
C847 C840 1.409 . S
C847 C846 1.362 . S
H848 C854 0.930 . S
H849 C857 0.930 . S
H850 C858 0.930 . S
H851 C859 0.930 . S
H852 C862 0.930 . S
H853 C863 0.930 . S
C854 H848 0.930 . S
C854 C855 1.355 . S
C854 C856 1.415 . S
C855 C854 1.355 . S
C855 C857 1.419 . S
C856 C854 1.415 . S
C856 C861 1.425 . S
C856 C863 1.409 . S
C857 H849 0.930 . S
C857 C855 1.419 . S
C857 C858 1.362 . S
C858 H850 0.930 . S
C858 C857 1.362 . S
C858 C861 1.409 . S
C859 H851 0.930 . S
C859 C860 1.355 . S
C859 C861 1.415 . S
C860 C859 1.355 . S
C860 C862 1.419 . S
C861 C856 1.425 . S
C861 C858 1.409 . S
C861 C859 1.415 . S
C862 H852 0.930 . S
C862 C860 1.419 . S
C862 C863 1.362 . S
C863 H853 0.930 . S
C863 C856 1.409 . S
C863 C862 1.362 . S
H864 C870 0.930 . S
H865 C873 0.930 . S
H866 C874 0.930 . S
H867 C875 0.930 . S
H868 C878 0.930 . S
H869 C879 0.930 . S
C870 H864 0.930 . S
C870 C871 1.355 . S
C870 C872 1.415 . S
C871 C870 1.355 . S
C871 C873 1.419 . S
C872 C870 1.415 . S
C872 C877 1.425 . S
C872 C879 1.409 . S
C873 H865 0.930 . S
C873 C871 1.419 . S
C873 C874 1.362 . S
C874 H866 0.930 . S
C874 C873 1.362 . S
C874 C877 1.409 . S
C875 H867 0.930 . S
C875 C876 1.355 . S
C875 C877 1.415 . S
C876 C875 1.355 . S
C876 C878 1.419 . S
C877 C872 1.425 . S
C877 C874 1.409 . S
C877 C875 1.415 . S
C878 H868 0.930 . S
C878 C876 1.419 . S
C878 C879 1.362 . S
C879 H869 0.930 . S
C879 C872 1.409 . S
C879 C878 1.362 . S
H880 C886 0.930 . S
H881 C889 0.930 . S
H882 C890 0.930 . S
H883 C891 0.930 . S
H884 C894 0.930 . S
H885 C895 0.930 . S
C886 H880 0.930 . S
C886 C887 1.355 . S
C886 C888 1.415 . S
C887 C886 1.355 . S
C887 C889 1.419 . S
C888 C886 1.415 . S
C888 C893 1.425 . S
C888 C895 1.409 . S
C889 H881 0.930 . S
C889 C887 1.419 . S
C889 C890 1.362 . S
C890 H882 0.930 . S
C890 C889 1.362 . S
C890 C893 1.409 . S
C891 H883 0.930 . S
C891 C892 1.355 . S
C891 C893 1.415 . S
C892 C891 1.355 . S
C892 C894 1.419 . S
C893 C888 1.425 . S
C893 C890 1.409 . S
C893 C891 1.415 . S
C894 H884 0.930 . S
C894 C892 1.419 . S
C894 C895 1.362 . S
C895 H885 0.930 . S
C895 C888 1.409 . S
C895 C894 1.362 . S
H896 C902 0.930 . S
H897 C905 0.930 . S
H898 C906 0.930 . S
H899 C907 0.930 . S
H900 C910 0.930 . S
H901 C911 0.930 . S
C902 H896 0.930 . S
C902 C903 1.355 . S
C902 C904 1.415 . S
C903 C902 1.355 . S
C903 C905 1.419 . S
C904 C902 1.415 . S
C904 C909 1.425 . S
C904 C911 1.409 . S
C905 H897 0.930 . S
C905 C903 1.419 . S
C905 C906 1.362 . S
C906 H898 0.930 . S
C906 C905 1.362 . S
C906 C909 1.409 . S
C907 H899 0.930 . S
C907 C908 1.355 . S
C907 C909 1.415 . S
C908 C907 1.355 . S
C908 C910 1.419 . S
C909 C904 1.425 . S
C909 C906 1.409 . S
C909 C907 1.415 . S
C910 H900 0.930 . S
C910 C908 1.419 . S
C910 C911 1.362 . S
C911 H901 0.930 . S
C911 C904 1.409 . S
C911 C910 1.362 . S
H912 C918 0.930 . S
H913 C921 0.930 . S
H914 C922 0.930 . S
H915 C923 0.930 . S
H916 C926 0.930 1_655 S
H917 C927 0.930 . S
C918 H912 0.930 . S
C918 C919 1.355 . S
C918 C920 1.415 . S
C919 C918 1.355 . S
C919 C921 1.419 . S
C920 C918 1.415 . S
C920 C925 1.425 . S
C920 C927 1.409 . S
C921 H913 0.930 . S
C921 C919 1.419 . S
C921 C922 1.362 . S
C922 H914 0.930 . S
C922 C921 1.362 . S
C922 C925 1.409 . S
C923 H915 0.930 . S
C923 C924 1.355 . S
C923 C925 1.415 . S
C924 C923 1.355 . S
C924 C926 1.419 . S
C925 C920 1.425 . S
C925 C922 1.409 . S
C925 C923 1.415 . S
C926 H916 0.930 1_455 S
C926 C924 1.419 . S
C926 C927 1.362 . S
C927 H917 0.930 . S
C927 C920 1.409 . S
C927 C926 1.362 . S
H928 C934 0.930 . S
H929 C937 0.930 . S
H930 C938 0.930 . S
H931 C939 0.930 . S
H932 C942 0.930 1_455 S
H933 C943 0.922 1_455 S
C934 H928 0.930 . S
C934 C935 1.355 . S
C934 C936 1.415 . S
C935 C934 1.355 . S
C935 C937 1.419 . S
C936 C934 1.415 . S
C936 C941 1.425 . S
C936 C943 1.409 . S
C937 H929 0.930 . S
C937 C935 1.419 . S
C937 C938 1.362 . S
C938 H930 0.930 . S
C938 C937 1.362 . S
C938 C941 1.409 . S
C939 H931 0.930 . S
C939 C940 1.355 . S
C939 C941 1.415 . S
C940 C939 1.355 . S
C940 C942 1.419 . S
C941 C936 1.425 . S
C941 C938 1.409 . S
C941 C939 1.415 . S
C942 H932 0.930 1_655 S
C942 C940 1.419 . S
C942 C943 1.362 . S
C943 H933 0.922 1_655 S
C943 C936 1.409 . S
C943 C942 1.362 . S
H944 C950 0.930 . S
H945 C953 0.930 1_455 S
H946 C954 0.930 1_455 S
H947 C955 0.930 . S
H948 C958 0.930 . S
H949 C959 0.930 . S
C950 H944 0.930 . S
C950 C951 1.355 . S
C950 C952 1.415 . S
C951 C950 1.355 . S
C951 C953 1.419 . S
C952 C950 1.415 . S
C952 C957 1.425 . S
C952 C959 1.409 . S
C953 H945 0.930 1_655 S
C953 C951 1.419 . S
C953 C954 1.362 . S
C954 H946 0.930 1_655 S
C954 C953 1.362 . S
C954 C957 1.409 . S
C955 H947 0.930 . S
C955 C956 1.355 . S
C955 C957 1.415 . S
C956 C955 1.355 . S
C956 C958 1.419 . S
C957 C952 1.425 . S
C957 C954 1.409 . S
C957 C955 1.415 . S
C958 H948 0.930 . S
C958 C956 1.419 . S
C958 C959 1.362 . S
C959 H949 0.930 . S
C959 C952 1.409 . S
C959 C958 1.362 . S
H960 C966 0.930 . S
H961 C969 0.930 1_655 S
H962 C970 0.930 1_655 S
H963 C971 0.930 . S
H964 C974 0.930 . S
H965 C975 0.930 . S
C966 H960 0.930 . S
C966 C967 1.355 . S
C966 C968 1.415 . S
C967 C966 1.355 . S
C967 C969 1.419 1_565 S
C968 C966 1.415 . S
C968 C973 1.425 1_565 S
C968 C975 1.409 . S
C969 H961 0.930 1_455 S
C969 C967 1.419 1_545 S
C969 C970 1.362 . S
C970 H962 0.930 1_455 S
C970 C969 1.362 . S
C970 C973 1.409 . S
C971 H963 0.930 . S
C971 C972 1.355 1_545 S
C971 C973 1.415 . S
C972 C971 1.355 1_565 S
C972 C974 1.419 . S
C973 C968 1.425 1_545 S
C973 C970 1.409 . S
C973 C971 1.415 . S
C974 H964 0.930 . S
C974 C972 1.419 . S
C974 C975 1.362 . S
C975 H965 0.930 . S
C975 C968 1.409 . S
C975 C974 1.362 . S
H976 C982 0.930 . S
H977 C985 0.930 . S
H978 C986 0.930 . S
H979 C987 0.930 1_655 S
H980 C990 0.930 . S
H981 C991 0.930 . S
C982 H976 0.930 . S
C982 C983 1.355 . S
C982 C984 1.415 . S
C983 C982 1.355 . S
C983 C985 1.419 . S
C984 C982 1.415 . S
C984 C989 1.425 . S
C984 C991 1.409 . S
C985 H977 0.930 . S
C985 C983 1.419 . S
C985 C986 1.362 . S
C986 H978 0.930 . S
C986 C985 1.362 . S
C986 C989 1.409 . S
C987 H979 0.930 1_455 S
C987 C988 1.355 . S
C987 C989 1.415 . S
C988 C987 1.355 . S
C988 C990 1.419 . S
C989 C984 1.425 . S
C989 C986 1.409 . S
C989 C987 1.415 . S
C990 H980 0.930 . S
C990 C988 1.419 . S
C990 C991 1.362 . S
C991 H981 0.930 . S
C991 C984 1.409 . S
C991 C990 1.362 . S
H992 C998 0.930 . S
H993 C1001 0.930 1_455 S
H994 C1002 0.930 1_455 S
H995 C1003 0.930 . S
H996 C1006 0.930 . S
H997 C1007 0.930 . S
C998 H992 0.930 . S
C998 C999 1.362 . S
C998 C1000 1.415 . S
C999 C998 1.362 . S
C999 C1001 1.410 1_545 S
C1000 C998 1.415 . S
C1000 C1005 1.425 1_545 S
C1000 C1007 1.409 . S
C1001 H993 0.930 1_655 S
C1001 C999 1.410 1_565 S
C1001 C1002 1.362 . S
C1002 H994 0.930 1_655 S
C1002 C1001 1.362 . S
C1002 C1005 1.409 . S
C1003 H995 0.930 . S
C1003 C1004 1.355 1_565 S
C1003 C1005 1.415 . S
C1004 C1003 1.355 1_545 S
C1004 C1006 1.419 . S
C1005 C1000 1.425 1_565 S
C1005 C1002 1.409 . S
C1005 C1003 1.415 . S
C1006 H996 0.930 . S
C1006 C1004 1.419 . S
C1006 C1007 1.362 . S
C1007 H997 0.930 . S
C1007 C1000 1.409 . S
C1007 C1006 1.362 . S
H1008 C1014 0.930 . S
H1009 C1017 0.930 1_455 S
H1010 C1018 0.930 . S
H1011 C1019 0.930 . S
H1012 C1022 0.930 . S
H1013 C1023 0.930 . S
C1014 H1008 0.930 . S
C1014 C1015 1.355 . S
C1014 C1016 1.415 . S
C1015 C1014 1.355 . S
C1015 C1017 1.419 . S
C1016 C1014 1.415 . S
C1016 C1021 1.425 . S
C1016 C1023 1.409 . S
C1017 H1009 0.930 1_655 S
C1017 C1015 1.419 . S
C1017 C1018 1.362 . S
C1018 H1010 0.930 . S
C1018 C1017 1.362 . S
C1018 C1021 1.409 . S
C1019 H1011 0.930 . S
C1019 C1020 1.355 . S
C1019 C1021 1.415 . S
C1020 C1019 1.355 . S
C1020 C1022 1.419 . S
C1021 C1016 1.425 . S
C1021 C1018 1.409 . S
C1021 C1019 1.415 . S
C1022 H1012 0.930 . S
C1022 C1020 1.419 . S
C1022 C1023 1.362 . S
C1023 H1013 0.930 . S
C1023 C1016 1.409 . S
C1023 C1022 1.362 . S
H1024 C1030 0.930 . S
H1025 C1033 0.930 . S
H1026 C1034 0.930 . S
H1027 C1035 0.930 . S
H1028 C1038 0.930 . S
H1029 C1039 0.930 . S
C1030 H1024 0.930 . S
C1030 C1031 1.355 . S
C1030 C1032 1.415 . S
C1031 C1030 1.355 . S
C1031 C1033 1.419 . S
C1032 C1030 1.415 . S
C1032 C1037 1.425 . S
C1032 C1039 1.409 . S
C1033 H1025 0.930 . S
C1033 C1031 1.419 . S
C1033 C1034 1.362 . S
C1034 H1026 0.930 . S
C1034 C1033 1.362 . S
C1034 C1037 1.409 . S
C1035 H1027 0.930 . S
C1035 C1036 1.355 . S
C1035 C1037 1.415 . S
C1036 C1035 1.355 . S
C1036 C1038 1.419 . S
C1037 C1032 1.425 . S
C1037 C1034 1.409 . S
C1037 C1035 1.415 . S
C1038 H1028 0.930 . S
C1038 C1036 1.419 . S
C1038 C1039 1.362 . S
C1039 H1029 0.930 . S
C1039 C1032 1.409 . S
C1039 C1038 1.362 . S
H1040 C1046 0.930 . S
H1041 C1049 0.930 . S
H1042 C1050 0.930 . S
H1043 C1051 0.930 . S
H1044 C1054 0.930 . S
H1045 C1055 0.930 . S
C1046 H1040 0.930 . S
C1046 C1047 1.355 . S
C1046 C1048 1.415 . S
C1047 C1046 1.355 . S
C1047 C1049 1.419 . S
C1048 C1046 1.415 . S
C1048 C1053 1.425 . S
C1048 C1055 1.409 . S
C1049 H1041 0.930 . S
C1049 C1047 1.419 . S
C1049 C1050 1.362 . S
C1050 H1042 0.930 . S
C1050 C1049 1.362 . S
C1050 C1053 1.409 . S
C1051 H1043 0.930 . S
C1051 C1052 1.355 . S
C1051 C1053 1.415 . S
C1052 C1051 1.355 . S
C1052 C1054 1.419 . S
C1053 C1048 1.425 . S
C1053 C1050 1.409 . S
C1053 C1051 1.415 . S
C1054 H1044 0.930 . S
C1054 C1052 1.419 . S
C1054 C1055 1.362 . S
C1055 H1045 0.930 . S
C1055 C1048 1.409 . S
C1055 C1054 1.362 . S
H1056 C1062 0.930 . S
H1057 C1065 0.930 . S
H1058 C1066 0.930 . S
H1059 C1067 0.930 . S
H1060 C1070 0.930 . S
H1061 C1071 0.930 . S
C1062 H1056 0.930 . S
C1062 C1063 1.355 . S
C1062 C1064 1.415 . S
C1063 C1062 1.355 . S
C1063 C1065 1.419 . S
C1064 C1062 1.415 . S
C1064 C1069 1.425 . S
C1064 C1071 1.409 . S
C1065 H1057 0.930 . S
C1065 C1063 1.419 . S
C1065 C1066 1.362 . S
C1066 H1058 0.930 . S
C1066 C1065 1.362 . S
C1066 C1069 1.409 . S
C1067 H1059 0.930 . S
C1067 C1068 1.355 . S
C1067 C1069 1.415 . S
C1068 C1067 1.355 . S
C1068 C1070 1.419 . S
C1069 C1064 1.425 . S
C1069 C1066 1.409 . S
C1069 C1067 1.415 . S
C1070 H1060 0.930 . S
C1070 C1068 1.419 . S
C1070 C1071 1.362 . S
C1071 H1061 0.930 . S
C1071 C1064 1.409 . S
C1071 C1070 1.362 . S
H1072 C1078 0.930 . S
H1073 C1081 0.930 . S
H1074 C1082 0.930 . S
H1075 C1083 0.930 . S
H1076 C1086 0.930 . S
H1077 C1087 0.930 . S
C1078 H1072 0.930 . S
C1078 C1079 1.355 . S
C1078 C1080 1.415 . S
C1079 C1078 1.355 . S
C1079 C1081 1.419 . S
C1080 C1078 1.415 . S
C1080 C1085 1.425 . S
C1080 C1087 1.409 . S
C1081 H1073 0.930 . S
C1081 C1079 1.419 . S
C1081 C1082 1.362 . S
C1082 H1074 0.930 . S
C1082 C1081 1.362 . S
C1082 C1085 1.409 . S
C1083 H1075 0.930 . S
C1083 C1084 1.355 . S
C1083 C1085 1.415 . S
C1084 C1083 1.355 . S
C1084 C1086 1.419 . S
C1085 C1080 1.425 . S
C1085 C1082 1.409 . S
C1085 C1083 1.415 . S
C1086 H1076 0.930 . S
C1086 C1084 1.419 . S
C1086 C1087 1.362 . S
C1087 H1077 0.930 . S
C1087 C1080 1.409 . S
C1087 C1086 1.362 . S
H1088 C1094 0.930 . S
H1089 C1097 0.930 . S
H1090 C1098 0.930 . S
H1091 C1099 0.930 . S
H1092 C1102 0.930 . S
H1093 C1103 0.930 . S
C1094 H1088 0.930 . S
C1094 C1095 1.347 1_565 S
C1094 C1096 1.415 . S
C1095 C1094 1.347 1_545 S
C1095 C1097 1.429 . S
C1096 C1094 1.415 . S
C1096 C1101 1.425 1_565 S
C1096 C1103 1.409 . S
C1097 H1089 0.930 . S
C1097 C1095 1.429 . S
C1097 C1098 1.362 . S
C1098 H1090 0.930 . S
C1098 C1097 1.362 . S
C1098 C1101 1.409 . S
C1099 H1091 0.930 . S
C1099 C1100 1.355 1_545 S
C1099 C1101 1.415 . S
C1100 C1099 1.355 1_565 S
C1100 C1102 1.419 . S
C1101 C1096 1.425 1_545 S
C1101 C1098 1.409 . S
C1101 C1099 1.415 . S
C1102 H1092 0.930 . S
C1102 C1100 1.419 . S
C1102 C1103 1.362 . S
C1103 H1093 0.930 . S
C1103 C1096 1.409 . S
C1103 C1102 1.362 . S
H1104 C1110 0.930 . S
H1105 C1113 0.930 . S
H1106 C1114 0.930 . S
H1107 C1115 0.930 . S
H1108 C1118 0.930 . S
H1109 C1119 0.930 . S
C1110 H1104 0.930 . S
C1110 C1111 1.355 . S
C1110 C1112 1.415 . S
C1111 C1110 1.355 . S
C1111 C1113 1.419 . S
C1112 C1110 1.415 . S
C1112 C1117 1.425 . S
C1112 C1119 1.409 . S
C1113 H1105 0.930 . S
C1113 C1111 1.419 . S
C1113 C1114 1.362 . S
C1114 H1106 0.930 . S
C1114 C1113 1.362 . S
C1114 C1117 1.409 . S
C1115 H1107 0.930 . S
C1115 C1116 1.355 . S
C1115 C1117 1.415 . S
C1116 C1115 1.355 . S
C1116 C1118 1.419 . S
C1117 C1112 1.425 . S
C1117 C1114 1.409 . S
C1117 C1115 1.415 . S
C1118 H1108 0.930 . S
C1118 C1116 1.419 . S
C1118 C1119 1.362 . S
C1119 H1109 0.930 . S
C1119 C1112 1.409 . S
C1119 C1118 1.362 . S
H1120 C1126 0.930 . S
H1121 C1129 0.930 . S
H1122 C1130 0.930 . S
H1123 C1131 0.930 . S
H1124 C1134 0.930 . S
H1125 C1135 0.930 . S
C1126 H1120 0.930 . S
C1126 C1127 1.355 1_565 S
C1126 C1128 1.415 . S
C1127 C1126 1.355 1_545 S
C1127 C1129 1.419 . S
C1128 C1126 1.415 . S
C1128 C1133 1.425 1_565 S
C1128 C1135 1.409 . S
C1129 H1121 0.930 . S
C1129 C1127 1.419 . S
C1129 C1130 1.362 . S
C1130 H1122 0.930 . S
C1130 C1129 1.362 . S
C1130 C1133 1.409 . S
C1131 H1123 0.930 . S
C1131 C1132 1.347 1_545 S
C1131 C1133 1.415 . S
C1132 C1131 1.347 1_565 S
C1132 C1134 1.429 . S
C1133 C1128 1.425 1_545 S
C1133 C1130 1.409 . S
C1133 C1131 1.415 . S
C1134 H1124 0.930 . S
C1134 C1132 1.429 . S
C1134 C1135 1.362 . S
C1135 H1125 0.930 . S
C1135 C1128 1.409 . S
C1135 C1134 1.362 . S
H1136 C1142 0.930 . S
H1137 C1145 0.930 . S
H1138 C1146 0.930 . S
H1139 C1147 0.930 . S
H1140 C1150 0.930 . S
H1141 C1151 0.930 . S
C1142 H1136 0.930 . S
C1142 C1143 1.355 . S
C1142 C1144 1.415 . S
C1143 C1142 1.355 . S
C1143 C1145 1.419 . S
C1144 C1142 1.415 . S
C1144 C1149 1.425 . S
C1144 C1151 1.409 . S
C1145 H1137 0.930 . S
C1145 C1143 1.419 . S
C1145 C1146 1.362 . S
C1146 H1138 0.930 . S
C1146 C1145 1.362 . S
C1146 C1149 1.409 . S
C1147 H1139 0.930 . S
C1147 C1148 1.355 . S
C1147 C1149 1.415 . S
C1148 C1147 1.355 . S
C1148 C1150 1.419 . S
C1149 C1144 1.425 . S
C1149 C1146 1.409 . S
C1149 C1147 1.415 . S
C1150 H1140 0.930 . S
C1150 C1148 1.419 . S
C1150 C1151 1.362 . S
C1151 H1141 0.930 . S
C1151 C1144 1.409 . S
C1151 C1150 1.362 . S
H1152 C1158 0.930 . S
H1153 C1161 0.930 . S
H1154 C1162 0.930 . S
H1155 C1163 0.930 . S
H1156 C1166 0.930 . S
H1157 C1167 0.930 . S
C1158 H1152 0.930 . S
C1158 C1159 1.355 . S
C1158 C1160 1.415 . S
C1159 C1158 1.355 . S
C1159 C1161 1.419 . S
C1160 C1158 1.415 . S
C1160 C1165 1.425 . S
C1160 C1167 1.409 . S
C1161 H1153 0.930 . S
C1161 C1159 1.419 . S
C1161 C1162 1.362 . S
C1162 H1154 0.930 . S
C1162 C1161 1.362 . S
C1162 C1165 1.409 . S
C1163 H1155 0.930 . S
C1163 C1164 1.355 . S
C1163 C1165 1.415 . S
C1164 C1163 1.355 . S
C1164 C1166 1.419 . S
C1165 C1160 1.425 . S
C1165 C1162 1.409 . S
C1165 C1163 1.415 . S
C1166 H1156 0.930 . S
C1166 C1164 1.419 . S
C1166 C1167 1.362 . S
C1167 H1157 0.930 . S
C1167 C1160 1.409 . S
C1167 C1166 1.362 . S
H1168 C1174 0.930 . S
H1169 C1177 0.930 . S
H1170 C1178 0.930 . S
H1171 C1179 0.930 . S
H1172 C1182 0.930 . S
H1173 C1183 0.930 1_655 S
C1174 H1168 0.930 . S
C1174 C1175 1.355 . S
C1174 C1176 1.415 . S
C1175 C1174 1.355 . S
C1175 C1177 1.419 . S
C1176 C1174 1.415 . S
C1176 C1181 1.425 . S
C1176 C1183 1.409 . S
C1177 H1169 0.930 . S
C1177 C1175 1.419 . S
C1177 C1178 1.362 . S
C1178 H1170 0.930 . S
C1178 C1177 1.362 . S
C1178 C1181 1.409 . S
C1179 H1171 0.930 . S
C1179 C1180 1.355 . S
C1179 C1181 1.415 . S
C1180 C1179 1.355 . S
C1180 C1182 1.419 . S
C1181 C1176 1.425 . S
C1181 C1178 1.409 . S
C1181 C1179 1.415 . S
C1182 H1172 0.930 . S
C1182 C1180 1.419 . S
C1182 C1183 1.362 . S
C1183 H1173 0.930 1_455 S
C1183 C1176 1.409 . S
C1183 C1182 1.362 . S
H1184 C1190 0.930 . S
H1185 C1193 0.930 . S
H1186 C1194 0.930 . S
H1187 C1195 0.930 . S
H1188 C1198 0.930 . S
H1189 C1199 0.930 . S
C1190 H1184 0.930 . S
C1190 C1191 1.355 . S
C1190 C1192 1.415 . S
C1191 C1190 1.355 . S
C1191 C1193 1.419 . S
C1192 C1190 1.415 . S
C1192 C1197 1.425 . S
C1192 C1199 1.409 . S
C1193 H1185 0.930 . S
C1193 C1191 1.419 . S
C1193 C1194 1.362 . S
C1194 H1186 0.930 . S
C1194 C1193 1.362 . S
C1194 C1197 1.409 . S
C1195 H1187 0.930 . S
C1195 C1196 1.355 . S
C1195 C1197 1.415 . S
C1196 C1195 1.355 . S
C1196 C1198 1.419 . S
C1197 C1192 1.425 . S
C1197 C1194 1.409 . S
C1197 C1195 1.415 . S
C1198 H1188 0.930 . S
C1198 C1196 1.419 . S
C1198 C1199 1.362 . S
C1199 H1189 0.930 . S
C1199 C1192 1.409 . S
C1199 C1198 1.362 . S
H1200 C1206 0.930 . S
H1201 C1209 0.930 . S
H1202 C1210 0.930 . S
H1203 C1211 0.930 . S
H1204 C1214 0.930 . S
H1205 C1215 0.930 . S
C1206 H1200 0.930 . S
C1206 C1207 1.355 . S
C1206 C1208 1.415 . S
C1207 C1206 1.355 . S
C1207 C1209 1.419 . S
C1208 C1206 1.415 . S
C1208 C1213 1.425 . S
C1208 C1215 1.409 . S
C1209 H1201 0.930 . S
C1209 C1207 1.419 . S
C1209 C1210 1.362 . S
C1210 H1202 0.930 . S
C1210 C1209 1.362 . S
C1210 C1213 1.409 . S
C1211 H1203 0.930 . S
C1211 C1212 1.355 . S
C1211 C1213 1.415 . S
C1212 C1211 1.355 . S
C1212 C1214 1.419 . S
C1213 C1208 1.425 . S
C1213 C1210 1.409 . S
C1213 C1211 1.415 . S
C1214 H1204 0.930 . S
C1214 C1212 1.419 . S
C1214 C1215 1.362 . S
C1215 H1205 0.930 . S
C1215 C1208 1.409 . S
C1215 C1214 1.362 . S
H1216 C1222 0.930 . S
H1217 C1225 0.930 1_655 S
H1218 C1226 0.930 1_655 S
H1219 C1227 0.930 . S
H1220 C1230 0.930 . S
H1221 C1231 0.930 . S
C1222 H1216 0.930 . S
C1222 C1223 1.355 . S
C1222 C1224 1.415 . S
C1223 C1222 1.355 . S
C1223 C1225 1.419 . S
C1224 C1222 1.415 . S
C1224 C1229 1.425 . S
C1224 C1231 1.409 . S
C1225 H1217 0.930 1_455 S
C1225 C1223 1.419 . S
C1225 C1226 1.362 . S
C1226 H1218 0.930 1_455 S
C1226 C1225 1.362 . S
C1226 C1229 1.409 . S
C1227 H1219 0.930 . S
C1227 C1228 1.355 . S
C1227 C1229 1.415 . S
C1228 C1227 1.355 . S
C1228 C1230 1.419 . S
C1229 C1224 1.425 . S
C1229 C1226 1.409 . S
C1229 C1227 1.415 . S
C1230 H1220 0.930 . S
C1230 C1228 1.419 . S
C1230 C1231 1.362 . S
C1231 H1221 0.930 . S
C1231 C1224 1.409 . S
C1231 C1230 1.362 . S
H1232 C1238 0.930 . S
H1233 C1241 0.930 . S
H1234 C1242 0.930 . S
H1235 C1243 0.930 . S
H1236 C1246 0.930 . S
H1237 C1247 0.930 . S
C1238 H1232 0.930 . S
C1238 C1239 1.355 . S
C1238 C1240 1.415 . S
C1239 C1238 1.355 . S
C1239 C1241 1.419 . S
C1240 C1238 1.415 . S
C1240 C1245 1.425 . S
C1240 C1247 1.409 . S
C1241 H1233 0.930 . S
C1241 C1239 1.419 . S
C1241 C1242 1.362 . S
C1242 H1234 0.930 . S
C1242 C1241 1.362 . S
C1242 C1245 1.409 . S
C1243 H1235 0.930 . S
C1243 C1244 1.355 . S
C1243 C1245 1.415 . S
C1244 C1243 1.355 . S
C1244 C1246 1.419 . S
C1245 C1240 1.425 . S
C1245 C1242 1.409 . S
C1245 C1243 1.415 . S
C1246 H1236 0.930 . S
C1246 C1244 1.419 . S
C1246 C1247 1.362 . S
C1247 H1237 0.930 . S
C1247 C1240 1.409 . S
C1247 C1246 1.362 . S
H1248 C1254 0.930 . S
H1249 C1257 0.930 . S
H1250 C1258 0.930 . S
H1251 C1259 0.930 . S
H1252 C1262 0.930 . S
H1253 C1263 0.930 . S
C1254 H1248 0.930 . S
C1254 C1255 1.355 . S
C1254 C1256 1.415 . S
C1255 C1254 1.355 . S
C1255 C1257 1.419 . S
C1256 C1254 1.415 . S
C1256 C1261 1.425 . S
C1256 C1263 1.409 . S
C1257 H1249 0.930 . S
C1257 C1255 1.419 . S
C1257 C1258 1.362 . S
C1258 H1250 0.930 . S
C1258 C1257 1.362 . S
C1258 C1261 1.409 . S
C1259 H1251 0.930 . S
C1259 C1260 1.355 . S
C1259 C1261 1.415 . S
C1260 C1259 1.355 . S
C1260 C1262 1.419 . S
C1261 C1256 1.425 . S
C1261 C1258 1.409 . S
C1261 C1259 1.415 . S
C1262 H1252 0.930 . S
C1262 C1260 1.419 . S
C1262 C1263 1.362 . S
C1263 H1253 0.930 . S
C1263 C1256 1.409 . S
C1263 C1262 1.362 . S
H1264 C1270 0.930 . S
H1265 C1273 0.930 . S
H1266 C1274 0.930 . S
H1267 C1275 0.930 . S
H1268 C1278 0.930 . S
H1269 C1279 0.930 . S
C1270 H1264 0.930 . S
C1270 C1271 1.355 . S
C1270 C1272 1.415 . S
C1271 C1270 1.355 . S
C1271 C1273 1.419 . S
C1272 C1270 1.415 . S
C1272 C1277 1.425 . S
C1272 C1279 1.409 . S
C1273 H1265 0.930 . S
C1273 C1271 1.419 . S
C1273 C1274 1.362 . S
C1274 H1266 0.930 . S
C1274 C1273 1.362 . S
C1274 C1277 1.409 . S
C1275 H1267 0.930 . S
C1275 C1276 1.355 . S
C1275 C1277 1.415 . S
C1276 C1275 1.355 . S
C1276 C1278 1.419 . S
C1277 C1272 1.425 . S
C1277 C1274 1.409 . S
C1277 C1275 1.415 . S
C1278 H1268 0.930 . S
C1278 C1276 1.419 . S
C1278 C1279 1.362 . S
C1279 H1269 0.930 . S
C1279 C1272 1.409 . S
C1279 C1278 1.362 . S
H1280 C1286 0.930 . S
H1281 C1289 0.930 . S
H1282 C1290 0.930 . S
H1283 C1291 0.930 . S
H1284 C1294 0.930 . S
H1285 C1295 0.930 . S
C1286 H1280 0.930 . S
C1286 C1287 1.355 . S
C1286 C1288 1.415 . S
C1287 C1286 1.355 . S
C1287 C1289 1.419 . S
C1288 C1286 1.415 . S
C1288 C1293 1.425 . S
C1288 C1295 1.409 . S
C1289 H1281 0.930 . S
C1289 C1287 1.419 . S
C1289 C1290 1.362 . S
C1290 H1282 0.930 . S
C1290 C1289 1.362 . S
C1290 C1293 1.409 . S
C1291 H1283 0.930 . S
C1291 C1292 1.355 . S
C1291 C1293 1.415 . S
C1292 C1291 1.355 . S
C1292 C1294 1.419 . S
C1293 C1288 1.425 . S
C1293 C1290 1.409 . S
C1293 C1291 1.415 . S
C1294 H1284 0.930 . S
C1294 C1292 1.419 . S
C1294 C1295 1.362 . S
C1295 H1285 0.930 . S
C1295 C1288 1.409 . S
C1295 C1294 1.362 . S
H1296 C1302 0.930 . S
H1297 C1305 0.930 . S
H1298 C1306 0.930 . S
H1299 C1307 0.930 . S
H1300 C1310 0.930 . S
H1301 C1311 0.930 . S
C1302 H1296 0.930 . S
C1302 C1303 1.355 . S
C1302 C1304 1.415 . S
C1303 C1302 1.355 . S
C1303 C1305 1.419 . S
C1304 C1302 1.415 . S
C1304 C1309 1.425 . S
C1304 C1311 1.409 . S
C1305 H1297 0.930 . S
C1305 C1303 1.419 . S
C1305 C1306 1.362 . S
C1306 H1298 0.930 . S
C1306 C1305 1.362 . S
C1306 C1309 1.409 . S
C1307 H1299 0.930 . S
C1307 C1308 1.355 . S
C1307 C1309 1.415 . S
C1308 C1307 1.355 . S
C1308 C1310 1.419 . S
C1309 C1304 1.425 . S
C1309 C1306 1.409 . S
C1309 C1307 1.415 . S
C1310 H1300 0.930 . S
C1310 C1308 1.419 . S
C1310 C1311 1.362 . S
C1311 H1301 0.930 . S
C1311 C1304 1.409 . S
C1311 C1310 1.362 . S
H1312 C1318 0.930 . S
H1313 C1321 0.930 . S
H1314 C1322 0.930 . S
H1315 C1323 0.930 . S
H1316 C1326 0.930 . S
H1317 C1327 0.930 . S
C1318 H1312 0.930 . S
C1318 C1319 1.355 . S
C1318 C1320 1.415 . S
C1319 C1318 1.355 . S
C1319 C1321 1.419 . S
C1320 C1318 1.415 . S
C1320 C1325 1.425 . S
C1320 C1327 1.409 . S
C1321 H1313 0.930 . S
C1321 C1319 1.419 . S
C1321 C1322 1.362 . S
C1322 H1314 0.930 . S
C1322 C1321 1.362 . S
C1322 C1325 1.409 . S
C1323 H1315 0.930 . S
C1323 C1324 1.355 . S
C1323 C1325 1.415 . S
C1324 C1323 1.355 . S
C1324 C1326 1.419 . S
C1325 C1320 1.425 . S
C1325 C1322 1.409 . S
C1325 C1323 1.415 . S
C1326 H1316 0.930 . S
C1326 C1324 1.419 . S
C1326 C1327 1.362 . S
C1327 H1317 0.930 . S
C1327 C1320 1.409 . S
C1327 C1326 1.362 . S
H1328 C1334 0.930 . S
H1329 C1337 0.930 . S
H1330 C1338 0.930 . S
H1331 C1339 0.930 . S
H1332 C1342 0.930 . S
H1333 C1343 0.930 . S
C1334 H1328 0.930 . S
C1334 C1335 1.355 . S
C1334 C1336 1.415 . S
C1335 C1334 1.355 . S
C1335 C1337 1.419 . S
C1336 C1334 1.415 . S
C1336 C1341 1.425 . S
C1336 C1343 1.409 . S
C1337 H1329 0.930 . S
C1337 C1335 1.419 . S
C1337 C1338 1.362 . S
C1338 H1330 0.930 . S
C1338 C1337 1.362 . S
C1338 C1341 1.409 . S
C1339 H1331 0.930 . S
C1339 C1340 1.355 . S
C1339 C1341 1.415 . S
C1340 C1339 1.355 . S
C1340 C1342 1.419 . S
C1341 C1336 1.425 . S
C1341 C1338 1.409 . S
C1341 C1339 1.415 . S
C1342 H1332 0.930 . S
C1342 C1340 1.419 . S
C1342 C1343 1.362 . S
C1343 H1333 0.930 . S
C1343 C1336 1.409 . S
C1343 C1342 1.362 . S
H1344 C1350 0.930 . S
H1345 C1353 0.930 . S
H1346 C1354 0.930 . S
H1347 C1355 0.930 . S
H1348 C1358 0.930 . S
H1349 C1359 0.930 . S
C1350 H1344 0.930 . S
C1350 C1351 1.355 . S
C1350 C1352 1.415 . S
C1351 C1350 1.355 . S
C1351 C1353 1.419 . S
C1352 C1350 1.415 . S
C1352 C1357 1.425 . S
C1352 C1359 1.409 . S
C1353 H1345 0.930 . S
C1353 C1351 1.419 . S
C1353 C1354 1.362 . S
C1354 H1346 0.930 . S
C1354 C1353 1.362 . S
C1354 C1357 1.409 . S
C1355 H1347 0.930 . S
C1355 C1356 1.355 . S
C1355 C1357 1.415 . S
C1356 C1355 1.355 . S
C1356 C1358 1.419 . S
C1357 C1352 1.425 . S
C1357 C1354 1.409 . S
C1357 C1355 1.415 . S
C1358 H1348 0.930 . S
C1358 C1356 1.419 . S
C1358 C1359 1.362 . S
C1359 H1349 0.930 . S
C1359 C1352 1.409 . S
C1359 C1358 1.362 . S
H1360 C1366 0.930 . S
H1361 C1369 0.930 . S
H1362 C1370 0.930 . S
H1363 C1371 0.930 . S
H1364 C1374 0.930 . S
H1365 C1375 0.930 . S
C1366 H1360 0.930 . S
C1366 C1367 1.355 . S
C1366 C1368 1.415 . S
C1367 C1366 1.355 . S
C1367 C1369 1.419 . S
C1368 C1366 1.415 . S
C1368 C1373 1.425 . S
C1368 C1375 1.409 . S
C1369 H1361 0.930 . S
C1369 C1367 1.419 . S
C1369 C1370 1.362 . S
C1370 H1362 0.930 . S
C1370 C1369 1.362 . S
C1370 C1373 1.409 . S
C1371 H1363 0.930 . S
C1371 C1372 1.355 . S
C1371 C1373 1.415 . S
C1372 C1371 1.355 . S
C1372 C1374 1.419 . S
C1373 C1368 1.425 . S
C1373 C1370 1.409 . S
C1373 C1371 1.415 . S
C1374 H1364 0.930 . S
C1374 C1372 1.419 . S
C1374 C1375 1.362 . S
C1375 H1365 0.930 . S
C1375 C1368 1.409 . S
C1375 C1374 1.362 . S
H1376 C1382 0.930 . S
H1377 C1385 0.930 . S
H1378 C1386 0.930 . S
H1379 C1387 0.930 . S
H1380 C1390 0.930 . S
H1381 C1391 0.930 . S
C1382 H1376 0.930 . S
C1382 C1383 1.355 . S
C1382 C1384 1.415 . S
C1383 C1382 1.355 . S
C1383 C1385 1.419 . S
C1384 C1382 1.415 . S
C1384 C1389 1.425 . S
C1384 C1391 1.409 . S
C1385 H1377 0.930 . S
C1385 C1383 1.419 . S
C1385 C1386 1.362 . S
C1386 H1378 0.930 . S
C1386 C1385 1.362 . S
C1386 C1389 1.409 . S
C1387 H1379 0.930 . S
C1387 C1388 1.355 . S
C1387 C1389 1.415 . S
C1388 C1387 1.355 . S
C1388 C1390 1.419 . S
C1389 C1384 1.425 . S
C1389 C1386 1.409 . S
C1389 C1387 1.415 . S
C1390 H1380 0.930 . S
C1390 C1388 1.419 . S
C1390 C1391 1.362 . S
C1391 H1381 0.930 . S
C1391 C1384 1.409 . S
C1391 C1390 1.362 . S
H1392 C1398 0.930 . S
H1393 C1401 0.930 . S
H1394 C1402 0.930 . S
H1395 C1403 0.930 . S
H1396 C1406 0.930 . S
H1397 C1407 0.930 . S
C1398 H1392 0.930 . S
C1398 C1399 1.355 . S
C1398 C1400 1.415 . S
C1399 C1398 1.355 . S
C1399 C1401 1.419 . S
C1400 C1398 1.415 . S
C1400 C1405 1.425 . S
C1400 C1407 1.409 . S
C1401 H1393 0.930 . S
C1401 C1399 1.419 . S
C1401 C1402 1.362 . S
C1402 H1394 0.930 . S
C1402 C1401 1.362 . S
C1402 C1405 1.409 . S
C1403 H1395 0.930 . S
C1403 C1404 1.355 . S
C1403 C1405 1.415 . S
C1404 C1403 1.355 . S
C1404 C1406 1.419 . S
C1405 C1400 1.425 . S
C1405 C1402 1.409 . S
C1405 C1403 1.415 . S
C1406 H1396 0.930 . S
C1406 C1404 1.419 . S
C1406 C1407 1.362 . S
C1407 H1397 0.930 . S
C1407 C1400 1.409 . S
C1407 C1406 1.362 . S
H1408 C1414 0.930 . S
H1409 C1417 0.930 . S
H1410 C1418 0.930 . S
H1411 C1419 0.930 . S
H1412 C1422 0.930 . S
H1413 C1423 0.930 . S
C1414 H1408 0.930 . S
C1414 C1415 1.355 . S
C1414 C1416 1.415 . S
C1415 C1414 1.355 . S
C1415 C1417 1.419 . S
C1416 C1414 1.415 . S
C1416 C1421 1.425 . S
C1416 C1423 1.409 . S
C1417 H1409 0.930 . S
C1417 C1415 1.419 . S
C1417 C1418 1.362 . S
C1418 H1410 0.930 . S
C1418 C1417 1.362 . S
C1418 C1421 1.409 . S
C1419 H1411 0.930 . S
C1419 C1420 1.355 . S
C1419 C1421 1.415 . S
C1420 C1419 1.355 . S
C1420 C1422 1.419 . S
C1421 C1416 1.425 . S
C1421 C1418 1.409 . S
C1421 C1419 1.415 . S
C1422 H1412 0.930 . S
C1422 C1420 1.419 . S
C1422 C1423 1.362 . S
C1423 H1413 0.930 . S
C1423 C1416 1.409 . S
C1423 C1422 1.362 . S
H1424 C1430 0.930 . S
H1425 C1433 0.930 . S
H1426 C1434 0.930 . S
H1427 C1435 0.930 . S
H1428 C1438 0.930 . S
H1429 C1439 0.930 . S
C1430 H1424 0.930 . S
C1430 C1431 1.355 . S
C1430 C1432 1.415 . S
C1431 C1430 1.355 . S
C1431 C1433 1.419 . S
C1432 C1430 1.415 . S
C1432 C1437 1.425 . S
C1432 C1439 1.409 . S
C1433 H1425 0.930 . S
C1433 C1431 1.419 . S
C1433 C1434 1.362 . S
C1434 H1426 0.930 . S
C1434 C1433 1.362 . S
C1434 C1437 1.409 . S
C1435 H1427 0.930 . S
C1435 C1436 1.355 . S
C1435 C1437 1.415 . S
C1436 C1435 1.355 . S
C1436 C1438 1.419 . S
C1437 C1432 1.425 . S
C1437 C1434 1.409 . S
C1437 C1435 1.415 . S
C1438 H1428 0.930 . S
C1438 C1436 1.419 . S
C1438 C1439 1.362 . S
C1439 H1429 0.930 . S
C1439 C1432 1.409 . S
C1439 C1438 1.362 . S
H1440 C1446 0.930 . S
H1441 C1449 0.930 . S
H1442 C1450 0.930 . S
H1443 C1451 0.930 . S
H1444 C1454 0.930 . S
H1445 C1455 0.930 . S
C1446 H1440 0.930 . S
C1446 C1447 1.355 . S
C1446 C1448 1.415 . S
C1447 C1446 1.355 . S
C1447 C1449 1.419 . S
C1448 C1446 1.415 . S
C1448 C1453 1.425 . S
C1448 C1455 1.409 . S
C1449 H1441 0.930 . S
C1449 C1447 1.419 . S
C1449 C1450 1.362 . S
C1450 H1442 0.930 . S
C1450 C1449 1.362 . S
C1450 C1453 1.409 . S
C1451 H1443 0.930 . S
C1451 C1452 1.355 . S
C1451 C1453 1.415 . S
C1452 C1451 1.355 . S
C1452 C1454 1.419 . S
C1453 C1448 1.425 . S
C1453 C1450 1.409 . S
C1453 C1451 1.415 . S
C1454 H1444 0.930 . S
C1454 C1452 1.419 . S
C1454 C1455 1.362 . S
C1455 H1445 0.930 . S
C1455 C1448 1.409 . S
C1455 C1454 1.362 . S
H1456 C1462 0.930 . S
H1457 C1465 0.930 . S
H1458 C1466 0.930 . S
H1459 C1467 0.930 . S
H1460 C1470 0.930 . S
H1461 C1471 0.930 . S
C1462 H1456 0.930 . S
C1462 C1463 1.355 . S
C1462 C1464 1.415 . S
C1463 C1462 1.355 . S
C1463 C1465 1.419 . S
C1464 C1462 1.415 . S
C1464 C1469 1.425 . S
C1464 C1471 1.409 . S
C1465 H1457 0.930 . S
C1465 C1463 1.419 . S
C1465 C1466 1.362 . S
C1466 H1458 0.930 . S
C1466 C1465 1.362 . S
C1466 C1469 1.409 . S
C1467 H1459 0.930 . S
C1467 C1468 1.355 . S
C1467 C1469 1.415 . S
C1468 C1467 1.355 . S
C1468 C1470 1.419 . S
C1469 C1464 1.425 . S
C1469 C1466 1.409 . S
C1469 C1467 1.415 . S
C1470 H1460 0.930 . S
C1470 C1468 1.419 . S
C1470 C1471 1.362 . S
C1471 H1461 0.930 . S
C1471 C1464 1.409 . S
C1471 C1470 1.362 . S
H1472 C1478 0.930 . S
H1473 C1481 0.930 . S
H1474 C1482 0.930 . S
H1475 C1483 0.930 . S
H1476 C1486 0.930 . S
H1477 C1487 0.930 . S
C1478 H1472 0.930 . S
C1478 C1479 1.355 . S
C1478 C1480 1.415 . S
C1479 C1478 1.355 . S
C1479 C1481 1.419 . S
C1480 C1478 1.415 . S
C1480 C1485 1.425 . S
C1480 C1487 1.409 . S
C1481 H1473 0.930 . S
C1481 C1479 1.419 . S
C1481 C1482 1.362 . S
C1482 H1474 0.930 . S
C1482 C1481 1.362 . S
C1482 C1485 1.409 . S
C1483 H1475 0.930 . S
C1483 C1484 1.355 . S
C1483 C1485 1.415 . S
C1484 C1483 1.355 . S
C1484 C1486 1.419 . S
C1485 C1480 1.425 . S
C1485 C1482 1.409 . S
C1485 C1483 1.415 . S
C1486 H1476 0.930 . S
C1486 C1484 1.419 . S
C1486 C1487 1.362 . S
C1487 H1477 0.930 . S
C1487 C1480 1.409 . S
C1487 C1486 1.362 . S
H1488 C1494 0.930 . S
H1489 C1497 0.930 . S
H1490 C1498 0.930 . S
H1491 C1499 0.930 . S
H1492 C1502 0.930 . S
H1493 C1503 0.930 . S
C1494 H1488 0.930 . S
C1494 C1495 1.355 . S
C1494 C1496 1.415 . S
C1495 C1494 1.355 . S
C1495 C1497 1.419 . S
C1496 C1494 1.415 . S
C1496 C1501 1.425 . S
C1496 C1503 1.409 . S
C1497 H1489 0.930 . S
C1497 C1495 1.419 . S
C1497 C1498 1.362 . S
C1498 H1490 0.930 . S
C1498 C1497 1.362 . S
C1498 C1501 1.409 . S
C1499 H1491 0.930 . S
C1499 C1500 1.355 . S
C1499 C1501 1.415 . S
C1500 C1499 1.355 . S
C1500 C1502 1.419 . S
C1501 C1496 1.425 . S
C1501 C1498 1.409 . S
C1501 C1499 1.415 . S
C1502 H1492 0.930 . S
C1502 C1500 1.419 . S
C1502 C1503 1.362 . S
C1503 H1493 0.930 . S
C1503 C1496 1.409 . S
C1503 C1502 1.362 . S
H1504 C1510 0.930 . S
H1505 C1513 0.930 . S
H1506 C1514 0.930 . S
H1507 C1515 0.930 . S
H1508 C1518 0.930 . S
H1509 C1519 0.930 . S
C1510 H1504 0.930 . S
C1510 C1511 1.355 . S
C1510 C1512 1.415 . S
C1511 C1510 1.355 . S
C1511 C1513 1.419 . S
C1512 C1510 1.415 . S
C1512 C1517 1.425 . S
C1512 C1519 1.409 . S
C1513 H1505 0.930 . S
C1513 C1511 1.419 . S
C1513 C1514 1.362 . S
C1514 H1506 0.930 . S
C1514 C1513 1.362 . S
C1514 C1517 1.409 . S
C1515 H1507 0.930 . S
C1515 C1516 1.355 . S
C1515 C1517 1.415 . S
C1516 C1515 1.355 . S
C1516 C1518 1.419 . S
C1517 C1512 1.425 . S
C1517 C1514 1.409 . S
C1517 C1515 1.415 . S
C1518 H1508 0.930 . S
C1518 C1516 1.419 . S
C1518 C1519 1.362 . S
C1519 H1509 0.930 . S
C1519 C1512 1.409 . S
C1519 C1518 1.362 . S
H1520 C1526 0.930 . S
H1521 C1529 0.930 . S
H1522 C1530 0.930 . S
H1523 C1531 0.930 . S
H1524 C1534 0.930 . S
H1525 C1535 0.930 . S
C1526 H1520 0.930 . S
C1526 C1527 1.355 . S
C1526 C1528 1.415 . S
C1527 C1526 1.355 . S
C1527 C1529 1.419 . S
C1528 C1526 1.415 . S
C1528 C1533 1.425 . S
C1528 C1535 1.409 . S
C1529 H1521 0.930 . S
C1529 C1527 1.419 . S
C1529 C1530 1.362 . S
C1530 H1522 0.930 . S
C1530 C1529 1.362 . S
C1530 C1533 1.409 . S
C1531 H1523 0.930 . S
C1531 C1532 1.355 . S
C1531 C1533 1.415 . S
C1532 C1531 1.355 . S
C1532 C1534 1.419 . S
C1533 C1528 1.425 . S
C1533 C1530 1.409 . S
C1533 C1531 1.415 . S
C1534 H1524 0.930 . S
C1534 C1532 1.419 . S
C1534 C1535 1.362 . S
C1535 H1525 0.930 . S
C1535 C1528 1.409 . S
C1535 C1534 1.362 . S
H1536 C1542 0.930 . S
H1537 C1545 0.930 . S
H1538 C1546 0.930 . S
H1539 C1547 0.930 . S
H1540 C1550 0.930 . S
H1541 C1551 0.930 . S
C1542 H1536 0.930 . S
C1542 C1543 1.355 . S
C1542 C1544 1.415 . S
C1543 C1542 1.355 . S
C1543 C1545 1.419 1_545 S
C1544 C1542 1.415 . S
C1544 C1549 1.425 1_545 S
C1544 C1551 1.409 . S
C1545 H1537 0.930 . S
C1545 C1543 1.419 1_565 S
C1545 C1546 1.362 . S
C1546 H1538 0.930 . S
C1546 C1545 1.362 . S
C1546 C1549 1.409 . S
C1547 H1539 0.930 . S
C1547 C1548 1.355 . S
C1547 C1549 1.415 . S
C1548 C1547 1.355 . S
C1548 C1550 1.419 1_565 S
C1549 C1544 1.425 1_565 S
C1549 C1546 1.409 . S
C1549 C1547 1.415 . S
C1550 H1540 0.930 . S
C1550 C1548 1.419 1_545 S
C1550 C1551 1.362 . S
C1551 H1541 0.930 . S
C1551 C1544 1.409 . S
C1551 C1550 1.362 . S
H1552 C1558 0.930 . S
H1553 C1561 0.930 . S
H1554 C1562 0.930 . S
H1555 C1563 0.930 . S
H1556 C1566 0.930 . S
H1557 C1567 0.930 . S
C1558 H1552 0.930 . S
C1558 C1559 1.355 . S
C1558 C1560 1.415 . S
C1559 C1558 1.355 . S
C1559 C1561 1.419 . S
C1560 C1558 1.415 . S
C1560 C1565 1.425 . S
C1560 C1567 1.409 . S
C1561 H1553 0.930 . S
C1561 C1559 1.419 . S
C1561 C1562 1.362 . S
C1562 H1554 0.930 . S
C1562 C1561 1.362 . S
C1562 C1565 1.409 . S
C1563 H1555 0.930 . S
C1563 C1564 1.355 . S
C1563 C1565 1.415 . S
C1564 C1563 1.355 . S
C1564 C1566 1.419 . S
C1565 C1560 1.425 . S
C1565 C1562 1.409 . S
C1565 C1563 1.415 . S
C1566 H1556 0.930 . S
C1566 C1564 1.419 . S
C1566 C1567 1.362 . S
C1567 H1557 0.930 . S
C1567 C1560 1.409 . S
C1567 C1566 1.362 . S
H1568 C1574 0.930 . S
H1569 C1577 0.930 . S
H1570 C1578 0.930 . S
H1571 C1579 0.930 . S
H1572 C1582 0.930 . S
H1573 C1583 0.930 . S
C1574 H1568 0.930 . S
C1574 C1575 1.355 . S
C1574 C1576 1.415 . S
C1575 C1574 1.355 . S
C1575 C1577 1.419 . S
C1576 C1574 1.415 . S
C1576 C1581 1.425 . S
C1576 C1583 1.409 . S
C1577 H1569 0.930 . S
C1577 C1575 1.419 . S
C1577 C1578 1.362 . S
C1578 H1570 0.930 . S
C1578 C1577 1.362 . S
C1578 C1581 1.409 . S
C1579 H1571 0.930 . S
C1579 C1580 1.355 . S
C1579 C1581 1.415 . S
C1580 C1579 1.355 . S
C1580 C1582 1.419 . S
C1581 C1576 1.425 . S
C1581 C1578 1.409 . S
C1581 C1579 1.415 . S
C1582 H1572 0.930 . S
C1582 C1580 1.419 . S
C1582 C1583 1.362 . S
C1583 H1573 0.930 . S
C1583 C1576 1.409 . S
C1583 C1582 1.362 . S
H1584 C1590 0.930 . S
H1585 C1593 0.930 . S
H1586 C1594 0.930 . S
H1587 C1595 0.930 . S
H1588 C1598 0.930 . S
H1589 C1599 0.930 . S
C1590 H1584 0.930 . S
C1590 C1591 1.355 . S
C1590 C1592 1.415 . S
C1591 C1590 1.355 . S
C1591 C1593 1.419 1_545 S
C1592 C1590 1.415 . S
C1592 C1597 1.425 1_545 S
C1592 C1599 1.409 . S
C1593 H1585 0.930 . S
C1593 C1591 1.419 1_565 S
C1593 C1594 1.362 . S
C1594 H1586 0.930 . S
C1594 C1593 1.362 . S
C1594 C1597 1.409 . S
C1595 H1587 0.930 . S
C1595 C1596 1.355 . S
C1595 C1597 1.415 . S
C1596 C1595 1.355 . S
C1596 C1598 1.419 1_565 S
C1597 C1592 1.425 1_565 S
C1597 C1594 1.409 . S
C1597 C1595 1.415 . S
C1598 H1588 0.930 . S
C1598 C1596 1.419 1_545 S
C1598 C1599 1.362 . S
C1599 H1589 0.930 . S
C1599 C1592 1.409 . S
C1599 C1598 1.362 . S
H1600 C1606 0.930 . S
H1601 C1609 0.930 . S
H1602 C1610 0.930 . S
H1603 C1611 0.930 . S
H1604 C1614 0.930 . S
H1605 C1615 0.930 . S
C1606 H1600 0.930 . S
C1606 C1607 1.355 . S
C1606 C1608 1.415 . S
C1607 C1606 1.355 . S
C1607 C1609 1.419 1_565 S
C1608 C1606 1.415 . S
C1608 C1613 1.425 1_565 S
C1608 C1615 1.409 . S
C1609 H1601 0.930 . S
C1609 C1607 1.419 1_545 S
C1609 C1610 1.362 . S
C1610 H1602 0.930 . S
C1610 C1609 1.362 . S
C1610 C1613 1.409 . S
C1611 H1603 0.930 . S
C1611 C1612 1.355 . S
C1611 C1613 1.415 . S
C1612 C1611 1.355 . S
C1612 C1614 1.419 1_545 S
C1613 C1608 1.425 1_545 S
C1613 C1610 1.409 . S
C1613 C1611 1.415 . S
C1614 H1604 0.930 . S
C1614 C1612 1.419 1_565 S
C1614 C1615 1.362 . S
C1615 H1605 0.930 . S
C1615 C1608 1.409 . S
C1615 C1614 1.362 . S
H1616 C1622 0.930 . S
H1617 C1625 0.930 . S
H1618 C1626 0.930 . S
H1619 C1627 0.930 . S
H1620 C1630 0.930 . S
H1621 C1631 0.930 . S
C1622 H1616 0.930 . S
C1622 C1623 1.355 . S
C1622 C1624 1.415 . S
C1623 C1622 1.355 . S
C1623 C1625 1.419 . S
C1624 C1622 1.415 . S
C1624 C1629 1.425 . S
C1624 C1631 1.409 . S
C1625 H1617 0.930 . S
C1625 C1623 1.419 . S
C1625 C1626 1.362 . S
C1626 H1618 0.930 . S
C1626 C1625 1.362 . S
C1626 C1629 1.409 . S
C1627 H1619 0.930 . S
C1627 C1628 1.355 . S
C1627 C1629 1.415 . S
C1628 C1627 1.355 . S
C1628 C1630 1.419 . S
C1629 C1624 1.425 . S
C1629 C1626 1.409 . S
C1629 C1627 1.415 . S
C1630 H1620 0.930 . S
C1630 C1628 1.419 . S
C1630 C1631 1.362 . S
C1631 H1621 0.930 . S
C1631 C1624 1.409 . S
C1631 C1630 1.362 . S
H1632 C1638 0.930 . S
H1633 C1641 0.930 . S
H1634 C1642 0.930 . S
H1635 C1643 0.930 . S
H1636 C1646 0.930 . S
H1637 C1647 0.930 . S
C1638 H1632 0.930 . S
C1638 C1639 1.355 . S
C1638 C1640 1.415 . S
C1639 C1638 1.355 . S
C1639 C1641 1.419 . S
C1640 C1638 1.415 . S
C1640 C1645 1.425 . S
C1640 C1647 1.409 . S
C1641 H1633 0.930 . S
C1641 C1639 1.419 . S
C1641 C1642 1.362 . S
C1642 H1634 0.930 . S
C1642 C1641 1.362 . S
C1642 C1645 1.409 . S
C1643 H1635 0.930 . S
C1643 C1644 1.355 . S
C1643 C1645 1.415 . S
C1644 C1643 1.355 . S
C1644 C1646 1.419 . S
C1645 C1640 1.425 . S
C1645 C1642 1.409 . S
C1645 C1643 1.415 . S
C1646 H1636 0.930 . S
C1646 C1644 1.419 . S
C1646 C1647 1.362 . S
C1647 H1637 0.930 . S
C1647 C1640 1.409 . S
C1647 C1646 1.362 . S
H1648 C1654 0.930 . S
H1649 C1657 0.930 . S
H1650 C1658 0.930 . S
H1651 C1659 0.930 . S
H1652 C1662 0.930 . S
H1653 C1663 0.930 . S
C1654 H1648 0.930 . S
C1654 C1655 1.355 1_545 S
C1654 C1656 1.415 . S
C1655 C1654 1.355 1_565 S
C1655 C1657 1.419 . S
C1656 C1654 1.415 . S
C1656 C1661 1.425 1_545 S
C1656 C1663 1.409 . S
C1657 H1649 0.930 . S
C1657 C1655 1.419 . S
C1657 C1658 1.362 . S
C1658 H1650 0.930 . S
C1658 C1657 1.362 . S
C1658 C1661 1.409 . S
C1659 H1651 0.930 . S
C1659 C1660 1.355 1_565 S
C1659 C1661 1.415 . S
C1660 C1659 1.355 1_545 S
C1660 C1662 1.419 . S
C1661 C1656 1.425 1_565 S
C1661 C1658 1.409 . S
C1661 C1659 1.415 . S
C1662 H1652 0.930 . S
C1662 C1660 1.419 . S
C1662 C1663 1.362 . S
C1663 H1653 0.930 . S
C1663 C1656 1.409 . S
C1663 C1662 1.362 . S
H1664 C1670 0.930 . S
H1665 C1673 0.930 . S
H1666 C1674 0.930 . S
H1667 C1675 0.930 . S
H1668 C1678 0.930 . S
H1669 C1679 0.930 . S
C1670 H1664 0.930 . S
C1670 C1671 1.355 . S
C1670 C1672 1.415 . S
C1671 C1670 1.355 . S
C1671 C1673 1.419 . S
C1672 C1670 1.415 . S
C1672 C1677 1.425 . S
C1672 C1679 1.409 1_455 S
C1673 H1665 0.930 . S
C1673 C1671 1.419 . S
C1673 C1674 1.362 . S
C1674 H1666 0.930 . S
C1674 C1673 1.362 . S
C1674 C1677 1.409 . S
C1675 H1667 0.930 . S
C1675 C1676 1.355 . S
C1675 C1677 1.415 1_655 S
C1676 C1675 1.355 . S
C1676 C1678 1.419 . S
C1677 C1672 1.425 . S
C1677 C1674 1.409 . S
C1677 C1675 1.415 1_455 S
C1678 H1668 0.930 . S
C1678 C1676 1.419 . S
C1678 C1679 1.362 . S
C1679 H1669 0.930 . S
C1679 C1672 1.409 1_655 S
C1679 C1678 1.362 . S
H1680 C1686 0.930 . S
H1681 C1689 0.930 . S
H1682 C1690 0.930 . S
H1683 C1691 0.930 . S
H1684 C1694 0.930 . S
H1685 C1695 0.930 . S
C1686 H1680 0.930 . S
C1686 C1687 1.355 . S
C1686 C1688 1.415 . S
C1687 C1686 1.355 . S
C1687 C1689 1.419 . S
C1688 C1686 1.415 . S
C1688 C1693 1.425 . S
C1688 C1695 1.409 . S
C1689 H1681 0.930 . S
C1689 C1687 1.419 . S
C1689 C1690 1.362 . S
C1690 H1682 0.930 . S
C1690 C1689 1.362 . S
C1690 C1693 1.409 . S
C1691 H1683 0.930 . S
C1691 C1692 1.355 . S
C1691 C1693 1.415 . S
C1692 C1691 1.355 . S
C1692 C1694 1.419 . S
C1693 C1688 1.425 . S
C1693 C1690 1.409 . S
C1693 C1691 1.415 . S
C1694 H1684 0.930 . S
C1694 C1692 1.419 . S
C1694 C1695 1.362 . S
C1695 H1685 0.930 . S
C1695 C1688 1.409 . S
C1695 C1694 1.362 . S
H1696 C1702 0.930 . S
H1697 C1705 0.930 . S
H1698 C1706 0.930 . S
H1699 C1707 0.930 . S
H1700 C1710 0.930 . S
H1701 C1711 0.930 . S
C1702 H1696 0.930 . S
C1702 C1703 1.355 . S
C1702 C1704 1.415 1_655 S
C1703 C1702 1.355 . S
C1703 C1705 1.419 . S
C1704 C1702 1.415 1_455 S
C1704 C1709 1.425 . S
C1704 C1711 1.409 . S
C1705 H1697 0.930 . S
C1705 C1703 1.419 . S
C1705 C1706 1.362 . S
C1706 H1698 0.930 . S
C1706 C1705 1.362 . S
C1706 C1709 1.409 1_655 S
C1707 H1699 0.930 . S
C1707 C1708 1.355 . S
C1707 C1709 1.415 . S
C1708 C1707 1.355 . S
C1708 C1710 1.419 . S
C1709 C1704 1.425 . S
C1709 C1706 1.409 1_455 S
C1709 C1707 1.415 . S
C1710 H1700 0.930 . S
C1710 C1708 1.419 . S
C1710 C1711 1.362 . S
C1711 H1701 0.930 . S
C1711 C1704 1.409 . S
C1711 C1710 1.362 . S
H1712 C1718 0.930 . S
H1713 C1721 0.930 . S
H1714 C1722 0.930 . S
H1715 C1723 0.930 . S
H1716 C1726 0.930 . S
H1717 C1727 0.930 . S
C1718 H1712 0.930 . S
C1718 C1719 1.355 . S
C1718 C1720 1.415 . S
C1719 C1718 1.355 . S
C1719 C1721 1.419 . S
C1720 C1718 1.415 . S
C1720 C1725 1.425 . S
C1720 C1727 1.409 . S
C1721 H1713 0.930 . S
C1721 C1719 1.419 . S
C1721 C1722 1.362 . S
C1722 H1714 0.930 . S
C1722 C1721 1.362 . S
C1722 C1725 1.409 . S
C1723 H1715 0.930 . S
C1723 C1724 1.355 . S
C1723 C1725 1.415 . S
C1724 C1723 1.355 . S
C1724 C1726 1.419 . S
C1725 C1720 1.425 . S
C1725 C1722 1.409 . S
C1725 C1723 1.415 . S
C1726 H1716 0.930 . S
C1726 C1724 1.419 . S
C1726 C1727 1.362 . S
C1727 H1717 0.930 . S
C1727 C1720 1.409 . S
C1727 C1726 1.362 . S
H1728 C1734 0.930 . S
H1729 C1737 0.930 . S
H1730 C1738 0.930 . S
H1731 C1739 0.930 . S
H1732 C1742 0.930 . S
H1733 C1743 0.930 1_655 S
C1734 H1728 0.930 . S
C1734 C1735 1.355 . S
C1734 C1736 1.415 . S
C1735 C1734 1.355 . S
C1735 C1737 1.419 . S
C1736 C1734 1.415 . S
C1736 C1741 1.425 . S
C1736 C1743 1.409 1_655 S
C1737 H1729 0.930 . S
C1737 C1735 1.419 . S
C1737 C1738 1.362 . S
C1738 H1730 0.930 . S
C1738 C1737 1.362 . S
C1738 C1741 1.409 . S
C1739 H1731 0.930 . S
C1739 C1740 1.355 . S
C1739 C1741 1.415 1_455 S
C1740 C1739 1.355 . S
C1740 C1742 1.419 . S
C1741 C1736 1.425 . S
C1741 C1738 1.409 . S
C1741 C1739 1.415 1_655 S
C1742 H1732 0.930 . S
C1742 C1740 1.419 . S
C1742 C1743 1.362 . S
C1743 H1733 0.930 1_455 S
C1743 C1736 1.409 1_455 S
C1743 C1742 1.362 . S
H1744 C1750 0.930 . S
H1745 C1753 0.930 . S
H1746 C1754 0.930 . S
H1747 C1755 0.930 . S
H1748 C1758 0.930 . S
H1749 C1759 0.930 . S
C1750 H1744 0.930 . S
C1750 C1751 1.355 . S
C1750 C1752 1.415 . S
C1751 C1750 1.355 . S
C1751 C1753 1.419 . S
C1752 C1750 1.415 . S
C1752 C1757 1.425 . S
C1752 C1759 1.409 . S
C1753 H1745 0.930 . S
C1753 C1751 1.419 . S
C1753 C1754 1.362 . S
C1754 H1746 0.930 . S
C1754 C1753 1.362 . S
C1754 C1757 1.409 . S
C1755 H1747 0.930 . S
C1755 C1756 1.355 . S
C1755 C1757 1.415 . S
C1756 C1755 1.355 . S
C1756 C1758 1.419 . S
C1757 C1752 1.425 . S
C1757 C1754 1.409 . S
C1757 C1755 1.415 . S
C1758 H1748 0.930 . S
C1758 C1756 1.419 . S
C1758 C1759 1.362 . S
C1759 H1749 0.930 . S
C1759 C1752 1.409 . S
C1759 C1758 1.362 . S
H1760 C1766 0.930 . S
H1761 C1769 0.930 . S
H1762 C1770 0.930 . S
H1763 C1771 0.930 . S
H1764 C1774 0.930 . S
H1765 C1775 0.930 . S
C1766 H1760 0.930 . S
C1766 C1767 1.355 . S
C1766 C1768 1.415 1_455 S
C1767 C1766 1.355 . S
C1767 C1769 1.419 . S
C1768 C1766 1.415 1_655 S
C1768 C1773 1.425 . S
C1768 C1775 1.409 . S
C1769 H1761 0.930 . S
C1769 C1767 1.419 . S
C1769 C1770 1.362 . S
C1770 H1762 0.930 . S
C1770 C1769 1.362 . S
C1770 C1773 1.409 1_455 S
C1771 H1763 0.930 . S
C1771 C1772 1.355 . S
C1771 C1773 1.415 . S
C1772 C1771 1.355 . S
C1772 C1774 1.419 . S
C1773 C1768 1.425 . S
C1773 C1770 1.409 1_655 S
C1773 C1771 1.415 . S
C1774 H1764 0.930 . S
C1774 C1772 1.419 . S
C1774 C1775 1.362 . S
C1775 H1765 0.930 . S
C1775 C1768 1.409 . S
C1775 C1774 1.362 . S
H1776 C1782 0.930 . S
H1777 C1785 0.930 . S
H1778 C1786 0.930 . S
H1779 C1787 0.930 . S
H1780 C1790 0.930 . S
H1781 C1791 0.930 . S
C1782 H1776 0.930 . S
C1782 C1783 1.355 . S
C1782 C1784 1.415 . S
C1783 C1782 1.355 . S
C1783 C1785 1.419 . S
C1784 C1782 1.415 . S
C1784 C1789 1.425 . S
C1784 C1791 1.409 . S
C1785 H1777 0.930 . S
C1785 C1783 1.419 . S
C1785 C1786 1.362 . S
C1786 H1778 0.930 . S
C1786 C1785 1.362 . S
C1786 C1789 1.409 . S
C1787 H1779 0.930 . S
C1787 C1788 1.355 . S
C1787 C1789 1.415 . S
C1788 C1787 1.355 . S
C1788 C1790 1.419 . S
C1789 C1784 1.425 . S
C1789 C1786 1.409 . S
C1789 C1787 1.415 . S
C1790 H1780 0.930 . S
C1790 C1788 1.419 . S
C1790 C1791 1.362 . S
C1791 H1781 0.930 . S
C1791 C1784 1.409 . S
C1791 C1790 1.362 . S
H1792 C1798 0.930 . S
H1793 C1801 0.930 . S
H1794 C1802 0.930 . S
H1795 C1803 0.930 . S
H1796 C1806 0.930 . S
H1797 C1807 0.930 . S
C1798 H1792 0.930 . S
C1798 C1799 1.355 1_565 S
C1798 C1800 1.415 1_655 S
C1799 C1798 1.355 1_545 S
C1799 C1801 1.419 . S
C1800 C1798 1.415 1_455 S
C1800 C1805 1.425 1_565 S
C1800 C1807 1.409 . S
C1801 H1793 0.930 . S
C1801 C1799 1.419 . S
C1801 C1802 1.362 1_655 S
C1802 H1794 0.930 . S
C1802 C1801 1.362 1_455 S
C1802 C1805 1.409 . S
C1803 H1795 0.930 . S
C1803 C1804 1.355 1_545 S
C1803 C1805 1.415 . S
C1804 C1803 1.355 1_565 S
C1804 C1806 1.419 . S
C1805 C1800 1.425 1_545 S
C1805 C1802 1.409 . S
C1805 C1803 1.415 . S
C1806 H1796 0.930 . S
C1806 C1804 1.419 . S
C1806 C1807 1.362 . S
C1807 H1797 0.930 . S
C1807 C1800 1.409 . S
C1807 C1806 1.362 . S
H1808 C1814 0.930 . S
H1809 C1817 0.930 . S
H1810 C1818 0.930 . S
H1811 C1819 0.930 . S
H1812 C1822 0.930 . S
H1813 C1823 0.930 . S
C1814 H1808 0.930 . S
C1814 C1815 1.355 . S
C1814 C1816 1.415 . S
C1815 C1814 1.355 . S
C1815 C1817 1.419 . S
C1816 C1814 1.415 . S
C1816 C1821 1.425 . S
C1816 C1823 1.409 . S
C1817 H1809 0.930 . S
C1817 C1815 1.419 . S
C1817 C1818 1.362 . S
C1818 H1810 0.930 . S
C1818 C1817 1.362 . S
C1818 C1821 1.409 . S
C1819 H1811 0.930 . S
C1819 C1820 1.355 . S
C1819 C1821 1.415 . S
C1820 C1819 1.355 . S
C1820 C1822 1.419 . S
C1821 C1816 1.425 . S
C1821 C1818 1.409 . S
C1821 C1819 1.415 . S
C1822 H1812 0.930 . S
C1822 C1820 1.419 . S
C1822 C1823 1.362 . S
C1823 H1813 0.930 . S
C1823 C1816 1.409 . S
C1823 C1822 1.362 . S
H1824 C1830 0.930 . S
H1825 C1833 0.930 . S
H1826 C1834 0.930 . S
H1827 C1835 0.930 . S
H1828 C1838 0.930 . S
H1829 C1839 0.930 . S
C1830 H1824 0.930 . S
C1830 C1831 1.355 . S
C1830 C1832 1.415 1_655 S
C1831 C1830 1.355 . S
C1831 C1833 1.419 . S
C1832 C1830 1.415 1_455 S
C1832 C1837 1.425 . S
C1832 C1839 1.409 . S
C1833 H1825 0.930 . S
C1833 C1831 1.419 . S
C1833 C1834 1.362 . S
C1834 H1826 0.930 . S
C1834 C1833 1.362 . S
C1834 C1837 1.409 1_655 S
C1835 H1827 0.930 . S
C1835 C1836 1.355 . S
C1835 C1837 1.415 . S
C1836 C1835 1.355 . S
C1836 C1838 1.419 . S
C1837 C1832 1.425 . S
C1837 C1834 1.409 1_455 S
C1837 C1835 1.415 . S
C1838 H1828 0.930 . S
C1838 C1836 1.419 . S
C1838 C1839 1.362 . S
C1839 H1829 0.930 . S
C1839 C1832 1.409 . S
C1839 C1838 1.362 . S
H1840 C1846 0.930 . S
H1841 C1849 0.930 . S
H1842 C1850 0.930 . S
H1843 C1851 0.930 1_545 S
H1844 C1854 0.930 . S
H1845 C1855 0.930 . S
C1846 H1840 0.930 . S
C1846 C1847 1.355 1_565 S
C1846 C1848 1.415 . S
C1847 C1846 1.355 1_545 S
C1847 C1849 1.419 . S
C1848 C1846 1.415 . S
C1848 C1853 1.425 1_565 S
C1848 C1855 1.409 . S
C1849 H1841 0.930 . S
C1849 C1847 1.419 . S
C1849 C1850 1.362 . S
C1850 H1842 0.930 . S
C1850 C1849 1.362 . S
C1850 C1853 1.409 . S
C1851 H1843 0.930 1_565 S
C1851 C1852 1.355 . S
C1851 C1853 1.415 1_565 S
C1852 C1851 1.355 . S
C1852 C1854 1.419 . S
C1853 C1848 1.425 1_545 S
C1853 C1850 1.409 . S
C1853 C1851 1.415 1_545 S
C1854 H1844 0.930 . S
C1854 C1852 1.419 . S
C1854 C1855 1.362 . S
C1855 H1845 0.930 . S
C1855 C1848 1.409 . S
C1855 C1854 1.362 . S
H1856 C1862 0.930 . S
H1857 C1865 0.930 . S
H1858 C1866 0.930 . S
H1859 C1867 0.930 . S
H1860 C1870 0.930 . S
H1861 C1871 0.930 . S
C1862 H1856 0.930 . S
C1862 C1863 1.355 1_565 S
C1862 C1864 1.415 . S
C1863 C1862 1.355 1_545 S
C1863 C1865 1.419 . S
C1864 C1862 1.415 . S
C1864 C1869 1.425 1_565 S
C1864 C1871 1.409 . S
C1865 H1857 0.930 . S
C1865 C1863 1.419 . S
C1865 C1866 1.362 . S
C1866 H1858 0.930 . S
C1866 C1865 1.362 . S
C1866 C1869 1.409 . S
C1867 H1859 0.930 . S
C1867 C1868 1.355 1_545 S
C1867 C1869 1.415 1_455 S
C1868 C1867 1.355 1_565 S
C1868 C1870 1.419 . S
C1869 C1864 1.425 1_545 S
C1869 C1866 1.409 . S
C1869 C1867 1.415 1_655 S
C1870 H1860 0.930 . S
C1870 C1868 1.419 . S
C1870 C1871 1.362 1_455 S
C1871 H1861 0.930 . S
C1871 C1864 1.409 . S
C1871 C1870 1.362 1_655 S
H1872 C1878 0.930 . S
H1873 C1881 0.930 . S
H1874 C1882 0.930 . S
H1875 C1883 0.930 . S
H1876 C1886 0.930 . S
H1877 C1887 0.930 . S
C1878 H1872 0.930 . S
C1878 C1879 1.355 . S
C1878 C1880 1.415 . S
C1879 C1878 1.355 . S
C1879 C1881 1.419 . S
C1880 C1878 1.415 . S
C1880 C1885 1.425 . S
C1880 C1887 1.409 . S
C1881 H1873 0.930 . S
C1881 C1879 1.419 . S
C1881 C1882 1.362 . S
C1882 H1874 0.930 . S
C1882 C1881 1.362 . S
C1882 C1885 1.409 . S
C1883 H1875 0.930 . S
C1883 C1884 1.355 . S
C1883 C1885 1.415 . S
C1884 C1883 1.355 . S
C1884 C1886 1.419 . S
C1885 C1880 1.425 . S
C1885 C1882 1.409 . S
C1885 C1883 1.415 . S
C1886 H1876 0.930 . S
C1886 C1884 1.419 . S
C1886 C1887 1.362 . S
C1887 H1877 0.930 . S
C1887 C1880 1.409 . S
C1887 C1886 1.362 . S
H1888 C1894 0.930 . S
H1889 C1897 0.930 . S
H1890 C1898 0.930 1_655 S
H1891 C1899 0.930 . S
H1892 C1902 0.930 . S
H1893 C1903 0.930 . S
C1894 H1888 0.930 . S
C1894 C1895 1.355 . S
C1894 C1896 1.415 1_455 S
C1895 C1894 1.355 . S
C1895 C1897 1.419 . S
C1896 C1894 1.415 1_655 S
C1896 C1901 1.425 . S
C1896 C1903 1.409 . S
C1897 H1889 0.930 . S
C1897 C1895 1.419 . S
C1897 C1898 1.362 . S
C1898 H1890 0.930 1_455 S
C1898 C1897 1.362 . S
C1898 C1901 1.409 1_455 S
C1899 H1891 0.930 . S
C1899 C1900 1.355 . S
C1899 C1901 1.415 . S
C1900 C1899 1.355 . S
C1900 C1902 1.419 . S
C1901 C1896 1.425 . S
C1901 C1898 1.409 1_655 S
C1901 C1899 1.415 . S
C1902 H1892 0.930 . S
C1902 C1900 1.419 . S
C1902 C1903 1.362 . S
C1903 H1893 0.930 . S
C1903 C1896 1.409 . S
C1903 C1902 1.362 . S
H1904 C1910 0.930 . S
H1905 C1913 0.930 . S
H1906 C1914 0.930 . S
H1907 C1915 0.928 . S
H1908 C1918 0.930 . S
H1909 C1919 0.930 . S
C1910 H1904 0.930 . S
C1910 C1911 1.355 1_545 S
C1910 C1912 1.415 . S
C1911 C1910 1.355 1_565 S
C1911 C1913 1.419 . S
C1912 C1910 1.415 . S
C1912 C1917 1.425 1_545 S
C1912 C1919 1.409 . S
C1913 H1905 0.930 . S
C1913 C1911 1.419 . S
C1913 C1914 1.362 . S
C1914 H1906 0.930 . S
C1914 C1913 1.362 . S
C1914 C1917 1.409 . S
C1915 H1907 0.928 . S
C1915 C1916 1.357 1_565 S
C1915 C1917 1.414 . S
C1916 C1915 1.357 1_545 S
C1916 C1918 1.419 . S
C1917 C1912 1.425 1_565 S
C1917 C1914 1.409 . S
C1917 C1915 1.414 . S
C1918 H1908 0.930 . S
C1918 C1916 1.419 . S
C1918 C1919 1.362 . S
C1919 H1909 0.930 . S
C1919 C1912 1.409 . S
C1919 C1918 1.362 . S
H1920 C1926 0.930 . S
H1921 C1929 0.930 . S
H1922 C1930 0.930 . S
H1923 C1931 0.930 . S
H1924 C1934 0.930 . S
H1925 C1935 0.930 . S
C1926 H1920 0.930 . S
C1926 C1927 1.346 1_455 S
C1926 C1928 1.415 . S
C1927 C1926 1.346 1_655 S
C1927 C1929 1.430 . S
C1928 C1926 1.415 . S
C1928 C1933 1.425 1_454 S
C1928 C1935 1.409 1_554 S
C1929 H1921 0.930 . S
C1929 C1927 1.430 . S
C1929 C1930 1.362 . S
C1930 H1922 0.930 . S
C1930 C1929 1.362 . S
C1930 C1933 1.409 1_554 S
C1931 H1923 0.930 . S
C1931 C1932 1.346 1_655 S
C1931 C1933 1.415 . S
C1932 C1931 1.346 1_455 S
C1932 C1934 1.430 . S
C1933 C1928 1.425 1_656 S
C1933 C1930 1.409 1_556 S
C1933 C1931 1.415 . S
C1934 H1924 0.930 . S
C1934 C1932 1.430 . S
C1934 C1935 1.362 . S
C1935 H1925 0.930 . S
C1935 C1928 1.409 1_556 S
C1935 C1934 1.362 . S
H1936 C1942 0.930 . S
H1937 C1945 0.930 . S
H1938 C1946 0.930 . S
H1939 C1947 0.930 . S
H1940 C1950 0.930 . S
H1941 C1951 0.930 . S
C1942 H1936 0.930 . S
C1942 C1943 1.355 . S
C1942 C1944 1.415 . S
C1943 C1942 1.355 . S
C1943 C1945 1.419 . S
C1944 C1942 1.415 . S
C1944 C1949 1.425 1_556 S
C1944 C1951 1.409 1_556 S
C1945 H1937 0.930 . S
C1945 C1943 1.419 . S
C1945 C1946 1.362 . S
C1946 H1938 0.930 . S
C1946 C1945 1.362 . S
C1946 C1949 1.409 1_556 S
C1947 H1939 0.930 . S
C1947 C1948 1.355 . S
C1947 C1949 1.415 . S
C1948 C1947 1.355 . S
C1948 C1950 1.419 . S
C1949 C1944 1.425 1_554 S
C1949 C1946 1.409 1_554 S
C1949 C1947 1.415 . S
C1950 H1940 0.930 . S
C1950 C1948 1.419 . S
C1950 C1951 1.362 . S
C1951 H1941 0.930 . S
C1951 C1944 1.409 1_554 S
C1951 C1950 1.362 . S
H1952 C1958 0.930 . S
H1953 C1961 0.930 . S
H1954 C1962 0.930 . S
H1955 C1963 0.930 . S
H1956 C1966 0.930 . S
H1957 C1967 0.930 . S
C1958 H1952 0.930 . S
C1958 C1959 1.355 1_455 S
C1958 C1960 1.415 . S
C1959 C1958 1.355 1_655 S
C1959 C1961 1.419 . S
C1960 C1958 1.415 . S
C1960 C1965 1.425 1_455 S
C1960 C1967 1.409 . S
C1961 H1953 0.930 . S
C1961 C1959 1.419 . S
C1961 C1962 1.362 . S
C1962 H1954 0.930 . S
C1962 C1961 1.362 . S
C1962 C1965 1.409 . S
C1963 H1955 0.930 . S
C1963 C1964 1.355 1_655 S
C1963 C1965 1.415 . S
C1964 C1963 1.355 1_455 S
C1964 C1966 1.419 . S
C1965 C1960 1.425 1_655 S
C1965 C1962 1.409 . S
C1965 C1963 1.415 . S
C1966 H1956 0.930 . S
C1966 C1964 1.419 . S
C1966 C1967 1.362 . S
C1967 H1957 0.930 . S
C1967 C1960 1.409 . S
C1967 C1966 1.362 . S
H1968 C1974 0.930 . S
H1969 C1977 0.930 . S
H1970 C1978 0.930 . S
H1971 C1979 0.930 . S
H1972 C1982 0.930 . S
H1973 C1983 0.930 . S
C1974 H1968 0.930 . S
C1974 C1975 1.355 . S
C1974 C1976 1.415 . S
C1975 C1974 1.355 . S
C1975 C1977 1.419 . S
C1976 C1974 1.415 . S
C1976 C1981 1.425 . S
C1976 C1983 1.409 . S
C1977 H1969 0.930 . S
C1977 C1975 1.419 . S
C1977 C1978 1.362 . S
C1978 H1970 0.930 . S
C1978 C1977 1.362 . S
C1978 C1981 1.409 . S
C1979 H1971 0.930 . S
C1979 C1980 1.355 . S
C1979 C1981 1.415 . S
C1980 C1979 1.355 . S
C1980 C1982 1.419 . S
C1981 C1976 1.425 . S
C1981 C1978 1.409 . S
C1981 C1979 1.415 . S
C1982 H1972 0.930 . S
C1982 C1980 1.419 . S
C1982 C1983 1.362 . S
C1983 H1973 0.930 . S
C1983 C1976 1.409 . S
C1983 C1982 1.362 . S
H1984 C1990 0.930 . S
H1985 C1993 0.930 . S
H1986 C1994 0.930 . S
H1987 C1995 0.930 . S
H1988 C1998 0.930 . S
H1989 C1999 0.930 . S
C1990 H1984 0.930 . S
C1990 C1991 1.355 . S
C1990 C1992 1.415 . S
C1991 C1990 1.355 . S
C1991 C1993 1.419 . S
C1992 C1990 1.415 . S
C1992 C1997 1.425 1_556 S
C1992 C1999 1.409 1_556 S
C1993 H1985 0.930 . S
C1993 C1991 1.419 . S
C1993 C1994 1.362 . S
C1994 H1986 0.930 . S
C1994 C1993 1.362 . S
C1994 C1997 1.409 1_556 S
C1995 H1987 0.930 . S
C1995 C1996 1.355 . S
C1995 C1997 1.415 . S
C1996 C1995 1.355 . S
C1996 C1998 1.419 . S
C1997 C1992 1.425 1_554 S
C1997 C1994 1.409 1_554 S
C1997 C1995 1.415 . S
C1998 H1988 0.930 . S
C1998 C1996 1.419 . S
C1998 C1999 1.362 . S
C1999 H1989 0.930 . S
C1999 C1992 1.409 1_554 S
C1999 C1998 1.362 . S
H2000 C2006 0.930 . S
H2001 C2009 0.930 . S
H2002 C2010 0.930 . S
H2003 C2011 0.930 . S
H2004 C2014 0.930 . S
H2005 C2015 0.930 . S
C2006 H2000 0.930 . S
C2006 C2007 1.355 1_455 S
C2006 C2008 1.415 . S
C2007 C2006 1.355 1_655 S
C2007 C2009 1.419 . S
C2008 C2006 1.415 . S
C2008 C2013 1.425 1_455 S
C2008 C2015 1.409 . S
C2009 H2001 0.930 . S
C2009 C2007 1.419 . S
C2009 C2010 1.362 . S
C2010 H2002 0.930 . S
C2010 C2009 1.362 . S
C2010 C2013 1.409 . S
C2011 H2003 0.930 . S
C2011 C2012 1.355 1_655 S
C2011 C2013 1.415 . S
C2012 C2011 1.355 1_455 S
C2012 C2014 1.419 . S
C2013 C2008 1.425 1_655 S
C2013 C2010 1.409 . S
C2013 C2011 1.415 . S
C2014 H2004 0.930 . S
C2014 C2012 1.419 . S
C2014 C2015 1.362 . S
C2015 H2005 0.930 . S
C2015 C2008 1.409 . S
C2015 C2014 1.362 . S
H2016 C2022 0.930 . S
H2017 C2025 0.930 . S
H2018 C2026 0.930 . S
H2019 C2027 0.930 . S
H2020 C2030 0.930 . S
H2021 C2031 0.930 . S
C2022 H2016 0.930 . S
C2022 C2023 1.355 . S
C2022 C2024 1.415 . S
C2023 C2022 1.355 . S
C2023 C2025 1.419 . S
C2024 C2022 1.415 . S
C2024 C2029 1.425 . S
C2024 C2031 1.409 . S
C2025 H2017 0.930 . S
C2025 C2023 1.419 . S
C2025 C2026 1.362 . S
C2026 H2018 0.930 . S
C2026 C2025 1.362 . S
C2026 C2029 1.409 . S
C2027 H2019 0.930 . S
C2027 C2028 1.355 . S
C2027 C2029 1.415 . S
C2028 C2027 1.355 . S
C2028 C2030 1.419 . S
C2029 C2024 1.425 . S
C2029 C2026 1.409 . S
C2029 C2027 1.415 . S
C2030 H2020 0.930 . S
C2030 C2028 1.419 . S
C2030 C2031 1.362 . S
C2031 H2021 0.930 . S
C2031 C2024 1.409 . S
C2031 C2030 1.362 . S
H2032 C2038 0.930 . S
H2033 C2041 0.930 . S
H2034 C2042 0.930 . S
H2035 C2043 0.930 . S
H2036 C2046 0.930 . S
H2037 C2047 0.930 . S
C2038 H2032 0.930 . S
C2038 C2039 1.355 1_445 S
C2038 C2040 1.415 . S
C2039 C2038 1.355 1_665 S
C2039 C2041 1.419 . S
C2040 C2038 1.415 . S
C2040 C2045 1.425 1_445 S
C2040 C2047 1.409 . S
C2041 H2033 0.930 . S
C2041 C2039 1.419 . S
C2041 C2042 1.362 . S
C2042 H2034 0.930 . S
C2042 C2041 1.362 . S
C2042 C2045 1.409 . S
C2043 H2035 0.930 . S
C2043 C2044 1.355 1_665 S
C2043 C2045 1.415 . S
C2044 C2043 1.355 1_445 S
C2044 C2046 1.419 . S
C2045 C2040 1.425 1_665 S
C2045 C2042 1.409 . S
C2045 C2043 1.415 . S
C2046 H2036 0.930 . S
C2046 C2044 1.419 . S
C2046 C2047 1.362 . S
C2047 H2037 0.930 . S
C2047 C2040 1.409 . S
C2047 C2046 1.362 . S
H2048 C2054 0.930 . S
H2049 C2057 0.930 . S
H2050 C2058 0.930 . S
H2051 C2059 0.930 . S
H2052 C2062 0.930 . S
H2053 C2063 0.930 . S
C2054 H2048 0.930 . S
C2054 C2055 1.355 . S
C2054 C2056 1.415 . S
C2055 C2054 1.355 . S
C2055 C2057 1.419 . S
C2056 C2054 1.415 . S
C2056 C2061 1.425 . S
C2056 C2063 1.409 . S
C2057 H2049 0.930 . S
C2057 C2055 1.419 . S
C2057 C2058 1.362 . S
C2058 H2050 0.930 . S
C2058 C2057 1.362 . S
C2058 C2061 1.409 . S
C2059 H2051 0.930 . S
C2059 C2060 1.355 . S
C2059 C2061 1.415 . S
C2060 C2059 1.355 . S
C2060 C2062 1.419 . S
C2061 C2056 1.425 . S
C2061 C2058 1.409 . S
C2061 C2059 1.415 . S
C2062 H2052 0.930 . S
C2062 C2060 1.419 . S
C2062 C2063 1.362 . S
C2063 H2053 0.930 . S
C2063 C2056 1.409 . S
C2063 C2062 1.362 . S
H2064 C2070 0.930 . S
H2065 C2073 0.930 . S
H2066 C2074 0.930 . S
H2067 C2075 0.930 . S
H2068 C2078 0.930 . S
H2069 C2079 0.930 . S
C2070 H2064 0.930 . S
C2070 C2071 1.371 . S
C2070 C2072 1.415 . S
C2071 C2070 1.371 . S
C2071 C2073 1.399 1_545 S
C2072 C2070 1.415 . S
C2072 C2077 1.425 1_545 S
C2072 C2079 1.409 . S
C2073 H2065 0.930 . S
C2073 C2071 1.399 1_565 S
C2073 C2074 1.362 . S
C2074 H2066 0.930 . S
C2074 C2073 1.362 . S
C2074 C2077 1.409 . S
C2075 H2067 0.930 . S
C2075 C2076 1.371 . S
C2075 C2077 1.415 . S
C2076 C2075 1.371 . S
C2076 C2078 1.399 1_565 S
C2077 C2072 1.425 1_565 S
C2077 C2074 1.409 . S
C2077 C2075 1.415 . S
C2078 H2068 0.930 . S
C2078 C2076 1.399 1_545 S
C2078 C2079 1.362 . S
C2079 H2069 0.930 . S
C2079 C2072 1.409 . S
C2079 C2078 1.362 . S
H2080 C2086 0.930 . S
H2081 C2089 0.930 . S
H2082 C2090 0.930 . S
H2083 C2091 0.930 . S
H2084 C2094 0.930 . S
H2085 C2095 0.930 . S
C2086 H2080 0.930 . S
C2086 C2087 1.355 . S
C2086 C2088 1.415 . S
C2087 C2086 1.355 . S
C2087 C2089 1.419 . S
C2088 C2086 1.415 . S
C2088 C2093 1.425 . S
C2088 C2095 1.409 . S
C2089 H2081 0.930 . S
C2089 C2087 1.419 . S
C2089 C2090 1.362 . S
C2090 H2082 0.930 . S
C2090 C2089 1.362 . S
C2090 C2093 1.409 . S
C2091 H2083 0.930 . S
C2091 C2092 1.355 . S
C2091 C2093 1.415 . S
C2092 C2091 1.355 . S
C2092 C2094 1.419 . S
C2093 C2088 1.425 . S
C2093 C2090 1.409 . S
C2093 C2091 1.415 . S
C2094 H2084 0.930 . S
C2094 C2092 1.419 . S
C2094 C2095 1.362 . S
C2095 H2085 0.930 . S
C2095 C2088 1.409 . S
C2095 C2094 1.362 . S
H2096 C2102 0.930 . S
H2097 C2105 0.930 . S
H2098 C2106 0.930 . S
H2099 C2107 0.930 . S
H2100 C2110 0.930 . S
H2101 C2111 0.930 . S
C2102 H2096 0.930 . S
C2102 C2103 1.346 1_565 S
C2102 C2104 1.415 . S
C2103 C2102 1.346 1_545 S
C2103 C2105 1.432 . S
C2104 C2102 1.415 . S
C2104 C2109 1.425 1_565 S
C2104 C2111 1.409 . S
C2105 H2097 0.930 . S
C2105 C2103 1.432 . S
C2105 C2106 1.362 . S
C2106 H2098 0.930 . S
C2106 C2105 1.362 . S
C2106 C2109 1.409 . S
C2107 H2099 0.930 . S
C2107 C2108 1.346 1_545 S
C2107 C2109 1.415 . S
C2108 C2107 1.346 1_565 S
C2108 C2110 1.432 . S
C2109 C2104 1.425 1_545 S
C2109 C2106 1.409 . S
C2109 C2107 1.415 . S
C2110 H2100 0.930 . S
C2110 C2108 1.432 . S
C2110 C2111 1.362 . S
C2111 H2101 0.930 . S
C2111 C2104 1.409 . S
C2111 C2110 1.362 . S
H2112 C2118 0.930 . S
H2113 C2121 0.930 . S
H2114 C2122 0.930 . S
H2115 C2123 0.930 . S
H2116 C2126 0.930 . S
H2117 C2127 0.930 . S
C2118 H2112 0.930 . S
C2118 C2119 1.355 . S
C2118 C2120 1.415 . S
C2119 C2118 1.355 . S
C2119 C2121 1.419 . S
C2120 C2118 1.415 . S
C2120 C2125 1.425 . S
C2120 C2127 1.409 . S
C2121 H2113 0.930 . S
C2121 C2119 1.419 . S
C2121 C2122 1.362 . S
C2122 H2114 0.930 . S
C2122 C2121 1.362 . S
C2122 C2125 1.409 . S
C2123 H2115 0.930 . S
C2123 C2124 1.355 . S
C2123 C2125 1.415 . S
C2124 C2123 1.355 . S
C2124 C2126 1.419 . S
C2125 C2120 1.425 . S
C2125 C2122 1.409 . S
C2125 C2123 1.415 . S
C2126 H2116 0.930 . S
C2126 C2124 1.419 . S
C2126 C2127 1.362 . S
C2127 H2117 0.930 . S
C2127 C2120 1.409 . S
C2127 C2126 1.362 . S
H2128 C2134 0.930 . S
H2129 C2137 0.930 . S
H2130 C2138 0.930 . S
H2131 C2139 0.930 . S
H2132 C2142 0.930 . S
H2133 C2143 0.930 . S
C2134 H2128 0.930 . S
C2134 C2135 1.355 . S
C2134 C2136 1.415 . S
C2135 C2134 1.355 . S
C2135 C2137 1.419 . S
C2136 C2134 1.415 . S
C2136 C2141 1.425 . S
C2136 C2143 1.409 . S
C2137 H2129 0.930 . S
C2137 C2135 1.419 . S
C2137 C2138 1.362 . S
C2138 H2130 0.930 . S
C2138 C2137 1.362 . S
C2138 C2141 1.409 . S
C2139 H2131 0.930 . S
C2139 C2140 1.355 . S
C2139 C2141 1.415 . S
C2140 C2139 1.355 . S
C2140 C2142 1.419 . S
C2141 C2136 1.425 . S
C2141 C2138 1.409 . S
C2141 C2139 1.415 . S
C2142 H2132 0.930 . S
C2142 C2140 1.419 . S
C2142 C2143 1.362 . S
C2143 H2133 0.930 . S
C2143 C2136 1.409 . S
C2143 C2142 1.362 . S
H2144 C2150 0.930 . S
H2145 C2153 0.930 . S
H2146 C2154 0.930 . S
H2147 C2155 0.930 . S
H2148 C2158 0.930 . S
H2149 C2159 0.930 . S
C2150 H2144 0.930 . S
C2150 C2151 1.355 . S
C2150 C2152 1.415 . S
C2151 C2150 1.355 . S
C2151 C2153 1.419 . S
C2152 C2150 1.415 . S
C2152 C2157 1.425 . S
C2152 C2159 1.409 . S
C2153 H2145 0.930 . S
C2153 C2151 1.419 . S
C2153 C2154 1.362 . S
C2154 H2146 0.930 . S
C2154 C2153 1.362 . S
C2154 C2157 1.409 . S
C2155 H2147 0.930 . S
C2155 C2156 1.355 . S
C2155 C2157 1.415 . S
C2156 C2155 1.355 . S
C2156 C2158 1.419 . S
C2157 C2152 1.425 . S
C2157 C2154 1.409 . S
C2157 C2155 1.415 . S
C2158 H2148 0.930 . S
C2158 C2156 1.419 . S
C2158 C2159 1.362 . S
C2159 H2149 0.930 . S
C2159 C2152 1.409 . S
C2159 C2158 1.362 . S
H2160 C2166 0.931 . S
H2161 C2169 0.930 . S
H2162 C2170 0.930 . S
H2163 C2171 0.931 . S
H2164 C2174 0.930 . S
H2165 C2175 0.930 . S
C2166 H2160 0.931 . S
C2166 C2167 1.353 1_545 S
C2166 C2168 1.415 . S
C2167 C2166 1.353 1_565 S
C2167 C2169 1.420 . S
C2168 C2166 1.415 . S
C2168 C2173 1.425 1_544 S
C2168 C2175 1.409 1_554 S
C2169 H2161 0.930 . S
C2169 C2167 1.420 . S
C2169 C2170 1.363 . S
C2170 H2162 0.930 . S
C2170 C2169 1.363 . S
C2170 C2173 1.409 1_554 S
C2171 H2163 0.931 . S
C2171 C2172 1.353 1_565 S
C2171 C2173 1.415 . S
C2172 C2171 1.353 1_545 S
C2172 C2174 1.420 . S
C2173 C2168 1.425 1_566 S
C2173 C2170 1.409 1_556 S
C2173 C2171 1.415 . S
C2174 H2164 0.930 . S
C2174 C2172 1.420 . S
C2174 C2175 1.363 . S
C2175 H2165 0.930 . S
C2175 C2168 1.409 1_556 S
C2175 C2174 1.363 . S
C647 C18 1.566 . S
C652 C518 1.581 . S
C663 C498 1.576 . S
C668 C38 1.551 . S
C679 C558 1.553 . S
C684 C58 1.579 . S
C695 C78 1.573 . S
C700 C538 1.577 . S
C711 C99 1.578 . S
C716 C599 1.571 . S
C727 C119 1.562 . S
C732 C579 1.555 . S
C743 C139 1.554 . S
C748 C639 1.580 . S
C759 C619 1.551 . S
C764 C159 1.569 . S
C775 C178 1.551 . S
C780 C358 1.571 . S
C791 C198 1.566 . S
C796 C338 1.553 . S
C807 C218 1.552 . S
C812 C398 1.567 . S
C823 C378 1.582 . S
C828 C238 1.563 . S
C839 C259 1.579 . S
C844 C439 1.553 . S
C855 C279 1.563 . S
C860 C419 1.582 . S
C871 C479 1.551 . S
C876 C299 1.571 . S
C887 C319 1.564 . S
C892 C459 1.553 . S
C903 C8 1.560 . S
C908 C68 1.550 . S
C919 C28 1.550 . S
C924 C48 1.526 . S
C935 C149 1.538 . S
C940 C89 1.530 . S
C951 C129 1.533 . S
C956 C109 1.534 . S
C967 C168 1.530 1_565 S
C972 C228 1.529 1_565 S
C983 C188 1.544 . S
C988 C208 1.563 . S
C999 C249 1.525 1_545 S
C1004 C309 1.539 1_545 S
C1015 C289 1.526 . S
C1020 C269 1.550 . S
C1031 C328 1.527 . S
C1036 C388 1.554 . S
C1047 C348 1.526 . S
C1052 C368 1.547 . S
C1063 C469 1.529 . S
C1068 C409 1.539 . S
C1079 C429 1.554 . S
C1084 C449 1.558 . S
C1095 C548 1.530 . S
C1100 C488 1.552 1_565 S
C1111 C508 1.563 . S
C1116 C528 1.541 . S
C1127 C629 1.551 1_545 S
C1132 C569 1.529 . S
C1143 C609 1.545 . S
C1148 C589 1.527 . S
C1159 C39 1.478 . S
C1164 C19 1.502 . S
C1175 C59 1.535 . S
C1180 C79 1.532 . S
C1191 C118 1.501 . S
C1196 C98 1.526 . S
C1207 C158 1.476 . S
C1212 C138 1.499 . S
C1223 C179 1.477 . S
C1228 C199 1.472 . S
C1239 C219 1.471 . S
C1244 C239 1.486 . S
C1255 C278 1.506 . S
C1260 C258 1.480 . S
C1271 C298 1.500 . S
C1276 C318 1.526 . S
C1287 C339 1.536 . S
C1292 C359 1.529 . S
C1303 C399 1.527 . S
C1308 C379 1.502 . S
C1319 C418 1.535 . S
C1324 C438 1.531 . S
C1335 C458 1.522 . S
C1340 C478 1.495 . S
C1351 C499 1.474 . S
C1356 C519 1.495 . S
C1367 C539 1.510 . S
C1372 C559 1.532 . S
C1383 C598 1.485 . S
C1388 C578 1.512 . S
C1399 C618 1.495 . S
C1404 C638 1.522 . S
C1415 C2 1.619 . S
C1420 C1 1.619 . S
C1431 C22 1.588 . S
C1436 C21 1.588 . S
C1447 C42 1.576 . S
C1452 C41 1.576 . S
C1463 C61 1.597 . S
C1468 C62 1.597 . S
C1479 C82 1.639 . S
C1484 C81 1.639 . S
C1495 C101 1.575 . S
C1500 C102 1.575 . S
C1511 C122 1.634 . S
C1516 C121 1.634 . S
C1527 C142 1.625 . S
C1532 C141 1.625 . S
C1543 C161 1.576 . S
C1548 C162 1.576 . S
C1559 C182 1.640 . S
C1564 C181 1.640 . S
C1575 C202 1.577 . S
C1580 C201 1.577 . S
C1591 C221 1.577 . S
C1596 C222 1.577 . S
C1607 C242 1.577 . S
C1612 C241 1.577 . S
C1623 C261 1.585 . S
C1628 C262 1.585 . S
C1639 C281 1.640 . S
C1644 C282 1.640 . S
C1655 C302 1.640 . S
C1660 C301 1.640 . S
C1671 C322 1.594 . S
C1676 C321 1.594 . S
C1687 C341 1.608 . S
C1692 C342 1.608 1_455 S
C1703 C361 1.575 . S
C1708 C362 1.575 . S
C1719 C382 1.640 1_455 S
C1724 C381 1.640 . S
C1735 C401 1.598 . S
C1740 C402 1.598 . S
C1751 C421 1.638 1_655 S
C1756 C422 1.638 . S
C1767 C442 1.575 . S
C1772 C441 1.575 . S
C1783 C461 1.580 1_655 S
C1788 C462 1.580 . S
C1799 C481 1.640 . S
C1804 C482 1.640 . S
C1815 C502 1.579 1_455 S
C1820 C501 1.579 . S
C1831 C521 1.580 . S
C1836 C522 1.580 . S
C1847 C541 1.629 . S
C1852 C542 1.629 1_455 S
C1863 C561 1.631 . S
C1868 C562 1.631 . S
C1879 C581 1.577 1_655 S
C1884 C582 1.577 . S
C1895 C602 1.584 . S
C1900 C601 1.584 . S
C1911 C622 1.630 . S
C1916 C621 1.630 1_655 S
C1927 C9 1.491 1_655 S
C1932 C88 1.491 1_455 S
C1943 C588 1.458 . S
C1948 C29 1.458 . S
C1959 C288 1.431 . S
C1964 C49 1.431 . S
C1975 C69 1.495 . S
C1980 C468 1.495 . S
C1991 C108 1.486 . S
C1996 C509 1.486 . S
C2007 C128 1.426 . S
C2012 C209 1.426 . S
C2023 C148 1.439 . S
C2028 C389 1.439 . S
C2039 C169 1.491 1_655 S
C2044 C248 1.491 1_455 S
C2055 C428 1.434 . S
C2060 C189 1.434 . S
C2071 C628 1.501 . S
C2076 C229 1.501 . S
C2087 C268 1.494 . S
C2092 C349 1.494 . S
C2103 C549 1.486 1_545 S
C2108 C308 1.486 1_565 S
C2119 C329 1.425 . S
C2124 C408 1.425 . S
C2135 C608 1.424 . S
C2140 C369 1.424 . S
C2151 C448 1.478 . S
C2156 C529 1.478 . S
C2167 C489 1.500 . S
C2172 C568 1.500 . S
