# Generated by pormake.
# Topology wkj, (6)-cn, num edge types: 1
# Building blocks:
#     Node 0, Type 0, BuildingBlock: MIFKUJ_clean_sbu_0, # of connection points: 6
#     Node 1, Type 0, BuildingBlock: MIFKUJ_clean_sbu_0, # of connection points: 6
#     Node 2, Type 0, BuildingBlock: MIFKUJ_clean_sbu_0, # of connection points: 6
#     Node 3, Type 0, BuildingBlock: MIFKUJ_clean_sbu_0, # of connection points: 6
#     Node 4, Type 0, BuildingBlock: MIFKUJ_clean_sbu_0, # of connection points: 6
#     Node 5, Type 0, BuildingBlock: MIFKUJ_clean_sbu_0, # of connection points: 6
#     Node 6, Type 0, BuildingBlock: MIFKUJ_clean_sbu_0, # of connection points: 6
#     Node 7, Type 0, BuildingBlock: MIFKUJ_clean_sbu_0, # of connection points: 6
#     Node 8, Type 0, BuildingBlock: MIFKUJ_clean_sbu_0, # of connection points: 6
#     Node 9, Type 0, BuildingBlock: MIFKUJ_clean_sbu_0, # of connection points: 6
#     Node 10, Type 0, BuildingBlock: MIFKUJ_clean_sbu_0, # of connection points: 6
#     Node 11, Type 0, BuildingBlock: MIFKUJ_clean_sbu_0, # of connection points: 6
#     Edge 12, Type (0, 0), BuildingBlock: TEMPAE_clean_linker_10, # of connection points: 2
#     Edge 13, Type (0, 0), BuildingBlock: TEMPAE_clean_linker_10, # of connection points: 2
#     Edge 14, Type (0, 0), BuildingBlock: TEMPAE_clean_linker_10, # of connection points: 2
#     Edge 15, Type (0, 0), BuildingBlock: TEMPAE_clean_linker_10, # of connection points: 2
#     Edge 16, Type (0, 0), BuildingBlock: TEMPAE_clean_linker_10, # of connection points: 2
#     Edge 17, Type (0, 0), BuildingBlock: TEMPAE_clean_linker_10, # of connection points: 2
#     Edge 18, Type (0, 0), BuildingBlock: TEMPAE_clean_linker_10, # of connection points: 2
#     Edge 19, Type (0, 0), BuildingBlock: TEMPAE_clean_linker_10, # of connection points: 2
#     Edge 20, Type (0, 0), BuildingBlock: TEMPAE_clean_linker_10, # of connection points: 2
#     Edge 21, Type (0, 0), BuildingBlock: TEMPAE_clean_linker_10, # of connection points: 2
#     Edge 22, Type (0, 0), BuildingBlock: TEMPAE_clean_linker_10, # of connection points: 2
#     Edge 23, Type (0, 0), BuildingBlock: TEMPAE_clean_linker_10, # of connection points: 2
#     Edge 24, Type (0, 0), BuildingBlock: TEMPAE_clean_linker_10, # of connection points: 2
#     Edge 25, Type (0, 0), BuildingBlock: TEMPAE_clean_linker_10, # of connection points: 2
#     Edge 26, Type (0, 0), BuildingBlock: TEMPAE_clean_linker_10, # of connection points: 2
#     Edge 27, Type (0, 0), BuildingBlock: TEMPAE_clean_linker_10, # of connection points: 2
#     Edge 28, Type (0, 0), BuildingBlock: TEMPAE_clean_linker_10, # of connection points: 2
#     Edge 29, Type (0, 0), BuildingBlock: TEMPAE_clean_linker_10, # of connection points: 2
#     Edge 30, Type (0, 0), BuildingBlock: TEMPAE_clean_linker_10, # of connection points: 2
#     Edge 31, Type (0, 0), BuildingBlock: TEMPAE_clean_linker_10, # of connection points: 2
#     Edge 32, Type (0, 0), BuildingBlock: TEMPAE_clean_linker_10, # of connection points: 2
#     Edge 33, Type (0, 0), BuildingBlock: TEMPAE_clean_linker_10, # of connection points: 2
#     Edge 34, Type (0, 0), BuildingBlock: TEMPAE_clean_linker_10, # of connection points: 2
#     Edge 35, Type (0, 0), BuildingBlock: TEMPAE_clean_linker_10, # of connection points: 2
#     Edge 36, Type (0, 0), BuildingBlock: TEMPAE_clean_linker_10, # of connection points: 2
#     Edge 37, Type (0, 0), BuildingBlock: TEMPAE_clean_linker_10, # of connection points: 2
#     Edge 38, Type (0, 0), BuildingBlock: TEMPAE_clean_linker_10, # of connection points: 2
#     Edge 39, Type (0, 0), BuildingBlock: TEMPAE_clean_linker_10, # of connection points: 2
#     Edge 40, Type (0, 0), BuildingBlock: TEMPAE_clean_linker_10, # of connection points: 2
#     Edge 41, Type (0, 0), BuildingBlock: TEMPAE_clean_linker_10, # of connection points: 2
#     Edge 42, Type (0, 0), BuildingBlock: TEMPAE_clean_linker_10, # of connection points: 2
#     Edge 43, Type (0, 0), BuildingBlock: TEMPAE_clean_linker_10, # of connection points: 2
#     Edge 44, Type (0, 0), BuildingBlock: TEMPAE_clean_linker_10, # of connection points: 2
#     Edge 45, Type (0, 0), BuildingBlock: TEMPAE_clean_linker_10, # of connection points: 2
#     Edge 46, Type (0, 0), BuildingBlock: TEMPAE_clean_linker_10, # of connection points: 2
#     Edge 47, Type (0, 0), BuildingBlock: TEMPAE_clean_linker_10, # of connection points: 2
# Relax obj value: 0.308
# Max RMSD: 0.210
# Mean RMSD: 0.210
data_MOF--net-wkj--node1-MIFKUJ_clean_sbu_0--edge1-TEMPAE_clean_linker_10
_symmetry_space_group_name_H-M    P1
_symmetry_Int_Tables_number       1
_symmetry_cell_setting            triclinic
loop_
_symmetry_equiv_pos_as_xyz
'x, y, z'
_cell_length_a     47.258952
_cell_length_b     47.54054
_cell_length_c     31.033251
_cell_angle_alpha  90.161115
_cell_angle_beta   89.886049
_cell_angle_gamma 119.7762
loop_
_atom_site_label
_atom_site_type_symbol
_atom_site_fract_x
_atom_site_fract_y
_atom_site_fract_z
_atom_type_partial_charge
Zn0 Zn 0.42822 0.08246 0.18671 0.0
Zn1 Zn 0.41178 0.08275 0.32082 0.0
C2 C 0.4018 0.0321 0.12766 0.0
O3 O 0.42958 0.03389 0.1381 0.0
C4 C 0.46037 0.12353 0.38333 0.0
O5 O 0.43995 0.13401 0.3918 0.0
O6 O 0.46517 0.11268 0.14779 0.0
O7 O 0.41192 0.10411 0.2303 0.0
O8 O 0.40084 0.11493 0.29561 0.0
C9 C 0.4624 0.12481 0.11265 0.0
O10 O 0.43455 0.12326 0.10335 0.0
O11 O 0.3935 0.05054 0.1469 0.0
C12 C 0.36391 0.06284 0.38675 0.0
O13 O 0.37148 0.09339 0.38522 0.0
O14 O 0.37671 0.05227 0.35987 0.0
O15 O 0.41639 0.06071 0.27053 0.0
O16 O 0.44795 0.06042 0.22054 0.0
O17 O 0.45387 0.10318 0.35316 0.0
C18 C 0.40151 0.11859 0.25486 0.0
C19 C 0.44033 0.05734 0.26001 0.0
Zn20 Zn 0.32795 0.40878 0.5055 0.0
Zn21 Zn 0.32699 0.42418 0.64303 0.0
C22 C 0.33072 0.37848 0.43309 0.0
O23 O 0.35917 0.40487 0.43729 0.0
C24 C 0.34055 0.48256 0.68762 0.0
O25 O 0.30902 0.46565 0.69484 0.0
O26 O 0.34596 0.45005 0.47005 0.0
O27 O 0.29943 0.40927 0.55493 0.0
O28 O 0.2836 0.41509 0.61952 0.0
C29 C 0.33297 0.46652 0.45765 0.0
O30 O 0.30359 0.45866 0.47111 0.0
O31 O 0.30897 0.37182 0.46179 0.0
C32 C 0.34029 0.40595 0.72428 0.0
O33 O 0.36449 0.43592 0.72226 0.0
O34 O 0.3204 0.39452 0.69298 0.0
O35 O 0.34846 0.41602 0.59317 0.0
O36 O 0.36732 0.40959 0.53256 0.0
O37 O 0.35357 0.47061 0.66326 0.0
C38 C 0.27763 0.40875 0.57953 0.0
C39 C 0.37095 0.41471 0.57288 0.0
Zn40 Zn 0.87734 0.33603 0.85975 0.0
Zn41 Zn 0.87547 0.31502 -0.00436 0.0
C42 C 0.91205 0.33937 0.78968 0.0
O43 O 0.91485 0.36803 0.79548 0.0
C44 C 0.8559 0.35603 0.04027 0.0
O45 O 0.84003 0.35327 0.00435 0.0
O46 O 0.85395 0.35497 0.82496 0.0
O47 O 0.85248 0.30909 0.91103 0.0
O48 O 0.83056 0.28415 0.97113 0.0
C49 C 0.83995 0.34043 0.79019 0.0
O50 O 0.83669 0.3118 0.78245 0.0
O51 O 0.89546 0.31689 0.81654 0.0
C52 C 0.92514 0.29664 0.00814 0.0
O53 O 0.93776 0.31284 0.97237 0.0
O54 O 0.89753 0.29206 0.02046 0.0
O55 O 0.90218 0.34726 0.94963 0.0
O56 O 0.91727 0.37211 0.88768 0.0
O57 O 0.87175 0.34105 0.04397 0.0
C58 C 0.82744 0.289 0.93159 0.0
C59 C 0.92277 0.37113 0.92767 0.0
Zn60 Zn 0.5199 0.88794 0.18539 0.0
Zn61 Zn 0.52991 0.87806 0.32268 0.0
C62 C 0.54413 0.92544 0.11237 0.0
O63 O 0.51503 0.92214 0.11756 0.0
C64 C 0.4884 0.83367 0.38725 0.0
O65 O 0.51552 0.83415 0.39799 0.0
O66 O 0.47736 0.85893 0.15332 0.0
O67 O 0.53443 0.86697 0.23128 0.0
O68 O 0.54564 0.85115 0.29191 0.0
C69 C 0.47319 0.8392 0.12291 0.0
O70 O 0.49616 0.8321 0.11453 0.0
O71 O 0.55406 0.91248 0.13986 0.0
C72 C 0.5537 0.91982 0.39419 0.0
O73 O 0.5231 0.91289 0.39435 0.0
O74 O 0.5634 0.90794 0.36486 0.0
O75 O 0.5209 0.90232 0.2775 0.0
O76 O 0.51181 0.92035 0.2177 0.0
O77 O 0.4884 0.84967 0.35454 0.0
C78 C 0.54501 0.85059 0.25091 0.0
C79 C 0.5134 0.92123 0.25863 0.0
Zn80 Zn 0.61731 0.53623 0.51665 0.0
Zn81 Zn 0.6425 0.55802 0.64967 0.0
C82 C 0.59802 0.56311 0.45428 0.0
O83 O 0.57272 0.53487 0.46393 0.0
C84 C 0.62898 0.50824 0.71216 0.0
O85 O 0.66087 0.52401 0.71616 0.0
O86 O 0.60635 0.49651 0.4797 0.0
O87 O 0.651 0.54433 0.56261 0.0
O88 O 0.67945 0.5541 0.62184 0.0
C89 C 0.61847 0.50104 0.442 0.0
O90 O 0.63974 0.53059 0.42988 0.0
O91 O 0.62418 0.57258 0.4758 0.0
C92 C 0.63134 0.59388 0.70737 0.0
O93 O 0.60287 0.57257 0.69166 0.0
O94 O 0.65666 0.59532 0.69098 0.0
O95 O 0.61469 0.55872 0.601 0.0
O96 O 0.57876 0.52673 0.55379 0.0
O97 O 0.61581 0.51795 0.68478 0.0
C98 C 0.67474 0.5451 0.58252 0.0
C99 C 0.58549 0.53766 0.59211 0.0
Zn100 Zn 0.0842 0.61224 0.86323 0.0
Zn101 Zn 0.07609 0.63886 0.98741 0.0
C102 C 0.03207 0.61441 0.81792 0.0
O103 O 0.01411 0.5903 0.84397 0.0
C104 C 0.11323 0.63101 0.05488 0.0
O105 O 0.12474 0.66227 0.05999 0.0
O106 O 0.10968 0.59829 0.82421 0.0
O107 O 0.10814 0.64021 0.9148 0.0
O108 O 0.11148 0.67831 0.95729 0.0
C109 C 0.12261 0.61434 0.78995 0.0
O110 O 0.12249 0.64157 0.78355 0.0
O111 O 0.06277 0.63006 0.82358 0.0
C112 C 0.02941 0.62713 0.04928 0.0
O113 O 0.02713 0.59861 0.04451 0.0
O114 O 0.04909 0.65027 0.02541 0.0
O115 O 0.05028 0.6102 0.93789 0.0
O116 O 0.05018 0.57334 0.89558 0.0
O117 O 0.09368 0.6164 0.02407 0.0
C118 C 0.11758 0.66986 0.92109 0.0
C119 C 0.04279 0.58097 0.93159 0.0
Zn120 Zn 0.89143 0.52259 0.46919 0.0
Zn121 Zn 0.88045 0.55017 0.3422 0.0
C122 C 0.94132 0.55781 0.52476 0.0
O123 O 0.94536 0.53379 0.51131 0.0
C124 C 0.85307 0.49193 0.28851 0.0
O125 O 0.8311 0.47879 0.31912 0.0
O126 O 0.87342 0.48474 0.51094 0.0
O127 O 0.85531 0.52369 0.43327 0.0
O128 O 0.83804 0.5352 0.37271 0.0
C129 C 0.85325 0.4811 0.54062 0.0
O130 O 0.84107 0.5006 0.54242 0.0
O131 O 0.91868 0.56119 0.50774 0.0
C132 C 0.92936 0.61534 0.32269 0.0
O133 O 0.94574 0.61017 0.3528 0.0
O134 O 0.89934 0.59483 0.31786 0.0
O135 O 0.90734 0.54683 0.3876 0.0
O136 O 0.9204 0.51728 0.42631 0.0
O137 O 0.87561 0.52119 0.29225 0.0
C138 C 0.83283 0.5243 0.41124 0.0
C139 C 0.91994 0.52888 0.38978 0.0
Zn140 Zn 0.33278 0.86568 0.80439 0.0
Zn141 Zn 0.319 0.86166 0.66738 0.0
C142 C 0.33613 0.92205 0.84488 0.0
O143 O 0.35622 0.93739 0.81298 0.0
C144 C 0.32997 0.81613 0.61104 0.0
O145 O 0.3033 0.79092 0.62547 0.0
O146 O 0.34231 0.83625 0.84179 0.0
O147 O 0.29873 0.84464 0.75605 0.0
O148 O 0.27509 0.83009 0.69267 0.0
C149 C 0.32902 0.826 0.87846 0.0
O150 O 0.30366 0.8289 0.88906 0.0
O151 O 0.32139 0.89127 0.84557 0.0
C152 C 0.34305 0.92035 0.62374 0.0
O153 O 0.36942 0.91784 0.62677 0.0
O154 O 0.31661 0.89818 0.63971 0.0
O155 O 0.34862 0.87914 0.71694 0.0
O156 O 0.37632 0.89625 0.77591 0.0
O157 O 0.33816 0.84429 0.62488 0.0
C158 C 0.27294 0.82903 0.7337 0.0
C159 C 0.37565 0.8963 0.73506 0.0
Zn160 Zn 0.47384 0.3448 0.12486 0.0
Zn161 Zn 0.44154 0.32179 0.00056 0.0
C162 C 0.43538 0.34856 0.18753 0.0
O163 O 0.46248 0.37668 0.18671 0.0
C164 C 0.48306 0.33977 0.92639 0.0
O165 O 0.46229 0.30999 0.91431 0.0
O166 O 0.51109 0.3576 0.1671 0.0
O167 O 0.47388 0.31966 0.07205 0.0
O168 O 0.44226 0.2831 0.02589 0.0
C169 C 0.50478 0.34256 0.20284 0.0
O170 O 0.47665 0.31581 0.20751 0.0
O171 O 0.43177 0.32722 0.1598 0.0
C172 C 0.3763 0.30919 0.9768 0.0
O173 O 0.37425 0.31806 0.01629 0.0
O174 O 0.40154 0.30807 0.96542 0.0
O175 O 0.44281 0.34768 0.05236 0.0
O176 O 0.4796 0.3845 0.09447 0.0
O177 O 0.47996 0.34944 0.96333 0.0
C178 C 0.45556 0.29013 0.06286 0.0
C179 C 0.46443 0.37696 0.05869 0.0
Zn180 Zn 0.08128 0.4484 0.46738 0.0
Zn181 Zn 0.07974 0.43088 0.33526 0.0
C182 C 0.05331 0.42163 0.54448 0.0
O183 O 0.05482 0.44996 0.5435 0.0
C184 C 0.11804 0.48635 0.28494 0.0
O185 O 0.13346 0.47005 0.27887 0.0
O186 O 0.10754 0.49178 0.49771 0.0
O187 O 0.10128 0.44234 0.41525 0.0
O188 O 0.11951 0.4297 0.35915 0.0
C189 C 0.12884 0.49649 0.52614 0.0
O190 O 0.13858 0.4751 0.53022 0.0
O191 O 0.06363 0.41284 0.51214 0.0
C192 C 0.04959 0.40462 0.25397 0.0
O193 O 0.05258 0.43349 0.25051 0.0
O194 O 0.05995 0.39759 0.2877 0.0
O195 O 0.04568 0.41903 0.38382 0.0
O196 O 0.04323 0.44735 0.43878 0.0
O197 O 0.09408 0.47511 0.31093 0.0
C198 C 0.12114 0.43494 0.39933 0.0
C199 C 0.03408 0.43555 0.401 0.0
Zn200 Zn 0.61348 0.0879 0.8051 0.0
Zn201 Zn 0.63602 0.09897 0.66963 0.0
C202 C 0.64019 0.05248 0.84813 0.0
O203 O 0.63299 0.03625 0.81169 0.0
C204 C 0.61766 0.12897 0.60393 0.0
O205 O 0.64853 0.15138 0.60647 0.0
O206 O 0.58724 0.10414 0.83814 0.0
O207 O 0.64074 0.11816 0.75733 0.0
O208 O 0.66631 0.14195 0.69802 0.0
C209 C 0.60106 0.12411 0.86895 0.0
O210 O 0.63227 0.13528 0.87581 0.0
O211 O 0.63818 0.07816 0.85007 0.0
C212 C 0.65757 0.05402 0.64502 0.0
O213 O 0.6461 0.04105 0.6829 0.0
O214 O 0.65895 0.08062 0.63543 0.0
O215 O 0.60844 0.06845 0.71594 0.0
O216 O 0.58331 0.04518 0.77532 0.0
O217 O 0.6067 0.10459 0.62872 0.0
C218 C 0.66143 0.14356 0.73804 0.0
C219 C 0.58704 0.04338 0.73494 0.0
Zn220 Zn 0.49062 0.6167 0.13626 0.0
Zn221 Zn 0.51211 0.63789 0.00209 0.0
C222 C 0.55289 0.63376 0.1763 0.0
O223 O 0.55517 0.61672 0.14448 0.0
C224 C 0.47906 0.63282 0.9214 0.0
O225 O 0.50351 0.66224 0.91497 0.0
O226 O 0.45072 0.59903 0.17512 0.0
O227 O 0.49001 0.64044 0.0836 0.0
O228 O 0.5157 0.67655 0.03419 0.0
C229 C 0.45295 0.61384 0.21035 0.0
O230 O 0.47871 0.64244 0.21677 0.0
O231 O 0.52979 0.64021 0.17579 0.0
C232 C 0.57618 0.64539 0.9827 0.0
O233 O 0.57202 0.62821 0.01763 0.0
O234 O 0.55439 0.65215 0.9716 0.0
O235 O 0.50367 0.6027 0.04546 0.0
O236 O 0.49255 0.57908 0.10894 0.0
O237 O 0.47684 0.61894 0.95721 0.0
C238 C 0.50679 0.66987 0.07318 0.0
C239 C 0.49872 0.57882 0.06887 0.0
C240 C 0.38197 0.1367 0.1933 0.0
C241 C 0.39283 0.14135 0.23594 0.0
C242 C 0.38266 0.1621 0.17017 0.0
C243 C 0.39516 0.19269 0.19035 0.0
C244 C 0.40081 0.19582 0.23527 0.0
C245 C 0.3996 0.16981 0.25787 0.0
C246 C 0.37506 0.1575 0.12259 0.0
C247 C 0.41266 0.22783 0.258 0.0
C248 C 0.45867 0.25522 0.11804 0.0
C249 C 0.4407 0.26719 0.09762 0.0
C250 C 0.44446 0.23206 0.15038 0.0
C251 C 0.4118 0.22158 0.16294 0.0
C252 C 0.39451 0.23574 0.14455 0.0
C253 C 0.40909 0.25815 0.11122 0.0
C254 C 0.46384 0.21755 0.16924 0.0
C255 C 0.36034 0.22639 0.15841 0.0
H256 H 0.37554 0.11409 0.17697 0.0
H257 H 0.40716 0.17299 0.29134 0.0
H258 H 0.36175 0.17012 0.11263 0.0
H259 H 0.39822 0.16805 0.10407 0.0
H260 H 0.36024 0.13146 0.11386 0.0
H261 H 0.40729 0.22434 0.29307 0.0
H262 H 0.43947 0.24286 0.25393 0.0
H263 H 0.40137 0.24142 0.24416 0.0
H264 H 0.48341 0.26312 0.10754 0.0
H265 H 0.39585 0.26854 0.09571 0.0
H266 H 0.45204 0.19142 0.16088 0.0
H267 H 0.46453 0.21956 0.20487 0.0
H268 H 0.48933 0.22959 0.15713 0.0
H269 H 0.34263 0.20582 0.13835 0.0
H270 H 0.35555 0.24683 0.15373 0.0
H271 H 0.35585 0.21882 0.19267 0.0
C272 C 0.23348 0.38499 0.52573 0.0
C273 C 0.24803 0.40572 0.56078 0.0
C274 C 0.20853 0.3858 0.50277 0.0
C275 C 0.19919 0.40881 0.51441 0.0
C276 C 0.21248 0.42844 0.55144 0.0
C277 C 0.23657 0.42625 0.57475 0.0
C278 C 0.19381 0.36364 0.4644 0.0
C279 C 0.20343 0.45367 0.56418 0.0
C280 C 0.17463 0.44242 0.42097 0.0
C281 C 0.14106 0.42754 0.42736 0.0
C282 C 0.194 0.43695 0.44988 0.0
C283 C 0.17894 0.41527 0.4847 0.0
C284 C 0.14484 0.39973 0.4906 0.0
C285 C 0.12626 0.40641 0.46191 0.0
C286 C 0.23053 0.45457 0.44347 0.0
C287 C 0.12799 0.37586 0.52668 0.0
H288 H 0.24232 0.36889 0.51551 0.0
H289 H 0.24812 0.44232 0.60192 0.0
H290 H 0.16691 0.35289 0.4642 0.0
H291 H 0.20335 0.37779 0.43427 0.0
H292 H 0.19971 0.34374 0.46416 0.0
H293 H 0.21324 0.46436 0.59634 0.0
H294 H 0.21333 0.47346 0.54 0.0
H295 H 0.17659 0.44314 0.56463 0.0
H296 H 0.18571 0.45898 0.39421 0.0
H297 H 0.10006 0.39476 0.46602 0.0
H298 H 0.23873 0.43686 0.43644 0.0
H299 H 0.24301 0.46768 0.47339 0.0
H300 H 0.23844 0.47227 0.41659 0.0
H301 H 0.13193 0.35484 0.52273 0.0
H302 H 0.10134 0.36685 0.5275 0.0
H303 H 0.13855 0.38717 0.55823 0.0
C304 C 0.77447 0.24002 0.91727 0.0
C305 C 0.79572 0.27298 0.91051 0.0
C306 C 0.74736 0.22304 0.89059 0.0
C307 C 0.74141 0.23993 0.85744 0.0
C308 C 0.76052 0.27398 0.85441 0.0
C309 C 0.78794 0.29015 0.88078 0.0
C310 C 0.72744 0.1866 0.89471 0.0
C311 C 0.75387 0.2929 0.82087 0.0
C312 C 0.71505 0.1892 0.75725 0.0
C313 C 0.68132 0.17305 0.76246 0.0
C314 C 0.73509 0.21295 0.78672 0.0
C315 C 0.72067 0.22122 0.82099 0.0
C316 C 0.68647 0.20743 0.82336 0.0
C317 C 0.66701 0.18289 0.79422 0.0
C318 C 0.77155 0.22686 0.78344 0.0
C319 C 0.67054 0.21719 0.85801 0.0
H320 H 0.78052 0.22708 0.94091 0.0
H321 H 0.80398 0.316 0.87706 0.0
H322 H 0.70102 0.17844 0.89463 0.0
H323 H 0.73238 0.17511 0.86668 0.0
H324 H 0.73325 0.17772 0.92463 0.0
H325 H 0.76613 0.31914 0.82887 0.0
H326 H 0.7631 0.29021 0.78912 0.0
H327 H 0.72731 0.28355 0.81754 0.0
H328 H 0.72578 0.18142 0.7323 0.0
H329 H 0.64068 0.17064 0.79706 0.0
H330 H 0.7804 0.21925 0.81178 0.0
H331 H 0.78406 0.25366 0.78356 0.0
H332 H 0.77874 0.21885 0.75377 0.0
H333 H 0.67556 0.21055 0.89017 0.0
H334 H 0.64371 0.20543 0.85367 0.0
H335 H 0.68098 0.24387 0.85789 0.0
C336 C 0.5543 0.71735 0.10588 0.0
C337 C 0.52091 0.69488 0.10613 0.0
C338 C 0.56727 0.74345 0.13471 0.0
C339 C 0.54585 0.7477 0.1623 0.0
C340 C 0.51246 0.72362 0.1646 0.0
C341 C 0.5005 0.69704 0.13681 0.0
C342 C 0.60335 0.76739 0.1336 0.0
C343 C 0.48877 0.72722 0.19372 0.0
C344 C 0.56173 0.80843 0.24927 0.0
C345 C 0.554 0.82943 0.22709 0.0
C346 C 0.56331 0.78345 0.22741 0.0
C347 C 0.55631 0.77932 0.18288 0.0
C348 C 0.55254 0.80285 0.15966 0.0
C349 C 0.55172 0.82788 0.18217 0.0
C350 C 0.56947 0.75991 0.25265 0.0
C351 C 0.54558 0.79963 0.11186 0.0
H352 H 0.57009 0.71482 0.08268 0.0
H353 H 0.47476 0.67909 0.13703 0.0
H354 H 0.60805 0.78774 0.11186 0.0
H355 H 0.61263 0.77761 0.16608 0.0
H356 H 0.61732 0.75594 0.12123 0.0
H357 H 0.464 0.70555 0.19287 0.0
H358 H 0.49758 0.73128 0.22747 0.0
H359 H 0.4869 0.74864 0.1837 0.0
H360 H 0.56462 0.8102 0.28399 0.0
H361 H 0.54703 0.8449 0.16484 0.0
H362 H 0.58248 0.75041 0.23285 0.0
H363 H 0.54585 0.73902 0.26279 0.0
H364 H 0.58395 0.77145 0.28215 0.0
H365 H 0.54853 0.82239 0.09778 0.0
H366 H 0.52012 0.78001 0.10628 0.0
H367 H 0.56194 0.79306 0.09438 0.0
C368 C 0.72666 0.54553 0.56962 0.0
C369 C 0.69323 0.53152 0.5624 0.0
C370 C 0.74499 0.53507 0.54611 0.0
C371 C 0.72907 0.50965 0.51569 0.0
C372 C 0.69479 0.493 0.5122 0.0
C373 C 0.67723 0.50459 0.53514 0.0
C374 C 0.78162 0.55301 0.55117 0.0
C375 C 0.67671 0.46447 0.48229 0.0
C376 C 0.78346 0.52913 0.41983 0.0
C377 C 0.80127 0.51409 0.43149 0.0
C378 C 0.75729 0.52519 0.4451 0.0
C379 C 0.74886 0.50548 0.48233 0.0
C380 C 0.76397 0.48683 0.49074 0.0
C381 C 0.7904 0.49162 0.46523 0.0
C382 C 0.74089 0.54467 0.43436 0.0
C383 C 0.75413 0.46384 0.52838 0.0
H384 H 0.73869 0.5659 0.59157 0.0
H385 H 0.65101 0.4929 0.53117 0.0
H386 H 0.79049 0.53566 0.5567 0.0
H387 H 0.79317 0.56646 0.52109 0.0
H388 H 0.78985 0.57056 0.57835 0.0
H389 H 0.65233 0.4472 0.49565 0.0
H390 H 0.67294 0.47316 0.45084 0.0
H391 H 0.69031 0.45135 0.47657 0.0
H392 H 0.79151 0.54595 0.39304 0.0
H393 H 0.80337 0.47879 0.47275 0.0
H394 H 0.74669 0.56336 0.45958 0.0
H395 H 0.71403 0.52876 0.43375 0.0
H396 H 0.74883 0.55699 0.40268 0.0
H397 H 0.76899 0.47696 0.55691 0.0
H398 H 0.75866 0.4435 0.52125 0.0
H399 H 0.72802 0.45376 0.53677 0.0
C400 C 0.23954 0.81275 0.79997 0.0
C401 C 0.24122 0.81071 0.75516 0.0
C402 C 0.21108 0.79196 0.82211 0.0
C403 C 0.18377 0.7687 0.7986 0.0
C404 C 0.1838 0.76963 0.75312 0.0
C405 C 0.21288 0.79053 0.73167 0.0
C406 C 0.21167 0.79244 0.87081 0.0
C407 C 0.15417 0.74668 0.72726 0.0
C408 C 0.15256 0.69078 0.85761 0.0
C409 C 0.13016 0.6924 0.88526 0.0
C410 C 0.16805 0.71407 0.82577 0.0
C411 C 0.16025 0.73911 0.82134 0.0
C412 C 0.13489 0.73866 0.84614 0.0
C413 C 0.12055 0.71556 0.87884 0.0
C414 C 0.19479 0.71341 0.7997 0.0
C415 C 0.12425 0.76351 0.84027 0.0
H416 H 0.26105 0.82932 0.81811 0.0
H417 H 0.21375 0.78981 0.69679 0.0
H418 H 0.18976 0.79235 0.88374 0.0
H419 H 0.2115 0.7704 0.8829 0.0
H420 H 0.23363 0.81404 0.88382 0.0
H421 H 0.1543 0.7569 0.69506 0.0
H422 H 0.15411 0.72354 0.72224 0.0
H423 H 0.13132 0.74115 0.74435 0.0
H424 H 0.15937 0.67233 0.86256 0.0
H425 H 0.10227 0.71592 0.89966 0.0
H426 H 0.21862 0.735 0.80753 0.0
H427 H 0.19038 0.71419 0.76479 0.0
H428 H 0.19661 0.69137 0.80604 0.0
H429 H 0.13691 0.78329 0.86415 0.0
H430 H 0.09763 0.75248 0.84614 0.0
H431 H 0.12988 0.77419 0.80748 0.0
C432 C 0.54757 0.11269 0.90094 0.0
C433 C 0.5817 0.13133 0.9003 0.0
C434 C 0.52934 0.11605 0.93439 0.0
C435 C 0.54558 0.13895 0.96771 0.0
C436 C 0.57983 0.15932 0.96564 0.0
C437 C 0.59749 0.15508 0.93221 0.0
C438 C 0.49288 0.09363 0.9355 0.0
C439 C 0.59809 0.18446 -5e-05 0.0
C440 C 0.49044 0.15309 0.0441 0.0
C441 C 0.48701 0.13242 0.0783 0.0
C442 C 0.51085 0.15694 0.00879 0.0
C443 C 0.52718 0.13873 0.00701 0.0
C444 C 0.5244 0.11849 0.04206 0.0
C445 C 0.50479 0.11598 0.07746 0.0
C446 C 0.51417 0.17969 0.97287 0.0
C447 C 0.54085 0.09817 0.04129 0.0
H448 H 0.53514 0.09431 0.87644 0.0
H449 H 0.62383 0.16978 0.93187 0.0
H450 H 0.48643 0.0769 0.9633 0.0
H451 H 0.48012 0.10769 0.94001 0.0
H452 H 0.48364 0.07896 0.9056 0.0
H453 H 0.62354 0.20176 0.99005 0.0
H454 H 0.58547 0.19828 0.00757 0.0
H455 H 0.5989 0.17227 0.02998 0.0
H456 H 0.47683 0.16592 0.04469 0.0
H457 H 0.502 0.09965 0.10351 0.0
H458 H 0.50166 0.16551 0.94363 0.0
H459 H 0.54023 0.19562 0.96446 0.0
H460 H 0.50343 0.19509 0.98159 0.0
H461 H 0.53132 0.08084 0.01392 0.0
H462 H 0.53683 0.08421 0.07152 0.0
H463 H 0.56746 0.11379 0.03631 0.0
C464 C 0.40259 0.56639 0.24081 0.0
C465 C 0.43076 0.59654 0.24694 0.0
C466 C 0.38441 0.54755 0.27615 0.0
C467 C 0.39487 0.55893 0.31865 0.0
C468 C 0.42222 0.59014 0.32495 0.0
C469 C 0.43968 0.60861 0.28907 0.0
C470 C 0.35514 0.51461 0.26799 0.0
C471 C 0.43439 0.6032 0.3696 0.0
C472 C 0.33777 0.51243 0.41181 0.0
C473 C 0.34972 0.49188 0.42422 0.0
C474 C 0.35262 0.53499 0.37818 0.0
C475 C 0.3797 0.53668 0.35607 0.0
C476 C 0.39212 0.51635 0.36899 0.0
C477 C 0.37715 0.49444 0.40293 0.0
C478 C 0.33905 0.55666 0.36586 0.0
C479 C 0.42084 0.51718 0.34627 0.0
H480 H 0.39536 0.55696 0.20842 0.0
H481 H 0.46141 0.63187 0.29428 0.0
H482 H 0.36073 0.49551 0.27805 0.0
H483 H 0.33403 0.51146 0.28742 0.0
H484 H 0.34801 0.51082 0.23346 0.0
H485 H 0.4532 0.6293 0.36915 0.0
H486 H 0.41395 0.59994 0.39057 0.0
H487 H 0.44526 0.58951 0.38435 0.0
H488 H 0.31667 0.51071 0.42812 0.0
H489 H 0.38656 0.47865 0.41205 0.0
H490 H 0.32973 0.55128 0.33233 0.0
H491 H 0.35861 0.58242 0.36681 0.0
H492 H 0.31894 0.55352 0.38752 0.0
H493 H 0.41481 0.51061 0.31184 0.0
H494 H 0.42792 0.50024 0.36079 0.0
H495 H 0.44219 0.54203 0.34735 0.0
C496 C 0.83431 0.38718 0.76272 0.0
C497 C 0.83464 0.35828 0.7548 0.0
C498 C 0.83389 0.40636 0.72849 0.0
C499 C 0.83447 0.39674 0.68534 0.0
C500 C 0.83352 0.36696 0.67728 0.0
C501 C 0.83325 0.34797 0.71202 0.0
C502 C 0.83438 0.43768 0.7385 0.0
C503 C 0.83448 0.35588 0.6319 0.0
C504 C 0.81653 0.43778 0.59209 0.0
C505 C 0.84799 0.45901 0.5769 0.0
C506 C 0.81162 0.4172 0.62729 0.0
C507 C 0.83891 0.41891 0.6487 0.0
C508 C 0.87078 0.44112 0.63405 0.0
C509 C 0.87489 0.46048 0.59788 0.0
C510 C 0.77727 0.39336 0.64117 0.0
C511 C 0.90061 0.44449 0.65662 0.0
H512 H 0.83521 0.39521 0.79567 0.0
H513 H 0.83366 0.32577 0.70545 0.0
H514 H 0.85839 0.45845 0.72931 0.0
H515 H 0.81554 0.43953 0.71945 0.0
H516 H 0.83013 0.43991 0.77325 0.0
H517 H 0.83127 0.3311 0.63096 0.0
H518 H 0.81515 0.35621 0.61204 0.0
H519 H 0.85825 0.37281 0.61681 0.0
H520 H 0.79578 0.43685 0.57591 0.0
H521 H 0.89926 0.47746 0.58661 0.0
H522 H 0.77382 0.39705 0.67567 0.0
H523 H 0.77292 0.36828 0.63777 0.0
H524 H 0.75872 0.39561 0.62186 0.0
H525 H 0.89987 0.44981 0.69132 0.0
H526 H 0.92362 0.46409 0.64259 0.0
H527 H 0.90093 0.42135 0.65448 0.0
C528 C 0.38018 0.83039 0.90873 0.0
C529 C 0.34653 0.81861 0.91244 0.0
C530 C 0.3985 0.82951 0.94381 0.0
C531 C 0.38274 0.81575 0.9834 0.0
C532 C 0.34841 0.80162 0.98632 0.0
C533 C 0.33078 0.8036 0.95103 0.0
C534 C 0.43508 0.84534 0.93932 0.0
C535 C 0.33047 0.78579 0.02739 0.0
C536 C 0.4354 0.80276 0.06521 0.0
C537 C 0.4465 0.83041 0.09129 0.0
C538 C 0.41313 0.79659 0.03147 0.0
C539 C 0.40266 0.81923 0.02258 0.0
C540 C 0.41321 0.84677 0.04955 0.0
C541 C 0.43454 0.85171 0.08391 0.0
C542 C 0.40164 0.7664 0.00449 0.0
C543 C 0.40339 0.872 0.04077 0.0
H544 H 0.39265 0.84219 0.87919 0.0
H545 H 0.30477 0.79425 0.95413 0.0
H546 H 0.44693 0.86692 0.96067 0.0
H547 H 0.44358 0.82846 0.9496 0.0
H548 H 0.44339 0.85314 0.90573 0.0
H549 H 0.30366 0.77167 0.02247 0.0
H550 H 0.33883 0.76942 0.04035 0.0
H551 H 0.33575 0.80466 0.05211 0.0
H552 H 0.44451 0.78617 0.07081 0.0
H553 H 0.44327 0.87334 0.10356 0.0
H554 H 0.41262 0.77306 0.97189 0.0
H555 H 0.37477 0.75387 0.00048 0.0
H556 H 0.40843 0.74922 0.01897 0.0
H557 H 0.41268 0.88309 0.0087 0.0
H558 H 0.41298 0.89158 0.06539 0.0
H559 H 0.37645 0.86059 0.03991 0.0
C560 C 0.50664 0.35922 0.27919 0.0
C561 C 0.52349 0.36006 0.24154 0.0
C562 C 0.52277 0.38009 0.31387 0.0
C563 C 0.55686 0.40143 0.31156 0.0
C564 C 0.57434 0.40065 0.27479 0.0
C565 C 0.55732 0.3805 0.23973 0.0
C566 C 0.50288 0.38089 0.35152 0.0
C567 C 0.61085 0.42209 0.27173 0.0
C568 C 0.59258 0.482 0.3706 0.0
C569 C 0.60345 0.47532 0.40911 0.0
C570 C 0.577 0.45801 0.33903 0.0
C571 C 0.57349 0.42691 0.34524 0.0
C572 C 0.58517 0.42027 0.38379 0.0
C573 C 0.59927 0.44438 0.41586 0.0
C574 C 0.56373 0.46584 0.29939 0.0
C575 C 0.58298 0.38787 0.39096 0.0
H576 H 0.48038 0.34375 0.28044 0.0
H577 H 0.57036 0.38113 0.21064 0.0
H578 H 0.51316 0.37826 0.38232 0.0
H579 H 0.50383 0.40469 0.35243 0.0
H580 H 0.47693 0.3615 0.3495 0.0
H581 H 0.62128 0.41518 0.24428 0.0
H582 H 0.61696 0.44765 0.26733 0.0
H583 H 0.62268 0.42086 0.30198 0.0
H584 H 0.59541 0.50585 0.36576 0.0
H585 H 0.60757 0.43925 0.44579 0.0
H586 H 0.53735 0.44814 0.29584 0.0
H587 H 0.57619 0.46387 0.27019 0.0
H588 H 0.56696 0.49064 0.30062 0.0
H589 H 0.55707 0.36854 0.39282 0.0
H590 H 0.59546 0.38743 0.42104 0.0
H591 H 0.59406 0.38194 0.36333 0.0
C592 C 0.11854 0.56628 0.7509 0.0
C593 C 0.13204 0.59997 0.75407 0.0
C594 C 0.12243 0.55195 0.71332 0.0
C595 C 0.14087 0.57183 0.6784 0.0
C596 C 0.15639 0.60597 0.68263 0.0
C597 C 0.15149 0.61961 0.7202 0.0
C598 C 0.10511 0.51544 0.70999 0.0
C599 C 0.17684 0.62807 0.64666 0.0
C600 C 0.16086 0.52807 0.59078 0.0
C601 C 0.1357 0.52048 0.56107 0.0
C602 C 0.16407 0.5464 0.62802 0.0
C603 C 0.1411 0.55668 0.63627 0.0
C604 C 0.11656 0.55031 0.60542 0.0
C605 C 0.11442 0.53266 0.56802 0.0
C606 C 0.19117 0.55353 0.65943 0.0
C607 C 0.09128 0.56043 0.61307 0.0
H608 H 0.10332 0.55093 0.77679 0.0
H609 H 0.16219 0.6457 0.72256 0.0
H610 H 0.08604 0.50717 0.68468 0.0
H611 H 0.12246 0.50725 0.70031 0.0
H612 H 0.09335 0.50345 0.74081 0.0
H613 H 0.19102 0.65375 0.65729 0.0
H614 H 0.19399 0.62044 0.63406 0.0
H615 H 0.1608 0.62653 0.61964 0.0
H616 H 0.17751 0.51889 0.58555 0.0
H617 H 0.09479 0.52682 0.54544 0.0
H618 H 0.18081 0.5389 0.68903 0.0
H619 H 0.20372 0.57943 0.66912 0.0
H620 H 0.20945 0.54778 0.64573 0.0
H621 H 0.07628 0.5475 0.64161 0.0
H622 H 0.07479 0.55506 0.58502 0.0
H623 H 0.10325 0.58676 0.62011 0.0
C624 C 0.31497 0.92365 0.91824 0.0
C625 C 0.33669 0.93986 0.88433 0.0
C626 C 0.3196 0.93808 0.95905 0.0
C627 C 0.3468 0.96923 0.96611 0.0
C628 C 0.36732 -0.01334 0.93116 0.0
C629 C 0.36183 0.97185 0.89056 0.0
C630 C 0.2968 0.91898 0.99527 0.0
C631 C 0.39673 0.0199 0.93739 0.0
C632 C 0.36073 0.01825 0.06868 0.0
C633 C 0.38347 0.01243 0.08999 0.0
C634 C 0.3472 0.00313 0.02909 0.0
C635 C 0.35668 0.98178 0.01067 0.0
C636 C 0.37812 0.9744 0.03339 0.0
C637 C 0.39125 -0.01017 0.07273 0.0
C638 C 0.32414 0.01129 0.00598 0.0
C639 C 0.38862 0.95149 0.01511 0.0
H640 H 0.29525 0.89903 0.91351 0.0
H641 H 0.37865 -0.01539 0.86451 0.0
H642 H 0.30893 0.90948 0.01657 0.0
H643 H 0.29069 0.93466 0.01518 0.0
H644 H 0.27383 0.89814 0.98306 0.0
H645 H 0.40809 0.03161 0.90628 0.0
H646 H 0.38993 0.03593 0.95522 0.0
H647 H 0.41525 0.01783 0.95693 0.0
H648 H 0.35462 0.0357 0.08187 0.0
H649 H 0.40854 -0.01503 0.08928 0.0
H650 H 0.30257 -0.01106 0.99395 0.0
H651 H 0.33661 0.02664 0.97759 0.0
H652 H 0.3157 0.02459 0.02708 0.0
H653 H 0.367 0.928 0.0064 0.0
H654 H 0.40379 0.94678 0.03808 0.0
H655 H 0.40295 0.96191 0.98521 0.0
C656 C 0.37826 0.31969 0.21825 0.0
C657 C 0.4116 0.34211 0.22258 0.0
C658 C 0.35591 0.31668 0.25069 0.0
C659 C 0.36739 0.33637 0.28817 0.0
C660 C 0.40131 0.35758 0.29346 0.0
C661 C 0.42281 0.36023 0.26066 0.0
C662 C 0.32006 0.29364 0.24382 0.0
C663 C 0.41499 0.37861 0.33314 0.0
C664 C 0.32749 0.37308 0.35428 0.0
C665 C 0.3254 0.35866 0.39428 0.0
C666 C 0.33681 0.36276 0.31723 0.0
C667 C 0.3447 0.33773 0.32059 0.0
C668 C 0.33832 0.32028 0.35975 0.0
C669 C 0.32889 0.33114 0.39643 0.0
C670 C 0.34264 0.38175 0.27611 0.0
C671 C 0.34547 0.29287 0.36446 0.0
H672 H 0.36951 0.30548 0.18895 0.0
H673 H 0.44864 0.37709 0.26466 0.0
H674 H 0.30787 0.2816 0.27436 0.0
H675 H 0.30833 0.30742 0.23212 0.0
H676 H 0.31588 0.27478 0.21947 0.0
H677 H 0.44205 0.39287 0.33285 0.0
H678 H 0.40555 0.39578 0.33542 0.0
H679 H 0.40714 0.3634 0.36256 0.0
H680 H 0.32506 0.39459 0.35281 0.0
H681 H 0.32763 0.32022 0.42752 0.0
H682 H 0.33452 0.36538 0.24772 0.0
H683 H 0.36915 0.39889 0.27246 0.0
H684 H 0.32976 0.39595 0.27622 0.0
H685 H 0.3389 0.27792 0.33472 0.0
H686 H 0.33207 0.27705 0.39217 0.0
H687 H 0.37196 0.303 0.37007 0.0
C688 C 0.03916 0.41478 0.62173 0.0
C689 C 0.03765 0.40039 0.58178 0.0
C690 C 0.01897 0.3967 0.65578 0.0
C691 C -0.00356 0.36334 0.64956 0.0
C692 C -0.003 0.34802 0.61057 0.0
C693 C 0.01781 0.36682 0.57693 0.0
C694 C 0.01974 0.4141 0.69699 0.0
C695 C 0.97379 0.31247 0.60298 0.0
C696 C 0.95165 0.32666 0.7538 0.0
C697 C 0.92677 0.33441 0.75082 0.0
C698 C 0.97303 0.33273 0.71892 0.0
C699 C 0.96914 0.34683 0.68078 0.0
C700 C 0.94171 0.35116 0.67636 0.0
C701 C 0.92099 0.34506 0.71159 0.0
C702 C 0.00161 0.32727 0.72464 0.0
C703 C 0.93628 0.36584 0.63629 0.0
H704 H 0.055 0.44071 0.62568 0.0
H705 H 0.01677 0.35566 0.54602 0.0
H706 H -0.0026 0.41616 0.69918 0.0
H707 H 0.02016 0.40026 0.72544 0.0
H708 H 0.04127 0.43888 0.69856 0.0
H709 H -0.01785 0.30283 0.57617 0.0
H710 H 0.97092 0.29817 0.63249 0.0
H711 H 0.94944 0.30893 0.59447 0.0
H712 H 0.9562 0.31868 0.78439 0.0
H713 H 0.90165 0.35102 0.70953 0.0
H714 H 0.02342 0.35046 0.73394 0.0
H715 H 0.00738 0.3189 0.69418 0.0
H716 H -0.0031 0.30924 0.75034 0.0
H717 H 0.95452 0.39208 0.63514 0.0
H718 H 0.91155 0.36319 0.63561 0.0
H719 H 0.93951 0.35441 0.60691 0.0
C720 C 0.59725 0.95268 0.07154 0.0
C721 C 0.56418 0.94366 0.07477 0.0
C722 C 0.61616 0.97089 0.03618 0.0
C723 C 0.60151 0.98 0.00335 0.0
C724 C 0.568 0.97036 0.00618 0.0
C725 C 0.54986 0.95246 0.04181 0.0
C726 C 0.65181 0.98079 0.03424 0.0
C727 C 0.55121 0.97916 0.97167 0.0
C728 C 0.64314 0.05172 0.92855 0.0
C729 C 0.63998 0.03615 0.88891 0.0
C730 C 0.63366 0.03406 0.96715 0.0
C731 C 0.62075 7e-05 0.96603 0.0
C732 C 0.62097 -0.01512 0.92683 0.0
C733 C 0.63073 0.00315 0.8887 0.0
C734 C 0.63431 0.05135 0.00833 0.0
C735 C 0.60766 0.94875 0.9242 0.0
H736 H 0.60845 0.94593 0.0969 0.0
H737 H 0.52426 0.94535 0.04376 0.0
H738 H 0.65744 0.97295 0.00325 0.0
H739 H 0.66685 0.00759 0.03567 0.0
H740 H 0.65912 0.97037 0.06112 0.0
H741 H 0.52481 0.96909 0.97827 0.0
H742 H 0.56279 0.00591 0.96919 0.0
H743 H 0.5539 0.96997 0.9399 0.0
H744 H 0.65076 0.07732 0.92917 0.0
H745 H 0.62857 -0.00909 0.85834 0.0
H746 H 0.64288 0.04256 0.03568 0.0
H747 H 0.60925 0.04622 0.01603 0.0
H748 H 0.65028 0.07802 0.00553 0.0
H749 H 0.61586 0.94006 0.95204 0.0
H750 H 0.61519 0.94171 0.89396 0.0
H751 H 0.58063 0.93618 0.9251 0.0
C752 C 0.62101 0.61241 0.40606 0.0
C753 C 0.59624 0.5809 0.41608 0.0
C754 C 0.6192 0.62815 0.36854 0.0
C755 C 0.59222 0.61179 0.34034 0.0
C756 C 0.56708 0.58016 0.35073 0.0
C757 C 0.56933 0.56529 0.3884 0.0
C758 C 0.64607 0.66214 0.359 0.0
C759 C 0.53798 0.56154 0.32152 0.0
C760 C 0.5618 0.64715 0.25515 0.0
C761 C 0.57044 0.63691 0.21733 0.0
C762 C 0.5715 0.64207 0.29583 0.0
C763 C 0.5903 0.62643 0.29874 0.0
C764 C 0.60195 0.61926 0.26054 0.0
C765 C 0.59193 0.62464 0.2203 0.0
C766 C 0.5589 0.65057 0.33564 0.0
C767 C 0.62225 0.60281 0.26207 0.0
H768 H 0.64178 0.62469 0.42742 0.0
H769 H 0.55009 0.5409 0.3956 0.0
H770 H 0.65632 0.66328 0.32644 0.0
H771 H 0.63601 0.67883 0.35901 0.0
H772 H 0.66612 0.67096 0.38299 0.0
H773 H 0.52041 0.53726 0.33454 0.0
H774 H 0.52498 0.57534 0.31682 0.0
H775 H 0.54626 0.55824 0.28937 0.0
H776 H 0.54554 0.65705 0.2533 0.0
H777 H 0.59916 0.61707 0.19131 0.0
H778 H 0.57787 0.66072 0.36107 0.0
H779 H 0.53781 0.6283 0.34869 0.0
H780 H 0.55072 0.66831 0.32851 0.0
H781 H 0.64186 0.61441 0.28648 0.0
H782 H 0.63349 0.60342 0.23035 0.0
H783 H 0.60656 0.5771 0.27159 0.0
C784 C 0.03785 0.63935 0.74485 0.0
C785 C 0.01803 0.61722 0.7765 0.0
C786 C 0.02665 0.63697 0.7023 0.0
C787 C -0.00485 0.61159 0.69114 0.0
C788 C 0.97416 0.591 0.72379 0.0
C789 C -0.01426 0.59431 0.7661 0.0
C790 C 0.04946 0.66005 0.66877 0.0
C791 C 0.94049 0.5634 0.71339 0.0
C792 C 0.95283 0.59938 0.58282 0.0
C793 C 0.95915 0.57628 0.56369 0.0
C794 C 0.96629 0.61305 0.62321 0.0
C795 C -0.01409 0.60285 0.64514 0.0
C796 C -0.00621 0.58094 0.62477 0.0
C797 C -0.0194 0.56823 0.58425 0.0
C798 C 0.95816 0.6371 0.64331 0.0
C799 C 0.01448 0.56919 0.64693 0.0
H800 H 0.06273 0.65742 0.75264 0.0
H801 H 0.97008 0.57731 0.79036 0.0
H802 H 0.06035 0.64791 0.64997 0.0
H803 H 0.03614 0.6672 0.6459 0.0
H804 H 0.06961 0.68224 0.68369 0.0
H805 H 0.92605 0.55174 0.74287 0.0
H806 H 0.92686 0.57203 0.69352 0.0
H807 H 0.94263 0.54474 0.69434 0.0
H808 H 0.9365 0.60595 0.56704 0.0
H809 H -0.01404 0.55066 0.56965 0.0
H810 H -0.01991 0.6574 0.65844 0.0
H811 H 0.93971 0.625 0.66905 0.0
H812 H 0.94814 0.64712 0.6193 0.0
H813 H 0.03818 0.59005 0.65687 0.0
H814 H 0.01932 0.55306 0.62598 0.0
H815 H 0.00195 0.55563 0.67653 0.0
C816 C 0.49216 0.06006 0.28001 0.0
C817 C 0.46038 0.05202 0.29163 0.0
C818 C 0.5065 0.04312 0.29758 0.0
C819 C 0.48806 0.01748 0.32657 0.0
C820 C 0.46045 0.0159 0.34674 0.0
C821 C 0.44617 0.03283 0.3282 0.0
C822 C 0.53803 0.04815 0.27834 0.0
C823 C 0.44305 -0.00774 0.38262 0.0
C824 C 0.47725 0.94415 0.26739 0.0
C825 C 0.5035 0.94151 0.28279 0.0
C826 C 0.46946 0.96638 0.28528 0.0
C827 C 0.48895 -0.01297 0.31927 0.0
C828 C 0.51355 0.98214 0.33785 0.0
C829 C 0.52065 0.95934 0.31912 0.0
C830 C 0.44197 0.96931 0.2649 0.0
C831 C 0.53263 0.00116 0.37678 0.0
H832 H 0.5041 0.07654 0.2534 0.0
H833 H 0.42229 0.0279 0.33892 0.0
H834 H 0.55372 0.0464 0.30347 0.0
H835 H 0.53266 0.02904 0.25389 0.0
H836 H 0.55181 0.07213 0.26233 0.0
H837 H 0.43013 0.0011 0.40384 0.0
H838 H 0.42466 0.96862 0.36881 0.0
H839 H 0.46046 -0.01166 0.40215 0.0
H840 H 0.46343 0.92951 0.24007 0.0
H841 H 0.54075 0.95683 0.33125 0.0
H842 H 0.45185 -0.00697 0.24845 0.0
H843 H 0.4244 0.96769 0.2898 0.0
H844 H 0.42829 0.95 0.24068 0.0
H845 H 0.53828 0.02675 0.3756 0.0
H846 H 0.55574 0.0006 0.38042 0.0
H847 H 0.51762 -0.00986 0.40601 0.0
C848 C 0.40593 0.42469 0.63784 0.0
C849 C 0.40273 0.42524 0.59304 0.0
C850 C 0.43685 0.43957 0.65723 0.0
C851 C 0.46488 0.45591 0.6309 0.0
C852 C 0.46152 0.45502 0.58529 0.0
C853 C 0.43051 0.43921 0.5671 0.0
C854 C 0.43889 0.43865 0.70565 0.0
C855 C 0.49043 0.47222 0.55525 0.0
C856 C 0.54153 0.53154 0.63999 0.0
C857 C 0.56159 0.51964 0.62554 0.0
C858 C 0.50946 0.50996 0.65267 0.0
C859 C 0.49781 0.47627 0.64932 0.0
C860 C 0.52031 0.46507 0.64504 0.0
C861 C 0.55209 0.48697 0.63168 0.0
C862 C 0.48664 0.52293 0.66108 0.0
C863 C 0.50932 0.42943 0.64595 0.0
H864 H 0.3843 0.41308 0.65769 0.0
H865 H 0.42802 0.43957 0.5324 0.0
H866 H 0.46332 0.44406 0.71697 0.0
H867 H 0.4332 0.45671 0.71989 0.0
H868 H 0.42041 0.41448 0.71802 0.0
H869 H 0.48309 0.46994 0.52086 0.0
H870 H 0.50442 0.49841 0.5632 0.0
H871 H 0.5069 0.46201 0.55863 0.0
H872 H 0.54926 0.557 0.63579 0.0
H873 H 0.56804 0.47795 0.62125 0.0
H874 H 0.46911 0.50892 0.687 0.0
H875 H 0.47251 0.52053 0.6314 0.0
H876 H 0.50018 0.54892 0.67046 0.0
H877 H 0.4879 0.41615 0.66745 0.0
H878 H 0.52937 0.42539 0.65699 0.0
H879 H 0.50227 0.41929 0.61293 0.0
C880 C 0.9504 0.40433 0.99329 0.0
C881 C 0.94942 0.39988 0.94849 0.0
C882 C 0.97105 0.4349 0.01152 0.0
C883 C -0.00955 0.4613 0.98403 0.0
C884 C -0.00816 0.45578 0.93918 0.0
C885 C 0.97172 0.42498 0.92234 0.0
C886 C 0.97019 0.43888 0.05962 0.0
C887 C 0.01198 0.48275 0.90771 0.0
C888 C -0.00062 0.54147 0.97798 0.0
C889 C 0.03233 0.55777 0.96683 0.0
C890 C -0.01485 0.50999 0.99451 0.0
C891 C 0.00471 0.49527 -0.00101 0.0
C892 C 0.03899 0.51485 -0.00151 0.0
C893 C 0.0526 0.54587 0.9805 0.0
C894 C 0.94858 0.49079 -0.00058 0.0
C895 C 0.06072 0.50097 0.00882 0.0
H896 H 0.93381 0.38459 0.01389 0.0
H897 H 0.97175 0.4212 0.88786 0.0
H898 H -0.00914 0.46201 0.07151 0.0
H899 H 0.94691 0.43766 0.06881 0.0
H900 H 0.9707 0.4185 0.07607 0.0
H901 H 0.00936 0.47397 0.87394 0.0
H902 H 0.00437 0.50136 0.90871 0.0
H903 H 0.03817 0.49452 0.91612 0.0
H904 H -0.01592 0.55144 0.9685 0.0
H905 H 0.07843 0.5592 0.97306 0.0
H906 H 0.94212 0.47812 0.03086 0.0
H907 H 0.93791 0.4722 0.97359 0.0
H908 H 0.93732 0.50646 -0.00236 0.0
H909 H 0.04904 0.4811 0.03276 0.0
H910 H 0.08457 0.5201 0.02151 0.0
H911 H 0.06549 0.49098 0.97909 0.0
C912 C 0.00504 0.43818 0.33445 0.0
C913 C 0.00927 0.44051 0.37924 0.0
C914 C -0.01526 0.44809 0.31435 0.0
C915 C 0.96869 0.46063 0.34002 0.0
C916 C 0.97083 0.46003 0.38573 0.0
C917 C -0.00914 0.44982 0.40442 0.0
C918 C -0.01807 0.44618 0.2659 0.0
C919 C 0.95404 0.4723 0.41569 0.0
C920 C 0.95834 0.53068 0.33512 0.0
C921 C 0.92661 0.51506 0.35152 0.0
C922 C 0.9718 0.51221 0.31924 0.0
C923 C 0.95285 0.478 0.32103 0.0
C924 C 0.91871 0.46348 0.32528 0.0
C925 C 0.90594 0.48211 0.34257 0.0
C926 C 0.00776 0.52885 0.30946 0.0
C927 C 0.89712 0.42734 0.32137 0.0
H928 H 0.01846 0.42985 0.31513 0.0
H929 H -0.0069 0.4504 0.43923 0.0
H930 H 0.96147 0.44913 0.25381 0.0
H931 H 0.00504 0.46534 0.25158 0.0
H932 H -0.02149 0.42253 0.25445 0.0
H933 H 0.95811 0.46938 0.45025 0.0
H934 H 0.96361 0.49846 0.40994 0.0
H935 H 0.92737 0.45898 0.41022 0.0
H936 H 0.97403 0.55641 0.34087 0.0
H937 H 0.88112 0.47007 0.35457 0.0
H938 H 0.0126 0.51665 0.28225 0.0
H939 H 0.02107 0.52753 0.33812 0.0
H940 H 0.01747 0.55478 0.30124 0.0
H941 H 0.90619 0.41752 0.29566 0.0
H942 H 0.87158 0.42087 0.31422 0.0
H943 H 0.89725 0.41569 0.35227 0.0
C944 C 0.42404 0.94894 0.72036 0.0
C945 C 0.40524 0.91618 0.71028 0.0
C946 C 0.45549 0.96725 0.70383 0.0
C947 C 0.46869 0.95176 0.67813 0.0
C948 C 0.44821 0.91967 0.66347 0.0
C949 C 0.41634 0.90207 0.67983 0.0
C950 C 0.47573 0.00209 0.71834 0.0
C951 C 0.46077 0.90331 0.63349 0.0
C952 C 0.55434 0.01712 0.66905 0.0
C953 C 0.56401 0.0144 0.7108 0.0
C954 C 0.52448 -0.00724 0.65259 0.0
C955 C 0.50453 0.96581 0.67893 0.0
C956 C 0.51784 0.96009 0.71661 0.0
C957 C 0.54743 -0.01516 0.73246 0.0
C958 C 0.51246 -0.00156 0.61036 0.0
C959 C 0.49832 0.93065 0.74456 0.0
H960 H 0.41471 0.9598 0.74301 0.0
H961 H 0.40108 0.87673 0.67136 0.0
H962 H 0.49431 0.00423 0.74195 0.0
H963 H 0.48864 0.01796 0.69059 0.0
H964 H 0.46064 0.01122 0.73387 0.0
H965 H 0.44129 0.87878 0.62363 0.0
H966 H 0.47131 0.9183 0.60423 0.0
H967 H 0.48058 0.90102 0.64922 0.0
H968 H 0.568 0.03957 0.65136 0.0
H969 H 0.55588 0.98228 0.76391 0.0
H970 H 0.50203 0.01456 0.61571 0.0
H971 H 0.49336 0.97545 0.59589 0.0
H972 H 0.53297 0.01078 0.58721 0.0
H973 H 0.47965 0.93356 0.7627 0.0
H974 H 0.51401 0.92729 0.76823 0.0
H975 H 0.48551 0.9084 0.7247 0.0
C976 C 0.50285 0.54836 0.00515 0.0
C977 C 0.49828 0.55024 0.04961 0.0
C978 C 0.50082 0.52032 0.98691 0.0
C979 C 0.49352 0.49356 0.01382 0.0
C980 C 0.48957 0.49583 0.05892 0.0
C981 C 0.49221 0.52415 0.07605 0.0
C982 C 0.50577 0.51955 0.93895 0.0
C983 C 0.4822 0.46834 0.08967 0.0
C984 C 0.44965 0.40579 0.00521 0.0
C985 C 0.47378 0.40139 0.02487 0.0
C986 C 0.45732 0.4367 0.9907 0.0
C987 C 0.48947 0.46267 -0.00344 0.0
C988 C 0.51481 0.45583 0.00472 0.0
C989 C 0.50657 0.42512 0.02034 0.0
C990 C 0.43011 0.4427 0.97754 0.0
C991 C 0.54992 0.48238 0.00591 0.0
H992 H 0.50769 0.56862 0.98446 0.0
H993 H 0.48898 0.5256 0.11043 0.0
H994 H 0.51263 0.5012 0.92952 0.0
H995 H 0.48279 0.51381 0.92219 0.0
H996 H 0.52494 0.54371 0.92741 0.0
H997 H 0.47855 0.47392 0.12332 0.0
H998 H 0.45977 0.44606 0.07958 0.0
H999 H 0.50266 0.46321 0.0898 0.0
H1000 H 0.42434 0.38681 0.00706 0.0
H1001 H 0.52543 0.42098 0.03354 0.0
H1002 H 0.43848 0.46145 0.95202 0.0
H1003 H 0.42242 0.45165 0.00581 0.0
H1004 H 0.40862 0.42015 0.96565 0.0
H1005 H 0.55457 0.50153 0.98198 0.0
H1006 H 0.56647 0.47255 -0.00064 0.0
H1007 H 0.55566 0.4936 0.03846 0.0
C1008 C 0.31545 0.9496 0.59485 0.0
C1009 C 0.34333 0.94636 0.59767 0.0
C1010 C 0.3141 0.97133 0.5656 0.0
C1011 C 0.34109 -0.01024 0.53838 0.0
C1012 C 0.37006 -0.01182 0.54319 0.0
C1013 C 0.37087 0.96658 0.573 0.0
C1014 C 0.28316 0.97306 0.56202 0.0
C1015 C 0.39949 0.00761 0.51481 0.0
C1016 C 0.33431 0.00976 0.42334 0.0
C1017 C 0.34885 0.04351 0.42555 0.0
C1018 C 0.32858 -0.00859 0.46078 0.0
C1019 C 0.33804 0.00741 0.50111 0.0
C1020 C 0.34956 0.04109 0.50385 0.0
C1021 C 0.35466 0.05883 0.46581 0.0
C1022 C 0.31564 0.95539 0.45661 0.0
C1023 C 0.3597 0.05897 0.54628 0.0
H1024 H 0.29426 0.93437 0.6144 0.0
H1025 H 0.39262 0.96447 0.57539 0.0
H1026 H 0.28876 -0.00143 0.55904 0.0
H1027 H 0.26976 0.96002 0.53255 0.0
H1028 H 0.2669 0.96188 0.59024 0.0
H1029 H 0.42101 0.00583 0.52535 0.0
H1030 H 0.3936 -0.00134 0.48112 0.0
H1031 H 0.40621 0.03352 0.51474 0.0
H1032 H 0.32952 -0.00206 0.39213 0.0
H1033 H 0.36596 0.085 0.46755 0.0
H1034 H 0.29649 0.9419 0.48106 0.0
H1035 H 0.33573 0.95014 0.46233 0.0
H1036 H 0.30531 0.94614 0.42412 0.0
H1037 H 0.36097 0.0829 0.54437 0.0
H1038 H 0.38422 0.06312 0.55513 0.0
H1039 H 0.34261 0.04458 0.57243 0.0
C1040 C 0.3368 0.3251 0.94858 0.0
C1041 C 0.35452 0.30893 0.94259 0.0
C1042 C 0.32527 0.33457 0.91296 0.0
C1043 C 0.33193 0.3278 0.87087 0.0
C1044 C 0.34557 0.30745 0.86517 0.0
C1045 C 0.35655 0.29808 0.90125 0.0
C1046 C 0.30977 0.35529 0.92037 0.0
C1047 C 0.35285 0.29933 0.82093 0.0
C1048 C 0.3086 0.35624 0.76951 0.0
C1049 C 0.33713 0.38589 0.76212 0.0
C1050 C 0.30589 0.33728 0.80563 0.0
C1051 C 0.33256 0.34808 0.83428 0.0
C1052 C 0.36127 0.37814 0.82703 0.0
C1053 C 0.36307 0.39671 0.79124 0.0
C1054 C 0.27475 0.30569 0.81291 0.0
C1055 C 0.39046 0.39052 0.85665 0.0
H1056 H 0.33459 0.33305 0.98055 0.0
H1057 H 0.36948 0.28478 0.8966 0.0
H1058 H 0.32866 0.38122 0.91746 0.0
H1059 H 0.29064 0.35016 0.89602 0.0
H1060 H 0.29884 0.35143 0.95306 0.0
H1061 H 0.35704 0.27831 0.82181 0.0
H1062 H 0.33273 0.29386 0.79815 0.0
H1063 H 0.37521 0.32054 0.80818 0.0
H1064 H 0.28837 0.34794 0.74723 0.0
H1065 H 0.38517 0.41959 0.78573 0.0
H1066 H 0.26578 0.30469 0.84625 0.0
H1067 H 0.27942 0.28515 0.80921 0.0
H1068 H 0.25528 0.30223 0.78992 0.0
H1069 H 0.38337 0.39293 0.88996 0.0
H1070 H 0.41083 0.41444 0.84639 0.0
H1071 H 0.3995 0.37299 0.85752 0.0
C1072 C 0.93331 0.2802 0.08105 0.0
C1073 C 0.94656 0.29448 0.04109 0.0
C1074 C 0.95265 0.28983 0.11825 0.0
C1075 C -0.01415 0.31396 0.11489 0.0
C1076 C 0.00043 0.32336 0.07369 0.0
C1077 C -0.0195 0.31348 0.03698 0.0
C1078 C 0.9363 0.27827 0.16146 0.0
C1079 C 0.03612 0.34785 0.06867 0.0
C1080 C 0.01311 0.38509 0.19056 0.0
C1081 C 0.03302 0.38047 0.21959 0.0
C1082 C -0.00285 0.36307 0.15721 0.0
C1083 C 0.00173 0.33595 0.15205 0.0
C1084 C 0.02148 0.33079 0.1816 0.0
C1085 C 0.03685 0.35315 0.2153 0.0
C1086 C 0.97563 0.36923 0.12725 0.0
C1087 C 0.02708 0.30232 0.17713 0.0
H1088 H 0.90718 0.26448 0.08422 0.0
H1089 H -0.00884 0.32379 0.00598 0.0
H1090 H 0.9528 0.27616 0.18496 0.0
H1091 H 0.92978 0.29612 0.17439 0.0
H1092 H 0.91357 0.25446 0.15871 0.0
H1093 H 0.04517 0.34663 0.03604 0.0
H1094 H 0.0397 0.37257 0.07338 0.0
H1095 H 0.05096 0.34405 0.09314 0.0
H1096 H 0.00977 0.40595 0.19403 0.0
H1097 H 0.05233 0.34957 0.23773 0.0
H1098 H 0.95107 0.34747 0.12495 0.0
H1099 H -0.01362 0.37465 0.09442 0.0
H1100 H 0.97261 0.38984 0.13824 0.0
H1101 H 0.00428 0.27996 0.16815 0.0
H1102 H 0.03676 0.2978 0.20733 0.0
H1103 H 0.04507 0.30736 0.15107 0.0
C1104 C 0.64028 -0.00026 0.61309 0.0
C1105 C 0.65773 0.03358 0.6092 0.0
C1106 C 0.62964 0.97998 0.5763 0.0
C1107 C 0.63687 -0.00543 0.53506 0.0
C1108 C 0.65848 0.02828 0.53116 0.0
C1109 C 0.66879 0.04744 0.56844 0.0
C1110 C 0.60728 0.94399 0.58177 0.0
C1111 C 0.66733 0.04473 0.48778 0.0
C1112 C 0.60602 0.9414 0.43517 0.0
C1113 C 0.57598 0.94006 0.42873 0.0
C1114 C 0.62643 0.95924 0.46951 0.0
C1115 C 0.61655 0.97619 0.49766 0.0
C1116 C 0.58655 0.97545 0.49068 0.0
C1117 C 0.56661 0.95729 0.45639 0.0
C1118 C 0.65808 0.95929 0.47625 0.0
C1119 C 0.57522 -0.0065 0.51977 0.0
H1120 H 0.63207 -0.01124 0.64453 0.0
H1121 H 0.68296 0.07358 0.56532 0.0
H1122 H 0.58165 0.93825 0.57741 0.0
H1123 H 0.61242 0.93012 0.55723 0.0
H1124 H 0.60958 0.9357 0.61434 0.0
H1125 H 0.68933 0.06918 0.48973 0.0
H1126 H 0.67179 0.03003 0.4638 0.0
H1127 H 0.64674 0.04754 0.47587 0.0
H1128 H 0.61328 0.92796 0.41394 0.0
H1129 H 0.54353 0.9565 0.45139 0.0
H1130 H 0.65664 0.94617 0.50641 0.0
H1131 H 0.67859 -0.01556 0.47999 0.0
H1132 H 0.66369 0.9475 0.44918 0.0
H1133 H 0.57204 -0.01596 0.55313 0.0
H1134 H 0.55176 -0.00879 0.50899 0.0
H1135 H 0.59383 0.01961 0.52082 0.0
C1136 C 0.6103 0.67417 0.91915 0.0
C1137 C 0.60143 0.65033 0.95091 0.0
C1138 C 0.6257 0.6729 0.88117 0.0
C1139 C 0.63152 0.64675 0.87474 0.0
C1140 C 0.62685 0.62542 0.90928 0.0
C1141 C 0.61194 0.6276 0.94729 0.0
C1142 C 0.63142 0.69686 0.84579 0.0
C1143 C 0.63307 0.59739 0.90397 0.0
C1144 C 0.6033 0.60411 0.76772 0.0
C1145 C 0.63266 0.61106 0.74772 0.0
C1146 C 0.60291 0.61607 0.80869 0.0
C1147 C 0.63276 0.63619 0.83009 0.0
C1148 C 0.66268 0.64466 0.8094 0.0
C1149 C 0.66229 0.63182 0.76832 0.0
C1150 C 0.5703 0.60609 0.82959 0.0
C1151 C 0.6949 0.6669 0.83074 0.0
H1152 H 0.60287 0.6923 0.92242 0.0
H1153 H 0.60546 0.60934 0.97204 0.0
H1154 H 0.65378 0.70276 0.82725 0.0
H1155 H 0.61052 0.68607 0.82311 0.0
H1156 H 0.63361 0.71963 0.85888 0.0
H1157 H 0.63513 0.58767 0.93561 0.0
H1158 H 0.61246 0.5776 0.88603 0.0
H1159 H 0.65565 0.60464 0.88521 0.0
H1160 H 0.58028 0.58823 0.75203 0.0
H1161 H 0.68507 0.63745 0.75282 0.0
H1162 H 0.5684 0.62784 0.83765 0.0
H1163 H 0.568 0.59299 0.8601 0.0
H1164 H 0.54942 0.59011 0.80852 0.0
H1165 H 0.6981 0.69158 0.83339 0.0
H1166 H 0.71583 0.66845 0.81235 0.0
H1167 H 0.69544 0.65858 0.86394 0.0
C1168 C -0.00671 0.60732 0.11345 0.0
C1169 C 0.01276 0.6329 0.08566 0.0
C1170 C -0.01948 0.6127 0.15123 0.0
C1171 C -0.01295 0.64448 0.16125 0.0
C1172 C 0.00525 0.67018 0.13227 0.0
C1173 C 0.01809 0.66411 0.09479 0.0
C1174 C 0.961 0.58446 0.18116 0.0
C1175 C 0.01234 0.70424 0.14161 0.0
C1176 C 0.92937 0.63654 0.24934 0.0
C1177 C 0.94701 0.63581 0.28526 0.0
C1178 C 0.94357 0.64363 0.20826 0.0
C1179 C 0.97608 0.65032 0.20344 0.0
C1180 C -0.00458 0.65492 0.24042 0.0
C1181 C -0.01937 0.64777 0.28114 0.0
C1182 C 0.92244 0.63955 0.16972 0.0
C1183 C 0.03045 0.66278 0.23669 0.0
H1184 H -0.01116 0.5831 0.10646 0.0
H1185 H 0.03305 0.68399 0.07332 0.0
H1186 H 0.97308 0.58928 0.21309 0.0
H1187 H 0.93634 0.5813 0.18621 0.0
H1188 H 0.95825 0.56135 0.1685 0.0
H1189 H 0.02093 0.71977 0.11243 0.0
H1190 H -0.0096 0.70424 0.15438 0.0
H1191 H 0.03161 0.71524 0.16656 0.0
H1192 H 0.90355 0.62828 0.25246 0.0
H1193 H -0.0053 0.64812 0.30889 0.0
H1194 H 0.9132 0.61494 0.15594 0.0
H1195 H 0.93653 0.6574 0.14422 0.0
H1196 H 0.90112 0.64221 0.17874 0.0
H1197 H 0.03107 0.64054 0.22734 0.0
H1198 H 0.04371 0.67177 0.26768 0.0
H1199 H 0.04347 0.68125 0.21144 0.0
C1200 C 0.51074 0.1216 0.40184 0.0
C1201 C 0.48765 0.13079 0.41282 0.0
C1202 C 0.53401 0.12407 0.43181 0.0
C1203 C 0.53393 0.1357 0.47382 0.0
C1204 C 0.5116 0.1463 0.48449 0.0
C1205 C 0.48883 0.14392 0.45371 0.0
C1206 C 0.55766 0.11282 0.41911 0.0
C1207 C 0.51055 0.15849 0.52913 0.0
C1208 C 0.56486 0.10471 0.56415 0.0
C1209 C 0.59612 0.13117 0.57129 0.0
C1210 C 0.54441 0.10593 0.5325 0.0
C1211 C 0.55544 0.13438 0.50755 0.0
C1212 C 0.58684 0.16127 0.51477 0.0
C1213 C 0.60688 0.15932 0.54655 0.0
C1214 C 0.51108 0.07668 0.52562 0.0
C1215 C 0.59932 0.19196 0.48874 0.0
H1216 H 0.51003 0.11156 0.37018 0.0
H1217 H 0.47097 0.15094 0.46244 0.0
H1218 H 0.58297 0.13161 0.42725 0.0
H1219 H 0.55215 0.09067 0.43748 0.0
H1220 H 0.55646 0.10719 0.38415 0.0
H1221 H 0.49353 0.16821 0.5312 0.0
H1222 H 0.50259 0.13837 0.55259 0.0
H1223 H 0.53519 0.17777 0.53901 0.0
H1224 H 0.55643 0.0828 0.58298 0.0
H1225 H 0.63099 0.17986 0.55197 0.0
H1226 H 0.50896 0.06762 0.49212 0.0
H1227 H 0.49195 0.08349 0.53003 0.0
H1228 H 0.5061 0.05659 0.54811 0.0
H1229 H 0.5999 0.18654 0.45405 0.0
H1230 H 0.62418 0.21084 0.49873 0.0
H1231 H 0.58262 0.20193 0.49223 0.0
C1232 C 0.39534 0.52491 0.71452 0.0
C1233 C 0.36134 0.51147 0.71441 0.0
C1234 C 0.41482 0.5483 0.74521 0.0
C1235 C 0.39995 0.55845 0.77658 0.0
C1236 C 0.36598 0.54677 0.77459 0.0
C1237 C 0.34707 0.52338 0.74357 0.0
C1238 C 0.45094 0.56005 0.74578 0.0
C1239 C 0.34927 0.55742 0.80695 0.0
C1240 C 0.43964 0.58029 0.88692 0.0
C1241 C 0.45704 0.61426 0.88545 0.0
C1242 C 0.42099 0.56199 0.8517 0.0
C1243 C 0.41908 0.578 0.81434 0.0
C1244 C 0.43596 0.6123 0.81298 0.0
C1245 C 0.455 0.63005 0.84846 0.0
C1246 C 0.40401 0.52545 0.85409 0.0
C1247 C 0.43452 0.63017 0.77369 0.0
H1248 H 0.4067 0.516 0.69207 0.0
H1249 H 0.32087 0.5134 0.74348 0.0
H1250 H 0.46528 0.58544 0.75729 0.0
H1251 H 0.45567 0.54453 0.76787 0.0
H1252 H 0.45986 0.55847 0.71324 0.0
H1253 H 0.32365 0.5494 0.79777 0.0
H1254 H 0.3492 0.54706 0.83898 0.0
H1255 H 0.36269 0.58419 0.81036 0.0
H1256 H 0.44142 0.56788 0.91514 0.0
H1257 H 0.46847 0.6563 0.84711 0.0
H1258 H 0.41326 0.51599 0.82817 0.0
H1259 H 0.37744 0.51503 0.84886 0.0
H1260 H 0.40779 0.51675 0.88558 0.0
H1261 H 0.44549 0.62446 0.74575 0.0
H1262 H 0.44765 0.65685 0.77854 0.0
H1263 H 0.40878 0.62208 0.76531 0.0
C1264 C 0.83275 0.38697 0.0771 0.0
C1265 C 0.85595 0.3768 0.07586 0.0
C1266 C 0.83225 0.40623 0.11114 0.0
C1267 C 0.85574 0.41581 0.14441 0.0
C1268 C 0.87965 0.40616 0.14286 0.0
C1269 C 0.87934 0.3866 0.10872 0.0
C1270 C 0.80641 0.4161 0.1117 0.0
C1271 C 0.90536 0.41623 0.17746 0.0
C1272 C 0.87202 0.48779 0.21476 0.0
C1273 C 0.85315 0.47246 0.25133 0.0
C1274 C 0.87282 0.46968 0.17948 0.0
C1275 C 0.85489 0.43542 0.18125 0.0
C1276 C 0.83601 0.41983 0.21822 0.0
C1277 C 0.83508 0.43855 0.25264 0.0
C1278 C 0.89299 0.48723 0.14046 0.0
C1279 C 0.81701 0.38334 0.22156 0.0
H1280 H 0.81464 0.37948 0.05179 0.0
H1281 H 0.89762 0.37915 0.10765 0.0
H1282 H 0.79105 0.40633 0.14094 0.0
H1283 H 0.81802 0.4429 0.11316 0.0
H1284 H 0.79037 0.40727 0.08289 0.0
H1285 H 0.9228 0.40746 0.17083 0.0
H1286 H 0.91927 0.44303 0.18032 0.0
H1287 H 0.89359 0.40658 0.2091 0.0
H1288 H 0.88604 0.51403 0.21354 0.0
H1289 H 0.82072 0.42659 0.28098 0.0
H1290 H 0.87812 0.47814 0.11072 0.0
H1291 H 0.91363 0.48249 0.1372 0.0
H1292 H 0.90295 0.51384 0.14254 0.0
H1293 H 0.79916 0.37306 0.19481 0.0
H1294 H 0.80369 0.37498 0.25262 0.0
H1295 H 0.83379 0.37342 0.21845 0.0
C1296 C 0.43164 0.82039 0.40573 0.0
C1297 C 0.46025 0.82018 0.41707 0.0
C1298 C 0.40727 0.81373 0.43635 0.0
C1299 C 0.41172 0.80681 0.47933 0.0
C1300 C 0.43926 0.80393 0.49008 0.0
C1301 C 0.4632 0.81056 0.45873 0.0
C1302 C 0.3782 0.81695 0.42355 0.0
C1303 C 0.44485 0.79654 0.53553 0.0
C1304 C 0.37959 0.84036 0.56495 0.0
C1305 C 0.35082 0.81272 0.57817 0.0
C1306 C 0.39959 0.83853 0.53316 0.0
C1307 C 0.39078 0.80823 0.51402 0.0
C1308 C 0.36201 0.78008 0.52743 0.0
C1309 C 0.34228 0.78265 0.55946 0.0
C1310 C 0.43011 0.8692 0.5199 0.0
C1311 C 0.35195 0.74743 0.5076 0.0
H1312 H 0.42897 0.8274 0.37344 0.0
H1313 H 0.48511 0.81009 0.46769 0.0
H1314 H 0.35538 0.79671 0.4369 0.0
H1315 H 0.38095 0.83984 0.43701 0.0
H1316 H 0.37573 0.8174 0.388 0.0
H1317 H 0.46436 0.79 0.53711 0.0
H1318 H 0.45212 0.81818 0.55614 0.0
H1319 H 0.42213 0.77641 0.54926 0.0
H1320 H 0.38655 0.86373 0.57929 0.0
H1321 H 0.32011 0.7612 0.56953 0.0
H1322 H 0.42987 0.87308 0.4847 0.0
H1323 H 0.4519 0.86695 0.527 0.0
H1324 H 0.43272 0.89099 0.53683 0.0
H1325 H 0.3476 0.74803 0.47259 0.0
H1326 H 0.32947 0.72771 0.52257 0.0
H1327 H 0.37184 0.74161 0.51108 0.0
C1328 C 0.57444 0.46734 0.74092 0.0
C1329 C 0.60843 0.48098 0.74127 0.0
C1330 C 0.55466 0.44288 0.77 0.0
C1331 C 0.56924 0.43184 0.80036 0.0
C1332 C 0.60347 0.44498 0.80035 0.0
C1333 C 0.62269 0.46941 0.77076 0.0
C1334 C 0.51822 0.42944 0.76891 0.0
C1335 C 0.61987 0.43387 0.83237 0.0
C1336 C 0.52203 0.39644 0.90367 0.0
C1337 C 0.50709 0.36304 0.89553 0.0
C1338 C 0.54258 0.41905 0.87312 0.0
C1339 C 0.54878 0.40799 0.83373 0.0
C1340 C 0.53448 0.37432 0.82576 0.0
C1341 C 0.51362 0.35221 0.8567 0.0
C1342 C 0.55696 0.45477 0.88253 0.0
C1343 C 0.54064 0.36167 0.78419 0.0
H1344 H 0.56325 0.47635 0.71863 0.0
H1345 H 0.64894 0.4798 0.77124 0.0
H1346 H 0.50572 0.40312 0.76165 0.0
H1347 H 0.50942 0.43239 0.80085 0.0
H1348 H 0.51096 0.44158 0.74435 0.0
H1349 H 0.64647 0.445 0.82638 0.0
H1350 H 0.61618 0.44032 0.86549 0.0
H1351 H 0.60872 0.40712 0.83112 0.0
H1352 H 0.51688 0.40502 0.93343 0.0
H1353 H 0.50216 0.32643 0.85028 0.0
H1354 H 0.54956 0.46628 0.85724 0.0
H1355 H 0.58397 0.46688 0.88203 0.0
H1356 H 0.54911 0.45931 0.9143 0.0
H1357 H 0.53091 0.36913 0.7567 0.0
H1358 H 0.52908 0.33482 0.78396 0.0
H1359 H 0.56723 0.37226 0.77887 0.0
C1360 C 0.10655 0.52983 0.26066 0.0
C1361 C 0.12412 0.51338 0.25581 0.0
C1362 C 0.10834 0.55194 0.22943 0.0
C1363 C 0.1279 0.55744 0.19231 0.0
C1364 C 0.14701 0.54224 0.18839 0.0
C1365 C 0.14505 0.52053 0.22034 0.0
C1366 C 0.08763 0.56775 0.23486 0.0
C1367 C 0.16804 0.54735 0.14923 0.0
C1368 C 0.09854 0.57846 0.0903 0.0
C1369 C 0.11902 0.61214 0.08804 0.0
C1370 C 0.10139 0.56041 0.12391 0.0
C1371 C 0.12568 0.57636 0.15573 0.0
C1372 C 0.14703 0.61023 0.15306 0.0
C1373 C 0.14333 0.62778 0.11931 0.0
C1374 C 0.07806 0.52431 0.12556 0.0
C1375 C 0.17319 0.62801 0.18644 0.0
H1376 H 0.0904 0.52453 0.28804 0.0
H1377 H 0.15878 0.508 0.21637 0.0
H1378 H 0.10186 0.59396 0.22716 0.0
H1379 H 0.06676 0.55649 0.21216 0.0
H1380 H 0.07786 0.56494 0.26812 0.0
H1381 H 0.18416 0.53674 0.15333 0.0
H1382 H 0.15222 0.53587 0.12077 0.0
H1383 H 0.18336 0.57357 0.14217 0.0
H1384 H 0.07947 0.56623 0.06657 0.0
H1385 H 0.15922 0.65381 0.11773 0.0
H1386 H 0.06697 0.51695 0.15804 0.0
H1387 H 0.09157 0.5112 0.11901 0.0
H1388 H 0.05807 0.5164 0.10163 0.0
H1389 H 0.16177 0.62595 0.21841 0.0
H1390 H 0.1888 0.65411 0.17862 0.0
H1391 H 0.1889 0.61687 0.18927 0.0
loop_
_geom_bond_atom_site_label_1
_geom_bond_atom_site_label_2
_geom_bond_distance
_geom_bond_site_symmetry_2
_ccdc_geom_bond_type
Zn0 O6 1.969 . S
Zn0 O7 1.965 . S
Zn0 O11 2.024 . S
Zn0 O16 1.969 . S
Zn1 O8 1.969 . S
Zn1 O14 1.969 . S
Zn1 O15 1.965 . S
Zn1 O17 2.024 . S
C2 O3 1.229 . S
C2 O11 1.058 . S
O3 C2 1.229 . S
C4 O5 1.229 . S
C4 O17 1.058 . S
O5 C4 1.229 . S
O6 Zn0 1.969 . S
O6 C9 1.267 . S
O7 Zn0 1.965 . S
O7 C18 1.260 . S
O8 Zn1 1.969 . S
O8 C18 1.258 . S
C9 O6 1.267 . S
C9 O10 1.228 . S
O10 C9 1.228 . S
O11 Zn0 2.024 . S
O11 C2 1.058 . S
C12 O13 1.228 . S
C12 O14 1.267 . S
O13 C12 1.228 . S
O14 Zn1 1.969 . S
O14 C12 1.267 . S
O15 Zn1 1.965 . S
O15 C19 1.260 . S
O16 Zn0 1.969 . S
O16 C19 1.258 . S
O17 Zn1 2.024 . S
O17 C4 1.058 . S
C18 O7 1.260 . S
C18 O8 1.258 . S
C19 O15 1.260 . S
C19 O16 1.258 . S
Zn20 O26 1.969 . S
Zn20 O27 1.965 . S
Zn20 O31 2.024 . S
Zn20 O36 1.969 . S
Zn21 O28 1.969 . S
Zn21 O34 1.969 . S
Zn21 O35 1.965 . S
Zn21 O37 2.024 . S
C22 O23 1.229 . S
C22 O31 1.058 . S
O23 C22 1.229 . S
C24 O25 1.229 . S
C24 O37 1.058 . S
O25 C24 1.229 . S
O26 Zn20 1.969 . S
O26 C29 1.267 . S
O27 Zn20 1.965 . S
O27 C38 1.260 . S
O28 Zn21 1.969 . S
O28 C38 1.258 . S
C29 O26 1.267 . S
C29 O30 1.228 . S
O30 C29 1.228 . S
O31 Zn20 2.024 . S
O31 C22 1.058 . S
C32 O33 1.228 . S
C32 O34 1.267 . S
O33 C32 1.228 . S
O34 Zn21 1.969 . S
O34 C32 1.267 . S
O35 Zn21 1.965 . S
O35 C39 1.260 . S
O36 Zn20 1.969 . S
O36 C39 1.258 . S
O37 Zn21 2.024 . S
O37 C24 1.058 . S
C38 O27 1.260 . S
C38 O28 1.258 . S
C39 O35 1.260 . S
C39 O36 1.258 . S
Zn40 O46 1.969 . S
Zn40 O47 1.965 . S
Zn40 O51 2.024 . S
Zn40 O56 1.969 . S
Zn41 O48 1.969 . S
Zn41 O54 1.969 1_556 S
Zn41 O55 1.965 . S
Zn41 O57 2.024 1_556 S
C42 O43 1.229 . S
C42 O51 1.058 . S
O43 C42 1.229 . S
C44 O45 1.229 . S
C44 O57 1.058 . S
O45 C44 1.229 . S
O46 Zn40 1.969 . S
O46 C49 1.267 . S
O47 Zn40 1.965 . S
O47 C58 1.260 . S
O48 Zn41 1.969 . S
O48 C58 1.258 . S
C49 O46 1.267 . S
C49 O50 1.228 . S
O50 C49 1.228 . S
O51 Zn40 2.024 . S
O51 C42 1.058 . S
C52 O53 1.228 . S
C52 O54 1.267 . S
O53 C52 1.228 . S
O54 Zn41 1.969 1_554 S
O54 C52 1.267 . S
O55 Zn41 1.965 . S
O55 C59 1.260 . S
O56 Zn40 1.969 . S
O56 C59 1.258 . S
O57 Zn41 2.024 1_554 S
O57 C44 1.058 . S
C58 O47 1.260 . S
C58 O48 1.258 . S
C59 O55 1.260 . S
C59 O56 1.258 . S
Zn60 O66 1.969 . S
Zn60 O67 1.965 . S
Zn60 O71 2.024 . S
Zn60 O76 1.969 . S
Zn61 O68 1.969 . S
Zn61 O74 1.969 . S
Zn61 O75 1.965 . S
Zn61 O77 2.024 . S
C62 O63 1.229 . S
C62 O71 1.058 . S
O63 C62 1.229 . S
C64 O65 1.229 . S
C64 O77 1.058 . S
O65 C64 1.229 . S
O66 Zn60 1.969 . S
O66 C69 1.267 . S
O67 Zn60 1.965 . S
O67 C78 1.260 . S
O68 Zn61 1.969 . S
O68 C78 1.258 . S
C69 O66 1.267 . S
C69 O70 1.228 . S
O70 C69 1.228 . S
O71 Zn60 2.024 . S
O71 C62 1.058 . S
C72 O73 1.228 . S
C72 O74 1.267 . S
O73 C72 1.228 . S
O74 Zn61 1.969 . S
O74 C72 1.267 . S
O75 Zn61 1.965 . S
O75 C79 1.260 . S
O76 Zn60 1.969 . S
O76 C79 1.258 . S
O77 Zn61 2.024 . S
O77 C64 1.058 . S
C78 O67 1.260 . S
C78 O68 1.258 . S
C79 O75 1.260 . S
C79 O76 1.258 . S
Zn80 O86 1.969 . S
Zn80 O87 1.965 . S
Zn80 O91 2.024 . S
Zn80 O96 1.969 . S
Zn81 O88 1.969 . S
Zn81 O94 1.969 . S
Zn81 O95 1.965 . S
Zn81 O97 2.024 . S
C82 O83 1.229 . S
C82 O91 1.058 . S
O83 C82 1.229 . S
C84 O85 1.229 . S
C84 O97 1.058 . S
O85 C84 1.229 . S
O86 Zn80 1.969 . S
O86 C89 1.267 . S
O87 Zn80 1.965 . S
O87 C98 1.260 . S
O88 Zn81 1.969 . S
O88 C98 1.258 . S
C89 O86 1.267 . S
C89 O90 1.228 . S
O90 C89 1.228 . S
O91 Zn80 2.024 . S
O91 C82 1.058 . S
C92 O93 1.228 . S
C92 O94 1.267 . S
O93 C92 1.228 . S
O94 Zn81 1.969 . S
O94 C92 1.267 . S
O95 Zn81 1.965 . S
O95 C99 1.260 . S
O96 Zn80 1.969 . S
O96 C99 1.258 . S
O97 Zn81 2.024 . S
O97 C84 1.058 . S
C98 O87 1.260 . S
C98 O88 1.258 . S
C99 O95 1.260 . S
C99 O96 1.258 . S
Zn100 O106 1.969 . S
Zn100 O107 1.965 . S
Zn100 O111 2.024 . S
Zn100 O116 1.969 . S
Zn101 O108 1.969 . S
Zn101 O114 1.969 1_556 S
Zn101 O115 1.965 . S
Zn101 O117 2.024 1_556 S
C102 O103 1.229 . S
C102 O111 1.058 . S
O103 C102 1.229 . S
C104 O105 1.229 . S
C104 O117 1.058 . S
O105 C104 1.229 . S
O106 Zn100 1.969 . S
O106 C109 1.267 . S
O107 Zn100 1.965 . S
O107 C118 1.260 . S
O108 Zn101 1.969 . S
O108 C118 1.258 . S
C109 O106 1.267 . S
C109 O110 1.228 . S
O110 C109 1.228 . S
O111 Zn100 2.024 . S
O111 C102 1.058 . S
C112 O113 1.228 . S
C112 O114 1.267 . S
O113 C112 1.228 . S
O114 Zn101 1.969 1_554 S
O114 C112 1.267 . S
O115 Zn101 1.965 . S
O115 C119 1.260 . S
O116 Zn100 1.969 . S
O116 C119 1.258 . S
O117 Zn101 2.024 1_554 S
O117 C104 1.058 . S
C118 O107 1.260 . S
C118 O108 1.258 . S
C119 O115 1.260 . S
C119 O116 1.258 . S
Zn120 O126 1.969 . S
Zn120 O127 1.965 . S
Zn120 O131 2.024 . S
Zn120 O136 1.969 . S
Zn121 O128 1.969 . S
Zn121 O134 1.969 . S
Zn121 O135 1.965 . S
Zn121 O137 2.024 . S
C122 O123 1.229 . S
C122 O131 1.058 . S
O123 C122 1.229 . S
C124 O125 1.229 . S
C124 O137 1.058 . S
O125 C124 1.229 . S
O126 Zn120 1.969 . S
O126 C129 1.267 . S
O127 Zn120 1.965 . S
O127 C138 1.260 . S
O128 Zn121 1.969 . S
O128 C138 1.258 . S
C129 O126 1.267 . S
C129 O130 1.228 . S
O130 C129 1.228 . S
O131 Zn120 2.024 . S
O131 C122 1.058 . S
C132 O133 1.228 . S
C132 O134 1.267 . S
O133 C132 1.228 . S
O134 Zn121 1.969 . S
O134 C132 1.267 . S
O135 Zn121 1.965 . S
O135 C139 1.260 . S
O136 Zn120 1.969 . S
O136 C139 1.258 . S
O137 Zn121 2.024 . S
O137 C124 1.058 . S
C138 O127 1.260 . S
C138 O128 1.258 . S
C139 O135 1.260 . S
C139 O136 1.258 . S
Zn140 O146 1.969 . S
Zn140 O147 1.965 . S
Zn140 O151 2.024 . S
Zn140 O156 1.969 . S
Zn141 O148 1.969 . S
Zn141 O154 1.969 . S
Zn141 O155 1.965 . S
Zn141 O157 2.024 . S
C142 O143 1.229 . S
C142 O151 1.058 . S
O143 C142 1.229 . S
C144 O145 1.229 . S
C144 O157 1.058 . S
O145 C144 1.229 . S
O146 Zn140 1.969 . S
O146 C149 1.267 . S
O147 Zn140 1.965 . S
O147 C158 1.260 . S
O148 Zn141 1.969 . S
O148 C158 1.258 . S
C149 O146 1.267 . S
C149 O150 1.228 . S
O150 C149 1.228 . S
O151 Zn140 2.024 . S
O151 C142 1.058 . S
C152 O153 1.228 . S
C152 O154 1.267 . S
O153 C152 1.228 . S
O154 Zn141 1.969 . S
O154 C152 1.267 . S
O155 Zn141 1.965 . S
O155 C159 1.260 . S
O156 Zn140 1.969 . S
O156 C159 1.258 . S
O157 Zn141 2.024 . S
O157 C144 1.058 . S
C158 O147 1.260 . S
C158 O148 1.258 . S
C159 O155 1.260 . S
C159 O156 1.258 . S
Zn160 O166 1.969 . S
Zn160 O167 1.965 . S
Zn160 O171 2.024 . S
Zn160 O176 1.969 . S
Zn161 O168 1.969 . S
Zn161 O174 1.969 1_554 S
Zn161 O175 1.965 . S
Zn161 O177 2.024 1_554 S
C162 O163 1.229 . S
C162 O171 1.058 . S
O163 C162 1.229 . S
C164 O165 1.229 . S
C164 O177 1.058 . S
O165 C164 1.229 . S
O166 Zn160 1.969 . S
O166 C169 1.267 . S
O167 Zn160 1.965 . S
O167 C178 1.260 . S
O168 Zn161 1.969 . S
O168 C178 1.258 . S
C169 O166 1.267 . S
C169 O170 1.228 . S
O170 C169 1.228 . S
O171 Zn160 2.024 . S
O171 C162 1.058 . S
C172 O173 1.228 . S
C172 O174 1.267 . S
O173 C172 1.228 . S
O174 Zn161 1.969 1_556 S
O174 C172 1.267 . S
O175 Zn161 1.965 . S
O175 C179 1.260 . S
O176 Zn160 1.969 . S
O176 C179 1.258 . S
O177 Zn161 2.024 1_556 S
O177 C164 1.058 . S
C178 O167 1.260 . S
C178 O168 1.258 . S
C179 O175 1.260 . S
C179 O176 1.258 . S
Zn180 O186 1.969 . S
Zn180 O187 1.965 . S
Zn180 O191 2.024 . S
Zn180 O196 1.969 . S
Zn181 O188 1.969 . S
Zn181 O194 1.969 . S
Zn181 O195 1.965 . S
Zn181 O197 2.024 . S
C182 O183 1.229 . S
C182 O191 1.058 . S
O183 C182 1.229 . S
C184 O185 1.229 . S
C184 O197 1.058 . S
O185 C184 1.229 . S
O186 Zn180 1.969 . S
O186 C189 1.267 . S
O187 Zn180 1.965 . S
O187 C198 1.260 . S
O188 Zn181 1.969 . S
O188 C198 1.258 . S
C189 O186 1.267 . S
C189 O190 1.228 . S
O190 C189 1.228 . S
O191 Zn180 2.024 . S
O191 C182 1.058 . S
C192 O193 1.228 . S
C192 O194 1.267 . S
O193 C192 1.228 . S
O194 Zn181 1.969 . S
O194 C192 1.267 . S
O195 Zn181 1.965 . S
O195 C199 1.260 . S
O196 Zn180 1.969 . S
O196 C199 1.258 . S
O197 Zn181 2.024 . S
O197 C184 1.058 . S
C198 O187 1.260 . S
C198 O188 1.258 . S
C199 O195 1.260 . S
C199 O196 1.258 . S
Zn200 O206 1.969 . S
Zn200 O207 1.965 . S
Zn200 O211 2.024 . S
Zn200 O216 1.969 . S
Zn201 O208 1.969 . S
Zn201 O214 1.969 . S
Zn201 O215 1.965 . S
Zn201 O217 2.024 . S
C202 O203 1.229 . S
C202 O211 1.058 . S
O203 C202 1.229 . S
C204 O205 1.229 . S
C204 O217 1.058 . S
O205 C204 1.229 . S
O206 Zn200 1.969 . S
O206 C209 1.267 . S
O207 Zn200 1.965 . S
O207 C218 1.260 . S
O208 Zn201 1.969 . S
O208 C218 1.258 . S
C209 O206 1.267 . S
C209 O210 1.228 . S
O210 C209 1.228 . S
O211 Zn200 2.024 . S
O211 C202 1.058 . S
C212 O213 1.228 . S
C212 O214 1.267 . S
O213 C212 1.228 . S
O214 Zn201 1.969 . S
O214 C212 1.267 . S
O215 Zn201 1.965 . S
O215 C219 1.260 . S
O216 Zn200 1.969 . S
O216 C219 1.258 . S
O217 Zn201 2.024 . S
O217 C204 1.058 . S
C218 O207 1.260 . S
C218 O208 1.258 . S
C219 O215 1.260 . S
C219 O216 1.258 . S
Zn220 O226 1.969 . S
Zn220 O227 1.965 . S
Zn220 O231 2.024 . S
Zn220 O236 1.969 . S
Zn221 O228 1.969 . S
Zn221 O234 1.969 1_554 S
Zn221 O235 1.965 . S
Zn221 O237 2.024 1_554 S
C222 O223 1.229 . S
C222 O231 1.058 . S
O223 C222 1.229 . S
C224 O225 1.229 . S
C224 O237 1.058 . S
O225 C224 1.229 . S
O226 Zn220 1.969 . S
O226 C229 1.267 . S
O227 Zn220 1.965 . S
O227 C238 1.260 . S
O228 Zn221 1.969 . S
O228 C238 1.258 . S
C229 O226 1.267 . S
C229 O230 1.228 . S
O230 C229 1.228 . S
O231 Zn220 2.024 . S
O231 C222 1.058 . S
C232 O233 1.228 . S
C232 O234 1.267 . S
O233 C232 1.228 . S
O234 Zn221 1.969 1_556 S
O234 C232 1.267 . S
O235 Zn221 1.965 . S
O235 C239 1.260 . S
O236 Zn220 1.969 . S
O236 C239 1.258 . S
O237 Zn221 2.024 1_556 S
O237 C224 1.058 . S
C238 O227 1.260 . S
C238 O228 1.258 . S
C239 O235 1.260 . S
C239 O236 1.258 . S
C240 C241 1.391 . S
C240 C242 1.394 . S
C240 H256 0.931 . S
C241 C240 1.391 . S
C241 C245 1.376 . S
C242 C240 1.394 . S
C242 C243 1.369 . S
C242 C246 1.531 . S
C243 C242 1.369 . S
C243 C244 1.410 . S
C243 C251 1.503 . S
C244 C243 1.410 . S
C244 C245 1.392 . S
C244 C247 1.511 . S
C245 C241 1.376 . S
C245 C244 1.392 . S
C245 H257 0.929 . S
C246 C242 1.531 . S
C246 H258 0.960 . S
C246 H259 0.962 . S
C246 H260 0.960 . S
C247 C244 1.511 . S
C247 H261 0.961 . S
C247 H262 0.961 . S
C247 H263 0.961 . S
C248 C249 1.370 . S
C248 C250 1.363 . S
C248 H264 0.931 . S
C249 C248 1.370 . S
C249 C253 1.408 . S
C250 C248 1.363 . S
C250 C251 1.370 . S
C250 C254 1.524 . S
C251 C243 1.503 . S
C251 C250 1.370 . S
C251 C252 1.403 . S
C252 C251 1.403 . S
C252 C253 1.404 . S
C252 C255 1.539 . S
C253 C249 1.408 . S
C253 C252 1.404 . S
C253 H265 0.930 . S
C254 C250 1.524 . S
C254 H266 0.956 . S
C254 H267 0.961 . S
C254 H268 0.961 . S
C255 C252 1.539 . S
C255 H269 0.958 . S
C255 H270 0.961 . S
C255 H271 0.960 . S
H256 C240 0.931 . S
H257 C245 0.929 . S
H258 C246 0.960 . S
H259 C246 0.962 . S
H260 C246 0.960 . S
H261 C247 0.961 . S
H262 C247 0.961 . S
H263 C247 0.961 . S
H264 C248 0.931 . S
H265 C253 0.930 . S
H266 C254 0.956 . S
H267 C254 0.961 . S
H268 C254 0.961 . S
H269 C255 0.958 . S
H270 C255 0.961 . S
H271 C255 0.960 . S
C272 C273 1.391 . S
C272 C274 1.394 . S
C272 H288 0.931 . S
C273 C272 1.391 . S
C273 C277 1.376 . S
C274 C272 1.394 . S
C274 C275 1.369 . S
C274 C278 1.531 . S
C275 C274 1.369 . S
C275 C276 1.410 . S
C275 C283 1.503 . S
C276 C275 1.410 . S
C276 C277 1.392 . S
C276 C279 1.511 . S
C277 C273 1.376 . S
C277 C276 1.392 . S
C277 H289 0.929 . S
C278 C274 1.531 . S
C278 H290 0.960 . S
C278 H291 0.962 . S
C278 H292 0.960 . S
C279 C276 1.511 . S
C279 H293 0.961 . S
C279 H294 0.961 . S
C279 H295 0.961 . S
C280 C281 1.370 . S
C280 C282 1.363 . S
C280 H296 0.931 . S
C281 C280 1.370 . S
C281 C285 1.408 . S
C282 C280 1.363 . S
C282 C283 1.370 . S
C282 C286 1.524 . S
C283 C275 1.503 . S
C283 C282 1.370 . S
C283 C284 1.403 . S
C284 C283 1.403 . S
C284 C285 1.404 . S
C284 C287 1.539 . S
C285 C281 1.408 . S
C285 C284 1.404 . S
C285 H297 0.930 . S
C286 C282 1.524 . S
C286 H298 0.956 . S
C286 H299 0.961 . S
C286 H300 0.961 . S
C287 C284 1.539 . S
C287 H301 0.958 . S
C287 H302 0.961 . S
C287 H303 0.960 . S
H288 C272 0.931 . S
H289 C277 0.929 . S
H290 C278 0.960 . S
H291 C278 0.962 . S
H292 C278 0.960 . S
H293 C279 0.961 . S
H294 C279 0.961 . S
H295 C279 0.961 . S
H296 C280 0.931 . S
H297 C285 0.930 . S
H298 C286 0.956 . S
H299 C286 0.961 . S
H300 C286 0.961 . S
H301 C287 0.958 . S
H302 C287 0.961 . S
H303 C287 0.960 . S
C304 C305 1.391 . S
C304 C306 1.394 . S
C304 H320 0.931 . S
C305 C304 1.391 . S
C305 C309 1.376 . S
C306 C304 1.394 . S
C306 C307 1.369 . S
C306 C310 1.531 . S
C307 C306 1.369 . S
C307 C308 1.410 . S
C307 C315 1.503 . S
C308 C307 1.410 . S
C308 C309 1.392 . S
C308 C311 1.511 . S
C309 C305 1.376 . S
C309 C308 1.392 . S
C309 H321 0.929 . S
C310 C306 1.531 . S
C310 H322 0.960 . S
C310 H323 0.962 . S
C310 H324 0.960 . S
C311 C308 1.511 . S
C311 H325 0.961 . S
C311 H326 0.961 . S
C311 H327 0.961 . S
C312 C313 1.370 . S
C312 C314 1.363 . S
C312 H328 0.931 . S
C313 C312 1.370 . S
C313 C317 1.408 . S
C314 C312 1.363 . S
C314 C315 1.370 . S
C314 C318 1.524 . S
C315 C307 1.503 . S
C315 C314 1.370 . S
C315 C316 1.403 . S
C316 C315 1.403 . S
C316 C317 1.404 . S
C316 C319 1.539 . S
C317 C313 1.408 . S
C317 C316 1.404 . S
C317 H329 0.930 . S
C318 C314 1.524 . S
C318 H330 0.956 . S
C318 H331 0.961 . S
C318 H332 0.961 . S
C319 C316 1.539 . S
C319 H333 0.958 . S
C319 H334 0.961 . S
C319 H335 0.960 . S
H320 C304 0.931 . S
H321 C309 0.929 . S
H322 C310 0.960 . S
H323 C310 0.962 . S
H324 C310 0.960 . S
H325 C311 0.961 . S
H326 C311 0.961 . S
H327 C311 0.961 . S
H328 C312 0.931 . S
H329 C317 0.930 . S
H330 C318 0.956 . S
H331 C318 0.961 . S
H332 C318 0.961 . S
H333 C319 0.958 . S
H334 C319 0.961 . S
H335 C319 0.960 . S
C336 C337 1.391 . S
C336 C338 1.394 . S
C336 H352 0.931 . S
C337 C336 1.391 . S
C337 C341 1.376 . S
C338 C336 1.394 . S
C338 C339 1.369 . S
C338 C342 1.531 . S
C339 C338 1.369 . S
C339 C340 1.410 . S
C339 C347 1.503 . S
C340 C339 1.410 . S
C340 C341 1.392 . S
C340 C343 1.511 . S
C341 C337 1.376 . S
C341 C340 1.392 . S
C341 H353 0.929 . S
C342 C338 1.531 . S
C342 H354 0.960 . S
C342 H355 0.962 . S
C342 H356 0.960 . S
C343 C340 1.511 . S
C343 H357 0.961 . S
C343 H358 0.961 . S
C343 H359 0.961 . S
C344 C345 1.370 . S
C344 C346 1.363 . S
C344 H360 0.931 . S
C345 C344 1.370 . S
C345 C349 1.408 . S
C346 C344 1.363 . S
C346 C347 1.370 . S
C346 C350 1.524 . S
C347 C339 1.503 . S
C347 C346 1.370 . S
C347 C348 1.403 . S
C348 C347 1.403 . S
C348 C349 1.404 . S
C348 C351 1.539 . S
C349 C345 1.408 . S
C349 C348 1.404 . S
C349 H361 0.930 . S
C350 C346 1.524 . S
C350 H362 0.956 . S
C350 H363 0.961 . S
C350 H364 0.961 . S
C351 C348 1.539 . S
C351 H365 0.958 . S
C351 H366 0.961 . S
C351 H367 0.960 . S
H352 C336 0.931 . S
H353 C341 0.929 . S
H354 C342 0.960 . S
H355 C342 0.962 . S
H356 C342 0.960 . S
H357 C343 0.961 . S
H358 C343 0.961 . S
H359 C343 0.961 . S
H360 C344 0.931 . S
H361 C349 0.930 . S
H362 C350 0.956 . S
H363 C350 0.961 . S
H364 C350 0.961 . S
H365 C351 0.958 . S
H366 C351 0.961 . S
H367 C351 0.960 . S
C368 C369 1.391 . S
C368 C370 1.394 . S
C368 H384 0.931 . S
C369 C368 1.391 . S
C369 C373 1.376 . S
C370 C368 1.394 . S
C370 C371 1.369 . S
C370 C374 1.531 . S
C371 C370 1.369 . S
C371 C372 1.410 . S
C371 C379 1.503 . S
C372 C371 1.410 . S
C372 C373 1.392 . S
C372 C375 1.511 . S
C373 C369 1.376 . S
C373 C372 1.392 . S
C373 H385 0.929 . S
C374 C370 1.531 . S
C374 H386 0.960 . S
C374 H387 0.962 . S
C374 H388 0.960 . S
C375 C372 1.511 . S
C375 H389 0.961 . S
C375 H390 0.961 . S
C375 H391 0.961 . S
C376 C377 1.370 . S
C376 C378 1.363 . S
C376 H392 0.931 . S
C377 C376 1.370 . S
C377 C381 1.408 . S
C378 C376 1.363 . S
C378 C379 1.370 . S
C378 C382 1.524 . S
C379 C371 1.503 . S
C379 C378 1.370 . S
C379 C380 1.403 . S
C380 C379 1.403 . S
C380 C381 1.404 . S
C380 C383 1.539 . S
C381 C377 1.408 . S
C381 C380 1.404 . S
C381 H393 0.930 . S
C382 C378 1.524 . S
C382 H394 0.956 . S
C382 H395 0.961 . S
C382 H396 0.961 . S
C383 C380 1.539 . S
C383 H397 0.958 . S
C383 H398 0.961 . S
C383 H399 0.960 . S
H384 C368 0.931 . S
H385 C373 0.929 . S
H386 C374 0.960 . S
H387 C374 0.962 . S
H388 C374 0.960 . S
H389 C375 0.961 . S
H390 C375 0.961 . S
H391 C375 0.961 . S
H392 C376 0.931 . S
H393 C381 0.930 . S
H394 C382 0.956 . S
H395 C382 0.961 . S
H396 C382 0.961 . S
H397 C383 0.958 . S
H398 C383 0.961 . S
H399 C383 0.960 . S
C400 C401 1.391 . S
C400 C402 1.394 . S
C400 H416 0.931 . S
C401 C400 1.391 . S
C401 C405 1.376 . S
C402 C400 1.394 . S
C402 C403 1.369 . S
C402 C406 1.531 . S
C403 C402 1.369 . S
C403 C404 1.410 . S
C403 C411 1.503 . S
C404 C403 1.410 . S
C404 C405 1.392 . S
C404 C407 1.511 . S
C405 C401 1.376 . S
C405 C404 1.392 . S
C405 H417 0.929 . S
C406 C402 1.531 . S
C406 H418 0.960 . S
C406 H419 0.962 . S
C406 H420 0.960 . S
C407 C404 1.511 . S
C407 H421 0.961 . S
C407 H422 0.961 . S
C407 H423 0.961 . S
C408 C409 1.370 . S
C408 C410 1.363 . S
C408 H424 0.931 . S
C409 C408 1.370 . S
C409 C413 1.408 . S
C410 C408 1.363 . S
C410 C411 1.370 . S
C410 C414 1.524 . S
C411 C403 1.503 . S
C411 C410 1.370 . S
C411 C412 1.403 . S
C412 C411 1.403 . S
C412 C413 1.404 . S
C412 C415 1.539 . S
C413 C409 1.408 . S
C413 C412 1.404 . S
C413 H425 0.930 . S
C414 C410 1.524 . S
C414 H426 0.956 . S
C414 H427 0.961 . S
C414 H428 0.961 . S
C415 C412 1.539 . S
C415 H429 0.958 . S
C415 H430 0.961 . S
C415 H431 0.960 . S
H416 C400 0.931 . S
H417 C405 0.929 . S
H418 C406 0.960 . S
H419 C406 0.962 . S
H420 C406 0.960 . S
H421 C407 0.961 . S
H422 C407 0.961 . S
H423 C407 0.961 . S
H424 C408 0.931 . S
H425 C413 0.930 . S
H426 C414 0.956 . S
H427 C414 0.961 . S
H428 C414 0.961 . S
H429 C415 0.958 . S
H430 C415 0.961 . S
H431 C415 0.960 . S
C432 C433 1.391 . S
C432 C434 1.394 . S
C432 H448 0.931 . S
C433 C432 1.391 . S
C433 C437 1.376 . S
C434 C432 1.394 . S
C434 C435 1.369 . S
C434 C438 1.531 . S
C435 C434 1.369 . S
C435 C436 1.410 . S
C435 C443 1.503 1_556 S
C436 C435 1.410 . S
C436 C437 1.392 . S
C436 C439 1.511 1_556 S
C437 C433 1.376 . S
C437 C436 1.392 . S
C437 H449 0.929 . S
C438 C434 1.531 . S
C438 H450 0.960 . S
C438 H451 0.962 . S
C438 H452 0.960 . S
C439 C436 1.511 1_554 S
C439 H453 0.961 . S
C439 H454 0.961 . S
C439 H455 0.961 . S
C440 C441 1.370 . S
C440 C442 1.363 . S
C440 H456 0.931 . S
C441 C440 1.370 . S
C441 C445 1.408 . S
C442 C440 1.363 . S
C442 C443 1.370 . S
C442 C446 1.524 1_554 S
C443 C435 1.503 1_554 S
C443 C442 1.370 . S
C443 C444 1.403 . S
C444 C443 1.403 . S
C444 C445 1.404 . S
C444 C447 1.539 . S
C445 C441 1.408 . S
C445 C444 1.404 . S
C445 H457 0.930 . S
C446 C442 1.524 1_556 S
C446 H458 0.956 . S
C446 H459 0.961 . S
C446 H460 0.961 1_556 S
C447 C444 1.539 . S
C447 H461 0.958 . S
C447 H462 0.961 . S
C447 H463 0.960 . S
H448 C432 0.931 . S
H449 C437 0.929 . S
H450 C438 0.960 . S
H451 C438 0.962 . S
H452 C438 0.960 . S
H453 C439 0.961 . S
H454 C439 0.961 . S
H455 C439 0.961 . S
H456 C440 0.931 . S
H457 C445 0.930 . S
H458 C446 0.956 . S
H459 C446 0.961 . S
H460 C446 0.961 1_554 S
H461 C447 0.958 . S
H462 C447 0.961 . S
H463 C447 0.960 . S
C464 C465 1.391 . S
C464 C466 1.394 . S
C464 H480 0.931 . S
C465 C464 1.391 . S
C465 C469 1.376 . S
C466 C464 1.394 . S
C466 C467 1.369 . S
C466 C470 1.531 . S
C467 C466 1.369 . S
C467 C468 1.410 . S
C467 C475 1.503 . S
C468 C467 1.410 . S
C468 C469 1.392 . S
C468 C471 1.511 . S
C469 C465 1.376 . S
C469 C468 1.392 . S
C469 H481 0.929 . S
C470 C466 1.531 . S
C470 H482 0.960 . S
C470 H483 0.962 . S
C470 H484 0.960 . S
C471 C468 1.511 . S
C471 H485 0.961 . S
C471 H486 0.961 . S
C471 H487 0.961 . S
C472 C473 1.370 . S
C472 C474 1.363 . S
C472 H488 0.931 . S
C473 C472 1.370 . S
C473 C477 1.408 . S
C474 C472 1.363 . S
C474 C475 1.370 . S
C474 C478 1.524 . S
C475 C467 1.503 . S
C475 C474 1.370 . S
C475 C476 1.403 . S
C476 C475 1.403 . S
C476 C477 1.404 . S
C476 C479 1.539 . S
C477 C473 1.408 . S
C477 C476 1.404 . S
C477 H489 0.930 . S
C478 C474 1.524 . S
C478 H490 0.956 . S
C478 H491 0.961 . S
C478 H492 0.961 . S
C479 C476 1.539 . S
C479 H493 0.958 . S
C479 H494 0.961 . S
C479 H495 0.960 . S
H480 C464 0.931 . S
H481 C469 0.929 . S
H482 C470 0.960 . S
H483 C470 0.962 . S
H484 C470 0.960 . S
H485 C471 0.961 . S
H486 C471 0.961 . S
H487 C471 0.961 . S
H488 C472 0.931 . S
H489 C477 0.930 . S
H490 C478 0.956 . S
H491 C478 0.961 . S
H492 C478 0.961 . S
H493 C479 0.958 . S
H494 C479 0.961 . S
H495 C479 0.960 . S
C496 C497 1.391 . S
C496 C498 1.394 . S
C496 H512 0.931 . S
C497 C496 1.391 . S
C497 C501 1.376 . S
C498 C496 1.394 . S
C498 C499 1.369 . S
C498 C502 1.531 . S
C499 C498 1.369 . S
C499 C500 1.410 . S
C499 C507 1.503 . S
C500 C499 1.410 . S
C500 C501 1.392 . S
C500 C503 1.511 . S
C501 C497 1.376 . S
C501 C500 1.392 . S
C501 H513 0.929 . S
C502 C498 1.531 . S
C502 H514 0.960 . S
C502 H515 0.962 . S
C502 H516 0.960 . S
C503 C500 1.511 . S
C503 H517 0.961 . S
C503 H518 0.961 . S
C503 H519 0.961 . S
C504 C505 1.370 . S
C504 C506 1.363 . S
C504 H520 0.931 . S
C505 C504 1.370 . S
C505 C509 1.408 . S
C506 C504 1.363 . S
C506 C507 1.370 . S
C506 C510 1.524 . S
C507 C499 1.503 . S
C507 C506 1.370 . S
C507 C508 1.403 . S
C508 C507 1.403 . S
C508 C509 1.404 . S
C508 C511 1.539 . S
C509 C505 1.408 . S
C509 C508 1.404 . S
C509 H521 0.930 . S
C510 C506 1.524 . S
C510 H522 0.956 . S
C510 H523 0.961 . S
C510 H524 0.961 . S
C511 C508 1.539 . S
C511 H525 0.958 . S
C511 H526 0.961 . S
C511 H527 0.960 . S
H512 C496 0.931 . S
H513 C501 0.929 . S
H514 C502 0.960 . S
H515 C502 0.962 . S
H516 C502 0.960 . S
H517 C503 0.961 . S
H518 C503 0.961 . S
H519 C503 0.961 . S
H520 C504 0.931 . S
H521 C509 0.930 . S
H522 C510 0.956 . S
H523 C510 0.961 . S
H524 C510 0.961 . S
H525 C511 0.958 . S
H526 C511 0.961 . S
H527 C511 0.960 . S
C528 C529 1.391 . S
C528 C530 1.394 . S
C528 H544 0.931 . S
C529 C528 1.391 . S
C529 C533 1.376 . S
C530 C528 1.394 . S
C530 C531 1.369 . S
C530 C534 1.531 . S
C531 C530 1.369 . S
C531 C532 1.410 . S
C531 C539 1.503 1_556 S
C532 C531 1.410 . S
C532 C533 1.392 . S
C532 C535 1.511 1_556 S
C533 C529 1.376 . S
C533 C532 1.392 . S
C533 H545 0.929 . S
C534 C530 1.531 . S
C534 H546 0.960 . S
C534 H547 0.962 . S
C534 H548 0.960 . S
C535 C532 1.511 1_554 S
C535 H549 0.961 . S
C535 H550 0.961 . S
C535 H551 0.961 . S
C536 C537 1.370 . S
C536 C538 1.363 . S
C536 H552 0.931 . S
C537 C536 1.370 . S
C537 C541 1.408 . S
C538 C536 1.363 . S
C538 C539 1.370 . S
C538 C542 1.533 . S
C539 C531 1.503 1_554 S
C539 C538 1.370 . S
C539 C540 1.403 . S
C540 C539 1.403 . S
C540 C541 1.404 . S
C540 C543 1.539 . S
C541 C537 1.408 . S
C541 C540 1.404 . S
C541 H553 0.930 . S
C542 C538 1.533 . S
C542 H554 0.945 1_554 S
C542 H555 0.958 1_554 S
C542 H556 0.966 . S
C543 C540 1.539 . S
C543 H557 0.958 . S
C543 H558 0.961 . S
C543 H559 0.960 . S
H544 C528 0.931 . S
H545 C533 0.929 . S
H546 C534 0.960 . S
H547 C534 0.962 . S
H548 C534 0.960 . S
H549 C535 0.961 . S
H550 C535 0.961 . S
H551 C535 0.961 . S
H552 C536 0.931 . S
H553 C541 0.930 . S
H554 C542 0.945 1_556 S
H555 C542 0.958 1_556 S
H556 C542 0.966 . S
H557 C543 0.958 . S
H558 C543 0.961 . S
H559 C543 0.960 . S
C560 C561 1.391 . S
C560 C562 1.394 . S
C560 H576 0.931 . S
C561 C560 1.391 . S
C561 C565 1.376 . S
C562 C560 1.394 . S
C562 C563 1.369 . S
C562 C566 1.531 . S
C563 C562 1.369 . S
C563 C564 1.410 . S
C563 C571 1.503 . S
C564 C563 1.410 . S
C564 C565 1.392 . S
C564 C567 1.511 . S
C565 C561 1.376 . S
C565 C564 1.392 . S
C565 H577 0.929 . S
C566 C562 1.531 . S
C566 H578 0.960 . S
C566 H579 0.962 . S
C566 H580 0.960 . S
C567 C564 1.511 . S
C567 H581 0.961 . S
C567 H582 0.961 . S
C567 H583 0.961 . S
C568 C569 1.370 . S
C568 C570 1.363 . S
C568 H584 0.931 . S
C569 C568 1.370 . S
C569 C573 1.408 . S
C570 C568 1.363 . S
C570 C571 1.370 . S
C570 C574 1.524 . S
C571 C563 1.503 . S
C571 C570 1.370 . S
C571 C572 1.403 . S
C572 C571 1.403 . S
C572 C573 1.404 . S
C572 C575 1.539 . S
C573 C569 1.408 . S
C573 C572 1.404 . S
C573 H585 0.930 . S
C574 C570 1.524 . S
C574 H586 0.956 . S
C574 H587 0.961 . S
C574 H588 0.961 . S
C575 C572 1.539 . S
C575 H589 0.958 . S
C575 H590 0.961 . S
C575 H591 0.960 . S
H576 C560 0.931 . S
H577 C565 0.929 . S
H578 C566 0.960 . S
H579 C566 0.962 . S
H580 C566 0.960 . S
H581 C567 0.961 . S
H582 C567 0.961 . S
H583 C567 0.961 . S
H584 C568 0.931 . S
H585 C573 0.930 . S
H586 C574 0.956 . S
H587 C574 0.961 . S
H588 C574 0.961 . S
H589 C575 0.958 . S
H590 C575 0.961 . S
H591 C575 0.960 . S
C592 C593 1.391 . S
C592 C594 1.394 . S
C592 H608 0.931 . S
C593 C592 1.391 . S
C593 C597 1.376 . S
C594 C592 1.394 . S
C594 C595 1.369 . S
C594 C598 1.531 . S
C595 C594 1.369 . S
C595 C596 1.410 . S
C595 C603 1.503 . S
C596 C595 1.410 . S
C596 C597 1.392 . S
C596 C599 1.511 . S
C597 C593 1.376 . S
C597 C596 1.392 . S
C597 H609 0.929 . S
C598 C594 1.531 . S
C598 H610 0.960 . S
C598 H611 0.962 . S
C598 H612 0.960 . S
C599 C596 1.511 . S
C599 H613 0.961 . S
C599 H614 0.961 . S
C599 H615 0.961 . S
C600 C601 1.370 . S
C600 C602 1.363 . S
C600 H616 0.931 . S
C601 C600 1.370 . S
C601 C605 1.408 . S
C602 C600 1.363 . S
C602 C603 1.370 . S
C602 C606 1.524 . S
C603 C595 1.503 . S
C603 C602 1.370 . S
C603 C604 1.403 . S
C604 C603 1.403 . S
C604 C605 1.404 . S
C604 C607 1.539 . S
C605 C601 1.408 . S
C605 C604 1.404 . S
C605 H617 0.930 . S
C606 C602 1.524 . S
C606 H618 0.956 . S
C606 H619 0.961 . S
C606 H620 0.961 . S
C607 C604 1.539 . S
C607 H621 0.958 . S
C607 H622 0.961 . S
C607 H623 0.960 . S
H608 C592 0.931 . S
H609 C597 0.929 . S
H610 C598 0.960 . S
H611 C598 0.962 . S
H612 C598 0.960 . S
H613 C599 0.961 . S
H614 C599 0.961 . S
H615 C599 0.961 . S
H616 C600 0.931 . S
H617 C605 0.930 . S
H618 C606 0.956 . S
H619 C606 0.961 . S
H620 C606 0.961 . S
H621 C607 0.958 . S
H622 C607 0.961 . S
H623 C607 0.960 . S
C624 C625 1.391 . S
C624 C626 1.394 . S
C624 H640 0.931 . S
C625 C624 1.391 . S
C625 C629 1.376 . S
C626 C624 1.394 . S
C626 C627 1.369 . S
C626 C630 1.531 1_556 S
C627 C626 1.369 . S
C627 C628 1.410 . S
C627 C635 1.503 1_566 S
C628 C627 1.410 . S
C628 C629 1.393 . S
C628 C631 1.510 1_565 S
C629 C625 1.376 . S
C629 C628 1.393 . S
C629 H641 0.929 . S
C630 C626 1.531 1_554 S
C630 H642 0.960 . S
C630 H643 0.962 . S
C630 H644 0.960 . S
C631 C628 1.510 1_545 S
C631 H645 0.961 . S
C631 H646 0.961 . S
C631 H647 0.961 . S
C632 C633 1.370 . S
C632 C634 1.363 . S
C632 H648 0.931 . S
C633 C632 1.370 . S
C633 C637 1.408 . S
C634 C632 1.363 . S
C634 C635 1.370 . S
C634 C638 1.524 1_554 S
C635 C627 1.503 1_544 S
C635 C634 1.370 . S
C635 C636 1.403 . S
C636 C635 1.403 . S
C636 C637 1.404 . S
C636 C639 1.539 1_545 S
C637 C633 1.408 . S
C637 C636 1.404 . S
C637 H649 0.930 . S
C638 C634 1.524 1_556 S
C638 H650 0.956 . S
C638 H651 0.961 . S
C638 H652 0.961 1_556 S
C639 C636 1.539 1_565 S
C639 H653 0.958 . S
C639 H654 0.961 . S
C639 H655 0.960 . S
H640 C624 0.931 . S
H641 C629 0.929 . S
H642 C630 0.960 . S
H643 C630 0.962 . S
H644 C630 0.960 . S
H645 C631 0.961 . S
H646 C631 0.961 . S
H647 C631 0.961 . S
H648 C632 0.931 . S
H649 C637 0.930 . S
H650 C638 0.956 . S
H651 C638 0.961 . S
H652 C638 0.961 1_554 S
H653 C639 0.958 . S
H654 C639 0.961 . S
H655 C639 0.960 . S
C656 C657 1.391 . S
C656 C658 1.394 . S
C656 H672 0.931 . S
C657 C656 1.391 . S
C657 C661 1.376 . S
C658 C656 1.394 . S
C658 C659 1.369 . S
C658 C662 1.531 . S
C659 C658 1.369 . S
C659 C660 1.410 . S
C659 C667 1.503 . S
C660 C659 1.410 . S
C660 C661 1.392 . S
C660 C663 1.511 . S
C661 C657 1.376 . S
C661 C660 1.392 . S
C661 H673 0.929 . S
C662 C658 1.531 . S
C662 H674 0.960 . S
C662 H675 0.962 . S
C662 H676 0.960 . S
C663 C660 1.511 . S
C663 H677 0.961 . S
C663 H678 0.961 . S
C663 H679 0.961 . S
C664 C665 1.370 . S
C664 C666 1.363 . S
C664 H680 0.931 . S
C665 C664 1.370 . S
C665 C669 1.408 . S
C666 C664 1.363 . S
C666 C667 1.370 . S
C666 C670 1.524 . S
C667 C659 1.503 . S
C667 C666 1.370 . S
C667 C668 1.403 . S
C668 C667 1.403 . S
C668 C669 1.404 . S
C668 C671 1.539 . S
C669 C665 1.408 . S
C669 C668 1.404 . S
C669 H681 0.930 . S
C670 C666 1.524 . S
C670 H682 0.956 . S
C670 H683 0.961 . S
C670 H684 0.961 . S
C671 C668 1.539 . S
C671 H685 0.958 . S
C671 H686 0.961 . S
C671 H687 0.960 . S
H672 C656 0.931 . S
H673 C661 0.929 . S
H674 C662 0.960 . S
H675 C662 0.962 . S
H676 C662 0.960 . S
H677 C663 0.961 . S
H678 C663 0.961 . S
H679 C663 0.961 . S
H680 C664 0.931 . S
H681 C669 0.930 . S
H682 C670 0.956 . S
H683 C670 0.961 . S
H684 C670 0.961 . S
H685 C671 0.958 . S
H686 C671 0.961 . S
H687 C671 0.960 . S
C688 C689 1.391 . S
C688 C690 1.394 . S
C688 H704 0.931 . S
C689 C688 1.391 . S
C689 C693 1.376 . S
C690 C688 1.394 . S
C690 C691 1.369 . S
C690 C694 1.531 . S
C691 C690 1.369 . S
C691 C692 1.410 1_455 S
C691 C699 1.503 1_455 S
C692 C691 1.410 1_655 S
C692 C693 1.392 1_655 S
C692 C695 1.511 . S
C693 C689 1.376 . S
C693 C692 1.392 1_455 S
C693 H705 0.929 . S
C694 C690 1.531 . S
C694 H706 0.960 . S
C694 H707 0.962 . S
C694 H708 0.960 . S
C695 C692 1.511 . S
C695 H709 0.961 . S
C695 H710 0.961 . S
C695 H711 0.961 . S
C696 C697 1.370 . S
C696 C698 1.363 . S
C696 H712 0.931 . S
C697 C696 1.370 . S
C697 C701 1.408 . S
C698 C696 1.363 . S
C698 C699 1.370 . S
C698 C702 1.524 1_655 S
C699 C691 1.503 1_655 S
C699 C698 1.370 . S
C699 C700 1.403 . S
C700 C699 1.403 . S
C700 C701 1.404 . S
C700 C703 1.539 . S
C701 C697 1.408 . S
C701 C700 1.404 . S
C701 H713 0.930 . S
C702 C698 1.524 1_455 S
C702 H714 0.956 . S
C702 H715 0.961 . S
C702 H716 0.961 . S
C703 C700 1.539 . S
C703 H717 0.958 . S
C703 H718 0.961 . S
C703 H719 0.960 . S
H704 C688 0.931 . S
H705 C693 0.929 . S
H706 C694 0.960 . S
H707 C694 0.962 . S
H708 C694 0.960 . S
H709 C695 0.961 . S
H710 C695 0.961 . S
H711 C695 0.961 . S
H712 C696 0.931 . S
H713 C701 0.930 . S
H714 C702 0.956 . S
H715 C702 0.961 . S
H716 C702 0.961 . S
H717 C703 0.958 . S
H718 C703 0.961 . S
H719 C703 0.960 . S
C720 C721 1.391 . S
C720 C722 1.394 . S
C720 H736 0.931 . S
C721 C720 1.391 . S
C721 C725 1.376 . S
C722 C720 1.394 . S
C722 C723 1.369 . S
C722 C726 1.531 1_565 S
C723 C722 1.369 . S
C723 C724 1.410 . S
C723 C731 1.503 1_564 S
C724 C723 1.410 . S
C724 C725 1.392 . S
C724 C727 1.511 1_554 S
C725 C721 1.376 . S
C725 C724 1.392 . S
C725 H737 0.929 . S
C726 C722 1.531 1_545 S
C726 H738 0.933 1_554 S
C726 H739 0.962 . S
C726 H740 0.960 1_545 S
C727 C724 1.511 1_556 S
C727 H741 0.961 1_556 S
C727 H742 0.961 . S
C727 H743 0.961 . S
C728 C729 1.370 . S
C728 C730 1.363 . S
C728 H744 0.931 . S
C729 C728 1.370 . S
C729 C733 1.408 . S
C730 C728 1.363 . S
C730 C731 1.370 . S
C730 C734 1.524 1_556 S
C731 C723 1.503 1_546 S
C731 C730 1.370 . S
C731 C732 1.403 1_545 S
C732 C731 1.403 1_565 S
C732 C733 1.404 1_565 S
C732 C735 1.539 . S
C733 C729 1.408 . S
C733 C732 1.404 1_545 S
C733 H745 0.930 . S
C734 C730 1.524 1_554 S
C734 H746 0.956 . S
C734 H747 0.961 . S
C734 H748 0.961 . S
C735 C732 1.539 . S
C735 H749 0.958 . S
C735 H750 0.961 . S
C735 H751 0.960 . S
H736 C720 0.931 . S
H737 C725 0.929 . S
H738 C726 0.933 1_556 S
H739 C726 0.962 . S
H740 C726 0.960 1_565 S
H741 C727 0.961 1_554 S
H742 C727 0.961 . S
H743 C727 0.961 . S
H744 C728 0.931 . S
H745 C733 0.930 . S
H746 C734 0.956 . S
H747 C734 0.961 . S
H748 C734 0.961 . S
H749 C735 0.958 . S
H750 C735 0.961 . S
H751 C735 0.960 . S
C752 C753 1.391 . S
C752 C754 1.394 . S
C752 H768 0.931 . S
C753 C752 1.391 . S
C753 C757 1.376 . S
C754 C752 1.394 . S
C754 C755 1.369 . S
C754 C758 1.531 . S
C755 C754 1.369 . S
C755 C756 1.410 . S
C755 C763 1.503 . S
C756 C755 1.410 . S
C756 C757 1.392 . S
C756 C759 1.511 . S
C757 C753 1.376 . S
C757 C756 1.392 . S
C757 H769 0.929 . S
C758 C754 1.531 . S
C758 H770 0.960 . S
C758 H771 0.962 . S
C758 H772 0.960 . S
C759 C756 1.511 . S
C759 H773 0.961 . S
C759 H774 0.961 . S
C759 H775 0.961 . S
C760 C761 1.370 . S
C760 C762 1.363 . S
C760 H776 0.931 . S
C761 C760 1.370 . S
C761 C765 1.408 . S
C762 C760 1.363 . S
C762 C763 1.370 . S
C762 C766 1.524 . S
C763 C755 1.503 . S
C763 C762 1.370 . S
C763 C764 1.403 . S
C764 C763 1.403 . S
C764 C765 1.404 . S
C764 C767 1.539 . S
C765 C761 1.408 . S
C765 C764 1.404 . S
C765 H777 0.930 . S
C766 C762 1.524 . S
C766 H778 0.956 . S
C766 H779 0.961 . S
C766 H780 0.961 . S
C767 C764 1.539 . S
C767 H781 0.958 . S
C767 H782 0.961 . S
C767 H783 0.960 . S
H768 C752 0.931 . S
H769 C757 0.929 . S
H770 C758 0.960 . S
H771 C758 0.962 . S
H772 C758 0.960 . S
H773 C759 0.961 . S
H774 C759 0.961 . S
H775 C759 0.961 . S
H776 C760 0.931 . S
H777 C765 0.930 . S
H778 C766 0.956 . S
H779 C766 0.961 . S
H780 C766 0.961 . S
H781 C767 0.958 . S
H782 C767 0.961 . S
H783 C767 0.960 . S
C784 C785 1.391 . S
C784 C786 1.394 . S
C784 H800 0.931 . S
C785 C784 1.391 . S
C785 C789 1.376 . S
C786 C784 1.394 . S
C786 C787 1.369 . S
C786 C790 1.531 . S
C787 C786 1.369 . S
C787 C788 1.410 1_455 S
C787 C795 1.503 1_455 S
C788 C787 1.410 1_655 S
C788 C789 1.392 1_655 S
C788 C791 1.511 . S
C789 C785 1.376 . S
C789 C788 1.392 1_455 S
C789 H801 0.929 . S
C790 C786 1.531 . S
C790 H802 0.960 . S
C790 H803 0.962 . S
C790 H804 0.960 . S
C791 C788 1.511 . S
C791 H805 0.961 . S
C791 H806 0.961 . S
C791 H807 0.961 . S
C792 C793 1.370 . S
C792 C794 1.363 . S
C792 H808 0.931 . S
C793 C792 1.370 . S
C793 C797 1.408 . S
C794 C792 1.363 . S
C794 C795 1.370 . S
C794 C798 1.524 . S
C795 C787 1.503 1_655 S
C795 C794 1.370 . S
C795 C796 1.403 . S
C796 C795 1.403 . S
C796 C797 1.404 . S
C796 C799 1.539 1_655 S
C797 C793 1.408 . S
C797 C796 1.404 . S
C797 H809 0.930 . S
C798 C794 1.524 . S
C798 H810 0.957 1_655 S
C798 H811 0.961 . S
C798 H812 0.961 . S
C799 C796 1.539 1_455 S
C799 H813 0.958 . S
C799 H814 0.961 1_455 S
C799 H815 0.960 . S
H800 C784 0.931 . S
H801 C789 0.929 . S
H802 C790 0.960 . S
H803 C790 0.962 . S
H804 C790 0.960 . S
H805 C791 0.961 . S
H806 C791 0.961 . S
H807 C791 0.961 . S
H808 C792 0.931 . S
H809 C797 0.930 . S
H810 C798 0.957 1_455 S
H811 C798 0.961 . S
H812 C798 0.961 . S
H813 C799 0.958 . S
H814 C799 0.961 1_655 S
H815 C799 0.960 . S
C816 C817 1.391 . S
C816 C818 1.394 . S
C816 H832 0.931 . S
C817 C816 1.391 . S
C817 C821 1.376 . S
C818 C816 1.394 . S
C818 C819 1.369 . S
C818 C822 1.531 . S
C819 C818 1.369 . S
C819 C820 1.410 . S
C819 C827 1.503 1_545 S
C820 C819 1.410 . S
C820 C821 1.392 . S
C820 C823 1.511 1_545 S
C821 C817 1.376 . S
C821 C820 1.392 . S
C821 H833 0.929 . S
C822 C818 1.531 . S
C822 H834 0.960 . S
C822 H835 0.962 . S
C822 H836 0.960 . S
C823 C820 1.511 1_565 S
C823 H837 0.961 . S
C823 H838 0.961 . S
C823 H839 0.961 1_565 S
C824 C825 1.370 . S
C824 C826 1.363 . S
C824 H840 0.931 . S
C825 C824 1.370 . S
C825 C829 1.408 . S
C826 C824 1.363 . S
C826 C827 1.370 . S
C826 C830 1.524 . S
C827 C819 1.503 1_565 S
C827 C826 1.370 . S
C827 C828 1.403 . S
C828 C827 1.403 . S
C828 C829 1.404 . S
C828 C831 1.539 1_565 S
C829 C825 1.408 . S
C829 C828 1.404 . S
C829 H841 0.930 . S
C830 C826 1.524 . S
C830 H842 0.956 . S
C830 H843 0.961 . S
C830 H844 0.961 . S
C831 C828 1.539 1_545 S
C831 H845 0.958 . S
C831 H846 0.961 . S
C831 H847 0.960 . S
H832 C816 0.931 . S
H833 C821 0.929 . S
H834 C822 0.960 . S
H835 C822 0.962 . S
H836 C822 0.960 . S
H837 C823 0.961 . S
H838 C823 0.961 . S
H839 C823 0.961 1_545 S
H840 C824 0.931 . S
H841 C829 0.930 . S
H842 C830 0.956 . S
H843 C830 0.961 . S
H844 C830 0.961 . S
H845 C831 0.958 . S
H846 C831 0.961 . S
H847 C831 0.960 . S
C848 C849 1.391 . S
C848 C850 1.394 . S
C848 H864 0.931 . S
C849 C848 1.391 . S
C849 C853 1.376 . S
C850 C848 1.394 . S
C850 C851 1.369 . S
C850 C854 1.531 . S
C851 C850 1.369 . S
C851 C852 1.410 . S
C851 C859 1.503 . S
C852 C851 1.410 . S
C852 C853 1.392 . S
C852 C855 1.511 . S
C853 C849 1.376 . S
C853 C852 1.392 . S
C853 H865 0.929 . S
C854 C850 1.531 . S
C854 H866 0.960 . S
C854 H867 0.962 . S
C854 H868 0.960 . S
C855 C852 1.511 . S
C855 H869 0.961 . S
C855 H870 0.961 . S
C855 H871 0.961 . S
C856 C857 1.370 . S
C856 C858 1.363 . S
C856 H872 0.931 . S
C857 C856 1.370 . S
C857 C861 1.408 . S
C858 C856 1.363 . S
C858 C859 1.370 . S
C858 C862 1.524 . S
C859 C851 1.503 . S
C859 C858 1.370 . S
C859 C860 1.403 . S
C860 C859 1.403 . S
C860 C861 1.404 . S
C860 C863 1.539 . S
C861 C857 1.408 . S
C861 C860 1.404 . S
C861 H873 0.930 . S
C862 C858 1.524 . S
C862 H874 0.956 . S
C862 H875 0.961 . S
C862 H876 0.961 . S
C863 C860 1.539 . S
C863 H877 0.958 . S
C863 H878 0.961 . S
C863 H879 0.960 . S
H864 C848 0.931 . S
H865 C853 0.929 . S
H866 C854 0.960 . S
H867 C854 0.962 . S
H868 C854 0.960 . S
H869 C855 0.961 . S
H870 C855 0.961 . S
H871 C855 0.961 . S
H872 C856 0.931 . S
H873 C861 0.930 . S
H874 C862 0.956 . S
H875 C862 0.961 . S
H876 C862 0.961 . S
H877 C863 0.958 . S
H878 C863 0.961 . S
H879 C863 0.960 . S
C880 C881 1.391 . S
C880 C882 1.394 . S
C880 H896 0.931 . S
C881 C880 1.391 . S
C881 C885 1.376 . S
C882 C880 1.394 . S
C882 C883 1.369 . S
C882 C886 1.531 1_556 S
C883 C882 1.369 . S
C883 C884 1.410 . S
C883 C891 1.503 1_655 S
C884 C883 1.410 . S
C884 C885 1.392 . S
C884 C887 1.511 1_655 S
C885 C881 1.376 . S
C885 C884 1.392 . S
C885 H897 0.929 . S
C886 C882 1.531 1_554 S
C886 H898 0.960 1_655 S
C886 H899 0.962 . S
C886 H900 0.960 . S
C887 C884 1.511 1_455 S
C887 H901 0.961 1_455 S
C887 H902 0.961 . S
C887 H903 0.961 . S
C888 C889 1.370 . S
C888 C890 1.363 . S
C888 H904 0.931 . S
C889 C888 1.370 . S
C889 C893 1.408 . S
C890 C888 1.363 . S
C890 C891 1.370 . S
C890 C894 1.524 1_455 S
C891 C883 1.503 1_455 S
C891 C890 1.370 . S
C891 C892 1.403 . S
C892 C891 1.403 . S
C892 C893 1.404 . S
C892 C895 1.539 . S
C893 C889 1.408 . S
C893 C892 1.404 . S
C893 H905 0.930 . S
C894 C890 1.524 1_655 S
C894 H906 0.956 . S
C894 H907 0.961 . S
C894 H908 0.961 . S
C895 C892 1.539 . S
C895 H909 0.958 . S
C895 H910 0.961 . S
C895 H911 0.960 . S
H896 C880 0.931 . S
H897 C885 0.929 . S
H898 C886 0.960 1_455 S
H899 C886 0.962 . S
H900 C886 0.960 . S
H901 C887 0.961 1_655 S
H902 C887 0.961 . S
H903 C887 0.961 . S
H904 C888 0.931 . S
H905 C893 0.930 . S
H906 C894 0.956 . S
H907 C894 0.961 . S
H908 C894 0.961 . S
H909 C895 0.958 . S
H910 C895 0.961 . S
H911 C895 0.960 . S
C912 C913 1.391 . S
C912 C914 1.394 . S
C912 H928 0.931 . S
C913 C912 1.391 . S
C913 C917 1.376 . S
C914 C912 1.394 . S
C914 C915 1.369 . S
C914 C918 1.531 . S
C915 C914 1.369 . S
C915 C916 1.410 . S
C915 C923 1.503 1_455 S
C916 C915 1.410 . S
C916 C917 1.392 . S
C916 C919 1.511 1_455 S
C917 C913 1.376 . S
C917 C916 1.392 . S
C917 H929 0.929 . S
C918 C914 1.531 . S
C918 H930 0.960 1_455 S
C918 H931 0.962 . S
C918 H932 0.960 . S
C919 C916 1.511 1_655 S
C919 H933 0.961 1_655 S
C919 H934 0.961 . S
C919 H935 0.961 . S
C920 C921 1.370 . S
C920 C922 1.363 . S
C920 H936 0.931 . S
C921 C920 1.370 . S
C921 C925 1.408 . S
C922 C920 1.363 . S
C922 C923 1.370 . S
C922 C926 1.524 1_655 S
C923 C915 1.503 1_655 S
C923 C922 1.370 . S
C923 C924 1.403 . S
C924 C923 1.403 . S
C924 C925 1.404 . S
C924 C927 1.539 . S
C925 C921 1.408 . S
C925 C924 1.404 . S
C925 H937 0.930 . S
C926 C922 1.524 1_455 S
C926 H938 0.956 . S
C926 H939 0.961 . S
C926 H940 0.961 . S
C927 C924 1.539 . S
C927 H941 0.958 . S
C927 H942 0.961 . S
C927 H943 0.960 . S
H928 C912 0.931 . S
H929 C917 0.929 . S
H930 C918 0.960 1_655 S
H931 C918 0.962 . S
H932 C918 0.960 . S
H933 C919 0.961 1_455 S
H934 C919 0.961 . S
H935 C919 0.961 . S
H936 C920 0.931 . S
H937 C925 0.930 . S
H938 C926 0.956 . S
H939 C926 0.961 . S
H940 C926 0.961 . S
H941 C927 0.958 . S
H942 C927 0.961 . S
H943 C927 0.960 . S
C944 C945 1.391 . S
C944 C946 1.394 . S
C944 H960 0.931 . S
C945 C944 1.391 . S
C945 C949 1.376 . S
C946 C944 1.394 . S
C946 C947 1.369 . S
C946 C950 1.531 1_565 S
C947 C946 1.369 . S
C947 C948 1.410 . S
C947 C955 1.503 1_565 S
C948 C947 1.410 . S
C948 C949 1.392 . S
C948 C951 1.511 . S
C949 C945 1.376 . S
C949 C948 1.392 . S
C949 H961 0.929 . S
C950 C946 1.531 1_545 S
C950 H962 0.960 . S
C950 H963 0.962 . S
C950 H964 0.960 . S
C951 C948 1.511 . S
C951 H965 0.961 . S
C951 H966 0.961 . S
C951 H967 0.961 . S
C952 C953 1.370 . S
C952 C954 1.363 . S
C952 H968 0.931 . S
C953 C952 1.370 . S
C953 C957 1.408 . S
C954 C952 1.363 . S
C954 C955 1.370 . S
C954 C958 1.524 . S
C955 C947 1.503 1_545 S
C955 C954 1.370 . S
C955 C956 1.403 . S
C956 C955 1.403 . S
C956 C957 1.404 . S
C956 C959 1.539 1_545 S
C957 C953 1.408 . S
C957 C956 1.404 . S
C957 H969 0.930 . S
C958 C954 1.524 . S
C958 H970 0.956 . S
C958 H971 0.961 . S
C958 H972 0.961 . S
C959 C956 1.539 1_565 S
C959 H973 0.939 1_565 S
C959 H974 0.961 . S
C959 H975 0.960 . S
H960 C944 0.931 . S
H961 C949 0.929 . S
H962 C950 0.960 . S
H963 C950 0.962 . S
H964 C950 0.960 . S
H965 C951 0.961 . S
H966 C951 0.961 . S
H967 C951 0.961 . S
H968 C952 0.931 . S
H969 C957 0.930 . S
H970 C958 0.956 . S
H971 C958 0.961 . S
H972 C958 0.961 . S
H973 C959 0.939 1_545 S
H974 C959 0.961 . S
H975 C959 0.960 . S
C976 C977 1.391 . S
C976 C978 1.394 . S
C976 H992 0.931 . S
C977 C976 1.391 . S
C977 C981 1.376 . S
C978 C976 1.394 . S
C978 C979 1.369 . S
C978 C982 1.531 1_554 S
C979 C978 1.369 . S
C979 C980 1.410 . S
C979 C987 1.503 . S
C980 C979 1.410 . S
C980 C981 1.392 . S
C980 C983 1.511 . S
C981 C977 1.376 . S
C981 C980 1.392 . S
C981 H993 0.929 . S
C982 C978 1.531 1_556 S
C982 H994 0.963 . S
C982 H995 0.962 . S
C982 H996 0.960 . S
C983 C980 1.511 . S
C983 H997 0.961 . S
C983 H998 0.961 . S
C983 H999 0.961 . S
C984 C985 1.370 . S
C984 C986 1.363 . S
C984 H1000 0.931 . S
C985 C984 1.370 . S
C985 C989 1.408 . S
C986 C984 1.363 . S
C986 C987 1.370 . S
C986 C990 1.524 . S
C987 C979 1.503 . S
C987 C986 1.370 . S
C987 C988 1.403 . S
C988 C987 1.403 . S
C988 C989 1.404 . S
C988 C991 1.539 . S
C989 C985 1.408 . S
C989 C988 1.404 . S
C989 H1001 0.930 . S
C990 C986 1.524 . S
C990 H1002 0.956 . S
C990 H1003 0.961 . S
C990 H1004 0.961 . S
C991 C988 1.539 . S
C991 H1005 0.958 . S
C991 H1006 0.961 . S
C991 H1007 0.960 . S
H992 C976 0.931 . S
H993 C981 0.929 . S
H994 C982 0.963 . S
H995 C982 0.962 . S
H996 C982 0.960 . S
H997 C983 0.961 . S
H998 C983 0.961 . S
H999 C983 0.961 . S
H1000 C984 0.931 . S
H1001 C989 0.930 . S
H1002 C990 0.956 . S
H1003 C990 0.961 . S
H1004 C990 0.961 . S
H1005 C991 0.958 . S
H1006 C991 0.961 . S
H1007 C991 0.960 . S
C1008 C1009 1.391 . S
C1008 C1010 1.394 . S
C1008 H1024 0.931 . S
C1009 C1008 1.391 . S
C1009 C1013 1.376 . S
C1010 C1008 1.394 . S
C1010 C1011 1.369 . S
C1010 C1014 1.531 1_565 S
C1011 C1010 1.369 . S
C1011 C1012 1.410 . S
C1011 C1019 1.503 1_565 S
C1012 C1011 1.410 . S
C1012 C1013 1.392 . S
C1012 C1015 1.511 . S
C1013 C1009 1.376 . S
C1013 C1012 1.392 . S
C1013 H1025 0.929 . S
C1014 C1010 1.531 1_545 S
C1014 H1026 0.960 . S
C1014 H1027 0.962 . S
C1014 H1028 0.960 . S
C1015 C1012 1.511 . S
C1015 H1029 0.961 . S
C1015 H1030 0.961 . S
C1015 H1031 0.961 . S
C1016 C1017 1.370 . S
C1016 C1018 1.362 1_545 S
C1016 H1032 0.931 . S
C1017 C1016 1.370 . S
C1017 C1021 1.408 . S
C1018 C1016 1.362 1_565 S
C1018 C1019 1.370 1_565 S
C1018 C1022 1.525 . S
C1019 C1011 1.503 1_545 S
C1019 C1018 1.370 1_545 S
C1019 C1020 1.403 . S
C1020 C1019 1.403 . S
C1020 C1021 1.404 . S
C1020 C1023 1.539 . S
C1021 C1017 1.408 . S
C1021 C1020 1.404 . S
C1021 H1033 0.930 . S
C1022 C1018 1.525 . S
C1022 H1034 0.956 . S
C1022 H1035 0.961 . S
C1022 H1036 0.961 . S
C1023 C1020 1.539 . S
C1023 H1037 0.958 . S
C1023 H1038 0.961 . S
C1023 H1039 0.960 . S
H1024 C1008 0.931 . S
H1025 C1013 0.929 . S
H1026 C1014 0.960 . S
H1027 C1014 0.962 . S
H1028 C1014 0.960 . S
H1029 C1015 0.961 . S
H1030 C1015 0.961 . S
H1031 C1015 0.961 . S
H1032 C1016 0.931 . S
H1033 C1021 0.930 . S
H1034 C1022 0.956 . S
H1035 C1022 0.961 . S
H1036 C1022 0.961 . S
H1037 C1023 0.958 . S
H1038 C1023 0.961 . S
H1039 C1023 0.960 . S
C1040 C1041 1.391 . S
C1040 C1042 1.394 . S
C1040 H1056 0.931 . S
C1041 C1040 1.391 . S
C1041 C1045 1.376 . S
C1042 C1040 1.394 . S
C1042 C1043 1.369 . S
C1042 C1046 1.531 . S
C1043 C1042 1.369 . S
C1043 C1044 1.410 . S
C1043 C1051 1.503 . S
C1044 C1043 1.410 . S
C1044 C1045 1.392 . S
C1044 C1047 1.511 . S
C1045 C1041 1.376 . S
C1045 C1044 1.392 . S
C1045 H1057 0.929 . S
C1046 C1042 1.531 . S
C1046 H1058 0.960 . S
C1046 H1059 0.962 . S
C1046 H1060 0.960 . S
C1047 C1044 1.511 . S
C1047 H1061 0.961 . S
C1047 H1062 0.961 . S
C1047 H1063 0.961 . S
C1048 C1049 1.370 . S
C1048 C1050 1.363 . S
C1048 H1064 0.931 . S
C1049 C1048 1.370 . S
C1049 C1053 1.408 . S
C1050 C1048 1.363 . S
C1050 C1051 1.370 . S
C1050 C1054 1.524 . S
C1051 C1043 1.503 . S
C1051 C1050 1.370 . S
C1051 C1052 1.403 . S
C1052 C1051 1.403 . S
C1052 C1053 1.404 . S
C1052 C1055 1.539 . S
C1053 C1049 1.408 . S
C1053 C1052 1.404 . S
C1053 H1065 0.930 . S
C1054 C1050 1.524 . S
C1054 H1066 0.956 . S
C1054 H1067 0.961 . S
C1054 H1068 0.961 . S
C1055 C1052 1.539 . S
C1055 H1069 0.958 . S
C1055 H1070 0.961 . S
C1055 H1071 0.960 . S
H1056 C1040 0.931 . S
H1057 C1045 0.929 . S
H1058 C1046 0.960 . S
H1059 C1046 0.962 . S
H1060 C1046 0.960 . S
H1061 C1047 0.961 . S
H1062 C1047 0.961 . S
H1063 C1047 0.961 . S
H1064 C1048 0.931 . S
H1065 C1053 0.930 . S
H1066 C1054 0.956 . S
H1067 C1054 0.961 . S
H1068 C1054 0.961 . S
H1069 C1055 0.958 . S
H1070 C1055 0.961 . S
H1071 C1055 0.960 . S
C1072 C1073 1.391 . S
C1072 C1074 1.394 . S
C1072 H1088 0.931 . S
C1073 C1072 1.391 . S
C1073 C1077 1.376 . S
C1074 C1072 1.394 . S
C1074 C1075 1.369 . S
C1074 C1078 1.531 . S
C1075 C1074 1.369 . S
C1075 C1076 1.410 1_655 S
C1075 C1083 1.503 1_655 S
C1076 C1075 1.410 1_455 S
C1076 C1077 1.392 1_455 S
C1076 C1079 1.511 . S
C1077 C1073 1.376 . S
C1077 C1076 1.392 1_655 S
C1077 H1089 0.929 . S
C1078 C1074 1.531 . S
C1078 H1090 0.960 . S
C1078 H1091 0.962 . S
C1078 H1092 0.960 . S
C1079 C1076 1.511 . S
C1079 H1093 0.961 . S
C1079 H1094 0.961 . S
C1079 H1095 0.961 . S
C1080 C1081 1.370 . S
C1080 C1082 1.363 . S
C1080 H1096 0.931 . S
C1081 C1080 1.370 . S
C1081 C1085 1.408 . S
C1082 C1080 1.363 . S
C1082 C1083 1.370 . S
C1082 C1086 1.524 1_455 S
C1083 C1075 1.503 1_455 S
C1083 C1082 1.370 . S
C1083 C1084 1.403 . S
C1084 C1083 1.403 . S
C1084 C1085 1.404 . S
C1084 C1087 1.539 . S
C1085 C1081 1.408 . S
C1085 C1084 1.404 . S
C1085 H1097 0.930 . S
C1086 C1082 1.524 1_655 S
C1086 H1098 0.956 . S
C1086 H1099 0.961 . S
C1086 H1100 0.961 . S
C1087 C1084 1.539 . S
C1087 H1101 0.958 . S
C1087 H1102 0.961 . S
C1087 H1103 0.960 . S
H1088 C1072 0.931 . S
H1089 C1077 0.929 . S
H1090 C1078 0.960 . S
H1091 C1078 0.962 . S
H1092 C1078 0.960 . S
H1093 C1079 0.961 . S
H1094 C1079 0.961 . S
H1095 C1079 0.961 . S
H1096 C1080 0.931 . S
H1097 C1085 0.930 . S
H1098 C1086 0.956 . S
H1099 C1086 0.961 . S
H1100 C1086 0.961 . S
H1101 C1087 0.958 . S
H1102 C1087 0.961 . S
H1103 C1087 0.960 . S
C1104 C1105 1.391 . S
C1104 C1106 1.394 1_545 S
C1104 H1120 0.931 . S
C1105 C1104 1.391 . S
C1105 C1109 1.376 . S
C1106 C1104 1.394 1_565 S
C1106 C1107 1.369 1_565 S
C1106 C1110 1.531 . S
C1107 C1106 1.369 1_545 S
C1107 C1108 1.410 . S
C1107 C1115 1.503 1_545 S
C1108 C1107 1.410 . S
C1108 C1109 1.392 . S
C1108 C1111 1.511 . S
C1109 C1105 1.376 . S
C1109 C1108 1.392 . S
C1109 H1121 0.929 . S
C1110 C1106 1.531 . S
C1110 H1122 0.960 . S
C1110 H1123 0.962 . S
C1110 H1124 0.960 . S
C1111 C1108 1.511 . S
C1111 H1125 0.961 . S
C1111 H1126 0.961 . S
C1111 H1127 0.961 . S
C1112 C1113 1.370 . S
C1112 C1114 1.363 . S
C1112 H1128 0.931 . S
C1113 C1112 1.370 . S
C1113 C1117 1.408 . S
C1114 C1112 1.363 . S
C1114 C1115 1.370 . S
C1114 C1118 1.524 . S
C1115 C1107 1.503 1_565 S
C1115 C1114 1.370 . S
C1115 C1116 1.403 . S
C1116 C1115 1.403 . S
C1116 C1117 1.404 . S
C1116 C1119 1.539 1_565 S
C1117 C1113 1.408 . S
C1117 C1116 1.404 . S
C1117 H1129 0.930 . S
C1118 C1114 1.524 . S
C1118 H1130 0.956 . S
C1118 H1131 0.961 1_565 S
C1118 H1132 0.961 . S
C1119 C1116 1.539 1_545 S
C1119 H1133 0.958 1_545 S
C1119 H1134 0.961 . S
C1119 H1135 0.960 . S
H1120 C1104 0.931 . S
H1121 C1109 0.929 . S
H1122 C1110 0.960 . S
H1123 C1110 0.962 . S
H1124 C1110 0.960 . S
H1125 C1111 0.961 . S
H1126 C1111 0.961 . S
H1127 C1111 0.961 . S
H1128 C1112 0.931 . S
H1129 C1117 0.930 . S
H1130 C1118 0.956 . S
H1131 C1118 0.961 1_545 S
H1132 C1118 0.961 . S
H1133 C1119 0.958 1_565 S
H1134 C1119 0.961 . S
H1135 C1119 0.960 . S
C1136 C1137 1.391 . S
C1136 C1138 1.394 . S
C1136 H1152 0.931 . S
C1137 C1136 1.391 . S
C1137 C1141 1.376 . S
C1138 C1136 1.394 . S
C1138 C1139 1.369 . S
C1138 C1142 1.531 . S
C1139 C1138 1.369 . S
C1139 C1140 1.410 . S
C1139 C1147 1.503 . S
C1140 C1139 1.410 . S
C1140 C1141 1.392 . S
C1140 C1143 1.511 . S
C1141 C1137 1.376 . S
C1141 C1140 1.392 . S
C1141 H1153 0.929 . S
C1142 C1138 1.531 . S
C1142 H1154 0.960 . S
C1142 H1155 0.962 . S
C1142 H1156 0.960 . S
C1143 C1140 1.511 . S
C1143 H1157 0.961 . S
C1143 H1158 0.961 . S
C1143 H1159 0.961 . S
C1144 C1145 1.370 . S
C1144 C1146 1.363 . S
C1144 H1160 0.931 . S
C1145 C1144 1.370 . S
C1145 C1149 1.408 . S
C1146 C1144 1.363 . S
C1146 C1147 1.370 . S
C1146 C1150 1.524 . S
C1147 C1139 1.503 . S
C1147 C1146 1.370 . S
C1147 C1148 1.403 . S
C1148 C1147 1.403 . S
C1148 C1149 1.404 . S
C1148 C1151 1.539 . S
C1149 C1145 1.408 . S
C1149 C1148 1.404 . S
C1149 H1161 0.930 . S
C1150 C1146 1.524 . S
C1150 H1162 0.956 . S
C1150 H1163 0.961 . S
C1150 H1164 0.961 . S
C1151 C1148 1.539 . S
C1151 H1165 0.958 . S
C1151 H1166 0.961 . S
C1151 H1167 0.960 . S
H1152 C1136 0.931 . S
H1153 C1141 0.929 . S
H1154 C1142 0.960 . S
H1155 C1142 0.962 . S
H1156 C1142 0.960 . S
H1157 C1143 0.961 . S
H1158 C1143 0.961 . S
H1159 C1143 0.961 . S
H1160 C1144 0.931 . S
H1161 C1149 0.930 . S
H1162 C1150 0.956 . S
H1163 C1150 0.961 . S
H1164 C1150 0.961 . S
H1165 C1151 0.958 . S
H1166 C1151 0.961 . S
H1167 C1151 0.960 . S
C1168 C1169 1.391 . S
C1168 C1170 1.394 . S
C1168 H1184 0.931 . S
C1169 C1168 1.391 . S
C1169 C1173 1.376 . S
C1170 C1168 1.394 . S
C1170 C1171 1.369 . S
C1170 C1174 1.531 . S
C1171 C1170 1.369 . S
C1171 C1172 1.410 . S
C1171 C1179 1.503 1_455 S
C1172 C1171 1.410 . S
C1172 C1173 1.392 . S
C1172 C1175 1.511 . S
C1173 C1169 1.376 . S
C1173 C1172 1.392 . S
C1173 H1185 0.929 . S
C1174 C1170 1.531 . S
C1174 H1186 0.960 . S
C1174 H1187 0.967 . S
C1174 H1188 0.960 . S
C1175 C1172 1.511 . S
C1175 H1189 0.961 . S
C1175 H1190 0.961 1_455 S
C1175 H1191 0.961 . S
C1176 C1177 1.370 . S
C1176 C1178 1.363 . S
C1176 H1192 0.931 . S
C1177 C1176 1.370 . S
C1177 C1181 1.408 . S
C1178 C1176 1.363 . S
C1178 C1179 1.370 . S
C1178 C1182 1.524 . S
C1179 C1171 1.503 1_655 S
C1179 C1178 1.370 . S
C1179 C1180 1.403 1_655 S
C1180 C1179 1.403 1_455 S
C1180 C1181 1.404 1_455 S
C1180 C1183 1.539 . S
C1181 C1177 1.408 . S
C1181 C1180 1.404 1_655 S
C1181 H1193 0.930 . S
C1182 C1178 1.524 . S
C1182 H1194 0.956 . S
C1182 H1195 0.961 . S
C1182 H1196 0.961 . S
C1183 C1180 1.539 . S
C1183 H1197 0.958 . S
C1183 H1198 0.961 . S
C1183 H1199 0.960 . S
H1184 C1168 0.931 . S
H1185 C1173 0.929 . S
H1186 C1174 0.960 . S
H1187 C1174 0.967 . S
H1188 C1174 0.960 . S
H1189 C1175 0.961 . S
H1190 C1175 0.961 1_655 S
H1191 C1175 0.961 . S
H1192 C1176 0.931 . S
H1193 C1181 0.930 . S
H1194 C1182 0.956 . S
H1195 C1182 0.961 . S
H1196 C1182 0.961 . S
H1197 C1183 0.958 . S
H1198 C1183 0.961 . S
H1199 C1183 0.960 . S
C1200 C1201 1.391 . S
C1200 C1202 1.394 . S
C1200 H1216 0.931 . S
C1201 C1200 1.391 . S
C1201 C1205 1.376 . S
C1202 C1200 1.394 . S
C1202 C1203 1.369 . S
C1202 C1206 1.531 . S
C1203 C1202 1.369 . S
C1203 C1204 1.410 . S
C1203 C1211 1.503 . S
C1204 C1203 1.410 . S
C1204 C1205 1.392 . S
C1204 C1207 1.511 . S
C1205 C1201 1.376 . S
C1205 C1204 1.392 . S
C1205 H1217 0.929 . S
C1206 C1202 1.531 . S
C1206 H1218 0.960 . S
C1206 H1219 0.962 . S
C1206 H1220 0.960 . S
C1207 C1204 1.511 . S
C1207 H1221 0.961 . S
C1207 H1222 0.961 . S
C1207 H1223 0.961 . S
C1208 C1209 1.370 . S
C1208 C1210 1.363 . S
C1208 H1224 0.931 . S
C1209 C1208 1.370 . S
C1209 C1213 1.408 . S
C1210 C1208 1.363 . S
C1210 C1211 1.370 . S
C1210 C1214 1.524 . S
C1211 C1203 1.503 . S
C1211 C1210 1.370 . S
C1211 C1212 1.403 . S
C1212 C1211 1.403 . S
C1212 C1213 1.404 . S
C1212 C1215 1.539 . S
C1213 C1209 1.408 . S
C1213 C1212 1.404 . S
C1213 H1225 0.930 . S
C1214 C1210 1.524 . S
C1214 H1226 0.956 . S
C1214 H1227 0.961 . S
C1214 H1228 0.961 . S
C1215 C1212 1.539 . S
C1215 H1229 0.958 . S
C1215 H1230 0.961 . S
C1215 H1231 0.960 . S
H1216 C1200 0.931 . S
H1217 C1205 0.929 . S
H1218 C1206 0.960 . S
H1219 C1206 0.962 . S
H1220 C1206 0.960 . S
H1221 C1207 0.961 . S
H1222 C1207 0.961 . S
H1223 C1207 0.961 . S
H1224 C1208 0.931 . S
H1225 C1213 0.930 . S
H1226 C1214 0.956 . S
H1227 C1214 0.961 . S
H1228 C1214 0.961 . S
H1229 C1215 0.958 . S
H1230 C1215 0.961 . S
H1231 C1215 0.960 . S
C1232 C1233 1.391 . S
C1232 C1234 1.394 . S
C1232 H1248 0.931 . S
C1233 C1232 1.391 . S
C1233 C1237 1.376 . S
C1234 C1232 1.394 . S
C1234 C1235 1.369 . S
C1234 C1238 1.531 . S
C1235 C1234 1.369 . S
C1235 C1236 1.410 . S
C1235 C1243 1.503 . S
C1236 C1235 1.410 . S
C1236 C1237 1.392 . S
C1236 C1239 1.511 . S
C1237 C1233 1.376 . S
C1237 C1236 1.392 . S
C1237 H1249 0.929 . S
C1238 C1234 1.531 . S
C1238 H1250 0.960 . S
C1238 H1251 0.962 . S
C1238 H1252 0.960 . S
C1239 C1236 1.511 . S
C1239 H1253 0.961 . S
C1239 H1254 0.961 . S
C1239 H1255 0.961 . S
C1240 C1241 1.370 . S
C1240 C1242 1.363 . S
C1240 H1256 0.931 . S
C1241 C1240 1.370 . S
C1241 C1245 1.408 . S
C1242 C1240 1.363 . S
C1242 C1243 1.370 . S
C1242 C1246 1.524 . S
C1243 C1235 1.503 . S
C1243 C1242 1.370 . S
C1243 C1244 1.403 . S
C1244 C1243 1.403 . S
C1244 C1245 1.404 . S
C1244 C1247 1.539 . S
C1245 C1241 1.408 . S
C1245 C1244 1.404 . S
C1245 H1257 0.930 . S
C1246 C1242 1.524 . S
C1246 H1258 0.956 . S
C1246 H1259 0.961 . S
C1246 H1260 0.961 . S
C1247 C1244 1.539 . S
C1247 H1261 0.958 . S
C1247 H1262 0.961 . S
C1247 H1263 0.960 . S
H1248 C1232 0.931 . S
H1249 C1237 0.929 . S
H1250 C1238 0.960 . S
H1251 C1238 0.962 . S
H1252 C1238 0.960 . S
H1253 C1239 0.961 . S
H1254 C1239 0.961 . S
H1255 C1239 0.961 . S
H1256 C1240 0.931 . S
H1257 C1245 0.930 . S
H1258 C1246 0.956 . S
H1259 C1246 0.961 . S
H1260 C1246 0.961 . S
H1261 C1247 0.958 . S
H1262 C1247 0.961 . S
H1263 C1247 0.960 . S
C1264 C1265 1.391 . S
C1264 C1266 1.394 . S
C1264 H1280 0.931 . S
C1265 C1264 1.391 . S
C1265 C1269 1.376 . S
C1266 C1264 1.394 . S
C1266 C1267 1.369 . S
C1266 C1270 1.531 . S
C1267 C1266 1.369 . S
C1267 C1268 1.410 . S
C1267 C1275 1.503 . S
C1268 C1267 1.410 . S
C1268 C1269 1.392 . S
C1268 C1271 1.511 . S
C1269 C1265 1.376 . S
C1269 C1268 1.392 . S
C1269 H1281 0.929 . S
C1270 C1266 1.531 . S
C1270 H1282 0.960 . S
C1270 H1283 0.962 . S
C1270 H1284 0.960 . S
C1271 C1268 1.511 . S
C1271 H1285 0.961 . S
C1271 H1286 0.961 . S
C1271 H1287 0.961 . S
C1272 C1273 1.370 . S
C1272 C1274 1.363 . S
C1272 H1288 0.931 . S
C1273 C1272 1.370 . S
C1273 C1277 1.408 . S
C1274 C1272 1.363 . S
C1274 C1275 1.370 . S
C1274 C1278 1.524 . S
C1275 C1267 1.503 . S
C1275 C1274 1.370 . S
C1275 C1276 1.403 . S
C1276 C1275 1.403 . S
C1276 C1277 1.404 . S
C1276 C1279 1.539 . S
C1277 C1273 1.408 . S
C1277 C1276 1.404 . S
C1277 H1289 0.930 . S
C1278 C1274 1.524 . S
C1278 H1290 0.956 . S
C1278 H1291 0.961 . S
C1278 H1292 0.961 . S
C1279 C1276 1.539 . S
C1279 H1293 0.958 . S
C1279 H1294 0.961 . S
C1279 H1295 0.960 . S
H1280 C1264 0.931 . S
H1281 C1269 0.929 . S
H1282 C1270 0.960 . S
H1283 C1270 0.962 . S
H1284 C1270 0.960 . S
H1285 C1271 0.961 . S
H1286 C1271 0.961 . S
H1287 C1271 0.961 . S
H1288 C1272 0.931 . S
H1289 C1277 0.930 . S
H1290 C1278 0.956 . S
H1291 C1278 0.961 . S
H1292 C1278 0.961 . S
H1293 C1279 0.958 . S
H1294 C1279 0.961 . S
H1295 C1279 0.960 . S
C1296 C1297 1.391 . S
C1296 C1298 1.394 . S
C1296 H1312 0.931 . S
C1297 C1296 1.391 . S
C1297 C1301 1.376 . S
C1298 C1296 1.394 . S
C1298 C1299 1.369 . S
C1298 C1302 1.531 . S
C1299 C1298 1.369 . S
C1299 C1300 1.410 . S
C1299 C1307 1.503 . S
C1300 C1299 1.410 . S
C1300 C1301 1.392 . S
C1300 C1303 1.511 . S
C1301 C1297 1.376 . S
C1301 C1300 1.392 . S
C1301 H1313 0.929 . S
C1302 C1298 1.531 . S
C1302 H1314 0.960 . S
C1302 H1315 0.962 . S
C1302 H1316 0.960 . S
C1303 C1300 1.511 . S
C1303 H1317 0.961 . S
C1303 H1318 0.961 . S
C1303 H1319 0.961 . S
C1304 C1305 1.370 . S
C1304 C1306 1.363 . S
C1304 H1320 0.931 . S
C1305 C1304 1.370 . S
C1305 C1309 1.408 . S
C1306 C1304 1.363 . S
C1306 C1307 1.370 . S
C1306 C1310 1.524 . S
C1307 C1299 1.503 . S
C1307 C1306 1.370 . S
C1307 C1308 1.403 . S
C1308 C1307 1.403 . S
C1308 C1309 1.404 . S
C1308 C1311 1.539 . S
C1309 C1305 1.408 . S
C1309 C1308 1.404 . S
C1309 H1321 0.930 . S
C1310 C1306 1.524 . S
C1310 H1322 0.956 . S
C1310 H1323 0.961 . S
C1310 H1324 0.961 . S
C1311 C1308 1.539 . S
C1311 H1325 0.958 . S
C1311 H1326 0.961 . S
C1311 H1327 0.960 . S
H1312 C1296 0.931 . S
H1313 C1301 0.929 . S
H1314 C1302 0.960 . S
H1315 C1302 0.962 . S
H1316 C1302 0.960 . S
H1317 C1303 0.961 . S
H1318 C1303 0.961 . S
H1319 C1303 0.961 . S
H1320 C1304 0.931 . S
H1321 C1309 0.930 . S
H1322 C1310 0.956 . S
H1323 C1310 0.961 . S
H1324 C1310 0.961 . S
H1325 C1311 0.958 . S
H1326 C1311 0.961 . S
H1327 C1311 0.960 . S
C1328 C1329 1.391 . S
C1328 C1330 1.394 . S
C1328 H1344 0.931 . S
C1329 C1328 1.391 . S
C1329 C1333 1.376 . S
C1330 C1328 1.394 . S
C1330 C1331 1.369 . S
C1330 C1334 1.531 . S
C1331 C1330 1.369 . S
C1331 C1332 1.410 . S
C1331 C1339 1.503 . S
C1332 C1331 1.410 . S
C1332 C1333 1.392 . S
C1332 C1335 1.511 . S
C1333 C1329 1.376 . S
C1333 C1332 1.392 . S
C1333 H1345 0.929 . S
C1334 C1330 1.531 . S
C1334 H1346 0.960 . S
C1334 H1347 0.962 . S
C1334 H1348 0.960 . S
C1335 C1332 1.511 . S
C1335 H1349 0.961 . S
C1335 H1350 0.961 . S
C1335 H1351 0.961 . S
C1336 C1337 1.370 . S
C1336 C1338 1.363 . S
C1336 H1352 0.931 . S
C1337 C1336 1.370 . S
C1337 C1341 1.408 . S
C1338 C1336 1.363 . S
C1338 C1339 1.370 . S
C1338 C1342 1.524 . S
C1339 C1331 1.503 . S
C1339 C1338 1.370 . S
C1339 C1340 1.403 . S
C1340 C1339 1.403 . S
C1340 C1341 1.404 . S
C1340 C1343 1.539 . S
C1341 C1337 1.408 . S
C1341 C1340 1.404 . S
C1341 H1353 0.930 . S
C1342 C1338 1.524 . S
C1342 H1354 0.956 . S
C1342 H1355 0.961 . S
C1342 H1356 0.961 . S
C1343 C1340 1.539 . S
C1343 H1357 0.958 . S
C1343 H1358 0.961 . S
C1343 H1359 0.960 . S
H1344 C1328 0.931 . S
H1345 C1333 0.929 . S
H1346 C1334 0.960 . S
H1347 C1334 0.962 . S
H1348 C1334 0.960 . S
H1349 C1335 0.961 . S
H1350 C1335 0.961 . S
H1351 C1335 0.961 . S
H1352 C1336 0.931 . S
H1353 C1341 0.930 . S
H1354 C1342 0.956 . S
H1355 C1342 0.961 . S
H1356 C1342 0.961 . S
H1357 C1343 0.958 . S
H1358 C1343 0.961 . S
H1359 C1343 0.960 . S
C1360 C1361 1.391 . S
C1360 C1362 1.394 . S
C1360 H1376 0.931 . S
C1361 C1360 1.391 . S
C1361 C1365 1.376 . S
C1362 C1360 1.394 . S
C1362 C1363 1.369 . S
C1362 C1366 1.531 . S
C1363 C1362 1.369 . S
C1363 C1364 1.410 . S
C1363 C1371 1.503 . S
C1364 C1363 1.410 . S
C1364 C1365 1.392 . S
C1364 C1367 1.511 . S
C1365 C1361 1.376 . S
C1365 C1364 1.392 . S
C1365 H1377 0.929 . S
C1366 C1362 1.531 . S
C1366 H1378 0.960 . S
C1366 H1379 0.962 . S
C1366 H1380 0.960 . S
C1367 C1364 1.511 . S
C1367 H1381 0.961 . S
C1367 H1382 0.961 . S
C1367 H1383 0.961 . S
C1368 C1369 1.370 . S
C1368 C1370 1.363 . S
C1368 H1384 0.931 . S
C1369 C1368 1.370 . S
C1369 C1373 1.408 . S
C1370 C1368 1.363 . S
C1370 C1371 1.370 . S
C1370 C1374 1.524 . S
C1371 C1363 1.503 . S
C1371 C1370 1.370 . S
C1371 C1372 1.403 . S
C1372 C1371 1.403 . S
C1372 C1373 1.404 . S
C1372 C1375 1.539 . S
C1373 C1369 1.408 . S
C1373 C1372 1.404 . S
C1373 H1385 0.930 . S
C1374 C1370 1.524 . S
C1374 H1386 0.956 . S
C1374 H1387 0.961 . S
C1374 H1388 0.961 . S
C1375 C1372 1.539 . S
C1375 H1389 0.958 . S
C1375 H1390 0.961 . S
C1375 H1391 0.960 . S
H1376 C1360 0.931 . S
H1377 C1365 0.929 . S
H1378 C1366 0.960 . S
H1379 C1366 0.962 . S
H1380 C1366 0.960 . S
H1381 C1367 0.961 . S
H1382 C1367 0.961 . S
H1383 C1367 0.961 . S
H1384 C1368 0.931 . S
H1385 C1373 0.930 . S
H1386 C1374 0.956 . S
H1387 C1374 0.961 . S
H1388 C1374 0.961 . S
H1389 C1375 0.958 . S
H1390 C1375 0.961 . S
H1391 C1375 0.960 . S
C241 C18 1.080 . S
C249 C178 1.061 . S
C273 C38 1.079 . S
C281 C198 1.058 . S
C305 C58 1.047 . S
C313 C218 1.044 . S
C337 C238 1.058 . S
C345 C78 1.047 . S
C369 C98 1.043 . S
C377 C138 1.044 . S
C401 C158 1.075 . S
C409 C118 1.065 . S
C433 C209 0.828 . S
C441 C9 0.887 . S
C465 C229 0.865 . S
C473 C29 0.866 . S
C497 C49 0.863 . S
C505 C129 0.866 . S
C529 C149 0.829 . S
C537 C69 0.883 . S
C561 C169 0.903 . S
C569 C89 0.914 . S
C593 C109 0.832 . S
C601 C189 0.879 . S
C625 C142 1.399 . S
C633 C2 1.436 . S
C657 C162 1.462 . S
C665 C22 1.467 . S
C689 C182 1.434 . S
C697 C42 1.437 . S
C721 C62 1.450 . S
C729 C202 1.464 . S
C753 C82 1.434 . S
C761 C222 1.458 . S
C785 C102 1.399 . S
C793 C122 1.434 . S
C817 C19 0.406 . S
C825 C79 0.355 . S
C849 C39 0.279 . S
C857 C99 0.307 . S
C881 C59 0.351 . S
C889 C119 0.337 . S
C913 C199 0.361 . S
C921 C139 0.342 . S
C945 C159 0.247 . S
C953 C219 0.289 . S
C977 C239 0.322 . S
C985 C179 0.325 . S
C1009 C152 1.328 . S
C1017 C12 1.330 . S
C1041 C172 1.291 . S
C1049 C32 1.323 . S
C1073 C52 1.385 . S
C1081 C192 1.358 . S
C1105 C212 1.291 . S
C1113 C72 1.326 . S
C1137 C232 1.386 . S
C1145 C92 1.360 . S
C1169 C112 1.338 . S
C1177 C132 1.349 . S
C1201 C4 1.599 . S
C1209 C204 1.600 . S
C1233 C24 1.619 . S
C1241 C224 1.582 . S
C1265 C44 1.561 . S
C1273 C124 1.596 . S
C1297 C64 1.608 . S
C1305 C144 1.598 . S
C1329 C84 1.621 . S
C1337 C164 1.587 . S
C1361 C184 1.619 . S
C1369 C104 1.592 . S
