# Generated by pormake.
# Topology sxa, (6)-cn, num edge types: 1
# Building blocks:
#     Node 0, Type 0, BuildingBlock: BETDEL_clean_sbu_0, # of connection points: 6
#     Node 1, Type 0, BuildingBlock: BETDEL_clean_sbu_0, # of connection points: 6
#     Node 2, Type 0, BuildingBlock: BETDEL_clean_sbu_0, # of connection points: 6
#     Node 3, Type 0, BuildingBlock: BETDEL_clean_sbu_0, # of connection points: 6
#     Edge 4, Type (0, 0), BuildingBlock: MIFKUJ_clean_linker_0, # of connection points: 2
#     Edge 5, Type (0, 0), BuildingBlock: MIFKUJ_clean_linker_0, # of connection points: 2
#     Edge 6, Type (0, 0), BuildingBlock: MIFKUJ_clean_linker_0, # of connection points: 2
#     Edge 7, Type (0, 0), BuildingBlock: MIFKUJ_clean_linker_0, # of connection points: 2
#     Edge 8, Type (0, 0), BuildingBlock: MIFKUJ_clean_linker_0, # of connection points: 2
#     Edge 9, Type (0, 0), BuildingBlock: MIFKUJ_clean_linker_0, # of connection points: 2
#     Edge 10, Type (0, 0), BuildingBlock: MIFKUJ_clean_linker_0, # of connection points: 2
#     Edge 11, Type (0, 0), BuildingBlock: MIFKUJ_clean_linker_0, # of connection points: 2
#     Edge 12, Type (0, 0), BuildingBlock: MIFKUJ_clean_linker_0, # of connection points: 2
#     Edge 13, Type (0, 0), BuildingBlock: MIFKUJ_clean_linker_0, # of connection points: 2
#     Edge 14, Type (0, 0), BuildingBlock: MIFKUJ_clean_linker_0, # of connection points: 2
#     Edge 15, Type (0, 0), BuildingBlock: MIFKUJ_clean_linker_0, # of connection points: 2
# Relax obj value: 0.077
# Max RMSD: 0.215
# Mean RMSD: 0.215
data_MOF--net-sxa--node1-BETDEL_clean_sbu_0--edge1-MIFKUJ_clean_linker_0
_symmetry_space_group_name_H-M    P1
_symmetry_Int_Tables_number       1
_symmetry_cell_setting            triclinic
loop_
_symmetry_equiv_pos_as_xyz
'x, y, z'
_cell_length_a     36.825091
_cell_length_b     36.116768
_cell_length_c     16.238982
_cell_angle_alpha  91.733242
_cell_angle_beta   90.050502
_cell_angle_gamma 90.176918
loop_
_atom_site_label
_atom_site_type_symbol
_atom_site_fract_x
_atom_site_fract_y
_atom_site_fract_z
_atom_type_partial_charge
Dy0 Dy 0.04099 0.78163 0.12076 0.0
C1 C 0.92988 0.7576 0.36214 0.0
C2 C 0.09134 0.80408 0.00901 0.0
Dy3 Dy 0.98424 0.77137 0.25034 0.0
O4 O 0.07696 0.77126 0.01074 0.0
O5 O 0.07669 0.82486 0.06617 0.0
O6 O 0.06301 0.72535 0.14521 0.0
O7 O 1.00713 0.73359 0.15481 0.0
C8 C 0.0321 0.7098 0.16114 0.0
C9 C 0.99065 0.84126 0.19593 0.0
O10 O 0.03564 0.76122 0.32327 0.0
O11 O 0.0742 0.79103 0.23404 0.0
O12 O 0.9511 0.78639 0.36352 0.0
O13 O 0.93993 0.73519 0.30236 0.0
O14 O 0.96019 0.82615 0.21601 0.0
O15 O 0.0162 0.81921 0.21045 0.0
O16 O 0.99061 0.79017 0.04624 0.0
O17 O 0.95335 0.75862 0.13509 0.0
C18 C 0.06772 0.77595 0.30558 0.0
C19 C 0.95941 0.77404 0.06356 0.0
Dy20 Dy 0.54193 0.28328 0.09316 0.0
C21 C 0.4267 0.27406 0.33728 0.0
C22 C 0.58926 0.30343 0.97436 0.0
Dy23 Dy 0.48941 0.28291 0.2479 0.0
O24 O 0.57267 0.27157 0.97615 0.0
O25 O 0.57809 0.32462 0.03518 0.0
O26 O 0.56215 0.2278 0.12476 0.0
O27 O 0.50815 0.2406 0.1532 0.0
C28 C 0.53216 0.21532 0.15589 0.0
C29 C 0.50689 0.35284 0.20107 0.0
O30 O 0.54393 0.27324 0.30956 0.0
O31 O 0.57905 0.29391 0.20015 0.0
O32 O 0.45876 0.2629 0.36127 0.0
O33 O 0.42978 0.28973 0.26715 0.0
O34 O 0.48848 0.34659 0.26731 0.0
O35 O 0.5148 0.32176 0.17125 0.0
O36 O 0.48947 0.28642 0.02589 0.0
O37 O 0.45429 0.26957 0.13832 0.0
C38 C 0.57583 0.28295 0.2771 0.0
C39 C 0.45813 0.27745 0.05957 0.0
Dy40 Dy 0.04212 0.25348 0.90391 0.0
C41 C 0.93352 0.2885 0.64973 0.0
C42 C 0.09608 0.21683 0.9828 0.0
Dy43 Dy 0.98707 0.2688 0.7583 0.0
O44 O 0.07971 0.24632 0.01188 0.0
O45 O 0.08112 0.20668 0.9136 0.0
O46 O 0.05274 0.31204 0.94827 0.0
O47 O 0.01732 0.30189 0.84948 0.0
C48 C 0.03128 0.32717 0.89543 0.0
C49 C 0.99214 0.19791 0.8082 0.0
O50 O 0.04066 0.27911 0.69268 0.0
O51 O 0.07975 0.2638 0.80021 0.0
O52 O 0.95719 0.26225 0.63649 0.0
O53 O 0.94096 0.30543 0.71957 0.0
O54 O 0.96266 0.21218 0.77976 0.0
O55 O 0.01733 0.22138 0.80317 0.0
O56 O 0.98878 0.24376 0.96504 0.0
O57 O 0.95649 0.28049 0.87487 0.0
C58 C 0.07389 0.27429 0.72392 0.0
C59 C 0.95945 0.26256 0.94457 0.0
Dy60 Dy 0.54117 0.77845 0.89601 0.0
C61 C 0.42778 0.78243 0.64238 0.0
C62 C 0.59047 0.76943 0.01834 0.0
Dy63 Dy 0.48511 0.77198 0.74803 0.0
O64 O 0.57083 0.79888 0.00901 0.0
O65 O 0.58168 0.74439 0.96263 0.0
O66 O 0.55549 0.83465 0.85442 0.0
O67 O 0.50194 0.81636 0.83956 0.0
C68 C 0.5232 0.84374 0.83012 0.0
C69 C 0.50503 0.7044 0.80314 0.0
O70 O 0.5375 0.78344 0.6808 0.0
O71 O 0.57701 0.76774 0.78687 0.0
O72 O 0.44908 0.75386 0.64158 0.0
O73 O 0.43912 0.80631 0.69823 0.0
O74 O 0.48236 0.70841 0.74283 0.0
O75 O 0.51527 0.73626 0.82466 0.0
O76 O 0.4902 0.77085 0.96821 0.0
O77 O 0.44891 0.77061 0.85796 0.0
C78 C 0.57052 0.77586 0.70917 0.0
C79 C 0.45684 0.76917 0.93755 0.0
H80 H 0.0822 0.38048 0.89635 0.0
H81 H 0.07492 0.44567 0.93685 0.0
H82 H 0.95892 0.4306 0.9487 0.0
H83 H 0.96623 0.36488 0.90529 0.0
H84 H 0.97842 0.502 0.89435 0.0
H85 H 1.00628 0.42532 0.12057 0.0
H86 H 0.04023 0.37758 0.19367 0.0
H87 H 0.13743 0.44312 0.18077 0.0
H88 H 0.10418 0.49101 0.10641 0.0
H89 H 0.9678 0.67111 0.13988 0.0
H90 H 0.96025 0.60607 0.09405 0.0
H91 H 0.07664 0.59272 0.09218 0.0
H92 H 0.08413 0.6569 0.14035 0.0
H93 H 0.04825 0.53355 0.14853 0.0
H94 H 0.02138 0.60782 0.91209 0.0
H95 H 0.9875 0.65563 0.8389 0.0
H96 H 0.88824 0.5952 0.87203 0.0
H97 H 0.9215 0.54726 0.94641 0.0
C98 C 0.055 0.39136 0.9045 0.0
C99 C 0.02477 0.36771 0.89639 0.0
C100 C 0.05086 0.42862 0.92855 0.0
C101 C 0.01641 0.44313 0.94751 0.0
C102 C 0.98577 0.42018 0.93427 0.0
C103 C 0.98992 0.3827 0.90887 0.0
C104 C 0.0134 0.4809 0.98812 0.0
C105 C 0.99323 0.50877 0.95061 0.0
C106 C 0.03281 0.49011 0.06146 0.0
C107 C 0.05277 0.46165 0.10744 0.0
C108 C 0.03494 0.42946 0.13293 0.0
C109 C 0.05406 0.40238 0.17461 0.0
C110 C 0.09098 0.40728 0.19175 0.0
C111 C 0.10883 0.43935 0.16743 0.0
C112 C 0.08985 0.46649 0.12559 0.0
C113 C 0.99172 0.65408 0.13092 0.0
C114 C 0.0266 0.66934 0.14361 0.0
C115 C 0.98741 0.61692 0.10373 0.0
C116 C 0.01788 0.59429 0.08762 0.0
C117 C 0.05258 0.60929 0.10352 0.0
C118 C 0.05687 0.64618 0.13119 0.0
C119 C 0.0143 0.55524 0.05347 0.0
C120 C 0.03318 0.52692 0.09255 0.0
C121 C 0.99369 0.54578 0.98174 0.0
C122 C 0.97386 0.57417 0.93555 0.0
C123 C 0.9923 0.60483 0.90411 0.0
C124 C 0.97322 0.63195 0.86241 0.0
C125 C 0.93572 0.62852 0.85106 0.0
C126 C 0.91727 0.59786 0.88102 0.0
C127 C 0.93623 0.57069 0.9229 0.0
H128 H 0.92098 0.64958 0.8189 0.0
H129 H 0.10574 0.38627 0.22398 0.0
H130 H 0.51844 0.36728 0.03934 0.0
H131 H 0.52332 0.42764 0.9762 0.0
H132 H 0.51484 0.48158 0.2163 0.0
H133 H 0.50816 0.42096 0.27878 0.0
H134 H 0.47647 0.51823 0.12259 0.0
H135 H 0.59816 0.47571 0.09211 0.0
H136 H 0.64891 0.43437 0.0531 0.0
H137 H 0.61664 0.43714 0.79924 0.0
H138 H 0.56546 0.47816 0.83677 0.0
H139 H 0.52659 0.69518 0.96295 0.0
H140 H 0.53251 0.63657 0.03499 0.0
H141 H 0.50435 0.57592 0.81114 0.0
H142 H 0.49789 0.63437 0.73952 0.0
H143 H 0.56506 0.5456 0.9026 0.0
H144 H 0.44152 0.58899 0.94321 0.0
H145 H 0.39666 0.63609 0.98745 0.0
H146 H 0.4391 0.6356 0.23375 0.0
H147 H 0.48472 0.58901 0.19055 0.0
C148 C 0.51842 0.392 0.07875 0.0
C149 C 0.51359 0.38936 0.16416 0.0
C150 C 0.52124 0.42668 0.04259 0.0
C151 C 0.52022 0.45968 0.09116 0.0
C152 C 0.51579 0.45686 0.17692 0.0
C153 C 0.51221 0.42215 0.21285 0.0
C154 C 0.522 0.49692 0.05228 0.0
C155 C 0.49638 0.5242 0.0756 0.0
C156 C 0.54757 0.50526 0.98996 0.0
C157 C 0.5778 0.47983 0.96738 0.0
C158 C 0.60169 0.46725 0.02806 0.0
C159 C 0.63061 0.44397 0.00617 0.0
C160 C 0.63603 0.43321 0.92373 0.0
C161 C 0.61244 0.44555 0.86305 0.0
C162 C 0.58351 0.46886 0.88458 0.0
C163 C 0.52235 0.66931 0.92887 0.0
C164 C 0.51209 0.6693 0.84546 0.0
C165 C 0.52548 0.63585 0.97017 0.0
C166 C 0.51882 0.60178 0.92852 0.0
C167 C 0.50974 0.60178 0.84451 0.0
C168 C 0.50599 0.6352 0.8037 0.0
C169 C 0.51961 0.56618 0.97287 0.0
C170 C 0.54555 0.53937 0.95027 0.0
C171 C 0.49491 0.55859 0.03695 0.0
C172 C 0.4668 0.58579 0.06343 0.0
C173 C 0.44146 0.59911 0.00667 0.0
C174 C 0.41588 0.62571 0.03156 0.0
C175 C 0.41509 0.63891 0.1133 0.0
C176 C 0.43979 0.6254 0.17041 0.0
C177 C 0.46551 0.59889 0.14575 0.0
H178 H 0.39531 0.65954 0.13242 0.0
H179 H 0.65853 0.41534 0.90683 0.0
H180 H 0.56339 0.905 0.80333 0.0
H181 H 0.55476 0.96693 0.86484 0.0
H182 H 0.45112 0.93345 0.96117 0.0
H183 H 0.45987 0.8709 0.89996 0.0
H184 H 0.45515 1.01119 0.90389 0.0
H185 H 0.5162 0.92853 0.08466 0.0
H186 H 0.56258 0.88246 0.11988 0.0
H187 H 0.64711 0.96026 0.06652 0.0
H188 H 0.60128 1.00653 0.02933 0.0
H189 H 0.4658 0.17807 0.15915 0.0
H190 H 0.45403 0.11344 0.11425 0.0
H191 H 0.56856 0.09858 0.06718 0.0
H192 H 0.58042 0.16093 0.11841 0.0
H193 H 0.54896 0.03974 0.11578 0.0
H194 H 0.49041 0.11856 0.91317 0.0
H195 H 0.44529 0.16332 0.86412 0.0
H196 H 0.3587 0.09433 0.94877 0.0
H197 H 0.40324 0.04939 0.99888 0.0
C198 C 0.53818 0.91111 0.83524 0.0
C199 C 0.51229 0.88298 0.84631 0.0
C200 C 0.53338 0.94652 0.87094 0.0
C201 C 0.50255 0.95484 0.91881 0.0
C202 C 0.47516 0.92776 0.9246 0.0
C203 C 0.48005 0.89205 0.88895 0.0
C204 C 0.50125 0.99034 0.96888 0.0
C205 C 0.47537 1.01741 0.95099 0.0
C206 C 0.52767 0.99862 0.03013 0.0
C207 C 0.55527 0.97094 0.05373 0.0
C208 C 0.54468 0.93573 0.07986 0.0
C209 C 0.57087 0.90958 0.10021 0.0
C210 C 0.60776 0.91844 0.09543 0.0
C211 C 0.61853 0.95344 0.07023 0.0
C212 C 0.59245 0.97965 0.04954 0.0
C213 C 0.48846 0.16057 0.1412 0.0
C214 C 0.52405 0.17496 0.14227 0.0
C215 C 0.48167 0.12367 0.11385 0.0
C216 C 0.51019 0.10072 0.08443 0.0
C217 C 0.54576 0.11499 0.08902 0.0
C218 C 0.55258 0.15111 0.11839 0.0
C219 C 0.50415 0.0622 0.04777 0.0
C220 C 0.52855 0.03401 0.06888 0.0
C221 C 0.4767 0.05325 0.98858 0.0
C222 C 0.45014 0.08087 0.96055 0.0
C223 C 0.46175 0.11315 0.92195 0.0
C224 C 0.43627 0.13851 0.89388 0.0
C225 C 0.39915 0.13167 0.90344 0.0
C226 C 0.38742 0.09961 0.9415 0.0
C227 C 0.41275 0.07421 0.96973 0.0
H228 H 0.37943 0.15101 0.88083 0.0
H229 H 0.62802 0.89825 0.11146 0.0
H230 H 0.05256 0.8801 0.15673 0.0
H231 H 0.05652 0.93915 0.0864 0.0
H232 H 0.93952 0.94527 0.08099 0.0
H233 H 0.93566 0.88549 0.14663 0.0
H234 H 0.96291 0.9656 0.94138 0.0
H235 H 0.99757 0.99839 0.221 0.0
H236 H 0.0342 0.99438 0.34767 0.0
H237 H 0.13036 1.02194 0.21297 0.0
H238 H 0.09436 0.02567 0.08526 0.0
H239 H 0.93661 0.1552 0.86309 0.0
H240 H 0.93986 0.09493 0.92715 0.0
H241 H 0.05619 0.09475 0.89708 0.0
H242 H 0.0528 0.1551 0.83196 0.0
H243 H 0.03768 0.0708 0.04895 0.0
H244 H 1.002 0.04141 0.77125 0.0
H245 H 0.96499 0.04629 0.64545 0.0
H246 H 0.87016 1.01275 0.77799 0.0
H247 H 0.90653 1.00815 0.90492 0.0
C248 C 0.02775 0.89386 0.13957 0.0
C249 C 0.99383 0.87785 0.15658 0.0
C250 C 0.02998 0.92798 0.10027 0.0
C251 C 0.9983 0.9473 0.07878 0.0
C252 C 0.96445 0.93122 0.09641 0.0
C253 C 0.96225 0.89702 0.13461 0.0
C254 C 0.99998 0.98387 0.03708 0.0
C255 C 0.97896 0.98865 0.9658 0.0
C256 C 0.02172 1.01398 0.06668 0.0
C257 C 0.04334 1.01192 0.14345 0.0
C258 C 0.02657 1.00335 0.21831 0.0
C259 C 0.04721 1.00116 0.29029 0.0
C260 C 0.0846 1.00779 0.28831 0.0
C261 C 0.10141 1.01675 0.21438 0.0
C262 C 0.0809 1.01892 0.1422 0.0
C263 C 0.96294 0.14255 0.87079 0.0
C264 C 0.99462 0.16074 0.84526 0.0
C265 C 0.96476 0.10786 0.90702 0.0
C266 C 0.9983 0.09002 0.9173 0.0
C267 C 0.03001 0.10799 0.89102 0.0
C268 C 0.02813 0.14277 0.85466 0.0
C269 C 1.00001 0.05258 0.95463 0.0
C270 C 0.02173 0.04764 0.02467 0.0
C271 C 0.97883 1.02231 0.92416 0.0
C272 C 0.95694 1.02473 0.84776 0.0
C273 C 0.97321 0.03531 0.7737 0.0
C274 C 0.95235 0.03799 0.70217 0.0
C275 C 0.91523 0.02992 0.70377 0.0
C276 C 0.89891 1.01903 0.77686 0.0
C277 C 0.91964 1.01633 0.8486 0.0
H278 H 0.89912 0.03203 0.64834 0.0
H279 H 0.10053 1.00608 0.3441 0.0
H280 H 0.3957 0.72763 0.54866 0.0
H281 H 0.33351 0.72551 0.49623 0.0
H282 H 0.31619 0.83725 0.58925 0.0
H283 H 0.37825 0.83895 0.64405 0.0
H284 H 0.26128 0.79714 0.62976 0.0
H285 H 0.32438 0.81232 0.37389 0.0
H286 H 0.37024 0.79748 0.26733 0.0
H287 H 0.32389 0.68903 0.23042 0.0
H288 H 0.27778 0.70318 0.33688 0.0
H289 H 0.1048 0.83436 0.3718 0.0
H290 H 0.16443 0.83314 0.43921 0.0
H291 H 0.1626 0.71378 0.42713 0.0
H292 H 0.10207 0.71499 0.36247 0.0
H293 H 0.22586 0.75501 0.34743 0.0
H294 H 0.16072 0.74215 0.59979 0.0
H295 H 0.11626 0.7573 0.70897 0.0
H296 H 0.16721 0.86318 0.75214 0.0
H297 H 0.21156 0.84902 0.64195 0.0
C298 C 0.37886 0.752 0.55668 0.0
C299 C 0.39199 0.78353 0.60023 0.0
C300 C 0.3432 0.75081 0.5264 0.0
C301 C 0.31992 0.78135 0.53774 0.0
C302 C 0.33341 0.81326 0.57951 0.0
C303 C 0.36902 0.81433 0.61044 0.0
C304 C 0.28108 0.7793 0.51022 0.0
C305 C 0.25367 0.7885 0.56755 0.0
C306 C 0.27076 0.76692 0.42971 0.0
C307 C 0.29798 0.75863 0.36434 0.0
C308 C 0.32412 0.78522 0.34345 0.0
C309 C 0.35014 0.77694 0.28302 0.0
C310 C 0.35025 0.74218 0.24289 0.0
C311 C 0.32398 0.71582 0.26215 0.0
C312 C 0.2978 0.72402 0.32227 0.0
C313 C 0.1165 0.80789 0.3867 0.0
C314 C 0.09853 0.77477 0.36382 0.0
C315 C 0.15066 0.80721 0.4246 0.0
C316 C 0.16797 0.77339 0.43829 0.0
C317 C 0.14959 0.74018 0.41776 0.0
C318 C 0.11489 0.74086 0.38175 0.0
C319 C 0.20641 0.77316 0.46684 0.0
C320 C 0.23364 0.76366 0.40955 0.0
C321 C 0.21658 0.78558 0.54707 0.0
C322 C 0.18914 0.79473 0.61149 0.0
C323 C 0.16209 0.76894 0.63147 0.0
C324 C 0.13698 0.77729 0.69383 0.0
C325 C 0.13877 0.81127 0.73709 0.0
C326 C 0.16574 0.83694 0.71827 0.0
C327 C 0.19086 0.82877 0.65582 0.0
H328 H 0.11935 0.81766 0.78539 0.0
H329 H 0.37046 0.73578 0.19627 0.0
H330 H 0.14017 0.29388 0.78277 0.0
H331 H 0.19776 0.29452 0.71106 0.0
H332 H 0.14319 0.26858 0.48126 0.0
H333 H 0.08446 0.26692 0.55445 0.0
H334 H 0.20214 0.22627 0.49514 0.0
H335 H 0.18177 0.35451 0.51638 0.0
H336 H 0.16427 0.41438 0.58139 0.0
H337 H 0.25228 0.4067 0.75323 0.0
H338 H 0.26996 0.34627 0.68989 0.0
H339 H 0.36131 0.27079 0.26309 0.0
H340 H 0.30113 0.27054 0.3257 0.0
H341 H 0.34982 0.26992 0.56714 0.0
H342 H 0.41089 0.26931 0.50387 0.0
H343 H 0.29287 0.32671 0.5406 0.0
H344 H 0.31238 0.19487 0.49827 0.0
H345 H 0.32631 0.13824 0.41585 0.0
H346 H 0.2346 0.15802 0.25992 0.0
H347 H 0.2209 0.2153 0.33935 0.0
C348 C 0.14006 0.28866 0.7167 0.0
C349 C 0.10745 0.28025 0.67449 0.0
C350 C 0.17327 0.28927 0.67553 0.0
C351 C 0.17513 0.28192 0.59036 0.0
C352 C 0.14255 0.27441 0.54705 0.0
C353 C 0.10893 0.27383 0.58868 0.0
C354 C 0.21151 0.28063 0.54898 0.0
C355 C 0.22172 0.24854 0.50394 0.0
C356 C 0.23743 0.30946 0.56067 0.0
C357 C 0.22712 0.3458 0.59878 0.0
C358 C 0.19728 0.36545 0.56841 0.0
C359 C 0.18733 0.39946 0.60489 0.0
C360 C 0.20715 0.41426 0.67153 0.0
C361 C 0.237 0.3951 0.70168 0.0
C362 C 0.24704 0.36103 0.66546 0.0
C363 C 0.35934 0.27008 0.32961 0.0
C364 C 0.39092 0.2699 0.37857 0.0
C365 C 0.32481 0.26995 0.36529 0.0
C366 C 0.32078 0.27018 0.45112 0.0
C367 C 0.35225 0.26968 0.50066 0.0
C368 C 0.3871 0.26906 0.46461 0.0
C369 C 0.2836 0.27211 0.48797 0.0
C370 C 0.27326 0.30446 0.53195 0.0
C371 C 0.2572 0.24405 0.4726 0.0
C372 C 0.26584 0.20966 0.42434 0.0
C373 C 0.2955 0.18743 0.44565 0.0
C374 C 0.30337 0.15517 0.39937 0.0
C375 C 0.28154 0.14462 0.33219 0.0
C376 C 0.25175 0.16629 0.31133 0.0
C377 C 0.24393 0.19868 0.35695 0.0
H378 H 0.28758 0.11959 0.29655 0.0
H379 H 0.19941 0.4406 0.69973 0.0
H380 H 0.87375 0.32777 0.69826 0.0
H381 H 0.81305 0.32624 0.63693 0.0
H382 H 0.85243 0.2557 0.43799 0.0
H383 H 0.91325 0.25605 0.50117 0.0
H384 H 0.80284 0.32125 0.39589 0.0
H385 H 0.80878 0.21039 0.55355 0.0
H386 H 0.82526 0.1778 0.6795 0.0
H387 H 0.75229 0.24661 0.82056 0.0
H388 H 0.73534 0.27992 0.69569 0.0
H389 H 0.64089 0.26466 0.21337 0.0
H390 H 0.69995 0.26396 0.27894 0.0
H391 H 0.65097 0.2972 0.51072 0.0
H392 H 0.5904 0.29513 0.44484 0.0
H393 H 0.70596 0.25283 0.54058 0.0
H394 H 0.69606 0.36055 0.37641 0.0
H395 H 0.68457 0.39641 0.25221 0.0
H396 H 0.76864 0.33655 0.12316 0.0
H397 H 0.78021 0.29985 0.24597 0.0
C398 C 0.86972 0.3123 0.64099 0.0
C399 C 0.89846 0.29208 0.60471 0.0
C400 C 0.83488 0.31136 0.60606 0.0
C401 C 0.82806 0.29074 0.53298 0.0
C402 C 0.85704 0.27184 0.49436 0.0
C403 C 0.89181 0.27214 0.53039 0.0
C404 C 0.79033 0.28784 0.49926 0.0
C405 C 0.78172 0.30592 0.42675 0.0
C406 C 0.76256 0.2687 0.54077 0.0
C407 C 0.77094 0.24771 0.6154 0.0
C408 C 0.79622 0.21859 0.61154 0.0
C409 C 0.80562 0.20002 0.68275 0.0
C410 C 0.7898 0.21024 0.75814 0.0
C411 C 0.76436 0.23883 0.76222 0.0
C412 C 0.75477 0.25748 0.69121 0.0
C413 C 0.6424 0.27115 0.27865 0.0
C414 C 0.61075 0.28 0.32348 0.0
C415 C 0.6765 0.27126 0.31617 0.0
C416 C 0.68058 0.2819 0.39952 0.0
C417 C 0.64885 0.28931 0.44603 0.0
C418 C 0.61417 0.28813 0.40844 0.0
C419 C 0.71808 0.2861 0.43581 0.0
C420 C 0.7268 0.26833 0.50927 0.0
C421 C 0.7461 0.30567 0.39492 0.0
C422 C 0.73889 0.32735 0.32041 0.0
C423 C 0.7119 0.35483 0.32133 0.0
C424 C 0.70537 0.3753 0.25115 0.0
C425 C 0.72586 0.36875 0.17985 0.0
C426 C 0.75276 0.34155 0.17835 0.0
C427 C 0.75935 0.32094 0.24827 0.0
H428 H 0.72103 0.38496 0.12601 0.0
H429 H 0.79722 0.19602 0.8134 0.0
H430 H 0.90114 0.80891 0.47008 0.0
H431 H 0.83935 0.81122 0.52484 0.0
H432 H 0.81554 0.70586 0.40432 0.0
H433 H 0.87732 0.70389 0.34785 0.0
H434 H 0.76194 0.7533 0.37816 0.0
H435 H 0.8262 0.71522 0.61958 0.0
H436 H 0.87593 0.72047 0.72121 0.0
H437 H 0.83939 0.82914 0.79582 0.0
H438 H 0.78951 0.82462 0.69431 0.0
H439 H 0.59363 0.72377 0.59588 0.0
H440 H 0.65399 0.72034 0.53144 0.0
H441 H 0.6814 0.82686 0.64219 0.0
H442 H 0.62119 0.8301 0.70647 0.0
H443 H 0.73301 0.77705 0.67327 0.0
H444 H 0.66857 0.81555 0.43486 0.0
H445 H 0.6214 0.8133 0.32697 0.0
H446 H 0.65922 0.70641 0.24283 0.0
H447 H 0.70626 0.70769 0.3512 0.0
C448 C 0.883 0.78584 0.45662 0.0
C449 C 0.89435 0.75597 0.40547 0.0
C450 C 0.84755 0.7872 0.48796 0.0
C451 C 0.8226 0.75853 0.46969 0.0
C452 C 0.83414 0.72833 0.41965 0.0
C453 C 0.86961 0.72703 0.38799 0.0
C454 C 0.78422 0.76078 0.5002 0.0
C455 C 0.75561 0.75783 0.44291 0.0
C456 C 0.77574 0.76776 0.58441 0.0
C457 C 0.80442 0.76975 0.64863 0.0
C458 C 0.82881 0.74026 0.65758 0.0
C459 C 0.85702 0.74311 0.7151 0.0
C460 C 0.86105 0.77528 0.76421 0.0
C461 C 0.83642 0.80438 0.75714 0.0
C462 C 0.80807 0.80161 0.69992 0.0
C463 C 0.61214 0.74697 0.6038 0.0
C464 C 0.60258 0.77755 0.65459 0.0
C465 C 0.64674 0.74493 0.56749 0.0
C466 C 0.67245 0.77337 0.58172 0.0
C467 C 0.66221 0.80456 0.63009 0.0
C468 C 0.62765 0.80663 0.66601 0.0
C469 C 0.71065 0.76965 0.5511 0.0
C470 C 0.73925 0.77228 0.60853 0.0
C471 C 0.71908 0.76248 0.46694 0.0
C472 C 0.6906 0.76147 0.40212 0.0
C473 C 0.66657 0.79135 0.39404 0.0
C474 C 0.63991 0.79029 0.33266 0.0
C475 C 0.63715 0.75961 0.27854 0.0
C476 C 0.66127 0.73006 0.28515 0.0
C477 C 0.68793 0.73094 0.34656 0.0
H478 H 0.61633 0.75875 0.23149 0.0
H479 H 0.8832 0.7776 0.80787 0.0
H480 H 0.40389 0.71796 0.94349 0.0
H481 H 0.34172 0.73115 0.98655 0.0
H482 H 0.3764 0.8364 0.09282 0.0
H483 H 0.43895 0.82303 0.04949 0.0
H484 H 0.29846 0.75438 0.11729 0.0
H485 H 0.31686 0.90057 0.01214 0.0
H486 H 0.36088 0.93995 0.94029 0.0
H487 H 0.39673 0.84574 0.79541 0.0
H488 H 0.35259 0.80591 0.8653 0.0
H489 H 0.13114 0.86741 0.02683 0.0
H490 H 0.19752 0.86926 0.03096 0.0
H491 H 0.20121 0.7576 0.92954 0.0
H492 H 0.13498 0.75553 0.92522 0.0
H493 H 0.25983 0.85395 0.93235 0.0
H494 H 0.24934 0.7073 0.0764 0.0
H495 H 0.20442 0.67115 0.15316 0.0
H496 H 0.15148 0.7716 0.23345 0.0
H497 H 0.19674 0.8083 0.16042 0.0
C498 C 0.39849 0.74297 0.97996 0.0
C499 C 0.42574 0.76961 0.9931 0.0
C500 C 0.36301 0.75059 0.00432 0.0
C501 C 0.35446 0.78519 0.04069 0.0
C502 C 0.38255 0.80976 0.06379 0.0
C503 C 0.41824 0.80196 0.03989 0.0
C504 C 0.31632 0.79753 0.0384 0.0
C505 C 0.29 0.77638 0.07779 0.0
C506 C 0.30535 0.82682 0.98789 0.0
C507 C 0.33176 0.85029 0.94457 0.0
C508 C 0.3341 0.88833 0.96473 0.0
C509 C 0.35902 0.9107 0.92427 0.0
C510 C 0.38155 0.89532 0.86319 0.0
C511 C 0.37922 0.85756 0.8425 0.0
C512 C 0.35428 0.83508 0.88254 0.0
C513 C 0.14615 0.84389 0.00188 0.0
C514 C 0.1281 0.81094 0.97787 0.0
C515 C 0.18403 0.84496 0.00465 0.0
C516 C 0.20393 0.81308 0.98347 0.0
C517 C 0.18606 0.78214 0.94802 0.0
C518 C 0.14826 0.78109 0.94499 0.0
C519 C 0.24217 0.80988 0.00921 0.0
C520 C 0.26829 0.83273 0.97414 0.0
C521 C 0.25297 0.78265 0.06521 0.0
C522 C 0.22612 0.76058 0.11145 0.0
C523 C 0.22824 0.72169 0.11091 0.0
C524 C 0.20275 0.70107 0.1541 0.0
C525 C 0.17497 0.71902 0.19801 0.0
C526 C 0.17287 0.75763 0.19947 0.0
C527 C 0.19848 0.77837 0.15721 0.0
H528 H 0.15513 0.70301 0.23098 0.0
H529 H 0.4008 0.91267 0.83185 0.0
H530 H 0.13675 0.16235 0.91047 0.0
H531 H 0.20276 0.16474 0.89514 0.0
H532 H 0.20776 0.25507 0.07474 0.0
H533 H 0.14179 0.25314 0.08965 0.0
H534 H 0.23323 0.27239 0.91586 0.0
H535 H 0.2431 0.17158 0.11065 0.0
H536 H 0.23251 0.10764 0.15515 0.0
H537 H 0.28554 0.06477 0.93741 0.0
H538 H 0.29577 0.12832 0.89078 0.0
H539 H 0.39624 0.31295 0.09074 0.0
H540 H 0.33659 0.29613 0.03765 0.0
H541 H 0.38531 0.21699 0.86686 0.0
H542 H 0.44585 0.23366 0.922 0.0
H543 H 0.33416 0.18574 0.969 0.0
H544 H 0.33658 0.2836 0.78733 0.0
H545 H 0.35202 0.34637 0.74324 0.0
H546 H 0.2779 0.39317 0.92144 0.0
H547 H 0.26259 0.33077 0.96812 0.0
C548 C 0.1521 0.18167 0.94931 0.0
C549 C 0.13421 0.20803 0.00021 0.0
C550 C 0.18977 0.18312 0.94001 0.0
C551 C 0.20986 0.21063 0.98237 0.0
C552 C 0.19248 0.23399 0.04065 0.0
C553 C 0.15486 0.23257 0.04991 0.0
C554 C 0.24777 0.21855 0.95908 0.0
C555 C 0.25538 0.25349 0.92737 0.0
C556 C 0.27619 0.1928 0.96842 0.0
C557 C 0.26971 0.1547 0.99669 0.0
C558 C 0.2521 0.14851 0.07184 0.0
C559 C 0.24626 0.11236 0.09755 0.0
C560 C 0.25826 0.08221 0.04908 0.0
C561 C 0.27614 0.08813 0.97479 0.0
C562 C 0.28194 0.1242 0.94867 0.0
C563 C 0.39429 0.29297 0.03972 0.0
C564 C 0.42523 0.27468 0.00979 0.0
C565 C 0.36025 0.28336 0.00931 0.0
C566 C 0.35656 0.25524 0.94839 0.0
C567 C 0.38774 0.23861 0.91415 0.0
C568 C 0.42215 0.24844 0.94467 0.0
C569 C 0.31982 0.24049 0.93117 0.0
C570 C 0.31205 0.2042 0.9544 0.0
C571 C 0.29114 0.26467 0.91227 0.0
C572 C 0.29849 0.30234 0.88143 0.0
C573 C 0.32363 0.30726 0.81738 0.0
C574 C 0.33251 0.34281 0.7922 0.0
C575 C 0.31616 0.37375 0.82995 0.0
C576 C 0.29064 0.36917 0.89248 0.0
C577 C 0.28177 0.33367 0.91819 0.0
H578 H 0.32303 0.40126 0.81029 0.0
H579 H 0.25376 0.05427 0.06919 0.0
H580 H 0.62519 0.25536 0.87051 0.0
H581 H 0.69115 0.24991 0.86566 0.0
H582 H 0.70151 0.35449 0.99951 0.0
H583 H 0.63587 0.36035 0.00282 0.0
H584 H 0.7584 0.34434 0.911 0.0
H585 H 0.68835 0.26525 0.09372 0.0
H586 H 0.64309 0.21589 0.11812 0.0
H587 H 0.70568 0.13888 0.97145 0.0
H588 H 0.75055 0.18774 0.94364 0.0
H589 H 0.93163 0.31301 0.05443 0.0
H590 H 0.86632 0.32077 0.07858 0.0
H591 H 0.84612 0.21651 0.94907 0.0
H592 H 0.91105 0.2077 0.93147 0.0
H593 H 0.79351 0.22842 0.0465 0.0
H594 H 0.86019 0.30576 0.85431 0.0
H595 H 0.90516 0.3539 0.82063 0.0
H596 H 0.84924 0.43289 0.97654 0.0
H597 H 0.80465 0.38503 0.01348 0.0
C598 C 0.64163 0.278 0.89533 0.0
C599 C 0.62557 0.30782 0.93888 0.0
C600 C 0.67937 0.27466 0.89357 0.0
C601 C 0.70116 0.30084 0.93646 0.0
C602 C 0.6852 0.33339 0.96835 0.0
C603 C 0.64759 0.33693 0.96934 0.0
C604 C 0.73934 0.29266 0.95778 0.0
C605 C 0.76603 0.31912 0.94121 0.0
C606 C 0.74934 0.25965 0.99711 0.0
C607 C 0.7227 0.23022 0.01624 0.0
C608 C 0.69238 0.23781 0.06656 0.0
C609 C 0.6668 0.20999 0.08089 0.0
C610 C 0.67161 0.1744 0.04671 0.0
C611 C 0.70198 0.16647 0.99793 0.0
C612 C 0.72744 0.19421 0.98266 0.0
C613 C 0.91323 0.29074 0.03637 0.0
C614 C 0.92601 0.2596 0.9918 0.0
C615 C 0.87593 0.29547 0.0486 0.0
C616 C 0.85127 0.27001 0.01234 0.0
C617 C 0.86449 0.23676 0.97694 0.0
C618 C 0.90169 0.23152 0.96735 0.0
C619 C 0.81271 0.27989 0.99882 0.0
C620 C 0.78585 0.2538 0.01699 0.0
C621 C 0.80259 0.31308 0.96031 0.0
C622 C 0.82931 0.34175 0.93724 0.0
C623 C 0.85762 0.33334 0.88176 0.0
C624 C 0.88306 0.36053 0.86222 0.0
C625 C 0.87997 0.39638 0.89615 0.0
C626 C 0.8516 0.4051 0.95029 0.0
C627 C 0.82632 0.37794 0.97082 0.0
H628 H 0.8995 0.41742 0.88027 0.0
H629 H 0.65178 0.15296 0.05799 0.0
H630 H 0.93052 0.83681 0.00527 0.0
H631 H 0.86552 0.84383 0.97705 0.0
H632 H 0.85219 0.72509 0.97983 0.0
H633 H 0.91678 0.71818 0.00787 0.0
H634 H 0.80176 0.75797 0.88107 0.0
H635 H 0.85158 0.7746 0.16437 0.0
H636 H 0.89115 0.80696 0.26583 0.0
H637 H 0.84286 0.91092 0.20778 0.0
H638 H 0.80289 0.87913 0.10563 0.0
H639 H 0.63653 0.71179 0.039 0.0
H640 H 0.70264 0.71784 0.04186 0.0
H641 H 0.6924 0.83625 0.07773 0.0
H642 H 0.62647 0.83008 0.07853 0.0
H643 H 0.7535 0.8144 0.14109 0.0
H644 H 0.69052 0.79377 0.88942 0.0
H645 H 0.65018 0.76165 0.7903 0.0
H646 H 0.72411 0.67031 0.77129 0.0
H647 H 0.7638 0.70052 0.87563 0.0
C648 C 0.91401 0.81223 0.99473 0.0
C649 C 0.92813 0.777 0.00919 0.0
C650 C 0.87689 0.81627 0.97979 0.0
C651 C 0.85409 0.78502 0.97909 0.0
C652 C 0.86934 0.74954 0.98103 0.0
C653 C 0.90624 0.74556 0.9965 0.0
C654 C 0.81468 0.78869 0.99256 0.0
C655 C 0.791 0.7705 0.9374 0.0
C656 C 0.80082 0.80563 0.06564 0.0
C657 C 0.82456 0.82461 0.12717 0.0
C658 C 0.84949 0.80436 0.17319 0.0
C659 C 0.87192 0.82258 0.23089 0.0
C660 C 0.86959 0.86094 0.24331 0.0
C661 C 0.84466 0.8812 0.19814 0.0
C662 C 0.82205 0.86312 0.14044 0.0
C663 C 0.64845 0.73885 0.05153 0.0
C664 C 0.62665 0.77063 0.05602 0.0
C665 C 0.68616 0.74235 0.05215 0.0
C666 C 0.70219 0.77768 0.05558 0.0
C667 C 0.68049 0.8088 0.07299 0.0
C668 C 0.64279 0.80522 0.07387 0.0
C669 C 0.74042 0.78265 0.03049 0.0
C670 C 0.76383 0.80257 0.08354 0.0
C671 C 0.75386 0.76768 0.95454 0.0
C672 C 0.72997 0.7493 0.8916 0.0
C673 C 0.69801 0.76659 0.86525 0.0
C674 C 0.67521 0.74869 0.80793 0.0
C675 C 0.68464 0.71412 0.77375 0.0
C676 C 0.71679 0.69711 0.79777 0.0
C677 C 0.73931 0.71446 0.8567 0.0
H678 H 0.667 0.70052 0.72881 0.0
H679 H 0.88713 0.87494 0.28787 0.0
loop_
_geom_bond_atom_site_label_1
_geom_bond_atom_site_label_2
_geom_bond_distance
_geom_bond_site_symmetry_2
_ccdc_geom_bond_type
Dy0 O4 2.398 . S
Dy0 O5 2.491 . S
Dy0 O6 2.403 . S
Dy0 O7 2.664 1_455 S
Dy0 O11 2.326 . S
Dy0 O15 2.310 . S
Dy0 O16 2.351 1_455 S
C1 O12 1.185 . S
C1 O13 1.355 . S
C2 O4 1.185 . S
C2 O5 1.355 . S
Dy3 O7 2.310 . S
Dy3 O10 2.351 1_655 S
Dy3 O12 2.398 . S
Dy3 O13 2.491 . S
Dy3 O14 2.403 . S
Dy3 O15 2.664 1_655 S
Dy3 O17 2.326 . S
O4 Dy0 2.398 . S
O4 C2 1.185 . S
O5 Dy0 2.491 . S
O5 C2 1.355 . S
O6 Dy0 2.403 . S
O6 C8 1.254 . S
O7 Dy0 2.664 1_655 S
O7 Dy3 2.310 . S
O7 C8 1.268 1_655 S
C8 O6 1.254 . S
C8 O7 1.268 1_455 S
C9 O14 1.235 1_455 S
C9 O15 1.278 . S
O10 Dy3 2.351 1_455 S
O10 C18 1.249 . S
O11 Dy0 2.326 . S
O11 C18 1.267 . S
O12 C1 1.185 . S
O12 Dy3 2.398 . S
O13 C1 1.355 . S
O13 Dy3 2.491 . S
O14 Dy3 2.403 . S
O14 C9 1.235 1_655 S
O15 Dy0 2.310 . S
O15 Dy3 2.664 1_455 S
O15 C9 1.278 . S
O16 Dy0 2.351 1_655 S
O16 C19 1.249 . S
O17 Dy3 2.326 . S
O17 C19 1.267 . S
C18 O10 1.249 . S
C18 O11 1.267 . S
C19 O16 1.249 . S
C19 O17 1.267 . S
Dy20 O24 2.398 . S
Dy20 O25 2.491 . S
Dy20 O26 2.403 . S
Dy20 O27 2.664 . S
Dy20 O31 2.326 . S
Dy20 O35 2.310 . S
Dy20 O36 2.351 . S
C21 O32 1.185 . S
C21 O33 1.355 . S
C22 O24 1.185 . S
C22 O25 1.355 . S
Dy23 O27 2.310 . S
Dy23 O30 2.351 . S
Dy23 O32 2.398 . S
Dy23 O33 2.491 . S
Dy23 O34 2.403 . S
Dy23 O35 2.664 . S
Dy23 O37 2.326 . S
O24 Dy20 2.398 . S
O24 C22 1.185 . S
O25 Dy20 2.491 . S
O25 C22 1.355 . S
O26 Dy20 2.403 . S
O26 C28 1.254 . S
O27 Dy20 2.664 . S
O27 Dy23 2.310 . S
O27 C28 1.268 . S
C28 O26 1.254 . S
C28 O27 1.268 . S
C29 O34 1.254 . S
C29 O35 1.268 . S
O30 Dy23 2.351 . S
O30 C38 1.249 . S
O31 Dy20 2.326 . S
O31 C38 1.267 . S
O32 C21 1.185 . S
O32 Dy23 2.398 . S
O33 C21 1.355 . S
O33 Dy23 2.491 . S
O34 Dy23 2.403 . S
O34 C29 1.254 . S
O35 Dy20 2.310 . S
O35 Dy23 2.664 . S
O35 C29 1.268 . S
O36 Dy20 2.351 . S
O36 C39 1.249 . S
O37 Dy23 2.326 . S
O37 C39 1.267 . S
C38 O30 1.249 . S
C38 O31 1.267 . S
C39 O36 1.249 . S
C39 O37 1.267 . S
Dy40 O44 2.398 . S
Dy40 O45 2.491 . S
Dy40 O46 2.403 . S
Dy40 O47 2.664 1_455 S
Dy40 O51 2.326 . S
Dy40 O55 2.310 . S
Dy40 O56 2.351 1_455 S
C41 O52 1.185 . S
C41 O53 1.355 . S
C42 O44 1.185 . S
C42 O45 1.355 . S
Dy43 O47 2.310 . S
Dy43 O50 2.351 1_655 S
Dy43 O52 2.398 . S
Dy43 O53 2.491 . S
Dy43 O54 2.403 . S
Dy43 O55 2.664 1_655 S
Dy43 O57 2.326 . S
O44 Dy40 2.398 . S
O44 C42 1.185 . S
O45 Dy40 2.491 . S
O45 C42 1.355 . S
O46 Dy40 2.403 . S
O46 C48 1.254 . S
O47 Dy40 2.664 1_655 S
O47 Dy43 2.310 . S
O47 C48 1.268 1_655 S
C48 O46 1.254 . S
C48 O47 1.268 1_455 S
C49 O54 1.235 1_455 S
C49 O55 1.278 . S
O50 Dy43 2.351 1_455 S
O50 C58 1.249 . S
O51 Dy40 2.326 . S
O51 C58 1.267 . S
O52 C41 1.185 . S
O52 Dy43 2.398 . S
O53 C41 1.355 . S
O53 Dy43 2.491 . S
O54 Dy43 2.403 . S
O54 C49 1.235 1_655 S
O55 Dy40 2.310 . S
O55 Dy43 2.664 1_455 S
O55 C49 1.278 . S
O56 Dy40 2.351 1_655 S
O56 C59 1.249 . S
O57 Dy43 2.326 . S
O57 C59 1.267 . S
C58 O50 1.249 . S
C58 O51 1.267 . S
C59 O56 1.249 . S
C59 O57 1.267 . S
Dy60 O64 2.398 . S
Dy60 O65 2.491 . S
Dy60 O66 2.403 . S
Dy60 O67 2.664 . S
Dy60 O71 2.326 . S
Dy60 O75 2.310 . S
Dy60 O76 2.351 . S
C61 O72 1.185 . S
C61 O73 1.355 . S
C62 O64 1.185 . S
C62 O65 1.355 . S
Dy63 O67 2.310 . S
Dy63 O70 2.351 . S
Dy63 O72 2.398 . S
Dy63 O73 2.491 . S
Dy63 O74 2.403 . S
Dy63 O75 2.664 . S
Dy63 O77 2.326 . S
O64 Dy60 2.398 . S
O64 C62 1.185 . S
O65 Dy60 2.491 . S
O65 C62 1.355 . S
O66 Dy60 2.403 . S
O66 C68 1.254 . S
O67 Dy60 2.664 . S
O67 Dy63 2.310 . S
O67 C68 1.268 . S
C68 O66 1.254 . S
C68 O67 1.268 . S
C69 O74 1.254 . S
C69 O75 1.268 . S
O70 Dy63 2.351 . S
O70 C78 1.249 . S
O71 Dy60 2.326 . S
O71 C78 1.267 . S
O72 C61 1.185 . S
O72 Dy63 2.398 . S
O73 C61 1.355 . S
O73 Dy63 2.491 . S
O74 Dy63 2.403 . S
O74 C69 1.254 . S
O75 Dy60 2.310 . S
O75 Dy63 2.664 . S
O75 C69 1.268 . S
O76 Dy60 2.351 . S
O76 C79 1.249 . S
O77 Dy63 2.326 . S
O77 C79 1.267 . S
C78 O70 1.249 . S
C78 O71 1.267 . S
C79 O76 1.249 . S
C79 O77 1.267 . S
H80 C98 0.951 . S
H81 C100 0.951 . S
H82 C102 0.950 1_554 S
H83 C103 0.950 . S
H84 C105 0.950 . S
H85 C108 0.950 . S
H86 C109 0.950 1_554 S
H87 C111 0.950 . S
H88 C112 0.950 . S
H89 C113 0.951 . S
H90 C115 0.951 . S
H91 C117 0.950 1_556 S
H92 C118 0.950 . S
H93 C120 0.950 . S
H94 C123 0.950 . S
H95 C124 0.950 1_556 S
H96 C126 0.950 . S
H97 C127 0.950 . S
C98 H80 0.951 . S
C98 C99 1.366 1_455 S
C98 C100 1.388 . S
C99 C98 1.366 1_655 S
C99 C103 1.385 . S
C100 H81 0.951 . S
C100 C98 1.388 . S
C100 C101 1.358 1_455 S
C101 C100 1.358 1_655 S
C101 C102 1.422 . S
C101 C104 1.499 . S
C102 H82 0.950 1_556 S
C102 C101 1.422 . S
C102 C103 1.374 . S
C103 H83 0.950 . S
C103 C99 1.385 . S
C103 C102 1.374 . S
C104 C101 1.499 . S
C104 C105 1.373 . S
C104 C106 1.389 1_655 S
C105 H84 0.950 . S
C105 C104 1.373 . S
C105 C121 1.377 1_556 S
C106 C104 1.389 1_455 S
C106 C107 1.524 . S
C106 C120 1.377 1_556 S
C107 C106 1.524 . S
C107 C108 1.397 1_556 S
C107 C112 1.363 . S
C108 H85 0.950 . S
C108 C107 1.397 1_554 S
C108 C109 1.334 1_554 S
C109 H86 0.950 1_556 S
C109 C108 1.334 1_556 S
C109 C110 1.287 . S
C110 C109 1.287 . S
C110 C111 1.524 . S
C110 H129 0.913 . S
C111 H87 0.950 . S
C111 C110 1.524 . S
C111 C112 1.415 . S
C112 H88 0.950 . S
C112 C107 1.363 . S
C112 C111 1.415 . S
C113 H89 0.951 . S
C113 C114 1.366 . S
C113 C115 1.388 . S
C114 C113 1.366 . S
C114 C118 1.385 1_655 S
C115 H90 0.951 . S
C115 C113 1.388 . S
C115 C116 1.366 . S
C116 C115 1.366 . S
C116 C117 1.414 1_655 S
C116 C119 1.499 . S
C117 H91 0.950 1_554 S
C117 C116 1.414 1_455 S
C117 C118 1.374 . S
C118 H92 0.950 . S
C118 C114 1.385 1_455 S
C118 C117 1.374 . S
C119 C116 1.499 . S
C119 C120 1.373 1_655 S
C119 C121 1.389 . S
C120 H93 0.950 . S
C120 C106 1.377 1_554 S
C120 C119 1.373 1_455 S
C121 C105 1.377 1_554 S
C121 C119 1.389 . S
C121 C122 1.524 . S
C122 C121 1.524 . S
C122 C123 1.397 1_554 S
C122 C127 1.363 . S
C123 H94 0.950 . S
C123 C122 1.397 1_556 S
C123 C124 1.334 1_556 S
C124 H95 0.950 1_554 S
C124 C123 1.334 1_554 S
C124 C125 1.287 . S
C125 C124 1.287 . S
C125 C126 1.524 . S
C125 H128 0.999 . S
C126 H96 0.950 . S
C126 C125 1.524 . S
C126 C127 1.415 . S
C127 H97 0.950 . S
C127 C122 1.363 . S
C127 C126 1.415 . S
H128 C125 0.999 . S
H129 C110 0.913 . S
H130 C148 0.951 . S
H131 C150 0.951 1_556 S
H132 C152 0.950 . S
H133 C153 0.950 . S
H134 C155 0.950 . S
H135 C158 0.950 . S
H136 C159 0.950 . S
H137 C161 0.950 . S
H138 C162 0.950 . S
H139 C163 0.951 . S
H140 C165 0.951 1_554 S
H141 C167 0.950 . S
H142 C168 0.950 . S
H143 C170 0.950 . S
H144 C173 0.950 . S
H145 C174 0.950 . S
H146 C176 0.950 . S
H147 C177 0.950 . S
C148 H130 0.951 . S
C148 C149 1.366 . S
C148 C150 1.388 . S
C149 C148 1.366 . S
C149 C153 1.385 . S
C150 H131 0.951 1_554 S
C150 C148 1.388 . S
C150 C151 1.366 . S
C151 C150 1.366 . S
C151 C152 1.414 . S
C151 C154 1.499 . S
C152 H132 0.950 . S
C152 C151 1.414 . S
C152 C153 1.374 . S
C153 H133 0.950 . S
C153 C149 1.385 . S
C153 C152 1.374 . S
C154 C151 1.499 . S
C154 C155 1.373 . S
C154 C156 1.389 1_554 S
C155 H134 0.950 . S
C155 C154 1.373 . S
C155 C171 1.377 . S
C156 C154 1.389 1_556 S
C156 C157 1.524 . S
C156 C170 1.377 . S
C157 C156 1.524 . S
C157 C158 1.397 1_556 S
C157 C162 1.363 . S
C158 H135 0.950 . S
C158 C157 1.397 1_554 S
C158 C159 1.334 . S
C159 H136 0.950 . S
C159 C158 1.334 . S
C159 C160 1.287 1_554 S
C160 C159 1.287 1_556 S
C160 C161 1.524 . S
C160 H179 0.913 . S
C161 H137 0.950 . S
C161 C160 1.524 . S
C161 C162 1.415 . S
C162 H138 0.950 . S
C162 C157 1.363 . S
C162 C161 1.415 . S
C163 H139 0.951 . S
C163 C164 1.366 . S
C163 C165 1.388 . S
C164 C163 1.366 . S
C164 C168 1.385 . S
C165 H140 0.951 1_556 S
C165 C163 1.388 . S
C165 C166 1.366 . S
C166 C165 1.366 . S
C166 C167 1.414 . S
C166 C169 1.499 . S
C167 H141 0.950 . S
C167 C166 1.414 . S
C167 C168 1.374 . S
C168 H142 0.950 . S
C168 C164 1.385 . S
C168 C167 1.374 . S
C169 C166 1.499 . S
C169 C170 1.373 . S
C169 C171 1.389 1_556 S
C170 H143 0.950 . S
C170 C156 1.377 . S
C170 C169 1.373 . S
C171 C155 1.377 . S
C171 C169 1.389 1_554 S
C171 C172 1.524 . S
C172 C171 1.524 . S
C172 C173 1.397 1_554 S
C172 C177 1.363 . S
C173 H144 0.950 . S
C173 C172 1.397 1_556 S
C173 C174 1.334 . S
C174 H145 0.950 . S
C174 C173 1.334 . S
C174 C175 1.287 1_556 S
C175 C174 1.287 1_554 S
C175 C176 1.524 . S
C175 H178 0.999 . S
C176 H146 0.950 . S
C176 C175 1.524 . S
C176 C177 1.415 . S
C177 H147 0.950 . S
C177 C172 1.363 . S
C177 C176 1.415 . S
H178 C175 0.999 . S
H179 C160 0.913 . S
H180 C198 0.951 . S
H181 C200 0.951 . S
H182 C202 0.950 1_554 S
H183 C203 0.950 . S
H184 C205 0.950 . S
H185 C208 0.950 . S
H186 C209 0.950 . S
H187 C211 0.950 1_545 S
H188 C212 0.950 . S
H189 C213 0.951 . S
H190 C215 0.951 . S
H191 C217 0.950 1_556 S
H192 C218 0.950 . S
H193 C220 0.950 . S
H194 C223 0.950 . S
H195 C224 0.950 . S
H196 C226 0.950 1_565 S
H197 C227 0.950 . S
C198 H180 0.951 . S
C198 C199 1.366 . S
C198 C200 1.388 . S
C199 C198 1.366 . S
C199 C203 1.385 . S
C200 H181 0.951 . S
C200 C198 1.388 . S
C200 C201 1.366 . S
C201 C200 1.366 . S
C201 C202 1.414 . S
C201 C204 1.499 . S
C202 H182 0.950 1_556 S
C202 C201 1.414 . S
C202 C203 1.374 . S
C203 H183 0.950 . S
C203 C199 1.385 . S
C203 C202 1.374 . S
C204 C201 1.499 . S
C204 C205 1.373 1_556 S
C204 C206 1.389 . S
C205 H184 0.950 . S
C205 C204 1.373 1_554 S
C205 C221 1.377 1_565 S
C206 C204 1.389 . S
C206 C207 1.524 . S
C206 C220 1.377 1_565 S
C207 C206 1.524 . S
C207 C208 1.397 . S
C207 C212 1.363 1_565 S
C208 H185 0.950 . S
C208 C207 1.397 . S
C208 C209 1.334 . S
C209 H186 0.950 . S
C209 C208 1.334 . S
C209 C210 1.287 . S
C210 C209 1.287 . S
C210 C211 1.524 . S
C210 H229 0.913 . S
C211 H187 0.950 1_565 S
C211 C210 1.524 . S
C211 C212 1.415 1_565 S
C212 H188 0.950 . S
C212 C207 1.363 1_545 S
C212 C211 1.415 1_545 S
C213 H189 0.951 . S
C213 C214 1.366 . S
C213 C215 1.388 . S
C214 C213 1.366 . S
C214 C218 1.385 . S
C215 H190 0.951 . S
C215 C213 1.388 . S
C215 C216 1.366 . S
C216 C215 1.366 . S
C216 C217 1.414 . S
C216 C219 1.499 . S
C217 H191 0.950 1_554 S
C217 C216 1.414 . S
C217 C218 1.374 . S
C218 H192 0.950 . S
C218 C214 1.385 . S
C218 C217 1.374 . S
C219 C216 1.499 . S
C219 C220 1.373 1_554 S
C219 C221 1.389 . S
C220 H193 0.950 . S
C220 C206 1.377 1_545 S
C220 C219 1.373 1_556 S
C221 C205 1.377 1_545 S
C221 C219 1.389 . S
C221 C222 1.524 . S
C222 C221 1.524 . S
C222 C223 1.397 . S
C222 C227 1.363 1_545 S
C223 H194 0.950 . S
C223 C222 1.397 . S
C223 C224 1.334 . S
C224 H195 0.950 . S
C224 C223 1.334 . S
C224 C225 1.287 . S
C225 C224 1.287 . S
C225 C226 1.524 . S
C225 H228 0.999 . S
C226 H196 0.950 1_545 S
C226 C225 1.524 . S
C226 C227 1.415 1_545 S
C227 H197 0.950 . S
C227 C222 1.363 1_565 S
C227 C226 1.415 1_565 S
H228 C225 0.999 . S
H229 C210 0.913 . S
H230 C248 0.951 . S
H231 C250 0.951 . S
H232 C252 0.950 . S
H233 C253 0.950 . S
H234 C255 0.950 . S
H235 C258 0.950 . S
H236 C259 0.950 . S
H237 C261 0.950 . S
H238 C262 0.950 . S
H239 C263 0.951 . S
H240 C265 0.951 . S
H241 C267 0.950 . S
H242 C268 0.950 . S
H243 C270 0.950 . S
H244 C273 0.950 1_455 S
H245 C274 0.950 . S
H246 C276 0.950 . S
H247 C277 0.950 . S
C248 H230 0.951 . S
C248 C249 1.366 . S
C248 C250 1.388 . S
C249 C248 1.366 . S
C249 C253 1.385 1_455 S
C250 H231 0.951 . S
C250 C248 1.388 . S
C250 C251 1.366 . S
C251 C250 1.366 . S
C251 C252 1.414 1_455 S
C251 C254 1.499 . S
C252 H232 0.950 . S
C252 C251 1.414 1_655 S
C252 C253 1.374 . S
C253 H233 0.950 . S
C253 C249 1.385 1_655 S
C253 C252 1.374 . S
C254 C251 1.499 . S
C254 C255 1.373 1_454 S
C254 C256 1.389 . S
C255 H234 0.950 . S
C255 C254 1.373 1_656 S
C255 C271 1.377 1_565 S
C256 C254 1.389 . S
C256 C257 1.524 . S
C256 C270 1.377 1_565 S
C257 C256 1.524 . S
C257 C258 1.397 . S
C257 C262 1.363 1_565 S
C258 H235 0.950 . S
C258 C257 1.397 . S
C258 C259 1.334 . S
C259 H236 0.950 . S
C259 C258 1.334 . S
C259 C260 1.287 . S
C260 C259 1.287 . S
C260 C261 1.523 1_565 S
C260 H279 0.913 . S
C261 H237 0.950 . S
C261 C260 1.523 1_545 S
C261 C262 1.415 . S
C262 H238 0.950 . S
C262 C257 1.363 1_545 S
C262 C261 1.415 . S
C263 H239 0.951 . S
C263 C264 1.366 1_655 S
C263 C265 1.388 . S
C264 C263 1.366 1_455 S
C264 C268 1.385 . S
C265 H240 0.951 . S
C265 C263 1.388 . S
C265 C266 1.366 1_655 S
C266 C265 1.366 1_455 S
C266 C267 1.414 . S
C266 C269 1.499 . S
C267 H241 0.950 . S
C267 C266 1.414 . S
C267 C268 1.374 . S
C268 H242 0.950 . S
C268 C264 1.385 . S
C268 C267 1.374 . S
C269 C266 1.499 . S
C269 C270 1.373 1_556 S
C269 C271 1.389 1_455 S
C270 H243 0.950 . S
C270 C256 1.377 1_545 S
C270 C269 1.373 1_554 S
C271 C255 1.377 1_545 S
C271 C269 1.389 1_655 S
C271 C272 1.524 . S
C272 C271 1.524 . S
C272 C273 1.397 . S
C272 C277 1.363 1_545 S
C273 H244 0.950 1_655 S
C273 C272 1.397 . S
C273 C274 1.334 . S
C274 H245 0.950 . S
C274 C273 1.334 . S
C274 C275 1.287 . S
C275 C274 1.287 . S
C275 C276 1.523 1_545 S
C275 H278 0.999 . S
C276 H246 0.950 . S
C276 C275 1.523 1_565 S
C276 C277 1.415 . S
C277 H247 0.950 . S
C277 C272 1.363 1_565 S
C277 C276 1.415 . S
H278 C275 0.999 . S
H279 C260 0.913 . S
H280 C298 0.951 . S
H281 C300 0.951 . S
H282 C302 0.950 . S
H283 C303 0.950 . S
H284 C305 0.950 . S
H285 C308 0.950 . S
H286 C309 0.950 . S
H287 C311 0.950 . S
H288 C312 0.950 . S
H289 C313 0.951 . S
H290 C315 0.951 . S
H291 C317 0.950 . S
H292 C318 0.950 . S
H293 C320 0.950 . S
H294 C323 0.950 . S
H295 C324 0.950 . S
H296 C326 0.950 . S
H297 C327 0.950 . S
C298 H280 0.951 . S
C298 C299 1.366 . S
C298 C300 1.388 . S
C299 C298 1.366 . S
C299 C303 1.385 . S
C300 H281 0.951 . S
C300 C298 1.388 . S
C300 C301 1.366 . S
C301 C300 1.366 . S
C301 C302 1.414 . S
C301 C304 1.499 . S
C302 H282 0.950 . S
C302 C301 1.414 . S
C302 C303 1.374 . S
C303 H283 0.950 . S
C303 C299 1.385 . S
C303 C302 1.374 . S
C304 C301 1.499 . S
C304 C305 1.373 . S
C304 C306 1.389 . S
C305 H284 0.950 . S
C305 C304 1.373 . S
C305 C321 1.377 . S
C306 C304 1.389 . S
C306 C307 1.524 . S
C306 C320 1.377 . S
C307 C306 1.524 . S
C307 C308 1.397 . S
C307 C312 1.363 . S
C308 H285 0.950 . S
C308 C307 1.397 . S
C308 C309 1.334 . S
C309 H286 0.950 . S
C309 C308 1.334 . S
C309 C310 1.287 . S
C310 C309 1.287 . S
C310 C311 1.524 . S
C310 H329 0.913 . S
C311 H287 0.950 . S
C311 C310 1.524 . S
C311 C312 1.415 . S
C312 H288 0.950 . S
C312 C307 1.363 . S
C312 C311 1.415 . S
C313 H289 0.951 . S
C313 C314 1.366 . S
C313 C315 1.388 . S
C314 C313 1.366 . S
C314 C318 1.385 . S
C315 H290 0.951 . S
C315 C313 1.388 . S
C315 C316 1.366 . S
C316 C315 1.366 . S
C316 C317 1.414 . S
C316 C319 1.499 . S
C317 H291 0.950 . S
C317 C316 1.414 . S
C317 C318 1.374 . S
C318 H292 0.950 . S
C318 C314 1.385 . S
C318 C317 1.374 . S
C319 C316 1.499 . S
C319 C320 1.373 . S
C319 C321 1.389 . S
C320 H293 0.950 . S
C320 C306 1.377 . S
C320 C319 1.373 . S
C321 C305 1.377 . S
C321 C319 1.389 . S
C321 C322 1.524 . S
C322 C321 1.524 . S
C322 C323 1.397 . S
C322 C327 1.363 . S
C323 H294 0.950 . S
C323 C322 1.397 . S
C323 C324 1.334 . S
C324 H295 0.950 . S
C324 C323 1.334 . S
C324 C325 1.287 . S
C325 C324 1.287 . S
C325 C326 1.524 . S
C325 H328 0.999 . S
C326 H296 0.950 . S
C326 C325 1.524 . S
C326 C327 1.415 . S
C327 H297 0.950 . S
C327 C322 1.363 . S
C327 C326 1.415 . S
H328 C325 0.999 . S
H329 C310 0.913 . S
H330 C348 0.951 . S
H331 C350 0.951 . S
H332 C352 0.950 . S
H333 C353 0.950 . S
H334 C355 0.950 . S
H335 C358 0.950 . S
H336 C359 0.950 . S
H337 C361 0.950 . S
H338 C362 0.950 . S
H339 C363 0.951 . S
H340 C365 0.951 . S
H341 C367 0.950 . S
H342 C368 0.950 . S
H343 C370 0.950 . S
H344 C373 0.950 . S
H345 C374 0.950 . S
H346 C376 0.950 . S
H347 C377 0.950 . S
C348 H330 0.951 . S
C348 C349 1.366 . S
C348 C350 1.388 . S
C349 C348 1.366 . S
C349 C353 1.385 . S
C350 H331 0.951 . S
C350 C348 1.388 . S
C350 C351 1.366 . S
C351 C350 1.366 . S
C351 C352 1.414 . S
C351 C354 1.499 . S
C352 H332 0.950 . S
C352 C351 1.414 . S
C352 C353 1.374 . S
C353 H333 0.950 . S
C353 C349 1.385 . S
C353 C352 1.374 . S
C354 C351 1.499 . S
C354 C355 1.373 . S
C354 C356 1.389 . S
C355 H334 0.950 . S
C355 C354 1.373 . S
C355 C371 1.377 . S
C356 C354 1.389 . S
C356 C357 1.524 . S
C356 C370 1.377 . S
C357 C356 1.524 . S
C357 C358 1.397 . S
C357 C362 1.363 . S
C358 H335 0.950 . S
C358 C357 1.397 . S
C358 C359 1.334 . S
C359 H336 0.950 . S
C359 C358 1.334 . S
C359 C360 1.287 . S
C360 C359 1.287 . S
C360 C361 1.524 . S
C360 H379 0.913 . S
C361 H337 0.950 . S
C361 C360 1.524 . S
C361 C362 1.415 . S
C362 H338 0.950 . S
C362 C357 1.363 . S
C362 C361 1.415 . S
C363 H339 0.951 . S
C363 C364 1.366 . S
C363 C365 1.388 . S
C364 C363 1.366 . S
C364 C368 1.385 . S
C365 H340 0.951 . S
C365 C363 1.388 . S
C365 C366 1.366 . S
C366 C365 1.366 . S
C366 C367 1.414 . S
C366 C369 1.499 . S
C367 H341 0.950 . S
C367 C366 1.414 . S
C367 C368 1.374 . S
C368 H342 0.950 . S
C368 C364 1.385 . S
C368 C367 1.374 . S
C369 C366 1.499 . S
C369 C370 1.373 . S
C369 C371 1.389 . S
C370 H343 0.950 . S
C370 C356 1.377 . S
C370 C369 1.373 . S
C371 C355 1.377 . S
C371 C369 1.389 . S
C371 C372 1.524 . S
C372 C371 1.524 . S
C372 C373 1.397 . S
C372 C377 1.363 . S
C373 H344 0.950 . S
C373 C372 1.397 . S
C373 C374 1.334 . S
C374 H345 0.950 . S
C374 C373 1.334 . S
C374 C375 1.287 . S
C375 C374 1.287 . S
C375 C376 1.524 . S
C375 H378 0.999 . S
C376 H346 0.950 . S
C376 C375 1.524 . S
C376 C377 1.415 . S
C377 H347 0.950 . S
C377 C372 1.363 . S
C377 C376 1.415 . S
H378 C375 0.999 . S
H379 C360 0.913 . S
H380 C398 0.951 . S
H381 C400 0.951 . S
H382 C402 0.950 . S
H383 C403 0.950 . S
H384 C405 0.950 . S
H385 C408 0.950 . S
H386 C409 0.950 . S
H387 C411 0.950 . S
H388 C412 0.950 . S
H389 C413 0.951 . S
H390 C415 0.951 . S
H391 C417 0.950 . S
H392 C418 0.950 . S
H393 C420 0.950 . S
H394 C423 0.950 . S
H395 C424 0.950 . S
H396 C426 0.950 . S
H397 C427 0.950 . S
C398 H380 0.951 . S
C398 C399 1.366 . S
C398 C400 1.388 . S
C399 C398 1.366 . S
C399 C403 1.385 . S
C400 H381 0.951 . S
C400 C398 1.388 . S
C400 C401 1.366 . S
C401 C400 1.366 . S
C401 C402 1.414 . S
C401 C404 1.499 . S
C402 H382 0.950 . S
C402 C401 1.414 . S
C402 C403 1.374 . S
C403 H383 0.950 . S
C403 C399 1.385 . S
C403 C402 1.374 . S
C404 C401 1.499 . S
C404 C405 1.373 . S
C404 C406 1.389 . S
C405 H384 0.950 . S
C405 C404 1.373 . S
C405 C421 1.377 . S
C406 C404 1.389 . S
C406 C407 1.524 . S
C406 C420 1.377 . S
C407 C406 1.524 . S
C407 C408 1.397 . S
C407 C412 1.363 . S
C408 H385 0.950 . S
C408 C407 1.397 . S
C408 C409 1.334 . S
C409 H386 0.950 . S
C409 C408 1.334 . S
C409 C410 1.287 . S
C410 C409 1.287 . S
C410 C411 1.524 . S
C410 H429 0.913 . S
C411 H387 0.950 . S
C411 C410 1.524 . S
C411 C412 1.415 . S
C412 H388 0.950 . S
C412 C407 1.363 . S
C412 C411 1.415 . S
C413 H389 0.951 . S
C413 C414 1.366 . S
C413 C415 1.388 . S
C414 C413 1.366 . S
C414 C418 1.385 . S
C415 H390 0.951 . S
C415 C413 1.388 . S
C415 C416 1.366 . S
C416 C415 1.366 . S
C416 C417 1.414 . S
C416 C419 1.499 . S
C417 H391 0.950 . S
C417 C416 1.414 . S
C417 C418 1.374 . S
C418 H392 0.950 . S
C418 C414 1.385 . S
C418 C417 1.374 . S
C419 C416 1.499 . S
C419 C420 1.373 . S
C419 C421 1.389 . S
C420 H393 0.950 . S
C420 C406 1.377 . S
C420 C419 1.373 . S
C421 C405 1.377 . S
C421 C419 1.389 . S
C421 C422 1.524 . S
C422 C421 1.524 . S
C422 C423 1.397 . S
C422 C427 1.363 . S
C423 H394 0.950 . S
C423 C422 1.397 . S
C423 C424 1.334 . S
C424 H395 0.950 . S
C424 C423 1.334 . S
C424 C425 1.287 . S
C425 C424 1.287 . S
C425 C426 1.524 . S
C425 H428 0.999 . S
C426 H396 0.950 . S
C426 C425 1.524 . S
C426 C427 1.415 . S
C427 H397 0.950 . S
C427 C422 1.363 . S
C427 C426 1.415 . S
H428 C425 0.999 . S
H429 C410 0.913 . S
H430 C448 0.951 . S
H431 C450 0.951 . S
H432 C452 0.950 . S
H433 C453 0.950 . S
H434 C455 0.950 . S
H435 C458 0.950 . S
H436 C459 0.950 . S
H437 C461 0.950 . S
H438 C462 0.950 . S
H439 C463 0.951 . S
H440 C465 0.951 . S
H441 C467 0.950 . S
H442 C468 0.950 . S
H443 C470 0.950 . S
H444 C473 0.950 . S
H445 C474 0.950 . S
H446 C476 0.950 . S
H447 C477 0.950 . S
C448 H430 0.951 . S
C448 C449 1.366 . S
C448 C450 1.388 . S
C449 C448 1.366 . S
C449 C453 1.385 . S
C450 H431 0.951 . S
C450 C448 1.388 . S
C450 C451 1.366 . S
C451 C450 1.366 . S
C451 C452 1.414 . S
C451 C454 1.499 . S
C452 H432 0.950 . S
C452 C451 1.414 . S
C452 C453 1.374 . S
C453 H433 0.950 . S
C453 C449 1.385 . S
C453 C452 1.374 . S
C454 C451 1.499 . S
C454 C455 1.373 . S
C454 C456 1.389 . S
C455 H434 0.950 . S
C455 C454 1.373 . S
C455 C471 1.377 . S
C456 C454 1.389 . S
C456 C457 1.524 . S
C456 C470 1.377 . S
C457 C456 1.524 . S
C457 C458 1.397 . S
C457 C462 1.363 . S
C458 H435 0.950 . S
C458 C457 1.397 . S
C458 C459 1.334 . S
C459 H436 0.950 . S
C459 C458 1.334 . S
C459 C460 1.287 . S
C460 C459 1.287 . S
C460 C461 1.524 . S
C460 H479 0.913 . S
C461 H437 0.950 . S
C461 C460 1.524 . S
C461 C462 1.415 . S
C462 H438 0.950 . S
C462 C457 1.363 . S
C462 C461 1.415 . S
C463 H439 0.951 . S
C463 C464 1.366 . S
C463 C465 1.388 . S
C464 C463 1.366 . S
C464 C468 1.385 . S
C465 H440 0.951 . S
C465 C463 1.388 . S
C465 C466 1.366 . S
C466 C465 1.366 . S
C466 C467 1.414 . S
C466 C469 1.499 . S
C467 H441 0.950 . S
C467 C466 1.414 . S
C467 C468 1.374 . S
C468 H442 0.950 . S
C468 C464 1.385 . S
C468 C467 1.374 . S
C469 C466 1.499 . S
C469 C470 1.373 . S
C469 C471 1.389 . S
C470 H443 0.950 . S
C470 C456 1.377 . S
C470 C469 1.373 . S
C471 C455 1.377 . S
C471 C469 1.389 . S
C471 C472 1.524 . S
C472 C471 1.524 . S
C472 C473 1.397 . S
C472 C477 1.363 . S
C473 H444 0.950 . S
C473 C472 1.397 . S
C473 C474 1.334 . S
C474 H445 0.950 . S
C474 C473 1.334 . S
C474 C475 1.287 . S
C475 C474 1.287 . S
C475 C476 1.524 . S
C475 H478 0.999 . S
C476 H446 0.950 . S
C476 C475 1.524 . S
C476 C477 1.415 . S
C477 H447 0.950 . S
C477 C472 1.363 . S
C477 C476 1.415 . S
H478 C475 0.999 . S
H479 C460 0.913 . S
H480 C498 0.951 . S
H481 C500 0.951 . S
H482 C502 0.950 . S
H483 C503 0.950 . S
H484 C505 0.950 . S
H485 C508 0.950 . S
H486 C509 0.950 . S
H487 C511 0.950 . S
H488 C512 0.950 . S
H489 C513 0.951 . S
H490 C515 0.951 . S
H491 C517 0.950 . S
H492 C518 0.950 . S
H493 C520 0.950 . S
H494 C523 0.950 1_556 S
H495 C524 0.950 . S
H496 C526 0.950 . S
H497 C527 0.950 . S
C498 H480 0.951 . S
C498 C499 1.366 . S
C498 C500 1.388 . S
C499 C498 1.366 . S
C499 C503 1.385 1_556 S
C500 H481 0.951 . S
C500 C498 1.388 . S
C500 C501 1.366 . S
C501 C500 1.366 . S
C501 C502 1.414 1_556 S
C501 C504 1.499 . S
C502 H482 0.950 . S
C502 C501 1.414 1_554 S
C502 C503 1.374 . S
C503 H483 0.950 . S
C503 C499 1.385 1_554 S
C503 C502 1.374 . S
C504 C501 1.499 . S
C504 C505 1.373 1_556 S
C504 C506 1.389 . S
C505 H484 0.950 . S
C505 C504 1.373 1_554 S
C505 C521 1.377 . S
C506 C504 1.389 . S
C506 C507 1.524 . S
C506 C520 1.377 . S
C507 C506 1.524 . S
C507 C508 1.397 . S
C507 C512 1.363 . S
C508 H485 0.950 . S
C508 C507 1.397 . S
C508 C509 1.334 . S
C509 H486 0.950 . S
C509 C508 1.334 . S
C509 C510 1.287 . S
C510 C509 1.287 . S
C510 C511 1.524 . S
C510 H529 0.913 . S
C511 H487 0.950 . S
C511 C510 1.524 . S
C511 C512 1.415 . S
C512 H488 0.950 . S
C512 C507 1.363 . S
C512 C511 1.415 . S
C513 H489 0.951 . S
C513 C514 1.366 . S
C513 C515 1.388 . S
C514 C513 1.366 . S
C514 C518 1.385 1_554 S
C515 H490 0.951 . S
C515 C513 1.388 . S
C515 C516 1.366 1_554 S
C516 C515 1.366 1_556 S
C516 C517 1.414 . S
C516 C519 1.499 . S
C517 H491 0.950 . S
C517 C516 1.414 . S
C517 C518 1.374 . S
C518 H492 0.950 . S
C518 C514 1.385 1_556 S
C518 C517 1.374 . S
C519 C516 1.499 . S
C519 C520 1.373 . S
C519 C521 1.389 1_556 S
C520 H493 0.950 . S
C520 C506 1.377 . S
C520 C519 1.373 . S
C521 C505 1.377 . S
C521 C519 1.389 1_554 S
C521 C522 1.524 . S
C522 C521 1.524 . S
C522 C523 1.397 . S
C522 C527 1.363 . S
C523 H494 0.950 1_554 S
C523 C522 1.397 . S
C523 C524 1.334 . S
C524 H495 0.950 . S
C524 C523 1.334 . S
C524 C525 1.287 . S
C525 C524 1.287 . S
C525 C526 1.524 . S
C525 H528 0.999 . S
C526 H496 0.950 . S
C526 C525 1.524 . S
C526 C527 1.415 . S
C527 H497 0.950 . S
C527 C522 1.363 . S
C527 C526 1.415 . S
H528 C525 0.999 . S
H529 C510 0.913 . S
H530 C548 0.951 . S
H531 C550 0.951 . S
H532 C552 0.950 . S
H533 C553 0.950 . S
H534 C555 0.950 . S
H535 C558 0.950 . S
H536 C559 0.950 . S
H537 C561 0.950 . S
H538 C562 0.950 . S
H539 C563 0.951 . S
H540 C565 0.951 . S
H541 C567 0.950 . S
H542 C568 0.950 1_556 S
H543 C570 0.950 . S
H544 C573 0.950 . S
H545 C574 0.950 . S
H546 C576 0.950 . S
H547 C577 0.950 . S
C548 H530 0.951 . S
C548 C549 1.366 . S
C548 C550 1.388 . S
C549 C548 1.366 . S
C549 C553 1.385 1_556 S
C550 H531 0.951 . S
C550 C548 1.388 . S
C550 C551 1.366 1_556 S
C551 C550 1.366 1_554 S
C551 C552 1.414 . S
C551 C554 1.499 . S
C552 H532 0.950 . S
C552 C551 1.414 . S
C552 C553 1.374 . S
C553 H533 0.950 . S
C553 C549 1.385 1_554 S
C553 C552 1.374 . S
C554 C551 1.499 . S
C554 C555 1.373 . S
C554 C556 1.389 . S
C555 H534 0.950 . S
C555 C554 1.373 . S
C555 C571 1.377 . S
C556 C554 1.389 . S
C556 C557 1.524 . S
C556 C570 1.377 . S
C557 C556 1.524 . S
C557 C558 1.397 . S
C557 C562 1.363 1_554 S
C558 H535 0.950 . S
C558 C557 1.397 . S
C558 C559 1.334 . S
C559 H536 0.950 . S
C559 C558 1.334 . S
C559 C560 1.287 . S
C560 C559 1.287 . S
C560 C561 1.524 1_554 S
C560 H579 0.913 . S
C561 H537 0.950 . S
C561 C560 1.524 1_556 S
C561 C562 1.415 . S
C562 H538 0.950 . S
C562 C557 1.363 1_556 S
C562 C561 1.415 . S
C563 H539 0.951 . S
C563 C564 1.366 . S
C563 C565 1.388 . S
C564 C563 1.366 . S
C564 C568 1.385 . S
C565 H540 0.951 . S
C565 C563 1.388 . S
C565 C566 1.366 . S
C566 C565 1.366 . S
C566 C567 1.414 1_554 S
C566 C569 1.499 . S
C567 H541 0.950 . S
C567 C566 1.414 1_556 S
C567 C568 1.374 1_556 S
C568 H542 0.950 1_554 S
C568 C564 1.385 . S
C568 C567 1.374 1_554 S
C569 C566 1.499 . S
C569 C570 1.373 . S
C569 C571 1.389 . S
C570 H543 0.950 . S
C570 C556 1.377 . S
C570 C569 1.373 . S
C571 C555 1.377 . S
C571 C569 1.389 . S
C571 C572 1.524 . S
C572 C571 1.524 . S
C572 C573 1.397 1_554 S
C572 C577 1.363 . S
C573 H544 0.950 . S
C573 C572 1.397 1_556 S
C573 C574 1.334 . S
C574 H545 0.950 . S
C574 C573 1.334 . S
C574 C575 1.287 1_556 S
C575 C574 1.287 1_554 S
C575 C576 1.524 . S
C575 H578 0.999 . S
C576 H546 0.950 . S
C576 C575 1.524 . S
C576 C577 1.415 . S
C577 H547 0.950 . S
C577 C572 1.363 . S
C577 C576 1.415 . S
H578 C575 0.999 . S
H579 C560 0.913 . S
H580 C598 0.951 . S
H581 C600 0.951 . S
H582 C602 0.950 . S
H583 C603 0.950 . S
H584 C605 0.950 . S
H585 C608 0.950 . S
H586 C609 0.950 . S
H587 C611 0.950 . S
H588 C612 0.950 . S
H589 C613 0.951 1_554 S
H590 C615 0.952 . S
H591 C617 0.950 . S
H592 C618 0.950 . S
H593 C620 0.950 . S
H594 C623 0.950 . S
H595 C624 0.950 . S
H596 C626 0.950 . S
H597 C627 0.950 . S
C598 H580 0.951 . S
C598 C599 1.366 1_556 S
C598 C600 1.388 . S
C599 C598 1.366 1_554 S
C599 C603 1.385 . S
C600 H581 0.951 . S
C600 C598 1.388 . S
C600 C601 1.366 . S
C601 C600 1.366 . S
C601 C602 1.414 1_556 S
C601 C604 1.499 . S
C602 H582 0.950 . S
C602 C601 1.414 1_554 S
C602 C603 1.374 . S
C603 H583 0.950 . S
C603 C599 1.385 . S
C603 C602 1.374 . S
C604 C601 1.499 . S
C604 C605 1.373 . S
C604 C606 1.389 . S
C605 H584 0.950 . S
C605 C604 1.373 . S
C605 C621 1.377 . S
C606 C604 1.389 . S
C606 C607 1.524 . S
C606 C620 1.377 . S
C607 C606 1.524 . S
C607 C608 1.397 1_556 S
C607 C612 1.363 . S
C608 H585 0.950 . S
C608 C607 1.397 1_554 S
C608 C609 1.334 . S
C609 H586 0.950 . S
C609 C608 1.334 . S
C609 C610 1.287 . S
C610 C609 1.287 . S
C610 C611 1.524 1_554 S
C610 H629 0.913 . S
C611 H587 0.950 . S
C611 C610 1.524 1_556 S
C611 C612 1.415 . S
C612 H588 0.950 . S
C612 C607 1.363 . S
C612 C611 1.415 . S
C613 H589 0.951 1_556 S
C613 C614 1.366 . S
C613 C615 1.388 1_556 S
C614 C613 1.366 . S
C614 C618 1.385 . S
C615 H590 0.952 . S
C615 C613 1.388 1_554 S
C615 C616 1.365 1_554 S
C616 C615 1.365 1_556 S
C616 C617 1.414 . S
C616 C619 1.499 . S
C617 H591 0.950 . S
C617 C616 1.414 . S
C617 C618 1.374 . S
C618 H592 0.950 . S
C618 C614 1.385 . S
C618 C617 1.374 . S
C619 C616 1.499 . S
C619 C620 1.373 . S
C619 C621 1.389 . S
C620 H593 0.950 . S
C620 C606 1.377 . S
C620 C619 1.373 . S
C621 C605 1.377 . S
C621 C619 1.389 . S
C621 C622 1.524 . S
C622 C621 1.524 . S
C622 C623 1.397 . S
C622 C627 1.363 1_556 S
C623 H594 0.950 . S
C623 C622 1.397 . S
C623 C624 1.334 . S
C624 H595 0.950 . S
C624 C623 1.334 . S
C624 C625 1.287 . S
C625 C624 1.287 . S
C625 C626 1.524 1_556 S
C625 H628 0.999 . S
C626 H596 0.950 . S
C626 C625 1.524 1_554 S
C626 C627 1.415 . S
C627 H597 0.950 . S
C627 C622 1.363 1_554 S
C627 C626 1.415 . S
H628 C625 0.999 . S
H629 C610 0.913 . S
H630 C648 0.951 . S
H631 C650 0.951 . S
H632 C652 0.950 . S
H633 C653 0.950 . S
H634 C655 0.950 . S
H635 C658 0.950 . S
H636 C659 0.950 1_554 S
H637 C661 0.950 . S
H638 C662 0.950 . S
H639 C663 0.951 . S
H640 C665 0.951 . S
H641 C667 0.950 . S
H642 C668 0.950 . S
H643 C670 0.950 . S
H644 C673 0.950 1_556 S
H645 C674 0.950 . S
H646 C676 0.950 . S
H647 C677 0.950 . S
C648 H630 0.951 . S
C648 C649 1.366 1_556 S
C648 C650 1.388 . S
C649 C648 1.366 1_554 S
C649 C653 1.385 . S
C650 H631 0.951 . S
C650 C648 1.388 . S
C650 C651 1.366 1_556 S
C651 C650 1.366 1_554 S
C651 C652 1.414 . S
C651 C654 1.499 . S
C652 H632 0.950 . S
C652 C651 1.414 . S
C652 C653 1.374 . S
C653 H633 0.950 . S
C653 C649 1.385 . S
C653 C652 1.374 . S
C654 C651 1.499 . S
C654 C655 1.373 . S
C654 C656 1.389 1_554 S
C655 H634 0.950 . S
C655 C654 1.373 . S
C655 C671 1.377 . S
C656 C654 1.389 1_556 S
C656 C657 1.524 . S
C656 C670 1.377 . S
C657 C656 1.524 . S
C657 C658 1.397 1_556 S
C657 C662 1.363 . S
C658 H635 0.950 . S
C658 C657 1.397 1_554 S
C658 C659 1.334 1_554 S
C659 H636 0.950 1_556 S
C659 C658 1.334 1_556 S
C659 C660 1.287 . S
C660 C659 1.287 . S
C660 C661 1.524 . S
C660 H679 0.913 . S
C661 H637 0.950 . S
C661 C660 1.524 . S
C661 C662 1.415 . S
C662 H638 0.950 . S
C662 C657 1.363 . S
C662 C661 1.415 . S
C663 H639 0.951 . S
C663 C664 1.366 1_554 S
C663 C665 1.388 . S
C664 C663 1.366 1_556 S
C664 C668 1.385 . S
C665 H640 0.951 . S
C665 C663 1.388 . S
C665 C666 1.366 . S
C666 C665 1.366 . S
C666 C667 1.414 1_554 S
C666 C669 1.499 . S
C667 H641 0.950 . S
C667 C666 1.414 1_556 S
C667 C668 1.374 . S
C668 H642 0.950 . S
C668 C664 1.385 . S
C668 C667 1.374 . S
C669 C666 1.499 . S
C669 C670 1.373 1_554 S
C669 C671 1.389 . S
C670 H643 0.950 . S
C670 C656 1.377 . S
C670 C669 1.373 1_556 S
C671 C655 1.377 . S
C671 C669 1.389 . S
C671 C672 1.524 . S
C672 C671 1.524 . S
C672 C673 1.397 . S
C672 C677 1.363 . S
C673 H644 0.950 1_554 S
C673 C672 1.397 . S
C673 C674 1.334 . S
C674 H645 0.950 . S
C674 C673 1.334 . S
C674 C675 1.287 . S
C675 C674 1.287 . S
C675 C676 1.524 . S
C675 H678 0.999 . S
C676 H646 0.950 . S
C676 C675 1.524 . S
C676 C677 1.415 . S
C677 H647 0.950 . S
C677 C672 1.363 . S
C677 C676 1.415 . S
H678 C675 0.999 . S
H679 C660 0.913 . S
C99 C48 1.764 1_655 S
C114 C8 1.764 1_655 S
C149 C29 2.004 . S
C164 C69 2.004 . S
C199 C68 1.764 . S
C214 C28 1.763 . S
C249 C9 2.007 . S
C264 C49 2.007 . S
C299 C61 1.531 . S
C314 C18 1.537 . S
C349 C58 1.537 . S
C364 C21 1.530 . S
C399 C41 1.531 . S
C414 C38 1.537 . S
C449 C1 1.531 . S
C464 C78 1.537 . S
C499 C79 0.799 . S
C514 C2 0.802 . S
C549 C42 0.802 . S
C564 C39 0.799 . S
C599 C22 0.802 . S
C614 C59 0.799 . S
C649 C19 0.799 . S
C664 C62 0.802 . S
