# Generated by pormake.
# Topology qtz, (4)-cn, num edge types: 1
# Building blocks:
#     Node 0, Type 0, BuildingBlock: UXUYUI_clean_sbu_0, # of connection points: 4
#     Node 1, Type 0, BuildingBlock: UXUYUI_clean_sbu_0, # of connection points: 4
#     Node 2, Type 0, BuildingBlock: UXUYUI_clean_sbu_0, # of connection points: 4
#     Edge 3, Type (0, 0), BuildingBlock: UVAHIK_clean_linker_0, # of connection points: 2
#     Edge 4, Type (0, 0), BuildingBlock: UVAHIK_clean_linker_0, # of connection points: 2
#     Edge 5, Type (0, 0), BuildingBlock: UVAHIK_clean_linker_0, # of connection points: 2
#     Edge 6, Type (0, 0), BuildingBlock: UVAHIK_clean_linker_0, # of connection points: 2
#     Edge 7, Type (0, 0), BuildingBlock: UVAHIK_clean_linker_0, # of connection points: 2
#     Edge 8, Type (0, 0), BuildingBlock: UVAHIK_clean_linker_0, # of connection points: 2
# Relax obj value: 0.181
# Max RMSD: 0.212
# Mean RMSD: 0.212
data_MOF--net-qtz--node1-UXUYUI_clean_sbu_0--edge1-UVAHIK_clean_linker_0
_symmetry_space_group_name_H-M    P1
_symmetry_Int_Tables_number       1
_symmetry_cell_setting            triclinic
loop_
_symmetry_equiv_pos_as_xyz
'x, y, z'
_cell_length_a     41.036932
_cell_length_b     41.072968
_cell_length_c     49.0203
_cell_angle_alpha  90.041395
_cell_angle_beta   89.9967
_cell_angle_gamma 119.94613
loop_
_atom_site_label
_atom_site_type_symbol
_atom_site_fract_x
_atom_site_fract_y
_atom_site_fract_z
_atom_type_partial_charge
Li0 Li 0.02252 0.49022 0.15165 0.0
Li1 Li 0.01667 0.52509 0.18889 0.0
Li2 Li 0.97253 0.45732 0.18277 0.0
Li3 Li 0.96925 0.50177 0.15159 0.0
C4 C 0.05663 0.47722 0.19403 0.0
N5 N 0.11733 0.46591 0.19905 0.0
C6 C 0.08973 0.50441 0.20658 0.0
C7 C 0.05425 0.44407 0.18437 0.0
C8 C 0.12014 0.49821 0.20884 0.0
C9 C 0.08529 0.43895 0.18699 0.0
C10 C 0.05861 0.5645 0.13937 0.0
C11 C 0.09741 0.60187 0.10194 0.0
N12 N 0.12852 0.61353 0.11775 0.0
C13 C 0.09099 0.57688 0.15522 0.0
C14 C 0.06183 0.57709 0.11249 0.0
C15 C 0.12606 0.60165 0.14394 0.0
C16 C 0.04044 0.46739 0.10323 0.0
N17 N 0.05615 0.48592 0.12688 0.0
C18 C 0.11664 0.49716 0.11269 0.0
C19 C 0.09361 0.50114 0.13177 0.0
C20 C 0.10105 0.47797 0.08818 0.0
C21 C 0.06247 0.46309 0.08349 0.0
H22 H 0.01074 0.45607 0.0996 0.0
H23 H 0.10578 0.51653 0.15036 0.0
C24 C 0.04347 0.5535 0.24103 0.0
N25 N 0.04042 0.56364 0.21522 0.0
C26 C 0.06114 0.58083 0.26116 0.0
C27 C 0.07126 0.62841 0.22786 0.0
C28 C 0.05338 0.60014 0.20838 0.0
C29 C 0.07564 0.61892 0.25461 0.0
H30 H 0.03239 0.52414 0.24588 0.0
H31 H 0.05015 0.6073 0.18772 0.0
C32 C 0.94316 0.41903 0.13734 0.0
N33 N 0.8891 0.34495 0.12834 0.0
C34 C 0.9059 0.40945 0.13227 0.0
C35 C 0.95304 0.39103 0.13742 0.0
C36 C 0.87895 0.37181 0.12786 0.0
C37 C 0.92527 0.35371 0.13295 0.0
C38 C 0.94885 0.52109 0.20141 0.0
C39 C 0.92495 0.51086 0.22397 0.0
C40 C 0.96145 0.55607 0.18911 0.0
C41 C 0.91394 0.53582 0.23386 0.0
C42 C 0.94983 0.58025 0.19961 0.0
N43 N 0.92651 0.56971 0.22158 0.0
C44 C 0.9573 0.39419 0.21542 0.0
C45 C 0.90396 0.39727 0.20043 0.0
C46 C 0.93432 0.3606 0.22917 0.0
N47 N 0.94178 0.41159 0.20136 0.0
C48 C 0.87993 0.36353 0.21355 0.0
C49 C 0.89511 0.34488 0.22823 0.0
H50 H 0.98747 0.40652 0.21621 0.0
H51 H 0.89251 0.41221 0.18956 0.0
C52 C 0.94689 0.52088 0.10326 0.0
N53 N 0.93643 0.5104 0.12952 0.0
C54 C 0.92302 0.52552 0.08546 0.0
C55 C 0.87783 0.50818 0.12206 0.0
C56 C 0.9026 0.50385 0.13914 0.0
C57 C 0.88784 0.51889 0.09475 0.0
H58 H 0.97344 0.52477 0.09599 0.0
H59 H 0.89441 0.49432 0.15987 0.0
O60 O 0.02652 0.48277 0.19172 0.0
O61 O 0.02402 0.53992 0.15001 0.0
O62 O 0.96983 0.45563 0.14218 0.0
O63 O 0.96017 0.49707 0.19174 0.0
H64 H 0.09199 0.53007 0.21443 0.0
H65 H 0.02881 0.42266 0.17479 0.0
H66 H 0.14599 0.51909 0.21838 0.0
H67 H 0.08392 0.41354 0.17942 0.0
H68 H 0.10028 0.61183 0.08117 0.0
H69 H 0.08918 0.56709 0.1759 0.0
H70 H 0.03719 0.56792 0.09987 0.0
H71 H 0.15133 0.61129 0.15599 0.0
H72 H 0.14642 0.50956 0.11685 0.0
H73 H 0.04939 0.448 0.06486 0.0
H74 H 0.06339 0.57224 0.28163 0.0
H75 H 0.08232 0.65742 0.22185 0.0
H76 H 0.89777 0.43075 0.13205 0.0
H77 H 0.98182 0.39803 0.14093 0.0
H78 H 0.84996 0.36395 0.12414 0.0
H79 H 0.93248 0.33172 0.13312 0.0
H80 H 0.91505 0.4839 0.23375 0.0
H81 H 0.98 0.5645 0.17164 0.0
H82 H 0.89543 0.52827 0.25131 0.0
H83 H 0.95936 0.6074 0.1903 0.0
H84 H 0.94702 0.34703 0.24035 0.0
H85 H 0.84986 0.35264 0.21279 0.0
H86 H 0.9319 0.53394 0.0646 0.0
H87 H 0.85066 0.50203 0.12989 0.0
Li88 Li 0.52468 0.01478 0.47068 0.0
Li89 Li 0.49042 0.02377 0.50791 0.0
Li90 Li 0.50154 0.97114 0.50693 0.0
Li91 Li 0.45793 0.97464 0.47419 0.0
C92 C 0.56644 0.02759 0.5268 0.0
N93 N 0.62 0.03066 0.56258 0.0
C94 C 0.57552 0.04956 0.5504 0.0
C95 C 0.58519 0.00777 0.52118 0.0
C96 C 0.60254 0.05062 0.56829 0.0
C97 C 0.61198 0.00948 0.53958 0.0
C98 C 0.50071 0.06664 0.46112 0.0
C99 C 0.49915 0.11646 0.43617 0.0
N100 N 0.53261 0.14174 0.44752 0.0
C101 C 0.53512 0.09316 0.47255 0.0
C102 C 0.48259 0.07839 0.44277 0.0
C103 C 0.55076 0.13097 0.46541 0.0
C104 C 0.55537 0.04703 0.41974 0.0
N105 N 0.56422 0.03954 0.44479 0.0
C106 C 0.62881 0.06675 0.43216 0.0
C107 C 0.60006 0.04903 0.4513 0.0
C108 C 0.62065 0.07518 0.40614 0.0
C109 C 0.58327 0.06499 0.40004 0.0
H110 H 0.52658 0.03909 0.41509 0.0
H111 H 0.60642 0.04285 0.4713 0.0
C112 C 0.48725 0.04977 0.55939 0.0
N113 N 0.48356 0.05555 0.53256 0.0
C114 C 0.48093 0.07013 0.57939 0.0
C115 C 0.4656 0.10101 0.54382 0.0
C116 C 0.47241 0.08015 0.52448 0.0
C117 C 0.47003 0.09622 0.57167 0.0
H118 H 0.49462 0.02887 0.56523 0.0
H119 H 0.46812 0.08322 0.50313 0.0
C120 C 0.51063 0.95442 0.44407 0.0
N121 N 0.54231 0.94814 0.39603 0.0
C122 C 0.49407 0.95384 0.41902 0.0
C123 C 0.54309 0.95142 0.44469 0.0
C124 C 0.51056 0.95071 0.39495 0.0
C125 C 0.55875 0.9484 0.42018 0.0
C126 C 0.42049 0.96671 0.52333 0.0
C127 C 0.40194 0.94396 0.54574 0.0
C128 C 0.40499 0.98595 0.51004 0.0
C129 C 0.36804 0.94072 0.55448 0.0
C130 C 0.37106 0.98199 0.51941 0.0
N131 N 0.35343 0.95965 0.54125 0.0
C132 C 0.51159 0.94549 0.55728 0.0
C133 C 0.51203 0.90964 0.51948 0.0
C134 C 0.51871 0.9234 0.57515 0.0
N135 N 0.50892 0.93855 0.53004 0.0
C136 C 0.51873 0.88652 0.53666 0.0
C137 C 0.52239 0.89339 0.56493 0.0
H138 H 0.50887 0.96869 0.56502 0.0
H139 H 0.50934 0.90459 0.49773 0.0
C140 C 0.40369 0.9613 0.43372 0.0
N141 N 0.41206 0.94623 0.45542 0.0
C142 C 0.37029 0.93989 0.41929 0.0
C143 C 0.35455 0.88828 0.45026 0.0
C144 C 0.38831 0.91063 0.464 0.0
C145 C 0.34537 0.90275 0.42741 0.0
H146 H 0.42325 0.98972 0.4274 0.0
H147 H 0.39589 0.8995 0.48134 0.0
O148 O 0.53971 0.02594 0.50921 0.0
O149 O 0.48475 0.02931 0.46753 0.0
O150 O 0.49548 0.95854 0.46779 0.0
O151 O 0.4539 0.97039 0.51477 0.0
H152 H 0.56214 0.06593 0.55476 0.0
H153 H 0.57863 0.9907 0.50302 0.0
H154 H 0.60971 0.0674 0.58667 0.0
H155 H 0.62632 0.99389 0.53561 0.0
H156 H 0.48539 0.12591 0.42201 0.0
H157 H 0.54973 0.08487 0.48676 0.0
H158 H 0.45595 0.05831 0.43375 0.0
H159 H 0.57736 0.15175 0.47409 0.0
H160 H 0.65708 0.07362 0.43768 0.0
H161 H 0.57568 0.07143 0.38045 0.0
H162 H 0.48388 0.06501 0.60067 0.0
H163 H 0.45719 0.12083 0.53704 0.0
H164 H 0.46907 0.95628 0.41812 0.0
H165 H 0.55624 0.95171 0.46386 0.0
H166 H 0.49819 0.9505 0.37542 0.0
H167 H 0.58401 0.94632 0.42036 0.0
H168 H 0.41369 0.92901 0.55629 0.0
H169 H 0.41903 0.00387 0.49275 0.0
H170 H 0.35336 0.92319 0.57181 0.0
H171 H 0.35876 -0.00326 0.50935 0.0
H172 H 0.52184 0.93016 0.59669 0.0
H173 H 0.52061 0.86331 0.5279 0.0
H174 H 0.36413 0.95218 0.4019 0.0
H175 H 0.33641 0.85963 0.45696 0.0
Li176 Li 0.48747 0.46546 0.80856 0.0
Li177 Li 0.52798 0.50783 0.8445 0.0
Li178 Li 0.46327 0.49302 0.841 0.0
Li179 Li 0.51082 0.53229 0.80751 0.0
C180 C 0.45239 0.42351 0.85502 0.0
N181 N 0.39262 0.35355 0.86779 0.0
C182 C 0.45466 0.40367 0.87737 0.0
C183 C 0.41968 0.40784 0.83918 0.0
C184 C 0.42415 0.36831 0.88349 0.0
C185 C 0.38978 0.37242 0.84597 0.0
C186 C 0.5625 0.52247 0.78332 0.0
C187 C 0.61636 0.57421 0.7618 0.0
N188 N 0.60557 0.55601 0.73745 0.0
C189 C 0.55218 0.50415 0.7581 0.0
C190 C 0.59509 0.55765 0.78523 0.0
C191 C 0.57423 0.5216 0.73515 0.0
C192 C 0.45658 0.41436 0.76454 0.0
N193 N 0.47515 0.42137 0.78868 0.0
C194 C 0.47856 0.36525 0.78473 0.0
C195 C 0.48593 0.39756 0.79906 0.0
C196 C 0.46036 0.35767 0.75929 0.0
C197 C 0.449 0.38258 0.74935 0.0
H198 H 0.44861 0.43401 0.75677 0.0
H199 H 0.50051 0.40388 0.81842 0.0
C200 C 0.5567 0.50918 0.89677 0.0
N201 N 0.56566 0.51494 0.86985 0.0
C202 C 0.58357 0.51286 0.91586 0.0
C203 C 0.62831 0.52862 0.87909 0.0
C204 C 0.60059 0.5246 0.86074 0.0
C205 C 0.61984 0.52235 0.90704 0.0
H206 H 0.52852 0.50128 0.9033 0.0
H207 H 0.60679 0.52882 0.83918 0.0
C208 C 0.4367 0.50516 0.79126 0.0
N209 N 0.39359 0.53511 0.77275 0.0
C210 C 0.43931 0.53698 0.80383 0.0
C211 C 0.4122 0.48866 0.76926 0.0
C212 C 0.41728 0.55167 0.79417 0.0
C213 C 0.39062 0.50419 0.76022 0.0
C214 C 0.53111 0.56858 0.86565 0.0
C215 C 0.51605 0.57311 0.88999 0.0
C216 C 0.56977 0.59035 0.861 0.0
C217 C 0.54006 0.59846 0.90958 0.0
C218 C 0.59289 0.61535 0.88109 0.0
N219 N 0.57769 0.61881 0.9048 0.0
C220 C 0.42499 0.48477 0.88951 0.0
C221 C 0.38586 0.47139 0.85074 0.0
C222 C 0.39544 0.47852 0.90679 0.0
N223 N 0.42007 0.48232 0.86204 0.0
C224 C 0.35539 0.46454 0.86727 0.0
C225 C 0.36011 0.46871 0.89571 0.0
H226 H 0.45207 0.49186 0.89797 0.0
H227 H 0.382 0.46774 0.82895 0.0
C228 C 0.51887 0.56673 0.7564 0.0
N229 N 0.52556 0.57366 0.78354 0.0
C230 C 0.52701 0.59607 0.73837 0.0
C231 C 0.54836 0.63905 0.77661 0.0
C232 C 0.54011 0.60892 0.79386 0.0
C233 C 0.54151 0.63271 0.7485 0.0
H234 H 0.50635 0.53823 0.74887 0.0
H235 H 0.54443 0.61356 0.81556 0.0
O236 O 0.48201 0.45827 0.84897 0.0
O237 O 0.54089 0.50603 0.80596 0.0
O238 O 0.45846 0.49053 0.79995 0.0
O239 O 0.50808 0.54352 0.84631 0.0
H240 H 0.47977 0.41552 0.88987 0.0
H241 H 0.41731 0.42282 0.82186 0.0
H242 H 0.42552 0.35262 0.90073 0.0
H243 H 0.36431 0.35995 0.83389 0.0
H244 H 0.64148 0.60153 0.76299 0.0
H245 H 0.52727 0.47692 0.75614 0.0
H246 H 0.60388 0.57217 0.80452 0.0
H247 H 0.56638 0.50781 0.71549 0.0
H248 H 0.48724 0.34656 0.79345 0.0
H249 H 0.43543 0.37826 0.72968 0.0
H250 H 0.5757 0.50731 0.93715 0.0
H251 H 0.65603 0.53642 0.87147 0.0
H252 H 0.45805 0.55026 0.82086 0.0
H253 H 0.40985 0.4641 0.75925 0.0
H254 H 0.41904 0.57626 0.8037 0.0
H255 H 0.37153 0.49167 0.74321 0.0
H256 H 0.48612 0.55765 0.89363 0.0
H257 H 0.58184 0.58766 0.84217 0.0
H258 H 0.52875 0.60208 0.92855 0.0
H259 H 0.62292 0.63199 0.87783 0.0
H260 H 0.40057 0.48219 0.92854 0.0
H261 H 0.32841 0.45594 0.85786 0.0
H262 H 0.52071 0.58995 0.71689 0.0
H263 H 0.55956 0.66693 0.78518 0.0
C264 C 0.32409 0.44821 0.93981 0.0
C265 C 0.32887 0.46407 0.91367 0.0
C266 C 0.2966 0.44658 0.95745 0.0
C267 C 0.23961 0.4921 0.96938 0.0
H268 H 0.18686 0.41034 0.02068 0.0
C269 C 0.12195 0.4812 0.0398 0.0
C270 C 0.12497 0.47392 0.0674 0.0
C271 C 0.14487 0.47793 0.02022 0.0
C272 C 0.20155 0.43342 0.00653 0.0
H273 H 0.30758 0.48969 0.88539 0.0
H274 H 0.25871 0.4854 0.91569 0.0
H275 H 0.2293 0.40717 0.98725 0.0
H276 H 0.15369 0.4568 0.09615 0.0
H277 H 0.19377 0.45097 0.06183 0.0
H278 H 0.21157 0.51813 0.98858 0.0
C279 C 0.27685 0.47506 0.92282 0.0
C280 C 0.22592 0.43168 0.98743 0.0
C281 C 0.30456 0.47701 0.90527 0.0
C282 C 0.15102 0.46287 0.07503 0.0
C283 C 0.17366 0.45919 0.05539 0.0
C284 C 0.21499 0.49363 0.98828 0.0
C285 C 0.27296 0.46045 0.94931 0.0
C286 C 0.24551 0.46117 0.96876 0.0
C287 C 0.17096 0.46693 0.02784 0.0
C288 C 0.19597 0.46447 0.00718 0.0
H289 H 0.34186 0.43736 0.9468 0.0
H290 H 0.29466 0.43541 0.97777 0.0
H291 H 0.25475 0.51567 0.95571 0.0
H292 H 0.10228 0.49002 0.0334 0.0
H293 H 0.14207 0.48384 -0.00091 0.0
C294 C 0.8374 0.28137 0.23121 0.0
C295 C 0.87007 0.31012 0.24347 0.0
C296 C 0.8122 0.24996 0.24631 0.0
C297 C 0.80078 0.20013 0.31234 0.0
H298 H 0.69551 0.16887 0.30179 0.0
C299 C 0.68652 0.12472 0.39415 0.0
C300 C 0.65104 0.09559 0.38581 0.0
C301 C 0.7144 0.14547 0.37495 0.0
C302 C 0.72473 0.17681 0.30469 0.0
H303 H 0.9025 0.32832 0.28085 0.0
H304 H 0.85816 0.27412 0.30744 0.0
H305 H 0.74242 0.21516 0.27127 0.0
H306 H 0.61776 0.06438 0.35074 0.0
H307 H 0.66627 0.10139 0.31718 0.0
H308 H 0.78286 0.16285 0.34667 0.0
C309 C 0.85229 0.27518 0.28602 0.0
C310 C 0.75168 0.20331 0.28714 0.0
C311 C 0.87768 0.30637 0.27084 0.0
C312 C 0.64448 0.08712 0.35784 0.0
C313 C 0.67228 0.10813 0.33862 0.0
C314 C 0.7738 0.17387 0.33007 0.0
C315 C 0.81891 0.24688 0.27407 0.0
C316 C 0.79012 0.2158 0.29102 0.0
C317 C 0.70734 0.13779 0.34699 0.0
C318 C 0.73559 0.16244 0.32665 0.0
H319 H 0.83119 0.28337 0.21001 0.0
H320 H 0.78718 0.22835 0.23629 0.0
H321 H 0.83004 0.20855 0.31561 0.0
H322 H 0.69242 0.13243 0.41545 0.0
H323 H 0.74099 0.16854 0.38195 0.0
C324 C 0.51303 0.86014 0.60968 0.0
C325 C 0.52972 0.86932 0.58368 0.0
C326 C 0.51988 0.83761 0.62736 0.0
C327 C 0.54477 0.76422 0.62837 0.0
H328 H 0.56673 0.79106 0.70472 0.0
C329 C 0.56431 0.66821 0.70451 0.0
C330 C 0.54717 0.66367 0.7301 0.0
C331 C 0.5676 0.69619 0.68663 0.0
C332 C 0.56031 0.78299 0.68351 0.0
H333 H 0.56718 0.86227 0.55612 0.0
H334 H 0.57817 0.82193 0.58683 0.0
H335 H 0.56161 0.83432 0.6733 0.0
H336 H 0.52 0.6847 0.75706 0.0
H337 H 0.52498 0.7329 0.72581 0.0
H338 H 0.54192 0.71229 0.63862 0.0
C339 C 0.55983 0.83234 0.59339 0.0
C340 C 0.55752 0.80783 0.66554 0.0
C341 C 0.55335 0.85526 0.57579 0.0
C342 C 0.53388 0.68795 0.73763 0.0
C343 C 0.53686 0.71566 0.71971 0.0
C344 C 0.54716 0.73916 0.64639 0.0
C345 C 0.54321 0.82339 0.61935 0.0
C346 C 0.54918 0.79843 0.63789 0.0
C347 C 0.55349 0.71997 0.69389 0.0
C348 C 0.55437 0.74799 0.67428 0.0
H349 H 0.4941 0.86979 0.61628 0.0
H350 H 0.50621 0.83061 0.64711 0.0
H351 H 0.538 0.75618 0.60717 0.0
H352 H 0.57514 0.65008 0.69832 0.0
H353 H 0.5811 0.6991 0.66709 0.0
C354 C 0.67109 0.50895 0.91976 0.0
C355 C 0.64822 0.52419 0.92669 0.0
C356 C 0.69705 0.50953 0.9384 0.0
C357 C 0.75016 0.55642 0.00071 0.0
H358 H 0.75925 0.46715 0.00688 0.0
C359 C 0.83946 0.53753 0.08416 0.0
C360 C 0.86107 0.52145 0.07576 0.0
C361 C 0.8135 0.53884 0.06639 0.0
C362 C 0.75732 0.49243 0.0052 0.0
H363 H 0.63516 0.55263 0.95849 0.0
H364 H 0.68019 0.55307 0.99131 0.0
H365 H 0.71388 0.46769 0.97517 0.0
H366 H 0.87224 0.494 0.04216 0.0
H367 H 0.82753 0.49689 0.01107 0.0
H368 H 0.79372 0.58109 0.03082 0.0
C369 C 0.67818 0.54095 0.97132 0.0
C370 C 0.73134 0.49275 0.98703 0.0
C371 C 0.65214 0.54035 0.95264 0.0
C372 C 0.85636 0.50697 0.04917 0.0
C373 C 0.8304 0.5082 0.03146 0.0
C374 C 0.77619 0.55608 0.01894 0.0
C375 C 0.70072 0.52529 0.96445 0.0
C376 C 0.72767 0.52483 0.9844 0.0
C377 C 0.80851 0.52392 0.03992 0.0
C378 C 0.78024 0.52417 0.0212 0.0
H379 H 0.66848 0.49589 0.90006 0.0
H380 H 0.71434 0.49768 0.93235 0.0
H381 H 0.74823 0.58169 -0.00106 0.0
H382 H 0.8427 0.5492 0.10446 0.0
H383 H 0.79685 0.55091 0.07355 0.0
C384 C 0.27711 0.85351 0.42439 0.0
C385 C 0.31104 0.87843 0.41131 0.0
C386 C 0.24588 0.82804 0.40921 0.0
C387 C 0.20713 0.80458 0.33879 0.0
H388 H 0.15825 0.70212 0.36558 0.0
C389 C 0.09207 0.68042 0.2769 0.0
C390 C 0.09648 0.64864 0.27526 0.0
C391 C 0.11319 0.70916 0.29552 0.0
C392 C 0.17158 0.7306 0.35784 0.0
H393 H 0.3385 0.89685 0.37202 0.0
H394 H 0.28423 0.85234 0.34557 0.0
H395 H 0.2047 0.75273 0.3939 0.0
H396 H 0.12655 0.6222 0.29188 0.0
H397 H 0.16327 0.67215 0.32424 0.0
H398 H 0.1753 0.78208 0.30215 0.0
C399 C 0.28146 0.85283 0.36752 0.0
C400 C 0.19788 0.75969 0.37421 0.0
C401 C 0.31263 0.87834 0.38269 0.0
C402 C 0.12198 0.64596 0.29294 0.0
C403 C 0.14302 0.67461 0.31153 0.0
C404 C 0.18082 0.77544 0.3224 0.0
C405 C 0.24796 0.82688 0.38062 0.0
C406 C 0.2166 0.79691 0.36462 0.0
C407 C 0.1391 0.70667 0.3129 0.0
C408 C 0.16345 0.73802 0.3315 0.0
H409 H 0.27487 0.85337 0.44642 0.0
H410 H 0.22028 0.80883 0.41988 0.0
H411 H 0.2207 0.83302 0.33097 0.0
H412 H 0.07226 0.68306 0.2638 0.0
H413 H 0.10926 0.73333 0.29631 0.0
C414 C 0.42248 0.30468 0.72657 0.0
C415 C 0.4549 0.32503 0.74267 0.0
C416 C 0.41861 0.27543 0.70978 0.0
C417 C 0.45429 0.21001 0.69863 0.0
H418 H 0.42932 0.21304 0.62273 0.0
C419 C 0.48853 0.13443 0.61453 0.0
C420 C 0.46344 0.11833 0.59261 0.0
C421 C 0.48287 0.15586 0.63404 0.0
C422 C 0.43565 0.21129 0.64394 0.0
H423 H 0.50859 0.3303 0.7537 0.0
H424 H 0.50144 0.27897 0.72488 0.0
H425 H 0.4268 0.25665 0.65525 0.0
H426 H 0.41219 0.1112 0.57429 0.0
H427 H 0.40208 0.14846 0.60855 0.0
H428 H 0.46351 0.16494 0.68737 0.0
C429 C 0.47888 0.28543 0.72546 0.0
C430 C 0.43423 0.23632 0.66256 0.0
C431 C 0.48291 0.31483 0.74203 0.0
C432 C 0.43229 0.12374 0.59077 0.0
C433 C 0.42651 0.14505 0.61039 0.0
C434 C 0.45548 0.18483 0.68007 0.0
C435 C 0.44692 0.26571 0.70894 0.0
C436 C 0.4443 0.23644 0.68995 0.0
C437 C 0.45187 0.16154 0.63218 0.0
C438 C 0.44698 0.18572 0.65239 0.0
H439 H 0.40008 0.31136 0.72689 0.0
H440 H 0.39352 0.26042 0.69742 0.0
H441 H 0.46164 0.20913 0.71973 0.0
H442 H 0.51306 0.13117 0.61628 0.0
H443 H 0.50338 0.16876 0.65023 0.0
loop_
_geom_bond_atom_site_label_1
_geom_bond_atom_site_label_2
_geom_bond_distance
_geom_bond_site_symmetry_2
_ccdc_geom_bond_type
Li0 N17 1.990 . S
Li0 O60 1.956 . S
Li0 O61 1.970 . S
Li0 O62 1.961 1_455 S
Li1 N25 1.990 . S
Li1 O60 1.970 . S
Li1 O61 1.956 . S
Li1 O63 1.961 1_455 S
Li2 N47 1.990 . S
Li2 O60 1.961 1_655 S
Li2 O62 1.956 . S
Li2 O63 1.970 . S
Li3 N53 1.990 . S
Li3 O61 1.961 1_655 S
Li3 O62 1.970 . S
Li3 O63 1.956 . S
C4 C6 1.348 . S
C4 C7 1.356 . S
C4 O60 1.325 . S
N5 C8 1.314 . S
N5 C9 1.279 . S
C6 C4 1.348 . S
C6 C8 1.353 . S
C6 H64 0.929 . S
C7 C4 1.356 . S
C7 C9 1.358 . S
C7 H65 0.930 . S
C8 N5 1.314 . S
C8 C6 1.353 . S
C8 H66 0.930 . S
C9 N5 1.279 . S
C9 C7 1.358 . S
C9 H67 0.930 . S
C10 C13 1.348 . S
C10 C14 1.356 . S
C10 O61 1.325 . S
C11 N12 1.279 . S
C11 C14 1.358 . S
C11 H68 0.930 . S
N12 C11 1.279 . S
N12 C15 1.314 . S
C13 C10 1.348 . S
C13 C15 1.353 . S
C13 H69 0.929 . S
C14 C10 1.356 . S
C14 C11 1.358 . S
C14 H70 0.930 . S
C15 N12 1.314 . S
C15 C13 1.353 . S
C15 H71 0.930 . S
C16 N17 1.314 . S
C16 C21 1.353 . S
C16 H22 0.930 . S
N17 Li0 1.990 . S
N17 C16 1.314 . S
N17 C19 1.279 . S
C18 C19 1.358 . S
C18 C20 1.356 . S
C18 H72 0.930 . S
C19 N17 1.279 . S
C19 C18 1.358 . S
C19 H23 0.930 . S
C20 C18 1.356 . S
C20 C21 1.348 . S
C21 C16 1.353 . S
C21 C20 1.348 . S
C21 H73 0.929 . S
H22 C16 0.930 . S
H23 C19 0.930 . S
C24 N25 1.314 . S
C24 C26 1.353 . S
C24 H30 0.930 . S
N25 Li1 1.990 . S
N25 C24 1.314 . S
N25 C28 1.279 . S
C26 C24 1.353 . S
C26 C29 1.348 . S
C26 H74 0.929 . S
C27 C28 1.358 . S
C27 C29 1.356 . S
C27 H75 0.930 . S
C28 N25 1.279 . S
C28 C27 1.358 . S
C28 H31 0.930 . S
C29 C26 1.348 . S
C29 C27 1.356 . S
H30 C24 0.930 . S
H31 C28 0.930 . S
C32 C34 1.348 . S
C32 C35 1.356 . S
C32 O62 1.325 . S
N33 C36 1.314 . S
N33 C37 1.279 . S
C34 C32 1.348 . S
C34 C36 1.353 . S
C34 H76 0.929 . S
C35 C32 1.356 . S
C35 C37 1.358 . S
C35 H77 0.930 . S
C36 N33 1.314 . S
C36 C34 1.353 . S
C36 H78 0.930 . S
C37 N33 1.279 . S
C37 C35 1.358 . S
C37 H79 0.930 . S
C38 C39 1.348 . S
C38 C40 1.356 . S
C38 O63 1.325 . S
C39 C38 1.348 . S
C39 C41 1.353 . S
C39 H80 0.929 . S
C40 C38 1.356 . S
C40 C42 1.358 . S
C40 H81 0.930 . S
C41 C39 1.353 . S
C41 N43 1.314 . S
C41 H82 0.930 . S
C42 C40 1.358 . S
C42 N43 1.279 . S
C42 H83 0.930 . S
N43 C41 1.314 . S
N43 C42 1.279 . S
C44 C46 1.353 . S
C44 N47 1.314 . S
C44 H50 0.930 . S
C45 N47 1.279 . S
C45 C48 1.358 . S
C45 H51 0.930 . S
C46 C44 1.353 . S
C46 C49 1.348 . S
C46 H84 0.929 . S
N47 Li2 1.990 . S
N47 C44 1.314 . S
N47 C45 1.279 . S
C48 C45 1.358 . S
C48 C49 1.356 . S
C48 H85 0.930 . S
C49 C46 1.348 . S
C49 C48 1.356 . S
H50 C44 0.930 . S
H51 C45 0.930 . S
C52 N53 1.314 . S
C52 C54 1.353 . S
C52 H58 0.930 . S
N53 Li3 1.990 . S
N53 C52 1.314 . S
N53 C56 1.279 . S
C54 C52 1.353 . S
C54 C57 1.348 . S
C54 H86 0.929 . S
C55 C56 1.358 . S
C55 C57 1.356 . S
C55 H87 0.930 . S
C56 N53 1.279 . S
C56 C55 1.358 . S
C56 H59 0.930 . S
C57 C54 1.348 . S
C57 C55 1.356 . S
H58 C52 0.930 . S
H59 C56 0.930 . S
O60 Li0 1.956 . S
O60 Li1 1.970 . S
O60 Li2 1.961 1_455 S
O60 C4 1.325 . S
O61 Li0 1.970 . S
O61 Li1 1.956 . S
O61 Li3 1.961 1_455 S
O61 C10 1.325 . S
O62 Li0 1.961 1_655 S
O62 Li2 1.956 . S
O62 Li3 1.970 . S
O62 C32 1.325 . S
O63 Li1 1.961 1_655 S
O63 Li2 1.970 . S
O63 Li3 1.956 . S
O63 C38 1.325 . S
H64 C6 0.929 . S
H65 C7 0.930 . S
H66 C8 0.930 . S
H67 C9 0.930 . S
H68 C11 0.930 . S
H69 C13 0.929 . S
H70 C14 0.930 . S
H71 C15 0.930 . S
H72 C18 0.930 . S
H73 C21 0.929 . S
H74 C26 0.929 . S
H75 C27 0.930 . S
H76 C34 0.929 . S
H77 C35 0.930 . S
H78 C36 0.930 . S
H79 C37 0.930 . S
H80 C39 0.929 . S
H81 C40 0.930 . S
H82 C41 0.930 . S
H83 C42 0.930 . S
H84 C46 0.929 . S
H85 C48 0.930 . S
H86 C54 0.929 . S
H87 C55 0.930 . S
Li88 N105 1.990 . S
Li88 O148 1.956 . S
Li88 O149 1.970 . S
Li88 O150 1.961 1_545 S
Li89 N113 1.990 . S
Li89 O148 1.970 . S
Li89 O149 1.956 . S
Li89 O151 1.961 1_545 S
Li90 N135 1.990 . S
Li90 O148 1.961 1_565 S
Li90 O150 1.956 . S
Li90 O151 1.970 . S
Li91 N141 1.990 . S
Li91 O149 1.961 1_565 S
Li91 O150 1.970 . S
Li91 O151 1.956 . S
C92 C94 1.348 . S
C92 C95 1.356 . S
C92 O148 1.325 . S
N93 C96 1.314 . S
N93 C97 1.279 . S
C94 C92 1.348 . S
C94 C96 1.353 . S
C94 H152 0.929 . S
C95 C92 1.356 . S
C95 C97 1.358 . S
C95 H153 0.930 . S
C96 N93 1.314 . S
C96 C94 1.353 . S
C96 H154 0.930 . S
C97 N93 1.279 . S
C97 C95 1.358 . S
C97 H155 0.930 . S
C98 C101 1.348 . S
C98 C102 1.356 . S
C98 O149 1.325 . S
C99 N100 1.279 . S
C99 C102 1.358 . S
C99 H156 0.930 . S
N100 C99 1.279 . S
N100 C103 1.314 . S
C101 C98 1.348 . S
C101 C103 1.353 . S
C101 H157 0.929 . S
C102 C98 1.356 . S
C102 C99 1.358 . S
C102 H158 0.930 . S
C103 N100 1.314 . S
C103 C101 1.353 . S
C103 H159 0.930 . S
C104 N105 1.314 . S
C104 C109 1.353 . S
C104 H110 0.930 . S
N105 Li88 1.990 . S
N105 C104 1.314 . S
N105 C107 1.279 . S
C106 C107 1.358 . S
C106 C108 1.356 . S
C106 H160 0.930 . S
C107 N105 1.279 . S
C107 C106 1.358 . S
C107 H111 0.930 . S
C108 C106 1.356 . S
C108 C109 1.348 . S
C109 C104 1.353 . S
C109 C108 1.348 . S
C109 H161 0.929 . S
H110 C104 0.930 . S
H111 C107 0.930 . S
C112 N113 1.314 . S
C112 C114 1.353 . S
C112 H118 0.930 . S
N113 Li89 1.990 . S
N113 C112 1.314 . S
N113 C116 1.279 . S
C114 C112 1.353 . S
C114 C117 1.348 . S
C114 H162 0.929 . S
C115 C116 1.358 . S
C115 C117 1.356 . S
C115 H163 0.930 . S
C116 N113 1.279 . S
C116 C115 1.358 . S
C116 H119 0.930 . S
C117 C114 1.348 . S
C117 C115 1.356 . S
H118 C112 0.930 . S
H119 C116 0.930 . S
C120 C122 1.348 . S
C120 C123 1.356 . S
C120 O150 1.325 . S
N121 C124 1.314 . S
N121 C125 1.279 . S
C122 C120 1.348 . S
C122 C124 1.353 . S
C122 H164 0.929 . S
C123 C120 1.356 . S
C123 C125 1.358 . S
C123 H165 0.930 . S
C124 N121 1.314 . S
C124 C122 1.353 . S
C124 H166 0.930 . S
C125 N121 1.279 . S
C125 C123 1.358 . S
C125 H167 0.930 . S
C126 C127 1.348 . S
C126 C128 1.356 . S
C126 O151 1.325 . S
C127 C126 1.348 . S
C127 C129 1.353 . S
C127 H168 0.929 . S
C128 C126 1.356 . S
C128 C130 1.358 . S
C128 H169 0.930 . S
C129 C127 1.353 . S
C129 N131 1.314 . S
C129 H170 0.930 . S
C130 C128 1.358 . S
C130 N131 1.279 . S
C130 H171 0.930 . S
N131 C129 1.314 . S
N131 C130 1.279 . S
C132 C134 1.353 . S
C132 N135 1.314 . S
C132 H138 0.930 . S
C133 N135 1.279 . S
C133 C136 1.358 . S
C133 H139 0.930 . S
C134 C132 1.353 . S
C134 C137 1.348 . S
C134 H172 0.929 . S
N135 Li90 1.990 . S
N135 C132 1.314 . S
N135 C133 1.279 . S
C136 C133 1.358 . S
C136 C137 1.356 . S
C136 H173 0.930 . S
C137 C134 1.348 . S
C137 C136 1.356 . S
H138 C132 0.930 . S
H139 C133 0.930 . S
C140 N141 1.314 . S
C140 C142 1.353 . S
C140 H146 0.930 . S
N141 Li91 1.990 . S
N141 C140 1.314 . S
N141 C144 1.279 . S
C142 C140 1.353 . S
C142 C145 1.348 . S
C142 H174 0.929 . S
C143 C144 1.358 . S
C143 C145 1.356 . S
C143 H175 0.930 . S
C144 N141 1.279 . S
C144 C143 1.358 . S
C144 H147 0.930 . S
C145 C142 1.348 . S
C145 C143 1.356 . S
H146 C140 0.930 . S
H147 C144 0.930 . S
O148 Li88 1.956 . S
O148 Li89 1.970 . S
O148 Li90 1.961 1_545 S
O148 C92 1.325 . S
O149 Li88 1.970 . S
O149 Li89 1.956 . S
O149 Li91 1.961 1_545 S
O149 C98 1.325 . S
O150 Li88 1.961 1_565 S
O150 Li90 1.956 . S
O150 Li91 1.970 . S
O150 C120 1.325 . S
O151 Li89 1.961 1_565 S
O151 Li90 1.970 . S
O151 Li91 1.956 . S
O151 C126 1.325 . S
H152 C94 0.929 . S
H153 C95 0.930 . S
H154 C96 0.930 . S
H155 C97 0.930 . S
H156 C99 0.930 . S
H157 C101 0.929 . S
H158 C102 0.930 . S
H159 C103 0.930 . S
H160 C106 0.930 . S
H161 C109 0.929 . S
H162 C114 0.929 . S
H163 C115 0.930 . S
H164 C122 0.929 . S
H165 C123 0.930 . S
H166 C124 0.930 . S
H167 C125 0.930 . S
H168 C127 0.929 . S
H169 C128 0.930 . S
H170 C129 0.930 . S
H171 C130 0.930 . S
H172 C134 0.929 . S
H173 C136 0.930 . S
H174 C142 0.929 . S
H175 C143 0.930 . S
Li176 N193 1.990 . S
Li176 O236 1.956 . S
Li176 O237 1.970 . S
Li176 O238 1.961 . S
Li177 N201 1.990 . S
Li177 O236 1.970 . S
Li177 O237 1.956 . S
Li177 O239 1.961 . S
Li178 N223 1.990 . S
Li178 O236 1.961 . S
Li178 O238 1.956 . S
Li178 O239 1.970 . S
Li179 N229 1.990 . S
Li179 O237 1.961 . S
Li179 O238 1.970 . S
Li179 O239 1.956 . S
C180 C182 1.348 . S
C180 C183 1.356 . S
C180 O236 1.325 . S
N181 C184 1.314 . S
N181 C185 1.279 . S
C182 C180 1.348 . S
C182 C184 1.353 . S
C182 H240 0.929 . S
C183 C180 1.356 . S
C183 C185 1.358 . S
C183 H241 0.930 . S
C184 N181 1.314 . S
C184 C182 1.353 . S
C184 H242 0.930 . S
C185 N181 1.279 . S
C185 C183 1.358 . S
C185 H243 0.930 . S
C186 C189 1.348 . S
C186 C190 1.356 . S
C186 O237 1.325 . S
C187 N188 1.279 . S
C187 C190 1.358 . S
C187 H244 0.930 . S
N188 C187 1.279 . S
N188 C191 1.314 . S
C189 C186 1.348 . S
C189 C191 1.353 . S
C189 H245 0.929 . S
C190 C186 1.356 . S
C190 C187 1.358 . S
C190 H246 0.930 . S
C191 N188 1.314 . S
C191 C189 1.353 . S
C191 H247 0.930 . S
C192 N193 1.314 . S
C192 C197 1.353 . S
C192 H198 0.930 . S
N193 Li176 1.990 . S
N193 C192 1.314 . S
N193 C195 1.279 . S
C194 C195 1.358 . S
C194 C196 1.356 . S
C194 H248 0.930 . S
C195 N193 1.279 . S
C195 C194 1.358 . S
C195 H199 0.930 . S
C196 C194 1.356 . S
C196 C197 1.348 . S
C197 C192 1.353 . S
C197 C196 1.348 . S
C197 H249 0.929 . S
H198 C192 0.930 . S
H199 C195 0.930 . S
C200 N201 1.314 . S
C200 C202 1.353 . S
C200 H206 0.930 . S
N201 Li177 1.990 . S
N201 C200 1.314 . S
N201 C204 1.279 . S
C202 C200 1.353 . S
C202 C205 1.348 . S
C202 H250 0.929 . S
C203 C204 1.358 . S
C203 C205 1.356 . S
C203 H251 0.930 . S
C204 N201 1.279 . S
C204 C203 1.358 . S
C204 H207 0.930 . S
C205 C202 1.348 . S
C205 C203 1.356 . S
H206 C200 0.930 . S
H207 C204 0.930 . S
C208 C210 1.348 . S
C208 C211 1.356 . S
C208 O238 1.325 . S
N209 C212 1.314 . S
N209 C213 1.279 . S
C210 C208 1.348 . S
C210 C212 1.353 . S
C210 H252 0.929 . S
C211 C208 1.356 . S
C211 C213 1.358 . S
C211 H253 0.930 . S
C212 N209 1.314 . S
C212 C210 1.353 . S
C212 H254 0.930 . S
C213 N209 1.279 . S
C213 C211 1.358 . S
C213 H255 0.930 . S
C214 C215 1.348 . S
C214 C216 1.356 . S
C214 O239 1.325 . S
C215 C214 1.348 . S
C215 C217 1.353 . S
C215 H256 0.929 . S
C216 C214 1.356 . S
C216 C218 1.358 . S
C216 H257 0.930 . S
C217 C215 1.353 . S
C217 N219 1.314 . S
C217 H258 0.930 . S
C218 C216 1.358 . S
C218 N219 1.279 . S
C218 H259 0.930 . S
N219 C217 1.314 . S
N219 C218 1.279 . S
C220 C222 1.353 . S
C220 N223 1.314 . S
C220 H226 0.930 . S
C221 N223 1.279 . S
C221 C224 1.358 . S
C221 H227 0.930 . S
C222 C220 1.353 . S
C222 C225 1.348 . S
C222 H260 0.929 . S
N223 Li178 1.990 . S
N223 C220 1.314 . S
N223 C221 1.279 . S
C224 C221 1.358 . S
C224 C225 1.356 . S
C224 H261 0.930 . S
C225 C222 1.348 . S
C225 C224 1.356 . S
H226 C220 0.930 . S
H227 C221 0.930 . S
C228 N229 1.314 . S
C228 C230 1.353 . S
C228 H234 0.930 . S
N229 Li179 1.990 . S
N229 C228 1.314 . S
N229 C232 1.279 . S
C230 C228 1.353 . S
C230 C233 1.348 . S
C230 H262 0.929 . S
C231 C232 1.358 . S
C231 C233 1.356 . S
C231 H263 0.930 . S
C232 N229 1.279 . S
C232 C231 1.358 . S
C232 H235 0.930 . S
C233 C230 1.348 . S
C233 C231 1.356 . S
H234 C228 0.930 . S
H235 C232 0.930 . S
O236 Li176 1.956 . S
O236 Li177 1.970 . S
O236 Li178 1.961 . S
O236 C180 1.325 . S
O237 Li176 1.970 . S
O237 Li177 1.956 . S
O237 Li179 1.961 . S
O237 C186 1.325 . S
O238 Li176 1.961 . S
O238 Li178 1.956 . S
O238 Li179 1.970 . S
O238 C208 1.325 . S
O239 Li177 1.961 . S
O239 Li178 1.970 . S
O239 Li179 1.956 . S
O239 C214 1.325 . S
H240 C182 0.929 . S
H241 C183 0.930 . S
H242 C184 0.930 . S
H243 C185 0.930 . S
H244 C187 0.930 . S
H245 C189 0.929 . S
H246 C190 0.930 . S
H247 C191 0.930 . S
H248 C194 0.930 . S
H249 C197 0.929 . S
H250 C202 0.929 . S
H251 C203 0.930 . S
H252 C210 0.929 . S
H253 C211 0.930 . S
H254 C212 0.930 . S
H255 C213 0.930 . S
H256 C215 0.929 . S
H257 C216 0.930 . S
H258 C217 0.930 . S
H259 C218 0.930 . S
H260 C222 0.929 . S
H261 C224 0.930 . S
H262 C230 0.929 . S
H263 C231 0.930 . S
C264 C265 1.349 . S
C264 C266 1.327 . S
C264 H289 0.950 . S
C265 C264 1.349 . S
C265 C281 1.349 . S
C266 C264 1.327 . S
C266 C285 1.429 . S
C266 H290 0.950 . S
C267 C284 1.594 . S
C267 C286 1.368 . S
C267 H291 0.949 . S
H268 C272 0.949 . S
C269 C270 1.349 . S
C269 C271 1.327 . S
C269 H292 0.950 . S
C270 C269 1.349 . S
C270 C282 1.349 . S
C271 C269 1.327 . S
C271 C287 1.429 . S
C271 H293 0.950 . S
C272 H268 0.949 . S
C272 C280 1.594 . S
C272 C288 1.368 . S
H273 C281 0.950 . S
H274 C279 0.950 . S
H275 C280 0.949 . S
H276 C282 0.950 . S
H277 C283 0.950 . S
H278 C284 0.949 . S
C279 H274 0.950 . S
C279 C281 1.327 . S
C279 C285 1.429 . S
C280 C272 1.594 . S
C280 H275 0.949 . S
C280 C286 1.348 1_554 S
C281 C265 1.349 . S
C281 H273 0.950 . S
C281 C279 1.327 . S
C282 C270 1.349 . S
C282 H276 0.950 . S
C282 C283 1.327 . S
C283 H277 0.950 . S
C283 C282 1.327 . S
C283 C287 1.429 . S
C284 C267 1.594 . S
C284 H278 0.949 . S
C284 C288 1.349 1_556 S
C285 C266 1.429 . S
C285 C279 1.429 . S
C285 C286 1.523 . S
C286 C267 1.368 . S
C286 C280 1.348 1_556 S
C286 C285 1.523 . S
C287 C271 1.429 . S
C287 C283 1.429 . S
C287 C288 1.523 . S
C288 C272 1.368 . S
C288 C284 1.349 1_554 S
C288 C287 1.523 . S
H289 C264 0.950 . S
H290 C266 0.950 . S
H291 C267 0.949 . S
H292 C269 0.950 . S
H293 C271 0.950 . S
C294 C295 1.349 . S
C294 C296 1.327 . S
C294 H319 0.950 . S
C295 C294 1.349 . S
C295 C311 1.349 . S
C296 C294 1.327 . S
C296 C315 1.429 . S
C296 H320 0.950 . S
C297 C314 1.574 . S
C297 C316 1.368 . S
C297 H321 0.949 . S
H298 C302 0.949 . S
C299 C300 1.349 . S
C299 C301 1.327 . S
C299 H322 0.950 . S
C300 C299 1.349 . S
C300 C312 1.349 . S
C301 C299 1.327 . S
C301 C317 1.429 . S
C301 H323 0.950 . S
C302 H298 0.949 . S
C302 C310 1.574 . S
C302 C318 1.368 . S
H303 C311 0.950 . S
H304 C309 0.950 . S
H305 C310 0.949 . S
H306 C312 0.950 . S
H307 C313 0.950 . S
H308 C314 0.949 . S
C309 H304 0.950 . S
C309 C311 1.327 . S
C309 C315 1.429 . S
C310 C302 1.574 . S
C310 H305 0.949 . S
C310 C316 1.368 . S
C311 C295 1.349 . S
C311 H303 0.950 . S
C311 C309 1.327 . S
C312 C300 1.349 . S
C312 H306 0.950 . S
C312 C313 1.327 . S
C313 H307 0.950 . S
C313 C312 1.327 . S
C313 C317 1.429 . S
C314 C297 1.574 . S
C314 H308 0.949 . S
C314 C318 1.368 . S
C315 C296 1.429 . S
C315 C309 1.429 . S
C315 C316 1.523 . S
C316 C297 1.368 . S
C316 C310 1.368 . S
C316 C315 1.523 . S
C317 C301 1.429 . S
C317 C313 1.429 . S
C317 C318 1.523 . S
C318 C302 1.368 . S
C318 C314 1.368 . S
C318 C317 1.523 . S
H319 C294 0.950 . S
H320 C296 0.950 . S
H321 C297 0.949 . S
H322 C299 0.950 . S
H323 C301 0.950 . S
C324 C325 1.349 . S
C324 C326 1.327 . S
C324 H349 0.950 . S
C325 C324 1.349 . S
C325 C341 1.349 . S
C326 C324 1.327 . S
C326 C345 1.429 . S
C326 H350 0.950 . S
C327 C344 1.574 . S
C327 C346 1.368 . S
C327 H351 0.949 . S
H328 C332 0.949 . S
C329 C330 1.349 . S
C329 C331 1.327 . S
C329 H352 0.950 . S
C330 C329 1.349 . S
C330 C342 1.349 . S
C331 C329 1.327 . S
C331 C347 1.429 . S
C331 H353 0.950 . S
C332 H328 0.949 . S
C332 C340 1.574 . S
C332 C348 1.368 . S
H333 C341 0.950 . S
H334 C339 0.950 . S
H335 C340 0.949 . S
H336 C342 0.950 . S
H337 C343 0.950 . S
H338 C344 0.949 . S
C339 H334 0.950 . S
C339 C341 1.327 . S
C339 C345 1.429 . S
C340 C332 1.574 . S
C340 H335 0.949 . S
C340 C346 1.368 . S
C341 C325 1.349 . S
C341 H333 0.950 . S
C341 C339 1.327 . S
C342 C330 1.349 . S
C342 H336 0.950 . S
C342 C343 1.327 . S
C343 H337 0.950 . S
C343 C342 1.327 . S
C343 C347 1.429 . S
C344 C327 1.574 . S
C344 H338 0.949 . S
C344 C348 1.368 . S
C345 C326 1.429 . S
C345 C339 1.429 . S
C345 C346 1.523 . S
C346 C327 1.368 . S
C346 C340 1.368 . S
C346 C345 1.523 . S
C347 C331 1.429 . S
C347 C343 1.429 . S
C347 C348 1.523 . S
C348 C332 1.368 . S
C348 C344 1.368 . S
C348 C347 1.523 . S
H349 C324 0.950 . S
H350 C326 0.950 . S
H351 C327 0.949 . S
H352 C329 0.950 . S
H353 C331 0.950 . S
C354 C355 1.349 . S
C354 C356 1.327 . S
C354 H379 0.950 . S
C355 C354 1.349 . S
C355 C371 1.349 . S
C356 C354 1.327 . S
C356 C375 1.429 . S
C356 H380 0.950 . S
C357 C374 1.594 . S
C357 C376 1.348 1_554 S
C357 H381 0.949 . S
H358 C362 0.949 . S
C359 C360 1.349 . S
C359 C361 1.327 . S
C359 H382 0.950 . S
C360 C359 1.349 . S
C360 C372 1.349 . S
C361 C359 1.327 . S
C361 C377 1.429 . S
C361 H383 0.950 . S
C362 H358 0.949 . S
C362 C370 1.594 . S
C362 C378 1.349 1_556 S
H363 C371 0.950 . S
H364 C369 0.950 . S
H365 C370 0.949 . S
H366 C372 0.950 . S
H367 C373 0.950 . S
H368 C374 0.949 . S
C369 H364 0.950 . S
C369 C371 1.327 . S
C369 C375 1.429 . S
C370 C362 1.594 . S
C370 H365 0.949 . S
C370 C376 1.368 . S
C371 C355 1.349 . S
C371 H363 0.950 . S
C371 C369 1.327 . S
C372 C360 1.349 . S
C372 H366 0.950 . S
C372 C373 1.327 . S
C373 H367 0.950 . S
C373 C372 1.327 . S
C373 C377 1.429 . S
C374 C357 1.594 . S
C374 H368 0.949 . S
C374 C378 1.368 . S
C375 C356 1.429 . S
C375 C369 1.429 . S
C375 C376 1.523 . S
C376 C357 1.348 1_556 S
C376 C370 1.368 . S
C376 C375 1.523 . S
C377 C361 1.429 . S
C377 C373 1.429 . S
C377 C378 1.523 . S
C378 C362 1.349 1_554 S
C378 C374 1.368 . S
C378 C377 1.523 . S
H379 C354 0.950 . S
H380 C356 0.950 . S
H381 C357 0.949 . S
H382 C359 0.950 . S
H383 C361 0.950 . S
C384 C385 1.349 . S
C384 C386 1.327 . S
C384 H409 0.950 . S
C385 C384 1.349 . S
C385 C401 1.349 . S
C386 C384 1.327 . S
C386 C405 1.429 . S
C386 H410 0.950 . S
C387 C404 1.574 . S
C387 C406 1.368 . S
C387 H411 0.949 . S
H388 C392 0.949 . S
C389 C390 1.349 . S
C389 C391 1.327 . S
C389 H412 0.950 . S
C390 C389 1.349 . S
C390 C402 1.349 . S
C391 C389 1.327 . S
C391 C407 1.429 . S
C391 H413 0.950 . S
C392 H388 0.949 . S
C392 C400 1.574 . S
C392 C408 1.368 . S
H393 C401 0.950 . S
H394 C399 0.950 . S
H395 C400 0.949 . S
H396 C402 0.950 . S
H397 C403 0.950 . S
H398 C404 0.949 . S
C399 H394 0.950 . S
C399 C401 1.327 . S
C399 C405 1.429 . S
C400 C392 1.574 . S
C400 H395 0.949 . S
C400 C406 1.368 . S
C401 C385 1.349 . S
C401 H393 0.950 . S
C401 C399 1.327 . S
C402 C390 1.349 . S
C402 H396 0.950 . S
C402 C403 1.327 . S
C403 H397 0.950 . S
C403 C402 1.327 . S
C403 C407 1.429 . S
C404 C387 1.574 . S
C404 H398 0.949 . S
C404 C408 1.368 . S
C405 C386 1.429 . S
C405 C399 1.429 . S
C405 C406 1.523 . S
C406 C387 1.368 . S
C406 C400 1.368 . S
C406 C405 1.523 . S
C407 C391 1.429 . S
C407 C403 1.429 . S
C407 C408 1.523 . S
C408 C392 1.368 . S
C408 C404 1.368 . S
C408 C407 1.523 . S
H409 C384 0.950 . S
H410 C386 0.950 . S
H411 C387 0.949 . S
H412 C389 0.950 . S
H413 C391 0.950 . S
C414 C415 1.349 . S
C414 C416 1.327 . S
C414 H439 0.950 . S
C415 C414 1.349 . S
C415 C431 1.349 . S
C416 C414 1.327 . S
C416 C435 1.429 . S
C416 H440 0.950 . S
C417 C434 1.574 . S
C417 C436 1.368 . S
C417 H441 0.949 . S
H418 C422 0.949 . S
C419 C420 1.349 . S
C419 C421 1.327 . S
C419 H442 0.950 . S
C420 C419 1.349 . S
C420 C432 1.349 . S
C421 C419 1.327 . S
C421 C437 1.429 . S
C421 H443 0.950 . S
C422 H418 0.949 . S
C422 C430 1.574 . S
C422 C438 1.368 . S
H423 C431 0.950 . S
H424 C429 0.950 . S
H425 C430 0.949 . S
H426 C432 0.950 . S
H427 C433 0.950 . S
H428 C434 0.949 . S
C429 H424 0.950 . S
C429 C431 1.327 . S
C429 C435 1.429 . S
C430 C422 1.574 . S
C430 H425 0.949 . S
C430 C436 1.368 . S
C431 C415 1.349 . S
C431 H423 0.950 . S
C431 C429 1.327 . S
C432 C420 1.349 . S
C432 H426 0.950 . S
C432 C433 1.327 . S
C433 H427 0.950 . S
C433 C432 1.327 . S
C433 C437 1.429 . S
C434 C417 1.574 . S
C434 H428 0.949 . S
C434 C438 1.368 . S
C435 C416 1.429 . S
C435 C429 1.429 . S
C435 C436 1.523 . S
C436 C417 1.368 . S
C436 C430 1.368 . S
C436 C435 1.523 . S
C437 C421 1.429 . S
C437 C433 1.429 . S
C437 C438 1.523 . S
C438 C422 1.368 . S
C438 C434 1.368 . S
C438 C437 1.523 . S
H439 C414 0.950 . S
H440 C416 0.950 . S
H441 C417 0.949 . S
H442 C419 0.950 . S
H443 C421 0.950 . S
C265 C225 1.115 . S
C270 C20 1.115 . S
C295 C49 1.115 . S
C300 C108 1.115 . S
C325 C137 1.115 . S
C330 C233 1.116 . S
C355 C205 1.115 . S
C360 C57 1.115 . S
C385 C145 1.115 . S
C390 C29 1.116 . S
C415 C196 1.115 . S
C420 C117 1.114 . S
