# Generated by pormake.
# Topology rhr, (4)-cn, num edge types: 1
# Building blocks:
#     Node 0, Type 0, BuildingBlock: KOZSID_clean_sbu_0, # of connection points: 4
#     Node 1, Type 0, BuildingBlock: KOZSID_clean_sbu_0, # of connection points: 4
#     Node 2, Type 0, BuildingBlock: KOZSID_clean_sbu_0, # of connection points: 4
#     Node 3, Type 0, BuildingBlock: KOZSID_clean_sbu_0, # of connection points: 4
#     Node 4, Type 0, BuildingBlock: KOZSID_clean_sbu_0, # of connection points: 4
#     Node 5, Type 0, BuildingBlock: KOZSID_clean_sbu_0, # of connection points: 4
#     Node 6, Type 0, BuildingBlock: KOZSID_clean_sbu_0, # of connection points: 4
#     Node 7, Type 0, BuildingBlock: KOZSID_clean_sbu_0, # of connection points: 4
#     Node 8, Type 0, BuildingBlock: KOZSID_clean_sbu_0, # of connection points: 4
#     Node 9, Type 0, BuildingBlock: KOZSID_clean_sbu_0, # of connection points: 4
#     Node 10, Type 0, BuildingBlock: KOZSID_clean_sbu_0, # of connection points: 4
#     Node 11, Type 0, BuildingBlock: KOZSID_clean_sbu_0, # of connection points: 4
#     Node 12, Type 0, BuildingBlock: KOZSID_clean_sbu_0, # of connection points: 4
#     Node 13, Type 0, BuildingBlock: KOZSID_clean_sbu_0, # of connection points: 4
#     Node 14, Type 0, BuildingBlock: KOZSID_clean_sbu_0, # of connection points: 4
#     Node 15, Type 0, BuildingBlock: KOZSID_clean_sbu_0, # of connection points: 4
#     Node 16, Type 0, BuildingBlock: KOZSID_clean_sbu_0, # of connection points: 4
#     Node 17, Type 0, BuildingBlock: KOZSID_clean_sbu_0, # of connection points: 4
#     Node 18, Type 0, BuildingBlock: KOZSID_clean_sbu_0, # of connection points: 4
#     Node 19, Type 0, BuildingBlock: KOZSID_clean_sbu_0, # of connection points: 4
#     Node 20, Type 0, BuildingBlock: KOZSID_clean_sbu_0, # of connection points: 4
#     Node 21, Type 0, BuildingBlock: KOZSID_clean_sbu_0, # of connection points: 4
#     Node 22, Type 0, BuildingBlock: KOZSID_clean_sbu_0, # of connection points: 4
#     Node 23, Type 0, BuildingBlock: KOZSID_clean_sbu_0, # of connection points: 4
#     Edge 24, Type (0, 0), BuildingBlock: XIVTED_clean_linker_0, # of connection points: 2
#     Edge 25, Type (0, 0), BuildingBlock: XIVTED_clean_linker_0, # of connection points: 2
#     Edge 26, Type (0, 0), BuildingBlock: XIVTED_clean_linker_0, # of connection points: 2
#     Edge 27, Type (0, 0), BuildingBlock: XIVTED_clean_linker_0, # of connection points: 2
#     Edge 28, Type (0, 0), BuildingBlock: XIVTED_clean_linker_0, # of connection points: 2
#     Edge 29, Type (0, 0), BuildingBlock: XIVTED_clean_linker_0, # of connection points: 2
#     Edge 30, Type (0, 0), BuildingBlock: XIVTED_clean_linker_0, # of connection points: 2
#     Edge 31, Type (0, 0), BuildingBlock: XIVTED_clean_linker_0, # of connection points: 2
#     Edge 32, Type (0, 0), BuildingBlock: XIVTED_clean_linker_0, # of connection points: 2
#     Edge 33, Type (0, 0), BuildingBlock: XIVTED_clean_linker_0, # of connection points: 2
#     Edge 34, Type (0, 0), BuildingBlock: XIVTED_clean_linker_0, # of connection points: 2
#     Edge 35, Type (0, 0), BuildingBlock: XIVTED_clean_linker_0, # of connection points: 2
#     Edge 36, Type (0, 0), BuildingBlock: XIVTED_clean_linker_0, # of connection points: 2
#     Edge 37, Type (0, 0), BuildingBlock: XIVTED_clean_linker_0, # of connection points: 2
#     Edge 38, Type (0, 0), BuildingBlock: XIVTED_clean_linker_0, # of connection points: 2
#     Edge 39, Type (0, 0), BuildingBlock: XIVTED_clean_linker_0, # of connection points: 2
#     Edge 40, Type (0, 0), BuildingBlock: XIVTED_clean_linker_0, # of connection points: 2
#     Edge 41, Type (0, 0), BuildingBlock: XIVTED_clean_linker_0, # of connection points: 2
#     Edge 42, Type (0, 0), BuildingBlock: XIVTED_clean_linker_0, # of connection points: 2
#     Edge 43, Type (0, 0), BuildingBlock: XIVTED_clean_linker_0, # of connection points: 2
#     Edge 44, Type (0, 0), BuildingBlock: XIVTED_clean_linker_0, # of connection points: 2
#     Edge 45, Type (0, 0), BuildingBlock: XIVTED_clean_linker_0, # of connection points: 2
#     Edge 46, Type (0, 0), BuildingBlock: XIVTED_clean_linker_0, # of connection points: 2
#     Edge 47, Type (0, 0), BuildingBlock: XIVTED_clean_linker_0, # of connection points: 2
#     Edge 48, Type (0, 0), BuildingBlock: XIVTED_clean_linker_0, # of connection points: 2
#     Edge 49, Type (0, 0), BuildingBlock: XIVTED_clean_linker_0, # of connection points: 2
#     Edge 50, Type (0, 0), BuildingBlock: XIVTED_clean_linker_0, # of connection points: 2
#     Edge 51, Type (0, 0), BuildingBlock: XIVTED_clean_linker_0, # of connection points: 2
#     Edge 52, Type (0, 0), BuildingBlock: XIVTED_clean_linker_0, # of connection points: 2
#     Edge 53, Type (0, 0), BuildingBlock: XIVTED_clean_linker_0, # of connection points: 2
#     Edge 54, Type (0, 0), BuildingBlock: XIVTED_clean_linker_0, # of connection points: 2
#     Edge 55, Type (0, 0), BuildingBlock: XIVTED_clean_linker_0, # of connection points: 2
#     Edge 56, Type (0, 0), BuildingBlock: XIVTED_clean_linker_0, # of connection points: 2
#     Edge 57, Type (0, 0), BuildingBlock: XIVTED_clean_linker_0, # of connection points: 2
#     Edge 58, Type (0, 0), BuildingBlock: XIVTED_clean_linker_0, # of connection points: 2
#     Edge 59, Type (0, 0), BuildingBlock: XIVTED_clean_linker_0, # of connection points: 2
#     Edge 60, Type (0, 0), BuildingBlock: XIVTED_clean_linker_0, # of connection points: 2
#     Edge 61, Type (0, 0), BuildingBlock: XIVTED_clean_linker_0, # of connection points: 2
#     Edge 62, Type (0, 0), BuildingBlock: XIVTED_clean_linker_0, # of connection points: 2
#     Edge 63, Type (0, 0), BuildingBlock: XIVTED_clean_linker_0, # of connection points: 2
#     Edge 64, Type (0, 0), BuildingBlock: XIVTED_clean_linker_0, # of connection points: 2
#     Edge 65, Type (0, 0), BuildingBlock: XIVTED_clean_linker_0, # of connection points: 2
#     Edge 66, Type (0, 0), BuildingBlock: XIVTED_clean_linker_0, # of connection points: 2
#     Edge 67, Type (0, 0), BuildingBlock: XIVTED_clean_linker_0, # of connection points: 2
#     Edge 68, Type (0, 0), BuildingBlock: XIVTED_clean_linker_0, # of connection points: 2
#     Edge 69, Type (0, 0), BuildingBlock: XIVTED_clean_linker_0, # of connection points: 2
#     Edge 70, Type (0, 0), BuildingBlock: XIVTED_clean_linker_0, # of connection points: 2
#     Edge 71, Type (0, 0), BuildingBlock: XIVTED_clean_linker_0, # of connection points: 2
# Relax obj value: 0.005
# Max RMSD: 0.034
# Mean RMSD: 0.021
data_MOF--net-rhr--node1-KOZSID_clean_sbu_0--edge1-XIVTED_clean_linker_0
_symmetry_space_group_name_H-M    P1
_symmetry_Int_Tables_number       1
_symmetry_cell_setting            triclinic
loop_
_symmetry_equiv_pos_as_xyz
'x, y, z'
_cell_length_a     63.173552
_cell_length_b     63.246148
_cell_length_c     63.118898
_cell_angle_alpha  86.986807
_cell_angle_beta   85.528343
_cell_angle_gamma 90.794988
loop_
_atom_site_label
_atom_site_type_symbol
_atom_site_fract_x
_atom_site_fract_y
_atom_site_fract_z
_atom_type_partial_charge
C0 C 0.39114 0.98988 0.35104 0.0
C1 C 0.40944 0.98248 0.35953 0.0
C2 C 0.41085 0.99192 0.37832 0.0
C3 C 0.39332 0.00437 0.38042 0.0
N4 N 0.38064 0.00339 0.36418 0.0
Co5 Co 0.35319 0.01877 0.36161 0.0
N6 N 0.35607 0.03374 0.38864 0.0
C7 C 0.3727 0.03246 0.40087 0.0
C8 C 0.3707 0.04463 0.41821 0.0
C9 C 0.35155 0.05419 0.41715 0.0
C10 C 0.34278 0.04712 0.39924 0.0
N11 N 0.3254 0.0337 0.35942 0.0
C12 C 0.31452 0.0465 0.37306 0.0
C13 C 0.29504 0.05199 0.36581 0.0
C14 C 0.29355 0.04253 0.34703 0.0
C15 C 0.31203 0.03163 0.34389 0.0
N16 N 0.35064 0.00423 0.33424 0.0
C17 C 0.33479 0.00677 0.32116 0.0
C18 C 0.33768 0.996 0.30292 0.0
C19 C 0.35662 0.98609 0.30426 0.0
C20 C 0.36422 0.99122 0.32343 0.0
N21 N 0.3376 0.99496 0.37806 0.0
C22 C 0.31321 0.96349 0.4027 0.0
C23 C 0.30791 0.97015 0.38236 0.0
C24 C 0.32023 0.98566 0.37042 0.0
C25 C 0.33135 0.97246 0.41023 0.0
C26 C 0.34326 0.98797 0.39773 0.0
N27 N 0.36873 0.04258 0.34507 0.0
C28 C 0.37178 0.06765 0.31464 0.0
C29 C 0.39231 0.07358 0.31898 0.0
C30 C 0.40053 0.06426 0.3371 0.0
C31 C 0.38853 0.04902 0.34988 0.0
C32 C 0.36038 0.05235 0.32779 0.0
H33 H 0.39573 0.04248 0.36339 0.0
H34 H 0.34498 0.04843 0.32335 0.0
H35 H 0.31514 0.99008 0.35518 0.0
H36 H 0.35683 0.99424 0.40441 0.0
C37 C 0.38913 0.01835 0.39659 0.0
C38 C 0.38468 0.98379 0.33031 0.0
C39 C 0.32165 0.05339 0.39328 0.0
C40 C 0.31732 0.01931 0.32655 0.0
H41 H 0.42077 0.97155 0.35274 0.0
H42 H 0.42342 0.99025 0.38898 0.0
H43 H 0.38164 0.04602 0.43046 0.0
H44 H 0.34472 0.06495 0.42846 0.0
H45 H 0.28295 0.06161 0.37341 0.0
H46 H 0.28043 0.04328 0.33699 0.0
H47 H 0.32735 0.99557 0.29005 0.0
H48 H 0.36409 0.9764 0.29229 0.0
H49 H 0.29393 0.96386 0.37581 0.0
H50 H 0.3364 0.96754 0.42572 0.0
H51 H 0.36469 0.0743 0.30075 0.0
H52 H 0.41619 0.06865 0.34142 0.0
C53 C 0.05825 0.37691 0.33263 0.0
C54 C 0.06619 0.39391 0.34284 0.0
C55 C 0.05623 0.39319 0.36281 0.0
C56 C 0.04297 0.37581 0.36372 0.0
N57 N 0.04396 0.3652 0.3456 0.0
Co58 Co 0.02753 0.33888 0.34013 0.0
N59 N 0.01231 0.33833 0.36929 0.0
C60 C 0.01463 0.35233 0.38449 0.0
C61 C 1.00196 0.34792 0.40284 0.0
C62 C 0.9909 0.32998 0.39925 0.0
C63 C 0.99757 0.32441 0.37884 0.0
N64 N 0.01105 0.31254 0.3347 0.0
C65 C 0.99644 0.30105 0.34755 0.0
C66 C 0.98909 0.28361 0.33764 0.0
C67 C 0.99936 0.28408 0.3178 0.0
C68 C 0.01239 0.30166 0.31674 0.0
N69 N 0.04275 0.33947 0.31095 0.0
C70 C 0.04042 0.32545 0.29578 0.0
C71 C 0.0525 0.33031 0.27714 0.0
C72 C 0.06311 0.34859 0.28051 0.0
C73 C 0.05696 0.3538 0.30116 0.0
N74 N 0.05021 0.32121 0.35139 0.0
C75 C 0.08112 0.29528 0.36833 0.0
C76 C 0.07227 0.29034 0.34964 0.0
C77 C 0.05713 0.30358 0.34136 0.0
C78 C 0.07468 0.31356 0.3782 0.0
C79 C 0.05919 0.32611 0.36962 0.0
N80 N 0.00492 0.35654 0.32883 0.0
C81 C 0.98086 0.36434 0.30169 0.0
C82 C 0.97461 0.38283 0.31131 0.0
C83 C 0.98333 0.38774 0.33011 0.0
C84 C 0.9982 0.37435 0.33866 0.0
C85 C 0.99599 0.35158 0.3106 0.0
H86 H 0.0042 0.37886 0.35307 0.0
H87 H 1.00044 0.33799 0.30222 0.0
H88 H 0.05112 0.29906 0.32698 0.0
H89 H 0.05453 0.33947 0.37825 0.0
C90 C 0.02906 0.36931 0.38119 0.0
C91 C 0.0645 0.37287 0.3105 0.0
C92 C 0.98947 0.30569 0.36935 0.0
C93 C 0.0262 0.30828 0.29921 0.0
H94 H 0.07785 0.40574 0.33646 0.0
H95 H 0.05828 0.40415 0.37514 0.0
H96 H 1.00096 0.35667 0.41716 0.0
H97 H 0.97927 0.32187 0.41043 0.0
H98 H 0.97762 0.27165 0.34413 0.0
H99 H 0.99766 0.27286 0.30564 0.0
H100 H 0.0532 0.32178 0.26268 0.0
H101 H 0.07392 0.35726 0.26893 0.0
H102 H 0.07697 0.27628 0.34149 0.0
H103 H 0.08101 0.31777 0.39292 0.0
H104 H 0.97461 0.36005 0.28696 0.0
H105 H 0.9787 0.40187 0.33817 0.0
C106 C 0.68611 0.99258 0.32854 0.0
C107 C 0.69561 0.98604 0.30946 0.0
C108 C 0.71481 0.99631 0.30622 0.0
C109 C 0.71605 0.00838 0.3235 0.0
N110 N 0.69901 0.00615 0.33783 0.0
Co111 Co 0.69424 0.02158 0.36479 0.0
N112 N 0.72186 0.03793 0.35923 0.0
C113 C 0.73621 0.03624 0.34237 0.0
C114 C 0.75436 0.04809 0.34341 0.0
C115 C 0.75168 0.05774 0.36223 0.0
C116 C 0.73185 0.05133 0.37161 0.0
N117 N 0.68927 0.03733 0.39153 0.0
C118 C 0.70203 0.05114 0.40071 0.0
C119 C 0.69221 0.05823 0.4194 0.0
C120 C 0.67288 0.04817 0.42246 0.0
C121 C 0.67188 0.03567 0.40546 0.0
N122 N 0.66683 0.00492 0.37058 0.0
C123 C 0.65288 0.00605 0.38786 0.0
C124 C 0.63492 0.99383 0.38709 0.0
C125 C 0.63736 0.98448 0.36809 0.0
C126 C 0.65686 0.99142 0.35829 0.0
N127 N 0.70944 0.99914 0.38097 0.0
C128 C 0.73279 0.97001 0.40547 0.0
C129 C 0.71348 0.97804 0.41365 0.0
C130 C 0.70215 0.9923 0.40126 0.0
C131 C 0.73982 0.97642 0.38449 0.0
C132 C 0.72804 0.99081 0.37267 0.0
N133 N 0.67901 0.04398 0.34858 0.0
C134 C 0.64678 0.06327 0.34291 0.0
C135 C 0.65538 0.07202 0.32325 0.0
C136 C 0.67641 0.06713 0.31693 0.0
C137 C 0.68779 0.05316 0.32966 0.0
C138 C 0.6588 0.04966 0.35527 0.0
H139 H 0.70353 0.0497 0.32365 0.0
H140 H 0.6512 0.04367 0.37006 0.0
H141 H 0.68761 0.99776 0.40856 0.0
H142 H 0.73452 0.99522 0.35695 0.0
C143 C 0.73267 0.02245 0.3264 0.0
C144 C 0.66461 0.98577 0.33682 0.0
C145 C 0.72371 0.05755 0.39275 0.0
C146 C 0.65583 0.02074 0.40319 0.0
H147 H 0.6892 0.9752 0.29879 0.0
H148 H 0.72632 0.9954 0.29269 0.0
H149 H 0.76822 0.04906 0.33215 0.0
H150 H 0.76333 0.06786 0.36854 0.0
H151 H 0.69855 0.0692 0.42998 0.0
H152 H 0.66124 0.04929 0.43586 0.0
H153 H 0.62119 0.99269 0.3985 0.0
H154 H 0.62565 0.97435 0.36191 0.0
H155 H 0.70698 0.9733 0.42961 0.0
H156 H 0.75469 0.97082 0.37731 0.0
H157 H 0.63075 0.0669 0.34881 0.0
H158 H 0.68387 0.07349 0.30187 0.0
C159 C 0.96994 0.73295 0.33406 0.0
C160 C 0.96483 0.75248 0.32495 0.0
C161 C 0.97826 0.75589 0.30706 0.0
C162 C 0.99078 0.73837 0.30641 0.0
N163 N 0.9859 0.72377 0.32254 0.0
Co164 Co 1.001 0.69671 0.32874 0.0
N165 N 0.02196 0.70257 0.30358 0.0
C166 C 0.02189 0.71893 0.28889 0.0
C167 C 0.03843 0.71888 0.27354 0.0
C168 C 0.04966 0.70133 0.27858 0.0
C169 C 0.03916 0.69155 0.29674 0.0
N170 N 0.01681 0.67026 0.33574 0.0
C171 C 0.03474 0.66248 0.32609 0.0
C172 C 0.04055 0.64369 0.33634 0.0
C173 C 0.02593 0.63961 0.35315 0.0
C174 C 0.01204 0.65598 0.35224 0.0
N175 N 0.97946 0.6904 0.3533 0.0
C176 C 0.97751 0.67255 0.36611 0.0
C177 C 0.96089 0.67284 0.38143 0.0
C178 C 0.95182 0.6921 0.37831 0.0
C179 C 0.96356 0.70245 0.36126 0.0
N180 N 0.98262 0.68111 0.31037 0.0
C181 C 0.95466 0.65915 0.28609 0.0
C182 C 0.96391 0.64901 0.30315 0.0
C183 C 0.97754 0.66015 0.31498 0.0
C184 C 0.96022 0.68038 0.28094 0.0
C185 C 0.97426 0.69091 0.29307 0.0
N186 N 0.01928 0.71205 0.34709 0.0
C187 C 0.03547 0.71393 0.38034 0.0
C188 C 0.04828 0.7311 0.3722 0.0
C189 C 0.04558 0.73922 0.35156 0.0
C190 C 0.03099 0.72959 0.3394 0.0
C191 C 0.02119 0.70474 0.36764 0.0
H192 H 0.02967 0.73634 0.3237 0.0
H193 H 0.01208 0.69153 0.37471 0.0
H194 H 0.98363 0.6513 0.32781 0.0
H195 H 0.97793 0.70698 0.28815 0.0
C196 C 0.0073 0.73516 0.29104 0.0
C197 C 0.95998 0.72423 0.35418 0.0
C198 C 0.04609 0.67176 0.30671 0.0
C199 C 0.99332 0.65736 0.36538 0.0
H200 H 0.95287 0.76327 0.33082 0.0
H201 H 0.97908 0.76965 0.29607 0.0
H202 H 0.04218 0.7305 0.26053 0.0
H203 H 0.06405 0.69639 0.26993 0.0
H204 H 0.0537 0.63364 0.33193 0.0
H205 H 0.02519 0.62601 0.36436 0.0
H206 H 0.95655 0.66091 0.39401 0.0
H207 H 0.93854 0.69818 0.3879 0.0
H208 H 0.96079 0.63239 0.30742 0.0
H209 H 0.95357 0.68901 0.26784 0.0
H210 H 0.03647 0.70747 0.39646 0.0
H211 H 0.05507 0.75257 0.34456 0.0
C212 C 0.34559 0.97222 0.74067 0.0
C213 C 0.33582 0.96476 0.76015 0.0
C214 C 0.317 0.97495 0.76271 0.0
C215 C 0.31635 0.98798 0.74475 0.0
N216 N 0.33362 0.98674 0.73082 0.0
Co217 Co 0.33895 1.00256 0.7025 0.0
N218 N 0.31224 0.01904 0.7073 0.0
C219 C 0.29859 0.01806 0.72496 0.0
C220 C 0.28244 0.03221 0.72425 0.0
C221 C 0.2859 0.04289 0.70495 0.0
C222 C 0.30391 0.03436 0.69483 0.0
N223 N 0.3438 0.01771 0.67377 0.0
C224 C 0.33164 0.03204 0.66382 0.0
C225 C 0.33997 0.03726 0.64315 0.0
C226 C 0.35813 0.02607 0.64002 0.0
C227 C 0.35976 0.01452 0.65876 0.0
N228 N 0.36624 0.98687 0.69819 0.0
C229 C 0.3806 0.98873 0.68108 0.0
C230 C 0.39816 0.97653 0.68303 0.0
C231 C 0.39499 0.96644 0.70267 0.0
C232 C 0.37558 0.97311 0.71157 0.0
N233 N 0.32317 0.97996 0.68929 0.0
C234 C 0.30049 0.94971 0.66831 0.0
C235 C 0.32203 0.95382 0.66284 0.0
C236 C 0.33287 0.96891 0.67327 0.0
C237 C 0.29065 0.96042 0.68513 0.0
C238 C 0.30225 0.97525 0.69544 0.0
N239 N 0.35476 0.02507 0.71556 0.0
C240 C 0.38529 0.04857 0.71459 0.0
C241 C 0.37892 0.05521 0.73476 0.0
C242 C 0.35996 0.04703 0.745 0.0
C243 C 0.34825 0.03192 0.73523 0.0
C244 C 0.37296 0.03378 0.70527 0.0
H245 H 0.33416 0.02579 0.74396 0.0
H246 H 0.37861 0.02948 0.6898 0.0
H247 H 0.34907 0.9714 0.66782 0.0
H248 H 0.29385 0.98287 0.70812 0.0
C249 C 0.30084 0.00299 0.74151 0.0
C250 C 0.36664 0.96578 0.73268 0.0
C251 C 0.31204 0.04088 0.67318 0.0
C252 C 0.37658 1.00128 0.66304 0.0
H253 H 0.34187 0.95347 0.77156 0.0
H254 H 0.30546 0.97352 0.77635 0.0
H255 H 0.26957 0.03437 0.73626 0.0
H256 H 0.27612 0.0554 0.69895 0.0
H257 H 0.33359 0.04797 0.63142 0.0
H258 H 0.36888 0.02636 0.62579 0.0
H259 H 0.41157 0.97503 0.67148 0.0
H260 H 0.40571 0.95534 0.70963 0.0
H261 H 0.33064 0.9455 0.65041 0.0
H262 H 0.27397 0.9578 0.69003 0.0
H263 H 0.39974 0.05481 0.70599 0.0
H264 H 0.35451 0.05181 0.76071 0.0
C265 C 0.99195 0.36406 0.68564 0.0
C266 C 0.98686 0.38354 0.67636 0.0
C267 C 0.99765 0.38534 0.65676 0.0
C268 C 0.00888 0.36706 0.65515 0.0
N269 N 0.00575 0.35347 0.67241 0.0
Co270 Co 0.02102 0.32604 0.67715 0.0
N271 N 0.03918 0.33017 0.6495 0.0
C272 C 0.03839 0.3468 0.63523 0.0
C273 C 0.05117 0.34485 0.61693 0.0
C274 C 0.06068 0.32578 0.61952 0.0
C275 C 0.05339 0.31714 0.63951 0.0
N276 N 0.03624 0.29863 0.68191 0.0
C277 C 0.05138 0.28884 0.66946 0.0
C278 C 0.05775 0.2702 0.67954 0.0
C279 C 0.04576 0.26769 0.69845 0.0
C280 C 0.03296 0.28497 0.69911 0.0
N281 N 0.003 0.32199 0.70484 0.0
C282 C 0.00315 0.30504 0.71879 0.0
C283 C 0.98963 0.30667 0.73667 0.0
C284 C 0.98054 0.32601 0.73423 0.0
C285 C 0.9892 0.33524 0.715 0.0
N286 N 0.99927 0.31048 0.66197 0.0
C287 C 0.97149 0.28658 0.63849 0.0
C288 C 0.97696 0.27933 0.65867 0.0
C289 C 0.99068 0.29137 0.66999 0.0
C290 C 0.97971 0.3064 0.63069 0.0
C291 C 0.99326 0.31798 0.64258 0.0
N292 N 0.04266 0.34157 0.69231 0.0
C293 C 0.06239 0.34541 0.72348 0.0
C294 C 0.06914 0.36593 0.71647 0.0
C295 C 0.0631 0.37364 0.69668 0.0
C296 C 0.05026 0.36121 0.68485 0.0
C297 C 0.04922 0.33367 0.71134 0.0
H298 H 0.04639 0.368 0.66986 0.0
H299 H 0.04417 0.31841 0.71794 0.0
H300 H 0.99437 0.28468 0.68506 0.0
H301 H 0.99883 0.3329 0.63558 0.0
C302 C 0.02416 0.3632 0.63868 0.0
C303 C 0.98412 0.35683 0.70743 0.0
C304 C 0.05992 0.29623 0.64791 0.0
C305 C 0.01741 0.28864 0.71543 0.0
H306 H 0.97698 0.39564 0.68322 0.0
H307 H 0.99804 0.39883 0.64544 0.0
H308 H 0.05277 0.35567 0.60301 0.0
H309 H 0.07128 0.31887 0.60763 0.0
H310 H 0.06972 0.25938 0.67379 0.0
H311 H 0.0462 0.25468 0.71026 0.0
H312 H 0.98715 0.29541 0.75018 0.0
H313 H 0.96913 0.33273 0.74555 0.0
H314 H 0.97115 0.2641 0.66555 0.0
H315 H 0.97566 0.31311 0.61542 0.0
H316 H 0.06663 0.33866 0.73867 0.0
H317 H 0.06828 0.38926 0.69029 0.0
C318 C 0.69275 0.04311 0.68102 0.0
C319 C 0.68462 0.05268 0.66317 0.0
C320 C 0.66493 0.04393 0.66192 0.0
C321 C 0.66215 0.02968 0.67907 0.0
N322 N 0.67878 0.02893 0.69134 0.0
Co323 Co 0.68141 0.01051 0.71785 0.0
N324 N 0.65368 0.9957 0.71443 0.0
C325 C 0.64095 0.99889 0.69832 0.0
C326 C 0.62341 0.98578 0.69981 0.0
C327 C 0.62495 0.97349 0.71799 0.0
C328 C 0.64333 0.98 0.7267 0.0
N329 N 0.68371 0.99255 0.74473 0.0
C330 C 0.67005 0.97779 0.75464 0.0
C331 C 0.67722 0.96989 0.77369 0.0
C332 C 0.69613 0.9799 0.77584 0.0
C333 C 0.69936 0.99341 0.75816 0.0
N334 N 0.70956 0.02482 0.72073 0.0
C335 C 0.72277 0.02107 0.73633 0.0
C336 C 0.74151 0.0324 0.73337 0.0
C337 C 0.74039 0.04385 0.71457 0.0
C338 C 0.7209 0.03888 0.70719 0.0
N339 N 0.66652 0.03207 0.73485 0.0
C340 C 0.64407 0.06056 0.7605 0.0
C341 C 0.66422 0.05396 0.76518 0.0
C342 C 0.67508 0.03982 0.75224 0.0
C343 C 0.63556 0.05314 0.74249 0.0
C344 C 0.64699 0.0391 0.72996 0.0
N345 N 0.69624 0.98895 0.70099 0.0
C346 C 0.72437 0.96377 0.69653 0.0
C347 C 0.71873 0.96 0.67613 0.0
C348 C 0.7013 0.97045 0.66858 0.0
C349 C 0.69029 0.98468 0.68123 0.0
C350 C 0.71302 0.97826 0.70859 0.0
H351 H 0.6772 0.99224 0.67457 0.0
H352 H 0.71835 0.98081 0.72385 0.0
H353 H 0.69025 0.03525 0.75684 0.0
H354 H 0.63958 0.03408 0.7165 0.0
C355 C 0.64528 0.01511 0.68264 0.0
C356 C 0.7142 0.04727 0.68688 0.0
C357 C 0.64996 0.97112 0.74689 0.0
C358 C 0.7172 0.0066 0.7534 0.0
H359 H 0.69237 0.06435 0.6519 0.0
H360 H 0.65428 0.04699 0.64954 0.0
H361 H 0.61084 0.9854 0.6891 0.0
H362 H 0.61366 0.96125 0.72425 0.0
H363 H 0.66955 0.95819 0.78497 0.0
H364 H 0.70632 0.97762 0.78876 0.0
H365 H 0.75459 0.03209 0.74348 0.0
H366 H 0.75267 0.05441 0.70698 0.0
H367 H 0.67143 0.05932 0.77902 0.0
H368 H 0.62015 0.05823 0.73798 0.0
H369 H 0.73792 0.95611 0.70291 0.0
H370 H 0.69625 0.96776 0.65291 0.0
C371 C 0.98739 0.66136 0.72634 0.0
C372 C 0.97566 0.67044 0.74293 0.0
C373 C 0.98239 0.69113 0.74282 0.0
C374 C 0.99768 0.69355 0.72616 0.0
N375 N 1.00101 0.6757 0.71579 0.0
Co376 Co 0.02096 0.67255 0.69031 0.0
N377 N 0.03705 0.69869 0.69576 0.0
C378 C 0.03052 0.7136 0.70919 0.0
C379 C 0.04523 0.72956 0.7103 0.0
C380 C 0.06192 0.72465 0.69641 0.0
C381 C 0.0563 0.70605 0.6873 0.0
N382 N 0.04078 0.66943 0.66462 0.0
C383 C 0.05928 0.6798 0.65812 0.0
C384 C 0.06716 0.67341 0.6383 0.0
C385 C 0.05307 0.65878 0.6322 0.0
C386 C 0.03736 0.65705 0.64844 0.0
N387 N 0.00478 0.64641 0.68501 0.0
C388 C 0.00553 0.63638 0.66669 0.0
C389 C 0.9938 0.61788 0.66824 0.0
C390 C 0.98499 0.61622 0.68878 0.0
C391 C 0.99157 0.63409 0.69856 0.0
N392 N 1.00209 0.68956 0.67289 0.0
C393 C 0.97531 0.714 0.64781 0.0
C394 C 0.96698 0.69806 0.66259 0.0
C395 C 0.98057 0.68604 0.67487 0.0
C396 C 0.99739 0.7174 0.64603 0.0
C397 C 0.01038 0.70513 0.65863 0.0
N398 N 0.03982 0.65559 0.70772 0.0
C399 C 0.06118 0.62461 0.71302 0.0
C400 C 0.06645 0.63109 0.73293 0.0
C401 C 0.05801 0.6502 0.73983 0.0
C402 C 0.04476 0.66209 0.72711 0.0
C403 C 0.04799 0.63704 0.70071 0.0
H404 H 0.03842 0.67655 0.73307 0.0
H405 H 0.0444 0.6316 0.68548 0.0
H406 H 0.97361 0.67385 0.68595 0.0
H407 H 0.02719 0.70839 0.65676 0.0
C408 C 0.01168 0.71083 0.72224 0.0
C409 C 0.98424 0.63954 0.72025 0.0
C410 C 0.06822 0.69772 0.66868 0.0
C411 C 0.0205 0.64244 0.65002 0.0
H412 H 0.96347 0.66296 0.75393 0.0
H413 H 0.97733 0.70275 0.75406 0.0
H414 H 0.04412 0.74297 0.72027 0.0
H415 H 0.07631 0.73408 0.69286 0.0
H416 H 0.08124 0.67912 0.62878 0.0
H417 H 0.05423 0.6503 0.6177 0.0
H418 H 0.99275 0.60636 0.65626 0.0
H419 H 0.97511 0.60315 0.69566 0.0
H420 H 0.95008 0.69461 0.66448 0.0
H421 H 0.00468 0.7297 0.63517 0.0
H422 H 0.06744 0.61014 0.70679 0.0
H423 H 0.0613 0.65584 0.75516 0.0
C424 C 0.38683 0.34198 0.03071 0.0
C425 C 0.40513 0.35202 0.03623 0.0
C426 C 0.40525 0.37208 0.02715 0.0
C427 C 0.3871 0.37319 0.01662 0.0
N428 N 0.37533 0.35508 0.01842 0.0
Co429 Co 0.34797 0.34997 0.00501 0.0
N430 N 0.34741 0.37999 0.99288 0.0
C431 C 0.36134 0.39568 0.99618 0.0
C432 C 0.35617 0.41506 0.98755 0.0
C433 C 0.3378 0.41161 0.97816 0.0
C434 C 0.33293 0.39012 0.98125 0.0
N435 N 0.32117 0.34458 0.99071 0.0
C436 C 0.31011 0.35745 0.97773 0.0
C437 C 0.29362 0.34643 0.96966 0.0
C438 C 0.29388 0.32619 0.97822 0.0
C439 C 0.31064 0.3258 0.99072 0.0
N440 N 0.34794 0.32025 0.01805 0.0
C441 C 0.33299 0.30503 0.01645 0.0
C442 C 0.33659 0.28648 0.02772 0.0
C443 C 0.35483 0.29009 0.0373 0.0
C444 C 0.36137 0.31073 0.03129 0.0
N445 N 0.33128 0.35866 0.03083 0.0
C446 C 0.30593 0.37339 0.06523 0.0
C447 C 0.29895 0.35662 0.05395 0.0
C448 C 0.3119 0.34939 0.03706 0.0
C449 C 0.32617 0.38201 0.05976 0.0
C450 C 0.33848 0.37451 0.04257 0.0
N451 N 0.36461 0.34132 0.97911 0.0
C452 C 0.37218 0.31564 0.95275 0.0
C453 C 0.38785 0.32891 0.94217 0.0
C454 C 0.39171 0.34856 0.95033 0.0
C455 C 0.37993 0.35444 0.96867 0.0
C456 C 0.3609 0.32207 0.97103 0.0
H457 H 0.38356 0.36963 0.97411 0.0
H458 H 0.34941 0.31106 0.9784 0.0
H459 H 0.30568 0.33658 0.02905 0.0
H460 H 0.35351 0.38215 0.0388 0.0
C461 C 0.37959 0.39155 0.00671 0.0
C462 C 0.38068 0.32034 0.0383 0.0
C463 C 0.3145 0.38012 0.97268 0.0
C464 C 0.31641 0.30829 0.0033 0.0
H465 H 0.41698 0.34565 0.04618 0.0
H466 H 0.41686 0.38456 0.02858 0.0
H467 H 0.36475 0.42994 0.98801 0.0
H468 H 0.32905 0.42366 0.96997 0.0
H469 H 0.28249 0.35229 0.95868 0.0
H470 H 0.28309 0.31329 0.97565 0.0
H471 H 0.32718 0.27198 0.02867 0.0
H472 H 0.36255 0.27876 0.04744 0.0
H473 H 0.28341 0.34937 0.05791 0.0
H474 H 0.3321 0.39515 0.06807 0.0
H475 H 0.36895 0.30004 0.94729 0.0
H476 H 0.40372 0.35936 0.94261 0.0
C477 C 0.68382 0.31279 0.0518 0.0
C478 C 0.69131 0.29299 0.0578 0.0
C479 C 0.71022 0.29071 0.04627 0.0
C480 C 0.71318 0.30911 0.03389 0.0
N481 N 0.69737 0.3231 0.03687 0.0
Co482 Co 0.69534 0.35175 0.02198 0.0
N483 N 0.72178 0.34719 0.00315 0.0
C484 C 0.73348 0.32944 0.00264 0.0
C485 C 0.74976 0.33021 0.98699 0.0
C486 C 0.7485 0.34968 0.97689 0.0
C487 C 0.73164 0.35987 0.98728 0.0
N488 N 0.69379 0.38076 0.00768 0.0
C489 C 0.70733 0.391 0.99265 0.0
C490 C 0.70131 0.4118 0.98869 0.0
C491 C 0.6832 0.41469 1.00133 0.0
C492 C 0.67931 0.39571 0.01249 0.0
N493 N 0.6683 0.35588 0.04013 0.0
C494 C 0.65588 0.37314 0.03989 0.0
C495 C 0.63785 0.37104 0.05341 0.0
C496 C 0.63857 0.3511 0.06262 0.0
C497 C 0.65708 0.34216 0.05411 0.0
N498 N 0.71244 0.3641 0.04354 0.0
C499 C 0.73844 0.38551 0.06996 0.0
C500 C 0.71761 0.3917 0.06773 0.0
C501 C 0.70499 0.38082 0.05469 0.0
C502 C 0.74567 0.36756 0.05985 0.0
C503 C 0.73245 0.35711 0.04681 0.0
N504 N 0.67832 0.33962 1.0004 0.0
C505 C 0.6489 0.34215 0.97823 0.0
C506 C 0.65311 0.32217 0.9707 0.0
C507 C 0.67039 0.31119 0.97799 0.0
C508 C 0.68268 0.32013 0.99279 0.0
C509 C 0.66162 0.35052 0.9929 0.0
H510 H 0.69547 0.31091 0.998 0.0
H511 H 0.65754 0.3658 0.99803 0.0
H512 H 0.68942 0.38662 0.05361 0.0
H513 H 0.73896 0.34376 0.03919 0.0
C514 C 0.7292 0.31259 0.01757 0.0
C515 C 0.66323 0.32057 0.05979 0.0
C516 C 0.72612 0.38178 0.98193 0.0
C517 C 0.6619 0.39127 0.02714 0.0
H518 H 0.68365 0.2811 0.06888 0.0
H519 H 0.72016 0.27691 0.04624 0.0
H520 H 0.76125 0.31811 0.98341 0.0
H521 H 0.75899 0.35571 0.9635 0.0
H522 H 0.70921 0.4238 0.97792 0.0
H523 H 0.67401 0.42897 1.00234 0.0
H524 H 0.62562 0.38261 0.0562 0.0
H525 H 0.62676 0.34391 0.07425 0.0
H526 H 0.71111 0.40515 0.07581 0.0
H527 H 0.76168 0.36206 0.06132 0.0
H528 H 0.63587 0.35138 0.97278 0.0
H529 H 0.67413 0.29556 0.97271 0.0
C530 C 0.72364 0.69333 0.05244 0.0
C531 C 0.74151 0.70361 0.05865 0.0
C532 C 0.74137 0.72386 0.04971 0.0
C533 C 0.72354 0.72474 0.03856 0.0
N534 N 0.71249 0.70634 0.04003 0.0
Co535 Co 0.68635 0.69998 0.02605 0.0
N536 N 0.69193 0.7242 0.00507 0.0
C537 C 0.70566 0.74045 0.00666 0.0
C538 C 0.70659 0.75461 0.98938 0.0
C539 C 0.69231 0.747 0.97629 0.0
C540 C 0.68321 0.72867 0.98649 0.0
N541 N 0.66008 0.69353 0.01223 0.0
C542 C 0.65356 0.70097 0.99335 0.0
C543 C 0.63347 0.69293 0.99035 0.0
C544 C 0.62717 0.68033 0.00808 0.0
C545 C 0.64363 0.68133 0.02093 0.0
N546 N 0.6809 0.67592 0.04714 0.0
C547 C 0.6622 0.66593 0.05255 0.0
C548 C 0.66377 0.64952 0.06748 0.0
C549 C 0.6848 0.64924 0.07159 0.0
C550 C 0.69481 0.66553 0.05886 0.0
N551 N 0.67003 0.71869 0.04545 0.0
C552 C 0.64577 0.74456 0.07345 0.0
C553 C 0.66079 0.73034 0.08095 0.0
C554 C 0.67266 0.71768 0.06682 0.0
C555 C 0.6435 0.74553 0.05142 0.0
C556 C 0.65565 0.73261 0.03783 0.0
N557 N 0.70268 0.68116 0.0068 0.0
C558 C 0.70734 0.64699 0.9915 0.0
C559 C 0.72698 0.65343 0.98098 0.0
C560 C 0.73397 0.67426 0.98358 0.0
C561 C 0.72177 0.68771 0.9966 0.0
C562 C 0.69543 0.66105 0.00406 0.0
H563 H 0.72798 0.70338 0.9986 0.0
H564 H 0.68038 0.65551 0.01174 0.0
H565 H 0.68388 0.70688 0.0733 0.0
H566 H 0.65329 0.73391 0.02111 0.0
C567 C 0.71941 0.74037 0.02302 0.0
C568 C 0.71723 0.67148 0.05873 0.0
C569 C 0.66438 0.71791 0.97955 0.0
C570 C 0.6451 0.66942 0.04009 0.0
H571 H 0.75352 0.6971 0.06829 0.0
H572 H 0.75353 0.73602 0.05018 0.0
H573 H 0.71676 0.76853 0.98641 0.0
H574 H 0.68852 0.75446 0.96126 0.0
H575 H 0.62399 0.69632 0.97708 0.0
H576 H 0.61242 0.6714 0.01114 0.0
H577 H 0.65141 0.63834 0.07372 0.0
H578 H 0.69197 0.63824 0.08252 0.0
H579 H 0.66317 0.72861 0.09775 0.0
H580 H 0.63253 0.7564 0.04452 0.0
H581 H 0.70102 0.6312 0.98989 0.0
H582 H 0.74907 0.68004 0.97601 0.0
C583 C 0.38502 0.69135 1.00009 0.0
C584 C 0.40365 0.68117 0.99387 0.0
C585 C 0.40513 0.66417 0.00784 0.0
C586 C 0.38734 0.66484 0.02164 0.0
N587 N 0.37446 0.68115 0.01726 0.0
Co588 Co 0.34684 0.68783 0.03313 0.0
N589 N 0.34891 0.66254 0.05339 0.0
C590 C 0.36499 0.64866 0.0539 0.0
C591 C 0.36171 0.63268 0.06936 0.0
C592 C 0.34216 0.6363 0.07909 0.0
C593 C 0.33461 0.65431 0.06884 0.0
N594 N 0.31922 0.69449 0.0491 0.0
C595 C 0.30765 0.68306 0.06485 0.0
C596 C 0.28878 0.69291 0.07082 0.0
C597 C 0.28834 0.71113 0.05833 0.0
C598 C 0.30683 0.71134 0.04543 0.0
N599 N 0.34463 0.713 0.0127 0.0
C600 C 0.32891 0.72733 0.01285 0.0
C601 C 0.33191 0.74314 0.9972 0.0
C602 C 0.35071 0.73873 0.98638 0.0
C603 C 0.35807 0.72029 0.99604 0.0
N604 N 0.33121 0.67001 0.01399 0.0
C605 C 0.30878 0.64462 0.98707 0.0
C606 C 0.30225 0.66509 0.99148 0.0
C607 C 0.31345 0.6773 0.00496 0.0
C608 C 0.3268 0.63713 0.99644 0.0
C609 C 0.33775 0.65 0.00957 0.0
N610 N 0.36258 0.7058 0.05232 0.0
C611 C 0.36824 0.73943 0.06824 0.0
C612 C 0.3857 0.73169 0.07833 0.0
C613 C 0.39125 0.71068 0.0753 0.0
C614 C 0.37978 0.69824 0.0622 0.0
C615 C 0.35688 0.72631 0.05569 0.0
H616 H 0.38532 0.68262 0.06021 0.0
H617 H 0.34357 0.73321 0.04886 0.0
H618 H 0.30737 0.6926 0.00797 0.0
H619 H 0.35149 0.64342 0.016 0.0
C620 C 0.38232 0.65035 0.03878 0.0
C621 C 0.37828 0.71081 0.98933 0.0
C622 C 0.31336 0.66232 0.07365 0.0
C623 C 0.31191 0.72593 0.0284 0.0
H624 H 0.41507 0.68562 0.98065 0.0
H625 H 0.41769 0.65271 0.00794 0.0
H626 H 0.37202 0.6196 0.07274 0.0
H627 H 0.33413 0.62651 0.09192 0.0
H628 H 0.27629 0.68725 0.08253 0.0
H629 H 0.27564 0.72244 0.05807 0.0
H630 H 0.32182 0.7565 0.99425 0.0
H631 H 0.35825 0.74826 0.9731 0.0
H632 H 0.28825 0.67158 0.98487 0.0
H633 H 0.33268 0.62148 0.99341 0.0
H634 H 0.36313 0.75553 0.07026 0.0
H635 H 0.40475 0.70396 0.08264 0.0
C636 C 0.81801 0.47403 0.85552 0.0
C637 C 0.79937 0.46758 0.84727 0.0
C638 C 0.79788 0.47935 0.82874 0.0
C639 C 0.81567 0.49214 0.82667 0.0
N640 N 0.82872 0.48896 0.84249 0.0
Co641 Co 0.85602 0.50455 0.84591 0.0
N642 N 0.85311 0.52284 0.81939 0.0
C643 C 0.83731 0.52191 0.80616 0.0
C644 C 0.83946 0.53647 0.78927 0.0
C645 C 0.85794 0.54716 0.7916 0.0
C646 C 0.86615 0.5383 0.80977 0.0
N647 N 0.88301 0.52059 0.84969 0.0
C648 C 0.89345 0.53605 0.83709 0.0
C649 C 0.91232 0.54201 0.84527 0.0
C650 C 0.9137 0.53015 0.86373 0.0
C651 C 0.89583 0.51752 0.86572 0.0
N652 N 0.8592 0.48585 0.87213 0.0
C653 C 0.87563 0.48596 0.88463 0.0
C654 C 0.87297 0.47226 0.90218 0.0
C655 C 0.85358 0.46292 0.90098 0.0
C656 C 0.84553 0.47134 0.88253 0.0
N657 N 0.87249 0.48367 0.8282 0.0
C658 C 0.89651 0.45528 0.802 0.0
C659 C 0.90457 0.46362 0.82003 0.0
C660 C 0.89244 0.4774 0.83278 0.0
C661 C 0.87592 0.46145 0.79771 0.0
C662 C 0.86447 0.47552 0.81068 0.0
N663 N 0.83958 0.52538 0.86353 0.0
C664 C 0.83297 0.54348 0.89652 0.0
C665 C 0.81539 0.55396 0.889 0.0
C666 C 0.81033 0.54986 0.86835 0.0
C667 C 0.82234 0.53559 0.85614 0.0
C668 C 0.84481 0.52961 0.88363 0.0
H669 H 0.81723 0.53293 0.84077 0.0
H670 H 0.85815 0.52243 0.89031 0.0
H671 H 0.89969 0.48291 0.8462 0.0
H672 H 0.84911 0.47961 0.80608 0.0
C673 C 0.82042 0.50749 0.81028 0.0
C674 C 0.82441 0.46605 0.87616 0.0
C675 C 0.88664 0.54476 0.81685 0.0
C676 C 0.89186 0.50112 0.88115 0.0
H677 H 0.78785 0.45583 0.85412 0.0
H678 H 0.78517 0.47888 0.81822 0.0
H679 H 0.82885 0.53901 0.77675 0.0
H680 H 0.86469 0.55993 0.781 0.0
H681 H 0.92429 0.55327 0.83842 0.0
H682 H 0.92664 0.53012 0.87401 0.0
H683 H 0.88338 0.47016 0.91493 0.0
H684 H 0.84606 0.4518 0.91291 0.0
H685 H 0.9204 0.45992 0.82429 0.0
H686 H 0.86833 0.45538 0.78444 0.0
H687 H 0.83783 0.54618 0.91225 0.0
H688 H 0.79681 0.5573 0.86172 0.0
C689 C 0.47751 0.82033 0.89275 0.0
C690 C 0.46798 0.82729 0.91165 0.0
C691 C 0.47736 0.84628 0.91485 0.0
C692 C 0.49184 0.84993 0.8977 0.0
N693 N 0.49218 0.8345 0.88361 0.0
Co694 Co 0.51012 0.8339 0.856 0.0
N695 N 0.52546 0.86072 0.86183 0.0
C696 C 0.52289 0.87182 0.87958 0.0
C697 C 0.53635 0.88898 0.8795 0.0
C698 C 0.54825 0.88891 0.86054 0.0
C699 C 0.54116 0.87174 0.85001 0.0
N700 N 0.52753 0.83378 0.828 0.0
C701 C 0.54227 0.84794 0.8189 0.0
C702 C 0.54963 0.84247 0.79864 0.0
C703 C 0.53932 0.82412 0.79488 0.0
C704 C 0.52617 0.81954 0.81287 0.0
N705 N 0.49535 0.80658 0.85066 0.0
C706 C 0.49884 0.79476 0.83352 0.0
C707 C 0.48743 0.7761 0.83494 0.0
C708 C 0.47615 0.7758 0.85428 0.0
C709 C 0.48123 0.79448 0.8635 0.0
N710 N 0.48827 0.85041 0.84179 0.0
C711 C 0.45917 0.87515 0.82025 0.0
C712 C 0.46547 0.85556 0.813 0.0
C713 C 0.47988 0.84353 0.82394 0.0
C714 C 0.46722 0.88188 0.83878 0.0
C715 C 0.48159 0.86937 0.84922 0.0
N716 N 0.532 0.81748 0.87012 0.0
C717 C 0.55901 0.79076 0.86941 0.0
C718 C 0.56389 0.7951 0.88996 0.0
C719 C 0.55224 0.81054 0.90052 0.0
C720 C 0.53659 0.82149 0.89037 0.0
C721 C 0.54306 0.802 0.85989 0.0
H722 H 0.52843 0.83314 0.89927 0.0
H723 H 0.54005 0.79795 0.84422 0.0
H724 H 0.48421 0.82889 0.81743 0.0
H725 H 0.4872 0.87553 0.86312 0.0
C726 C 0.50678 0.86651 0.89545 0.0
C727 C 0.47281 0.79972 0.88472 0.0
C728 C 0.54953 0.86689 0.82865 0.0
C729 C 0.51298 0.80161 0.81636 0.0
H730 H 0.45586 0.81924 0.9223 0.0
H731 H 0.47444 0.85595 0.92839 0.0
H732 H 0.53719 0.90037 0.89163 0.0
H733 H 0.56061 0.90037 0.85502 0.0
H734 H 0.5612 0.85087 0.78764 0.0
H735 H 0.5412 0.81517 0.78072 0.0
H736 H 0.48753 0.76401 0.82342 0.0
H737 H 0.46562 0.7631 0.86092 0.0
H738 H 0.45977 0.84973 0.79861 0.0
H739 H 0.46249 0.89678 0.84526 0.0
H740 H 0.56764 0.779 0.86052 0.0
H741 H 0.555 0.81413 0.91667 0.0
C742 C 0.1522 0.53363 0.8451 0.0
C743 C 0.13286 0.53964 0.85468 0.0
C744 C 0.12991 0.52818 0.87364 0.0
C745 C 0.14759 0.51595 0.87462 0.0
N746 N 0.16181 0.51905 0.85756 0.0
Co747 Co 0.18942 0.50399 0.85248 0.0
N748 N 0.18385 0.4852 0.87912 0.0
C749 C 0.16614 0.48496 0.89264 0.0
C750 C 0.16718 0.47159 0.91028 0.0
C751 C 0.18679 0.46286 0.90806 0.0
C752 C 0.19666 0.47125 0.88895 0.0
N753 N 0.2173 0.48939 0.84772 0.0
C754 C 0.22692 0.47483 0.86023 0.0
C755 C 0.24644 0.46913 0.85072 0.0
C756 C 0.24965 0.48102 0.83207 0.0
C757 C 0.23191 0.49314 0.83107 0.0
N758 N 0.1947 0.52237 0.82554 0.0
C759 C 0.21188 0.52194 0.81139 0.0
C760 C 0.21066 0.53531 0.79375 0.0
C761 C 0.19136 0.54462 0.79656 0.0
C762 C 0.1819 0.53641 0.81588 0.0
N763 N 0.20393 0.52532 0.86905 0.0
C764 C 0.22655 0.55254 0.89413 0.0
C765 C 0.23358 0.54936 0.87296 0.0
C766 C 0.22221 0.53575 0.86086 0.0
C767 C 0.2076 0.54236 0.90221 0.0
C768 C 0.19657 0.52917 0.8895 0.0
N769 N 0.17489 0.48265 0.83589 0.0
C770 C 0.17407 0.46132 0.80501 0.0
C771 C 0.15285 0.45537 0.81039 0.0
C772 C 0.14309 0.46283 0.82914 0.0
C773 C 0.15435 0.47606 0.84165 0.0
C774 C 0.18464 0.47493 0.81775 0.0
H775 H 0.14597 0.48094 0.85582 0.0
H776 H 0.20059 0.47923 0.81238 0.0
H777 H 0.22872 0.53364 0.84503 0.0
H778 H 0.18224 0.52206 0.89672 0.0
C779 C 0.15018 0.49971 0.89 0.0
C780 C 0.16033 0.54168 0.82383 0.0
C781 C 0.21857 0.46638 0.88139 0.0
C782 C 0.22855 0.50824 0.8148 0.0
H783 H 0.12179 0.55077 0.84836 0.0
H784 H 0.11613 0.52815 0.88497 0.0
H785 H 0.15555 0.46936 0.92377 0.0
H786 H 0.19324 0.45221 0.91975 0.0
H787 H 0.2574 0.45772 0.85675 0.0
H788 H 0.26338 0.48102 0.82069 0.0
H789 H 0.22219 0.53761 0.78019 0.0
H790 H 0.18479 0.5558 0.78539 0.0
H791 H 0.24816 0.55684 0.8659 0.0
H792 H 0.20119 0.54461 0.91834 0.0
H793 H 0.18238 0.45601 0.79064 0.0
H794 H 0.1268 0.45838 0.83426 0.0
C795 C 0.48669 0.24145 0.82947 0.0
C796 C 0.48449 0.25814 0.8147 0.0
C797 C 0.50023 0.2562 0.79888 0.0
C798 C 0.51108 0.23857 0.80499 0.0
N799 N 0.50298 0.22885 0.8235 0.0
Co800 Co 0.51486 0.20393 0.83928 0.0
N801 N 0.53901 0.20206 0.81697 0.0
C802 C 0.54198 0.21376 0.79838 0.0
C803 C 0.55934 0.20808 0.78571 0.0
C804 C 0.56781 0.19155 0.79671 0.0
C805 C 0.55513 0.18819 0.81561 0.0
N806 N 0.52747 0.17997 0.85582 0.0
C807 C 0.5453 0.16896 0.85126 0.0
C808 C 0.5489 0.15406 0.86746 0.0
C809 C 0.5325 0.15549 0.88271 0.0
C810 C 0.52 0.17121 0.87502 0.0
N811 N 0.4901 0.20502 0.86094 0.0
C812 C 0.48531 0.1913 0.87785 0.0
C813 C 0.46702 0.19605 0.88965 0.0
C814 C 0.45983 0.21398 0.8798 0.0
C815 C 0.47427 0.21915 0.86253 0.0
N816 N 0.49826 0.18382 0.82363 0.0
C817 C 0.47356 0.15565 0.80234 0.0
C818 C 0.47968 0.15024 0.82261 0.0
C819 C 0.49176 0.16448 0.83294 0.0
C820 C 0.48018 0.17522 0.79268 0.0
C821 C 0.49267 0.18886 0.80342 0.0
N822 N 0.53135 0.22385 0.85497 0.0
C823 C 0.54141 0.23632 0.8883 0.0
C824 C 0.55628 0.25043 0.87765 0.0
C825 C 0.55813 0.25143 0.85543 0.0
C826 C 0.54543 0.23821 0.84446 0.0
C827 C 0.52924 0.22326 0.87675 0.0
H828 H 0.54737 0.23976 0.82749 0.0
H829 H 0.51843 0.2126 0.88584 0.0
H830 H 0.49544 0.15942 0.84853 0.0
H831 H 0.49755 0.20336 0.795 0.0
C832 C 0.52884 0.23064 0.79375 0.0
C833 C 0.47338 0.23856 0.84923 0.0
C834 C 0.55842 0.17102 0.83127 0.0
C835 C 0.49999 0.17637 0.88412 0.0
H836 H 0.47285 0.27054 0.81547 0.0
H837 H 0.50355 0.26657 0.78478 0.0
H838 H 0.56514 0.21512 0.77031 0.0
H839 H 0.58164 0.18285 0.79127 0.0
H840 H 0.56172 0.14291 0.86788 0.0
H841 H 0.52963 0.1457 0.89726 0.0
H842 H 0.46034 0.18811 0.90433 0.0
H843 H 0.44601 0.22273 0.88518 0.0
H844 H 0.47475 0.13524 0.83069 0.0
H845 H 0.47593 0.17986 0.77681 0.0
H846 H 0.53956 0.23489 0.90553 0.0
H847 H 0.56927 0.26239 0.84656 0.0
C848 C 0.84422 0.48762 0.14756 0.0
C849 C 0.85573 0.48013 0.12996 0.0
C850 C 0.87332 0.4929 0.12615 0.0
C851 C 0.87156 0.50733 0.14161 0.0
N852 N 0.854 0.50447 0.15521 0.0
Co853 Co 0.84515 0.5218 0.18001 0.0
N854 N 0.8703 0.5415 0.17352 0.0
C855 C 0.88545 0.54066 0.15719 0.0
C856 C 0.90105 0.55588 0.15716 0.0
C857 C 0.89567 0.56712 0.17454 0.0
C858 C 0.87688 0.55814 0.18417 0.0
N859 N 0.83644 0.53895 0.20499 0.0
C860 C 0.84615 0.55592 0.21255 0.0
C861 C 0.83466 0.56326 0.23026 0.0
C862 C 0.81732 0.55018 0.23434 0.0
C863 C 0.81912 0.53575 0.2189 0.0
N864 N 0.81983 0.50227 0.18632 0.0
C865 C 0.80444 0.50325 0.2024 0.0
C866 C 0.78885 0.48798 0.20229 0.0
C867 C 0.79446 0.47668 0.18498 0.0
C868 C 0.81325 0.48573 0.17554 0.0
N869 N 0.86194 0.50349 0.19856 0.0
C870 C 0.8859 0.47829 0.22541 0.0
C871 C 0.86472 0.48248 0.23127 0.0
C872 C 0.85317 0.49513 0.21778 0.0
C873 C 0.89494 0.48681 0.2059 0.0
C874 C 0.88272 0.49916 0.19275 0.0
N875 N 0.82838 0.5402 0.16155 0.0
C876 C 0.79707 0.56077 0.15679 0.0
C877 C 0.80563 0.56884 0.13693 0.0
C878 C 0.82538 0.56168 0.12914 0.0
C879 C 0.83642 0.54743 0.14165 0.0
C880 C 0.80856 0.54652 0.16867 0.0
H881 H 0.85152 0.54273 0.135 0.0
H882 H 0.80112 0.54103 0.18364 0.0
H883 H 0.83723 0.498 0.22336 0.0
H884 H 0.89045 0.50504 0.17801 0.0
C885 C 0.88545 0.52444 0.14303 0.0
C886 C 0.8237 0.47869 0.15584 0.0
C887 C 0.86647 0.56527 0.20395 0.0
C888 C 0.80482 0.51901 0.21707 0.0
H889 H 0.85161 0.46701 0.12063 0.0
H890 H 0.88568 0.49207 0.11335 0.0
H891 H 0.91503 0.55814 0.14617 0.0
H892 H 0.90492 0.58011 0.17971 0.0
H893 H 0.83853 0.57659 0.23941 0.0
H894 H 0.80495 0.55101 0.24713 0.0
H895 H 0.7749 0.48558 0.21329 0.0
H896 H 0.78555 0.46347 0.1797 0.0
H897 H 0.85717 0.47632 0.24639 0.0
H898 H 0.91129 0.48372 0.20066 0.0
H899 H 0.78154 0.56547 0.16321 0.0
H900 H 0.83256 0.56748 0.11374 0.0
C901 C 0.552 0.85698 0.16832 0.0
C902 C 0.56034 0.86706 0.14939 0.0
C903 C 0.55102 0.88637 0.14794 0.0
C904 C 0.53764 0.8871 0.16605 0.0
N905 N 0.53804 0.86955 0.17917 0.0
Co906 Co 0.52042 0.8641 0.20689 0.0
N907 N 0.50452 0.89128 0.20329 0.0
C908 C 0.50709 0.90546 0.18645 0.0
C909 C 0.49418 0.92261 0.18815 0.0
C910 C 0.4828 0.91938 0.20736 0.0
C911 C 0.48959 0.90044 0.21646 0.0
N912 N 0.50294 0.85878 0.23476 0.0
C913 C 0.4885 0.87113 0.24532 0.0
C914 C 0.48141 0.86173 0.26501 0.0
C915 C 0.4916 0.84293 0.26699 0.0
C916 C 0.50444 0.84189 0.24857 0.0
N917 N 0.53606 0.8367 0.21024 0.0
C918 C 0.53322 0.82229 0.22686 0.0
C919 C 0.54491 0.80439 0.22435 0.0
C920 C 0.55566 0.80731 0.20479 0.0
C921 C 0.55001 0.827 0.19645 0.0
N922 N 0.54222 0.87935 0.2223 0.0
C923 C 0.57038 0.90211 0.24657 0.0
C924 C 0.5648 0.88081 0.25172 0.0
C925 C 0.55083 0.86996 0.23966 0.0
C926 C 0.56198 0.91148 0.22846 0.0
C927 C 0.54835 0.89991 0.21659 0.0
N928 N 0.49874 0.84882 0.19156 0.0
C929 C 0.47776 0.81707 0.18725 0.0
C930 C 0.47173 0.82476 0.16737 0.0
C931 C 0.47895 0.84524 0.1604 0.0
C932 C 0.49236 0.85677 0.1725 0.0
C933 C 0.49082 0.82931 0.19903 0.0
H934 H 0.49762 0.87199 0.16594 0.0
H935 H 0.49466 0.82244 0.214 0.0
H936 H 0.54712 0.85398 0.24491 0.0
H937 H 0.54272 0.90811 0.20302 0.0
C938 C 0.52286 0.90291 0.17004 0.0
C939 C 0.55756 0.83531 0.17498 0.0
C940 C 0.48167 0.89219 0.23784 0.0
C941 C 0.51857 0.82562 0.24408 0.0
H942 H 0.57167 0.8609 0.13761 0.0
H943 H 0.55314 0.89815 0.13484 0.0
H944 H 0.49348 0.93612 0.17698 0.0
H945 H 0.47108 0.92998 0.21405 0.0
H946 H 0.47036 0.86796 0.27697 0.0
H947 H 0.49018 0.83157 0.28049 0.0
H948 H 0.54509 0.79055 0.23518 0.0
H949 H 0.56604 0.79595 0.19731 0.0
H950 H 0.57116 0.8723 0.26505 0.0
H951 H 0.56545 0.92788 0.22354 0.0
H952 H 0.47298 0.80139 0.19367 0.0
H953 H 0.47441 0.85253 0.14558 0.0
C954 C 0.19622 0.55338 0.1564 0.0
C955 C 0.18824 0.56087 0.13758 0.0
C956 C 0.16933 0.55058 0.1363 0.0
C957 C 0.16675 0.53756 0.15438 0.0
N958 N 0.18286 0.5389 0.16722 0.0
Co959 Co 0.18529 0.52303 0.19531 0.0
N960 N 0.15721 0.50813 0.19347 0.0
C961 C 0.14402 0.51047 0.17762 0.0
C962 C 0.12617 0.49781 0.18049 0.0
C963 C 0.12798 0.48668 0.19931 0.0
C964 C 0.14688 0.49333 0.20694 0.0
N965 N 0.18778 0.50702 0.22329 0.0
C966 C 0.17453 0.49235 0.23397 0.0
C967 C 0.18224 0.48522 0.25303 0.0
C968 C 0.20114 0.49554 0.25433 0.0
C969 C 0.20385 0.5084 0.23615 0.0
N970 N 0.21327 0.53807 0.19719 0.0
C971 C 0.22638 0.53583 0.21311 0.0
C972 C 0.24456 0.54799 0.2099 0.0
C973 C 0.243 0.55873 0.19081 0.0
C974 C 0.2238 0.55257 0.1835 0.0
N975 N 0.17062 0.54612 0.21018 0.0
C976 C 0.1492 0.57862 0.23132 0.0
C977 C 0.16799 0.57051 0.23846 0.0
C978 C 0.17829 0.55431 0.2278 0.0
C979 C 0.14143 0.57021 0.21337 0.0
C980 C 0.15237 0.5543 0.20306 0.0
N981 N 0.19996 0.49994 0.18045 0.0
C982 C 0.22955 0.47634 0.17607 0.0
C983 C 0.22096 0.46755 0.1587 0.0
C984 C 0.20146 0.47501 0.15275 0.0
C985 C 0.19151 0.49123 0.16353 0.0
C986 C 0.21876 0.49222 0.18676 0.0
H987 H 0.17703 0.49645 0.15777 0.0
H988 H 0.22604 0.4981 0.19996 0.0
H989 H 0.19239 0.54866 0.23416 0.0
H990 H 0.1456 0.5488 0.18946 0.0
C991 C 0.14918 0.52421 0.15987 0.0
C992 C 0.21644 0.56071 0.16334 0.0
C993 C 0.15446 0.48481 0.22685 0.0
C994 C 0.2213 0.52191 0.23073 0.0
H995 H 0.19529 0.57264 0.12599 0.0
H996 H 0.15864 0.5525 0.12377 0.0
H997 H 0.11349 0.49661 0.17 0.0
H998 H 0.11672 0.47483 0.20646 0.0
H999 H 0.17495 0.47376 0.26481 0.0
H1000 H 0.21166 0.49388 0.26704 0.0
H1001 H 0.25747 0.54883 0.22015 0.0
H1002 H 0.25479 0.56977 0.18312 0.0
H1003 H 0.17481 0.57662 0.25218 0.0
H1004 H 0.12668 0.57552 0.20741 0.0
H1005 H 0.24474 0.47136 0.18124 0.0
H1006 H 0.19376 0.46846 0.13976 0.0
C1007 C 0.48505 0.19189 0.21957 0.0
C1008 C 0.47668 0.20091 0.23792 0.0
C1009 C 0.48691 0.21992 0.2388 0.0
C1010 C 0.50097 0.22135 0.22111 0.0
N1011 N 0.50008 0.20462 0.20871 0.0
Co1012 Co 0.51909 0.19938 0.18259 0.0
N1013 N 0.53552 0.22641 0.18506 0.0
C1014 C 0.53166 0.24102 0.19972 0.0
C1015 C 0.54474 0.25853 0.19677 0.0
C1016 C 0.55762 0.25508 0.179 0.0
C1017 C 0.55173 0.23545 0.1722 0.0
N1018 N 0.53851 0.19375 0.1569 0.0
C1019 C 0.55489 0.20553 0.14709 0.0
C1020 C 0.56453 0.19552 0.12991 0.0
C1021 C 0.55362 0.17694 0.12856 0.0
C1022 C 0.5381 0.17657 0.14501 0.0
N1023 N 0.50227 0.17268 0.17978 0.0
C1024 C 0.50473 0.15906 0.16398 0.0
C1025 C 0.49101 0.14197 0.16656 0.0
C1026 C 0.47928 0.14467 0.18528 0.0
C1027 C 0.48665 0.16326 0.1931 0.0
N1028 N 0.49952 0.21521 0.16409 0.0
C1029 C 0.47315 0.23835 0.13691 0.0
C1030 C 0.48303 0.21977 0.13065 0.0
C1031 C 0.4959 0.20857 0.14431 0.0
C1032 C 0.47651 0.24493 0.15725 0.0
C1033 C 0.48964 0.2333 0.1704 0.0
N1034 N 0.53861 0.18353 0.20098 0.0
C1035 C 0.55681 0.1512 0.21029 0.0
C1036 C 0.56471 0.16007 0.22798 0.0
C1037 C 0.55958 0.1811 0.23168 0.0
C1038 C 0.5465 0.19239 0.21821 0.0
C1039 C 0.54412 0.16312 0.19706 0.0
H1040 H 0.54278 0.20819 0.22217 0.0
H1041 H 0.53883 0.15537 0.18379 0.0
H1042 H 0.5028 0.1946 0.13839 0.0
H1043 H 0.49169 0.23939 0.18555 0.0
C1044 C 0.51571 0.23779 0.21614 0.0
C1045 C 0.47909 0.17074 0.21374 0.0
C1046 C 0.56151 0.22646 0.15305 0.0
C1047 C 0.52188 0.16127 0.14862 0.0
H1048 H 0.46479 0.19425 0.24975 0.0
H1049 H 0.48479 0.23109 0.25118 0.0
H1050 H 0.54474 0.2723 0.20626 0.0
H1051 H 0.56976 0.26597 0.17174 0.0
H1052 H 0.57786 0.20125 0.11923 0.0
H1053 H 0.55633 0.16534 0.11667 0.0
H1054 H 0.49031 0.12864 0.15656 0.0
H1055 H 0.46713 0.13385 0.19271 0.0
H1056 H 0.48072 0.21366 0.11528 0.0
H1057 H 0.46942 0.25928 0.16292 0.0
H1058 H 0.56056 0.1351 0.2065 0.0
H1059 H 0.5652 0.18868 0.24523 0.0
C1060 C 0.84176 0.87944 0.49971 0.0
C1061 C 0.85052 0.89906 0.49267 0.0
C1062 C 0.86973 0.90055 0.501 0.0
C1063 C 0.87171 0.88181 0.51251 0.0
N1064 N 0.85493 0.86835 0.51206 0.0
Co1065 Co 0.8516 0.83924 0.52654 0.0
N1066 N 0.87972 0.8417 0.53922 0.0
C1067 C 0.8932 0.85864 0.53706 0.0
C1068 C 0.91108 0.856 0.5478 0.0
C1069 C 0.909 0.83617 0.55739 0.0
C1070 C 0.88994 0.82771 0.55182 0.0
N1071 N 0.84838 0.81003 0.54082 0.0
C1072 C 0.86164 0.79886 0.553 0.0
C1073 C 0.8534 0.77878 0.55903 0.0
C1074 C 0.83424 0.77725 0.55059 0.0
C1075 C 0.83189 0.79632 0.53979 0.0
N1076 N 0.82335 0.8369 0.51405 0.0
C1077 C 0.80953 0.82026 0.51683 0.0
C1078 C 0.79124 0.82326 0.50681 0.0
C1079 C 0.79342 0.84303 0.49708 0.0
C1080 C 0.81305 0.85098 0.50164 0.0
N1081 N 0.86578 0.82708 0.50102 0.0
C1082 C 0.8864 0.80917 0.4654 0.0
C1083 C 0.86705 0.80084 0.47455 0.0
C1084 C 0.85709 0.80998 0.4922 0.0
C1085 C 0.89509 0.82683 0.47411 0.0
C1086 C 0.88459 0.83547 0.49177 0.0
N1087 N 0.83734 0.85146 0.55199 0.0
C1088 C 0.8074 0.85216 0.57816 0.0
C1089 C 0.814 0.87191 0.58427 0.0
C1090 C 0.83318 0.88056 0.57507 0.0
C1091 C 0.8446 0.87006 0.5592 0.0
C1092 C 0.81927 0.84225 0.56211 0.0
H1093 H 0.85893 0.8776 0.55264 0.0
H1094 H 0.81316 0.82749 0.55776 0.0
H1095 H 0.8425 0.80277 0.49853 0.0
H1096 H 0.89208 0.84884 0.49768 0.0
C1097 C 0.88884 0.87663 0.52442 0.0
C1098 C 0.82094 0.87213 0.49409 0.0
C1099 C 0.88228 0.80636 0.559 0.0
C1100 C 0.81432 0.80191 0.52869 0.0
H1101 H 0.8437 0.9111 0.48259 0.0
H1102 H 0.88089 0.91379 0.499 0.0
H1103 H 0.92413 0.86715 0.54851 0.0
H1104 H 0.92029 0.82878 0.56736 0.0
H1105 H 0.86052 0.76643 0.56847 0.0
H1106 H 0.82335 0.7638 0.55209 0.0
H1107 H 0.7779 0.81237 0.50664 0.0
H1108 H 0.7818 0.85075 0.48775 0.0
H1109 H 0.85983 0.78699 0.46849 0.0
H1110 H 0.90995 0.83398 0.46735 0.0
H1111 H 0.79264 0.84484 0.58499 0.0
H1112 H 0.83912 0.89564 0.57976 0.0
C1113 C 0.17879 0.78228 0.55278 0.0
C1114 C 0.18869 0.76356 0.55846 0.0
C1115 C 0.20682 0.76267 0.54538 0.0
C1116 C 0.20718 0.78094 0.53274 0.0
N1117 N 0.1903 0.79344 0.5368 0.0
Co1118 Co 0.18611 0.82268 0.52398 0.0
N1119 N 0.21353 0.82182 0.50574 0.0
C1120 C 0.22658 0.80514 0.50381 0.0
C1121 C 0.2442 0.80917 0.49006 0.0
C1122 C 0.24235 0.82968 0.48276 0.0
C1123 C 0.22359 0.837 0.49252 0.0
N1124 N 0.1825 0.85237 0.51207 0.0
C1125 C 0.19597 0.86501 0.49906 0.0
C1126 C 0.18771 0.88501 0.49555 0.0
C1127 C 0.16846 0.88511 0.50694 0.0
C1128 C 0.16607 0.86528 0.51674 0.0
N1129 N 0.15825 0.82318 0.54149 0.0
C1130 C 0.14367 0.83864 0.54094 0.0
C1131 C 0.12549 0.83407 0.55371 0.0
C1132 C 0.12865 0.81457 0.56308 0.0
C1133 C 0.14883 0.80845 0.55569 0.0
N1134 N 0.20093 0.83446 0.54729 0.0
C1135 C 0.22301 0.85375 0.57827 0.0
C1136 C 0.20209 0.85907 0.57518 0.0
C1137 C 0.19144 0.84935 0.55967 0.0
C1138 C 0.23246 0.83802 0.56621 0.0
C1139 C 0.22114 0.82851 0.55102 0.0
N1140 N 0.17112 0.81092 0.50052 0.0
C1141 C 0.14317 0.81321 0.47644 0.0
C1142 C 0.14867 0.79378 0.46829 0.0
C1143 C 0.16586 0.7832 0.47631 0.0
C1144 C 0.17679 0.792 0.49225 0.0
C1145 C 0.15451 0.82141 0.4923 0.0
H1146 H 0.18969 0.78311 0.49766 0.0
H1147 H 0.14929 0.83619 0.49772 0.0
H1148 H 0.17569 0.85449 0.55767 0.0
H1149 H 0.22915 0.81664 0.54223 0.0
C1150 C 0.22319 0.78685 0.51699 0.0
C1151 C 0.15854 0.7888 0.56305 0.0
C1152 C 0.21654 0.85874 0.4895 0.0
C1153 C 0.1483 0.85801 0.52976 0.0
H1154 H 0.18356 0.75179 0.57091 0.0
H1155 H 0.21852 0.75032 0.54531 0.0
H1156 H 0.25725 0.79871 0.48641 0.0
H1157 H 0.25385 0.83839 0.47193 0.0
H1158 H 0.19485 0.89815 0.48571 0.0
H1159 H 0.15748 0.89808 0.50792 0.0
H1160 H 0.11175 0.84393 0.55626 0.0
H1161 H 0.11743 0.80598 0.57431 0.0
H1162 H 0.19421 0.8713 0.58407 0.0
H1163 H 0.24859 0.83323 0.56832 0.0
H1164 H 0.1298 0.82192 0.47101 0.0
H1165 H 0.17094 0.76821 0.47029 0.0
C1166 C 0.15223 0.18257 0.55221 0.0
C1167 C 0.13184 0.17431 0.55719 0.0
C1168 C 0.13112 0.15498 0.54865 0.0
C1169 C 0.15087 0.15253 0.53864 0.0
N1170 N 0.1643 0.16911 0.54027 0.0
Co1171 Co 0.19371 0.17263 0.52561 0.0
N1172 N 0.19236 0.14418 0.51268 0.0
C1173 C 0.17597 0.13007 0.51559 0.0
C1174 C 0.17922 0.11196 0.5049 0.0
C1175 C 0.19895 0.11452 0.49459 0.0
C1176 C 0.20675 0.13411 0.49966 0.0
N1177 N 0.22286 0.17645 0.51043 0.0
C1178 C 0.23431 0.16367 0.49722 0.0
C1179 C 0.2539 0.17282 0.49029 0.0
C1180 C 0.25481 0.19201 0.49913 0.0
C1181 C 0.23585 0.19355 0.51102 0.0
N1182 N 0.1953 0.20078 0.53907 0.0
C1183 C 0.21225 0.21426 0.53723 0.0
C1184 C 0.20956 0.23171 0.54903 0.0
C1185 C 0.18963 0.2294 0.55894 0.0
C1186 C 0.18103 0.21073 0.55235 0.0
N1187 N 0.20612 0.15881 0.55058 0.0
C1188 C 0.22679 0.13627 0.58245 0.0
C1189 C 0.23467 0.1559 0.57383 0.0
C1190 C 0.22429 0.1667 0.55797 0.0
C1191 C 0.20761 0.12881 0.57571 0.0
C1192 C 0.19747 0.14041 0.56015 0.0
N1193 N 0.18143 0.18633 0.50053 0.0
C1194 C 0.17888 0.21648 0.4758 0.0
C1195 C 0.16318 0.2062 0.46552 0.0
C1196 C 0.1572 0.18558 0.47281 0.0
C1197 C 0.16624 0.17615 0.4903 0.0
C1198 C 0.18788 0.20625 0.49294 0.0
H1199 H 0.16054 0.16065 0.49525 0.0
H1200 H 0.19986 0.21492 0.4999 0.0
H1201 H 0.23154 0.18117 0.55168 0.0
H1202 H 0.18294 0.13389 0.55575 0.0
C1203 C 0.15718 0.13495 0.52737 0.0
C1204 C 0.15916 0.20336 0.55899 0.0
C1205 C 0.22766 0.14257 0.49119 0.0
C1206 C 0.23024 0.21033 0.52376 0.0
H1207 H 0.11864 0.18154 0.56583 0.0
H1208 H 0.11765 0.14412 0.54937 0.0
H1209 H 0.16835 0.09865 0.50433 0.0
H1210 H 0.20656 0.1033 0.48424 0.0
H1211 H 0.26641 0.16622 0.48011 0.0
H1212 H 0.26789 0.20336 0.49737 0.0
H1213 H 0.22074 0.24464 0.55022 0.0
H1214 H 0.18233 0.24034 0.56979 0.0
H1215 H 0.24902 0.16286 0.579 0.0
H1216 H 0.20069 0.11373 0.58178 0.0
H1217 H 0.18396 0.23257 0.47105 0.0
H1218 H 0.14549 0.17664 0.46518 0.0
C1219 C 0.80912 0.16299 0.49085 0.0
C1220 C 0.79022 0.17211 0.48563 0.0
C1221 C 0.78872 0.19073 0.49556 0.0
C1222 C 0.80662 0.19192 0.50639 0.0
N1223 N 0.81958 0.17522 0.50395 0.0
Co1224 Co 0.84679 0.1704 0.51796 0.0
N1225 N 0.84408 0.19751 0.53322 0.0
C1226 C 0.82817 0.21152 0.53214 0.0
C1227 C 0.83072 0.22893 0.54378 0.0
C1228 C 0.84947 0.22599 0.55279 0.0
C1229 C 0.85731 0.20683 0.54615 0.0
N1230 N 0.87402 0.16558 0.53193 0.0
C1231 C 0.88453 0.17792 0.54489 0.0
C1232 C 0.9031 0.16856 0.55071 0.0
C1233 C 0.90457 0.14984 0.54093 0.0
C1234 C 0.88685 0.14876 0.52977 0.0
N1235 N 0.8495 0.14328 0.50271 0.0
C1236 C 0.8655 0.12934 0.50369 0.0
C1237 C 0.86326 0.11222 0.49158 0.0
C1238 C 0.84461 0.11524 0.48241 0.0
C1239 C 0.83639 0.13406 0.48958 0.0
N1240 N 0.86305 0.18599 0.49365 0.0
C1241 C 0.8888 0.21025 0.4626 0.0
C1242 C 0.89475 0.19004 0.46961 0.0
C1243 C 0.88173 0.17827 0.48492 0.0
C1244 C 0.86918 0.21764 0.47059 0.0
C1245 C 0.85662 0.20531 0.48591 0.0
N1246 N 0.83061 0.15483 0.54237 0.0
C1247 C 0.82575 0.12402 0.56676 0.0
C1248 C 0.80694 0.13199 0.57607 0.0
C1249 C 0.80036 0.15177 0.56844 0.0
C1250 C 0.81232 0.1628 0.55173 0.0
C1251 C 0.83725 0.13561 0.55016 0.0
H1252 H 0.8063 0.17766 0.54654 0.0
H1253 H 0.85141 0.12862 0.54384 0.0
H1254 H 0.88736 0.16314 0.48971 0.0
H1255 H 0.84201 0.21197 0.4916 0.0
C1256 C 0.81135 0.20817 0.51952 0.0
C1257 C 0.81607 0.14241 0.48342 0.0
C1258 C 0.87771 0.19858 0.55205 0.0
C1259 C 0.88224 0.13258 0.51649 0.0
H1260 H 0.77849 0.16585 0.47591 0.0
H1261 H 0.77591 0.2019 0.49522 0.0
H1262 H 0.82034 0.24233 0.54527 0.0
H1263 H 0.8567 0.2369 0.56286 0.0
H1264 H 0.91451 0.17471 0.56086 0.0
H1265 H 0.9172 0.1385 0.54162 0.0
H1266 H 0.87385 0.09903 0.48975 0.0
H1267 H 0.83781 0.10471 0.47169 0.0
H1268 H 0.90953 0.18334 0.46347 0.0
H1269 H 0.8638 0.23319 0.46565 0.0
H1270 H 0.83171 0.10891 0.57234 0.0
H1271 H 0.78579 0.15855 0.57499 0.0
H1272 H 0.24135 0.15172 0.44909 0.0
H1273 H 0.30458 0.04284 0.43397 0.0
H1274 H 0.24646 0.10429 0.49979 0.0
H1275 H 0.30679 0.09383 0.38589 0.0
H1276 H 0.28222 0.06441 0.45775 0.0
H1277 H 0.26411 0.13043 0.42533 0.0
C1278 C 0.24733 0.13684 0.45524 0.0
C1279 C 0.24197 0.12983 0.47651 0.0
C1280 C 0.28754 0.07094 0.442 0.0
C1281 C 0.26799 0.10509 0.44924 0.0
C1282 C 0.30031 0.05858 0.42841 0.0
C1283 C 0.30754 0.06646 0.40783 0.0
C1284 C 0.28174 0.09143 0.43507 0.0
C1285 C 0.30148 0.08703 0.40153 0.0
C1286 C 0.26031 0.12464 0.44165 0.0
C1287 C 0.25012 0.11031 0.48353 0.0
N1288 N 0.28896 0.09872 0.41499 0.0
N1289 N 0.26259 0.09867 0.46999 0.0
H1290 H 0.99912 0.27779 0.40123 0.0
H1291 H 0.87888 0.23688 0.42901 0.0
H1292 H 0.94679 0.30017 0.36695 0.0
H1293 H 0.93197 0.21464 0.46257 0.0
H1294 H 0.9033 0.25974 0.40571 0.0
H1295 H 0.97465 0.25389 0.42343 0.0
C1296 C 0.98242 0.27753 0.39842 0.0
C1297 C 0.97481 0.29078 0.38238 0.0
C1298 C 0.9096 0.24979 0.41813 0.0
C1299 C 0.94673 0.26372 0.40757 0.0
C1300 C 0.89565 0.23681 0.4315 0.0
C1301 C 0.90336 0.22376 0.44777 0.0
C1302 C 0.93142 0.24981 0.42108 0.0
C1303 C 0.9253 0.22416 0.45006 0.0
C1304 C 0.96846 0.26395 0.41103 0.0
C1305 C 0.95312 0.29005 0.37922 0.0
N1306 N 0.93851 0.23698 0.43692 0.0
N1307 N 0.93978 0.27674 0.39175 0.0
H1308 H 0.81251 0.86856 0.45246 0.0
H1309 H 0.73892 0.97128 0.44815 0.0
H1310 H 0.7996 0.90773 0.50552 0.0
H1311 H 0.75611 0.93534 0.39336 0.0
H1312 H 0.7599 0.94749 0.46961 0.0
H1313 H 0.79104 0.89207 0.4308 0.0
C1314 C 0.8051 0.88214 0.45951 0.0
C1315 C 0.80778 0.88626 0.48076 0.0
C1316 C 0.7591 0.94478 0.4529 0.0
C1317 C 0.78317 0.91327 0.45616 0.0
C1318 C 0.74696 0.95831 0.44061 0.0
C1319 C 0.74558 0.95541 0.4188 0.0
C1320 C 0.77001 0.92801 0.44347 0.0
C1321 C 0.75679 0.93845 0.40999 0.0
C1322 C 0.79287 0.89557 0.44717 0.0
C1323 C 0.79789 0.90405 0.48918 0.0
N1324 N 0.76843 0.92543 0.42232 0.0
N1325 N 0.78603 0.91686 0.4769 0.0
H1326 H 0.13145 0.81409 0.43432 0.0
H1327 H 0.0741 0.70975 0.39854 0.0
H1328 H 0.13684 0.75218 0.46546 0.0
H1329 H 0.05978 0.77291 0.37517 0.0
H1330 H 0.09994 0.72468 0.42059 0.0
H1331 H 0.10813 0.79886 0.40982 0.0
C1332 C 0.12776 0.79729 0.43602 0.0
C1333 C 0.136 0.78444 0.45213 0.0
C1334 C 0.09117 0.73528 0.41062 0.0
C1335 C 0.10947 0.76687 0.42395 0.0
C1336 C 0.07629 0.72678 0.39812 0.0
C1337 C 0.06455 0.7401 0.38512 0.0
C1338 C 0.09446 0.75729 0.41011 0.0
C1339 C 0.06853 0.76202 0.38482 0.0
C1340 C 0.11449 0.7886 0.42196 0.0
C1341 C 0.13102 0.76268 0.45321 0.0
N1342 N 0.0831 0.76993 0.3972 0.0
N1343 N 0.118 0.75461 0.43939 0.0
H1344 H 0.26305 0.87028 0.57053 0.0
H1345 H 0.26818 0.9215 0.68291 0.0
H1346 H 0.21079 0.8647 0.61887 0.0
H1347 H 0.30533 0.94398 0.62557 0.0
H1348 H 0.24948 0.89673 0.66192 0.0
H1349 H 0.28212 0.89264 0.59332 0.0
C1350 C 0.25573 0.87352 0.58609 0.0
C1351 C 0.23533 0.86568 0.59284 0.0
C1352 C 0.26178 0.9071 0.65405 0.0
C1353 C 0.25692 0.89144 0.61887 0.0
C1354 C 0.27238 0.92132 0.66596 0.0
C1355 C 0.28854 0.93477 0.65607 0.0
C1356 C 0.26755 0.90621 0.63219 0.0
C1357 C 0.29342 0.93361 0.63406 0.0
C1358 C 0.26652 0.88645 0.59899 0.0
C1359 C 0.22644 0.87062 0.61303 0.0
N1360 N 0.28306 0.91954 0.62292 0.0
N1361 N 0.23731 0.88323 0.62539 0.0
H1362 H 0.10041 0.306 0.62952 0.0
H1363 H 0.13709 0.19293 0.59791 0.0
H1364 H 0.05406 0.255 0.6365 0.0
H1365 H 0.14725 0.24484 0.55105 0.0
H1366 H 0.11257 0.21502 0.61912 0.0
H1367 H 0.12402 0.28381 0.60744 0.0
C1368 C 0.09513 0.29018 0.62639 0.0
C1369 C 0.07497 0.28257 0.63474 0.0
C1370 C 0.12022 0.22154 0.6042 0.0
C1371 C 0.10251 0.25667 0.61023 0.0
C1372 C 0.13417 0.20893 0.59202 0.0
C1373 C 0.14423 0.21687 0.57246 0.0
C1374 C 0.11682 0.24261 0.5973 0.0
C1375 C 0.14002 0.23799 0.56601 0.0
C1376 C 0.10867 0.27752 0.61384 0.0
C1377 C 0.06938 0.26163 0.63048 0.0
N1378 N 0.12693 0.25015 0.57845 0.0
N1379 N 0.08309 0.24939 0.6188 0.0
H1380 H 0.78641 0.14637 0.61237 0.0
H1381 H 0.73517 0.03296 0.65142 0.0
H1382 H 0.79815 0.08933 0.57902 0.0
H1383 H 0.72708 0.08862 0.68744 0.0
H1384 H 0.75867 0.05336 0.62482 0.0
H1385 H 0.76473 0.12566 0.64006 0.0
C1386 C 0.78439 0.1295 0.61084 0.0
C1387 C 0.79411 0.11959 0.59331 0.0
C1388 C 0.7519 0.06113 0.63859 0.0
C1389 C 0.76941 0.09574 0.62504 0.0
C1390 C 0.73857 0.04949 0.65371 0.0
C1391 C 0.72945 0.05922 0.67152 0.0
C1392 C 0.75596 0.08271 0.64127 0.0
C1393 C 0.73403 0.08065 0.67389 0.0
C1394 C 0.77211 0.11766 0.62672 0.0
C1395 C 0.79118 0.09762 0.59234 0.0
N1396 N 0.74695 0.09174 0.65887 0.0
N1397 N 0.77904 0.08647 0.60792 0.0
H1398 H 0.98289 0.72825 0.60585 0.0
H1399 H 0.87424 0.79249 0.60082 0.0
H1400 H 0.93552 0.72963 0.65882 0.0
H1401 H 0.92038 0.78837 0.54736 0.0
H1402 H 0.89634 0.7696 0.62242 0.0
H1403 H 0.96034 0.75035 0.58442 0.0
C1404 C 0.96779 0.73325 0.61306 0.0
C1405 C 0.96126 0.72704 0.63433 0.0
C1406 C 0.90166 0.77365 0.60596 0.0
C1407 C 0.93507 0.75241 0.60958 0.0
C1408 C 0.88904 0.7867 0.59366 0.0
C1409 C 0.89552 0.79228 0.57231 0.0
C1410 C 0.921 0.76616 0.59688 0.0
C1411 C 0.91485 0.78443 0.56378 0.0
C1412 C 0.95483 0.74582 0.60072 0.0
C1413 C 0.94124 0.73378 0.6425 0.0
N1414 N 0.9269 0.77183 0.57607 0.0
N1415 N 0.92896 0.74612 0.63019 0.0
H1416 H 0.37228 0.31073 0.081 0.0
H1417 H 0.47972 0.24595 0.09347 0.0
H1418 H 0.41935 0.30235 0.02921 0.0
H1419 H 0.43568 0.25915 0.14667 0.0
H1420 H 0.45732 0.26552 0.06969 0.0
H1421 H 0.39461 0.29104 0.10519 0.0
C1422 C 0.38734 0.30468 0.07477 0.0
C1423 C 0.39403 0.30814 0.05314 0.0
C1424 C 0.45253 0.26417 0.08657 0.0
C1425 C 0.41972 0.28557 0.08063 0.0
C1426 C 0.46529 0.25284 0.1002 0.0
C1427 C 0.45965 0.25071 0.12224 0.0
C1428 C 0.43379 0.27349 0.09485 0.0
C1429 C 0.44087 0.26045 0.1299 0.0
C1430 C 0.4001 0.29348 0.08855 0.0
C1431 C 0.41366 0.30001 0.04581 0.0
N1432 N 0.42864 0.2713 0.11626 0.0
N1433 N 0.42578 0.28912 0.05949 0.0
H1434 H 0.80217 0.49025 0.12185 0.0
H1435 H 0.76609 0.37202 0.09924 0.0
H1436 H 0.81931 0.43558 0.15991 0.0
H1437 H 0.74299 0.4284 0.06786 0.0
H1438 H 0.78814 0.39437 0.11976 0.0
H1439 H 0.78259 0.46718 0.09997 0.0
C1440 C 0.80174 0.47331 0.12549 0.0
C1441 C 0.8121 0.46464 0.14259 0.0
C1442 C 0.77824 0.4018 0.10836 0.0
C1443 C 0.78993 0.43816 0.11784 0.0
C1444 C 0.76576 0.38907 0.09661 0.0
C1445 C 0.75255 0.39841 0.08203 0.0
C1446 C 0.77758 0.42395 0.10531 0.0
C1447 C 0.75265 0.42056 0.07923 0.0
C1448 C 0.79061 0.46015 0.11309 0.0
C1449 C 0.81132 0.44268 0.14681 0.0
N1450 N 0.76493 0.43255 0.09077 0.0
N1451 N 0.80035 0.43011 0.1345 0.0
H1452 H 0.60427 0.75772 0.07093 0.0
H1453 H 0.59848 0.82166 0.17843 0.0
H1454 H 0.6567 0.76258 0.11044 0.0
H1455 H 0.54721 0.81886 0.13754 0.0
H1456 H 0.6199 0.79982 0.15404 0.0
H1457 H 0.58329 0.77977 0.09504 0.0
C1458 C 0.61154 0.76348 0.08454 0.0
C1459 C 0.63255 0.7581 0.08837 0.0
C1460 C 0.60397 0.80394 0.15035 0.0
C1461 C 0.6081 0.78348 0.11658 0.0
C1462 C 0.59173 0.81639 0.16431 0.0
C1463 C 0.57096 0.822 0.16011 0.0
C1464 C 0.59548 0.79696 0.13188 0.0
C1465 C 0.56311 0.81487 0.14145 0.0
C1466 C 0.59939 0.77604 0.09846 0.0
C1467 C 0.64061 0.7659 0.10674 0.0
N1468 N 0.57529 0.80275 0.12812 0.0
N1469 N 0.62846 0.7781 0.12003 0.0
H1470 H 0.23736 0.55428 0.1249 0.0
H1471 H 0.29574 0.66786 0.11394 0.0
H1472 H 0.2259 0.60184 0.17062 0.0
H1473 H 0.29562 0.62549 0.06271 0.0
H1474 H 0.27108 0.64361 0.13564 0.0
H1475 H 0.25993 0.57971 0.10241 0.0
C1476 C 0.23963 0.57016 0.13009 0.0
C1477 C 0.2299 0.57611 0.14951 0.0
C1478 C 0.27629 0.63969 0.11959 0.0
C1479 C 0.25568 0.60517 0.12414 0.0
C1480 C 0.29026 0.65353 0.10726 0.0
C1481 C 0.2974 0.64864 0.08655 0.0
C1482 C 0.26973 0.62072 0.11121 0.0
C1483 C 0.29027 0.62977 0.07861 0.0
C1484 C 0.25244 0.58465 0.11731 0.0
C1485 C 0.23325 0.59676 0.15571 0.0
N1486 N 0.27688 0.61643 0.09099 0.0
N1487 N 0.24597 0.61057 0.1431 0.0
H1488 H 0.37315 0.71713 0.94686 0.0
H1489 H 0.48389 0.78003 0.9214 0.0
H1490 H 0.41639 0.72965 0.99438 0.0
H1491 H 0.43285 0.78435 0.88003 0.0
H1492 H 0.4616 0.75653 0.94632 0.0
H1493 H 0.39703 0.73703 0.92005 0.0
C1494 C 0.38775 0.72405 0.95153 0.0
C1495 C 0.39288 0.72199 0.97273 0.0
C1496 C 0.45531 0.76247 0.93172 0.0
C1497 C 0.42021 0.74439 0.94241 0.0
C1498 C 0.46803 0.77576 0.91753 0.0
C1499 C 0.46009 0.78394 0.89875 0.0
C1500 C 0.43456 0.7573 0.927 0.0
C1501 C 0.43947 0.77815 0.89435 0.0
C1502 C 0.40131 0.73536 0.93633 0.0
C1503 C 0.41196 0.73101 0.97814 0.0
N1504 N 0.42735 0.76516 0.90842 0.0
N1505 N 0.42497 0.74184 0.96306 0.0
H1506 H 0.32556 0.40331 0.93519 0.0
H1507 H 0.21189 0.4254 0.89824 0.0
H1508 H 0.27131 0.38603 0.97861 0.0
H1509 H 0.25734 0.47713 0.8951 0.0
H1510 H 0.23483 0.40462 0.921 0.0
H1511 H 0.30237 0.42473 0.91328 0.0
C1512 C 0.30879 0.404 0.9401 0.0
C1513 C 0.30041 0.39291 0.95885 0.0
C1514 C 0.2397 0.42054 0.91532 0.0
C1515 C 0.27372 0.4167 0.93339 0.0
C1516 C 0.22662 0.43243 0.90244 0.0
C1517 C 0.23249 0.45322 0.89508 0.0
C1518 C 0.25924 0.42912 0.92017 0.0
C1519 C 0.25212 0.46124 0.90051 0.0
C1520 C 0.2956 0.41618 0.92759 0.0
C1521 C 0.27844 0.39419 0.96425 0.0
N1522 N 0.26489 0.44913 0.91251 0.0
N1523 N 0.26582 0.40563 0.95148 0.0
H1524 H 0.54502 0.27278 0.91254 0.0
H1525 H 0.66472 0.30041 0.93529 0.0
H1526 H 0.59917 0.25727 0.87064 0.0
H1527 H 0.6098 0.32237 0.97226 0.0
H1528 H 0.64115 0.28448 0.9113 0.0
H1529 H 0.56865 0.29142 0.93437 0.0
C1530 C 0.5619 0.27339 0.90791 0.0
C1531 C 0.57019 0.2634 0.88984 0.0
C1532 C 0.63428 0.29288 0.9246 0.0
C1533 C 0.59735 0.28463 0.91475 0.0
C1534 C 0.64771 0.30184 0.93836 0.0
C1535 C 0.63919 0.31271 0.95578 0.0
C1536 C 0.61218 0.29468 0.92841 0.0
C1537 C 0.61705 0.31433 0.95889 0.0
C1538 C 0.57538 0.28408 0.92033 0.0
C1539 C 0.59214 0.2649 0.88438 0.0
N1540 N 0.60432 0.30533 0.9454 0.0
N1541 N 0.60501 0.27517 0.8969 0.0
H1542 H 0.73492 0.61108 0.98948 0.0
H1543 H 0.799 0.59271 0.87703 0.0
H1544 H 0.74912 0.66158 0.94172 0.0
H1545 H 0.80205 0.54961 0.93187 0.0
H1546 H 0.77783 0.61672 0.89913 0.0
H1547 H 0.75633 0.58715 0.96747 0.0
C1548 C 0.74242 0.61716 0.97432 0.0
C1549 C 0.74008 0.63853 0.96757 0.0
C1550 C 0.78314 0.60203 0.90636 0.0
C1551 C 0.76475 0.61092 0.94204 0.0
C1552 C 0.79517 0.5882 0.89369 0.0
C1553 C 0.80247 0.56896 0.90247 0.0
C1554 C 0.7779 0.5966 0.92806 0.0
C1555 C 0.79705 0.56426 0.92432 0.0
C1556 C 0.75479 0.60346 0.96179 0.0
C1557 C 0.75052 0.64537 0.94778 0.0
N1558 N 0.78505 0.57782 0.93624 0.0
N1559 N 0.76218 0.63166 0.93574 0.0
H1560 H 0.1057 0.36911 0.29464 0.0
H1561 H 0.11631 0.48975 0.24907 0.0
H1562 H 0.05385 0.41263 0.2972 0.0
H1563 H 0.16334 0.44305 0.23404 0.0
H1564 H 0.09424 0.46226 0.26928 0.0
H1565 H 0.12816 0.3964 0.2744 0.0
C1566 C 0.09909 0.38441 0.29074 0.0
C1567 C 0.07799 0.38875 0.29735 0.0
C1568 C 0.10938 0.45798 0.26159 0.0
C1569 C 0.10344 0.42 0.27469 0.0
C1570 C 0.12194 0.47365 0.25017 0.0
C1571 C 0.14151 0.46849 0.23997 0.0
C1572 C 0.11657 0.43705 0.26292 0.0
C1573 C 0.14829 0.44752 0.24177 0.0
C1574 C 0.11185 0.39996 0.27929 0.0
C1575 C 0.07008 0.40879 0.29223 0.0
N1576 N 0.13582 0.43252 0.25306 0.0
N1577 N 0.08283 0.42372 0.28126 0.0
H1578 H 0.12681 0.52831 0.80274 0.0
H1579 H 0.09772 0.64475 0.75747 0.0
H1580 H 0.16232 0.58456 0.81422 0.0
H1581 H 0.0676 0.58758 0.73924 0.0
H1582 H 0.12039 0.62325 0.77947 0.0
H1583 H 0.10401 0.54983 0.78057 0.0
C1584 C 0.12977 0.54523 0.80053 0.0
C1585 C 0.14648 0.5547 0.81019 0.0
C1586 C 0.10884 0.61539 0.77065 0.0
C1587 C 0.12042 0.57953 0.78498 0.0
C1588 C 0.09575 0.62769 0.75814 0.0
C1589 C 0.08059 0.61807 0.74638 0.0
C1590 C 0.10679 0.59318 0.77165 0.0
C1591 C 0.07915 0.59579 0.74775 0.0
C1592 C 0.1168 0.55752 0.78788 0.0
C1593 C 0.14964 0.57668 0.80694 0.0
N1594 N 0.09196 0.58418 0.76016 0.0
N1595 N 0.13675 0.58834 0.79466 0.0
H1596 H 0.36727 0.09197 0.75314 0.0
H1597 H 0.48008 0.11383 0.79638 0.0
H1598 H 0.42115 0.05231 0.7398 0.0
H1599 H 0.43648 0.16411 0.7843 0.0
H1600 H 0.45677 0.08922 0.78 0.0
H1601 H 0.39053 0.11697 0.76932 0.0
C1602 C 0.38397 0.08852 0.75375 0.0
C1603 C 0.3924 0.07018 0.74512 0.0
C1604 C 0.45236 0.10566 0.78086 0.0
C1605 C 0.41888 0.09841 0.76356 0.0
C1606 C 0.46559 0.11964 0.79022 0.0
C1607 C 0.46014 0.14095 0.79158 0.0
C1608 C 0.43339 0.11299 0.77317 0.0
C1609 C 0.44126 0.14779 0.78335 0.0
C1610 C 0.39721 0.1028 0.76281 0.0
C1611 C 0.41413 0.06641 0.74614 0.0
N1612 N 0.42842 0.13379 0.77462 0.0
N1613 N 0.42662 0.08035 0.75531 0.0
H1614 H 0.89409 0.44869 0.75887 0.0
H1615 H 0.9933 0.37121 0.74622 0.0
H1616 H 0.92889 0.4277 0.81216 0.0
H1617 H 0.94513 0.37484 0.70161 0.0
H1618 H 0.97217 0.39454 0.76933 0.0
H1619 H 0.91453 0.42461 0.73665 0.0
C1620 C 0.90581 0.43901 0.76615 0.0
C1621 C 0.90936 0.44052 0.78785 0.0
C1622 C 0.9662 0.39028 0.75448 0.0
C1623 C 0.93364 0.41293 0.76169 0.0
C1624 C 0.97829 0.37694 0.74126 0.0
C1625 C 0.97114 0.37115 0.72178 0.0
C1626 C 0.94682 0.39823 0.74816 0.0
C1627 C 0.95147 0.37909 0.71629 0.0
C1628 C 0.91766 0.42527 0.75323 0.0
C1629 C 0.9255 0.42768 0.79564 0.0
N1630 N 0.94015 0.39227 0.72924 0.0
N1631 N 0.93697 0.41463 0.78265 0.0
H1632 H 0.61151 0.97909 0.76705 0.0
H1633 H 0.59135 0.86067 0.81657 0.0
H1634 H 0.65588 0.929 0.75604 0.0
H1635 H 0.54219 0.907 0.81358 0.0
H1636 H 0.61647 0.88612 0.79707 0.0
H1637 H 0.58702 0.95364 0.78722 0.0
C1638 C 0.61605 0.96269 0.76904 0.0
C1639 C 0.63559 0.95599 0.76 0.0
C1640 C 0.60018 0.89071 0.80063 0.0
C1641 C 0.60789 0.92687 0.78292 0.0
C1642 C 0.58593 0.87622 0.81169 0.0
C1643 C 0.56481 0.88187 0.81649 0.0
C1644 C 0.59324 0.91101 0.79458 0.0
C1645 C 0.55841 0.90217 0.81007 0.0
C1646 C 0.60212 0.94818 0.78044 0.0
C1647 C 0.64091 0.93466 0.7629 0.0
N1648 N 0.5726 0.91606 0.79948 0.0
N1649 N 0.62712 0.92081 0.77416 0.0
H1650 H 0.94937 0.66282 0.24306 0.0
H1651 H 0.88127 0.5574 0.24276 0.0
H1652 H 0.92518 0.62869 0.30124 0.0
H1653 H 0.87686 0.60702 0.19393 0.0
H1654 H 0.90086 0.58182 0.26331 0.0
H1655 H 0.92586 0.64142 0.22335 0.0
C1656 C 0.93902 0.65104 0.25176 0.0
C1657 C 0.93954 0.64741 0.27387 0.0
C1658 C 0.89551 0.58741 0.24815 0.0
C1659 C 0.91306 0.62263 0.2513 0.0
C1660 C 0.88441 0.57351 0.23647 0.0
C1661 C 0.87769 0.5803 0.21666 0.0
C1662 C 0.90022 0.60808 0.23975 0.0
C1663 C 0.88205 0.60126 0.20909 0.0
C1664 C 0.92568 0.63879 0.24046 0.0
C1665 C 0.92587 0.63169 0.28416 0.0
N1666 N 0.89332 0.61442 0.22054 0.0
N1667 N 0.9134 0.61973 0.27277 0.0
H1668 H 0.42473 0.99352 0.31175 0.0
H1669 H 0.44005 0.88378 0.25304 0.0
H1670 H 0.37744 0.94348 0.31715 0.0
H1671 H 0.48986 0.93072 0.25422 0.0
H1672 H 0.41648 0.9057 0.27535 0.0
H1673 H 0.44823 0.97141 0.28963 0.0
C1674 C 0.41929 0.97787 0.30823 0.0
C1675 C 0.39903 0.97041 0.3163 0.0
C1676 C 0.43257 0.91124 0.2708 0.0
C1677 C 0.42594 0.94482 0.29079 0.0
C1678 C 0.44605 0.89867 0.25809 0.0
C1679 C 0.46705 0.90532 0.25183 0.0
C1680 C 0.43997 0.93082 0.27728 0.0
C1681 C 0.47384 0.92493 0.25868 0.0
C1682 C 0.43272 0.96521 0.29559 0.0
C1683 C 0.39285 0.94995 0.31118 0.0
N1684 N 0.46042 0.93692 0.27093 0.0
N1685 N 0.40616 0.93795 0.29879 0.0
H1686 H 0.66691 0.10932 0.30028 0.0
H1687 H 0.55794 0.11904 0.24372 0.0
H1688 H 0.61399 0.06571 0.31427 0.0
H1689 H 0.60162 0.17181 0.24536 0.0
H1690 H 0.57991 0.098 0.26686 0.0
H1691 H 0.64499 0.13108 0.27747 0.0
C1692 C 0.65072 0.10427 0.29853 0.0
C1693 C 0.64232 0.08563 0.30933 0.0
C1694 C 0.5847 0.11419 0.26221 0.0
C1695 C 0.61712 0.11047 0.28307 0.0
C1696 C 0.5722 0.1262 0.24888 0.0
C1697 C 0.57791 0.14728 0.24249 0.0
C1698 C 0.60331 0.1231 0.26908 0.0
C1699 C 0.59649 0.15571 0.24997 0.0
C1700 C 0.63817 0.11678 0.28559 0.0
C1701 C 0.62113 0.08003 0.30651 0.0
N1702 N 0.60858 0.14359 0.2627 0.0
N1703 N 0.60937 0.09227 0.29361 0.0
H1704 H 0.73274 0.96799 0.6346 0.0
H1705 H 0.7924 0.85839 0.62208 0.0
H1706 H 0.73437 0.92092 0.68647 0.0
H1707 H 0.80381 0.91328 0.57891 0.0
H1708 H 0.76821 0.87926 0.64469 0.0
H1709 H 0.7556 0.94597 0.61234 0.0
C1710 C 0.73776 0.95289 0.64121 0.0
C1711 C 0.73169 0.94621 0.66235 0.0
C1712 C 0.77613 0.88671 0.63032 0.0
C1713 C 0.75802 0.92108 0.63711 0.0
C1714 C 0.78984 0.87483 0.61744 0.0
C1715 C 0.80018 0.88423 0.59875 0.0
C1716 C 0.77259 0.90796 0.62421 0.0
C1717 C 0.7964 0.90555 0.59338 0.0
C1718 C 0.75095 0.94042 0.62858 0.0
C1719 C 0.73888 0.92667 0.67027 0.0
N1720 N 0.78284 0.91667 0.60601 0.0
N1721 N 0.75169 0.91473 0.6576 0.0
H1722 H 0.14737 0.79915 0.60388 0.0
H1723 H 0.10975 0.68939 0.65615 0.0
H1724 H 0.14419 0.74785 0.5618 0.0
H1725 H 0.0624 0.73755 0.65176 0.0
H1726 H 0.13407 0.71154 0.63134 0.0
H1727 H 0.127 0.77711 0.63199 0.0
C1728 C 0.1426 0.78318 0.6007 0.0
C1729 C 0.14742 0.77522 0.58059 0.0
C1730 C 0.11847 0.71727 0.63625 0.0
C1731 C 0.1251 0.75001 0.6126 0.0
C1732 C 0.10471 0.70479 0.65034 0.0
C1733 C 0.08419 0.71179 0.65606 0.0
C1734 C 0.11176 0.73704 0.6285 0.0
C1735 C 0.07822 0.73176 0.64798 0.0
C1736 C 0.13114 0.7707 0.61666 0.0
C1737 C 0.14093 0.75444 0.57718 0.0
N1738 N 0.09201 0.74378 0.63466 0.0
N1739 N 0.13017 0.74244 0.59311 0.0
H1740 H 0.2115 0.10865 0.61565 0.0
H1741 H 0.32376 0.08056 0.65692 0.0
H1742 H 0.27014 0.13394 0.58356 0.0
H1743 H 0.27223 0.03481 0.66061 0.0
H1744 H 0.30276 0.10488 0.63562 0.0
H1745 H 0.23218 0.08568 0.6382 0.0
C1746 C 0.22865 0.10944 0.61326 0.0
C1747 C 0.23899 0.12329 0.59748 0.0
C1748 C 0.2961 0.08951 0.64113 0.0
C1749 C 0.26264 0.09745 0.62373 0.0
C1750 C 0.30802 0.07571 0.65318 0.0
C1751 C 0.29965 0.05574 0.66028 0.0
C1752 C 0.27555 0.08339 0.63666 0.0
C1753 C 0.27914 0.05013 0.65533 0.0
C1754 C 0.2404 0.09638 0.62624 0.0
C1755 C 0.26134 0.12389 0.59567 0.0
N1756 N 0.26768 0.06396 0.64389 0.0
N1757 N 0.2724 0.1112 0.60866 0.0
H1758 H 0.87203 0.20544 0.59469 0.0
H1759 H 0.97497 0.28183 0.59516 0.0
H1760 H 0.91469 0.22046 0.53925 0.0
H1761 H 0.93639 0.26133 0.65214 0.0
H1762 H 0.95241 0.2606 0.57436 0.0
H1763 H 0.89466 0.22661 0.61586 0.0
C1764 C 0.88621 0.21321 0.58702 0.0
C1765 C 0.89152 0.21124 0.56522 0.0
C1766 C 0.94885 0.26071 0.59141 0.0
C1767 C 0.91754 0.23559 0.58928 0.0
C1768 C 0.96168 0.273 0.60335 0.0
C1769 C 0.95767 0.27355 0.62556 0.0
C1770 C 0.93165 0.24883 0.60161 0.0
C1771 C 0.94034 0.26133 0.63514 0.0
C1772 C 0.89914 0.22529 0.59908 0.0
C1773 C 0.91006 0.2216 0.55603 0.0
N1774 N 0.928 0.2496 0.62316 0.0
N1775 N 0.92234 0.23335 0.56804 0.0
H1776 H 0.73864 0.04514 0.43103 0.0
H1777 H 0.80545 0.15272 0.44277 0.0
H1778 H 0.7397 0.09829 0.38544 0.0
H1779 H 0.79596 0.10383 0.49283 0.0
H1780 H 0.78299 0.13237 0.42076 0.0
H1781 H 0.76096 0.06555 0.45313 0.0
C1782 C 0.74362 0.06112 0.42568 0.0
C1783 C 0.73743 0.06997 0.4063 0.0
C1784 C 0.78577 0.12606 0.43655 0.0
C1785 C 0.7631 0.09352 0.43149 0.0
C1786 C 0.7986 0.13769 0.44911 0.0
C1787 C 0.80251 0.13 0.46969 0.0
C1788 C 0.77687 0.10642 0.4445 0.0
C1789 C 0.79335 0.11034 0.47706 0.0
C1790 C 0.75636 0.07279 0.43829 0.0
C1791 C 0.74428 0.09079 0.40017 0.0
N1792 N 0.78103 0.09925 0.46451 0.0
N1793 N 0.75677 0.10179 0.41263 0.0
H1794 H 0.91895 0.73708 0.35509 0.0
H1795 H 0.92886 0.80163 0.45966 0.0
H1796 H 0.97656 0.74302 0.38671 0.0
H1797 H 0.86993 0.79326 0.4305 0.0
H1798 H 0.94719 0.78278 0.43117 0.0
H1799 H 0.90104 0.75991 0.38097 0.0
C1800 C 0.92774 0.74335 0.3675 0.0
C1801 C 0.94907 0.73838 0.36905 0.0
C1802 C 0.93027 0.78514 0.43092 0.0
C1803 C 0.92903 0.76418 0.39845 0.0
C1804 C 0.91982 0.79604 0.44711 0.0
C1805 C 0.89783 0.79893 0.44747 0.0
C1806 C 0.91864 0.77704 0.415 0.0
C1807 C 0.88686 0.79108 0.43097 0.0
C1808 C 0.91762 0.75631 0.38221 0.0
C1809 C 0.96002 0.74665 0.38522 0.0
N1810 N 0.89738 0.7804 0.41542 0.0
N1811 N 0.94985 0.75916 0.39939 0.0
H1812 H 0.30228 0.96292 0.44573 0.0
H1813 H 0.22498 0.86122 0.44642 0.0
H1814 H 0.29291 0.92813 0.39006 0.0
H1815 H 0.2392 0.89166 0.50321 0.0
H1816 H 0.24886 0.88653 0.42525 0.0
H1817 H 0.27877 0.93758 0.46699 0.0
C1818 C 0.29545 0.94986 0.43799 0.0
C1819 C 0.29961 0.94772 0.41602 0.0
C1820 C 0.24679 0.88773 0.44233 0.0
C1821 C 0.27234 0.91881 0.44026 0.0
C1822 C 0.23316 0.87334 0.45434 0.0
C1823 C 0.23032 0.87446 0.47646 0.0
C1824 C 0.25755 0.9034 0.45256 0.0
C1825 C 0.2411 0.89039 0.48612 0.0
C1826 C 0.28189 0.93547 0.45013 0.0
C1827 C 0.28996 0.93064 0.40685 0.0
N1828 N 0.25429 0.90426 0.47411 0.0
N1829 N 0.27677 0.9169 0.41899 0.0
H1830 H 0.12161 0.20199 0.45627 0.0
H1831 H 0.11984 0.30472 0.38221 0.0
H1832 H 0.18001 0.23578 0.43488 0.0
H1833 H 0.07536 0.25309 0.3778 0.0
H1834 H 0.14182 0.28104 0.40296 0.0
H1835 H 0.10373 0.22156 0.42895 0.0
C1836 C 0.13084 0.21323 0.44567 0.0
C1837 C 0.15245 0.21719 0.44804 0.0
C1838 C 0.12743 0.27484 0.39713 0.0
C1839 C 0.1317 0.24018 0.41711 0.0
C1840 C 0.1149 0.28832 0.38542 0.0
C1841 C 0.09583 0.28075 0.37843 0.0
C1842 C 0.12049 0.25389 0.40225 0.0
C1843 C 0.09004 0.25942 0.38287 0.0
C1844 C 0.12052 0.22448 0.43011 0.0
C1845 C 0.16326 0.23247 0.43405 0.0
N1846 N 0.10217 0.24677 0.39483 0.0
N1847 N 0.1527 0.24363 0.41935 0.0
H1848 H 0.64627 0.75596 0.98481 0.0
H1849 H 0.57445 0.75306 0.88812 0.0
H1850 H 0.65274 0.70629 0.94067 0.0
H1851 H 0.59229 0.81111 0.91578 0.0
H1852 H 0.60105 0.73437 0.90791 0.0
H1853 H 0.62382 0.77519 0.96094 0.0
C1854 C 0.64311 0.74928 0.96988 0.0
C1855 C 0.65156 0.72978 0.96439 0.0
C1856 C 0.59919 0.75123 0.90944 0.0
C1857 C 0.62548 0.75133 0.93731 0.0
C1858 C 0.58408 0.76194 0.89813 0.0
C1859 C 0.58089 0.78366 0.90052 0.0
C1860 C 0.61094 0.76231 0.92337 0.0
C1861 C 0.59374 0.79427 0.91387 0.0
C1862 C 0.63032 0.76021 0.95629 0.0
C1863 C 0.64664 0.72145 0.94519 0.0
N1864 N 0.60801 0.78345 0.92495 0.0
N1865 N 0.63371 0.73224 0.93232 0.0
H1866 H 0.29244 0.65631 0.94905 0.0
H1867 H 0.23534 0.54434 0.93569 0.0
H1868 H 0.29783 0.60227 0.99276 0.0
H1869 H 0.24613 0.59146 0.88392 0.0
H1870 H 0.25537 0.56653 0.95804 0.0
H1871 H 0.27276 0.6341 0.92631 0.0
C1872 C 0.28943 0.6398 0.95393 0.0
C1873 C 0.29687 0.6312 0.97292 0.0
C1874 C 0.2534 0.57203 0.94179 0.0
C1875 C 0.27419 0.60561 0.94687 0.0
C1876 C 0.24182 0.55941 0.92903 0.0
C1877 C 0.23894 0.566 0.90783 0.0
C1878 C 0.26201 0.59163 0.93351 0.0
C1879 C 0.24804 0.58561 0.90008 0.0
C1880 C 0.27829 0.62709 0.94085 0.0
C1881 C 0.29262 0.60959 0.97822 0.0
N1882 N 0.259 0.59776 0.91291 0.0
N1883 N 0.2815 0.59763 0.96539 0.0
H1884 H 0.43087 0.33277 0.93347 0.0
H1885 H 0.43169 0.24704 0.8454 0.0
H1886 H 0.37434 0.30797 0.90872 0.0
H1887 H 0.48779 0.26999 0.87203 0.0
H1888 H 0.41088 0.27421 0.86354 0.0
H1889 H 0.45243 0.3153 0.90598 0.0
C1890 C 0.42298 0.32401 0.92197 0.0
C1891 C 0.40082 0.32149 0.92358 0.0
C1892 C 0.4278 0.27355 0.86518 0.0
C1893 C 0.42534 0.30116 0.89237 0.0
C1894 C 0.43958 0.25812 0.85483 0.0
C1895 C 0.46124 0.25645 0.85752 0.0
C1896 C 0.43787 0.28715 0.87836 0.0
C1897 C 0.471 0.27094 0.86979 0.0
C1898 C 0.43529 0.31391 0.90637 0.0
C1899 C 0.39143 0.30987 0.90834 0.0
N1900 N 0.45917 0.28561 0.88 0.0
N1901 N 0.40375 0.2999 0.89353 0.0
H1902 H 0.76808 0.39158 0.98414 0.0
H1903 H 0.78576 0.4783 0.89319 0.0
H1904 H 0.71634 0.40151 0.94425 0.0
H1905 H 0.82785 0.42523 0.89231 0.0
H1906 H 0.76072 0.45764 0.91843 0.0
H1907 H 0.79183 0.41159 0.95727 0.0
C1908 C 0.76175 0.39809 0.96977 0.0
C1909 C 0.7403 0.39489 0.96628 0.0
C1910 C 0.77548 0.45064 0.91265 0.0
C1911 C 0.76703 0.41814 0.93612 0.0
C1912 C 0.78969 0.46232 0.89836 0.0
C1913 C 0.80897 0.45349 0.89101 0.0
C1914 C 0.78095 0.4303 0.91998 0.0
C1915 C 0.81334 0.4327 0.89801 0.0
C1916 C 0.77523 0.4094 0.95455 0.0
C1917 C 0.73276 0.40377 0.94752 0.0
N1918 N 0.7996 0.4219 0.91246 0.0
N1919 N 0.74609 0.41525 0.93316 0.0
H1920 H 0.626 0.30343 0.04915 0.0
H1921 H 0.60202 0.23752 0.16075 0.0
H1922 H 0.66653 0.30566 0.10081 0.0
H1923 H 0.55658 0.24423 0.11353 0.0
H1924 H 0.62721 0.26019 0.13789 0.0
H1925 H 0.60137 0.27969 0.07145 0.0
C1926 C 0.62962 0.29884 0.06524 0.0
C1927 C 0.64822 0.3063 0.07325 0.0
C1928 C 0.61175 0.25669 0.13248 0.0
C1929 C 0.62037 0.27924 0.09876 0.0
C1930 C 0.59747 0.24375 0.14548 0.0
C1931 C 0.57731 0.23922 0.13893 0.0
C1932 C 0.60581 0.26498 0.11274 0.0
C1933 C 0.57204 0.24748 0.11904 0.0
C1934 C 0.61564 0.28534 0.07794 0.0
C1935 C 0.65234 0.30007 0.09413 0.0
N1936 N 0.58621 0.26001 0.10663 0.0
N1937 N 0.63855 0.28682 0.10617 0.0
H1938 H 0.78581 0.60352 0.15207 0.0
H1939 H 0.73807 0.63822 0.04206 0.0
H1940 H 0.79934 0.57088 0.09435 0.0
H1941 H 0.72864 0.67233 0.09922 0.0
H1942 H 0.76119 0.61359 0.06043 0.0
H1943 H 0.76538 0.62926 0.13254 0.0
C1944 C 0.78441 0.60177 0.13526 0.0
C1945 C 0.79408 0.58496 0.12483 0.0
C1946 C 0.7542 0.62654 0.06892 0.0
C1947 C 0.77083 0.61444 0.10229 0.0
C1948 C 0.74109 0.6405 0.05846 0.0
C1949 C 0.73182 0.65721 0.06926 0.0
C1950 C 0.75778 0.62935 0.09031 0.0
C1951 C 0.7358 0.65963 0.09047 0.0
C1952 C 0.77284 0.61652 0.12408 0.0
C1953 C 0.79215 0.58366 0.10294 0.0
N1954 N 0.7485 0.6458 0.10035 0.0
N1955 N 0.78061 0.59816 0.09239 0.0
H1956 H 0.39825 0.72249 0.11848 0.0
H1957 H 0.47067 0.82596 0.12336 0.0
H1958 H 0.40138 0.77215 0.06882 0.0
H1959 H 0.44216 0.79264 0.18031 0.0
H1960 H 0.44932 0.80412 0.10213 0.0
H1961 H 0.41858 0.74528 0.14023 0.0
C1962 C 0.40328 0.73816 0.11212 0.0
C1963 C 0.39804 0.74541 0.09178 0.0
C1964 C 0.44775 0.80167 0.1193 0.0
C1965 C 0.42159 0.77152 0.11654 0.0
C1966 C 0.45987 0.8143 0.13159 0.0
C1967 C 0.45844 0.81147 0.15398 0.0
C1968 C 0.43429 0.78564 0.12923 0.0
C1969 C 0.44439 0.7954 0.16324 0.0
C1970 C 0.41478 0.7512 0.12459 0.0
C1971 C 0.4049 0.76595 0.08445 0.0
N1972 N 0.43307 0.78308 0.15088 0.0
N1973 N 0.41645 0.77817 0.0967 0.0
H1974 H 0.26545 0.38554 0.06074 0.0
H1975 H 0.24665 0.43587 0.17331 0.0
H1976 H 0.31385 0.3842 0.10538 0.0
H1977 H 0.22174 0.46208 0.11584 0.0
H1978 H 0.26626 0.41018 0.15206 0.0
H1979 H 0.24314 0.40618 0.08511 0.0
C1980 C 0.27117 0.38925 0.07588 0.0
C1981 C 0.29148 0.3833 0.08111 0.0
C1982 C 0.25633 0.42153 0.14428 0.0
C1983 C 0.26622 0.40687 0.10883 0.0
C1984 C 0.24525 0.4363 0.15631 0.0
C1985 C 0.23244 0.45126 0.14642 0.0
C1986 C 0.25423 0.4215 0.12235 0.0
C1987 C 0.23096 0.45066 0.12435 0.0
C1988 C 0.25855 0.40113 0.08965 0.0
C1989 C 0.29831 0.3887 0.10078 0.0
N1990 N 0.24166 0.43599 0.11311 0.0
N1991 N 0.28568 0.40028 0.114 0.0
H1992 H 0.90209 0.58398 0.82513 0.0
H1993 H 0.94553 0.62308 0.71191 0.0
H1994 H 0.90347 0.53843 0.77658 0.0
H1995 H 0.98942 0.62463 0.76081 0.0
H1996 H 0.92198 0.59934 0.73547 0.0
H1997 H 0.92676 0.607 0.80177 0.0
C1998 C 0.90762 0.57887 0.80958 0.0
C1999 C 0.90105 0.55923 0.8028 0.0
C2000 C 0.93686 0.60482 0.74089 0.0
C2001 C 0.92826 0.58562 0.77601 0.0
C2002 C 0.95035 0.61812 0.72747 0.0
C2003 C 0.96981 0.62504 0.73419 0.0
C2004 C 0.94243 0.5993 0.76146 0.0
C2005 C 0.97476 0.61917 0.75495 0.0
C2006 C 0.92159 0.59194 0.79636 0.0
C2007 C 0.90828 0.55345 0.78235 0.0
N2008 N 0.96104 0.60671 0.768 0.0
N2009 N 0.92135 0.56672 0.76952 0.0
H2010 H 0.92582 0.4862 0.2371 0.0
H2011 H 0.93695 0.37289 0.29547 0.0
H2012 H 0.87434 0.44025 0.24569 0.0
H2013 H 0.97912 0.42554 0.30373 0.0
H2014 H 0.91436 0.39677 0.27585 0.0
H2015 H 0.94656 0.46352 0.25999 0.0
C2016 C 0.91893 0.47131 0.24381 0.0
C2017 C 0.89842 0.46499 0.23951 0.0
C2018 C 0.92845 0.40313 0.28213 0.0
C2019 C 0.92191 0.43908 0.26561 0.0
C2020 C 0.94134 0.38952 0.29323 0.0
C2021 C 0.95988 0.39732 0.30113 0.0
C2022 C 0.93435 0.42459 0.27866 0.0
C2023 C 0.96485 0.41898 0.29799 0.0
C2024 C 0.93068 0.45847 0.25697 0.0
C2025 C 0.89007 0.4457 0.24875 0.0
N2026 N 0.95225 0.43186 0.28679 0.0
N2027 N 0.90193 0.43332 0.26126 0.0
H2028 H 0.65013 0.99824 0.2983 0.0
H2029 H 0.57538 0.8965 0.28983 0.0
H2030 H 0.64787 0.94529 0.34423 0.0
H2031 H 0.59793 0.9362 0.23462 0.0
H2032 H 0.59851 0.91618 0.31121 0.0
H2033 H 0.62773 0.978 0.27608 0.0
C2034 C 0.64486 0.98236 0.30372 0.0
C2035 C 0.65073 0.97352 0.32325 0.0
C2036 C 0.59841 0.92054 0.29439 0.0
C2037 C 0.62485 0.9503 0.29801 0.0
C2038 C 0.58525 0.90916 0.28199 0.0
C2039 C 0.58453 0.91435 0.26005 0.0
C2040 C 0.61085 0.93765 0.28509 0.0
C2041 C 0.59745 0.93157 0.25139 0.0
C2042 C 0.6321 0.97081 0.29103 0.0
C2043 C 0.64349 0.95283 0.32945 0.0
N2044 N 0.60991 0.94257 0.26388 0.0
N2045 N 0.63083 0.94202 0.317 0.0
H2046 H 0.14428 0.58372 0.27447 0.0
H2047 H 0.04474 0.65484 0.26828 0.0
H2048 H 0.12665 0.61123 0.21434 0.0
H2049 H 0.08516 0.66129 0.3196 0.0
H2050 H 0.0724 0.63457 0.24948 0.0
H2051 H 0.12112 0.60872 0.2929 0.0
C2052 C 0.13586 0.59517 0.2651 0.0
C2053 C 0.1372 0.59511 0.24277 0.0
C2054 C 0.07525 0.64054 0.2648 0.0
C2055 C 0.11035 0.62316 0.26382 0.0
C2056 C 0.05952 0.65197 0.27549 0.0
C2057 C 0.06285 0.6596 0.29539 0.0
C2058 C 0.09415 0.63632 0.27437 0.0
C2059 C 0.08213 0.65549 0.30427 0.0
C2060 C 0.12259 0.60933 0.27567 0.0
C2061 C 0.12565 0.6102 0.23156 0.0
N2062 N 0.09707 0.64383 0.29378 0.0
N2063 N 0.11243 0.62339 0.24221 0.0
H2064 H 0.49286 0.13641 0.23612 0.0
H2065 H 0.37919 0.10977 0.29821 0.0
H2066 H 0.4368 0.17247 0.22637 0.0
H2067 H 0.43476 0.07209 0.30611 0.0
H2068 H 0.40018 0.1334 0.27258 0.0
H2069 H 0.47201 0.11296 0.26238 0.0
C2070 C 0.47611 0.13929 0.23958 0.0
C2071 C 0.46643 0.15631 0.22931 0.0
C2072 C 0.40781 0.12 0.27995 0.0
C2073 C 0.44252 0.12978 0.25918 0.0
C2074 C 0.3958 0.10644 0.29455 0.0
C2075 C 0.40518 0.08884 0.30432 0.0
C2076 C 0.42939 0.11597 0.27501 0.0
C2077 C 0.42689 0.08556 0.29919 0.0
C2078 C 0.46423 0.12599 0.25453 0.0
C2079 C 0.44474 0.1595 0.23414 0.0
N2080 N 0.43822 0.09895 0.28485 0.0
N2081 N 0.43349 0.14637 0.24878 0.0
H2082 H 0.06337 0.40762 0.72524 0.0
H2083 H 0.16576 0.41898 0.79133 0.0
H2084 H 0.10373 0.35493 0.73852 0.0
H2085 H 0.11264 0.46088 0.79749 0.0
H2086 H 0.14575 0.39719 0.7684 0.0
H2087 H 0.08372 0.42925 0.74792 0.0
C2088 C 0.07661 0.40063 0.73279 0.0
C2089 C 0.08182 0.37938 0.72991 0.0
C2090 C 0.13847 0.41113 0.7748 0.0
C2091 C 0.10531 0.40418 0.75594 0.0
C2092 C 0.14992 0.42365 0.78781 0.0
C2093 C 0.14088 0.4418 0.79645 0.0
C2094 C 0.11792 0.41697 0.76998 0.0
C2095 C 0.1202 0.44694 0.7914 0.0
C2096 C 0.08814 0.41296 0.74587 0.0
C2097 C 0.09903 0.37116 0.74037 0.0
N2098 N 0.10952 0.43472 0.77843 0.0
N2099 N 0.11022 0.38358 0.75277 0.0
H2100 H 0.60172 0.16956 0.82791 0.0
H2101 H 0.60198 0.05795 0.77401 0.0
H2102 H 0.54539 0.13255 0.82013 0.0
H2103 H 0.65853 0.09608 0.77826 0.0
H2104 H 0.58156 0.08328 0.79466 0.0
H2105 H 0.62353 0.14089 0.8137 0.0
C2106 C 0.59408 0.15522 0.8234 0.0
C2107 C 0.57193 0.15323 0.8249 0.0
C2108 C 0.59846 0.08608 0.79119 0.0
C2109 C 0.59639 0.12069 0.80872 0.0
C2110 C 0.61009 0.07169 0.77931 0.0
C2111 C 0.6319 0.07509 0.7742 0.0
C2112 C 0.6087 0.10408 0.79795 0.0
C2113 C 0.64173 0.09287 0.78188 0.0
C2114 C 0.60642 0.13894 0.81529 0.0
C2115 C 0.56251 0.13451 0.81903 0.0
N2116 N 0.63 0.10683 0.79323 0.0
N2117 N 0.57481 0.11897 0.81102 0.0
H2118 H 0.46208 0.91804 0.81222 0.0
H2119 H 0.36188 0.92337 0.74196 0.0
H2120 H 0.42382 0.86333 0.80079 0.0
H2121 H 0.40016 0.97767 0.75395 0.0
H2122 H 0.38383 0.90103 0.76416 0.0
H2123 H 0.43888 0.94024 0.7918 0.0
C2124 C 0.44867 0.91072 0.80557 0.0
C2125 C 0.44486 0.88879 0.80825 0.0
C2126 C 0.38742 0.91783 0.76201 0.0
C2127 C 0.41839 0.91409 0.78455 0.0
C2128 C 0.37493 0.93048 0.7494 0.0
C2129 C 0.37938 0.9522 0.74635 0.0
C2130 C 0.40446 0.92706 0.77148 0.0
C2131 C 0.39637 0.9609 0.75609 0.0
C2132 C 0.43551 0.92339 0.79379 0.0
C2133 C 0.42749 0.88012 0.79892 0.0
N2134 N 0.40835 0.94828 0.76824 0.0
N2135 N 0.41489 0.8928 0.78747 0.0
loop_
_geom_bond_atom_site_label_1
_geom_bond_atom_site_label_2
_geom_bond_distance
_geom_bond_site_symmetry_2
_ccdc_geom_bond_type
C0 C1 1.443 . S
C0 N4 1.376 1_565 S
C0 C38 1.389 . S
C1 C0 1.443 . S
C1 C2 1.338 . S
C1 H41 0.951 . S
C2 C1 1.338 . S
C2 C3 1.441 1_565 S
C2 H42 0.950 1_565 S
C3 C2 1.441 1_545 S
C3 N4 1.374 . S
C3 C37 1.395 . S
N4 C0 1.376 1_545 S
N4 C3 1.374 . S
N4 Co5 2.008 . S
Co5 N4 2.008 . S
Co5 N6 1.995 . S
Co5 N11 2.008 . S
Co5 N16 1.995 . S
Co5 N21 2.282 1_545 S
Co5 N27 2.282 . S
N6 Co5 1.995 . S
N6 C7 1.376 . S
N6 C10 1.383 . S
C7 N6 1.376 . S
C7 C8 1.446 . S
C7 C37 1.391 . S
C8 C7 1.446 . S
C8 C9 1.339 . S
C8 H43 0.949 . S
C9 C8 1.339 . S
C9 C10 1.439 . S
C9 H44 0.950 . S
C10 N6 1.383 . S
C10 C9 1.439 . S
C10 C39 1.392 . S
N11 Co5 2.008 . S
N11 C12 1.376 . S
N11 C15 1.374 . S
C12 N11 1.376 . S
C12 C13 1.443 . S
C12 C39 1.389 . S
C13 C12 1.443 . S
C13 C14 1.340 . S
C13 H45 0.951 . S
C14 C13 1.340 . S
C14 C15 1.439 . S
C14 H46 0.950 . S
C15 N11 1.374 . S
C15 C14 1.439 . S
C15 C40 1.395 . S
N16 Co5 1.995 . S
N16 C17 1.376 . S
N16 C20 1.383 1_545 S
C17 N16 1.376 . S
C17 C18 1.446 1_545 S
C17 C40 1.391 . S
C18 C17 1.446 1_565 S
C18 C19 1.339 . S
C18 H47 0.949 . S
C19 C18 1.339 . S
C19 C20 1.439 . S
C19 H48 0.950 . S
C20 N16 1.383 1_565 S
C20 C19 1.439 . S
C20 C38 1.392 . S
N21 Co5 2.282 1_565 S
N21 C24 1.332 . S
N21 C26 1.332 . S
C22 C23 1.386 . S
C22 C25 1.388 . S
C23 C22 1.386 . S
C23 C24 1.382 . S
C23 H49 0.950 . S
C24 N21 1.332 . S
C24 C23 1.382 . S
C24 H35 0.952 . S
C25 C22 1.388 . S
C25 C26 1.382 . S
C25 H50 0.950 . S
C26 N21 1.332 . S
C26 C25 1.382 . S
C26 H36 0.948 . S
N27 Co5 2.282 . S
N27 C31 1.332 . S
N27 C32 1.332 . S
C28 C29 1.388 . S
C28 C32 1.382 . S
C28 H51 0.950 . S
C29 C28 1.388 . S
C29 C30 1.386 . S
C30 C29 1.386 . S
C30 C31 1.382 . S
C30 H52 0.950 . S
C31 N27 1.332 . S
C31 C30 1.382 . S
C31 H33 0.952 . S
C32 N27 1.332 . S
C32 C28 1.382 . S
C32 H34 0.948 . S
H33 C31 0.952 . S
H34 C32 0.948 . S
H35 C24 0.952 . S
H36 C26 0.948 . S
C37 C3 1.395 . S
C37 C7 1.391 . S
C38 C0 1.389 . S
C38 C20 1.392 . S
C39 C10 1.392 . S
C39 C12 1.389 . S
C40 C15 1.395 . S
C40 C17 1.391 . S
H41 C1 0.951 . S
H42 C2 0.950 1_545 S
H43 C8 0.949 . S
H44 C9 0.950 . S
H45 C13 0.951 . S
H46 C14 0.950 . S
H47 C18 0.949 . S
H48 C19 0.950 . S
H49 C23 0.950 . S
H50 C25 0.950 . S
H51 C28 0.950 . S
H52 C30 0.950 . S
C53 C54 1.443 . S
C53 N57 1.376 . S
C53 C91 1.389 . S
C54 C53 1.443 . S
C54 C55 1.340 . S
C54 H94 0.951 . S
C55 C54 1.340 . S
C55 C56 1.439 . S
C55 H95 0.950 . S
C56 C55 1.439 . S
C56 N57 1.374 . S
C56 C90 1.395 . S
N57 C53 1.376 . S
N57 C56 1.374 . S
N57 Co58 2.008 . S
Co58 N57 2.008 . S
Co58 N59 1.995 . S
Co58 N64 2.008 . S
Co58 N69 1.995 . S
Co58 N74 2.282 . S
Co58 N80 2.282 1_455 S
N59 Co58 1.995 . S
N59 C60 1.376 . S
N59 C63 1.383 1_455 S
C60 N59 1.376 . S
C60 C61 1.446 1_455 S
C60 C90 1.391 . S
C61 C60 1.446 1_655 S
C61 C62 1.339 . S
C61 H96 0.949 . S
C62 C61 1.339 . S
C62 C63 1.439 . S
C62 H97 0.950 . S
C63 N59 1.383 1_655 S
C63 C62 1.439 . S
C63 C92 1.392 . S
N64 Co58 2.008 . S
N64 C65 1.376 1_455 S
N64 C68 1.374 . S
C65 N64 1.376 1_655 S
C65 C66 1.443 . S
C65 C92 1.389 . S
C66 C65 1.443 . S
C66 C67 1.340 1_655 S
C66 H98 0.951 . S
C67 C66 1.340 1_455 S
C67 C68 1.439 . S
C67 H99 0.950 . S
C68 N64 1.374 . S
C68 C67 1.439 . S
C68 C93 1.395 . S
N69 Co58 1.995 . S
N69 C70 1.376 . S
N69 C73 1.383 . S
C70 N69 1.376 . S
C70 C71 1.446 . S
C70 C93 1.391 . S
C71 C70 1.446 . S
C71 C72 1.339 . S
C71 H100 0.949 . S
C72 C71 1.339 . S
C72 C73 1.439 . S
C72 H101 0.950 . S
C73 N69 1.383 . S
C73 C72 1.439 . S
C73 C91 1.392 . S
N74 Co58 2.282 . S
N74 C77 1.332 . S
N74 C79 1.332 . S
C75 C76 1.386 . S
C75 C78 1.388 . S
C76 C75 1.386 . S
C76 C77 1.382 . S
C76 H102 0.950 . S
C77 N74 1.332 . S
C77 C76 1.382 . S
C77 H88 0.952 . S
C78 C75 1.388 . S
C78 C79 1.382 . S
C78 H103 0.950 . S
C79 N74 1.332 . S
C79 C78 1.382 . S
C79 H89 0.948 . S
N80 Co58 2.282 1_655 S
N80 C84 1.332 . S
N80 C85 1.332 . S
C81 C82 1.388 . S
C81 C85 1.382 . S
C81 H104 0.950 . S
C82 C81 1.388 . S
C82 C83 1.386 . S
C83 C82 1.386 . S
C83 C84 1.382 . S
C83 H105 0.950 . S
C84 N80 1.332 . S
C84 C83 1.382 . S
C84 H86 0.952 . S
C85 N80 1.332 . S
C85 C81 1.382 . S
C85 H87 0.948 1_655 S
H86 C84 0.952 . S
H87 C85 0.948 1_455 S
H88 C77 0.952 . S
H89 C79 0.948 . S
C90 C56 1.395 . S
C90 C60 1.391 . S
C91 C53 1.389 . S
C91 C73 1.392 . S
C92 C63 1.392 . S
C92 C65 1.389 . S
C93 C68 1.395 . S
C93 C70 1.391 . S
H94 C54 0.951 . S
H95 C55 0.950 . S
H96 C61 0.949 . S
H97 C62 0.950 . S
H98 C66 0.951 . S
H99 C67 0.950 . S
H100 C71 0.949 . S
H101 C72 0.950 . S
H102 C76 0.950 . S
H103 C78 0.950 . S
H104 C81 0.950 . S
H105 C83 0.950 . S
C106 C107 1.443 . S
C106 N110 1.376 1_565 S
C106 C144 1.389 . S
C107 C106 1.443 . S
C107 C108 1.336 1_565 S
C107 H147 0.951 . S
C108 C107 1.336 1_545 S
C108 C109 1.443 . S
C108 H148 0.950 . S
C109 C108 1.443 . S
C109 N110 1.374 . S
C109 C143 1.395 . S
N110 C106 1.376 1_545 S
N110 C109 1.374 . S
N110 Co111 2.008 . S
Co111 N110 2.008 . S
Co111 N112 1.995 . S
Co111 N117 2.008 . S
Co111 N122 2.014 . S
Co111 N127 2.282 1_545 S
Co111 N133 2.282 . S
N112 Co111 1.995 . S
N112 C113 1.376 . S
N112 C116 1.383 . S
C113 N112 1.376 . S
C113 C114 1.446 . S
C113 C143 1.391 . S
C114 C113 1.446 . S
C114 C115 1.339 . S
C114 H149 0.949 . S
C115 C114 1.339 . S
C115 C116 1.439 . S
C115 H150 0.950 . S
C116 N112 1.383 . S
C116 C115 1.439 . S
C116 C145 1.392 . S
N117 Co111 2.008 . S
N117 C118 1.376 . S
N117 C121 1.374 . S
C118 N117 1.376 . S
C118 C119 1.443 . S
C118 C145 1.389 . S
C119 C118 1.443 . S
C119 C120 1.340 . S
C119 H151 0.951 . S
C120 C119 1.340 . S
C120 C121 1.439 . S
C120 H152 0.950 . S
C121 N117 1.374 . S
C121 C120 1.439 . S
C121 C146 1.395 . S
N122 Co111 2.014 . S
N122 C123 1.377 . S
N122 C126 1.361 1_545 S
C123 N122 1.377 . S
C123 C124 1.433 1_545 S
C123 C146 1.405 . S
C124 C123 1.433 1_565 S
C124 C125 1.339 . S
C124 H153 0.949 . S
C125 C124 1.339 . S
C125 C126 1.439 . S
C125 H154 0.950 . S
C126 N122 1.361 1_565 S
C126 C125 1.439 . S
C126 C144 1.392 . S
N127 Co111 2.282 1_565 S
N127 C130 1.332 . S
N127 C132 1.332 . S
C128 C129 1.386 . S
C128 C131 1.388 . S
C129 C128 1.386 . S
C129 C130 1.382 . S
C129 H155 0.950 . S
C130 N127 1.332 . S
C130 C129 1.382 . S
C130 H141 0.952 . S
C131 C128 1.388 . S
C131 C132 1.382 . S
C131 H156 0.950 . S
C132 N127 1.332 . S
C132 C131 1.382 . S
C132 H142 0.948 . S
N133 Co111 2.282 . S
N133 C137 1.332 . S
N133 C138 1.332 . S
C134 C135 1.388 . S
C134 C138 1.382 . S
C134 H157 0.950 . S
C135 C134 1.388 . S
C135 C136 1.386 . S
C136 C135 1.386 . S
C136 C137 1.382 . S
C136 H158 0.950 . S
C137 N133 1.332 . S
C137 C136 1.382 . S
C137 H139 0.952 . S
C138 N133 1.332 . S
C138 C134 1.382 . S
C138 H140 0.948 . S
H139 C137 0.952 . S
H140 C138 0.948 . S
H141 C130 0.952 . S
H142 C132 0.948 . S
C143 C109 1.395 . S
C143 C113 1.391 . S
C144 C106 1.389 . S
C144 C126 1.392 . S
C145 C116 1.392 . S
C145 C118 1.389 . S
C146 C121 1.395 . S
C146 C123 1.405 . S
H147 C107 0.951 . S
H148 C108 0.950 . S
H149 C114 0.949 . S
H150 C115 0.950 . S
H151 C119 0.951 . S
H152 C120 0.950 . S
H153 C124 0.949 . S
H154 C125 0.950 . S
H155 C129 0.950 . S
H156 C131 0.950 . S
H157 C134 0.950 . S
H158 C136 0.950 . S
C159 C160 1.443 . S
C159 N163 1.376 . S
C159 C197 1.389 . S
C160 C159 1.443 . S
C160 C161 1.340 . S
C160 H200 0.951 . S
C161 C160 1.340 . S
C161 C162 1.439 . S
C161 H201 0.950 . S
C162 C161 1.439 . S
C162 N163 1.374 . S
C162 C196 1.395 1_655 S
N163 C159 1.376 . S
N163 C162 1.374 . S
N163 Co164 2.002 1_655 S
Co164 N163 2.002 1_455 S
Co164 N165 2.003 . S
Co164 N170 2.015 . S
Co164 N175 1.986 1_455 S
Co164 N180 2.271 1_455 S
Co164 N186 2.294 . S
N165 Co164 2.003 . S
N165 C166 1.376 . S
N165 C169 1.383 . S
C166 N165 1.376 . S
C166 C167 1.446 . S
C166 C196 1.391 . S
C167 C166 1.446 . S
C167 C168 1.339 . S
C167 H202 0.949 . S
C168 C167 1.339 . S
C168 C169 1.439 . S
C168 H203 0.950 . S
C169 N165 1.383 . S
C169 C168 1.439 . S
C169 C198 1.392 . S
N170 Co164 2.015 . S
N170 C171 1.376 . S
N170 C174 1.374 . S
C171 N170 1.376 . S
C171 C172 1.443 . S
C171 C198 1.389 . S
C172 C171 1.443 . S
C172 C173 1.340 . S
C172 H204 0.951 . S
C173 C172 1.340 . S
C173 C174 1.439 . S
C173 H205 0.950 . S
C174 N170 1.374 . S
C174 C173 1.439 . S
C174 C199 1.395 1_455 S
N175 Co164 1.986 1_655 S
N175 C176 1.376 . S
N175 C179 1.383 . S
C176 N175 1.376 . S
C176 C177 1.446 . S
C176 C199 1.391 . S
C177 C176 1.446 . S
C177 C178 1.339 . S
C177 H206 0.949 . S
C178 C177 1.339 . S
C178 C179 1.439 . S
C178 H207 0.950 . S
C179 N175 1.383 . S
C179 C178 1.439 . S
C179 C197 1.392 . S
N180 Co164 2.271 1_655 S
N180 C183 1.332 . S
N180 C185 1.332 . S
C181 C182 1.386 . S
C181 C184 1.388 . S
C182 C181 1.386 . S
C182 C183 1.382 . S
C182 H208 0.950 . S
C183 N180 1.332 . S
C183 C182 1.382 . S
C183 H194 0.952 . S
C184 C181 1.388 . S
C184 C185 1.382 . S
C184 H209 0.950 . S
C185 N180 1.332 . S
C185 C184 1.382 . S
C185 H195 0.948 . S
N186 Co164 2.294 . S
N186 C190 1.332 . S
N186 C191 1.332 . S
C187 C188 1.388 . S
C187 C191 1.382 . S
C187 H210 0.950 . S
C188 C187 1.388 . S
C188 C189 1.386 . S
C189 C188 1.386 . S
C189 C190 1.382 . S
C189 H211 0.950 . S
C190 N186 1.332 . S
C190 C189 1.382 . S
C190 H192 0.952 . S
C191 N186 1.332 . S
C191 C187 1.382 . S
C191 H193 0.948 . S
H192 C190 0.952 . S
H193 C191 0.948 . S
H194 C183 0.952 . S
H195 C185 0.948 . S
C196 C162 1.395 1_455 S
C196 C166 1.391 . S
C197 C159 1.389 . S
C197 C179 1.392 . S
C198 C169 1.392 . S
C198 C171 1.389 . S
C199 C174 1.395 1_655 S
C199 C176 1.391 . S
H200 C160 0.951 . S
H201 C161 0.950 . S
H202 C167 0.949 . S
H203 C168 0.950 . S
H204 C172 0.951 . S
H205 C173 0.950 . S
H206 C177 0.949 . S
H207 C178 0.950 . S
H208 C182 0.950 . S
H209 C184 0.950 . S
H210 C187 0.950 . S
H211 C189 0.950 . S
C212 C213 1.443 . S
C212 N216 1.376 . S
C212 C250 1.389 . S
C213 C212 1.443 . S
C213 C214 1.340 . S
C213 H253 0.951 . S
C214 C213 1.340 . S
C214 C215 1.439 . S
C214 H254 0.950 . S
C215 C214 1.439 . S
C215 N216 1.374 . S
C215 C249 1.395 1_565 S
N216 C212 1.376 . S
N216 C215 1.374 . S
N216 Co217 2.008 1_565 S
Co217 N216 2.008 1_545 S
Co217 N218 1.995 . S
Co217 N223 2.008 . S
Co217 N228 1.995 1_545 S
Co217 N233 2.282 1_545 S
Co217 N239 2.282 . S
N218 Co217 1.995 . S
N218 C219 1.376 . S
N218 C222 1.383 . S
C219 N218 1.376 . S
C219 C220 1.446 . S
C219 C249 1.391 . S
C220 C219 1.446 . S
C220 C221 1.339 . S
C220 H255 0.949 . S
C221 C220 1.339 . S
C221 C222 1.439 . S
C221 H256 0.950 . S
C222 N218 1.383 . S
C222 C221 1.439 . S
C222 C251 1.392 . S
N223 Co217 2.008 . S
N223 C224 1.376 . S
N223 C227 1.374 . S
C224 N223 1.376 . S
C224 C225 1.443 . S
C224 C251 1.389 . S
C225 C224 1.443 . S
C225 C226 1.340 . S
C225 H257 0.951 . S
C226 C225 1.340 . S
C226 C227 1.439 . S
C226 H258 0.950 . S
C227 N223 1.374 . S
C227 C226 1.439 . S
C227 C252 1.395 . S
N228 Co217 1.995 1_565 S
N228 C229 1.376 . S
N228 C232 1.383 . S
C229 N228 1.376 . S
C229 C230 1.446 . S
C229 C252 1.391 1_565 S
C230 C229 1.446 . S
C230 C231 1.339 . S
C230 H259 0.949 . S
C231 C230 1.339 . S
C231 C232 1.439 . S
C231 H260 0.950 . S
C232 N228 1.383 . S
C232 C231 1.439 . S
C232 C250 1.392 . S
N233 Co217 2.282 1_565 S
N233 C236 1.332 . S
N233 C238 1.332 . S
C234 C235 1.386 . S
C234 C237 1.388 . S
C235 C234 1.386 . S
C235 C236 1.382 . S
C235 H261 0.950 . S
C236 N233 1.332 . S
C236 C235 1.382 . S
C236 H247 0.952 . S
C237 C234 1.388 . S
C237 C238 1.382 . S
C237 H262 0.950 . S
C238 N233 1.332 . S
C238 C237 1.382 . S
C238 H248 0.948 . S
N239 Co217 2.282 . S
N239 C243 1.332 . S
N239 C244 1.332 . S
C240 C241 1.388 . S
C240 C244 1.382 . S
C240 H263 0.950 . S
C241 C240 1.388 . S
C241 C242 1.386 . S
C242 C241 1.386 . S
C242 C243 1.382 . S
C242 H264 0.950 . S
C243 N239 1.332 . S
C243 C242 1.382 . S
C243 H245 0.952 . S
C244 N239 1.332 . S
C244 C240 1.382 . S
C244 H246 0.948 . S
H245 C243 0.952 . S
H246 C244 0.948 . S
H247 C236 0.952 . S
H248 C238 0.948 . S
C249 C215 1.395 1_545 S
C249 C219 1.391 . S
C250 C212 1.389 . S
C250 C232 1.392 . S
C251 C222 1.392 . S
C251 C224 1.389 . S
C252 C227 1.395 . S
C252 C229 1.391 1_545 S
H253 C213 0.951 . S
H254 C214 0.950 . S
H255 C220 0.949 . S
H256 C221 0.950 . S
H257 C225 0.951 . S
H258 C226 0.950 . S
H259 C230 0.949 . S
H260 C231 0.950 . S
H261 C235 0.950 . S
H262 C237 0.950 . S
H263 C240 0.950 . S
H264 C242 0.950 . S
C265 C266 1.443 . S
C265 N269 1.376 1_655 S
C265 C303 1.389 . S
C266 C265 1.443 . S
C266 C267 1.340 1_655 S
C266 H306 0.951 . S
C267 C266 1.340 1_455 S
C267 C268 1.439 . S
C267 H307 0.950 . S
C268 C267 1.439 . S
C268 N269 1.374 . S
C268 C302 1.395 . S
N269 C265 1.376 1_455 S
N269 C268 1.374 . S
N269 Co270 2.008 . S
Co270 N269 2.008 . S
Co270 N271 1.995 . S
Co270 N276 2.008 . S
Co270 N281 1.995 . S
Co270 N286 2.282 1_455 S
Co270 N292 2.282 . S
N271 Co270 1.995 . S
N271 C272 1.376 . S
N271 C275 1.383 . S
C272 N271 1.376 . S
C272 C273 1.446 . S
C272 C302 1.391 . S
C273 C272 1.446 . S
C273 C274 1.339 . S
C273 H308 0.949 . S
C274 C273 1.339 . S
C274 C275 1.439 . S
C274 H309 0.950 . S
C275 N271 1.383 . S
C275 C274 1.439 . S
C275 C304 1.392 . S
N276 Co270 2.008 . S
N276 C277 1.376 . S
N276 C280 1.374 . S
C277 N276 1.376 . S
C277 C278 1.443 . S
C277 C304 1.389 . S
C278 C277 1.443 . S
C278 C279 1.340 . S
C278 H310 0.951 . S
C279 C278 1.340 . S
C279 C280 1.439 . S
C279 H311 0.950 . S
C280 N276 1.374 . S
C280 C279 1.439 . S
C280 C305 1.395 . S
N281 Co270 1.995 . S
N281 C282 1.376 . S
N281 C285 1.383 1_455 S
C282 N281 1.376 . S
C282 C283 1.446 1_455 S
C282 C305 1.391 . S
C283 C282 1.446 1_655 S
C283 C284 1.339 . S
C283 H312 0.949 . S
C284 C283 1.339 . S
C284 C285 1.439 . S
C284 H313 0.950 . S
C285 N281 1.383 1_655 S
C285 C284 1.439 . S
C285 C303 1.392 . S
N286 Co270 2.282 1_655 S
N286 C289 1.332 . S
N286 C291 1.332 . S
C287 C288 1.386 . S
C287 C290 1.388 . S
C288 C287 1.386 . S
C288 C289 1.382 . S
C288 H314 0.950 . S
C289 N286 1.332 . S
C289 C288 1.382 . S
C289 H300 0.952 . S
C290 C287 1.388 . S
C290 C291 1.382 . S
C290 H315 0.950 . S
C291 N286 1.332 . S
C291 C290 1.382 . S
C291 H301 0.948 1_655 S
N292 Co270 2.282 . S
N292 C296 1.332 . S
N292 C297 1.332 . S
C293 C294 1.388 . S
C293 C297 1.382 . S
C293 H316 0.950 . S
C294 C293 1.388 . S
C294 C295 1.386 . S
C295 C294 1.386 . S
C295 C296 1.382 . S
C295 H317 0.950 . S
C296 N292 1.332 . S
C296 C295 1.382 . S
C296 H298 0.952 . S
C297 N292 1.332 . S
C297 C293 1.382 . S
C297 H299 0.948 . S
H298 C296 0.952 . S
H299 C297 0.948 . S
H300 C289 0.952 . S
H301 C291 0.948 1_455 S
C302 C268 1.395 . S
C302 C272 1.391 . S
C303 C265 1.389 . S
C303 C285 1.392 . S
C304 C275 1.392 . S
C304 C277 1.389 . S
C305 C280 1.395 . S
C305 C282 1.391 . S
H306 C266 0.951 . S
H307 C267 0.950 . S
H308 C273 0.949 . S
H309 C274 0.950 . S
H310 C278 0.951 . S
H311 C279 0.950 . S
H312 C283 0.949 . S
H313 C284 0.950 . S
H314 C288 0.950 . S
H315 C290 0.950 . S
H316 C293 0.950 . S
H317 C295 0.950 . S
C318 C319 1.443 . S
C318 N322 1.376 . S
C318 C356 1.389 . S
C319 C318 1.443 . S
C319 C320 1.340 . S
C319 H359 0.951 . S
C320 C319 1.340 . S
C320 C321 1.439 . S
C320 H360 0.950 . S
C321 C320 1.439 . S
C321 N322 1.374 . S
C321 C355 1.409 . S
N322 C318 1.376 . S
N322 C321 1.374 . S
N322 Co323 2.008 . S
Co323 N322 2.008 . S
Co323 N324 1.995 1_545 S
Co323 N329 2.008 1_545 S
Co323 N334 1.995 . S
Co323 N339 2.282 . S
Co323 N345 2.282 1_545 S
N324 Co323 1.995 1_565 S
N324 C325 1.376 . S
N324 C328 1.383 . S
C325 N324 1.376 . S
C325 C326 1.446 . S
C325 C355 1.379 1_565 S
C326 C325 1.446 . S
C326 C327 1.339 . S
C326 H361 0.949 . S
C327 C326 1.339 . S
C327 C328 1.439 . S
C327 H362 0.950 . S
C328 N324 1.383 . S
C328 C327 1.439 . S
C328 C357 1.392 . S
N329 Co323 2.008 1_565 S
N329 C330 1.376 . S
N329 C333 1.374 . S
C330 N329 1.376 . S
C330 C331 1.443 . S
C330 C357 1.389 . S
C331 C330 1.443 . S
C331 C332 1.340 . S
C331 H363 0.951 . S
C332 C331 1.340 . S
C332 C333 1.439 . S
C332 H364 0.950 . S
C333 N329 1.374 . S
C333 C332 1.439 . S
C333 C358 1.395 1_565 S
N334 Co323 1.995 . S
N334 C335 1.376 . S
N334 C338 1.383 . S
C335 N334 1.376 . S
C335 C336 1.446 . S
C335 C358 1.391 . S
C336 C335 1.446 . S
C336 C337 1.339 . S
C336 H365 0.949 . S
C337 C336 1.339 . S
C337 C338 1.439 . S
C337 H366 0.950 . S
C338 N334 1.383 . S
C338 C337 1.439 . S
C338 C356 1.392 . S
N339 Co323 2.282 . S
N339 C342 1.332 . S
N339 C344 1.332 . S
C340 C341 1.386 . S
C340 C343 1.388 . S
C341 C340 1.386 . S
C341 C342 1.382 . S
C341 H367 0.950 . S
C342 N339 1.332 . S
C342 C341 1.382 . S
C342 H353 0.952 . S
C343 C340 1.388 . S
C343 C344 1.382 . S
C343 H368 0.950 . S
C344 N339 1.332 . S
C344 C343 1.382 . S
C344 H354 0.948 . S
N345 Co323 2.282 1_565 S
N345 C349 1.332 . S
N345 C350 1.332 . S
C346 C347 1.388 . S
C346 C350 1.382 . S
C346 H369 0.950 . S
C347 C346 1.388 . S
C347 C348 1.386 . S
C348 C347 1.386 . S
C348 C349 1.382 . S
C348 H370 0.950 . S
C349 N345 1.332 . S
C349 C348 1.382 . S
C349 H351 0.952 . S
C350 N345 1.332 . S
C350 C346 1.382 . S
C350 H352 0.948 . S
H351 C349 0.952 . S
H352 C350 0.948 . S
H353 C342 0.952 . S
H354 C344 0.948 . S
C355 C321 1.409 . S
C355 C325 1.379 1_545 S
C356 C318 1.389 . S
C356 C338 1.392 . S
C357 C328 1.392 . S
C357 C330 1.389 . S
C358 C333 1.395 1_545 S
C358 C335 1.391 . S
H359 C319 0.951 . S
H360 C320 0.950 . S
H361 C326 0.949 . S
H362 C327 0.950 . S
H363 C331 0.951 . S
H364 C332 0.950 . S
H365 C336 0.949 . S
H366 C337 0.950 . S
H367 C341 0.950 . S
H368 C343 0.950 . S
H369 C346 0.950 . S
H370 C348 0.950 . S
C371 C372 1.443 . S
C371 N375 1.376 1_655 S
C371 C409 1.389 . S
C372 C371 1.443 . S
C372 C373 1.340 . S
C372 H412 0.951 . S
C373 C372 1.340 . S
C373 C374 1.439 1_655 S
C373 H413 0.950 . S
C374 C373 1.439 1_455 S
C374 N375 1.374 . S
C374 C408 1.395 . S
N375 C371 1.376 1_455 S
N375 C374 1.374 . S
N375 Co376 2.008 . S
Co376 N375 2.008 . S
Co376 N377 1.995 . S
Co376 N382 2.008 . S
Co376 N387 1.995 . S
Co376 N392 2.282 1_455 S
Co376 N398 2.282 . S
N377 Co376 1.995 . S
N377 C378 1.376 . S
N377 C381 1.383 . S
C378 N377 1.376 . S
C378 C379 1.446 . S
C378 C408 1.391 . S
C379 C378 1.446 . S
C379 C380 1.339 . S
C379 H414 0.949 . S
C380 C379 1.339 . S
C380 C381 1.439 . S
C380 H415 0.950 . S
C381 N377 1.383 . S
C381 C380 1.439 . S
C381 C410 1.392 . S
N382 Co376 2.008 . S
N382 C383 1.376 . S
N382 C386 1.374 . S
C383 N382 1.376 . S
C383 C384 1.443 . S
C383 C410 1.389 . S
C384 C383 1.443 . S
C384 C385 1.340 . S
C384 H416 0.951 . S
C385 C384 1.340 . S
C385 C386 1.439 . S
C385 H417 0.950 . S
C386 N382 1.374 . S
C386 C385 1.439 . S
C386 C411 1.395 . S
N387 Co376 1.995 . S
N387 C388 1.376 . S
N387 C391 1.383 1_455 S
C388 N387 1.376 . S
C388 C389 1.446 1_455 S
C388 C411 1.391 . S
C389 C388 1.446 1_655 S
C389 C390 1.339 . S
C389 H418 0.949 . S
C390 C389 1.339 . S
C390 C391 1.439 . S
C390 H419 0.950 . S
C391 N387 1.383 1_655 S
C391 C390 1.439 . S
C391 C409 1.392 . S
N392 Co376 2.282 1_655 S
N392 C395 1.332 . S
N392 C397 1.332 . S
C393 C394 1.386 . S
C393 C396 1.388 . S
C394 C393 1.386 . S
C394 C395 1.382 . S
C394 H420 0.950 . S
C395 N392 1.332 . S
C395 C394 1.382 . S
C395 H406 0.952 . S
C396 C393 1.388 . S
C396 C397 1.382 . S
C396 H421 0.950 . S
C397 N392 1.332 . S
C397 C396 1.382 . S
C397 H407 0.957 . S
N398 Co376 2.282 . S
N398 C402 1.332 . S
N398 C403 1.332 . S
C399 C400 1.388 . S
C399 C403 1.382 . S
C399 H422 0.950 . S
C400 C399 1.388 . S
C400 C401 1.386 . S
C401 C400 1.386 . S
C401 C402 1.382 . S
C401 H423 0.950 . S
C402 N398 1.332 . S
C402 C401 1.382 . S
C402 H404 0.952 . S
C403 N398 1.332 . S
C403 C399 1.382 . S
C403 H405 0.948 . S
H404 C402 0.952 . S
H405 C403 0.948 . S
H406 C395 0.952 . S
H407 C397 0.957 . S
C408 C374 1.395 . S
C408 C378 1.391 . S
C409 C371 1.389 . S
C409 C391 1.392 . S
C410 C381 1.392 . S
C410 C383 1.389 . S
C411 C386 1.395 . S
C411 C388 1.391 . S
H412 C372 0.951 . S
H413 C373 0.950 . S
H414 C379 0.949 . S
H415 C380 0.950 . S
H416 C384 0.951 . S
H417 C385 0.950 . S
H418 C389 0.949 . S
H419 C390 0.950 . S
H420 C394 0.950 . S
H421 C396 0.950 . S
H422 C399 0.950 . S
H423 C401 0.950 . S
C424 C425 1.443 . S
C424 N428 1.376 . S
C424 C462 1.389 . S
C425 C424 1.443 . S
C425 C426 1.340 . S
C425 H465 0.951 . S
C426 C425 1.340 . S
C426 C427 1.439 . S
C426 H466 0.950 . S
C427 C426 1.439 . S
C427 N428 1.374 . S
C427 C461 1.395 1_554 S
N428 C424 1.376 . S
N428 C427 1.374 . S
N428 Co429 2.023 . S
Co429 N428 2.023 . S
Co429 N430 1.974 1_554 S
Co429 N435 1.993 1_554 S
Co429 N440 2.015 . S
Co429 N445 2.307 . S
Co429 N451 2.259 1_554 S
N430 Co429 1.974 1_556 S
N430 C431 1.376 . S
N430 C434 1.383 . S
C431 N430 1.376 . S
C431 C432 1.446 . S
C431 C461 1.391 . S
C432 C431 1.446 . S
C432 C433 1.339 . S
C432 H467 0.949 . S
C433 C432 1.339 . S
C433 C434 1.439 . S
C433 H468 0.950 . S
C434 N430 1.383 . S
C434 C433 1.439 . S
C434 C463 1.392 . S
N435 Co429 1.993 1_556 S
N435 C436 1.376 . S
N435 C439 1.374 . S
C436 N435 1.376 . S
C436 C437 1.443 . S
C436 C463 1.389 . S
C437 C436 1.443 . S
C437 C438 1.340 . S
C437 H469 0.951 . S
C438 C437 1.340 . S
C438 C439 1.439 . S
C438 H470 0.950 . S
C439 N435 1.374 . S
C439 C438 1.439 . S
C439 C464 1.395 1_556 S
N440 Co429 2.015 . S
N440 C441 1.376 . S
N440 C444 1.383 . S
C441 N440 1.376 . S
C441 C442 1.446 . S
C441 C464 1.391 . S
C442 C441 1.446 . S
C442 C443 1.339 . S
C442 H471 0.949 . S
C443 C442 1.339 . S
C443 C444 1.439 . S
C443 H472 0.950 . S
C444 N440 1.383 . S
C444 C443 1.439 . S
C444 C462 1.392 . S
N445 Co429 2.307 . S
N445 C448 1.332 . S
N445 C450 1.332 . S
C446 C447 1.386 . S
C446 C449 1.388 . S
C447 C446 1.386 . S
C447 C448 1.382 . S
C447 H473 0.950 . S
C448 N445 1.332 . S
C448 C447 1.382 . S
C448 H459 0.952 . S
C449 C446 1.388 . S
C449 C450 1.382 . S
C449 H474 0.950 . S
C450 N445 1.332 . S
C450 C449 1.382 . S
C450 H460 0.948 . S
N451 Co429 2.259 1_556 S
N451 C455 1.332 . S
N451 C456 1.332 . S
C452 C453 1.388 . S
C452 C456 1.382 . S
C452 H475 0.950 . S
C453 C452 1.388 . S
C453 C454 1.386 . S
C454 C453 1.386 . S
C454 C455 1.382 . S
C454 H476 0.950 . S
C455 N451 1.332 . S
C455 C454 1.382 . S
C455 H457 0.952 . S
C456 N451 1.332 . S
C456 C452 1.382 . S
C456 H458 0.948 . S
H457 C455 0.952 . S
H458 C456 0.948 . S
H459 C448 0.952 . S
H460 C450 0.948 . S
C461 C427 1.395 1_556 S
C461 C431 1.391 . S
C462 C424 1.389 . S
C462 C444 1.392 . S
C463 C434 1.392 . S
C463 C436 1.389 . S
C464 C439 1.395 1_554 S
C464 C441 1.391 . S
H465 C425 0.951 . S
H466 C426 0.950 . S
H467 C432 0.949 . S
H468 C433 0.950 . S
H469 C437 0.951 . S
H470 C438 0.950 . S
H471 C442 0.949 . S
H472 C443 0.950 . S
H473 C447 0.950 . S
H474 C449 0.950 . S
H475 C452 0.950 . S
H476 C454 0.950 . S
C477 C478 1.443 . S
C477 N481 1.376 . S
C477 C515 1.389 . S
C478 C477 1.443 . S
C478 C479 1.340 . S
C478 H518 0.951 . S
C479 C478 1.340 . S
C479 C480 1.439 . S
C479 H519 0.950 . S
C480 C479 1.439 . S
C480 N481 1.374 . S
C480 C514 1.395 . S
N481 C477 1.376 . S
N481 C480 1.374 . S
N481 Co482 2.008 . S
Co482 N481 2.008 . S
Co482 N483 2.018 . S
Co482 N488 2.008 . S
Co482 N493 1.995 . S
Co482 N498 2.282 . S
Co482 N504 2.282 1_554 S
N483 Co482 2.018 . S
N483 C484 1.380 . S
N483 C487 1.356 1_554 S
C484 N483 1.380 . S
C484 C485 1.446 1_554 S
C484 C514 1.391 . S
C485 C484 1.446 1_556 S
C485 C486 1.339 . S
C485 H520 0.949 . S
C486 C485 1.339 . S
C486 C487 1.439 . S
C486 H521 0.950 . S
C487 N483 1.356 1_556 S
C487 C486 1.439 . S
C487 C516 1.392 . S
N488 Co482 2.008 . S
N488 C489 1.376 1_554 S
N488 C492 1.374 . S
C489 N488 1.376 1_556 S
C489 C490 1.443 . S
C489 C516 1.389 . S
C490 C489 1.443 . S
C490 C491 1.340 . S
C490 H522 0.951 . S
C491 C490 1.340 . S
C491 C492 1.439 1_556 S
C491 H523 0.950 . S
C492 N488 1.374 . S
C492 C491 1.439 1_554 S
C492 C517 1.395 . S
N493 Co482 1.995 . S
N493 C494 1.376 . S
N493 C497 1.383 . S
C494 N493 1.376 . S
C494 C495 1.446 . S
C494 C517 1.391 . S
C495 C494 1.446 . S
C495 C496 1.339 . S
C495 H524 0.949 . S
C496 C495 1.339 . S
C496 C497 1.439 . S
C496 H525 0.950 . S
C497 N493 1.383 . S
C497 C496 1.439 . S
C497 C515 1.392 . S
N498 Co482 2.282 . S
N498 C501 1.332 . S
N498 C503 1.332 . S
C499 C500 1.386 . S
C499 C502 1.388 . S
C500 C499 1.386 . S
C500 C501 1.382 . S
C500 H526 0.950 . S
C501 N498 1.332 . S
C501 C500 1.382 . S
C501 H512 0.952 . S
C502 C499 1.388 . S
C502 C503 1.382 . S
C502 H527 0.950 . S
C503 N498 1.332 . S
C503 C502 1.382 . S
C503 H513 0.948 . S
N504 Co482 2.282 1_556 S
N504 C508 1.332 . S
N504 C509 1.332 . S
C505 C506 1.388 . S
C505 C509 1.382 . S
C505 H528 0.950 . S
C506 C505 1.388 . S
C506 C507 1.386 . S
C507 C506 1.386 . S
C507 C508 1.382 . S
C507 H529 0.950 . S
C508 N504 1.332 . S
C508 C507 1.382 . S
C508 H510 0.952 . S
C509 N504 1.332 . S
C509 C505 1.382 . S
C509 H511 0.948 . S
H510 C508 0.952 . S
H511 C509 0.948 . S
H512 C501 0.952 . S
H513 C503 0.948 . S
C514 C480 1.395 . S
C514 C484 1.391 . S
C515 C477 1.389 . S
C515 C497 1.392 . S
C516 C487 1.392 . S
C516 C489 1.389 . S
C517 C492 1.395 . S
C517 C494 1.391 . S
H518 C478 0.951 . S
H519 C479 0.950 . S
H520 C485 0.949 . S
H521 C486 0.950 . S
H522 C490 0.951 . S
H523 C491 0.950 . S
H524 C495 0.949 . S
H525 C496 0.950 . S
H526 C500 0.950 . S
H527 C502 0.950 . S
H528 C505 0.950 . S
H529 C507 0.950 . S
C530 C531 1.443 . S
C530 N534 1.376 . S
C530 C568 1.389 . S
C531 C530 1.443 . S
C531 C532 1.340 . S
C531 H571 0.951 . S
C532 C531 1.340 . S
C532 C533 1.439 . S
C532 H572 0.950 . S
C533 C532 1.439 . S
C533 N534 1.374 . S
C533 C567 1.395 . S
N534 C530 1.376 . S
N534 C533 1.374 . S
N534 Co535 2.008 . S
Co535 N534 2.008 . S
Co535 N536 1.995 . S
Co535 N541 2.008 . S
Co535 N546 1.995 . S
Co535 N551 2.282 . S
Co535 N557 2.282 . S
N536 Co535 1.995 . S
N536 C537 1.376 . S
N536 C540 1.383 1_554 S
C537 N536 1.376 . S
C537 C538 1.446 1_554 S
C537 C567 1.391 . S
C538 C537 1.446 1_556 S
C538 C539 1.339 . S
C538 H573 0.949 . S
C539 C538 1.339 . S
C539 C540 1.439 . S
C539 H574 0.950 . S
C540 N536 1.383 1_556 S
C540 C539 1.439 . S
C540 C569 1.392 . S
N541 Co535 2.008 . S
N541 C542 1.376 . S
N541 C545 1.374 . S
C542 N541 1.376 . S
C542 C543 1.443 . S
C542 C569 1.389 1_554 S
C543 C542 1.443 . S
C543 C544 1.340 . S
C543 H575 0.951 1_554 S
C544 C543 1.340 . S
C544 C545 1.439 . S
C544 H576 0.950 . S
C545 N541 1.374 . S
C545 C544 1.439 . S
C545 C570 1.395 . S
N546 Co535 1.995 . S
N546 C547 1.376 . S
N546 C550 1.383 . S
C547 N546 1.376 . S
C547 C548 1.446 . S
C547 C570 1.391 . S
C548 C547 1.446 . S
C548 C549 1.339 . S
C548 H577 0.949 . S
C549 C548 1.339 . S
C549 C550 1.439 . S
C549 H578 0.950 . S
C550 N546 1.383 . S
C550 C549 1.439 . S
C550 C568 1.392 . S
N551 Co535 2.282 . S
N551 C554 1.332 . S
N551 C556 1.332 . S
C552 C553 1.386 . S
C552 C555 1.388 . S
C553 C552 1.386 . S
C553 C554 1.382 . S
C553 H579 0.950 . S
C554 N551 1.332 . S
C554 C553 1.382 . S
C554 H565 0.952 . S
C555 C552 1.388 . S
C555 C556 1.382 . S
C555 H580 0.950 . S
C556 N551 1.332 . S
C556 C555 1.382 . S
C556 H566 0.948 . S
N557 Co535 2.282 . S
N557 C561 1.332 1_554 S
N557 C562 1.332 . S
C558 C559 1.388 . S
C558 C562 1.382 1_556 S
C558 H581 0.950 . S
C559 C558 1.388 . S
C559 C560 1.386 . S
C560 C559 1.386 . S
C560 C561 1.382 . S
C560 H582 0.950 . S
C561 N557 1.332 1_556 S
C561 C560 1.382 . S
C561 H563 0.952 . S
C562 N557 1.332 . S
C562 C558 1.382 1_554 S
C562 H564 0.948 . S
H563 C561 0.952 . S
H564 C562 0.948 . S
H565 C554 0.952 . S
H566 C556 0.948 . S
C567 C533 1.395 . S
C567 C537 1.391 . S
C568 C530 1.389 . S
C568 C550 1.392 . S
C569 C540 1.392 . S
C569 C542 1.389 1_556 S
C570 C545 1.395 . S
C570 C547 1.391 . S
H571 C531 0.951 . S
H572 C532 0.950 . S
H573 C538 0.949 . S
H574 C539 0.950 . S
H575 C543 0.951 1_556 S
H576 C544 0.950 . S
H577 C548 0.949 . S
H578 C549 0.950 . S
H579 C553 0.950 . S
H580 C555 0.950 . S
H581 C558 0.950 . S
H582 C560 0.950 . S
C583 C584 1.449 . S
C583 N587 1.376 . S
C583 C621 1.389 1_554 S
C584 C583 1.449 . S
C584 C585 1.367 . S
C584 H624 0.928 1_554 S
C585 C584 1.367 . S
C585 C586 1.439 . S
C585 H625 0.950 . S
C586 C585 1.439 . S
C586 N587 1.374 . S
C586 C620 1.395 . S
N587 C583 1.376 . S
N587 C586 1.374 . S
N587 Co588 2.008 . S
Co588 N587 2.008 . S
Co588 N589 1.995 . S
Co588 N594 2.008 . S
Co588 N599 1.995 . S
Co588 N604 2.282 . S
Co588 N610 2.282 . S
N589 Co588 1.995 . S
N589 C590 1.376 . S
N589 C593 1.383 . S
C590 N589 1.376 . S
C590 C591 1.446 . S
C590 C620 1.391 . S
C591 C590 1.446 . S
C591 C592 1.339 . S
C591 H626 0.949 . S
C592 C591 1.339 . S
C592 C593 1.439 . S
C592 H627 0.950 . S
C593 N589 1.383 . S
C593 C592 1.439 . S
C593 C622 1.392 . S
N594 Co588 2.008 . S
N594 C595 1.376 . S
N594 C598 1.374 . S
C595 N594 1.376 . S
C595 C596 1.443 . S
C595 C622 1.389 . S
C596 C595 1.443 . S
C596 C597 1.340 . S
C596 H628 0.951 . S
C597 C596 1.340 . S
C597 C598 1.439 . S
C597 H629 0.950 . S
C598 N594 1.374 . S
C598 C597 1.439 . S
C598 C623 1.395 . S
N599 Co588 1.995 . S
N599 C600 1.376 . S
N599 C603 1.379 1_554 S
C600 N599 1.376 . S
C600 C601 1.446 1_554 S
C600 C623 1.391 . S
C601 C600 1.446 1_556 S
C601 C602 1.339 . S
C601 H630 0.949 . S
C602 C601 1.339 . S
C602 C603 1.441 . S
C602 H631 0.950 . S
C603 N599 1.379 1_556 S
C603 C602 1.441 . S
C603 C621 1.393 . S
N604 Co588 2.282 . S
N604 C607 1.332 1_554 S
N604 C609 1.332 . S
C605 C606 1.386 . S
C605 C608 1.388 . S
C606 C605 1.386 . S
C606 C607 1.382 . S
C606 H632 0.950 . S
C607 N604 1.332 1_556 S
C607 C606 1.382 . S
C607 H618 0.952 . S
C608 C605 1.388 . S
C608 C609 1.382 1_556 S
C608 H633 0.950 . S
C609 N604 1.332 . S
C609 C608 1.382 1_554 S
C609 H619 0.948 . S
N610 Co588 2.282 . S
N610 C614 1.332 . S
N610 C615 1.332 . S
C611 C612 1.388 . S
C611 C615 1.382 . S
C611 H634 0.950 . S
C612 C611 1.388 . S
C612 C613 1.386 . S
C613 C612 1.386 . S
C613 C614 1.382 . S
C613 H635 0.950 . S
C614 N610 1.332 . S
C614 C613 1.382 . S
C614 H616 0.952 . S
C615 N610 1.332 . S
C615 C611 1.382 . S
C615 H617 0.948 . S
H616 C614 0.952 . S
H617 C615 0.948 . S
H618 C607 0.952 . S
H619 C609 0.948 . S
C620 C586 1.395 . S
C620 C590 1.391 . S
C621 C583 1.389 1_556 S
C621 C603 1.393 . S
C622 C593 1.392 . S
C622 C595 1.389 . S
C623 C598 1.395 . S
C623 C600 1.391 . S
H624 C584 0.928 1_556 S
H625 C585 0.950 . S
H626 C591 0.949 . S
H627 C592 0.950 . S
H628 C596 0.951 . S
H629 C597 0.950 . S
H630 C601 0.949 . S
H631 C602 0.950 . S
H632 C606 0.950 . S
H633 C608 0.950 . S
H634 C611 0.950 . S
H635 C613 0.950 . S
C636 C637 1.443 . S
C636 N640 1.376 . S
C636 C674 1.389 . S
C637 C636 1.443 . S
C637 C638 1.340 . S
C637 H677 0.951 . S
C638 C637 1.340 . S
C638 C639 1.439 . S
C638 H678 0.950 . S
C639 C638 1.439 . S
C639 N640 1.374 . S
C639 C673 1.395 . S
N640 C636 1.376 . S
N640 C639 1.374 . S
N640 Co641 2.008 . S
Co641 N640 2.008 . S
Co641 N642 1.995 . S
Co641 N647 2.008 . S
Co641 N652 1.995 . S
Co641 N657 2.282 . S
Co641 N663 2.282 . S
N642 Co641 1.995 . S
N642 C643 1.376 . S
N642 C646 1.383 . S
C643 N642 1.376 . S
C643 C644 1.446 . S
C643 C673 1.391 . S
C644 C643 1.446 . S
C644 C645 1.339 . S
C644 H679 0.949 . S
C645 C644 1.339 . S
C645 C646 1.439 . S
C645 H680 0.950 . S
C646 N642 1.383 . S
C646 C645 1.439 . S
C646 C675 1.392 . S
N647 Co641 2.008 . S
N647 C648 1.376 . S
N647 C651 1.374 . S
C648 N647 1.376 . S
C648 C649 1.443 . S
C648 C675 1.389 . S
C649 C648 1.443 . S
C649 C650 1.340 . S
C649 H681 0.951 . S
C650 C649 1.340 . S
C650 C651 1.439 . S
C650 H682 0.950 . S
C651 N647 1.374 . S
C651 C650 1.439 . S
C651 C676 1.395 . S
N652 Co641 1.995 . S
N652 C653 1.376 . S
N652 C656 1.383 . S
C653 N652 1.376 . S
C653 C654 1.446 . S
C653 C676 1.391 . S
C654 C653 1.446 . S
C654 C655 1.339 . S
C654 H683 0.949 . S
C655 C654 1.339 . S
C655 C656 1.439 . S
C655 H684 0.950 . S
C656 N652 1.383 . S
C656 C655 1.439 . S
C656 C674 1.392 . S
N657 Co641 2.282 . S
N657 C660 1.332 . S
N657 C662 1.332 . S
C658 C659 1.386 . S
C658 C661 1.388 . S
C659 C658 1.386 . S
C659 C660 1.382 . S
C659 H685 0.950 . S
C660 N657 1.332 . S
C660 C659 1.382 . S
C660 H671 0.952 . S
C661 C658 1.388 . S
C661 C662 1.382 . S
C661 H686 0.950 . S
C662 N657 1.332 . S
C662 C661 1.382 . S
C662 H672 0.948 . S
N663 Co641 2.282 . S
N663 C667 1.332 . S
N663 C668 1.332 . S
C664 C665 1.388 . S
C664 C668 1.382 . S
C664 H687 0.950 . S
C665 C664 1.388 . S
C665 C666 1.386 . S
C666 C665 1.386 . S
C666 C667 1.382 . S
C666 H688 0.950 . S
C667 N663 1.332 . S
C667 C666 1.382 . S
C667 H669 0.952 . S
C668 N663 1.332 . S
C668 C664 1.382 . S
C668 H670 0.948 . S
H669 C667 0.952 . S
H670 C668 0.948 . S
H671 C660 0.952 . S
H672 C662 0.948 . S
C673 C639 1.395 . S
C673 C643 1.391 . S
C674 C636 1.389 . S
C674 C656 1.392 . S
C675 C646 1.392 . S
C675 C648 1.389 . S
C676 C651 1.395 . S
C676 C653 1.391 . S
H677 C637 0.951 . S
H678 C638 0.950 . S
H679 C644 0.949 . S
H680 C645 0.950 . S
H681 C649 0.951 . S
H682 C650 0.950 . S
H683 C654 0.949 . S
H684 C655 0.950 . S
H685 C659 0.950 . S
H686 C661 0.950 . S
H687 C664 0.950 . S
H688 C666 0.950 . S
C689 C690 1.443 . S
C689 N693 1.376 . S
C689 C727 1.389 . S
C690 C689 1.443 . S
C690 C691 1.340 . S
C690 H730 0.951 . S
C691 C690 1.340 . S
C691 C692 1.439 . S
C691 H731 0.950 . S
C692 C691 1.439 . S
C692 N693 1.374 . S
C692 C726 1.395 . S
N693 C689 1.376 . S
N693 C692 1.374 . S
N693 Co694 2.008 . S
Co694 N693 2.008 . S
Co694 N695 1.995 . S
Co694 N700 2.008 . S
Co694 N705 1.995 . S
Co694 N710 2.282 . S
Co694 N716 2.282 . S
N695 Co694 1.995 . S
N695 C696 1.376 . S
N695 C699 1.383 . S
C696 N695 1.376 . S
C696 C697 1.446 . S
C696 C726 1.391 . S
C697 C696 1.446 . S
C697 C698 1.339 . S
C697 H732 0.949 . S
C698 C697 1.339 . S
C698 C699 1.439 . S
C698 H733 0.950 . S
C699 N695 1.383 . S
C699 C698 1.439 . S
C699 C728 1.392 . S
N700 Co694 2.008 . S
N700 C701 1.376 . S
N700 C704 1.374 . S
C701 N700 1.376 . S
C701 C702 1.443 . S
C701 C728 1.389 . S
C702 C701 1.443 . S
C702 C703 1.340 . S
C702 H734 0.951 . S
C703 C702 1.340 . S
C703 C704 1.439 . S
C703 H735 0.950 . S
C704 N700 1.374 . S
C704 C703 1.439 . S
C704 C729 1.395 . S
N705 Co694 1.995 . S
N705 C706 1.376 . S
N705 C709 1.383 . S
C706 N705 1.376 . S
C706 C707 1.446 . S
C706 C729 1.391 . S
C707 C706 1.446 . S
C707 C708 1.339 . S
C707 H736 0.949 . S
C708 C707 1.339 . S
C708 C709 1.439 . S
C708 H737 0.950 . S
C709 N705 1.383 . S
C709 C708 1.439 . S
C709 C727 1.392 . S
N710 Co694 2.282 . S
N710 C713 1.332 . S
N710 C715 1.332 . S
C711 C712 1.386 . S
C711 C714 1.388 . S
C712 C711 1.386 . S
C712 C713 1.382 . S
C712 H738 0.950 . S
C713 N710 1.332 . S
C713 C712 1.382 . S
C713 H724 0.952 . S
C714 C711 1.388 . S
C714 C715 1.382 . S
C714 H739 0.950 . S
C715 N710 1.332 . S
C715 C714 1.382 . S
C715 H725 0.948 . S
N716 Co694 2.282 . S
N716 C720 1.332 . S
N716 C721 1.332 . S
C717 C718 1.388 . S
C717 C721 1.382 . S
C717 H740 0.950 . S
C718 C717 1.388 . S
C718 C719 1.386 . S
C719 C718 1.386 . S
C719 C720 1.382 . S
C719 H741 0.950 . S
C720 N716 1.332 . S
C720 C719 1.382 . S
C720 H722 0.952 . S
C721 N716 1.332 . S
C721 C717 1.382 . S
C721 H723 0.948 . S
H722 C720 0.952 . S
H723 C721 0.948 . S
H724 C713 0.952 . S
H725 C715 0.948 . S
C726 C692 1.395 . S
C726 C696 1.391 . S
C727 C689 1.389 . S
C727 C709 1.392 . S
C728 C699 1.392 . S
C728 C701 1.389 . S
C729 C704 1.395 . S
C729 C706 1.391 . S
H730 C690 0.951 . S
H731 C691 0.950 . S
H732 C697 0.949 . S
H733 C698 0.950 . S
H734 C702 0.951 . S
H735 C703 0.950 . S
H736 C707 0.949 . S
H737 C708 0.950 . S
H738 C712 0.950 . S
H739 C714 0.950 . S
H740 C717 0.950 . S
H741 C719 0.950 . S
C742 C743 1.443 . S
C742 N746 1.376 . S
C742 C780 1.389 . S
C743 C742 1.443 . S
C743 C744 1.340 . S
C743 H783 0.951 . S
C744 C743 1.340 . S
C744 C745 1.439 . S
C744 H784 0.950 . S
C745 C744 1.439 . S
C745 N746 1.374 . S
C745 C779 1.395 . S
N746 C742 1.376 . S
N746 C745 1.374 . S
N746 Co747 2.008 . S
Co747 N746 2.008 . S
Co747 N748 1.995 . S
Co747 N753 2.008 . S
Co747 N758 1.995 . S
Co747 N763 2.282 . S
Co747 N769 2.282 . S
N748 Co747 1.995 . S
N748 C749 1.376 . S
N748 C752 1.383 . S
C749 N748 1.376 . S
C749 C750 1.446 . S
C749 C779 1.391 . S
C750 C749 1.446 . S
C750 C751 1.339 . S
C750 H785 0.949 . S
C751 C750 1.339 . S
C751 C752 1.439 . S
C751 H786 0.950 . S
C752 N748 1.383 . S
C752 C751 1.439 . S
C752 C781 1.392 . S
N753 Co747 2.008 . S
N753 C754 1.376 . S
N753 C757 1.374 . S
C754 N753 1.376 . S
C754 C755 1.443 . S
C754 C781 1.389 . S
C755 C754 1.443 . S
C755 C756 1.340 . S
C755 H787 0.951 . S
C756 C755 1.340 . S
C756 C757 1.439 . S
C756 H788 0.950 . S
C757 N753 1.374 . S
C757 C756 1.439 . S
C757 C782 1.395 . S
N758 Co747 1.995 . S
N758 C759 1.376 . S
N758 C762 1.383 . S
C759 N758 1.376 . S
C759 C760 1.446 . S
C759 C782 1.391 . S
C760 C759 1.446 . S
C760 C761 1.339 . S
C760 H789 0.949 . S
C761 C760 1.339 . S
C761 C762 1.439 . S
C761 H790 0.950 . S
C762 N758 1.383 . S
C762 C761 1.439 . S
C762 C780 1.392 . S
N763 Co747 2.282 . S
N763 C766 1.332 . S
N763 C768 1.332 . S
C764 C765 1.386 . S
C764 C767 1.388 . S
C765 C764 1.386 . S
C765 C766 1.382 . S
C765 H791 0.950 . S
C766 N763 1.332 . S
C766 C765 1.382 . S
C766 H777 0.952 . S
C767 C764 1.388 . S
C767 C768 1.382 . S
C767 H792 0.950 . S
C768 N763 1.332 . S
C768 C767 1.382 . S
C768 H778 0.948 . S
N769 Co747 2.282 . S
N769 C773 1.332 . S
N769 C774 1.332 . S
C770 C771 1.388 . S
C770 C774 1.382 . S
C770 H793 0.950 . S
C771 C770 1.388 . S
C771 C772 1.386 . S
C772 C771 1.386 . S
C772 C773 1.382 . S
C772 H794 0.950 . S
C773 N769 1.332 . S
C773 C772 1.382 . S
C773 H775 0.952 . S
C774 N769 1.332 . S
C774 C770 1.382 . S
C774 H776 0.948 . S
H775 C773 0.952 . S
H776 C774 0.948 . S
H777 C766 0.952 . S
H778 C768 0.948 . S
C779 C745 1.395 . S
C779 C749 1.391 . S
C780 C742 1.389 . S
C780 C762 1.392 . S
C781 C752 1.392 . S
C781 C754 1.389 . S
C782 C757 1.395 . S
C782 C759 1.391 . S
H783 C743 0.951 . S
H784 C744 0.950 . S
H785 C750 0.949 . S
H786 C751 0.950 . S
H787 C755 0.951 . S
H788 C756 0.950 . S
H789 C760 0.949 . S
H790 C761 0.950 . S
H791 C765 0.950 . S
H792 C767 0.950 . S
H793 C770 0.950 . S
H794 C772 0.950 . S
C795 C796 1.443 . S
C795 N799 1.376 . S
C795 C833 1.389 . S
C796 C795 1.443 . S
C796 C797 1.340 . S
C796 H836 0.951 . S
C797 C796 1.340 . S
C797 C798 1.439 . S
C797 H837 0.950 . S
C798 C797 1.439 . S
C798 N799 1.374 . S
C798 C832 1.395 . S
N799 C795 1.376 . S
N799 C798 1.374 . S
N799 Co800 2.008 . S
Co800 N799 2.008 . S
Co800 N801 1.995 . S
Co800 N806 2.008 . S
Co800 N811 1.995 . S
Co800 N816 2.282 . S
Co800 N822 2.282 . S
N801 Co800 1.995 . S
N801 C802 1.376 . S
N801 C805 1.383 . S
C802 N801 1.376 . S
C802 C803 1.446 . S
C802 C832 1.391 . S
C803 C802 1.446 . S
C803 C804 1.339 . S
C803 H838 0.949 . S
C804 C803 1.339 . S
C804 C805 1.439 . S
C804 H839 0.950 . S
C805 N801 1.383 . S
C805 C804 1.439 . S
C805 C834 1.392 . S
N806 Co800 2.008 . S
N806 C807 1.376 . S
N806 C810 1.374 . S
C807 N806 1.376 . S
C807 C808 1.443 . S
C807 C834 1.389 . S
C808 C807 1.443 . S
C808 C809 1.340 . S
C808 H840 0.951 . S
C809 C808 1.340 . S
C809 C810 1.439 . S
C809 H841 0.950 . S
C810 N806 1.374 . S
C810 C809 1.439 . S
C810 C835 1.395 . S
N811 Co800 1.995 . S
N811 C812 1.376 . S
N811 C815 1.383 . S
C812 N811 1.376 . S
C812 C813 1.446 . S
C812 C835 1.391 . S
C813 C812 1.446 . S
C813 C814 1.339 . S
C813 H842 0.949 . S
C814 C813 1.339 . S
C814 C815 1.439 . S
C814 H843 0.950 . S
C815 N811 1.383 . S
C815 C814 1.439 . S
C815 C833 1.392 . S
N816 Co800 2.282 . S
N816 C819 1.332 . S
N816 C821 1.332 . S
C817 C818 1.386 . S
C817 C820 1.388 . S
C818 C817 1.386 . S
C818 C819 1.382 . S
C818 H844 0.950 . S
C819 N816 1.332 . S
C819 C818 1.382 . S
C819 H830 0.952 . S
C820 C817 1.388 . S
C820 C821 1.382 . S
C820 H845 0.950 . S
C821 N816 1.332 . S
C821 C820 1.382 . S
C821 H831 0.948 . S
N822 Co800 2.282 . S
N822 C826 1.332 . S
N822 C827 1.332 . S
C823 C824 1.388 . S
C823 C827 1.382 . S
C823 H846 0.950 . S
C824 C823 1.388 . S
C824 C825 1.386 . S
C825 C824 1.386 . S
C825 C826 1.382 . S
C825 H847 0.950 . S
C826 N822 1.332 . S
C826 C825 1.382 . S
C826 H828 0.952 . S
C827 N822 1.332 . S
C827 C823 1.382 . S
C827 H829 0.948 . S
H828 C826 0.952 . S
H829 C827 0.948 . S
H830 C819 0.952 . S
H831 C821 0.948 . S
C832 C798 1.395 . S
C832 C802 1.391 . S
C833 C795 1.389 . S
C833 C815 1.392 . S
C834 C805 1.392 . S
C834 C807 1.389 . S
C835 C810 1.395 . S
C835 C812 1.391 . S
H836 C796 0.951 . S
H837 C797 0.950 . S
H838 C803 0.949 . S
H839 C804 0.950 . S
H840 C808 0.951 . S
H841 C809 0.950 . S
H842 C813 0.949 . S
H843 C814 0.950 . S
H844 C818 0.950 . S
H845 C820 0.950 . S
H846 C823 0.950 . S
H847 C825 0.950 . S
C848 C849 1.443 . S
C848 N852 1.376 . S
C848 C886 1.389 . S
C849 C848 1.443 . S
C849 C850 1.340 . S
C849 H889 0.951 . S
C850 C849 1.340 . S
C850 C851 1.439 . S
C850 H890 0.950 . S
C851 C850 1.439 . S
C851 N852 1.374 . S
C851 C885 1.395 . S
N852 C848 1.376 . S
N852 C851 1.374 . S
N852 Co853 2.008 . S
Co853 N852 2.008 . S
Co853 N854 1.995 . S
Co853 N859 2.008 . S
Co853 N864 1.995 . S
Co853 N869 2.282 . S
Co853 N875 2.282 . S
N854 Co853 1.995 . S
N854 C855 1.376 . S
N854 C858 1.383 . S
C855 N854 1.376 . S
C855 C856 1.446 . S
C855 C885 1.391 . S
C856 C855 1.446 . S
C856 C857 1.339 . S
C856 H891 0.949 . S
C857 C856 1.339 . S
C857 C858 1.439 . S
C857 H892 0.950 . S
C858 N854 1.383 . S
C858 C857 1.439 . S
C858 C887 1.392 . S
N859 Co853 2.008 . S
N859 C860 1.376 . S
N859 C863 1.374 . S
C860 N859 1.376 . S
C860 C861 1.443 . S
C860 C887 1.389 . S
C861 C860 1.443 . S
C861 C862 1.340 . S
C861 H893 0.951 . S
C862 C861 1.340 . S
C862 C863 1.439 . S
C862 H894 0.950 . S
C863 N859 1.374 . S
C863 C862 1.439 . S
C863 C888 1.395 . S
N864 Co853 1.995 . S
N864 C865 1.376 . S
N864 C868 1.383 . S
C865 N864 1.376 . S
C865 C866 1.446 . S
C865 C888 1.391 . S
C866 C865 1.446 . S
C866 C867 1.339 . S
C866 H895 0.949 . S
C867 C866 1.339 . S
C867 C868 1.439 . S
C867 H896 0.950 . S
C868 N864 1.383 . S
C868 C867 1.439 . S
C868 C886 1.392 . S
N869 Co853 2.282 . S
N869 C872 1.332 . S
N869 C874 1.332 . S
C870 C871 1.386 . S
C870 C873 1.388 . S
C871 C870 1.386 . S
C871 C872 1.382 . S
C871 H897 0.950 . S
C872 N869 1.332 . S
C872 C871 1.382 . S
C872 H883 0.952 . S
C873 C870 1.388 . S
C873 C874 1.382 . S
C873 H898 0.950 . S
C874 N869 1.332 . S
C874 C873 1.382 . S
C874 H884 0.948 . S
N875 Co853 2.282 . S
N875 C879 1.332 . S
N875 C880 1.332 . S
C876 C877 1.388 . S
C876 C880 1.382 . S
C876 H899 0.950 . S
C877 C876 1.388 . S
C877 C878 1.386 . S
C878 C877 1.386 . S
C878 C879 1.382 . S
C878 H900 0.950 . S
C879 N875 1.332 . S
C879 C878 1.382 . S
C879 H881 0.952 . S
C880 N875 1.332 . S
C880 C876 1.382 . S
C880 H882 0.948 . S
H881 C879 0.952 . S
H882 C880 0.948 . S
H883 C872 0.952 . S
H884 C874 0.948 . S
C885 C851 1.395 . S
C885 C855 1.391 . S
C886 C848 1.389 . S
C886 C868 1.392 . S
C887 C858 1.392 . S
C887 C860 1.389 . S
C888 C863 1.395 . S
C888 C865 1.391 . S
H889 C849 0.951 . S
H890 C850 0.950 . S
H891 C856 0.949 . S
H892 C857 0.950 . S
H893 C861 0.951 . S
H894 C862 0.950 . S
H895 C866 0.949 . S
H896 C867 0.950 . S
H897 C871 0.950 . S
H898 C873 0.950 . S
H899 C876 0.950 . S
H900 C878 0.950 . S
C901 C902 1.443 . S
C901 N905 1.376 . S
C901 C939 1.389 . S
C902 C901 1.443 . S
C902 C903 1.340 . S
C902 H942 0.951 . S
C903 C902 1.340 . S
C903 C904 1.439 . S
C903 H943 0.950 . S
C904 C903 1.439 . S
C904 N905 1.374 . S
C904 C938 1.395 . S
N905 C901 1.376 . S
N905 C904 1.374 . S
N905 Co906 2.008 . S
Co906 N905 2.008 . S
Co906 N907 1.995 . S
Co906 N912 2.008 . S
Co906 N917 1.995 . S
Co906 N922 2.282 . S
Co906 N928 2.282 . S
N907 Co906 1.995 . S
N907 C908 1.376 . S
N907 C911 1.383 . S
C908 N907 1.376 . S
C908 C909 1.446 . S
C908 C938 1.391 . S
C909 C908 1.446 . S
C909 C910 1.339 . S
C909 H944 0.949 . S
C910 C909 1.339 . S
C910 C911 1.439 . S
C910 H945 0.950 . S
C911 N907 1.383 . S
C911 C910 1.439 . S
C911 C940 1.392 . S
N912 Co906 2.008 . S
N912 C913 1.376 . S
N912 C916 1.374 . S
C913 N912 1.376 . S
C913 C914 1.443 . S
C913 C940 1.389 . S
C914 C913 1.443 . S
C914 C915 1.340 . S
C914 H946 0.951 . S
C915 C914 1.340 . S
C915 C916 1.439 . S
C915 H947 0.950 . S
C916 N912 1.374 . S
C916 C915 1.439 . S
C916 C941 1.395 . S
N917 Co906 1.995 . S
N917 C918 1.376 . S
N917 C921 1.383 . S
C918 N917 1.376 . S
C918 C919 1.446 . S
C918 C941 1.391 . S
C919 C918 1.446 . S
C919 C920 1.339 . S
C919 H948 0.949 . S
C920 C919 1.339 . S
C920 C921 1.439 . S
C920 H949 0.950 . S
C921 N917 1.383 . S
C921 C920 1.439 . S
C921 C939 1.392 . S
N922 Co906 2.282 . S
N922 C925 1.332 . S
N922 C927 1.332 . S
C923 C924 1.386 . S
C923 C926 1.388 . S
C924 C923 1.386 . S
C924 C925 1.382 . S
C924 H950 0.950 . S
C925 N922 1.332 . S
C925 C924 1.382 . S
C925 H936 0.952 . S
C926 C923 1.388 . S
C926 C927 1.382 . S
C926 H951 0.950 . S
C927 N922 1.332 . S
C927 C926 1.382 . S
C927 H937 0.948 . S
N928 Co906 2.282 . S
N928 C932 1.332 . S
N928 C933 1.332 . S
C929 C930 1.388 . S
C929 C933 1.382 . S
C929 H952 0.950 . S
C930 C929 1.388 . S
C930 C931 1.386 . S
C931 C930 1.386 . S
C931 C932 1.382 . S
C931 H953 0.950 . S
C932 N928 1.332 . S
C932 C931 1.382 . S
C932 H934 0.952 . S
C933 N928 1.332 . S
C933 C929 1.382 . S
C933 H935 0.948 . S
H934 C932 0.952 . S
H935 C933 0.948 . S
H936 C925 0.952 . S
H937 C927 0.948 . S
C938 C904 1.395 . S
C938 C908 1.391 . S
C939 C901 1.389 . S
C939 C921 1.392 . S
C940 C911 1.392 . S
C940 C913 1.389 . S
C941 C916 1.395 . S
C941 C918 1.391 . S
H942 C902 0.951 . S
H943 C903 0.950 . S
H944 C909 0.949 . S
H945 C910 0.950 . S
H946 C914 0.951 . S
H947 C915 0.950 . S
H948 C919 0.949 . S
H949 C920 0.950 . S
H950 C924 0.950 . S
H951 C926 0.950 . S
H952 C929 0.950 . S
H953 C931 0.950 . S
C954 C955 1.443 . S
C954 N958 1.376 . S
C954 C992 1.389 . S
C955 C954 1.443 . S
C955 C956 1.340 . S
C955 H995 0.951 . S
C956 C955 1.340 . S
C956 C957 1.439 . S
C956 H996 0.950 . S
C957 C956 1.439 . S
C957 N958 1.374 . S
C957 C991 1.395 . S
N958 C954 1.376 . S
N958 C957 1.374 . S
N958 Co959 2.008 . S
Co959 N958 2.008 . S
Co959 N960 1.995 . S
Co959 N965 2.008 . S
Co959 N970 1.995 . S
Co959 N975 2.282 . S
Co959 N981 2.282 . S
N960 Co959 1.995 . S
N960 C961 1.376 . S
N960 C964 1.383 . S
C961 N960 1.376 . S
C961 C962 1.446 . S
C961 C991 1.391 . S
C962 C961 1.446 . S
C962 C963 1.339 . S
C962 H997 0.949 . S
C963 C962 1.339 . S
C963 C964 1.439 . S
C963 H998 0.950 . S
C964 N960 1.383 . S
C964 C963 1.439 . S
C964 C993 1.392 . S
N965 Co959 2.008 . S
N965 C966 1.376 . S
N965 C969 1.374 . S
C966 N965 1.376 . S
C966 C967 1.443 . S
C966 C993 1.389 . S
C967 C966 1.443 . S
C967 C968 1.340 . S
C967 H999 0.951 . S
C968 C967 1.340 . S
C968 C969 1.439 . S
C968 H1000 0.950 . S
C969 N965 1.374 . S
C969 C968 1.439 . S
C969 C994 1.395 . S
N970 Co959 1.995 . S
N970 C971 1.376 . S
N970 C974 1.383 . S
C971 N970 1.376 . S
C971 C972 1.446 . S
C971 C994 1.391 . S
C972 C971 1.446 . S
C972 C973 1.339 . S
C972 H1001 0.949 . S
C973 C972 1.339 . S
C973 C974 1.439 . S
C973 H1002 0.950 . S
C974 N970 1.383 . S
C974 C973 1.439 . S
C974 C992 1.392 . S
N975 Co959 2.282 . S
N975 C978 1.332 . S
N975 C980 1.332 . S
C976 C977 1.386 . S
C976 C979 1.388 . S
C977 C976 1.386 . S
C977 C978 1.382 . S
C977 H1003 0.950 . S
C978 N975 1.332 . S
C978 C977 1.382 . S
C978 H989 0.952 . S
C979 C976 1.388 . S
C979 C980 1.382 . S
C979 H1004 0.950 . S
C980 N975 1.332 . S
C980 C979 1.382 . S
C980 H990 0.948 . S
N981 Co959 2.282 . S
N981 C985 1.332 . S
N981 C986 1.332 . S
C982 C983 1.388 . S
C982 C986 1.382 . S
C982 H1005 0.950 . S
C983 C982 1.388 . S
C983 C984 1.386 . S
C984 C983 1.386 . S
C984 C985 1.382 . S
C984 H1006 0.950 . S
C985 N981 1.332 . S
C985 C984 1.382 . S
C985 H987 0.952 . S
C986 N981 1.332 . S
C986 C982 1.382 . S
C986 H988 0.948 . S
H987 C985 0.952 . S
H988 C986 0.948 . S
H989 C978 0.952 . S
H990 C980 0.948 . S
C991 C957 1.395 . S
C991 C961 1.391 . S
C992 C954 1.389 . S
C992 C974 1.392 . S
C993 C964 1.392 . S
C993 C966 1.389 . S
C994 C969 1.395 . S
C994 C971 1.391 . S
H995 C955 0.951 . S
H996 C956 0.950 . S
H997 C962 0.949 . S
H998 C963 0.950 . S
H999 C967 0.951 . S
H1000 C968 0.950 . S
H1001 C972 0.949 . S
H1002 C973 0.950 . S
H1003 C977 0.950 . S
H1004 C979 0.950 . S
H1005 C982 0.950 . S
H1006 C984 0.950 . S
C1007 C1008 1.443 . S
C1007 N1011 1.376 . S
C1007 C1045 1.389 . S
C1008 C1007 1.443 . S
C1008 C1009 1.340 . S
C1008 H1048 0.951 . S
C1009 C1008 1.340 . S
C1009 C1010 1.439 . S
C1009 H1049 0.950 . S
C1010 C1009 1.439 . S
C1010 N1011 1.374 . S
C1010 C1044 1.395 . S
N1011 C1007 1.376 . S
N1011 C1010 1.374 . S
N1011 Co1012 2.008 . S
Co1012 N1011 2.008 . S
Co1012 N1013 1.995 . S
Co1012 N1018 2.008 . S
Co1012 N1023 1.995 . S
Co1012 N1028 2.282 . S
Co1012 N1034 2.282 . S
N1013 Co1012 1.995 . S
N1013 C1014 1.376 . S
N1013 C1017 1.383 . S
C1014 N1013 1.376 . S
C1014 C1015 1.446 . S
C1014 C1044 1.391 . S
C1015 C1014 1.446 . S
C1015 C1016 1.339 . S
C1015 H1050 0.949 . S
C1016 C1015 1.339 . S
C1016 C1017 1.439 . S
C1016 H1051 0.950 . S
C1017 N1013 1.383 . S
C1017 C1016 1.439 . S
C1017 C1046 1.392 . S
N1018 Co1012 2.008 . S
N1018 C1019 1.376 . S
N1018 C1022 1.374 . S
C1019 N1018 1.376 . S
C1019 C1020 1.443 . S
C1019 C1046 1.389 . S
C1020 C1019 1.443 . S
C1020 C1021 1.340 . S
C1020 H1052 0.951 . S
C1021 C1020 1.340 . S
C1021 C1022 1.439 . S
C1021 H1053 0.950 . S
C1022 N1018 1.374 . S
C1022 C1021 1.439 . S
C1022 C1047 1.395 . S
N1023 Co1012 1.995 . S
N1023 C1024 1.376 . S
N1023 C1027 1.383 . S
C1024 N1023 1.376 . S
C1024 C1025 1.446 . S
C1024 C1047 1.391 . S
C1025 C1024 1.446 . S
C1025 C1026 1.339 . S
C1025 H1054 0.949 . S
C1026 C1025 1.339 . S
C1026 C1027 1.439 . S
C1026 H1055 0.950 . S
C1027 N1023 1.383 . S
C1027 C1026 1.439 . S
C1027 C1045 1.392 . S
N1028 Co1012 2.282 . S
N1028 C1031 1.332 . S
N1028 C1033 1.332 . S
C1029 C1030 1.386 . S
C1029 C1032 1.388 . S
C1030 C1029 1.386 . S
C1030 C1031 1.382 . S
C1030 H1056 0.950 . S
C1031 N1028 1.332 . S
C1031 C1030 1.382 . S
C1031 H1042 0.952 . S
C1032 C1029 1.388 . S
C1032 C1033 1.382 . S
C1032 H1057 0.950 . S
C1033 N1028 1.332 . S
C1033 C1032 1.382 . S
C1033 H1043 0.948 . S
N1034 Co1012 2.282 . S
N1034 C1038 1.332 . S
N1034 C1039 1.332 . S
C1035 C1036 1.388 . S
C1035 C1039 1.382 . S
C1035 H1058 0.950 . S
C1036 C1035 1.388 . S
C1036 C1037 1.386 . S
C1037 C1036 1.386 . S
C1037 C1038 1.382 . S
C1037 H1059 0.950 . S
C1038 N1034 1.332 . S
C1038 C1037 1.382 . S
C1038 H1040 0.952 . S
C1039 N1034 1.332 . S
C1039 C1035 1.382 . S
C1039 H1041 0.948 . S
H1040 C1038 0.952 . S
H1041 C1039 0.948 . S
H1042 C1031 0.952 . S
H1043 C1033 0.948 . S
C1044 C1010 1.395 . S
C1044 C1014 1.391 . S
C1045 C1007 1.389 . S
C1045 C1027 1.392 . S
C1046 C1017 1.392 . S
C1046 C1019 1.389 . S
C1047 C1022 1.395 . S
C1047 C1024 1.391 . S
H1048 C1008 0.951 . S
H1049 C1009 0.950 . S
H1050 C1015 0.949 . S
H1051 C1016 0.950 . S
H1052 C1020 0.951 . S
H1053 C1021 0.950 . S
H1054 C1025 0.949 . S
H1055 C1026 0.950 . S
H1056 C1030 0.950 . S
H1057 C1032 0.950 . S
H1058 C1035 0.950 . S
H1059 C1037 0.950 . S
C1060 C1061 1.443 . S
C1060 N1064 1.376 . S
C1060 C1098 1.389 . S
C1061 C1060 1.443 . S
C1061 C1062 1.340 . S
C1061 H1101 0.951 . S
C1062 C1061 1.340 . S
C1062 C1063 1.439 . S
C1062 H1102 0.950 . S
C1063 C1062 1.439 . S
C1063 N1064 1.374 . S
C1063 C1097 1.395 . S
N1064 C1060 1.376 . S
N1064 C1063 1.374 . S
N1064 Co1065 2.008 . S
Co1065 N1064 2.008 . S
Co1065 N1066 1.995 . S
Co1065 N1071 2.008 . S
Co1065 N1076 1.995 . S
Co1065 N1081 2.282 . S
Co1065 N1087 2.282 . S
N1066 Co1065 1.995 . S
N1066 C1067 1.376 . S
N1066 C1070 1.383 . S
C1067 N1066 1.376 . S
C1067 C1068 1.446 . S
C1067 C1097 1.391 . S
C1068 C1067 1.446 . S
C1068 C1069 1.339 . S
C1068 H1103 0.949 . S
C1069 C1068 1.339 . S
C1069 C1070 1.439 . S
C1069 H1104 0.950 . S
C1070 N1066 1.383 . S
C1070 C1069 1.439 . S
C1070 C1099 1.392 . S
N1071 Co1065 2.008 . S
N1071 C1072 1.376 . S
N1071 C1075 1.374 . S
C1072 N1071 1.376 . S
C1072 C1073 1.443 . S
C1072 C1099 1.389 . S
C1073 C1072 1.443 . S
C1073 C1074 1.340 . S
C1073 H1105 0.951 . S
C1074 C1073 1.340 . S
C1074 C1075 1.439 . S
C1074 H1106 0.950 . S
C1075 N1071 1.374 . S
C1075 C1074 1.439 . S
C1075 C1100 1.395 . S
N1076 Co1065 1.995 . S
N1076 C1077 1.376 . S
N1076 C1080 1.383 . S
C1077 N1076 1.376 . S
C1077 C1078 1.446 . S
C1077 C1100 1.391 . S
C1078 C1077 1.446 . S
C1078 C1079 1.339 . S
C1078 H1107 0.949 . S
C1079 C1078 1.339 . S
C1079 C1080 1.439 . S
C1079 H1108 0.950 . S
C1080 N1076 1.383 . S
C1080 C1079 1.439 . S
C1080 C1098 1.392 . S
N1081 Co1065 2.282 . S
N1081 C1084 1.332 . S
N1081 C1086 1.332 . S
C1082 C1083 1.386 . S
C1082 C1085 1.388 . S
C1083 C1082 1.386 . S
C1083 C1084 1.382 . S
C1083 H1109 0.950 . S
C1084 N1081 1.332 . S
C1084 C1083 1.382 . S
C1084 H1095 0.952 . S
C1085 C1082 1.388 . S
C1085 C1086 1.382 . S
C1085 H1110 0.950 . S
C1086 N1081 1.332 . S
C1086 C1085 1.382 . S
C1086 H1096 0.948 . S
N1087 Co1065 2.282 . S
N1087 C1091 1.332 . S
N1087 C1092 1.332 . S
C1088 C1089 1.388 . S
C1088 C1092 1.382 . S
C1088 H1111 0.950 . S
C1089 C1088 1.388 . S
C1089 C1090 1.386 . S
C1090 C1089 1.386 . S
C1090 C1091 1.382 . S
C1090 H1112 0.950 . S
C1091 N1087 1.332 . S
C1091 C1090 1.382 . S
C1091 H1093 0.952 . S
C1092 N1087 1.332 . S
C1092 C1088 1.382 . S
C1092 H1094 0.948 . S
H1093 C1091 0.952 . S
H1094 C1092 0.948 . S
H1095 C1084 0.952 . S
H1096 C1086 0.948 . S
C1097 C1063 1.395 . S
C1097 C1067 1.391 . S
C1098 C1060 1.389 . S
C1098 C1080 1.392 . S
C1099 C1070 1.392 . S
C1099 C1072 1.389 . S
C1100 C1075 1.395 . S
C1100 C1077 1.391 . S
H1101 C1061 0.951 . S
H1102 C1062 0.950 . S
H1103 C1068 0.949 . S
H1104 C1069 0.950 . S
H1105 C1073 0.951 . S
H1106 C1074 0.950 . S
H1107 C1078 0.949 . S
H1108 C1079 0.950 . S
H1109 C1083 0.950 . S
H1110 C1085 0.950 . S
H1111 C1088 0.950 . S
H1112 C1090 0.950 . S
C1113 C1114 1.443 . S
C1113 N1117 1.376 . S
C1113 C1151 1.389 . S
C1114 C1113 1.443 . S
C1114 C1115 1.340 . S
C1114 H1154 0.951 . S
C1115 C1114 1.340 . S
C1115 C1116 1.439 . S
C1115 H1155 0.950 . S
C1116 C1115 1.439 . S
C1116 N1117 1.374 . S
C1116 C1150 1.395 . S
N1117 C1113 1.376 . S
N1117 C1116 1.374 . S
N1117 Co1118 2.008 . S
Co1118 N1117 2.008 . S
Co1118 N1119 1.995 . S
Co1118 N1124 2.008 . S
Co1118 N1129 1.995 . S
Co1118 N1134 2.282 . S
Co1118 N1140 2.282 . S
N1119 Co1118 1.995 . S
N1119 C1120 1.376 . S
N1119 C1123 1.383 . S
C1120 N1119 1.376 . S
C1120 C1121 1.446 . S
C1120 C1150 1.391 . S
C1121 C1120 1.446 . S
C1121 C1122 1.339 . S
C1121 H1156 0.949 . S
C1122 C1121 1.339 . S
C1122 C1123 1.439 . S
C1122 H1157 0.950 . S
C1123 N1119 1.383 . S
C1123 C1122 1.439 . S
C1123 C1152 1.392 . S
N1124 Co1118 2.008 . S
N1124 C1125 1.376 . S
N1124 C1128 1.374 . S
C1125 N1124 1.376 . S
C1125 C1126 1.443 . S
C1125 C1152 1.389 . S
C1126 C1125 1.443 . S
C1126 C1127 1.340 . S
C1126 H1158 0.951 . S
C1127 C1126 1.340 . S
C1127 C1128 1.439 . S
C1127 H1159 0.950 . S
C1128 N1124 1.374 . S
C1128 C1127 1.439 . S
C1128 C1153 1.395 . S
N1129 Co1118 1.995 . S
N1129 C1130 1.376 . S
N1129 C1133 1.383 . S
C1130 N1129 1.376 . S
C1130 C1131 1.446 . S
C1130 C1153 1.391 . S
C1131 C1130 1.446 . S
C1131 C1132 1.339 . S
C1131 H1160 0.949 . S
C1132 C1131 1.339 . S
C1132 C1133 1.439 . S
C1132 H1161 0.950 . S
C1133 N1129 1.383 . S
C1133 C1132 1.439 . S
C1133 C1151 1.392 . S
N1134 Co1118 2.282 . S
N1134 C1137 1.332 . S
N1134 C1139 1.332 . S
C1135 C1136 1.386 . S
C1135 C1138 1.388 . S
C1136 C1135 1.386 . S
C1136 C1137 1.382 . S
C1136 H1162 0.950 . S
C1137 N1134 1.332 . S
C1137 C1136 1.382 . S
C1137 H1148 0.952 . S
C1138 C1135 1.388 . S
C1138 C1139 1.382 . S
C1138 H1163 0.950 . S
C1139 N1134 1.332 . S
C1139 C1138 1.382 . S
C1139 H1149 0.948 . S
N1140 Co1118 2.282 . S
N1140 C1144 1.332 . S
N1140 C1145 1.332 . S
C1141 C1142 1.388 . S
C1141 C1145 1.382 . S
C1141 H1164 0.950 . S
C1142 C1141 1.388 . S
C1142 C1143 1.386 . S
C1143 C1142 1.386 . S
C1143 C1144 1.382 . S
C1143 H1165 0.950 . S
C1144 N1140 1.332 . S
C1144 C1143 1.382 . S
C1144 H1146 0.952 . S
C1145 N1140 1.332 . S
C1145 C1141 1.382 . S
C1145 H1147 0.948 . S
H1146 C1144 0.952 . S
H1147 C1145 0.948 . S
H1148 C1137 0.952 . S
H1149 C1139 0.948 . S
C1150 C1116 1.395 . S
C1150 C1120 1.391 . S
C1151 C1113 1.389 . S
C1151 C1133 1.392 . S
C1152 C1123 1.392 . S
C1152 C1125 1.389 . S
C1153 C1128 1.395 . S
C1153 C1130 1.391 . S
H1154 C1114 0.951 . S
H1155 C1115 0.950 . S
H1156 C1121 0.949 . S
H1157 C1122 0.950 . S
H1158 C1126 0.951 . S
H1159 C1127 0.950 . S
H1160 C1131 0.949 . S
H1161 C1132 0.950 . S
H1162 C1136 0.950 . S
H1163 C1138 0.950 . S
H1164 C1141 0.950 . S
H1165 C1143 0.950 . S
C1166 C1167 1.443 . S
C1166 N1170 1.376 . S
C1166 C1204 1.389 . S
C1167 C1166 1.443 . S
C1167 C1168 1.340 . S
C1167 H1207 0.951 . S
C1168 C1167 1.340 . S
C1168 C1169 1.439 . S
C1168 H1208 0.950 . S
C1169 C1168 1.439 . S
C1169 N1170 1.374 . S
C1169 C1203 1.395 . S
N1170 C1166 1.376 . S
N1170 C1169 1.374 . S
N1170 Co1171 2.008 . S
Co1171 N1170 2.008 . S
Co1171 N1172 1.995 . S
Co1171 N1177 2.008 . S
Co1171 N1182 1.995 . S
Co1171 N1187 2.282 . S
Co1171 N1193 2.282 . S
N1172 Co1171 1.995 . S
N1172 C1173 1.376 . S
N1172 C1176 1.383 . S
C1173 N1172 1.376 . S
C1173 C1174 1.446 . S
C1173 C1203 1.391 . S
C1174 C1173 1.446 . S
C1174 C1175 1.339 . S
C1174 H1209 0.949 . S
C1175 C1174 1.339 . S
C1175 C1176 1.439 . S
C1175 H1210 0.950 . S
C1176 N1172 1.383 . S
C1176 C1175 1.439 . S
C1176 C1205 1.392 . S
N1177 Co1171 2.008 . S
N1177 C1178 1.376 . S
N1177 C1181 1.374 . S
C1178 N1177 1.376 . S
C1178 C1179 1.443 . S
C1178 C1205 1.389 . S
C1179 C1178 1.443 . S
C1179 C1180 1.340 . S
C1179 H1211 0.951 . S
C1180 C1179 1.340 . S
C1180 C1181 1.439 . S
C1180 H1212 0.950 . S
C1181 N1177 1.374 . S
C1181 C1180 1.439 . S
C1181 C1206 1.395 . S
N1182 Co1171 1.995 . S
N1182 C1183 1.376 . S
N1182 C1186 1.383 . S
C1183 N1182 1.376 . S
C1183 C1184 1.446 . S
C1183 C1206 1.391 . S
C1184 C1183 1.446 . S
C1184 C1185 1.339 . S
C1184 H1213 0.949 . S
C1185 C1184 1.339 . S
C1185 C1186 1.439 . S
C1185 H1214 0.950 . S
C1186 N1182 1.383 . S
C1186 C1185 1.439 . S
C1186 C1204 1.392 . S
N1187 Co1171 2.282 . S
N1187 C1190 1.332 . S
N1187 C1192 1.332 . S
C1188 C1189 1.386 . S
C1188 C1191 1.388 . S
C1189 C1188 1.386 . S
C1189 C1190 1.382 . S
C1189 H1215 0.950 . S
C1190 N1187 1.332 . S
C1190 C1189 1.382 . S
C1190 H1201 0.952 . S
C1191 C1188 1.388 . S
C1191 C1192 1.382 . S
C1191 H1216 0.950 . S
C1192 N1187 1.332 . S
C1192 C1191 1.382 . S
C1192 H1202 0.948 . S
N1193 Co1171 2.282 . S
N1193 C1197 1.332 . S
N1193 C1198 1.332 . S
C1194 C1195 1.388 . S
C1194 C1198 1.382 . S
C1194 H1217 0.950 . S
C1195 C1194 1.388 . S
C1195 C1196 1.386 . S
C1196 C1195 1.386 . S
C1196 C1197 1.382 . S
C1196 H1218 0.950 . S
C1197 N1193 1.332 . S
C1197 C1196 1.382 . S
C1197 H1199 0.952 . S
C1198 N1193 1.332 . S
C1198 C1194 1.382 . S
C1198 H1200 0.948 . S
H1199 C1197 0.952 . S
H1200 C1198 0.948 . S
H1201 C1190 0.952 . S
H1202 C1192 0.948 . S
C1203 C1169 1.395 . S
C1203 C1173 1.391 . S
C1204 C1166 1.389 . S
C1204 C1186 1.392 . S
C1205 C1176 1.392 . S
C1205 C1178 1.389 . S
C1206 C1181 1.395 . S
C1206 C1183 1.391 . S
H1207 C1167 0.951 . S
H1208 C1168 0.950 . S
H1209 C1174 0.949 . S
H1210 C1175 0.950 . S
H1211 C1179 0.951 . S
H1212 C1180 0.950 . S
H1213 C1184 0.949 . S
H1214 C1185 0.950 . S
H1215 C1189 0.950 . S
H1216 C1191 0.950 . S
H1217 C1194 0.950 . S
H1218 C1196 0.950 . S
C1219 C1220 1.443 . S
C1219 N1223 1.376 . S
C1219 C1257 1.389 . S
C1220 C1219 1.443 . S
C1220 C1221 1.340 . S
C1220 H1260 0.951 . S
C1221 C1220 1.340 . S
C1221 C1222 1.439 . S
C1221 H1261 0.950 . S
C1222 C1221 1.439 . S
C1222 N1223 1.374 . S
C1222 C1256 1.395 . S
N1223 C1219 1.376 . S
N1223 C1222 1.374 . S
N1223 Co1224 2.008 . S
Co1224 N1223 2.008 . S
Co1224 N1225 1.995 . S
Co1224 N1230 2.008 . S
Co1224 N1235 1.995 . S
Co1224 N1240 2.282 . S
Co1224 N1246 2.282 . S
N1225 Co1224 1.995 . S
N1225 C1226 1.376 . S
N1225 C1229 1.383 . S
C1226 N1225 1.376 . S
C1226 C1227 1.446 . S
C1226 C1256 1.391 . S
C1227 C1226 1.446 . S
C1227 C1228 1.339 . S
C1227 H1262 0.949 . S
C1228 C1227 1.339 . S
C1228 C1229 1.439 . S
C1228 H1263 0.950 . S
C1229 N1225 1.383 . S
C1229 C1228 1.439 . S
C1229 C1258 1.392 . S
N1230 Co1224 2.008 . S
N1230 C1231 1.376 . S
N1230 C1234 1.374 . S
C1231 N1230 1.376 . S
C1231 C1232 1.443 . S
C1231 C1258 1.389 . S
C1232 C1231 1.443 . S
C1232 C1233 1.340 . S
C1232 H1264 0.951 . S
C1233 C1232 1.340 . S
C1233 C1234 1.439 . S
C1233 H1265 0.950 . S
C1234 N1230 1.374 . S
C1234 C1233 1.439 . S
C1234 C1259 1.395 . S
N1235 Co1224 1.995 . S
N1235 C1236 1.376 . S
N1235 C1239 1.383 . S
C1236 N1235 1.376 . S
C1236 C1237 1.446 . S
C1236 C1259 1.391 . S
C1237 C1236 1.446 . S
C1237 C1238 1.339 . S
C1237 H1266 0.949 . S
C1238 C1237 1.339 . S
C1238 C1239 1.439 . S
C1238 H1267 0.950 . S
C1239 N1235 1.383 . S
C1239 C1238 1.439 . S
C1239 C1257 1.392 . S
N1240 Co1224 2.282 . S
N1240 C1243 1.332 . S
N1240 C1245 1.332 . S
C1241 C1242 1.386 . S
C1241 C1244 1.388 . S
C1242 C1241 1.386 . S
C1242 C1243 1.382 . S
C1242 H1268 0.950 . S
C1243 N1240 1.332 . S
C1243 C1242 1.382 . S
C1243 H1254 0.952 . S
C1244 C1241 1.388 . S
C1244 C1245 1.382 . S
C1244 H1269 0.950 . S
C1245 N1240 1.332 . S
C1245 C1244 1.382 . S
C1245 H1255 0.948 . S
N1246 Co1224 2.282 . S
N1246 C1250 1.332 . S
N1246 C1251 1.332 . S
C1247 C1248 1.388 . S
C1247 C1251 1.382 . S
C1247 H1270 0.950 . S
C1248 C1247 1.388 . S
C1248 C1249 1.386 . S
C1249 C1248 1.386 . S
C1249 C1250 1.382 . S
C1249 H1271 0.950 . S
C1250 N1246 1.332 . S
C1250 C1249 1.382 . S
C1250 H1252 0.952 . S
C1251 N1246 1.332 . S
C1251 C1247 1.382 . S
C1251 H1253 0.948 . S
H1252 C1250 0.952 . S
H1253 C1251 0.948 . S
H1254 C1243 0.952 . S
H1255 C1245 0.948 . S
C1256 C1222 1.395 . S
C1256 C1226 1.391 . S
C1257 C1219 1.389 . S
C1257 C1239 1.392 . S
C1258 C1229 1.392 . S
C1258 C1231 1.389 . S
C1259 C1234 1.395 . S
C1259 C1236 1.391 . S
H1260 C1220 0.951 . S
H1261 C1221 0.950 . S
H1262 C1227 0.949 . S
H1263 C1228 0.950 . S
H1264 C1232 0.951 . S
H1265 C1233 0.950 . S
H1266 C1237 0.949 . S
H1267 C1238 0.950 . S
H1268 C1242 0.950 . S
H1269 C1244 0.950 . S
H1270 C1247 0.950 . S
H1271 C1249 0.950 . S
H1272 C1278 0.930 . S
H1273 C1282 0.930 . S
H1274 C1287 0.929 . S
H1275 C1285 0.929 . S
H1276 C1280 0.929 . S
H1277 C1286 0.929 . S
C1278 H1272 0.930 . S
C1278 C1279 1.367 . S
C1278 C1286 1.378 . S
C1279 C1278 1.367 . S
C1279 C1287 1.433 . S
C1280 H1276 0.929 . S
C1280 C1282 1.378 . S
C1280 C1284 1.350 . S
C1281 C1284 1.463 . S
C1281 C1286 1.350 . S
C1281 N1289 1.427 . S
C1282 H1273 0.930 . S
C1282 C1280 1.378 . S
C1282 C1283 1.367 . S
C1283 C1282 1.367 . S
C1283 C1285 1.433 . S
C1284 C1280 1.350 . S
C1284 C1281 1.463 . S
C1284 N1288 1.427 . S
C1285 H1275 0.929 . S
C1285 C1283 1.433 . S
C1285 N1288 1.384 . S
C1286 H1277 0.929 . S
C1286 C1278 1.378 . S
C1286 C1281 1.350 . S
C1287 H1274 0.929 . S
C1287 C1279 1.433 . S
C1287 N1289 1.384 . S
N1288 C1284 1.427 . S
N1288 C1285 1.384 . S
N1289 C1281 1.427 . S
N1289 C1287 1.384 . S
H1290 C1296 0.930 . S
H1291 C1300 0.930 . S
H1292 C1305 0.929 . S
H1293 C1303 0.929 . S
H1294 C1298 0.929 . S
H1295 C1304 0.929 . S
C1296 H1290 0.930 . S
C1296 C1297 1.367 . S
C1296 C1304 1.378 . S
C1297 C1296 1.367 . S
C1297 C1305 1.433 . S
C1298 H1294 0.929 . S
C1298 C1300 1.378 . S
C1298 C1302 1.350 . S
C1299 C1302 1.463 . S
C1299 C1304 1.350 . S
C1299 N1307 1.427 . S
C1300 H1291 0.930 . S
C1300 C1298 1.378 . S
C1300 C1301 1.367 . S
C1301 C1300 1.367 . S
C1301 C1303 1.433 . S
C1302 C1298 1.350 . S
C1302 C1299 1.463 . S
C1302 N1306 1.427 . S
C1303 H1293 0.929 . S
C1303 C1301 1.433 . S
C1303 N1306 1.384 . S
C1304 H1295 0.929 . S
C1304 C1296 1.378 . S
C1304 C1299 1.350 . S
C1305 H1292 0.929 . S
C1305 C1297 1.433 . S
C1305 N1307 1.384 . S
N1306 C1302 1.427 . S
N1306 C1303 1.384 . S
N1307 C1299 1.427 . S
N1307 C1305 1.384 . S
H1308 C1314 0.930 . S
H1309 C1318 0.930 . S
H1310 C1323 0.929 . S
H1311 C1321 0.929 . S
H1312 C1316 0.929 . S
H1313 C1322 0.929 . S
C1314 H1308 0.930 . S
C1314 C1315 1.367 . S
C1314 C1322 1.378 . S
C1315 C1314 1.367 . S
C1315 C1323 1.433 . S
C1316 H1312 0.929 . S
C1316 C1318 1.378 . S
C1316 C1320 1.350 . S
C1317 C1320 1.463 . S
C1317 C1322 1.350 . S
C1317 N1325 1.427 . S
C1318 H1309 0.930 . S
C1318 C1316 1.378 . S
C1318 C1319 1.367 . S
C1319 C1318 1.367 . S
C1319 C1321 1.433 . S
C1320 C1316 1.350 . S
C1320 C1317 1.463 . S
C1320 N1324 1.427 . S
C1321 H1311 0.929 . S
C1321 C1319 1.433 . S
C1321 N1324 1.384 . S
C1322 H1313 0.929 . S
C1322 C1314 1.378 . S
C1322 C1317 1.350 . S
C1323 H1310 0.929 . S
C1323 C1315 1.433 . S
C1323 N1325 1.384 . S
N1324 C1320 1.427 . S
N1324 C1321 1.384 . S
N1325 C1317 1.427 . S
N1325 C1323 1.384 . S
H1326 C1332 0.930 . S
H1327 C1336 0.930 . S
H1328 C1341 0.929 . S
H1329 C1339 0.929 . S
H1330 C1334 0.929 . S
H1331 C1340 0.929 . S
C1332 H1326 0.930 . S
C1332 C1333 1.367 . S
C1332 C1340 1.378 . S
C1333 C1332 1.367 . S
C1333 C1341 1.433 . S
C1334 H1330 0.929 . S
C1334 C1336 1.378 . S
C1334 C1338 1.350 . S
C1335 C1338 1.463 . S
C1335 C1340 1.350 . S
C1335 N1343 1.427 . S
C1336 H1327 0.930 . S
C1336 C1334 1.378 . S
C1336 C1337 1.367 . S
C1337 C1336 1.367 . S
C1337 C1339 1.433 . S
C1338 C1334 1.350 . S
C1338 C1335 1.463 . S
C1338 N1342 1.427 . S
C1339 H1329 0.929 . S
C1339 C1337 1.433 . S
C1339 N1342 1.384 . S
C1340 H1331 0.929 . S
C1340 C1332 1.378 . S
C1340 C1335 1.350 . S
C1341 H1328 0.929 . S
C1341 C1333 1.433 . S
C1341 N1343 1.384 . S
N1342 C1338 1.427 . S
N1342 C1339 1.384 . S
N1343 C1335 1.427 . S
N1343 C1341 1.384 . S
H1344 C1350 0.930 . S
H1345 C1354 0.930 . S
H1346 C1359 0.929 . S
H1347 C1357 0.929 . S
H1348 C1352 0.929 . S
H1349 C1358 0.929 . S
C1350 H1344 0.930 . S
C1350 C1351 1.367 . S
C1350 C1358 1.378 . S
C1351 C1350 1.367 . S
C1351 C1359 1.433 . S
C1352 H1348 0.929 . S
C1352 C1354 1.378 . S
C1352 C1356 1.350 . S
C1353 C1356 1.463 . S
C1353 C1358 1.350 . S
C1353 N1361 1.427 . S
C1354 H1345 0.930 . S
C1354 C1352 1.378 . S
C1354 C1355 1.367 . S
C1355 C1354 1.367 . S
C1355 C1357 1.433 . S
C1356 C1352 1.350 . S
C1356 C1353 1.463 . S
C1356 N1360 1.427 . S
C1357 H1347 0.929 . S
C1357 C1355 1.433 . S
C1357 N1360 1.384 . S
C1358 H1349 0.929 . S
C1358 C1350 1.378 . S
C1358 C1353 1.350 . S
C1359 H1346 0.929 . S
C1359 C1351 1.433 . S
C1359 N1361 1.384 . S
N1360 C1356 1.427 . S
N1360 C1357 1.384 . S
N1361 C1353 1.427 . S
N1361 C1359 1.384 . S
H1362 C1368 0.930 . S
H1363 C1372 0.930 . S
H1364 C1377 0.929 . S
H1365 C1375 0.929 . S
H1366 C1370 0.929 . S
H1367 C1376 0.929 . S
C1368 H1362 0.930 . S
C1368 C1369 1.367 . S
C1368 C1376 1.378 . S
C1369 C1368 1.367 . S
C1369 C1377 1.433 . S
C1370 H1366 0.929 . S
C1370 C1372 1.378 . S
C1370 C1374 1.350 . S
C1371 C1374 1.463 . S
C1371 C1376 1.350 . S
C1371 N1379 1.427 . S
C1372 H1363 0.930 . S
C1372 C1370 1.378 . S
C1372 C1373 1.367 . S
C1373 C1372 1.367 . S
C1373 C1375 1.433 . S
C1374 C1370 1.350 . S
C1374 C1371 1.463 . S
C1374 N1378 1.427 . S
C1375 H1365 0.929 . S
C1375 C1373 1.433 . S
C1375 N1378 1.384 . S
C1376 H1367 0.929 . S
C1376 C1368 1.378 . S
C1376 C1371 1.350 . S
C1377 H1364 0.929 . S
C1377 C1369 1.433 . S
C1377 N1379 1.384 . S
N1378 C1374 1.427 . S
N1378 C1375 1.384 . S
N1379 C1371 1.427 . S
N1379 C1377 1.384 . S
H1380 C1386 0.930 . S
H1381 C1390 0.930 . S
H1382 C1395 0.929 . S
H1383 C1393 0.929 . S
H1384 C1388 0.929 . S
H1385 C1394 0.929 . S
C1386 H1380 0.930 . S
C1386 C1387 1.367 . S
C1386 C1394 1.378 . S
C1387 C1386 1.367 . S
C1387 C1395 1.433 . S
C1388 H1384 0.929 . S
C1388 C1390 1.378 . S
C1388 C1392 1.350 . S
C1389 C1392 1.463 . S
C1389 C1394 1.350 . S
C1389 N1397 1.427 . S
C1390 H1381 0.930 . S
C1390 C1388 1.378 . S
C1390 C1391 1.367 . S
C1391 C1390 1.367 . S
C1391 C1393 1.433 . S
C1392 C1388 1.350 . S
C1392 C1389 1.463 . S
C1392 N1396 1.427 . S
C1393 H1383 0.929 . S
C1393 C1391 1.433 . S
C1393 N1396 1.384 . S
C1394 H1385 0.929 . S
C1394 C1386 1.378 . S
C1394 C1389 1.350 . S
C1395 H1382 0.929 . S
C1395 C1387 1.433 . S
C1395 N1397 1.384 . S
N1396 C1392 1.427 . S
N1396 C1393 1.384 . S
N1397 C1389 1.427 . S
N1397 C1395 1.384 . S
H1398 C1404 0.930 . S
H1399 C1408 0.930 . S
H1400 C1413 0.929 . S
H1401 C1411 0.929 . S
H1402 C1406 0.929 . S
H1403 C1412 0.929 . S
C1404 H1398 0.930 . S
C1404 C1405 1.367 . S
C1404 C1412 1.378 . S
C1405 C1404 1.367 . S
C1405 C1413 1.433 . S
C1406 H1402 0.929 . S
C1406 C1408 1.378 . S
C1406 C1410 1.350 . S
C1407 C1410 1.463 . S
C1407 C1412 1.350 . S
C1407 N1415 1.427 . S
C1408 H1399 0.930 . S
C1408 C1406 1.378 . S
C1408 C1409 1.367 . S
C1409 C1408 1.367 . S
C1409 C1411 1.433 . S
C1410 C1406 1.350 . S
C1410 C1407 1.463 . S
C1410 N1414 1.427 . S
C1411 H1401 0.929 . S
C1411 C1409 1.433 . S
C1411 N1414 1.384 . S
C1412 H1403 0.929 . S
C1412 C1404 1.378 . S
C1412 C1407 1.350 . S
C1413 H1400 0.929 . S
C1413 C1405 1.433 . S
C1413 N1415 1.384 . S
N1414 C1410 1.427 . S
N1414 C1411 1.384 . S
N1415 C1407 1.427 . S
N1415 C1413 1.384 . S
H1416 C1422 0.930 . S
H1417 C1426 0.930 . S
H1418 C1431 0.929 . S
H1419 C1429 0.929 . S
H1420 C1424 0.929 . S
H1421 C1430 0.929 . S
C1422 H1416 0.930 . S
C1422 C1423 1.367 . S
C1422 C1430 1.378 . S
C1423 C1422 1.367 . S
C1423 C1431 1.433 . S
C1424 H1420 0.929 . S
C1424 C1426 1.378 . S
C1424 C1428 1.350 . S
C1425 C1428 1.463 . S
C1425 C1430 1.350 . S
C1425 N1433 1.427 . S
C1426 H1417 0.930 . S
C1426 C1424 1.378 . S
C1426 C1427 1.367 . S
C1427 C1426 1.367 . S
C1427 C1429 1.433 . S
C1428 C1424 1.350 . S
C1428 C1425 1.463 . S
C1428 N1432 1.427 . S
C1429 H1419 0.929 . S
C1429 C1427 1.433 . S
C1429 N1432 1.384 . S
C1430 H1421 0.929 . S
C1430 C1422 1.378 . S
C1430 C1425 1.350 . S
C1431 H1418 0.929 . S
C1431 C1423 1.433 . S
C1431 N1433 1.384 . S
N1432 C1428 1.427 . S
N1432 C1429 1.384 . S
N1433 C1425 1.427 . S
N1433 C1431 1.384 . S
H1434 C1440 0.930 . S
H1435 C1444 0.930 . S
H1436 C1449 0.929 . S
H1437 C1447 0.929 . S
H1438 C1442 0.929 . S
H1439 C1448 0.929 . S
C1440 H1434 0.930 . S
C1440 C1441 1.367 . S
C1440 C1448 1.378 . S
C1441 C1440 1.367 . S
C1441 C1449 1.433 . S
C1442 H1438 0.929 . S
C1442 C1444 1.378 . S
C1442 C1446 1.350 . S
C1443 C1446 1.463 . S
C1443 C1448 1.350 . S
C1443 N1451 1.427 . S
C1444 H1435 0.930 . S
C1444 C1442 1.378 . S
C1444 C1445 1.367 . S
C1445 C1444 1.367 . S
C1445 C1447 1.433 . S
C1446 C1442 1.350 . S
C1446 C1443 1.463 . S
C1446 N1450 1.427 . S
C1447 H1437 0.929 . S
C1447 C1445 1.433 . S
C1447 N1450 1.384 . S
C1448 H1439 0.929 . S
C1448 C1440 1.378 . S
C1448 C1443 1.350 . S
C1449 H1436 0.929 . S
C1449 C1441 1.433 . S
C1449 N1451 1.384 . S
N1450 C1446 1.427 . S
N1450 C1447 1.384 . S
N1451 C1443 1.427 . S
N1451 C1449 1.384 . S
H1452 C1458 0.930 . S
H1453 C1462 0.930 . S
H1454 C1467 0.929 . S
H1455 C1465 0.929 . S
H1456 C1460 0.929 . S
H1457 C1466 0.929 . S
C1458 H1452 0.930 . S
C1458 C1459 1.367 . S
C1458 C1466 1.378 . S
C1459 C1458 1.367 . S
C1459 C1467 1.433 . S
C1460 H1456 0.929 . S
C1460 C1462 1.378 . S
C1460 C1464 1.350 . S
C1461 C1464 1.463 . S
C1461 C1466 1.350 . S
C1461 N1469 1.427 . S
C1462 H1453 0.930 . S
C1462 C1460 1.378 . S
C1462 C1463 1.367 . S
C1463 C1462 1.367 . S
C1463 C1465 1.433 . S
C1464 C1460 1.350 . S
C1464 C1461 1.463 . S
C1464 N1468 1.427 . S
C1465 H1455 0.929 . S
C1465 C1463 1.433 . S
C1465 N1468 1.384 . S
C1466 H1457 0.929 . S
C1466 C1458 1.378 . S
C1466 C1461 1.350 . S
C1467 H1454 0.929 . S
C1467 C1459 1.433 . S
C1467 N1469 1.384 . S
N1468 C1464 1.427 . S
N1468 C1465 1.384 . S
N1469 C1461 1.427 . S
N1469 C1467 1.384 . S
H1470 C1476 0.930 . S
H1471 C1480 0.930 . S
H1472 C1485 0.929 . S
H1473 C1483 0.929 . S
H1474 C1478 0.929 . S
H1475 C1484 0.929 . S
C1476 H1470 0.930 . S
C1476 C1477 1.367 . S
C1476 C1484 1.378 . S
C1477 C1476 1.367 . S
C1477 C1485 1.433 . S
C1478 H1474 0.929 . S
C1478 C1480 1.378 . S
C1478 C1482 1.350 . S
C1479 C1482 1.463 . S
C1479 C1484 1.350 . S
C1479 N1487 1.427 . S
C1480 H1471 0.930 . S
C1480 C1478 1.378 . S
C1480 C1481 1.367 . S
C1481 C1480 1.367 . S
C1481 C1483 1.433 . S
C1482 C1478 1.350 . S
C1482 C1479 1.463 . S
C1482 N1486 1.427 . S
C1483 H1473 0.929 . S
C1483 C1481 1.433 . S
C1483 N1486 1.384 . S
C1484 H1475 0.929 . S
C1484 C1476 1.378 . S
C1484 C1479 1.350 . S
C1485 H1472 0.929 . S
C1485 C1477 1.433 . S
C1485 N1487 1.384 . S
N1486 C1482 1.427 . S
N1486 C1483 1.384 . S
N1487 C1479 1.427 . S
N1487 C1485 1.384 . S
H1488 C1494 0.930 . S
H1489 C1498 0.930 . S
H1490 C1503 0.929 . S
H1491 C1501 0.929 . S
H1492 C1496 0.929 . S
H1493 C1502 0.929 . S
C1494 H1488 0.930 . S
C1494 C1495 1.367 . S
C1494 C1502 1.378 . S
C1495 C1494 1.367 . S
C1495 C1503 1.433 . S
C1496 H1492 0.929 . S
C1496 C1498 1.378 . S
C1496 C1500 1.350 . S
C1497 C1500 1.463 . S
C1497 C1502 1.350 . S
C1497 N1505 1.427 . S
C1498 H1489 0.930 . S
C1498 C1496 1.378 . S
C1498 C1499 1.367 . S
C1499 C1498 1.367 . S
C1499 C1501 1.433 . S
C1500 C1496 1.350 . S
C1500 C1497 1.463 . S
C1500 N1504 1.427 . S
C1501 H1491 0.929 . S
C1501 C1499 1.433 . S
C1501 N1504 1.384 . S
C1502 H1493 0.929 . S
C1502 C1494 1.378 . S
C1502 C1497 1.350 . S
C1503 H1490 0.929 . S
C1503 C1495 1.433 . S
C1503 N1505 1.384 . S
N1504 C1500 1.427 . S
N1504 C1501 1.384 . S
N1505 C1497 1.427 . S
N1505 C1503 1.384 . S
H1506 C1512 0.930 . S
H1507 C1516 0.930 . S
H1508 C1521 0.929 . S
H1509 C1519 0.929 . S
H1510 C1514 0.929 . S
H1511 C1520 0.929 . S
C1512 H1506 0.930 . S
C1512 C1513 1.367 . S
C1512 C1520 1.378 . S
C1513 C1512 1.367 . S
C1513 C1521 1.433 . S
C1514 H1510 0.929 . S
C1514 C1516 1.378 . S
C1514 C1518 1.350 . S
C1515 C1518 1.463 . S
C1515 C1520 1.350 . S
C1515 N1523 1.427 . S
C1516 H1507 0.930 . S
C1516 C1514 1.378 . S
C1516 C1517 1.367 . S
C1517 C1516 1.367 . S
C1517 C1519 1.433 . S
C1518 C1514 1.350 . S
C1518 C1515 1.463 . S
C1518 N1522 1.427 . S
C1519 H1509 0.929 . S
C1519 C1517 1.433 . S
C1519 N1522 1.384 . S
C1520 H1511 0.929 . S
C1520 C1512 1.378 . S
C1520 C1515 1.350 . S
C1521 H1508 0.929 . S
C1521 C1513 1.433 . S
C1521 N1523 1.384 . S
N1522 C1518 1.427 . S
N1522 C1519 1.384 . S
N1523 C1515 1.427 . S
N1523 C1521 1.384 . S
H1524 C1530 0.930 . S
H1525 C1534 0.930 . S
H1526 C1539 0.929 . S
H1527 C1537 0.929 . S
H1528 C1532 0.929 . S
H1529 C1538 0.929 . S
C1530 H1524 0.930 . S
C1530 C1531 1.367 . S
C1530 C1538 1.378 . S
C1531 C1530 1.367 . S
C1531 C1539 1.433 . S
C1532 H1528 0.929 . S
C1532 C1534 1.378 . S
C1532 C1536 1.350 . S
C1533 C1536 1.463 . S
C1533 C1538 1.350 . S
C1533 N1541 1.427 . S
C1534 H1525 0.930 . S
C1534 C1532 1.378 . S
C1534 C1535 1.367 . S
C1535 C1534 1.367 . S
C1535 C1537 1.433 . S
C1536 C1532 1.350 . S
C1536 C1533 1.463 . S
C1536 N1540 1.427 . S
C1537 H1527 0.929 . S
C1537 C1535 1.433 . S
C1537 N1540 1.384 . S
C1538 H1529 0.929 . S
C1538 C1530 1.378 . S
C1538 C1533 1.350 . S
C1539 H1526 0.929 . S
C1539 C1531 1.433 . S
C1539 N1541 1.384 . S
N1540 C1536 1.427 . S
N1540 C1537 1.384 . S
N1541 C1533 1.427 . S
N1541 C1539 1.384 . S
H1542 C1548 0.930 . S
H1543 C1552 0.930 . S
H1544 C1557 0.929 . S
H1545 C1555 0.929 . S
H1546 C1550 0.929 . S
H1547 C1556 0.929 . S
C1548 H1542 0.930 . S
C1548 C1549 1.367 . S
C1548 C1556 1.378 . S
C1549 C1548 1.367 . S
C1549 C1557 1.433 . S
C1550 H1546 0.929 . S
C1550 C1552 1.378 . S
C1550 C1554 1.350 . S
C1551 C1554 1.463 . S
C1551 C1556 1.350 . S
C1551 N1559 1.427 . S
C1552 H1543 0.930 . S
C1552 C1550 1.378 . S
C1552 C1553 1.367 . S
C1553 C1552 1.367 . S
C1553 C1555 1.433 . S
C1554 C1550 1.350 . S
C1554 C1551 1.463 . S
C1554 N1558 1.427 . S
C1555 H1545 0.929 . S
C1555 C1553 1.433 . S
C1555 N1558 1.384 . S
C1556 H1547 0.929 . S
C1556 C1548 1.378 . S
C1556 C1551 1.350 . S
C1557 H1544 0.929 . S
C1557 C1549 1.433 . S
C1557 N1559 1.384 . S
N1558 C1554 1.427 . S
N1558 C1555 1.384 . S
N1559 C1551 1.427 . S
N1559 C1557 1.384 . S
H1560 C1566 0.930 . S
H1561 C1570 0.930 . S
H1562 C1575 0.929 . S
H1563 C1573 0.929 . S
H1564 C1568 0.929 . S
H1565 C1574 0.929 . S
C1566 H1560 0.930 . S
C1566 C1567 1.367 . S
C1566 C1574 1.378 . S
C1567 C1566 1.367 . S
C1567 C1575 1.433 . S
C1568 H1564 0.929 . S
C1568 C1570 1.378 . S
C1568 C1572 1.350 . S
C1569 C1572 1.463 . S
C1569 C1574 1.350 . S
C1569 N1577 1.427 . S
C1570 H1561 0.930 . S
C1570 C1568 1.378 . S
C1570 C1571 1.367 . S
C1571 C1570 1.367 . S
C1571 C1573 1.433 . S
C1572 C1568 1.350 . S
C1572 C1569 1.463 . S
C1572 N1576 1.427 . S
C1573 H1563 0.929 . S
C1573 C1571 1.433 . S
C1573 N1576 1.384 . S
C1574 H1565 0.929 . S
C1574 C1566 1.378 . S
C1574 C1569 1.350 . S
C1575 H1562 0.929 . S
C1575 C1567 1.433 . S
C1575 N1577 1.384 . S
N1576 C1572 1.427 . S
N1576 C1573 1.384 . S
N1577 C1569 1.427 . S
N1577 C1575 1.384 . S
H1578 C1584 0.930 . S
H1579 C1588 0.930 . S
H1580 C1593 0.929 . S
H1581 C1591 0.929 . S
H1582 C1586 0.929 . S
H1583 C1592 0.929 . S
C1584 H1578 0.930 . S
C1584 C1585 1.367 . S
C1584 C1592 1.378 . S
C1585 C1584 1.367 . S
C1585 C1593 1.433 . S
C1586 H1582 0.929 . S
C1586 C1588 1.378 . S
C1586 C1590 1.350 . S
C1587 C1590 1.463 . S
C1587 C1592 1.350 . S
C1587 N1595 1.427 . S
C1588 H1579 0.930 . S
C1588 C1586 1.378 . S
C1588 C1589 1.367 . S
C1589 C1588 1.367 . S
C1589 C1591 1.433 . S
C1590 C1586 1.350 . S
C1590 C1587 1.463 . S
C1590 N1594 1.427 . S
C1591 H1581 0.929 . S
C1591 C1589 1.433 . S
C1591 N1594 1.384 . S
C1592 H1583 0.929 . S
C1592 C1584 1.378 . S
C1592 C1587 1.350 . S
C1593 H1580 0.929 . S
C1593 C1585 1.433 . S
C1593 N1595 1.384 . S
N1594 C1590 1.427 . S
N1594 C1591 1.384 . S
N1595 C1587 1.427 . S
N1595 C1593 1.384 . S
H1596 C1602 0.930 . S
H1597 C1606 0.930 . S
H1598 C1611 0.929 . S
H1599 C1609 0.929 . S
H1600 C1604 0.929 . S
H1601 C1610 0.929 . S
C1602 H1596 0.930 . S
C1602 C1603 1.367 . S
C1602 C1610 1.378 . S
C1603 C1602 1.367 . S
C1603 C1611 1.433 . S
C1604 H1600 0.929 . S
C1604 C1606 1.378 . S
C1604 C1608 1.350 . S
C1605 C1608 1.463 . S
C1605 C1610 1.350 . S
C1605 N1613 1.427 . S
C1606 H1597 0.930 . S
C1606 C1604 1.378 . S
C1606 C1607 1.367 . S
C1607 C1606 1.367 . S
C1607 C1609 1.433 . S
C1608 C1604 1.350 . S
C1608 C1605 1.463 . S
C1608 N1612 1.427 . S
C1609 H1599 0.929 . S
C1609 C1607 1.433 . S
C1609 N1612 1.384 . S
C1610 H1601 0.929 . S
C1610 C1602 1.378 . S
C1610 C1605 1.350 . S
C1611 H1598 0.929 . S
C1611 C1603 1.433 . S
C1611 N1613 1.384 . S
N1612 C1608 1.427 . S
N1612 C1609 1.384 . S
N1613 C1605 1.427 . S
N1613 C1611 1.384 . S
H1614 C1620 0.930 . S
H1615 C1624 0.930 . S
H1616 C1629 0.929 . S
H1617 C1627 0.929 . S
H1618 C1622 0.929 . S
H1619 C1628 0.929 . S
C1620 H1614 0.930 . S
C1620 C1621 1.367 . S
C1620 C1628 1.378 . S
C1621 C1620 1.367 . S
C1621 C1629 1.433 . S
C1622 H1618 0.929 . S
C1622 C1624 1.378 . S
C1622 C1626 1.350 . S
C1623 C1626 1.463 . S
C1623 C1628 1.350 . S
C1623 N1631 1.427 . S
C1624 H1615 0.930 . S
C1624 C1622 1.378 . S
C1624 C1625 1.367 . S
C1625 C1624 1.367 . S
C1625 C1627 1.433 . S
C1626 C1622 1.350 . S
C1626 C1623 1.463 . S
C1626 N1630 1.427 . S
C1627 H1617 0.929 . S
C1627 C1625 1.433 . S
C1627 N1630 1.384 . S
C1628 H1619 0.929 . S
C1628 C1620 1.378 . S
C1628 C1623 1.350 . S
C1629 H1616 0.929 . S
C1629 C1621 1.433 . S
C1629 N1631 1.384 . S
N1630 C1626 1.427 . S
N1630 C1627 1.384 . S
N1631 C1623 1.427 . S
N1631 C1629 1.384 . S
H1632 C1638 0.930 . S
H1633 C1642 0.930 . S
H1634 C1647 0.929 . S
H1635 C1645 0.929 . S
H1636 C1640 0.929 . S
H1637 C1646 0.929 . S
C1638 H1632 0.930 . S
C1638 C1639 1.367 . S
C1638 C1646 1.378 . S
C1639 C1638 1.367 . S
C1639 C1647 1.433 . S
C1640 H1636 0.929 . S
C1640 C1642 1.378 . S
C1640 C1644 1.350 . S
C1641 C1644 1.463 . S
C1641 C1646 1.350 . S
C1641 N1649 1.427 . S
C1642 H1633 0.930 . S
C1642 C1640 1.378 . S
C1642 C1643 1.367 . S
C1643 C1642 1.367 . S
C1643 C1645 1.433 . S
C1644 C1640 1.350 . S
C1644 C1641 1.463 . S
C1644 N1648 1.427 . S
C1645 H1635 0.929 . S
C1645 C1643 1.433 . S
C1645 N1648 1.384 . S
C1646 H1637 0.929 . S
C1646 C1638 1.378 . S
C1646 C1641 1.350 . S
C1647 H1634 0.929 . S
C1647 C1639 1.433 . S
C1647 N1649 1.384 . S
N1648 C1644 1.427 . S
N1648 C1645 1.384 . S
N1649 C1641 1.427 . S
N1649 C1647 1.384 . S
H1650 C1656 0.930 . S
H1651 C1660 0.930 . S
H1652 C1665 0.929 . S
H1653 C1663 0.929 . S
H1654 C1658 0.929 . S
H1655 C1664 0.929 . S
C1656 H1650 0.930 . S
C1656 C1657 1.367 . S
C1656 C1664 1.378 . S
C1657 C1656 1.367 . S
C1657 C1665 1.433 . S
C1658 H1654 0.929 . S
C1658 C1660 1.378 . S
C1658 C1662 1.350 . S
C1659 C1662 1.463 . S
C1659 C1664 1.350 . S
C1659 N1667 1.427 . S
C1660 H1651 0.930 . S
C1660 C1658 1.378 . S
C1660 C1661 1.367 . S
C1661 C1660 1.367 . S
C1661 C1663 1.433 . S
C1662 C1658 1.350 . S
C1662 C1659 1.463 . S
C1662 N1666 1.427 . S
C1663 H1653 0.929 . S
C1663 C1661 1.433 . S
C1663 N1666 1.384 . S
C1664 H1655 0.929 . S
C1664 C1656 1.378 . S
C1664 C1659 1.350 . S
C1665 H1652 0.929 . S
C1665 C1657 1.433 . S
C1665 N1667 1.384 . S
N1666 C1662 1.427 . S
N1666 C1663 1.384 . S
N1667 C1659 1.427 . S
N1667 C1665 1.384 . S
H1668 C1674 0.930 . S
H1669 C1678 0.930 . S
H1670 C1683 0.929 . S
H1671 C1681 0.929 . S
H1672 C1676 0.929 . S
H1673 C1682 0.929 . S
C1674 H1668 0.930 . S
C1674 C1675 1.367 . S
C1674 C1682 1.378 . S
C1675 C1674 1.367 . S
C1675 C1683 1.433 . S
C1676 H1672 0.929 . S
C1676 C1678 1.378 . S
C1676 C1680 1.350 . S
C1677 C1680 1.463 . S
C1677 C1682 1.350 . S
C1677 N1685 1.427 . S
C1678 H1669 0.930 . S
C1678 C1676 1.378 . S
C1678 C1679 1.367 . S
C1679 C1678 1.367 . S
C1679 C1681 1.433 . S
C1680 C1676 1.350 . S
C1680 C1677 1.463 . S
C1680 N1684 1.427 . S
C1681 H1671 0.929 . S
C1681 C1679 1.433 . S
C1681 N1684 1.384 . S
C1682 H1673 0.929 . S
C1682 C1674 1.378 . S
C1682 C1677 1.350 . S
C1683 H1670 0.929 . S
C1683 C1675 1.433 . S
C1683 N1685 1.384 . S
N1684 C1680 1.427 . S
N1684 C1681 1.384 . S
N1685 C1677 1.427 . S
N1685 C1683 1.384 . S
H1686 C1692 0.930 . S
H1687 C1696 0.930 . S
H1688 C1701 0.929 . S
H1689 C1699 0.929 . S
H1690 C1694 0.929 . S
H1691 C1700 0.929 . S
C1692 H1686 0.930 . S
C1692 C1693 1.367 . S
C1692 C1700 1.378 . S
C1693 C1692 1.367 . S
C1693 C1701 1.433 . S
C1694 H1690 0.929 . S
C1694 C1696 1.378 . S
C1694 C1698 1.350 . S
C1695 C1698 1.463 . S
C1695 C1700 1.350 . S
C1695 N1703 1.427 . S
C1696 H1687 0.930 . S
C1696 C1694 1.378 . S
C1696 C1697 1.367 . S
C1697 C1696 1.367 . S
C1697 C1699 1.433 . S
C1698 C1694 1.350 . S
C1698 C1695 1.463 . S
C1698 N1702 1.427 . S
C1699 H1689 0.929 . S
C1699 C1697 1.433 . S
C1699 N1702 1.384 . S
C1700 H1691 0.929 . S
C1700 C1692 1.378 . S
C1700 C1695 1.350 . S
C1701 H1688 0.929 . S
C1701 C1693 1.433 . S
C1701 N1703 1.384 . S
N1702 C1698 1.427 . S
N1702 C1699 1.384 . S
N1703 C1695 1.427 . S
N1703 C1701 1.384 . S
H1704 C1710 0.930 . S
H1705 C1714 0.930 . S
H1706 C1719 0.929 . S
H1707 C1717 0.929 . S
H1708 C1712 0.929 . S
H1709 C1718 0.929 . S
C1710 H1704 0.930 . S
C1710 C1711 1.367 . S
C1710 C1718 1.378 . S
C1711 C1710 1.367 . S
C1711 C1719 1.433 . S
C1712 H1708 0.929 . S
C1712 C1714 1.378 . S
C1712 C1716 1.350 . S
C1713 C1716 1.463 . S
C1713 C1718 1.350 . S
C1713 N1721 1.427 . S
C1714 H1705 0.930 . S
C1714 C1712 1.378 . S
C1714 C1715 1.367 . S
C1715 C1714 1.367 . S
C1715 C1717 1.433 . S
C1716 C1712 1.350 . S
C1716 C1713 1.463 . S
C1716 N1720 1.427 . S
C1717 H1707 0.929 . S
C1717 C1715 1.433 . S
C1717 N1720 1.384 . S
C1718 H1709 0.929 . S
C1718 C1710 1.378 . S
C1718 C1713 1.350 . S
C1719 H1706 0.929 . S
C1719 C1711 1.433 . S
C1719 N1721 1.384 . S
N1720 C1716 1.427 . S
N1720 C1717 1.384 . S
N1721 C1713 1.427 . S
N1721 C1719 1.384 . S
H1722 C1728 0.930 . S
H1723 C1732 0.930 . S
H1724 C1737 0.929 . S
H1725 C1735 0.929 . S
H1726 C1730 0.929 . S
H1727 C1736 0.929 . S
C1728 H1722 0.930 . S
C1728 C1729 1.367 . S
C1728 C1736 1.378 . S
C1729 C1728 1.367 . S
C1729 C1737 1.433 . S
C1730 H1726 0.929 . S
C1730 C1732 1.378 . S
C1730 C1734 1.350 . S
C1731 C1734 1.463 . S
C1731 C1736 1.350 . S
C1731 N1739 1.427 . S
C1732 H1723 0.930 . S
C1732 C1730 1.378 . S
C1732 C1733 1.367 . S
C1733 C1732 1.367 . S
C1733 C1735 1.433 . S
C1734 C1730 1.350 . S
C1734 C1731 1.463 . S
C1734 N1738 1.427 . S
C1735 H1725 0.929 . S
C1735 C1733 1.433 . S
C1735 N1738 1.384 . S
C1736 H1727 0.929 . S
C1736 C1728 1.378 . S
C1736 C1731 1.350 . S
C1737 H1724 0.929 . S
C1737 C1729 1.433 . S
C1737 N1739 1.384 . S
N1738 C1734 1.427 . S
N1738 C1735 1.384 . S
N1739 C1731 1.427 . S
N1739 C1737 1.384 . S
H1740 C1746 0.930 . S
H1741 C1750 0.930 . S
H1742 C1755 0.929 . S
H1743 C1753 0.929 . S
H1744 C1748 0.929 . S
H1745 C1754 0.929 . S
C1746 H1740 0.930 . S
C1746 C1747 1.367 . S
C1746 C1754 1.378 . S
C1747 C1746 1.367 . S
C1747 C1755 1.433 . S
C1748 H1744 0.929 . S
C1748 C1750 1.378 . S
C1748 C1752 1.350 . S
C1749 C1752 1.463 . S
C1749 C1754 1.350 . S
C1749 N1757 1.427 . S
C1750 H1741 0.930 . S
C1750 C1748 1.378 . S
C1750 C1751 1.367 . S
C1751 C1750 1.367 . S
C1751 C1753 1.433 . S
C1752 C1748 1.350 . S
C1752 C1749 1.463 . S
C1752 N1756 1.427 . S
C1753 H1743 0.929 . S
C1753 C1751 1.433 . S
C1753 N1756 1.384 . S
C1754 H1745 0.929 . S
C1754 C1746 1.378 . S
C1754 C1749 1.350 . S
C1755 H1742 0.929 . S
C1755 C1747 1.433 . S
C1755 N1757 1.384 . S
N1756 C1752 1.427 . S
N1756 C1753 1.384 . S
N1757 C1749 1.427 . S
N1757 C1755 1.384 . S
H1758 C1764 0.930 . S
H1759 C1768 0.930 . S
H1760 C1773 0.929 . S
H1761 C1771 0.929 . S
H1762 C1766 0.929 . S
H1763 C1772 0.929 . S
C1764 H1758 0.930 . S
C1764 C1765 1.367 . S
C1764 C1772 1.378 . S
C1765 C1764 1.367 . S
C1765 C1773 1.433 . S
C1766 H1762 0.929 . S
C1766 C1768 1.378 . S
C1766 C1770 1.350 . S
C1767 C1770 1.463 . S
C1767 C1772 1.350 . S
C1767 N1775 1.427 . S
C1768 H1759 0.930 . S
C1768 C1766 1.378 . S
C1768 C1769 1.367 . S
C1769 C1768 1.367 . S
C1769 C1771 1.433 . S
C1770 C1766 1.350 . S
C1770 C1767 1.463 . S
C1770 N1774 1.427 . S
C1771 H1761 0.929 . S
C1771 C1769 1.433 . S
C1771 N1774 1.384 . S
C1772 H1763 0.929 . S
C1772 C1764 1.378 . S
C1772 C1767 1.350 . S
C1773 H1760 0.929 . S
C1773 C1765 1.433 . S
C1773 N1775 1.384 . S
N1774 C1770 1.427 . S
N1774 C1771 1.384 . S
N1775 C1767 1.427 . S
N1775 C1773 1.384 . S
H1776 C1782 0.930 . S
H1777 C1786 0.930 . S
H1778 C1791 0.929 . S
H1779 C1789 0.929 . S
H1780 C1784 0.929 . S
H1781 C1790 0.929 . S
C1782 H1776 0.930 . S
C1782 C1783 1.367 . S
C1782 C1790 1.378 . S
C1783 C1782 1.367 . S
C1783 C1791 1.433 . S
C1784 H1780 0.929 . S
C1784 C1786 1.378 . S
C1784 C1788 1.350 . S
C1785 C1788 1.463 . S
C1785 C1790 1.350 . S
C1785 N1793 1.427 . S
C1786 H1777 0.930 . S
C1786 C1784 1.378 . S
C1786 C1787 1.367 . S
C1787 C1786 1.367 . S
C1787 C1789 1.433 . S
C1788 C1784 1.350 . S
C1788 C1785 1.463 . S
C1788 N1792 1.427 . S
C1789 H1779 0.929 . S
C1789 C1787 1.433 . S
C1789 N1792 1.384 . S
C1790 H1781 0.929 . S
C1790 C1782 1.378 . S
C1790 C1785 1.350 . S
C1791 H1778 0.929 . S
C1791 C1783 1.433 . S
C1791 N1793 1.384 . S
N1792 C1788 1.427 . S
N1792 C1789 1.384 . S
N1793 C1785 1.427 . S
N1793 C1791 1.384 . S
H1794 C1800 0.930 . S
H1795 C1804 0.930 . S
H1796 C1809 0.929 . S
H1797 C1807 0.929 . S
H1798 C1802 0.929 . S
H1799 C1808 0.929 . S
C1800 H1794 0.930 . S
C1800 C1801 1.367 . S
C1800 C1808 1.378 . S
C1801 C1800 1.367 . S
C1801 C1809 1.433 . S
C1802 H1798 0.929 . S
C1802 C1804 1.378 . S
C1802 C1806 1.350 . S
C1803 C1806 1.463 . S
C1803 C1808 1.350 . S
C1803 N1811 1.427 . S
C1804 H1795 0.930 . S
C1804 C1802 1.378 . S
C1804 C1805 1.367 . S
C1805 C1804 1.367 . S
C1805 C1807 1.433 . S
C1806 C1802 1.350 . S
C1806 C1803 1.463 . S
C1806 N1810 1.427 . S
C1807 H1797 0.929 . S
C1807 C1805 1.433 . S
C1807 N1810 1.384 . S
C1808 H1799 0.929 . S
C1808 C1800 1.378 . S
C1808 C1803 1.350 . S
C1809 H1796 0.929 . S
C1809 C1801 1.433 . S
C1809 N1811 1.384 . S
N1810 C1806 1.427 . S
N1810 C1807 1.384 . S
N1811 C1803 1.427 . S
N1811 C1809 1.384 . S
H1812 C1818 0.930 . S
H1813 C1822 0.930 . S
H1814 C1827 0.929 . S
H1815 C1825 0.929 . S
H1816 C1820 0.929 . S
H1817 C1826 0.929 . S
C1818 H1812 0.930 . S
C1818 C1819 1.367 . S
C1818 C1826 1.378 . S
C1819 C1818 1.367 . S
C1819 C1827 1.433 . S
C1820 H1816 0.929 . S
C1820 C1822 1.378 . S
C1820 C1824 1.350 . S
C1821 C1824 1.463 . S
C1821 C1826 1.350 . S
C1821 N1829 1.427 . S
C1822 H1813 0.930 . S
C1822 C1820 1.378 . S
C1822 C1823 1.367 . S
C1823 C1822 1.367 . S
C1823 C1825 1.433 . S
C1824 C1820 1.350 . S
C1824 C1821 1.463 . S
C1824 N1828 1.427 . S
C1825 H1815 0.929 . S
C1825 C1823 1.433 . S
C1825 N1828 1.384 . S
C1826 H1817 0.929 . S
C1826 C1818 1.378 . S
C1826 C1821 1.350 . S
C1827 H1814 0.929 . S
C1827 C1819 1.433 . S
C1827 N1829 1.384 . S
N1828 C1824 1.427 . S
N1828 C1825 1.384 . S
N1829 C1821 1.427 . S
N1829 C1827 1.384 . S
H1830 C1836 0.930 . S
H1831 C1840 0.930 . S
H1832 C1845 0.929 . S
H1833 C1843 0.929 . S
H1834 C1838 0.929 . S
H1835 C1844 0.929 . S
C1836 H1830 0.930 . S
C1836 C1837 1.367 . S
C1836 C1844 1.378 . S
C1837 C1836 1.367 . S
C1837 C1845 1.433 . S
C1838 H1834 0.929 . S
C1838 C1840 1.378 . S
C1838 C1842 1.350 . S
C1839 C1842 1.463 . S
C1839 C1844 1.350 . S
C1839 N1847 1.427 . S
C1840 H1831 0.930 . S
C1840 C1838 1.378 . S
C1840 C1841 1.367 . S
C1841 C1840 1.367 . S
C1841 C1843 1.433 . S
C1842 C1838 1.350 . S
C1842 C1839 1.463 . S
C1842 N1846 1.427 . S
C1843 H1833 0.929 . S
C1843 C1841 1.433 . S
C1843 N1846 1.384 . S
C1844 H1835 0.929 . S
C1844 C1836 1.378 . S
C1844 C1839 1.350 . S
C1845 H1832 0.929 . S
C1845 C1837 1.433 . S
C1845 N1847 1.384 . S
N1846 C1842 1.427 . S
N1846 C1843 1.384 . S
N1847 C1839 1.427 . S
N1847 C1845 1.384 . S
H1848 C1854 0.930 . S
H1849 C1858 0.930 . S
H1850 C1863 0.929 . S
H1851 C1861 0.929 . S
H1852 C1856 0.929 . S
H1853 C1862 0.929 . S
C1854 H1848 0.930 . S
C1854 C1855 1.367 . S
C1854 C1862 1.378 . S
C1855 C1854 1.367 . S
C1855 C1863 1.433 . S
C1856 H1852 0.929 . S
C1856 C1858 1.378 . S
C1856 C1860 1.350 . S
C1857 C1860 1.463 . S
C1857 C1862 1.350 . S
C1857 N1865 1.427 . S
C1858 H1849 0.930 . S
C1858 C1856 1.378 . S
C1858 C1859 1.367 . S
C1859 C1858 1.367 . S
C1859 C1861 1.433 . S
C1860 C1856 1.350 . S
C1860 C1857 1.463 . S
C1860 N1864 1.427 . S
C1861 H1851 0.929 . S
C1861 C1859 1.433 . S
C1861 N1864 1.384 . S
C1862 H1853 0.929 . S
C1862 C1854 1.378 . S
C1862 C1857 1.350 . S
C1863 H1850 0.929 . S
C1863 C1855 1.433 . S
C1863 N1865 1.384 . S
N1864 C1860 1.427 . S
N1864 C1861 1.384 . S
N1865 C1857 1.427 . S
N1865 C1863 1.384 . S
H1866 C1872 0.930 . S
H1867 C1876 0.930 . S
H1868 C1881 0.929 . S
H1869 C1879 0.929 . S
H1870 C1874 0.929 . S
H1871 C1880 0.929 . S
C1872 H1866 0.930 . S
C1872 C1873 1.367 . S
C1872 C1880 1.378 . S
C1873 C1872 1.367 . S
C1873 C1881 1.433 . S
C1874 H1870 0.929 . S
C1874 C1876 1.378 . S
C1874 C1878 1.350 . S
C1875 C1878 1.463 . S
C1875 C1880 1.350 . S
C1875 N1883 1.427 . S
C1876 H1867 0.930 . S
C1876 C1874 1.378 . S
C1876 C1877 1.367 . S
C1877 C1876 1.367 . S
C1877 C1879 1.433 . S
C1878 C1874 1.350 . S
C1878 C1875 1.463 . S
C1878 N1882 1.427 . S
C1879 H1869 0.929 . S
C1879 C1877 1.433 . S
C1879 N1882 1.384 . S
C1880 H1871 0.929 . S
C1880 C1872 1.378 . S
C1880 C1875 1.350 . S
C1881 H1868 0.929 . S
C1881 C1873 1.433 . S
C1881 N1883 1.384 . S
N1882 C1878 1.427 . S
N1882 C1879 1.384 . S
N1883 C1875 1.427 . S
N1883 C1881 1.384 . S
H1884 C1890 0.930 . S
H1885 C1894 0.930 . S
H1886 C1899 0.929 . S
H1887 C1897 0.929 . S
H1888 C1892 0.929 . S
H1889 C1898 0.929 . S
C1890 H1884 0.930 . S
C1890 C1891 1.367 . S
C1890 C1898 1.378 . S
C1891 C1890 1.367 . S
C1891 C1899 1.433 . S
C1892 H1888 0.929 . S
C1892 C1894 1.378 . S
C1892 C1896 1.350 . S
C1893 C1896 1.463 . S
C1893 C1898 1.350 . S
C1893 N1901 1.427 . S
C1894 H1885 0.930 . S
C1894 C1892 1.378 . S
C1894 C1895 1.367 . S
C1895 C1894 1.367 . S
C1895 C1897 1.433 . S
C1896 C1892 1.350 . S
C1896 C1893 1.463 . S
C1896 N1900 1.427 . S
C1897 H1887 0.929 . S
C1897 C1895 1.433 . S
C1897 N1900 1.384 . S
C1898 H1889 0.929 . S
C1898 C1890 1.378 . S
C1898 C1893 1.350 . S
C1899 H1886 0.929 . S
C1899 C1891 1.433 . S
C1899 N1901 1.384 . S
N1900 C1896 1.427 . S
N1900 C1897 1.384 . S
N1901 C1893 1.427 . S
N1901 C1899 1.384 . S
H1902 C1908 0.930 . S
H1903 C1912 0.930 . S
H1904 C1917 0.929 . S
H1905 C1915 0.929 . S
H1906 C1910 0.929 . S
H1907 C1916 0.929 . S
C1908 H1902 0.930 . S
C1908 C1909 1.367 . S
C1908 C1916 1.378 . S
C1909 C1908 1.367 . S
C1909 C1917 1.433 . S
C1910 H1906 0.929 . S
C1910 C1912 1.378 . S
C1910 C1914 1.350 . S
C1911 C1914 1.463 . S
C1911 C1916 1.350 . S
C1911 N1919 1.427 . S
C1912 H1903 0.930 . S
C1912 C1910 1.378 . S
C1912 C1913 1.367 . S
C1913 C1912 1.367 . S
C1913 C1915 1.433 . S
C1914 C1910 1.350 . S
C1914 C1911 1.463 . S
C1914 N1918 1.427 . S
C1915 H1905 0.929 . S
C1915 C1913 1.433 . S
C1915 N1918 1.384 . S
C1916 H1907 0.929 . S
C1916 C1908 1.378 . S
C1916 C1911 1.350 . S
C1917 H1904 0.929 . S
C1917 C1909 1.433 . S
C1917 N1919 1.384 . S
N1918 C1914 1.427 . S
N1918 C1915 1.384 . S
N1919 C1911 1.427 . S
N1919 C1917 1.384 . S
H1920 C1926 0.930 . S
H1921 C1930 0.930 . S
H1922 C1935 0.929 . S
H1923 C1933 0.929 . S
H1924 C1928 0.929 . S
H1925 C1934 0.929 . S
C1926 H1920 0.930 . S
C1926 C1927 1.367 . S
C1926 C1934 1.378 . S
C1927 C1926 1.367 . S
C1927 C1935 1.433 . S
C1928 H1924 0.929 . S
C1928 C1930 1.378 . S
C1928 C1932 1.350 . S
C1929 C1932 1.463 . S
C1929 C1934 1.350 . S
C1929 N1937 1.427 . S
C1930 H1921 0.930 . S
C1930 C1928 1.378 . S
C1930 C1931 1.367 . S
C1931 C1930 1.367 . S
C1931 C1933 1.433 . S
C1932 C1928 1.350 . S
C1932 C1929 1.463 . S
C1932 N1936 1.427 . S
C1933 H1923 0.929 . S
C1933 C1931 1.433 . S
C1933 N1936 1.384 . S
C1934 H1925 0.929 . S
C1934 C1926 1.378 . S
C1934 C1929 1.350 . S
C1935 H1922 0.929 . S
C1935 C1927 1.433 . S
C1935 N1937 1.384 . S
N1936 C1932 1.427 . S
N1936 C1933 1.384 . S
N1937 C1929 1.427 . S
N1937 C1935 1.384 . S
H1938 C1944 0.930 . S
H1939 C1948 0.930 . S
H1940 C1953 0.929 . S
H1941 C1951 0.929 . S
H1942 C1946 0.929 . S
H1943 C1952 0.929 . S
C1944 H1938 0.930 . S
C1944 C1945 1.367 . S
C1944 C1952 1.378 . S
C1945 C1944 1.367 . S
C1945 C1953 1.433 . S
C1946 H1942 0.929 . S
C1946 C1948 1.378 . S
C1946 C1950 1.350 . S
C1947 C1950 1.463 . S
C1947 C1952 1.350 . S
C1947 N1955 1.427 . S
C1948 H1939 0.930 . S
C1948 C1946 1.378 . S
C1948 C1949 1.367 . S
C1949 C1948 1.367 . S
C1949 C1951 1.433 . S
C1950 C1946 1.350 . S
C1950 C1947 1.463 . S
C1950 N1954 1.427 . S
C1951 H1941 0.929 . S
C1951 C1949 1.433 . S
C1951 N1954 1.384 . S
C1952 H1943 0.929 . S
C1952 C1944 1.378 . S
C1952 C1947 1.350 . S
C1953 H1940 0.929 . S
C1953 C1945 1.433 . S
C1953 N1955 1.384 . S
N1954 C1950 1.427 . S
N1954 C1951 1.384 . S
N1955 C1947 1.427 . S
N1955 C1953 1.384 . S
H1956 C1962 0.930 . S
H1957 C1966 0.930 . S
H1958 C1971 0.929 . S
H1959 C1969 0.929 . S
H1960 C1964 0.929 . S
H1961 C1970 0.929 . S
C1962 H1956 0.930 . S
C1962 C1963 1.367 . S
C1962 C1970 1.378 . S
C1963 C1962 1.367 . S
C1963 C1971 1.433 . S
C1964 H1960 0.929 . S
C1964 C1966 1.378 . S
C1964 C1968 1.350 . S
C1965 C1968 1.463 . S
C1965 C1970 1.350 . S
C1965 N1973 1.427 . S
C1966 H1957 0.930 . S
C1966 C1964 1.378 . S
C1966 C1967 1.367 . S
C1967 C1966 1.367 . S
C1967 C1969 1.433 . S
C1968 C1964 1.350 . S
C1968 C1965 1.463 . S
C1968 N1972 1.427 . S
C1969 H1959 0.929 . S
C1969 C1967 1.433 . S
C1969 N1972 1.384 . S
C1970 H1961 0.929 . S
C1970 C1962 1.378 . S
C1970 C1965 1.350 . S
C1971 H1958 0.929 . S
C1971 C1963 1.433 . S
C1971 N1973 1.384 . S
N1972 C1968 1.427 . S
N1972 C1969 1.384 . S
N1973 C1965 1.427 . S
N1973 C1971 1.384 . S
H1974 C1980 0.930 . S
H1975 C1984 0.930 . S
H1976 C1989 0.929 . S
H1977 C1987 0.929 . S
H1978 C1982 0.929 . S
H1979 C1988 0.929 . S
C1980 H1974 0.930 . S
C1980 C1981 1.367 . S
C1980 C1988 1.378 . S
C1981 C1980 1.367 . S
C1981 C1989 1.433 . S
C1982 H1978 0.929 . S
C1982 C1984 1.378 . S
C1982 C1986 1.350 . S
C1983 C1986 1.463 . S
C1983 C1988 1.350 . S
C1983 N1991 1.427 . S
C1984 H1975 0.930 . S
C1984 C1982 1.378 . S
C1984 C1985 1.367 . S
C1985 C1984 1.367 . S
C1985 C1987 1.433 . S
C1986 C1982 1.350 . S
C1986 C1983 1.463 . S
C1986 N1990 1.427 . S
C1987 H1977 0.929 . S
C1987 C1985 1.433 . S
C1987 N1990 1.384 . S
C1988 H1979 0.929 . S
C1988 C1980 1.378 . S
C1988 C1983 1.350 . S
C1989 H1976 0.929 . S
C1989 C1981 1.433 . S
C1989 N1991 1.384 . S
N1990 C1986 1.427 . S
N1990 C1987 1.384 . S
N1991 C1983 1.427 . S
N1991 C1989 1.384 . S
H1992 C1998 0.930 . S
H1993 C2002 0.930 . S
H1994 C2007 0.929 . S
H1995 C2005 0.929 . S
H1996 C2000 0.929 . S
H1997 C2006 0.929 . S
C1998 H1992 0.930 . S
C1998 C1999 1.367 . S
C1998 C2006 1.378 . S
C1999 C1998 1.367 . S
C1999 C2007 1.433 . S
C2000 H1996 0.929 . S
C2000 C2002 1.378 . S
C2000 C2004 1.350 . S
C2001 C2004 1.463 . S
C2001 C2006 1.350 . S
C2001 N2009 1.427 . S
C2002 H1993 0.930 . S
C2002 C2000 1.378 . S
C2002 C2003 1.367 . S
C2003 C2002 1.367 . S
C2003 C2005 1.433 . S
C2004 C2000 1.350 . S
C2004 C2001 1.463 . S
C2004 N2008 1.427 . S
C2005 H1995 0.929 . S
C2005 C2003 1.433 . S
C2005 N2008 1.384 . S
C2006 H1997 0.929 . S
C2006 C1998 1.378 . S
C2006 C2001 1.350 . S
C2007 H1994 0.929 . S
C2007 C1999 1.433 . S
C2007 N2009 1.384 . S
N2008 C2004 1.427 . S
N2008 C2005 1.384 . S
N2009 C2001 1.427 . S
N2009 C2007 1.384 . S
H2010 C2016 0.930 . S
H2011 C2020 0.930 . S
H2012 C2025 0.929 . S
H2013 C2023 0.929 . S
H2014 C2018 0.929 . S
H2015 C2024 0.929 . S
C2016 H2010 0.930 . S
C2016 C2017 1.367 . S
C2016 C2024 1.378 . S
C2017 C2016 1.367 . S
C2017 C2025 1.433 . S
C2018 H2014 0.929 . S
C2018 C2020 1.378 . S
C2018 C2022 1.350 . S
C2019 C2022 1.463 . S
C2019 C2024 1.350 . S
C2019 N2027 1.427 . S
C2020 H2011 0.930 . S
C2020 C2018 1.378 . S
C2020 C2021 1.367 . S
C2021 C2020 1.367 . S
C2021 C2023 1.433 . S
C2022 C2018 1.350 . S
C2022 C2019 1.463 . S
C2022 N2026 1.427 . S
C2023 H2013 0.929 . S
C2023 C2021 1.433 . S
C2023 N2026 1.384 . S
C2024 H2015 0.929 . S
C2024 C2016 1.378 . S
C2024 C2019 1.350 . S
C2025 H2012 0.929 . S
C2025 C2017 1.433 . S
C2025 N2027 1.384 . S
N2026 C2022 1.427 . S
N2026 C2023 1.384 . S
N2027 C2019 1.427 . S
N2027 C2025 1.384 . S
H2028 C2034 0.930 . S
H2029 C2038 0.930 . S
H2030 C2043 0.929 . S
H2031 C2041 0.929 . S
H2032 C2036 0.929 . S
H2033 C2042 0.929 . S
C2034 H2028 0.930 . S
C2034 C2035 1.367 . S
C2034 C2042 1.378 . S
C2035 C2034 1.367 . S
C2035 C2043 1.433 . S
C2036 H2032 0.929 . S
C2036 C2038 1.378 . S
C2036 C2040 1.350 . S
C2037 C2040 1.463 . S
C2037 C2042 1.350 . S
C2037 N2045 1.427 . S
C2038 H2029 0.930 . S
C2038 C2036 1.378 . S
C2038 C2039 1.367 . S
C2039 C2038 1.367 . S
C2039 C2041 1.433 . S
C2040 C2036 1.350 . S
C2040 C2037 1.463 . S
C2040 N2044 1.427 . S
C2041 H2031 0.929 . S
C2041 C2039 1.433 . S
C2041 N2044 1.384 . S
C2042 H2033 0.929 . S
C2042 C2034 1.378 . S
C2042 C2037 1.350 . S
C2043 H2030 0.929 . S
C2043 C2035 1.433 . S
C2043 N2045 1.384 . S
N2044 C2040 1.427 . S
N2044 C2041 1.384 . S
N2045 C2037 1.427 . S
N2045 C2043 1.384 . S
H2046 C2052 0.930 . S
H2047 C2056 0.930 . S
H2048 C2061 0.929 . S
H2049 C2059 0.929 . S
H2050 C2054 0.929 . S
H2051 C2060 0.929 . S
C2052 H2046 0.930 . S
C2052 C2053 1.367 . S
C2052 C2060 1.378 . S
C2053 C2052 1.367 . S
C2053 C2061 1.433 . S
C2054 H2050 0.929 . S
C2054 C2056 1.378 . S
C2054 C2058 1.350 . S
C2055 C2058 1.463 . S
C2055 C2060 1.350 . S
C2055 N2063 1.427 . S
C2056 H2047 0.930 . S
C2056 C2054 1.378 . S
C2056 C2057 1.367 . S
C2057 C2056 1.367 . S
C2057 C2059 1.433 . S
C2058 C2054 1.350 . S
C2058 C2055 1.463 . S
C2058 N2062 1.427 . S
C2059 H2049 0.929 . S
C2059 C2057 1.433 . S
C2059 N2062 1.384 . S
C2060 H2051 0.929 . S
C2060 C2052 1.378 . S
C2060 C2055 1.350 . S
C2061 H2048 0.929 . S
C2061 C2053 1.433 . S
C2061 N2063 1.384 . S
N2062 C2058 1.427 . S
N2062 C2059 1.384 . S
N2063 C2055 1.427 . S
N2063 C2061 1.384 . S
H2064 C2070 0.930 . S
H2065 C2074 0.930 . S
H2066 C2079 0.929 . S
H2067 C2077 0.929 . S
H2068 C2072 0.929 . S
H2069 C2078 0.929 . S
C2070 H2064 0.930 . S
C2070 C2071 1.367 . S
C2070 C2078 1.378 . S
C2071 C2070 1.367 . S
C2071 C2079 1.433 . S
C2072 H2068 0.929 . S
C2072 C2074 1.378 . S
C2072 C2076 1.350 . S
C2073 C2076 1.463 . S
C2073 C2078 1.350 . S
C2073 N2081 1.427 . S
C2074 H2065 0.930 . S
C2074 C2072 1.378 . S
C2074 C2075 1.367 . S
C2075 C2074 1.367 . S
C2075 C2077 1.433 . S
C2076 C2072 1.350 . S
C2076 C2073 1.463 . S
C2076 N2080 1.427 . S
C2077 H2067 0.929 . S
C2077 C2075 1.433 . S
C2077 N2080 1.384 . S
C2078 H2069 0.929 . S
C2078 C2070 1.378 . S
C2078 C2073 1.350 . S
C2079 H2066 0.929 . S
C2079 C2071 1.433 . S
C2079 N2081 1.384 . S
N2080 C2076 1.427 . S
N2080 C2077 1.384 . S
N2081 C2073 1.427 . S
N2081 C2079 1.384 . S
H2082 C2088 0.930 . S
H2083 C2092 0.930 . S
H2084 C2097 0.929 . S
H2085 C2095 0.929 . S
H2086 C2090 0.929 . S
H2087 C2096 0.929 . S
C2088 H2082 0.930 . S
C2088 C2089 1.367 . S
C2088 C2096 1.378 . S
C2089 C2088 1.367 . S
C2089 C2097 1.433 . S
C2090 H2086 0.929 . S
C2090 C2092 1.378 . S
C2090 C2094 1.350 . S
C2091 C2094 1.463 . S
C2091 C2096 1.350 . S
C2091 N2099 1.427 . S
C2092 H2083 0.930 . S
C2092 C2090 1.378 . S
C2092 C2093 1.367 . S
C2093 C2092 1.367 . S
C2093 C2095 1.433 . S
C2094 C2090 1.350 . S
C2094 C2091 1.463 . S
C2094 N2098 1.427 . S
C2095 H2085 0.929 . S
C2095 C2093 1.433 . S
C2095 N2098 1.384 . S
C2096 H2087 0.929 . S
C2096 C2088 1.378 . S
C2096 C2091 1.350 . S
C2097 H2084 0.929 . S
C2097 C2089 1.433 . S
C2097 N2099 1.384 . S
N2098 C2094 1.427 . S
N2098 C2095 1.384 . S
N2099 C2091 1.427 . S
N2099 C2097 1.384 . S
H2100 C2106 0.930 . S
H2101 C2110 0.930 . S
H2102 C2115 0.929 . S
H2103 C2113 0.929 . S
H2104 C2108 0.929 . S
H2105 C2114 0.929 . S
C2106 H2100 0.930 . S
C2106 C2107 1.367 . S
C2106 C2114 1.378 . S
C2107 C2106 1.367 . S
C2107 C2115 1.433 . S
C2108 H2104 0.929 . S
C2108 C2110 1.378 . S
C2108 C2112 1.350 . S
C2109 C2112 1.463 . S
C2109 C2114 1.350 . S
C2109 N2117 1.427 . S
C2110 H2101 0.930 . S
C2110 C2108 1.378 . S
C2110 C2111 1.367 . S
C2111 C2110 1.367 . S
C2111 C2113 1.433 . S
C2112 C2108 1.350 . S
C2112 C2109 1.463 . S
C2112 N2116 1.427 . S
C2113 H2103 0.929 . S
C2113 C2111 1.433 . S
C2113 N2116 1.384 . S
C2114 H2105 0.929 . S
C2114 C2106 1.378 . S
C2114 C2109 1.350 . S
C2115 H2102 0.929 . S
C2115 C2107 1.433 . S
C2115 N2117 1.384 . S
N2116 C2112 1.427 . S
N2116 C2113 1.384 . S
N2117 C2109 1.427 . S
N2117 C2115 1.384 . S
H2118 C2124 0.930 . S
H2119 C2128 0.930 . S
H2120 C2133 0.929 . S
H2121 C2131 0.929 . S
H2122 C2126 0.929 . S
H2123 C2132 0.929 . S
C2124 H2118 0.930 . S
C2124 C2125 1.367 . S
C2124 C2132 1.378 . S
C2125 C2124 1.367 . S
C2125 C2133 1.433 . S
C2126 H2122 0.929 . S
C2126 C2128 1.378 . S
C2126 C2130 1.350 . S
C2127 C2130 1.463 . S
C2127 C2132 1.350 . S
C2127 N2135 1.427 . S
C2128 H2119 0.930 . S
C2128 C2126 1.378 . S
C2128 C2129 1.367 . S
C2129 C2128 1.367 . S
C2129 C2131 1.433 . S
C2130 C2126 1.350 . S
C2130 C2127 1.463 . S
C2130 N2134 1.427 . S
C2131 H2121 0.929 . S
C2131 C2129 1.433 . S
C2131 N2134 1.384 . S
C2132 H2123 0.929 . S
C2132 C2124 1.378 . S
C2132 C2127 1.350 . S
C2133 H2120 0.929 . S
C2133 C2125 1.433 . S
C2133 N2135 1.384 . S
N2134 C2130 1.427 . S
N2134 C2131 1.384 . S
N2135 C2127 1.427 . S
N2135 C2133 1.384 . S
C1279 C1205 1.887 . S
C1283 C39 1.889 . S
C1297 C92 1.468 . S
C1301 C1241 1.468 . S
C1315 C1098 1.578 . S
C1319 C128 1.581 . S
C1333 C1142 1.348 . S
C1337 C188 1.349 . S
C1351 C1135 1.286 . S
C1355 C234 1.286 . S
C1369 C304 1.839 . S
C1373 C1204 1.841 . S
C1387 C1248 1.465 . S
C1391 C356 1.467 . S
C1405 C393 1.707 . S
C1409 C1099 1.706 . S
C1423 C462 1.708 . S
C1427 C1029 1.709 . S
C1441 C886 1.504 . S
C1445 C499 1.505 . S
C1459 C552 1.669 . S
C1463 C939 1.668 . S
C1477 C992 1.601 . S
C1481 C622 1.601 . S
C1495 C621 1.576 . S
C1499 C727 1.578 . S
C1513 C463 1.709 . S
C1517 C781 1.709 . S
C1531 C824 1.334 . S
C1535 C506 1.334 . S
C1549 C559 1.694 . S
C1553 C665 1.694 . S
C1567 C91 1.618 . S
C1571 C993 1.617 . S
C1585 C780 1.691 . S
C1589 C400 1.691 . S
C1603 C241 1.213 . S
C1607 C817 1.215 . S
C1621 C658 1.834 . S
C1625 C303 1.833 . S
C1639 C357 1.580 . S
C1643 C728 1.578 . S
C1657 C181 1.379 . S
C1661 C887 1.379 . S
C1675 C38 1.865 . S
C1679 C940 1.866 . S
C1693 C135 1.520 . S
C1697 C1036 1.518 . S
C1711 C347 1.276 . S
C1715 C1089 1.276 . S
C1729 C1151 1.522 . S
C1733 C410 1.522 . S
C1747 C1188 1.408 . S
C1751 C251 1.408 . S
C1765 C1258 1.712 . S
C1769 C287 1.712 . S
C1783 C145 1.837 . S
C1787 C1257 1.838 . S
C1801 C197 1.214 . S
C1805 C1082 1.213 . S
C1819 C22 1.531 . S
C1823 C1152 1.532 . S
C1837 C1195 1.360 . S
C1841 C75 1.359 . S
C1855 C569 1.475 . S
C1859 C718 1.475 . S
C1873 C605 1.564 . S
C1877 C764 1.565 . S
C1891 C453 1.171 . S
C1895 C833 1.171 . S
C1909 C516 1.524 . S
C1913 C674 1.527 . S
C1927 C515 1.568 . S
C1931 C1046 1.565 . S
C1945 C877 1.257 . S
C1949 C568 1.258 . S
C1963 C612 1.572 . S
C1967 C930 1.574 . S
C1981 C446 1.238 . S
C1985 C983 1.239 . S
C1999 C675 1.591 . S
C2003 C409 1.592 . S
C2017 C870 1.251 . S
C2021 C82 1.251 . S
C2035 C144 1.667 . S
C2039 C923 1.665 . S
C2053 C976 1.264 . S
C2057 C198 1.263 . S
C2071 C1045 1.595 . S
C2075 C29 1.593 . S
C2089 C294 1.486 . S
C2093 C771 1.486 . S
C2107 C834 1.302 . S
C2111 C340 1.301 . S
C2125 C711 1.426 . S
C2129 C250 1.427 . S
