# Generated by pormake.
# Topology vba, (4)-cn, num edge types: 1
# Building blocks:
#     Node 0, Type 0, BuildingBlock: NAWXER_clean_sbu_0, # of connection points: 4
#     Node 1, Type 0, BuildingBlock: NAWXER_clean_sbu_0, # of connection points: 4
#     Node 2, Type 0, BuildingBlock: NAWXER_clean_sbu_0, # of connection points: 4
#     Node 3, Type 0, BuildingBlock: NAWXER_clean_sbu_0, # of connection points: 4
#     Node 4, Type 0, BuildingBlock: NAWXER_clean_sbu_0, # of connection points: 4
#     Node 5, Type 0, BuildingBlock: NAWXER_clean_sbu_0, # of connection points: 4
#     Node 6, Type 0, BuildingBlock: NAWXER_clean_sbu_0, # of connection points: 4
#     Node 7, Type 0, BuildingBlock: NAWXER_clean_sbu_0, # of connection points: 4
#     Node 8, Type 0, BuildingBlock: NAWXER_clean_sbu_0, # of connection points: 4
#     Node 9, Type 0, BuildingBlock: NAWXER_clean_sbu_0, # of connection points: 4
#     Node 10, Type 0, BuildingBlock: NAWXER_clean_sbu_0, # of connection points: 4
#     Node 11, Type 0, BuildingBlock: NAWXER_clean_sbu_0, # of connection points: 4
#     Node 12, Type 0, BuildingBlock: NAWXER_clean_sbu_0, # of connection points: 4
#     Node 13, Type 0, BuildingBlock: NAWXER_clean_sbu_0, # of connection points: 4
#     Node 14, Type 0, BuildingBlock: NAWXER_clean_sbu_0, # of connection points: 4
#     Node 15, Type 0, BuildingBlock: NAWXER_clean_sbu_0, # of connection points: 4
#     Node 16, Type 0, BuildingBlock: NAWXER_clean_sbu_0, # of connection points: 4
#     Node 17, Type 0, BuildingBlock: NAWXER_clean_sbu_0, # of connection points: 4
#     Node 18, Type 0, BuildingBlock: NAWXER_clean_sbu_0, # of connection points: 4
#     Node 19, Type 0, BuildingBlock: NAWXER_clean_sbu_0, # of connection points: 4
#     Node 20, Type 0, BuildingBlock: NAWXER_clean_sbu_0, # of connection points: 4
#     Node 21, Type 0, BuildingBlock: NAWXER_clean_sbu_0, # of connection points: 4
#     Node 22, Type 0, BuildingBlock: NAWXER_clean_sbu_0, # of connection points: 4
#     Node 23, Type 0, BuildingBlock: NAWXER_clean_sbu_0, # of connection points: 4
#     Node 24, Type 0, BuildingBlock: NAWXER_clean_sbu_0, # of connection points: 4
#     Node 25, Type 0, BuildingBlock: NAWXER_clean_sbu_0, # of connection points: 4
#     Node 26, Type 0, BuildingBlock: NAWXER_clean_sbu_0, # of connection points: 4
#     Node 27, Type 0, BuildingBlock: NAWXER_clean_sbu_0, # of connection points: 4
#     Node 28, Type 0, BuildingBlock: NAWXER_clean_sbu_0, # of connection points: 4
#     Node 29, Type 0, BuildingBlock: NAWXER_clean_sbu_0, # of connection points: 4
#     Node 30, Type 0, BuildingBlock: NAWXER_clean_sbu_0, # of connection points: 4
#     Node 31, Type 0, BuildingBlock: NAWXER_clean_sbu_0, # of connection points: 4
#     Edge 32, Type (0, 0), BuildingBlock: CIFDUS_clean_linker_0, # of connection points: 2
#     Edge 33, Type (0, 0), BuildingBlock: CIFDUS_clean_linker_0, # of connection points: 2
#     Edge 34, Type (0, 0), BuildingBlock: CIFDUS_clean_linker_0, # of connection points: 2
#     Edge 35, Type (0, 0), BuildingBlock: CIFDUS_clean_linker_0, # of connection points: 2
#     Edge 36, Type (0, 0), BuildingBlock: CIFDUS_clean_linker_0, # of connection points: 2
#     Edge 37, Type (0, 0), BuildingBlock: CIFDUS_clean_linker_0, # of connection points: 2
#     Edge 38, Type (0, 0), BuildingBlock: CIFDUS_clean_linker_0, # of connection points: 2
#     Edge 39, Type (0, 0), BuildingBlock: CIFDUS_clean_linker_0, # of connection points: 2
#     Edge 40, Type (0, 0), BuildingBlock: CIFDUS_clean_linker_0, # of connection points: 2
#     Edge 41, Type (0, 0), BuildingBlock: CIFDUS_clean_linker_0, # of connection points: 2
#     Edge 42, Type (0, 0), BuildingBlock: CIFDUS_clean_linker_0, # of connection points: 2
#     Edge 43, Type (0, 0), BuildingBlock: CIFDUS_clean_linker_0, # of connection points: 2
#     Edge 44, Type (0, 0), BuildingBlock: CIFDUS_clean_linker_0, # of connection points: 2
#     Edge 45, Type (0, 0), BuildingBlock: CIFDUS_clean_linker_0, # of connection points: 2
#     Edge 46, Type (0, 0), BuildingBlock: CIFDUS_clean_linker_0, # of connection points: 2
#     Edge 47, Type (0, 0), BuildingBlock: CIFDUS_clean_linker_0, # of connection points: 2
#     Edge 48, Type (0, 0), BuildingBlock: CIFDUS_clean_linker_0, # of connection points: 2
#     Edge 49, Type (0, 0), BuildingBlock: CIFDUS_clean_linker_0, # of connection points: 2
#     Edge 50, Type (0, 0), BuildingBlock: CIFDUS_clean_linker_0, # of connection points: 2
#     Edge 51, Type (0, 0), BuildingBlock: CIFDUS_clean_linker_0, # of connection points: 2
#     Edge 52, Type (0, 0), BuildingBlock: CIFDUS_clean_linker_0, # of connection points: 2
#     Edge 53, Type (0, 0), BuildingBlock: CIFDUS_clean_linker_0, # of connection points: 2
#     Edge 54, Type (0, 0), BuildingBlock: CIFDUS_clean_linker_0, # of connection points: 2
#     Edge 55, Type (0, 0), BuildingBlock: CIFDUS_clean_linker_0, # of connection points: 2
#     Edge 56, Type (0, 0), BuildingBlock: CIFDUS_clean_linker_0, # of connection points: 2
#     Edge 57, Type (0, 0), BuildingBlock: CIFDUS_clean_linker_0, # of connection points: 2
#     Edge 58, Type (0, 0), BuildingBlock: CIFDUS_clean_linker_0, # of connection points: 2
#     Edge 59, Type (0, 0), BuildingBlock: CIFDUS_clean_linker_0, # of connection points: 2
#     Edge 60, Type (0, 0), BuildingBlock: CIFDUS_clean_linker_0, # of connection points: 2
#     Edge 61, Type (0, 0), BuildingBlock: CIFDUS_clean_linker_0, # of connection points: 2
#     Edge 62, Type (0, 0), BuildingBlock: CIFDUS_clean_linker_0, # of connection points: 2
#     Edge 63, Type (0, 0), BuildingBlock: CIFDUS_clean_linker_0, # of connection points: 2
#     Edge 64, Type (0, 0), BuildingBlock: CIFDUS_clean_linker_0, # of connection points: 2
#     Edge 65, Type (0, 0), BuildingBlock: CIFDUS_clean_linker_0, # of connection points: 2
#     Edge 66, Type (0, 0), BuildingBlock: CIFDUS_clean_linker_0, # of connection points: 2
#     Edge 67, Type (0, 0), BuildingBlock: CIFDUS_clean_linker_0, # of connection points: 2
#     Edge 68, Type (0, 0), BuildingBlock: CIFDUS_clean_linker_0, # of connection points: 2
#     Edge 69, Type (0, 0), BuildingBlock: CIFDUS_clean_linker_0, # of connection points: 2
#     Edge 70, Type (0, 0), BuildingBlock: CIFDUS_clean_linker_0, # of connection points: 2
#     Edge 71, Type (0, 0), BuildingBlock: CIFDUS_clean_linker_0, # of connection points: 2
#     Edge 72, Type (0, 0), BuildingBlock: CIFDUS_clean_linker_0, # of connection points: 2
#     Edge 73, Type (0, 0), BuildingBlock: CIFDUS_clean_linker_0, # of connection points: 2
#     Edge 74, Type (0, 0), BuildingBlock: CIFDUS_clean_linker_0, # of connection points: 2
#     Edge 75, Type (0, 0), BuildingBlock: CIFDUS_clean_linker_0, # of connection points: 2
#     Edge 76, Type (0, 0), BuildingBlock: CIFDUS_clean_linker_0, # of connection points: 2
#     Edge 77, Type (0, 0), BuildingBlock: CIFDUS_clean_linker_0, # of connection points: 2
#     Edge 78, Type (0, 0), BuildingBlock: CIFDUS_clean_linker_0, # of connection points: 2
#     Edge 79, Type (0, 0), BuildingBlock: CIFDUS_clean_linker_0, # of connection points: 2
#     Edge 80, Type (0, 0), BuildingBlock: CIFDUS_clean_linker_0, # of connection points: 2
#     Edge 81, Type (0, 0), BuildingBlock: CIFDUS_clean_linker_0, # of connection points: 2
#     Edge 82, Type (0, 0), BuildingBlock: CIFDUS_clean_linker_0, # of connection points: 2
#     Edge 83, Type (0, 0), BuildingBlock: CIFDUS_clean_linker_0, # of connection points: 2
#     Edge 84, Type (0, 0), BuildingBlock: CIFDUS_clean_linker_0, # of connection points: 2
#     Edge 85, Type (0, 0), BuildingBlock: CIFDUS_clean_linker_0, # of connection points: 2
#     Edge 86, Type (0, 0), BuildingBlock: CIFDUS_clean_linker_0, # of connection points: 2
#     Edge 87, Type (0, 0), BuildingBlock: CIFDUS_clean_linker_0, # of connection points: 2
#     Edge 88, Type (0, 0), BuildingBlock: CIFDUS_clean_linker_0, # of connection points: 2
#     Edge 89, Type (0, 0), BuildingBlock: CIFDUS_clean_linker_0, # of connection points: 2
#     Edge 90, Type (0, 0), BuildingBlock: CIFDUS_clean_linker_0, # of connection points: 2
#     Edge 91, Type (0, 0), BuildingBlock: CIFDUS_clean_linker_0, # of connection points: 2
#     Edge 92, Type (0, 0), BuildingBlock: CIFDUS_clean_linker_0, # of connection points: 2
#     Edge 93, Type (0, 0), BuildingBlock: CIFDUS_clean_linker_0, # of connection points: 2
#     Edge 94, Type (0, 0), BuildingBlock: CIFDUS_clean_linker_0, # of connection points: 2
#     Edge 95, Type (0, 0), BuildingBlock: CIFDUS_clean_linker_0, # of connection points: 2
# Relax obj value: 0.002
# Max RMSD: 0.073
# Mean RMSD: 0.072
data_MOF--net-vba--node1-NAWXER_clean_sbu_0--edge1-CIFDUS_clean_linker_0
_symmetry_space_group_name_H-M    P1
_symmetry_Int_Tables_number       1
_symmetry_cell_setting            triclinic
loop_
_symmetry_equiv_pos_as_xyz
'x, y, z'
_cell_length_a     14.73414
_cell_length_b     92.835769
_cell_length_c     48.804887
_cell_angle_alpha  89.934685
_cell_angle_beta   89.89486
_cell_angle_gamma 89.976089
loop_
_atom_site_label
_atom_site_type_symbol
_atom_site_fract_x
_atom_site_fract_y
_atom_site_fract_z
_atom_type_partial_charge
C0 C 0.38578 0.04988 0.02812 0.0
C1 C 0.26436 0.0993 0.02709 0.0
O2 O 0.30293 0.05111 0.02075 0.0
Zn3 Zn 0.20296 0.06707 1.01366 0.0
O4 O 0.43223 0.06109 0.03381 0.0
Zn5 Zn 0.33445 0.07492 0.02745 0.0
O6 O 0.24324 0.06869 0.0591 0.0
O7 O 0.11332 0.06137 0.04134 0.0
O8 O 0.34583 0.09581 0.03273 0.0
O9 O 0.20816 0.08953 0.01985 0.0
O10 O 0.18633 0.06515 0.97379 0.0
O11 O 0.32361 0.07262 0.9846 0.0
C12 C 0.16301 0.06367 0.06227 0.0
C13 C 0.26632 0.06873 0.96645 0.0
C14 C 0.86965 0.22344 0.02558 0.0
C15 C 0.00458 0.17497 0.02653 0.0
O16 O 0.95277 0.22283 0.01803 0.0
Zn17 Zn 0.05837 0.20747 1.01214 0.0
O18 O 0.82809 0.21192 0.03244 0.0
Zn19 Zn 0.92934 0.19892 0.02611 0.0
O20 O 0.01696 0.20611 0.05753 0.0
O21 O 0.14542 0.21415 0.03984 0.0
O22 O 0.92259 0.17815 0.03213 0.0
O23 O 0.05917 0.18493 0.01895 0.0
O24 O 0.07597 0.20922 0.97228 0.0
O25 O 0.94005 0.20107 0.98316 0.0
C26 C 0.09533 0.21177 0.0607 0.0
C27 C 0.99686 0.20521 0.96498 0.0
C28 C 0.15316 0.21584 0.22183 0.0
C29 C 0.22921 0.20918 0.31946 0.0
O30 O 0.22598 0.20878 0.22663 0.0
Zn31 Zn 0.30279 0.20067 0.25987 0.0
O32 O 0.10307 0.21987 0.24175 0.0
Zn33 Zn 0.17924 0.21218 0.27129 0.0
O34 O 0.29691 0.22494 0.26648 0.0
O35 O 0.41497 0.21158 0.25477 0.0
O36 O 0.15599 0.21484 0.31061 0.0
O37 O 0.28532 0.20362 0.3025 0.0
O38 O 0.29203 0.17976 0.25514 0.0
O39 O 0.16144 0.18989 0.26586 0.0
C40 C 0.38115 0.22388 0.26048 0.0
C41 C 0.20715 0.17864 0.2597 0.0
C42 C 0.01482 0.09807 0.25913 0.0
C43 C 0.85152 0.05175 0.25928 0.0
O44 O 0.06157 0.08708 0.26611 0.0
Zn45 Zn 0.04842 0.06483 0.27217 0.0
O46 O 0.93065 0.09657 0.25384 0.0
Zn47 Zn 0.92339 0.07555 0.25893 0.0
O48 O 0.93532 0.07287 0.30178 0.0
O49 O 0.06603 0.06256 0.31188 0.0
O50 O 0.81482 0.06374 0.25276 0.0
O51 O 0.93504 0.0514 0.26626 0.0
O52 O 0.13047 0.05747 0.24372 0.0
O53 O 0.00737 0.06777 0.2269 0.0
C54 C 0.99001 0.06775 0.31961 0.0
C55 C 0.08251 0.06115 0.22312 0.0
C56 C 0.77585 0.95609 0.06907 0.0
C57 C 0.8714 0.96281 0.97309 0.0
O58 O 0.85466 0.96023 0.06164 0.0
Zn59 Zn 0.8353 0.95896 0.0218 0.0
O60 O 0.7181 0.95234 0.05094 0.0
Zn61 Zn 0.70322 0.95083 1.00826 0.0
O62 O 0.69434 0.92997 1.00192 0.0
O63 O 0.83159 0.93664 1.01456 0.0
O64 O 0.79202 0.95754 0.97662 0.0
O65 O 0.9222 0.96515 0.99376 0.0
O66 O 0.73345 0.97466 1.01607 0.0
O67 O 0.60403 0.96463 1.00328 0.0
C68 C 0.77666 0.92675 1.00709 0.0
C69 C 0.65011 0.97584 1.00922 0.0
C70 C 0.98562 0.81622 0.96423 0.0
C71 C 0.04009 0.82139 0.06345 0.0
O72 O 0.92865 0.81285 0.98288 0.0
Zn73 Zn 0.00071 0.81943 1.01432 0.0
O74 O 0.06033 0.82227 0.97087 0.0
Zn75 Zn 0.13243 0.82909 1.00586 0.0
O76 O 0.23904 0.81673 1.00311 0.0
O77 O 0.11203 0.80494 1.01202 0.0
O78 O 0.1027 0.8262 0.04777 0.0
O79 O 0.96614 0.81683 0.05303 0.0
O80 O 0.99735 0.84208 1.00945 0.0
O81 O 0.13612 0.84998 1.0017 0.0
C82 C 0.19782 0.8049 1.00793 0.0
C83 C 0.05177 0.85254 1.00475 0.0
C84 C 0.80683 0.81322 0.81111 0.0
C85 C 0.72129 0.82006 0.7143 0.0
O86 O 0.85957 0.8105 0.79099 0.0
Zn87 Zn 0.77789 0.81749 0.76201 0.0
O88 O 0.72998 0.8192 0.80683 0.0
Zn89 Zn 0.64744 0.82677 0.77459 0.0
O90 O 0.54322 0.81387 0.77951 0.0
O91 O 0.66925 0.80281 0.76672 0.0
O92 O 0.66378 0.82451 0.73198 0.0
O93 O 0.799 0.81567 0.72223 0.0
O94 O 0.78211 0.83983 0.76895 0.0
O95 O 0.64627 0.84774 0.78044 0.0
C96 C 0.58511 0.80229 0.77309 0.0
C97 C 0.73005 0.85021 0.77592 0.0
C98 C 0.18517 0.96904 0.78099 0.0
C99 C 0.02981 0.92193 0.78109 0.0
O100 O 0.22206 0.9573 0.78894 0.0
Zn101 Zn 0.11682 0.94495 0.78167 0.0
O102 O 0.10335 0.96894 0.77235 0.0
Zn103 Zn 0.99329 0.95483 0.76513 0.0
O104 O 0.90488 0.96266 0.79147 0.0
O105 O 0.02646 0.95328 0.81106 0.0
O106 O 0.98197 0.93247 0.77234 0.0
O107 O 0.11185 0.92413 0.78815 0.0
O108 O 0.11427 0.9468 0.73884 0.0
O109 O 0.98599 0.95658 0.72489 0.0
C110 C 0.95042 0.95982 0.81304 0.0
C111 C 0.06444 0.95151 0.71941 0.0
C112 C 0.16132 0.56238 0.56094 0.0
C113 C 0.25194 0.56919 0.46425 0.0
O114 O 0.23864 0.56833 0.55717 0.0
Zn115 Zn 0.32315 0.57577 0.52496 0.0
O116 O 0.11125 0.55952 0.54035 0.0
Zn117 Zn 0.19455 0.56648 0.5118 0.0
O118 O 0.30369 0.55182 0.51634 0.0
O119 O 0.42794 0.56305 0.5299 0.0
O120 O 0.17425 0.56469 0.47204 0.0
O121 O 0.30883 0.57364 0.48207 0.0
O122 O 0.32487 0.59673 0.53058 0.0
O123 O 0.18987 0.58892 0.5182 0.0
C124 C 0.38773 0.55146 0.5228 0.0
C125 C 0.24176 0.5993 0.52529 0.0
C126 C 0.9515 0.6722 0.52508 0.0
C127 C 0.79924 0.71951 0.52363 0.0
O128 O 0.00402 0.68285 0.52005 0.0
Zn129 Zn 0.9973 0.70548 0.51537 0.0
O130 O 0.86705 0.67447 0.52866 0.0
Zn131 Zn 0.86749 0.69547 0.5248 0.0
O132 O 0.89227 0.69878 0.48267 0.0
O133 O 0.0279 0.70835 0.47647 0.0
O134 O 0.75978 0.70755 0.52869 0.0
O135 O 0.88466 0.71971 0.51885 0.0
O136 O 0.07212 0.71208 0.54612 0.0
O137 O 0.94225 0.70241 0.55926 0.0
C138 C 0.95302 0.70385 0.46662 0.0
C139 C 0.01723 0.70858 0.56523 0.0
C140 C 0.28342 0.7033 0.81547 0.0
C141 C 0.20491 0.70857 0.71779 0.0
O142 O 0.34291 0.69881 0.79844 0.0
Zn143 Zn 0.36322 0.69611 0.75604 0.0
O144 O 0.20608 0.70744 0.80677 0.0
Zn145 Zn 0.23123 0.70512 0.76733 0.0
O146 O 0.23102 0.68259 0.76206 0.0
O147 O 0.36869 0.67512 0.75151 0.0
O148 O 0.15084 0.71142 0.7375 0.0
O149 O 0.28218 0.70289 0.72282 0.0
O150 O 0.46632 0.70917 0.75135 0.0
O151 O 0.33857 0.72012 0.76283 0.0
C152 C 0.28539 0.67232 0.75609 0.0
C153 C 0.42317 0.72072 0.75706 0.0
C154 C 0.00622 0.59844 0.75819 0.0
C155 C 0.86038 0.55078 0.7595 0.0
O156 O 0.05883 0.58811 0.7652 0.0
Zn157 Zn 0.05378 0.56554 0.77138 0.0
O158 O 0.92328 0.59578 0.75296 0.0
Zn159 Zn 0.92613 0.57492 0.75834 0.0
O160 O 0.93926 0.57249 0.80122 0.0
O161 O 0.07383 0.56349 0.81112 0.0
O162 O 0.82149 0.56254 0.75273 0.0
O163 O 0.94425 0.55085 0.76627 0.0
O164 O 0.1379 0.55873 0.74288 0.0
O165 O 0.01087 0.56769 0.72606 0.0
C166 C 0.99608 0.56793 0.81898 0.0
C167 C 0.08819 0.56174 0.72228 0.0
C168 C 0.80265 0.46059 0.46753 0.0
C169 C 0.68157 0.45253 0.5607 0.0
O170 O 0.84723 0.46289 0.48948 0.0
Zn171 Zn 0.75497 0.45562 0.51518 0.0
O172 O 0.72432 0.4547 0.46886 0.0
Zn173 Zn 0.63008 0.44686 0.49796 0.0
O174 O 0.52845 0.45989 0.49062 0.0
O175 O 0.64911 0.47064 0.50801 0.0
O176 O 0.63077 0.44841 0.54103 0.0
O177 O 0.76178 0.45695 0.55551 0.0
O178 O 0.76016 0.43324 0.50759 0.0
O179 O 0.62858 0.42604 0.49117 0.0
C180 C 0.56764 0.47131 0.4991 0.0
C181 C 0.7095 0.42314 0.4985 0.0
C182 C 0.99523 0.31944 0.56682 0.0
C183 C 0.89672 0.31245 0.47111 0.0
O184 O 0.91607 0.31544 0.55956 0.0
Zn185 Zn 0.9338 0.3168 0.51964 0.0
O186 O 0.05234 0.3234 0.54857 0.0
Zn187 Zn 0.06367 0.32523 0.50557 0.0
O188 O 0.06985 0.34609 0.49905 0.0
O189 O 0.93324 0.33919 0.51195 0.0
O190 O 0.9754 0.31802 0.47425 0.0
O191 O 0.84673 0.31008 0.49201 0.0
O192 O 0.03855 0.30138 0.51415 0.0
O193 O 0.16446 0.3119 0.49972 0.0
C194 C 0.98729 0.34917 0.50418 0.0
C195 C 0.12172 0.30051 0.50678 0.0
C196 C 0.77436 0.34737 0.27163 0.0
C197 C 0.60172 0.30199 0.27288 0.0
O198 O 0.68967 0.3462 0.27643 0.0
Zn199 Zn 0.67949 0.32523 0.27235 0.0
O200 O 0.82028 0.33613 0.26558 0.0
Zn201 Zn 0.8026 0.31379 0.26062 0.0
O202 O 0.82357 0.31079 0.2213 0.0
O203 O 0.69384 0.32183 0.22967 0.0
O204 O 0.68562 0.30095 0.26645 0.0
O205 O 0.56785 0.31431 0.27843 0.0
O206 O 0.7584 0.31731 0.30546 0.0
O207 O 0.88068 0.30625 0.28979 0.0
C208 C 0.74928 0.31616 0.21263 0.0
C209 C 0.83168 0.3103 0.30994 0.0
C210 C 0.90155 0.46496 0.30813 0.0
C211 C 0.00267 0.45904 0.21234 0.0
O212 O 0.85625 0.46894 0.28719 0.0
Zn213 Zn 0.93998 0.46147 0.25933 0.0
O214 O 0.97598 0.45806 0.30489 0.0
Zn215 Zn 0.06147 0.45021 0.27325 0.0
O216 O 0.17123 0.46134 0.28083 0.0
O217 O 0.05507 0.47447 0.26672 0.0
O218 O 0.05487 0.45349 0.2304 0.0
O219 O 0.92639 0.4643 0.2196 0.0
O220 O 0.92273 0.43913 0.26439 0.0
O221 O 0.05146 0.42922 0.27749 0.0
C222 C 0.13777 0.47359 0.27443 0.0
C223 C 0.96781 0.42796 0.27138 0.0
C224 C 0.66144 0.06109 0.5627 0.0
C225 C 0.74451 0.06885 0.46578 0.0
O226 O 0.73674 0.06762 0.5587 0.0
Zn227 Zn 0.81666 0.07588 0.52618 0.0
O228 O 0.61066 0.05814 0.54233 0.0
Zn229 Zn 0.69034 0.06584 0.51354 0.0
O230 O 0.80394 0.05186 0.51739 0.0
O231 O 0.92526 0.06402 0.53047 0.0
O232 O 0.66835 0.06388 0.4739 0.0
O233 O 0.80103 0.07369 0.48334 0.0
O234 O 0.81359 0.09675 0.53202 0.0
O235 O 0.67975 0.08832 0.52003 0.0
C236 C 0.88834 0.05214 0.52347 0.0
C237 C 0.72993 0.09894 0.52699 0.0
C238 C 0.43482 0.17143 0.52716 0.0
C239 C 0.28487 0.21906 0.52474 0.0
O240 O 0.48779 0.18212 0.52294 0.0
Zn241 Zn 0.48263 0.20472 0.51869 0.0
O242 O 0.34998 0.17367 0.52999 0.0
Zn243 Zn 0.35032 0.19477 0.52662 0.0
O244 O 0.38002 0.19831 0.48492 0.0
O245 O 0.51622 0.20787 0.47994 0.0
O246 O 0.24278 0.20727 0.52933 0.0
O247 O 0.37074 0.2189 0.52104 0.0
O248 O 0.55224 0.21137 0.55067 0.0
O249 O 0.42088 0.20159 0.56191 0.0
C250 C 0.44194 0.20349 0.46943 0.0
C251 C 0.49457 0.20781 0.569 0.0
C252 C 0.65939 0.21408 0.72306 0.0
C253 C 0.74626 0.207 0.81983 0.0
O254 O 0.7336 0.20731 0.72724 0.0
Zn255 Zn 0.81373 0.19905 0.75938 0.0
O256 O 0.60882 0.21755 0.74327 0.0
Zn257 Zn 0.68892 0.20999 0.77225 0.0
O258 O 0.80397 0.22331 0.7665 0.0
O259 O 0.92328 0.21056 0.75351 0.0
O260 O 0.67075 0.21234 0.81207 0.0
O261 O 0.80066 0.20176 0.80203 0.0
O262 O 0.8048 0.1781 0.7541 0.0
O263 O 0.67411 0.18769 0.76635 0.0
C264 C 0.88769 0.22268 0.75966 0.0
C265 C 0.72059 0.17665 0.75942 0.0
C266 C 0.37669 0.04884 0.76221 0.0
C267 C 0.53651 0.09553 0.75908 0.0
O268 O 0.46066 0.04869 0.76872 0.0
Zn269 Zn 0.57342 0.06246 0.77333 0.0
O270 O 0.33904 0.06068 0.75524 0.0
Zn271 Zn 0.44684 0.07281 0.76012 0.0
O272 O 0.52913 0.06475 0.72811 0.0
O273 O 0.65436 0.05494 0.74454 0.0
O274 O 0.45231 0.09379 0.75413 0.0
O275 O 0.58449 0.08471 0.76632 0.0
O276 O 0.59242 0.06074 0.81326 0.0
O277 O 0.46107 0.07075 0.80288 0.0
C278 C 0.60447 0.05823 0.72411 0.0
C279 C 0.51629 0.06595 0.82087 0.0
C280 C 0.33364 0.96467 0.46899 0.0
C281 C 0.21829 0.95669 0.56249 0.0
O282 O 0.37751 0.96791 0.49064 0.0
Zn283 Zn 0.28885 0.96013 0.51684 0.0
O284 O 0.25786 0.95804 0.47088 0.0
Zn285 Zn 0.16692 0.94972 0.50035 0.0
O286 O 0.06022 0.96171 0.49261 0.0
O287 O 0.17688 0.97382 0.50924 0.0
O288 O 0.16828 0.95191 0.5432 0.0
O289 O 0.29666 0.96177 0.557 0.0
O290 O 0.30345 0.93793 0.50991 0.0
O291 O 0.17542 0.92875 0.49452 0.0
C292 C 0.09512 0.97359 0.50051 0.0
C293 C 0.25813 0.92709 0.50145 0.0
C294 C 0.37425 0.80887 0.4737 0.0
C295 C 0.47141 0.81668 0.56922 0.0
O296 O 0.32625 0.80557 0.49458 0.0
Zn297 Zn 0.41059 0.81313 0.52225 0.0
O298 O 0.44994 0.81538 0.47691 0.0
Zn299 Zn 0.53564 0.82348 0.50794 0.0
O300 O 0.64294 0.8114 0.50165 0.0
O301 O 0.52292 0.79932 0.51618 0.0
O302 O 0.52557 0.82145 0.55086 0.0
O303 O 0.39485 0.81148 0.56215 0.0
O304 O 0.39803 0.83535 0.51492 0.0
O305 O 0.529 0.84444 0.50156 0.0
C306 C 0.60605 0.79949 0.50863 0.0
C307 C 0.44506 0.84616 0.50703 0.0
C308 C 0.31165 0.81274 0.31291 0.0
C309 C 0.23735 0.82015 0.21577 0.0
O310 O 0.36373 0.80997 0.29271 0.0
Zn311 Zn 0.28439 0.81733 0.26398 0.0
O312 O 0.23548 0.81899 0.3087 0.0
Zn313 Zn 0.15641 0.82684 0.27539 0.0
O314 O 0.04941 0.81484 0.27947 0.0
O315 O 0.17284 0.80283 0.26748 0.0
O316 O 0.17689 0.82472 0.23248 0.0
O317 O 0.31254 0.81543 0.22501 0.0
O318 O 0.29046 0.83988 0.27056 0.0
O319 O 0.15351 0.84762 0.28118 0.0
C320 C 0.08808 0.80298 0.27328 0.0
C321 C 0.23715 0.85024 0.27697 0.0
C322 C 0.65999 0.97183 0.27481 0.0
C323 C 0.51558 0.92413 0.27696 0.0
O324 O 0.69881 0.96016 0.28218 0.0
Zn325 Zn 0.59474 0.94769 0.27618 0.0
O326 O 0.57691 0.9716 0.26723 0.0
Zn327 Zn 0.46841 0.95678 0.26173 0.0
O328 O 0.38155 0.96411 0.28854 0.0
O329 O 0.50671 0.95552 0.30731 0.0
O330 O 0.4632 0.93431 0.26906 0.0
O331 O 0.59792 0.92693 0.28269 0.0
O332 O 0.58491 0.94955 0.23303 0.0
O333 O 0.45068 0.95837 0.22212 0.0
C334 C 0.42916 0.96159 0.3098 0.0
C335 C 0.52881 0.95387 0.21484 0.0
C336 C 0.74841 0.56594 0.96491 0.0
C337 C 0.65767 0.55841 0.06136 0.0
O338 O 0.80196 0.57131 0.98276 0.0
Zn339 Zn 0.81254 0.57393 0.02569 0.0
O340 O 0.67338 0.5604 0.97263 0.0
Zn341 Zn 0.69071 0.56275 1.01237 0.0
O342 O 0.67282 0.58508 0.0183 0.0
O343 O 0.80244 0.5948 0.03101 0.0
O344 O 0.60996 0.5548 0.04069 0.0
O345 O 0.73138 0.56543 0.05774 0.0
O346 O 0.92369 0.56299 0.0317 0.0
O347 O 0.80761 0.54974 0.01807 0.0
C348 C 0.7185 0.59617 0.0254 0.0
C349 C 0.89097 0.55075 0.02509 0.0
C350 C 0.37983 0.72431 0.02222 0.0
C351 C 0.53725 0.67745 0.0249 0.0
O352 O 0.46348 0.72434 1.01523 0.0
Zn353 Zn 0.5754 0.71039 1.01002 0.0
O354 O 0.34153 0.71248 0.02893 0.0
Zn355 Zn 0.4488 0.70029 0.0235 0.0
O356 O 0.53226 0.70849 0.05515 0.0
O357 O 0.65763 0.71803 0.03802 0.0
O358 O 0.45313 0.67934 0.02984 0.0
O359 O 0.58589 0.68816 0.01745 0.0
O360 O 0.59474 0.71202 0.97033 0.0
O361 O 0.46244 0.70227 0.98061 0.0
C362 C 0.60786 0.715 0.05866 0.0
C363 C 0.51852 0.70694 0.96267 0.0
C364 C 0.7376 0.70779 0.31682 0.0
C365 C 0.66057 0.71545 0.21977 0.0
O366 O 0.79455 0.70259 0.29968 0.0
Zn367 Zn 0.81241 0.70013 0.25691 0.0
O368 O 0.66362 0.71326 0.30814 0.0
Zn369 Zn 0.68731 0.71105 0.26883 0.0
O370 O 0.67237 0.6888 0.26236 0.0
O371 O 0.80429 0.6792 0.25136 0.0
O372 O 0.60998 0.71895 0.23992 0.0
O373 O 0.73427 0.70852 0.22408 0.0
O374 O 0.92339 0.7115 0.25219 0.0
O375 O 0.80324 0.72424 0.26443 0.0
C376 C 0.71952 0.67777 0.25579 0.0
C377 C 0.88757 0.72361 0.25833 0.0
C378 C 0.53113 0.59695 0.25712 0.0
C379 C 0.35901 0.55152 0.25883 0.0
O380 O 0.57659 0.58588 0.26455 0.0
Zn381 Zn 0.55896 0.56365 0.27122 0.0
O382 O 0.44708 0.5956 0.25163 0.0
Zn383 Zn 0.43676 0.57475 0.25754 0.0
O384 O 0.44741 0.57241 0.30053 0.0
O385 O 0.57607 0.56159 0.31102 0.0
O386 O 0.3257 0.56368 0.25186 0.0
O387 O 0.4424 0.55064 0.26585 0.0
O388 O 0.63969 0.55551 0.24315 0.0
O389 O 0.5182 0.56603 0.22578 0.0
C390 C 0.50094 0.56717 0.31855 0.0
C391 C 0.59196 0.55898 0.22238 0.0
C392 C 0.26656 0.4596 0.0692 0.0
C393 C 0.35689 0.46713 0.97283 0.0
O394 O 0.34092 0.46543 0.06163 0.0
Zn395 Zn 0.32549 0.46269 0.0219 0.0
O396 O 0.21493 0.45379 0.05134 0.0
Zn397 Zn 0.20572 0.45074 1.00852 0.0
O398 O 0.22216 0.42988 1.00354 0.0
O399 O 0.34861 0.44052 0.01642 0.0
O400 O 0.28505 0.45965 0.97654 0.0
O401 O 0.40399 0.47105 0.99343 0.0
O402 O 0.20612 0.47492 1.01579 0.0
O403 O 0.09203 0.46122 1.00224 0.0
C404 C 0.30627 0.4291 1.00938 0.0
C405 C 0.12301 0.4736 1.00874 0.0
C406 C 0.52539 0.31802 0.06381 0.0
C407 C 0.47502 0.31203 0.96435 0.0
O408 O 0.45324 0.31264 0.05363 0.0
Zn409 Zn 0.48423 0.31576 1.0146 0.0
O410 O 0.58426 0.3238 0.04801 0.0
Zn411 Zn 0.6121 0.32735 1.00626 0.0
O412 O 0.60051 0.34841 1.00217 0.0
O413 O 0.46806 0.33803 1.00932 0.0
O414 O 0.54521 0.31924 0.97133 0.0
O415 O 0.41864 0.30797 0.98269 0.0
O416 O 0.60254 0.30316 1.01259 0.0
O417 O 0.72544 0.31604 1.0039 0.0
C418 C 0.5146 0.34939 1.00473 0.0
C419 C 0.68824 0.30387 1.00891 0.0
C420 C 0.32246 0.30839 0.8093 0.0
C421 C 0.24349 0.31744 0.71244 0.0
O422 O 0.37378 0.30495 0.78925 0.0
Zn423 Zn 0.29805 0.31354 0.76017 0.0
O424 O 0.25049 0.31573 0.80501 0.0
Zn425 Zn 0.17457 0.32502 0.77293 0.0
O426 O 0.06197 0.31395 0.77762 0.0
O427 O 0.17988 0.30089 0.76461 0.0
O428 O 0.18938 0.32277 0.73023 0.0
O429 O 0.31752 0.31163 0.72029 0.0
O430 O 0.31797 0.33557 0.76763 0.0
O431 O 0.18903 0.34585 0.7795 0.0
C432 C 0.09592 0.30177 0.77101 0.0
C433 C 0.27404 0.34679 0.77495 0.0
C434 C 0.48419 0.42623 0.78082 0.0
C435 C 0.65872 0.4717 0.77942 0.0
O436 O 0.56754 0.42737 0.78742 0.0
Zn437 Zn 0.58201 0.44823 0.78077 0.0
O438 O 0.44151 0.4373 0.77214 0.0
Zn439 Zn 0.46134 0.45927 0.76434 0.0
O440 O 0.45349 0.46073 0.72399 0.0
O441 O 0.57919 0.45006 0.73783 0.0
O442 O 0.57666 0.47219 0.77106 0.0
O443 O 0.69222 0.45973 0.78753 0.0
O444 O 0.49575 0.45761 0.8104 0.0
O445 O 0.37712 0.46801 0.79097 0.0
C446 C 0.53026 0.45506 0.71844 0.0
C447 C 0.42223 0.46485 0.81247 0.0
H448 H 0.26713 0.05875 0.10686 0.0
H449 H 0.98774 0.06217 0.08125 0.0
H450 H 0.93834 0.06039 0.12913 0.0
H451 H 0.97583 0.06006 0.17816 0.0
H452 H 0.25523 0.05662 0.20376 0.0
H453 H 0.30365 0.05603 0.1557 0.0
C454 C 0.19526 0.05902 0.11171 0.0
C455 C 0.13106 0.06082 0.09056 0.0
C456 C 0.16768 0.05802 0.13918 0.0
C457 C 0.03833 0.06085 0.09713 0.0
C458 C 0.01023 0.05989 0.12449 0.0
C459 C 0.04739 0.05905 0.17326 0.0
C460 C 0.11213 0.05859 0.19452 0.0
C461 C 0.07448 0.05881 0.14568 0.0
C462 C 0.20424 0.05702 0.18782 0.0
C463 C 0.23185 0.05676 0.16035 0.0
H464 H 0.26678 0.21643 0.17826 0.0
H465 H 0.98442 0.22102 0.20028 0.0
H466 H 0.94321 0.22147 0.15167 0.0
H467 H 0.98627 0.218 0.10349 0.0
H468 H 0.26838 0.21336 0.08134 0.0
H469 H 0.31137 0.21564 0.12969 0.0
C470 C 0.19619 0.21768 0.17244 0.0
C471 C 0.12841 0.21847 0.19286 0.0
C472 C 0.17322 0.21782 0.14455 0.0
C473 C 0.03765 0.22036 0.185 0.0
C474 C 0.01415 0.22053 0.15722 0.0
C475 C 0.05736 0.21761 0.1092 0.0
C476 C 0.12416 0.21527 0.08895 0.0
C477 C 0.08115 0.21886 0.13691 0.0
C478 C 0.2159 0.2151 0.09655 0.0
C479 C 0.24028 0.21633 0.12418 0.0
H480 H 0.05572 0.96451 0.8571 0.0
H481 H 0.77563 0.96377 0.83145 0.0
H482 H 0.72704 0.9662 0.87936 0.0
H483 H 0.76496 0.96573 0.92836 0.0
H484 H 0.04545 0.96584 0.95383 0.0
H485 H 0.0936 0.9666 0.90578 0.0
C486 C 0.98388 0.96501 0.86193 0.0
C487 C 0.91908 0.96371 0.84085 0.0
C488 C 0.95693 0.96619 0.88937 0.0
C489 C 0.82656 0.9647 0.84733 0.0
C490 C 0.79897 0.966 0.8747 0.0
C491 C 0.83677 0.96605 0.92344 0.0
C492 C 0.9018 0.96548 0.94463 0.0
C493 C 0.86364 0.96631 0.89587 0.0
C494 C 0.99428 0.9662 0.93794 0.0
C495 C 0.02168 0.96657 0.91048 0.0
H496 H 0.97428 0.81392 0.83504 0.0
H497 H 0.69159 0.80568 0.85172 0.0
H498 H 0.7221 0.8046 0.90074 0.0
H499 H 0.82612 0.80859 0.93935 0.0
H500 H 0.10802 0.81778 0.92262 0.0
H501 H 0.08095 0.81584 0.87366 0.0
C502 C 0.92002 0.81156 0.84941 0.0
C503 C 0.83096 0.80998 0.83983 0.0
C504 C 0.93751 0.81135 0.87777 0.0
C505 C 0.76084 0.80706 0.85867 0.0
C506 C 0.77806 0.80649 0.88675 0.0
C507 C 0.88171 0.80999 0.925 0.0
C508 C 0.96844 0.81353 0.93474 0.0
C509 C 0.86564 0.80905 0.89663 0.0
C510 C 0.03996 0.81526 0.91578 0.0
C511 C 0.0248 0.81412 0.88766 0.0
H512 H 0.26925 0.55929 0.60539 0.0
H513 H 0.98811 0.55906 0.58075 0.0
H514 H 0.9414 0.55764 0.6289 0.0
H515 H 0.98066 0.55873 0.67779 0.0
H516 H 0.26175 0.55884 0.70246 0.0
H517 H 0.30861 0.55787 0.65428 0.0
C518 C 0.19764 0.5588 0.61051 0.0
C519 C 0.13205 0.55949 0.58951 0.0
C520 C 0.17154 0.55803 0.63817 0.0
C521 C 0.03979 0.55858 0.59648 0.0
C522 C 0.01317 0.55784 0.62401 0.0
C523 C 0.0523 0.55841 0.67266 0.0
C524 C 0.11781 0.55906 0.69369 0.0
C525 C 0.07846 0.55791 0.645 0.0
C526 C 0.21014 0.55837 0.68671 0.0
C527 C 0.23683 0.5579 0.65916 0.0
H528 H 0.1824 0.71309 0.58922 0.0
H529 H 0.89642 0.70965 0.60721 0.0
H530 H 0.92738 0.71084 0.65614 0.0
H531 H 0.03681 0.71056 0.69425 0.0
H532 H 0.32306 0.713 0.67611 0.0
H533 H 0.29092 0.71466 0.62731 0.0
C534 C 0.12692 0.71283 0.60385 0.0
C535 C 0.03756 0.71113 0.59454 0.0
C536 C 0.14519 0.71323 0.63215 0.0
C537 C 0.96623 0.71076 0.61381 0.0
C538 C 0.98371 0.71146 0.64187 0.0
C539 C 0.09184 0.7117 0.67961 0.0
C540 C 0.18199 0.7115 0.6888 0.0
C541 C 0.07309 0.71234 0.65135 0.0
C542 C 0.25283 0.71293 0.66956 0.0
C543 C 0.23468 0.71389 0.64159 0.0
H544 H 0.00363 0.46563 0.35415 0.0
H545 H 0.7275 0.46984 0.32587 0.0
H546 H 0.67387 0.47022 0.37341 0.0
H547 H 0.70455 0.4668 0.42244 0.0
H548 H 0.98038 0.46256 0.45086 0.0
H549 H 0.03559 0.46493 0.40361 0.0
C550 C 0.93168 0.46678 0.35837 0.0
C551 C 0.86932 0.46749 0.33649 0.0
C552 C 0.90157 0.4669 0.38568 0.0
C553 C 0.77669 0.46924 0.3423 0.0
C554 C 0.74609 0.46938 0.36947 0.0
C555 C 0.77693 0.46653 0.41834 0.0
C556 C 0.83843 0.46428 0.44004 0.0
C557 C 0.80775 0.46782 0.39123 0.0
C558 C 0.93187 0.46425 0.43451 0.0
C559 C 0.96325 0.46552 0.4075 0.0
H560 H 0.72015 0.30953 0.35401 0.0
H561 H 0.00136 0.30499 0.33065 0.0
H562 H 0.04475 0.30393 0.37906 0.0
H563 H 0.00389 0.30671 0.42758 0.0
H564 H 0.72286 0.31121 0.45107 0.0
H565 H 0.67775 0.30969 0.4028 0.0
C566 C 0.79097 0.30817 0.35949 0.0
C567 C 0.85778 0.30756 0.33877 0.0
C568 C 0.81518 0.30763 0.38728 0.0
C569 C 0.94885 0.30553 0.34618 0.0
C570 C 0.97359 0.305 0.37384 0.0
C571 C 0.93256 0.30722 0.42218 0.0
C572 C 0.8667 0.30929 0.44282 0.0
C573 C 0.90754 0.30641 0.3945 0.0
C574 C 0.77466 0.30965 0.43557 0.0
C575 C 0.74906 0.30886 0.40798 0.0
H576 H 0.77434 0.05754 0.60587 0.0
H577 H 0.49095 0.05666 0.58376 0.0
H578 H 0.44935 0.05415 0.63218 0.0
H579 H 0.49331 0.05476 0.68071 0.0
H580 H 0.77652 0.05565 0.70293 0.0
H581 H 0.81883 0.05538 0.6543 0.0
C582 C 0.70339 0.05667 0.61161 0.0
C583 C 0.63557 0.05752 0.59128 0.0
C584 C 0.68023 0.05527 0.63942 0.0
C585 C 0.54424 0.05609 0.59898 0.0
C586 C 0.52055 0.05472 0.62667 0.0
C587 C 0.56445 0.05471 0.67493 0.0
C588 C 0.63186 0.05542 0.69539 0.0
C589 C 0.58791 0.05469 0.64705 0.0
C590 C 0.72354 0.05511 0.68761 0.0
C591 C 0.74758 0.05506 0.65982 0.0
H592 H 0.6485 0.21748 0.59479 0.0
H593 H 0.37095 0.20483 0.61001 0.0
H594 H 0.39279 0.20773 0.65899 0.0
H595 H 0.49463 0.21152 0.69825 0.0
H596 H 0.77359 0.22305 0.68337 0.0
H597 H 0.7469 0.22326 0.63402 0.0
C598 C 0.59269 0.21549 0.60881 0.0
C599 C 0.50884 0.21074 0.5986 0.0
C600 C 0.60573 0.21703 0.63725 0.0
C601 C 0.43696 0.2083 0.61717 0.0
C602 C 0.44906 0.21 0.64531 0.0
C603 C 0.5486 0.21446 0.68418 0.0
C604 C 0.63567 0.21728 0.69434 0.0
C605 C 0.53363 0.21407 0.65569 0.0
C606 C 0.70578 0.22083 0.67591 0.0
C607 C 0.6908 0.22087 0.64768 0.0
H608 H 0.23394 0.96875 0.4235 0.0
H609 H 0.51076 0.96712 0.45199 0.0
H610 H 0.56491 0.96732 0.40442 0.0
H611 H 0.53195 0.96507 0.35521 0.0
H612 H 0.25457 0.96636 0.32697 0.0
H613 H 0.20179 0.96926 0.37425 0.0
C614 C 0.30629 0.96863 0.41931 0.0
C615 C 0.36845 0.9677 0.44116 0.0
C616 C 0.33642 0.96852 0.39207 0.0
C617 C 0.46179 0.96783 0.43551 0.0
C618 C 0.49255 0.96782 0.40834 0.0
C619 C 0.45989 0.9661 0.35936 0.0
C620 C 0.39695 0.96524 0.33767 0.0
C621 C 0.43028 0.96769 0.38652 0.0
C622 C 0.30415 0.9669 0.3433 0.0
C623 C 0.27406 0.96851 0.37031 0.0
H624 H 0.48189 0.80447 0.42993 0.0
H625 H 0.20037 0.80742 0.45366 0.0
H626 H 0.15582 0.80778 0.40523 0.0
H627 H 0.19905 0.81002 0.35662 0.0
H628 H 0.48124 0.80723 0.33324 0.0
H629 H 0.52372 0.80399 0.38131 0.0
C630 C 0.41057 0.80499 0.42451 0.0
C631 C 0.34439 0.80611 0.44529 0.0
C632 C 0.38598 0.8054 0.39679 0.0
C633 C 0.25237 0.80653 0.43804 0.0
C634 C 0.22712 0.80687 0.41037 0.0
C635 C 0.26988 0.8086 0.362 0.0
C636 C 0.33722 0.80911 0.34142 0.0
C637 C 0.29363 0.80676 0.38964 0.0
C638 C 0.42833 0.80696 0.34867 0.0
C639 C 0.45257 0.80515 0.37615 0.0
H640 H 0.7675 0.55498 0.10514 0.0
H641 H 0.4854 0.55478 0.08162 0.0
H642 H 0.44067 0.55354 0.12998 0.0
H643 H 0.48216 0.55522 0.1787 0.0
H644 H 0.76426 0.55524 0.20223 0.0
H645 H 0.809 0.55366 0.1539 0.0
C646 C 0.69614 0.55449 0.11059 0.0
C647 C 0.62963 0.55519 0.08987 0.0
C648 C 0.67124 0.55383 0.13834 0.0
C649 C 0.53769 0.55428 0.09716 0.0
C650 C 0.51223 0.55366 0.12481 0.0
C651 C 0.55353 0.5547 0.17327 0.0
C652 C 0.62003 0.55556 0.19396 0.0
C653 C 0.57844 0.55385 0.14553 0.0
C654 C 0.71198 0.55462 0.1867 0.0
C655 C 0.73745 0.55381 0.15907 0.0
H656 H 0.77506 0.71798 0.17672 0.0
H657 H 0.49129 0.72022 0.19837 0.0
H658 H 0.45115 0.72185 0.14975 0.0
H659 H 0.49618 0.71988 0.10143 0.0
H660 H 0.77973 0.71753 0.07968 0.0
H661 H 0.82101 0.71891 0.12827 0.0
C662 C 0.70437 0.71898 0.17082 0.0
C663 C 0.63593 0.71874 0.19106 0.0
C664 C 0.68207 0.71982 0.14293 0.0
C665 C 0.54499 0.72033 0.18318 0.0
C666 C 0.52213 0.72118 0.15541 0.0
C667 C 0.56717 0.71985 0.10731 0.0
C668 C 0.63498 0.71838 0.08708 0.0
C669 C 0.58999 0.72051 0.13515 0.0
C670 C 0.72652 0.71863 0.09488 0.0
C671 C 0.74994 0.71932 0.12264 0.0
H672 H 0.53005 0.47081 0.85544 0.0
H673 H 0.24849 0.46789 0.83208 0.0
H674 H 0.20327 0.46995 0.88035 0.0
H675 H 0.24555 0.46947 0.92913 0.0
H676 H 0.52741 0.47223 0.95238 0.0
H677 H 0.57119 0.47352 0.90395 0.0
C678 C 0.45861 0.47084 0.86089 0.0
C679 C 0.39251 0.46898 0.84033 0.0
C680 C 0.43359 0.47187 0.88856 0.0
C681 C 0.30038 0.4693 0.84754 0.0
C682 C 0.27474 0.47036 0.87513 0.0
C683 C 0.31659 0.47054 0.92361 0.0
C684 C 0.38349 0.4705 0.94427 0.0
C685 C 0.34097 0.47117 0.89581 0.0
C686 C 0.47489 0.47218 0.93688 0.0
C687 C 0.49982 0.47284 0.9092 0.0
H688 H 0.48614 0.30863 0.83537 0.0
H689 H 0.20161 0.30006 0.84769 0.0
H690 H 0.22398 0.2989 0.89717 0.0
H691 H 0.32084 0.30344 0.93738 0.0
H692 H 0.60432 0.31315 0.92479 0.0
H693 H 0.58612 0.31069 0.87555 0.0
C694 C 0.42984 0.3061 0.8489 0.0
C695 C 0.34255 0.30447 0.83799 0.0
C696 C 0.44256 0.30594 0.8775 0.0
C697 C 0.2696 0.30141 0.85573 0.0
C698 C 0.28215 0.30082 0.88405 0.0
C699 C 0.37874 0.3048 0.92387 0.0
C700 C 0.46321 0.30871 0.93483 0.0
C701 C 0.36773 0.30358 0.89528 0.0
C702 C 0.53782 0.31038 0.91696 0.0
C703 C 0.52777 0.30894 0.88869 0.0
H704 H 0.5593 0.04201 0.01629 0.0
H705 H 0.29774 0.02503 0.03937 0.0
H706 H 0.35345 1.00047 0.03375 0.0
H707 H 0.47641 0.98367 0.02154 0.0
H708 H 0.73767 1.00072 0.99828 0.0
H709 H 0.68205 0.02525 1.00412 0.0
C710 C 0.51527 0.03291 0.02052 0.0
C711 C 0.42504 0.03529 0.02838 0.0
C712 C 0.5471 0.01879 0.01666 0.0
C713 C 0.36782 0.02343 0.03332 0.0
C714 C 0.39933 1.00938 0.02996 0.0
C715 C 0.5204 0.99278 0.01736 0.0
C716 C 0.61057 0.99042 1.00938 0.0
C717 C 0.48853 1.00691 0.02127 0.0
C718 C 0.66769 1.0023 1.00446 0.0
C719 C 0.63623 0.01633 1.00793 0.0
H720 H 0.62259 0.27854 0.02693 0.0
H721 H 0.86886 0.29843 0.99716 0.0
H722 H 0.9472 0.27512 1.0006 0.0
H723 H 0.94289 0.24916 1.01079 0.0
H724 H 0.69424 0.22967 0.03986 0.0
H725 H 0.61886 0.25309 0.03786 0.0
C726 C 0.69352 0.2779 0.02107 0.0
C727 C 0.73973 0.29024 1.01152 0.0
C728 C 0.7372 0.26459 0.02296 0.0
C729 C 0.83177 0.28912 1.00446 0.0
C730 C 0.8763 0.2758 1.0064 0.0
C731 C 0.87219 0.25 0.01679 0.0
C732 C 0.82401 0.23763 0.0254 0.0
C733 C 0.82928 0.26347 1.01543 0.0
C734 C 0.7327 0.23897 0.03313 0.0
C735 C 0.68967 0.25235 0.03196 0.0
H736 H 0.3226 0.25067 0.27312 0.0
H737 H 0.56339 0.22704 0.24979 0.0
H738 H 0.65228 0.24929 0.25221 0.0
H739 H 0.66065 0.27515 0.26087 0.0
H740 H 0.41979 0.2988 0.28405 0.0
H741 H 0.33107 0.27652 0.28192 0.0
C742 C 0.39458 0.25031 0.26849 0.0
C743 C 0.4364 0.23717 0.26122 0.0
C744 C 0.44485 0.26306 0.27001 0.0
C745 C 0.52962 0.23698 0.25537 0.0
C746 C 0.58033 0.24969 0.2568 0.0
C747 C 0.5887 0.27551 0.26555 0.0
C748 C 0.54679 0.28867 0.27265 0.0
C749 C 0.5385 0.26275 0.26412 0.0
C750 C 0.45363 0.28884 0.27859 0.0
C751 C 0.40301 0.27612 0.27731 0.0
H752 H 0.59177 0.99775 0.25952 0.0
H753 H 0.83756 0.97721 0.28794 0.0
H754 H 0.91732 1.00025 0.28513 0.0
H755 H 0.91711 0.02583 0.2745 0.0
H756 H 0.67225 0.04667 0.24621 0.0
H757 H 0.59158 0.0236 0.24898 0.0
C758 C 0.66283 0.99826 0.26518 0.0
C759 C 0.70878 0.98573 0.27396 0.0
C760 C 0.70809 1.0115 0.26343 0.0
C761 C 0.80069 0.98666 0.28117 0.0
C762 C 0.84624 0.99982 0.27952 0.0
C763 C 0.84602 0.02543 0.26883 0.0
C764 C 0.80071 0.03801 0.26007 0.0
C765 C 0.80056 0.01225 0.27062 0.0
C766 C 0.70867 0.03718 0.25294 0.0
C767 C 0.66268 0.024 0.25458 0.0
H768 H 0.45171 0.7504 1.01087 0.0
H769 H 0.19883 0.72965 0.03226 0.0
H770 H 0.12096 0.75296 0.02965 0.0
H771 H 0.12532 0.77893 0.0207 0.0
H772 H 0.37873 0.7995 0.99919 0.0
H773 H 0.45642 0.77625 1.00237 0.0
C774 C 0.37944 0.75089 1.01502 0.0
C775 C 0.33098 0.73824 0.02171 0.0
C776 C 0.33555 0.76422 1.01335 0.0
C777 C 0.23762 0.73919 0.02709 0.0
C778 C 0.19321 0.7525 0.02554 0.0
C779 C 0.19763 0.77839 0.01664 0.0
C780 C 0.24623 0.79097 1.0096 0.0
C781 C 0.24159 0.76504 0.01857 0.0
C782 C 0.3398 0.79001 1.00457 0.0
C783 C 0.38413 0.77673 1.00642 0.0
H784 H 0.66285 0.77684 0.75989 0.0
H785 H 0.40603 0.79568 0.78339 0.0
H786 H 0.33404 0.77195 0.78001 0.0
H787 H 0.34473 0.74617 0.77027 0.0
H788 H 0.60183 0.7274 0.74681 0.0
H789 H 0.67357 0.75113 0.75017 0.0
C790 C 0.59099 0.77585 0.76435 0.0
C791 C 0.53976 0.78808 0.77193 0.0
C792 C 0.55043 0.76227 0.76226 0.0
C793 C 0.44694 0.78648 0.77758 0.0
C794 C 0.40589 0.77293 0.7756 0.0
C795 C 0.41656 0.74719 0.7658 0.0
C796 C 0.46797 0.73498 0.75823 0.0
C797 C 0.45708 0.76079 0.7679 0.0
C798 C 0.56079 0.73659 0.75261 0.0
C799 C 0.60171 0.75014 0.75458 0.0
H800 H 0.11751 0.99489 0.76556 0.0
H801 H 0.36302 0.97452 0.79462 0.0
H802 H 0.4429 0.9976 0.79111 0.0
H803 H 0.44286 0.02315 0.77914 0.0
H804 H 0.19758 0.0435 0.74987 0.0
H805 H 0.1171 0.0205 0.75401 0.0
C806 C 0.18856 0.99542 0.77123 0.0
C807 C 0.2344 0.98293 0.78033 0.0
C808 C 0.23378 1.00863 0.76897 0.0
C809 C 0.32622 0.98393 0.78761 0.0
C810 C 0.37181 0.99711 0.78553 0.0
C811 C 0.37172 0.02264 0.77357 0.0
C812 C 0.32626 0.03508 0.76407 0.0
C813 C 0.32626 1.00946 0.77608 0.0
C814 C 0.23414 0.03412 0.75713 0.0
C815 C 0.18823 0.02099 0.75954 0.0
H816 H 0.63911 0.49661 0.51617 0.0
H817 H 0.39119 0.47779 0.48546 0.0
H818 H 0.3145 0.50105 0.4905 0.0
H819 H 0.31778 0.52634 0.50432 0.0
H820 H 0.56552 0.54515 0.53517 0.0
H821 H 0.64281 0.52197 0.52954 0.0
C822 C 0.56825 0.49753 0.51045 0.0
C823 C 0.52082 0.48542 0.50044 0.0
C824 C 0.52476 0.51084 0.51362 0.0
C825 C 0.42925 0.48691 0.49314 0.0
C826 C 0.38543 0.50019 0.49612 0.0
C827 C 0.38873 0.52544 0.50995 0.0
C828 C 0.4358 0.5375 0.52032 0.0
C829 C 0.43248 0.51217 0.50651 0.0
C830 C 0.5277 0.53607 0.52727 0.0
C831 C 0.57183 0.52283 0.52399 0.0
H832 H 0.53826 0.77325 0.52132 0.0
H833 H 0.78654 0.79456 0.49716 0.0
H834 H 0.86746 0.77152 0.49987 0.0
H835 H 0.86725 0.74564 0.50967 0.0
H836 H 0.61856 0.72446 0.5339 0.0
H837 H 0.53767 0.74744 0.53068 0.0
C838 C 0.61016 0.77295 0.51657 0.0
C839 C 0.65641 0.78568 0.50907 0.0
C840 C 0.65589 0.75976 0.51831 0.0
C841 C 0.74937 0.78496 0.50295 0.0
C842 C 0.79556 0.7718 0.50456 0.0
C843 C 0.7953 0.74599 0.51434 0.0
C844 C 0.74899 0.73331 0.52215 0.0
C845 C 0.74946 0.75918 0.51235 0.0
C846 C 0.6558 0.73403 0.52793 0.0
C847 C 0.60962 0.74715 0.52606 0.0
H848 H 0.92598 0.52485 0.77606 0.0
H849 H 0.68218 0.54571 0.74692 0.0
H850 H 0.59953 0.52301 0.75127 0.0
H851 H 0.59652 0.49767 0.76339 0.0
H852 H 0.83887 0.47638 0.79242 0.0
H853 H 0.9227 0.49914 0.78827 0.0
C854 C 0.85477 0.52446 0.77054 0.0
C855 C 0.81025 0.537 0.76108 0.0
C856 C 0.80771 0.51141 0.77323 0.0
C857 C 0.71804 0.53626 0.75416 0.0
C858 C 0.67081 0.52329 0.75671 0.0
C859 C 0.66778 0.49789 0.76891 0.0
C860 C 0.71145 0.48527 0.77824 0.0
C861 C 0.71501 0.51086 0.76628 0.0
C862 C 0.80365 0.4859 0.78526 0.0
C863 C 0.85146 0.49889 0.7828 0.0
H864 H 0.04236 0.27504 0.51968 0.0
H865 H 0.2995 0.29368 0.49591 0.0
H866 H 0.37106 0.26996 0.49941 0.0
H867 H 0.36088 0.24436 0.50994 0.0
H868 H 0.10453 0.22552 0.53385 0.0
H869 H 0.03173 0.24919 0.52958 0.0
C870 C 0.11414 0.27397 0.51518 0.0
C871 C 0.16571 0.28618 0.50759 0.0
C872 C 0.15466 0.26036 0.51737 0.0
C873 C 0.25836 0.28451 0.50177 0.0
C874 C 0.29921 0.27096 0.50383 0.0
C875 C 0.28895 0.24534 0.51433 0.0
C876 C 0.23819 0.23315 0.52241 0.0
C877 C 0.24804 0.25887 0.51177 0.0
C878 C 0.14511 0.2347 0.52771 0.0
C879 C 0.10364 0.24822 0.52524 0.0
H880 H 0.07988 0.50022 0.26041 0.0
H881 H 0.31791 0.47709 0.28762 0.0
H882 H 0.40665 0.49936 0.28486 0.0
H883 H 0.41617 0.52502 0.27412 0.0
H884 H 0.17826 0.54808 0.24659 0.0
H885 H 0.08916 0.52588 0.24992 0.0
C886 C 0.15118 0.49997 0.26587 0.0
C887 C 0.19232 0.48696 0.27425 0.0
C888 C 0.20148 0.51271 0.264 0.0
C889 C 0.28465 0.48693 0.28118 0.0
C890 C 0.3353 0.49964 0.27952 0.0
C891 C 0.34479 0.52526 0.26876 0.0
C892 C 0.30385 0.53823 0.26002 0.0
C893 C 0.29436 0.51254 0.27082 0.0
C894 C 0.21137 0.53827 0.25328 0.0
C895 C 0.16053 0.52559 0.25524 0.0
H896 H 0.15816 0.99966 0.51611 0.0
H897 H 0.91548 0.97831 0.48768 0.0
H898 H 0.83072 1.00089 0.49259 0.0
H899 H 0.82574 0.02632 0.50585 0.0
H900 H 0.06865 0.04749 0.53464 0.0
H901 H 0.15366 0.02503 0.52888 0.0
C902 C 0.08669 0.99986 0.51085 0.0
C903 C 0.04311 0.98724 0.50154 0.0
C904 C 0.03865 0.01277 0.514 0.0
C905 C 0.95065 0.98783 0.49481 0.0
C906 C 0.90224 1.00072 0.49772 0.0
C907 C 0.89731 0.02608 0.51098 0.0
C908 C 0.94078 0.03861 0.52082 0.0
C909 C 0.94554 0.0132 0.50751 0.0
C910 C 0.03354 0.03804 0.52716 0.0
C911 C 0.08209 0.02521 0.5238 0.0
H912 H 0.82499 0.24924 0.77264 0.0
H913 H 0.06774 0.22679 0.74704 0.0
H914 H 0.15222 0.24948 0.74835 0.0
H915 H 0.15673 0.27531 0.7571 0.0
H916 H 0.91465 0.29785 0.78295 0.0
H917 H 0.82943 0.27519 0.78121 0.0
C918 C 0.89645 0.24923 0.76728 0.0
C919 C 0.94013 0.23628 0.75973 0.0
C920 C 0.94428 0.26225 0.76818 0.0
C921 C 0.03258 0.23656 0.75288 0.0
C922 C 0.08077 0.24953 0.75366 0.0
C923 C 0.08522 0.27537 0.7624 0.0
C924 C 0.04203 0.28832 0.77021 0.0
C925 C 0.03721 0.26239 0.76135 0.0
C926 C 0.94945 0.28808 0.77692 0.0
C927 C 0.90089 0.27513 0.77591 0.0
H928 H 0.15489 0.77667 0.2599 0.0
H929 H 0.90756 0.79841 0.28365 0.0
H930 H 0.82493 0.77564 0.28068 0.0
H931 H 0.82318 0.74993 0.27138 0.0
H932 H 0.06947 0.7279 0.24772 0.0
H933 H 0.15295 0.7507 0.25054 0.0
C934 C 0.08286 0.77648 0.26449 0.0
C935 C 0.03735 0.78926 0.27203 0.0
C936 C 0.03595 0.76338 0.26268 0.0
C937 C 0.94414 0.78876 0.27784 0.0
C938 C 0.89695 0.77575 0.27612 0.0
C939 C 0.89522 0.75001 0.26677 0.0
C940 C 0.94012 0.73717 0.25931 0.0
C941 C 0.94225 0.76305 0.26854 0.0
C942 C 0.03335 0.7376 0.25346 0.0
C943 C 0.08095 0.75062 0.25512 0.0
H944 H 0.17632 0.50034 0.02326 0.0
H945 H 0.94122 0.47637 0.99659 0.0
H946 H 0.84895 0.49829 0.99988 0.0
H947 H 0.83611 0.52399 1.0105 0.0
H948 H 0.07188 0.54779 0.03724 0.0
H949 H 0.1636 0.52588 0.03392 0.0
C950 C 0.10487 0.49982 0.01806 0.0
C951 C 0.06566 0.48668 1.00962 0.0
C952 C 0.0527 0.51235 0.02017 0.0
C953 C 0.97304 0.48631 1.00306 0.0
C954 C 0.92041 0.49883 1.00501 0.0
C955 C 0.90758 0.52445 1.0157 0.0
C956 C 0.94718 0.53756 0.02416 0.0
C957 C 0.95966 0.51187 1.01361 0.0
C958 C 0.03977 0.53787 0.03075 0.0
C959 C 0.09214 0.52536 0.02879 0.0
H960 H 0.43989 0.06677 0.94842 0.0
H961 H 0.16324 0.0684 0.9196 0.0
H962 H 0.21759 0.06765 0.87212 0.0
H963 H 0.34324 0.06699 0.83913 0.0
H964 H 0.61978 0.06435 0.86774 0.0
H965 H 0.56559 0.06498 0.91532 0.0
C966 C 0.39126 0.06701 0.93177 0.0
C967 C 0.29739 0.06782 0.93755 0.0
C968 C 0.42303 0.06639 0.90463 0.0
C969 C 0.23556 0.06783 0.91573 0.0
C970 C 0.26672 0.06742 0.88862 0.0
C971 C 0.392 0.0666 0.85574 0.0
C972 C 0.48579 0.06582 0.84988 0.0
C973 C 0.36024 0.06679 0.88287 0.0
C974 C 0.54753 0.06502 0.87168 0.0
C975 C 0.51646 0.0654 0.89884 0.0
H976 H 0.82339 0.20704 0.94719 0.0
H977 H 0.09994 0.2054 0.91801 0.0
H978 H 0.04537 0.2059 0.87058 0.0
H979 H 0.91944 0.20627 0.83776 0.0
H980 H 0.64307 0.20897 0.86677 0.0
H981 H 0.69755 0.20866 0.91427 0.0
C982 C 0.87194 0.20674 0.93046 0.0
C983 C 0.96582 0.20598 0.93612 0.0
C984 C 0.84005 0.20723 0.90337 0.0
C985 C 0.0276 0.20592 0.91422 0.0
C986 C 0.99632 0.20619 0.88714 0.0
C987 C 0.87082 0.20675 0.85446 0.0
C988 C 0.77699 0.20744 0.84875 0.0
C989 C 0.90275 0.20674 0.88153 0.0
C990 C 0.71535 0.20838 0.87061 0.0
C991 C 0.74658 0.20816 0.89772 0.0
H992 H 0.27573 0.20728 0.44787 0.0
H993 H 0.5582 0.20422 0.42513 0.0
H994 H 0.51611 0.20596 0.37654 0.0
H995 H 0.39826 0.20742 0.34087 0.0
H996 H 0.11654 0.21145 0.36406 0.0
H997 H 0.15935 0.2103 0.41253 0.0
C998 C 0.32833 0.20696 0.43229 0.0
C999 C 0.42006 0.20538 0.44003 0.0
C1000 C 0.3036 0.20812 0.40465 0.0
C1001 C 0.48733 0.20535 0.41968 0.0
C1002 C 0.46312 0.20631 0.39195 0.0
C1003 C 0.34606 0.20804 0.35652 0.0
C1004 C 0.25397 0.20932 0.34888 0.0
C1005 C 0.37138 0.20753 0.38424 0.0
C1006 C 0.18757 0.21041 0.3694 0.0
C1007 C 0.2121 0.20972 0.39706 0.0
H1008 H 0.91684 0.06763 0.44714 0.0
H1009 H 0.63902 0.06821 0.41932 0.0
H1010 H 0.6918 0.0679 0.37158 0.0
H1011 H 0.81689 0.06799 0.33812 0.0
H1012 H 0.09438 0.06622 0.3661 0.0
H1013 H 0.04145 0.06642 0.41378 0.0
C1014 C 0.8676 0.06774 0.43065 0.0
C1015 C 0.77392 0.06816 0.43675 0.0
C1016 C 0.89847 0.06734 0.40344 0.0
C1017 C 0.71124 0.06796 0.41516 0.0
C1018 C 0.74151 0.06781 0.38791 0.0
C1019 C 0.86599 0.06769 0.35464 0.0
C1020 C 0.95974 0.06729 0.34859 0.0
C1021 C 0.83494 0.0676 0.38186 0.0
C1022 C 0.02215 0.06659 0.37021 0.0
C1023 C 0.99182 0.06673 0.39742 0.0
H1024 H 0.60326 0.95646 0.08763 0.0
H1025 H 0.88097 0.95589 0.11564 0.0
H1026 H 0.82775 0.95495 0.16329 0.0
H1027 H 0.70238 0.95393 0.19657 0.0
H1028 H 0.42501 0.95548 0.16833 0.0
H1029 H 0.47846 0.95636 0.12079 0.0
C1030 C 0.65247 0.95608 0.10412 0.0
C1031 C 0.74619 0.95608 0.09809 0.0
C1032 C 0.62137 0.95568 0.13127 0.0
C1033 C 0.80869 0.95587 0.11973 0.0
C1034 C 0.77819 0.9553 0.14693 0.0
C1035 C 0.65341 0.95438 0.18002 0.0
C1036 C 0.55959 0.95446 0.18595 0.0
C1037 C 0.68471 0.95511 0.15287 0.0
C1038 C 0.49733 0.95534 0.16431 0.0
C1039 C 0.52794 0.95584 0.13717 0.0
H1040 H 0.20516 0.82012 0.08695 0.0
H1041 H 0.9195 0.82042 0.10662 0.0
H1042 H 0.9564 0.82011 0.15568 0.0
H1043 H 0.07025 0.82035 0.19262 0.0
H1044 H 0.35553 0.81902 0.17244 0.0
H1045 H 0.31814 0.81915 0.12357 0.0
C1046 C 0.15068 0.82016 0.10194 0.0
C1047 C 0.05951 0.82049 0.09317 0.0
C1048 C 0.17249 0.81982 0.12987 0.0
C1049 C 0.99001 0.82022 0.11285 0.0
C1050 C 0.01121 0.82008 0.14084 0.0
C1051 C 0.12438 0.82014 0.17753 0.0
C1052 C 0.2158 0.81986 0.18614 0.0
C1053 C 0.10224 0.82 0.14955 0.0
C1054 C 0.28489 0.81929 0.16636 0.0
C1055 C 0.26346 0.81938 0.13845 0.0
H1056 H 0.54871 0.81811 0.69636 0.0
H1057 H 0.82555 0.81943 0.66741 0.0
H1058 H 0.7713 0.81848 0.6199 0.0
H1059 H 0.64515 0.81776 0.58698 0.0
H1060 H 0.36885 0.81536 0.61621 0.0
H1061 H 0.42333 0.81622 0.66362 0.0
C1062 C 0.59746 0.81826 0.67968 0.0
C1063 C 0.69124 0.81906 0.68539 0.0
C1064 C 0.56579 0.81751 0.65263 0.0
C1065 C 0.75326 0.81889 0.66356 0.0
C1066 C 0.72214 0.81838 0.63645 0.0
C1067 C 0.59661 0.81747 0.60371 0.0
C1068 C 0.50273 0.81668 0.59807 0.0
C1069 C 0.62857 0.81778 0.63079 0.0
C1070 C 0.44115 0.81601 0.61999 0.0
C1071 C 0.47236 0.81653 0.64705 0.0
H1072 H 0.30386 0.95301 0.61166 0.0
H1073 H 0.04246 0.96124 0.57532 0.0
H1074 H 0.97045 0.96063 0.62032 0.0
H1075 H 0.98054 0.95711 0.67028 0.0
H1076 H 0.24157 0.94756 0.70609 0.0
H1077 H 0.31367 0.94924 0.66149 0.0
C1078 C 0.2314 0.95479 0.61373 0.0
C1079 C 0.17872 0.95715 0.5903 0.0
C1080 C 0.18968 0.95405 0.63967 0.0
C1081 C 0.08452 0.95929 0.59314 0.0
C1082 C 0.0431 0.95895 0.61886 0.0
C1083 C 0.05303 0.95537 0.66827 0.0
C1084 C 0.10492 0.95214 0.69157 0.0
C1085 C 0.09475 0.95618 0.64231 0.0
C1086 C 0.19917 0.94992 0.68854 0.0
C1087 C 0.24105 0.95095 0.66299 0.0
H1088 H 0.4247 0.56738 0.44599 0.0
H1089 H 0.14777 0.56904 0.41751 0.0
H1090 H 0.20169 0.56861 0.3699 0.0
H1091 H 0.32753 0.56822 0.33672 0.0
H1092 H 0.60398 0.56534 0.36531 0.0
H1093 H 0.54996 0.56576 0.41287 0.0
C1094 C 0.37591 0.56771 0.42938 0.0
C1095 C 0.28215 0.56845 0.43527 0.0
C1096 C 0.40741 0.56723 0.40223 0.0
C1097 C 0.22003 0.56853 0.41353 0.0
C1098 C 0.25097 0.56831 0.38635 0.0
C1099 C 0.3762 0.56774 0.35335 0.0
C1100 C 0.46999 0.56695 0.34749 0.0
C1101 C 0.34448 0.56776 0.38051 0.0
C1102 C 0.53174 0.56601 0.36926 0.0
C1103 C 0.50078 0.56627 0.39641 0.0
H1104 H 0.90665 0.70575 0.3381 0.0
H1105 H 0.62549 0.71045 0.3615 0.0
H1106 H 0.669 0.70985 0.40993 0.0
H1107 H 0.7861 0.70732 0.44528 0.0
H1108 H 0.06791 0.70368 0.42213 0.0
H1109 H 0.02486 0.70461 0.37356 0.0
C1110 C 0.85466 0.7066 0.35378 0.0
C1111 C 0.76258 0.70794 0.34621 0.0
C1112 C 0.88039 0.70645 0.38146 0.0
C1113 C 0.69653 0.70934 0.36677 0.0
C1114 C 0.72145 0.70898 0.39443 0.0
C1115 C 0.83827 0.7067 0.4296 0.0
C1116 C 0.93013 0.70523 0.43722 0.0
C1117 C 0.81302 0.70741 0.40195 0.0
C1118 C 0.99696 0.70478 0.41675 0.0
C1119 C 0.97221 0.70527 0.38905 0.0
H1120 H 0.34656 0.70586 0.94338 0.0
H1121 H 0.62563 0.70827 0.91666 0.0
H1122 H 0.57592 0.70743 0.86878 0.0
H1123 H 0.45396 0.70549 0.83494 0.0
H1124 H 0.17437 0.70407 0.86134 0.0
H1125 H 0.22377 0.70512 0.90932 0.0
C1126 C 0.39673 0.70616 0.9271 0.0
C1127 C 0.48999 0.70694 0.93357 0.0
C1128 C 0.36751 0.70585 0.89974 0.0
C1129 C 0.55374 0.70761 0.91223 0.0
C1130 C 0.52526 0.70711 0.8849 0.0
C1131 C 0.40355 0.70536 0.85117 0.0
C1132 C 0.31043 0.70449 0.84461 0.0
C1133 C 0.43245 0.70613 0.87848 0.0
C1134 C 0.24621 0.70466 0.86586 0.0
C1135 C 0.27456 0.70523 0.89324 0.0
H1136 H 0.82342 0.56603 0.83738 0.0
H1137 H 0.1006 0.56764 0.86562 0.0
H1138 H 0.04715 0.56715 0.91327 0.0
H1139 H 0.92166 0.56682 0.94657 0.0
H1140 H 0.64491 0.56401 0.91827 0.0
H1141 H 0.69845 0.56438 0.87064 0.0
C1142 C 0.87235 0.56632 0.85395 0.0
C1143 C 0.96605 0.56708 0.84797 0.0
C1144 C 0.84112 0.56582 0.88114 0.0
C1145 C 0.02837 0.56712 0.86967 0.0
C1146 C 0.99771 0.56687 0.89687 0.0
C1147 C 0.87283 0.56633 0.92999 0.0
C1148 C 0.77909 0.56559 0.93595 0.0
C1149 C 0.90426 0.56633 0.9028 0.0
C1150 C 0.71712 0.56464 0.91424 0.0
C1151 C 0.7478 0.56488 0.88705 0.0
H1152 H 0.76805 0.45434 0.61039 0.0
H1153 H 0.50237 0.45236 0.5735 0.0
H1154 H 0.43113 0.45362 0.61839 0.0
H1155 H 0.44301 0.45491 0.66874 0.0
H1156 H 0.70873 0.45565 0.70567 0.0
H1157 H 0.77998 0.45532 0.66068 0.0
C1158 C 0.69469 0.45419 0.61222 0.0
C1159 C 0.64112 0.45318 0.58856 0.0
C1160 C 0.65347 0.4547 0.6383 0.0
C1161 C 0.5458 0.45297 0.59135 0.0
C1162 C 0.50457 0.45375 0.61707 0.0
C1163 C 0.51635 0.45505 0.66685 0.0
C1164 C 0.57013 0.45524 0.69053 0.0
C1165 C 0.55756 0.45457 0.64076 0.0
C1166 C 0.6654 0.45535 0.68776 0.0
C1167 C 0.70654 0.4552 0.662 0.0
H1168 H 0.16846 0.31749 0.58488 0.0
H1169 H 0.89166 0.31975 0.61368 0.0
H1170 H 0.94551 0.31939 0.66118 0.0
H1171 H 0.07085 0.3188 0.69418 0.0
H1172 H 0.34737 0.31533 0.66563 0.0
H1173 H 0.29373 0.31574 0.61803 0.0
C1174 C 0.11972 0.31796 0.60154 0.0
C1175 C 0.02596 0.31884 0.59574 0.0
C1176 C 0.15119 0.31752 0.62869 0.0
C1177 C 0.96391 0.31913 0.61756 0.0
C1178 C 0.99479 0.31894 0.64469 0.0
C1179 C 0.1197 0.31819 0.67757 0.0
C1180 C 0.21335 0.31724 0.68344 0.0
C1181 C 0.08821 0.31822 0.65044 0.0
C1182 C 0.27524 0.31613 0.66167 0.0
C1183 C 0.24448 0.31639 0.6345 0.0
H1184 H 0.6934 0.31544 0.08453 0.0
H1185 H 0.41199 0.31722 0.10884 0.0
H1186 H 0.45768 0.31663 0.15727 0.0
H1187 H 0.57834 0.31661 0.19228 0.0
H1188 H 0.85912 0.31378 0.16746 0.0
H1189 H 0.81275 0.31377 0.11926 0.0
C1190 C 0.64182 0.31572 0.10042 0.0
C1191 C 0.5493 0.31662 0.09317 0.0
C1192 C 0.66864 0.31523 0.12795 0.0
C1193 C 0.4834 0.31659 0.11393 0.0
C1194 C 0.50967 0.31631 0.14155 0.0
C1195 C 0.62952 0.31601 0.17632 0.0
C1196 C 0.72238 0.31541 0.18342 0.0
C1197 C 0.60216 0.3158 0.14875 0.0
C1198 C 0.78753 0.31431 0.16254 0.0
C1199 C 0.76096 0.31433 0.13503 0.0
H1200 H 0.17777 0.46004 0.19591 0.0
H1201 H 0.90389 0.46034 0.16474 0.0
H1202 H 0.96283 0.46064 0.11768 0.0
H1203 H 0.09189 0.46008 0.08575 0.0
H1204 H 0.36579 0.46107 0.1168 0.0
H1205 H 0.30695 0.46106 0.16391 0.0
C1206 C 0.13082 0.46014 0.17881 0.0
C1207 C 0.03638 0.45995 0.18376 0.0
C1208 C 0.16526 0.46053 0.15196 0.0
C1209 C 0.97662 0.46042 0.16145 0.0
C1210 C 0.01039 0.46056 0.1346 0.0
C1211 C 0.1389 0.46026 0.10283 0.0
C1212 C 0.2333 0.46034 0.09784 0.0
C1213 C 0.1045 0.46048 0.12966 0.0
C1214 C 0.2931 0.46093 0.12013 0.0
C1215 C 0.25937 0.4609 0.147 0.0
H1216 H 0.18043 0.16611 0.02754 0.0
H1217 H 0.90553 0.15007 0.03008 0.0
H1218 H 0.96262 0.12532 0.03109 0.0
H1219 H 0.08988 0.10833 0.02977 0.0
H1220 H 0.36513 0.12421 0.02841 0.0
H1221 H 0.30837 0.14904 0.02858 0.0
C1222 C 0.13284 0.15721 0.02834 0.0
C1223 C 0.0386 0.15995 0.02849 0.0
C1224 C 0.16621 0.14302 0.02911 0.0
C1225 C 0.97818 0.14828 0.0299 0.0
C1226 C 0.01084 0.13413 0.03042 0.0
C1227 C 0.13772 0.11721 0.02952 0.0
C1228 C 0.2318 0.1144 0.0288 0.0
C1229 C 0.10461 0.13139 0.02979 0.0
C1230 C 0.29256 0.12605 0.02893 0.0
C1231 C 0.26005 0.14024 0.02895 0.0
H1232 H 0.27948 0.15156 0.25596 0.0
H1233 H 0.02445 0.1744 0.25933 0.0
H1234 H 0.94173 0.15173 0.25811 0.0
H1235 H 0.94089 0.12519 0.25777 0.0
H1236 H 0.19641 0.10245 0.25567 0.0
H1237 H 0.27863 0.12513 0.25458 0.0
C1238 C 0.20588 0.15157 0.25628 0.0
C1239 C 0.15867 0.16468 0.25788 0.0
C1240 C 0.15818 0.13844 0.25588 0.0
C1241 C 0.063 0.16447 0.25832 0.0
C1242 C 0.01527 0.15149 0.25758 0.0
C1243 C 0.01444 0.12522 0.25688 0.0
C1244 C 0.06205 0.11212 0.25698 0.0
C1245 C 0.06203 0.13838 0.25661 0.0
C1246 C 0.15765 0.11236 0.2559 0.0
C1247 C 0.2051 0.12535 0.25523 0.0
H1248 H 0.87428 0.86048 1.00227 0.0
H1249 H 0.14574 0.87799 1.004 0.0
H1250 H 0.08345 0.90241 1.00407 0.0
H1251 H 0.9528 0.91864 1.00524 0.0
H1252 H 0.68089 0.90138 1.00299 0.0
H1253 H 0.7429 0.87687 1.00135 0.0
C1254 C 0.92003 0.86963 1.00261 0.0
C1255 C 0.01479 0.86739 1.00335 0.0
C1256 C 0.88371 0.88363 1.00259 0.0
C1257 C 0.07278 0.87938 1.00348 0.0
C1258 C 0.03714 0.89335 1.00357 0.0
C1259 C 0.90674 0.90954 1.00438 0.0
C1260 C 0.81208 0.91185 1.00451 0.0
C1261 C 0.94282 0.89557 1.0034 0.0
C1262 C 0.75382 0.89992 1.00297 0.0
C1263 C 0.78933 0.88592 1.0021 0.0
H1264 H 0.90789 0.85674 0.78198 0.0
H1265 H 0.64313 0.87643 0.77649 0.0
H1266 H 0.71324 0.90036 0.77833 0.0
H1267 H 0.85005 0.91555 0.77963 0.0
H1268 H 0.11428 0.89573 0.78616 0.0
H1269 H 0.04363 0.87187 0.78588 0.0
C1270 C 0.86524 0.86625 0.7812 0.0
C1271 C 0.77025 0.86479 0.77878 0.0
C1272 C 0.90596 0.87991 0.78241 0.0
C1273 C 0.71621 0.87725 0.77829 0.0
C1274 C 0.75637 0.89092 0.77926 0.0
C1275 C 0.89238 0.90601 0.78103 0.0
C1276 C 0.98764 0.90743 0.78263 0.0
C1277 C 0.85122 0.89236 0.78101 0.0
C1278 C 0.04107 0.89496 0.78486 0.0
C1279 C 0.00065 0.88132 0.78463 0.0
H1280 H 0.13013 0.66506 0.52809 0.0
H1281 H 0.86228 0.64626 0.52554 0.0
H1282 H 0.92926 0.62214 0.52599 0.0
H1283 H 0.06341 0.60649 0.52574 0.0
H1284 H 0.33139 0.62519 0.52912 0.0
H1285 H 0.26442 0.64935 0.52984 0.0
C1286 C 0.08616 0.6557 0.52764 0.0
C1287 C 0.99106 0.6575 0.52655 0.0
C1288 C 0.12516 0.64188 0.52803 0.0
C1289 C 0.93544 0.64522 0.52633 0.0
C1290 C 0.97379 0.63142 0.52654 0.0
C1291 C 0.10748 0.61584 0.52665 0.0
C1292 C 0.20258 0.61401 0.52713 0.0
C1293 C 0.0685 0.62964 0.52716 0.0
C1294 C 0.25821 0.62626 0.52868 0.0
C1295 C 0.21987 0.64007 0.52903 0.0
H1296 H 0.10858 0.66444 0.75357 0.0
H1297 H 0.37945 0.64674 0.75562 0.0
H1298 H 0.31625 0.62233 0.75607 0.0
H1299 H 0.18408 0.60615 0.75732 0.0
H1300 H 0.91354 0.62397 0.75432 0.0
H1301 H 0.97701 0.64831 0.75277 0.0
C1302 C 0.15409 0.65526 0.7541 0.0
C1303 C 0.24883 0.65744 0.7548 0.0
C1304 C 0.1173 0.64131 0.75425 0.0
C1305 C 0.30647 0.64539 0.7551 0.0
C1306 C 0.27028 0.63143 0.75543 0.0
C1307 C 0.1388 0.61535 0.75633 0.0
C1308 C 0.04393 0.61322 0.75618 0.0
C1309 C 0.17581 0.62929 0.75527 0.0
C1310 C 0.98658 0.62528 0.75452 0.0
C1311 C 0.02289 0.63919 0.75367 0.0
H1312 H 0.88701 0.41533 0.49935 0.0
H1313 H 0.61675 0.39763 0.49418 0.0
H1314 H 0.67987 0.37322 0.49485 0.0
H1315 H 0.81106 0.35701 0.49877 0.0
H1316 H 0.08168 0.37466 0.50262 0.0
H1317 H 0.01894 0.39909 0.50047 0.0
C1318 C 0.84174 0.40614 0.49831 0.0
C1319 C 0.74701 0.40831 0.49699 0.0
C1320 C 0.87858 0.39217 0.49853 0.0
C1321 C 0.68968 0.39628 0.49524 0.0
C1322 C 0.7258 0.38232 0.49571 0.0
C1323 C 0.85654 0.3662 0.49912 0.0
C1324 C 0.95108 0.36401 0.50117 0.0
C1325 C 0.82001 0.38016 0.49766 0.0
C1326 C 0.00885 0.37603 0.50111 0.0
C1327 C 0.97291 0.38999 0.49996 0.0
H1328 H 0.70165 0.37452 0.27239 0.0
H1329 H 0.95659 0.35163 0.27448 0.0
H1330 H 0.03926 0.37431 0.27559 0.0
H1331 H 0.04038 0.40082 0.27468 0.0
H1332 H 0.78544 0.42366 0.27109 0.0
H1333 H 0.70271 0.40101 0.27191 0.0
C1334 C 0.7752 0.37451 0.27323 0.0
C1335 C 0.82249 0.36137 0.27325 0.0
C1336 C 0.82293 0.38765 0.27351 0.0
C1337 C 0.91808 0.36157 0.27423 0.0
C1338 C 0.96575 0.37456 0.27492 0.0
C1339 C 0.96679 0.40082 0.2742 0.0
C1340 C 0.91959 0.41395 0.27271 0.0
C1341 C 0.91904 0.38768 0.27435 0.0
C1342 C 0.82396 0.41374 0.27202 0.0
C1343 C 0.77623 0.40076 0.27255 0.0
H1344 H 0.55041 0.10578 0.52609 0.0
H1345 H 0.81657 0.12495 0.53218 0.0
H1346 H 0.7479 0.14894 0.53332 0.0
H1347 H 0.61313 0.16443 0.53133 0.0
H1348 H 0.3466 0.14535 0.526 0.0
H1349 H 0.41493 0.12128 0.52595 0.0
C1350 C 0.59364 0.11519 0.52769 0.0
C1351 C 0.68884 0.11354 0.52885 0.0
C1352 C 0.55363 0.12895 0.52846 0.0
C1353 C 0.74336 0.12588 0.53122 0.0
C1354 C 0.70407 0.1396 0.53183 0.0
C1355 C 0.56966 0.15502 0.53017 0.0
C1356 C 0.47462 0.15673 0.52846 0.0
C1357 C 0.6094 0.14126 0.53025 0.0
C1358 C 0.41972 0.14438 0.52731 0.0
C1359 C 0.45886 0.13062 0.52722 0.0
H1360 H 0.45988 0.12247 0.75827 0.0
H1361 H 0.71733 0.10038 0.75412 0.0
H1362 H 0.79722 0.12328 0.75269 0.0
H1363 H 0.79556 0.14975 0.75456 0.0
H1364 H 0.53847 0.17187 0.76009 0.0
H1365 H 0.45808 0.14901 0.75897 0.0
C1366 C 0.53333 0.12269 0.75683 0.0
C1367 C 0.5822 0.1097 0.75648 0.0
C1368 C 0.57957 0.13598 0.75641 0.0
C1369 C 0.67765 0.1102 0.7547 0.0
C1370 C 0.72375 0.12332 0.75384 0.0
C1371 C 0.72201 0.14956 0.75537 0.0
C1372 C 0.67359 0.16254 0.75757 0.0
C1373 C 0.67562 0.1363 0.75502 0.0
C1374 C 0.57799 0.16206 0.75862 0.0
C1375 C 0.53157 0.14896 0.75793 0.0
H1376 H 0.18321 0.90008 0.49987 0.0
H1377 H 0.43985 0.92244 0.49953 0.0
H1378 H 0.52104 0.89961 0.49991 0.0
H1379 H 0.52023 0.8731 0.50243 0.0
H1380 H 0.26333 0.8508 0.50447 0.0
H1381 H 0.18241 0.87357 0.50128 0.0
C1382 C 0.25681 0.89993 0.49963 0.0
C1383 C 0.30503 0.91296 0.49981 0.0
C1384 C 0.30366 0.88669 0.50033 0.0
C1385 C 0.40067 0.91257 0.49965 0.0
C1386 C 0.44748 0.89949 0.49983 0.0
C1387 C 0.44665 0.87324 0.502 0.0
C1388 C 0.39835 0.86024 0.50388 0.0
C1389 C 0.39983 0.88646 0.50053 0.0
C1390 C 0.3027 0.86064 0.50335 0.0
C1391 C 0.25597 0.87368 0.50145 0.0
H1392 H 0.33827 0.91633 0.27804 0.0
H1393 H 0.6091 0.89864 0.28078 0.0
H1394 H 0.54614 0.87424 0.28171 0.0
H1395 H 0.4145 0.85801 0.28005 0.0
H1396 H 0.14369 0.87576 0.27833 0.0
H1397 H 0.20662 0.90014 0.27882 0.0
C1398 C 0.38373 0.90715 0.27887 0.0
C1399 C 0.47845 0.90931 0.27908 0.0
C1400 C 0.34705 0.89319 0.27955 0.0
C1401 C 0.53609 0.89729 0.28056 0.0
C1402 C 0.50008 0.88334 0.28102 0.0
C1403 C 0.36906 0.8672 0.27983 0.0
C1404 C 0.27435 0.86505 0.27891 0.0
C1405 C 0.40572 0.88117 0.28025 0.0
C1406 C 0.21667 0.87709 0.27901 0.0
C1407 C 0.25267 0.89104 0.27921 0.0
H1408 H 0.45935 0.65061 0.02516 0.0
H1409 H 0.71729 0.67239 0.03097 0.0
H1410 H 0.79612 0.64939 0.0328 0.0
H1411 H 0.79353 0.62297 0.03082 0.0
H1412 H 0.53638 0.60108 0.02351 0.0
H1413 H 0.45659 0.62404 0.02427 0.0
C1414 C 0.53265 0.65029 0.02707 0.0
C1415 C 0.58205 0.66322 0.02778 0.0
C1416 C 0.5783 0.63695 0.02769 0.0
C1417 C 0.67729 0.66261 0.03012 0.0
C1418 C 0.72275 0.64945 0.03121 0.0
C1419 C 0.72007 0.62322 0.02955 0.0
C1420 C 0.67144 0.61029 0.02698 0.0
C1421 C 0.67418 0.63653 0.02967 0.0
C1422 C 0.576 0.61085 0.0253 0.0
C1423 C 0.52998 0.62401 0.02577 0.0
H1424 H 0.79441 0.65075 0.255 0.0
H1425 H 0.53808 0.67319 0.25156 0.0
H1426 H 0.45697 0.65038 0.25044 0.0
H1427 H 0.45743 0.62391 0.25232 0.0
H1428 H 0.71347 0.60146 0.25719 0.0
H1429 H 0.79499 0.62423 0.25578 0.0
C1430 C 0.72093 0.65063 0.25379 0.0
C1431 C 0.67273 0.66368 0.25351 0.0
C1432 C 0.67406 0.63741 0.25354 0.0
C1433 C 0.57723 0.66332 0.25205 0.0
C1434 C 0.53047 0.65026 0.25137 0.0
C1435 C 0.531 0.62401 0.2529 0.0
C1436 C 0.57886 0.61097 0.25501 0.0
C1437 C 0.57799 0.63721 0.25242 0.0
C1438 C 0.67446 0.61132 0.2558 0.0
C1439 C 0.72149 0.62436 0.25495 0.0
H1440 H 0.24144 0.40188 0.99986 0.0
H1441 H 0.48853 0.42544 1.01545 0.0
H1442 H 0.57578 0.40321 1.01395 0.0
H1443 H 0.58256 0.37678 1.00966 0.0
H1444 H 0.33484 0.35322 0.9952 0.0
H1445 H 0.2486 0.37556 0.99464 0.0
C1446 C 0.31433 0.40215 1.00285 0.0
C1447 C 0.35779 0.41535 1.00788 0.0
C1448 C 0.36469 0.38925 1.00217 0.0
C1449 C 0.45264 0.41545 1.0117 0.0
C1450 C 0.50304 0.40272 1.0108 0.0
C1451 C 0.50991 0.37657 1.00615 0.0
C1452 C 0.46555 0.36332 1.00261 0.0
C1453 C 0.45986 0.38952 1.00623 0.0
C1454 C 0.37101 0.36325 0.99822 0.0
C1455 C 0.32129 0.37604 0.99787 0.0
H1456 H 0.55163 0.39869 0.78208 0.0
H1457 H 0.30164 0.42289 0.78392 0.0
H1458 H 0.21403 0.40068 0.78357 0.0
H1459 H 0.20715 0.37424 0.78041 0.0
H1460 H 0.45721 0.35006 0.77703 0.0
H1461 H 0.54473 0.37219 0.78036 0.0
C1462 C 0.47809 0.39907 0.78269 0.0
C1463 C 0.4336 0.41245 0.78287 0.0
C1464 C 0.42747 0.38619 0.78201 0.0
C1465 C 0.33797 0.41274 0.78351 0.0
C1466 C 0.28748 0.40003 0.78334 0.0
C1467 C 0.2807 0.37382 0.78057 0.0
C1468 C 0.32507 0.36048 0.77827 0.0
C1469 C 0.33133 0.38667 0.78218 0.0
C1470 C 0.42076 0.36017 0.7785 0.0
C1471 C 0.47128 0.37284 0.78047 0.0
loop_
_geom_bond_atom_site_label_1
_geom_bond_atom_site_label_2
_geom_bond_distance
_geom_bond_site_symmetry_2
_ccdc_geom_bond_type
C0 O2 1.247 1_554 S
C0 O4 1.258 . S
C1 O8 1.248 . S
C1 O9 1.257 1_554 S
O2 C0 1.247 1_556 S
O2 Zn3 2.028 . S
Zn3 O2 2.028 . S
Zn3 O7 2.035 1_556 S
Zn3 O9 2.035 . S
Zn3 O10 2.028 . S
O4 C0 1.258 . S
O4 Zn5 2.035 . S
Zn5 O4 2.035 . S
Zn5 O6 2.028 . S
Zn5 O8 2.028 . S
Zn5 O11 2.035 1_554 S
O6 Zn5 2.028 . S
O6 C12 1.247 . S
O7 Zn3 2.035 1_554 S
O7 C12 1.258 . S
O8 C1 1.248 . S
O8 Zn5 2.028 . S
O9 C1 1.257 1_556 S
O9 Zn3 2.035 . S
O10 Zn3 2.028 . S
O10 C13 1.247 . S
O11 Zn5 2.035 1_556 S
O11 C13 1.258 . S
C12 O6 1.247 . S
C12 O7 1.258 . S
C13 O10 1.247 . S
C13 O11 1.258 . S
C14 O16 1.247 1_554 S
C14 O18 1.258 . S
C15 O22 1.248 1_455 S
C15 O23 1.257 1_554 S
O16 C14 1.247 1_556 S
O16 Zn17 2.028 1_655 S
Zn17 O16 2.028 1_455 S
Zn17 O21 2.035 1_556 S
Zn17 O23 2.035 . S
Zn17 O24 2.028 . S
O18 C14 1.258 . S
O18 Zn19 2.035 . S
Zn19 O18 2.035 . S
Zn19 O20 2.028 . S
Zn19 O22 2.028 . S
Zn19 O25 2.035 1_554 S
O20 Zn19 2.028 . S
O20 C26 1.247 1_655 S
O21 Zn17 2.035 1_554 S
O21 C26 1.258 . S
O22 C15 1.248 1_655 S
O22 Zn19 2.028 . S
O23 C15 1.257 1_556 S
O23 Zn17 2.035 . S
O24 Zn17 2.028 . S
O24 C27 1.247 1_455 S
O25 Zn19 2.035 1_556 S
O25 C27 1.258 . S
C26 O20 1.247 1_455 S
C26 O21 1.258 . S
C27 O24 1.247 1_655 S
C27 O25 1.258 . S
C28 O30 1.247 . S
C28 O32 1.258 . S
C29 O36 1.247 . S
C29 O37 1.258 . S
O30 C28 1.247 . S
O30 Zn31 2.028 . S
Zn31 O30 2.028 . S
Zn31 O35 2.035 . S
Zn31 O37 2.035 . S
Zn31 O38 2.028 . S
O32 C28 1.258 . S
O32 Zn33 2.035 . S
Zn33 O32 2.035 . S
Zn33 O34 2.028 . S
Zn33 O36 2.028 . S
Zn33 O39 2.035 . S
O34 Zn33 2.028 . S
O34 C40 1.247 . S
O35 Zn31 2.035 . S
O35 C40 1.258 . S
O36 C29 1.247 . S
O36 Zn33 2.028 . S
O37 C29 1.258 . S
O37 Zn31 2.035 . S
O38 Zn31 2.028 . S
O38 C41 1.247 . S
O39 Zn33 2.035 . S
O39 C41 1.258 . S
C40 O34 1.247 . S
C40 O35 1.258 . S
C41 O38 1.247 . S
C41 O39 1.258 . S
C42 O44 1.247 . S
C42 O46 1.258 1_455 S
C43 O50 1.247 . S
C43 O51 1.258 . S
O44 C42 1.247 . S
O44 Zn45 2.028 . S
Zn45 O44 2.028 . S
Zn45 O49 2.035 . S
Zn45 O51 2.035 1_455 S
Zn45 O52 2.028 . S
O46 C42 1.258 1_655 S
O46 Zn47 2.035 . S
Zn47 O46 2.035 . S
Zn47 O48 2.028 . S
Zn47 O50 2.028 . S
Zn47 O53 2.035 . S
O48 Zn47 2.028 . S
O48 C54 1.247 . S
O49 Zn45 2.035 . S
O49 C54 1.258 1_455 S
O50 C43 1.247 . S
O50 Zn47 2.028 . S
O51 C43 1.258 . S
O51 Zn45 2.035 1_655 S
O52 Zn45 2.028 . S
O52 C55 1.247 . S
O53 Zn47 2.035 . S
O53 C55 1.258 1_655 S
C54 O48 1.247 . S
C54 O49 1.258 1_655 S
C55 O52 1.247 . S
C55 O53 1.258 1_455 S
C56 O58 1.247 . S
C56 O60 1.258 . S
C57 O64 1.247 . S
C57 O65 1.258 . S
O58 C56 1.247 . S
O58 Zn59 2.028 . S
Zn59 O58 2.028 . S
Zn59 O63 2.035 . S
Zn59 O65 2.035 1_554 S
Zn59 O66 2.028 . S
O60 C56 1.258 . S
O60 Zn61 2.035 1_554 S
Zn61 O60 2.035 1_556 S
Zn61 O62 2.028 . S
Zn61 O64 2.028 . S
Zn61 O67 2.035 . S
O62 Zn61 2.028 . S
O62 C68 1.248 . S
O63 Zn59 2.035 . S
O63 C68 1.257 1_554 S
O64 C57 1.247 . S
O64 Zn61 2.028 . S
O65 C57 1.258 . S
O65 Zn59 2.035 1_556 S
O66 Zn59 2.028 . S
O66 C69 1.247 1_554 S
O67 Zn61 2.035 . S
O67 C69 1.258 . S
C68 O62 1.248 . S
C68 O63 1.257 1_556 S
C69 O66 1.247 1_556 S
C69 O67 1.258 . S
C70 O72 1.247 . S
C70 O74 1.258 1_655 S
C71 O78 1.247 . S
C71 O79 1.258 1_455 S
O72 C70 1.247 . S
O72 Zn73 2.028 1_556 S
Zn73 O72 2.028 1_554 S
Zn73 O77 2.035 1_655 S
Zn73 O79 2.035 . S
Zn73 O80 2.028 . S
O74 C70 1.258 1_455 S
O74 Zn75 2.035 . S
Zn75 O74 2.035 . S
Zn75 O76 2.028 . S
Zn75 O78 2.028 1_556 S
Zn75 O81 2.035 . S
O76 Zn75 2.028 . S
O76 C82 1.247 . S
O77 Zn73 2.035 1_455 S
O77 C82 1.258 1_554 S
O78 C71 1.247 . S
O78 Zn75 2.028 1_554 S
O79 C71 1.258 1_655 S
O79 Zn73 2.035 . S
O80 Zn73 2.028 . S
O80 C83 1.246 1_554 S
O81 Zn75 2.035 . S
O81 C83 1.259 1_455 S
C82 O76 1.247 . S
C82 O77 1.258 1_556 S
C83 O80 1.246 1_556 S
C83 O81 1.259 1_655 S
C84 O86 1.247 . S
C84 O88 1.258 . S
C85 O92 1.247 . S
C85 O93 1.258 . S
O86 C84 1.247 . S
O86 Zn87 2.028 . S
Zn87 O86 2.028 . S
Zn87 O91 2.035 . S
Zn87 O93 2.035 . S
Zn87 O94 2.028 . S
O88 C84 1.258 . S
O88 Zn89 2.035 . S
Zn89 O88 2.035 . S
Zn89 O90 2.028 . S
Zn89 O92 2.028 . S
Zn89 O95 2.035 . S
O90 Zn89 2.028 . S
O90 C96 1.247 . S
O91 Zn87 2.035 . S
O91 C96 1.258 . S
O92 C85 1.247 . S
O92 Zn89 2.028 . S
O93 C85 1.258 . S
O93 Zn87 2.035 . S
O94 Zn87 2.028 . S
O94 C97 1.247 . S
O95 Zn89 2.035 . S
O95 C97 1.258 . S
C96 O90 1.247 . S
C96 O91 1.258 . S
C97 O94 1.247 . S
C97 O95 1.258 . S
C98 O100 1.247 . S
C98 O102 1.258 . S
C99 O106 1.247 . S
C99 O107 1.258 1_655 S
O100 C98 1.247 . S
O100 Zn101 2.028 . S
Zn101 O100 2.028 . S
Zn101 O105 2.035 . S
Zn101 O107 2.035 . S
Zn101 O108 2.028 . S
O102 C98 1.258 . S
O102 Zn103 2.035 1_455 S
Zn103 O102 2.035 1_655 S
Zn103 O104 2.028 . S
Zn103 O106 2.028 . S
Zn103 O109 2.035 . S
O104 Zn103 2.028 . S
O104 C110 1.247 . S
O105 Zn101 2.035 . S
O105 C110 1.258 1_455 S
O106 C99 1.247 . S
O106 Zn103 2.028 . S
O107 C99 1.258 1_455 S
O107 Zn101 2.035 . S
O108 Zn101 2.028 . S
O108 C111 1.247 . S
O109 Zn103 2.035 . S
O109 C111 1.258 1_655 S
C110 O104 1.247 . S
C110 O105 1.258 1_655 S
C111 O108 1.247 . S
C111 O109 1.258 1_455 S
C112 O114 1.247 . S
C112 O116 1.258 . S
C113 O120 1.247 . S
C113 O121 1.258 . S
O114 C112 1.247 . S
O114 Zn115 2.028 . S
Zn115 O114 2.028 . S
Zn115 O119 2.035 . S
Zn115 O121 2.035 . S
Zn115 O122 2.028 . S
O116 C112 1.258 . S
O116 Zn117 2.035 . S
Zn117 O116 2.035 . S
Zn117 O118 2.028 . S
Zn117 O120 2.028 . S
Zn117 O123 2.035 . S
O118 Zn117 2.028 . S
O118 C124 1.247 . S
O119 Zn115 2.035 . S
O119 C124 1.258 . S
O120 C113 1.247 . S
O120 Zn117 2.028 . S
O121 C113 1.258 . S
O121 Zn115 2.035 . S
O122 Zn115 2.028 . S
O122 C125 1.247 . S
O123 Zn117 2.035 . S
O123 C125 1.258 . S
C124 O118 1.247 . S
C124 O119 1.258 . S
C125 O122 1.247 . S
C125 O123 1.258 . S
C126 O128 1.247 . S
C126 O130 1.258 1_455 S
C127 O134 1.247 . S
C127 O135 1.258 . S
O128 C126 1.247 . S
O128 Zn129 2.028 . S
Zn129 O128 2.028 . S
Zn129 O133 2.035 . S
Zn129 O135 2.035 1_455 S
Zn129 O136 2.028 . S
O130 C126 1.258 1_655 S
O130 Zn131 2.035 . S
Zn131 O130 2.035 . S
Zn131 O132 2.028 . S
Zn131 O134 2.028 . S
Zn131 O137 2.035 . S
O132 Zn131 2.028 . S
O132 C138 1.247 . S
O133 Zn129 2.035 . S
O133 C138 1.258 1_455 S
O134 C127 1.247 . S
O134 Zn131 2.028 . S
O135 C127 1.258 . S
O135 Zn129 2.035 1_655 S
O136 Zn129 2.028 . S
O136 C139 1.247 . S
O137 Zn131 2.035 . S
O137 C139 1.258 1_655 S
C138 O132 1.247 . S
C138 O133 1.258 1_655 S
C139 O136 1.247 . S
C139 O137 1.258 1_455 S
C140 O142 1.247 . S
C140 O144 1.258 . S
C141 O148 1.247 . S
C141 O149 1.258 . S
O142 C140 1.247 . S
O142 Zn143 2.028 . S
Zn143 O142 2.028 . S
Zn143 O147 2.035 . S
Zn143 O149 2.035 . S
Zn143 O150 2.028 . S
O144 C140 1.258 . S
O144 Zn145 2.035 . S
Zn145 O144 2.035 . S
Zn145 O146 2.028 . S
Zn145 O148 2.028 . S
Zn145 O151 2.035 . S
O146 Zn145 2.028 . S
O146 C152 1.247 . S
O147 Zn143 2.035 . S
O147 C152 1.258 . S
O148 C141 1.247 . S
O148 Zn145 2.028 . S
O149 C141 1.258 . S
O149 Zn143 2.035 . S
O150 Zn143 2.028 . S
O150 C153 1.247 . S
O151 Zn145 2.035 . S
O151 C153 1.258 . S
C152 O146 1.247 . S
C152 O147 1.258 . S
C153 O150 1.247 . S
C153 O151 1.258 . S
C154 O156 1.247 . S
C154 O158 1.258 1_455 S
C155 O162 1.247 . S
C155 O163 1.258 . S
O156 C154 1.247 . S
O156 Zn157 2.028 . S
Zn157 O156 2.028 . S
Zn157 O161 2.035 . S
Zn157 O163 2.035 1_455 S
Zn157 O164 2.028 . S
O158 C154 1.258 1_655 S
O158 Zn159 2.035 . S
Zn159 O158 2.035 . S
Zn159 O160 2.028 . S
Zn159 O162 2.028 . S
Zn159 O165 2.035 . S
O160 Zn159 2.028 . S
O160 C166 1.247 . S
O161 Zn157 2.035 . S
O161 C166 1.258 1_455 S
O162 C155 1.247 . S
O162 Zn159 2.028 . S
O163 C155 1.258 . S
O163 Zn157 2.035 1_655 S
O164 Zn157 2.028 . S
O164 C167 1.247 . S
O165 Zn159 2.035 . S
O165 C167 1.258 1_655 S
C166 O160 1.247 . S
C166 O161 1.258 1_655 S
C167 O164 1.247 . S
C167 O165 1.258 1_455 S
C168 O170 1.247 . S
C168 O172 1.258 . S
C169 O176 1.247 . S
C169 O177 1.258 . S
O170 C168 1.247 . S
O170 Zn171 2.028 . S
Zn171 O170 2.028 . S
Zn171 O175 2.035 . S
Zn171 O177 2.035 . S
Zn171 O178 2.028 . S
O172 C168 1.258 . S
O172 Zn173 2.035 . S
Zn173 O172 2.035 . S
Zn173 O174 2.028 . S
Zn173 O176 2.028 . S
Zn173 O179 2.035 . S
O174 Zn173 2.028 . S
O174 C180 1.247 . S
O175 Zn171 2.035 . S
O175 C180 1.258 . S
O176 C169 1.247 . S
O176 Zn173 2.028 . S
O177 C169 1.258 . S
O177 Zn171 2.035 . S
O178 Zn171 2.028 . S
O178 C181 1.247 . S
O179 Zn173 2.035 . S
O179 C181 1.258 . S
C180 O174 1.247 . S
C180 O175 1.258 . S
C181 O178 1.247 . S
C181 O179 1.258 . S
C182 O184 1.247 1_455 S
C182 O186 1.258 . S
C183 O190 1.247 1_655 S
C183 O191 1.258 . S
O184 C182 1.247 1_655 S
O184 Zn185 2.028 . S
Zn185 O184 2.028 . S
Zn185 O189 2.035 . S
Zn185 O191 2.035 . S
Zn185 O192 2.028 1_655 S
O186 C182 1.258 . S
O186 Zn187 2.035 . S
Zn187 O186 2.035 . S
Zn187 O188 2.028 . S
Zn187 O190 2.028 . S
Zn187 O193 2.035 . S
O188 Zn187 2.028 . S
O188 C194 1.247 1_455 S
O189 Zn185 2.035 . S
O189 C194 1.258 . S
O190 C183 1.247 1_455 S
O190 Zn187 2.028 . S
O191 C183 1.258 . S
O191 Zn185 2.035 . S
O192 Zn185 2.028 1_455 S
O192 C195 1.247 . S
O193 Zn187 2.035 . S
O193 C195 1.258 . S
C194 O188 1.247 1_655 S
C194 O189 1.258 . S
C195 O192 1.247 . S
C195 O193 1.258 . S
C196 O198 1.247 . S
C196 O200 1.258 . S
C197 O204 1.247 . S
C197 O205 1.258 . S
O198 C196 1.247 . S
O198 Zn199 2.028 . S
Zn199 O198 2.028 . S
Zn199 O203 2.035 . S
Zn199 O205 2.035 . S
Zn199 O206 2.028 . S
O200 C196 1.258 . S
O200 Zn201 2.035 . S
Zn201 O200 2.035 . S
Zn201 O202 2.028 . S
Zn201 O204 2.028 . S
Zn201 O207 2.035 . S
O202 Zn201 2.028 . S
O202 C208 1.247 . S
O203 Zn199 2.035 . S
O203 C208 1.258 . S
O204 C197 1.247 . S
O204 Zn201 2.028 . S
O205 C197 1.258 . S
O205 Zn199 2.035 . S
O206 Zn199 2.028 . S
O206 C209 1.247 . S
O207 Zn201 2.035 . S
O207 C209 1.258 . S
C208 O202 1.247 . S
C208 O203 1.258 . S
C209 O206 1.247 . S
C209 O207 1.258 . S
C210 O212 1.247 . S
C210 O214 1.258 1_655 S
C211 O218 1.247 . S
C211 O219 1.258 1_455 S
O212 C210 1.247 . S
O212 Zn213 2.028 . S
Zn213 O212 2.028 . S
Zn213 O217 2.035 1_655 S
Zn213 O219 2.035 . S
Zn213 O220 2.028 . S
O214 C210 1.258 1_455 S
O214 Zn215 2.035 . S
Zn215 O214 2.035 . S
Zn215 O216 2.028 . S
Zn215 O218 2.028 . S
Zn215 O221 2.035 . S
O216 Zn215 2.028 . S
O216 C222 1.247 . S
O217 Zn213 2.035 1_455 S
O217 C222 1.258 . S
O218 C211 1.247 . S
O218 Zn215 2.028 . S
O219 C211 1.258 1_655 S
O219 Zn213 2.035 . S
O220 Zn213 2.028 . S
O220 C223 1.247 . S
O221 Zn215 2.035 . S
O221 C223 1.258 1_455 S
C222 O216 1.247 . S
C222 O217 1.258 . S
C223 O220 1.247 . S
C223 O221 1.258 1_655 S
C224 O226 1.247 . S
C224 O228 1.258 . S
C225 O232 1.247 . S
C225 O233 1.258 . S
O226 C224 1.247 . S
O226 Zn227 2.028 . S
Zn227 O226 2.028 . S
Zn227 O231 2.035 . S
Zn227 O233 2.035 . S
Zn227 O234 2.028 . S
O228 C224 1.258 . S
O228 Zn229 2.035 . S
Zn229 O228 2.035 . S
Zn229 O230 2.028 . S
Zn229 O232 2.028 . S
Zn229 O235 2.035 . S
O230 Zn229 2.028 . S
O230 C236 1.247 . S
O231 Zn227 2.035 . S
O231 C236 1.258 . S
O232 C225 1.247 . S
O232 Zn229 2.028 . S
O233 C225 1.258 . S
O233 Zn227 2.035 . S
O234 Zn227 2.028 . S
O234 C237 1.247 . S
O235 Zn229 2.035 . S
O235 C237 1.258 . S
C236 O230 1.247 . S
C236 O231 1.258 . S
C237 O234 1.247 . S
C237 O235 1.258 . S
C238 O240 1.247 . S
C238 O242 1.258 . S
C239 O246 1.247 . S
C239 O247 1.258 . S
O240 C238 1.247 . S
O240 Zn241 2.028 . S
Zn241 O240 2.028 . S
Zn241 O245 2.035 . S
Zn241 O247 2.035 . S
Zn241 O248 2.028 . S
O242 C238 1.258 . S
O242 Zn243 2.035 . S
Zn243 O242 2.035 . S
Zn243 O244 2.028 . S
Zn243 O246 2.028 . S
Zn243 O249 2.035 . S
O244 Zn243 2.028 . S
O244 C250 1.247 . S
O245 Zn241 2.035 . S
O245 C250 1.258 . S
O246 C239 1.247 . S
O246 Zn243 2.028 . S
O247 C239 1.258 . S
O247 Zn241 2.035 . S
O248 Zn241 2.028 . S
O248 C251 1.247 . S
O249 Zn243 2.035 . S
O249 C251 1.258 . S
C250 O244 1.247 . S
C250 O245 1.258 . S
C251 O248 1.247 . S
C251 O249 1.258 . S
C252 O254 1.247 . S
C252 O256 1.258 . S
C253 O260 1.247 . S
C253 O261 1.258 . S
O254 C252 1.247 . S
O254 Zn255 2.028 . S
Zn255 O254 2.028 . S
Zn255 O259 2.035 . S
Zn255 O261 2.035 . S
Zn255 O262 2.028 . S
O256 C252 1.258 . S
O256 Zn257 2.035 . S
Zn257 O256 2.035 . S
Zn257 O258 2.028 . S
Zn257 O260 2.028 . S
Zn257 O263 2.035 . S
O258 Zn257 2.028 . S
O258 C264 1.247 . S
O259 Zn255 2.035 . S
O259 C264 1.258 . S
O260 C253 1.247 . S
O260 Zn257 2.028 . S
O261 C253 1.258 . S
O261 Zn255 2.035 . S
O262 Zn255 2.028 . S
O262 C265 1.247 . S
O263 Zn257 2.035 . S
O263 C265 1.258 . S
C264 O258 1.247 . S
C264 O259 1.258 . S
C265 O262 1.247 . S
C265 O263 1.258 . S
C266 O268 1.247 . S
C266 O270 1.258 . S
C267 O274 1.247 . S
C267 O275 1.258 . S
O268 C266 1.247 . S
O268 Zn269 2.028 . S
Zn269 O268 2.028 . S
Zn269 O273 2.035 . S
Zn269 O275 2.035 . S
Zn269 O276 2.028 . S
O270 C266 1.258 . S
O270 Zn271 2.035 . S
Zn271 O270 2.035 . S
Zn271 O272 2.028 . S
Zn271 O274 2.028 . S
Zn271 O277 2.035 . S
O272 Zn271 2.028 . S
O272 C278 1.247 . S
O273 Zn269 2.035 . S
O273 C278 1.258 . S
O274 C267 1.247 . S
O274 Zn271 2.028 . S
O275 C267 1.258 . S
O275 Zn269 2.035 . S
O276 Zn269 2.028 . S
O276 C279 1.247 . S
O277 Zn271 2.035 . S
O277 C279 1.258 . S
C278 O272 1.247 . S
C278 O273 1.258 . S
C279 O276 1.247 . S
C279 O277 1.258 . S
C280 O282 1.247 . S
C280 O284 1.258 . S
C281 O288 1.247 . S
C281 O289 1.258 . S
O282 C280 1.247 . S
O282 Zn283 2.028 . S
Zn283 O282 2.028 . S
Zn283 O287 2.035 . S
Zn283 O289 2.035 . S
Zn283 O290 2.028 . S
O284 C280 1.258 . S
O284 Zn285 2.035 . S
Zn285 O284 2.035 . S
Zn285 O286 2.028 . S
Zn285 O288 2.028 . S
Zn285 O291 2.035 . S
O286 Zn285 2.028 . S
O286 C292 1.247 . S
O287 Zn283 2.035 . S
O287 C292 1.258 . S
O288 C281 1.247 . S
O288 Zn285 2.028 . S
O289 C281 1.258 . S
O289 Zn283 2.035 . S
O290 Zn283 2.028 . S
O290 C293 1.247 . S
O291 Zn285 2.035 . S
O291 C293 1.258 . S
C292 O286 1.247 . S
C292 O287 1.258 . S
C293 O290 1.247 . S
C293 O291 1.258 . S
C294 O296 1.247 . S
C294 O298 1.258 . S
C295 O302 1.247 . S
C295 O303 1.258 . S
O296 C294 1.247 . S
O296 Zn297 2.028 . S
Zn297 O296 2.028 . S
Zn297 O301 2.035 . S
Zn297 O303 2.035 . S
Zn297 O304 2.028 . S
O298 C294 1.258 . S
O298 Zn299 2.035 . S
Zn299 O298 2.035 . S
Zn299 O300 2.028 . S
Zn299 O302 2.028 . S
Zn299 O305 2.035 . S
O300 Zn299 2.028 . S
O300 C306 1.247 . S
O301 Zn297 2.035 . S
O301 C306 1.258 . S
O302 C295 1.247 . S
O302 Zn299 2.028 . S
O303 C295 1.258 . S
O303 Zn297 2.035 . S
O304 Zn297 2.028 . S
O304 C307 1.247 . S
O305 Zn299 2.035 . S
O305 C307 1.258 . S
C306 O300 1.247 . S
C306 O301 1.258 . S
C307 O304 1.247 . S
C307 O305 1.258 . S
C308 O310 1.247 . S
C308 O312 1.258 . S
C309 O316 1.247 . S
C309 O317 1.258 . S
O310 C308 1.247 . S
O310 Zn311 2.028 . S
Zn311 O310 2.028 . S
Zn311 O315 2.035 . S
Zn311 O317 2.035 . S
Zn311 O318 2.028 . S
O312 C308 1.258 . S
O312 Zn313 2.035 . S
Zn313 O312 2.035 . S
Zn313 O314 2.028 . S
Zn313 O316 2.028 . S
Zn313 O319 2.035 . S
O314 Zn313 2.028 . S
O314 C320 1.247 . S
O315 Zn311 2.035 . S
O315 C320 1.258 . S
O316 C309 1.247 . S
O316 Zn313 2.028 . S
O317 C309 1.258 . S
O317 Zn311 2.035 . S
O318 Zn311 2.028 . S
O318 C321 1.247 . S
O319 Zn313 2.035 . S
O319 C321 1.258 . S
C320 O314 1.247 . S
C320 O315 1.258 . S
C321 O318 1.247 . S
C321 O319 1.258 . S
C322 O324 1.247 . S
C322 O326 1.258 . S
C323 O330 1.247 . S
C323 O331 1.258 . S
O324 C322 1.247 . S
O324 Zn325 2.028 . S
Zn325 O324 2.028 . S
Zn325 O329 2.035 . S
Zn325 O331 2.035 . S
Zn325 O332 2.028 . S
O326 C322 1.258 . S
O326 Zn327 2.035 . S
Zn327 O326 2.035 . S
Zn327 O328 2.028 . S
Zn327 O330 2.028 . S
Zn327 O333 2.035 . S
O328 Zn327 2.028 . S
O328 C334 1.247 . S
O329 Zn325 2.035 . S
O329 C334 1.258 . S
O330 C323 1.247 . S
O330 Zn327 2.028 . S
O331 C323 1.258 . S
O331 Zn325 2.035 . S
O332 Zn325 2.028 . S
O332 C335 1.247 . S
O333 Zn327 2.035 . S
O333 C335 1.258 . S
C334 O328 1.247 . S
C334 O329 1.258 . S
C335 O332 1.247 . S
C335 O333 1.258 . S
C336 O338 1.247 . S
C336 O340 1.258 . S
C337 O344 1.247 . S
C337 O345 1.258 . S
O338 C336 1.247 . S
O338 Zn339 2.028 1_556 S
Zn339 O338 2.028 1_554 S
Zn339 O343 2.035 . S
Zn339 O345 2.035 . S
Zn339 O346 2.028 . S
O340 C336 1.258 . S
O340 Zn341 2.035 . S
Zn341 O340 2.035 . S
Zn341 O342 2.028 . S
Zn341 O344 2.028 1_556 S
Zn341 O347 2.035 . S
O342 Zn341 2.028 . S
O342 C348 1.246 1_556 S
O343 Zn339 2.035 . S
O343 C348 1.258 . S
O344 C337 1.247 . S
O344 Zn341 2.028 1_554 S
O345 C337 1.258 . S
O345 Zn339 2.035 . S
O346 Zn339 2.028 . S
O346 C349 1.247 . S
O347 Zn341 2.035 . S
O347 C349 1.258 1_556 S
C348 O342 1.246 1_554 S
C348 O343 1.258 . S
C349 O346 1.247 . S
C349 O347 1.258 1_554 S
C350 O352 1.247 1_554 S
C350 O354 1.258 . S
C351 O358 1.247 . S
C351 O359 1.257 1_554 S
O352 C350 1.247 1_556 S
O352 Zn353 2.028 . S
Zn353 O352 2.028 . S
Zn353 O357 2.035 1_556 S
Zn353 O359 2.035 . S
Zn353 O360 2.028 . S
O354 C350 1.258 . S
O354 Zn355 2.035 . S
Zn355 O354 2.035 . S
Zn355 O356 2.028 . S
Zn355 O358 2.028 . S
Zn355 O361 2.035 1_554 S
O356 Zn355 2.028 . S
O356 C362 1.247 . S
O357 Zn353 2.035 1_554 S
O357 C362 1.258 . S
O358 C351 1.247 . S
O358 Zn355 2.028 . S
O359 C351 1.257 1_556 S
O359 Zn353 2.035 . S
O360 Zn353 2.028 . S
O360 C363 1.247 . S
O361 Zn355 2.035 1_556 S
O361 C363 1.258 . S
C362 O356 1.247 . S
C362 O357 1.258 . S
C363 O360 1.247 . S
C363 O361 1.258 . S
C364 O366 1.247 . S
C364 O368 1.258 . S
C365 O372 1.247 . S
C365 O373 1.258 . S
O366 C364 1.247 . S
O366 Zn367 2.028 . S
Zn367 O366 2.028 . S
Zn367 O371 2.035 . S
Zn367 O373 2.035 . S
Zn367 O374 2.028 . S
O368 C364 1.258 . S
O368 Zn369 2.035 . S
Zn369 O368 2.035 . S
Zn369 O370 2.028 . S
Zn369 O372 2.028 . S
Zn369 O375 2.035 . S
O370 Zn369 2.028 . S
O370 C376 1.247 . S
O371 Zn367 2.035 . S
O371 C376 1.258 . S
O372 C365 1.247 . S
O372 Zn369 2.028 . S
O373 C365 1.258 . S
O373 Zn367 2.035 . S
O374 Zn367 2.028 . S
O374 C377 1.247 . S
O375 Zn369 2.035 . S
O375 C377 1.258 . S
C376 O370 1.247 . S
C376 O371 1.258 . S
C377 O374 1.247 . S
C377 O375 1.258 . S
C378 O380 1.247 . S
C378 O382 1.258 . S
C379 O386 1.247 . S
C379 O387 1.258 . S
O380 C378 1.247 . S
O380 Zn381 2.028 . S
Zn381 O380 2.028 . S
Zn381 O385 2.035 . S
Zn381 O387 2.035 . S
Zn381 O388 2.028 . S
O382 C378 1.258 . S
O382 Zn383 2.035 . S
Zn383 O382 2.035 . S
Zn383 O384 2.028 . S
Zn383 O386 2.028 . S
Zn383 O389 2.035 . S
O384 Zn383 2.028 . S
O384 C390 1.247 . S
O385 Zn381 2.035 . S
O385 C390 1.258 . S
O386 C379 1.247 . S
O386 Zn383 2.028 . S
O387 C379 1.258 . S
O387 Zn381 2.035 . S
O388 Zn381 2.028 . S
O388 C391 1.247 . S
O389 Zn383 2.035 . S
O389 C391 1.258 . S
C390 O384 1.247 . S
C390 O385 1.258 . S
C391 O388 1.247 . S
C391 O389 1.258 . S
C392 O394 1.247 . S
C392 O396 1.258 . S
C393 O400 1.247 . S
C393 O401 1.258 . S
O394 C392 1.247 . S
O394 Zn395 2.028 . S
Zn395 O394 2.028 . S
Zn395 O399 2.035 . S
Zn395 O401 2.035 1_554 S
Zn395 O402 2.028 . S
O396 C392 1.258 . S
O396 Zn397 2.035 1_554 S
Zn397 O396 2.035 1_556 S
Zn397 O398 2.028 . S
Zn397 O400 2.028 . S
Zn397 O403 2.035 . S
O398 Zn397 2.028 . S
O398 C404 1.247 . S
O399 Zn395 2.035 . S
O399 C404 1.257 1_554 S
O400 C393 1.247 . S
O400 Zn397 2.028 . S
O401 C393 1.258 . S
O401 Zn395 2.035 1_556 S
O402 Zn395 2.028 . S
O402 C405 1.247 1_554 S
O403 Zn397 2.035 . S
O403 C405 1.258 . S
C404 O398 1.247 . S
C404 O399 1.257 1_556 S
C405 O402 1.247 1_556 S
C405 O403 1.258 . S
C406 O408 1.247 . S
C406 O410 1.258 . S
C407 O414 1.247 . S
C407 O415 1.258 . S
O408 C406 1.247 . S
O408 Zn409 2.028 . S
Zn409 O408 2.028 . S
Zn409 O413 2.035 . S
Zn409 O415 2.035 1_554 S
Zn409 O416 2.028 . S
O410 C406 1.258 . S
O410 Zn411 2.035 1_554 S
Zn411 O410 2.035 1_556 S
Zn411 O412 2.028 . S
Zn411 O414 2.028 . S
Zn411 O417 2.035 . S
O412 Zn411 2.028 . S
O412 C418 1.247 . S
O413 Zn409 2.035 . S
O413 C418 1.257 1_554 S
O414 C407 1.247 . S
O414 Zn411 2.028 . S
O415 C407 1.258 . S
O415 Zn409 2.035 1_556 S
O416 Zn409 2.028 . S
O416 C419 1.247 1_554 S
O417 Zn411 2.035 . S
O417 C419 1.258 . S
C418 O412 1.247 . S
C418 O413 1.257 1_556 S
C419 O416 1.247 1_556 S
C419 O417 1.258 . S
C420 O422 1.247 . S
C420 O424 1.258 . S
C421 O428 1.247 . S
C421 O429 1.258 . S
O422 C420 1.247 . S
O422 Zn423 2.028 . S
Zn423 O422 2.028 . S
Zn423 O427 2.035 . S
Zn423 O429 2.035 . S
Zn423 O430 2.028 . S
O424 C420 1.258 . S
O424 Zn425 2.035 . S
Zn425 O424 2.035 . S
Zn425 O426 2.028 . S
Zn425 O428 2.028 . S
Zn425 O431 2.035 . S
O426 Zn425 2.028 . S
O426 C432 1.247 . S
O427 Zn423 2.035 . S
O427 C432 1.258 . S
O428 C421 1.247 . S
O428 Zn425 2.028 . S
O429 C421 1.258 . S
O429 Zn423 2.035 . S
O430 Zn423 2.028 . S
O430 C433 1.247 . S
O431 Zn425 2.035 . S
O431 C433 1.258 . S
C432 O426 1.247 . S
C432 O427 1.258 . S
C433 O430 1.247 . S
C433 O431 1.258 . S
C434 O436 1.247 . S
C434 O438 1.258 . S
C435 O442 1.247 . S
C435 O443 1.258 . S
O436 C434 1.247 . S
O436 Zn437 2.028 . S
Zn437 O436 2.028 . S
Zn437 O441 2.035 . S
Zn437 O443 2.035 . S
Zn437 O444 2.028 . S
O438 C434 1.258 . S
O438 Zn439 2.035 . S
Zn439 O438 2.035 . S
Zn439 O440 2.028 . S
Zn439 O442 2.028 . S
Zn439 O445 2.035 . S
O440 Zn439 2.028 . S
O440 C446 1.247 . S
O441 Zn437 2.035 . S
O441 C446 1.258 . S
O442 C435 1.247 . S
O442 Zn439 2.028 . S
O443 C435 1.258 . S
O443 Zn437 2.035 . S
O444 Zn437 2.028 . S
O444 C447 1.247 . S
O445 Zn439 2.035 . S
O445 C447 1.258 . S
C446 O440 1.247 . S
C446 O441 1.258 . S
C447 O444 1.247 . S
C447 O445 1.258 . S
H448 C454 0.930 . S
H449 C457 0.930 . S
H450 C458 0.930 . S
H451 C459 0.930 . S
H452 C462 0.930 . S
H453 C463 0.930 . S
C454 H448 0.930 . S
C454 C455 1.355 . S
C454 C456 1.415 . S
C455 C454 1.355 . S
C455 C457 1.419 . S
C456 C454 1.415 . S
C456 C461 1.425 . S
C456 C463 1.409 . S
C457 H449 0.930 . S
C457 C455 1.419 . S
C457 C458 1.362 . S
C458 H450 0.930 . S
C458 C457 1.362 . S
C458 C461 1.409 . S
C459 H451 0.930 . S
C459 C460 1.355 . S
C459 C461 1.415 . S
C460 C459 1.355 . S
C460 C462 1.419 . S
C461 C456 1.425 . S
C461 C458 1.409 . S
C461 C459 1.415 . S
C462 H452 0.930 . S
C462 C460 1.419 . S
C462 C463 1.362 . S
C463 H453 0.930 . S
C463 C456 1.409 . S
C463 C462 1.362 . S
H464 C470 0.930 . S
H465 C473 0.930 . S
H466 C474 0.930 . S
H467 C475 0.930 . S
H468 C478 0.930 . S
H469 C479 0.930 . S
C470 H464 0.930 . S
C470 C471 1.355 . S
C470 C472 1.415 . S
C471 C470 1.355 . S
C471 C473 1.419 . S
C472 C470 1.415 . S
C472 C477 1.425 . S
C472 C479 1.409 . S
C473 H465 0.930 . S
C473 C471 1.419 . S
C473 C474 1.362 . S
C474 H466 0.930 . S
C474 C473 1.362 . S
C474 C477 1.409 . S
C475 H467 0.930 . S
C475 C476 1.355 . S
C475 C477 1.415 . S
C476 C475 1.355 . S
C476 C478 1.419 . S
C477 C472 1.425 . S
C477 C474 1.409 . S
C477 C475 1.415 . S
C478 H468 0.930 . S
C478 C476 1.419 . S
C478 C479 1.362 . S
C479 H469 0.930 . S
C479 C472 1.409 . S
C479 C478 1.362 . S
H480 C486 0.930 1_455 S
H481 C489 0.930 . S
H482 C490 0.930 . S
H483 C491 0.930 . S
H484 C494 0.930 . S
H485 C495 0.930 1_455 S
C486 H480 0.930 1_655 S
C486 C487 1.355 . S
C486 C488 1.415 . S
C487 C486 1.355 . S
C487 C489 1.419 . S
C488 C486 1.415 . S
C488 C493 1.425 . S
C488 C495 1.409 . S
C489 H481 0.930 . S
C489 C487 1.419 . S
C489 C490 1.362 . S
C490 H482 0.930 . S
C490 C489 1.362 . S
C490 C493 1.409 . S
C491 H483 0.930 . S
C491 C492 1.355 . S
C491 C493 1.415 . S
C492 C491 1.355 . S
C492 C494 1.419 . S
C493 C488 1.425 . S
C493 C490 1.409 . S
C493 C491 1.415 . S
C494 H484 0.930 . S
C494 C492 1.419 . S
C494 C495 1.362 . S
C495 H485 0.930 1_655 S
C495 C488 1.409 . S
C495 C494 1.362 . S
H496 C502 0.930 . S
H497 C505 0.930 . S
H498 C506 0.930 . S
H499 C507 0.930 . S
H500 C510 0.930 1_455 S
H501 C511 0.930 1_455 S
C502 H496 0.930 . S
C502 C503 1.355 . S
C502 C504 1.415 . S
C503 C502 1.355 . S
C503 C505 1.419 . S
C504 C502 1.415 . S
C504 C509 1.425 . S
C504 C511 1.409 . S
C505 H497 0.930 . S
C505 C503 1.419 . S
C505 C506 1.362 . S
C506 H498 0.930 . S
C506 C505 1.362 . S
C506 C509 1.409 . S
C507 H499 0.930 . S
C507 C508 1.355 . S
C507 C509 1.415 . S
C508 C507 1.355 . S
C508 C510 1.419 . S
C509 C504 1.425 . S
C509 C506 1.409 . S
C509 C507 1.415 . S
C510 H500 0.930 1_655 S
C510 C508 1.419 . S
C510 C511 1.362 . S
C511 H501 0.930 1_655 S
C511 C504 1.409 . S
C511 C510 1.362 . S
H512 C518 0.930 . S
H513 C521 0.930 . S
H514 C522 0.930 1_655 S
H515 C523 0.930 1_655 S
H516 C526 0.930 . S
H517 C527 0.930 . S
C518 H512 0.930 . S
C518 C519 1.355 . S
C518 C520 1.415 . S
C519 C518 1.355 . S
C519 C521 1.419 . S
C520 C518 1.415 . S
C520 C525 1.425 . S
C520 C527 1.409 . S
C521 H513 0.930 . S
C521 C519 1.419 . S
C521 C522 1.362 . S
C522 H514 0.930 1_455 S
C522 C521 1.362 . S
C522 C525 1.409 . S
C523 H515 0.930 1_455 S
C523 C524 1.355 . S
C523 C525 1.415 . S
C524 C523 1.355 . S
C524 C526 1.419 . S
C525 C520 1.425 . S
C525 C522 1.409 . S
C525 C523 1.415 . S
C526 H516 0.930 . S
C526 C524 1.419 . S
C526 C527 1.362 . S
C527 H517 0.930 . S
C527 C520 1.409 . S
C527 C526 1.362 . S
H528 C534 0.930 . S
H529 C537 0.930 . S
H530 C538 0.934 . S
H531 C539 0.930 . S
H532 C542 0.930 . S
H533 C543 0.930 . S
C534 H528 0.930 . S
C534 C535 1.355 . S
C534 C536 1.415 . S
C535 C534 1.355 . S
C535 C537 1.419 1_455 S
C536 C534 1.415 . S
C536 C541 1.425 . S
C536 C543 1.409 . S
C537 H529 0.930 . S
C537 C535 1.419 1_655 S
C537 C538 1.363 . S
C538 H530 0.934 . S
C538 C537 1.363 . S
C538 C541 1.405 1_655 S
C539 H531 0.930 . S
C539 C540 1.355 . S
C539 C541 1.415 . S
C540 C539 1.355 . S
C540 C542 1.419 . S
C541 C536 1.425 . S
C541 C538 1.405 1_455 S
C541 C539 1.415 . S
C542 H532 0.930 . S
C542 C540 1.419 . S
C542 C543 1.362 . S
C543 H533 0.930 . S
C543 C536 1.409 . S
C543 C542 1.362 . S
H544 C550 0.930 . S
H545 C553 0.930 . S
H546 C554 0.930 . S
H547 C555 0.930 . S
H548 C558 0.930 . S
H549 C559 0.930 . S
C550 H544 0.930 . S
C550 C551 1.355 . S
C550 C552 1.415 . S
C551 C550 1.355 . S
C551 C553 1.419 . S
C552 C550 1.415 . S
C552 C557 1.425 . S
C552 C559 1.409 . S
C553 H545 0.930 . S
C553 C551 1.419 . S
C553 C554 1.362 . S
C554 H546 0.930 . S
C554 C553 1.362 . S
C554 C557 1.409 . S
C555 H547 0.930 . S
C555 C556 1.355 . S
C555 C557 1.415 . S
C556 C555 1.355 . S
C556 C558 1.419 . S
C557 C552 1.425 . S
C557 C554 1.409 . S
C557 C555 1.415 . S
C558 H548 0.930 . S
C558 C556 1.419 . S
C558 C559 1.362 . S
C559 H549 0.930 . S
C559 C552 1.409 . S
C559 C558 1.362 . S
H560 C566 0.930 . S
H561 C569 0.930 . S
H562 C570 0.930 . S
H563 C571 0.930 . S
H564 C574 0.930 . S
H565 C575 0.930 . S
C566 H560 0.930 . S
C566 C567 1.355 . S
C566 C568 1.415 . S
C567 C566 1.355 . S
C567 C569 1.419 . S
C568 C566 1.415 . S
C568 C573 1.425 . S
C568 C575 1.409 . S
C569 H561 0.930 . S
C569 C567 1.419 . S
C569 C570 1.362 . S
C570 H562 0.930 . S
C570 C569 1.362 . S
C570 C573 1.409 . S
C571 H563 0.930 . S
C571 C572 1.355 . S
C571 C573 1.415 . S
C572 C571 1.355 . S
C572 C574 1.419 . S
C573 C568 1.425 . S
C573 C570 1.409 . S
C573 C571 1.415 . S
C574 H564 0.930 . S
C574 C572 1.419 . S
C574 C575 1.362 . S
C575 H565 0.930 . S
C575 C568 1.409 . S
C575 C574 1.362 . S
H576 C582 0.930 . S
H577 C585 0.930 . S
H578 C586 0.930 . S
H579 C587 0.930 . S
H580 C590 0.930 . S
H581 C591 0.930 . S
C582 H576 0.930 . S
C582 C583 1.355 . S
C582 C584 1.415 . S
C583 C582 1.355 . S
C583 C585 1.419 . S
C584 C582 1.415 . S
C584 C589 1.425 . S
C584 C591 1.409 . S
C585 H577 0.930 . S
C585 C583 1.419 . S
C585 C586 1.362 . S
C586 H578 0.930 . S
C586 C585 1.362 . S
C586 C589 1.409 . S
C587 H579 0.930 . S
C587 C588 1.355 . S
C587 C589 1.415 . S
C588 C587 1.355 . S
C588 C590 1.419 . S
C589 C584 1.425 . S
C589 C586 1.409 . S
C589 C587 1.415 . S
C590 H580 0.930 . S
C590 C588 1.419 . S
C590 C591 1.362 . S
C591 H581 0.930 . S
C591 C584 1.409 . S
C591 C590 1.362 . S
H592 C598 0.930 . S
H593 C601 0.930 . S
H594 C602 0.930 . S
H595 C603 0.930 . S
H596 C606 0.930 . S
H597 C607 0.930 . S
C598 H592 0.930 . S
C598 C599 1.355 . S
C598 C600 1.415 . S
C599 C598 1.355 . S
C599 C601 1.419 . S
C600 C598 1.415 . S
C600 C605 1.425 . S
C600 C607 1.409 . S
C601 H593 0.930 . S
C601 C599 1.419 . S
C601 C602 1.362 . S
C602 H594 0.930 . S
C602 C601 1.362 . S
C602 C605 1.409 . S
C603 H595 0.930 . S
C603 C604 1.355 . S
C603 C605 1.415 . S
C604 C603 1.355 . S
C604 C606 1.419 . S
C605 C600 1.425 . S
C605 C602 1.409 . S
C605 C603 1.415 . S
C606 H596 0.930 . S
C606 C604 1.419 . S
C606 C607 1.362 . S
C607 H597 0.930 . S
C607 C600 1.409 . S
C607 C606 1.362 . S
H608 C614 0.930 . S
H609 C617 0.930 . S
H610 C618 0.930 . S
H611 C619 0.930 . S
H612 C622 0.930 . S
H613 C623 0.930 . S
C614 H608 0.930 . S
C614 C615 1.355 . S
C614 C616 1.415 . S
C615 C614 1.355 . S
C615 C617 1.419 . S
C616 C614 1.415 . S
C616 C621 1.425 . S
C616 C623 1.409 . S
C617 H609 0.930 . S
C617 C615 1.419 . S
C617 C618 1.362 . S
C618 H610 0.930 . S
C618 C617 1.362 . S
C618 C621 1.409 . S
C619 H611 0.930 . S
C619 C620 1.355 . S
C619 C621 1.415 . S
C620 C619 1.355 . S
C620 C622 1.419 . S
C621 C616 1.425 . S
C621 C618 1.409 . S
C621 C619 1.415 . S
C622 H612 0.930 . S
C622 C620 1.419 . S
C622 C623 1.362 . S
C623 H613 0.930 . S
C623 C616 1.409 . S
C623 C622 1.362 . S
H624 C630 0.930 . S
H625 C633 0.930 . S
H626 C634 0.930 . S
H627 C635 0.930 . S
H628 C638 0.930 . S
H629 C639 0.930 . S
C630 H624 0.930 . S
C630 C631 1.355 . S
C630 C632 1.415 . S
C631 C630 1.355 . S
C631 C633 1.419 . S
C632 C630 1.415 . S
C632 C637 1.425 . S
C632 C639 1.409 . S
C633 H625 0.930 . S
C633 C631 1.419 . S
C633 C634 1.362 . S
C634 H626 0.930 . S
C634 C633 1.362 . S
C634 C637 1.409 . S
C635 H627 0.930 . S
C635 C636 1.355 . S
C635 C637 1.415 . S
C636 C635 1.355 . S
C636 C638 1.419 . S
C637 C632 1.425 . S
C637 C634 1.409 . S
C637 C635 1.415 . S
C638 H628 0.930 . S
C638 C636 1.419 . S
C638 C639 1.362 . S
C639 H629 0.930 . S
C639 C632 1.409 . S
C639 C638 1.362 . S
H640 C646 0.930 . S
H641 C649 0.930 . S
H642 C650 0.930 . S
H643 C651 0.930 . S
H644 C654 0.930 . S
H645 C655 0.930 . S
C646 H640 0.930 . S
C646 C647 1.355 . S
C646 C648 1.415 . S
C647 C646 1.355 . S
C647 C649 1.419 . S
C648 C646 1.415 . S
C648 C653 1.425 . S
C648 C655 1.409 . S
C649 H641 0.930 . S
C649 C647 1.419 . S
C649 C650 1.362 . S
C650 H642 0.930 . S
C650 C649 1.362 . S
C650 C653 1.409 . S
C651 H643 0.930 . S
C651 C652 1.355 . S
C651 C653 1.415 . S
C652 C651 1.355 . S
C652 C654 1.419 . S
C653 C648 1.425 . S
C653 C650 1.409 . S
C653 C651 1.415 . S
C654 H644 0.930 . S
C654 C652 1.419 . S
C654 C655 1.362 . S
C655 H645 0.930 . S
C655 C648 1.409 . S
C655 C654 1.362 . S
H656 C662 0.930 . S
H657 C665 0.930 . S
H658 C666 0.930 . S
H659 C667 0.930 . S
H660 C670 0.930 . S
H661 C671 0.930 . S
C662 H656 0.930 . S
C662 C663 1.355 . S
C662 C664 1.415 . S
C663 C662 1.355 . S
C663 C665 1.419 . S
C664 C662 1.415 . S
C664 C669 1.425 . S
C664 C671 1.409 . S
C665 H657 0.930 . S
C665 C663 1.419 . S
C665 C666 1.362 . S
C666 H658 0.930 . S
C666 C665 1.362 . S
C666 C669 1.409 . S
C667 H659 0.930 . S
C667 C668 1.355 . S
C667 C669 1.415 . S
C668 C667 1.355 . S
C668 C670 1.419 . S
C669 C664 1.425 . S
C669 C666 1.409 . S
C669 C667 1.415 . S
C670 H660 0.930 . S
C670 C668 1.419 . S
C670 C671 1.362 . S
C671 H661 0.930 . S
C671 C664 1.409 . S
C671 C670 1.362 . S
H672 C678 0.930 . S
H673 C681 0.930 . S
H674 C682 0.930 . S
H675 C683 0.930 . S
H676 C686 0.930 . S
H677 C687 0.930 . S
C678 H672 0.930 . S
C678 C679 1.355 . S
C678 C680 1.415 . S
C679 C678 1.355 . S
C679 C681 1.419 . S
C680 C678 1.415 . S
C680 C685 1.425 . S
C680 C687 1.409 . S
C681 H673 0.930 . S
C681 C679 1.419 . S
C681 C682 1.362 . S
C682 H674 0.930 . S
C682 C681 1.362 . S
C682 C685 1.409 . S
C683 H675 0.930 . S
C683 C684 1.355 . S
C683 C685 1.415 . S
C684 C683 1.355 . S
C684 C686 1.419 . S
C685 C680 1.425 . S
C685 C682 1.409 . S
C685 C683 1.415 . S
C686 H676 0.930 . S
C686 C684 1.419 . S
C686 C687 1.362 . S
C687 H677 0.930 . S
C687 C680 1.409 . S
C687 C686 1.362 . S
H688 C694 0.930 . S
H689 C697 0.930 . S
H690 C698 0.930 . S
H691 C699 0.930 . S
H692 C702 0.930 . S
H693 C703 0.930 . S
C694 H688 0.930 . S
C694 C695 1.355 . S
C694 C696 1.415 . S
C695 C694 1.355 . S
C695 C697 1.419 . S
C696 C694 1.415 . S
C696 C701 1.425 . S
C696 C703 1.409 . S
C697 H689 0.930 . S
C697 C695 1.419 . S
C697 C698 1.362 . S
C698 H690 0.930 . S
C698 C697 1.362 . S
C698 C701 1.409 . S
C699 H691 0.930 . S
C699 C700 1.355 . S
C699 C701 1.415 . S
C700 C699 1.355 . S
C700 C702 1.419 . S
C701 C696 1.425 . S
C701 C698 1.409 . S
C701 C699 1.415 . S
C702 H692 0.930 . S
C702 C700 1.419 . S
C702 C703 1.362 . S
C703 H693 0.930 . S
C703 C696 1.409 . S
C703 C702 1.362 . S
H704 C710 0.932 . S
H705 C713 0.930 . S
H706 C714 0.930 . S
H707 C715 0.932 . S
H708 C718 0.930 . S
H709 C719 0.930 . S
C710 H704 0.932 . S
C710 C711 1.352 1_554 S
C710 C712 1.415 . S
C711 C710 1.352 1_556 S
C711 C713 1.422 . S
C712 C710 1.415 . S
C712 C717 1.425 1_544 S
C712 C719 1.409 . S
C713 H705 0.930 . S
C713 C711 1.422 . S
C713 C714 1.362 1_545 S
C714 H706 0.930 . S
C714 C713 1.362 1_565 S
C714 C717 1.409 . S
C715 H707 0.932 . S
C715 C716 1.352 1_556 S
C715 C717 1.415 . S
C716 C715 1.352 1_554 S
C716 C718 1.422 . S
C717 C712 1.425 1_566 S
C717 C714 1.409 . S
C717 C715 1.415 . S
C718 H708 0.930 . S
C718 C716 1.422 . S
C718 C719 1.362 1_565 S
C719 H709 0.930 . S
C719 C712 1.409 . S
C719 C718 1.362 1_545 S
H720 C726 0.930 . S
H721 C729 0.930 . S
H722 C730 0.930 . S
H723 C731 0.930 . S
H724 C734 0.930 . S
H725 C735 0.930 . S
C726 H720 0.930 . S
C726 C727 1.355 1_554 S
C726 C728 1.415 . S
C727 C726 1.355 1_556 S
C727 C729 1.419 . S
C728 C726 1.415 . S
C728 C733 1.425 1_554 S
C728 C735 1.409 . S
C729 H721 0.930 . S
C729 C727 1.419 . S
C729 C730 1.362 . S
C730 H722 0.930 . S
C730 C729 1.362 . S
C730 C733 1.409 . S
C731 H723 0.930 . S
C731 C732 1.355 1_556 S
C731 C733 1.415 . S
C732 C731 1.355 1_554 S
C732 C734 1.419 . S
C733 C728 1.425 1_556 S
C733 C730 1.409 . S
C733 C731 1.415 . S
C734 H724 0.930 . S
C734 C732 1.419 . S
C734 C735 1.362 . S
C735 H725 0.930 . S
C735 C728 1.409 . S
C735 C734 1.362 . S
H736 C742 0.930 . S
H737 C745 0.930 . S
H738 C746 0.930 . S
H739 C747 0.930 . S
H740 C750 0.930 . S
H741 C751 0.930 . S
C742 H736 0.930 . S
C742 C743 1.355 . S
C742 C744 1.415 . S
C743 C742 1.355 . S
C743 C745 1.419 . S
C744 C742 1.415 . S
C744 C749 1.425 . S
C744 C751 1.409 . S
C745 H737 0.930 . S
C745 C743 1.419 . S
C745 C746 1.362 . S
C746 H738 0.930 . S
C746 C745 1.362 . S
C746 C749 1.409 . S
C747 H739 0.930 . S
C747 C748 1.355 . S
C747 C749 1.415 . S
C748 C747 1.355 . S
C748 C750 1.419 . S
C749 C744 1.425 . S
C749 C746 1.409 . S
C749 C747 1.415 . S
C750 H740 0.930 . S
C750 C748 1.419 . S
C750 C751 1.362 . S
C751 H741 0.930 . S
C751 C744 1.409 . S
C751 C750 1.362 . S
H752 C758 0.930 . S
H753 C761 0.930 . S
H754 C762 0.930 . S
H755 C763 0.930 . S
H756 C766 0.930 . S
H757 C767 0.930 . S
C758 H752 0.930 . S
C758 C759 1.355 . S
C758 C760 1.415 . S
C759 C758 1.355 . S
C759 C761 1.419 . S
C760 C758 1.415 . S
C760 C765 1.425 1_565 S
C760 C767 1.409 . S
C761 H753 0.930 . S
C761 C759 1.419 . S
C761 C762 1.362 1_565 S
C762 H754 0.930 . S
C762 C761 1.362 1_545 S
C762 C765 1.409 . S
C763 H755 0.930 . S
C763 C764 1.355 . S
C763 C765 1.415 . S
C764 C763 1.355 . S
C764 C766 1.419 . S
C765 C760 1.425 1_545 S
C765 C762 1.409 . S
C765 C763 1.415 . S
C766 H756 0.930 . S
C766 C764 1.419 . S
C766 C767 1.362 1_545 S
C767 H757 0.930 . S
C767 C760 1.409 . S
C767 C766 1.362 1_565 S
H768 C774 0.930 . S
H769 C777 0.930 . S
H770 C778 0.930 . S
H771 C779 0.930 . S
H772 C782 0.930 . S
H773 C783 0.930 . S
C774 H768 0.930 . S
C774 C775 1.355 1_556 S
C774 C776 1.415 . S
C775 C774 1.355 1_554 S
C775 C777 1.419 . S
C776 C774 1.415 . S
C776 C781 1.425 1_556 S
C776 C783 1.409 . S
C777 H769 0.930 . S
C777 C775 1.419 . S
C777 C778 1.362 . S
C778 H770 0.930 . S
C778 C777 1.362 . S
C778 C781 1.409 . S
C779 H771 0.930 . S
C779 C780 1.355 1_554 S
C779 C781 1.415 . S
C780 C779 1.355 1_556 S
C780 C782 1.419 . S
C781 C776 1.425 1_554 S
C781 C778 1.409 . S
C781 C779 1.415 . S
C782 H772 0.930 . S
C782 C780 1.419 . S
C782 C783 1.362 . S
C783 H773 0.930 . S
C783 C776 1.409 . S
C783 C782 1.362 . S
H784 C790 0.930 . S
H785 C793 0.930 . S
H786 C794 0.930 . S
H787 C795 0.930 . S
H788 C798 0.930 . S
H789 C799 0.930 . S
C790 H784 0.930 . S
C790 C791 1.355 . S
C790 C792 1.415 . S
C791 C790 1.355 . S
C791 C793 1.419 . S
C792 C790 1.415 . S
C792 C797 1.425 . S
C792 C799 1.409 . S
C793 H785 0.930 . S
C793 C791 1.419 . S
C793 C794 1.362 . S
C794 H786 0.930 . S
C794 C793 1.362 . S
C794 C797 1.409 . S
C795 H787 0.930 . S
C795 C796 1.355 . S
C795 C797 1.415 . S
C796 C795 1.355 . S
C796 C798 1.419 . S
C797 C792 1.425 . S
C797 C794 1.409 . S
C797 C795 1.415 . S
C798 H788 0.930 . S
C798 C796 1.419 . S
C798 C799 1.362 . S
C799 H789 0.930 . S
C799 C792 1.409 . S
C799 C798 1.362 . S
H800 C806 0.930 . S
H801 C809 0.930 . S
H802 C810 0.930 . S
H803 C811 0.930 . S
H804 C814 0.930 . S
H805 C815 0.930 . S
C806 H800 0.930 . S
C806 C807 1.355 . S
C806 C808 1.415 . S
C807 C806 1.355 . S
C807 C809 1.419 . S
C808 C806 1.415 . S
C808 C813 1.425 1_565 S
C808 C815 1.409 . S
C809 H801 0.930 . S
C809 C807 1.419 . S
C809 C810 1.362 1_565 S
C810 H802 0.930 . S
C810 C809 1.362 1_545 S
C810 C813 1.409 . S
C811 H803 0.930 . S
C811 C812 1.355 . S
C811 C813 1.415 . S
C812 C811 1.355 . S
C812 C814 1.419 . S
C813 C808 1.425 1_545 S
C813 C810 1.409 . S
C813 C811 1.415 . S
C814 H804 0.930 . S
C814 C812 1.419 . S
C814 C815 1.362 1_545 S
C815 H805 0.930 . S
C815 C808 1.409 . S
C815 C814 1.362 1_565 S
H816 C822 0.930 . S
H817 C825 0.930 . S
H818 C826 0.930 . S
H819 C827 0.930 . S
H820 C830 0.930 . S
H821 C831 0.930 . S
C822 H816 0.930 . S
C822 C823 1.355 . S
C822 C824 1.415 . S
C823 C822 1.355 . S
C823 C825 1.419 . S
C824 C822 1.415 . S
C824 C829 1.425 . S
C824 C831 1.409 . S
C825 H817 0.930 . S
C825 C823 1.419 . S
C825 C826 1.362 . S
C826 H818 0.930 . S
C826 C825 1.362 . S
C826 C829 1.409 . S
C827 H819 0.930 . S
C827 C828 1.355 . S
C827 C829 1.415 . S
C828 C827 1.355 . S
C828 C830 1.419 . S
C829 C824 1.425 . S
C829 C826 1.409 . S
C829 C827 1.415 . S
C830 H820 0.930 . S
C830 C828 1.419 . S
C830 C831 1.362 . S
C831 H821 0.930 . S
C831 C824 1.409 . S
C831 C830 1.362 . S
H832 C838 0.930 . S
H833 C841 0.930 . S
H834 C842 0.930 . S
H835 C843 0.930 . S
H836 C846 0.930 . S
H837 C847 0.930 . S
C838 H832 0.930 . S
C838 C839 1.355 . S
C838 C840 1.415 . S
C839 C838 1.355 . S
C839 C841 1.419 . S
C840 C838 1.415 . S
C840 C845 1.425 . S
C840 C847 1.409 . S
C841 H833 0.930 . S
C841 C839 1.419 . S
C841 C842 1.362 . S
C842 H834 0.930 . S
C842 C841 1.362 . S
C842 C845 1.409 . S
C843 H835 0.930 . S
C843 C844 1.355 . S
C843 C845 1.415 . S
C844 C843 1.355 . S
C844 C846 1.419 . S
C845 C840 1.425 . S
C845 C842 1.409 . S
C845 C843 1.415 . S
C846 H836 0.930 . S
C846 C844 1.419 . S
C846 C847 1.362 . S
C847 H837 0.930 . S
C847 C840 1.409 . S
C847 C846 1.362 . S
H848 C854 0.930 . S
H849 C857 0.930 . S
H850 C858 0.930 . S
H851 C859 0.930 . S
H852 C862 0.930 . S
H853 C863 0.930 . S
C854 H848 0.930 . S
C854 C855 1.355 . S
C854 C856 1.415 . S
C855 C854 1.355 . S
C855 C857 1.419 . S
C856 C854 1.415 . S
C856 C861 1.425 . S
C856 C863 1.409 . S
C857 H849 0.930 . S
C857 C855 1.419 . S
C857 C858 1.362 . S
C858 H850 0.930 . S
C858 C857 1.362 . S
C858 C861 1.409 . S
C859 H851 0.930 . S
C859 C860 1.355 . S
C859 C861 1.415 . S
C860 C859 1.355 . S
C860 C862 1.419 . S
C861 C856 1.425 . S
C861 C858 1.409 . S
C861 C859 1.415 . S
C862 H852 0.930 . S
C862 C860 1.419 . S
C862 C863 1.362 . S
C863 H853 0.930 . S
C863 C856 1.409 . S
C863 C862 1.362 . S
H864 C870 0.930 . S
H865 C873 0.930 . S
H866 C874 0.930 . S
H867 C875 0.930 . S
H868 C878 0.930 . S
H869 C879 0.930 . S
C870 H864 0.930 . S
C870 C871 1.355 . S
C870 C872 1.415 . S
C871 C870 1.355 . S
C871 C873 1.419 . S
C872 C870 1.415 . S
C872 C877 1.425 . S
C872 C879 1.409 . S
C873 H865 0.930 . S
C873 C871 1.419 . S
C873 C874 1.362 . S
C874 H866 0.930 . S
C874 C873 1.362 . S
C874 C877 1.409 . S
C875 H867 0.930 . S
C875 C876 1.355 . S
C875 C877 1.415 . S
C876 C875 1.355 . S
C876 C878 1.419 . S
C877 C872 1.425 . S
C877 C874 1.409 . S
C877 C875 1.415 . S
C878 H868 0.930 . S
C878 C876 1.419 . S
C878 C879 1.362 . S
C879 H869 0.930 . S
C879 C872 1.409 . S
C879 C878 1.362 . S
H880 C886 0.930 . S
H881 C889 0.930 . S
H882 C890 0.930 . S
H883 C891 0.930 . S
H884 C894 0.930 . S
H885 C895 0.930 . S
C886 H880 0.930 . S
C886 C887 1.355 . S
C886 C888 1.415 . S
C887 C886 1.355 . S
C887 C889 1.419 . S
C888 C886 1.415 . S
C888 C893 1.425 . S
C888 C895 1.409 . S
C889 H881 0.930 . S
C889 C887 1.419 . S
C889 C890 1.362 . S
C890 H882 0.930 . S
C890 C889 1.362 . S
C890 C893 1.409 . S
C891 H883 0.930 . S
C891 C892 1.355 . S
C891 C893 1.415 . S
C892 C891 1.355 . S
C892 C894 1.419 . S
C893 C888 1.425 . S
C893 C890 1.409 . S
C893 C891 1.415 . S
C894 H884 0.930 . S
C894 C892 1.419 . S
C894 C895 1.362 . S
C895 H885 0.930 . S
C895 C888 1.409 . S
C895 C894 1.362 . S
H896 C902 0.930 . S
H897 C905 0.930 . S
H898 C906 0.930 1_655 S
H899 C907 0.930 . S
H900 C910 0.930 . S
H901 C911 0.930 1_455 S
C902 H896 0.930 . S
C902 C903 1.355 . S
C902 C904 1.478 . S
C903 C902 1.355 . S
C903 C905 1.419 . S
C904 C902 1.478 . S
C904 C909 1.413 1_465 S
C904 C911 1.359 1_465 S
C905 H897 0.930 . S
C905 C903 1.419 . S
C905 C906 1.362 . S
C906 H898 0.930 1_455 S
C906 C905 1.362 . S
C906 C909 1.359 1_465 S
C907 H899 0.930 . S
C907 C908 1.355 . S
C907 C909 1.478 . S
C908 C907 1.355 . S
C908 C910 1.419 . S
C909 C904 1.413 1_645 S
C909 C906 1.359 1_645 S
C909 C907 1.478 . S
C910 H900 0.930 . S
C910 C908 1.419 . S
C910 C911 1.362 . S
C911 H901 0.930 1_655 S
C911 C904 1.359 1_645 S
C911 C910 1.362 . S
H912 C918 0.930 . S
H913 C921 0.930 . S
H914 C922 0.930 . S
H915 C923 0.930 . S
H916 C926 0.930 . S
H917 C927 0.930 . S
C918 H912 0.930 . S
C918 C919 1.355 . S
C918 C920 1.415 . S
C919 C918 1.355 . S
C919 C921 1.419 . S
C920 C918 1.415 . S
C920 C925 1.425 1_655 S
C920 C927 1.409 . S
C921 H913 0.930 . S
C921 C919 1.419 . S
C921 C922 1.362 1_655 S
C922 H914 0.930 . S
C922 C921 1.362 1_455 S
C922 C925 1.409 . S
C923 H915 0.930 . S
C923 C924 1.355 . S
C923 C925 1.415 . S
C924 C923 1.355 . S
C924 C926 1.419 . S
C925 C920 1.425 1_455 S
C925 C922 1.409 . S
C925 C923 1.415 . S
C926 H916 0.930 . S
C926 C924 1.419 . S
C926 C927 1.362 1_455 S
C927 H917 0.930 . S
C927 C920 1.409 . S
C927 C926 1.362 1_655 S
H928 C934 0.930 . S
H929 C937 0.930 . S
H930 C938 0.930 1_655 S
H931 C939 0.930 . S
H932 C942 0.930 . S
H933 C943 0.930 1_455 S
C934 H928 0.930 . S
C934 C935 1.355 . S
C934 C936 1.415 . S
C935 C934 1.355 . S
C935 C937 1.419 . S
C936 C934 1.415 . S
C936 C941 1.425 1_455 S
C936 C943 1.409 1_455 S
C937 H929 0.930 . S
C937 C935 1.419 . S
C937 C938 1.362 . S
C938 H930 0.930 1_455 S
C938 C937 1.362 . S
C938 C941 1.409 1_455 S
C939 H931 0.930 . S
C939 C940 1.355 . S
C939 C941 1.415 . S
C940 C939 1.355 . S
C940 C942 1.419 . S
C941 C936 1.425 1_655 S
C941 C938 1.409 1_655 S
C941 C939 1.415 . S
C942 H932 0.930 . S
C942 C940 1.419 . S
C942 C943 1.362 . S
C943 H933 0.930 1_655 S
C943 C936 1.409 1_655 S
C943 C942 1.362 . S
H944 C950 0.930 . S
H945 C953 0.930 . S
H946 C954 0.930 . S
H947 C955 0.930 . S
H948 C958 0.930 . S
H949 C959 0.930 . S
C950 H944 0.930 . S
C950 C951 1.355 1_554 S
C950 C952 1.415 . S
C951 C950 1.355 1_556 S
C951 C953 1.419 . S
C952 C950 1.415 . S
C952 C957 1.425 1_454 S
C952 C959 1.409 . S
C953 H945 0.930 . S
C953 C951 1.419 . S
C953 C954 1.362 1_455 S
C954 H946 0.930 . S
C954 C953 1.362 1_655 S
C954 C957 1.409 . S
C955 H947 0.930 . S
C955 C956 1.355 1_556 S
C955 C957 1.415 . S
C956 C955 1.355 1_554 S
C956 C958 1.419 . S
C957 C952 1.425 1_656 S
C957 C954 1.409 . S
C957 C955 1.415 . S
C958 H948 0.930 . S
C958 C956 1.419 . S
C958 C959 1.362 1_655 S
C959 H949 0.930 . S
C959 C952 1.409 . S
C959 C958 1.362 1_455 S
H960 C966 0.930 . S
H961 C969 0.930 . S
H962 C970 0.930 . S
H963 C971 0.930 . S
H964 C974 0.930 . S
H965 C975 0.930 . S
C966 H960 0.930 . S
C966 C967 1.355 . S
C966 C968 1.415 . S
C967 C966 1.355 . S
C967 C969 1.419 . S
C968 C966 1.415 . S
C968 C973 1.425 . S
C968 C975 1.409 . S
C969 H961 0.930 . S
C969 C967 1.419 . S
C969 C970 1.362 . S
C970 H962 0.930 . S
C970 C969 1.362 . S
C970 C973 1.409 . S
C971 H963 0.930 . S
C971 C972 1.355 . S
C971 C973 1.415 . S
C972 C971 1.355 . S
C972 C974 1.419 . S
C973 C968 1.425 . S
C973 C970 1.409 . S
C973 C971 1.415 . S
C974 H964 0.930 . S
C974 C972 1.419 . S
C974 C975 1.362 . S
C975 H965 0.930 . S
C975 C968 1.409 . S
C975 C974 1.362 . S
H976 C982 0.930 . S
H977 C985 0.930 1_455 S
H978 C986 0.930 1_455 S
H979 C987 0.930 . S
H980 C990 0.930 . S
H981 C991 0.930 . S
C982 H976 0.930 . S
C982 C983 1.355 . S
C982 C984 1.415 . S
C983 C982 1.355 . S
C983 C985 1.419 . S
C984 C982 1.415 . S
C984 C989 1.425 . S
C984 C991 1.409 . S
C985 H977 0.930 1_655 S
C985 C983 1.419 . S
C985 C986 1.362 . S
C986 H978 0.930 1_655 S
C986 C985 1.362 . S
C986 C989 1.409 . S
C987 H979 0.930 . S
C987 C988 1.355 . S
C987 C989 1.415 . S
C988 C987 1.355 . S
C988 C990 1.419 . S
C989 C984 1.425 . S
C989 C986 1.409 . S
C989 C987 1.415 . S
C990 H980 0.930 . S
C990 C988 1.419 . S
C990 C991 1.362 . S
C991 H981 0.930 . S
C991 C984 1.409 . S
C991 C990 1.362 . S
H992 C998 0.930 . S
H993 C1001 0.930 . S
H994 C1002 0.930 . S
H995 C1003 0.930 . S
H996 C1006 0.930 . S
H997 C1007 0.930 . S
C998 H992 0.930 . S
C998 C999 1.355 . S
C998 C1000 1.415 . S
C999 C998 1.355 . S
C999 C1001 1.419 . S
C1000 C998 1.415 . S
C1000 C1005 1.425 . S
C1000 C1007 1.409 . S
C1001 H993 0.930 . S
C1001 C999 1.419 . S
C1001 C1002 1.362 . S
C1002 H994 0.930 . S
C1002 C1001 1.362 . S
C1002 C1005 1.409 . S
C1003 H995 0.930 . S
C1003 C1004 1.355 . S
C1003 C1005 1.415 . S
C1004 C1003 1.355 . S
C1004 C1006 1.419 . S
C1005 C1000 1.425 . S
C1005 C1002 1.409 . S
C1005 C1003 1.415 . S
C1006 H996 0.930 . S
C1006 C1004 1.419 . S
C1006 C1007 1.362 . S
C1007 H997 0.930 . S
C1007 C1000 1.409 . S
C1007 C1006 1.362 . S
H1008 C1014 0.930 . S
H1009 C1017 0.930 . S
H1010 C1018 0.930 . S
H1011 C1019 0.930 . S
H1012 C1022 0.930 . S
H1013 C1023 0.930 . S
C1014 H1008 0.930 . S
C1014 C1015 1.355 . S
C1014 C1016 1.415 . S
C1015 C1014 1.355 . S
C1015 C1017 1.419 . S
C1016 C1014 1.415 . S
C1016 C1021 1.425 . S
C1016 C1023 1.409 . S
C1017 H1009 0.930 . S
C1017 C1015 1.419 . S
C1017 C1018 1.362 . S
C1018 H1010 0.930 . S
C1018 C1017 1.362 . S
C1018 C1021 1.409 . S
C1019 H1011 0.930 . S
C1019 C1020 1.355 . S
C1019 C1021 1.415 . S
C1020 C1019 1.355 . S
C1020 C1022 1.419 . S
C1021 C1016 1.425 . S
C1021 C1018 1.409 . S
C1021 C1019 1.415 . S
C1022 H1012 0.930 . S
C1022 C1020 1.419 . S
C1022 C1023 1.362 . S
C1023 H1013 0.930 . S
C1023 C1016 1.409 . S
C1023 C1022 1.362 . S
H1024 C1030 0.930 . S
H1025 C1033 0.930 . S
H1026 C1034 0.930 . S
H1027 C1035 0.930 . S
H1028 C1038 0.930 . S
H1029 C1039 0.930 . S
C1030 H1024 0.930 . S
C1030 C1031 1.355 . S
C1030 C1032 1.415 . S
C1031 C1030 1.355 . S
C1031 C1033 1.419 . S
C1032 C1030 1.415 . S
C1032 C1037 1.425 . S
C1032 C1039 1.409 . S
C1033 H1025 0.930 . S
C1033 C1031 1.419 . S
C1033 C1034 1.362 . S
C1034 H1026 0.930 . S
C1034 C1033 1.362 . S
C1034 C1037 1.409 . S
C1035 H1027 0.930 . S
C1035 C1036 1.355 . S
C1035 C1037 1.415 . S
C1036 C1035 1.355 . S
C1036 C1038 1.419 . S
C1037 C1032 1.425 . S
C1037 C1034 1.409 . S
C1037 C1035 1.415 . S
C1038 H1028 0.930 . S
C1038 C1036 1.419 . S
C1038 C1039 1.362 . S
C1039 H1029 0.930 . S
C1039 C1032 1.409 . S
C1039 C1038 1.362 . S
H1040 C1046 0.930 . S
H1041 C1049 0.930 1_655 S
H1042 C1050 0.930 1_655 S
H1043 C1051 0.930 . S
H1044 C1054 0.930 . S
H1045 C1055 0.930 . S
C1046 H1040 0.930 . S
C1046 C1047 1.355 . S
C1046 C1048 1.415 . S
C1047 C1046 1.355 . S
C1047 C1049 1.419 . S
C1048 C1046 1.415 . S
C1048 C1053 1.425 . S
C1048 C1055 1.409 . S
C1049 H1041 0.930 1_455 S
C1049 C1047 1.419 . S
C1049 C1050 1.362 . S
C1050 H1042 0.930 1_455 S
C1050 C1049 1.362 . S
C1050 C1053 1.409 . S
C1051 H1043 0.930 . S
C1051 C1052 1.355 . S
C1051 C1053 1.415 . S
C1052 C1051 1.355 . S
C1052 C1054 1.419 . S
C1053 C1048 1.425 . S
C1053 C1050 1.409 . S
C1053 C1051 1.415 . S
C1054 H1044 0.930 . S
C1054 C1052 1.419 . S
C1054 C1055 1.362 . S
C1055 H1045 0.930 . S
C1055 C1048 1.409 . S
C1055 C1054 1.362 . S
H1056 C1062 0.930 . S
H1057 C1065 0.930 . S
H1058 C1066 0.930 . S
H1059 C1067 0.930 . S
H1060 C1070 0.930 . S
H1061 C1071 0.930 . S
C1062 H1056 0.930 . S
C1062 C1063 1.355 . S
C1062 C1064 1.415 . S
C1063 C1062 1.355 . S
C1063 C1065 1.419 . S
C1064 C1062 1.415 . S
C1064 C1069 1.425 . S
C1064 C1071 1.409 . S
C1065 H1057 0.930 . S
C1065 C1063 1.419 . S
C1065 C1066 1.362 . S
C1066 H1058 0.930 . S
C1066 C1065 1.362 . S
C1066 C1069 1.409 . S
C1067 H1059 0.930 . S
C1067 C1068 1.355 . S
C1067 C1069 1.415 . S
C1068 C1067 1.355 . S
C1068 C1070 1.419 . S
C1069 C1064 1.425 . S
C1069 C1066 1.409 . S
C1069 C1067 1.415 . S
C1070 H1060 0.930 . S
C1070 C1068 1.419 . S
C1070 C1071 1.362 . S
C1071 H1061 0.930 . S
C1071 C1064 1.409 . S
C1071 C1070 1.362 . S
H1072 C1078 0.930 . S
H1073 C1081 0.930 . S
H1074 C1082 0.930 1_655 S
H1075 C1083 0.930 . S
H1076 C1086 0.930 . S
H1077 C1087 0.930 . S
C1078 H1072 0.930 . S
C1078 C1079 1.355 . S
C1078 C1080 1.415 . S
C1079 C1078 1.355 . S
C1079 C1081 1.419 . S
C1080 C1078 1.415 . S
C1080 C1085 1.425 . S
C1080 C1087 1.409 . S
C1081 H1073 0.930 . S
C1081 C1079 1.419 . S
C1081 C1082 1.362 . S
C1082 H1074 0.930 1_455 S
C1082 C1081 1.362 . S
C1082 C1085 1.409 . S
C1083 H1075 0.930 . S
C1083 C1084 1.355 . S
C1083 C1085 1.415 . S
C1084 C1083 1.355 . S
C1084 C1086 1.419 . S
C1085 C1080 1.425 . S
C1085 C1082 1.409 . S
C1085 C1083 1.415 . S
C1086 H1076 0.930 . S
C1086 C1084 1.419 . S
C1086 C1087 1.362 . S
C1087 H1077 0.930 . S
C1087 C1080 1.409 . S
C1087 C1086 1.362 . S
H1088 C1094 0.930 . S
H1089 C1097 0.930 . S
H1090 C1098 0.930 . S
H1091 C1099 0.930 . S
H1092 C1102 0.930 . S
H1093 C1103 0.930 . S
C1094 H1088 0.930 . S
C1094 C1095 1.355 . S
C1094 C1096 1.415 . S
C1095 C1094 1.355 . S
C1095 C1097 1.419 . S
C1096 C1094 1.415 . S
C1096 C1101 1.425 . S
C1096 C1103 1.409 . S
C1097 H1089 0.930 . S
C1097 C1095 1.419 . S
C1097 C1098 1.362 . S
C1098 H1090 0.930 . S
C1098 C1097 1.362 . S
C1098 C1101 1.409 . S
C1099 H1091 0.930 . S
C1099 C1100 1.355 . S
C1099 C1101 1.415 . S
C1100 C1099 1.355 . S
C1100 C1102 1.419 . S
C1101 C1096 1.425 . S
C1101 C1098 1.409 . S
C1101 C1099 1.415 . S
C1102 H1092 0.930 . S
C1102 C1100 1.419 . S
C1102 C1103 1.362 . S
C1103 H1093 0.930 . S
C1103 C1096 1.409 . S
C1103 C1102 1.362 . S
H1104 C1110 0.930 . S
H1105 C1113 0.930 . S
H1106 C1114 0.930 . S
H1107 C1115 0.930 . S
H1108 C1118 0.930 . S
H1109 C1119 0.930 . S
C1110 H1104 0.930 . S
C1110 C1111 1.355 . S
C1110 C1112 1.415 . S
C1111 C1110 1.355 . S
C1111 C1113 1.419 . S
C1112 C1110 1.415 . S
C1112 C1117 1.425 . S
C1112 C1119 1.409 . S
C1113 H1105 0.930 . S
C1113 C1111 1.419 . S
C1113 C1114 1.362 . S
C1114 H1106 0.930 . S
C1114 C1113 1.362 . S
C1114 C1117 1.409 . S
C1115 H1107 0.930 . S
C1115 C1116 1.355 . S
C1115 C1117 1.415 . S
C1116 C1115 1.355 . S
C1116 C1118 1.419 . S
C1117 C1112 1.425 . S
C1117 C1114 1.409 . S
C1117 C1115 1.415 . S
C1118 H1108 0.930 . S
C1118 C1116 1.419 . S
C1118 C1119 1.362 . S
C1119 H1109 0.930 . S
C1119 C1112 1.409 . S
C1119 C1118 1.362 . S
H1120 C1126 0.930 . S
H1121 C1129 0.930 . S
H1122 C1130 0.930 . S
H1123 C1131 0.930 . S
H1124 C1134 0.930 . S
H1125 C1135 0.930 . S
C1126 H1120 0.930 . S
C1126 C1127 1.355 . S
C1126 C1128 1.415 . S
C1127 C1126 1.355 . S
C1127 C1129 1.419 . S
C1128 C1126 1.415 . S
C1128 C1133 1.425 . S
C1128 C1135 1.409 . S
C1129 H1121 0.930 . S
C1129 C1127 1.419 . S
C1129 C1130 1.362 . S
C1130 H1122 0.930 . S
C1130 C1129 1.362 . S
C1130 C1133 1.409 . S
C1131 H1123 0.930 . S
C1131 C1132 1.355 . S
C1131 C1133 1.415 . S
C1132 C1131 1.355 . S
C1132 C1134 1.419 . S
C1133 C1128 1.425 . S
C1133 C1130 1.409 . S
C1133 C1131 1.415 . S
C1134 H1124 0.930 . S
C1134 C1132 1.419 . S
C1134 C1135 1.362 . S
C1135 H1125 0.930 . S
C1135 C1128 1.409 . S
C1135 C1134 1.362 . S
H1136 C1142 0.930 . S
H1137 C1145 0.930 . S
H1138 C1146 0.930 . S
H1139 C1147 0.930 . S
H1140 C1150 0.930 . S
H1141 C1151 0.936 . S
C1142 H1136 0.930 . S
C1142 C1143 1.355 . S
C1142 C1144 1.415 . S
C1143 C1142 1.355 . S
C1143 C1145 1.419 . S
C1144 C1142 1.415 . S
C1144 C1149 1.425 . S
C1144 C1151 1.409 . S
C1145 H1137 0.930 . S
C1145 C1143 1.419 . S
C1145 C1146 1.362 . S
C1146 H1138 0.930 . S
C1146 C1145 1.362 . S
C1146 C1149 1.409 . S
C1147 H1139 0.930 . S
C1147 C1148 1.355 . S
C1147 C1149 1.415 . S
C1148 C1147 1.355 . S
C1148 C1150 1.419 . S
C1149 C1144 1.425 . S
C1149 C1146 1.409 . S
C1149 C1147 1.415 . S
C1150 H1140 0.930 . S
C1150 C1148 1.419 . S
C1150 C1151 1.362 . S
C1151 H1141 0.936 . S
C1151 C1144 1.409 . S
C1151 C1150 1.362 . S
H1152 C1158 0.930 . S
H1153 C1161 0.930 . S
H1154 C1162 0.930 . S
H1155 C1163 0.930 . S
H1156 C1166 0.930 . S
H1157 C1167 0.930 . S
C1158 H1152 0.930 . S
C1158 C1159 1.355 . S
C1158 C1160 1.415 . S
C1159 C1158 1.355 . S
C1159 C1161 1.419 . S
C1160 C1158 1.415 . S
C1160 C1165 1.425 . S
C1160 C1167 1.409 . S
C1161 H1153 0.930 . S
C1161 C1159 1.419 . S
C1161 C1162 1.362 . S
C1162 H1154 0.930 . S
C1162 C1161 1.362 . S
C1162 C1165 1.409 . S
C1163 H1155 0.930 . S
C1163 C1164 1.355 . S
C1163 C1165 1.415 . S
C1164 C1163 1.355 . S
C1164 C1166 1.419 . S
C1165 C1160 1.425 . S
C1165 C1162 1.409 . S
C1165 C1163 1.415 . S
C1166 H1156 0.930 . S
C1166 C1164 1.419 . S
C1166 C1167 1.362 . S
C1167 H1157 0.930 . S
C1167 C1160 1.409 . S
C1167 C1166 1.362 . S
H1168 C1174 0.930 1_655 S
H1169 C1177 0.930 . S
H1170 C1178 0.930 . S
H1171 C1179 0.930 . S
H1172 C1182 0.930 . S
H1173 C1183 0.930 1_655 S
C1174 H1168 0.930 1_455 S
C1174 C1175 1.355 . S
C1174 C1176 1.415 . S
C1175 C1174 1.355 . S
C1175 C1177 1.419 . S
C1176 C1174 1.415 . S
C1176 C1181 1.425 . S
C1176 C1183 1.409 . S
C1177 H1169 0.930 . S
C1177 C1175 1.419 . S
C1177 C1178 1.362 . S
C1178 H1170 0.930 . S
C1178 C1177 1.362 . S
C1178 C1181 1.409 . S
C1179 H1171 0.930 . S
C1179 C1180 1.355 . S
C1179 C1181 1.415 . S
C1180 C1179 1.355 . S
C1180 C1182 1.419 . S
C1181 C1176 1.425 . S
C1181 C1178 1.409 . S
C1181 C1179 1.415 . S
C1182 H1172 0.930 . S
C1182 C1180 1.419 . S
C1182 C1183 1.362 . S
C1183 H1173 0.930 1_455 S
C1183 C1176 1.409 . S
C1183 C1182 1.362 . S
H1184 C1190 0.930 . S
H1185 C1193 0.930 . S
H1186 C1194 0.930 . S
H1187 C1195 0.930 . S
H1188 C1198 0.930 . S
H1189 C1199 0.930 . S
C1190 H1184 0.930 . S
C1190 C1191 1.355 . S
C1190 C1192 1.415 . S
C1191 C1190 1.355 . S
C1191 C1193 1.419 . S
C1192 C1190 1.415 . S
C1192 C1197 1.425 . S
C1192 C1199 1.409 . S
C1193 H1185 0.930 . S
C1193 C1191 1.419 . S
C1193 C1194 1.362 . S
C1194 H1186 0.930 . S
C1194 C1193 1.362 . S
C1194 C1197 1.409 . S
C1195 H1187 0.930 . S
C1195 C1196 1.355 . S
C1195 C1197 1.415 . S
C1196 C1195 1.355 . S
C1196 C1198 1.419 . S
C1197 C1192 1.425 . S
C1197 C1194 1.409 . S
C1197 C1195 1.415 . S
C1198 H1188 0.930 . S
C1198 C1196 1.419 . S
C1198 C1199 1.362 . S
C1199 H1189 0.930 . S
C1199 C1192 1.409 . S
C1199 C1198 1.362 . S
H1200 C1206 0.930 . S
H1201 C1209 0.930 1_655 S
H1202 C1210 0.930 1_655 S
H1203 C1211 0.930 . S
H1204 C1214 0.930 . S
H1205 C1215 0.930 . S
C1206 H1200 0.930 . S
C1206 C1207 1.355 . S
C1206 C1208 1.415 . S
C1207 C1206 1.355 . S
C1207 C1209 1.419 . S
C1208 C1206 1.415 . S
C1208 C1213 1.425 . S
C1208 C1215 1.409 . S
C1209 H1201 0.930 1_455 S
C1209 C1207 1.419 . S
C1209 C1210 1.362 . S
C1210 H1202 0.930 1_455 S
C1210 C1209 1.362 . S
C1210 C1213 1.409 . S
C1211 H1203 0.930 . S
C1211 C1212 1.355 . S
C1211 C1213 1.415 . S
C1212 C1211 1.355 . S
C1212 C1214 1.419 . S
C1213 C1208 1.425 . S
C1213 C1210 1.409 . S
C1213 C1211 1.415 . S
C1214 H1204 0.930 . S
C1214 C1212 1.419 . S
C1214 C1215 1.362 . S
C1215 H1205 0.930 . S
C1215 C1208 1.409 . S
C1215 C1214 1.362 . S
H1216 C1222 0.930 . S
H1217 C1225 0.930 . S
H1218 C1226 0.930 1_655 S
H1219 C1227 0.930 . S
H1220 C1230 0.930 . S
H1221 C1231 0.930 . S
C1222 H1216 0.930 . S
C1222 C1223 1.355 1_556 S
C1222 C1224 1.415 . S
C1223 C1222 1.355 1_554 S
C1223 C1225 1.419 1_455 S
C1224 C1222 1.415 . S
C1224 C1229 1.424 1_556 S
C1224 C1231 1.410 . S
C1225 H1217 0.930 . S
C1225 C1223 1.419 1_655 S
C1225 C1226 1.362 1_655 S
C1226 H1218 0.930 1_455 S
C1226 C1225 1.362 1_455 S
C1226 C1229 1.409 . S
C1227 H1219 0.930 . S
C1227 C1228 1.355 . S
C1227 C1229 1.415 . S
C1228 C1227 1.355 . S
C1228 C1230 1.419 1_554 S
C1229 C1224 1.424 1_554 S
C1229 C1226 1.409 . S
C1229 C1227 1.415 . S
C1230 H1220 0.930 . S
C1230 C1228 1.419 1_556 S
C1230 C1231 1.362 . S
C1231 H1221 0.930 . S
C1231 C1224 1.410 . S
C1231 C1230 1.362 . S
H1232 C1238 0.930 . S
H1233 C1241 0.930 . S
H1234 C1242 0.930 1_655 S
H1235 C1243 0.930 1_655 S
H1236 C1246 0.930 . S
H1237 C1247 0.930 . S
C1238 H1232 0.930 . S
C1238 C1239 1.355 . S
C1238 C1240 1.415 . S
C1239 C1238 1.355 . S
C1239 C1241 1.419 . S
C1240 C1238 1.415 . S
C1240 C1245 1.425 . S
C1240 C1247 1.409 . S
C1241 H1233 0.930 . S
C1241 C1239 1.419 . S
C1241 C1242 1.362 . S
C1242 H1234 0.930 1_455 S
C1242 C1241 1.362 . S
C1242 C1245 1.409 . S
C1243 H1235 0.930 1_455 S
C1243 C1244 1.355 . S
C1243 C1245 1.415 . S
C1244 C1243 1.355 . S
C1244 C1246 1.419 . S
C1245 C1240 1.425 . S
C1245 C1242 1.409 . S
C1245 C1243 1.415 . S
C1246 H1236 0.930 . S
C1246 C1244 1.419 . S
C1246 C1247 1.362 . S
C1247 H1237 0.930 . S
C1247 C1240 1.409 . S
C1247 C1246 1.362 . S
H1248 C1254 0.930 . S
H1249 C1257 0.930 . S
H1250 C1258 0.930 . S
H1251 C1259 0.930 . S
H1252 C1262 0.930 . S
H1253 C1263 0.930 . S
C1254 H1248 0.930 . S
C1254 C1255 1.323 1_556 S
C1254 C1256 1.415 . S
C1255 C1254 1.323 1_554 S
C1255 C1257 1.459 . S
C1256 C1254 1.415 . S
C1256 C1261 1.425 1_556 S
C1256 C1263 1.409 . S
C1257 H1249 0.930 . S
C1257 C1255 1.459 . S
C1257 C1258 1.362 . S
C1258 H1250 0.930 . S
C1258 C1257 1.362 . S
C1258 C1261 1.409 . S
C1259 H1251 0.930 . S
C1259 C1260 1.355 1_554 S
C1259 C1261 1.415 . S
C1260 C1259 1.355 1_556 S
C1260 C1262 1.419 . S
C1261 C1256 1.425 1_554 S
C1261 C1258 1.409 . S
C1261 C1259 1.415 . S
C1262 H1252 0.930 . S
C1262 C1260 1.419 . S
C1262 C1263 1.362 . S
C1263 H1253 0.930 . S
C1263 C1256 1.409 . S
C1263 C1262 1.362 . S
H1264 C1270 0.930 . S
H1265 C1273 0.930 . S
H1266 C1274 0.930 . S
H1267 C1275 0.930 . S
H1268 C1278 0.930 . S
H1269 C1279 0.930 . S
C1270 H1264 0.930 . S
C1270 C1271 1.355 . S
C1270 C1272 1.415 . S
C1271 C1270 1.355 . S
C1271 C1273 1.419 . S
C1272 C1270 1.415 . S
C1272 C1277 1.425 . S
C1272 C1279 1.409 . S
C1273 H1265 0.930 . S
C1273 C1271 1.419 . S
C1273 C1274 1.362 . S
C1274 H1266 0.930 . S
C1274 C1273 1.362 . S
C1274 C1277 1.409 . S
C1275 H1267 0.930 . S
C1275 C1276 1.355 . S
C1275 C1277 1.415 . S
C1276 C1275 1.355 . S
C1276 C1278 1.419 . S
C1277 C1272 1.425 . S
C1277 C1274 1.409 . S
C1277 C1275 1.415 . S
C1278 H1268 0.930 . S
C1278 C1276 1.419 . S
C1278 C1279 1.362 . S
C1279 H1269 0.930 . S
C1279 C1272 1.409 . S
C1279 C1278 1.362 . S
H1280 C1286 0.930 . S
H1281 C1289 0.930 1_655 S
H1282 C1290 0.930 1_655 S
H1283 C1291 0.930 . S
H1284 C1294 0.930 . S
H1285 C1295 0.930 . S
C1286 H1280 0.930 . S
C1286 C1287 1.355 . S
C1286 C1288 1.415 . S
C1287 C1286 1.355 . S
C1287 C1289 1.419 . S
C1288 C1286 1.415 . S
C1288 C1293 1.425 . S
C1288 C1295 1.409 . S
C1289 H1281 0.930 1_455 S
C1289 C1287 1.419 . S
C1289 C1290 1.362 . S
C1290 H1282 0.930 1_455 S
C1290 C1289 1.362 . S
C1290 C1293 1.409 . S
C1291 H1283 0.930 . S
C1291 C1292 1.355 . S
C1291 C1293 1.415 . S
C1292 C1291 1.355 . S
C1292 C1294 1.419 . S
C1293 C1288 1.425 . S
C1293 C1290 1.409 . S
C1293 C1291 1.415 . S
C1294 H1284 0.930 . S
C1294 C1292 1.419 . S
C1294 C1295 1.362 . S
C1295 H1285 0.930 . S
C1295 C1288 1.409 . S
C1295 C1294 1.362 . S
H1296 C1302 0.930 . S
H1297 C1305 0.930 . S
H1298 C1306 0.930 . S
H1299 C1307 0.930 . S
H1300 C1310 0.930 . S
H1301 C1311 0.930 . S
C1302 H1296 0.930 . S
C1302 C1303 1.355 . S
C1302 C1304 1.415 . S
C1303 C1302 1.355 . S
C1303 C1305 1.419 . S
C1304 C1302 1.415 . S
C1304 C1309 1.425 . S
C1304 C1311 1.409 . S
C1305 H1297 0.930 . S
C1305 C1303 1.419 . S
C1305 C1306 1.362 . S
C1306 H1298 0.930 . S
C1306 C1305 1.362 . S
C1306 C1309 1.409 . S
C1307 H1299 0.930 . S
C1307 C1308 1.355 . S
C1307 C1309 1.415 . S
C1308 C1307 1.355 . S
C1308 C1310 1.419 . S
C1309 C1304 1.425 . S
C1309 C1306 1.409 . S
C1309 C1307 1.415 . S
C1310 H1300 0.930 . S
C1310 C1308 1.419 . S
C1310 C1311 1.362 . S
C1311 H1301 0.930 . S
C1311 C1304 1.409 . S
C1311 C1310 1.362 . S
H1312 C1318 0.930 . S
H1313 C1321 0.930 . S
H1314 C1322 0.930 . S
H1315 C1323 0.930 . S
H1316 C1326 0.930 1_455 S
H1317 C1327 0.930 1_455 S
C1318 H1312 0.930 . S
C1318 C1319 1.355 . S
C1318 C1320 1.415 . S
C1319 C1318 1.355 . S
C1319 C1321 1.419 . S
C1320 C1318 1.415 . S
C1320 C1325 1.425 . S
C1320 C1327 1.409 . S
C1321 H1313 0.930 . S
C1321 C1319 1.419 . S
C1321 C1322 1.362 . S
C1322 H1314 0.930 . S
C1322 C1321 1.362 . S
C1322 C1325 1.409 . S
C1323 H1315 0.930 . S
C1323 C1324 1.355 . S
C1323 C1325 1.415 . S
C1324 C1323 1.355 . S
C1324 C1326 1.419 . S
C1325 C1320 1.425 . S
C1325 C1322 1.409 . S
C1325 C1323 1.415 . S
C1326 H1316 0.930 1_655 S
C1326 C1324 1.419 . S
C1326 C1327 1.362 . S
C1327 H1317 0.930 1_655 S
C1327 C1320 1.409 . S
C1327 C1326 1.362 . S
H1328 C1334 0.930 . S
H1329 C1337 0.930 . S
H1330 C1338 0.930 1_455 S
H1331 C1339 0.930 1_455 S
H1332 C1342 0.930 . S
H1333 C1343 0.930 . S
C1334 H1328 0.930 . S
C1334 C1335 1.355 . S
C1334 C1336 1.415 . S
C1335 C1334 1.355 . S
C1335 C1337 1.419 . S
C1336 C1334 1.415 . S
C1336 C1341 1.425 . S
C1336 C1343 1.409 . S
C1337 H1329 0.930 . S
C1337 C1335 1.419 . S
C1337 C1338 1.362 . S
C1338 H1330 0.930 1_655 S
C1338 C1337 1.362 . S
C1338 C1341 1.409 . S
C1339 H1331 0.930 1_655 S
C1339 C1340 1.355 . S
C1339 C1341 1.415 . S
C1340 C1339 1.355 . S
C1340 C1342 1.419 . S
C1341 C1336 1.425 . S
C1341 C1338 1.409 . S
C1341 C1339 1.415 . S
C1342 H1332 0.930 . S
C1342 C1340 1.419 . S
C1342 C1343 1.362 . S
C1343 H1333 0.930 . S
C1343 C1336 1.409 . S
C1343 C1342 1.362 . S
H1344 C1350 0.930 . S
H1345 C1353 0.930 . S
H1346 C1354 0.930 . S
H1347 C1355 0.930 . S
H1348 C1358 0.930 . S
H1349 C1359 0.930 . S
C1350 H1344 0.930 . S
C1350 C1351 1.355 . S
C1350 C1352 1.415 . S
C1351 C1350 1.355 . S
C1351 C1353 1.419 . S
C1352 C1350 1.415 . S
C1352 C1357 1.425 . S
C1352 C1359 1.409 . S
C1353 H1345 0.930 . S
C1353 C1351 1.419 . S
C1353 C1354 1.362 . S
C1354 H1346 0.930 . S
C1354 C1353 1.362 . S
C1354 C1357 1.409 . S
C1355 H1347 0.930 . S
C1355 C1356 1.355 . S
C1355 C1357 1.415 . S
C1356 C1355 1.355 . S
C1356 C1358 1.419 . S
C1357 C1352 1.425 . S
C1357 C1354 1.409 . S
C1357 C1355 1.415 . S
C1358 H1348 0.930 . S
C1358 C1356 1.419 . S
C1358 C1359 1.362 . S
C1359 H1349 0.930 . S
C1359 C1352 1.409 . S
C1359 C1358 1.362 . S
H1360 C1366 0.930 . S
H1361 C1369 0.930 . S
H1362 C1370 0.930 . S
H1363 C1371 0.930 . S
H1364 C1374 0.930 . S
H1365 C1375 0.930 . S
C1366 H1360 0.930 . S
C1366 C1367 1.355 . S
C1366 C1368 1.415 . S
C1367 C1366 1.355 . S
C1367 C1369 1.419 . S
C1368 C1366 1.415 . S
C1368 C1373 1.425 . S
C1368 C1375 1.409 . S
C1369 H1361 0.930 . S
C1369 C1367 1.419 . S
C1369 C1370 1.362 . S
C1370 H1362 0.930 . S
C1370 C1369 1.362 . S
C1370 C1373 1.409 . S
C1371 H1363 0.930 . S
C1371 C1372 1.355 . S
C1371 C1373 1.415 . S
C1372 C1371 1.355 . S
C1372 C1374 1.419 . S
C1373 C1368 1.425 . S
C1373 C1370 1.409 . S
C1373 C1371 1.415 . S
C1374 H1364 0.930 . S
C1374 C1372 1.419 . S
C1374 C1375 1.362 . S
C1375 H1365 0.930 . S
C1375 C1368 1.409 . S
C1375 C1374 1.362 . S
H1376 C1382 0.930 . S
H1377 C1385 0.930 . S
H1378 C1386 0.930 . S
H1379 C1387 0.930 . S
H1380 C1390 0.930 . S
H1381 C1391 0.930 . S
C1382 H1376 0.930 . S
C1382 C1383 1.355 . S
C1382 C1384 1.415 . S
C1383 C1382 1.355 . S
C1383 C1385 1.419 . S
C1384 C1382 1.415 . S
C1384 C1389 1.425 . S
C1384 C1391 1.409 . S
C1385 H1377 0.930 . S
C1385 C1383 1.419 . S
C1385 C1386 1.362 . S
C1386 H1378 0.930 . S
C1386 C1385 1.362 . S
C1386 C1389 1.409 . S
C1387 H1379 0.930 . S
C1387 C1388 1.355 . S
C1387 C1389 1.415 . S
C1388 C1387 1.355 . S
C1388 C1390 1.419 . S
C1389 C1384 1.425 . S
C1389 C1386 1.409 . S
C1389 C1387 1.415 . S
C1390 H1380 0.930 . S
C1390 C1388 1.419 . S
C1390 C1391 1.362 . S
C1391 H1381 0.930 . S
C1391 C1384 1.409 . S
C1391 C1390 1.362 . S
H1392 C1398 0.930 . S
H1393 C1401 0.930 . S
H1394 C1402 0.930 . S
H1395 C1403 0.930 . S
H1396 C1406 0.930 . S
H1397 C1407 0.930 . S
C1398 H1392 0.930 . S
C1398 C1399 1.355 . S
C1398 C1400 1.415 . S
C1399 C1398 1.355 . S
C1399 C1401 1.419 . S
C1400 C1398 1.415 . S
C1400 C1405 1.425 . S
C1400 C1407 1.409 . S
C1401 H1393 0.930 . S
C1401 C1399 1.419 . S
C1401 C1402 1.362 . S
C1402 H1394 0.930 . S
C1402 C1401 1.362 . S
C1402 C1405 1.409 . S
C1403 H1395 0.930 . S
C1403 C1404 1.355 . S
C1403 C1405 1.415 . S
C1404 C1403 1.355 . S
C1404 C1406 1.419 . S
C1405 C1400 1.425 . S
C1405 C1402 1.409 . S
C1405 C1403 1.415 . S
C1406 H1396 0.930 . S
C1406 C1404 1.419 . S
C1406 C1407 1.362 . S
C1407 H1397 0.930 . S
C1407 C1400 1.409 . S
C1407 C1406 1.362 . S
H1408 C1414 0.930 . S
H1409 C1417 0.930 . S
H1410 C1418 0.930 . S
H1411 C1419 0.930 . S
H1412 C1422 0.930 . S
H1413 C1423 0.930 . S
C1414 H1408 0.930 . S
C1414 C1415 1.354 1_556 S
C1414 C1416 1.415 . S
C1415 C1414 1.354 1_554 S
C1415 C1417 1.419 . S
C1416 C1414 1.415 . S
C1416 C1421 1.424 1_556 S
C1416 C1423 1.411 . S
C1417 H1409 0.930 . S
C1417 C1415 1.419 . S
C1417 C1418 1.362 . S
C1418 H1410 0.930 . S
C1418 C1417 1.362 . S
C1418 C1421 1.409 . S
C1419 H1411 0.930 . S
C1419 C1420 1.356 . S
C1419 C1421 1.415 . S
C1420 C1419 1.356 . S
C1420 C1422 1.418 1_554 S
C1421 C1416 1.424 1_554 S
C1421 C1418 1.409 . S
C1421 C1419 1.415 . S
C1422 H1412 0.930 . S
C1422 C1420 1.418 1_556 S
C1422 C1423 1.362 . S
C1423 H1413 0.930 . S
C1423 C1416 1.411 . S
C1423 C1422 1.362 . S
H1424 C1430 0.930 . S
H1425 C1433 0.930 . S
H1426 C1434 0.930 . S
H1427 C1435 0.930 . S
H1428 C1438 0.930 . S
H1429 C1439 0.930 . S
C1430 H1424 0.930 . S
C1430 C1431 1.355 . S
C1430 C1432 1.415 . S
C1431 C1430 1.355 . S
C1431 C1433 1.419 . S
C1432 C1430 1.415 . S
C1432 C1437 1.425 . S
C1432 C1439 1.409 . S
C1433 H1425 0.930 . S
C1433 C1431 1.419 . S
C1433 C1434 1.362 . S
C1434 H1426 0.930 . S
C1434 C1433 1.362 . S
C1434 C1437 1.409 . S
C1435 H1427 0.930 . S
C1435 C1436 1.355 . S
C1435 C1437 1.415 . S
C1436 C1435 1.355 . S
C1436 C1438 1.419 . S
C1437 C1432 1.425 . S
C1437 C1434 1.409 . S
C1437 C1435 1.415 . S
C1438 H1428 0.930 . S
C1438 C1436 1.419 . S
C1438 C1439 1.362 . S
C1439 H1429 0.930 . S
C1439 C1432 1.409 . S
C1439 C1438 1.362 . S
H1440 C1446 0.930 . S
H1441 C1449 0.930 . S
H1442 C1450 0.930 . S
H1443 C1451 0.930 . S
H1444 C1454 0.930 . S
H1445 C1455 0.930 . S
C1446 H1440 0.930 . S
C1446 C1447 1.352 1_556 S
C1446 C1448 1.415 . S
C1447 C1446 1.352 1_554 S
C1447 C1449 1.422 . S
C1448 C1446 1.415 . S
C1448 C1453 1.425 1_556 S
C1448 C1455 1.409 . S
C1449 H1441 0.930 . S
C1449 C1447 1.422 . S
C1449 C1450 1.362 . S
C1450 H1442 0.930 . S
C1450 C1449 1.362 . S
C1450 C1453 1.409 . S
C1451 H1443 0.930 . S
C1451 C1452 1.355 1_554 S
C1451 C1453 1.415 . S
C1452 C1451 1.355 1_556 S
C1452 C1454 1.419 . S
C1453 C1448 1.425 1_554 S
C1453 C1450 1.409 . S
C1453 C1451 1.415 . S
C1454 H1444 0.930 . S
C1454 C1452 1.419 . S
C1454 C1455 1.362 . S
C1455 H1445 0.930 . S
C1455 C1448 1.409 . S
C1455 C1454 1.362 . S
H1456 C1462 0.930 . S
H1457 C1465 0.930 . S
H1458 C1466 0.930 . S
H1459 C1467 0.930 . S
H1460 C1470 0.930 . S
H1461 C1471 0.930 . S
C1462 H1456 0.930 . S
C1462 C1463 1.355 . S
C1462 C1464 1.415 . S
C1463 C1462 1.355 . S
C1463 C1465 1.419 . S
C1464 C1462 1.415 . S
C1464 C1469 1.425 . S
C1464 C1471 1.409 . S
C1465 H1457 0.930 . S
C1465 C1463 1.419 . S
C1465 C1466 1.362 . S
C1466 H1458 0.930 . S
C1466 C1465 1.362 . S
C1466 C1469 1.409 . S
C1467 H1459 0.930 . S
C1467 C1468 1.355 . S
C1467 C1469 1.415 . S
C1468 C1467 1.355 . S
C1468 C1470 1.419 . S
C1469 C1464 1.425 . S
C1469 C1466 1.409 . S
C1469 C1467 1.415 . S
C1470 H1460 0.930 . S
C1470 C1468 1.419 . S
C1470 C1471 1.362 . S
C1471 H1461 0.930 . S
C1471 C1464 1.409 . S
C1471 C1470 1.362 . S
C455 C12 1.535 . S
C460 C55 1.526 . S
C471 C28 1.537 . S
C476 C26 1.526 . S
C487 C110 1.532 . S
C492 C57 1.528 . S
C503 C84 1.538 . S
C508 C70 1.532 . S
C519 C112 1.527 . S
C524 C167 1.533 . S
C535 C139 1.537 . S
C540 C141 1.534 . S
C551 C210 1.537 . S
C556 C168 1.526 . S
C567 C209 1.538 . S
C572 C183 1.527 . S
C583 C224 1.527 . S
C588 C278 1.533 . S
C599 C251 1.537 . S
C604 C252 1.535 . S
C615 C280 1.527 . S
C620 C334 1.531 . S
C631 C294 1.540 . S
C636 C308 1.530 . S
C647 C337 1.535 . S
C652 C391 1.525 . S
C663 C365 1.532 . S
C668 C362 1.528 . S
C679 C447 1.528 . S
C684 C393 1.532 . S
C695 C420 1.535 . S
C700 C407 1.536 . S
C711 C0 1.560 1_556 S
C716 C69 1.560 1_554 S
C727 C419 1.538 . S
C732 C14 1.538 . S
C743 C40 1.554 . S
C748 C197 1.554 . S
C759 C322 1.563 . S
C764 C43 1.563 . S
C775 C350 1.537 . S
C780 C82 1.536 . S
C791 C96 1.554 . S
C796 C153 1.554 . S
C807 C98 1.562 . S
C812 C266 1.563 . S
C823 C180 1.561 . S
C828 C124 1.561 . S
C839 C306 1.549 . S
C844 C127 1.549 . S
C855 C155 1.560 . S
C860 C435 1.560 . S
C871 C195 1.557 . S
C876 C239 1.556 . S
C887 C222 1.545 . S
C892 C379 1.545 . S
C903 C292 1.557 . S
C908 C236 1.558 . S
C919 C264 1.542 . S
C924 C432 1.541 . S
C935 C320 1.556 . S
C940 C377 1.556 . S
C951 C405 1.538 . S
C956 C349 1.536 . S
C967 C13 1.458 . S
C972 C279 1.463 . S
C983 C27 1.462 . S
C988 C253 1.458 . S
C999 C250 1.479 . S
C1004 C29 1.476 . S
C1015 C225 1.465 . S
C1020 C54 1.459 . S
C1031 C56 1.462 . S
C1036 C335 1.459 . S
C1047 C71 1.471 . S
C1052 C309 1.460 . S
C1063 C85 1.477 . S
C1068 C295 1.464 . S
C1079 C281 1.480 . S
C1084 C111 1.475 . S
C1095 C113 1.468 . S
C1100 C390 1.479 . S
C1111 C364 1.478 . S
C1116 C138 1.466 . S
C1127 C363 1.479 . S
C1132 C140 1.478 . S
C1143 C166 1.475 . S
C1148 C336 1.480 . S
C1159 C169 1.477 . S
C1164 C446 1.478 . S
C1175 C182 1.470 . S
C1180 C421 1.479 . S
C1191 C406 1.480 . S
C1196 C208 1.471 . S
C1207 C211 1.465 . S
C1212 C392 1.458 . S
C1223 C15 1.524 . S
C1228 C1 1.527 . S
C1239 C41 1.557 . S
C1244 C42 1.548 . S
C1255 C83 1.531 1_554 S
C1260 C68 1.543 . S
C1271 C97 1.536 . S
C1276 C99 1.549 . S
C1287 C126 1.529 . S
C1292 C125 1.538 . S
C1303 C152 1.534 . S
C1308 C154 1.547 . S
C1319 C181 1.527 . S
C1324 C194 1.527 . S
C1335 C196 1.545 . S
C1340 C223 1.556 . S
C1351 C237 1.542 . S
C1356 C238 1.555 . S
C1367 C267 1.552 . S
C1372 C265 1.540 . S
C1383 C293 1.559 . S
C1388 C307 1.555 . S
C1399 C323 1.530 . S
C1404 C321 1.526 . S
C1415 C351 1.559 . S
C1420 C348 1.553 . S
C1431 C376 1.557 . S
C1436 C378 1.548 . S
C1447 C404 1.549 1_554 S
C1452 C418 1.558 . S
C1463 C434 1.546 . S
C1468 C433 1.556 . S
