# Generated by pormake.
# Topology cag, (4)-cn, num edge types: 1
# Building blocks:
#     Node 0, Type 0, BuildingBlock: GALJAG_clean_sbu_0, # of connection points: 4
#     Node 1, Type 0, BuildingBlock: GALJAG_clean_sbu_0, # of connection points: 4
#     Node 2, Type 0, BuildingBlock: GALJAG_clean_sbu_0, # of connection points: 4
#     Node 3, Type 0, BuildingBlock: GALJAG_clean_sbu_0, # of connection points: 4
#     Node 4, Type 0, BuildingBlock: GALJAG_clean_sbu_0, # of connection points: 4
#     Node 5, Type 0, BuildingBlock: GALJAG_clean_sbu_0, # of connection points: 4
#     Node 6, Type 0, BuildingBlock: GALJAG_clean_sbu_0, # of connection points: 4
#     Node 7, Type 0, BuildingBlock: GALJAG_clean_sbu_0, # of connection points: 4
#     Node 8, Type 0, BuildingBlock: GALJAG_clean_sbu_0, # of connection points: 4
#     Node 9, Type 0, BuildingBlock: GALJAG_clean_sbu_0, # of connection points: 4
#     Node 10, Type 0, BuildingBlock: GALJAG_clean_sbu_0, # of connection points: 4
#     Node 11, Type 0, BuildingBlock: GALJAG_clean_sbu_0, # of connection points: 4
#     Node 12, Type 0, BuildingBlock: GALJAG_clean_sbu_0, # of connection points: 4
#     Node 13, Type 0, BuildingBlock: GALJAG_clean_sbu_0, # of connection points: 4
#     Node 14, Type 0, BuildingBlock: GALJAG_clean_sbu_0, # of connection points: 4
#     Node 15, Type 0, BuildingBlock: GALJAG_clean_sbu_0, # of connection points: 4
#     Edge 16, Type (0, 0), BuildingBlock: MIFKUJ_clean_linker_0, # of connection points: 2
#     Edge 17, Type (0, 0), BuildingBlock: MIFKUJ_clean_linker_0, # of connection points: 2
#     Edge 18, Type (0, 0), BuildingBlock: MIFKUJ_clean_linker_0, # of connection points: 2
#     Edge 19, Type (0, 0), BuildingBlock: MIFKUJ_clean_linker_0, # of connection points: 2
#     Edge 20, Type (0, 0), BuildingBlock: MIFKUJ_clean_linker_0, # of connection points: 2
#     Edge 21, Type (0, 0), BuildingBlock: MIFKUJ_clean_linker_0, # of connection points: 2
#     Edge 22, Type (0, 0), BuildingBlock: MIFKUJ_clean_linker_0, # of connection points: 2
#     Edge 23, Type (0, 0), BuildingBlock: MIFKUJ_clean_linker_0, # of connection points: 2
#     Edge 24, Type (0, 0), BuildingBlock: MIFKUJ_clean_linker_0, # of connection points: 2
#     Edge 25, Type (0, 0), BuildingBlock: MIFKUJ_clean_linker_0, # of connection points: 2
#     Edge 26, Type (0, 0), BuildingBlock: MIFKUJ_clean_linker_0, # of connection points: 2
#     Edge 27, Type (0, 0), BuildingBlock: MIFKUJ_clean_linker_0, # of connection points: 2
#     Edge 28, Type (0, 0), BuildingBlock: MIFKUJ_clean_linker_0, # of connection points: 2
#     Edge 29, Type (0, 0), BuildingBlock: MIFKUJ_clean_linker_0, # of connection points: 2
#     Edge 30, Type (0, 0), BuildingBlock: MIFKUJ_clean_linker_0, # of connection points: 2
#     Edge 31, Type (0, 0), BuildingBlock: MIFKUJ_clean_linker_0, # of connection points: 2
#     Edge 32, Type (0, 0), BuildingBlock: MIFKUJ_clean_linker_0, # of connection points: 2
#     Edge 33, Type (0, 0), BuildingBlock: MIFKUJ_clean_linker_0, # of connection points: 2
#     Edge 34, Type (0, 0), BuildingBlock: MIFKUJ_clean_linker_0, # of connection points: 2
#     Edge 35, Type (0, 0), BuildingBlock: MIFKUJ_clean_linker_0, # of connection points: 2
#     Edge 36, Type (0, 0), BuildingBlock: MIFKUJ_clean_linker_0, # of connection points: 2
#     Edge 37, Type (0, 0), BuildingBlock: MIFKUJ_clean_linker_0, # of connection points: 2
#     Edge 38, Type (0, 0), BuildingBlock: MIFKUJ_clean_linker_0, # of connection points: 2
#     Edge 39, Type (0, 0), BuildingBlock: MIFKUJ_clean_linker_0, # of connection points: 2
#     Edge 40, Type (0, 0), BuildingBlock: MIFKUJ_clean_linker_0, # of connection points: 2
#     Edge 41, Type (0, 0), BuildingBlock: MIFKUJ_clean_linker_0, # of connection points: 2
#     Edge 42, Type (0, 0), BuildingBlock: MIFKUJ_clean_linker_0, # of connection points: 2
#     Edge 43, Type (0, 0), BuildingBlock: MIFKUJ_clean_linker_0, # of connection points: 2
#     Edge 44, Type (0, 0), BuildingBlock: MIFKUJ_clean_linker_0, # of connection points: 2
#     Edge 45, Type (0, 0), BuildingBlock: MIFKUJ_clean_linker_0, # of connection points: 2
#     Edge 46, Type (0, 0), BuildingBlock: MIFKUJ_clean_linker_0, # of connection points: 2
#     Edge 47, Type (0, 0), BuildingBlock: MIFKUJ_clean_linker_0, # of connection points: 2
# Relax obj value: 0.084
# Max RMSD: 0.168
# Mean RMSD: 0.142
data_MOF--net-cag--node1-GALJAG_clean_sbu_0--edge1-MIFKUJ_clean_linker_0
_symmetry_space_group_name_H-M    P1
_symmetry_Int_Tables_number       1
_symmetry_cell_setting            triclinic
loop_
_symmetry_equiv_pos_as_xyz
'x, y, z'
_cell_length_a     60.47802
_cell_length_b     64.701168
_cell_length_c     50.033955
_cell_angle_alpha  89.988963
_cell_angle_beta   89.994169
_cell_angle_gamma 89.99328
loop_
_atom_site_label
_atom_site_type_symbol
_atom_site_fract_x
_atom_site_fract_y
_atom_site_fract_z
_atom_type_partial_charge
In0 In 0.33433 0.13903 0.07964 0.0
O1 O 0.30271 0.13333 0.10323 0.0
O2 O 0.3302 0.14597 0.12409 0.0
C3 C 0.33272 0.10079 0.05784 0.0
C4 C 0.31352 0.1701 0.05376 0.0
C5 C 0.37862 0.14461 0.08349 0.0
O6 O 0.32892 0.10418 0.08221 0.0
O7 O 0.33732 0.11669 0.04438 0.0
O8 O 0.3673 0.15191 0.06455 0.0
O9 O 0.36758 0.13476 0.10065 0.0
C10 C 0.31039 0.13983 0.12512 0.0
O11 O 0.32535 0.17304 0.07418 0.0
O12 O 0.31247 0.15154 0.04615 0.0
In13 In 0.16957 0.86113 0.57954 0.0
O14 O 0.17534 0.82756 0.56761 0.0
O15 O 0.1908 0.85083 0.54419 0.0
C16 C 0.12609 0.85275 0.5859 0.0
C17 C 0.19246 0.86163 0.62621 0.0
C18 C 0.17203 0.89848 0.55544 0.0
O19 O 0.1359 0.85072 0.5638 0.0
O20 O 0.13828 0.85865 0.60489 0.0
O21 O 0.1887 0.88698 0.55846 0.0
O22 O 0.15423 0.89112 0.56443 0.0
C23 C 0.18793 0.83177 0.54824 0.0
O24 O 0.19101 0.8459 0.61158 0.0
O25 O 0.18224 0.8772 0.61752 0.0
In26 In 0.33474 0.85925 0.92045 0.0
O27 O 0.33142 0.83032 0.94664 0.0
O28 O 0.30198 0.84458 0.93297 0.0
C29 C 0.37856 0.8509 0.91831 0.0
C30 C 0.31564 0.86014 0.87177 0.0
C31 C 0.33338 0.89707 0.94342 0.0
O32 O 0.36831 0.85366 0.93995 0.0
O33 O 0.36667 0.85203 0.89765 0.0
O34 O 0.34218 0.89377 0.92099 0.0
O35 O 0.32524 0.88126 0.95441 0.0
C36 C 0.31059 0.83012 0.94621 0.0
O37 O 0.31435 0.8749 0.88816 0.0
O38 O 0.32686 0.84486 0.87979 0.0
In39 In 0.16796 0.14005 0.41977 0.0
O40 O 0.1981 0.14527 0.39349 0.0
O41 O 0.16914 0.13353 0.3748 0.0
C42 C 0.17279 0.10177 0.44058 0.0
C43 C 0.18705 0.1704 0.44908 0.0
C44 C 0.12367 0.14616 0.41668 0.0
O45 O 0.1791 0.10627 0.41726 0.0
O46 O 0.16425 0.11655 0.45336 0.0
O47 O 0.13705 0.15498 0.40104 0.0
O48 O 0.13265 0.13458 0.43373 0.0
C49 C 0.18898 0.1393 0.37218 0.0
O50 O 0.17204 0.17394 0.43221 0.0
O51 O 0.19203 0.15161 0.45156 0.0
In52 In 0.65863 0.86101 0.90938 0.0
O53 O 0.6741 0.84543 0.94567 0.0
O54 O 0.66994 0.82731 0.91064 0.0
C55 C 0.65907 0.89973 0.93 0.0
C56 C 0.68293 0.86516 0.86423 0.0
C57 C 0.61548 0.85035 0.90999 0.0
O58 O 0.67343 0.88635 0.93575 0.0
O59 O 0.64467 0.89373 0.91357 0.0
O60 O 0.62615 0.85296 0.88856 0.0
O61 O 0.6267 0.8527 0.93104 0.0
C62 C 0.67687 0.82819 0.93441 0.0
O63 O 0.6622 0.86308 0.8638 0.0
O64 O 0.69125 0.86541 0.88729 0.0
In65 In 0.84268 0.13949 0.41222 0.0
O66 O 0.84013 0.13478 0.36684 0.0
O67 O 0.8106 0.1405 0.38841 0.0
C68 C 0.88666 0.1473 0.41317 0.0
C69 C 0.82309 0.17086 0.43895 0.0
C70 C 0.84027 0.10095 0.43274 0.0
O71 O 0.87425 0.15389 0.39476 0.0
O72 O 0.87681 0.1373 0.4312 0.0
O73 O 0.83698 0.11698 0.44651 0.0
O74 O 0.84461 0.1043 0.40845 0.0
C75 C 0.81943 0.13706 0.36607 0.0
O76 O 0.81835 0.15213 0.44278 0.0
O77 O 0.83812 0.17389 0.42187 0.0
In78 In 0.66014 0.13523 0.08442 0.0
O79 O 0.68319 0.14885 0.05312 0.0
O80 O 0.66767 0.16975 0.07994 0.0
C81 C 0.65912 0.09772 0.06066 0.0
C82 C 0.68534 0.13273 0.12902 0.0
C83 C 0.61612 0.14267 0.08613 0.0
O84 O 0.66553 0.11383 0.04879 0.0
O85 O 0.65329 0.10047 0.0846 0.0
O86 O 0.62674 0.13522 0.10555 0.0
O87 O 0.62775 0.14671 0.06585 0.0
C88 C 0.68084 0.16732 0.06061 0.0
O89 O 0.66673 0.14151 0.12868 0.0
O90 O 0.69115 0.12503 0.10698 0.0
In91 In 0.84542 0.86482 0.58521 0.0
O92 O 0.82161 0.85181 0.55426 0.0
O93 O 0.83724 0.83051 0.58047 0.0
C94 C 0.84613 0.90176 0.55988 0.0
C95 C 0.82025 0.86664 0.62972 0.0
C96 C 0.88929 0.85768 0.59045 0.0
O97 O 0.8427 0.9 0.58462 0.0
O98 O 0.84933 0.8849 0.54787 0.0
O99 O 0.87837 0.86806 0.60721 0.0
O100 O 0.87805 0.8507 0.57124 0.0
C101 C 0.82377 0.83326 0.56154 0.0
O102 O 0.84001 0.86034 0.63011 0.0
O103 O 0.81335 0.87211 0.60702 0.0
In104 In 0.83155 0.64014 0.0828 0.0
O105 O 0.80024 0.63647 0.10771 0.0
O106 O 0.82941 0.64639 0.12763 0.0
C107 C 0.82908 0.60218 0.06048 0.0
C108 C 0.81038 0.67047 0.05598 0.0
C109 C 0.87589 0.64532 0.0862 0.0
O110 O 0.82457 0.6055 0.08469 0.0
O111 O 0.83463 0.61802 0.04743 0.0
O112 O 0.86409 0.65548 0.07009 0.0
O113 O 0.8653 0.63289 0.10075 0.0
C114 C 0.80916 0.64189 0.1294 0.0
O115 O 0.81033 0.65189 0.04834 0.0
O116 O 0.82147 0.67385 0.0769 0.0
In117 In 0.66898 0.36218 0.58196 0.0
O118 O 0.69925 0.36723 0.60836 0.0
O119 O 0.67061 0.35454 0.62655 0.0
C120 C 0.67015 0.39981 0.55852 0.0
C121 C 0.6915 0.33211 0.55627 0.0
C122 C 0.62469 0.35665 0.5843 0.0
O123 O 0.67237 0.39726 0.58335 0.0
O124 O 0.66747 0.38336 0.5454 0.0
O125 O 0.63669 0.34729 0.56759 0.0
O126 O 0.63504 0.36856 0.5998 0.0
C127 C 0.69034 0.36044 0.62937 0.0
O128 O 0.6764 0.32824 0.57297 0.0
O129 O 0.69492 0.35109 0.55223 0.0
In130 In 0.83449 0.36087 0.92251 0.0
O131 O 0.82734 0.32663 0.92966 0.0
O132 O 0.81106 0.3486 0.95438 0.0
C133 C 0.87878 0.35543 0.91897 0.0
C134 C 0.81089 0.35926 0.87674 0.0
C135 C 0.83308 0.39895 0.94479 0.0
O136 O 0.86743 0.34767 0.9376 0.0
O137 O 0.86778 0.36566 0.90218 0.0
O138 O 0.8318 0.39601 0.91995 0.0
O139 O 0.83495 0.38269 0.95848 0.0
C140 C 0.81379 0.32983 0.94842 0.0
O141 O 0.80267 0.36515 0.89862 0.0
O142 O 0.83101 0.35423 0.8779 0.0
In143 In 0.66655 0.64225 0.42374 0.0
O144 O 0.6736 0.67641 0.43204 0.0
O145 O 0.69147 0.65397 0.45425 0.0
C146 C 0.62244 0.64924 0.42253 0.0
C147 C 0.68934 0.64373 0.37741 0.0
C148 C 0.66743 0.60329 0.44356 0.0
O149 O 0.63399 0.65233 0.44313 0.0
O150 O 0.63316 0.6429 0.40255 0.0
O151 O 0.66849 0.6071 0.4189 0.0
O152 O 0.66594 0.61907 0.45818 0.0
C153 C 0.68812 0.67286 0.44957 0.0
O154 O 0.69811 0.63846 0.39925 0.0
O155 O 0.66908 0.64824 0.37892 0.0
In156 In 0.16022 0.36268 0.91335 0.0
O157 O 0.18146 0.34927 0.94664 0.0
O158 O 0.16953 0.32861 0.91687 0.0
C159 C 0.16154 0.40033 0.93687 0.0
C160 C 0.18503 0.3629 0.86853 0.0
C161 C 0.11607 0.35601 0.91004 0.0
O162 O 0.159 0.38384 0.94993 0.0
O163 O 0.16352 0.39784 0.91202 0.0
O164 O 0.12644 0.36723 0.89371 0.0
O165 O 0.12799 0.34784 0.92778 0.0
C166 C 0.1809 0.331 0.93781 0.0
O167 O 0.16461 0.35887 0.86823 0.0
O168 O 0.19283 0.36694 0.89132 0.0
In169 In 0.34186 0.63756 0.41322 0.0
O170 O 0.33826 0.63794 0.36773 0.0
O171 O 0.30954 0.63208 0.391 0.0
C172 C 0.38552 0.64666 0.41433 0.0
C173 C 0.32034 0.67015 0.43466 0.0
C174 C 0.34207 0.59934 0.43525 0.0
O175 O 0.37538 0.64233 0.39303 0.0
O176 O 0.37358 0.64675 0.43498 0.0
O177 O 0.33844 0.61549 0.44861 0.0
O178 O 0.34553 0.60241 0.41074 0.0
C179 C 0.31776 0.63427 0.36801 0.0
O180 O 0.31774 0.65186 0.44279 0.0
O181 O 0.33417 0.67214 0.41594 0.0
In182 In 0.15762 0.63721 0.08727 0.0
O183 O 0.1778 0.65223 0.0541 0.0
O184 O 0.16825 0.67107 0.08696 0.0
C185 C 0.15912 0.6001 0.06244 0.0
C186 C 0.18265 0.63475 0.13177 0.0
C187 C 0.11336 0.64362 0.09025 0.0
O188 O 0.1591 0.61696 0.0498 0.0
O189 O 0.15845 0.60198 0.08749 0.0
O190 O 0.12376 0.63248 0.10662 0.0
O191 O 0.1253 0.65189 0.0726 0.0
C192 C 0.17846 0.66981 0.06501 0.0
O193 O 0.16292 0.64114 0.13217 0.0
O194 O 0.18968 0.62958 0.10898 0.0
In195 In 0.34327 0.36249 0.58599 0.0
O196 O 0.33947 0.35717 0.63103 0.0
O197 O 0.31198 0.3692 0.60969 0.0
C198 C 0.38738 0.35595 0.58941 0.0
C199 C 0.3211 0.33139 0.56209 0.0
C200 C 0.34309 0.39936 0.56051 0.0
O201 O 0.37717 0.36816 0.6047 0.0
O202 O 0.3753 0.34677 0.57265 0.0
O203 O 0.34609 0.38248 0.54842 0.0
O204 O 0.34014 0.39762 0.58534 0.0
C205 C 0.31967 0.36332 0.63183 0.0
O206 O 0.31898 0.35004 0.55517 0.0
O207 O 0.33478 0.32835 0.58074 0.0
H208 H 0.30888 0.20997 0.07055 0.0
H209 H 0.28631 0.23715 0.05021 0.0
H210 H 0.26729 0.19534 0.98714 0.0
H211 H 0.28981 0.16803 0.00741 0.0
H212 H 0.27816 0.23496 0.96869 0.0
H213 H 0.23226 0.20355 0.03589 0.0
H214 H 0.22328 0.19116 0.08121 0.0
H215 H 0.23065 0.25272 0.11196 0.0
H216 H 0.24001 0.26543 0.06685 0.0
H217 H 0.18651 0.29174 0.919 0.0
H218 H 0.20921 0.26427 0.93849 0.0
H219 H 0.22662 0.30445 0.00398 0.0
H220 H 0.20394 0.33198 0.98464 0.0
H221 H 0.21647 0.2654 0.02099 0.0
H222 H 0.26278 0.29711 0.95542 0.0
H223 H 0.27296 0.31035 0.91088 0.0
H224 H 0.26598 0.24948 0.8778 0.0
H225 H 0.25544 0.2359 0.92213 0.0
C226 C 0.30001 0.20661 0.05225 0.0
C227 C 0.30102 0.18686 0.04061 0.0
C228 C 0.28708 0.22211 0.04072 0.0
C229 C 0.27498 0.21816 0.01733 0.0
C230 C 0.27649 0.19866 0.00521 0.0
C231 C 0.2893 0.18309 0.01685 0.0
C232 C 0.26031 0.23424 0.00592 0.0
C233 C 0.26447 0.24142 0.97995 0.0
C234 C 0.24281 0.24298 0.02092 0.0
C235 C 0.23705 0.2354 0.04804 0.0
C236 C 0.23215 0.21441 0.05235 0.0
C237 C 0.22695 0.20734 0.07799 0.0
C238 C 0.22645 0.22113 0.09946 0.0
C239 C 0.23108 0.24205 0.09532 0.0
C240 C 0.23631 0.2492 0.06971 0.0
C241 C 0.19506 0.29467 0.93764 0.0
C242 C 0.19352 0.31401 0.95028 0.0
C243 C 0.2081 0.279 0.94868 0.0
C244 C 0.21977 0.28241 0.97253 0.0
C245 C 0.21777 0.30153 0.98554 0.0
C246 C 0.20485 0.31724 0.97444 0.0
C247 C 0.2343 0.26614 0.98374 0.0
C248 C 0.23012 0.25891 0.00968 0.0
C249 C 0.25187 0.25746 0.96877 0.0
C250 C 0.2581 0.26553 0.94205 0.0
C251 C 0.26321 0.28658 0.9386 0.0
C252 C 0.26909 0.29413 0.91341 0.0
C253 C 0.27008 0.28077 0.89153 0.0
C254 C 0.26519 0.25981 0.89478 0.0
C255 C 0.25927 0.25217 0.91994 0.0
H256 H 0.27475 0.28665 0.87209 0.0
H257 H 0.22242 0.21563 0.1193 0.0
H258 H 0.32199 0.71076 0.41954 0.0
H259 H 0.2991 0.73923 0.43622 0.0
H260 H 0.26657 0.69739 0.49065 0.0
H261 H 0.28917 0.66889 0.47391 0.0
H262 H 0.23712 0.72137 0.46459 0.0
H263 H 0.30535 0.73138 0.51272 0.0
H264 H 0.34559 0.73645 0.51723 0.0
H265 H 0.34148 0.7922 0.47092 0.0
H266 H 0.30123 0.78731 0.46584 0.0
H267 H 0.18626 0.79007 0.55572 0.0
H268 H 0.20818 0.76363 0.53312 0.0
H269 H 0.23825 0.81049 0.48365 0.0
H270 H 0.2166 0.83711 0.50659 0.0
H271 H 0.26883 0.78528 0.50369 0.0
H272 H 0.20025 0.77655 0.45783 0.0
H273 H 0.16 0.7716 0.45335 0.0
H274 H 0.16461 0.71367 0.49486 0.0
H275 H 0.20486 0.7184 0.49992 0.0
C276 C 0.31004 0.70768 0.43517 0.0
C277 C 0.30739 0.68762 0.44547 0.0
C278 C 0.29701 0.72395 0.44471 0.0
C279 C 0.28121 0.72044 0.46478 0.0
C280 C 0.27862 0.70043 0.47512 0.0
C281 C 0.29162 0.68418 0.46562 0.0
C282 C 0.26709 0.7375 0.47484 0.0
C283 C 0.24404 0.73527 0.47339 0.0
C284 C 0.27614 0.75588 0.48557 0.0
C285 C 0.30032 0.75885 0.48865 0.0
C286 C 0.31306 0.74463 0.50331 0.0
C287 C 0.33586 0.74748 0.50601 0.0
C288 C 0.3461 0.7646 0.4943 0.0
C289 C 0.33353 0.77893 0.47994 0.0
C290 C 0.31072 0.77613 0.47716 0.0
C291 C 0.19735 0.79472 0.53982 0.0
C292 C 0.1997 0.81565 0.5329 0.0
C293 C 0.20982 0.77959 0.52684 0.0
C294 C 0.22473 0.78505 0.50651 0.0
C295 C 0.22684 0.80592 0.49926 0.0
C296 C 0.2144 0.8211 0.5123 0.0
C297 C 0.23882 0.76905 0.49376 0.0
C298 C 0.26188 0.77148 0.49469 0.0
C299 C 0.22977 0.75085 0.48251 0.0
C300 C 0.20556 0.74792 0.47944 0.0
C301 C 0.19266 0.76283 0.46618 0.0
C302 C 0.16985 0.76005 0.46351 0.0
C303 C 0.15975 0.74235 0.47386 0.0
C304 C 0.17245 0.72738 0.48686 0.0
C305 C 0.19527 0.73009 0.48961 0.0
H306 H 0.14208 0.74023 0.47177 0.0
H307 H 0.36375 0.76679 0.49641 0.0
H308 H 0.26691 0.82161 0.93895 0.0
H309 H 0.24489 0.79498 0.96103 0.0
H310 H 0.30192 0.77654 0.00714 0.0
H311 H 0.32425 0.80262 0.98416 0.0
H312 H 0.28201 0.74398 0.99186 0.0
H313 H 0.25792 0.80579 0.03432 0.0
H314 H 0.24384 0.84148 0.03731 0.0
H315 H 0.1839 0.8232 0.99789 0.0
H316 H 0.19774 0.78743 0.99434 0.0
H317 H 0.18845 0.70664 0.08874 0.0
H318 H 0.21152 0.73445 0.07079 0.0
H319 H 0.21954 0.70031 0.99733 0.0
H320 H 0.19712 0.67221 0.01551 0.0
H321 H 0.20853 0.75983 0.03092 0.0
H322 H 0.2698 0.70818 0.97103 0.0
H323 H 0.28612 0.67329 0.97386 0.0
H324 H 0.27591 0.67285 0.05879 0.0
H325 H 0.25982 0.70783 0.05652 0.0
C326 C 0.27473 0.8119 0.95384 0.0
C327 C 0.29727 0.81421 0.95992 0.0
C328 C 0.2621 0.79675 0.96658 0.0
C329 C 0.2716 0.78395 0.98614 0.0
C330 C 0.29417 0.78622 0.99216 0.0
C331 C 0.30692 0.80115 0.97908 0.0
C332 C 0.25812 0.76791 0.99987 0.0
C333 C 0.26597 0.74749 0.00044 0.0
C334 C 0.23739 0.77249 0.01169 0.0
C335 C 0.22895 0.79396 0.01387 0.0
C336 C 0.2418 0.80941 0.02613 0.0
C337 C 0.23385 0.82965 0.02795 0.0
C338 C 0.21301 0.83461 0.01775 0.0
C339 C 0.20005 0.81933 0.00576 0.0
C340 C 0.20792 0.79907 0.00387 0.0
C341 C 0.19509 0.70511 0.06873 0.0
C342 C 0.19111 0.68721 0.05357 0.0
C343 C 0.20824 0.72102 0.05848 0.0
C344 C 0.21757 0.71935 0.03287 0.0
C345 C 0.21296 0.70176 0.01737 0.0
C346 C 0.20003 0.68576 0.02772 0.0
C347 C 0.23225 0.73589 0.02238 0.0
C348 C 0.22461 0.75637 0.0224 0.0
C349 C 0.25351 0.73151 0.01195 0.0
C350 C 0.26341 0.71055 0.01354 0.0
C351 C 0.27112 0.70067 0.99032 0.0
C352 C 0.28032 0.68087 0.99182 0.0
C353 C 0.28198 0.67084 0.01648 0.0
C354 C 0.27454 0.68061 0.03969 0.0
C355 C 0.26536 0.70041 0.0383 0.0
H356 H 0.28909 0.65551 0.01759 0.0
H357 H 0.20689 0.85029 0.01918 0.0
H358 H 0.32325 0.29009 0.57308 0.0
H359 H 0.3 0.26258 0.55469 0.0
H360 H 0.26562 0.30728 0.50604 0.0
H361 H 0.28871 0.33487 0.52445 0.0
H362 H 0.23714 0.2812 0.53168 0.0
H363 H 0.30289 0.27546 0.47815 0.0
H364 H 0.34292 0.27175 0.47015 0.0
H365 H 0.34274 0.21347 0.51122 0.0
H366 H 0.30274 0.21697 0.51979 0.0
H367 H 0.18235 0.21213 0.443 0.0
H368 H 0.20452 0.23934 0.4638 0.0
H369 H 0.24091 0.19331 0.5081 0.0
H370 H 0.21909 0.16602 0.48696 0.0
H371 H 0.26835 0.2199 0.48559 0.0
H372 H 0.20277 0.22503 0.53869 0.0
H373 H 0.1628 0.22857 0.54731 0.0
H374 H 0.1626 0.2876 0.50808 0.0
H375 H 0.20253 0.28429 0.4989 0.0
C376 C 0.31083 0.29403 0.55835 0.0
C377 C 0.30783 0.31461 0.55014 0.0
C378 C 0.29759 0.2783 0.54783 0.0
C379 C 0.28117 0.28289 0.52889 0.0
C380 C 0.27818 0.30343 0.52065 0.0
C381 C 0.29145 0.31914 0.53109 0.0
C382 C 0.26689 0.26631 0.51793 0.0
C383 C 0.24392 0.26791 0.52129 0.0
C384 C 0.27581 0.24874 0.50504 0.0
C385 C 0.29986 0.24658 0.49985 0.0
C386 C 0.31142 0.26193 0.48567 0.0
C387 C 0.3341 0.25985 0.48099 0.0
C388 C 0.34538 0.24241 0.49023 0.0
C389 C 0.33399 0.22699 0.50411 0.0
C390 C 0.31131 0.229 0.50886 0.0
C391 C 0.19491 0.20783 0.4574 0.0
C392 C 0.199 0.18696 0.46336 0.0
C393 C 0.20753 0.2234 0.46934 0.0
C394 C 0.22429 0.21838 0.48767 0.0
C395 C 0.22809 0.19754 0.494 0.0
C396 C 0.21556 0.18198 0.48199 0.0
C397 C 0.23853 0.23475 0.4993 0.0
C398 C 0.26153 0.23314 0.49604 0.0
C399 C 0.22962 0.25227 0.51238 0.0
C400 C 0.2056 0.25432 0.51788 0.0
C401 C 0.19417 0.23869 0.53171 0.0
C402 C 0.17153 0.24067 0.53673 0.0
C403 C 0.16016 0.25827 0.52819 0.0
C404 C 0.17142 0.27396 0.51466 0.0
C405 C 0.19406 0.27205 0.50956 0.0
H406 H 0.14263 0.25978 0.5321 0.0
H407 H 0.36294 0.24083 0.48659 0.0
H408 H 0.80258 0.70982 0.07312 0.0
H409 H 0.77922 0.73599 0.05184 0.0
H410 H 0.76565 0.69402 0.98691 0.0
H411 H 0.78892 0.66773 0.00814 0.0
H412 H 0.77513 0.73442 0.97 0.0
H413 H 0.72795 0.69972 0.0329 0.0
H414 H 0.7175 0.68616 0.07719 0.0
H415 H 0.71953 0.74751 0.10979 0.0
H416 H 0.73032 0.76141 0.06576 0.0
H417 H 0.68548 0.78989 0.91389 0.0
H418 H 0.7074 0.76231 0.93434 0.0
H419 H 0.71727 0.80009 0.00439 0.0
H420 H 0.69504 0.82756 0.98426 0.0
H421 H 0.70929 0.76097 0.01826 0.0
H422 H 0.75727 0.79586 0.95667 0.0
H423 H 0.7686 0.81003 0.91301 0.0
H424 H 0.76614 0.74927 0.87862 0.0
H425 H 0.75447 0.73478 0.92202 0.0
C426 C 0.79475 0.70622 0.05422 0.0
C427 C 0.79749 0.68672 0.04232 0.0
C428 C 0.78135 0.72114 0.04215 0.0
C429 C 0.77056 0.71684 0.01795 0.0
C430 C 0.77382 0.69761 0.00562 0.0
C431 C 0.78706 0.68261 0.01779 0.0
C432 C 0.75553 0.73227 0.0058 0.0
C433 C 0.76055 0.74004 0.98035 0.0
C434 C 0.73681 0.73987 0.01963 0.0
C435 C 0.73016 0.73158 0.04609 0.0
C436 C 0.72634 0.7103 0.04956 0.0
C437 C 0.72033 0.70255 0.07461 0.0
C438 C 0.71791 0.71596 0.09631 0.0
C439 C 0.72144 0.73714 0.09298 0.0
C440 C 0.72749 0.74497 0.06797 0.0
C441 C 0.69216 0.79224 0.93375 0.0
C442 C 0.68865 0.81091 0.94743 0.0
C443 C 0.70477 0.77651 0.94535 0.0
C444 C 0.71426 0.77927 0.97072 0.0
C445 C 0.71016 0.79765 0.98476 0.0
C446 C 0.69749 0.81334 0.97322 0.0
C447 C 0.7289 0.76324 0.98242 0.0
C448 C 0.72381 0.75534 0.00782 0.0
C449 C 0.74765 0.75562 0.96861 0.0
C450 C 0.75476 0.76427 0.94252 0.0
C451 C 0.75897 0.78555 0.93975 0.0
C452 C 0.76548 0.79363 0.91506 0.0
C453 C 0.76803 0.78056 0.89304 0.0
C454 C 0.76412 0.75938 0.89569 0.0
C455 C 0.75757 0.75122 0.92033 0.0
H456 H 0.77308 0.78685 0.87394 0.0
H457 H 0.71325 0.70993 0.11569 0.0
H458 H 0.82996 0.21251 0.43409 0.0
H459 H 0.80823 0.24039 0.45434 0.0
H460 H 0.76716 0.1953 0.49398 0.0
H461 H 0.78868 0.16743 0.47373 0.0
H462 H 0.74266 0.22468 0.46936 0.0
H463 H 0.80492 0.22246 0.52882 0.0
H464 H 0.84443 0.22299 0.54092 0.0
H465 H 0.85089 0.28381 0.50748 0.0
H466 H 0.81145 0.28353 0.49484 0.0
H467 H 0.68666 0.29028 0.5609 0.0
H468 H 0.70955 0.26337 0.5405 0.0
H469 H 0.74923 0.31011 0.50202 0.0
H470 H 0.7265 0.3371 0.52249 0.0
H471 H 0.77471 0.2805 0.52519 0.0
H472 H 0.71243 0.28295 0.4662 0.0
H473 H 0.67293 0.28248 0.45402 0.0
H474 H 0.66657 0.22128 0.48632 0.0
H475 H 0.70599 0.22149 0.49905 0.0
C476 C 0.81641 0.20857 0.44729 0.0
C477 C 0.81102 0.18781 0.45234 0.0
C478 C 0.80404 0.2245 0.45889 0.0
C479 C 0.78613 0.21991 0.47575 0.0
C480 C 0.78089 0.19918 0.48099 0.0
C481 C 0.79326 0.18328 0.46949 0.0
C482 C 0.77238 0.23665 0.48734 0.0
C483 C 0.74962 0.23674 0.48186 0.0
C484 C 0.78157 0.25267 0.50305 0.0
C485 C 0.80529 0.25288 0.51062 0.0
C486 C 0.81481 0.23587 0.52383 0.0
C487 C 0.83718 0.23614 0.53083 0.0
C488 C 0.85018 0.2534 0.5249 0.0
C489 C 0.84081 0.27044 0.51202 0.0
C490 C 0.81844 0.27024 0.50495 0.0
C491 C 0.70019 0.29481 0.54798 0.0
C492 C 0.70475 0.31579 0.54322 0.0
C493 C 0.71322 0.27943 0.5363 0.0
C494 C 0.731 0.28474 0.51958 0.0
C495 C 0.7356 0.30568 0.51484 0.0
C496 C 0.72254 0.32107 0.52646 0.0
C497 C 0.74497 0.26845 0.50734 0.0
C498 C 0.76777 0.26846 0.51266 0.0
C499 C 0.73582 0.25251 0.49146 0.0
C500 C 0.71211 0.25232 0.48382 0.0
C501 C 0.70257 0.26946 0.47092 0.0
C502 C 0.6802 0.26923 0.46388 0.0
C503 C 0.66724 0.25188 0.46946 0.0
C504 C 0.67663 0.23471 0.48204 0.0
C505 C 0.69898 0.23487 0.48915 0.0
H506 H 0.64992 0.25173 0.46398 0.0
H507 H 0.8675 0.25358 0.53034 0.0
H508 H 0.81524 0.28851 0.93733 0.0
H509 H 0.79252 0.26115 0.95701 0.0
H510 H 0.76084 0.30595 0.00811 0.0
H511 H 0.78367 0.33333 0.98875 0.0
H512 H 0.77053 0.2707 0.03504 0.0
H513 H 0.73519 0.28909 0.95242 0.0
H514 H 0.73334 0.29537 0.90386 0.0
H515 H 0.75168 0.23233 0.88876 0.0
H516 H 0.75396 0.22575 0.93726 0.0
H517 H 0.67925 0.20834 0.07374 0.0
H518 H 0.70147 0.2364 0.05481 0.0
H519 H 0.73312 0.19311 0.00151 0.0
H520 H 0.71074 0.16511 0.02001 0.0
H521 H 0.723 0.22812 0.97587 0.0
H522 H 0.75819 0.2096 0.05843 0.0
H523 H 0.76011 0.20323 0.10691 0.0
H524 H 0.74258 0.26644 0.12228 0.0
H525 H 0.74 0.27306 0.07381 0.0
C526 C 0.80355 0.2925 0.95289 0.0
C527 C 0.80115 0.31307 0.96142 0.0
C528 C 0.79051 0.27688 0.96403 0.0
C529 C 0.77477 0.28157 0.98376 0.0
C530 C 0.77284 0.302 0.99287 0.0
C531 C 0.78586 0.31763 0.98174 0.0
C532 C 0.76001 0.26527 0.99453 0.0
C533 C 0.75992 0.26156 0.02217 0.0
C534 C 0.74648 0.2531 0.97765 0.0
C535 C 0.74496 0.25698 0.94847 0.0
C536 C 0.73899 0.2766 0.93874 0.0
C537 C 0.73784 0.28021 0.91123 0.0
C538 C 0.74244 0.26427 0.89323 0.0
C539 C 0.74815 0.24467 0.90272 0.0
C540 C 0.74936 0.24099 0.93022 0.0
C541 C 0.69085 0.20485 0.05787 0.0
C542 C 0.69333 0.18453 0.04842 0.0
C543 C 0.7036 0.22087 0.04716 0.0
C544 C 0.71917 0.2168 0.02699 0.0
C545 C 0.72124 0.1966 0.01709 0.0
C546 C 0.70848 0.18061 0.02773 0.0
C547 C 0.73357 0.23347 0.0164 0.0
C548 C 0.73358 0.23726 0.98878 0.0
C549 C 0.74704 0.24569 0.03331 0.0
C550 C 0.74868 0.24177 0.06247 0.0
C551 C 0.75455 0.2221 0.07214 0.0
C552 C 0.75579 0.21845 0.09963 0.0
C553 C 0.75148 0.23442 0.11768 0.0
C554 C 0.74589 0.25408 0.10827 0.0
C555 C 0.74452 0.25778 0.08079 0.0
H556 H 0.75251 0.2316 0.13896 0.0
H557 H 0.74154 0.2671 0.87194 0.0
H558 H 0.79146 0.83632 0.5238 0.0
H559 H 0.76833 0.80858 0.50596 0.0
H560 H 0.80307 0.76426 0.5548 0.0
H561 H 0.82636 0.79198 0.57274 0.0
H562 H 0.79647 0.75038 0.50335 0.0
H563 H 0.75362 0.78008 0.57385 0.0
H564 H 0.73586 0.80828 0.59908 0.0
H565 H 0.6956 0.82302 0.53102 0.0
H566 H 0.71342 0.79513 0.50519 0.0
H567 H 0.7201 0.66845 0.48751 0.0
H568 H 0.74283 0.69554 0.50761 0.0
H569 H 0.70826 0.7416 0.46133 0.0
H570 H 0.68523 0.71455 0.44136 0.0
H571 H 0.71486 0.7542 0.51267 0.0
H572 H 0.75866 0.72483 0.44194 0.0
H573 H 0.77669 0.69662 0.41698 0.0
H574 H 0.81527 0.68108 0.48616 0.0
H575 H 0.79723 0.70903 0.51167 0.0
C576 C 0.79426 0.82065 0.53065 0.0
C577 C 0.81067 0.81631 0.54973 0.0
C578 C 0.78097 0.80485 0.52052 0.0
C579 C 0.78382 0.78442 0.52931 0.0
C580 C 0.80058 0.77994 0.54784 0.0
C581 C 0.81383 0.79578 0.55808 0.0
C582 C 0.76916 0.7678 0.51927 0.0
C583 C 0.77865 0.75105 0.50571 0.0
C584 C 0.74589 0.76892 0.52196 0.0
C585 C 0.73502 0.78563 0.5375 0.0
C586 C 0.74111 0.78944 0.56418 0.0
C587 C 0.73101 0.80535 0.57861 0.0
C588 C 0.71464 0.81745 0.56666 0.0
C589 C 0.7083 0.81364 0.54025 0.0
C590 C 0.71839 0.79778 0.52571 0.0
C591 C 0.71724 0.68436 0.48173 0.0
C592 C 0.70097 0.68939 0.46276 0.0
C593 C 0.7303 0.69981 0.49315 0.0
C594 C 0.72745 0.72055 0.48568 0.0
C595 C 0.71077 0.72568 0.46732 0.0
C596 C 0.69767 0.71022 0.45589 0.0
C597 C 0.74217 0.73682 0.4966 0.0
C598 C 0.73268 0.75351 0.51035 0.0
C599 C 0.76546 0.73562 0.49414 0.0
C600 C 0.77644 0.71889 0.47878 0.0
C601 C 0.77087 0.7153 0.45189 0.0
C602 C 0.78111 0.69937 0.43763 0.0
C603 C 0.79708 0.68703 0.45 0.0
C604 C 0.80288 0.69064 0.47662 0.0
C605 C 0.79267 0.70653 0.49098 0.0
H606 H 0.80499 0.67471 0.43893 0.0
H607 H 0.70683 0.82976 0.57787 0.0
H608 H 0.32003 0.06503 0.08224 0.0
H609 H 0.31918 0.0303 0.06307 0.0
H610 H 0.3433 0.05443 0.98812 0.0
H611 H 0.34368 0.08932 0.00704 0.0
H612 H 0.31103 0.02745 0.97968 0.0
H613 H 0.37755 0.02861 0.03194 0.0
H614 H 0.39999 0.03385 0.07252 0.0
H615 H 0.36232 0.98739 0.11355 0.0
H616 H 0.33944 0.98207 0.0733 0.0
H617 H 0.34707 0.93339 0.92143 0.0
H618 H 0.34577 0.96783 0.94146 0.0
H619 H 0.31673 0.94219 0.01289 0.0
H620 H 0.31804 0.90759 0.99296 0.0
H621 H 0.3506 0.96951 0.0237 0.0
H622 H 0.28479 0.96787 0.97024 0.0
H623 H 0.2631 0.96261 0.92907 0.0
H624 H 0.30049 0.01006 0.8896 0.0
H625 H 0.32263 0.0154 0.93043 0.0
C626 C 0.32513 0.06293 0.06167 0.0
C627 C 0.33201 0.07986 0.04615 0.0
C628 C 0.32473 0.04307 0.05077 0.0
C629 C 0.33148 0.03971 0.02427 0.0
C630 C 0.33806 0.05665 0.00863 0.0
C631 C 0.33833 0.07656 0.01947 0.0
C632 C 0.33167 0.01855 0.01284 0.0
C633 C 0.31992 0.01485 0.98913 0.0
C634 C 0.34285 0.00199 0.0255 0.0
C635 C 0.35664 0.00509 0.04969 0.0
C636 C 0.37394 0.01962 0.04968 0.0
C637 C 0.38676 0.02259 0.07261 0.0
C638 C 0.38254 0.011 0.09562 0.0
C639 C 0.36554 0.99638 0.09572 0.0
C640 C 0.35266 0.99337 0.07285 0.0
C641 C 0.34039 0.93508 0.94139 0.0
C642 C 0.33261 0.91783 0.95563 0.0
C643 C 0.33958 0.95477 0.95276 0.0
C644 C 0.33096 0.95757 0.97855 0.0
C645 C 0.3234 0.94034 0.99294 0.0
C646 C 0.32411 0.92062 0.98152 0.0
C647 C 0.33006 0.97849 0.99053 0.0
C648 C 0.34168 0.98213 0.01432 0.0
C649 C 0.31887 0.99501 0.97788 0.0
C650 C 0.30551 0.9919 0.95333 0.0
C651 C 0.28851 0.97707 0.95272 0.0
C652 C 0.27611 0.97409 0.92945 0.0
C653 C 0.28045 0.98596 0.90671 0.0
C654 C 0.29716 0.00086 0.90722 0.0
C655 C 0.30963 0.00389 0.93042 0.0
H656 H 0.27083 0.98363 0.88872 0.0
H657 H 0.39249 0.01332 0.11336 0.0
H658 H 0.20603 0.91475 0.52625 0.0
H659 H 0.2076 0.9488 0.505 0.0
H660 H 0.14251 0.9628 0.53549 0.0
H661 H 0.14054 0.92851 0.55575 0.0
H662 H 0.1447 0.97569 0.48729 0.0
H663 H 0.19174 0.98263 0.56367 0.0
H664 H 0.22248 0.9739 0.59401 0.0
H665 H 0.26906 0.98372 0.53049 0.0
H666 H 0.23854 0.99225 0.49965 0.0
H667 H 0.15004 0.08598 0.48276 0.0
H668 H 0.15162 0.05069 0.50038 0.0
H669 H 0.20116 0.03495 0.44185 0.0
H670 H 0.19923 0.07017 0.42356 0.0
H671 H 0.20823 0.02294 0.50171 0.0
H672 H 0.15828 0.01739 0.42617 0.0
H673 H 0.12615 0.02845 0.39941 0.0
H674 H 0.08337 0.01824 0.46661 0.0
H675 H 0.11533 0.00742 0.49391 0.0
C676 C 0.19207 0.92512 0.52837 0.0
C677 C 0.17318 0.91903 0.54269 0.0
C678 C 0.19302 0.94461 0.51635 0.0
C679 C 0.1753 0.95854 0.51894 0.0
C680 C 0.15639 0.95236 0.53315 0.0
C681 C 0.1553 0.93278 0.5448 0.0
C682 C 0.17629 0.97948 0.50675 0.0
C683 C 0.15855 0.98602 0.49069 0.0
C684 C 0.19445 0.99299 0.51081 0.0
C685 C 0.21284 0.98784 0.52928 0.0
C686 C 0.20852 0.98276 0.55611 0.0
C687 C 0.22591 0.97788 0.57341 0.0
C688 C 0.2477 0.97819 0.56416 0.0
C689 C 0.25216 0.98344 0.53761 0.0
C690 C 0.23483 0.98831 0.52021 0.0
C691 C 0.16134 0.07503 0.47371 0.0
C692 C 0.17449 0.08075 0.45178 0.0
C693 C 0.16219 0.05492 0.48376 0.0
C694 C 0.17648 0.04033 0.47234 0.0
C695 C 0.19006 0.04609 0.45088 0.0
C696 C 0.18888 0.06612 0.44044 0.0
C697 C 0.1767 0.01891 0.48255 0.0
C698 C 0.19457 0.0124 0.49824 0.0
C699 C 0.1585 0.00558 0.47864 0.0
C700 C 0.13923 0.0118 0.46215 0.0
C701 C 0.14205 0.01768 0.43531 0.0
C702 C 0.12387 0.02387 0.42003 0.0
C703 C 0.10274 0.02411 0.43132 0.0
C704 C 0.09975 0.01808 0.4579 0.0
C705 C 0.11789 0.0119 0.47328 0.0
H706 H 0.08868 0.02893 0.41947 0.0
H707 H 0.26114 0.97441 0.57758 0.0
H708 H 0.69181 0.91845 0.95858 0.0
H709 H 0.69056 0.95222 0.98042 0.0
H710 H 0.62377 0.96107 0.95219 0.0
H711 H 0.6253 0.92765 0.92942 0.0
H712 H 0.64447 0.99545 0.94784 0.0
H713 H 0.63569 0.94656 0.01812 0.0
H714 H 0.64464 0.91605 0.04562 0.0
H715 H 0.70653 0.94356 0.06803 0.0
H716 H 0.69808 0.97413 0.04037 0.0
H717 H 0.63897 0.06262 0.07856 0.0
H718 H 0.637 0.02908 0.05607 0.0
H719 H 0.67633 0.05311 0.99112 0.0
H720 H 0.6776 0.08683 0.01304 0.0
H721 H 0.66586 0.00182 0.04321 0.0
H722 H 0.66317 0.03056 0.93299 0.0
H723 H 0.64892 0.0603 0.90736 0.0
H724 H 0.60034 0.07175 0.96817 0.0
H725 H 0.61409 0.04193 0.99398 0.0
C726 C 0.67691 0.92766 0.95694 0.0
C727 C 0.65863 0.92042 0.94239 0.0
C728 C 0.67615 0.9469 0.96957 0.0
C729 C 0.65692 0.95906 0.9684 0.0
C730 C 0.63878 0.95198 0.95343 0.0
C731 C 0.63966 0.93287 0.94046 0.0
C732 C 0.65569 0.97911 0.98283 0.0
C733 C 0.64914 0.99683 0.9687 0.0
C734 C 0.6612 0.98088 0.01026 0.0
C735 C 0.66633 0.96255 0.02698 0.0
C736 C 0.65128 0.94604 0.02877 0.0
C737 C 0.65625 0.92875 0.0444 0.0
C738 C 0.67616 0.92784 0.05851 0.0
C739 C 0.69112 0.94427 0.05707 0.0
C740 C 0.68624 0.96159 0.04143 0.0
C741 C 0.64713 0.06073 0.05944 0.0
C742 C 0.65833 0.07734 0.04746 0.0
C743 C 0.64604 0.04156 0.04664 0.0
C744 C 0.65626 0.03861 0.02171 0.0
C745 C 0.66786 0.05511 0.01002 0.0
C746 C 0.66869 0.07435 0.02263 0.0
C747 C 0.65503 0.01822 0.00809 0.0
C748 C 0.66115 0.00044 0.02237 0.0
C749 C 0.64836 0.01628 0.98106 0.0
C750 C 0.63982 0.03413 0.96553 0.0
C751 C 0.64939 0.03938 0.94084 0.0
C752 C 0.64141 0.05626 0.92629 0.0
C753 C 0.62378 0.06794 0.93617 0.0
C754 C 0.61405 0.06273 0.96059 0.0
C755 C 0.62195 0.04586 0.9752 0.0
H756 H 0.61764 0.08101 0.92489 0.0
H757 H 0.67998 0.91444 0.07061 0.0
H758 H 0.8287 0.0902 0.48348 0.0
H759 H 0.8298 0.05584 0.50367 0.0
H760 H 0.85271 0.03012 0.42908 0.0
H761 H 0.85117 0.06447 0.40856 0.0
H762 H 0.82225 0.0056 0.4516 0.0
H763 H 0.88865 0.03934 0.48055 0.0
H764 H 0.9107 0.06738 0.50062 0.0
H765 H 0.87661 0.05937 0.57519 0.0
H766 H 0.85412 0.03146 0.55545 0.0
H767 H 0.85669 0.90973 0.50781 0.0
H768 H 0.85614 0.94319 0.48499 0.0
H769 H 0.8343 0.9726 0.55777 0.0
H770 H 0.83538 0.93931 0.58083 0.0
H771 H 0.8655 0.99488 0.53473 0.0
H772 H 0.79837 0.96178 0.5053 0.0
H773 H 0.77626 0.93382 0.48511 0.0
H774 H 0.81188 0.94058 0.41138 0.0
H775 H 0.83441 0.9684 0.43126 0.0
C776 C 0.83388 0.07721 0.47134 0.0
C777 C 0.83997 0.08002 0.44449 0.0
C778 C 0.8346 0.0576 0.48294 0.0
C779 C 0.84171 0.04047 0.46802 0.0
C780 C 0.84726 0.04314 0.44099 0.0
C781 C 0.84641 0.06276 0.42931 0.0
C782 C 0.84357 0.01983 0.48076 0.0
C783 C 0.83196 0.00317 0.46957 0.0
C784 C 0.85593 0.01676 0.50446 0.0
C785 C 0.86957 0.03342 0.51644 0.0
C786 C 0.88575 0.04365 0.50118 0.0
C787 C 0.89834 0.05951 0.5125 0.0
C788 C 0.89503 0.06518 0.53914 0.0
C789 C 0.87914 0.05497 0.55454 0.0
C790 C 0.86649 0.03911 0.5433 0.0
C791 C 0.85179 0.92335 0.51892 0.0
C792 C 0.84602 0.92192 0.54607 0.0
C793 C 0.85138 0.94244 0.50584 0.0
C794 C 0.84488 0.96037 0.51957 0.0
C795 C 0.83935 0.95897 0.54677 0.0
C796 C 0.83992 0.93994 0.5599 0.0
C797 C 0.84398 0.98067 0.50577 0.0
C798 C 0.85583 0.99727 0.51673 0.0
C799 C 0.83185 0.98367 0.48187 0.0
C800 C 0.81822 0.96703 0.46985 0.0
C801 C 0.80159 0.9572 0.48484 0.0
C802 C 0.78897 0.94139 0.47344 0.0
C803 C 0.7927 0.93539 0.447 0.0
C804 C 0.80903 0.94522 0.43187 0.0
C805 C 0.82172 0.96102 0.44319 0.0
H806 H 0.78291 0.92315 0.43821 0.0
H807 H 0.90479 0.07747 0.54787 0.0
H808 H 0.82947 0.40886 0.99764 0.0
H809 H 0.82839 0.44349 0.01741 0.0
H810 H 0.83464 0.47058 0.939 0.0
H811 H 0.83555 0.43602 0.91906 0.0
H812 H 0.86313 0.48807 0.97779 0.0
H813 H 0.78608 0.4707 0.96678 0.0
H814 H 0.75298 0.44887 0.97232 0.0
H815 H 0.75876 0.45353 0.05764 0.0
H816 H 0.7921 0.47516 0.0526 0.0
H817 H 0.83628 0.59163 0.0084 0.0
H818 H 0.8365 0.55693 0.98904 0.0
H819 H 0.82135 0.53092 0.06632 0.0
H820 H 0.82063 0.56563 0.08569 0.0
H821 H 0.79767 0.51246 0.02863 0.0
H822 H 0.87362 0.52957 0.04124 0.0
H823 H 0.90718 0.55095 0.03752 0.0
H824 H 0.90495 0.54578 0.95201 0.0
H825 H 0.87106 0.52469 0.95519 0.0
C826 C 0.8306 0.4222 0.98463 0.0
C827 C 0.83252 0.41977 0.95681 0.0
C828 C 0.82994 0.44194 0.99593 0.0
C829 C 0.83133 0.45955 0.97962 0.0
C830 C 0.83355 0.45716 0.95189 0.0
C831 C 0.83398 0.43743 0.94055 0.0
C832 C 0.83037 0.48048 0.99148 0.0
C833 C 0.84873 0.49354 0.98862 0.0
C834 C 0.81182 0.4873 0.00625 0.0
C835 C 0.79172 0.47437 0.00931 0.0
C836 C 0.7804 0.46692 0.98672 0.0
C837 C 0.76158 0.45461 0.98977 0.0
C838 C 0.75381 0.44977 0.01531 0.0
C839 C 0.76482 0.45727 0.03786 0.0
C840 C 0.78367 0.46957 0.03492 0.0
C841 C 0.83292 0.57852 0.02124 0.0
C842 C 0.82853 0.58131 0.04857 0.0
C843 C 0.83315 0.5587 0.01018 0.0
C844 C 0.82926 0.5413 0.02632 0.0
C845 C 0.82443 0.54411 0.05352 0.0
C846 C 0.82408 0.56394 0.06456 0.0
C847 C 0.83041 0.52018 0.01486 0.0
C848 C 0.8121 0.50705 0.01782 0.0
C849 C 0.84914 0.5132 0.00047 0.0
C850 C 0.86966 0.52571 0.99845 0.0
C851 C 0.88018 0.53312 0.02163 0.0
C852 C 0.89928 0.54518 0.01962 0.0
C853 C 0.90819 0.54975 0.99455 0.0
C854 C 0.89802 0.54225 0.97142 0.0
C855 C 0.87886 0.53024 0.97332 0.0
H856 H 0.92299 0.55908 0.99304 0.0
H857 H 0.73922 0.44024 0.01763 0.0
H858 H 0.6706 0.40897 0.50522 0.0
H859 H 0.67044 0.44333 0.48458 0.0
H860 H 0.66973 0.47148 0.56272 0.0
H861 H 0.66999 0.43723 0.58347 0.0
H862 H 0.63871 0.48837 0.52796 0.0
H863 H 0.71616 0.47128 0.52851 0.0
H864 H 0.74882 0.44971 0.5189 0.0
H865 H 0.73546 0.45384 0.43479 0.0
H866 H 0.70251 0.4752 0.44393 0.0
H867 H 0.66503 0.59172 0.49585 0.0
H868 H 0.66541 0.55664 0.51397 0.0
H869 H 0.67091 0.53188 0.43418 0.0
H870 H 0.67081 0.56702 0.41591 0.0
H871 H 0.69879 0.5126 0.46811 0.0
H872 H 0.62211 0.53012 0.46674 0.0
H873 H 0.58912 0.55142 0.47562 0.0
H874 H 0.60022 0.54599 0.56009 0.0
H875 H 0.63349 0.52489 0.5517 0.0
C876 C 0.67046 0.4225 0.51798 0.0
C877 C 0.67035 0.42045 0.54594 0.0
C878 C 0.67043 0.44208 0.50618 0.0
C879 C 0.67018 0.45991 0.52216 0.0
C880 C 0.66992 0.45789 0.55007 0.0
C881 C 0.67015 0.43834 0.56187 0.0
C882 C 0.66993 0.48072 0.50982 0.0
C883 C 0.65196 0.49379 0.51513 0.0
C884 C 0.68692 0.48748 0.49247 0.0
C885 C 0.70673 0.47465 0.48693 0.0
C886 C 0.72007 0.46743 0.50798 0.0
C887 C 0.73866 0.45528 0.50262 0.0
C888 C 0.74417 0.45035 0.47626 0.0
C889 C 0.73114 0.45763 0.4552 0.0
C890 C 0.71252 0.46977 0.46046 0.0
C891 C 0.66632 0.57881 0.48216 0.0
C892 C 0.6678 0.58209 0.45447 0.0
C893 C 0.66645 0.55877 0.49253 0.0
C894 C 0.66791 0.54164 0.4754 0.0
C895 C 0.66971 0.54489 0.44775 0.0
C896 C 0.66959 0.56494 0.43735 0.0
C897 C 0.66764 0.52037 0.48644 0.0
C898 C 0.68549 0.50719 0.48086 0.0
C899 C 0.65045 0.51344 0.50343 0.0
C900 C 0.63042 0.52609 0.50858 0.0
C901 C 0.61762 0.53361 0.4872 0.0
C902 C 0.59885 0.54562 0.49215 0.0
C903 C 0.59261 0.5501 0.5184 0.0
C904 C 0.60509 0.54253 0.53977 0.0
C905 C 0.6239 0.53053 0.53493 0.0
H906 H 0.57806 0.5594 0.52219 0.0
H907 H 0.75858 0.44095 0.47214 0.0
H908 H 0.15792 0.56209 0.08586 0.0
H909 H 0.15894 0.5284 0.06386 0.0
H910 H 0.16321 0.55837 0.98699 0.0
H911 H 0.1618 0.5922 0.0089 0.0
H912 H 0.13404 0.52719 0.98588 0.0
H913 H 0.20869 0.53634 0.01563 0.0
H914 H 0.23829 0.54365 0.04817 0.0
H915 H 0.21835 0.49127 0.09505 0.0
H916 H 0.18842 0.48382 0.06297 0.0
H917 H 0.16518 0.43784 0.91237 0.0
H918 H 0.16521 0.47196 0.93342 0.0
H919 H 0.15862 0.44348 0.01099 0.0
H920 H 0.15875 0.40927 0.99007 0.0
H921 H 0.18951 0.47412 0.01103 0.0
H922 H 0.11451 0.46537 0.9815 0.0
H923 H 0.08497 0.45809 0.94886 0.0
H924 H 0.10582 0.50981 0.90133 0.0
H925 H 0.13569 0.51722 0.93351 0.0
C926 C 0.1591 0.56151 0.06427 0.0
C927 C 0.15986 0.57977 0.04908 0.0
C928 C 0.15978 0.54225 0.05174 0.0
C929 C 0.16144 0.54087 0.0238 0.0
C930 C 0.16198 0.55909 0.00857 0.0
C931 C 0.16123 0.57838 0.0211 0.0
C932 C 0.16233 0.5204 0.01051 0.0
C933 C 0.14637 0.5157 0.99108 0.0
C934 C 0.17813 0.50524 0.01774 0.0
C935 C 0.19618 0.50964 0.03702 0.0
C936 C 0.21051 0.52647 0.03298 0.0
C937 C 0.22737 0.53063 0.05133 0.0
C938 C 0.23017 0.51796 0.07369 0.0
C939 C 0.21615 0.50108 0.07773 0.0
C940 C 0.19925 0.49687 0.05946 0.0
C941 C 0.16376 0.43885 0.93392 0.0
C942 C 0.1619 0.42091 0.94959 0.0
C943 C 0.1637 0.45835 0.94589 0.0
C944 C 0.16169 0.46025 0.97374 0.0
C945 C 0.16016 0.44234 0.98946 0.0
C946 C 0.16018 0.42283 0.97749 0.0
C947 C 0.16119 0.48092 0.98647 0.0
C948 C 0.17722 0.48565 0.00579 0.0
C949 C 0.14548 0.49611 0.97911 0.0
C950 C 0.12748 0.49172 0.95978 0.0
C951 C 0.11291 0.47509 0.96398 0.0
C952 C 0.09609 0.47096 0.94558 0.0
C953 C 0.09356 0.48344 0.923 0.0
C954 C 0.10782 0.50013 0.91881 0.0
C955 C 0.12469 0.50431 0.93713 0.0
H956 H 0.08052 0.48022 0.90878 0.0
H957 H 0.24323 0.52121 0.08787 0.0
H958 H 0.34929 0.56239 0.41033 0.0
H959 H 0.34994 0.52798 0.43066 0.0
H960 H 0.33605 0.55488 0.50775 0.0
H961 H 0.33564 0.58933 0.48762 0.0
H962 H 0.36864 0.52642 0.51081 0.0
H963 H 0.29577 0.53056 0.47241 0.0
H964 H 0.26875 0.53612 0.43621 0.0
H965 H 0.29738 0.48617 0.39155 0.0
H966 H 0.32479 0.4805 0.42734 0.0
H967 H 0.33664 0.43736 0.58265 0.0
H968 H 0.33707 0.47086 0.5601 0.0
H969 H 0.35036 0.44064 0.48494 0.0
H970 H 0.34964 0.40698 0.50737 0.0
H971 H 0.31921 0.47021 0.47948 0.0
H972 H 0.39137 0.4653 0.51805 0.0
H973 H 0.41864 0.45965 0.55395 0.0
H974 H 0.39185 0.51091 0.59779 0.0
H975 H 0.36419 0.51669 0.56232 0.0
C976 C 0.34636 0.56096 0.43161 0.0
C977 C 0.34235 0.57853 0.44739 0.0
C978 C 0.34666 0.54129 0.44317 0.0
C979 C 0.34283 0.53885 0.47068 0.0
C980 C 0.33903 0.55641 0.48649 0.0
C981 C 0.33873 0.57607 0.47495 0.0
C982 C 0.34293 0.51803 0.48307 0.0
C983 C 0.35764 0.5142 0.50418 0.0
C984 C 0.32902 0.50193 0.4739 0.0
C985 C 0.31247 0.50525 0.45243 0.0
C986 C 0.29642 0.52087 0.45478 0.0
C987 C 0.28101 0.52402 0.43435 0.0
C988 C 0.28139 0.51155 0.41156 0.0
C989 C 0.29713 0.49585 0.40919 0.0
C990 C 0.31259 0.49264 0.42955 0.0
C991 C 0.33965 0.43784 0.56132 0.0
C992 C 0.34319 0.41957 0.54678 0.0
C993 C 0.33998 0.457 0.54848 0.0
C994 C 0.34403 0.45827 0.5209 0.0
C995 C 0.34726 0.44001 0.50625 0.0
C996 C 0.34691 0.42082 0.51909 0.0
C997 C 0.34477 0.47866 0.50739 0.0
C998 C 0.33025 0.48241 0.48605 0.0
C999 C 0.3589 0.49468 0.5163 0.0
C1000 C 0.37558 0.49131 0.53763 0.0
C1001 C 0.39118 0.47527 0.53544 0.0
C1002 C 0.40673 0.47206 0.5557 0.0
C1003 C 0.40694 0.48488 0.57816 0.0
C1004 C 0.39164 0.50098 0.58039 0.0
C1005 C 0.37604 0.50424 0.5602 0.0
H1006 H 0.41899 0.48237 0.59382 0.0
H1007 H 0.26945 0.51402 0.39577 0.0
H1008 H 0.58787 0.13261 0.12652 0.0
H1009 H 0.54753 0.135 0.12653 0.0
H1010 H 0.54909 0.16104 0.04719 0.0
H1011 H 0.58956 0.15879 0.04708 0.0
H1012 H 0.51905 0.18089 0.08034 0.0
H1013 H 0.53712 0.11146 0.05443 0.0
H1014 H 0.55544 0.07759 0.0589 0.0
H1015 H 0.52229 0.06743 0.13365 0.0
H1016 H 0.50401 0.1014 0.12982 0.0
H1017 H 0.40615 0.16245 0.04686 0.0
H1018 H 0.44655 0.16411 0.04818 0.0
H1019 H 0.44637 0.13329 0.12467 0.0
H1020 H 0.40601 0.13121 0.12319 0.0
H1021 H 0.47595 0.11633 0.09264 0.0
H1022 H 0.45754 0.18554 0.11865 0.0
H1023 H 0.43939 0.21952 0.11456 0.0
H1024 H 0.47301 0.23026 0.04025 0.0
H1025 H 0.49114 0.1962 0.04372 0.0
C1026 C 0.57965 0.13899 0.10914 0.0
C1027 C 0.59186 0.14541 0.08673 0.0
C1028 C 0.5566 0.14029 0.10915 0.0
C1029 C 0.54531 0.14797 0.08674 0.0
C1030 C 0.55749 0.15503 0.06467 0.0
C1031 C 0.58058 0.15368 0.0646 0.0
C1032 C 0.5208 0.14795 0.08606 0.0
C1033 C 0.50959 0.16676 0.08269 0.0
C1034 C 0.5085 0.12956 0.08968 0.0
C1035 C 0.51937 0.10906 0.09196 0.0
C1036 C 0.53387 0.10208 0.07192 0.0
C1037 C 0.54423 0.08285 0.07432 0.0
C1038 C 0.54008 0.07039 0.09658 0.0
C1039 C 0.52552 0.07711 0.11644 0.0
C1040 C 0.51514 0.09634 0.11416 0.0
C1041 C 0.41472 0.15617 0.06405 0.0
C1042 C 0.40293 0.1467 0.08493 0.0
C1043 C 0.43781 0.1572 0.06483 0.0
C1044 C 0.44951 0.149 0.08665 0.0
C1045 C 0.43771 0.13973 0.10764 0.0
C1046 C 0.41464 0.1386 0.10681 0.0
C1047 C 0.47408 0.14931 0.08713 0.0
C1048 C 0.48534 0.13051 0.09036 0.0
C1049 C 0.48638 0.16773 0.08343 0.0
C1050 C 0.47553 0.18823 0.08132 0.0
C1051 C 0.46093 0.19508 0.10133 0.0
C1052 C 0.45067 0.21437 0.09914 0.0
C1053 C 0.455 0.22702 0.07712 0.0
C1054 C 0.46965 0.22043 0.05728 0.0
C1055 C 0.47994 0.20114 0.05936 0.0
H1056 H 0.44704 0.24195 0.07547 0.0
H1057 H 0.54811 0.0555 0.0984 0.0
H1058 H 0.91645 0.8379 0.55519 0.0
H1059 H 0.95666 0.83456 0.55744 0.0
H1060 H 0.95697 0.86705 0.63275 0.0
H1061 H 0.91674 0.87079 0.63033 0.0
H1062 H 0.9877 0.88209 0.60079 0.0
H1063 H 0.96647 0.81455 0.62928 0.0
H1064 H 0.94688 0.78118 0.62711 0.0
H1065 H 0.97956 0.7669 0.5532 0.0
H1066 H 0.99913 0.80034 0.55472 0.0
H1067 H 0.10055 0.86215 0.62918 0.0
H1068 H 0.06021 0.86043 0.63252 0.0
H1069 H 0.05676 0.83542 0.55274 0.0
H1070 H 0.09713 0.83718 0.54919 0.0
H1071 H 0.0279 0.81581 0.5893 0.0
H1072 H 0.0475 0.88449 0.56035 0.0
H1073 H 0.06732 0.91771 0.56336 0.0
H1074 H 0.03752 0.92947 0.63977 0.0
H1075 H 0.01778 0.89613 0.63739 0.0
C1076 C 0.92506 0.84419 0.57233 0.0
C1077 C 0.91345 0.85461 0.59259 0.0
C1078 C 0.94805 0.84218 0.57367 0.0
C1079 C 0.95984 0.85037 0.59541 0.0
C1080 C 0.94822 0.8606 0.6158 0.0
C1081 C 0.92524 0.86268 0.61443 0.0
C1082 C 0.98437 0.84911 0.59622 0.0
C1083 C 0.99645 0.86753 0.59876 0.0
C1084 C 0.99584 0.83018 0.593 0.0
C1085 C 0.98411 0.81005 0.592 0.0
C1086 C 0.96934 0.80438 0.61245 0.0
C1087 C 0.95827 0.78543 0.61136 0.0
C1088 C 0.96193 0.77195 0.59 0.0
C1089 C 0.97672 0.77737 0.56971 0.0
C1090 C 0.98782 0.79631 0.5707 0.0
C1091 C 0.09122 0.85607 0.61246 0.0
C1092 C 0.10197 0.84991 0.58885 0.0
C1093 C 0.06819 0.85514 0.61438 0.0
C1094 C 0.05553 0.84797 0.59279 0.0
C1095 C 0.06626 0.84101 0.56962 0.0
C1096 C 0.08929 0.84209 0.56759 0.0
C1097 C 0.03105 0.84875 0.59384 0.0
C1098 C 0.01905 0.83029 0.59156 0.0
C1099 C 0.01961 0.86762 0.59743 0.0
C1100 C 0.03136 0.88772 0.59882 0.0
C1101 C 0.04532 0.89408 0.5779 0.0
C1102 C 0.05651 0.91294 0.57947 0.0
C1103 C 0.05373 0.92567 0.60178 0.0
C1104 C 0.03969 0.91958 0.62252 0.0
C1105 C 0.02849 0.90071 0.62107 0.0
H1106 H 0.0624 0.94027 0.60296 0.0
H1107 H 0.95335 0.75729 0.58919 0.0
H1108 H 0.40474 0.84731 0.874 0.0
H1109 H 0.44505 0.84413 0.87254 0.0
H1110 H 0.44722 0.84374 0.95874 0.0
H1111 H 0.40699 0.84728 0.96032 0.0
H1112 H 0.47672 0.87 0.9391 0.0
H1113 H 0.45644 0.79955 0.92186 0.0
H1114 H 0.43707 0.77123 0.89866 0.0
H1115 H 0.46917 0.78763 0.82509 0.0
H1116 H 0.48851 0.81624 0.84779 0.0
H1117 H 0.58924 0.8447 0.95372 0.0
H1118 H 0.54896 0.8416 0.95483 0.0
H1119 H 0.54692 0.84458 0.86873 0.0
H1120 H 0.5873 0.8474 0.86745 0.0
H1121 H 0.51749 0.81631 0.88825 0.0
H1122 H 0.5368 0.88715 0.90496 0.0
H1123 H 0.55628 0.91557 0.92784 0.0
H1124 H 0.52569 0.89858 0.00211 0.0
H1125 H 0.50628 0.86984 0.97974 0.0
C1126 C 0.41381 0.84636 0.89263 0.0
C1127 C 0.40273 0.84756 0.91728 0.0
C1128 C 0.43683 0.84446 0.89178 0.0
C1129 C 0.44916 0.84353 0.91555 0.0
C1130 C 0.43806 0.84443 0.94016 0.0
C1131 C 0.41507 0.8464 0.94103 0.0
C1132 C 0.4737 0.84264 0.91483 0.0
C1133 C 0.48561 0.85805 0.92834 0.0
C1134 C 0.48533 0.8274 0.90016 0.0
C1135 C 0.47376 0.81017 0.88648 0.0
C1136 C 0.45924 0.79722 0.90069 0.0
C1137 C 0.44829 0.7811 0.88764 0.0
C1138 C 0.45185 0.77766 0.8604 0.0
C1139 C 0.46641 0.79032 0.84618 0.0
C1140 C 0.47739 0.80648 0.85914 0.0
C1141 C 0.58024 0.84446 0.93501 0.0
C1142 C 0.5914 0.84646 0.9105 0.0
C1143 C 0.55723 0.84276 0.93567 0.0
C1144 C 0.54493 0.84319 0.91188 0.0
C1145 C 0.5561 0.84427 0.88732 0.0
C1146 C 0.57915 0.84593 0.88664 0.0
C1147 C 0.5204 0.84355 0.91271 0.0
C1148 C 0.50854 0.82816 0.89913 0.0
C1149 C 0.50876 0.85883 0.92727 0.0
C1150 C 0.52026 0.87621 0.94072 0.0
C1151 C 0.53436 0.88938 0.92621 0.0
C1152 C 0.54536 0.90556 0.93908 0.0
C1153 C 0.54227 0.90884 0.96643 0.0
C1154 C 0.5281 0.89599 0.98094 0.0
C1155 C 0.51708 0.87976 0.96817 0.0
H1156 H 0.55081 0.92138 0.97636 0.0
H1157 H 0.44335 0.76517 0.85034 0.0
H1158 H 0.09266 0.12684 0.44698 0.0
H1159 H 0.05255 0.12944 0.44344 0.0
H1160 H 0.05941 0.17329 0.37902 0.0
H1161 H 0.09986 0.17083 0.38255 0.0
H1162 H 0.02686 0.18459 0.41574 0.0
H1163 H 0.04607 0.12546 0.36384 0.0
H1164 H 0.06461 0.09233 0.35433 0.0
H1165 H 0.02943 0.06362 0.41897 0.0
H1166 H 0.0109 0.09667 0.42913 0.0
H1167 H 0.91174 0.17117 0.37954 0.0
H1168 H 0.95226 0.17348 0.37803 0.0
H1169 H 0.95674 0.13111 0.44437 0.0
H1170 H 0.91644 0.12888 0.44617 0.0
H1171 H 0.98369 0.12031 0.40138 0.0
H1172 H 0.96658 0.1801 0.45496 0.0
H1173 H 0.94845 0.21336 0.46487 0.0
H1174 H 0.97969 0.24082 0.39646 0.0
H1175 H 0.99776 0.2076 0.38591 0.0
C1176 C 0.08569 0.13711 0.4321 0.0
C1177 C 0.09941 0.14855 0.41493 0.0
C1178 C 0.06274 0.13853 0.43005 0.0
C1179 C 0.05301 0.15135 0.41074 0.0
C1180 C 0.06662 0.16325 0.394 0.0
C1181 C 0.08968 0.16178 0.39598 0.0
C1182 C 0.02859 0.15188 0.40798 0.0
C1183 C 0.0174 0.17062 0.41208 0.0
C1184 C 0.01629 0.13359 0.40358 0.0
C1185 C 0.02722 0.1136 0.39738 0.0
C1186 C 0.0424 0.11212 0.37615 0.0
C1187 C 0.05289 0.09335 0.37062 0.0
C1188 C 0.04824 0.07589 0.38608 0.0
C1189 C 0.03303 0.07716 0.40703 0.0
C1190 C 0.0225 0.0959 0.41266 0.0
C1191 C 0.92139 0.1625 0.39393 0.0
C1192 C 0.91095 0.14985 0.41297 0.0
C1193 C 0.9445 0.16386 0.39306 0.0
C1194 C 0.95746 0.15246 0.4111 0.0
C1195 C 0.94702 0.13999 0.43025 0.0
C1196 C 0.924 0.13881 0.43131 0.0
C1197 C 0.98194 0.15292 0.40967 0.0
C1198 C 0.99314 0.13433 0.40472 0.0
C1199 C 0.99419 0.17135 0.4132 0.0
C1200 C 0.98329 0.1913 0.41945 0.0
C1201 C 0.9694 0.19317 0.44187 0.0
C1202 C 0.95918 0.21203 0.44764 0.0
C1203 C 0.96285 0.22917 0.43125 0.0
C1204 C 0.97681 0.22751 0.4091 0.0
C1205 C 0.98706 0.20867 0.40322 0.0
H1206 H 0.95493 0.24376 0.43576 0.0
H1207 H 0.0564 0.06137 0.38178 0.0
H1208 H 0.08748 0.66784 0.05821 0.0
H1209 H 0.04703 0.66992 0.05781 0.0
H1210 H 0.04396 0.62647 0.12312 0.0
H1211 H 0.08434 0.62429 0.12359 0.0
H1212 H 0.01596 0.61619 0.08235 0.0
H1213 H 0.03371 0.67674 0.13394 0.0
H1214 H 0.05216 0.71002 0.14285 0.0
H1215 H 0.02094 0.73661 0.07386 0.0
H1216 H 0.00253 0.70338 0.06432 0.0
H1217 H 0.90409 0.62466 0.11916 0.0
H1218 H 0.94444 0.62609 0.11952 0.0
H1219 H 0.94319 0.67105 0.05584 0.0
H1220 H 0.90266 0.66987 0.0556 0.0
H1221 H 0.9734 0.68117 0.09373 0.0
H1222 H 0.95504 0.62134 0.04232 0.0
H1223 H 0.93683 0.58811 0.03244 0.0
H1224 H 0.96945 0.56015 0.09953 0.0
H1225 H 0.98761 0.5933 0.11008 0.0
C1226 C 0.07818 0.65887 0.07261 0.0
C1227 C 0.08906 0.64591 0.09094 0.0
C1228 C 0.05509 0.66011 0.07241 0.0
C1229 C 0.04251 0.64841 0.09051 0.0
C1230 C 0.05337 0.63561 0.10896 0.0
C1231 C 0.07643 0.63444 0.10927 0.0
C1232 C 0.018 0.64893 0.08969 0.0
C1233 C 0.00663 0.63035 0.08519 0.0
C1234 C 0.0059 0.66752 0.09253 0.0
C1235 C 0.01693 0.68751 0.09825 0.0
C1236 C 0.03093 0.68963 0.12053 0.0
C1237 C 0.04135 0.70849 0.12573 0.0
C1238 C 0.03777 0.7254 0.10889 0.0
C1239 C 0.02372 0.72349 0.08686 0.0
C1240 C 0.01327 0.70465 0.08156 0.0
C1241 C 0.91238 0.63493 0.10532 0.0
C1242 C 0.90023 0.64708 0.08725 0.0
C1243 C 0.93545 0.63567 0.10547 0.0
C1244 C 0.94683 0.64844 0.08743 0.0
C1245 C 0.93473 0.66103 0.06986 0.0
C1246 C 0.9116 0.66031 0.06971 0.0
C1247 C 0.97135 0.64837 0.08675 0.0
C1248 C 0.98272 0.66702 0.09086 0.0
C1249 C 0.9835 0.62984 0.08338 0.0
C1250 C 0.97254 0.60988 0.07713 0.0
C1251 C 0.95819 0.60816 0.05511 0.0
C1252 C 0.9479 0.58932 0.04936 0.0
C1253 C 0.95196 0.57204 0.06538 0.0
C1254 C 0.96631 0.57356 0.08716 0.0
C1255 C 0.97662 0.59236 0.09302 0.0
H1256 H 0.94404 0.55746 0.06087 0.0
H1257 H 0.04585 0.73999 0.11295 0.0
H1258 H 0.59584 0.37736 0.61637 0.0
H1259 H 0.55564 0.37424 0.61766 0.0
H1260 H 0.55831 0.32732 0.55647 0.0
H1261 H 0.59866 0.33072 0.55467 0.0
H1262 H 0.52654 0.35461 0.54595 0.0
H1263 H 0.54791 0.31485 0.62235 0.0
H1264 H 0.56733 0.30793 0.66475 0.0
H1265 H 0.53278 0.35818 0.70212 0.0
H1266 H 0.51336 0.36559 0.65984 0.0
H1267 H 0.41274 0.32954 0.55979 0.0
H1268 H 0.45309 0.32663 0.55968 0.0
H1269 H 0.45716 0.37389 0.62032 0.0
H1270 H 0.41683 0.37655 0.62092 0.0
H1271 H 0.48559 0.34342 0.63066 0.0
H1272 H 0.46643 0.38471 0.55381 0.0
H1273 H 0.44719 0.39218 0.51143 0.0
H1274 H 0.47784 0.33933 0.47504 0.0
H1275 H 0.49704 0.33139 0.51734 0.0
C1276 C 0.58789 0.3663 0.60326 0.0
C1277 C 0.6004 0.35423 0.58547 0.0
C1278 C 0.56491 0.36445 0.60412 0.0
C1279 C 0.55396 0.35032 0.58745 0.0
C1280 C 0.56641 0.33827 0.56959 0.0
C1281 C 0.58945 0.34019 0.56862 0.0
C1282 C 0.52946 0.34864 0.58816 0.0
C1283 C 0.51761 0.35178 0.56439 0.0
C1284 C 0.51776 0.34538 0.61232 0.0
C1285 C 0.5293 0.34087 0.63785 0.0
C1286 C 0.54456 0.32451 0.63956 0.0
C1287 C 0.55555 0.32049 0.66358 0.0
C1288 C 0.55132 0.33263 0.6861 0.0
C1289 C 0.53604 0.3488 0.68466 0.0
C1290 C 0.52502 0.3529 0.66068 0.0
C1291 C 0.42224 0.33921 0.57322 0.0
C1292 C 0.41165 0.35335 0.59028 0.0
C1293 C 0.4453 0.3376 0.57305 0.0
C1294 C 0.45818 0.35026 0.58972 0.0
C1295 C 0.44757 0.36398 0.60727 0.0
C1296 C 0.42453 0.36552 0.60755 0.0
C1297 C 0.48271 0.34961 0.58852 0.0
C1298 C 0.49456 0.34604 0.61219 0.0
C1299 C 0.49441 0.35251 0.56428 0.0
C1300 C 0.48298 0.35734 0.53881 0.0
C1301 C 0.46894 0.3746 0.53682 0.0
C1302 C 0.45806 0.37893 0.51281 0.0
C1303 C 0.46124 0.3662 0.49058 0.0
C1304 C 0.47536 0.34915 0.49229 0.0
C1305 C 0.48625 0.34474 0.51627 0.0
H1306 H 0.45281 0.36958 0.47201 0.0
H1307 H 0.55986 0.3295 0.70467 0.0
H1308 H 0.09018 0.33293 0.94339 0.0
H1309 H 0.04978 0.33085 0.9439 0.0
H1310 H 0.04671 0.37156 0.87569 0.0
H1311 H 0.08708 0.37386 0.87524 0.0
H1312 H 0.01881 0.38371 0.91443 0.0
H1313 H 0.03577 0.32028 0.86928 0.0
H1314 H 0.0539 0.28648 0.86308 0.0
H1315 H 0.0234 0.26391 0.93488 0.0
H1316 H 0.00531 0.29768 0.94171 0.0
H1317 H 0.90613 0.37254 0.88186 0.0
H1318 H 0.94644 0.37069 0.88003 0.0
H1319 H 0.9468 0.3321 0.95034 0.0
H1320 H 0.9063 0.33379 0.95223 0.0
H1321 H 0.97595 0.31835 0.91152 0.0
H1322 H 0.959 0.38175 0.95656 0.0
H1323 H 0.94072 0.41548 0.96263 0.0
H1324 H 0.97138 0.4381 0.89095 0.0
H1325 H 0.98959 0.40437 0.88423 0.0
C1326 C 0.0809 0.34128 0.92836 0.0
C1327 C 0.09178 0.35357 0.90928 0.0
C1328 C 0.05782 0.34003 0.92861 0.0
C1329 C 0.04523 0.35096 0.90973 0.0
C1330 C 0.0561 0.36301 0.89045 0.0
C1331 C 0.07916 0.36426 0.89016 0.0
C1332 C 0.02071 0.35058 0.91076 0.0
C1333 C 0.00944 0.36943 0.9134 0.0
C1334 C 0.00851 0.3319 0.91021 0.0
C1335 C 0.01937 0.31158 0.90616 0.0
C1336 C 0.03308 0.30817 0.88388 0.0
C1337 C 0.04332 0.289 0.88022 0.0
C1338 C 0.03986 0.27308 0.89862 0.0
C1339 C 0.0261 0.27627 0.92067 0.0
C1340 C 0.01583 0.29541 0.92443 0.0
C1341 C 0.91476 0.36357 0.89687 0.0
C1342 C 0.90307 0.3534 0.91729 0.0
C1343 C 0.93779 0.36258 0.89584 0.0
C1344 C 0.94961 0.35147 0.91524 0.0
C1345 C 0.93797 0.3408 0.93522 0.0
C1346 C 0.91488 0.34183 0.93631 0.0
C1347 C 0.97413 0.35148 0.91493 0.0
C1348 C 0.98537 0.33259 0.91253 0.0
C1349 C 0.98634 0.37012 0.91571 0.0
C1350 C 0.97549 0.39046 0.91976 0.0
C1351 C 0.96171 0.39386 0.94197 0.0
C1352 C 0.95138 0.41299 0.94555 0.0
C1353 C 0.95484 0.42891 0.92715 0.0
C1354 C 0.96869 0.42574 0.90517 0.0
C1355 C 0.97903 0.40663 0.90148 0.0
H1356 H 0.94683 0.44371 0.92996 0.0
H1357 H 0.04779 0.25825 0.89575 0.0
H1358 H 0.59484 0.64535 0.37974 0.0
H1359 H 0.55453 0.64823 0.3793 0.0
H1360 H 0.55488 0.66217 0.46361 0.0
H1361 H 0.59527 0.65921 0.46423 0.0
H1362 H 0.52469 0.63248 0.45101 0.0
H1363 H 0.54423 0.6998 0.41902 0.0
H1364 H 0.56325 0.72498 0.39005 0.0
H1365 H 0.53072 0.69964 0.32119 0.0
H1366 H 0.51173 0.67409 0.3497 0.0
H1367 H 0.41067 0.65636 0.45785 0.0
H1368 H 0.4509 0.65993 0.45988 0.0
H1369 H 0.45514 0.64812 0.37517 0.0
H1370 H 0.41486 0.64489 0.37293 0.0
H1371 H 0.48306 0.67846 0.38959 0.0
H1372 H 0.46551 0.61005 0.42031 0.0
H1373 H 0.44677 0.58409 0.44841 0.0
H1374 H 0.47599 0.61064 0.51868 0.0
H1375 H 0.49466 0.63696 0.49101 0.0
C1376 C 0.58635 0.64919 0.39815 0.0
C1377 C 0.59819 0.65207 0.42202 0.0
C1378 C 0.56332 0.65091 0.39784 0.0
C1379 C 0.55172 0.65559 0.42138 0.0
C1380 C 0.56353 0.6586 0.44522 0.0
C1381 C 0.58658 0.65696 0.44552 0.0
C1382 C 0.52721 0.65644 0.42128 0.0
C1383 C 0.51558 0.6428 0.43794 0.0
C1384 C 0.51536 0.66952 0.40369 0.0
C1385 C 0.5267 0.68491 0.38649 0.0
C1386 C 0.54127 0.69948 0.39767 0.0
C1387 C 0.55202 0.71384 0.38134 0.0
C1388 C 0.54824 0.71388 0.35379 0.0
C1389 C 0.53365 0.69958 0.34253 0.0
C1390 C 0.52287 0.68517 0.35877 0.0
C1391 C 0.42016 0.65469 0.43962 0.0
C1392 C 0.40964 0.65022 0.41525 0.0
C1393 C 0.44315 0.65665 0.44083 0.0
C1394 C 0.45605 0.65398 0.41774 0.0
C1395 C 0.44551 0.6502 0.39323 0.0
C1396 C 0.42251 0.6483 0.39199 0.0
C1397 C 0.48056 0.65445 0.41927 0.0
C1398 C 0.49219 0.66827 0.40283 0.0
C1399 C 0.49244 0.64145 0.43694 0.0
C1400 C 0.48128 0.62561 0.45362 0.0
C1401 C 0.46779 0.61046 0.44177 0.0
C1402 C 0.45721 0.59566 0.45762 0.0
C1403 C 0.46014 0.59575 0.48532 0.0
C1404 C 0.47371 0.61061 0.49722 0.0
C1405 C 0.4843 0.62547 0.48147 0.0
H1406 H 0.45193 0.58428 0.49755 0.0
H1407 H 0.55657 0.72501 0.34118 0.0
H1408 H 0.32404 0.15109 0.17504 0.0
H1409 H 0.30248 0.15057 0.21641 0.0
H1410 H 0.2457 0.12827 0.17293 0.0
H1411 H 0.26713 0.12889 0.13142 0.0
H1412 H 0.23459 0.15878 0.20798 0.0
H1413 H 0.27544 0.09539 0.21003 0.0
H1414 H 0.30874 0.07347 0.20772 0.0
H1415 H 0.33634 0.10522 0.27528 0.0
H1416 H 0.30332 0.12755 0.27777 0.0
H1417 H 0.17278 0.12828 0.32313 0.0
H1418 H 0.19265 0.12809 0.28044 0.0
H1419 H 0.25155 0.14973 0.32023 0.0
H1420 H 0.23189 0.14978 0.36289 0.0
H1421 H 0.26069 0.11851 0.28628 0.0
H1422 H 0.22021 0.18244 0.28352 0.0
H1423 H 0.18697 0.20446 0.2857 0.0
H1424 H 0.15865 0.17164 0.21944 0.0
H1425 H 0.19161 0.14922 0.2171 0.0
C1426 C 0.30696 0.14611 0.17429 0.0
C1427 C 0.29729 0.13994 0.15004 0.0
C1428 C 0.29468 0.14575 0.19794 0.0
C1429 C 0.27256 0.13916 0.19778 0.0
C1430 C 0.26275 0.13336 0.1735 0.0
C1431 C 0.27504 0.13367 0.14984 0.0
C1432 C 0.2597 0.13822 0.22299 0.0
C1433 C 0.24011 0.14974 0.22499 0.0
C1434 C 0.26714 0.12672 0.2453 0.0
C1435 C 0.28699 0.11327 0.24392 0.0
C1436 C 0.28869 0.09781 0.22426 0.0
C1437 C 0.3075 0.0853 0.22294 0.0
C1438 C 0.32467 0.08799 0.2413 0.0
C1439 C 0.32304 0.10317 0.26106 0.0
C1440 C 0.30427 0.11575 0.26244 0.0
C1441 C 0.18996 0.13299 0.32274 0.0
C1442 C 0.20078 0.13908 0.34632 0.0
C1443 C 0.20126 0.13295 0.29835 0.0
C1444 C 0.22353 0.13906 0.29714 0.0
C1445 C 0.23438 0.14496 0.32072 0.0
C1446 C 0.2231 0.14503 0.34506 0.0
C1447 C 0.23567 0.13921 0.27138 0.0
C1448 C 0.25512 0.12751 0.26926 0.0
C1449 C 0.22809 0.15054 0.24897 0.0
C1450 C 0.20827 0.16401 0.25033 0.0
C1451 C 0.20681 0.1798 0.26956 0.0
C1452 C 0.18804 0.19238 0.2708 0.0
C1453 C 0.17068 0.18941 0.25278 0.0
C1454 C 0.17209 0.1739 0.23342 0.0
C1455 C 0.19082 0.16126 0.23212 0.0
H1456 H 0.15617 0.19917 0.25376 0.0
H1457 H 0.33922 0.07828 0.24025 0.0
H1458 H 0.28943 0.89072 0.85193 0.0
H1459 H 0.2691 0.89091 0.80975 0.0
H1460 H 0.29534 0.8307 0.79059 0.0
H1461 H 0.31592 0.83046 0.83282 0.0
H1462 H 0.29621 0.85681 0.74754 0.0
H1463 H 0.24359 0.83486 0.81312 0.0
H1464 H 0.2226 0.83684 0.85529 0.0
H1465 H 0.19443 0.89473 0.83077 0.0
H1466 H 0.21552 0.89325 0.78859 0.0
H1467 H 0.21921 0.83119 0.64544 0.0
H1468 H 0.24083 0.83144 0.68674 0.0
H1469 H 0.21644 0.89248 0.70499 0.0
H1470 H 0.19474 0.89236 0.66359 0.0
H1471 H 0.21471 0.86583 0.74836 0.0
H1472 H 0.26745 0.88744 0.68246 0.0
H1473 H 0.28836 0.88503 0.64027 0.0
H1474 H 0.31612 0.82712 0.66538 0.0
H1475 H 0.29511 0.82903 0.70759 0.0
C1476 C 0.29096 0.87754 0.8387 0.0
C1477 C 0.30418 0.86052 0.84571 0.0
C1478 C 0.27926 0.87765 0.81465 0.0
C1479 C 0.28049 0.86071 0.79721 0.0
C1480 C 0.29412 0.8439 0.80383 0.0
C1481 C 0.30582 0.84377 0.82795 0.0
C1482 C 0.26731 0.86049 0.77224 0.0
C1483 C 0.27836 0.85849 0.74772 0.0
C1484 C 0.24407 0.86312 0.77249 0.0
C1485 C 0.23131 0.86404 0.79781 0.0
C1486 C 0.23306 0.8481 0.81681 0.0
C1487 C 0.22113 0.84912 0.8407 0.0
C1488 C 0.20724 0.86593 0.84574 0.0
C1489 C 0.20522 0.88174 0.82686 0.0
C1490 C 0.21715 0.88081 0.80295 0.0
C1491 C 0.21844 0.84467 0.65824 0.0
C1492 C 0.20533 0.86178 0.65129 0.0
C1493 C 0.23086 0.84481 0.68176 0.0
C1494 C 0.23037 0.86204 0.69878 0.0
C1495 C 0.21706 0.87905 0.69207 0.0
C1496 C 0.20474 0.87898 0.66843 0.0
C1497 C 0.24361 0.8622 0.72368 0.0
C1498 C 0.23256 0.86416 0.74819 0.0
C1499 C 0.26683 0.85946 0.72341 0.0
C1500 C 0.27952 0.85828 0.69807 0.0
C1501 C 0.27786 0.8741 0.67889 0.0
C1502 C 0.28976 0.87284 0.65499 0.0
C1503 C 0.30351 0.8559 0.65012 0.0
C1504 C 0.30543 0.84021 0.66917 0.0
C1505 C 0.29354 0.84138 0.69309 0.0
H1506 H 0.31272 0.85496 0.63161 0.0
H1507 H 0.198 0.86669 0.86424 0.0
H1508 H 0.72781 0.86391 0.86076 0.0
H1509 H 0.7505 0.86509 0.82046 0.0
H1510 H 0.6917 0.87104 0.77218 0.0
H1511 H 0.66882 0.86919 0.81255 0.0
H1512 H 0.71866 0.84455 0.74993 0.0
H1513 H 0.72659 0.91278 0.7848 0.0
H1514 H 0.73427 0.93946 0.81874 0.0
H1515 H 0.80081 0.91714 0.82674 0.0
H1516 H 0.79344 0.89013 0.7931 0.0
H1517 H 0.77616 0.87508 0.6321 0.0
H1518 H 0.75249 0.87561 0.67174 0.0
H1519 H 0.80856 0.86036 0.72122 0.0
H1520 H 0.83239 0.85973 0.68157 0.0
H1521 H 0.78236 0.8925 0.74183 0.0
H1522 H 0.773 0.82367 0.70646 0.0
H1523 H 0.7646 0.79828 0.67114 0.0
H1524 H 0.69944 0.82376 0.66251 0.0
H1525 H 0.70755 0.84951 0.69755 0.0
C1526 C 0.71971 0.86557 0.84157 0.0
C1527 C 0.69655 0.86656 0.83979 0.0
C1528 C 0.73271 0.86633 0.81853 0.0
C1529 C 0.72285 0.86849 0.79327 0.0
C1530 C 0.69968 0.86942 0.79145 0.0
C1531 C 0.68664 0.86844 0.81451 0.0
C1532 C 0.73674 0.8693 0.76879 0.0
C1533 C 0.73237 0.85527 0.74802 0.0
C1534 C 0.75487 0.88305 0.7664 0.0
C1535 C 0.7594 0.89931 0.7866 0.0
C1536 C 0.74281 0.91346 0.79394 0.0
C1537 C 0.74712 0.92866 0.8131 0.0
C1538 C 0.76799 0.92996 0.82493 0.0
C1539 C 0.78463 0.9161 0.81758 0.0
C1540 C 0.78041 0.90085 0.79845 0.0
C1541 C 0.78347 0.87187 0.65143 0.0
C1542 C 0.80611 0.86731 0.65376 0.0
C1543 C 0.76991 0.87213 0.67402 0.0
C1544 C 0.77876 0.86787 0.69935 0.0
C1545 C 0.80144 0.86366 0.70182 0.0
C1546 C 0.81499 0.86324 0.67918 0.0
C1547 C 0.76431 0.86771 0.72324 0.0
C1548 C 0.76859 0.88186 0.74382 0.0
C1549 C 0.74595 0.85426 0.72532 0.0
C1550 C 0.74096 0.83864 0.70446 0.0
C1551 C 0.75693 0.82396 0.6969 0.0
C1552 C 0.75221 0.80949 0.67695 0.0
C1553 C 0.73151 0.80943 0.66456 0.0
C1554 C 0.71547 0.82383 0.67212 0.0
C1555 C 0.72011 0.83836 0.69204 0.0
H1556 H 0.72788 0.7982 0.64914 0.0
H1557 H 0.77129 0.94174 0.83976 0.0
H1558 H 0.77545 0.14456 0.35989 0.0
H1559 H 0.75368 0.14246 0.31892 0.0
H1560 H 0.81192 0.12426 0.275 0.0
H1561 H 0.83398 0.12681 0.31599 0.0
H1562 H 0.789 0.1521 0.24762 0.0
H1563 H 0.77189 0.08882 0.29212 0.0
H1564 H 0.76032 0.06659 0.32963 0.0
H1565 H 0.69704 0.09665 0.3315 0.0
H1566 H 0.70834 0.11927 0.29423 0.0
H1567 H 0.7281 0.11952 0.13266 0.0
H1568 H 0.75172 0.11921 0.17243 0.0
H1569 H 0.69807 0.14386 0.21945 0.0
H1570 H 0.67439 0.1443 0.17975 0.0
H1571 H 0.71975 0.11105 0.24418 0.0
H1572 H 0.73795 0.1749 0.19995 0.0
H1573 H 0.75005 0.19677 0.16238 0.0
H1574 H 0.81211 0.16459 0.15963 0.0
H1575 H 0.80019 0.14222 0.19688 0.0
C1576 C 0.78364 0.14008 0.34152 0.0
C1577 C 0.80641 0.13576 0.34115 0.0
C1578 C 0.77114 0.13879 0.31813 0.0
C1579 C 0.78108 0.13287 0.29395 0.0
C1580 C 0.80389 0.12878 0.29345 0.0
C1581 C 0.81646 0.1302 0.31687 0.0
C1582 C 0.76765 0.1313 0.26919 0.0
C1583 C 0.77407 0.14283 0.24672 0.0
C1584 C 0.74794 0.1195 0.26816 0.0
C1585 C 0.74104 0.10587 0.29052 0.0
C1586 C 0.75556 0.0908 0.30066 0.0
C1587 C 0.74905 0.07811 0.32186 0.0
C1588 C 0.72798 0.08024 0.33298 0.0
C1589 C 0.71336 0.09503 0.32288 0.0
C1590 C 0.71981 0.10778 0.3017 0.0
C1591 C 0.72133 0.12482 0.15149 0.0
C1592 C 0.69942 0.13197 0.15312 0.0
C1593 C 0.73486 0.1247 0.17415 0.0
C1594 C 0.72667 0.13165 0.19881 0.0
C1595 C 0.70468 0.13844 0.20058 0.0
C1596 C 0.69121 0.13874 0.1779 0.0
C1597 C 0.74104 0.13195 0.22279 0.0
C1598 C 0.73478 0.12018 0.24508 0.0
C1599 C 0.76097 0.1434 0.22357 0.0
C1600 C 0.76807 0.15673 0.20102 0.0
C1601 C 0.75408 0.17233 0.19115 0.0
C1602 C 0.76093 0.18485 0.16994 0.0
C1603 C 0.78184 0.18207 0.1586 0.0
C1604 C 0.79591 0.16672 0.16841 0.0
C1605 C 0.78912 0.15411 0.18957 0.0
H1606 H 0.78718 0.19184 0.14228 0.0
H1607 H 0.72296 0.0704 0.34939 0.0
H1608 H 0.67264 0.64727 0.327 0.0
H1609 H 0.69324 0.64749 0.28484 0.0
H1610 H 0.75453 0.64212 0.32832 0.0
H1611 H 0.73403 0.64163 0.37059 0.0
H1612 H 0.75452 0.67279 0.28677 0.0
H1613 H 0.7362 0.601 0.30058 0.0
H1614 H 0.71092 0.57186 0.30929 0.0
H1615 H 0.67458 0.58623 0.23794 0.0
H1616 H 0.69945 0.61566 0.22902 0.0
H1617 H 0.82591 0.64701 0.17959 0.0
H1618 H 0.80547 0.64799 0.22173 0.0
H1619 H 0.74414 0.64046 0.17867 0.0
H1620 H 0.7646 0.63876 0.13657 0.0
H1621 H 0.7438 0.61671 0.22039 0.0
H1622 H 0.76081 0.6879 0.2055 0.0
H1623 H 0.78449 0.71808 0.19619 0.0
H1624 H 0.82117 0.70663 0.26817 0.0
H1625 H 0.79789 0.6762 0.27773 0.0
C1626 C 0.69051 0.64618 0.32757 0.0
C1627 C 0.70175 0.64435 0.35203 0.0
C1628 C 0.70222 0.64626 0.30351 0.0
C1629 C 0.72536 0.64472 0.30354 0.0
C1630 C 0.73667 0.64332 0.32795 0.0
C1631 C 0.72494 0.64296 0.35201 0.0
C1632 C 0.73774 0.64426 0.27804 0.0
C1633 C 0.75244 0.66043 0.27235 0.0
C1634 C 0.73445 0.62841 0.25902 0.0
C1635 C 0.71955 0.61066 0.26429 0.0
C1636 C 0.7227 0.59806 0.28688 0.0
C1637 C 0.70847 0.58147 0.29183 0.0
C1638 C 0.69112 0.57723 0.27422 0.0
C1639 C 0.688 0.58955 0.25158 0.0
C1640 C 0.70217 0.60617 0.24656 0.0
C1641 C 0.80806 0.64561 0.17913 0.0
C1642 C 0.79683 0.64284 0.15483 0.0
C1643 C 0.79638 0.64628 0.20321 0.0
C1644 C 0.77321 0.6446 0.20338 0.0
C1645 C 0.762 0.6418 0.17907 0.0
C1646 C 0.7737 0.64088 0.15502 0.0
C1647 C 0.7607 0.64531 0.22891 0.0
C1648 C 0.74594 0.62915 0.23469 0.0
C1649 C 0.76372 0.66134 0.24786 0.0
C1650 C 0.77774 0.67965 0.24219 0.0
C1651 C 0.77404 0.69172 0.21924 0.0
C1652 C 0.78737 0.70889 0.21394 0.0
C1653 C 0.80436 0.71424 0.23154 0.0
C1654 C 0.80802 0.70246 0.25453 0.0
C1655 C 0.79475 0.68526 0.25992 0.0
H1656 H 0.81466 0.72753 0.2274 0.0
H1657 H 0.68012 0.56438 0.27808 0.0
H1658 H 0.73453 0.365 0.63807 0.0
H1659 H 0.7541 0.36346 0.68087 0.0
H1660 H 0.69238 0.35258 0.72168 0.0
H1661 H 0.67269 0.35381 0.67884 0.0
H1662 H 0.72004 0.38419 0.74481 0.0
H1663 H 0.72405 0.31361 0.71466 0.0
H1664 H 0.7323 0.28596 0.68225 0.0
H1665 H 0.80059 0.30406 0.68109 0.0
H1666 H 0.79269 0.33204 0.71321 0.0
H1667 H 0.76608 0.3607 0.87119 0.0
H1668 H 0.74478 0.35962 0.82969 0.0
H1669 H 0.80539 0.35581 0.78435 0.0
H1670 H 0.82667 0.35595 0.82591 0.0
H1671 H 0.77702 0.33095 0.7636 0.0
H1672 H 0.77431 0.40187 0.79102 0.0
H1673 H 0.76739 0.43099 0.82169 0.0
H1674 H 0.69872 0.41446 0.82604 0.0
H1675 H 0.7053 0.38506 0.79565 0.0
C1676 C 0.72514 0.36225 0.65615 0.0
C1677 C 0.70211 0.35949 0.65517 0.0
C1678 C 0.73633 0.36132 0.68054 0.0
C1679 C 0.72466 0.35782 0.70434 0.0
C1680 C 0.70164 0.35528 0.70347 0.0
C1681 C 0.69046 0.35592 0.67903 0.0
C1682 C 0.73654 0.357 0.73015 0.0
C1683 C 0.73227 0.37239 0.74917 0.0
C1684 C 0.75292 0.34194 0.73534 0.0
C1685 C 0.75773 0.32505 0.71615 0.0
C1686 C 0.74079 0.31181 0.70732 0.0
C1687 C 0.74541 0.29605 0.68903 0.0
C1688 C 0.76695 0.29329 0.67956 0.0
C1689 C 0.78392 0.30624 0.68842 0.0
C1690 C 0.77938 0.32204 0.70668 0.0
C1691 C 0.77483 0.35961 0.85235 0.0
C1692 C 0.79801 0.35852 0.85172 0.0
C1693 C 0.76266 0.3591 0.82863 0.0
C1694 C 0.77347 0.35802 0.80381 0.0
C1695 C 0.79665 0.35667 0.80322 0.0
C1696 C 0.80881 0.35682 0.82697 0.0
C1697 C 0.76068 0.35826 0.77844 0.0
C1698 C 0.76477 0.34276 0.75942 0.0
C1699 C 0.74437 0.37344 0.77307 0.0
C1700 C 0.74035 0.39114 0.79128 0.0
C1701 C 0.75777 0.40436 0.79867 0.0
C1702 C 0.75391 0.42092 0.81598 0.0
C1703 C 0.73265 0.42454 0.82587 0.0
C1704 C 0.71519 0.41162 0.8184 0.0
C1705 C 0.71897 0.39502 0.80111 0.0
H1706 H 0.72969 0.43738 0.83927 0.0
H1707 H 0.77049 0.28108 0.66541 0.0
H1708 H 0.27552 0.3706 0.63638 0.0
H1709 H 0.25314 0.37036 0.67696 0.0
H1710 H 0.31118 0.35639 0.7238 0.0
H1711 H 0.33359 0.35597 0.68298 0.0
H1712 H 0.27784 0.33369 0.74023 0.0
H1713 H 0.28809 0.4056 0.72234 0.0
H1714 H 0.28781 0.43754 0.69544 0.0
H1715 H 0.21761 0.43204 0.68475 0.0
H1716 H 0.21751 0.39991 0.7113 0.0
H1717 H 0.22999 0.36225 0.86575 0.0
H1718 H 0.25302 0.36186 0.82548 0.0
H1719 H 0.19447 0.36315 0.77633 0.0
H1720 H 0.17127 0.36319 0.81657 0.0
H1721 H 0.22844 0.39258 0.76201 0.0
H1722 H 0.21908 0.32009 0.78014 0.0
H1723 H 0.22006 0.28867 0.80801 0.0
H1724 H 0.28989 0.29642 0.81982 0.0
H1725 H 0.28927 0.32808 0.7923 0.0
C1726 C 0.28354 0.36752 0.65533 0.0
C1727 C 0.30632 0.36341 0.65655 0.0
C1728 C 0.27074 0.36748 0.67854 0.0
C1729 C 0.28053 0.36371 0.70352 0.0
C1730 C 0.30328 0.35941 0.70476 0.0
C1731 C 0.31607 0.35923 0.68146 0.0
C1732 C 0.26692 0.36404 0.72824 0.0
C1733 C 0.26731 0.34672 0.74517 0.0
C1734 C 0.25285 0.38087 0.73451 0.0
C1735 C 0.25283 0.40024 0.71861 0.0
C1736 C 0.27262 0.41112 0.71409 0.0
C1737 C 0.27252 0.42927 0.69893 0.0
C1738 C 0.25272 0.43679 0.68834 0.0
C1739 C 0.23295 0.42619 0.69294 0.0
C1740 C 0.23295 0.40802 0.70807 0.0
C1741 C 0.22203 0.36244 0.84636 0.0
C1742 C 0.19886 0.36275 0.84423 0.0
C1743 C 0.23519 0.36216 0.82342 0.0
C1744 C 0.2254 0.36241 0.79801 0.0
C1745 C 0.20228 0.36295 0.79581 0.0
C1746 C 0.18909 0.36291 0.81876 0.0
C1747 C 0.23936 0.36226 0.77374 0.0
C1748 C 0.23904 0.37962 0.75699 0.0
C1749 C 0.25364 0.34559 0.7678 0.0
C1750 C 0.25408 0.32657 0.78438 0.0
C1751 C 0.23461 0.31521 0.78888 0.0
C1752 C 0.23511 0.29733 0.80457 0.0
C1753 C 0.25501 0.29057 0.81571 0.0
C1754 C 0.27447 0.30168 0.81118 0.0
C1755 C 0.27406 0.31959 0.79552 0.0
H1756 H 0.25537 0.27669 0.82778 0.0
H1757 H 0.25268 0.45084 0.67661 0.0
H1758 H 0.27286 0.63415 0.36428 0.0
H1759 H 0.25043 0.63317 0.32374 0.0
H1760 H 0.3097 0.63017 0.2758 0.0
H1761 H 0.33225 0.63196 0.31639 0.0
H1762 H 0.28238 0.65595 0.2541 0.0
H1763 H 0.27557 0.58701 0.28711 0.0
H1764 H 0.2681 0.55972 0.32032 0.0
H1765 H 0.20101 0.58069 0.32772 0.0
H1766 H 0.20817 0.60829 0.29482 0.0
H1767 H 0.22677 0.62636 0.13452 0.0
H1768 H 0.25004 0.62523 0.17452 0.0
H1769 H 0.19337 0.63937 0.22357 0.0
H1770 H 0.16998 0.64063 0.1836 0.0
H1771 H 0.21989 0.60692 0.24367 0.0
H1772 H 0.22825 0.67652 0.21026 0.0
H1773 H 0.23657 0.70258 0.17573 0.0
H1774 H 0.3023 0.67828 0.16757 0.0
H1775 H 0.29426 0.65187 0.2018 0.0
C1776 C 0.28111 0.63319 0.3451 0.0
C1777 C 0.30429 0.63305 0.34346 0.0
C1778 C 0.26827 0.63252 0.32193 0.0
C1779 C 0.27834 0.63123 0.29668 0.0
C1780 C 0.30154 0.63111 0.29504 0.0
C1781 C 0.3144 0.63208 0.31822 0.0
C1782 C 0.26467 0.63056 0.27201 0.0
C1783 C 0.26896 0.64499 0.25169 0.0
C1784 C 0.24688 0.61649 0.26896 0.0
C1785 C 0.24247 0.59984 0.28866 0.0
C1786 C 0.25927 0.5859 0.29596 0.0
C1787 C 0.25508 0.57036 0.3147 0.0
C1788 C 0.23411 0.5685 0.32617 0.0
C1789 C 0.21726 0.58216 0.31884 0.0
C1790 C 0.22136 0.59774 0.30012 0.0
C1791 C 0.21926 0.62918 0.15383 0.0
C1792 C 0.19658 0.63365 0.15596 0.0
C1793 C 0.23257 0.62858 0.17662 0.0
C1794 C 0.22343 0.63235 0.20193 0.0
C1795 C 0.20071 0.63642 0.20418 0.0
C1796 C 0.18741 0.63721 0.18136 0.0
C1797 C 0.23763 0.63232 0.22603 0.0
C1798 C 0.23341 0.61778 0.24617 0.0
C1799 C 0.25565 0.64608 0.22878 0.0
C1800 C 0.26058 0.66209 0.2084 0.0
C1801 C 0.24442 0.67664 0.20096 0.0
C1802 C 0.2491 0.69149 0.18146 0.0
C1803 C 0.26993 0.69205 0.16941 0.0
C1804 C 0.28616 0.67781 0.17689 0.0
C1805 C 0.28156 0.6629 0.19636 0.0
H1806 H 0.27352 0.70356 0.15431 0.0
H1807 H 0.2309 0.55647 0.34068 0.0
loop_
_geom_bond_atom_site_label_1
_geom_bond_atom_site_label_2
_geom_bond_distance
_geom_bond_site_symmetry_2
_ccdc_geom_bond_type
In0 O1 2.294 . S
In0 O2 2.326 . S
In0 O6 2.266 . S
In0 O7 2.326 . S
In0 O8 2.266 . S
In0 O9 2.326 . S
In0 O11 2.294 . S
In0 O12 2.326 . S
O1 In0 2.294 . S
O1 C10 1.240 . S
O2 In0 2.326 . S
O2 C10 1.252 . S
C3 O6 1.252 . S
C3 O7 1.260 . S
C4 O11 1.240 . S
C4 O12 1.252 . S
C5 O8 1.252 . S
C5 O9 1.260 . S
O6 In0 2.266 . S
O6 C3 1.252 . S
O7 In0 2.326 . S
O7 C3 1.260 . S
O8 In0 2.266 . S
O8 C5 1.252 . S
O9 In0 2.326 . S
O9 C5 1.260 . S
C10 O1 1.240 . S
C10 O2 1.252 . S
O11 In0 2.294 . S
O11 C4 1.240 . S
O12 In0 2.326 . S
O12 C4 1.252 . S
In13 O14 2.294 . S
In13 O15 2.326 . S
In13 O19 2.266 . S
In13 O20 2.326 . S
In13 O21 2.266 . S
In13 O22 2.326 . S
In13 O24 2.294 . S
In13 O25 2.326 . S
O14 In13 2.294 . S
O14 C23 1.240 . S
O15 In13 2.326 . S
O15 C23 1.252 . S
C16 O19 1.252 . S
C16 O20 1.260 . S
C17 O24 1.240 . S
C17 O25 1.252 . S
C18 O21 1.252 . S
C18 O22 1.260 . S
O19 In13 2.266 . S
O19 C16 1.252 . S
O20 In13 2.326 . S
O20 C16 1.260 . S
O21 In13 2.266 . S
O21 C18 1.252 . S
O22 In13 2.326 . S
O22 C18 1.260 . S
C23 O14 1.240 . S
C23 O15 1.252 . S
O24 In13 2.294 . S
O24 C17 1.240 . S
O25 In13 2.326 . S
O25 C17 1.252 . S
In26 O27 2.294 . S
In26 O28 2.326 . S
In26 O32 2.266 . S
In26 O33 2.326 . S
In26 O34 2.266 . S
In26 O35 2.326 . S
In26 O37 2.294 . S
In26 O38 2.326 . S
O27 In26 2.294 . S
O27 C36 1.240 . S
O28 In26 2.326 . S
O28 C36 1.252 . S
C29 O32 1.252 . S
C29 O33 1.260 . S
C30 O37 1.240 . S
C30 O38 1.252 . S
C31 O34 1.252 . S
C31 O35 1.260 . S
O32 In26 2.266 . S
O32 C29 1.252 . S
O33 In26 2.326 . S
O33 C29 1.260 . S
O34 In26 2.266 . S
O34 C31 1.252 . S
O35 In26 2.326 . S
O35 C31 1.260 . S
C36 O27 1.240 . S
C36 O28 1.252 . S
O37 In26 2.294 . S
O37 C30 1.240 . S
O38 In26 2.326 . S
O38 C30 1.252 . S
In39 O40 2.294 . S
In39 O41 2.326 . S
In39 O45 2.266 . S
In39 O46 2.326 . S
In39 O47 2.266 . S
In39 O48 2.326 . S
In39 O50 2.294 . S
In39 O51 2.326 . S
O40 In39 2.294 . S
O40 C49 1.240 . S
O41 In39 2.326 . S
O41 C49 1.252 . S
C42 O45 1.252 . S
C42 O46 1.260 . S
C43 O50 1.240 . S
C43 O51 1.252 . S
C44 O47 1.252 . S
C44 O48 1.260 . S
O45 In39 2.266 . S
O45 C42 1.252 . S
O46 In39 2.326 . S
O46 C42 1.260 . S
O47 In39 2.266 . S
O47 C44 1.252 . S
O48 In39 2.326 . S
O48 C44 1.260 . S
C49 O40 1.240 . S
C49 O41 1.252 . S
O50 In39 2.294 . S
O50 C43 1.240 . S
O51 In39 2.326 . S
O51 C43 1.252 . S
In52 O53 2.294 . S
In52 O54 2.326 . S
In52 O58 2.266 . S
In52 O59 2.326 . S
In52 O60 2.266 . S
In52 O61 2.326 . S
In52 O63 2.294 . S
In52 O64 2.326 . S
O53 In52 2.294 . S
O53 C62 1.240 . S
O54 In52 2.326 . S
O54 C62 1.252 . S
C55 O58 1.252 . S
C55 O59 1.260 . S
C56 O63 1.240 . S
C56 O64 1.252 . S
C57 O60 1.252 . S
C57 O61 1.260 . S
O58 In52 2.266 . S
O58 C55 1.252 . S
O59 In52 2.326 . S
O59 C55 1.260 . S
O60 In52 2.266 . S
O60 C57 1.252 . S
O61 In52 2.326 . S
O61 C57 1.260 . S
C62 O53 1.240 . S
C62 O54 1.252 . S
O63 In52 2.294 . S
O63 C56 1.240 . S
O64 In52 2.326 . S
O64 C56 1.252 . S
In65 O66 2.294 . S
In65 O67 2.326 . S
In65 O71 2.266 . S
In65 O72 2.326 . S
In65 O73 2.266 . S
In65 O74 2.326 . S
In65 O76 2.294 . S
In65 O77 2.326 . S
O66 In65 2.294 . S
O66 C75 1.240 . S
O67 In65 2.326 . S
O67 C75 1.252 . S
C68 O71 1.252 . S
C68 O72 1.260 . S
C69 O76 1.240 . S
C69 O77 1.252 . S
C70 O73 1.252 . S
C70 O74 1.260 . S
O71 In65 2.266 . S
O71 C68 1.252 . S
O72 In65 2.326 . S
O72 C68 1.260 . S
O73 In65 2.266 . S
O73 C70 1.252 . S
O74 In65 2.326 . S
O74 C70 1.260 . S
C75 O66 1.240 . S
C75 O67 1.252 . S
O76 In65 2.294 . S
O76 C69 1.240 . S
O77 In65 2.326 . S
O77 C69 1.252 . S
In78 O79 2.294 . S
In78 O80 2.326 . S
In78 O84 2.266 . S
In78 O85 2.326 . S
In78 O86 2.266 . S
In78 O87 2.326 . S
In78 O89 2.294 . S
In78 O90 2.326 . S
O79 In78 2.294 . S
O79 C88 1.240 . S
O80 In78 2.326 . S
O80 C88 1.252 . S
C81 O84 1.252 . S
C81 O85 1.260 . S
C82 O89 1.240 . S
C82 O90 1.252 . S
C83 O86 1.252 . S
C83 O87 1.260 . S
O84 In78 2.266 . S
O84 C81 1.252 . S
O85 In78 2.326 . S
O85 C81 1.260 . S
O86 In78 2.266 . S
O86 C83 1.252 . S
O87 In78 2.326 . S
O87 C83 1.260 . S
C88 O79 1.240 . S
C88 O80 1.252 . S
O89 In78 2.294 . S
O89 C82 1.240 . S
O90 In78 2.326 . S
O90 C82 1.252 . S
In91 O92 2.294 . S
In91 O93 2.326 . S
In91 O97 2.266 . S
In91 O98 2.326 . S
In91 O99 2.266 . S
In91 O100 2.326 . S
In91 O102 2.294 . S
In91 O103 2.326 . S
O92 In91 2.294 . S
O92 C101 1.240 . S
O93 In91 2.326 . S
O93 C101 1.252 . S
C94 O97 1.252 . S
C94 O98 1.260 . S
C95 O102 1.240 . S
C95 O103 1.252 . S
C96 O99 1.252 . S
C96 O100 1.260 . S
O97 In91 2.266 . S
O97 C94 1.252 . S
O98 In91 2.326 . S
O98 C94 1.260 . S
O99 In91 2.266 . S
O99 C96 1.252 . S
O100 In91 2.326 . S
O100 C96 1.260 . S
C101 O92 1.240 . S
C101 O93 1.252 . S
O102 In91 2.294 . S
O102 C95 1.240 . S
O103 In91 2.326 . S
O103 C95 1.252 . S
In104 O105 2.294 . S
In104 O106 2.326 . S
In104 O110 2.266 . S
In104 O111 2.326 . S
In104 O112 2.266 . S
In104 O113 2.326 . S
In104 O115 2.294 . S
In104 O116 2.326 . S
O105 In104 2.294 . S
O105 C114 1.240 . S
O106 In104 2.326 . S
O106 C114 1.252 . S
C107 O110 1.252 . S
C107 O111 1.260 . S
C108 O115 1.240 . S
C108 O116 1.252 . S
C109 O112 1.252 . S
C109 O113 1.260 . S
O110 In104 2.266 . S
O110 C107 1.252 . S
O111 In104 2.326 . S
O111 C107 1.260 . S
O112 In104 2.266 . S
O112 C109 1.252 . S
O113 In104 2.326 . S
O113 C109 1.260 . S
C114 O105 1.240 . S
C114 O106 1.252 . S
O115 In104 2.294 . S
O115 C108 1.240 . S
O116 In104 2.326 . S
O116 C108 1.252 . S
In117 O118 2.294 . S
In117 O119 2.326 . S
In117 O123 2.266 . S
In117 O124 2.326 . S
In117 O125 2.266 . S
In117 O126 2.326 . S
In117 O128 2.294 . S
In117 O129 2.326 . S
O118 In117 2.294 . S
O118 C127 1.240 . S
O119 In117 2.326 . S
O119 C127 1.252 . S
C120 O123 1.252 . S
C120 O124 1.260 . S
C121 O128 1.240 . S
C121 O129 1.252 . S
C122 O125 1.252 . S
C122 O126 1.260 . S
O123 In117 2.266 . S
O123 C120 1.252 . S
O124 In117 2.326 . S
O124 C120 1.260 . S
O125 In117 2.266 . S
O125 C122 1.252 . S
O126 In117 2.326 . S
O126 C122 1.260 . S
C127 O118 1.240 . S
C127 O119 1.252 . S
O128 In117 2.294 . S
O128 C121 1.240 . S
O129 In117 2.326 . S
O129 C121 1.252 . S
In130 O131 2.294 . S
In130 O132 2.326 . S
In130 O136 2.266 . S
In130 O137 2.326 . S
In130 O138 2.266 . S
In130 O139 2.326 . S
In130 O141 2.294 . S
In130 O142 2.326 . S
O131 In130 2.294 . S
O131 C140 1.240 . S
O132 In130 2.326 . S
O132 C140 1.252 . S
C133 O136 1.252 . S
C133 O137 1.260 . S
C134 O141 1.240 . S
C134 O142 1.252 . S
C135 O138 1.252 . S
C135 O139 1.260 . S
O136 In130 2.266 . S
O136 C133 1.252 . S
O137 In130 2.326 . S
O137 C133 1.260 . S
O138 In130 2.266 . S
O138 C135 1.252 . S
O139 In130 2.326 . S
O139 C135 1.260 . S
C140 O131 1.240 . S
C140 O132 1.252 . S
O141 In130 2.294 . S
O141 C134 1.240 . S
O142 In130 2.326 . S
O142 C134 1.252 . S
In143 O144 2.294 . S
In143 O145 2.326 . S
In143 O149 2.266 . S
In143 O150 2.326 . S
In143 O151 2.266 . S
In143 O152 2.326 . S
In143 O154 2.294 . S
In143 O155 2.326 . S
O144 In143 2.294 . S
O144 C153 1.240 . S
O145 In143 2.326 . S
O145 C153 1.252 . S
C146 O149 1.252 . S
C146 O150 1.260 . S
C147 O154 1.240 . S
C147 O155 1.252 . S
C148 O151 1.252 . S
C148 O152 1.260 . S
O149 In143 2.266 . S
O149 C146 1.252 . S
O150 In143 2.326 . S
O150 C146 1.260 . S
O151 In143 2.266 . S
O151 C148 1.252 . S
O152 In143 2.326 . S
O152 C148 1.260 . S
C153 O144 1.240 . S
C153 O145 1.252 . S
O154 In143 2.294 . S
O154 C147 1.240 . S
O155 In143 2.326 . S
O155 C147 1.252 . S
In156 O157 2.294 . S
In156 O158 2.326 . S
In156 O162 2.266 . S
In156 O163 2.326 . S
In156 O164 2.266 . S
In156 O165 2.326 . S
In156 O167 2.294 . S
In156 O168 2.326 . S
O157 In156 2.294 . S
O157 C166 1.240 . S
O158 In156 2.326 . S
O158 C166 1.252 . S
C159 O162 1.252 . S
C159 O163 1.260 . S
C160 O167 1.240 . S
C160 O168 1.252 . S
C161 O164 1.252 . S
C161 O165 1.260 . S
O162 In156 2.266 . S
O162 C159 1.252 . S
O163 In156 2.326 . S
O163 C159 1.260 . S
O164 In156 2.266 . S
O164 C161 1.252 . S
O165 In156 2.326 . S
O165 C161 1.260 . S
C166 O157 1.240 . S
C166 O158 1.252 . S
O167 In156 2.294 . S
O167 C160 1.240 . S
O168 In156 2.326 . S
O168 C160 1.252 . S
In169 O170 2.294 . S
In169 O171 2.326 . S
In169 O175 2.266 . S
In169 O176 2.326 . S
In169 O177 2.266 . S
In169 O178 2.326 . S
In169 O180 2.294 . S
In169 O181 2.326 . S
O170 In169 2.294 . S
O170 C179 1.240 . S
O171 In169 2.326 . S
O171 C179 1.252 . S
C172 O175 1.252 . S
C172 O176 1.260 . S
C173 O180 1.240 . S
C173 O181 1.252 . S
C174 O177 1.252 . S
C174 O178 1.260 . S
O175 In169 2.266 . S
O175 C172 1.252 . S
O176 In169 2.326 . S
O176 C172 1.260 . S
O177 In169 2.266 . S
O177 C174 1.252 . S
O178 In169 2.326 . S
O178 C174 1.260 . S
C179 O170 1.240 . S
C179 O171 1.252 . S
O180 In169 2.294 . S
O180 C173 1.240 . S
O181 In169 2.326 . S
O181 C173 1.252 . S
In182 O183 2.294 . S
In182 O184 2.326 . S
In182 O188 2.266 . S
In182 O189 2.326 . S
In182 O190 2.266 . S
In182 O191 2.326 . S
In182 O193 2.294 . S
In182 O194 2.326 . S
O183 In182 2.294 . S
O183 C192 1.240 . S
O184 In182 2.326 . S
O184 C192 1.252 . S
C185 O188 1.252 . S
C185 O189 1.260 . S
C186 O193 1.240 . S
C186 O194 1.252 . S
C187 O190 1.252 . S
C187 O191 1.260 . S
O188 In182 2.266 . S
O188 C185 1.252 . S
O189 In182 2.326 . S
O189 C185 1.260 . S
O190 In182 2.266 . S
O190 C187 1.252 . S
O191 In182 2.326 . S
O191 C187 1.260 . S
C192 O183 1.240 . S
C192 O184 1.252 . S
O193 In182 2.294 . S
O193 C186 1.240 . S
O194 In182 2.326 . S
O194 C186 1.252 . S
In195 O196 2.294 . S
In195 O197 2.326 . S
In195 O201 2.266 . S
In195 O202 2.326 . S
In195 O203 2.266 . S
In195 O204 2.326 . S
In195 O206 2.294 . S
In195 O207 2.326 . S
O196 In195 2.294 . S
O196 C205 1.240 . S
O197 In195 2.326 . S
O197 C205 1.252 . S
C198 O201 1.252 . S
C198 O202 1.260 . S
C199 O206 1.240 . S
C199 O207 1.252 . S
C200 O203 1.252 . S
C200 O204 1.260 . S
O201 In195 2.266 . S
O201 C198 1.252 . S
O202 In195 2.326 . S
O202 C198 1.260 . S
O203 In195 2.266 . S
O203 C200 1.252 . S
O204 In195 2.326 . S
O204 C200 1.260 . S
C205 O196 1.240 . S
C205 O197 1.252 . S
O206 In195 2.294 . S
O206 C199 1.240 . S
O207 In195 2.326 . S
O207 C199 1.252 . S
H208 C226 0.951 . S
H209 C228 0.951 . S
H210 C230 0.950 1_556 S
H211 C231 0.950 . S
H212 C233 0.950 . S
H213 C236 0.950 . S
H214 C237 0.950 . S
H215 C239 0.950 . S
H216 C240 0.950 . S
H217 C241 0.951 . S
H218 C243 0.951 . S
H219 C245 0.950 . S
H220 C246 0.950 . S
H221 C248 0.950 1_554 S
H222 C251 0.950 . S
H223 C252 0.950 . S
H224 C254 0.950 . S
H225 C255 0.950 . S
C226 H208 0.951 . S
C226 C227 1.366 . S
C226 C228 1.388 . S
C227 C226 1.366 . S
C227 C231 1.385 . S
C228 H209 0.951 . S
C228 C226 1.388 . S
C228 C229 1.366 . S
C229 C228 1.366 . S
C229 C230 1.414 . S
C229 C232 1.499 . S
C230 H210 0.950 1_554 S
C230 C229 1.414 . S
C230 C231 1.374 . S
C231 H211 0.950 . S
C231 C227 1.385 . S
C231 C230 1.374 . S
C232 C229 1.499 . S
C232 C233 1.373 1_554 S
C232 C234 1.389 . S
C233 H212 0.950 . S
C233 C232 1.373 1_556 S
C233 C249 1.377 . S
C234 C232 1.389 . S
C234 C235 1.524 . S
C234 C248 1.377 1_554 S
C235 C234 1.524 . S
C235 C236 1.397 . S
C235 C240 1.363 . S
C236 H213 0.950 . S
C236 C235 1.397 . S
C236 C237 1.334 . S
C237 H214 0.950 . S
C237 C236 1.334 . S
C237 C238 1.287 . S
C238 C237 1.287 . S
C238 C239 1.524 . S
C238 H257 0.913 . S
C239 H215 0.950 . S
C239 C238 1.524 . S
C239 C240 1.415 . S
C240 H216 0.950 . S
C240 C235 1.363 . S
C240 C239 1.415 . S
C241 H217 0.951 . S
C241 C242 1.366 . S
C241 C243 1.388 . S
C242 C241 1.366 . S
C242 C246 1.385 . S
C243 H218 0.951 . S
C243 C241 1.388 . S
C243 C244 1.366 . S
C244 C243 1.366 . S
C244 C245 1.414 . S
C244 C247 1.499 . S
C245 H219 0.950 . S
C245 C244 1.414 . S
C245 C246 1.374 . S
C246 H220 0.950 . S
C246 C242 1.385 . S
C246 C245 1.374 . S
C247 C244 1.499 . S
C247 C248 1.373 . S
C247 C249 1.389 . S
C248 H221 0.950 1_556 S
C248 C234 1.377 1_556 S
C248 C247 1.373 . S
C249 C233 1.377 . S
C249 C247 1.389 . S
C249 C250 1.524 . S
C250 C249 1.524 . S
C250 C251 1.397 . S
C250 C255 1.363 . S
C251 H222 0.950 . S
C251 C250 1.397 . S
C251 C252 1.334 . S
C252 H223 0.950 . S
C252 C251 1.334 . S
C252 C253 1.287 . S
C253 C252 1.287 . S
C253 C254 1.524 . S
C253 H256 0.999 . S
C254 H224 0.950 . S
C254 C253 1.524 . S
C254 C255 1.415 . S
C255 H225 0.950 . S
C255 C250 1.363 . S
C255 C254 1.415 . S
H256 C253 0.999 . S
H257 C238 0.913 . S
H258 C276 0.951 . S
H259 C278 0.951 . S
H260 C280 0.950 . S
H261 C281 0.950 . S
H262 C283 0.950 . S
H263 C286 0.950 . S
H264 C287 0.950 . S
H265 C289 0.950 . S
H266 C290 0.950 . S
H267 C291 0.951 . S
H268 C293 0.951 . S
H269 C295 0.950 . S
H270 C296 0.950 . S
H271 C298 0.950 . S
H272 C301 0.950 . S
H273 C302 0.950 . S
H274 C304 0.950 . S
H275 C305 0.950 . S
C276 H258 0.951 . S
C276 C277 1.366 . S
C276 C278 1.388 . S
C277 C276 1.366 . S
C277 C281 1.385 . S
C278 H259 0.951 . S
C278 C276 1.388 . S
C278 C279 1.366 . S
C279 C278 1.366 . S
C279 C280 1.414 . S
C279 C282 1.499 . S
C280 H260 0.950 . S
C280 C279 1.414 . S
C280 C281 1.374 . S
C281 H261 0.950 . S
C281 C277 1.385 . S
C281 C280 1.374 . S
C282 C279 1.499 . S
C282 C283 1.373 . S
C282 C284 1.389 . S
C283 H262 0.950 . S
C283 C282 1.373 . S
C283 C299 1.377 . S
C284 C282 1.389 . S
C284 C285 1.524 . S
C284 C298 1.377 . S
C285 C284 1.524 . S
C285 C286 1.397 . S
C285 C290 1.363 . S
C286 H263 0.950 . S
C286 C285 1.397 . S
C286 C287 1.334 . S
C287 H264 0.950 . S
C287 C286 1.334 . S
C287 C288 1.287 . S
C288 C287 1.287 . S
C288 C289 1.524 . S
C288 H307 0.913 . S
C289 H265 0.950 . S
C289 C288 1.524 . S
C289 C290 1.415 . S
C290 H266 0.950 . S
C290 C285 1.363 . S
C290 C289 1.415 . S
C291 H267 0.951 . S
C291 C292 1.366 . S
C291 C293 1.388 . S
C292 C291 1.366 . S
C292 C296 1.385 . S
C293 H268 0.951 . S
C293 C291 1.388 . S
C293 C294 1.366 . S
C294 C293 1.366 . S
C294 C295 1.414 . S
C294 C297 1.499 . S
C295 H269 0.950 . S
C295 C294 1.414 . S
C295 C296 1.374 . S
C296 H270 0.950 . S
C296 C292 1.385 . S
C296 C295 1.374 . S
C297 C294 1.499 . S
C297 C298 1.373 . S
C297 C299 1.389 . S
C298 H271 0.950 . S
C298 C284 1.377 . S
C298 C297 1.373 . S
C299 C283 1.377 . S
C299 C297 1.389 . S
C299 C300 1.524 . S
C300 C299 1.524 . S
C300 C301 1.397 . S
C300 C305 1.363 . S
C301 H272 0.950 . S
C301 C300 1.397 . S
C301 C302 1.334 . S
C302 H273 0.950 . S
C302 C301 1.334 . S
C302 C303 1.287 . S
C303 C302 1.287 . S
C303 C304 1.524 . S
C303 H306 0.999 . S
C304 H274 0.950 . S
C304 C303 1.524 . S
C304 C305 1.415 . S
C305 H275 0.950 . S
C305 C300 1.363 . S
C305 C304 1.415 . S
H306 C303 0.999 . S
H307 C288 0.913 . S
H308 C326 0.951 . S
H309 C328 0.951 . S
H310 C330 0.950 1_554 S
H311 C331 0.950 . S
H312 C333 0.948 1_556 S
H313 C336 0.950 . S
H314 C337 0.950 . S
H315 C339 0.950 . S
H316 C340 0.950 . S
H317 C341 0.951 . S
H318 C343 0.951 . S
H319 C345 0.950 . S
H320 C346 0.950 . S
H321 C348 0.950 . S
H322 C351 0.950 1_556 S
H323 C352 0.950 1_556 S
H324 C354 0.950 . S
H325 C355 0.950 . S
C326 H308 0.951 . S
C326 C327 1.366 . S
C326 C328 1.388 . S
C327 C326 1.366 . S
C327 C331 1.385 . S
C328 H309 0.951 . S
C328 C326 1.388 . S
C328 C329 1.366 . S
C329 C328 1.366 . S
C329 C330 1.414 . S
C329 C332 1.499 . S
C330 H310 0.950 1_556 S
C330 C329 1.414 . S
C330 C331 1.374 . S
C331 H311 0.950 . S
C331 C327 1.385 . S
C331 C330 1.374 . S
C332 C329 1.499 . S
C332 C333 1.373 1_556 S
C332 C334 1.389 1_556 S
C333 H312 0.948 1_554 S
C333 C332 1.373 1_554 S
C333 C349 1.377 . S
C334 C332 1.389 1_554 S
C334 C335 1.524 . S
C334 C348 1.377 . S
C335 C334 1.524 . S
C335 C336 1.397 . S
C335 C340 1.363 1_554 S
C336 H313 0.950 . S
C336 C335 1.397 . S
C336 C337 1.334 . S
C337 H314 0.950 . S
C337 C336 1.334 . S
C337 C338 1.287 . S
C338 C337 1.287 . S
C338 C339 1.524 1_554 S
C338 H357 0.913 . S
C339 H315 0.950 . S
C339 C338 1.524 1_556 S
C339 C340 1.415 . S
C340 H316 0.950 . S
C340 C335 1.363 1_556 S
C340 C339 1.415 . S
C341 H317 0.951 . S
C341 C342 1.366 . S
C341 C343 1.388 . S
C342 C341 1.366 . S
C342 C346 1.385 . S
C343 H318 0.951 . S
C343 C341 1.388 . S
C343 C344 1.366 . S
C344 C343 1.366 . S
C344 C345 1.414 . S
C344 C347 1.499 . S
C345 H319 0.950 . S
C345 C344 1.414 . S
C345 C346 1.374 . S
C346 H320 0.950 . S
C346 C342 1.385 . S
C346 C345 1.374 . S
C347 C344 1.499 . S
C347 C348 1.373 . S
C347 C349 1.389 . S
C348 H321 0.950 . S
C348 C334 1.377 . S
C348 C347 1.373 . S
C349 C333 1.377 . S
C349 C347 1.389 . S
C349 C350 1.524 . S
C350 C349 1.524 . S
C350 C351 1.397 . S
C350 C355 1.363 . S
C351 H322 0.950 1_554 S
C351 C350 1.397 . S
C351 C352 1.334 . S
C352 H323 0.950 1_554 S
C352 C351 1.334 . S
C352 C353 1.287 . S
C353 C352 1.287 . S
C353 C354 1.524 . S
C353 H356 0.999 . S
C354 H324 0.950 . S
C354 C353 1.524 . S
C354 C355 1.415 . S
C355 H325 0.950 . S
C355 C350 1.363 . S
C355 C354 1.415 . S
H356 C353 0.999 . S
H357 C338 0.913 . S
H358 C376 0.951 . S
H359 C378 0.951 . S
H360 C380 0.950 . S
H361 C381 0.950 . S
H362 C383 0.950 . S
H363 C386 0.950 . S
H364 C387 0.950 . S
H365 C389 0.950 . S
H366 C390 0.950 . S
H367 C391 0.951 . S
H368 C393 0.951 . S
H369 C395 0.950 . S
H370 C396 0.950 . S
H371 C398 0.950 . S
H372 C401 0.950 . S
H373 C402 0.950 . S
H374 C404 0.950 . S
H375 C405 0.950 . S
C376 H358 0.951 . S
C376 C377 1.366 . S
C376 C378 1.388 . S
C377 C376 1.366 . S
C377 C381 1.385 . S
C378 H359 0.951 . S
C378 C376 1.388 . S
C378 C379 1.366 . S
C379 C378 1.366 . S
C379 C380 1.414 . S
C379 C382 1.499 . S
C380 H360 0.950 . S
C380 C379 1.414 . S
C380 C381 1.374 . S
C381 H361 0.950 . S
C381 C377 1.385 . S
C381 C380 1.374 . S
C382 C379 1.499 . S
C382 C383 1.373 . S
C382 C384 1.389 . S
C383 H362 0.950 . S
C383 C382 1.373 . S
C383 C399 1.377 . S
C384 C382 1.389 . S
C384 C385 1.524 . S
C384 C398 1.377 . S
C385 C384 1.524 . S
C385 C386 1.397 . S
C385 C390 1.363 . S
C386 H363 0.950 . S
C386 C385 1.397 . S
C386 C387 1.334 . S
C387 H364 0.950 . S
C387 C386 1.334 . S
C387 C388 1.287 . S
C388 C387 1.287 . S
C388 C389 1.524 . S
C388 H407 0.913 . S
C389 H365 0.950 . S
C389 C388 1.524 . S
C389 C390 1.415 . S
C390 H366 0.950 . S
C390 C385 1.363 . S
C390 C389 1.415 . S
C391 H367 0.951 . S
C391 C392 1.366 . S
C391 C393 1.388 . S
C392 C391 1.366 . S
C392 C396 1.385 . S
C393 H368 0.951 . S
C393 C391 1.388 . S
C393 C394 1.366 . S
C394 C393 1.366 . S
C394 C395 1.414 . S
C394 C397 1.499 . S
C395 H369 0.950 . S
C395 C394 1.414 . S
C395 C396 1.374 . S
C396 H370 0.950 . S
C396 C392 1.385 . S
C396 C395 1.374 . S
C397 C394 1.499 . S
C397 C398 1.373 . S
C397 C399 1.389 . S
C398 H371 0.950 . S
C398 C384 1.377 . S
C398 C397 1.373 . S
C399 C383 1.377 . S
C399 C397 1.389 . S
C399 C400 1.524 . S
C400 C399 1.524 . S
C400 C401 1.397 . S
C400 C405 1.363 . S
C401 H372 0.950 . S
C401 C400 1.397 . S
C401 C402 1.334 . S
C402 H373 0.950 . S
C402 C401 1.334 . S
C402 C403 1.287 . S
C403 C402 1.287 . S
C403 C404 1.524 . S
C403 H406 0.999 . S
C404 H374 0.950 . S
C404 C403 1.524 . S
C404 C405 1.415 . S
C405 H375 0.950 . S
C405 C400 1.363 . S
C405 C404 1.415 . S
H406 C403 0.999 . S
H407 C388 0.913 . S
H408 C426 0.951 . S
H409 C428 0.951 . S
H410 C430 0.950 1_556 S
H411 C431 0.950 . S
H412 C433 0.950 . S
H413 C436 0.950 . S
H414 C437 0.950 1_556 S
H415 C439 0.950 . S
H416 C440 0.950 . S
H417 C441 0.951 . S
H418 C443 0.951 . S
H419 C445 0.950 . S
H420 C446 0.950 . S
H421 C448 0.950 . S
H422 C451 0.950 . S
H423 C452 0.950 . S
H424 C454 0.950 . S
H425 C455 0.950 . S
C426 H408 0.951 . S
C426 C427 1.366 . S
C426 C428 1.388 . S
C427 C426 1.366 . S
C427 C431 1.385 . S
C428 H409 0.951 . S
C428 C426 1.388 . S
C428 C429 1.366 . S
C429 C428 1.366 . S
C429 C430 1.414 . S
C429 C432 1.499 . S
C430 H410 0.950 1_554 S
C430 C429 1.414 . S
C430 C431 1.374 . S
C431 H411 0.950 . S
C431 C427 1.385 . S
C431 C430 1.374 . S
C432 C429 1.499 . S
C432 C433 1.373 1_554 S
C432 C434 1.391 . S
C433 H412 0.950 . S
C433 C432 1.373 1_556 S
C433 C449 1.377 . S
C434 C432 1.391 . S
C434 C435 1.533 . S
C434 C448 1.365 1_554 S
C435 C434 1.533 . S
C435 C436 1.397 1_554 S
C435 C440 1.363 . S
C436 H413 0.950 . S
C436 C435 1.397 1_556 S
C436 C437 1.334 1_556 S
C437 H414 0.950 1_554 S
C437 C436 1.334 1_554 S
C437 C438 1.287 . S
C438 C437 1.287 . S
C438 C439 1.524 . S
C438 H457 0.913 . S
C439 H415 0.950 . S
C439 C438 1.524 . S
C439 C440 1.415 . S
C440 H416 0.950 . S
C440 C435 1.363 . S
C440 C439 1.415 . S
C441 H417 0.951 . S
C441 C442 1.366 . S
C441 C443 1.388 . S
C442 C441 1.366 . S
C442 C446 1.385 . S
C443 H418 0.951 . S
C443 C441 1.388 . S
C443 C444 1.366 . S
C444 C443 1.366 . S
C444 C445 1.414 . S
C444 C447 1.499 . S
C445 H419 0.950 . S
C445 C444 1.414 . S
C445 C446 1.374 . S
C446 H420 0.950 . S
C446 C442 1.385 . S
C446 C445 1.374 . S
C447 C444 1.499 . S
C447 C448 1.373 . S
C447 C449 1.389 . S
C448 H421 0.950 . S
C448 C434 1.365 1_556 S
C448 C447 1.373 . S
C449 C433 1.377 . S
C449 C447 1.389 . S
C449 C450 1.524 . S
C450 C449 1.524 . S
C450 C451 1.397 . S
C450 C455 1.363 . S
C451 H422 0.950 . S
C451 C450 1.397 . S
C451 C452 1.334 . S
C452 H423 0.950 . S
C452 C451 1.334 . S
C452 C453 1.287 . S
C453 C452 1.287 . S
C453 C454 1.524 . S
C453 H456 0.999 . S
C454 H424 0.950 . S
C454 C453 1.524 . S
C454 C455 1.415 . S
C455 H425 0.950 . S
C455 C450 1.363 . S
C455 C454 1.415 . S
H456 C453 0.999 . S
H457 C438 0.913 . S
H458 C476 0.951 . S
H459 C478 0.951 . S
H460 C480 0.950 . S
H461 C481 0.950 . S
H462 C483 0.950 . S
H463 C486 0.950 . S
H464 C487 0.950 . S
H465 C489 0.950 . S
H466 C490 0.950 . S
H467 C491 0.951 . S
H468 C493 0.951 . S
H469 C495 0.950 . S
H470 C496 0.950 . S
H471 C498 0.950 . S
H472 C501 0.950 . S
H473 C502 0.950 . S
H474 C504 0.950 . S
H475 C505 0.950 . S
C476 H458 0.951 . S
C476 C477 1.366 . S
C476 C478 1.388 . S
C477 C476 1.366 . S
C477 C481 1.385 . S
C478 H459 0.951 . S
C478 C476 1.388 . S
C478 C479 1.366 . S
C479 C478 1.366 . S
C479 C480 1.414 . S
C479 C482 1.499 . S
C480 H460 0.950 . S
C480 C479 1.414 . S
C480 C481 1.374 . S
C481 H461 0.950 . S
C481 C477 1.385 . S
C481 C480 1.374 . S
C482 C479 1.499 . S
C482 C483 1.373 . S
C482 C484 1.389 . S
C483 H462 0.950 . S
C483 C482 1.373 . S
C483 C499 1.377 . S
C484 C482 1.389 . S
C484 C485 1.524 . S
C484 C498 1.377 . S
C485 C484 1.524 . S
C485 C486 1.397 . S
C485 C490 1.363 . S
C486 H463 0.950 . S
C486 C485 1.397 . S
C486 C487 1.334 . S
C487 H464 0.950 . S
C487 C486 1.334 . S
C487 C488 1.287 . S
C488 C487 1.287 . S
C488 C489 1.524 . S
C488 H507 0.913 . S
C489 H465 0.950 . S
C489 C488 1.524 . S
C489 C490 1.415 . S
C490 H466 0.950 . S
C490 C485 1.363 . S
C490 C489 1.415 . S
C491 H467 0.951 . S
C491 C492 1.366 . S
C491 C493 1.388 . S
C492 C491 1.366 . S
C492 C496 1.385 . S
C493 H468 0.951 . S
C493 C491 1.388 . S
C493 C494 1.366 . S
C494 C493 1.366 . S
C494 C495 1.414 . S
C494 C497 1.499 . S
C495 H469 0.950 . S
C495 C494 1.414 . S
C495 C496 1.374 . S
C496 H470 0.950 . S
C496 C492 1.385 . S
C496 C495 1.374 . S
C497 C494 1.499 . S
C497 C498 1.373 . S
C497 C499 1.389 . S
C498 H471 0.950 . S
C498 C484 1.377 . S
C498 C497 1.373 . S
C499 C483 1.377 . S
C499 C497 1.389 . S
C499 C500 1.524 . S
C500 C499 1.524 . S
C500 C501 1.397 . S
C500 C505 1.363 . S
C501 H472 0.950 . S
C501 C500 1.397 . S
C501 C502 1.334 . S
C502 H473 0.950 . S
C502 C501 1.334 . S
C502 C503 1.287 . S
C503 C502 1.287 . S
C503 C504 1.524 . S
C503 H506 0.999 . S
C504 H474 0.950 . S
C504 C503 1.524 . S
C504 C505 1.415 . S
C505 H475 0.950 . S
C505 C500 1.363 . S
C505 C504 1.415 . S
H506 C503 0.999 . S
H507 C488 0.913 . S
H508 C526 0.951 . S
H509 C528 0.951 . S
H510 C530 0.950 . S
H511 C531 0.950 . S
H512 C533 0.950 . S
H513 C536 0.950 . S
H514 C537 0.950 . S
H515 C539 0.950 . S
H516 C540 0.950 . S
H517 C541 0.951 . S
H518 C543 0.951 . S
H519 C545 0.950 . S
H520 C546 0.950 . S
H521 C548 0.950 . S
H522 C551 0.950 . S
H523 C552 0.950 . S
H524 C554 0.950 . S
H525 C555 0.950 . S
C526 H508 0.951 . S
C526 C527 1.366 . S
C526 C528 1.388 . S
C527 C526 1.366 . S
C527 C531 1.385 . S
C528 H509 0.951 . S
C528 C526 1.388 . S
C528 C529 1.366 . S
C529 C528 1.366 . S
C529 C530 1.414 . S
C529 C532 1.499 . S
C530 H510 0.950 . S
C530 C529 1.414 . S
C530 C531 1.374 . S
C531 H511 0.950 . S
C531 C527 1.385 . S
C531 C530 1.374 . S
C532 C529 1.499 . S
C532 C533 1.373 1_556 S
C532 C534 1.389 . S
C533 H512 0.950 . S
C533 C532 1.373 1_554 S
C533 C549 1.377 . S
C534 C532 1.389 . S
C534 C535 1.524 . S
C534 C548 1.377 1_556 S
C535 C534 1.524 . S
C535 C536 1.397 . S
C535 C540 1.363 . S
C536 H513 0.950 . S
C536 C535 1.397 . S
C536 C537 1.334 . S
C537 H514 0.950 . S
C537 C536 1.334 . S
C537 C538 1.287 . S
C538 C537 1.287 . S
C538 C539 1.524 . S
C538 H557 0.913 . S
C539 H515 0.950 . S
C539 C538 1.524 . S
C539 C540 1.415 . S
C540 H516 0.950 . S
C540 C535 1.363 . S
C540 C539 1.415 . S
C541 H517 0.951 . S
C541 C542 1.366 . S
C541 C543 1.388 . S
C542 C541 1.366 . S
C542 C546 1.385 . S
C543 H518 0.951 . S
C543 C541 1.388 . S
C543 C544 1.366 . S
C544 C543 1.366 . S
C544 C545 1.414 . S
C544 C547 1.499 . S
C545 H519 0.950 . S
C545 C544 1.414 . S
C545 C546 1.374 . S
C546 H520 0.950 . S
C546 C542 1.385 . S
C546 C545 1.374 . S
C547 C544 1.499 . S
C547 C548 1.373 . S
C547 C549 1.389 . S
C548 H521 0.950 . S
C548 C534 1.377 1_554 S
C548 C547 1.373 . S
C549 C533 1.377 . S
C549 C547 1.389 . S
C549 C550 1.524 . S
C550 C549 1.524 . S
C550 C551 1.397 . S
C550 C555 1.363 . S
C551 H522 0.950 . S
C551 C550 1.397 . S
C551 C552 1.334 . S
C552 H523 0.950 . S
C552 C551 1.334 . S
C552 C553 1.287 . S
C553 C552 1.287 . S
C553 C554 1.524 . S
C553 H556 0.999 . S
C554 H524 0.950 . S
C554 C553 1.524 . S
C554 C555 1.415 . S
C555 H525 0.950 . S
C555 C550 1.363 . S
C555 C554 1.415 . S
H556 C553 0.999 . S
H557 C538 0.913 . S
H558 C576 0.951 . S
H559 C578 0.951 . S
H560 C580 0.950 . S
H561 C581 0.950 . S
H562 C583 0.950 . S
H563 C586 0.950 . S
H564 C587 0.950 . S
H565 C589 0.950 . S
H566 C590 0.950 . S
H567 C591 0.951 . S
H568 C593 0.951 . S
H569 C595 0.950 . S
H570 C596 0.950 . S
H571 C598 0.950 . S
H572 C601 0.950 . S
H573 C602 0.950 . S
H574 C604 0.950 . S
H575 C605 0.950 . S
C576 H558 0.951 . S
C576 C577 1.366 . S
C576 C578 1.388 . S
C577 C576 1.366 . S
C577 C581 1.385 . S
C578 H559 0.951 . S
C578 C576 1.388 . S
C578 C579 1.366 . S
C579 C578 1.366 . S
C579 C580 1.414 . S
C579 C582 1.499 . S
C580 H560 0.950 . S
C580 C579 1.414 . S
C580 C581 1.374 . S
C581 H561 0.950 . S
C581 C577 1.385 . S
C581 C580 1.374 . S
C582 C579 1.499 . S
C582 C583 1.373 . S
C582 C584 1.389 . S
C583 H562 0.950 . S
C583 C582 1.373 . S
C583 C599 1.377 . S
C584 C582 1.389 . S
C584 C585 1.524 . S
C584 C598 1.377 . S
C585 C584 1.524 . S
C585 C586 1.397 . S
C585 C590 1.363 . S
C586 H563 0.950 . S
C586 C585 1.397 . S
C586 C587 1.334 . S
C587 H564 0.950 . S
C587 C586 1.334 . S
C587 C588 1.287 . S
C588 C587 1.287 . S
C588 C589 1.524 . S
C588 H607 0.913 . S
C589 H565 0.950 . S
C589 C588 1.524 . S
C589 C590 1.415 . S
C590 H566 0.950 . S
C590 C585 1.363 . S
C590 C589 1.415 . S
C591 H567 0.951 . S
C591 C592 1.366 . S
C591 C593 1.388 . S
C592 C591 1.366 . S
C592 C596 1.385 . S
C593 H568 0.951 . S
C593 C591 1.388 . S
C593 C594 1.366 . S
C594 C593 1.366 . S
C594 C595 1.414 . S
C594 C597 1.499 . S
C595 H569 0.950 . S
C595 C594 1.414 . S
C595 C596 1.374 . S
C596 H570 0.950 . S
C596 C592 1.385 . S
C596 C595 1.374 . S
C597 C594 1.499 . S
C597 C598 1.373 . S
C597 C599 1.389 . S
C598 H571 0.950 . S
C598 C584 1.377 . S
C598 C597 1.373 . S
C599 C583 1.377 . S
C599 C597 1.389 . S
C599 C600 1.524 . S
C600 C599 1.524 . S
C600 C601 1.397 . S
C600 C605 1.363 . S
C601 H572 0.950 . S
C601 C600 1.397 . S
C601 C602 1.334 . S
C602 H573 0.950 . S
C602 C601 1.334 . S
C602 C603 1.287 . S
C603 C602 1.287 . S
C603 C604 1.524 . S
C603 H606 0.999 . S
C604 H574 0.950 . S
C604 C603 1.524 . S
C604 C605 1.415 . S
C605 H575 0.950 . S
C605 C600 1.363 . S
C605 C604 1.415 . S
H606 C603 0.999 . S
H607 C588 0.913 . S
H608 C626 0.951 . S
H609 C628 0.951 . S
H610 C630 0.956 . S
H611 C631 0.950 1_556 S
H612 C633 0.950 . S
H613 C636 0.950 . S
H614 C637 0.950 . S
H615 C639 0.950 1_565 S
H616 C640 0.950 . S
H617 C641 0.951 . S
H618 C643 0.951 . S
H619 C645 0.956 . S
H620 C646 0.950 1_554 S
H621 C648 0.950 . S
H622 C651 0.950 . S
H623 C652 0.950 . S
H624 C654 0.950 1_545 S
H625 C655 0.950 . S
C626 H608 0.951 . S
C626 C627 1.366 . S
C626 C628 1.388 . S
C627 C626 1.366 . S
C627 C631 1.385 . S
C628 H609 0.951 . S
C628 C626 1.388 . S
C628 C629 1.366 . S
C629 C628 1.366 . S
C629 C630 1.410 1_554 S
C629 C632 1.499 . S
C630 H610 0.956 . S
C630 C629 1.410 1_556 S
C630 C631 1.372 1_556 S
C631 H611 0.950 1_554 S
C631 C627 1.385 . S
C631 C630 1.372 1_554 S
C632 C629 1.499 . S
C632 C633 1.373 1_554 S
C632 C634 1.389 . S
C633 H612 0.950 . S
C633 C632 1.373 1_556 S
C633 C649 1.377 1_545 S
C634 C632 1.389 . S
C634 C635 1.524 . S
C634 C648 1.377 1_545 S
C635 C634 1.524 . S
C635 C636 1.397 . S
C635 C640 1.363 1_545 S
C636 H613 0.950 . S
C636 C635 1.397 . S
C636 C637 1.334 . S
C637 H614 0.950 . S
C637 C636 1.334 . S
C637 C638 1.287 . S
C638 C637 1.287 . S
C638 C639 1.524 . S
C638 H657 0.913 . S
C639 H615 0.950 1_545 S
C639 C638 1.524 . S
C639 C640 1.415 1_545 S
C640 H616 0.950 . S
C640 C635 1.363 1_565 S
C640 C639 1.415 1_565 S
C641 H617 0.951 . S
C641 C642 1.366 . S
C641 C643 1.388 . S
C642 C641 1.366 . S
C642 C646 1.385 . S
C643 H618 0.951 . S
C643 C641 1.388 . S
C643 C644 1.366 . S
C644 C643 1.366 . S
C644 C645 1.410 1_556 S
C644 C647 1.499 . S
C645 H619 0.956 . S
C645 C644 1.410 1_554 S
C645 C646 1.372 1_554 S
C646 H620 0.950 1_556 S
C646 C642 1.385 . S
C646 C645 1.372 1_556 S
C647 C644 1.499 . S
C647 C648 1.373 1_556 S
C647 C649 1.389 . S
C648 H621 0.950 . S
C648 C634 1.377 1_565 S
C648 C647 1.373 1_554 S
C649 C633 1.377 1_565 S
C649 C647 1.389 . S
C649 C650 1.524 . S
C650 C649 1.524 . S
C650 C651 1.397 . S
C650 C655 1.363 1_565 S
C651 H622 0.950 . S
C651 C650 1.397 . S
C651 C652 1.334 . S
C652 H623 0.950 . S
C652 C651 1.334 . S
C652 C653 1.287 . S
C653 C652 1.287 . S
C653 C654 1.524 . S
C653 H656 0.999 . S
C654 H624 0.950 1_565 S
C654 C653 1.524 . S
C654 C655 1.415 1_565 S
C655 H625 0.950 . S
C655 C650 1.363 1_545 S
C655 C654 1.415 1_545 S
H656 C653 0.999 . S
H657 C638 0.913 . S
H658 C676 0.951 . S
H659 C678 0.951 . S
H660 C680 0.950 . S
H661 C681 0.950 . S
H662 C683 0.950 . S
H663 C686 0.950 . S
H664 C687 0.950 . S
H665 C689 0.950 . S
H666 C690 0.950 . S
H667 C691 0.951 . S
H668 C693 0.951 . S
H669 C695 0.950 . S
H670 C696 0.950 . S
H671 C698 0.950 . S
H672 C701 0.950 . S
H673 C702 0.950 . S
H674 C704 0.950 . S
H675 C705 0.950 . S
C676 H658 0.951 . S
C676 C677 1.366 . S
C676 C678 1.388 . S
C677 C676 1.366 . S
C677 C681 1.385 . S
C678 H659 0.951 . S
C678 C676 1.388 . S
C678 C679 1.366 . S
C679 C678 1.366 . S
C679 C680 1.414 . S
C679 C682 1.499 . S
C680 H660 0.950 . S
C680 C679 1.414 . S
C680 C681 1.374 . S
C681 H661 0.950 . S
C681 C677 1.385 . S
C681 C680 1.374 . S
C682 C679 1.499 . S
C682 C683 1.373 . S
C682 C684 1.389 . S
C683 H662 0.950 . S
C683 C682 1.373 . S
C683 C699 1.377 1_565 S
C684 C682 1.389 . S
C684 C685 1.524 . S
C684 C698 1.377 1_565 S
C685 C684 1.524 . S
C685 C686 1.397 . S
C685 C690 1.363 . S
C686 H663 0.950 . S
C686 C685 1.397 . S
C686 C687 1.334 . S
C687 H664 0.950 . S
C687 C686 1.334 . S
C687 C688 1.287 . S
C688 C687 1.287 . S
C688 C689 1.524 . S
C688 H707 0.913 . S
C689 H665 0.950 . S
C689 C688 1.524 . S
C689 C690 1.415 . S
C690 H666 0.950 . S
C690 C685 1.363 . S
C690 C689 1.415 . S
C691 H667 0.951 . S
C691 C692 1.366 . S
C691 C693 1.388 . S
C692 C691 1.366 . S
C692 C696 1.385 . S
C693 H668 0.951 . S
C693 C691 1.388 . S
C693 C694 1.366 . S
C694 C693 1.366 . S
C694 C695 1.414 . S
C694 C697 1.499 . S
C695 H669 0.950 . S
C695 C694 1.414 . S
C695 C696 1.374 . S
C696 H670 0.950 . S
C696 C692 1.385 . S
C696 C695 1.374 . S
C697 C694 1.499 . S
C697 C698 1.373 . S
C697 C699 1.389 . S
C698 H671 0.950 . S
C698 C684 1.377 1_545 S
C698 C697 1.373 . S
C699 C683 1.377 1_545 S
C699 C697 1.389 . S
C699 C700 1.524 . S
C700 C699 1.524 . S
C700 C701 1.397 . S
C700 C705 1.363 . S
C701 H672 0.950 . S
C701 C700 1.397 . S
C701 C702 1.334 . S
C702 H673 0.950 . S
C702 C701 1.334 . S
C702 C703 1.287 . S
C703 C702 1.287 . S
C703 C704 1.524 . S
C703 H706 0.999 . S
C704 H674 0.950 . S
C704 C703 1.524 . S
C704 C705 1.415 . S
C705 H675 0.950 . S
C705 C700 1.363 . S
C705 C704 1.415 . S
H706 C703 0.999 . S
H707 C688 0.913 . S
H708 C726 0.951 . S
H709 C728 0.951 . S
H710 C730 0.950 . S
H711 C731 0.950 . S
H712 C733 0.950 . S
H713 C736 0.950 . S
H714 C737 0.950 . S
H715 C739 0.950 . S
H716 C740 0.950 . S
H717 C741 0.951 . S
H718 C743 0.951 . S
H719 C745 0.950 . S
H720 C746 0.950 . S
H721 C748 0.950 . S
H722 C751 0.950 . S
H723 C752 0.950 . S
H724 C754 0.950 . S
H725 C755 0.950 . S
C726 H708 0.951 . S
C726 C727 1.366 . S
C726 C728 1.388 . S
C727 C726 1.366 . S
C727 C731 1.385 . S
C728 H709 0.951 . S
C728 C726 1.388 . S
C728 C729 1.366 . S
C729 C728 1.366 . S
C729 C730 1.414 . S
C729 C732 1.499 . S
C730 H710 0.950 . S
C730 C729 1.414 . S
C730 C731 1.374 . S
C731 H711 0.950 . S
C731 C727 1.385 . S
C731 C730 1.374 . S
C732 C729 1.499 . S
C732 C733 1.373 . S
C732 C734 1.389 1_556 S
C733 H712 0.950 . S
C733 C732 1.373 . S
C733 C749 1.377 1_565 S
C734 C732 1.389 1_554 S
C734 C735 1.524 . S
C734 C748 1.377 1_565 S
C735 C734 1.524 . S
C735 C736 1.397 . S
C735 C740 1.363 . S
C736 H713 0.950 . S
C736 C735 1.397 . S
C736 C737 1.334 . S
C737 H714 0.950 . S
C737 C736 1.334 . S
C737 C738 1.287 . S
C738 C737 1.287 . S
C738 C739 1.524 . S
C738 H757 0.913 . S
C739 H715 0.950 . S
C739 C738 1.524 . S
C739 C740 1.415 . S
C740 H716 0.950 . S
C740 C735 1.363 . S
C740 C739 1.415 . S
C741 H717 0.951 . S
C741 C742 1.366 . S
C741 C743 1.388 . S
C742 C741 1.366 . S
C742 C746 1.385 . S
C743 H718 0.951 . S
C743 C741 1.388 . S
C743 C744 1.366 . S
C744 C743 1.366 . S
C744 C745 1.414 . S
C744 C747 1.499 . S
C745 H719 0.950 . S
C745 C744 1.414 . S
C745 C746 1.374 . S
C746 H720 0.950 . S
C746 C742 1.385 . S
C746 C745 1.374 . S
C747 C744 1.499 . S
C747 C748 1.373 . S
C747 C749 1.389 1_554 S
C748 H721 0.950 . S
C748 C734 1.377 1_545 S
C748 C747 1.373 . S
C749 C733 1.377 1_545 S
C749 C747 1.389 1_556 S
C749 C750 1.524 . S
C750 C749 1.524 . S
C750 C751 1.397 . S
C750 C755 1.363 . S
C751 H722 0.950 . S
C751 C750 1.397 . S
C751 C752 1.334 . S
C752 H723 0.950 . S
C752 C751 1.334 . S
C752 C753 1.287 . S
C753 C752 1.287 . S
C753 C754 1.524 . S
C753 H756 0.999 . S
C754 H724 0.950 . S
C754 C753 1.524 . S
C754 C755 1.415 . S
C755 H725 0.950 . S
C755 C750 1.363 . S
C755 C754 1.415 . S
H756 C753 0.999 . S
H757 C738 0.913 . S
H758 C776 0.951 . S
H759 C778 0.951 . S
H760 C780 0.950 . S
H761 C781 0.950 . S
H762 C783 0.950 . S
H763 C786 0.950 . S
H764 C787 0.950 . S
H765 C789 0.950 . S
H766 C790 0.950 . S
H767 C791 0.951 . S
H768 C793 0.951 . S
H769 C795 0.950 . S
H770 C796 0.950 . S
H771 C798 0.950 . S
H772 C801 0.950 . S
H773 C802 0.950 . S
H774 C804 0.950 . S
H775 C805 0.950 . S
C776 H758 0.951 . S
C776 C777 1.366 . S
C776 C778 1.388 . S
C777 C776 1.366 . S
C777 C781 1.385 . S
C778 H759 0.951 . S
C778 C776 1.388 . S
C778 C779 1.366 . S
C779 C778 1.366 . S
C779 C780 1.414 . S
C779 C782 1.499 . S
C780 H760 0.950 . S
C780 C779 1.414 . S
C780 C781 1.374 . S
C781 H761 0.950 . S
C781 C777 1.385 . S
C781 C780 1.374 . S
C782 C779 1.499 . S
C782 C783 1.373 . S
C782 C784 1.389 . S
C783 H762 0.950 . S
C783 C782 1.373 . S
C783 C799 1.377 1_545 S
C784 C782 1.389 . S
C784 C785 1.524 . S
C784 C798 1.377 1_545 S
C785 C784 1.524 . S
C785 C786 1.397 . S
C785 C790 1.363 . S
C786 H763 0.950 . S
C786 C785 1.397 . S
C786 C787 1.334 . S
C787 H764 0.950 . S
C787 C786 1.334 . S
C787 C788 1.287 . S
C788 C787 1.287 . S
C788 C789 1.524 . S
C788 H807 0.913 . S
C789 H765 0.950 . S
C789 C788 1.524 . S
C789 C790 1.415 . S
C790 H766 0.950 . S
C790 C785 1.363 . S
C790 C789 1.415 . S
C791 H767 0.951 . S
C791 C792 1.366 . S
C791 C793 1.388 . S
C792 C791 1.366 . S
C792 C796 1.385 . S
C793 H768 0.951 . S
C793 C791 1.388 . S
C793 C794 1.366 . S
C794 C793 1.366 . S
C794 C795 1.414 . S
C794 C797 1.499 . S
C795 H769 0.950 . S
C795 C794 1.414 . S
C795 C796 1.374 . S
C796 H770 0.950 . S
C796 C792 1.385 . S
C796 C795 1.374 . S
C797 C794 1.499 . S
C797 C798 1.373 . S
C797 C799 1.389 . S
C798 H771 0.950 . S
C798 C784 1.377 1_565 S
C798 C797 1.373 . S
C799 C783 1.377 1_565 S
C799 C797 1.389 . S
C799 C800 1.524 . S
C800 C799 1.524 . S
C800 C801 1.397 . S
C800 C805 1.363 . S
C801 H772 0.950 . S
C801 C800 1.397 . S
C801 C802 1.334 . S
C802 H773 0.950 . S
C802 C801 1.334 . S
C802 C803 1.287 . S
C803 C802 1.287 . S
C803 C804 1.524 . S
C803 H806 0.999 . S
C804 H774 0.950 . S
C804 C803 1.524 . S
C804 C805 1.415 . S
C805 H775 0.950 . S
C805 C800 1.363 . S
C805 C804 1.415 . S
H806 C803 0.999 . S
H807 C788 0.913 . S
H808 C826 0.951 1_554 S
H809 C828 0.951 . S
H810 C830 0.950 . S
H811 C831 0.950 . S
H812 C833 0.950 . S
H813 C836 0.950 1_556 S
H814 C837 0.950 1_556 S
H815 C839 0.950 . S
H816 C840 0.950 . S
H817 C841 0.951 1_556 S
H818 C843 0.951 . S
H819 C845 0.950 . S
H820 C846 0.950 . S
H821 C848 0.950 . S
H822 C851 0.950 1_554 S
H823 C852 0.950 1_554 S
H824 C854 0.950 . S
H825 C855 0.950 . S
C826 H808 0.951 1_556 S
C826 C827 1.366 . S
C826 C828 1.388 1_556 S
C827 C826 1.366 . S
C827 C831 1.385 . S
C828 H809 0.951 . S
C828 C826 1.388 1_554 S
C828 C829 1.366 1_554 S
C829 C828 1.366 1_556 S
C829 C830 1.414 . S
C829 C832 1.499 . S
C830 H810 0.950 . S
C830 C829 1.414 . S
C830 C831 1.374 . S
C831 H811 0.950 . S
C831 C827 1.385 . S
C831 C830 1.374 . S
C832 C829 1.499 . S
C832 C833 1.373 . S
C832 C834 1.389 1_556 S
C833 H812 0.950 . S
C833 C832 1.373 . S
C833 C849 1.377 . S
C834 C832 1.389 1_554 S
C834 C835 1.524 . S
C834 C848 1.377 . S
C835 C834 1.524 . S
C835 C836 1.397 . S
C835 C840 1.363 . S
C836 H813 0.950 1_554 S
C836 C835 1.397 . S
C836 C837 1.334 . S
C837 H814 0.950 1_554 S
C837 C836 1.334 . S
C837 C838 1.287 . S
C838 C837 1.287 . S
C838 C839 1.524 . S
C838 H857 0.913 . S
C839 H815 0.950 . S
C839 C838 1.524 . S
C839 C840 1.415 . S
C840 H816 0.950 . S
C840 C835 1.363 . S
C840 C839 1.415 . S
C841 H817 0.951 1_554 S
C841 C842 1.366 . S
C841 C843 1.388 1_554 S
C842 C841 1.366 . S
C842 C846 1.385 . S
C843 H818 0.951 . S
C843 C841 1.388 1_556 S
C843 C844 1.366 1_556 S
C844 C843 1.366 1_554 S
C844 C845 1.414 . S
C844 C847 1.499 . S
C845 H819 0.950 . S
C845 C844 1.414 . S
C845 C846 1.374 . S
C846 H820 0.950 . S
C846 C842 1.385 . S
C846 C845 1.374 . S
C847 C844 1.499 . S
C847 C848 1.373 . S
C847 C849 1.389 1_554 S
C848 H821 0.950 . S
C848 C834 1.377 . S
C848 C847 1.373 . S
C849 C833 1.377 . S
C849 C847 1.389 1_556 S
C849 C850 1.524 . S
C850 C849 1.524 . S
C850 C851 1.397 . S
C850 C855 1.363 . S
C851 H822 0.950 1_556 S
C851 C850 1.397 . S
C851 C852 1.334 . S
C852 H823 0.950 1_556 S
C852 C851 1.334 . S
C852 C853 1.287 . S
C853 C852 1.287 . S
C853 C854 1.524 . S
C853 H856 0.999 . S
C854 H824 0.950 . S
C854 C853 1.524 . S
C854 C855 1.415 . S
C855 H825 0.950 . S
C855 C850 1.363 . S
C855 C854 1.415 . S
H856 C853 0.999 . S
H857 C838 0.913 . S
H858 C876 0.951 . S
H859 C878 0.951 . S
H860 C880 0.950 . S
H861 C881 0.950 . S
H862 C883 0.950 . S
H863 C886 0.950 . S
H864 C887 0.950 . S
H865 C889 0.950 . S
H866 C890 0.950 . S
H867 C891 0.951 . S
H868 C893 0.951 . S
H869 C895 0.950 . S
H870 C896 0.950 . S
H871 C898 0.950 . S
H872 C901 0.950 . S
H873 C902 0.950 . S
H874 C904 0.950 . S
H875 C905 0.950 . S
C876 H858 0.951 . S
C876 C877 1.366 . S
C876 C878 1.388 . S
C877 C876 1.366 . S
C877 C881 1.385 . S
C878 H859 0.951 . S
C878 C876 1.388 . S
C878 C879 1.366 . S
C879 C878 1.366 . S
C879 C880 1.414 . S
C879 C882 1.499 . S
C880 H860 0.950 . S
C880 C879 1.414 . S
C880 C881 1.374 . S
C881 H861 0.950 . S
C881 C877 1.385 . S
C881 C880 1.374 . S
C882 C879 1.499 . S
C882 C883 1.373 . S
C882 C884 1.389 . S
C883 H862 0.950 . S
C883 C882 1.373 . S
C883 C899 1.377 . S
C884 C882 1.389 . S
C884 C885 1.524 . S
C884 C898 1.377 . S
C885 C884 1.524 . S
C885 C886 1.397 . S
C885 C890 1.363 . S
C886 H863 0.950 . S
C886 C885 1.397 . S
C886 C887 1.334 . S
C887 H864 0.950 . S
C887 C886 1.334 . S
C887 C888 1.287 . S
C888 C887 1.287 . S
C888 C889 1.524 . S
C888 H907 0.913 . S
C889 H865 0.950 . S
C889 C888 1.524 . S
C889 C890 1.415 . S
C890 H866 0.950 . S
C890 C885 1.363 . S
C890 C889 1.415 . S
C891 H867 0.951 . S
C891 C892 1.366 . S
C891 C893 1.388 . S
C892 C891 1.366 . S
C892 C896 1.385 . S
C893 H868 0.951 . S
C893 C891 1.388 . S
C893 C894 1.366 . S
C894 C893 1.366 . S
C894 C895 1.414 . S
C894 C897 1.499 . S
C895 H869 0.950 . S
C895 C894 1.414 . S
C895 C896 1.374 . S
C896 H870 0.950 . S
C896 C892 1.385 . S
C896 C895 1.374 . S
C897 C894 1.499 . S
C897 C898 1.373 . S
C897 C899 1.389 . S
C898 H871 0.950 . S
C898 C884 1.377 . S
C898 C897 1.373 . S
C899 C883 1.377 . S
C899 C897 1.389 . S
C899 C900 1.524 . S
C900 C899 1.524 . S
C900 C901 1.397 . S
C900 C905 1.363 . S
C901 H872 0.950 . S
C901 C900 1.397 . S
C901 C902 1.334 . S
C902 H873 0.950 . S
C902 C901 1.334 . S
C902 C903 1.287 . S
C903 C902 1.287 . S
C903 C904 1.524 . S
C903 H906 0.999 . S
C904 H874 0.950 . S
C904 C903 1.524 . S
C904 C905 1.415 . S
C905 H875 0.950 . S
C905 C900 1.363 . S
C905 C904 1.415 . S
H906 C903 0.999 . S
H907 C888 0.913 . S
H908 C926 0.951 . S
H909 C928 0.951 . S
H910 C930 0.950 1_556 S
H911 C931 0.950 . S
H912 C933 0.950 . S
H913 C936 0.950 . S
H914 C937 0.950 . S
H915 C939 0.950 . S
H916 C940 0.950 . S
H917 C941 0.951 . S
H918 C943 0.951 . S
H919 C945 0.950 1_554 S
H920 C946 0.950 . S
H921 C948 0.950 . S
H922 C951 0.950 . S
H923 C952 0.950 . S
H924 C954 0.950 . S
H925 C955 0.950 . S
C926 H908 0.951 . S
C926 C927 1.366 . S
C926 C928 1.388 . S
C927 C926 1.366 . S
C927 C931 1.385 . S
C928 H909 0.951 . S
C928 C926 1.388 . S
C928 C929 1.366 . S
C929 C928 1.366 . S
C929 C930 1.414 . S
C929 C932 1.499 . S
C930 H910 0.950 1_554 S
C930 C929 1.414 . S
C930 C931 1.374 . S
C931 H911 0.950 . S
C931 C927 1.385 . S
C931 C930 1.374 . S
C932 C929 1.499 . S
C932 C933 1.373 1_554 S
C932 C934 1.389 . S
C933 H912 0.950 . S
C933 C932 1.373 1_556 S
C933 C949 1.377 . S
C934 C932 1.389 . S
C934 C935 1.524 . S
C934 C948 1.377 . S
C935 C934 1.524 . S
C935 C936 1.397 . S
C935 C940 1.363 . S
C936 H913 0.950 . S
C936 C935 1.397 . S
C936 C937 1.334 . S
C937 H914 0.950 . S
C937 C936 1.334 . S
C937 C938 1.287 . S
C938 C937 1.287 . S
C938 C939 1.524 . S
C938 H957 0.913 . S
C939 H915 0.950 . S
C939 C938 1.524 . S
C939 C940 1.415 . S
C940 H916 0.950 . S
C940 C935 1.363 . S
C940 C939 1.415 . S
C941 H917 0.951 . S
C941 C942 1.366 . S
C941 C943 1.388 . S
C942 C941 1.366 . S
C942 C946 1.385 . S
C943 H918 0.951 . S
C943 C941 1.388 . S
C943 C944 1.366 . S
C944 C943 1.366 . S
C944 C945 1.414 . S
C944 C947 1.499 . S
C945 H919 0.950 1_556 S
C945 C944 1.414 . S
C945 C946 1.374 . S
C946 H920 0.950 . S
C946 C942 1.385 . S
C946 C945 1.374 . S
C947 C944 1.499 . S
C947 C948 1.373 1_556 S
C947 C949 1.389 . S
C948 H921 0.950 . S
C948 C934 1.377 . S
C948 C947 1.373 1_554 S
C949 C933 1.377 . S
C949 C947 1.389 . S
C949 C950 1.524 . S
C950 C949 1.524 . S
C950 C951 1.397 . S
C950 C955 1.363 . S
C951 H922 0.950 . S
C951 C950 1.397 . S
C951 C952 1.334 . S
C952 H923 0.950 . S
C952 C951 1.334 . S
C952 C953 1.287 . S
C953 C952 1.287 . S
C953 C954 1.524 . S
C953 H956 0.999 . S
C954 H924 0.950 . S
C954 C953 1.524 . S
C954 C955 1.415 . S
C955 H925 0.950 . S
C955 C950 1.363 . S
C955 C954 1.415 . S
H956 C953 0.999 . S
H957 C938 0.913 . S
H958 C976 0.951 . S
H959 C978 0.951 . S
H960 C980 0.950 . S
H961 C981 0.950 . S
H962 C983 0.950 . S
H963 C986 0.950 . S
H964 C987 0.950 . S
H965 C989 0.950 . S
H966 C990 0.950 . S
H967 C991 0.951 . S
H968 C993 0.951 . S
H969 C995 0.950 . S
H970 C996 0.950 . S
H971 C998 0.950 . S
H972 C1001 0.950 . S
H973 C1002 0.950 . S
H974 C1004 0.950 . S
H975 C1005 0.950 . S
C976 H958 0.951 . S
C976 C977 1.366 . S
C976 C978 1.388 . S
C977 C976 1.366 . S
C977 C981 1.385 . S
C978 H959 0.951 . S
C978 C976 1.388 . S
C978 C979 1.366 . S
C979 C978 1.366 . S
C979 C980 1.414 . S
C979 C982 1.499 . S
C980 H960 0.950 . S
C980 C979 1.414 . S
C980 C981 1.374 . S
C981 H961 0.950 . S
C981 C977 1.385 . S
C981 C980 1.374 . S
C982 C979 1.499 . S
C982 C983 1.373 . S
C982 C984 1.389 . S
C983 H962 0.950 . S
C983 C982 1.373 . S
C983 C999 1.377 . S
C984 C982 1.389 . S
C984 C985 1.524 . S
C984 C998 1.377 . S
C985 C984 1.524 . S
C985 C986 1.397 . S
C985 C990 1.363 . S
C986 H963 0.950 . S
C986 C985 1.397 . S
C986 C987 1.334 . S
C987 H964 0.950 . S
C987 C986 1.334 . S
C987 C988 1.287 . S
C988 C987 1.287 . S
C988 C989 1.524 . S
C988 H1007 0.913 . S
C989 H965 0.950 . S
C989 C988 1.524 . S
C989 C990 1.415 . S
C990 H966 0.950 . S
C990 C985 1.363 . S
C990 C989 1.415 . S
C991 H967 0.951 . S
C991 C992 1.366 . S
C991 C993 1.388 . S
C992 C991 1.366 . S
C992 C996 1.385 . S
C993 H968 0.951 . S
C993 C991 1.388 . S
C993 C994 1.366 . S
C994 C993 1.366 . S
C994 C995 1.414 . S
C994 C997 1.499 . S
C995 H969 0.950 . S
C995 C994 1.414 . S
C995 C996 1.374 . S
C996 H970 0.950 . S
C996 C992 1.385 . S
C996 C995 1.374 . S
C997 C994 1.499 . S
C997 C998 1.373 . S
C997 C999 1.389 . S
C998 H971 0.950 . S
C998 C984 1.377 . S
C998 C997 1.373 . S
C999 C983 1.377 . S
C999 C997 1.389 . S
C999 C1000 1.524 . S
C1000 C999 1.524 . S
C1000 C1001 1.397 . S
C1000 C1005 1.363 . S
C1001 H972 0.950 . S
C1001 C1000 1.397 . S
C1001 C1002 1.334 . S
C1002 H973 0.950 . S
C1002 C1001 1.334 . S
C1002 C1003 1.287 . S
C1003 C1002 1.287 . S
C1003 C1004 1.524 . S
C1003 H1006 0.999 . S
C1004 H974 0.950 . S
C1004 C1003 1.524 . S
C1004 C1005 1.415 . S
C1005 H975 0.950 . S
C1005 C1000 1.363 . S
C1005 C1004 1.415 . S
H1006 C1003 0.999 . S
H1007 C988 0.913 . S
H1008 C1026 0.951 . S
H1009 C1028 0.951 . S
H1010 C1030 0.950 . S
H1011 C1031 0.950 . S
H1012 C1033 0.950 . S
H1013 C1036 0.950 . S
H1014 C1037 0.950 . S
H1015 C1039 0.950 . S
H1016 C1040 0.950 . S
H1017 C1041 0.951 . S
H1018 C1043 0.951 . S
H1019 C1045 0.950 . S
H1020 C1046 0.950 . S
H1021 C1048 0.950 . S
H1022 C1051 0.950 . S
H1023 C1052 0.950 . S
H1024 C1054 0.950 . S
H1025 C1055 0.950 . S
C1026 H1008 0.951 . S
C1026 C1027 1.366 . S
C1026 C1028 1.388 . S
C1027 C1026 1.366 . S
C1027 C1031 1.385 . S
C1028 H1009 0.951 . S
C1028 C1026 1.388 . S
C1028 C1029 1.366 . S
C1029 C1028 1.366 . S
C1029 C1030 1.414 . S
C1029 C1032 1.499 . S
C1030 H1010 0.950 . S
C1030 C1029 1.414 . S
C1030 C1031 1.374 . S
C1031 H1011 0.950 . S
C1031 C1027 1.385 . S
C1031 C1030 1.374 . S
C1032 C1029 1.499 . S
C1032 C1033 1.373 . S
C1032 C1034 1.389 . S
C1033 H1012 0.950 . S
C1033 C1032 1.373 . S
C1033 C1049 1.377 . S
C1034 C1032 1.389 . S
C1034 C1035 1.524 . S
C1034 C1048 1.377 . S
C1035 C1034 1.524 . S
C1035 C1036 1.397 . S
C1035 C1040 1.363 . S
C1036 H1013 0.950 . S
C1036 C1035 1.397 . S
C1036 C1037 1.334 . S
C1037 H1014 0.950 . S
C1037 C1036 1.334 . S
C1037 C1038 1.287 . S
C1038 C1037 1.287 . S
C1038 C1039 1.524 . S
C1038 H1057 0.913 . S
C1039 H1015 0.950 . S
C1039 C1038 1.524 . S
C1039 C1040 1.415 . S
C1040 H1016 0.950 . S
C1040 C1035 1.363 . S
C1040 C1039 1.415 . S
C1041 H1017 0.951 . S
C1041 C1042 1.366 . S
C1041 C1043 1.388 . S
C1042 C1041 1.366 . S
C1042 C1046 1.385 . S
C1043 H1018 0.951 . S
C1043 C1041 1.388 . S
C1043 C1044 1.366 . S
C1044 C1043 1.366 . S
C1044 C1045 1.414 . S
C1044 C1047 1.499 . S
C1045 H1019 0.950 . S
C1045 C1044 1.414 . S
C1045 C1046 1.374 . S
C1046 H1020 0.950 . S
C1046 C1042 1.385 . S
C1046 C1045 1.374 . S
C1047 C1044 1.499 . S
C1047 C1048 1.373 . S
C1047 C1049 1.389 . S
C1048 H1021 0.950 . S
C1048 C1034 1.377 . S
C1048 C1047 1.373 . S
C1049 C1033 1.377 . S
C1049 C1047 1.389 . S
C1049 C1050 1.524 . S
C1050 C1049 1.524 . S
C1050 C1051 1.397 . S
C1050 C1055 1.363 . S
C1051 H1022 0.950 . S
C1051 C1050 1.397 . S
C1051 C1052 1.334 . S
C1052 H1023 0.950 . S
C1052 C1051 1.334 . S
C1052 C1053 1.287 . S
C1053 C1052 1.287 . S
C1053 C1054 1.524 . S
C1053 H1056 0.999 . S
C1054 H1024 0.950 . S
C1054 C1053 1.524 . S
C1054 C1055 1.415 . S
C1055 H1025 0.950 . S
C1055 C1050 1.363 . S
C1055 C1054 1.415 . S
H1056 C1053 0.999 . S
H1057 C1038 0.913 . S
H1058 C1076 0.951 . S
H1059 C1078 0.951 . S
H1060 C1080 0.950 . S
H1061 C1081 0.950 . S
H1062 C1083 0.950 1_655 S
H1063 C1086 0.950 . S
H1064 C1087 0.950 . S
H1065 C1089 0.950 . S
H1066 C1090 0.969 . S
H1067 C1091 0.951 . S
H1068 C1093 0.951 . S
H1069 C1095 0.950 . S
H1070 C1096 0.950 . S
H1071 C1098 0.950 . S
H1072 C1101 0.950 . S
H1073 C1102 0.950 . S
H1074 C1104 0.950 . S
H1075 C1105 0.950 . S
C1076 H1058 0.951 . S
C1076 C1077 1.366 . S
C1076 C1078 1.388 . S
C1077 C1076 1.366 . S
C1077 C1081 1.385 . S
C1078 H1059 0.951 . S
C1078 C1076 1.388 . S
C1078 C1079 1.366 . S
C1079 C1078 1.366 . S
C1079 C1080 1.414 . S
C1079 C1082 1.499 . S
C1080 H1060 0.950 . S
C1080 C1079 1.414 . S
C1080 C1081 1.374 . S
C1081 H1061 0.950 . S
C1081 C1077 1.385 . S
C1081 C1080 1.374 . S
C1082 C1079 1.499 . S
C1082 C1083 1.373 1_655 S
C1082 C1084 1.389 1_655 S
C1083 H1062 0.950 1_455 S
C1083 C1082 1.373 1_455 S
C1083 C1099 1.377 . S
C1084 C1082 1.389 1_455 S
C1084 C1085 1.524 1_455 S
C1084 C1098 1.377 . S
C1085 C1084 1.524 1_655 S
C1085 C1086 1.397 . S
C1085 C1090 1.355 1_655 S
C1086 H1063 0.950 . S
C1086 C1085 1.397 . S
C1086 C1087 1.334 . S
C1087 H1064 0.950 . S
C1087 C1086 1.334 . S
C1087 C1088 1.287 . S
C1088 C1087 1.287 . S
C1088 C1089 1.524 . S
C1088 H1107 0.913 . S
C1089 H1065 0.950 . S
C1089 C1088 1.524 . S
C1089 C1090 1.405 1_655 S
C1090 H1066 0.969 . S
C1090 C1085 1.355 1_455 S
C1090 C1089 1.405 1_455 S
C1091 H1067 0.951 . S
C1091 C1092 1.366 . S
C1091 C1093 1.388 . S
C1092 C1091 1.366 . S
C1092 C1096 1.385 . S
C1093 H1068 0.951 . S
C1093 C1091 1.388 . S
C1093 C1094 1.366 . S
C1094 C1093 1.366 . S
C1094 C1095 1.414 . S
C1094 C1097 1.499 . S
C1095 H1069 0.950 . S
C1095 C1094 1.414 . S
C1095 C1096 1.374 . S
C1096 H1070 0.950 . S
C1096 C1092 1.385 . S
C1096 C1095 1.374 . S
C1097 C1094 1.499 . S
C1097 C1098 1.373 . S
C1097 C1099 1.389 . S
C1098 H1071 0.950 . S
C1098 C1084 1.377 . S
C1098 C1097 1.373 . S
C1099 C1083 1.377 . S
C1099 C1097 1.389 . S
C1099 C1100 1.524 . S
C1100 C1099 1.524 . S
C1100 C1101 1.397 . S
C1100 C1105 1.363 . S
C1101 H1072 0.950 . S
C1101 C1100 1.397 . S
C1101 C1102 1.334 . S
C1102 H1073 0.950 . S
C1102 C1101 1.334 . S
C1102 C1103 1.287 . S
C1103 C1102 1.287 . S
C1103 C1104 1.524 . S
C1103 H1106 0.999 . S
C1104 H1074 0.950 . S
C1104 C1103 1.524 . S
C1104 C1105 1.415 . S
C1105 H1075 0.950 . S
C1105 C1100 1.363 . S
C1105 C1104 1.415 . S
H1106 C1103 0.999 . S
H1107 C1088 0.913 . S
H1108 C1126 0.951 . S
H1109 C1128 0.951 . S
H1110 C1130 0.950 . S
H1111 C1131 0.950 . S
H1112 C1133 0.950 . S
H1113 C1136 0.950 . S
H1114 C1137 0.950 . S
H1115 C1139 0.950 . S
H1116 C1140 0.950 . S
H1117 C1141 0.951 . S
H1118 C1143 0.951 . S
H1119 C1145 0.950 . S
H1120 C1146 0.950 . S
H1121 C1148 0.950 . S
H1122 C1151 0.950 . S
H1123 C1152 0.950 . S
H1124 C1154 0.951 1_554 S
H1125 C1155 0.950 . S
C1126 H1108 0.951 . S
C1126 C1127 1.366 . S
C1126 C1128 1.388 . S
C1127 C1126 1.366 . S
C1127 C1131 1.385 . S
C1128 H1109 0.951 . S
C1128 C1126 1.388 . S
C1128 C1129 1.366 . S
C1129 C1128 1.366 . S
C1129 C1130 1.414 . S
C1129 C1132 1.499 . S
C1130 H1110 0.950 . S
C1130 C1129 1.414 . S
C1130 C1131 1.374 . S
C1131 H1111 0.950 . S
C1131 C1127 1.385 . S
C1131 C1130 1.374 . S
C1132 C1129 1.499 . S
C1132 C1133 1.373 . S
C1132 C1134 1.389 . S
C1133 H1112 0.950 . S
C1133 C1132 1.373 . S
C1133 C1149 1.377 . S
C1134 C1132 1.389 . S
C1134 C1135 1.524 . S
C1134 C1148 1.377 . S
C1135 C1134 1.524 . S
C1135 C1136 1.397 . S
C1135 C1140 1.363 . S
C1136 H1113 0.950 . S
C1136 C1135 1.397 . S
C1136 C1137 1.334 . S
C1137 H1114 0.950 . S
C1137 C1136 1.334 . S
C1137 C1138 1.287 . S
C1138 C1137 1.287 . S
C1138 C1139 1.524 . S
C1138 H1157 0.913 . S
C1139 H1115 0.950 . S
C1139 C1138 1.524 . S
C1139 C1140 1.415 . S
C1140 H1116 0.950 . S
C1140 C1135 1.363 . S
C1140 C1139 1.415 . S
C1141 H1117 0.951 . S
C1141 C1142 1.366 . S
C1141 C1143 1.388 . S
C1142 C1141 1.366 . S
C1142 C1146 1.385 . S
C1143 H1118 0.951 . S
C1143 C1141 1.388 . S
C1143 C1144 1.366 . S
C1144 C1143 1.366 . S
C1144 C1145 1.414 . S
C1144 C1147 1.499 . S
C1145 H1119 0.950 . S
C1145 C1144 1.414 . S
C1145 C1146 1.374 . S
C1146 H1120 0.950 . S
C1146 C1142 1.385 . S
C1146 C1145 1.374 . S
C1147 C1144 1.499 . S
C1147 C1148 1.373 . S
C1147 C1149 1.389 . S
C1148 H1121 0.950 . S
C1148 C1134 1.377 . S
C1148 C1147 1.373 . S
C1149 C1133 1.377 . S
C1149 C1147 1.389 . S
C1149 C1150 1.524 . S
C1150 C1149 1.524 . S
C1150 C1151 1.397 . S
C1150 C1155 1.363 . S
C1151 H1122 0.950 . S
C1151 C1150 1.397 . S
C1151 C1152 1.334 . S
C1152 H1123 0.950 . S
C1152 C1151 1.334 . S
C1152 C1153 1.287 . S
C1153 C1152 1.287 . S
C1153 C1154 1.524 . S
C1153 H1156 0.999 . S
C1154 H1124 0.951 1_556 S
C1154 C1153 1.524 . S
C1154 C1155 1.415 . S
C1155 H1125 0.950 . S
C1155 C1150 1.363 . S
C1155 C1154 1.415 . S
H1156 C1153 0.999 . S
H1157 C1138 0.913 . S
H1158 C1176 0.951 . S
H1159 C1178 0.951 . S
H1160 C1180 0.950 . S
H1161 C1181 0.950 . S
H1162 C1183 0.950 . S
H1163 C1186 0.950 . S
H1164 C1187 0.950 . S
H1165 C1189 0.950 . S
H1166 C1190 0.950 . S
H1167 C1191 0.951 . S
H1168 C1193 0.951 . S
H1169 C1195 0.950 . S
H1170 C1196 0.950 . S
H1171 C1198 0.950 1_655 S
H1172 C1201 0.950 . S
H1173 C1202 0.950 . S
H1174 C1204 0.950 . S
H1175 C1205 0.975 . S
C1176 H1158 0.951 . S
C1176 C1177 1.366 . S
C1176 C1178 1.388 . S
C1177 C1176 1.366 . S
C1177 C1181 1.385 . S
C1178 H1159 0.951 . S
C1178 C1176 1.388 . S
C1178 C1179 1.366 . S
C1179 C1178 1.366 . S
C1179 C1180 1.414 . S
C1179 C1182 1.499 . S
C1180 H1160 0.950 . S
C1180 C1179 1.414 . S
C1180 C1181 1.374 . S
C1181 H1161 0.950 . S
C1181 C1177 1.385 . S
C1181 C1180 1.374 . S
C1182 C1179 1.499 . S
C1182 C1183 1.373 . S
C1182 C1184 1.389 . S
C1183 H1162 0.950 . S
C1183 C1182 1.373 . S
C1183 C1199 1.377 . S
C1184 C1182 1.389 . S
C1184 C1185 1.524 . S
C1184 C1198 1.377 . S
C1185 C1184 1.524 . S
C1185 C1186 1.397 . S
C1185 C1190 1.363 . S
C1186 H1163 0.950 . S
C1186 C1185 1.397 . S
C1186 C1187 1.334 . S
C1187 H1164 0.950 . S
C1187 C1186 1.334 . S
C1187 C1188 1.287 . S
C1188 C1187 1.287 . S
C1188 C1189 1.524 . S
C1188 H1207 0.913 . S
C1189 H1165 0.950 . S
C1189 C1188 1.524 . S
C1189 C1190 1.415 . S
C1190 H1166 0.950 . S
C1190 C1185 1.363 . S
C1190 C1189 1.415 . S
C1191 H1167 0.951 . S
C1191 C1192 1.366 . S
C1191 C1193 1.388 . S
C1192 C1191 1.366 . S
C1192 C1196 1.385 . S
C1193 H1168 0.951 . S
C1193 C1191 1.388 . S
C1193 C1194 1.366 . S
C1194 C1193 1.366 . S
C1194 C1195 1.414 . S
C1194 C1197 1.499 . S
C1195 H1169 0.950 . S
C1195 C1194 1.414 . S
C1195 C1196 1.374 . S
C1196 H1170 0.950 . S
C1196 C1192 1.385 . S
C1196 C1195 1.374 . S
C1197 C1194 1.499 . S
C1197 C1198 1.373 1_655 S
C1197 C1199 1.389 1_655 S
C1198 H1171 0.950 1_455 S
C1198 C1184 1.377 . S
C1198 C1197 1.373 1_455 S
C1199 C1183 1.377 . S
C1199 C1197 1.389 1_455 S
C1199 C1200 1.524 1_455 S
C1200 C1199 1.524 1_655 S
C1200 C1201 1.397 . S
C1200 C1205 1.353 1_655 S
C1201 H1172 0.950 . S
C1201 C1200 1.397 . S
C1201 C1202 1.334 . S
C1202 H1173 0.950 . S
C1202 C1201 1.334 . S
C1202 C1203 1.287 . S
C1203 C1202 1.287 . S
C1203 C1204 1.524 . S
C1203 H1206 0.999 . S
C1204 H1174 0.950 . S
C1204 C1203 1.524 . S
C1204 C1205 1.402 1_655 S
C1205 H1175 0.975 . S
C1205 C1200 1.353 1_455 S
C1205 C1204 1.402 1_455 S
H1206 C1203 0.999 . S
H1207 C1188 0.913 . S
H1208 C1226 0.951 . S
H1209 C1228 0.951 . S
H1210 C1230 0.950 . S
H1211 C1231 0.950 . S
H1212 C1233 0.950 1_455 S
H1213 C1236 0.950 . S
H1214 C1237 0.950 . S
H1215 C1239 0.950 . S
H1216 C1240 0.972 . S
H1217 C1241 0.951 . S
H1218 C1243 0.951 . S
H1219 C1245 0.950 . S
H1220 C1246 0.950 . S
H1221 C1248 0.950 . S
H1222 C1251 0.950 . S
H1223 C1252 0.950 . S
H1224 C1254 0.950 . S
H1225 C1255 0.950 . S
C1226 H1208 0.951 . S
C1226 C1227 1.366 . S
C1226 C1228 1.388 . S
C1227 C1226 1.366 . S
C1227 C1231 1.385 . S
C1228 H1209 0.951 . S
C1228 C1226 1.388 . S
C1228 C1229 1.366 . S
C1229 C1228 1.366 . S
C1229 C1230 1.414 . S
C1229 C1232 1.499 . S
C1230 H1210 0.950 . S
C1230 C1229 1.414 . S
C1230 C1231 1.374 . S
C1231 H1211 0.950 . S
C1231 C1227 1.385 . S
C1231 C1230 1.374 . S
C1232 C1229 1.499 . S
C1232 C1233 1.373 1_455 S
C1232 C1234 1.389 1_455 S
C1233 H1212 0.950 1_655 S
C1233 C1232 1.373 1_655 S
C1233 C1249 1.377 . S
C1234 C1232 1.389 1_655 S
C1234 C1235 1.524 1_655 S
C1234 C1248 1.377 . S
C1235 C1234 1.524 1_455 S
C1235 C1236 1.397 . S
C1235 C1240 1.354 1_455 S
C1236 H1213 0.950 . S
C1236 C1235 1.397 . S
C1236 C1237 1.334 . S
C1237 H1214 0.950 . S
C1237 C1236 1.334 . S
C1237 C1238 1.287 . S
C1238 C1237 1.287 . S
C1238 C1239 1.524 . S
C1238 H1257 0.913 . S
C1239 H1215 0.950 . S
C1239 C1238 1.524 . S
C1239 C1240 1.403 1_455 S
C1240 H1216 0.972 . S
C1240 C1235 1.354 1_655 S
C1240 C1239 1.403 1_655 S
C1241 H1217 0.951 . S
C1241 C1242 1.366 . S
C1241 C1243 1.388 . S
C1242 C1241 1.366 . S
C1242 C1246 1.385 . S
C1243 H1218 0.951 . S
C1243 C1241 1.388 . S
C1243 C1244 1.366 . S
C1244 C1243 1.366 . S
C1244 C1245 1.414 . S
C1244 C1247 1.499 . S
C1245 H1219 0.950 . S
C1245 C1244 1.414 . S
C1245 C1246 1.374 . S
C1246 H1220 0.950 . S
C1246 C1242 1.385 . S
C1246 C1245 1.374 . S
C1247 C1244 1.499 . S
C1247 C1248 1.373 . S
C1247 C1249 1.389 . S
C1248 H1221 0.950 . S
C1248 C1234 1.377 . S
C1248 C1247 1.373 . S
C1249 C1233 1.377 . S
C1249 C1247 1.389 . S
C1249 C1250 1.524 . S
C1250 C1249 1.524 . S
C1250 C1251 1.397 . S
C1250 C1255 1.363 . S
C1251 H1222 0.950 . S
C1251 C1250 1.397 . S
C1251 C1252 1.334 . S
C1252 H1223 0.950 . S
C1252 C1251 1.334 . S
C1252 C1253 1.287 . S
C1253 C1252 1.287 . S
C1253 C1254 1.524 . S
C1253 H1256 0.999 . S
C1254 H1224 0.950 . S
C1254 C1253 1.524 . S
C1254 C1255 1.415 . S
C1255 H1225 0.950 . S
C1255 C1250 1.363 . S
C1255 C1254 1.415 . S
H1256 C1253 0.999 . S
H1257 C1238 0.913 . S
H1258 C1276 0.951 . S
H1259 C1278 0.951 . S
H1260 C1280 0.950 . S
H1261 C1281 0.950 . S
H1262 C1283 0.950 . S
H1263 C1286 0.950 . S
H1264 C1287 0.950 . S
H1265 C1289 0.950 . S
H1266 C1290 0.950 . S
H1267 C1291 0.951 . S
H1268 C1293 0.951 . S
H1269 C1295 0.950 . S
H1270 C1296 0.950 . S
H1271 C1298 0.950 . S
H1272 C1301 0.950 . S
H1273 C1302 0.950 . S
H1274 C1304 0.950 . S
H1275 C1305 0.950 . S
C1276 H1258 0.951 . S
C1276 C1277 1.366 . S
C1276 C1278 1.388 . S
C1277 C1276 1.366 . S
C1277 C1281 1.385 . S
C1278 H1259 0.951 . S
C1278 C1276 1.388 . S
C1278 C1279 1.366 . S
C1279 C1278 1.366 . S
C1279 C1280 1.414 . S
C1279 C1282 1.499 . S
C1280 H1260 0.950 . S
C1280 C1279 1.414 . S
C1280 C1281 1.374 . S
C1281 H1261 0.950 . S
C1281 C1277 1.385 . S
C1281 C1280 1.374 . S
C1282 C1279 1.499 . S
C1282 C1283 1.373 . S
C1282 C1284 1.389 . S
C1283 H1262 0.950 . S
C1283 C1282 1.373 . S
C1283 C1299 1.377 . S
C1284 C1282 1.389 . S
C1284 C1285 1.524 . S
C1284 C1298 1.377 . S
C1285 C1284 1.524 . S
C1285 C1286 1.397 . S
C1285 C1290 1.363 . S
C1286 H1263 0.950 . S
C1286 C1285 1.397 . S
C1286 C1287 1.334 . S
C1287 H1264 0.950 . S
C1287 C1286 1.334 . S
C1287 C1288 1.287 . S
C1288 C1287 1.287 . S
C1288 C1289 1.524 . S
C1288 H1307 0.913 . S
C1289 H1265 0.950 . S
C1289 C1288 1.524 . S
C1289 C1290 1.415 . S
C1290 H1266 0.950 . S
C1290 C1285 1.363 . S
C1290 C1289 1.415 . S
C1291 H1267 0.951 . S
C1291 C1292 1.366 . S
C1291 C1293 1.388 . S
C1292 C1291 1.366 . S
C1292 C1296 1.385 . S
C1293 H1268 0.951 . S
C1293 C1291 1.388 . S
C1293 C1294 1.366 . S
C1294 C1293 1.366 . S
C1294 C1295 1.414 . S
C1294 C1297 1.499 . S
C1295 H1269 0.950 . S
C1295 C1294 1.414 . S
C1295 C1296 1.374 . S
C1296 H1270 0.950 . S
C1296 C1292 1.385 . S
C1296 C1295 1.374 . S
C1297 C1294 1.499 . S
C1297 C1298 1.373 . S
C1297 C1299 1.389 . S
C1298 H1271 0.950 . S
C1298 C1284 1.377 . S
C1298 C1297 1.373 . S
C1299 C1283 1.377 . S
C1299 C1297 1.389 . S
C1299 C1300 1.524 . S
C1300 C1299 1.524 . S
C1300 C1301 1.397 . S
C1300 C1305 1.363 . S
C1301 H1272 0.950 . S
C1301 C1300 1.397 . S
C1301 C1302 1.334 . S
C1302 H1273 0.950 . S
C1302 C1301 1.334 . S
C1302 C1303 1.287 . S
C1303 C1302 1.287 . S
C1303 C1304 1.524 . S
C1303 H1306 0.999 . S
C1304 H1274 0.950 . S
C1304 C1303 1.524 . S
C1304 C1305 1.415 . S
C1305 H1275 0.950 . S
C1305 C1300 1.363 . S
C1305 C1304 1.415 . S
H1306 C1303 0.999 . S
H1307 C1288 0.913 . S
H1308 C1326 0.951 . S
H1309 C1328 0.951 . S
H1310 C1330 0.950 . S
H1311 C1331 0.950 . S
H1312 C1333 0.950 1_455 S
H1313 C1336 0.950 . S
H1314 C1337 0.950 . S
H1315 C1339 0.950 . S
H1316 C1340 0.958 . S
H1317 C1341 0.951 . S
H1318 C1343 0.951 . S
H1319 C1345 0.950 . S
H1320 C1346 0.950 . S
H1321 C1348 0.950 . S
H1322 C1351 0.950 . S
H1323 C1352 0.950 . S
H1324 C1354 0.950 . S
H1325 C1355 0.950 . S
C1326 H1308 0.951 . S
C1326 C1327 1.366 . S
C1326 C1328 1.388 . S
C1327 C1326 1.366 . S
C1327 C1331 1.385 . S
C1328 H1309 0.951 . S
C1328 C1326 1.388 . S
C1328 C1329 1.366 . S
C1329 C1328 1.366 . S
C1329 C1330 1.414 . S
C1329 C1332 1.499 . S
C1330 H1310 0.950 . S
C1330 C1329 1.414 . S
C1330 C1331 1.374 . S
C1331 H1311 0.950 . S
C1331 C1327 1.385 . S
C1331 C1330 1.374 . S
C1332 C1329 1.499 . S
C1332 C1333 1.373 1_455 S
C1332 C1334 1.389 1_455 S
C1333 H1312 0.950 1_655 S
C1333 C1332 1.373 1_655 S
C1333 C1349 1.377 . S
C1334 C1332 1.389 1_655 S
C1334 C1335 1.524 1_655 S
C1334 C1348 1.377 . S
C1335 C1334 1.524 1_455 S
C1335 C1336 1.397 . S
C1335 C1340 1.359 1_455 S
C1336 H1313 0.950 . S
C1336 C1335 1.397 . S
C1336 C1337 1.334 . S
C1337 H1314 0.950 . S
C1337 C1336 1.334 . S
C1337 C1338 1.287 . S
C1338 C1337 1.287 . S
C1338 C1339 1.524 . S
C1338 H1357 0.913 . S
C1339 H1315 0.950 . S
C1339 C1338 1.524 . S
C1339 C1340 1.410 1_455 S
C1340 H1316 0.958 . S
C1340 C1335 1.359 1_655 S
C1340 C1339 1.410 1_655 S
C1341 H1317 0.951 . S
C1341 C1342 1.366 . S
C1341 C1343 1.388 . S
C1342 C1341 1.366 . S
C1342 C1346 1.385 . S
C1343 H1318 0.951 . S
C1343 C1341 1.388 . S
C1343 C1344 1.366 . S
C1344 C1343 1.366 . S
C1344 C1345 1.414 . S
C1344 C1347 1.499 . S
C1345 H1319 0.950 . S
C1345 C1344 1.414 . S
C1345 C1346 1.374 . S
C1346 H1320 0.950 . S
C1346 C1342 1.385 . S
C1346 C1345 1.374 . S
C1347 C1344 1.499 . S
C1347 C1348 1.373 . S
C1347 C1349 1.389 . S
C1348 H1321 0.950 . S
C1348 C1334 1.377 . S
C1348 C1347 1.373 . S
C1349 C1333 1.377 . S
C1349 C1347 1.389 . S
C1349 C1350 1.524 . S
C1350 C1349 1.524 . S
C1350 C1351 1.397 . S
C1350 C1355 1.363 . S
C1351 H1322 0.950 . S
C1351 C1350 1.397 . S
C1351 C1352 1.334 . S
C1352 H1323 0.950 . S
C1352 C1351 1.334 . S
C1352 C1353 1.287 . S
C1353 C1352 1.287 . S
C1353 C1354 1.524 . S
C1353 H1356 0.999 . S
C1354 H1324 0.950 . S
C1354 C1353 1.524 . S
C1354 C1355 1.415 . S
C1355 H1325 0.950 . S
C1355 C1350 1.363 . S
C1355 C1354 1.415 . S
H1356 C1353 0.999 . S
H1357 C1338 0.913 . S
H1358 C1376 0.951 . S
H1359 C1378 0.951 . S
H1360 C1380 0.950 . S
H1361 C1381 0.950 . S
H1362 C1383 0.950 . S
H1363 C1386 0.950 . S
H1364 C1387 0.950 . S
H1365 C1389 0.950 . S
H1366 C1390 0.950 . S
H1367 C1391 0.951 . S
H1368 C1393 0.951 . S
H1369 C1395 0.950 . S
H1370 C1396 0.950 . S
H1371 C1398 0.950 . S
H1372 C1401 0.950 . S
H1373 C1402 0.950 . S
H1374 C1404 0.950 . S
H1375 C1405 0.950 . S
C1376 H1358 0.951 . S
C1376 C1377 1.366 . S
C1376 C1378 1.388 . S
C1377 C1376 1.366 . S
C1377 C1381 1.385 . S
C1378 H1359 0.951 . S
C1378 C1376 1.388 . S
C1378 C1379 1.366 . S
C1379 C1378 1.366 . S
C1379 C1380 1.414 . S
C1379 C1382 1.499 . S
C1380 H1360 0.950 . S
C1380 C1379 1.414 . S
C1380 C1381 1.374 . S
C1381 H1361 0.950 . S
C1381 C1377 1.385 . S
C1381 C1380 1.374 . S
C1382 C1379 1.499 . S
C1382 C1383 1.373 . S
C1382 C1384 1.389 . S
C1383 H1362 0.950 . S
C1383 C1382 1.373 . S
C1383 C1399 1.377 . S
C1384 C1382 1.389 . S
C1384 C1385 1.524 . S
C1384 C1398 1.377 . S
C1385 C1384 1.524 . S
C1385 C1386 1.397 . S
C1385 C1390 1.363 . S
C1386 H1363 0.950 . S
C1386 C1385 1.397 . S
C1386 C1387 1.334 . S
C1387 H1364 0.950 . S
C1387 C1386 1.334 . S
C1387 C1388 1.287 . S
C1388 C1387 1.287 . S
C1388 C1389 1.524 . S
C1388 H1407 0.913 . S
C1389 H1365 0.950 . S
C1389 C1388 1.524 . S
C1389 C1390 1.415 . S
C1390 H1366 0.950 . S
C1390 C1385 1.363 . S
C1390 C1389 1.415 . S
C1391 H1367 0.951 . S
C1391 C1392 1.366 . S
C1391 C1393 1.388 . S
C1392 C1391 1.366 . S
C1392 C1396 1.385 . S
C1393 H1368 0.951 . S
C1393 C1391 1.388 . S
C1393 C1394 1.366 . S
C1394 C1393 1.366 . S
C1394 C1395 1.414 . S
C1394 C1397 1.499 . S
C1395 H1369 0.950 . S
C1395 C1394 1.414 . S
C1395 C1396 1.374 . S
C1396 H1370 0.950 . S
C1396 C1392 1.385 . S
C1396 C1395 1.374 . S
C1397 C1394 1.499 . S
C1397 C1398 1.373 . S
C1397 C1399 1.389 . S
C1398 H1371 0.950 . S
C1398 C1384 1.377 . S
C1398 C1397 1.373 . S
C1399 C1383 1.377 . S
C1399 C1397 1.389 . S
C1399 C1400 1.524 . S
C1400 C1399 1.524 . S
C1400 C1401 1.397 . S
C1400 C1405 1.363 . S
C1401 H1372 0.950 . S
C1401 C1400 1.397 . S
C1401 C1402 1.334 . S
C1402 H1373 0.950 . S
C1402 C1401 1.334 . S
C1402 C1403 1.287 . S
C1403 C1402 1.287 . S
C1403 C1404 1.524 . S
C1403 H1406 0.999 . S
C1404 H1374 0.950 . S
C1404 C1403 1.524 . S
C1404 C1405 1.415 . S
C1405 H1375 0.950 . S
C1405 C1400 1.363 . S
C1405 C1404 1.415 . S
H1406 C1403 0.999 . S
H1407 C1388 0.913 . S
H1408 C1426 0.951 . S
H1409 C1428 0.951 . S
H1410 C1430 0.950 . S
H1411 C1431 0.950 . S
H1412 C1433 0.950 . S
H1413 C1436 0.950 . S
H1414 C1437 0.950 . S
H1415 C1439 0.950 . S
H1416 C1440 0.950 . S
H1417 C1441 0.951 . S
H1418 C1443 0.951 . S
H1419 C1445 0.950 . S
H1420 C1446 0.950 . S
H1421 C1448 0.950 . S
H1422 C1451 0.950 . S
H1423 C1452 0.950 . S
H1424 C1454 0.950 . S
H1425 C1455 0.950 . S
C1426 H1408 0.951 . S
C1426 C1427 1.366 . S
C1426 C1428 1.388 . S
C1427 C1426 1.366 . S
C1427 C1431 1.385 . S
C1428 H1409 0.951 . S
C1428 C1426 1.388 . S
C1428 C1429 1.366 . S
C1429 C1428 1.366 . S
C1429 C1430 1.414 . S
C1429 C1432 1.499 . S
C1430 H1410 0.950 . S
C1430 C1429 1.414 . S
C1430 C1431 1.374 . S
C1431 H1411 0.950 . S
C1431 C1427 1.385 . S
C1431 C1430 1.374 . S
C1432 C1429 1.499 . S
C1432 C1433 1.373 . S
C1432 C1434 1.389 . S
C1433 H1412 0.950 . S
C1433 C1432 1.373 . S
C1433 C1449 1.377 . S
C1434 C1432 1.389 . S
C1434 C1435 1.524 . S
C1434 C1448 1.377 . S
C1435 C1434 1.524 . S
C1435 C1436 1.397 . S
C1435 C1440 1.363 . S
C1436 H1413 0.950 . S
C1436 C1435 1.397 . S
C1436 C1437 1.334 . S
C1437 H1414 0.950 . S
C1437 C1436 1.334 . S
C1437 C1438 1.287 . S
C1438 C1437 1.287 . S
C1438 C1439 1.524 . S
C1438 H1457 0.913 . S
C1439 H1415 0.950 . S
C1439 C1438 1.524 . S
C1439 C1440 1.415 . S
C1440 H1416 0.950 . S
C1440 C1435 1.363 . S
C1440 C1439 1.415 . S
C1441 H1417 0.951 . S
C1441 C1442 1.366 . S
C1441 C1443 1.388 . S
C1442 C1441 1.366 . S
C1442 C1446 1.385 . S
C1443 H1418 0.951 . S
C1443 C1441 1.388 . S
C1443 C1444 1.366 . S
C1444 C1443 1.366 . S
C1444 C1445 1.414 . S
C1444 C1447 1.499 . S
C1445 H1419 0.950 . S
C1445 C1444 1.414 . S
C1445 C1446 1.374 . S
C1446 H1420 0.950 . S
C1446 C1442 1.385 . S
C1446 C1445 1.374 . S
C1447 C1444 1.499 . S
C1447 C1448 1.373 . S
C1447 C1449 1.389 . S
C1448 H1421 0.950 . S
C1448 C1434 1.377 . S
C1448 C1447 1.373 . S
C1449 C1433 1.377 . S
C1449 C1447 1.389 . S
C1449 C1450 1.524 . S
C1450 C1449 1.524 . S
C1450 C1451 1.397 . S
C1450 C1455 1.363 . S
C1451 H1422 0.950 . S
C1451 C1450 1.397 . S
C1451 C1452 1.334 . S
C1452 H1423 0.950 . S
C1452 C1451 1.334 . S
C1452 C1453 1.287 . S
C1453 C1452 1.287 . S
C1453 C1454 1.524 . S
C1453 H1456 0.999 . S
C1454 H1424 0.950 . S
C1454 C1453 1.524 . S
C1454 C1455 1.415 . S
C1455 H1425 0.950 . S
C1455 C1450 1.363 . S
C1455 C1454 1.415 . S
H1456 C1453 0.999 . S
H1457 C1438 0.913 . S
H1458 C1476 0.951 . S
H1459 C1478 0.951 . S
H1460 C1480 0.950 . S
H1461 C1481 0.950 . S
H1462 C1483 0.950 . S
H1463 C1486 0.950 . S
H1464 C1487 0.950 . S
H1465 C1489 0.950 . S
H1466 C1490 0.950 . S
H1467 C1491 0.951 . S
H1468 C1493 0.951 . S
H1469 C1495 0.950 . S
H1470 C1496 0.950 . S
H1471 C1498 0.950 . S
H1472 C1501 0.950 . S
H1473 C1502 0.950 . S
H1474 C1504 0.950 . S
H1475 C1505 0.950 . S
C1476 H1458 0.951 . S
C1476 C1477 1.366 . S
C1476 C1478 1.388 . S
C1477 C1476 1.366 . S
C1477 C1481 1.385 . S
C1478 H1459 0.951 . S
C1478 C1476 1.388 . S
C1478 C1479 1.366 . S
C1479 C1478 1.366 . S
C1479 C1480 1.414 . S
C1479 C1482 1.499 . S
C1480 H1460 0.950 . S
C1480 C1479 1.414 . S
C1480 C1481 1.374 . S
C1481 H1461 0.950 . S
C1481 C1477 1.385 . S
C1481 C1480 1.374 . S
C1482 C1479 1.499 . S
C1482 C1483 1.373 . S
C1482 C1484 1.389 . S
C1483 H1462 0.950 . S
C1483 C1482 1.373 . S
C1483 C1499 1.377 . S
C1484 C1482 1.389 . S
C1484 C1485 1.524 . S
C1484 C1498 1.377 . S
C1485 C1484 1.524 . S
C1485 C1486 1.397 . S
C1485 C1490 1.363 . S
C1486 H1463 0.950 . S
C1486 C1485 1.397 . S
C1486 C1487 1.334 . S
C1487 H1464 0.950 . S
C1487 C1486 1.334 . S
C1487 C1488 1.287 . S
C1488 C1487 1.287 . S
C1488 C1489 1.524 . S
C1488 H1507 0.913 . S
C1489 H1465 0.950 . S
C1489 C1488 1.524 . S
C1489 C1490 1.415 . S
C1490 H1466 0.950 . S
C1490 C1485 1.363 . S
C1490 C1489 1.415 . S
C1491 H1467 0.951 . S
C1491 C1492 1.366 . S
C1491 C1493 1.388 . S
C1492 C1491 1.366 . S
C1492 C1496 1.385 . S
C1493 H1468 0.951 . S
C1493 C1491 1.388 . S
C1493 C1494 1.366 . S
C1494 C1493 1.366 . S
C1494 C1495 1.414 . S
C1494 C1497 1.499 . S
C1495 H1469 0.950 . S
C1495 C1494 1.414 . S
C1495 C1496 1.374 . S
C1496 H1470 0.950 . S
C1496 C1492 1.385 . S
C1496 C1495 1.374 . S
C1497 C1494 1.499 . S
C1497 C1498 1.373 . S
C1497 C1499 1.389 . S
C1498 H1471 0.950 . S
C1498 C1484 1.377 . S
C1498 C1497 1.373 . S
C1499 C1483 1.377 . S
C1499 C1497 1.389 . S
C1499 C1500 1.524 . S
C1500 C1499 1.524 . S
C1500 C1501 1.397 . S
C1500 C1505 1.363 . S
C1501 H1472 0.950 . S
C1501 C1500 1.397 . S
C1501 C1502 1.334 . S
C1502 H1473 0.950 . S
C1502 C1501 1.334 . S
C1502 C1503 1.287 . S
C1503 C1502 1.287 . S
C1503 C1504 1.524 . S
C1503 H1506 0.999 . S
C1504 H1474 0.950 . S
C1504 C1503 1.524 . S
C1504 C1505 1.415 . S
C1505 H1475 0.950 . S
C1505 C1500 1.363 . S
C1505 C1504 1.415 . S
H1506 C1503 0.999 . S
H1507 C1488 0.913 . S
H1508 C1526 0.951 . S
H1509 C1528 0.951 . S
H1510 C1530 0.950 . S
H1511 C1531 0.950 . S
H1512 C1533 0.950 . S
H1513 C1536 0.950 . S
H1514 C1537 0.950 . S
H1515 C1539 0.950 . S
H1516 C1540 0.950 . S
H1517 C1541 0.951 . S
H1518 C1543 0.951 . S
H1519 C1545 0.950 . S
H1520 C1546 0.950 . S
H1521 C1548 0.950 . S
H1522 C1551 0.950 . S
H1523 C1552 0.950 . S
H1524 C1554 0.950 . S
H1525 C1555 0.950 . S
C1526 H1508 0.951 . S
C1526 C1527 1.366 . S
C1526 C1528 1.388 . S
C1527 C1526 1.366 . S
C1527 C1531 1.385 . S
C1528 H1509 0.951 . S
C1528 C1526 1.388 . S
C1528 C1529 1.366 . S
C1529 C1528 1.366 . S
C1529 C1530 1.414 . S
C1529 C1532 1.499 . S
C1530 H1510 0.950 . S
C1530 C1529 1.414 . S
C1530 C1531 1.374 . S
C1531 H1511 0.950 . S
C1531 C1527 1.385 . S
C1531 C1530 1.374 . S
C1532 C1529 1.499 . S
C1532 C1533 1.373 . S
C1532 C1534 1.389 . S
C1533 H1512 0.950 . S
C1533 C1532 1.373 . S
C1533 C1549 1.377 . S
C1534 C1532 1.389 . S
C1534 C1535 1.524 . S
C1534 C1548 1.377 . S
C1535 C1534 1.524 . S
C1535 C1536 1.397 . S
C1535 C1540 1.363 . S
C1536 H1513 0.950 . S
C1536 C1535 1.397 . S
C1536 C1537 1.334 . S
C1537 H1514 0.950 . S
C1537 C1536 1.334 . S
C1537 C1538 1.287 . S
C1538 C1537 1.287 . S
C1538 C1539 1.524 . S
C1538 H1557 0.913 . S
C1539 H1515 0.950 . S
C1539 C1538 1.524 . S
C1539 C1540 1.415 . S
C1540 H1516 0.950 . S
C1540 C1535 1.363 . S
C1540 C1539 1.415 . S
C1541 H1517 0.951 . S
C1541 C1542 1.366 . S
C1541 C1543 1.388 . S
C1542 C1541 1.366 . S
C1542 C1546 1.385 . S
C1543 H1518 0.951 . S
C1543 C1541 1.388 . S
C1543 C1544 1.366 . S
C1544 C1543 1.366 . S
C1544 C1545 1.414 . S
C1544 C1547 1.499 . S
C1545 H1519 0.950 . S
C1545 C1544 1.414 . S
C1545 C1546 1.374 . S
C1546 H1520 0.950 . S
C1546 C1542 1.385 . S
C1546 C1545 1.374 . S
C1547 C1544 1.499 . S
C1547 C1548 1.373 . S
C1547 C1549 1.389 . S
C1548 H1521 0.950 . S
C1548 C1534 1.377 . S
C1548 C1547 1.373 . S
C1549 C1533 1.377 . S
C1549 C1547 1.389 . S
C1549 C1550 1.524 . S
C1550 C1549 1.524 . S
C1550 C1551 1.397 . S
C1550 C1555 1.363 . S
C1551 H1522 0.950 . S
C1551 C1550 1.397 . S
C1551 C1552 1.334 . S
C1552 H1523 0.950 . S
C1552 C1551 1.334 . S
C1552 C1553 1.287 . S
C1553 C1552 1.287 . S
C1553 C1554 1.524 . S
C1553 H1556 0.999 . S
C1554 H1524 0.950 . S
C1554 C1553 1.524 . S
C1554 C1555 1.415 . S
C1555 H1525 0.950 . S
C1555 C1550 1.363 . S
C1555 C1554 1.415 . S
H1556 C1553 0.999 . S
H1557 C1538 0.913 . S
H1558 C1576 0.951 . S
H1559 C1578 0.951 . S
H1560 C1580 0.950 . S
H1561 C1581 0.950 . S
H1562 C1583 0.950 . S
H1563 C1586 0.950 . S
H1564 C1587 0.950 . S
H1565 C1589 0.950 . S
H1566 C1590 0.950 . S
H1567 C1591 0.951 . S
H1568 C1593 0.951 . S
H1569 C1595 0.950 . S
H1570 C1596 0.950 . S
H1571 C1598 0.950 . S
H1572 C1601 0.950 . S
H1573 C1602 0.950 . S
H1574 C1604 0.950 . S
H1575 C1605 0.950 . S
C1576 H1558 0.951 . S
C1576 C1577 1.366 . S
C1576 C1578 1.388 . S
C1577 C1576 1.366 . S
C1577 C1581 1.385 . S
C1578 H1559 0.951 . S
C1578 C1576 1.388 . S
C1578 C1579 1.366 . S
C1579 C1578 1.366 . S
C1579 C1580 1.414 . S
C1579 C1582 1.499 . S
C1580 H1560 0.950 . S
C1580 C1579 1.414 . S
C1580 C1581 1.374 . S
C1581 H1561 0.950 . S
C1581 C1577 1.385 . S
C1581 C1580 1.374 . S
C1582 C1579 1.499 . S
C1582 C1583 1.373 . S
C1582 C1584 1.389 . S
C1583 H1562 0.950 . S
C1583 C1582 1.373 . S
C1583 C1599 1.377 . S
C1584 C1582 1.389 . S
C1584 C1585 1.524 . S
C1584 C1598 1.377 . S
C1585 C1584 1.524 . S
C1585 C1586 1.397 . S
C1585 C1590 1.363 . S
C1586 H1563 0.950 . S
C1586 C1585 1.397 . S
C1586 C1587 1.334 . S
C1587 H1564 0.950 . S
C1587 C1586 1.334 . S
C1587 C1588 1.287 . S
C1588 C1587 1.287 . S
C1588 C1589 1.524 . S
C1588 H1607 0.913 . S
C1589 H1565 0.950 . S
C1589 C1588 1.524 . S
C1589 C1590 1.415 . S
C1590 H1566 0.950 . S
C1590 C1585 1.363 . S
C1590 C1589 1.415 . S
C1591 H1567 0.951 . S
C1591 C1592 1.366 . S
C1591 C1593 1.388 . S
C1592 C1591 1.366 . S
C1592 C1596 1.385 . S
C1593 H1568 0.951 . S
C1593 C1591 1.388 . S
C1593 C1594 1.366 . S
C1594 C1593 1.366 . S
C1594 C1595 1.414 . S
C1594 C1597 1.499 . S
C1595 H1569 0.950 . S
C1595 C1594 1.414 . S
C1595 C1596 1.374 . S
C1596 H1570 0.950 . S
C1596 C1592 1.385 . S
C1596 C1595 1.374 . S
C1597 C1594 1.499 . S
C1597 C1598 1.373 . S
C1597 C1599 1.389 . S
C1598 H1571 0.950 . S
C1598 C1584 1.377 . S
C1598 C1597 1.373 . S
C1599 C1583 1.377 . S
C1599 C1597 1.389 . S
C1599 C1600 1.524 . S
C1600 C1599 1.524 . S
C1600 C1601 1.397 . S
C1600 C1605 1.363 . S
C1601 H1572 0.950 . S
C1601 C1600 1.397 . S
C1601 C1602 1.334 . S
C1602 H1573 0.950 . S
C1602 C1601 1.334 . S
C1602 C1603 1.287 . S
C1603 C1602 1.287 . S
C1603 C1604 1.524 . S
C1603 H1606 0.999 . S
C1604 H1574 0.950 . S
C1604 C1603 1.524 . S
C1604 C1605 1.415 . S
C1605 H1575 0.950 . S
C1605 C1600 1.363 . S
C1605 C1604 1.415 . S
H1606 C1603 0.999 . S
H1607 C1588 0.913 . S
H1608 C1626 0.951 . S
H1609 C1628 0.951 . S
H1610 C1630 0.950 . S
H1611 C1631 0.950 . S
H1612 C1633 0.950 . S
H1613 C1636 0.950 . S
H1614 C1637 0.950 . S
H1615 C1639 0.950 . S
H1616 C1640 0.950 . S
H1617 C1641 0.951 . S
H1618 C1643 0.951 . S
H1619 C1645 0.950 . S
H1620 C1646 0.950 . S
H1621 C1648 0.950 . S
H1622 C1651 0.950 . S
H1623 C1652 0.950 . S
H1624 C1654 0.950 . S
H1625 C1655 0.950 . S
C1626 H1608 0.951 . S
C1626 C1627 1.366 . S
C1626 C1628 1.388 . S
C1627 C1626 1.366 . S
C1627 C1631 1.385 . S
C1628 H1609 0.951 . S
C1628 C1626 1.388 . S
C1628 C1629 1.366 . S
C1629 C1628 1.366 . S
C1629 C1630 1.414 . S
C1629 C1632 1.499 . S
C1630 H1610 0.950 . S
C1630 C1629 1.414 . S
C1630 C1631 1.374 . S
C1631 H1611 0.950 . S
C1631 C1627 1.385 . S
C1631 C1630 1.374 . S
C1632 C1629 1.499 . S
C1632 C1633 1.373 . S
C1632 C1634 1.389 . S
C1633 H1612 0.950 . S
C1633 C1632 1.373 . S
C1633 C1649 1.377 . S
C1634 C1632 1.389 . S
C1634 C1635 1.524 . S
C1634 C1648 1.377 . S
C1635 C1634 1.524 . S
C1635 C1636 1.397 . S
C1635 C1640 1.363 . S
C1636 H1613 0.950 . S
C1636 C1635 1.397 . S
C1636 C1637 1.334 . S
C1637 H1614 0.950 . S
C1637 C1636 1.334 . S
C1637 C1638 1.287 . S
C1638 C1637 1.287 . S
C1638 C1639 1.524 . S
C1638 H1657 0.913 . S
C1639 H1615 0.950 . S
C1639 C1638 1.524 . S
C1639 C1640 1.415 . S
C1640 H1616 0.950 . S
C1640 C1635 1.363 . S
C1640 C1639 1.415 . S
C1641 H1617 0.951 . S
C1641 C1642 1.366 . S
C1641 C1643 1.388 . S
C1642 C1641 1.366 . S
C1642 C1646 1.385 . S
C1643 H1618 0.951 . S
C1643 C1641 1.388 . S
C1643 C1644 1.366 . S
C1644 C1643 1.366 . S
C1644 C1645 1.414 . S
C1644 C1647 1.499 . S
C1645 H1619 0.950 . S
C1645 C1644 1.414 . S
C1645 C1646 1.374 . S
C1646 H1620 0.950 . S
C1646 C1642 1.385 . S
C1646 C1645 1.374 . S
C1647 C1644 1.499 . S
C1647 C1648 1.373 . S
C1647 C1649 1.389 . S
C1648 H1621 0.950 . S
C1648 C1634 1.377 . S
C1648 C1647 1.373 . S
C1649 C1633 1.377 . S
C1649 C1647 1.389 . S
C1649 C1650 1.524 . S
C1650 C1649 1.524 . S
C1650 C1651 1.397 . S
C1650 C1655 1.363 . S
C1651 H1622 0.950 . S
C1651 C1650 1.397 . S
C1651 C1652 1.334 . S
C1652 H1623 0.950 . S
C1652 C1651 1.334 . S
C1652 C1653 1.287 . S
C1653 C1652 1.287 . S
C1653 C1654 1.524 . S
C1653 H1656 0.999 . S
C1654 H1624 0.950 . S
C1654 C1653 1.524 . S
C1654 C1655 1.415 . S
C1655 H1625 0.950 . S
C1655 C1650 1.363 . S
C1655 C1654 1.415 . S
H1656 C1653 0.999 . S
H1657 C1638 0.913 . S
H1658 C1676 0.951 . S
H1659 C1678 0.951 . S
H1660 C1680 0.950 . S
H1661 C1681 0.950 . S
H1662 C1683 0.950 . S
H1663 C1686 0.950 . S
H1664 C1687 0.950 . S
H1665 C1689 0.950 . S
H1666 C1690 0.950 . S
H1667 C1691 0.951 . S
H1668 C1693 0.951 . S
H1669 C1695 0.950 . S
H1670 C1696 0.950 . S
H1671 C1698 0.950 . S
H1672 C1701 0.950 . S
H1673 C1702 0.950 . S
H1674 C1704 0.950 . S
H1675 C1705 0.950 . S
C1676 H1658 0.951 . S
C1676 C1677 1.366 . S
C1676 C1678 1.388 . S
C1677 C1676 1.366 . S
C1677 C1681 1.385 . S
C1678 H1659 0.951 . S
C1678 C1676 1.388 . S
C1678 C1679 1.366 . S
C1679 C1678 1.366 . S
C1679 C1680 1.414 . S
C1679 C1682 1.499 . S
C1680 H1660 0.950 . S
C1680 C1679 1.414 . S
C1680 C1681 1.374 . S
C1681 H1661 0.950 . S
C1681 C1677 1.385 . S
C1681 C1680 1.374 . S
C1682 C1679 1.499 . S
C1682 C1683 1.373 . S
C1682 C1684 1.389 . S
C1683 H1662 0.950 . S
C1683 C1682 1.373 . S
C1683 C1699 1.377 . S
C1684 C1682 1.389 . S
C1684 C1685 1.524 . S
C1684 C1698 1.377 . S
C1685 C1684 1.524 . S
C1685 C1686 1.397 . S
C1685 C1690 1.363 . S
C1686 H1663 0.950 . S
C1686 C1685 1.397 . S
C1686 C1687 1.334 . S
C1687 H1664 0.950 . S
C1687 C1686 1.334 . S
C1687 C1688 1.287 . S
C1688 C1687 1.287 . S
C1688 C1689 1.524 . S
C1688 H1707 0.913 . S
C1689 H1665 0.950 . S
C1689 C1688 1.524 . S
C1689 C1690 1.415 . S
C1690 H1666 0.950 . S
C1690 C1685 1.363 . S
C1690 C1689 1.415 . S
C1691 H1667 0.951 . S
C1691 C1692 1.366 . S
C1691 C1693 1.388 . S
C1692 C1691 1.366 . S
C1692 C1696 1.385 . S
C1693 H1668 0.951 . S
C1693 C1691 1.388 . S
C1693 C1694 1.366 . S
C1694 C1693 1.366 . S
C1694 C1695 1.414 . S
C1694 C1697 1.499 . S
C1695 H1669 0.950 . S
C1695 C1694 1.414 . S
C1695 C1696 1.374 . S
C1696 H1670 0.950 . S
C1696 C1692 1.385 . S
C1696 C1695 1.374 . S
C1697 C1694 1.499 . S
C1697 C1698 1.373 . S
C1697 C1699 1.389 . S
C1698 H1671 0.950 . S
C1698 C1684 1.377 . S
C1698 C1697 1.373 . S
C1699 C1683 1.377 . S
C1699 C1697 1.389 . S
C1699 C1700 1.524 . S
C1700 C1699 1.524 . S
C1700 C1701 1.397 . S
C1700 C1705 1.363 . S
C1701 H1672 0.950 . S
C1701 C1700 1.397 . S
C1701 C1702 1.334 . S
C1702 H1673 0.950 . S
C1702 C1701 1.334 . S
C1702 C1703 1.287 . S
C1703 C1702 1.287 . S
C1703 C1704 1.524 . S
C1703 H1706 0.999 . S
C1704 H1674 0.950 . S
C1704 C1703 1.524 . S
C1704 C1705 1.415 . S
C1705 H1675 0.950 . S
C1705 C1700 1.363 . S
C1705 C1704 1.415 . S
H1706 C1703 0.999 . S
H1707 C1688 0.913 . S
H1708 C1726 0.951 . S
H1709 C1728 0.951 . S
H1710 C1730 0.950 . S
H1711 C1731 0.950 . S
H1712 C1733 0.950 . S
H1713 C1736 0.950 . S
H1714 C1737 0.950 . S
H1715 C1739 0.950 . S
H1716 C1740 0.950 . S
H1717 C1741 0.951 . S
H1718 C1743 0.951 . S
H1719 C1745 0.950 . S
H1720 C1746 0.950 . S
H1721 C1748 0.950 . S
H1722 C1751 0.950 . S
H1723 C1752 0.950 . S
H1724 C1754 0.950 . S
H1725 C1755 0.950 . S
C1726 H1708 0.951 . S
C1726 C1727 1.366 . S
C1726 C1728 1.388 . S
C1727 C1726 1.366 . S
C1727 C1731 1.385 . S
C1728 H1709 0.951 . S
C1728 C1726 1.388 . S
C1728 C1729 1.366 . S
C1729 C1728 1.366 . S
C1729 C1730 1.414 . S
C1729 C1732 1.499 . S
C1730 H1710 0.950 . S
C1730 C1729 1.414 . S
C1730 C1731 1.374 . S
C1731 H1711 0.950 . S
C1731 C1727 1.385 . S
C1731 C1730 1.374 . S
C1732 C1729 1.499 . S
C1732 C1733 1.373 . S
C1732 C1734 1.389 . S
C1733 H1712 0.950 . S
C1733 C1732 1.373 . S
C1733 C1749 1.377 . S
C1734 C1732 1.389 . S
C1734 C1735 1.524 . S
C1734 C1748 1.377 . S
C1735 C1734 1.524 . S
C1735 C1736 1.397 . S
C1735 C1740 1.363 . S
C1736 H1713 0.950 . S
C1736 C1735 1.397 . S
C1736 C1737 1.334 . S
C1737 H1714 0.950 . S
C1737 C1736 1.334 . S
C1737 C1738 1.287 . S
C1738 C1737 1.287 . S
C1738 C1739 1.524 . S
C1738 H1757 0.913 . S
C1739 H1715 0.950 . S
C1739 C1738 1.524 . S
C1739 C1740 1.415 . S
C1740 H1716 0.950 . S
C1740 C1735 1.363 . S
C1740 C1739 1.415 . S
C1741 H1717 0.951 . S
C1741 C1742 1.366 . S
C1741 C1743 1.388 . S
C1742 C1741 1.366 . S
C1742 C1746 1.385 . S
C1743 H1718 0.951 . S
C1743 C1741 1.388 . S
C1743 C1744 1.366 . S
C1744 C1743 1.366 . S
C1744 C1745 1.414 . S
C1744 C1747 1.499 . S
C1745 H1719 0.950 . S
C1745 C1744 1.414 . S
C1745 C1746 1.374 . S
C1746 H1720 0.950 . S
C1746 C1742 1.385 . S
C1746 C1745 1.374 . S
C1747 C1744 1.499 . S
C1747 C1748 1.373 . S
C1747 C1749 1.389 . S
C1748 H1721 0.950 . S
C1748 C1734 1.377 . S
C1748 C1747 1.373 . S
C1749 C1733 1.377 . S
C1749 C1747 1.389 . S
C1749 C1750 1.524 . S
C1750 C1749 1.524 . S
C1750 C1751 1.397 . S
C1750 C1755 1.363 . S
C1751 H1722 0.950 . S
C1751 C1750 1.397 . S
C1751 C1752 1.334 . S
C1752 H1723 0.950 . S
C1752 C1751 1.334 . S
C1752 C1753 1.287 . S
C1753 C1752 1.287 . S
C1753 C1754 1.524 . S
C1753 H1756 0.999 . S
C1754 H1724 0.950 . S
C1754 C1753 1.524 . S
C1754 C1755 1.415 . S
C1755 H1725 0.950 . S
C1755 C1750 1.363 . S
C1755 C1754 1.415 . S
H1756 C1753 0.999 . S
H1757 C1738 0.913 . S
H1758 C1776 0.951 . S
H1759 C1778 0.951 . S
H1760 C1780 0.950 . S
H1761 C1781 0.950 . S
H1762 C1783 0.950 . S
H1763 C1786 0.950 . S
H1764 C1787 0.950 . S
H1765 C1789 0.950 . S
H1766 C1790 0.950 . S
H1767 C1791 0.951 . S
H1768 C1793 0.951 . S
H1769 C1795 0.950 . S
H1770 C1796 0.950 . S
H1771 C1798 0.950 . S
H1772 C1801 0.950 . S
H1773 C1802 0.950 . S
H1774 C1804 0.950 . S
H1775 C1805 0.950 . S
C1776 H1758 0.951 . S
C1776 C1777 1.366 . S
C1776 C1778 1.388 . S
C1777 C1776 1.366 . S
C1777 C1781 1.385 . S
C1778 H1759 0.951 . S
C1778 C1776 1.388 . S
C1778 C1779 1.366 . S
C1779 C1778 1.366 . S
C1779 C1780 1.414 . S
C1779 C1782 1.499 . S
C1780 H1760 0.950 . S
C1780 C1779 1.414 . S
C1780 C1781 1.374 . S
C1781 H1761 0.950 . S
C1781 C1777 1.385 . S
C1781 C1780 1.374 . S
C1782 C1779 1.499 . S
C1782 C1783 1.373 . S
C1782 C1784 1.389 . S
C1783 H1762 0.950 . S
C1783 C1782 1.373 . S
C1783 C1799 1.377 . S
C1784 C1782 1.389 . S
C1784 C1785 1.524 . S
C1784 C1798 1.377 . S
C1785 C1784 1.524 . S
C1785 C1786 1.397 . S
C1785 C1790 1.363 . S
C1786 H1763 0.950 . S
C1786 C1785 1.397 . S
C1786 C1787 1.334 . S
C1787 H1764 0.950 . S
C1787 C1786 1.334 . S
C1787 C1788 1.287 . S
C1788 C1787 1.287 . S
C1788 C1789 1.524 . S
C1788 H1807 0.913 . S
C1789 H1765 0.950 . S
C1789 C1788 1.524 . S
C1789 C1790 1.415 . S
C1790 H1766 0.950 . S
C1790 C1785 1.363 . S
C1790 C1789 1.415 . S
C1791 H1767 0.951 . S
C1791 C1792 1.366 . S
C1791 C1793 1.388 . S
C1792 C1791 1.366 . S
C1792 C1796 1.385 . S
C1793 H1768 0.951 . S
C1793 C1791 1.388 . S
C1793 C1794 1.366 . S
C1794 C1793 1.366 . S
C1794 C1795 1.414 . S
C1794 C1797 1.499 . S
C1795 H1769 0.950 . S
C1795 C1794 1.414 . S
C1795 C1796 1.374 . S
C1796 H1770 0.950 . S
C1796 C1792 1.385 . S
C1796 C1795 1.374 . S
C1797 C1794 1.499 . S
C1797 C1798 1.373 . S
C1797 C1799 1.389 . S
C1798 H1771 0.950 . S
C1798 C1784 1.377 . S
C1798 C1797 1.373 . S
C1799 C1783 1.377 . S
C1799 C1797 1.389 . S
C1799 C1800 1.524 . S
C1800 C1799 1.524 . S
C1800 C1801 1.397 . S
C1800 C1805 1.363 . S
C1801 H1772 0.950 . S
C1801 C1800 1.397 . S
C1801 C1802 1.334 . S
C1802 H1773 0.950 . S
C1802 C1801 1.334 . S
C1802 C1803 1.287 . S
C1803 C1802 1.287 . S
C1803 C1804 1.524 . S
C1803 H1806 0.999 . S
C1804 H1774 0.950 . S
C1804 C1803 1.524 . S
C1804 C1805 1.415 . S
C1805 H1775 0.950 . S
C1805 C1800 1.363 . S
C1805 C1804 1.415 . S
H1806 C1803 0.999 . S
H1807 C1788 0.913 . S
C227 C4 1.646 . S
C242 C166 1.639 . S
C277 C173 1.638 . S
C292 C23 1.647 . S
C327 C36 1.646 . S
C342 C192 1.639 . S
C377 C199 1.639 . S
C392 C43 1.647 . S
C427 C108 1.646 . S
C442 C62 1.639 . S
C477 C69 1.639 . S
C492 C121 1.647 . S
C527 C140 1.647 . S
C542 C88 1.638 . S
C577 C101 1.639 . S
C592 C153 1.646 . S
C627 C3 1.615 . S
C642 C31 1.615 . S
C677 C18 1.615 . S
C692 C42 1.615 . S
C727 C55 1.670 . S
C742 C81 1.670 . S
C777 C70 1.670 . S
C792 C94 1.670 . S
C827 C135 1.615 . S
C842 C107 1.615 . S
C877 C120 1.615 . S
C892 C148 1.615 . S
C927 C185 1.670 . S
C942 C159 1.670 . S
C977 C174 1.670 . S
C992 C200 1.670 . S
C1027 C83 1.477 . S
C1042 C5 1.478 . S
C1077 C96 1.476 . S
C1092 C16 1.478 . S
C1127 C29 1.478 . S
C1142 C57 1.477 . S
C1177 C44 1.478 . S
C1192 C68 1.476 . S
C1227 C187 1.476 . S
C1242 C109 1.478 . S
C1277 C122 1.478 . S
C1292 C198 1.476 . S
C1327 C161 1.476 . S
C1342 C133 1.478 . S
C1377 C146 1.478 . S
C1392 C172 1.477 . S
C1427 C10 1.433 . S
C1442 C49 1.433 . S
C1477 C30 1.433 . S
C1492 C17 1.433 . S
C1527 C56 1.803 . S
C1542 C95 1.803 . S
C1577 C75 1.803 . S
C1592 C82 1.803 . S
C1627 C147 1.433 . S
C1642 C114 1.433 . S
C1677 C127 1.433 . S
C1692 C134 1.433 . S
C1727 C205 1.803 . S
C1742 C160 1.803 . S
C1777 C179 1.803 . S
C1792 C186 1.803 . S
