# Generated by pormake.
# Topology snp, (6)-cn, num edge types: 1
# Building blocks:
#     Node 0, Type 0, BuildingBlock: BETGAK_clean_sbu_0, # of connection points: 6
#     Node 1, Type 0, BuildingBlock: BETGAK_clean_sbu_0, # of connection points: 6
#     Node 2, Type 0, BuildingBlock: BETGAK_clean_sbu_0, # of connection points: 6
#     Node 3, Type 0, BuildingBlock: BETGAK_clean_sbu_0, # of connection points: 6
#     Edge 4, Type (0, 0), BuildingBlock: ZUJKAS_clean_linker_0, # of connection points: 2
#     Edge 5, Type (0, 0), BuildingBlock: ZUJKAS_clean_linker_0, # of connection points: 2
#     Edge 6, Type (0, 0), BuildingBlock: ZUJKAS_clean_linker_0, # of connection points: 2
#     Edge 7, Type (0, 0), BuildingBlock: ZUJKAS_clean_linker_0, # of connection points: 2
#     Edge 8, Type (0, 0), BuildingBlock: ZUJKAS_clean_linker_0, # of connection points: 2
#     Edge 9, Type (0, 0), BuildingBlock: ZUJKAS_clean_linker_0, # of connection points: 2
#     Edge 10, Type (0, 0), BuildingBlock: ZUJKAS_clean_linker_0, # of connection points: 2
#     Edge 11, Type (0, 0), BuildingBlock: ZUJKAS_clean_linker_0, # of connection points: 2
#     Edge 12, Type (0, 0), BuildingBlock: ZUJKAS_clean_linker_0, # of connection points: 2
#     Edge 13, Type (0, 0), BuildingBlock: ZUJKAS_clean_linker_0, # of connection points: 2
#     Edge 14, Type (0, 0), BuildingBlock: ZUJKAS_clean_linker_0, # of connection points: 2
#     Edge 15, Type (0, 0), BuildingBlock: ZUJKAS_clean_linker_0, # of connection points: 2
# Relax obj value: 0.554
# Max RMSD: 0.176
# Mean RMSD: 0.176
data_MOF--net-snp--node1-BETGAK_clean_sbu_0--edge1-ZUJKAS_clean_linker_0
_symmetry_space_group_name_H-M    P1
_symmetry_Int_Tables_number       1
_symmetry_cell_setting            triclinic
loop_
_symmetry_equiv_pos_as_xyz
'x, y, z'
_cell_length_a     32.84169
_cell_length_b     32.353648
_cell_length_c     35.467924
_cell_angle_alpha  90.087326
_cell_angle_beta   91.123634
_cell_angle_gamma 89.369955
loop_
_atom_site_label
_atom_site_type_symbol
_atom_site_fract_x
_atom_site_fract_y
_atom_site_fract_z
_atom_type_partial_charge
La0 La 0.23123 0.05498 0.19057 0.0
La1 La 0.25771 0.97131 0.16237 0.0
C2 C 0.20277 0.11967 0.21995 0.0
C3 C 0.20918 0.16466 0.21693 0.0
C4 C 0.17724 0.19045 0.20401 0.0
C5 C 0.18102 0.23343 0.20548 0.0
C6 C 0.21664 0.25147 0.22045 0.0
C7 C 0.24951 0.22546 0.23111 0.0
C8 C 0.24586 0.18257 0.2293 0.0
C9 C 0.30989 0.0463 0.17598 0.0
C10 C 0.23163 0.97822 0.24833 0.0
C11 C 0.30359 0.91597 1.13608 0.0
C12 C 0.33185 0.91369 1.10466 0.0
C13 C 0.34621 0.87515 1.0924 0.0
C14 C 0.36996 0.87231 1.06021 0.0
C15 C 0.37942 0.90804 1.03977 0.0
C16 C 0.36672 0.94685 1.05342 0.0
C17 C 0.3431 0.94966 1.08565 0.0
C18 C 0.17963 0.97542 0.17568 0.0
C19 C 0.23176 0.04507 1.10289 0.0
O20 O 0.1859 0.10141 0.19074 0.0
O21 O 0.23255 0.0976 0.23497 0.0
O22 O 0.28896 0.07978 0.17004 0.0
O23 O 0.28727 0.02041 0.19127 0.0
O24 O 0.21922 0.0163 0.23993 0.0
O25 O 0.25126 0.95512 0.22307 0.0
O26 O 0.265 0.92013 1.12659 0.0
O27 O 0.31427 0.94078 0.16366 0.0
O28 O 0.20083 0.94119 0.17588 0.0
O29 O 0.20187 0.00409 0.16365 0.0
O30 O 0.25172 0.00914 1.10879 0.0
O31 O 0.21741 0.06651 1.13155 0.0
H32 H 0.14873 0.17738 0.19409 0.0
H33 H 0.15532 0.2525 0.1965 0.0
H34 H 0.27722 0.23799 0.24332 0.0
H35 H 0.27122 0.16359 0.23924 0.0
H36 H 0.33786 0.84714 1.10692 0.0
H37 H 0.37884 0.84198 1.0501 0.0
H38 H 0.37378 0.97489 1.03834 0.0
H39 H 0.33253 0.97974 1.09502 0.0
La40 La 0.01664 0.23796 0.68828 0.0
La41 La 0.09918 0.25813 0.65869 0.0
C42 C 0.95278 0.21461 0.71953 0.0
C43 C 0.90983 0.2281 0.71884 0.0
C44 C 0.87906 0.19846 0.71937 0.0
C45 C 0.83846 0.21064 0.72378 0.0
C46 C 0.82822 0.25264 0.72812 0.0
C47 C 0.85875 0.28243 0.72511 0.0
C48 C 0.89923 0.27029 0.7202 0.0
C49 C 0.0282 0.31683 0.67151 0.0
C50 C 0.09389 0.2352 0.74562 0.0
C51 C 0.15473 0.30006 0.63004 0.0
C52 C 0.15978 0.32439 0.59547 0.0
C53 C 0.14643 0.30937 0.56031 0.0
C54 C 0.15268 0.33225 0.52769 0.0
C55 C 0.1719 0.37096 0.52952 0.0
C56 C 0.18424 0.38639 0.56498 0.0
C57 C 0.17826 0.36324 0.59766 0.0
C58 C 0.09173 0.17975 0.67541 0.0
C59 C 0.02427 0.23506 0.60034 0.0
O60 O 0.96647 0.19794 0.68859 0.0
O61 O 0.97873 0.24033 0.7349 0.0
O62 O 0.99411 0.29786 0.66678 0.0
O63 O 0.05326 0.29234 0.68711 0.0
O64 O 0.05587 0.22418 0.73778 0.0
O65 O 0.1164 0.25339 0.71958 0.0
O66 O 0.15163 0.2599 0.62606 0.0
O67 O 0.12861 0.31512 0.65401 0.0
O68 O 0.12636 0.19892 0.67494 0.0
O69 O 0.06432 0.20385 0.66227 0.0
O70 O 0.06118 0.25182 0.60523 0.0
O71 O 0.00273 0.22381 0.62962 0.0
H72 H 0.88664 0.16581 0.71814 0.0
H73 H 0.81553 0.18707 0.72654 0.0
H74 H 0.85154 0.31497 0.72847 0.0
H75 H 0.9224 0.29382 0.71928 0.0
H76 H 0.13176 0.27962 0.55788 0.0
H77 H 0.14349 0.31887 0.50089 0.0
H78 H 0.19872 0.4162 0.5675 0.0
H79 H 0.18837 0.37552 0.62465 0.0
La80 La 0.83041 0.01478 0.18737 0.0
La81 La 0.80649 0.09935 1.15919 0.0
C82 C 0.85778 0.94956 0.21752 0.0
C83 C 0.85035 0.9047 0.21463 0.0
C84 C 0.81382 0.88765 0.22708 0.0
C85 C 0.80946 0.84489 0.22931 0.0
C86 C 0.84144 0.81811 0.21899 0.0
C87 C 0.87678 0.83525 0.20389 0.0
C88 C 0.88129 0.87813 0.20201 0.0
C89 C 0.7517 0.02641 0.17245 0.0
C90 C 0.83182 0.09117 0.24575 0.0
C91 C 0.76224 0.15556 1.13058 0.0
C92 C 0.74196 0.16337 1.09382 0.0
C93 C 0.76392 0.16211 1.06031 0.0
C94 C 0.74434 0.16996 1.02581 0.0
C95 C 0.70223 0.17866 1.02387 0.0
C96 C 0.68024 0.17969 1.05748 0.0
C97 C 0.69999 0.17215 1.09215 0.0
C98 C 0.88437 0.09217 0.17469 0.0
C99 C 0.83019 0.02565 1.09941 0.0
O100 O 0.87462 0.96722 0.18864 0.0
O101 O 0.82871 0.97241 0.23175 0.0
O102 O 0.77127 0.99227 0.16634 0.0
O103 O 0.77575 0.05155 0.18797 0.0
O104 O 0.84427 0.05324 0.2371 0.0
O105 O 0.81155 0.11439 0.22039 0.0
O106 O 0.80214 0.15653 1.13168 0.0
O107 O 0.74799 0.12472 1.15001 0.0
O108 O 0.86433 0.1271 0.17526 0.0
O109 O 0.86115 0.0645 0.16134 0.0
O110 O 0.81426 0.06352 1.10494 0.0
O111 O 0.84107 1.00191 1.12827 0.0
H112 H 0.78922 0.90724 0.23684 0.0
H113 H 0.78202 0.83307 0.2416 0.0
H114 H 0.90178 0.81557 0.19517 0.0
H115 H 0.90966 0.8905 0.19207 0.0
H116 H 0.79629 0.15531 1.06066 0.0
H117 H 0.76253 0.16985 1.00067 0.0
H118 H 0.64779 0.18599 1.05698 0.0
H119 H 0.68246 0.1731 1.11772 0.0
La120 La 0.05306 0.84447 0.68898 0.0
La121 La 0.97083 0.81977 0.65831 0.0
C122 C 0.11619 0.87205 0.72106 0.0
C123 C 0.15994 0.8618 0.72141 0.0
C124 C 0.17367 0.82051 0.72251 0.0
C125 C 0.21497 0.81145 0.72848 0.0
C126 C 0.24318 0.84349 0.73291 0.0
C127 C 0.22976 0.88468 0.72887 0.0
C128 C 0.18837 0.89375 0.72335 0.0
C129 C 0.04457 0.76478 0.67315 0.0
C130 C 0.97721 0.8442 0.74519 0.0
C131 C 0.91605 0.77527 0.6295 0.0
C132 C 0.91059 0.74994 0.59535 0.0
C133 C 0.92334 0.76402 0.56018 0.0
C134 C 0.91608 0.74049 0.52782 0.0
C135 C 0.89639 0.7021 0.52994 0.0
C136 C 0.88489 0.6875 0.56547 0.0
C137 C 0.8919 0.71129 0.59788 0.0
C138 C 0.97519 0.89881 0.67423 0.0
C139 C 0.04343 0.84515 0.60088 0.0
O140 O 0.10085 0.88736 0.68973 0.0
O141 O 0.09238 0.84465 0.73605 0.0
O142 O 0.07773 0.78512 0.66863 0.0
O143 O 0.01886 0.78848 0.68796 0.0
O144 O 0.01438 0.85709 0.7377 0.0
O145 O 0.95499 0.82447 0.71901 0.0
O146 O 0.91783 0.8154 0.62478 0.0
O147 O 0.9433 0.76164 0.65402 0.0
O148 O 0.94147 0.87805 0.67355 0.0
O149 O 0.00324 0.8757 0.66175 0.0
O150 O 0.0079 0.82583 0.60549 0.0
O151 O 0.0645 0.85879 0.63041 0.0
H152 H 0.15231 0.79528 0.72054 0.0
H153 H 0.22462 0.77948 0.73151 0.0
H154 H 0.25082 0.90995 0.73268 0.0
H155 H 0.17835 0.92576 0.72238 0.0
H156 H 0.93815 0.7936 0.55753 0.0
H157 H 0.92469 0.75324 0.50095 0.0
H158 H 0.87013 0.65792 0.56823 0.0
H159 H 0.88226 0.69974 0.6249 0.0
H160 H 0.91334 0.14274 0.23043 0.0
H161 H 0.95553 0.12182 0.28463 0.0
H162 H 0.97497 1.00259 0.23222 0.0
H163 H 0.93077 0.0227 0.1798 0.0
H164 H 0.02384 0.10617 0.30236 0.0
H165 H 0.96673 0.95713 0.33265 0.0
H166 H 0.9626 0.9544 0.28246 0.0
H167 H 0.93417 0.99376 0.30761 0.0
C168 C 0.9268 0.11203 0.23066 0.0
C169 C 0.9178 0.08359 0.20171 0.0
C170 C 0.95045 0.09992 0.26196 0.0
C171 C 0.96636 0.05955 0.26425 0.0
C172 C 0.96046 0.03274 0.2332 0.0
H173 H 0.13192 0.04367 0.18228 0.0
H174 H 0.08861 0.06084 0.23463 0.0
C175 C 0.93608 0.04449 0.20252 0.0
C176 C 0.99447 0.04684 0.29553 0.0
H177 H 0.0423 0.95422 0.29989 0.0
C178 C 0.0274 0.07288 0.30387 0.0
C179 C 0.99934 0.00434 0.30388 0.0
C180 C 0.96337 0.97614 0.30671 0.0
C181 C 0.06675 0.05586 0.30591 0.0
C182 C 0.07153 0.01378 0.29602 0.0
C183 C 0.03871 0.98743 0.3025 0.0
C184 C 0.09886 1.0027 0.26464 0.0
C185 C 0.10277 0.08391 0.31063 0.0
C186 C 0.11524 0.96269 0.2611 0.0
C187 C 0.13835 0.9523 0.22976 0.0
C188 C 0.14638 0.98214 0.20213 0.0
C189 C 0.12744 0.02084 0.20403 0.0
C190 C 0.10357 0.03088 0.2347 0.0
H191 H 0.09966 0.10208 0.33702 0.0
H192 H 0.13195 0.06622 0.31186 0.0
H193 H 0.10338 0.1064 0.28704 0.0
H194 H 0.11099 0.93978 0.28286 0.0
H195 H 0.15227 0.92183 0.22858 0.0
H196 H 0.92311 0.92734 0.72771 0.0
H197 H 0.94209 0.96672 0.78408 0.0
H198 H 0.06145 0.98568 0.73808 0.0
H199 H 0.04317 0.94444 0.68346 0.0
H200 H 0.95868 0.03526 0.8052 0.0
H201 H 0.10304 0.96832 0.84024 0.0
H202 H 0.10599 0.96514 0.79009 0.0
H203 H 0.06603 0.93803 0.8141 0.0
C204 C 0.95336 0.94025 0.72975 0.0
C205 C 0.98236 0.93179 0.70199 0.0
C206 C 0.96436 0.9622 0.76229 0.0
C207 C 0.00421 0.97678 0.76706 0.0
C208 C 0.03156 0.97194 0.73709 0.0
H209 H 0.0218 0.13792 0.68498 0.0
H210 H 0.00395 0.09774 0.7395 0.0
C211 C 0.02087 0.94935 0.70514 0.0
C212 C 0.01623 1.00241 0.80014 0.0
H213 H 0.10885 0.04553 0.80827 0.0
C214 C 0.99154 0.037 0.80792 0.0
C215 C 0.05795 0.00475 0.81039 0.0
C216 C 0.08444 0.96661 0.81381 0.0
C217 C 0.00968 0.0759 0.81064 0.0
C218 C 0.0513 0.07848 0.80159 0.0
C219 C 0.07599 0.04375 0.80964 0.0
C220 C 0.06275 0.10402 0.76869 0.0
C221 C 0.98339 0.11401 0.81457 0.0
C222 C 0.103 0.11689 0.76394 0.0
C223 C 0.11368 0.13797 0.7313 0.0
C224 C 0.08398 0.14758 0.70345 0.0
C225 C 0.04477 0.13205 0.70669 0.0
C226 C 0.03438 0.11012 0.73867 0.0
H227 H 0.96622 0.11207 0.84115 0.0
H228 H 0.00181 0.14262 0.815 0.0
H229 H 0.96054 0.11567 0.79111 0.0
H230 H 0.126 0.11153 0.78573 0.0
H231 H 0.14446 0.14931 0.72921 0.0
H232 H 0.69963 0.98559 1.12515 0.0
H233 H 0.62523 0.99093 1.12137 0.0
H234 H 0.62738 0.08019 0.21195 0.0
H235 H 0.70191 0.077 0.21367 0.0
H236 H 0.56977 0.97138 0.16414 0.0
H237 H 0.55019 0.13969 1.1466 0.0
H238 H 0.59944 0.11493 1.1441 0.0
H239 H 0.57854 0.12895 0.18913 0.0
C240 C 0.68416 0.00687 1.14379 0.0
C241 C 0.70664 0.03116 0.16943 0.0
C242 C 0.64149 0.00982 1.14177 0.0
C243 C 0.62001 0.03657 0.16588 0.0
C244 C 0.64269 0.06045 0.19193 0.0
H245 H 0.36261 0.9958 0.2156 0.0
H246 H 0.43695 0.99316 0.21256 0.0
C247 C 0.68547 0.05834 0.1932 0.0
C248 C 0.57411 0.03782 0.16484 0.0
H249 H 0.49126 0.10296 0.16618 0.0
C250 C 0.55276 1.0003 0.16417 0.0
C251 C 0.55117 0.07528 0.16403 0.0
C252 C 0.57106 0.1169 1.16055 0.0
C253 C 0.50982 0.99912 0.16334 0.0
C254 C 0.48697 0.03653 0.16534 0.0
C255 C 0.50828 0.07407 0.16531 0.0
C256 C 0.44118 0.03766 0.16717 0.0
C257 C 0.4897 0.9576 1.15903 0.0
C258 C 0.41806 0.06471 1.14392 0.0
C259 C 0.37551 0.0673 1.14667 0.0
C260 C 0.35481 0.04238 0.17225 0.0
C261 C 0.37763 0.01496 0.1952 0.0
C262 C 0.42029 0.01318 0.19318 0.0
H263 H 0.50974 0.93523 1.14422 0.0
H264 H 0.48388 0.94473 0.18737 0.0
H265 H 0.46038 0.96004 1.14303 0.0
H266 H 0.43296 0.08407 1.12359 0.0
H267 H 0.35873 0.08873 1.12862 0.0
H268 H 0.98736 0.36892 0.62357 0.0
H269 H 0.99232 0.44421 0.61941 0.0
H270 H 0.08142 0.44304 0.71054 0.0
H271 H 0.07865 0.3675 0.71256 0.0
H272 H 0.97315 0.50175 0.66174 0.0
H273 H 0.13865 0.51894 0.64565 0.0
H274 H 0.11469 0.4692 0.64312 0.0
H275 H 0.12879 0.49144 0.68818 0.0
C276 C 0.00856 0.38478 0.64222 0.0
C277 C 0.0329 0.3623 0.66812 0.0
C278 C 0.01128 0.42796 0.63999 0.0
C279 C 0.03781 0.44997 0.66418 0.0
C280 C 0.06181 0.42728 0.69045 0.0
H281 H 0.99531 0.71314 0.7123 0.0
H282 H 0.99353 0.63761 0.70975 0.0
C283 C 0.05997 0.38395 0.69189 0.0
C284 C 0.03867 0.49648 0.66307 0.0
H285 H 0.10215 0.57971 0.66498 0.0
C286 C 0.0015 0.51863 0.66201 0.0
C287 C 0.07538 0.51923 0.66259 0.0
C288 C 0.11654 0.49841 0.65949 0.0
C289 C -4e-05 0.5622 0.66106 0.0
C290 C 0.03665 0.58493 0.66342 0.0
C291 C 0.07382 0.5628 0.66383 0.0
C292 C 0.03738 0.63142 0.6651 0.0
C293 C 0.95883 0.58304 0.65623 0.0
C294 C 0.06385 0.65384 0.64219 0.0
C295 C 0.06599 0.69707 0.64473 0.0
C296 C 0.04115 0.71915 0.6697 0.0
C297 C 0.01437 0.69703 0.69234 0.0
C298 C 0.01307 0.65369 0.69059 0.0
H299 H 0.9369 0.56261 0.64117 0.0
H300 H 0.94623 0.58979 0.6844 0.0
H301 H 0.96085 0.61237 0.64021 0.0
H302 H 0.08308 0.63789 0.62228 0.0
H303 H 0.08698 0.7133 0.62697 0.0
H304 H 0.12457 0.3777 0.46543 0.0
H305 H 0.147 0.39743 0.40321 0.0
H306 H 0.2615 0.43822 0.45103 0.0
H307 H 0.24055 0.4152 0.51324 0.0
H308 H 0.17687 0.46113 0.36279 0.0
H309 H 0.2998 0.34314 0.38904 0.0
H310 H 0.26001 0.35106 0.4225 0.0
H311 H 0.29948 0.38875 0.41781 0.0
C312 C 0.1545 0.391 0.46286 0.0
C313 C 0.18136 0.39319 0.49411 0.0
C314 C 0.16708 0.40297 0.42726 0.0
C315 C 0.20652 0.41803 0.42222 0.0
C316 C 0.23144 0.42541 0.45408 0.0
H317 H 0.2807 0.30587 0.21797 0.0
H318 H 0.28705 0.36898 0.2556 0.0
C319 C 0.21917 0.41259 0.48975 0.0
C320 C 0.2228 0.41827 0.38348 0.0
H321 H 0.27949 0.35524 0.32764 0.0
C322 C 0.20028 0.43897 0.35501 0.0
C323 C 0.2541 0.39016 0.37315 0.0
C324 C 0.27975 0.36683 0.40206 0.0
C325 C 0.20432 0.42802 0.31694 0.0
C326 C 0.2313 0.39553 0.30736 0.0
C327 C 0.2583 0.37975 0.33506 0.0
C328 C 0.22443 0.36943 0.27345 0.0
C329 C 0.17733 0.44895 0.28775 0.0
C330 C 0.18655 0.35013 0.26906 0.0
C331 C 0.18299 0.31382 0.24814 0.0
C332 C 0.21732 0.29596 0.2312 0.0
C333 C 0.25392 0.31825 0.2315 0.0
C334 C 0.2575 0.35463 0.25264 0.0
H335 H 0.17395 0.48238 0.29429 0.0
H336 H 0.18955 0.44541 0.25893 0.0
H337 H 0.14649 0.43527 0.28834 0.0
H338 H 0.16072 0.36018 0.28538 0.0
H339 H 0.15435 0.29761 0.24886 0.0
H340 H 0.75209 0.23357 0.69992 0.0
H341 H 0.68778 0.2399 0.73366 0.0
H342 H 0.75231 0.29883 0.82624 0.0
H343 H 0.81449 0.29564 0.79151 0.0
H344 H 0.66857 0.20101 0.78671 0.0
H345 H 0.651 0.35327 0.84557 0.0
H346 H 0.68401 0.34572 0.80597 0.0
H347 H 0.70412 0.3446 0.85398 0.0
C348 C 0.75172 0.24954 0.72678 0.0
C349 C 0.78805 0.26425 0.74316 0.0
C350 C 0.71504 0.2531 0.74615 0.0
C351 C 0.71446 0.27025 0.78268 0.0
C352 C 0.75066 0.28709 0.7977 0.0
H353 H 0.71667 0.14103 0.95662 0.0
H354 H 0.69589 0.16457 0.89472 0.0
C355 C 0.78676 0.28475 0.77792 0.0
C356 C 0.68012 0.26243 0.80859 0.0
H357 H 0.65566 0.29446 0.89662 0.0
C358 C 0.66431 0.22224 0.81 0.0
C359 C 0.67072 0.29017 0.83818 0.0
C360 C 0.67802 0.33597 0.83533 0.0
C361 C 0.64764 0.20705 0.84324 0.0
C362 C 0.64945 0.23172 0.87619 0.0
C363 C 0.6568 0.27422 0.87228 0.0
C364 C 0.65474 0.21276 0.91425 0.0
C365 C 0.63136 0.16367 0.84339 0.0
C366 C 0.63931 0.23196 0.94667 0.0
C367 C 0.65302 0.21959 0.98264 0.0
C368 C 0.68218 0.18761 0.98678 0.0
C369 C 0.69498 0.16641 0.95449 0.0
C370 C 0.68207 0.17927 0.91879 0.0
H371 H 0.61126 0.15888 0.81824 0.0
H372 H 0.65697 0.14115 0.84128 0.0
H373 H 0.61382 0.15716 0.86913 0.0
H374 H 0.61837 0.25794 0.94417 0.0
H375 H 0.64254 0.23667 1.00694 0.0
H376 H 0.94131 0.69359 0.46615 0.0
H377 H 0.91617 0.67359 0.40397 0.0
H378 H 0.8027 0.63556 0.45162 0.0
H379 H 0.82643 0.65884 0.51373 0.0
H380 H 0.88339 0.61001 0.36384 0.0
H381 H 0.76404 0.73096 0.38895 0.0
H382 H 0.805 0.7225 0.42254 0.0
H383 H 0.7645 0.6857 0.41808 0.0
C384 C 0.91105 0.6808 0.46355 0.0
C385 C 0.88532 0.67949 0.49471 0.0
C386 C 0.8969 0.66869 0.42798 0.0
C387 C 0.85698 0.65436 0.42288 0.0
C388 C 0.83313 0.64779 0.4547 0.0
H389 H 0.77629 0.76488 0.21723 0.0
H390 H 0.77042 0.70263 0.25572 0.0
C391 C 0.84698 0.66076 0.49033 0.0
C392 C 0.83918 0.65407 0.3841 0.0
H393 H 0.78144 0.71752 0.32765 0.0
C394 C 0.86011 0.63255 0.35584 0.0
C395 C 0.80804 0.68271 0.3735 0.0
C396 C 0.78409 0.70696 0.40219 0.0
C397 C 0.85468 0.64305 0.31766 0.0
C398 C 0.82792 0.67593 0.30777 0.0
C399 C 0.80244 0.69268 0.33531 0.0
C400 C 0.8338 0.70132 0.27355 0.0
C401 C 0.88001 0.62115 0.28868 0.0
C402 C 0.87184 0.71982 0.26888 0.0
C403 C 0.87516 0.75565 0.24748 0.0
C404 C 0.84043 0.77384 0.23031 0.0
C405 C 0.80343 0.75225 0.23093 0.0
C406 C 0.8001 0.71636 0.25256 0.0
H407 H 0.88306 0.58776 0.29559 0.0
H408 H 0.86657 0.62445 0.25984 0.0
H409 H 0.91111 0.63424 0.28907 0.0
H410 H 0.89819 0.70957 0.28532 0.0
H411 H 0.90412 0.77132 0.24798 0.0
H412 H 0.31692 0.87107 0.70816 0.0
H413 H 0.3817 0.86929 0.74379 0.0
H414 H 0.32416 0.79912 0.83124 0.0
H415 H 0.26153 0.79836 0.79473 0.0
H416 H 0.39583 0.90734 0.80027 0.0
H417 H 0.43093 0.75305 0.84944 0.0
H418 H 0.39667 0.76038 0.8095 0.0
H419 H 0.37743 0.75623 0.85691 0.0
C420 C 0.31901 0.85376 0.73425 0.0
C421 C 0.28437 0.83479 0.74873 0.0
C422 C 0.35596 0.85277 0.75468 0.0
C423 C 0.35851 0.83373 0.79035 0.0
C424 C 0.32428 0.8126 0.80336 0.0
H425 H 0.35206 0.9458 0.97616 0.0
H426 H 0.36988 0.93002 0.91203 0.0
C427 C 0.28794 0.81259 0.78255 0.0
C428 C 0.39219 0.84337 0.81766 0.0
H429 H 0.4241 0.80741 0.9034 0.0
C430 C 0.40351 0.88494 0.82203 0.0
C431 C 0.40547 0.81455 0.84541 0.0
C432 C 0.40231 0.76852 0.83956 0.0
C433 C 0.42002 0.89925 0.85629 0.0
C434 C 0.42295 0.87187 0.8873 0.0
C435 C 0.41956 0.82923 0.88049 0.0
C436 C 0.41895 0.88708 0.92669 0.0
C437 C 0.43101 0.94425 0.85968 0.0
C438 C 0.43997 0.86798 0.95701 0.0
C439 C 0.42884 0.87634 0.99423 0.0
C440 C 0.39679 0.90421 1.00167 0.0
C441 C 0.3775 0.92494 0.97146 0.0
C442 C 0.38807 0.91613 0.93451 0.0
H443 H 0.44795 0.95401 0.83446 0.0
H444 H 0.40279 0.96341 0.86049 0.0
H445 H 0.44998 0.95048 0.88529 0.0
H446 H 0.46364 0.84521 0.95188 0.0
H447 H 0.44423 0.85995 1.01709 0.0
H448 H 0.84225 0.0673 1.03134 0.0
H449 H 0.86416 0.03768 0.97093 0.0
H450 H 0.85917 0.91535 1.01846 0.0
H451 H 0.8391 0.94471 1.07858 0.0
H452 H 0.92413 0.91753 0.98238 0.0
H453 H 0.80864 0.98466 0.88425 0.0
H454 H 0.83667 0.02357 0.90933 0.0
H455 H 0.80441 0.98905 0.93471 0.0
C456 C 0.84522 0.03405 1.02875 0.0
C457 C 0.83868 0.00869 1.06036 0.0
C458 C 0.85768 0.01689 0.99384 0.0
C459 C 0.86321 0.97369 0.98908 0.0
C460 C 0.85561 0.94859 1.02055 0.0
H461 H 0.89647 0.84377 0.76914 0.0
H462 H 0.86879 0.87383 0.82732 0.0
C463 C 0.84381 0.96564 1.0553 0.0
C464 C 0.87879 0.95421 0.95269 0.0
H465 H 0.86488 0.95001 0.85621 0.0
C466 C 0.91079 0.92476 0.95493 0.0
C467 C 0.86171 0.96248 0.91621 0.0
C468 C 0.8257 0.99132 0.91089 0.0
C469 C 0.926 0.90405 0.92277 0.0
C470 C 0.91006 0.91348 0.88616 0.0
C471 C 0.87776 0.94258 0.88379 0.0
C472 C 0.92685 0.89392 0.85038 0.0
C473 C 0.95839 0.87116 0.92884 0.0
C474 C 0.96883 0.89469 0.84298 0.0
C475 C 0.98475 0.87675 0.81009 0.0
C476 C 0.9594 0.85797 0.78247 0.0
C477 C 0.91729 0.85716 0.78968 0.0
C478 C 0.90131 0.87492 0.82299 0.0
H479 H 0.95713 0.85779 0.95763 0.0
H480 H 0.95523 0.84566 0.90804 0.0
H481 H 0.98885 0.88515 0.92587 0.0
H482 H 0.98957 0.91004 0.86236 0.0
H483 H 0.01721 0.8788 0.80584 0.0
H484 H 0.19796 0.01981 0.30786 0.0
H485 H 0.1657 0.99243 0.36371 0.0
H486 H 0.19681 0.86859 0.32905 0.0
H487 H 0.22957 0.89609 0.27268 0.0
H488 H 0.10103 0.94388 0.37222 0.0
H489 H 0.23431 0.86341 0.43762 0.0
H490 H 0.23918 0.89889 0.39884 0.0
H491 H 0.2226 0.84683 0.39037 0.0
C492 C 0.19877 0.98669 0.31218 0.0
C493 C 0.21717 0.96044 0.28534 0.0
C494 C 0.17981 0.97092 0.34437 0.0
C495 C 0.1787 0.92817 0.35158 0.0
C496 C 0.19763 0.90174 0.32517 0.0
H497 H 0.01082 0.82995 0.52822 0.0
H498 H 0.04079 0.84693 0.46697 0.0
C499 C 0.21664 0.91758 0.29271 0.0
C500 C 0.15713 0.91195 0.38619 0.0
H501 H 0.17115 0.85454 0.46702 0.0
C502 C 0.11647 0.92418 0.39281 0.0
C503 C 0.17673 0.88643 0.41379 0.0
C504 C 0.2207 0.87336 0.41014 0.0
C505 C 0.09543 0.91214 0.42563 0.0
C506 C 0.11496 0.88636 0.45313 0.0
C507 C 0.15552 0.87391 0.44631 0.0
C508 C 0.09554 0.87466 0.49038 0.0
C509 C 0.05282 0.92861 0.43112 0.0
C510 C 0.11608 0.88305 0.52468 0.0
C511 C 0.09913 0.87306 0.55963 0.0
C512 C 0.06075 0.85391 0.56221 0.0
C513 C 0.04021 0.84477 0.52788 0.0
C514 C 0.05735 0.85492 0.49258 0.0
H515 H 0.04596 0.95568 0.41272 0.0
H516 H 0.03066 0.90409 0.42383 0.0
H517 H 0.04822 0.93785 0.4609 0.0
H518 H 0.14541 0.89803 0.52456 0.0
H519 H 0.11647 0.88074 0.58491 0.0
H520 H 0.05411 0.20498 0.80699 0.0
H521 H 0.08232 0.17216 0.86375 0.0
H522 H 0.20373 0.19598 0.82614 0.0
H523 H 0.17545 0.22927 0.76892 0.0
H524 H 0.12896 0.10389 0.87353 0.0
H525 H 0.21385 0.23654 0.93337 0.0
H526 H 0.1774 0.24239 0.89499 0.0
H527 H 0.22789 0.22302 0.88624 0.0
C528 C 0.0869 0.2041 0.81087 0.0
C529 C 0.11226 0.22057 0.78297 0.0
C530 C 0.10312 0.18482 0.84357 0.0
C531 C 0.14545 0.1815 0.85016 0.0
C532 C 0.17099 0.19856 0.82269 0.0
H533 H 0.24533 0.01054 1.03125 0.0
H534 H 0.22752 0.0406 0.96907 0.0
C535 C 0.1547 0.21787 0.78975 0.0
C536 C 0.16219 0.15955 0.88526 0.0
H537 H 0.22218 0.17267 0.96482 0.0
C538 C 0.1495 0.11901 0.89334 0.0
C539 C 0.18886 0.17879 0.91182 0.0
C540 C 0.20258 0.22269 0.9065 0.0
C541 C 0.16223 0.09773 0.92666 0.0
C542 C 0.18909 0.1169 0.95315 0.0
C543 C 0.20198 0.15732 0.94485 0.0
C544 C 0.20147 0.09745 0.9909 0.0
C545 C 0.14538 0.05534 0.93378 0.0
C546 C 0.19431 0.11915 1.02456 0.0
C547 C 0.20471 0.10214 1.06 0.0
C548 C 0.22309 0.06255 1.0637 0.0
C549 C 0.23115 0.04089 1.03001 0.0
C550 C 0.22053 0.05808 0.99421 0.0
H551 H 0.1181 0.04904 0.91574 0.0
H552 H 0.16895 0.0317 0.92727 0.0
H553 H 0.13704 0.05179 0.96378 0.0
H554 H 0.17991 0.14943 1.02355 0.0
H555 H 0.19792 0.12038 1.08476 0.0
H556 H 0.83026 0.17261 0.27251 0.0
H557 H 0.86233 0.19996 0.3305 0.0
H558 H 0.90277 0.07708 0.36087 0.0
H559 H 0.86957 0.04969 0.30442 0.0
H560 H 0.8812 0.1115 0.42136 0.0
H561 H 0.97771 0.22669 0.35244 0.0
H562 H 0.92458 0.23594 0.34289 0.0
H563 H 0.94856 0.18936 0.32588 0.0
C564 C 0.8454 0.15129 0.29182 0.0
C565 C 0.84686 0.10869 0.28323 0.0
C566 C 0.86457 0.16714 0.32493 0.0
C567 C 0.88636 0.14107 0.35043 0.0
C568 C 0.88662 0.09843 0.34228 0.0
H569 H 0.06203 0.22376 0.53074 0.0
H570 H 0.03012 0.20164 0.47049 0.0
C571 C 0.86727 0.08262 0.30958 0.0
C572 C 0.90806 0.15727 0.38589 0.0
H573 H 0.97585 0.22969 0.41957 0.0
C574 C 0.9019 0.13735 0.42063 0.0
C575 C 0.93622 0.19046 0.38584 0.0
C576 C 0.94757 0.21158 0.34973 0.0
C577 C 0.92196 0.14963 0.45454 0.0
C578 C 0.94841 0.18422 0.45493 0.0
C579 C 0.95532 0.2037 0.42009 0.0
C580 C 0.96847 0.20049 0.49113 0.0
C581 C 0.91535 0.12415 0.48945 0.0
C582 C 0.94505 0.20905 0.52312 0.0
C583 C 0.96331 0.22119 0.55758 0.0
C584 C 0.00583 0.22639 0.56159 0.0
C585 C 0.0293 0.22015 0.5291 0.0
C586 C 0.01091 0.20733 0.49446 0.0
H587 H 0.90683 0.09193 0.48214 0.0
H588 H 0.94305 0.12305 0.5079 0.0
H589 H 0.88995 0.13789 0.50558 0.0
H590 H 0.91228 0.20595 0.52167 0.0
H591 H 0.94378 0.22623 0.58145 0.0
loop_
_geom_bond_atom_site_label_1
_geom_bond_atom_site_label_2
_geom_bond_distance
_geom_bond_site_symmetry_2
_ccdc_geom_bond_type
La0 C2 2.928 . S
La0 O20 2.521 . S
La0 O21 2.628 . S
La0 O22 2.554 . S
La0 O23 2.757 1_554 S
La0 O24 2.470 . S
La0 O29 2.482 . S
La0 O31 2.503 1_554 S
La1 C11 2.928 1_545 S
La1 O23 2.482 . S
La1 O25 2.503 1_556 S
La1 O26 2.521 1_545 S
La1 O27 2.628 . S
La1 O28 2.554 . S
La1 O29 2.757 1_556 S
La1 O30 2.470 . S
C2 La0 2.928 . S
C2 C3 1.503 . S
C2 O20 1.261 . S
C2 O21 1.243 . S
C3 C2 1.503 . S
C3 C4 1.394 . S
C3 C8 1.373 . S
C4 C3 1.394 . S
C4 C5 1.380 . S
C4 H32 0.930 . S
C5 C4 1.380 . S
C5 C6 1.376 . S
C5 H33 0.930 . S
C6 C5 1.376 . S
C6 C7 1.370 . S
C7 C6 1.370 . S
C7 C8 1.396 . S
C7 H34 0.929 . S
C8 C3 1.373 . S
C8 C7 1.396 . S
C8 H35 0.929 . S
C9 O22 1.240 . S
C9 O23 1.289 1_554 S
C10 O24 1.258 . S
C10 O25 1.256 . S
C11 La1 2.928 1_565 S
C11 C12 1.503 . S
C11 O26 1.261 . S
C11 O27 1.243 1_565 S
C12 C11 1.503 . S
C12 C13 1.394 . S
C12 C17 1.373 . S
C13 C12 1.394 . S
C13 C14 1.380 . S
C13 H36 0.930 . S
C14 C13 1.380 . S
C14 C15 1.376 . S
C14 H37 0.930 . S
C15 C14 1.376 . S
C15 C16 1.370 . S
C16 C15 1.370 . S
C16 C17 1.396 . S
C16 H38 0.929 . S
C17 C12 1.373 . S
C17 C16 1.396 . S
C17 H39 0.929 . S
C18 O28 1.218 1_554 S
C18 O29 1.303 . S
C19 O30 1.258 . S
C19 O31 1.256 . S
O20 La0 2.521 . S
O20 C2 1.261 . S
O21 La0 2.628 . S
O21 C2 1.243 . S
O22 La0 2.554 . S
O22 C9 1.240 . S
O23 La0 2.757 1_556 S
O23 La1 2.482 . S
O23 C9 1.289 1_556 S
O24 La0 2.470 . S
O24 C10 1.258 . S
O25 La1 2.503 1_554 S
O25 C10 1.256 . S
O26 La1 2.521 1_565 S
O26 C11 1.261 . S
O27 La1 2.628 . S
O27 C11 1.243 1_545 S
O28 La1 2.554 . S
O28 C18 1.218 1_556 S
O29 La0 2.482 . S
O29 La1 2.757 1_554 S
O29 C18 1.303 . S
O30 La1 2.470 . S
O30 C19 1.258 . S
O31 La0 2.503 1_556 S
O31 C19 1.256 . S
H32 C4 0.930 . S
H33 C5 0.930 . S
H34 C7 0.929 . S
H35 C8 0.929 . S
H36 C13 0.930 . S
H37 C14 0.930 . S
H38 C16 0.929 . S
H39 C17 0.929 . S
La40 C42 2.928 . S
La40 O60 2.521 . S
La40 O61 2.628 . S
La40 O62 2.554 . S
La40 O63 2.757 1_655 S
La40 O64 2.470 1_655 S
La40 O69 2.482 . S
La40 O71 2.503 . S
La41 C51 2.928 . S
La41 O63 2.482 . S
La41 O65 2.503 . S
La41 O66 2.521 . S
La41 O67 2.628 . S
La41 O68 2.554 . S
La41 O69 2.757 1_455 S
La41 O70 2.470 1_455 S
C42 La40 2.928 . S
C42 C43 1.503 . S
C42 O60 1.261 . S
C42 O61 1.243 . S
C43 C42 1.503 . S
C43 C44 1.394 . S
C43 C48 1.373 . S
C44 C43 1.394 . S
C44 C45 1.380 . S
C44 H72 0.930 . S
C45 C44 1.380 . S
C45 C46 1.376 . S
C45 H73 0.930 . S
C46 C45 1.376 . S
C46 C47 1.370 . S
C47 C46 1.370 . S
C47 C48 1.396 . S
C47 H74 0.929 . S
C48 C43 1.373 . S
C48 C47 1.396 . S
C48 H75 0.929 . S
C49 O62 1.240 . S
C49 O63 1.289 1_655 S
C50 O64 1.258 . S
C50 O65 1.256 . S
C51 La41 2.928 . S
C51 C52 1.503 . S
C51 O66 1.261 . S
C51 O67 1.243 . S
C52 C51 1.503 . S
C52 C53 1.394 . S
C52 C57 1.373 . S
C53 C52 1.394 . S
C53 C54 1.380 . S
C53 H76 0.930 . S
C54 C53 1.380 . S
C54 C55 1.376 . S
C54 H77 0.930 . S
C55 C54 1.376 . S
C55 C56 1.370 . S
C56 C55 1.370 . S
C56 C57 1.396 . S
C56 H78 0.929 . S
C57 C52 1.373 . S
C57 C56 1.396 . S
C57 H79 0.929 . S
C58 O68 1.240 . S
C58 O69 1.289 1_455 S
C59 O70 1.258 . S
C59 O71 1.256 . S
O60 La40 2.521 . S
O60 C42 1.261 . S
O61 La40 2.628 . S
O61 C42 1.243 . S
O62 La40 2.554 . S
O62 C49 1.240 . S
O63 La40 2.757 1_455 S
O63 La41 2.482 . S
O63 C49 1.289 1_455 S
O64 La40 2.470 1_455 S
O64 C50 1.258 . S
O65 La41 2.503 . S
O65 C50 1.256 . S
O66 La41 2.521 . S
O66 C51 1.261 . S
O67 La41 2.628 . S
O67 C51 1.243 . S
O68 La41 2.554 . S
O68 C58 1.240 . S
O69 La40 2.482 . S
O69 La41 2.757 1_655 S
O69 C58 1.289 1_655 S
O70 La41 2.470 1_655 S
O70 C59 1.258 . S
O71 La40 2.503 . S
O71 C59 1.256 . S
H72 C44 0.930 . S
H73 C45 0.930 . S
H74 C47 0.929 . S
H75 C48 0.929 . S
H76 C53 0.930 . S
H77 C54 0.930 . S
H78 C56 0.929 . S
H79 C57 0.929 . S
La80 C82 2.928 . S
La80 O100 2.521 . S
La80 O101 2.628 . S
La80 O102 2.554 . S
La80 O103 2.757 1_564 S
La80 O104 2.470 1_565 S
La80 O109 2.482 . S
La80 O111 2.503 1_554 S
La81 C91 2.928 . S
La81 O103 2.482 . S
La81 O105 2.503 1_556 S
La81 O106 2.521 . S
La81 O107 2.628 . S
La81 O108 2.554 . S
La81 O109 2.757 1_546 S
La81 O110 2.470 1_545 S
C82 La80 2.928 . S
C82 C83 1.503 . S
C82 O100 1.261 . S
C82 O101 1.243 . S
C83 C82 1.503 . S
C83 C84 1.394 . S
C83 C88 1.373 . S
C84 C83 1.394 . S
C84 C85 1.380 . S
C84 H112 0.930 . S
C85 C84 1.380 . S
C85 C86 1.376 . S
C85 H113 0.930 . S
C86 C85 1.376 . S
C86 C87 1.370 . S
C87 C86 1.370 . S
C87 C88 1.396 . S
C87 H114 0.929 . S
C88 C83 1.373 . S
C88 C87 1.396 . S
C88 H115 0.929 . S
C89 O102 1.240 . S
C89 O103 1.289 1_564 S
C90 O104 1.258 . S
C90 O105 1.256 . S
C91 La81 2.928 . S
C91 C92 1.503 . S
C91 O106 1.261 . S
C91 O107 1.243 . S
C92 C91 1.503 . S
C92 C93 1.394 . S
C92 C97 1.373 . S
C93 C92 1.394 . S
C93 C94 1.380 . S
C93 H116 0.930 . S
C94 C93 1.380 . S
C94 C95 1.376 . S
C94 H117 0.930 . S
C95 C94 1.376 . S
C95 C96 1.370 . S
C96 C95 1.370 . S
C96 C97 1.396 . S
C96 H118 0.929 . S
C97 C92 1.373 . S
C97 C96 1.396 . S
C97 H119 0.929 . S
C98 O108 1.218 1_554 S
C98 O109 1.303 1_545 S
C99 O110 1.258 . S
C99 O111 1.256 . S
O100 La80 2.521 . S
O100 C82 1.261 . S
O101 La80 2.628 . S
O101 C82 1.243 . S
O102 La80 2.554 . S
O102 C89 1.240 . S
O103 La80 2.757 1_546 S
O103 La81 2.482 . S
O103 C89 1.289 1_546 S
O104 La80 2.470 1_545 S
O104 C90 1.258 . S
O105 La81 2.503 1_554 S
O105 C90 1.256 . S
O106 La81 2.521 . S
O106 C91 1.261 . S
O107 La81 2.628 . S
O107 C91 1.243 . S
O108 La81 2.554 . S
O108 C98 1.218 1_556 S
O109 La80 2.482 . S
O109 La81 2.757 1_564 S
O109 C98 1.303 1_565 S
O110 La81 2.470 1_565 S
O110 C99 1.258 . S
O111 La80 2.503 1_556 S
O111 C99 1.256 . S
H112 C84 0.930 . S
H113 C85 0.930 . S
H114 C87 0.929 . S
H115 C88 0.929 . S
H116 C93 0.930 . S
H117 C94 0.930 . S
H118 C96 0.929 . S
H119 C97 0.929 . S
La120 C122 2.928 . S
La120 O140 2.521 . S
La120 O141 2.628 . S
La120 O142 2.554 . S
La120 O143 2.757 . S
La120 O144 2.470 . S
La120 O149 2.482 . S
La120 O151 2.503 . S
La121 C131 2.928 1_455 S
La121 O143 2.482 . S
La121 O145 2.503 . S
La121 O146 2.521 1_455 S
La121 O147 2.628 . S
La121 O148 2.554 . S
La121 O149 2.757 . S
La121 O150 2.470 . S
C122 La120 2.928 . S
C122 C123 1.503 . S
C122 O140 1.261 . S
C122 O141 1.243 . S
C123 C122 1.503 . S
C123 C124 1.394 . S
C123 C128 1.373 . S
C124 C123 1.394 . S
C124 C125 1.380 . S
C124 H152 0.930 . S
C125 C124 1.380 . S
C125 C126 1.376 . S
C125 H153 0.930 . S
C126 C125 1.376 . S
C126 C127 1.370 . S
C127 C126 1.370 . S
C127 C128 1.396 . S
C127 H154 0.929 . S
C128 C123 1.373 . S
C128 C127 1.396 . S
C128 H155 0.929 . S
C129 O142 1.240 . S
C129 O143 1.289 . S
C130 O144 1.258 . S
C130 O145 1.256 . S
C131 La121 2.928 1_655 S
C131 C132 1.503 . S
C131 O146 1.261 . S
C131 O147 1.243 1_655 S
C132 C131 1.503 . S
C132 C133 1.394 . S
C132 C137 1.373 . S
C133 C132 1.394 . S
C133 C134 1.380 . S
C133 H156 0.930 . S
C134 C133 1.380 . S
C134 C135 1.376 . S
C134 H157 0.930 . S
C135 C134 1.376 . S
C135 C136 1.370 . S
C136 C135 1.370 . S
C136 C137 1.396 . S
C136 H158 0.929 . S
C137 C132 1.373 . S
C137 C136 1.396 . S
C137 H159 0.929 . S
C138 O148 1.240 . S
C138 O149 1.289 . S
C139 O150 1.258 . S
C139 O151 1.256 . S
O140 La120 2.521 . S
O140 C122 1.261 . S
O141 La120 2.628 . S
O141 C122 1.243 . S
O142 La120 2.554 . S
O142 C129 1.240 . S
O143 La120 2.757 . S
O143 La121 2.482 . S
O143 C129 1.289 . S
O144 La120 2.470 . S
O144 C130 1.258 . S
O145 La121 2.503 . S
O145 C130 1.256 . S
O146 La121 2.521 1_655 S
O146 C131 1.261 . S
O147 La121 2.628 . S
O147 C131 1.243 1_455 S
O148 La121 2.554 . S
O148 C138 1.240 . S
O149 La120 2.482 . S
O149 La121 2.757 . S
O149 C138 1.289 . S
O150 La121 2.470 . S
O150 C139 1.258 . S
O151 La120 2.503 . S
O151 C139 1.256 . S
H152 C124 0.930 . S
H153 C125 0.930 . S
H154 C127 0.929 . S
H155 C128 0.929 . S
H156 C133 0.930 . S
H157 C134 0.930 . S
H158 C136 0.929 . S
H159 C137 0.929 . S
H160 C168 0.929 . S
H161 C170 0.930 . S
H162 C172 0.926 1_556 S
H163 C175 0.927 1_556 S
H164 C178 0.930 1_565 S
H165 C180 0.960 1_455 S
H166 C180 0.960 . S
H167 C180 0.960 . S
C168 H160 0.929 . S
C168 C169 1.377 . S
C168 C170 1.384 . S
C169 C168 1.377 . S
C169 C175 1.392 1_565 S
C170 H161 0.930 . S
C170 C168 1.384 . S
C170 C171 1.372 1_565 S
C171 C170 1.372 1_545 S
C171 C172 1.405 . S
C171 C176 1.490 . S
C172 H162 0.926 1_554 S
C172 C171 1.405 . S
C172 C175 1.386 . S
H173 C189 0.930 . S
H174 C190 0.931 . S
C175 H163 0.927 1_554 S
C175 C169 1.392 1_545 S
C175 C172 1.386 . S
C176 C171 1.490 . S
C176 C178 1.395 1_654 S
C176 C179 1.403 1_655 S
H177 C183 0.930 . S
C178 H164 0.930 1_545 S
C178 C176 1.395 1_456 S
C178 C181 1.403 . S
C179 C176 1.403 1_455 S
C179 C180 1.524 1_455 S
C179 C183 1.400 . S
C180 H165 0.960 1_655 S
C180 H166 0.960 . S
C180 H167 0.960 . S
C180 C179 1.524 1_655 S
C181 C178 1.403 . S
C181 C182 1.392 1_556 S
C181 C185 1.495 1_545 S
C182 C181 1.392 1_554 S
C182 C183 1.385 . S
C182 C184 1.479 . S
C183 H177 0.930 . S
C183 C179 1.400 . S
C183 C182 1.385 . S
C184 C182 1.479 . S
C184 C186 1.394 . S
C184 C190 1.373 1_554 S
C185 C181 1.495 1_565 S
C185 H191 0.959 . S
C185 H192 0.961 1_565 S
C185 H193 0.960 . S
C186 C184 1.394 . S
C186 C187 1.394 . S
C186 H194 0.930 1_545 S
C187 C186 1.394 . S
C187 C188 1.383 . S
C187 H195 0.929 . S
C188 C187 1.383 . S
C188 C189 1.377 1_554 S
C189 H173 0.930 . S
C189 C188 1.377 1_556 S
C189 C190 1.379 . S
C190 H174 0.931 . S
C190 C184 1.373 1_556 S
C190 C189 1.379 . S
H191 C185 0.959 . S
H192 C185 0.961 1_545 S
H193 C185 0.960 . S
H194 C186 0.930 1_565 S
H195 C187 0.929 . S
H196 C204 0.929 . S
H197 C206 0.930 1_655 S
H198 C208 0.930 . S
H199 C211 0.929 . S
H200 C214 0.930 1_565 S
H201 C216 0.960 . S
H202 C216 0.960 1_565 S
H203 C216 0.960 1_565 S
C204 H196 0.929 . S
C204 C205 1.377 . S
C204 C206 1.384 . S
C205 C204 1.377 . S
C205 C211 1.390 . S
C206 H197 0.930 1_455 S
C206 C204 1.384 . S
C206 C207 1.372 . S
C207 C206 1.372 . S
C207 C208 1.400 . S
C207 C212 1.490 . S
C208 H198 0.930 . S
C208 C207 1.400 . S
C208 C211 1.386 . S
H209 C225 0.930 . S
H210 C226 0.931 . S
C211 H199 0.929 . S
C211 C205 1.390 . S
C211 C208 1.386 . S
C212 C207 1.490 . S
C212 C214 1.395 1_565 S
C212 C215 1.403 1_565 S
H213 C219 0.930 . S
C214 H200 0.930 1_545 S
C214 C212 1.395 1_545 S
C214 C217 1.403 . S
C215 C212 1.403 1_545 S
C215 C216 1.524 . S
C215 C219 1.400 . S
C216 H201 0.960 . S
C216 H202 0.960 1_545 S
C216 H203 0.960 1_545 S
C216 C215 1.524 . S
C217 C214 1.403 . S
C217 C218 1.392 . S
C217 C221 1.495 1_455 S
C218 C217 1.392 . S
C218 C219 1.385 . S
C218 C220 1.478 . S
C219 H213 0.930 . S
C219 C215 1.400 . S
C219 C218 1.385 . S
C220 C218 1.478 . S
C220 C222 1.381 1_455 S
C220 C226 1.383 . S
C221 C217 1.495 1_655 S
C221 H227 0.959 . S
C221 H228 0.961 . S
C221 H229 0.960 . S
C222 C220 1.381 1_655 S
C222 C223 1.394 . S
C222 H230 0.930 . S
C223 C222 1.394 . S
C223 C224 1.383 . S
C223 H231 0.929 . S
C224 C223 1.383 . S
C224 C225 1.377 1_655 S
C225 H209 0.930 . S
C225 C224 1.377 1_455 S
C225 C226 1.379 . S
C226 H210 0.931 . S
C226 C220 1.383 . S
C226 C225 1.379 . S
H227 C221 0.959 . S
H228 C221 0.961 . S
H229 C221 0.960 . S
H230 C222 0.930 . S
H231 C223 0.929 . S
H232 C240 0.929 . S
H233 C242 0.930 . S
H234 C244 0.927 1_565 S
H235 C247 0.929 . S
H236 C250 0.930 1_565 S
H237 C252 0.960 . S
H238 C252 0.960 . S
H239 C252 0.960 . S
C240 H232 0.929 . S
C240 C241 1.377 1_545 S
C240 C242 1.384 . S
C241 C240 1.377 1_565 S
C241 C247 1.390 1_556 S
C242 H233 0.930 . S
C242 C240 1.384 . S
C242 C243 1.372 . S
C243 C242 1.372 . S
C243 C244 1.409 1_556 S
C243 C248 1.490 . S
C244 H234 0.927 1_545 S
C244 C243 1.409 1_554 S
C244 C247 1.380 1_545 S
H245 C261 0.930 . S
H246 C262 0.931 . S
C247 H235 0.929 . S
C247 C241 1.390 1_554 S
C247 C244 1.380 1_565 S
C248 C243 1.490 . S
C248 C250 1.395 . S
C248 C251 1.403 1_556 S
H249 C255 0.930 . S
C250 H236 0.930 1_545 S
C250 C248 1.395 . S
C250 C253 1.403 . S
C251 C248 1.403 1_554 S
C251 C252 1.524 . S
C251 C255 1.400 . S
C252 H237 0.960 . S
C252 H238 0.960 . S
C252 H239 0.960 . S
C252 C251 1.524 . S
C253 C250 1.403 . S
C253 C254 1.392 . S
C253 C257 1.495 1_545 S
C254 C253 1.392 . S
C254 C255 1.385 1_556 S
C254 C256 1.478 . S
C255 H249 0.930 . S
C255 C251 1.400 . S
C255 C254 1.385 1_554 S
C256 C254 1.478 . S
C256 C258 1.381 . S
C256 C262 1.383 1_556 S
C257 C253 1.495 1_565 S
C257 H263 0.959 . S
C257 H264 0.961 . S
C257 H265 0.960 1_565 S
C258 C256 1.381 . S
C258 C259 1.394 . S
C258 H266 0.930 . S
C259 C258 1.394 . S
C259 C260 1.383 . S
C259 H267 0.929 . S
C260 C259 1.383 . S
C260 C261 1.377 1_556 S
C261 H245 0.930 . S
C261 C260 1.377 1_554 S
C261 C262 1.379 . S
C262 H246 0.931 . S
C262 C256 1.383 1_554 S
C262 C261 1.379 . S
H263 C257 0.959 . S
H264 C257 0.961 . S
H265 C257 0.960 1_545 S
H266 C258 0.930 . S
H267 C259 0.929 . S
H268 C276 0.929 . S
H269 C278 0.930 . S
H270 C280 0.930 . S
H271 C283 0.929 . S
H272 C286 0.930 . S
H273 C288 0.960 . S
H274 C288 0.960 . S
H275 C288 0.960 . S
C276 H268 0.929 . S
C276 C277 1.377 . S
C276 C278 1.384 . S
C277 C276 1.377 . S
C277 C283 1.390 1_655 S
C278 H269 0.930 . S
C278 C276 1.384 . S
C278 C279 1.372 1_655 S
C279 C278 1.372 1_455 S
C279 C280 1.400 . S
C279 C284 1.490 . S
C280 H270 0.930 . S
C280 C279 1.400 . S
C280 C283 1.386 . S
H281 C297 0.930 . S
H282 C298 0.931 . S
C283 H271 0.929 . S
C283 C277 1.390 1_455 S
C283 C280 1.386 . S
C284 C279 1.490 . S
C284 C286 1.395 1_455 S
C284 C287 1.403 . S
H285 C291 0.930 . S
C286 H272 0.930 . S
C286 C284 1.395 1_655 S
C286 C289 1.403 . S
C287 C284 1.403 . S
C287 C288 1.524 . S
C287 C291 1.400 . S
C288 H273 0.960 . S
C288 H274 0.960 . S
C288 H275 0.960 . S
C288 C287 1.524 . S
C289 C286 1.403 . S
C289 C290 1.392 1_655 S
C289 C293 1.495 . S
C290 C289 1.392 1_455 S
C290 C291 1.385 . S
C290 C292 1.478 . S
C291 H285 0.930 . S
C291 C287 1.400 . S
C291 C290 1.385 . S
C292 C290 1.478 . S
C292 C294 1.381 . S
C292 C298 1.383 . S
C293 C289 1.495 . S
C293 H299 0.959 . S
C293 H300 0.961 . S
C293 H301 0.960 . S
C294 C292 1.381 . S
C294 C295 1.394 . S
C294 H302 0.930 . S
C295 C294 1.394 . S
C295 C296 1.383 . S
C295 H303 0.929 . S
C296 C295 1.383 . S
C296 C297 1.377 . S
C297 H281 0.930 . S
C297 C296 1.377 . S
C297 C298 1.379 . S
C298 H282 0.931 . S
C298 C292 1.383 . S
C298 C297 1.379 . S
H299 C293 0.959 . S
H300 C293 0.961 . S
H301 C293 0.960 . S
H302 C294 0.930 . S
H303 C295 0.929 . S
H304 C312 0.929 . S
H305 C314 0.930 . S
H306 C316 0.930 . S
H307 C319 0.929 . S
H308 C322 0.930 . S
H309 C324 0.960 . S
H310 C324 0.960 . S
H311 C324 0.960 . S
C312 H304 0.929 . S
C312 C313 1.377 . S
C312 C314 1.384 . S
C313 C312 1.377 . S
C313 C319 1.390 . S
C314 H305 0.930 . S
C314 C312 1.384 . S
C314 C315 1.372 . S
C315 C314 1.372 . S
C315 C316 1.400 . S
C315 C320 1.490 . S
C316 H306 0.930 . S
C316 C315 1.400 . S
C316 C319 1.386 . S
H317 C333 0.930 . S
H318 C334 0.931 . S
C319 H307 0.929 . S
C319 C313 1.390 . S
C319 C316 1.386 . S
C320 C315 1.490 . S
C320 C322 1.395 . S
C320 C323 1.403 . S
H321 C327 0.930 . S
C322 H308 0.930 . S
C322 C320 1.395 . S
C322 C325 1.403 . S
C323 C320 1.403 . S
C323 C324 1.524 . S
C323 C327 1.400 . S
C324 H309 0.960 . S
C324 H310 0.960 . S
C324 H311 0.960 . S
C324 C323 1.524 . S
C325 C322 1.403 . S
C325 C326 1.392 . S
C325 C329 1.495 . S
C326 C325 1.392 . S
C326 C327 1.385 . S
C326 C328 1.478 . S
C327 H321 0.930 . S
C327 C323 1.400 . S
C327 C326 1.385 . S
C328 C326 1.478 . S
C328 C330 1.381 . S
C328 C334 1.383 . S
C329 C325 1.495 . S
C329 H335 0.959 . S
C329 H336 0.961 . S
C329 H337 0.960 . S
C330 C328 1.381 . S
C330 C331 1.394 . S
C330 H338 0.930 . S
C331 C330 1.394 . S
C331 C332 1.383 . S
C331 H339 0.929 . S
C332 C331 1.383 . S
C332 C333 1.377 . S
C333 H317 0.930 . S
C333 C332 1.377 . S
C333 C334 1.379 . S
C334 H318 0.931 . S
C334 C328 1.383 . S
C334 C333 1.379 . S
H335 C329 0.959 . S
H336 C329 0.961 . S
H337 C329 0.960 . S
H338 C330 0.930 . S
H339 C331 0.929 . S
H340 C348 0.929 . S
H341 C350 0.930 . S
H342 C352 0.930 . S
H343 C355 0.929 . S
H344 C358 0.930 . S
H345 C360 0.960 . S
H346 C360 0.960 . S
H347 C360 0.960 . S
C348 H340 0.929 . S
C348 C349 1.377 . S
C348 C350 1.384 . S
C349 C348 1.377 . S
C349 C355 1.390 . S
C350 H341 0.930 . S
C350 C348 1.384 . S
C350 C351 1.372 . S
C351 C350 1.372 . S
C351 C352 1.400 . S
C351 C356 1.490 . S
C352 H342 0.930 . S
C352 C351 1.400 . S
C352 C355 1.386 . S
H353 C369 0.930 . S
H354 C370 0.931 . S
C355 H343 0.929 . S
C355 C349 1.390 . S
C355 C352 1.386 . S
C356 C351 1.490 . S
C356 C358 1.395 . S
C356 C359 1.403 . S
H357 C363 0.930 . S
C358 H344 0.930 . S
C358 C356 1.395 . S
C358 C361 1.403 . S
C359 C356 1.403 . S
C359 C360 1.524 . S
C359 C363 1.400 . S
C360 H345 0.960 . S
C360 H346 0.960 . S
C360 H347 0.960 . S
C360 C359 1.524 . S
C361 C358 1.403 . S
C361 C362 1.392 . S
C361 C365 1.495 . S
C362 C361 1.392 . S
C362 C363 1.385 . S
C362 C364 1.478 . S
C363 H357 0.930 . S
C363 C359 1.400 . S
C363 C362 1.385 . S
C364 C362 1.478 . S
C364 C366 1.381 . S
C364 C370 1.383 . S
C365 C361 1.495 . S
C365 H371 0.959 . S
C365 H372 0.961 . S
C365 H373 0.960 . S
C366 C364 1.381 . S
C366 C367 1.394 . S
C366 H374 0.930 . S
C367 C366 1.394 . S
C367 C368 1.383 . S
C367 H375 0.929 . S
C368 C367 1.383 . S
C368 C369 1.377 . S
C369 H353 0.930 . S
C369 C368 1.377 . S
C369 C370 1.379 . S
C370 H354 0.931 . S
C370 C364 1.383 . S
C370 C369 1.379 . S
H371 C365 0.959 . S
H372 C365 0.961 . S
H373 C365 0.960 . S
H374 C366 0.930 . S
H375 C367 0.929 . S
H376 C384 0.929 1_455 S
H377 C386 0.930 . S
H378 C388 0.930 . S
H379 C391 0.929 . S
H380 C394 0.930 . S
H381 C396 0.960 . S
H382 C396 0.960 . S
H383 C396 0.960 . S
C384 H376 0.929 1_655 S
C384 C385 1.377 . S
C384 C386 1.384 . S
C385 C384 1.377 . S
C385 C391 1.390 . S
C386 H377 0.930 . S
C386 C384 1.384 . S
C386 C387 1.372 . S
C387 C386 1.372 . S
C387 C388 1.400 . S
C387 C392 1.490 . S
C388 H378 0.930 . S
C388 C387 1.400 . S
C388 C391 1.386 . S
H389 C405 0.930 . S
H390 C406 0.931 . S
C391 H379 0.929 . S
C391 C385 1.390 . S
C391 C388 1.386 . S
C392 C387 1.490 . S
C392 C394 1.395 . S
C392 C395 1.403 . S
H393 C399 0.930 . S
C394 H380 0.930 . S
C394 C392 1.395 . S
C394 C397 1.403 . S
C395 C392 1.403 . S
C395 C396 1.524 . S
C395 C399 1.400 . S
C396 H381 0.960 . S
C396 H382 0.960 . S
C396 H383 0.960 . S
C396 C395 1.524 . S
C397 C394 1.403 . S
C397 C398 1.392 . S
C397 C401 1.495 . S
C398 C397 1.392 . S
C398 C399 1.385 . S
C398 C400 1.478 . S
C399 H393 0.930 . S
C399 C395 1.400 . S
C399 C398 1.385 . S
C400 C398 1.478 . S
C400 C402 1.381 . S
C400 C406 1.383 . S
C401 C397 1.495 . S
C401 H407 0.959 . S
C401 H408 0.961 . S
C401 H409 0.960 . S
C402 C400 1.381 . S
C402 C403 1.394 . S
C402 H410 0.930 . S
C403 C402 1.394 . S
C403 C404 1.383 . S
C403 H411 0.929 . S
C404 C403 1.383 . S
C404 C405 1.377 . S
C405 H389 0.930 . S
C405 C404 1.377 . S
C405 C406 1.379 . S
C406 H390 0.931 . S
C406 C400 1.383 . S
C406 C405 1.379 . S
H407 C401 0.959 . S
H408 C401 0.961 . S
H409 C401 0.960 . S
H410 C402 0.930 . S
H411 C403 0.929 . S
H412 C420 0.929 . S
H413 C422 0.930 . S
H414 C424 0.930 . S
H415 C427 0.929 . S
H416 C430 0.930 . S
H417 C432 0.960 . S
H418 C432 0.960 . S
H419 C432 0.960 . S
C420 H412 0.929 . S
C420 C421 1.377 . S
C420 C422 1.384 . S
C421 C420 1.377 . S
C421 C427 1.390 . S
C422 H413 0.930 . S
C422 C420 1.384 . S
C422 C423 1.372 . S
C423 C422 1.372 . S
C423 C424 1.400 . S
C423 C428 1.490 . S
C424 H414 0.930 . S
C424 C423 1.400 . S
C424 C427 1.386 . S
H425 C441 0.930 1_545 S
H426 C442 0.931 . S
C427 H415 0.929 . S
C427 C421 1.390 . S
C427 C424 1.386 . S
C428 C423 1.490 . S
C428 C430 1.395 . S
C428 C431 1.403 . S
H429 C435 0.930 . S
C430 H416 0.930 . S
C430 C428 1.395 . S
C430 C433 1.403 . S
C431 C428 1.403 . S
C431 C432 1.524 . S
C431 C435 1.400 . S
C432 H417 0.960 . S
C432 H418 0.960 . S
C432 H419 0.960 . S
C432 C431 1.524 . S
C433 C430 1.403 . S
C433 C434 1.392 . S
C433 C437 1.495 . S
C434 C433 1.392 . S
C434 C435 1.385 . S
C434 C436 1.478 . S
C435 H429 0.930 . S
C435 C431 1.400 . S
C435 C434 1.385 . S
C436 C434 1.478 . S
C436 C438 1.381 . S
C436 C442 1.383 . S
C437 C433 1.495 . S
C437 H443 0.959 . S
C437 H444 0.961 . S
C437 H445 0.960 . S
C438 C436 1.381 . S
C438 C439 1.394 . S
C438 H446 0.930 . S
C439 C438 1.394 . S
C439 C440 1.383 . S
C439 H447 0.929 . S
C440 C439 1.383 . S
C440 C441 1.377 . S
C441 H425 0.930 1_565 S
C441 C440 1.377 . S
C441 C442 1.379 . S
C442 H426 0.931 . S
C442 C436 1.383 . S
C442 C441 1.379 . S
H443 C437 0.959 . S
H444 C437 0.961 . S
H445 C437 0.960 . S
H446 C438 0.930 . S
H447 C439 0.929 . S
H448 C456 0.929 . S
H449 C458 0.930 . S
H450 C460 0.930 . S
H451 C463 0.929 . S
H452 C466 0.930 . S
H453 C468 0.960 . S
H454 C468 0.960 . S
H455 C468 0.960 . S
C456 H448 0.929 . S
C456 C457 1.377 . S
C456 C458 1.384 . S
C457 C456 1.377 . S
C457 C463 1.390 . S
C458 H449 0.930 . S
C458 C456 1.384 . S
C458 C459 1.372 . S
C459 C458 1.372 . S
C459 C460 1.400 . S
C459 C464 1.490 . S
C460 H450 0.930 . S
C460 C459 1.400 . S
C460 C463 1.386 . S
H461 C477 0.930 . S
H462 C478 0.931 . S
C463 H451 0.929 . S
C463 C457 1.390 . S
C463 C460 1.386 . S
C464 C459 1.490 . S
C464 C466 1.395 . S
C464 C467 1.403 . S
H465 C471 0.930 . S
C466 H452 0.930 . S
C466 C464 1.395 . S
C466 C469 1.403 . S
C467 C464 1.403 . S
C467 C468 1.524 . S
C467 C471 1.400 . S
C468 H453 0.960 . S
C468 H454 0.960 . S
C468 H455 0.960 . S
C468 C467 1.524 . S
C469 C466 1.403 . S
C469 C470 1.392 . S
C469 C473 1.495 1_655 S
C470 C469 1.392 . S
C470 C471 1.385 . S
C470 C472 1.478 . S
C471 H465 0.930 . S
C471 C467 1.400 . S
C471 C470 1.385 . S
C472 C470 1.478 . S
C472 C474 1.381 . S
C472 C478 1.383 . S
C473 C469 1.495 1_455 S
C473 H479 0.959 . S
C473 H480 0.961 . S
C473 H481 0.960 . S
C474 C472 1.381 . S
C474 C475 1.394 . S
C474 H482 0.930 . S
C475 C474 1.394 . S
C475 C476 1.383 . S
C475 H483 0.929 . S
C476 C475 1.383 . S
C476 C477 1.377 . S
C477 H461 0.930 . S
C477 C476 1.377 . S
C477 C478 1.379 . S
C478 H462 0.931 . S
C478 C472 1.383 . S
C478 C477 1.379 . S
H479 C473 0.959 . S
H480 C473 0.961 . S
H481 C473 0.960 . S
H482 C474 0.930 . S
H483 C475 0.929 . S
H484 C492 0.929 . S
H485 C494 0.930 1_545 S
H486 C496 0.930 . S
H487 C499 0.929 . S
H488 C502 0.930 . S
H489 C504 0.960 . S
H490 C504 0.960 . S
H491 C504 0.960 . S
C492 H484 0.929 . S
C492 C493 1.377 1_545 S
C492 C494 1.384 1_545 S
C493 C492 1.377 1_565 S
C493 C499 1.390 . S
C494 H485 0.930 1_565 S
C494 C492 1.384 1_565 S
C494 C495 1.372 . S
C495 C494 1.372 . S
C495 C496 1.400 . S
C495 C500 1.490 . S
C496 H486 0.930 . S
C496 C495 1.400 . S
C496 C499 1.386 . S
H497 C513 0.930 . S
H498 C514 0.931 . S
C499 H487 0.929 . S
C499 C493 1.390 . S
C499 C496 1.386 . S
C500 C495 1.490 . S
C500 C502 1.395 . S
C500 C503 1.403 . S
H501 C507 0.930 . S
C502 H488 0.930 . S
C502 C500 1.395 . S
C502 C505 1.403 . S
C503 C500 1.403 . S
C503 C504 1.524 . S
C503 C507 1.400 . S
C504 H489 0.960 . S
C504 H490 0.960 . S
C504 H491 0.960 . S
C504 C503 1.524 . S
C505 C502 1.403 . S
C505 C506 1.392 . S
C505 C509 1.495 . S
C506 C505 1.392 . S
C506 C507 1.385 . S
C506 C508 1.478 . S
C507 H501 0.930 . S
C507 C503 1.400 . S
C507 C506 1.385 . S
C508 C506 1.478 . S
C508 C510 1.381 . S
C508 C514 1.383 . S
C509 C505 1.495 . S
C509 H515 0.959 . S
C509 H516 0.961 . S
C509 H517 0.960 . S
C510 C508 1.381 . S
C510 C511 1.394 . S
C510 H518 0.930 . S
C511 C510 1.394 . S
C511 C512 1.383 . S
C511 H519 0.929 . S
C512 C511 1.383 . S
C512 C513 1.377 . S
C513 H497 0.930 . S
C513 C512 1.377 . S
C513 C514 1.379 . S
C514 H498 0.931 . S
C514 C508 1.383 . S
C514 C513 1.379 . S
H515 C509 0.959 . S
H516 C509 0.961 . S
H517 C509 0.960 . S
H518 C510 0.930 . S
H519 C511 0.929 . S
H520 C528 0.929 . S
H521 C530 0.930 . S
H522 C532 0.930 . S
H523 C535 0.929 . S
H524 C538 0.930 . S
H525 C540 0.960 . S
H526 C540 0.960 . S
H527 C540 0.960 . S
C528 H520 0.929 . S
C528 C529 1.377 . S
C528 C530 1.384 . S
C529 C528 1.377 . S
C529 C535 1.390 . S
C530 H521 0.930 . S
C530 C528 1.384 . S
C530 C531 1.372 . S
C531 C530 1.372 . S
C531 C532 1.400 . S
C531 C536 1.490 . S
C532 H522 0.930 . S
C532 C531 1.400 . S
C532 C535 1.386 . S
H533 C549 0.930 . S
H534 C550 0.931 . S
C535 H523 0.929 . S
C535 C529 1.390 . S
C535 C532 1.386 . S
C536 C531 1.490 . S
C536 C538 1.395 . S
C536 C539 1.403 . S
H537 C543 0.930 . S
C538 H524 0.930 . S
C538 C536 1.395 . S
C538 C541 1.403 . S
C539 C536 1.403 . S
C539 C540 1.524 . S
C539 C543 1.400 . S
C540 H525 0.960 . S
C540 H526 0.960 . S
C540 H527 0.960 . S
C540 C539 1.524 . S
C541 C538 1.403 . S
C541 C542 1.392 . S
C541 C545 1.495 . S
C542 C541 1.392 . S
C542 C543 1.385 . S
C542 C544 1.478 . S
C543 H537 0.930 . S
C543 C539 1.400 . S
C543 C542 1.385 . S
C544 C542 1.478 . S
C544 C546 1.381 . S
C544 C550 1.383 . S
C545 C541 1.495 . S
C545 H551 0.959 . S
C545 H552 0.961 . S
C545 H553 0.960 . S
C546 C544 1.381 . S
C546 C547 1.394 . S
C546 H554 0.930 . S
C547 C546 1.394 . S
C547 C548 1.383 . S
C547 H555 0.929 . S
C548 C547 1.383 . S
C548 C549 1.377 . S
C549 H533 0.930 . S
C549 C548 1.377 . S
C549 C550 1.379 . S
C550 H534 0.931 . S
C550 C544 1.383 . S
C550 C549 1.379 . S
H551 C545 0.959 . S
H552 C545 0.961 . S
H553 C545 0.960 . S
H554 C546 0.930 . S
H555 C547 0.929 . S
H556 C564 0.929 . S
H557 C566 0.930 . S
H558 C568 0.930 . S
H559 C571 0.929 . S
H560 C574 0.930 . S
H561 C576 0.960 . S
H562 C576 0.960 . S
H563 C576 0.960 . S
C564 H556 0.929 . S
C564 C565 1.377 . S
C564 C566 1.384 . S
C565 C564 1.377 . S
C565 C571 1.390 . S
C566 H557 0.930 . S
C566 C564 1.384 . S
C566 C567 1.372 . S
C567 C566 1.372 . S
C567 C568 1.400 . S
C567 C572 1.490 . S
C568 H558 0.930 . S
C568 C567 1.400 . S
C568 C571 1.386 . S
H569 C585 0.930 . S
H570 C586 0.931 . S
C571 H559 0.929 . S
C571 C565 1.390 . S
C571 C568 1.386 . S
C572 C567 1.490 . S
C572 C574 1.395 . S
C572 C575 1.403 . S
H573 C579 0.930 . S
C574 H560 0.930 . S
C574 C572 1.395 . S
C574 C577 1.403 . S
C575 C572 1.403 . S
C575 C576 1.524 . S
C575 C579 1.400 . S
C576 H561 0.960 . S
C576 H562 0.960 . S
C576 H563 0.960 . S
C576 C575 1.524 . S
C577 C574 1.403 . S
C577 C578 1.392 . S
C577 C581 1.495 . S
C578 C577 1.392 . S
C578 C579 1.385 . S
C578 C580 1.478 . S
C579 H573 0.930 . S
C579 C575 1.400 . S
C579 C578 1.385 . S
C580 C578 1.478 . S
C580 C582 1.381 . S
C580 C586 1.383 . S
C581 C577 1.495 . S
C581 H587 0.959 . S
C581 H588 0.961 . S
C581 H589 0.960 . S
C582 C580 1.381 . S
C582 C583 1.394 . S
C582 H590 0.930 . S
C583 C582 1.394 . S
C583 C584 1.383 . S
C583 H591 0.929 . S
C584 C583 1.383 . S
C584 C585 1.377 . S
C585 H569 0.930 . S
C585 C584 1.377 . S
C585 C586 1.379 . S
C586 H570 0.931 . S
C586 C580 1.383 . S
C586 C585 1.379 . S
H587 C581 0.959 . S
H588 C581 0.961 . S
H589 C581 0.960 . S
H590 C582 0.930 . S
H591 C583 0.929 . S
C169 C98 1.000 1_565 S
C188 C18 0.956 . S
C205 C138 0.974 . S
C224 C58 1.034 1_655 S
C241 C89 0.770 1_556 S
C260 C9 0.795 1_556 S
C277 C49 0.770 . S
C296 C129 0.773 . S
C313 C55 1.102 . S
C332 C6 1.110 . S
C349 C46 1.103 . S
C368 C95 1.142 . S
C385 C135 1.100 . S
C404 C86 1.091 . S
C421 C126 1.104 . S
C440 C15 1.143 . S
C457 C99 4.508 . S
C476 C130 4.630 1_655 S
C493 C10 4.634 1_565 S
C512 C139 4.496 . S
C529 C50 4.634 . S
C548 C19 4.493 . S
C565 C90 4.634 . S
C584 C59 4.499 . S
