# Generated by pormake.
# Topology rho, (4)-cn, num edge types: 1
# Building blocks:
#     Node 0, Type 0, BuildingBlock: QUQFOY_clean_sbu_3, # of connection points: 4
#     Node 1, Type 0, BuildingBlock: QUQFOY_clean_sbu_3, # of connection points: 4
#     Node 2, Type 0, BuildingBlock: QUQFOY_clean_sbu_3, # of connection points: 4
#     Node 3, Type 0, BuildingBlock: QUQFOY_clean_sbu_3, # of connection points: 4
#     Node 4, Type 0, BuildingBlock: QUQFOY_clean_sbu_3, # of connection points: 4
#     Node 5, Type 0, BuildingBlock: QUQFOY_clean_sbu_3, # of connection points: 4
#     Node 6, Type 0, BuildingBlock: QUQFOY_clean_sbu_3, # of connection points: 4
#     Node 7, Type 0, BuildingBlock: QUQFOY_clean_sbu_3, # of connection points: 4
#     Node 8, Type 0, BuildingBlock: QUQFOY_clean_sbu_3, # of connection points: 4
#     Node 9, Type 0, BuildingBlock: QUQFOY_clean_sbu_3, # of connection points: 4
#     Node 10, Type 0, BuildingBlock: QUQFOY_clean_sbu_3, # of connection points: 4
#     Node 11, Type 0, BuildingBlock: QUQFOY_clean_sbu_3, # of connection points: 4
#     Node 12, Type 0, BuildingBlock: QUQFOY_clean_sbu_3, # of connection points: 4
#     Node 13, Type 0, BuildingBlock: QUQFOY_clean_sbu_3, # of connection points: 4
#     Node 14, Type 0, BuildingBlock: QUQFOY_clean_sbu_3, # of connection points: 4
#     Node 15, Type 0, BuildingBlock: QUQFOY_clean_sbu_3, # of connection points: 4
#     Node 16, Type 0, BuildingBlock: QUQFOY_clean_sbu_3, # of connection points: 4
#     Node 17, Type 0, BuildingBlock: QUQFOY_clean_sbu_3, # of connection points: 4
#     Node 18, Type 0, BuildingBlock: QUQFOY_clean_sbu_3, # of connection points: 4
#     Node 19, Type 0, BuildingBlock: QUQFOY_clean_sbu_3, # of connection points: 4
#     Node 20, Type 0, BuildingBlock: QUQFOY_clean_sbu_3, # of connection points: 4
#     Node 21, Type 0, BuildingBlock: QUQFOY_clean_sbu_3, # of connection points: 4
#     Node 22, Type 0, BuildingBlock: QUQFOY_clean_sbu_3, # of connection points: 4
#     Node 23, Type 0, BuildingBlock: QUQFOY_clean_sbu_3, # of connection points: 4
#     Node 24, Type 0, BuildingBlock: QUQFOY_clean_sbu_3, # of connection points: 4
#     Node 25, Type 0, BuildingBlock: QUQFOY_clean_sbu_3, # of connection points: 4
#     Node 26, Type 0, BuildingBlock: QUQFOY_clean_sbu_3, # of connection points: 4
#     Node 27, Type 0, BuildingBlock: QUQFOY_clean_sbu_3, # of connection points: 4
#     Node 28, Type 0, BuildingBlock: QUQFOY_clean_sbu_3, # of connection points: 4
#     Node 29, Type 0, BuildingBlock: QUQFOY_clean_sbu_3, # of connection points: 4
#     Node 30, Type 0, BuildingBlock: QUQFOY_clean_sbu_3, # of connection points: 4
#     Node 31, Type 0, BuildingBlock: QUQFOY_clean_sbu_3, # of connection points: 4
#     Node 32, Type 0, BuildingBlock: QUQFOY_clean_sbu_3, # of connection points: 4
#     Node 33, Type 0, BuildingBlock: QUQFOY_clean_sbu_3, # of connection points: 4
#     Node 34, Type 0, BuildingBlock: QUQFOY_clean_sbu_3, # of connection points: 4
#     Node 35, Type 0, BuildingBlock: QUQFOY_clean_sbu_3, # of connection points: 4
#     Node 36, Type 0, BuildingBlock: QUQFOY_clean_sbu_3, # of connection points: 4
#     Node 37, Type 0, BuildingBlock: QUQFOY_clean_sbu_3, # of connection points: 4
#     Node 38, Type 0, BuildingBlock: QUQFOY_clean_sbu_3, # of connection points: 4
#     Node 39, Type 0, BuildingBlock: QUQFOY_clean_sbu_3, # of connection points: 4
#     Node 40, Type 0, BuildingBlock: QUQFOY_clean_sbu_3, # of connection points: 4
#     Node 41, Type 0, BuildingBlock: QUQFOY_clean_sbu_3, # of connection points: 4
#     Node 42, Type 0, BuildingBlock: QUQFOY_clean_sbu_3, # of connection points: 4
#     Node 43, Type 0, BuildingBlock: QUQFOY_clean_sbu_3, # of connection points: 4
#     Node 44, Type 0, BuildingBlock: QUQFOY_clean_sbu_3, # of connection points: 4
#     Node 45, Type 0, BuildingBlock: QUQFOY_clean_sbu_3, # of connection points: 4
#     Node 46, Type 0, BuildingBlock: QUQFOY_clean_sbu_3, # of connection points: 4
#     Node 47, Type 0, BuildingBlock: QUQFOY_clean_sbu_3, # of connection points: 4
#     Edge 48, Type (0, 0), BuildingBlock: AJUNOK_clean_linker_0, # of connection points: 2
#     Edge 49, Type (0, 0), BuildingBlock: AJUNOK_clean_linker_0, # of connection points: 2
#     Edge 50, Type (0, 0), BuildingBlock: AJUNOK_clean_linker_0, # of connection points: 2
#     Edge 51, Type (0, 0), BuildingBlock: AJUNOK_clean_linker_0, # of connection points: 2
#     Edge 52, Type (0, 0), BuildingBlock: AJUNOK_clean_linker_0, # of connection points: 2
#     Edge 53, Type (0, 0), BuildingBlock: AJUNOK_clean_linker_0, # of connection points: 2
#     Edge 54, Type (0, 0), BuildingBlock: AJUNOK_clean_linker_0, # of connection points: 2
#     Edge 55, Type (0, 0), BuildingBlock: AJUNOK_clean_linker_0, # of connection points: 2
#     Edge 56, Type (0, 0), BuildingBlock: AJUNOK_clean_linker_0, # of connection points: 2
#     Edge 57, Type (0, 0), BuildingBlock: AJUNOK_clean_linker_0, # of connection points: 2
#     Edge 58, Type (0, 0), BuildingBlock: AJUNOK_clean_linker_0, # of connection points: 2
#     Edge 59, Type (0, 0), BuildingBlock: AJUNOK_clean_linker_0, # of connection points: 2
#     Edge 60, Type (0, 0), BuildingBlock: AJUNOK_clean_linker_0, # of connection points: 2
#     Edge 61, Type (0, 0), BuildingBlock: AJUNOK_clean_linker_0, # of connection points: 2
#     Edge 62, Type (0, 0), BuildingBlock: AJUNOK_clean_linker_0, # of connection points: 2
#     Edge 63, Type (0, 0), BuildingBlock: AJUNOK_clean_linker_0, # of connection points: 2
#     Edge 64, Type (0, 0), BuildingBlock: AJUNOK_clean_linker_0, # of connection points: 2
#     Edge 65, Type (0, 0), BuildingBlock: AJUNOK_clean_linker_0, # of connection points: 2
#     Edge 66, Type (0, 0), BuildingBlock: AJUNOK_clean_linker_0, # of connection points: 2
#     Edge 67, Type (0, 0), BuildingBlock: AJUNOK_clean_linker_0, # of connection points: 2
#     Edge 68, Type (0, 0), BuildingBlock: AJUNOK_clean_linker_0, # of connection points: 2
#     Edge 69, Type (0, 0), BuildingBlock: AJUNOK_clean_linker_0, # of connection points: 2
#     Edge 70, Type (0, 0), BuildingBlock: AJUNOK_clean_linker_0, # of connection points: 2
#     Edge 71, Type (0, 0), BuildingBlock: AJUNOK_clean_linker_0, # of connection points: 2
#     Edge 72, Type (0, 0), BuildingBlock: AJUNOK_clean_linker_0, # of connection points: 2
#     Edge 73, Type (0, 0), BuildingBlock: AJUNOK_clean_linker_0, # of connection points: 2
#     Edge 74, Type (0, 0), BuildingBlock: AJUNOK_clean_linker_0, # of connection points: 2
#     Edge 75, Type (0, 0), BuildingBlock: AJUNOK_clean_linker_0, # of connection points: 2
#     Edge 76, Type (0, 0), BuildingBlock: AJUNOK_clean_linker_0, # of connection points: 2
#     Edge 77, Type (0, 0), BuildingBlock: AJUNOK_clean_linker_0, # of connection points: 2
#     Edge 78, Type (0, 0), BuildingBlock: AJUNOK_clean_linker_0, # of connection points: 2
#     Edge 79, Type (0, 0), BuildingBlock: AJUNOK_clean_linker_0, # of connection points: 2
#     Edge 80, Type (0, 0), BuildingBlock: AJUNOK_clean_linker_0, # of connection points: 2
#     Edge 81, Type (0, 0), BuildingBlock: AJUNOK_clean_linker_0, # of connection points: 2
#     Edge 82, Type (0, 0), BuildingBlock: AJUNOK_clean_linker_0, # of connection points: 2
#     Edge 83, Type (0, 0), BuildingBlock: AJUNOK_clean_linker_0, # of connection points: 2
#     Edge 84, Type (0, 0), BuildingBlock: AJUNOK_clean_linker_0, # of connection points: 2
#     Edge 85, Type (0, 0), BuildingBlock: AJUNOK_clean_linker_0, # of connection points: 2
#     Edge 86, Type (0, 0), BuildingBlock: AJUNOK_clean_linker_0, # of connection points: 2
#     Edge 87, Type (0, 0), BuildingBlock: AJUNOK_clean_linker_0, # of connection points: 2
#     Edge 88, Type (0, 0), BuildingBlock: AJUNOK_clean_linker_0, # of connection points: 2
#     Edge 89, Type (0, 0), BuildingBlock: AJUNOK_clean_linker_0, # of connection points: 2
#     Edge 90, Type (0, 0), BuildingBlock: AJUNOK_clean_linker_0, # of connection points: 2
#     Edge 91, Type (0, 0), BuildingBlock: AJUNOK_clean_linker_0, # of connection points: 2
#     Edge 92, Type (0, 0), BuildingBlock: AJUNOK_clean_linker_0, # of connection points: 2
#     Edge 93, Type (0, 0), BuildingBlock: AJUNOK_clean_linker_0, # of connection points: 2
#     Edge 94, Type (0, 0), BuildingBlock: AJUNOK_clean_linker_0, # of connection points: 2
#     Edge 95, Type (0, 0), BuildingBlock: AJUNOK_clean_linker_0, # of connection points: 2
#     Edge 96, Type (0, 0), BuildingBlock: AJUNOK_clean_linker_0, # of connection points: 2
#     Edge 97, Type (0, 0), BuildingBlock: AJUNOK_clean_linker_0, # of connection points: 2
#     Edge 98, Type (0, 0), BuildingBlock: AJUNOK_clean_linker_0, # of connection points: 2
#     Edge 99, Type (0, 0), BuildingBlock: AJUNOK_clean_linker_0, # of connection points: 2
#     Edge 100, Type (0, 0), BuildingBlock: AJUNOK_clean_linker_0, # of connection points: 2
#     Edge 101, Type (0, 0), BuildingBlock: AJUNOK_clean_linker_0, # of connection points: 2
#     Edge 102, Type (0, 0), BuildingBlock: AJUNOK_clean_linker_0, # of connection points: 2
#     Edge 103, Type (0, 0), BuildingBlock: AJUNOK_clean_linker_0, # of connection points: 2
#     Edge 104, Type (0, 0), BuildingBlock: AJUNOK_clean_linker_0, # of connection points: 2
#     Edge 105, Type (0, 0), BuildingBlock: AJUNOK_clean_linker_0, # of connection points: 2
#     Edge 106, Type (0, 0), BuildingBlock: AJUNOK_clean_linker_0, # of connection points: 2
#     Edge 107, Type (0, 0), BuildingBlock: AJUNOK_clean_linker_0, # of connection points: 2
#     Edge 108, Type (0, 0), BuildingBlock: AJUNOK_clean_linker_0, # of connection points: 2
#     Edge 109, Type (0, 0), BuildingBlock: AJUNOK_clean_linker_0, # of connection points: 2
#     Edge 110, Type (0, 0), BuildingBlock: AJUNOK_clean_linker_0, # of connection points: 2
#     Edge 111, Type (0, 0), BuildingBlock: AJUNOK_clean_linker_0, # of connection points: 2
#     Edge 112, Type (0, 0), BuildingBlock: AJUNOK_clean_linker_0, # of connection points: 2
#     Edge 113, Type (0, 0), BuildingBlock: AJUNOK_clean_linker_0, # of connection points: 2
#     Edge 114, Type (0, 0), BuildingBlock: AJUNOK_clean_linker_0, # of connection points: 2
#     Edge 115, Type (0, 0), BuildingBlock: AJUNOK_clean_linker_0, # of connection points: 2
#     Edge 116, Type (0, 0), BuildingBlock: AJUNOK_clean_linker_0, # of connection points: 2
#     Edge 117, Type (0, 0), BuildingBlock: AJUNOK_clean_linker_0, # of connection points: 2
#     Edge 118, Type (0, 0), BuildingBlock: AJUNOK_clean_linker_0, # of connection points: 2
#     Edge 119, Type (0, 0), BuildingBlock: AJUNOK_clean_linker_0, # of connection points: 2
#     Edge 120, Type (0, 0), BuildingBlock: AJUNOK_clean_linker_0, # of connection points: 2
#     Edge 121, Type (0, 0), BuildingBlock: AJUNOK_clean_linker_0, # of connection points: 2
#     Edge 122, Type (0, 0), BuildingBlock: AJUNOK_clean_linker_0, # of connection points: 2
#     Edge 123, Type (0, 0), BuildingBlock: AJUNOK_clean_linker_0, # of connection points: 2
#     Edge 124, Type (0, 0), BuildingBlock: AJUNOK_clean_linker_0, # of connection points: 2
#     Edge 125, Type (0, 0), BuildingBlock: AJUNOK_clean_linker_0, # of connection points: 2
#     Edge 126, Type (0, 0), BuildingBlock: AJUNOK_clean_linker_0, # of connection points: 2
#     Edge 127, Type (0, 0), BuildingBlock: AJUNOK_clean_linker_0, # of connection points: 2
#     Edge 128, Type (0, 0), BuildingBlock: AJUNOK_clean_linker_0, # of connection points: 2
#     Edge 129, Type (0, 0), BuildingBlock: AJUNOK_clean_linker_0, # of connection points: 2
#     Edge 130, Type (0, 0), BuildingBlock: AJUNOK_clean_linker_0, # of connection points: 2
#     Edge 131, Type (0, 0), BuildingBlock: AJUNOK_clean_linker_0, # of connection points: 2
#     Edge 132, Type (0, 0), BuildingBlock: AJUNOK_clean_linker_0, # of connection points: 2
#     Edge 133, Type (0, 0), BuildingBlock: AJUNOK_clean_linker_0, # of connection points: 2
#     Edge 134, Type (0, 0), BuildingBlock: AJUNOK_clean_linker_0, # of connection points: 2
#     Edge 135, Type (0, 0), BuildingBlock: AJUNOK_clean_linker_0, # of connection points: 2
#     Edge 136, Type (0, 0), BuildingBlock: AJUNOK_clean_linker_0, # of connection points: 2
#     Edge 137, Type (0, 0), BuildingBlock: AJUNOK_clean_linker_0, # of connection points: 2
#     Edge 138, Type (0, 0), BuildingBlock: AJUNOK_clean_linker_0, # of connection points: 2
#     Edge 139, Type (0, 0), BuildingBlock: AJUNOK_clean_linker_0, # of connection points: 2
#     Edge 140, Type (0, 0), BuildingBlock: AJUNOK_clean_linker_0, # of connection points: 2
#     Edge 141, Type (0, 0), BuildingBlock: AJUNOK_clean_linker_0, # of connection points: 2
#     Edge 142, Type (0, 0), BuildingBlock: AJUNOK_clean_linker_0, # of connection points: 2
#     Edge 143, Type (0, 0), BuildingBlock: AJUNOK_clean_linker_0, # of connection points: 2
# Relax obj value: 0.073
# Max RMSD: 0.095
# Mean RMSD: 0.088
data_MOF--net-rho--node1-QUQFOY_clean_sbu_3--edge1-AJUNOK_clean_linker_0
_symmetry_space_group_name_H-M    P1
_symmetry_Int_Tables_number       1
_symmetry_cell_setting            triclinic
loop_
_symmetry_equiv_pos_as_xyz
'x, y, z'
_cell_length_a     54.260457
_cell_length_b     54.804264
_cell_length_c     54.747061
_cell_angle_alpha  90.142323
_cell_angle_beta   90.118122
_cell_angle_gamma 91.131879
loop_
_atom_site_label
_atom_site_type_symbol
_atom_site_fract_x
_atom_site_fract_y
_atom_site_fract_z
_atom_type_partial_charge
C0 C 0.12305 0.19261 0.36872 0.0
O1 O 0.10306 0.18134 0.37383 0.0
Cd2 Cd 0.06816 0.20119 0.39127 0.0
O3 O 0.12492 0.21559 0.37187 0.0
Cd4 Cd 0.0994 0.24974 0.38499 0.0
C5 C 0.09532 0.2274 0.44204 0.0
O6 O 0.06 0.23646 0.367 0.0
O7 O 0.05905 0.26647 0.39247 0.0
O8 O 0.11687 0.27411 0.35229 0.0
C9 C 0.04764 0.25305 0.37716 0.0
O10 O 0.07996 0.2118 0.4333 0.0
C11 C 0.12207 0.29253 0.36559 0.0
O12 O 0.10631 0.24261 0.4281 0.0
O13 O 0.11788 0.29043 0.38829 0.0
C14 C 0.80108 0.10187 0.37528 0.0
O15 O 0.8083 0.08028 0.3789 0.0
Cd16 Cd 0.78264 0.04892 0.39612 0.0
O17 O 0.77854 0.10711 0.37835 0.0
Cd18 Cd 0.73858 0.087 0.38795 0.0
C19 C 0.75926 0.08204 0.44522 0.0
O20 O 0.74585 0.04591 0.37295 0.0
O21 O 0.71536 0.05004 0.39768 0.0
O22 O 0.72265 0.10416 0.35078 0.0
C23 C 0.72775 0.03611 0.38411 0.0
O24 O 0.77261 0.06536 0.43626 0.0
C25 C 0.70309 0.11236 0.36012 0.0
O26 O 0.74516 0.09445 0.43158 0.0
O27 O 0.70053 0.10987 0.38308 0.0
C28 C 0.85977 0.79557 0.36484 0.0
O29 O 0.87969 0.80667 0.37068 0.0
Cd30 Cd 0.91425 0.78598 0.38769 0.0
O31 O 0.85797 0.77246 0.36672 0.0
Cd32 Cd 0.88298 0.73704 0.37729 0.0
C33 C 0.88555 0.75588 0.43575 0.0
O34 O 0.92222 0.75236 0.36124 0.0
O35 O 0.9236 0.71988 0.38323 0.0
O36 O 0.86459 0.71869 0.34149 0.0
C37 C 0.93494 0.73525 0.36992 0.0
O38 O 0.90067 0.77225 0.42816 0.0
C39 C 0.8601 0.69802 0.35106 0.0
O40 O 0.87511 0.74113 0.4208 0.0
O41 O 0.86535 0.69571 0.37356 0.0
C42 C 0.1794 0.8939 0.37658 0.0
O43 O 0.17396 0.91614 0.37942 0.0
Cd44 Cd 0.20288 0.94508 0.39609 0.0
O45 O 0.20155 0.88711 0.37939 0.0
Cd46 Cd 0.24377 0.9032 0.3869 0.0
C47 C 0.22407 0.90878 0.4442 0.0
O48 O 0.2394 0.94481 0.37268 0.0
O49 O 0.27042 0.93827 0.39617 0.0
O50 O 0.25369 0.88466 0.34849 0.0
C51 C 0.25846 0.95328 0.38342 0.0
O52 O 0.21199 0.92641 0.43532 0.0
C53 C 0.27384 0.87539 0.35521 0.0
O54 O 0.2375 0.89557 0.43061 0.0
O55 O 0.27962 0.87778 0.37765 0.0
C56 C 0.0989 0.80426 0.61889 0.0
O57 O 0.07649 0.81007 0.61636 0.0
Cd58 Cd 0.04472 0.78299 0.60158 0.0
O59 O 0.1055 0.78233 0.61536 0.0
Cd60 Cd 0.08839 0.7411 0.60586 0.0
C61 C 0.07573 0.76238 0.54963 0.0
O62 O 0.04823 0.74651 0.62389 0.0
O63 O 0.05165 0.71478 0.60126 0.0
O64 O 0.11272 0.72768 0.64003 0.0
C65 C 0.03791 0.72787 0.61437 0.0
O66 O 0.05872 0.77416 0.56022 0.0
C67 C 0.12051 0.70842 0.63 0.0
O68 O 0.09057 0.7494 0.56191 0.0
O69 O 0.11418 0.70465 0.6079 0.0
C70 C 0.30506 0.1166 0.62533 0.0
O71 O 0.31531 0.11321 0.60482 0.0
Cd72 Cd 0.29189 0.09975 0.5701 0.0
O73 O 0.28167 0.11564 0.62713 0.0
Cd74 Cd 0.24411 0.11084 0.60228 0.0
C75 C 0.25975 0.05225 0.59871 0.0
O76 O 0.25914 0.12735 0.56372 0.0
O77 O 0.22567 0.10552 0.56218 0.0
O78 O 0.22988 0.14793 0.6207 0.0
C79 C 0.24118 0.11906 0.55112 0.0
O80 O 0.27616 0.05997 0.58384 0.0
C81 C 0.20827 0.14001 0.62542 0.0
O82 O 0.24528 0.06702 0.60914 0.0
O83 O 0.20366 0.11768 0.62059 0.0
C84 C 0.87619 0.18228 0.62026 0.0
O85 O 0.89817 0.17556 0.61677 0.0
Cd86 Cd 0.93096 0.20069 0.60098 0.0
O87 O 0.87029 0.20439 0.61669 0.0
Cd88 Cd 0.89078 0.2436 0.60539 0.0
C89 C 0.90193 0.22211 0.54887 0.0
O90 O 0.93146 0.23761 0.62356 0.0
O91 O 0.92827 0.2674 0.59834 0.0
O92 O 0.87016 0.26393 0.63867 0.0
C93 C 0.94174 0.25558 0.61285 0.0
O94 O 0.91864 0.20961 0.55906 0.0
C95 C 0.8624 0.28157 0.62597 0.0
O96 O 0.88766 0.23522 0.5616 0.0
O97 O 0.86653 0.28068 0.60316 0.0
C98 C 0.67322 0.86912 0.61306 0.0
O99 O 0.66597 0.87332 0.59145 0.0
Cd100 Cd 0.69235 0.88776 0.56012 0.0
O101 O 0.69608 0.87043 0.61852 0.0
Cd102 Cd 0.73619 0.8771 0.59748 0.0
C103 C 0.72009 0.93541 0.59281 0.0
O104 O 0.72451 0.85922 0.55876 0.0
O105 O 0.7571 0.882 0.55773 0.0
O106 O 0.75048 0.84096 0.61769 0.0
C107 C 0.74268 0.86725 0.54661 0.0
O108 O 0.70561 0.92764 0.57604 0.0
C109 C 0.77189 0.84938 0.6226 0.0
O110 O 0.73355 0.92074 0.6046 0.0
O111 O 0.7761 0.87167 0.61749 0.0
C112 C 0.38129 0.11527 0.29693 0.0
O113 O 0.4022 0.10779 0.30372 0.0
Cd114 Cd 0.43166 0.09004 0.27771 0.0
O115 O 0.37472 0.11394 0.27455 0.0
Cd116 Cd 0.394 0.10144 0.23524 0.0
C117 C 0.39647 0.04282 0.25314 0.0
O118 O 0.43391 0.11901 0.24553 0.0
O119 O 0.43359 0.09648 0.21349 0.0
O120 O 0.37379 0.13556 0.21603 0.0
C121 C 0.44542 0.11128 0.22716 0.0
O122 O 0.41437 0.0498 0.2667 0.0
C123 C 0.36769 0.12396 0.19677 0.0
O124 O 0.3849 0.05814 0.24029 0.0
O125 O 0.37264 0.10143 0.19614 0.0
C126 C 0.87185 0.36501 0.19608 0.0
O127 O 0.89347 0.36648 0.1873 0.0
Cd128 Cd 0.92811 0.38168 0.21112 0.0
O129 O 0.8683 0.36918 0.21866 0.0
Cd130 Cd 0.88979 0.37811 0.2573 0.0
C131 C 0.90141 0.43411 0.23505 0.0
O132 O 0.93079 0.36189 0.24954 0.0
O133 O 0.92665 0.38596 0.28049 0.0
O134 O 0.86911 0.34186 0.27166 0.0
C135 C 0.94079 0.37331 0.26738 0.0
O136 O 0.91663 0.42312 0.22136 0.0
C137 C 0.8615 0.35074 0.29162 0.0
O138 O 0.88733 0.42218 0.24962 0.0
O139 O 0.86618 0.37328 0.29551 0.0
C140 C 0.59654 0.87228 0.2976 0.0
O141 O 0.57496 0.87775 0.30433 0.0
Cd142 Cd 0.54447 0.89478 0.27844 0.0
O143 O 0.60315 0.87498 0.27543 0.0
Cd144 Cd 0.58471 0.88743 0.23609 0.0
C145 C 0.57739 0.94489 0.25661 0.0
O146 O 0.54403 0.86938 0.24322 0.0
O147 O 0.54702 0.89273 0.21196 0.0
O148 O 0.6068 0.85436 0.21721 0.0
C149 C 0.53368 0.87854 0.22478 0.0
O150 O 0.55963 0.9361 0.26925 0.0
C151 C 0.61446 0.86671 0.19907 0.0
O152 O 0.59067 0.93096 0.24375 0.0
O153 O 0.60908 0.88915 0.19868 0.0
C154 C 0.13089 0.62662 0.1934 0.0
O155 O 0.10977 0.62219 0.18422 0.0
Cd156 Cd 0.07502 0.60871 0.20813 0.0
O157 O 0.13394 0.62605 0.21647 0.0
Cd158 Cd 0.11022 0.62055 0.25453 0.0
C159 C 0.10258 0.56143 0.23972 0.0
O160 O 0.07006 0.63549 0.2419 0.0
O161 O 0.07115 0.61453 0.27513 0.0
O162 O 0.1289 0.65816 0.2689 0.0
C163 C 0.05855 0.62671 0.26016 0.0
O164 O 0.08722 0.56911 0.22398 0.0
C165 C 0.13488 0.65029 0.28983 0.0
O166 O 0.11512 0.57639 0.25287 0.0
O167 O 0.13063 0.62778 0.29399 0.0
C168 C 0.35635 0.85727 0.6954 0.0
O169 O 0.37755 0.86117 0.6863 0.0
Cd170 Cd 0.41233 0.87473 0.71011 0.0
O171 O 0.35324 0.85831 0.71844 0.0
Cd172 Cd 0.37726 0.86401 0.75654 0.0
C173 C 0.38509 0.92272 0.74105 0.0
O174 O 0.41704 0.84843 0.74412 0.0
O175 O 0.41693 0.87047 0.77668 0.0
O176 O 0.35834 0.82684 0.77151 0.0
C177 C 0.42911 0.85771 0.76182 0.0
O178 O 0.40036 0.91466 0.72545 0.0
C179 C 0.35282 0.83505 0.79245 0.0
O180 O 0.37252 0.90809 0.7544 0.0
O181 O 0.35728 0.8576 0.79629 0.0
C182 C 0.09574 0.37422 0.79742 0.0
O183 O 0.07412 0.37981 0.80392 0.0
Cd184 Cd 0.04529 0.39937 0.77812 0.0
O185 O 0.10287 0.37787 0.77554 0.0
Cd186 Cd 0.08579 0.39236 0.73614 0.0
C187 C 0.08115 0.44898 0.75907 0.0
O188 O 0.04441 0.37543 0.74189 0.0
O189 O 0.04879 0.40025 0.71187 0.0
O190 O 0.10644 0.35821 0.71771 0.0
C191 C 0.03486 0.38564 0.72358 0.0
O192 O 0.06313 0.44008 0.77124 0.0
C193 C 0.11411 0.36977 0.69907 0.0
O194 O 0.09375 0.43551 0.74504 0.0
O195 O 0.10976 0.39244 0.69831 0.0
C196 C 0.61464 0.12005 0.69444 0.0
O197 O 0.59291 0.11849 0.68585 0.0
Cd198 Cd 0.55919 0.102 0.70973 0.0
O199 O 0.61857 0.11554 0.71689 0.0
Cd200 Cd 0.59776 0.10597 0.75572 0.0
C201 C 0.58807 0.05008 0.73231 0.0
O202 O 0.55648 0.12154 0.74835 0.0
O203 O 0.5611 0.09696 0.77872 0.0
O204 O 0.61752 0.14295 0.76963 0.0
C205 C 0.54676 0.10979 0.76601 0.0
O206 O 0.57249 0.06089 0.71889 0.0
C207 C 0.62512 0.13478 0.78989 0.0
O208 O 0.60154 0.06199 0.74758 0.0
O209 O 0.62105 0.11222 0.79411 0.0
C210 C 0.88196 0.6153 0.79944 0.0
O211 O 0.90278 0.60764 0.80633 0.0
Cd212 Cd 0.93327 0.59133 0.78029 0.0
O213 O 0.87613 0.61528 0.77686 0.0
Cd214 Cd 0.89589 0.60446 0.73765 0.0
C215 C 0.89842 0.5452 0.75381 0.0
O216 O 0.93608 0.62113 0.74868 0.0
O217 O 0.93525 0.60031 0.71548 0.0
O218 O 0.87538 0.63851 0.71843 0.0
C219 C 0.94748 0.6139 0.73002 0.0
O220 O 0.91636 0.55139 0.76771 0.0
C221 C 0.8687 0.62657 0.69955 0.0
O222 O 0.887 0.56122 0.74175 0.0
O223 O 0.87383 0.60408 0.69903 0.0
C224 C 0.18297 0.36798 0.12772 0.0
O225 O 0.17174 0.37158 0.10772 0.0
Cd226 Cd 0.19314 0.38512 0.07195 0.0
O227 O 0.20641 0.36903 0.12853 0.0
Cd228 Cd 0.24238 0.37451 0.10167 0.0
C229 C 0.22633 0.43306 0.09864 0.0
O230 O 0.22542 0.35735 0.06386 0.0
O231 O 0.25854 0.37947 0.06064 0.0
O232 O 0.25929 0.33839 0.11972 0.0
C233 C 0.24268 0.36556 0.05041 0.0
O234 O 0.20924 0.42531 0.08444 0.0
C235 C 0.28078 0.34734 0.12317 0.0
O236 O 0.24113 0.41826 0.10851 0.0
O237 O 0.2841 0.3697 0.11778 0.0
C238 C 0.30486 0.59034 0.87444 0.0
O239 O 0.31062 0.56823 0.87759 0.0
Cd240 Cd 0.28316 0.53901 0.89599 0.0
O241 O 0.28289 0.59711 0.87835 0.0
Cd242 Cd 0.24188 0.58031 0.88927 0.0
C243 C 0.26509 0.57466 0.94554 0.0
O244 O 0.24498 0.53837 0.87487 0.0
O245 O 0.2163 0.54565 0.90096 0.0
O246 O 0.22553 0.59793 0.85247 0.0
C247 C 0.22667 0.53042 0.88711 0.0
O248 O 0.27662 0.55683 0.93627 0.0
C249 C 0.20732 0.60806 0.86255 0.0
O250 O 0.25125 0.58785 0.93239 0.0
O251 O 0.20591 0.60646 0.88568 0.0
C252 C 0.35772 0.29487 0.8645 0.0
O253 O 0.3773 0.30685 0.8697 0.0
Cd254 Cd 0.41366 0.28839 0.88595 0.0
O255 O 0.35695 0.27177 0.86685 0.0
Cd256 Cd 0.38465 0.23893 0.87881 0.0
C257 C 0.3888 0.26035 0.93637 0.0
O258 O 0.42354 0.25389 0.861 0.0
O259 O 0.4257 0.22386 0.88618 0.0
O260 O 0.36774 0.21353 0.84634 0.0
C261 C 0.4366 0.23784 0.87113 0.0
O262 O 0.40362 0.27663 0.92805 0.0
C263 C 0.36327 0.19521 0.8599 0.0
O264 O 0.37804 0.24535 0.92196 0.0
O265 O 0.36788 0.19769 0.88251 0.0
C266 C 0.68673 0.38436 0.87761 0.0
O267 O 0.68039 0.40629 0.88092 0.0
Cd268 Cd 0.70749 0.4362 0.89868 0.0
O269 O 0.70898 0.3782 0.88101 0.0
Cd270 Cd 0.75018 0.39625 0.89001 0.0
C271 C 0.72998 0.40128 0.94717 0.0
O272 O 0.74407 0.43754 0.87539 0.0
O273 O 0.77535 0.43257 0.89891 0.0
O274 O 0.76067 0.37723 0.85213 0.0
C275 C 0.76271 0.44694 0.88608 0.0
O276 O 0.71716 0.41833 0.93817 0.0
C277 C 0.78133 0.36914 0.85887 0.0
O278 O 0.74393 0.38855 0.93365 0.0
O279 O 0.78746 0.37271 0.88106 0.0
C280 C 0.62399 0.689 0.86794 0.0
O281 O 0.6041 0.67846 0.87468 0.0
Cd282 Cd 0.57043 0.7001 0.89173 0.0
O283 O 0.62631 0.71215 0.86913 0.0
Cd284 Cd 0.60222 0.74847 0.87953 0.0
C285 C 0.60081 0.73131 0.93847 0.0
O286 O 0.56336 0.73247 0.86372 0.0
O287 O 0.56109 0.76543 0.8849 0.0
O288 O 0.62082 0.76624 0.84357 0.0
C289 C 0.55019 0.74951 0.87173 0.0
O290 O 0.58532 0.71488 0.93159 0.0
C291 C 0.62507 0.78713 0.85289 0.0
O292 O 0.61095 0.74552 0.92296 0.0
O293 O 0.61958 0.78982 0.87526 0.0
C294 C 0.81175 0.61367 0.11369 0.0
O295 O 0.81772 0.60855 0.09191 0.0
Cd296 Cd 0.78915 0.59525 0.06182 0.0
O297 O 0.78915 0.61386 0.12006 0.0
Cd298 Cd 0.74778 0.60894 0.10084 0.0
C299 C 0.76015 0.54963 0.09603 0.0
O300 O 0.75863 0.6255 0.06155 0.0
O301 O 0.72508 0.60414 0.06191 0.0
O302 O 0.7363 0.64642 0.12068 0.0
C303 C 0.73964 0.61812 0.05015 0.0
O304 O 0.77422 0.55641 0.0786 0.0
C305 C 0.71469 0.63933 0.12646 0.0
O306 O 0.74836 0.56523 0.10842 0.0
O307 O 0.70913 0.6171 0.12212 0.0
C308 C 0.39022 0.67982 0.12128 0.0
O309 O 0.41259 0.67386 0.11889 0.0
Cd310 Cd 0.44379 0.69991 0.10149 0.0
O311 O 0.38359 0.70141 0.1163 0.0
Cd312 Cd 0.40158 0.74116 0.10348 0.0
C313 C 0.41224 0.71564 0.04865 0.0
O314 O 0.44277 0.73843 0.12135 0.0
O315 O 0.43766 0.76638 0.09435 0.0
O316 O 0.37993 0.76098 0.13646 0.0
C317 C 0.45191 0.75622 0.10941 0.0
O318 O 0.42965 0.70473 0.05949 0.0
C319 C 0.37115 0.77796 0.12353 0.0
O320 O 0.39795 0.72965 0.06038 0.0
O321 O 0.37535 0.77701 0.10072 0.0
C322 C 0.60975 0.29889 0.1178 0.0
O323 O 0.58743 0.3051 0.11572 0.0
Cd324 Cd 0.5555 0.27951 0.09889 0.0
O325 O 0.61606 0.27717 0.11274 0.0
Cd326 Cd 0.59724 0.23712 0.10108 0.0
C327 C 0.58576 0.26096 0.0459 0.0
O328 O 0.55686 0.24189 0.11972 0.0
O329 O 0.56017 0.21204 0.09451 0.0
O330 O 0.62031 0.22175 0.1351 0.0
C331 C 0.54664 0.22382 0.109 0.0
O332 O 0.56915 0.27269 0.05709 0.0
C333 C 0.62741 0.20239 0.12473 0.0
O334 O 0.60007 0.24677 0.0574 0.0
O335 O 0.62169 0.19967 0.10234 0.0
C336 C 0.86071 0.6816 0.61196 0.0
O337 O 0.86612 0.67152 0.59182 0.0
Cd338 Cd 0.88606 0.69477 0.56011 0.0
O339 O 0.86354 0.70453 0.61459 0.0
Cd340 Cd 0.87465 0.74204 0.59275 0.0
C341 C 0.93267 0.72207 0.59501 0.0
O342 O 0.8622 0.72995 0.55153 0.0
O343 O 0.88546 0.76219 0.55476 0.0
O344 O 0.83665 0.7571 0.60886 0.0
C345 C 0.87318 0.74772 0.54108 0.0
O346 O 0.92566 0.7068 0.57868 0.0
C347 C 0.84541 0.77737 0.61649 0.0
O348 O 0.91748 0.73684 0.60437 0.0
O349 O 0.86841 0.78119 0.61355 0.0
C350 C 0.17296 0.88169 0.6187 0.0
O351 O 0.1658 0.90323 0.61466 0.0
Cd352 Cd 0.19198 0.93524 0.59901 0.0
O353 O 0.19562 0.87653 0.61649 0.0
Cd354 Cd 0.23556 0.89697 0.6077 0.0
C355 C 0.21749 0.90438 0.54974 0.0
O356 O 0.22841 0.9384 0.6229 0.0
O357 O 0.25949 0.93343 0.59906 0.0
O358 O 0.25302 0.8797 0.64433 0.0
C359 C 0.24712 0.94769 0.61225 0.0
O360 O 0.20377 0.92077 0.55867 0.0
C361 C 0.27164 0.87063 0.63395 0.0
O362 O 0.23067 0.89124 0.56357 0.0
O363 O 0.27279 0.87272 0.61086 0.0
C364 C 0.11957 0.30959 0.61457 0.0
O365 O 0.11341 0.31823 0.594 0.0
Cd366 Cd 0.09363 0.29264 0.56374 0.0
O367 O 0.11728 0.28682 0.6186 0.0
Cd368 Cd 0.10598 0.24816 0.59835 0.0
C369 C 0.04742 0.26611 0.59917 0.0
O370 O 0.11775 0.25735 0.55613 0.0
O371 O 0.09399 0.22587 0.5619 0.0
O372 O 0.14433 0.2332 0.61388 0.0
C373 C 0.10649 0.23886 0.54715 0.0
O374 O 0.05415 0.28054 0.5821 0.0
C375 C 0.13557 0.21327 0.62222 0.0
O376 O 0.06301 0.25264 0.60976 0.0
O377 O 0.11241 0.20983 0.62033 0.0
C378 C 0.80093 0.10651 0.62197 0.0
O379 O 0.80812 0.08488 0.61845 0.0
Cd380 Cd 0.78334 0.05277 0.60102 0.0
O381 O 0.77843 0.11186 0.61854 0.0
Cd382 Cd 0.7389 0.09076 0.60809 0.0
C383 C 0.76012 0.08445 0.5511 0.0
O384 O 0.74586 0.04919 0.62272 0.0
O385 O 0.7164 0.05405 0.59683 0.0
O386 O 0.71962 0.10685 0.64434 0.0
C387 C 0.72812 0.03977 0.61056 0.0
O388 O 0.77346 0.06801 0.56048 0.0
C389 C 0.70071 0.11493 0.63357 0.0
O390 O 0.74606 0.09727 0.56441 0.0
O391 O 0.70033 0.11326 0.61041 0.0
C392 C 0.87607 0.17826 0.3742 0.0
O393 O 0.89819 0.17173 0.37721 0.0
Cd394 Cd 0.93078 0.19813 0.39087 0.0
O395 O 0.87031 0.20055 0.37687 0.0
Cd396 Cd 0.89035 0.24079 0.3853 0.0
C397 C 0.90217 0.22184 0.4424 0.0
O398 O 0.92947 0.233 0.36556 0.0
O399 O 0.92892 0.26454 0.38884 0.0
O400 O 0.86682 0.25599 0.35132 0.0
C401 C 0.94095 0.25141 0.37421 0.0
O402 O 0.91864 0.20892 0.43238 0.0
C403 C 0.86097 0.27597 0.36131 0.0
O404 O 0.88784 0.23472 0.42948 0.0
O405 O 0.86756 0.27908 0.38341 0.0
C406 C 0.66944 0.86368 0.37336 0.0
O407 O 0.6621 0.86887 0.39472 0.0
Cd408 Cd 0.68786 0.88325 0.42716 0.0
O409 O 0.69234 0.86443 0.36821 0.0
Cd410 Cd 0.73162 0.87258 0.39009 0.0
C411 C 0.71586 0.93121 0.39651 0.0
O412 O 0.72113 0.85578 0.42976 0.0
O413 O 0.75314 0.87952 0.42882 0.0
O414 O 0.75114 0.83758 0.37183 0.0
C415 C 0.73955 0.86495 0.44095 0.0
O416 O 0.70154 0.92385 0.41352 0.0
C417 C 0.77038 0.84928 0.36508 0.0
O418 O 0.72808 0.91607 0.38402 0.0
O419 O 0.77061 0.87221 0.36844 0.0
C420 C 0.10284 0.81873 0.37781 0.0
O421 O 0.08056 0.82439 0.38136 0.0
Cd422 Cd 0.0491 0.79559 0.39284 0.0
O423 O 0.10933 0.79654 0.37916 0.0
Cd424 Cd 0.09128 0.75522 0.38544 0.0
C425 C 0.0773 0.76966 0.44339 0.0
O426 O 0.05225 0.76244 0.36514 0.0
O427 O 0.05394 0.72923 0.38572 0.0
O428 O 0.11659 0.7431 0.35147 0.0
C429 C 0.04156 0.74288 0.37189 0.0
O430 O 0.06052 0.78257 0.43388 0.0
C431 C 0.12387 0.72337 0.36089 0.0
O432 O 0.09253 0.75843 0.42995 0.0
O433 O 0.11685 0.71887 0.38258 0.0
C434 C 0.31237 0.12643 0.37522 0.0
O435 O 0.32094 0.12221 0.39635 0.0
Cd436 Cd 0.29718 0.10661 0.42967 0.0
O437 O 0.28931 0.12446 0.37109 0.0
Cd438 Cd 0.25131 0.11554 0.39422 0.0
C439 C 0.27033 0.05771 0.39902 0.0
O440 O 0.26246 0.13203 0.43426 0.0
O441 O 0.23079 0.10772 0.43284 0.0
O442 O 0.23148 0.15044 0.37633 0.0
C443 C 0.2444 0.12207 0.44534 0.0
O444 O 0.28504 0.06571 0.4155 0.0
C445 C 0.21215 0.13875 0.36972 0.0
O446 O 0.25647 0.07219 0.38745 0.0
O447 O 0.21173 0.11585 0.37332 0.0
C448 C 0.59868 0.87557 0.6874 0.0
O449 O 0.57687 0.87968 0.68031 0.0
Cd450 Cd 0.54612 0.89452 0.70679 0.0
O451 O 0.60467 0.87807 0.70982 0.0
Cd452 Cd 0.58554 0.88697 0.74994 0.0
C453 C 0.57846 0.94453 0.73121 0.0
O454 O 0.54734 0.86621 0.73949 0.0
O455 O 0.546 0.88694 0.77269 0.0
O456 O 0.6107 0.8535 0.76244 0.0
C457 C 0.53519 0.87223 0.7581 0.0
O458 O 0.56176 0.93538 0.71738 0.0
C459 C 0.61614 0.86194 0.78339 0.0
O460 O 0.59085 0.93104 0.74536 0.0
O461 O 0.60809 0.88294 0.78861 0.0
C462 C 0.12415 0.62231 0.79941 0.0
O463 O 0.10247 0.62165 0.80805 0.0
Cd464 Cd 0.06761 0.60773 0.78451 0.0
O465 O 0.12772 0.61809 0.77679 0.0
Cd466 Cd 0.10496 0.61023 0.73823 0.0
C467 C 0.09277 0.55446 0.76058 0.0
O468 O 0.0659 0.62955 0.74727 0.0
O469 O 0.06609 0.60406 0.7172 0.0
O470 O 0.12643 0.64557 0.72242 0.0
C471 C 0.05418 0.61912 0.72992 0.0
O472 O 0.07799 0.56582 0.77444 0.0
C473 C 0.13155 0.63653 0.70173 0.0
O474 O 0.10649 0.56601 0.7454 0.0
O475 O 0.1259 0.6141 0.69846 0.0
C476 C 0.3671 0.10301 0.81208 0.0
O477 O 0.37476 0.08463 0.82371 0.0
Cd478 Cd 0.39605 0.05266 0.80287 0.0
O479 O 0.36956 0.10411 0.78903 0.0
Cd480 Cd 0.38425 0.08023 0.75448 0.0
C481 C 0.44234 0.08631 0.77512 0.0
O482 O 0.3715 0.03944 0.76844 0.0
O483 O 0.39588 0.04133 0.7374 0.0
O484 O 0.34838 0.09344 0.73211 0.0
C485 C 0.38257 0.02834 0.75146 0.0
O486 O 0.43619 0.07062 0.79125 0.0
C487 C 0.36034 0.10106 0.71363 0.0
O488 O 0.42647 0.09403 0.76007 0.0
O489 O 0.3836 0.09918 0.71438 0.0
C490 C 0.8551 0.37018 0.68004 0.0
O491 O 0.85927 0.39068 0.66997 0.0
Cd492 Cd 0.87949 0.42386 0.69159 0.0
O493 O 0.85922 0.36751 0.70276 0.0
Cd494 Cd 0.8722 0.39018 0.73945 0.0
C495 C 0.92882 0.39192 0.71497 0.0
O496 O 0.86024 0.43197 0.72984 0.0
O497 O 0.88644 0.42708 0.75908 0.0
O498 O 0.83548 0.37468 0.75908 0.0
C499 C 0.87379 0.44156 0.74641 0.0
O500 O 0.92024 0.40806 0.70072 0.0
C501 C 0.84605 0.36711 0.77825 0.0
O502 O 0.91495 0.38099 0.73041 0.0
O503 O 0.86939 0.36958 0.77922 0.0
C504 C 0.62061 0.11991 0.29499 0.0
O505 O 0.59888 0.11841 0.3035 0.0
Cd506 Cd 0.56435 0.10468 0.27944 0.0
O507 O 0.62456 0.11571 0.27246 0.0
Cd508 Cd 0.60257 0.1065 0.2338 0.0
C509 C 0.58829 0.05091 0.25587 0.0
O510 O 0.56427 0.12694 0.24236 0.0
O511 O 0.56346 0.10185 0.21209 0.0
O512 O 0.62597 0.14033 0.21734 0.0
C513 C 0.55205 0.11709 0.22506 0.0
O514 O 0.57333 0.06236 0.26946 0.0
C515 C 0.63103 0.13043 0.19704 0.0
O516 O 0.60289 0.06248 0.24155 0.0
O517 O 0.62432 0.10821 0.19433 0.0
C518 C 0.88859 0.60733 0.18636 0.0
O519 O 0.91029 0.60275 0.17934 0.0
Cd520 Cd 0.94162 0.58956 0.2064 0.0
O521 O 0.88285 0.60594 0.20888 0.0
Cd522 Cd 0.90213 0.59837 0.24903 0.0
C523 C 0.91076 0.54012 0.23283 0.0
O524 O 0.94062 0.61882 0.23849 0.0
O525 O 0.9411 0.59942 0.27247 0.0
O526 O 0.87669 0.63175 0.26123 0.0
C527 C 0.95237 0.61331 0.25757 0.0
O528 O 0.92754 0.54882 0.21891 0.0
C529 C 0.87088 0.62317 0.28197 0.0
O530 O 0.8976 0.55421 0.24562 0.0
O531 O 0.87899 0.60223 0.28723 0.0
C532 C 0.35656 0.86586 0.17732 0.0
O533 O 0.361 0.88634 0.16734 0.0
Cd534 Cd 0.38049 0.91927 0.18999 0.0
O535 O 0.35931 0.8635 0.20027 0.0
Cd536 Cd 0.36968 0.88774 0.23683 0.0
C537 C 0.42764 0.8868 0.21639 0.0
O538 O 0.3598 0.93038 0.22682 0.0
O539 O 0.38591 0.92394 0.25586 0.0
O540 O 0.33116 0.87561 0.25559 0.0
C541 C 0.3734 0.93907 0.24387 0.0
O542 O 0.42035 0.90287 0.20135 0.0
C543 C 0.34045 0.86795 0.27538 0.0
O544 O 0.41254 0.87654 0.23112 0.0
O545 O 0.36385 0.8683 0.27686 0.0
C546 C 0.11932 0.38319 0.31496 0.0
O547 O 0.11155 0.40204 0.32576 0.0
Cd548 Cd 0.09062 0.43318 0.30355 0.0
O549 O 0.11738 0.38127 0.29187 0.0
Cd550 Cd 0.10348 0.40418 0.25623 0.0
C551 C 0.04503 0.39823 0.27567 0.0
O552 O 0.11594 0.44538 0.26952 0.0
O553 O 0.09203 0.44268 0.23809 0.0
O554 O 0.13999 0.39028 0.2353 0.0
C555 C 0.10517 0.45605 0.25208 0.0
O556 O 0.05091 0.41439 0.29154 0.0
C557 C 0.12855 0.38258 0.21646 0.0
O558 O 0.06112 0.3902 0.26104 0.0
O559 O 0.1053 0.38474 0.21632 0.0
C560 C 0.81079 0.62158 0.87683 0.0
O561 O 0.81896 0.61802 0.89826 0.0
Cd562 Cd 0.79443 0.60225 0.93084 0.0
O563 O 0.78791 0.61873 0.87219 0.0
Cd564 Cd 0.74924 0.60899 0.89396 0.0
C565 C 0.76976 0.55196 0.90031 0.0
O566 O 0.75924 0.6273 0.93307 0.0
O567 O 0.72816 0.60228 0.93283 0.0
O568 O 0.73058 0.64348 0.87438 0.0
C569 C 0.74133 0.61765 0.94457 0.0
O570 O 0.78385 0.56082 0.91689 0.0
C571 C 0.71095 0.6321 0.86815 0.0
O572 O 0.75561 0.56568 0.88815 0.0
O573 O 0.70987 0.60935 0.8726 0.0
C574 C 0.68388 0.37571 0.12223 0.0
O575 O 0.67609 0.39706 0.11846 0.0
Cd576 Cd 0.70004 0.43005 0.10206 0.0
O577 O 0.70666 0.37103 0.1196 0.0
Cd578 Cd 0.74583 0.39359 0.11053 0.0
C579 C 0.72607 0.39919 0.05289 0.0
O580 O 0.73646 0.43459 0.12536 0.0
O581 O 0.76692 0.43155 0.1005 0.0
O582 O 0.76568 0.37789 0.14676 0.0
C583 C 0.75391 0.4451 0.11384 0.0
O584 O 0.71181 0.41513 0.06182 0.0
C585 C 0.78483 0.37051 0.13592 0.0
O586 O 0.7402 0.38696 0.06665 0.0
O587 O 0.78512 0.37245 0.1128 0.0
C588 C 0.62783 0.81059 0.1128 0.0
O589 O 0.6229 0.81991 0.0922 0.0
Cd590 Cd 0.6042 0.79549 0.06036 0.0
O591 O 0.62533 0.7877 0.11599 0.0
Cd592 Cd 0.61541 0.74932 0.09473 0.0
C593 C 0.5571 0.76851 0.09459 0.0
O594 O 0.6279 0.75995 0.05315 0.0
O595 O 0.60461 0.72789 0.05739 0.0
O596 O 0.65338 0.73407 0.11116 0.0
C597 C 0.61675 0.74187 0.04324 0.0
O598 O 0.56441 0.78331 0.07807 0.0
C599 C 0.64422 0.7143 0.11951 0.0
O600 O 0.57212 0.7542 0.10489 0.0
O601 O 0.6211 0.71099 0.11692 0.0
C602 C 0.31592 0.60297 0.1216 0.0
O603 O 0.323 0.58137 0.11763 0.0
Cd604 Cd 0.29693 0.54953 0.10109 0.0
O605 O 0.29337 0.60829 0.11874 0.0
Cd606 Cd 0.25365 0.58798 0.10858 0.0
C607 C 0.27295 0.58008 0.05108 0.0
O608 O 0.25975 0.54638 0.12375 0.0
O609 O 0.22966 0.5519 0.09868 0.0
O610 O 0.2351 0.60532 0.14461 0.0
C611 C 0.24126 0.53744 0.11232 0.0
O612 O 0.28625 0.5635 0.06027 0.0
C613 C 0.21677 0.61432 0.13363 0.0
O614 O 0.25982 0.59352 0.06469 0.0
O615 O 0.21634 0.61227 0.1105 0.0
C616 C 0.36658 0.18092 0.11008 0.0
O617 O 0.37146 0.17121 0.08963 0.0
Cd618 Cd 0.39246 0.19475 0.05882 0.0
O619 O 0.37083 0.20357 0.11351 0.0
Cd620 Cd 0.38421 0.24129 0.09307 0.0
C621 C 0.44097 0.21853 0.09382 0.0
O622 O 0.37019 0.23132 0.0519 0.0
O623 O 0.39531 0.26215 0.05548 0.0
O624 O 0.34686 0.25637 0.11024 0.0
C625 C 0.3817 0.24895 0.04176 0.0
O626 O 0.43276 0.20419 0.07719 0.0
C627 C 0.35575 0.27667 0.11758 0.0
O628 O 0.42693 0.23392 0.10395 0.0
O629 O 0.37869 0.28048 0.11425 0.0
C630 C 0.16554 0.35944 0.87523 0.0
O631 O 0.15753 0.36363 0.89659 0.0
Cd632 Cd 0.18251 0.3776 0.93004 0.0
O633 O 0.18858 0.36039 0.87094 0.0
Cd634 Cd 0.22717 0.36781 0.89388 0.0
C635 C 0.21036 0.42623 0.90049 0.0
O636 O 0.21678 0.35142 0.93421 0.0
O637 O 0.2486 0.37547 0.93203 0.0
O638 O 0.24761 0.33306 0.8759 0.0
C639 C 0.23529 0.36124 0.94483 0.0
O640 O 0.19581 0.41849 0.91711 0.0
C641 C 0.26634 0.34527 0.86863 0.0
O642 O 0.22324 0.41142 0.8882 0.0
O643 O 0.26594 0.36822 0.87182 0.0
C644 C 0.61008 0.30978 0.87315 0.0
O645 O 0.58807 0.31664 0.87604 0.0
Cd646 Cd 0.55497 0.29084 0.88891 0.0
O647 O 0.6155 0.28733 0.8754 0.0
Cd648 Cd 0.59441 0.24715 0.88248 0.0
C649 C 0.5836 0.26576 0.93989 0.0
O650 O 0.55599 0.25682 0.86238 0.0
O651 O 0.55469 0.22474 0.88467 0.0
O652 O 0.61793 0.23142 0.8486 0.0
C653 C 0.54353 0.23875 0.87017 0.0
O654 O 0.56752 0.27932 0.93012 0.0
C655 C 0.62314 0.21127 0.85854 0.0
O656 O 0.59713 0.25221 0.92681 0.0
O657 O 0.61611 0.20825 0.88047 0.0
C658 C 0.38167 0.66489 0.87443 0.0
O659 O 0.404 0.65884 0.87683 0.0
Cd660 Cd 0.43582 0.68647 0.8901 0.0
O661 O 0.37543 0.68697 0.87769 0.0
Cd662 Cd 0.39391 0.72782 0.88625 0.0
C663 C 0.40808 0.70891 0.94273 0.0
O664 O 0.43249 0.72159 0.86521 0.0
O665 O 0.43167 0.7532 0.88839 0.0
O666 O 0.36867 0.74153 0.85292 0.0
C667 C 0.44362 0.74041 0.87338 0.0
O668 O 0.42453 0.69649 0.93206 0.0
C669 C 0.36196 0.76119 0.86297 0.0
O670 O 0.39309 0.72167 0.93045 0.0
O671 O 0.36896 0.76476 0.88489 0.0
C672 C 0.13179 0.33972 0.3167 0.0
C673 C 0.12698 0.36162 0.32916 0.0
C674 C 0.13251 0.31749 0.32908 0.0
C675 C 0.12863 0.31631 0.35442 0.0
H676 H 0.13324 0.33936 0.29697 0.0
H677 H 0.13443 0.30096 0.31841 0.0
S678 S 0.12177 0.36906 0.39637 0.0
N679 N 0.12303 0.38129 0.36887 0.0
N680 N 0.12453 0.3394 0.3922 0.0
C681 C 0.1269 0.33835 0.36751 0.0
C682 C 0.12604 0.36106 0.35485 0.0
C683 C 0.65839 0.11955 0.3532 0.0
C684 C 0.6827 0.12057 0.34438 0.0
C685 C 0.63827 0.12108 0.33724 0.0
C686 C 0.64175 0.12371 0.31189 0.0
H687 H 0.65478 0.11584 0.3723 0.0
H688 H 0.61993 0.11864 0.34473 0.0
S689 S 0.70181 0.13299 0.28049 0.0
N690 N 0.70918 0.12848 0.30938 0.0
N691 N 0.67142 0.13148 0.27936 0.0
C692 C 0.66597 0.12724 0.30322 0.0
C693 C 0.68644 0.12564 0.31948 0.0
C694 C 0.86156 0.65343 0.34269 0.0
C695 C 0.85396 0.67673 0.33549 0.0
C696 C 0.8643 0.63476 0.32543 0.0
C697 C 0.8595 0.63891 0.30054 0.0
H698 H 0.8678 0.65025 0.3612 0.0
H699 H 0.87253 0.6179 0.33131 0.0
S700 S 0.83178 0.6942 0.27399 0.0
N701 N 0.83622 0.70108 0.30307 0.0
N702 N 0.84134 0.66598 0.27063 0.0
C703 C 0.84848 0.66091 0.29386 0.0
C704 C 0.84571 0.67988 0.31138 0.0
C705 C 0.29878 0.86063 0.29303 0.0
C706 C 0.32441 0.86251 0.29663 0.0
C707 C 0.28245 0.86232 0.31264 0.0
C708 C 0.29109 0.86601 0.33664 0.0
H709 H 0.29115 0.85951 0.27474 0.0
H710 H 0.26288 0.86248 0.30868 0.0
S711 S 0.35654 0.86697 0.35645 0.0
N712 N 0.35776 0.86423 0.32643 0.0
N713 N 0.32695 0.86751 0.36339 0.0
C714 C 0.31664 0.86511 0.34085 0.0
C715 C 0.33336 0.86335 0.32079 0.0
C716 C 0.13056 0.64659 0.65735 0.0
C717 C 0.13818 0.65287 0.68119 0.0
C718 C 0.12761 0.66462 0.63947 0.0
C719 C 0.13217 0.6894 0.64496 0.0
H720 H 0.12438 0.62814 0.65316 0.0
H721 H 0.11933 0.65936 0.62217 0.0
S722 S 0.15965 0.7141 0.70216 0.0
N723 N 0.15565 0.68464 0.70746 0.0
N724 N 0.14996 0.71848 0.67392 0.0
C725 C 0.14314 0.69533 0.66752 0.0
C726 C 0.14622 0.67702 0.68565 0.0
C727 C 0.30829 0.11601 0.67072 0.0
C728 C 0.32012 0.11792 0.64792 0.0
C729 C 0.32166 0.1119 0.6921 0.0
C730 C 0.34741 0.1097 0.69159 0.0
H731 H 0.28838 0.11632 0.67203 0.0
H732 H 0.31154 0.10936 0.70897 0.0
S733 S 0.3877 0.11787 0.63736 0.0
N734 N 0.35945 0.12066 0.62665 0.0
N735 N 0.38463 0.11304 0.66696 0.0
C736 C 0.35972 0.11371 0.66931 0.0
C737 C 0.34606 0.11781 0.64744 0.0
C738 C 0.84916 0.30355 0.66338 0.0
C739 C 0.85302 0.30377 0.63799 0.0
C740 C 0.84738 0.32529 0.67661 0.0
C741 C 0.84954 0.34814 0.66501 0.0
H742 H 0.84924 0.28654 0.67342 0.0
H743 H 0.84611 0.32407 0.69632 0.0
S744 S 0.85361 0.35845 0.5981 0.0
N745 N 0.85427 0.32851 0.60114 0.0
N746 N 0.85105 0.36948 0.62605 0.0
C747 C 0.85038 0.34854 0.6393 0.0
C748 C 0.8521 0.3263 0.62577 0.0
C749 C 0.66095 0.87147 0.65688 0.0
C750 C 0.65465 0.86588 0.63254 0.0
C751 C 0.6428 0.8733 0.67488 0.0
C752 C 0.6177 0.86961 0.66916 0.0
H753 H 0.67986 0.87585 0.66186 0.0
H754 H 0.64842 0.8789 0.69308 0.0
S755 S 0.59213 0.84966 0.60924 0.0
N756 N 0.62201 0.85312 0.60445 0.0
N757 N 0.58788 0.85656 0.63827 0.0
C758 C 0.61138 0.86204 0.64535 0.0
C759 C 0.62986 0.86016 0.62704 0.0
C760 C 0.33827 0.12124 0.31152 0.0
C761 C 0.36378 0.1235 0.3157 0.0
C762 C 0.32146 0.12422 0.33061 0.0
C763 C 0.32959 0.12957 0.35452 0.0
H764 H 0.33128 0.11559 0.2938 0.0
H765 H 0.30211 0.12066 0.32686 0.0
S766 S 0.39413 0.14305 0.37355 0.0
N767 N 0.39612 0.13557 0.34441 0.0
N768 N 0.36451 0.14117 0.38029 0.0
C769 C 0.35487 0.13429 0.35833 0.0
C770 C 0.37198 0.13123 0.33891 0.0
C771 C 0.85795 0.32051 0.35294 0.0
C772 C 0.85191 0.29629 0.34625 0.0
C773 C 0.85808 0.33925 0.33551 0.0
C774 C 0.85218 0.33425 0.31095 0.0
H775 H 0.86506 0.32462 0.37102 0.0
H776 H 0.86531 0.35706 0.3408 0.0
S777 S 0.82781 0.27556 0.2861 0.0
N778 N 0.83443 0.26959 0.3149 0.0
N779 N 0.83474 0.30477 0.28218 0.0
C780 C 0.84269 0.31094 0.30497 0.0
C781 C 0.84253 0.29193 0.32266 0.0
C782 C 0.65795 0.86473 0.32923 0.0
C783 C 0.65103 0.86037 0.35361 0.0
C784 C 0.6402 0.86705 0.31084 0.0
C785 C 0.61487 0.86509 0.31617 0.0
H786 H 0.67712 0.86789 0.32449 0.0
H787 H 0.6464 0.87181 0.29264 0.0
S788 S 0.58744 0.84839 0.37607 0.0
N789 N 0.61738 0.85028 0.38135 0.0
N790 N 0.58398 0.85462 0.3468 0.0
C791 C 0.60783 0.8585 0.34002 0.0
C792 C 0.62592 0.85614 0.35874 0.0
C793 C 0.13529 0.66157 0.33392 0.0
C794 C 0.14129 0.66763 0.30966 0.0
C795 C 0.13246 0.67982 0.35163 0.0
C796 C 0.13554 0.70463 0.34556 0.0
H797 H 0.13032 0.64296 0.33873 0.0
H798 H 0.12544 0.67455 0.3694 0.0
S799 S 0.15883 0.72916 0.28671 0.0
N800 N 0.15582 0.69947 0.28205 0.0
N801 N 0.1505 0.73376 0.31532 0.0
C802 C 0.14503 0.71052 0.3224 0.0
C803 C 0.14792 0.69198 0.30441 0.0
C804 C 0.31076 0.85702 0.68913 0.0
C805 C 0.3345 0.85492 0.67913 0.0
C806 C 0.29015 0.86022 0.67418 0.0
C807 C 0.29241 0.86135 0.64861 0.0
H808 H 0.30814 0.8577 0.70873 0.0
H809 H 0.27255 0.86321 0.68288 0.0
S810 S 0.3496 0.8517 0.61307 0.0
N811 N 0.35847 0.85039 0.64189 0.0
N812 N 0.31965 0.85639 0.61377 0.0
C813 C 0.3156 0.85687 0.63826 0.0
C814 C 0.33668 0.85368 0.65352 0.0
C815 C 0.11927 0.36616 0.65405 0.0
C816 C 0.12318 0.3565 0.67748 0.0
C817 C 0.12038 0.35129 0.63325 0.0
C818 C 0.12554 0.32629 0.6352 0.0
H819 H 0.11321 0.38475 0.65187 0.0
H820 H 0.11526 0.35906 0.61583 0.0
S821 S 0.14393 0.29409 0.69182 0.0
N822 N 0.13721 0.32188 0.70101 0.0
N823 N 0.13968 0.29393 0.66195 0.0
C824 C 0.13257 0.31728 0.65822 0.0
C825 C 0.13128 0.3324 0.67938 0.0
C826 C 0.68092 0.12433 0.67339 0.0
C827 C 0.6789 0.12233 0.64785 0.0
C828 C 0.65998 0.12539 0.68817 0.0
C829 C 0.6361 0.12438 0.67806 0.0
H830 H 0.69878 0.12372 0.68222 0.0
H831 H 0.66265 0.12565 0.70778 0.0
S832 S 0.62087 0.12365 0.61187 0.0
N833 N 0.65126 0.12283 0.6128 0.0
N834 N 0.6118 0.12475 0.64061 0.0
C835 C 0.63385 0.12468 0.65241 0.0
C836 C 0.65528 0.12367 0.6373 0.0
C837 C 0.85991 0.64126 0.63305 0.0
C838 C 0.85533 0.66643 0.63374 0.0
C839 C 0.86186 0.62777 0.65462 0.0
C840 C 0.8594 0.63902 0.67759 0.0
H841 H 0.86391 0.63224 0.61593 0.0
H842 H 0.8673 0.60891 0.65323 0.0
S843 S 0.84059 0.7027 0.68906 0.0
N844 N 0.84324 0.70079 0.65909 0.0
N845 N 0.8473 0.67542 0.69962 0.0
C846 C 0.85189 0.66337 0.67842 0.0
C847 C 0.84972 0.67709 0.65646 0.0
C848 C 0.29638 0.3065 0.1342 0.0
C849 C 0.3015 0.33122 0.12914 0.0
C850 C 0.3148 0.28912 0.13274 0.0
C851 C 0.33907 0.29582 0.12627 0.0
H852 H 0.27765 0.30016 0.13752 0.0
H853 H 0.30957 0.27008 0.13502 0.0
S854 S 0.36324 0.35886 0.11686 0.0
N855 N 0.33345 0.36213 0.12167 0.0
N856 N 0.36818 0.32931 0.11897 0.0
C857 C 0.34509 0.32079 0.12413 0.0
C858 C 0.32624 0.33857 0.12556 0.0
C859 C 0.33734 0.65195 0.87189 0.0
C860 C 0.36234 0.64586 0.87 0.0
C861 C 0.31875 0.63393 0.87166 0.0
C862 C 0.32434 0.60904 0.86955 0.0
H863 H 0.33204 0.6707 0.87472 0.0
H864 H 0.29993 0.63958 0.87441 0.0
S865 S 0.38653 0.58377 0.85944 0.0
N866 N 0.39146 0.61343 0.86253 0.0
N867 N 0.35646 0.57952 0.86213 0.0
C868 C 0.34909 0.60283 0.86565 0.0
C869 C 0.36808 0.62124 0.86587 0.0
C870 C 0.2896 0.30727 0.86101 0.0
C871 C 0.28905 0.33291 0.86084 0.0
C872 C 0.31193 0.295 0.86015 0.0
C873 C 0.33461 0.30789 0.85919 0.0
H874 H 0.27279 0.29656 0.86346 0.0
H875 H 0.31136 0.27531 0.86193 0.0
S876 S 0.34288 0.37494 0.85246 0.0
N877 N 0.31282 0.37063 0.85522 0.0
N878 N 0.35486 0.34752 0.8537 0.0
C879 C 0.33417 0.33339 0.85633 0.0
C880 C 0.31136 0.34592 0.85711 0.0
C881 C 0.65454 0.32248 0.87471 0.0
C882 C 0.62992 0.32842 0.86981 0.0
C883 C 0.67308 0.34058 0.87585 0.0
C884 C 0.66772 0.36533 0.87215 0.0
H885 H 0.65941 0.30388 0.87894 0.0
H886 H 0.6915 0.33518 0.88088 0.0
S887 S 0.60706 0.3899 0.85415 0.0
N888 N 0.6018 0.36038 0.85786 0.0
N889 N 0.63664 0.39439 0.86007 0.0
C890 C 0.64355 0.37128 0.86537 0.0
C891 C 0.62466 0.35284 0.86418 0.0
C892 C 0.66543 0.63454 0.86409 0.0
C893 C 0.68881 0.64552 0.86079 0.0
C894 C 0.64418 0.64857 0.86451 0.0
C895 C 0.64555 0.67408 0.86154 0.0
H896 H 0.66361 0.61529 0.86833 0.0
H897 H 0.62682 0.63948 0.86881 0.0
S898 S 0.70176 0.7105 0.84588 0.0
N899 N 0.71167 0.6825 0.84986 0.0
N900 N 0.6717 0.70895 0.85041 0.0
C901 C 0.66849 0.6848 0.85532 0.0
C902 C 0.69015 0.67048 0.855 0.0
C903 C 0.68562 0.7006 0.13257 0.0
C904 C 0.66052 0.69499 0.12868 0.0
C905 C 0.70292 0.68217 0.13471 0.0
C906 C 0.6958 0.6574 0.13287 0.0
H907 H 0.69228 0.71937 0.13227 0.0
H908 H 0.72223 0.68749 0.13581 0.0
S909 S 0.63158 0.63307 0.1288 0.0
N910 N 0.62878 0.663 0.12772 0.0
N911 N 0.66139 0.62823 0.13162 0.0
C912 C 0.67043 0.65153 0.13207 0.0
C913 C 0.65274 0.67039 0.12997 0.0
C914 C 0.37778 0.6359 0.12547 0.0
C915 C 0.37132 0.66063 0.12658 0.0
C916 C 0.35978 0.61728 0.12547 0.0
C917 C 0.33453 0.62258 0.12662 0.0
H918 H 0.39683 0.63081 0.12321 0.0
H919 H 0.36575 0.59867 0.12326 0.0
S920 S 0.30812 0.68411 0.13483 0.0
N921 N 0.3381 0.68925 0.13255 0.0
N922 N 0.30421 0.65424 0.13259 0.0
C923 C 0.32791 0.6471 0.12994 0.0
C924 C 0.3463 0.66611 0.12991 0.0
C925 C 0.67197 0.33146 0.12031 0.0
C926 C 0.66575 0.35556 0.12626 0.0
C927 C 0.65392 0.31287 0.11903 0.0
C928 C 0.62896 0.31765 0.12369 0.0
H929 H 0.69066 0.32715 0.11516 0.0
H930 H 0.65946 0.29494 0.11306 0.0
S931 S 0.60395 0.37659 0.14499 0.0
N932 N 0.63355 0.38239 0.14044 0.0
N933 N 0.59963 0.34748 0.1381 0.0
C934 C 0.62286 0.34119 0.13173 0.0
C935 C 0.64125 0.36013 0.133 0.0
C936 C 0.62193 0.85033 0.82695 0.0
C937 C 0.62691 0.84598 0.80213 0.0
C938 C 0.62414 0.83169 0.84424 0.0
C939 C 0.63137 0.80819 0.83717 0.0
H940 H 0.61401 0.86739 0.83272 0.0
H941 H 0.61784 0.8351 0.86268 0.0
S942 S 0.65374 0.78996 0.77596 0.0
N943 N 0.64478 0.81837 0.77247 0.0
N944 N 0.64888 0.78332 0.80498 0.0
C945 C 0.63973 0.80475 0.81316 0.0
C946 C 0.63751 0.8237 0.79559 0.0
C947 C 0.18986 0.61863 0.82193 0.0
C948 C 0.18712 0.61788 0.84746 0.0
C949 C 0.16961 0.62199 0.80655 0.0
C950 C 0.14573 0.62467 0.81607 0.0
H951 H 0.20754 0.61516 0.81359 0.0
H952 H 0.17258 0.621 0.78702 0.0
S953 S 0.12953 0.62913 0.88183 0.0
N954 N 0.15939 0.62388 0.88173 0.0
N955 N 0.12121 0.63023 0.85284 0.0
C956 C 0.14314 0.62641 0.84163 0.0
C957 C 0.16386 0.62302 0.85733 0.0
C958 C 0.36404 0.1272 0.85061 0.0
C959 C 0.35908 0.12496 0.82546 0.0
C960 C 0.36304 0.14988 0.86234 0.0
C961 C 0.35713 0.17106 0.84929 0.0
H962 H 0.37057 0.11179 0.86096 0.0
H963 H 0.36887 0.15105 0.88125 0.0
S964 S 0.33615 0.17382 0.78488 0.0
N965 N 0.3431 0.14496 0.78917 0.0
N966 N 0.34159 0.18762 0.81124 0.0
C967 C 0.34932 0.16857 0.82493 0.0
C968 C 0.35018 0.14547 0.81301 0.0
C969 C 0.8403 0.36447 0.82339 0.0
C970 C 0.8313 0.35963 0.7997 0.0
C971 C 0.82426 0.36481 0.84348 0.0
C972 C 0.79883 0.36029 0.84038 0.0
H973 H 0.85932 0.37023 0.82615 0.0
H974 H 0.83147 0.3709 0.86097 0.0
S975 S 0.7676 0.34001 0.78332 0.0
N976 N 0.7965 0.34531 0.7752 0.0
N977 N 0.76642 0.34586 0.81289 0.0
C978 C 0.79032 0.35232 0.81739 0.0
C979 C 0.80657 0.35203 0.79701 0.0
C980 C 0.64628 0.18797 0.16327 0.0
C981 C 0.63749 0.18245 0.13968 0.0
C982 C 0.64729 0.16998 0.18128 0.0
C983 C 0.63943 0.14585 0.17637 0.0
H984 H 0.65026 0.20672 0.16852 0.0
H985 H 0.65201 0.17558 0.19973 0.0
S986 S 0.6214 0.12077 0.11577 0.0
N987 N 0.62584 0.15027 0.11097 0.0
N988 N 0.62766 0.11635 0.14494 0.0
C989 C 0.63414 0.13939 0.15199 0.0
C990 C 0.63317 0.15778 0.13356 0.0
C991 C 0.8443 0.61096 0.17468 0.0
C992 C 0.86934 0.61275 0.16809 0.0
C993 C 0.82566 0.61278 0.15714 0.0
C994 C 0.83134 0.61646 0.13235 0.0
H995 H 0.839 0.60702 0.19335 0.0
H996 H 0.80673 0.61004 0.16293 0.0
S997 S 0.8938 0.6269 0.10632 0.0
N998 N 0.8987 0.62167 0.13559 0.0
N999 N 0.86363 0.62512 0.10261 0.0
C1000 C 0.85621 0.6201 0.12581 0.0
C1001 C 0.87521 0.61823 0.14367 0.0
C1002 C 0.3555 0.79909 0.16053 0.0
C1003 C 0.36018 0.79958 0.13528 0.0
C1004 C 0.3518 0.82061 0.17367 0.0
C1005 C 0.35283 0.84356 0.16213 0.0
H1006 H 0.35635 0.78212 0.17058 0.0
H1007 H 0.34996 0.81927 0.19332 0.0
S1008 S 0.3586 0.8542 0.09539 0.0
N1009 N 0.36114 0.8244 0.09849 0.0
N1010 N 0.35431 0.86498 0.12322 0.0
C1011 C 0.35457 0.84404 0.13646 0.0
C1012 C 0.35823 0.822 0.12302 0.0
C1013 C 0.1431 0.36971 0.15032 0.0
C1014 C 0.16874 0.36623 0.15075 0.0
C1015 C 0.12991 0.37344 0.17189 0.0
C1016 C 0.14186 0.37391 0.1947 0.0
H1017 H 0.13327 0.37094 0.13314 0.0
H1018 H 0.11047 0.37737 0.17049 0.0
S1019 S 0.20765 0.36074 0.20634 0.0
N1020 N 0.20483 0.3597 0.17633 0.0
N1021 N 0.17997 0.36695 0.21683 0.0
C1022 C 0.16701 0.36833 0.19562 0.0
C1023 C 0.18046 0.36439 0.17365 0.0
C1024 C 0.85395 0.62505 0.86165 0.0
C1025 C 0.82853 0.62555 0.85663 0.0
C1026 C 0.87117 0.6233 0.84286 0.0
C1027 C 0.86374 0.62207 0.81825 0.0
H1028 H 0.86065 0.62463 0.88029 0.0
H1029 H 0.89041 0.62175 0.84785 0.0
S1030 S 0.79975 0.62773 0.79505 0.0
N1031 N 0.797 0.62842 0.82506 0.0
N1032 N 0.8295 0.62512 0.78966 0.0
C1033 C 0.83859 0.6249 0.81281 0.0
C1034 C 0.82096 0.62666 0.83202 0.0
C1035 C 0.34116 0.79334 0.80648 0.0
C1036 C 0.34619 0.81793 0.81237 0.0
C1037 C 0.34343 0.775 0.82399 0.0
C1038 C 0.35084 0.78059 0.84803 0.0
H1039 H 0.33756 0.78792 0.78774 0.0
H1040 H 0.34149 0.75619 0.81804 0.0
S1041 S 0.35932 0.84267 0.8743 0.0
N1042 N 0.35367 0.84736 0.84505 0.0
N1043 N 0.35799 0.81279 0.87806 0.0
C1044 C 0.35239 0.80531 0.85499 0.0
C1045 C 0.35005 0.82406 0.83709 0.0
C1046 C 0.12239 0.35972 0.85947 0.0
C1047 C 0.14772 0.3575 0.85469 0.0
C1048 C 0.10555 0.36366 0.84062 0.0
C1049 C 0.11327 0.36552 0.81616 0.0
H1050 H 0.11557 0.35979 0.87805 0.0
H1051 H 0.08648 0.36645 0.84554 0.0
S1052 S 0.17679 0.356 0.79331 0.0
N1053 N 0.17918 0.35374 0.82328 0.0
N1054 N 0.14743 0.36114 0.78779 0.0
C1055 C 0.13817 0.36107 0.81085 0.0
C1056 C 0.1554 0.35703 0.83011 0.0
C1057 C 0.62743 0.14746 0.83359 0.0
C1058 C 0.63361 0.15202 0.80906 0.0
C1059 C 0.6268 0.16659 0.85065 0.0
C1060 C 0.63234 0.1908 0.84365 0.0
H1061 H 0.62062 0.12959 0.83909 0.0
H1062 H 0.61962 0.1627 0.86871 0.0
S1063 S 0.65666 0.21073 0.7835 0.0
N1064 N 0.65058 0.18129 0.78003 0.0
N1065 N 0.64948 0.2172 0.81206 0.0
C1066 C 0.64186 0.19486 0.82011 0.0
C1067 C 0.64247 0.17544 0.8028 0.0
C1068 C 0.82635 0.36044 0.19021 0.0
C1069 C 0.8501 0.3611 0.17987 0.0
C1070 C 0.80521 0.36162 0.17563 0.0
C1071 C 0.80688 0.36341 0.15008 0.0
H1072 H 0.82395 0.36027 0.20985 0.0
H1073 H 0.78749 0.36241 0.18464 0.0
S1074 S 0.86439 0.36136 0.11355 0.0
N1075 N 0.87386 0.36035 0.1422 0.0
N1076 N 0.83404 0.36249 0.11477 0.0
C1077 C 0.83035 0.36185 0.13931 0.0
C1078 C 0.85198 0.36072 0.15421 0.0
C1079 C 0.6227 0.86519 0.15437 0.0
C1080 C 0.62523 0.85459 0.17758 0.0
C1081 C 0.626 0.8514 0.1331 0.0
C1082 C 0.63203 0.82656 0.13436 0.0
H1083 H 0.6161 0.88363 0.15253 0.0
H1084 H 0.62183 0.85978 0.11571 0.0
S1085 S 0.64751 0.79244 0.1907 0.0
N1086 N 0.63894 0.81946 0.20057 0.0
N1087 N 0.64551 0.79356 0.16063 0.0
C1088 C 0.6377 0.81675 0.15741 0.0
C1089 C 0.63418 0.83077 0.17904 0.0
C1090 C 0.17652 0.62847 0.18771 0.0
C1091 C 0.15279 0.62919 0.17732 0.0
C1092 C 0.19742 0.62557 0.17318 0.0
C1093 C 0.1955 0.62342 0.14764 0.0
H1094 H 0.17898 0.62866 0.20736 0.0
H1095 H 0.21506 0.62364 0.18221 0.0
S1096 S 0.13828 0.62921 0.11098 0.0
N1097 N 0.12904 0.63126 0.13961 0.0
N1098 N 0.16843 0.62586 0.11227 0.0
C1099 C 0.17223 0.62653 0.13681 0.0
C1100 C 0.15085 0.62938 0.15166 0.0
C1101 C 0.3634 0.14015 0.13022 0.0
C1102 C 0.35958 0.16545 0.13119 0.0
C1103 C 0.36347 0.12613 0.15156 0.0
C1104 C 0.35982 0.13695 0.17457 0.0
H1105 H 0.36828 0.1314 0.11319 0.0
H1106 H 0.36848 0.10714 0.15011 0.0
S1107 S 0.34227 0.20099 0.18619 0.0
N1108 N 0.34691 0.19965 0.15643 0.0
N1109 N 0.34737 0.17327 0.19654 0.0
C1110 C 0.353 0.16153 0.17544 0.0
C1111 C 0.3528 0.1758 0.15372 0.0
C1112 C 0.80408 0.78998 0.63062 0.0
C1113 C 0.82871 0.79644 0.62536 0.0
C1114 C 0.78604 0.80772 0.63253 0.0
C1115 C 0.79191 0.83259 0.62909 0.0
H1116 H 0.79832 0.77097 0.6316 0.0
H1117 H 0.76706 0.80165 0.63475 0.0
S1118 S 0.85471 0.85939 0.62086 0.0
N1119 N 0.85887 0.82963 0.62127 0.0
N1120 N 0.82484 0.86309 0.62475 0.0
C1121 C 0.81694 0.83951 0.62688 0.0
C1122 C 0.8354 0.82137 0.625 0.0
C1123 C 0.86292 0.13451 0.37053 0.0
C1124 C 0.85662 0.1593 0.37002 0.0
C1125 C 0.84481 0.11603 0.3707 0.0
C1126 C 0.81959 0.12152 0.37036 0.0
H1127 H 0.882 0.12922 0.37194 0.0
H1128 H 0.85074 0.09735 0.37227 0.0
S1129 S 0.79332 0.18334 0.36448 0.0
N1130 N 0.8234 0.18825 0.36587 0.0
N1131 N 0.78929 0.15347 0.36617 0.0
C1132 C 0.81302 0.14614 0.36786 0.0
C1133 C 0.83154 0.16502 0.3677 0.0
C1134 C 0.79251 0.81059 0.35789 0.0
C1135 C 0.79293 0.83625 0.35806 0.0
C1136 C 0.81436 0.79751 0.35818 0.0
C1137 C 0.8375 0.80958 0.35874 0.0
H1138 H 0.77521 0.80046 0.35922 0.0
H1139 H 0.81295 0.77782 0.3596 0.0
S1140 S 0.84863 0.87642 0.35342 0.0
N1141 N 0.81834 0.87317 0.35436 0.0
N1142 N 0.85949 0.84855 0.35498 0.0
C1143 C 0.83819 0.83514 0.3562 0.0
C1144 C 0.81587 0.84849 0.35581 0.0
C1145 C 0.14694 0.83217 0.37434 0.0
C1146 C 0.12184 0.83814 0.37384 0.0
C1147 C 0.16541 0.8503 0.37383 0.0
C1148 C 0.15961 0.8752 0.3728 0.0
H1149 H 0.15248 0.81338 0.37612 0.0
H1150 H 0.18439 0.84468 0.3753 0.0
S1151 S 0.09678 0.90038 0.36719 0.0
N1152 N 0.09218 0.87061 0.36935 0.0
N1153 N 0.12694 0.90473 0.3684 0.0
C1154 C 0.13463 0.88137 0.37059 0.0
C1155 C 0.11575 0.86285 0.37113 0.0
C1156 C 0.16657 0.13981 0.36475 0.0
C1157 C 0.18966 0.1517 0.36247 0.0
C1158 C 0.14477 0.15303 0.36476 0.0
C1159 C 0.14527 0.17861 0.36242 0.0
H1160 H 0.16535 0.12041 0.36842 0.0
H1161 H 0.12762 0.14323 0.36831 0.0
S1162 S 0.20061 0.21744 0.34959 0.0
N1163 N 0.21145 0.18975 0.35325 0.0
N1164 N 0.17048 0.21466 0.35304 0.0
C1165 C 0.16802 0.19031 0.35728 0.0
C1166 C 0.19024 0.17682 0.35736 0.0
C1167 C 0.19508 0.18199 0.63558 0.0
C1168 C 0.18869 0.15722 0.63209 0.0
C1169 C 0.17724 0.2 0.63465 0.0
C1170 C 0.15231 0.19393 0.63034 0.0
H1171 H 0.21422 0.18778 0.63723 0.0
H1172 H 0.18332 0.21893 0.63565 0.0
S1173 S 0.12524 0.13138 0.62576 0.0
N1174 N 0.15518 0.12722 0.62846 0.0
N1175 N 0.12154 0.1612 0.62683 0.0
C1176 C 0.14526 0.1691 0.62981 0.0
C1177 C 0.1635 0.15068 0.63066 0.0
C1178 C 0.81356 0.15062 0.62194 0.0
C1179 C 0.81946 0.1262 0.62675 0.0
C1180 C 0.83185 0.169 0.62142 0.0
C1181 C 0.85676 0.16368 0.6257 0.0
H1182 H 0.7949 0.15544 0.61712 0.0
H1183 H 0.82654 0.18723 0.61626 0.0
S1184 S 0.8811 0.10361 0.64423 0.0
N1185 N 0.85139 0.09838 0.63959 0.0
N1186 N 0.88577 0.13291 0.63862 0.0
C1187 C 0.86257 0.13975 0.63266 0.0
C1188 C 0.84393 0.12103 0.63319 0.0
C1189 C 0.12913 0.86707 0.6213 0.0
C1190 C 0.15438 0.86198 0.62324 0.0
C1191 C 0.11124 0.84835 0.62133 0.0
C1192 C 0.11781 0.82372 0.62329 0.0
H1193 H 0.12308 0.88559 0.61858 0.0
H1194 H 0.09219 0.85328 0.61862 0.0
S1195 S 0.18102 0.80085 0.6333 0.0
N1196 N 0.18479 0.83067 0.63047 0.0
N1197 N 0.15111 0.79546 0.63051 0.0
C1198 C 0.14282 0.81847 0.62715 0.0
C1199 C 0.1611 0.83758 0.62714 0.0
C1200 C 0.11215 0.24921 0.4789 0.0
C1201 C 0.0996 0.2288 0.46881 0.0
C1202 C 0.1149 0.25198 0.5042 0.0
C1203 C 0.10524 0.23445 0.52046 0.0
H1204 H 0.11941 0.26355 0.46722 0.0
H1205 H 0.12414 0.26832 0.51104 0.0
S1206 S 0.07303 0.17639 0.50345 0.0
N1207 N 0.07899 0.18984 0.47713 0.0
N1208 N 0.08419 0.19503 0.52464 0.0
C1209 C 0.0935 0.21347 0.51064 0.0
C1210 C 0.09066 0.21066 0.48485 0.0
C1211 C 0.77993 0.07705 0.51092 0.0
C1212 C 0.76058 0.08744 0.52419 0.0
C1213 C 0.77967 0.0764 0.48545 0.0
C1214 C 0.76007 0.0861 0.472 0.0
H1215 H 0.79522 0.06871 0.52027 0.0
H1216 H 0.7948 0.0676 0.47629 0.0
S1217 S 0.70582 0.1173 0.49778 0.0
N1218 N 0.72197 0.1092 0.52194 0.0
N1219 N 0.72151 0.10798 0.47379 0.0
C1220 C 0.74118 0.09776 0.4849 0.0
C1221 C 0.74144 0.09842 0.51104 0.0
C1222 C 0.8913 0.77116 0.47847 0.0
C1223 C 0.88066 0.75385 0.46238 0.0
C1224 C 0.88823 0.76926 0.50375 0.0
C1225 C 0.87442 0.74995 0.51412 0.0
H1226 H 0.90242 0.78626 0.47158 0.0
H1227 H 0.89716 0.78293 0.51524 0.0
S1228 S 0.84162 0.70033 0.48018 0.0
N1229 N 0.85486 0.71712 0.45872 0.0
N1230 N 0.84914 0.71358 0.50633 0.0
C1231 C 0.8631 0.7328 0.49831 0.0
C1232 C 0.86621 0.73474 0.47245 0.0
C1233 C 0.20159 0.91362 0.4833 0.0
C1234 C 0.22192 0.90419 0.47078 0.0
C1235 C 0.19993 0.91247 0.50868 0.0
C1236 C 0.21853 0.90185 0.52279 0.0
H1237 H 0.18696 0.92255 0.47348 0.0
H1238 H 0.18412 0.92061 0.51732 0.0
S1239 S 0.27472 0.87257 0.49885 0.0
N1240 N 0.26035 0.88233 0.47422 0.0
N1241 N 0.25727 0.88017 0.52225 0.0
C1242 C 0.2384 0.89112 0.51051 0.0
C1243 C 0.24008 0.89229 0.48444 0.0
C1244 C 0.06227 0.7802 0.51006 0.0
C1245 C 0.07771 0.76412 0.52261 0.0
C1246 C 0.06266 0.78197 0.48465 0.0
C1247 C 0.07851 0.76776 0.47043 0.0
H1248 H 0.04949 0.79156 0.51987 0.0
H1249 H 0.05017 0.79459 0.47613 0.0
S1250 S 0.12328 0.72315 0.49417 0.0
N1251 N 0.10984 0.73395 0.51886 0.0
N1252 N 0.11058 0.73729 0.47087 0.0
C1253 C 0.09444 0.75183 0.48266 0.0
C1254 C 0.09404 0.75001 0.50875 0.0
C1255 C 0.26164 0.13294 0.48638 0.0
C1256 C 0.24201 0.12351 0.4722 0.0
C1257 C 0.26089 0.13214 0.51193 0.0
C1258 C 0.24045 0.12191 0.52426 0.0
H1259 H 0.27811 0.14029 0.47773 0.0
H1260 H 0.27678 0.13895 0.52203 0.0
S1261 S 0.18294 0.09752 0.49558 0.0
N1262 N 0.2006 0.10562 0.47235 0.0
N1263 N 0.19914 0.10414 0.52035 0.0
C1264 C 0.22017 0.11351 0.51031 0.0
C1265 C 0.22096 0.1143 0.48429 0.0
C1266 C 0.91471 0.20559 0.50845 0.0
C1267 C 0.9 0.22172 0.52179 0.0
C1268 C 0.91484 0.2056 0.48295 0.0
C1269 C 0.90026 0.22174 0.46948 0.0
H1270 H 0.92659 0.19291 0.51772 0.0
H1271 H 0.92679 0.1929 0.47379 0.0
S1272 S 0.85752 0.26709 0.49545 0.0
N1273 N 0.86972 0.25386 0.51956 0.0
N1274 N 0.86995 0.25386 0.47145 0.0
C1275 C 0.88492 0.23762 0.48249 0.0
C1276 C 0.88479 0.2376 0.50864 0.0
C1277 C 0.75914 0.87806 0.48029 0.0
C1278 C 0.7421 0.86288 0.46776 0.0
C1279 C 0.75995 0.8786 0.50584 0.0
C1280 C 0.74375 0.86399 0.51982 0.0
H1281 H 0.77141 0.89028 0.47035 0.0
H1282 H 0.77277 0.89123 0.51464 0.0
S1283 S 0.69805 0.81857 0.49586 0.0
N1284 N 0.71039 0.83106 0.47124 0.0
N1285 N 0.71191 0.83206 0.51926 0.0
C1286 C 0.72762 0.84768 0.50753 0.0
C1287 C 0.72679 0.84713 0.4815 0.0
C1288 C 0.48586 0.1017 0.20798 0.0
C1289 C 0.47232 0.11551 0.22473 0.0
C1290 C 0.51164 0.10322 0.20744 0.0
C1291 C 0.52488 0.11861 0.22364 0.0
H1292 H 0.47656 0.0889 0.19574 0.0
H1293 H 0.52124 0.09153 0.19481 0.0
S1294 S 0.49796 0.16117 0.26868 0.0
N1295 N 0.47393 0.14702 0.25618 0.0
N1296 N 0.52238 0.14981 0.25518 0.0
C1297 C 0.51151 0.13363 0.23946 0.0
C1298 C 0.48524 0.13209 0.24 0.0
C1299 C 0.91811 0.49866 0.21598 0.0
C1300 C 0.90658 0.51327 0.23354 0.0
C1301 C 0.91556 0.47329 0.21632 0.0
C1302 C 0.90142 0.4612 0.23431 0.0
H1303 H 0.92945 0.50681 0.2018 0.0
H1304 H 0.92518 0.46309 0.20243 0.0
S1305 S 0.86648 0.49097 0.28402 0.0
N1306 N 0.87964 0.51386 0.26906 0.0
N1307 N 0.87495 0.46591 0.26978 0.0
C1308 C 0.88918 0.47554 0.25167 0.0
C1309 C 0.89174 0.50159 0.25128 0.0
C1310 C 0.49587 0.89002 0.20199 0.0
C1311 C 0.5066 0.87732 0.22144 0.0
C1312 C 0.47031 0.89204 0.20003 0.0
C1313 C 0.45433 0.88144 0.21744 0.0
H1314 H 0.50731 0.8992 0.18852 0.0
H1315 H 0.46314 0.90267 0.18505 0.0
S1316 S 0.47301 0.84383 0.27044 0.0
N1317 N 0.49924 0.85213 0.25737 0.0
N1318 N 0.4511 0.85597 0.25372 0.0
C1319 C 0.46473 0.86749 0.23626 0.0
C1320 C 0.49087 0.86542 0.23825 0.0
C1321 C 0.09282 0.51872 0.22649 0.0
C1322 C 0.10507 0.53469 0.24288 0.0
C1323 C 0.09337 0.49344 0.22949 0.0
C1324 C 0.10617 0.4829 0.24903 0.0
H1325 H 0.0824 0.52574 0.21123 0.0
H1326 H 0.08337 0.4821 0.21644 0.0
S1327 S 0.14217 0.51635 0.29666 0.0
N1328 N 0.13109 0.53799 0.27908 0.0
N1329 N 0.13212 0.49031 0.2847 0.0
C1330 C 0.119 0.49852 0.26532 0.0
C1331 C 0.11847 0.52441 0.26224 0.0
C1332 C 0.46889 0.8731 0.77967 0.0
C1333 C 0.45641 0.8585 0.76221 0.0
C1334 C 0.49448 0.87674 0.77874 0.0
C1335 C 0.50862 0.86591 0.76033 0.0
H1336 H 0.45876 0.8825 0.79377 0.0
H1337 H 0.50309 0.88875 0.79213 0.0
S1338 S 0.4853 0.82364 0.71199 0.0
N1339 N 0.46044 0.83141 0.72724 0.0
N1340 N 0.50854 0.83816 0.7255 0.0
C1341 C 0.49657 0.85021 0.74352 0.0
C1342 C 0.47048 0.84652 0.74447 0.0
C1343 C 0.09781 0.48806 0.74115 0.0
C1344 C 0.08678 0.47549 0.76083 0.0
C1345 C 0.10071 0.51359 0.74153 0.0
C1346 C 0.09275 0.52741 0.76164 0.0
H1347 H 0.10333 0.47823 0.72493 0.0
H1348 H 0.10832 0.5226 0.72557 0.0
S1349 S 0.06659 0.50273 0.81942 0.0
N1350 N 0.07055 0.47848 0.80207 0.0
N1351 N 0.07612 0.52622 0.80292 0.0
C1352 C 0.08311 0.51484 0.78202 0.0
C1353 C 0.08008 0.48896 0.78158 0.0
C1354 C 0.48551 0.0874 0.79107 0.0
C1355 C 0.46842 0.09489 0.7734 0.0
C1356 C 0.51058 0.09334 0.789 0.0
C1357 C 0.51974 0.10699 0.76913 0.0
H1358 H 0.47963 0.07636 0.80646 0.0
H1359 H 0.52296 0.08654 0.80284 0.0
S1360 S 0.48261 0.13288 0.71882 0.0
N1361 N 0.46231 0.11818 0.73605 0.0
N1362 N 0.50957 0.12924 0.7322 0.0
C1363 C 0.50281 0.1156 0.75186 0.0
C1364 C 0.47714 0.10955 0.75397 0.0
C1365 C 0.90098 0.50205 0.76796 0.0
C1366 C 0.89077 0.5191 0.75189 0.0
C1367 C 0.89474 0.47723 0.76639 0.0
C1368 C 0.87809 0.46827 0.7486 0.0
H1369 H 0.91408 0.50782 0.78188 0.0
H1370 H 0.90344 0.46493 0.77908 0.0
S1371 S 0.84542 0.50527 0.70251 0.0
N1372 N 0.8625 0.5253 0.7179 0.0
N1373 N 0.85089 0.4785 0.71494 0.0
C1374 C 0.86729 0.4851 0.73268 0.0
C1375 C 0.8736 0.51051 0.73432 0.0
C1376 C 0.2542 0.49425 0.11821 0.0
C1377 C 0.23613 0.51086 0.11109 0.0
C1378 C 0.25071 0.46909 0.11453 0.0
C1379 C 0.22902 0.4596 0.1036 0.0
H1380 H 0.27152 0.50075 0.12595 0.0
H1381 H 0.26542 0.45707 0.11975 0.0
S1382 S 0.17481 0.49534 0.08443 0.0
N1383 N 0.19491 0.51598 0.09456 0.0
N1384 N 0.18831 0.46882 0.08765 0.0
C1385 C 0.21037 0.476 0.09738 0.0
C1386 C 0.21393 0.50158 0.10113 0.0
C1387 C 0.23669 0.48694 0.87843 0.0
C1388 C 0.22075 0.504 0.88882 0.0
C1389 C 0.23286 0.46184 0.88185 0.0
C1390 C 0.21295 0.4528 0.89583 0.0
H1391 H 0.25269 0.49298 0.86811 0.0
H1392 H 0.24603 0.4495 0.87395 0.0
S1393 S 0.16429 0.48981 0.92474 0.0
N1394 N 0.18316 0.51006 0.91206 0.0
N1395 N 0.17597 0.46293 0.91854 0.0
C1396 C 0.19629 0.46964 0.90551 0.0
C1397 C 0.20018 0.49521 0.90198 0.0
C1398 C 0.47708 0.21917 0.88045 0.0
C1399 C 0.46372 0.2372 0.8682 0.0
C1400 C 0.50285 0.21925 0.8801 0.0
C1401 C 0.51636 0.23739 0.86751 0.0
H1402 H 0.46762 0.20515 0.89098 0.0
H1403 H 0.51221 0.20536 0.89043 0.0
S1404 S 0.49021 0.28734 0.83043 0.0
N1405 N 0.4659 0.27265 0.84156 0.0
N1406 N 0.51441 0.27282 0.84087 0.0
C1407 C 0.50325 0.25486 0.85418 0.0
C1408 C 0.47692 0.25477 0.85453 0.0
C1409 C 0.75003 0.51458 0.88186 0.0
C1410 C 0.76946 0.52533 0.89544 0.0
C1411 C 0.74847 0.4893 0.8782 0.0
C1412 C 0.76631 0.47374 0.88791 0.0
H1413 H 0.7355 0.52567 0.87449 0.0
H1414 H 0.73276 0.48188 0.86822 0.0
S1415 S 0.82237 0.49288 0.92256 0.0
N1416 N 0.808 0.51855 0.91704 0.0
N1417 N 0.80508 0.47108 0.91009 0.0
C1418 C 0.78641 0.48431 0.90064 0.0
C1419 C 0.78797 0.51006 0.90445 0.0
C1420 C 0.48295 0.76277 0.88325 0.0
C1421 C 0.4705 0.74419 0.87009 0.0
C1422 C 0.50869 0.76492 0.88293 0.0
C1423 C 0.523 0.74856 0.86944 0.0
H1424 H 0.47283 0.77532 0.89458 0.0
H1425 H 0.51742 0.77906 0.894 0.0
S1426 S 0.49926 0.69856 0.82941 0.0
N1427 N 0.47433 0.71049 0.84137 0.0
N1428 N 0.52272 0.71453 0.84078 0.0
C1429 C 0.51075 0.73071 0.85514 0.0
C1430 C 0.4845 0.72853 0.85545 0.0
C1431 C 0.77538 0.50724 0.09167 0.0
C1432 C 0.75839 0.52328 0.10209 0.0
C1433 C 0.77418 0.48221 0.09632 0.0
C1434 C 0.75584 0.472 0.1115 0.0
H1435 H 0.78979 0.51398 0.07964 0.0
H1436 H 0.78757 0.47074 0.08751 0.0
S1437 S 0.70738 0.50602 0.14417 0.0
N1438 N 0.72305 0.52722 0.12905 0.0
N1439 N 0.72072 0.47997 0.13771 0.0
C1440 C 0.73903 0.48781 0.12258 0.0
C1441 C 0.74031 0.51347 0.11789 0.0
C1442 C 0.52078 0.74658 0.11314 0.0
C1443 C 0.53055 0.76718 0.10093 0.0
C1444 C 0.49535 0.74368 0.11694 0.0
C1445 C 0.47876 0.76127 0.10867 0.0
H1446 H 0.53272 0.7321 0.11899 0.0
H1447 H 0.48859 0.72703 0.12548 0.0
S1448 S 0.49513 0.82028 0.07919 0.0
N1449 N 0.52175 0.80677 0.08312 0.0
N1450 N 0.47405 0.80123 0.09023 0.0
C1451 C 0.48839 0.78261 0.0978 0.0
C1452 C 0.51424 0.78559 0.09392 0.0
C1453 C 0.50423 0.2394 0.11623 0.0
C1454 C 0.51951 0.22049 0.10836 0.0
C1455 C 0.47869 0.23821 0.11234 0.0
C1456 C 0.46748 0.21806 0.10043 0.0
H1457 H 0.51213 0.25576 0.12449 0.0
H1458 H 0.46783 0.25366 0.11784 0.0
S1459 S 0.49892 0.16202 0.0799 0.0
N1460 N 0.5213 0.17981 0.09071 0.0
N1461 N 0.47338 0.17749 0.08342 0.0
C1462 C 0.4824 0.19835 0.09388 0.0
C1463 C 0.50838 0.19958 0.09786 0.0
C1464 C 0.60067 0.71939 0.00672 0.0
C1465 C 0.61474 0.73899 0.01637 0.0
C1466 C 0.59667 0.71694 0.98159 0.0
C1467 C 0.60661 0.73396 0.96491 0.0
H1468 H 0.59223 0.70592 0.01869 0.0
H1469 H 0.5854 0.70165 0.97528 0.0
S1470 S 0.64597 0.78804 0.98066 0.0
N1471 N 0.6395 0.7753 0.00723 0.0
N1472 N 0.63206 0.77074 0.95989 0.0
C1473 C 0.62133 0.75335 0.97423 0.0
C1474 C 0.62538 0.75585 -5e-05 0.0
C1475 C 0.28756 0.56864 0.98464 0.0
C1476 C 0.26786 0.57932 0.9721 0.0
C1477 C 0.28955 0.57009 0.01001 0.0
C1478 C 0.27193 0.58224 0.0241 0.0
H1479 H 0.30137 0.55852 0.97485 0.0
H1480 H 0.30478 0.56096 0.01866 0.0
S1481 S 0.21784 0.61512 9e-05 0.0
N1482 N 0.2312 0.60395 0.97552 0.0
N1483 N 0.23491 0.60664 0.02347 0.0
C1484 C 0.25278 0.59414 0.01177 0.0
C1485 C 0.25076 0.59268 0.98574 0.0
C1486 C 0.39685 0.27066 0.00451 0.0
C1487 C 0.38162 0.25242 0.01494 0.0
C1488 C 0.39855 0.27344 0.97917 0.0
C1489 C 0.38507 0.25811 0.96314 0.0
H1490 H 0.40799 0.28268 0.01598 0.0
H1491 H 0.41095 0.28747 0.97216 0.0
S1492 S 0.34101 0.20858 0.98124 0.0
N1493 N 0.35174 0.21959 0.00734 0.0
N1494 N 0.35482 0.22478 0.95969 0.0
C1495 C 0.36911 0.24027 0.97335 0.0
C1496 C 0.36741 0.23744 -0.00078 0.0
C1497 C 0.70717 0.40564 0.01208 0.0
C1498 C 0.72651 0.39605 0.02599 0.0
C1499 C 0.70814 0.40616 0.98664 0.0
C1500 C 0.72849 0.3971 0.97386 0.0
H1501 H 0.69131 0.41348 0.02091 0.0
H1502 H 0.69298 0.41436 0.97696 0.0
S1503 S 0.78308 0.36803 0.00139 0.0
N1504 N 0.76596 0.37566 0.02502 0.0
N1505 N 0.76775 0.37664 0.97689 0.0
C1506 C 0.74739 0.38618 0.98735 0.0
C1507 C 0.74642 0.38566 0.01348 0.0
C1508 C 0.59674 0.24587 0.979 0.0
C1509 C 0.58615 0.26575 0.96687 0.0
C1510 C 0.59742 0.24477 0.00463 0.0
C1511 C 0.58755 0.26351 0.01901 0.0
H1512 H 0.60383 0.23068 0.96866 0.0
H1513 H 0.60494 0.22874 0.01318 0.0
S1514 S 0.56119 0.32123 -0.0038 0.0
N1515 N 0.56799 0.30578 0.97129 0.0
N1516 N 0.56929 0.30372 0.01921 0.0
C1517 C 0.5781 0.28405 0.00708 0.0
C1518 C 0.57739 0.28516 0.98109 0.0
C1519 C 0.7219 0.60536 0.00986 0.0
C1520 C 0.73788 0.62077 0.02336 0.0
C1521 C 0.72242 0.60519 0.9843 0.0
C1522 C 0.7389 0.62046 0.97132 0.0
H1523 H 0.70958 0.5926 0.01905 0.0
H1524 H 0.71042 0.59234 0.97472 0.0
S1525 S 0.78189 0.66684 -0.00189 0.0
N1526 N 0.7687 0.65359 0.0219 0.0
N1527 N 0.76967 0.65331 0.97386 0.0
C1528 C 0.75387 0.63705 0.98458 0.0
C1529 C 0.75335 0.6372 0.01061 0.0
C1530 C 0.39572 0.72818 0.98238 0.0
C1531 C 0.4072 0.70907 0.96981 0.0
C1532 C 0.39673 0.72981 0.00796 0.0
C1533 C 0.40928 0.71241 0.02189 0.0
H1534 H 0.38655 0.74243 0.97239 0.0
H1535 H 0.3883 0.74527 0.01677 0.0
S1536 S 0.43937 0.65693 -0.00198 0.0
N1537 N 0.42937 0.67105 0.97345 0.0
N1538 N 0.43127 0.67412 0.02132 0.0
C1539 C 0.41978 0.69257 0.0096 0.0
C1540 C 0.41874 0.69091 0.98363 0.0
C1541 C 0.22107 0.35237 0.01204 0.0
C1542 C 0.24226 0.36219 0.02358 0.0
C1543 C 0.21931 0.35122 0.98652 0.0
C1544 C 0.23865 0.35988 0.97161 0.0
H1545 H 0.20538 0.34621 0.02274 0.0
H1546 H 0.20231 0.34428 0.97846 0.0
S1547 S 0.29935 0.38431 0.9928 0.0
N1548 N 0.2839 0.37858 0.01814 0.0
N1549 N 0.28057 0.37644 0.97024 0.0
C1550 C 0.26042 0.36859 0.98292 0.0
C1551 C 0.26222 0.36974 0.00889 0.0
C1552 C 0.01339 0.63069 0.74691 0.0
C1553 C 0.02705 0.62039 0.72785 0.0
C1554 C 0.98762 0.62924 0.74696 0.0
C1555 C 0.9745 0.61748 0.72794 0.0
H1556 H 0.02263 0.63913 0.76242 0.0
H1557 H 0.97797 0.63676 0.7625 0.0
S1558 S 0.00151 0.59047 0.67208 0.0
N1559 N 0.02553 0.60015 0.68821 0.0
N1560 N 0.97704 0.59745 0.68834 0.0
C1561 C 0.98788 0.60832 0.70808 0.0
C1562 C 0.01415 0.60978 0.70802 0.0
C1563 C 0.39509 0.96509 0.72722 0.0
C1564 C 0.38269 0.94952 0.74375 0.0
C1565 C 0.39453 0.99043 0.72974 0.0
C1566 C 0.38159 0.00142 0.74892 0.0
H1567 H 0.4056 0.95771 0.71221 0.0
H1568 H 0.40463 0.00146 0.7166 0.0
S1569 S 0.34522 0.96913 0.79675 0.0
N1570 N 0.35641 0.94707 0.7797 0.0
N1571 N 0.35538 -0.00513 0.78443 0.0
C1572 C 0.36863 0.98621 0.76535 0.0
C1573 C 0.36917 0.96025 0.76277 0.0
C1574 C 0.99223 0.37431 0.7371 0.0
C1575 C 0.00795 0.38452 0.71927 0.0
C1576 C 0.96659 0.37575 0.73498 0.0
C1577 C 0.95567 0.38745 0.71496 0.0
H1578 H -0.00025 0.36598 0.75332 0.0
H1579 H 0.95534 0.36852 0.7497 0.0
S1580 S 0.98866 0.41372 0.66141 0.0
N1581 N 0.01077 0.40427 0.67962 0.0
N1582 N 0.96258 0.40694 0.67554 0.0
C1583 C 0.97116 0.39636 0.69623 0.0
C1584 C -0.00271 0.39491 0.69842 0.0
C1585 C 0.59309 0.98362 0.75103 0.0
C1586 C 0.58342 0.97119 0.73049 0.0
C1587 C 0.59579 0.00919 0.7512 0.0
C1588 C 0.589 0.02312 0.73079 0.0
H1589 H 0.59771 0.97365 0.76742 0.0
H1590 H 0.60221 0.01812 0.76777 0.0
S1591 S 0.56691 -0.00105 0.67102 0.0
N1592 N 0.56992 0.97453 0.68825 0.0
N1593 N 0.57513 0.02231 0.68848 0.0
C1594 C 0.58082 0.01072 0.70963 0.0
C1595 C 0.57798 0.98484 0.70951 0.0
C1596 C 0.97722 0.38946 0.2904 0.0
C1597 C 0.96786 0.3763 0.27018 0.0
C1598 C 0.00222 0.39584 0.29224 0.0
C1599 C 0.01906 0.38927 0.27399 0.0
H1600 H 0.96503 0.39557 0.30471 0.0
H1601 H 0.00824 0.40646 0.30794 0.0
S1602 S 0.00437 0.35291 0.21822 0.0
N1603 N 0.97763 0.35553 0.23222 0.0
N1604 N 0.02479 0.3674 0.23566 0.0
C1605 C 0.01019 0.37508 0.25418 0.0
C1606 C 0.98458 0.36861 0.2523 0.0
C1607 C 0.57158 0.01178 0.27289 0.0
C1608 C 0.58759 0.02379 0.25643 0.0
C1609 C 0.56886 0.98638 0.27301 0.0
C1610 C 0.58206 0.9717 0.25672 0.0
H1611 H 0.56063 0.02204 0.28569 0.0
H1612 H 0.55601 0.97828 0.28591 0.0
S1613 S 0.62741 -0.00619 0.21063 0.0
N1614 N 0.61763 0.01889 0.2239 0.0
N1615 N 0.61257 0.97101 0.22416 0.0
C1616 C 0.59871 0.98333 0.24056 0.0
C1617 C 0.60146 0.00936 0.24041 0.0
C1618 C 0.01748 0.63294 0.24071 0.0
C1619 C 0.03129 0.62615 0.26126 0.0
C1620 C 0.99185 0.62953 0.24007 0.0
C1621 C 0.97902 0.61918 0.25997 0.0
H1622 H 0.02658 0.64011 0.22458 0.0
H1623 H 0.98217 0.6343 0.22348 0.0
S1624 S 0.00618 0.60145 0.31944 0.0
N1625 N 0.02996 0.6109 0.30299 0.0
N1626 N 0.98177 0.60444 0.30173 0.0
C1627 C 0.99242 0.61357 0.28116 0.0
C1628 C 0.01855 0.61707 0.28182 0.0
C1629 C 0.37521 0.00743 0.23221 0.0
C1630 C 0.38932 0.01656 0.25198 0.0
C1631 C 0.36941 0.98244 0.23003 0.0
C1632 C 0.37742 0.96566 0.2476 0.0
H1633 H 0.36912 0.01956 0.21792 0.0
H1634 H 0.35916 0.97619 0.21413 0.0
S1635 S 0.41234 0.98056 0.30437 0.0
N1636 N 0.4094 0.00702 0.29047 0.0
N1637 N 0.39843 0.96026 0.28651 0.0
C1638 C 0.39063 0.97471 0.26799 0.0
C1639 C 0.39661 8e-05 0.27014 0.0
C1640 C 0.74306 -0.00282 0.61611 0.0
C1641 C 0.72459 0.01303 0.6082 0.0
C1642 C 0.74127 0.97203 0.61148 0.0
C1643 C 0.721 0.96182 0.59871 0.0
H1644 H 0.75939 0.00431 0.62527 0.0
H1645 H 0.75623 0.96062 0.61738 0.0
S1646 S 0.66623 -0.00487 0.57684 0.0
N1647 N 0.68436 0.01645 0.58896 0.0
N1648 N 0.68101 0.96932 0.5802 0.0
C1649 C 0.70191 0.97737 0.59165 0.0
C1650 C 0.7037 0.00291 0.59643 0.0
C1651 C 0.70584 -0.00063 0.40071 0.0
C1652 C 0.72402 0.0093 0.38516 0.0
C1653 C 0.70315 0.97416 0.4039 0.0
C1654 C 0.71847 0.95775 0.39161 0.0
H1655 H 0.69382 0.01114 0.41097 0.0
H1656 H 0.68909 0.96756 0.41639 0.0
S1657 S 0.76804 0.97438 0.34757 0.0
N1658 N 0.7569 0.00077 0.35641 0.0
N1659 N 0.75187 0.95331 0.36233 0.0
C1660 C 0.73626 0.9674 0.37537 0.0
C1661 C 0.73903 0.99316 0.37217 0.0
C1662 C 0.9746 0.75629 0.35889 0.0
C1663 C 0.96213 0.73543 0.36785 0.0
C1664 C 0.00037 0.75808 0.35928 0.0
C1665 C 0.01467 0.73908 0.36862 0.0
H1666 H 0.96441 0.77176 0.35233 0.0
H1667 H 0.00905 0.77489 0.35301 0.0
S1668 S 0.99108 0.67918 0.39104 0.0
N1669 N 0.96608 0.69436 0.38402 0.0
N1670 N 0.01453 0.69773 0.38471 0.0
C1671 C 0.00249 0.71755 0.37633 0.0
C1672 C 0.97622 0.71573 0.37596 0.0
C1673 C 0.2487 0.02148 0.38035 0.0
C1674 C 0.26886 0.0312 0.39366 0.0
C1675 C 0.24597 -0.00367 0.37635 0.0
C1676 C 0.26329 0.97989 0.38546 0.0
H1677 H 0.23451 0.0333 0.37348 0.0
H1678 H 0.22974 0.98972 0.36664 0.0
S1679 S 0.32088 -0.00387 0.41902 0.0
N1680 N 0.30753 0.02249 0.41422 0.0
N1681 N 0.30239 0.97525 0.40665 0.0
C1682 C 0.28411 0.98941 0.39786 0.0
C1683 C 0.28687 0.01503 0.40199 0.0
C1684 C 0.00747 0.23514 0.36278 0.0
C1685 C 0.02064 0.2545 0.37399 0.0
C1686 C 0.98167 0.23482 0.36195 0.0
C1687 C 0.96808 0.25387 0.37226 0.0
H1688 H 0.01707 0.21964 0.35537 0.0
H1689 H 0.97234 0.21906 0.35396 0.0
S1690 S -0.00608 0.31045 0.40058 0.0
N1691 N 0.01829 0.29441 0.39335 0.0
N1692 N 0.96981 0.29383 0.39175 0.0
C1693 C 0.98107 0.27401 0.38224 0.0
C1694 C 0.00734 0.27432 0.38312 0.0
C1695 C 0.23592 0.01581 0.61423 0.0
C1696 C 0.25759 0.02573 0.60381 0.0
C1697 C 0.23298 0.99058 0.61783 0.0
C1698 C 0.25162 0.97438 0.61117 0.0
H1699 H 0.22081 0.0275 0.61903 0.0
H1700 H 0.21565 0.9837 0.62513 0.0
S1701 S 0.31316 0.99129 0.58618 0.0
N1702 N 0.29891 0.01746 0.58899 0.0
N1703 N 0.29335 0.97022 0.59577 0.0
C1704 C 0.2738 0.98416 0.60181 0.0
C1705 C 0.27679 0.00977 0.59811 0.0
C1706 C 0.97906 0.27881 0.59906 0.0
C1707 C 0.96884 0.25939 0.61268 0.0
C1708 C 0.00449 0.28125 0.59562 0.0
C1709 C 0.0209 0.2644 0.60569 0.0
H1710 H 0.96728 0.29192 0.59029 0.0
H1711 H 0.01123 0.29619 0.5844 0.0
S1712 S 0.00375 0.21159 0.64499 0.0
N1713 N 0.97721 0.224 0.63792 0.0
N1714 N 0.02515 0.22857 0.63148 0.0
C1715 C 0.01106 0.24559 0.62047 0.0
C1716 C 0.98503 0.2431 0.62396 0.0
C1717 C 0.00034 0.70632 0.59831 0.0
C1718 C 0.01073 0.72522 0.61265 0.0
C1719 C 0.97507 0.70517 0.59332 0.0
C1720 C 0.959 0.72282 0.60253 0.0
H1721 H 0.01191 0.69265 0.59013 0.0
H1722 H 0.96823 0.69054 0.58166 0.0
S1723 S 0.97654 0.7747 0.64325 0.0
N1724 N 0.00275 0.76097 0.63765 0.0
N1725 N 0.95514 0.75884 0.62832 0.0
C1726 C 0.96894 0.74116 0.61796 0.0
C1727 C -0.00521 0.74234 0.62302 0.0
loop_
_geom_bond_atom_site_label_1
_geom_bond_atom_site_label_2
_geom_bond_distance
_geom_bond_site_symmetry_2
_ccdc_geom_bond_type
C0 O1 1.306 . S
C0 O3 1.160 . S
O1 C0 1.306 . S
O1 Cd2 2.228 . S
Cd2 O1 2.228 . S
Cd2 O6 2.273 . S
Cd2 O10 2.277 . S
O3 C0 1.160 . S
O3 Cd4 2.203 . S
Cd4 O3 2.203 . S
Cd4 O6 2.411 . S
Cd4 O7 2.333 . S
Cd4 O8 2.352 . S
Cd4 O12 2.277 . S
Cd4 O13 2.356 . S
C5 O10 1.209 . S
C5 O12 1.226 . S
O6 Cd2 2.273 . S
O6 Cd4 2.411 . S
O6 C9 1.320 . S
O7 Cd4 2.333 . S
O7 C9 1.214 . S
O8 Cd4 2.352 . S
O8 C11 1.258 . S
C9 O6 1.320 . S
C9 O7 1.214 . S
O10 Cd2 2.277 . S
O10 C5 1.209 . S
C11 O8 1.258 . S
C11 O13 1.282 . S
O12 Cd4 2.277 . S
O12 C5 1.226 . S
O13 Cd4 2.356 . S
O13 C11 1.282 . S
C14 O15 1.306 . S
C14 O17 1.160 . S
O15 C14 1.306 . S
O15 Cd16 2.228 . S
Cd16 O15 2.228 . S
Cd16 O20 2.273 . S
Cd16 O24 2.277 . S
O17 C14 1.160 . S
O17 Cd18 2.203 . S
Cd18 O17 2.203 . S
Cd18 O20 2.411 . S
Cd18 O21 2.333 . S
Cd18 O22 2.352 . S
Cd18 O26 2.277 . S
Cd18 O27 2.356 . S
C19 O24 1.209 . S
C19 O26 1.226 . S
O20 Cd16 2.273 . S
O20 Cd18 2.411 . S
O20 C23 1.320 . S
O21 Cd18 2.333 . S
O21 C23 1.214 . S
O22 Cd18 2.352 . S
O22 C25 1.258 . S
C23 O20 1.320 . S
C23 O21 1.214 . S
O24 Cd16 2.277 . S
O24 C19 1.209 . S
C25 O22 1.258 . S
C25 O27 1.282 . S
O26 Cd18 2.277 . S
O26 C19 1.226 . S
O27 Cd18 2.356 . S
O27 C25 1.282 . S
C28 O29 1.306 . S
C28 O31 1.160 . S
O29 C28 1.306 . S
O29 Cd30 2.228 . S
Cd30 O29 2.228 . S
Cd30 O34 2.273 . S
Cd30 O38 2.277 . S
O31 C28 1.160 . S
O31 Cd32 2.203 . S
Cd32 O31 2.203 . S
Cd32 O34 2.411 . S
Cd32 O35 2.333 . S
Cd32 O36 2.352 . S
Cd32 O40 2.277 . S
Cd32 O41 2.356 . S
C33 O38 1.209 . S
C33 O40 1.226 . S
O34 Cd30 2.273 . S
O34 Cd32 2.411 . S
O34 C37 1.320 . S
O35 Cd32 2.333 . S
O35 C37 1.214 . S
O36 Cd32 2.352 . S
O36 C39 1.258 . S
C37 O34 1.320 . S
C37 O35 1.214 . S
O38 Cd30 2.277 . S
O38 C33 1.209 . S
C39 O36 1.258 . S
C39 O41 1.282 . S
O40 Cd32 2.277 . S
O40 C33 1.226 . S
O41 Cd32 2.356 . S
O41 C39 1.282 . S
C42 O43 1.306 . S
C42 O45 1.160 . S
O43 C42 1.306 . S
O43 Cd44 2.228 . S
Cd44 O43 2.228 . S
Cd44 O48 2.273 . S
Cd44 O52 2.277 . S
O45 C42 1.160 . S
O45 Cd46 2.203 . S
Cd46 O45 2.203 . S
Cd46 O48 2.411 . S
Cd46 O49 2.333 . S
Cd46 O50 2.352 . S
Cd46 O54 2.277 . S
Cd46 O55 2.356 . S
C47 O52 1.209 . S
C47 O54 1.226 . S
O48 Cd44 2.273 . S
O48 Cd46 2.411 . S
O48 C51 1.320 . S
O49 Cd46 2.333 . S
O49 C51 1.214 . S
O50 Cd46 2.352 . S
O50 C53 1.258 . S
C51 O48 1.320 . S
C51 O49 1.214 . S
O52 Cd44 2.277 . S
O52 C47 1.209 . S
C53 O50 1.258 . S
C53 O55 1.282 . S
O54 Cd46 2.277 . S
O54 C47 1.226 . S
O55 Cd46 2.356 . S
O55 C53 1.282 . S
C56 O57 1.306 . S
C56 O59 1.160 . S
O57 C56 1.306 . S
O57 Cd58 2.228 . S
Cd58 O57 2.228 . S
Cd58 O62 2.273 . S
Cd58 O66 2.277 . S
O59 C56 1.160 . S
O59 Cd60 2.203 . S
Cd60 O59 2.203 . S
Cd60 O62 2.411 . S
Cd60 O63 2.333 . S
Cd60 O64 2.352 . S
Cd60 O68 2.277 . S
Cd60 O69 2.356 . S
C61 O66 1.209 . S
C61 O68 1.226 . S
O62 Cd58 2.273 . S
O62 Cd60 2.411 . S
O62 C65 1.320 . S
O63 Cd60 2.333 . S
O63 C65 1.214 . S
O64 Cd60 2.352 . S
O64 C67 1.258 . S
C65 O62 1.320 . S
C65 O63 1.214 . S
O66 Cd58 2.277 . S
O66 C61 1.209 . S
C67 O64 1.258 . S
C67 O69 1.282 . S
O68 Cd60 2.277 . S
O68 C61 1.226 . S
O69 Cd60 2.356 . S
O69 C67 1.282 . S
C70 O71 1.306 . S
C70 O73 1.160 . S
O71 C70 1.306 . S
O71 Cd72 2.228 . S
Cd72 O71 2.228 . S
Cd72 O76 2.273 . S
Cd72 O80 2.277 . S
O73 C70 1.160 . S
O73 Cd74 2.203 . S
Cd74 O73 2.203 . S
Cd74 O76 2.411 . S
Cd74 O77 2.333 . S
Cd74 O78 2.352 . S
Cd74 O82 2.277 . S
Cd74 O83 2.356 . S
C75 O80 1.209 . S
C75 O82 1.226 . S
O76 Cd72 2.273 . S
O76 Cd74 2.411 . S
O76 C79 1.320 . S
O77 Cd74 2.333 . S
O77 C79 1.214 . S
O78 Cd74 2.352 . S
O78 C81 1.258 . S
C79 O76 1.320 . S
C79 O77 1.214 . S
O80 Cd72 2.277 . S
O80 C75 1.209 . S
C81 O78 1.258 . S
C81 O83 1.282 . S
O82 Cd74 2.277 . S
O82 C75 1.226 . S
O83 Cd74 2.356 . S
O83 C81 1.282 . S
C84 O85 1.306 . S
C84 O87 1.160 . S
O85 C84 1.306 . S
O85 Cd86 2.228 . S
Cd86 O85 2.228 . S
Cd86 O90 2.273 . S
Cd86 O94 2.277 . S
O87 C84 1.160 . S
O87 Cd88 2.203 . S
Cd88 O87 2.203 . S
Cd88 O90 2.411 . S
Cd88 O91 2.333 . S
Cd88 O92 2.352 . S
Cd88 O96 2.277 . S
Cd88 O97 2.356 . S
C89 O94 1.209 . S
C89 O96 1.226 . S
O90 Cd86 2.273 . S
O90 Cd88 2.411 . S
O90 C93 1.320 . S
O91 Cd88 2.333 . S
O91 C93 1.214 . S
O92 Cd88 2.352 . S
O92 C95 1.258 . S
C93 O90 1.320 . S
C93 O91 1.214 . S
O94 Cd86 2.277 . S
O94 C89 1.209 . S
C95 O92 1.258 . S
C95 O97 1.282 . S
O96 Cd88 2.277 . S
O96 C89 1.226 . S
O97 Cd88 2.356 . S
O97 C95 1.282 . S
C98 O99 1.306 . S
C98 O101 1.160 . S
O99 C98 1.306 . S
O99 Cd100 2.228 . S
Cd100 O99 2.228 . S
Cd100 O104 2.273 . S
Cd100 O108 2.277 . S
O101 C98 1.160 . S
O101 Cd102 2.203 . S
Cd102 O101 2.203 . S
Cd102 O104 2.411 . S
Cd102 O105 2.333 . S
Cd102 O106 2.352 . S
Cd102 O110 2.277 . S
Cd102 O111 2.356 . S
C103 O108 1.209 . S
C103 O110 1.226 . S
O104 Cd100 2.273 . S
O104 Cd102 2.411 . S
O104 C107 1.320 . S
O105 Cd102 2.333 . S
O105 C107 1.214 . S
O106 Cd102 2.352 . S
O106 C109 1.258 . S
C107 O104 1.320 . S
C107 O105 1.214 . S
O108 Cd100 2.277 . S
O108 C103 1.209 . S
C109 O106 1.258 . S
C109 O111 1.282 . S
O110 Cd102 2.277 . S
O110 C103 1.226 . S
O111 Cd102 2.356 . S
O111 C109 1.282 . S
C112 O113 1.306 . S
C112 O115 1.160 . S
O113 C112 1.306 . S
O113 Cd114 2.228 . S
Cd114 O113 2.228 . S
Cd114 O118 2.273 . S
Cd114 O122 2.277 . S
O115 C112 1.160 . S
O115 Cd116 2.203 . S
Cd116 O115 2.203 . S
Cd116 O118 2.411 . S
Cd116 O119 2.333 . S
Cd116 O120 2.352 . S
Cd116 O124 2.277 . S
Cd116 O125 2.356 . S
C117 O122 1.209 . S
C117 O124 1.226 . S
O118 Cd114 2.273 . S
O118 Cd116 2.411 . S
O118 C121 1.320 . S
O119 Cd116 2.333 . S
O119 C121 1.214 . S
O120 Cd116 2.352 . S
O120 C123 1.258 . S
C121 O118 1.320 . S
C121 O119 1.214 . S
O122 Cd114 2.277 . S
O122 C117 1.209 . S
C123 O120 1.258 . S
C123 O125 1.282 . S
O124 Cd116 2.277 . S
O124 C117 1.226 . S
O125 Cd116 2.356 . S
O125 C123 1.282 . S
C126 O127 1.306 . S
C126 O129 1.160 . S
O127 C126 1.306 . S
O127 Cd128 2.228 . S
Cd128 O127 2.228 . S
Cd128 O132 2.273 . S
Cd128 O136 2.277 . S
O129 C126 1.160 . S
O129 Cd130 2.203 . S
Cd130 O129 2.203 . S
Cd130 O132 2.411 . S
Cd130 O133 2.333 . S
Cd130 O134 2.352 . S
Cd130 O138 2.277 . S
Cd130 O139 2.356 . S
C131 O136 1.209 . S
C131 O138 1.226 . S
O132 Cd128 2.273 . S
O132 Cd130 2.411 . S
O132 C135 1.320 . S
O133 Cd130 2.333 . S
O133 C135 1.214 . S
O134 Cd130 2.352 . S
O134 C137 1.258 . S
C135 O132 1.320 . S
C135 O133 1.214 . S
O136 Cd128 2.277 . S
O136 C131 1.209 . S
C137 O134 1.258 . S
C137 O139 1.282 . S
O138 Cd130 2.277 . S
O138 C131 1.226 . S
O139 Cd130 2.356 . S
O139 C137 1.282 . S
C140 O141 1.306 . S
C140 O143 1.160 . S
O141 C140 1.306 . S
O141 Cd142 2.228 . S
Cd142 O141 2.228 . S
Cd142 O146 2.273 . S
Cd142 O150 2.277 . S
O143 C140 1.160 . S
O143 Cd144 2.203 . S
Cd144 O143 2.203 . S
Cd144 O146 2.411 . S
Cd144 O147 2.333 . S
Cd144 O148 2.352 . S
Cd144 O152 2.277 . S
Cd144 O153 2.356 . S
C145 O150 1.209 . S
C145 O152 1.226 . S
O146 Cd142 2.273 . S
O146 Cd144 2.411 . S
O146 C149 1.320 . S
O147 Cd144 2.333 . S
O147 C149 1.214 . S
O148 Cd144 2.352 . S
O148 C151 1.258 . S
C149 O146 1.320 . S
C149 O147 1.214 . S
O150 Cd142 2.277 . S
O150 C145 1.209 . S
C151 O148 1.258 . S
C151 O153 1.282 . S
O152 Cd144 2.277 . S
O152 C145 1.226 . S
O153 Cd144 2.356 . S
O153 C151 1.282 . S
C154 O155 1.306 . S
C154 O157 1.160 . S
O155 C154 1.306 . S
O155 Cd156 2.228 . S
Cd156 O155 2.228 . S
Cd156 O160 2.273 . S
Cd156 O164 2.277 . S
O157 C154 1.160 . S
O157 Cd158 2.203 . S
Cd158 O157 2.203 . S
Cd158 O160 2.411 . S
Cd158 O161 2.333 . S
Cd158 O162 2.352 . S
Cd158 O166 2.277 . S
Cd158 O167 2.356 . S
C159 O164 1.209 . S
C159 O166 1.226 . S
O160 Cd156 2.273 . S
O160 Cd158 2.411 . S
O160 C163 1.320 . S
O161 Cd158 2.333 . S
O161 C163 1.214 . S
O162 Cd158 2.352 . S
O162 C165 1.258 . S
C163 O160 1.320 . S
C163 O161 1.214 . S
O164 Cd156 2.277 . S
O164 C159 1.209 . S
C165 O162 1.258 . S
C165 O167 1.282 . S
O166 Cd158 2.277 . S
O166 C159 1.226 . S
O167 Cd158 2.356 . S
O167 C165 1.282 . S
C168 O169 1.306 . S
C168 O171 1.160 . S
O169 C168 1.306 . S
O169 Cd170 2.228 . S
Cd170 O169 2.228 . S
Cd170 O174 2.273 . S
Cd170 O178 2.277 . S
O171 C168 1.160 . S
O171 Cd172 2.203 . S
Cd172 O171 2.203 . S
Cd172 O174 2.411 . S
Cd172 O175 2.333 . S
Cd172 O176 2.352 . S
Cd172 O180 2.277 . S
Cd172 O181 2.356 . S
C173 O178 1.209 . S
C173 O180 1.226 . S
O174 Cd170 2.273 . S
O174 Cd172 2.411 . S
O174 C177 1.320 . S
O175 Cd172 2.333 . S
O175 C177 1.214 . S
O176 Cd172 2.352 . S
O176 C179 1.258 . S
C177 O174 1.320 . S
C177 O175 1.214 . S
O178 Cd170 2.277 . S
O178 C173 1.209 . S
C179 O176 1.258 . S
C179 O181 1.282 . S
O180 Cd172 2.277 . S
O180 C173 1.226 . S
O181 Cd172 2.356 . S
O181 C179 1.282 . S
C182 O183 1.306 . S
C182 O185 1.160 . S
O183 C182 1.306 . S
O183 Cd184 2.228 . S
Cd184 O183 2.228 . S
Cd184 O188 2.273 . S
Cd184 O192 2.277 . S
O185 C182 1.160 . S
O185 Cd186 2.203 . S
Cd186 O185 2.203 . S
Cd186 O188 2.411 . S
Cd186 O189 2.333 . S
Cd186 O190 2.352 . S
Cd186 O194 2.277 . S
Cd186 O195 2.356 . S
C187 O192 1.209 . S
C187 O194 1.226 . S
O188 Cd184 2.273 . S
O188 Cd186 2.411 . S
O188 C191 1.320 . S
O189 Cd186 2.333 . S
O189 C191 1.214 . S
O190 Cd186 2.352 . S
O190 C193 1.258 . S
C191 O188 1.320 . S
C191 O189 1.214 . S
O192 Cd184 2.277 . S
O192 C187 1.209 . S
C193 O190 1.258 . S
C193 O195 1.282 . S
O194 Cd186 2.277 . S
O194 C187 1.226 . S
O195 Cd186 2.356 . S
O195 C193 1.282 . S
C196 O197 1.306 . S
C196 O199 1.160 . S
O197 C196 1.306 . S
O197 Cd198 2.228 . S
Cd198 O197 2.228 . S
Cd198 O202 2.273 . S
Cd198 O206 2.277 . S
O199 C196 1.160 . S
O199 Cd200 2.203 . S
Cd200 O199 2.203 . S
Cd200 O202 2.411 . S
Cd200 O203 2.333 . S
Cd200 O204 2.352 . S
Cd200 O208 2.277 . S
Cd200 O209 2.356 . S
C201 O206 1.209 . S
C201 O208 1.226 . S
O202 Cd198 2.273 . S
O202 Cd200 2.411 . S
O202 C205 1.320 . S
O203 Cd200 2.333 . S
O203 C205 1.214 . S
O204 Cd200 2.352 . S
O204 C207 1.258 . S
C205 O202 1.320 . S
C205 O203 1.214 . S
O206 Cd198 2.277 . S
O206 C201 1.209 . S
C207 O204 1.258 . S
C207 O209 1.282 . S
O208 Cd200 2.277 . S
O208 C201 1.226 . S
O209 Cd200 2.356 . S
O209 C207 1.282 . S
C210 O211 1.306 . S
C210 O213 1.160 . S
O211 C210 1.306 . S
O211 Cd212 2.228 . S
Cd212 O211 2.228 . S
Cd212 O216 2.273 . S
Cd212 O220 2.277 . S
O213 C210 1.160 . S
O213 Cd214 2.203 . S
Cd214 O213 2.203 . S
Cd214 O216 2.411 . S
Cd214 O217 2.333 . S
Cd214 O218 2.352 . S
Cd214 O222 2.277 . S
Cd214 O223 2.356 . S
C215 O220 1.209 . S
C215 O222 1.226 . S
O216 Cd212 2.273 . S
O216 Cd214 2.411 . S
O216 C219 1.320 . S
O217 Cd214 2.333 . S
O217 C219 1.214 . S
O218 Cd214 2.352 . S
O218 C221 1.258 . S
C219 O216 1.320 . S
C219 O217 1.214 . S
O220 Cd212 2.277 . S
O220 C215 1.209 . S
C221 O218 1.258 . S
C221 O223 1.282 . S
O222 Cd214 2.277 . S
O222 C215 1.226 . S
O223 Cd214 2.356 . S
O223 C221 1.282 . S
C224 O225 1.306 . S
C224 O227 1.160 . S
O225 C224 1.306 . S
O225 Cd226 2.228 . S
Cd226 O225 2.228 . S
Cd226 O230 2.273 . S
Cd226 O234 2.277 . S
O227 C224 1.160 . S
O227 Cd228 2.203 . S
Cd228 O227 2.203 . S
Cd228 O230 2.411 . S
Cd228 O231 2.333 . S
Cd228 O232 2.352 . S
Cd228 O236 2.277 . S
Cd228 O237 2.356 . S
C229 O234 1.209 . S
C229 O236 1.226 . S
O230 Cd226 2.273 . S
O230 Cd228 2.411 . S
O230 C233 1.320 . S
O231 Cd228 2.333 . S
O231 C233 1.214 . S
O232 Cd228 2.352 . S
O232 C235 1.258 . S
C233 O230 1.320 . S
C233 O231 1.214 . S
O234 Cd226 2.277 . S
O234 C229 1.209 . S
C235 O232 1.258 . S
C235 O237 1.282 . S
O236 Cd228 2.277 . S
O236 C229 1.226 . S
O237 Cd228 2.356 . S
O237 C235 1.282 . S
C238 O239 1.306 . S
C238 O241 1.160 . S
O239 C238 1.306 . S
O239 Cd240 2.228 . S
Cd240 O239 2.228 . S
Cd240 O244 2.273 . S
Cd240 O248 2.277 . S
O241 C238 1.160 . S
O241 Cd242 2.203 . S
Cd242 O241 2.203 . S
Cd242 O244 2.411 . S
Cd242 O245 2.333 . S
Cd242 O246 2.352 . S
Cd242 O250 2.277 . S
Cd242 O251 2.356 . S
C243 O248 1.209 . S
C243 O250 1.226 . S
O244 Cd240 2.273 . S
O244 Cd242 2.411 . S
O244 C247 1.320 . S
O245 Cd242 2.333 . S
O245 C247 1.214 . S
O246 Cd242 2.352 . S
O246 C249 1.258 . S
C247 O244 1.320 . S
C247 O245 1.214 . S
O248 Cd240 2.277 . S
O248 C243 1.209 . S
C249 O246 1.258 . S
C249 O251 1.282 . S
O250 Cd242 2.277 . S
O250 C243 1.226 . S
O251 Cd242 2.356 . S
O251 C249 1.282 . S
C252 O253 1.306 . S
C252 O255 1.160 . S
O253 C252 1.306 . S
O253 Cd254 2.228 . S
Cd254 O253 2.228 . S
Cd254 O258 2.273 . S
Cd254 O262 2.277 . S
O255 C252 1.160 . S
O255 Cd256 2.203 . S
Cd256 O255 2.203 . S
Cd256 O258 2.411 . S
Cd256 O259 2.333 . S
Cd256 O260 2.352 . S
Cd256 O264 2.277 . S
Cd256 O265 2.356 . S
C257 O262 1.209 . S
C257 O264 1.226 . S
O258 Cd254 2.273 . S
O258 Cd256 2.411 . S
O258 C261 1.320 . S
O259 Cd256 2.333 . S
O259 C261 1.214 . S
O260 Cd256 2.352 . S
O260 C263 1.258 . S
C261 O258 1.320 . S
C261 O259 1.214 . S
O262 Cd254 2.277 . S
O262 C257 1.209 . S
C263 O260 1.258 . S
C263 O265 1.282 . S
O264 Cd256 2.277 . S
O264 C257 1.226 . S
O265 Cd256 2.356 . S
O265 C263 1.282 . S
C266 O267 1.306 . S
C266 O269 1.160 . S
O267 C266 1.306 . S
O267 Cd268 2.228 . S
Cd268 O267 2.228 . S
Cd268 O272 2.273 . S
Cd268 O276 2.277 . S
O269 C266 1.160 . S
O269 Cd270 2.203 . S
Cd270 O269 2.203 . S
Cd270 O272 2.411 . S
Cd270 O273 2.333 . S
Cd270 O274 2.352 . S
Cd270 O278 2.277 . S
Cd270 O279 2.356 . S
C271 O276 1.209 . S
C271 O278 1.226 . S
O272 Cd268 2.273 . S
O272 Cd270 2.411 . S
O272 C275 1.320 . S
O273 Cd270 2.333 . S
O273 C275 1.214 . S
O274 Cd270 2.352 . S
O274 C277 1.258 . S
C275 O272 1.320 . S
C275 O273 1.214 . S
O276 Cd268 2.277 . S
O276 C271 1.209 . S
C277 O274 1.258 . S
C277 O279 1.282 . S
O278 Cd270 2.277 . S
O278 C271 1.226 . S
O279 Cd270 2.356 . S
O279 C277 1.282 . S
C280 O281 1.306 . S
C280 O283 1.160 . S
O281 C280 1.306 . S
O281 Cd282 2.228 . S
Cd282 O281 2.228 . S
Cd282 O286 2.273 . S
Cd282 O290 2.277 . S
O283 C280 1.160 . S
O283 Cd284 2.203 . S
Cd284 O283 2.203 . S
Cd284 O286 2.411 . S
Cd284 O287 2.333 . S
Cd284 O288 2.352 . S
Cd284 O292 2.277 . S
Cd284 O293 2.356 . S
C285 O290 1.209 . S
C285 O292 1.226 . S
O286 Cd282 2.273 . S
O286 Cd284 2.411 . S
O286 C289 1.320 . S
O287 Cd284 2.333 . S
O287 C289 1.214 . S
O288 Cd284 2.352 . S
O288 C291 1.258 . S
C289 O286 1.320 . S
C289 O287 1.214 . S
O290 Cd282 2.277 . S
O290 C285 1.209 . S
C291 O288 1.258 . S
C291 O293 1.282 . S
O292 Cd284 2.277 . S
O292 C285 1.226 . S
O293 Cd284 2.356 . S
O293 C291 1.282 . S
C294 O295 1.306 . S
C294 O297 1.160 . S
O295 C294 1.306 . S
O295 Cd296 2.228 . S
Cd296 O295 2.228 . S
Cd296 O300 2.273 . S
Cd296 O304 2.277 . S
O297 C294 1.160 . S
O297 Cd298 2.203 . S
Cd298 O297 2.203 . S
Cd298 O300 2.411 . S
Cd298 O301 2.333 . S
Cd298 O302 2.352 . S
Cd298 O306 2.277 . S
Cd298 O307 2.356 . S
C299 O304 1.209 . S
C299 O306 1.226 . S
O300 Cd296 2.273 . S
O300 Cd298 2.411 . S
O300 C303 1.320 . S
O301 Cd298 2.333 . S
O301 C303 1.214 . S
O302 Cd298 2.352 . S
O302 C305 1.258 . S
C303 O300 1.320 . S
C303 O301 1.214 . S
O304 Cd296 2.277 . S
O304 C299 1.209 . S
C305 O302 1.258 . S
C305 O307 1.282 . S
O306 Cd298 2.277 . S
O306 C299 1.226 . S
O307 Cd298 2.356 . S
O307 C305 1.282 . S
C308 O309 1.306 . S
C308 O311 1.160 . S
O309 C308 1.306 . S
O309 Cd310 2.228 . S
Cd310 O309 2.228 . S
Cd310 O314 2.273 . S
Cd310 O318 2.277 . S
O311 C308 1.160 . S
O311 Cd312 2.203 . S
Cd312 O311 2.203 . S
Cd312 O314 2.411 . S
Cd312 O315 2.333 . S
Cd312 O316 2.352 . S
Cd312 O320 2.277 . S
Cd312 O321 2.356 . S
C313 O318 1.209 . S
C313 O320 1.226 . S
O314 Cd310 2.273 . S
O314 Cd312 2.411 . S
O314 C317 1.320 . S
O315 Cd312 2.333 . S
O315 C317 1.214 . S
O316 Cd312 2.352 . S
O316 C319 1.258 . S
C317 O314 1.320 . S
C317 O315 1.214 . S
O318 Cd310 2.277 . S
O318 C313 1.209 . S
C319 O316 1.258 . S
C319 O321 1.282 . S
O320 Cd312 2.277 . S
O320 C313 1.226 . S
O321 Cd312 2.356 . S
O321 C319 1.282 . S
C322 O323 1.306 . S
C322 O325 1.160 . S
O323 C322 1.306 . S
O323 Cd324 2.228 . S
Cd324 O323 2.228 . S
Cd324 O328 2.273 . S
Cd324 O332 2.277 . S
O325 C322 1.160 . S
O325 Cd326 2.203 . S
Cd326 O325 2.203 . S
Cd326 O328 2.411 . S
Cd326 O329 2.333 . S
Cd326 O330 2.352 . S
Cd326 O334 2.277 . S
Cd326 O335 2.356 . S
C327 O332 1.209 . S
C327 O334 1.226 . S
O328 Cd324 2.273 . S
O328 Cd326 2.411 . S
O328 C331 1.320 . S
O329 Cd326 2.333 . S
O329 C331 1.214 . S
O330 Cd326 2.352 . S
O330 C333 1.258 . S
C331 O328 1.320 . S
C331 O329 1.214 . S
O332 Cd324 2.277 . S
O332 C327 1.209 . S
C333 O330 1.258 . S
C333 O335 1.282 . S
O334 Cd326 2.277 . S
O334 C327 1.226 . S
O335 Cd326 2.356 . S
O335 C333 1.282 . S
C336 O337 1.306 . S
C336 O339 1.160 . S
O337 C336 1.306 . S
O337 Cd338 2.228 . S
Cd338 O337 2.228 . S
Cd338 O342 2.273 . S
Cd338 O346 2.277 . S
O339 C336 1.160 . S
O339 Cd340 2.203 . S
Cd340 O339 2.203 . S
Cd340 O342 2.411 . S
Cd340 O343 2.333 . S
Cd340 O344 2.352 . S
Cd340 O348 2.277 . S
Cd340 O349 2.356 . S
C341 O346 1.209 . S
C341 O348 1.226 . S
O342 Cd338 2.273 . S
O342 Cd340 2.411 . S
O342 C345 1.320 . S
O343 Cd340 2.333 . S
O343 C345 1.214 . S
O344 Cd340 2.352 . S
O344 C347 1.258 . S
C345 O342 1.320 . S
C345 O343 1.214 . S
O346 Cd338 2.277 . S
O346 C341 1.209 . S
C347 O344 1.258 . S
C347 O349 1.282 . S
O348 Cd340 2.277 . S
O348 C341 1.226 . S
O349 Cd340 2.356 . S
O349 C347 1.282 . S
C350 O351 1.306 . S
C350 O353 1.160 . S
O351 C350 1.306 . S
O351 Cd352 2.228 . S
Cd352 O351 2.228 . S
Cd352 O356 2.273 . S
Cd352 O360 2.277 . S
O353 C350 1.160 . S
O353 Cd354 2.203 . S
Cd354 O353 2.203 . S
Cd354 O356 2.411 . S
Cd354 O357 2.333 . S
Cd354 O358 2.352 . S
Cd354 O362 2.277 . S
Cd354 O363 2.356 . S
C355 O360 1.209 . S
C355 O362 1.226 . S
O356 Cd352 2.273 . S
O356 Cd354 2.411 . S
O356 C359 1.320 . S
O357 Cd354 2.333 . S
O357 C359 1.214 . S
O358 Cd354 2.352 . S
O358 C361 1.258 . S
C359 O356 1.320 . S
C359 O357 1.214 . S
O360 Cd352 2.277 . S
O360 C355 1.209 . S
C361 O358 1.258 . S
C361 O363 1.282 . S
O362 Cd354 2.277 . S
O362 C355 1.226 . S
O363 Cd354 2.356 . S
O363 C361 1.282 . S
C364 O365 1.306 . S
C364 O367 1.160 . S
O365 C364 1.306 . S
O365 Cd366 2.228 . S
Cd366 O365 2.228 . S
Cd366 O370 2.273 . S
Cd366 O374 2.277 . S
O367 C364 1.160 . S
O367 Cd368 2.203 . S
Cd368 O367 2.203 . S
Cd368 O370 2.411 . S
Cd368 O371 2.333 . S
Cd368 O372 2.352 . S
Cd368 O376 2.277 . S
Cd368 O377 2.356 . S
C369 O374 1.209 . S
C369 O376 1.226 . S
O370 Cd366 2.273 . S
O370 Cd368 2.411 . S
O370 C373 1.320 . S
O371 Cd368 2.333 . S
O371 C373 1.214 . S
O372 Cd368 2.352 . S
O372 C375 1.258 . S
C373 O370 1.320 . S
C373 O371 1.214 . S
O374 Cd366 2.277 . S
O374 C369 1.209 . S
C375 O372 1.258 . S
C375 O377 1.282 . S
O376 Cd368 2.277 . S
O376 C369 1.226 . S
O377 Cd368 2.356 . S
O377 C375 1.282 . S
C378 O379 1.306 . S
C378 O381 1.160 . S
O379 C378 1.306 . S
O379 Cd380 2.228 . S
Cd380 O379 2.228 . S
Cd380 O384 2.273 . S
Cd380 O388 2.277 . S
O381 C378 1.160 . S
O381 Cd382 2.203 . S
Cd382 O381 2.203 . S
Cd382 O384 2.411 . S
Cd382 O385 2.333 . S
Cd382 O386 2.352 . S
Cd382 O390 2.277 . S
Cd382 O391 2.356 . S
C383 O388 1.209 . S
C383 O390 1.226 . S
O384 Cd380 2.273 . S
O384 Cd382 2.411 . S
O384 C387 1.320 . S
O385 Cd382 2.333 . S
O385 C387 1.214 . S
O386 Cd382 2.352 . S
O386 C389 1.258 . S
C387 O384 1.320 . S
C387 O385 1.214 . S
O388 Cd380 2.277 . S
O388 C383 1.209 . S
C389 O386 1.258 . S
C389 O391 1.282 . S
O390 Cd382 2.277 . S
O390 C383 1.226 . S
O391 Cd382 2.356 . S
O391 C389 1.282 . S
C392 O393 1.306 . S
C392 O395 1.160 . S
O393 C392 1.306 . S
O393 Cd394 2.228 . S
Cd394 O393 2.228 . S
Cd394 O398 2.273 . S
Cd394 O402 2.277 . S
O395 C392 1.160 . S
O395 Cd396 2.203 . S
Cd396 O395 2.203 . S
Cd396 O398 2.411 . S
Cd396 O399 2.333 . S
Cd396 O400 2.352 . S
Cd396 O404 2.277 . S
Cd396 O405 2.356 . S
C397 O402 1.209 . S
C397 O404 1.226 . S
O398 Cd394 2.273 . S
O398 Cd396 2.411 . S
O398 C401 1.320 . S
O399 Cd396 2.333 . S
O399 C401 1.214 . S
O400 Cd396 2.352 . S
O400 C403 1.258 . S
C401 O398 1.320 . S
C401 O399 1.214 . S
O402 Cd394 2.277 . S
O402 C397 1.209 . S
C403 O400 1.258 . S
C403 O405 1.282 . S
O404 Cd396 2.277 . S
O404 C397 1.226 . S
O405 Cd396 2.356 . S
O405 C403 1.282 . S
C406 O407 1.306 . S
C406 O409 1.160 . S
O407 C406 1.306 . S
O407 Cd408 2.228 . S
Cd408 O407 2.228 . S
Cd408 O412 2.273 . S
Cd408 O416 2.277 . S
O409 C406 1.160 . S
O409 Cd410 2.203 . S
Cd410 O409 2.203 . S
Cd410 O412 2.411 . S
Cd410 O413 2.333 . S
Cd410 O414 2.352 . S
Cd410 O418 2.277 . S
Cd410 O419 2.356 . S
C411 O416 1.209 . S
C411 O418 1.226 . S
O412 Cd408 2.273 . S
O412 Cd410 2.411 . S
O412 C415 1.320 . S
O413 Cd410 2.333 . S
O413 C415 1.214 . S
O414 Cd410 2.352 . S
O414 C417 1.258 . S
C415 O412 1.320 . S
C415 O413 1.214 . S
O416 Cd408 2.277 . S
O416 C411 1.209 . S
C417 O414 1.258 . S
C417 O419 1.282 . S
O418 Cd410 2.277 . S
O418 C411 1.226 . S
O419 Cd410 2.356 . S
O419 C417 1.282 . S
C420 O421 1.306 . S
C420 O423 1.160 . S
O421 C420 1.306 . S
O421 Cd422 2.228 . S
Cd422 O421 2.228 . S
Cd422 O426 2.273 . S
Cd422 O430 2.277 . S
O423 C420 1.160 . S
O423 Cd424 2.203 . S
Cd424 O423 2.203 . S
Cd424 O426 2.411 . S
Cd424 O427 2.333 . S
Cd424 O428 2.352 . S
Cd424 O432 2.277 . S
Cd424 O433 2.356 . S
C425 O430 1.209 . S
C425 O432 1.226 . S
O426 Cd422 2.273 . S
O426 Cd424 2.411 . S
O426 C429 1.320 . S
O427 Cd424 2.333 . S
O427 C429 1.214 . S
O428 Cd424 2.352 . S
O428 C431 1.258 . S
C429 O426 1.320 . S
C429 O427 1.214 . S
O430 Cd422 2.277 . S
O430 C425 1.209 . S
C431 O428 1.258 . S
C431 O433 1.282 . S
O432 Cd424 2.277 . S
O432 C425 1.226 . S
O433 Cd424 2.356 . S
O433 C431 1.282 . S
C434 O435 1.306 . S
C434 O437 1.160 . S
O435 C434 1.306 . S
O435 Cd436 2.228 . S
Cd436 O435 2.228 . S
Cd436 O440 2.273 . S
Cd436 O444 2.277 . S
O437 C434 1.160 . S
O437 Cd438 2.203 . S
Cd438 O437 2.203 . S
Cd438 O440 2.411 . S
Cd438 O441 2.333 . S
Cd438 O442 2.352 . S
Cd438 O446 2.277 . S
Cd438 O447 2.356 . S
C439 O444 1.209 . S
C439 O446 1.226 . S
O440 Cd436 2.273 . S
O440 Cd438 2.411 . S
O440 C443 1.320 . S
O441 Cd438 2.333 . S
O441 C443 1.214 . S
O442 Cd438 2.352 . S
O442 C445 1.258 . S
C443 O440 1.320 . S
C443 O441 1.214 . S
O444 Cd436 2.277 . S
O444 C439 1.209 . S
C445 O442 1.258 . S
C445 O447 1.282 . S
O446 Cd438 2.277 . S
O446 C439 1.226 . S
O447 Cd438 2.356 . S
O447 C445 1.282 . S
C448 O449 1.306 . S
C448 O451 1.160 . S
O449 C448 1.306 . S
O449 Cd450 2.228 . S
Cd450 O449 2.228 . S
Cd450 O454 2.273 . S
Cd450 O458 2.277 . S
O451 C448 1.160 . S
O451 Cd452 2.203 . S
Cd452 O451 2.203 . S
Cd452 O454 2.411 . S
Cd452 O455 2.333 . S
Cd452 O456 2.352 . S
Cd452 O460 2.277 . S
Cd452 O461 2.356 . S
C453 O458 1.209 . S
C453 O460 1.226 . S
O454 Cd450 2.273 . S
O454 Cd452 2.411 . S
O454 C457 1.320 . S
O455 Cd452 2.333 . S
O455 C457 1.214 . S
O456 Cd452 2.352 . S
O456 C459 1.258 . S
C457 O454 1.320 . S
C457 O455 1.214 . S
O458 Cd450 2.277 . S
O458 C453 1.209 . S
C459 O456 1.258 . S
C459 O461 1.282 . S
O460 Cd452 2.277 . S
O460 C453 1.226 . S
O461 Cd452 2.356 . S
O461 C459 1.282 . S
C462 O463 1.306 . S
C462 O465 1.160 . S
O463 C462 1.306 . S
O463 Cd464 2.228 . S
Cd464 O463 2.228 . S
Cd464 O468 2.273 . S
Cd464 O472 2.277 . S
O465 C462 1.160 . S
O465 Cd466 2.203 . S
Cd466 O465 2.203 . S
Cd466 O468 2.411 . S
Cd466 O469 2.333 . S
Cd466 O470 2.352 . S
Cd466 O474 2.277 . S
Cd466 O475 2.356 . S
C467 O472 1.209 . S
C467 O474 1.226 . S
O468 Cd464 2.273 . S
O468 Cd466 2.411 . S
O468 C471 1.320 . S
O469 Cd466 2.333 . S
O469 C471 1.214 . S
O470 Cd466 2.352 . S
O470 C473 1.258 . S
C471 O468 1.320 . S
C471 O469 1.214 . S
O472 Cd464 2.277 . S
O472 C467 1.209 . S
C473 O470 1.258 . S
C473 O475 1.282 . S
O474 Cd466 2.277 . S
O474 C467 1.226 . S
O475 Cd466 2.356 . S
O475 C473 1.282 . S
C476 O477 1.306 . S
C476 O479 1.160 . S
O477 C476 1.306 . S
O477 Cd478 2.228 . S
Cd478 O477 2.228 . S
Cd478 O482 2.273 . S
Cd478 O486 2.277 . S
O479 C476 1.160 . S
O479 Cd480 2.203 . S
Cd480 O479 2.203 . S
Cd480 O482 2.411 . S
Cd480 O483 2.333 . S
Cd480 O484 2.352 . S
Cd480 O488 2.277 . S
Cd480 O489 2.356 . S
C481 O486 1.209 . S
C481 O488 1.226 . S
O482 Cd478 2.273 . S
O482 Cd480 2.411 . S
O482 C485 1.320 . S
O483 Cd480 2.333 . S
O483 C485 1.214 . S
O484 Cd480 2.352 . S
O484 C487 1.258 . S
C485 O482 1.320 . S
C485 O483 1.214 . S
O486 Cd478 2.277 . S
O486 C481 1.209 . S
C487 O484 1.258 . S
C487 O489 1.282 . S
O488 Cd480 2.277 . S
O488 C481 1.226 . S
O489 Cd480 2.356 . S
O489 C487 1.282 . S
C490 O491 1.306 . S
C490 O493 1.160 . S
O491 C490 1.306 . S
O491 Cd492 2.228 . S
Cd492 O491 2.228 . S
Cd492 O496 2.273 . S
Cd492 O500 2.277 . S
O493 C490 1.160 . S
O493 Cd494 2.203 . S
Cd494 O493 2.203 . S
Cd494 O496 2.411 . S
Cd494 O497 2.333 . S
Cd494 O498 2.352 . S
Cd494 O502 2.277 . S
Cd494 O503 2.356 . S
C495 O500 1.209 . S
C495 O502 1.226 . S
O496 Cd492 2.273 . S
O496 Cd494 2.411 . S
O496 C499 1.320 . S
O497 Cd494 2.333 . S
O497 C499 1.214 . S
O498 Cd494 2.352 . S
O498 C501 1.258 . S
C499 O496 1.320 . S
C499 O497 1.214 . S
O500 Cd492 2.277 . S
O500 C495 1.209 . S
C501 O498 1.258 . S
C501 O503 1.282 . S
O502 Cd494 2.277 . S
O502 C495 1.226 . S
O503 Cd494 2.356 . S
O503 C501 1.282 . S
C504 O505 1.306 . S
C504 O507 1.160 . S
O505 C504 1.306 . S
O505 Cd506 2.228 . S
Cd506 O505 2.228 . S
Cd506 O510 2.273 . S
Cd506 O514 2.277 . S
O507 C504 1.160 . S
O507 Cd508 2.203 . S
Cd508 O507 2.203 . S
Cd508 O510 2.411 . S
Cd508 O511 2.333 . S
Cd508 O512 2.352 . S
Cd508 O516 2.277 . S
Cd508 O517 2.356 . S
C509 O514 1.209 . S
C509 O516 1.226 . S
O510 Cd506 2.273 . S
O510 Cd508 2.411 . S
O510 C513 1.320 . S
O511 Cd508 2.333 . S
O511 C513 1.214 . S
O512 Cd508 2.352 . S
O512 C515 1.258 . S
C513 O510 1.320 . S
C513 O511 1.214 . S
O514 Cd506 2.277 . S
O514 C509 1.209 . S
C515 O512 1.258 . S
C515 O517 1.282 . S
O516 Cd508 2.277 . S
O516 C509 1.226 . S
O517 Cd508 2.356 . S
O517 C515 1.282 . S
C518 O519 1.306 . S
C518 O521 1.160 . S
O519 C518 1.306 . S
O519 Cd520 2.228 . S
Cd520 O519 2.228 . S
Cd520 O524 2.273 . S
Cd520 O528 2.277 . S
O521 C518 1.160 . S
O521 Cd522 2.203 . S
Cd522 O521 2.203 . S
Cd522 O524 2.411 . S
Cd522 O525 2.333 . S
Cd522 O526 2.352 . S
Cd522 O530 2.277 . S
Cd522 O531 2.356 . S
C523 O528 1.209 . S
C523 O530 1.226 . S
O524 Cd520 2.273 . S
O524 Cd522 2.411 . S
O524 C527 1.320 . S
O525 Cd522 2.333 . S
O525 C527 1.214 . S
O526 Cd522 2.352 . S
O526 C529 1.258 . S
C527 O524 1.320 . S
C527 O525 1.214 . S
O528 Cd520 2.277 . S
O528 C523 1.209 . S
C529 O526 1.258 . S
C529 O531 1.282 . S
O530 Cd522 2.277 . S
O530 C523 1.226 . S
O531 Cd522 2.356 . S
O531 C529 1.282 . S
C532 O533 1.306 . S
C532 O535 1.160 . S
O533 C532 1.306 . S
O533 Cd534 2.228 . S
Cd534 O533 2.228 . S
Cd534 O538 2.273 . S
Cd534 O542 2.277 . S
O535 C532 1.160 . S
O535 Cd536 2.203 . S
Cd536 O535 2.203 . S
Cd536 O538 2.411 . S
Cd536 O539 2.333 . S
Cd536 O540 2.352 . S
Cd536 O544 2.277 . S
Cd536 O545 2.356 . S
C537 O542 1.209 . S
C537 O544 1.226 . S
O538 Cd534 2.273 . S
O538 Cd536 2.411 . S
O538 C541 1.320 . S
O539 Cd536 2.333 . S
O539 C541 1.214 . S
O540 Cd536 2.352 . S
O540 C543 1.258 . S
C541 O538 1.320 . S
C541 O539 1.214 . S
O542 Cd534 2.277 . S
O542 C537 1.209 . S
C543 O540 1.258 . S
C543 O545 1.282 . S
O544 Cd536 2.277 . S
O544 C537 1.226 . S
O545 Cd536 2.356 . S
O545 C543 1.282 . S
C546 O547 1.306 . S
C546 O549 1.160 . S
O547 C546 1.306 . S
O547 Cd548 2.228 . S
Cd548 O547 2.228 . S
Cd548 O552 2.273 . S
Cd548 O556 2.277 . S
O549 C546 1.160 . S
O549 Cd550 2.203 . S
Cd550 O549 2.203 . S
Cd550 O552 2.411 . S
Cd550 O553 2.333 . S
Cd550 O554 2.352 . S
Cd550 O558 2.277 . S
Cd550 O559 2.356 . S
C551 O556 1.209 . S
C551 O558 1.226 . S
O552 Cd548 2.273 . S
O552 Cd550 2.411 . S
O552 C555 1.320 . S
O553 Cd550 2.333 . S
O553 C555 1.214 . S
O554 Cd550 2.352 . S
O554 C557 1.258 . S
C555 O552 1.320 . S
C555 O553 1.214 . S
O556 Cd548 2.277 . S
O556 C551 1.209 . S
C557 O554 1.258 . S
C557 O559 1.282 . S
O558 Cd550 2.277 . S
O558 C551 1.226 . S
O559 Cd550 2.356 . S
O559 C557 1.282 . S
C560 O561 1.306 . S
C560 O563 1.160 . S
O561 C560 1.306 . S
O561 Cd562 2.228 . S
Cd562 O561 2.228 . S
Cd562 O566 2.273 . S
Cd562 O570 2.277 . S
O563 C560 1.160 . S
O563 Cd564 2.203 . S
Cd564 O563 2.203 . S
Cd564 O566 2.411 . S
Cd564 O567 2.333 . S
Cd564 O568 2.352 . S
Cd564 O572 2.277 . S
Cd564 O573 2.356 . S
C565 O570 1.209 . S
C565 O572 1.226 . S
O566 Cd562 2.273 . S
O566 Cd564 2.411 . S
O566 C569 1.320 . S
O567 Cd564 2.333 . S
O567 C569 1.214 . S
O568 Cd564 2.352 . S
O568 C571 1.258 . S
C569 O566 1.320 . S
C569 O567 1.214 . S
O570 Cd562 2.277 . S
O570 C565 1.209 . S
C571 O568 1.258 . S
C571 O573 1.282 . S
O572 Cd564 2.277 . S
O572 C565 1.226 . S
O573 Cd564 2.356 . S
O573 C571 1.282 . S
C574 O575 1.306 . S
C574 O577 1.160 . S
O575 C574 1.306 . S
O575 Cd576 2.228 . S
Cd576 O575 2.228 . S
Cd576 O580 2.273 . S
Cd576 O584 2.277 . S
O577 C574 1.160 . S
O577 Cd578 2.203 . S
Cd578 O577 2.203 . S
Cd578 O580 2.411 . S
Cd578 O581 2.333 . S
Cd578 O582 2.352 . S
Cd578 O586 2.277 . S
Cd578 O587 2.356 . S
C579 O584 1.209 . S
C579 O586 1.226 . S
O580 Cd576 2.273 . S
O580 Cd578 2.411 . S
O580 C583 1.320 . S
O581 Cd578 2.333 . S
O581 C583 1.214 . S
O582 Cd578 2.352 . S
O582 C585 1.258 . S
C583 O580 1.320 . S
C583 O581 1.214 . S
O584 Cd576 2.277 . S
O584 C579 1.209 . S
C585 O582 1.258 . S
C585 O587 1.282 . S
O586 Cd578 2.277 . S
O586 C579 1.226 . S
O587 Cd578 2.356 . S
O587 C585 1.282 . S
C588 O589 1.306 . S
C588 O591 1.160 . S
O589 C588 1.306 . S
O589 Cd590 2.228 . S
Cd590 O589 2.228 . S
Cd590 O594 2.273 . S
Cd590 O598 2.277 . S
O591 C588 1.160 . S
O591 Cd592 2.203 . S
Cd592 O591 2.203 . S
Cd592 O594 2.411 . S
Cd592 O595 2.333 . S
Cd592 O596 2.352 . S
Cd592 O600 2.277 . S
Cd592 O601 2.356 . S
C593 O598 1.209 . S
C593 O600 1.226 . S
O594 Cd590 2.273 . S
O594 Cd592 2.411 . S
O594 C597 1.320 . S
O595 Cd592 2.333 . S
O595 C597 1.214 . S
O596 Cd592 2.352 . S
O596 C599 1.258 . S
C597 O594 1.320 . S
C597 O595 1.214 . S
O598 Cd590 2.277 . S
O598 C593 1.209 . S
C599 O596 1.258 . S
C599 O601 1.282 . S
O600 Cd592 2.277 . S
O600 C593 1.226 . S
O601 Cd592 2.356 . S
O601 C599 1.282 . S
C602 O603 1.306 . S
C602 O605 1.160 . S
O603 C602 1.306 . S
O603 Cd604 2.228 . S
Cd604 O603 2.228 . S
Cd604 O608 2.273 . S
Cd604 O612 2.277 . S
O605 C602 1.160 . S
O605 Cd606 2.203 . S
Cd606 O605 2.203 . S
Cd606 O608 2.411 . S
Cd606 O609 2.333 . S
Cd606 O610 2.352 . S
Cd606 O614 2.277 . S
Cd606 O615 2.356 . S
C607 O612 1.209 . S
C607 O614 1.226 . S
O608 Cd604 2.273 . S
O608 Cd606 2.411 . S
O608 C611 1.320 . S
O609 Cd606 2.333 . S
O609 C611 1.214 . S
O610 Cd606 2.352 . S
O610 C613 1.258 . S
C611 O608 1.320 . S
C611 O609 1.214 . S
O612 Cd604 2.277 . S
O612 C607 1.209 . S
C613 O610 1.258 . S
C613 O615 1.282 . S
O614 Cd606 2.277 . S
O614 C607 1.226 . S
O615 Cd606 2.356 . S
O615 C613 1.282 . S
C616 O617 1.306 . S
C616 O619 1.160 . S
O617 C616 1.306 . S
O617 Cd618 2.228 . S
Cd618 O617 2.228 . S
Cd618 O622 2.273 . S
Cd618 O626 2.277 . S
O619 C616 1.160 . S
O619 Cd620 2.203 . S
Cd620 O619 2.203 . S
Cd620 O622 2.411 . S
Cd620 O623 2.333 . S
Cd620 O624 2.352 . S
Cd620 O628 2.277 . S
Cd620 O629 2.356 . S
C621 O626 1.209 . S
C621 O628 1.226 . S
O622 Cd618 2.273 . S
O622 Cd620 2.411 . S
O622 C625 1.320 . S
O623 Cd620 2.333 . S
O623 C625 1.214 . S
O624 Cd620 2.352 . S
O624 C627 1.258 . S
C625 O622 1.320 . S
C625 O623 1.214 . S
O626 Cd618 2.277 . S
O626 C621 1.209 . S
C627 O624 1.258 . S
C627 O629 1.282 . S
O628 Cd620 2.277 . S
O628 C621 1.226 . S
O629 Cd620 2.356 . S
O629 C627 1.282 . S
C630 O631 1.306 . S
C630 O633 1.160 . S
O631 C630 1.306 . S
O631 Cd632 2.228 . S
Cd632 O631 2.228 . S
Cd632 O636 2.273 . S
Cd632 O640 2.277 . S
O633 C630 1.160 . S
O633 Cd634 2.203 . S
Cd634 O633 2.203 . S
Cd634 O636 2.411 . S
Cd634 O637 2.333 . S
Cd634 O638 2.352 . S
Cd634 O642 2.277 . S
Cd634 O643 2.356 . S
C635 O640 1.209 . S
C635 O642 1.226 . S
O636 Cd632 2.273 . S
O636 Cd634 2.411 . S
O636 C639 1.320 . S
O637 Cd634 2.333 . S
O637 C639 1.214 . S
O638 Cd634 2.352 . S
O638 C641 1.258 . S
C639 O636 1.320 . S
C639 O637 1.214 . S
O640 Cd632 2.277 . S
O640 C635 1.209 . S
C641 O638 1.258 . S
C641 O643 1.282 . S
O642 Cd634 2.277 . S
O642 C635 1.226 . S
O643 Cd634 2.356 . S
O643 C641 1.282 . S
C644 O645 1.306 . S
C644 O647 1.160 . S
O645 C644 1.306 . S
O645 Cd646 2.228 . S
Cd646 O645 2.228 . S
Cd646 O650 2.273 . S
Cd646 O654 2.277 . S
O647 C644 1.160 . S
O647 Cd648 2.203 . S
Cd648 O647 2.203 . S
Cd648 O650 2.411 . S
Cd648 O651 2.333 . S
Cd648 O652 2.352 . S
Cd648 O656 2.277 . S
Cd648 O657 2.356 . S
C649 O654 1.209 . S
C649 O656 1.226 . S
O650 Cd646 2.273 . S
O650 Cd648 2.411 . S
O650 C653 1.320 . S
O651 Cd648 2.333 . S
O651 C653 1.214 . S
O652 Cd648 2.352 . S
O652 C655 1.258 . S
C653 O650 1.320 . S
C653 O651 1.214 . S
O654 Cd646 2.277 . S
O654 C649 1.209 . S
C655 O652 1.258 . S
C655 O657 1.282 . S
O656 Cd648 2.277 . S
O656 C649 1.226 . S
O657 Cd648 2.356 . S
O657 C655 1.282 . S
C658 O659 1.306 . S
C658 O661 1.160 . S
O659 C658 1.306 . S
O659 Cd660 2.228 . S
Cd660 O659 2.228 . S
Cd660 O664 2.273 . S
Cd660 O668 2.277 . S
O661 C658 1.160 . S
O661 Cd662 2.203 . S
Cd662 O661 2.203 . S
Cd662 O664 2.411 . S
Cd662 O665 2.333 . S
Cd662 O666 2.352 . S
Cd662 O670 2.277 . S
Cd662 O671 2.356 . S
C663 O668 1.209 . S
C663 O670 1.226 . S
O664 Cd660 2.273 . S
O664 Cd662 2.411 . S
O664 C667 1.320 . S
O665 Cd662 2.333 . S
O665 C667 1.214 . S
O666 Cd662 2.352 . S
O666 C669 1.258 . S
C667 O664 1.320 . S
C667 O665 1.214 . S
O668 Cd660 2.277 . S
O668 C663 1.209 . S
C669 O666 1.258 . S
C669 O671 1.282 . S
O670 Cd662 2.277 . S
O670 C663 1.226 . S
O671 Cd662 2.356 . S
O671 C669 1.282 . S
C672 C673 1.369 . S
C672 C674 1.419 . S
C672 H676 0.930 . S
C673 C672 1.369 . S
C673 C682 1.429 . S
C674 C672 1.419 . S
C674 C675 1.363 . S
C674 H677 0.929 . S
C675 C674 1.363 . S
C675 C681 1.428 . S
H676 C672 0.930 . S
H677 C674 0.929 . S
S678 N679 1.613 . S
S678 N680 1.610 . S
N679 S678 1.613 . S
N679 C682 1.350 . S
N680 S678 1.610 . S
N680 C681 1.351 . S
C681 C675 1.428 . S
C681 N680 1.351 . S
C681 C682 1.434 . S
C682 C673 1.429 . S
C682 N679 1.350 . S
C682 C681 1.434 . S
C683 C684 1.369 . S
C683 C685 1.419 . S
C683 H687 0.930 . S
C684 C683 1.369 . S
C684 C693 1.429 . S
C685 C683 1.419 . S
C685 C686 1.363 . S
C685 H688 0.929 . S
C686 C685 1.363 . S
C686 C692 1.428 . S
H687 C683 0.930 . S
H688 C685 0.929 . S
S689 N690 1.613 . S
S689 N691 1.610 . S
N690 S689 1.613 . S
N690 C693 1.350 . S
N691 S689 1.610 . S
N691 C692 1.351 . S
C692 C686 1.428 . S
C692 N691 1.351 . S
C692 C693 1.434 . S
C693 C684 1.429 . S
C693 N690 1.350 . S
C693 C692 1.434 . S
C694 C695 1.369 . S
C694 C696 1.419 . S
C694 H698 0.930 . S
C695 C694 1.369 . S
C695 C704 1.429 . S
C696 C694 1.419 . S
C696 C697 1.363 . S
C696 H699 0.929 . S
C697 C696 1.363 . S
C697 C703 1.428 . S
H698 C694 0.930 . S
H699 C696 0.929 . S
S700 N701 1.613 . S
S700 N702 1.610 . S
N701 S700 1.613 . S
N701 C704 1.350 . S
N702 S700 1.610 . S
N702 C703 1.351 . S
C703 C697 1.428 . S
C703 N702 1.351 . S
C703 C704 1.434 . S
C704 C695 1.429 . S
C704 N701 1.350 . S
C704 C703 1.434 . S
C705 C706 1.369 . S
C705 C707 1.419 . S
C705 H709 0.930 . S
C706 C705 1.369 . S
C706 C715 1.429 . S
C707 C705 1.419 . S
C707 C708 1.363 . S
C707 H710 0.929 . S
C708 C707 1.363 . S
C708 C714 1.428 . S
H709 C705 0.930 . S
H710 C707 0.929 . S
S711 N712 1.613 . S
S711 N713 1.610 . S
N712 S711 1.613 . S
N712 C715 1.350 . S
N713 S711 1.610 . S
N713 C714 1.351 . S
C714 C708 1.428 . S
C714 N713 1.351 . S
C714 C715 1.434 . S
C715 C706 1.429 . S
C715 N712 1.350 . S
C715 C714 1.434 . S
C716 C717 1.369 . S
C716 C718 1.419 . S
C716 H720 0.930 . S
C717 C716 1.369 . S
C717 C726 1.429 . S
C718 C716 1.419 . S
C718 C719 1.363 . S
C718 H721 0.929 . S
C719 C718 1.363 . S
C719 C725 1.428 . S
H720 C716 0.930 . S
H721 C718 0.929 . S
S722 N723 1.613 . S
S722 N724 1.610 . S
N723 S722 1.613 . S
N723 C726 1.350 . S
N724 S722 1.610 . S
N724 C725 1.351 . S
C725 C719 1.428 . S
C725 N724 1.351 . S
C725 C726 1.434 . S
C726 C717 1.429 . S
C726 N723 1.350 . S
C726 C725 1.434 . S
C727 C728 1.369 . S
C727 C729 1.419 . S
C727 H731 0.930 . S
C728 C727 1.369 . S
C728 C737 1.429 . S
C729 C727 1.419 . S
C729 C730 1.363 . S
C729 H732 0.929 . S
C730 C729 1.363 . S
C730 C736 1.428 . S
H731 C727 0.930 . S
H732 C729 0.929 . S
S733 N734 1.613 . S
S733 N735 1.610 . S
N734 S733 1.613 . S
N734 C737 1.350 . S
N735 S733 1.610 . S
N735 C736 1.351 . S
C736 C730 1.428 . S
C736 N735 1.351 . S
C736 C737 1.434 . S
C737 C728 1.429 . S
C737 N734 1.350 . S
C737 C736 1.434 . S
C738 C739 1.369 . S
C738 C740 1.419 . S
C738 H742 0.930 . S
C739 C738 1.369 . S
C739 C748 1.429 . S
C740 C738 1.419 . S
C740 C741 1.363 . S
C740 H743 0.929 . S
C741 C740 1.363 . S
C741 C747 1.428 . S
H742 C738 0.930 . S
H743 C740 0.929 . S
S744 N745 1.613 . S
S744 N746 1.610 . S
N745 S744 1.613 . S
N745 C748 1.350 . S
N746 S744 1.610 . S
N746 C747 1.351 . S
C747 C741 1.428 . S
C747 N746 1.351 . S
C747 C748 1.434 . S
C748 C739 1.429 . S
C748 N745 1.350 . S
C748 C747 1.434 . S
C749 C750 1.369 . S
C749 C751 1.419 . S
C749 H753 0.930 . S
C750 C749 1.369 . S
C750 C759 1.429 . S
C751 C749 1.419 . S
C751 C752 1.363 . S
C751 H754 0.929 . S
C752 C751 1.363 . S
C752 C758 1.428 . S
H753 C749 0.930 . S
H754 C751 0.929 . S
S755 N756 1.613 . S
S755 N757 1.610 . S
N756 S755 1.613 . S
N756 C759 1.350 . S
N757 S755 1.610 . S
N757 C758 1.351 . S
C758 C752 1.428 . S
C758 N757 1.351 . S
C758 C759 1.434 . S
C759 C750 1.429 . S
C759 N756 1.350 . S
C759 C758 1.434 . S
C760 C761 1.369 . S
C760 C762 1.419 . S
C760 H764 0.930 . S
C761 C760 1.369 . S
C761 C770 1.429 . S
C762 C760 1.419 . S
C762 C763 1.363 . S
C762 H765 0.929 . S
C763 C762 1.363 . S
C763 C769 1.428 . S
H764 C760 0.930 . S
H765 C762 0.929 . S
S766 N767 1.613 . S
S766 N768 1.610 . S
N767 S766 1.613 . S
N767 C770 1.350 . S
N768 S766 1.610 . S
N768 C769 1.351 . S
C769 C763 1.428 . S
C769 N768 1.351 . S
C769 C770 1.434 . S
C770 C761 1.429 . S
C770 N767 1.350 . S
C770 C769 1.434 . S
C771 C772 1.369 . S
C771 C773 1.419 . S
C771 H775 0.930 . S
C772 C771 1.369 . S
C772 C781 1.429 . S
C773 C771 1.419 . S
C773 C774 1.363 . S
C773 H776 0.929 . S
C774 C773 1.363 . S
C774 C780 1.428 . S
H775 C771 0.930 . S
H776 C773 0.929 . S
S777 N778 1.613 . S
S777 N779 1.610 . S
N778 S777 1.613 . S
N778 C781 1.350 . S
N779 S777 1.610 . S
N779 C780 1.351 . S
C780 C774 1.428 . S
C780 N779 1.351 . S
C780 C781 1.434 . S
C781 C772 1.429 . S
C781 N778 1.350 . S
C781 C780 1.434 . S
C782 C783 1.369 . S
C782 C784 1.419 . S
C782 H786 0.930 . S
C783 C782 1.369 . S
C783 C792 1.429 . S
C784 C782 1.419 . S
C784 C785 1.363 . S
C784 H787 0.929 . S
C785 C784 1.363 . S
C785 C791 1.428 . S
H786 C782 0.930 . S
H787 C784 0.929 . S
S788 N789 1.613 . S
S788 N790 1.610 . S
N789 S788 1.613 . S
N789 C792 1.350 . S
N790 S788 1.610 . S
N790 C791 1.351 . S
C791 C785 1.428 . S
C791 N790 1.351 . S
C791 C792 1.434 . S
C792 C783 1.429 . S
C792 N789 1.350 . S
C792 C791 1.434 . S
C793 C794 1.369 . S
C793 C795 1.419 . S
C793 H797 0.930 . S
C794 C793 1.369 . S
C794 C803 1.429 . S
C795 C793 1.419 . S
C795 C796 1.363 . S
C795 H798 0.929 . S
C796 C795 1.363 . S
C796 C802 1.428 . S
H797 C793 0.930 . S
H798 C795 0.929 . S
S799 N800 1.613 . S
S799 N801 1.610 . S
N800 S799 1.613 . S
N800 C803 1.350 . S
N801 S799 1.610 . S
N801 C802 1.351 . S
C802 C796 1.428 . S
C802 N801 1.351 . S
C802 C803 1.434 . S
C803 C794 1.429 . S
C803 N800 1.350 . S
C803 C802 1.434 . S
C804 C805 1.369 . S
C804 C806 1.419 . S
C804 H808 0.930 . S
C805 C804 1.369 . S
C805 C814 1.429 . S
C806 C804 1.419 . S
C806 C807 1.363 . S
C806 H809 0.929 . S
C807 C806 1.363 . S
C807 C813 1.428 . S
H808 C804 0.930 . S
H809 C806 0.929 . S
S810 N811 1.613 . S
S810 N812 1.610 . S
N811 S810 1.613 . S
N811 C814 1.350 . S
N812 S810 1.610 . S
N812 C813 1.351 . S
C813 C807 1.428 . S
C813 N812 1.351 . S
C813 C814 1.434 . S
C814 C805 1.429 . S
C814 N811 1.350 . S
C814 C813 1.434 . S
C815 C816 1.369 . S
C815 C817 1.419 . S
C815 H819 0.930 . S
C816 C815 1.369 . S
C816 C825 1.429 . S
C817 C815 1.419 . S
C817 C818 1.363 . S
C817 H820 0.929 . S
C818 C817 1.363 . S
C818 C824 1.428 . S
H819 C815 0.930 . S
H820 C817 0.929 . S
S821 N822 1.613 . S
S821 N823 1.610 . S
N822 S821 1.613 . S
N822 C825 1.350 . S
N823 S821 1.610 . S
N823 C824 1.351 . S
C824 C818 1.428 . S
C824 N823 1.351 . S
C824 C825 1.434 . S
C825 C816 1.429 . S
C825 N822 1.350 . S
C825 C824 1.434 . S
C826 C827 1.369 . S
C826 C828 1.419 . S
C826 H830 0.930 . S
C827 C826 1.369 . S
C827 C836 1.429 . S
C828 C826 1.419 . S
C828 C829 1.363 . S
C828 H831 0.929 . S
C829 C828 1.363 . S
C829 C835 1.428 . S
H830 C826 0.930 . S
H831 C828 0.929 . S
S832 N833 1.613 . S
S832 N834 1.610 . S
N833 S832 1.613 . S
N833 C836 1.350 . S
N834 S832 1.610 . S
N834 C835 1.351 . S
C835 C829 1.428 . S
C835 N834 1.351 . S
C835 C836 1.434 . S
C836 C827 1.429 . S
C836 N833 1.350 . S
C836 C835 1.434 . S
C837 C838 1.369 . S
C837 C839 1.419 . S
C837 H841 0.930 . S
C838 C837 1.369 . S
C838 C847 1.429 . S
C839 C837 1.419 . S
C839 C840 1.363 . S
C839 H842 0.929 . S
C840 C839 1.363 . S
C840 C846 1.428 . S
H841 C837 0.930 . S
H842 C839 0.929 . S
S843 N844 1.613 . S
S843 N845 1.610 . S
N844 S843 1.613 . S
N844 C847 1.350 . S
N845 S843 1.610 . S
N845 C846 1.351 . S
C846 C840 1.428 . S
C846 N845 1.351 . S
C846 C847 1.434 . S
C847 C838 1.429 . S
C847 N844 1.350 . S
C847 C846 1.434 . S
C848 C849 1.369 . S
C848 C850 1.419 . S
C848 H852 0.930 . S
C849 C848 1.369 . S
C849 C858 1.429 . S
C850 C848 1.419 . S
C850 C851 1.363 . S
C850 H853 0.929 . S
C851 C850 1.363 . S
C851 C857 1.428 . S
H852 C848 0.930 . S
H853 C850 0.929 . S
S854 N855 1.613 . S
S854 N856 1.610 . S
N855 S854 1.613 . S
N855 C858 1.350 . S
N856 S854 1.610 . S
N856 C857 1.351 . S
C857 C851 1.428 . S
C857 N856 1.351 . S
C857 C858 1.434 . S
C858 C849 1.429 . S
C858 N855 1.350 . S
C858 C857 1.434 . S
C859 C860 1.369 . S
C859 C861 1.419 . S
C859 H863 0.930 . S
C860 C859 1.369 . S
C860 C869 1.429 . S
C861 C859 1.419 . S
C861 C862 1.363 . S
C861 H864 0.929 . S
C862 C861 1.363 . S
C862 C868 1.428 . S
H863 C859 0.930 . S
H864 C861 0.929 . S
S865 N866 1.613 . S
S865 N867 1.610 . S
N866 S865 1.613 . S
N866 C869 1.350 . S
N867 S865 1.610 . S
N867 C868 1.351 . S
C868 C862 1.428 . S
C868 N867 1.351 . S
C868 C869 1.434 . S
C869 C860 1.429 . S
C869 N866 1.350 . S
C869 C868 1.434 . S
C870 C871 1.369 . S
C870 C872 1.419 . S
C870 H874 0.930 . S
C871 C870 1.369 . S
C871 C880 1.429 . S
C872 C870 1.419 . S
C872 C873 1.363 . S
C872 H875 0.929 . S
C873 C872 1.363 . S
C873 C879 1.428 . S
H874 C870 0.930 . S
H875 C872 0.929 . S
S876 N877 1.613 . S
S876 N878 1.610 . S
N877 S876 1.613 . S
N877 C880 1.350 . S
N878 S876 1.610 . S
N878 C879 1.351 . S
C879 C873 1.428 . S
C879 N878 1.351 . S
C879 C880 1.434 . S
C880 C871 1.429 . S
C880 N877 1.350 . S
C880 C879 1.434 . S
C881 C882 1.369 . S
C881 C883 1.419 . S
C881 H885 0.930 . S
C882 C881 1.369 . S
C882 C891 1.429 . S
C883 C881 1.419 . S
C883 C884 1.363 . S
C883 H886 0.929 . S
C884 C883 1.363 . S
C884 C890 1.428 . S
H885 C881 0.930 . S
H886 C883 0.929 . S
S887 N888 1.613 . S
S887 N889 1.610 . S
N888 S887 1.613 . S
N888 C891 1.350 . S
N889 S887 1.610 . S
N889 C890 1.351 . S
C890 C884 1.428 . S
C890 N889 1.351 . S
C890 C891 1.434 . S
C891 C882 1.429 . S
C891 N888 1.350 . S
C891 C890 1.434 . S
C892 C893 1.369 . S
C892 C894 1.419 . S
C892 H896 0.930 . S
C893 C892 1.369 . S
C893 C902 1.429 . S
C894 C892 1.419 . S
C894 C895 1.363 . S
C894 H897 0.929 . S
C895 C894 1.363 . S
C895 C901 1.428 . S
H896 C892 0.930 . S
H897 C894 0.929 . S
S898 N899 1.613 . S
S898 N900 1.610 . S
N899 S898 1.613 . S
N899 C902 1.350 . S
N900 S898 1.610 . S
N900 C901 1.351 . S
C901 C895 1.428 . S
C901 N900 1.351 . S
C901 C902 1.434 . S
C902 C893 1.429 . S
C902 N899 1.350 . S
C902 C901 1.434 . S
C903 C904 1.369 . S
C903 C905 1.419 . S
C903 H907 0.930 . S
C904 C903 1.369 . S
C904 C913 1.429 . S
C905 C903 1.419 . S
C905 C906 1.363 . S
C905 H908 0.929 . S
C906 C905 1.363 . S
C906 C912 1.428 . S
H907 C903 0.930 . S
H908 C905 0.929 . S
S909 N910 1.613 . S
S909 N911 1.610 . S
N910 S909 1.613 . S
N910 C913 1.350 . S
N911 S909 1.610 . S
N911 C912 1.351 . S
C912 C906 1.428 . S
C912 N911 1.351 . S
C912 C913 1.434 . S
C913 C904 1.429 . S
C913 N910 1.350 . S
C913 C912 1.434 . S
C914 C915 1.369 . S
C914 C916 1.419 . S
C914 H918 0.930 . S
C915 C914 1.369 . S
C915 C924 1.429 . S
C916 C914 1.419 . S
C916 C917 1.363 . S
C916 H919 0.929 . S
C917 C916 1.363 . S
C917 C923 1.428 . S
H918 C914 0.930 . S
H919 C916 0.929 . S
S920 N921 1.613 . S
S920 N922 1.610 . S
N921 S920 1.613 . S
N921 C924 1.350 . S
N922 S920 1.610 . S
N922 C923 1.351 . S
C923 C917 1.428 . S
C923 N922 1.351 . S
C923 C924 1.434 . S
C924 C915 1.429 . S
C924 N921 1.350 . S
C924 C923 1.434 . S
C925 C926 1.369 . S
C925 C927 1.419 . S
C925 H929 0.930 . S
C926 C925 1.369 . S
C926 C935 1.429 . S
C927 C925 1.419 . S
C927 C928 1.363 . S
C927 H930 0.929 . S
C928 C927 1.363 . S
C928 C934 1.428 . S
H929 C925 0.930 . S
H930 C927 0.929 . S
S931 N932 1.613 . S
S931 N933 1.610 . S
N932 S931 1.613 . S
N932 C935 1.350 . S
N933 S931 1.610 . S
N933 C934 1.351 . S
C934 C928 1.428 . S
C934 N933 1.351 . S
C934 C935 1.434 . S
C935 C926 1.429 . S
C935 N932 1.350 . S
C935 C934 1.434 . S
C936 C937 1.369 . S
C936 C938 1.419 . S
C936 H940 0.930 . S
C937 C936 1.369 . S
C937 C946 1.429 . S
C938 C936 1.419 . S
C938 C939 1.363 . S
C938 H941 0.929 . S
C939 C938 1.363 . S
C939 C945 1.428 . S
H940 C936 0.930 . S
H941 C938 0.929 . S
S942 N943 1.613 . S
S942 N944 1.610 . S
N943 S942 1.613 . S
N943 C946 1.350 . S
N944 S942 1.610 . S
N944 C945 1.351 . S
C945 C939 1.428 . S
C945 N944 1.351 . S
C945 C946 1.434 . S
C946 C937 1.429 . S
C946 N943 1.350 . S
C946 C945 1.434 . S
C947 C948 1.369 . S
C947 C949 1.419 . S
C947 H951 0.930 . S
C948 C947 1.369 . S
C948 C957 1.429 . S
C949 C947 1.419 . S
C949 C950 1.363 . S
C949 H952 0.929 . S
C950 C949 1.363 . S
C950 C956 1.428 . S
H951 C947 0.930 . S
H952 C949 0.929 . S
S953 N954 1.613 . S
S953 N955 1.610 . S
N954 S953 1.613 . S
N954 C957 1.350 . S
N955 S953 1.610 . S
N955 C956 1.351 . S
C956 C950 1.428 . S
C956 N955 1.351 . S
C956 C957 1.434 . S
C957 C948 1.429 . S
C957 N954 1.350 . S
C957 C956 1.434 . S
C958 C959 1.369 . S
C958 C960 1.419 . S
C958 H962 0.930 . S
C959 C958 1.369 . S
C959 C968 1.429 . S
C960 C958 1.419 . S
C960 C961 1.363 . S
C960 H963 0.929 . S
C961 C960 1.363 . S
C961 C967 1.428 . S
H962 C958 0.930 . S
H963 C960 0.929 . S
S964 N965 1.613 . S
S964 N966 1.610 . S
N965 S964 1.613 . S
N965 C968 1.350 . S
N966 S964 1.610 . S
N966 C967 1.351 . S
C967 C961 1.428 . S
C967 N966 1.351 . S
C967 C968 1.434 . S
C968 C959 1.429 . S
C968 N965 1.350 . S
C968 C967 1.434 . S
C969 C970 1.369 . S
C969 C971 1.419 . S
C969 H973 0.930 . S
C970 C969 1.369 . S
C970 C979 1.429 . S
C971 C969 1.419 . S
C971 C972 1.363 . S
C971 H974 0.929 . S
C972 C971 1.363 . S
C972 C978 1.428 . S
H973 C969 0.930 . S
H974 C971 0.929 . S
S975 N976 1.613 . S
S975 N977 1.610 . S
N976 S975 1.613 . S
N976 C979 1.350 . S
N977 S975 1.610 . S
N977 C978 1.351 . S
C978 C972 1.428 . S
C978 N977 1.351 . S
C978 C979 1.434 . S
C979 C970 1.429 . S
C979 N976 1.350 . S
C979 C978 1.434 . S
C980 C981 1.369 . S
C980 C982 1.419 . S
C980 H984 0.930 . S
C981 C980 1.369 . S
C981 C990 1.429 . S
C982 C980 1.419 . S
C982 C983 1.363 . S
C982 H985 0.929 . S
C983 C982 1.363 . S
C983 C989 1.428 . S
H984 C980 0.930 . S
H985 C982 0.929 . S
S986 N987 1.613 . S
S986 N988 1.610 . S
N987 S986 1.613 . S
N987 C990 1.350 . S
N988 S986 1.610 . S
N988 C989 1.351 . S
C989 C983 1.428 . S
C989 N988 1.351 . S
C989 C990 1.434 . S
C990 C981 1.429 . S
C990 N987 1.350 . S
C990 C989 1.434 . S
C991 C992 1.369 . S
C991 C993 1.419 . S
C991 H995 0.930 . S
C992 C991 1.369 . S
C992 C1001 1.429 . S
C993 C991 1.419 . S
C993 C994 1.363 . S
C993 H996 0.929 . S
C994 C993 1.363 . S
C994 C1000 1.428 . S
H995 C991 0.930 . S
H996 C993 0.929 . S
S997 N998 1.613 . S
S997 N999 1.610 . S
N998 S997 1.613 . S
N998 C1001 1.350 . S
N999 S997 1.610 . S
N999 C1000 1.351 . S
C1000 C994 1.428 . S
C1000 N999 1.351 . S
C1000 C1001 1.434 . S
C1001 C992 1.429 . S
C1001 N998 1.350 . S
C1001 C1000 1.434 . S
C1002 C1003 1.369 . S
C1002 C1004 1.419 . S
C1002 H1006 0.930 . S
C1003 C1002 1.369 . S
C1003 C1012 1.429 . S
C1004 C1002 1.419 . S
C1004 C1005 1.363 . S
C1004 H1007 0.929 . S
C1005 C1004 1.363 . S
C1005 C1011 1.428 . S
H1006 C1002 0.930 . S
H1007 C1004 0.929 . S
S1008 N1009 1.613 . S
S1008 N1010 1.610 . S
N1009 S1008 1.613 . S
N1009 C1012 1.350 . S
N1010 S1008 1.610 . S
N1010 C1011 1.351 . S
C1011 C1005 1.428 . S
C1011 N1010 1.351 . S
C1011 C1012 1.434 . S
C1012 C1003 1.429 . S
C1012 N1009 1.350 . S
C1012 C1011 1.434 . S
C1013 C1014 1.369 . S
C1013 C1015 1.419 . S
C1013 H1017 0.930 . S
C1014 C1013 1.369 . S
C1014 C1023 1.429 . S
C1015 C1013 1.419 . S
C1015 C1016 1.363 . S
C1015 H1018 0.929 . S
C1016 C1015 1.363 . S
C1016 C1022 1.428 . S
H1017 C1013 0.930 . S
H1018 C1015 0.929 . S
S1019 N1020 1.613 . S
S1019 N1021 1.610 . S
N1020 S1019 1.613 . S
N1020 C1023 1.350 . S
N1021 S1019 1.610 . S
N1021 C1022 1.351 . S
C1022 C1016 1.428 . S
C1022 N1021 1.351 . S
C1022 C1023 1.434 . S
C1023 C1014 1.429 . S
C1023 N1020 1.350 . S
C1023 C1022 1.434 . S
C1024 C1025 1.369 . S
C1024 C1026 1.419 . S
C1024 H1028 0.930 . S
C1025 C1024 1.369 . S
C1025 C1034 1.429 . S
C1026 C1024 1.419 . S
C1026 C1027 1.363 . S
C1026 H1029 0.929 . S
C1027 C1026 1.363 . S
C1027 C1033 1.428 . S
H1028 C1024 0.930 . S
H1029 C1026 0.929 . S
S1030 N1031 1.613 . S
S1030 N1032 1.610 . S
N1031 S1030 1.613 . S
N1031 C1034 1.350 . S
N1032 S1030 1.610 . S
N1032 C1033 1.351 . S
C1033 C1027 1.428 . S
C1033 N1032 1.351 . S
C1033 C1034 1.434 . S
C1034 C1025 1.429 . S
C1034 N1031 1.350 . S
C1034 C1033 1.434 . S
C1035 C1036 1.369 . S
C1035 C1037 1.419 . S
C1035 H1039 0.930 . S
C1036 C1035 1.369 . S
C1036 C1045 1.429 . S
C1037 C1035 1.419 . S
C1037 C1038 1.363 . S
C1037 H1040 0.929 . S
C1038 C1037 1.363 . S
C1038 C1044 1.428 . S
H1039 C1035 0.930 . S
H1040 C1037 0.929 . S
S1041 N1042 1.613 . S
S1041 N1043 1.610 . S
N1042 S1041 1.613 . S
N1042 C1045 1.350 . S
N1043 S1041 1.610 . S
N1043 C1044 1.351 . S
C1044 C1038 1.428 . S
C1044 N1043 1.351 . S
C1044 C1045 1.434 . S
C1045 C1036 1.429 . S
C1045 N1042 1.350 . S
C1045 C1044 1.434 . S
C1046 C1047 1.369 . S
C1046 C1048 1.419 . S
C1046 H1050 0.930 . S
C1047 C1046 1.369 . S
C1047 C1056 1.429 . S
C1048 C1046 1.419 . S
C1048 C1049 1.363 . S
C1048 H1051 0.929 . S
C1049 C1048 1.363 . S
C1049 C1055 1.428 . S
H1050 C1046 0.930 . S
H1051 C1048 0.929 . S
S1052 N1053 1.613 . S
S1052 N1054 1.610 . S
N1053 S1052 1.613 . S
N1053 C1056 1.350 . S
N1054 S1052 1.610 . S
N1054 C1055 1.351 . S
C1055 C1049 1.428 . S
C1055 N1054 1.351 . S
C1055 C1056 1.434 . S
C1056 C1047 1.429 . S
C1056 N1053 1.350 . S
C1056 C1055 1.434 . S
C1057 C1058 1.369 . S
C1057 C1059 1.419 . S
C1057 H1061 0.930 . S
C1058 C1057 1.369 . S
C1058 C1067 1.429 . S
C1059 C1057 1.419 . S
C1059 C1060 1.363 . S
C1059 H1062 0.929 . S
C1060 C1059 1.363 . S
C1060 C1066 1.428 . S
H1061 C1057 0.930 . S
H1062 C1059 0.929 . S
S1063 N1064 1.613 . S
S1063 N1065 1.610 . S
N1064 S1063 1.613 . S
N1064 C1067 1.350 . S
N1065 S1063 1.610 . S
N1065 C1066 1.351 . S
C1066 C1060 1.428 . S
C1066 N1065 1.351 . S
C1066 C1067 1.434 . S
C1067 C1058 1.429 . S
C1067 N1064 1.350 . S
C1067 C1066 1.434 . S
C1068 C1069 1.369 . S
C1068 C1070 1.419 . S
C1068 H1072 0.930 . S
C1069 C1068 1.369 . S
C1069 C1078 1.429 . S
C1070 C1068 1.419 . S
C1070 C1071 1.363 . S
C1070 H1073 0.929 . S
C1071 C1070 1.363 . S
C1071 C1077 1.428 . S
H1072 C1068 0.930 . S
H1073 C1070 0.929 . S
S1074 N1075 1.613 . S
S1074 N1076 1.610 . S
N1075 S1074 1.613 . S
N1075 C1078 1.350 . S
N1076 S1074 1.610 . S
N1076 C1077 1.351 . S
C1077 C1071 1.428 . S
C1077 N1076 1.351 . S
C1077 C1078 1.434 . S
C1078 C1069 1.429 . S
C1078 N1075 1.350 . S
C1078 C1077 1.434 . S
C1079 C1080 1.369 . S
C1079 C1081 1.419 . S
C1079 H1083 0.930 . S
C1080 C1079 1.369 . S
C1080 C1089 1.429 . S
C1081 C1079 1.419 . S
C1081 C1082 1.363 . S
C1081 H1084 0.929 . S
C1082 C1081 1.363 . S
C1082 C1088 1.428 . S
H1083 C1079 0.930 . S
H1084 C1081 0.929 . S
S1085 N1086 1.613 . S
S1085 N1087 1.610 . S
N1086 S1085 1.613 . S
N1086 C1089 1.350 . S
N1087 S1085 1.610 . S
N1087 C1088 1.351 . S
C1088 C1082 1.428 . S
C1088 N1087 1.351 . S
C1088 C1089 1.434 . S
C1089 C1080 1.429 . S
C1089 N1086 1.350 . S
C1089 C1088 1.434 . S
C1090 C1091 1.369 . S
C1090 C1092 1.419 . S
C1090 H1094 0.930 . S
C1091 C1090 1.369 . S
C1091 C1100 1.429 . S
C1092 C1090 1.419 . S
C1092 C1093 1.363 . S
C1092 H1095 0.929 . S
C1093 C1092 1.363 . S
C1093 C1099 1.428 . S
H1094 C1090 0.930 . S
H1095 C1092 0.929 . S
S1096 N1097 1.613 . S
S1096 N1098 1.610 . S
N1097 S1096 1.613 . S
N1097 C1100 1.350 . S
N1098 S1096 1.610 . S
N1098 C1099 1.351 . S
C1099 C1093 1.428 . S
C1099 N1098 1.351 . S
C1099 C1100 1.434 . S
C1100 C1091 1.429 . S
C1100 N1097 1.350 . S
C1100 C1099 1.434 . S
C1101 C1102 1.369 . S
C1101 C1103 1.419 . S
C1101 H1105 0.930 . S
C1102 C1101 1.369 . S
C1102 C1111 1.429 . S
C1103 C1101 1.419 . S
C1103 C1104 1.363 . S
C1103 H1106 0.929 . S
C1104 C1103 1.363 . S
C1104 C1110 1.428 . S
H1105 C1101 0.930 . S
H1106 C1103 0.929 . S
S1107 N1108 1.613 . S
S1107 N1109 1.610 . S
N1108 S1107 1.613 . S
N1108 C1111 1.350 . S
N1109 S1107 1.610 . S
N1109 C1110 1.351 . S
C1110 C1104 1.428 . S
C1110 N1109 1.351 . S
C1110 C1111 1.434 . S
C1111 C1102 1.429 . S
C1111 N1108 1.350 . S
C1111 C1110 1.434 . S
C1112 C1113 1.369 . S
C1112 C1114 1.419 . S
C1112 H1116 0.930 . S
C1113 C1112 1.369 . S
C1113 C1122 1.429 . S
C1114 C1112 1.419 . S
C1114 C1115 1.363 . S
C1114 H1117 0.929 . S
C1115 C1114 1.363 . S
C1115 C1121 1.428 . S
H1116 C1112 0.930 . S
H1117 C1114 0.929 . S
S1118 N1119 1.613 . S
S1118 N1120 1.610 . S
N1119 S1118 1.613 . S
N1119 C1122 1.350 . S
N1120 S1118 1.610 . S
N1120 C1121 1.351 . S
C1121 C1115 1.428 . S
C1121 N1120 1.351 . S
C1121 C1122 1.434 . S
C1122 C1113 1.429 . S
C1122 N1119 1.350 . S
C1122 C1121 1.434 . S
C1123 C1124 1.369 . S
C1123 C1125 1.419 . S
C1123 H1127 0.930 . S
C1124 C1123 1.369 . S
C1124 C1133 1.429 . S
C1125 C1123 1.419 . S
C1125 C1126 1.363 . S
C1125 H1128 0.929 . S
C1126 C1125 1.363 . S
C1126 C1132 1.428 . S
H1127 C1123 0.930 . S
H1128 C1125 0.929 . S
S1129 N1130 1.613 . S
S1129 N1131 1.610 . S
N1130 S1129 1.613 . S
N1130 C1133 1.350 . S
N1131 S1129 1.610 . S
N1131 C1132 1.351 . S
C1132 C1126 1.428 . S
C1132 N1131 1.351 . S
C1132 C1133 1.434 . S
C1133 C1124 1.429 . S
C1133 N1130 1.350 . S
C1133 C1132 1.434 . S
C1134 C1135 1.369 . S
C1134 C1136 1.419 . S
C1134 H1138 0.930 . S
C1135 C1134 1.369 . S
C1135 C1144 1.429 . S
C1136 C1134 1.419 . S
C1136 C1137 1.363 . S
C1136 H1139 0.929 . S
C1137 C1136 1.363 . S
C1137 C1143 1.428 . S
H1138 C1134 0.930 . S
H1139 C1136 0.929 . S
S1140 N1141 1.613 . S
S1140 N1142 1.610 . S
N1141 S1140 1.613 . S
N1141 C1144 1.350 . S
N1142 S1140 1.610 . S
N1142 C1143 1.351 . S
C1143 C1137 1.428 . S
C1143 N1142 1.351 . S
C1143 C1144 1.434 . S
C1144 C1135 1.429 . S
C1144 N1141 1.350 . S
C1144 C1143 1.434 . S
C1145 C1146 1.369 . S
C1145 C1147 1.419 . S
C1145 H1149 0.930 . S
C1146 C1145 1.369 . S
C1146 C1155 1.429 . S
C1147 C1145 1.419 . S
C1147 C1148 1.363 . S
C1147 H1150 0.929 . S
C1148 C1147 1.363 . S
C1148 C1154 1.428 . S
H1149 C1145 0.930 . S
H1150 C1147 0.929 . S
S1151 N1152 1.613 . S
S1151 N1153 1.610 . S
N1152 S1151 1.613 . S
N1152 C1155 1.350 . S
N1153 S1151 1.610 . S
N1153 C1154 1.351 . S
C1154 C1148 1.428 . S
C1154 N1153 1.351 . S
C1154 C1155 1.434 . S
C1155 C1146 1.429 . S
C1155 N1152 1.350 . S
C1155 C1154 1.434 . S
C1156 C1157 1.369 . S
C1156 C1158 1.419 . S
C1156 H1160 0.930 . S
C1157 C1156 1.369 . S
C1157 C1166 1.429 . S
C1158 C1156 1.419 . S
C1158 C1159 1.363 . S
C1158 H1161 0.929 . S
C1159 C1158 1.363 . S
C1159 C1165 1.428 . S
H1160 C1156 0.930 . S
H1161 C1158 0.929 . S
S1162 N1163 1.613 . S
S1162 N1164 1.610 . S
N1163 S1162 1.613 . S
N1163 C1166 1.350 . S
N1164 S1162 1.610 . S
N1164 C1165 1.351 . S
C1165 C1159 1.428 . S
C1165 N1164 1.351 . S
C1165 C1166 1.434 . S
C1166 C1157 1.429 . S
C1166 N1163 1.350 . S
C1166 C1165 1.434 . S
C1167 C1168 1.369 . S
C1167 C1169 1.419 . S
C1167 H1171 0.930 . S
C1168 C1167 1.369 . S
C1168 C1177 1.429 . S
C1169 C1167 1.419 . S
C1169 C1170 1.363 . S
C1169 H1172 0.929 . S
C1170 C1169 1.363 . S
C1170 C1176 1.428 . S
H1171 C1167 0.930 . S
H1172 C1169 0.929 . S
S1173 N1174 1.613 . S
S1173 N1175 1.610 . S
N1174 S1173 1.613 . S
N1174 C1177 1.350 . S
N1175 S1173 1.610 . S
N1175 C1176 1.351 . S
C1176 C1170 1.428 . S
C1176 N1175 1.351 . S
C1176 C1177 1.434 . S
C1177 C1168 1.429 . S
C1177 N1174 1.350 . S
C1177 C1176 1.434 . S
C1178 C1179 1.369 . S
C1178 C1180 1.419 . S
C1178 H1182 0.930 . S
C1179 C1178 1.369 . S
C1179 C1188 1.429 . S
C1180 C1178 1.419 . S
C1180 C1181 1.363 . S
C1180 H1183 0.929 . S
C1181 C1180 1.363 . S
C1181 C1187 1.428 . S
H1182 C1178 0.930 . S
H1183 C1180 0.929 . S
S1184 N1185 1.613 . S
S1184 N1186 1.610 . S
N1185 S1184 1.613 . S
N1185 C1188 1.350 . S
N1186 S1184 1.610 . S
N1186 C1187 1.351 . S
C1187 C1181 1.428 . S
C1187 N1186 1.351 . S
C1187 C1188 1.434 . S
C1188 C1179 1.429 . S
C1188 N1185 1.350 . S
C1188 C1187 1.434 . S
C1189 C1190 1.369 . S
C1189 C1191 1.419 . S
C1189 H1193 0.930 . S
C1190 C1189 1.369 . S
C1190 C1199 1.429 . S
C1191 C1189 1.419 . S
C1191 C1192 1.363 . S
C1191 H1194 0.929 . S
C1192 C1191 1.363 . S
C1192 C1198 1.428 . S
H1193 C1189 0.930 . S
H1194 C1191 0.929 . S
S1195 N1196 1.613 . S
S1195 N1197 1.610 . S
N1196 S1195 1.613 . S
N1196 C1199 1.350 . S
N1197 S1195 1.610 . S
N1197 C1198 1.351 . S
C1198 C1192 1.428 . S
C1198 N1197 1.351 . S
C1198 C1199 1.434 . S
C1199 C1190 1.429 . S
C1199 N1196 1.350 . S
C1199 C1198 1.434 . S
C1200 C1201 1.369 . S
C1200 C1202 1.419 . S
C1200 H1204 0.930 . S
C1201 C1200 1.369 . S
C1201 C1210 1.429 . S
C1202 C1200 1.419 . S
C1202 C1203 1.363 . S
C1202 H1205 0.929 . S
C1203 C1202 1.363 . S
C1203 C1209 1.428 . S
H1204 C1200 0.930 . S
H1205 C1202 0.929 . S
S1206 N1207 1.613 . S
S1206 N1208 1.610 . S
N1207 S1206 1.613 . S
N1207 C1210 1.350 . S
N1208 S1206 1.610 . S
N1208 C1209 1.351 . S
C1209 C1203 1.428 . S
C1209 N1208 1.351 . S
C1209 C1210 1.434 . S
C1210 C1201 1.429 . S
C1210 N1207 1.350 . S
C1210 C1209 1.434 . S
C1211 C1212 1.369 . S
C1211 C1213 1.419 . S
C1211 H1215 0.930 . S
C1212 C1211 1.369 . S
C1212 C1221 1.429 . S
C1213 C1211 1.419 . S
C1213 C1214 1.363 . S
C1213 H1216 0.929 . S
C1214 C1213 1.363 . S
C1214 C1220 1.428 . S
H1215 C1211 0.930 . S
H1216 C1213 0.929 . S
S1217 N1218 1.613 . S
S1217 N1219 1.610 . S
N1218 S1217 1.613 . S
N1218 C1221 1.350 . S
N1219 S1217 1.610 . S
N1219 C1220 1.351 . S
C1220 C1214 1.428 . S
C1220 N1219 1.351 . S
C1220 C1221 1.434 . S
C1221 C1212 1.429 . S
C1221 N1218 1.350 . S
C1221 C1220 1.434 . S
C1222 C1223 1.369 . S
C1222 C1224 1.419 . S
C1222 H1226 0.930 . S
C1223 C1222 1.369 . S
C1223 C1232 1.429 . S
C1224 C1222 1.419 . S
C1224 C1225 1.363 . S
C1224 H1227 0.929 . S
C1225 C1224 1.363 . S
C1225 C1231 1.428 . S
H1226 C1222 0.930 . S
H1227 C1224 0.929 . S
S1228 N1229 1.613 . S
S1228 N1230 1.610 . S
N1229 S1228 1.613 . S
N1229 C1232 1.350 . S
N1230 S1228 1.610 . S
N1230 C1231 1.351 . S
C1231 C1225 1.428 . S
C1231 N1230 1.351 . S
C1231 C1232 1.434 . S
C1232 C1223 1.429 . S
C1232 N1229 1.350 . S
C1232 C1231 1.434 . S
C1233 C1234 1.369 . S
C1233 C1235 1.419 . S
C1233 H1237 0.930 . S
C1234 C1233 1.369 . S
C1234 C1243 1.429 . S
C1235 C1233 1.419 . S
C1235 C1236 1.363 . S
C1235 H1238 0.929 . S
C1236 C1235 1.363 . S
C1236 C1242 1.428 . S
H1237 C1233 0.930 . S
H1238 C1235 0.929 . S
S1239 N1240 1.613 . S
S1239 N1241 1.610 . S
N1240 S1239 1.613 . S
N1240 C1243 1.350 . S
N1241 S1239 1.610 . S
N1241 C1242 1.351 . S
C1242 C1236 1.428 . S
C1242 N1241 1.351 . S
C1242 C1243 1.434 . S
C1243 C1234 1.429 . S
C1243 N1240 1.350 . S
C1243 C1242 1.434 . S
C1244 C1245 1.369 . S
C1244 C1246 1.419 . S
C1244 H1248 0.930 . S
C1245 C1244 1.369 . S
C1245 C1254 1.429 . S
C1246 C1244 1.419 . S
C1246 C1247 1.363 . S
C1246 H1249 0.929 . S
C1247 C1246 1.363 . S
C1247 C1253 1.428 . S
H1248 C1244 0.930 . S
H1249 C1246 0.929 . S
S1250 N1251 1.613 . S
S1250 N1252 1.610 . S
N1251 S1250 1.613 . S
N1251 C1254 1.350 . S
N1252 S1250 1.610 . S
N1252 C1253 1.351 . S
C1253 C1247 1.428 . S
C1253 N1252 1.351 . S
C1253 C1254 1.434 . S
C1254 C1245 1.429 . S
C1254 N1251 1.350 . S
C1254 C1253 1.434 . S
C1255 C1256 1.369 . S
C1255 C1257 1.419 . S
C1255 H1259 0.930 . S
C1256 C1255 1.369 . S
C1256 C1265 1.429 . S
C1257 C1255 1.419 . S
C1257 C1258 1.363 . S
C1257 H1260 0.929 . S
C1258 C1257 1.363 . S
C1258 C1264 1.428 . S
H1259 C1255 0.930 . S
H1260 C1257 0.929 . S
S1261 N1262 1.613 . S
S1261 N1263 1.610 . S
N1262 S1261 1.613 . S
N1262 C1265 1.350 . S
N1263 S1261 1.610 . S
N1263 C1264 1.351 . S
C1264 C1258 1.428 . S
C1264 N1263 1.351 . S
C1264 C1265 1.434 . S
C1265 C1256 1.429 . S
C1265 N1262 1.350 . S
C1265 C1264 1.434 . S
C1266 C1267 1.369 . S
C1266 C1268 1.419 . S
C1266 H1270 0.930 . S
C1267 C1266 1.369 . S
C1267 C1276 1.429 . S
C1268 C1266 1.419 . S
C1268 C1269 1.363 . S
C1268 H1271 0.929 . S
C1269 C1268 1.363 . S
C1269 C1275 1.428 . S
H1270 C1266 0.930 . S
H1271 C1268 0.929 . S
S1272 N1273 1.613 . S
S1272 N1274 1.610 . S
N1273 S1272 1.613 . S
N1273 C1276 1.350 . S
N1274 S1272 1.610 . S
N1274 C1275 1.351 . S
C1275 C1269 1.428 . S
C1275 N1274 1.351 . S
C1275 C1276 1.434 . S
C1276 C1267 1.429 . S
C1276 N1273 1.350 . S
C1276 C1275 1.434 . S
C1277 C1278 1.369 . S
C1277 C1279 1.419 . S
C1277 H1281 0.930 . S
C1278 C1277 1.369 . S
C1278 C1287 1.429 . S
C1279 C1277 1.419 . S
C1279 C1280 1.363 . S
C1279 H1282 0.929 . S
C1280 C1279 1.363 . S
C1280 C1286 1.428 . S
H1281 C1277 0.930 . S
H1282 C1279 0.929 . S
S1283 N1284 1.613 . S
S1283 N1285 1.610 . S
N1284 S1283 1.613 . S
N1284 C1287 1.350 . S
N1285 S1283 1.610 . S
N1285 C1286 1.351 . S
C1286 C1280 1.428 . S
C1286 N1285 1.351 . S
C1286 C1287 1.434 . S
C1287 C1278 1.429 . S
C1287 N1284 1.350 . S
C1287 C1286 1.434 . S
C1288 C1289 1.369 . S
C1288 C1290 1.419 . S
C1288 H1292 0.930 . S
C1289 C1288 1.369 . S
C1289 C1298 1.429 . S
C1290 C1288 1.419 . S
C1290 C1291 1.363 . S
C1290 H1293 0.929 . S
C1291 C1290 1.363 . S
C1291 C1297 1.428 . S
H1292 C1288 0.930 . S
H1293 C1290 0.929 . S
S1294 N1295 1.613 . S
S1294 N1296 1.610 . S
N1295 S1294 1.613 . S
N1295 C1298 1.350 . S
N1296 S1294 1.610 . S
N1296 C1297 1.351 . S
C1297 C1291 1.428 . S
C1297 N1296 1.351 . S
C1297 C1298 1.434 . S
C1298 C1289 1.429 . S
C1298 N1295 1.350 . S
C1298 C1297 1.434 . S
C1299 C1300 1.369 . S
C1299 C1301 1.419 . S
C1299 H1303 0.930 . S
C1300 C1299 1.369 . S
C1300 C1309 1.429 . S
C1301 C1299 1.419 . S
C1301 C1302 1.363 . S
C1301 H1304 0.929 . S
C1302 C1301 1.363 . S
C1302 C1308 1.428 . S
H1303 C1299 0.930 . S
H1304 C1301 0.929 . S
S1305 N1306 1.613 . S
S1305 N1307 1.610 . S
N1306 S1305 1.613 . S
N1306 C1309 1.350 . S
N1307 S1305 1.610 . S
N1307 C1308 1.351 . S
C1308 C1302 1.428 . S
C1308 N1307 1.351 . S
C1308 C1309 1.434 . S
C1309 C1300 1.429 . S
C1309 N1306 1.350 . S
C1309 C1308 1.434 . S
C1310 C1311 1.369 . S
C1310 C1312 1.419 . S
C1310 H1314 0.930 . S
C1311 C1310 1.369 . S
C1311 C1320 1.429 . S
C1312 C1310 1.419 . S
C1312 C1313 1.363 . S
C1312 H1315 0.929 . S
C1313 C1312 1.363 . S
C1313 C1319 1.428 . S
H1314 C1310 0.930 . S
H1315 C1312 0.929 . S
S1316 N1317 1.613 . S
S1316 N1318 1.610 . S
N1317 S1316 1.613 . S
N1317 C1320 1.350 . S
N1318 S1316 1.610 . S
N1318 C1319 1.351 . S
C1319 C1313 1.428 . S
C1319 N1318 1.351 . S
C1319 C1320 1.434 . S
C1320 C1311 1.429 . S
C1320 N1317 1.350 . S
C1320 C1319 1.434 . S
C1321 C1322 1.369 . S
C1321 C1323 1.419 . S
C1321 H1325 0.930 . S
C1322 C1321 1.369 . S
C1322 C1331 1.429 . S
C1323 C1321 1.419 . S
C1323 C1324 1.363 . S
C1323 H1326 0.929 . S
C1324 C1323 1.363 . S
C1324 C1330 1.428 . S
H1325 C1321 0.930 . S
H1326 C1323 0.929 . S
S1327 N1328 1.613 . S
S1327 N1329 1.610 . S
N1328 S1327 1.613 . S
N1328 C1331 1.350 . S
N1329 S1327 1.610 . S
N1329 C1330 1.351 . S
C1330 C1324 1.428 . S
C1330 N1329 1.351 . S
C1330 C1331 1.434 . S
C1331 C1322 1.429 . S
C1331 N1328 1.350 . S
C1331 C1330 1.434 . S
C1332 C1333 1.369 . S
C1332 C1334 1.419 . S
C1332 H1336 0.930 . S
C1333 C1332 1.369 . S
C1333 C1342 1.429 . S
C1334 C1332 1.419 . S
C1334 C1335 1.363 . S
C1334 H1337 0.929 . S
C1335 C1334 1.363 . S
C1335 C1341 1.428 . S
H1336 C1332 0.930 . S
H1337 C1334 0.929 . S
S1338 N1339 1.613 . S
S1338 N1340 1.610 . S
N1339 S1338 1.613 . S
N1339 C1342 1.350 . S
N1340 S1338 1.610 . S
N1340 C1341 1.351 . S
C1341 C1335 1.428 . S
C1341 N1340 1.351 . S
C1341 C1342 1.434 . S
C1342 C1333 1.429 . S
C1342 N1339 1.350 . S
C1342 C1341 1.434 . S
C1343 C1344 1.369 . S
C1343 C1345 1.419 . S
C1343 H1347 0.930 . S
C1344 C1343 1.369 . S
C1344 C1353 1.429 . S
C1345 C1343 1.419 . S
C1345 C1346 1.363 . S
C1345 H1348 0.929 . S
C1346 C1345 1.363 . S
C1346 C1352 1.428 . S
H1347 C1343 0.930 . S
H1348 C1345 0.929 . S
S1349 N1350 1.613 . S
S1349 N1351 1.610 . S
N1350 S1349 1.613 . S
N1350 C1353 1.350 . S
N1351 S1349 1.610 . S
N1351 C1352 1.351 . S
C1352 C1346 1.428 . S
C1352 N1351 1.351 . S
C1352 C1353 1.434 . S
C1353 C1344 1.429 . S
C1353 N1350 1.350 . S
C1353 C1352 1.434 . S
C1354 C1355 1.369 . S
C1354 C1356 1.419 . S
C1354 H1358 0.930 . S
C1355 C1354 1.369 . S
C1355 C1364 1.429 . S
C1356 C1354 1.419 . S
C1356 C1357 1.363 . S
C1356 H1359 0.929 . S
C1357 C1356 1.363 . S
C1357 C1363 1.428 . S
H1358 C1354 0.930 . S
H1359 C1356 0.929 . S
S1360 N1361 1.613 . S
S1360 N1362 1.610 . S
N1361 S1360 1.613 . S
N1361 C1364 1.350 . S
N1362 S1360 1.610 . S
N1362 C1363 1.351 . S
C1363 C1357 1.428 . S
C1363 N1362 1.351 . S
C1363 C1364 1.434 . S
C1364 C1355 1.429 . S
C1364 N1361 1.350 . S
C1364 C1363 1.434 . S
C1365 C1366 1.369 . S
C1365 C1367 1.419 . S
C1365 H1369 0.930 . S
C1366 C1365 1.369 . S
C1366 C1375 1.429 . S
C1367 C1365 1.419 . S
C1367 C1368 1.363 . S
C1367 H1370 0.929 . S
C1368 C1367 1.363 . S
C1368 C1374 1.428 . S
H1369 C1365 0.930 . S
H1370 C1367 0.929 . S
S1371 N1372 1.613 . S
S1371 N1373 1.610 . S
N1372 S1371 1.613 . S
N1372 C1375 1.350 . S
N1373 S1371 1.610 . S
N1373 C1374 1.351 . S
C1374 C1368 1.428 . S
C1374 N1373 1.351 . S
C1374 C1375 1.434 . S
C1375 C1366 1.429 . S
C1375 N1372 1.350 . S
C1375 C1374 1.434 . S
C1376 C1377 1.369 . S
C1376 C1378 1.419 . S
C1376 H1380 0.930 . S
C1377 C1376 1.369 . S
C1377 C1386 1.429 . S
C1378 C1376 1.419 . S
C1378 C1379 1.363 . S
C1378 H1381 0.929 . S
C1379 C1378 1.363 . S
C1379 C1385 1.428 . S
H1380 C1376 0.930 . S
H1381 C1378 0.929 . S
S1382 N1383 1.613 . S
S1382 N1384 1.610 . S
N1383 S1382 1.613 . S
N1383 C1386 1.350 . S
N1384 S1382 1.610 . S
N1384 C1385 1.351 . S
C1385 C1379 1.428 . S
C1385 N1384 1.351 . S
C1385 C1386 1.434 . S
C1386 C1377 1.429 . S
C1386 N1383 1.350 . S
C1386 C1385 1.434 . S
C1387 C1388 1.369 . S
C1387 C1389 1.419 . S
C1387 H1391 0.930 . S
C1388 C1387 1.369 . S
C1388 C1397 1.429 . S
C1389 C1387 1.419 . S
C1389 C1390 1.363 . S
C1389 H1392 0.929 . S
C1390 C1389 1.363 . S
C1390 C1396 1.428 . S
H1391 C1387 0.930 . S
H1392 C1389 0.929 . S
S1393 N1394 1.613 . S
S1393 N1395 1.610 . S
N1394 S1393 1.613 . S
N1394 C1397 1.350 . S
N1395 S1393 1.610 . S
N1395 C1396 1.351 . S
C1396 C1390 1.428 . S
C1396 N1395 1.351 . S
C1396 C1397 1.434 . S
C1397 C1388 1.429 . S
C1397 N1394 1.350 . S
C1397 C1396 1.434 . S
C1398 C1399 1.369 . S
C1398 C1400 1.419 . S
C1398 H1402 0.930 . S
C1399 C1398 1.369 . S
C1399 C1408 1.429 . S
C1400 C1398 1.419 . S
C1400 C1401 1.363 . S
C1400 H1403 0.929 . S
C1401 C1400 1.363 . S
C1401 C1407 1.428 . S
H1402 C1398 0.930 . S
H1403 C1400 0.929 . S
S1404 N1405 1.613 . S
S1404 N1406 1.610 . S
N1405 S1404 1.613 . S
N1405 C1408 1.350 . S
N1406 S1404 1.610 . S
N1406 C1407 1.351 . S
C1407 C1401 1.428 . S
C1407 N1406 1.351 . S
C1407 C1408 1.434 . S
C1408 C1399 1.429 . S
C1408 N1405 1.350 . S
C1408 C1407 1.434 . S
C1409 C1410 1.369 . S
C1409 C1411 1.419 . S
C1409 H1413 0.930 . S
C1410 C1409 1.369 . S
C1410 C1419 1.429 . S
C1411 C1409 1.419 . S
C1411 C1412 1.363 . S
C1411 H1414 0.929 . S
C1412 C1411 1.363 . S
C1412 C1418 1.428 . S
H1413 C1409 0.930 . S
H1414 C1411 0.929 . S
S1415 N1416 1.613 . S
S1415 N1417 1.610 . S
N1416 S1415 1.613 . S
N1416 C1419 1.350 . S
N1417 S1415 1.610 . S
N1417 C1418 1.351 . S
C1418 C1412 1.428 . S
C1418 N1417 1.351 . S
C1418 C1419 1.434 . S
C1419 C1410 1.429 . S
C1419 N1416 1.350 . S
C1419 C1418 1.434 . S
C1420 C1421 1.369 . S
C1420 C1422 1.419 . S
C1420 H1424 0.930 . S
C1421 C1420 1.369 . S
C1421 C1430 1.429 . S
C1422 C1420 1.419 . S
C1422 C1423 1.363 . S
C1422 H1425 0.929 . S
C1423 C1422 1.363 . S
C1423 C1429 1.428 . S
H1424 C1420 0.930 . S
H1425 C1422 0.929 . S
S1426 N1427 1.613 . S
S1426 N1428 1.610 . S
N1427 S1426 1.613 . S
N1427 C1430 1.350 . S
N1428 S1426 1.610 . S
N1428 C1429 1.351 . S
C1429 C1423 1.428 . S
C1429 N1428 1.351 . S
C1429 C1430 1.434 . S
C1430 C1421 1.429 . S
C1430 N1427 1.350 . S
C1430 C1429 1.434 . S
C1431 C1432 1.369 . S
C1431 C1433 1.419 . S
C1431 H1435 0.930 . S
C1432 C1431 1.369 . S
C1432 C1441 1.429 . S
C1433 C1431 1.419 . S
C1433 C1434 1.363 . S
C1433 H1436 0.929 . S
C1434 C1433 1.363 . S
C1434 C1440 1.428 . S
H1435 C1431 0.930 . S
H1436 C1433 0.929 . S
S1437 N1438 1.613 . S
S1437 N1439 1.610 . S
N1438 S1437 1.613 . S
N1438 C1441 1.350 . S
N1439 S1437 1.610 . S
N1439 C1440 1.351 . S
C1440 C1434 1.428 . S
C1440 N1439 1.351 . S
C1440 C1441 1.434 . S
C1441 C1432 1.429 . S
C1441 N1438 1.350 . S
C1441 C1440 1.434 . S
C1442 C1443 1.369 . S
C1442 C1444 1.419 . S
C1442 H1446 0.930 . S
C1443 C1442 1.369 . S
C1443 C1452 1.429 . S
C1444 C1442 1.419 . S
C1444 C1445 1.363 . S
C1444 H1447 0.929 . S
C1445 C1444 1.363 . S
C1445 C1451 1.428 . S
H1446 C1442 0.930 . S
H1447 C1444 0.929 . S
S1448 N1449 1.613 . S
S1448 N1450 1.610 . S
N1449 S1448 1.613 . S
N1449 C1452 1.350 . S
N1450 S1448 1.610 . S
N1450 C1451 1.351 . S
C1451 C1445 1.428 . S
C1451 N1450 1.351 . S
C1451 C1452 1.434 . S
C1452 C1443 1.429 . S
C1452 N1449 1.350 . S
C1452 C1451 1.434 . S
C1453 C1454 1.369 . S
C1453 C1455 1.419 . S
C1453 H1457 0.930 . S
C1454 C1453 1.369 . S
C1454 C1463 1.429 . S
C1455 C1453 1.419 . S
C1455 C1456 1.363 . S
C1455 H1458 0.929 . S
C1456 C1455 1.363 . S
C1456 C1462 1.428 . S
H1457 C1453 0.930 . S
H1458 C1455 0.929 . S
S1459 N1460 1.613 . S
S1459 N1461 1.610 . S
N1460 S1459 1.613 . S
N1460 C1463 1.350 . S
N1461 S1459 1.610 . S
N1461 C1462 1.351 . S
C1462 C1456 1.428 . S
C1462 N1461 1.351 . S
C1462 C1463 1.434 . S
C1463 C1454 1.429 . S
C1463 N1460 1.350 . S
C1463 C1462 1.434 . S
C1464 C1465 1.369 . S
C1464 C1466 1.419 1_554 S
C1464 H1468 0.930 . S
C1465 C1464 1.369 . S
C1465 C1474 1.429 . S
C1466 C1464 1.419 1_556 S
C1466 C1467 1.363 . S
C1466 H1469 0.929 . S
C1467 C1466 1.363 . S
C1467 C1473 1.428 . S
H1468 C1464 0.930 . S
H1469 C1466 0.929 . S
S1470 N1471 1.613 . S
S1470 N1472 1.610 1_554 S
N1471 S1470 1.613 . S
N1471 C1474 1.350 . S
N1472 S1470 1.610 1_556 S
N1472 C1473 1.351 . S
C1473 C1467 1.428 . S
C1473 N1472 1.351 . S
C1473 C1474 1.434 1_556 S
C1474 C1465 1.429 . S
C1474 N1471 1.350 . S
C1474 C1473 1.434 1_554 S
C1475 C1476 1.369 . S
C1475 C1477 1.419 1_556 S
C1475 H1479 0.930 . S
C1476 C1475 1.369 . S
C1476 C1485 1.429 . S
C1477 C1475 1.419 1_554 S
C1477 C1478 1.363 . S
C1477 H1480 0.929 . S
C1478 C1477 1.363 . S
C1478 C1484 1.428 . S
H1479 C1475 0.930 . S
H1480 C1477 0.929 . S
S1481 N1482 1.613 . S
S1481 N1483 1.610 1_556 S
N1482 S1481 1.613 . S
N1482 C1485 1.350 . S
N1483 S1481 1.610 1_554 S
N1483 C1484 1.351 . S
C1484 C1478 1.428 . S
C1484 N1483 1.351 . S
C1484 C1485 1.434 1_554 S
C1485 C1476 1.429 . S
C1485 N1482 1.350 . S
C1485 C1484 1.434 1_556 S
C1486 C1487 1.369 . S
C1486 C1488 1.419 1_554 S
C1486 H1490 0.930 . S
C1487 C1486 1.369 . S
C1487 C1496 1.429 . S
C1488 C1486 1.419 1_556 S
C1488 C1489 1.363 . S
C1488 H1491 0.929 . S
C1489 C1488 1.363 . S
C1489 C1495 1.428 . S
H1490 C1486 0.930 . S
H1491 C1488 0.929 . S
S1492 N1493 1.613 . S
S1492 N1494 1.610 1_554 S
N1493 S1492 1.613 . S
N1493 C1496 1.350 . S
N1494 S1492 1.610 1_556 S
N1494 C1495 1.351 . S
C1495 C1489 1.428 . S
C1495 N1494 1.351 . S
C1495 C1496 1.434 1_556 S
C1496 C1487 1.429 . S
C1496 N1493 1.350 . S
C1496 C1495 1.434 1_554 S
C1497 C1498 1.369 . S
C1497 C1499 1.419 1_554 S
C1497 H1501 0.930 . S
C1498 C1497 1.369 . S
C1498 C1507 1.429 . S
C1499 C1497 1.419 1_556 S
C1499 C1500 1.363 . S
C1499 H1502 0.929 . S
C1500 C1499 1.363 . S
C1500 C1506 1.428 . S
H1501 C1497 0.930 . S
H1502 C1499 0.929 . S
S1503 N1504 1.578 1_556 S
S1503 N1505 1.644 . S
N1504 S1503 1.578 1_554 S
N1504 C1507 1.350 . S
N1505 S1503 1.644 . S
N1505 C1506 1.351 . S
C1506 C1500 1.428 . S
C1506 N1505 1.351 . S
C1506 C1507 1.434 1_556 S
C1507 C1498 1.429 . S
C1507 N1504 1.350 . S
C1507 C1506 1.434 1_554 S
C1508 C1509 1.369 . S
C1508 C1510 1.419 1_556 S
C1508 H1512 0.930 . S
C1509 C1508 1.369 . S
C1509 C1518 1.429 . S
C1510 C1508 1.419 1_554 S
C1510 C1511 1.363 . S
C1510 H1513 0.929 . S
C1511 C1510 1.363 . S
C1511 C1517 1.428 . S
H1512 C1508 0.930 . S
H1513 C1510 0.929 . S
S1514 N1515 1.613 1_554 S
S1514 N1516 1.610 . S
N1515 S1514 1.613 1_556 S
N1515 C1518 1.350 . S
N1516 S1514 1.610 . S
N1516 C1517 1.351 . S
C1517 C1511 1.428 . S
C1517 N1516 1.351 . S
C1517 C1518 1.434 1_554 S
C1518 C1509 1.429 . S
C1518 N1515 1.350 . S
C1518 C1517 1.434 1_556 S
C1519 C1520 1.369 . S
C1519 C1521 1.419 1_554 S
C1519 H1523 0.930 . S
C1520 C1519 1.369 . S
C1520 C1529 1.429 . S
C1521 C1519 1.419 1_556 S
C1521 C1522 1.363 . S
C1521 H1524 0.929 . S
C1522 C1521 1.363 . S
C1522 C1528 1.428 . S
H1523 C1519 0.930 . S
H1524 C1521 0.929 . S
S1525 N1526 1.612 . S
S1525 N1527 1.612 1_554 S
N1526 S1525 1.612 . S
N1526 C1529 1.350 . S
N1527 S1525 1.612 1_556 S
N1527 C1528 1.351 . S
C1528 C1522 1.428 . S
C1528 N1527 1.351 . S
C1528 C1529 1.434 1_556 S
C1529 C1520 1.429 . S
C1529 N1526 1.350 . S
C1529 C1528 1.434 1_554 S
C1530 C1531 1.369 . S
C1530 C1532 1.419 1_556 S
C1530 H1534 0.930 . S
C1531 C1530 1.369 . S
C1531 C1540 1.429 . S
C1532 C1530 1.419 1_554 S
C1532 C1533 1.363 . S
C1532 H1535 0.929 . S
C1533 C1532 1.363 . S
C1533 C1539 1.428 . S
H1534 C1530 0.930 . S
H1535 C1532 0.929 . S
S1536 N1537 1.613 1_554 S
S1536 N1538 1.610 . S
N1537 S1536 1.613 1_556 S
N1537 C1540 1.350 . S
N1538 S1536 1.610 . S
N1538 C1539 1.351 . S
C1539 C1533 1.428 . S
C1539 N1538 1.351 . S
C1539 C1540 1.434 1_554 S
C1540 C1531 1.429 . S
C1540 N1537 1.350 . S
C1540 C1539 1.434 1_556 S
C1541 C1542 1.369 . S
C1541 C1543 1.419 1_554 S
C1541 H1545 0.930 . S
C1542 C1541 1.369 . S
C1542 C1551 1.429 . S
C1543 C1541 1.419 1_556 S
C1543 C1544 1.363 . S
C1543 H1546 0.929 . S
C1544 C1543 1.363 . S
C1544 C1550 1.428 . S
H1545 C1541 0.930 . S
H1546 C1543 0.929 . S
S1547 N1548 1.613 1_556 S
S1547 N1549 1.610 . S
N1548 S1547 1.613 1_554 S
N1548 C1551 1.350 . S
N1549 S1547 1.610 . S
N1549 C1550 1.351 . S
C1550 C1544 1.428 . S
C1550 N1549 1.351 . S
C1550 C1551 1.434 1_556 S
C1551 C1542 1.429 . S
C1551 N1548 1.350 . S
C1551 C1550 1.434 1_554 S
C1552 C1553 1.369 . S
C1552 C1554 1.419 1_455 S
C1552 H1556 0.930 . S
C1553 C1552 1.369 . S
C1553 C1562 1.429 . S
C1554 C1552 1.419 1_655 S
C1554 C1555 1.363 . S
C1554 H1557 0.929 . S
C1555 C1554 1.363 . S
C1555 C1561 1.428 . S
H1556 C1552 0.930 . S
H1557 C1554 0.929 . S
S1558 N1559 1.613 . S
S1558 N1560 1.610 1_455 S
N1559 S1558 1.613 . S
N1559 C1562 1.350 . S
N1560 S1558 1.610 1_655 S
N1560 C1561 1.351 . S
C1561 C1555 1.428 . S
C1561 N1560 1.351 . S
C1561 C1562 1.434 1_655 S
C1562 C1553 1.429 . S
C1562 N1559 1.350 . S
C1562 C1561 1.434 1_455 S
C1563 C1564 1.369 . S
C1563 C1565 1.419 1_565 S
C1563 H1567 0.930 . S
C1564 C1563 1.369 . S
C1564 C1573 1.429 . S
C1565 C1563 1.419 1_545 S
C1565 C1566 1.363 . S
C1565 H1568 0.929 . S
C1566 C1565 1.363 . S
C1566 C1572 1.428 . S
H1567 C1563 0.930 . S
H1568 C1565 0.929 . S
S1569 N1570 1.613 1_545 S
S1569 N1571 1.610 . S
N1570 S1569 1.613 1_565 S
N1570 C1573 1.350 . S
N1571 S1569 1.610 . S
N1571 C1572 1.351 . S
C1572 C1566 1.428 . S
C1572 N1571 1.351 . S
C1572 C1573 1.434 1_545 S
C1573 C1564 1.429 . S
C1573 N1570 1.350 . S
C1573 C1572 1.434 1_565 S
C1574 C1575 1.369 . S
C1574 C1576 1.419 1_455 S
C1574 H1578 0.930 . S
C1575 C1574 1.369 . S
C1575 C1584 1.429 . S
C1576 C1574 1.419 1_655 S
C1576 C1577 1.363 . S
C1576 H1579 0.929 . S
C1577 C1576 1.363 . S
C1577 C1583 1.428 . S
H1578 C1574 0.930 . S
H1579 C1576 0.929 . S
S1580 N1581 1.613 . S
S1580 N1582 1.610 1_455 S
N1581 S1580 1.613 . S
N1581 C1584 1.350 . S
N1582 S1580 1.610 1_655 S
N1582 C1583 1.351 . S
C1583 C1577 1.428 . S
C1583 N1582 1.351 . S
C1583 C1584 1.434 1_655 S
C1584 C1575 1.429 . S
C1584 N1581 1.350 . S
C1584 C1583 1.434 1_455 S
C1585 C1586 1.369 . S
C1585 C1587 1.419 1_565 S
C1585 H1589 0.930 . S
C1586 C1585 1.369 . S
C1586 C1595 1.429 . S
C1587 C1585 1.419 1_545 S
C1587 C1588 1.363 . S
C1587 H1590 0.929 . S
C1588 C1587 1.363 . S
C1588 C1594 1.428 . S
H1589 C1585 0.930 . S
H1590 C1587 0.929 . S
S1591 N1592 1.613 1_545 S
S1591 N1593 1.610 . S
N1592 S1591 1.613 1_565 S
N1592 C1595 1.350 . S
N1593 S1591 1.610 . S
N1593 C1594 1.351 . S
C1594 C1588 1.428 . S
C1594 N1593 1.351 . S
C1594 C1595 1.434 1_545 S
C1595 C1586 1.429 . S
C1595 N1592 1.350 . S
C1595 C1594 1.434 1_565 S
C1596 C1597 1.369 . S
C1596 C1598 1.419 1_655 S
C1596 H1600 0.930 . S
C1597 C1596 1.369 . S
C1597 C1606 1.429 . S
C1598 C1596 1.419 1_455 S
C1598 C1599 1.363 . S
C1598 H1601 0.929 . S
C1599 C1598 1.363 . S
C1599 C1605 1.428 . S
H1600 C1596 0.930 . S
H1601 C1598 0.929 . S
S1602 N1603 1.613 . S
S1602 N1604 1.610 1_655 S
N1603 S1602 1.613 . S
N1603 C1606 1.350 . S
N1604 S1602 1.610 1_455 S
N1604 C1605 1.351 . S
C1605 C1599 1.428 . S
C1605 N1604 1.351 . S
C1605 C1606 1.434 1_455 S
C1606 C1597 1.429 . S
C1606 N1603 1.350 . S
C1606 C1605 1.434 1_655 S
C1607 C1608 1.369 . S
C1607 C1609 1.419 1_545 S
C1607 H1611 0.930 . S
C1608 C1607 1.369 . S
C1608 C1617 1.429 . S
C1609 C1607 1.419 1_565 S
C1609 C1610 1.363 . S
C1609 H1612 0.929 . S
C1610 C1609 1.363 . S
C1610 C1616 1.428 . S
H1611 C1607 0.930 . S
H1612 C1609 0.929 . S
S1613 N1614 1.613 . S
S1613 N1615 1.610 1_545 S
N1614 S1613 1.613 . S
N1614 C1617 1.350 . S
N1615 S1613 1.610 1_565 S
N1615 C1616 1.351 . S
C1616 C1610 1.428 . S
C1616 N1615 1.351 . S
C1616 C1617 1.434 1_565 S
C1617 C1608 1.429 . S
C1617 N1614 1.350 . S
C1617 C1616 1.434 1_545 S
C1618 C1619 1.369 . S
C1618 C1620 1.419 1_455 S
C1618 H1622 0.930 . S
C1619 C1618 1.369 . S
C1619 C1628 1.429 . S
C1620 C1618 1.419 1_655 S
C1620 C1621 1.363 . S
C1620 H1623 0.929 . S
C1621 C1620 1.363 . S
C1621 C1627 1.428 . S
H1622 C1618 0.930 . S
H1623 C1620 0.929 . S
S1624 N1625 1.613 1_655 S
S1624 N1626 1.610 . S
N1625 S1624 1.613 1_455 S
N1625 C1628 1.350 . S
N1626 S1624 1.610 . S
N1626 C1627 1.351 . S
C1627 C1621 1.428 . S
C1627 N1626 1.351 . S
C1627 C1628 1.434 1_655 S
C1628 C1619 1.429 . S
C1628 N1625 1.350 . S
C1628 C1627 1.434 1_455 S
C1629 C1630 1.369 . S
C1629 C1631 1.419 1_545 S
C1629 H1633 0.930 . S
C1630 C1629 1.369 . S
C1630 C1639 1.429 . S
C1631 C1629 1.419 1_565 S
C1631 C1632 1.363 . S
C1631 H1634 0.929 . S
C1632 C1631 1.363 . S
C1632 C1638 1.428 . S
H1633 C1629 0.930 . S
H1634 C1631 0.929 . S
S1635 N1636 1.613 1_565 S
S1635 N1637 1.610 . S
N1636 S1635 1.613 1_545 S
N1636 C1639 1.350 . S
N1637 S1635 1.610 . S
N1637 C1638 1.351 . S
C1638 C1632 1.428 . S
C1638 N1637 1.351 . S
C1638 C1639 1.434 1_565 S
C1639 C1630 1.429 . S
C1639 N1636 1.350 . S
C1639 C1638 1.434 1_545 S
C1640 C1641 1.369 . S
C1640 C1642 1.419 1_545 S
C1640 H1644 0.930 . S
C1641 C1640 1.369 . S
C1641 C1650 1.429 . S
C1642 C1640 1.419 1_565 S
C1642 C1643 1.363 . S
C1642 H1645 0.929 . S
C1643 C1642 1.363 . S
C1643 C1649 1.428 . S
H1644 C1640 0.930 . S
H1645 C1642 0.929 . S
S1646 N1647 1.613 . S
S1646 N1648 1.610 1_545 S
N1647 S1646 1.613 . S
N1647 C1650 1.350 . S
N1648 S1646 1.610 1_565 S
N1648 C1649 1.351 . S
C1649 C1643 1.428 . S
C1649 N1648 1.351 . S
C1649 C1650 1.434 1_565 S
C1650 C1641 1.429 . S
C1650 N1647 1.350 . S
C1650 C1649 1.434 1_545 S
C1651 C1652 1.369 . S
C1651 C1653 1.419 1_545 S
C1651 H1655 0.930 . S
C1652 C1651 1.369 . S
C1652 C1661 1.429 . S
C1653 C1651 1.419 1_565 S
C1653 C1654 1.363 . S
C1653 H1656 0.929 . S
C1654 C1653 1.363 . S
C1654 C1660 1.428 . S
H1655 C1651 0.930 . S
H1656 C1653 0.929 . S
S1657 N1658 1.613 . S
S1657 N1659 1.610 1_545 S
N1658 S1657 1.613 . S
N1658 C1661 1.350 . S
N1659 S1657 1.610 1_565 S
N1659 C1660 1.351 . S
C1660 C1654 1.428 . S
C1660 N1659 1.351 . S
C1660 C1661 1.434 1_565 S
C1661 C1652 1.429 . S
C1661 N1658 1.350 . S
C1661 C1660 1.434 1_545 S
C1662 C1663 1.369 . S
C1662 C1664 1.419 1_655 S
C1662 H1666 0.930 . S
C1663 C1662 1.369 . S
C1663 C1672 1.429 . S
C1664 C1662 1.419 1_455 S
C1664 C1665 1.363 . S
C1664 H1667 0.929 . S
C1665 C1664 1.363 . S
C1665 C1671 1.428 . S
H1666 C1662 0.930 . S
H1667 C1664 0.929 . S
S1668 N1669 1.600 1_455 S
S1668 N1670 1.623 . S
N1669 S1668 1.600 1_655 S
N1669 C1672 1.350 . S
N1670 S1668 1.623 . S
N1670 C1671 1.351 . S
C1671 C1665 1.428 . S
C1671 N1670 1.351 . S
C1671 C1672 1.434 1_455 S
C1672 C1663 1.429 . S
C1672 N1669 1.350 . S
C1672 C1671 1.434 1_655 S
C1673 C1674 1.369 . S
C1673 C1675 1.419 1_545 S
C1673 H1677 0.930 . S
C1674 C1673 1.369 . S
C1674 C1683 1.429 . S
C1675 C1673 1.419 1_565 S
C1675 C1676 1.363 . S
C1675 H1678 0.929 . S
C1676 C1675 1.363 . S
C1676 C1682 1.428 . S
H1677 C1673 0.930 . S
H1678 C1675 0.929 . S
S1679 N1680 1.613 1_565 S
S1679 N1681 1.610 . S
N1680 S1679 1.613 1_545 S
N1680 C1683 1.350 . S
N1681 S1679 1.610 . S
N1681 C1682 1.351 . S
C1682 C1676 1.428 . S
C1682 N1681 1.351 . S
C1682 C1683 1.434 1_565 S
C1683 C1674 1.429 . S
C1683 N1680 1.350 . S
C1683 C1682 1.434 1_545 S
C1684 C1685 1.369 . S
C1684 C1686 1.419 1_455 S
C1684 H1688 0.930 . S
C1685 C1684 1.369 . S
C1685 C1694 1.429 . S
C1686 C1684 1.419 1_655 S
C1686 C1687 1.363 . S
C1686 H1689 0.929 . S
C1687 C1686 1.363 . S
C1687 C1693 1.428 . S
H1688 C1684 0.930 . S
H1689 C1686 0.929 . S
S1690 N1691 1.613 1_655 S
S1690 N1692 1.610 . S
N1691 S1690 1.613 1_455 S
N1691 C1694 1.350 . S
N1692 S1690 1.610 . S
N1692 C1693 1.351 . S
C1693 C1687 1.428 . S
C1693 N1692 1.351 . S
C1693 C1694 1.434 1_655 S
C1694 C1685 1.429 . S
C1694 N1691 1.350 . S
C1694 C1693 1.434 1_455 S
C1695 C1696 1.369 . S
C1695 C1697 1.419 1_545 S
C1695 H1699 0.930 . S
C1696 C1695 1.369 . S
C1696 C1705 1.429 . S
C1697 C1695 1.419 1_565 S
C1697 C1698 1.363 . S
C1697 H1700 0.929 . S
C1698 C1697 1.363 . S
C1698 C1704 1.428 . S
H1699 C1695 0.930 . S
H1700 C1697 0.929 . S
S1701 N1702 1.613 1_565 S
S1701 N1703 1.610 . S
N1702 S1701 1.613 1_545 S
N1702 C1705 1.350 . S
N1703 S1701 1.610 . S
N1703 C1704 1.351 . S
C1704 C1698 1.428 . S
C1704 N1703 1.351 . S
C1704 C1705 1.434 1_565 S
C1705 C1696 1.429 . S
C1705 N1702 1.350 . S
C1705 C1704 1.434 1_545 S
C1706 C1707 1.369 . S
C1706 C1708 1.419 1_655 S
C1706 H1710 0.930 . S
C1707 C1706 1.369 . S
C1707 C1716 1.429 . S
C1708 C1706 1.419 1_455 S
C1708 C1709 1.363 . S
C1708 H1711 0.929 . S
C1709 C1708 1.363 . S
C1709 C1715 1.428 . S
H1710 C1706 0.930 . S
H1711 C1708 0.929 . S
S1712 N1713 1.635 . S
S1712 N1714 1.590 1_655 S
N1713 S1712 1.635 . S
N1713 C1716 1.350 . S
N1714 S1712 1.590 1_455 S
N1714 C1715 1.351 . S
C1715 C1709 1.428 . S
C1715 N1714 1.351 . S
C1715 C1716 1.434 1_455 S
C1716 C1707 1.429 . S
C1716 N1713 1.350 . S
C1716 C1715 1.434 1_655 S
C1717 C1718 1.369 . S
C1717 C1719 1.419 1_455 S
C1717 H1721 0.930 . S
C1718 C1717 1.369 . S
C1718 C1727 1.429 . S
C1719 C1717 1.419 1_655 S
C1719 C1720 1.363 . S
C1719 H1722 0.929 . S
C1720 C1719 1.363 . S
C1720 C1726 1.428 . S
H1721 C1717 0.930 . S
H1722 C1719 0.929 . S
S1723 N1724 1.624 . S
S1723 N1725 1.600 1_455 S
N1724 S1723 1.624 . S
N1724 C1727 1.350 . S
N1725 S1723 1.600 1_655 S
N1725 C1726 1.351 . S
C1726 C1720 1.428 . S
C1726 N1725 1.351 . S
C1726 C1727 1.434 1_655 S
C1727 C1718 1.429 . S
C1727 N1724 1.350 . S
C1727 C1726 1.434 1_455 S
C673 C546 1.392 . S
C675 C11 1.398 . S
C684 C25 1.292 . S
C686 C504 1.291 . S
C695 C39 1.369 . S
C697 C529 1.367 . S
C706 C543 1.259 . S
C708 C53 1.256 . S
C717 C473 1.301 . S
C719 C67 1.299 . S
C728 C70 1.295 . S
C730 C487 1.295 . S
C739 C95 1.334 . S
C741 C490 1.335 . S
C750 C98 1.327 . S
C752 C448 1.324 . S
C761 C112 1.455 . S
C763 C434 1.453 . S
C772 C403 1.295 . S
C774 C137 1.295 . S
C783 C406 1.399 . S
C785 C140 1.395 . S
C794 C165 1.346 . S
C796 C431 1.346 . S
C805 C168 1.309 . S
C807 C361 1.311 . S
C816 C193 1.354 . S
C818 C364 1.355 . S
C827 C389 1.263 . S
C829 C196 1.260 . S
C838 C336 1.407 . S
C840 C221 1.411 . S
C849 C235 1.295 . S
C851 C627 1.291 . S
C860 C658 1.311 . S
C862 C238 1.308 . S
C871 C641 1.412 . S
C873 C252 1.409 . S
C882 C644 1.245 . S
C884 C266 1.242 . S
C893 C571 1.399 . S
C895 C280 1.399 . S
C904 C599 1.309 . S
C906 C305 1.309 . S
C915 C308 1.334 . S
C917 C602 1.334 . S
C926 C574 1.272 . S
C928 C322 1.270 . S
C937 C459 1.374 . S
C939 C291 1.377 . S
C948 C249 1.281 . S
C950 C462 1.283 . S
C959 C476 1.388 . S
C961 C263 1.391 . S
C970 C501 1.260 . S
C972 C277 1.259 . S
C981 C333 1.306 . S
C983 C515 1.308 . S
C992 C518 1.318 . S
C994 C294 1.319 . S
C1003 C319 1.331 . S
C1005 C532 1.333 . S
C1014 C224 1.309 . S
C1016 C557 1.308 . S
C1025 C560 1.447 . S
C1027 C210 1.449 . S
C1036 C179 1.357 . S
C1038 C669 1.354 . S
C1047 C630 1.402 . S
C1049 C182 1.400 . S
C1058 C207 1.284 . S
C1060 C655 1.285 . S
C1069 C126 1.242 . S
C1071 C585 1.246 . S
C1080 C151 1.362 . S
C1082 C588 1.362 . S
C1091 C154 1.323 . S
C1093 C613 1.323 . S
C1102 C616 1.403 . S
C1104 C123 1.406 . S
C1113 C347 1.316 . S
C1115 C109 1.320 . S
C1124 C392 1.297 . S
C1126 C14 1.293 . S
C1135 C417 1.387 . S
C1137 C28 1.386 . S
C1146 C420 1.261 . S
C1148 C42 1.259 . S
C1157 C445 1.423 . S
C1159 C0 1.422 . S
C1168 C81 1.282 . S
C1170 C375 1.280 . S
C1179 C378 1.326 . S
C1181 C84 1.323 . S
C1190 C350 1.277 . S
C1192 C56 1.278 . S
C1201 C5 1.505 . S
C1203 C373 1.496 . S
C1212 C383 1.461 . S
C1214 C19 1.463 . S
C1223 C33 1.502 . S
C1225 C345 1.494 . S
C1234 C47 1.461 . S
C1236 C355 1.457 . S
C1245 C61 1.464 . S
C1247 C425 1.466 . S
C1256 C443 1.509 . S
C1258 C79 1.509 . S
C1267 C89 1.469 . S
C1269 C397 1.473 . S
C1278 C415 1.521 . S
C1280 C107 1.519 . S
C1289 C121 1.496 . S
C1291 C513 1.493 . S
C1300 C523 1.463 . S
C1302 C131 1.462 . S
C1311 C149 1.469 . S
C1313 C537 1.481 . S
C1322 C159 1.493 . S
C1324 C555 1.485 . S
C1333 C177 1.473 . S
C1335 C457 1.470 . S
C1344 C187 1.480 . S
C1346 C467 1.484 . S
C1355 C481 1.444 . S
C1357 C205 1.437 . S
C1366 C215 1.506 . S
C1368 C499 1.498 . S
C1377 C611 1.482 . S
C1379 C229 1.495 . S
C1388 C247 1.496 . S
C1390 C635 1.506 . S
C1399 C261 1.476 . S
C1401 C653 1.466 . S
C1410 C565 1.491 . S
C1412 C275 1.478 . S
C1421 C667 1.485 . S
C1423 C289 1.487 . S
C1432 C299 1.486 . S
C1434 C583 1.471 . S
C1443 C593 1.475 . S
C1445 C317 1.465 . S
C1454 C331 1.443 . S
C1456 C621 1.460 . S
C1465 C597 1.497 . S
C1467 C285 1.506 . S
C1476 C243 1.473 . S
C1478 C607 1.470 . S
C1487 C625 1.494 . S
C1489 C257 1.504 . S
C1498 C579 1.450 . S
C1500 C271 1.452 . S
C1509 C649 1.458 . S
C1511 C327 1.455 . S
C1520 C303 1.516 . S
C1522 C569 1.518 . S
C1531 C663 1.478 . S
C1533 C313 1.476 . S
C1542 C233 1.516 . S
C1544 C639 1.516 . S
C1553 C471 1.492 . S
C1555 C219 1.495 . S
C1564 C173 1.488 . S
C1566 C485 1.481 . S
C1575 C191 1.466 . S
C1577 C495 1.479 . S
C1586 C453 1.467 . S
C1588 C201 1.465 . S
C1597 C135 1.439 . S
C1599 C551 1.449 . S
C1608 C509 1.485 . S
C1610 C145 1.482 . S
C1619 C163 1.464 . S
C1621 C527 1.462 . S
C1630 C117 1.505 . S
C1632 C541 1.495 . S
C1641 C387 1.485 . S
C1643 C103 1.502 . S
C1652 C23 1.490 . S
C1654 C411 1.502 . S
C1663 C37 1.469 . S
C1665 C429 1.465 . S
C1674 C439 1.497 . S
C1676 C51 1.483 . S
C1685 C9 1.492 . S
C1687 C401 1.483 . S
C1696 C75 1.478 . S
C1698 C359 1.464 . S
C1707 C93 1.459 . S
C1709 C369 1.472 . S
C1718 C65 1.455 . S
C1720 C341 1.466 . S
