# Generated by pormake.
# Topology dmp, (4)-cn, num edge types: 1
# Building blocks:
#     Node 0, Type 0, BuildingBlock: QUQFOY_clean_sbu_3, # of connection points: 4
#     Node 1, Type 0, BuildingBlock: QUQFOY_clean_sbu_3, # of connection points: 4
#     Node 2, Type 0, BuildingBlock: QUQFOY_clean_sbu_3, # of connection points: 4
#     Node 3, Type 0, BuildingBlock: QUQFOY_clean_sbu_3, # of connection points: 4
#     Edge 4, Type (0, 0), BuildingBlock: UVAHIK_clean_linker_0, # of connection points: 2
#     Edge 5, Type (0, 0), BuildingBlock: UVAHIK_clean_linker_0, # of connection points: 2
#     Edge 6, Type (0, 0), BuildingBlock: UVAHIK_clean_linker_0, # of connection points: 2
#     Edge 7, Type (0, 0), BuildingBlock: UVAHIK_clean_linker_0, # of connection points: 2
#     Edge 8, Type (0, 0), BuildingBlock: UVAHIK_clean_linker_0, # of connection points: 2
#     Edge 9, Type (0, 0), BuildingBlock: UVAHIK_clean_linker_0, # of connection points: 2
#     Edge 10, Type (0, 0), BuildingBlock: UVAHIK_clean_linker_0, # of connection points: 2
#     Edge 11, Type (0, 0), BuildingBlock: UVAHIK_clean_linker_0, # of connection points: 2
# Relax obj value: 0.085
# Max RMSD: 0.188
# Mean RMSD: 0.188
data_MOF--net-dmp--node1-QUQFOY_clean_sbu_3--edge1-UVAHIK_clean_linker_0
_symmetry_space_group_name_H-M    P1
_symmetry_Int_Tables_number       1
_symmetry_cell_setting            triclinic
loop_
_symmetry_equiv_pos_as_xyz
'x, y, z'
_cell_length_a     54.302585
_cell_length_b     25.509798
_cell_length_c     20.744523
_cell_angle_alpha  90.530872
_cell_angle_beta   91.749198
_cell_angle_gamma 90.093094
loop_
_atom_site_label
_atom_site_type_symbol
_atom_site_fract_x
_atom_site_fract_y
_atom_site_fract_z
_atom_type_partial_charge
C0 C 0.06275 0.15951 0.0853 0.0
O1 O 0.07986 0.17234 0.04811 0.0
Cd2 Cd 0.11313 0.23167 0.07699 0.0
O3 O 0.06147 0.18068 0.14103 0.0
Cd4 Cd 0.08386 0.2489 0.20712 0.0
C5 C 0.13554 0.17508 0.21789 0.0
O6 O 0.09842 0.31047 0.12412 0.0
O7 O 0.11361 0.31833 0.22144 0.0
O8 O 0.04522 0.2934 0.22817 0.0
C9 C 0.11241 0.33521 0.16422 0.0
O10 O 0.13797 0.18848 0.15943 0.0
C11 C 0.04733 0.29233 0.28925 0.0
O12 O 0.11626 0.18769 0.24825 0.0
O13 O 0.06603 0.2685 0.31294 0.0
C14 C 0.3813 0.66161 0.38 0.0
O15 O 0.36424 0.6751 0.41722 0.0
Cd16 Cd 0.33111 0.73421 0.38861 0.0
O17 O 0.38267 0.68205 0.32435 0.0
Cd18 Cd 0.36037 0.74973 0.25881 0.0
C19 C 0.30861 0.67578 0.24764 0.0
O20 O 0.3458 0.81256 0.34182 0.0
O21 O 0.33049 0.81846 0.24458 0.0
O22 O 0.3989 0.79456 0.23717 0.0
C23 C 0.33176 0.83644 0.30168 0.0
O24 O 0.30615 0.68999 0.30611 0.0
C25 C 0.39663 0.79251 0.17612 0.0
O26 O 0.32794 0.68794 0.21743 0.0
O27 O 0.37795 0.76793 0.15277 0.0
C28 C 0.88746 0.76045 0.88077 0.0
O29 O 0.86962 0.75071 0.917 0.0
Cd30 Cd 0.83183 0.7114 0.8776 0.0
O31 O 0.88718 0.74299 0.82293 0.0
Cd32 Cd 0.8608 0.68505 0.75107 0.0
C33 C 0.82117 0.78591 0.74036 0.0
O34 O 0.83732 0.62891 0.82474 0.0
O35 O 0.82292 0.63905 0.72743 0.0
O36 O 0.89469 0.62422 0.73389 0.0
C37 C 0.82095 0.61734 0.78172 0.0
O38 O 0.81634 0.77363 0.79803 0.0
C39 C 0.89446 0.62786 0.67287 0.0
O40 O 0.8376 0.76145 0.70931 0.0
O41 O 0.87893 0.6595 0.6477 0.0
C42 C 0.55286 0.25842 0.58123 0.0
O43 O 0.5706 0.2479 0.54487 0.0
Cd44 Cd 0.60831 0.20907 0.58419 0.0
O45 O 0.55311 0.24177 0.63905 0.0
Cd46 Cd 0.57943 0.18435 0.71033 0.0
C47 C 0.61904 0.28549 0.72154 0.0
O48 O 0.60294 0.12714 0.63672 0.0
O49 O 0.61743 0.13942 0.73384 0.0
O50 O 0.54564 0.1233 0.72795 0.0
C51 C 0.61935 0.11657 0.67974 0.0
O52 O 0.62387 0.27247 0.66384 0.0
C53 C 0.54602 0.1278 0.78898 0.0
O54 O 0.6026 0.26136 0.75249 0.0
O55 O 0.56154 0.16008 0.81389 0.0
C56 C 0.30318 0.88013 0.37841 0.0
C57 C 0.31573 0.88029 0.32015 0.0
C58 C 0.28489 0.91764 0.38987 0.0
C59 C 0.2618 0.04669 0.33852 0.0
H60 H 0.19586 -0.01007 0.35232 0.0
C61 C 0.17904 0.14442 0.22022 0.0
C62 C 0.15612 0.14608 0.24989 0.0
C63 C 0.19876 0.11715 0.24795 0.0
C64 C 0.21416 0.00668 0.35021 0.0
H65 H 0.32008 0.92075 0.22991 0.0
H66 H 0.28902 -0.01295 0.25079 0.0
H67 H 0.23166 0.93272 0.36902 0.0
H68 H 0.13607 0.12041 0.33275 0.0
H69 H 0.17089 0.0714 0.38126 0.0
H70 H 0.2445 0.11992 0.31681 0.0
C71 C 0.293 0.95795 0.28736 0.0
C72 C 0.23464 -0.02607 0.35976 0.0
C73 C 0.31071 0.91994 0.27528 0.0
C74 C 0.1535 0.11988 0.30871 0.0
C75 C 0.17337 0.09183 0.33637 0.0
C76 C 0.24143 0.07937 0.32947 0.0
C77 C 0.27949 0.95653 0.34398 0.0
C78 C 0.25857 -0.00681 0.35099 0.0
C79 C 0.19624 0.09041 0.3062 0.0
C80 C 0.21737 0.05914 0.33196 0.0
H81 H 0.30658 0.84948 0.41337 0.0
H82 H 0.27466 0.91569 0.43379 0.0
H83 H 0.28007 0.06261 0.33224 0.0
H84 H 0.18187 0.16422 0.17506 0.0
H85 H 0.21592 0.11599 0.22264 0.0
C86 C 0.13349 0.41928 0.19028 0.0
C87 C 0.12845 0.37881 0.14559 0.0
C88 C 0.15118 0.45721 0.17798 0.0
C89 C 0.2095 0.47222 0.10552 0.0
H90 H 0.19966 0.61894 0.14765 0.0
C91 C 0.2907 0.61919 0.15672 0.0
C92 C 0.28802 0.64636 0.21544 0.0
C93 C 0.27082 0.59069 0.1289 0.0
C94 C 0.20273 0.57818 0.13521 0.0
H95 H 0.13755 0.34642 0.05245 0.0
H96 H 0.16945 0.41248 0.03164 0.0
H97 H 0.16408 0.56117 0.13236 0.0
H98 H 0.26217 0.66583 0.2899 0.0
H99 H 0.22812 0.61684 0.24205 0.0
H100 H 0.24828 0.48853 0.11311 0.0
C101 C 0.15924 0.41513 0.07559 0.0
C102 C 0.18236 0.54523 0.12623 0.0
C103 C 0.14096 0.3777 0.08727 0.0
C104 C 0.26504 0.64527 0.24483 0.0
C105 C 0.24532 0.61756 0.21694 0.0
C106 C 0.22999 0.50523 0.11501 0.0
C107 C 0.16465 0.45488 0.12129 0.0
C108 C 0.18558 0.49152 0.11408 0.0
C109 C 0.24789 0.5898 0.15882 0.0
C110 C 0.22678 0.55801 0.13298 0.0
H111 H 0.12415 0.42083 0.23568 0.0
H112 H 0.15518 0.48699 0.21441 0.0
H113 H 0.21247 0.43085 0.09651 0.0
H114 H 0.30817 0.61927 0.13291 0.0
H115 H 0.27334 0.56949 0.08412 0.0
C116 C 0.64405 0.05712 0.60813 0.0
C117 C 0.64159 0.08519 0.66628 0.0
C118 C 0.66563 0.02861 0.59672 0.0
C119 C 0.73108 0.02065 0.65048 0.0
H120 H 0.72682 0.8724 0.60881 0.0
C121 C 0.79932 0.87088 0.74811 0.0
C122 C 0.80654 0.8282 0.71002 0.0
C123 C 0.78226 0.90709 0.72422 0.0
C124 C 0.72841 0.91403 0.61885 0.0
H125 H 0.65985 0.10528 0.75783 0.0
H126 H 0.69704 0.05632 0.73788 0.0
H127 H 0.68973 0.9268 0.60105 0.0
H128 H 0.80222 0.79057 0.61634 0.0
H129 H 0.77163 0.85386 0.57457 0.0
H130 H 0.76937 0.00753 0.67176 0.0
C131 C 0.68255 0.0565 0.70079 0.0
C132 C 0.70717 0.94513 0.6145 0.0
C133 C 0.66107 0.08423 0.71245 0.0
C134 C 0.7971 0.82351 0.64638 0.0
C135 C 0.77952 0.85938 0.62274 0.0
C136 C 0.75221 -0.01031 0.65487 0.0
C137 C 0.68519 0.02854 0.64283 0.0
C138 C 0.70814 -0.00176 0.6331 0.0
C139 C 0.77166 0.90105 0.66196 0.0
C140 C 0.7509 0.93563 0.64184 0.0
H141 H 0.62935 0.05712 0.57168 0.0
H142 H 0.66716 0.00717 0.55171 0.0
H143 H 0.73247 0.06173 0.66385 0.0
H144 H 0.80629 0.87531 0.79737 0.0
H145 H 0.77638 0.93832 0.75595 0.0
C146 C 0.77918 0.58439 0.7493 0.0
C147 C 0.79868 0.58622 0.79539 0.0
C148 C 0.75766 0.55689 0.7612 0.0
C149 C 0.73297 0.44708 0.84793 0.0
H150 H 0.67081 0.50843 0.79078 0.0
C151 C 0.64303 0.32458 0.8157 0.0
C152 C 0.63366 0.3283 0.75201 0.0
C153 C 0.66058 0.36091 0.83951 0.0
C154 C 0.68796 0.4909 0.80766 0.0
H155 H 0.81093 0.55996 0.89013 0.0
H156 H 0.77306 0.51038 0.91051 0.0
H157 H 0.70777 0.56285 0.79857 0.0
H158 H 0.63398 0.37418 0.66473 0.0
H159 H 0.66385 0.43799 0.70643 0.0
H160 H 0.71327 0.37438 0.85364 0.0
C161 C 0.77459 0.53097 0.86538 0.0
C162 C 0.70912 0.52199 0.81199 0.0
C163 C 0.7962 0.55926 0.85372 0.0
C164 C 0.64091 0.37049 0.71403 0.0
C165 C 0.65794 0.40717 0.73808 0.0
C166 C 0.71171 0.41586 0.84363 0.0
C167 C 0.75502 0.53004 0.81934 0.0
C168 C 0.73205 0.49989 0.82929 0.0
C169 C 0.66848 0.40208 0.8004 0.0
C170 C 0.68924 0.43703 0.82065 0.0
H171 H 0.7804 0.60459 0.7038 0.0
H172 H 0.74315 0.55602 0.72417 0.0
H173 H 0.7504 0.429 0.86132 0.0
H174 H 0.63787 0.29203 0.84566 0.0
H175 H 0.66843 0.35613 0.88772 0.0
C176 C 0.0264 0.10143 0.10604 0.0
C177 C 0.04464 0.11853 0.06433 0.0
C178 C 0.00991 0.06158 0.08695 0.0
C179 C 0.00198 0.95142 0.96997 0.0
H180 H 0.93337 0.96083 0.01497 0.0
C181 C 0.92627 0.81187 0.8634 0.0
C182 C 0.90761 0.79581 0.90452 0.0
C183 C 0.9438 0.84921 0.88409 0.0
C184 C 0.95253 0.95721 0.00269 0.0
H185 H 0.05956 0.10733 0.9693 0.0
H186 H 0.03064 0.03853 0.93584 0.0
H187 H 0.96183 0.03062 0.04799 0.0
H188 H 0.89343 0.80523 0.00065 0.0
H189 H 0.92408 0.86964 0.03673 0.0
H190 H -0.00741 0.87809 0.92428 0.0
C191 C 0.02932 0.0553 -0.01625 0.0
C192 C 0.96887 -0.0027 0.02164 0.0
C193 C 0.04581 0.09509 0.00284 0.0
C194 C 0.90742 0.81679 0.96748 0.0
C195 C 0.92491 0.8541 -0.01192 0.0
C196 C -0.01438 0.91132 0.95093 0.0
C197 C 0.01122 0.03783 0.02565 0.0
C198 C -0.00618 -0.00502 0.00552 0.0
C199 C 0.94308 0.87144 0.94635 0.0
C200 C 0.96068 0.91369 0.9671 0.0
H201 H 0.02499 0.1184 0.15384 0.0
H202 H -0.0036 0.04874 0.12078 0.0
H203 H 0.02114 0.94789 0.95755 0.0
H204 H 0.92697 0.79668 0.81457 0.0
H205 H 0.95743 0.86192 0.85051 0.0
C206 C 0.5123 0.06143 0.79946 0.0
C207 C 0.52992 0.09506 0.82891 0.0
C208 C 0.49804 0.02822 0.83658 0.0
C209 C 0.47751 0.00696 0.00364 0.0
H210 H 0.46383 0.866 0.9404 0.0
C211 C 0.43309 0.85134 0.16317 0.0
C212 C 0.41387 0.82119 0.13484 0.0
C213 C 0.44783 0.88294 0.12534 0.0
C214 C 0.46731 0.90537 0.95848 0.0
H215 H 0.5462 0.12047 0.92068 0.0
H216 H 0.52158 0.06208 -0.01453 0.0
H217 H 0.48795 0.92566 0.87603 0.0
H218 H 0.39561 0.79938 0.04411 0.0
H219 H 0.42145 0.8545 0.97792 0.0
H220 H 0.457 -0.0135 0.08627 0.0
C221 C 0.51849 0.06186 0.93366 0.0
C222 C 0.48109 0.93969 0.92151 0.0
C223 C 0.5327 0.09525 0.89649 0.0
C224 C 0.41029 0.82202 0.06744 0.0
C225 C 0.42514 0.85353 0.02949 0.0
C226 C 0.46382 0.97259 0.04069 0.0
C227 C 0.50109 0.02759 0.90416 0.0
C228 C 0.48637 -0.009 0.94356 0.0
C229 C 0.44381 0.8851 0.05815 0.0
C230 C 0.45855 0.92136 0.01862 0.0
H231 H 0.50961 0.06042 0.7475 0.0
H232 H 0.48453 0.00315 0.8122 0.0
H233 H 0.4808 0.04638 0.02174 0.0
H234 H 0.43642 0.85156 0.21492 0.0
H235 H 0.46232 0.90603 0.14885 0.0
C236 C 0.90829 0.59413 0.56566 0.0
C237 C 0.91083 0.59497 0.63328 0.0
C238 C 0.92283 0.5607 0.52881 0.0
C239 C 0.96099 0.44007 0.54173 0.0
H240 H -0.01451 0.48563 0.37786 0.0
C241 C 0.03318 0.32306 0.39761 0.0
C242 C 0.02983 0.32114 0.33015 0.0
C243 C 0.018 0.3546 0.43521 0.0
C244 C -0.02144 0.47206 0.4232 0.0
H245 H 0.93104 0.56211 0.71512 0.0
H246 H 0.95669 0.5048 0.65101 0.0
H247 H 0.96099 0.54544 0.44179 0.0
H248 H 0.00738 0.34961 0.24958 0.0
H249 H -0.01908 0.40411 0.31503 0.0
H250 H -0.02115 0.3668 0.52322 0.0
C251 C 0.94312 0.52907 0.62633 0.0
C252 C 0.96448 0.50639 0.45989 0.0
C253 C 0.92853 0.5623 0.66312 0.0
C254 C 0.01054 0.35026 0.30139 0.0
C255 C -0.00453 0.38187 0.33887 0.0
C256 C -0.02482 0.4058 0.50513 0.0
C257 C 0.94033 0.52743 0.55869 0.0
C258 C 0.95546 0.49088 0.51965 0.0
C259 C -0.00076 0.3851 0.40613 0.0
C260 C -0.01591 0.42133 0.44532 0.0
H261 H 0.89474 0.61859 0.54118 0.0
H262 H 0.91994 0.56012 0.47694 0.0
H263 H 0.95403 0.42637 0.58697 0.0
H264 H 0.04791 0.30125 0.42126 0.0
H265 H 0.0215 0.35641 0.48686 0.0
C266 C 0.41717 0.60217 0.35881 0.0
C267 C 0.39916 0.62048 0.40075 0.0
C268 C 0.4333 0.56194 0.37759 0.0
C269 C 0.4402 0.45295 0.49412 0.0
H270 H 0.50878 0.45851 0.44804 0.0
C271 C 0.51453 0.3114 0.59917 0.0
C272 C 0.53293 0.29401 0.55776 0.0
C273 C 0.49736 0.34917 0.57882 0.0
C274 C 0.48961 0.45595 0.46062 0.0
H275 H 0.38431 0.61111 0.49594 0.0
H276 H 0.4126 0.5417 0.52888 0.0
H277 H 0.48108 0.52917 0.41566 0.0
H278 H 0.54698 0.30146 0.4614 0.0
H279 H 0.51694 0.36661 0.4259 0.0
H280 H 0.44883 0.37982 0.53948 0.0
C281 C 0.41401 0.55778 0.48099 0.0
C282 C 0.47371 0.49655 0.44204 0.0
C283 C 0.39788 0.59793 0.46222 0.0
C284 C 0.53318 0.31406 0.49481 0.0
C285 C 0.51605 0.35179 0.47454 0.0
C286 C 0.45612 0.41235 0.51279 0.0
C287 C 0.43185 0.53902 0.43882 0.0
C288 C 0.44878 0.49564 0.45855 0.0
C289 C 0.49818 0.37052 0.5166 0.0
C290 C 0.48104 0.41331 0.49623 0.0
H291 H 0.41865 0.61842 0.31103 0.0
H292 H 0.44661 0.54813 0.34355 0.0
H293 H 0.42104 0.45048 0.50683 0.0
H294 H 0.5138 0.29696 0.64802 0.0
H295 H 0.48395 0.36293 0.61265 0.0
loop_
_geom_bond_atom_site_label_1
_geom_bond_atom_site_label_2
_geom_bond_distance
_geom_bond_site_symmetry_2
_ccdc_geom_bond_type
C0 O1 1.306 . S
C0 O3 1.160 . S
O1 C0 1.306 . S
O1 Cd2 2.228 . S
Cd2 O1 2.228 . S
Cd2 O6 2.273 . S
Cd2 O10 2.277 . S
O3 C0 1.160 . S
O3 Cd4 2.203 . S
Cd4 O3 2.203 . S
Cd4 O6 2.411 . S
Cd4 O7 2.333 . S
Cd4 O8 2.352 . S
Cd4 O12 2.277 . S
Cd4 O13 2.356 . S
C5 O10 1.209 . S
C5 O12 1.226 . S
O6 Cd2 2.273 . S
O6 Cd4 2.411 . S
O6 C9 1.320 . S
O7 Cd4 2.333 . S
O7 C9 1.214 . S
O8 Cd4 2.352 . S
O8 C11 1.258 . S
C9 O6 1.320 . S
C9 O7 1.214 . S
O10 Cd2 2.277 . S
O10 C5 1.209 . S
C11 O8 1.258 . S
C11 O13 1.282 . S
O12 Cd4 2.277 . S
O12 C5 1.226 . S
O13 Cd4 2.356 . S
O13 C11 1.282 . S
C14 O15 1.306 . S
C14 O17 1.160 . S
O15 C14 1.306 . S
O15 Cd16 2.228 . S
Cd16 O15 2.228 . S
Cd16 O20 2.273 . S
Cd16 O24 2.277 . S
O17 C14 1.160 . S
O17 Cd18 2.203 . S
Cd18 O17 2.203 . S
Cd18 O20 2.411 . S
Cd18 O21 2.333 . S
Cd18 O22 2.352 . S
Cd18 O26 2.277 . S
Cd18 O27 2.356 . S
C19 O24 1.209 . S
C19 O26 1.226 . S
O20 Cd16 2.273 . S
O20 Cd18 2.411 . S
O20 C23 1.320 . S
O21 Cd18 2.333 . S
O21 C23 1.214 . S
O22 Cd18 2.352 . S
O22 C25 1.258 . S
C23 O20 1.320 . S
C23 O21 1.214 . S
O24 Cd16 2.277 . S
O24 C19 1.209 . S
C25 O22 1.258 . S
C25 O27 1.282 . S
O26 Cd18 2.277 . S
O26 C19 1.226 . S
O27 Cd18 2.356 . S
O27 C25 1.282 . S
C28 O29 1.306 . S
C28 O31 1.160 . S
O29 C28 1.306 . S
O29 Cd30 2.228 . S
Cd30 O29 2.228 . S
Cd30 O34 2.273 . S
Cd30 O38 2.277 . S
O31 C28 1.160 . S
O31 Cd32 2.203 . S
Cd32 O31 2.203 . S
Cd32 O34 2.411 . S
Cd32 O35 2.333 . S
Cd32 O36 2.352 . S
Cd32 O40 2.277 . S
Cd32 O41 2.356 . S
C33 O38 1.209 . S
C33 O40 1.226 . S
O34 Cd30 2.273 . S
O34 Cd32 2.411 . S
O34 C37 1.320 . S
O35 Cd32 2.333 . S
O35 C37 1.214 . S
O36 Cd32 2.352 . S
O36 C39 1.258 . S
C37 O34 1.320 . S
C37 O35 1.214 . S
O38 Cd30 2.277 . S
O38 C33 1.209 . S
C39 O36 1.258 . S
C39 O41 1.282 . S
O40 Cd32 2.277 . S
O40 C33 1.226 . S
O41 Cd32 2.356 . S
O41 C39 1.282 . S
C42 O43 1.306 . S
C42 O45 1.160 . S
O43 C42 1.306 . S
O43 Cd44 2.228 . S
Cd44 O43 2.228 . S
Cd44 O48 2.273 . S
Cd44 O52 2.277 . S
O45 C42 1.160 . S
O45 Cd46 2.203 . S
Cd46 O45 2.203 . S
Cd46 O48 2.411 . S
Cd46 O49 2.333 . S
Cd46 O50 2.352 . S
Cd46 O54 2.277 . S
Cd46 O55 2.356 . S
C47 O52 1.209 . S
C47 O54 1.226 . S
O48 Cd44 2.273 . S
O48 Cd46 2.411 . S
O48 C51 1.320 . S
O49 Cd46 2.333 . S
O49 C51 1.214 . S
O50 Cd46 2.352 . S
O50 C53 1.258 . S
C51 O48 1.320 . S
C51 O49 1.214 . S
O52 Cd44 2.277 . S
O52 C47 1.209 . S
C53 O50 1.258 . S
C53 O55 1.282 . S
O54 Cd46 2.277 . S
O54 C47 1.226 . S
O55 Cd46 2.356 . S
O55 C53 1.282 . S
C56 C57 1.349 . S
C56 C58 1.327 . S
C56 H81 0.950 . S
C57 C56 1.349 . S
C57 C73 1.349 . S
C58 C56 1.327 . S
C58 C77 1.429 . S
C58 H82 0.950 . S
C59 C76 1.574 . S
C59 C78 1.368 . S
C59 H83 0.949 . S
H60 C64 0.949 . S
C61 C62 1.349 . S
C61 C63 1.327 . S
C61 H84 0.950 . S
C62 C61 1.349 . S
C62 C74 1.349 . S
C63 C61 1.327 . S
C63 C79 1.429 . S
C63 H85 0.950 . S
C64 H60 0.949 . S
C64 C72 1.574 1_545 S
C64 C80 1.368 . S
H65 C73 0.950 . S
H66 C71 0.950 . S
H67 C72 0.949 . S
H68 C74 0.950 . S
H69 C75 0.950 . S
H70 C76 0.949 . S
C71 H66 0.950 . S
C71 C73 1.327 . S
C71 C77 1.429 . S
C72 C64 1.574 1_565 S
C72 H67 0.949 . S
C72 C78 1.368 . S
C73 C57 1.349 . S
C73 H65 0.950 . S
C73 C71 1.327 . S
C74 C62 1.349 . S
C74 H68 0.950 . S
C74 C75 1.327 . S
C75 H69 0.950 . S
C75 C74 1.327 . S
C75 C79 1.429 . S
C76 C59 1.574 . S
C76 H70 0.949 . S
C76 C80 1.368 1_565 S
C77 C58 1.429 . S
C77 C71 1.429 . S
C77 C78 1.523 . S
C78 C59 1.368 . S
C78 C72 1.368 . S
C78 C77 1.523 . S
C79 C63 1.429 . S
C79 C75 1.429 . S
C79 C80 1.523 . S
C80 C64 1.368 . S
C80 C76 1.368 1_545 S
C80 C79 1.523 . S
H81 C56 0.950 . S
H82 C58 0.950 . S
H83 C59 0.949 . S
H84 C61 0.950 . S
H85 C63 0.950 . S
C86 C87 1.349 . S
C86 C88 1.327 . S
C86 H111 0.950 . S
C87 C86 1.349 . S
C87 C103 1.349 . S
C88 C86 1.327 . S
C88 C107 1.429 . S
C88 H112 0.950 . S
C89 C106 1.574 . S
C89 C108 1.368 . S
C89 H113 0.949 . S
H90 C94 0.949 . S
C91 C92 1.349 . S
C91 C93 1.327 . S
C91 H114 0.950 . S
C92 C91 1.349 . S
C92 C104 1.349 . S
C93 C91 1.327 . S
C93 C109 1.429 . S
C93 H115 0.950 . S
C94 H90 0.949 . S
C94 C102 1.574 . S
C94 C110 1.368 . S
H95 C103 0.950 . S
H96 C101 0.950 . S
H97 C102 0.949 . S
H98 C104 0.950 . S
H99 C105 0.950 . S
H100 C106 0.949 . S
C101 H96 0.950 . S
C101 C103 1.327 . S
C101 C107 1.429 . S
C102 C94 1.574 . S
C102 H97 0.949 . S
C102 C108 1.368 . S
C103 C87 1.349 . S
C103 H95 0.950 . S
C103 C101 1.327 . S
C104 C92 1.349 . S
C104 H98 0.950 . S
C104 C105 1.327 . S
C105 H99 0.950 . S
C105 C104 1.327 . S
C105 C109 1.429 . S
C106 C89 1.574 . S
C106 H100 0.949 . S
C106 C110 1.368 . S
C107 C88 1.429 . S
C107 C101 1.429 . S
C107 C108 1.523 . S
C108 C89 1.368 . S
C108 C102 1.368 . S
C108 C107 1.523 . S
C109 C93 1.429 . S
C109 C105 1.429 . S
C109 C110 1.523 . S
C110 C94 1.368 . S
C110 C106 1.368 . S
C110 C109 1.523 . S
H111 C86 0.950 . S
H112 C88 0.950 . S
H113 C89 0.949 . S
H114 C91 0.950 . S
H115 C93 0.950 . S
C116 C117 1.349 . S
C116 C118 1.327 . S
C116 H141 0.950 . S
C117 C116 1.349 . S
C117 C133 1.349 . S
C118 C116 1.327 . S
C118 C137 1.429 . S
C118 H142 0.950 . S
C119 C136 1.574 1_545 S
C119 C138 1.368 . S
C119 H143 0.949 1_545 S
H120 C124 0.949 . S
C121 C122 1.349 . S
C121 C123 1.327 . S
C121 H144 0.950 . S
C122 C121 1.349 . S
C122 C134 1.349 . S
C123 C121 1.327 . S
C123 C139 1.429 . S
C123 H145 0.950 . S
C124 H120 0.949 . S
C124 C132 1.574 . S
C124 C140 1.368 1_545 S
H125 C133 0.950 . S
H126 C131 0.950 . S
H127 C132 0.949 . S
H128 C134 0.950 . S
H129 C135 0.950 . S
H130 C136 0.949 . S
C131 H126 0.950 . S
C131 C133 1.327 . S
C131 C137 1.429 . S
C132 C124 1.574 . S
C132 H127 0.949 . S
C132 C138 1.368 . S
C133 C117 1.349 . S
C133 H125 0.950 . S
C133 C131 1.327 . S
C134 C122 1.349 . S
C134 H128 0.950 . S
C134 C135 1.327 . S
C135 H129 0.950 . S
C135 C134 1.327 . S
C135 C139 1.429 . S
C136 C119 1.574 1_565 S
C136 H130 0.949 . S
C136 C140 1.368 . S
C137 C118 1.429 . S
C137 C131 1.429 . S
C137 C138 1.523 . S
C138 C119 1.368 . S
C138 C132 1.368 . S
C138 C137 1.523 . S
C139 C123 1.429 . S
C139 C135 1.429 . S
C139 C140 1.523 . S
C140 C124 1.368 1_565 S
C140 C136 1.368 . S
C140 C139 1.523 . S
H141 C116 0.950 . S
H142 C118 0.950 . S
H143 C119 0.949 1_565 S
H144 C121 0.950 . S
H145 C123 0.950 . S
C146 C147 1.349 . S
C146 C148 1.327 . S
C146 H171 0.950 . S
C147 C146 1.349 . S
C147 C163 1.349 . S
C148 C146 1.327 . S
C148 C167 1.429 . S
C148 H172 0.950 . S
C149 C166 1.574 . S
C149 C168 1.368 . S
C149 H173 0.949 . S
H150 C154 0.949 . S
C151 C152 1.349 . S
C151 C153 1.327 . S
C151 H174 0.950 . S
C152 C151 1.349 . S
C152 C164 1.349 . S
C153 C151 1.327 . S
C153 C169 1.429 . S
C153 H175 0.950 . S
C154 H150 0.949 . S
C154 C162 1.574 . S
C154 C170 1.368 . S
H155 C163 0.950 . S
H156 C161 0.950 . S
H157 C162 0.949 . S
H158 C164 0.950 . S
H159 C165 0.950 . S
H160 C166 0.949 . S
C161 H156 0.950 . S
C161 C163 1.327 . S
C161 C167 1.429 . S
C162 C154 1.574 . S
C162 H157 0.949 . S
C162 C168 1.368 . S
C163 C147 1.349 . S
C163 H155 0.950 . S
C163 C161 1.327 . S
C164 C152 1.349 . S
C164 H158 0.950 . S
C164 C165 1.327 . S
C165 H159 0.950 . S
C165 C164 1.327 . S
C165 C169 1.429 . S
C166 C149 1.574 . S
C166 H160 0.949 . S
C166 C170 1.368 . S
C167 C148 1.429 . S
C167 C161 1.429 . S
C167 C168 1.523 . S
C168 C149 1.368 . S
C168 C162 1.368 . S
C168 C167 1.523 . S
C169 C153 1.429 . S
C169 C165 1.429 . S
C169 C170 1.523 . S
C170 C154 1.368 . S
C170 C166 1.368 . S
C170 C169 1.523 . S
H171 C146 0.950 . S
H172 C148 0.950 . S
H173 C149 0.949 . S
H174 C151 0.950 . S
H175 C153 0.950 . S
C176 C177 1.349 . S
C176 C178 1.327 . S
C176 H201 0.950 . S
C177 C176 1.349 . S
C177 C193 1.349 . S
C178 C176 1.327 . S
C178 C197 1.429 . S
C178 H202 0.950 . S
C179 C196 1.574 1_455 S
C179 C198 1.368 1_556 S
C179 H203 0.949 . S
H180 C184 0.949 . S
C181 C182 1.349 . S
C181 C183 1.327 . S
C181 H204 0.950 . S
C182 C181 1.349 . S
C182 C194 1.349 . S
C183 C181 1.327 . S
C183 C199 1.429 . S
C183 H205 0.950 . S
C184 H180 0.949 . S
C184 C192 1.574 1_655 S
C184 C200 1.368 1_554 S
H185 C193 0.950 . S
H186 C191 0.950 1_556 S
H187 C192 0.949 . S
H188 C194 0.950 . S
H189 C195 0.950 1_554 S
H190 C196 0.949 . S
C191 H186 0.950 1_554 S
C191 C193 1.327 . S
C191 C197 1.429 . S
C192 C184 1.574 1_455 S
C192 H187 0.949 . S
C192 C198 1.368 1_565 S
C193 C177 1.349 . S
C193 H185 0.950 . S
C193 C191 1.327 . S
C194 C182 1.349 . S
C194 H188 0.950 . S
C194 C195 1.327 . S
C195 H189 0.950 1_556 S
C195 C194 1.327 . S
C195 C199 1.429 . S
C196 C179 1.574 1_655 S
C196 H190 0.949 . S
C196 C200 1.368 1_545 S
C197 C178 1.429 . S
C197 C191 1.429 . S
C197 C198 1.523 . S
C198 C179 1.368 1_554 S
C198 C192 1.368 1_545 S
C198 C197 1.523 . S
C199 C183 1.429 . S
C199 C195 1.429 . S
C199 C200 1.523 . S
C200 C184 1.368 1_556 S
C200 C196 1.368 1_565 S
C200 C199 1.523 . S
H201 C176 0.950 . S
H202 C178 0.950 . S
H203 C179 0.949 . S
H204 C181 0.950 . S
H205 C183 0.950 . S
C206 C207 1.349 . S
C206 C208 1.327 . S
C206 H231 0.950 . S
C207 C206 1.349 . S
C207 C223 1.349 . S
C208 C206 1.327 . S
C208 C227 1.429 . S
C208 H232 0.950 . S
C209 C226 1.574 . S
C209 C228 1.368 1_554 S
C209 H233 0.949 . S
H210 C214 0.949 . S
C211 C212 1.349 . S
C211 C213 1.327 . S
C211 H234 0.950 . S
C212 C211 1.349 . S
C212 C224 1.349 . S
C213 C211 1.327 . S
C213 C229 1.429 . S
C213 H235 0.950 . S
C214 H210 0.949 . S
C214 C222 1.574 . S
C214 C230 1.368 1_556 S
H215 C223 0.950 . S
H216 C221 0.950 1_554 S
H217 C222 0.949 . S
H218 C224 0.950 . S
H219 C225 0.950 1_556 S
H220 C226 0.949 . S
C221 H216 0.950 1_556 S
C221 C223 1.327 . S
C221 C227 1.429 . S
C222 C214 1.574 . S
C222 H217 0.949 . S
C222 C228 1.368 1_565 S
C223 C207 1.349 . S
C223 H215 0.950 . S
C223 C221 1.327 . S
C224 C212 1.349 . S
C224 H218 0.950 . S
C224 C225 1.327 . S
C225 H219 0.950 1_554 S
C225 C224 1.327 . S
C225 C229 1.429 . S
C226 C209 1.574 . S
C226 H220 0.949 . S
C226 C230 1.368 1_545 S
C227 C208 1.429 . S
C227 C221 1.429 . S
C227 C228 1.523 . S
C228 C209 1.368 1_556 S
C228 C222 1.368 1_545 S
C228 C227 1.523 . S
C229 C213 1.429 . S
C229 C225 1.429 . S
C229 C230 1.523 . S
C230 C214 1.368 1_554 S
C230 C226 1.368 1_565 S
C230 C229 1.523 . S
H231 C206 0.950 . S
H232 C208 0.950 . S
H233 C209 0.949 . S
H234 C211 0.950 . S
H235 C213 0.950 . S
C236 C237 1.349 . S
C236 C238 1.327 . S
C236 H261 0.950 . S
C237 C236 1.349 . S
C237 C253 1.349 . S
C238 C236 1.327 . S
C238 C257 1.429 . S
C238 H262 0.950 . S
C239 C256 1.574 . S
C239 C258 1.368 . S
C239 H263 0.949 . S
H240 C244 0.949 . S
C241 C242 1.349 . S
C241 C243 1.327 . S
C241 H264 0.950 . S
C242 C241 1.349 . S
C242 C254 1.349 . S
C243 C241 1.327 . S
C243 C259 1.429 . S
C243 H265 0.950 . S
C244 H240 0.949 . S
C244 C252 1.574 . S
C244 C260 1.368 . S
H245 C253 0.950 . S
H246 C251 0.950 . S
H247 C252 0.949 . S
H248 C254 0.950 . S
H249 C255 0.950 . S
H250 C256 0.949 . S
C251 H246 0.950 . S
C251 C253 1.327 . S
C251 C257 1.429 . S
C252 C244 1.574 . S
C252 H247 0.949 . S
C252 C258 1.368 1_455 S
C253 C237 1.349 . S
C253 H245 0.950 . S
C253 C251 1.327 . S
C254 C242 1.349 . S
C254 H248 0.950 . S
C254 C255 1.327 . S
C255 H249 0.950 . S
C255 C254 1.327 . S
C255 C259 1.429 . S
C256 C239 1.574 . S
C256 H250 0.949 . S
C256 C260 1.368 1_655 S
C257 C238 1.429 . S
C257 C251 1.429 . S
C257 C258 1.523 . S
C258 C239 1.368 . S
C258 C252 1.368 1_655 S
C258 C257 1.523 . S
C259 C243 1.429 . S
C259 C255 1.429 . S
C259 C260 1.523 . S
C260 C244 1.368 . S
C260 C256 1.368 1_455 S
C260 C259 1.523 . S
H261 C236 0.950 . S
H262 C238 0.950 . S
H263 C239 0.949 . S
H264 C241 0.950 . S
H265 C243 0.950 . S
C266 C267 1.349 . S
C266 C268 1.327 . S
C266 H291 0.950 . S
C267 C266 1.349 . S
C267 C283 1.349 . S
C268 C266 1.327 . S
C268 C287 1.429 . S
C268 H292 0.950 . S
C269 C286 1.574 . S
C269 C288 1.368 . S
C269 H293 0.949 . S
H270 C274 0.949 . S
C271 C272 1.349 . S
C271 C273 1.327 . S
C271 H294 0.950 . S
C272 C271 1.349 . S
C272 C284 1.349 . S
C273 C271 1.327 . S
C273 C289 1.429 . S
C273 H295 0.950 . S
C274 H270 0.949 . S
C274 C282 1.574 . S
C274 C290 1.368 . S
H275 C283 0.950 . S
H276 C281 0.950 . S
H277 C282 0.949 . S
H278 C284 0.950 . S
H279 C285 0.950 . S
H280 C286 0.949 . S
C281 H276 0.950 . S
C281 C283 1.327 . S
C281 C287 1.429 . S
C282 C274 1.574 . S
C282 H277 0.949 . S
C282 C288 1.368 . S
C283 C267 1.349 . S
C283 H275 0.950 . S
C283 C281 1.327 . S
C284 C272 1.349 . S
C284 H278 0.950 . S
C284 C285 1.327 . S
C285 H279 0.950 . S
C285 C284 1.327 . S
C285 C289 1.429 . S
C286 C269 1.574 . S
C286 H280 0.949 . S
C286 C290 1.368 . S
C287 C268 1.429 . S
C287 C281 1.429 . S
C287 C288 1.523 . S
C288 C269 1.368 . S
C288 C282 1.368 . S
C288 C287 1.523 . S
C289 C273 1.429 . S
C289 C285 1.429 . S
C289 C290 1.523 . S
C290 C274 1.368 . S
C290 C286 1.368 . S
C290 C289 1.523 . S
H291 C266 0.950 . S
H292 C268 0.950 . S
H293 C269 0.949 . S
H294 C271 0.950 . S
H295 C273 0.950 . S
C57 C23 0.874 . S
C62 C5 0.875 . S
C87 C9 0.874 . S
C92 C19 0.875 . S
C117 C51 0.874 . S
C122 C33 0.875 . S
C147 C37 0.874 . S
C152 C47 0.875 . S
C177 C0 1.511 . S
C182 C28 1.511 . S
C207 C53 1.525 . S
C212 C25 1.525 . S
C237 C39 1.525 . S
C242 C11 1.525 . S
C267 C14 1.511 . S
C272 C42 1.511 . S
