# Generated by pormake.
# Topology mdf, (4)-cn, num edge types: 1
# Building blocks:
#     Node 0, Type 0, BuildingBlock: CEKHIL_clean_sbu_0, # of connection points: 4
#     Node 1, Type 0, BuildingBlock: CEKHIL_clean_sbu_0, # of connection points: 4
#     Node 2, Type 0, BuildingBlock: CEKHIL_clean_sbu_0, # of connection points: 4
#     Node 3, Type 0, BuildingBlock: CEKHIL_clean_sbu_0, # of connection points: 4
#     Node 4, Type 0, BuildingBlock: CEKHIL_clean_sbu_0, # of connection points: 4
#     Node 5, Type 0, BuildingBlock: CEKHIL_clean_sbu_0, # of connection points: 4
#     Node 6, Type 0, BuildingBlock: CEKHIL_clean_sbu_0, # of connection points: 4
#     Node 7, Type 0, BuildingBlock: CEKHIL_clean_sbu_0, # of connection points: 4
#     Edge 8, Type (0, 0), BuildingBlock: KIFKEQ_clean_linker_1, # of connection points: 2
#     Edge 9, Type (0, 0), BuildingBlock: KIFKEQ_clean_linker_1, # of connection points: 2
#     Edge 10, Type (0, 0), BuildingBlock: KIFKEQ_clean_linker_1, # of connection points: 2
#     Edge 11, Type (0, 0), BuildingBlock: KIFKEQ_clean_linker_1, # of connection points: 2
#     Edge 12, Type (0, 0), BuildingBlock: KIFKEQ_clean_linker_1, # of connection points: 2
#     Edge 13, Type (0, 0), BuildingBlock: KIFKEQ_clean_linker_1, # of connection points: 2
#     Edge 14, Type (0, 0), BuildingBlock: KIFKEQ_clean_linker_1, # of connection points: 2
#     Edge 15, Type (0, 0), BuildingBlock: KIFKEQ_clean_linker_1, # of connection points: 2
#     Edge 16, Type (0, 0), BuildingBlock: KIFKEQ_clean_linker_1, # of connection points: 2
#     Edge 17, Type (0, 0), BuildingBlock: KIFKEQ_clean_linker_1, # of connection points: 2
#     Edge 18, Type (0, 0), BuildingBlock: KIFKEQ_clean_linker_1, # of connection points: 2
#     Edge 19, Type (0, 0), BuildingBlock: KIFKEQ_clean_linker_1, # of connection points: 2
#     Edge 20, Type (0, 0), BuildingBlock: KIFKEQ_clean_linker_1, # of connection points: 2
#     Edge 21, Type (0, 0), BuildingBlock: KIFKEQ_clean_linker_1, # of connection points: 2
#     Edge 22, Type (0, 0), BuildingBlock: KIFKEQ_clean_linker_1, # of connection points: 2
#     Edge 23, Type (0, 0), BuildingBlock: KIFKEQ_clean_linker_1, # of connection points: 2
# Relax obj value: 0.019
# Max RMSD: 0.044
# Mean RMSD: 0.044
data_MOF--net-mdf--node1-CEKHIL_clean_sbu_0--edge1-KIFKEQ_clean_linker_1
_symmetry_space_group_name_H-M    P1
_symmetry_Int_Tables_number       1
_symmetry_cell_setting            triclinic
loop_
_symmetry_equiv_pos_as_xyz
'x, y, z'
_cell_length_a     38.428446
_cell_length_b     38.407533
_cell_length_c     11.554416
_cell_angle_alpha  89.961731
_cell_angle_beta   89.99845
_cell_angle_gamma 91.168057
loop_
_atom_site_label
_atom_site_type_symbol
_atom_site_fract_x
_atom_site_fract_y
_atom_site_fract_z
_atom_type_partial_charge
Co0 Co 0.25624 0.54086 0.37759 0.0
O1 O 0.22215 0.5769 0.38683 0.0
O2 O 0.2396 0.54583 0.53599 0.0
C3 C 0.29455 0.5714 0.26812 0.0
O4 O 0.2923 0.50246 0.40005 0.0
Co5 Co 0.27465 0.50932 0.13684 0.0
O6 O 0.3114 0.48546 0.22479 0.0
C7 C 0.20797 0.49062 0.24851 0.0
C8 C 0.22004 0.57051 0.49676 0.0
C9 C 0.31255 0.48437 0.33502 0.0
O10 O 0.21825 0.50532 0.34304 0.0
O11 O 0.22534 0.49229 0.15405 0.0
O12 O 0.29386 0.57603 0.37956 0.0
O13 O 0.27038 0.55127 0.22694 0.0
Co14 Co 0.47355 0.75397 0.62086 0.0
O15 O 0.43816 0.78877 0.61285 0.0
O16 O 0.46908 0.77146 0.46328 0.0
C17 C 0.44211 0.71578 0.72794 0.0
O18 O 0.51133 0.71735 0.59687 0.0
Co19 Co 0.5046 0.73308 0.85985 0.0
O20 O 0.52408 0.69406 0.77039 0.0
C21 C 0.52507 0.80015 0.75273 0.0
C22 C 0.44468 0.79124 0.50309 0.0
C23 C 0.52661 0.69446 0.66037 0.0
O24 O 0.50963 0.79116 0.65808 0.0
O25 O 0.52361 0.78185 0.84535 0.0
O26 O 0.43769 0.71702 0.61646 0.0
O27 O 0.46276 0.73928 0.77061 0.0
Co28 Co 0.25779 0.97275 0.87758 0.0
O29 O 0.29239 0.93721 0.88645 0.0
O30 O 0.27478 0.96808 0.03573 0.0
C31 C 0.21982 0.94154 0.76929 0.0
O32 O 0.2212 0.01065 0.90034 0.0
Co33 Co 0.23788 1.00393 0.63764 0.0
O34 O 0.19873 0.02365 0.72583 0.0
C35 C 0.30469 0.02388 0.74685 0.0
C36 C 0.29455 0.9436 0.99634 0.0
C37 C 0.19865 0.02608 0.83588 0.0
O38 O 0.2952 0.00872 0.84154 0.0
O39 O 0.28677 0.02235 0.6535 0.0
O40 O 0.2207 0.93703 0.88079 0.0
O41 O 0.24355 0.96208 0.72742 0.0
Co42 Co 0.04072 0.75894 0.12381 0.0
O43 O 0.07625 0.72433 0.11481 0.0
O44 O 0.04509 0.74174 0.96586 0.0
C45 C 0.07213 0.79704 0.23095 0.0
O46 O 1.00275 0.79548 0.10113 0.0
Co47 Co 0.00996 0.77922 0.36383 0.0
O48 O 0.99013 0.81829 0.27539 0.0
C49 C 0.98975 0.71223 0.25602 0.0
C50 C 0.06964 0.72201 0.0051 0.0
C51 C 0.98746 0.81815 0.1654 0.0
O52 O 1.00488 0.72153 0.16109 0.0
O53 O 0.99131 0.73034 0.34895 0.0
O54 O 0.07641 0.79605 0.11938 0.0
O55 O 0.05165 0.77338 0.27358 0.0
Co56 Co 0.75487 0.04062 0.87463 0.0
O57 O 0.72002 0.0759 0.88355 0.0
O58 O 0.73782 0.04508 0.03279 0.0
C59 C 0.79272 0.0722 0.76684 0.0
O60 O 0.79177 1.00298 0.89706 0.0
Co61 Co 0.77486 0.00993 0.63422 0.0
O62 O 0.81412 0.9903 0.72216 0.0
C63 C 0.70839 0.98905 0.74401 0.0
C64 C 0.71792 0.06948 0.99343 0.0
C65 C 0.81433 0.98775 0.8322 0.0
O66 O 0.71775 1.00434 0.83853 0.0
O67 O 0.7262 0.99086 0.65047 0.0
O68 O 0.7917 0.07658 0.87834 0.0
O69 O 0.76911 0.0516 0.72458 0.0
Co70 Co 0.97362 0.25581 0.1291 0.0
O71 O 0.93806 0.29039 0.11989 0.0
O72 O 0.9695 0.27322 0.97132 0.0
C73 C 0.9421 0.21747 0.2351 0.0
O74 O 0.01165 0.21933 0.10668 0.0
Co75 Co 1.00407 0.23541 0.36936 0.0
O76 O 0.02414 0.19647 0.28105 0.0
C77 C 0.0244 0.30248 0.2623 0.0
C78 C 0.94487 0.29287 0.01033 0.0
C79 C 0.02692 0.19666 0.17108 0.0
O80 O 0.00936 0.29322 0.16725 0.0
O81 O 0.02279 0.2843 0.35516 0.0
O82 O 0.93802 0.21868 0.12348 0.0
O83 O 0.96244 0.24112 0.27855 0.0
Co84 Co 0.75932 0.47258 0.37449 0.0
O85 O 0.7936 0.43688 0.38698 0.0
O86 O 0.77535 0.46832 0.53402 0.0
C87 C 0.72203 0.44101 0.26482 0.0
O88 O 0.72285 0.51071 0.39328 0.0
Co89 Co 0.74075 0.50276 0.13231 0.0
O90 O 0.70124 0.52313 0.21718 0.0
C91 C 0.80699 0.5232 0.24489 0.0
C92 C 0.79522 0.44361 0.49668 0.0
C93 C 0.70066 0.52598 0.32711 0.0
O94 O 0.79712 0.50822 0.33949 0.0
O95 O 0.78951 0.52137 0.15067 0.0
O96 O 0.72182 0.43729 0.37669 0.0
O97 O 0.74616 0.46122 0.22377 0.0
Co98 Co 0.54039 0.25772 0.62719 0.0
O99 O 0.57646 0.22381 0.61475 0.0
O100 O 0.54457 0.24147 0.4679 0.0
C101 C 0.57169 0.29549 0.7361 0.0
O102 O 0.50178 0.2937 0.60826 0.0
Co103 Co 0.51034 0.27592 0.86986 0.0
O104 O 0.48668 0.3134 0.78457 0.0
C105 C 0.49095 0.20927 0.75852 0.0
C106 C 0.56949 0.22187 0.50525 0.0
C107 C 0.4846 0.3144 0.67448 0.0
O108 O 0.50529 0.21949 0.66326 0.0
O109 O 0.49293 0.2267 0.85278 0.0
O110 O 0.57526 0.29565 0.62417 0.0
O111 O 0.55178 0.27118 0.77754 0.0
H112 H 0.45899 0.69822 0.94839 0.0
H113 H 0.38466 0.67578 0.67694 0.0
H114 H 0.42701 0.65956 0.07882 0.0
H115 H 0.35148 0.63835 0.80899 0.0
H116 H 0.30978 0.55488 0.04531 0.0
H117 H 0.34895 0.58581 0.9137 0.0
H118 H 0.37497 0.65925 0.18553 0.0
H119 H 0.33699 0.62712 0.31844 0.0
C120 C 0.43577 0.68494 0.91662 0.0
C121 C 0.42417 0.69008 0.80278 0.0
C122 C 0.41726 0.66298 0.99171 0.0
C123 C 0.38639 0.64608 0.95521 0.0
C124 C 0.37537 0.65053 0.8399 0.0
C125 C 0.39424 0.67212 0.76418 0.0
C126 C 0.32421 0.57741 0.07719 0.0
C127 C 0.32029 0.58872 0.19192 0.0
C128 C 0.34648 0.59532 0.00146 0.0
C129 C 0.36495 0.62527 0.03832 0.0
C130 C 0.3616 0.63602 0.1543 0.0
C131 C 0.33969 0.61776 0.23055 0.0
H132 H 0.45586 0.8085 0.2747 0.0
H133 H 0.38746 0.82791 0.56285 0.0
H134 H 0.42168 0.84734 0.15398 0.0
H135 H 0.35259 0.86544 0.44205 0.0
H136 H 0.311 0.95412 0.22579 0.0
H137 H 0.34926 0.91942 0.34701 0.0
H138 H 0.36806 0.851 0.05771 0.0
H139 H 0.33114 0.88635 0.93658 0.0
C140 C 0.43346 0.82094 0.31214 0.0
C141 C 0.42445 0.81505 0.42842 0.0
C142 C 0.41366 0.84311 0.24278 0.0
C143 C 0.38413 0.85971 0.28767 0.0
C144 C 0.37538 0.85381 0.40439 0.0
C145 C 0.39531 0.83195 0.47373 0.0
C146 C 0.32348 0.93176 0.18822 0.0
C147 C 0.31798 0.92308 0.07148 0.0
C148 C 0.34531 0.91166 0.25785 0.0
C149 C 0.36195 0.88217 0.21272 0.0
C150 C 0.35641 0.87375 0.09559 0.0
C151 C 0.3349 0.89396 0.02603 0.0
H152 H 0.12919 0.83752 0.17934 0.0
H153 H 0.05566 0.81388 0.4523 0.0
H154 H 0.1624 0.87487 0.31133 0.0
H155 H 0.08769 0.85244 0.58277 0.0
H156 H 0.17819 0.88522 0.82019 0.0
H157 H 0.14012 0.85296 0.68793 0.0
H158 H 0.16445 0.92726 0.41675 0.0
H159 H 0.2037 0.95831 0.54747 0.0
C160 C 0.11978 0.8409 0.26693 0.0
C161 C 0.09008 0.82265 0.30592 0.0
C162 C 0.13867 0.86244 0.34261 0.0
C163 C 0.12788 0.86653 0.45828 0.0
C164 C 0.09724 0.84931 0.4953 0.0
C165 C 0.07871 0.82741 0.4202 0.0
C166 C 0.1751 0.89473 0.73257 0.0
C167 C 0.19405 0.92405 0.69379 0.0
C168 C 0.15314 0.8764 0.65674 0.0
C169 C 0.14932 0.88737 0.54112 0.0
C170 C 0.16732 0.91759 0.50421 0.0
C171 C 0.18964 0.93557 0.57946 0.0
H172 H 0.12688 0.68532 0.06438 0.0
H173 H 0.0587 0.70535 0.77607 0.0
H174 H 0.1619 0.64814 0.9431 0.0
H175 H 0.09306 0.66685 0.65476 0.0
H176 H 0.18383 0.62811 0.43759 0.0
H177 H 0.14686 0.66335 0.55892 0.0
H178 H 0.16518 0.59433 0.84729 0.0
H179 H 0.20346 0.55975 0.72596 0.0
C180 C 0.11911 0.68149 0.9751 0.0
C181 C 0.08997 0.69845 0.92994 0.0
C182 C 0.13913 0.65983 0.90547 0.0
C183 C 0.13049 0.6542 0.78856 0.0
C184 C 0.10098 0.67088 0.74373 0.0
C185 C 0.08107 0.69284 0.81343 0.0
C186 C 0.17997 0.62036 0.5269 0.0
C187 C 0.19674 0.5911 0.57206 0.0
C188 C 0.15843 0.64051 0.59655 0.0
C189 C 0.15273 0.63186 0.71347 0.0
C190 C 0.16926 0.60226 0.75831 0.0
C191 C 0.1911 0.58223 0.68862 0.0
H192 H 0.83437 0.12828 0.81956 0.0
H193 H 0.80916 0.0559 0.54484 0.0
H194 H 0.87291 0.16065 0.689 0.0
H195 H 0.8489 0.08704 0.41575 0.0
H196 H 0.95799 0.20013 0.45665 0.0
H197 H 0.92556 0.1613 0.58543 0.0
H198 H 0.85157 0.13956 0.31133 0.0
H199 H 0.88519 0.17715 0.18113 0.0
C200 C 0.83761 0.11895 0.73183 0.0
C201 C 0.81862 0.0898 0.69201 0.0
C202 C 0.85985 0.13734 0.65699 0.0
C203 C 0.86393 0.1266 0.54129 0.0
C204 C 0.84585 0.09654 0.5033 0.0
C205 C 0.82325 0.07852 0.57759 0.0
C206 C 0.93501 0.1867 0.42365 0.0
C207 C 0.92396 0.19173 0.30916 0.0
C208 C 0.91625 0.16463 0.49774 0.0
C209 C 0.88568 0.14754 0.45949 0.0
C210 C 0.87523 0.15189 0.34359 0.0
C211 C 0.89435 0.17357 0.26892 0.0
H212 H 0.88732 0.32927 0.0685 0.0
H213 H 0.95645 0.31005 0.78212 0.0
H214 H 0.85244 0.36646 0.94649 0.0
H215 H 0.92226 0.34854 0.66024 0.0
H216 H 0.832 0.38629 0.44002 0.0
H217 H 0.86874 0.3514 0.56306 0.0
H218 H 0.84883 0.42032 0.85015 0.0
H219 H 0.81073 0.45461 0.72684 0.0
C220 C 0.89533 0.33329 0.97952 0.0
C221 C 0.92467 0.31652 0.93502 0.0
C222 C 0.87539 0.35495 0.9095 0.0
C223 C 0.88433 0.36076 0.79291 0.0
C224 C 0.91409 0.34434 0.7489 0.0
C225 C 0.9339 0.32238 0.81892 0.0
C226 C 0.83546 0.39412 0.5294 0.0
C227 C 0.81831 0.42328 0.57353 0.0
C228 C 0.85688 0.37417 0.60005 0.0
C229 C 0.8621 0.3829 0.71706 0.0
C230 C 0.84515 0.41236 0.76105 0.0
C231 C 0.82341 0.43222 0.69026 0.0
H232 H 0.72825 0.43136 0.03377 0.0
H233 H 0.65939 0.41064 0.32204 0.0
H234 H 0.68933 0.39904 0.90621 0.0
H235 H 0.61902 0.37982 0.19291 0.0
H236 H 0.58059 0.28941 0.96753 0.0
H237 H 0.61432 0.32715 0.09472 0.0
H238 H 0.63659 0.39641 0.80728 0.0
H239 H 0.60424 0.35713 0.67837 0.0
C240 C 0.70439 0.42032 0.0694 0.0
C241 C 0.69692 0.42318 0.18787 0.0
C242 C 0.68184 0.40203 0.99591 0.0
C243 C 0.65091 0.38668 0.0388 0.0
C244 C 0.64292 0.39064 0.1571 0.0
C245 C 0.6659 0.40843 0.23115 0.0
C246 C 0.59255 0.31281 0.9316 0.0
C247 C 0.59008 0.32025 0.81296 0.0
C248 C 0.61168 0.3347 0.00491 0.0
C249 C 0.62832 0.36494 0.96175 0.0
C250 C 0.62475 0.37299 0.84332 0.0
C251 C 0.60607 0.35066 0.7694 0.0
H252 H 0.70199 0.05921 0.22342 0.0
H253 H 0.68094 0.1265 0.93342 0.0
H254 H 0.66413 0.09412 0.34516 0.0
H255 H 0.64441 0.16208 0.05509 0.0
H256 H 0.55748 0.20506 0.27669 0.0
H257 H 0.59118 0.16626 0.15421 0.0
H258 H 0.66164 0.14829 0.43874 0.0
H259 H 0.62733 0.18574 0.56112 0.0
C260 C 0.68938 0.0815 0.18576 0.0
C261 C 0.69455 0.09 0.06869 0.0
C262 C 0.66779 0.10173 0.25569 0.0
C263 C 0.65106 0.13119 0.21057 0.0
C264 C 0.65617 0.13938 0.09302 0.0
C265 C 0.67745 0.11903 0.02316 0.0
C266 C 0.5801 0.19268 0.31288 0.0
C267 C 0.58963 0.19853 0.42872 0.0
C268 C 0.59961 0.17053 0.24255 0.0
C269 C 0.62932 0.15389 0.28608 0.0
C270 C 0.63867 0.15989 0.40218 0.0
C271 C 0.61906 0.18172 0.47242 0.0
H272 H 0.34074 0.48554 0.55474 0.0
H273 H 0.34188 0.42812 0.23367 0.0
H274 H 0.38391 0.4463 0.6348 0.0
H275 H 0.38341 0.38822 0.31434 0.0
H276 H 0.48085 0.33774 0.44898 0.0
H277 H 0.44097 0.38027 0.36929 0.0
H278 H 0.39242 0.39021 0.7049 0.0
H279 H 0.43303 0.34923 0.78472 0.0
C280 C 0.34992 0.46437 0.5017 0.0
C281 C 0.33789 0.46017 0.38768 0.0
C282 C 0.37463 0.44169 0.5476 0.0
C283 C 0.38751 0.41389 0.4812 0.0
C284 C 0.375 0.40963 0.36765 0.0
C285 C 0.35081 0.4325 0.32149 0.0
C286 C 0.4617 0.3491 0.50559 0.0
C287 C 0.46031 0.33998 0.62328 0.0
C288 C 0.43861 0.37344 0.45988 0.0
C289 C 0.41317 0.38893 0.53032 0.0
C290 C 0.41191 0.37962 0.64796 0.0
C291 C 0.43519 0.35573 0.69374 0.0
H292 H 0.68203 0.95034 0.56487 0.0
H293 H 0.66244 0.97701 0.92237 0.0
H294 H 0.63357 0.90903 0.56894 0.0
H295 H 0.61304 0.93612 0.92509 0.0
H296 H 0.56726 0.82382 0.9272 0.0
H297 H 0.6069 0.87368 0.92474 0.0
H298 H 0.57159 0.90031 0.58138 0.0
H299 H 0.53237 0.84957 0.58223 0.0
C300 C 0.66708 0.94782 0.64401 0.0
C301 C 0.67651 0.96671 0.74387 0.0
C302 C 0.63901 0.92427 0.6459 0.0
C303 C 0.61951 0.91911 0.74748 0.0
C304 C 0.62792 0.93911 0.84595 0.0
C305 C 0.65615 0.96264 0.84424 0.0
C306 C 0.56762 0.8404 0.85134 0.0
C307 C 0.54688 0.83238 0.75426 0.0
C308 C 0.59021 0.86926 0.85044 0.0
C309 C 0.59252 0.89095 0.75275 0.0
C310 C 0.5708 0.88378 0.65734 0.0
C311 C 0.54826 0.85475 0.65796 0.0
H312 H 0.05409 0.13949 0.27571 0.0
H313 H 0.05257 0.19377 0.94813 0.0
H314 H 0.09423 0.09774 0.19686 0.0
H315 H 0.09369 0.15217 0.86956 0.0
H316 H 0.14159 0.05325 0.7309 0.0
H317 H 0.09959 0.0931 0.80982 0.0
H318 H 0.15341 0.09208 0.13803 0.0
H319 H 0.19527 0.05124 0.05936 0.0
C320 C 0.06237 0.14265 0.18665 0.0
C321 C 0.05004 0.17024 0.11847 0.0
C322 C 0.08571 0.11871 0.14164 0.0
C323 C 0.09761 0.12158 0.02704 0.0
C324 C 0.08488 0.14884 0.95796 0.0
C325 C 0.06132 0.17282 0.00301 0.0
C326 C 0.14456 0.06135 0.82018 0.0
C327 C 0.17207 0.04898 0.88857 0.0
C328 C 0.12047 0.08453 0.86523 0.0
C329 C 0.12311 0.09622 0.98011 0.0
C330 C 0.15027 0.08343 0.04941 0.0
C331 C 0.17439 0.06003 0.0043 0.0
H332 H 0.98334 0.66254 0.08635 0.0
H333 H 0.94731 0.68848 0.42973 0.0
H334 H 0.94451 0.61151 0.08534 0.0
H335 H 0.90802 0.63835 0.42704 0.0
H336 H 0.85243 0.53523 0.42467 0.0
H337 H 0.90194 0.57599 0.42834 0.0
H338 H 0.88274 0.60251 0.07073 0.0
H339 H 0.83423 0.56132 0.06572 0.0
C340 C 0.96728 0.65734 0.16168 0.0
C341 C 0.96821 0.67985 0.25756 0.0
C342 C 0.94497 0.62814 0.16099 0.0
C343 C 0.92302 0.62095 0.25586 0.0
C344 C 0.9249 0.64278 0.3532 0.0
C345 C 0.94729 0.67179 0.35421 0.0
C346 C 0.85906 0.54943 0.34643 0.0
C347 C 0.83904 0.54527 0.24538 0.0
C348 C 0.88735 0.57289 0.34868 0.0
C349 C 0.89613 0.59271 0.25008 0.0
C350 C 0.87702 0.5874 0.14783 0.0
C351 C 0.8489 0.56392 0.14539 0.0
H352 H 0.32988 0.06457 0.57065 0.0
H353 H 0.35279 0.03235 0.92082 0.0
H354 H 0.37947 0.10448 0.57435 0.0
H355 H 0.40334 0.07179 0.92296 0.0
H356 H 0.45152 0.18303 0.93605 0.0
H357 H 0.41127 0.13375 0.93173 0.0
H358 H 0.44157 0.11179 0.57941 0.0
H359 H 0.48137 0.1621 0.58225 0.0
C360 C 0.3458 0.06556 0.64797 0.0
C361 C 0.337 0.04555 0.74611 0.0
C362 C 0.37453 0.08829 0.64959 0.0
C363 C 0.39533 0.09146 0.74909 0.0
C364 C 0.38749 0.07034 0.84555 0.0
C365 C 0.35857 0.04767 0.8442 0.0
C366 C 0.44998 0.16757 0.85777 0.0
C367 C 0.46939 0.17688 0.75885 0.0
C368 C 0.42703 0.13903 0.85576 0.0
C369 C 0.42304 0.11889 0.75507 0.0
C370 C 0.44364 0.12715 0.65777 0.0
C371 C 0.46653 0.15591 0.65953 0.0
H372 H 0.87087 0.9602 0.72527 0.0
H373 H 0.81877 0.96324 0.05644 0.0
H374 H 0.91327 0.92065 0.8035 0.0
H375 H 0.86107 0.92272 0.13449 0.0
H376 H 0.96109 0.87586 0.26875 0.0
H377 H 0.92061 0.91738 0.19024 0.0
H378 H 0.9195 0.86177 0.86534 0.0
H379 H 0.96094 0.8204 0.94351 0.0
C380 C 0.86833 0.95239 0.81501 0.0
C381 C 0.84114 0.96497 0.88435 0.0
C382 C 0.89265 0.92938 0.85968 0.0
C383 C 0.8906 0.91808 0.97514 0.0
C384 C 0.86376 0.93106 0.04536 0.0
C385 C 0.83938 0.95428 1.00061 0.0
C386 C 0.95238 0.87241 0.18026 0.0
C387 C 0.96432 0.84454 0.11266 0.0
C388 C 0.92885 0.89621 0.13548 0.0
C389 C 0.91637 0.89292 0.0217 0.0
C390 C 0.92875 0.86541 0.95309 0.0
C391 C 0.95251 0.84158 0.9979 0.0
H392 H 0.06683 0.32623 0.43605 0.0
H393 H 0.03079 0.35222 0.09263 0.0
H394 H 0.10624 0.37629 0.43293 0.0
H395 H 0.06971 0.40316 0.09119 0.0
H396 H 0.18015 0.45277 0.06988 0.0
H397 H 0.13141 0.41189 0.07584 0.0
H398 H 0.11284 0.4386 0.43357 0.0
H399 H 0.16261 0.47904 0.42892 0.0
C400 C 0.06688 0.34292 0.36045 0.0
C401 C 0.04594 0.33488 0.26387 0.0
C402 C 0.08933 0.37189 0.35919 0.0
C403 C 0.09127 0.39369 0.26165 0.0
C404 C 0.06924 0.38654 0.16697 0.0
C405 C 0.04688 0.35739 0.16791 0.0
C406 C 0.16556 0.4503 0.14976 0.0
C407 C 0.1757 0.46888 0.2495 0.0
C408 C 0.13731 0.42699 0.15276 0.0
C409 C 0.1183 0.42179 0.25534 0.0
C410 C 0.12733 0.44159 0.35367 0.0
C411 C 0.15577 0.46488 0.35086 0.0
H412 H 0.55396 0.69352 0.43953 0.0
H413 H 0.55191 0.63576 0.76051 0.0
H414 H 0.59562 0.65253 0.36054 0.0
H415 H 0.59257 0.59459 0.68113 0.0
H416 H 0.69493 0.54946 0.55187 0.0
H417 H 0.65233 0.58967 0.62924 0.0
H418 H 0.60252 0.59421 0.29452 0.0
H419 H 0.64533 0.55497 0.21689 0.0
C420 C 0.562 0.6719 0.49273 0.0
C421 C 0.54964 0.6682 0.60666 0.0
C422 C 0.58588 0.64829 0.44744 0.0
C423 C 0.59784 0.62027 0.51472 0.0
C424 C 0.58471 0.61618 0.62749 0.0
C425 C 0.56107 0.63978 0.67277 0.0
C426 C 0.67482 0.55893 0.49496 0.0
C427 C 0.67382 0.54896 0.37796 0.0
C428 C 0.65024 0.58195 0.53937 0.0
C429 C 0.62391 0.59546 0.46808 0.0
C430 C 0.6227 0.58501 0.35165 0.0
C431 C 0.64725 0.56219 0.30729 0.0
loop_
_geom_bond_atom_site_label_1
_geom_bond_atom_site_label_2
_geom_bond_distance
_geom_bond_site_symmetry_2
_ccdc_geom_bond_type
Co0 O1 2.216 . S
Co0 O2 2.091 . S
Co0 O4 2.004 . S
Co0 O10 2.021 . S
Co0 O12 2.137 . S
Co0 O13 2.244 . S
O1 Co0 2.216 . S
O1 C8 1.247 . S
O2 Co0 2.091 . S
O2 C8 1.261 . S
C3 O12 1.247 . S
C3 O13 1.272 . S
O4 Co0 2.004 . S
O4 C9 1.259 . S
Co5 O6 2.061 . S
Co5 O11 2.052 . S
Co5 O13 2.135 . S
O6 Co5 2.061 . S
O6 C9 1.235 . S
C7 O10 1.238 . S
C7 O11 1.241 . S
C8 O1 1.247 . S
C8 O2 1.261 . S
C9 O4 1.259 . S
C9 O6 1.235 . S
O10 Co0 2.021 . S
O10 C7 1.238 . S
O11 Co5 2.052 . S
O11 C7 1.241 . S
O12 Co0 2.137 . S
O12 C3 1.247 . S
O13 Co0 2.244 . S
O13 C3 1.272 . S
O13 Co5 2.135 . S
Co14 O15 2.216 . S
Co14 O16 2.091 . S
Co14 O18 2.004 . S
Co14 O24 2.021 . S
Co14 O26 2.137 . S
Co14 O27 2.244 . S
O15 Co14 2.216 . S
O15 C22 1.247 . S
O16 Co14 2.091 . S
O16 C22 1.261 . S
C17 O26 1.247 . S
C17 O27 1.272 . S
O18 Co14 2.004 . S
O18 C23 1.259 . S
Co19 O20 2.061 . S
Co19 O25 2.052 . S
Co19 O27 2.135 . S
O20 Co19 2.061 . S
O20 C23 1.235 . S
C21 O24 1.238 . S
C21 O25 1.241 . S
C22 O15 1.247 . S
C22 O16 1.261 . S
C23 O18 1.259 . S
C23 O20 1.235 . S
O24 Co14 2.021 . S
O24 C21 1.238 . S
O25 Co19 2.052 . S
O25 C21 1.241 . S
O26 Co14 2.137 . S
O26 C17 1.247 . S
O27 Co14 2.244 . S
O27 C17 1.272 . S
O27 Co19 2.135 . S
Co28 O29 2.216 . S
Co28 O30 2.091 1_556 S
Co28 O32 2.019 . S
Co28 O38 2.021 1_565 S
Co28 O40 2.137 . S
Co28 O41 2.244 . S
O29 Co28 2.216 . S
O29 C36 1.247 1_556 S
O30 Co28 2.091 1_554 S
O30 C36 1.261 . S
C31 O40 1.247 . S
C31 O41 1.272 . S
O32 Co28 2.019 . S
O32 C37 1.242 1_565 S
Co33 O34 2.061 . S
Co33 O39 2.052 . S
Co33 O41 2.135 1_545 S
O34 Co33 2.061 . S
O34 C37 1.235 . S
C35 O38 1.238 . S
C35 O39 1.241 . S
C36 O29 1.247 1_554 S
C36 O30 1.261 . S
C37 O32 1.242 1_545 S
C37 O34 1.235 . S
O38 Co28 2.021 1_545 S
O38 C35 1.238 . S
O39 Co33 2.052 . S
O39 C35 1.241 . S
O40 Co28 2.137 . S
O40 C31 1.247 . S
O41 Co28 2.244 . S
O41 C31 1.272 . S
O41 Co33 2.135 1_565 S
Co42 O43 2.216 . S
Co42 O44 2.091 1_554 S
Co42 O46 2.019 . S
Co42 O52 2.021 1_455 S
Co42 O54 2.137 . S
Co42 O55 2.244 . S
O43 Co42 2.216 . S
O43 C50 1.247 1_554 S
O44 Co42 2.091 1_556 S
O44 C50 1.261 . S
C45 O54 1.247 . S
C45 O55 1.272 . S
O46 Co42 2.019 . S
O46 C51 1.242 1_455 S
Co47 O48 2.061 . S
Co47 O53 2.052 . S
Co47 O55 2.135 1_655 S
O48 Co47 2.061 . S
O48 C51 1.235 . S
C49 O52 1.238 . S
C49 O53 1.241 . S
C50 O43 1.247 1_556 S
C50 O44 1.261 . S
C51 O46 1.242 1_655 S
C51 O48 1.235 . S
O52 Co42 2.021 1_655 S
O52 C49 1.238 . S
O53 Co47 2.052 . S
O53 C49 1.241 . S
O54 Co42 2.137 . S
O54 C45 1.247 . S
O55 Co42 2.244 . S
O55 C45 1.272 . S
O55 Co47 2.135 1_455 S
Co56 O57 2.216 . S
Co56 O58 2.091 1_556 S
Co56 O60 2.019 . S
Co56 O66 2.021 1_545 S
Co56 O68 2.137 . S
Co56 O69 2.244 . S
O57 Co56 2.216 . S
O57 C64 1.247 1_556 S
O58 Co56 2.091 1_554 S
O58 C64 1.261 . S
C59 O68 1.247 . S
C59 O69 1.272 . S
O60 Co56 2.019 . S
O60 C65 1.242 1_545 S
Co61 O62 2.061 . S
Co61 O67 2.052 . S
Co61 O69 2.135 1_565 S
O62 Co61 2.061 . S
O62 C65 1.235 . S
C63 O66 1.238 . S
C63 O67 1.241 . S
C64 O57 1.247 1_554 S
C64 O58 1.261 . S
C65 O60 1.242 1_565 S
C65 O62 1.235 . S
O66 Co56 2.021 1_565 S
O66 C63 1.238 . S
O67 Co61 2.052 . S
O67 C63 1.241 . S
O68 Co56 2.137 . S
O68 C59 1.247 . S
O69 Co56 2.244 . S
O69 C59 1.272 . S
O69 Co61 2.135 1_545 S
Co70 O71 2.216 . S
Co70 O72 2.091 1_554 S
Co70 O74 2.019 . S
Co70 O80 2.021 1_655 S
Co70 O82 2.137 . S
Co70 O83 2.244 . S
O71 Co70 2.216 . S
O71 C78 1.247 1_554 S
O72 Co70 2.091 1_556 S
O72 C78 1.261 . S
C73 O82 1.247 . S
C73 O83 1.272 . S
O74 Co70 2.019 . S
O74 C79 1.242 1_655 S
Co75 O76 2.061 . S
Co75 O81 2.052 . S
Co75 O83 2.135 1_455 S
O76 Co75 2.061 . S
O76 C79 1.235 . S
C77 O80 1.238 . S
C77 O81 1.241 . S
C78 O71 1.247 1_556 S
C78 O72 1.261 . S
C79 O74 1.242 1_455 S
C79 O76 1.235 . S
O80 Co70 2.021 1_455 S
O80 C77 1.238 . S
O81 Co75 2.052 . S
O81 C77 1.241 . S
O82 Co70 2.137 . S
O82 C73 1.247 . S
O83 Co70 2.244 . S
O83 C73 1.272 . S
O83 Co75 2.135 1_655 S
Co84 O85 2.216 . S
Co84 O86 2.091 . S
Co84 O88 2.004 . S
Co84 O94 2.021 . S
Co84 O96 2.137 . S
Co84 O97 2.244 . S
O85 Co84 2.216 . S
O85 C92 1.247 . S
O86 Co84 2.091 . S
O86 C92 1.261 . S
C87 O96 1.247 . S
C87 O97 1.272 . S
O88 Co84 2.004 . S
O88 C93 1.259 . S
Co89 O90 2.061 . S
Co89 O95 2.052 . S
Co89 O97 2.135 . S
O90 Co89 2.061 . S
O90 C93 1.235 . S
C91 O94 1.238 . S
C91 O95 1.241 . S
C92 O85 1.247 . S
C92 O86 1.261 . S
C93 O88 1.259 . S
C93 O90 1.235 . S
O94 Co84 2.021 . S
O94 C91 1.238 . S
O95 Co89 2.052 . S
O95 C91 1.241 . S
O96 Co84 2.137 . S
O96 C87 1.247 . S
O97 Co84 2.244 . S
O97 C87 1.272 . S
O97 Co89 2.135 . S
Co98 O99 2.216 . S
Co98 O100 2.091 . S
Co98 O102 2.004 . S
Co98 O108 2.021 . S
Co98 O110 2.137 . S
Co98 O111 2.244 . S
O99 Co98 2.216 . S
O99 C106 1.247 . S
O100 Co98 2.091 . S
O100 C106 1.261 . S
C101 O110 1.247 . S
C101 O111 1.272 . S
O102 Co98 2.004 . S
O102 C107 1.259 . S
Co103 O104 2.061 . S
Co103 O109 2.052 . S
Co103 O111 2.135 . S
O104 Co103 2.061 . S
O104 C107 1.235 . S
C105 O108 1.238 . S
C105 O109 1.241 . S
C106 O99 1.247 . S
C106 O100 1.261 . S
C107 O102 1.259 . S
C107 O104 1.235 . S
O108 Co98 2.021 . S
O108 C105 1.238 . S
O109 Co103 2.052 . S
O109 C105 1.241 . S
O110 Co98 2.137 . S
O110 C101 1.247 . S
O111 Co98 2.244 . S
O111 C101 1.272 . S
O111 Co103 2.135 . S
H112 C120 0.950 . S
H113 C125 0.950 . S
H114 C122 0.950 . S
H115 C124 0.950 . S
H116 C126 0.950 . S
H117 C128 0.950 . S
H118 C130 0.950 . S
H119 C131 0.950 . S
C120 H112 0.950 . S
C120 C121 1.386 . S
C120 C122 1.391 1_556 S
C121 C120 1.386 . S
C121 C125 1.393 . S
C122 H114 0.950 . S
C122 C120 1.391 1_554 S
C122 C123 1.400 1_554 S
C123 C122 1.400 1_556 S
C123 C124 1.398 . S
C123 C129 1.491 1_556 S
C124 H115 0.950 . S
C124 C123 1.398 . S
C124 C125 1.391 . S
C125 H113 0.950 . S
C125 C121 1.393 . S
C125 C124 1.391 . S
C126 H116 0.950 . S
C126 C127 1.386 . S
C126 C128 1.391 1_554 S
C127 C126 1.386 . S
C127 C131 1.393 . S
C128 H117 0.950 . S
C128 C126 1.391 1_556 S
C128 C129 1.400 1_556 S
C129 C123 1.491 1_554 S
C129 C128 1.400 1_554 S
C129 C130 1.398 . S
C130 H118 0.950 . S
C130 C129 1.398 . S
C130 C131 1.391 . S
C131 H119 0.950 . S
C131 C127 1.393 . S
C131 C130 1.391 . S
H132 C140 0.950 . S
H133 C145 0.950 . S
H134 C142 0.950 . S
H135 C144 0.950 . S
H136 C146 0.950 . S
H137 C148 0.950 . S
H138 C150 0.950 . S
H139 C151 0.950 1_556 S
C140 H132 0.950 . S
C140 C141 1.386 . S
C140 C142 1.391 . S
C141 C140 1.386 . S
C141 C145 1.393 . S
C142 H134 0.950 . S
C142 C140 1.391 . S
C142 C143 1.400 . S
C143 C142 1.400 . S
C143 C144 1.398 . S
C143 C149 1.491 . S
C144 H135 0.950 . S
C144 C143 1.398 . S
C144 C145 1.391 . S
C145 H133 0.950 . S
C145 C141 1.393 . S
C145 C144 1.391 . S
C146 H136 0.950 . S
C146 C147 1.386 . S
C146 C148 1.391 . S
C147 C146 1.386 . S
C147 C151 1.393 . S
C148 H137 0.950 . S
C148 C146 1.391 . S
C148 C149 1.400 . S
C149 C143 1.491 . S
C149 C148 1.400 . S
C149 C150 1.398 . S
C150 H138 0.950 . S
C150 C149 1.398 . S
C150 C151 1.391 . S
C151 H139 0.950 1_554 S
C151 C147 1.393 . S
C151 C150 1.391 . S
H152 C160 0.950 . S
H153 C165 0.950 . S
H154 C162 0.950 . S
H155 C164 0.950 . S
H156 C166 0.950 . S
H157 C168 0.950 . S
H158 C170 0.950 . S
H159 C171 0.950 . S
C160 H152 0.950 . S
C160 C161 1.386 . S
C160 C162 1.391 . S
C161 C160 1.386 . S
C161 C165 1.393 . S
C162 H154 0.950 . S
C162 C160 1.391 . S
C162 C163 1.400 . S
C163 C162 1.400 . S
C163 C164 1.398 . S
C163 C169 1.491 . S
C164 H155 0.950 . S
C164 C163 1.398 . S
C164 C165 1.391 . S
C165 H153 0.950 . S
C165 C161 1.393 . S
C165 C164 1.391 . S
C166 H156 0.950 . S
C166 C167 1.386 . S
C166 C168 1.391 . S
C167 C166 1.386 . S
C167 C171 1.393 . S
C168 H157 0.950 . S
C168 C166 1.391 . S
C168 C169 1.400 . S
C169 C163 1.491 . S
C169 C168 1.400 . S
C169 C170 1.398 . S
C170 H158 0.950 . S
C170 C169 1.398 . S
C170 C171 1.391 . S
C171 H159 0.950 . S
C171 C167 1.393 . S
C171 C170 1.391 . S
H172 C180 0.950 1_554 S
H173 C185 0.950 . S
H174 C182 0.950 . S
H175 C184 0.950 . S
H176 C186 0.950 . S
H177 C188 0.950 . S
H178 C190 0.950 . S
H179 C191 0.950 . S
C180 H172 0.950 1_556 S
C180 C181 1.386 . S
C180 C182 1.391 . S
C181 C180 1.386 . S
C181 C185 1.393 . S
C182 H174 0.950 . S
C182 C180 1.391 . S
C182 C183 1.400 . S
C183 C182 1.400 . S
C183 C184 1.398 . S
C183 C189 1.491 . S
C184 H175 0.950 . S
C184 C183 1.398 . S
C184 C185 1.391 . S
C185 H173 0.950 . S
C185 C181 1.393 . S
C185 C184 1.391 . S
C186 H176 0.950 . S
C186 C187 1.386 . S
C186 C188 1.391 . S
C187 C186 1.386 . S
C187 C191 1.393 . S
C188 H177 0.950 . S
C188 C186 1.391 . S
C188 C189 1.400 . S
C189 C183 1.491 . S
C189 C188 1.400 . S
C189 C190 1.398 . S
C190 H178 0.950 . S
C190 C189 1.398 . S
C190 C191 1.391 . S
C191 H179 0.950 . S
C191 C187 1.393 . S
C191 C190 1.391 . S
H192 C200 0.950 . S
H193 C205 0.950 . S
H194 C202 0.950 . S
H195 C204 0.950 . S
H196 C206 0.950 . S
H197 C208 0.950 . S
H198 C210 0.950 . S
H199 C211 0.950 . S
C200 H192 0.950 . S
C200 C201 1.386 . S
C200 C202 1.391 . S
C201 C200 1.386 . S
C201 C205 1.393 . S
C202 H194 0.950 . S
C202 C200 1.391 . S
C202 C203 1.400 . S
C203 C202 1.400 . S
C203 C204 1.398 . S
C203 C209 1.491 . S
C204 H195 0.950 . S
C204 C203 1.398 . S
C204 C205 1.391 . S
C205 H193 0.950 . S
C205 C201 1.393 . S
C205 C204 1.391 . S
C206 H196 0.950 . S
C206 C207 1.386 . S
C206 C208 1.391 . S
C207 C206 1.386 . S
C207 C211 1.393 . S
C208 H197 0.950 . S
C208 C206 1.391 . S
C208 C209 1.400 . S
C209 C203 1.491 . S
C209 C208 1.400 . S
C209 C210 1.398 . S
C210 H198 0.950 . S
C210 C209 1.398 . S
C210 C211 1.391 . S
C211 H199 0.950 . S
C211 C207 1.393 . S
C211 C210 1.391 . S
H212 C220 0.950 1_554 S
H213 C225 0.950 . S
H214 C222 0.950 . S
H215 C224 0.950 . S
H216 C226 0.950 . S
H217 C228 0.950 . S
H218 C230 0.950 . S
H219 C231 0.950 . S
C220 H212 0.950 1_556 S
C220 C221 1.386 . S
C220 C222 1.391 . S
C221 C220 1.386 . S
C221 C225 1.393 . S
C222 H214 0.950 . S
C222 C220 1.391 . S
C222 C223 1.400 . S
C223 C222 1.400 . S
C223 C224 1.398 . S
C223 C229 1.491 . S
C224 H215 0.950 . S
C224 C223 1.398 . S
C224 C225 1.391 . S
C225 H213 0.950 . S
C225 C221 1.393 . S
C225 C224 1.391 . S
C226 H216 0.950 . S
C226 C227 1.386 . S
C226 C228 1.391 . S
C227 C226 1.386 . S
C227 C231 1.393 . S
C228 H217 0.950 . S
C228 C226 1.391 . S
C228 C229 1.400 . S
C229 C223 1.491 . S
C229 C228 1.400 . S
C229 C230 1.398 . S
C230 H218 0.950 . S
C230 C229 1.398 . S
C230 C231 1.391 . S
C231 H219 0.950 . S
C231 C227 1.393 . S
C231 C230 1.391 . S
H232 C240 0.950 . S
H233 C245 0.950 . S
H234 C242 0.950 . S
H235 C244 0.950 . S
H236 C246 0.950 . S
H237 C248 0.950 . S
H238 C250 0.950 . S
H239 C251 0.950 . S
C240 H232 0.950 . S
C240 C241 1.386 . S
C240 C242 1.391 . S
C241 C240 1.386 . S
C241 C245 1.393 . S
C242 H234 0.950 . S
C242 C240 1.391 . S
C242 C243 1.400 . S
C243 C242 1.400 . S
C243 C244 1.398 . S
C243 C249 1.491 1_554 S
C244 H235 0.950 . S
C244 C243 1.398 . S
C244 C245 1.391 . S
C245 H233 0.950 . S
C245 C241 1.393 . S
C245 C244 1.391 . S
C246 H236 0.950 . S
C246 C247 1.386 . S
C246 C248 1.391 . S
C247 C246 1.386 . S
C247 C251 1.393 . S
C248 H237 0.950 . S
C248 C246 1.391 . S
C248 C249 1.400 . S
C249 C243 1.491 1_556 S
C249 C248 1.400 . S
C249 C250 1.398 . S
C250 H238 0.950 . S
C250 C249 1.398 . S
C250 C251 1.391 . S
C251 H239 0.950 . S
C251 C247 1.393 . S
C251 C250 1.391 . S
H252 C260 0.950 . S
H253 C265 0.950 1_556 S
H254 C262 0.950 . S
H255 C264 0.950 . S
H256 C266 0.950 . S
H257 C268 0.950 . S
H258 C270 0.950 . S
H259 C271 0.950 . S
C260 H252 0.950 . S
C260 C261 1.386 . S
C260 C262 1.391 . S
C261 C260 1.386 . S
C261 C265 1.393 . S
C262 H254 0.950 . S
C262 C260 1.391 . S
C262 C263 1.400 . S
C263 C262 1.400 . S
C263 C264 1.398 . S
C263 C269 1.491 . S
C264 H255 0.950 . S
C264 C263 1.398 . S
C264 C265 1.391 . S
C265 H253 0.950 1_554 S
C265 C261 1.393 . S
C265 C264 1.391 . S
C266 H256 0.950 . S
C266 C267 1.386 . S
C266 C268 1.391 . S
C267 C266 1.386 . S
C267 C271 1.393 . S
C268 H257 0.950 . S
C268 C266 1.391 . S
C268 C269 1.400 . S
C269 C263 1.491 . S
C269 C268 1.400 . S
C269 C270 1.398 . S
C270 H258 0.950 . S
C270 C269 1.398 . S
C270 C271 1.391 . S
C271 H259 0.950 . S
C271 C267 1.393 . S
C271 C270 1.391 . S
H272 C280 0.950 . S
H273 C285 0.950 . S
H274 C282 0.950 . S
H275 C284 0.950 . S
H276 C286 0.950 . S
H277 C288 0.950 . S
H278 C290 0.950 . S
H279 C291 0.950 . S
C280 H272 0.950 . S
C280 C281 1.386 . S
C280 C282 1.391 . S
C281 C280 1.386 . S
C281 C285 1.393 . S
C282 H274 0.950 . S
C282 C280 1.391 . S
C282 C283 1.400 . S
C283 C282 1.400 . S
C283 C284 1.398 . S
C283 C289 1.491 . S
C284 H275 0.950 . S
C284 C283 1.398 . S
C284 C285 1.391 . S
C285 H273 0.950 . S
C285 C281 1.393 . S
C285 C284 1.391 . S
C286 H276 0.950 . S
C286 C287 1.386 . S
C286 C288 1.391 . S
C287 C286 1.386 . S
C287 C291 1.393 . S
C288 H277 0.950 . S
C288 C286 1.391 . S
C288 C289 1.400 . S
C289 C283 1.491 . S
C289 C288 1.400 . S
C289 C290 1.398 . S
C290 H278 0.950 . S
C290 C289 1.398 . S
C290 C291 1.391 . S
C291 H279 0.950 . S
C291 C287 1.393 . S
C291 C290 1.391 . S
H292 C300 0.950 . S
H293 C305 0.950 . S
H294 C302 0.950 . S
H295 C304 0.950 . S
H296 C306 0.950 . S
H297 C308 0.950 . S
H298 C310 0.950 . S
H299 C311 0.950 . S
C300 H292 0.950 . S
C300 C301 1.386 . S
C300 C302 1.391 . S
C301 C300 1.386 . S
C301 C305 1.393 . S
C302 H294 0.950 . S
C302 C300 1.391 . S
C302 C303 1.400 . S
C303 C302 1.400 . S
C303 C304 1.398 . S
C303 C309 1.491 . S
C304 H295 0.950 . S
C304 C303 1.398 . S
C304 C305 1.391 . S
C305 H293 0.950 . S
C305 C301 1.393 . S
C305 C304 1.391 . S
C306 H296 0.950 . S
C306 C307 1.386 . S
C306 C308 1.391 . S
C307 C306 1.386 . S
C307 C311 1.393 . S
C308 H297 0.950 . S
C308 C306 1.391 . S
C308 C309 1.400 . S
C309 C303 1.491 . S
C309 C308 1.400 . S
C309 C310 1.398 . S
C310 H298 0.950 . S
C310 C309 1.398 . S
C310 C311 1.391 . S
C311 H299 0.950 . S
C311 C307 1.393 . S
C311 C310 1.391 . S
H312 C320 0.950 . S
H313 C325 0.950 . S
H314 C322 0.950 . S
H315 C324 0.950 . S
H316 C326 0.950 . S
H317 C328 0.950 . S
H318 C330 0.950 . S
H319 C331 0.950 . S
C320 H312 0.950 . S
C320 C321 1.386 . S
C320 C322 1.391 . S
C321 C320 1.386 . S
C321 C325 1.393 1_554 S
C322 H314 0.950 . S
C322 C320 1.391 . S
C322 C323 1.400 . S
C323 C322 1.400 . S
C323 C324 1.398 1_554 S
C323 C329 1.491 1_554 S
C324 H315 0.950 . S
C324 C323 1.398 1_556 S
C324 C325 1.391 . S
C325 H313 0.950 . S
C325 C321 1.393 1_556 S
C325 C324 1.391 . S
C326 H316 0.950 . S
C326 C327 1.386 . S
C326 C328 1.391 . S
C327 C326 1.386 . S
C327 C331 1.393 1_556 S
C328 H317 0.950 . S
C328 C326 1.391 . S
C328 C329 1.400 . S
C329 C323 1.491 1_556 S
C329 C328 1.400 . S
C329 C330 1.398 1_556 S
C330 H318 0.950 . S
C330 C329 1.398 1_554 S
C330 C331 1.391 . S
C331 H319 0.950 . S
C331 C327 1.393 1_554 S
C331 C330 1.391 . S
H332 C340 0.950 . S
H333 C345 0.950 . S
H334 C342 0.950 . S
H335 C344 0.950 . S
H336 C346 0.950 . S
H337 C348 0.950 . S
H338 C350 0.950 . S
H339 C351 0.950 . S
C340 H332 0.950 . S
C340 C341 1.386 . S
C340 C342 1.391 . S
C341 C340 1.386 . S
C341 C345 1.393 . S
C342 H334 0.950 . S
C342 C340 1.391 . S
C342 C343 1.400 . S
C343 C342 1.400 . S
C343 C344 1.398 . S
C343 C349 1.491 . S
C344 H335 0.950 . S
C344 C343 1.398 . S
C344 C345 1.391 . S
C345 H333 0.950 . S
C345 C341 1.393 . S
C345 C344 1.391 . S
C346 H336 0.950 . S
C346 C347 1.386 . S
C346 C348 1.391 . S
C347 C346 1.386 . S
C347 C351 1.393 . S
C348 H337 0.950 . S
C348 C346 1.391 . S
C348 C349 1.400 . S
C349 C343 1.491 . S
C349 C348 1.400 . S
C349 C350 1.398 . S
C350 H338 0.950 . S
C350 C349 1.398 . S
C350 C351 1.391 . S
C351 H339 0.950 . S
C351 C347 1.393 . S
C351 C350 1.391 . S
H352 C360 0.950 . S
H353 C365 0.950 . S
H354 C362 0.950 . S
H355 C364 0.950 . S
H356 C366 0.950 . S
H357 C368 0.950 . S
H358 C370 0.950 . S
H359 C371 0.950 . S
C360 H352 0.950 . S
C360 C361 1.386 . S
C360 C362 1.391 . S
C361 C360 1.386 . S
C361 C365 1.393 . S
C362 H354 0.950 . S
C362 C360 1.391 . S
C362 C363 1.400 . S
C363 C362 1.400 . S
C363 C364 1.398 . S
C363 C369 1.491 . S
C364 H355 0.950 . S
C364 C363 1.398 . S
C364 C365 1.391 . S
C365 H353 0.950 . S
C365 C361 1.393 . S
C365 C364 1.391 . S
C366 H356 0.950 . S
C366 C367 1.386 . S
C366 C368 1.391 . S
C367 C366 1.386 . S
C367 C371 1.393 . S
C368 H357 0.950 . S
C368 C366 1.391 . S
C368 C369 1.400 . S
C369 C363 1.491 . S
C369 C368 1.400 . S
C369 C370 1.398 . S
C370 H358 0.950 . S
C370 C369 1.398 . S
C370 C371 1.391 . S
C371 H359 0.950 . S
C371 C367 1.393 . S
C371 C370 1.391 . S
H372 C380 0.950 . S
H373 C385 0.950 . S
H374 C382 0.950 . S
H375 C384 0.950 . S
H376 C386 0.950 . S
H377 C388 0.950 . S
H378 C390 0.950 . S
H379 C391 0.950 . S
C380 H372 0.950 . S
C380 C381 1.386 . S
C380 C382 1.391 . S
C381 C380 1.386 . S
C381 C385 1.393 1_556 S
C382 H374 0.950 . S
C382 C380 1.391 . S
C382 C383 1.400 . S
C383 C382 1.400 . S
C383 C384 1.398 1_556 S
C383 C389 1.491 1_556 S
C384 H375 0.950 . S
C384 C383 1.398 1_554 S
C384 C385 1.391 . S
C385 H373 0.950 . S
C385 C381 1.393 1_554 S
C385 C384 1.391 . S
C386 H376 0.950 . S
C386 C387 1.386 . S
C386 C388 1.391 . S
C387 C386 1.386 . S
C387 C391 1.393 1_554 S
C388 H377 0.950 . S
C388 C386 1.391 . S
C388 C389 1.400 . S
C389 C383 1.491 1_554 S
C389 C388 1.400 . S
C389 C390 1.398 1_554 S
C390 H378 0.950 . S
C390 C389 1.398 1_556 S
C390 C391 1.391 . S
C391 H379 0.950 . S
C391 C387 1.393 1_556 S
C391 C390 1.391 . S
H392 C400 0.950 . S
H393 C405 0.950 . S
H394 C402 0.950 . S
H395 C404 0.950 . S
H396 C406 0.950 . S
H397 C408 0.950 . S
H398 C410 0.950 . S
H399 C411 0.950 . S
C400 H392 0.950 . S
C400 C401 1.386 . S
C400 C402 1.391 . S
C401 C400 1.386 . S
C401 C405 1.393 . S
C402 H394 0.950 . S
C402 C400 1.391 . S
C402 C403 1.400 . S
C403 C402 1.400 . S
C403 C404 1.398 . S
C403 C409 1.491 . S
C404 H395 0.950 . S
C404 C403 1.398 . S
C404 C405 1.391 . S
C405 H393 0.950 . S
C405 C401 1.393 . S
C405 C404 1.391 . S
C406 H396 0.950 . S
C406 C407 1.386 . S
C406 C408 1.391 . S
C407 C406 1.386 . S
C407 C411 1.393 . S
C408 H397 0.950 . S
C408 C406 1.391 . S
C408 C409 1.400 . S
C409 C403 1.491 . S
C409 C408 1.400 . S
C409 C410 1.398 . S
C410 H398 0.950 . S
C410 C409 1.398 . S
C410 C411 1.391 . S
C411 H399 0.950 . S
C411 C407 1.393 . S
C411 C410 1.391 . S
H412 C420 0.950 . S
H413 C425 0.950 . S
H414 C422 0.950 . S
H415 C424 0.950 . S
H416 C426 0.950 . S
H417 C428 0.950 . S
H418 C430 0.950 . S
H419 C431 0.950 . S
C420 H412 0.950 . S
C420 C421 1.386 . S
C420 C422 1.391 . S
C421 C420 1.386 . S
C421 C425 1.393 . S
C422 H414 0.950 . S
C422 C420 1.391 . S
C422 C423 1.400 . S
C423 C422 1.400 . S
C423 C424 1.398 . S
C423 C429 1.491 . S
C424 H415 0.950 . S
C424 C423 1.398 . S
C424 C425 1.391 . S
C425 H413 0.950 . S
C425 C421 1.393 . S
C425 C424 1.391 . S
C426 H416 0.950 . S
C426 C427 1.386 . S
C426 C428 1.391 . S
C427 C426 1.386 . S
C427 C431 1.393 . S
C428 H417 0.950 . S
C428 C426 1.391 . S
C428 C429 1.400 . S
C429 C423 1.491 . S
C429 C428 1.400 . S
C429 C430 1.398 . S
C430 H418 0.950 . S
C430 C429 1.398 . S
C430 C431 1.391 . S
C431 H419 0.950 . S
C431 C427 1.393 . S
C431 C430 1.391 . S
C121 C17 1.434 . S
C127 C3 1.431 . S
C141 C22 1.433 . S
C147 C36 1.433 . S
C161 C45 1.432 . S
C167 C31 1.434 . S
C181 C50 1.434 . S
C187 C8 1.434 . S
C201 C59 1.429 . S
C207 C73 1.430 . S
C221 C78 1.434 . S
C227 C92 1.434 . S
C241 C87 1.430 . S
C247 C101 1.429 . S
C261 C64 1.435 . S
C267 C106 1.434 . S
C281 C9 1.437 . S
C287 C107 1.439 . S
C301 C63 1.430 . S
C307 C21 1.438 . S
C321 C79 1.431 . S
C327 C37 1.428 . S
C341 C49 1.437 . S
C347 C91 1.431 . S
C361 C35 1.429 . S
C367 C105 1.441 . S
C381 C65 1.430 . S
C387 C51 1.427 . S
C401 C77 1.434 . S
C407 C7 1.448 . S
C421 C23 1.427 . S
C427 C93 1.430 . S
