# Generated by pormake.
# Topology wgu, (5)-cn, num edge types: 1
# Building blocks:
#     Node 0, Type 0, BuildingBlock: XOMCOT_clean_sbu_1, # of connection points: 5
#     Node 1, Type 0, BuildingBlock: XOMCOT_clean_sbu_1, # of connection points: 5
#     Node 2, Type 0, BuildingBlock: XOMCOT_clean_sbu_1, # of connection points: 5
#     Node 3, Type 0, BuildingBlock: XOMCOT_clean_sbu_1, # of connection points: 5
#     Node 4, Type 0, BuildingBlock: XOMCOT_clean_sbu_1, # of connection points: 5
#     Node 5, Type 0, BuildingBlock: XOMCOT_clean_sbu_1, # of connection points: 5
#     Node 6, Type 0, BuildingBlock: XOMCOT_clean_sbu_1, # of connection points: 5
#     Node 7, Type 0, BuildingBlock: XOMCOT_clean_sbu_1, # of connection points: 5
#     Edge 8, Type (0, 0), BuildingBlock: CIFDUS_clean_linker_0, # of connection points: 2
#     Edge 9, Type (0, 0), BuildingBlock: CIFDUS_clean_linker_0, # of connection points: 2
#     Edge 10, Type (0, 0), BuildingBlock: CIFDUS_clean_linker_0, # of connection points: 2
#     Edge 11, Type (0, 0), BuildingBlock: CIFDUS_clean_linker_0, # of connection points: 2
#     Edge 12, Type (0, 0), BuildingBlock: CIFDUS_clean_linker_0, # of connection points: 2
#     Edge 13, Type (0, 0), BuildingBlock: CIFDUS_clean_linker_0, # of connection points: 2
#     Edge 14, Type (0, 0), BuildingBlock: CIFDUS_clean_linker_0, # of connection points: 2
#     Edge 15, Type (0, 0), BuildingBlock: CIFDUS_clean_linker_0, # of connection points: 2
#     Edge 16, Type (0, 0), BuildingBlock: CIFDUS_clean_linker_0, # of connection points: 2
#     Edge 17, Type (0, 0), BuildingBlock: CIFDUS_clean_linker_0, # of connection points: 2
#     Edge 18, Type (0, 0), BuildingBlock: CIFDUS_clean_linker_0, # of connection points: 2
#     Edge 19, Type (0, 0), BuildingBlock: CIFDUS_clean_linker_0, # of connection points: 2
#     Edge 20, Type (0, 0), BuildingBlock: CIFDUS_clean_linker_0, # of connection points: 2
#     Edge 21, Type (0, 0), BuildingBlock: CIFDUS_clean_linker_0, # of connection points: 2
#     Edge 22, Type (0, 0), BuildingBlock: CIFDUS_clean_linker_0, # of connection points: 2
#     Edge 23, Type (0, 0), BuildingBlock: CIFDUS_clean_linker_0, # of connection points: 2
#     Edge 24, Type (0, 0), BuildingBlock: CIFDUS_clean_linker_0, # of connection points: 2
#     Edge 25, Type (0, 0), BuildingBlock: CIFDUS_clean_linker_0, # of connection points: 2
#     Edge 26, Type (0, 0), BuildingBlock: CIFDUS_clean_linker_0, # of connection points: 2
#     Edge 27, Type (0, 0), BuildingBlock: CIFDUS_clean_linker_0, # of connection points: 2
# Relax obj value: 0.219
# Max RMSD: 0.185
# Mean RMSD: 0.174
data_MOF--net-wgu--node1-XOMCOT_clean_sbu_1--edge1-CIFDUS_clean_linker_0
_symmetry_space_group_name_H-M    P1
_symmetry_Int_Tables_number       1
_symmetry_cell_setting            triclinic
loop_
_symmetry_equiv_pos_as_xyz
'x, y, z'
_cell_length_a     29.443331
_cell_length_b     29.230339
_cell_length_c     25.495644
_cell_angle_alpha  94.309587
_cell_angle_beta   92.211249
_cell_angle_gamma 89.892843
loop_
_atom_site_label
_atom_site_type_symbol
_atom_site_fract_x
_atom_site_fract_y
_atom_site_fract_z
_atom_type_partial_charge
C0 C 0.24126 0.38924 0.03824 0.0
C1 C 0.22137 0.4315 0.03587 0.0
N2 N 0.2473 0.46273 0.06488 0.0
N3 N 0.28001 0.39344 0.06808 0.0
C4 C 0.28274 0.43855 0.08409 0.0
H5 H 0.22869 0.35735 0.01874 0.0
Co6 Co 0.31811 0.34402 0.082 0.0
C7 C 0.40577 0.38965 0.06125 0.0
O8 O 0.41282 0.35926 0.0218 0.0
N9 N 0.35465 0.2931 0.09787 0.0
C10 C 0.40523 0.23794 0.11287 0.0
C11 C 0.39935 0.28201 0.0974 0.0
C12 C 0.33475 0.25579 0.11523 0.0
N13 N 0.36434 0.22207 0.12444 0.0
O14 O 0.30675 0.35308 0.15505 0.0
H15 H 0.42647 0.30393 0.08726 0.0
H16 H 0.29848 0.25233 0.1188 0.0
O17 O 0.37087 0.38623 0.08921 0.0
C18 C 0.26846 0.33402 0.16104 0.0
O19 O 0.24304 0.32214 0.11873 0.0
N20 N 0.32397 0.33097 1.009 0.0
C21 C 0.29982 0.30882 0.90345 0.0
C22 C 0.31465 0.35328 0.92035 0.0
C23 C 0.32655 0.36375 0.97356 0.0
C24 C 0.31154 0.28725 0.99218 0.0
C25 C 0.30025 0.27529 0.93973 0.0
H26 H 0.33412 0.399 0.98695 0.0
H27 H 0.30557 0.26207 0.01976 0.0
H28 H 0.31004 0.45316 0.10958 0.0
H29 H 0.19066 0.43855 0.01325 0.0
H30 H 0.43691 0.2193 0.11593 0.0
H31 H 0.31435 0.38026 0.89346 0.0
H32 H 0.28754 0.24097 0.92893 0.0
C33 C 0.54844 0.32882 0.50032 0.0
C34 C 0.50719 0.3069 0.49509 0.0
N35 N 0.51382 0.26262 0.50383 0.0
N36 N 0.58112 0.299 0.51417 0.0
C37 C 0.55901 0.25826 0.51408 0.0
H38 H 0.55402 0.36468 0.49501 0.0
Co39 Co 0.64254 0.31632 0.52853 0.0
C40 C 0.63258 0.25705 0.62434 0.0
O41 O 0.58904 0.24716 0.62172 0.0
N42 N 0.70465 0.33324 0.54309 0.0
C43 C 0.76792 0.362 0.58414 0.0
C44 C 0.72123 0.36233 0.58316 0.0
C45 C 0.7426 0.31468 0.52151 0.0
N46 N 0.78121 0.33174 0.54555 0.0
O47 O 0.6614 0.26473 0.4832 0.0
H48 H 0.70102 0.38136 0.61178 0.0
H49 H 0.74256 0.28834 0.48954 0.0
O50 O 0.64936 0.28175 0.59069 0.0
C51 C 0.66284 0.27881 0.43708 0.0
O52 O 0.65026 0.32121 0.43041 0.0
N53 N 0.62277 0.36993 0.56738 0.0
C54 C 0.57975 0.45268 0.59781 0.0
C55 C 0.57146 0.41275 0.62353 0.0
C56 C 0.59375 0.37161 0.60804 0.0
C57 C 0.63196 0.4087 0.54303 0.0
C58 C 0.61155 0.45048 0.55825 0.0
H59 H 0.58495 0.34062 0.6258 0.0
H60 H 0.65355 0.4066 0.50956 0.0
H61 H 0.57544 0.2263 0.52229 0.0
H62 H 0.47469 0.32221 0.48548 0.0
H63 H 0.79037 0.38107 0.61243 0.0
H64 H 0.54675 0.41298 0.65394 0.0
H65 H 0.61831 0.48015 0.53672 0.0
C66 C 0.69987 0.5883 0.9407 0.0
C67 C 0.71984 0.54828 0.92227 0.0
N68 N 0.76378 0.54888 0.93923 0.0
N69 N 0.73047 0.61401 0.97043 0.0
C70 C 0.76965 0.58998 0.96687 0.0
H71 H 0.6647 0.59746 0.93385 0.0
Co72 Co 0.71539 0.67044 1.00439 0.0
C73 C 0.77912 0.63479 0.09268 0.0
O74 O 0.77916 0.59105 0.07659 0.0
N75 N 0.69937 0.72669 0.03688 0.0
C76 C 0.68162 0.7817 0.09742 0.0
C77 C 0.69071 0.73575 0.08822 0.0
C78 C 0.69484 0.76733 0.01556 0.0
N79 N 0.68445 0.80151 0.05164 0.0
O80 O 0.7637 0.69892 0.96871 0.0
H81 H 0.6918 0.71067 0.11736 0.0
H82 H 0.69927 0.7719 0.97443 0.0
O83 O 0.75626 0.66325 0.06656 0.0
C84 C 0.75133 0.70693 0.92169 0.0
O85 O 0.70958 0.69672 0.90494 0.0
N86 N 0.66545 0.64281 0.03456 0.0
C87 C 0.58793 0.59043 0.0472 0.0
C88 C 0.62802 0.5833 0.07691 0.0
C89 C 0.66663 0.6098 0.06983 0.0
C90 C 0.62543 0.65317 0.00949 0.0
C91 C 0.58634 0.62721 0.01491 0.0
H92 H 0.69761 0.60136 0.09028 0.0
H93 H 0.62489 0.67918 0.98143 0.0
H94 H 0.80167 0.60198 0.98503 0.0
H95 H 0.70234 0.5198 0.90074 0.0
H96 H 0.67514 0.79937 0.13523 0.0
H97 H 0.63064 0.55514 0.10217 0.0
H98 H 0.55594 0.63399 0.99147 0.0
C99 C 0.44387 0.8293 0.63803 0.0
C100 C 0.48791 0.84125 0.62954 0.0
N101 N 0.50812 0.80516 0.60404 0.0
N102 N 0.43634 0.78581 0.61823 0.0
C103 C 0.47613 0.77192 0.59775 0.0
H104 H 0.41858 0.85151 0.65605 0.0
Co105 Co 0.3803 0.75703 0.61488 0.0
C106 C 0.39837 0.6566 0.59196 0.0
O107 O 0.36015 0.65248 0.56363 0.0
N108 N 0.32275 0.72958 0.61269 0.0
C109 C 0.26257 0.69052 0.63515 0.0
C110 C 0.30838 0.69799 0.64446 0.0
C111 C 0.28484 0.74165 0.58563 0.0
N112 N 0.24791 0.71831 0.59832 0.0
O113 O 0.38032 0.75999 0.69086 0.0
H114 H 0.32972 0.68217 0.67347 0.0
H115 H 0.28376 0.76785 0.55801 0.0
O116 O 0.41078 0.69613 0.61274 0.0
C117 C 0.3566 0.79425 0.70775 0.0
O118 O 0.33722 0.82022 0.67347 0.0
N119 N 0.37837 0.76014 0.54105 0.0
C120 C 0.36672 0.78496 0.43718 0.0
C121 C 0.38736 0.74304 0.44806 0.0
C122 C 0.3936 0.73152 0.50054 0.0
C123 C 0.3603 0.80163 0.53109 0.0
C124 C 0.35348 0.81435 0.47991 0.0
H125 H 0.41125 0.70023 0.50801 0.0
H126 H 0.34985 0.82469 0.56358 0.0
H127 H 0.48091 0.73893 0.57645 0.0
H128 H 0.50363 0.87416 0.6407 0.0
H129 H 0.24138 0.66787 0.65541 0.0
H130 H 0.3992 0.71974 0.41647 0.0
H131 H 0.33696 0.8468 0.47407 0.0
C132 C 0.70676 0.13538 0.01255 0.0
C133 C 0.68677 0.09318 0.01462 0.0
N134 N 0.71604 0.06088 0.99614 0.0
N135 N 0.74846 0.1297 0.99307 0.0
C136 C 0.75302 0.08403 0.98291 0.0
H137 H 0.69225 0.16819 0.02529 0.0
Co138 Co 0.78868 0.17699 0.98437 0.0
C139 C 0.87447 0.12745 0.01622 0.0
O140 O 0.88041 0.1561 0.05813 0.0
N141 N 0.82758 0.22606 0.9735 0.0
C142 C 0.8816 0.27857 0.9669 0.0
C143 C 0.87247 0.23522 0.98179 0.0
C144 C 0.81077 0.26379 0.9523 0.0
N145 N 0.84264 0.29606 0.94797 0.0
O146 O 0.77914 0.16684 0.90872 0.0
H147 H 0.89757 0.21261 0.99731 0.0
H148 H 0.77514 0.26839 0.94216 0.0
O149 O 0.84079 0.13292 0.98378 0.0
C150 C 0.74059 0.18283 0.8942 0.0
O151 O 0.71451 0.20232 0.93006 0.0
N152 N 0.79273 0.18968 0.05908 0.0
C153 C 0.77829 0.21225 0.16625 0.0
C154 C 0.7864 0.16671 0.14762 0.0
C155 C 0.79317 0.15609 0.0939 0.0
C156 C 0.78429 0.23398 0.07677 0.0
C157 C 0.77768 0.24602 0.12992 0.0
H158 H 0.79764 0.12055 0.08008 0.0
H159 H 0.78007 0.2602 0.04943 0.0
H160 H 0.78348 0.06796 0.96788 0.0
H161 H 0.65347 0.08683 0.02908 0.0
H162 H 0.9142 0.29583 0.96961 0.0
H163 H 0.78684 0.13942 0.17409 0.0
H164 H 0.76991 0.28141 0.14193 0.0
C165 C 0.9249 0.69689 0.45371 0.0
C166 C 0.9666 0.67773 0.46424 0.0
N167 N 0.99219 0.70929 0.49291 0.0
N168 N 0.92429 0.74039 0.47548 0.0
C169 C 0.96572 0.74688 0.4993 0.0
H170 H 0.89653 0.67959 0.43274 0.0
Co171 Co 0.87453 0.77942 0.47739 0.0
C172 C 0.91595 0.87621 0.49061 0.0
O173 O 0.87873 0.89605 0.50772 0.0
N174 N 0.82331 0.81693 0.47843 0.0
C175 C 0.76745 0.86324 0.45458 0.0
C176 C 0.81107 0.84883 0.44491 0.0
C177 C 0.78619 0.81148 0.50678 0.0
N178 N 0.75183 0.83937 0.4933 0.0
O179 O 0.8719 0.77684 0.40123 0.0
H180 H 0.83202 0.85987 0.41429 0.0
H181 H 0.78378 0.78641 0.53563 0.0
O182 O 0.91687 0.83263 0.47993 0.0
C183 C 0.84434 0.74605 0.38126 0.0
O184 O 0.82148 0.72224 0.41315 0.0
N185 N 0.87464 0.77722 0.55148 0.0
C186 C 0.86425 0.75778 0.65656 0.0
C187 C 0.87944 0.80117 0.64411 0.0
C188 C 0.88475 0.81017 0.59112 0.0
C189 C 0.85975 0.73517 0.5631 0.0
C190 C 0.85456 0.7247 0.61496 0.0
H191 H 0.89638 0.84356 0.58247 0.0
H192 H 0.85094 0.70965 0.53143 0.0
H193 H 0.9756 0.77786 0.52284 0.0
H194 H 0.97717 0.64321 0.45198 0.0
H195 H 0.74797 0.88764 0.43306 0.0
H196 H 0.8873 0.82778 0.67497 0.0
H197 H 0.84179 0.69112 0.62226 0.0
C198 C 0.19023 0.94466 0.12894 0.0
C199 C 0.21327 0.9846 0.14288 0.0
N200 N 0.25621 0.97979 0.12696 0.0
N201 N 0.21788 0.91463 0.1031 0.0
C202 C 0.25839 0.93659 0.1039 0.0
H203 H 0.15517 0.9381 0.13693 0.0
Co204 Co 0.19829 0.85545 0.07906 0.0
C205 C 0.25674 0.87518 0.98401 0.0
O206 O 0.26281 0.91962 0.99275 0.0
N207 N 0.17827 0.79621 0.05612 0.0
C208 C 0.1495 0.73701 1.00572 0.0
C209 C 0.15532 0.78378 0.01035 0.0
C210 C 0.18642 0.75624 0.0783 0.0
N211 N 0.16937 0.71981 0.04834 0.0
O212 O 0.24949 0.82992 0.1169 0.0
H213 H 0.1448 0.80703 0.98115 0.0
H214 H 0.20508 0.75357 0.11523 0.0
O215 O 0.23316 0.8533 0.01495 0.0
C216 C 0.24557 0.83336 0.16672 0.0
O217 O 0.20922 0.85311 0.18631 0.0
N218 N 0.14611 0.88125 0.04653 0.0
C219 C 0.06859 0.93498 0.03139 0.0
C220 C 0.10722 0.94063 1.00191 0.0
C221 C 0.14593 0.91346 0.01029 0.0
C222 C 0.10749 0.87278 0.07202 0.0
C223 C 0.06845 0.8992 0.06507 0.0
H224 H 0.17654 0.92117 0.99098 0.0
H225 H 0.10824 0.84799 0.10149 0.0
H226 H 0.28893 0.92117 0.08826 0.0
H227 H 0.19881 0.01543 0.16161 0.0
H228 H 0.13378 0.71695 0.97248 0.0
H229 H 0.10887 0.96827 0.97603 0.0
H230 H 0.03938 0.89377 0.08866 0.0
C231 C 0.08738 0.23691 0.43512 0.0
C232 C 0.0449 0.2556 0.43951 0.0
N233 N 0.02056 0.2294 0.46925 0.0
N234 N 0.09023 0.19872 0.46178 0.0
C235 C 0.04865 0.19494 0.48218 0.0
H236 H 0.11487 0.25181 0.41543 0.0
Co237 Co 0.14452 0.16592 0.47262 0.0
C238 C 0.11159 0.06551 0.47271 0.0
O239 O 0.15104 0.04839 0.48683 0.0
N240 N 0.20072 0.13545 0.48291 0.0
C241 C 0.26685 0.10335 0.46181 0.0
C242 C 0.22051 0.10269 0.45142 0.0
C243 C 0.23588 0.1557 0.5115 0.0
N244 N 0.2768 0.13746 0.49914 0.0
O245 O 0.15453 0.16383 0.3988 0.0
H246 H 0.20322 0.08302 0.419 0.0
H247 H 0.23182 0.18727 0.53571 0.0
O248 O 0.10789 0.10855 0.46654 0.0
C249 C 0.18352 0.19595 0.39533 0.0
O250 O 0.19729 0.21976 0.43884 0.0
N251 N 0.13841 0.17376 0.54473 0.0
C252 C 0.1664 0.19862 0.64806 0.0
C253 C 0.15826 0.23209 0.6123 0.0
C254 C 0.14435 0.21886 0.56087 0.0
C255 C 0.14163 0.14082 0.57981 0.0
C256 C 0.1554 0.15271 0.63217 0.0
H257 H 0.14351 0.24437 0.53228 0.0
H258 H 0.13798 0.10508 0.56689 0.0
H259 H 0.04002 0.16911 0.50839 0.0
H260 H 0.03307 0.28676 0.42305 0.0
H261 H 0.29131 0.08268 0.4401 0.0
H262 H 0.16696 0.26776 0.62202 0.0
H263 H 0.16053 0.12585 0.65882 0.0
H264 H 0.2633 0.05323 0.19689 0.0
H265 H 0.32408 0.98871 0.05902 0.0
H266 H 0.36996 0.05734 0.05112 0.0
H267 H 0.38365 0.14016 0.07556 0.0
H268 H 0.31586 0.20582 0.20751 0.0
H269 H 0.28155 0.13279 0.22562 0.0
C270 C 0.28674 0.054 0.16524 0.0
C271 C 0.28948 0.01612 0.12803 0.0
C272 C 0.31147 0.09417 0.15971 0.0
C273 C 0.32117 0.01727 0.08824 0.0
C274 C 0.34714 0.05675 0.08341 0.0
C275 C 0.36242 0.13782 0.10907 0.0
C276 C 0.3523 0.17784 0.14047 0.0
C277 C 0.34135 0.096 0.11779 0.0
C278 C 0.32405 0.17513 0.1832 0.0
C279 C 0.30434 0.13353 0.1933 0.0
H280 H 0.98803 0.31222 0.49948 0.0
H281 H 0.95179 0.16928 0.47754 0.0
H282 H 0.87279 0.18827 0.49858 0.0
H283 H 0.81362 0.24676 0.52036 0.0
H284 H 0.85224 0.38906 0.5454 0.0
H285 H 0.9308 0.36944 0.52557 0.0
C286 C 0.96277 0.28527 0.49933 0.0
C287 C 0.97537 0.23952 0.48644 0.0
C288 C 0.91792 0.2965 0.51165 0.0
C289 C 0.94272 0.2047 0.48749 0.0
C290 C 0.89762 0.21564 0.49915 0.0
C291 C 0.83934 0.27331 0.52116 0.0
C292 C 0.82727 0.31937 0.53384 0.0
C293 C 0.88471 0.26156 0.51067 0.0
C294 C 0.86091 0.35347 0.53584 0.0
C295 C 0.90571 0.34226 0.52445 0.0
H296 H 0.66511 0.01487 0.06012 0.0
H297 H 0.75614 0.99635 0.93158 0.0
H298 H 0.75269 0.91328 0.93589 0.0
H299 H 0.7273 0.8466 0.97962 0.0
H300 H 0.63549 0.86517 0.10734 0.0
H301 H 0.63551 0.94792 0.09965 0.0
C302 C 0.68354 0.99275 0.03236 0.0
C303 C 0.71104 0.01189 0.99579 0.0
C304 C 0.68147 0.94513 0.03515 0.0
C305 C 0.73529 0.98256 0.96069 0.0
C306 C 0.73318 0.93506 0.96297 0.0
C307 C 0.70659 0.86858 1.0051 0.0
C308 C 0.68157 0.84973 0.04415 0.0
C309 C 0.70689 0.91605 1.00056 0.0
C310 C 0.65555 0.8789 0.07749 0.0
C311 C 0.65541 0.92617 0.07297 0.0
H312 H 0.05632 0.77451 0.50875 0.0
H313 H 0.03041 0.63106 0.52376 0.0
H314 H 0.10799 0.6211 0.55851 0.0
H315 H 0.18342 0.65327 0.58414 0.0
H316 H 0.20918 0.79669 0.56868 0.0
H317 H 0.13145 0.80671 0.53465 0.0
C318 C 0.06759 0.74121 0.52009 0.0
C319 C 0.03774 0.70362 0.51376 0.0
C320 C 0.11222 0.73574 0.53979 0.0
C321 C 0.05296 0.66041 0.52773 0.0
C322 C 0.09721 0.65475 0.54785 0.0
C323 C 0.17181 0.68672 0.57368 0.0
C324 C 0.20195 0.7241 0.57878 0.0
C325 C 0.12714 0.69217 0.55397 0.0
C326 C 0.18678 0.76722 0.56441 0.0
C327 C 0.14229 0.77304 0.54525 0.0
H328 H 0.76072 0.47543 0.86876 0.0
H329 H 0.83408 0.5328 1.00809 0.0
H330 H 0.87144 0.45933 0.01816 0.0
H331 H 0.87316 0.37551 0.99608 0.0
H332 H 0.79281 0.3173 0.86299 0.0
H333 H 0.76774 0.3939 0.84202 0.0
C334 C 0.78506 0.47205 0.9012 0.0
C335 C 0.7935 0.50947 0.93831 0.0
C336 C 0.80465 0.42913 0.90829 0.0
C337 C 0.82652 0.50476 0.97897 0.0
C338 C 0.84765 0.46248 0.98511 0.0
C339 C 0.85109 0.37998 0.96182 0.0
C340 C 0.83454 0.3412 0.93115 0.0
C341 C 0.83548 0.42397 0.95134 0.0
C342 C 0.80553 0.34692 0.88718 0.0
C343 C 0.79124 0.39059 0.8753 0.0
H344 H 0.55491 0.87587 0.57128 0.0
H345 H 0.56294 0.73106 0.59243 0.0
H346 H 0.64015 0.72882 0.56007 0.0
H347 H 0.7052 0.76829 0.52587 0.0
H348 H 0.69668 0.91296 0.50419 0.0
H349 H 0.61963 0.91518 0.53689 0.0
C350 C 0.57372 0.84393 0.56934 0.0
C351 C 0.55339 0.80375 0.58459 0.0
C352 C 0.61788 0.84294 0.55057 0.0
C353 C 0.57779 0.76236 0.58062 0.0
C354 C 0.62196 0.76114 0.56237 0.0
C355 C 0.68665 0.80037 0.52886 0.0
C356 C 0.70666 0.84051 0.51297 0.0
C357 C 0.64235 0.80125 0.54735 0.0
C358 C 0.68183 0.88163 0.5159 0.0
C359 C 0.63791 0.88291 0.53475 0.0
H360 H 0.16746 0.50647 0.04977 0.0
H361 H 0.30875 0.53026 0.09516 0.0
H362 H 0.29576 0.61292 0.0996 0.0
H363 H 0.24545 0.67877 0.08324 0.0
H364 H 0.10643 0.65366 0.03035 0.0
H365 H 0.11743 0.5711 0.03537 0.0
C366 C 0.1957 0.52944 0.0602 0.0
C367 C 0.23922 0.51165 0.07138 0.0
C368 C 0.18835 0.5769 0.06106 0.0
C369 C 0.27483 0.54255 0.08648 0.0
C370 C 0.2675 0.59 0.08871 0.0
C371 C 0.21753 0.6551 0.07368 0.0
C372 C 0.17515 0.67199 0.0565 0.0
C373 C 0.22457 0.60757 0.07518 0.0
C374 C 0.1393 0.64118 0.04339 0.0
C375 C 0.14563 0.59411 0.04626 0.0
H376 H 0.35735 0.12088 0.45082 0.0
H377 H 0.29788 0.20047 0.5806 0.0
H378 H 0.36754 0.24465 0.59528 0.0
H379 H 0.44296 0.26612 0.56605 0.0
H380 H 0.50472 0.18461 0.44079 0.0
H381 H 0.43698 0.1351 0.43018 0.0
C382 C 0.35946 0.14724 0.48293 0.0
C383 C 0.32102 0.158 0.51319 0.0
C384 C 0.40028 0.17235 0.49198 0.0
C385 C 0.32569 0.19219 0.5551 0.0
C386 C 0.36586 0.21747 0.56391 0.0
C387 C 0.44171 0.23686 0.53725 0.0
C388 C 0.4784 0.22881 0.50412 0.0
C389 C 0.40285 0.20874 0.53169 0.0
C390 C 0.47686 0.19099 0.46686 0.0
C391 C 0.43802 0.16305 0.46063 0.0
H392 H 0.54193 0.55407 0.12646 0.0
H393 H 0.5523 0.54755 0.95772 0.0
H394 H 0.49676 0.48557 0.94759 0.0
H395 H 0.44762 0.43116 0.98611 0.0
H396 H 0.432 0.43869 0.15385 0.0
H397 H 0.48687 0.50239 0.16514 0.0
C398 C 0.53162 0.5392 0.08759 0.0
C399 C 0.55109 0.55548 0.04286 0.0
C400 C 0.49896 0.50366 0.08191 0.0
C401 C 0.5374 0.53606 0.99267 0.0
C402 C 0.50586 0.5004 0.98683 0.0
C403 C 0.45622 0.44673 0.02521 0.0
C404 C 0.43645 0.42985 0.06918 0.0
C405 C 0.48682 0.48363 0.0311 0.0
C406 C 0.44702 0.45102 0.11945 0.0
C407 C 0.47844 0.48732 0.12585 0.0
H408 H 0.48789 0.46001 0.59605 0.0
H409 H 0.61019 0.54091 0.61814 0.0
H410 H 0.56507 0.61161 0.62204 0.0
H411 H 0.49052 0.65068 0.61305 0.0
H412 H 0.36927 0.56843 0.58476 0.0
H413 H 0.41394 0.49855 0.58962 0.0
C414 C 0.50456 0.49311 0.60284 0.0
C415 C 0.55227 0.49519 0.60736 0.0
C416 C 0.47847 0.53359 0.60333 0.0
C417 C 0.57347 0.53841 0.6148 0.0
C418 C 0.54767 0.57885 0.61684 0.0
C419 C 0.47392 0.61746 0.60853 0.0
C420 C 0.42655 0.61493 0.59842 0.0
C421 C 0.50011 0.57695 0.6102 0.0
C422 C 0.40566 0.5715 0.59216 0.0
C423 C 0.43119 0.53139 0.59505 0.0
H424 H 0.01372 0.96754 0.9518 0.0
H425 H 0.04265 0.9829 0.11937 0.0
H426 H 0.98535 0.0428 0.12904 0.0
H427 H 0.92798 0.09158 0.0908 0.0
H428 H 0.89433 0.07609 0.92439 0.0
H429 H 0.9519 0.01537 0.91332 0.0
C430 C 1.00724 0.98405 0.9903 0.0
C431 C 0.03232 0.97062 0.03489 0.0
C432 C 0.97337 0.01838 0.99581 0.0
C433 C 0.02352 0.9922 0.08458 0.0
C434 C 0.99085 0.0266 0.09015 0.0
C435 C 0.93314 0.07504 0.05196 0.0
C436 C 0.90715 0.0888 1.0084 0.0
C437 C 0.96569 0.04004 0.04615 0.0
C438 C 0.91388 0.06627 0.9586 0.0
C439 C 0.94694 0.03164 0.95228 0.0
H440 H 0.91981 0.96859 0.4824 0.0
H441 H 1.00483 0.84835 0.48478 0.0
H442 H 0.07239 0.89587 0.47828 0.0
H443 H 0.10768 0.97206 0.4743 0.0
H444 H 0.02205 0.09167 0.46767 0.0
H445 H 0.95467 0.04398 0.47299 0.0
C446 C 0.95311 0.9527 0.4815 0.0
C447 C 0.95709 0.90484 0.48469 0.0
C448 C 0.99185 0.98022 0.47685 0.0
C449 C 1.00058 0.88496 0.48262 0.0
C450 C 0.03932 0.9122 0.47891 0.0
C451 C 0.07429 0.98776 0.47372 0.0
C452 C 0.07027 0.03572 0.47108 0.0
C453 C 0.03542 0.95993 0.47631 0.0
C454 C 0.0265 0.0551 0.46988 0.0
C455 C 0.9878 0.02777 0.47305 0.0
H456 H 0.20429 0.27019 0.17306 0.0
H457 H 0.31092 0.34903 0.2586 0.0
H458 H 0.29625 0.30927 0.33753 0.0
H459 H 0.25223 0.2538 0.38175 0.0
H460 H 0.14564 0.17507 0.29622 0.0
H461 H 0.16261 0.21232 0.21619 0.0
C462 C 0.2242 0.27916 0.20902 0.0
C463 C 0.25822 0.31321 0.21026 0.0
C464 C 0.21616 0.25564 0.25355 0.0
C465 C 0.28418 0.32349 0.2569 0.0
C466 C 0.276 0.30054 0.30178 0.0
C467 C 0.23276 0.24451 0.34554 0.0
C468 C 0.19734 0.21206 0.3449 0.0
C469 C 0.24203 0.26671 0.30044 0.0
C470 C 0.17302 0.19987 0.29759 0.0
C471 C 0.18246 0.22148 0.25211 0.0
H472 H 0.7729 0.22798 0.81386 0.0
H473 H 0.66702 0.13677 0.85362 0.0
H474 H 0.62479 0.14955 0.77155 0.0
H475 H 0.61372 0.19353 0.69368 0.0
H476 H 0.71868 0.28643 0.65425 0.0
H477 H 0.76522 0.26637 0.73044 0.0
C478 C 0.74144 0.20967 0.80337 0.0
C479 C 0.72345 0.18069 0.83898 0.0
C480 C 0.71654 0.21846 0.75675 0.0
C481 C 0.68185 0.15844 0.82612 0.0
C482 C 0.65745 0.16621 0.77953 0.0
C483 C 0.64691 0.20916 0.70147 0.0
C484 C 0.66221 0.24198 0.66851 0.0
C485 C 0.6737 0.19733 0.7454 0.0
C486 C 0.70569 0.26135 0.67901 0.0
C487 C 0.73248 0.24984 0.72267 0.0
H488 H 0.83879 0.66136 0.33328 0.0
H489 H 0.83765 0.80387 0.30105 0.0
H490 H 0.81854 0.78232 0.2076 0.0
H491 H 0.79696 0.72226 0.13642 0.0
H492 H 0.80292 0.57978 0.17055 0.0
H493 H 0.82561 0.60198 0.26158 0.0
C494 C 0.83484 0.68769 0.30562 0.0
C495 C 0.83923 0.73409 0.32388 0.0
C496 C 0.82451 0.67498 0.2523 0.0
C497 C 0.8346 0.76789 0.28772 0.0
C498 C 0.82341 0.75554 0.23444 0.0
C499 C 0.80371 0.6961 0.16368 0.0
C500 C 0.79779 0.64934 0.14646 0.0
C501 C 0.81748 0.70911 0.21641 0.0
C502 C 0.8071 0.61595 0.18235 0.0
C503 C 0.81997 0.6286 0.23466 0.0
H504 H 0.3215 0.90536 0.92139 0.0
H505 H 0.23559 0.78883 0.94049 0.0
H506 H 0.2637 0.75008 0.85984 0.0
H507 H 0.30798 0.75226 0.77908 0.0
H508 H 0.3922 0.86968 0.76009 0.0
H509 H 0.37045 0.90457 0.84564 0.0
C510 C 0.30906 0.87138 0.90813 0.0
C511 C 0.27597 0.85042 0.93674 0.0
C512 C 0.32552 0.84917 0.86175 0.0
C513 C 0.2608 0.80603 0.91919 0.0
C514 C 0.27692 0.78375 0.87299 0.0
C515 C 0.32262 0.78472 0.79473 0.0
C516 C 0.35234 0.80808 0.7641 0.0
C517 C 0.30879 0.80525 0.84343 0.0
C518 C 0.36998 0.85083 0.78367 0.0
C519 C 0.35714 0.87099 0.83226 0.0
H520 H 0.81749 0.66586 0.86431 0.0
H521 H 0.74851 0.7945 0.89446 0.0
H522 H 0.78217 0.82451 0.81763 0.0
H523 H 0.82237 0.80992 0.73462 0.0
H524 H 0.88852 0.67959 0.70271 0.0
H525 H 0.86526 0.65464 0.78686 0.0
C526 C 0.81131 0.701 0.855 0.0
C527 C 0.78142 0.72834 0.88548 0.0
C528 C 0.82952 0.71737 0.80955 0.0
C529 C 0.77224 0.77326 0.87212 0.0
C530 C 0.79109 0.79021 0.82782 0.0
C531 C 0.83265 0.77653 0.74668 0.0
C532 C 0.85667 0.7465 0.71186 0.0
C533 C 0.81851 0.76201 0.7951 0.0
C534 C 0.86936 0.70315 0.72817 0.0
C535 C 0.85614 0.68883 0.77644 0.0
H536 H 0.33801 0.73096 0.34892 0.0
H537 H 0.37549 0.87017 0.40134 0.0
H538 H 0.346 0.89678 0.31858 0.0
H539 H 0.29973 0.88235 0.23675 0.0
H540 H 0.26481 0.74372 0.18128 0.0
H541 H 0.304 0.71492 0.25879 0.0
C542 C 0.34085 0.76691 0.34175 0.0
C543 C 0.35765 0.79863 0.38233 0.0
C544 C 0.32406 0.78219 0.29343 0.0
C545 C 0.36125 0.8451 0.37183 0.0
C546 C 0.3446 0.86044 0.32427 0.0
C547 C 0.30213 0.84573 0.2409 0.0
C548 C 0.27972 0.81515 0.20351 0.0
C549 C 0.32441 0.82959 0.28564 0.0
C550 C 0.28235 0.76783 0.20933 0.0
C551 C 0.30437 0.75143 0.25397 0.0
H552 H 0.16041 0.27719 0.71229 0.0
H553 H 0.23355 0.14901 0.69435 0.0
H554 H 0.28417 0.17376 0.76877 0.0
H555 H 0.30875 0.23228 0.83773 0.0
H556 H 0.23691 0.36105 0.85441 0.0
H557 H 0.18689 0.33686 0.77886 0.0
C558 C 0.18753 0.25467 0.72443 0.0
C559 C 0.19282 0.21116 0.69779 0.0
C560 C 0.21775 0.26982 0.76582 0.0
C561 C 0.22777 0.18221 0.71478 0.0
C562 C 0.25735 0.19666 0.75677 0.0
C563 C 0.28242 0.25521 0.8244 0.0
C564 C 0.27657 0.29835 0.85151 0.0
C565 C 0.25291 0.24053 0.78216 0.0
C566 C 0.24264 0.32796 0.83365 0.0
C567 C 0.21351 0.31383 0.79107 0.0
H568 H 0.72443 0.16674 0.23133 0.0
H569 H 0.80917 0.2868 0.22761 0.0
H570 H 0.78376 0.31539 0.31372 0.0
H571 H 0.73157 0.31077 0.38531 0.0
H572 H 0.64738 0.19133 0.39235 0.0
H573 H 0.67907 0.15739 0.31027 0.0
C574 C 0.73809 0.19864 0.24988 0.0
C575 C 0.76803 0.22504 0.22235 0.0
C576 C 0.72322 0.21508 0.29982 0.0
C577 C 0.78529 0.26633 0.24715 0.0
C578 C 0.7709 0.28268 0.29654 0.0
C579 C 0.72078 0.2769 0.36927 0.0
C580 C 0.68708 0.25359 0.39429 0.0
C581 C 0.7389 0.25807 0.32241 0.0
C582 C 0.67349 0.20969 0.3737 0.0
C583 C 0.69137 0.19056 0.32663 0.0
loop_
_geom_bond_atom_site_label_1
_geom_bond_atom_site_label_2
_geom_bond_distance
_geom_bond_site_symmetry_2
_ccdc_geom_bond_type
C0 C1 1.351 . S
C0 N3 1.368 . S
C0 H5 0.931 . S
C1 C0 1.351 . S
C1 N2 1.373 . S
C1 H29 0.930 . S
N2 C1 1.373 . S
N2 C4 1.340 . S
N3 C0 1.368 . S
N3 C4 1.321 . S
N3 Co6 2.135 . S
C4 N2 1.340 . S
C4 N3 1.321 . S
C4 H28 0.930 . S
H5 C0 0.931 . S
Co6 N3 2.135 . S
Co6 N9 2.121 . S
Co6 O14 2.055 . S
Co6 O17 2.039 . S
Co6 N20 2.140 . S
C7 O8 1.227 . S
C7 O17 1.265 . S
O8 C7 1.227 . S
N9 Co6 2.121 . S
N9 C11 1.375 . S
N9 C12 1.313 . S
C10 C11 1.338 . S
C10 N13 1.377 . S
C10 H30 0.930 . S
C11 N9 1.375 . S
C11 C10 1.338 . S
C11 H15 0.931 . S
C12 N9 1.313 . S
C12 N13 1.344 . S
C12 H16 0.930 . S
N13 C10 1.377 . S
N13 C12 1.344 . S
O14 Co6 2.055 . S
O14 C18 1.253 . S
H15 C11 0.931 . S
H16 C12 0.930 . S
O17 Co6 2.039 . S
O17 C7 1.265 . S
C18 O14 1.253 . S
C18 O19 1.227 . S
O19 C18 1.227 . S
N20 Co6 2.140 . S
N20 C23 1.346 1_554 S
N20 C24 1.345 1_554 S
C21 C22 1.387 . S
C21 C25 1.391 . S
C22 C21 1.387 . S
C22 C23 1.369 . S
C22 H31 0.929 . S
C23 N20 1.346 1_556 S
C23 C22 1.369 . S
C23 H26 0.928 . S
C24 N20 1.345 1_556 S
C24 C25 1.371 . S
C24 H27 0.931 1_556 S
C25 C21 1.391 . S
C25 C24 1.371 . S
C25 H32 0.930 . S
H26 C23 0.928 . S
H27 C24 0.931 1_554 S
H28 C4 0.930 . S
H29 C1 0.930 . S
H30 C10 0.930 . S
H31 C22 0.929 . S
H32 C25 0.930 . S
C33 C34 1.351 . S
C33 N36 1.368 . S
C33 H38 0.931 . S
C34 C33 1.351 . S
C34 N35 1.373 . S
C34 H62 0.930 . S
N35 C34 1.373 . S
N35 C37 1.340 . S
N36 C33 1.368 . S
N36 C37 1.321 . S
N36 Co39 2.135 . S
C37 N35 1.340 . S
C37 N36 1.321 . S
C37 H61 0.930 . S
H38 C33 0.931 . S
Co39 N36 2.135 . S
Co39 N42 2.121 . S
Co39 O47 2.055 . S
Co39 O50 2.039 . S
Co39 N53 2.140 . S
C40 O41 1.227 . S
C40 O50 1.265 . S
O41 C40 1.227 . S
N42 Co39 2.121 . S
N42 C44 1.375 . S
N42 C45 1.313 . S
C43 C44 1.338 . S
C43 N46 1.377 . S
C43 H63 0.930 . S
C44 N42 1.375 . S
C44 C43 1.338 . S
C44 H48 0.931 . S
C45 N42 1.313 . S
C45 N46 1.344 . S
C45 H49 0.930 . S
N46 C43 1.377 . S
N46 C45 1.344 . S
O47 Co39 2.055 . S
O47 C51 1.253 . S
H48 C44 0.931 . S
H49 C45 0.930 . S
O50 Co39 2.039 . S
O50 C40 1.265 . S
C51 O47 1.253 . S
C51 O52 1.227 . S
O52 C51 1.227 . S
N53 Co39 2.140 . S
N53 C56 1.346 . S
N53 C57 1.345 . S
C54 C55 1.387 . S
C54 C58 1.391 . S
C55 C54 1.387 . S
C55 C56 1.369 . S
C55 H64 0.929 . S
C56 N53 1.346 . S
C56 C55 1.369 . S
C56 H59 0.928 . S
C57 N53 1.345 . S
C57 C58 1.371 . S
C57 H60 0.931 . S
C58 C54 1.391 . S
C58 C57 1.371 . S
C58 H65 0.930 . S
H59 C56 0.928 . S
H60 C57 0.931 . S
H61 C37 0.930 . S
H62 C34 0.930 . S
H63 C43 0.930 . S
H64 C55 0.929 . S
H65 C58 0.930 . S
C66 C67 1.351 . S
C66 N69 1.368 1_556 S
C66 H71 0.931 . S
C67 C66 1.351 . S
C67 N68 1.373 1_556 S
C67 H95 0.930 . S
N68 C67 1.373 1_554 S
N68 C70 1.340 . S
N69 C66 1.368 1_554 S
N69 C70 1.321 . S
N69 Co72 2.135 . S
C70 N68 1.340 . S
C70 N69 1.321 . S
C70 H94 0.930 . S
H71 C66 0.931 . S
Co72 N69 2.135 . S
Co72 N75 2.121 . S
Co72 O80 2.055 1_554 S
Co72 O83 2.039 . S
Co72 N86 2.140 . S
C73 O74 1.227 . S
C73 O83 1.265 . S
O74 C73 1.227 . S
N75 Co72 2.121 . S
N75 C77 1.375 . S
N75 C78 1.313 . S
C76 C77 1.338 . S
C76 N79 1.377 . S
C76 H96 0.930 . S
C77 N75 1.375 . S
C77 C76 1.338 . S
C77 H81 0.931 . S
C78 N75 1.313 . S
C78 N79 1.344 . S
C78 H82 0.930 1_554 S
N79 C76 1.377 . S
N79 C78 1.344 . S
O80 Co72 2.055 1_556 S
O80 C84 1.253 . S
H81 C77 0.931 . S
H82 C78 0.930 1_556 S
O83 Co72 2.039 . S
O83 C73 1.265 . S
C84 O80 1.253 . S
C84 O85 1.227 . S
O85 C84 1.227 . S
N86 Co72 2.140 . S
N86 C89 1.346 . S
N86 C90 1.354 . S
C87 C88 1.387 . S
C87 C91 1.391 . S
C88 C87 1.387 . S
C88 C89 1.369 . S
C88 H97 0.929 . S
C89 N86 1.346 . S
C89 C88 1.369 . S
C89 H92 0.928 . S
C90 N86 1.354 . S
C90 C91 1.372 . S
C90 H93 0.920 1_554 S
C91 C87 1.391 . S
C91 C90 1.372 . S
C91 H98 0.930 1_554 S
H92 C89 0.928 . S
H93 C90 0.920 1_556 S
H94 C70 0.930 . S
H95 C67 0.930 . S
H96 C76 0.930 . S
H97 C88 0.929 . S
H98 C91 0.930 1_556 S
C99 C100 1.351 . S
C99 N102 1.368 . S
C99 H104 0.931 . S
C100 C99 1.351 . S
C100 N101 1.373 . S
C100 H128 0.930 . S
N101 C100 1.373 . S
N101 C103 1.340 . S
N102 C99 1.368 . S
N102 C103 1.321 . S
N102 Co105 2.135 . S
C103 N101 1.340 . S
C103 N102 1.321 . S
C103 H127 0.930 . S
H104 C99 0.931 . S
Co105 N102 2.135 . S
Co105 N108 2.121 . S
Co105 O113 2.055 . S
Co105 O116 2.039 . S
Co105 N119 2.140 . S
C106 O107 1.227 . S
C106 O116 1.265 . S
O107 C106 1.227 . S
N108 Co105 2.121 . S
N108 C110 1.375 . S
N108 C111 1.313 . S
C109 C110 1.338 . S
C109 N112 1.377 . S
C109 H129 0.930 . S
C110 N108 1.375 . S
C110 C109 1.338 . S
C110 H114 0.931 . S
C111 N108 1.313 . S
C111 N112 1.344 . S
C111 H115 0.930 . S
N112 C109 1.377 . S
N112 C111 1.344 . S
O113 Co105 2.055 . S
O113 C117 1.253 . S
H114 C110 0.931 . S
H115 C111 0.930 . S
O116 Co105 2.039 . S
O116 C106 1.265 . S
C117 O113 1.253 . S
C117 O118 1.227 . S
O118 C117 1.227 . S
N119 Co105 2.140 . S
N119 C122 1.346 . S
N119 C123 1.345 . S
C120 C121 1.387 . S
C120 C124 1.391 . S
C121 C120 1.387 . S
C121 C122 1.369 . S
C121 H130 0.929 . S
C122 N119 1.346 . S
C122 C121 1.369 . S
C122 H125 0.928 . S
C123 N119 1.345 . S
C123 C124 1.371 . S
C123 H126 0.931 . S
C124 C120 1.391 . S
C124 C123 1.371 . S
C124 H131 0.930 . S
H125 C122 0.928 . S
H126 C123 0.931 . S
H127 C103 0.930 . S
H128 C100 0.930 . S
H129 C109 0.930 . S
H130 C121 0.929 . S
H131 C124 0.930 . S
C132 C133 1.351 . S
C132 N135 1.368 1_565 S
C132 H137 0.931 1_565 S
C133 C132 1.351 . S
C133 N134 1.373 . S
C133 H161 0.930 . S
N134 C133 1.373 . S
N134 C136 1.340 . S
N135 C132 1.368 1_545 S
N135 C136 1.321 1_545 S
N135 Co138 2.135 . S
C136 N134 1.340 . S
C136 N135 1.321 1_565 S
C136 H160 0.930 . S
H137 C132 0.931 1_545 S
Co138 N135 2.135 . S
Co138 N141 2.121 . S
Co138 O146 2.055 . S
Co138 O149 2.039 . S
Co138 N152 2.140 1_556 S
C139 O140 1.227 . S
C139 O149 1.265 1_554 S
O140 C139 1.227 . S
N141 Co138 2.121 . S
N141 C143 1.375 1_556 S
N141 C144 1.313 . S
C142 C143 1.338 . S
C142 N145 1.377 1_554 S
C142 H162 0.930 . S
C143 N141 1.375 1_554 S
C143 C142 1.338 . S
C143 H147 0.931 . S
C144 N141 1.313 . S
C144 N145 1.344 . S
C144 H148 0.930 . S
N145 C142 1.377 1_556 S
N145 C144 1.344 . S
O146 Co138 2.055 . S
O146 C150 1.253 . S
H147 C143 0.931 . S
H148 C144 0.930 . S
O149 Co138 2.039 . S
O149 C139 1.265 1_556 S
C150 O146 1.253 . S
C150 O151 1.227 . S
O151 C150 1.227 . S
N152 Co138 2.140 1_554 S
N152 C155 1.346 . S
N152 C156 1.345 . S
C153 C154 1.387 . S
C153 C157 1.391 . S
C154 C153 1.387 . S
C154 C155 1.369 . S
C154 H163 0.929 . S
C155 N152 1.346 . S
C155 C154 1.369 . S
C155 H158 0.928 . S
C156 N152 1.345 . S
C156 C157 1.371 . S
C156 H159 0.931 . S
C157 C153 1.391 . S
C157 C156 1.371 . S
C157 H164 0.930 . S
H158 C155 0.928 . S
H159 C156 0.931 . S
H160 C136 0.930 . S
H161 C133 0.930 . S
H162 C142 0.930 . S
H163 C154 0.929 . S
H164 C157 0.930 . S
C165 C166 1.351 . S
C165 N168 1.368 1_455 S
C165 H170 0.931 1_455 S
C166 C165 1.351 . S
C166 N167 1.373 . S
C166 H194 0.930 . S
N167 C166 1.373 . S
N167 C169 1.340 . S
N168 C165 1.368 1_655 S
N168 C169 1.321 1_655 S
N168 Co171 2.135 . S
C169 N167 1.340 . S
C169 N168 1.321 1_455 S
C169 H193 0.930 . S
H170 C165 0.931 1_655 S
Co171 N168 2.135 . S
Co171 N174 2.121 . S
Co171 O179 2.055 . S
Co171 O182 2.039 . S
Co171 N185 2.140 . S
C172 O173 1.227 . S
C172 O182 1.265 . S
O173 C172 1.227 . S
N174 Co171 2.121 . S
N174 C176 1.375 . S
N174 C177 1.313 . S
C175 C176 1.338 . S
C175 N178 1.377 . S
C175 H195 0.930 . S
C176 N174 1.375 . S
C176 C175 1.338 . S
C176 H180 0.931 . S
C177 N174 1.313 . S
C177 N178 1.344 . S
C177 H181 0.930 . S
N178 C175 1.377 . S
N178 C177 1.344 . S
O179 Co171 2.055 . S
O179 C183 1.253 . S
H180 C176 0.931 . S
H181 C177 0.930 . S
O182 Co171 2.039 . S
O182 C172 1.265 . S
C183 O179 1.253 . S
C183 O184 1.227 . S
O184 C183 1.227 . S
N185 Co171 2.140 . S
N185 C188 1.346 . S
N185 C189 1.345 . S
C186 C187 1.387 . S
C186 C190 1.391 . S
C187 C186 1.387 . S
C187 C188 1.369 . S
C187 H196 0.929 . S
C188 N185 1.346 . S
C188 C187 1.369 . S
C188 H191 0.928 . S
C189 N185 1.345 . S
C189 C190 1.371 . S
C189 H192 0.931 . S
C190 C186 1.391 . S
C190 C189 1.371 . S
C190 H197 0.930 . S
H191 C188 0.928 . S
H192 C189 0.931 . S
H193 C169 0.930 . S
H194 C166 0.930 . S
H195 C175 0.930 . S
H196 C187 0.929 . S
H197 C190 0.930 . S
C198 C199 1.351 . S
C198 N201 1.368 1_545 S
C198 H203 0.931 . S
C199 C198 1.351 . S
C199 N200 1.373 . S
C199 H227 0.930 . S
N200 C199 1.373 . S
N200 C202 1.340 . S
N201 C198 1.368 1_565 S
N201 C202 1.321 1_565 S
N201 Co204 2.135 . S
C202 N200 1.340 . S
C202 N201 1.321 1_545 S
C202 H226 0.930 1_554 S
H203 C198 0.931 . S
Co204 N201 2.135 . S
Co204 N207 2.121 . S
Co204 O212 2.055 . S
Co204 O215 2.039 1_554 S
Co204 N218 2.140 . S
C205 O206 1.227 . S
C205 O215 1.265 . S
O206 C205 1.227 . S
N207 Co204 2.121 . S
N207 C209 1.375 1_554 S
N207 C210 1.313 . S
C208 C209 1.338 . S
C208 N211 1.377 1_556 S
C208 H228 0.930 . S
C209 N207 1.375 1_556 S
C209 C208 1.338 . S
C209 H213 0.931 . S
C210 N207 1.313 . S
C210 N211 1.344 . S
C210 H214 0.930 . S
N211 C208 1.377 1_554 S
N211 C210 1.344 . S
O212 Co204 2.055 . S
O212 C216 1.253 . S
H213 C209 0.931 . S
H214 C210 0.930 . S
O215 Co204 2.039 1_556 S
O215 C205 1.265 . S
C216 O212 1.253 . S
C216 O217 1.227 . S
O217 C216 1.227 . S
N218 Co204 2.140 . S
N218 C221 1.346 . S
N218 C222 1.345 . S
C219 C220 1.387 . S
C219 C223 1.391 . S
C220 C219 1.387 . S
C220 C221 1.369 . S
C220 H229 0.929 1_564 S
C221 N218 1.346 . S
C221 C220 1.369 . S
C221 H224 0.928 1_554 S
C222 N218 1.345 . S
C222 C223 1.371 . S
C222 H225 0.931 . S
C223 C219 1.391 . S
C223 C222 1.371 . S
C223 H230 0.930 . S
H224 C221 0.928 1_556 S
H225 C222 0.931 . S
H226 C202 0.930 1_556 S
H227 C199 0.930 . S
H228 C208 0.930 . S
H229 C220 0.929 1_546 S
H230 C223 0.930 . S
C231 C232 1.351 . S
C231 N234 1.368 1_655 S
C231 H236 0.931 1_655 S
C232 C231 1.351 . S
C232 N233 1.373 . S
C232 H260 0.930 . S
N233 C232 1.373 . S
N233 C235 1.340 . S
N234 C231 1.368 1_455 S
N234 C235 1.321 1_455 S
N234 Co237 2.135 . S
C235 N233 1.340 . S
C235 N234 1.321 1_655 S
C235 H259 0.930 . S
H236 C231 0.931 1_455 S
Co237 N234 2.135 . S
Co237 N240 2.121 . S
Co237 O245 2.055 . S
Co237 O248 2.039 . S
Co237 N251 2.140 . S
C238 O239 1.227 . S
C238 O248 1.265 . S
O239 C238 1.227 . S
N240 Co237 2.121 . S
N240 C242 1.375 . S
N240 C243 1.313 . S
C241 C242 1.338 . S
C241 N244 1.377 . S
C241 H261 0.930 . S
C242 N240 1.375 . S
C242 C241 1.338 . S
C242 H246 0.931 . S
C243 N240 1.313 . S
C243 N244 1.344 . S
C243 H247 0.930 . S
N244 C241 1.377 . S
N244 C243 1.344 . S
O245 Co237 2.055 . S
O245 C249 1.253 . S
H246 C242 0.931 . S
H247 C243 0.930 . S
O248 Co237 2.039 . S
O248 C238 1.265 . S
C249 O245 1.253 . S
C249 O250 1.227 . S
O250 C249 1.227 . S
N251 Co237 2.140 . S
N251 C254 1.346 . S
N251 C255 1.345 . S
C252 C253 1.387 . S
C252 C256 1.391 . S
C253 C252 1.387 . S
C253 C254 1.369 . S
C253 H262 0.929 . S
C254 N251 1.346 . S
C254 C253 1.369 . S
C254 H257 0.928 . S
C255 N251 1.345 . S
C255 C256 1.371 . S
C255 H258 0.931 . S
C256 C252 1.391 . S
C256 C255 1.371 . S
C256 H263 0.930 . S
H257 C254 0.928 . S
H258 C255 0.931 . S
H259 C235 0.930 . S
H260 C232 0.930 . S
H261 C241 0.930 . S
H262 C253 0.929 . S
H263 C256 0.930 . S
H264 C270 0.930 . S
H265 C273 0.930 . S
H266 C274 0.930 1_556 S
H267 C275 0.930 . S
H268 C278 0.930 . S
H269 C279 0.930 . S
C270 H264 0.930 . S
C270 C271 1.355 . S
C270 C272 1.415 . S
C271 C270 1.355 . S
C271 C273 1.419 1_554 S
C272 C270 1.415 . S
C272 C277 1.425 . S
C272 C279 1.409 . S
C273 H265 0.930 . S
C273 C271 1.419 1_556 S
C273 C274 1.362 1_556 S
C274 H266 0.930 1_554 S
C274 C273 1.362 1_554 S
C274 C277 1.409 . S
C275 H267 0.930 . S
C275 C276 1.355 . S
C275 C277 1.415 . S
C276 C275 1.355 . S
C276 C278 1.419 . S
C277 C272 1.425 . S
C277 C274 1.409 . S
C277 C275 1.415 . S
C278 H268 0.930 . S
C278 C276 1.419 . S
C278 C279 1.362 . S
C279 H269 0.930 . S
C279 C272 1.409 . S
C279 C278 1.362 . S
H280 C286 0.930 . S
H281 C289 0.930 . S
H282 C290 0.930 . S
H283 C291 0.930 . S
H284 C294 0.930 . S
H285 C295 0.930 . S
C286 H280 0.930 . S
C286 C287 1.355 . S
C286 C288 1.415 . S
C287 C286 1.355 . S
C287 C289 1.419 . S
C288 C286 1.415 . S
C288 C293 1.425 . S
C288 C295 1.409 . S
C289 H281 0.930 . S
C289 C287 1.419 . S
C289 C290 1.362 . S
C290 H282 0.930 . S
C290 C289 1.362 . S
C290 C293 1.409 . S
C291 H283 0.930 . S
C291 C292 1.355 . S
C291 C293 1.415 . S
C292 C291 1.355 . S
C292 C294 1.419 . S
C293 C288 1.425 . S
C293 C290 1.409 . S
C293 C291 1.415 . S
C294 H284 0.930 . S
C294 C292 1.419 . S
C294 C295 1.362 . S
C295 H285 0.930 . S
C295 C288 1.409 . S
C295 C294 1.362 . S
H296 C302 0.930 . S
H297 C305 0.930 . S
H298 C306 0.930 . S
H299 C307 0.930 . S
H300 C310 0.930 . S
H301 C311 0.930 . S
C302 H296 0.930 . S
C302 C303 1.355 1_554 S
C302 C304 1.415 . S
C303 C302 1.355 1_556 S
C303 C305 1.419 . S
C304 C302 1.415 . S
C304 C309 1.425 1_554 S
C304 C311 1.409 . S
C305 H297 0.930 . S
C305 C303 1.419 . S
C305 C306 1.362 . S
C306 H298 0.930 . S
C306 C305 1.362 . S
C306 C309 1.409 . S
C307 H299 0.930 . S
C307 C308 1.355 1_556 S
C307 C309 1.415 . S
C308 C307 1.355 1_554 S
C308 C310 1.419 . S
C309 C304 1.425 1_556 S
C309 C306 1.409 . S
C309 C307 1.415 . S
C310 H300 0.930 . S
C310 C308 1.419 . S
C310 C311 1.362 . S
C311 H301 0.930 . S
C311 C304 1.409 . S
C311 C310 1.362 . S
H312 C318 0.930 . S
H313 C321 0.930 . S
H314 C322 0.930 . S
H315 C323 0.930 . S
H316 C326 0.930 . S
H317 C327 0.930 . S
C318 H312 0.930 . S
C318 C319 1.355 . S
C318 C320 1.415 . S
C319 C318 1.355 . S
C319 C321 1.419 . S
C320 C318 1.415 . S
C320 C325 1.425 . S
C320 C327 1.409 . S
C321 H313 0.930 . S
C321 C319 1.419 . S
C321 C322 1.362 . S
C322 H314 0.930 . S
C322 C321 1.362 . S
C322 C325 1.409 . S
C323 H315 0.930 . S
C323 C324 1.355 . S
C323 C325 1.415 . S
C324 C323 1.355 . S
C324 C326 1.419 . S
C325 C320 1.425 . S
C325 C322 1.409 . S
C325 C323 1.415 . S
C326 H316 0.930 . S
C326 C324 1.419 . S
C326 C327 1.362 . S
C327 H317 0.930 . S
C327 C320 1.409 . S
C327 C326 1.362 . S
H328 C334 0.930 1_556 S
H329 C337 0.930 . S
H330 C338 0.930 . S
H331 C339 0.932 . S
H332 C342 0.930 . S
H333 C343 0.930 . S
C334 H328 0.930 1_554 S
C334 C335 1.355 . S
C334 C336 1.415 1_554 S
C335 C334 1.355 . S
C335 C337 1.419 . S
C336 C334 1.415 1_556 S
C336 C341 1.425 1_556 S
C336 C343 1.409 . S
C337 H329 0.930 . S
C337 C335 1.419 . S
C337 C338 1.362 . S
C338 H330 0.930 . S
C338 C337 1.362 . S
C338 C341 1.409 . S
C339 H331 0.932 . S
C339 C340 1.352 1_554 S
C339 C341 1.415 . S
C340 C339 1.352 1_556 S
C340 C342 1.419 . S
C341 C336 1.425 1_554 S
C341 C338 1.409 . S
C341 C339 1.415 . S
C342 H332 0.930 . S
C342 C340 1.419 . S
C342 C343 1.362 . S
C343 H333 0.930 . S
C343 C336 1.409 . S
C343 C342 1.362 . S
H344 C350 0.930 . S
H345 C353 0.930 . S
H346 C354 0.930 . S
H347 C355 0.930 . S
H348 C358 0.930 . S
H349 C359 0.930 . S
C350 H344 0.930 . S
C350 C351 1.355 . S
C350 C352 1.415 . S
C351 C350 1.355 . S
C351 C353 1.419 . S
C352 C350 1.415 . S
C352 C357 1.425 . S
C352 C359 1.409 . S
C353 H345 0.930 . S
C353 C351 1.419 . S
C353 C354 1.362 . S
C354 H346 0.930 . S
C354 C353 1.362 . S
C354 C357 1.409 . S
C355 H347 0.930 . S
C355 C356 1.355 . S
C355 C357 1.415 . S
C356 C355 1.355 . S
C356 C358 1.419 . S
C357 C352 1.425 . S
C357 C354 1.409 . S
C357 C355 1.415 . S
C358 H348 0.930 . S
C358 C356 1.419 . S
C358 C359 1.362 . S
C359 H349 0.930 . S
C359 C352 1.409 . S
C359 C358 1.362 . S
H360 C366 0.930 . S
H361 C369 0.930 1_556 S
H362 C370 0.930 1_556 S
H363 C371 0.930 1_556 S
H364 C374 0.930 . S
H365 C375 0.930 . S
C366 H360 0.930 . S
C366 C367 1.355 . S
C366 C368 1.415 . S
C367 C366 1.355 . S
C367 C369 1.419 . S
C368 C366 1.415 . S
C368 C373 1.425 . S
C368 C375 1.409 . S
C369 H361 0.930 1_554 S
C369 C367 1.419 . S
C369 C370 1.362 . S
C370 H362 0.930 1_554 S
C370 C369 1.362 . S
C370 C373 1.409 . S
C371 H363 0.930 1_554 S
C371 C372 1.355 . S
C371 C373 1.415 . S
C372 C371 1.355 . S
C372 C374 1.419 . S
C373 C368 1.425 . S
C373 C370 1.409 . S
C373 C371 1.415 . S
C374 H364 0.930 . S
C374 C372 1.419 . S
C374 C375 1.362 . S
C375 H365 0.930 . S
C375 C368 1.409 . S
C375 C374 1.362 . S
H376 C382 0.930 . S
H377 C385 0.930 . S
H378 C386 0.930 . S
H379 C387 0.930 . S
H380 C390 0.930 . S
H381 C391 0.930 . S
C382 H376 0.930 . S
C382 C383 1.355 . S
C382 C384 1.415 . S
C383 C382 1.355 . S
C383 C385 1.419 . S
C384 C382 1.415 . S
C384 C389 1.425 . S
C384 C391 1.409 . S
C385 H377 0.930 . S
C385 C383 1.419 . S
C385 C386 1.362 . S
C386 H378 0.930 . S
C386 C385 1.362 . S
C386 C389 1.409 . S
C387 H379 0.930 . S
C387 C388 1.355 . S
C387 C389 1.415 . S
C388 C387 1.355 . S
C388 C390 1.419 . S
C389 C384 1.425 . S
C389 C386 1.409 . S
C389 C387 1.415 . S
C390 H380 0.930 . S
C390 C388 1.419 . S
C390 C391 1.362 . S
C391 H381 0.930 . S
C391 C384 1.409 . S
C391 C390 1.362 . S
H392 C398 0.930 . S
H393 C401 0.930 . S
H394 C402 0.930 . S
H395 C403 0.931 . S
H396 C406 0.930 . S
H397 C407 0.930 . S
C398 H392 0.930 . S
C398 C399 1.355 . S
C398 C400 1.415 . S
C399 C398 1.355 . S
C399 C401 1.419 1_554 S
C400 C398 1.415 . S
C400 C405 1.425 . S
C400 C407 1.409 . S
C401 H393 0.930 . S
C401 C399 1.419 1_556 S
C401 C402 1.362 . S
C402 H394 0.930 . S
C402 C401 1.362 . S
C402 C405 1.409 1_556 S
C403 H395 0.931 . S
C403 C404 1.355 . S
C403 C405 1.415 . S
C404 C403 1.355 . S
C404 C406 1.419 . S
C405 C400 1.425 . S
C405 C402 1.409 1_554 S
C405 C403 1.415 . S
C406 H396 0.930 . S
C406 C404 1.419 . S
C406 C407 1.362 . S
C407 H397 0.930 . S
C407 C400 1.409 . S
C407 C406 1.362 . S
H408 C414 0.930 . S
H409 C417 0.930 . S
H410 C418 0.930 . S
H411 C419 0.930 . S
H412 C422 0.930 . S
H413 C423 0.930 . S
C414 H408 0.930 . S
C414 C415 1.355 . S
C414 C416 1.415 . S
C415 C414 1.355 . S
C415 C417 1.419 . S
C416 C414 1.415 . S
C416 C421 1.425 . S
C416 C423 1.409 . S
C417 H409 0.930 . S
C417 C415 1.419 . S
C417 C418 1.362 . S
C418 H410 0.930 . S
C418 C417 1.362 . S
C418 C421 1.409 . S
C419 H411 0.930 . S
C419 C420 1.355 . S
C419 C421 1.415 . S
C420 C419 1.355 . S
C420 C422 1.419 . S
C421 C416 1.425 . S
C421 C418 1.409 . S
C421 C419 1.415 . S
C422 H412 0.930 . S
C422 C420 1.419 . S
C422 C423 1.362 . S
C423 H413 0.930 . S
C423 C416 1.409 . S
C423 C422 1.362 . S
H424 C430 0.930 . S
H425 C433 0.930 . S
H426 C434 0.930 . S
H427 C435 0.930 1_565 S
H428 C438 0.930 . S
H429 C439 0.930 . S
C430 H424 0.930 . S
C430 C431 1.355 1_546 S
C430 C432 1.416 1_455 S
C431 C430 1.355 1_564 S
C431 C433 1.419 . S
C432 C430 1.416 1_655 S
C432 C437 1.410 1_546 S
C432 C439 1.422 . S
C433 H425 0.930 . S
C433 C431 1.419 . S
C433 C434 1.362 1_455 S
C434 H426 0.930 . S
C434 C433 1.362 1_655 S
C434 C437 1.409 . S
C435 H427 0.930 1_545 S
C435 C436 1.355 . S
C435 C437 1.415 1_545 S
C436 C435 1.355 . S
C436 C438 1.419 1_554 S
C437 C432 1.410 1_564 S
C437 C434 1.409 . S
C437 C435 1.415 1_565 S
C438 H428 0.930 . S
C438 C436 1.419 1_556 S
C438 C439 1.362 . S
C439 H429 0.930 . S
C439 C432 1.422 . S
C439 C438 1.362 . S
H440 C446 0.930 . S
H441 C449 0.930 . S
H442 C450 0.930 . S
H443 C451 0.930 . S
H444 C454 0.930 . S
H445 C455 0.930 . S
C446 H440 0.930 . S
C446 C447 1.355 . S
C446 C448 1.415 . S
C447 C446 1.355 . S
C447 C449 1.419 1_655 S
C448 C446 1.415 . S
C448 C453 1.425 1_655 S
C448 C455 1.409 1_565 S
C449 H441 0.930 . S
C449 C447 1.419 1_455 S
C449 C450 1.362 . S
C450 H442 0.930 . S
C450 C449 1.362 . S
C450 C453 1.409 . S
C451 H443 0.930 . S
C451 C452 1.355 . S
C451 C453 1.415 1_545 S
C452 C451 1.355 . S
C452 C454 1.419 1_455 S
C453 C448 1.425 1_455 S
C453 C450 1.409 . S
C453 C451 1.415 1_565 S
C454 H444 0.930 . S
C454 C452 1.419 1_655 S
C454 C455 1.362 . S
C455 H445 0.930 . S
C455 C448 1.409 1_545 S
C455 C454 1.362 . S
H456 C462 0.930 . S
H457 C465 0.930 . S
H458 C466 0.930 . S
H459 C467 0.930 . S
H460 C470 0.930 . S
H461 C471 0.930 . S
C462 H456 0.930 . S
C462 C463 1.355 . S
C462 C464 1.415 . S
C463 C462 1.355 . S
C463 C465 1.419 . S
C464 C462 1.415 . S
C464 C469 1.425 . S
C464 C471 1.409 . S
C465 H457 0.930 . S
C465 C463 1.419 . S
C465 C466 1.362 . S
C466 H458 0.930 . S
C466 C465 1.362 . S
C466 C469 1.409 . S
C467 H459 0.930 . S
C467 C468 1.355 . S
C467 C469 1.415 . S
C468 C467 1.355 . S
C468 C470 1.419 . S
C469 C464 1.425 . S
C469 C466 1.409 . S
C469 C467 1.415 . S
C470 H460 0.930 . S
C470 C468 1.419 . S
C470 C471 1.362 . S
C471 H461 0.930 . S
C471 C464 1.409 . S
C471 C470 1.362 . S
H472 C478 0.930 . S
H473 C481 0.930 . S
H474 C482 0.930 . S
H475 C483 0.930 . S
H476 C486 0.930 . S
H477 C487 0.930 . S
C478 H472 0.930 . S
C478 C479 1.355 . S
C478 C480 1.415 . S
C479 C478 1.355 . S
C479 C481 1.419 . S
C480 C478 1.415 . S
C480 C485 1.425 . S
C480 C487 1.409 . S
C481 H473 0.930 . S
C481 C479 1.419 . S
C481 C482 1.362 . S
C482 H474 0.930 . S
C482 C481 1.362 . S
C482 C485 1.409 . S
C483 H475 0.930 . S
C483 C484 1.355 . S
C483 C485 1.415 . S
C484 C483 1.355 . S
C484 C486 1.419 . S
C485 C480 1.425 . S
C485 C482 1.409 . S
C485 C483 1.415 . S
C486 H476 0.930 . S
C486 C484 1.419 . S
C486 C487 1.362 . S
C487 H477 0.930 . S
C487 C480 1.409 . S
C487 C486 1.362 . S
H488 C494 0.930 . S
H489 C497 0.930 . S
H490 C498 0.930 . S
H491 C499 0.930 . S
H492 C502 0.930 . S
H493 C503 0.930 . S
C494 H488 0.930 . S
C494 C495 1.355 . S
C494 C496 1.415 . S
C495 C494 1.355 . S
C495 C497 1.419 . S
C496 C494 1.415 . S
C496 C501 1.425 . S
C496 C503 1.409 . S
C497 H489 0.930 . S
C497 C495 1.419 . S
C497 C498 1.362 . S
C498 H490 0.930 . S
C498 C497 1.362 . S
C498 C501 1.409 . S
C499 H491 0.930 . S
C499 C500 1.355 . S
C499 C501 1.415 . S
C500 C499 1.355 . S
C500 C502 1.419 . S
C501 C496 1.425 . S
C501 C498 1.409 . S
C501 C499 1.415 . S
C502 H492 0.930 . S
C502 C500 1.419 . S
C502 C503 1.362 . S
C503 H493 0.930 . S
C503 C496 1.409 . S
C503 C502 1.362 . S
H504 C510 0.930 . S
H505 C513 0.930 . S
H506 C514 0.930 . S
H507 C515 0.930 . S
H508 C518 0.930 . S
H509 C519 0.930 . S
C510 H504 0.930 . S
C510 C511 1.355 . S
C510 C512 1.415 . S
C511 C510 1.355 . S
C511 C513 1.419 . S
C512 C510 1.415 . S
C512 C517 1.425 . S
C512 C519 1.409 . S
C513 H505 0.930 . S
C513 C511 1.419 . S
C513 C514 1.362 . S
C514 H506 0.930 . S
C514 C513 1.362 . S
C514 C517 1.409 . S
C515 H507 0.930 . S
C515 C516 1.355 . S
C515 C517 1.415 . S
C516 C515 1.355 . S
C516 C518 1.419 . S
C517 C512 1.425 . S
C517 C514 1.409 . S
C517 C515 1.415 . S
C518 H508 0.930 . S
C518 C516 1.419 . S
C518 C519 1.362 . S
C519 H509 0.930 . S
C519 C512 1.409 . S
C519 C518 1.362 . S
H520 C526 0.930 . S
H521 C529 0.930 . S
H522 C530 0.930 . S
H523 C531 0.930 . S
H524 C534 0.930 . S
H525 C535 0.930 . S
C526 H520 0.930 . S
C526 C527 1.355 . S
C526 C528 1.415 . S
C527 C526 1.355 . S
C527 C529 1.419 . S
C528 C526 1.415 . S
C528 C533 1.425 . S
C528 C535 1.409 . S
C529 H521 0.930 . S
C529 C527 1.419 . S
C529 C530 1.362 . S
C530 H522 0.930 . S
C530 C529 1.362 . S
C530 C533 1.409 . S
C531 H523 0.930 . S
C531 C532 1.355 . S
C531 C533 1.415 . S
C532 C531 1.355 . S
C532 C534 1.419 . S
C533 C528 1.425 . S
C533 C530 1.409 . S
C533 C531 1.415 . S
C534 H524 0.930 . S
C534 C532 1.419 . S
C534 C535 1.362 . S
C535 H525 0.930 . S
C535 C528 1.409 . S
C535 C534 1.362 . S
H536 C542 0.930 . S
H537 C545 0.930 . S
H538 C546 0.930 . S
H539 C547 0.930 . S
H540 C550 0.930 . S
H541 C551 0.930 . S
C542 H536 0.930 . S
C542 C543 1.355 . S
C542 C544 1.415 . S
C543 C542 1.355 . S
C543 C545 1.419 . S
C544 C542 1.415 . S
C544 C549 1.425 . S
C544 C551 1.409 . S
C545 H537 0.930 . S
C545 C543 1.419 . S
C545 C546 1.362 . S
C546 H538 0.930 . S
C546 C545 1.362 . S
C546 C549 1.409 . S
C547 H539 0.930 . S
C547 C548 1.355 . S
C547 C549 1.415 . S
C548 C547 1.355 . S
C548 C550 1.419 . S
C549 C544 1.425 . S
C549 C546 1.409 . S
C549 C547 1.415 . S
C550 H540 0.930 . S
C550 C548 1.419 . S
C550 C551 1.362 . S
C551 H541 0.930 . S
C551 C544 1.409 . S
C551 C550 1.362 . S
H552 C558 0.930 . S
H553 C561 0.930 . S
H554 C562 0.930 . S
H555 C563 0.930 . S
H556 C566 0.930 . S
H557 C567 0.930 . S
C558 H552 0.930 . S
C558 C559 1.355 . S
C558 C560 1.415 . S
C559 C558 1.355 . S
C559 C561 1.419 . S
C560 C558 1.415 . S
C560 C565 1.425 . S
C560 C567 1.409 . S
C561 H553 0.930 . S
C561 C559 1.419 . S
C561 C562 1.362 . S
C562 H554 0.930 . S
C562 C561 1.362 . S
C562 C565 1.409 . S
C563 H555 0.930 . S
C563 C564 1.355 . S
C563 C565 1.415 . S
C564 C563 1.355 . S
C564 C566 1.419 . S
C565 C560 1.425 . S
C565 C562 1.409 . S
C565 C563 1.415 . S
C566 H556 0.930 . S
C566 C564 1.419 . S
C566 C567 1.362 . S
C567 H557 0.930 . S
C567 C560 1.409 . S
C567 C566 1.362 . S
H568 C574 0.930 . S
H569 C577 0.930 . S
H570 C578 0.930 . S
H571 C579 0.930 . S
H572 C582 0.930 . S
H573 C583 0.930 . S
C574 H568 0.930 . S
C574 C575 1.355 . S
C574 C576 1.415 . S
C575 C574 1.355 . S
C575 C577 1.419 . S
C576 C574 1.415 . S
C576 C581 1.425 . S
C576 C583 1.409 . S
C577 H569 0.930 . S
C577 C575 1.419 . S
C577 C578 1.362 . S
C578 H570 0.930 . S
C578 C577 1.362 . S
C578 C581 1.409 . S
C579 H571 0.930 . S
C579 C580 1.355 . S
C579 C581 1.415 . S
C580 C579 1.355 . S
C580 C582 1.419 . S
C581 C576 1.425 . S
C581 C578 1.409 . S
C581 C579 1.415 . S
C582 H572 0.930 . S
C582 C580 1.419 . S
C582 C583 1.362 . S
C583 H573 0.930 . S
C583 C576 1.409 . S
C583 C582 1.362 . S
C271 N200 0.853 . S
C276 N13 0.840 . S
C287 N233 0.866 . S
C292 N46 0.859 . S
C303 N134 0.838 . S
C308 N79 0.819 . S
C319 N167 0.889 . S
C324 N112 0.946 . S
C335 N68 0.835 . S
C340 N145 0.827 . S
C351 N101 0.945 . S
C356 N178 0.835 . S
C367 N2 0.889 . S
C372 N211 0.904 . S
C383 N244 0.796 . S
C388 N35 0.764 . S
C399 C87 2.000 . S
C404 C7 1.992 . S
C415 C54 2.156 . S
C420 C106 2.155 . S
C431 C219 2.050 . S
C436 C139 2.046 . S
C447 C172 2.337 . S
C452 C238 2.324 . S
C463 C18 1.784 . S
C468 C249 1.821 . S
C479 C150 1.957 . S
C484 C40 1.961 . S
C495 C183 1.803 . S
C500 C73 1.778 . S
C511 C205 1.900 . S
C516 C117 1.905 . S
C527 C84 1.535 . S
C532 C186 1.541 . S
C543 C120 1.387 . S
C548 C216 1.375 . S
C559 C252 1.139 . S
C564 C21 1.107 . S
C575 C153 1.329 . S
C580 C51 1.371 . S
