# Generated by pormake.
# Topology uol, (4)-cn, num edge types: 1
# Building blocks:
#     Node 0, Type 0, BuildingBlock: NAWXER_clean_sbu_0, # of connection points: 4
#     Node 1, Type 0, BuildingBlock: NAWXER_clean_sbu_0, # of connection points: 4
#     Node 2, Type 0, BuildingBlock: NAWXER_clean_sbu_0, # of connection points: 4
#     Node 3, Type 0, BuildingBlock: NAWXER_clean_sbu_0, # of connection points: 4
#     Node 4, Type 0, BuildingBlock: NAWXER_clean_sbu_0, # of connection points: 4
#     Node 5, Type 0, BuildingBlock: NAWXER_clean_sbu_0, # of connection points: 4
#     Node 6, Type 0, BuildingBlock: NAWXER_clean_sbu_0, # of connection points: 4
#     Node 7, Type 0, BuildingBlock: NAWXER_clean_sbu_0, # of connection points: 4
#     Node 8, Type 0, BuildingBlock: NAWXER_clean_sbu_0, # of connection points: 4
#     Node 9, Type 0, BuildingBlock: NAWXER_clean_sbu_0, # of connection points: 4
#     Node 10, Type 0, BuildingBlock: NAWXER_clean_sbu_0, # of connection points: 4
#     Node 11, Type 0, BuildingBlock: NAWXER_clean_sbu_0, # of connection points: 4
#     Edge 12, Type (0, 0), BuildingBlock: KIFKEQ_clean_linker_1, # of connection points: 2
#     Edge 13, Type (0, 0), BuildingBlock: KIFKEQ_clean_linker_1, # of connection points: 2
#     Edge 14, Type (0, 0), BuildingBlock: KIFKEQ_clean_linker_1, # of connection points: 2
#     Edge 15, Type (0, 0), BuildingBlock: KIFKEQ_clean_linker_1, # of connection points: 2
#     Edge 16, Type (0, 0), BuildingBlock: KIFKEQ_clean_linker_1, # of connection points: 2
#     Edge 17, Type (0, 0), BuildingBlock: KIFKEQ_clean_linker_1, # of connection points: 2
#     Edge 18, Type (0, 0), BuildingBlock: KIFKEQ_clean_linker_1, # of connection points: 2
#     Edge 19, Type (0, 0), BuildingBlock: KIFKEQ_clean_linker_1, # of connection points: 2
#     Edge 20, Type (0, 0), BuildingBlock: KIFKEQ_clean_linker_1, # of connection points: 2
#     Edge 21, Type (0, 0), BuildingBlock: KIFKEQ_clean_linker_1, # of connection points: 2
#     Edge 22, Type (0, 0), BuildingBlock: KIFKEQ_clean_linker_1, # of connection points: 2
#     Edge 23, Type (0, 0), BuildingBlock: KIFKEQ_clean_linker_1, # of connection points: 2
#     Edge 24, Type (0, 0), BuildingBlock: KIFKEQ_clean_linker_1, # of connection points: 2
#     Edge 25, Type (0, 0), BuildingBlock: KIFKEQ_clean_linker_1, # of connection points: 2
#     Edge 26, Type (0, 0), BuildingBlock: KIFKEQ_clean_linker_1, # of connection points: 2
#     Edge 27, Type (0, 0), BuildingBlock: KIFKEQ_clean_linker_1, # of connection points: 2
#     Edge 28, Type (0, 0), BuildingBlock: KIFKEQ_clean_linker_1, # of connection points: 2
#     Edge 29, Type (0, 0), BuildingBlock: KIFKEQ_clean_linker_1, # of connection points: 2
#     Edge 30, Type (0, 0), BuildingBlock: KIFKEQ_clean_linker_1, # of connection points: 2
#     Edge 31, Type (0, 0), BuildingBlock: KIFKEQ_clean_linker_1, # of connection points: 2
#     Edge 32, Type (0, 0), BuildingBlock: KIFKEQ_clean_linker_1, # of connection points: 2
#     Edge 33, Type (0, 0), BuildingBlock: KIFKEQ_clean_linker_1, # of connection points: 2
#     Edge 34, Type (0, 0), BuildingBlock: KIFKEQ_clean_linker_1, # of connection points: 2
#     Edge 35, Type (0, 0), BuildingBlock: KIFKEQ_clean_linker_1, # of connection points: 2
# Relax obj value: 0.141
# Max RMSD: 0.284
# Mean RMSD: 0.284
data_MOF--net-uol--node1-NAWXER_clean_sbu_0--edge1-KIFKEQ_clean_linker_1
_symmetry_space_group_name_H-M    P1
_symmetry_Int_Tables_number       1
_symmetry_cell_setting            triclinic
loop_
_symmetry_equiv_pos_as_xyz
'x, y, z'
_cell_length_a     34.179405
_cell_length_b     34.197882
_cell_length_c     66.654321
_cell_angle_alpha  90.025937
_cell_angle_beta   90.007855
_cell_angle_gamma 120.03609
loop_
_atom_site_label
_atom_site_type_symbol
_atom_site_fract_x
_atom_site_fract_y
_atom_site_fract_z
_atom_type_partial_charge
C0 C 0.14676 0.33166 0.08393 0.0
C1 C 0.04531 0.3023 0.14004 0.0
O2 O 0.16705 0.35994 0.09823 0.0
Zn3 Zn 0.14812 0.37316 0.12763 0.0
O4 O 0.10496 0.30318 0.08559 0.0
Zn5 Zn 0.09644 0.32025 0.1118 0.0
O6 O 0.10166 0.38542 0.10678 0.0
O7 O 0.15787 0.43316 0.12597 0.0
O8 O 0.03771 0.28356 0.12296 0.0
O9 O 0.08456 0.33615 0.1439 0.0
O10 O 0.18965 0.36616 0.14429 0.0
O11 O 0.13791 0.30246 0.13031 0.0
C12 C 0.12697 0.42568 0.11346 0.0
C13 C 0.17264 0.32398 0.14168 0.0
C14 C 0.85437 0.16326 0.30939 0.0
C15 C 0.70721 0.12287 0.28179 0.0
O16 O 0.84189 0.13226 0.29598 0.0
Zn17 Zn 0.78205 0.09287 0.27751 0.0
O18 O 0.82813 0.17795 0.31427 0.0
Zn19 Zn 0.78073 0.14172 0.29578 0.0
O20 O 0.75298 0.07578 0.30938 0.0
O21 O 0.7603 0.0324 0.287 0.0
O22 O 0.73044 0.15201 0.29501 0.0
O23 O 0.72234 0.09868 0.27405 0.0
O24 O 0.80644 0.10555 0.25103 0.0
O25 O 0.81488 0.16605 0.26691 0.0
C26 C 0.74796 0.03735 0.3043 0.0
C27 C 0.82153 0.14782 0.25138 0.0
C28 C 0.69467 0.85223 0.4741 0.0
C29 C 0.58985 0.70438 0.44702 0.0
O30 O 0.71516 0.83858 0.46232 0.0
Zn31 Zn 0.6954 0.77834 0.44402 0.0
O32 O 0.65266 0.82724 0.47735 0.0
Zn33 Zn 0.64393 0.77832 0.46065 0.0
O34 O 0.68133 0.75167 0.47631 0.0
O35 O 0.73241 0.75616 0.45479 0.0
O36 O 0.5834 0.72842 0.45957 0.0
O37 O 0.62968 0.71872 0.43995 0.0
O38 O 0.70998 0.80211 0.41733 0.0
O39 O 0.65597 0.81028 0.43133 0.0
C40 C 0.71463 0.74571 0.47207 0.0
C41 C 0.68235 0.81659 0.41645 0.0
C42 C 0.87046 0.67929 0.58389 0.0
C43 C 0.97944 0.71307 0.63736 0.0
O44 O 0.85151 0.65455 0.59937 0.0
Zn45 Zn 0.87456 0.64375 0.62835 0.0
O46 O 0.91294 0.70562 0.58366 0.0
Zn47 Zn 0.92462 0.69297 0.61017 0.0
O48 O 0.91602 0.62653 0.6065 0.0
O49 O 0.86259 0.58256 0.62769 0.0
O50 O 0.98561 0.7293 0.61978 0.0
O51 O 0.94005 0.68115 0.64238 0.0
O52 O 0.83869 0.65574 0.6465 0.0
O53 O 0.88633 0.71512 0.62861 0.0
C54 C 0.89098 0.58743 0.61429 0.0
C55 C 0.85478 0.69697 0.64182 0.0
C56 C 0.16576 0.84774 0.80585 0.0
C57 C 0.31342 0.89111 0.77861 0.0
O58 O 0.17991 0.88288 0.79467 0.0
Zn59 Zn 0.24031 0.92384 0.77649 0.0
O60 O 0.19031 0.83005 0.80854 0.0
Zn61 Zn 0.23972 0.8714 0.79239 0.0
O62 O 0.26603 0.93447 0.80894 0.0
O63 O 0.26439 0.98293 0.7877 0.0
O64 O 0.28947 0.86068 0.7912 0.0
O65 O 0.29927 0.91687 0.77172 0.0
O66 O 0.21557 0.91609 0.75009 0.0
O67 O 0.2089 0.8535 0.76273 0.0
C68 C 0.27355 0.97444 0.80503 0.0
C69 C 0.20186 0.87425 0.74835 0.0
C70 C 0.30625 0.26975 0.97234 0.0
C71 C 0.33532 0.19523 0.91707 0.0
O72 O 0.33898 0.26289 0.97658 0.0
Zn73 Zn 0.37599 0.23592 0.96089 0.0
O74 O 0.28856 0.25946 0.95503 0.0
Zn75 Zn 0.32426 0.23545 0.94441 0.0
O76 O 0.30504 0.17578 0.96303 0.0
O77 O 0.36761 0.18803 0.97819 0.0
O78 O 0.30766 0.20964 0.91827 0.0
O79 O 0.36294 0.20277 0.93162 0.0
O80 O 0.4365 0.2858 0.95943 0.0
O81 O 0.39004 0.29435 0.93944 0.0
C82 C 0.32561 0.1626 0.97503 0.0
C83 C 0.42996 0.30905 0.94648 0.0
C84 C 0.70043 0.85248 0.7032 0.0
C85 C 0.59268 0.89141 0.73065 0.0
O86 O 0.71877 0.88345 0.71664 0.0
Zn87 Zn 0.69777 0.92235 0.73512 0.0
O88 O 0.65943 0.83746 0.69832 0.0
Zn89 Zn 0.64789 0.87334 0.71678 0.0
O90 O 0.68587 0.93933 0.70323 0.0
O91 O 0.73627 0.98295 0.72569 0.0
O92 O 0.58714 0.86246 0.7174 0.0
O93 O 0.63192 0.91586 0.73848 0.0
O94 O 0.70946 0.90974 0.76163 0.0
O95 O 0.65768 0.84913 0.74567 0.0
C96 C 0.7191 0.97788 0.70835 0.0
C97 C 0.68242 0.86743 0.76124 0.0
C98 C 0.82195 0.67921 0.92764 0.0
C99 C 0.75009 0.71128 0.8723 0.0
O100 O 0.81533 0.65274 0.91276 0.0
Zn101 Zn 0.78275 0.64052 0.88355 0.0
O102 O 0.8074 0.70678 0.92685 0.0
Zn103 Zn 0.78315 0.69214 0.90023 0.0
O104 O 0.72341 0.62664 0.90438 0.0
O105 O 0.73265 0.58006 0.88477 0.0
O106 O 0.76092 0.72918 0.88956 0.0
O107 O 0.75591 0.67791 0.86801 0.0
O108 O 0.83142 0.64909 0.86668 0.0
O109 O 0.84305 0.71164 0.88175 0.0
C110 C 0.70882 0.58675 0.89734 0.0
C111 C 0.8565 0.69109 0.8699 0.0
C112 C 0.17023 0.8506 0.03588 0.0
C113 C 0.12695 0.70337 0.06398 0.0
O114 O 0.13769 0.8381 0.04851 0.0
Zn115 Zn 0.09741 0.77871 0.06723 0.0
O116 O 0.18565 0.82448 0.03205 0.0
Zn117 Zn 0.14716 0.77706 0.04989 0.0
O118 O 0.08203 0.75018 0.03526 0.0
O119 O 0.03755 0.7572 0.05714 0.0
O120 O 0.15691 0.72659 0.05108 0.0
O121 O 0.10245 0.71862 0.07128 0.0
O122 O 0.10884 0.80356 0.0937 0.0
O123 O 0.16994 0.81106 0.0788 0.0
C124 C 0.04337 0.74528 0.03989 0.0
C125 C 0.15104 0.81817 0.09394 0.0
C126 C 0.3048 0.0407 0.20605 0.0
C127 C 0.3347 0.14123 0.26259 0.0
O128 O 0.3387 0.07994 0.20227 0.0
Zn129 Zn 0.37584 0.14323 0.21873 0.0
O130 O 0.28615 0.0329 0.22315 0.0
Zn131 Zn 0.32298 0.09145 0.23449 0.0
O132 O 0.30515 0.13328 0.21626 0.0
O133 O 0.36886 0.18506 0.20233 0.0
O134 O 0.30602 0.09954 0.26079 0.0
O135 O 0.36292 0.16169 0.24831 0.0
O136 O 0.43585 0.153 0.22023 0.0
O137 O 0.38831 0.09675 0.23943 0.0
C138 C 0.3267 0.16816 0.205 0.0
C139 C 0.42854 0.12215 0.23272 0.0
C140 C 0.31114 0.42492 0.39871 0.0
C141 C 0.16473 0.31769 0.37079 0.0
O142 O 0.29676 0.38544 0.40615 0.0
Zn143 Zn 0.23831 0.31923 0.40182 0.0
O144 O 0.28768 0.43059 0.38555 0.0
Zn145 Zn 0.23809 0.36973 0.38452 0.0
O146 O 0.20497 0.35793 0.41382 0.0
O147 O 0.21315 0.30422 0.42806 0.0
O148 O 0.19008 0.3592 0.36664 0.0
O149 O 0.17803 0.29857 0.38352 0.0
O150 O 0.26259 0.28324 0.3916 0.0
O151 O 0.26582 0.33279 0.36964 0.0
C152 C 0.19809 0.3314 0.42875 0.0
C153 C 0.27294 0.30043 0.37421 0.0
C154 C 0.88973 0.30826 0.56532 0.0
C155 C 0.8495 0.1613 0.53821 0.0
O156 O 0.9158 0.29468 0.57237 0.0
Zn157 Zn 0.92404 0.23664 0.56801 0.0
O158 O 0.85979 0.28409 0.55257 0.0
Zn159 Zn 0.87164 0.23494 0.55146 0.0
O160 O 0.85279 0.20317 0.58085 0.0
O161 O 0.91575 0.21293 0.5947 0.0
O162 O 0.83162 0.18552 0.53506 0.0
O163 O 0.88415 0.17577 0.54978 0.0
O164 O 0.98364 0.26151 0.55717 0.0
O165 O 0.93532 0.26201 0.53547 0.0
C166 C 0.87345 0.19754 0.59568 0.0
C167 C 0.97541 0.27025 0.53971 0.0
H168 H 0.0886 0.65841 0.09887 0.0
H169 H 0.15257 0.64964 0.04449 0.0
H170 H 0.08371 0.58844 0.11095 0.0
H171 H 0.14685 0.57938 0.05645 0.0
H172 H 0.08795 0.43153 0.07857 0.0
H173 H 0.08322 0.49663 0.06626 0.0
H174 H 0.1475 0.56979 0.12045 0.0
H175 H 0.15308 0.50538 0.13259 0.0
C176 C 0.10109 0.64127 0.08941 0.0
C177 C 0.12117 0.65961 0.07078 0.0
C178 C 0.09841 0.60138 0.09635 0.0
C179 C 0.11486 0.5786 0.0846 0.0
C180 C 0.1336 0.59613 0.06571 0.0
C181 C 0.13711 0.63645 0.05895 0.0
C182 C 0.10071 0.46139 0.0879 0.0
C183 C 0.12106 0.46347 0.10649 0.0
C184 C 0.09815 0.4986 0.08083 0.0
C185 C 0.11495 0.5381 0.09244 0.0
C186 C 0.13398 0.53961 0.11129 0.0
C187 C 0.1374 0.50285 0.11816 0.0
H188 H 0.65393 0.14896 0.30147 0.0
H189 H 0.66193 0.08503 0.24692 0.0
H190 H 0.58353 0.14338 0.28969 0.0
H191 H 0.59188 0.08024 0.23504 0.0
H192 H 0.50816 0.14847 0.21351 0.0
H193 H 0.57302 0.14362 0.22564 0.0
H194 H 0.50056 0.07975 0.27999 0.0
H195 H 0.43499 0.08377 0.2677 0.0
C196 C 0.64057 0.13358 0.28701 0.0
C197 C 0.66354 0.11758 0.27508 0.0
C198 C 0.60016 0.13013 0.28035 0.0
C199 C 0.58238 0.11139 0.26148 0.0
C200 C 0.60502 0.09495 0.24963 0.0
C201 C 0.64498 0.09759 0.25646 0.0
C202 C 0.50587 0.13302 0.22798 0.0
C203 C 0.46654 0.11657 0.23968 0.0
C204 C 0.5429 0.13006 0.23485 0.0
C205 C 0.54172 0.11135 0.25373 0.0
C206 C 0.50229 0.09446 0.2654 0.0
C207 C 0.4648 0.09658 0.25833 0.0
H208 H 0.58245 0.65837 0.41234 0.0
H209 H 0.5102 0.65217 0.46652 0.0
H210 H 0.51656 0.58859 0.40047 0.0
H211 H 0.44492 0.58213 0.4548 0.0
H212 H 0.35606 0.43321 0.43382 0.0
H213 H 0.42573 0.49911 0.44572 0.0
H214 H 0.43371 0.56972 0.39087 0.0
H215 H 0.36373 0.50438 0.3791 0.0
C216 C 0.55275 0.64184 0.4218 0.0
C217 C 0.55139 0.66078 0.44032 0.0
C218 C 0.51508 0.6021 0.41497 0.0
C219 C 0.47579 0.58009 0.42675 0.0
C220 C 0.47493 0.5983 0.44551 0.0
C221 C 0.51218 0.63847 0.45215 0.0
C222 C 0.37284 0.4627 0.42426 0.0
C223 C 0.35436 0.46373 0.40556 0.0
C224 C 0.41256 0.50037 0.4311 0.0
C225 C 0.43501 0.53934 0.41918 0.0
C226 C 0.4172 0.53994 0.40027 0.0
C227 C 0.37704 0.50267 0.39361 0.0
H228 H 0.86354 0.50792 0.63402 0.0
H229 H 0.92607 0.57818 0.57898 0.0
H230 H 0.867 0.44202 0.62214 0.0
H231 H 0.92868 0.51183 0.56701 0.0
H232 H 0.86034 0.35932 0.54624 0.0
H233 H 0.86426 0.42879 0.55821 0.0
H234 H 0.93088 0.42309 0.61221 0.0
H235 H 0.92782 0.35394 0.6001 0.0
C236 C 0.87808 0.50931 0.61942 0.0
C237 C 0.89448 0.54817 0.60741 0.0
C238 C 0.88027 0.47172 0.61269 0.0
C239 C 0.89807 0.47196 0.59368 0.0
C240 C 0.91464 0.51083 0.5817 0.0
C241 C 0.91329 0.54877 0.58859 0.0
C242 C 0.87608 0.37303 0.56061 0.0
C243 C 0.89374 0.35119 0.57225 0.0
C244 C 0.8785 0.41285 0.56739 0.0
C245 C 0.89784 0.43114 0.58611 0.0
C246 C 0.91566 0.40949 0.59774 0.0
C247 C 0.91407 0.37011 0.59078 0.0
H248 H 0.5137 0.86527 0.71062 0.0
H249 H 0.58406 0.92799 0.76566 0.0
H250 H 0.44829 0.87001 0.72219 0.0
H251 H 0.51817 0.9319 0.77733 0.0
H252 H 0.3654 0.86323 0.79791 0.0
H253 H 0.43531 0.86795 0.78613 0.0
H254 H 0.42898 0.93358 0.73194 0.0
H255 H 0.35926 0.92971 0.74389 0.0
C256 C 0.51525 0.88019 0.72515 0.0
C257 C 0.55395 0.89615 0.73727 0.0
C258 C 0.47794 0.88313 0.73169 0.0
C259 C 0.47829 0.9013 0.75063 0.0
C260 C 0.51708 0.91763 0.76268 0.0
C261 C 0.55476 0.91551 0.75598 0.0
C262 C 0.37907 0.87898 0.78355 0.0
C263 C 0.35683 0.89603 0.77179 0.0
C264 C 0.41918 0.88188 0.77688 0.0
C265 C 0.43742 0.90111 0.75815 0.0
C266 C 0.41545 0.91847 0.74642 0.0
C267 C 0.37574 0.91641 0.75329 0.0
H268 H 0.50957 0.36239 0.96583 0.0
H269 H 0.43714 0.35334 0.9113 0.0
H270 H 0.57452 0.43221 0.95376 0.0
H271 H 0.50273 0.42293 0.89909 0.0
H272 H 0.65613 0.50692 0.878 0.0
H273 H 0.5859 0.44207 0.88985 0.0
H274 H 0.59303 0.51471 0.94395 0.0
H275 H 0.66297 0.58013 0.93196 0.0
C276 C 0.50749 0.3754 0.95129 0.0
C277 C 0.46833 0.35235 0.93947 0.0
C278 C 0.54454 0.41547 0.94447 0.0
C279 C 0.54353 0.43286 0.92552 0.0
C280 C 0.50431 0.41008 0.91374 0.0
C281 C 0.46682 0.37044 0.92075 0.0
C282 C 0.64253 0.50921 0.89235 0.0
C283 C 0.6651 0.54854 0.90408 0.0
C284 C 0.60224 0.47221 0.89905 0.0
C285 C 0.58418 0.47348 0.91779 0.0
C286 C 0.60641 0.51292 0.92946 0.0
C287 C 0.64627 0.55032 0.92257 0.0
H288 H 0.35745 0.25773 0.20193 0.0
H289 H 0.24298 0.12747 0.18788 0.0
H290 H 0.31898 0.2947 0.18778 0.0
H291 H 0.2055 0.16404 0.17188 0.0
H292 H 0.13136 0.24013 0.15859 0.0
H293 H 0.1674 0.20226 0.17471 0.0
H294 H 0.29865 0.31579 0.15963 0.0
H295 H 0.26217 0.35461 0.14535 0.0
C296 C 0.3242 0.23709 0.19543 0.0
C297 C 0.30315 0.18989 0.19589 0.0
C298 C 0.30212 0.25823 0.18709 0.0
C299 C 0.25899 0.23271 0.17831 0.0
C300 C 0.23817 0.18517 0.17875 0.0
C301 C 0.25974 0.16402 0.18775 0.0
C302 C 0.16792 0.25682 0.15894 0.0
C303 C 0.19409 0.30034 0.15097 0.0
C304 C 0.18876 0.23503 0.16801 0.0
C305 C 0.2363 0.25572 0.1687 0.0
C306 C 0.26215 0.299 0.16012 0.0
C307 C 0.24129 0.32129 0.15171 0.0
H308 H 0.88062 0.20265 0.34624 0.0
H309 H 0.93001 0.16801 0.29339 0.0
H310 H 0.95622 0.23696 0.36116 0.0
H311 H 1.00586 0.20354 0.30815 0.0
H312 H 0.13785 0.33359 0.3347 0.0
H313 H 0.06227 0.29282 0.31977 0.0
H314 H 0.01392 0.20434 0.37112 0.0
H315 H 0.08985 0.24419 0.38588 0.0
C316 C 0.90761 0.20236 0.33785 0.0
C317 C 0.89952 0.18267 0.31868 0.0
C318 C 0.95067 0.22176 0.34641 0.0
C319 C 0.98656 0.22275 0.33575 0.0
C320 C 0.97858 0.20312 0.3166 0.0
C321 C 0.93526 0.18273 0.30823 0.0
C322 C 0.11117 0.30522 0.34272 0.0
C323 C 0.11964 0.29199 0.36143 0.0
C324 C 0.06811 0.28188 0.33415 0.0
C325 C 0.03257 0.24562 0.34435 0.0
C326 C 0.04093 0.23228 0.36303 0.0
C327 C 0.08429 0.25493 0.37139 0.0
H328 H 0.76053 0.10024 0.53629 0.0
H329 H 0.89153 0.11995 0.52061 0.0
H330 H 0.72447 0.02509 0.52187 0.0
H331 H 0.85564 0.04596 0.50435 0.0
H332 H 0.77975 0.89523 0.49003 0.0
H333 H 0.81808 0.96897 0.50647 0.0
H334 H 0.70356 0.98612 0.49296 0.0
H335 H 0.66447 0.91117 0.47834 0.0
C336 C 0.78151 0.08849 0.52941 0.0
C337 C 0.82865 0.11574 0.52942 0.0
C338 C 0.76088 0.04547 0.5209 0.0
C339 C 0.78679 0.02913 0.51146 0.0
C340 C 0.8343 0.05669 0.51164 0.0
C341 C 0.85502 0.0993 0.52081 0.0
C342 C 0.76299 0.91498 0.49076 0.0
C343 C 0.71908 0.89753 0.48319 0.0
C344 C 0.78501 0.95747 0.50004 0.0
C345 C 0.76403 0.98394 0.50136 0.0
C346 C 0.72052 0.96658 0.49303 0.0
C347 C 0.69808 0.92366 0.48441 0.0
H348 H 0.81492 0.68378 0.67848 0.0
H349 H 0.85233 0.76936 0.62608 0.0
H350 H 0.78101 0.72535 0.69335 0.0
H351 H 0.81721 0.81008 0.64081 0.0
H352 H 0.687 0.81273 0.66644 0.0
H353 H 0.72842 0.77871 0.65149 0.0
H354 H 0.81281 0.81389 0.70416 0.0
H355 H 0.77227 0.84907 0.71897 0.0
C356 C 0.81597 0.71153 0.67018 0.0
C357 C 0.83624 0.72341 0.65114 0.0
C358 C 0.79679 0.73535 0.67872 0.0
C359 C 0.79661 0.77075 0.66817 0.0
C360 C 0.81698 0.78281 0.64917 0.0
C361 C 0.83716 0.75969 0.64083 0.0
C362 C 0.71462 0.81351 0.67475 0.0
C363 C 0.72647 0.83351 0.69385 0.0
C364 C 0.73837 0.79428 0.66616 0.0
C365 C 0.77366 0.79382 0.67672 0.0
C366 C 0.78565 0.81389 0.69578 0.0
C367 C 0.7626 0.83408 0.70418 0.0
H368 H 0.8992 0.77598 0.85392 0.0
H369 H 0.91559 0.66103 0.86558 0.0
H370 H 0.97299 0.81452 0.83757 0.0
H371 H 0.99066 0.70038 0.85107 0.0
H372 H 0.10558 0.75848 0.80801 0.0
H373 H 0.0304 0.72179 0.82241 0.0
H374 H 0.04979 0.85242 0.83984 0.0
H375 H 0.12375 0.88889 0.82359 0.0
C376 C 0.91906 0.75933 0.85319 0.0
C377 C 0.90173 0.71546 0.86074 0.0
C378 C 0.96159 0.78148 0.84397 0.0
C379 C 0.98828 0.76072 0.8427 0.0
C380 C 0.97099 0.7172 0.85098 0.0
C381 C 0.92799 0.69461 0.85953 0.0
C382 C 0.09351 0.7792 0.81488 0.0
C383 C 0.12032 0.82637 0.81481 0.0
C384 C 0.05045 0.75821 0.82338 0.0
C385 C 0.03364 0.78378 0.83274 0.0
C386 C 0.06083 0.8313 0.83258 0.0
C387 C 0.10345 0.85236 0.82342 0.0
H388 H 0.24601 0.89135 0.0126 0.0
H389 H 0.14115 0.9121 0.03768 0.0
H390 H 0.28189 0.96675 0.99805 0.0
H391 H 0.17739 0.98786 0.02308 0.0
H392 H 0.23455 0.10197 0.97448 0.0
H393 H 0.1953 0.02611 0.98903 0.0
H394 H 0.32228 0.04549 0.01153 0.0
H395 H 0.36148 0.12092 0.99704 0.0
C396 C 0.23048 0.9119 0.01496 0.0
C397 C 0.19077 0.89573 0.02637 0.0
C398 C 0.25122 0.95521 0.00671 0.0
C399 C 0.2326 0.98328 0.00954 0.0
C400 C 0.19236 0.96685 0.02057 0.0
C401 C 0.17176 0.92357 0.02899 0.0
C402 C 0.25403 0.09009 0.9826 0.0
C403 C 0.30116 0.11745 0.98454 0.0
C404 C 0.23153 0.04675 0.99099 0.0
C405 C 0.2558 0.02981 1.00129 0.0
C406 C 0.30278 0.05741 1.00343 0.0
C407 C 0.32518 0.10075 0.99523 0.0
H408 H 0.23849 0.37809 0.07791 0.0
H409 H 0.11268 0.28061 0.05012 0.0
H410 H 0.28024 0.36953 0.05009 0.0
H411 H 0.15425 0.27166 0.02263 0.0
H412 H 0.33166 0.28955 0.01173 0.0
H413 H 0.29535 0.31044 0.03779 0.0
H414 H 0.20212 0.31009 0.99393 0.0
H415 H 0.23781 0.2885 0.96797 0.0
C416 C 0.21972 0.35521 0.06579 0.0
C417 C 0.17223 0.32995 0.06628 0.0
C418 C 0.24366 0.35008 0.04993 0.0
C419 C 0.2206 0.31983 0.03416 0.0
C420 C 0.17309 0.29567 0.03439 0.0
C421 C 0.14923 0.30061 0.05024 0.0
C422 C 0.30373 0.29439 0.0076 0.0
C423 C 0.28739 0.28691 0.98779 0.0
C424 C 0.28306 0.30663 0.02253 0.0
C425 C 0.2456 0.3116 0.01797 0.0
C426 C 0.23043 0.30581 0.998 0.0
C427 C 0.25106 0.29362 0.9831 0.0
H428 H 0.80708 0.12923 0.21161 0.0
H429 H 0.89954 0.22871 0.25348 0.0
H430 H 0.85736 0.17074 0.184 0.0
H431 H 0.95214 0.26861 0.22624 0.0
H432 H 0.03347 0.34569 0.17206 0.0
H433 H 0.97542 0.31275 0.19802 0.0
H434 H 0.92221 0.18171 0.16984 0.0
H435 H 0.97775 0.21545 0.14341 0.0
C436 C 0.83833 0.16015 0.21483 0.0
C437 C 0.84956 0.17584 0.23459 0.0
C438 C 0.8676 0.18377 0.19905 0.0
C439 C 0.90972 0.22278 0.20274 0.0
C440 C 0.92003 0.23918 0.22258 0.0
C441 C 0.88998 0.21624 0.23829 0.0
C442 C 1.0089 0.30994 0.17141 0.0
C443 C 1.00993 0.28318 0.15568 0.0
C444 C 0.97573 0.29086 0.18638 0.0
C445 C 0.94358 0.24431 0.18621 0.0
C446 C 0.94513 0.2178 0.17037 0.0
C447 C 0.97741 0.23709 0.15521 0.0
H448 H 0.68677 0.01858 0.33431 0.0
H449 H 0.77208 0.97315 0.30772 0.0
H450 H 0.66279 0.96013 0.35989 0.0
H451 H 0.75161 0.91737 0.33404 0.0
H452 H 0.69474 0.80347 0.37723 0.0
H453 H 0.70236 0.85143 0.3488 0.0
H454 H 0.68434 0.94123 0.3887 0.0
H455 H 0.67278 0.89076 0.41656 0.0
C456 C 0.70047 0.99606 0.33403 0.0
C457 C 0.73115 1.00024 0.31905 0.0
C458 C 0.68714 0.96275 0.34882 0.0
C459 C 0.70537 0.93376 0.34937 0.0
C460 C 0.73575 0.93793 0.33408 0.0
C461 C 0.74792 0.97028 0.31897 0.0
C462 C 0.69168 0.83314 0.37973 0.0
C463 C 0.68319 0.84351 0.39901 0.0
C464 C 0.69658 0.86108 0.36348 0.0
C465 C 0.69479 0.90105 0.36626 0.0
C466 C 0.68522 0.91061 0.38565 0.0
C467 C 0.67884 0.88181 0.40175 0.0
H468 H 0.7895 0.67622 0.58561 0.0
H469 H 0.89024 0.68459 0.54418 0.0
H470 H 0.74971 0.68838 0.5582 0.0
H471 H 0.84882 0.69279 0.51637 0.0
H472 H 0.80181 0.76572 0.47512 0.0
H473 H 0.83642 0.74511 0.50165 0.0
H474 H 0.70573 0.66639 0.53007 0.0
H475 H 0.67203 0.69044 0.50408 0.0
C476 C 0.80233 0.67939 0.57048 0.0
C477 C 0.843 0.67983 0.56696 0.0
C478 C 0.77942 0.68614 0.55466 0.0
C479 C 0.79607 0.69226 0.53486 0.0
C480 C 0.83552 0.68988 0.53137 0.0
C481 C 0.85912 0.6846 0.54727 0.0
C482 C 0.78048 0.74379 0.487 0.0
C483 C 0.73427 0.72973 0.48756 0.0
C484 C 0.80025 0.7315 0.50222 0.0
C485 C 0.77411 0.70365 0.51819 0.0
C486 C 0.7274 0.68856 0.51837 0.0
C487 C 0.70785 0.70199 0.50337 0.0
H488 H 0.1839 0.90859 0.71486 0.0
H489 H 0.15909 0.783 0.74149 0.0
H490 H 0.13394 0.86706 0.68714 0.0
H491 H 0.10951 0.7414 0.71348 0.0
H492 H 0.06575 0.78349 0.63234 0.0
H493 H 0.1241 0.82023 0.65791 0.0
H494 H 0.03476 0.72474 0.70202 0.0
H495 H 0.97675 0.68754 0.67644 0.0
C496 C 0.1683 0.87214 0.71467 0.0
C497 C 0.17531 0.84913 0.73048 0.0
C498 C 0.13983 0.84831 0.69868 0.0
C499 C 0.11758 0.80087 0.69811 0.0
C500 C 0.12571 0.77791 0.71359 0.0
C501 C 0.15435 0.80178 0.72958 0.0
C502 C 0.05873 0.76998 0.64744 0.0
C503 C 0.01643 0.73274 0.65236 0.0
C504 C 0.09211 0.7912 0.66212 0.0
C505 C 0.08401 0.77564 0.68205 0.0
C506 C 0.04233 0.73734 0.68679 0.0
C507 C 1.00893 0.71616 0.67212 0.0
H508 H 0.28638 0.17987 0.88272 0.0
H509 H 0.3791 0.14702 0.912 0.0
H510 H 0.27717 0.12899 0.85536 0.0
H511 H 0.37028 0.09628 0.88429 0.0
H512 H 0.29538 0.06254 0.80104 0.0
H513 H 0.31676 0.1191 0.8273 0.0
H514 H 0.31035 0.02305 0.87112 0.0
H515 H 0.28964 0.96646 0.84473 0.0
C516 C 0.30528 0.16221 0.88321 0.0
C517 C 0.3334 0.16747 0.8996 0.0
C518 C 0.30019 0.13318 0.86743 0.0
C519 C 0.32299 0.10853 0.86762 0.0
C520 C 0.35192 0.11447 0.88379 0.0
C521 C 0.35721 0.14379 0.89959 0.0
C522 C 0.29892 0.05351 0.81623 0.0
C523 C 0.29039 0.00979 0.82079 0.0
C524 C 0.31101 0.08594 0.83131 0.0
C525 C 0.31484 0.07549 0.85135 0.0
C526 C 0.30804 0.03232 0.85582 0.0
C527 C 0.29592 0.9998 0.8407 0.0
H528 H 0.68676 0.88616 0.80102 0.0
H529 H 0.67917 0.78645 0.75918 0.0
H530 H 0.69502 0.84443 0.82866 0.0
H531 H 0.69139 0.74635 0.78643 0.0
H532 H 0.69466 0.6686 0.84029 0.0
H533 H 0.6699 0.70208 0.81449 0.0
H534 H 0.74802 0.8326 0.84312 0.0
H535 H 0.76938 0.79822 0.86945 0.0
C536 C 0.68688 0.85516 0.79781 0.0
C537 C 0.68237 0.83945 0.77805 0.0
C538 C 0.69222 0.8314 0.81361 0.0
C539 C 0.69496 0.79222 0.80995 0.0
C540 C 0.68893 0.77587 0.79009 0.0
C541 C 0.68211 0.79894 0.77437 0.0
C542 C 0.70594 0.70434 0.84109 0.0
C543 C 0.73374 0.73077 0.8569 0.0
C544 C 0.69209 0.72375 0.8262 0.0
C545 C 0.70678 0.77034 0.8265 0.0
C546 C 0.73469 0.7965 0.84247 0.0
C547 C 0.74742 0.77686 0.85757 0.0
H548 H 0.80914 0.69106 0.96695 0.0
H549 H 0.89674 0.67061 0.92717 0.0
H550 H 0.85775 0.69914 0.99519 0.0
H551 H 0.94787 0.68266 0.95487 0.0
H552 H 0.02604 0.68545 0.00934 0.0
H553 H 0.96783 0.66161 0.98359 0.0
H554 H 0.92365 0.74896 0.00979 0.0
H555 H 0.97916 0.76929 0.03623 0.0
C556 C 0.83903 0.68844 0.96431 0.0
C557 C 0.84928 0.68024 0.94496 0.0
C558 C 0.86735 0.69362 0.98045 0.0
C559 C 0.90763 0.69245 0.9775 0.0
C560 C 0.91707 0.68312 0.95805 0.0
C561 C 0.88788 0.67645 0.94204 0.0
C562 C 1.0033 0.6989 0.00964 0.0
C563 C 1.00694 0.72904 0.02478 0.0
C564 C 0.9701 0.68563 0.99476 0.0
C565 C 0.94066 0.70336 0.99431 0.0
C566 C 0.94449 0.73341 0.00969 0.0
C567 C 0.97672 0.74551 0.02486 0.0
H568 H 0.12985 0.80463 0.13353 0.0
H569 H 0.23301 0.89501 0.09246 0.0
H570 H 0.17078 0.85452 0.16135 0.0
H571 H 0.27238 0.94735 0.11985 0.0
H572 H 0.34833 0.02772 0.17443 0.0
H573 H 0.31514 0.96994 0.14836 0.0
H574 H 0.1834 0.91977 0.17548 0.0
H575 H 0.21737 0.9749 0.20207 0.0
C576 C 0.16142 0.83538 0.13052 0.0
C577 C 0.17833 0.8461 0.11093 0.0
C578 C 0.18474 0.86444 0.14642 0.0
C579 C 0.22471 0.90591 0.14301 0.0
C580 C 0.24221 0.91574 0.12333 0.0
C581 C 0.21955 0.88584 0.10753 0.0
C582 C 0.31237 1.00386 0.17482 0.0
C583 C 0.28547 1.00558 0.19031 0.0
C584 C 0.29313 0.97085 0.15979 0.0
C585 C 0.24629 0.93961 0.15962 0.0
C586 C 0.21965 0.94192 0.1752 0.0
C587 C 0.23908 0.97397 0.19046 0.0
H588 H 0.2832 0.10685 0.29625 0.0
H589 H 0.38236 0.23269 0.26915 0.0
H590 H 0.27463 0.14822 0.32396 0.0
H591 H 0.37422 0.2742 0.29718 0.0
H592 H 0.29053 0.2312 0.37879 0.0
H593 H 0.3124 0.19537 0.35296 0.0
H594 H 0.31555 0.28991 0.30914 0.0
H595 H 0.29443 0.3263 0.33502 0.0
C596 C 0.30367 0.14335 0.29634 0.0
C597 C 0.3333 0.16645 0.28041 0.0
C598 C 0.29895 0.16709 0.31232 0.0
C599 C 0.32367 0.21455 0.31278 0.0
C600 C 0.35432 0.23766 0.29715 0.0
C601 C 0.3592 0.21386 0.28117 0.0
C602 C 0.29637 0.24471 0.3637 0.0
C603 C 0.29037 0.28142 0.35895 0.0
C604 C 0.30871 0.22401 0.34887 0.0
C605 C 0.31537 0.23953 0.32895 0.0
C606 C 0.3111 0.27736 0.32437 0.0
C607 C 0.29872 0.29806 0.3392 0.0
H608 H 0.14872 0.37422 0.43297 0.0
H609 H 0.18379 0.28469 0.46367 0.0
H610 H 0.09773 0.36597 0.46047 0.0
H611 H 0.13263 0.27597 0.4908 0.0
H612 H 0.06399 0.29387 0.54429 0.0
H613 H 0.12122 0.31556 0.51831 0.0
H614 H 0.02505 0.30608 0.47376 0.0
H615 H 0.96785 0.28515 0.49985 0.0
C616 C 0.14593 0.35317 0.44565 0.0
C617 C 0.17028 0.33004 0.44609 0.0
C618 C 0.11648 0.3482 0.46133 0.0
C619 C 0.11103 0.32026 0.47783 0.0
C620 C 0.13641 0.29823 0.47848 0.0
C621 C 0.1656 0.30303 0.46282 0.0
C622 C 0.05509 0.29683 0.52899 0.0
C623 C 0.01117 0.28736 0.52414 0.0
C624 C 0.0879 0.30909 0.51408 0.0
C625 C 0.07762 0.31213 0.49392 0.0
C626 C 0.03422 0.30441 0.48916 0.0
C627 C 1.00134 0.29216 0.50411 0.0
H628 H 0.80751 0.04208 0.70489 0.0
H629 H 0.6766 0.99649 0.67834 0.0
H630 H 0.84286 0.09752 0.67842 0.0
H631 H 0.7111 0.0546 0.65264 0.0
H632 H 0.78993 0.12295 0.5958 0.0
H633 H 0.75137 0.07281 0.6238 0.0
H634 H 0.85972 0.16324 0.66339 0.0
H635 H 0.89971 0.21092 0.63482 0.0
C636 C 0.78619 0.04486 0.69362 0.0
C637 C 0.73941 0.01494 0.69358 0.0
C638 C 0.8064 0.07701 0.67843 0.0
C639 C 0.78015 0.08098 0.6631 0.0
C640 C 0.73287 0.0521 0.66372 0.0
C641 C 0.71287 0.01899 0.67859 0.0
C642 C 0.80517 0.1321 0.61057 0.0
C643 C 0.84784 0.17053 0.61319 0.0
C644 C 0.78293 0.1035 0.62675 0.0
C645 C 0.80226 0.11337 0.64611 0.0
C646 C 0.84411 0.15338 0.64875 0.0
C647 C 0.86697 0.18114 0.63242 0.0
loop_
_geom_bond_atom_site_label_1
_geom_bond_atom_site_label_2
_geom_bond_distance
_geom_bond_site_symmetry_2
_ccdc_geom_bond_type
C0 O2 1.247 . S
C0 O4 1.258 . S
C1 O8 1.247 . S
C1 O9 1.258 . S
O2 C0 1.247 . S
O2 Zn3 2.028 . S
Zn3 O2 2.028 . S
Zn3 O7 2.035 . S
Zn3 O9 2.035 . S
Zn3 O10 2.028 . S
O4 C0 1.258 . S
O4 Zn5 2.035 . S
Zn5 O4 2.035 . S
Zn5 O6 2.028 . S
Zn5 O8 2.028 . S
Zn5 O11 2.035 . S
O6 Zn5 2.028 . S
O6 C12 1.247 . S
O7 Zn3 2.035 . S
O7 C12 1.258 . S
O8 C1 1.247 . S
O8 Zn5 2.028 . S
O9 C1 1.258 . S
O9 Zn3 2.035 . S
O10 Zn3 2.028 . S
O10 C13 1.247 . S
O11 Zn5 2.035 . S
O11 C13 1.258 . S
C12 O6 1.247 . S
C12 O7 1.258 . S
C13 O10 1.247 . S
C13 O11 1.258 . S
C14 O16 1.247 . S
C14 O18 1.258 . S
C15 O22 1.247 . S
C15 O23 1.258 . S
O16 C14 1.247 . S
O16 Zn17 2.028 . S
Zn17 O16 2.028 . S
Zn17 O21 2.035 . S
Zn17 O23 2.035 . S
Zn17 O24 2.028 . S
O18 C14 1.258 . S
O18 Zn19 2.035 . S
Zn19 O18 2.035 . S
Zn19 O20 2.028 . S
Zn19 O22 2.028 . S
Zn19 O25 2.035 . S
O20 Zn19 2.028 . S
O20 C26 1.247 . S
O21 Zn17 2.035 . S
O21 C26 1.258 . S
O22 C15 1.247 . S
O22 Zn19 2.028 . S
O23 C15 1.258 . S
O23 Zn17 2.035 . S
O24 Zn17 2.028 . S
O24 C27 1.247 . S
O25 Zn19 2.035 . S
O25 C27 1.258 . S
C26 O20 1.247 . S
C26 O21 1.258 . S
C27 O24 1.247 . S
C27 O25 1.258 . S
C28 O30 1.247 . S
C28 O32 1.258 . S
C29 O36 1.247 . S
C29 O37 1.258 . S
O30 C28 1.247 . S
O30 Zn31 2.028 . S
Zn31 O30 2.028 . S
Zn31 O35 2.035 . S
Zn31 O37 2.035 . S
Zn31 O38 2.028 . S
O32 C28 1.258 . S
O32 Zn33 2.035 . S
Zn33 O32 2.035 . S
Zn33 O34 2.028 . S
Zn33 O36 2.028 . S
Zn33 O39 2.035 . S
O34 Zn33 2.028 . S
O34 C40 1.247 . S
O35 Zn31 2.035 . S
O35 C40 1.258 . S
O36 C29 1.247 . S
O36 Zn33 2.028 . S
O37 C29 1.258 . S
O37 Zn31 2.035 . S
O38 Zn31 2.028 . S
O38 C41 1.247 . S
O39 Zn33 2.035 . S
O39 C41 1.258 . S
C40 O34 1.247 . S
C40 O35 1.258 . S
C41 O38 1.247 . S
C41 O39 1.258 . S
C42 O44 1.247 . S
C42 O46 1.258 . S
C43 O50 1.247 . S
C43 O51 1.258 . S
O44 C42 1.247 . S
O44 Zn45 2.028 . S
Zn45 O44 2.028 . S
Zn45 O49 2.035 . S
Zn45 O51 2.035 . S
Zn45 O52 2.028 . S
O46 C42 1.258 . S
O46 Zn47 2.035 . S
Zn47 O46 2.035 . S
Zn47 O48 2.028 . S
Zn47 O50 2.028 . S
Zn47 O53 2.035 . S
O48 Zn47 2.028 . S
O48 C54 1.247 . S
O49 Zn45 2.035 . S
O49 C54 1.258 . S
O50 C43 1.247 . S
O50 Zn47 2.028 . S
O51 C43 1.258 . S
O51 Zn45 2.035 . S
O52 Zn45 2.028 . S
O52 C55 1.247 . S
O53 Zn47 2.035 . S
O53 C55 1.258 . S
C54 O48 1.247 . S
C54 O49 1.258 . S
C55 O52 1.247 . S
C55 O53 1.258 . S
C56 O58 1.247 . S
C56 O60 1.258 . S
C57 O64 1.247 . S
C57 O65 1.258 . S
O58 C56 1.247 . S
O58 Zn59 2.028 . S
Zn59 O58 2.028 . S
Zn59 O63 2.035 . S
Zn59 O65 2.035 . S
Zn59 O66 2.028 . S
O60 C56 1.258 . S
O60 Zn61 2.035 . S
Zn61 O60 2.035 . S
Zn61 O62 2.028 . S
Zn61 O64 2.028 . S
Zn61 O67 2.035 . S
O62 Zn61 2.028 . S
O62 C68 1.247 . S
O63 Zn59 2.035 . S
O63 C68 1.258 . S
O64 C57 1.247 . S
O64 Zn61 2.028 . S
O65 C57 1.258 . S
O65 Zn59 2.035 . S
O66 Zn59 2.028 . S
O66 C69 1.247 . S
O67 Zn61 2.035 . S
O67 C69 1.258 . S
C68 O62 1.247 . S
C68 O63 1.258 . S
C69 O66 1.247 . S
C69 O67 1.258 . S
C70 O72 1.247 . S
C70 O74 1.258 . S
C71 O78 1.247 . S
C71 O79 1.258 . S
O72 C70 1.247 . S
O72 Zn73 2.028 . S
Zn73 O72 2.028 . S
Zn73 O77 2.035 . S
Zn73 O79 2.035 . S
Zn73 O80 2.028 . S
O74 C70 1.258 . S
O74 Zn75 2.035 . S
Zn75 O74 2.035 . S
Zn75 O76 2.028 . S
Zn75 O78 2.028 . S
Zn75 O81 2.035 . S
O76 Zn75 2.028 . S
O76 C82 1.247 . S
O77 Zn73 2.035 . S
O77 C82 1.258 . S
O78 C71 1.247 . S
O78 Zn75 2.028 . S
O79 C71 1.258 . S
O79 Zn73 2.035 . S
O80 Zn73 2.028 . S
O80 C83 1.247 . S
O81 Zn75 2.035 . S
O81 C83 1.258 . S
C82 O76 1.247 . S
C82 O77 1.258 . S
C83 O80 1.247 . S
C83 O81 1.258 . S
C84 O86 1.247 . S
C84 O88 1.258 . S
C85 O92 1.247 . S
C85 O93 1.258 . S
O86 C84 1.247 . S
O86 Zn87 2.028 . S
Zn87 O86 2.028 . S
Zn87 O91 2.035 . S
Zn87 O93 2.035 . S
Zn87 O94 2.028 . S
O88 C84 1.258 . S
O88 Zn89 2.035 . S
Zn89 O88 2.035 . S
Zn89 O90 2.028 . S
Zn89 O92 2.028 . S
Zn89 O95 2.035 . S
O90 Zn89 2.028 . S
O90 C96 1.247 . S
O91 Zn87 2.035 . S
O91 C96 1.258 . S
O92 C85 1.247 . S
O92 Zn89 2.028 . S
O93 C85 1.258 . S
O93 Zn87 2.035 . S
O94 Zn87 2.028 . S
O94 C97 1.247 . S
O95 Zn89 2.035 . S
O95 C97 1.258 . S
C96 O90 1.247 . S
C96 O91 1.258 . S
C97 O94 1.247 . S
C97 O95 1.258 . S
C98 O100 1.247 . S
C98 O102 1.258 . S
C99 O106 1.247 . S
C99 O107 1.258 . S
O100 C98 1.247 . S
O100 Zn101 2.028 . S
Zn101 O100 2.028 . S
Zn101 O105 2.035 . S
Zn101 O107 2.035 . S
Zn101 O108 2.028 . S
O102 C98 1.258 . S
O102 Zn103 2.035 . S
Zn103 O102 2.035 . S
Zn103 O104 2.028 . S
Zn103 O106 2.028 . S
Zn103 O109 2.035 . S
O104 Zn103 2.028 . S
O104 C110 1.247 . S
O105 Zn101 2.035 . S
O105 C110 1.258 . S
O106 C99 1.247 . S
O106 Zn103 2.028 . S
O107 C99 1.258 . S
O107 Zn101 2.035 . S
O108 Zn101 2.028 . S
O108 C111 1.247 . S
O109 Zn103 2.035 . S
O109 C111 1.258 . S
C110 O104 1.247 . S
C110 O105 1.258 . S
C111 O108 1.247 . S
C111 O109 1.258 . S
C112 O114 1.247 . S
C112 O116 1.258 . S
C113 O120 1.247 . S
C113 O121 1.258 . S
O114 C112 1.247 . S
O114 Zn115 2.028 . S
Zn115 O114 2.028 . S
Zn115 O119 2.035 . S
Zn115 O121 2.035 . S
Zn115 O122 2.028 . S
O116 C112 1.258 . S
O116 Zn117 2.035 . S
Zn117 O116 2.035 . S
Zn117 O118 2.028 . S
Zn117 O120 2.028 . S
Zn117 O123 2.035 . S
O118 Zn117 2.028 . S
O118 C124 1.247 . S
O119 Zn115 2.035 . S
O119 C124 1.258 . S
O120 C113 1.247 . S
O120 Zn117 2.028 . S
O121 C113 1.258 . S
O121 Zn115 2.035 . S
O122 Zn115 2.028 . S
O122 C125 1.247 . S
O123 Zn117 2.035 . S
O123 C125 1.258 . S
C124 O118 1.247 . S
C124 O119 1.258 . S
C125 O122 1.247 . S
C125 O123 1.258 . S
C126 O128 1.247 . S
C126 O130 1.258 . S
C127 O134 1.247 . S
C127 O135 1.258 . S
O128 C126 1.247 . S
O128 Zn129 2.028 . S
Zn129 O128 2.028 . S
Zn129 O133 2.035 . S
Zn129 O135 2.035 . S
Zn129 O136 2.028 . S
O130 C126 1.258 . S
O130 Zn131 2.035 . S
Zn131 O130 2.035 . S
Zn131 O132 2.028 . S
Zn131 O134 2.028 . S
Zn131 O137 2.035 . S
O132 Zn131 2.028 . S
O132 C138 1.247 . S
O133 Zn129 2.035 . S
O133 C138 1.258 . S
O134 C127 1.247 . S
O134 Zn131 2.028 . S
O135 C127 1.258 . S
O135 Zn129 2.035 . S
O136 Zn129 2.028 . S
O136 C139 1.247 . S
O137 Zn131 2.035 . S
O137 C139 1.258 . S
C138 O132 1.247 . S
C138 O133 1.258 . S
C139 O136 1.247 . S
C139 O137 1.258 . S
C140 O142 1.247 . S
C140 O144 1.258 . S
C141 O148 1.247 . S
C141 O149 1.258 . S
O142 C140 1.247 . S
O142 Zn143 2.028 . S
Zn143 O142 2.028 . S
Zn143 O147 2.035 . S
Zn143 O149 2.035 . S
Zn143 O150 2.028 . S
O144 C140 1.258 . S
O144 Zn145 2.035 . S
Zn145 O144 2.035 . S
Zn145 O146 2.028 . S
Zn145 O148 2.028 . S
Zn145 O151 2.035 . S
O146 Zn145 2.028 . S
O146 C152 1.247 . S
O147 Zn143 2.035 . S
O147 C152 1.258 . S
O148 C141 1.247 . S
O148 Zn145 2.028 . S
O149 C141 1.258 . S
O149 Zn143 2.035 . S
O150 Zn143 2.028 . S
O150 C153 1.247 . S
O151 Zn145 2.035 . S
O151 C153 1.258 . S
C152 O146 1.247 . S
C152 O147 1.258 . S
C153 O150 1.247 . S
C153 O151 1.258 . S
C154 O156 1.247 . S
C154 O158 1.258 . S
C155 O162 1.247 . S
C155 O163 1.258 . S
O156 C154 1.247 . S
O156 Zn157 2.028 . S
Zn157 O156 2.028 . S
Zn157 O161 2.035 . S
Zn157 O163 2.035 . S
Zn157 O164 2.028 . S
O158 C154 1.258 . S
O158 Zn159 2.035 . S
Zn159 O158 2.035 . S
Zn159 O160 2.028 . S
Zn159 O162 2.028 . S
Zn159 O165 2.035 . S
O160 Zn159 2.028 . S
O160 C166 1.247 . S
O161 Zn157 2.035 . S
O161 C166 1.258 . S
O162 C155 1.247 . S
O162 Zn159 2.028 . S
O163 C155 1.258 . S
O163 Zn157 2.035 . S
O164 Zn157 2.028 . S
O164 C167 1.247 . S
O165 Zn159 2.035 . S
O165 C167 1.258 . S
C166 O160 1.247 . S
C166 O161 1.258 . S
C167 O164 1.247 . S
C167 O165 1.258 . S
H168 C176 0.950 . S
H169 C181 0.950 . S
H170 C178 0.950 . S
H171 C180 0.950 . S
H172 C182 0.950 . S
H173 C184 0.950 . S
H174 C186 0.950 . S
H175 C187 0.950 . S
C176 H168 0.950 . S
C176 C177 1.386 . S
C176 C178 1.391 . S
C177 C176 1.386 . S
C177 C181 1.393 . S
C178 H170 0.950 . S
C178 C176 1.391 . S
C178 C179 1.400 . S
C179 C178 1.400 . S
C179 C180 1.398 . S
C179 C185 1.491 . S
C180 H171 0.950 . S
C180 C179 1.398 . S
C180 C181 1.391 . S
C181 H169 0.950 . S
C181 C177 1.393 . S
C181 C180 1.391 . S
C182 H172 0.950 . S
C182 C183 1.386 . S
C182 C184 1.391 . S
C183 C182 1.386 . S
C183 C187 1.393 . S
C184 H173 0.950 . S
C184 C182 1.391 . S
C184 C185 1.400 . S
C185 C179 1.491 . S
C185 C184 1.400 . S
C185 C186 1.398 . S
C186 H174 0.950 . S
C186 C185 1.398 . S
C186 C187 1.391 . S
C187 H175 0.950 . S
C187 C183 1.393 . S
C187 C186 1.391 . S
H188 C196 0.950 . S
H189 C201 0.950 . S
H190 C198 0.950 . S
H191 C200 0.950 . S
H192 C202 0.950 . S
H193 C204 0.950 . S
H194 C206 0.950 . S
H195 C207 0.950 . S
C196 H188 0.950 . S
C196 C197 1.386 . S
C196 C198 1.391 . S
C197 C196 1.386 . S
C197 C201 1.393 . S
C198 H190 0.950 . S
C198 C196 1.391 . S
C198 C199 1.400 . S
C199 C198 1.400 . S
C199 C200 1.398 . S
C199 C205 1.491 . S
C200 H191 0.950 . S
C200 C199 1.398 . S
C200 C201 1.391 . S
C201 H189 0.950 . S
C201 C197 1.393 . S
C201 C200 1.391 . S
C202 H192 0.950 . S
C202 C203 1.386 . S
C202 C204 1.391 . S
C203 C202 1.386 . S
C203 C207 1.393 . S
C204 H193 0.950 . S
C204 C202 1.391 . S
C204 C205 1.400 . S
C205 C199 1.491 . S
C205 C204 1.400 . S
C205 C206 1.398 . S
C206 H194 0.950 . S
C206 C205 1.398 . S
C206 C207 1.391 . S
C207 H195 0.950 . S
C207 C203 1.393 . S
C207 C206 1.391 . S
H208 C216 0.950 . S
H209 C221 0.950 . S
H210 C218 0.950 . S
H211 C220 0.950 . S
H212 C222 0.950 . S
H213 C224 0.950 . S
H214 C226 0.950 . S
H215 C227 0.950 . S
C216 H208 0.950 . S
C216 C217 1.386 . S
C216 C218 1.391 . S
C217 C216 1.386 . S
C217 C221 1.393 . S
C218 H210 0.950 . S
C218 C216 1.391 . S
C218 C219 1.400 . S
C219 C218 1.400 . S
C219 C220 1.398 . S
C219 C225 1.491 . S
C220 H211 0.950 . S
C220 C219 1.398 . S
C220 C221 1.391 . S
C221 H209 0.950 . S
C221 C217 1.393 . S
C221 C220 1.391 . S
C222 H212 0.950 . S
C222 C223 1.386 . S
C222 C224 1.391 . S
C223 C222 1.386 . S
C223 C227 1.393 . S
C224 H213 0.950 . S
C224 C222 1.391 . S
C224 C225 1.400 . S
C225 C219 1.491 . S
C225 C224 1.400 . S
C225 C226 1.398 . S
C226 H214 0.950 . S
C226 C225 1.398 . S
C226 C227 1.391 . S
C227 H215 0.950 . S
C227 C223 1.393 . S
C227 C226 1.391 . S
H228 C236 0.950 . S
H229 C241 0.950 . S
H230 C238 0.950 . S
H231 C240 0.950 . S
H232 C242 0.950 . S
H233 C244 0.950 . S
H234 C246 0.950 . S
H235 C247 0.950 . S
C236 H228 0.950 . S
C236 C237 1.386 . S
C236 C238 1.391 . S
C237 C236 1.386 . S
C237 C241 1.393 . S
C238 H230 0.950 . S
C238 C236 1.391 . S
C238 C239 1.400 . S
C239 C238 1.400 . S
C239 C240 1.398 . S
C239 C245 1.491 . S
C240 H231 0.950 . S
C240 C239 1.398 . S
C240 C241 1.391 . S
C241 H229 0.950 . S
C241 C237 1.393 . S
C241 C240 1.391 . S
C242 H232 0.950 . S
C242 C243 1.386 . S
C242 C244 1.391 . S
C243 C242 1.386 . S
C243 C247 1.393 . S
C244 H233 0.950 . S
C244 C242 1.391 . S
C244 C245 1.400 . S
C245 C239 1.491 . S
C245 C244 1.400 . S
C245 C246 1.398 . S
C246 H234 0.950 . S
C246 C245 1.398 . S
C246 C247 1.391 . S
C247 H235 0.950 . S
C247 C243 1.393 . S
C247 C246 1.391 . S
H248 C256 0.950 . S
H249 C261 0.950 . S
H250 C258 0.950 . S
H251 C260 0.950 . S
H252 C262 0.950 . S
H253 C264 0.950 . S
H254 C266 0.950 . S
H255 C267 0.950 . S
C256 H248 0.950 . S
C256 C257 1.386 . S
C256 C258 1.391 . S
C257 C256 1.386 . S
C257 C261 1.393 . S
C258 H250 0.950 . S
C258 C256 1.391 . S
C258 C259 1.400 . S
C259 C258 1.400 . S
C259 C260 1.398 . S
C259 C265 1.491 . S
C260 H251 0.950 . S
C260 C259 1.398 . S
C260 C261 1.391 . S
C261 H249 0.950 . S
C261 C257 1.393 . S
C261 C260 1.391 . S
C262 H252 0.950 . S
C262 C263 1.386 . S
C262 C264 1.391 . S
C263 C262 1.386 . S
C263 C267 1.393 . S
C264 H253 0.950 . S
C264 C262 1.391 . S
C264 C265 1.400 . S
C265 C259 1.491 . S
C265 C264 1.400 . S
C265 C266 1.398 . S
C266 H254 0.950 . S
C266 C265 1.398 . S
C266 C267 1.391 . S
C267 H255 0.950 . S
C267 C263 1.393 . S
C267 C266 1.391 . S
H268 C276 0.950 . S
H269 C281 0.950 . S
H270 C278 0.950 . S
H271 C280 0.950 . S
H272 C282 0.950 . S
H273 C284 0.950 . S
H274 C286 0.950 . S
H275 C287 0.950 . S
C276 H268 0.950 . S
C276 C277 1.386 . S
C276 C278 1.391 . S
C277 C276 1.386 . S
C277 C281 1.393 . S
C278 H270 0.950 . S
C278 C276 1.391 . S
C278 C279 1.400 . S
C279 C278 1.400 . S
C279 C280 1.398 . S
C279 C285 1.491 . S
C280 H271 0.950 . S
C280 C279 1.398 . S
C280 C281 1.391 . S
C281 H269 0.950 . S
C281 C277 1.393 . S
C281 C280 1.391 . S
C282 H272 0.950 . S
C282 C283 1.386 . S
C282 C284 1.391 . S
C283 C282 1.386 . S
C283 C287 1.393 . S
C284 H273 0.950 . S
C284 C282 1.391 . S
C284 C285 1.400 . S
C285 C279 1.491 . S
C285 C284 1.400 . S
C285 C286 1.398 . S
C286 H274 0.950 . S
C286 C285 1.398 . S
C286 C287 1.391 . S
C287 H275 0.950 . S
C287 C283 1.393 . S
C287 C286 1.391 . S
H288 C296 0.950 . S
H289 C301 0.950 . S
H290 C298 0.950 . S
H291 C300 0.950 . S
H292 C302 0.950 . S
H293 C304 0.950 . S
H294 C306 0.950 . S
H295 C307 0.950 . S
C296 H288 0.950 . S
C296 C297 1.386 . S
C296 C298 1.391 . S
C297 C296 1.386 . S
C297 C301 1.393 . S
C298 H290 0.950 . S
C298 C296 1.391 . S
C298 C299 1.400 . S
C299 C298 1.400 . S
C299 C300 1.398 . S
C299 C305 1.491 . S
C300 H291 0.950 . S
C300 C299 1.398 . S
C300 C301 1.391 . S
C301 H289 0.950 . S
C301 C297 1.393 . S
C301 C300 1.391 . S
C302 H292 0.950 . S
C302 C303 1.386 . S
C302 C304 1.391 . S
C303 C302 1.386 . S
C303 C307 1.393 . S
C304 H293 0.950 . S
C304 C302 1.391 . S
C304 C305 1.400 . S
C305 C299 1.491 . S
C305 C304 1.400 . S
C305 C306 1.398 . S
C306 H294 0.950 . S
C306 C305 1.398 . S
C306 C307 1.391 . S
C307 H295 0.950 . S
C307 C303 1.393 . S
C307 C306 1.391 . S
H308 C316 0.950 . S
H309 C321 0.950 . S
H310 C318 0.950 . S
H311 C320 0.950 1_455 S
H312 C322 0.950 . S
H313 C324 0.950 . S
H314 C326 0.950 1_655 S
H315 C327 0.950 . S
C316 H308 0.950 . S
C316 C317 1.386 . S
C316 C318 1.391 . S
C317 C316 1.386 . S
C317 C321 1.393 . S
C318 H310 0.950 . S
C318 C316 1.391 . S
C318 C319 1.400 . S
C319 C318 1.400 . S
C319 C320 1.398 . S
C319 C325 1.491 1_655 S
C320 H311 0.950 1_655 S
C320 C319 1.398 . S
C320 C321 1.391 . S
C321 H309 0.950 . S
C321 C317 1.393 . S
C321 C320 1.391 . S
C322 H312 0.950 . S
C322 C323 1.386 . S
C322 C324 1.391 . S
C323 C322 1.386 . S
C323 C327 1.393 . S
C324 H313 0.950 . S
C324 C322 1.391 . S
C324 C325 1.400 . S
C325 C319 1.491 1_455 S
C325 C324 1.400 . S
C325 C326 1.398 . S
C326 H314 0.950 1_455 S
C326 C325 1.398 . S
C326 C327 1.391 . S
C327 H315 0.950 . S
C327 C323 1.393 . S
C327 C326 1.391 . S
H328 C336 0.950 . S
H329 C341 0.950 . S
H330 C338 0.950 . S
H331 C340 0.950 . S
H332 C342 0.950 . S
H333 C344 0.950 . S
H334 C346 0.950 . S
H335 C347 0.950 . S
C336 H328 0.950 . S
C336 C337 1.386 . S
C336 C338 1.391 . S
C337 C336 1.386 . S
C337 C341 1.393 . S
C338 H330 0.950 . S
C338 C336 1.391 . S
C338 C339 1.400 . S
C339 C338 1.400 . S
C339 C340 1.398 . S
C339 C345 1.491 1_545 S
C340 H331 0.950 . S
C340 C339 1.398 . S
C340 C341 1.391 . S
C341 H329 0.950 . S
C341 C337 1.393 . S
C341 C340 1.391 . S
C342 H332 0.950 . S
C342 C343 1.386 . S
C342 C344 1.391 . S
C343 C342 1.386 . S
C343 C347 1.393 . S
C344 H333 0.950 . S
C344 C342 1.391 . S
C344 C345 1.400 . S
C345 C339 1.491 1_565 S
C345 C344 1.400 . S
C345 C346 1.398 . S
C346 H334 0.950 . S
C346 C345 1.398 . S
C346 C347 1.391 . S
C347 H335 0.950 . S
C347 C343 1.393 . S
C347 C346 1.391 . S
H348 C356 0.950 . S
H349 C361 0.950 . S
H350 C358 0.950 . S
H351 C360 0.950 . S
H352 C362 0.950 . S
H353 C364 0.950 . S
H354 C366 0.950 . S
H355 C367 0.950 . S
C356 H348 0.950 . S
C356 C357 1.386 . S
C356 C358 1.391 . S
C357 C356 1.386 . S
C357 C361 1.393 . S
C358 H350 0.950 . S
C358 C356 1.391 . S
C358 C359 1.400 . S
C359 C358 1.400 . S
C359 C360 1.398 . S
C359 C365 1.491 . S
C360 H351 0.950 . S
C360 C359 1.398 . S
C360 C361 1.391 . S
C361 H349 0.950 . S
C361 C357 1.393 . S
C361 C360 1.391 . S
C362 H352 0.950 . S
C362 C363 1.386 . S
C362 C364 1.391 . S
C363 C362 1.386 . S
C363 C367 1.393 . S
C364 H353 0.950 . S
C364 C362 1.391 . S
C364 C365 1.400 . S
C365 C359 1.491 . S
C365 C364 1.400 . S
C365 C366 1.398 . S
C366 H354 0.950 . S
C366 C365 1.398 . S
C366 C367 1.391 . S
C367 H355 0.950 . S
C367 C363 1.393 . S
C367 C366 1.391 . S
H368 C376 0.950 . S
H369 C381 0.950 . S
H370 C378 0.950 . S
H371 C380 0.950 . S
H372 C382 0.950 . S
H373 C384 0.950 . S
H374 C386 0.950 . S
H375 C387 0.950 . S
C376 H368 0.950 . S
C376 C377 1.386 . S
C376 C378 1.391 . S
C377 C376 1.386 . S
C377 C381 1.393 . S
C378 H370 0.950 . S
C378 C376 1.391 . S
C378 C379 1.400 . S
C379 C378 1.400 . S
C379 C380 1.398 . S
C379 C385 1.491 1_655 S
C380 H371 0.950 . S
C380 C379 1.398 . S
C380 C381 1.391 . S
C381 H369 0.950 . S
C381 C377 1.393 . S
C381 C380 1.391 . S
C382 H372 0.950 . S
C382 C383 1.386 . S
C382 C384 1.391 . S
C383 C382 1.386 . S
C383 C387 1.393 . S
C384 H373 0.950 . S
C384 C382 1.391 . S
C384 C385 1.400 . S
C385 C379 1.491 1_455 S
C385 C384 1.400 . S
C385 C386 1.398 . S
C386 H374 0.950 . S
C386 C385 1.398 . S
C386 C387 1.391 . S
C387 H375 0.950 . S
C387 C383 1.393 . S
C387 C386 1.391 . S
H388 C396 0.950 . S
H389 C401 0.950 . S
H390 C398 1.005 . S
H391 C400 0.950 1_545 S
H392 C402 0.950 . S
H393 C404 1.005 . S
H394 C406 0.950 1_565 S
H395 C407 0.950 . S
C396 H388 0.950 . S
C396 C397 1.386 . S
C396 C398 1.358 1_554 S
C397 C396 1.386 . S
C397 C401 1.393 . S
C398 H390 1.005 . S
C398 C396 1.358 1_556 S
C398 C399 1.381 1_556 S
C399 C398 1.381 1_554 S
C399 C400 1.398 . S
C399 C405 1.491 1_564 S
C400 H391 0.950 1_565 S
C400 C399 1.398 . S
C400 C401 1.391 . S
C401 H389 0.950 . S
C401 C397 1.393 . S
C401 C400 1.391 . S
C402 H392 0.950 . S
C402 C403 1.386 . S
C402 C404 1.358 1_556 S
C403 C402 1.386 . S
C403 C407 1.393 . S
C404 H393 1.005 . S
C404 C402 1.358 1_554 S
C404 C405 1.381 1_554 S
C405 C399 1.491 1_546 S
C405 C404 1.381 1_556 S
C405 C406 1.398 . S
C406 H394 0.950 1_545 S
C406 C405 1.398 . S
C406 C407 1.391 . S
C407 H395 0.950 . S
C407 C403 1.393 . S
C407 C406 1.391 . S
H408 C416 0.950 . S
H409 C421 0.950 . S
H410 C418 0.950 . S
H411 C420 0.950 . S
H412 C422 0.951 1_556 S
H413 C424 0.950 . S
H414 C426 0.950 . S
H415 C427 0.950 . S
C416 H408 0.950 . S
C416 C417 1.386 . S
C416 C418 1.391 . S
C417 C416 1.386 . S
C417 C421 1.393 . S
C418 H410 0.950 . S
C418 C416 1.391 . S
C418 C419 1.400 . S
C419 C418 1.400 . S
C419 C420 1.398 . S
C419 C425 1.491 . S
C420 H411 0.950 . S
C420 C419 1.398 . S
C420 C421 1.391 . S
C421 H409 0.950 . S
C421 C417 1.393 . S
C421 C420 1.391 . S
C422 H412 0.951 1_554 S
C422 C423 1.387 1_554 S
C422 C424 1.389 . S
C423 C422 1.387 1_556 S
C423 C427 1.393 . S
C424 H413 0.950 . S
C424 C422 1.389 . S
C424 C425 1.400 . S
C425 C419 1.491 . S
C425 C424 1.400 . S
C425 C426 1.398 . S
C426 H414 0.950 . S
C426 C425 1.398 . S
C426 C427 1.391 1_554 S
C427 H415 0.950 . S
C427 C423 1.393 . S
C427 C426 1.391 1_556 S
H428 C436 0.950 . S
H429 C441 0.950 . S
H430 C438 0.950 . S
H431 C440 0.950 . S
H432 C442 0.950 . S
H433 C444 0.950 . S
H434 C446 0.952 1_655 S
H435 C447 0.950 . S
C436 H428 0.950 . S
C436 C437 1.386 . S
C436 C438 1.391 . S
C437 C436 1.386 . S
C437 C441 1.393 . S
C438 H430 0.950 . S
C438 C436 1.391 . S
C438 C439 1.400 . S
C439 C438 1.400 . S
C439 C440 1.398 . S
C439 C445 1.491 . S
C440 H431 0.950 . S
C440 C439 1.398 . S
C440 C441 1.391 . S
C441 H429 0.950 . S
C441 C437 1.393 . S
C441 C440 1.391 . S
C442 H432 0.950 . S
C442 C443 1.386 . S
C442 C444 1.391 . S
C443 C442 1.386 . S
C443 C447 1.393 . S
C444 H433 0.950 . S
C444 C442 1.391 . S
C444 C445 1.400 1_455 S
C445 C439 1.491 . S
C445 C444 1.400 1_655 S
C445 C446 1.379 1_655 S
C446 H434 0.952 1_455 S
C446 C445 1.379 1_455 S
C446 C447 1.409 . S
C447 H435 0.950 . S
C447 C443 1.393 . S
C447 C446 1.409 . S
H448 C456 0.950 . S
H449 C461 0.950 . S
H450 C458 0.950 . S
H451 C460 0.950 . S
H452 C462 0.950 . S
H453 C464 0.950 . S
H454 C466 0.950 . S
H455 C467 0.950 . S
C456 H448 0.950 . S
C456 C457 1.386 . S
C456 C458 1.391 . S
C457 C456 1.386 . S
C457 C461 1.393 . S
C458 H450 0.950 . S
C458 C456 1.391 . S
C458 C459 1.400 1_545 S
C459 C458 1.400 1_565 S
C459 C460 1.398 . S
C459 C465 1.491 . S
C460 H451 0.950 . S
C460 C459 1.398 . S
C460 C461 1.391 1_565 S
C461 H449 0.950 . S
C461 C457 1.393 . S
C461 C460 1.391 1_545 S
C462 H452 0.950 . S
C462 C463 1.386 . S
C462 C464 1.391 . S
C463 C462 1.386 . S
C463 C467 1.393 . S
C464 H453 0.950 . S
C464 C462 1.391 . S
C464 C465 1.400 . S
C465 C459 1.491 . S
C465 C464 1.400 . S
C465 C466 1.398 . S
C466 H454 0.950 . S
C466 C465 1.398 . S
C466 C467 1.391 . S
C467 H455 0.950 . S
C467 C463 1.393 . S
C467 C466 1.391 . S
H468 C476 0.950 . S
H469 C481 0.950 . S
H470 C478 0.950 . S
H471 C480 0.950 . S
H472 C482 0.950 . S
H473 C484 0.950 . S
H474 C486 0.950 . S
H475 C487 0.950 . S
C476 H468 0.950 . S
C476 C477 1.386 . S
C476 C478 1.391 . S
C477 C476 1.386 . S
C477 C481 1.393 . S
C478 H470 0.950 . S
C478 C476 1.391 . S
C478 C479 1.400 . S
C479 C478 1.400 . S
C479 C480 1.398 . S
C479 C485 1.491 . S
C480 H471 0.950 . S
C480 C479 1.398 . S
C480 C481 1.391 . S
C481 H469 0.950 . S
C481 C477 1.393 . S
C481 C480 1.391 . S
C482 H472 0.950 . S
C482 C483 1.386 . S
C482 C484 1.391 . S
C483 C482 1.386 . S
C483 C487 1.393 . S
C484 H473 0.950 . S
C484 C482 1.391 . S
C484 C485 1.400 . S
C485 C479 1.491 . S
C485 C484 1.400 . S
C485 C486 1.398 . S
C486 H474 0.950 . S
C486 C485 1.398 . S
C486 C487 1.391 . S
C487 H475 0.950 . S
C487 C483 1.393 . S
C487 C486 1.391 . S
H488 C496 0.950 . S
H489 C501 0.950 . S
H490 C498 0.950 . S
H491 C500 0.950 . S
H492 C502 0.950 . S
H493 C504 0.950 . S
H494 C506 0.950 . S
H495 C507 0.950 . S
C496 H488 0.950 . S
C496 C497 1.386 . S
C496 C498 1.391 . S
C497 C496 1.386 . S
C497 C501 1.393 . S
C498 H490 0.950 . S
C498 C496 1.391 . S
C498 C499 1.400 . S
C499 C498 1.400 . S
C499 C500 1.398 . S
C499 C505 1.491 . S
C500 H491 0.950 . S
C500 C499 1.398 . S
C500 C501 1.391 . S
C501 H489 0.950 . S
C501 C497 1.393 . S
C501 C500 1.391 . S
C502 H492 0.950 . S
C502 C503 1.386 . S
C502 C504 1.391 1_655 S
C503 C502 1.386 . S
C503 C507 1.393 . S
C504 H493 0.950 . S
C504 C502 1.391 1_455 S
C504 C505 1.400 . S
C505 C499 1.491 . S
C505 C504 1.400 . S
C505 C506 1.398 1_455 S
C506 H494 0.950 . S
C506 C505 1.398 1_655 S
C506 C507 1.391 . S
C507 H495 0.950 . S
C507 C503 1.393 . S
C507 C506 1.391 . S
H508 C516 0.950 . S
H509 C521 0.950 . S
H510 C518 0.950 . S
H511 C520 0.950 . S
H512 C522 0.950 . S
H513 C524 0.950 . S
H514 C526 0.950 . S
H515 C527 0.950 . S
C516 H508 0.950 . S
C516 C517 1.386 . S
C516 C518 1.391 . S
C517 C516 1.386 . S
C517 C521 1.393 . S
C518 H510 0.950 . S
C518 C516 1.391 . S
C518 C519 1.400 . S
C519 C518 1.400 . S
C519 C520 1.398 . S
C519 C525 1.491 . S
C520 H511 0.950 . S
C520 C519 1.398 . S
C520 C521 1.391 . S
C521 H509 0.950 . S
C521 C517 1.393 . S
C521 C520 1.391 . S
C522 H512 0.950 . S
C522 C523 1.386 . S
C522 C524 1.391 1_565 S
C523 C522 1.386 . S
C523 C527 1.393 . S
C524 H513 0.950 . S
C524 C522 1.391 1_545 S
C524 C525 1.400 . S
C525 C519 1.491 . S
C525 C524 1.400 . S
C525 C526 1.398 1_545 S
C526 H514 0.950 . S
C526 C525 1.398 1_565 S
C526 C527 1.391 . S
C527 H515 0.950 . S
C527 C523 1.393 . S
C527 C526 1.391 . S
H528 C536 0.950 . S
H529 C541 0.950 . S
H530 C538 0.950 . S
H531 C540 0.950 . S
H532 C542 0.950 . S
H533 C544 0.950 . S
H534 C546 0.950 . S
H535 C547 0.950 . S
C536 H528 0.950 . S
C536 C537 1.386 . S
C536 C538 1.391 . S
C537 C536 1.386 . S
C537 C541 1.393 . S
C538 H530 0.950 . S
C538 C536 1.391 . S
C538 C539 1.400 . S
C539 C538 1.400 . S
C539 C540 1.398 . S
C539 C545 1.491 . S
C540 H531 0.950 . S
C540 C539 1.398 . S
C540 C541 1.391 . S
C541 H529 0.950 . S
C541 C537 1.393 . S
C541 C540 1.391 . S
C542 H532 0.950 . S
C542 C543 1.386 . S
C542 C544 1.391 . S
C543 C542 1.386 . S
C543 C547 1.393 . S
C544 H533 0.950 . S
C544 C542 1.391 . S
C544 C545 1.400 . S
C545 C539 1.491 . S
C545 C544 1.400 . S
C545 C546 1.398 . S
C546 H534 0.950 . S
C546 C545 1.398 . S
C546 C547 1.391 . S
C547 H535 0.950 . S
C547 C543 1.393 . S
C547 C546 1.391 . S
H548 C556 0.950 . S
H549 C561 0.950 . S
H550 C558 0.950 . S
H551 C560 0.950 . S
H552 C562 0.950 . S
H553 C564 0.950 . S
H554 C566 0.950 . S
H555 C567 0.950 . S
C556 H548 0.950 . S
C556 C557 1.386 . S
C556 C558 1.391 . S
C557 C556 1.386 . S
C557 C561 1.393 . S
C558 H550 0.950 . S
C558 C556 1.391 . S
C558 C559 1.400 . S
C559 C558 1.400 . S
C559 C560 1.398 . S
C559 C565 1.491 . S
C560 H551 0.950 . S
C560 C559 1.398 . S
C560 C561 1.391 . S
C561 H549 0.950 . S
C561 C557 1.393 . S
C561 C560 1.391 . S
C562 H552 0.950 . S
C562 C563 1.386 1_556 S
C562 C564 1.391 . S
C563 C562 1.386 1_554 S
C563 C567 1.393 . S
C564 H553 0.950 . S
C564 C562 1.391 . S
C564 C565 1.400 1_455 S
C565 C559 1.491 . S
C565 C564 1.400 1_655 S
C565 C566 1.398 . S
C566 H554 0.950 . S
C566 C565 1.398 . S
C566 C567 1.391 1_656 S
C567 H555 0.950 . S
C567 C563 1.393 . S
C567 C566 1.391 1_454 S
H568 C576 0.950 . S
H569 C581 0.950 . S
H570 C578 0.950 . S
H571 C580 0.950 . S
H572 C582 0.950 . S
H573 C584 0.950 1_565 S
H574 C586 0.947 . S
H575 C587 0.950 . S
C576 H568 0.950 . S
C576 C577 1.386 . S
C576 C578 1.391 . S
C577 C576 1.386 . S
C577 C581 1.393 . S
C578 H570 0.950 . S
C578 C576 1.391 . S
C578 C579 1.400 . S
C579 C578 1.400 . S
C579 C580 1.398 . S
C579 C585 1.491 . S
C580 H571 0.950 . S
C580 C579 1.398 . S
C580 C581 1.391 . S
C581 H569 0.950 . S
C581 C577 1.393 . S
C581 C580 1.391 . S
C582 H572 0.950 . S
C582 C583 1.386 . S
C582 C584 1.391 . S
C583 C582 1.386 . S
C583 C587 1.393 . S
C584 H573 0.950 1_545 S
C584 C582 1.391 . S
C584 C585 1.400 1_545 S
C585 C579 1.491 . S
C585 C584 1.400 1_565 S
C585 C586 1.398 1_565 S
C586 H574 0.947 . S
C586 C585 1.398 1_545 S
C586 C587 1.391 . S
C587 H575 0.950 . S
C587 C583 1.393 . S
C587 C586 1.391 . S
H588 C596 0.950 . S
H589 C601 0.950 . S
H590 C598 0.950 . S
H591 C600 0.950 . S
H592 C602 0.950 . S
H593 C604 0.950 . S
H594 C606 0.950 . S
H595 C607 0.950 . S
C596 H588 0.950 . S
C596 C597 1.386 . S
C596 C598 1.391 . S
C597 C596 1.386 . S
C597 C601 1.393 . S
C598 H590 0.950 . S
C598 C596 1.391 . S
C598 C599 1.400 . S
C599 C598 1.400 . S
C599 C600 1.398 . S
C599 C605 1.491 . S
C600 H591 0.950 . S
C600 C599 1.398 . S
C600 C601 1.391 . S
C601 H589 0.950 . S
C601 C597 1.393 . S
C601 C600 1.391 . S
C602 H592 0.950 . S
C602 C603 1.386 . S
C602 C604 1.391 . S
C603 C602 1.386 . S
C603 C607 1.393 . S
C604 H593 0.950 . S
C604 C602 1.391 . S
C604 C605 1.400 . S
C605 C599 1.491 . S
C605 C604 1.400 . S
C605 C606 1.398 . S
C606 H594 0.950 . S
C606 C605 1.398 . S
C606 C607 1.391 . S
C607 H595 0.950 . S
C607 C603 1.393 . S
C607 C606 1.391 . S
H608 C616 0.950 . S
H609 C621 0.950 . S
H610 C618 0.950 . S
H611 C620 0.950 . S
H612 C622 0.950 . S
H613 C624 0.950 . S
H614 C626 0.950 . S
H615 C627 0.950 . S
C616 H608 0.950 . S
C616 C617 1.386 . S
C616 C618 1.391 . S
C617 C616 1.386 . S
C617 C621 1.393 . S
C618 H610 0.950 . S
C618 C616 1.391 . S
C618 C619 1.400 . S
C619 C618 1.400 . S
C619 C620 1.398 . S
C619 C625 1.491 . S
C620 H611 0.950 . S
C620 C619 1.398 . S
C620 C621 1.391 . S
C621 H609 0.950 . S
C621 C617 1.393 . S
C621 C620 1.391 . S
C622 H612 0.950 . S
C622 C623 1.386 . S
C622 C624 1.391 1_655 S
C623 C622 1.386 . S
C623 C627 1.393 . S
C624 H613 0.950 . S
C624 C622 1.391 1_455 S
C624 C625 1.400 . S
C625 C619 1.491 . S
C625 C624 1.400 . S
C625 C626 1.398 1_455 S
C626 H614 0.950 . S
C626 C625 1.398 1_655 S
C626 C627 1.391 . S
C627 H615 0.950 . S
C627 C623 1.393 . S
C627 C626 1.391 . S
H628 C636 0.950 . S
H629 C641 0.950 . S
H630 C638 0.950 . S
H631 C640 0.950 . S
H632 C642 0.950 . S
H633 C644 0.950 . S
H634 C646 0.950 . S
H635 C647 0.950 . S
C636 H628 0.950 . S
C636 C637 1.386 . S
C636 C638 1.391 1_565 S
C637 C636 1.386 . S
C637 C641 1.393 . S
C638 H630 0.950 . S
C638 C636 1.391 1_545 S
C638 C639 1.400 . S
C639 C638 1.400 . S
C639 C640 1.398 1_545 S
C639 C645 1.491 . S
C640 H631 0.950 . S
C640 C639 1.398 1_565 S
C640 C641 1.391 . S
C641 H629 0.950 . S
C641 C637 1.393 . S
C641 C640 1.391 . S
C642 H632 0.950 . S
C642 C643 1.386 . S
C642 C644 1.391 . S
C643 C642 1.386 . S
C643 C647 1.393 . S
C644 H633 0.950 . S
C644 C642 1.391 . S
C644 C645 1.400 . S
C645 C639 1.491 . S
C645 C644 1.400 . S
C645 C646 1.398 . S
C646 H634 0.950 . S
C646 C645 1.398 . S
C646 C647 1.391 . S
C647 H635 0.950 . S
C647 C643 1.393 . S
C647 C646 1.391 . S
C177 C113 1.580 . S
C183 C12 1.576 . S
C197 C15 1.577 . S
C203 C139 1.589 . S
C217 C29 1.588 . S
C223 C140 1.582 . S
C237 C54 1.574 . S
C243 C154 1.589 . S
C257 C85 1.578 . S
C263 C57 1.589 . S
C277 C83 1.572 . S
C283 C110 1.589 . S
C297 C138 1.363 . S
C303 C13 1.363 . S
C317 C14 1.375 . S
C323 C141 1.364 . S
C337 C155 1.364 . S
C343 C28 1.362 . S
C357 C55 1.378 . S
C363 C84 1.371 . S
C377 C111 1.378 . S
C383 C56 1.379 . S
C397 C112 1.374 . S
C403 C82 1.365 . S
C417 C0 1.951 . S
C423 C70 1.918 . S
C437 C27 1.956 . S
C443 C1 1.917 . S
C457 C26 1.920 . S
C463 C41 1.949 . S
C477 C42 1.951 . S
C483 C40 1.918 . S
C497 C69 1.952 . S
C503 C43 1.924 . S
C517 C71 1.950 . S
C523 C68 1.928 . S
C537 C97 1.957 . S
C543 C99 1.912 . S
C557 C98 1.958 . S
C563 C124 1.917 . S
C577 C125 1.954 . S
C583 C126 1.921 . S
C597 C127 1.954 . S
C603 C153 1.921 . S
C617 C152 1.949 . S
C623 C167 1.927 . S
C637 C96 1.917 . S
C643 C166 1.958 . S
