# Generated by pormake.
# Topology cag, (4)-cn, num edge types: 1
# Building blocks:
#     Node 0, Type 0, BuildingBlock: UXUYUI_clean_sbu_0, # of connection points: 4
#     Node 1, Type 0, BuildingBlock: UXUYUI_clean_sbu_0, # of connection points: 4
#     Node 2, Type 0, BuildingBlock: UXUYUI_clean_sbu_0, # of connection points: 4
#     Node 3, Type 0, BuildingBlock: UXUYUI_clean_sbu_0, # of connection points: 4
#     Node 4, Type 0, BuildingBlock: UXUYUI_clean_sbu_0, # of connection points: 4
#     Node 5, Type 0, BuildingBlock: UXUYUI_clean_sbu_0, # of connection points: 4
#     Node 6, Type 0, BuildingBlock: UXUYUI_clean_sbu_0, # of connection points: 4
#     Node 7, Type 0, BuildingBlock: UXUYUI_clean_sbu_0, # of connection points: 4
#     Node 8, Type 0, BuildingBlock: UXUYUI_clean_sbu_0, # of connection points: 4
#     Node 9, Type 0, BuildingBlock: UXUYUI_clean_sbu_0, # of connection points: 4
#     Node 10, Type 0, BuildingBlock: UXUYUI_clean_sbu_0, # of connection points: 4
#     Node 11, Type 0, BuildingBlock: UXUYUI_clean_sbu_0, # of connection points: 4
#     Node 12, Type 0, BuildingBlock: UXUYUI_clean_sbu_0, # of connection points: 4
#     Node 13, Type 0, BuildingBlock: UXUYUI_clean_sbu_0, # of connection points: 4
#     Node 14, Type 0, BuildingBlock: UXUYUI_clean_sbu_0, # of connection points: 4
#     Node 15, Type 0, BuildingBlock: UXUYUI_clean_sbu_0, # of connection points: 4
#     Edge 16, Type (0, 0), BuildingBlock: OJICUG_clean_linker_0, # of connection points: 2
#     Edge 17, Type (0, 0), BuildingBlock: OJICUG_clean_linker_0, # of connection points: 2
#     Edge 18, Type (0, 0), BuildingBlock: OJICUG_clean_linker_0, # of connection points: 2
#     Edge 19, Type (0, 0), BuildingBlock: OJICUG_clean_linker_0, # of connection points: 2
#     Edge 20, Type (0, 0), BuildingBlock: OJICUG_clean_linker_0, # of connection points: 2
#     Edge 21, Type (0, 0), BuildingBlock: OJICUG_clean_linker_0, # of connection points: 2
#     Edge 22, Type (0, 0), BuildingBlock: OJICUG_clean_linker_0, # of connection points: 2
#     Edge 23, Type (0, 0), BuildingBlock: OJICUG_clean_linker_0, # of connection points: 2
#     Edge 24, Type (0, 0), BuildingBlock: OJICUG_clean_linker_0, # of connection points: 2
#     Edge 25, Type (0, 0), BuildingBlock: OJICUG_clean_linker_0, # of connection points: 2
#     Edge 26, Type (0, 0), BuildingBlock: OJICUG_clean_linker_0, # of connection points: 2
#     Edge 27, Type (0, 0), BuildingBlock: OJICUG_clean_linker_0, # of connection points: 2
#     Edge 28, Type (0, 0), BuildingBlock: OJICUG_clean_linker_0, # of connection points: 2
#     Edge 29, Type (0, 0), BuildingBlock: OJICUG_clean_linker_0, # of connection points: 2
#     Edge 30, Type (0, 0), BuildingBlock: OJICUG_clean_linker_0, # of connection points: 2
#     Edge 31, Type (0, 0), BuildingBlock: OJICUG_clean_linker_0, # of connection points: 2
#     Edge 32, Type (0, 0), BuildingBlock: OJICUG_clean_linker_0, # of connection points: 2
#     Edge 33, Type (0, 0), BuildingBlock: OJICUG_clean_linker_0, # of connection points: 2
#     Edge 34, Type (0, 0), BuildingBlock: OJICUG_clean_linker_0, # of connection points: 2
#     Edge 35, Type (0, 0), BuildingBlock: OJICUG_clean_linker_0, # of connection points: 2
#     Edge 36, Type (0, 0), BuildingBlock: OJICUG_clean_linker_0, # of connection points: 2
#     Edge 37, Type (0, 0), BuildingBlock: OJICUG_clean_linker_0, # of connection points: 2
#     Edge 38, Type (0, 0), BuildingBlock: OJICUG_clean_linker_0, # of connection points: 2
#     Edge 39, Type (0, 0), BuildingBlock: OJICUG_clean_linker_0, # of connection points: 2
#     Edge 40, Type (0, 0), BuildingBlock: OJICUG_clean_linker_0, # of connection points: 2
#     Edge 41, Type (0, 0), BuildingBlock: OJICUG_clean_linker_0, # of connection points: 2
#     Edge 42, Type (0, 0), BuildingBlock: OJICUG_clean_linker_0, # of connection points: 2
#     Edge 43, Type (0, 0), BuildingBlock: OJICUG_clean_linker_0, # of connection points: 2
#     Edge 44, Type (0, 0), BuildingBlock: OJICUG_clean_linker_0, # of connection points: 2
#     Edge 45, Type (0, 0), BuildingBlock: OJICUG_clean_linker_0, # of connection points: 2
#     Edge 46, Type (0, 0), BuildingBlock: OJICUG_clean_linker_0, # of connection points: 2
#     Edge 47, Type (0, 0), BuildingBlock: OJICUG_clean_linker_0, # of connection points: 2
# Relax obj value: 0.065
# Max RMSD: 0.090
# Mean RMSD: 0.089
data_MOF--net-cag--node1-UXUYUI_clean_sbu_0--edge1-OJICUG_clean_linker_0
_symmetry_space_group_name_H-M    P1
_symmetry_Int_Tables_number       1
_symmetry_cell_setting            triclinic
loop_
_symmetry_equiv_pos_as_xyz
'x, y, z'
_cell_length_a     50.394176
_cell_length_b     59.548825
_cell_length_c     52.263976
_cell_angle_alpha  90.017188
_cell_angle_beta   89.985288
_cell_angle_gamma 90.02195
loop_
_atom_site_label
_atom_site_type_symbol
_atom_site_fract_x
_atom_site_fract_y
_atom_site_fract_z
_atom_type_partial_charge
Li0 Li 0.30771 0.15679 0.07847 0.0
Li1 Li 0.34946 0.14111 0.0954 0.0
Li2 Li 0.31266 0.11617 0.0783 0.0
Li3 Li 0.3077 0.13554 0.12037 0.0
C4 C 0.33764 0.14974 0.03753 0.0
N5 N 0.34235 0.17316 0.99216 0.0
C6 C 0.3596 0.16358 0.03331 0.0
C7 C 0.31821 0.14761 0.01861 0.0
C8 C 0.36159 0.17533 0.01024 0.0
C9 C 0.3209 0.15966 0.99583 0.0
C10 C 0.33881 0.1777 0.12845 0.0
C11 C 0.36027 0.18287 0.16927 0.0
N12 N 0.36461 0.20482 0.16341 0.0
C13 C 0.34327 0.20036 0.12292 0.0
C14 C 0.34719 0.16891 0.15188 0.0
C15 C 0.35644 0.21377 0.14081 0.0
C16 C 0.2669 0.18258 0.0545 0.0
N17 N 0.29318 0.18211 0.06037 0.0
C18 C 0.29983 0.21745 0.03946 0.0
C19 C 0.3096 0.19918 0.05338 0.0
C20 C 0.27279 0.21838 0.03299 0.0
C21 C 0.25622 0.20066 0.04083 0.0
H22 H 0.25421 0.16888 0.06036 0.0
H23 H 0.33037 0.19855 0.05848 0.0
C24 C 0.4011 0.12422 0.09427 0.0
N25 N 0.38731 0.14365 0.09727 0.0
C26 C 0.4288 0.12425 0.09499 0.0
C27 C 0.42779 0.1644 0.10143 0.0
C28 C 0.40003 0.16359 0.10062 0.0
C29 C 0.44259 0.14453 0.09855 0.0
H30 H 0.39052 0.10863 0.09133 0.0
H31 H 0.38873 0.17891 0.1023 0.0
C32 C 0.2606 0.12051 0.08619 0.0
N33 N 0.21824 0.09256 0.07567 0.0
C34 C 0.24835 0.10854 0.10593 0.0
C35 C 0.25121 0.11842 0.06115 0.0
C36 C 0.22696 0.09448 0.10021 0.0
C37 C 0.22982 0.10414 0.05621 0.0
C38 C 0.34471 0.09829 0.12727 0.0
C39 C 0.33602 0.076 0.1279 0.0
C40 C 0.36414 0.10546 0.14453 0.0
C41 C 0.34667 0.06132 0.14603 0.0
C42 C 0.37431 0.09026 0.16236 0.0
N43 N 0.36542 0.0687 0.16275 0.0
C44 C 0.321 0.08647 0.03724 0.0
C45 C 0.29137 0.0718 0.06818 0.0
C46 C 0.31964 0.06659 0.02311 0.0
N47 N 0.30708 0.08873 0.05939 0.0
C48 C 0.2893 0.05162 0.05454 0.0
C49 C 0.30384 0.0487 0.03181 0.0
H50 H 0.33362 0.09998 0.03075 0.0
H51 H 0.28093 0.0737 0.0861 0.0
C52 C 0.27989 0.15316 0.16283 0.0
N53 N 0.29298 0.13458 0.15449 0.0
C54 C 0.26929 0.15396 0.18759 0.0
C55 C 0.28585 0.11648 0.19485 0.0
C56 C 0.29586 0.11633 0.16989 0.0
C57 C 0.2723 0.13548 0.20414 0.0
H58 H 0.27773 0.16744 0.15021 0.0
H59 H 0.30599 0.10161 0.16297 0.0
O60 O 0.3351 0.13842 0.06015 0.0
O61 O 0.32601 0.16435 0.11109 0.0
O62 O 0.2816 0.1343 0.09141 0.0
O63 O 0.33445 0.11287 0.10962 0.0
H64 H 0.37482 0.16538 0.04777 0.0
H65 H 0.30114 0.1369 0.02159 0.0
H66 H 0.3784 0.1862 0.00675 0.0
H67 H 0.30593 0.1583 0.98108 0.0
H68 H 0.3669 0.17626 0.18745 0.0
H69 H 0.33673 0.20748 0.10496 0.0
H70 H 0.34349 0.15156 0.15668 0.0
H71 H 0.36015 0.2313 0.13673 0.0
H72 H 0.31326 0.23086 0.03411 0.0
H73 H 0.2353 0.2006 0.03612 0.0
H74 H 0.43927 0.10847 0.09298 0.0
H75 H 0.43753 0.18048 0.10377 0.0
H76 H 0.25535 0.11001 0.12542 0.0
H77 H 0.26047 0.1276 0.04568 0.0
H78 H 0.21733 0.08504 0.11526 0.0
H79 H 0.22243 0.10225 0.03689 0.0
H80 H 0.32109 0.07013 0.11465 0.0
H81 H 0.37149 0.1225 0.14406 0.0
H82 H 0.34002 0.04406 0.14681 0.0
H83 H 0.38933 0.09559 0.17584 0.0
H84 H 0.33099 0.0652 1.00558 0.0
H85 H 0.27715 0.03819 0.06216 0.0
H86 H 0.25863 0.16884 0.19353 0.0
H87 H 0.2891 0.10191 0.20681 0.0
Li88 Li 0.18643 0.89172 0.57783 0.0
Li89 Li 0.19341 0.87214 0.62079 0.0
Li90 Li 0.1938 0.85034 0.57809 0.0
Li91 Li 0.1542 0.86719 0.59517 0.0
C92 C 0.2422 0.88517 0.59033 0.0
N93 N 0.29088 0.90655 0.59052 0.0
C94 C 0.24785 0.90146 0.60879 0.0
C95 C 0.26144 0.87954 0.57215 0.0
C96 C 0.27253 0.91214 0.60851 0.0
C97 C 0.28589 0.8906 0.57251 0.0
C98 C 0.14464 0.90526 0.61855 0.0
C99 C 0.11189 0.91242 0.65118 0.0
N100 N 0.09691 0.92373 0.63378 0.0
C101 C 0.12903 0.91708 0.60103 0.0
C102 C 0.1361 0.90297 0.64386 0.0
C103 C 0.10492 0.92624 0.60909 0.0
C104 C 0.17434 0.9232 0.53895 0.0
N105 N 0.19084 0.91965 0.55915 0.0
C106 C 0.20968 0.95634 0.55362 0.0
C107 C 0.20818 0.93585 0.56675 0.0
C108 C 0.19314 0.9603 0.53237 0.0
C109 C 0.1755 0.94317 0.52503 0.0
H110 H 0.1598 0.9107 0.53378 0.0
H111 H 0.22039 0.93322 0.58342 0.0
C112 C 0.22071 0.85495 0.66388 0.0
N113 N 0.20848 0.87352 0.65443 0.0
C114 C 0.23122 0.85502 0.68866 0.0
C115 C 0.21653 0.8934 0.69349 0.0
C116 C 0.20627 0.89256 0.66863 0.0
C117 C 0.22915 0.87441 0.70392 0.0
H118 H 0.22217 0.84001 0.65217 0.0
H119 H 0.19641 0.9071 0.66068 0.0
C120 C 0.17353 0.86754 0.53382 0.0
N121 N 0.18813 0.86681 0.48283 0.0
C122 C 0.15495 0.86195 0.51501 0.0
C123 C 0.19955 0.87271 0.52666 0.0
C124 C 0.16271 0.86169 0.48934 0.0
C125 C 0.20654 0.87227 0.5008 0.0
C126 C 0.15875 0.82718 0.61848 0.0
C127 C 0.14529 0.81471 0.59993 0.0
C128 C 0.15397 0.82312 0.64441 0.0
C129 C 0.12692 0.7985 0.60766 0.0
C130 C 0.13548 0.80673 0.65136 0.0
N131 N 0.12243 0.79488 0.63299 0.0
C132 C 0.2344 0.81845 0.56671 0.0
C133 C 0.19521 0.81463 0.54207 0.0
C134 C 0.24606 0.80032 0.55385 0.0
N135 N 0.20946 0.82528 0.56055 0.0
C136 C 0.20621 0.79667 0.52851 0.0
C137 C 0.23197 0.78929 0.53431 0.0
H138 H 0.24527 0.82713 0.58157 0.0
H139 H 0.17523 0.82005 0.53782 0.0
C140 C 0.10188 0.86726 0.57627 0.0
N141 N 0.11625 0.86362 0.59787 0.0
C142 C 0.07419 0.8663 0.57687 0.0
C143 C 0.07644 0.85779 0.62199 0.0
C144 C 0.10411 0.85899 0.62052 0.0
C145 C 0.06104 0.86156 0.59997 0.0
H146 H 0.11192 0.87145 0.55864 0.0
H147 H 0.11584 0.85667 0.6376 0.0
O148 O 0.21833 0.87423 0.59056 0.0
O149 O 0.16798 0.89572 0.61084 0.0
O150 O 0.16621 0.86756 0.55907 0.0
O151 O 0.17659 0.84327 0.61132 0.0
H152 H 0.23318 0.90606 0.62294 0.0
H153 H 0.25758 0.86671 0.55795 0.0
H154 H 0.27708 0.9249 0.62258 0.0
H155 H 0.30093 0.88647 0.5585 0.0
H156 H 0.10493 0.91066 0.67066 0.0
H157 H 0.13531 0.91889 0.58134 0.0
H158 H 0.14784 0.8937 0.65759 0.0
H159 H 0.09253 0.93528 0.5957 0.0
H160 H 0.22316 0.96912 0.56054 0.0
H161 H 0.16251 0.94507 0.50869 0.0
H162 H 0.24106 0.84009 0.69569 0.0
H163 H 0.21416 0.90863 0.70458 0.0
H164 H 0.13476 0.85772 0.52018 0.0
H165 H 0.21415 0.87716 0.54084 0.0
H166 H 0.14853 0.85736 0.4746 0.0
H167 H 0.2266 0.87629 0.49503 0.0
H168 H 0.14875 0.81774 0.57979 0.0
H169 H 0.16429 0.83265 0.65898 0.0
H170 H 0.1162 0.78882 0.59351 0.0
H171 H 0.13146 0.80346 0.67134 0.0
H172 H 0.26602 0.79521 0.55884 0.0
H173 H 0.19452 0.78844 0.51386 0.0
H174 H 0.06323 0.86981 0.55951 0.0
H175 H 0.06724 0.85396 0.64019 0.0
Li176 Li 0.30604 0.87555 0.89149 0.0
Li177 Li 0.3109 0.89528 0.93212 0.0
Li178 Li 0.34771 0.87097 0.9163 0.0
Li179 Li 0.30602 0.85468 0.93283 0.0
C180 C 0.32863 0.91942 0.8897 0.0
N181 N 0.31994 0.96125 0.86844 0.0
C182 C 0.30285 0.92646 0.88406 0.0
C183 C 0.35002 0.93362 0.88443 0.0
C184 C 0.29885 0.94767 0.87335 0.0
C185 C 0.34522 0.95472 0.8737 0.0
C186 C 0.25769 0.88713 0.92935 0.0
C187 C 0.23014 0.89793 0.96502 0.0
N188 N 0.21292 0.90793 0.94856 0.0
C189 C 0.23959 0.89732 0.91275 0.0
C190 C 0.25284 0.88725 0.95567 0.0
C191 C 0.21711 0.90782 0.92285 0.0
C192 C 0.26809 0.86599 0.85283 0.0
N193 N 0.2918 0.87614 0.85734 0.0
C194 C 0.29566 0.88617 0.81313 0.0
C195 C 0.30564 0.88611 0.83809 0.0
C196 C 0.27118 0.87582 0.8078 0.0
C197 C 0.25735 0.86565 0.82813 0.0
H198 H 0.25752 0.85812 0.86846 0.0
H199 H 0.32459 0.89388 0.84206 0.0
C200 C 0.32447 0.92756 0.96846 0.0
N201 N 0.30556 0.92292 0.95068 0.0
C202 C 0.32382 0.94767 0.9822 0.0
C203 C 0.28404 0.95802 0.95934 0.0
C204 C 0.28554 0.93769 0.94589 0.0
C205 C 0.30353 0.96333 0.97762 0.0
H206 H 0.34038 0.91573 0.97173 0.0
H207 H 0.271 0.934 0.93132 0.0
C208 C 0.3368 0.83826 0.87899 0.0
N209 N 0.35935 0.8208 0.83511 0.0
C210 C 0.33229 0.81589 0.87223 0.0
C211 C 0.35277 0.85177 0.86344 0.0
C212 C 0.34388 0.80736 0.84996 0.0
C213 C 0.36399 0.84263 0.84134 0.0
C214 C 0.33735 0.86398 0.97438 0.0
C215 C 0.35853 0.84912 0.97764 0.0
C216 C 0.32116 0.86932 0.99522 0.0
C217 C 0.36279 0.83942 1.00163 0.0
C218 C 0.32608 0.85928 0.0189 0.0
N219 N 0.34659 0.84464 0.02158 0.0
C220 C 0.39959 0.8875 0.91805 0.0
C221 C 0.39776 0.84809 0.91212 0.0
C222 C 0.42729 0.88704 0.91783 0.0
N223 N 0.38546 0.86825 0.91513 0.0
C224 C 0.4255 0.84683 0.91189 0.0
C225 C 0.4407 0.86649 0.91484 0.0
H226 H 0.38927 0.90325 0.92069 0.0
H227 H 0.38605 0.83296 0.91018 0.0
C228 C 0.26524 0.82725 0.95463 0.0
N229 N 0.29185 0.82918 0.95092 0.0
C230 C 0.2548 0.80883 0.96786 0.0
C231 C 0.29928 0.7945 0.973 0.0
C232 C 0.3088 0.81305 0.95938 0.0
C233 C 0.27187 0.79213 0.9775 0.0
H234 H 0.25202 0.8399 0.94712 0.0
H235 H 0.32979 0.81457 0.95556 0.0
O236 O 0.33298 0.89876 0.90035 0.0
O237 O 0.27991 0.8769 0.91984 0.0
O238 O 0.32541 0.84685 0.90063 0.0
O239 O 0.3328 0.87357 0.95101 0.0
H240 H 0.28612 0.91566 0.88793 0.0
H241 H 0.37014 0.92841 0.88855 0.0
H242 H 0.27897 0.95332 0.86895 0.0
H243 H 0.36159 0.96589 0.86954 0.0
H244 H 0.22622 0.89825 0.98537 0.0
H245 H 0.24287 0.89717 0.89229 0.0
H246 H 0.26644 0.87917 0.96871 0.0
H247 H 0.20301 0.91587 0.91024 0.0
H248 H 0.30725 0.89392 0.79808 0.0
H249 H 0.23829 0.8577 0.82507 0.0
H250 H 0.33912 0.95092 0.99628 0.0
H251 H 0.26825 0.96971 0.95493 0.0
H252 H 0.31994 0.80524 0.88407 0.0
H253 H 0.35647 0.86913 0.86836 0.0
H254 H 0.34056 0.79007 0.84449 0.0
H255 H 0.37637 0.85289 0.82912 0.0
H256 H 0.37135 0.84491 0.96176 0.0
H257 H 0.30508 0.8812 0.99319 0.0
H258 H 0.37897 0.82773 1.00437 0.0
H259 H 0.31363 0.86319 0.03517 0.0
H260 H 0.43805 0.90268 0.91981 0.0
H261 H 0.4349 0.83057 0.90989 0.0
H262 H 0.2335 0.80758 0.97016 0.0
H263 H 0.31337 0.7823 0.98013 0.0
Li264 Li 0.19583 0.15486 0.43452 0.0
Li265 Li 0.15496 0.14016 0.4182 0.0
Li266 Li 0.18879 0.11419 0.43199 0.0
Li267 Li 0.19428 0.137 0.39177 0.0
C268 C 0.17657 0.13387 0.47805 0.0
N269 N 0.19139 0.12846 0.52856 0.0
C270 C 0.15747 0.13454 0.49741 0.0
C271 C 0.20323 0.13039 0.48436 0.0
C272 C 0.16536 0.13179 0.52284 0.0
C273 C 0.21031 0.12771 0.51001 0.0
C274 C 0.16598 0.18575 0.40769 0.0
C275 C 0.15993 0.22441 0.3953 0.0
N276 N 0.14565 0.22805 0.41699 0.0
C277 C 0.15126 0.18987 0.42987 0.0
C278 C 0.1704 0.20314 0.39026 0.0
C279 C 0.14114 0.21137 0.43423 0.0
C280 C 0.23508 0.1879 0.4457 0.0
N281 N 0.21172 0.17896 0.45383 0.0
C282 C 0.21028 0.20481 0.48892 0.0
C283 C 0.1992 0.18716 0.47492 0.0
C284 C 0.23437 0.21454 0.48102 0.0
C285 C 0.24675 0.20579 0.45899 0.0
H286 H 0.24451 0.18125 0.42871 0.0
H287 H 0.18046 0.18008 0.48091 0.0
C288 C 0.10294 0.12876 0.43219 0.0
N289 N 0.11698 0.14333 0.41746 0.0
C290 C 0.07523 0.12874 0.43154 0.0
C291 C 0.0768 0.15937 0.4013 0.0
C292 C 0.10452 0.15845 0.40211 0.0
C293 C 0.06163 0.14422 0.41597 0.0
H294 H 0.11336 0.11671 0.44398 0.0
H295 H 0.11607 0.16964 0.39022 0.0
C296 C 0.24102 0.11853 0.4124 0.0
N297 N 0.28228 0.09165 0.39585 0.0
C298 C 0.23636 0.10151 0.39451 0.0
C299 C 0.26666 0.12191 0.42182 0.0
C300 C 0.25749 0.08811 0.38638 0.0
C301 C 0.28725 0.10811 0.41325 0.0
C302 C 0.14531 0.10465 0.38986 0.0
C303 C 0.13377 0.08534 0.40023 0.0
C304 C 0.13271 0.11582 0.36972 0.0
C305 C 0.10962 0.07766 0.39044 0.0
C306 C 0.10856 0.10763 0.36049 0.0
N307 N 0.0976 0.08889 0.37097 0.0
C308 C 0.17137 0.07942 0.46313 0.0
C309 C 0.21554 0.07311 0.44961 0.0
C310 C 0.17146 0.0595 0.47719 0.0
N311 N 0.19312 0.08586 0.4496 0.0
C312 C 0.21633 0.05278 0.46307 0.0
C313 C 0.19403 0.0456 0.47712 0.0
H314 H 0.15384 0.08989 0.46307 0.0
H315 H 0.23288 0.07855 0.43927 0.0
C316 C 0.22911 0.15112 0.35177 0.0
N317 N 0.20852 0.13726 0.35757 0.0
C318 C 0.24 0.1512 0.32709 0.0
C319 C 0.20815 0.1229 0.31478 0.0
C320 C 0.19812 0.12318 0.33971 0.0
C321 C 0.2295 0.13696 0.30807 0.0
H322 H 0.23724 0.16198 0.3664 0.0
H323 H 0.18209 0.11202 0.34481 0.0
O324 O 0.16897 0.13637 0.45308 0.0
O325 O 0.17642 0.16493 0.4031 0.0
O326 O 0.22085 0.13224 0.42027 0.0
O327 O 0.16861 0.11276 0.39962 0.0
H328 H 0.13675 0.13714 0.4928 0.0
H329 H 0.21831 0.12975 0.46968 0.0
H330 H 0.15079 0.13228 0.53803 0.0
H331 H 0.23085 0.12502 0.51517 0.0
H332 H 0.1632 0.23804 0.38197 0.0
H333 H 0.14764 0.17663 0.44359 0.0
H334 H 0.18185 0.20022 0.37304 0.0
H335 H 0.12972 0.21479 0.45131 0.0
H336 H 0.20008 0.2106 0.50591 0.0
H337 H 0.26506 0.21288 0.45178 0.0
H338 H 0.06472 0.11632 0.44275 0.0
H339 H 0.06747 0.17188 0.3893 0.0
H340 H 0.21664 0.09852 0.38712 0.0
H341 H 0.27058 0.1351 0.43558 0.0
H342 H 0.25417 0.07486 0.37258 0.0
H343 H 0.30719 0.11053 0.42041 0.0
H344 H 0.14331 0.07642 0.41571 0.0
H345 H 0.14125 0.13092 0.36165 0.0
H346 H 0.1004 0.0628 0.39836 0.0
H347 H 0.09847 0.11624 0.34509 0.0
H348 H 0.15396 0.05521 0.48817 0.0
H349 H 0.23417 0.04269 0.46211 0.0
H350 H 0.25672 0.16206 0.32314 0.0
H351 H 0.19903 0.11184 0.30089 0.0
Li352 Li 0.68288 0.89505 0.93021 0.0
Li353 Li 0.68914 0.85284 0.93193 0.0
Li354 Li 0.68935 0.87358 0.8902 0.0
Li355 Li 0.64911 0.87005 0.91478 0.0
C356 C 0.73806 0.88171 0.93032 0.0
N357 N 0.78637 0.89176 0.95256 0.0
C358 C 0.74334 0.87512 0.95547 0.0
C359 C 0.75746 0.89321 0.91639 0.0
C360 C 0.76785 0.88042 0.9664 0.0
C361 C 0.78172 0.8982 0.928 0.0
C362 C 0.64064 0.87078 0.96399 0.0
C363 C 0.60539 0.84864 0.98234 0.0
N364 N 0.59284 0.86782 0.98963 0.0
C365 C 0.62748 0.89028 0.97176 0.0
C366 C 0.6296 0.84978 0.96939 0.0
C367 C 0.6033 0.88843 0.98467 0.0
C368 C 0.67094 0.94026 0.94216 0.0
N369 N 0.68772 0.92319 0.94827 0.0
C370 C 0.70709 0.94561 0.98153 0.0
C371 C 0.70552 0.9255 0.96768 0.0
C372 C 0.6901 0.96359 0.97548 0.0
C373 C 0.67206 0.96069 0.95523 0.0
H374 H 0.65615 0.93793 0.92746 0.0
H375 H 0.71798 0.91157 0.97301 0.0
C376 C 0.72025 0.81347 0.93796 0.0
N377 N 0.70404 0.82808 0.95042 0.0
C378 C 0.73135 0.7952 0.95096 0.0
C379 C 0.70879 0.80729 0.98935 0.0
C380 C 0.69823 0.82537 0.97565 0.0
C381 C 0.72562 0.79186 0.97703 0.0
H382 H 0.72451 0.81601 0.91787 0.0
H383 H 0.68552 0.83736 0.9852 0.0
C384 C 0.66889 0.91617 0.88409 0.0
N385 N 0.68176 0.95425 0.85657 0.0
C386 C 0.64952 0.92716 0.86964 0.0
C387 C 0.6948 0.92452 0.88453 0.0
C388 C 0.65642 0.9464 0.85586 0.0
C389 C 0.70092 0.9438 0.8705 0.0
C390 C 0.65937 0.83596 0.8781 0.0
C391 C 0.6427 0.84874 0.86246 0.0
C392 C 0.66513 0.81376 0.87146 0.0
C393 C 0.63207 0.83907 0.84037 0.0
C394 C 0.65411 0.80469 0.84921 0.0
N395 N 0.63795 0.81743 0.83425 0.0
C396 C 0.73 0.86681 0.85298 0.0
C397 C 0.68995 0.88172 0.83651 0.0
C398 C 0.74146 0.86709 0.82856 0.0
N399 N 0.70469 0.87409 0.85649 0.0
C400 C 0.70056 0.88225 0.81181 0.0
C401 C 0.7267 0.87491 0.80749 0.0
H402 H 0.74133 0.86081 0.86917 0.0
H403 H 0.66984 0.88736 0.83966 0.0
C404 C 0.59731 0.88695 0.91376 0.0
N405 N 0.61123 0.86742 0.91313 0.0
C406 C 0.56962 0.88665 0.91404 0.0
C407 C 0.57098 0.8461 0.91234 0.0
C408 C 0.59873 0.84719 0.91231 0.0
C409 C 0.55606 0.86603 0.91346 0.0
H410 H 0.6078 0.90279 0.91448 0.0
H411 H 0.6103 0.83189 0.91204 0.0
O412 O 0.71441 0.8763 0.91906 0.0
O413 O 0.66389 0.87227 0.95061 0.0
O414 O 0.66242 0.89717 0.89741 0.0
O415 O 0.67018 0.84505 0.89975 0.0
H416 H 0.72853 0.86634 0.96659 0.0
H417 H 0.75386 0.89816 0.89677 0.0
H418 H 0.77213 0.87555 0.98591 0.0
H419 H 0.79688 0.90714 0.91747 0.0
H420 H 0.5965 0.8325 0.98648 0.0
H421 H 0.63571 0.90666 0.96762 0.0
H422 H 0.63942 0.83453 0.96325 0.0
H423 H 0.59281 0.90337 0.99067 0.0
H424 H 0.72093 0.94673 0.99732 0.0
H425 H 0.65869 0.974 0.94953 0.0
H426 H 0.74399 0.78364 0.9406 0.0
H427 H 0.70414 0.80562 0.00949 0.0
H428 H 0.62939 0.92083 0.86905 0.0
H429 H 0.70999 0.91627 0.89563 0.0
H430 H 0.64163 0.95507 0.84459 0.0
H431 H 0.72089 0.95046 0.87069 0.0
H432 H 0.63806 0.86596 0.86724 0.0
H433 H 0.67804 0.80367 0.88337 0.0
H434 H 0.61918 0.84877 0.82807 0.0
H435 H 0.65842 0.78754 0.84382 0.0
H436 H 0.76176 0.86151 0.82629 0.0
H437 H 0.68822 0.88807 0.79621 0.0
H438 H 0.55893 0.90241 0.91458 0.0
H439 H 0.56132 0.82985 0.9121 0.0
Li440 Li 0.81447 0.15745 0.43003 0.0
Li441 Li 0.81956 0.11529 0.43067 0.0
Li442 Li 0.85338 0.13931 0.41293 0.0
Li443 Li 0.81264 0.13574 0.38945 0.0
C444 C 0.86315 0.14023 0.46228 0.0
N445 N 0.91126 0.14346 0.48736 0.0
C446 C 0.87429 0.1213 0.47386 0.0
C447 C 0.87634 0.16085 0.46366 0.0
C448 C 0.89865 0.12327 0.48641 0.0
C449 C 0.90069 0.16212 0.47636 0.0
C450 C 0.76498 0.13425 0.43235 0.0
C451 C 0.71723 0.13196 0.43336 0.0
N452 N 0.71767 0.13624 0.45893 0.0
C453 C 0.76497 0.13869 0.45861 0.0
C454 C 0.74096 0.13095 0.41956 0.0
C455 C 0.74084 0.13961 0.47171 0.0
C456 C 0.77969 0.19457 0.43767 0.0
N457 N 0.80004 0.18273 0.44814 0.0
C458 C 0.79984 0.20647 0.48512 0.0
C459 C 0.81006 0.18821 0.47149 0.0
C460 C 0.77882 0.21904 0.47484 0.0
C461 C 0.76863 0.21281 0.45081 0.0
H462 H 0.77197 0.18976 0.41914 0.0
H463 H 0.82584 0.17828 0.47968 0.0
C464 C 0.83374 0.07179 0.44569 0.0
N465 N 0.81455 0.08752 0.44928 0.0
C466 C 0.83284 0.05134 0.45871 0.0
C467 C 0.79269 0.06361 0.4796 0.0
C468 C 0.79412 0.08373 0.46575 0.0
C469 C 0.81233 0.04703 0.47632 0.0
H470 H 0.85009 0.07523 0.43288 0.0
H471 H 0.77912 0.09637 0.4686 0.0
C472 C 0.84352 0.17164 0.3748 0.0
N473 N 0.86508 0.18691 0.32941 0.0
C474 C 0.85757 0.15695 0.35891 0.0
C475 C 0.84041 0.19407 0.36759 0.0
C476 C 0.86832 0.165 0.33604 0.0
C477 C 0.85148 0.20148 0.34457 0.0
C478 C 0.83103 0.09193 0.38629 0.0
C479 C 0.84969 0.07807 0.37437 0.0
C480 C 0.80431 0.08555 0.38672 0.0
C481 C 0.84131 0.05805 0.36303 0.0
C482 C 0.79674 0.06539 0.37515 0.0
N483 N 0.81523 0.05218 0.36364 0.0
C484 C 0.90519 0.12231 0.41597 0.0
C485 C 0.90402 0.1609 0.40483 0.0
C486 C 0.93289 0.12268 0.41674 0.0
N487 N 0.89136 0.14129 0.4104 0.0
C488 C 0.93175 0.16187 0.40474 0.0
C489 C 0.94644 0.14265 0.41109 0.0
H490 H 0.89461 0.107 0.42048 0.0
H491 H 0.89263 0.17589 0.40097 0.0
C492 C 0.77459 0.14769 0.35149 0.0
N493 N 0.79667 0.13512 0.35588 0.0
C494 C 0.76314 0.14833 0.32706 0.0
C495 C 0.79721 0.12299 0.31218 0.0
C496 C 0.80819 0.12308 0.33673 0.0
C497 C 0.77441 0.13576 0.30704 0.0
H498 H 0.76599 0.15735 0.36693 0.0
H499 H 0.82617 0.11375 0.34032 0.0
O500 O 0.83967 0.1385 0.44929 0.0
O501 O 0.7883 0.13383 0.419 0.0
O502 O 0.83249 0.16415 0.39714 0.0
O503 O 0.83912 0.11154 0.3975 0.0
H504 H 0.86433 0.10523 0.47302 0.0
H505 H 0.8681 0.17562 0.45457 0.0
H506 H 0.90758 0.10874 0.49534 0.0
H507 H 0.91124 0.17792 0.47735 0.0
H508 H 0.69848 0.12938 0.42373 0.0
H509 H 0.78343 0.14127 0.46878 0.0
H510 H 0.74066 0.12763 0.3992 0.0
H511 H 0.74053 0.14298 0.49205 0.0
H512 H 0.808 0.21045 0.50375 0.0
H513 H 0.75251 0.2221 0.44213 0.0
H514 H 0.84821 0.03909 0.45495 0.0
H515 H 0.77668 0.06139 0.49317 0.0
H516 H 0.86019 0.13953 0.36413 0.0
H517 H 0.82951 0.20562 0.37965 0.0
H518 H 0.87923 0.15382 0.32357 0.0
H519 H 0.84922 0.21881 0.33875 0.0
H520 H 0.87044 0.08278 0.37392 0.0
H521 H 0.78955 0.09597 0.39584 0.0
H522 H 0.85554 0.04717 0.35373 0.0
H523 H 0.77614 0.06026 0.37533 0.0
H524 H 0.94363 0.10753 0.42166 0.0
H525 H 0.94161 0.1776 0.4005 0.0
H526 H 0.74551 0.15835 0.32394 0.0
H527 H 0.8068 0.11337 0.29721 0.0
Li528 Li 0.65097 0.13968 0.09842 0.0
Li529 Li 0.69187 0.13566 0.1217 0.0
Li530 Li 0.69016 0.15646 0.08169 0.0
Li531 Li 0.68412 0.11496 0.08005 0.0
C532 C 0.66083 0.17127 0.13643 0.0
N533 N 0.63797 0.18604 0.18145 0.0
C534 C 0.64738 0.15618 0.15232 0.0
C535 C 0.66265 0.19386 0.14345 0.0
C536 C 0.63596 0.16398 0.17499 0.0
C537 C 0.65095 0.20101 0.16629 0.0
C538 C 0.67134 0.09157 0.12416 0.0
C539 C 0.70363 0.0632 0.13487 0.0
N540 N 0.68412 0.05065 0.14579 0.0
C541 C 0.65161 0.07837 0.13542 0.0
C542 C 0.69758 0.08392 0.12381 0.0
C543 C 0.65847 0.05774 0.14628 0.0
C544 C 0.59912 0.12272 0.09925 0.0
N545 N 0.61313 0.14213 0.10138 0.0
C546 C 0.57296 0.16342 0.10419 0.0
C547 C 0.6007 0.16227 0.10403 0.0
C548 C 0.55793 0.14365 0.10147 0.0
C549 C 0.57143 0.12309 0.09922 0.0
H550 H 0.60954 0.10696 0.09701 0.0
H551 H 0.61231 0.17751 0.10535 0.0
C552 C 0.72646 0.1504 0.16139 0.0
N553 N 0.70736 0.13503 0.15567 0.0
C554 C 0.73766 0.15118 0.18592 0.0
C555 C 0.70912 0.12054 0.19842 0.0
C556 C 0.69824 0.12057 0.17383 0.0
C557 C 0.72916 0.13594 0.20475 0.0
H558 H 0.73278 0.16226 0.14696 0.0
H559 H 0.68216 0.10924 0.16955 0.0
C560 C 0.64075 0.1418 0.04959 0.0
N561 N 0.59238 0.14804 0.02577 0.0
C562 C 0.62701 0.12344 0.03948 0.0
C563 C 0.63001 0.16335 0.0474 0.0
C564 C 0.60254 0.12694 0.02756 0.0
C565 C 0.60551 0.16615 0.03532 0.0
C566 C 0.73848 0.1393 0.07953 0.0
C567 C 0.73895 0.14003 0.05279 0.0
C568 C 0.76059 0.14653 0.09338 0.0
C569 C 0.76149 0.14824 0.04036 0.0
C570 C 0.78279 0.15458 0.08023 0.0
N571 N 0.78276 0.15529 0.05422 0.0
C572 C 0.72265 0.19536 0.07554 0.0
C573 C 0.69746 0.18553 0.03893 0.0
C574 C 0.73397 0.21353 0.0625 0.0
N575 N 0.7048 0.18178 0.06361 0.0
C576 C 0.7079 0.20373 0.02534 0.0
C577 C 0.72647 0.21798 0.03709 0.0
H578 H 0.72823 0.19196 0.09515 0.0
H579 H 0.68362 0.17429 0.02969 0.0
C580 C 0.66773 0.07254 0.06342 0.0
N581 N 0.68832 0.08721 0.06163 0.0
C582 C 0.66833 0.05212 0.05031 0.0
C583 C 0.71138 0.06211 0.03353 0.0
C584 C 0.71009 0.08228 0.04729 0.0
C585 C 0.69019 0.04671 0.03473 0.0
H586 H 0.65064 0.0768 0.07496 0.0
H587 H 0.72636 0.09404 0.04628 0.0
O588 O 0.67242 0.16413 0.11419 0.0
O589 O 0.66474 0.11168 0.11324 0.0
O590 O 0.66435 0.13865 0.062 0.0
O591 O 0.71632 0.13185 0.09204 0.0
H592 H 0.64574 0.13864 0.14728 0.0
H593 H 0.67304 0.20573 0.13138 0.0
H594 H 0.62552 0.15249 0.18746 0.0
H595 H 0.65221 0.21845 0.17196 0.0
H596 H 0.72384 0.05708 0.13476 0.0
H597 H 0.6312 0.08403 0.13578 0.0
H598 H 0.71314 0.09382 0.11514 0.0
H599 H 0.64341 0.04737 0.1551 0.0
H600 H 0.56341 0.17965 0.10569 0.0
H601 H 0.5607 0.10741 0.09743 0.0
H602 H 0.753 0.16341 0.19002 0.0
H603 H 0.70152 0.10887 0.21252 0.0
H604 H 0.63503 0.10666 0.041 0.0
H605 H 0.64027 0.17771 0.05537 0.0
H606 H 0.59161 0.11287 0.01979 0.0
H607 H 0.59685 0.18271 0.03369 0.0
H608 H 0.72185 0.13476 0.04179 0.0
H609 H 0.76065 0.14591 0.11406 0.0
H610 H 0.76203 0.1491 0.01969 0.0
H611 H 0.80003 0.16028 0.09071 0.0
H612 H 0.74815 0.22417 0.07227 0.0
H613 H 0.70187 0.20641 1.00569 0.0
H614 H 0.65176 0.04071 0.05246 0.0
H615 H 0.72857 0.05889 0.02166 0.0
Li616 Li 0.81041 0.8755 0.62253 0.0
Li617 Li 0.85254 0.86991 0.60011 0.0
Li618 Li 0.81784 0.89624 0.5819 0.0
Li619 Li 0.81207 0.85489 0.58141 0.0
C620 C 0.84684 0.90874 0.63635 0.0
N621 N 0.86351 0.92951 0.68082 0.0
C622 C 0.85673 0.89598 0.65662 0.0
C623 C 0.84516 0.93207 0.63878 0.0
C624 C 0.86512 0.90677 0.67893 0.0
C625 C 0.85377 0.94227 0.66139 0.0
C626 C 0.84514 0.83101 0.62499 0.0
C627 C 0.87658 0.8008 0.61989 0.0
N628 N 0.87946 0.79972 0.64573 0.0
C629 C 0.84827 0.8295 0.65152 0.0
C630 C 0.85926 0.81644 0.60905 0.0
C631 C 0.86575 0.8136 0.66162 0.0
C632 C 0.78481 0.85694 0.66575 0.0
N633 N 0.79349 0.87666 0.65564 0.0
C634 C 0.77957 0.89646 0.69322 0.0
C635 C 0.79065 0.89629 0.66868 0.0
C636 C 0.77104 0.87625 0.70448 0.0
C637 C 0.77357 0.85633 0.69022 0.0
H638 H 0.78688 0.84159 0.65486 0.0
H639 H 0.79722 0.91187 0.66022 0.0
C640 C 0.90431 0.87131 0.58068 0.0
N641 N 0.89055 0.86644 0.60238 0.0
C642 C 0.93195 0.86971 0.58018 0.0
C643 C 0.9311 0.85844 0.62453 0.0
C644 C 0.90341 0.86013 0.62413 0.0
C645 C 0.94575 0.86325 0.60232 0.0
H646 H 0.89382 0.8767 0.56374 0.0
H647 H 0.89235 0.85644 0.64127 0.0
C648 C 0.76528 0.89246 0.59844 0.0
N649 N 0.72374 0.92049 0.61145 0.0
C650 C 0.7391 0.88554 0.59456 0.0
C651 C 0.77036 0.91363 0.60891 0.0
C652 C 0.71836 0.89996 0.60127 0.0
C653 C 0.74909 0.92755 0.61537 0.0
C654 C 0.84228 0.86484 0.54021 0.0
C655 C 0.83003 0.87564 0.51963 0.0
C656 C 0.85704 0.84534 0.53592 0.0
C657 C 0.83233 0.86648 0.49511 0.0
C658 C 0.85885 0.83668 0.51113 0.0
N659 N 0.84653 0.84733 0.49141 0.0
C660 C 0.83341 0.9393 0.56665 0.0
C661 C 0.79317 0.92772 0.54736 0.0
C662 C 0.8327 0.95963 0.55337 0.0
N663 N 0.81384 0.92387 0.5635 0.0
C664 C 0.79191 0.94772 0.53328 0.0
C665 C 0.81197 0.96405 0.53603 0.0
H666 H 0.8498 0.93569 0.57934 0.0
H667 H 0.77797 0.91505 0.545 0.0
C668 C 0.7983 0.80924 0.57213 0.0
N669 N 0.79726 0.8303 0.56216 0.0
C670 C 0.78827 0.79094 0.5584 0.0
C671 C 0.77585 0.81632 0.52446 0.0
C672 C 0.78584 0.83416 0.539 0.0
C673 C 0.77702 0.79425 0.53404 0.0
H674 H 0.80677 0.8066 0.59087 0.0
H675 H 0.78458 0.8511 0.53172 0.0
O676 O 0.838 0.89841 0.61457 0.0
O677 O 0.8282 0.84654 0.6147 0.0
O678 O 0.78574 0.87845 0.59206 0.0
O679 O 0.84003 0.87344 0.56439 0.0
H680 H 0.85731 0.87791 0.65536 0.0
H681 H 0.83704 0.94222 0.62352 0.0
H682 H 0.87274 0.89706 0.6948 0.0
H683 H 0.85259 0.96031 0.66353 0.0
H684 H 0.88771 0.7895 0.60775 0.0
H685 H 0.83754 0.84059 0.66421 0.0
H686 H 0.85687 0.81719 0.58854 0.0
H687 H 0.86848 0.81234 0.6821 0.0
H688 H 0.77822 0.91224 0.70344 0.0
H689 H 0.76681 0.84041 0.6978 0.0
H690 H 0.94244 0.87395 0.56274 0.0
H691 H 0.9409 0.85325 0.64199 0.0
H692 H 0.73486 0.86919 0.58648 0.0
H693 H 0.79048 0.91927 0.61208 0.0
H694 H 0.69798 0.89482 0.59839 0.0
H695 H 0.75273 0.94396 0.62352 0.0
H696 H 0.81866 0.8908 0.52256 0.0
H697 H 0.86705 0.837 0.55153 0.0
H698 H 0.82278 0.87457 0.47904 0.0
H699 H 0.87009 0.82153 0.50756 0.0
H700 H 0.84836 0.97171 0.55675 0.0
H701 H 0.77572 0.95004 0.51994 0.0
H702 H 0.78904 0.77442 0.56701 0.0
H703 H 0.76759 0.81984 0.50577 0.0
Li704 Li 0.81101 0.65673 0.07809 0.0
Li705 Li 0.85179 0.64167 0.09431 0.0
Li706 Li 0.81822 0.61671 0.07686 0.0
Li707 Li 0.81181 0.63511 0.12019 0.0
C708 C 0.83909 0.65336 0.03743 0.0
N709 N 0.83866 0.68132 0.99521 0.0
C710 C 0.85868 0.6698 0.0345 0.0
C711 C 0.81927 0.65118 0.01887 0.0
C712 C 0.85814 0.68373 0.013 0.0
C713 C 0.81938 0.66548 0.99769 0.0
C714 C 0.84546 0.67827 0.12417 0.0
C715 C 0.86296 0.69271 0.16386 0.0
N716 N 0.87957 0.70635 0.15047 0.0
C717 C 0.86265 0.69249 0.1108 0.0
C718 C 0.84556 0.6784 0.15092 0.0
C719 C 0.87978 0.70653 0.12445 0.0
C720 C 0.76904 0.67975 0.05192 0.0
N721 N 0.79423 0.68183 0.06098 0.0
C722 C 0.79721 0.71908 0.0439 0.0
C723 C 0.8082 0.70114 0.0575 0.0
C724 C 0.77139 0.71731 0.03395 0.0
C725 C 0.75718 0.69735 0.03833 0.0
H726 H 0.75823 0.66432 0.05499 0.0
H727 H 0.82809 0.70254 0.0649 0.0
C728 C 0.90415 0.6395 0.07539 0.0
N729 N 0.89001 0.64468 0.09675 0.0
C730 C 0.93186 0.64003 0.07571 0.0
C731 C 0.93021 0.65064 0.12026 0.0
C732 C 0.9025 0.64987 0.11907 0.0
C733 C 0.94532 0.64571 0.09836 0.0
H734 H 0.89389 0.63449 0.05814 0.0
H735 H 0.89104 0.65299 0.13616 0.0
C736 C 0.76723 0.61712 0.08554 0.0
N737 N 0.73015 0.58417 0.07513 0.0
C738 C 0.75773 0.60338 0.10519 0.0
C739 C 0.7578 0.61416 0.06061 0.0
C740 C 0.73898 0.58682 0.09953 0.0
C741 C 0.73909 0.59738 0.05573 0.0
C742 C 0.86167 0.60165 0.11371 0.0
C743 C 0.87355 0.58919 0.09414 0.0
C744 C 0.87431 0.60346 0.13743 0.0
C745 C 0.89791 0.57872 0.09866 0.0
C746 C 0.89866 0.59274 0.14118 0.0
N747 N 0.90985 0.5807 0.12188 0.0
C748 C 0.81931 0.58873 0.03283 0.0
C749 C 0.80522 0.57019 0.07053 0.0
C750 C 0.81758 0.56875 0.01891 0.0
N751 N 0.81313 0.58915 0.05814 0.0
C752 C 0.8033 0.54977 0.05734 0.0
C753 C 0.80978 0.54879 0.03116 0.0
H754 H 0.82618 0.6038 0.0235 0.0
H755 H 0.80096 0.57084 0.0908 0.0
C756 C 0.77705 0.64728 0.16041 0.0
N757 N 0.79686 0.63288 0.15388 0.0
C758 C 0.76627 0.64693 0.18509 0.0
C759 C 0.79643 0.61692 0.19592 0.0
C760 C 0.80637 0.61765 0.17094 0.0
C761 C 0.77612 0.63176 0.20345 0.0
H762 H 0.76972 0.65914 0.14642 0.0
H763 H 0.82187 0.60618 0.16523 0.0
O764 O 0.83893 0.63985 0.05864 0.0
O765 O 0.82839 0.66448 0.11122 0.0
O766 O 0.786 0.63311 0.0906 0.0
O767 O 0.83821 0.61257 0.10938 0.0
H768 H 0.87392 0.67204 0.04881 0.0
H769 H 0.80365 0.63887 0.02102 0.0
H770 H 0.87312 0.69657 0.01055 0.0
H771 H 0.80406 0.66407 0.98329 0.0
H772 H 0.86328 0.69295 0.18456 0.0
H773 H 0.86324 0.69233 0.09015 0.0
H774 H 0.8324 0.66755 0.1616 0.0
H775 H 0.89333 0.71748 0.11435 0.0
H776 H 0.80878 0.73424 0.04137 0.0
H777 H 0.7373 0.69515 0.03089 0.0
H778 H 0.94261 0.63551 0.05853 0.0
H779 H 0.93966 0.65507 0.13817 0.0
H780 H 0.7649 0.60534 0.12456 0.0
H781 H 0.76512 0.6245 0.04512 0.0
H782 H 0.73152 0.57601 0.11454 0.0
H783 H 0.73175 0.59481 0.0365 0.0
H784 H 0.86428 0.58787 0.07555 0.0
H785 H 0.86576 0.61348 0.1526 0.0
H786 H 0.90738 0.56911 0.08365 0.0
H787 H 0.90875 0.59415 0.15938 0.0
H788 H 0.8225 0.56897 0.99875 0.0
H789 H 0.79761 0.53481 0.06775 0.0
H790 H 0.75028 0.6584 0.18961 0.0
H791 H 0.80499 0.60508 0.20928 0.0
Li792 Li 0.6918 0.3952 0.58179 0.0
Li793 Li 0.69714 0.37221 0.62153 0.0
Li794 Li 0.69793 0.35461 0.57873 0.0
Li795 Li 0.65745 0.36965 0.59552 0.0
C796 C 0.74387 0.39009 0.60134 0.0
N797 N 0.78519 0.41656 0.61863 0.0
C798 C 0.73873 0.40875 0.61682 0.0
C799 C 0.77001 0.38487 0.59471 0.0
C800 C 0.7599 0.42192 0.62536 0.0
C801 C 0.79063 0.39847 0.60361 0.0
C802 C 0.64928 0.40308 0.62715 0.0
C803 C 0.61642 0.39644 0.65985 0.0
N804 N 0.6033 0.41528 0.65236 0.0
C805 C 0.63557 0.42244 0.61988 0.0
C806 C 0.63973 0.39001 0.64739 0.0
C807 C 0.61233 0.42831 0.63284 0.0
C808 C 0.67435 0.43338 0.55629 0.0
N809 N 0.69705 0.42346 0.56457 0.0
C810 C 0.72302 0.45303 0.54608 0.0
C811 C 0.72119 0.43268 0.55941 0.0
C812 C 0.69981 0.46388 0.53764 0.0
C813 C 0.67524 0.45361 0.54281 0.0
H814 H 0.65546 0.42534 0.55987 0.0
H815 H 0.73911 0.42423 0.56537 0.0
C816 C 0.72864 0.35507 0.66251 0.0
N817 N 0.71166 0.37173 0.65559 0.0
C818 C 0.73943 0.35455 0.68722 0.0
C819 C 0.71492 0.38825 0.69725 0.0
C820 C 0.70488 0.38825 0.67232 0.0
C821 C 0.73255 0.37127 0.70512 0.0
H822 H 0.73392 0.34223 0.64877 0.0
H823 H 0.69163 0.4015 0.66633 0.0
C824 C 0.67852 0.37661 0.53561 0.0
N825 N 0.69266 0.38297 0.48505 0.0
C826 C 0.65903 0.37738 0.51663 0.0
C827 C 0.70522 0.37914 0.5289 0.0
C828 C 0.66658 0.38059 0.49117 0.0
C829 C 0.71196 0.38233 0.50323 0.0
C830 C 0.66774 0.32391 0.60554 0.0
C831 C 0.65288 0.32013 0.58337 0.0
C832 C 0.67182 0.30637 0.62284 0.0
C833 C 0.64227 0.29881 0.57891 0.0
C834 C 0.66087 0.28529 0.6177 0.0
N835 N 0.64645 0.28198 0.59603 0.0
C836 C 0.7361 0.32086 0.56726 0.0
C837 C 0.70044 0.32265 0.53786 0.0
C838 C 0.74724 0.30279 0.55387 0.0
N839 N 0.71311 0.33039 0.55909 0.0
C840 C 0.71099 0.30481 0.52378 0.0
C841 C 0.73469 0.29446 0.53173 0.0
H842 H 0.74564 0.32715 0.58436 0.0
H843 H 0.68199 0.33022 0.53185 0.0
C844 C 0.60558 0.38196 0.58223 0.0
N845 N 0.61943 0.36701 0.5966 0.0
C846 C 0.57787 0.3821 0.58277 0.0
C847 C 0.57906 0.351 0.61239 0.0
C848 C 0.60679 0.35176 0.61166 0.0
C849 C 0.56408 0.3664 0.59791 0.0
H850 H 0.61615 0.39413 0.57071 0.0
H851 H 0.61819 0.34029 0.6233 0.0
O852 O 0.72359 0.37673 0.59293 0.0
O853 O 0.67164 0.39665 0.61425 0.0
O854 O 0.67128 0.37372 0.56062 0.0
O855 O 0.67867 0.34454 0.61022 0.0
H856 H 0.71865 0.41312 0.6221 0.0
H857 H 0.77429 0.37043 0.5828 0.0
H858 H 0.75621 0.43642 0.63731 0.0
H859 H 0.81096 0.39464 0.59861 0.0
H860 H 0.60869 0.38639 0.6754 0.0
H861 H 0.64274 0.4328 0.60436 0.0
H862 H 0.65 0.37485 0.6531 0.0
H863 H 0.60145 0.4432 0.62734 0.0
H864 H 0.74241 0.46025 0.54264 0.0
H865 H 0.65683 0.46092 0.53614 0.0
H866 H 0.75328 0.34133 0.69207 0.0
H867 H 0.7086 0.40134 0.71027 0.0
H868 H 0.63827 0.37554 0.52156 0.0
H869 H 0.72061 0.37867 0.54329 0.0
H870 H 0.6517 0.3812 0.47627 0.0
H871 H 0.73253 0.3843 0.49776 0.0
H872 H 0.64952 0.33349 0.56975 0.0
H873 H 0.68338 0.30903 0.64004 0.0
H874 H 0.63073 0.29565 0.56184 0.0
H875 H 0.66386 0.27155 0.63093 0.0
H876 H 0.76526 0.29521 0.56111 0.0
H877 H 0.70069 0.29933 0.50671 0.0
H878 H 0.56747 0.39471 0.57174 0.0
H879 H 0.56956 0.33836 0.6241 0.0
Li880 Li 0.81071 0.37165 0.8927 0.0
Li881 Li 0.81641 0.39459 0.93241 0.0
Li882 Li 0.85025 0.36854 0.91882 0.0
Li883 Li 0.80944 0.35402 0.93543 0.0
C884 C 0.85918 0.40161 0.88694 0.0
N885 N 0.90535 0.41275 0.8614 0.0
C886 C 0.87348 0.42075 0.894 0.0
C887 C 0.86824 0.38823 0.86677 0.0
C888 C 0.8968 0.42607 0.88087 0.0
C889 C 0.89166 0.39412 0.85413 0.0
C890 C 0.76431 0.39023 0.9128 0.0
C891 C 0.71776 0.39931 0.91034 0.0
N892 N 0.72367 0.41739 0.89549 0.0
C893 C 0.76994 0.40889 0.89749 0.0
C894 C 0.73803 0.38536 0.91925 0.0
C895 C 0.74911 0.42241 0.88894 0.0
C896 C 0.77911 0.35482 0.85164 0.0
N897 N 0.79625 0.37136 0.85862 0.0
C898 C 0.79321 0.38794 0.81699 0.0
C899 C 0.80321 0.38785 0.84193 0.0
C900 C 0.77542 0.37108 0.80906 0.0
C901 C 0.76836 0.35439 0.82691 0.0
H902 H 0.77369 0.34199 0.86534 0.0
H903 H 0.81659 0.40101 0.84797 0.0
C904 C 0.83482 0.43267 0.95743 0.0
N905 N 0.81182 0.42298 0.94953 0.0
C906 C 0.8345 0.45301 0.97072 0.0
C907 C 0.78667 0.45298 0.96814 0.0
C908 C 0.78792 0.43252 0.95494 0.0
C909 C 0.8102 0.46361 0.97613 0.0
H910 H 0.8535 0.42436 0.95366 0.0
H911 H 0.76978 0.42425 0.94927 0.0
C912 C 0.83938 0.32306 0.90873 0.0
N913 N 0.86039 0.28105 0.91831 0.0
C914 C 0.85367 0.31911 0.93121 0.0
C915 C 0.83574 0.30565 0.89115 0.0
C916 C 0.86414 0.29776 0.9357 0.0
C917 C 0.84654 0.28453 0.89633 0.0
C918 C 0.82912 0.37592 0.97864 0.0
C919 C 0.8486 0.37657 0.99764 0.0
C920 C 0.80246 0.37881 0.9853 0.0
C921 C 0.84107 0.37999 0.02307 0.0
C922 C 0.79574 0.3822 0.01094 0.0
N923 N 0.81502 0.3827 0.02914 0.0
C924 C 0.90212 0.38009 0.9327 0.0
C925 C 0.90074 0.35015 0.9029 0.0
C926 C 0.92983 0.37992 0.93246 0.0
N927 N 0.88819 0.36542 0.91801 0.0
C928 C 0.92847 0.34912 0.90241 0.0
C929 C 0.94352 0.36423 0.91724 0.0
H930 H 0.89161 0.39226 0.94426 0.0
H931 H 0.88928 0.33889 0.89102 0.0
C932 C 0.77158 0.31971 0.94551 0.0
N933 N 0.79378 0.32981 0.95479 0.0
C934 C 0.76021 0.30149 0.95845 0.0
C935 C 0.79456 0.30455 0.99044 0.0
C936 C 0.80544 0.32246 0.97671 0.0
C937 C 0.77166 0.29361 0.98135 0.0
H938 H 0.76289 0.32564 0.92783 0.0
H939 H 0.82339 0.33034 0.98354 0.0
O940 O 0.83672 0.39571 0.90002 0.0
O941 O 0.78426 0.37654 0.92123 0.0
O942 O 0.82863 0.34373 0.90398 0.0
O943 O 0.83635 0.37286 0.95365 0.0
H944 H 0.86669 0.43135 0.90946 0.0
H945 H 0.85753 0.37324 0.86123 0.0
H946 H 0.90813 0.44079 0.88619 0.0
H947 H 0.89901 0.38383 0.83862 0.0
H948 H 0.69732 0.39576 0.91521 0.0
H949 H 0.79014 0.41299 0.89234 0.0
H950 H 0.73337 0.37093 0.93103 0.0
H951 H 0.75318 0.43692 0.87711 0.0
H952 H 0.79967 0.40101 0.80401 0.0
H953 H 0.75439 0.34126 0.82202 0.0
H954 H 0.85314 0.46016 0.97704 0.0
H955 H 0.76747 0.46047 0.9718 0.0
H956 H 0.85669 0.33236 0.94505 0.0
H957 H 0.82464 0.30844 0.87371 0.0
H958 H 0.87524 0.29446 0.95301 0.0
H959 H 0.84388 0.27089 0.8829 0.0
H960 H 0.86933 0.37447 0.99275 0.0
H961 H 0.78709 0.37845 0.97088 0.0
H962 H 0.85594 0.3805 0.03799 0.0
H963 H 0.77519 0.38444 0.01636 0.0
H964 H 0.94032 0.39229 0.94376 0.0
H965 H 0.93792 0.33652 0.89059 0.0
H966 H 0.74292 0.29345 0.95027 0.0
H967 H 0.80401 0.29947 0.0081 0.0
Li968 Li 0.69881 0.65575 0.43288 0.0
Li969 Li 0.65715 0.6396 0.41606 0.0
Li970 Li 0.69335 0.61526 0.43393 0.0
Li971 Li 0.69893 0.6332 0.39145 0.0
C972 C 0.6673 0.64967 0.47369 0.0
N973 N 0.65967 0.67374 0.51829 0.0
C974 C 0.6435 0.66116 0.47778 0.0
C975 C 0.68715 0.65027 0.49237 0.0
C976 C 0.64003 0.67326 0.50044 0.0
C977 C 0.68294 0.66259 0.51476 0.0
C978 C 0.66919 0.67762 0.38396 0.0
C979 C 0.65191 0.68832 0.34267 0.0
N980 N 0.64614 0.70906 0.35202 0.0
C981 C 0.66342 0.69915 0.39304 0.0
C982 C 0.66369 0.67224 0.35846 0.0
C983 C 0.65163 0.71476 0.37665 0.0
C984 C 0.7403 0.68326 0.453 0.0
N985 N 0.71357 0.68154 0.45008 0.0
C986 C 0.70715 0.71605 0.4728 0.0
C987 C 0.69703 0.69761 0.45944 0.0
C988 C 0.7347 0.71832 0.47629 0.0
C989 C 0.75133 0.70159 0.466 0.0
H990 H 0.7531 0.67037 0.44524 0.0
H991 H 0.67585 0.69595 0.45689 0.0
C992 C 0.60541 0.62294 0.4172 0.0
N993 N 0.61929 0.64232 0.41403 0.0
C994 C 0.57773 0.62304 0.41663 0.0
C995 C 0.57888 0.66317 0.41006 0.0
C996 C 0.60663 0.66227 0.41063 0.0
C997 C 0.564 0.64336 0.41315 0.0
H998 H 0.61592 0.60734 0.42024 0.0
H999 H 0.61796 0.67755 0.40883 0.0
C1000 C 0.74437 0.61801 0.42745 0.0
N1001 N 0.78303 0.58753 0.44138 0.0
C1002 C 0.7545 0.60296 0.4094 0.0
C1003 C 0.75399 0.61769 0.45251 0.0
C1004 C 0.77404 0.58766 0.41684 0.0
C1005 C 0.7735 0.6021 0.4592 0.0
C1006 C 0.65887 0.59933 0.38355 0.0
C1007 C 0.66103 0.57597 0.38193 0.0
C1008 C 0.64306 0.61084 0.36594 0.0
C1009 C 0.64764 0.56455 0.36247 0.0
C1010 C 0.62996 0.59883 0.34677 0.0
N1011 N 0.63252 0.57613 0.34542 0.0
C1012 C 0.69242 0.5882 0.47851 0.0
C1013 C 0.70805 0.56917 0.44172 0.0
C1014 C 0.69412 0.56853 0.49297 0.0
N1015 N 0.69915 0.58819 0.45333 0.0
C1016 C 0.70989 0.54903 0.45544 0.0
C1017 C 0.70248 0.54841 0.48141 0.0
H1018 H 0.68513 0.60337 0.48732 0.0
H1019 H 0.71313 0.56951 0.42162 0.0
C1020 C 0.72828 0.64927 0.34928 0.0
N1021 N 0.71411 0.63128 0.35763 0.0
C1022 C 0.73902 0.64954 0.32458 0.0
C1023 C 0.72055 0.61267 0.31745 0.0
C1024 C 0.71046 0.61301 0.34239 0.0
C1025 C 0.73502 0.63115 0.30807 0.0
H1026 H 0.73107 0.66355 0.36181 0.0
H1027 H 0.69956 0.5987 0.34941 0.0
O1028 O 0.67112 0.63789 0.45151 0.0
O1029 O 0.68099 0.6622 0.39972 0.0
O1030 O 0.72483 0.63276 0.42068 0.0
O1031 O 0.67193 0.61074 0.40248 0.0
H1032 H 0.6279 0.66081 0.46358 0.0
H1033 H 0.70573 0.64155 0.48946 0.0
H1034 H 0.62175 0.6823 0.50383 0.0
H1035 H 0.69819 0.66333 0.52929 0.0
H1036 H 0.64747 0.68433 0.32293 0.0
H1037 H 0.6678 0.70375 0.41258 0.0
H1038 H 0.66864 0.65592 0.35081 0.0
H1039 H 0.64687 0.73142 0.38351 0.0
H1040 H 0.69338 0.72817 0.48067 0.0
H1041 H 0.7727 0.70269 0.46773 0.0
H1042 H 0.56722 0.60728 0.41875 0.0
H1043 H 0.56921 0.67928 0.40779 0.0
H1044 H 0.74717 0.60297 0.38994 0.0
H1045 H 0.74632 0.62924 0.46668 0.0
H1046 H 0.78199 0.57583 0.40312 0.0
H1047 H 0.78104 0.60157 0.47857 0.0
H1048 H 0.67296 0.56673 0.39552 0.0
H1049 H 0.64062 0.6288 0.36726 0.0
H1050 H 0.64923 0.54649 0.36093 0.0
H1051 H 0.61766 0.60756 0.33303 0.0
H1052 H 0.68864 0.56909 0.51299 0.0
H1053 H 0.71619 0.53397 0.44555 0.0
H1054 H 0.75046 0.664 0.31861 0.0
H1055 H 0.71658 0.59818 0.30556 0.0
Li1056 Li 0.18782 0.39567 0.92802 0.0
Li1057 Li 0.19399 0.35476 0.92983 0.0
Li1058 Li 0.19264 0.37532 0.88799 0.0
Li1059 Li 0.15173 0.37049 0.91277 0.0
C1060 C 0.23969 0.38986 0.92553 0.0
N1061 N 0.28081 0.4153 0.94503 0.0
C1062 C 0.25001 0.38508 0.94973 0.0
C1063 C 0.25045 0.40739 0.91111 0.0
C1064 C 0.27076 0.39819 0.9593 0.0
C1065 C 0.27119 0.42011 0.92135 0.0
C1066 C 0.15233 0.36073 0.96469 0.0
C1067 C 0.12947 0.32639 0.97531 0.0
N1068 N 0.12222 0.33544 0.99817 0.0
C1069 C 0.14463 0.36971 0.98824 0.0
C1070 C 0.14468 0.3389 0.95811 0.0
C1071 C 0.12942 0.35665 1.00492 0.0
C1072 C 0.18594 0.44298 0.93568 0.0
N1073 N 0.1937 0.42329 0.9465 0.0
C1074 C 0.20544 0.4425 0.98521 0.0
C1075 C 0.20334 0.42272 0.97082 0.0
C1076 C 0.19716 0.46305 0.97461 0.0
C1077 C 0.18764 0.46309 0.94934 0.0
H1078 H 0.17768 0.44311 0.91668 0.0
H1079 H 0.2087 0.4068 0.97932 0.0
C1080 C 0.22042 0.31288 0.93573 0.0
N1081 N 0.20959 0.3304 0.94874 0.0
C1082 C 0.2312 0.29458 0.94895 0.0
C1083 C 0.2197 0.31277 0.98875 0.0
C1084 C 0.20938 0.33079 0.97477 0.0
C1085 C 0.23071 0.29427 0.97585 0.0
H1086 H 0.22059 0.31307 0.91504 0.0
H1087 H 0.20113 0.34508 0.98473 0.0
C1088 C 0.16147 0.41277 0.87729 0.0
N1089 N 0.15349 0.44183 0.83681 0.0
C1090 C 0.13668 0.41392 0.86536 0.0
C1091 C 0.18216 0.42648 0.86871 0.0
C1092 C 0.13306 0.4287 0.84491 0.0
C1093 C 0.17774 0.44105 0.8482 0.0
C1094 C 0.16522 0.33618 0.87609 0.0
C1095 C 0.14819 0.34765 0.85954 0.0
C1096 C 0.17311 0.31429 0.87019 0.0
C1097 C 0.13934 0.33704 0.83729 0.0
C1098 C 0.1638 0.30423 0.84776 0.0
N1099 N 0.14726 0.31572 0.83191 0.0
C1100 C 0.23275 0.36795 0.85079 0.0
C1101 C 0.1928 0.38194 0.83308 0.0
C1102 C 0.24445 0.36717 0.82648 0.0
N1103 N 0.20739 0.37538 0.85371 0.0
C1104 C 0.20391 0.38195 0.80858 0.0
C1105 C 0.23002 0.37446 0.80506 0.0
H1106 H 0.24389 0.36255 0.86738 0.0
H1107 H 0.17245 0.3871 0.83545 0.0
C1108 C 0.10004 0.38513 0.92184 0.0
N1109 N 0.11391 0.36729 0.91265 0.0
C1110 C 0.07237 0.38443 0.92305 0.0
C1111 C 0.07363 0.34704 0.90511 0.0
C1112 C 0.10135 0.34829 0.9047 0.0
C1113 C 0.05883 0.36526 0.91444 0.0
H1114 H 0.11058 0.39992 0.9283 0.0
H1115 H 0.11277 0.33404 0.89821 0.0
O1116 O 0.21915 0.37743 0.91601 0.0
O1117 O 0.16709 0.37339 0.94813 0.0
O1118 O 0.16537 0.3983 0.89726 0.0
O1119 O 0.17444 0.3464 0.89779 0.0
H1120 H 0.24191 0.37153 0.9611 0.0
H1121 H 0.24291 0.41108 0.8922 0.0
H1122 H 0.27884 0.39478 0.97807 0.0
H1123 H 0.27966 0.43379 0.91044 0.0
H1124 H 0.12342 0.30948 0.97049 0.0
H1125 H 0.15037 0.38661 0.99355 0.0
H1126 H 0.15043 0.33168 0.93995 0.0
H1127 H 0.12333 0.36337 0.02323 0.0
H1128 H 0.21254 0.44158 1.00474 0.0
H1129 H 0.18122 0.4785 0.94026 0.0
H1130 H 0.23937 0.28065 0.93822 0.0
H1131 H 0.2193 0.31343 0.00945 0.0
H1132 H 0.12044 0.40345 0.87178 0.0
H1133 H 0.20144 0.42581 0.87773 0.0
H1134 H 0.114 0.42972 0.83546 0.0
H1135 H 0.1936 0.4517 0.84131 0.0
H1136 H 0.14187 0.36457 0.86385 0.0
H1137 H 0.18626 0.30516 0.88279 0.0
H1138 H 0.12617 0.34575 0.82431 0.0
H1139 H 0.16974 0.2873 0.84295 0.0
H1140 H 0.26467 0.36126 0.82447 0.0
H1141 H 0.19204 0.3874 0.79246 0.0
H1142 H 0.06163 0.39884 0.93031 0.0
H1143 H 0.06387 0.33185 0.89865 0.0
Li1144 Li 0.31555 0.65422 0.43202 0.0
Li1145 Li 0.32212 0.61219 0.42916 0.0
Li1146 Li 0.35579 0.63785 0.41369 0.0
Li1147 Li 0.31491 0.63435 0.38978 0.0
C1148 C 0.36524 0.63385 0.46267 0.0
N1149 N 0.4137 0.63195 0.48732 0.0
C1150 C 0.3758 0.61316 0.47012 0.0
C1151 C 0.3793 0.65359 0.46785 0.0
C1152 C 0.40032 0.61255 0.48256 0.0
C1153 C 0.40378 0.65226 0.48029 0.0
C1154 C 0.26764 0.62376 0.43086 0.0
C1155 C 0.22579 0.60413 0.42988 0.0
N1156 N 0.22148 0.60999 0.45469 0.0
C1157 C 0.2627 0.62974 0.45628 0.0
C1158 C 0.24897 0.61099 0.41746 0.0
C1159 C 0.23929 0.62255 0.46802 0.0
C1160 C 0.2776 0.68818 0.44239 0.0
N1161 N 0.30021 0.67843 0.45119 0.0
C1162 C 0.3012 0.70355 0.48696 0.0
C1163 C 0.31194 0.6856 0.47314 0.0
C1164 C 0.27786 0.71411 0.47837 0.0
C1165 C 0.26598 0.70601 0.45578 0.0
H1166 H 0.26854 0.68202 0.42499 0.0
H1167 H 0.3297 0.67743 0.47995 0.0
C1168 C 0.3293 0.56511 0.43792 0.0
N1169 N 0.31718 0.58391 0.44702 0.0
C1170 C 0.32784 0.54487 0.4513 0.0
C1171 C 0.30229 0.56358 0.48398 0.0
C1172 C 0.30401 0.58347 0.46976 0.0
C1173 C 0.31447 0.54387 0.47487 0.0
H1174 H 0.34091 0.5658 0.42064 0.0
H1175 H 0.29564 0.59874 0.4774 0.0
C1176 C 0.34401 0.67262 0.37815 0.0
N1177 N 0.364 0.69247 0.33443 0.0
C1178 C 0.36078 0.66053 0.36189 0.0
C1179 C 0.33741 0.69479 0.37219 0.0
C1180 C 0.37068 0.67087 0.33988 0.0
C1181 C 0.34772 0.70453 0.34999 0.0
C1182 C 0.33749 0.59282 0.38091 0.0
C1183 C 0.35798 0.58388 0.36607 0.0
C1184 C 0.31209 0.58347 0.37951 0.0
C1185 C 0.35273 0.56559 0.35011 0.0
C1186 C 0.30764 0.56518 0.36333 0.0
N1187 N 0.32788 0.55669 0.34908 0.0
C1188 C 0.40771 0.62135 0.41214 0.0
C1189 C 0.40585 0.66109 0.4101 0.0
C1190 C 0.43539 0.62188 0.41222 0.0
N1191 N 0.39358 0.64076 0.41133 0.0
C1192 C 0.43358 0.66239 0.40992 0.0
C1193 C 0.44871 0.6426 0.41128 0.0
H1194 H 0.3974 0.60544 0.41321 0.0
H1195 H 0.39411 0.67629 0.40976 0.0
C1196 C 0.27353 0.6409 0.3532 0.0
N1197 N 0.29916 0.63427 0.35619 0.0
C1198 C 0.26177 0.64081 0.3289 0.0
C1199 C 0.30297 0.62707 0.31126 0.0
C1200 C 0.31393 0.62751 0.3358 0.0
C1201 C 0.27652 0.63374 0.3075 0.0
H1202 H 0.26218 0.6462 0.3697 0.0
H1203 H 0.33431 0.62245 0.3385 0.0
O1204 O 0.34162 0.63473 0.44979 0.0
O1205 O 0.29027 0.63086 0.4189 0.0
O1206 O 0.33391 0.66286 0.39974 0.0
O1207 O 0.34218 0.61102 0.39621 0.0
H1208 H 0.36532 0.59771 0.46614 0.0
H1209 H 0.37173 0.66971 0.46174 0.0
H1210 H 0.40877 0.59664 0.48834 0.0
H1211 H 0.41499 0.66738 0.48419 0.0
H1212 H 0.21119 0.59419 0.41976 0.0
H1213 H 0.27695 0.63957 0.46696 0.0
H1214 H 0.25227 0.60651 0.39765 0.0
H1215 H 0.2353 0.62693 0.48773 0.0
H1216 H 0.31139 0.70924 0.50399 0.0
H1217 H 0.24771 0.71317 0.44857 0.0
H1218 H 0.33743 0.53021 0.44328 0.0
H1219 H 0.29232 0.56388 0.50232 0.0
H1220 H 0.36605 0.64333 0.36614 0.0
H1221 H 0.32441 0.70435 0.38458 0.0
H1222 H 0.38365 0.6617 0.32711 0.0
H1223 H 0.34276 0.72168 0.34512 0.0
H1224 H 0.3777 0.59108 0.36681 0.0
H1225 H 0.29605 0.59023 0.39085 0.0
H1226 H 0.3684 0.55848 0.33851 0.0
H1227 H 0.28809 0.55776 0.36208 0.0
H1228 H 0.44626 0.60621 0.41297 0.0
H1229 H 0.44305 0.67871 0.40942 0.0
H1230 H 0.24124 0.64591 0.32697 0.0
H1231 H 0.31525 0.62184 0.29534 0.0
Li1232 Li 0.15395 0.63867 0.09793 0.0
Li1233 Li 0.19479 0.63388 0.12213 0.0
Li1234 Li 0.1944 0.65419 0.08037 0.0
Li1235 Li 0.18868 0.61287 0.08104 0.0
C1236 C 0.15979 0.67851 0.12161 0.0
N1237 N 0.12451 0.71072 0.13867 0.0
C1238 C 0.15617 0.68198 0.14784 0.0
C1239 C 0.14573 0.69162 0.10408 0.0
C1240 C 0.13818 0.6983 0.15608 0.0
C1241 C 0.12791 0.70775 0.11307 0.0
C1242 C 0.15159 0.60283 0.13238 0.0
C1243 C 0.12258 0.57429 0.14943 0.0
N1244 N 0.11798 0.5874 0.17029 0.0
C1245 C 0.14664 0.61596 0.15401 0.0
C1246 C 0.13954 0.58179 0.13007 0.0
C1247 C 0.12956 0.6079 0.17295 0.0
C1248 C 0.10222 0.63663 0.07813 0.0
N1249 N 0.11592 0.64181 0.09976 0.0
C1250 C 0.07534 0.64953 0.12196 0.0
C1251 C 0.10304 0.64813 0.12149 0.0
C1252 C 0.06068 0.64436 0.09985 0.0
C1253 C 0.07454 0.63788 0.07771 0.0
H1254 H 0.11279 0.63127 0.06121 0.0
H1255 H 0.11416 0.652 0.13857 0.0
C1256 C 0.22017 0.65239 0.16556 0.0
N1257 N 0.21055 0.63294 0.15558 0.0
C1258 C 0.23088 0.65281 0.19024 0.0
C1259 C 0.22212 0.61305 0.19378 0.0
C1260 C 0.21147 0.61342 0.16907 0.0
C1261 C 0.23189 0.63296 0.20479 0.0
H1262 H 0.21932 0.66766 0.15437 0.0
H1263 H 0.20364 0.59816 0.16077 0.0
C1264 C 0.16616 0.64259 0.03788 0.0
N1265 N 0.16418 0.65716 0.98773 0.0
C1266 C 0.18015 0.6311 0.01886 0.0
C1267 C 0.15085 0.6613 0.03133 0.0
C1268 C 0.17897 0.63878 0.99362 0.0
C1269 C 0.15021 0.66846 0.00589 0.0
C1270 C 0.24094 0.61726 0.09941 0.0
C1271 C 0.2671 0.62424 0.09553 0.0
C1272 C 0.23594 0.59644 0.1108 0.0
C1273 C 0.2879 0.61023 0.1031 0.0
C1274 C 0.25727 0.58293 0.11812 0.0
N1275 N 0.28259 0.59004 0.11415 0.0
C1276 C 0.20865 0.69982 0.07206 0.0
C1277 C 0.22125 0.67543 0.03845 0.0
C1278 C 0.21893 0.7183 0.05884 0.0
N1279 N 0.20963 0.67892 0.0616 0.0
C1280 C 0.23146 0.69347 0.0244 0.0
C1281 C 0.23033 0.71539 0.03447 0.0
H1282 H 0.20001 0.70218 0.09078 0.0
H1283 H 0.22254 0.65861 0.0308 0.0
C1284 C 0.17104 0.57257 0.05995 0.0
N1285 N 0.19332 0.58519 0.06274 0.0
C1286 C 0.17176 0.55247 0.04621 0.0
C1287 C 0.21842 0.5586 0.03827 0.0
C1288 C 0.21679 0.57868 0.05218 0.0
C1289 C 0.19563 0.54524 0.03498 0.0
H1290 H 0.15257 0.57832 0.06818 0.0
H1291 H 0.23414 0.58921 0.05417 0.0
O1292 O 0.17719 0.66251 0.11315 0.0
O1293 O 0.16828 0.61041 0.11362 0.0
O1294 O 0.16711 0.63536 0.0627 0.0
O1295 O 0.22041 0.63089 0.09225 0.0
H1296 H 0.16702 0.67212 0.16171 0.0
H1297 H 0.14856 0.68934 0.08376 0.0
H1298 H 0.13507 0.70108 0.17631 0.0
H1299 H 0.1168 0.71794 0.0997 0.0
H1300 H 0.11311 0.55804 0.14789 0.0
H1301 H 0.15577 0.63227 0.1561 0.0
H1302 H 0.14329 0.57132 0.11355 0.0
H1303 H 0.1255 0.61794 0.18975 0.0
H1304 H 0.06553 0.65477 0.1394 0.0
H1305 H 0.0641 0.63335 0.06036 0.0
H1306 H 0.23852 0.66848 0.19776 0.0
H1307 H 0.22223 0.5974 0.20433 0.0
H1308 H 0.19202 0.61656 0.02354 0.0
H1309 H 0.13951 0.67013 0.04571 0.0
H1310 H 0.18986 0.63014 0.97874 0.0
H1311 H 0.13854 0.68297 1.00058 0.0
H1312 H 0.27127 0.64033 0.08677 0.0
H1313 H 0.21583 0.59073 0.11391 0.0
H1314 H 0.30825 0.61541 0.10022 0.0
H1315 H 0.25369 0.56678 0.12694 0.0
H1316 H 0.21818 0.73466 0.06784 0.0
H1317 H 0.23983 0.69023 1.00569 0.0
H1318 H 0.15375 0.54266 0.04444 0.0
H1319 H 0.23715 0.55389 0.02965 0.0
Li1320 Li 0.3147 0.37388 0.6212 0.0
Li1321 Li 0.35563 0.36975 0.59854 0.0
Li1322 Li 0.32139 0.39295 0.58002 0.0
Li1323 Li 0.31675 0.35107 0.58167 0.0
C1324 C 0.33322 0.41808 0.62238 0.0
N1325 N 0.31796 0.45921 0.64189 0.0
C1326 C 0.35221 0.43279 0.63231 0.0
C1327 C 0.30647 0.42432 0.62225 0.0
C1328 C 0.34409 0.4535 0.64213 0.0
C1329 C 0.29916 0.44518 0.63224 0.0
C1330 C 0.34564 0.33849 0.63746 0.0
C1331 C 0.35461 0.30934 0.66827 0.0
N1332 N 0.36721 0.32458 0.68339 0.0
C1333 C 0.35865 0.35388 0.65331 0.0
C1334 C 0.34355 0.31605 0.64499 0.0
C1335 C 0.36943 0.34652 0.67645 0.0
C1336 C 0.27901 0.36009 0.66011 0.0
N1337 N 0.29872 0.37501 0.65482 0.0
C1338 C 0.29649 0.38961 0.6975 0.0
C1339 C 0.30783 0.38939 0.67309 0.0
C1340 C 0.27615 0.37441 0.70347 0.0
C1341 C 0.26753 0.35937 0.68452 0.0
H1342 H 0.27241 0.34857 0.64542 0.0
H1343 H 0.32417 0.40052 0.66898 0.0
C1344 C 0.40728 0.38687 0.59443 0.0
N1345 N 0.39364 0.36814 0.60141 0.0
C1346 C 0.43499 0.38677 0.59396 0.0
C1347 C 0.43425 0.34838 0.60896 0.0
C1348 C 0.40651 0.34905 0.60859 0.0
C1349 C 0.44878 0.36734 0.60128 0.0
H1350 H 0.39654 0.40175 0.58863 0.0
H1351 H 0.39531 0.33419 0.6135 0.0
C1352 C 0.26952 0.37511 0.5743 0.0
N1353 N 0.22833 0.37549 0.53944 0.0
C1354 C 0.27462 0.37177 0.54827 0.0
C1355 C 0.24349 0.37858 0.5826 0.0
C1356 C 0.25351 0.37202 0.53095 0.0
C1357 C 0.22294 0.37876 0.56467 0.0
C1358 C 0.36547 0.36529 0.54954 0.0
C1359 C 0.37786 0.38217 0.53531 0.0
C1360 C 0.37719 0.34406 0.5512 0.0
C1361 C 0.40199 0.3776 0.52322 0.0
C1362 C 0.40134 0.34016 0.53885 0.0
N1363 N 0.41315 0.35688 0.52526 0.0
C1364 C 0.33879 0.43303 0.55897 0.0
C1365 C 0.29301 0.42762 0.55101 0.0
C1366 C 0.33845 0.45339 0.54575 0.0
N1367 N 0.31641 0.42043 0.5611 0.0
C1368 C 0.29182 0.44782 0.53732 0.0
C1369 C 0.31483 0.46098 0.53432 0.0
H1370 H 0.35701 0.42723 0.56768 0.0
H1371 H 0.2752 0.41782 0.55347 0.0
C1372 C 0.28224 0.31369 0.57481 0.0
N1373 N 0.30255 0.32539 0.56404 0.0
C1374 C 0.27086 0.29547 0.56188 0.0
C1375 C 0.3017 0.30152 0.52717 0.0
C1376 C 0.31222 0.31977 0.54058 0.0
C1377 C 0.28067 0.28912 0.53774 0.0
H1378 H 0.27472 0.31866 0.59336 0.0
H1379 H 0.32784 0.32966 0.53205 0.0
O1380 O 0.34105 0.39791 0.61238 0.0
O1381 O 0.33458 0.34529 0.61485 0.0
O1382 O 0.28972 0.3745 0.59175 0.0
O1383 O 0.34223 0.36961 0.56215 0.0
H1384 H 0.373 0.42824 0.6324 0.0
H1385 H 0.29148 0.41323 0.61455 0.0
H1386 H 0.35856 0.46505 0.64991 0.0
H1387 H 0.27854 0.45022 0.63229 0.0
H1388 H 0.35315 0.29202 0.67434 0.0
H1389 H 0.36045 0.37132 0.64785 0.0
H1390 H 0.33345 0.30396 0.63296 0.0
H1391 H 0.37954 0.35824 0.68889 0.0
H1392 H 0.30394 0.40121 0.71175 0.0
H1393 H 0.25189 0.34737 0.68846 0.0
H1394 H 0.44555 0.40173 0.588 0.0
H1395 H 0.44425 0.33303 0.61447 0.0
H1396 H 0.29463 0.36913 0.54145 0.0
H1397 H 0.23924 0.38108 0.60271 0.0
H1398 H 0.25716 0.36949 0.51076 0.0
H1399 H 0.20269 0.38145 0.57082 0.0
H1400 H 0.369 0.39863 0.53367 0.0
H1401 H 0.36795 0.33087 0.56233 0.0
H1402 H 0.41188 0.39053 0.51225 0.0
H1403 H 0.41076 0.32389 0.54019 0.0
H1404 H 0.35656 0.46312 0.54468 0.0
H1405 H 0.27315 0.45284 0.52885 0.0
H1406 H 0.25472 0.28632 0.57075 0.0
H1407 H 0.30955 0.29745 0.50844 0.0
C1408 C 0.23769 0.24768 0.02524 0.0
C1409 C 0.26194 0.23774 0.01824 0.0
H1410 H 0.20888 0.27324 0.01743 0.0
C1411 C 0.2758 0.24649 0.9971 0.0
H1412 H 0.22662 0.24147 0.04154 0.0
C1413 C 0.26562 0.2647 0.98327 0.0
C1414 C 0.24147 0.27475 0.9904 0.0
H1415 H 0.29442 0.2391 0.99107 0.0
H1416 H 0.27686 0.2711 0.96718 0.0
C1417 C 0.22765 0.26603 0.01157 0.0
C1418 C 0.26778 0.73457 0.51968 0.0
C1419 C 0.26611 0.73344 0.49278 0.0
H1420 H 0.25843 0.75301 0.55378 0.0
C1421 C 0.2532 0.75105 0.47978 0.0
H1422 H 0.27705 0.72122 0.53051 0.0
C1423 C 0.24213 0.76908 0.49325 0.0
C1424 C 0.24395 0.77018 0.52005 0.0
H1425 H 0.25194 0.75113 0.45911 0.0
H1426 H 0.23247 0.78238 0.48263 0.0
C1427 C 0.25701 0.75278 0.5331 0.0
C1428 C 0.23886 0.77468 0.008 0.0
C1429 C 0.26119 0.77242 0.99201 0.0
H1430 H 0.21132 0.75871 0.03322 0.0
C1431 C 0.27322 0.75114 0.9901 0.0
H1432 H 0.22919 0.79078 0.01035 0.0
C1433 C 0.26336 0.73277 1.00388 0.0
C1434 C 0.24097 0.73502 0.01979 0.0
H1435 H 0.29018 0.74852 0.97775 0.0
H1436 H 0.27356 0.71685 1.0022 0.0
C1437 C 0.22882 0.75626 0.02154 0.0
C1438 C 0.24119 0.26763 0.52144 0.0
C1439 C 0.26885 0.26993 0.52346 0.0
H1440 H 0.20868 0.24903 0.50592 0.0
C1441 C 0.28515 0.25395 0.5114 0.0
H1442 H 0.22811 0.27985 0.53019 0.0
C1443 C 0.27404 0.236 0.49778 0.0
C1444 C 0.24632 0.2337 0.49559 0.0
H1445 H 0.30655 0.25515 0.51283 0.0
H1446 H 0.28727 0.22377 0.4893 0.0
C1447 C 0.23007 0.24985 0.50756 0.0
C1448 C 0.73284 0.7424 0.02272 0.0
C1449 C 0.75949 0.73618 0.01909 0.0
H1450 H 0.70125 0.76467 0.01231 0.0
C1451 C 0.77481 0.74826 1.00127 0.0
H1452 H 0.72052 0.73359 0.03642 0.0
C1453 C 0.7638 0.76616 0.98753 0.0
C1454 C 0.73722 0.77253 0.99134 0.0
H1455 H 0.79532 0.74377 0.99777 0.0
H1456 H 0.77628 0.77523 0.9742 0.0
C1457 C 0.72186 0.76039 0.00909 0.0
C1458 C 0.78428 0.25409 0.50124 0.0
C1459 C 0.76753 0.23842 0.48922 0.0
H1460 H 0.78727 0.28421 0.52336 0.0
C1461 C 0.73994 0.24127 0.49127 0.0
H1462 H 0.80564 0.2525 0.49976 0.0
C1463 C 0.72934 0.25928 0.50515 0.0
C1464 C 0.74605 0.2751 0.51711 0.0
H1465 H 0.7265 0.22931 0.48255 0.0
H1466 H 0.70798 0.26055 0.5068 0.0
C1467 C 0.7737 0.27224 0.51488 0.0
C1468 C 0.77639 0.2591 0.00923 0.0
C1469 C 0.76002 0.27409 0.99557 0.0
H1470 H 0.77868 0.22982 0.03304 0.0
C1471 C 0.73242 0.27027 0.99575 0.0
H1472 H 0.79775 0.26104 0.00916 0.0
C1473 C 0.72159 0.25202 0.00906 0.0
C1474 C 0.738 0.23729 0.02286 0.0
H1475 H 0.71901 0.28156 0.98594 0.0
H1476 H 0.70028 0.24964 0.00892 0.0
C1477 C 0.76551 0.24108 0.02286 0.0
C1478 C 0.77865 0.75363 0.52008 0.0
C1479 C 0.76642 0.77487 0.51892 0.0
H1480 H 0.77815 0.71926 0.50821 0.0
C1481 C 0.74388 0.77735 0.50328 0.0
H1482 H 0.79627 0.75104 0.53155 0.0
C1483 C 0.73386 0.75918 0.48929 0.0
C1484 C 0.74588 0.73788 0.49071 0.0
H1485 H 0.73363 0.79329 0.50205 0.0
H1486 H 0.7167 0.76195 0.47724 0.0
C1487 C 0.76846 0.7354 0.50629 0.0
C1488 C 0.32711 0.0178 0.00798 0.0
C1489 C 0.30345 0.02691 0.01776 0.0
H1490 H 0.34565 0.99088 0.98761 0.0
C1491 C 0.27965 0.01495 0.01413 0.0
H1492 H 0.34585 0.02641 0.01066 0.0
C1493 C 0.27955 0.99443 1.00094 0.0
C1494 C 0.3033 0.98529 0.99133 0.0
H1495 H 0.26105 0.02156 0.02127 0.0
H1496 H 0.26095 0.98557 0.99858 0.0
C1497 C 0.32705 0.99728 0.99499 0.0
C1498 C 0.17025 0.99096 0.50741 0.0
C1499 C 0.1936 0.98225 0.51837 0.0
H1500 H 0.15219 0.01683 0.48527 0.0
C1501 C 0.2172 0.9947 0.51571 0.0
H1502 H 0.15149 0.98227 0.50938 0.0
C1503 C 0.2174 0.01521 0.50254 0.0
C1504 C 0.19406 0.02376 0.49135 0.0
H1505 H 0.23569 0.98855 0.52357 0.0
H1506 H 0.23587 0.02443 0.50138 0.0
C1507 C 0.17054 0.0112 0.49391 0.0
C1508 C 0.71417 0.99361 1.00079 0.0
C1509 C 0.6904 0.98491 0.99066 0.0
H1510 H 0.73281 0.01948 0.02288 0.0
C1511 C 0.6667 0.99674 0.99525 0.0
H1512 H 0.73288 0.98517 0.99749 0.0
C1513 C 0.66676 0.01674 0.00924 0.0
C1514 C 0.69045 0.02541 0.01952 0.0
H1515 H 0.64788 0.99049 0.98826 0.0
H1516 H 0.64811 0.02548 0.01177 0.0
C1517 C 0.71418 0.01354 0.01509 0.0
C1518 C 0.83586 0.01527 0.49882 0.0
C1519 C 0.81197 0.0257 0.49153 0.0
H1520 H 0.85468 0.98768 0.51738 0.0
C1521 C 0.78792 0.01557 0.49905 0.0
H1522 H 0.85486 0.0226 0.49396 0.0
C1523 C 0.78784 0.99573 0.5135 0.0
C1524 C 0.81178 0.98526 0.52062 0.0
H1525 H 0.76906 0.02282 0.49361 0.0
H1526 H 0.76892 0.98878 0.51929 0.0
C1527 C 0.83577 0.9953 0.51285 0.0
C1528 C 0.82915 0.50191 0.98527 0.0
C1529 C 0.80961 0.48555 0.99001 0.0
H1530 H 0.84484 0.53421 0.99466 0.0
C1531 C 0.78985 0.49028 0.00828 0.0
H1532 H 0.84449 0.49906 0.97113 0.0
C1533 C 0.78978 0.51075 0.02156 0.0
C1534 C 0.80946 0.52703 0.0169 0.0
H1535 H 0.77463 0.47803 0.01265 0.0
H1536 H 0.77418 0.51386 0.03535 0.0
C1537 C 0.82912 0.52229 0.99856 0.0
C1538 C 0.68156 0.50224 0.52758 0.0
C1539 C 0.70102 0.48568 0.52352 0.0
H1540 H 0.66642 0.53449 0.51734 0.0
C1541 C 0.72131 0.49009 0.50568 0.0
H1542 H 0.66583 0.49966 0.54139 0.0
C1543 C 0.72197 0.51041 0.49216 0.0
C1544 C 0.70234 0.52687 0.49609 0.0
H1545 H 0.7365 0.47769 0.50182 0.0
H1546 H 0.73797 0.51326 0.47872 0.0
C1547 C 0.68215 0.52246 0.51401 0.0
C1548 C 0.21798 0.50927 0.02103 0.0
C1549 C 0.19642 0.52423 0.01942 0.0
H1550 H 0.23521 0.47829 0.00819 0.0
C1551 C 0.17534 0.51892 1.00285 0.0
H1552 H 0.23445 0.51274 0.03373 0.0
C1553 C 0.1757 0.49917 0.98839 0.0
C1554 C 0.19716 0.48414 0.99004 0.0
H1555 H 0.15856 0.53014 1.00086 0.0
H1556 H 0.15891 0.49556 0.97614 0.0
C1557 C 0.21829 0.48941 0.00658 0.0
C1558 C 0.33658 0.50842 0.49024 0.0
C1559 C 0.3143 0.52267 0.4902 0.0
H1560 H 0.35397 0.47785 0.50334 0.0
C1561 C 0.29209 0.51646 0.50494 0.0
H1562 H 0.35428 0.51273 0.47958 0.0
C1563 C 0.29219 0.49655 0.51926 0.0
C1564 C 0.31446 0.48226 0.51915 0.0
H1565 H 0.27448 0.52685 0.50525 0.0
H1566 H 0.27489 0.49252 0.53064 0.0
C1567 C 0.33658 0.48849 0.50432 0.0
C1568 C 0.51388 0.15846 0.11692 0.0
C1569 C 0.52841 0.14439 0.10044 0.0
H1570 H 0.47551 0.16931 0.12956 0.0
C1571 C 0.51449 0.13084 0.08297 0.0
H1572 H 0.52397 0.16895 0.13077 0.0
C1573 C 0.48677 0.13109 0.08222 0.0
C1574 C 0.47217 0.14487 0.09895 0.0
H1575 H 0.52504 0.12017 0.06962 0.0
H1576 H 0.47677 0.12059 0.0683 0.0
C1577 C 0.48609 0.15868 0.1162 0.0
C1578 C 0.98883 0.85268 0.58127 0.0
C1579 C 0.97525 0.86195 0.60226 0.0
H1580 H 0.02634 0.84478 0.56433 0.0
C1581 C 0.99009 0.87049 0.62286 0.0
H1582 H 0.97799 0.84564 0.56527 0.0
C1583 C 0.01785 0.87013 0.62227 0.0
C1584 C 0.03147 0.86114 0.60111 0.0
H1585 H 0.98025 0.87801 0.63918 0.0
H1586 H 0.02863 0.87746 0.63814 0.0
C1587 C 0.01657 0.85222 0.58073 0.0
C1588 C 0.48489 0.8798 0.93141 0.0
C1589 C 0.4703 0.86571 0.91498 0.0
H1590 H 0.52319 0.89074 0.94399 0.0
C1591 C 0.48426 0.85118 0.89853 0.0
H1592 H 0.4749 0.89083 0.94476 0.0
C1593 C 0.51206 0.85102 0.89825 0.0
C1594 C 0.52655 0.86547 0.91431 0.0
H1595 H 0.47373 0.84029 0.88541 0.0
H1596 H 0.52221 0.83998 0.885 0.0
C1597 C 0.51262 0.87972 0.93102 0.0
C1598 C 0.01849 0.15038 0.39218 0.0
C1599 C 0.03193 0.14431 0.41482 0.0
H1600 H 0.98095 0.15484 0.37342 0.0
C1601 C 0.01667 0.13803 0.43627 0.0
H1602 H 0.02932 0.15488 0.37506 0.0
C1603 C 0.98896 0.13738 0.43496 0.0
C1604 C 0.97577 0.14349 0.41239 0.0
H1605 H 0.02602 0.13377 0.45426 0.0
H1606 H 0.97778 0.13238 0.45173 0.0
C1607 C 0.99073 0.15021 0.3911 0.0
C1608 C 0.01734 0.65392 0.07862 0.0
C1609 C 0.03114 0.64538 0.09987 0.0
H1610 H 0.97964 0.66114 0.06167 0.0
C1611 C 0.01648 0.63741 0.1209 0.0
H1612 H 0.02799 0.66053 0.06228 0.0
C1613 C 0.9887 0.63771 0.12054 0.0
C1614 C 0.97489 0.64601 0.09914 0.0
H1615 H 0.02646 0.63043 0.13744 0.0
H1616 H 0.97806 0.63091 0.13679 0.0
C1617 C 0.98959 0.65425 0.07827 0.0
C1618 C 0.52067 0.36008 0.62116 0.0
C1619 C 0.53439 0.36627 0.59872 0.0
H1620 H 0.4829 0.3554 0.63944 0.0
C1621 C 0.51941 0.37254 0.5771 0.0
H1622 H 0.5313 0.35557 0.63839 0.0
C1623 C 0.49168 0.373 0.57803 0.0
C1624 C 0.47817 0.36676 0.6004 0.0
H1625 H 0.52903 0.3769 0.55926 0.0
H1626 H 0.48074 0.37792 0.56109 0.0
C1627 C 0.49289 0.36011 0.62189 0.0
C1628 C 0.01578 0.37 0.93781 0.0
C1629 C 0.02942 0.36434 0.91531 0.0
H1630 H 0.97831 0.37356 0.95646 0.0
C1631 C 0.0148 0.35818 0.89355 0.0
H1632 H 0.0266 0.37455 0.95496 0.0
C1633 C 0.98702 0.35813 0.89413 0.0
C1634 C 0.9732 0.36386 0.91666 0.0
H1635 H 0.02486 0.35395 0.87587 0.0
H1636 H 0.97646 0.35405 0.87671 0.0
C1637 C 0.98804 0.36956 0.93856 0.0
C1638 C 0.52034 0.65792 0.3963 0.0
C1639 C 0.53441 0.64378 0.41308 0.0
H1640 H 0.4823 0.66853 0.38242 0.0
C1641 C 0.51995 0.62977 0.42969 0.0
H1642 H 0.53079 0.66874 0.38304 0.0
C1643 C 0.49223 0.62955 0.42918 0.0
C1644 C 0.4782 0.64342 0.41216 0.0
H1645 H 0.53003 0.61905 0.44329 0.0
H1646 H 0.48175 0.61862 0.44231 0.0
C1647 C 0.49255 0.65778 0.39589 0.0
C1648 C 0.25143 0.11626 0.24227 0.0
C1649 C 0.26138 0.13593 0.2308 0.0
H1650 H 0.23448 0.10094 0.27541 0.0
C1651 C 0.26087 0.15597 0.24513 0.0
H1652 H 0.25106 0.10053 0.23188 0.0
C1653 C 0.25058 0.15633 0.27005 0.0
C1654 C 0.24071 0.13663 0.28151 0.0
H1655 H 0.26866 0.17143 0.23723 0.0
H1656 H 0.25012 0.17219 0.28017 0.0
C1657 C 0.24144 0.11657 0.26725 0.0
C1658 C 0.26278 0.89436 0.76517 0.0
C1659 C 0.26028 0.87551 0.78123 0.0
H1660 H 0.25527 0.90877 0.72834 0.0
C1661 C 0.24742 0.8563 0.7716 0.0
H1662 H 0.27231 0.90953 0.77198 0.0
C1663 C 0.2374 0.85594 0.74662 0.0
C1664 C 0.23991 0.87479 0.73056 0.0
H1665 H 0.24537 0.84138 0.78328 0.0
H1666 H 0.2274 0.84093 0.73999 0.0
C1667 C 0.25272 0.89402 0.7402 0.0
C1668 C 0.73264 0.89311 0.7643 0.0
C1669 C 0.73833 0.87535 0.7812 0.0
H1670 H 0.73802 0.90719 0.72698 0.0
C1671 C 0.75497 0.85794 0.77264 0.0
H1672 H 0.72018 0.90697 0.77026 0.0
C1673 C 0.76554 0.85823 0.74785 0.0
C1674 C 0.75974 0.87594 0.73091 0.0
H1675 H 0.7596 0.84387 0.78497 0.0
H1676 H 0.7785 0.84464 0.74207 0.0
C1677 C 0.74316 0.89339 0.73951 0.0
C1678 C 0.75916 0.11574 0.26736 0.0
C1679 C 0.76262 0.13593 0.28091 0.0
H1680 H 0.74588 0.09995 0.2328 0.0
C1681 C 0.75508 0.1562 0.26918 0.0
H1682 H 0.76463 0.09984 0.27593 0.0
C1683 C 0.74454 0.15628 0.24436 0.0
C1684 C 0.74091 0.13605 0.23089 0.0
H1685 H 0.7577 0.17204 0.27906 0.0
H1686 H 0.73887 0.17214 0.23582 0.0
C1687 C 0.74828 0.11579 0.24273 0.0
C1688 C 0.74712 0.65139 0.26716 0.0
C1689 C 0.74566 0.6313 0.28128 0.0
H1690 H 0.75829 0.66748 0.23223 0.0
C1691 C 0.75428 0.61133 0.26946 0.0
H1692 H 0.74034 0.6671 0.27529 0.0
C1693 C 0.76387 0.61144 0.24431 0.0
C1694 C 0.76549 0.63157 0.23024 0.0
H1695 H 0.75389 0.59553 0.27968 0.0
H1696 H 0.76979 0.59562 0.23586 0.0
C1697 C 0.75703 0.65155 0.24213 0.0
C1698 C 0.74877 0.3508 0.7446 0.0
C1699 C 0.74367 0.37112 0.73172 0.0
H1700 H 0.7631 0.33475 0.77852 0.0
C1701 C 0.74912 0.39138 0.74461 0.0
H1702 H 0.74455 0.33483 0.73558 0.0
C1703 C 0.7591 0.39133 0.76959 0.0
C1704 C 0.76434 0.37103 0.78244 0.0
H1705 H 0.74591 0.40741 0.73535 0.0
H1706 H 0.76245 0.40733 0.77888 0.0
C1707 C 0.75905 0.35076 0.76952 0.0
C1708 C 0.25372 0.39411 0.73991 0.0
C1709 C 0.26417 0.37427 0.72942 0.0
H1710 H 0.23436 0.40958 0.77198 0.0
C1711 C 0.26347 0.35446 0.74402 0.0
H1712 H 0.25398 0.40959 0.72901 0.0
C1713 C 0.25279 0.35457 0.76879 0.0
C1714 C 0.24204 0.37437 0.77913 0.0
H1715 H 0.27155 0.33898 0.73641 0.0
H1716 H 0.25256 0.33913 0.77974 0.0
C1717 C 0.24247 0.3941 0.7644 0.0
C1718 C 0.26994 0.61554 0.26447 0.0
C1719 C 0.26458 0.63336 0.28139 0.0
H1720 H 0.26409 0.6015 0.22716 0.0
C1721 C 0.24812 0.65094 0.27298 0.0
H1722 H 0.2823 0.6016 0.27038 0.0
C1723 C 0.23753 0.65081 0.2482 0.0
C1724 C 0.24301 0.63304 0.23124 0.0
H1725 H 0.24375 0.66501 0.28541 0.0
H1726 H 0.22485 0.66458 0.2424 0.0
C1727 C 0.25926 0.61536 0.23975 0.0
loop_
_geom_bond_atom_site_label_1
_geom_bond_atom_site_label_2
_geom_bond_distance
_geom_bond_site_symmetry_2
_ccdc_geom_bond_type
Li0 N17 1.990 . S
Li0 O60 1.956 . S
Li0 O61 1.970 . S
Li0 O62 1.961 . S
Li1 N25 1.990 . S
Li1 O60 1.970 . S
Li1 O61 1.956 . S
Li1 O63 1.961 . S
Li2 N47 1.990 . S
Li2 O60 1.961 . S
Li2 O62 1.956 . S
Li2 O63 1.970 . S
Li3 N53 1.990 . S
Li3 O61 1.961 . S
Li3 O62 1.970 . S
Li3 O63 1.956 . S
C4 C6 1.348 . S
C4 C7 1.356 . S
C4 O60 1.325 . S
N5 C8 1.314 1_556 S
N5 C9 1.279 . S
C6 C4 1.348 . S
C6 C8 1.353 . S
C6 H64 0.929 . S
C7 C4 1.356 . S
C7 C9 1.358 1_554 S
C7 H65 0.930 . S
C8 N5 1.314 1_554 S
C8 C6 1.353 . S
C8 H66 0.930 . S
C9 N5 1.279 . S
C9 C7 1.358 1_556 S
C9 H67 0.930 . S
C10 C13 1.348 . S
C10 C14 1.356 . S
C10 O61 1.325 . S
C11 N12 1.279 . S
C11 C14 1.358 . S
C11 H68 0.930 . S
N12 C11 1.279 . S
N12 C15 1.314 . S
C13 C10 1.348 . S
C13 C15 1.353 . S
C13 H69 0.929 . S
C14 C10 1.356 . S
C14 C11 1.358 . S
C14 H70 0.930 . S
C15 N12 1.314 . S
C15 C13 1.353 . S
C15 H71 0.930 . S
C16 N17 1.314 . S
C16 C21 1.353 . S
C16 H22 0.930 . S
N17 Li0 1.990 . S
N17 C16 1.314 . S
N17 C19 1.279 . S
C18 C19 1.358 . S
C18 C20 1.356 . S
C18 H72 0.930 . S
C19 N17 1.279 . S
C19 C18 1.358 . S
C19 H23 0.930 . S
C20 C18 1.356 . S
C20 C21 1.348 . S
C21 C16 1.353 . S
C21 C20 1.348 . S
C21 H73 0.929 . S
H22 C16 0.930 . S
H23 C19 0.930 . S
C24 N25 1.314 . S
C24 C26 1.353 . S
C24 H30 0.930 . S
N25 Li1 1.990 . S
N25 C24 1.314 . S
N25 C28 1.279 . S
C26 C24 1.353 . S
C26 C29 1.348 . S
C26 H74 0.929 . S
C27 C28 1.358 . S
C27 C29 1.356 . S
C27 H75 0.930 . S
C28 N25 1.279 . S
C28 C27 1.358 . S
C28 H31 0.930 . S
C29 C26 1.348 . S
C29 C27 1.356 . S
H30 C24 0.930 . S
H31 C28 0.930 . S
C32 C34 1.348 . S
C32 C35 1.356 . S
C32 O62 1.325 . S
N33 C36 1.314 . S
N33 C37 1.279 . S
C34 C32 1.348 . S
C34 C36 1.353 . S
C34 H76 0.929 . S
C35 C32 1.356 . S
C35 C37 1.358 . S
C35 H77 0.930 . S
C36 N33 1.314 . S
C36 C34 1.353 . S
C36 H78 0.930 . S
C37 N33 1.279 . S
C37 C35 1.358 . S
C37 H79 0.930 . S
C38 C39 1.348 . S
C38 C40 1.356 . S
C38 O63 1.325 . S
C39 C38 1.348 . S
C39 C41 1.353 . S
C39 H80 0.929 . S
C40 C38 1.356 . S
C40 C42 1.358 . S
C40 H81 0.930 . S
C41 C39 1.353 . S
C41 N43 1.314 . S
C41 H82 0.930 . S
C42 C40 1.358 . S
C42 N43 1.279 . S
C42 H83 0.930 . S
N43 C41 1.314 . S
N43 C42 1.279 . S
C44 C46 1.353 . S
C44 N47 1.314 . S
C44 H50 0.930 . S
C45 N47 1.279 . S
C45 C48 1.358 . S
C45 H51 0.930 . S
C46 C44 1.353 . S
C46 C49 1.348 . S
C46 H84 0.929 . S
N47 Li2 1.990 . S
N47 C44 1.314 . S
N47 C45 1.279 . S
C48 C45 1.358 . S
C48 C49 1.356 . S
C48 H85 0.930 . S
C49 C46 1.348 . S
C49 C48 1.356 . S
H50 C44 0.930 . S
H51 C45 0.930 . S
C52 N53 1.314 . S
C52 C54 1.353 . S
C52 H58 0.930 . S
N53 Li3 1.990 . S
N53 C52 1.314 . S
N53 C56 1.279 . S
C54 C52 1.353 . S
C54 C57 1.348 . S
C54 H86 0.929 . S
C55 C56 1.358 . S
C55 C57 1.356 . S
C55 H87 0.930 . S
C56 N53 1.279 . S
C56 C55 1.358 . S
C56 H59 0.930 . S
C57 C54 1.348 . S
C57 C55 1.356 . S
H58 C52 0.930 . S
H59 C56 0.930 . S
O60 Li0 1.956 . S
O60 Li1 1.970 . S
O60 Li2 1.961 . S
O60 C4 1.325 . S
O61 Li0 1.970 . S
O61 Li1 1.956 . S
O61 Li3 1.961 . S
O61 C10 1.325 . S
O62 Li0 1.961 . S
O62 Li2 1.956 . S
O62 Li3 1.970 . S
O62 C32 1.325 . S
O63 Li1 1.961 . S
O63 Li2 1.970 . S
O63 Li3 1.956 . S
O63 C38 1.325 . S
H64 C6 0.929 . S
H65 C7 0.930 . S
H66 C8 0.930 . S
H67 C9 0.930 . S
H68 C11 0.930 . S
H69 C13 0.929 . S
H70 C14 0.930 . S
H71 C15 0.930 . S
H72 C18 0.930 . S
H73 C21 0.929 . S
H74 C26 0.929 . S
H75 C27 0.930 . S
H76 C34 0.929 . S
H77 C35 0.930 . S
H78 C36 0.930 . S
H79 C37 0.930 . S
H80 C39 0.929 . S
H81 C40 0.930 . S
H82 C41 0.930 . S
H83 C42 0.930 . S
H84 C46 0.929 . S
H85 C48 0.930 . S
H86 C54 0.929 . S
H87 C55 0.930 . S
Li88 N105 1.990 . S
Li88 O148 1.956 . S
Li88 O149 1.970 . S
Li88 O150 1.961 . S
Li89 N113 1.990 . S
Li89 O148 1.970 . S
Li89 O149 1.956 . S
Li89 O151 1.961 . S
Li90 N135 1.990 . S
Li90 O148 1.961 . S
Li90 O150 1.956 . S
Li90 O151 1.970 . S
Li91 N141 1.990 . S
Li91 O149 1.961 . S
Li91 O150 1.970 . S
Li91 O151 1.956 . S
C92 C94 1.348 . S
C92 C95 1.356 . S
C92 O148 1.325 . S
N93 C96 1.314 . S
N93 C97 1.279 . S
C94 C92 1.348 . S
C94 C96 1.353 . S
C94 H152 0.929 . S
C95 C92 1.356 . S
C95 C97 1.358 . S
C95 H153 0.930 . S
C96 N93 1.314 . S
C96 C94 1.353 . S
C96 H154 0.930 . S
C97 N93 1.279 . S
C97 C95 1.358 . S
C97 H155 0.930 . S
C98 C101 1.348 . S
C98 C102 1.356 . S
C98 O149 1.325 . S
C99 N100 1.279 . S
C99 C102 1.358 . S
C99 H156 0.930 . S
N100 C99 1.279 . S
N100 C103 1.314 . S
C101 C98 1.348 . S
C101 C103 1.353 . S
C101 H157 0.929 . S
C102 C98 1.356 . S
C102 C99 1.358 . S
C102 H158 0.930 . S
C103 N100 1.314 . S
C103 C101 1.353 . S
C103 H159 0.930 . S
C104 N105 1.314 . S
C104 C109 1.353 . S
C104 H110 0.930 . S
N105 Li88 1.990 . S
N105 C104 1.314 . S
N105 C107 1.279 . S
C106 C107 1.358 . S
C106 C108 1.356 . S
C106 H160 0.930 . S
C107 N105 1.279 . S
C107 C106 1.358 . S
C107 H111 0.930 . S
C108 C106 1.356 . S
C108 C109 1.348 . S
C109 C104 1.353 . S
C109 C108 1.348 . S
C109 H161 0.929 . S
H110 C104 0.930 . S
H111 C107 0.930 . S
C112 N113 1.314 . S
C112 C114 1.353 . S
C112 H118 0.930 . S
N113 Li89 1.990 . S
N113 C112 1.314 . S
N113 C116 1.279 . S
C114 C112 1.353 . S
C114 C117 1.348 . S
C114 H162 0.929 . S
C115 C116 1.358 . S
C115 C117 1.356 . S
C115 H163 0.930 . S
C116 N113 1.279 . S
C116 C115 1.358 . S
C116 H119 0.930 . S
C117 C114 1.348 . S
C117 C115 1.356 . S
H118 C112 0.930 . S
H119 C116 0.930 . S
C120 C122 1.348 . S
C120 C123 1.356 . S
C120 O150 1.325 . S
N121 C124 1.314 . S
N121 C125 1.279 . S
C122 C120 1.348 . S
C122 C124 1.353 . S
C122 H164 0.929 . S
C123 C120 1.356 . S
C123 C125 1.358 . S
C123 H165 0.930 . S
C124 N121 1.314 . S
C124 C122 1.353 . S
C124 H166 0.930 . S
C125 N121 1.279 . S
C125 C123 1.358 . S
C125 H167 0.930 . S
C126 C127 1.348 . S
C126 C128 1.356 . S
C126 O151 1.325 . S
C127 C126 1.348 . S
C127 C129 1.353 . S
C127 H168 0.929 . S
C128 C126 1.356 . S
C128 C130 1.358 . S
C128 H169 0.930 . S
C129 C127 1.353 . S
C129 N131 1.314 . S
C129 H170 0.930 . S
C130 C128 1.358 . S
C130 N131 1.279 . S
C130 H171 0.930 . S
N131 C129 1.314 . S
N131 C130 1.279 . S
C132 C134 1.353 . S
C132 N135 1.314 . S
C132 H138 0.930 . S
C133 N135 1.279 . S
C133 C136 1.358 . S
C133 H139 0.930 . S
C134 C132 1.353 . S
C134 C137 1.348 . S
C134 H172 0.929 . S
N135 Li90 1.990 . S
N135 C132 1.314 . S
N135 C133 1.279 . S
C136 C133 1.358 . S
C136 C137 1.356 . S
C136 H173 0.930 . S
C137 C134 1.348 . S
C137 C136 1.356 . S
H138 C132 0.930 . S
H139 C133 0.930 . S
C140 N141 1.314 . S
C140 C142 1.353 . S
C140 H146 0.930 . S
N141 Li91 1.990 . S
N141 C140 1.314 . S
N141 C144 1.279 . S
C142 C140 1.353 . S
C142 C145 1.348 . S
C142 H174 0.929 . S
C143 C144 1.358 . S
C143 C145 1.356 . S
C143 H175 0.930 . S
C144 N141 1.279 . S
C144 C143 1.358 . S
C144 H147 0.930 . S
C145 C142 1.348 . S
C145 C143 1.356 . S
H146 C140 0.930 . S
H147 C144 0.930 . S
O148 Li88 1.956 . S
O148 Li89 1.970 . S
O148 Li90 1.961 . S
O148 C92 1.325 . S
O149 Li88 1.970 . S
O149 Li89 1.956 . S
O149 Li91 1.961 . S
O149 C98 1.325 . S
O150 Li88 1.961 . S
O150 Li90 1.956 . S
O150 Li91 1.970 . S
O150 C120 1.325 . S
O151 Li89 1.961 . S
O151 Li90 1.970 . S
O151 Li91 1.956 . S
O151 C126 1.325 . S
H152 C94 0.929 . S
H153 C95 0.930 . S
H154 C96 0.930 . S
H155 C97 0.930 . S
H156 C99 0.930 . S
H157 C101 0.929 . S
H158 C102 0.930 . S
H159 C103 0.930 . S
H160 C106 0.930 . S
H161 C109 0.929 . S
H162 C114 0.929 . S
H163 C115 0.930 . S
H164 C122 0.929 . S
H165 C123 0.930 . S
H166 C124 0.930 . S
H167 C125 0.930 . S
H168 C127 0.929 . S
H169 C128 0.930 . S
H170 C129 0.930 . S
H171 C130 0.930 . S
H172 C134 0.929 . S
H173 C136 0.930 . S
H174 C142 0.929 . S
H175 C143 0.930 . S
Li176 N193 1.990 . S
Li176 O236 1.956 . S
Li176 O237 1.970 . S
Li176 O238 1.961 . S
Li177 N201 1.990 . S
Li177 O236 1.970 . S
Li177 O237 1.956 . S
Li177 O239 1.961 . S
Li178 N223 1.990 . S
Li178 O236 1.961 . S
Li178 O238 1.956 . S
Li178 O239 1.970 . S
Li179 N229 1.990 . S
Li179 O237 1.961 . S
Li179 O238 1.970 . S
Li179 O239 1.956 . S
C180 C182 1.348 . S
C180 C183 1.356 . S
C180 O236 1.325 . S
N181 C184 1.314 . S
N181 C185 1.279 . S
C182 C180 1.348 . S
C182 C184 1.353 . S
C182 H240 0.929 . S
C183 C180 1.356 . S
C183 C185 1.358 . S
C183 H241 0.930 . S
C184 N181 1.314 . S
C184 C182 1.353 . S
C184 H242 0.930 . S
C185 N181 1.279 . S
C185 C183 1.358 . S
C185 H243 0.930 . S
C186 C189 1.348 . S
C186 C190 1.356 . S
C186 O237 1.325 . S
C187 N188 1.279 . S
C187 C190 1.358 . S
C187 H244 0.930 . S
N188 C187 1.279 . S
N188 C191 1.314 . S
C189 C186 1.348 . S
C189 C191 1.353 . S
C189 H245 0.929 . S
C190 C186 1.356 . S
C190 C187 1.358 . S
C190 H246 0.930 . S
C191 N188 1.314 . S
C191 C189 1.353 . S
C191 H247 0.930 . S
C192 N193 1.314 . S
C192 C197 1.353 . S
C192 H198 0.930 . S
N193 Li176 1.990 . S
N193 C192 1.314 . S
N193 C195 1.279 . S
C194 C195 1.358 . S
C194 C196 1.356 . S
C194 H248 0.930 . S
C195 N193 1.279 . S
C195 C194 1.358 . S
C195 H199 0.930 . S
C196 C194 1.356 . S
C196 C197 1.348 . S
C197 C192 1.353 . S
C197 C196 1.348 . S
C197 H249 0.929 . S
H198 C192 0.930 . S
H199 C195 0.930 . S
C200 N201 1.314 . S
C200 C202 1.353 . S
C200 H206 0.930 . S
N201 Li177 1.990 . S
N201 C200 1.314 . S
N201 C204 1.279 . S
C202 C200 1.353 . S
C202 C205 1.348 . S
C202 H250 0.929 . S
C203 C204 1.358 . S
C203 C205 1.356 . S
C203 H251 0.930 . S
C204 N201 1.279 . S
C204 C203 1.358 . S
C204 H207 0.930 . S
C205 C202 1.348 . S
C205 C203 1.356 . S
H206 C200 0.930 . S
H207 C204 0.930 . S
C208 C210 1.348 . S
C208 C211 1.356 . S
C208 O238 1.325 . S
N209 C212 1.314 . S
N209 C213 1.279 . S
C210 C208 1.348 . S
C210 C212 1.353 . S
C210 H252 0.929 . S
C211 C208 1.356 . S
C211 C213 1.358 . S
C211 H253 0.930 . S
C212 N209 1.314 . S
C212 C210 1.353 . S
C212 H254 0.930 . S
C213 N209 1.279 . S
C213 C211 1.358 . S
C213 H255 0.930 . S
C214 C215 1.348 . S
C214 C216 1.356 . S
C214 O239 1.325 . S
C215 C214 1.348 . S
C215 C217 1.353 . S
C215 H256 0.929 . S
C216 C214 1.356 . S
C216 C218 1.358 1_556 S
C216 H257 0.930 . S
C217 C215 1.353 . S
C217 N219 1.314 1_556 S
C217 H258 0.930 . S
C218 C216 1.358 1_554 S
C218 N219 1.279 . S
C218 H259 0.930 . S
N219 C217 1.314 1_554 S
N219 C218 1.279 . S
C220 C222 1.353 . S
C220 N223 1.314 . S
C220 H226 0.930 . S
C221 N223 1.279 . S
C221 C224 1.358 . S
C221 H227 0.930 . S
C222 C220 1.353 . S
C222 C225 1.348 . S
C222 H260 0.929 . S
N223 Li178 1.990 . S
N223 C220 1.314 . S
N223 C221 1.279 . S
C224 C221 1.358 . S
C224 C225 1.356 . S
C224 H261 0.930 . S
C225 C222 1.348 . S
C225 C224 1.356 . S
H226 C220 0.930 . S
H227 C221 0.930 . S
C228 N229 1.314 . S
C228 C230 1.353 . S
C228 H234 0.930 . S
N229 Li179 1.990 . S
N229 C228 1.314 . S
N229 C232 1.279 . S
C230 C228 1.353 . S
C230 C233 1.348 . S
C230 H262 0.929 . S
C231 C232 1.358 . S
C231 C233 1.356 . S
C231 H263 0.930 . S
C232 N229 1.279 . S
C232 C231 1.358 . S
C232 H235 0.930 . S
C233 C230 1.348 . S
C233 C231 1.356 . S
H234 C228 0.930 . S
H235 C232 0.930 . S
O236 Li176 1.956 . S
O236 Li177 1.970 . S
O236 Li178 1.961 . S
O236 C180 1.325 . S
O237 Li176 1.970 . S
O237 Li177 1.956 . S
O237 Li179 1.961 . S
O237 C186 1.325 . S
O238 Li176 1.961 . S
O238 Li178 1.956 . S
O238 Li179 1.970 . S
O238 C208 1.325 . S
O239 Li177 1.961 . S
O239 Li178 1.970 . S
O239 Li179 1.956 . S
O239 C214 1.325 . S
H240 C182 0.929 . S
H241 C183 0.930 . S
H242 C184 0.930 . S
H243 C185 0.930 . S
H244 C187 0.930 . S
H245 C189 0.929 . S
H246 C190 0.930 . S
H247 C191 0.930 . S
H248 C194 0.930 . S
H249 C197 0.929 . S
H250 C202 0.929 . S
H251 C203 0.930 . S
H252 C210 0.929 . S
H253 C211 0.930 . S
H254 C212 0.930 . S
H255 C213 0.930 . S
H256 C215 0.929 . S
H257 C216 0.930 . S
H258 C217 0.930 . S
H259 C218 0.930 . S
H260 C222 0.929 . S
H261 C224 0.930 . S
H262 C230 0.929 . S
H263 C231 0.930 . S
Li264 N281 1.990 . S
Li264 O324 1.956 . S
Li264 O325 1.970 . S
Li264 O326 1.961 . S
Li265 N289 1.990 . S
Li265 O324 1.970 . S
Li265 O325 1.956 . S
Li265 O327 1.961 . S
Li266 N311 1.990 . S
Li266 O324 1.961 . S
Li266 O326 1.956 . S
Li266 O327 1.970 . S
Li267 N317 1.990 . S
Li267 O325 1.961 . S
Li267 O326 1.970 . S
Li267 O327 1.956 . S
C268 C270 1.348 . S
C268 C271 1.356 . S
C268 O324 1.325 . S
N269 C272 1.314 . S
N269 C273 1.279 . S
C270 C268 1.348 . S
C270 C272 1.353 . S
C270 H328 0.929 . S
C271 C268 1.356 . S
C271 C273 1.358 . S
C271 H329 0.930 . S
C272 N269 1.314 . S
C272 C270 1.353 . S
C272 H330 0.930 . S
C273 N269 1.279 . S
C273 C271 1.358 . S
C273 H331 0.930 . S
C274 C277 1.348 . S
C274 C278 1.356 . S
C274 O325 1.325 . S
C275 N276 1.279 . S
C275 C278 1.358 . S
C275 H332 0.930 . S
N276 C275 1.279 . S
N276 C279 1.314 . S
C277 C274 1.348 . S
C277 C279 1.353 . S
C277 H333 0.929 . S
C278 C274 1.356 . S
C278 C275 1.358 . S
C278 H334 0.930 . S
C279 N276 1.314 . S
C279 C277 1.353 . S
C279 H335 0.930 . S
C280 N281 1.314 . S
C280 C285 1.353 . S
C280 H286 0.930 . S
N281 Li264 1.990 . S
N281 C280 1.314 . S
N281 C283 1.279 . S
C282 C283 1.358 . S
C282 C284 1.356 . S
C282 H336 0.930 . S
C283 N281 1.279 . S
C283 C282 1.358 . S
C283 H287 0.930 . S
C284 C282 1.356 . S
C284 C285 1.348 . S
C285 C280 1.353 . S
C285 C284 1.348 . S
C285 H337 0.929 . S
H286 C280 0.930 . S
H287 C283 0.930 . S
C288 N289 1.314 . S
C288 C290 1.353 . S
C288 H294 0.930 . S
N289 Li265 1.990 . S
N289 C288 1.314 . S
N289 C292 1.279 . S
C290 C288 1.353 . S
C290 C293 1.348 . S
C290 H338 0.929 . S
C291 C292 1.358 . S
C291 C293 1.356 . S
C291 H339 0.930 . S
C292 N289 1.279 . S
C292 C291 1.358 . S
C292 H295 0.930 . S
C293 C290 1.348 . S
C293 C291 1.356 . S
H294 C288 0.930 . S
H295 C292 0.930 . S
C296 C298 1.348 . S
C296 C299 1.356 . S
C296 O326 1.325 . S
N297 C300 1.314 . S
N297 C301 1.279 . S
C298 C296 1.348 . S
C298 C300 1.353 . S
C298 H340 0.929 . S
C299 C296 1.356 . S
C299 C301 1.358 . S
C299 H341 0.930 . S
C300 N297 1.314 . S
C300 C298 1.353 . S
C300 H342 0.930 . S
C301 N297 1.279 . S
C301 C299 1.358 . S
C301 H343 0.930 . S
C302 C303 1.348 . S
C302 C304 1.356 . S
C302 O327 1.325 . S
C303 C302 1.348 . S
C303 C305 1.353 . S
C303 H344 0.929 . S
C304 C302 1.356 . S
C304 C306 1.358 . S
C304 H345 0.930 . S
C305 C303 1.353 . S
C305 N307 1.314 . S
C305 H346 0.930 . S
C306 C304 1.358 . S
C306 N307 1.279 . S
C306 H347 0.930 . S
N307 C305 1.314 . S
N307 C306 1.279 . S
C308 C310 1.353 . S
C308 N311 1.314 . S
C308 H314 0.930 . S
C309 N311 1.279 . S
C309 C312 1.358 . S
C309 H315 0.930 . S
C310 C308 1.353 . S
C310 C313 1.348 . S
C310 H348 0.929 . S
N311 Li266 1.990 . S
N311 C308 1.314 . S
N311 C309 1.279 . S
C312 C309 1.358 . S
C312 C313 1.356 . S
C312 H349 0.930 . S
C313 C310 1.348 . S
C313 C312 1.356 . S
H314 C308 0.930 . S
H315 C309 0.930 . S
C316 N317 1.314 . S
C316 C318 1.353 . S
C316 H322 0.930 . S
N317 Li267 1.990 . S
N317 C316 1.314 . S
N317 C320 1.279 . S
C318 C316 1.353 . S
C318 C321 1.348 . S
C318 H350 0.929 . S
C319 C320 1.358 . S
C319 C321 1.356 . S
C319 H351 0.930 . S
C320 N317 1.279 . S
C320 C319 1.358 . S
C320 H323 0.930 . S
C321 C318 1.348 . S
C321 C319 1.356 . S
H322 C316 0.930 . S
H323 C320 0.930 . S
O324 Li264 1.956 . S
O324 Li265 1.970 . S
O324 Li266 1.961 . S
O324 C268 1.325 . S
O325 Li264 1.970 . S
O325 Li265 1.956 . S
O325 Li267 1.961 . S
O325 C274 1.325 . S
O326 Li264 1.961 . S
O326 Li266 1.956 . S
O326 Li267 1.970 . S
O326 C296 1.325 . S
O327 Li265 1.961 . S
O327 Li266 1.970 . S
O327 Li267 1.956 . S
O327 C302 1.325 . S
H328 C270 0.929 . S
H329 C271 0.930 . S
H330 C272 0.930 . S
H331 C273 0.930 . S
H332 C275 0.930 . S
H333 C277 0.929 . S
H334 C278 0.930 . S
H335 C279 0.930 . S
H336 C282 0.930 . S
H337 C285 0.929 . S
H338 C290 0.929 . S
H339 C291 0.930 . S
H340 C298 0.929 . S
H341 C299 0.930 . S
H342 C300 0.930 . S
H343 C301 0.930 . S
H344 C303 0.929 . S
H345 C304 0.930 . S
H346 C305 0.930 . S
H347 C306 0.930 . S
H348 C310 0.929 . S
H349 C312 0.930 . S
H350 C318 0.929 . S
H351 C319 0.930 . S
Li352 N369 1.990 . S
Li352 O412 1.956 . S
Li352 O413 1.970 . S
Li352 O414 1.961 . S
Li353 N377 1.990 . S
Li353 O412 1.970 . S
Li353 O413 1.956 . S
Li353 O415 1.961 . S
Li354 N399 1.990 . S
Li354 O412 1.961 . S
Li354 O414 1.956 . S
Li354 O415 1.970 . S
Li355 N405 1.990 . S
Li355 O413 1.961 . S
Li355 O414 1.970 . S
Li355 O415 1.956 . S
C356 C358 1.348 . S
C356 C359 1.356 . S
C356 O412 1.325 . S
N357 C360 1.314 . S
N357 C361 1.279 . S
C358 C356 1.348 . S
C358 C360 1.353 . S
C358 H416 0.929 . S
C359 C356 1.356 . S
C359 C361 1.358 . S
C359 H417 0.930 . S
C360 N357 1.314 . S
C360 C358 1.353 . S
C360 H418 0.930 . S
C361 N357 1.279 . S
C361 C359 1.358 . S
C361 H419 0.930 . S
C362 C365 1.348 . S
C362 C366 1.356 . S
C362 O413 1.325 . S
C363 N364 1.279 1_556 S
C363 C366 1.358 . S
C363 H420 0.930 . S
N364 C363 1.279 1_554 S
N364 C367 1.314 . S
C365 C362 1.348 . S
C365 C367 1.353 1_556 S
C365 H421 0.929 . S
C366 C362 1.356 . S
C366 C363 1.358 . S
C366 H422 0.930 . S
C367 N364 1.314 . S
C367 C365 1.353 1_554 S
C367 H423 0.930 . S
C368 N369 1.314 . S
C368 C373 1.353 . S
C368 H374 0.930 . S
N369 Li352 1.990 . S
N369 C368 1.314 . S
N369 C371 1.279 . S
C370 C371 1.358 . S
C370 C372 1.356 . S
C370 H424 0.930 . S
C371 N369 1.279 . S
C371 C370 1.358 . S
C371 H375 0.930 . S
C372 C370 1.356 . S
C372 C373 1.348 . S
C373 C368 1.353 . S
C373 C372 1.348 . S
C373 H425 0.929 . S
H374 C368 0.930 . S
H375 C371 0.930 . S
C376 N377 1.314 . S
C376 C378 1.353 . S
C376 H382 0.930 . S
N377 Li353 1.990 . S
N377 C376 1.314 . S
N377 C380 1.279 . S
C378 C376 1.353 . S
C378 C381 1.348 . S
C378 H426 0.929 . S
C379 C380 1.358 . S
C379 C381 1.356 . S
C379 H427 0.930 1_556 S
C380 N377 1.279 . S
C380 C379 1.358 . S
C380 H383 0.930 . S
C381 C378 1.348 . S
C381 C379 1.356 . S
H382 C376 0.930 . S
H383 C380 0.930 . S
C384 C386 1.348 . S
C384 C387 1.356 . S
C384 O414 1.325 . S
N385 C388 1.314 . S
N385 C389 1.279 . S
C386 C384 1.348 . S
C386 C388 1.353 . S
C386 H428 0.929 . S
C387 C384 1.356 . S
C387 C389 1.358 . S
C387 H429 0.930 . S
C388 N385 1.314 . S
C388 C386 1.353 . S
C388 H430 0.930 . S
C389 N385 1.279 . S
C389 C387 1.358 . S
C389 H431 0.930 . S
C390 C391 1.348 . S
C390 C392 1.356 . S
C390 O415 1.325 . S
C391 C390 1.348 . S
C391 C393 1.353 . S
C391 H432 0.929 . S
C392 C390 1.356 . S
C392 C394 1.358 . S
C392 H433 0.930 . S
C393 C391 1.353 . S
C393 N395 1.314 . S
C393 H434 0.930 . S
C394 C392 1.358 . S
C394 N395 1.279 . S
C394 H435 0.930 . S
N395 C393 1.314 . S
N395 C394 1.279 . S
C396 C398 1.353 . S
C396 N399 1.314 . S
C396 H402 0.930 . S
C397 N399 1.279 . S
C397 C400 1.358 . S
C397 H403 0.930 . S
C398 C396 1.353 . S
C398 C401 1.348 . S
C398 H436 0.929 . S
N399 Li354 1.990 . S
N399 C396 1.314 . S
N399 C397 1.279 . S
C400 C397 1.358 . S
C400 C401 1.356 . S
C400 H437 0.930 . S
C401 C398 1.348 . S
C401 C400 1.356 . S
H402 C396 0.930 . S
H403 C397 0.930 . S
C404 N405 1.314 . S
C404 C406 1.353 . S
C404 H410 0.930 . S
N405 Li355 1.990 . S
N405 C404 1.314 . S
N405 C408 1.279 . S
C406 C404 1.353 . S
C406 C409 1.348 . S
C406 H438 0.929 . S
C407 C408 1.358 . S
C407 C409 1.356 . S
C407 H439 0.930 . S
C408 N405 1.279 . S
C408 C407 1.358 . S
C408 H411 0.930 . S
C409 C406 1.348 . S
C409 C407 1.356 . S
H410 C404 0.930 . S
H411 C408 0.930 . S
O412 Li352 1.956 . S
O412 Li353 1.970 . S
O412 Li354 1.961 . S
O412 C356 1.325 . S
O413 Li352 1.970 . S
O413 Li353 1.956 . S
O413 Li355 1.961 . S
O413 C362 1.325 . S
O414 Li352 1.961 . S
O414 Li354 1.956 . S
O414 Li355 1.970 . S
O414 C384 1.325 . S
O415 Li353 1.961 . S
O415 Li354 1.970 . S
O415 Li355 1.956 . S
O415 C390 1.325 . S
H416 C358 0.929 . S
H417 C359 0.930 . S
H418 C360 0.930 . S
H419 C361 0.930 . S
H420 C363 0.930 . S
H421 C365 0.929 . S
H422 C366 0.930 . S
H423 C367 0.930 . S
H424 C370 0.930 . S
H425 C373 0.929 . S
H426 C378 0.929 . S
H427 C379 0.930 1_554 S
H428 C386 0.929 . S
H429 C387 0.930 . S
H430 C388 0.930 . S
H431 C389 0.930 . S
H432 C391 0.929 . S
H433 C392 0.930 . S
H434 C393 0.930 . S
H435 C394 0.930 . S
H436 C398 0.929 . S
H437 C400 0.930 . S
H438 C406 0.929 . S
H439 C407 0.930 . S
Li440 N457 1.990 . S
Li440 O500 1.956 . S
Li440 O501 1.970 . S
Li440 O502 1.961 . S
Li441 N465 1.990 . S
Li441 O500 1.970 . S
Li441 O501 1.956 . S
Li441 O503 1.961 . S
Li442 N487 1.990 . S
Li442 O500 1.961 . S
Li442 O502 1.956 . S
Li442 O503 1.970 . S
Li443 N493 1.990 . S
Li443 O501 1.961 . S
Li443 O502 1.970 . S
Li443 O503 1.956 . S
C444 C446 1.348 . S
C444 C447 1.356 . S
C444 O500 1.325 . S
N445 C448 1.314 . S
N445 C449 1.279 . S
C446 C444 1.348 . S
C446 C448 1.353 . S
C446 H504 0.929 . S
C447 C444 1.356 . S
C447 C449 1.358 . S
C447 H505 0.930 . S
C448 N445 1.314 . S
C448 C446 1.353 . S
C448 H506 0.930 . S
C449 N445 1.279 . S
C449 C447 1.358 . S
C449 H507 0.930 . S
C450 C453 1.348 . S
C450 C454 1.356 . S
C450 O501 1.325 . S
C451 N452 1.279 . S
C451 C454 1.358 . S
C451 H508 0.930 . S
N452 C451 1.279 . S
N452 C455 1.314 . S
C453 C450 1.348 . S
C453 C455 1.353 . S
C453 H509 0.929 . S
C454 C450 1.356 . S
C454 C451 1.358 . S
C454 H510 0.930 . S
C455 N452 1.314 . S
C455 C453 1.353 . S
C455 H511 0.930 . S
C456 N457 1.314 . S
C456 C461 1.353 . S
C456 H462 0.930 . S
N457 Li440 1.990 . S
N457 C456 1.314 . S
N457 C459 1.279 . S
C458 C459 1.358 . S
C458 C460 1.356 . S
C458 H512 0.930 . S
C459 N457 1.279 . S
C459 C458 1.358 . S
C459 H463 0.930 . S
C460 C458 1.356 . S
C460 C461 1.348 . S
C461 C456 1.353 . S
C461 C460 1.348 . S
C461 H513 0.929 . S
H462 C456 0.930 . S
H463 C459 0.930 . S
C464 N465 1.314 . S
C464 C466 1.353 . S
C464 H470 0.930 . S
N465 Li441 1.990 . S
N465 C464 1.314 . S
N465 C468 1.279 . S
C466 C464 1.353 . S
C466 C469 1.348 . S
C466 H514 0.929 . S
C467 C468 1.358 . S
C467 C469 1.356 . S
C467 H515 0.930 . S
C468 N465 1.279 . S
C468 C467 1.358 . S
C468 H471 0.930 . S
C469 C466 1.348 . S
C469 C467 1.356 . S
H470 C464 0.930 . S
H471 C468 0.930 . S
C472 C474 1.348 . S
C472 C475 1.356 . S
C472 O502 1.325 . S
N473 C476 1.314 . S
N473 C477 1.279 . S
C474 C472 1.348 . S
C474 C476 1.353 . S
C474 H516 0.929 . S
C475 C472 1.356 . S
C475 C477 1.358 . S
C475 H517 0.930 . S
C476 N473 1.314 . S
C476 C474 1.353 . S
C476 H518 0.930 . S
C477 N473 1.279 . S
C477 C475 1.358 . S
C477 H519 0.930 . S
C478 C479 1.348 . S
C478 C480 1.356 . S
C478 O503 1.325 . S
C479 C478 1.348 . S
C479 C481 1.353 . S
C479 H520 0.929 . S
C480 C478 1.356 . S
C480 C482 1.358 . S
C480 H521 0.930 . S
C481 C479 1.353 . S
C481 N483 1.314 . S
C481 H522 0.930 . S
C482 C480 1.358 . S
C482 N483 1.279 . S
C482 H523 0.930 . S
N483 C481 1.314 . S
N483 C482 1.279 . S
C484 C486 1.353 . S
C484 N487 1.314 . S
C484 H490 0.930 . S
C485 N487 1.279 . S
C485 C488 1.358 . S
C485 H491 0.930 . S
C486 C484 1.353 . S
C486 C489 1.348 . S
C486 H524 0.929 . S
N487 Li442 1.990 . S
N487 C484 1.314 . S
N487 C485 1.279 . S
C488 C485 1.358 . S
C488 C489 1.356 . S
C488 H525 0.930 . S
C489 C486 1.348 . S
C489 C488 1.356 . S
H490 C484 0.930 . S
H491 C485 0.930 . S
C492 N493 1.314 . S
C492 C494 1.353 . S
C492 H498 0.930 . S
N493 Li443 1.990 . S
N493 C492 1.314 . S
N493 C496 1.279 . S
C494 C492 1.353 . S
C494 C497 1.348 . S
C494 H526 0.929 . S
C495 C496 1.358 . S
C495 C497 1.356 . S
C495 H527 0.930 . S
C496 N493 1.279 . S
C496 C495 1.358 . S
C496 H499 0.930 . S
C497 C494 1.348 . S
C497 C495 1.356 . S
H498 C492 0.930 . S
H499 C496 0.930 . S
O500 Li440 1.956 . S
O500 Li441 1.970 . S
O500 Li442 1.961 . S
O500 C444 1.325 . S
O501 Li440 1.970 . S
O501 Li441 1.956 . S
O501 Li443 1.961 . S
O501 C450 1.325 . S
O502 Li440 1.961 . S
O502 Li442 1.956 . S
O502 Li443 1.970 . S
O502 C472 1.325 . S
O503 Li441 1.961 . S
O503 Li442 1.970 . S
O503 Li443 1.956 . S
O503 C478 1.325 . S
H504 C446 0.929 . S
H505 C447 0.930 . S
H506 C448 0.930 . S
H507 C449 0.930 . S
H508 C451 0.930 . S
H509 C453 0.929 . S
H510 C454 0.930 . S
H511 C455 0.930 . S
H512 C458 0.930 . S
H513 C461 0.929 . S
H514 C466 0.929 . S
H515 C467 0.930 . S
H516 C474 0.929 . S
H517 C475 0.930 . S
H518 C476 0.930 . S
H519 C477 0.930 . S
H520 C479 0.929 . S
H521 C480 0.930 . S
H522 C481 0.930 . S
H523 C482 0.930 . S
H524 C486 0.929 . S
H525 C488 0.930 . S
H526 C494 0.929 . S
H527 C495 0.930 . S
Li528 N545 1.990 . S
Li528 O588 1.956 . S
Li528 O589 1.970 . S
Li528 O590 1.961 . S
Li529 N553 1.990 . S
Li529 O588 1.970 . S
Li529 O589 1.956 . S
Li529 O591 1.961 . S
Li530 N575 1.990 . S
Li530 O588 1.961 . S
Li530 O590 1.956 . S
Li530 O591 1.970 . S
Li531 N581 1.990 . S
Li531 O589 1.961 . S
Li531 O590 1.970 . S
Li531 O591 1.956 . S
C532 C534 1.348 . S
C532 C535 1.356 . S
C532 O588 1.325 . S
N533 C536 1.314 . S
N533 C537 1.279 . S
C534 C532 1.348 . S
C534 C536 1.353 . S
C534 H592 0.929 . S
C535 C532 1.356 . S
C535 C537 1.358 . S
C535 H593 0.930 . S
C536 N533 1.314 . S
C536 C534 1.353 . S
C536 H594 0.930 . S
C537 N533 1.279 . S
C537 C535 1.358 . S
C537 H595 0.930 . S
C538 C541 1.348 . S
C538 C542 1.356 . S
C538 O589 1.325 . S
C539 N540 1.279 . S
C539 C542 1.358 . S
C539 H596 0.930 . S
N540 C539 1.279 . S
N540 C543 1.314 . S
C541 C538 1.348 . S
C541 C543 1.353 . S
C541 H597 0.929 . S
C542 C538 1.356 . S
C542 C539 1.358 . S
C542 H598 0.930 . S
C543 N540 1.314 . S
C543 C541 1.353 . S
C543 H599 0.930 . S
C544 N545 1.314 . S
C544 C549 1.353 . S
C544 H550 0.930 . S
N545 Li528 1.990 . S
N545 C544 1.314 . S
N545 C547 1.279 . S
C546 C547 1.358 . S
C546 C548 1.356 . S
C546 H600 0.930 . S
C547 N545 1.279 . S
C547 C546 1.358 . S
C547 H551 0.930 . S
C548 C546 1.356 . S
C548 C549 1.348 . S
C549 C544 1.353 . S
C549 C548 1.348 . S
C549 H601 0.929 . S
H550 C544 0.930 . S
H551 C547 0.930 . S
C552 N553 1.314 . S
C552 C554 1.353 . S
C552 H558 0.930 . S
N553 Li529 1.990 . S
N553 C552 1.314 . S
N553 C556 1.279 . S
C554 C552 1.353 . S
C554 C557 1.348 . S
C554 H602 0.929 . S
C555 C556 1.358 . S
C555 C557 1.356 . S
C555 H603 0.930 . S
C556 N553 1.279 . S
C556 C555 1.358 . S
C556 H559 0.930 . S
C557 C554 1.348 . S
C557 C555 1.356 . S
H558 C552 0.930 . S
H559 C556 0.930 . S
C560 C562 1.348 . S
C560 C563 1.356 . S
C560 O590 1.325 . S
N561 C564 1.314 . S
N561 C565 1.279 1_556 S
C562 C560 1.348 . S
C562 C564 1.353 1_554 S
C562 H604 0.929 . S
C563 C560 1.356 . S
C563 C565 1.358 . S
C563 H605 0.930 . S
C564 N561 1.314 . S
C564 C562 1.353 1_556 S
C564 H606 0.930 . S
C565 N561 1.279 1_554 S
C565 C563 1.358 . S
C565 H607 0.930 . S
C566 C567 1.348 . S
C566 C568 1.356 . S
C566 O591 1.325 . S
C567 C566 1.348 . S
C567 C569 1.353 . S
C567 H608 0.929 . S
C568 C566 1.356 . S
C568 C570 1.358 . S
C568 H609 0.930 . S
C569 C567 1.353 . S
C569 N571 1.314 . S
C569 H610 0.930 . S
C570 C568 1.358 . S
C570 N571 1.279 . S
C570 H611 0.930 . S
N571 C569 1.314 . S
N571 C570 1.279 . S
C572 C574 1.353 . S
C572 N575 1.314 . S
C572 H578 0.930 . S
C573 N575 1.279 . S
C573 C576 1.358 . S
C573 H579 0.930 . S
C574 C572 1.353 . S
C574 C577 1.348 . S
C574 H612 0.929 . S
N575 Li530 1.990 . S
N575 C572 1.314 . S
N575 C573 1.279 . S
C576 C573 1.358 . S
C576 C577 1.356 . S
C576 H613 0.930 1_554 S
C577 C574 1.348 . S
C577 C576 1.356 . S
H578 C572 0.930 . S
H579 C573 0.930 . S
C580 N581 1.314 . S
C580 C582 1.353 . S
C580 H586 0.930 . S
N581 Li531 1.990 . S
N581 C580 1.314 . S
N581 C584 1.279 . S
C582 C580 1.353 . S
C582 C585 1.348 . S
C582 H614 0.929 . S
C583 C584 1.358 . S
C583 C585 1.356 . S
C583 H615 0.930 . S
C584 N581 1.279 . S
C584 C583 1.358 . S
C584 H587 0.930 . S
C585 C582 1.348 . S
C585 C583 1.356 . S
H586 C580 0.930 . S
H587 C584 0.930 . S
O588 Li528 1.956 . S
O588 Li529 1.970 . S
O588 Li530 1.961 . S
O588 C532 1.325 . S
O589 Li528 1.970 . S
O589 Li529 1.956 . S
O589 Li531 1.961 . S
O589 C538 1.325 . S
O590 Li528 1.961 . S
O590 Li530 1.956 . S
O590 Li531 1.970 . S
O590 C560 1.325 . S
O591 Li529 1.961 . S
O591 Li530 1.970 . S
O591 Li531 1.956 . S
O591 C566 1.325 . S
H592 C534 0.929 . S
H593 C535 0.930 . S
H594 C536 0.930 . S
H595 C537 0.930 . S
H596 C539 0.930 . S
H597 C541 0.929 . S
H598 C542 0.930 . S
H599 C543 0.930 . S
H600 C546 0.930 . S
H601 C549 0.929 . S
H602 C554 0.929 . S
H603 C555 0.930 . S
H604 C562 0.929 . S
H605 C563 0.930 . S
H606 C564 0.930 . S
H607 C565 0.930 . S
H608 C567 0.929 . S
H609 C568 0.930 . S
H610 C569 0.930 . S
H611 C570 0.930 . S
H612 C574 0.929 . S
H613 C576 0.930 1_556 S
H614 C582 0.929 . S
H615 C583 0.930 . S
Li616 N633 1.990 . S
Li616 O676 1.956 . S
Li616 O677 1.970 . S
Li616 O678 1.961 . S
Li617 N641 1.990 . S
Li617 O676 1.970 . S
Li617 O677 1.956 . S
Li617 O679 1.961 . S
Li618 N663 1.990 . S
Li618 O676 1.961 . S
Li618 O678 1.956 . S
Li618 O679 1.970 . S
Li619 N669 1.990 . S
Li619 O677 1.961 . S
Li619 O678 1.970 . S
Li619 O679 1.956 . S
C620 C622 1.348 . S
C620 C623 1.356 . S
C620 O676 1.325 . S
N621 C624 1.314 . S
N621 C625 1.279 . S
C622 C620 1.348 . S
C622 C624 1.353 . S
C622 H680 0.929 . S
C623 C620 1.356 . S
C623 C625 1.358 . S
C623 H681 0.930 . S
C624 N621 1.314 . S
C624 C622 1.353 . S
C624 H682 0.930 . S
C625 N621 1.279 . S
C625 C623 1.358 . S
C625 H683 0.930 . S
C626 C629 1.348 . S
C626 C630 1.356 . S
C626 O677 1.325 . S
C627 N628 1.279 . S
C627 C630 1.358 . S
C627 H684 0.930 . S
N628 C627 1.279 . S
N628 C631 1.314 . S
C629 C626 1.348 . S
C629 C631 1.353 . S
C629 H685 0.929 . S
C630 C626 1.356 . S
C630 C627 1.358 . S
C630 H686 0.930 . S
C631 N628 1.314 . S
C631 C629 1.353 . S
C631 H687 0.930 . S
C632 N633 1.314 . S
C632 C637 1.353 . S
C632 H638 0.930 . S
N633 Li616 1.990 . S
N633 C632 1.314 . S
N633 C635 1.279 . S
C634 C635 1.358 . S
C634 C636 1.356 . S
C634 H688 0.930 . S
C635 N633 1.279 . S
C635 C634 1.358 . S
C635 H639 0.930 . S
C636 C634 1.356 . S
C636 C637 1.348 . S
C637 C632 1.353 . S
C637 C636 1.348 . S
C637 H689 0.929 . S
H638 C632 0.930 . S
H639 C635 0.930 . S
C640 N641 1.314 . S
C640 C642 1.353 . S
C640 H646 0.930 . S
N641 Li617 1.990 . S
N641 C640 1.314 . S
N641 C644 1.279 . S
C642 C640 1.353 . S
C642 C645 1.348 . S
C642 H690 0.929 . S
C643 C644 1.358 . S
C643 C645 1.356 . S
C643 H691 0.930 . S
C644 N641 1.279 . S
C644 C643 1.358 . S
C644 H647 0.930 . S
C645 C642 1.348 . S
C645 C643 1.356 . S
H646 C640 0.930 . S
H647 C644 0.930 . S
C648 C650 1.348 . S
C648 C651 1.356 . S
C648 O678 1.325 . S
N649 C652 1.314 . S
N649 C653 1.279 . S
C650 C648 1.348 . S
C650 C652 1.353 . S
C650 H692 0.929 . S
C651 C648 1.356 . S
C651 C653 1.358 . S
C651 H693 0.930 . S
C652 N649 1.314 . S
C652 C650 1.353 . S
C652 H694 0.930 . S
C653 N649 1.279 . S
C653 C651 1.358 . S
C653 H695 0.930 . S
C654 C655 1.348 . S
C654 C656 1.356 . S
C654 O679 1.325 . S
C655 C654 1.348 . S
C655 C657 1.353 . S
C655 H696 0.929 . S
C656 C654 1.356 . S
C656 C658 1.358 . S
C656 H697 0.930 . S
C657 C655 1.353 . S
C657 N659 1.314 . S
C657 H698 0.930 . S
C658 C656 1.358 . S
C658 N659 1.279 . S
C658 H699 0.930 . S
N659 C657 1.314 . S
N659 C658 1.279 . S
C660 C662 1.353 . S
C660 N663 1.314 . S
C660 H666 0.930 . S
C661 N663 1.279 . S
C661 C664 1.358 . S
C661 H667 0.930 . S
C662 C660 1.353 . S
C662 C665 1.348 . S
C662 H700 0.929 . S
N663 Li618 1.990 . S
N663 C660 1.314 . S
N663 C661 1.279 . S
C664 C661 1.358 . S
C664 C665 1.356 . S
C664 H701 0.930 . S
C665 C662 1.348 . S
C665 C664 1.356 . S
H666 C660 0.930 . S
H667 C661 0.930 . S
C668 N669 1.314 . S
C668 C670 1.353 . S
C668 H674 0.930 . S
N669 Li619 1.990 . S
N669 C668 1.314 . S
N669 C672 1.279 . S
C670 C668 1.353 . S
C670 C673 1.348 . S
C670 H702 0.929 . S
C671 C672 1.358 . S
C671 C673 1.356 . S
C671 H703 0.930 . S
C672 N669 1.279 . S
C672 C671 1.358 . S
C672 H675 0.930 . S
C673 C670 1.348 . S
C673 C671 1.356 . S
H674 C668 0.930 . S
H675 C672 0.930 . S
O676 Li616 1.956 . S
O676 Li617 1.970 . S
O676 Li618 1.961 . S
O676 C620 1.325 . S
O677 Li616 1.970 . S
O677 Li617 1.956 . S
O677 Li619 1.961 . S
O677 C626 1.325 . S
O678 Li616 1.961 . S
O678 Li618 1.956 . S
O678 Li619 1.970 . S
O678 C648 1.325 . S
O679 Li617 1.961 . S
O679 Li618 1.970 . S
O679 Li619 1.956 . S
O679 C654 1.325 . S
H680 C622 0.929 . S
H681 C623 0.930 . S
H682 C624 0.930 . S
H683 C625 0.930 . S
H684 C627 0.930 . S
H685 C629 0.929 . S
H686 C630 0.930 . S
H687 C631 0.930 . S
H688 C634 0.930 . S
H689 C637 0.929 . S
H690 C642 0.929 . S
H691 C643 0.930 . S
H692 C650 0.929 . S
H693 C651 0.930 . S
H694 C652 0.930 . S
H695 C653 0.930 . S
H696 C655 0.929 . S
H697 C656 0.930 . S
H698 C657 0.930 . S
H699 C658 0.930 . S
H700 C662 0.929 . S
H701 C664 0.930 . S
H702 C670 0.929 . S
H703 C671 0.930 . S
Li704 N721 1.990 . S
Li704 O764 1.956 . S
Li704 O765 1.970 . S
Li704 O766 1.961 . S
Li705 N729 1.990 . S
Li705 O764 1.970 . S
Li705 O765 1.956 . S
Li705 O767 1.961 . S
Li706 N751 1.990 . S
Li706 O764 1.961 . S
Li706 O766 1.956 . S
Li706 O767 1.970 . S
Li707 N757 1.990 . S
Li707 O765 1.961 . S
Li707 O766 1.970 . S
Li707 O767 1.956 . S
C708 C710 1.348 . S
C708 C711 1.356 . S
C708 O764 1.325 . S
N709 C712 1.314 1_556 S
N709 C713 1.279 . S
C710 C708 1.348 . S
C710 C712 1.353 . S
C710 H768 0.929 . S
C711 C708 1.356 . S
C711 C713 1.358 1_554 S
C711 H769 0.930 . S
C712 N709 1.314 1_554 S
C712 C710 1.353 . S
C712 H770 0.930 . S
C713 N709 1.279 . S
C713 C711 1.358 1_556 S
C713 H771 0.930 . S
C714 C717 1.348 . S
C714 C718 1.356 . S
C714 O765 1.325 . S
C715 N716 1.279 . S
C715 C718 1.358 . S
C715 H772 0.930 . S
N716 C715 1.279 . S
N716 C719 1.314 . S
C717 C714 1.348 . S
C717 C719 1.353 . S
C717 H773 0.929 . S
C718 C714 1.356 . S
C718 C715 1.358 . S
C718 H774 0.930 . S
C719 N716 1.314 . S
C719 C717 1.353 . S
C719 H775 0.930 . S
C720 N721 1.314 . S
C720 C725 1.353 . S
C720 H726 0.930 . S
N721 Li704 1.990 . S
N721 C720 1.314 . S
N721 C723 1.279 . S
C722 C723 1.358 . S
C722 C724 1.356 . S
C722 H776 0.930 . S
C723 N721 1.279 . S
C723 C722 1.358 . S
C723 H727 0.930 . S
C724 C722 1.356 . S
C724 C725 1.348 . S
C725 C720 1.353 . S
C725 C724 1.348 . S
C725 H777 0.929 . S
H726 C720 0.930 . S
H727 C723 0.930 . S
C728 N729 1.314 . S
C728 C730 1.353 . S
C728 H734 0.930 . S
N729 Li705 1.990 . S
N729 C728 1.314 . S
N729 C732 1.279 . S
C730 C728 1.353 . S
C730 C733 1.348 . S
C730 H778 0.929 . S
C731 C732 1.358 . S
C731 C733 1.356 . S
C731 H779 0.930 . S
C732 N729 1.279 . S
C732 C731 1.358 . S
C732 H735 0.930 . S
C733 C730 1.348 . S
C733 C731 1.356 . S
H734 C728 0.930 . S
H735 C732 0.930 . S
C736 C738 1.348 . S
C736 C739 1.356 . S
C736 O766 1.325 . S
N737 C740 1.314 . S
N737 C741 1.279 . S
C738 C736 1.348 . S
C738 C740 1.353 . S
C738 H780 0.929 . S
C739 C736 1.356 . S
C739 C741 1.358 . S
C739 H781 0.930 . S
C740 N737 1.314 . S
C740 C738 1.353 . S
C740 H782 0.930 . S
C741 N737 1.279 . S
C741 C739 1.358 . S
C741 H783 0.930 . S
C742 C743 1.348 . S
C742 C744 1.356 . S
C742 O767 1.325 . S
C743 C742 1.348 . S
C743 C745 1.353 . S
C743 H784 0.929 . S
C744 C742 1.356 . S
C744 C746 1.358 . S
C744 H785 0.930 . S
C745 C743 1.353 . S
C745 N747 1.314 . S
C745 H786 0.930 . S
C746 C744 1.358 . S
C746 N747 1.279 . S
C746 H787 0.930 . S
N747 C745 1.314 . S
N747 C746 1.279 . S
C748 C750 1.353 . S
C748 N751 1.314 . S
C748 H754 0.930 . S
C749 N751 1.279 . S
C749 C752 1.358 . S
C749 H755 0.930 . S
C750 C748 1.353 . S
C750 C753 1.348 . S
C750 H788 0.929 . S
N751 Li706 1.990 . S
N751 C748 1.314 . S
N751 C749 1.279 . S
C752 C749 1.358 . S
C752 C753 1.356 . S
C752 H789 0.930 . S
C753 C750 1.348 . S
C753 C752 1.356 . S
H754 C748 0.930 . S
H755 C749 0.930 . S
C756 N757 1.314 . S
C756 C758 1.353 . S
C756 H762 0.930 . S
N757 Li707 1.990 . S
N757 C756 1.314 . S
N757 C760 1.279 . S
C758 C756 1.353 . S
C758 C761 1.348 . S
C758 H790 0.929 . S
C759 C760 1.358 . S
C759 C761 1.356 . S
C759 H791 0.930 . S
C760 N757 1.279 . S
C760 C759 1.358 . S
C760 H763 0.930 . S
C761 C758 1.348 . S
C761 C759 1.356 . S
H762 C756 0.930 . S
H763 C760 0.930 . S
O764 Li704 1.956 . S
O764 Li705 1.970 . S
O764 Li706 1.961 . S
O764 C708 1.325 . S
O765 Li704 1.970 . S
O765 Li705 1.956 . S
O765 Li707 1.961 . S
O765 C714 1.325 . S
O766 Li704 1.961 . S
O766 Li706 1.956 . S
O766 Li707 1.970 . S
O766 C736 1.325 . S
O767 Li705 1.961 . S
O767 Li706 1.970 . S
O767 Li707 1.956 . S
O767 C742 1.325 . S
H768 C710 0.929 . S
H769 C711 0.930 . S
H770 C712 0.930 . S
H771 C713 0.930 . S
H772 C715 0.930 . S
H773 C717 0.929 . S
H774 C718 0.930 . S
H775 C719 0.930 . S
H776 C722 0.930 . S
H777 C725 0.929 . S
H778 C730 0.929 . S
H779 C731 0.930 . S
H780 C738 0.929 . S
H781 C739 0.930 . S
H782 C740 0.930 . S
H783 C741 0.930 . S
H784 C743 0.929 . S
H785 C744 0.930 . S
H786 C745 0.930 . S
H787 C746 0.930 . S
H788 C750 0.929 . S
H789 C752 0.930 . S
H790 C758 0.929 . S
H791 C759 0.930 . S
Li792 N809 1.990 . S
Li792 O852 1.956 . S
Li792 O853 1.970 . S
Li792 O854 1.961 . S
Li793 N817 1.990 . S
Li793 O852 1.970 . S
Li793 O853 1.956 . S
Li793 O855 1.961 . S
Li794 N839 1.990 . S
Li794 O852 1.961 . S
Li794 O854 1.956 . S
Li794 O855 1.970 . S
Li795 N845 1.990 . S
Li795 O853 1.961 . S
Li795 O854 1.970 . S
Li795 O855 1.956 . S
C796 C798 1.348 . S
C796 C799 1.356 . S
C796 O852 1.325 . S
N797 C800 1.314 . S
N797 C801 1.279 . S
C798 C796 1.348 . S
C798 C800 1.353 . S
C798 H856 0.929 . S
C799 C796 1.356 . S
C799 C801 1.358 . S
C799 H857 0.930 . S
C800 N797 1.314 . S
C800 C798 1.353 . S
C800 H858 0.930 . S
C801 N797 1.279 . S
C801 C799 1.358 . S
C801 H859 0.930 . S
C802 C805 1.348 . S
C802 C806 1.356 . S
C802 O853 1.325 . S
C803 N804 1.279 . S
C803 C806 1.358 . S
C803 H860 0.930 . S
N804 C803 1.279 . S
N804 C807 1.314 . S
C805 C802 1.348 . S
C805 C807 1.353 . S
C805 H861 0.929 . S
C806 C802 1.356 . S
C806 C803 1.358 . S
C806 H862 0.930 . S
C807 N804 1.314 . S
C807 C805 1.353 . S
C807 H863 0.930 . S
C808 N809 1.314 . S
C808 C813 1.353 . S
C808 H814 0.930 . S
N809 Li792 1.990 . S
N809 C808 1.314 . S
N809 C811 1.279 . S
C810 C811 1.358 . S
C810 C812 1.356 . S
C810 H864 0.930 . S
C811 N809 1.279 . S
C811 C810 1.358 . S
C811 H815 0.930 . S
C812 C810 1.356 . S
C812 C813 1.348 . S
C813 C808 1.353 . S
C813 C812 1.348 . S
C813 H865 0.929 . S
H814 C808 0.930 . S
H815 C811 0.930 . S
C816 N817 1.314 . S
C816 C818 1.353 . S
C816 H822 0.930 . S
N817 Li793 1.990 . S
N817 C816 1.314 . S
N817 C820 1.279 . S
C818 C816 1.353 . S
C818 C821 1.348 . S
C818 H866 0.929 . S
C819 C820 1.358 . S
C819 C821 1.356 . S
C819 H867 0.930 . S
C820 N817 1.279 . S
C820 C819 1.358 . S
C820 H823 0.930 . S
C821 C818 1.348 . S
C821 C819 1.356 . S
H822 C816 0.930 . S
H823 C820 0.930 . S
C824 C826 1.348 . S
C824 C827 1.356 . S
C824 O854 1.325 . S
N825 C828 1.314 . S
N825 C829 1.279 . S
C826 C824 1.348 . S
C826 C828 1.353 . S
C826 H868 0.929 . S
C827 C824 1.356 . S
C827 C829 1.358 . S
C827 H869 0.930 . S
C828 N825 1.314 . S
C828 C826 1.353 . S
C828 H870 0.930 . S
C829 N825 1.279 . S
C829 C827 1.358 . S
C829 H871 0.930 . S
C830 C831 1.348 . S
C830 C832 1.356 . S
C830 O855 1.325 . S
C831 C830 1.348 . S
C831 C833 1.353 . S
C831 H872 0.929 . S
C832 C830 1.356 . S
C832 C834 1.358 . S
C832 H873 0.930 . S
C833 C831 1.353 . S
C833 N835 1.314 . S
C833 H874 0.930 . S
C834 C832 1.358 . S
C834 N835 1.279 . S
C834 H875 0.930 . S
N835 C833 1.314 . S
N835 C834 1.279 . S
C836 C838 1.353 . S
C836 N839 1.314 . S
C836 H842 0.930 . S
C837 N839 1.279 . S
C837 C840 1.358 . S
C837 H843 0.930 . S
C838 C836 1.353 . S
C838 C841 1.348 . S
C838 H876 0.929 . S
N839 Li794 1.990 . S
N839 C836 1.314 . S
N839 C837 1.279 . S
C840 C837 1.358 . S
C840 C841 1.356 . S
C840 H877 0.930 . S
C841 C838 1.348 . S
C841 C840 1.356 . S
H842 C836 0.930 . S
H843 C837 0.930 . S
C844 N845 1.314 . S
C844 C846 1.353 . S
C844 H850 0.930 . S
N845 Li795 1.990 . S
N845 C844 1.314 . S
N845 C848 1.279 . S
C846 C844 1.353 . S
C846 C849 1.348 . S
C846 H878 0.929 . S
C847 C848 1.358 . S
C847 C849 1.356 . S
C847 H879 0.930 . S
C848 N845 1.279 . S
C848 C847 1.358 . S
C848 H851 0.930 . S
C849 C846 1.348 . S
C849 C847 1.356 . S
H850 C844 0.930 . S
H851 C848 0.930 . S
O852 Li792 1.956 . S
O852 Li793 1.970 . S
O852 Li794 1.961 . S
O852 C796 1.325 . S
O853 Li792 1.970 . S
O853 Li793 1.956 . S
O853 Li795 1.961 . S
O853 C802 1.325 . S
O854 Li792 1.961 . S
O854 Li794 1.956 . S
O854 Li795 1.970 . S
O854 C824 1.325 . S
O855 Li793 1.961 . S
O855 Li794 1.970 . S
O855 Li795 1.956 . S
O855 C830 1.325 . S
H856 C798 0.929 . S
H857 C799 0.930 . S
H858 C800 0.930 . S
H859 C801 0.930 . S
H860 C803 0.930 . S
H861 C805 0.929 . S
H862 C806 0.930 . S
H863 C807 0.930 . S
H864 C810 0.930 . S
H865 C813 0.929 . S
H866 C818 0.929 . S
H867 C819 0.930 . S
H868 C826 0.929 . S
H869 C827 0.930 . S
H870 C828 0.930 . S
H871 C829 0.930 . S
H872 C831 0.929 . S
H873 C832 0.930 . S
H874 C833 0.930 . S
H875 C834 0.930 . S
H876 C838 0.929 . S
H877 C840 0.930 . S
H878 C846 0.929 . S
H879 C847 0.930 . S
Li880 N897 1.990 . S
Li880 O940 1.956 . S
Li880 O941 1.970 . S
Li880 O942 1.961 . S
Li881 N905 1.990 . S
Li881 O940 1.970 . S
Li881 O941 1.956 . S
Li881 O943 1.961 . S
Li882 N927 1.990 . S
Li882 O940 1.961 . S
Li882 O942 1.956 . S
Li882 O943 1.970 . S
Li883 N933 1.990 . S
Li883 O941 1.961 . S
Li883 O942 1.970 . S
Li883 O943 1.956 . S
C884 C886 1.348 . S
C884 C887 1.356 . S
C884 O940 1.325 . S
N885 C888 1.314 . S
N885 C889 1.279 . S
C886 C884 1.348 . S
C886 C888 1.353 . S
C886 H944 0.929 . S
C887 C884 1.356 . S
C887 C889 1.358 . S
C887 H945 0.930 . S
C888 N885 1.314 . S
C888 C886 1.353 . S
C888 H946 0.930 . S
C889 N885 1.279 . S
C889 C887 1.358 . S
C889 H947 0.930 . S
C890 C893 1.348 . S
C890 C894 1.356 . S
C890 O941 1.325 . S
C891 N892 1.279 . S
C891 C894 1.358 . S
C891 H948 0.930 . S
N892 C891 1.279 . S
N892 C895 1.314 . S
C893 C890 1.348 . S
C893 C895 1.353 . S
C893 H949 0.929 . S
C894 C890 1.356 . S
C894 C891 1.358 . S
C894 H950 0.930 . S
C895 N892 1.314 . S
C895 C893 1.353 . S
C895 H951 0.930 . S
C896 N897 1.314 . S
C896 C901 1.353 . S
C896 H902 0.930 . S
N897 Li880 1.990 . S
N897 C896 1.314 . S
N897 C899 1.279 . S
C898 C899 1.358 . S
C898 C900 1.356 . S
C898 H952 0.930 . S
C899 N897 1.279 . S
C899 C898 1.358 . S
C899 H903 0.930 . S
C900 C898 1.356 . S
C900 C901 1.348 . S
C901 C896 1.353 . S
C901 C900 1.348 . S
C901 H953 0.929 . S
H902 C896 0.930 . S
H903 C899 0.930 . S
C904 N905 1.314 . S
C904 C906 1.353 . S
C904 H910 0.930 . S
N905 Li881 1.990 . S
N905 C904 1.314 . S
N905 C908 1.279 . S
C906 C904 1.353 . S
C906 C909 1.348 . S
C906 H954 0.929 . S
C907 C908 1.358 . S
C907 C909 1.356 . S
C907 H955 0.930 . S
C908 N905 1.279 . S
C908 C907 1.358 . S
C908 H911 0.930 . S
C909 C906 1.348 . S
C909 C907 1.356 . S
H910 C904 0.930 . S
H911 C908 0.930 . S
C912 C914 1.348 . S
C912 C915 1.356 . S
C912 O942 1.325 . S
N913 C916 1.314 . S
N913 C917 1.279 . S
C914 C912 1.348 . S
C914 C916 1.353 . S
C914 H956 0.929 . S
C915 C912 1.356 . S
C915 C917 1.358 . S
C915 H957 0.930 . S
C916 N913 1.314 . S
C916 C914 1.353 . S
C916 H958 0.930 . S
C917 N913 1.279 . S
C917 C915 1.358 . S
C917 H959 0.930 . S
C918 C919 1.348 . S
C918 C920 1.356 . S
C918 O943 1.325 . S
C919 C918 1.348 . S
C919 C921 1.353 . S
C919 H960 0.929 . S
C920 C918 1.356 . S
C920 C922 1.358 1_556 S
C920 H961 0.930 . S
C921 C919 1.353 . S
C921 N923 1.314 1_556 S
C921 H962 0.930 . S
C922 C920 1.358 1_554 S
C922 N923 1.279 . S
C922 H963 0.930 . S
N923 C921 1.314 1_554 S
N923 C922 1.279 . S
C924 C926 1.353 . S
C924 N927 1.314 . S
C924 H930 0.930 . S
C925 N927 1.279 . S
C925 C928 1.358 . S
C925 H931 0.930 . S
C926 C924 1.353 . S
C926 C929 1.348 . S
C926 H964 0.929 . S
N927 Li882 1.990 . S
N927 C924 1.314 . S
N927 C925 1.279 . S
C928 C925 1.358 . S
C928 C929 1.356 . S
C928 H965 0.930 . S
C929 C926 1.348 . S
C929 C928 1.356 . S
H930 C924 0.930 . S
H931 C925 0.930 . S
C932 N933 1.314 . S
C932 C934 1.353 . S
C932 H938 0.930 . S
N933 Li883 1.990 . S
N933 C932 1.314 . S
N933 C936 1.279 . S
C934 C932 1.353 . S
C934 C937 1.348 . S
C934 H966 0.929 . S
C935 C936 1.358 . S
C935 C937 1.356 . S
C935 H967 0.930 . S
C936 N933 1.279 . S
C936 C935 1.358 . S
C936 H939 0.930 . S
C937 C934 1.348 . S
C937 C935 1.356 . S
H938 C932 0.930 . S
H939 C936 0.930 . S
O940 Li880 1.956 . S
O940 Li881 1.970 . S
O940 Li882 1.961 . S
O940 C884 1.325 . S
O941 Li880 1.970 . S
O941 Li881 1.956 . S
O941 Li883 1.961 . S
O941 C890 1.325 . S
O942 Li880 1.961 . S
O942 Li882 1.956 . S
O942 Li883 1.970 . S
O942 C912 1.325 . S
O943 Li881 1.961 . S
O943 Li882 1.970 . S
O943 Li883 1.956 . S
O943 C918 1.325 . S
H944 C886 0.929 . S
H945 C887 0.930 . S
H946 C888 0.930 . S
H947 C889 0.930 . S
H948 C891 0.930 . S
H949 C893 0.929 . S
H950 C894 0.930 . S
H951 C895 0.930 . S
H952 C898 0.930 . S
H953 C901 0.929 . S
H954 C906 0.929 . S
H955 C907 0.930 . S
H956 C914 0.929 . S
H957 C915 0.930 . S
H958 C916 0.930 . S
H959 C917 0.930 . S
H960 C919 0.929 . S
H961 C920 0.930 . S
H962 C921 0.930 . S
H963 C922 0.930 . S
H964 C926 0.929 . S
H965 C928 0.930 . S
H966 C934 0.929 . S
H967 C935 0.930 . S
Li968 N985 1.990 . S
Li968 O1028 1.956 . S
Li968 O1029 1.970 . S
Li968 O1030 1.961 . S
Li969 N993 1.990 . S
Li969 O1028 1.970 . S
Li969 O1029 1.956 . S
Li969 O1031 1.961 . S
Li970 N1015 1.990 . S
Li970 O1028 1.961 . S
Li970 O1030 1.956 . S
Li970 O1031 1.970 . S
Li971 N1021 1.990 . S
Li971 O1029 1.961 . S
Li971 O1030 1.970 . S
Li971 O1031 1.956 . S
C972 C974 1.348 . S
C972 C975 1.356 . S
C972 O1028 1.325 . S
N973 C976 1.314 . S
N973 C977 1.279 . S
C974 C972 1.348 . S
C974 C976 1.353 . S
C974 H1032 0.929 . S
C975 C972 1.356 . S
C975 C977 1.358 . S
C975 H1033 0.930 . S
C976 N973 1.314 . S
C976 C974 1.353 . S
C976 H1034 0.930 . S
C977 N973 1.279 . S
C977 C975 1.358 . S
C977 H1035 0.930 . S
C978 C981 1.348 . S
C978 C982 1.356 . S
C978 O1029 1.325 . S
C979 N980 1.279 . S
C979 C982 1.358 . S
C979 H1036 0.930 . S
N980 C979 1.279 . S
N980 C983 1.314 . S
C981 C978 1.348 . S
C981 C983 1.353 . S
C981 H1037 0.929 . S
C982 C978 1.356 . S
C982 C979 1.358 . S
C982 H1038 0.930 . S
C983 N980 1.314 . S
C983 C981 1.353 . S
C983 H1039 0.930 . S
C984 N985 1.314 . S
C984 C989 1.353 . S
C984 H990 0.930 . S
N985 Li968 1.990 . S
N985 C984 1.314 . S
N985 C987 1.279 . S
C986 C987 1.358 . S
C986 C988 1.356 . S
C986 H1040 0.930 . S
C987 N985 1.279 . S
C987 C986 1.358 . S
C987 H991 0.930 . S
C988 C986 1.356 . S
C988 C989 1.348 . S
C989 C984 1.353 . S
C989 C988 1.348 . S
C989 H1041 0.929 . S
H990 C984 0.930 . S
H991 C987 0.930 . S
C992 N993 1.314 . S
C992 C994 1.353 . S
C992 H998 0.930 . S
N993 Li969 1.990 . S
N993 C992 1.314 . S
N993 C996 1.279 . S
C994 C992 1.353 . S
C994 C997 1.348 . S
C994 H1042 0.929 . S
C995 C996 1.358 . S
C995 C997 1.356 . S
C995 H1043 0.930 . S
C996 N993 1.279 . S
C996 C995 1.358 . S
C996 H999 0.930 . S
C997 C994 1.348 . S
C997 C995 1.356 . S
H998 C992 0.930 . S
H999 C996 0.930 . S
C1000 C1002 1.348 . S
C1000 C1003 1.356 . S
C1000 O1030 1.325 . S
N1001 C1004 1.314 . S
N1001 C1005 1.279 . S
C1002 C1000 1.348 . S
C1002 C1004 1.353 . S
C1002 H1044 0.929 . S
C1003 C1000 1.356 . S
C1003 C1005 1.358 . S
C1003 H1045 0.930 . S
C1004 N1001 1.314 . S
C1004 C1002 1.353 . S
C1004 H1046 0.930 . S
C1005 N1001 1.279 . S
C1005 C1003 1.358 . S
C1005 H1047 0.930 . S
C1006 C1007 1.348 . S
C1006 C1008 1.356 . S
C1006 O1031 1.325 . S
C1007 C1006 1.348 . S
C1007 C1009 1.353 . S
C1007 H1048 0.929 . S
C1008 C1006 1.356 . S
C1008 C1010 1.358 . S
C1008 H1049 0.930 . S
C1009 C1007 1.353 . S
C1009 N1011 1.314 . S
C1009 H1050 0.930 . S
C1010 C1008 1.358 . S
C1010 N1011 1.279 . S
C1010 H1051 0.930 . S
N1011 C1009 1.314 . S
N1011 C1010 1.279 . S
C1012 C1014 1.353 . S
C1012 N1015 1.314 . S
C1012 H1018 0.930 . S
C1013 N1015 1.279 . S
C1013 C1016 1.358 . S
C1013 H1019 0.930 . S
C1014 C1012 1.353 . S
C1014 C1017 1.348 . S
C1014 H1052 0.929 . S
N1015 Li970 1.990 . S
N1015 C1012 1.314 . S
N1015 C1013 1.279 . S
C1016 C1013 1.358 . S
C1016 C1017 1.356 . S
C1016 H1053 0.930 . S
C1017 C1014 1.348 . S
C1017 C1016 1.356 . S
H1018 C1012 0.930 . S
H1019 C1013 0.930 . S
C1020 N1021 1.314 . S
C1020 C1022 1.353 . S
C1020 H1026 0.930 . S
N1021 Li971 1.990 . S
N1021 C1020 1.314 . S
N1021 C1024 1.279 . S
C1022 C1020 1.353 . S
C1022 C1025 1.348 . S
C1022 H1054 0.929 . S
C1023 C1024 1.358 . S
C1023 C1025 1.356 . S
C1023 H1055 0.930 . S
C1024 N1021 1.279 . S
C1024 C1023 1.358 . S
C1024 H1027 0.930 . S
C1025 C1022 1.348 . S
C1025 C1023 1.356 . S
H1026 C1020 0.930 . S
H1027 C1024 0.930 . S
O1028 Li968 1.956 . S
O1028 Li969 1.970 . S
O1028 Li970 1.961 . S
O1028 C972 1.325 . S
O1029 Li968 1.970 . S
O1029 Li969 1.956 . S
O1029 Li971 1.961 . S
O1029 C978 1.325 . S
O1030 Li968 1.961 . S
O1030 Li970 1.956 . S
O1030 Li971 1.970 . S
O1030 C1000 1.325 . S
O1031 Li969 1.961 . S
O1031 Li970 1.970 . S
O1031 Li971 1.956 . S
O1031 C1006 1.325 . S
H1032 C974 0.929 . S
H1033 C975 0.930 . S
H1034 C976 0.930 . S
H1035 C977 0.930 . S
H1036 C979 0.930 . S
H1037 C981 0.929 . S
H1038 C982 0.930 . S
H1039 C983 0.930 . S
H1040 C986 0.930 . S
H1041 C989 0.929 . S
H1042 C994 0.929 . S
H1043 C995 0.930 . S
H1044 C1002 0.929 . S
H1045 C1003 0.930 . S
H1046 C1004 0.930 . S
H1047 C1005 0.930 . S
H1048 C1007 0.929 . S
H1049 C1008 0.930 . S
H1050 C1009 0.930 . S
H1051 C1010 0.930 . S
H1052 C1014 0.929 . S
H1053 C1016 0.930 . S
H1054 C1022 0.929 . S
H1055 C1023 0.930 . S
Li1056 N1073 1.990 . S
Li1056 O1116 1.956 . S
Li1056 O1117 1.970 . S
Li1056 O1118 1.961 . S
Li1057 N1081 1.990 . S
Li1057 O1116 1.970 . S
Li1057 O1117 1.956 . S
Li1057 O1119 1.961 . S
Li1058 N1103 1.990 . S
Li1058 O1116 1.961 . S
Li1058 O1118 1.956 . S
Li1058 O1119 1.970 . S
Li1059 N1109 1.990 . S
Li1059 O1117 1.961 . S
Li1059 O1118 1.970 . S
Li1059 O1119 1.956 . S
C1060 C1062 1.348 . S
C1060 C1063 1.356 . S
C1060 O1116 1.325 . S
N1061 C1064 1.314 . S
N1061 C1065 1.279 . S
C1062 C1060 1.348 . S
C1062 C1064 1.353 . S
C1062 H1120 0.929 . S
C1063 C1060 1.356 . S
C1063 C1065 1.358 . S
C1063 H1121 0.930 . S
C1064 N1061 1.314 . S
C1064 C1062 1.353 . S
C1064 H1122 0.930 . S
C1065 N1061 1.279 . S
C1065 C1063 1.358 . S
C1065 H1123 0.930 . S
C1066 C1069 1.348 . S
C1066 C1070 1.356 . S
C1066 O1117 1.325 . S
C1067 N1068 1.279 1_556 S
C1067 C1070 1.358 . S
C1067 H1124 0.930 . S
N1068 C1067 1.279 1_554 S
N1068 C1071 1.314 . S
C1069 C1066 1.348 . S
C1069 C1071 1.353 1_556 S
C1069 H1125 0.929 . S
C1070 C1066 1.356 . S
C1070 C1067 1.358 . S
C1070 H1126 0.930 . S
C1071 N1068 1.314 . S
C1071 C1069 1.353 1_554 S
C1071 H1127 0.930 . S
C1072 N1073 1.314 . S
C1072 C1077 1.353 . S
C1072 H1078 0.930 . S
N1073 Li1056 1.990 . S
N1073 C1072 1.314 . S
N1073 C1075 1.279 . S
C1074 C1075 1.358 . S
C1074 C1076 1.356 . S
C1074 H1128 0.930 . S
C1075 N1073 1.279 . S
C1075 C1074 1.358 . S
C1075 H1079 0.930 . S
C1076 C1074 1.356 . S
C1076 C1077 1.348 . S
C1077 C1072 1.353 . S
C1077 C1076 1.348 . S
C1077 H1129 0.929 . S
H1078 C1072 0.930 . S
H1079 C1075 0.930 . S
C1080 N1081 1.314 . S
C1080 C1082 1.353 . S
C1080 H1086 0.930 . S
N1081 Li1057 1.990 . S
N1081 C1080 1.314 . S
N1081 C1084 1.279 . S
C1082 C1080 1.353 . S
C1082 C1085 1.348 . S
C1082 H1130 0.929 . S
C1083 C1084 1.358 . S
C1083 C1085 1.356 . S
C1083 H1131 0.930 1_556 S
C1084 N1081 1.279 . S
C1084 C1083 1.358 . S
C1084 H1087 0.930 . S
C1085 C1082 1.348 . S
C1085 C1083 1.356 . S
H1086 C1080 0.930 . S
H1087 C1084 0.930 . S
C1088 C1090 1.348 . S
C1088 C1091 1.356 . S
C1088 O1118 1.325 . S
N1089 C1092 1.314 . S
N1089 C1093 1.279 . S
C1090 C1088 1.348 . S
C1090 C1092 1.353 . S
C1090 H1132 0.929 . S
C1091 C1088 1.356 . S
C1091 C1093 1.358 . S
C1091 H1133 0.930 . S
C1092 N1089 1.314 . S
C1092 C1090 1.353 . S
C1092 H1134 0.930 . S
C1093 N1089 1.279 . S
C1093 C1091 1.358 . S
C1093 H1135 0.930 . S
C1094 C1095 1.348 . S
C1094 C1096 1.356 . S
C1094 O1119 1.325 . S
C1095 C1094 1.348 . S
C1095 C1097 1.353 . S
C1095 H1136 0.929 . S
C1096 C1094 1.356 . S
C1096 C1098 1.358 . S
C1096 H1137 0.930 . S
C1097 C1095 1.353 . S
C1097 N1099 1.314 . S
C1097 H1138 0.930 . S
C1098 C1096 1.358 . S
C1098 N1099 1.279 . S
C1098 H1139 0.930 . S
N1099 C1097 1.314 . S
N1099 C1098 1.279 . S
C1100 C1102 1.353 . S
C1100 N1103 1.314 . S
C1100 H1106 0.930 . S
C1101 N1103 1.279 . S
C1101 C1104 1.358 . S
C1101 H1107 0.930 . S
C1102 C1100 1.353 . S
C1102 C1105 1.348 . S
C1102 H1140 0.929 . S
N1103 Li1058 1.990 . S
N1103 C1100 1.314 . S
N1103 C1101 1.279 . S
C1104 C1101 1.358 . S
C1104 C1105 1.356 . S
C1104 H1141 0.930 . S
C1105 C1102 1.348 . S
C1105 C1104 1.356 . S
H1106 C1100 0.930 . S
H1107 C1101 0.930 . S
C1108 N1109 1.314 . S
C1108 C1110 1.353 . S
C1108 H1114 0.930 . S
N1109 Li1059 1.990 . S
N1109 C1108 1.314 . S
N1109 C1112 1.279 . S
C1110 C1108 1.353 . S
C1110 C1113 1.348 . S
C1110 H1142 0.929 . S
C1111 C1112 1.358 . S
C1111 C1113 1.356 . S
C1111 H1143 0.930 . S
C1112 N1109 1.279 . S
C1112 C1111 1.358 . S
C1112 H1115 0.930 . S
C1113 C1110 1.348 . S
C1113 C1111 1.356 . S
H1114 C1108 0.930 . S
H1115 C1112 0.930 . S
O1116 Li1056 1.956 . S
O1116 Li1057 1.970 . S
O1116 Li1058 1.961 . S
O1116 C1060 1.325 . S
O1117 Li1056 1.970 . S
O1117 Li1057 1.956 . S
O1117 Li1059 1.961 . S
O1117 C1066 1.325 . S
O1118 Li1056 1.961 . S
O1118 Li1058 1.956 . S
O1118 Li1059 1.970 . S
O1118 C1088 1.325 . S
O1119 Li1057 1.961 . S
O1119 Li1058 1.970 . S
O1119 Li1059 1.956 . S
O1119 C1094 1.325 . S
H1120 C1062 0.929 . S
H1121 C1063 0.930 . S
H1122 C1064 0.930 . S
H1123 C1065 0.930 . S
H1124 C1067 0.930 . S
H1125 C1069 0.929 . S
H1126 C1070 0.930 . S
H1127 C1071 0.930 . S
H1128 C1074 0.930 . S
H1129 C1077 0.929 . S
H1130 C1082 0.929 . S
H1131 C1083 0.930 1_554 S
H1132 C1090 0.929 . S
H1133 C1091 0.930 . S
H1134 C1092 0.930 . S
H1135 C1093 0.930 . S
H1136 C1095 0.929 . S
H1137 C1096 0.930 . S
H1138 C1097 0.930 . S
H1139 C1098 0.930 . S
H1140 C1102 0.929 . S
H1141 C1104 0.930 . S
H1142 C1110 0.929 . S
H1143 C1111 0.930 . S
Li1144 N1161 1.990 . S
Li1144 O1204 1.956 . S
Li1144 O1205 1.970 . S
Li1144 O1206 1.961 . S
Li1145 N1169 1.990 . S
Li1145 O1204 1.970 . S
Li1145 O1205 1.956 . S
Li1145 O1207 1.961 . S
Li1146 N1191 1.990 . S
Li1146 O1204 1.961 . S
Li1146 O1206 1.956 . S
Li1146 O1207 1.970 . S
Li1147 N1197 1.990 . S
Li1147 O1205 1.961 . S
Li1147 O1206 1.970 . S
Li1147 O1207 1.956 . S
C1148 C1150 1.348 . S
C1148 C1151 1.356 . S
C1148 O1204 1.325 . S
N1149 C1152 1.314 . S
N1149 C1153 1.279 . S
C1150 C1148 1.348 . S
C1150 C1152 1.353 . S
C1150 H1208 0.929 . S
C1151 C1148 1.356 . S
C1151 C1153 1.358 . S
C1151 H1209 0.930 . S
C1152 N1149 1.314 . S
C1152 C1150 1.353 . S
C1152 H1210 0.930 . S
C1153 N1149 1.279 . S
C1153 C1151 1.358 . S
C1153 H1211 0.930 . S
C1154 C1157 1.348 . S
C1154 C1158 1.356 . S
C1154 O1205 1.325 . S
C1155 N1156 1.279 . S
C1155 C1158 1.358 . S
C1155 H1212 0.930 . S
N1156 C1155 1.279 . S
N1156 C1159 1.314 . S
C1157 C1154 1.348 . S
C1157 C1159 1.353 . S
C1157 H1213 0.929 . S
C1158 C1154 1.356 . S
C1158 C1155 1.358 . S
C1158 H1214 0.930 . S
C1159 N1156 1.314 . S
C1159 C1157 1.353 . S
C1159 H1215 0.930 . S
C1160 N1161 1.314 . S
C1160 C1165 1.353 . S
C1160 H1166 0.930 . S
N1161 Li1144 1.990 . S
N1161 C1160 1.314 . S
N1161 C1163 1.279 . S
C1162 C1163 1.358 . S
C1162 C1164 1.356 . S
C1162 H1216 0.930 . S
C1163 N1161 1.279 . S
C1163 C1162 1.358 . S
C1163 H1167 0.930 . S
C1164 C1162 1.356 . S
C1164 C1165 1.348 . S
C1165 C1160 1.353 . S
C1165 C1164 1.348 . S
C1165 H1217 0.929 . S
H1166 C1160 0.930 . S
H1167 C1163 0.930 . S
C1168 N1169 1.314 . S
C1168 C1170 1.353 . S
C1168 H1174 0.930 . S
N1169 Li1145 1.990 . S
N1169 C1168 1.314 . S
N1169 C1172 1.279 . S
C1170 C1168 1.353 . S
C1170 C1173 1.348 . S
C1170 H1218 0.929 . S
C1171 C1172 1.358 . S
C1171 C1173 1.356 . S
C1171 H1219 0.930 . S
C1172 N1169 1.279 . S
C1172 C1171 1.358 . S
C1172 H1175 0.930 . S
C1173 C1170 1.348 . S
C1173 C1171 1.356 . S
H1174 C1168 0.930 . S
H1175 C1172 0.930 . S
C1176 C1178 1.348 . S
C1176 C1179 1.356 . S
C1176 O1206 1.325 . S
N1177 C1180 1.314 . S
N1177 C1181 1.279 . S
C1178 C1176 1.348 . S
C1178 C1180 1.353 . S
C1178 H1220 0.929 . S
C1179 C1176 1.356 . S
C1179 C1181 1.358 . S
C1179 H1221 0.930 . S
C1180 N1177 1.314 . S
C1180 C1178 1.353 . S
C1180 H1222 0.930 . S
C1181 N1177 1.279 . S
C1181 C1179 1.358 . S
C1181 H1223 0.930 . S
C1182 C1183 1.348 . S
C1182 C1184 1.356 . S
C1182 O1207 1.325 . S
C1183 C1182 1.348 . S
C1183 C1185 1.353 . S
C1183 H1224 0.929 . S
C1184 C1182 1.356 . S
C1184 C1186 1.358 . S
C1184 H1225 0.930 . S
C1185 C1183 1.353 . S
C1185 N1187 1.314 . S
C1185 H1226 0.930 . S
C1186 C1184 1.358 . S
C1186 N1187 1.279 . S
C1186 H1227 0.930 . S
N1187 C1185 1.314 . S
N1187 C1186 1.279 . S
C1188 C1190 1.353 . S
C1188 N1191 1.314 . S
C1188 H1194 0.930 . S
C1189 N1191 1.279 . S
C1189 C1192 1.358 . S
C1189 H1195 0.930 . S
C1190 C1188 1.353 . S
C1190 C1193 1.348 . S
C1190 H1228 0.929 . S
N1191 Li1146 1.990 . S
N1191 C1188 1.314 . S
N1191 C1189 1.279 . S
C1192 C1189 1.358 . S
C1192 C1193 1.356 . S
C1192 H1229 0.930 . S
C1193 C1190 1.348 . S
C1193 C1192 1.356 . S
H1194 C1188 0.930 . S
H1195 C1189 0.930 . S
C1196 N1197 1.314 . S
C1196 C1198 1.353 . S
C1196 H1202 0.930 . S
N1197 Li1147 1.990 . S
N1197 C1196 1.314 . S
N1197 C1200 1.279 . S
C1198 C1196 1.353 . S
C1198 C1201 1.348 . S
C1198 H1230 0.929 . S
C1199 C1200 1.358 . S
C1199 C1201 1.356 . S
C1199 H1231 0.930 . S
C1200 N1197 1.279 . S
C1200 C1199 1.358 . S
C1200 H1203 0.930 . S
C1201 C1198 1.348 . S
C1201 C1199 1.356 . S
H1202 C1196 0.930 . S
H1203 C1200 0.930 . S
O1204 Li1144 1.956 . S
O1204 Li1145 1.970 . S
O1204 Li1146 1.961 . S
O1204 C1148 1.325 . S
O1205 Li1144 1.970 . S
O1205 Li1145 1.956 . S
O1205 Li1147 1.961 . S
O1205 C1154 1.325 . S
O1206 Li1144 1.961 . S
O1206 Li1146 1.956 . S
O1206 Li1147 1.970 . S
O1206 C1176 1.325 . S
O1207 Li1145 1.961 . S
O1207 Li1146 1.970 . S
O1207 Li1147 1.956 . S
O1207 C1182 1.325 . S
H1208 C1150 0.929 . S
H1209 C1151 0.930 . S
H1210 C1152 0.930 . S
H1211 C1153 0.930 . S
H1212 C1155 0.930 . S
H1213 C1157 0.929 . S
H1214 C1158 0.930 . S
H1215 C1159 0.930 . S
H1216 C1162 0.930 . S
H1217 C1165 0.929 . S
H1218 C1170 0.929 . S
H1219 C1171 0.930 . S
H1220 C1178 0.929 . S
H1221 C1179 0.930 . S
H1222 C1180 0.930 . S
H1223 C1181 0.930 . S
H1224 C1183 0.929 . S
H1225 C1184 0.930 . S
H1226 C1185 0.930 . S
H1227 C1186 0.930 . S
H1228 C1190 0.929 . S
H1229 C1192 0.930 . S
H1230 C1198 0.929 . S
H1231 C1199 0.930 . S
Li1232 N1249 1.990 . S
Li1232 O1292 1.956 . S
Li1232 O1293 1.970 . S
Li1232 O1294 1.961 . S
Li1233 N1257 1.990 . S
Li1233 O1292 1.970 . S
Li1233 O1293 1.956 . S
Li1233 O1295 1.961 . S
Li1234 N1279 1.990 . S
Li1234 O1292 1.961 . S
Li1234 O1294 1.956 . S
Li1234 O1295 1.970 . S
Li1235 N1285 1.990 . S
Li1235 O1293 1.961 . S
Li1235 O1294 1.970 . S
Li1235 O1295 1.956 . S
C1236 C1238 1.348 . S
C1236 C1239 1.356 . S
C1236 O1292 1.325 . S
N1237 C1240 1.314 . S
N1237 C1241 1.279 . S
C1238 C1236 1.348 . S
C1238 C1240 1.353 . S
C1238 H1296 0.929 . S
C1239 C1236 1.356 . S
C1239 C1241 1.358 . S
C1239 H1297 0.930 . S
C1240 N1237 1.314 . S
C1240 C1238 1.353 . S
C1240 H1298 0.930 . S
C1241 N1237 1.279 . S
C1241 C1239 1.358 . S
C1241 H1299 0.930 . S
C1242 C1245 1.348 . S
C1242 C1246 1.356 . S
C1242 O1293 1.325 . S
C1243 N1244 1.279 . S
C1243 C1246 1.358 . S
C1243 H1300 0.930 . S
N1244 C1243 1.279 . S
N1244 C1247 1.314 . S
C1245 C1242 1.348 . S
C1245 C1247 1.353 . S
C1245 H1301 0.929 . S
C1246 C1242 1.356 . S
C1246 C1243 1.358 . S
C1246 H1302 0.930 . S
C1247 N1244 1.314 . S
C1247 C1245 1.353 . S
C1247 H1303 0.930 . S
C1248 N1249 1.314 . S
C1248 C1253 1.353 . S
C1248 H1254 0.930 . S
N1249 Li1232 1.990 . S
N1249 C1248 1.314 . S
N1249 C1251 1.279 . S
C1250 C1251 1.358 . S
C1250 C1252 1.356 . S
C1250 H1304 0.930 . S
C1251 N1249 1.279 . S
C1251 C1250 1.358 . S
C1251 H1255 0.930 . S
C1252 C1250 1.356 . S
C1252 C1253 1.348 . S
C1253 C1248 1.353 . S
C1253 C1252 1.348 . S
C1253 H1305 0.929 . S
H1254 C1248 0.930 . S
H1255 C1251 0.930 . S
C1256 N1257 1.314 . S
C1256 C1258 1.353 . S
C1256 H1262 0.930 . S
N1257 Li1233 1.990 . S
N1257 C1256 1.314 . S
N1257 C1260 1.279 . S
C1258 C1256 1.353 . S
C1258 C1261 1.348 . S
C1258 H1306 0.929 . S
C1259 C1260 1.358 . S
C1259 C1261 1.356 . S
C1259 H1307 0.930 . S
C1260 N1257 1.279 . S
C1260 C1259 1.358 . S
C1260 H1263 0.930 . S
C1261 C1258 1.348 . S
C1261 C1259 1.356 . S
H1262 C1256 0.930 . S
H1263 C1260 0.930 . S
C1264 C1266 1.348 . S
C1264 C1267 1.356 . S
C1264 O1294 1.325 . S
N1265 C1268 1.314 . S
N1265 C1269 1.279 1_556 S
C1266 C1264 1.348 . S
C1266 C1268 1.353 1_554 S
C1266 H1308 0.929 . S
C1267 C1264 1.356 . S
C1267 C1269 1.358 . S
C1267 H1309 0.930 . S
C1268 N1265 1.314 . S
C1268 C1266 1.353 1_556 S
C1268 H1310 0.930 . S
C1269 N1265 1.279 1_554 S
C1269 C1267 1.358 . S
C1269 H1311 0.930 . S
C1270 C1271 1.348 . S
C1270 C1272 1.356 . S
C1270 O1295 1.325 . S
C1271 C1270 1.348 . S
C1271 C1273 1.353 . S
C1271 H1312 0.929 . S
C1272 C1270 1.356 . S
C1272 C1274 1.358 . S
C1272 H1313 0.930 . S
C1273 C1271 1.353 . S
C1273 N1275 1.314 . S
C1273 H1314 0.930 . S
C1274 C1272 1.358 . S
C1274 N1275 1.279 . S
C1274 H1315 0.930 . S
N1275 C1273 1.314 . S
N1275 C1274 1.279 . S
C1276 C1278 1.353 . S
C1276 N1279 1.314 . S
C1276 H1282 0.930 . S
C1277 N1279 1.279 . S
C1277 C1280 1.358 . S
C1277 H1283 0.930 . S
C1278 C1276 1.353 . S
C1278 C1281 1.348 . S
C1278 H1316 0.929 . S
N1279 Li1234 1.990 . S
N1279 C1276 1.314 . S
N1279 C1277 1.279 . S
C1280 C1277 1.358 . S
C1280 C1281 1.356 . S
C1280 H1317 0.930 1_554 S
C1281 C1278 1.348 . S
C1281 C1280 1.356 . S
H1282 C1276 0.930 . S
H1283 C1277 0.930 . S
C1284 N1285 1.314 . S
C1284 C1286 1.353 . S
C1284 H1290 0.930 . S
N1285 Li1235 1.990 . S
N1285 C1284 1.314 . S
N1285 C1288 1.279 . S
C1286 C1284 1.353 . S
C1286 C1289 1.348 . S
C1286 H1318 0.929 . S
C1287 C1288 1.358 . S
C1287 C1289 1.356 . S
C1287 H1319 0.930 . S
C1288 N1285 1.279 . S
C1288 C1287 1.358 . S
C1288 H1291 0.930 . S
C1289 C1286 1.348 . S
C1289 C1287 1.356 . S
H1290 C1284 0.930 . S
H1291 C1288 0.930 . S
O1292 Li1232 1.956 . S
O1292 Li1233 1.970 . S
O1292 Li1234 1.961 . S
O1292 C1236 1.325 . S
O1293 Li1232 1.970 . S
O1293 Li1233 1.956 . S
O1293 Li1235 1.961 . S
O1293 C1242 1.325 . S
O1294 Li1232 1.961 . S
O1294 Li1234 1.956 . S
O1294 Li1235 1.970 . S
O1294 C1264 1.325 . S
O1295 Li1233 1.961 . S
O1295 Li1234 1.970 . S
O1295 Li1235 1.956 . S
O1295 C1270 1.325 . S
H1296 C1238 0.929 . S
H1297 C1239 0.930 . S
H1298 C1240 0.930 . S
H1299 C1241 0.930 . S
H1300 C1243 0.930 . S
H1301 C1245 0.929 . S
H1302 C1246 0.930 . S
H1303 C1247 0.930 . S
H1304 C1250 0.930 . S
H1305 C1253 0.929 . S
H1306 C1258 0.929 . S
H1307 C1259 0.930 . S
H1308 C1266 0.929 . S
H1309 C1267 0.930 . S
H1310 C1268 0.930 . S
H1311 C1269 0.930 . S
H1312 C1271 0.929 . S
H1313 C1272 0.930 . S
H1314 C1273 0.930 . S
H1315 C1274 0.930 . S
H1316 C1278 0.929 . S
H1317 C1280 0.930 1_556 S
H1318 C1286 0.929 . S
H1319 C1287 0.930 . S
Li1320 N1337 1.990 . S
Li1320 O1380 1.956 . S
Li1320 O1381 1.970 . S
Li1320 O1382 1.961 . S
Li1321 N1345 1.990 . S
Li1321 O1380 1.970 . S
Li1321 O1381 1.956 . S
Li1321 O1383 1.961 . S
Li1322 N1367 1.990 . S
Li1322 O1380 1.961 . S
Li1322 O1382 1.956 . S
Li1322 O1383 1.970 . S
Li1323 N1373 1.990 . S
Li1323 O1381 1.961 . S
Li1323 O1382 1.970 . S
Li1323 O1383 1.956 . S
C1324 C1326 1.348 . S
C1324 C1327 1.356 . S
C1324 O1380 1.325 . S
N1325 C1328 1.314 . S
N1325 C1329 1.279 . S
C1326 C1324 1.348 . S
C1326 C1328 1.353 . S
C1326 H1384 0.929 . S
C1327 C1324 1.356 . S
C1327 C1329 1.358 . S
C1327 H1385 0.930 . S
C1328 N1325 1.314 . S
C1328 C1326 1.353 . S
C1328 H1386 0.930 . S
C1329 N1325 1.279 . S
C1329 C1327 1.358 . S
C1329 H1387 0.930 . S
C1330 C1333 1.348 . S
C1330 C1334 1.356 . S
C1330 O1381 1.325 . S
C1331 N1332 1.279 . S
C1331 C1334 1.358 . S
C1331 H1388 0.930 . S
N1332 C1331 1.279 . S
N1332 C1335 1.314 . S
C1333 C1330 1.348 . S
C1333 C1335 1.353 . S
C1333 H1389 0.929 . S
C1334 C1330 1.356 . S
C1334 C1331 1.358 . S
C1334 H1390 0.930 . S
C1335 N1332 1.314 . S
C1335 C1333 1.353 . S
C1335 H1391 0.930 . S
C1336 N1337 1.314 . S
C1336 C1341 1.353 . S
C1336 H1342 0.930 . S
N1337 Li1320 1.990 . S
N1337 C1336 1.314 . S
N1337 C1339 1.279 . S
C1338 C1339 1.358 . S
C1338 C1340 1.356 . S
C1338 H1392 0.930 . S
C1339 N1337 1.279 . S
C1339 C1338 1.358 . S
C1339 H1343 0.930 . S
C1340 C1338 1.356 . S
C1340 C1341 1.348 . S
C1341 C1336 1.353 . S
C1341 C1340 1.348 . S
C1341 H1393 0.929 . S
H1342 C1336 0.930 . S
H1343 C1339 0.930 . S
C1344 N1345 1.314 . S
C1344 C1346 1.353 . S
C1344 H1350 0.930 . S
N1345 Li1321 1.990 . S
N1345 C1344 1.314 . S
N1345 C1348 1.279 . S
C1346 C1344 1.353 . S
C1346 C1349 1.348 . S
C1346 H1394 0.929 . S
C1347 C1348 1.358 . S
C1347 C1349 1.356 . S
C1347 H1395 0.930 . S
C1348 N1345 1.279 . S
C1348 C1347 1.358 . S
C1348 H1351 0.930 . S
C1349 C1346 1.348 . S
C1349 C1347 1.356 . S
H1350 C1344 0.930 . S
H1351 C1348 0.930 . S
C1352 C1354 1.348 . S
C1352 C1355 1.356 . S
C1352 O1382 1.325 . S
N1353 C1356 1.314 . S
N1353 C1357 1.279 . S
C1354 C1352 1.348 . S
C1354 C1356 1.353 . S
C1354 H1396 0.929 . S
C1355 C1352 1.356 . S
C1355 C1357 1.358 . S
C1355 H1397 0.930 . S
C1356 N1353 1.314 . S
C1356 C1354 1.353 . S
C1356 H1398 0.930 . S
C1357 N1353 1.279 . S
C1357 C1355 1.358 . S
C1357 H1399 0.930 . S
C1358 C1359 1.348 . S
C1358 C1360 1.356 . S
C1358 O1383 1.325 . S
C1359 C1358 1.348 . S
C1359 C1361 1.353 . S
C1359 H1400 0.929 . S
C1360 C1358 1.356 . S
C1360 C1362 1.358 . S
C1360 H1401 0.930 . S
C1361 C1359 1.353 . S
C1361 N1363 1.314 . S
C1361 H1402 0.930 . S
C1362 C1360 1.358 . S
C1362 N1363 1.279 . S
C1362 H1403 0.930 . S
N1363 C1361 1.314 . S
N1363 C1362 1.279 . S
C1364 C1366 1.353 . S
C1364 N1367 1.314 . S
C1364 H1370 0.930 . S
C1365 N1367 1.279 . S
C1365 C1368 1.358 . S
C1365 H1371 0.930 . S
C1366 C1364 1.353 . S
C1366 C1369 1.348 . S
C1366 H1404 0.929 . S
N1367 Li1322 1.990 . S
N1367 C1364 1.314 . S
N1367 C1365 1.279 . S
C1368 C1365 1.358 . S
C1368 C1369 1.356 . S
C1368 H1405 0.930 . S
C1369 C1366 1.348 . S
C1369 C1368 1.356 . S
H1370 C1364 0.930 . S
H1371 C1365 0.930 . S
C1372 N1373 1.314 . S
C1372 C1374 1.353 . S
C1372 H1378 0.930 . S
N1373 Li1323 1.990 . S
N1373 C1372 1.314 . S
N1373 C1376 1.279 . S
C1374 C1372 1.353 . S
C1374 C1377 1.348 . S
C1374 H1406 0.929 . S
C1375 C1376 1.358 . S
C1375 C1377 1.356 . S
C1375 H1407 0.930 . S
C1376 N1373 1.279 . S
C1376 C1375 1.358 . S
C1376 H1379 0.930 . S
C1377 C1374 1.348 . S
C1377 C1375 1.356 . S
H1378 C1372 0.930 . S
H1379 C1376 0.930 . S
O1380 Li1320 1.956 . S
O1380 Li1321 1.970 . S
O1380 Li1322 1.961 . S
O1380 C1324 1.325 . S
O1381 Li1320 1.970 . S
O1381 Li1321 1.956 . S
O1381 Li1323 1.961 . S
O1381 C1330 1.325 . S
O1382 Li1320 1.961 . S
O1382 Li1322 1.956 . S
O1382 Li1323 1.970 . S
O1382 C1352 1.325 . S
O1383 Li1321 1.961 . S
O1383 Li1322 1.970 . S
O1383 Li1323 1.956 . S
O1383 C1358 1.325 . S
H1384 C1326 0.929 . S
H1385 C1327 0.930 . S
H1386 C1328 0.930 . S
H1387 C1329 0.930 . S
H1388 C1331 0.930 . S
H1389 C1333 0.929 . S
H1390 C1334 0.930 . S
H1391 C1335 0.930 . S
H1392 C1338 0.930 . S
H1393 C1341 0.929 . S
H1394 C1346 0.929 . S
H1395 C1347 0.930 . S
H1396 C1354 0.929 . S
H1397 C1355 0.930 . S
H1398 C1356 0.930 . S
H1399 C1357 0.930 . S
H1400 C1359 0.929 . S
H1401 C1360 0.930 . S
H1402 C1361 0.930 . S
H1403 C1362 0.930 . S
H1404 C1366 0.929 . S
H1405 C1368 0.930 . S
H1406 C1374 0.929 . S
H1407 C1375 0.930 . S
C1408 C1409 1.387 . S
C1408 H1412 0.950 . S
C1408 C1417 1.390 . S
C1409 C1408 1.387 . S
C1409 C1411 1.387 1_554 S
H1410 C1417 0.950 . S
C1411 C1409 1.387 1_556 S
C1411 C1413 1.390 . S
C1411 H1415 0.950 . S
H1412 C1408 0.950 . S
C1413 C1411 1.390 . S
C1413 C1414 1.387 . S
C1413 H1416 0.950 . S
C1414 C1413 1.387 . S
C1414 C1417 1.387 1_556 S
H1415 C1411 0.950 . S
H1416 C1413 0.950 . S
C1417 C1408 1.390 . S
C1417 H1410 0.950 . S
C1417 C1414 1.387 1_554 S
C1418 C1419 1.387 . S
C1418 H1422 0.950 . S
C1418 C1427 1.390 . S
C1419 C1418 1.387 . S
C1419 C1421 1.387 . S
H1420 C1427 0.950 . S
C1421 C1419 1.387 . S
C1421 C1423 1.390 . S
C1421 H1425 0.950 . S
H1422 C1418 0.950 . S
C1423 C1421 1.390 . S
C1423 C1424 1.387 . S
C1423 H1426 0.950 . S
C1424 C1423 1.387 . S
C1424 C1427 1.387 . S
H1425 C1421 0.950 . S
H1426 C1423 0.950 . S
C1427 C1418 1.390 . S
C1427 H1420 0.950 . S
C1427 C1424 1.387 . S
C1428 C1429 1.387 1_554 S
C1428 H1432 0.950 . S
C1428 C1437 1.390 . S
C1429 C1428 1.387 1_556 S
C1429 C1431 1.387 . S
H1430 C1437 0.950 . S
C1431 C1429 1.387 . S
C1431 C1433 1.390 . S
C1431 H1435 0.950 . S
H1432 C1428 0.950 . S
C1433 C1431 1.390 . S
C1433 C1434 1.387 1_556 S
C1433 H1436 0.950 . S
C1434 C1433 1.387 1_554 S
C1434 C1437 1.387 . S
H1435 C1431 0.950 . S
H1436 C1433 0.950 . S
C1437 C1428 1.390 . S
C1437 H1430 0.950 . S
C1437 C1434 1.387 . S
C1438 C1439 1.387 . S
C1438 H1442 0.950 . S
C1438 C1447 1.390 . S
C1439 C1438 1.387 . S
C1439 C1441 1.387 . S
H1440 C1447 0.950 . S
C1441 C1439 1.387 . S
C1441 C1443 1.390 . S
C1441 H1445 0.950 . S
H1442 C1438 0.950 . S
C1443 C1441 1.390 . S
C1443 C1444 1.387 . S
C1443 H1446 0.950 . S
C1444 C1443 1.387 . S
C1444 C1447 1.387 . S
H1445 C1441 0.950 . S
H1446 C1443 0.950 . S
C1447 C1438 1.390 . S
C1447 H1440 0.950 . S
C1447 C1444 1.387 . S
C1448 C1449 1.387 . S
C1448 H1452 0.950 . S
C1448 C1457 1.390 . S
C1449 C1448 1.387 . S
C1449 C1451 1.387 1_554 S
H1450 C1457 0.950 . S
C1451 C1449 1.387 1_556 S
C1451 C1453 1.390 . S
C1451 H1455 0.950 . S
H1452 C1448 0.950 . S
C1453 C1451 1.390 . S
C1453 C1454 1.387 . S
C1453 H1456 0.950 . S
C1454 C1453 1.387 . S
C1454 C1457 1.387 1_556 S
H1455 C1451 0.950 . S
H1456 C1453 0.950 . S
C1457 C1448 1.390 . S
C1457 H1450 0.950 . S
C1457 C1454 1.387 1_554 S
C1458 C1459 1.387 . S
C1458 H1462 0.950 . S
C1458 C1467 1.390 . S
C1459 C1458 1.387 . S
C1459 C1461 1.387 . S
H1460 C1467 0.950 . S
C1461 C1459 1.387 . S
C1461 C1463 1.390 . S
C1461 H1465 0.950 . S
H1462 C1458 0.950 . S
C1463 C1461 1.390 . S
C1463 C1464 1.387 . S
C1463 H1466 0.950 . S
C1464 C1463 1.387 . S
C1464 C1467 1.387 . S
H1465 C1461 0.950 . S
H1466 C1463 0.950 . S
C1467 C1458 1.390 . S
C1467 H1460 0.950 . S
C1467 C1464 1.387 . S
C1468 C1469 1.387 1_554 S
C1468 H1472 0.950 . S
C1468 C1477 1.390 . S
C1469 C1468 1.387 1_556 S
C1469 C1471 1.387 . S
H1470 C1477 0.950 . S
C1471 C1469 1.387 . S
C1471 C1473 1.390 . S
C1471 H1475 0.950 . S
H1472 C1468 0.950 . S
C1473 C1471 1.390 . S
C1473 C1474 1.387 1_556 S
C1473 H1476 0.950 . S
C1474 C1473 1.387 1_554 S
C1474 C1477 1.387 . S
H1475 C1471 0.950 . S
H1476 C1473 0.950 . S
C1477 C1468 1.390 . S
C1477 H1470 0.950 . S
C1477 C1474 1.387 . S
C1478 C1479 1.387 . S
C1478 H1482 0.950 . S
C1478 C1487 1.390 . S
C1479 C1478 1.387 . S
C1479 C1481 1.387 . S
H1480 C1487 0.950 . S
C1481 C1479 1.387 . S
C1481 C1483 1.390 . S
C1481 H1485 0.950 . S
H1482 C1478 0.950 . S
C1483 C1481 1.390 . S
C1483 C1484 1.387 . S
C1483 H1486 0.950 . S
C1484 C1483 1.387 . S
C1484 C1487 1.387 . S
H1485 C1481 0.950 . S
H1486 C1483 0.950 . S
C1487 C1478 1.390 . S
C1487 H1480 0.950 . S
C1487 C1484 1.387 . S
C1488 C1489 1.387 . S
C1488 H1492 0.950 . S
C1488 C1497 1.390 1_544 S
C1489 C1488 1.387 . S
C1489 C1491 1.387 . S
H1490 C1497 0.950 . S
C1491 C1489 1.387 . S
C1491 C1493 1.390 1_544 S
C1491 H1495 0.950 . S
H1492 C1488 0.950 . S
C1493 C1491 1.390 1_566 S
C1493 C1494 1.387 . S
C1493 H1496 0.950 . S
C1494 C1493 1.387 . S
C1494 C1497 1.387 . S
H1495 C1491 0.950 . S
H1496 C1493 0.950 . S
C1497 C1488 1.390 1_566 S
C1497 H1490 0.950 . S
C1497 C1494 1.387 . S
C1498 C1499 1.387 . S
C1498 H1502 0.950 . S
C1498 C1507 1.390 1_565 S
C1499 C1498 1.387 . S
C1499 C1501 1.387 . S
H1500 C1507 0.950 . S
C1501 C1499 1.387 . S
C1501 C1503 1.390 1_565 S
C1501 H1505 0.950 . S
H1502 C1498 0.950 . S
C1503 C1501 1.390 1_545 S
C1503 C1504 1.387 . S
C1503 H1506 0.950 . S
C1504 C1503 1.387 . S
C1504 C1507 1.387 . S
H1505 C1501 0.950 . S
H1506 C1503 0.950 . S
C1507 C1498 1.390 1_545 S
C1507 H1500 0.950 . S
C1507 C1504 1.387 . S
C1508 C1509 1.387 . S
C1508 H1512 0.950 . S
C1508 C1517 1.390 1_566 S
C1509 C1508 1.387 . S
C1509 C1511 1.387 . S
H1510 C1517 0.950 . S
C1511 C1509 1.387 . S
C1511 C1513 1.390 1_566 S
C1511 H1515 0.950 . S
H1512 C1508 0.950 . S
C1513 C1511 1.390 1_544 S
C1513 C1514 1.387 . S
C1513 H1516 0.950 . S
C1514 C1513 1.387 . S
C1514 C1517 1.387 . S
H1515 C1511 0.950 . S
H1516 C1513 0.950 . S
C1517 C1508 1.390 1_544 S
C1517 H1510 0.950 . S
C1517 C1514 1.387 . S
C1518 C1519 1.387 . S
C1518 H1522 0.950 . S
C1518 C1527 1.390 1_545 S
C1519 C1518 1.387 . S
C1519 C1521 1.387 . S
H1520 C1527 0.950 . S
C1521 C1519 1.387 . S
C1521 C1523 1.390 1_545 S
C1521 H1525 0.950 . S
H1522 C1518 0.950 . S
C1523 C1521 1.390 1_565 S
C1523 C1524 1.387 . S
C1523 H1526 0.950 . S
C1524 C1523 1.387 . S
C1524 C1527 1.387 . S
H1525 C1521 0.950 . S
H1526 C1523 0.950 . S
C1527 C1518 1.390 1_565 S
C1527 H1520 0.950 . S
C1527 C1524 1.387 . S
C1528 C1529 1.387 . S
C1528 H1532 0.950 . S
C1528 C1537 1.390 1_556 S
C1529 C1528 1.387 . S
C1529 C1531 1.387 . S
H1530 C1537 0.950 . S
C1531 C1529 1.387 . S
C1531 C1533 1.390 1_556 S
C1531 H1535 0.950 . S
H1532 C1528 0.950 . S
C1533 C1531 1.390 1_554 S
C1533 C1534 1.387 . S
C1533 H1536 0.950 . S
C1534 C1533 1.387 . S
C1534 C1537 1.387 . S
H1535 C1531 0.950 . S
H1536 C1533 0.950 . S
C1537 C1528 1.390 1_554 S
C1537 H1530 0.950 . S
C1537 C1534 1.387 . S
C1538 C1539 1.387 . S
C1538 H1542 0.950 . S
C1538 C1547 1.390 . S
C1539 C1538 1.387 . S
C1539 C1541 1.387 . S
H1540 C1547 0.950 . S
C1541 C1539 1.387 . S
C1541 C1543 1.390 . S
C1541 H1545 0.950 . S
H1542 C1538 0.950 . S
C1543 C1541 1.390 . S
C1543 C1544 1.387 . S
C1543 H1546 0.950 . S
C1544 C1543 1.387 . S
C1544 C1547 1.387 . S
H1545 C1541 0.950 . S
H1546 C1543 0.950 . S
C1547 C1538 1.390 . S
C1547 H1540 0.950 . S
C1547 C1544 1.387 . S
C1548 C1549 1.387 . S
C1548 H1552 0.950 . S
C1548 C1557 1.390 1_554 S
C1549 C1548 1.387 . S
C1549 C1551 1.387 . S
H1550 C1557 0.950 . S
C1551 C1549 1.387 . S
C1551 C1553 1.390 1_554 S
C1551 H1555 0.950 . S
H1552 C1548 0.950 . S
C1553 C1551 1.390 1_556 S
C1553 C1554 1.387 . S
C1553 H1556 0.950 . S
C1554 C1553 1.387 . S
C1554 C1557 1.387 . S
H1555 C1551 0.950 . S
H1556 C1553 0.950 . S
C1557 C1548 1.390 1_556 S
C1557 H1550 0.950 . S
C1557 C1554 1.387 . S
C1558 C1559 1.387 . S
C1558 H1562 0.950 . S
C1558 C1567 1.390 . S
C1559 C1558 1.387 . S
C1559 C1561 1.387 . S
H1560 C1567 0.950 . S
C1561 C1559 1.387 . S
C1561 C1563 1.390 . S
C1561 H1565 0.950 . S
H1562 C1558 0.950 . S
C1563 C1561 1.390 . S
C1563 C1564 1.387 . S
C1563 H1566 0.950 . S
C1564 C1563 1.387 . S
C1564 C1567 1.387 . S
H1565 C1561 0.950 . S
H1566 C1563 0.950 . S
C1567 C1558 1.390 . S
C1567 H1560 0.950 . S
C1567 C1564 1.387 . S
C1568 C1569 1.387 . S
C1568 H1572 0.950 . S
C1568 C1577 1.390 . S
C1569 C1568 1.387 . S
C1569 C1571 1.387 . S
H1570 C1577 0.950 . S
C1571 C1569 1.387 . S
C1571 C1573 1.390 . S
C1571 H1575 0.950 . S
H1572 C1568 0.950 . S
C1573 C1571 1.390 . S
C1573 C1574 1.387 . S
C1573 H1576 0.950 . S
C1574 C1573 1.387 . S
C1574 C1577 1.387 . S
H1575 C1571 0.950 . S
H1576 C1573 0.950 . S
C1577 C1568 1.390 . S
C1577 H1570 0.950 . S
C1577 C1574 1.387 . S
C1578 C1579 1.387 . S
C1578 H1582 0.950 . S
C1578 C1587 1.390 1_655 S
C1579 C1578 1.387 . S
C1579 C1581 1.387 . S
H1580 C1587 0.950 . S
C1581 C1579 1.387 . S
C1581 C1583 1.390 1_655 S
C1581 H1585 0.950 . S
H1582 C1578 0.950 . S
C1583 C1581 1.390 1_455 S
C1583 C1584 1.387 . S
C1583 H1586 0.950 . S
C1584 C1583 1.387 . S
C1584 C1587 1.387 . S
H1585 C1581 0.950 . S
H1586 C1583 0.950 . S
C1587 C1578 1.390 1_455 S
C1587 H1580 0.950 . S
C1587 C1584 1.387 . S
C1588 C1589 1.387 . S
C1588 H1592 0.950 . S
C1588 C1597 1.390 . S
C1589 C1588 1.387 . S
C1589 C1591 1.387 . S
H1590 C1597 0.950 . S
C1591 C1589 1.387 . S
C1591 C1593 1.390 . S
C1591 H1595 0.950 . S
H1592 C1588 0.950 . S
C1593 C1591 1.390 . S
C1593 C1594 1.387 . S
C1593 H1596 0.950 . S
C1594 C1593 1.387 . S
C1594 C1597 1.387 . S
H1595 C1591 0.950 . S
H1596 C1593 0.950 . S
C1597 C1588 1.390 . S
C1597 H1590 0.950 . S
C1597 C1594 1.387 . S
C1598 C1599 1.387 . S
C1598 H1602 0.950 . S
C1598 C1607 1.390 1_455 S
C1599 C1598 1.387 . S
C1599 C1601 1.387 . S
H1600 C1607 0.950 . S
C1601 C1599 1.387 . S
C1601 C1603 1.390 1_455 S
C1601 H1605 0.950 . S
H1602 C1598 0.950 . S
C1603 C1601 1.390 1_655 S
C1603 C1604 1.387 . S
C1603 H1606 0.950 . S
C1604 C1603 1.387 . S
C1604 C1607 1.387 . S
H1605 C1601 0.950 . S
H1606 C1603 0.950 . S
C1607 C1598 1.390 1_655 S
C1607 H1600 0.950 . S
C1607 C1604 1.387 . S
C1608 C1609 1.387 . S
C1608 H1612 0.950 . S
C1608 C1617 1.390 1_455 S
C1609 C1608 1.387 . S
C1609 C1611 1.387 . S
H1610 C1617 0.950 . S
C1611 C1609 1.387 . S
C1611 C1613 1.390 1_455 S
C1611 H1615 0.950 . S
H1612 C1608 0.950 . S
C1613 C1611 1.390 1_655 S
C1613 C1614 1.387 . S
C1613 H1616 0.950 . S
C1614 C1613 1.387 . S
C1614 C1617 1.387 . S
H1615 C1611 0.950 . S
H1616 C1613 0.950 . S
C1617 C1608 1.390 1_655 S
C1617 H1610 0.950 . S
C1617 C1614 1.387 . S
C1618 C1619 1.387 . S
C1618 H1622 0.950 . S
C1618 C1627 1.390 . S
C1619 C1618 1.387 . S
C1619 C1621 1.387 . S
H1620 C1627 0.950 . S
C1621 C1619 1.387 . S
C1621 C1623 1.390 . S
C1621 H1625 0.950 . S
H1622 C1618 0.950 . S
C1623 C1621 1.390 . S
C1623 C1624 1.387 . S
C1623 H1626 0.950 . S
C1624 C1623 1.387 . S
C1624 C1627 1.387 . S
H1625 C1621 0.950 . S
H1626 C1623 0.950 . S
C1627 C1618 1.390 . S
C1627 H1620 0.950 . S
C1627 C1624 1.387 . S
C1628 C1629 1.387 . S
C1628 H1632 0.950 . S
C1628 C1637 1.390 1_455 S
C1629 C1628 1.387 . S
C1629 C1631 1.387 . S
H1630 C1637 0.950 . S
C1631 C1629 1.387 . S
C1631 C1633 1.390 1_455 S
C1631 H1635 0.950 . S
H1632 C1628 0.950 . S
C1633 C1631 1.390 1_655 S
C1633 C1634 1.387 . S
C1633 H1636 0.950 . S
C1634 C1633 1.387 . S
C1634 C1637 1.387 . S
H1635 C1631 0.950 . S
H1636 C1633 0.950 . S
C1637 C1628 1.390 1_655 S
C1637 H1630 0.950 . S
C1637 C1634 1.387 . S
C1638 C1639 1.387 . S
C1638 H1642 0.950 . S
C1638 C1647 1.390 . S
C1639 C1638 1.387 . S
C1639 C1641 1.387 . S
H1640 C1647 0.950 . S
C1641 C1639 1.387 . S
C1641 C1643 1.390 . S
C1641 H1645 0.950 . S
H1642 C1638 0.950 . S
C1643 C1641 1.390 . S
C1643 C1644 1.387 . S
C1643 H1646 0.950 . S
C1644 C1643 1.387 . S
C1644 C1647 1.387 . S
H1645 C1641 0.950 . S
H1646 C1643 0.950 . S
C1647 C1638 1.390 . S
C1647 H1640 0.950 . S
C1647 C1644 1.387 . S
C1648 C1649 1.387 . S
C1648 H1652 0.950 . S
C1648 C1657 1.390 . S
C1649 C1648 1.387 . S
C1649 C1651 1.387 . S
H1650 C1657 0.950 . S
C1651 C1649 1.387 . S
C1651 C1653 1.390 . S
C1651 H1655 0.950 . S
H1652 C1648 0.950 . S
C1653 C1651 1.390 . S
C1653 C1654 1.387 . S
C1653 H1656 0.950 . S
C1654 C1653 1.387 . S
C1654 C1657 1.387 . S
H1655 C1651 0.950 . S
H1656 C1653 0.950 . S
C1657 C1648 1.390 . S
C1657 H1650 0.950 . S
C1657 C1654 1.387 . S
C1658 C1659 1.387 . S
C1658 H1662 0.950 . S
C1658 C1667 1.390 . S
C1659 C1658 1.387 . S
C1659 C1661 1.387 . S
H1660 C1667 0.950 . S
C1661 C1659 1.387 . S
C1661 C1663 1.390 . S
C1661 H1665 0.950 . S
H1662 C1658 0.950 . S
C1663 C1661 1.390 . S
C1663 C1664 1.387 . S
C1663 H1666 0.950 . S
C1664 C1663 1.387 . S
C1664 C1667 1.387 . S
H1665 C1661 0.950 . S
H1666 C1663 0.950 . S
C1667 C1658 1.390 . S
C1667 H1660 0.950 . S
C1667 C1664 1.387 . S
C1668 C1669 1.387 . S
C1668 H1672 0.950 . S
C1668 C1677 1.390 . S
C1669 C1668 1.387 . S
C1669 C1671 1.387 . S
H1670 C1677 0.950 . S
C1671 C1669 1.387 . S
C1671 C1673 1.390 . S
C1671 H1675 0.950 . S
H1672 C1668 0.950 . S
C1673 C1671 1.390 . S
C1673 C1674 1.387 . S
C1673 H1676 0.950 . S
C1674 C1673 1.387 . S
C1674 C1677 1.387 . S
H1675 C1671 0.950 . S
H1676 C1673 0.950 . S
C1677 C1668 1.390 . S
C1677 H1670 0.950 . S
C1677 C1674 1.387 . S
C1678 C1679 1.387 . S
C1678 H1682 0.950 . S
C1678 C1687 1.390 . S
C1679 C1678 1.387 . S
C1679 C1681 1.387 . S
H1680 C1687 0.950 . S
C1681 C1679 1.387 . S
C1681 C1683 1.390 . S
C1681 H1685 0.950 . S
H1682 C1678 0.950 . S
C1683 C1681 1.390 . S
C1683 C1684 1.387 . S
C1683 H1686 0.950 . S
C1684 C1683 1.387 . S
C1684 C1687 1.387 . S
H1685 C1681 0.950 . S
H1686 C1683 0.950 . S
C1687 C1678 1.390 . S
C1687 H1680 0.950 . S
C1687 C1684 1.387 . S
C1688 C1689 1.387 . S
C1688 H1692 0.950 . S
C1688 C1697 1.390 . S
C1689 C1688 1.387 . S
C1689 C1691 1.387 . S
H1690 C1697 0.950 . S
C1691 C1689 1.387 . S
C1691 C1693 1.390 . S
C1691 H1695 0.950 . S
H1692 C1688 0.950 . S
C1693 C1691 1.390 . S
C1693 C1694 1.387 . S
C1693 H1696 0.950 . S
C1694 C1693 1.387 . S
C1694 C1697 1.387 . S
H1695 C1691 0.950 . S
H1696 C1693 0.950 . S
C1697 C1688 1.390 . S
C1697 H1690 0.950 . S
C1697 C1694 1.387 . S
C1698 C1699 1.387 . S
C1698 H1702 0.950 . S
C1698 C1707 1.390 . S
C1699 C1698 1.387 . S
C1699 C1701 1.387 . S
H1700 C1707 0.950 . S
C1701 C1699 1.387 . S
C1701 C1703 1.390 . S
C1701 H1705 0.950 . S
H1702 C1698 0.950 . S
C1703 C1701 1.390 . S
C1703 C1704 1.387 . S
C1703 H1706 0.950 . S
C1704 C1703 1.387 . S
C1704 C1707 1.387 . S
H1705 C1701 0.950 . S
H1706 C1703 0.950 . S
C1707 C1698 1.390 . S
C1707 H1700 0.950 . S
C1707 C1704 1.387 . S
C1708 C1709 1.387 . S
C1708 H1712 0.950 . S
C1708 C1717 1.390 . S
C1709 C1708 1.387 . S
C1709 C1711 1.387 . S
H1710 C1717 0.950 . S
C1711 C1709 1.387 . S
C1711 C1713 1.390 . S
C1711 H1715 0.950 . S
H1712 C1708 0.950 . S
C1713 C1711 1.390 . S
C1713 C1714 1.387 . S
C1713 H1716 0.950 . S
C1714 C1713 1.387 . S
C1714 C1717 1.387 . S
H1715 C1711 0.950 . S
H1716 C1713 0.950 . S
C1717 C1708 1.390 . S
C1717 H1710 0.950 . S
C1717 C1714 1.387 . S
C1718 C1719 1.387 . S
C1718 H1722 0.950 . S
C1718 C1727 1.390 . S
C1719 C1718 1.387 . S
C1719 C1721 1.387 . S
H1720 C1727 0.950 . S
C1721 C1719 1.387 . S
C1721 C1723 1.390 . S
C1721 H1725 0.950 . S
H1722 C1718 0.950 . S
C1723 C1721 1.390 . S
C1723 C1724 1.387 . S
C1723 H1726 0.950 . S
C1724 C1723 1.387 . S
C1724 C1727 1.387 . S
H1725 C1721 0.950 . S
H1726 C1723 0.950 . S
C1727 C1718 1.390 . S
C1727 H1720 0.950 . S
C1727 C1724 1.387 . S
C1409 C20 1.364 . S
C1414 C1085 1.362 . S
C1419 C1164 1.362 . S
C1424 C137 1.364 . S
C1429 C233 1.363 . S
C1434 C1281 1.361 . S
C1439 C1377 1.361 . S
C1444 C284 1.363 . S
C1449 C724 1.364 . S
C1454 C381 1.362 . S
C1459 C460 1.361 . S
C1464 C841 1.363 . S
C1469 C937 1.363 . S
C1474 C577 1.361 . S
C1479 C673 1.361 . S
C1484 C988 1.363 . S
C1489 C49 1.514 . S
C1494 C205 1.514 . S
C1499 C108 1.514 . S
C1504 C313 1.514 . S
C1509 C372 1.510 . S
C1514 C585 1.510 . S
C1519 C469 1.511 . S
C1524 C665 1.511 . S
C1529 C909 1.514 . S
C1534 C753 1.514 . S
C1539 C812 1.514 . S
C1544 C1017 1.514 . S
C1549 C1289 1.510 . S
C1554 C1076 1.510 . S
C1559 C1173 1.511 . S
C1564 C1369 1.511 . S
C1569 C548 1.529 . S
C1574 C29 1.529 . S
C1579 C645 1.529 . S
C1584 C145 1.528 . S
C1589 C225 1.529 . S
C1594 C409 1.529 . S
C1599 C293 1.529 . S
C1604 C489 1.529 . S
C1609 C1252 1.529 . S
C1614 C733 1.528 . S
C1619 C849 1.529 . S
C1624 C1349 1.529 . S
C1629 C1113 1.529 . S
C1634 C929 1.529 . S
C1639 C997 1.529 . S
C1644 C1193 1.529 . S
C1649 C57 1.364 . S
C1654 C321 1.364 . S
C1659 C196 1.364 . S
C1664 C117 1.364 . S
C1669 C401 1.350 . S
C1674 C636 1.350 . S
C1679 C497 1.350 . S
C1684 C557 1.350 . S
C1689 C1025 1.363 . S
C1694 C761 1.363 . S
C1699 C821 1.363 . S
C1704 C900 1.363 . S
C1709 C1340 1.350 . S
C1714 C1105 1.350 . S
C1719 C1201 1.350 . S
C1724 C1261 1.350 . S
