# Generated by pormake.
# Topology wna, (6)-cn, num edge types: 1
# Building blocks:
#     Node 0, Type 0, BuildingBlock: BETFAJ_clean_sbu_0, # of connection points: 6
#     Node 1, Type 0, BuildingBlock: BETFAJ_clean_sbu_0, # of connection points: 6
#     Node 2, Type 0, BuildingBlock: BETFAJ_clean_sbu_0, # of connection points: 6
#     Node 3, Type 0, BuildingBlock: BETFAJ_clean_sbu_0, # of connection points: 6
#     Node 4, Type 0, BuildingBlock: BETFAJ_clean_sbu_0, # of connection points: 6
#     Node 5, Type 0, BuildingBlock: BETFAJ_clean_sbu_0, # of connection points: 6
#     Node 6, Type 0, BuildingBlock: BETFAJ_clean_sbu_0, # of connection points: 6
#     Node 7, Type 0, BuildingBlock: BETFAJ_clean_sbu_0, # of connection points: 6
#     Node 8, Type 0, BuildingBlock: BETFAJ_clean_sbu_0, # of connection points: 6
#     Node 9, Type 0, BuildingBlock: BETFAJ_clean_sbu_0, # of connection points: 6
#     Node 10, Type 0, BuildingBlock: BETFAJ_clean_sbu_0, # of connection points: 6
#     Node 11, Type 0, BuildingBlock: BETFAJ_clean_sbu_0, # of connection points: 6
#     Node 12, Type 0, BuildingBlock: BETFAJ_clean_sbu_0, # of connection points: 6
#     Node 13, Type 0, BuildingBlock: BETFAJ_clean_sbu_0, # of connection points: 6
#     Node 14, Type 0, BuildingBlock: BETFAJ_clean_sbu_0, # of connection points: 6
#     Node 15, Type 0, BuildingBlock: BETFAJ_clean_sbu_0, # of connection points: 6
#     Node 16, Type 0, BuildingBlock: BETFAJ_clean_sbu_0, # of connection points: 6
#     Node 17, Type 0, BuildingBlock: BETFAJ_clean_sbu_0, # of connection points: 6
#     Node 18, Type 0, BuildingBlock: BETFAJ_clean_sbu_0, # of connection points: 6
#     Node 19, Type 0, BuildingBlock: BETFAJ_clean_sbu_0, # of connection points: 6
#     Node 20, Type 0, BuildingBlock: BETFAJ_clean_sbu_0, # of connection points: 6
#     Node 21, Type 0, BuildingBlock: BETFAJ_clean_sbu_0, # of connection points: 6
#     Node 22, Type 0, BuildingBlock: BETFAJ_clean_sbu_0, # of connection points: 6
#     Node 23, Type 0, BuildingBlock: BETFAJ_clean_sbu_0, # of connection points: 6
#     Node 24, Type 0, BuildingBlock: BETFAJ_clean_sbu_0, # of connection points: 6
#     Node 25, Type 0, BuildingBlock: BETFAJ_clean_sbu_0, # of connection points: 6
#     Node 26, Type 0, BuildingBlock: BETFAJ_clean_sbu_0, # of connection points: 6
#     Node 27, Type 0, BuildingBlock: BETFAJ_clean_sbu_0, # of connection points: 6
#     Node 28, Type 0, BuildingBlock: BETFAJ_clean_sbu_0, # of connection points: 6
#     Node 29, Type 0, BuildingBlock: BETFAJ_clean_sbu_0, # of connection points: 6
#     Node 30, Type 0, BuildingBlock: BETFAJ_clean_sbu_0, # of connection points: 6
#     Node 31, Type 0, BuildingBlock: BETFAJ_clean_sbu_0, # of connection points: 6
#     Node 32, Type 0, BuildingBlock: BETFAJ_clean_sbu_0, # of connection points: 6
#     Node 33, Type 0, BuildingBlock: BETFAJ_clean_sbu_0, # of connection points: 6
#     Node 34, Type 0, BuildingBlock: BETFAJ_clean_sbu_0, # of connection points: 6
#     Node 35, Type 0, BuildingBlock: BETFAJ_clean_sbu_0, # of connection points: 6
#     Edge 36, Type (0, 0), BuildingBlock: XUDNAN_clean_linker_2, # of connection points: 2
#     Edge 37, Type (0, 0), BuildingBlock: XUDNAN_clean_linker_2, # of connection points: 2
#     Edge 38, Type (0, 0), BuildingBlock: XUDNAN_clean_linker_2, # of connection points: 2
#     Edge 39, Type (0, 0), BuildingBlock: XUDNAN_clean_linker_2, # of connection points: 2
#     Edge 40, Type (0, 0), BuildingBlock: XUDNAN_clean_linker_2, # of connection points: 2
#     Edge 41, Type (0, 0), BuildingBlock: XUDNAN_clean_linker_2, # of connection points: 2
#     Edge 42, Type (0, 0), BuildingBlock: XUDNAN_clean_linker_2, # of connection points: 2
#     Edge 43, Type (0, 0), BuildingBlock: XUDNAN_clean_linker_2, # of connection points: 2
#     Edge 44, Type (0, 0), BuildingBlock: XUDNAN_clean_linker_2, # of connection points: 2
#     Edge 45, Type (0, 0), BuildingBlock: XUDNAN_clean_linker_2, # of connection points: 2
#     Edge 46, Type (0, 0), BuildingBlock: XUDNAN_clean_linker_2, # of connection points: 2
#     Edge 47, Type (0, 0), BuildingBlock: XUDNAN_clean_linker_2, # of connection points: 2
#     Edge 48, Type (0, 0), BuildingBlock: XUDNAN_clean_linker_2, # of connection points: 2
#     Edge 49, Type (0, 0), BuildingBlock: XUDNAN_clean_linker_2, # of connection points: 2
#     Edge 50, Type (0, 0), BuildingBlock: XUDNAN_clean_linker_2, # of connection points: 2
#     Edge 51, Type (0, 0), BuildingBlock: XUDNAN_clean_linker_2, # of connection points: 2
#     Edge 52, Type (0, 0), BuildingBlock: XUDNAN_clean_linker_2, # of connection points: 2
#     Edge 53, Type (0, 0), BuildingBlock: XUDNAN_clean_linker_2, # of connection points: 2
#     Edge 54, Type (0, 0), BuildingBlock: XUDNAN_clean_linker_2, # of connection points: 2
#     Edge 55, Type (0, 0), BuildingBlock: XUDNAN_clean_linker_2, # of connection points: 2
#     Edge 56, Type (0, 0), BuildingBlock: XUDNAN_clean_linker_2, # of connection points: 2
#     Edge 57, Type (0, 0), BuildingBlock: XUDNAN_clean_linker_2, # of connection points: 2
#     Edge 58, Type (0, 0), BuildingBlock: XUDNAN_clean_linker_2, # of connection points: 2
#     Edge 59, Type (0, 0), BuildingBlock: XUDNAN_clean_linker_2, # of connection points: 2
#     Edge 60, Type (0, 0), BuildingBlock: XUDNAN_clean_linker_2, # of connection points: 2
#     Edge 61, Type (0, 0), BuildingBlock: XUDNAN_clean_linker_2, # of connection points: 2
#     Edge 62, Type (0, 0), BuildingBlock: XUDNAN_clean_linker_2, # of connection points: 2
#     Edge 63, Type (0, 0), BuildingBlock: XUDNAN_clean_linker_2, # of connection points: 2
#     Edge 64, Type (0, 0), BuildingBlock: XUDNAN_clean_linker_2, # of connection points: 2
#     Edge 65, Type (0, 0), BuildingBlock: XUDNAN_clean_linker_2, # of connection points: 2
#     Edge 66, Type (0, 0), BuildingBlock: XUDNAN_clean_linker_2, # of connection points: 2
#     Edge 67, Type (0, 0), BuildingBlock: XUDNAN_clean_linker_2, # of connection points: 2
#     Edge 68, Type (0, 0), BuildingBlock: XUDNAN_clean_linker_2, # of connection points: 2
#     Edge 69, Type (0, 0), BuildingBlock: XUDNAN_clean_linker_2, # of connection points: 2
#     Edge 70, Type (0, 0), BuildingBlock: XUDNAN_clean_linker_2, # of connection points: 2
#     Edge 71, Type (0, 0), BuildingBlock: XUDNAN_clean_linker_2, # of connection points: 2
#     Edge 72, Type (0, 0), BuildingBlock: XUDNAN_clean_linker_2, # of connection points: 2
#     Edge 73, Type (0, 0), BuildingBlock: XUDNAN_clean_linker_2, # of connection points: 2
#     Edge 74, Type (0, 0), BuildingBlock: XUDNAN_clean_linker_2, # of connection points: 2
#     Edge 75, Type (0, 0), BuildingBlock: XUDNAN_clean_linker_2, # of connection points: 2
#     Edge 76, Type (0, 0), BuildingBlock: XUDNAN_clean_linker_2, # of connection points: 2
#     Edge 77, Type (0, 0), BuildingBlock: XUDNAN_clean_linker_2, # of connection points: 2
#     Edge 78, Type (0, 0), BuildingBlock: XUDNAN_clean_linker_2, # of connection points: 2
#     Edge 79, Type (0, 0), BuildingBlock: XUDNAN_clean_linker_2, # of connection points: 2
#     Edge 80, Type (0, 0), BuildingBlock: XUDNAN_clean_linker_2, # of connection points: 2
#     Edge 81, Type (0, 0), BuildingBlock: XUDNAN_clean_linker_2, # of connection points: 2
#     Edge 82, Type (0, 0), BuildingBlock: XUDNAN_clean_linker_2, # of connection points: 2
#     Edge 83, Type (0, 0), BuildingBlock: XUDNAN_clean_linker_2, # of connection points: 2
#     Edge 84, Type (0, 0), BuildingBlock: XUDNAN_clean_linker_2, # of connection points: 2
#     Edge 85, Type (0, 0), BuildingBlock: XUDNAN_clean_linker_2, # of connection points: 2
#     Edge 86, Type (0, 0), BuildingBlock: XUDNAN_clean_linker_2, # of connection points: 2
#     Edge 87, Type (0, 0), BuildingBlock: XUDNAN_clean_linker_2, # of connection points: 2
#     Edge 88, Type (0, 0), BuildingBlock: XUDNAN_clean_linker_2, # of connection points: 2
#     Edge 89, Type (0, 0), BuildingBlock: XUDNAN_clean_linker_2, # of connection points: 2
#     Edge 90, Type (0, 0), BuildingBlock: XUDNAN_clean_linker_2, # of connection points: 2
#     Edge 91, Type (0, 0), BuildingBlock: XUDNAN_clean_linker_2, # of connection points: 2
#     Edge 92, Type (0, 0), BuildingBlock: XUDNAN_clean_linker_2, # of connection points: 2
#     Edge 93, Type (0, 0), BuildingBlock: XUDNAN_clean_linker_2, # of connection points: 2
#     Edge 94, Type (0, 0), BuildingBlock: XUDNAN_clean_linker_2, # of connection points: 2
#     Edge 95, Type (0, 0), BuildingBlock: XUDNAN_clean_linker_2, # of connection points: 2
#     Edge 96, Type (0, 0), BuildingBlock: XUDNAN_clean_linker_2, # of connection points: 2
#     Edge 97, Type (0, 0), BuildingBlock: XUDNAN_clean_linker_2, # of connection points: 2
#     Edge 98, Type (0, 0), BuildingBlock: XUDNAN_clean_linker_2, # of connection points: 2
#     Edge 99, Type (0, 0), BuildingBlock: XUDNAN_clean_linker_2, # of connection points: 2
#     Edge 100, Type (0, 0), BuildingBlock: XUDNAN_clean_linker_2, # of connection points: 2
#     Edge 101, Type (0, 0), BuildingBlock: XUDNAN_clean_linker_2, # of connection points: 2
#     Edge 102, Type (0, 0), BuildingBlock: XUDNAN_clean_linker_2, # of connection points: 2
#     Edge 103, Type (0, 0), BuildingBlock: XUDNAN_clean_linker_2, # of connection points: 2
#     Edge 104, Type (0, 0), BuildingBlock: XUDNAN_clean_linker_2, # of connection points: 2
#     Edge 105, Type (0, 0), BuildingBlock: XUDNAN_clean_linker_2, # of connection points: 2
#     Edge 106, Type (0, 0), BuildingBlock: XUDNAN_clean_linker_2, # of connection points: 2
#     Edge 107, Type (0, 0), BuildingBlock: XUDNAN_clean_linker_2, # of connection points: 2
#     Edge 108, Type (0, 0), BuildingBlock: XUDNAN_clean_linker_2, # of connection points: 2
#     Edge 109, Type (0, 0), BuildingBlock: XUDNAN_clean_linker_2, # of connection points: 2
#     Edge 110, Type (0, 0), BuildingBlock: XUDNAN_clean_linker_2, # of connection points: 2
#     Edge 111, Type (0, 0), BuildingBlock: XUDNAN_clean_linker_2, # of connection points: 2
#     Edge 112, Type (0, 0), BuildingBlock: XUDNAN_clean_linker_2, # of connection points: 2
#     Edge 113, Type (0, 0), BuildingBlock: XUDNAN_clean_linker_2, # of connection points: 2
#     Edge 114, Type (0, 0), BuildingBlock: XUDNAN_clean_linker_2, # of connection points: 2
#     Edge 115, Type (0, 0), BuildingBlock: XUDNAN_clean_linker_2, # of connection points: 2
#     Edge 116, Type (0, 0), BuildingBlock: XUDNAN_clean_linker_2, # of connection points: 2
#     Edge 117, Type (0, 0), BuildingBlock: XUDNAN_clean_linker_2, # of connection points: 2
#     Edge 118, Type (0, 0), BuildingBlock: XUDNAN_clean_linker_2, # of connection points: 2
#     Edge 119, Type (0, 0), BuildingBlock: XUDNAN_clean_linker_2, # of connection points: 2
#     Edge 120, Type (0, 0), BuildingBlock: XUDNAN_clean_linker_2, # of connection points: 2
#     Edge 121, Type (0, 0), BuildingBlock: XUDNAN_clean_linker_2, # of connection points: 2
#     Edge 122, Type (0, 0), BuildingBlock: XUDNAN_clean_linker_2, # of connection points: 2
#     Edge 123, Type (0, 0), BuildingBlock: XUDNAN_clean_linker_2, # of connection points: 2
#     Edge 124, Type (0, 0), BuildingBlock: XUDNAN_clean_linker_2, # of connection points: 2
#     Edge 125, Type (0, 0), BuildingBlock: XUDNAN_clean_linker_2, # of connection points: 2
#     Edge 126, Type (0, 0), BuildingBlock: XUDNAN_clean_linker_2, # of connection points: 2
#     Edge 127, Type (0, 0), BuildingBlock: XUDNAN_clean_linker_2, # of connection points: 2
#     Edge 128, Type (0, 0), BuildingBlock: XUDNAN_clean_linker_2, # of connection points: 2
#     Edge 129, Type (0, 0), BuildingBlock: XUDNAN_clean_linker_2, # of connection points: 2
#     Edge 130, Type (0, 0), BuildingBlock: XUDNAN_clean_linker_2, # of connection points: 2
#     Edge 131, Type (0, 0), BuildingBlock: XUDNAN_clean_linker_2, # of connection points: 2
#     Edge 132, Type (0, 0), BuildingBlock: XUDNAN_clean_linker_2, # of connection points: 2
#     Edge 133, Type (0, 0), BuildingBlock: XUDNAN_clean_linker_2, # of connection points: 2
#     Edge 134, Type (0, 0), BuildingBlock: XUDNAN_clean_linker_2, # of connection points: 2
#     Edge 135, Type (0, 0), BuildingBlock: XUDNAN_clean_linker_2, # of connection points: 2
#     Edge 136, Type (0, 0), BuildingBlock: XUDNAN_clean_linker_2, # of connection points: 2
#     Edge 137, Type (0, 0), BuildingBlock: XUDNAN_clean_linker_2, # of connection points: 2
#     Edge 138, Type (0, 0), BuildingBlock: XUDNAN_clean_linker_2, # of connection points: 2
#     Edge 139, Type (0, 0), BuildingBlock: XUDNAN_clean_linker_2, # of connection points: 2
#     Edge 140, Type (0, 0), BuildingBlock: XUDNAN_clean_linker_2, # of connection points: 2
#     Edge 141, Type (0, 0), BuildingBlock: XUDNAN_clean_linker_2, # of connection points: 2
#     Edge 142, Type (0, 0), BuildingBlock: XUDNAN_clean_linker_2, # of connection points: 2
#     Edge 143, Type (0, 0), BuildingBlock: XUDNAN_clean_linker_2, # of connection points: 2
# Relax obj value: 0.159
# Max RMSD: 0.226
# Mean RMSD: 0.209
data_MOF--net-wna--node1-BETFAJ_clean_sbu_0--edge1-XUDNAN_clean_linker_2
_symmetry_space_group_name_H-M    P1
_symmetry_Int_Tables_number       1
_symmetry_cell_setting            triclinic
loop_
_symmetry_equiv_pos_as_xyz
'x, y, z'
_cell_length_a     41.032112
_cell_length_b     41.111515
_cell_length_c     150.59027
_cell_angle_alpha  89.819447
_cell_angle_beta   90.086176
_cell_angle_gamma 119.88269
loop_
_atom_site_label
_atom_site_type_symbol
_atom_site_fract_x
_atom_site_fract_y
_atom_site_fract_z
_atom_type_partial_charge
Sm0 Sm 0.14604 0.2535 0.17873 0.0
Sm1 Sm 0.14564 0.24928 0.19987 0.0
C2 C 0.13886 0.26268 0.16146 0.0
C3 C 0.16014 0.27869 0.15301 0.0
C4 C 0.17406 0.31664 0.15084 0.0
C5 C 0.19023 0.33087 0.14252 0.0
C6 C 0.19317 0.30771 0.13606 0.0
C7 C 0.17985 0.26981 0.13829 0.0
C8 C 0.16347 0.2555 0.14663 0.0
C9 C 0.173 0.20905 0.18571 0.0
C10 C 0.22478 0.30441 0.18942 0.0
C11 C 0.14316 0.22852 0.21676 0.0
C12 C 0.12068 0.22224 0.22505 0.0
C13 C 0.093 0.1858 0.22764 0.0
C14 C 0.07297 0.17962 0.23563 0.0
C15 C 0.08013 0.20971 0.24128 0.0
C16 C 0.10813 0.24605 0.23869 0.0
C17 C 0.12802 0.25222 0.23072 0.0
C18 C 0.12179 0.29914 0.19433 0.0
C19 C 0.06826 0.1913 0.18937 0.0
O20 O 0.14045 0.28602 0.1676 0.0
O21 O 0.13765 0.23261 0.16478 0.0
O22 O 0.1457 0.21183 0.1887 0.0
O23 O 0.18808 0.23231 0.1791 0.0
O24 O 0.20512 0.30271 0.18226 0.0
O25 O 0.20913 0.2828 0.19647 0.0
O26 O 0.12717 0.20478 0.21024 0.0
O27 O 0.16447 0.26306 0.21394 0.0
O28 O 0.13139 0.28036 0.18955 0.0
O29 O 0.12591 0.29266 0.20256 0.0
O30 O 0.08605 0.20358 0.19698 0.0
O31 O 0.08399 0.20644 0.1816 0.0
H32 H 0.17156 0.33533 0.15549 0.0
H33 H 0.19929 0.35996 0.14108 0.0
H34 H 0.18187 0.25106 0.13357 0.0
H35 H 0.15271 0.22601 0.14802 0.0
H36 H 0.08687 0.16193 0.22349 0.0
H37 H 0.05154 0.15128 0.23731 0.0
H38 H 0.11524 0.26997 0.24291 0.0
H39 H 0.14948 0.28058 0.22906 0.0
Sm40 Sm 0.7699 0.8938 0.17714 0.0
Sm41 Sm 0.76951 0.89747 0.19952 0.0
C42 C 0.74937 0.86933 0.16072 0.0
C43 C 0.73644 0.87772 0.15226 0.0
C44 C 0.69866 0.85548 0.14976 0.0
C45 C 0.68608 0.86038 0.14152 0.0
C46 C 0.71094 0.88771 0.13549 0.0
C47 C 0.74877 0.91047 0.13803 0.0
C48 C 0.76142 0.9055 0.14632 0.0
C49 C 0.82032 0.96458 0.18334 0.0
C50 C 0.71742 0.92335 0.18775 0.0
C51 C 0.78753 0.91439 0.21648 0.0
C52 C 0.80067 0.90277 0.22449 0.0
C53 C 0.8366 0.92736 0.22788 0.0
C54 C 0.84856 0.91971 0.23592 0.0
C55 C 0.82489 0.88729 0.24087 0.0
C56 C 0.78966 0.8615 0.23726 0.0
C57 C 0.77757 0.86924 0.22917 0.0
C58 C 0.72697 0.82476 0.19253 0.0
C59 C 0.82764 0.87647 0.18904 0.0
O60 O 0.72586 0.85842 0.16744 0.0
O61 O 0.78462 0.89074 0.16309 0.0
O62 O 0.79764 0.93619 0.18785 0.0
O63 O 0.81475 0.95618 0.17494 0.0
O64 O 0.72485 0.91028 0.1804 0.0
O65 O 0.73285 0.92424 0.19562 0.0
O66 O 0.81156 0.92943 0.20994 0.0
O67 O 0.75271 0.89329 0.21376 0.0
O68 O 0.74544 0.85562 0.18863 0.0
O69 O 0.72926 0.832 0.20097 0.0
O70 O 0.8191 0.88841 0.19636 0.0
O71 O 0.81059 0.8726 0.18126 0.0
H72 H 0.67883 0.83349 0.15412 0.0
H73 H 0.65697 0.84171 0.13977 0.0
H74 H 0.76868 0.932 0.13361 0.0
H75 H 0.79082 0.92301 0.14801 0.0
H76 H 0.85515 0.95332 0.22445 0.0
H77 H 0.8761 0.9399 0.23842 0.0
H78 H 0.77071 0.83631 0.2409 0.0
H79 H 0.74976 0.84955 0.22673 0.0
Sm80 Sm 0.12949 0.88065 0.17776 0.0
Sm81 Sm 0.12474 0.8786 0.19797 0.0
C82 C 0.14712 0.87997 0.16083 0.0
C83 C 0.13833 0.85755 0.15256 0.0
C84 C 0.15318 0.8338 0.15097 0.0
C85 C 0.14935 0.81734 0.14261 0.0
C86 C 0.13084 0.82449 0.13564 0.0
C87 C 0.11464 0.84695 0.13737 0.0
C88 C 0.11842 0.86334 0.14571 0.0
C89 C 0.06121 0.86798 0.1837 0.0
C90 C 0.09838 0.79931 0.18773 0.0
C91 C 0.11214 0.88338 0.21518 0.0
C92 C 0.12561 0.90723 0.22327 0.0
C93 C 0.09962 0.91114 0.22859 0.0
C94 C 0.11097 0.9319 0.2365 0.0
C95 C 0.14872 0.94957 0.23923 0.0
C96 C 0.17476 0.94574 0.23388 0.0
C97 C 0.16334 0.92468 0.22602 0.0
C98 C 0.19678 0.90397 0.19089 0.0
C99 C 0.14199 0.95561 0.18715 0.0
O100 O 0.16382 0.873 0.1674 0.0
O101 O 0.12274 0.8895 0.16351 0.0
O102 O 0.07938 0.85385 0.18731 0.0
O103 O 0.07709 0.88548 0.17641 0.0
O104 O 0.11735 0.82086 0.18095 0.0
O105 O 0.0936 0.81419 0.19506 0.0
O106 O 0.09754 0.89369 0.2088 0.0
O107 O 0.13177 0.86854 0.2122 0.0
O108 O 0.17216 0.91126 0.1883 0.0
O109 O 0.18428 0.88281 0.1979 0.0
O110 O 0.12722 0.93527 0.19442 0.0
O111 O 0.15296 0.9427 0.18047 0.0
H112 H 0.16895 0.82898 0.15607 0.0
H113 H 0.16245 0.80044 0.1415 0.0
H114 H 0.09969 0.85258 0.13221 0.0
H115 H 0.10684 0.88168 0.14669 0.0
H116 H 0.07034 0.8979 0.22664 0.0
H117 H 0.09034 0.9347 0.2404 0.0
H118 H 0.20403 0.95886 0.23583 0.0
H119 H 0.18402 0.922 0.22211 0.0
Sm120 Sm 0.26201 0.14273 0.36092 0.0
Sm121 Sm 0.25338 0.13787 0.34069 0.0
C122 C 0.28776 0.14356 0.37713 0.0
C123 C 0.29815 0.1637 0.38576 0.0
C124 C 0.33505 0.1785 0.38895 0.0
C125 C 0.34371 0.18998 0.39781 0.0
C126 C 0.31566 0.18692 0.40364 0.0
C127 C 0.27945 0.17488 0.4003 0.0
C128 C 0.27076 0.1635 0.39143 0.0
C129 C 0.21222 0.16705 0.35691 0.0
C130 C 0.30489 0.2202 0.34914 0.0
C131 C 0.23276 0.12708 0.32366 0.0
C132 C 0.22477 0.10295 0.31566 0.0
C133 C 0.18784 0.08231 0.31233 0.0
C134 C 0.18077 0.06509 0.30395 0.0
C135 C 0.21056 0.06851 0.29866 0.0
C136 C 0.24713 0.08717 0.30225 0.0
C137 C 0.25417 0.10419 0.31061 0.0
C138 C 0.30741 0.12164 0.3473 0.0
C139 C 0.19443 0.06507 0.3525 0.0
O140 O 0.30997 0.15918 0.37028 0.0
O141 O 0.25208 0.12478 0.375 0.0
O142 O 0.22776 0.15643 0.35127 0.0
O143 O 0.22424 0.16674 0.36485 0.0
O144 O 0.30668 0.20245 0.35631 0.0
O145 O 0.28186 0.20176 0.34255 0.0
O146 O 0.20878 0.11476 0.33024 0.0
O147 O 0.2676 0.14725 0.32633 0.0
O148 O 0.27531 0.11076 0.35058 0.0
O149 O 0.31173 0.14286 0.3405 0.0
O150 O 0.20542 0.07976 0.34454 0.0
O151 O 0.21163 0.08278 0.35985 0.0
H152 H 0.35666 0.17879 0.38477 0.0
H153 H 0.37161 0.19842 0.40029 0.0
H154 H 0.2572 0.1716 0.40473 0.0
H155 H 0.24203 0.1523 0.3892 0.0
H156 H 0.16457 0.08098 0.31603 0.0
H157 H 0.1523 0.05101 0.3014 0.0
H158 H 0.27067 0.08979 0.29843 0.0
H159 H 0.28294 0.11969 0.31293 0.0
Sm160 Sm 0.88556 0.12314 0.36261 0.0
Sm161 Sm 0.88723 0.11627 0.34146 0.0
C162 C 0.88008 0.14095 0.37923 0.0
C163 C 0.85703 0.13322 0.38738 0.0
C164 C 0.84401 0.15782 0.38968 0.0
C165 C 0.83143 0.15791 0.39828 0.0
C166 C 0.83172 0.13352 0.40479 0.0
C167 C 0.84106 0.10629 0.4023 0.0
C168 C 0.85378 0.10621 0.39365 0.0
C169 C 0.88029 0.05767 0.35669 0.0
C170 C 0.80477 0.0858 0.35148 0.0
C171 C 0.89235 0.09673 0.32491 0.0
C172 C 0.91237 0.11286 0.31634 0.0
C173 C 0.94093 0.10586 0.31343 0.0
C174 C 0.95888 0.11961 0.30521 0.0
C175 C 0.94865 0.14062 0.29962 0.0
C176 C 0.91966 0.14708 0.30252 0.0
C177 C 0.9019 0.13352 0.31073 0.0
C178 C 0.91153 0.19084 0.34619 0.0
C179 C 0.96393 0.14434 0.35317 0.0
O180 O 0.87278 0.15587 0.37233 0.0
O181 O 0.89222 0.11799 0.37709 0.0
O182 O 0.86546 0.0747 0.35291 0.0
O183 O 0.8956 0.07333 0.36419 0.0
O184 O 0.82272 0.09802 0.35914 0.0
O185 O 0.82252 0.0881 0.34392 0.0
O186 O 0.91208 0.09476 0.33153 0.0
O187 O 0.86699 0.10528 0.32749 0.0
O188 O 0.90151 0.16313 0.35127 0.0
O189 O 0.90696 0.17881 0.33809 0.0
O190 O 0.94397 0.12362 0.34638 0.0
O191 O 0.94864 0.15459 0.35951 0.0
H192 H 0.84626 0.17904 0.38504 0.0
H193 H 0.82435 0.17918 0.40004 0.0
H194 H 0.84174 0.08735 0.40722 0.0
H195 H 0.86358 0.08682 0.3921 0.0
H196 H 0.94938 0.08961 0.31752 0.0
H197 H 0.98116 0.11419 0.3033 0.0
H198 H 0.91015 0.16229 0.29838 0.0
H199 H 0.87968 0.13904 0.31264 0.0
Sm200 Sm 0.90565 0.76547 0.3616 0.0
Sm201 Sm 0.9078 0.76868 0.33988 0.0
C202 C 0.89677 0.75218 0.37897 0.0
C203 C 0.89514 0.73118 0.38719 0.0
C204 C 0.86147 0.69957 0.38988 0.0
C205 C 0.85863 0.68325 0.39824 0.0
C206 C 0.88934 0.6981 0.40416 0.0
C207 C 0.92322 0.72943 0.4014 0.0
C208 C 0.92604 0.74577 0.39303 0.0
C209 C 0.9647 0.82749 0.35437 0.0
C210 C 0.93625 0.71632 0.34999 0.0
C211 C 0.92558 0.78898 0.32304 0.0
C212 C 0.91292 0.8009 0.31501 0.0
C213 C 0.93532 0.83758 0.31179 0.0
C214 C 0.92527 0.84965 0.30411 0.0
C215 C 0.89237 0.82544 0.29937 0.0
C216 C 0.87002 0.78845 0.30253 0.0
C217 C 0.88017 0.77631 0.31027 0.0
C218 C 0.83516 0.72108 0.34635 0.0
C219 C 0.88288 0.82162 0.35098 0.0
O220 O 0.86861 0.73811 0.37333 0.0
O221 O 0.92943 0.77313 0.37518 0.0
O222 O 0.95106 0.79483 0.35102 0.0
O223 O 0.94914 0.8268 0.3619 0.0
O224 O 0.9252 0.7228 0.35778 0.0
O225 O 0.9342 0.73201 0.34249 0.0
O226 O 0.93842 0.81266 0.32969 0.0
O227 O 0.90631 0.75381 0.32561 0.0
O228 O 0.86532 0.73901 0.35058 0.0
O229 O 0.8432 0.72723 0.33797 0.0
O230 O 0.89733 0.81598 0.34371 0.0
O231 O 0.87827 0.80241 0.35848 0.0
H232 H 0.83687 0.68804 0.38565 0.0
H233 H 0.83181 0.65962 0.40015 0.0
H234 H 0.94758 0.74149 0.40571 0.0
H235 H 0.95224 0.77055 0.39124 0.0
H236 H 0.96099 0.85703 0.3152 0.0
H237 H 0.94375 0.87804 0.30182 0.0
H238 H 0.8444 0.76906 0.2991 0.0
H239 H 0.86236 0.74772 0.31252 0.0
Sm240 Sm 0.88265 0.76487 0.83766 0.0
Sm241 Sm 0.88407 0.76099 0.85996 0.0
C242 C 0.88201 0.7841 0.82084 0.0
C243 C 0.90509 0.79676 0.81264 0.0
C244 C 0.90929 0.82885 0.80831 0.0
C245 C 0.93068 0.8421 0.80056 0.0
C246 C 0.94879 0.82376 0.79692 0.0
C247 C 0.94421 0.7912 0.8012 0.0
C248 C 0.92262 0.77785 0.80901 0.0
C249 C 0.90896 0.71788 0.84394 0.0
C250 C 0.96052 0.82069 0.84856 0.0
C251 C 0.8854 0.73742 0.8763 0.0
C252 C 0.86616 0.72892 0.88505 0.0
C253 C 0.86145 0.69766 0.88991 0.0
C254 C 0.84837 0.69181 0.89869 0.0
C255 C 0.83963 0.71716 0.90285 0.0
C256 C 0.84208 0.74715 0.89774 0.0
C257 C 0.85533 0.75306 0.88896 0.0
C258 C 0.86614 0.81394 0.854 0.0
C259 C 0.80289 0.71434 0.84874 0.0
O260 O 0.89327 0.80793 0.82742 0.0
O261 O 0.8681 0.74917 0.82345 0.0
O262 O 0.89895 0.73734 0.84835 0.0
O263 O 0.90423 0.72251 0.8356 0.0
O264 O 0.94043 0.81333 0.8412 0.0
O265 O 0.94684 0.80232 0.85621 0.0
O266 O 0.868 0.71439 0.8697 0.0
O267 O 0.90455 0.77276 0.87384 0.0
O268 O 0.87142 0.79111 0.84949 0.0
O269 O 0.86844 0.8075 0.86239 0.0
O270 O 0.82129 0.72018 0.8564 0.0
O271 O 0.81971 0.72949 0.84109 0.0
H272 H 0.89588 0.84379 0.81093 0.0
H273 H 0.93274 0.86673 0.79739 0.0
H274 H 0.95789 0.77647 0.79863 0.0
H275 H 0.91987 0.75299 0.81221 0.0
H276 H 0.86946 0.67854 0.88702 0.0
H277 H 0.8471 0.66851 0.90235 0.0
H278 H 0.83472 0.76678 0.90059 0.0
H279 H 0.85819 0.77717 0.88535 0.0
Sm280 Sm 0.25659 0.11703 0.83858 0.0
Sm281 Sm 0.25514 0.12226 0.85974 0.0
C282 C 0.23597 0.09806 0.82176 0.0
C283 C 0.22875 0.1135 0.81346 0.0
C284 C 0.19269 0.09553 0.8096 0.0
C285 C 0.1854 0.10903 0.80169 0.0
C286 C 0.21403 0.14095 0.79738 0.0
C287 C 0.2502 0.15874 0.80124 0.0
C288 C 0.25744 0.14529 0.80915 0.0
C289 C 0.30386 0.19143 0.844 0.0
C290 C 0.20244 0.14463 0.84831 0.0
C291 C 0.26563 0.13234 0.87718 0.0
C292 C 0.28385 0.1294 0.88542 0.0
C293 C 0.32269 0.14322 0.88599 0.0
C294 C 0.33936 0.14425 0.89422 0.0
C295 C 0.31768 0.13199 0.90208 0.0
C296 C 0.27847 0.11612 0.90133 0.0
C297 C 0.26184 0.11482 0.8931 0.0
C298 C 0.19775 0.05802 0.85245 0.0
C299 C 0.30956 0.09325 0.84999 0.0
O300 O 0.212 0.0899 0.82829 0.0
O301 O 0.27081 0.11236 0.82454 0.0
O302 O 0.28408 0.16334 0.84883 0.0
O303 O 0.30036 0.17988 0.83587 0.0
O304 O 0.20784 0.12769 0.84151 0.0
O305 O 0.22132 0.15105 0.85585 0.0
O306 O 0.28553 0.1585 0.87132 0.0
O307 O 0.23977 0.10122 0.87359 0.0
O308 O 0.23162 0.07407 0.84978 0.0
O309 O 0.19412 0.07519 0.85925 0.0
O310 O 0.3017 0.10706 0.85712 0.0
O311 O 0.29338 0.09055 0.84218 0.0
H312 H 0.16999 0.07088 0.81273 0.0
H313 H 0.15713 0.09472 0.79903 0.0
H314 H 0.27326 0.18297 0.79808 0.0
H315 H 0.28562 0.15978 0.81186 0.0
H316 H 0.3403 0.15416 0.88015 0.0
H317 H 0.36949 0.15564 0.89443 0.0
H318 H 0.26065 0.1065 0.90715 0.0
H319 H 0.23174 0.1038 0.89282 0.0
Sm320 Sm 0.90485 0.14288 0.83959 0.0
Sm321 Sm 0.90161 0.13519 0.85967 0.0
C322 C 0.91398 0.13984 0.8221 0.0
C323 C 0.90314 0.114 0.8143 0.0
C324 C 0.92276 0.09491 0.81239 0.0
C325 C 0.91503 0.07331 0.80467 0.0
C326 C 0.88732 0.06989 0.79859 0.0
C327 C 0.86764 0.089 0.8005 0.0
C328 C 0.87552 0.11081 0.80824 0.0
C329 C 0.83326 0.11348 0.84716 0.0
C330 C 0.8921 0.06396 0.8486 0.0
C331 C 0.88442 0.1331 0.87676 0.0
C332 C 0.89085 0.15508 0.88505 0.0
C333 C 0.86029 0.1554 0.88914 0.0
C334 C 0.86397 0.17103 0.89759 0.0
C335 C 0.8983 0.18657 0.90222 0.0
C336 C 0.92942 0.18777 0.89796 0.0
C337 C 0.92572 0.17212 0.88948 0.0
C338 C 0.97017 0.1524 0.8532 0.0
C339 C 0.92754 0.21881 0.8504 0.0
O340 O 0.93602 0.1379 0.8281 0.0
O341 O 0.88889 0.1468 0.82557 0.0
O342 O 0.8583 0.1058 0.84917 0.0
O343 O 0.84551 0.13807 0.84079 0.0
O344 O 0.90555 0.08757 0.84183 0.0
O345 O 0.88197 0.07353 0.85605 0.0
O346 O 0.86473 0.13672 0.87037 0.0
O347 O 0.91164 0.12815 0.87384 0.0
O348 O 0.95099 0.16654 0.85012 0.0
O349 O 0.95494 0.13217 0.86022 0.0
O350 O 0.91224 0.19584 0.85728 0.0
O351 O 0.93224 0.20615 0.84274 0.0
H352 H 0.94472 0.09715 0.81678 0.0
H353 H 0.93149 0.05985 0.8034 0.0
H354 H 0.8459 0.0869 0.79606 0.0
H355 H 0.86022 0.12556 0.80941 0.0
H356 H 0.83306 0.14239 0.88593 0.0
H357 H 0.83958 0.17025 0.90056 0.0
H358 H 0.95625 0.19931 0.90132 0.0
H359 H 0.94987 0.17225 0.88655 0.0
Sm360 Sm 0.78192 0.88115 0.69823 0.0
Sm361 Sm 0.76571 0.87485 0.67636 0.0
C362 C 0.80682 0.88588 0.71469 0.0
C363 C 0.81702 0.90898 0.72289 0.0
C364 C 0.85038 0.91713 0.72729 0.0
C365 C 0.85942 0.93536 0.7355 0.0
C366 C 0.83536 0.94605 0.73957 0.0
C367 C 0.80285 0.93979 0.73496 0.0
C368 C 0.79365 0.92125 0.7267 0.0
C369 C 0.73237 0.90608 0.69281 0.0
C370 C 0.83419 0.95273 0.68526 0.0
C371 C 0.73617 0.87318 0.66058 0.0
C372 C 0.73039 0.85547 0.65169 0.0
C373 C 0.6951 0.84029 0.64754 0.0
C374 C 0.69061 0.82925 0.6386 0.0
C375 C 0.72147 0.83351 0.63362 0.0
C376 C 0.75604 0.84597 0.638 0.0
C377 C 0.76047 0.85681 0.64693 0.0
C378 C 0.81954 0.85544 0.68031 0.0
C379 C 0.72738 0.79847 0.68882 0.0
O380 O 0.82921 0.90023 0.70781 0.0
O381 O 0.77113 0.86585 0.71252 0.0
O382 O 0.74767 0.89167 0.68841 0.0
O383 O 0.74231 0.90656 0.701 0.0
O384 O 0.83068 0.93575 0.69294 0.0
O385 O 0.81083 0.93733 0.67844 0.0
O386 O 0.71619 0.85207 0.66724 0.0
O387 O 0.77073 0.89788 0.66281 0.0
O388 O 0.80288 0.86533 0.68586 0.0
O389 O 0.80668 0.85483 0.67237 0.0
O390 O 0.72495 0.81478 0.68143 0.0
O391 O 0.74951 0.81722 0.6956 0.0
H392 H 0.86902 0.90828 0.72449 0.0
H393 H 0.8849 0.94016 0.73881 0.0
H394 H 0.7837 0.94759 0.73792 0.0
H395 H 0.76783 0.91561 0.72343 0.0
H396 H 0.6714 0.83873 0.65108 0.0
H397 H 0.66365 0.81983 0.63544 0.0
H398 H 0.78023 0.84899 0.63439 0.0
H399 H 0.78791 0.86783 0.64996 0.0
Sm400 Sm 0.14089 0.8983 0.697 0.0
Sm401 Sm 0.15008 0.89561 0.6764 0.0
C402 C 0.13594 0.91727 0.71358 0.0
C403 C 0.11172 0.9042 0.72162 0.0
C404 C 0.09226 0.92271 0.72415 0.0
C405 C 0.07326 0.91464 0.73226 0.0
C406 C 0.0734 0.88801 0.73813 0.0
C407 C 0.09111 0.8679 0.73541 0.0
C408 C 0.11025 0.87603 0.72725 0.0
C409 C 0.11989 0.8247 0.69211 0.0
C410 C 0.0665 0.87405 0.68495 0.0
C411 C 0.14783 0.88015 0.65928 0.0
C412 C 0.17012 0.88786 0.65099 0.0
C413 C 0.18529 0.86498 0.64871 0.0
C414 C 0.19797 0.86542 0.64009 0.0
C415 C 0.19583 0.88872 0.63356 0.0
C416 C 0.18405 0.91417 0.636 0.0
C417 C 0.17115 0.91366 0.64466 0.0
C418 C 0.17114 0.96635 0.68292 0.0
C419 C 0.22536 0.92587 0.68839 0.0
O420 O 0.12335 0.92723 0.7067 0.0
O421 O 0.15474 0.90047 0.71137 0.0
O422 O 0.13134 0.85284 0.6871 0.0
O423 O 0.12003 0.83539 0.70019 0.0
O424 O 0.08145 0.88393 0.69293 0.0
O425 O 0.08605 0.8737 0.67796 0.0
O426 O 0.15259 0.86069 0.66555 0.0
O427 O 0.14121 0.90609 0.66234 0.0
O428 O 0.1434 0.93574 0.68549 0.0
O429 O 0.1892 0.9593 0.67684 0.0
O430 O 0.20889 0.90825 0.68095 0.0
O431 O 0.20586 0.92926 0.69499 0.0
H432 H 0.09281 0.94452 0.71999 0.0
H433 H 0.05935 0.93019 0.73407 0.0
H434 H 0.09182 0.84728 0.73978 0.0
H435 H 0.12493 0.86117 0.72551 0.0
H436 H 0.1849 0.84473 0.65339 0.0
H437 H 0.20671 0.84537 0.63833 0.0
H438 H 0.18173 0.93207 0.63104 0.0
H439 H 0.15958 0.9316 0.64618 0.0
Sm440 Sm 0.12136 0.23898 0.6971 0.0
Sm441 Sm 0.13134 0.2563 0.6762 0.0
C442 C 0.09944 0.21045 0.71332 0.0
C443 C 0.11556 0.20513 0.72168 0.0
C444 C 0.09244 0.17657 0.72765 0.0
C445 C 0.10641 0.17277 0.73589 0.0
C446 C 0.14394 0.19755 0.73837 0.0
C447 C 0.16734 0.22536 0.7322 0.0
C448 C 0.15333 0.22913 0.72398 0.0
C449 C 0.19683 0.29044 0.69334 0.0
C450 C 0.14956 0.19418 0.68429 0.0
C451 C 0.15267 0.28495 0.65999 0.0
C452 C 0.14289 0.29591 0.65145 0.0
C453 C 0.17192 0.32371 0.64632 0.0
C454 C 0.16546 0.33042 0.63756 0.0
C455 C 0.12958 0.30959 0.63368 0.0
C456 C 0.09995 0.28304 0.63903 0.0
C457 C 0.10658 0.27611 0.64781 0.0
C458 C 0.06613 0.19256 0.68081 0.0
C459 C 0.0925 0.29496 0.68847 0.0
O460 O 0.09787 0.1902 0.70644 0.0
O461 O 0.10899 0.245 0.71116 0.0
O462 O 0.17023 0.27568 0.68785 0.0
O463 O 0.18321 0.27861 0.70119 0.0
O464 O 0.1295 0.19196 0.69134 0.0
O465 O 0.16094 0.22189 0.67844 0.0
O466 O 0.15871 0.30591 0.66703 0.0
O467 O 0.13629 0.24912 0.66181 0.0
O468 O 0.08141 0.22241 0.68537 0.0
O469 O 0.08281 0.19781 0.6732 0.0
O470 O 0.10445 0.29146 0.68054 0.0
O471 O 0.09509 0.27743 0.69563 0.0
H472 H 0.06322 0.15764 0.72603 0.0
H473 H 0.08736 0.15118 0.74043 0.0
H474 H 0.19659 0.24451 0.73374 0.0
H475 H 0.17192 0.25121 0.71948 0.0
H476 H 0.20022 0.33908 0.64896 0.0
H477 H 0.18925 0.35067 0.63371 0.0
H478 H 0.07174 0.26693 0.6364 0.0
H479 H 0.08364 0.25444 0.65163 0.0
Sm480 Sm 0.81252 0.58546 0.51126 0.0
Sm481 Sm 0.81373 0.58444 0.53179 0.0
C482 C 0.81386 0.60545 0.49438 0.0
C483 C 0.83475 0.61673 0.48582 0.0
C484 C 0.84034 0.64942 0.48146 0.0
C485 C 0.85268 0.6566 0.4726 0.0
C486 C 0.85943 0.63105 0.46788 0.0
C487 C 0.85652 0.59981 0.47248 0.0
C488 C 0.84428 0.59269 0.48132 0.0
C489 C 0.82675 0.53169 0.51759 0.0
C490 C 0.89329 0.63719 0.52199 0.0
C491 C 0.8062 0.56757 0.54912 0.0
C492 C 0.78334 0.56109 0.55739 0.0
C493 C 0.75363 0.52518 0.55973 0.0
C494 C 0.73483 0.51895 0.56795 0.0
C495 C 0.74527 0.54842 0.57407 0.0
C496 C 0.77527 0.5841 0.5717 0.0
C497 C 0.79383 0.59031 0.56353 0.0
C498 C 0.78788 0.62973 0.52404 0.0
C499 C 0.73746 0.52351 0.52154 0.0
O500 O 0.82471 0.62955 0.50094 0.0
O501 O 0.80056 0.57078 0.49706 0.0
O502 O 0.83902 0.56356 0.52126 0.0
O503 O 0.81166 0.53017 0.50992 0.0
O504 O 0.87352 0.63268 0.51467 0.0
O505 O 0.87756 0.61803 0.52931 0.0
O506 O 0.7929 0.54238 0.54283 0.0
O507 O 0.8257 0.60178 0.54599 0.0
O508 O 0.78153 0.59802 0.52164 0.0
O509 O 0.80796 0.63867 0.53122 0.0
O510 O 0.75923 0.53043 0.52853 0.0
O511 O 0.74958 0.54457 0.51428 0.0
H512 H 0.83313 0.6684 0.48474 0.0
H513 H 0.85451 0.68089 0.46929 0.0
H514 H 0.86224 0.57992 0.46912 0.0
H515 H 0.84057 0.56735 0.48448 0.0
H516 H 0.74514 0.50173 0.55526 0.0
H517 H 0.71191 0.49111 0.56945 0.0
H518 H 0.78513 0.60747 0.57624 0.0
H519 H 0.8171 0.61808 0.56211 0.0
Sm520 Sm 0.43807 0.23077 0.51052 0.0
Sm521 Sm 0.44008 0.23073 0.53199 0.0
C522 C 0.42551 0.2238 0.49316 0.0
C523 C 0.40538 0.22398 0.48499 0.0
C524 C 0.36887 0.19479 0.48317 0.0
C525 C 0.35368 0.19068 0.47465 0.0
C526 C 0.37477 0.21539 0.46773 0.0
C527 C 0.41001 0.2464 0.46975 0.0
C528 C 0.42519 0.25056 0.47829 0.0
C529 C 0.49762 0.29153 0.51808 0.0
C530 C 0.38807 0.2602 0.5221 0.0
C531 C 0.4612 0.24795 0.54876 0.0
C532 C 0.4729 0.23595 0.55691 0.0
C533 C 0.50848 0.26021 0.5605 0.0
C534 C 0.51912 0.25253 0.56871 0.0
C535 C 0.49441 0.22038 0.5736 0.0
C536 C 0.4595 0.19487 0.56981 0.0
C537 C 0.44873 0.20267 0.56154 0.0
C538 C 0.39266 0.15874 0.52536 0.0
C539 C 0.49252 0.20561 0.52074 0.0
O540 O 0.40958 0.19544 0.49872 0.0
O541 O 0.44815 0.25578 0.497 0.0
O542 O 0.46439 0.27581 0.52117 0.0
O543 O 0.4994 0.27571 0.5108 0.0
O544 O 0.39431 0.24897 0.51432 0.0
O545 O 0.40379 0.25786 0.52957 0.0
O546 O 0.48481 0.25975 0.54207 0.0
O547 O 0.42579 0.22942 0.5463 0.0
O548 O 0.41109 0.18896 0.5212 0.0
O549 O 0.39775 0.1663 0.53378 0.0
O550 O 0.48753 0.21991 0.5281 0.0
O551 O 0.47378 0.20238 0.51328 0.0
H552 H 0.35278 0.17394 0.48818 0.0
H553 H 0.3261 0.16689 0.47335 0.0
H554 H 0.42702 0.26588 0.46459 0.0
H555 H 0.4535 0.27329 0.4795 0.0
H556 H 0.52772 0.28598 0.55709 0.0
H557 H 0.5464 0.27249 0.57138 0.0
H558 H 0.43983 0.1699 0.57342 0.0
H559 H 0.42114 0.18329 0.55894 0.0
Sm560 Sm 0.79509 0.21274 0.51145 0.0
Sm561 Sm 0.79071 0.20602 0.53101 0.0
C562 C 0.80939 0.21205 0.49427 0.0
C563 C 0.80467 0.1891 0.48626 0.0
C564 C 0.83435 0.18377 0.48349 0.0
C565 C 0.83482 0.17112 0.47492 0.0
C566 C 0.80568 0.16355 0.46891 0.0
C567 C 0.77427 0.1654 0.4719 0.0
C568 C 0.7738 0.1782 0.4805 0.0
C569 C 0.72751 0.20095 0.51753 0.0
C570 C 0.76518 0.12892 0.52079 0.0
C571 C 0.78277 0.21159 0.54849 0.0
C572 C 0.79445 0.23789 0.55625 0.0
C573 C 0.77319 0.25478 0.55865 0.0
C574 C 0.7798 0.2743 0.56669 0.0
C575 C 0.80777 0.27748 0.57266 0.0
C576 C 0.83054 0.26249 0.57003 0.0
C577 C 0.82383 0.24277 0.56197 0.0
C578 C 0.86222 0.22849 0.52383 0.0
C579 C 0.80936 0.28648 0.52205 0.0
O580 O 0.83223 0.21369 0.50056 0.0
O581 O 0.78017 0.21323 0.49729 0.0
O582 O 0.74394 0.18401 0.52065 0.0
O583 O 0.74586 0.22281 0.51096 0.0
O584 O 0.78301 0.15163 0.51404 0.0
O585 O 0.75946 0.14237 0.5282 0.0
O586 O 0.76096 0.21377 0.54247 0.0
O587 O 0.80678 0.20298 0.54509 0.0
O588 O 0.84042 0.2404 0.52167 0.0
O589 O 0.84595 0.20354 0.53003 0.0
O590 O 0.79468 0.26317 0.5288 0.0
O591 O 0.81789 0.27551 0.51459 0.0
H592 H 0.85863 0.19203 0.48771 0.0
H593 H 0.85949 0.17018 0.47273 0.0
H594 H 0.75171 0.16021 0.46735 0.0
H595 H 0.75051 0.18209 0.48239 0.0
H596 H 0.7503 0.25171 0.55448 0.0
H597 H 0.76211 0.28603 0.56835 0.0
H598 H 0.85227 0.26423 0.57442 0.0
H599 H 0.8407 0.23003 0.56039 0.0
Sm600 Sm 0.92949 0.47364 0.69372 0.0
Sm601 Sm 0.92047 0.47075 0.6732 0.0
C602 C 0.93949 0.46913 0.71117 0.0
C603 C 0.95259 0.4897 0.7198 0.0
C604 C 0.99087 0.51515 0.7214 0.0
C605 C 1.00347 0.53046 0.72989 0.0
C606 C 0.97826 0.52076 0.73707 0.0
C607 C 0.93982 0.49605 0.73541 0.0
C608 C 0.92721 0.48074 0.72691 0.0
C609 C 0.88017 0.49616 0.68732 0.0
C610 C 0.98063 0.55133 0.68308 0.0
C611 C 0.90495 0.47093 0.65593 0.0
C612 C 0.89061 0.44581 0.64793 0.0
C613 C 0.85667 0.43852 0.64391 0.0
C614 C 0.84375 0.41712 0.6361 0.0
C615 C 0.86425 0.40206 0.63199 0.0
C616 C 0.89829 0.40936 0.63603 0.0
C617 C 0.91125 0.43088 0.64386 0.0
C618 C 0.96385 0.44131 0.67949 0.0
C619 C 0.86933 0.39378 0.68426 0.0
O620 O 0.9646 0.47481 0.70512 0.0
O621 O 0.90783 0.46356 0.70773 0.0
O622 O 0.88342 0.46908 0.68449 0.0
O623 O 0.90476 0.51297 0.69356 0.0
O624 O 0.9782 0.53123 0.69016 0.0
O625 O 0.95815 0.53578 0.6761 0.0
O626 O 0.8811 0.46579 0.66229 0.0
O627 O 0.93843 0.48045 0.65898 0.0
O628 O 0.96424 0.47016 0.68254 0.0
O629 O 0.94304 0.42955 0.67244 0.0
O630 O 0.87085 0.41272 0.67701 0.0
O631 O 0.89286 0.41002 0.69096 0.0
H632 H 1.01142 0.5225 0.71616 0.0
H633 H 0.03332 0.54895 0.73087 0.0
H634 H 0.91938 0.48826 0.74069 0.0
H635 H 0.89759 0.46104 0.72595 0.0
H636 H 0.84022 0.44992 0.64674 0.0
H637 H 0.81784 0.41306 0.63319 0.0
H638 H 0.91484 0.39813 0.63319 0.0
H639 H 0.93763 0.43597 0.64671 0.0
Sm640 Sm 0.55219 0.45631 0.69626 0.0
Sm641 Sm 0.55198 0.45172 0.6758 0.0
C642 C 0.55002 0.47444 0.71312 0.0
C643 C 0.52823 0.46784 0.72149 0.0
C644 C 0.52528 0.4975 0.72524 0.0
C645 C 0.51043 0.49434 0.73378 0.0
C646 C 0.49829 0.46147 0.73887 0.0
C647 C 0.49979 0.43113 0.73495 0.0
C648 C 0.51464 0.4343 0.72638 0.0
C649 C 0.53626 0.38717 0.69035 0.0
C650 C 0.47268 0.42991 0.6855 0.0
C651 C 0.55975 0.441 0.65855 0.0
C652 C 0.58221 0.45741 0.65021 0.0
C653 C 0.60727 0.44591 0.64706 0.0
C654 C 0.62582 0.45875 0.63883 0.0
C655 C 0.61976 0.48343 0.63346 0.0
C656 C 0.59432 0.49447 0.63662 0.0
C657 C 0.576 0.48179 0.64482 0.0
C658 C 0.57743 0.52356 0.68284 0.0
C659 C 0.62708 0.46625 0.68715 0.0
O660 O 0.54402 0.49125 0.70643 0.0
O661 O 0.55863 0.4492 0.71063 0.0
O662 O 0.52487 0.40726 0.68654 0.0
O663 O 0.55207 0.4012 0.6979 0.0
O664 O 0.49437 0.44799 0.69234 0.0
O665 O 0.4871 0.42272 0.67839 0.0
O666 O 0.57425 0.4308 0.66497 0.0
O667 O 0.539 0.45458 0.66153 0.0
O668 O 0.58428 0.49885 0.68563 0.0
O669 O 0.55724 0.51106 0.6757 0.0
O670 O 0.60693 0.45188 0.67986 0.0
O671 O 0.61438 0.47735 0.69386 0.0
H672 H 0.53573 0.52377 0.72168 0.0
H673 H 0.50906 0.51805 0.73645 0.0
H674 H 0.491 0.40543 0.73864 0.0
H675 H 0.51668 0.41091 0.72374 0.0
H676 H 0.61228 0.42657 0.65093 0.0
H677 H 0.64518 0.44962 0.63672 0.0
H678 H 0.58789 0.5126 0.63267 0.0
H679 H 0.55636 0.4907 0.64685 0.0
Sm680 Sm 0.5701 0.09846 0.69509 0.0
Sm681 Sm 0.57546 0.10472 0.67294 0.0
C682 C 0.54518 0.07543 0.71147 0.0
C683 C 0.55341 0.0638 0.72021 0.0
C684 C 0.54752 0.02735 0.72149 0.0
C685 C 0.54827 0.01409 0.73002 0.0
C686 C 0.55458 0.03669 0.73757 0.0
C687 C 0.56325 0.07406 0.73624 0.0
C688 C 0.5625 0.08738 0.72767 0.0
C689 C 0.64252 0.14869 0.68973 0.0
C690 C 0.60233 0.05101 0.68342 0.0
C691 C 0.59384 0.1244 0.6561 0.0
C692 C 0.58093 0.13606 0.64807 0.0
C693 C 0.60279 0.17284 0.64486 0.0
C694 C 0.59235 0.18464 0.63719 0.0
C695 C 0.5596 0.16004 0.63245 0.0
C696 C 0.53777 0.12297 0.63561 0.0
C697 C 0.54829 0.11111 0.64333 0.0
C698 C 0.50131 0.06108 0.67927 0.0
C699 C 0.55848 0.16256 0.68424 0.0
O700 O 0.53714 0.05262 0.70469 0.0
O701 O 0.56414 0.111 0.70921 0.0
O702 O 0.61446 0.12983 0.68472 0.0
O703 O 0.63239 0.14006 0.69797 0.0
O704 O 0.58907 0.05548 0.69113 0.0
O705 O 0.6019 0.06816 0.67598 0.0
O706 O 0.60677 0.14829 0.66271 0.0
O707 O 0.57455 0.0893 0.65873 0.0
O708 O 0.53174 0.07674 0.68349 0.0
O709 O 0.50994 0.06781 0.67092 0.0
O710 O 0.57238 0.15602 0.677 0.0
O711 O 0.55087 0.14196 0.69162 0.0
H712 H 0.54061 1.00833 0.71593 0.0
H713 H 0.5423 0.98541 0.73074 0.0
H714 H 0.56825 0.09231 0.74187 0.0
H715 H 0.56716 0.11561 0.72694 0.0
H716 H 0.62833 0.19259 0.64827 0.0
H717 H 0.61043 0.21313 0.63491 0.0
H718 H 0.51226 0.10328 0.63219 0.0
H719 H 0.53086 0.08245 0.64558 0.0
Sm720 Sm 0.55239 0.10678 0.17188 0.0
Sm721 Sm 0.55391 0.0968 0.19392 0.0
C722 C 0.55509 0.13045 0.15529 0.0
C723 C 0.57538 0.13545 0.14674 0.0
C724 C 0.58634 0.16792 0.14161 0.0
C725 C 0.60293 0.17209 0.13321 0.0
C726 C 0.60894 0.14378 0.1297 0.0
C727 C 0.59936 0.11199 0.13506 0.0
C728 C 0.58277 0.10784 0.14344 0.0
C729 C 0.57804 0.05741 0.17707 0.0
C730 C 0.62919 0.16066 0.18308 0.0
C731 C 0.55673 0.07157 0.21 0.0
C732 C 0.53643 0.05874 0.21866 0.0
C733 C 0.52086 0.02096 0.22114 0.0
C734 C 0.5047 1.00847 0.22954 0.0
C735 C 0.5034 0.03331 0.23578 0.0
C736 C 0.51863 0.07122 0.23326 0.0
C737 C 0.53498 0.08379 0.22481 0.0
C738 C 0.53187 0.14858 0.18962 0.0
C739 C 0.47294 0.05488 0.18282 0.0
O740 O 0.57415 0.15288 0.16184 0.0
O741 O 0.5316 0.09606 0.15795 0.0
O742 O 0.56919 0.07692 0.18177 0.0
O743 O 0.57198 0.06294 0.1689 0.0
O744 O 0.60805 0.15617 0.17607 0.0
O745 O 0.61651 0.13923 0.19033 0.0
O746 O 0.54219 0.04956 0.20308 0.0
O747 O 0.57299 0.10738 0.20798 0.0
O748 O 0.54038 0.13044 0.18421 0.0
O749 O 0.53429 0.13854 0.19768 0.0
O750 O 0.49167 0.05445 0.19002 0.0
O751 O 0.48971 0.07525 0.17564 0.0
H752 H 0.58118 0.18976 0.14401 0.0
H753 H 0.6097 0.19689 0.12933 0.0
H754 H 0.60433 0.08993 0.13273 0.0
H755 H 0.57517 0.08272 0.14728 0.0
H756 H 0.522 1.00103 0.21665 0.0
H757 H 0.49424 0.97929 0.23121 0.0
H758 H 0.51797 0.09124 0.2378 0.0
H759 H 0.54692 0.11322 0.22317 0.0
Sm760 Sm 0.92262 0.45119 0.17373 0.0
Sm761 Sm 0.92808 0.45749 0.19373 0.0
C762 C 0.90358 0.43906 0.15652 0.0
C763 C 0.8943 0.45354 0.14833 0.0
C764 C 0.86144 0.42995 0.14351 0.0
C765 C 0.85331 0.44176 0.13543 0.0
C766 C 0.87783 0.47764 0.13192 0.0
C767 C 0.91075 0.50121 0.13678 0.0
C768 C 0.91885 0.48938 0.14485 0.0
C769 C 0.9725 0.52354 0.18005 0.0
C770 C 0.86416 0.46902 0.18478 0.0
C771 C 0.94774 0.47546 0.21059 0.0
C772 C 0.96153 0.46749 0.21896 0.0
C773 C 0.99298 0.4968 0.22314 0.0
C774 C 1.00336 0.49219 0.23169 0.0
C775 C 0.98234 0.45816 0.23633 0.0
C776 C 0.95174 0.42821 0.23198 0.0
C777 C 0.9414 0.43282 0.22339 0.0
C778 C 0.8737 0.38796 0.1882 0.0
C779 C 0.98071 0.4301 0.18324 0.0
O780 O 0.87912 0.42626 0.163 0.0
O781 O 0.93825 0.45642 0.15941 0.0
O782 O 0.94053 0.50119 0.18317 0.0
O783 O 0.9782 0.50788 0.17323 0.0
O784 O 0.869 0.45355 0.1776 0.0
O785 O 0.88843 0.48036 0.19138 0.0
O786 O 0.97125 0.4912 0.20398 0.0
O787 O 0.91364 0.45146 0.20801 0.0
O788 O 0.90538 0.40685 0.18443 0.0
O789 O 0.87188 0.40369 0.19546 0.0
O790 O 0.97735 0.44817 0.1901 0.0
O791 O 0.95822 0.42202 0.17627 0.0
H792 H 0.8421 0.40204 0.14596 0.0
H793 H 0.82753 0.42286 0.13199 0.0
H794 H 0.93079 0.52878 0.13429 0.0
H795 H 0.94462 0.50822 0.1483 0.0
H796 H 1.00883 0.52384 0.2199 0.0
H797 H 0.02754 0.51563 0.23474 0.0
H798 H 0.93473 0.40168 0.23534 0.0
H799 H 0.91686 0.40969 0.22036 0.0
Sm800 Sm 0.56963 0.4668 0.17219 0.0
Sm801 Sm 0.56843 0.47614 0.19198 0.0
C802 C 0.58025 0.46638 0.15473 0.0
C803 C 0.56712 0.44237 0.14663 0.0
C804 C 0.59301 0.43794 0.14138 0.0
C805 C 0.58244 0.41984 0.13311 0.0
C806 C 0.54573 0.40599 0.12983 0.0
C807 C 0.51936 0.40869 0.13533 0.0
C808 C 0.52989 0.42666 0.14359 0.0
C809 C 0.49842 0.4402 0.17921 0.0
C810 C 0.54878 0.39347 0.18377 0.0
C811 C 0.55486 0.47385 0.20934 0.0
C812 C 0.5599 0.49534 0.21767 0.0
C813 C 0.53187 0.50333 0.22038 0.0
C814 C 0.53124 0.51495 0.22907 0.0
C815 C 0.55859 0.51893 0.23527 0.0
C816 C 0.58846 0.51411 0.23241 0.0
C817 C 0.58907 0.50231 0.22368 0.0
C818 C 0.63886 0.49488 0.18538 0.0
C819 C 0.59907 0.55191 0.18077 0.0
O820 O 0.59969 0.45975 0.16062 0.0
O821 O 0.55771 0.47656 0.15833 0.0
O822 O 0.52725 0.4708 0.18134 0.0
O823 O 0.5064 0.42366 0.17297 0.0
O824 O 0.56394 0.41035 0.17619 0.0
O825 O 0.54302 0.41166 0.19029 0.0
O826 O 0.53212 0.47379 0.20322 0.0
O827 O 0.58366 0.47262 0.20603 0.0
O828 O 0.60788 0.46733 0.18304 0.0
O829 O 0.63264 0.51395 0.19133 0.0
O830 O 0.58163 0.53525 0.18818 0.0
O831 O 0.60181 0.53219 0.17413 0.0
H832 H 0.62192 0.44978 0.14354 0.0
H833 H 0.60355 0.41841 0.12909 0.0
H834 H 0.49061 0.39766 0.13314 0.0
H835 H 0.50906 0.42922 0.14746 0.0
H836 H 0.50884 0.4981 0.21599 0.0
H837 H 0.50768 0.51808 0.23115 0.0
H838 H 0.60956 0.51641 0.2371 0.0
H839 H 0.61099 0.49622 0.22185 0.0
Sm840 Sm 0.44868 0.21772 0.02934 0.0
Sm841 Sm 0.42695 0.20761 1.00878 0.0
C842 C 0.4699 0.22078 0.04619 0.0
C843 C 0.4778 0.24431 0.05431 0.0
C844 C 0.51307 0.25991 0.05853 0.0
C845 C 0.52028 0.28083 0.0664 0.0
C846 C 0.49234 0.28667 0.07026 0.0
C847 C 0.45703 0.27075 0.06601 0.0
C848 C 0.44992 0.25007 0.05817 0.0
C849 C 0.40329 0.24643 0.02381 0.0
C850 C 0.49745 0.287 1.01615 0.0
C851 C 0.39447 0.20285 0.99313 0.0
C852 C 0.39064 0.18709 0.98405 0.0
C853 C 0.35565 0.17082 0.97972 0.0
C854 C 0.35233 0.16055 0.97073 0.0
C855 C 0.38407 0.16657 0.96584 0.0
C856 C 0.41858 0.1805 0.97037 0.0
C857 C 0.42185 0.19063 0.97936 0.0
C858 C 0.48524 0.19308 1.01108 0.0
C859 C 0.39183 0.1321 0.02132 0.0
O860 O 0.49377 0.23483 0.03958 0.0
O861 O 0.4349 0.20139 0.0435 0.0
O862 O 0.40138 0.21655 0.02108 0.0
O863 O 0.427 0.26004 0.03031 0.0
O864 O 0.49886 0.26957 0.02338 0.0
O865 O 0.46901 0.27123 1.01045 0.0
O866 O 0.37749 0.17937 0.99967 0.0
O867 O 0.42729 0.23092 0.99542 0.0
O868 O 0.47005 0.20199 1.0172 0.0
O869 O 0.46875 0.19086 1.00358 0.0
O870 O 0.39065 0.14691 1.0136 0.0
O871 O 0.4128 0.15278 0.02804 0.0
H872 H 0.5351 0.25581 0.05575 0.0
H873 H 0.54789 0.29283 0.06939 0.0
H874 H 0.43444 0.27382 0.06882 0.0
H875 H 0.42235 0.23833 0.05517 0.0
H876 H 0.33108 0.16754 0.98319 0.0
H877 H 0.32536 0.15001 0.96748 0.0
H878 H 0.44349 0.18486 0.96686 0.0
H879 H 0.44911 0.20253 0.98253 0.0
Sm880 Sm 0.805 0.22977 0.02892 0.0
Sm881 Sm 0.81479 0.22507 1.00824 0.0
C882 C 0.79355 0.24224 0.04572 0.0
C883 C 0.7692 0.22639 0.05371 0.0
C884 C 0.75719 0.24823 0.05833 0.0
C885 C 0.73654 0.23521 0.06625 0.0
C886 C 0.72727 0.19987 0.06978 0.0
C887 C 0.7393 0.17801 0.06511 0.0
C888 C 0.75991 0.19104 0.05719 0.0
C889 C 0.78639 0.15844 0.02234 0.0
C890 C 0.73455 0.21462 1.01588 0.0
C891 C 0.81539 0.19963 0.99211 0.0
C892 C 0.83535 0.20725 0.9835 0.0
C893 C 0.83266 0.1769 0.97868 0.0
C894 C 0.84681 0.1819 0.97004 0.0
C895 C 0.86412 0.21748 0.96597 0.0
C896 C 0.86819 0.2483 0.97093 0.0
C897 C 0.85376 0.2432 0.97961 0.0
C898 C 0.83933 0.29894 1.01235 0.0
C899 C 0.88893 0.25685 0.02107 0.0
O900 O 0.78023 0.25161 0.03888 0.0
O901 O 0.8148 0.22826 0.0434 0.0
O902 O 0.78007 0.18246 1.01877 0.0
O903 O 0.80218 0.17196 0.02995 0.0
O904 O 0.749 0.22369 0.02395 0.0
O905 O 0.75304 0.21057 1.00916 0.0
O906 O 0.82958 0.19171 0.99907 0.0
O907 O 0.7994 0.21951 0.99402 0.0
O908 O 0.82674 0.27202 1.01782 0.0
O909 O 0.84031 0.28719 1.00443 0.0
O910 O 0.87242 0.23734 1.01381 0.0
O911 O 0.8696 0.26227 0.02735 0.0
H912 H 0.76418 0.27572 0.05584 0.0
H913 H 0.72752 0.25273 0.06956 0.0
H914 H 0.73336 0.15092 0.06764 0.0
H915 H 0.76898 0.17359 0.05386 0.0
H916 H 0.81852 0.14893 0.98152 0.0
H917 H 0.84377 0.15768 0.96648 0.0
H918 H 0.88125 0.27606 0.968 0.0
H919 H 0.85607 0.26711 0.98317 0.0
Sm920 Sm 0.79033 0.5678 0.02955 0.0
Sm921 Sm 0.80327 0.59121 1.00824 0.0
C922 C 0.76961 0.53726 0.04567 0.0
C923 C 0.78562 0.53365 0.05429 0.0
C924 C 0.76587 0.50081 0.05941 0.0
C925 C 0.77885 0.49774 0.06786 0.0
C926 C 0.81201 0.52756 0.07146 0.0
C927 C 0.83252 0.55986 0.06612 0.0
C928 C 0.81949 0.5629 0.05768 0.0
C929 C 0.86558 0.62114 0.02548 0.0
C930 C 0.81593 0.52336 1.01602 0.0
C931 C 0.83273 0.62248 0.99269 0.0
C932 C 0.82582 0.63512 0.98398 0.0
C933 C 0.85364 0.6696 0.98058 0.0
C934 C 0.85014 0.68162 0.97212 0.0
C935 C 0.81843 0.65969 0.96677 0.0
C936 C 0.79029 0.62495 0.97018 0.0
C937 C 0.79394 0.61278 0.97871 0.0
C938 C 0.73093 0.53236 1.01076 0.0
C939 C 0.76307 0.62586 0.02132 0.0
O940 O 0.7724 0.51925 0.03882 0.0
O941 O 0.77438 0.57035 0.04355 0.0
O942 O 0.8377 0.60534 0.02045 0.0
O943 O 0.85342 0.6095 0.03345 0.0
O944 O 0.79575 0.52059 0.02309 0.0
O945 O 0.82765 0.55153 1.01026 0.0
O946 O 0.83543 0.64217 0.99979 0.0
O947 O 0.81652 0.58632 0.99421 0.0
O948 O 0.75512 0.54845 1.01688 0.0
O949 O 0.74459 0.54971 1.0033 0.0
O950 O 0.7816 0.62937 1.01382 0.0
O951 O 0.75989 0.60228 0.02779 0.0
H952 H 0.73975 0.47772 0.05696 0.0
H953 H 0.76206 0.47249 0.07171 0.0
H954 H 0.85865 0.58316 0.06849 0.0
H955 H 0.83565 0.5884 0.05387 0.0
H956 H 0.87873 0.68707 0.98442 0.0
H957 H 0.873 0.70798 0.96971 0.0
H958 H 0.76541 0.6073 0.9663 0.0
H959 H 0.77205 0.58584 0.98113 0.0
Sm960 Sm 0.47499 0.91966 0.84476 0.0
Sm961 Sm 0.47746 0.91403 0.86626 0.0
C962 C 0.47861 0.94335 0.82811 0.0
C963 C 0.49885 0.95291 0.81943 0.0
C964 C 0.51103 0.98835 0.81557 0.0
C965 C 0.52252 0.99528 0.80663 0.0
C966 C 0.52169 0.96674 0.80135 0.0
C967 C 0.51238 0.93229 0.80543 0.0
C968 C 0.50111 0.92544 0.81435 0.0
C969 C 0.4824 0.86065 0.85087 0.0
C970 C 0.55765 0.96383 0.85545 0.0
C971 C 0.47571 0.89228 0.88301 0.0
C972 C 0.453 0.88129 0.89139 0.0
C973 C 0.43907 0.84478 0.8947 0.0
C974 C 0.41884 0.83341 0.90267 0.0
C975 C 0.4115 0.85807 0.90765 0.0
C976 C 0.426 0.895 0.90442 0.0
C977 C 0.4465 0.90649 0.89639 0.0
C978 C 0.45154 0.96285 0.86097 0.0
C979 C 0.39846 0.86241 0.85557 0.0
O980 O 0.49329 0.96636 0.83483 0.0
O981 O 0.46021 0.90804 0.83052 0.0
O982 O 0.49701 0.8927 0.85454 0.0
O983 O 0.46739 0.861 0.84329 0.0
O984 O 0.53884 0.95797 0.84788 0.0
O985 O 0.54098 0.94858 0.86311 0.0
O986 O 0.46238 0.86894 0.87631 0.0
O987 O 0.49322 0.92762 0.88052 0.0
O988 O 0.46072 0.94378 0.8562 0.0
O989 O 0.45769 0.95752 0.86914 0.0
O990 O 0.41989 0.86537 0.86242 0.0
O991 O 0.41168 0.88453 0.84846 0.0
H992 H 0.50954 0.01006 0.8193 0.0
H993 H 0.52941 0.02206 0.80371 0.0
H994 H 0.51197 0.90987 0.80158 0.0
H995 H 0.49224 0.89789 0.81709 0.0
H996 H 0.44411 0.82486 0.89112 0.0
H997 H 0.40922 0.80508 0.90496 0.0
H998 H 0.42095 0.91486 0.90801 0.0
H999 H 0.45715 0.93502 0.8941 0.0
Sm1000 Sm 0.10232 0.559 0.84373 0.0
Sm1001 Sm 0.11039 0.5678 0.86508 0.0
C1002 C 0.07973 0.5392 0.82703 0.0
C1003 C 0.07039 0.54997 0.81832 0.0
C1004 C 0.0332 0.53102 0.81517 0.0
C1005 C 0.02471 0.53653 0.80645 0.0
C1006 C 0.05327 0.56077 0.80055 0.0
C1007 C 0.09036 0.58076 0.80385 0.0
C1008 C 0.09875 0.57552 0.8126 0.0
C1009 C 0.15933 0.6273 0.84952 0.0
C1010 C 0.05244 0.5898 0.85477 0.0
C1011 C 0.13404 0.58883 0.88169 0.0
C1012 C 0.14124 0.57419 0.89011 0.0
C1013 C 0.17102 0.59839 0.89568 0.0
C1014 C 0.17824 0.58537 0.90369 0.0
C1015 C 0.15592 0.54764 0.90633 0.0
C1016 C 0.12587 0.52355 0.90074 0.0
C1017 C 0.11868 0.53659 0.89274 0.0
C1018 C 0.06353 0.49217 0.86038 0.0
C1019 C 0.16311 0.54402 0.85357 0.0
O1020 O 0.05633 0.53069 0.8337 0.0
O1021 O 0.11494 0.55621 0.82953 0.0
O1022 O 0.12786 0.60829 0.85337 0.0
O1023 O 0.15925 0.61256 0.84191 0.0
O1024 O 0.05895 0.57691 0.84731 0.0
O1025 O 0.07035 0.592 0.86232 0.0
O1026 O 0.1568 0.59464 0.87502 0.0
O1027 O 0.09897 0.57503 0.87917 0.0
O1028 O 0.08056 0.51997 0.8553 0.0
O1029 O 0.07033 0.50461 0.86845 0.0
O1030 O 0.16137 0.563 0.86044 0.0
O1031 O 0.13798 0.532 0.8471 0.0
H1032 H 1.0107 0.51095 0.81938 0.0
H1033 H 0.99568 0.5212 0.80433 0.0
H1034 H 0.11345 0.59936 0.79959 0.0
H1035 H 0.12781 0.59048 0.81474 0.0
H1036 H 0.18888 0.62752 0.89382 0.0
H1037 H 0.20185 0.60475 0.90772 0.0
H1038 H 0.10759 0.49446 0.90256 0.0
H1039 H 0.09544 0.51723 0.88862 0.0
Sm1040 Sm 0.45925 0.54333 0.84533 0.0
Sm1041 Sm 0.45676 0.5412 0.8669 0.0
C1042 C 0.47456 0.55247 0.82802 0.0
C1043 C 0.46993 0.53295 0.8194 0.0
C1044 C 0.5022 0.5403 0.81459 0.0
C1045 C 0.49934 0.52533 0.8061 0.0
C1046 C 0.46404 0.50251 0.80214 0.0
C1047 C 0.43156 0.49417 0.80706 0.0
C1048 C 0.43445 0.50936 0.81558 0.0
C1049 C 0.38926 0.51936 0.85295 0.0
C1050 C 0.43461 0.4639 0.85544 0.0
C1051 C 0.43913 0.54065 0.88396 0.0
C1052 C 0.45268 0.56433 0.89212 0.0
C1053 C 0.42717 0.56955 0.89731 0.0
C1054 C 0.43887 0.59084 0.90516 0.0
C1055 C 0.47652 0.60781 0.90795 0.0
C1056 C 0.50212 0.6028 0.90272 0.0
C1057 C 0.49034 0.58116 0.89493 0.0
C1058 C 0.52964 0.56667 0.86043 0.0
C1059 C 0.4804 0.62116 0.85666 0.0
O1060 O 0.49675 0.55025 0.83395 0.0
O1061 O 0.44539 0.55246 0.83156 0.0
O1062 O 0.42057 0.54482 0.85584 0.0
O1063 O 0.3953 0.50447 0.84597 0.0
O1064 O 0.45216 0.48556 0.84851 0.0
O1065 O 0.42801 0.4776 0.86281 0.0
O1066 O 0.42554 0.55202 0.87755 0.0
O1067 O 0.45872 0.52567 0.881 0.0
O1068 O 0.49924 0.55441 0.85628 0.0
O1069 O 0.52168 0.56478 0.86882 0.0
O1070 O 0.47269 0.60237 0.86425 0.0
O1071 O 0.47876 0.60557 0.84882 0.0
H1072 H 0.52989 0.55838 0.81734 0.0
H1073 H 0.52493 0.53185 0.8026 0.0
H1074 H 0.40392 0.47685 0.80421 0.0
H1075 H 0.40898 0.5032 0.81909 0.0
H1076 H 0.39803 0.55707 0.8953 0.0
H1077 H 0.41864 0.59469 0.90895 0.0
H1078 H 0.53134 0.61558 0.9047 0.0
H1079 H 0.51076 0.57771 0.89111 0.0
Sm1080 Sm 0.59332 0.80254 0.02987 0.0
Sm1081 Sm 0.58532 0.79863 1.00859 0.0
C1082 C 0.6172 0.80833 0.04648 0.0
C1083 C 0.63004 0.83034 0.05477 0.0
C1084 C 0.65731 0.82798 0.0599 0.0
C1085 C 0.66551 0.8426 0.06851 0.0
C1086 C 0.6467 0.86015 0.07219 0.0
C1087 C 0.6209 0.86443 0.06681 0.0
C1088 C 0.61251 0.84951 0.0582 0.0
C1089 C 0.53293 0.80691 0.02337 0.0
C1090 C 0.63565 0.88221 1.01823 0.0
C1091 C 0.56083 0.79162 0.99197 0.0
C1092 C 0.55436 0.76924 0.98367 0.0
C1093 C 0.51754 0.74431 0.98072 0.0
C1094 C 0.51105 0.72697 0.97235 0.0
C1095 C 0.54125 0.73445 0.96667 0.0
C1096 C 0.57806 0.75784 0.96985 0.0
C1097 C 0.58453 0.77502 0.97819 0.0
C1098 C 0.63332 0.77248 1.01432 0.0
C1099 C 0.5342 0.72427 0.02101 0.0
O1100 O 0.64001 0.8186 0.03964 0.0
O1101 O 0.58183 0.79418 0.04428 0.0
O1102 O 0.56511 0.82188 0.01975 0.0
O1103 O 0.53356 0.79249 0.03102 0.0
O1104 O 0.62904 0.86523 0.02607 0.0
O1105 O 0.62188 0.86349 1.01068 0.0
O1106 O 0.53846 0.77524 0.99875 0.0
O1107 O 0.59566 0.81497 0.99436 0.0
O1108 O 0.61639 0.78502 1.01882 0.0
O1109 O 0.62639 0.77518 1.00604 0.0
O1110 O 0.5354 0.74297 1.01374 0.0
O1111 O 0.55956 0.73943 0.02738 0.0
H1112 H 0.67099 0.81309 0.05742 0.0
H1113 H 0.68516 0.83821 0.07241 0.0
H1114 H 0.6064 0.87844 0.06932 0.0
H1115 H 0.59138 0.85179 0.05436 0.0
H1116 H 0.49362 0.73926 0.98476 0.0
H1117 H 0.48235 0.70922 0.97015 0.0
H1118 H 0.60208 0.76369 0.96576 0.0
H1119 H 0.61327 0.79379 0.98021 0.0
Sm1120 Sm 0.21896 0.79518 0.03024 0.0
Sm1121 Sm 0.22074 0.78172 1.00843 0.0
C1122 C 0.21919 0.82395 0.04596 0.0
C1123 C 0.20114 0.8124 0.05483 0.0
C1124 C 0.17889 0.82706 0.05796 0.0
C1125 C 0.16419 0.81914 0.06659 0.0
C1126 C 0.17174 0.79665 0.07236 0.0
C1127 C 0.19312 0.78106 0.0691 0.0
C1128 C 0.20756 0.78875 0.06044 0.0
C1129 C 0.19936 0.72144 0.02695 0.0
C1130 C 0.14032 0.76175 1.01824 0.0
C1131 C 0.22617 0.76166 0.99197 0.0
C1132 C 0.25069 0.77516 0.98389 0.0
C1133 C 0.26371 0.75238 0.98022 0.0
C1134 C 0.28278 0.76152 0.97207 0.0
C1135 C 0.28946 0.79378 0.96728 0.0
C1136 C 0.27848 0.81793 0.97119 0.0
C1137 C 0.25915 0.80865 0.97939 0.0
C1138 C 0.24857 0.85713 1.01339 0.0
C1139 C 0.29623 0.80785 0.02068 0.0
O1140 O 0.19822 0.82355 0.03932 0.0
O1141 O 0.24315 0.81306 0.0437 0.0
O1142 O 0.20754 0.74665 0.0211 0.0
O1143 O 0.20068 0.73537 0.03476 0.0
O1144 O 0.15971 0.77968 0.02542 0.0
O1145 O 0.15617 0.75543 1.01121 0.0
O1146 O 0.2389 0.75224 0.99894 0.0
O1147 O 0.20642 0.77771 0.99405 0.0
O1148 O 0.23334 0.82775 1.01788 0.0
O1149 O 0.24842 0.84679 1.00526 0.0
O1150 O 0.27667 0.78882 1.01364 0.0
O1151 O 0.28182 0.81893 0.02709 0.0
H1152 H 0.17341 0.84531 0.05379 0.0
H1153 H 0.14722 0.83104 0.06876 0.0
H1154 H 0.19998 0.76396 0.07333 0.0
H1155 H 0.22454 0.77689 0.05825 0.0
H1156 H 0.25793 0.72657 0.98352 0.0
H1157 H 0.29124 0.74249 0.96935 0.0
H1158 H 0.28306 0.84294 0.9677 0.0
H1159 H 0.2498 0.82707 0.98204 0.0
Sm1160 Sm 0.23352 0.42615 0.02909 0.0
Sm1161 Sm 0.23792 0.44294 1.00795 0.0
C1162 C 0.21478 0.40832 0.04604 0.0
C1163 C 0.22265 0.39611 0.05472 0.0
C1164 C 0.19277 0.36723 0.05948 0.0
C1165 C 0.19763 0.35887 0.06825 0.0
C1166 C 0.23266 0.37918 0.07255 0.0
C1167 C 0.26313 0.4068 0.06757 0.0
C1168 C 0.25816 0.41529 0.0588 0.0
C1169 C 0.30467 0.47674 0.02269 0.0
C1170 C 0.2651 0.38465 1.01623 0.0
C1171 C 0.25604 0.46943 0.99142 0.0
C1172 C 0.23999 0.47527 0.98306 0.0
C1173 C 0.2582 0.51044 0.97879 0.0
C1174 C 0.24614 0.51562 0.97042 0.0
C1175 C 0.21559 0.48564 0.96606 0.0
C1176 C 0.19627 0.45094 0.97058 0.0
C1177 C 0.20831 0.44579 0.97894 0.0
C1178 C 0.16449 0.3905 1.01324 0.0
C1179 C 0.21456 0.49094 0.02118 0.0
O1180 O 0.20025 0.38383 0.03958 0.0
O1181 O 0.23801 0.44247 0.04326 0.0
O1182 O 0.27394 0.47348 0.02003 0.0
O1183 O 0.29766 0.45261 0.02905 0.0
O1184 O 0.24694 0.3819 0.02371 0.0
O1185 O 0.26898 0.40866 1.0098 0.0
O1186 O 0.25926 0.49044 0.99825 0.0
O1187 O 0.24663 0.43502 0.9937 0.0
O1188 O 0.19409 0.40585 1.01774 0.0
O1189 O 0.17365 0.40237 1.00514 0.0
O1190 O 0.22687 0.48885 1.01321 0.0
O1191 O 0.21104 0.46783 0.02777 0.0
H1192 H 0.16504 0.35212 0.05652 0.0
H1193 H 0.1733 0.33769 0.07179 0.0
H1194 H 0.2908 0.42254 0.07051 0.0
H1195 H 0.28187 0.43764 0.05531 0.0
H1196 H 0.28263 0.53373 0.98181 0.0
H1197 H 0.26184 0.5427 0.9672 0.0
H1198 H 0.17207 0.42736 0.96758 0.0
H1199 H 0.1933 0.41845 0.98207 0.0
Sm1200 Sm 0.21849 0.4386 0.50645 0.0
Sm1201 Sm 0.22205 0.43697 0.52789 0.0
C1202 C 0.22152 0.46029 0.48967 0.0
C1203 C 0.24414 0.46715 0.48143 0.0
C1204 C 0.25195 0.49799 0.47595 0.0
C1205 C 0.27057 0.50338 0.46778 0.0
C1206 C 0.2818 0.47793 0.46485 0.0
C1207 C 0.27539 0.448 0.47057 0.0
C1208 C 0.25678 0.44264 0.47872 0.0
C1209 C 0.24386 0.39045 0.51236 0.0
C1210 C 0.2989 0.48873 0.51733 0.0
C1211 C 0.21955 0.42202 0.54515 0.0
C1212 C 0.19633 0.40482 0.55324 0.0
C1213 C 0.18246 0.36675 0.55525 0.0
C1214 C 0.16586 0.35197 0.5635 0.0
C1215 C 0.16268 0.37484 0.57 0.0
C1216 C 0.1754 0.41266 0.56785 0.0
C1217 C 0.19212 0.42747 0.5596 0.0
C1218 C 0.21708 0.49551 0.52039 0.0
C1219 C 0.13901 0.38858 0.51774 0.0
O1220 O 0.23733 0.48391 0.49625 0.0
O1221 O 0.20068 0.4254 0.49236 0.0
O1222 O 0.23373 0.40962 0.51676 0.0
O1223 O 0.23914 0.39513 0.50403 0.0
O1224 O 0.27818 0.48732 0.51039 0.0
O1225 O 0.28419 0.46609 0.52423 0.0
O1226 O 0.22029 0.40008 0.53895 0.0
O1227 O 0.22186 0.45279 0.54199 0.0
O1228 O 0.19935 0.46187 0.51776 0.0
O1229 O 0.23676 0.49833 0.52741 0.0
O1230 O 0.15968 0.39554 0.52502 0.0
O1231 O 0.15415 0.40267 0.50983 0.0
H1232 H 0.24274 0.51747 0.4779 0.0
H1233 H 0.27479 0.52667 0.46362 0.0
H1234 H 0.28437 0.42827 0.46869 0.0
H1235 H 0.25171 0.4189 0.48283 0.0
H1236 H 0.18567 0.34857 0.55058 0.0
H1237 H 0.157 0.32289 0.5649 0.0
H1238 H 0.17298 0.43106 0.57261 0.0
H1239 H 0.20285 0.45703 0.55832 0.0
Sm1240 Sm 0.58141 0.78151 0.50572 0.0
Sm1241 Sm 0.59664 0.7907 0.52767 0.0
C1242 C 0.55511 0.76093 0.48932 0.0
C1243 C 0.55036 0.77667 0.48083 0.0
C1244 C 0.52434 0.75267 0.47451 0.0
C1245 C 0.52055 0.76652 0.46626 0.0
C1246 C 0.54277 0.80485 0.46411 0.0
C1247 C 0.568 0.82901 0.47062 0.0
C1248 C 0.5718 0.81509 0.47886 0.0
C1249 C 0.63193 0.85582 0.51093 0.0
C1250 C 0.53224 0.80458 0.51849 0.0
C1251 C 0.62194 0.81581 0.54383 0.0
C1252 C 0.6326 0.80594 0.55247 0.0
C1253 C 0.66899 0.81163 0.55379 0.0
C1254 C 0.68142 0.8094 0.5623 0.0
C1255 C 0.65799 0.8018 0.56975 0.0
C1256 C 0.62061 0.79305 0.56836 0.0
C1257 C 0.6081 0.79527 0.55982 0.0
C1258 C 0.54228 0.71799 0.52318 0.0
C1259 C 0.63608 0.75341 0.51547 0.0
O1260 O 0.53415 0.75963 0.49602 0.0
O1261 O 0.58951 0.7703 0.49169 0.0
O1262 O 0.61453 0.82695 0.51562 0.0
O1263 O 0.62385 0.84532 0.50272 0.0
O1264 O 0.53227 0.7861 0.51134 0.0
O1265 O 0.55784 0.81535 0.52487 0.0
O1266 O 0.64413 0.8224 0.53696 0.0
O1267 O 0.58615 0.79892 0.54173 0.0
O1268 O 0.56002 0.74542 0.51798 0.0
O1269 O 0.55417 0.72886 0.53122 0.0
O1270 O 0.63893 0.77289 0.52274 0.0
O1271 O 0.61341 0.74951 0.50873 0.0
H1272 H 0.50733 0.72293 0.47589 0.0
H1273 H 0.50103 0.74689 0.46147 0.0
H1274 H 0.58505 0.85881 0.46936 0.0
H1275 H 0.59177 0.83429 0.48366 0.0
H1276 H 0.68862 0.81967 0.54831 0.0
H1277 H 0.71019 0.81559 0.56312 0.0
H1278 H 0.60182 0.7871 0.57395 0.0
H1279 H 0.57985 0.79063 0.55904 0.0
Sm1280 Sm 0.23751 0.8035 0.50549 0.0
Sm1281 Sm 0.23757 0.80945 0.52685 0.0
C1282 C 0.25438 0.79744 0.48877 0.0
C1283 C 0.23839 0.77536 0.48046 0.0
C1284 C 0.2475 0.74798 0.47782 0.0
C1285 C 0.23428 0.72876 0.46973 0.0
C1286 C 0.2117 0.73653 0.46404 0.0
C1287 C 0.20307 0.76426 0.46668 0.0
C1288 C 0.21611 0.78328 0.47475 0.0
C1289 C 0.16546 0.78136 0.51194 0.0
C1290 C 0.21287 0.72905 0.51798 0.0
C1291 C 0.23197 0.81772 0.54412 0.0
C1292 C 0.23177 0.83842 0.55215 0.0
C1293 C 0.19893 0.83845 0.55473 0.0
C1294 C 0.19538 0.8488 0.56335 0.0
C1295 C 0.22451 0.85925 0.56957 0.0
C1296 C 0.25865 0.86262 0.56677 0.0
C1297 C 0.26219 0.85213 0.55813 0.0
C1298 C 0.29775 0.80854 0.51927 0.0
C1299 C 0.2665 0.88634 0.51466 0.0
O1300 O 0.26088 0.7809 0.49546 0.0
O1301 O 0.2423 0.82015 0.4913 0.0
O1302 O 0.1957 0.79374 0.51612 0.0
O1303 O 0.17265 0.78039 0.5036 0.0
O1304 O 0.22947 0.74718 0.51059 0.0
O1305 O 0.20647 0.74562 0.52475 0.0
O1306 O 0.20281 0.80302 0.53876 0.0
O1307 O 0.26395 0.82782 0.54013 0.0
O1308 O 0.28251 0.82646 0.51624 0.0
O1309 O 0.28191 0.79131 0.5266 0.0
O1310 O 0.25372 0.86965 0.52246 0.0
O1311 O 0.26578 0.8676 0.50744 0.0
H1312 H 0.26509 0.74155 0.48199 0.0
H1313 H 0.24142 0.70753 0.46799 0.0
H1314 H 0.18658 0.77186 0.46244 0.0
H1315 H 0.20903 0.80461 0.47644 0.0
H1316 H 0.17496 0.82803 0.55031 0.0
H1317 H 0.1688 0.84611 0.56536 0.0
H1318 H 0.2814 0.87028 0.57145 0.0
H1319 H 0.28779 0.85215 0.55636 0.0
Sm1320 Sm 0.11354 0.54431 0.36394 0.0
Sm1321 Sm 0.10746 0.54221 0.34276 0.0
C1322 C 0.13597 0.54821 0.38067 0.0
C1323 C 0.14091 0.56969 0.38905 0.0
C1324 C 0.17669 0.59838 0.39175 0.0
C1325 C 0.18152 0.61729 0.39985 0.0
C1326 C 0.15069 0.60793 0.4055 0.0
C1327 C 0.11506 0.5789 0.4028 0.0
C1328 C 0.11024 0.56019 0.39472 0.0
C1329 C 0.0657 0.57054 0.35841 0.0
C1330 C 0.1651 0.62075 0.35179 0.0
C1331 C 0.09438 0.53751 0.32541 0.0
C1332 C 0.07471 0.5166 0.31728 0.0
C1333 C 0.05101 0.52638 0.31269 0.0
C1334 C 0.03763 0.5121 0.30421 0.0
C1335 C 0.0479 0.4879 0.30005 0.0
C1336 C 0.0705 0.47699 0.30479 0.0
C1337 C 0.08378 0.49118 0.31329 0.0
C1338 C 0.16674 0.53756 0.34996 0.0
C1339 C 0.05431 0.46411 0.35413 0.0
O1340 O 0.15921 0.5655 0.37409 0.0
O1341 O 0.10152 0.5253 0.37798 0.0
O1342 O 0.08281 0.55862 0.35375 0.0
O1343 O 0.07289 0.56779 0.36667 0.0
O1344 O 0.16343 0.60188 0.35912 0.0
O1345 O 0.14058 0.6051 0.34528 0.0
O1346 O 0.07733 0.54835 0.33103 0.0
O1347 O 0.11834 0.52965 0.3292 0.0
O1348 O 0.13352 0.52067 0.35294 0.0
O1349 O 0.16882 0.55659 0.3429 0.0
O1350 O 0.06022 0.48324 0.34663 0.0
O1351 O 0.07354 0.47997 0.36151 0.0
H1352 H 0.20107 0.60613 0.38762 0.0
H1353 H 0.20935 0.63955 0.40163 0.0
H1354 H 0.09066 0.57003 0.40699 0.0
H1355 H 0.08236 0.5379 0.39299 0.0
H1356 H 0.04392 0.54626 0.31553 0.0
H1357 H 0.01974 0.52063 0.30084 0.0
H1358 H 0.07938 0.45876 0.30179 0.0
H1359 H 0.10243 0.4834 0.31657 0.0
Sm1360 Sm 0.47798 0.56676 0.36471 0.0
Sm1361 Sm 0.48599 0.56525 0.34343 0.0
C1362 C 0.46996 0.58384 0.38128 0.0
C1363 C 0.44692 0.56762 0.38945 0.0
C1364 C 0.43112 0.58682 0.39376 0.0
C1365 C 0.41085 0.57302 0.40172 0.0
C1366 C 0.40583 0.53957 0.40558 0.0
C1367 C 0.42182 0.52049 0.40123 0.0
C1368 C 0.44195 0.53423 0.39328 0.0
C1369 C 0.45445 0.49382 0.35876 0.0
C1370 C 0.40469 0.54175 0.35159 0.0
C1371 C 0.50195 0.55897 0.32674 0.0
C1372 C 0.51091 0.55537 0.31737 0.0
C1373 C 0.51029 0.52257 0.31457 0.0
C1374 C 0.5172 0.5181 0.30571 0.0
C1375 C 0.52463 0.54616 0.29935 0.0
C1376 C 0.52706 0.57984 0.30221 0.0
C1377 C 0.52026 0.5844 0.31114 0.0
C1378 C 0.48567 0.62694 0.35032 0.0
C1379 C 0.56159 0.59463 0.3563 0.0
O1380 O 0.4539 0.59 0.37444 0.0
O1381 O 0.49306 0.57188 0.379 0.0
O1382 O 0.46815 0.52379 0.35439 0.0
O1383 O 0.45442 0.50235 0.36705 0.0
O1384 O 0.42228 0.55854 0.35902 0.0
O1385 O 0.42178 0.53522 0.34493 0.0
O1386 O 0.48633 0.53024 0.33219 0.0
O1387 O 0.50817 0.59084 0.33012 0.0
O1388 O 0.50243 0.61112 0.35378 0.0
O1389 O 0.46994 0.61087 0.34287 0.0
O1390 O 0.54549 0.58173 0.34848 0.0
O1391 O 0.54229 0.5943 0.36337 0.0
H1392 H 0.43463 0.61273 0.39099 0.0
H1393 H 0.3987 0.58834 0.40477 0.0
H1394 H 0.41925 0.49503 0.40403 0.0
H1395 H 0.45391 0.5188 0.39018 0.0
H1396 H 0.50395 0.50002 0.31922 0.0
H1397 H 0.51578 0.49208 0.30376 0.0
H1398 H 0.53258 0.60191 0.29748 0.0
H1399 H 0.52136 0.61024 0.31312 0.0
Sm1400 Sm 0.45682 0.91437 0.36299 0.0
Sm1401 Sm 0.4614 0.92126 0.343 0.0
C1402 C 0.44601 0.89519 0.3802 0.0
C1403 C 0.46264 0.88736 0.38823 0.0
C1404 C 0.44712 0.85058 0.3916 0.0
C1405 C 0.4603 0.84334 0.39958 0.0
C1406 C 0.48937 0.87273 0.40445 0.0
C1407 C 0.50481 0.90949 0.40104 0.0
C1408 C 0.49169 0.91669 0.39308 0.0
C1409 C 0.52836 0.96772 0.3564 0.0
C1410 C 0.48006 0.85985 0.35211 0.0
C1411 C 0.47917 0.93469 0.32587 0.0
C1412 C 0.47184 0.94718 0.31717 0.0
C1413 C 0.50217 0.97547 0.3124 0.0
C1414 C 0.49757 0.98425 0.30364 0.0
C1415 C 0.46236 0.96497 0.29939 0.0
C1416 C 0.4315 0.93801 0.30438 0.0
C1417 C 0.4362 0.92907 0.31314 0.0
C1418 C 0.38801 0.87516 0.34902 0.0
C1419 C 0.43334 0.9699 0.3536 0.0
O1420 O 0.43382 0.87086 0.37374 0.0
O1421 O 0.46121 0.92968 0.3773 0.0
O1422 O 0.50613 0.93586 0.35333 0.0
O1423 O 0.51269 0.97186 0.36344 0.0
O1424 O 0.4723 0.86879 0.35994 0.0
O1425 O 0.47955 0.87698 0.34471 0.0
O1426 O 0.49608 0.95987 0.33209 0.0
O1427 O 0.45416 0.90181 0.32901 0.0
O1428 O 0.41728 0.87675 0.35216 0.0
O1429 O 0.39771 0.89957 0.34264 0.0
O1430 O 0.45831 0.97268 0.34769 0.0
O1431 O 0.42234 0.94407 0.35989 0.0
H1432 H 0.42435 0.82735 0.38811 0.0
H1433 H 0.44785 0.81465 0.40191 0.0
H1434 H 0.52667 0.93308 0.40462 0.0
H1435 H 0.50398 0.94546 0.39082 0.0
H1436 H 0.52998 0.98982 0.31532 0.0
H1437 H 0.52218 1.00491 0.30009 0.0
H1438 H 0.40369 0.92311 0.30148 0.0
H1439 H 0.41214 0.90726 0.31664 0.0
H1440 H 0.17304 0.16098 0.19882 0.0
H1441 H 0.16208 0.1717 0.17042 0.0
H1442 H 0.15087 0.10796 0.16815 0.0
H1443 H 0.22286 0.10808 0.19659 0.0
H1444 H 0.20056 0.07822 0.20606 0.0
H1445 H 0.2072 0.12498 0.20575 0.0
H1446 H 0.13587 0.09794 0.20827 0.0
H1447 H 0.12904 0.05112 0.20856 0.0
H1448 H 0.10274 0.06264 0.20082 0.0
H1449 H 0.14126 0.04503 0.16856 0.0
H1450 H 0.13566 0.98389 0.17158 0.0
H1451 H 0.15308 0.01 0.19972 0.0
C1452 C 0.16857 0.1498 0.19215 0.0
C1453 C 0.16903 0.17149 0.18477 0.0
C1454 C 0.1627 0.15596 0.17614 0.0
C1455 C 0.15598 0.11962 0.17478 0.0
C1456 C 0.15594 0.09902 0.18211 0.0
C1457 C 0.16235 0.11331 0.19062 0.0
C1458 C 0.16181 0.08475 0.1972 0.0
C1459 C 0.2004 0.09992 0.20166 0.0
C1460 C 0.13048 0.07345 0.20412 0.0
C1461 C 0.15351 0.0523 0.191 0.0
C1462 C 0.15037 0.06159 0.18234 0.0
C1463 C 0.14374 0.03734 0.1753 0.0
C1464 C 0.14077 1.0027 0.1771 0.0
C1465 C 0.14421 0.99229 0.18587 0.0
C1466 C 0.15016 0.01722 0.19296 0.0
H1467 H 1.01059 0.16026 0.17674 0.0
H1468 H 0.04072 0.14345 0.20337 0.0
H1469 H 0.97955 0.08672 0.20502 0.0
H1470 H 0.91204 0.12757 0.18179 0.0
H1471 H 0.89482 0.10408 0.17131 0.0
H1472 H 0.94126 0.14451 0.17203 0.0
H1473 H 0.97005 0.10615 0.16554 0.0
H1474 H 0.92371 0.0658 0.16467 0.0
H1475 H 0.95986 0.06254 0.17075 0.0
H1476 H 0.9159 0.03072 0.20395 0.0
H1477 H 0.85463 0.97707 0.19959 0.0
H1478 H 0.86336 0.02885 0.17397 0.0
C1479 C 1.00419 0.14471 0.18291 0.0
C1480 C 0.03054 0.15698 0.18995 0.0
C1481 C 0.02103 0.13543 0.1979 0.0
C1482 C 0.98621 0.10289 0.19894 0.0
C1483 C 0.96068 0.09191 0.192 0.0
C1484 C 0.96909 0.11193 0.18412 0.0
C1485 C 0.93639 0.0931 0.17768 0.0
C1486 C 0.92017 0.11885 0.17558 0.0
C1487 C 0.94822 0.08119 0.16916 0.0
C1488 C 0.90892 0.05926 0.18313 0.0
C1489 C 0.92343 0.05939 0.19141 0.0
C1490 C 0.90393 0.03052 0.19753 0.0
C1491 C 0.86889 1.00028 0.19506 0.0
C1492 C 0.85378 0.99905 0.18657 0.0
C1493 C 0.87395 0.02927 0.18059 0.0
H1494 H 1.014 0.87957 0.1734 0.0
H1495 H 0.02398 0.84265 0.19976 0.0
H1496 H 0.96294 0.83771 0.2039 0.0
H1497 H 0.97623 0.93621 0.17982 0.0
H1498 H 0.94562 0.92449 0.17033 0.0
H1499 H 0.98865 0.9231 0.16949 0.0
H1500 H 0.95126 0.85389 0.16429 0.0
H1501 H 0.90807 0.85509 0.1651 0.0
H1502 H 0.91321 0.81976 0.17104 0.0
H1503 H 0.9029 0.84196 0.20526 0.0
H1504 H 0.84842 0.85175 0.20366 0.0
H1505 H 0.87769 0.88331 0.17608 0.0
C1506 C 1.00325 0.86998 0.18003 0.0
C1507 C 0.0236 0.86134 0.18628 0.0
C1508 C 1.0086 0.84907 0.19488 0.0
C1509 C 0.97408 0.84633 0.19727 0.0
C1510 C 0.95496 0.85553 0.19093 0.0
C1511 C 0.96899 0.86678 0.18246 0.0
C1512 C 0.94389 0.87597 0.17689 0.0
C1513 C 0.96485 0.91739 0.17396 0.0
C1514 C 0.92817 0.84959 0.16885 0.0
C1515 C 0.91335 0.86842 0.18353 0.0
C1516 C 0.92028 0.85687 0.19162 0.0
C1517 C 0.89704 0.85045 0.19892 0.0
C1518 C 0.8662 0.85617 0.19795 0.0
C1519 C 0.85856 0.86782 0.18971 0.0
C1520 C 0.8823 0.87358 0.1824 0.0
H1521 H 0.15016 0.12949 0.34601 0.0
H1522 H 0.20407 0.2211 0.36475 0.0
H1523 H 0.14774 0.22795 0.36488 0.0
H1524 H 0.09436 0.16618 0.33381 0.0
H1525 H 0.05407 0.1199 0.3327 0.0
H1526 H 0.10071 0.12596 0.3329 0.0
H1527 H 0.081 0.07881 0.34595 0.0
H1528 H 0.03458 0.07314 0.34592 0.0
H1529 H 0.06229 0.08736 0.35594 0.0
H1530 H 0.08418 0.22003 0.36468 0.0
H1531 H 0.01717 0.20075 0.36326 0.0
H1532 H 1.0021 0.11384 0.34464 0.0
C1533 C 0.15049 0.15194 0.34983 0.0
C1534 C 0.18168 0.1754 0.35524 0.0
C1535 C 0.18064 0.20334 0.36047 0.0
C1536 C 0.14874 0.20736 0.3606 0.0
C1537 C 0.11788 0.18304 0.35549 0.0
C1538 C 0.11843 0.15611 0.3501 0.0
C1539 C 0.08009 0.13172 0.34587 0.0
C1540 C 0.08246 0.13623 0.33571 0.0
C1541 C 0.06352 0.09032 0.34858 0.0
C1542 C 0.05796 0.1487 0.3499 0.0
C1543 C 0.0805 0.17835 0.35539 0.0
C1544 C 0.06633 0.19731 0.36027 0.0
C1545 C 0.02814 0.18601 0.35945 0.0
C1546 C 1.0044 0.15607 0.35378 0.0
C1547 C 0.01966 0.13727 0.34892 0.0
H1548 H 0.87015 0.86019 0.36458 0.0
H1549 H 0.8789 0.85565 0.33588 0.0
H1550 H 0.8752 0.9128 0.3343 0.0
H1551 H 0.8036 0.89835 0.36348 0.0
H1552 H 0.82381 0.92741 0.37313 0.0
H1553 H 0.82354 0.88354 0.37218 0.0
H1554 H 0.89575 0.91823 0.37434 0.0
H1555 H 0.89629 0.9621 0.37531 0.0
H1556 H 0.92524 0.95685 0.36709 0.0
H1557 H 0.87357 0.972 0.33553 0.0
H1558 H 0.87648 0.03139 0.33988 0.0
H1559 H 0.87117 1.00055 0.36761 0.0
C1560 C 0.8703 0.87071 0.35797 0.0
C1561 C 0.87474 0.85303 0.35039 0.0
C1562 C 0.8755 0.8683 0.34185 0.0
C1563 C 0.8733 0.9009 0.34083 0.0
C1564 C 0.86971 0.91803 0.34839 0.0
C1565 C 0.86788 0.90349 0.3568 0.0
C1566 C 0.86526 0.92865 0.36378 0.0
C1567 C 0.82678 0.90828 0.36842 0.0
C1568 C 0.89759 0.94227 0.37052 0.0
C1569 C 0.8686 0.96056 0.358 0.0
C1570 C 0.86986 0.95318 0.34912 0.0
C1571 C 0.87249 0.97813 0.34247 0.0
C1572 C 0.87421 0.0118 0.34498 0.0
C1573 C 0.87457 0.02066 0.35404 0.0
C1574 C 0.87135 0.99453 0.36061 0.0
H1575 H 0.03464 0.85011 0.34677 0.0
H1576 H 0.95665 0.88767 0.35418 0.0
H1577 H 1.00764 0.95283 0.35404 0.0
H1578 H 0.10827 0.90815 0.35906 0.0
H1579 H 0.14597 0.92132 0.35121 0.0
H1580 H 0.10296 0.87739 0.34997 0.0
H1581 H 0.09406 0.89521 0.33402 0.0
H1582 H 0.13787 0.93873 0.33506 0.0
H1583 H 0.09557 0.93923 0.33208 0.0
H1584 H 0.0668 0.00985 0.35712 0.0
H1585 H 0.1319 0.06231 0.35852 0.0
H1586 H 0.1737 0.99298 0.34735 0.0
C1587 C 0.02811 0.8723 0.3478 0.0
C1588 C 0.99167 0.86391 0.35044 0.0
C1589 C 0.98425 0.89353 0.35204 0.0
C1590 C 1.01314 0.93072 0.35208 0.0
C1591 C 0.04926 0.93808 0.35018 0.0
C1592 C 0.05685 0.91023 0.34761 0.0
C1593 C 0.09886 0.9267 0.34612 0.0
C1594 C 0.11493 0.90721 0.35194 0.0
C1595 C 0.10708 0.92486 0.33623 0.0
C1596 C 0.11343 0.96704 0.34902 0.0
C1597 C 0.08411 0.97269 0.35136 0.0
C1598 C 0.09005 1.00628 0.35504 0.0
C1599 C 0.12701 0.03564 0.35595 0.0
C1600 C 0.15738 0.03132 0.3531 0.0
C1601 C 0.15068 0.99665 0.3496 0.0
H1602 H 0.84235 0.85605 0.86291 0.0
H1603 H 0.89335 0.85083 0.83825 0.0
H1604 H 0.90148 0.91221 0.83377 0.0
H1605 H 0.79452 0.90617 0.85395 0.0
H1606 H 0.80374 0.93379 0.86387 0.0
H1607 H 0.79742 0.88721 0.86454 0.0
H1608 H 0.86196 0.9141 0.87238 0.0
H1609 H 0.86872 0.96076 0.87162 0.0
H1610 H 0.90337 0.95079 0.86704 0.0
H1611 H 0.90952 0.97655 0.83265 0.0
H1612 H 0.91508 0.03848 0.83457 0.0
H1613 H 0.86011 1.00365 0.86026 0.0
C1614 C 0.8543 0.86743 0.85646 0.0
C1615 C 0.8662 0.84805 0.85076 0.0
C1616 C 0.88257 0.86426 0.8425 0.0
C1617 C 0.88774 0.89943 0.83998 0.0
C1618 C 0.8763 0.91809 0.84581 0.0
C1619 C 0.85959 0.90255 0.85386 0.0
C1620 C 0.85183 0.92944 0.85912 0.0
C1621 C 0.80935 0.91318 0.86045 0.0
C1622 C 0.87273 0.93936 0.86807 0.0
C1623 C 0.8679 0.963 0.8529 0.0
C1624 C 0.8815 0.95562 0.84523 0.0
C1625 C 0.89857 0.98247 0.83858 0.0
C1626 C 0.90163 0.01769 0.83976 0.0
C1627 C 0.88791 0.02609 0.84756 0.0
C1628 C 0.87078 0.99818 0.85421 0.0
H1629 H 0.14742 1.00555 0.86376 0.0
H1630 H 0.18107 0.02381 0.8361 0.0
H1631 H 0.12582 0.96225 0.83231 0.0
H1632 H 0.11255 0.90215 0.86333 0.0
H1633 H 0.07557 0.89257 0.87114 0.0
H1634 H 0.11932 0.93638 0.87165 0.0
H1635 H 0.08272 0.97248 0.87044 0.0
H1636 H 0.039 0.92891 0.86982 0.0
H1637 H 0.05154 0.96356 0.86117 0.0
H1638 H 0.06382 0.90253 0.83146 0.0
H1639 H 1.00148 0.84708 0.83341 0.0
H1640 H 1.00891 0.86554 0.86191 0.0
C1641 C 0.14347 0.99629 0.85691 0.0
C1642 C 0.16824 0.01948 0.85017 0.0
C1643 C 0.16242 1.00645 0.84133 0.0
C1644 C 0.13115 0.97154 0.83915 0.0
C1645 C 0.10681 0.94969 0.84594 0.0
C1646 C 0.11307 0.96121 0.85468 0.0
C1647 C 0.0824 0.93275 0.86072 0.0
C1648 C 0.09842 0.91491 0.86709 0.0
C1649 C 0.06275 0.9505 0.86583 0.0
C1650 C 0.05647 0.90442 0.85395 0.0
C1651 C 0.07149 0.91457 0.84549 0.0
C1652 C 0.05215 0.89403 0.83806 0.0
C1653 C 0.01655 0.86254 0.83927 0.0
C1654 C 1.00015 0.85165 0.84784 0.0
C1655 C 0.02081 0.87266 0.8553 0.0
H1656 H 0.02396 0.15574 0.86406 0.0
H1657 H 1.0024 0.16941 0.83651 0.0
H1658 H 0.06301 0.17379 0.83229 0.0
H1659 H 0.12697 0.21927 0.8635 0.0
H1660 H 0.13496 0.18974 0.87101 0.0
H1661 H 0.09221 0.19185 0.87177 0.0
H1662 H 0.05331 0.11954 0.87012 0.0
H1663 H 0.09582 0.11726 0.86926 0.0
H1664 H 0.0609 0.09762 0.86061 0.0
H1665 H 0.12194 0.16838 0.8311 0.0
H1666 H 0.17614 0.15847 0.83296 0.0
H1667 H 0.1597 0.15085 0.8615 0.0
C1668 C 0.0324 0.16061 0.85715 0.0
C1669 C 1.0087 0.16241 0.85059 0.0
C1670 C 0.02045 0.16845 0.84163 0.0
C1671 C 0.0547 0.17079 0.83919 0.0
C1672 C 0.07693 0.16779 0.84584 0.0
C1673 C 0.06645 0.16347 0.85466 0.0
C1674 C 0.09408 0.15916 0.86053 0.0
C1675 C 0.11319 0.19197 0.86709 0.0
C1676 C 0.07487 0.12114 0.86541 0.0
C1677 C 0.12154 0.16079 0.85362 0.0
C1678 C 0.11119 0.16576 0.84519 0.0
C1679 C 0.13069 0.1653 0.83768 0.0
C1680 C 0.1614 0.15956 0.83881 0.0
C1681 C 0.1725 0.1545 0.8474 0.0
C1682 C 0.15251 0.15562 0.85489 0.0
H1683 H 0.87677 0.88239 0.69319 0.0
H1684 H 0.832 0.80943 0.67027 0.0
H1685 H 0.88868 0.80387 0.66954 0.0
H1686 H 0.96926 0.93269 0.68641 0.0
H1687 H 0.99136 0.93474 0.69691 0.0
H1688 H 0.9452 0.9297 0.69665 0.0
H1689 H 0.91891 0.86939 0.7062 0.0
H1690 H 0.96522 0.87462 0.70664 0.0
H1691 H 0.92604 0.83154 0.70266 0.0
H1692 H 0.95288 0.81393 0.66949 0.0
H1693 H 0.01909 0.8312 0.67174 0.0
H1694 H 0.02368 0.89415 0.69527 0.0
C1695 C 0.87843 0.86414 0.68826 0.0
C1696 C 0.84986 0.8463 0.68178 0.0
C1697 C 0.85347 0.8234 0.67529 0.0
C1698 C 0.88564 0.82005 0.6748 0.0
C1699 C 0.91408 0.83925 0.68095 0.0
C1700 C 0.91062 0.86002 0.68773 0.0
C1701 C 0.94648 0.87853 0.69326 0.0
C1702 C 0.96411 0.92146 0.69331 0.0
C1703 C 0.93869 0.86257 0.70276 0.0
C1704 C 0.97086 0.86644 0.68821 0.0
C1705 C 0.95136 0.8437 0.68116 0.0
C1706 C 0.96825 0.83092 0.67514 0.0
C1707 C 1.00597 0.84106 0.67643 0.0
C1708 C 0.02647 0.86351 0.68374 0.0
C1709 C 1.00852 0.87629 0.68972 0.0
H1710 H 0.16056 0.1501 0.69627 0.0
H1711 H 0.14967 0.16513 0.66811 0.0
H1712 H 0.15224 0.10753 0.66492 0.0
H1713 H 0.22744 0.11667 0.69349 0.0
H1714 H 0.2088 0.08419 0.70266 0.0
H1715 H 0.20578 0.12645 0.70273 0.0
H1716 H 0.1337 0.08682 0.70487 0.0
H1717 H 0.1364 0.04441 0.70476 0.0
H1718 H 0.10595 0.05017 0.69705 0.0
H1719 H 0.15471 0.04848 0.66476 0.0
H1720 H 0.16097 0.99273 0.66741 0.0
H1721 H 0.17173 0.01515 0.69571 0.0
C1722 C 0.15913 0.14137 0.68943 0.0
C1723 C 0.15535 0.1622 0.6824 0.0
C1724 C 0.15339 0.14999 0.67355 0.0
C1725 C 0.15445 0.11714 0.6717 0.0
C1726 C 0.1581 0.09718 0.67876 0.0
C1727 C 0.16091 0.10898 0.68744 0.0
C1728 C 0.1659 0.08285 0.69375 0.0
C1729 C 0.20425 0.10378 0.69844 0.0
C1730 C 0.13355 0.065 0.70051 0.0
C1731 C 0.16459 0.054 0.68727 0.0
C1732 C 0.16013 0.06305 0.67866 0.0
C1733 C 0.15855 0.04128 0.67145 0.0
C1734 C 0.16229 0.00976 0.67303 0.0
C1735 C 0.16737 1.00002 0.68174 0.0
C1736 C 0.16804 0.02214 0.68899 0.0
H1737 H 0.85732 0.0254 0.69053 0.0
H1738 H 0.89328 0.9552 0.67725 0.0
H1739 H 0.95857 1.00791 0.677 0.0
H1740 H 0.91715 0.10966 0.67793 0.0
H1741 H 0.92693 0.14091 0.68719 0.0
H1742 H 0.88344 0.09696 0.6868 0.0
H1743 H 0.89847 0.07971 0.70223 0.0
H1744 H 0.94252 0.12327 0.70255 0.0
H1745 H 0.9418 0.07932 0.70384 0.0
H1746 H 0.01876 0.0657 0.67837 0.0
H1747 H 0.07031 0.13085 0.67801 0.0
H1748 H 0.99751 0.16811 0.68944 0.0
C1749 C 0.87902 0.02165 0.68743 0.0
C1750 C 0.87055 0.98668 0.68375 0.0
C1751 C 0.89937 0.98214 0.67991 0.0
C1752 C 0.93652 0.01168 0.67987 0.0
C1753 C 0.94428 0.04566 0.68366 0.0
C1754 C 0.91641 0.05133 0.68716 0.0
C1755 C 0.9326 0.09179 0.6902 0.0
C1756 C 0.91393 0.11097 0.68523 0.0
C1757 C 0.9286 0.09362 0.7003 0.0
C1758 C 0.97366 0.10815 0.68755 0.0
C1759 C 0.97962 0.08036 0.68411 0.0
C1760 C 1.01452 0.08776 0.68101 0.0
C1761 C 0.04369 0.12489 0.68088 0.0
C1762 C 0.03792 0.15442 0.68371 0.0
C1763 C 1.00283 0.14594 0.68741 0.0
H1764 H 0.82989 0.34256 0.50938 0.0
H1765 H 0.80299 0.318 0.53737 0.0
H1766 H 0.81126 0.38081 0.53957 0.0
H1767 H 0.90027 0.44261 0.5123 0.0
H1768 H 0.88589 0.45694 0.50242 0.0
H1769 H 0.88099 0.41091 0.50305 0.0
H1770 H 0.80997 0.38052 0.49947 0.0
H1771 H 0.81478 0.42638 0.49872 0.0
H1772 H 0.78079 0.39193 0.50621 0.0
H1773 H 0.82035 0.44591 0.5388 0.0
H1774 H 0.82339 0.50575 0.53455 0.0
H1775 H 0.84204 0.4874 0.50717 0.0
C1776 C 0.82629 0.35062 0.51599 0.0
C1777 C 0.81612 0.32527 0.5232 0.0
C1778 C 0.81101 0.3368 0.53171 0.0
C1779 C 0.8158 0.3726 0.53307 0.0
C1780 C 0.82582 0.39691 0.52586 0.0
C1781 C 0.83079 0.38639 0.51747 0.0
C1782 C 0.83922 0.41716 0.51076 0.0
C1783 C 0.87895 0.43283 0.5069 0.0
C1784 C 0.8094 0.40315 0.50336 0.0
C1785 C 0.83693 0.44586 0.51664 0.0
C1786 C 0.83009 0.43409 0.52537 0.0
C1787 C 0.82605 0.45563 0.53199 0.0
C1788 C 0.82807 0.48966 0.52956 0.0
C1789 C 0.83322 0.50118 0.52058 0.0
C1790 C 0.8384 0.47931 0.51411 0.0
H1791 H 0.54955 0.34192 0.50682 0.0
H1792 H 0.51392 0.32668 0.53435 0.0
H1793 H 0.56978 0.38805 0.53802 0.0
H1794 H 0.64462 0.381 0.51011 0.0
H1795 H 0.65889 0.41441 0.50113 0.0
H1796 H 0.61454 0.3715 0.50059 0.0
H1797 H 0.57997 0.40921 0.49836 0.0
H1798 H 0.62435 0.45236 0.49881 0.0
H1799 H 0.5869 0.44496 0.50626 0.0
H1800 H 0.63317 0.44638 0.53883 0.0
H1801 H 0.69712 0.49978 0.53678 0.0
H1802 H 0.68932 0.47875 0.50842 0.0
C1803 C 0.55318 0.35169 0.51362 0.0
C1804 C 0.52785 0.32949 0.52037 0.0
C1805 C 0.53322 0.34328 0.52913 0.0
C1806 C 0.56474 0.37806 0.53125 0.0
C1807 C 0.5897 0.39885 0.52444 0.0
C1808 C 0.58381 0.38647 0.51577 0.0
C1809 C 0.61527 0.41335 0.50971 0.0
C1810 C 0.63446 0.39389 0.50512 0.0
C1811 C 0.60075 0.43102 0.50288 0.0
C1812 C 0.64097 0.44204 0.5164 0.0
C1813 C 0.62552 0.43328 0.52485 0.0
C1814 C 0.64517 0.45391 0.53224 0.0
C1815 C 0.68157 0.48405 0.531 0.0
C1816 C 0.698 0.49344 0.52242 0.0
C1817 C 0.67715 0.47256 0.51501 0.0
H1818 H 0.54284 0.21229 0.50777 0.0
H1819 H 0.5089 0.17572 0.53492 0.0
H1820 H 0.56282 0.16548 0.53679 0.0
H1821 H 0.5804 0.1487 0.50283 0.0
H1822 H 0.61915 0.18398 0.49646 0.0
H1823 H 0.57526 0.18399 0.49687 0.0
H1824 H 0.61025 0.25271 0.50243 0.0
H1825 H 0.65416 0.2529 0.50206 0.0
H1826 H 0.63914 0.26437 0.51224 0.0
H1827 H 0.62321 0.16333 0.53611 0.0
H1828 H 0.68626 0.17147 0.53286 0.0
H1829 H 0.68148 0.21143 0.50646 0.0
C1830 C 0.54615 0.20095 0.514 0.0
C1831 C 0.5214 0.19418 0.52115 0.0
C1832 C 0.52739 0.18072 0.52932 0.0
C1833 C 0.55792 0.17478 0.53046 0.0
C1834 C 0.58241 0.18253 0.52337 0.0
C1835 C 0.57689 0.1953 0.51529 0.0
C1836 C 0.60903 0.20437 0.50899 0.0
C1837 C 0.59512 0.17872 0.5008 0.0
C1838 C 0.62934 0.24606 0.50628 0.0
C1839 C 0.63362 0.19537 0.51484 0.0
C1840 C 0.61765 0.18231 0.52307 0.0
C1841 C 0.63586 0.17314 0.52965 0.0
C1842 C 0.67152 0.17771 0.52776 0.0
C1843 C 0.68857 0.19188 0.51943 0.0
C1844 C 0.66909 0.20042 0.5129 0.0
H1845 H 0.83508 0.5059 0.67507 0.0
H1846 H 0.83966 0.47315 0.70226 0.0
H1847 H 0.7751 0.46039 0.70479 0.0
H1848 H 0.78169 0.55289 0.68024 0.0
H1849 H 0.75403 0.53816 0.67022 0.0
H1850 H 0.80075 0.54448 0.6703 0.0
H1851 H 0.77448 0.4764 0.66475 0.0
H1852 H 0.72767 0.46986 0.66466 0.0
H1853 H 0.73742 0.43816 0.6709 0.0
H1854 H 0.71224 0.45276 0.70476 0.0
H1855 H 0.65165 0.44982 0.70211 0.0
H1856 H 0.68433 0.48614 0.67487 0.0
C1857 C 0.82235 0.49629 0.68155 0.0
C1858 C 0.84232 0.49101 0.68854 0.0
C1859 C 0.82494 0.47805 0.6969 0.0
C1860 C 0.78826 0.47051 0.69839 0.0
C1861 C 0.76931 0.47626 0.69144 0.0
C1862 C 0.78552 0.48896 0.68319 0.0
C1863 C 0.75854 0.49339 0.67702 0.0
C1864 C 0.77472 0.53468 0.67429 0.0
C1865 C 0.74896 0.46791 0.66885 0.0
C1866 C 0.72466 0.48052 0.68308 0.0
C1867 C 0.73192 0.47114 0.69138 0.0
C1868 C 0.70606 0.45988 0.69829 0.0
C1869 C 0.67182 0.45843 0.69673 0.0
C1870 C 0.66343 0.46767 0.6883 0.0
C1871 C 0.69001 0.47852 0.68134 0.0
H1872 H 0.53689 0.19568 0.69743 0.0
H1873 H 0.56443 0.20288 0.66934 0.0
H1874 H 0.55484 0.25653 0.66766 0.0
H1875 H 0.46495 0.22454 0.69473 0.0
H1876 H 0.47824 0.25166 0.70481 0.0
H1877 H 0.48398 0.21107 0.7039 0.0
H1878 H 0.55468 0.25165 0.70778 0.0
H1879 H 0.54903 0.29215 0.70882 0.0
H1880 H 0.58383 0.29325 0.70133 0.0
H1881 H 0.544 0.31066 0.66876 0.0
H1882 H 0.53968 0.36626 0.67332 0.0
H1883 H 0.52234 0.32721 0.70058 0.0
C1884 C 0.54042 0.20824 0.69092 0.0
C1885 C 0.55119 0.19451 0.68355 0.0
C1886 C 0.55603 0.21235 0.67515 0.0
C1887 C 0.55044 0.24294 0.67406 0.0
C1888 C 0.5398 0.25571 0.6814 0.0
C1889 C 0.53507 0.23925 0.68969 0.0
C1890 C 0.52579 0.26031 0.69655 0.0
C1891 C 0.48587 0.23541 0.70022 0.0
C1892 C 0.5551 0.27524 0.70406 0.0
C1893 C 0.52786 0.29192 0.69088 0.0
C1894 C 0.5348 0.28804 0.6821 0.0
C1895 C 0.53831 0.31396 0.67561 0.0
C1896 C 0.53566 0.34532 0.67822 0.0
C1897 C 0.53065 0.35082 0.68725 0.0
C1898 C 0.526 0.32343 0.69361 0.0
H1899 H 0.80246 0.35406 0.67493 0.0
H1900 H 0.87011 0.34224 0.69552 0.0
H1901 H 0.82214 0.27578 0.69733 0.0
H1902 H 0.71467 0.29801 0.6856 0.0
H1903 H 0.68862 0.27696 0.67557 0.0
H1904 H 0.72996 0.32271 0.67516 0.0
H1905 H 0.75843 0.29906 0.66321 0.0
H1906 H 0.71731 0.25299 0.66368 0.0
H1907 H 0.76327 0.25862 0.66551 0.0
H1908 H 0.76747 0.21224 0.69745 0.0
H1909 H 0.70438 0.15665 0.69752 0.0
H1910 H 0.66805 0.20743 0.6774 0.0
C1911 C 0.80741 0.33725 0.67971 0.0
C1912 C 0.84045 0.35337 0.68501 0.0
C1913 C 0.84534 0.33065 0.69134 0.0
C1914 C 0.8183 0.29272 0.69238 0.0
C1915 C 0.78624 0.27768 0.68707 0.0
C1916 C 0.78026 0.29918 0.68094 0.0
C1917 C 0.74161 0.27641 0.67666 0.0
C1918 C 0.71728 0.29461 0.67836 0.0
C1919 C 0.74538 0.27148 0.66667 0.0
C1920 C 0.72644 0.23917 0.68157 0.0
C1921 C 0.75335 0.24056 0.68736 0.0
C1922 C 0.74628 0.21067 0.69291 0.0
C1923 C 0.71035 0.17908 0.69286 0.0
C1924 C 0.6815 0.1774 0.68738 0.0
C1925 C 0.68989 0.20745 0.68145 0.0
H1926 H 0.55663 0.20355 0.17626 0.0
H1927 H 0.4852 0.16074 0.19953 0.0
H1928 H 0.47839 0.21669 0.19983 0.0
H1929 H 0.60662 0.29581 0.18238 0.0
H1930 H 0.60801 0.31707 0.1718 0.0
H1931 H 0.60292 0.27102 0.17223 0.0
H1932 H 0.54184 0.24412 0.16294 0.0
H1933 H 0.54715 0.29034 0.16232 0.0
H1934 H 0.50423 0.25161 0.16656 0.0
H1935 H 0.48759 0.28044 0.19944 0.0
H1936 H 0.50525 0.34642 0.197 0.0
H1937 H 0.56852 0.34991 0.17356 0.0
C1938 C 0.53832 0.20539 0.18116 0.0
C1939 C 0.52127 0.17764 0.18786 0.0
C1940 C 0.49842 0.18153 0.19433 0.0
C1941 C 0.49438 0.2133 0.19457 0.0
C1942 C 0.51294 0.24106 0.18821 0.0
C1943 C 0.53365 0.23723 0.18146 0.0
C1944 C 0.55193 0.27262 0.17576 0.0
C1945 C 0.59492 0.29016 0.17554 0.0
C1946 C 0.53531 0.26416 0.16633 0.0
C1947 C 0.5402 0.29738 0.18073 0.0
C1948 C 0.51736 0.27827 0.18783 0.0
C1949 C 0.50469 0.29549 0.19377 0.0
C1950 C 0.51509 0.33314 0.19236 0.0
C1951 C 0.53794 0.35341 0.18504 0.0
C1952 C 0.55054 0.33509 0.17914 0.0
H1953 H 0.82601 0.33132 0.19905 0.0
H1954 H 0.8519 0.3614 0.17131 0.0
H1955 H 0.79346 0.30359 0.16701 0.0
H1956 H 0.78397 0.2273 0.19529 0.0
H1957 H 0.75003 0.21618 0.20403 0.0
H1958 H 0.79568 0.25776 0.20478 0.0
H1959 H 0.76362 0.29797 0.20674 0.0
H1960 H 0.71802 0.2567 0.20586 0.0
H1961 H 0.73082 0.29578 0.19845 0.0
H1962 H 0.72936 0.24755 0.16596 0.0
H1963 H 0.66603 0.19391 0.16781 0.0
H1964 H 0.68207 0.19749 0.1964 0.0
C1965 C 0.81979 0.32518 0.19206 0.0
C1966 C 0.84328 0.35067 0.18548 0.0
C1967 C 0.83436 0.34202 0.17642 0.0
C1968 C 0.80124 0.30932 0.17394 0.0
C1969 C 0.77816 0.28521 0.18062 0.0
C1970 C 0.78745 0.29223 0.18949 0.0
C1971 C 0.75736 0.2622 0.19536 0.0
C1972 C 0.77268 0.23952 0.20015 0.0
C1973 C 0.74152 0.2792 0.20199 0.0
C1974 C 0.72844 0.23843 0.18845 0.0
C1975 C 0.74138 0.25205 0.17999 0.0
C1976 C 0.71927 0.23626 0.17252 0.0
C1977 C 0.68308 0.20578 0.17369 0.0
C1978 C 0.66887 0.19121 0.18228 0.0
C1979 C 0.69219 0.20757 0.18976 0.0
H1980 H 0.82693 0.49033 0.17284 0.0
H1981 H 0.82265 0.44972 0.19968 0.0
H1982 H 0.76395 0.45067 0.20242 0.0
H1983 H 0.79455 0.55466 0.17897 0.0
H1984 H 0.76787 0.54779 0.16894 0.0
H1985 H 0.80867 0.54211 0.16881 0.0
H1986 H 0.76839 0.47493 0.16256 0.0
H1987 H 0.72748 0.48041 0.16267 0.0
H1988 H 0.7267 0.44154 0.16844 0.0
H1989 H 0.70742 0.45673 0.20252 0.0
H1990 H 0.65507 0.46899 0.20007 0.0
H1991 H 0.69481 0.50754 0.17332 0.0
C1992 C 0.81333 0.48146 0.17925 0.0
C1993 C 0.82911 0.46996 0.18607 0.0
C1994 C 0.81105 0.45894 0.19442 0.0
C1995 C 0.77767 0.45922 0.19602 0.0
C1996 C 0.76299 0.47116 0.18924 0.0
C1997 C 0.78019 0.48236 0.18104 0.0
C1998 C 0.75913 0.49575 0.17513 0.0
C1999 C 0.78404 0.53756 0.17283 0.0
C2000 C 0.74455 0.4717 0.1667 0.0
C2001 C 0.72711 0.48955 0.18125 0.0
C2002 C 0.7302 0.47545 0.18936 0.0
C2003 C 0.70471 0.46791 0.19622 0.0
C2004 C 0.67526 0.47511 0.19479 0.0
C2005 C 0.67143 0.48958 0.18657 0.0
C2006 C 0.69746 0.49668 0.17967 0.0
H2007 H 0.6872 0.22581 0.02715 0.0
H2008 H 0.69357 0.18613 1.00081 0.0
H2009 H 0.62929 0.17213 0.99775 0.0
H2010 H 0.58709 0.15698 0.03092 0.0
H2011 H 0.57729 0.18983 0.03653 0.0
H2012 H 0.62361 0.19517 0.03714 0.0
H2013 H 0.65265 0.26295 0.03108 0.0
H2014 H 0.60652 0.25793 0.03052 0.0
H2015 H 0.63571 0.27123 0.02074 0.0
H2016 H 0.56605 0.16197 0.99721 0.0
H2017 H 0.50734 0.16319 0.99836 0.0
H2018 H 0.53884 0.21205 0.02471 0.0
C2019 C 0.67491 0.21393 0.02077 0.0
C2020 C 0.69558 0.2068 1.01425 0.0
C2021 C 0.67857 0.19171 1.00595 0.0
C2022 C 0.64186 0.18344 1.00414 0.0
C2023 C 0.62225 0.19042 1.01068 0.0
C2024 C 0.638 0.20568 1.01879 0.0
C2025 C 0.61059 0.21186 0.02439 0.0
C2026 C 0.59896 0.18699 0.03274 0.0
C2027 C 0.62737 0.25348 0.02682 0.0
C2028 C 0.57767 0.19893 1.01797 0.0
C2029 C 0.5851 0.18581 1.01022 0.0
C2030 C 0.55986 0.17227 1.00321 0.0
C2031 C 0.52648 0.17312 1.00396 0.0
C2032 C 0.51848 0.18796 1.01159 0.0
C2033 C 0.5441 0.20037 1.01881 0.0
H2034 H 0.80202 0.32362 0.02324 0.0
H2035 H 0.89371 0.36076 1.00443 0.0
H2036 H 0.89975 0.42345 1.00391 0.0
H2037 H 0.75869 0.36757 1.01306 0.0
H2038 H 0.74455 0.38155 0.023 0.0
H2039 H 0.75078 0.34122 0.02321 0.0
H2040 H 0.79854 0.37001 0.0361 0.0
H2041 H 0.79177 0.4101 0.03607 0.0
H2042 H 0.83837 0.41661 0.03493 0.0
H2043 H 0.89047 0.47862 1.00368 0.0
H2044 H 0.87083 0.5262 1.00516 0.0
H2045 H 0.78509 0.45434 0.02411 0.0
C2046 C 0.82435 0.34553 0.01933 0.0
C2047 C 0.8479 0.33774 1.01398 0.0
C2048 C 0.8758 0.36649 1.00865 0.0
C2049 C 0.87934 0.40211 1.00828 0.0
C2050 C 0.85468 0.40859 1.01328 0.0
C2051 C 0.8281 0.38143 1.01883 0.0
C2052 C 0.80344 0.39518 0.02298 0.0
C2053 C 0.76192 0.36987 0.02041 0.0
C2054 C 0.80834 0.39815 0.03312 0.0
C2055 C 0.81984 0.4337 1.01872 0.0
C2056 C 0.84937 0.44084 1.01316 0.0
C2057 C 0.8678 0.47371 1.00814 0.0
C2058 C 0.85629 0.50047 1.00897 0.0
C2059 C 0.82671 0.49424 1.0148 0.0
C2060 C 0.80818 0.46023 0.01968 0.0
H2061 H 0.54713 0.34122 0.02778 0.0
H2062 H 0.52207 0.31641 0.99977 0.0
H2063 H 0.57907 0.37562 0.9959 0.0
H2064 H 0.58287 0.44278 0.02531 0.0
H2065 H 0.61859 0.45579 0.0337 0.0
H2066 H 0.57558 0.41135 0.03443 0.0
H2067 H 0.614 0.3771 0.03515 0.0
H2068 H 0.65712 0.42136 0.03436 0.0
H2069 H 0.6473 0.38469 0.02647 0.0
H2070 H 0.63776 0.43415 0.99486 0.0
H2071 H 0.69538 0.49392 0.99627 0.0
H2072 H 0.68596 0.48633 0.02508 0.0
C2073 C 0.55365 0.34852 0.02084 0.0
C2074 C 0.5301 0.32422 1.01404 0.0
C2075 C 0.53935 0.3347 1.00506 0.0
C2076 C 0.57182 0.36818 1.0028 0.0
C2077 C 0.5945 0.39129 1.00961 0.0
C2078 C 0.58582 0.38247 1.01845 0.0
C2079 C 0.61507 0.41345 0.02436 0.0
C2080 C 0.59695 0.43194 0.02977 0.0
C2081 C 0.63453 0.39823 0.03044 0.0
C2082 C 0.6421 0.44049 1.01741 0.0
C2083 C 0.62909 0.42666 1.00899 0.0
C2084 C 0.64809 0.44551 1.0014 0.0
C2085 C 0.68102 0.47976 1.00232 0.0
C2086 C 0.69543 0.49545 1.0108 0.0
C2087 C 0.67576 0.47529 1.01852 0.0
H2088 H 0.46945 0.80082 0.84072 0.0
H2089 H 0.50881 0.84905 0.8668 0.0
H2090 H 0.51571 0.79418 0.87092 0.0
H2091 H 0.41602 0.70591 0.84721 0.0
H2092 H 0.42868 0.68804 0.8377 0.0
H2093 H 0.42812 0.73142 0.83685 0.0
H2094 H 0.49738 0.76537 0.83152 0.0
H2095 H 0.49813 0.72201 0.83235 0.0
H2096 H 0.53261 0.763 0.83821 0.0
H2097 H 0.51449 0.73166 0.87231 0.0
H2098 H 0.50693 0.66846 0.8709 0.0
H2099 H 0.47103 0.66292 0.84356 0.0
C2100 C 0.47973 0.80004 0.8473 0.0
C2101 C 0.4884 0.82915 0.85348 0.0
C2102 C 0.50192 0.82706 0.86199 0.0
C2103 C 0.50597 0.79603 0.86436 0.0
C2104 C 0.49694 0.76772 0.85809 0.0
C2105 C 0.48442 0.76972 0.8497 0.0
C2106 C 0.47635 0.73572 0.84417 0.0
C2107 C 0.43483 0.71399 0.84132 0.0
C2108 C 0.50269 0.74722 0.83609 0.0
C2109 C 0.48537 0.71357 0.85081 0.0
C2110 C 0.4973 0.73254 0.85879 0.0
C2111 C 0.50559 0.71687 0.86606 0.0
C2112 C 0.50116 0.68086 0.86519 0.0
C2113 C 0.48872 0.66075 0.85709 0.0
C2114 C 0.48127 0.67775 0.84978 0.0
H2115 H 0.21244 0.68087 0.83882 0.0
H2116 H 0.17627 0.65808 0.86628 0.0
H2117 H 0.23193 0.71835 0.87069 0.0
H2118 H 0.3092 0.7221 0.84211 0.0
H2119 H 0.32232 0.75763 0.83365 0.0
H2120 H 0.27887 0.71394 0.8327 0.0
H2121 H 0.24213 0.74999 0.83149 0.0
H2122 H 0.28562 0.79386 0.83242 0.0
H2123 H 0.24766 0.78301 0.84002 0.0
H2124 H 0.29436 0.77828 0.8721 0.0
H2125 H 0.35697 0.83432 0.87054 0.0
H2126 H 0.35082 0.82027 0.84194 0.0
C2127 C 0.21598 0.68874 0.84576 0.0
C2128 C 0.19022 0.66468 0.85225 0.0
C2129 C 0.19569 0.67604 0.86123 0.0
C2130 C 0.22718 0.71023 0.86377 0.0
C2131 C 0.25228 0.7331 0.8572 0.0
C2132 C 0.24666 0.72306 0.84836 0.0
C2133 C 0.27785 0.75243 0.84259 0.0
C2134 C 0.29827 0.73551 0.83747 0.0
C2135 C 0.26239 0.77091 0.83625 0.0
C2136 C 0.30295 0.77992 0.8496 0.0
C2137 C 0.28748 0.76833 0.85798 0.0
C2138 C 0.30634 0.78788 0.86557 0.0
C2139 C 0.34197 0.81972 0.8646 0.0
C2140 C 0.35864 0.83201 0.8561 0.0
C2141 C 0.33847 0.81212 0.84849 0.0
H2142 H 0.32666 0.49556 0.86382 0.0
H2143 H 0.38299 0.5626 0.84057 0.0
H2144 H 0.33161 0.57652 0.83842 0.0
H2145 H 0.23286 0.45532 0.85535 0.0
H2146 H 0.21176 0.45723 0.86568 0.0
H2147 H 0.25354 0.45323 0.86576 0.0
H2148 H 0.2877 0.51298 0.87545 0.0
H2149 H 0.2459 0.51695 0.87547 0.0
H2150 H 0.28989 0.55576 0.87173 0.0
H2151 H 0.27284 0.57906 0.8379 0.0
H2152 H 0.21155 0.57573 0.84004 0.0
H2153 H 0.19334 0.51078 0.86412 0.0
C2154 C 0.32801 0.51325 0.85832 0.0
C2155 C 0.35832 0.52765 0.85227 0.0
C2156 C 0.35959 0.55095 0.84518 0.0
C2157 C 0.33065 0.55907 0.84392 0.0
C2158 C 0.30066 0.54386 0.84984 0.0
C2159 C 0.29918 0.52188 0.85698 0.0
C2160 C 0.26332 0.5092 0.86228 0.0
C2161 C 0.23893 0.46619 0.86227 0.0
C2162 C 0.27225 0.52466 0.8718 0.0
C2163 C 0.24496 0.52718 0.85694 0.0
C2164 C 0.26697 0.54671 0.84975 0.0
C2165 C 0.25545 0.56416 0.84355 0.0
C2166 C 0.22057 0.56188 0.84477 0.0
C2167 C 0.19796 0.54286 0.85219 0.0
C2168 C 0.21033 0.52548 0.8584 0.0
H2169 H 0.47052 0.7754 1.01278 0.0
H2170 H 0.53285 0.86511 0.03151 0.0
H2171 H 0.48012 0.87803 0.0322 0.0
H2172 H 0.42256 0.82192 1.00115 0.0
H2173 H 0.37978 0.77774 0.99977 0.0
H2174 H 0.42451 0.77936 0.9998 0.0
H2175 H 0.40073 0.7301 1.01248 0.0
H2176 H 0.35633 0.72894 1.01263 0.0
H2177 H 0.38389 0.73964 0.02265 0.0
H2178 H 0.41747 0.8748 0.03259 0.0
H2179 H 0.35164 0.86064 0.03129 0.0
H2180 H 0.3303 0.77438 1.01188 0.0
C2181 C 0.47349 0.79873 1.01672 0.0
C2182 C 0.50586 0.81994 0.02194 0.0
C2183 C 0.50849 0.84928 0.02731 0.0
C2184 C 0.47863 0.85662 0.02779 0.0
C2185 C 0.44646 0.83449 0.02278 0.0
C2186 C 0.44395 0.80664 1.0172 0.0
C2187 C 0.40539 0.7856 1.01293 0.0
C2188 C 0.40824 0.79152 1.00281 0.0
C2189 C 0.38542 0.74359 1.01532 0.0
C2190 C 0.3863 0.80503 1.01723 0.0
C2191 C 0.41048 0.83318 0.02288 0.0
C2192 C 0.39851 0.8534 0.02803 0.0
C2193 C 0.36099 0.84501 0.02729 0.0
C2194 C 0.33589 0.81676 0.0214 0.0
C2195 C 0.34893 0.79664 1.01631 0.0
H2196 H 0.21882 0.68751 1.01323 0.0
H2197 H 0.16367 0.667 0.0389 0.0
H2198 H 0.15989 0.60585 0.03982 0.0
H2199 H 0.16253 0.58587 1.00598 0.0
H2200 H 0.20183 0.58763 1.00021 0.0
H2201 H 0.19765 0.62917 1.00099 0.0
H2202 H 0.26414 0.66506 1.00793 0.0
H2203 H 0.26831 0.62357 1.00727 0.0
H2204 H 0.27429 0.64671 1.01779 0.0
H2205 H 0.16806 0.55092 0.03916 0.0
H2206 H 0.18148 0.50013 0.03596 0.0
H2207 H 0.22846 0.5514 1.0104 0.0
C2208 C 0.20496 0.66956 1.01889 0.0
C2209 C 0.19156 0.68223 0.026 0.0
C2210 C 0.17424 0.65813 0.03337 0.0
C2211 C 0.17192 0.62319 0.03398 0.0
C2212 C 0.18647 0.61197 0.0271 0.0
C2213 C 0.20192 0.63378 0.01958 0.0
C2214 C 0.21579 0.61434 1.01328 0.0
C2215 C 0.19311 0.60363 1.0046 0.0
C2216 C 0.25815 0.63889 1.01147 0.0
C2217 C 0.20718 0.57945 1.01866 0.0
C2218 C 0.19009 0.57879 0.02659 0.0
C2219 C 0.18075 0.5506 0.03289 0.0
C2220 C 0.1886 0.52185 0.03102 0.0
C2221 C 0.2056 0.52128 0.02289 0.0
C2222 C 0.21494 0.5506 1.01663 0.0
H2223 H 0.35789 0.52076 1.01006 0.0
H2224 H 0.32552 0.51767 0.03759 0.0
H2225 H 0.3804 0.58035 0.04001 0.0
H2226 H 0.45831 0.56764 1.01433 0.0
H2227 H 0.47132 0.59591 1.0044 0.0
H2228 H 0.42895 0.55082 1.0046 0.0
H2229 H 0.39007 0.58193 0.99986 0.0
H2230 H 0.43234 0.62706 0.99961 0.0
H2231 H 0.39307 0.62019 1.00633 0.0
H2232 H 0.43938 0.6411 0.03982 0.0
H2233 H 0.49834 0.69985 0.03673 0.0
H2234 H 0.49338 0.66678 1.0092 0.0
C2235 C 0.36255 0.53349 1.01657 0.0
C2236 C 0.3379 0.51436 0.02369 0.0
C2237 C 0.34454 0.53173 0.03211 0.0
C2238 C 0.37552 0.56733 0.03354 0.0
C2239 C 0.39977 0.58529 0.02648 0.0
C2240 C 0.39378 0.56926 1.01814 0.0
C2241 C 0.42491 0.59493 1.01179 0.0
C2242 C 0.44718 0.5762 1.00859 0.0
C2243 C 0.40914 0.60673 1.00393 0.0
C2244 C 0.44876 0.62789 1.01785 0.0
C2245 C 0.43386 0.62133 0.02632 0.0
C2246 C 0.45133 0.64667 0.03321 0.0
C2247 C 0.48495 0.6798 0.03141 0.0
C2248 C 0.50044 0.68762 0.02276 0.0
C2249 C 0.48201 0.6614 1.01588 0.0
H2250 H 0.24317 0.55526 0.50911 0.0
H2251 H 0.16176 0.49595 0.52987 0.0
H2252 H 0.14799 0.54798 0.53087 0.0
H2253 H 0.28183 0.64319 0.51798 0.0
H2254 H 0.28769 0.6684 0.50776 0.0
H2255 H 0.28714 0.6244 0.50763 0.0
H2256 H 0.23242 0.59771 0.49624 0.0
H2257 H 0.2335 0.64209 0.49621 0.0
H2258 H 0.19033 0.5995 0.49868 0.0
H2259 H 0.15083 0.61034 0.53128 0.0
H2260 H 0.16433 0.67587 0.52977 0.0
H2261 H 0.24211 0.69356 0.50832 0.0
C2262 C 0.22136 0.55275 0.51358 0.0
C2263 C 0.20285 0.52161 0.51929 0.0
C2264 C 0.17546 0.51945 0.52532 0.0
C2265 C 0.16766 0.54889 0.52596 0.0
C2266 C 0.18727 0.57998 0.52045 0.0
C2267 C 0.21294 0.58177 0.51422 0.0
C2268 C 0.23171 0.61928 0.50948 0.0
C2269 C 0.27462 0.64001 0.5108 0.0
C2270 C 0.22136 0.61434 0.49956 0.0
C2271 C 0.21381 0.63876 0.51427 0.0
C2272 C 0.18818 0.61564 0.52055 0.0
C2273 C 0.17013 0.62844 0.52623 0.0
C2274 C 0.17811 0.66571 0.52536 0.0
C2275 C 0.20373 0.68959 0.51884 0.0
C2276 C 0.22168 0.67575 0.51324 0.0
H2277 H 0.48397 0.69142 0.51068 0.0
H2278 H 0.53306 0.65679 0.5316 0.0
H2279 H 0.47863 0.59311 0.53119 0.0
H2280 H 0.39239 0.64341 0.5181 0.0
H2281 H 0.36926 0.62771 0.50751 0.0
H2282 H 0.41468 0.66941 0.50813 0.0
H2283 H 0.44144 0.64174 0.49677 0.0
H2284 H 0.39586 0.60005 0.496 0.0
H2285 H 0.43656 0.59629 0.49881 0.0
H2286 H 0.41697 0.53689 0.53031 0.0
H2287 H 0.35121 0.48804 0.52825 0.0
H2288 H 0.33846 0.55533 0.50771 0.0
C2289 C 0.48374 0.66991 0.5149 0.0
C2290 C 0.51301 0.67892 0.52112 0.0
C2291 C 0.51117 0.65044 0.52675 0.0
C2292 C 0.48031 0.61411 0.52657 0.0
C2293 C 0.45126 0.60629 0.52066 0.0
C2294 C 0.45267 0.63296 0.51481 0.0
C2295 C 0.41596 0.61699 0.5096 0.0
C2296 C 0.39695 0.64079 0.51092 0.0
C2297 C 0.42288 0.61358 0.4997 0.0
C2298 C 0.39329 0.57829 0.51385 0.0
C2299 C 0.41473 0.57278 0.52011 0.0
C2300 C 0.40007 0.54047 0.5253 0.0
C2301 C 0.36249 0.51287 0.5241 0.0
C2302 C 0.33954 0.51749 0.51776 0.0
C2303 C 0.3554 0.55061 0.51249 0.0
H2304 H 0.45785 0.75494 0.51826 0.0
H2305 H 0.53878 0.87367 0.51985 0.0
H2306 H 0.48696 0.8882 0.51862 0.0
H2307 H 0.39472 0.75981 0.50289 0.0
H2308 H 0.35269 0.72429 0.50825 0.0
H2309 H 0.39572 0.72286 0.50915 0.0
H2310 H 0.39238 0.72298 0.52629 0.0
H2311 H 0.34857 0.72288 0.52549 0.0
H2312 H 0.3869 0.75886 0.5318 0.0
H2313 H 0.42609 0.88913 0.51634 0.0
H2314 H 0.36032 0.87654 0.51644 0.0
H2315 H 0.31984 0.75712 0.51759 0.0
C2316 C 0.46445 0.78395 0.51845 0.0
C2317 C 0.50189 0.81333 0.51915 0.0
C2318 C 0.50997 0.85096 0.5194 0.0
C2319 C 0.48085 0.85938 0.51861 0.0
C2320 C 0.44407 0.82971 0.5177 0.0
C2321 C 0.43576 0.79271 0.51788 0.0
C2322 C 0.3939 0.76589 0.51735 0.0
C2323 C 0.38369 0.7418 0.5089 0.0
C2324 C 0.3796 0.74123 0.52573 0.0
C2325 C 0.37983 0.79355 0.51686 0.0
C2326 C 0.40917 0.83022 0.51685 0.0
C2327 C 0.4029 0.86057 0.51639 0.0
C2328 C 0.3656 0.85321 0.51634 0.0
C2329 C 0.33547 0.81593 0.51695 0.0
C2330 C 0.34264 0.78583 0.51703 0.0
H2331 H 0.22602 0.56352 0.36133 0.0
H2332 H 0.16881 0.48395 0.34019 0.0
H2333 H 0.22237 0.47252 0.33891 0.0
H2334 H 0.31369 0.60569 0.35228 0.0
H2335 H 0.33976 0.61186 0.36238 0.0
H2336 H 0.2947 0.60919 0.36279 0.0
H2337 H 0.27013 0.55377 0.37393 0.0
H2338 H 0.31551 0.55683 0.37373 0.0
H2339 H 0.27379 0.51303 0.37121 0.0
H2340 H 0.28595 0.47781 0.33826 0.0
H2341 H 0.3524 0.49363 0.33958 0.0
H2342 H 0.36733 0.56838 0.36146 0.0
C2343 C 0.22423 0.54244 0.35674 0.0
C2344 C 0.19322 0.52377 0.35101 0.0
C2345 C 0.19213 0.4976 0.34479 0.0
C2346 C 0.22247 0.49117 0.34398 0.0
C2347 C 0.25343 0.51098 0.3495 0.0
C2348 C 0.25422 0.53548 0.35591 0.0
C2349 C 0.29189 0.55511 0.36058 0.0
C2350 C 0.31113 0.59798 0.35943 0.0
C2351 C 0.28756 0.54401 0.37045 0.0
C2352 C 0.31252 0.53898 0.35556 0.0
C2353 C 0.2899 0.51351 0.34922 0.0
C2354 C 0.30371 0.49702 0.34335 0.0
C2355 C 0.34151 0.50633 0.34411 0.0
C2356 C 0.3649 0.53178 0.35069 0.0
C2357 C 0.35001 0.5482 0.35647 0.0
H2358 H 0.45888 0.65939 0.36189 0.0
H2359 H 0.53796 0.68312 0.34046 0.0
H2360 H 0.54902 0.74779 0.33939 0.0
H2361 H 0.41637 0.70616 0.35324 0.0
H2362 H 0.41071 0.72543 0.36347 0.0
H2363 H 0.41306 0.6829 0.36365 0.0
H2364 H 0.46892 0.71267 0.37467 0.0
H2365 H 0.46629 0.75516 0.37467 0.0
H2366 H 0.50988 0.75689 0.37195 0.0
H2367 H 0.54336 0.805 0.33886 0.0
H2368 H 0.52746 0.85533 0.34021 0.0
H2369 H 0.45469 0.79712 0.36255 0.0
C2370 C 0.47971 0.67888 0.35727 0.0
C2371 C 0.49834 0.66693 0.35139 0.0
C2372 C 0.52422 0.69235 0.34514 0.0
C2373 C 0.53049 0.72898 0.34446 0.0
C2374 C 0.51086 0.73977 0.35014 0.0
C2375 C 0.48659 0.71585 0.35656 0.0
C2376 C 0.46733 0.73395 0.36142 0.0
C2377 C 0.42433 0.71072 0.36038 0.0
C2378 C 0.4788 0.74003 0.37126 0.0
C2379 C 0.48352 0.77103 0.3565 0.0
C2380 C 0.50854 0.77372 0.35001 0.0
C2381 C 0.52464 0.80376 0.34408 0.0
C2382 C 0.51527 0.83206 0.34485 0.0
C2383 C 0.49039 0.83032 0.35157 0.0
C2384 C 0.47454 0.79953 0.3575 0.0
H2385 H 0.21322 0.67471 0.36396 0.0
H2386 H 0.19146 0.65285 0.33573 0.0
H2387 H 0.24506 0.71478 0.33231 0.0
H2388 H 0.24033 0.7737 0.36241 0.0
H2389 H 0.27648 0.78882 0.37076 0.0
H2390 H 0.23634 0.74214 0.37122 0.0
H2391 H 0.28053 0.7141 0.37134 0.0
H2392 H 0.32079 0.76066 0.3709 0.0
H2393 H 0.31487 0.72656 0.36262 0.0
H2394 H 0.29888 0.77858 0.33162 0.0
H2395 H 0.35337 0.84151 0.33372 0.0
H2396 H 0.34435 0.82507 0.3623 0.0
C2397 C 0.21982 0.68308 0.35707 0.0
C2398 C 0.19765 0.65888 0.35012 0.0
C2399 C 0.20733 0.67091 0.3412 0.0
C2400 C 0.23796 0.70609 0.33916 0.0
C2401 C 0.25881 0.72943 0.3461 0.0
C2402 C 0.25041 0.71868 0.35488 0.0
C2403 C 0.27758 0.75007 0.36098 0.0
C2404 C 0.25642 0.76453 0.36669 0.0
C2405 C 0.29977 0.73706 0.3668 0.0
C2406 C 0.3029 0.77956 0.35422 0.0
C2407 C 0.29093 0.76693 0.34569 0.0
C2408 C 0.30853 0.7889 0.33827 0.0
C2409 C 0.33934 0.82481 0.33954 0.0
C2410 C 0.35286 0.83848 0.34817 0.0
C2411 C 0.33444 0.81542 0.35563 0.0
H2412 H 0.27903 0.2903 0.18311 0.0
H2413 H 0.26346 0.37602 0.19574 0.0
H2414 H 0.33252 0.41937 0.19554 0.0
H2415 H 0.36786 0.31413 0.19471 0.0
H2416 H 0.3875 0.3039 0.18514 0.0
H2417 H 0.33735 0.27907 0.18686 0.0
H2418 H 0.32767 0.29967 0.17126 0.0
H2419 H 0.37769 0.32439 0.1695 0.0
H2420 H 0.35165 0.34887 0.16844 0.0
H2421 H 0.40422 0.45435 0.19336 0.0
H2422 H 0.47046 0.47802 0.1888 0.0
H2423 H 0.43851 0.3695 0.1774 0.0
C2424 C 0.29032 0.31817 0.18587 0.0
C2425 C 0.26609 0.33006 0.1894 0.0
C2426 C 0.28167 0.36657 0.19298 0.0
C2427 C 0.32084 0.39126 0.19292 0.0
C2428 C 0.34414 0.37889 0.18932 0.0
C2429 C 0.32938 0.34308 0.18589 0.0
C2430 C 0.36027 0.33694 0.18217 0.0
C2431 C 0.36342 0.30672 0.18754 0.0
C2432 C 0.35393 0.32689 0.17225 0.0
C2433 C 0.39445 0.37535 0.18364 0.0
C2434 C 0.38484 0.39898 0.18796 0.0
C2435 C 0.41193 0.43597 0.18997 0.0
C2436 C 0.44952 0.44923 0.18737 0.0
C2437 C 0.4596 0.42579 0.18266 0.0
C2438 C 0.43164 0.38825 0.18092 0.0
H2439 H 0.63137 0.06332 0.18965 0.0
H2440 H 0.55105 0.98879 0.17019 0.0
H2441 H 0.57424 0.94446 0.17221 0.0
H2442 H 0.70632 0.05178 0.18271 0.0
H2443 H 0.72522 0.05183 0.19353 0.0
H2444 H 0.69899 0.07574 0.19183 0.0
H2445 H 0.65347 0.03705 0.20447 0.0
H2446 H 0.6798 0.01322 0.20626 0.0
H2447 H 0.63001 0.98655 0.20412 0.0
H2448 H 0.60967 0.91198 0.17458 0.0
H2449 H 0.65521 0.89109 0.17757 0.0
H2450 H 0.71531 0.98424 0.19571 0.0
C2451 C 0.6179 0.03699 0.18608 0.0
C2452 C 0.58873 0.02912 0.17986 0.0
C2453 C 0.57291 0.99515 0.17505 0.0
C2454 C 0.58596 0.96975 0.17616 0.0
C2455 C 0.61528 0.97855 0.18208 0.0
C2456 C 0.63108 0.01112 0.18704 0.0
C2457 C 0.66439 0.01446 0.19239 0.0
C2458 C 0.70089 0.0506 0.18996 0.0
C2459 C 0.65644 0.01272 0.20241 0.0
C2460 C 0.6655 0.97953 0.18935 0.0
C2461 C 0.63642 0.95924 0.18348 0.0
C2462 C 0.63221 0.92726 0.17927 0.0
C2463 C 0.65842 0.91567 0.18099 0.0
C2464 C 0.68876 0.93564 0.18692 0.0
C2465 C 0.69202 0.96787 0.19127 0.0
H2466 H 0.0775 0.73681 0.19911 0.0
H2467 H 0.06783 0.76838 0.17208 0.0
H2468 H 0.03296 0.70238 0.16783 0.0
H2469 H 0.09188 0.66016 0.19302 0.0
H2470 H 0.06437 0.62912 0.20189 0.0
H2471 H 0.08685 0.67919 0.20336 0.0
H2472 H 0.02284 0.67322 0.20735 0.0
H2473 H 1.00023 0.6231 0.20592 0.0
H2474 H 0.98387 0.6499 0.19977 0.0
H2475 H 1.00348 0.63536 0.16578 0.0
H2476 H 0.97773 0.5671 0.16621 0.0
H2477 H 1.00274 0.57309 0.19437 0.0
C2478 C 0.06768 0.72962 0.19234 0.0
C2479 C 0.076 0.75816 0.18591 0.0
C2480 C 0.06266 0.74745 0.17711 0.0
C2481 C 0.04248 0.70984 0.17461 0.0
C2482 C 0.03554 0.68256 0.18095 0.0
C2483 C 0.04741 0.6915 0.18965 0.0
C2484 C 0.03679 0.65561 0.19489 0.0
C2485 C 0.07208 0.65606 0.1985 0.0
C2486 C 1.00929 0.65014 0.20243 0.0
C2487 C 0.01769 0.62571 0.1877 0.0
C2488 C 0.01748 0.64238 0.17975 0.0
C2489 C 1.0032 0.62181 0.17198 0.0
C2490 C 0.9888 0.58304 0.17227 0.0
C2491 C 0.98832 0.56482 0.18028 0.0
C2492 C 1.00262 0.58637 0.18815 0.0
H2493 H 0.33334 0.27047 0.36291 0.0
H2494 H 0.329 0.2643 0.33416 0.0
H2495 H 0.3678 0.33355 0.33329 0.0
H2496 H 0.32516 0.35419 0.3641 0.0
H2497 H 0.35533 0.37236 0.37366 0.0
H2498 H 0.328 0.32246 0.37193 0.0
H2499 H 0.38871 0.31786 0.37267 0.0
H2500 H 0.41626 0.36774 0.37438 0.0
H2501 H 0.42726 0.34633 0.36531 0.0
H2502 H 0.40828 0.40493 0.33573 0.0
H2503 H 0.44367 0.47033 0.34129 0.0
H2504 H 0.41979 0.42895 0.36835 0.0
C2505 C 0.34081 0.28364 0.35643 0.0
C2506 C 0.32846 0.26184 0.3486 0.0
C2507 C 0.33819 0.28034 0.34025 0.0
C2508 C 0.36029 0.31971 0.33969 0.0
C2509 C 0.37204 0.34039 0.34755 0.0
C2510 C 0.36225 0.32289 0.35575 0.0
C2511 C 0.37707 0.35137 0.3632 0.0
C2512 C 0.34446 0.35 0.36854 0.0
C2513 C 0.40393 0.34546 0.36925 0.0
C2514 C 0.39781 0.38758 0.35796 0.0
C2515 C 0.39448 0.38086 0.34893 0.0
C2516 C 0.41106 0.41035 0.3428 0.0
C2517 C 0.4313 0.44746 0.34601 0.0
C2518 C 0.43493 0.45483 0.35524 0.0
C2519 C 0.41789 0.4243 0.36124 0.0
H2520 H 0.58535 0.0269 0.34681 0.0
H2521 H 0.56336 0.93795 0.36554 0.0
H2522 H 0.63053 0.95636 0.36537 0.0
H2523 H 0.65744 0.01911 0.33397 0.0
H2524 H 0.68647 0.06894 0.33225 0.0
H2525 H 0.63635 0.04846 0.33351 0.0
H2526 H 0.64673 0.0937 0.34649 0.0
H2527 H 0.69685 0.1144 0.34524 0.0
H2528 H 0.6751 0.09547 0.35583 0.0
H2529 H 0.69922 0.98511 0.36389 0.0
H2530 H 0.76739 0.02362 0.36131 0.0
H2531 H 0.74837 0.09468 0.34319 0.0
C2532 C 0.59494 0.01158 0.35089 0.0
C2533 C 0.56933 0.98127 0.35631 0.0
C2534 C 0.58264 0.9615 0.36146 0.0
C2535 C 0.62069 0.97163 0.36136 0.0
C2536 C 0.64535 1.00162 0.35603 0.0
C2537 C 0.63326 0.02143 0.35087 0.0
C2538 C 0.6664 0.05302 0.3459 0.0
C2539 C 0.66135 0.04702 0.33581 0.0
C2540 C 0.67157 0.09143 0.34852 0.0
C2541 C 0.69892 0.04826 0.34925 0.0
C2542 C 0.68573 0.01813 0.35503 0.0
C2543 C 0.70987 1.00858 0.35933 0.0
C2544 C 0.74858 0.03064 0.35782 0.0
C2545 C 0.76318 0.06188 0.35202 0.0
C2546 C 0.73793 0.07056 0.34755 0.0
H2547 H 0.95995 0.68841 0.3638 0.0
H2548 H 0.95118 0.68804 0.33506 0.0
H2549 H 0.9817 0.64959 0.33401 0.0
H2550 H 0.05096 0.69644 0.36435 0.0
H2551 H 0.04092 0.66658 0.37394 0.0
H2552 H 0.0171 0.69302 0.37246 0.0
H2553 H 0.9527 0.6317 0.37356 0.0
H2554 H 0.97634 0.60507 0.37504 0.0
H2555 H 0.94264 0.59328 0.36621 0.0
H2556 H 0.01539 0.61226 0.33605 0.0
H2557 H 0.04877 0.57933 0.34119 0.0
H2558 H 0.03528 0.60374 0.36847 0.0
C2559 C 0.96404 0.67992 0.35729 0.0
C2560 C 0.95291 0.69132 0.34953 0.0
C2561 C 0.95935 0.67985 0.34113 0.0
C2562 C 0.9767 0.65789 0.34045 0.0
C2563 C 0.98763 0.64748 0.34822 0.0
C2564 C 0.98152 0.65809 0.35648 0.0
C2565 C 0.99687 0.64401 0.36378 0.0
C2566 C 0.02832 0.67698 0.36894 0.0
C2567 C 0.96524 0.6169 0.37001 0.0
C2568 C 1.01231 0.62368 0.35836 0.0
C2569 C 1.00683 0.62603 0.34938 0.0
C2570 C 0.0196 0.61009 0.34308 0.0
C2571 C 0.03851 0.5914 0.34604 0.0
C2572 C 0.04439 0.58873 0.35521 0.0
C2573 C 0.03092 0.60501 0.36141 0.0
H2574 H 0.59491 0.6113 0.86934 0.0
H2575 H 0.55239 0.56646 0.84323 0.0
H2576 H 0.6172 0.60042 0.83721 0.0
H2577 H 0.66843 0.70309 0.86187 0.0
H2578 H 0.70094 0.70657 0.87038 0.0
H2579 H 0.65106 0.6799 0.8724 0.0
H2580 H 0.65684 0.62147 0.87628 0.0
H2581 H 0.70668 0.64792 0.87425 0.0
H2582 H 0.67798 0.60469 0.86837 0.0
H2583 H 0.68799 0.63966 0.83421 0.0
H2584 H 0.75723 0.67865 0.83449 0.0
H2585 H 0.75348 0.69602 0.86279 0.0
C2586 C 0.5992 0.60863 0.86234 0.0
C2587 C 0.5684 0.58651 0.8567 0.0
C2588 C 0.57532 0.58381 0.84761 0.0
C2589 C 0.61216 0.60287 0.84417 0.0
C2590 C 0.6419 0.62456 0.84992 0.0
C2591 C 0.63573 0.62749 0.85882 0.0
C2592 C 0.67238 0.65217 0.86366 0.0
C2593 C 0.67325 0.68752 0.86729 0.0
C2594 C 0.67884 0.63024 0.87108 0.0
C2595 C 0.70041 0.66192 0.85617 0.0
C2596 C 0.68228 0.64619 0.84826 0.0
C2597 C 0.70234 0.65194 0.84039 0.0
C2598 C 0.74178 0.6742 0.84062 0.0
C2599 C 0.76106 0.69024 0.84868 0.0
C2600 C 0.73981 0.68382 0.85654 0.0
H2601 H 0.31434 0.03444 0.8418 0.0
H2602 H 0.37019 0.12534 0.86072 0.0
H2603 H 0.41658 0.10565 0.86379 0.0
H2604 H 0.32282 0.9667 0.8544 0.0
H2605 H 0.3321 0.94425 0.84527 0.0
H2606 H 0.30569 0.96788 0.84344 0.0
H2607 H 0.35277 0.00872 0.83125 0.0
H2608 H 0.37942 0.98522 0.83307 0.0
H2609 H 0.40217 0.03559 0.83383 0.0
H2610 H 0.45294 0.07432 0.86616 0.0
H2611 H 0.4767 0.03051 0.86822 0.0
H2612 H 0.39983 0.95744 0.84802 0.0
C2613 C 0.33689 0.0506 0.84643 0.0
C2614 C 0.33867 0.08174 0.85099 0.0
C2615 C 0.36809 0.10152 0.85715 0.0
C2616 C 0.39481 0.09066 0.85891 0.0
C2617 C 0.39202 0.05968 0.85449 0.0
C2618 C 0.36393 0.03971 0.84838 0.0
C2619 C 0.36621 1.00558 0.8452 0.0
C2620 C 0.32952 0.96894 0.8472 0.0
C2621 C 0.37571 0.00899 0.83524 0.0
C2622 C 0.39885 0.00885 0.85079 0.0
C2623 C 0.41355 0.04087 0.85594 0.0
C2624 C 0.44209 0.04946 0.86208 0.0
C2625 C 0.45545 0.02436 0.8632 0.0
C2626 C 0.44065 0.99092 0.85821 0.0
C2627 C 0.41241 0.98335 0.85176 0.0
H2628 H 0.98337 0.28186 0.84132 0.0
H2629 H 0.90111 0.24838 0.86253 0.0
H2630 H 0.92321 0.31452 0.86585 0.0
H2631 H 0.05739 0.35847 0.85259 0.0
H2632 H 0.07556 0.38957 0.84316 0.0
H2633 H 0.05096 0.33956 0.84153 0.0
H2634 H 1.00478 0.34534 0.83084 0.0
H2635 H 0.02923 0.39545 0.83247 0.0
H2636 H 0.97943 0.36814 0.83455 0.0
H2637 H 0.95577 0.38212 0.86796 0.0
H2638 H 0.99977 0.44967 0.86925 0.0
H2639 H 0.06378 0.44468 0.84691 0.0
C2640 C 0.96957 0.28858 0.84653 0.0
C2641 C 0.94012 0.25954 0.85163 0.0
C2642 C 0.9235 0.26971 0.85852 0.0
C2643 C 0.93579 0.30737 0.86044 0.0
C2644 C 0.96498 0.33516 0.85545 0.0
C2645 C 0.98187 0.32659 0.84863 0.0
C2646 C 1.01452 0.36269 0.84478 0.0
C2647 C 0.05182 0.36255 0.84557 0.0
C2648 C 1.00651 0.36823 0.83509 0.0
C2649 C 1.01408 0.39243 0.85079 0.0
C2650 C 0.98459 0.37548 0.85674 0.0
C2651 C 0.97869 0.39581 0.86328 0.0
C2652 C 1.00393 0.4343 0.86396 0.0
C2653 C 0.03497 0.45271 0.85814 0.0
C2654 C 0.03978 0.43158 0.85132 0.0
H2655 H 0.56376 0.58218 0.68591 0.0
H2656 H 0.65302 0.55571 0.68275 0.0
H2657 H 0.7004 0.62249 0.68461 0.0
H2658 H 0.60542 0.66913 0.67467 0.0
H2659 H 0.59084 0.69273 0.68243 0.0
H2660 H 0.56352 0.64256 0.68124 0.0
H2661 H 0.5696 0.63438 0.6981 0.0
H2662 H 0.59696 0.68461 0.69935 0.0
H2663 H 0.61559 0.65545 0.70309 0.0
H2664 H 0.73828 0.69182 0.68627 0.0
H2665 H 0.7646 0.76037 0.68755 0.0
H2666 H 0.65209 0.74398 0.68972 0.0
C2667 C 0.5933 0.59064 0.68562 0.0
C2668 C 0.60481 0.56389 0.68414 0.0
C2669 C 0.64366 0.57576 0.68391 0.0
C2670 C 0.67079 0.61363 0.68497 0.0
C2671 C 0.65873 0.6394 0.68643 0.0
C2672 C 0.62098 0.62853 0.68686 0.0
C2673 C 0.61604 0.66225 0.68862 0.0
C2674 C 0.59257 0.66694 0.68129 0.0
C2675 C 0.5985 0.65897 0.69783 0.0
C2676 C 0.65671 0.69391 0.68846 0.0
C2677 C 0.68083 0.67981 0.68743 0.0
C2678 C 0.71971 0.70317 0.68715 0.0
C2679 C 0.73442 0.742 0.6879 0.0
C2680 C 0.71037 0.75722 0.68877 0.0
C2681 C 0.671 0.7329 0.68907 0.0
H2682 H 0.43642 0.03471 0.6698 0.0
H2683 H 0.47699 0.04318 0.69672 0.0
H2684 H 0.41108 0.00939 0.70219 0.0
H2685 H 0.35861 0.04947 0.67554 0.0
H2686 H 0.32837 0.01808 0.66706 0.0
H2687 H 0.37858 0.04315 0.66549 0.0
H2688 H 0.37736 0.98026 0.66286 0.0
H2689 H 0.3272 0.95502 0.66442 0.0
H2690 H 0.35664 0.94368 0.67113 0.0
H2691 H 0.33843 0.97419 0.70452 0.0
H2692 H 0.26882 0.94118 0.70347 0.0
H2693 H 0.27715 0.95522 0.67488 0.0
C2694 C 0.43154 0.02944 0.67686 0.0
C2695 C 0.46205 0.04133 0.68283 0.0
C2696 C 0.45423 0.03414 0.69201 0.0
C2697 C 0.41678 0.01501 0.69516 0.0
C2698 C 0.3873 1.00349 0.68906 0.0
C2699 C 0.39449 0.0107 0.68009 0.0
C2700 C 0.35829 0.99601 0.67483 0.0
C2701 C 0.35582 0.02861 0.67047 0.0
C2702 C 0.35467 0.96701 0.6679 0.0
C2703 C 0.32931 0.97796 0.68215 0.0
C2704 C 0.34642 0.98312 0.69035 0.0
C2705 C 0.32499 0.96993 0.69811 0.0
C2706 C 0.28538 0.95114 0.69745 0.0
C2707 C 0.26732 0.94495 0.68908 0.0
C2708 C 0.2899 0.95867 0.68136 0.0
H2709 H 0.98876 0.40213 0.66985 0.0
H2710 H 0.98901 0.44132 0.69648 0.0
H2711 H 0.02091 0.40745 0.70196 0.0
H2712 H 0.97172 0.31105 0.67562 0.0
H2713 H 1.00227 0.30993 0.66718 0.0
H2714 H 0.97974 0.33748 0.66549 0.0
H2715 H 0.04455 0.39687 0.66282 0.0
H2716 H 0.0673 0.36947 0.66442 0.0
H2717 H 0.08096 0.41068 0.67106 0.0
H2718 H 0.05083 0.3656 0.70446 0.0
H2719 H 0.08015 0.32556 0.70352 0.0
H2720 H 0.06284 0.31732 0.67501 0.0
C2721 C 0.99577 0.40384 0.67683 0.0
C2722 C 0.98626 0.42435 0.68277 0.0
C2723 C 0.99615 0.42603 0.69183 0.0
C2724 C 1.01416 0.40666 0.69499 0.0
C2725 C 0.02278 0.38629 0.68896 0.0
C2726 C 1.01435 0.38534 0.68003 0.0
C2727 C 0.02695 0.36207 0.67484 0.0
C2728 C 0.99316 0.32812 0.67053 0.0
C2729 C 0.05671 0.38623 0.66787 0.0
C2730 C 0.04382 0.34992 0.68219 0.0
C2731 C 0.04084 0.36372 0.69032 0.0
C2732 C 0.05359 0.35505 0.6981 0.0
C2733 C 0.07014 0.33217 0.6975 0.0
C2734 C 0.07426 0.31851 0.68918 0.0
C2735 C 0.0607 0.32762 0.68147 0.0
H2736 H 0.95068 0.62264 0.51877 0.0
H2737 H 0.92788 0.71213 0.525 0.0
H2738 H 0.99622 0.75799 0.52471 0.0
H2739 H 0.04018 0.66122 0.53152 0.0
H2740 H 0.06215 0.64623 0.5234 0.0
H2741 H 1.01194 0.61979 0.525 0.0
H2742 H 1.00163 0.62651 0.50828 0.0
H2743 H 0.05169 0.6526 0.50664 0.0
H2744 H 0.02316 0.67261 0.50333 0.0
H2745 H 0.06701 0.79455 0.5232 0.0
H2746 H 0.13388 0.81979 0.51907 0.0
H2747 H 0.11092 0.70744 0.513 0.0
C2748 C 0.9603 0.65188 0.52016 0.0
C2749 C 0.93424 0.66406 0.52195 0.0
C2750 C 0.94754 0.70243 0.52365 0.0
C2751 C 0.98628 0.72855 0.52354 0.0
C2752 C 1.01141 0.71585 0.52172 0.0
C2753 C 0.99898 0.67841 0.52002 0.0
C2754 C 0.03175 0.67254 0.5177 0.0
C2755 C 0.03679 0.64852 0.52483 0.0
C2756 C 0.02675 0.65505 0.50843 0.0
C2757 C 0.06421 0.71271 0.51791 0.0
C2758 C 0.05204 0.7371 0.52053 0.0
C2759 C 0.07682 0.77568 0.52117 0.0
C2760 C 0.11474 0.7898 0.51885 0.0
C2761 C 0.12735 0.76554 0.51577 0.0
C2762 C 0.10187 0.72649 0.5154 0.0
H2763 H 0.34756 0.26986 0.50859 0.0
H2764 H 0.3754 0.29277 0.53656 0.0
H2765 H 0.33959 0.32607 0.53729 0.0
H2766 H 0.35508 0.35745 0.50315 0.0
H2767 H 0.31587 0.33813 0.49557 0.0
H2768 H 0.34231 0.31448 0.49732 0.0
H2769 H 0.28111 0.2537 0.50168 0.0
H2770 H 0.25446 0.27722 0.49996 0.0
H2771 H 0.25215 0.25518 0.51049 0.0
H2772 H 0.30279 0.35974 0.53486 0.0
H2773 H 0.268 0.39054 0.52935 0.0
H2774 H 0.26318 0.34537 0.50311 0.0
C2775 C 0.34586 0.28154 0.51489 0.0
C2776 C 0.36436 0.27838 0.52251 0.0
C2777 C 0.36144 0.29441 0.53061 0.0
C2778 C 0.34111 0.31351 0.53111 0.0
C2779 C 0.32346 0.3163 0.52347 0.0
C2780 C 0.32546 0.30062 0.51553 0.0
C2781 C 0.30445 0.30824 0.50827 0.0
C2782 C 0.33102 0.33093 0.50063 0.0
C2783 C 0.27106 0.27139 0.5049 0.0
C2784 C 0.29107 0.33131 0.51331 0.0
C2785 C 0.30207 0.33542 0.5221 0.0
C2786 C 0.2937 0.35633 0.52801 0.0
C2787 C 0.27374 0.3736 0.52484 0.0
C2788 C 0.26245 0.36997 0.51584 0.0
C2789 C 0.27116 0.34838 0.51004 0.0
H2790 H 0.62212 0.90443 0.52204 0.0
H2791 H 0.70361 0.89569 0.50546 0.0
H2792 H 0.74804 0.96321 0.50747 0.0
H2793 H 0.63847 0.9905 0.51345 0.0
H2794 H 0.63355 0.01011 0.52371 0.0
H2795 H 0.60977 0.95999 0.52228 0.0
H2796 H 0.64159 0.95323 0.53643 0.0
H2797 H 0.66519 1.00335 0.53797 0.0
H2798 H 0.69207 0.97961 0.53741 0.0
H2799 H 0.78029 0.0319 0.50939 0.0
H2800 H 0.8007 0.09856 0.51184 0.0
H2801 H 0.70045 0.06663 0.52748 0.0
C2802 C 0.6499 0.91664 0.51913 0.0
C2803 C 0.65988 0.8946 0.51375 0.0
C2804 C 0.69573 0.91185 0.50972 0.0
C2805 C 0.72112 0.95026 0.51081 0.0
C2806 C 0.71029 0.97154 0.5159 0.0
C2807 C 0.67572 0.95551 0.52009 0.0
C2808 C 0.67043 0.98588 0.52458 0.0
C2809 C 0.63602 0.98665 0.52077 0.0
C2810 C 0.66713 0.98017 0.5347 0.0
C2811 C 0.70699 0.02132 0.52205 0.0
C2812 C 0.72944 0.01205 0.51707 0.0
C2813 C 0.76328 0.03949 0.5134 0.0
C2814 C 0.7746 0.0774 0.5148 0.0
C2815 C 0.75257 0.08806 0.51992 0.0
C2816 C 0.71836 0.05945 0.52369 0.0
H2817 H 0.07031 0.77734 0.67896 0.0
H2818 H 0.14345 0.7827 0.70041 0.0
H2819 H 0.12043 0.71519 0.69887 0.0
H2820 H 0.99253 0.69247 0.68509 0.0
H2821 H 0.97749 0.67296 0.67415 0.0
H2822 H 1.00382 0.72305 0.67559 0.0
H2823 H 0.05347 0.7278 0.66433 0.0
H2824 H 0.02709 0.67764 0.66279 0.0
H2825 H 0.07583 0.70004 0.66601 0.0
H2826 H 0.0868 0.648 0.69641 0.0
H2827 H 0.0422 0.58208 0.69352 0.0
H2828 H 0.98551 0.61409 0.67387 0.0
C2829 C 0.0823 0.76434 0.68309 0.0
C2830 C 0.10944 0.78553 0.68971 0.0
C2831 C 0.12327 0.76727 0.69522 0.0
C2832 C 0.11033 0.72885 0.69439 0.0
C2833 C 0.08308 0.70848 0.68802 0.0
C2834 C 0.06911 0.72527 0.68241 0.0
C2835 C 0.03746 0.69532 0.6767 0.0
C2836 C 1.00064 0.696 0.67797 0.0
C2837 C 0.04916 0.70052 0.66687 0.0
C2838 C 0.03451 0.65923 0.68042 0.0
C2839 C 0.06207 0.66813 0.68676 0.0
C2840 C 0.06528 0.64064 0.69141 0.0
C2841 C 0.03945 0.60299 0.68972 0.0
C2842 C 1.00987 0.59227 0.68347 0.0
C2843 C 1.00787 0.62105 0.67861 0.0
H2844 H 0.24517 0.30286 0.67862 0.0
H2845 H 0.24011 0.34192 0.70509 0.0
H2846 H 0.308 0.38382 0.70496 0.0
H2847 H 0.32882 0.30057 0.68118 0.0
H2848 H 0.34979 0.31993 0.67055 0.0
H2849 H 0.29946 0.29571 0.67178 0.0
H2850 H 0.2976 0.35374 0.66584 0.0
H2851 H 0.34799 0.37808 0.6645 0.0
H2852 H 0.32621 0.39865 0.67104 0.0
H2853 H 0.37428 0.41639 0.70319 0.0
H2854 H 0.44013 0.4417 0.69974 0.0
H2855 H 0.41039 0.38466 0.6742 0.0
C2856 C 0.25846 0.32112 0.68425 0.0
C2857 C 0.23704 0.31916 0.69189 0.0
C2858 C 0.25559 0.34284 0.69918 0.0
C2859 C 0.29433 0.36692 0.69917 0.0
C2860 C 0.31482 0.36758 0.69178 0.0
C2861 C 0.29801 0.3459 0.68436 0.0
C2862 C 0.32841 0.35201 0.67756 0.0
C2863 C 0.3265 0.31482 0.67513 0.0
C2864 C 0.32483 0.37178 0.66923 0.0
C2865 C 0.36449 0.37813 0.68267 0.0
C2866 C 0.35516 0.38715 0.69074 0.0
C2867 C 0.38211 0.41 0.69685 0.0
C2868 C 0.41986 0.42427 0.69478 0.0
C2869 C 0.4313 0.41556 0.68665 0.0
C2870 C 0.40293 0.3922 0.68044 0.0
H2871 H 0.69256 0.93067 0.70241 0.0
H2872 H 0.72521 0.92302 0.67549 0.0
H2873 H 0.69373 0.95747 0.67005 0.0
H2874 H 0.60021 0.91866 0.69671 0.0
H2875 H 0.60283 0.95081 0.70516 0.0
H2876 H 0.62647 0.9242 0.70674 0.0
H2877 H 0.68931 0.98597 0.70932 0.0
H2878 H 0.66593 0.01273 0.70769 0.0
H2879 H 0.70615 0.02235 0.70099 0.0
H2880 H 0.66121 0.99598 0.66778 0.0
H2881 H 0.62919 0.03301 0.66865 0.0
H2882 H 0.61666 0.01464 0.69716 0.0
C2883 C 0.69274 0.93592 0.69536 0.0
C2884 C 0.71124 0.9241 0.68936 0.0
C2885 C 0.71096 0.93156 0.68018 0.0
C2886 C 0.69323 0.95121 0.67705 0.0
C2887 C 0.67554 0.96283 0.68317 0.0
C2888 C 0.67488 0.95512 0.69212 0.0
C2889 C 0.65436 0.97096 0.69735 0.0
C2890 C 0.61886 0.93927 0.70175 0.0
C2891 C 0.68051 0.99971 0.70424 0.0
C2892 C 0.64425 0.98965 0.69 0.0
C2893 C 0.65657 0.98448 0.68186 0.0
C2894 C 0.65122 0.99984 0.67412 0.0
C2895 C 0.63291 0.02095 0.6747 0.0
C2896 C 0.62001 0.0268 0.68298 0.0
C2897 C 0.62575 0.01061 0.69072 0.0
H2898 H 0.25939 0.8965 0.19515 0.0
H2899 H 0.22577 0.96703 0.18088 0.0
H2900 H 0.29141 0.01089 0.17714 0.0
H2901 H 0.34406 0.96769 0.20442 0.0
H2902 H 0.37151 0.94515 0.20253 0.0
H2903 H 0.3213 0.91724 0.20381 0.0
H2904 H 0.31626 0.88559 0.18864 0.0
H2905 H 0.36655 0.9133 0.18732 0.0
H2906 H 0.33589 0.91438 0.1789 0.0
H2907 H 0.36001 0.04893 0.17532 0.0
H2908 H 0.42894 0.07901 0.1753 0.0
H2909 H 0.42203 0.98614 0.19062 0.0
C2910 C 0.26596 0.92106 0.1912 0.0
C2911 C 0.23709 0.92822 0.18837 0.0
C2912 C 0.24696 0.96061 0.18315 0.0
C2913 C 0.28439 0.9859 0.18097 0.0
C2914 C 0.31211 0.97841 0.1839 0.0
C2915 C 0.3036 0.94665 0.1888 0.0
C2916 C 0.33947 0.94575 0.19097 0.0
C2917 C 0.34436 0.94386 0.20103 0.0
C2918 C 0.33954 0.91279 0.18618 0.0
C2919 C 0.36932 0.98312 0.18706 0.0
C2920 C 0.35252 1.00084 0.18283 0.0
C2921 C 0.37352 0.03525 0.17857 0.0
C2922 C 0.41276 0.05211 0.17859 0.0
C2923 C 0.43105 0.03505 0.18296 0.0
C2924 C 0.40891 1.00003 0.18729 0.0
H2925 H 0.98495 0.37078 0.1749 0.0
H2926 H 0.04305 0.46332 0.19335 0.0
H2927 H 0.08864 0.44306 0.1965 0.0
H2928 H 0.99326 0.30299 0.18719 0.0
H2929 H 1.00323 0.28092 0.17808 0.0
H2930 H 0.97701 0.30468 0.17616 0.0
H2931 H 0.02504 0.34605 0.16418 0.0
H2932 H 0.0515 0.32241 0.1661 0.0
H2933 H 0.07423 0.37274 0.16698 0.0
H2934 H 0.1231 0.41057 0.19936 0.0
H2935 H 0.14636 0.36648 0.20162 0.0
H2936 H 0.07062 0.29376 0.18122 0.0
C2937 C 1.00788 0.38724 0.17941 0.0
C2938 C 1.01019 0.41885 0.18387 0.0
C2939 C 0.04029 0.43908 0.18986 0.0
C2940 C 0.06664 0.42788 0.19168 0.0
C2941 C 0.0632 0.39639 0.18743 0.0
C2942 C 0.03498 0.37634 0.18134 0.0
C2943 C 0.03738 0.34222 0.17818 0.0
C2944 C 1.00052 0.30554 0.18002 0.0
C2945 C 0.04764 0.34608 0.16827 0.0
C2946 C 0.06966 0.34526 0.18389 0.0
C2947 C 0.08437 0.37735 0.18901 0.0
C2948 C 0.11242 0.38574 0.19527 0.0
C2949 C 0.12548 0.36048 0.19652 0.0
C2950 C 0.11092 0.32712 0.19151 0.0
C2951 C 0.08304 0.31964 0.18496 0.0
H2952 H 0.60737 0.60101 0.19411 0.0
H2953 H 0.63586 0.59853 0.16648 0.0
H2954 H 0.67019 0.66811 0.16614 0.0
H2955 H 0.59379 0.68111 0.19264 0.0
H2956 H 0.61443 0.69895 0.20337 0.0
H2957 H 0.59124 0.64928 0.20124 0.0
H2958 H 0.65162 0.64814 0.2058 0.0
H2959 H 0.67496 0.69777 0.20796 0.0
H2960 H 0.6954 0.67925 0.20033 0.0
H2961 H 0.70351 0.73992 0.16919 0.0
H2962 H 0.73215 0.80434 0.17535 0.0
H2963 H 0.68139 0.7583 0.20088 0.0
C2964 C 0.62043 0.61489 0.18793 0.0
C2965 C 0.61848 0.59392 0.18029 0.0
C2966 C 0.63663 0.61369 0.17242 0.0
C2967 C 0.65626 0.65333 0.17217 0.0
C2968 C 0.65773 0.67304 0.17985 0.0
C2969 C 0.64025 0.65427 0.18758 0.0
C2970 C 0.64672 0.68153 0.19505 0.0
C2971 C 0.60932 0.67747 0.19826 0.0
C2972 C 0.66847 0.67635 0.20274 0.0
C2973 C 0.6705 0.7187 0.19036 0.0
C2974 C 0.67662 0.71346 0.18158 0.0
C2975 C 0.6985 0.74409 0.17604 0.0
C2976 C 0.71448 0.78069 0.17957 0.0
C2977 C 0.70855 0.78648 0.18855 0.0
C2978 C 0.6862 0.7549 0.19396 0.0
H2979 H 0.28168 0.92112 1.00343 0.0
H2980 H 0.25926 0.88216 0.03069 0.0
H2981 H 0.2929 0.94817 0.03592 0.0
H2982 H 0.37461 0.99819 1.00712 0.0
H2983 H 0.36981 0.02838 0.99916 0.0
H2984 H 0.3436 0.97825 0.99773 0.0
H2985 H 0.28147 0.98034 0.9972 0.0
H2986 H 0.30755 0.03048 0.99861 0.0
H2987 H 0.27016 1.00178 1.00621 0.0
H2988 H 0.3319 0.02028 0.038 0.0
H2989 H 0.36925 0.08963 0.03671 0.0
H2990 H 0.36401 0.07988 1.008 0.0
C2991 C 0.28368 0.92645 1.01051 0.0
C2992 C 0.26769 0.89648 1.01666 0.0
C2993 C 0.27107 0.90468 0.02586 0.0
C2994 C 0.29025 0.94212 0.02888 0.0
C2995 C 0.30587 0.97111 0.02261 0.0
C2996 C 0.30256 0.96353 1.01361 0.0
C2997 C 0.32187 0.99934 1.00818 0.0
C2998 C 0.3544 1.00113 1.00273 0.0
C2999 C 0.29357 1.00321 1.0022 0.0
C3000 C 0.33641 0.02845 1.01549 0.0
C3001 C 0.32728 0.01181 0.02379 0.0
C3002 C 0.33891 0.03344 0.03152 0.0
C3003 C 0.36023 0.07286 0.03072 0.0
C3004 C 0.36941 0.09042 0.02226 0.0
C3005 C 0.35715 0.06759 1.01458 0.0
H3006 H 0.1007 0.35776 1.00329 0.0
H3007 H 0.13912 0.3748 0.03058 0.0
H3008 H 0.07277 0.34142 0.03574 0.0
H3009 H 0.02285 0.37249 1.0069 0.0
H3010 H 0.99305 0.3378 0.99891 0.0
H3011 H 0.04333 0.36204 0.99753 0.0
H3012 H 0.04207 0.29838 0.99698 0.0
H3013 H 0.99177 0.27395 0.99831 0.0
H3014 H 0.0205 0.26528 1.00595 0.0
H3015 H 1.00053 0.30832 0.03773 0.0
H3016 H 0.93113 0.27645 0.03637 0.0
H3017 H 0.94123 0.27975 1.00769 0.0
C3018 C 0.09521 0.35418 1.01036 0.0
C3019 C 0.12513 0.36863 1.01654 0.0
C3020 C 0.11669 0.36361 0.02573 0.0
C3021 C 0.07904 0.34483 0.02871 0.0
C3022 C 0.05015 0.33115 0.02241 0.0
C3023 C 0.05798 0.33551 1.01342 0.0
C3024 C 0.02224 0.31893 1.00794 0.0
C3025 C 0.02026 0.34964 1.0025 0.0
C3026 C 0.01896 0.28725 1.00194 0.0
C3027 C 0.99281 0.30389 1.01521 0.0
C3028 C 1.00932 0.31161 0.02353 0.0
C3029 C 0.9875 0.30185 0.03123 0.0
C3030 C 0.94805 0.28377 0.0304 0.0
C3031 C 0.9306 0.275 0.02193 0.0
C3032 C 0.95354 0.28524 1.01427 0.0
H3033 H 0.75086 0.66696 1.00859 0.0
H3034 H 0.73126 0.63613 0.03645 0.0
H3035 H 0.69848 0.67261 0.03805 0.0
H3036 H 0.76647 0.76137 1.01084 0.0
H3037 H 0.74243 0.75921 1.00064 0.0
H3038 H 0.76568 0.73209 1.00186 0.0
H3039 H 0.70349 0.67135 0.99807 0.0
H3040 H 0.68012 0.69831 0.99681 0.0
H3041 H 0.6618 0.65931 1.00445 0.0
H3042 H 0.6665 0.71309 0.03639 0.0
H3043 H 0.63647 0.74966 0.03142 0.0
H3044 H 0.67591 0.75166 1.00464 0.0
C3045 C 0.74005 0.66807 1.01506 0.0
C3046 C 0.74405 0.6487 0.0224 0.0
C3047 C 0.7288 0.65069 0.03071 0.0
C3048 C 0.71013 0.67147 0.03169 0.0
C3049 C 0.70665 0.69012 0.0243 0.0
C3050 C 0.7211 0.68837 1.01614 0.0
C3051 C 0.71251 0.70955 1.00912 0.0
C3052 C 0.74894 0.74251 1.0054 0.0
C3053 C 0.68803 0.68305 1.00167 0.0
C3054 C 0.6908 0.72341 1.01455 0.0
C3055 C 0.6879 0.71231 0.02332 0.0
C3056 C 0.66876 0.72188 0.02953 0.0
C3057 C 0.65188 0.74279 0.02666 0.0
C3058 C 0.65393 0.75362 1.01765 0.0
C3059 C 0.67393 0.74392 1.01158 0.0
H3060 H 0.77284 0.12677 0.8475 0.0
H3061 H 0.80231 0.03988 0.8513 0.0
H3062 H 0.73607 0.99373 0.85422 0.0
H3063 H 0.70026 0.08957 0.86542 0.0
H3064 H 0.66984 0.1026 0.8597 0.0
H3065 H 0.72004 0.12977 0.85814 0.0
H3066 H 0.71102 0.11989 0.84115 0.0
H3067 H 0.66088 0.0927 0.84265 0.0
H3068 H 0.68518 0.07287 0.8368 0.0
H3069 H 0.66681 0.95601 0.8563 0.0
H3070 H 0.59799 0.92904 0.85746 0.0
H3071 H 0.61078 0.03869 0.85248 0.0
C3072 C 0.7652 0.09803 0.84896 0.0
C3073 C 0.79287 0.08698 0.84911 0.0
C3074 C 0.78182 0.04918 0.85117 0.0
C3075 C 0.74414 0.02263 0.85284 0.0
C3076 C 0.71754 0.03421 0.85262 0.0
C3077 C 0.72745 0.07103 0.85085 0.0
C3078 C 0.69291 0.07572 0.85123 0.0
C3079 C 0.69595 0.10092 0.85908 0.0
C3080 C 0.68717 0.0912 0.84243 0.0
C3081 C 0.66193 0.0354 0.85285 0.0
C3082 C 0.6771 0.0122 0.85386 0.0
C3083 C 0.65462 0.97391 0.85555 0.0
C3084 C 0.61559 0.95883 0.85621 0.0
C3085 C 0.59919 0.98172 0.85504 0.0
C3086 C 0.62268 0.02057 0.85335 0.0
H3087 H 0.96128 0.72489 0.85699 0.0
H3088 H 0.88276 0.64926 0.83739 0.0
H3089 H 0.90672 0.60584 0.83966 0.0
H3090 H 0.03753 0.71592 0.85085 0.0
H3091 H 0.05525 0.71515 0.86177 0.0
H3092 H 0.02811 0.73807 0.86004 0.0
H3093 H 0.98139 0.69695 0.87225 0.0
H3094 H 1.00864 0.67409 0.87408 0.0
H3095 H 0.95926 0.64661 0.87155 0.0
H3096 H 0.94292 0.57497 0.84208 0.0
H3097 H 0.98975 0.55589 0.84492 0.0
H3098 H 0.04813 0.6489 0.8632 0.0
C3099 C 0.94828 0.69844 0.85348 0.0
C3100 C 0.91951 0.69005 0.84711 0.0
C3101 C 0.90428 0.65597 0.84237 0.0
C3102 C 0.91775 0.63106 0.84361 0.0
C3103 C 0.94672 0.64037 0.84966 0.0
C3104 C 0.96177 0.6729 0.85463 0.0
C3105 C 0.99488 0.67666 0.86014 0.0
C3106 C 0.03108 0.71365 0.85807 0.0
C3107 C 0.98549 0.67339 0.8701 0.0
C3108 C 0.99739 0.64261 0.85698 0.0
C3109 C 0.96854 0.6219 0.85109 0.0
C3110 C 0.96526 0.59052 0.8468 0.0
C3111 C 0.99225 0.57998 0.84843 0.0
C3112 C 0.02263 0.60058 0.85432 0.0
C3113 C 0.02488 0.63211 0.8588 0.0
H3114 H 0.29668 0.23742 0.8568 0.0
H3115 H 0.37162 0.23508 0.83684 0.0
H3116 H 0.4149 0.30239 0.839 0.0
H3117 H 0.3062 0.32405 0.85045 0.0
H3118 H 0.30649 0.34159 0.86142 0.0
H3119 H 0.28314 0.29179 0.85949 0.0
H3120 H 0.32317 0.28453 0.87175 0.0
H3121 H 0.34655 0.33436 0.87376 0.0
H3122 H 0.3737 0.3121 0.8712 0.0
H3123 H 0.44724 0.36936 0.84188 0.0
H3124 H 0.4679 0.435 0.84525 0.0
H3125 H 0.37382 0.39986 0.86336 0.0
C3126 C 0.32282 0.25103 0.85312 0.0
C3127 C 0.3311 0.23069 0.84673 0.0
C3128 C 0.36487 0.24979 0.84182 0.0
C3129 C 0.38972 0.28814 0.84301 0.0
C3130 C 0.38062 0.30765 0.84913 0.0
C3131 C 0.34818 0.29007 0.85416 0.0
C3132 C 0.34461 0.31918 0.85977 0.0
C3133 C 0.30793 0.31915 0.85765 0.0
C3134 C 0.34715 0.31212 0.86971 0.0
C3135 C 0.37915 0.35573 0.85675 0.0
C3136 C 0.39961 0.34778 0.85073 0.0
C3137 C 0.43171 0.37598 0.84665 0.0
C3138 C 0.44317 0.4134 0.8486 0.0
C3139 C 0.42277 0.42308 0.85459 0.0
C3140 C 0.39047 0.39359 0.85885 0.0
H3141 H 0.70091 0.93899 1.01012 0.0
H3142 H 0.60721 0.91888 0.02704 0.0
H3143 H 0.63366 0.98698 0.02886 0.0
H3144 H 0.77082 0.01451 0.02264 0.0
H3145 H 0.79818 0.04213 1.01331 0.0
H3146 H 0.77018 0.9919 1.01235 0.0
H3147 H 0.73603 0.99937 0.99871 0.0
H3148 H 0.76405 0.04969 0.99962 0.0
H3149 H 0.71349 0.02727 0.99963 0.0
H3150 H 0.67081 0.05599 0.02975 0.0
H3151 H 0.7184 0.12332 0.03003 0.0
H3152 H 0.79106 0.10219 1.01306 0.0
C3153 C 0.68577 0.94914 1.01405 0.0
C3154 C 0.65176 0.92362 1.0184 0.0
C3155 C 0.63316 0.93789 0.02365 0.0
C3156 C 0.64792 0.97657 0.0247 0.0
C3157 C 0.68169 1.00104 0.02052 0.0
C3158 C 0.70057 0.98815 1.01529 0.0
C3159 C 0.73773 0.02106 1.01207 0.0
C3160 C 0.77121 0.01716 1.01529 0.0
C3161 C 0.73782 0.02455 1.0019 0.0
C3162 C 0.73713 0.05403 1.01654 0.0
C3163 C 0.70407 0.0416 0.02124 0.0
C3164 C 0.69674 0.0661 0.02608 0.0
C3165 C 0.72395 0.10427 0.02622 0.0
C3166 C 0.75835 0.11786 0.02163 0.0
C3167 C 0.76495 0.09246 1.01664 0.0
H3168 H 0.91553 0.62155 1.01273 0.0
H3169 H 0.90481 0.68651 0.03397 0.0
H3170 H 0.97225 0.73256 0.03285 0.0
H3171 H 1.00056 0.63077 0.01954 0.0
H3172 H 0.0218 0.63627 1.00877 0.0
H3173 H 0.97141 0.61139 1.00984 0.0
H3174 H 0.96674 0.65591 0.99842 0.0
H3175 H 0.0172 0.68076 0.99723 0.0
H3176 H 0.99322 0.70587 1.00017 0.0
H3177 H 0.04005 0.76759 0.0309 0.0
H3178 H 0.10685 0.79044 0.02851 0.0
H3179 H 0.07948 0.70371 1.00875 0.0
C3180 C 0.92734 0.64626 1.01689 0.0
C3181 C 0.90468 0.65096 0.02334 0.0
C3182 C 0.92139 0.68271 0.02892 0.0
C3183 C 0.95975 0.70906 0.02832 0.0
C3184 C 0.9816 0.70336 0.02213 0.0
C3185 C 0.96629 0.67296 1.01645 0.0
C3186 C 0.99756 0.67245 1.011 0.0
C3187 C 0.99784 0.63552 1.01238 0.0
C3188 C 0.99343 0.67913 1.00112 0.0
C3189 C 0.03267 0.70586 1.01494 0.0
C3190 C 0.02221 0.72359 0.02116 0.0
C3191 C 0.04863 0.75418 0.02599 0.0
C3192 C 0.08678 0.76687 0.02459 0.0
C3193 C 0.09902 0.74903 1.01846 0.0
C3194 C 0.07134 0.71834 1.01342 0.0
H3195 H 0.29351 0.36029 0.02953 0.0
H3196 H 0.28048 0.35792 1.00093 0.0
H3197 H 0.31177 0.31971 0.99966 0.0
H3198 H 0.38619 0.37167 0.02914 0.0
H3199 H 0.37873 0.34374 0.03898 0.0
H3200 H 0.35354 0.36884 0.03753 0.0
H3201 H 0.29052 0.30672 0.03957 0.0
H3202 H 0.31554 0.28138 0.04094 0.0
H3203 H 0.27986 0.26736 0.0325 0.0
H3204 H 0.3432 0.27881 1.00179 0.0
H3205 H 0.37815 0.24723 1.00691 0.0
H3206 H 0.37546 0.28218 0.03386 0.0
C3207 C 0.29685 0.35142 0.02299 0.0
C3208 C 0.28387 0.36161 1.01534 0.0
C3209 C 0.28985 0.35025 1.0069 0.0
C3210 C 0.30753 0.32842 1.00612 0.0
C3211 C 0.31981 0.3187 1.01383 0.0
C3212 C 0.31522 0.33048 0.02209 0.0
C3213 C 0.33282 0.31843 0.02931 0.0
C3214 C 0.36471 0.35272 0.03402 0.0
C3215 C 0.3029 0.2919 0.03597 0.0
C3216 C 0.34799 0.29789 0.02388 0.0
C3217 C 0.33969 0.29766 1.01497 0.0
C3218 C 0.35001 0.2792 1.00875 0.0
C3219 C 0.3697 0.26115 1.01171 0.0
C3220 C 0.37966 0.26242 0.02076 0.0
C3221 C 0.36848 0.28099 0.02688 0.0
H3222 H 0.0787 0.34055 0.50636 0.0
H3223 H 0.10428 0.39118 0.53259 0.0
H3224 H 0.03769 0.35702 0.53643 0.0
H3225 H 0.9881 0.34005 0.50383 0.0
H3226 H 0.9644 0.2951 0.49839 0.0
H3227 H 1.0145 0.32484 0.49717 0.0
H3228 H 0.02448 0.27104 0.50285 0.0
H3229 H 0.97442 0.24124 0.50411 0.0
H3230 H 1.00515 0.24949 0.51344 0.0
H3231 H 0.97055 0.31577 0.53828 0.0
H3232 H 0.90268 0.27046 0.53757 0.0
H3233 H 0.91474 0.24505 0.51025 0.0
C3234 C 0.07011 0.34464 0.51286 0.0
C3235 C 0.0973 0.36843 0.51921 0.0
C3236 C 0.0846 0.37279 0.52764 0.0
C3237 C 0.04657 0.35358 0.52991 0.0
C3238 C 0.02074 0.32976 0.5237 0.0
C3239 C 0.0315 0.32522 0.5153 0.0
C3240 C 0.9969 0.29682 0.5101 0.0
C3241 C 0.99061 0.31532 0.50188 0.0
C3242 C 1.00046 0.26262 0.50747 0.0
C3243 C 0.96567 0.28613 0.51696 0.0
C3244 C 0.98054 0.3057 0.52474 0.0
C3245 C 0.95842 0.30037 0.53221 0.0
C3246 C 0.91993 0.27441 0.53178 0.0
C3247 C 0.90355 0.25411 0.52392 0.0
C3248 C 0.92666 0.26019 0.51636 0.0
H3249 H 0.70827 0.77385 0.52107 0.0
H3250 H 0.60726 0.68203 0.50966 0.0
H3251 H 0.63617 0.64186 0.51019 0.0
H3252 H 0.77247 0.74994 0.50856 0.0
H3253 H 0.80616 0.76472 0.51747 0.0
H3254 H 0.77833 0.78709 0.51586 0.0
H3255 H 0.75472 0.77131 0.5321 0.0
H3256 H 0.78235 0.74884 0.53375 0.0
H3257 H 0.73247 0.72327 0.53587 0.0
H3258 H 0.67428 0.61074 0.5125 0.0
H3259 H 0.71944 0.59019 0.51627 0.0
H3260 H 0.79771 0.70154 0.52611 0.0
C3261 C 0.69248 0.74538 0.51862 0.0
C3262 C 0.6555 0.73105 0.5153 0.0
C3263 C 0.63575 0.69373 0.51212 0.0
C3264 C 0.65191 0.67066 0.51242 0.0
C3265 C 0.6883 0.68549 0.51574 0.0
C3266 C 0.70866 0.72211 0.51866 0.0
C3267 C 0.74757 0.73092 0.52177 0.0
C3268 C 0.77794 0.7599 0.51555 0.0
C3269 C 0.75466 0.74436 0.53145 0.0
C3270 C 0.74476 0.69277 0.52078 0.0
C3271 C 0.71059 0.66736 0.51706 0.0
C3272 C 0.70119 0.63046 0.51536 0.0
C3273 C 0.72721 0.61907 0.51753 0.0
C3274 C 0.76224 0.64417 0.52152 0.0
C3275 C 0.77113 0.68165 0.52313 0.0
H3276 H 0.27498 0.93546 0.52806 0.0
H3277 H 0.30011 0.93218 0.50019 0.0
H3278 H 0.33324 1.00145 0.49963 0.0
H3279 H 0.25941 0.01474 0.52648 0.0
H3280 H 0.28096 0.03362 0.53707 0.0
H3281 H 0.25813 0.9838 0.53516 0.0
H3282 H 0.31938 0.98389 0.53947 0.0
H3283 H 0.34237 0.03365 0.54142 0.0
H3284 H 0.36249 0.01495 0.53375 0.0
H3285 H 0.36594 0.07237 0.50235 0.0
H3286 H 0.395 0.13719 0.5082 0.0
H3287 H 0.34801 0.09332 0.53415 0.0
C3288 C 0.28707 0.94915 0.52179 0.0
C3289 C 0.28458 0.92806 0.51415 0.0
C3290 C 0.30126 0.94746 0.50613 0.0
C3291 C 0.32025 0.98692 0.50575 0.0
C3292 C 0.32231 1.00677 0.51342 0.0
C3293 C 0.30609 0.98844 0.52129 0.0
C3294 C 0.31294 0.01611 0.52867 0.0
C3295 C 0.27564 0.0118 0.53204 0.0
C3296 C 0.33565 0.01189 0.53627 0.0
C3297 C 0.33581 0.05292 0.52377 0.0
C3298 C 0.34086 0.04709 0.51497 0.0
C3299 C 0.36177 0.07713 0.50921 0.0
C3300 C 0.37799 0.11391 0.51257 0.0
C3301 C 0.37329 0.12034 0.52159 0.0
C3302 C 0.3518 0.08932 0.52721 0.0
H3303 H 0.04802 0.40192 0.36369 0.0
H3304 H 0.99308 0.43395 0.34362 0.0
H3305 H 0.94706 0.36789 0.34108 0.0
H3306 H 0.04013 0.32332 0.35281 0.0
H3307 H 0.02886 0.29303 0.36236 0.0
H3308 H 0.0553 0.34316 0.36372 0.0
H3309 H 1.00619 0.3395 0.37501 0.0
H3310 H 0.97956 0.28924 0.37368 0.0
H3311 H 0.95735 0.31706 0.37188 0.0
H3312 H 0.91178 0.30043 0.33911 0.0
H3313 H 0.88798 0.23275 0.33784 0.0
H3314 H 0.96174 0.23865 0.3592 0.0
C3315 C 0.02566 0.39492 0.35895 0.0
C3316 C 0.02436 0.42356 0.35386 0.0
C3317 C 0.99502 0.41296 0.34759 0.0
C3318 C 0.96846 0.37531 0.34611 0.0
C3319 C 0.97094 0.34786 0.35098 0.0
C3320 C 0.99844 0.3568 0.35734 0.0
C3321 C 0.99527 0.32077 0.36118 0.0
C3322 C 0.03209 0.32004 0.35993 0.0
C3323 C 0.98393 0.31639 0.37102 0.0
C3324 C 0.96344 0.29076 0.35555 0.0
C3325 C 0.94952 0.30746 0.34988 0.0
C3326 C 0.92189 0.28688 0.34362 0.0
C3327 C 0.9085 0.24834 0.34294 0.0
C3328 C 0.92235 0.23018 0.3485 0.0
C3329 C 0.9498 0.25158 0.35503 0.0
H3330 H 0.77003 0.68207 0.33706 0.0
H3331 H 0.81232 0.71711 0.36372 0.0
H3332 H 0.74704 0.68684 0.36942 0.0
H3333 H 0.69289 0.69864 0.33892 0.0
H3334 H 0.66178 0.65896 0.33219 0.0
H3335 H 0.71178 0.68191 0.33042 0.0
H3336 H 0.71024 0.6186 0.33271 0.0
H3337 H 0.6602 0.59547 0.33446 0.0
H3338 H 0.69011 0.59203 0.34274 0.0
H3339 H 0.6757 0.65387 0.37198 0.0
H3340 H 0.60627 0.62163 0.37121 0.0
H3341 H 0.61174 0.60887 0.34273 0.0
C3342 C 0.7656 0.68305 0.34412 0.0
C3343 C 0.79636 0.70149 0.34999 0.0
C3344 C 0.7893 0.70255 0.35915 0.0
C3345 C 0.75223 0.68559 0.36242 0.0
C3346 C 0.72249 0.66771 0.35643 0.0
C3347 C 0.7289 0.66637 0.34747 0.0
C3348 C 0.69235 0.64644 0.34233 0.0
C3349 C 0.68954 0.67308 0.33557 0.0
C3350 C 0.68798 0.61103 0.33779 0.0
C3351 C 0.66421 0.63653 0.34979 0.0
C3352 C 0.68201 0.64906 0.35788 0.0
C3353 C 0.66158 0.64378 0.36568 0.0
C3354 C 0.62207 0.62537 0.36517 0.0
C3355 C 0.60327 0.61232 0.35693 0.0
C3356 C 0.62494 0.618 0.34917 0.0
H3357 H 0.32644 0.0898 0.36157 0.0
H3358 H 0.32834 0.09874 0.33279 0.0
H3359 H 0.35735 0.05938 0.33177 0.0
H3360 H 0.41752 0.09487 0.36325 0.0
H3361 H 0.40452 0.06162 0.37223 0.0
H3362 H 0.38177 0.08926 0.37105 0.0
H3363 H 0.31699 0.02871 0.37075 0.0
H3364 H 0.33952 1.00087 0.37192 0.0
H3365 H 0.30815 0.99272 0.36274 0.0
H3366 H 0.3872 0.02194 0.33332 0.0
H3367 H 0.41896 0.98719 0.33743 0.0
H3368 H 0.40095 0.99944 0.36537 0.0
C3369 C 0.33294 0.08324 0.35508 0.0
C3370 C 0.32523 0.09768 0.34724 0.0
C3371 C 0.3343 0.08861 0.33889 0.0
C3372 C 0.35065 0.06598 0.33822 0.0
C3373 C 0.35832 0.05261 0.34597 0.0
C3374 C 0.35011 0.06079 0.35427 0.0
C3375 C 0.3633 0.04345 0.36145 0.0
C3376 C 0.39357 0.07413 0.36734 0.0
C3377 C 0.32999 0.01472 0.36705 0.0
C3378 C 0.37989 0.02433 0.3558 0.0
C3379 C 0.37643 0.03031 0.3469 0.0
C3380 C 0.39017 0.01704 0.34026 0.0
C3381 C 0.40846 0.99744 0.34269 0.0
C3382 C 0.41293 0.99075 0.35172 0.0
C3383 C 0.39792 1.00399 0.3584 0.0
H3384 H 0.19648 0.31347 0.08263 0.0
H3385 H 0.27649 0.43269 0.08485 0.0
H3386 H 0.2797 0.42548 0.10098 0.0
H3387 H 0.14427 0.30678 0.10167 0.0
H3388 H 0.13583 0.26111 0.10505 0.0
H3389 H 0.1434 0.27432 0.09351 0.0
H3390 H 0.19808 0.25999 0.09299 0.0
H3391 H 0.19071 0.24681 0.10456 0.0
H3392 H 0.23633 0.28259 0.10077 0.0
H3393 H 0.27173 0.40665 0.11704 0.0
H3394 H 0.25064 0.37848 0.13184 0.0
H3395 H 0.1719 0.27227 0.11959 0.0
C3396 C 0.21491 0.33811 0.08647 0.0
C3397 C 0.23655 0.37367 0.08231 0.0
C3398 C 0.26033 0.40492 0.0877 0.0
C3399 C 0.26221 0.40118 0.09694 0.0
C3400 C 0.24018 0.36598 0.1008 0.0
C3401 C 0.21697 0.33494 0.09575 0.0
C3402 C 0.19446 0.30079 0.10165 0.0
C3403 C 0.15197 0.28483 0.1004 0.0
C3404 C 0.20556 0.27076 0.09988 0.0
C3405 C 0.20737 0.31794 0.11082 0.0
C3406 C 0.23443 0.35537 0.11014 0.0
C3407 C 0.25041 0.3774 0.11764 0.0
C3408 C 0.23789 0.36111 0.12606 0.0
C3409 C 0.20897 0.32316 0.12701 0.0
C3410 C 0.19417 0.30122 0.1192 0.0
H3411 H 0.71121 0.88776 0.08246 0.0
H3412 H 0.59301 0.85504 0.08392 0.0
H3413 H 0.59919 0.86632 0.10002 0.0
H3414 H 0.71201 0.84048 0.10165 0.0
H3415 H 0.75848 0.87531 0.10518 0.0
H3416 H 0.74646 0.87045 0.09358 0.0
H3417 H 0.76581 0.94081 0.09284 0.0
H3418 H 0.77778 0.94579 0.10447 0.0
H3419 H 0.74463 0.9589 0.10037 0.0
H3420 H 0.61653 0.87628 0.11612 0.0
H3421 H 0.64261 0.88042 0.13108 0.0
H3422 H 0.74814 0.90147 0.11941 0.0
C3423 C 0.68664 0.88329 0.08612 0.0
C3424 C 0.65167 0.87085 0.0818 0.0
C3425 C 0.62039 0.86553 0.08693 0.0
C3426 C 0.62354 0.87165 0.09613 0.0
C3427 C 0.65816 0.88315 0.10017 0.0
C3428 C 0.68917 0.8889 0.09534 0.0
C3429 C 0.72227 0.8982 0.1014 0.0
C3430 C 0.73556 0.86938 0.10039 0.0
C3431 C 0.75454 0.93831 0.09966 0.0
C3432 C 0.70452 0.8952 0.11041 0.0
C3433 C 0.6678 0.8874 0.10953 0.0
C3434 C 0.64526 0.88239 0.11689 0.0
C3435 C 0.66029 0.88449 0.12538 0.0
C3436 C 0.69735 0.89079 0.12648 0.0
C3437 C 0.71991 0.89705 0.11885 0.0
H3438 H 0.14256 0.86309 0.11999 0.0
H3439 H 0.11988 0.75543 0.13052 0.0
H3440 H 0.12386 0.7348 0.11533 0.0
H3441 H 0.08991 0.82693 0.09912 0.0
H3442 H 0.12353 0.86708 0.09283 0.0
H3443 H 0.11596 0.87203 0.10442 0.0
H3444 H 0.1871 0.8998 0.10747 0.0
H3445 H 0.19491 0.89492 0.09592 0.0
H3446 H 0.20967 0.87354 0.10429 0.0
H3447 H 0.13293 0.72712 0.09892 0.0
H3448 H 0.14836 0.73373 0.08294 0.0
H3449 H 0.16708 0.84743 0.08345 0.0
C3450 C 0.13757 0.83484 0.1191 0.0
C3451 C 0.13066 0.8108 0.12647 0.0
C3452 C 0.12538 0.77443 0.125 0.0
C3453 C 0.12735 0.76239 0.11639 0.0
C3454 C 0.13457 0.78699 0.10929 0.0
C3455 C 0.13952 0.82245 0.11058 0.0
C3456 C 0.14883 0.84426 0.10194 0.0
C3457 C 0.1177 0.85309 0.09943 0.0
C3458 C 0.18742 0.88024 0.10244 0.0
C3459 C 0.14942 0.81598 0.09562 0.0
C3460 C 0.14054 0.7829 0.09995 0.0
C3461 C 0.13993 0.75295 0.09548 0.0
C3462 C 0.14906 0.75711 0.08639 0.0
C3463 C 0.15918 0.79118 0.08185 0.0
C3464 C 0.1589 0.82073 0.0866 0.0
H3465 H 0.37687 0.26167 0.45384 0.0
H3466 H 0.34636 0.1468 0.46022 0.0
H3467 H 0.32748 0.1285 0.44475 0.0
H3468 H 0.30056 0.23787 0.43806 0.0
H3469 H 0.32861 0.27569 0.4305 0.0
H3470 H 0.33961 0.28075 0.44218 0.0
H3471 H 0.4075 0.29617 0.43865 0.0
H3472 H 0.39677 0.29132 0.42696 0.0
H3473 H 0.41504 0.26397 0.43206 0.0
H3474 H 0.31255 0.12152 0.42896 0.0
H3475 H 0.30235 0.12639 0.41299 0.0
H3476 H 0.34208 0.24523 0.41597 0.0
C3477 C 0.36603 0.23267 0.45196 0.0
C3478 C 0.36239 0.20547 0.45833 0.0
C3479 C 0.34839 0.1679 0.45557 0.0
C3480 C 0.33786 0.15724 0.44677 0.0
C3481 C 0.34138 0.18439 0.44071 0.0
C3482 C 0.35506 0.22134 0.44311 0.0
C3483 C 0.35589 0.24454 0.43511 0.0
C3484 C 0.32959 0.26066 0.43655 0.0
C3485 C 0.3962 0.27585 0.43308 0.0
C3486 C 0.34096 0.21474 0.42787 0.0
C3487 C 0.33274 0.18031 0.43134 0.0
C3488 C 0.31875 0.14823 0.42614 0.0
C3489 C 0.31302 0.15123 0.4171 0.0
C3490 C 0.32131 0.18599 0.41332 0.0
C3491 C 0.33544 0.2183 0.41875 0.0
H3492 H 0.78484 0.08831 0.41847 0.0
H3493 H 0.87802 0.1993 0.41252 0.0
H3494 H 0.8802 0.21757 0.42811 0.0
H3495 H 0.73911 0.12003 0.43423 0.0
H3496 H 0.7244 0.08086 0.44172 0.0
H3497 H 0.72978 0.07516 0.43004 0.0
H3498 H 0.77583 0.05121 0.43369 0.0
H3499 H 0.77045 0.05666 0.44537 0.0
H3500 H 0.81662 0.07954 0.44044 0.0
H3501 H 0.87441 0.22461 0.44388 0.0
H3502 H 0.85949 0.2209 0.45979 0.0
H3503 H 0.76797 0.10677 0.45638 0.0
C3504 C 0.80553 0.11639 0.42051 0.0
C3505 C 0.83105 0.14266 0.41428 0.0
C3506 C 0.85789 0.17908 0.41715 0.0
C3507 C 0.85946 0.18966 0.42599 0.0
C3508 C 0.83386 0.16359 0.43194 0.0
C3509 C 0.80721 0.12776 0.4294 0.0
C3510 C 0.78287 0.10592 0.43731 0.0
C3511 C 0.74159 0.09485 0.43573 0.0
C3512 C 0.78669 0.07128 0.43932 0.0
C3513 C 0.80045 0.13517 0.44464 0.0
C3514 C 0.82991 0.16803 0.4413 0.0
C3515 C 0.8514 0.19911 0.44661 0.0
C3516 C 0.84283 0.1967 0.45562 0.0
C3517 C 0.8129 0.16358 0.45928 0.0
C3518 C 0.79104 0.1324 0.45372 0.0
H3519 H 0.91924 0.7339 0.42025 0.0
H3520 H 0.85069 0.62355 0.40863 0.0
H3521 H 0.83925 0.59512 0.42351 0.0
H3522 H 0.96063 0.70104 0.4379 0.0
H3523 H 0.96132 0.73362 0.44597 0.0
H3524 H 0.96669 0.74562 0.43433 0.0
H3525 H 0.91062 0.75763 0.43525 0.0
H3526 H 0.9049 0.74548 0.44685 0.0
H3527 H 0.86591 0.72108 0.43933 0.0
H3528 H 0.83105 0.57857 0.4395 0.0
H3529 H 0.82712 0.57453 0.45578 0.0
H3530 H 0.90241 0.69486 0.45754 0.0
C3531 C 0.90243 0.70369 0.4208 0.0
C3532 C 0.8855 0.68109 0.41319 0.0
C3533 C 0.86334 0.64168 0.4143 0.0
C3534 C 0.85694 0.62515 0.42275 0.0
C3535 C 0.87327 0.6482 0.43008 0.0
C3536 C 0.89591 0.68657 0.42923 0.0
C3537 C 0.90914 0.70476 0.4383 0.0
C3538 C 0.95199 0.7223 0.43918 0.0
C3539 C 0.89688 0.73395 0.44003 0.0
C3540 C 0.88871 0.67078 0.44437 0.0
C3541 C 0.86885 0.63844 0.43944 0.0
C3542 C 0.84697 0.60359 0.44344 0.0
C3543 C 0.84512 0.60159 0.45273 0.0
C3544 C 0.86482 0.63423 0.45801 0.0
C3545 C 0.88707 0.66933 0.45372 0.0
H3546 H 0.80095 0.65338 0.91352 0.0
H3547 H 0.86236 0.77519 0.91462 0.0
H3548 H 0.85539 0.77238 0.93082 0.0
H3549 H 0.73726 0.63979 0.93289 0.0
H3550 H 0.73827 0.59874 0.93673 0.0
H3551 H 0.74242 0.60968 0.92503 0.0
H3552 H 0.8048 0.60844 0.92444 0.0
H3553 H 0.80086 0.59753 0.9361 0.0
H3554 H 0.84253 0.6379 0.93188 0.0
H3555 H 0.84649 0.75759 0.94686 0.0
H3556 H 0.84082 0.73199 0.96187 0.0
H3557 H 0.78979 0.61935 0.95101 0.0
C3558 C 0.81254 0.6795 0.91715 0.0
C3559 C 0.83178 0.71458 0.91265 0.0
C3560 C 0.8465 0.74794 0.91774 0.0
C3561 C 0.84286 0.74668 0.92701 0.0
C3562 C 0.8243 0.71184 0.9312 0.0
C3563 C 0.80929 0.67877 0.92647 0.0
C3564 C 0.79323 0.64519 0.93275 0.0
C3565 C 0.75025 0.62197 0.93179 0.0
C3566 C 0.81148 0.62086 0.9312 0.0
C3567 C 0.80412 0.66479 0.94173 0.0
C3568 C 0.82075 0.70318 0.94062 0.0
C3569 C 0.83366 0.72759 0.94781 0.0
C3570 C 0.83064 0.71269 0.95634 0.0
C3571 C 0.81577 0.67364 0.95771 0.0
C3572 C 0.8013 0.6493 0.95026 0.0
H3573 H 0.2918 0.0893 0.91766 0.0
H3574 H 0.38476 0.19234 0.90709 0.0
H3575 H 0.41351 0.20801 0.92187 0.0
H3576 H 0.28274 0.12816 0.93766 0.0
H3577 H 0.27214 0.08812 0.94455 0.0
H3578 H 0.26061 0.08179 0.93291 0.0
H3579 H 0.29915 0.04815 0.93096 0.0
H3580 H 0.31082 0.05432 0.94262 0.0
H3581 H 0.34766 0.07128 0.93441 0.0
H3582 H 0.43079 0.21567 0.93774 0.0
H3583 H 0.43441 0.21626 0.95402 0.0
H3584 H 0.32943 0.1103 0.95511 0.0
C3585 C 0.31836 0.11503 0.91842 0.0
C3586 C 0.33612 0.1392 0.91104 0.0
C3587 C 0.37091 0.17256 0.91244 0.0
C3588 C 0.38746 0.18197 0.92088 0.0
C3589 C 0.36909 0.1579 0.92796 0.0
C3590 C 0.33532 0.12509 0.92687 0.0
C3591 C 0.32061 0.10551 0.93578 0.0
C3592 C 0.28172 0.10063 0.93785 0.0
C3593 C 0.3195 0.06757 0.93595 0.0
C3594 C 0.35063 0.13343 0.94206 0.0
C3595 C 0.37868 0.1629 0.93732 0.0
C3596 C 0.40922 0.19257 0.94152 0.0
C3597 C 0.41112 0.19251 0.95081 0.0
C3598 C 0.38248 0.16323 0.95592 0.0
C3599 C 0.35185 0.13311 0.95142 0.0
H3600 H 0.84577 0.15317 0.91542 0.0
H3601 H 0.95661 0.2484 0.91046 0.0
H3602 H 0.96012 0.26812 0.92613 0.0
H3603 H 0.81381 0.20096 0.93009 0.0
H3604 H 0.78788 0.16038 0.93709 0.0
H3605 H 0.79441 0.15452 0.9255 0.0
H3606 H 0.82402 0.11363 0.92968 0.0
H3607 H 0.81756 0.11931 0.94127 0.0
H3608 H 0.86365 0.13217 0.93714 0.0
H3609 H 0.95049 0.27715 0.94271 0.0
H3610 H 0.93001 0.27267 0.95838 0.0
H3611 H 0.82555 0.1717 0.95203 0.0
C3612 C 0.87063 0.17853 0.91755 0.0
C3613 C 0.90076 0.19936 0.91163 0.0
C3614 C 0.93316 0.2318 0.91484 0.0
C3615 C 0.93532 0.24335 0.92373 0.0
C3616 C 0.9049 0.22215 0.92937 0.0
C3617 C 0.87324 0.19036 0.92636 0.0
C3618 C 0.84455 0.17187 0.9337 0.0
C3619 C 0.808 0.17195 0.93146 0.0
C3620 C 0.83702 0.13188 0.93555 0.0
C3621 C 0.865 0.19788 0.94136 0.0
C3622 C 0.89967 0.22696 0.93876 0.0
C3623 C 0.92338 0.25442 0.94478 0.0
C3624 C 0.91147 0.25176 0.95367 0.0
C3625 C 0.87631 0.22164 0.95648 0.0
C3626 C 0.85284 0.19472 0.95016 0.0
H3627 H 0.62849 0.75956 0.58528 0.0
H3628 H 0.72395 0.86118 0.57499 0.0
H3629 H 0.75132 0.87682 0.58992 0.0
H3630 H 0.61928 0.79727 0.60562 0.0
H3631 H 0.60855 0.75682 0.61236 0.0
H3632 H 0.59702 0.75117 0.60072 0.0
H3633 H 0.63534 0.71738 0.59857 0.0
H3634 H 0.64705 0.72296 0.61022 0.0
H3635 H 0.68385 0.74023 0.60201 0.0
H3636 H 0.76765 0.88411 0.60569 0.0
H3637 H 0.77157 0.88369 0.62195 0.0
H3638 H 0.66605 0.77819 0.62289 0.0
C3639 C 0.65532 0.78486 0.58618 0.0
C3640 C 0.67439 0.8088 0.57888 0.0
C3641 C 0.70928 0.84182 0.58038 0.0
C3642 C 0.72503 0.85112 0.58886 0.0
C3643 C 0.7058 0.82709 0.59588 0.0
C3644 C 0.6718 0.79456 0.59469 0.0
C3645 C 0.65696 0.77453 0.60355 0.0
C3646 C 0.61815 0.76969 0.60568 0.0
C3647 C 0.65572 0.73652 0.60359 0.0
C3648 C 0.68706 0.80202 0.60988 0.0
C3649 C 0.71525 0.83161 0.60521 0.0
C3650 C 0.74601 0.8609 0.60943 0.0
C3651 C 0.74809 0.86027 0.61869 0.0
C3652 C 0.71943 0.83075 0.62373 0.0
C3653 C 0.68848 0.80109 0.61923 0.0
H3654 H 0.26289 0.91455 0.58232 0.0
H3655 H 0.16802 0.80254 0.57848 0.0
H3656 H 0.15233 0.79875 0.59432 0.0
H3657 H 0.28864 0.89796 0.60449 0.0
H3658 H 0.30024 0.94345 0.60871 0.0
H3659 H 0.30564 0.93755 0.59705 0.0
H3660 H 0.2629 0.9653 0.59324 0.0
H3661 H 0.25719 0.97106 0.60489 0.0
H3662 H 0.21645 0.94449 0.59799 0.0
H3663 H 0.1461 0.80558 0.61013 0.0
H3664 H 0.14811 0.82386 0.62575 0.0
H3665 H 0.2448 0.93294 0.62011 0.0
C3666 C 0.23887 0.88937 0.58487 0.0
C3667 C 0.21627 0.85894 0.57917 0.0
C3668 C 0.18518 0.82634 0.5827 0.0
C3669 C 0.1762 0.82383 0.5917 0.0
C3670 C 0.19846 0.85424 0.59712 0.0
C3671 C 0.22907 0.88653 0.59392 0.0
C3672 C 0.24729 0.91526 0.60132 0.0
C3673 C 0.28786 0.92406 0.60299 0.0
C3674 C 0.24585 0.95115 0.59923 0.0
C3675 C 0.22184 0.89391 0.60911 0.0
C3676 C 0.19423 0.85864 0.60647 0.0
C3677 C 0.16754 0.83307 0.61232 0.0
C3678 C 0.16896 0.84365 0.62117 0.0
C3679 C 0.19666 0.87956 0.6241 0.0
C3680 C 0.22337 0.90528 0.61799 0.0
H3681 H 0.18675 0.41061 0.5862 0.0
H3682 H 0.10544 0.30424 0.57448 0.0
H3683 H 0.08534 0.2772 0.58946 0.0
H3684 H 0.21457 0.37488 0.60385 0.0
H3685 H 0.21839 0.40895 0.61191 0.0
H3686 H 0.22479 0.42094 0.60029 0.0
H3687 H 0.1725 0.43867 0.60102 0.0
H3688 H 0.16604 0.42695 0.61267 0.0
H3689 H 0.12665 0.40497 0.60517 0.0
H3690 H 0.07799 0.26004 0.60574 0.0
H3691 H 0.08272 0.25471 0.62192 0.0
H3692 H 0.16507 0.37359 0.62316 0.0
C3693 C 0.16407 0.38189 0.58675 0.0
C3694 C 0.14793 0.3596 0.57908 0.0
C3695 C 0.11884 0.32185 0.58019 0.0
C3696 C 0.10696 0.30626 0.58869 0.0
C3697 C 0.12397 0.32881 0.59608 0.0
C3698 C 0.15159 0.36595 0.59519 0.0
C3699 C 0.16613 0.38378 0.60421 0.0
C3700 C 0.20847 0.39796 0.60511 0.0
C3701 C 0.15729 0.41547 0.60586 0.0
C3702 C 0.1432 0.35056 0.61028 0.0
C3703 C 0.1189 0.31918 0.60547 0.0
C3704 C 0.09641 0.28464 0.60959 0.0
C3705 C 0.09912 0.28199 0.61884 0.0
C3706 C 0.1241 0.31372 0.62396 0.0
C3707 C 0.14586 0.34857 0.61954 0.0
H3708 H 0.95396 0.4836 0.75321 0.0
H3709 H 0.0349 0.59124 0.7419 0.0
H3710 H 0.06071 0.61418 0.75685 0.0
H3711 H 0.93844 0.52222 0.77393 0.0
H3712 H 0.93366 0.48352 0.78056 0.0
H3713 H 0.91986 0.47639 0.76904 0.0
H3714 H 0.96439 0.44971 0.76619 0.0
H3715 H 0.97822 0.45681 0.77769 0.0
H3716 H 1.0134 0.47747 0.76911 0.0
H3717 H 0.07877 0.62513 0.77322 0.0
H3718 H 0.08907 0.62212 0.78925 0.0
H3719 H 0.9982 0.50628 0.78976 0.0
C3720 C 0.97665 0.51224 0.75386 0.0
C3721 C 0.99229 0.53546 0.74627 0.0
C3722 C 0.02255 0.57256 0.74752 0.0
C3723 C 0.03729 0.58602 0.75603 0.0
C3724 C 0.0215 0.56223 0.76332 0.0
C3725 C 0.99176 0.52613 0.76232 0.0
C3726 C 0.98076 0.5058 0.7712 0.0
C3727 C 0.9408 0.49642 0.77384 0.0
C3728 C 0.98444 0.47036 0.77103 0.0
C3729 C 1.00978 0.53553 0.77728 0.0
C3730 C 0.03253 0.56816 0.77265 0.0
C3731 C 0.06119 0.59956 0.77688 0.0
C3732 C 0.06706 0.5974 0.78603 0.0
C3733 C 0.04487 0.56381 0.79092 0.0
C3734 C 0.01558 0.53268 0.78639 0.0
H3735 H 0.52734 0.51772 0.75139 0.0
H3736 H 0.44155 0.40111 0.74794 0.0
H3737 H 0.42264 0.39846 0.76364 0.0
H3738 H 0.55444 0.50982 0.77331 0.0
H3739 H 0.56121 0.55461 0.77686 0.0
H3740 H 0.56738 0.54715 0.76535 0.0
H3741 H 0.51849 0.56658 0.76081 0.0
H3742 H 0.51221 0.57421 0.7723 0.0
H3743 H 0.47223 0.54266 0.76569 0.0
H3744 H 0.41315 0.40934 0.78006 0.0
H3745 H 0.41554 0.43212 0.7954 0.0
H3746 H 0.50693 0.54158 0.78774 0.0
C3747 C 0.50416 0.49168 0.75385 0.0
C3748 C 0.4859 0.45967 0.74832 0.0
C3749 C 0.45632 0.426 0.75199 0.0
C3750 C 0.4452 0.42428 0.76091 0.0
C3751 C 0.46384 0.45645 0.76614 0.0
C3752 C 0.4927 0.4895 0.76271 0.0
C3753 C 0.50859 0.52013 0.76966 0.0
C3754 C 0.55038 0.53371 0.7714 0.0
C3755 C 0.50251 0.55283 0.76695 0.0
C3756 C 0.48458 0.49917 0.7776 0.0
C3757 C 0.45867 0.46253 0.77546 0.0
C3758 C 0.43337 0.43801 0.78177 0.0
C3759 C 0.43481 0.45125 0.79048 0.0
C3760 C 0.46157 0.48861 0.79284 0.0
C3761 C 0.48651 0.51271 0.78624 0.0
H3762 H 0.59426 0.06673 0.75339 0.0
H3763 H 0.49704 0.96847 0.74253 0.0
H3764 H 0.48144 0.93985 0.75735 0.0
H3765 H 0.61705 0.01429 0.77007 0.0
H3766 H 0.63123 0.05016 0.77842 0.0
H3767 H 0.63705 0.06275 0.76682 0.0
H3768 H 0.59846 0.09626 0.76895 0.0
H3769 H 0.59249 0.08376 0.78054 0.0
H3770 H 0.5519 0.07073 0.77364 0.0
H3771 H 0.47402 0.92199 0.77312 0.0
H3772 H 0.47406 0.91641 0.78937 0.0
H3773 H 0.57471 0.02591 0.79089 0.0
C3774 C 0.56986 0.03909 0.75414 0.0
C3775 C 0.54727 0.01967 0.74668 0.0
C3776 C 0.51548 0.98361 0.74801 0.0
C3777 C 0.50617 0.96712 0.75644 0.0
C3778 C 0.52887 0.98678 0.7636 0.0
C3779 C 0.56013 0.02192 0.7626 0.0
C3780 C 0.57895 0.03691 0.77157 0.0
C3781 C 0.61841 0.04129 0.77173 0.0
C3782 C 0.58051 0.07412 0.7738 0.0
C3783 C 0.55231 1.00536 0.77775 0.0
C3784 C 0.52415 0.97652 0.77292 0.0
C3785 C 0.49608 0.94423 0.77698 0.0
C3786 C 0.49649 0.94123 0.78624 0.0
C3787 C 0.52455 0.97044 0.79145 0.0
C3788 C 0.55292 1.00304 0.78711 0.0
H3789 H 0.52609 0.0699 0.25211 0.0
H3790 H 0.44304 0.96474 0.24019 0.0
H3791 H 0.4212 0.93787 0.25505 0.0
H3792 H 0.5514 0.0345 0.27 0.0
H3793 H 0.55414 0.06782 0.27814 0.0
H3794 H 0.5615 0.0807 0.26659 0.0
H3795 H 0.50871 0.09771 0.26711 0.0
H3796 H 0.50141 0.08522 0.27872 0.0
H3797 H 0.46268 0.06348 0.27105 0.0
H3798 H 0.41328 0.91948 0.27106 0.0
H3799 H 0.4167 0.9122 0.28717 0.0
H3800 H 0.50064 0.03038 0.28922 0.0
C3801 C 0.50271 0.04153 0.2526 0.0
C3802 C 0.48701 0.01933 0.24486 0.0
C3803 C 0.45655 0.98218 0.24592 0.0
C3804 C 0.44357 0.96666 0.25437 0.0
C3805 C 0.46053 0.98875 0.26181 0.0
C3806 C 0.48889 0.02565 0.26103 0.0
C3807 C 0.50262 0.04282 0.27018 0.0
C3808 C 0.54492 0.05729 0.27129 0.0
C3809 C 0.4933 0.07417 0.27186 0.0
C3810 C 0.47922 0.00912 0.27615 0.0
C3811 C 0.45474 0.97844 0.27116 0.0
C3812 C 0.43168 0.94357 0.27506 0.0
C3813 C 0.43368 0.9398 0.28429 0.0
C3814 C 0.45857 0.97071 0.28964 0.0
C3815 C 0.48131 1.00599 0.28542 0.0
H3816 H 0.04362 0.52913 0.28612 0.0
H3817 H 0.02687 0.41888 0.29264 0.0
H3818 H 1.00951 0.39936 0.27704 0.0
H3819 H 0.96516 0.49706 0.2712 0.0
H3820 H 0.98914 0.53634 0.26374 0.0
H3821 H 1.00121 0.54176 0.27535 0.0
H3822 H 0.07087 0.56536 0.27131 0.0
H3823 H 0.059 0.55997 0.25969 0.0
H3824 H 0.08243 0.53677 0.26441 0.0
H3825 H 0.99349 0.39192 0.26055 0.0
H3826 H 0.97991 0.39724 0.24477 0.0
H3827 H 1.00448 0.51142 0.24943 0.0
C3828 C 0.03586 0.50069 0.28433 0.0
C3829 C 0.03655 0.47556 0.29067 0.0
C3830 C 0.02697 0.43886 0.28793 0.0
C3831 C 0.01689 0.42743 0.27907 0.0
C3832 C 0.01644 0.45295 0.27302 0.0
C3833 C 0.02561 0.4888 0.27555 0.0
C3834 C 0.02263 0.51081 0.26782 0.0
C3835 C 0.99275 0.52214 0.26964 0.0
C3836 C 0.06102 0.54526 0.26569 0.0
C3837 C 1.01025 0.48175 0.26053 0.0
C3838 C 1.00693 0.44858 0.26363 0.0
C3839 C 0.99592 0.41777 0.25806 0.0
C3840 C 0.98807 0.421 0.24911 0.0
C3841 C 0.99123 0.45479 0.2458 0.0
C3842 C 1.00242 0.4854 0.25166 0.0
H3843 H 0.59708 0.57375 0.24827 0.0
H3844 H 0.50143 0.46272 0.24392 0.0
H3845 H 0.48373 0.45882 0.25964 0.0
H3846 H 0.61952 0.55595 0.27072 0.0
H3847 H 0.63122 0.60145 0.27497 0.0
H3848 H 0.63791 0.59591 0.26336 0.0
H3849 H 0.5965 0.62472 0.2592 0.0
H3850 H 0.5895 0.63011 0.27079 0.0
H3851 H 0.54953 0.60433 0.26362 0.0
H3852 H 0.47474 0.46579 0.27526 0.0
H3853 H 0.47489 0.48306 0.29083 0.0
H3854 H 0.57538 0.59055 0.28608 0.0
C3855 C 0.57257 0.5487 0.25069 0.0
C3856 C 0.55034 0.51848 0.24489 0.0
C3857 C 0.51848 0.48617 0.24825 0.0
C3858 C 0.50827 0.48368 0.25716 0.0
C3859 C 0.53009 0.51385 0.2627 0.0
C3860 C 0.56158 0.54584 0.25968 0.0
C3861 C 0.57917 0.57416 0.26722 0.0
C3862 C 0.61934 0.58233 0.26918 0.0
C3863 C 0.57863 0.61048 0.26508 0.0
C3864 C 0.55254 0.55276 0.27486 0.0
C3865 C 0.52462 0.51806 0.272 0.0
C3866 C 0.49655 0.49276 0.27763 0.0
C3867 C 0.49701 0.50279 0.28649 0.0
C3868 C 0.52538 0.53785 0.28974 0.0
C3869 C 0.55335 0.56349 0.28379 0.0
H3870 H 0.97717 0.10994 0.2874 0.0
H3871 H 0.96587 0.20815 0.29206 0.0
H3872 H 0.99531 0.23398 0.27763 0.0
H3873 H 0.06928 0.16111 0.27696 0.0
H3874 H 0.05999 0.12466 0.26905 0.0
H3875 H 0.03685 0.11278 0.27969 0.0
H3876 H 0.97227 0.07835 0.27183 0.0
H3877 H 0.99521 0.0904 0.26116 0.0
H3878 H 0.96022 0.1032 0.26378 0.0
H3879 H 0.02439 0.24922 0.26263 0.0
H3880 H 0.05621 0.25551 0.24839 0.0
H3881 H 0.0539 0.15023 0.25341 0.0
C3882 C 0.98109 0.13701 0.28544 0.0
C3883 C 0.96827 0.15651 0.29092 0.0
C3884 C 0.97414 0.19187 0.28797 0.0
C3885 C 0.99118 0.20704 0.27977 0.0
C3886 C 1.00282 0.18691 0.27452 0.0
C3887 C 0.99848 0.15287 0.27724 0.0
C3888 C 1.01459 0.13774 0.27032 0.0
C3889 C 0.04711 0.13386 0.27424 0.0
C3890 C 0.98373 0.10019 0.26655 0.0
C3891 C 0.02864 0.1687 0.26333 0.0
C3892 C 0.02118 0.19654 0.2659 0.0
C3893 C 0.03085 0.22784 0.26059 0.0
C3894 C 0.04926 0.23128 0.25251 0.0
C3895 C 0.05846 0.20385 0.24975 0.0
C3896 C 0.04739 0.1718 0.25525 0.0
H3897 H 0.86037 0.78834 0.28346 0.0
H3898 H 0.89947 0.89465 0.29698 0.0
H3899 H 0.88658 0.92064 0.2836 0.0
H3900 H 0.8968 0.82606 0.26192 0.0
H3901 H 0.85694 0.79089 0.25585 0.0
H3902 H 0.86869 0.77967 0.26652 0.0
H3903 H 0.80163 0.7588 0.27221 0.0
H3904 H 0.78959 0.76979 0.26154 0.0
H3905 H 0.78365 0.79077 0.27145 0.0
H3906 H 0.8722 0.93665 0.26886 0.0
H3907 H 0.85343 0.94097 0.25359 0.0
H3908 H 0.82054 0.82426 0.24917 0.0
C3909 C 0.8658 0.81693 0.28364 0.0
C3910 C 0.88162 0.83955 0.29131 0.0
C3911 C 0.88836 0.87691 0.29119 0.0
C3912 C 0.88086 0.89195 0.28362 0.0
C3913 C 0.8661 0.8693 0.27616 0.0
C3914 C 0.85819 0.83249 0.2761 0.0
C3915 C 0.84216 0.81452 0.26712 0.0
C3916 C 0.86768 0.80206 0.26258 0.0
C3917 C 0.80186 0.78151 0.26814 0.0
C3918 C 0.84267 0.84717 0.26217 0.0
C3919 C 0.85679 0.87843 0.26757 0.0
C3920 C 0.86099 0.91236 0.26457 0.0
C3921 C 0.85045 0.91458 0.25585 0.0
C3922 C 0.8357 0.88311 0.25012 0.0
C3923 C 0.83153 0.84878 0.25338 0.0
H3924 H 0.15506 1.00149 0.29118 0.0
H3925 H 0.25232 0.10885 0.28453 0.0
H3926 H 0.24524 0.09065 0.26879 0.0
H3927 H 0.17486 0.94681 0.27587 0.0
H3928 H 0.12655 0.91567 0.27283 0.0
H3929 H 0.13771 0.93726 0.28363 0.0
H3930 H 0.09403 0.96471 0.28074 0.0
H3931 H 0.08263 0.94314 0.26994 0.0
H3932 H 0.10106 0.99295 0.27098 0.0
H3933 H 0.23053 0.0607 0.25397 0.0
H3934 H 0.20763 0.0207 0.24065 0.0
H3935 H 0.11864 0.93227 0.25626 0.0
C3936 C 0.17465 0.0212 0.28639 0.0
C3937 C 0.20466 0.05651 0.28915 0.0
C3938 C 0.22968 0.08141 0.28265 0.0
C3939 C 0.22572 0.07143 0.27366 0.0
C3940 C 0.19647 0.03636 0.27118 0.0
C3941 C 0.17119 0.01155 0.27731 0.0
C3942 C 0.14294 0.97517 0.27277 0.0
C3943 C 0.14569 0.94175 0.2765 0.0
C3944 C 0.10278 0.96863 0.27366 0.0
C3945 C 0.15656 0.98352 0.26318 0.0
C3946 C 0.18752 0.01904 0.26247 0.0
C3947 C 0.20619 0.0329 0.25442 0.0
C3948 C 0.1931 0.0099 0.2469 0.0
C3949 C 0.16143 0.97338 0.24739 0.0
C3950 C 0.14272 0.96021 0.25566 0.0
H3951 H 0.95616 0.78574 0.78246 0.0
H3952 H 0.99623 0.89768 0.79296 0.0
H3953 H 0.03183 0.92498 0.77923 0.0
H3954 H 0.04511 0.80894 0.77124 0.0
H3955 H 0.02195 0.7788 0.7619 0.0
H3956 H 0.99986 0.7674 0.77267 0.0
H3957 H 0.94071 0.76524 0.76595 0.0
H3958 H 0.9627 0.77683 0.75518 0.0
H3959 H 0.94543 0.80546 0.75998 0.0
H3960 H 0.06065 0.9409 0.76433 0.0
H3961 H 0.08459 0.94479 0.74918 0.0
H3962 H 0.02887 0.82321 0.74799 0.0
C3963 C 0.97284 0.81597 0.78193 0.0
C3964 C 0.97271 0.83947 0.7888 0.0
C3965 C 0.9949 0.87894 0.78776 0.0
C3966 C 0.01553 0.89481 0.77999 0.0
C3967 C 1.01433 0.871 0.77329 0.0
C3968 C 0.99402 0.83245 0.77418 0.0
C3969 C 0.99785 0.81356 0.76588 0.0
C3970 C 0.01735 0.79083 0.76805 0.0
C3971 C 0.95938 0.78882 0.76149 0.0
C3972 C 0.02284 0.8476 0.76016 0.0
C3973 C 0.03191 0.88034 0.76462 0.0
C3974 C 0.05388 0.91547 0.76076 0.0
C3975 C 0.0671 0.91736 0.75211 0.0
C3976 C 0.05842 0.88437 0.74733 0.0
C3977 C 0.03614 0.84895 0.75147 0.0
H3978 H 0.12732 0.13473 0.74875 0.0
H3979 H 0.19241 0.2565 0.74887 0.0
H3980 H 0.21612 0.25483 0.76378 0.0
H3981 H 0.10121 0.12483 0.77216 0.0
H3982 H 0.1044 0.08303 0.77375 0.0
H3983 H 0.09227 0.09334 0.763 0.0
H3984 H 0.14759 0.08939 0.75591 0.0
H3985 H 0.15983 0.07898 0.76662 0.0
H3986 H 0.19444 0.11811 0.76023 0.0
H3987 H 0.23302 0.24064 0.77873 0.0
H3988 H 0.24291 0.2148 0.79258 0.0
H3989 H 0.16736 0.10191 0.78313 0.0
C3990 C 0.14637 0.1611 0.75192 0.0
C3991 C 0.15817 0.1958 0.74749 0.0
C3992 C 0.18343 0.22949 0.75194 0.0
C3993 C 0.19687 0.22888 0.76049 0.0
C3994 C 0.18481 0.19437 0.76462 0.0
C3995 C 0.16011 0.16104 0.76051 0.0
C3996 C 0.15181 0.12781 0.76648 0.0
C3997 C 0.10994 0.10597 0.769 0.0
C3998 C 0.16417 0.10206 0.76204 0.0
C3999 C 0.17616 0.14771 0.77451 0.0
C4000 C 0.1947 0.18612 0.7733 0.0
C4001 C 0.21881 0.21058 0.77973 0.0
C4002 C 0.22449 0.19552 0.78758 0.0
C4003 C 0.2064 0.15618 0.78901 0.0
C4004 C 0.18157 0.13208 0.78235 0.0
H4005 H 0.86787 0.08159 0.78153 0.0
H4006 H 0.88722 1.00339 0.79701 0.0
H4007 H 0.87643 0.96494 0.78371 0.0
H4008 H 0.79227 0.01048 0.76802 0.0
H4009 H 0.80636 0.03852 0.75804 0.0
H4010 H 0.81622 0.06093 0.76875 0.0
H4011 H 0.88684 0.09947 0.76474 0.0
H4012 H 0.87715 0.07716 0.75402 0.0
H4013 H 0.91127 0.0754 0.76126 0.0
H4014 H 0.86491 0.93507 0.76894 0.0
H4015 H 0.85113 0.914 0.75342 0.0
H4016 H 0.8359 1.0086 0.74703 0.0
C4017 C 0.86948 0.0562 0.78216 0.0
C4018 C 0.87898 0.04605 0.79041 0.0
C4019 C 0.881 0.01259 0.79082 0.0
C4020 C 0.8746 0.99026 0.78328 0.0
C4021 C 0.86574 1.00124 0.7753 0.0
C4022 C 0.8629 0.03323 0.77466 0.0
C4023 C 0.85265 0.03816 0.7652 0.0
C4024 C 0.81461 0.03694 0.76499 0.0
C4025 C 0.88384 0.07472 0.76106 0.0
C4026 C 0.85019 1.00387 0.76068 0.0
C4027 C 0.85812 0.98325 0.76668 0.0
C4028 C 0.85858 0.95092 0.76418 0.0
C4029 C 0.85086 0.93926 0.75532 0.0
C4030 C 0.84259 0.95962 0.74897 0.0
C4031 C 0.84191 0.99229 0.75173 0.0
H4032 H 0.64095 0.44832 0.62045 0.0
H4033 H 0.64621 0.55402 0.62666 0.0
H4034 H 0.67564 0.57935 0.61223 0.0
H4035 H 0.73234 0.49104 0.60918 0.0
H4036 H 0.71735 0.45497 0.60085 0.0
H4037 H 0.69573 0.44389 0.61167 0.0
H4038 H 0.63041 0.41806 0.60437 0.0
H4039 H 0.6519 0.42935 0.59353 0.0
H4040 H 0.62206 0.44762 0.59694 0.0
H4041 H 0.70164 0.5934 0.59704 0.0
H4042 H 0.7295 0.5981 0.58238 0.0
H4043 H 0.71388 0.48611 0.58565 0.0
C4044 C 0.64853 0.47689 0.61881 0.0
C4045 C 0.64013 0.4987 0.62475 0.0
C4046 C 0.65086 0.53602 0.62224 0.0
C4047 C 0.66797 0.55092 0.61403 0.0
C4048 C 0.67494 0.52859 0.6083 0.0
C4049 C 0.66615 0.49256 0.61057 0.0
C4050 C 0.67787 0.47532 0.60311 0.0
C4051 C 0.7076 0.46575 0.6064 0.0
C4052 C 0.64351 0.44052 0.59926 0.0
C4053 C 0.69453 0.50741 0.59635 0.0
C4054 C 0.69204 0.53757 0.59952 0.0
C4055 C 0.7044 0.57022 0.59455 0.0
C4056 C 0.72056 0.5727 0.5862 0.0
C4057 C 0.7251 0.54302 0.58281 0.0
C4058 C 0.71115 0.50954 0.58797 0.0
H4059 H 0.5281 0.12256 0.61657 0.0
H4060 H 0.56545 0.22872 0.63002 0.0
H4061 H 0.55223 0.25416 0.61659 0.0
H4062 H 0.56467 0.16005 0.59513 0.0
H4063 H 0.52522 0.1246 0.589 0.0
H4064 H 0.5367 0.11364 0.59974 0.0
H4065 H 0.46924 0.09225 0.60524 0.0
H4066 H 0.45752 0.10301 0.5945 0.0
H4067 H 0.4509 0.12389 0.60434 0.0
H4068 H 0.53823 0.26981 0.60176 0.0
H4069 H 0.52077 0.27395 0.58634 0.0
H4070 H 0.48937 0.15754 0.58208 0.0
C4071 C 0.53302 0.15098 0.61673 0.0
C4072 C 0.54849 0.17375 0.62439 0.0
C4073 C 0.55461 0.21089 0.62424 0.0
C4074 C 0.54689 0.22559 0.61664 0.0
C4075 C 0.53251 0.20281 0.60919 0.0
C4076 C 0.52517 0.16618 0.60916 0.0
C4077 C 0.50966 0.14805 0.60018 0.0
C4078 C 0.53562 0.13588 0.59575 0.0
C4079 C 0.46944 0.11483 0.60112 0.0
C4080 C 0.51004 0.18049 0.59516 0.0
C4081 C 0.52342 0.21171 0.60055 0.0
C4082 C 0.52753 0.24551 0.59748 0.0
C4083 C 0.51775 0.24765 0.58868 0.0
C4084 C 0.50389 0.21621 0.58296 0.0
C4085 C 0.49967 0.182 0.5863 0.0
H4086 H 0.90422 0.39742 0.61736 0.0
H4087 H 0.79075 0.35257 0.62755 0.0
H4088 H 0.76545 0.31731 0.61372 0.0
H4089 H 0.88466 0.40736 0.59466 0.0
H4090 H 0.91519 0.39207 0.58999 0.0
H4091 H 0.92535 0.41392 0.60076 0.0
H4092 H 0.92574 0.35626 0.60759 0.0
H4093 H 0.91581 0.33439 0.59682 0.0
H4094 H 0.88549 0.3102 0.60608 0.0
H4095 H 0.75136 0.28844 0.59864 0.0
H4096 H 0.74952 0.26465 0.58358 0.0
H4097 H 0.87151 0.32497 0.58276 0.0
C4098 C 0.87406 0.3799 0.61675 0.0
C4099 C 0.84965 0.37872 0.62363 0.0
C4100 C 0.81032 0.35524 0.6224 0.0
C4101 C 0.79554 0.33469 0.61455 0.0
C4102 C 0.8202 0.33717 0.60788 0.0
C4103 C 0.85866 0.35876 0.60891 0.0
C4104 C 0.87866 0.35596 0.60064 0.0
C4105 C 0.90236 0.39464 0.59626 0.0
C4106 C 0.90286 0.33815 0.60292 0.0
C4107 C 0.84538 0.32996 0.59479 0.0
C4108 C 0.81199 0.3196 0.59915 0.0
C4109 C 0.77736 0.29634 0.59517 0.0
C4110 C 0.77663 0.28317 0.58654 0.0
C4111 C 0.81027 0.29302 0.58185 0.0
C4112 C 0.84521 0.31669 0.58612 0.0
H4113 H 0.73054 0.23902 0.08519 0.0
H4114 H 0.67223 0.12778 0.07351 0.0
H4115 H 0.63649 0.10254 0.08735 0.0
H4116 H 0.73837 0.21089 0.10719 0.0
H4117 H 0.72945 0.24451 0.11272 0.0
H4118 H 0.75026 0.25468 0.10182 0.0
H4119 H 0.69717 0.26566 0.09601 0.0
H4120 H 0.67624 0.25567 0.1069 0.0
H4121 H 0.64884 0.22953 0.09745 0.0
H4122 H 0.60751 0.08845 0.10242 0.0
H4123 H 0.58619 0.08636 0.11775 0.0
H4124 H 0.66236 0.20635 0.12017 0.0
C4125 C 0.70998 0.20941 0.0855 0.0
C4126 C 0.70472 0.1854 0.07819 0.0
C4127 C 0.67762 0.14677 0.07899 0.0
C4128 C 0.65686 0.13214 0.08683 0.0
C4129 C 0.66309 0.15635 0.0939 0.0
C4130 C 0.68879 0.19421 0.09332 0.0
C4131 C 0.68997 0.21384 0.10199 0.0
C4132 C 0.72935 0.23204 0.10618 0.0
C4133 C 0.6773 0.2429 0.1005 0.0
C4134 C 0.66139 0.18089 0.10755 0.0
C4135 C 0.64618 0.14812 0.10269 0.0
C4136 C 0.61934 0.11392 0.1063 0.0
C4137 C 0.60764 0.11299 0.1151 0.0
C4138 C 0.62274 0.146 0.12033 0.0
C4139 C 0.64998 0.18051 0.11641 0.0
H4140 H 0.84443 0.43743 0.11636 0.0
H4141 H 0.89063 0.5483 0.12799 0.0
H4142 H 0.87889 0.57191 0.11403 0.0
H4143 H 0.88095 0.46741 0.09436 0.0
H4144 H 0.83973 0.43205 0.08872 0.0
H4145 H 0.85097 0.42293 0.09968 0.0
H4146 H 0.78524 0.40765 0.10525 0.0
H4147 H 0.77374 0.4166 0.09429 0.0
H4148 H 0.77002 0.44154 0.1037 0.0
H4149 H 0.86321 0.58456 0.09884 0.0
H4150 H 0.84359 0.58526 0.08345 0.0
H4151 H 0.80693 0.46661 0.08109 0.0
C4152 C 0.85179 0.46661 0.11601 0.0
C4153 C 0.86903 0.491 0.12337 0.0
C4154 C 0.87829 0.52904 0.1225 0.0
C4155 C 0.87143 0.54276 0.11457 0.0
C4156 C 0.855 0.51825 0.10747 0.0
C4157 C 0.84505 0.48091 0.10809 0.0
C4158 C 0.82782 0.4608 0.09936 0.0
C4159 C 0.85128 0.44487 0.09529 0.0
C4160 C 0.78677 0.42981 0.10074 0.0
C4161 C 0.83015 0.49285 0.09374 0.0
C4162 C 0.84583 0.52563 0.09861 0.0
C4163 C 0.85106 0.55908 0.09496 0.0
C4164 C 0.84008 0.55923 0.08612 0.0
C4165 C 0.82401 0.5262 0.08088 0.0
C4166 C 0.81892 0.49245 0.08484 0.0
H4167 H 0.56501 0.3599 0.1202 0.0
H4168 H 0.50402 0.4208 0.11811 0.0
H4169 H 0.48635 0.39867 0.10278 0.0
H4170 H 0.60014 0.37751 0.09727 0.0
H4171 H 0.59511 0.3317 0.09589 0.0
H4172 H 0.60421 0.35284 0.10674 0.0
H4173 H 0.54488 0.29463 0.11286 0.0
H4174 H 0.53563 0.2733 0.10204 0.0
H4175 H 0.5001 0.27937 0.10758 0.0
H4176 H 0.47469 0.37056 0.08777 0.0
H4177 H 0.46741 0.33573 0.074 0.0
H4178 H 0.53424 0.29066 0.08532 0.0
C4179 C 0.5481 0.36872 0.1165 0.0
C4180 C 0.53556 0.39186 0.12048 0.0
C4181 C 0.51335 0.40252 0.11536 0.0
C4182 C 0.50342 0.39036 0.10658 0.0
C4183 C 0.51587 0.36748 0.10289 0.0
C4184 C 0.53768 0.35661 0.10765 0.0
C4185 C 0.54649 0.33113 0.10204 0.0
C4186 C 0.58902 0.34939 0.10039 0.0
C4187 C 0.53083 0.2923 0.10639 0.0
C4188 C 0.52561 0.32895 0.09347 0.0
C4189 C 0.50858 0.35056 0.09414 0.0
C4190 C 0.48767 0.35331 0.08719 0.0
C4191 C 0.48344 0.33306 0.07939 0.0
C4192 C 0.49961 0.30972 0.07853 0.0
C4193 C 0.52152 0.30821 0.08568 0.0
H4194 H 0.41807 0.89555 0.92375 0.0
H4195 H 0.35003 0.78887 0.91043 0.0
H4196 H 0.31327 0.76274 0.92403 0.0
H4197 H 0.42002 0.85849 0.94525 0.0
H4198 H 0.41517 0.89318 0.95149 0.0
H4199 H 0.43681 0.90473 0.94068 0.0
H4200 H 0.38896 0.92429 0.93546 0.0
H4201 H 0.36726 0.91294 0.94628 0.0
H4202 H 0.33934 0.89158 0.9365 0.0
H4203 H 0.28516 0.74614 0.93895 0.0
H4204 H 0.264 0.74094 0.9544 0.0
H4205 H 0.34619 0.85821 0.95872 0.0
C4206 C 0.39518 0.86683 0.92366 0.0
C4207 C 0.38778 0.84417 0.91595 0.0
C4208 C 0.35739 0.8067 0.91622 0.0
C4209 C 0.33597 0.79154 0.92394 0.0
C4210 C 0.3445 0.81413 0.93142 0.0
C4211 C 0.37299 0.8511 0.93137 0.0
C4212 C 0.37554 0.86887 0.94044 0.0
C4213 C 0.41418 0.88209 0.94472 0.0
C4214 C 0.36728 0.90135 0.93962 0.0
C4215 C 0.34437 0.83586 0.94556 0.0
C4216 C 0.32712 0.80467 0.94015 0.0
C4217 C 0.29832 0.7704 0.94324 0.0
C4218 C 0.28662 0.76767 0.95208 0.0
C4219 C 0.3034 0.79896 0.95787 0.0
C4220 C 0.33259 0.83376 0.95449 0.0
H4221 H 0.21461 0.54624 0.95773 0.0
H4222 H 0.19482 0.43378 0.95279 0.0
H4223 H 0.1785 0.43821 0.9373 0.0
H4224 H 0.13953 0.53955 0.94394 0.0
H4225 H 0.16567 0.58694 0.93978 0.0
H4226 H 0.17628 0.57563 0.95058 0.0
H4227 H 0.24568 0.60244 0.94594 0.0
H4228 H 0.23531 0.61382 0.93512 0.0
H4229 H 0.25657 0.58476 0.93612 0.0
H4230 H 0.16403 0.4538 0.92233 0.0
H4231 H 0.15174 0.47954 0.90878 0.0
H4232 H 0.18027 0.5824 0.92287 0.0
C4233 C 0.20699 0.52259 0.95339 0.0
C4234 C 0.20559 0.48934 0.95662 0.0
C4235 C 0.1953 0.45917 0.95064 0.0
C4236 C 0.18627 0.46153 0.94176 0.0
C4237 C 0.18763 0.49434 0.93882 0.0
C4238 C 0.19774 0.52443 0.94442 0.0
C4239 C 0.19661 0.5563 0.93947 0.0
C4240 C 0.1678 0.56511 0.9437 0.0
C4241 C 0.23588 0.59141 0.93914 0.0
C4242 C 0.18399 0.53915 0.93026 0.0
C4243 C 0.17917 0.50344 0.93008 0.0
C4244 C 0.16752 0.48168 0.92241 0.0
C4245 C 0.16029 0.49653 0.91473 0.0
C4246 C 0.1645 0.53295 0.91468 0.0
C4247 C 0.17688 0.55457 0.9226 0.0
H4248 H 0.45071 0.59061 0.92533 0.0
H4249 H 0.53226 0.68063 0.9087 0.0
H4250 H 0.55545 0.72243 0.92175 0.0
H4251 H 0.42996 0.64766 0.94024 0.0
H4252 H 0.42739 0.62128 0.95006 0.0
H4253 H 0.41572 0.59861 0.93938 0.0
H4254 H 0.46496 0.57755 0.94173 0.0
H4255 H 0.47673 0.60015 0.95242 0.0
H4256 H 0.51293 0.61218 0.94422 0.0
H4257 H 0.57045 0.75447 0.93642 0.0
H4258 H 0.5784 0.77474 0.952 0.0
H4259 H 0.48923 0.6641 0.9598 0.0
C4260 C 0.47327 0.61923 0.92446 0.0
C4261 C 0.48968 0.63245 0.91597 0.0
C4262 C 0.51945 0.66989 0.91512 0.0
C4263 C 0.53269 0.69386 0.92249 0.0
C4264 C 0.51625 0.68 0.93076 0.0
C4265 C 0.48736 0.64351 0.93184 0.0
C4266 C 0.47604 0.6355 0.94159 0.0
C4267 C 0.43483 0.62516 0.94289 0.0
C4268 C 0.48309 0.6045 0.9452 0.0
C4269 C 0.50284 0.6733 0.94579 0.0
C4270 C 0.52566 0.69843 0.93937 0.0
C4271 C 0.55293 0.73496 0.94151 0.0
C4272 C 0.55742 0.74614 0.95042 0.0
C4273 C 0.53493 0.72103 0.95722 0.0
C4274 C 0.50691 0.6841 0.9548 0.0
H4275 H 0.33116 0.54206 0.45516 0.0
H4276 H 0.26777 0.42042 0.45352 0.0
H4277 H 0.29221 0.4236 0.43846 0.0
H4278 H 0.31647 0.559 0.43214 0.0
H4279 H 0.36285 0.599 0.43079 0.0
H4280 H 0.3409 0.58783 0.44157 0.0
H4281 H 0.39813 0.58557 0.44809 0.0
H4282 H 0.42024 0.59682 0.43733 0.0
H4283 H 0.41298 0.55526 0.44311 0.0
H4284 H 0.32233 0.43898 0.42353 0.0
H4285 H 0.35757 0.46575 0.4097 0.0
H4286 H 0.40268 0.57785 0.42056 0.0
C4287 C 0.32228 0.51607 0.45164 0.0
C4288 C 0.29768 0.48087 0.45569 0.0
C4289 C 0.28714 0.4477 0.45076 0.0
C4290 C 0.30064 0.44919 0.44213 0.0
C4291 C 0.32474 0.4841 0.43837 0.0
C4292 C 0.33558 0.51702 0.44294 0.0
C4293 C 0.36192 0.55078 0.43727 0.0
C4294 C 0.34449 0.57562 0.43533 0.0
C4295 C 0.40062 0.57343 0.44172 0.0
C4296 C 0.36432 0.53154 0.42886 0.0
C4297 C 0.34243 0.49307 0.42967 0.0
C4298 C 0.33979 0.46908 0.42284 0.0
C4299 C 0.36024 0.48464 0.41501 0.0
C4300 C 0.38349 0.524 0.41398 0.0
C4301 C 0.38514 0.54769 0.42104 0.0
H4302 H 0.44998 0.82159 0.41805 0.0
H4303 H 0.56244 0.90722 0.41024 0.0
H4304 H 0.58719 0.89898 0.42443 0.0
H4305 H 0.4574 0.84505 0.44105 0.0
H4306 H 0.43181 0.79731 0.445 0.0
H4307 H 0.42227 0.80885 0.43411 0.0
H4308 H 0.43562 0.75922 0.42714 0.0
H4309 H 0.44501 0.74739 0.43802 0.0
H4310 H 0.47975 0.7612 0.42936 0.0
H4311 H 0.60036 0.88304 0.43952 0.0
H4312 H 0.60143 0.85902 0.45442 0.0
H4313 H 0.48086 0.78311 0.45291 0.0
C4314 C 0.47988 0.83833 0.41926 0.0
C4315 C 0.50407 0.86554 0.41296 0.0
C4316 C 0.543 0.88688 0.41495 0.0
C4317 C 0.55748 0.8822 0.423 0.0
C4318 C 0.53291 0.85579 0.42908 0.0
C4319 C 0.49498 0.83393 0.42731 0.0
C4320 C 0.47492 0.80761 0.43509 0.0
C4321 C 0.44483 0.81518 0.43905 0.0
C4322 C 0.45782 0.76641 0.43223 0.0
C4323 C 0.50746 0.81869 0.44152 0.0
C4324 C 0.54062 0.84641 0.43787 0.0
C4325 C 0.57453 0.86139 0.44246 0.0
C4326 C 0.57475 0.84773 0.45101 0.0
C4327 C 0.54125 0.81931 0.455 0.0
C4328 C 0.50712 0.80464 0.45011 0.0
H4329 H 0.24571 0.71134 0.45188 0.0
H4330 H 0.14247 0.71357 0.45674 0.0
H4331 H 0.11782 0.68343 0.44234 0.0
H4332 H 0.2513 0.72879 0.42839 0.0
H4333 H 0.26747 0.69659 0.4256 0.0
H4334 H 0.27805 0.71876 0.43634 0.0
H4335 H 0.24741 0.6538 0.44401 0.0
H4336 H 0.23703 0.63141 0.4333 0.0
H4337 H 0.1998 0.61907 0.44124 0.0
H4338 H 0.10476 0.65592 0.42725 0.0
H4339 H 0.10118 0.62666 0.41284 0.0
H4340 H 0.21021 0.63651 0.41768 0.0
C4341 C 0.21778 0.70518 0.44996 0.0
C4342 C 0.19646 0.71577 0.45547 0.0
C4343 C 0.16001 0.70703 0.45262 0.0
C4344 C 0.14555 0.68958 0.44444 0.0
C4345 C 0.16748 0.68038 0.43912 0.0
C4346 C 0.20259 0.68731 0.44179 0.0
C4347 C 0.21972 0.67362 0.43477 0.0
C4348 C 0.2563 0.7064 0.43106 0.0
C4349 C 0.22637 0.64263 0.43856 0.0
C4350 C 0.18873 0.65814 0.42778 0.0
C4351 C 0.15909 0.6627 0.43046 0.0
C4352 C 0.12751 0.65159 0.42515 0.0
C4353 C 0.12565 0.63466 0.41696 0.0
C4354 C 0.15494 0.62827 0.41409 0.0
C4355 C 0.18721 0.6408 0.41959 0.0
loop_
_geom_bond_atom_site_label_1
_geom_bond_atom_site_label_2
_geom_bond_distance
_geom_bond_site_symmetry_2
_ccdc_geom_bond_type
Sm0 C2 2.846 . S
Sm0 O20 2.543 . S
Sm0 O21 2.450 . S
Sm0 O22 2.681 . S
Sm0 O23 2.464 . S
Sm0 O24 2.396 . S
Sm0 O28 2.386 . S
Sm0 O31 2.408 . S
Sm1 C11 2.846 . S
Sm1 O22 2.386 . S
Sm1 O25 2.408 . S
Sm1 O26 2.543 . S
Sm1 O27 2.450 . S
Sm1 O28 2.681 . S
Sm1 O29 2.464 . S
Sm1 O30 2.396 . S
C2 Sm0 2.846 . S
C2 C3 1.506 . S
C2 O20 1.261 . S
C2 O21 1.242 . S
C3 C2 1.506 . S
C3 C4 1.358 . S
C3 C8 1.382 . S
C4 C3 1.358 . S
C4 C5 1.385 . S
C4 H32 0.930 . S
C5 C4 1.385 . S
C5 C6 1.395 . S
C5 H33 0.929 . S
C6 C5 1.395 . S
C6 C7 1.335 . S
C7 C6 1.335 . S
C7 C8 1.398 . S
C7 H34 0.930 . S
C8 C3 1.382 . S
C8 C7 1.398 . S
C8 H35 0.929 . S
C9 O22 1.271 . S
C9 O23 1.251 . S
C10 O24 1.252 . S
C10 O25 1.272 . S
C11 Sm1 2.846 . S
C11 C12 1.506 . S
C11 O26 1.261 . S
C11 O27 1.242 . S
C12 C11 1.506 . S
C12 C13 1.358 . S
C12 C17 1.382 . S
C13 C12 1.358 . S
C13 C14 1.385 . S
C13 H36 0.930 . S
C14 C13 1.385 . S
C14 C15 1.395 . S
C14 H37 0.929 . S
C15 C14 1.395 . S
C15 C16 1.335 . S
C16 C15 1.335 . S
C16 C17 1.398 . S
C16 H38 0.930 . S
C17 C12 1.382 . S
C17 C16 1.398 . S
C17 H39 0.929 . S
C18 O28 1.271 . S
C18 O29 1.251 . S
C19 O30 1.252 . S
C19 O31 1.272 . S
O20 Sm0 2.543 . S
O20 C2 1.261 . S
O21 Sm0 2.450 . S
O21 C2 1.242 . S
O22 Sm0 2.681 . S
O22 Sm1 2.386 . S
O22 C9 1.271 . S
O23 Sm0 2.464 . S
O23 C9 1.251 . S
O24 Sm0 2.396 . S
O24 C10 1.252 . S
O25 Sm1 2.408 . S
O25 C10 1.272 . S
O26 Sm1 2.543 . S
O26 C11 1.261 . S
O27 Sm1 2.450 . S
O27 C11 1.242 . S
O28 Sm0 2.386 . S
O28 Sm1 2.681 . S
O28 C18 1.271 . S
O29 Sm1 2.464 . S
O29 C18 1.251 . S
O30 Sm1 2.396 . S
O30 C19 1.252 . S
O31 Sm0 2.408 . S
O31 C19 1.272 . S
H32 C4 0.930 . S
H33 C5 0.929 . S
H34 C7 0.930 . S
H35 C8 0.929 . S
H36 C13 0.930 . S
H37 C14 0.929 . S
H38 C16 0.930 . S
H39 C17 0.929 . S
Sm40 C42 2.846 . S
Sm40 O60 2.543 . S
Sm40 O61 2.450 . S
Sm40 O62 2.681 . S
Sm40 O63 2.464 . S
Sm40 O64 2.396 . S
Sm40 O68 2.386 . S
Sm40 O71 2.408 . S
Sm41 C51 2.846 . S
Sm41 O62 2.386 . S
Sm41 O65 2.408 . S
Sm41 O66 2.543 . S
Sm41 O67 2.450 . S
Sm41 O68 2.681 . S
Sm41 O69 2.464 . S
Sm41 O70 2.396 . S
C42 Sm40 2.846 . S
C42 C43 1.506 . S
C42 O60 1.261 . S
C42 O61 1.242 . S
C43 C42 1.506 . S
C43 C44 1.358 . S
C43 C48 1.382 . S
C44 C43 1.358 . S
C44 C45 1.385 . S
C44 H72 0.930 . S
C45 C44 1.385 . S
C45 C46 1.395 . S
C45 H73 0.929 . S
C46 C45 1.395 . S
C46 C47 1.335 . S
C47 C46 1.335 . S
C47 C48 1.398 . S
C47 H74 0.930 . S
C48 C43 1.382 . S
C48 C47 1.398 . S
C48 H75 0.929 . S
C49 O62 1.271 . S
C49 O63 1.251 . S
C50 O64 1.252 . S
C50 O65 1.272 . S
C51 Sm41 2.846 . S
C51 C52 1.506 . S
C51 O66 1.261 . S
C51 O67 1.242 . S
C52 C51 1.506 . S
C52 C53 1.358 . S
C52 C57 1.382 . S
C53 C52 1.358 . S
C53 C54 1.385 . S
C53 H76 0.930 . S
C54 C53 1.385 . S
C54 C55 1.395 . S
C54 H77 0.929 . S
C55 C54 1.395 . S
C55 C56 1.335 . S
C56 C55 1.335 . S
C56 C57 1.398 . S
C56 H78 0.930 . S
C57 C52 1.382 . S
C57 C56 1.398 . S
C57 H79 0.929 . S
C58 O68 1.271 . S
C58 O69 1.251 . S
C59 O70 1.252 . S
C59 O71 1.272 . S
O60 Sm40 2.543 . S
O60 C42 1.261 . S
O61 Sm40 2.450 . S
O61 C42 1.242 . S
O62 Sm40 2.681 . S
O62 Sm41 2.386 . S
O62 C49 1.271 . S
O63 Sm40 2.464 . S
O63 C49 1.251 . S
O64 Sm40 2.396 . S
O64 C50 1.252 . S
O65 Sm41 2.408 . S
O65 C50 1.272 . S
O66 Sm41 2.543 . S
O66 C51 1.261 . S
O67 Sm41 2.450 . S
O67 C51 1.242 . S
O68 Sm40 2.386 . S
O68 Sm41 2.681 . S
O68 C58 1.271 . S
O69 Sm41 2.464 . S
O69 C58 1.251 . S
O70 Sm41 2.396 . S
O70 C59 1.252 . S
O71 Sm40 2.408 . S
O71 C59 1.272 . S
H72 C44 0.930 . S
H73 C45 0.929 . S
H74 C47 0.930 . S
H75 C48 0.929 . S
H76 C53 0.930 . S
H77 C54 0.929 . S
H78 C56 0.930 . S
H79 C57 0.929 . S
Sm80 C82 2.846 . S
Sm80 O100 2.543 . S
Sm80 O101 2.450 . S
Sm80 O102 2.681 . S
Sm80 O103 2.464 . S
Sm80 O104 2.396 . S
Sm80 O108 2.386 . S
Sm80 O111 2.408 . S
Sm81 C91 2.846 . S
Sm81 O102 2.386 . S
Sm81 O105 2.408 . S
Sm81 O106 2.543 . S
Sm81 O107 2.450 . S
Sm81 O108 2.681 . S
Sm81 O109 2.464 . S
Sm81 O110 2.396 . S
C82 Sm80 2.846 . S
C82 C83 1.506 . S
C82 O100 1.261 . S
C82 O101 1.242 . S
C83 C82 1.506 . S
C83 C84 1.358 . S
C83 C88 1.382 . S
C84 C83 1.358 . S
C84 C85 1.385 . S
C84 H112 0.930 . S
C85 C84 1.385 . S
C85 C86 1.395 . S
C85 H113 0.929 . S
C86 C85 1.395 . S
C86 C87 1.335 . S
C87 C86 1.335 . S
C87 C88 1.398 . S
C87 H114 0.930 . S
C88 C83 1.382 . S
C88 C87 1.398 . S
C88 H115 0.929 . S
C89 O102 1.271 . S
C89 O103 1.251 . S
C90 O104 1.252 . S
C90 O105 1.272 . S
C91 Sm81 2.846 . S
C91 C92 1.506 . S
C91 O106 1.261 . S
C91 O107 1.242 . S
C92 C91 1.506 . S
C92 C93 1.358 . S
C92 C97 1.382 . S
C93 C92 1.358 . S
C93 C94 1.385 . S
C93 H116 0.930 . S
C94 C93 1.385 . S
C94 C95 1.395 . S
C94 H117 0.929 . S
C95 C94 1.395 . S
C95 C96 1.335 . S
C96 C95 1.335 . S
C96 C97 1.398 . S
C96 H118 0.930 . S
C97 C92 1.382 . S
C97 C96 1.398 . S
C97 H119 0.929 . S
C98 O108 1.271 . S
C98 O109 1.251 . S
C99 O110 1.252 . S
C99 O111 1.272 . S
O100 Sm80 2.543 . S
O100 C82 1.261 . S
O101 Sm80 2.450 . S
O101 C82 1.242 . S
O102 Sm80 2.681 . S
O102 Sm81 2.386 . S
O102 C89 1.271 . S
O103 Sm80 2.464 . S
O103 C89 1.251 . S
O104 Sm80 2.396 . S
O104 C90 1.252 . S
O105 Sm81 2.408 . S
O105 C90 1.272 . S
O106 Sm81 2.543 . S
O106 C91 1.261 . S
O107 Sm81 2.450 . S
O107 C91 1.242 . S
O108 Sm80 2.386 . S
O108 Sm81 2.681 . S
O108 C98 1.271 . S
O109 Sm81 2.464 . S
O109 C98 1.251 . S
O110 Sm81 2.396 . S
O110 C99 1.252 . S
O111 Sm80 2.408 . S
O111 C99 1.272 . S
H112 C84 0.930 . S
H113 C85 0.929 . S
H114 C87 0.930 . S
H115 C88 0.929 . S
H116 C93 0.930 . S
H117 C94 0.929 . S
H118 C96 0.930 . S
H119 C97 0.929 . S
Sm120 C122 2.846 . S
Sm120 O140 2.543 . S
Sm120 O141 2.450 . S
Sm120 O142 2.681 . S
Sm120 O143 2.464 . S
Sm120 O144 2.396 . S
Sm120 O148 2.386 . S
Sm120 O151 2.408 . S
Sm121 C131 2.846 . S
Sm121 O142 2.386 . S
Sm121 O145 2.408 . S
Sm121 O146 2.543 . S
Sm121 O147 2.450 . S
Sm121 O148 2.681 . S
Sm121 O149 2.464 . S
Sm121 O150 2.396 . S
C122 Sm120 2.846 . S
C122 C123 1.506 . S
C122 O140 1.261 . S
C122 O141 1.242 . S
C123 C122 1.506 . S
C123 C124 1.358 . S
C123 C128 1.382 . S
C124 C123 1.358 . S
C124 C125 1.385 . S
C124 H152 0.930 . S
C125 C124 1.385 . S
C125 C126 1.395 . S
C125 H153 0.929 . S
C126 C125 1.395 . S
C126 C127 1.335 . S
C127 C126 1.335 . S
C127 C128 1.398 . S
C127 H154 0.930 . S
C128 C123 1.382 . S
C128 C127 1.398 . S
C128 H155 0.929 . S
C129 O142 1.271 . S
C129 O143 1.251 . S
C130 O144 1.252 . S
C130 O145 1.272 . S
C131 Sm121 2.846 . S
C131 C132 1.506 . S
C131 O146 1.261 . S
C131 O147 1.242 . S
C132 C131 1.506 . S
C132 C133 1.358 . S
C132 C137 1.382 . S
C133 C132 1.358 . S
C133 C134 1.385 . S
C133 H156 0.930 . S
C134 C133 1.385 . S
C134 C135 1.395 . S
C134 H157 0.929 . S
C135 C134 1.395 . S
C135 C136 1.335 . S
C136 C135 1.335 . S
C136 C137 1.398 . S
C136 H158 0.930 . S
C137 C132 1.382 . S
C137 C136 1.398 . S
C137 H159 0.929 . S
C138 O148 1.271 . S
C138 O149 1.251 . S
C139 O150 1.252 . S
C139 O151 1.272 . S
O140 Sm120 2.543 . S
O140 C122 1.261 . S
O141 Sm120 2.450 . S
O141 C122 1.242 . S
O142 Sm120 2.681 . S
O142 Sm121 2.386 . S
O142 C129 1.271 . S
O143 Sm120 2.464 . S
O143 C129 1.251 . S
O144 Sm120 2.396 . S
O144 C130 1.252 . S
O145 Sm121 2.408 . S
O145 C130 1.272 . S
O146 Sm121 2.543 . S
O146 C131 1.261 . S
O147 Sm121 2.450 . S
O147 C131 1.242 . S
O148 Sm120 2.386 . S
O148 Sm121 2.681 . S
O148 C138 1.271 . S
O149 Sm121 2.464 . S
O149 C138 1.251 . S
O150 Sm121 2.396 . S
O150 C139 1.252 . S
O151 Sm120 2.408 . S
O151 C139 1.272 . S
H152 C124 0.930 . S
H153 C125 0.929 . S
H154 C127 0.930 . S
H155 C128 0.929 . S
H156 C133 0.930 . S
H157 C134 0.929 . S
H158 C136 0.930 . S
H159 C137 0.929 . S
Sm160 C162 2.846 . S
Sm160 O180 2.543 . S
Sm160 O181 2.450 . S
Sm160 O182 2.681 . S
Sm160 O183 2.464 . S
Sm160 O184 2.396 . S
Sm160 O188 2.386 . S
Sm160 O191 2.408 . S
Sm161 C171 2.846 . S
Sm161 O182 2.386 . S
Sm161 O185 2.408 . S
Sm161 O186 2.543 . S
Sm161 O187 2.450 . S
Sm161 O188 2.681 . S
Sm161 O189 2.464 . S
Sm161 O190 2.396 . S
C162 Sm160 2.846 . S
C162 C163 1.506 . S
C162 O180 1.261 . S
C162 O181 1.242 . S
C163 C162 1.506 . S
C163 C164 1.358 . S
C163 C168 1.382 . S
C164 C163 1.358 . S
C164 C165 1.385 . S
C164 H192 0.930 . S
C165 C164 1.385 . S
C165 C166 1.395 . S
C165 H193 0.929 . S
C166 C165 1.395 . S
C166 C167 1.335 . S
C167 C166 1.335 . S
C167 C168 1.398 . S
C167 H194 0.930 . S
C168 C163 1.382 . S
C168 C167 1.398 . S
C168 H195 0.929 . S
C169 O182 1.271 . S
C169 O183 1.251 . S
C170 O184 1.252 . S
C170 O185 1.272 . S
C171 Sm161 2.846 . S
C171 C172 1.506 . S
C171 O186 1.261 . S
C171 O187 1.242 . S
C172 C171 1.506 . S
C172 C173 1.358 . S
C172 C177 1.382 . S
C173 C172 1.358 . S
C173 C174 1.385 . S
C173 H196 0.930 . S
C174 C173 1.385 . S
C174 C175 1.395 . S
C174 H197 0.929 . S
C175 C174 1.395 . S
C175 C176 1.335 . S
C176 C175 1.335 . S
C176 C177 1.398 . S
C176 H198 0.930 . S
C177 C172 1.382 . S
C177 C176 1.398 . S
C177 H199 0.929 . S
C178 O188 1.271 . S
C178 O189 1.251 . S
C179 O190 1.252 . S
C179 O191 1.272 . S
O180 Sm160 2.543 . S
O180 C162 1.261 . S
O181 Sm160 2.450 . S
O181 C162 1.242 . S
O182 Sm160 2.681 . S
O182 Sm161 2.386 . S
O182 C169 1.271 . S
O183 Sm160 2.464 . S
O183 C169 1.251 . S
O184 Sm160 2.396 . S
O184 C170 1.252 . S
O185 Sm161 2.408 . S
O185 C170 1.272 . S
O186 Sm161 2.543 . S
O186 C171 1.261 . S
O187 Sm161 2.450 . S
O187 C171 1.242 . S
O188 Sm160 2.386 . S
O188 Sm161 2.681 . S
O188 C178 1.271 . S
O189 Sm161 2.464 . S
O189 C178 1.251 . S
O190 Sm161 2.396 . S
O190 C179 1.252 . S
O191 Sm160 2.408 . S
O191 C179 1.272 . S
H192 C164 0.930 . S
H193 C165 0.929 . S
H194 C167 0.930 . S
H195 C168 0.929 . S
H196 C173 0.930 . S
H197 C174 0.929 . S
H198 C176 0.930 . S
H199 C177 0.929 . S
Sm200 C202 2.846 . S
Sm200 O220 2.543 . S
Sm200 O221 2.450 . S
Sm200 O222 2.681 . S
Sm200 O223 2.464 . S
Sm200 O224 2.396 . S
Sm200 O228 2.386 . S
Sm200 O231 2.408 . S
Sm201 C211 2.846 . S
Sm201 O222 2.386 . S
Sm201 O225 2.408 . S
Sm201 O226 2.543 . S
Sm201 O227 2.450 . S
Sm201 O228 2.681 . S
Sm201 O229 2.464 . S
Sm201 O230 2.396 . S
C202 Sm200 2.846 . S
C202 C203 1.506 . S
C202 O220 1.261 . S
C202 O221 1.242 . S
C203 C202 1.506 . S
C203 C204 1.358 . S
C203 C208 1.382 . S
C204 C203 1.358 . S
C204 C205 1.385 . S
C204 H232 0.930 . S
C205 C204 1.385 . S
C205 C206 1.395 . S
C205 H233 0.929 . S
C206 C205 1.395 . S
C206 C207 1.335 . S
C207 C206 1.335 . S
C207 C208 1.398 . S
C207 H234 0.930 . S
C208 C203 1.382 . S
C208 C207 1.398 . S
C208 H235 0.929 . S
C209 O222 1.271 . S
C209 O223 1.251 . S
C210 O224 1.252 . S
C210 O225 1.272 . S
C211 Sm201 2.846 . S
C211 C212 1.506 . S
C211 O226 1.261 . S
C211 O227 1.242 . S
C212 C211 1.506 . S
C212 C213 1.358 . S
C212 C217 1.382 . S
C213 C212 1.358 . S
C213 C214 1.385 . S
C213 H236 0.930 . S
C214 C213 1.385 . S
C214 C215 1.395 . S
C214 H237 0.929 . S
C215 C214 1.395 . S
C215 C216 1.335 . S
C216 C215 1.335 . S
C216 C217 1.398 . S
C216 H238 0.930 . S
C217 C212 1.382 . S
C217 C216 1.398 . S
C217 H239 0.929 . S
C218 O228 1.271 . S
C218 O229 1.251 . S
C219 O230 1.252 . S
C219 O231 1.272 . S
O220 Sm200 2.543 . S
O220 C202 1.261 . S
O221 Sm200 2.450 . S
O221 C202 1.242 . S
O222 Sm200 2.681 . S
O222 Sm201 2.386 . S
O222 C209 1.271 . S
O223 Sm200 2.464 . S
O223 C209 1.251 . S
O224 Sm200 2.396 . S
O224 C210 1.252 . S
O225 Sm201 2.408 . S
O225 C210 1.272 . S
O226 Sm201 2.543 . S
O226 C211 1.261 . S
O227 Sm201 2.450 . S
O227 C211 1.242 . S
O228 Sm200 2.386 . S
O228 Sm201 2.681 . S
O228 C218 1.271 . S
O229 Sm201 2.464 . S
O229 C218 1.251 . S
O230 Sm201 2.396 . S
O230 C219 1.252 . S
O231 Sm200 2.408 . S
O231 C219 1.272 . S
H232 C204 0.930 . S
H233 C205 0.929 . S
H234 C207 0.930 . S
H235 C208 0.929 . S
H236 C213 0.930 . S
H237 C214 0.929 . S
H238 C216 0.930 . S
H239 C217 0.929 . S
Sm240 C242 2.846 . S
Sm240 O260 2.543 . S
Sm240 O261 2.450 . S
Sm240 O262 2.681 . S
Sm240 O263 2.464 . S
Sm240 O264 2.396 . S
Sm240 O268 2.386 . S
Sm240 O271 2.408 . S
Sm241 C251 2.846 . S
Sm241 O262 2.386 . S
Sm241 O265 2.408 . S
Sm241 O266 2.543 . S
Sm241 O267 2.450 . S
Sm241 O268 2.681 . S
Sm241 O269 2.464 . S
Sm241 O270 2.396 . S
C242 Sm240 2.846 . S
C242 C243 1.506 . S
C242 O260 1.261 . S
C242 O261 1.242 . S
C243 C242 1.506 . S
C243 C244 1.358 . S
C243 C248 1.382 . S
C244 C243 1.358 . S
C244 C245 1.385 . S
C244 H272 0.930 . S
C245 C244 1.385 . S
C245 C246 1.395 . S
C245 H273 0.929 . S
C246 C245 1.395 . S
C246 C247 1.335 . S
C247 C246 1.335 . S
C247 C248 1.398 . S
C247 H274 0.930 . S
C248 C243 1.382 . S
C248 C247 1.398 . S
C248 H275 0.929 . S
C249 O262 1.271 . S
C249 O263 1.251 . S
C250 O264 1.252 . S
C250 O265 1.272 . S
C251 Sm241 2.846 . S
C251 C252 1.506 . S
C251 O266 1.261 . S
C251 O267 1.242 . S
C252 C251 1.506 . S
C252 C253 1.358 . S
C252 C257 1.382 . S
C253 C252 1.358 . S
C253 C254 1.385 . S
C253 H276 0.930 . S
C254 C253 1.385 . S
C254 C255 1.395 . S
C254 H277 0.929 . S
C255 C254 1.395 . S
C255 C256 1.335 . S
C256 C255 1.335 . S
C256 C257 1.398 . S
C256 H278 0.930 . S
C257 C252 1.382 . S
C257 C256 1.398 . S
C257 H279 0.929 . S
C258 O268 1.271 . S
C258 O269 1.251 . S
C259 O270 1.252 . S
C259 O271 1.272 . S
O260 Sm240 2.543 . S
O260 C242 1.261 . S
O261 Sm240 2.450 . S
O261 C242 1.242 . S
O262 Sm240 2.681 . S
O262 Sm241 2.386 . S
O262 C249 1.271 . S
O263 Sm240 2.464 . S
O263 C249 1.251 . S
O264 Sm240 2.396 . S
O264 C250 1.252 . S
O265 Sm241 2.408 . S
O265 C250 1.272 . S
O266 Sm241 2.543 . S
O266 C251 1.261 . S
O267 Sm241 2.450 . S
O267 C251 1.242 . S
O268 Sm240 2.386 . S
O268 Sm241 2.681 . S
O268 C258 1.271 . S
O269 Sm241 2.464 . S
O269 C258 1.251 . S
O270 Sm241 2.396 . S
O270 C259 1.252 . S
O271 Sm240 2.408 . S
O271 C259 1.272 . S
H272 C244 0.930 . S
H273 C245 0.929 . S
H274 C247 0.930 . S
H275 C248 0.929 . S
H276 C253 0.930 . S
H277 C254 0.929 . S
H278 C256 0.930 . S
H279 C257 0.929 . S
Sm280 C282 2.846 . S
Sm280 O300 2.543 . S
Sm280 O301 2.450 . S
Sm280 O302 2.681 . S
Sm280 O303 2.464 . S
Sm280 O304 2.396 . S
Sm280 O308 2.386 . S
Sm280 O311 2.408 . S
Sm281 C291 2.846 . S
Sm281 O302 2.386 . S
Sm281 O305 2.408 . S
Sm281 O306 2.543 . S
Sm281 O307 2.450 . S
Sm281 O308 2.681 . S
Sm281 O309 2.464 . S
Sm281 O310 2.396 . S
C282 Sm280 2.846 . S
C282 C283 1.506 . S
C282 O300 1.261 . S
C282 O301 1.242 . S
C283 C282 1.506 . S
C283 C284 1.358 . S
C283 C288 1.382 . S
C284 C283 1.358 . S
C284 C285 1.385 . S
C284 H312 0.930 . S
C285 C284 1.385 . S
C285 C286 1.395 . S
C285 H313 0.929 . S
C286 C285 1.395 . S
C286 C287 1.335 . S
C287 C286 1.335 . S
C287 C288 1.398 . S
C287 H314 0.930 . S
C288 C283 1.382 . S
C288 C287 1.398 . S
C288 H315 0.929 . S
C289 O302 1.271 . S
C289 O303 1.251 . S
C290 O304 1.252 . S
C290 O305 1.272 . S
C291 Sm281 2.846 . S
C291 C292 1.506 . S
C291 O306 1.261 . S
C291 O307 1.242 . S
C292 C291 1.506 . S
C292 C293 1.358 . S
C292 C297 1.382 . S
C293 C292 1.358 . S
C293 C294 1.385 . S
C293 H316 0.930 . S
C294 C293 1.385 . S
C294 C295 1.395 . S
C294 H317 0.929 . S
C295 C294 1.395 . S
C295 C296 1.335 . S
C296 C295 1.335 . S
C296 C297 1.398 . S
C296 H318 0.930 . S
C297 C292 1.382 . S
C297 C296 1.398 . S
C297 H319 0.929 . S
C298 O308 1.271 . S
C298 O309 1.251 . S
C299 O310 1.252 . S
C299 O311 1.272 . S
O300 Sm280 2.543 . S
O300 C282 1.261 . S
O301 Sm280 2.450 . S
O301 C282 1.242 . S
O302 Sm280 2.681 . S
O302 Sm281 2.386 . S
O302 C289 1.271 . S
O303 Sm280 2.464 . S
O303 C289 1.251 . S
O304 Sm280 2.396 . S
O304 C290 1.252 . S
O305 Sm281 2.408 . S
O305 C290 1.272 . S
O306 Sm281 2.543 . S
O306 C291 1.261 . S
O307 Sm281 2.450 . S
O307 C291 1.242 . S
O308 Sm280 2.386 . S
O308 Sm281 2.681 . S
O308 C298 1.271 . S
O309 Sm281 2.464 . S
O309 C298 1.251 . S
O310 Sm281 2.396 . S
O310 C299 1.252 . S
O311 Sm280 2.408 . S
O311 C299 1.272 . S
H312 C284 0.930 . S
H313 C285 0.929 . S
H314 C287 0.930 . S
H315 C288 0.929 . S
H316 C293 0.930 . S
H317 C294 0.929 . S
H318 C296 0.930 . S
H319 C297 0.929 . S
Sm320 C322 2.846 . S
Sm320 O340 2.543 . S
Sm320 O341 2.450 . S
Sm320 O342 2.681 . S
Sm320 O343 2.464 . S
Sm320 O344 2.396 . S
Sm320 O348 2.386 . S
Sm320 O351 2.408 . S
Sm321 C331 2.846 . S
Sm321 O342 2.386 . S
Sm321 O345 2.408 . S
Sm321 O346 2.543 . S
Sm321 O347 2.450 . S
Sm321 O348 2.681 . S
Sm321 O349 2.464 . S
Sm321 O350 2.396 . S
C322 Sm320 2.846 . S
C322 C323 1.506 . S
C322 O340 1.261 . S
C322 O341 1.242 . S
C323 C322 1.506 . S
C323 C324 1.358 . S
C323 C328 1.382 . S
C324 C323 1.358 . S
C324 C325 1.385 . S
C324 H352 0.930 . S
C325 C324 1.385 . S
C325 C326 1.395 . S
C325 H353 0.929 . S
C326 C325 1.395 . S
C326 C327 1.335 . S
C327 C326 1.335 . S
C327 C328 1.398 . S
C327 H354 0.930 . S
C328 C323 1.382 . S
C328 C327 1.398 . S
C328 H355 0.929 . S
C329 O342 1.271 . S
C329 O343 1.251 . S
C330 O344 1.252 . S
C330 O345 1.272 . S
C331 Sm321 2.846 . S
C331 C332 1.506 . S
C331 O346 1.261 . S
C331 O347 1.242 . S
C332 C331 1.506 . S
C332 C333 1.358 . S
C332 C337 1.382 . S
C333 C332 1.358 . S
C333 C334 1.385 . S
C333 H356 0.930 . S
C334 C333 1.385 . S
C334 C335 1.395 . S
C334 H357 0.929 . S
C335 C334 1.395 . S
C335 C336 1.335 . S
C336 C335 1.335 . S
C336 C337 1.398 . S
C336 H358 0.930 . S
C337 C332 1.382 . S
C337 C336 1.398 . S
C337 H359 0.929 . S
C338 O348 1.271 . S
C338 O349 1.251 . S
C339 O350 1.252 . S
C339 O351 1.272 . S
O340 Sm320 2.543 . S
O340 C322 1.261 . S
O341 Sm320 2.450 . S
O341 C322 1.242 . S
O342 Sm320 2.681 . S
O342 Sm321 2.386 . S
O342 C329 1.271 . S
O343 Sm320 2.464 . S
O343 C329 1.251 . S
O344 Sm320 2.396 . S
O344 C330 1.252 . S
O345 Sm321 2.408 . S
O345 C330 1.272 . S
O346 Sm321 2.543 . S
O346 C331 1.261 . S
O347 Sm321 2.450 . S
O347 C331 1.242 . S
O348 Sm320 2.386 . S
O348 Sm321 2.681 . S
O348 C338 1.271 . S
O349 Sm321 2.464 . S
O349 C338 1.251 . S
O350 Sm321 2.396 . S
O350 C339 1.252 . S
O351 Sm320 2.408 . S
O351 C339 1.272 . S
H352 C324 0.930 . S
H353 C325 0.929 . S
H354 C327 0.930 . S
H355 C328 0.929 . S
H356 C333 0.930 . S
H357 C334 0.929 . S
H358 C336 0.930 . S
H359 C337 0.929 . S
Sm360 C362 2.846 . S
Sm360 O380 2.543 . S
Sm360 O381 2.450 . S
Sm360 O382 2.681 . S
Sm360 O383 2.464 . S
Sm360 O384 2.396 . S
Sm360 O388 2.386 . S
Sm360 O391 2.408 . S
Sm361 C371 2.846 . S
Sm361 O382 2.386 . S
Sm361 O385 2.408 . S
Sm361 O386 2.543 . S
Sm361 O387 2.450 . S
Sm361 O388 2.681 . S
Sm361 O389 2.464 . S
Sm361 O390 2.396 . S
C362 Sm360 2.846 . S
C362 C363 1.506 . S
C362 O380 1.261 . S
C362 O381 1.242 . S
C363 C362 1.506 . S
C363 C364 1.358 . S
C363 C368 1.382 . S
C364 C363 1.358 . S
C364 C365 1.385 . S
C364 H392 0.930 . S
C365 C364 1.385 . S
C365 C366 1.395 . S
C365 H393 0.929 . S
C366 C365 1.395 . S
C366 C367 1.335 . S
C367 C366 1.335 . S
C367 C368 1.398 . S
C367 H394 0.930 . S
C368 C363 1.382 . S
C368 C367 1.398 . S
C368 H395 0.929 . S
C369 O382 1.271 . S
C369 O383 1.251 . S
C370 O384 1.252 . S
C370 O385 1.272 . S
C371 Sm361 2.846 . S
C371 C372 1.506 . S
C371 O386 1.261 . S
C371 O387 1.242 . S
C372 C371 1.506 . S
C372 C373 1.358 . S
C372 C377 1.382 . S
C373 C372 1.358 . S
C373 C374 1.385 . S
C373 H396 0.930 . S
C374 C373 1.385 . S
C374 C375 1.395 . S
C374 H397 0.929 . S
C375 C374 1.395 . S
C375 C376 1.335 . S
C376 C375 1.335 . S
C376 C377 1.398 . S
C376 H398 0.930 . S
C377 C372 1.382 . S
C377 C376 1.398 . S
C377 H399 0.929 . S
C378 O388 1.271 . S
C378 O389 1.251 . S
C379 O390 1.252 . S
C379 O391 1.272 . S
O380 Sm360 2.543 . S
O380 C362 1.261 . S
O381 Sm360 2.450 . S
O381 C362 1.242 . S
O382 Sm360 2.681 . S
O382 Sm361 2.386 . S
O382 C369 1.271 . S
O383 Sm360 2.464 . S
O383 C369 1.251 . S
O384 Sm360 2.396 . S
O384 C370 1.252 . S
O385 Sm361 2.408 . S
O385 C370 1.272 . S
O386 Sm361 2.543 . S
O386 C371 1.261 . S
O387 Sm361 2.450 . S
O387 C371 1.242 . S
O388 Sm360 2.386 . S
O388 Sm361 2.681 . S
O388 C378 1.271 . S
O389 Sm361 2.464 . S
O389 C378 1.251 . S
O390 Sm361 2.396 . S
O390 C379 1.252 . S
O391 Sm360 2.408 . S
O391 C379 1.272 . S
H392 C364 0.930 . S
H393 C365 0.929 . S
H394 C367 0.930 . S
H395 C368 0.929 . S
H396 C373 0.930 . S
H397 C374 0.929 . S
H398 C376 0.930 . S
H399 C377 0.929 . S
Sm400 C402 2.846 . S
Sm400 O420 2.543 . S
Sm400 O421 2.450 . S
Sm400 O422 2.681 . S
Sm400 O423 2.464 . S
Sm400 O424 2.396 . S
Sm400 O428 2.386 . S
Sm400 O431 2.408 . S
Sm401 C411 2.846 . S
Sm401 O422 2.386 . S
Sm401 O425 2.408 . S
Sm401 O426 2.543 . S
Sm401 O427 2.450 . S
Sm401 O428 2.681 . S
Sm401 O429 2.464 . S
Sm401 O430 2.396 . S
C402 Sm400 2.846 . S
C402 C403 1.506 . S
C402 O420 1.261 . S
C402 O421 1.242 . S
C403 C402 1.506 . S
C403 C404 1.358 . S
C403 C408 1.382 . S
C404 C403 1.358 . S
C404 C405 1.385 . S
C404 H432 0.930 . S
C405 C404 1.385 . S
C405 C406 1.395 . S
C405 H433 0.929 . S
C406 C405 1.395 . S
C406 C407 1.335 . S
C407 C406 1.335 . S
C407 C408 1.398 . S
C407 H434 0.930 . S
C408 C403 1.382 . S
C408 C407 1.398 . S
C408 H435 0.929 . S
C409 O422 1.271 . S
C409 O423 1.251 . S
C410 O424 1.252 . S
C410 O425 1.272 . S
C411 Sm401 2.846 . S
C411 C412 1.506 . S
C411 O426 1.261 . S
C411 O427 1.242 . S
C412 C411 1.506 . S
C412 C413 1.358 . S
C412 C417 1.382 . S
C413 C412 1.358 . S
C413 C414 1.385 . S
C413 H436 0.930 . S
C414 C413 1.385 . S
C414 C415 1.395 . S
C414 H437 0.929 . S
C415 C414 1.395 . S
C415 C416 1.335 . S
C416 C415 1.335 . S
C416 C417 1.398 . S
C416 H438 0.930 . S
C417 C412 1.382 . S
C417 C416 1.398 . S
C417 H439 0.929 . S
C418 O428 1.271 . S
C418 O429 1.251 . S
C419 O430 1.252 . S
C419 O431 1.272 . S
O420 Sm400 2.543 . S
O420 C402 1.261 . S
O421 Sm400 2.450 . S
O421 C402 1.242 . S
O422 Sm400 2.681 . S
O422 Sm401 2.386 . S
O422 C409 1.271 . S
O423 Sm400 2.464 . S
O423 C409 1.251 . S
O424 Sm400 2.396 . S
O424 C410 1.252 . S
O425 Sm401 2.408 . S
O425 C410 1.272 . S
O426 Sm401 2.543 . S
O426 C411 1.261 . S
O427 Sm401 2.450 . S
O427 C411 1.242 . S
O428 Sm400 2.386 . S
O428 Sm401 2.681 . S
O428 C418 1.271 . S
O429 Sm401 2.464 . S
O429 C418 1.251 . S
O430 Sm401 2.396 . S
O430 C419 1.252 . S
O431 Sm400 2.408 . S
O431 C419 1.272 . S
H432 C404 0.930 . S
H433 C405 0.929 . S
H434 C407 0.930 . S
H435 C408 0.929 . S
H436 C413 0.930 . S
H437 C414 0.929 . S
H438 C416 0.930 . S
H439 C417 0.929 . S
Sm440 C442 2.846 . S
Sm440 O460 2.543 . S
Sm440 O461 2.450 . S
Sm440 O462 2.681 . S
Sm440 O463 2.464 . S
Sm440 O464 2.396 . S
Sm440 O468 2.386 . S
Sm440 O471 2.408 . S
Sm441 C451 2.846 . S
Sm441 O462 2.386 . S
Sm441 O465 2.408 . S
Sm441 O466 2.543 . S
Sm441 O467 2.450 . S
Sm441 O468 2.681 . S
Sm441 O469 2.464 . S
Sm441 O470 2.396 . S
C442 Sm440 2.846 . S
C442 C443 1.506 . S
C442 O460 1.261 . S
C442 O461 1.242 . S
C443 C442 1.506 . S
C443 C444 1.358 . S
C443 C448 1.382 . S
C444 C443 1.358 . S
C444 C445 1.385 . S
C444 H472 0.930 . S
C445 C444 1.385 . S
C445 C446 1.395 . S
C445 H473 0.929 . S
C446 C445 1.395 . S
C446 C447 1.335 . S
C447 C446 1.335 . S
C447 C448 1.398 . S
C447 H474 0.930 . S
C448 C443 1.382 . S
C448 C447 1.398 . S
C448 H475 0.929 . S
C449 O462 1.271 . S
C449 O463 1.251 . S
C450 O464 1.252 . S
C450 O465 1.272 . S
C451 Sm441 2.846 . S
C451 C452 1.506 . S
C451 O466 1.261 . S
C451 O467 1.242 . S
C452 C451 1.506 . S
C452 C453 1.358 . S
C452 C457 1.382 . S
C453 C452 1.358 . S
C453 C454 1.385 . S
C453 H476 0.930 . S
C454 C453 1.385 . S
C454 C455 1.395 . S
C454 H477 0.929 . S
C455 C454 1.395 . S
C455 C456 1.335 . S
C456 C455 1.335 . S
C456 C457 1.398 . S
C456 H478 0.930 . S
C457 C452 1.382 . S
C457 C456 1.398 . S
C457 H479 0.929 . S
C458 O468 1.271 . S
C458 O469 1.251 . S
C459 O470 1.252 . S
C459 O471 1.272 . S
O460 Sm440 2.543 . S
O460 C442 1.261 . S
O461 Sm440 2.450 . S
O461 C442 1.242 . S
O462 Sm440 2.681 . S
O462 Sm441 2.386 . S
O462 C449 1.271 . S
O463 Sm440 2.464 . S
O463 C449 1.251 . S
O464 Sm440 2.396 . S
O464 C450 1.252 . S
O465 Sm441 2.408 . S
O465 C450 1.272 . S
O466 Sm441 2.543 . S
O466 C451 1.261 . S
O467 Sm441 2.450 . S
O467 C451 1.242 . S
O468 Sm440 2.386 . S
O468 Sm441 2.681 . S
O468 C458 1.271 . S
O469 Sm441 2.464 . S
O469 C458 1.251 . S
O470 Sm441 2.396 . S
O470 C459 1.252 . S
O471 Sm440 2.408 . S
O471 C459 1.272 . S
H472 C444 0.930 . S
H473 C445 0.929 . S
H474 C447 0.930 . S
H475 C448 0.929 . S
H476 C453 0.930 . S
H477 C454 0.929 . S
H478 C456 0.930 . S
H479 C457 0.929 . S
Sm480 C482 2.846 . S
Sm480 O500 2.543 . S
Sm480 O501 2.450 . S
Sm480 O502 2.681 . S
Sm480 O503 2.464 . S
Sm480 O504 2.396 . S
Sm480 O508 2.386 . S
Sm480 O511 2.408 . S
Sm481 C491 2.846 . S
Sm481 O502 2.386 . S
Sm481 O505 2.408 . S
Sm481 O506 2.543 . S
Sm481 O507 2.450 . S
Sm481 O508 2.681 . S
Sm481 O509 2.464 . S
Sm481 O510 2.396 . S
C482 Sm480 2.846 . S
C482 C483 1.506 . S
C482 O500 1.261 . S
C482 O501 1.242 . S
C483 C482 1.506 . S
C483 C484 1.358 . S
C483 C488 1.382 . S
C484 C483 1.358 . S
C484 C485 1.385 . S
C484 H512 0.930 . S
C485 C484 1.385 . S
C485 C486 1.395 . S
C485 H513 0.929 . S
C486 C485 1.395 . S
C486 C487 1.335 . S
C487 C486 1.335 . S
C487 C488 1.398 . S
C487 H514 0.930 . S
C488 C483 1.382 . S
C488 C487 1.398 . S
C488 H515 0.929 . S
C489 O502 1.271 . S
C489 O503 1.251 . S
C490 O504 1.252 . S
C490 O505 1.272 . S
C491 Sm481 2.846 . S
C491 C492 1.506 . S
C491 O506 1.261 . S
C491 O507 1.242 . S
C492 C491 1.506 . S
C492 C493 1.358 . S
C492 C497 1.382 . S
C493 C492 1.358 . S
C493 C494 1.385 . S
C493 H516 0.930 . S
C494 C493 1.385 . S
C494 C495 1.395 . S
C494 H517 0.929 . S
C495 C494 1.395 . S
C495 C496 1.335 . S
C496 C495 1.335 . S
C496 C497 1.398 . S
C496 H518 0.930 . S
C497 C492 1.382 . S
C497 C496 1.398 . S
C497 H519 0.929 . S
C498 O508 1.271 . S
C498 O509 1.251 . S
C499 O510 1.252 . S
C499 O511 1.272 . S
O500 Sm480 2.543 . S
O500 C482 1.261 . S
O501 Sm480 2.450 . S
O501 C482 1.242 . S
O502 Sm480 2.681 . S
O502 Sm481 2.386 . S
O502 C489 1.271 . S
O503 Sm480 2.464 . S
O503 C489 1.251 . S
O504 Sm480 2.396 . S
O504 C490 1.252 . S
O505 Sm481 2.408 . S
O505 C490 1.272 . S
O506 Sm481 2.543 . S
O506 C491 1.261 . S
O507 Sm481 2.450 . S
O507 C491 1.242 . S
O508 Sm480 2.386 . S
O508 Sm481 2.681 . S
O508 C498 1.271 . S
O509 Sm481 2.464 . S
O509 C498 1.251 . S
O510 Sm481 2.396 . S
O510 C499 1.252 . S
O511 Sm480 2.408 . S
O511 C499 1.272 . S
H512 C484 0.930 . S
H513 C485 0.929 . S
H514 C487 0.930 . S
H515 C488 0.929 . S
H516 C493 0.930 . S
H517 C494 0.929 . S
H518 C496 0.930 . S
H519 C497 0.929 . S
Sm520 C522 2.846 . S
Sm520 O540 2.543 . S
Sm520 O541 2.450 . S
Sm520 O542 2.681 . S
Sm520 O543 2.464 . S
Sm520 O544 2.396 . S
Sm520 O548 2.386 . S
Sm520 O551 2.408 . S
Sm521 C531 2.846 . S
Sm521 O542 2.386 . S
Sm521 O545 2.408 . S
Sm521 O546 2.543 . S
Sm521 O547 2.450 . S
Sm521 O548 2.681 . S
Sm521 O549 2.464 . S
Sm521 O550 2.396 . S
C522 Sm520 2.846 . S
C522 C523 1.506 . S
C522 O540 1.261 . S
C522 O541 1.242 . S
C523 C522 1.506 . S
C523 C524 1.358 . S
C523 C528 1.382 . S
C524 C523 1.358 . S
C524 C525 1.385 . S
C524 H552 0.930 . S
C525 C524 1.385 . S
C525 C526 1.395 . S
C525 H553 0.929 . S
C526 C525 1.395 . S
C526 C527 1.335 . S
C527 C526 1.335 . S
C527 C528 1.398 . S
C527 H554 0.930 . S
C528 C523 1.382 . S
C528 C527 1.398 . S
C528 H555 0.929 . S
C529 O542 1.271 . S
C529 O543 1.251 . S
C530 O544 1.252 . S
C530 O545 1.272 . S
C531 Sm521 2.846 . S
C531 C532 1.506 . S
C531 O546 1.261 . S
C531 O547 1.242 . S
C532 C531 1.506 . S
C532 C533 1.358 . S
C532 C537 1.382 . S
C533 C532 1.358 . S
C533 C534 1.385 . S
C533 H556 0.930 . S
C534 C533 1.385 . S
C534 C535 1.395 . S
C534 H557 0.929 . S
C535 C534 1.395 . S
C535 C536 1.335 . S
C536 C535 1.335 . S
C536 C537 1.398 . S
C536 H558 0.930 . S
C537 C532 1.382 . S
C537 C536 1.398 . S
C537 H559 0.929 . S
C538 O548 1.271 . S
C538 O549 1.251 . S
C539 O550 1.252 . S
C539 O551 1.272 . S
O540 Sm520 2.543 . S
O540 C522 1.261 . S
O541 Sm520 2.450 . S
O541 C522 1.242 . S
O542 Sm520 2.681 . S
O542 Sm521 2.386 . S
O542 C529 1.271 . S
O543 Sm520 2.464 . S
O543 C529 1.251 . S
O544 Sm520 2.396 . S
O544 C530 1.252 . S
O545 Sm521 2.408 . S
O545 C530 1.272 . S
O546 Sm521 2.543 . S
O546 C531 1.261 . S
O547 Sm521 2.450 . S
O547 C531 1.242 . S
O548 Sm520 2.386 . S
O548 Sm521 2.681 . S
O548 C538 1.271 . S
O549 Sm521 2.464 . S
O549 C538 1.251 . S
O550 Sm521 2.396 . S
O550 C539 1.252 . S
O551 Sm520 2.408 . S
O551 C539 1.272 . S
H552 C524 0.930 . S
H553 C525 0.929 . S
H554 C527 0.930 . S
H555 C528 0.929 . S
H556 C533 0.930 . S
H557 C534 0.929 . S
H558 C536 0.930 . S
H559 C537 0.929 . S
Sm560 C562 2.846 . S
Sm560 O580 2.543 . S
Sm560 O581 2.450 . S
Sm560 O582 2.681 . S
Sm560 O583 2.464 . S
Sm560 O584 2.396 . S
Sm560 O588 2.386 . S
Sm560 O591 2.408 . S
Sm561 C571 2.846 . S
Sm561 O582 2.386 . S
Sm561 O585 2.408 . S
Sm561 O586 2.543 . S
Sm561 O587 2.450 . S
Sm561 O588 2.681 . S
Sm561 O589 2.464 . S
Sm561 O590 2.396 . S
C562 Sm560 2.846 . S
C562 C563 1.506 . S
C562 O580 1.261 . S
C562 O581 1.242 . S
C563 C562 1.506 . S
C563 C564 1.358 . S
C563 C568 1.382 . S
C564 C563 1.358 . S
C564 C565 1.385 . S
C564 H592 0.930 . S
C565 C564 1.385 . S
C565 C566 1.395 . S
C565 H593 0.929 . S
C566 C565 1.395 . S
C566 C567 1.335 . S
C567 C566 1.335 . S
C567 C568 1.398 . S
C567 H594 0.930 . S
C568 C563 1.382 . S
C568 C567 1.398 . S
C568 H595 0.929 . S
C569 O582 1.271 . S
C569 O583 1.251 . S
C570 O584 1.252 . S
C570 O585 1.272 . S
C571 Sm561 2.846 . S
C571 C572 1.506 . S
C571 O586 1.261 . S
C571 O587 1.242 . S
C572 C571 1.506 . S
C572 C573 1.358 . S
C572 C577 1.382 . S
C573 C572 1.358 . S
C573 C574 1.385 . S
C573 H596 0.930 . S
C574 C573 1.385 . S
C574 C575 1.395 . S
C574 H597 0.929 . S
C575 C574 1.395 . S
C575 C576 1.335 . S
C576 C575 1.335 . S
C576 C577 1.398 . S
C576 H598 0.930 . S
C577 C572 1.382 . S
C577 C576 1.398 . S
C577 H599 0.929 . S
C578 O588 1.271 . S
C578 O589 1.251 . S
C579 O590 1.252 . S
C579 O591 1.272 . S
O580 Sm560 2.543 . S
O580 C562 1.261 . S
O581 Sm560 2.450 . S
O581 C562 1.242 . S
O582 Sm560 2.681 . S
O582 Sm561 2.386 . S
O582 C569 1.271 . S
O583 Sm560 2.464 . S
O583 C569 1.251 . S
O584 Sm560 2.396 . S
O584 C570 1.252 . S
O585 Sm561 2.408 . S
O585 C570 1.272 . S
O586 Sm561 2.543 . S
O586 C571 1.261 . S
O587 Sm561 2.450 . S
O587 C571 1.242 . S
O588 Sm560 2.386 . S
O588 Sm561 2.681 . S
O588 C578 1.271 . S
O589 Sm561 2.464 . S
O589 C578 1.251 . S
O590 Sm561 2.396 . S
O590 C579 1.252 . S
O591 Sm560 2.408 . S
O591 C579 1.272 . S
H592 C564 0.930 . S
H593 C565 0.929 . S
H594 C567 0.930 . S
H595 C568 0.929 . S
H596 C573 0.930 . S
H597 C574 0.929 . S
H598 C576 0.930 . S
H599 C577 0.929 . S
Sm600 C602 2.846 . S
Sm600 O620 2.543 . S
Sm600 O621 2.450 . S
Sm600 O622 2.681 . S
Sm600 O623 2.464 . S
Sm600 O624 2.396 . S
Sm600 O628 2.386 . S
Sm600 O631 2.408 . S
Sm601 C611 2.846 . S
Sm601 O622 2.386 . S
Sm601 O625 2.408 . S
Sm601 O626 2.543 . S
Sm601 O627 2.450 . S
Sm601 O628 2.681 . S
Sm601 O629 2.464 . S
Sm601 O630 2.396 . S
C602 Sm600 2.846 . S
C602 C603 1.506 . S
C602 O620 1.261 . S
C602 O621 1.242 . S
C603 C602 1.506 . S
C603 C604 1.358 . S
C603 C608 1.382 . S
C604 C603 1.358 . S
C604 C605 1.385 1_655 S
C604 H632 0.930 1_655 S
C605 C604 1.385 1_455 S
C605 C606 1.395 1_455 S
C605 H633 0.929 . S
C606 C605 1.395 1_655 S
C606 C607 1.335 . S
C607 C606 1.335 . S
C607 C608 1.398 . S
C607 H634 0.930 . S
C608 C603 1.382 . S
C608 C607 1.398 . S
C608 H635 0.929 . S
C609 O622 1.271 . S
C609 O623 1.251 . S
C610 O624 1.252 . S
C610 O625 1.272 . S
C611 Sm601 2.846 . S
C611 C612 1.506 . S
C611 O626 1.261 . S
C611 O627 1.242 . S
C612 C611 1.506 . S
C612 C613 1.358 . S
C612 C617 1.382 . S
C613 C612 1.358 . S
C613 C614 1.385 . S
C613 H636 0.930 . S
C614 C613 1.385 . S
C614 C615 1.395 . S
C614 H637 0.929 . S
C615 C614 1.395 . S
C615 C616 1.335 . S
C616 C615 1.335 . S
C616 C617 1.398 . S
C616 H638 0.930 . S
C617 C612 1.382 . S
C617 C616 1.398 . S
C617 H639 0.929 . S
C618 O628 1.271 . S
C618 O629 1.251 . S
C619 O630 1.252 . S
C619 O631 1.272 . S
O620 Sm600 2.543 . S
O620 C602 1.261 . S
O621 Sm600 2.450 . S
O621 C602 1.242 . S
O622 Sm600 2.681 . S
O622 Sm601 2.386 . S
O622 C609 1.271 . S
O623 Sm600 2.464 . S
O623 C609 1.251 . S
O624 Sm600 2.396 . S
O624 C610 1.252 . S
O625 Sm601 2.408 . S
O625 C610 1.272 . S
O626 Sm601 2.543 . S
O626 C611 1.261 . S
O627 Sm601 2.450 . S
O627 C611 1.242 . S
O628 Sm600 2.386 . S
O628 Sm601 2.681 . S
O628 C618 1.271 . S
O629 Sm601 2.464 . S
O629 C618 1.251 . S
O630 Sm601 2.396 . S
O630 C619 1.252 . S
O631 Sm600 2.408 . S
O631 C619 1.272 . S
H632 C604 0.930 1_455 S
H633 C605 0.929 . S
H634 C607 0.930 . S
H635 C608 0.929 . S
H636 C613 0.930 . S
H637 C614 0.929 . S
H638 C616 0.930 . S
H639 C617 0.929 . S
Sm640 C642 2.846 . S
Sm640 O660 2.543 . S
Sm640 O661 2.450 . S
Sm640 O662 2.681 . S
Sm640 O663 2.464 . S
Sm640 O664 2.396 . S
Sm640 O668 2.386 . S
Sm640 O671 2.408 . S
Sm641 C651 2.846 . S
Sm641 O662 2.386 . S
Sm641 O665 2.408 . S
Sm641 O666 2.543 . S
Sm641 O667 2.450 . S
Sm641 O668 2.681 . S
Sm641 O669 2.464 . S
Sm641 O670 2.396 . S
C642 Sm640 2.846 . S
C642 C643 1.506 . S
C642 O660 1.261 . S
C642 O661 1.242 . S
C643 C642 1.506 . S
C643 C644 1.358 . S
C643 C648 1.382 . S
C644 C643 1.358 . S
C644 C645 1.385 . S
C644 H672 0.930 . S
C645 C644 1.385 . S
C645 C646 1.395 . S
C645 H673 0.929 . S
C646 C645 1.395 . S
C646 C647 1.335 . S
C647 C646 1.335 . S
C647 C648 1.398 . S
C647 H674 0.930 . S
C648 C643 1.382 . S
C648 C647 1.398 . S
C648 H675 0.929 . S
C649 O662 1.271 . S
C649 O663 1.251 . S
C650 O664 1.252 . S
C650 O665 1.272 . S
C651 Sm641 2.846 . S
C651 C652 1.506 . S
C651 O666 1.261 . S
C651 O667 1.242 . S
C652 C651 1.506 . S
C652 C653 1.358 . S
C652 C657 1.382 . S
C653 C652 1.358 . S
C653 C654 1.385 . S
C653 H676 0.930 . S
C654 C653 1.385 . S
C654 C655 1.395 . S
C654 H677 0.929 . S
C655 C654 1.395 . S
C655 C656 1.335 . S
C656 C655 1.335 . S
C656 C657 1.398 . S
C656 H678 0.930 . S
C657 C652 1.382 . S
C657 C656 1.398 . S
C657 H679 0.929 . S
C658 O668 1.271 . S
C658 O669 1.251 . S
C659 O670 1.252 . S
C659 O671 1.272 . S
O660 Sm640 2.543 . S
O660 C642 1.261 . S
O661 Sm640 2.450 . S
O661 C642 1.242 . S
O662 Sm640 2.681 . S
O662 Sm641 2.386 . S
O662 C649 1.271 . S
O663 Sm640 2.464 . S
O663 C649 1.251 . S
O664 Sm640 2.396 . S
O664 C650 1.252 . S
O665 Sm641 2.408 . S
O665 C650 1.272 . S
O666 Sm641 2.543 . S
O666 C651 1.261 . S
O667 Sm641 2.450 . S
O667 C651 1.242 . S
O668 Sm640 2.386 . S
O668 Sm641 2.681 . S
O668 C658 1.271 . S
O669 Sm641 2.464 . S
O669 C658 1.251 . S
O670 Sm641 2.396 . S
O670 C659 1.252 . S
O671 Sm640 2.408 . S
O671 C659 1.272 . S
H672 C644 0.930 . S
H673 C645 0.929 . S
H674 C647 0.930 . S
H675 C648 0.929 . S
H676 C653 0.930 . S
H677 C654 0.929 . S
H678 C656 0.930 . S
H679 C657 0.929 . S
Sm680 C682 2.846 . S
Sm680 O700 2.543 . S
Sm680 O701 2.450 . S
Sm680 O702 2.681 . S
Sm680 O703 2.464 . S
Sm680 O704 2.396 . S
Sm680 O708 2.386 . S
Sm680 O711 2.408 . S
Sm681 C691 2.846 . S
Sm681 O702 2.386 . S
Sm681 O705 2.408 . S
Sm681 O706 2.543 . S
Sm681 O707 2.450 . S
Sm681 O708 2.681 . S
Sm681 O709 2.464 . S
Sm681 O710 2.396 . S
C682 Sm680 2.846 . S
C682 C683 1.506 . S
C682 O700 1.261 . S
C682 O701 1.242 . S
C683 C682 1.506 . S
C683 C684 1.358 . S
C683 C688 1.382 . S
C684 C683 1.358 . S
C684 C685 1.385 1_545 S
C684 H712 0.930 1_545 S
C685 C684 1.385 1_565 S
C685 C686 1.395 1_565 S
C685 H713 0.929 . S
C686 C685 1.395 1_545 S
C686 C687 1.335 . S
C687 C686 1.335 . S
C687 C688 1.398 . S
C687 H714 0.930 . S
C688 C683 1.382 . S
C688 C687 1.398 . S
C688 H715 0.929 . S
C689 O702 1.271 . S
C689 O703 1.251 . S
C690 O704 1.252 . S
C690 O705 1.272 . S
C691 Sm681 2.846 . S
C691 C692 1.506 . S
C691 O706 1.261 . S
C691 O707 1.242 . S
C692 C691 1.506 . S
C692 C693 1.358 . S
C692 C697 1.382 . S
C693 C692 1.358 . S
C693 C694 1.385 . S
C693 H716 0.930 . S
C694 C693 1.385 . S
C694 C695 1.395 . S
C694 H717 0.929 . S
C695 C694 1.395 . S
C695 C696 1.335 . S
C696 C695 1.335 . S
C696 C697 1.398 . S
C696 H718 0.930 . S
C697 C692 1.382 . S
C697 C696 1.398 . S
C697 H719 0.929 . S
C698 O708 1.271 . S
C698 O709 1.251 . S
C699 O710 1.252 . S
C699 O711 1.272 . S
O700 Sm680 2.543 . S
O700 C682 1.261 . S
O701 Sm680 2.450 . S
O701 C682 1.242 . S
O702 Sm680 2.681 . S
O702 Sm681 2.386 . S
O702 C689 1.271 . S
O703 Sm680 2.464 . S
O703 C689 1.251 . S
O704 Sm680 2.396 . S
O704 C690 1.252 . S
O705 Sm681 2.408 . S
O705 C690 1.272 . S
O706 Sm681 2.543 . S
O706 C691 1.261 . S
O707 Sm681 2.450 . S
O707 C691 1.242 . S
O708 Sm680 2.386 . S
O708 Sm681 2.681 . S
O708 C698 1.271 . S
O709 Sm681 2.464 . S
O709 C698 1.251 . S
O710 Sm681 2.396 . S
O710 C699 1.252 . S
O711 Sm680 2.408 . S
O711 C699 1.272 . S
H712 C684 0.930 1_565 S
H713 C685 0.929 . S
H714 C687 0.930 . S
H715 C688 0.929 . S
H716 C693 0.930 . S
H717 C694 0.929 . S
H718 C696 0.930 . S
H719 C697 0.929 . S
Sm720 C722 2.846 . S
Sm720 O740 2.543 . S
Sm720 O741 2.450 . S
Sm720 O742 2.681 . S
Sm720 O743 2.464 . S
Sm720 O744 2.396 . S
Sm720 O748 2.386 . S
Sm720 O751 2.408 . S
Sm721 C731 2.846 . S
Sm721 O742 2.386 . S
Sm721 O745 2.408 . S
Sm721 O746 2.543 . S
Sm721 O747 2.450 . S
Sm721 O748 2.681 . S
Sm721 O749 2.464 . S
Sm721 O750 2.396 . S
C722 Sm720 2.846 . S
C722 C723 1.506 . S
C722 O740 1.261 . S
C722 O741 1.242 . S
C723 C722 1.506 . S
C723 C724 1.358 . S
C723 C728 1.382 . S
C724 C723 1.358 . S
C724 C725 1.385 . S
C724 H752 0.930 . S
C725 C724 1.385 . S
C725 C726 1.395 . S
C725 H753 0.929 . S
C726 C725 1.395 . S
C726 C727 1.335 . S
C727 C726 1.335 . S
C727 C728 1.398 . S
C727 H754 0.930 . S
C728 C723 1.382 . S
C728 C727 1.398 . S
C728 H755 0.929 . S
C729 O742 1.271 . S
C729 O743 1.251 . S
C730 O744 1.252 . S
C730 O745 1.272 . S
C731 Sm721 2.846 . S
C731 C732 1.506 . S
C731 O746 1.261 . S
C731 O747 1.242 . S
C732 C731 1.506 . S
C732 C733 1.358 . S
C732 C737 1.382 . S
C733 C732 1.358 . S
C733 C734 1.385 1_545 S
C733 H756 0.930 1_545 S
C734 C733 1.385 1_565 S
C734 C735 1.395 1_565 S
C734 H757 0.929 . S
C735 C734 1.395 1_545 S
C735 C736 1.335 . S
C736 C735 1.335 . S
C736 C737 1.398 . S
C736 H758 0.930 . S
C737 C732 1.382 . S
C737 C736 1.398 . S
C737 H759 0.929 . S
C738 O748 1.271 . S
C738 O749 1.251 . S
C739 O750 1.252 . S
C739 O751 1.272 . S
O740 Sm720 2.543 . S
O740 C722 1.261 . S
O741 Sm720 2.450 . S
O741 C722 1.242 . S
O742 Sm720 2.681 . S
O742 Sm721 2.386 . S
O742 C729 1.271 . S
O743 Sm720 2.464 . S
O743 C729 1.251 . S
O744 Sm720 2.396 . S
O744 C730 1.252 . S
O745 Sm721 2.408 . S
O745 C730 1.272 . S
O746 Sm721 2.543 . S
O746 C731 1.261 . S
O747 Sm721 2.450 . S
O747 C731 1.242 . S
O748 Sm720 2.386 . S
O748 Sm721 2.681 . S
O748 C738 1.271 . S
O749 Sm721 2.464 . S
O749 C738 1.251 . S
O750 Sm721 2.396 . S
O750 C739 1.252 . S
O751 Sm720 2.408 . S
O751 C739 1.272 . S
H752 C724 0.930 . S
H753 C725 0.929 . S
H754 C727 0.930 . S
H755 C728 0.929 . S
H756 C733 0.930 1_565 S
H757 C734 0.929 . S
H758 C736 0.930 . S
H759 C737 0.929 . S
Sm760 C762 2.846 . S
Sm760 O780 2.543 . S
Sm760 O781 2.450 . S
Sm760 O782 2.681 . S
Sm760 O783 2.464 . S
Sm760 O784 2.396 . S
Sm760 O788 2.386 . S
Sm760 O791 2.408 . S
Sm761 C771 2.846 . S
Sm761 O782 2.386 . S
Sm761 O785 2.408 . S
Sm761 O786 2.543 . S
Sm761 O787 2.450 . S
Sm761 O788 2.681 . S
Sm761 O789 2.464 . S
Sm761 O790 2.396 . S
C762 Sm760 2.846 . S
C762 C763 1.506 . S
C762 O780 1.261 . S
C762 O781 1.242 . S
C763 C762 1.506 . S
C763 C764 1.358 . S
C763 C768 1.382 . S
C764 C763 1.358 . S
C764 C765 1.385 . S
C764 H792 0.930 . S
C765 C764 1.385 . S
C765 C766 1.395 . S
C765 H793 0.929 . S
C766 C765 1.395 . S
C766 C767 1.335 . S
C767 C766 1.335 . S
C767 C768 1.398 . S
C767 H794 0.930 . S
C768 C763 1.382 . S
C768 C767 1.398 . S
C768 H795 0.929 . S
C769 O782 1.271 . S
C769 O783 1.251 . S
C770 O784 1.252 . S
C770 O785 1.272 . S
C771 Sm761 2.846 . S
C771 C772 1.506 . S
C771 O786 1.261 . S
C771 O787 1.242 . S
C772 C771 1.506 . S
C772 C773 1.358 . S
C772 C777 1.382 . S
C773 C772 1.358 . S
C773 C774 1.385 1_655 S
C773 H796 0.930 1_655 S
C774 C773 1.385 1_455 S
C774 C775 1.395 1_455 S
C774 H797 0.929 . S
C775 C774 1.395 1_655 S
C775 C776 1.335 . S
C776 C775 1.335 . S
C776 C777 1.398 . S
C776 H798 0.930 . S
C777 C772 1.382 . S
C777 C776 1.398 . S
C777 H799 0.929 . S
C778 O788 1.271 . S
C778 O789 1.251 . S
C779 O790 1.252 . S
C779 O791 1.272 . S
O780 Sm760 2.543 . S
O780 C762 1.261 . S
O781 Sm760 2.450 . S
O781 C762 1.242 . S
O782 Sm760 2.681 . S
O782 Sm761 2.386 . S
O782 C769 1.271 . S
O783 Sm760 2.464 . S
O783 C769 1.251 . S
O784 Sm760 2.396 . S
O784 C770 1.252 . S
O785 Sm761 2.408 . S
O785 C770 1.272 . S
O786 Sm761 2.543 . S
O786 C771 1.261 . S
O787 Sm761 2.450 . S
O787 C771 1.242 . S
O788 Sm760 2.386 . S
O788 Sm761 2.681 . S
O788 C778 1.271 . S
O789 Sm761 2.464 . S
O789 C778 1.251 . S
O790 Sm761 2.396 . S
O790 C779 1.252 . S
O791 Sm760 2.408 . S
O791 C779 1.272 . S
H792 C764 0.930 . S
H793 C765 0.929 . S
H794 C767 0.930 . S
H795 C768 0.929 . S
H796 C773 0.930 1_455 S
H797 C774 0.929 . S
H798 C776 0.930 . S
H799 C777 0.929 . S
Sm800 C802 2.846 . S
Sm800 O820 2.543 . S
Sm800 O821 2.450 . S
Sm800 O822 2.681 . S
Sm800 O823 2.464 . S
Sm800 O824 2.396 . S
Sm800 O828 2.386 . S
Sm800 O831 2.408 . S
Sm801 C811 2.846 . S
Sm801 O822 2.386 . S
Sm801 O825 2.408 . S
Sm801 O826 2.543 . S
Sm801 O827 2.450 . S
Sm801 O828 2.681 . S
Sm801 O829 2.464 . S
Sm801 O830 2.396 . S
C802 Sm800 2.846 . S
C802 C803 1.506 . S
C802 O820 1.261 . S
C802 O821 1.242 . S
C803 C802 1.506 . S
C803 C804 1.358 . S
C803 C808 1.382 . S
C804 C803 1.358 . S
C804 C805 1.385 . S
C804 H832 0.930 . S
C805 C804 1.385 . S
C805 C806 1.395 . S
C805 H833 0.929 . S
C806 C805 1.395 . S
C806 C807 1.335 . S
C807 C806 1.335 . S
C807 C808 1.398 . S
C807 H834 0.930 . S
C808 C803 1.382 . S
C808 C807 1.398 . S
C808 H835 0.929 . S
C809 O822 1.271 . S
C809 O823 1.251 . S
C810 O824 1.252 . S
C810 O825 1.272 . S
C811 Sm801 2.846 . S
C811 C812 1.506 . S
C811 O826 1.261 . S
C811 O827 1.242 . S
C812 C811 1.506 . S
C812 C813 1.358 . S
C812 C817 1.382 . S
C813 C812 1.358 . S
C813 C814 1.385 . S
C813 H836 0.930 . S
C814 C813 1.385 . S
C814 C815 1.395 . S
C814 H837 0.929 . S
C815 C814 1.395 . S
C815 C816 1.335 . S
C816 C815 1.335 . S
C816 C817 1.398 . S
C816 H838 0.930 . S
C817 C812 1.382 . S
C817 C816 1.398 . S
C817 H839 0.929 . S
C818 O828 1.271 . S
C818 O829 1.251 . S
C819 O830 1.252 . S
C819 O831 1.272 . S
O820 Sm800 2.543 . S
O820 C802 1.261 . S
O821 Sm800 2.450 . S
O821 C802 1.242 . S
O822 Sm800 2.681 . S
O822 Sm801 2.386 . S
O822 C809 1.271 . S
O823 Sm800 2.464 . S
O823 C809 1.251 . S
O824 Sm800 2.396 . S
O824 C810 1.252 . S
O825 Sm801 2.408 . S
O825 C810 1.272 . S
O826 Sm801 2.543 . S
O826 C811 1.261 . S
O827 Sm801 2.450 . S
O827 C811 1.242 . S
O828 Sm800 2.386 . S
O828 Sm801 2.681 . S
O828 C818 1.271 . S
O829 Sm801 2.464 . S
O829 C818 1.251 . S
O830 Sm801 2.396 . S
O830 C819 1.252 . S
O831 Sm800 2.408 . S
O831 C819 1.272 . S
H832 C804 0.930 . S
H833 C805 0.929 . S
H834 C807 0.930 . S
H835 C808 0.929 . S
H836 C813 0.930 . S
H837 C814 0.929 . S
H838 C816 0.930 . S
H839 C817 0.929 . S
Sm840 C842 2.846 . S
Sm840 O860 2.543 . S
Sm840 O861 2.450 . S
Sm840 O862 2.681 1_554 S
Sm840 O863 2.464 . S
Sm840 O864 2.396 . S
Sm840 O868 2.386 . S
Sm840 O871 2.408 . S
Sm841 C851 2.846 . S
Sm841 O862 2.386 . S
Sm841 O865 2.408 . S
Sm841 O866 2.543 . S
Sm841 O867 2.450 . S
Sm841 O868 2.681 1_556 S
Sm841 O869 2.464 . S
Sm841 O870 2.396 . S
C842 Sm840 2.846 . S
C842 C843 1.506 . S
C842 O860 1.261 . S
C842 O861 1.242 . S
C843 C842 1.506 . S
C843 C844 1.358 . S
C843 C848 1.382 . S
C844 C843 1.358 . S
C844 C845 1.385 . S
C844 H872 0.930 . S
C845 C844 1.385 . S
C845 C846 1.395 . S
C845 H873 0.929 . S
C846 C845 1.395 . S
C846 C847 1.335 . S
C847 C846 1.335 . S
C847 C848 1.398 . S
C847 H874 0.930 . S
C848 C843 1.382 . S
C848 C847 1.398 . S
C848 H875 0.929 . S
C849 O862 1.271 1_554 S
C849 O863 1.251 . S
C850 O864 1.252 . S
C850 O865 1.272 1_554 S
C851 Sm841 2.846 . S
C851 C852 1.506 . S
C851 O866 1.261 . S
C851 O867 1.242 . S
C852 C851 1.506 . S
C852 C853 1.358 . S
C852 C857 1.382 . S
C853 C852 1.358 . S
C853 C854 1.385 . S
C853 H876 0.930 . S
C854 C853 1.385 . S
C854 C855 1.395 . S
C854 H877 0.929 . S
C855 C854 1.395 . S
C855 C856 1.335 . S
C856 C855 1.335 . S
C856 C857 1.398 . S
C856 H878 0.930 . S
C857 C852 1.382 . S
C857 C856 1.398 . S
C857 H879 0.929 . S
C858 O868 1.271 1_556 S
C858 O869 1.251 . S
C859 O870 1.252 . S
C859 O871 1.272 1_556 S
O860 Sm840 2.543 . S
O860 C842 1.261 . S
O861 Sm840 2.450 . S
O861 C842 1.242 . S
O862 Sm840 2.681 1_556 S
O862 Sm841 2.386 . S
O862 C849 1.271 1_556 S
O863 Sm840 2.464 . S
O863 C849 1.251 . S
O864 Sm840 2.396 . S
O864 C850 1.252 . S
O865 Sm841 2.408 . S
O865 C850 1.272 1_556 S
O866 Sm841 2.543 . S
O866 C851 1.261 . S
O867 Sm841 2.450 . S
O867 C851 1.242 . S
O868 Sm840 2.386 . S
O868 Sm841 2.681 1_554 S
O868 C858 1.271 1_554 S
O869 Sm841 2.464 . S
O869 C858 1.251 . S
O870 Sm841 2.396 . S
O870 C859 1.252 . S
O871 Sm840 2.408 . S
O871 C859 1.272 1_554 S
H872 C844 0.930 . S
H873 C845 0.929 . S
H874 C847 0.930 . S
H875 C848 0.929 . S
H876 C853 0.930 . S
H877 C854 0.929 . S
H878 C856 0.930 . S
H879 C857 0.929 . S
Sm880 C882 2.846 . S
Sm880 O900 2.543 . S
Sm880 O901 2.450 . S
Sm880 O902 2.681 1_554 S
Sm880 O903 2.464 . S
Sm880 O904 2.396 . S
Sm880 O908 2.386 . S
Sm880 O911 2.408 . S
Sm881 C891 2.846 . S
Sm881 O902 2.386 . S
Sm881 O905 2.408 . S
Sm881 O906 2.543 . S
Sm881 O907 2.450 . S
Sm881 O908 2.681 1_556 S
Sm881 O909 2.464 . S
Sm881 O910 2.396 . S
C882 Sm880 2.846 . S
C882 C883 1.506 . S
C882 O900 1.261 . S
C882 O901 1.242 . S
C883 C882 1.506 . S
C883 C884 1.358 . S
C883 C888 1.382 . S
C884 C883 1.358 . S
C884 C885 1.385 . S
C884 H912 0.930 . S
C885 C884 1.385 . S
C885 C886 1.395 . S
C885 H913 0.929 . S
C886 C885 1.395 . S
C886 C887 1.335 . S
C887 C886 1.335 . S
C887 C888 1.398 . S
C887 H914 0.930 . S
C888 C883 1.382 . S
C888 C887 1.398 . S
C888 H915 0.929 . S
C889 O902 1.271 1_554 S
C889 O903 1.251 . S
C890 O904 1.252 . S
C890 O905 1.272 1_554 S
C891 Sm881 2.846 . S
C891 C892 1.506 . S
C891 O906 1.261 . S
C891 O907 1.242 . S
C892 C891 1.506 . S
C892 C893 1.358 . S
C892 C897 1.382 . S
C893 C892 1.358 . S
C893 C894 1.385 . S
C893 H916 0.930 . S
C894 C893 1.385 . S
C894 C895 1.395 . S
C894 H917 0.929 . S
C895 C894 1.395 . S
C895 C896 1.335 . S
C896 C895 1.335 . S
C896 C897 1.398 . S
C896 H918 0.930 . S
C897 C892 1.382 . S
C897 C896 1.398 . S
C897 H919 0.929 . S
C898 O908 1.271 1_556 S
C898 O909 1.251 . S
C899 O910 1.252 . S
C899 O911 1.272 1_556 S
O900 Sm880 2.543 . S
O900 C882 1.261 . S
O901 Sm880 2.450 . S
O901 C882 1.242 . S
O902 Sm880 2.681 1_556 S
O902 Sm881 2.386 . S
O902 C889 1.271 1_556 S
O903 Sm880 2.464 . S
O903 C889 1.251 . S
O904 Sm880 2.396 . S
O904 C890 1.252 . S
O905 Sm881 2.408 . S
O905 C890 1.272 1_556 S
O906 Sm881 2.543 . S
O906 C891 1.261 . S
O907 Sm881 2.450 . S
O907 C891 1.242 . S
O908 Sm880 2.386 . S
O908 Sm881 2.681 1_554 S
O908 C898 1.271 1_554 S
O909 Sm881 2.464 . S
O909 C898 1.251 . S
O910 Sm881 2.396 . S
O910 C899 1.252 . S
O911 Sm880 2.408 . S
O911 C899 1.272 1_554 S
H912 C884 0.930 . S
H913 C885 0.929 . S
H914 C887 0.930 . S
H915 C888 0.929 . S
H916 C893 0.930 . S
H917 C894 0.929 . S
H918 C896 0.930 . S
H919 C897 0.929 . S
Sm920 C922 2.846 . S
Sm920 O940 2.543 . S
Sm920 O941 2.450 . S
Sm920 O942 2.681 1_554 S
Sm920 O943 2.464 . S
Sm920 O944 2.396 . S
Sm920 O948 2.386 . S
Sm920 O951 2.408 . S
Sm921 C931 2.846 . S
Sm921 O942 2.386 . S
Sm921 O945 2.408 . S
Sm921 O946 2.543 . S
Sm921 O947 2.450 . S
Sm921 O948 2.681 1_556 S
Sm921 O949 2.464 . S
Sm921 O950 2.396 . S
C922 Sm920 2.846 . S
C922 C923 1.506 . S
C922 O940 1.261 . S
C922 O941 1.242 . S
C923 C922 1.506 . S
C923 C924 1.358 . S
C923 C928 1.382 . S
C924 C923 1.358 . S
C924 C925 1.385 . S
C924 H952 0.930 . S
C925 C924 1.385 . S
C925 C926 1.395 . S
C925 H953 0.929 . S
C926 C925 1.395 . S
C926 C927 1.335 . S
C927 C926 1.335 . S
C927 C928 1.398 . S
C927 H954 0.930 . S
C928 C923 1.382 . S
C928 C927 1.398 . S
C928 H955 0.929 . S
C929 O942 1.271 1_554 S
C929 O943 1.251 . S
C930 O944 1.252 . S
C930 O945 1.272 1_554 S
C931 Sm921 2.846 . S
C931 C932 1.506 . S
C931 O946 1.261 . S
C931 O947 1.242 . S
C932 C931 1.506 . S
C932 C933 1.358 . S
C932 C937 1.382 . S
C933 C932 1.358 . S
C933 C934 1.385 . S
C933 H956 0.930 . S
C934 C933 1.385 . S
C934 C935 1.395 . S
C934 H957 0.929 . S
C935 C934 1.395 . S
C935 C936 1.335 . S
C936 C935 1.335 . S
C936 C937 1.398 . S
C936 H958 0.930 . S
C937 C932 1.382 . S
C937 C936 1.398 . S
C937 H959 0.929 . S
C938 O948 1.271 1_556 S
C938 O949 1.251 . S
C939 O950 1.252 . S
C939 O951 1.272 1_556 S
O940 Sm920 2.543 . S
O940 C922 1.261 . S
O941 Sm920 2.450 . S
O941 C922 1.242 . S
O942 Sm920 2.681 1_556 S
O942 Sm921 2.386 . S
O942 C929 1.271 1_556 S
O943 Sm920 2.464 . S
O943 C929 1.251 . S
O944 Sm920 2.396 . S
O944 C930 1.252 . S
O945 Sm921 2.408 . S
O945 C930 1.272 1_556 S
O946 Sm921 2.543 . S
O946 C931 1.261 . S
O947 Sm921 2.450 . S
O947 C931 1.242 . S
O948 Sm920 2.386 . S
O948 Sm921 2.681 1_554 S
O948 C938 1.271 1_554 S
O949 Sm921 2.464 . S
O949 C938 1.251 . S
O950 Sm921 2.396 . S
O950 C939 1.252 . S
O951 Sm920 2.408 . S
O951 C939 1.272 1_554 S
H952 C924 0.930 . S
H953 C925 0.929 . S
H954 C927 0.930 . S
H955 C928 0.929 . S
H956 C933 0.930 . S
H957 C934 0.929 . S
H958 C936 0.930 . S
H959 C937 0.929 . S
Sm960 C962 2.846 . S
Sm960 O980 2.543 . S
Sm960 O981 2.450 . S
Sm960 O982 2.681 . S
Sm960 O983 2.464 . S
Sm960 O984 2.396 . S
Sm960 O988 2.386 . S
Sm960 O991 2.408 . S
Sm961 C971 2.846 . S
Sm961 O982 2.386 . S
Sm961 O985 2.408 . S
Sm961 O986 2.543 . S
Sm961 O987 2.450 . S
Sm961 O988 2.681 . S
Sm961 O989 2.464 . S
Sm961 O990 2.396 . S
C962 Sm960 2.846 . S
C962 C963 1.506 . S
C962 O980 1.261 . S
C962 O981 1.242 . S
C963 C962 1.506 . S
C963 C964 1.358 . S
C963 C968 1.382 . S
C964 C963 1.358 . S
C964 C965 1.385 1_565 S
C964 H992 0.930 1_565 S
C965 C964 1.385 1_545 S
C965 C966 1.395 1_545 S
C965 H993 0.929 . S
C966 C965 1.395 1_565 S
C966 C967 1.335 . S
C967 C966 1.335 . S
C967 C968 1.398 . S
C967 H994 0.930 . S
C968 C963 1.382 . S
C968 C967 1.398 . S
C968 H995 0.929 . S
C969 O982 1.271 . S
C969 O983 1.251 . S
C970 O984 1.252 . S
C970 O985 1.272 . S
C971 Sm961 2.846 . S
C971 C972 1.506 . S
C971 O986 1.261 . S
C971 O987 1.242 . S
C972 C971 1.506 . S
C972 C973 1.358 . S
C972 C977 1.382 . S
C973 C972 1.358 . S
C973 C974 1.385 . S
C973 H996 0.930 . S
C974 C973 1.385 . S
C974 C975 1.395 . S
C974 H997 0.929 . S
C975 C974 1.395 . S
C975 C976 1.335 . S
C976 C975 1.335 . S
C976 C977 1.398 . S
C976 H998 0.930 . S
C977 C972 1.382 . S
C977 C976 1.398 . S
C977 H999 0.929 . S
C978 O988 1.271 . S
C978 O989 1.251 . S
C979 O990 1.252 . S
C979 O991 1.272 . S
O980 Sm960 2.543 . S
O980 C962 1.261 . S
O981 Sm960 2.450 . S
O981 C962 1.242 . S
O982 Sm960 2.681 . S
O982 Sm961 2.386 . S
O982 C969 1.271 . S
O983 Sm960 2.464 . S
O983 C969 1.251 . S
O984 Sm960 2.396 . S
O984 C970 1.252 . S
O985 Sm961 2.408 . S
O985 C970 1.272 . S
O986 Sm961 2.543 . S
O986 C971 1.261 . S
O987 Sm961 2.450 . S
O987 C971 1.242 . S
O988 Sm960 2.386 . S
O988 Sm961 2.681 . S
O988 C978 1.271 . S
O989 Sm961 2.464 . S
O989 C978 1.251 . S
O990 Sm961 2.396 . S
O990 C979 1.252 . S
O991 Sm960 2.408 . S
O991 C979 1.272 . S
H992 C964 0.930 1_545 S
H993 C965 0.929 . S
H994 C967 0.930 . S
H995 C968 0.929 . S
H996 C973 0.930 . S
H997 C974 0.929 . S
H998 C976 0.930 . S
H999 C977 0.929 . S
Sm1000 C1002 2.846 . S
Sm1000 O1020 2.543 . S
Sm1000 O1021 2.450 . S
Sm1000 O1022 2.681 . S
Sm1000 O1023 2.464 . S
Sm1000 O1024 2.396 . S
Sm1000 O1028 2.386 . S
Sm1000 O1031 2.408 . S
Sm1001 C1011 2.846 . S
Sm1001 O1022 2.386 . S
Sm1001 O1025 2.408 . S
Sm1001 O1026 2.543 . S
Sm1001 O1027 2.450 . S
Sm1001 O1028 2.681 . S
Sm1001 O1029 2.464 . S
Sm1001 O1030 2.396 . S
C1002 Sm1000 2.846 . S
C1002 C1003 1.506 . S
C1002 O1020 1.261 . S
C1002 O1021 1.242 . S
C1003 C1002 1.506 . S
C1003 C1004 1.358 . S
C1003 C1008 1.382 . S
C1004 C1003 1.358 . S
C1004 C1005 1.385 1_455 S
C1004 H1032 0.930 1_455 S
C1005 C1004 1.385 1_655 S
C1005 C1006 1.395 1_655 S
C1005 H1033 0.929 . S
C1006 C1005 1.395 1_455 S
C1006 C1007 1.335 . S
C1007 C1006 1.335 . S
C1007 C1008 1.398 . S
C1007 H1034 0.930 . S
C1008 C1003 1.382 . S
C1008 C1007 1.398 . S
C1008 H1035 0.929 . S
C1009 O1022 1.271 . S
C1009 O1023 1.251 . S
C1010 O1024 1.252 . S
C1010 O1025 1.272 . S
C1011 Sm1001 2.846 . S
C1011 C1012 1.506 . S
C1011 O1026 1.261 . S
C1011 O1027 1.242 . S
C1012 C1011 1.506 . S
C1012 C1013 1.358 . S
C1012 C1017 1.382 . S
C1013 C1012 1.358 . S
C1013 C1014 1.385 . S
C1013 H1036 0.930 . S
C1014 C1013 1.385 . S
C1014 C1015 1.395 . S
C1014 H1037 0.929 . S
C1015 C1014 1.395 . S
C1015 C1016 1.335 . S
C1016 C1015 1.335 . S
C1016 C1017 1.398 . S
C1016 H1038 0.930 . S
C1017 C1012 1.382 . S
C1017 C1016 1.398 . S
C1017 H1039 0.929 . S
C1018 O1028 1.271 . S
C1018 O1029 1.251 . S
C1019 O1030 1.252 . S
C1019 O1031 1.272 . S
O1020 Sm1000 2.543 . S
O1020 C1002 1.261 . S
O1021 Sm1000 2.450 . S
O1021 C1002 1.242 . S
O1022 Sm1000 2.681 . S
O1022 Sm1001 2.386 . S
O1022 C1009 1.271 . S
O1023 Sm1000 2.464 . S
O1023 C1009 1.251 . S
O1024 Sm1000 2.396 . S
O1024 C1010 1.252 . S
O1025 Sm1001 2.408 . S
O1025 C1010 1.272 . S
O1026 Sm1001 2.543 . S
O1026 C1011 1.261 . S
O1027 Sm1001 2.450 . S
O1027 C1011 1.242 . S
O1028 Sm1000 2.386 . S
O1028 Sm1001 2.681 . S
O1028 C1018 1.271 . S
O1029 Sm1001 2.464 . S
O1029 C1018 1.251 . S
O1030 Sm1001 2.396 . S
O1030 C1019 1.252 . S
O1031 Sm1000 2.408 . S
O1031 C1019 1.272 . S
H1032 C1004 0.930 1_655 S
H1033 C1005 0.929 . S
H1034 C1007 0.930 . S
H1035 C1008 0.929 . S
H1036 C1013 0.930 . S
H1037 C1014 0.929 . S
H1038 C1016 0.930 . S
H1039 C1017 0.929 . S
Sm1040 C1042 2.846 . S
Sm1040 O1060 2.543 . S
Sm1040 O1061 2.450 . S
Sm1040 O1062 2.681 . S
Sm1040 O1063 2.464 . S
Sm1040 O1064 2.396 . S
Sm1040 O1068 2.386 . S
Sm1040 O1071 2.408 . S
Sm1041 C1051 2.846 . S
Sm1041 O1062 2.386 . S
Sm1041 O1065 2.408 . S
Sm1041 O1066 2.543 . S
Sm1041 O1067 2.450 . S
Sm1041 O1068 2.681 . S
Sm1041 O1069 2.464 . S
Sm1041 O1070 2.396 . S
C1042 Sm1040 2.846 . S
C1042 C1043 1.506 . S
C1042 O1060 1.261 . S
C1042 O1061 1.242 . S
C1043 C1042 1.506 . S
C1043 C1044 1.358 . S
C1043 C1048 1.382 . S
C1044 C1043 1.358 . S
C1044 C1045 1.385 . S
C1044 H1072 0.930 . S
C1045 C1044 1.385 . S
C1045 C1046 1.395 . S
C1045 H1073 0.929 . S
C1046 C1045 1.395 . S
C1046 C1047 1.335 . S
C1047 C1046 1.335 . S
C1047 C1048 1.398 . S
C1047 H1074 0.930 . S
C1048 C1043 1.382 . S
C1048 C1047 1.398 . S
C1048 H1075 0.929 . S
C1049 O1062 1.271 . S
C1049 O1063 1.251 . S
C1050 O1064 1.252 . S
C1050 O1065 1.272 . S
C1051 Sm1041 2.846 . S
C1051 C1052 1.506 . S
C1051 O1066 1.261 . S
C1051 O1067 1.242 . S
C1052 C1051 1.506 . S
C1052 C1053 1.358 . S
C1052 C1057 1.382 . S
C1053 C1052 1.358 . S
C1053 C1054 1.385 . S
C1053 H1076 0.930 . S
C1054 C1053 1.385 . S
C1054 C1055 1.395 . S
C1054 H1077 0.929 . S
C1055 C1054 1.395 . S
C1055 C1056 1.335 . S
C1056 C1055 1.335 . S
C1056 C1057 1.398 . S
C1056 H1078 0.930 . S
C1057 C1052 1.382 . S
C1057 C1056 1.398 . S
C1057 H1079 0.929 . S
C1058 O1068 1.271 . S
C1058 O1069 1.251 . S
C1059 O1070 1.252 . S
C1059 O1071 1.272 . S
O1060 Sm1040 2.543 . S
O1060 C1042 1.261 . S
O1061 Sm1040 2.450 . S
O1061 C1042 1.242 . S
O1062 Sm1040 2.681 . S
O1062 Sm1041 2.386 . S
O1062 C1049 1.271 . S
O1063 Sm1040 2.464 . S
O1063 C1049 1.251 . S
O1064 Sm1040 2.396 . S
O1064 C1050 1.252 . S
O1065 Sm1041 2.408 . S
O1065 C1050 1.272 . S
O1066 Sm1041 2.543 . S
O1066 C1051 1.261 . S
O1067 Sm1041 2.450 . S
O1067 C1051 1.242 . S
O1068 Sm1040 2.386 . S
O1068 Sm1041 2.681 . S
O1068 C1058 1.271 . S
O1069 Sm1041 2.464 . S
O1069 C1058 1.251 . S
O1070 Sm1041 2.396 . S
O1070 C1059 1.252 . S
O1071 Sm1040 2.408 . S
O1071 C1059 1.272 . S
H1072 C1044 0.930 . S
H1073 C1045 0.929 . S
H1074 C1047 0.930 . S
H1075 C1048 0.929 . S
H1076 C1053 0.930 . S
H1077 C1054 0.929 . S
H1078 C1056 0.930 . S
H1079 C1057 0.929 . S
Sm1080 C1082 2.846 . S
Sm1080 O1100 2.543 . S
Sm1080 O1101 2.450 . S
Sm1080 O1102 2.681 1_554 S
Sm1080 O1103 2.464 . S
Sm1080 O1104 2.396 . S
Sm1080 O1108 2.386 . S
Sm1080 O1111 2.408 . S
Sm1081 C1091 2.846 . S
Sm1081 O1102 2.386 . S
Sm1081 O1105 2.408 . S
Sm1081 O1106 2.543 . S
Sm1081 O1107 2.450 . S
Sm1081 O1108 2.681 1_556 S
Sm1081 O1109 2.464 . S
Sm1081 O1110 2.396 . S
C1082 Sm1080 2.846 . S
C1082 C1083 1.506 . S
C1082 O1100 1.261 . S
C1082 O1101 1.242 . S
C1083 C1082 1.506 . S
C1083 C1084 1.358 . S
C1083 C1088 1.382 . S
C1084 C1083 1.358 . S
C1084 C1085 1.385 . S
C1084 H1112 0.930 . S
C1085 C1084 1.385 . S
C1085 C1086 1.395 . S
C1085 H1113 0.929 . S
C1086 C1085 1.395 . S
C1086 C1087 1.335 . S
C1087 C1086 1.335 . S
C1087 C1088 1.398 . S
C1087 H1114 0.930 . S
C1088 C1083 1.382 . S
C1088 C1087 1.398 . S
C1088 H1115 0.929 . S
C1089 O1102 1.271 1_554 S
C1089 O1103 1.251 . S
C1090 O1104 1.252 . S
C1090 O1105 1.272 1_554 S
C1091 Sm1081 2.846 . S
C1091 C1092 1.506 . S
C1091 O1106 1.261 . S
C1091 O1107 1.242 . S
C1092 C1091 1.506 . S
C1092 C1093 1.358 . S
C1092 C1097 1.382 . S
C1093 C1092 1.358 . S
C1093 C1094 1.385 . S
C1093 H1116 0.930 . S
C1094 C1093 1.385 . S
C1094 C1095 1.395 . S
C1094 H1117 0.929 . S
C1095 C1094 1.395 . S
C1095 C1096 1.335 . S
C1096 C1095 1.335 . S
C1096 C1097 1.398 . S
C1096 H1118 0.930 . S
C1097 C1092 1.382 . S
C1097 C1096 1.398 . S
C1097 H1119 0.929 . S
C1098 O1108 1.271 1_556 S
C1098 O1109 1.251 . S
C1099 O1110 1.252 . S
C1099 O1111 1.272 1_556 S
O1100 Sm1080 2.543 . S
O1100 C1082 1.261 . S
O1101 Sm1080 2.450 . S
O1101 C1082 1.242 . S
O1102 Sm1080 2.681 1_556 S
O1102 Sm1081 2.386 . S
O1102 C1089 1.271 1_556 S
O1103 Sm1080 2.464 . S
O1103 C1089 1.251 . S
O1104 Sm1080 2.396 . S
O1104 C1090 1.252 . S
O1105 Sm1081 2.408 . S
O1105 C1090 1.272 1_556 S
O1106 Sm1081 2.543 . S
O1106 C1091 1.261 . S
O1107 Sm1081 2.450 . S
O1107 C1091 1.242 . S
O1108 Sm1080 2.386 . S
O1108 Sm1081 2.681 1_554 S
O1108 C1098 1.271 1_554 S
O1109 Sm1081 2.464 . S
O1109 C1098 1.251 . S
O1110 Sm1081 2.396 . S
O1110 C1099 1.252 . S
O1111 Sm1080 2.408 . S
O1111 C1099 1.272 1_554 S
H1112 C1084 0.930 . S
H1113 C1085 0.929 . S
H1114 C1087 0.930 . S
H1115 C1088 0.929 . S
H1116 C1093 0.930 . S
H1117 C1094 0.929 . S
H1118 C1096 0.930 . S
H1119 C1097 0.929 . S
Sm1120 C1122 2.846 . S
Sm1120 O1140 2.543 . S
Sm1120 O1141 2.450 . S
Sm1120 O1142 2.681 1_554 S
Sm1120 O1143 2.464 . S
Sm1120 O1144 2.396 . S
Sm1120 O1148 2.386 . S
Sm1120 O1151 2.408 . S
Sm1121 C1131 2.846 . S
Sm1121 O1142 2.386 . S
Sm1121 O1145 2.408 . S
Sm1121 O1146 2.543 . S
Sm1121 O1147 2.450 . S
Sm1121 O1148 2.681 1_556 S
Sm1121 O1149 2.464 . S
Sm1121 O1150 2.396 . S
C1122 Sm1120 2.846 . S
C1122 C1123 1.506 . S
C1122 O1140 1.261 . S
C1122 O1141 1.242 . S
C1123 C1122 1.506 . S
C1123 C1124 1.358 . S
C1123 C1128 1.382 . S
C1124 C1123 1.358 . S
C1124 C1125 1.385 . S
C1124 H1152 0.930 . S
C1125 C1124 1.385 . S
C1125 C1126 1.395 . S
C1125 H1153 0.929 . S
C1126 C1125 1.395 . S
C1126 C1127 1.335 . S
C1127 C1126 1.335 . S
C1127 C1128 1.398 . S
C1127 H1154 0.930 . S
C1128 C1123 1.382 . S
C1128 C1127 1.398 . S
C1128 H1155 0.929 . S
C1129 O1142 1.271 1_554 S
C1129 O1143 1.251 . S
C1130 O1144 1.252 . S
C1130 O1145 1.272 1_554 S
C1131 Sm1121 2.846 . S
C1131 C1132 1.506 . S
C1131 O1146 1.261 . S
C1131 O1147 1.242 . S
C1132 C1131 1.506 . S
C1132 C1133 1.358 . S
C1132 C1137 1.382 . S
C1133 C1132 1.358 . S
C1133 C1134 1.385 . S
C1133 H1156 0.930 . S
C1134 C1133 1.385 . S
C1134 C1135 1.395 . S
C1134 H1157 0.929 . S
C1135 C1134 1.395 . S
C1135 C1136 1.335 . S
C1136 C1135 1.335 . S
C1136 C1137 1.398 . S
C1136 H1158 0.930 . S
C1137 C1132 1.382 . S
C1137 C1136 1.398 . S
C1137 H1159 0.929 . S
C1138 O1148 1.271 1_556 S
C1138 O1149 1.251 . S
C1139 O1150 1.252 . S
C1139 O1151 1.272 1_556 S
O1140 Sm1120 2.543 . S
O1140 C1122 1.261 . S
O1141 Sm1120 2.450 . S
O1141 C1122 1.242 . S
O1142 Sm1120 2.681 1_556 S
O1142 Sm1121 2.386 . S
O1142 C1129 1.271 1_556 S
O1143 Sm1120 2.464 . S
O1143 C1129 1.251 . S
O1144 Sm1120 2.396 . S
O1144 C1130 1.252 . S
O1145 Sm1121 2.408 . S
O1145 C1130 1.272 1_556 S
O1146 Sm1121 2.543 . S
O1146 C1131 1.261 . S
O1147 Sm1121 2.450 . S
O1147 C1131 1.242 . S
O1148 Sm1120 2.386 . S
O1148 Sm1121 2.681 1_554 S
O1148 C1138 1.271 1_554 S
O1149 Sm1121 2.464 . S
O1149 C1138 1.251 . S
O1150 Sm1121 2.396 . S
O1150 C1139 1.252 . S
O1151 Sm1120 2.408 . S
O1151 C1139 1.272 1_554 S
H1152 C1124 0.930 . S
H1153 C1125 0.929 . S
H1154 C1127 0.930 . S
H1155 C1128 0.929 . S
H1156 C1133 0.930 . S
H1157 C1134 0.929 . S
H1158 C1136 0.930 . S
H1159 C1137 0.929 . S
Sm1160 C1162 2.846 . S
Sm1160 O1180 2.543 . S
Sm1160 O1181 2.450 . S
Sm1160 O1182 2.681 1_554 S
Sm1160 O1183 2.464 . S
Sm1160 O1184 2.396 . S
Sm1160 O1188 2.386 . S
Sm1160 O1191 2.408 . S
Sm1161 C1171 2.846 . S
Sm1161 O1182 2.386 . S
Sm1161 O1185 2.408 . S
Sm1161 O1186 2.543 . S
Sm1161 O1187 2.450 . S
Sm1161 O1188 2.681 1_556 S
Sm1161 O1189 2.464 . S
Sm1161 O1190 2.396 . S
C1162 Sm1160 2.846 . S
C1162 C1163 1.506 . S
C1162 O1180 1.261 . S
C1162 O1181 1.242 . S
C1163 C1162 1.506 . S
C1163 C1164 1.358 . S
C1163 C1168 1.382 . S
C1164 C1163 1.358 . S
C1164 C1165 1.385 . S
C1164 H1192 0.930 . S
C1165 C1164 1.385 . S
C1165 C1166 1.395 . S
C1165 H1193 0.929 . S
C1166 C1165 1.395 . S
C1166 C1167 1.335 . S
C1167 C1166 1.335 . S
C1167 C1168 1.398 . S
C1167 H1194 0.930 . S
C1168 C1163 1.382 . S
C1168 C1167 1.398 . S
C1168 H1195 0.929 . S
C1169 O1182 1.271 1_554 S
C1169 O1183 1.251 . S
C1170 O1184 1.252 . S
C1170 O1185 1.272 1_554 S
C1171 Sm1161 2.846 . S
C1171 C1172 1.506 . S
C1171 O1186 1.261 . S
C1171 O1187 1.242 . S
C1172 C1171 1.506 . S
C1172 C1173 1.358 . S
C1172 C1177 1.382 . S
C1173 C1172 1.358 . S
C1173 C1174 1.385 . S
C1173 H1196 0.930 . S
C1174 C1173 1.385 . S
C1174 C1175 1.395 . S
C1174 H1197 0.929 . S
C1175 C1174 1.395 . S
C1175 C1176 1.335 . S
C1176 C1175 1.335 . S
C1176 C1177 1.398 . S
C1176 H1198 0.930 . S
C1177 C1172 1.382 . S
C1177 C1176 1.398 . S
C1177 H1199 0.929 . S
C1178 O1188 1.271 1_556 S
C1178 O1189 1.251 . S
C1179 O1190 1.252 . S
C1179 O1191 1.272 1_556 S
O1180 Sm1160 2.543 . S
O1180 C1162 1.261 . S
O1181 Sm1160 2.450 . S
O1181 C1162 1.242 . S
O1182 Sm1160 2.681 1_556 S
O1182 Sm1161 2.386 . S
O1182 C1169 1.271 1_556 S
O1183 Sm1160 2.464 . S
O1183 C1169 1.251 . S
O1184 Sm1160 2.396 . S
O1184 C1170 1.252 . S
O1185 Sm1161 2.408 . S
O1185 C1170 1.272 1_556 S
O1186 Sm1161 2.543 . S
O1186 C1171 1.261 . S
O1187 Sm1161 2.450 . S
O1187 C1171 1.242 . S
O1188 Sm1160 2.386 . S
O1188 Sm1161 2.681 1_554 S
O1188 C1178 1.271 1_554 S
O1189 Sm1161 2.464 . S
O1189 C1178 1.251 . S
O1190 Sm1161 2.396 . S
O1190 C1179 1.252 . S
O1191 Sm1160 2.408 . S
O1191 C1179 1.272 1_554 S
H1192 C1164 0.930 . S
H1193 C1165 0.929 . S
H1194 C1167 0.930 . S
H1195 C1168 0.929 . S
H1196 C1173 0.930 . S
H1197 C1174 0.929 . S
H1198 C1176 0.930 . S
H1199 C1177 0.929 . S
Sm1200 C1202 2.846 . S
Sm1200 O1220 2.543 . S
Sm1200 O1221 2.450 . S
Sm1200 O1222 2.681 . S
Sm1200 O1223 2.464 . S
Sm1200 O1224 2.396 . S
Sm1200 O1228 2.386 . S
Sm1200 O1231 2.408 . S
Sm1201 C1211 2.846 . S
Sm1201 O1222 2.386 . S
Sm1201 O1225 2.408 . S
Sm1201 O1226 2.543 . S
Sm1201 O1227 2.450 . S
Sm1201 O1228 2.681 . S
Sm1201 O1229 2.464 . S
Sm1201 O1230 2.396 . S
C1202 Sm1200 2.846 . S
C1202 C1203 1.506 . S
C1202 O1220 1.261 . S
C1202 O1221 1.242 . S
C1203 C1202 1.506 . S
C1203 C1204 1.358 . S
C1203 C1208 1.382 . S
C1204 C1203 1.358 . S
C1204 C1205 1.385 . S
C1204 H1232 0.930 . S
C1205 C1204 1.385 . S
C1205 C1206 1.395 . S
C1205 H1233 0.929 . S
C1206 C1205 1.395 . S
C1206 C1207 1.335 . S
C1207 C1206 1.335 . S
C1207 C1208 1.398 . S
C1207 H1234 0.930 . S
C1208 C1203 1.382 . S
C1208 C1207 1.398 . S
C1208 H1235 0.929 . S
C1209 O1222 1.271 . S
C1209 O1223 1.251 . S
C1210 O1224 1.252 . S
C1210 O1225 1.272 . S
C1211 Sm1201 2.846 . S
C1211 C1212 1.506 . S
C1211 O1226 1.261 . S
C1211 O1227 1.242 . S
C1212 C1211 1.506 . S
C1212 C1213 1.358 . S
C1212 C1217 1.382 . S
C1213 C1212 1.358 . S
C1213 C1214 1.385 . S
C1213 H1236 0.930 . S
C1214 C1213 1.385 . S
C1214 C1215 1.395 . S
C1214 H1237 0.929 . S
C1215 C1214 1.395 . S
C1215 C1216 1.335 . S
C1216 C1215 1.335 . S
C1216 C1217 1.398 . S
C1216 H1238 0.930 . S
C1217 C1212 1.382 . S
C1217 C1216 1.398 . S
C1217 H1239 0.929 . S
C1218 O1228 1.271 . S
C1218 O1229 1.251 . S
C1219 O1230 1.252 . S
C1219 O1231 1.272 . S
O1220 Sm1200 2.543 . S
O1220 C1202 1.261 . S
O1221 Sm1200 2.450 . S
O1221 C1202 1.242 . S
O1222 Sm1200 2.681 . S
O1222 Sm1201 2.386 . S
O1222 C1209 1.271 . S
O1223 Sm1200 2.464 . S
O1223 C1209 1.251 . S
O1224 Sm1200 2.396 . S
O1224 C1210 1.252 . S
O1225 Sm1201 2.408 . S
O1225 C1210 1.272 . S
O1226 Sm1201 2.543 . S
O1226 C1211 1.261 . S
O1227 Sm1201 2.450 . S
O1227 C1211 1.242 . S
O1228 Sm1200 2.386 . S
O1228 Sm1201 2.681 . S
O1228 C1218 1.271 . S
O1229 Sm1201 2.464 . S
O1229 C1218 1.251 . S
O1230 Sm1201 2.396 . S
O1230 C1219 1.252 . S
O1231 Sm1200 2.408 . S
O1231 C1219 1.272 . S
H1232 C1204 0.930 . S
H1233 C1205 0.929 . S
H1234 C1207 0.930 . S
H1235 C1208 0.929 . S
H1236 C1213 0.930 . S
H1237 C1214 0.929 . S
H1238 C1216 0.930 . S
H1239 C1217 0.929 . S
Sm1240 C1242 2.846 . S
Sm1240 O1260 2.543 . S
Sm1240 O1261 2.450 . S
Sm1240 O1262 2.681 . S
Sm1240 O1263 2.464 . S
Sm1240 O1264 2.396 . S
Sm1240 O1268 2.386 . S
Sm1240 O1271 2.408 . S
Sm1241 C1251 2.846 . S
Sm1241 O1262 2.386 . S
Sm1241 O1265 2.408 . S
Sm1241 O1266 2.543 . S
Sm1241 O1267 2.450 . S
Sm1241 O1268 2.681 . S
Sm1241 O1269 2.464 . S
Sm1241 O1270 2.396 . S
C1242 Sm1240 2.846 . S
C1242 C1243 1.506 . S
C1242 O1260 1.261 . S
C1242 O1261 1.242 . S
C1243 C1242 1.506 . S
C1243 C1244 1.358 . S
C1243 C1248 1.382 . S
C1244 C1243 1.358 . S
C1244 C1245 1.385 . S
C1244 H1272 0.930 . S
C1245 C1244 1.385 . S
C1245 C1246 1.395 . S
C1245 H1273 0.929 . S
C1246 C1245 1.395 . S
C1246 C1247 1.335 . S
C1247 C1246 1.335 . S
C1247 C1248 1.398 . S
C1247 H1274 0.930 . S
C1248 C1243 1.382 . S
C1248 C1247 1.398 . S
C1248 H1275 0.929 . S
C1249 O1262 1.271 . S
C1249 O1263 1.251 . S
C1250 O1264 1.252 . S
C1250 O1265 1.272 . S
C1251 Sm1241 2.846 . S
C1251 C1252 1.506 . S
C1251 O1266 1.261 . S
C1251 O1267 1.242 . S
C1252 C1251 1.506 . S
C1252 C1253 1.358 . S
C1252 C1257 1.382 . S
C1253 C1252 1.358 . S
C1253 C1254 1.385 . S
C1253 H1276 0.930 . S
C1254 C1253 1.385 . S
C1254 C1255 1.395 . S
C1254 H1277 0.929 . S
C1255 C1254 1.395 . S
C1255 C1256 1.335 . S
C1256 C1255 1.335 . S
C1256 C1257 1.398 . S
C1256 H1278 0.930 . S
C1257 C1252 1.382 . S
C1257 C1256 1.398 . S
C1257 H1279 0.929 . S
C1258 O1268 1.271 . S
C1258 O1269 1.251 . S
C1259 O1270 1.252 . S
C1259 O1271 1.272 . S
O1260 Sm1240 2.543 . S
O1260 C1242 1.261 . S
O1261 Sm1240 2.450 . S
O1261 C1242 1.242 . S
O1262 Sm1240 2.681 . S
O1262 Sm1241 2.386 . S
O1262 C1249 1.271 . S
O1263 Sm1240 2.464 . S
O1263 C1249 1.251 . S
O1264 Sm1240 2.396 . S
O1264 C1250 1.252 . S
O1265 Sm1241 2.408 . S
O1265 C1250 1.272 . S
O1266 Sm1241 2.543 . S
O1266 C1251 1.261 . S
O1267 Sm1241 2.450 . S
O1267 C1251 1.242 . S
O1268 Sm1240 2.386 . S
O1268 Sm1241 2.681 . S
O1268 C1258 1.271 . S
O1269 Sm1241 2.464 . S
O1269 C1258 1.251 . S
O1270 Sm1241 2.396 . S
O1270 C1259 1.252 . S
O1271 Sm1240 2.408 . S
O1271 C1259 1.272 . S
H1272 C1244 0.930 . S
H1273 C1245 0.929 . S
H1274 C1247 0.930 . S
H1275 C1248 0.929 . S
H1276 C1253 0.930 . S
H1277 C1254 0.929 . S
H1278 C1256 0.930 . S
H1279 C1257 0.929 . S
Sm1280 C1282 2.846 . S
Sm1280 O1300 2.543 . S
Sm1280 O1301 2.450 . S
Sm1280 O1302 2.681 . S
Sm1280 O1303 2.464 . S
Sm1280 O1304 2.396 . S
Sm1280 O1308 2.386 . S
Sm1280 O1311 2.408 . S
Sm1281 C1291 2.846 . S
Sm1281 O1302 2.386 . S
Sm1281 O1305 2.408 . S
Sm1281 O1306 2.543 . S
Sm1281 O1307 2.450 . S
Sm1281 O1308 2.681 . S
Sm1281 O1309 2.464 . S
Sm1281 O1310 2.396 . S
C1282 Sm1280 2.846 . S
C1282 C1283 1.506 . S
C1282 O1300 1.261 . S
C1282 O1301 1.242 . S
C1283 C1282 1.506 . S
C1283 C1284 1.358 . S
C1283 C1288 1.382 . S
C1284 C1283 1.358 . S
C1284 C1285 1.385 . S
C1284 H1312 0.930 . S
C1285 C1284 1.385 . S
C1285 C1286 1.395 . S
C1285 H1313 0.929 . S
C1286 C1285 1.395 . S
C1286 C1287 1.335 . S
C1287 C1286 1.335 . S
C1287 C1288 1.398 . S
C1287 H1314 0.930 . S
C1288 C1283 1.382 . S
C1288 C1287 1.398 . S
C1288 H1315 0.929 . S
C1289 O1302 1.271 . S
C1289 O1303 1.251 . S
C1290 O1304 1.252 . S
C1290 O1305 1.272 . S
C1291 Sm1281 2.846 . S
C1291 C1292 1.506 . S
C1291 O1306 1.261 . S
C1291 O1307 1.242 . S
C1292 C1291 1.506 . S
C1292 C1293 1.358 . S
C1292 C1297 1.382 . S
C1293 C1292 1.358 . S
C1293 C1294 1.385 . S
C1293 H1316 0.930 . S
C1294 C1293 1.385 . S
C1294 C1295 1.395 . S
C1294 H1317 0.929 . S
C1295 C1294 1.395 . S
C1295 C1296 1.335 . S
C1296 C1295 1.335 . S
C1296 C1297 1.398 . S
C1296 H1318 0.930 . S
C1297 C1292 1.382 . S
C1297 C1296 1.398 . S
C1297 H1319 0.929 . S
C1298 O1308 1.271 . S
C1298 O1309 1.251 . S
C1299 O1310 1.252 . S
C1299 O1311 1.272 . S
O1300 Sm1280 2.543 . S
O1300 C1282 1.261 . S
O1301 Sm1280 2.450 . S
O1301 C1282 1.242 . S
O1302 Sm1280 2.681 . S
O1302 Sm1281 2.386 . S
O1302 C1289 1.271 . S
O1303 Sm1280 2.464 . S
O1303 C1289 1.251 . S
O1304 Sm1280 2.396 . S
O1304 C1290 1.252 . S
O1305 Sm1281 2.408 . S
O1305 C1290 1.272 . S
O1306 Sm1281 2.543 . S
O1306 C1291 1.261 . S
O1307 Sm1281 2.450 . S
O1307 C1291 1.242 . S
O1308 Sm1280 2.386 . S
O1308 Sm1281 2.681 . S
O1308 C1298 1.271 . S
O1309 Sm1281 2.464 . S
O1309 C1298 1.251 . S
O1310 Sm1281 2.396 . S
O1310 C1299 1.252 . S
O1311 Sm1280 2.408 . S
O1311 C1299 1.272 . S
H1312 C1284 0.930 . S
H1313 C1285 0.929 . S
H1314 C1287 0.930 . S
H1315 C1288 0.929 . S
H1316 C1293 0.930 . S
H1317 C1294 0.929 . S
H1318 C1296 0.930 . S
H1319 C1297 0.929 . S
Sm1320 C1322 2.846 . S
Sm1320 O1340 2.543 . S
Sm1320 O1341 2.450 . S
Sm1320 O1342 2.681 . S
Sm1320 O1343 2.464 . S
Sm1320 O1344 2.396 . S
Sm1320 O1348 2.386 . S
Sm1320 O1351 2.408 . S
Sm1321 C1331 2.846 . S
Sm1321 O1342 2.386 . S
Sm1321 O1345 2.408 . S
Sm1321 O1346 2.543 . S
Sm1321 O1347 2.450 . S
Sm1321 O1348 2.681 . S
Sm1321 O1349 2.464 . S
Sm1321 O1350 2.396 . S
C1322 Sm1320 2.846 . S
C1322 C1323 1.506 . S
C1322 O1340 1.261 . S
C1322 O1341 1.242 . S
C1323 C1322 1.506 . S
C1323 C1324 1.358 . S
C1323 C1328 1.382 . S
C1324 C1323 1.358 . S
C1324 C1325 1.385 . S
C1324 H1352 0.930 . S
C1325 C1324 1.385 . S
C1325 C1326 1.395 . S
C1325 H1353 0.929 . S
C1326 C1325 1.395 . S
C1326 C1327 1.335 . S
C1327 C1326 1.335 . S
C1327 C1328 1.398 . S
C1327 H1354 0.930 . S
C1328 C1323 1.382 . S
C1328 C1327 1.398 . S
C1328 H1355 0.929 . S
C1329 O1342 1.271 . S
C1329 O1343 1.251 . S
C1330 O1344 1.252 . S
C1330 O1345 1.272 . S
C1331 Sm1321 2.846 . S
C1331 C1332 1.506 . S
C1331 O1346 1.261 . S
C1331 O1347 1.242 . S
C1332 C1331 1.506 . S
C1332 C1333 1.358 . S
C1332 C1337 1.382 . S
C1333 C1332 1.358 . S
C1333 C1334 1.385 1_455 S
C1333 H1356 0.930 1_455 S
C1334 C1333 1.385 1_655 S
C1334 C1335 1.395 1_655 S
C1334 H1357 0.929 . S
C1335 C1334 1.395 1_455 S
C1335 C1336 1.335 . S
C1336 C1335 1.335 . S
C1336 C1337 1.398 . S
C1336 H1358 0.930 . S
C1337 C1332 1.382 . S
C1337 C1336 1.398 . S
C1337 H1359 0.929 . S
C1338 O1348 1.271 . S
C1338 O1349 1.251 . S
C1339 O1350 1.252 . S
C1339 O1351 1.272 . S
O1340 Sm1320 2.543 . S
O1340 C1322 1.261 . S
O1341 Sm1320 2.450 . S
O1341 C1322 1.242 . S
O1342 Sm1320 2.681 . S
O1342 Sm1321 2.386 . S
O1342 C1329 1.271 . S
O1343 Sm1320 2.464 . S
O1343 C1329 1.251 . S
O1344 Sm1320 2.396 . S
O1344 C1330 1.252 . S
O1345 Sm1321 2.408 . S
O1345 C1330 1.272 . S
O1346 Sm1321 2.543 . S
O1346 C1331 1.261 . S
O1347 Sm1321 2.450 . S
O1347 C1331 1.242 . S
O1348 Sm1320 2.386 . S
O1348 Sm1321 2.681 . S
O1348 C1338 1.271 . S
O1349 Sm1321 2.464 . S
O1349 C1338 1.251 . S
O1350 Sm1321 2.396 . S
O1350 C1339 1.252 . S
O1351 Sm1320 2.408 . S
O1351 C1339 1.272 . S
H1352 C1324 0.930 . S
H1353 C1325 0.929 . S
H1354 C1327 0.930 . S
H1355 C1328 0.929 . S
H1356 C1333 0.930 1_655 S
H1357 C1334 0.929 . S
H1358 C1336 0.930 . S
H1359 C1337 0.929 . S
Sm1360 C1362 2.846 . S
Sm1360 O1380 2.543 . S
Sm1360 O1381 2.450 . S
Sm1360 O1382 2.681 . S
Sm1360 O1383 2.464 . S
Sm1360 O1384 2.396 . S
Sm1360 O1388 2.386 . S
Sm1360 O1391 2.408 . S
Sm1361 C1371 2.846 . S
Sm1361 O1382 2.386 . S
Sm1361 O1385 2.408 . S
Sm1361 O1386 2.543 . S
Sm1361 O1387 2.450 . S
Sm1361 O1388 2.681 . S
Sm1361 O1389 2.464 . S
Sm1361 O1390 2.396 . S
C1362 Sm1360 2.846 . S
C1362 C1363 1.506 . S
C1362 O1380 1.261 . S
C1362 O1381 1.242 . S
C1363 C1362 1.506 . S
C1363 C1364 1.358 . S
C1363 C1368 1.382 . S
C1364 C1363 1.358 . S
C1364 C1365 1.385 . S
C1364 H1392 0.930 . S
C1365 C1364 1.385 . S
C1365 C1366 1.395 . S
C1365 H1393 0.929 . S
C1366 C1365 1.395 . S
C1366 C1367 1.335 . S
C1367 C1366 1.335 . S
C1367 C1368 1.398 . S
C1367 H1394 0.930 . S
C1368 C1363 1.382 . S
C1368 C1367 1.398 . S
C1368 H1395 0.929 . S
C1369 O1382 1.271 . S
C1369 O1383 1.251 . S
C1370 O1384 1.252 . S
C1370 O1385 1.272 . S
C1371 Sm1361 2.846 . S
C1371 C1372 1.506 . S
C1371 O1386 1.261 . S
C1371 O1387 1.242 . S
C1372 C1371 1.506 . S
C1372 C1373 1.358 . S
C1372 C1377 1.382 . S
C1373 C1372 1.358 . S
C1373 C1374 1.385 . S
C1373 H1396 0.930 . S
C1374 C1373 1.385 . S
C1374 C1375 1.395 . S
C1374 H1397 0.929 . S
C1375 C1374 1.395 . S
C1375 C1376 1.335 . S
C1376 C1375 1.335 . S
C1376 C1377 1.398 . S
C1376 H1398 0.930 . S
C1377 C1372 1.382 . S
C1377 C1376 1.398 . S
C1377 H1399 0.929 . S
C1378 O1388 1.271 . S
C1378 O1389 1.251 . S
C1379 O1390 1.252 . S
C1379 O1391 1.272 . S
O1380 Sm1360 2.543 . S
O1380 C1362 1.261 . S
O1381 Sm1360 2.450 . S
O1381 C1362 1.242 . S
O1382 Sm1360 2.681 . S
O1382 Sm1361 2.386 . S
O1382 C1369 1.271 . S
O1383 Sm1360 2.464 . S
O1383 C1369 1.251 . S
O1384 Sm1360 2.396 . S
O1384 C1370 1.252 . S
O1385 Sm1361 2.408 . S
O1385 C1370 1.272 . S
O1386 Sm1361 2.543 . S
O1386 C1371 1.261 . S
O1387 Sm1361 2.450 . S
O1387 C1371 1.242 . S
O1388 Sm1360 2.386 . S
O1388 Sm1361 2.681 . S
O1388 C1378 1.271 . S
O1389 Sm1361 2.464 . S
O1389 C1378 1.251 . S
O1390 Sm1361 2.396 . S
O1390 C1379 1.252 . S
O1391 Sm1360 2.408 . S
O1391 C1379 1.272 . S
H1392 C1364 0.930 . S
H1393 C1365 0.929 . S
H1394 C1367 0.930 . S
H1395 C1368 0.929 . S
H1396 C1373 0.930 . S
H1397 C1374 0.929 . S
H1398 C1376 0.930 . S
H1399 C1377 0.929 . S
Sm1400 C1402 2.846 . S
Sm1400 O1420 2.543 . S
Sm1400 O1421 2.450 . S
Sm1400 O1422 2.681 . S
Sm1400 O1423 2.464 . S
Sm1400 O1424 2.396 . S
Sm1400 O1428 2.386 . S
Sm1400 O1431 2.408 . S
Sm1401 C1411 2.846 . S
Sm1401 O1422 2.386 . S
Sm1401 O1425 2.408 . S
Sm1401 O1426 2.543 . S
Sm1401 O1427 2.450 . S
Sm1401 O1428 2.681 . S
Sm1401 O1429 2.464 . S
Sm1401 O1430 2.396 . S
C1402 Sm1400 2.846 . S
C1402 C1403 1.506 . S
C1402 O1420 1.261 . S
C1402 O1421 1.242 . S
C1403 C1402 1.506 . S
C1403 C1404 1.358 . S
C1403 C1408 1.382 . S
C1404 C1403 1.358 . S
C1404 C1405 1.385 . S
C1404 H1432 0.930 . S
C1405 C1404 1.385 . S
C1405 C1406 1.395 . S
C1405 H1433 0.929 . S
C1406 C1405 1.395 . S
C1406 C1407 1.335 . S
C1407 C1406 1.335 . S
C1407 C1408 1.398 . S
C1407 H1434 0.930 . S
C1408 C1403 1.382 . S
C1408 C1407 1.398 . S
C1408 H1435 0.929 . S
C1409 O1422 1.271 . S
C1409 O1423 1.251 . S
C1410 O1424 1.252 . S
C1410 O1425 1.272 . S
C1411 Sm1401 2.846 . S
C1411 C1412 1.506 . S
C1411 O1426 1.261 . S
C1411 O1427 1.242 . S
C1412 C1411 1.506 . S
C1412 C1413 1.358 . S
C1412 C1417 1.382 . S
C1413 C1412 1.358 . S
C1413 C1414 1.385 1_565 S
C1413 H1436 0.930 1_565 S
C1414 C1413 1.385 1_545 S
C1414 C1415 1.395 1_545 S
C1414 H1437 0.929 . S
C1415 C1414 1.395 1_565 S
C1415 C1416 1.335 . S
C1416 C1415 1.335 . S
C1416 C1417 1.398 . S
C1416 H1438 0.930 . S
C1417 C1412 1.382 . S
C1417 C1416 1.398 . S
C1417 H1439 0.929 . S
C1418 O1428 1.271 . S
C1418 O1429 1.251 . S
C1419 O1430 1.252 . S
C1419 O1431 1.272 . S
O1420 Sm1400 2.543 . S
O1420 C1402 1.261 . S
O1421 Sm1400 2.450 . S
O1421 C1402 1.242 . S
O1422 Sm1400 2.681 . S
O1422 Sm1401 2.386 . S
O1422 C1409 1.271 . S
O1423 Sm1400 2.464 . S
O1423 C1409 1.251 . S
O1424 Sm1400 2.396 . S
O1424 C1410 1.252 . S
O1425 Sm1401 2.408 . S
O1425 C1410 1.272 . S
O1426 Sm1401 2.543 . S
O1426 C1411 1.261 . S
O1427 Sm1401 2.450 . S
O1427 C1411 1.242 . S
O1428 Sm1400 2.386 . S
O1428 Sm1401 2.681 . S
O1428 C1418 1.271 . S
O1429 Sm1401 2.464 . S
O1429 C1418 1.251 . S
O1430 Sm1401 2.396 . S
O1430 C1419 1.252 . S
O1431 Sm1400 2.408 . S
O1431 C1419 1.272 . S
H1432 C1404 0.930 . S
H1433 C1405 0.929 . S
H1434 C1407 0.930 . S
H1435 C1408 0.929 . S
H1436 C1413 0.930 1_545 S
H1437 C1414 0.929 . S
H1438 C1416 0.930 . S
H1439 C1417 0.929 . S
H1440 C1452 0.930 . S
H1441 C1454 0.930 . S
H1442 C1455 0.930 . S
H1443 C1459 0.959 . S
H1444 C1459 0.959 . S
H1445 C1459 0.961 . S
H1446 C1460 0.960 . S
H1447 C1460 0.961 . S
H1448 C1460 0.959 . S
H1449 C1463 0.929 . S
H1450 C1464 0.931 . S
H1451 C1466 0.930 1_565 S
C1452 H1440 0.930 . S
C1452 C1453 1.399 . S
C1452 C1457 1.399 . S
C1453 C1452 1.399 . S
C1453 C1454 1.376 . S
C1454 H1441 0.930 . S
C1454 C1453 1.376 . S
C1454 C1455 1.388 . S
C1455 H1442 0.930 . S
C1455 C1454 1.388 . S
C1455 C1456 1.390 . S
C1456 C1455 1.390 . S
C1456 C1457 1.394 . S
C1456 C1462 1.465 . S
C1457 C1452 1.399 . S
C1457 C1456 1.394 . S
C1457 C1458 1.516 . S
C1458 C1457 1.516 . S
C1458 C1459 1.502 . S
C1458 C1460 1.561 . S
C1458 C1461 1.526 . S
C1459 H1443 0.959 . S
C1459 H1444 0.959 . S
C1459 H1445 0.961 . S
C1459 C1458 1.502 . S
C1460 H1446 0.960 . S
C1460 H1447 0.961 . S
C1460 H1448 0.959 . S
C1460 C1458 1.561 . S
C1461 C1458 1.526 . S
C1461 C1462 1.396 . S
C1461 C1466 1.390 . S
C1462 C1456 1.465 . S
C1462 C1461 1.396 . S
C1462 C1463 1.399 . S
C1463 H1449 0.929 . S
C1463 C1462 1.399 . S
C1463 C1464 1.385 1_545 S
C1464 H1450 0.931 . S
C1464 C1463 1.385 1_565 S
C1464 C1465 1.389 . S
C1465 C1464 1.389 . S
C1465 C1466 1.387 1_565 S
C1466 H1451 0.930 1_545 S
C1466 C1461 1.390 . S
C1466 C1465 1.387 1_545 S
H1467 C1479 0.930 1_455 S
H1468 C1481 0.930 . S
H1469 C1482 0.930 . S
H1470 C1486 0.959 . S
H1471 C1486 0.959 . S
H1472 C1486 0.961 . S
H1473 C1487 0.960 . S
H1474 C1487 0.961 . S
H1475 C1487 0.959 . S
H1476 C1490 0.929 . S
H1477 C1491 0.931 1_565 S
H1478 C1493 0.930 . S
C1479 H1467 0.930 1_655 S
C1479 C1480 1.399 1_655 S
C1479 C1484 1.399 . S
C1480 C1479 1.399 1_455 S
C1480 C1481 1.376 . S
C1481 H1468 0.930 . S
C1481 C1480 1.376 . S
C1481 C1482 1.388 1_455 S
C1482 H1469 0.930 . S
C1482 C1481 1.388 1_655 S
C1482 C1483 1.390 . S
C1483 C1482 1.390 . S
C1483 C1484 1.394 . S
C1483 C1489 1.465 . S
C1484 C1479 1.399 . S
C1484 C1483 1.394 . S
C1484 C1485 1.516 . S
C1485 C1484 1.516 . S
C1485 C1486 1.502 . S
C1485 C1487 1.561 . S
C1485 C1488 1.526 . S
C1486 H1470 0.959 . S
C1486 H1471 0.959 . S
C1486 H1472 0.961 . S
C1486 C1485 1.502 . S
C1487 H1473 0.960 . S
C1487 H1474 0.961 . S
C1487 H1475 0.959 . S
C1487 C1485 1.561 . S
C1488 C1485 1.526 . S
C1488 C1489 1.396 . S
C1488 C1493 1.390 . S
C1489 C1483 1.465 . S
C1489 C1488 1.396 . S
C1489 C1490 1.399 . S
C1490 H1476 0.929 . S
C1490 C1489 1.399 . S
C1490 C1491 1.385 . S
C1491 H1477 0.931 1_545 S
C1491 C1490 1.385 . S
C1491 C1492 1.389 . S
C1492 C1491 1.389 . S
C1492 C1493 1.387 . S
C1493 H1478 0.930 . S
C1493 C1488 1.390 . S
C1493 C1492 1.387 . S
H1494 C1506 0.930 . S
H1495 C1508 0.930 . S
H1496 C1509 0.930 . S
H1497 C1513 0.959 . S
H1498 C1513 0.959 . S
H1499 C1513 0.961 . S
H1500 C1514 0.960 . S
H1501 C1514 0.961 . S
H1502 C1514 0.959 . S
H1503 C1517 0.929 . S
H1504 C1518 0.931 . S
H1505 C1520 0.930 . S
C1506 H1494 0.930 . S
C1506 C1507 1.399 . S
C1506 C1511 1.399 . S
C1507 C1506 1.399 . S
C1507 C1508 1.376 . S
C1508 H1495 0.930 . S
C1508 C1507 1.376 . S
C1508 C1509 1.388 . S
C1509 H1496 0.930 . S
C1509 C1508 1.388 . S
C1509 C1510 1.390 . S
C1510 C1509 1.390 . S
C1510 C1511 1.394 . S
C1510 C1516 1.465 . S
C1511 C1506 1.399 . S
C1511 C1510 1.394 . S
C1511 C1512 1.516 . S
C1512 C1511 1.516 . S
C1512 C1513 1.502 . S
C1512 C1514 1.561 . S
C1512 C1515 1.526 . S
C1513 H1497 0.959 . S
C1513 H1498 0.959 . S
C1513 H1499 0.961 . S
C1513 C1512 1.502 . S
C1514 H1500 0.960 . S
C1514 H1501 0.961 . S
C1514 H1502 0.959 . S
C1514 C1512 1.561 . S
C1515 C1512 1.526 . S
C1515 C1516 1.396 . S
C1515 C1520 1.390 . S
C1516 C1510 1.465 . S
C1516 C1515 1.396 . S
C1516 C1517 1.399 . S
C1517 H1503 0.929 . S
C1517 C1516 1.399 . S
C1517 C1518 1.385 . S
C1518 H1504 0.931 . S
C1518 C1517 1.385 . S
C1518 C1519 1.389 . S
C1519 C1518 1.389 . S
C1519 C1520 1.387 . S
C1520 H1505 0.930 . S
C1520 C1515 1.390 . S
C1520 C1519 1.387 . S
H1521 C1533 0.930 . S
H1522 C1535 0.930 . S
H1523 C1536 0.930 . S
H1524 C1540 0.959 . S
H1525 C1540 0.959 . S
H1526 C1540 0.961 . S
H1527 C1541 0.960 . S
H1528 C1541 0.961 . S
H1529 C1541 0.959 . S
H1530 C1544 0.929 . S
H1531 C1545 0.931 . S
H1532 C1547 0.930 . S
C1533 H1521 0.930 . S
C1533 C1534 1.399 . S
C1533 C1538 1.399 . S
C1534 C1533 1.399 . S
C1534 C1535 1.376 . S
C1535 H1522 0.930 . S
C1535 C1534 1.376 . S
C1535 C1536 1.388 . S
C1536 H1523 0.930 . S
C1536 C1535 1.388 . S
C1536 C1537 1.390 . S
C1537 C1536 1.390 . S
C1537 C1538 1.394 . S
C1537 C1543 1.465 . S
C1538 C1533 1.399 . S
C1538 C1537 1.394 . S
C1538 C1539 1.516 . S
C1539 C1538 1.516 . S
C1539 C1540 1.502 . S
C1539 C1541 1.561 . S
C1539 C1542 1.526 . S
C1540 H1524 0.959 . S
C1540 H1525 0.959 . S
C1540 H1526 0.961 . S
C1540 C1539 1.502 . S
C1541 H1527 0.960 . S
C1541 H1528 0.961 . S
C1541 H1529 0.959 . S
C1541 C1539 1.561 . S
C1542 C1539 1.526 . S
C1542 C1543 1.396 . S
C1542 C1547 1.390 1_455 S
C1543 C1537 1.465 . S
C1543 C1542 1.396 . S
C1543 C1544 1.399 . S
C1544 H1530 0.929 . S
C1544 C1543 1.399 . S
C1544 C1545 1.385 1_455 S
C1545 H1531 0.931 . S
C1545 C1544 1.385 1_655 S
C1545 C1546 1.389 . S
C1546 C1545 1.389 . S
C1546 C1547 1.387 . S
C1547 H1532 0.930 . S
C1547 C1542 1.390 1_655 S
C1547 C1546 1.387 . S
H1548 C1560 0.930 . S
H1549 C1562 0.930 . S
H1550 C1563 0.930 . S
H1551 C1567 0.959 . S
H1552 C1567 0.959 . S
H1553 C1567 0.961 . S
H1554 C1568 0.960 . S
H1555 C1568 0.961 . S
H1556 C1568 0.959 . S
H1557 C1571 0.929 . S
H1558 C1572 0.931 1_545 S
H1559 C1574 0.930 . S
C1560 H1548 0.930 . S
C1560 C1561 1.399 . S
C1560 C1565 1.399 . S
C1561 C1560 1.399 . S
C1561 C1562 1.376 . S
C1562 H1549 0.930 . S
C1562 C1561 1.376 . S
C1562 C1563 1.388 . S
C1563 H1550 0.930 . S
C1563 C1562 1.388 . S
C1563 C1564 1.390 . S
C1564 C1563 1.390 . S
C1564 C1565 1.394 . S
C1564 C1570 1.465 . S
C1565 C1560 1.399 . S
C1565 C1564 1.394 . S
C1565 C1566 1.516 . S
C1566 C1565 1.516 . S
C1566 C1567 1.502 . S
C1566 C1568 1.561 . S
C1566 C1569 1.526 . S
C1567 H1551 0.959 . S
C1567 H1552 0.959 . S
C1567 H1553 0.961 . S
C1567 C1566 1.502 . S
C1568 H1554 0.960 . S
C1568 H1555 0.961 . S
C1568 H1556 0.959 . S
C1568 C1566 1.561 . S
C1569 C1566 1.526 . S
C1569 C1570 1.396 . S
C1569 C1574 1.390 . S
C1570 C1564 1.465 . S
C1570 C1569 1.396 . S
C1570 C1571 1.399 . S
C1571 H1557 0.929 . S
C1571 C1570 1.399 . S
C1571 C1572 1.385 . S
C1572 H1558 0.931 1_565 S
C1572 C1571 1.385 . S
C1572 C1573 1.389 . S
C1573 C1572 1.389 . S
C1573 C1574 1.387 . S
C1574 H1559 0.930 . S
C1574 C1569 1.390 . S
C1574 C1573 1.387 . S
H1575 C1587 0.930 . S
H1576 C1589 0.930 . S
H1577 C1590 0.930 . S
H1578 C1594 0.959 . S
H1579 C1594 0.959 . S
H1580 C1594 0.961 . S
H1581 C1595 0.960 . S
H1582 C1595 0.961 . S
H1583 C1595 0.959 . S
H1584 C1598 0.929 . S
H1585 C1599 0.931 . S
H1586 C1601 0.930 . S
C1587 H1575 0.930 . S
C1587 C1588 1.399 . S
C1587 C1592 1.399 . S
C1588 C1587 1.399 . S
C1588 C1589 1.376 1_455 S
C1589 H1576 0.930 . S
C1589 C1588 1.376 1_655 S
C1589 C1590 1.388 1_655 S
C1590 H1577 0.930 . S
C1590 C1589 1.388 1_455 S
C1590 C1591 1.390 . S
C1591 C1590 1.390 . S
C1591 C1592 1.394 . S
C1591 C1597 1.465 . S
C1592 C1587 1.399 . S
C1592 C1591 1.394 . S
C1592 C1593 1.516 . S
C1593 C1592 1.516 . S
C1593 C1594 1.502 . S
C1593 C1595 1.561 . S
C1593 C1596 1.526 . S
C1594 H1578 0.959 . S
C1594 H1579 0.959 . S
C1594 H1580 0.961 . S
C1594 C1593 1.502 . S
C1595 H1581 0.960 . S
C1595 H1582 0.961 . S
C1595 H1583 0.959 . S
C1595 C1593 1.561 . S
C1596 C1593 1.526 . S
C1596 C1597 1.396 . S
C1596 C1601 1.390 . S
C1597 C1591 1.465 . S
C1597 C1596 1.396 . S
C1597 C1598 1.399 . S
C1598 H1584 0.929 . S
C1598 C1597 1.399 . S
C1598 C1599 1.385 1_565 S
C1599 H1585 0.931 . S
C1599 C1598 1.385 1_545 S
C1599 C1600 1.389 . S
C1600 C1599 1.389 . S
C1600 C1601 1.387 1_545 S
C1601 H1586 0.930 . S
C1601 C1596 1.390 . S
C1601 C1600 1.387 1_565 S
H1602 C1614 0.930 . S
H1603 C1616 0.930 . S
H1604 C1617 0.930 . S
H1605 C1621 0.959 . S
H1606 C1621 0.959 . S
H1607 C1621 0.961 . S
H1608 C1622 0.960 . S
H1609 C1622 0.961 . S
H1610 C1622 0.959 . S
H1611 C1625 0.929 . S
H1612 C1626 0.931 . S
H1613 C1628 0.930 1_545 S
C1614 H1602 0.930 . S
C1614 C1615 1.399 . S
C1614 C1619 1.399 . S
C1615 C1614 1.399 . S
C1615 C1616 1.376 . S
C1616 H1603 0.930 . S
C1616 C1615 1.376 . S
C1616 C1617 1.388 . S
C1617 H1604 0.930 . S
C1617 C1616 1.388 . S
C1617 C1618 1.390 . S
C1618 C1617 1.390 . S
C1618 C1619 1.394 . S
C1618 C1624 1.465 . S
C1619 C1614 1.399 . S
C1619 C1618 1.394 . S
C1619 C1620 1.516 . S
C1620 C1619 1.516 . S
C1620 C1621 1.502 . S
C1620 C1622 1.561 . S
C1620 C1623 1.526 . S
C1621 H1605 0.959 . S
C1621 H1606 0.959 . S
C1621 H1607 0.961 . S
C1621 C1620 1.502 . S
C1622 H1608 0.960 . S
C1622 H1609 0.961 . S
C1622 H1610 0.959 . S
C1622 C1620 1.561 . S
C1623 C1620 1.526 . S
C1623 C1624 1.396 . S
C1623 C1628 1.390 . S
C1624 C1618 1.465 . S
C1624 C1623 1.396 . S
C1624 C1625 1.399 . S
C1625 H1611 0.929 . S
C1625 C1624 1.399 . S
C1625 C1626 1.385 1_565 S
C1626 H1612 0.931 . S
C1626 C1625 1.385 1_545 S
C1626 C1627 1.389 . S
C1627 C1626 1.389 . S
C1627 C1628 1.387 1_545 S
C1628 H1613 0.930 1_565 S
C1628 C1623 1.390 . S
C1628 C1627 1.387 1_565 S
H1629 C1641 0.930 . S
H1630 C1643 0.930 1_545 S
H1631 C1644 0.930 . S
H1632 C1648 0.959 . S
H1633 C1648 0.959 . S
H1634 C1648 0.961 . S
H1635 C1649 0.960 . S
H1636 C1649 0.961 . S
H1637 C1649 0.959 . S
H1638 C1652 0.929 . S
H1639 C1653 0.931 . S
H1640 C1655 0.930 . S
C1641 H1629 0.930 . S
C1641 C1642 1.399 . S
C1641 C1646 1.399 . S
C1642 C1641 1.399 . S
C1642 C1643 1.376 . S
C1643 H1630 0.930 1_565 S
C1643 C1642 1.376 . S
C1643 C1644 1.388 . S
C1644 H1631 0.930 . S
C1644 C1643 1.388 . S
C1644 C1645 1.390 . S
C1645 C1644 1.390 . S
C1645 C1646 1.394 . S
C1645 C1651 1.465 . S
C1646 C1641 1.399 . S
C1646 C1645 1.394 . S
C1646 C1647 1.516 . S
C1647 C1646 1.516 . S
C1647 C1648 1.502 . S
C1647 C1649 1.561 . S
C1647 C1650 1.526 . S
C1648 H1632 0.959 . S
C1648 H1633 0.959 . S
C1648 H1634 0.961 . S
C1648 C1647 1.502 . S
C1649 H1635 0.960 . S
C1649 H1636 0.961 . S
C1649 H1637 0.959 . S
C1649 C1647 1.561 . S
C1650 C1647 1.526 . S
C1650 C1651 1.396 . S
C1650 C1655 1.390 1_455 S
C1651 C1645 1.465 . S
C1651 C1650 1.396 . S
C1651 C1652 1.399 . S
C1652 H1638 0.929 . S
C1652 C1651 1.399 . S
C1652 C1653 1.385 1_455 S
C1653 H1639 0.931 . S
C1653 C1652 1.385 1_655 S
C1653 C1654 1.389 . S
C1654 C1653 1.389 . S
C1654 C1655 1.387 . S
C1655 H1640 0.930 . S
C1655 C1650 1.390 1_655 S
C1655 C1654 1.387 . S
H1656 C1668 0.930 . S
H1657 C1670 0.930 1_655 S
H1658 C1671 0.930 . S
H1659 C1675 0.959 . S
H1660 C1675 0.959 . S
H1661 C1675 0.961 . S
H1662 C1676 0.960 . S
H1663 C1676 0.961 . S
H1664 C1676 0.959 . S
H1665 C1679 0.929 . S
H1666 C1680 0.931 . S
H1667 C1682 0.930 . S
C1668 H1656 0.930 . S
C1668 C1669 1.399 . S
C1668 C1673 1.399 . S
C1669 C1668 1.399 . S
C1669 C1670 1.376 . S
C1670 H1657 0.930 1_455 S
C1670 C1669 1.376 . S
C1670 C1671 1.388 . S
C1671 H1658 0.930 . S
C1671 C1670 1.388 . S
C1671 C1672 1.390 . S
C1672 C1671 1.390 . S
C1672 C1673 1.394 . S
C1672 C1678 1.465 . S
C1673 C1668 1.399 . S
C1673 C1672 1.394 . S
C1673 C1674 1.516 . S
C1674 C1673 1.516 . S
C1674 C1675 1.502 . S
C1674 C1676 1.561 . S
C1674 C1677 1.526 . S
C1675 H1659 0.959 . S
C1675 H1660 0.959 . S
C1675 H1661 0.961 . S
C1675 C1674 1.502 . S
C1676 H1662 0.960 . S
C1676 H1663 0.961 . S
C1676 H1664 0.959 . S
C1676 C1674 1.561 . S
C1677 C1674 1.526 . S
C1677 C1678 1.396 . S
C1677 C1682 1.390 . S
C1678 C1672 1.465 . S
C1678 C1677 1.396 . S
C1678 C1679 1.399 . S
C1679 H1665 0.929 . S
C1679 C1678 1.399 . S
C1679 C1680 1.385 . S
C1680 H1666 0.931 . S
C1680 C1679 1.385 . S
C1680 C1681 1.389 . S
C1681 C1680 1.389 . S
C1681 C1682 1.387 . S
C1682 H1667 0.930 . S
C1682 C1677 1.390 . S
C1682 C1681 1.387 . S
H1683 C1695 0.930 . S
H1684 C1697 0.930 . S
H1685 C1698 0.930 . S
H1686 C1702 0.959 . S
H1687 C1702 0.959 . S
H1688 C1702 0.961 . S
H1689 C1703 0.960 . S
H1690 C1703 0.961 . S
H1691 C1703 0.959 . S
H1692 C1706 0.929 . S
H1693 C1707 0.931 . S
H1694 C1709 0.933 . S
C1695 H1683 0.930 . S
C1695 C1696 1.399 . S
C1695 C1700 1.399 . S
C1696 C1695 1.399 . S
C1696 C1697 1.376 . S
C1697 H1684 0.930 . S
C1697 C1696 1.376 . S
C1697 C1698 1.388 . S
C1698 H1685 0.930 . S
C1698 C1697 1.388 . S
C1698 C1699 1.390 . S
C1699 C1698 1.390 . S
C1699 C1700 1.394 . S
C1699 C1705 1.465 . S
C1700 C1695 1.399 . S
C1700 C1699 1.394 . S
C1700 C1701 1.516 . S
C1701 C1700 1.516 . S
C1701 C1702 1.502 . S
C1701 C1703 1.561 . S
C1701 C1704 1.526 . S
C1702 H1686 0.959 . S
C1702 H1687 0.959 . S
C1702 H1688 0.961 . S
C1702 C1701 1.502 . S
C1703 H1689 0.960 . S
C1703 H1690 0.961 . S
C1703 H1691 0.959 . S
C1703 C1701 1.561 . S
C1704 C1701 1.526 . S
C1704 C1705 1.396 . S
C1704 C1709 1.378 1_655 S
C1705 C1699 1.465 . S
C1705 C1704 1.396 . S
C1705 C1706 1.399 . S
C1706 H1692 0.929 . S
C1706 C1705 1.399 . S
C1706 C1707 1.385 1_655 S
C1707 H1693 0.931 . S
C1707 C1706 1.385 1_455 S
C1707 C1708 1.389 . S
C1708 C1707 1.389 . S
C1708 C1709 1.395 . S
C1709 H1694 0.933 . S
C1709 C1704 1.378 1_455 S
C1709 C1708 1.395 . S
H1710 C1722 0.930 . S
H1711 C1724 0.930 . S
H1712 C1725 0.930 . S
H1713 C1729 0.959 . S
H1714 C1729 0.959 . S
H1715 C1729 0.961 . S
H1716 C1730 0.960 . S
H1717 C1730 0.961 . S
H1718 C1730 0.959 . S
H1719 C1733 0.929 . S
H1720 C1734 0.931 1_565 S
H1721 C1736 0.930 . S
C1722 H1710 0.930 . S
C1722 C1723 1.399 . S
C1722 C1727 1.399 . S
C1723 C1722 1.399 . S
C1723 C1724 1.376 . S
C1724 H1711 0.930 . S
C1724 C1723 1.376 . S
C1724 C1725 1.388 . S
C1725 H1712 0.930 . S
C1725 C1724 1.388 . S
C1725 C1726 1.390 . S
C1726 C1725 1.390 . S
C1726 C1727 1.394 . S
C1726 C1732 1.465 . S
C1727 C1722 1.399 . S
C1727 C1726 1.394 . S
C1727 C1728 1.516 . S
C1728 C1727 1.516 . S
C1728 C1729 1.502 . S
C1728 C1730 1.561 . S
C1728 C1731 1.526 . S
C1729 H1713 0.959 . S
C1729 H1714 0.959 . S
C1729 H1715 0.961 . S
C1729 C1728 1.502 . S
C1730 H1716 0.960 . S
C1730 H1717 0.961 . S
C1730 H1718 0.959 . S
C1730 C1728 1.561 . S
C1731 C1728 1.526 . S
C1731 C1732 1.396 . S
C1731 C1736 1.390 . S
C1732 C1726 1.465 . S
C1732 C1731 1.396 . S
C1732 C1733 1.399 . S
C1733 H1719 0.929 . S
C1733 C1732 1.399 . S
C1733 C1734 1.385 . S
C1734 H1720 0.931 1_545 S
C1734 C1733 1.385 . S
C1734 C1735 1.389 . S
C1735 C1734 1.389 . S
C1735 C1736 1.387 . S
C1736 H1721 0.930 . S
C1736 C1731 1.390 . S
C1736 C1735 1.387 . S
H1737 C1749 0.930 . S
H1738 C1751 0.930 . S
H1739 C1752 0.930 . S
H1740 C1756 0.959 . S
H1741 C1756 0.959 . S
H1742 C1756 0.961 . S
H1743 C1757 0.960 . S
H1744 C1757 0.961 . S
H1745 C1757 0.959 . S
H1746 C1760 0.929 . S
H1747 C1761 0.931 . S
H1748 C1763 0.930 . S
C1749 H1737 0.930 . S
C1749 C1750 1.399 1_545 S
C1749 C1754 1.399 . S
C1750 C1749 1.399 1_565 S
C1750 C1751 1.376 . S
C1751 H1738 0.930 . S
C1751 C1750 1.376 . S
C1751 C1752 1.388 1_565 S
C1752 H1739 0.930 . S
C1752 C1751 1.388 1_545 S
C1752 C1753 1.390 . S
C1753 C1752 1.390 . S
C1753 C1754 1.394 . S
C1753 C1759 1.465 . S
C1754 C1749 1.399 . S
C1754 C1753 1.394 . S
C1754 C1755 1.516 . S
C1755 C1754 1.516 . S
C1755 C1756 1.502 . S
C1755 C1757 1.561 . S
C1755 C1758 1.526 . S
C1756 H1740 0.959 . S
C1756 H1741 0.959 . S
C1756 H1742 0.961 . S
C1756 C1755 1.502 . S
C1757 H1743 0.960 . S
C1757 H1744 0.961 . S
C1757 H1745 0.959 . S
C1757 C1755 1.561 . S
C1758 C1755 1.526 . S
C1758 C1759 1.396 . S
C1758 C1763 1.390 . S
C1759 C1753 1.465 . S
C1759 C1758 1.396 . S
C1759 C1760 1.399 . S
C1760 H1746 0.929 . S
C1760 C1759 1.399 . S
C1760 C1761 1.385 1_655 S
C1761 H1747 0.931 . S
C1761 C1760 1.385 1_455 S
C1761 C1762 1.389 1_455 S
C1762 C1761 1.389 1_655 S
C1762 C1763 1.387 . S
C1763 H1748 0.930 . S
C1763 C1758 1.390 . S
C1763 C1762 1.387 . S
H1764 C1776 0.930 . S
H1765 C1778 0.930 . S
H1766 C1779 0.930 . S
H1767 C1783 0.959 . S
H1768 C1783 0.959 . S
H1769 C1783 0.961 . S
H1770 C1784 0.960 . S
H1771 C1784 0.961 . S
H1772 C1784 0.959 . S
H1773 C1787 0.929 . S
H1774 C1788 0.931 . S
H1775 C1790 0.930 . S
C1776 H1764 0.930 . S
C1776 C1777 1.399 . S
C1776 C1781 1.399 . S
C1777 C1776 1.399 . S
C1777 C1778 1.376 . S
C1778 H1765 0.930 . S
C1778 C1777 1.376 . S
C1778 C1779 1.388 . S
C1779 H1766 0.930 . S
C1779 C1778 1.388 . S
C1779 C1780 1.390 . S
C1780 C1779 1.390 . S
C1780 C1781 1.394 . S
C1780 C1786 1.465 . S
C1781 C1776 1.399 . S
C1781 C1780 1.394 . S
C1781 C1782 1.516 . S
C1782 C1781 1.516 . S
C1782 C1783 1.502 . S
C1782 C1784 1.561 . S
C1782 C1785 1.526 . S
C1783 H1767 0.959 . S
C1783 H1768 0.959 . S
C1783 H1769 0.961 . S
C1783 C1782 1.502 . S
C1784 H1770 0.960 . S
C1784 H1771 0.961 . S
C1784 H1772 0.959 . S
C1784 C1782 1.561 . S
C1785 C1782 1.526 . S
C1785 C1786 1.396 . S
C1785 C1790 1.390 . S
C1786 C1780 1.465 . S
C1786 C1785 1.396 . S
C1786 C1787 1.399 . S
C1787 H1773 0.929 . S
C1787 C1786 1.399 . S
C1787 C1788 1.385 . S
C1788 H1774 0.931 . S
C1788 C1787 1.385 . S
C1788 C1789 1.389 . S
C1789 C1788 1.389 . S
C1789 C1790 1.387 . S
C1790 H1775 0.930 . S
C1790 C1785 1.390 . S
C1790 C1789 1.387 . S
H1791 C1803 0.930 . S
H1792 C1805 0.930 . S
H1793 C1806 0.930 . S
H1794 C1810 0.959 . S
H1795 C1810 0.959 . S
H1796 C1810 0.961 . S
H1797 C1811 0.960 . S
H1798 C1811 0.961 . S
H1799 C1811 0.959 . S
H1800 C1814 0.929 . S
H1801 C1815 0.931 . S
H1802 C1817 0.930 . S
C1803 H1791 0.930 . S
C1803 C1804 1.399 . S
C1803 C1808 1.399 . S
C1804 C1803 1.399 . S
C1804 C1805 1.376 . S
C1805 H1792 0.930 . S
C1805 C1804 1.376 . S
C1805 C1806 1.388 . S
C1806 H1793 0.930 . S
C1806 C1805 1.388 . S
C1806 C1807 1.390 . S
C1807 C1806 1.390 . S
C1807 C1808 1.394 . S
C1807 C1813 1.465 . S
C1808 C1803 1.399 . S
C1808 C1807 1.394 . S
C1808 C1809 1.516 . S
C1809 C1808 1.516 . S
C1809 C1810 1.502 . S
C1809 C1811 1.561 . S
C1809 C1812 1.526 . S
C1810 H1794 0.959 . S
C1810 H1795 0.959 . S
C1810 H1796 0.961 . S
C1810 C1809 1.502 . S
C1811 H1797 0.960 . S
C1811 H1798 0.961 . S
C1811 H1799 0.959 . S
C1811 C1809 1.561 . S
C1812 C1809 1.526 . S
C1812 C1813 1.396 . S
C1812 C1817 1.390 . S
C1813 C1807 1.465 . S
C1813 C1812 1.396 . S
C1813 C1814 1.399 . S
C1814 H1800 0.929 . S
C1814 C1813 1.399 . S
C1814 C1815 1.385 . S
C1815 H1801 0.931 . S
C1815 C1814 1.385 . S
C1815 C1816 1.389 . S
C1816 C1815 1.389 . S
C1816 C1817 1.387 . S
C1817 H1802 0.930 . S
C1817 C1812 1.390 . S
C1817 C1816 1.387 . S
H1818 C1830 0.930 . S
H1819 C1832 0.930 . S
H1820 C1833 0.930 . S
H1821 C1837 0.959 . S
H1822 C1837 0.959 . S
H1823 C1837 0.961 . S
H1824 C1838 0.960 . S
H1825 C1838 0.961 . S
H1826 C1838 0.959 . S
H1827 C1841 0.929 . S
H1828 C1842 0.931 . S
H1829 C1844 0.930 . S
C1830 H1818 0.930 . S
C1830 C1831 1.399 . S
C1830 C1835 1.399 . S
C1831 C1830 1.399 . S
C1831 C1832 1.376 . S
C1832 H1819 0.930 . S
C1832 C1831 1.376 . S
C1832 C1833 1.388 . S
C1833 H1820 0.930 . S
C1833 C1832 1.388 . S
C1833 C1834 1.390 . S
C1834 C1833 1.390 . S
C1834 C1835 1.394 . S
C1834 C1840 1.465 . S
C1835 C1830 1.399 . S
C1835 C1834 1.394 . S
C1835 C1836 1.516 . S
C1836 C1835 1.516 . S
C1836 C1837 1.502 . S
C1836 C1838 1.561 . S
C1836 C1839 1.526 . S
C1837 H1821 0.959 . S
C1837 H1822 0.959 . S
C1837 H1823 0.961 . S
C1837 C1836 1.502 . S
C1838 H1824 0.960 . S
C1838 H1825 0.961 . S
C1838 H1826 0.959 . S
C1838 C1836 1.561 . S
C1839 C1836 1.526 . S
C1839 C1840 1.396 . S
C1839 C1844 1.390 . S
C1840 C1834 1.465 . S
C1840 C1839 1.396 . S
C1840 C1841 1.399 . S
C1841 H1827 0.929 . S
C1841 C1840 1.399 . S
C1841 C1842 1.385 . S
C1842 H1828 0.931 . S
C1842 C1841 1.385 . S
C1842 C1843 1.389 . S
C1843 C1842 1.389 . S
C1843 C1844 1.387 . S
C1844 H1829 0.930 . S
C1844 C1839 1.390 . S
C1844 C1843 1.387 . S
H1845 C1857 0.930 . S
H1846 C1859 0.930 . S
H1847 C1860 0.930 . S
H1848 C1864 0.959 . S
H1849 C1864 0.959 . S
H1850 C1864 0.961 . S
H1851 C1865 0.960 . S
H1852 C1865 0.961 . S
H1853 C1865 0.959 . S
H1854 C1868 0.929 . S
H1855 C1869 0.931 . S
H1856 C1871 0.930 . S
C1857 H1845 0.930 . S
C1857 C1858 1.399 . S
C1857 C1862 1.399 . S
C1858 C1857 1.399 . S
C1858 C1859 1.376 . S
C1859 H1846 0.930 . S
C1859 C1858 1.376 . S
C1859 C1860 1.388 . S
C1860 H1847 0.930 . S
C1860 C1859 1.388 . S
C1860 C1861 1.390 . S
C1861 C1860 1.390 . S
C1861 C1862 1.394 . S
C1861 C1867 1.465 . S
C1862 C1857 1.399 . S
C1862 C1861 1.394 . S
C1862 C1863 1.516 . S
C1863 C1862 1.516 . S
C1863 C1864 1.502 . S
C1863 C1865 1.561 . S
C1863 C1866 1.526 . S
C1864 H1848 0.959 . S
C1864 H1849 0.959 . S
C1864 H1850 0.961 . S
C1864 C1863 1.502 . S
C1865 H1851 0.960 . S
C1865 H1852 0.961 . S
C1865 H1853 0.959 . S
C1865 C1863 1.561 . S
C1866 C1863 1.526 . S
C1866 C1867 1.396 . S
C1866 C1871 1.390 . S
C1867 C1861 1.465 . S
C1867 C1866 1.396 . S
C1867 C1868 1.399 . S
C1868 H1854 0.929 . S
C1868 C1867 1.399 . S
C1868 C1869 1.385 . S
C1869 H1855 0.931 . S
C1869 C1868 1.385 . S
C1869 C1870 1.389 . S
C1870 C1869 1.389 . S
C1870 C1871 1.387 . S
C1871 H1856 0.930 . S
C1871 C1866 1.390 . S
C1871 C1870 1.387 . S
H1872 C1884 0.930 . S
H1873 C1886 0.930 . S
H1874 C1887 0.930 . S
H1875 C1891 0.959 . S
H1876 C1891 0.959 . S
H1877 C1891 0.961 . S
H1878 C1892 0.960 . S
H1879 C1892 0.961 . S
H1880 C1892 0.959 . S
H1881 C1895 0.929 . S
H1882 C1896 0.931 . S
H1883 C1898 0.930 . S
C1884 H1872 0.930 . S
C1884 C1885 1.399 . S
C1884 C1889 1.399 . S
C1885 C1884 1.399 . S
C1885 C1886 1.376 . S
C1886 H1873 0.930 . S
C1886 C1885 1.376 . S
C1886 C1887 1.388 . S
C1887 H1874 0.930 . S
C1887 C1886 1.388 . S
C1887 C1888 1.390 . S
C1888 C1887 1.390 . S
C1888 C1889 1.394 . S
C1888 C1894 1.465 . S
C1889 C1884 1.399 . S
C1889 C1888 1.394 . S
C1889 C1890 1.516 . S
C1890 C1889 1.516 . S
C1890 C1891 1.502 . S
C1890 C1892 1.561 . S
C1890 C1893 1.526 . S
C1891 H1875 0.959 . S
C1891 H1876 0.959 . S
C1891 H1877 0.961 . S
C1891 C1890 1.502 . S
C1892 H1878 0.960 . S
C1892 H1879 0.961 . S
C1892 H1880 0.959 . S
C1892 C1890 1.561 . S
C1893 C1890 1.526 . S
C1893 C1894 1.396 . S
C1893 C1898 1.390 . S
C1894 C1888 1.465 . S
C1894 C1893 1.396 . S
C1894 C1895 1.399 . S
C1895 H1881 0.929 . S
C1895 C1894 1.399 . S
C1895 C1896 1.385 . S
C1896 H1882 0.931 . S
C1896 C1895 1.385 . S
C1896 C1897 1.389 . S
C1897 C1896 1.389 . S
C1897 C1898 1.387 . S
C1898 H1883 0.930 . S
C1898 C1893 1.390 . S
C1898 C1897 1.387 . S
H1899 C1911 0.930 . S
H1900 C1913 0.930 . S
H1901 C1914 0.930 . S
H1902 C1918 0.959 . S
H1903 C1918 0.959 . S
H1904 C1918 0.961 . S
H1905 C1919 0.960 . S
H1906 C1919 0.961 . S
H1907 C1919 0.959 . S
H1908 C1922 0.929 . S
H1909 C1923 0.931 . S
H1910 C1925 0.930 . S
C1911 H1899 0.930 . S
C1911 C1912 1.399 . S
C1911 C1916 1.399 . S
C1912 C1911 1.399 . S
C1912 C1913 1.376 . S
C1913 H1900 0.930 . S
C1913 C1912 1.376 . S
C1913 C1914 1.388 . S
C1914 H1901 0.930 . S
C1914 C1913 1.388 . S
C1914 C1915 1.390 . S
C1915 C1914 1.390 . S
C1915 C1916 1.394 . S
C1915 C1921 1.465 . S
C1916 C1911 1.399 . S
C1916 C1915 1.394 . S
C1916 C1917 1.516 . S
C1917 C1916 1.516 . S
C1917 C1918 1.502 . S
C1917 C1919 1.561 . S
C1917 C1920 1.526 . S
C1918 H1902 0.959 . S
C1918 H1903 0.959 . S
C1918 H1904 0.961 . S
C1918 C1917 1.502 . S
C1919 H1905 0.960 . S
C1919 H1906 0.961 . S
C1919 H1907 0.959 . S
C1919 C1917 1.561 . S
C1920 C1917 1.526 . S
C1920 C1921 1.396 . S
C1920 C1925 1.390 . S
C1921 C1915 1.465 . S
C1921 C1920 1.396 . S
C1921 C1922 1.399 . S
C1922 H1908 0.929 . S
C1922 C1921 1.399 . S
C1922 C1923 1.385 . S
C1923 H1909 0.931 . S
C1923 C1922 1.385 . S
C1923 C1924 1.389 . S
C1924 C1923 1.389 . S
C1924 C1925 1.387 . S
C1925 H1910 0.930 . S
C1925 C1920 1.390 . S
C1925 C1924 1.387 . S
H1926 C1938 0.930 . S
H1927 C1940 0.930 . S
H1928 C1941 0.930 . S
H1929 C1945 0.959 . S
H1930 C1945 0.959 . S
H1931 C1945 0.961 . S
H1932 C1946 0.960 . S
H1933 C1946 0.961 . S
H1934 C1946 0.959 . S
H1935 C1949 0.929 . S
H1936 C1950 0.931 . S
H1937 C1952 0.930 . S
C1938 H1926 0.930 . S
C1938 C1939 1.399 . S
C1938 C1943 1.399 . S
C1939 C1938 1.399 . S
C1939 C1940 1.376 . S
C1940 H1927 0.930 . S
C1940 C1939 1.376 . S
C1940 C1941 1.388 . S
C1941 H1928 0.930 . S
C1941 C1940 1.388 . S
C1941 C1942 1.390 . S
C1942 C1941 1.390 . S
C1942 C1943 1.394 . S
C1942 C1948 1.465 . S
C1943 C1938 1.399 . S
C1943 C1942 1.394 . S
C1943 C1944 1.516 . S
C1944 C1943 1.516 . S
C1944 C1945 1.502 . S
C1944 C1946 1.561 . S
C1944 C1947 1.526 . S
C1945 H1929 0.959 . S
C1945 H1930 0.959 . S
C1945 H1931 0.961 . S
C1945 C1944 1.502 . S
C1946 H1932 0.960 . S
C1946 H1933 0.961 . S
C1946 H1934 0.959 . S
C1946 C1944 1.561 . S
C1947 C1944 1.526 . S
C1947 C1948 1.396 . S
C1947 C1952 1.390 . S
C1948 C1942 1.465 . S
C1948 C1947 1.396 . S
C1948 C1949 1.399 . S
C1949 H1935 0.929 . S
C1949 C1948 1.399 . S
C1949 C1950 1.385 . S
C1950 H1936 0.931 . S
C1950 C1949 1.385 . S
C1950 C1951 1.389 . S
C1951 C1950 1.389 . S
C1951 C1952 1.387 . S
C1952 H1937 0.930 . S
C1952 C1947 1.390 . S
C1952 C1951 1.387 . S
H1953 C1965 0.930 . S
H1954 C1967 0.930 . S
H1955 C1968 0.930 . S
H1956 C1972 0.959 . S
H1957 C1972 0.959 . S
H1958 C1972 0.961 . S
H1959 C1973 0.960 . S
H1960 C1973 0.961 . S
H1961 C1973 0.959 . S
H1962 C1976 0.929 . S
H1963 C1977 0.931 . S
H1964 C1979 0.930 . S
C1965 H1953 0.930 . S
C1965 C1966 1.399 . S
C1965 C1970 1.399 . S
C1966 C1965 1.399 . S
C1966 C1967 1.376 . S
C1967 H1954 0.930 . S
C1967 C1966 1.376 . S
C1967 C1968 1.388 . S
C1968 H1955 0.930 . S
C1968 C1967 1.388 . S
C1968 C1969 1.390 . S
C1969 C1968 1.390 . S
C1969 C1970 1.394 . S
C1969 C1975 1.465 . S
C1970 C1965 1.399 . S
C1970 C1969 1.394 . S
C1970 C1971 1.516 . S
C1971 C1970 1.516 . S
C1971 C1972 1.502 . S
C1971 C1973 1.561 . S
C1971 C1974 1.526 . S
C1972 H1956 0.959 . S
C1972 H1957 0.959 . S
C1972 H1958 0.961 . S
C1972 C1971 1.502 . S
C1973 H1959 0.960 . S
C1973 H1960 0.961 . S
C1973 H1961 0.959 . S
C1973 C1971 1.561 . S
C1974 C1971 1.526 . S
C1974 C1975 1.396 . S
C1974 C1979 1.390 . S
C1975 C1969 1.465 . S
C1975 C1974 1.396 . S
C1975 C1976 1.399 . S
C1976 H1962 0.929 . S
C1976 C1975 1.399 . S
C1976 C1977 1.385 . S
C1977 H1963 0.931 . S
C1977 C1976 1.385 . S
C1977 C1978 1.389 . S
C1978 C1977 1.389 . S
C1978 C1979 1.387 . S
C1979 H1964 0.930 . S
C1979 C1974 1.390 . S
C1979 C1978 1.387 . S
H1980 C1992 0.930 . S
H1981 C1994 0.930 . S
H1982 C1995 0.930 . S
H1983 C1999 0.959 . S
H1984 C1999 0.959 . S
H1985 C1999 0.961 . S
H1986 C2000 0.960 . S
H1987 C2000 0.961 . S
H1988 C2000 0.959 . S
H1989 C2003 0.929 . S
H1990 C2004 0.931 . S
H1991 C2006 0.930 . S
C1992 H1980 0.930 . S
C1992 C1993 1.399 . S
C1992 C1997 1.399 . S
C1993 C1992 1.399 . S
C1993 C1994 1.376 . S
C1994 H1981 0.930 . S
C1994 C1993 1.376 . S
C1994 C1995 1.388 . S
C1995 H1982 0.930 . S
C1995 C1994 1.388 . S
C1995 C1996 1.390 . S
C1996 C1995 1.390 . S
C1996 C1997 1.394 . S
C1996 C2002 1.465 . S
C1997 C1992 1.399 . S
C1997 C1996 1.394 . S
C1997 C1998 1.516 . S
C1998 C1997 1.516 . S
C1998 C1999 1.502 . S
C1998 C2000 1.561 . S
C1998 C2001 1.526 . S
C1999 H1983 0.959 . S
C1999 H1984 0.959 . S
C1999 H1985 0.961 . S
C1999 C1998 1.502 . S
C2000 H1986 0.960 . S
C2000 H1987 0.961 . S
C2000 H1988 0.959 . S
C2000 C1998 1.561 . S
C2001 C1998 1.526 . S
C2001 C2002 1.396 . S
C2001 C2006 1.390 . S
C2002 C1996 1.465 . S
C2002 C2001 1.396 . S
C2002 C2003 1.399 . S
C2003 H1989 0.929 . S
C2003 C2002 1.399 . S
C2003 C2004 1.385 . S
C2004 H1990 0.931 . S
C2004 C2003 1.385 . S
C2004 C2005 1.389 . S
C2005 C2004 1.389 . S
C2005 C2006 1.387 . S
C2006 H1991 0.930 . S
C2006 C2001 1.390 . S
C2006 C2005 1.387 . S
H2007 C2019 0.930 . S
H2008 C2021 0.930 . S
H2009 C2022 0.930 . S
H2010 C2026 0.959 . S
H2011 C2026 0.959 . S
H2012 C2026 0.961 . S
H2013 C2027 0.960 . S
H2014 C2027 0.961 . S
H2015 C2027 0.959 . S
H2016 C2030 0.929 . S
H2017 C2031 0.931 . S
H2018 C2033 0.930 . S
C2019 H2007 0.930 . S
C2019 C2020 1.399 . S
C2019 C2024 1.399 . S
C2020 C2019 1.399 . S
C2020 C2021 1.376 1_554 S
C2021 H2008 0.930 . S
C2021 C2020 1.376 1_556 S
C2021 C2022 1.388 . S
C2022 H2009 0.930 . S
C2022 C2021 1.388 . S
C2022 C2023 1.390 . S
C2023 C2022 1.390 . S
C2023 C2024 1.394 1_556 S
C2023 C2029 1.465 . S
C2024 C2019 1.399 . S
C2024 C2023 1.394 1_554 S
C2024 C2025 1.516 . S
C2025 C2024 1.516 . S
C2025 C2026 1.502 . S
C2025 C2027 1.561 . S
C2025 C2028 1.526 . S
C2026 H2010 0.959 . S
C2026 H2011 0.959 . S
C2026 H2012 0.961 . S
C2026 C2025 1.502 . S
C2027 H2013 0.960 . S
C2027 H2014 0.961 . S
C2027 H2015 0.959 . S
C2027 C2025 1.561 . S
C2028 C2025 1.526 . S
C2028 C2029 1.396 1_554 S
C2028 C2033 1.390 . S
C2029 C2023 1.465 . S
C2029 C2028 1.396 1_556 S
C2029 C2030 1.399 . S
C2030 H2016 0.929 . S
C2030 C2029 1.399 . S
C2030 C2031 1.385 . S
C2031 H2017 0.931 . S
C2031 C2030 1.385 . S
C2031 C2032 1.389 . S
C2032 C2031 1.389 . S
C2032 C2033 1.387 1_556 S
C2033 H2018 0.930 . S
C2033 C2028 1.390 . S
C2033 C2032 1.387 1_554 S
H2034 C2046 0.930 . S
H2035 C2048 0.930 . S
H2036 C2049 0.930 . S
H2037 C2053 0.959 . S
H2038 C2053 0.959 . S
H2039 C2053 0.961 . S
H2040 C2054 0.960 . S
H2041 C2054 0.961 . S
H2042 C2054 0.959 . S
H2043 C2057 0.929 . S
H2044 C2058 0.931 . S
H2045 C2060 0.930 . S
C2046 H2034 0.930 . S
C2046 C2047 1.432 . S
C2046 C2051 1.399 . S
C2047 C2046 1.432 . S
C2047 C2048 1.342 1_554 S
C2048 H2035 0.930 . S
C2048 C2047 1.342 1_556 S
C2048 C2049 1.388 . S
C2049 H2036 0.930 . S
C2049 C2048 1.388 . S
C2049 C2050 1.447 . S
C2050 C2049 1.447 . S
C2050 C2051 1.333 1_556 S
C2050 C2056 1.464 . S
C2051 C2046 1.399 . S
C2051 C2050 1.333 1_554 S
C2051 C2052 1.516 . S
C2052 C2051 1.516 . S
C2052 C2053 1.502 . S
C2052 C2054 1.561 . S
C2052 C2055 1.526 . S
C2053 H2037 0.959 . S
C2053 H2038 0.959 . S
C2053 H2039 0.961 . S
C2053 C2052 1.502 . S
C2054 H2040 0.960 . S
C2054 H2041 0.961 . S
C2054 H2042 0.959 . S
C2054 C2052 1.561 . S
C2055 C2052 1.526 . S
C2055 C2056 1.379 1_554 S
C2055 C2060 1.390 . S
C2056 C2050 1.464 . S
C2056 C2055 1.379 1_556 S
C2056 C2057 1.412 . S
C2057 H2043 0.929 . S
C2057 C2056 1.412 . S
C2057 C2058 1.385 . S
C2058 H2044 0.931 . S
C2058 C2057 1.385 . S
C2058 C2059 1.389 1_556 S
C2059 C2058 1.389 1_554 S
C2059 C2060 1.387 . S
C2060 H2045 0.930 . S
C2060 C2055 1.390 . S
C2060 C2059 1.387 . S
H2061 C2073 0.930 . S
H2062 C2075 0.930 . S
H2063 C2076 0.930 . S
H2064 C2080 0.959 . S
H2065 C2080 0.959 . S
H2066 C2080 0.961 . S
H2067 C2081 0.960 . S
H2068 C2081 0.961 . S
H2069 C2081 0.959 . S
H2070 C2084 0.929 . S
H2071 C2085 0.931 . S
H2072 C2087 0.930 . S
C2073 H2061 0.930 . S
C2073 C2074 1.399 . S
C2073 C2078 1.399 . S
C2074 C2073 1.399 . S
C2074 C2075 1.376 1_554 S
C2075 H2062 0.930 . S
C2075 C2074 1.376 1_556 S
C2075 C2076 1.388 . S
C2076 H2063 0.930 . S
C2076 C2075 1.388 . S
C2076 C2077 1.390 . S
C2077 C2076 1.390 . S
C2077 C2078 1.394 1_556 S
C2077 C2083 1.465 . S
C2078 C2073 1.399 . S
C2078 C2077 1.394 1_554 S
C2078 C2079 1.516 . S
C2079 C2078 1.516 . S
C2079 C2080 1.502 . S
C2079 C2081 1.561 . S
C2079 C2082 1.526 . S
C2080 H2064 0.959 . S
C2080 H2065 0.959 . S
C2080 H2066 0.961 . S
C2080 C2079 1.502 . S
C2081 H2067 0.960 . S
C2081 H2068 0.961 . S
C2081 H2069 0.959 . S
C2081 C2079 1.561 . S
C2082 C2079 1.526 . S
C2082 C2083 1.396 1_554 S
C2082 C2087 1.390 . S
C2083 C2077 1.465 . S
C2083 C2082 1.396 1_556 S
C2083 C2084 1.399 . S
C2084 H2070 0.929 . S
C2084 C2083 1.399 . S
C2084 C2085 1.385 . S
C2085 H2071 0.931 . S
C2085 C2084 1.385 . S
C2085 C2086 1.386 . S
C2086 C2085 1.386 . S
C2086 C2087 1.390 1_556 S
C2087 H2072 0.930 . S
C2087 C2082 1.390 . S
C2087 C2086 1.390 1_554 S
H2088 C2100 0.930 . S
H2089 C2102 0.930 . S
H2090 C2103 0.930 . S
H2091 C2107 0.959 . S
H2092 C2107 0.959 . S
H2093 C2107 0.961 . S
H2094 C2108 0.960 . S
H2095 C2108 0.961 . S
H2096 C2108 0.959 . S
H2097 C2111 0.929 . S
H2098 C2112 0.931 . S
H2099 C2114 0.930 . S
C2100 H2088 0.930 . S
C2100 C2101 1.399 . S
C2100 C2105 1.399 . S
C2101 C2100 1.399 . S
C2101 C2102 1.376 . S
C2102 H2089 0.930 . S
C2102 C2101 1.376 . S
C2102 C2103 1.388 . S
C2103 H2090 0.930 . S
C2103 C2102 1.388 . S
C2103 C2104 1.390 . S
C2104 C2103 1.390 . S
C2104 C2105 1.394 . S
C2104 C2110 1.465 . S
C2105 C2100 1.399 . S
C2105 C2104 1.394 . S
C2105 C2106 1.516 . S
C2106 C2105 1.516 . S
C2106 C2107 1.502 . S
C2106 C2108 1.561 . S
C2106 C2109 1.526 . S
C2107 H2091 0.959 . S
C2107 H2092 0.959 . S
C2107 H2093 0.961 . S
C2107 C2106 1.502 . S
C2108 H2094 0.960 . S
C2108 H2095 0.961 . S
C2108 H2096 0.959 . S
C2108 C2106 1.561 . S
C2109 C2106 1.526 . S
C2109 C2110 1.396 . S
C2109 C2114 1.390 . S
C2110 C2104 1.465 . S
C2110 C2109 1.396 . S
C2110 C2111 1.399 . S
C2111 H2097 0.929 . S
C2111 C2110 1.399 . S
C2111 C2112 1.385 . S
C2112 H2098 0.931 . S
C2112 C2111 1.385 . S
C2112 C2113 1.389 . S
C2113 C2112 1.389 . S
C2113 C2114 1.387 . S
C2114 H2099 0.930 . S
C2114 C2109 1.390 . S
C2114 C2113 1.387 . S
H2115 C2127 0.930 . S
H2116 C2129 0.930 . S
H2117 C2130 0.930 . S
H2118 C2134 0.959 . S
H2119 C2134 0.959 . S
H2120 C2134 0.961 . S
H2121 C2135 0.960 . S
H2122 C2135 0.961 . S
H2123 C2135 0.959 . S
H2124 C2138 0.929 . S
H2125 C2139 0.931 . S
H2126 C2141 0.930 . S
C2127 H2115 0.930 . S
C2127 C2128 1.399 . S
C2127 C2132 1.399 . S
C2128 C2127 1.399 . S
C2128 C2129 1.376 . S
C2129 H2116 0.930 . S
C2129 C2128 1.376 . S
C2129 C2130 1.388 . S
C2130 H2117 0.930 . S
C2130 C2129 1.388 . S
C2130 C2131 1.390 . S
C2131 C2130 1.390 . S
C2131 C2132 1.394 . S
C2131 C2137 1.465 . S
C2132 C2127 1.399 . S
C2132 C2131 1.394 . S
C2132 C2133 1.516 . S
C2133 C2132 1.516 . S
C2133 C2134 1.502 . S
C2133 C2135 1.561 . S
C2133 C2136 1.526 . S
C2134 H2118 0.959 . S
C2134 H2119 0.959 . S
C2134 H2120 0.961 . S
C2134 C2133 1.502 . S
C2135 H2121 0.960 . S
C2135 H2122 0.961 . S
C2135 H2123 0.959 . S
C2135 C2133 1.561 . S
C2136 C2133 1.526 . S
C2136 C2137 1.396 . S
C2136 C2141 1.390 . S
C2137 C2131 1.465 . S
C2137 C2136 1.396 . S
C2137 C2138 1.399 . S
C2138 H2124 0.929 . S
C2138 C2137 1.399 . S
C2138 C2139 1.385 . S
C2139 H2125 0.931 . S
C2139 C2138 1.385 . S
C2139 C2140 1.389 . S
C2140 C2139 1.389 . S
C2140 C2141 1.387 . S
C2141 H2126 0.930 . S
C2141 C2136 1.390 . S
C2141 C2140 1.387 . S
H2142 C2154 0.930 . S
H2143 C2156 0.930 . S
H2144 C2157 0.930 . S
H2145 C2161 0.959 . S
H2146 C2161 0.959 . S
H2147 C2161 0.961 . S
H2148 C2162 0.960 . S
H2149 C2162 0.961 . S
H2150 C2162 0.959 . S
H2151 C2165 0.929 . S
H2152 C2166 0.931 . S
H2153 C2168 0.930 . S
C2154 H2142 0.930 . S
C2154 C2155 1.399 . S
C2154 C2159 1.399 . S
C2155 C2154 1.399 . S
C2155 C2156 1.376 . S
C2156 H2143 0.930 . S
C2156 C2155 1.376 . S
C2156 C2157 1.388 . S
C2157 H2144 0.930 . S
C2157 C2156 1.388 . S
C2157 C2158 1.390 . S
C2158 C2157 1.390 . S
C2158 C2159 1.394 . S
C2158 C2164 1.465 . S
C2159 C2154 1.399 . S
C2159 C2158 1.394 . S
C2159 C2160 1.516 . S
C2160 C2159 1.516 . S
C2160 C2161 1.502 . S
C2160 C2162 1.561 . S
C2160 C2163 1.526 . S
C2161 H2145 0.959 . S
C2161 H2146 0.959 . S
C2161 H2147 0.961 . S
C2161 C2160 1.502 . S
C2162 H2148 0.960 . S
C2162 H2149 0.961 . S
C2162 H2150 0.959 . S
C2162 C2160 1.561 . S
C2163 C2160 1.526 . S
C2163 C2164 1.396 . S
C2163 C2168 1.390 . S
C2164 C2158 1.465 . S
C2164 C2163 1.396 . S
C2164 C2165 1.399 . S
C2165 H2151 0.929 . S
C2165 C2164 1.399 . S
C2165 C2166 1.385 . S
C2166 H2152 0.931 . S
C2166 C2165 1.385 . S
C2166 C2167 1.389 . S
C2167 C2166 1.389 . S
C2167 C2168 1.387 . S
C2168 H2153 0.930 . S
C2168 C2163 1.390 . S
C2168 C2167 1.387 . S
H2169 C2181 0.930 . S
H2170 C2183 0.930 . S
H2171 C2184 0.930 . S
H2172 C2188 0.959 . S
H2173 C2188 0.959 . S
H2174 C2188 0.961 . S
H2175 C2189 0.960 . S
H2176 C2189 0.961 . S
H2177 C2189 0.959 . S
H2178 C2192 0.929 . S
H2179 C2193 0.931 . S
H2180 C2195 0.930 . S
C2181 H2169 0.930 . S
C2181 C2182 1.398 1_556 S
C2181 C2186 1.399 . S
C2182 C2181 1.398 1_554 S
C2182 C2183 1.377 . S
C2183 H2170 0.930 . S
C2183 C2182 1.377 . S
C2183 C2184 1.388 . S
C2184 H2171 0.930 . S
C2184 C2183 1.388 . S
C2184 C2185 1.390 . S
C2185 C2184 1.390 . S
C2185 C2186 1.394 1_554 S
C2185 C2191 1.465 . S
C2186 C2181 1.399 . S
C2186 C2185 1.394 1_556 S
C2186 C2187 1.516 . S
C2187 C2186 1.516 . S
C2187 C2188 1.502 . S
C2187 C2189 1.561 . S
C2187 C2190 1.526 . S
C2188 H2172 0.959 . S
C2188 H2173 0.959 . S
C2188 H2174 0.961 . S
C2188 C2187 1.502 . S
C2189 H2175 0.960 . S
C2189 H2176 0.961 . S
C2189 H2177 0.959 . S
C2189 C2187 1.561 . S
C2190 C2187 1.526 . S
C2190 C2191 1.396 1_556 S
C2190 C2195 1.390 . S
C2191 C2185 1.465 . S
C2191 C2190 1.396 1_554 S
C2191 C2192 1.399 . S
C2192 H2178 0.929 . S
C2192 C2191 1.399 . S
C2192 C2193 1.385 . S
C2193 H2179 0.931 . S
C2193 C2192 1.385 . S
C2193 C2194 1.389 1_554 S
C2194 C2193 1.389 1_556 S
C2194 C2195 1.387 . S
C2195 H2180 0.930 . S
C2195 C2190 1.390 . S
C2195 C2194 1.387 . S
H2196 C2208 0.930 . S
H2197 C2210 0.930 . S
H2198 C2211 0.930 . S
H2199 C2215 0.959 . S
H2200 C2215 0.959 . S
H2201 C2215 0.961 . S
H2202 C2216 0.960 . S
H2203 C2216 0.961 . S
H2204 C2216 0.959 . S
H2205 C2219 0.929 . S
H2206 C2220 0.931 . S
H2207 C2222 0.930 . S
C2208 H2196 0.930 . S
C2208 C2209 1.406 1_556 S
C2208 C2213 1.399 . S
C2209 C2208 1.406 1_554 S
C2209 C2210 1.368 . S
C2210 H2197 0.930 . S
C2210 C2209 1.368 . S
C2210 C2211 1.388 . S
C2211 H2198 0.930 . S
C2211 C2210 1.388 . S
C2211 C2212 1.390 . S
C2212 C2211 1.390 . S
C2212 C2213 1.394 1_554 S
C2212 C2218 1.465 . S
C2213 C2208 1.399 . S
C2213 C2212 1.394 1_556 S
C2213 C2214 1.516 . S
C2214 C2213 1.516 . S
C2214 C2215 1.502 . S
C2214 C2216 1.561 . S
C2214 C2217 1.526 . S
C2215 H2199 0.959 . S
C2215 H2200 0.959 . S
C2215 H2201 0.961 . S
C2215 C2214 1.502 . S
C2216 H2202 0.960 . S
C2216 H2203 0.961 . S
C2216 H2204 0.959 . S
C2216 C2214 1.561 . S
C2217 C2214 1.526 . S
C2217 C2218 1.396 1_556 S
C2217 C2222 1.390 . S
C2218 C2212 1.465 . S
C2218 C2217 1.396 1_554 S
C2218 C2219 1.399 . S
C2219 H2205 0.929 . S
C2219 C2218 1.399 . S
C2219 C2220 1.385 . S
C2220 H2206 0.931 . S
C2220 C2219 1.385 . S
C2220 C2221 1.389 1_554 S
C2221 C2220 1.389 1_556 S
C2221 C2222 1.387 . S
C2222 H2207 0.930 . S
C2222 C2217 1.390 . S
C2222 C2221 1.387 . S
H2223 C2235 0.930 . S
H2224 C2237 0.930 . S
H2225 C2238 0.930 . S
H2226 C2242 0.959 . S
H2227 C2242 0.959 . S
H2228 C2242 0.961 . S
H2229 C2243 0.960 . S
H2230 C2243 0.961 . S
H2231 C2243 0.959 . S
H2232 C2246 0.929 . S
H2233 C2247 0.931 . S
H2234 C2249 0.930 . S
C2235 H2223 0.930 . S
C2235 C2236 1.417 . S
C2235 C2240 1.399 . S
C2236 C2235 1.417 . S
C2236 C2237 1.357 1_556 S
C2237 H2224 0.930 . S
C2237 C2236 1.357 1_554 S
C2237 C2238 1.388 . S
C2238 H2225 0.930 . S
C2238 C2237 1.388 . S
C2238 C2239 1.390 . S
C2239 C2238 1.390 . S
C2239 C2240 1.394 1_554 S
C2239 C2245 1.479 . S
C2240 C2235 1.399 . S
C2240 C2239 1.394 1_556 S
C2240 C2241 1.516 . S
C2241 C2240 1.516 . S
C2241 C2242 1.502 . S
C2241 C2243 1.561 . S
C2241 C2244 1.526 . S
C2242 H2226 0.959 . S
C2242 H2227 0.959 . S
C2242 H2228 0.961 . S
C2242 C2241 1.502 . S
C2243 H2229 0.960 . S
C2243 H2230 0.961 . S
C2243 H2231 0.959 . S
C2243 C2241 1.561 . S
C2244 C2241 1.526 . S
C2244 C2245 1.280 1_556 S
C2244 C2249 1.390 . S
C2245 C2239 1.479 . S
C2245 C2244 1.280 1_554 S
C2245 C2246 1.491 . S
C2246 H2232 0.929 . S
C2246 C2245 1.491 . S
C2246 C2247 1.385 . S
C2247 H2233 0.931 . S
C2247 C2246 1.385 . S
C2247 C2248 1.389 1_554 S
C2248 C2247 1.389 1_556 S
C2248 C2249 1.387 . S
C2249 H2234 0.930 . S
C2249 C2244 1.390 . S
C2249 C2248 1.387 . S
H2250 C2262 0.930 . S
H2251 C2264 0.930 . S
H2252 C2265 0.930 . S
H2253 C2269 0.959 . S
H2254 C2269 0.959 . S
H2255 C2269 0.961 . S
H2256 C2270 0.960 . S
H2257 C2270 0.961 . S
H2258 C2270 0.959 . S
H2259 C2273 0.929 . S
H2260 C2274 0.931 . S
H2261 C2276 0.930 . S
C2262 H2250 0.930 . S
C2262 C2263 1.399 . S
C2262 C2267 1.399 . S
C2263 C2262 1.399 . S
C2263 C2264 1.376 . S
C2264 H2251 0.930 . S
C2264 C2263 1.376 . S
C2264 C2265 1.388 . S
C2265 H2252 0.930 . S
C2265 C2264 1.388 . S
C2265 C2266 1.390 . S
C2266 C2265 1.390 . S
C2266 C2267 1.394 . S
C2266 C2272 1.465 . S
C2267 C2262 1.399 . S
C2267 C2266 1.394 . S
C2267 C2268 1.516 . S
C2268 C2267 1.516 . S
C2268 C2269 1.502 . S
C2268 C2270 1.561 . S
C2268 C2271 1.526 . S
C2269 H2253 0.959 . S
C2269 H2254 0.959 . S
C2269 H2255 0.961 . S
C2269 C2268 1.502 . S
C2270 H2256 0.960 . S
C2270 H2257 0.961 . S
C2270 H2258 0.959 . S
C2270 C2268 1.561 . S
C2271 C2268 1.526 . S
C2271 C2272 1.396 . S
C2271 C2276 1.390 . S
C2272 C2266 1.465 . S
C2272 C2271 1.396 . S
C2272 C2273 1.399 . S
C2273 H2259 0.929 . S
C2273 C2272 1.399 . S
C2273 C2274 1.385 . S
C2274 H2260 0.931 . S
C2274 C2273 1.385 . S
C2274 C2275 1.389 . S
C2275 C2274 1.389 . S
C2275 C2276 1.387 . S
C2276 H2261 0.930 . S
C2276 C2271 1.390 . S
C2276 C2275 1.387 . S
H2277 C2289 0.930 . S
H2278 C2291 0.930 . S
H2279 C2292 0.930 . S
H2280 C2296 0.959 . S
H2281 C2296 0.959 . S
H2282 C2296 0.961 . S
H2283 C2297 0.960 . S
H2284 C2297 0.961 . S
H2285 C2297 0.959 . S
H2286 C2300 0.929 . S
H2287 C2301 0.931 . S
H2288 C2303 0.930 . S
C2289 H2277 0.930 . S
C2289 C2290 1.399 . S
C2289 C2294 1.399 . S
C2290 C2289 1.399 . S
C2290 C2291 1.376 . S
C2291 H2278 0.930 . S
C2291 C2290 1.376 . S
C2291 C2292 1.388 . S
C2292 H2279 0.930 . S
C2292 C2291 1.388 . S
C2292 C2293 1.390 . S
C2293 C2292 1.390 . S
C2293 C2294 1.394 . S
C2293 C2299 1.465 . S
C2294 C2289 1.399 . S
C2294 C2293 1.394 . S
C2294 C2295 1.516 . S
C2295 C2294 1.516 . S
C2295 C2296 1.502 . S
C2295 C2297 1.561 . S
C2295 C2298 1.526 . S
C2296 H2280 0.959 . S
C2296 H2281 0.959 . S
C2296 H2282 0.961 . S
C2296 C2295 1.502 . S
C2297 H2283 0.960 . S
C2297 H2284 0.961 . S
C2297 H2285 0.959 . S
C2297 C2295 1.561 . S
C2298 C2295 1.526 . S
C2298 C2299 1.396 . S
C2298 C2303 1.390 . S
C2299 C2293 1.465 . S
C2299 C2298 1.396 . S
C2299 C2300 1.399 . S
C2300 H2286 0.929 . S
C2300 C2299 1.399 . S
C2300 C2301 1.385 . S
C2301 H2287 0.931 . S
C2301 C2300 1.385 . S
C2301 C2302 1.389 . S
C2302 C2301 1.389 . S
C2302 C2303 1.387 . S
C2303 H2288 0.930 . S
C2303 C2298 1.390 . S
C2303 C2302 1.387 . S
H2304 C2316 0.930 . S
H2305 C2318 0.930 . S
H2306 C2319 0.930 . S
H2307 C2323 0.959 . S
H2308 C2323 0.959 . S
H2309 C2323 0.961 . S
H2310 C2324 0.960 . S
H2311 C2324 0.961 . S
H2312 C2324 0.959 . S
H2313 C2327 0.929 . S
H2314 C2328 0.931 . S
H2315 C2330 0.930 . S
C2316 H2304 0.930 . S
C2316 C2317 1.399 . S
C2316 C2321 1.399 . S
C2317 C2316 1.399 . S
C2317 C2318 1.376 . S
C2318 H2305 0.930 . S
C2318 C2317 1.376 . S
C2318 C2319 1.388 . S
C2319 H2306 0.930 . S
C2319 C2318 1.388 . S
C2319 C2320 1.390 . S
C2320 C2319 1.390 . S
C2320 C2321 1.394 . S
C2320 C2326 1.465 . S
C2321 C2316 1.399 . S
C2321 C2320 1.394 . S
C2321 C2322 1.516 . S
C2322 C2321 1.516 . S
C2322 C2323 1.502 . S
C2322 C2324 1.561 . S
C2322 C2325 1.526 . S
C2323 H2307 0.959 . S
C2323 H2308 0.959 . S
C2323 H2309 0.961 . S
C2323 C2322 1.502 . S
C2324 H2310 0.960 . S
C2324 H2311 0.961 . S
C2324 H2312 0.959 . S
C2324 C2322 1.561 . S
C2325 C2322 1.526 . S
C2325 C2326 1.396 . S
C2325 C2330 1.390 . S
C2326 C2320 1.465 . S
C2326 C2325 1.396 . S
C2326 C2327 1.399 . S
C2327 H2313 0.929 . S
C2327 C2326 1.399 . S
C2327 C2328 1.385 . S
C2328 H2314 0.931 . S
C2328 C2327 1.385 . S
C2328 C2329 1.389 . S
C2329 C2328 1.389 . S
C2329 C2330 1.387 . S
C2330 H2315 0.930 . S
C2330 C2325 1.390 . S
C2330 C2329 1.387 . S
H2331 C2343 0.930 . S
H2332 C2345 0.930 . S
H2333 C2346 0.930 . S
H2334 C2350 0.959 . S
H2335 C2350 0.959 . S
H2336 C2350 0.961 . S
H2337 C2351 0.960 . S
H2338 C2351 0.961 . S
H2339 C2351 0.959 . S
H2340 C2354 0.929 . S
H2341 C2355 0.931 . S
H2342 C2357 0.930 . S
C2343 H2331 0.930 . S
C2343 C2344 1.399 . S
C2343 C2348 1.399 . S
C2344 C2343 1.399 . S
C2344 C2345 1.376 . S
C2345 H2332 0.930 . S
C2345 C2344 1.376 . S
C2345 C2346 1.388 . S
C2346 H2333 0.930 . S
C2346 C2345 1.388 . S
C2346 C2347 1.390 . S
C2347 C2346 1.390 . S
C2347 C2348 1.394 . S
C2347 C2353 1.465 . S
C2348 C2343 1.399 . S
C2348 C2347 1.394 . S
C2348 C2349 1.516 . S
C2349 C2348 1.516 . S
C2349 C2350 1.502 . S
C2349 C2351 1.561 . S
C2349 C2352 1.526 . S
C2350 H2334 0.959 . S
C2350 H2335 0.959 . S
C2350 H2336 0.961 . S
C2350 C2349 1.502 . S
C2351 H2337 0.960 . S
C2351 H2338 0.961 . S
C2351 H2339 0.959 . S
C2351 C2349 1.561 . S
C2352 C2349 1.526 . S
C2352 C2353 1.396 . S
C2352 C2357 1.390 . S
C2353 C2347 1.465 . S
C2353 C2352 1.396 . S
C2353 C2354 1.399 . S
C2354 H2340 0.929 . S
C2354 C2353 1.399 . S
C2354 C2355 1.385 . S
C2355 H2341 0.931 . S
C2355 C2354 1.385 . S
C2355 C2356 1.389 . S
C2356 C2355 1.389 . S
C2356 C2357 1.387 . S
C2357 H2342 0.930 . S
C2357 C2352 1.390 . S
C2357 C2356 1.387 . S
H2358 C2370 0.930 . S
H2359 C2372 0.930 . S
H2360 C2373 0.930 . S
H2361 C2377 0.959 . S
H2362 C2377 0.959 . S
H2363 C2377 0.961 . S
H2364 C2378 0.960 . S
H2365 C2378 0.961 . S
H2366 C2378 0.959 . S
H2367 C2381 0.929 . S
H2368 C2382 0.931 . S
H2369 C2384 0.930 . S
C2370 H2358 0.930 . S
C2370 C2371 1.399 . S
C2370 C2375 1.399 . S
C2371 C2370 1.399 . S
C2371 C2372 1.376 . S
C2372 H2359 0.930 . S
C2372 C2371 1.376 . S
C2372 C2373 1.388 . S
C2373 H2360 0.930 . S
C2373 C2372 1.388 . S
C2373 C2374 1.390 . S
C2374 C2373 1.390 . S
C2374 C2375 1.394 . S
C2374 C2380 1.465 . S
C2375 C2370 1.399 . S
C2375 C2374 1.394 . S
C2375 C2376 1.516 . S
C2376 C2375 1.516 . S
C2376 C2377 1.502 . S
C2376 C2378 1.561 . S
C2376 C2379 1.526 . S
C2377 H2361 0.959 . S
C2377 H2362 0.959 . S
C2377 H2363 0.961 . S
C2377 C2376 1.502 . S
C2378 H2364 0.960 . S
C2378 H2365 0.961 . S
C2378 H2366 0.959 . S
C2378 C2376 1.561 . S
C2379 C2376 1.526 . S
C2379 C2380 1.396 . S
C2379 C2384 1.390 . S
C2380 C2374 1.465 . S
C2380 C2379 1.396 . S
C2380 C2381 1.399 . S
C2381 H2367 0.929 . S
C2381 C2380 1.399 . S
C2381 C2382 1.385 . S
C2382 H2368 0.931 . S
C2382 C2381 1.385 . S
C2382 C2383 1.389 . S
C2383 C2382 1.389 . S
C2383 C2384 1.387 . S
C2384 H2369 0.930 . S
C2384 C2379 1.390 . S
C2384 C2383 1.387 . S
H2385 C2397 0.930 . S
H2386 C2399 0.930 . S
H2387 C2400 0.930 . S
H2388 C2404 0.959 . S
H2389 C2404 0.959 . S
H2390 C2404 0.961 . S
H2391 C2405 0.960 . S
H2392 C2405 0.961 . S
H2393 C2405 0.959 . S
H2394 C2408 0.929 . S
H2395 C2409 0.931 . S
H2396 C2411 0.930 . S
C2397 H2385 0.930 . S
C2397 C2398 1.399 . S
C2397 C2402 1.399 . S
C2398 C2397 1.399 . S
C2398 C2399 1.376 . S
C2399 H2386 0.930 . S
C2399 C2398 1.376 . S
C2399 C2400 1.388 . S
C2400 H2387 0.930 . S
C2400 C2399 1.388 . S
C2400 C2401 1.390 . S
C2401 C2400 1.390 . S
C2401 C2402 1.394 . S
C2401 C2407 1.465 . S
C2402 C2397 1.399 . S
C2402 C2401 1.394 . S
C2402 C2403 1.516 . S
C2403 C2402 1.516 . S
C2403 C2404 1.502 . S
C2403 C2405 1.561 . S
C2403 C2406 1.526 . S
C2404 H2388 0.959 . S
C2404 H2389 0.959 . S
C2404 H2390 0.961 . S
C2404 C2403 1.502 . S
C2405 H2391 0.960 . S
C2405 H2392 0.961 . S
C2405 H2393 0.959 . S
C2405 C2403 1.561 . S
C2406 C2403 1.526 . S
C2406 C2407 1.396 . S
C2406 C2411 1.390 . S
C2407 C2401 1.465 . S
C2407 C2406 1.396 . S
C2407 C2408 1.399 . S
C2408 H2394 0.929 . S
C2408 C2407 1.399 . S
C2408 C2409 1.385 . S
C2409 H2395 0.931 . S
C2409 C2408 1.385 . S
C2409 C2410 1.389 . S
C2410 C2409 1.389 . S
C2410 C2411 1.387 . S
C2411 H2396 0.930 . S
C2411 C2406 1.390 . S
C2411 C2410 1.387 . S
H2412 C2424 0.930 . S
H2413 C2426 0.930 . S
H2414 C2427 0.930 . S
H2415 C2431 0.959 . S
H2416 C2431 0.959 . S
H2417 C2431 0.961 . S
H2418 C2432 0.960 . S
H2419 C2432 0.961 . S
H2420 C2432 0.959 . S
H2421 C2435 0.929 . S
H2422 C2436 0.931 . S
H2423 C2438 0.930 . S
C2424 H2412 0.930 . S
C2424 C2425 1.399 . S
C2424 C2429 1.399 . S
C2425 C2424 1.399 . S
C2425 C2426 1.376 . S
C2426 H2413 0.930 . S
C2426 C2425 1.376 . S
C2426 C2427 1.388 . S
C2427 H2414 0.930 . S
C2427 C2426 1.388 . S
C2427 C2428 1.390 . S
C2428 C2427 1.390 . S
C2428 C2429 1.394 . S
C2428 C2434 1.465 . S
C2429 C2424 1.399 . S
C2429 C2428 1.394 . S
C2429 C2430 1.516 . S
C2430 C2429 1.516 . S
C2430 C2431 1.502 . S
C2430 C2432 1.561 . S
C2430 C2433 1.526 . S
C2431 H2415 0.959 . S
C2431 H2416 0.959 . S
C2431 H2417 0.961 . S
C2431 C2430 1.502 . S
C2432 H2418 0.960 . S
C2432 H2419 0.961 . S
C2432 H2420 0.959 . S
C2432 C2430 1.561 . S
C2433 C2430 1.526 . S
C2433 C2434 1.396 . S
C2433 C2438 1.390 . S
C2434 C2428 1.465 . S
C2434 C2433 1.396 . S
C2434 C2435 1.399 . S
C2435 H2421 0.929 . S
C2435 C2434 1.399 . S
C2435 C2436 1.385 . S
C2436 H2422 0.931 . S
C2436 C2435 1.385 . S
C2436 C2437 1.389 . S
C2437 C2436 1.389 . S
C2437 C2438 1.387 . S
C2438 H2423 0.930 . S
C2438 C2433 1.390 . S
C2438 C2437 1.387 . S
H2439 C2451 0.930 . S
H2440 C2453 0.930 . S
H2441 C2454 0.930 . S
H2442 C2458 0.959 . S
H2443 C2458 0.959 . S
H2444 C2458 0.961 . S
H2445 C2459 0.960 1_545 S
H2446 C2459 0.961 . S
H2447 C2459 0.959 . S
H2448 C2462 0.929 . S
H2449 C2463 0.931 . S
H2450 C2465 0.930 . S
C2451 H2439 0.930 . S
C2451 C2452 1.399 . S
C2451 C2456 1.399 1_545 S
C2452 C2451 1.399 . S
C2452 C2453 1.376 1_545 S
C2453 H2440 0.930 . S
C2453 C2452 1.376 1_565 S
C2453 C2454 1.388 . S
C2454 H2441 0.930 . S
C2454 C2453 1.388 . S
C2454 C2455 1.390 . S
C2455 C2454 1.390 . S
C2455 C2456 1.394 . S
C2455 C2461 1.465 . S
C2456 C2451 1.399 1_565 S
C2456 C2455 1.394 . S
C2456 C2457 1.516 . S
C2457 C2456 1.516 . S
C2457 C2458 1.502 1_565 S
C2457 C2459 1.561 . S
C2457 C2460 1.526 . S
C2458 H2442 0.959 . S
C2458 H2443 0.959 . S
C2458 H2444 0.961 . S
C2458 C2457 1.502 1_545 S
C2459 H2445 0.960 1_565 S
C2459 H2446 0.961 . S
C2459 H2447 0.959 . S
C2459 C2457 1.561 . S
C2460 C2457 1.526 . S
C2460 C2461 1.396 . S
C2460 C2465 1.390 . S
C2461 C2455 1.465 . S
C2461 C2460 1.396 . S
C2461 C2462 1.399 . S
C2462 H2448 0.929 . S
C2462 C2461 1.399 . S
C2462 C2463 1.385 . S
C2463 H2449 0.931 . S
C2463 C2462 1.385 . S
C2463 C2464 1.389 . S
C2464 C2463 1.389 . S
C2464 C2465 1.387 . S
C2465 H2450 0.930 . S
C2465 C2460 1.390 . S
C2465 C2464 1.387 . S
H2466 C2478 0.930 . S
H2467 C2480 0.930 . S
H2468 C2481 0.930 . S
H2469 C2485 0.959 . S
H2470 C2485 0.959 . S
H2471 C2485 0.961 . S
H2472 C2486 0.960 . S
H2473 C2486 0.961 1_655 S
H2474 C2486 0.959 1_655 S
H2475 C2489 0.929 . S
H2476 C2490 0.931 . S
H2477 C2492 0.930 . S
C2478 H2466 0.930 . S
C2478 C2479 1.399 . S
C2478 C2483 1.399 . S
C2479 C2478 1.399 . S
C2479 C2480 1.376 . S
C2480 H2467 0.930 . S
C2480 C2479 1.376 . S
C2480 C2481 1.388 . S
C2481 H2468 0.930 . S
C2481 C2480 1.388 . S
C2481 C2482 1.390 . S
C2482 C2481 1.390 . S
C2482 C2483 1.394 . S
C2482 C2488 1.465 . S
C2483 C2478 1.399 . S
C2483 C2482 1.394 . S
C2483 C2484 1.516 . S
C2484 C2483 1.516 . S
C2484 C2485 1.502 . S
C2484 C2486 1.561 . S
C2484 C2487 1.526 . S
C2485 H2469 0.959 . S
C2485 H2470 0.959 . S
C2485 H2471 0.961 . S
C2485 C2484 1.502 . S
C2486 H2472 0.960 . S
C2486 H2473 0.961 1_455 S
C2486 H2474 0.959 1_455 S
C2486 C2484 1.561 . S
C2487 C2484 1.526 . S
C2487 C2488 1.396 . S
C2487 C2492 1.390 . S
C2488 C2482 1.465 . S
C2488 C2487 1.396 . S
C2488 C2489 1.399 1_455 S
C2489 H2475 0.929 . S
C2489 C2488 1.399 1_655 S
C2489 C2490 1.385 . S
C2490 H2476 0.931 . S
C2490 C2489 1.385 . S
C2490 C2491 1.389 . S
C2491 C2490 1.389 . S
C2491 C2492 1.387 1_655 S
C2492 H2477 0.930 . S
C2492 C2487 1.390 . S
C2492 C2491 1.387 1_455 S
H2493 C2505 0.930 . S
H2494 C2507 0.930 . S
H2495 C2508 0.930 . S
H2496 C2512 0.959 . S
H2497 C2512 0.959 . S
H2498 C2512 0.961 . S
H2499 C2513 0.960 . S
H2500 C2513 0.961 . S
H2501 C2513 0.959 . S
H2502 C2516 0.929 . S
H2503 C2517 0.931 . S
H2504 C2519 0.930 . S
C2505 H2493 0.930 . S
C2505 C2506 1.399 . S
C2505 C2510 1.399 . S
C2506 C2505 1.399 . S
C2506 C2507 1.376 . S
C2507 H2494 0.930 . S
C2507 C2506 1.376 . S
C2507 C2508 1.388 . S
C2508 H2495 0.930 . S
C2508 C2507 1.388 . S
C2508 C2509 1.390 . S
C2509 C2508 1.390 . S
C2509 C2510 1.394 . S
C2509 C2515 1.465 . S
C2510 C2505 1.399 . S
C2510 C2509 1.394 . S
C2510 C2511 1.516 . S
C2511 C2510 1.516 . S
C2511 C2512 1.502 . S
C2511 C2513 1.561 . S
C2511 C2514 1.526 . S
C2512 H2496 0.959 . S
C2512 H2497 0.959 . S
C2512 H2498 0.961 . S
C2512 C2511 1.502 . S
C2513 H2499 0.960 . S
C2513 H2500 0.961 . S
C2513 H2501 0.959 . S
C2513 C2511 1.561 . S
C2514 C2511 1.526 . S
C2514 C2515 1.396 . S
C2514 C2519 1.390 . S
C2515 C2509 1.465 . S
C2515 C2514 1.396 . S
C2515 C2516 1.399 . S
C2516 H2502 0.929 . S
C2516 C2515 1.399 . S
C2516 C2517 1.385 . S
C2517 H2503 0.931 . S
C2517 C2516 1.385 . S
C2517 C2518 1.389 . S
C2518 C2517 1.389 . S
C2518 C2519 1.387 . S
C2519 H2504 0.930 . S
C2519 C2514 1.390 . S
C2519 C2518 1.387 . S
H2520 C2532 0.930 . S
H2521 C2534 0.930 . S
H2522 C2535 0.930 . S
H2523 C2539 0.959 . S
H2524 C2539 0.959 . S
H2525 C2539 0.961 . S
H2526 C2540 0.960 . S
H2527 C2540 0.961 . S
H2528 C2540 0.959 . S
H2529 C2543 0.929 . S
H2530 C2544 0.931 . S
H2531 C2546 0.930 . S
C2532 H2520 0.930 . S
C2532 C2533 1.399 1_545 S
C2532 C2537 1.399 . S
C2533 C2532 1.399 1_565 S
C2533 C2534 1.376 . S
C2534 H2521 0.930 . S
C2534 C2533 1.376 . S
C2534 C2535 1.388 . S
C2535 H2522 0.930 . S
C2535 C2534 1.388 . S
C2535 C2536 1.390 1_565 S
C2536 C2535 1.390 1_545 S
C2536 C2537 1.394 . S
C2536 C2542 1.465 . S
C2537 C2532 1.399 . S
C2537 C2536 1.394 . S
C2537 C2538 1.516 . S
C2538 C2537 1.516 . S
C2538 C2539 1.502 . S
C2538 C2540 1.561 . S
C2538 C2541 1.526 . S
C2539 H2523 0.959 . S
C2539 H2524 0.959 . S
C2539 H2525 0.961 . S
C2539 C2538 1.502 . S
C2540 H2526 0.960 . S
C2540 H2527 0.961 . S
C2540 H2528 0.959 . S
C2540 C2538 1.561 . S
C2541 C2538 1.526 . S
C2541 C2542 1.396 . S
C2541 C2546 1.390 . S
C2542 C2536 1.465 . S
C2542 C2541 1.396 . S
C2542 C2543 1.399 . S
C2543 H2529 0.929 . S
C2543 C2542 1.399 . S
C2543 C2544 1.385 . S
C2544 H2530 0.931 . S
C2544 C2543 1.385 . S
C2544 C2545 1.389 . S
C2545 C2544 1.389 . S
C2545 C2546 1.387 . S
C2546 H2531 0.930 . S
C2546 C2541 1.390 . S
C2546 C2545 1.387 . S
H2547 C2559 0.930 . S
H2548 C2561 0.930 . S
H2549 C2562 0.930 . S
H2550 C2566 0.959 . S
H2551 C2566 0.959 . S
H2552 C2566 0.961 . S
H2553 C2567 0.960 . S
H2554 C2567 0.961 . S
H2555 C2567 0.959 . S
H2556 C2570 0.929 . S
H2557 C2571 0.931 . S
H2558 C2573 0.930 . S
C2559 H2547 0.930 . S
C2559 C2560 1.399 . S
C2559 C2564 1.399 . S
C2560 C2559 1.399 . S
C2560 C2561 1.376 . S
C2561 H2548 0.930 . S
C2561 C2560 1.376 . S
C2561 C2562 1.388 . S
C2562 H2549 0.930 . S
C2562 C2561 1.388 . S
C2562 C2563 1.390 . S
C2563 C2562 1.390 . S
C2563 C2564 1.394 . S
C2563 C2569 1.465 . S
C2564 C2559 1.399 . S
C2564 C2563 1.394 . S
C2564 C2565 1.516 . S
C2565 C2564 1.516 . S
C2565 C2566 1.502 1_655 S
C2565 C2567 1.561 . S
C2565 C2568 1.526 . S
C2566 H2550 0.959 . S
C2566 H2551 0.959 . S
C2566 H2552 0.961 . S
C2566 C2565 1.502 1_455 S
C2567 H2553 0.960 . S
C2567 H2554 0.961 . S
C2567 H2555 0.959 . S
C2567 C2565 1.561 . S
C2568 C2565 1.526 . S
C2568 C2569 1.396 . S
C2568 C2573 1.390 1_655 S
C2569 C2563 1.465 . S
C2569 C2568 1.396 . S
C2569 C2570 1.399 . S
C2570 H2556 0.929 . S
C2570 C2569 1.399 . S
C2570 C2571 1.385 . S
C2571 H2557 0.931 . S
C2571 C2570 1.385 . S
C2571 C2572 1.389 1_655 S
C2572 C2571 1.389 1_455 S
C2572 C2573 1.387 . S
C2573 H2558 0.930 . S
C2573 C2568 1.390 1_455 S
C2573 C2572 1.387 . S
H2574 C2586 0.930 . S
H2575 C2588 0.930 . S
H2576 C2589 0.930 . S
H2577 C2593 0.959 . S
H2578 C2593 0.959 . S
H2579 C2593 0.961 . S
H2580 C2594 0.960 . S
H2581 C2594 0.961 . S
H2582 C2594 0.959 . S
H2583 C2597 0.929 . S
H2584 C2598 0.931 . S
H2585 C2600 0.930 . S
C2586 H2574 0.930 . S
C2586 C2587 1.399 . S
C2586 C2591 1.399 . S
C2587 C2586 1.399 . S
C2587 C2588 1.376 . S
C2588 H2575 0.930 . S
C2588 C2587 1.376 . S
C2588 C2589 1.388 . S
C2589 H2576 0.930 . S
C2589 C2588 1.388 . S
C2589 C2590 1.390 . S
C2590 C2589 1.390 . S
C2590 C2591 1.394 . S
C2590 C2596 1.465 . S
C2591 C2586 1.399 . S
C2591 C2590 1.394 . S
C2591 C2592 1.516 . S
C2592 C2591 1.516 . S
C2592 C2593 1.502 . S
C2592 C2594 1.561 . S
C2592 C2595 1.526 . S
C2593 H2577 0.959 . S
C2593 H2578 0.959 . S
C2593 H2579 0.961 . S
C2593 C2592 1.502 . S
C2594 H2580 0.960 . S
C2594 H2581 0.961 . S
C2594 H2582 0.959 . S
C2594 C2592 1.561 . S
C2595 C2592 1.526 . S
C2595 C2596 1.396 . S
C2595 C2600 1.390 . S
C2596 C2590 1.465 . S
C2596 C2595 1.396 . S
C2596 C2597 1.399 . S
C2597 H2583 0.929 . S
C2597 C2596 1.399 . S
C2597 C2598 1.385 . S
C2598 H2584 0.931 . S
C2598 C2597 1.385 . S
C2598 C2599 1.389 . S
C2599 C2598 1.389 . S
C2599 C2600 1.387 . S
C2600 H2585 0.930 . S
C2600 C2595 1.390 . S
C2600 C2599 1.387 . S
H2601 C2613 0.930 . S
H2602 C2615 0.930 . S
H2603 C2616 0.930 . S
H2604 C2620 0.959 . S
H2605 C2620 0.959 . S
H2606 C2620 0.961 . S
H2607 C2621 0.960 . S
H2608 C2621 0.961 1_565 S
H2609 C2621 0.959 . S
H2610 C2624 0.929 . S
H2611 C2625 0.931 . S
H2612 C2627 0.930 . S
C2613 H2601 0.930 . S
C2613 C2614 1.399 . S
C2613 C2618 1.399 . S
C2614 C2613 1.399 . S
C2614 C2615 1.376 . S
C2615 H2602 0.930 . S
C2615 C2614 1.376 . S
C2615 C2616 1.388 . S
C2616 H2603 0.930 . S
C2616 C2615 1.388 . S
C2616 C2617 1.390 . S
C2617 C2616 1.390 . S
C2617 C2618 1.394 . S
C2617 C2623 1.465 . S
C2618 C2613 1.399 . S
C2618 C2617 1.394 . S
C2618 C2619 1.516 . S
C2619 C2618 1.516 . S
C2619 C2620 1.502 1_545 S
C2619 C2621 1.561 . S
C2619 C2622 1.526 . S
C2620 H2604 0.959 . S
C2620 H2605 0.959 . S
C2620 H2606 0.961 . S
C2620 C2619 1.502 1_565 S
C2621 H2607 0.960 . S
C2621 H2608 0.961 1_545 S
C2621 H2609 0.959 . S
C2621 C2619 1.561 . S
C2622 C2619 1.526 . S
C2622 C2623 1.396 . S
C2622 C2627 1.390 1_545 S
C2623 C2617 1.465 . S
C2623 C2622 1.396 . S
C2623 C2624 1.399 . S
C2624 H2610 0.929 . S
C2624 C2623 1.399 . S
C2624 C2625 1.385 . S
C2625 H2611 0.931 . S
C2625 C2624 1.385 . S
C2625 C2626 1.389 1_545 S
C2626 C2625 1.389 1_565 S
C2626 C2627 1.387 . S
C2627 H2612 0.930 . S
C2627 C2622 1.390 1_565 S
C2627 C2626 1.387 . S
H2628 C2640 0.930 . S
H2629 C2642 0.930 . S
H2630 C2643 0.930 . S
H2631 C2647 0.959 . S
H2632 C2647 0.959 . S
H2633 C2647 0.961 . S
H2634 C2648 0.960 . S
H2635 C2648 0.961 . S
H2636 C2648 0.959 . S
H2637 C2651 0.929 . S
H2638 C2652 0.931 . S
H2639 C2654 0.930 . S
C2640 H2628 0.930 . S
C2640 C2641 1.399 . S
C2640 C2645 1.399 . S
C2641 C2640 1.399 . S
C2641 C2642 1.376 . S
C2642 H2629 0.930 . S
C2642 C2641 1.376 . S
C2642 C2643 1.388 . S
C2643 H2630 0.930 . S
C2643 C2642 1.388 . S
C2643 C2644 1.390 . S
C2644 C2643 1.390 . S
C2644 C2645 1.394 . S
C2644 C2650 1.465 . S
C2645 C2640 1.399 . S
C2645 C2644 1.394 . S
C2645 C2646 1.516 . S
C2646 C2645 1.516 . S
C2646 C2647 1.502 1_655 S
C2646 C2648 1.561 . S
C2646 C2649 1.526 . S
C2647 H2631 0.959 . S
C2647 H2632 0.959 . S
C2647 H2633 0.961 . S
C2647 C2646 1.502 1_455 S
C2648 H2634 0.960 . S
C2648 H2635 0.961 . S
C2648 H2636 0.959 . S
C2648 C2646 1.561 . S
C2649 C2646 1.526 . S
C2649 C2650 1.396 . S
C2649 C2654 1.390 1_655 S
C2650 C2644 1.465 . S
C2650 C2649 1.396 . S
C2650 C2651 1.399 . S
C2651 H2637 0.929 . S
C2651 C2650 1.399 . S
C2651 C2652 1.385 . S
C2652 H2638 0.931 . S
C2652 C2651 1.385 . S
C2652 C2653 1.389 1_655 S
C2653 C2652 1.389 1_455 S
C2653 C2654 1.387 . S
C2654 H2639 0.930 . S
C2654 C2649 1.390 1_455 S
C2654 C2653 1.387 . S
H2655 C2667 0.930 . S
H2656 C2669 0.930 . S
H2657 C2670 0.930 . S
H2658 C2674 0.959 . S
H2659 C2674 0.959 . S
H2660 C2674 0.961 . S
H2661 C2675 0.960 . S
H2662 C2675 0.961 . S
H2663 C2675 0.959 . S
H2664 C2678 0.929 . S
H2665 C2679 0.931 . S
H2666 C2681 0.930 . S
C2667 H2655 0.930 . S
C2667 C2668 1.399 . S
C2667 C2672 1.399 . S
C2668 C2667 1.399 . S
C2668 C2669 1.376 . S
C2669 H2656 0.930 . S
C2669 C2668 1.376 . S
C2669 C2670 1.388 . S
C2670 H2657 0.930 . S
C2670 C2669 1.388 . S
C2670 C2671 1.390 . S
C2671 C2670 1.390 . S
C2671 C2672 1.394 . S
C2671 C2677 1.465 . S
C2672 C2667 1.399 . S
C2672 C2671 1.394 . S
C2672 C2673 1.516 . S
C2673 C2672 1.516 . S
C2673 C2674 1.502 . S
C2673 C2675 1.561 . S
C2673 C2676 1.526 . S
C2674 H2658 0.959 . S
C2674 H2659 0.959 . S
C2674 H2660 0.961 . S
C2674 C2673 1.502 . S
C2675 H2661 0.960 . S
C2675 H2662 0.961 . S
C2675 H2663 0.959 . S
C2675 C2673 1.561 . S
C2676 C2673 1.526 . S
C2676 C2677 1.396 . S
C2676 C2681 1.390 . S
C2677 C2671 1.465 . S
C2677 C2676 1.396 . S
C2677 C2678 1.399 . S
C2678 H2664 0.929 . S
C2678 C2677 1.399 . S
C2678 C2679 1.385 . S
C2679 H2665 0.931 . S
C2679 C2678 1.385 . S
C2679 C2680 1.389 . S
C2680 C2679 1.389 . S
C2680 C2681 1.387 . S
C2681 H2666 0.930 . S
C2681 C2676 1.390 . S
C2681 C2680 1.387 . S
H2682 C2694 0.930 . S
H2683 C2696 0.930 . S
H2684 C2697 0.930 . S
H2685 C2701 0.959 . S
H2686 C2701 0.959 . S
H2687 C2701 0.961 . S
H2688 C2702 0.960 . S
H2689 C2702 0.961 . S
H2690 C2702 0.959 . S
H2691 C2705 0.929 . S
H2692 C2706 0.931 . S
H2693 C2708 0.930 . S
C2694 H2682 0.930 . S
C2694 C2695 1.399 . S
C2694 C2699 1.399 1_545 S
C2695 C2694 1.399 . S
C2695 C2696 1.376 1_545 S
C2696 H2683 0.930 . S
C2696 C2695 1.376 1_565 S
C2696 C2697 1.388 . S
C2697 H2684 0.930 . S
C2697 C2696 1.388 . S
C2697 C2698 1.390 . S
C2698 C2697 1.390 . S
C2698 C2699 1.394 . S
C2698 C2704 1.465 . S
C2699 C2694 1.399 1_565 S
C2699 C2698 1.394 . S
C2699 C2700 1.516 . S
C2700 C2699 1.516 . S
C2700 C2701 1.502 1_565 S
C2700 C2702 1.561 . S
C2700 C2703 1.526 . S
C2701 H2685 0.959 . S
C2701 H2686 0.959 . S
C2701 H2687 0.961 . S
C2701 C2700 1.502 1_545 S
C2702 H2688 0.960 . S
C2702 H2689 0.961 . S
C2702 H2690 0.959 . S
C2702 C2700 1.561 . S
C2703 C2700 1.526 . S
C2703 C2704 1.396 . S
C2703 C2708 1.390 . S
C2704 C2698 1.465 . S
C2704 C2703 1.396 . S
C2704 C2705 1.399 . S
C2705 H2691 0.929 . S
C2705 C2704 1.399 . S
C2705 C2706 1.385 . S
C2706 H2692 0.931 . S
C2706 C2705 1.385 . S
C2706 C2707 1.389 . S
C2707 C2706 1.389 . S
C2707 C2708 1.387 . S
C2708 H2693 0.930 . S
C2708 C2703 1.390 . S
C2708 C2707 1.387 . S
H2709 C2721 0.930 . S
H2710 C2723 0.930 . S
H2711 C2724 0.930 . S
H2712 C2728 0.959 . S
H2713 C2728 0.959 . S
H2714 C2728 0.961 . S
H2715 C2729 0.960 . S
H2716 C2729 0.961 . S
H2717 C2729 0.959 . S
H2718 C2732 0.929 . S
H2719 C2733 0.931 . S
H2720 C2735 0.930 . S
C2721 H2709 0.930 . S
C2721 C2722 1.399 . S
C2721 C2726 1.399 1_655 S
C2722 C2721 1.399 . S
C2722 C2723 1.376 1_655 S
C2723 H2710 0.930 . S
C2723 C2722 1.376 1_455 S
C2723 C2724 1.388 . S
C2724 H2711 0.930 . S
C2724 C2723 1.388 . S
C2724 C2725 1.390 . S
C2725 C2724 1.390 . S
C2725 C2726 1.394 . S
C2725 C2731 1.465 . S
C2726 C2721 1.399 1_455 S
C2726 C2725 1.394 . S
C2726 C2727 1.516 . S
C2727 C2726 1.516 . S
C2727 C2728 1.502 1_455 S
C2727 C2729 1.561 . S
C2727 C2730 1.526 . S
C2728 H2712 0.959 . S
C2728 H2713 0.959 . S
C2728 H2714 0.961 . S
C2728 C2727 1.502 1_655 S
C2729 H2715 0.960 . S
C2729 H2716 0.961 . S
C2729 H2717 0.959 . S
C2729 C2727 1.561 . S
C2730 C2727 1.526 . S
C2730 C2731 1.396 . S
C2730 C2735 1.390 . S
C2731 C2725 1.465 . S
C2731 C2730 1.396 . S
C2731 C2732 1.399 . S
C2732 H2718 0.929 . S
C2732 C2731 1.399 . S
C2732 C2733 1.385 . S
C2733 H2719 0.931 . S
C2733 C2732 1.385 . S
C2733 C2734 1.389 . S
C2734 C2733 1.389 . S
C2734 C2735 1.387 . S
C2735 H2720 0.930 . S
C2735 C2730 1.390 . S
C2735 C2734 1.387 . S
H2736 C2748 0.930 . S
H2737 C2750 0.930 . S
H2738 C2751 0.930 . S
H2739 C2755 0.959 . S
H2740 C2755 0.959 . S
H2741 C2755 0.961 . S
H2742 C2756 0.960 . S
H2743 C2756 0.961 . S
H2744 C2756 0.959 . S
H2745 C2759 0.929 . S
H2746 C2760 0.931 . S
H2747 C2762 0.930 . S
C2748 H2736 0.930 . S
C2748 C2749 1.399 . S
C2748 C2753 1.399 . S
C2749 C2748 1.399 . S
C2749 C2750 1.376 . S
C2750 H2737 0.930 . S
C2750 C2749 1.376 . S
C2750 C2751 1.388 . S
C2751 H2738 0.930 . S
C2751 C2750 1.388 . S
C2751 C2752 1.392 . S
C2752 C2751 1.392 . S
C2752 C2753 1.393 . S
C2752 C2758 1.463 1_655 S
C2753 C2748 1.399 . S
C2753 C2752 1.393 . S
C2753 C2754 1.516 1_655 S
C2754 C2753 1.516 1_455 S
C2754 C2755 1.502 . S
C2754 C2756 1.561 . S
C2754 C2757 1.526 . S
C2755 H2739 0.959 . S
C2755 H2740 0.959 . S
C2755 H2741 0.961 . S
C2755 C2754 1.502 . S
C2756 H2742 0.960 . S
C2756 H2743 0.961 . S
C2756 H2744 0.959 . S
C2756 C2754 1.561 . S
C2757 C2754 1.526 . S
C2757 C2758 1.396 . S
C2757 C2762 1.390 . S
C2758 C2752 1.463 1_455 S
C2758 C2757 1.396 . S
C2758 C2759 1.399 . S
C2759 H2745 0.929 . S
C2759 C2758 1.399 . S
C2759 C2760 1.385 . S
C2760 H2746 0.931 . S
C2760 C2759 1.385 . S
C2760 C2761 1.389 . S
C2761 C2760 1.389 . S
C2761 C2762 1.387 . S
C2762 H2747 0.930 . S
C2762 C2757 1.390 . S
C2762 C2761 1.387 . S
H2763 C2775 0.930 . S
H2764 C2777 0.930 . S
H2765 C2778 0.930 . S
H2766 C2782 0.959 . S
H2767 C2782 0.959 . S
H2768 C2782 0.961 . S
H2769 C2783 0.960 . S
H2770 C2783 0.961 . S
H2771 C2783 0.959 . S
H2772 C2786 0.929 . S
H2773 C2787 0.931 . S
H2774 C2789 0.930 . S
C2775 H2763 0.930 . S
C2775 C2776 1.399 . S
C2775 C2780 1.399 . S
C2776 C2775 1.399 . S
C2776 C2777 1.376 . S
C2777 H2764 0.930 . S
C2777 C2776 1.376 . S
C2777 C2778 1.388 . S
C2778 H2765 0.930 . S
C2778 C2777 1.388 . S
C2778 C2779 1.390 . S
C2779 C2778 1.390 . S
C2779 C2780 1.394 . S
C2779 C2785 1.465 . S
C2780 C2775 1.399 . S
C2780 C2779 1.394 . S
C2780 C2781 1.516 . S
C2781 C2780 1.516 . S
C2781 C2782 1.502 . S
C2781 C2783 1.561 . S
C2781 C2784 1.526 . S
C2782 H2766 0.959 . S
C2782 H2767 0.959 . S
C2782 H2768 0.961 . S
C2782 C2781 1.502 . S
C2783 H2769 0.960 . S
C2783 H2770 0.961 . S
C2783 H2771 0.959 . S
C2783 C2781 1.561 . S
C2784 C2781 1.526 . S
C2784 C2785 1.396 . S
C2784 C2789 1.390 . S
C2785 C2779 1.465 . S
C2785 C2784 1.396 . S
C2785 C2786 1.399 . S
C2786 H2772 0.929 . S
C2786 C2785 1.399 . S
C2786 C2787 1.385 . S
C2787 H2773 0.931 . S
C2787 C2786 1.385 . S
C2787 C2788 1.389 . S
C2788 C2787 1.389 . S
C2788 C2789 1.387 . S
C2789 H2774 0.930 . S
C2789 C2784 1.390 . S
C2789 C2788 1.387 . S
H2790 C2802 0.930 . S
H2791 C2804 0.930 . S
H2792 C2805 0.930 . S
H2793 C2809 0.959 . S
H2794 C2809 0.959 . S
H2795 C2809 0.961 . S
H2796 C2810 0.960 . S
H2797 C2810 0.961 . S
H2798 C2810 0.959 . S
H2799 C2813 0.929 . S
H2800 C2814 0.931 . S
H2801 C2816 0.930 . S
C2802 H2790 0.930 . S
C2802 C2803 1.399 . S
C2802 C2807 1.399 . S
C2803 C2802 1.399 . S
C2803 C2804 1.376 . S
C2804 H2791 0.930 . S
C2804 C2803 1.376 . S
C2804 C2805 1.388 . S
C2805 H2792 0.930 . S
C2805 C2804 1.388 . S
C2805 C2806 1.390 . S
C2806 C2805 1.390 . S
C2806 C2807 1.394 . S
C2806 C2812 1.467 1_565 S
C2807 C2802 1.399 . S
C2807 C2806 1.394 . S
C2807 C2808 1.516 . S
C2808 C2807 1.516 . S
C2808 C2809 1.502 . S
C2808 C2810 1.561 . S
C2808 C2811 1.526 1_565 S
C2809 H2793 0.959 . S
C2809 H2794 0.959 . S
C2809 H2795 0.961 . S
C2809 C2808 1.502 . S
C2810 H2796 0.960 . S
C2810 H2797 0.961 . S
C2810 H2798 0.959 . S
C2810 C2808 1.561 . S
C2811 C2808 1.526 1_545 S
C2811 C2812 1.395 . S
C2811 C2816 1.390 . S
C2812 C2806 1.467 1_545 S
C2812 C2811 1.395 . S
C2812 C2813 1.398 . S
C2813 H2799 0.929 . S
C2813 C2812 1.398 . S
C2813 C2814 1.385 . S
C2814 H2800 0.931 . S
C2814 C2813 1.385 . S
C2814 C2815 1.389 . S
C2815 C2814 1.389 . S
C2815 C2816 1.387 . S
C2816 H2801 0.930 . S
C2816 C2811 1.390 . S
C2816 C2815 1.387 . S
H2817 C2829 0.930 . S
H2818 C2831 0.930 . S
H2819 C2832 0.930 . S
H2820 C2836 0.959 1_655 S
H2821 C2836 0.959 . S
H2822 C2836 0.961 . S
H2823 C2837 0.960 . S
H2824 C2837 0.961 . S
H2825 C2837 0.959 . S
H2826 C2840 0.929 . S
H2827 C2841 0.931 . S
H2828 C2843 0.930 1_655 S
C2829 H2817 0.930 . S
C2829 C2830 1.399 . S
C2829 C2834 1.399 . S
C2830 C2829 1.399 . S
C2830 C2831 1.376 . S
C2831 H2818 0.930 . S
C2831 C2830 1.376 . S
C2831 C2832 1.388 . S
C2832 H2819 0.930 . S
C2832 C2831 1.388 . S
C2832 C2833 1.390 . S
C2833 C2832 1.390 . S
C2833 C2834 1.394 . S
C2833 C2839 1.465 . S
C2834 C2829 1.399 . S
C2834 C2833 1.394 . S
C2834 C2835 1.516 . S
C2835 C2834 1.516 . S
C2835 C2836 1.502 . S
C2835 C2837 1.561 . S
C2835 C2838 1.526 . S
C2836 H2820 0.959 1_455 S
C2836 H2821 0.959 . S
C2836 H2822 0.961 . S
C2836 C2835 1.502 . S
C2837 H2823 0.960 . S
C2837 H2824 0.961 . S
C2837 H2825 0.959 . S
C2837 C2835 1.561 . S
C2838 C2835 1.526 . S
C2838 C2839 1.396 . S
C2838 C2843 1.390 . S
C2839 C2833 1.465 . S
C2839 C2838 1.396 . S
C2839 C2840 1.399 . S
C2840 H2826 0.929 . S
C2840 C2839 1.399 . S
C2840 C2841 1.385 . S
C2841 H2827 0.931 . S
C2841 C2840 1.385 . S
C2841 C2842 1.390 1_455 S
C2842 C2841 1.390 1_655 S
C2842 C2843 1.386 1_655 S
C2843 H2828 0.930 1_455 S
C2843 C2838 1.390 . S
C2843 C2842 1.386 1_455 S
H2844 C2856 0.930 . S
H2845 C2858 0.930 . S
H2846 C2859 0.930 . S
H2847 C2863 0.959 . S
H2848 C2863 0.959 . S
H2849 C2863 0.961 . S
H2850 C2864 0.960 . S
H2851 C2864 0.961 . S
H2852 C2864 0.959 . S
H2853 C2867 0.929 . S
H2854 C2868 0.931 . S
H2855 C2870 0.930 . S
C2856 H2844 0.930 . S
C2856 C2857 1.399 . S
C2856 C2861 1.399 . S
C2857 C2856 1.399 . S
C2857 C2858 1.376 . S
C2858 H2845 0.930 . S
C2858 C2857 1.376 . S
C2858 C2859 1.388 . S
C2859 H2846 0.930 . S
C2859 C2858 1.388 . S
C2859 C2860 1.390 . S
C2860 C2859 1.390 . S
C2860 C2861 1.394 . S
C2860 C2866 1.465 . S
C2861 C2856 1.399 . S
C2861 C2860 1.394 . S
C2861 C2862 1.516 . S
C2862 C2861 1.516 . S
C2862 C2863 1.502 . S
C2862 C2864 1.561 . S
C2862 C2865 1.526 . S
C2863 H2847 0.959 . S
C2863 H2848 0.959 . S
C2863 H2849 0.961 . S
C2863 C2862 1.502 . S
C2864 H2850 0.960 . S
C2864 H2851 0.961 . S
C2864 H2852 0.959 . S
C2864 C2862 1.561 . S
C2865 C2862 1.526 . S
C2865 C2866 1.396 . S
C2865 C2870 1.390 . S
C2866 C2860 1.465 . S
C2866 C2865 1.396 . S
C2866 C2867 1.399 . S
C2867 H2853 0.929 . S
C2867 C2866 1.399 . S
C2867 C2868 1.385 . S
C2868 H2854 0.931 . S
C2868 C2867 1.385 . S
C2868 C2869 1.389 . S
C2869 C2868 1.389 . S
C2869 C2870 1.387 . S
C2870 H2855 0.930 . S
C2870 C2865 1.390 . S
C2870 C2869 1.387 . S
H2871 C2883 0.930 . S
H2872 C2885 0.930 . S
H2873 C2886 0.930 . S
H2874 C2890 0.959 . S
H2875 C2890 0.959 . S
H2876 C2890 0.961 . S
H2877 C2891 0.960 . S
H2878 C2891 0.961 . S
H2879 C2891 0.959 . S
H2880 C2894 0.929 . S
H2881 C2895 0.931 . S
H2882 C2897 0.930 . S
C2883 H2871 0.930 . S
C2883 C2884 1.399 . S
C2883 C2888 1.399 . S
C2884 C2883 1.399 . S
C2884 C2885 1.376 . S
C2885 H2872 0.930 . S
C2885 C2884 1.376 . S
C2885 C2886 1.388 . S
C2886 H2873 0.930 . S
C2886 C2885 1.388 . S
C2886 C2887 1.390 . S
C2887 C2886 1.390 . S
C2887 C2888 1.394 . S
C2887 C2893 1.465 . S
C2888 C2883 1.399 . S
C2888 C2887 1.394 . S
C2888 C2889 1.516 . S
C2889 C2888 1.516 . S
C2889 C2890 1.502 . S
C2889 C2891 1.561 . S
C2889 C2892 1.526 . S
C2890 H2874 0.959 . S
C2890 H2875 0.959 . S
C2890 H2876 0.961 . S
C2890 C2889 1.502 . S
C2891 H2877 0.960 . S
C2891 H2878 0.961 . S
C2891 H2879 0.959 . S
C2891 C2889 1.561 . S
C2892 C2889 1.526 . S
C2892 C2893 1.396 . S
C2892 C2897 1.390 . S
C2893 C2887 1.465 . S
C2893 C2892 1.396 . S
C2893 C2894 1.399 . S
C2894 H2880 0.929 . S
C2894 C2893 1.399 . S
C2894 C2895 1.385 1_565 S
C2895 H2881 0.931 . S
C2895 C2894 1.385 1_545 S
C2895 C2896 1.389 . S
C2896 C2895 1.389 . S
C2896 C2897 1.387 1_545 S
C2897 H2882 0.930 . S
C2897 C2892 1.390 . S
C2897 C2896 1.387 1_565 S
H2898 C2910 0.930 . S
H2899 C2912 0.930 . S
H2900 C2913 0.930 . S
H2901 C2917 0.959 . S
H2902 C2917 0.959 . S
H2903 C2917 0.961 . S
H2904 C2918 0.960 . S
H2905 C2918 0.961 . S
H2906 C2918 0.959 . S
H2907 C2921 0.929 . S
H2908 C2922 0.931 . S
H2909 C2924 0.930 . S
C2910 H2898 0.930 . S
C2910 C2911 1.399 . S
C2910 C2915 1.399 . S
C2911 C2910 1.399 . S
C2911 C2912 1.376 . S
C2912 H2899 0.930 . S
C2912 C2911 1.376 . S
C2912 C2913 1.388 . S
C2913 H2900 0.930 . S
C2913 C2912 1.388 . S
C2913 C2914 1.390 . S
C2914 C2913 1.390 . S
C2914 C2915 1.394 . S
C2914 C2920 1.465 . S
C2915 C2910 1.399 . S
C2915 C2914 1.394 . S
C2915 C2916 1.516 . S
C2916 C2915 1.516 . S
C2916 C2917 1.502 . S
C2916 C2918 1.561 . S
C2916 C2919 1.526 . S
C2917 H2901 0.959 . S
C2917 H2902 0.959 . S
C2917 H2903 0.961 . S
C2917 C2916 1.502 . S
C2918 H2904 0.960 . S
C2918 H2905 0.961 . S
C2918 H2906 0.959 . S
C2918 C2916 1.561 . S
C2919 C2916 1.526 . S
C2919 C2920 1.396 . S
C2919 C2924 1.390 . S
C2920 C2914 1.465 . S
C2920 C2919 1.396 . S
C2920 C2921 1.399 1_565 S
C2921 H2907 0.929 . S
C2921 C2920 1.399 1_545 S
C2921 C2922 1.385 . S
C2922 H2908 0.931 . S
C2922 C2921 1.385 . S
C2922 C2923 1.389 . S
C2923 C2922 1.389 . S
C2923 C2924 1.387 1_545 S
C2924 H2909 0.930 . S
C2924 C2919 1.390 . S
C2924 C2923 1.387 1_565 S
H2925 C2937 0.930 1_655 S
H2926 C2939 0.930 . S
H2927 C2940 0.930 . S
H2928 C2944 0.959 1_655 S
H2929 C2944 0.959 . S
H2930 C2944 0.961 1_655 S
H2931 C2945 0.960 . S
H2932 C2945 0.961 . S
H2933 C2945 0.959 . S
H2934 C2948 0.929 . S
H2935 C2949 0.931 . S
H2936 C2951 0.930 . S
C2937 H2925 0.930 1_455 S
C2937 C2938 1.382 1_455 S
C2937 C2942 1.399 . S
C2938 C2937 1.382 1_655 S
C2938 C2939 1.363 1_655 S
C2939 H2926 0.930 . S
C2939 C2938 1.363 1_455 S
C2939 C2940 1.388 . S
C2940 H2927 0.930 . S
C2940 C2939 1.388 . S
C2940 C2941 1.390 . S
C2941 C2940 1.390 . S
C2941 C2942 1.394 . S
C2941 C2947 1.465 . S
C2942 C2937 1.399 . S
C2942 C2941 1.394 . S
C2942 C2943 1.516 . S
C2943 C2942 1.516 . S
C2943 C2944 1.502 . S
C2943 C2945 1.561 . S
C2943 C2946 1.526 . S
C2944 H2928 0.959 1_455 S
C2944 H2929 0.959 . S
C2944 H2930 0.961 1_455 S
C2944 C2943 1.502 . S
C2945 H2931 0.960 . S
C2945 H2932 0.961 . S
C2945 H2933 0.959 . S
C2945 C2943 1.561 . S
C2946 C2943 1.526 . S
C2946 C2947 1.396 . S
C2946 C2951 1.390 . S
C2947 C2941 1.465 . S
C2947 C2946 1.396 . S
C2947 C2948 1.399 . S
C2948 H2934 0.929 . S
C2948 C2947 1.399 . S
C2948 C2949 1.385 . S
C2949 H2935 0.931 . S
C2949 C2948 1.385 . S
C2949 C2950 1.389 . S
C2950 C2949 1.389 . S
C2950 C2951 1.387 . S
C2951 H2936 0.930 . S
C2951 C2946 1.390 . S
C2951 C2950 1.387 . S
H2952 C2964 0.930 . S
H2953 C2966 0.930 . S
H2954 C2967 0.930 . S
H2955 C2971 0.959 . S
H2956 C2971 0.959 . S
H2957 C2971 0.961 . S
H2958 C2972 0.960 . S
H2959 C2972 0.961 . S
H2960 C2972 0.959 . S
H2961 C2975 0.929 . S
H2962 C2976 0.931 . S
H2963 C2978 0.930 . S
C2964 H2952 0.930 . S
C2964 C2965 1.399 . S
C2964 C2969 1.399 . S
C2965 C2964 1.399 . S
C2965 C2966 1.376 . S
C2966 H2953 0.930 . S
C2966 C2965 1.376 . S
C2966 C2967 1.388 . S
C2967 H2954 0.930 . S
C2967 C2966 1.388 . S
C2967 C2968 1.390 . S
C2968 C2967 1.390 . S
C2968 C2969 1.394 . S
C2968 C2974 1.465 . S
C2969 C2964 1.399 . S
C2969 C2968 1.394 . S
C2969 C2970 1.516 . S
C2970 C2969 1.516 . S
C2970 C2971 1.502 . S
C2970 C2972 1.561 . S
C2970 C2973 1.526 . S
C2971 H2955 0.959 . S
C2971 H2956 0.959 . S
C2971 H2957 0.961 . S
C2971 C2970 1.502 . S
C2972 H2958 0.960 . S
C2972 H2959 0.961 . S
C2972 H2960 0.959 . S
C2972 C2970 1.561 . S
C2973 C2970 1.526 . S
C2973 C2974 1.396 . S
C2973 C2978 1.390 . S
C2974 C2968 1.465 . S
C2974 C2973 1.396 . S
C2974 C2975 1.399 . S
C2975 H2961 0.929 . S
C2975 C2974 1.399 . S
C2975 C2976 1.385 . S
C2976 H2962 0.931 . S
C2976 C2975 1.385 . S
C2976 C2977 1.389 . S
C2977 C2976 1.389 . S
C2977 C2978 1.387 . S
C2978 H2963 0.930 . S
C2978 C2973 1.390 . S
C2978 C2977 1.387 . S
H2979 C2991 0.930 . S
H2980 C2993 0.930 . S
H2981 C2994 0.930 . S
H2982 C2998 0.959 . S
H2983 C2998 0.959 . S
H2984 C2998 0.961 . S
H2985 C2999 0.960 . S
H2986 C2999 0.961 . S
H2987 C2999 0.959 . S
H2988 C3002 0.929 . S
H2989 C3003 0.931 . S
H2990 C3005 0.930 . S
C2991 H2979 0.930 . S
C2991 C2992 1.320 1_556 S
C2991 C2996 1.399 . S
C2992 C2991 1.320 1_554 S
C2992 C2993 1.468 . S
C2993 H2980 0.930 . S
C2993 C2992 1.468 . S
C2993 C2994 1.388 . S
C2994 H2981 0.930 . S
C2994 C2993 1.388 . S
C2994 C2995 1.390 . S
C2995 C2994 1.390 . S
C2995 C2996 1.394 1_554 S
C2995 C3001 1.465 1_565 S
C2996 C2991 1.399 . S
C2996 C2995 1.394 1_556 S
C2996 C2997 1.516 . S
C2997 C2996 1.516 . S
C2997 C2998 1.502 . S
C2997 C2999 1.561 . S
C2997 C3000 1.526 1_565 S
C2998 H2982 0.959 . S
C2998 H2983 0.959 . S
C2998 H2984 0.961 . S
C2998 C2997 1.502 . S
C2999 H2985 0.960 . S
C2999 H2986 0.961 . S
C2999 H2987 0.959 . S
C2999 C2997 1.561 . S
C3000 C2997 1.526 1_545 S
C3000 C3001 1.396 1_556 S
C3000 C3005 1.390 . S
C3001 C2995 1.465 1_545 S
C3001 C3000 1.396 1_554 S
C3001 C3002 1.399 . S
C3002 H2988 0.929 . S
C3002 C3001 1.399 . S
C3002 C3003 1.385 . S
C3003 H2989 0.931 . S
C3003 C3002 1.385 . S
C3003 C3004 1.389 1_554 S
C3004 C3003 1.389 1_556 S
C3004 C3005 1.387 . S
C3005 H2990 0.930 . S
C3005 C3000 1.390 . S
C3005 C3004 1.387 . S
H3006 C3018 0.930 . S
H3007 C3020 0.930 . S
H3008 C3021 0.930 . S
H3009 C3025 0.959 . S
H3010 C3025 0.959 . S
H3011 C3025 0.961 . S
H3012 C3026 0.960 . S
H3013 C3026 0.961 . S
H3014 C3026 0.959 . S
H3015 C3029 0.929 . S
H3016 C3030 0.931 . S
H3017 C3032 0.930 . S
C3018 H3006 0.930 . S
C3018 C3019 1.317 1_556 S
C3018 C3023 1.399 . S
C3019 C3018 1.317 1_554 S
C3019 C3020 1.471 . S
C3020 H3007 0.930 . S
C3020 C3019 1.471 . S
C3020 C3021 1.388 . S
C3021 H3008 0.930 . S
C3021 C3020 1.388 . S
C3021 C3022 1.390 . S
C3022 C3021 1.390 . S
C3022 C3023 1.394 1_554 S
C3022 C3028 1.465 1_455 S
C3023 C3018 1.399 . S
C3023 C3022 1.394 1_556 S
C3023 C3024 1.516 . S
C3024 C3023 1.516 . S
C3024 C3025 1.502 . S
C3024 C3026 1.561 . S
C3024 C3027 1.526 1_455 S
C3025 H3009 0.959 . S
C3025 H3010 0.959 . S
C3025 H3011 0.961 . S
C3025 C3024 1.502 . S
C3026 H3012 0.960 . S
C3026 H3013 0.961 . S
C3026 H3014 0.959 . S
C3026 C3024 1.561 . S
C3027 C3024 1.526 1_655 S
C3027 C3028 1.396 1_556 S
C3027 C3032 1.390 . S
C3028 C3022 1.465 1_655 S
C3028 C3027 1.396 1_554 S
C3028 C3029 1.399 . S
C3029 H3015 0.929 . S
C3029 C3028 1.399 . S
C3029 C3030 1.385 . S
C3030 H3016 0.931 . S
C3030 C3029 1.385 . S
C3030 C3031 1.389 1_554 S
C3031 C3030 1.389 1_556 S
C3031 C3032 1.387 . S
C3032 H3017 0.930 . S
C3032 C3027 1.390 . S
C3032 C3031 1.387 . S
H3033 C3045 0.930 . S
H3034 C3047 0.930 . S
H3035 C3048 0.930 . S
H3036 C3052 0.959 . S
H3037 C3052 0.959 . S
H3038 C3052 0.961 . S
H3039 C3053 0.960 . S
H3040 C3053 0.961 . S
H3041 C3053 0.959 . S
H3042 C3056 0.929 . S
H3043 C3057 0.931 . S
H3044 C3059 0.930 . S
C3045 H3033 0.930 . S
C3045 C3046 1.399 . S
C3045 C3050 1.399 . S
C3046 C3045 1.399 . S
C3046 C3047 1.376 1_556 S
C3047 H3034 0.930 . S
C3047 C3046 1.376 1_554 S
C3047 C3048 1.388 . S
C3048 H3035 0.930 . S
C3048 C3047 1.388 . S
C3048 C3049 1.390 . S
C3049 C3048 1.390 . S
C3049 C3050 1.394 1_554 S
C3049 C3055 1.465 . S
C3050 C3045 1.399 . S
C3050 C3049 1.394 1_556 S
C3050 C3051 1.516 . S
C3051 C3050 1.516 . S
C3051 C3052 1.502 . S
C3051 C3053 1.561 . S
C3051 C3054 1.526 . S
C3052 H3036 0.959 . S
C3052 H3037 0.959 . S
C3052 H3038 0.961 . S
C3052 C3051 1.502 . S
C3053 H3039 0.960 . S
C3053 H3040 0.961 . S
C3053 H3041 0.959 . S
C3053 C3051 1.561 . S
C3054 C3051 1.526 . S
C3054 C3055 1.396 1_556 S
C3054 C3059 1.390 . S
C3055 C3049 1.465 . S
C3055 C3054 1.396 1_554 S
C3055 C3056 1.399 . S
C3056 H3042 0.929 . S
C3056 C3055 1.399 . S
C3056 C3057 1.385 . S
C3057 H3043 0.931 . S
C3057 C3056 1.385 . S
C3057 C3058 1.475 . S
C3058 C3057 1.475 . S
C3058 C3059 1.312 1_554 S
C3059 H3044 0.930 . S
C3059 C3054 1.390 . S
C3059 C3058 1.312 1_556 S
H3060 C3072 0.930 . S
H3061 C3074 0.930 . S
H3062 C3075 0.930 . S
H3063 C3079 0.959 . S
H3064 C3079 0.959 . S
H3065 C3079 0.961 . S
H3066 C3080 0.960 . S
H3067 C3080 0.961 . S
H3068 C3080 0.959 . S
H3069 C3083 0.929 . S
H3070 C3084 0.931 . S
H3071 C3086 0.930 . S
C3072 H3060 0.930 . S
C3072 C3073 1.399 . S
C3072 C3077 1.399 . S
C3073 C3072 1.399 . S
C3073 C3074 1.376 . S
C3074 H3061 0.930 . S
C3074 C3073 1.376 . S
C3074 C3075 1.388 . S
C3075 H3062 0.930 . S
C3075 C3074 1.388 . S
C3075 C3076 1.390 . S
C3076 C3075 1.390 . S
C3076 C3077 1.394 . S
C3076 C3082 1.465 . S
C3077 C3072 1.399 . S
C3077 C3076 1.394 . S
C3077 C3078 1.516 . S
C3078 C3077 1.516 . S
C3078 C3079 1.502 . S
C3078 C3080 1.561 . S
C3078 C3081 1.526 . S
C3079 H3063 0.959 . S
C3079 H3064 0.959 . S
C3079 H3065 0.961 . S
C3079 C3078 1.502 . S
C3080 H3066 0.960 . S
C3080 H3067 0.961 . S
C3080 H3068 0.959 . S
C3080 C3078 1.561 . S
C3081 C3078 1.526 . S
C3081 C3082 1.396 . S
C3081 C3086 1.390 . S
C3082 C3076 1.465 . S
C3082 C3081 1.396 . S
C3082 C3083 1.399 1_545 S
C3083 H3069 0.929 . S
C3083 C3082 1.399 1_565 S
C3083 C3084 1.385 . S
C3084 H3070 0.931 . S
C3084 C3083 1.385 . S
C3084 C3085 1.389 . S
C3085 C3084 1.389 . S
C3085 C3086 1.387 1_565 S
C3086 H3071 0.930 . S
C3086 C3081 1.390 . S
C3086 C3085 1.387 1_545 S
H3087 C3099 0.930 . S
H3088 C3101 0.930 . S
H3089 C3102 0.930 . S
H3090 C3106 0.959 1_455 S
H3091 C3106 0.959 1_455 S
H3092 C3106 0.961 . S
H3093 C3107 0.960 . S
H3094 C3107 0.961 . S
H3095 C3107 0.959 . S
H3096 C3110 0.929 . S
H3097 C3111 0.931 . S
H3098 C3113 0.930 1_455 S
C3099 H3087 0.930 . S
C3099 C3100 1.399 . S
C3099 C3104 1.399 . S
C3100 C3099 1.399 . S
C3100 C3101 1.376 . S
C3101 H3088 0.930 . S
C3101 C3100 1.376 . S
C3101 C3102 1.388 . S
C3102 H3089 0.930 . S
C3102 C3101 1.388 . S
C3102 C3103 1.390 . S
C3103 C3102 1.390 . S
C3103 C3104 1.394 . S
C3103 C3109 1.465 . S
C3104 C3099 1.399 . S
C3104 C3103 1.394 . S
C3104 C3105 1.516 . S
C3105 C3104 1.516 . S
C3105 C3106 1.502 . S
C3105 C3107 1.561 . S
C3105 C3108 1.526 . S
C3106 H3090 0.959 1_655 S
C3106 H3091 0.959 1_655 S
C3106 H3092 0.961 . S
C3106 C3105 1.502 . S
C3107 H3093 0.960 . S
C3107 H3094 0.961 . S
C3107 H3095 0.959 . S
C3107 C3105 1.561 . S
C3108 C3105 1.526 . S
C3108 C3109 1.396 . S
C3108 C3113 1.390 . S
C3109 C3103 1.465 . S
C3109 C3108 1.396 . S
C3109 C3110 1.399 . S
C3110 H3096 0.929 . S
C3110 C3109 1.399 . S
C3110 C3111 1.385 . S
C3111 H3097 0.931 . S
C3111 C3110 1.385 . S
C3111 C3112 1.389 1_655 S
C3112 C3111 1.389 1_455 S
C3112 C3113 1.387 1_455 S
C3113 H3098 0.930 1_655 S
C3113 C3108 1.390 . S
C3113 C3112 1.387 1_655 S
H3114 C3126 0.930 . S
H3115 C3128 0.930 . S
H3116 C3129 0.930 . S
H3117 C3133 0.959 . S
H3118 C3133 0.959 . S
H3119 C3133 0.961 . S
H3120 C3134 0.960 . S
H3121 C3134 0.961 . S
H3122 C3134 0.959 . S
H3123 C3137 0.929 . S
H3124 C3138 0.931 . S
H3125 C3140 0.930 . S
C3126 H3114 0.930 . S
C3126 C3127 1.399 . S
C3126 C3131 1.399 . S
C3127 C3126 1.399 . S
C3127 C3128 1.376 . S
C3128 H3115 0.930 . S
C3128 C3127 1.376 . S
C3128 C3129 1.388 . S
C3129 H3116 0.930 . S
C3129 C3128 1.388 . S
C3129 C3130 1.390 . S
C3130 C3129 1.390 . S
C3130 C3131 1.394 . S
C3130 C3136 1.465 . S
C3131 C3126 1.399 . S
C3131 C3130 1.394 . S
C3131 C3132 1.516 . S
C3132 C3131 1.516 . S
C3132 C3133 1.502 . S
C3132 C3134 1.561 . S
C3132 C3135 1.526 . S
C3133 H3117 0.959 . S
C3133 H3118 0.959 . S
C3133 H3119 0.961 . S
C3133 C3132 1.502 . S
C3134 H3120 0.960 . S
C3134 H3121 0.961 . S
C3134 H3122 0.959 . S
C3134 C3132 1.561 . S
C3135 C3132 1.526 . S
C3135 C3136 1.396 . S
C3135 C3140 1.390 . S
C3136 C3130 1.465 . S
C3136 C3135 1.396 . S
C3136 C3137 1.399 . S
C3137 H3123 0.929 . S
C3137 C3136 1.399 . S
C3137 C3138 1.385 . S
C3138 H3124 0.931 . S
C3138 C3137 1.385 . S
C3138 C3139 1.389 . S
C3139 C3138 1.389 . S
C3139 C3140 1.387 . S
C3140 H3125 0.930 . S
C3140 C3135 1.390 . S
C3140 C3139 1.387 . S
H3141 C3153 0.930 . S
H3142 C3155 0.930 . S
H3143 C3156 0.930 . S
H3144 C3160 0.891 1_554 S
H3145 C3160 0.959 . S
H3146 C3160 0.961 1_565 S
H3147 C3161 0.960 1_565 S
H3148 C3161 0.961 . S
H3149 C3161 0.959 . S
H3150 C3164 0.929 . S
H3151 C3165 0.931 . S
H3152 C3167 0.930 . S
C3153 H3141 0.930 . S
C3153 C3154 1.399 1_556 S
C3153 C3158 1.407 . S
C3154 C3153 1.399 1_554 S
C3154 C3155 1.376 . S
C3155 H3142 0.930 . S
C3155 C3154 1.376 . S
C3155 C3156 1.388 . S
C3156 H3143 0.930 . S
C3156 C3155 1.388 . S
C3156 C3157 1.390 . S
C3157 C3156 1.390 . S
C3157 C3158 1.326 1_554 S
C3157 C3163 1.465 1_565 S
C3158 C3153 1.407 . S
C3158 C3157 1.326 1_556 S
C3158 C3159 1.582 1_565 S
C3159 C3158 1.582 1_545 S
C3159 C3160 1.502 . S
C3159 C3161 1.561 . S
C3159 C3162 1.526 . S
C3160 H3144 0.891 1_556 S
C3160 H3145 0.959 . S
C3160 H3146 0.961 1_545 S
C3160 C3159 1.502 . S
C3161 H3147 0.960 1_545 S
C3161 H3148 0.961 . S
C3161 H3149 0.959 . S
C3161 C3159 1.561 . S
C3162 C3159 1.526 . S
C3162 C3163 1.396 1_556 S
C3162 C3167 1.390 . S
C3163 C3157 1.465 1_545 S
C3163 C3162 1.396 1_554 S
C3163 C3164 1.399 . S
C3164 H3150 0.929 . S
C3164 C3163 1.399 . S
C3164 C3165 1.385 . S
C3165 H3151 0.931 . S
C3165 C3164 1.385 . S
C3165 C3166 1.445 . S
C3166 C3165 1.445 . S
C3166 C3167 1.348 1_554 S
C3167 H3152 0.930 . S
C3167 C3162 1.390 . S
C3167 C3166 1.348 1_556 S
H3168 C3180 0.930 . S
H3169 C3182 0.930 . S
H3170 C3183 0.930 . S
H3171 C3187 0.959 . S
H3172 C3187 0.959 1_455 S
H3173 C3187 0.961 . S
H3174 C3188 0.960 . S
H3175 C3188 0.961 1_455 S
H3176 C3188 0.959 . S
H3177 C3191 0.929 . S
H3178 C3192 0.931 . S
H3179 C3194 0.930 . S
C3180 H3168 0.930 . S
C3180 C3181 1.359 1_556 S
C3180 C3185 1.399 . S
C3181 C3180 1.359 1_554 S
C3181 C3182 1.433 . S
C3182 H3169 0.930 . S
C3182 C3181 1.433 . S
C3182 C3183 1.388 . S
C3183 H3170 0.930 . S
C3183 C3182 1.388 . S
C3183 C3184 1.390 . S
C3184 C3183 1.390 . S
C3184 C3185 1.394 1_554 S
C3184 C3190 1.465 1_655 S
C3185 C3180 1.399 . S
C3185 C3184 1.394 1_556 S
C3185 C3186 1.516 . S
C3186 C3185 1.516 . S
C3186 C3187 1.502 . S
C3186 C3188 1.561 . S
C3186 C3189 1.526 1_655 S
C3187 H3171 0.959 . S
C3187 H3172 0.959 1_655 S
C3187 H3173 0.961 . S
C3187 C3186 1.502 . S
C3188 H3174 0.960 . S
C3188 H3175 0.961 1_655 S
C3188 H3176 0.959 . S
C3188 C3186 1.561 . S
C3189 C3186 1.526 1_455 S
C3189 C3190 1.396 1_556 S
C3189 C3194 1.390 . S
C3190 C3184 1.465 1_455 S
C3190 C3189 1.396 1_554 S
C3190 C3191 1.399 . S
C3191 H3177 0.929 . S
C3191 C3190 1.399 . S
C3191 C3192 1.385 . S
C3192 H3178 0.931 . S
C3192 C3191 1.385 . S
C3192 C3193 1.389 . S
C3193 C3192 1.389 . S
C3193 C3194 1.387 1_554 S
C3194 H3179 0.930 . S
C3194 C3189 1.390 . S
C3194 C3193 1.387 1_556 S
H3195 C3207 0.930 . S
H3196 C3209 0.930 . S
H3197 C3210 0.930 . S
H3198 C3214 0.959 . S
H3199 C3214 0.959 . S
H3200 C3214 0.961 . S
H3201 C3215 0.960 . S
H3202 C3215 0.961 . S
H3203 C3215 0.959 . S
H3204 C3218 0.929 . S
H3205 C3219 0.931 . S
H3206 C3221 0.930 . S
C3207 H3195 0.930 . S
C3207 C3208 1.399 . S
C3207 C3212 1.399 . S
C3208 C3207 1.399 . S
C3208 C3209 1.376 1_554 S
C3209 H3196 0.930 . S
C3209 C3208 1.376 1_556 S
C3209 C3210 1.388 . S
C3210 H3197 0.930 . S
C3210 C3209 1.388 . S
C3210 C3211 1.390 . S
C3211 C3210 1.390 . S
C3211 C3212 1.394 1_556 S
C3211 C3217 1.465 . S
C3212 C3207 1.399 . S
C3212 C3211 1.394 1_554 S
C3212 C3213 1.516 . S
C3213 C3212 1.516 . S
C3213 C3214 1.502 . S
C3213 C3215 1.561 . S
C3213 C3216 1.526 . S
C3214 H3198 0.959 . S
C3214 H3199 0.959 . S
C3214 H3200 0.961 . S
C3214 C3213 1.502 . S
C3215 H3201 0.960 . S
C3215 H3202 0.961 . S
C3215 H3203 0.959 . S
C3215 C3213 1.561 . S
C3216 C3213 1.526 . S
C3216 C3217 1.396 1_554 S
C3216 C3221 1.390 . S
C3217 C3211 1.465 . S
C3217 C3216 1.396 1_556 S
C3217 C3218 1.399 . S
C3218 H3204 0.929 . S
C3218 C3217 1.399 . S
C3218 C3219 1.385 . S
C3219 H3205 0.931 . S
C3219 C3218 1.385 . S
C3219 C3220 1.465 . S
C3220 C3219 1.465 . S
C3220 C3221 1.320 1_556 S
C3221 H3206 0.930 . S
C3221 C3216 1.390 . S
C3221 C3220 1.320 1_554 S
H3222 C3234 0.930 . S
H3223 C3236 0.930 . S
H3224 C3237 0.930 . S
H3225 C3241 0.959 . S
H3226 C3241 0.959 . S
H3227 C3241 0.961 . S
H3228 C3242 0.975 . S
H3229 C3242 0.961 . S
H3230 C3242 0.959 . S
H3231 C3245 0.929 . S
H3232 C3246 0.931 . S
H3233 C3248 0.930 . S
C3234 H3222 0.930 . S
C3234 C3235 1.399 . S
C3234 C3239 1.399 . S
C3235 C3234 1.399 . S
C3235 C3236 1.376 . S
C3236 H3223 0.930 . S
C3236 C3235 1.376 . S
C3236 C3237 1.388 . S
C3237 H3224 0.930 . S
C3237 C3236 1.388 . S
C3237 C3238 1.389 1_455 S
C3238 C3237 1.389 1_655 S
C3238 C3239 1.393 1_655 S
C3238 C3244 1.467 . S
C3239 C3234 1.399 . S
C3239 C3238 1.393 1_455 S
C3239 C3240 1.516 1_455 S
C3240 C3239 1.516 1_655 S
C3240 C3241 1.502 . S
C3240 C3242 1.561 . S
C3240 C3243 1.526 . S
C3241 H3225 0.959 . S
C3241 H3226 0.959 . S
C3241 H3227 0.961 . S
C3241 C3240 1.502 . S
C3242 H3228 0.975 . S
C3242 H3229 0.961 . S
C3242 H3230 0.959 . S
C3242 C3240 1.561 . S
C3243 C3240 1.526 . S
C3243 C3244 1.396 . S
C3243 C3248 1.390 . S
C3244 C3238 1.467 . S
C3244 C3243 1.396 . S
C3244 C3245 1.399 . S
C3245 H3231 0.929 . S
C3245 C3244 1.399 . S
C3245 C3246 1.385 . S
C3246 H3232 0.931 . S
C3246 C3245 1.385 . S
C3246 C3247 1.389 . S
C3247 C3246 1.389 . S
C3247 C3248 1.387 . S
C3248 H3233 0.930 . S
C3248 C3243 1.390 . S
C3248 C3247 1.387 . S
H3249 C3261 0.930 . S
H3250 C3263 0.930 . S
H3251 C3264 0.930 . S
H3252 C3268 0.959 . S
H3253 C3268 0.959 . S
H3254 C3268 0.961 . S
H3255 C3269 0.960 . S
H3256 C3269 0.961 . S
H3257 C3269 0.959 . S
H3258 C3272 0.929 . S
H3259 C3273 0.931 . S
H3260 C3275 0.930 . S
C3261 H3249 0.930 . S
C3261 C3262 1.399 . S
C3261 C3266 1.399 . S
C3262 C3261 1.399 . S
C3262 C3263 1.376 . S
C3263 H3250 0.930 . S
C3263 C3262 1.376 . S
C3263 C3264 1.388 . S
C3264 H3251 0.930 . S
C3264 C3263 1.388 . S
C3264 C3265 1.390 . S
C3265 C3264 1.390 . S
C3265 C3266 1.394 . S
C3265 C3271 1.465 . S
C3266 C3261 1.399 . S
C3266 C3265 1.394 . S
C3266 C3267 1.516 . S
C3267 C3266 1.516 . S
C3267 C3268 1.502 . S
C3267 C3269 1.561 . S
C3267 C3270 1.526 . S
C3268 H3252 0.959 . S
C3268 H3253 0.959 . S
C3268 H3254 0.961 . S
C3268 C3267 1.502 . S
C3269 H3255 0.960 . S
C3269 H3256 0.961 . S
C3269 H3257 0.959 . S
C3269 C3267 1.561 . S
C3270 C3267 1.526 . S
C3270 C3271 1.396 . S
C3270 C3275 1.390 . S
C3271 C3265 1.465 . S
C3271 C3270 1.396 . S
C3271 C3272 1.399 . S
C3272 H3258 0.929 . S
C3272 C3271 1.399 . S
C3272 C3273 1.385 . S
C3273 H3259 0.931 . S
C3273 C3272 1.385 . S
C3273 C3274 1.389 . S
C3274 C3273 1.389 . S
C3274 C3275 1.387 . S
C3275 H3260 0.930 . S
C3275 C3270 1.390 . S
C3275 C3274 1.387 . S
H3276 C3288 0.930 . S
H3277 C3290 0.930 . S
H3278 C3291 0.930 . S
H3279 C3295 0.959 . S
H3280 C3295 0.959 . S
H3281 C3295 0.961 1_565 S
H3282 C3296 0.960 1_565 S
H3283 C3296 0.961 . S
H3284 C3296 0.959 . S
H3285 C3299 0.929 . S
H3286 C3300 0.931 . S
H3287 C3302 0.930 . S
C3288 H3276 0.930 . S
C3288 C3289 1.399 . S
C3288 C3293 1.399 . S
C3289 C3288 1.399 . S
C3289 C3290 1.376 . S
C3290 H3277 0.930 . S
C3290 C3289 1.376 . S
C3290 C3291 1.388 . S
C3291 H3278 0.930 . S
C3291 C3290 1.388 . S
C3291 C3292 1.390 1_565 S
C3292 C3291 1.390 1_545 S
C3292 C3293 1.394 1_545 S
C3292 C3298 1.465 . S
C3293 C3288 1.399 . S
C3293 C3292 1.394 1_565 S
C3293 C3294 1.516 1_565 S
C3294 C3293 1.516 1_545 S
C3294 C3295 1.502 . S
C3294 C3296 1.561 . S
C3294 C3297 1.526 . S
C3295 H3279 0.959 . S
C3295 H3280 0.959 . S
C3295 H3281 0.961 1_545 S
C3295 C3294 1.502 . S
C3296 H3282 0.960 1_545 S
C3296 H3283 0.961 . S
C3296 H3284 0.959 . S
C3296 C3294 1.561 . S
C3297 C3294 1.526 . S
C3297 C3298 1.396 . S
C3297 C3302 1.390 . S
C3298 C3292 1.465 . S
C3298 C3297 1.396 . S
C3298 C3299 1.399 . S
C3299 H3285 0.929 . S
C3299 C3298 1.399 . S
C3299 C3300 1.385 . S
C3300 H3286 0.931 . S
C3300 C3299 1.385 . S
C3300 C3301 1.389 . S
C3301 C3300 1.389 . S
C3301 C3302 1.387 . S
C3302 H3287 0.930 . S
C3302 C3297 1.390 . S
C3302 C3301 1.387 . S
H3303 C3315 0.930 1_455 S
H3304 C3317 0.930 . S
H3305 C3318 0.930 . S
H3306 C3322 0.952 1_455 S
H3307 C3322 0.959 . S
H3308 C3322 0.961 1_455 S
H3309 C3323 0.960 . S
H3310 C3323 0.961 . S
H3311 C3323 0.959 . S
H3312 C3326 0.929 . S
H3313 C3327 0.931 . S
H3314 C3329 0.930 . S
C3315 H3303 0.930 1_655 S
C3315 C3316 1.399 . S
C3315 C3320 1.399 . S
C3316 C3315 1.399 . S
C3316 C3317 1.376 . S
C3317 H3304 0.930 . S
C3317 C3316 1.376 . S
C3317 C3318 1.388 . S
C3318 H3305 0.930 . S
C3318 C3317 1.388 . S
C3318 C3319 1.390 . S
C3319 C3318 1.390 . S
C3319 C3320 1.394 . S
C3319 C3325 1.465 . S
C3320 C3315 1.399 . S
C3320 C3319 1.394 . S
C3320 C3321 1.516 . S
C3321 C3320 1.516 . S
C3321 C3322 1.502 . S
C3321 C3323 1.561 . S
C3321 C3324 1.526 . S
C3322 H3306 0.952 1_655 S
C3322 H3307 0.959 . S
C3322 H3308 0.961 1_655 S
C3322 C3321 1.502 . S
C3323 H3309 0.960 . S
C3323 H3310 0.961 . S
C3323 H3311 0.959 . S
C3323 C3321 1.561 . S
C3324 C3321 1.526 . S
C3324 C3325 1.396 . S
C3324 C3329 1.390 . S
C3325 C3319 1.465 . S
C3325 C3324 1.396 . S
C3325 C3326 1.399 . S
C3326 H3312 0.929 . S
C3326 C3325 1.399 . S
C3326 C3327 1.385 . S
C3327 H3313 0.931 . S
C3327 C3326 1.385 . S
C3327 C3328 1.389 . S
C3328 C3327 1.389 . S
C3328 C3329 1.387 . S
C3329 H3314 0.930 . S
C3329 C3324 1.390 . S
C3329 C3328 1.387 . S
H3330 C3342 0.930 . S
H3331 C3344 0.930 . S
H3332 C3345 0.930 . S
H3333 C3349 0.959 . S
H3334 C3349 0.959 . S
H3335 C3349 0.961 . S
H3336 C3350 0.960 . S
H3337 C3350 0.961 . S
H3338 C3350 0.959 . S
H3339 C3353 0.929 . S
H3340 C3354 0.931 . S
H3341 C3356 0.930 . S
C3342 H3330 0.930 . S
C3342 C3343 1.399 . S
C3342 C3347 1.399 . S
C3343 C3342 1.399 . S
C3343 C3344 1.376 . S
C3344 H3331 0.930 . S
C3344 C3343 1.376 . S
C3344 C3345 1.388 . S
C3345 H3332 0.930 . S
C3345 C3344 1.388 . S
C3345 C3346 1.390 . S
C3346 C3345 1.390 . S
C3346 C3347 1.394 . S
C3346 C3352 1.465 . S
C3347 C3342 1.399 . S
C3347 C3346 1.394 . S
C3347 C3348 1.516 . S
C3348 C3347 1.516 . S
C3348 C3349 1.502 . S
C3348 C3350 1.561 . S
C3348 C3351 1.526 . S
C3349 H3333 0.959 . S
C3349 H3334 0.959 . S
C3349 H3335 0.961 . S
C3349 C3348 1.502 . S
C3350 H3336 0.960 . S
C3350 H3337 0.961 . S
C3350 H3338 0.959 . S
C3350 C3348 1.561 . S
C3351 C3348 1.526 . S
C3351 C3352 1.396 . S
C3351 C3356 1.390 . S
C3352 C3346 1.465 . S
C3352 C3351 1.396 . S
C3352 C3353 1.399 . S
C3353 H3339 0.929 . S
C3353 C3352 1.399 . S
C3353 C3354 1.385 . S
C3354 H3340 0.931 . S
C3354 C3353 1.385 . S
C3354 C3355 1.389 . S
C3355 C3354 1.389 . S
C3355 C3356 1.387 . S
C3356 H3341 0.930 . S
C3356 C3351 1.390 . S
C3356 C3355 1.387 . S
H3357 C3369 0.930 . S
H3358 C3371 0.930 . S
H3359 C3372 0.930 . S
H3360 C3376 0.959 . S
H3361 C3376 0.959 . S
H3362 C3376 0.961 . S
H3363 C3377 0.960 . S
H3364 C3377 0.961 . S
H3365 C3377 0.959 . S
H3366 C3380 0.929 . S
H3367 C3381 0.931 1_565 S
H3368 C3383 0.930 . S
C3369 H3357 0.930 . S
C3369 C3370 1.399 . S
C3369 C3374 1.399 . S
C3370 C3369 1.399 . S
C3370 C3371 1.376 . S
C3371 H3358 0.930 . S
C3371 C3370 1.376 . S
C3371 C3372 1.388 . S
C3372 H3359 0.930 . S
C3372 C3371 1.388 . S
C3372 C3373 1.390 . S
C3373 C3372 1.390 . S
C3373 C3374 1.394 . S
C3373 C3379 1.465 . S
C3374 C3369 1.399 . S
C3374 C3373 1.394 . S
C3374 C3375 1.516 . S
C3375 C3374 1.516 . S
C3375 C3376 1.502 . S
C3375 C3377 1.561 . S
C3375 C3378 1.526 . S
C3376 H3360 0.959 . S
C3376 H3361 0.959 . S
C3376 H3362 0.961 . S
C3376 C3375 1.502 . S
C3377 H3363 0.960 . S
C3377 H3364 0.961 . S
C3377 H3365 0.959 . S
C3377 C3375 1.561 . S
C3378 C3375 1.526 . S
C3378 C3379 1.396 . S
C3378 C3383 1.390 . S
C3379 C3373 1.465 . S
C3379 C3378 1.396 . S
C3379 C3380 1.399 . S
C3380 H3366 0.929 . S
C3380 C3379 1.399 . S
C3380 C3381 1.385 . S
C3381 H3367 0.931 1_545 S
C3381 C3380 1.385 . S
C3381 C3382 1.390 1_545 S
C3382 C3381 1.390 1_565 S
C3382 C3383 1.387 1_565 S
C3383 H3368 0.930 . S
C3383 C3378 1.390 . S
C3383 C3382 1.387 1_545 S
H3384 C3396 0.930 . S
H3385 C3398 0.930 . S
H3386 C3399 0.930 . S
H3387 C3403 0.959 . S
H3388 C3403 0.959 . S
H3389 C3403 0.961 . S
H3390 C3404 0.960 . S
H3391 C3404 0.961 . S
H3392 C3404 0.959 . S
H3393 C3407 0.929 . S
H3394 C3408 0.931 . S
H3395 C3410 0.930 . S
C3396 H3384 0.930 . S
C3396 C3397 1.399 . S
C3396 C3401 1.399 . S
C3397 C3396 1.399 . S
C3397 C3398 1.376 . S
C3398 H3385 0.930 . S
C3398 C3397 1.376 . S
C3398 C3399 1.388 . S
C3399 H3386 0.930 . S
C3399 C3398 1.388 . S
C3399 C3400 1.390 . S
C3400 C3399 1.390 . S
C3400 C3401 1.394 . S
C3400 C3406 1.465 . S
C3401 C3396 1.399 . S
C3401 C3400 1.394 . S
C3401 C3402 1.516 . S
C3402 C3401 1.516 . S
C3402 C3403 1.502 . S
C3402 C3404 1.561 . S
C3402 C3405 1.526 . S
C3403 H3387 0.959 . S
C3403 H3388 0.959 . S
C3403 H3389 0.961 . S
C3403 C3402 1.502 . S
C3404 H3390 0.960 . S
C3404 H3391 0.961 . S
C3404 H3392 0.959 . S
C3404 C3402 1.561 . S
C3405 C3402 1.526 . S
C3405 C3406 1.396 . S
C3405 C3410 1.390 . S
C3406 C3400 1.465 . S
C3406 C3405 1.396 . S
C3406 C3407 1.399 . S
C3407 H3393 0.929 . S
C3407 C3406 1.399 . S
C3407 C3408 1.385 . S
C3408 H3394 0.931 . S
C3408 C3407 1.385 . S
C3408 C3409 1.389 . S
C3409 C3408 1.389 . S
C3409 C3410 1.387 . S
C3410 H3395 0.930 . S
C3410 C3405 1.390 . S
C3410 C3409 1.387 . S
H3411 C3423 0.930 . S
H3412 C3425 0.930 . S
H3413 C3426 0.930 . S
H3414 C3430 0.959 . S
H3415 C3430 0.959 . S
H3416 C3430 0.961 . S
H3417 C3431 0.960 . S
H3418 C3431 0.961 . S
H3419 C3431 0.959 . S
H3420 C3434 0.929 . S
H3421 C3435 0.931 . S
H3422 C3437 0.930 . S
C3423 H3411 0.930 . S
C3423 C3424 1.399 . S
C3423 C3428 1.399 . S
C3424 C3423 1.399 . S
C3424 C3425 1.376 . S
C3425 H3412 0.930 . S
C3425 C3424 1.376 . S
C3425 C3426 1.388 . S
C3426 H3413 0.930 . S
C3426 C3425 1.388 . S
C3426 C3427 1.390 . S
C3427 C3426 1.390 . S
C3427 C3428 1.394 . S
C3427 C3433 1.465 . S
C3428 C3423 1.399 . S
C3428 C3427 1.394 . S
C3428 C3429 1.516 . S
C3429 C3428 1.516 . S
C3429 C3430 1.502 . S
C3429 C3431 1.561 . S
C3429 C3432 1.526 . S
C3430 H3414 0.959 . S
C3430 H3415 0.959 . S
C3430 H3416 0.961 . S
C3430 C3429 1.502 . S
C3431 H3417 0.960 . S
C3431 H3418 0.961 . S
C3431 H3419 0.959 . S
C3431 C3429 1.561 . S
C3432 C3429 1.526 . S
C3432 C3433 1.396 . S
C3432 C3437 1.390 . S
C3433 C3427 1.465 . S
C3433 C3432 1.396 . S
C3433 C3434 1.399 . S
C3434 H3420 0.929 . S
C3434 C3433 1.399 . S
C3434 C3435 1.385 . S
C3435 H3421 0.931 . S
C3435 C3434 1.385 . S
C3435 C3436 1.389 . S
C3436 C3435 1.389 . S
C3436 C3437 1.387 . S
C3437 H3422 0.930 . S
C3437 C3432 1.390 . S
C3437 C3436 1.387 . S
H3438 C3450 0.930 . S
H3439 C3452 0.930 . S
H3440 C3453 0.930 . S
H3441 C3457 0.959 . S
H3442 C3457 0.959 . S
H3443 C3457 0.961 . S
H3444 C3458 0.960 . S
H3445 C3458 0.961 . S
H3446 C3458 0.959 . S
H3447 C3461 0.929 . S
H3448 C3462 0.931 . S
H3449 C3464 0.930 . S
C3450 H3438 0.930 . S
C3450 C3451 1.399 . S
C3450 C3455 1.399 . S
C3451 C3450 1.399 . S
C3451 C3452 1.376 . S
C3452 H3439 0.930 . S
C3452 C3451 1.376 . S
C3452 C3453 1.388 . S
C3453 H3440 0.930 . S
C3453 C3452 1.388 . S
C3453 C3454 1.390 . S
C3454 C3453 1.390 . S
C3454 C3455 1.394 . S
C3454 C3460 1.465 . S
C3455 C3450 1.399 . S
C3455 C3454 1.394 . S
C3455 C3456 1.516 . S
C3456 C3455 1.516 . S
C3456 C3457 1.502 . S
C3456 C3458 1.561 . S
C3456 C3459 1.526 . S
C3457 H3441 0.959 . S
C3457 H3442 0.959 . S
C3457 H3443 0.961 . S
C3457 C3456 1.502 . S
C3458 H3444 0.960 . S
C3458 H3445 0.961 . S
C3458 H3446 0.959 . S
C3458 C3456 1.561 . S
C3459 C3456 1.526 . S
C3459 C3460 1.396 . S
C3459 C3464 1.390 . S
C3460 C3454 1.465 . S
C3460 C3459 1.396 . S
C3460 C3461 1.399 . S
C3461 H3447 0.929 . S
C3461 C3460 1.399 . S
C3461 C3462 1.385 . S
C3462 H3448 0.931 . S
C3462 C3461 1.385 . S
C3462 C3463 1.389 . S
C3463 C3462 1.389 . S
C3463 C3464 1.387 . S
C3464 H3449 0.930 . S
C3464 C3459 1.390 . S
C3464 C3463 1.387 . S
H3465 C3477 0.930 . S
H3466 C3479 0.930 . S
H3467 C3480 0.930 . S
H3468 C3484 0.959 . S
H3469 C3484 0.959 . S
H3470 C3484 0.961 . S
H3471 C3485 0.960 . S
H3472 C3485 0.961 . S
H3473 C3485 0.959 . S
H3474 C3488 0.929 . S
H3475 C3489 0.931 . S
H3476 C3491 0.930 . S
C3477 H3465 0.930 . S
C3477 C3478 1.399 . S
C3477 C3482 1.399 . S
C3478 C3477 1.399 . S
C3478 C3479 1.376 . S
C3479 H3466 0.930 . S
C3479 C3478 1.376 . S
C3479 C3480 1.388 . S
C3480 H3467 0.930 . S
C3480 C3479 1.388 . S
C3480 C3481 1.390 . S
C3481 C3480 1.390 . S
C3481 C3482 1.394 . S
C3481 C3487 1.465 . S
C3482 C3477 1.399 . S
C3482 C3481 1.394 . S
C3482 C3483 1.516 . S
C3483 C3482 1.516 . S
C3483 C3484 1.502 . S
C3483 C3485 1.561 . S
C3483 C3486 1.526 . S
C3484 H3468 0.959 . S
C3484 H3469 0.959 . S
C3484 H3470 0.961 . S
C3484 C3483 1.502 . S
C3485 H3471 0.960 . S
C3485 H3472 0.961 . S
C3485 H3473 0.959 . S
C3485 C3483 1.561 . S
C3486 C3483 1.526 . S
C3486 C3487 1.396 . S
C3486 C3491 1.390 . S
C3487 C3481 1.465 . S
C3487 C3486 1.396 . S
C3487 C3488 1.399 . S
C3488 H3474 0.929 . S
C3488 C3487 1.399 . S
C3488 C3489 1.385 . S
C3489 H3475 0.931 . S
C3489 C3488 1.385 . S
C3489 C3490 1.389 . S
C3490 C3489 1.389 . S
C3490 C3491 1.387 . S
C3491 H3476 0.930 . S
C3491 C3486 1.390 . S
C3491 C3490 1.387 . S
H3492 C3504 0.930 . S
H3493 C3506 0.930 . S
H3494 C3507 0.930 . S
H3495 C3511 0.959 . S
H3496 C3511 0.959 . S
H3497 C3511 0.961 . S
H3498 C3512 0.960 1_565 S
H3499 C3512 0.961 1_565 S
H3500 C3512 0.959 . S
H3501 C3515 0.929 . S
H3502 C3516 0.931 . S
H3503 C3518 0.930 . S
C3504 H3492 0.930 . S
C3504 C3505 1.399 . S
C3504 C3509 1.399 . S
C3505 C3504 1.399 . S
C3505 C3506 1.376 . S
C3506 H3493 0.930 . S
C3506 C3505 1.376 . S
C3506 C3507 1.388 . S
C3507 H3494 0.930 . S
C3507 C3506 1.388 . S
C3507 C3508 1.390 . S
C3508 C3507 1.390 . S
C3508 C3509 1.394 . S
C3508 C3514 1.465 . S
C3509 C3504 1.399 . S
C3509 C3508 1.394 . S
C3509 C3510 1.516 . S
C3510 C3509 1.516 . S
C3510 C3511 1.502 . S
C3510 C3512 1.561 . S
C3510 C3513 1.526 . S
C3511 H3495 0.959 . S
C3511 H3496 0.959 . S
C3511 H3497 0.961 . S
C3511 C3510 1.502 . S
C3512 H3498 0.960 1_545 S
C3512 H3499 0.961 1_545 S
C3512 H3500 0.959 . S
C3512 C3510 1.561 . S
C3513 C3510 1.526 . S
C3513 C3514 1.396 . S
C3513 C3518 1.390 . S
C3514 C3508 1.465 . S
C3514 C3513 1.396 . S
C3514 C3515 1.399 . S
C3515 H3501 0.929 . S
C3515 C3514 1.399 . S
C3515 C3516 1.385 . S
C3516 H3502 0.931 . S
C3516 C3515 1.385 . S
C3516 C3517 1.389 . S
C3517 C3516 1.389 . S
C3517 C3518 1.387 . S
C3518 H3503 0.930 . S
C3518 C3513 1.390 . S
C3518 C3517 1.387 . S
H3519 C3531 0.930 . S
H3520 C3533 0.930 . S
H3521 C3534 0.930 . S
H3522 C3538 0.959 . S
H3523 C3538 0.959 . S
H3524 C3538 0.961 . S
H3525 C3539 0.960 . S
H3526 C3539 0.961 . S
H3527 C3539 0.959 . S
H3528 C3542 0.929 . S
H3529 C3543 0.931 . S
H3530 C3545 0.930 . S
C3531 H3519 0.930 . S
C3531 C3532 1.399 . S
C3531 C3536 1.399 . S
C3532 C3531 1.399 . S
C3532 C3533 1.376 . S
C3533 H3520 0.930 . S
C3533 C3532 1.376 . S
C3533 C3534 1.388 . S
C3534 H3521 0.930 . S
C3534 C3533 1.388 . S
C3534 C3535 1.390 . S
C3535 C3534 1.390 . S
C3535 C3536 1.394 . S
C3535 C3541 1.465 . S
C3536 C3531 1.399 . S
C3536 C3535 1.394 . S
C3536 C3537 1.516 . S
C3537 C3536 1.516 . S
C3537 C3538 1.502 . S
C3537 C3539 1.561 . S
C3537 C3540 1.526 . S
C3538 H3522 0.959 . S
C3538 H3523 0.959 . S
C3538 H3524 0.961 . S
C3538 C3537 1.502 . S
C3539 H3525 0.960 . S
C3539 H3526 0.961 . S
C3539 H3527 0.959 . S
C3539 C3537 1.561 . S
C3540 C3537 1.526 . S
C3540 C3541 1.396 . S
C3540 C3545 1.390 . S
C3541 C3535 1.465 . S
C3541 C3540 1.396 . S
C3541 C3542 1.399 . S
C3542 H3528 0.929 . S
C3542 C3541 1.399 . S
C3542 C3543 1.385 . S
C3543 H3529 0.931 . S
C3543 C3542 1.385 . S
C3543 C3544 1.389 . S
C3544 C3543 1.389 . S
C3544 C3545 1.387 . S
C3545 H3530 0.930 . S
C3545 C3540 1.390 . S
C3545 C3544 1.387 . S
H3546 C3558 0.930 . S
H3547 C3560 0.930 . S
H3548 C3561 0.930 . S
H3549 C3565 0.959 . S
H3550 C3565 0.959 . S
H3551 C3565 0.961 . S
H3552 C3566 0.960 . S
H3553 C3566 0.961 . S
H3554 C3566 0.959 . S
H3555 C3569 0.929 . S
H3556 C3570 0.931 . S
H3557 C3572 0.930 . S
C3558 H3546 0.930 . S
C3558 C3559 1.399 . S
C3558 C3563 1.399 . S
C3559 C3558 1.399 . S
C3559 C3560 1.376 . S
C3560 H3547 0.930 . S
C3560 C3559 1.376 . S
C3560 C3561 1.388 . S
C3561 H3548 0.930 . S
C3561 C3560 1.388 . S
C3561 C3562 1.390 . S
C3562 C3561 1.390 . S
C3562 C3563 1.394 . S
C3562 C3568 1.465 . S
C3563 C3558 1.399 . S
C3563 C3562 1.394 . S
C3563 C3564 1.516 . S
C3564 C3563 1.516 . S
C3564 C3565 1.502 . S
C3564 C3566 1.561 . S
C3564 C3567 1.526 . S
C3565 H3549 0.959 . S
C3565 H3550 0.959 . S
C3565 H3551 0.961 . S
C3565 C3564 1.502 . S
C3566 H3552 0.960 . S
C3566 H3553 0.961 . S
C3566 H3554 0.959 . S
C3566 C3564 1.561 . S
C3567 C3564 1.526 . S
C3567 C3568 1.396 . S
C3567 C3572 1.390 . S
C3568 C3562 1.465 . S
C3568 C3567 1.396 . S
C3568 C3569 1.399 . S
C3569 H3555 0.929 . S
C3569 C3568 1.399 . S
C3569 C3570 1.385 . S
C3570 H3556 0.931 . S
C3570 C3569 1.385 . S
C3570 C3571 1.389 . S
C3571 C3570 1.389 . S
C3571 C3572 1.387 . S
C3572 H3557 0.930 . S
C3572 C3567 1.390 . S
C3572 C3571 1.387 . S
H3573 C3585 0.930 . S
H3574 C3587 0.930 . S
H3575 C3588 0.930 . S
H3576 C3592 0.959 . S
H3577 C3592 0.959 . S
H3578 C3592 0.961 . S
H3579 C3593 0.960 1_565 S
H3580 C3593 0.961 1_565 S
H3581 C3593 0.959 . S
H3582 C3596 0.929 . S
H3583 C3597 0.931 . S
H3584 C3599 0.930 . S
C3585 H3573 0.930 . S
C3585 C3586 1.399 . S
C3585 C3590 1.399 . S
C3586 C3585 1.399 . S
C3586 C3587 1.376 . S
C3587 H3574 0.930 . S
C3587 C3586 1.376 . S
C3587 C3588 1.388 . S
C3588 H3575 0.930 . S
C3588 C3587 1.388 . S
C3588 C3589 1.390 . S
C3589 C3588 1.390 . S
C3589 C3590 1.394 . S
C3589 C3595 1.465 . S
C3590 C3585 1.399 . S
C3590 C3589 1.394 . S
C3590 C3591 1.516 . S
C3591 C3590 1.516 . S
C3591 C3592 1.502 . S
C3591 C3593 1.561 . S
C3591 C3594 1.526 . S
C3592 H3576 0.959 . S
C3592 H3577 0.959 . S
C3592 H3578 0.961 . S
C3592 C3591 1.502 . S
C3593 H3579 0.960 1_545 S
C3593 H3580 0.961 1_545 S
C3593 H3581 0.959 . S
C3593 C3591 1.561 . S
C3594 C3591 1.526 . S
C3594 C3595 1.396 . S
C3594 C3599 1.390 . S
C3595 C3589 1.465 . S
C3595 C3594 1.396 . S
C3595 C3596 1.399 . S
C3596 H3582 0.929 . S
C3596 C3595 1.399 . S
C3596 C3597 1.385 . S
C3597 H3583 0.931 . S
C3597 C3596 1.385 . S
C3597 C3598 1.389 . S
C3598 C3597 1.389 . S
C3598 C3599 1.387 . S
C3599 H3584 0.930 . S
C3599 C3594 1.390 . S
C3599 C3598 1.387 . S
H3600 C3612 0.930 . S
H3601 C3614 0.930 . S
H3602 C3615 0.930 . S
H3603 C3619 0.959 . S
H3604 C3619 0.959 . S
H3605 C3619 0.961 . S
H3606 C3620 0.960 . S
H3607 C3620 0.961 . S
H3608 C3620 0.959 . S
H3609 C3623 0.929 . S
H3610 C3624 0.931 . S
H3611 C3626 0.930 . S
C3612 H3600 0.930 . S
C3612 C3613 1.399 . S
C3612 C3617 1.399 . S
C3613 C3612 1.399 . S
C3613 C3614 1.376 . S
C3614 H3601 0.930 . S
C3614 C3613 1.376 . S
C3614 C3615 1.388 . S
C3615 H3602 0.930 . S
C3615 C3614 1.388 . S
C3615 C3616 1.390 . S
C3616 C3615 1.390 . S
C3616 C3617 1.394 . S
C3616 C3622 1.465 . S
C3617 C3612 1.399 . S
C3617 C3616 1.394 . S
C3617 C3618 1.516 . S
C3618 C3617 1.516 . S
C3618 C3619 1.502 . S
C3618 C3620 1.561 . S
C3618 C3621 1.526 . S
C3619 H3603 0.959 . S
C3619 H3604 0.959 . S
C3619 H3605 0.961 . S
C3619 C3618 1.502 . S
C3620 H3606 0.960 . S
C3620 H3607 0.961 . S
C3620 H3608 0.959 . S
C3620 C3618 1.561 . S
C3621 C3618 1.526 . S
C3621 C3622 1.396 . S
C3621 C3626 1.390 . S
C3622 C3616 1.465 . S
C3622 C3621 1.396 . S
C3622 C3623 1.399 . S
C3623 H3609 0.929 . S
C3623 C3622 1.399 . S
C3623 C3624 1.385 . S
C3624 H3610 0.931 . S
C3624 C3623 1.385 . S
C3624 C3625 1.389 . S
C3625 C3624 1.389 . S
C3625 C3626 1.387 . S
C3626 H3611 0.930 . S
C3626 C3621 1.390 . S
C3626 C3625 1.387 . S
H3627 C3639 0.930 . S
H3628 C3641 0.930 . S
H3629 C3642 0.930 . S
H3630 C3646 0.959 . S
H3631 C3646 0.959 . S
H3632 C3646 0.961 . S
H3633 C3647 0.960 . S
H3634 C3647 0.961 . S
H3635 C3647 0.959 . S
H3636 C3650 0.929 . S
H3637 C3651 0.931 . S
H3638 C3653 0.930 . S
C3639 H3627 0.930 . S
C3639 C3640 1.399 . S
C3639 C3644 1.399 . S
C3640 C3639 1.399 . S
C3640 C3641 1.376 . S
C3641 H3628 0.930 . S
C3641 C3640 1.376 . S
C3641 C3642 1.388 . S
C3642 H3629 0.930 . S
C3642 C3641 1.388 . S
C3642 C3643 1.390 . S
C3643 C3642 1.390 . S
C3643 C3644 1.394 . S
C3643 C3649 1.465 . S
C3644 C3639 1.399 . S
C3644 C3643 1.394 . S
C3644 C3645 1.516 . S
C3645 C3644 1.516 . S
C3645 C3646 1.502 . S
C3645 C3647 1.561 . S
C3645 C3648 1.526 . S
C3646 H3630 0.959 . S
C3646 H3631 0.959 . S
C3646 H3632 0.961 . S
C3646 C3645 1.502 . S
C3647 H3633 0.960 . S
C3647 H3634 0.961 . S
C3647 H3635 0.959 . S
C3647 C3645 1.561 . S
C3648 C3645 1.526 . S
C3648 C3649 1.396 . S
C3648 C3653 1.390 . S
C3649 C3643 1.465 . S
C3649 C3648 1.396 . S
C3649 C3650 1.399 . S
C3650 H3636 0.929 . S
C3650 C3649 1.399 . S
C3650 C3651 1.385 . S
C3651 H3637 0.931 . S
C3651 C3650 1.385 . S
C3651 C3652 1.389 . S
C3652 C3651 1.389 . S
C3652 C3653 1.387 . S
C3653 H3638 0.930 . S
C3653 C3648 1.390 . S
C3653 C3652 1.387 . S
H3654 C3666 0.930 . S
H3655 C3668 0.930 . S
H3656 C3669 0.930 . S
H3657 C3673 0.959 . S
H3658 C3673 0.959 . S
H3659 C3673 0.961 . S
H3660 C3674 0.960 1_545 S
H3661 C3674 0.961 1_545 S
H3662 C3674 0.959 . S
H3663 C3677 0.929 . S
H3664 C3678 0.931 . S
H3665 C3680 0.930 . S
C3666 H3654 0.930 . S
C3666 C3667 1.399 . S
C3666 C3671 1.399 . S
C3667 C3666 1.399 . S
C3667 C3668 1.376 . S
C3668 H3655 0.930 . S
C3668 C3667 1.376 . S
C3668 C3669 1.388 . S
C3669 H3656 0.930 . S
C3669 C3668 1.388 . S
C3669 C3670 1.390 . S
C3670 C3669 1.390 . S
C3670 C3671 1.394 . S
C3670 C3676 1.465 . S
C3671 C3666 1.399 . S
C3671 C3670 1.394 . S
C3671 C3672 1.516 . S
C3672 C3671 1.516 . S
C3672 C3673 1.502 . S
C3672 C3674 1.561 . S
C3672 C3675 1.526 . S
C3673 H3657 0.959 . S
C3673 H3658 0.959 . S
C3673 H3659 0.961 . S
C3673 C3672 1.502 . S
C3674 H3660 0.960 1_565 S
C3674 H3661 0.961 1_565 S
C3674 H3662 0.959 . S
C3674 C3672 1.561 . S
C3675 C3672 1.526 . S
C3675 C3676 1.396 . S
C3675 C3680 1.390 . S
C3676 C3670 1.465 . S
C3676 C3675 1.396 . S
C3676 C3677 1.399 . S
C3677 H3663 0.929 . S
C3677 C3676 1.399 . S
C3677 C3678 1.385 . S
C3678 H3664 0.931 . S
C3678 C3677 1.385 . S
C3678 C3679 1.389 . S
C3679 C3678 1.389 . S
C3679 C3680 1.387 . S
C3680 H3665 0.930 . S
C3680 C3675 1.390 . S
C3680 C3679 1.387 . S
H3681 C3693 0.930 . S
H3682 C3695 0.930 . S
H3683 C3696 0.930 . S
H3684 C3700 0.959 . S
H3685 C3700 0.959 . S
H3686 C3700 0.961 . S
H3687 C3701 0.960 . S
H3688 C3701 0.961 . S
H3689 C3701 0.959 . S
H3690 C3704 0.929 . S
H3691 C3705 0.931 . S
H3692 C3707 0.930 . S
C3693 H3681 0.930 . S
C3693 C3694 1.399 . S
C3693 C3698 1.399 . S
C3694 C3693 1.399 . S
C3694 C3695 1.376 . S
C3695 H3682 0.930 . S
C3695 C3694 1.376 . S
C3695 C3696 1.388 . S
C3696 H3683 0.930 . S
C3696 C3695 1.388 . S
C3696 C3697 1.390 . S
C3697 C3696 1.390 . S
C3697 C3698 1.394 . S
C3697 C3703 1.465 . S
C3698 C3693 1.399 . S
C3698 C3697 1.394 . S
C3698 C3699 1.516 . S
C3699 C3698 1.516 . S
C3699 C3700 1.502 . S
C3699 C3701 1.561 . S
C3699 C3702 1.526 . S
C3700 H3684 0.959 . S
C3700 H3685 0.959 . S
C3700 H3686 0.961 . S
C3700 C3699 1.502 . S
C3701 H3687 0.960 . S
C3701 H3688 0.961 . S
C3701 H3689 0.959 . S
C3701 C3699 1.561 . S
C3702 C3699 1.526 . S
C3702 C3703 1.396 . S
C3702 C3707 1.390 . S
C3703 C3697 1.465 . S
C3703 C3702 1.396 . S
C3703 C3704 1.399 . S
C3704 H3690 0.929 . S
C3704 C3703 1.399 . S
C3704 C3705 1.385 . S
C3705 H3691 0.931 . S
C3705 C3704 1.385 . S
C3705 C3706 1.389 . S
C3706 C3705 1.389 . S
C3706 C3707 1.387 . S
C3707 H3692 0.930 . S
C3707 C3702 1.390 . S
C3707 C3706 1.387 . S
H3708 C3720 0.930 . S
H3709 C3722 0.930 . S
H3710 C3723 0.930 . S
H3711 C3727 0.959 . S
H3712 C3727 0.959 . S
H3713 C3727 0.961 . S
H3714 C3728 0.960 . S
H3715 C3728 0.961 . S
H3716 C3728 0.959 1_455 S
H3717 C3731 0.929 . S
H3718 C3732 0.931 . S
H3719 C3734 0.930 . S
C3720 H3708 0.930 . S
C3720 C3721 1.399 1_655 S
C3720 C3725 1.399 . S
C3721 C3720 1.399 1_455 S
C3721 C3722 1.376 . S
C3722 H3709 0.930 . S
C3722 C3721 1.376 . S
C3722 C3723 1.388 . S
C3723 H3710 0.930 . S
C3723 C3722 1.388 . S
C3723 C3724 1.390 . S
C3724 C3723 1.390 . S
C3724 C3725 1.394 1_455 S
C3724 C3730 1.465 . S
C3725 C3720 1.399 . S
C3725 C3724 1.394 1_655 S
C3725 C3726 1.516 . S
C3726 C3725 1.516 . S
C3726 C3727 1.502 . S
C3726 C3728 1.561 . S
C3726 C3729 1.526 . S
C3727 H3711 0.959 . S
C3727 H3712 0.959 . S
C3727 H3713 0.961 . S
C3727 C3726 1.502 . S
C3728 H3714 0.960 . S
C3728 H3715 0.961 . S
C3728 H3716 0.959 1_655 S
C3728 C3726 1.561 . S
C3729 C3726 1.526 . S
C3729 C3730 1.396 1_655 S
C3729 C3734 1.390 . S
C3730 C3724 1.465 . S
C3730 C3729 1.396 1_455 S
C3730 C3731 1.399 . S
C3731 H3717 0.929 . S
C3731 C3730 1.399 . S
C3731 C3732 1.385 . S
C3732 H3718 0.931 . S
C3732 C3731 1.385 . S
C3732 C3733 1.389 . S
C3733 C3732 1.389 . S
C3733 C3734 1.387 1_455 S
C3734 H3719 0.930 . S
C3734 C3729 1.390 . S
C3734 C3733 1.387 1_655 S
H3735 C3747 0.930 . S
H3736 C3749 0.930 . S
H3737 C3750 0.930 . S
H3738 C3754 0.959 . S
H3739 C3754 0.959 . S
H3740 C3754 0.961 . S
H3741 C3755 0.960 . S
H3742 C3755 0.961 . S
H3743 C3755 0.959 . S
H3744 C3758 0.929 . S
H3745 C3759 0.931 . S
H3746 C3761 0.930 . S
C3747 H3735 0.930 . S
C3747 C3748 1.399 . S
C3747 C3752 1.399 . S
C3748 C3747 1.399 . S
C3748 C3749 1.376 . S
C3749 H3736 0.930 . S
C3749 C3748 1.376 . S
C3749 C3750 1.388 . S
C3750 H3737 0.930 . S
C3750 C3749 1.388 . S
C3750 C3751 1.390 . S
C3751 C3750 1.390 . S
C3751 C3752 1.394 . S
C3751 C3757 1.465 . S
C3752 C3747 1.399 . S
C3752 C3751 1.394 . S
C3752 C3753 1.516 . S
C3753 C3752 1.516 . S
C3753 C3754 1.502 . S
C3753 C3755 1.561 . S
C3753 C3756 1.526 . S
C3754 H3738 0.959 . S
C3754 H3739 0.959 . S
C3754 H3740 0.961 . S
C3754 C3753 1.502 . S
C3755 H3741 0.960 . S
C3755 H3742 0.961 . S
C3755 H3743 0.959 . S
C3755 C3753 1.561 . S
C3756 C3753 1.526 . S
C3756 C3757 1.396 . S
C3756 C3761 1.390 . S
C3757 C3751 1.465 . S
C3757 C3756 1.396 . S
C3757 C3758 1.399 . S
C3758 H3744 0.929 . S
C3758 C3757 1.399 . S
C3758 C3759 1.385 . S
C3759 H3745 0.931 . S
C3759 C3758 1.385 . S
C3759 C3760 1.389 . S
C3760 C3759 1.389 . S
C3760 C3761 1.387 . S
C3761 H3746 0.930 . S
C3761 C3756 1.390 . S
C3761 C3760 1.387 . S
H3762 C3774 0.930 . S
H3763 C3776 0.930 . S
H3764 C3777 0.930 . S
H3765 C3781 0.959 . S
H3766 C3781 0.959 . S
H3767 C3781 0.961 . S
H3768 C3782 0.960 . S
H3769 C3782 0.961 . S
H3770 C3782 0.959 . S
H3771 C3785 0.929 . S
H3772 C3786 0.931 . S
H3773 C3788 0.930 . S
C3774 H3762 0.930 . S
C3774 C3775 1.400 1_545 S
C3774 C3779 1.399 . S
C3775 C3774 1.400 1_565 S
C3775 C3776 1.376 . S
C3776 H3763 0.930 . S
C3776 C3775 1.376 . S
C3776 C3777 1.388 . S
C3777 H3764 0.930 . S
C3777 C3776 1.388 . S
C3777 C3778 1.390 . S
C3778 C3777 1.390 . S
C3778 C3779 1.394 1_565 S
C3778 C3784 1.465 . S
C3779 C3774 1.399 . S
C3779 C3778 1.394 1_545 S
C3779 C3780 1.516 . S
C3780 C3779 1.516 . S
C3780 C3781 1.502 . S
C3780 C3782 1.561 . S
C3780 C3783 1.526 . S
C3781 H3765 0.959 . S
C3781 H3766 0.959 . S
C3781 H3767 0.961 . S
C3781 C3780 1.502 . S
C3782 H3768 0.960 . S
C3782 H3769 0.961 . S
C3782 H3770 0.959 . S
C3782 C3780 1.561 . S
C3783 C3780 1.526 . S
C3783 C3784 1.396 1_545 S
C3783 C3788 1.390 . S
C3784 C3778 1.465 . S
C3784 C3783 1.396 1_565 S
C3784 C3785 1.399 . S
C3785 H3771 0.929 . S
C3785 C3784 1.399 . S
C3785 C3786 1.385 . S
C3786 H3772 0.931 . S
C3786 C3785 1.385 . S
C3786 C3787 1.389 . S
C3787 C3786 1.389 . S
C3787 C3788 1.387 1_565 S
C3788 H3773 0.930 . S
C3788 C3783 1.390 . S
C3788 C3787 1.387 1_545 S
H3789 C3801 0.930 . S
H3790 C3803 0.930 . S
H3791 C3804 0.930 . S
H3792 C3808 0.959 . S
H3793 C3808 0.959 . S
H3794 C3808 0.961 . S
H3795 C3809 0.960 . S
H3796 C3809 0.961 . S
H3797 C3809 0.959 . S
H3798 C3812 0.929 . S
H3799 C3813 0.931 . S
H3800 C3815 0.930 . S
C3801 H3789 0.930 . S
C3801 C3802 1.399 . S
C3801 C3806 1.399 . S
C3802 C3801 1.399 . S
C3802 C3803 1.376 1_545 S
C3803 H3790 0.930 . S
C3803 C3802 1.376 1_565 S
C3803 C3804 1.388 . S
C3804 H3791 0.930 . S
C3804 C3803 1.388 . S
C3804 C3805 1.390 . S
C3805 C3804 1.390 . S
C3805 C3806 1.394 1_565 S
C3805 C3811 1.465 . S
C3806 C3801 1.399 . S
C3806 C3805 1.394 1_545 S
C3806 C3807 1.516 . S
C3807 C3806 1.516 . S
C3807 C3808 1.502 . S
C3807 C3809 1.561 . S
C3807 C3810 1.526 . S
C3808 H3792 0.959 . S
C3808 H3793 0.959 . S
C3808 H3794 0.961 . S
C3808 C3807 1.502 . S
C3809 H3795 0.960 . S
C3809 H3796 0.961 . S
C3809 H3797 0.959 . S
C3809 C3807 1.561 . S
C3810 C3807 1.526 . S
C3810 C3811 1.396 1_545 S
C3810 C3815 1.390 . S
C3811 C3805 1.465 . S
C3811 C3810 1.396 1_565 S
C3811 C3812 1.399 . S
C3812 H3798 0.929 . S
C3812 C3811 1.399 . S
C3812 C3813 1.385 . S
C3813 H3799 0.931 . S
C3813 C3812 1.385 . S
C3813 C3814 1.389 . S
C3814 C3813 1.389 . S
C3814 C3815 1.387 1_565 S
C3815 H3800 0.930 . S
C3815 C3810 1.390 . S
C3815 C3814 1.387 1_545 S
H3816 C3828 0.930 . S
H3817 C3830 0.934 1_655 S
H3818 C3831 0.930 . S
H3819 C3835 0.959 . S
H3820 C3835 0.959 . S
H3821 C3835 0.961 . S
H3822 C3836 0.960 . S
H3823 C3836 0.961 . S
H3824 C3836 0.959 . S
H3825 C3839 0.929 . S
H3826 C3840 0.931 . S
H3827 C3842 0.924 . S
C3828 H3816 0.930 . S
C3828 C3829 1.399 . S
C3828 C3833 1.399 . S
C3829 C3828 1.399 . S
C3829 C3830 1.372 . S
C3830 H3817 0.934 1_455 S
C3830 C3829 1.372 . S
C3830 C3831 1.389 1_455 S
C3831 H3818 0.930 . S
C3831 C3830 1.389 1_655 S
C3831 C3832 1.390 . S
C3832 C3831 1.390 . S
C3832 C3833 1.394 1_655 S
C3832 C3838 1.465 . S
C3833 C3828 1.399 . S
C3833 C3832 1.394 1_455 S
C3833 C3834 1.516 . S
C3834 C3833 1.516 . S
C3834 C3835 1.502 1_455 S
C3834 C3836 1.561 . S
C3834 C3837 1.526 . S
C3835 H3819 0.959 . S
C3835 H3820 0.959 . S
C3835 H3821 0.961 . S
C3835 C3834 1.502 1_655 S
C3836 H3822 0.960 . S
C3836 H3823 0.961 . S
C3836 H3824 0.959 . S
C3836 C3834 1.561 . S
C3837 C3834 1.526 . S
C3837 C3838 1.395 1_455 S
C3837 C3842 1.390 1_455 S
C3838 C3832 1.465 . S
C3838 C3837 1.395 1_655 S
C3838 C3839 1.399 . S
C3839 H3825 0.929 . S
C3839 C3838 1.399 . S
C3839 C3840 1.385 . S
C3840 H3826 0.931 . S
C3840 C3839 1.385 . S
C3840 C3841 1.389 . S
C3841 C3840 1.389 . S
C3841 C3842 1.387 . S
C3842 H3827 0.924 . S
C3842 C3837 1.390 1_655 S
C3842 C3841 1.387 . S
H3843 C3855 0.930 . S
H3844 C3857 0.930 . S
H3845 C3858 0.930 . S
H3846 C3862 0.959 . S
H3847 C3862 0.959 . S
H3848 C3862 0.961 . S
H3849 C3863 0.960 . S
H3850 C3863 0.961 . S
H3851 C3863 0.959 . S
H3852 C3866 0.929 . S
H3853 C3867 0.931 . S
H3854 C3869 0.930 . S
C3855 H3843 0.930 . S
C3855 C3856 1.399 . S
C3855 C3860 1.399 . S
C3856 C3855 1.399 . S
C3856 C3857 1.376 . S
C3857 H3844 0.930 . S
C3857 C3856 1.376 . S
C3857 C3858 1.388 . S
C3858 H3845 0.930 . S
C3858 C3857 1.388 . S
C3858 C3859 1.390 . S
C3859 C3858 1.390 . S
C3859 C3860 1.394 . S
C3859 C3865 1.465 . S
C3860 C3855 1.399 . S
C3860 C3859 1.394 . S
C3860 C3861 1.516 . S
C3861 C3860 1.516 . S
C3861 C3862 1.502 . S
C3861 C3863 1.561 . S
C3861 C3864 1.526 . S
C3862 H3846 0.959 . S
C3862 H3847 0.959 . S
C3862 H3848 0.961 . S
C3862 C3861 1.502 . S
C3863 H3849 0.960 . S
C3863 H3850 0.961 . S
C3863 H3851 0.959 . S
C3863 C3861 1.561 . S
C3864 C3861 1.526 . S
C3864 C3865 1.396 . S
C3864 C3869 1.390 . S
C3865 C3859 1.465 . S
C3865 C3864 1.396 . S
C3865 C3866 1.399 . S
C3866 H3852 0.929 . S
C3866 C3865 1.399 . S
C3866 C3867 1.385 . S
C3867 H3853 0.931 . S
C3867 C3866 1.385 . S
C3867 C3868 1.389 . S
C3868 C3867 1.389 . S
C3868 C3869 1.387 . S
C3869 H3854 0.930 . S
C3869 C3864 1.390 . S
C3869 C3868 1.387 . S
H3870 C3882 0.930 . S
H3871 C3884 0.930 . S
H3872 C3885 0.930 . S
H3873 C3889 0.959 . S
H3874 C3889 0.959 . S
H3875 C3889 0.961 . S
H3876 C3890 0.960 . S
H3877 C3890 0.961 . S
H3878 C3890 0.959 . S
H3879 C3893 0.929 . S
H3880 C3894 0.931 . S
H3881 C3896 0.930 . S
C3882 H3870 0.930 . S
C3882 C3883 1.399 . S
C3882 C3887 1.399 . S
C3883 C3882 1.399 . S
C3883 C3884 1.376 . S
C3884 H3871 0.930 . S
C3884 C3883 1.376 . S
C3884 C3885 1.388 . S
C3885 H3872 0.930 . S
C3885 C3884 1.388 . S
C3885 C3886 1.390 . S
C3886 C3885 1.390 . S
C3886 C3887 1.394 . S
C3886 C3892 1.465 1_655 S
C3887 C3882 1.399 . S
C3887 C3886 1.394 . S
C3887 C3888 1.516 . S
C3888 C3887 1.516 . S
C3888 C3889 1.502 1_655 S
C3888 C3890 1.561 . S
C3888 C3891 1.526 1_655 S
C3889 H3873 0.959 . S
C3889 H3874 0.959 . S
C3889 H3875 0.961 . S
C3889 C3888 1.502 1_455 S
C3890 H3876 0.960 . S
C3890 H3877 0.961 . S
C3890 H3878 0.959 . S
C3890 C3888 1.561 . S
C3891 C3888 1.526 1_455 S
C3891 C3892 1.396 . S
C3891 C3896 1.390 . S
C3892 C3886 1.465 1_455 S
C3892 C3891 1.396 . S
C3892 C3893 1.399 . S
C3893 H3879 0.929 . S
C3893 C3892 1.399 . S
C3893 C3894 1.385 . S
C3894 H3880 0.931 . S
C3894 C3893 1.385 . S
C3894 C3895 1.389 . S
C3895 C3894 1.389 . S
C3895 C3896 1.387 . S
C3896 H3881 0.930 . S
C3896 C3891 1.390 . S
C3896 C3895 1.387 . S
H3897 C3909 0.930 . S
H3898 C3911 0.930 . S
H3899 C3912 0.930 . S
H3900 C3916 0.959 . S
H3901 C3916 0.959 . S
H3902 C3916 0.961 . S
H3903 C3917 0.960 . S
H3904 C3917 0.961 . S
H3905 C3917 0.959 . S
H3906 C3920 0.929 . S
H3907 C3921 0.931 . S
H3908 C3923 0.930 . S
C3909 H3897 0.930 . S
C3909 C3910 1.399 . S
C3909 C3914 1.399 . S
C3910 C3909 1.399 . S
C3910 C3911 1.376 . S
C3911 H3898 0.930 . S
C3911 C3910 1.376 . S
C3911 C3912 1.388 . S
C3912 H3899 0.930 . S
C3912 C3911 1.388 . S
C3912 C3913 1.390 . S
C3913 C3912 1.390 . S
C3913 C3914 1.394 . S
C3913 C3919 1.465 . S
C3914 C3909 1.399 . S
C3914 C3913 1.394 . S
C3914 C3915 1.516 . S
C3915 C3914 1.516 . S
C3915 C3916 1.502 . S
C3915 C3917 1.561 . S
C3915 C3918 1.526 . S
C3916 H3900 0.959 . S
C3916 H3901 0.959 . S
C3916 H3902 0.961 . S
C3916 C3915 1.502 . S
C3917 H3903 0.960 . S
C3917 H3904 0.961 . S
C3917 H3905 0.959 . S
C3917 C3915 1.561 . S
C3918 C3915 1.526 . S
C3918 C3919 1.396 . S
C3918 C3923 1.390 . S
C3919 C3913 1.465 . S
C3919 C3918 1.396 . S
C3919 C3920 1.399 . S
C3920 H3906 0.929 . S
C3920 C3919 1.399 . S
C3920 C3921 1.385 . S
C3921 H3907 0.931 . S
C3921 C3920 1.385 . S
C3921 C3922 1.389 . S
C3922 C3921 1.389 . S
C3922 C3923 1.387 . S
C3923 H3908 0.930 . S
C3923 C3918 1.390 . S
C3923 C3922 1.387 . S
H3924 C3936 0.930 1_565 S
H3925 C3938 0.930 . S
H3926 C3939 0.930 . S
H3927 C3943 0.959 . S
H3928 C3943 0.959 . S
H3929 C3943 0.961 . S
H3930 C3944 0.960 . S
H3931 C3944 0.961 . S
H3932 C3944 0.959 . S
H3933 C3947 0.929 . S
H3934 C3948 0.931 . S
H3935 C3950 0.930 . S
C3936 H3924 0.930 1_545 S
C3936 C3937 1.399 . S
C3936 C3941 1.399 1_545 S
C3937 C3936 1.399 . S
C3937 C3938 1.376 . S
C3938 H3925 0.930 . S
C3938 C3937 1.376 . S
C3938 C3939 1.388 . S
C3939 H3926 0.930 . S
C3939 C3938 1.388 . S
C3939 C3940 1.390 . S
C3940 C3939 1.390 . S
C3940 C3941 1.394 1_545 S
C3940 C3946 1.465 . S
C3941 C3936 1.399 1_565 S
C3941 C3940 1.394 1_565 S
C3941 C3942 1.516 . S
C3942 C3941 1.516 . S
C3942 C3943 1.502 . S
C3942 C3944 1.561 . S
C3942 C3945 1.526 . S
C3943 H3927 0.959 . S
C3943 H3928 0.959 . S
C3943 H3929 0.961 . S
C3943 C3942 1.502 . S
C3944 H3930 0.960 . S
C3944 H3931 0.961 . S
C3944 H3932 0.959 . S
C3944 C3942 1.561 . S
C3945 C3942 1.526 . S
C3945 C3946 1.396 1_565 S
C3945 C3950 1.390 . S
C3946 C3940 1.465 . S
C3946 C3945 1.396 1_545 S
C3946 C3947 1.399 . S
C3947 H3933 0.929 . S
C3947 C3946 1.399 . S
C3947 C3948 1.385 . S
C3948 H3934 0.931 . S
C3948 C3947 1.385 . S
C3948 C3949 1.389 1_545 S
C3949 C3948 1.389 1_565 S
C3949 C3950 1.387 . S
C3950 H3935 0.930 . S
C3950 C3945 1.390 . S
C3950 C3949 1.387 . S
H3951 C3963 0.930 . S
H3952 C3965 0.930 . S
H3953 C3966 0.930 . S
H3954 C3970 0.959 . S
H3955 C3970 0.959 . S
H3956 C3970 0.961 1_655 S
H3957 C3971 0.960 . S
H3958 C3971 0.961 . S
H3959 C3971 0.959 . S
H3960 C3974 0.929 . S
H3961 C3975 0.931 . S
H3962 C3977 0.930 . S
C3963 H3951 0.930 . S
C3963 C3964 1.399 . S
C3963 C3968 1.399 . S
C3964 C3963 1.399 . S
C3964 C3965 1.376 . S
C3965 H3952 0.930 . S
C3965 C3964 1.376 . S
C3965 C3966 1.388 . S
C3966 H3953 0.930 . S
C3966 C3965 1.388 . S
C3966 C3967 1.390 . S
C3967 C3966 1.390 . S
C3967 C3968 1.394 . S
C3967 C3973 1.465 1_655 S
C3968 C3963 1.399 . S
C3968 C3967 1.394 . S
C3968 C3969 1.516 . S
C3969 C3968 1.516 . S
C3969 C3970 1.502 1_655 S
C3969 C3971 1.561 . S
C3969 C3972 1.526 1_655 S
C3970 H3954 0.959 . S
C3970 H3955 0.959 . S
C3970 H3956 0.961 1_455 S
C3970 C3969 1.502 1_455 S
C3971 H3957 0.960 . S
C3971 H3958 0.961 . S
C3971 H3959 0.959 . S
C3971 C3969 1.561 . S
C3972 C3969 1.526 1_455 S
C3972 C3973 1.396 . S
C3972 C3977 1.390 . S
C3973 C3967 1.465 1_455 S
C3973 C3972 1.396 . S
C3973 C3974 1.399 . S
C3974 H3960 0.929 . S
C3974 C3973 1.399 . S
C3974 C3975 1.385 . S
C3975 H3961 0.931 . S
C3975 C3974 1.385 . S
C3975 C3976 1.389 . S
C3976 C3975 1.389 . S
C3976 C3977 1.387 . S
C3977 H3962 0.930 . S
C3977 C3972 1.390 . S
C3977 C3976 1.387 . S
H3978 C3990 0.930 . S
H3979 C3992 0.930 . S
H3980 C3993 0.930 . S
H3981 C3997 0.959 . S
H3982 C3997 0.959 . S
H3983 C3997 0.961 . S
H3984 C3998 0.960 . S
H3985 C3998 0.961 . S
H3986 C3998 0.959 . S
H3987 C4001 0.929 . S
H3988 C4002 0.931 . S
H3989 C4004 0.930 . S
C3990 H3978 0.930 . S
C3990 C3991 1.399 . S
C3990 C3995 1.399 . S
C3991 C3990 1.399 . S
C3991 C3992 1.376 . S
C3992 H3979 0.930 . S
C3992 C3991 1.376 . S
C3992 C3993 1.388 . S
C3993 H3980 0.930 . S
C3993 C3992 1.388 . S
C3993 C3994 1.390 . S
C3994 C3993 1.390 . S
C3994 C3995 1.394 . S
C3994 C4000 1.465 . S
C3995 C3990 1.399 . S
C3995 C3994 1.394 . S
C3995 C3996 1.516 . S
C3996 C3995 1.516 . S
C3996 C3997 1.502 . S
C3996 C3998 1.561 . S
C3996 C3999 1.526 . S
C3997 H3981 0.959 . S
C3997 H3982 0.959 . S
C3997 H3983 0.961 . S
C3997 C3996 1.502 . S
C3998 H3984 0.960 . S
C3998 H3985 0.961 . S
C3998 H3986 0.959 . S
C3998 C3996 1.561 . S
C3999 C3996 1.526 . S
C3999 C4000 1.396 . S
C3999 C4004 1.390 . S
C4000 C3994 1.465 . S
C4000 C3999 1.396 . S
C4000 C4001 1.399 . S
C4001 H3987 0.929 . S
C4001 C4000 1.399 . S
C4001 C4002 1.385 . S
C4002 H3988 0.931 . S
C4002 C4001 1.385 . S
C4002 C4003 1.389 . S
C4003 C4002 1.389 . S
C4003 C4004 1.387 . S
C4004 H3989 0.930 . S
C4004 C3999 1.390 . S
C4004 C4003 1.387 . S
H4005 C4017 0.930 . S
H4006 C4019 0.930 1_565 S
H4007 C4020 0.930 . S
H4008 C4024 0.959 . S
H4009 C4024 0.959 . S
H4010 C4024 0.961 . S
H4011 C4025 0.960 . S
H4012 C4025 0.961 . S
H4013 C4025 0.959 . S
H4014 C4028 0.929 . S
H4015 C4029 0.931 . S
H4016 C4031 0.930 1_545 S
C4017 H4005 0.930 . S
C4017 C4018 1.399 . S
C4017 C4022 1.399 . S
C4018 C4017 1.399 . S
C4018 C4019 1.376 . S
C4019 H4006 0.930 1_545 S
C4019 C4018 1.376 . S
C4019 C4020 1.388 1_545 S
C4020 H4007 0.930 . S
C4020 C4019 1.388 1_565 S
C4020 C4021 1.390 . S
C4021 C4020 1.390 . S
C4021 C4022 1.394 1_565 S
C4021 C4027 1.465 . S
C4022 C4017 1.399 . S
C4022 C4021 1.394 1_545 S
C4022 C4023 1.516 . S
C4023 C4022 1.516 . S
C4023 C4024 1.502 . S
C4023 C4025 1.561 . S
C4023 C4026 1.526 . S
C4024 H4008 0.959 . S
C4024 H4009 0.959 . S
C4024 H4010 0.961 . S
C4024 C4023 1.502 . S
C4025 H4011 0.960 . S
C4025 H4012 0.961 . S
C4025 H4013 0.959 . S
C4025 C4023 1.561 . S
C4026 C4023 1.526 . S
C4026 C4027 1.396 1_545 S
C4026 C4031 1.390 1_545 S
C4027 C4021 1.465 . S
C4027 C4026 1.396 1_565 S
C4027 C4028 1.399 . S
C4028 H4014 0.929 . S
C4028 C4027 1.399 . S
C4028 C4029 1.385 . S
C4029 H4015 0.931 . S
C4029 C4028 1.385 . S
C4029 C4030 1.389 . S
C4030 C4029 1.389 . S
C4030 C4031 1.387 . S
C4031 H4016 0.930 1_565 S
C4031 C4026 1.390 1_565 S
C4031 C4030 1.387 . S
H4032 C4044 0.930 . S
H4033 C4046 0.930 . S
H4034 C4047 0.930 . S
H4035 C4051 0.959 . S
H4036 C4051 0.959 . S
H4037 C4051 0.961 . S
H4038 C4052 0.960 . S
H4039 C4052 0.961 . S
H4040 C4052 0.959 . S
H4041 C4055 0.929 . S
H4042 C4056 0.931 . S
H4043 C4058 0.930 . S
C4044 H4032 0.930 . S
C4044 C4045 1.399 . S
C4044 C4049 1.399 . S
C4045 C4044 1.399 . S
C4045 C4046 1.376 . S
C4046 H4033 0.930 . S
C4046 C4045 1.376 . S
C4046 C4047 1.388 . S
C4047 H4034 0.930 . S
C4047 C4046 1.388 . S
C4047 C4048 1.390 . S
C4048 C4047 1.390 . S
C4048 C4049 1.394 . S
C4048 C4054 1.465 . S
C4049 C4044 1.399 . S
C4049 C4048 1.394 . S
C4049 C4050 1.516 . S
C4050 C4049 1.516 . S
C4050 C4051 1.502 . S
C4050 C4052 1.561 . S
C4050 C4053 1.526 . S
C4051 H4035 0.959 . S
C4051 H4036 0.959 . S
C4051 H4037 0.961 . S
C4051 C4050 1.502 . S
C4052 H4038 0.960 . S
C4052 H4039 0.961 . S
C4052 H4040 0.959 . S
C4052 C4050 1.561 . S
C4053 C4050 1.526 . S
C4053 C4054 1.396 . S
C4053 C4058 1.390 . S
C4054 C4048 1.465 . S
C4054 C4053 1.396 . S
C4054 C4055 1.399 . S
C4055 H4041 0.929 . S
C4055 C4054 1.399 . S
C4055 C4056 1.385 . S
C4056 H4042 0.931 . S
C4056 C4055 1.385 . S
C4056 C4057 1.389 . S
C4057 C4056 1.389 . S
C4057 C4058 1.387 . S
C4058 H4043 0.930 . S
C4058 C4053 1.390 . S
C4058 C4057 1.387 . S
H4059 C4071 0.930 . S
H4060 C4073 0.930 . S
H4061 C4074 0.930 . S
H4062 C4078 0.959 . S
H4063 C4078 0.959 . S
H4064 C4078 0.961 . S
H4065 C4079 0.960 . S
H4066 C4079 0.961 . S
H4067 C4079 0.959 . S
H4068 C4082 0.929 . S
H4069 C4083 0.931 . S
H4070 C4085 0.930 . S
C4071 H4059 0.930 . S
C4071 C4072 1.399 . S
C4071 C4076 1.399 . S
C4072 C4071 1.399 . S
C4072 C4073 1.376 . S
C4073 H4060 0.930 . S
C4073 C4072 1.376 . S
C4073 C4074 1.388 . S
C4074 H4061 0.930 . S
C4074 C4073 1.388 . S
C4074 C4075 1.390 . S
C4075 C4074 1.390 . S
C4075 C4076 1.394 . S
C4075 C4081 1.465 . S
C4076 C4071 1.399 . S
C4076 C4075 1.394 . S
C4076 C4077 1.516 . S
C4077 C4076 1.516 . S
C4077 C4078 1.502 . S
C4077 C4079 1.561 . S
C4077 C4080 1.526 . S
C4078 H4062 0.959 . S
C4078 H4063 0.959 . S
C4078 H4064 0.961 . S
C4078 C4077 1.502 . S
C4079 H4065 0.960 . S
C4079 H4066 0.961 . S
C4079 H4067 0.959 . S
C4079 C4077 1.561 . S
C4080 C4077 1.526 . S
C4080 C4081 1.396 . S
C4080 C4085 1.390 . S
C4081 C4075 1.465 . S
C4081 C4080 1.396 . S
C4081 C4082 1.399 . S
C4082 H4068 0.929 . S
C4082 C4081 1.399 . S
C4082 C4083 1.385 . S
C4083 H4069 0.931 . S
C4083 C4082 1.385 . S
C4083 C4084 1.389 . S
C4084 C4083 1.389 . S
C4084 C4085 1.387 . S
C4085 H4070 0.930 . S
C4085 C4080 1.390 . S
C4085 C4084 1.387 . S
H4086 C4098 0.930 . S
H4087 C4100 0.930 . S
H4088 C4101 0.930 . S
H4089 C4105 0.959 . S
H4090 C4105 0.959 . S
H4091 C4105 0.961 . S
H4092 C4106 0.960 . S
H4093 C4106 0.961 . S
H4094 C4106 0.959 . S
H4095 C4109 0.929 . S
H4096 C4110 0.931 . S
H4097 C4112 0.930 . S
C4098 H4086 0.930 . S
C4098 C4099 1.399 . S
C4098 C4103 1.399 . S
C4099 C4098 1.399 . S
C4099 C4100 1.376 . S
C4100 H4087 0.930 . S
C4100 C4099 1.376 . S
C4100 C4101 1.388 . S
C4101 H4088 0.930 . S
C4101 C4100 1.388 . S
C4101 C4102 1.390 . S
C4102 C4101 1.390 . S
C4102 C4103 1.394 . S
C4102 C4108 1.465 . S
C4103 C4098 1.399 . S
C4103 C4102 1.394 . S
C4103 C4104 1.516 . S
C4104 C4103 1.516 . S
C4104 C4105 1.502 . S
C4104 C4106 1.561 . S
C4104 C4107 1.526 . S
C4105 H4089 0.959 . S
C4105 H4090 0.959 . S
C4105 H4091 0.961 . S
C4105 C4104 1.502 . S
C4106 H4092 0.960 . S
C4106 H4093 0.961 . S
C4106 H4094 0.959 . S
C4106 C4104 1.561 . S
C4107 C4104 1.526 . S
C4107 C4108 1.396 . S
C4107 C4112 1.390 . S
C4108 C4102 1.465 . S
C4108 C4107 1.396 . S
C4108 C4109 1.399 . S
C4109 H4095 0.929 . S
C4109 C4108 1.399 . S
C4109 C4110 1.385 . S
C4110 H4096 0.931 . S
C4110 C4109 1.385 . S
C4110 C4111 1.389 . S
C4111 C4110 1.389 . S
C4111 C4112 1.387 . S
C4112 H4097 0.930 . S
C4112 C4107 1.390 . S
C4112 C4111 1.387 . S
H4113 C4125 0.930 . S
H4114 C4127 0.930 . S
H4115 C4128 0.930 . S
H4116 C4132 0.959 . S
H4117 C4132 0.959 . S
H4118 C4132 0.961 . S
H4119 C4133 0.960 . S
H4120 C4133 0.961 . S
H4121 C4133 0.959 . S
H4122 C4136 0.929 . S
H4123 C4137 0.931 . S
H4124 C4139 0.930 . S
C4125 H4113 0.930 . S
C4125 C4126 1.399 . S
C4125 C4130 1.399 . S
C4126 C4125 1.399 . S
C4126 C4127 1.376 . S
C4127 H4114 0.930 . S
C4127 C4126 1.376 . S
C4127 C4128 1.388 . S
C4128 H4115 0.930 . S
C4128 C4127 1.388 . S
C4128 C4129 1.390 . S
C4129 C4128 1.390 . S
C4129 C4130 1.394 . S
C4129 C4135 1.465 . S
C4130 C4125 1.399 . S
C4130 C4129 1.394 . S
C4130 C4131 1.516 . S
C4131 C4130 1.516 . S
C4131 C4132 1.502 . S
C4131 C4133 1.561 . S
C4131 C4134 1.526 . S
C4132 H4116 0.959 . S
C4132 H4117 0.959 . S
C4132 H4118 0.961 . S
C4132 C4131 1.502 . S
C4133 H4119 0.960 . S
C4133 H4120 0.961 . S
C4133 H4121 0.959 . S
C4133 C4131 1.561 . S
C4134 C4131 1.526 . S
C4134 C4135 1.396 . S
C4134 C4139 1.390 . S
C4135 C4129 1.465 . S
C4135 C4134 1.396 . S
C4135 C4136 1.399 . S
C4136 H4122 0.929 . S
C4136 C4135 1.399 . S
C4136 C4137 1.385 . S
C4137 H4123 0.931 . S
C4137 C4136 1.385 . S
C4137 C4138 1.389 . S
C4138 C4137 1.389 . S
C4138 C4139 1.387 . S
C4139 H4124 0.930 . S
C4139 C4134 1.390 . S
C4139 C4138 1.387 . S
H4140 C4152 0.930 . S
H4141 C4154 0.930 . S
H4142 C4155 0.930 . S
H4143 C4159 0.959 . S
H4144 C4159 0.959 . S
H4145 C4159 0.961 . S
H4146 C4160 0.960 . S
H4147 C4160 0.961 . S
H4148 C4160 0.959 . S
H4149 C4163 0.929 . S
H4150 C4164 0.931 . S
H4151 C4166 0.930 . S
C4152 H4140 0.930 . S
C4152 C4153 1.399 . S
C4152 C4157 1.399 . S
C4153 C4152 1.399 . S
C4153 C4154 1.376 . S
C4154 H4141 0.930 . S
C4154 C4153 1.376 . S
C4154 C4155 1.388 . S
C4155 H4142 0.930 . S
C4155 C4154 1.388 . S
C4155 C4156 1.390 . S
C4156 C4155 1.390 . S
C4156 C4157 1.394 . S
C4156 C4162 1.465 . S
C4157 C4152 1.399 . S
C4157 C4156 1.394 . S
C4157 C4158 1.516 . S
C4158 C4157 1.516 . S
C4158 C4159 1.502 . S
C4158 C4160 1.561 . S
C4158 C4161 1.526 . S
C4159 H4143 0.959 . S
C4159 H4144 0.959 . S
C4159 H4145 0.961 . S
C4159 C4158 1.502 . S
C4160 H4146 0.960 . S
C4160 H4147 0.961 . S
C4160 H4148 0.959 . S
C4160 C4158 1.561 . S
C4161 C4158 1.526 . S
C4161 C4162 1.396 . S
C4161 C4166 1.390 . S
C4162 C4156 1.465 . S
C4162 C4161 1.396 . S
C4162 C4163 1.399 . S
C4163 H4149 0.929 . S
C4163 C4162 1.399 . S
C4163 C4164 1.385 . S
C4164 H4150 0.931 . S
C4164 C4163 1.385 . S
C4164 C4165 1.389 . S
C4165 C4164 1.389 . S
C4165 C4166 1.387 . S
C4166 H4151 0.930 . S
C4166 C4161 1.390 . S
C4166 C4165 1.387 . S
H4167 C4179 0.930 . S
H4168 C4181 0.930 . S
H4169 C4182 0.930 . S
H4170 C4186 0.959 . S
H4171 C4186 0.959 . S
H4172 C4186 0.961 . S
H4173 C4187 0.960 . S
H4174 C4187 0.961 . S
H4175 C4187 0.959 . S
H4176 C4190 0.929 . S
H4177 C4191 0.931 . S
H4178 C4193 0.930 . S
C4179 H4167 0.930 . S
C4179 C4180 1.399 . S
C4179 C4184 1.399 . S
C4180 C4179 1.399 . S
C4180 C4181 1.376 . S
C4181 H4168 0.930 . S
C4181 C4180 1.376 . S
C4181 C4182 1.388 . S
C4182 H4169 0.930 . S
C4182 C4181 1.388 . S
C4182 C4183 1.390 . S
C4183 C4182 1.390 . S
C4183 C4184 1.394 . S
C4183 C4189 1.465 . S
C4184 C4179 1.399 . S
C4184 C4183 1.394 . S
C4184 C4185 1.516 . S
C4185 C4184 1.516 . S
C4185 C4186 1.502 . S
C4185 C4187 1.561 . S
C4185 C4188 1.526 . S
C4186 H4170 0.959 . S
C4186 H4171 0.959 . S
C4186 H4172 0.961 . S
C4186 C4185 1.502 . S
C4187 H4173 0.960 . S
C4187 H4174 0.961 . S
C4187 H4175 0.959 . S
C4187 C4185 1.561 . S
C4188 C4185 1.526 . S
C4188 C4189 1.396 . S
C4188 C4193 1.390 . S
C4189 C4183 1.465 . S
C4189 C4188 1.396 . S
C4189 C4190 1.399 . S
C4190 H4176 0.929 . S
C4190 C4189 1.399 . S
C4190 C4191 1.385 . S
C4191 H4177 0.931 . S
C4191 C4190 1.385 . S
C4191 C4192 1.389 . S
C4192 C4191 1.389 . S
C4192 C4193 1.387 . S
C4193 H4178 0.930 . S
C4193 C4188 1.390 . S
C4193 C4192 1.387 . S
H4194 C4206 0.930 . S
H4195 C4208 0.930 . S
H4196 C4209 0.930 . S
H4197 C4213 0.959 . S
H4198 C4213 0.959 . S
H4199 C4213 0.961 . S
H4200 C4214 0.960 . S
H4201 C4214 0.961 . S
H4202 C4214 0.959 . S
H4203 C4217 0.929 . S
H4204 C4218 0.931 . S
H4205 C4220 0.930 . S
C4206 H4194 0.930 . S
C4206 C4207 1.399 . S
C4206 C4211 1.399 . S
C4207 C4206 1.399 . S
C4207 C4208 1.376 . S
C4208 H4195 0.930 . S
C4208 C4207 1.376 . S
C4208 C4209 1.388 . S
C4209 H4196 0.930 . S
C4209 C4208 1.388 . S
C4209 C4210 1.390 . S
C4210 C4209 1.390 . S
C4210 C4211 1.394 . S
C4210 C4216 1.465 . S
C4211 C4206 1.399 . S
C4211 C4210 1.394 . S
C4211 C4212 1.516 . S
C4212 C4211 1.516 . S
C4212 C4213 1.502 . S
C4212 C4214 1.561 . S
C4212 C4215 1.526 . S
C4213 H4197 0.959 . S
C4213 H4198 0.959 . S
C4213 H4199 0.961 . S
C4213 C4212 1.502 . S
C4214 H4200 0.960 . S
C4214 H4201 0.961 . S
C4214 H4202 0.959 . S
C4214 C4212 1.561 . S
C4215 C4212 1.526 . S
C4215 C4216 1.396 . S
C4215 C4220 1.390 . S
C4216 C4210 1.465 . S
C4216 C4215 1.396 . S
C4216 C4217 1.399 . S
C4217 H4203 0.929 . S
C4217 C4216 1.399 . S
C4217 C4218 1.385 . S
C4218 H4204 0.931 . S
C4218 C4217 1.385 . S
C4218 C4219 1.389 . S
C4219 C4218 1.389 . S
C4219 C4220 1.387 . S
C4220 H4205 0.930 . S
C4220 C4215 1.390 . S
C4220 C4219 1.387 . S
H4221 C4233 0.930 . S
H4222 C4235 0.930 . S
H4223 C4236 0.930 . S
H4224 C4240 0.959 . S
H4225 C4240 0.959 . S
H4226 C4240 0.961 . S
H4227 C4241 0.960 . S
H4228 C4241 0.961 . S
H4229 C4241 0.959 . S
H4230 C4244 0.929 . S
H4231 C4245 0.931 . S
H4232 C4247 0.930 . S
C4233 H4221 0.930 . S
C4233 C4234 1.399 . S
C4233 C4238 1.399 . S
C4234 C4233 1.399 . S
C4234 C4235 1.376 . S
C4235 H4222 0.930 . S
C4235 C4234 1.376 . S
C4235 C4236 1.388 . S
C4236 H4223 0.930 . S
C4236 C4235 1.388 . S
C4236 C4237 1.390 . S
C4237 C4236 1.390 . S
C4237 C4238 1.394 . S
C4237 C4243 1.465 . S
C4238 C4233 1.399 . S
C4238 C4237 1.394 . S
C4238 C4239 1.516 . S
C4239 C4238 1.516 . S
C4239 C4240 1.502 . S
C4239 C4241 1.561 . S
C4239 C4242 1.526 . S
C4240 H4224 0.959 . S
C4240 H4225 0.959 . S
C4240 H4226 0.961 . S
C4240 C4239 1.502 . S
C4241 H4227 0.960 . S
C4241 H4228 0.961 . S
C4241 H4229 0.959 . S
C4241 C4239 1.561 . S
C4242 C4239 1.526 . S
C4242 C4243 1.396 . S
C4242 C4247 1.390 . S
C4243 C4237 1.465 . S
C4243 C4242 1.396 . S
C4243 C4244 1.399 . S
C4244 H4230 0.929 . S
C4244 C4243 1.399 . S
C4244 C4245 1.385 . S
C4245 H4231 0.931 . S
C4245 C4244 1.385 . S
C4245 C4246 1.389 . S
C4246 C4245 1.389 . S
C4246 C4247 1.387 . S
C4247 H4232 0.930 . S
C4247 C4242 1.390 . S
C4247 C4246 1.387 . S
H4248 C4260 0.930 . S
H4249 C4262 0.930 . S
H4250 C4263 0.930 . S
H4251 C4267 0.959 . S
H4252 C4267 0.959 . S
H4253 C4267 0.961 . S
H4254 C4268 0.960 . S
H4255 C4268 0.961 . S
H4256 C4268 0.959 . S
H4257 C4271 0.929 . S
H4258 C4272 0.931 . S
H4259 C4274 0.930 . S
C4260 H4248 0.930 . S
C4260 C4261 1.399 . S
C4260 C4265 1.399 . S
C4261 C4260 1.399 . S
C4261 C4262 1.376 . S
C4262 H4249 0.930 . S
C4262 C4261 1.376 . S
C4262 C4263 1.388 . S
C4263 H4250 0.930 . S
C4263 C4262 1.388 . S
C4263 C4264 1.390 . S
C4264 C4263 1.390 . S
C4264 C4265 1.394 . S
C4264 C4270 1.465 . S
C4265 C4260 1.399 . S
C4265 C4264 1.394 . S
C4265 C4266 1.516 . S
C4266 C4265 1.516 . S
C4266 C4267 1.502 . S
C4266 C4268 1.561 . S
C4266 C4269 1.526 . S
C4267 H4251 0.959 . S
C4267 H4252 0.959 . S
C4267 H4253 0.961 . S
C4267 C4266 1.502 . S
C4268 H4254 0.960 . S
C4268 H4255 0.961 . S
C4268 H4256 0.959 . S
C4268 C4266 1.561 . S
C4269 C4266 1.526 . S
C4269 C4270 1.396 . S
C4269 C4274 1.390 . S
C4270 C4264 1.465 . S
C4270 C4269 1.396 . S
C4270 C4271 1.399 . S
C4271 H4257 0.929 . S
C4271 C4270 1.399 . S
C4271 C4272 1.385 . S
C4272 H4258 0.931 . S
C4272 C4271 1.385 . S
C4272 C4273 1.389 . S
C4273 C4272 1.389 . S
C4273 C4274 1.387 . S
C4274 H4259 0.930 . S
C4274 C4269 1.390 . S
C4274 C4273 1.387 . S
H4275 C4287 0.930 . S
H4276 C4289 0.930 . S
H4277 C4290 0.930 . S
H4278 C4294 0.959 . S
H4279 C4294 0.959 . S
H4280 C4294 0.961 . S
H4281 C4295 0.960 . S
H4282 C4295 0.961 . S
H4283 C4295 0.959 . S
H4284 C4298 0.929 . S
H4285 C4299 0.931 . S
H4286 C4301 0.930 . S
C4287 H4275 0.930 . S
C4287 C4288 1.399 . S
C4287 C4292 1.399 . S
C4288 C4287 1.399 . S
C4288 C4289 1.376 . S
C4289 H4276 0.930 . S
C4289 C4288 1.376 . S
C4289 C4290 1.388 . S
C4290 H4277 0.930 . S
C4290 C4289 1.388 . S
C4290 C4291 1.390 . S
C4291 C4290 1.390 . S
C4291 C4292 1.394 . S
C4291 C4297 1.465 . S
C4292 C4287 1.399 . S
C4292 C4291 1.394 . S
C4292 C4293 1.516 . S
C4293 C4292 1.516 . S
C4293 C4294 1.502 . S
C4293 C4295 1.561 . S
C4293 C4296 1.526 . S
C4294 H4278 0.959 . S
C4294 H4279 0.959 . S
C4294 H4280 0.961 . S
C4294 C4293 1.502 . S
C4295 H4281 0.960 . S
C4295 H4282 0.961 . S
C4295 H4283 0.959 . S
C4295 C4293 1.561 . S
C4296 C4293 1.526 . S
C4296 C4297 1.396 . S
C4296 C4301 1.390 . S
C4297 C4291 1.465 . S
C4297 C4296 1.396 . S
C4297 C4298 1.399 . S
C4298 H4284 0.929 . S
C4298 C4297 1.399 . S
C4298 C4299 1.385 . S
C4299 H4285 0.931 . S
C4299 C4298 1.385 . S
C4299 C4300 1.389 . S
C4300 C4299 1.389 . S
C4300 C4301 1.387 . S
C4301 H4286 0.930 . S
C4301 C4296 1.390 . S
C4301 C4300 1.387 . S
H4302 C4314 0.930 . S
H4303 C4316 0.930 . S
H4304 C4317 0.930 . S
H4305 C4321 0.959 . S
H4306 C4321 0.959 . S
H4307 C4321 0.961 . S
H4308 C4322 0.960 . S
H4309 C4322 0.961 . S
H4310 C4322 0.959 . S
H4311 C4325 0.929 . S
H4312 C4326 0.931 . S
H4313 C4328 0.930 . S
C4314 H4302 0.930 . S
C4314 C4315 1.399 . S
C4314 C4319 1.399 . S
C4315 C4314 1.399 . S
C4315 C4316 1.376 . S
C4316 H4303 0.930 . S
C4316 C4315 1.376 . S
C4316 C4317 1.388 . S
C4317 H4304 0.930 . S
C4317 C4316 1.388 . S
C4317 C4318 1.390 . S
C4318 C4317 1.390 . S
C4318 C4319 1.394 . S
C4318 C4324 1.465 . S
C4319 C4314 1.399 . S
C4319 C4318 1.394 . S
C4319 C4320 1.516 . S
C4320 C4319 1.516 . S
C4320 C4321 1.502 . S
C4320 C4322 1.561 . S
C4320 C4323 1.526 . S
C4321 H4305 0.959 . S
C4321 H4306 0.959 . S
C4321 H4307 0.961 . S
C4321 C4320 1.502 . S
C4322 H4308 0.960 . S
C4322 H4309 0.961 . S
C4322 H4310 0.959 . S
C4322 C4320 1.561 . S
C4323 C4320 1.526 . S
C4323 C4324 1.396 . S
C4323 C4328 1.390 . S
C4324 C4318 1.465 . S
C4324 C4323 1.396 . S
C4324 C4325 1.399 . S
C4325 H4311 0.929 . S
C4325 C4324 1.399 . S
C4325 C4326 1.385 . S
C4326 H4312 0.931 . S
C4326 C4325 1.385 . S
C4326 C4327 1.389 . S
C4327 C4326 1.389 . S
C4327 C4328 1.387 . S
C4328 H4313 0.930 . S
C4328 C4323 1.390 . S
C4328 C4327 1.387 . S
H4329 C4341 0.930 . S
H4330 C4343 0.930 . S
H4331 C4344 0.930 . S
H4332 C4348 0.959 . S
H4333 C4348 0.959 . S
H4334 C4348 0.961 . S
H4335 C4349 0.960 . S
H4336 C4349 0.961 . S
H4337 C4349 0.959 . S
H4338 C4352 0.929 . S
H4339 C4353 0.931 . S
H4340 C4355 0.930 . S
C4341 H4329 0.930 . S
C4341 C4342 1.399 . S
C4341 C4346 1.399 . S
C4342 C4341 1.399 . S
C4342 C4343 1.376 . S
C4343 H4330 0.930 . S
C4343 C4342 1.376 . S
C4343 C4344 1.388 . S
C4344 H4331 0.930 . S
C4344 C4343 1.388 . S
C4344 C4345 1.390 . S
C4345 C4344 1.390 . S
C4345 C4346 1.394 . S
C4345 C4351 1.465 . S
C4346 C4341 1.399 . S
C4346 C4345 1.394 . S
C4346 C4347 1.516 . S
C4347 C4346 1.516 . S
C4347 C4348 1.502 . S
C4347 C4349 1.561 . S
C4347 C4350 1.526 . S
C4348 H4332 0.959 . S
C4348 H4333 0.959 . S
C4348 H4334 0.961 . S
C4348 C4347 1.502 . S
C4349 H4335 0.960 . S
C4349 H4336 0.961 . S
C4349 H4337 0.959 . S
C4349 C4347 1.561 . S
C4350 C4347 1.526 . S
C4350 C4351 1.396 . S
C4350 C4355 1.390 . S
C4351 C4345 1.465 . S
C4351 C4350 1.396 . S
C4351 C4352 1.399 . S
C4352 H4338 0.929 . S
C4352 C4351 1.399 . S
C4352 C4353 1.385 . S
C4353 H4339 0.931 . S
C4353 C4352 1.385 . S
C4353 C4354 1.389 . S
C4354 C4353 1.389 . S
C4354 C4355 1.387 . S
C4355 H4340 0.930 . S
C4355 C4350 1.390 . S
C4355 C4354 1.387 . S
C1453 C9 1.676 . S
C1465 C99 1.769 . S
C1480 C19 1.804 . S
C1492 C49 1.727 1_545 S
C1507 C89 1.756 1_655 S
C1519 C59 1.800 . S
C1534 C129 1.766 . S
C1546 C179 1.839 . S
C1561 C219 1.879 . S
C1573 C169 1.804 1_565 S
C1588 C209 1.761 1_455 S
C1600 C139 1.857 . S
C1615 C258 1.712 . S
C1627 C330 1.807 . S
C1642 C298 1.725 1_565 S
C1654 C250 1.807 . S
C1669 C338 1.729 1_455 S
C1681 C290 1.807 . S
C1696 C378 1.782 . S
C1708 C410 1.839 . S
C1723 C450 1.851 . S
C1735 C418 1.756 1_545 S
C1750 C370 1.864 . S
C1762 C458 1.758 1_655 S
C1777 C579 1.869 . S
C1789 C489 1.792 . S
C1804 C529 1.819 . S
C1816 C499 1.868 . S
C1831 C539 1.872 . S
C1843 C569 1.808 . S
C1858 C609 1.774 . S
C1870 C659 1.867 . S
C1885 C699 1.898 . S
C1897 C649 1.823 . S
C1912 C619 1.859 . S
C1924 C689 1.799 . S
C1939 C738 1.737 . S
C1951 C810 1.796 . S
C1966 C778 1.753 . S
C1978 C730 1.841 . S
C1993 C770 1.812 . S
C2005 C818 1.712 . S
C2020 C890 1.694 . S
C2032 C858 1.622 . S
C2047 C898 1.654 1_554 S
C2059 C930 1.692 . S
C2074 C850 1.696 . S
C2086 C938 1.619 . S
C2101 C969 1.790 . S
C2113 C1059 1.835 . S
C2128 C1009 1.788 . S
C2140 C979 1.839 . S
C2155 C1049 1.714 . S
C2167 C1019 1.811 . S
C2182 C1089 1.629 . S
C2194 C1139 1.689 . S
C2209 C1129 1.615 . S
C2221 C1179 1.691 . S
C2236 C1169 1.611 1_556 S
C2248 C1099 1.698 . S
C2263 C1218 1.786 . S
C2275 C1290 1.829 . S
C2290 C1258 1.771 . S
C2302 C1210 1.828 . S
C2317 C1250 1.834 . S
C2329 C1298 1.803 . S
C2344 C1338 1.816 . S
C2356 C1370 1.859 . S
C2371 C1378 1.818 . S
C2383 C1410 1.859 . S
C2398 C1330 1.868 . S
C2410 C1418 1.776 . S
C2425 C10 1.812 . S
C2437 C809 1.791 . S
C2452 C729 1.782 . S
C2464 C50 1.812 . S
C2479 C90 1.779 . S
C2491 C769 1.749 . S
C2506 C130 1.692 . S
C2518 C1369 1.704 . S
C2533 C1409 1.637 . S
C2545 C170 1.684 . S
C2560 C210 1.692 . S
C2572 C1329 1.704 . S
C2587 C1058 1.803 . S
C2599 C259 1.792 . S
C2614 C299 1.813 . S
C2626 C978 1.771 . S
C2641 C339 1.812 . S
C2653 C1018 1.766 . S
C2668 C658 1.656 . S
C2680 C379 1.666 . S
C2695 C698 1.700 . S
C2707 C419 1.690 . S
C2722 C618 1.701 . S
C2734 C459 1.689 . S
C2749 C490 1.763 . S
C2761 C1289 1.733 . S
C2776 C530 1.725 . S
C2788 C1209 1.748 . S
C2803 C1249 1.737 . S
C2815 C570 1.765 . S
C2830 C409 1.701 . S
C2842 C610 1.749 . S
C2857 C449 1.690 . S
C2869 C650 1.742 . S
C2884 C369 1.725 . S
C2896 C690 1.703 . S
C2911 C98 1.777 . S
C2923 C739 1.754 . S
C2938 C779 1.839 . S
C2950 C18 1.761 . S
C2965 C819 1.754 . S
C2977 C58 1.790 . S
C2992 C1138 1.745 1_554 S
C3004 C859 1.747 . S
C3019 C1178 1.746 1_554 S
C3031 C899 1.747 . S
C3046 C939 1.721 . S
C3058 C1098 1.730 1_554 S
C3073 C329 1.746 . S
C3085 C970 1.763 . S
C3100 C249 1.768 . S
C3112 C1010 1.803 . S
C3127 C289 1.772 . S
C3139 C1050 1.805 . S
C3154 C1090 1.734 . S
C3166 C889 1.705 . S
C3181 C929 1.728 . S
C3193 C1130 1.781 . S
C3208 C1170 1.760 . S
C3220 C849 1.744 1_556 S
C3235 C1219 1.753 . S
C3247 C578 1.695 . S
C3262 C1259 1.722 . S
C3274 C498 1.702 . S
C3289 C1299 1.709 . S
C3301 C538 1.741 . S
C3316 C1339 1.753 1_655 S
C3328 C178 1.695 . S
C3343 C218 1.744 . S
C3355 C1379 1.713 . S
C3370 C138 1.678 . S
C3382 C1419 1.734 . S
C3397 C1166 2.281 . S
C3409 C6 2.294 . S
C3424 C1086 2.281 . S
C3436 C46 2.294 . S
C3451 C86 2.308 . S
C3463 C1126 2.263 . S
C3478 C526 2.509 . S
C3490 C126 2.511 . S
C3505 C166 2.507 . S
C3517 C566 2.513 . S
C3532 C206 2.523 . S
C3544 C486 2.506 . S
C3559 C255 2.268 . S
C3571 C935 2.281 . S
C3586 C295 2.302 . S
C3598 C855 2.249 . S
C3613 C335 2.292 . S
C3625 C895 2.288 . S
C3640 C1255 2.535 . S
C3652 C375 2.505 . S
C3667 C1295 2.518 . S
C3679 C415 2.511 . S
C3694 C1215 2.543 . S
C3706 C455 2.517 . S
C3721 C606 2.594 1_455 S
C3733 C1006 2.575 . S
C3748 C646 2.591 . S
C3760 C1046 2.593 . S
C3775 C686 2.573 1_565 S
C3787 C966 2.563 . S
C3802 C735 2.598 . S
C3814 C1415 2.570 . S
C3829 C1335 2.584 . S
C3841 C775 2.592 . S
C3856 C815 2.573 . S
C3868 C1375 2.565 . S
C3883 C175 1.128 . S
C3895 C15 1.131 . S
C3910 C215 1.154 . S
C3922 C55 1.153 . S
C3937 C135 1.147 . S
C3949 C95 1.148 . S
C3964 C246 1.162 . S
C3976 C406 1.163 . S
C3991 C446 1.128 . S
C4003 C286 1.130 . S
C4018 C326 1.162 . S
C4030 C366 1.155 . S
C4045 C655 1.213 . S
C4057 C495 1.215 . S
C4072 C695 1.239 . S
C4084 C535 1.237 . S
C4099 C615 1.244 . S
C4111 C575 1.242 . S
C4126 C886 1.490 . S
C4138 C726 1.506 . S
C4153 C766 1.505 . S
C4165 C926 1.487 . S
C4180 C806 1.493 . S
C4192 C846 1.489 . S
C4207 C975 1.512 . S
C4219 C1135 1.509 . S
C4234 C1175 1.480 . S
C4246 C1015 1.519 . S
C4261 C1055 1.502 . S
C4273 C1095 1.491 . S
C4288 C1206 1.215 . S
C4300 C1366 1.215 . S
C4315 C1406 1.219 . S
C4327 C1246 1.215 . S
C4342 C1286 1.219 . S
C4354 C1326 1.214 . S
