# Generated by pormake.
# Topology rac, (4)-cn, num edge types: 1
# Building blocks:
#     Node 0, Type 0, BuildingBlock: UXUYUI_clean_sbu_0, # of connection points: 4
#     Node 1, Type 0, BuildingBlock: UXUYUI_clean_sbu_0, # of connection points: 4
#     Node 2, Type 0, BuildingBlock: UXUYUI_clean_sbu_0, # of connection points: 4
#     Node 3, Type 0, BuildingBlock: UXUYUI_clean_sbu_0, # of connection points: 4
#     Node 4, Type 0, BuildingBlock: UXUYUI_clean_sbu_0, # of connection points: 4
#     Node 5, Type 0, BuildingBlock: UXUYUI_clean_sbu_0, # of connection points: 4
#     Node 6, Type 0, BuildingBlock: UXUYUI_clean_sbu_0, # of connection points: 4
#     Node 7, Type 0, BuildingBlock: UXUYUI_clean_sbu_0, # of connection points: 4
#     Edge 8, Type (0, 0), BuildingBlock: OJICUG_clean_linker_0, # of connection points: 2
#     Edge 9, Type (0, 0), BuildingBlock: OJICUG_clean_linker_0, # of connection points: 2
#     Edge 10, Type (0, 0), BuildingBlock: OJICUG_clean_linker_0, # of connection points: 2
#     Edge 11, Type (0, 0), BuildingBlock: OJICUG_clean_linker_0, # of connection points: 2
#     Edge 12, Type (0, 0), BuildingBlock: OJICUG_clean_linker_0, # of connection points: 2
#     Edge 13, Type (0, 0), BuildingBlock: OJICUG_clean_linker_0, # of connection points: 2
#     Edge 14, Type (0, 0), BuildingBlock: OJICUG_clean_linker_0, # of connection points: 2
#     Edge 15, Type (0, 0), BuildingBlock: OJICUG_clean_linker_0, # of connection points: 2
#     Edge 16, Type (0, 0), BuildingBlock: OJICUG_clean_linker_0, # of connection points: 2
#     Edge 17, Type (0, 0), BuildingBlock: OJICUG_clean_linker_0, # of connection points: 2
#     Edge 18, Type (0, 0), BuildingBlock: OJICUG_clean_linker_0, # of connection points: 2
#     Edge 19, Type (0, 0), BuildingBlock: OJICUG_clean_linker_0, # of connection points: 2
#     Edge 20, Type (0, 0), BuildingBlock: OJICUG_clean_linker_0, # of connection points: 2
#     Edge 21, Type (0, 0), BuildingBlock: OJICUG_clean_linker_0, # of connection points: 2
#     Edge 22, Type (0, 0), BuildingBlock: OJICUG_clean_linker_0, # of connection points: 2
#     Edge 23, Type (0, 0), BuildingBlock: OJICUG_clean_linker_0, # of connection points: 2
# Relax obj value: 0.361
# Max RMSD: 0.174
# Mean RMSD: 0.174
data_MOF--net-rac--node1-UXUYUI_clean_sbu_0--edge1-OJICUG_clean_linker_0
_symmetry_space_group_name_H-M    P1
_symmetry_Int_Tables_number       1
_symmetry_cell_setting            triclinic
loop_
_symmetry_equiv_pos_as_xyz
'x, y, z'
_cell_length_a     46.943442
_cell_length_b     24.132672
_cell_length_c     50.573531
_cell_angle_alpha  89.969468
_cell_angle_beta   89.99659
_cell_angle_gamma 89.95995
loop_
_atom_site_label
_atom_site_type_symbol
_atom_site_fract_x
_atom_site_fract_y
_atom_site_fract_z
_atom_type_partial_charge
Li0 Li 0.4125 0.27115 0.06075 0.0
Li1 Li 0.40275 0.23885 0.10636 0.0
Li2 Li 0.37519 0.19628 0.0673 0.0
Li3 Li 0.36685 0.29084 0.08179 0.0
C4 C 0.44519 0.17495 0.07326 0.0
N5 N 0.50068 0.13799 0.06869 0.0
C6 C 0.46671 0.19891 0.08849 0.0
C7 C 0.45182 0.13191 0.05583 0.0
C8 C 0.49465 0.17973 0.08587 0.0
C9 C 0.48002 0.1139 0.05376 0.0
C10 C 0.41494 0.35359 0.10986 0.0
C11 C 0.40968 0.40845 0.14945 0.0
N12 N 0.43595 0.43054 0.14532 0.0
C13 C 0.44182 0.37711 0.10595 0.0
C14 C 0.39867 0.36962 0.13172 0.0
C15 C 0.45208 0.41585 0.12412 0.0
C16 C 0.42565 0.3536 0.02488 0.0
N17 N 0.43885 0.31294 0.03898 0.0
C18 C 0.48418 0.35574 0.03105 0.0
C19 C 0.46772 0.31258 0.04171 0.0
C20 C 0.47084 0.39927 0.01723 0.0
C21 C 0.44127 0.39674 0.01352 0.0
H22 H 0.40267 0.35481 0.02394 0.0
H23 H 0.47788 0.28127 0.05364 0.0
C24 C 0.40014 0.195 0.15776 0.0
N25 N 0.41621 0.22812 0.14195 0.0
C26 C 0.40338 0.19686 0.18521 0.0
C27 C 0.4416 0.2627 0.17952 0.0
C28 C 0.43752 0.25975 0.15219 0.0
C29 C 0.42359 0.23274 0.19645 0.0
H30 H 0.38345 0.1699 0.14919 0.0
H31 H 0.45028 0.28548 0.13939 0.0
C32 C 0.37504 0.2524 0.0189 0.0
N33 N 0.3789 0.22766 0.9657 0.0
C34 C 0.35759 0.27968 1.00068 0.0
C35 C 0.39451 0.21268 0.01009 0.0
C36 C 0.35984 0.26654 0.97386 0.0
C37 C 0.39612 0.20072 0.98311 0.0
C38 C 0.33727 0.2261 0.117 0.0
C39 C 0.31216 0.20084 0.10829 0.0
C40 C 0.33733 0.25448 0.1411 0.0
C41 C 0.28748 0.20513 0.1236 0.0
C42 C 0.31223 0.25781 0.15586 0.0
N43 N 0.28802 0.23331 0.14687 0.0
C44 C 0.34855 0.0911 0.07388 0.0
C45 C 0.3324 0.14161 0.03666 0.0
C46 C 0.32515 0.05513 0.072 0.0
N47 N 0.3514 0.13426 0.05673 0.0
C48 C 0.30893 0.10635 0.0339 0.0
C49 C 0.30444 0.06349 0.05224 0.0
H50 H 0.3632 0.08717 0.09028 0.0
H51 H 0.33397 0.17731 0.02395 0.0
C52 C 0.34411 0.39734 0.08822 0.0
N53 N 0.33801 0.34334 0.08338 0.0
C54 C 0.32234 0.43637 0.08882 0.0
C55 C 0.28873 0.36356 0.07829 0.0
C56 C 0.31119 0.32613 0.0777 0.0
C57 C 0.29423 0.41939 0.08402 0.0
H58 H 0.36588 0.41035 0.09108 0.0
H59 H 0.30735 0.28347 0.07239 0.0
O60 O 0.41764 0.19263 0.07576 0.0
O61 O 0.40469 0.31515 0.09236 0.0
O62 O 0.37312 0.26511 0.0452 0.0
O63 O 0.36176 0.22201 0.10233 0.0
H64 H 0.46198 0.23261 0.1018 0.0
H65 H 0.43533 0.1125 0.04409 0.0
H66 H 0.51156 0.19819 0.09742 0.0
H67 H 0.48548 0.0807 0.04031 0.0
H68 H 0.3973 0.42112 0.16644 0.0
H69 H 0.45474 0.36531 0.0892 0.0
H70 H 0.37766 0.35275 0.13481 0.0
H71 H 0.4729 0.43417 0.12137 0.0
H72 H 0.50697 0.35606 0.03435 0.0
H73 H 0.43002 0.42975 0.00342 0.0
H74 H 0.38942 0.17218 0.19753 0.0
H75 H 0.45745 0.29091 0.18731 0.0
H76 H 0.34246 0.31065 0.00723 0.0
H77 H 0.40821 0.19135 0.02388 0.0
H78 H 0.34644 0.28727 0.95953 0.0
H79 H 0.41109 0.17003 0.97601 0.0
H80 H 0.31149 0.17892 0.0897 0.0
H81 H 0.35657 0.27335 0.14851 0.0
H82 H 0.26789 0.18611 0.11695 0.0
H83 H 0.31204 0.27971 0.17451 0.0
H84 H 0.32272 0.02244 0.08649 0.0
H85 H 0.29342 0.11511 0.01861 0.0
H86 H 0.3275 0.47943 0.09246 0.0
H87 H 0.26734 0.34894 0.07434 0.0
Li88 Li 0.08879 0.73357 0.05853 0.0
Li89 Li 0.09777 0.76785 0.10484 0.0
Li90 Li 0.12631 0.80758 0.06561 0.0
Li91 Li 0.13312 0.71274 0.08067 0.0
C92 C 0.05612 0.83031 0.07097 0.0
N93 N 1.00049 0.8667 0.06679 0.0
C94 C 0.035 0.8078 0.08719 0.0
C95 C 0.04902 0.87172 0.05279 0.0
C96 C 0.00698 0.82662 0.08473 0.0
C97 C 0.02075 0.88945 0.05093 0.0
C98 C 0.09094 0.6419 0.10363 0.0
C99 C 0.10011 0.58033 0.14028 0.0
N100 N 0.08466 0.5401 0.12812 0.0
C101 C 0.07511 0.59988 0.09152 0.0
C102 C 0.10352 0.63198 0.12822 0.0
C103 C 0.0722 0.54875 0.10419 0.0
C104 C 0.07368 0.65628 0.01944 0.0
N105 N 0.06182 0.69235 0.03699 0.0
C106 C 0.01715 0.64442 0.03378 0.0
C107 C 0.03386 0.68776 0.04386 0.0
C108 C 0.02928 0.60522 0.01651 0.0
C109 C 0.05772 0.61284 0.00873 0.0
H110 H 0.0962 0.65814 0.01531 0.0
H111 H 0.025 0.71485 0.05868 0.0
C112 C 0.09619 0.81761 0.15539 0.0
N113 N 0.08357 0.77889 0.13982 0.0
C114 C 0.09233 0.8162 0.18279 0.0
C115 C 0.06061 0.73821 0.1773 0.0
C116 C 0.0652 0.74094 0.15005 0.0
C117 C 0.0752 0.77472 0.19414 0.0
H118 H 0.11092 0.84696 0.14677 0.0
H119 H 0.05558 0.71034 0.13727 0.0
C120 C 0.1273 0.75198 0.01756 0.0
N121 N 0.12495 0.77938 0.96455 0.0
C122 C 0.14551 0.7261 0.99951 0.0
C123 C 0.10786 0.79167 0.00865 0.0
C124 C 0.14401 0.74056 0.97279 0.0
C125 C 0.107 0.80498 0.98178 0.0
C126 C 0.16135 0.78505 0.11807 0.0
C127 C 0.18594 0.81441 0.11112 0.0
C128 C 0.15972 0.76018 0.14299 0.0
C129 C 0.20853 0.81774 0.12904 0.0
C130 C 0.18274 0.76449 0.16038 0.0
N131 N 0.20648 0.7929 0.1531 0.0
C132 C 0.15148 0.91552 0.06994 0.0
C133 C 0.1717 0.8576 0.03717 0.0
C134 C 0.17481 0.95179 0.06822 0.0
N135 N 0.15066 0.86868 0.05496 0.0
C136 C 0.19513 0.89296 0.03461 0.0
C137 C 0.19748 0.93989 0.05087 0.0
H138 H 0.13517 0.92254 0.08468 0.0
H139 H 0.17167 0.81906 0.02642 0.0
C140 C 0.15434 0.60407 0.08013 0.0
N141 N 0.16132 0.65827 0.08338 0.0
C142 C 0.17539 0.56357 0.081 0.0
C143 C 0.21052 0.63573 0.08726 0.0
C144 C 0.1888 0.67474 0.08616 0.0
C145 C 0.20381 0.57946 0.08474 0.0
H146 H 0.13262 0.59225 0.0762 0.0
H147 H 0.19402 0.71812 0.08666 0.0
O148 O 0.08375 0.81294 0.07327 0.0
O149 O 0.09408 0.69226 0.09141 0.0
O150 O 0.12854 0.73798 0.04376 0.0
O151 O 0.13885 0.78183 0.10079 0.0
H152 H 0.0401 0.77555 0.10122 0.0
H153 H 0.0652 0.89011 0.04031 0.0
H154 H 0.99038 0.80926 0.09704 0.0
H155 H 0.01494 0.92138 0.0369 0.0
H156 H 0.10977 0.57222 0.15932 0.0
H157 H 0.06531 0.60633 0.07247 0.0
H158 H 0.11581 0.66369 0.13789 0.0
H159 H 0.06007 0.51591 0.09498 0.0
H160 H 0.99527 0.64038 0.04029 0.0
H161 H 0.06822 0.58323 0.99593 0.0
H162 H 0.10368 0.84562 0.19504 0.0
H163 H 0.04738 0.70538 0.18519 0.0
H164 H 0.16065 0.69518 0.00611 0.0
H165 H 0.09356 0.8119 0.02227 0.0
H166 H 0.15799 0.72092 0.9586 0.0
H167 H 0.09205 0.83565 0.97462 0.0
H168 H 0.18793 0.83354 0.09193 0.0
H169 H 0.14084 0.73825 0.14907 0.0
H170 H 0.22771 0.83998 0.12377 0.0
H171 H 0.18167 0.7454 0.17971 0.0
H172 H 0.17559 0.98762 0.08108 0.0
H173 H 0.2122 0.88138 0.02131 0.0
H174 H 0.16955 0.52043 0.07864 0.0
H175 H 0.23238 0.64948 0.08926 0.0
Li176 Li 0.36683 0.2144 0.42313 0.0
Li177 Li 0.37531 0.3084 0.43855 0.0
Li178 Li 0.40328 0.2674 0.39946 0.0
Li179 Li 0.41223 0.23299 0.44497 0.0
C180 C 0.33918 0.28254 0.38674 0.0
N181 N 0.29262 0.27986 0.35327 0.0
C182 C 0.3145 0.31229 0.39298 0.0
C183 C 0.34022 0.25193 0.3633 0.0
C184 C 0.29117 0.31025 0.37586 0.0
C185 C 0.31646 0.25097 0.34668 0.0
C186 C 0.37469 0.25099 0.48644 0.0
C187 C 0.39488 0.30412 0.52219 0.0
N188 N 0.37895 0.27472 0.53973 0.0
C189 C 0.35853 0.22127 0.50481 0.0
C190 C 0.39304 0.29273 0.49516 0.0
C191 C 0.36097 0.2339 0.53167 0.0
C192 C 0.34688 0.10668 0.42056 0.0
N193 N 0.3387 0.16065 0.42018 0.0
C194 C 0.28983 0.13547 0.41721 0.0
C195 C 0.31085 0.17571 0.41929 0.0
C196 C 0.29774 0.07951 0.4169 0.0
C197 C 0.32656 0.06499 0.41884 0.0
H198 H 0.36914 0.09605 0.42249 0.0
H199 H 0.30492 0.21876 0.4207 0.0
C200 C 0.35018 0.41616 0.43421 0.0
N201 N 0.35138 0.36981 0.44953 0.0
C202 C 0.32695 0.45263 0.43619 0.0
C203 C 0.30751 0.39502 0.47074 0.0
C204 C 0.33084 0.35942 0.4679 0.0
C205 C 0.30474 0.4414 0.45414 0.0
H206 H 0.36608 0.42259 0.41903 0.0
H207 H 0.33118 0.32125 0.47898 0.0
C208 C 0.4151 0.15109 0.39607 0.0
N209 N 0.43613 0.07114 0.36214 0.0
C210 C 0.44244 0.12946 0.39982 0.0
C211 C 0.39837 0.13159 0.37519 0.0
C212 C 0.45271 0.08919 0.38242 0.0
C213 C 0.4094 0.09129 0.35822 0.0
C214 C 0.44584 0.32789 0.43288 0.0
C215 C 0.46677 0.30201 0.41764 0.0
C216 C 0.45341 0.37078 0.45005 0.0
C217 C 0.49506 0.31929 0.41989 0.0
C218 C 0.48194 0.38686 0.45177 0.0
N219 N 0.502 0.361 0.43678 0.0
C220 C 0.40152 0.31347 0.34837 0.0
C221 C 0.43763 0.24578 0.35349 0.0
C222 C 0.40467 0.31203 0.3209 0.0
N223 N 0.41698 0.27876 0.36397 0.0
C224 C 0.44163 0.24327 0.32614 0.0
C225 C 0.42417 0.27496 0.30941 0.0
H226 H 0.38532 0.33953 0.35711 0.0
H227 H 0.44992 0.21879 0.36608 0.0
C228 C 0.42431 0.14742 0.47918 0.0
N229 N 0.43803 0.18948 0.46658 0.0
C230 C 0.43949 0.10339 0.49027 0.0
C231 C 0.48307 0.14643 0.47569 0.0
C232 C 0.46699 0.19044 0.46526 0.0
C233 C 0.4693 0.10106 0.4878 0.0
H234 H 0.4013 0.14622 0.47927 0.0
H235 H 0.47763 0.22307 0.45456 0.0
O236 O 0.3623 0.28412 0.40328 0.0
O237 O 0.37262 0.23871 0.4601 0.0
O238 O 0.40481 0.19089 0.41284 0.0
O239 O 0.41798 0.31206 0.43076 0.0
H240 H 0.31312 0.33603 0.41103 0.0
H241 H 0.35924 0.22951 0.35784 0.0
H242 H 0.27189 0.33276 0.38058 0.0
H243 H 0.31702 0.22737 0.32851 0.0
H244 H 0.40899 0.33634 0.52921 0.0
H245 H 0.34427 0.18874 0.49834 0.0
H246 H 0.40568 0.31616 0.48127 0.0
H247 H 0.34859 0.21123 0.54611 0.0
H248 H 0.26764 0.14779 0.41651 0.0
H249 H 0.33324 0.022 0.41895 0.0
H250 H 0.32582 0.488 0.42305 0.0
H251 H 0.29078 0.38401 0.48452 0.0
H252 H 0.45574 0.14406 0.41579 0.0
H253 H 0.37699 0.14691 0.37227 0.0
H254 H 0.47389 0.07237 0.38502 0.0
H255 H 0.39667 0.07593 0.34197 0.0
H256 H 0.46131 0.26823 0.40463 0.0
H257 H 0.43741 0.39151 0.46187 0.0
H258 H 0.51151 0.29936 0.40831 0.0
H259 H 0.48813 0.41994 0.465 0.0
H260 H 0.39113 0.33796 0.30874 0.0
H261 H 0.45691 0.21409 0.31816 0.0
H262 H 0.42771 0.07058 0.49992 0.0
H263 H 0.50593 0.14671 0.4729 0.0
Li264 Li 0.12652 0.6936 0.43632 0.0
Li265 Li 0.13652 0.78841 0.41908 0.0
Li266 Li 0.09231 0.77209 0.44077 0.0
Li267 Li 0.09918 0.73599 0.39644 0.0
C268 C 0.12786 0.7772 0.48153 0.0
N269 N 0.11864 0.80647 0.5336 0.0
C270 C 0.13697 0.82874 0.49083 0.0
C271 C 0.11431 0.74033 0.49872 0.0
C272 C 0.13203 0.84283 0.51722 0.0
C273 C 0.10979 0.75595 0.52497 0.0
C274 C 0.16414 0.72286 0.38532 0.0
C275 C 0.18887 0.7655 0.34877 0.0
N276 N 0.21283 0.73687 0.3553 0.0
C277 C 0.189 0.69374 0.39162 0.0
C278 C 0.16406 0.75893 0.36368 0.0
C279 C 0.21339 0.70143 0.37622 0.0
C280 C 0.15256 0.58756 0.43145 0.0
N281 N 0.14967 0.63211 0.44771 0.0
C282 C 0.1925 0.60731 0.47071 0.0
C283 C 0.1687 0.64169 0.46749 0.0
C284 C 0.19713 0.56307 0.45313 0.0
C285 C 0.1762 0.55233 0.43385 0.0
H286 H 0.13782 0.582 0.41522 0.0
H287 H 0.16669 0.67855 0.47948 0.0
C288 C 0.1598 0.89247 0.40972 0.0
N289 N 0.16589 0.83905 0.41583 0.0
C290 C 0.18152 0.93151 0.40867 0.0
C291 C 0.21518 0.85942 0.4204 0.0
C292 C 0.19274 0.82207 0.42159 0.0
C293 C 0.20963 0.91502 0.41405 0.0
H294 H 0.138 0.90501 0.40637 0.0
H295 H 0.1966 0.77967 0.42748 0.0
C296 C 0.05751 0.68391 0.43814 0.0
N297 N 0.00387 0.66409 0.45844 0.0
C298 C 0.03348 0.70549 0.4255 0.0
C299 C 0.05432 0.65201 0.46101 0.0
C300 C 0.00653 0.69508 0.43609 0.0
C301 C 0.02699 0.64252 0.47099 0.0
C302 C 0.08318 0.84625 0.39197 0.0
C303 C 0.05452 0.85644 0.39782 0.0
C304 C 0.09533 0.87 0.36941 0.0
C305 C 0.0385 0.89007 0.38093 0.0
C306 C 0.07857 0.90324 0.35299 0.0
N307 N 0.05074 0.91252 0.35904 0.0
C308 C 0.07824 0.87156 0.46145 0.0
C309 C 0.04331 0.80748 0.47562 0.0
C310 C 0.06351 0.91538 0.47307 0.0
N311 N 0.06796 0.81889 0.46251 0.0
C312 C 0.02765 0.85055 0.48752 0.0
C313 C 0.03761 0.90562 0.4861 0.0
H314 H 0.09777 0.87987 0.45082 0.0
H315 H 0.03544 0.76554 0.47651 0.0
C316 C 0.10344 0.69532 0.34477 0.0
N317 N 0.08538 0.72294 0.36113 0.0
C318 C 0.09988 0.69814 0.31741 0.0
C319 C 0.05728 0.7524 0.32419 0.0
C320 C 0.06171 0.74856 0.35149 0.0
C321 C 0.0773 0.72918 0.30678 0.0
H322 H 0.12172 0.67398 0.35283 0.0
H323 H 0.04719 0.76912 0.36477 0.0
O324 O 0.13186 0.76314 0.45563 0.0
O325 O 0.14008 0.7165 0.40034 0.0
O326 O 0.084 0.69286 0.4278 0.0
O327 O 0.09932 0.81366 0.40833 0.0
H328 H 0.1475 0.85768 0.4777 0.0
H329 H 0.10725 0.70023 0.49178 0.0
H330 H 0.13879 0.88272 0.52468 0.0
H331 H 0.09921 0.72794 0.53848 0.0
H332 H 0.18909 0.7934 0.33203 0.0
H333 H 0.18965 0.6661 0.40841 0.0
H334 H 0.14504 0.78173 0.35851 0.0
H335 H 0.2328 0.67936 0.38096 0.0
H336 H 0.20814 0.61772 0.48564 0.0
H337 H 0.17871 0.51849 0.41999 0.0
H338 H 0.17624 0.97429 0.40445 0.0
H339 H 0.23656 0.845 0.42459 0.0
H340 H 0.03564 0.73009 0.40774 0.0
H341 H 0.07273 0.63456 0.47085 0.0
H342 H 0.98773 0.71167 0.42657 0.0
H343 H 0.02416 0.61797 0.4887 0.0
H344 H 0.04457 0.83801 0.41496 0.0
H345 H 0.11746 0.86287 0.3646 0.0
H346 H 0.01629 0.89809 0.38517 0.0
H347 H 0.08769 0.92171 0.33543 0.0
H348 H 0.07194 0.9569 0.47098 0.0
H349 H 0.00793 0.84086 0.4976 0.0
H350 H 0.11538 0.67822 0.30469 0.0
H351 H 0.03945 0.77638 0.31686 0.0
Li352 Li 0.59087 0.72896 0.94313 0.0
Li353 Li 0.6341 0.71451 0.91932 0.0
Li354 Li 0.62679 0.80461 0.93554 0.0
Li355 Li 0.59851 0.76913 0.89645 0.0
C356 C 0.62946 0.74764 0.98323 0.0
N357 N 0.62702 0.77217 0.03656 0.0
C358 C 0.64995 0.72628 1.00053 0.0
C359 C 0.6076 0.78103 0.99312 0.0
C360 C 0.64839 0.73929 0.02741 0.0
C361 C 0.60676 0.79307 0.02012 0.0
C362 C 0.59491 0.63847 0.89953 0.0
C363 C 0.59146 0.57272 0.86372 0.0
N364 N 0.59198 0.53046 0.88151 0.0
C365 C 0.59563 0.59434 0.91742 0.0
C366 C 0.59294 0.62756 0.87243 0.0
C367 C 0.59404 0.54006 0.90794 0.0
C368 C 0.5369 0.68028 0.95643 0.0
N369 N 0.56451 0.68573 0.96416 0.0
C370 C 0.5599 0.60742 0.99305 0.0
C371 C 0.5759 0.65103 0.98257 0.0
C372 C 0.5317 0.59888 0.98461 0.0
C373 C 0.51999 0.6373 0.9666 0.0
H374 H 0.5285 0.70719 0.94119 0.0
H375 H 0.59821 0.65396 0.98754 0.0
C376 C 0.68558 0.67166 0.93285 0.0
N377 N 0.66428 0.66403 0.91507 0.0
C378 C 0.70956 0.63799 0.93231 0.0
C379 C 0.68948 0.5897 0.89477 0.0
C380 C 0.66599 0.62484 0.89587 0.0
C381 C 0.7115 0.59587 0.91332 0.0
H382 H 0.68407 0.70458 0.94724 0.0
H383 H 0.64943 0.62102 0.88126 0.0
C384 C 0.57559 0.86208 0.93012 0.0
N385 N 0.56071 0.97286 0.93147 0.0
C386 C 0.58362 0.89737 0.90954 0.0
C387 C 0.55974 0.883 0.95129 0.0
C388 C 0.57599 0.95328 0.91061 0.0
C389 C 0.55248 0.93916 0.95163 0.0
C390 C 0.66314 0.77185 0.88557 0.0
C391 C 0.69001 0.7863 0.89526 0.0
C392 C 0.66092 0.74275 0.86176 0.0
C393 C 0.71427 0.77139 0.88092 0.0
C394 C 0.68569 0.72864 0.84801 0.0
N395 N 0.71162 0.7431 0.85779 0.0
C396 C 0.66521 0.86883 0.9691 0.0
C397 C 0.65684 0.90305 0.92598 0.0
C398 C 0.68868 0.90422 0.97204 0.0
N399 N 0.65022 0.86765 0.94603 0.0
C400 C 0.68016 0.93894 0.92805 0.0
C401 C 0.69715 0.9385 0.95096 0.0
H402 H 0.66044 0.8399 0.98469 0.0
H403 H 0.64546 0.90041 0.90745 0.0
C404 C 0.56096 0.75308 0.85274 0.0
N405 N 0.58328 0.78318 0.86209 0.0
C406 C 0.55595 0.74988 0.82548 0.0
C407 C 0.59499 0.81342 0.81849 0.0
C408 C 0.59937 0.81502 0.84574 0.0
C409 C 0.57404 0.77821 0.80792 0.0
H410 H 0.54875 0.72753 0.86618 0.0
H411 H 0.61714 0.83823 0.85363 0.0
O412 O 0.63071 0.7349 0.95689 0.0
O413 O 0.59556 0.69201 0.90845 0.0
O414 O 0.58324 0.80737 0.92957 0.0
O415 O 0.63916 0.78468 0.89969 0.0
H416 H 0.66689 0.6999 0.99329 0.0
H417 H 0.59139 0.79721 0.98016 0.0
H418 H 0.66416 0.72318 0.041 0.0
H419 H 0.58997 0.81895 0.028 0.0
H420 H 0.59001 0.56376 0.84281 0.0
H421 H 0.59763 0.60178 0.93838 0.0
H422 H 0.59311 0.6609 0.85819 0.0
H423 H 0.5945 0.50556 0.9216 0.0
H424 H 0.5703 0.57866 0.00634 0.0
H425 H 0.49826 0.63325 0.95972 0.0
H426 H 0.72642 0.64501 0.94654 0.0
H427 H 0.69014 0.55759 0.87983 0.0
H428 H 0.59586 0.88189 0.89304 0.0
H429 H 0.553 0.85617 0.96726 0.0
H430 H 0.58224 0.98111 0.89487 0.0
H431 H 0.54027 0.95594 0.96791 0.0
H432 H 0.69218 0.80803 0.91385 0.0
H433 H 0.64035 0.73015 0.85425 0.0
H434 H 0.7352 0.78207 0.88824 0.0
H435 H 0.6843 0.70583 0.82964 0.0
H436 H 0.70115 0.90198 0.99002 0.0
H437 H 0.68549 0.96514 0.91139 0.0
H438 H 0.53961 0.72212 0.81822 0.0
H439 H 0.60903 0.83695 0.80573 0.0
Li440 Li 0.90982 0.27388 0.9443 0.0
Li441 Li 0.86648 0.29045 0.91986 0.0
Li442 Li 0.87367 0.19801 0.93635 0.0
Li443 Li 0.90221 0.23378 0.89748 0.0
C444 C 0.87043 0.25589 0.98382 0.0
N445 N 0.87163 0.23101 0.03716 0.0
C446 C 0.85267 0.28423 1.00141 0.0
C447 C 0.88874 0.21482 0.99336 0.0
C448 C 0.85361 0.27108 0.02831 0.0
C449 C 0.88905 0.20285 0.02038 0.0
C450 C 0.90419 0.36324 0.89926 0.0
C451 C 0.894 0.42458 0.86278 0.0
N452 N 0.90147 0.46868 0.87799 0.0
C453 C 0.91189 0.4092 0.91449 0.0
C454 C 0.89528 0.37098 0.87315 0.0
C455 C 0.91032 0.46214 0.90341 0.0
C456 C 0.96357 0.32275 0.95703 0.0
N457 N 0.93622 0.31659 0.96545 0.0
C458 C 0.94134 0.39434 0.99459 0.0
C459 C 0.92517 0.35081 0.98423 0.0
C460 C 0.96918 0.40366 0.98536 0.0
C461 C 0.98052 0.366 0.96684 0.0
H462 H 0.97161 0.29642 0.94141 0.0
H463 H 0.90304 0.34749 0.9897 0.0
C464 C 0.81747 0.34552 0.89827 0.0
N465 N 0.83947 0.3473 0.91569 0.0
C466 C 0.79817 0.38909 0.89696 0.0
C467 C 0.82433 0.43544 0.93172 0.0
C468 C 0.84312 0.39083 0.93237 0.0
C469 C 0.80151 0.43462 0.91385 0.0
H470 H 0.81434 0.31028 0.88571 0.0
H471 H 0.8606 0.39058 0.94631 0.0
C472 C 0.92753 0.14262 0.93087 0.0
N473 N 0.94895 0.03595 0.93087 0.0
C474 C 0.92155 0.10687 0.9099 0.0
C475 C 0.94463 0.12434 0.95175 0.0
C476 C 0.9325 0.05304 0.91028 0.0
C477 C 0.9552 0.0702 0.95142 0.0
C478 C 0.83996 0.2136 0.88267 0.0
C479 C 0.81541 0.18383 0.88925 0.0
C480 C 0.84254 0.23625 0.8573 0.0
C481 C 0.79399 0.17698 0.87036 0.0
C482 C 0.82064 0.22856 0.83898 0.0
N483 N 0.79702 0.19929 0.84582 0.0
C484 C 0.82672 0.1521 0.96338 0.0
C485 C 0.85053 0.08627 0.93672 0.0
C486 C 0.80357 0.1163 0.96668 0.0
N487 N 0.84948 0.13723 0.94823 0.0
C488 C 0.8277 0.04915 0.93942 0.0
C489 C 0.80334 0.06462 0.95392 0.0
H490 H 0.82522 0.1936 0.97115 0.0
H491 H 0.86803 0.07571 0.92385 0.0
C492 C 0.9379 0.25862 0.85417 0.0
N493 N 0.91813 0.22189 0.86309 0.0
C494 C 0.94362 0.26295 0.82709 0.0
C495 C 0.90994 0.18911 0.81918 0.0
C496 C 0.90519 0.18565 0.84638 0.0
C497 C 0.92852 0.22959 0.8092 0.0
H498 H 0.94756 0.28753 0.86782 0.0
H499 H 0.88923 0.15741 0.85384 0.0
O500 O 0.86964 0.26846 0.95743 0.0
O501 O 0.90573 0.31097 0.90974 0.0
O502 O 0.91728 0.19569 0.93072 0.0
O503 O 0.8614 0.2199 0.90082 0.0
H504 H 0.83834 0.31613 0.99432 0.0
H505 H 0.90248 0.19227 0.9801 0.0
H506 H 0.84001 0.29273 0.04214 0.0
H507 H 0.90313 0.17114 0.02801 0.0
H508 H 0.8871 0.43111 0.8426 0.0
H509 H 0.9189 0.40426 0.93468 0.0
H510 H 0.88947 0.33602 0.86099 0.0
H511 H 0.91614 0.49803 0.91502 0.0
H512 H 0.93134 0.42262 0.00837 0.0
H513 H 0.00194 0.37101 0.95927 0.0
H514 H 0.78038 0.38647 0.88337 0.0
H515 H 0.82753 0.46997 0.94506 0.0
H516 H 0.90823 0.12026 0.89372 0.0
H517 H 0.94976 0.15174 0.968 0.0
H518 H 0.92785 0.02481 0.89424 0.0
H519 H 0.96841 0.05544 0.96747 0.0
H520 H 0.8128 0.16622 0.90872 0.0
H521 H 0.86105 0.26017 0.85187 0.0
H522 H 0.77494 0.15393 0.87522 0.0
H523 H 0.82239 0.24602 0.81934 0.0
H524 H 0.78517 0.13081 0.97757 0.0
H525 H 0.82866 0.00963 0.92934 0.0
H526 H 0.95798 0.29486 0.8201 0.0
H527 H 0.89802 0.16248 0.80597 0.0
Li528 Li 0.60054 0.73447 0.60703 0.0
Li529 Li 0.62805 0.69725 0.56759 0.0
Li530 Li 0.6357 0.78724 0.58313 0.0
Li531 Li 0.59222 0.77349 0.56025 0.0
C532 C 0.66633 0.72834 0.61556 0.0
N533 N 0.71746 0.75207 0.64014 0.0
C534 C 0.6921 0.71693 0.6028 0.0
C535 C 0.66658 0.75175 0.64085 0.0
C536 C 0.71771 0.72924 0.61556 0.0
C537 C 0.69265 0.76345 0.65293 0.0
C538 C 0.57538 0.64188 0.57529 0.0
C539 C 0.54854 0.56624 0.55658 0.0
N540 N 0.55692 0.53322 0.57695 0.0
C541 C 0.58353 0.60733 0.59612 0.0
C542 C 0.55759 0.62134 0.55541 0.0
C543 C 0.57406 0.55248 0.59658 0.0
C544 C 0.56334 0.75295 0.6506 0.0
N545 N 0.5855 0.72191 0.64159 0.0
C546 C 0.59624 0.6916 0.68541 0.0
C547 C 0.6011 0.68972 0.65822 0.0
C548 C 0.57533 0.7274 0.69563 0.0
C549 C 0.55785 0.75639 0.67777 0.0
H550 H 0.55149 0.77866 0.63694 0.0
H551 H 0.61875 0.66575 0.6506 0.0
C552 C 0.66817 0.63568 0.53515 0.0
N553 N 0.65137 0.63395 0.55712 0.0
C554 C 0.69163 0.60008 0.53261 0.0
C555 C 0.67958 0.55951 0.57469 0.0
C556 C 0.65638 0.59584 0.57644 0.0
C557 C 0.69828 0.56255 0.55299 0.0
H558 H 0.66497 0.66731 0.52042 0.0
H559 H 0.64378 0.5965 0.5943 0.0
C560 C 0.59921 0.86566 0.60204 0.0
N561 N 0.60206 0.97563 0.61711 0.0
C562 C 0.60383 0.90697 0.58314 0.0
C563 C 0.5962 0.88033 0.62865 0.0
C564 C 0.60515 0.96231 0.59114 0.0
C565 C 0.59769 0.93612 0.63586 0.0
C566 C 0.62898 0.75218 0.51943 0.0
C567 C 0.64669 0.77676 0.50052 0.0
C568 C 0.60843 0.71388 0.51135 0.0
C569 C 0.64366 0.76226 0.47393 0.0
C570 C 0.60607 0.70045 0.48458 0.0
N571 N 0.6236 0.7247 0.46658 0.0
C572 C 0.68409 0.84163 0.56695 0.0
C573 C 0.66865 0.87008 0.60949 0.0
C574 C 0.70685 0.87831 0.56789 0.0
N575 N 0.66539 0.8388 0.58737 0.0
C576 C 0.69111 0.90746 0.61129 0.0
C577 C 0.71039 0.91204 0.5902 0.0
H578 H 0.68138 0.81511 0.54996 0.0
H579 H 0.65409 0.86558 0.62585 0.0
C580 C 0.53779 0.82103 0.54716 0.0
N581 N 0.5655 0.81648 0.53954 0.0
C582 C 0.52068 0.86406 0.53725 0.0
C583 C 0.56066 0.89594 0.51142 0.0
C584 C 0.57682 0.8521 0.52149 0.0
C585 C 0.53244 0.90337 0.51983 0.0
H586 H 0.52949 0.79353 0.5622 0.0
H587 H 0.59912 0.84946 0.51646 0.0
O588 O 0.64102 0.7177 0.60315 0.0
O589 O 0.58458 0.69564 0.57439 0.0
O590 O 0.59753 0.81123 0.59457 0.0
O591 O 0.63168 0.76646 0.54554 0.0
H592 H 0.69234 0.69945 0.58312 0.0
H593 H 0.64689 0.76202 0.6508 0.0
H594 H 0.7378 0.72084 0.60587 0.0
H595 H 0.69315 0.78197 0.6724 0.0
H596 H 0.53484 0.54974 0.5413 0.0
H597 H 0.59722 0.62256 0.61164 0.0
H598 H 0.55079 0.64768 0.53927 0.0
H599 H 0.58037 0.52521 0.61253 0.0
H600 H 0.60983 0.6676 0.6984 0.0
H601 H 0.54158 0.78464 0.68475 0.0
H602 H 0.7055 0.60471 0.51565 0.0
H603 H 0.68349 0.53092 0.59079 0.0
H604 H 0.60686 0.89642 0.5626 0.0
H605 H 0.5932 0.84905 0.64366 0.0
H606 H 0.60875 0.99466 0.57671 0.0
H607 H 0.59548 0.94798 0.65638 0.0
H608 H 0.66255 0.80692 0.50627 0.0
H609 H 0.59447 0.69461 0.5255 0.0
H610 H 0.65725 0.78095 0.45913 0.0
H611 H 0.59028 0.67076 0.47812 0.0
H612 H 0.72123 0.88082 0.55118 0.0
H613 H 0.69353 0.93206 0.62905 0.0
H614 H 0.49905 0.86851 0.5444 0.0
H615 H 0.57053 0.92503 0.49792 0.0
Li616 Li 0.87529 0.30252 0.5692 0.0
Li617 Li 0.90369 0.2676 0.60855 0.0
Li618 Li 0.91193 0.22733 0.56169 0.0
Li619 Li 0.86873 0.21095 0.58561 0.0
C620 C 0.92883 0.35848 0.57325 0.0
N621 N 0.94935 0.46541 0.56897 0.0
C622 C 0.92346 0.39702 0.59322 0.0
C623 C 0.94504 0.37405 0.55127 0.0
C624 C 0.9339 0.45096 0.59065 0.0
C625 C 0.95511 0.42838 0.54942 0.0
C626 C 0.83963 0.28431 0.62092 0.0
C627 C 0.81807 0.27643 0.6641 0.0
N628 N 0.79314 0.29596 0.65405 0.0
C629 C 0.81371 0.30389 0.611 0.0
C630 C 0.84178 0.2703 0.64769 0.0
C631 C 0.79049 0.30966 0.62808 0.0
C632 C 0.83016 0.35262 0.53988 0.0
N633 N 0.85111 0.36389 0.55774 0.0
C634 C 0.82739 0.44841 0.56976 0.0
C635 C 0.85027 0.41133 0.57228 0.0
C636 C 0.80476 0.43639 0.55238 0.0
C637 C 0.80694 0.38845 0.53675 0.0
H638 H 0.82996 0.31357 0.52956 0.0
H639 H 0.86617 0.4186 0.58728 0.0
C640 C 0.93822 0.24282 0.65249 0.0
N641 N 0.9194 0.28064 0.64284 0.0
C642 C 0.94375 0.24008 0.67963 0.0
C643 C 0.91198 0.31775 0.68609 0.0
C644 C 0.90732 0.3194 0.65882 0.0
C645 C 0.9295 0.27628 0.69687 0.0
H646 H 0.9472 0.21196 0.6394 0.0
H647 H 0.892 0.34834 0.65078 0.0
C648 C 0.87282 0.24417 0.52152 0.0
N649 N 0.87432 0.26819 0.46809 0.0
C650 C 0.8565 0.21323 0.50372 0.0
C651 C 0.88968 0.28759 0.51214 0.0
C652 C 0.85762 0.22591 0.47678 0.0
C653 C 0.8902 0.29906 0.48507 0.0
C654 C 0.90304 0.13763 0.60548 0.0
C655 C 0.90573 0.09246 0.58836 0.0
C656 C 0.89479 0.12891 0.6317 0.0
C657 C 0.90005 0.03919 0.59779 0.0
C658 C 0.88928 0.07499 0.64037 0.0
N659 N 0.892 0.03163 0.62338 0.0
C660 C 0.96342 0.16967 0.55545 0.0
C661 C 0.93314 0.16075 0.5183 0.0
C662 C 0.98075 0.12648 0.54624 0.0
N663 N 0.93976 0.18521 0.54177 0.0
C664 C 0.94994 0.1176 0.50832 0.0
C665 C 0.97367 0.09858 0.52271 0.0
H666 H 0.96773 0.18819 0.57451 0.0
H667 H 0.91393 0.17208 0.50797 0.0
C668 C 0.82645 0.14654 0.6126 0.0
N669 N 0.84134 0.15481 0.58991 0.0
C670 C 0.80571 0.10551 0.61378 0.0
C671 C 0.81733 0.08 0.56878 0.0
C672 C 0.8376 0.12196 0.5684 0.0
C673 C 0.80081 0.07222 0.59155 0.0
H674 H 0.83073 0.17117 0.62984 0.0
H675 H 0.85043 0.12844 0.55095 0.0
O676 O 0.91883 0.30543 0.57542 0.0
O677 O 0.86304 0.28104 0.60481 0.0
O678 O 0.87186 0.23216 0.54797 0.0
O679 O 0.90775 0.19025 0.59643 0.0
H680 H 0.9111 0.38557 0.61038 0.0
H681 H 0.94985 0.34444 0.53583 0.0
H682 H 0.92969 0.48133 0.60589 0.0
H683 H 0.96755 0.44108 0.53246 0.0
H684 H 0.81946 0.26547 0.68481 0.0
H685 H 0.81148 0.31469 0.59038 0.0
H686 H 0.86132 0.25344 0.65562 0.0
H687 H 0.77037 0.3251 0.62068 0.0
H688 H 0.8269 0.485 0.58212 0.0
H689 H 0.7899 0.37646 0.52352 0.0
H690 H 0.95724 0.20729 0.68721 0.0
H691 H 0.90073 0.34658 0.69876 0.0
H692 H 0.84309 0.17977 0.5106 0.0
H693 H 0.90201 0.31248 0.52559 0.0
H694 H 0.84518 0.20219 0.46279 0.0
H695 H 0.90318 0.33259 0.47757 0.0
H696 H 0.91176 0.09847 0.56792 0.0
H697 H 0.89221 0.16347 0.64511 0.0
H698 H 0.90194 0.00388 0.58474 0.0
H699 H 0.88271 0.06764 0.66057 0.0
H700 H 0.99854 0.1131 0.55827 0.0
H701 H 0.94383 0.09819 0.48988 0.0
H702 H 0.79372 0.09968 0.63187 0.0
H703 H 0.81414 0.05486 0.55129 0.0
C704 C 0.2627 0.01888 0.07549 0.0
C705 C 0.2773 0.03088 0.05185 0.0
H706 H 0.22626 0.9814 0.09375 0.0
C707 C 0.26501 0.01375 0.02781 0.0
H708 H 0.27122 0.03216 0.09435 0.0
C709 C 0.23901 0.9851 0.02745 0.0
C710 C 0.22441 0.97315 0.05109 0.0
H711 H 0.27562 0.02208 0.00922 0.0
H712 H 0.23027 0.97252 0.00857 0.0
C713 C 0.23661 0.99057 0.07511 0.0
C714 C 0.23875 0.51835 0.42982 0.0
C715 C 0.2246 0.53147 0.45357 0.0
H716 H 0.2749 0.48027 0.41138 0.0
C717 C 0.23753 0.51609 0.47759 0.0
H718 H 0.22974 0.53031 0.41095 0.0
C719 C 0.26365 0.48774 0.47784 0.0
C720 C 0.27775 0.47452 0.45408 0.0
H721 H 0.22728 0.52541 0.49626 0.0
H722 H 0.27288 0.47631 0.4967 0.0
C723 C 0.26495 0.49043 0.43008 0.0
C724 C 0.73355 0.99652 0.97548 0.0
C725 C 0.7245 0.97042 0.95205 0.0
H726 H 0.76548 0.04572 0.99465 0.0
C727 C 0.74224 0.97384 0.92964 0.0
H728 H 0.7205 0.99494 0.99312 0.0
C729 C 0.76798 0.00312 0.93049 0.0
C730 C 0.77687 0.02992 0.95377 0.0
H731 H 0.73635 0.95346 0.91137 0.0
H732 H 0.7806 0.0058 0.91261 0.0
C733 C 0.75932 0.02597 0.9763 0.0
C734 C 0.73663 0.50838 0.5289 0.0
C735 C 0.72554 0.53008 0.55261 0.0
H736 H 0.77026 0.46308 0.51003 0.0
C737 C 0.74127 0.52202 0.57602 0.0
H738 H 0.72518 0.51348 0.51047 0.0
C739 C 0.76703 0.49266 0.57581 0.0
C740 C 0.77804 0.47056 0.55217 0.0
H741 H 0.73385 0.53892 0.59462 0.0
H742 H 0.77801 0.48639 0.5944 0.0
C743 C 0.76247 0.47903 0.52868 0.0
C744 C 0.45003 0.24772 0.23927 0.0
C745 C 0.42415 0.24256 0.22548 0.0
H746 H 0.47042 0.26233 0.2766 0.0
C747 C 0.39847 0.24929 0.23943 0.0
H748 H 0.47016 0.24272 0.22908 0.0
C749 C 0.39862 0.26075 0.26648 0.0
C750 C 0.42445 0.26562 0.28035 0.0
H751 H 0.37817 0.24651 0.22934 0.0
H752 H 0.37842 0.26486 0.27665 0.0
C753 C 0.45018 0.25878 0.26647 0.0
C754 C 0.05039 0.73988 0.26388 0.0
C755 C 0.07621 0.74115 0.27795 0.0
H756 H 0.0297 0.74982 0.22632 0.0
C757 C 0.1013 0.75559 0.26443 0.0
H758 H 0.03071 0.72894 0.27376 0.0
C759 C 0.10072 0.76773 0.23746 0.0
C760 C 0.07503 0.76568 0.22323 0.0
H761 H 0.12148 0.75794 0.27476 0.0
H762 H 0.12059 0.77748 0.22761 0.0
C763 C 0.04983 0.75166 0.23674 0.0
C764 C 0.5995 0.75872 0.7655 0.0
C765 C 0.57363 0.7661 0.77905 0.0
H766 H 0.62024 0.74144 0.72891 0.0
C767 C 0.54796 0.75955 0.76502 0.0
H768 H 0.61969 0.76227 0.77572 0.0
C769 C 0.54827 0.7466 0.73796 0.0
C770 C 0.57426 0.73925 0.72451 0.0
H771 H 0.52767 0.7649 0.7749 0.0
H772 H 0.52822 0.74192 0.72762 0.0
C773 C 0.59981 0.74567 0.73866 0.0
C774 C 0.95559 0.25753 0.73955 0.0
C775 C 0.92991 0.26632 0.72584 0.0
H776 H 0.97535 0.23957 0.77697 0.0
C777 C 0.90406 0.26262 0.73972 0.0
H778 H 0.97579 0.26 0.72928 0.0
C779 C 0.90379 0.24995 0.76664 0.0
C780 C 0.92939 0.24134 0.78042 0.0
H781 H 0.88392 0.26839 0.7296 0.0
H782 H 0.8835 0.24747 0.77679 0.0
C783 C 0.95534 0.24585 0.76673 0.0
C784 C 0.50598 0.47584 0.0259 0.0
C785 C 0.48704 0.44926 0.00854 0.0
H786 H 0.53382 0.54451 0.03264 0.0
C787 C 0.48244 0.47274 0.98345 0.0
H788 H 0.50953 0.45952 0.04559 0.0
C789 C 0.49664 0.52128 0.97581 0.0
C790 C 0.51557 0.54825 0.9932 0.0
H791 H 0.46804 0.45318 0.96957 0.0
H792 H 0.49311 0.53697 0.95602 0.0
C793 C 0.51989 0.52479 0.01843 0.0
C794 C 0.99668 0.52488 0.02668 0.0
C795 C 0.01338 0.55433 0.00832 0.0
H796 H 0.97051 0.45394 0.03424 0.0
C797 C 0.01587 0.53311 0.98251 0.0
H798 H 0.99477 0.5392 0.04689 0.0
C799 C 0.00195 0.48404 0.97522 0.0
C800 C 0.98522 0.45454 0.99356 0.0
H801 H 0.02837 0.55482 0.96779 0.0
H802 H 0.00385 0.46993 0.95498 0.0
C803 C 0.98285 0.4757 0.01942 0.0
C804 C 0.52886 0.00652 0.51308 0.0
C805 C 0.51617 0.95376 0.51175 0.0
H806 H 0.5241 0.09397 0.50756 0.0
C807 C 0.48795 0.94979 0.50282 0.0
H808 H 0.55047 0.01108 0.52027 0.0
C809 C 0.47292 0.99728 0.49502 0.0
C810 C 0.48547 0.05039 0.49644 0.0
H811 H 0.47767 0.90974 0.50133 0.0
H812 H 0.45156 0.99193 0.48739 0.0
C813 C 0.5137 0.05415 0.50569 0.0
C814 C 0.97593 0.00282 0.50247 0.0
C815 C 0.99 0.04848 0.51392 0.0
H816 H 0.97967 0.92232 0.48484 0.0
C817 C 0.01971 0.04534 0.51727 0.0
H818 H 0.95302 0.00305 0.50001 0.0
C819 C 0.03493 0.99851 0.50897 0.0
C820 C 0.02095 0.95335 0.49701 0.0
H821 H 0.03137 0.07955 0.5259 0.0
H822 H 0.05779 0.99786 0.51184 0.0
C823 C 0.99118 0.95594 0.49415 0.0
C824 C 0.22735 0.49656 0.06542 0.0
C825 C 0.22657 0.53779 0.08493 0.0
H826 H 0.24986 0.42732 0.04951 0.0
C827 C 0.24798 0.53982 0.10424 0.0
H828 H 0.21127 0.49485 0.05008 0.0
C829 C 0.26992 0.50107 0.10405 0.0
C830 C 0.27084 0.45996 0.08443 0.0
H831 H 0.24759 0.57109 0.11961 0.0
H832 H 0.28602 0.50297 0.11937 0.0
C833 C 0.24938 0.45801 0.06512 0.0
C834 C 0.2547 0.03881 0.396 0.0
C835 C 0.27584 0.03641 0.41552 0.0
H836 H 0.21752 1.00102 0.37971 0.0
C837 C 0.27561 0.99347 0.43417 0.0
H838 H 0.25475 0.07153 0.38131 0.0
C839 C 0.25417 0.95379 0.43358 0.0
C840 C 0.23284 0.9561 0.41411 0.0
H841 H 0.2916 0.99145 0.44959 0.0
H842 H 0.25395 0.92211 0.44876 0.0
C843 C 0.23344 0.99871 0.39518 0.0
C844 C 0.7468 0.53735 0.93745 0.0
C845 C 0.73599 0.55757 0.9134 0.0
H846 H 0.7761 0.48238 0.95638 0.0
C847 C 0.74808 0.5395 0.88952 0.0
H848 H 0.73762 0.54993 0.95616 0.0
C849 C 0.76999 0.50059 0.88967 0.0
C850 C 0.78024 0.47939 0.9137 0.0
H851 H 0.74051 0.55517 0.87071 0.0
H852 H 0.77877 0.48669 0.871 0.0
C853 C 0.7688 0.49871 0.9376 0.0
C854 C 0.7612 0.93786 0.58234 0.0
C855 C 0.73386 0.95244 0.59124 0.0
H856 H 0.80406 0.96467 0.57568 0.0
C857 C 0.72884 0.00631 0.60061 0.0
H858 H 0.76567 0.89635 0.57532 0.0
C859 C 0.75077 0.04505 0.60097 0.0
C860 C 0.77801 0.03058 0.59187 0.0
H861 H 0.70782 0.01886 0.60713 0.0
H862 H 0.7463 0.08668 0.60782 0.0
C863 C 0.78311 0.97674 0.58257 0.0
loop_
_geom_bond_atom_site_label_1
_geom_bond_atom_site_label_2
_geom_bond_distance
_geom_bond_site_symmetry_2
_ccdc_geom_bond_type
Li0 N17 1.990 . S
Li0 O60 1.956 . S
Li0 O61 1.970 . S
Li0 O62 1.961 . S
Li1 N25 1.990 . S
Li1 O60 1.970 . S
Li1 O61 1.956 . S
Li1 O63 1.961 . S
Li2 N47 1.990 . S
Li2 O60 1.961 . S
Li2 O62 1.956 . S
Li2 O63 1.970 . S
Li3 N53 1.990 . S
Li3 O61 1.961 . S
Li3 O62 1.970 . S
Li3 O63 1.956 . S
C4 C6 1.348 . S
C4 C7 1.356 . S
C4 O60 1.325 . S
N5 C8 1.314 . S
N5 C9 1.279 . S
C6 C4 1.348 . S
C6 C8 1.353 . S
C6 H64 0.929 . S
C7 C4 1.356 . S
C7 C9 1.358 . S
C7 H65 0.930 . S
C8 N5 1.314 . S
C8 C6 1.353 . S
C8 H66 0.930 . S
C9 N5 1.279 . S
C9 C7 1.358 . S
C9 H67 0.930 . S
C10 C13 1.348 . S
C10 C14 1.356 . S
C10 O61 1.325 . S
C11 N12 1.279 . S
C11 C14 1.358 . S
C11 H68 0.930 . S
N12 C11 1.279 . S
N12 C15 1.314 . S
C13 C10 1.348 . S
C13 C15 1.353 . S
C13 H69 0.929 . S
C14 C10 1.356 . S
C14 C11 1.358 . S
C14 H70 0.930 . S
C15 N12 1.314 . S
C15 C13 1.353 . S
C15 H71 0.930 . S
C16 N17 1.314 . S
C16 C21 1.353 1_554 S
C16 H22 0.930 . S
N17 Li0 1.990 . S
N17 C16 1.314 . S
N17 C19 1.279 . S
C18 C19 1.358 . S
C18 C20 1.356 . S
C18 H72 0.930 . S
C19 N17 1.279 . S
C19 C18 1.358 . S
C19 H23 0.930 . S
C20 C18 1.356 . S
C20 C21 1.348 1_554 S
C21 C16 1.353 1_556 S
C21 C20 1.348 1_556 S
C21 H73 0.929 . S
H22 C16 0.930 . S
H23 C19 0.930 . S
C24 N25 1.314 . S
C24 C26 1.353 . S
C24 H30 0.930 . S
N25 Li1 1.990 . S
N25 C24 1.314 . S
N25 C28 1.279 . S
C26 C24 1.353 . S
C26 C29 1.348 . S
C26 H74 0.929 . S
C27 C28 1.358 . S
C27 C29 1.356 . S
C27 H75 0.930 . S
C28 N25 1.279 . S
C28 C27 1.358 . S
C28 H31 0.930 . S
C29 C26 1.348 . S
C29 C27 1.356 . S
H30 C24 0.930 . S
H31 C28 0.930 . S
C32 C34 1.345 1_554 S
C32 C35 1.356 1_554 S
C32 O62 1.325 . S
N33 C36 1.314 . S
N33 C37 1.279 . S
C34 C32 1.345 1_556 S
C34 C36 1.361 . S
C34 H76 0.924 1_556 S
C35 C32 1.356 1_556 S
C35 C37 1.358 . S
C35 H77 0.930 . S
C36 N33 1.314 . S
C36 C34 1.361 . S
C36 H78 0.930 . S
C37 N33 1.279 . S
C37 C35 1.358 . S
C37 H79 0.930 . S
C38 C39 1.348 . S
C38 C40 1.356 . S
C38 O63 1.325 . S
C39 C38 1.348 . S
C39 C41 1.353 . S
C39 H80 0.929 . S
C40 C38 1.356 . S
C40 C42 1.358 . S
C40 H81 0.930 . S
C41 C39 1.353 . S
C41 N43 1.314 . S
C41 H82 0.930 . S
C42 C40 1.358 . S
C42 N43 1.279 . S
C42 H83 0.930 . S
N43 C41 1.314 . S
N43 C42 1.279 . S
C44 C46 1.353 . S
C44 N47 1.314 . S
C44 H50 0.930 . S
C45 N47 1.279 . S
C45 C48 1.358 . S
C45 H51 0.930 . S
C46 C44 1.353 . S
C46 C49 1.348 . S
C46 H84 0.929 . S
N47 Li2 1.990 . S
N47 C44 1.314 . S
N47 C45 1.279 . S
C48 C45 1.358 . S
C48 C49 1.356 . S
C48 H85 0.930 1_554 S
C49 C46 1.348 . S
C49 C48 1.356 . S
H50 C44 0.930 . S
H51 C45 0.930 . S
C52 N53 1.314 . S
C52 C54 1.353 . S
C52 H58 0.930 . S
N53 Li3 1.990 . S
N53 C52 1.314 . S
N53 C56 1.279 . S
C54 C52 1.353 . S
C54 C57 1.348 . S
C54 H86 0.929 . S
C55 C56 1.358 . S
C55 C57 1.356 . S
C55 H87 0.930 . S
C56 N53 1.279 . S
C56 C55 1.358 . S
C56 H59 0.930 . S
C57 C54 1.348 . S
C57 C55 1.356 . S
H58 C52 0.930 . S
H59 C56 0.930 . S
O60 Li0 1.956 . S
O60 Li1 1.970 . S
O60 Li2 1.961 . S
O60 C4 1.325 . S
O61 Li0 1.970 . S
O61 Li1 1.956 . S
O61 Li3 1.961 . S
O61 C10 1.325 . S
O62 Li0 1.961 . S
O62 Li2 1.956 . S
O62 Li3 1.970 . S
O62 C32 1.325 . S
O63 Li1 1.961 . S
O63 Li2 1.970 . S
O63 Li3 1.956 . S
O63 C38 1.325 . S
H64 C6 0.929 . S
H65 C7 0.930 . S
H66 C8 0.930 . S
H67 C9 0.930 . S
H68 C11 0.930 . S
H69 C13 0.929 . S
H70 C14 0.930 . S
H71 C15 0.930 . S
H72 C18 0.930 . S
H73 C21 0.929 . S
H74 C26 0.929 . S
H75 C27 0.930 . S
H76 C34 0.924 1_554 S
H77 C35 0.930 . S
H78 C36 0.930 . S
H79 C37 0.930 . S
H80 C39 0.929 . S
H81 C40 0.930 . S
H82 C41 0.930 . S
H83 C42 0.930 . S
H84 C46 0.929 . S
H85 C48 0.930 1_556 S
H86 C54 0.929 . S
H87 C55 0.930 . S
Li88 N105 1.990 . S
Li88 O148 1.956 . S
Li88 O149 1.970 . S
Li88 O150 1.961 . S
Li89 N113 1.990 . S
Li89 O148 1.970 . S
Li89 O149 1.956 . S
Li89 O151 1.961 . S
Li90 N135 1.990 . S
Li90 O148 1.961 . S
Li90 O150 1.956 . S
Li90 O151 1.970 . S
Li91 N141 1.990 . S
Li91 O149 1.961 . S
Li91 O150 1.970 . S
Li91 O151 1.956 . S
C92 C94 1.348 . S
C92 C95 1.356 . S
C92 O148 1.325 . S
N93 C96 1.314 . S
N93 C97 1.279 . S
C94 C92 1.348 . S
C94 C96 1.353 . S
C94 H152 0.929 . S
C95 C92 1.356 . S
C95 C97 1.358 . S
C95 H153 0.930 . S
C96 N93 1.314 . S
C96 C94 1.353 . S
C96 H154 0.930 . S
C97 N93 1.279 . S
C97 C95 1.358 . S
C97 H155 0.930 . S
C98 C101 1.348 . S
C98 C102 1.356 . S
C98 O149 1.325 . S
C99 N100 1.279 . S
C99 C102 1.358 . S
C99 H156 0.930 . S
N100 C99 1.279 . S
N100 C103 1.314 . S
C101 C98 1.348 . S
C101 C103 1.353 . S
C101 H157 0.929 . S
C102 C98 1.356 . S
C102 C99 1.358 . S
C102 H158 0.930 . S
C103 N100 1.314 . S
C103 C101 1.353 . S
C103 H159 0.930 . S
C104 N105 1.314 . S
C104 C109 1.353 1_554 S
C104 H110 0.930 . S
N105 Li88 1.990 . S
N105 C104 1.314 . S
N105 C107 1.279 . S
C106 C107 1.358 . S
C106 C108 1.356 . S
C106 H160 0.930 1_455 S
C107 N105 1.279 . S
C107 C106 1.358 . S
C107 H111 0.930 . S
C108 C106 1.356 . S
C108 C109 1.348 1_554 S
C109 C104 1.353 1_556 S
C109 C108 1.348 1_556 S
C109 H161 0.929 . S
H110 C104 0.930 . S
H111 C107 0.930 . S
C112 N113 1.314 . S
C112 C114 1.353 . S
C112 H118 0.930 . S
N113 Li89 1.990 . S
N113 C112 1.314 . S
N113 C116 1.279 . S
C114 C112 1.353 . S
C114 C117 1.348 . S
C114 H162 0.929 . S
C115 C116 1.358 . S
C115 C117 1.356 . S
C115 H163 0.930 . S
C116 N113 1.279 . S
C116 C115 1.358 . S
C116 H119 0.930 . S
C117 C114 1.348 . S
C117 C115 1.356 . S
H118 C112 0.930 . S
H119 C116 0.930 . S
C120 C122 1.345 1_554 S
C120 C123 1.356 1_554 S
C120 O150 1.325 . S
N121 C124 1.314 . S
N121 C125 1.279 . S
C122 C120 1.345 1_556 S
C122 C124 1.361 . S
C122 H164 0.924 1_556 S
C123 C120 1.356 1_556 S
C123 C125 1.358 . S
C123 H165 0.930 . S
C124 N121 1.314 . S
C124 C122 1.361 . S
C124 H166 0.930 . S
C125 N121 1.279 . S
C125 C123 1.358 . S
C125 H167 0.930 . S
C126 C127 1.348 . S
C126 C128 1.356 . S
C126 O151 1.325 . S
C127 C126 1.348 . S
C127 C129 1.353 . S
C127 H168 0.929 . S
C128 C126 1.356 . S
C128 C130 1.358 . S
C128 H169 0.930 . S
C129 C127 1.353 . S
C129 N131 1.314 . S
C129 H170 0.930 . S
C130 C128 1.358 . S
C130 N131 1.279 . S
C130 H171 0.930 . S
N131 C129 1.314 . S
N131 C130 1.279 . S
C132 C134 1.353 . S
C132 N135 1.314 . S
C132 H138 0.930 . S
C133 N135 1.279 . S
C133 C136 1.358 . S
C133 H139 0.930 . S
C134 C132 1.353 . S
C134 C137 1.348 . S
C134 H172 0.929 . S
N135 Li90 1.990 . S
N135 C132 1.314 . S
N135 C133 1.279 . S
C136 C133 1.358 . S
C136 C137 1.356 . S
C136 H173 0.930 1_554 S
C137 C134 1.348 . S
C137 C136 1.356 . S
H138 C132 0.930 . S
H139 C133 0.930 . S
C140 N141 1.314 . S
C140 C142 1.353 . S
C140 H146 0.930 . S
N141 Li91 1.990 . S
N141 C140 1.314 . S
N141 C144 1.279 . S
C142 C140 1.353 . S
C142 C145 1.348 . S
C142 H174 0.929 . S
C143 C144 1.358 . S
C143 C145 1.356 . S
C143 H175 0.930 . S
C144 N141 1.279 . S
C144 C143 1.358 . S
C144 H147 0.930 . S
C145 C142 1.348 . S
C145 C143 1.356 . S
H146 C140 0.930 . S
H147 C144 0.930 . S
O148 Li88 1.956 . S
O148 Li89 1.970 . S
O148 Li90 1.961 . S
O148 C92 1.325 . S
O149 Li88 1.970 . S
O149 Li89 1.956 . S
O149 Li91 1.961 . S
O149 C98 1.325 . S
O150 Li88 1.961 . S
O150 Li90 1.956 . S
O150 Li91 1.970 . S
O150 C120 1.325 . S
O151 Li89 1.961 . S
O151 Li90 1.970 . S
O151 Li91 1.956 . S
O151 C126 1.325 . S
H152 C94 0.929 . S
H153 C95 0.930 . S
H154 C96 0.930 . S
H155 C97 0.930 . S
H156 C99 0.930 . S
H157 C101 0.929 . S
H158 C102 0.930 . S
H159 C103 0.930 . S
H160 C106 0.930 1_655 S
H161 C109 0.929 . S
H162 C114 0.929 . S
H163 C115 0.930 . S
H164 C122 0.924 1_554 S
H165 C123 0.930 . S
H166 C124 0.930 . S
H167 C125 0.930 . S
H168 C127 0.929 . S
H169 C128 0.930 . S
H170 C129 0.930 . S
H171 C130 0.930 . S
H172 C134 0.929 . S
H173 C136 0.930 1_556 S
H174 C142 0.929 . S
H175 C143 0.930 . S
Li176 N193 1.990 . S
Li176 O236 1.956 . S
Li176 O237 1.970 . S
Li176 O238 1.961 . S
Li177 N201 1.990 . S
Li177 O236 1.970 . S
Li177 O237 1.956 . S
Li177 O239 1.961 . S
Li178 N223 1.990 . S
Li178 O236 1.961 . S
Li178 O238 1.956 . S
Li178 O239 1.970 . S
Li179 N229 1.990 . S
Li179 O237 1.961 . S
Li179 O238 1.970 . S
Li179 O239 1.956 . S
C180 C182 1.348 . S
C180 C183 1.356 . S
C180 O236 1.325 . S
N181 C184 1.314 . S
N181 C185 1.279 . S
C182 C180 1.348 . S
C182 C184 1.353 . S
C182 H240 0.929 . S
C183 C180 1.356 . S
C183 C185 1.358 . S
C183 H241 0.930 . S
C184 N181 1.314 . S
C184 C182 1.353 . S
C184 H242 0.930 . S
C185 N181 1.279 . S
C185 C183 1.358 . S
C185 H243 0.930 . S
C186 C189 1.348 . S
C186 C190 1.356 . S
C186 O237 1.325 . S
C187 N188 1.279 . S
C187 C190 1.358 . S
C187 H244 0.930 . S
N188 C187 1.279 . S
N188 C191 1.314 . S
C189 C186 1.348 . S
C189 C191 1.353 . S
C189 H245 0.929 . S
C190 C186 1.356 . S
C190 C187 1.358 . S
C190 H246 0.930 . S
C191 N188 1.314 . S
C191 C189 1.353 . S
C191 H247 0.930 . S
C192 N193 1.314 . S
C192 C197 1.353 . S
C192 H198 0.930 . S
N193 Li176 1.990 . S
N193 C192 1.314 . S
N193 C195 1.279 . S
C194 C195 1.358 . S
C194 C196 1.356 . S
C194 H248 0.930 . S
C195 N193 1.279 . S
C195 C194 1.358 . S
C195 H199 0.930 . S
C196 C194 1.356 . S
C196 C197 1.348 . S
C197 C192 1.353 . S
C197 C196 1.348 . S
C197 H249 0.929 . S
H198 C192 0.930 . S
H199 C195 0.930 . S
C200 N201 1.314 . S
C200 C202 1.353 . S
C200 H206 0.930 . S
N201 Li177 1.990 . S
N201 C200 1.314 . S
N201 C204 1.279 . S
C202 C200 1.353 . S
C202 C205 1.348 . S
C202 H250 0.929 . S
C203 C204 1.358 . S
C203 C205 1.356 . S
C203 H251 0.930 . S
C204 N201 1.279 . S
C204 C203 1.358 . S
C204 H207 0.930 . S
C205 C202 1.348 . S
C205 C203 1.356 . S
H206 C200 0.930 . S
H207 C204 0.930 . S
C208 C210 1.348 . S
C208 C211 1.356 . S
C208 O238 1.325 . S
N209 C212 1.314 . S
N209 C213 1.279 . S
C210 C208 1.348 . S
C210 C212 1.353 . S
C210 H252 0.929 . S
C211 C208 1.356 . S
C211 C213 1.358 . S
C211 H253 0.930 . S
C212 N209 1.314 . S
C212 C210 1.353 . S
C212 H254 0.930 . S
C213 N209 1.279 . S
C213 C211 1.358 . S
C213 H255 0.930 . S
C214 C215 1.348 . S
C214 C216 1.356 . S
C214 O239 1.325 . S
C215 C214 1.348 . S
C215 C217 1.353 . S
C215 H256 0.929 . S
C216 C214 1.356 . S
C216 C218 1.358 . S
C216 H257 0.930 . S
C217 C215 1.353 . S
C217 N219 1.314 . S
C217 H258 0.930 . S
C218 C216 1.358 . S
C218 N219 1.279 . S
C218 H259 0.930 . S
N219 C217 1.314 . S
N219 C218 1.279 . S
C220 C222 1.353 . S
C220 N223 1.314 . S
C220 H226 0.930 . S
C221 N223 1.279 . S
C221 C224 1.358 . S
C221 H227 0.930 . S
C222 C220 1.353 . S
C222 C225 1.348 . S
C222 H260 0.929 . S
N223 Li178 1.990 . S
N223 C220 1.314 . S
N223 C221 1.279 . S
C224 C221 1.358 . S
C224 C225 1.356 . S
C224 H261 0.930 . S
C225 C222 1.348 . S
C225 C224 1.356 . S
H226 C220 0.930 . S
H227 C221 0.930 . S
C228 N229 1.314 . S
C228 C230 1.353 . S
C228 H234 0.930 . S
N229 Li179 1.990 . S
N229 C228 1.314 . S
N229 C232 1.279 . S
C230 C228 1.353 . S
C230 C233 1.348 . S
C230 H262 0.929 . S
C231 C232 1.358 . S
C231 C233 1.356 . S
C231 H263 0.930 . S
C232 N229 1.279 . S
C232 C231 1.358 . S
C232 H235 0.930 . S
C233 C230 1.348 . S
C233 C231 1.356 . S
H234 C228 0.930 . S
H235 C232 0.930 . S
O236 Li176 1.956 . S
O236 Li177 1.970 . S
O236 Li178 1.961 . S
O236 C180 1.325 . S
O237 Li176 1.970 . S
O237 Li177 1.956 . S
O237 Li179 1.961 . S
O237 C186 1.325 . S
O238 Li176 1.961 . S
O238 Li178 1.956 . S
O238 Li179 1.970 . S
O238 C208 1.325 . S
O239 Li177 1.961 . S
O239 Li178 1.970 . S
O239 Li179 1.956 . S
O239 C214 1.325 . S
H240 C182 0.929 . S
H241 C183 0.930 . S
H242 C184 0.930 . S
H243 C185 0.930 . S
H244 C187 0.930 . S
H245 C189 0.929 . S
H246 C190 0.930 . S
H247 C191 0.930 . S
H248 C194 0.930 . S
H249 C197 0.929 . S
H250 C202 0.929 . S
H251 C203 0.930 . S
H252 C210 0.929 . S
H253 C211 0.930 . S
H254 C212 0.930 . S
H255 C213 0.930 . S
H256 C215 0.929 . S
H257 C216 0.930 . S
H258 C217 0.930 . S
H259 C218 0.930 . S
H260 C222 0.929 . S
H261 C224 0.930 . S
H262 C230 0.929 . S
H263 C231 0.930 . S
Li264 N281 1.990 . S
Li264 O324 1.956 . S
Li264 O325 1.970 . S
Li264 O326 1.961 . S
Li265 N289 1.990 . S
Li265 O324 1.970 . S
Li265 O325 1.956 . S
Li265 O327 1.961 . S
Li266 N311 1.990 . S
Li266 O324 1.961 . S
Li266 O326 1.956 . S
Li266 O327 1.970 . S
Li267 N317 1.990 . S
Li267 O325 1.961 . S
Li267 O326 1.970 . S
Li267 O327 1.956 . S
C268 C270 1.348 . S
C268 C271 1.356 . S
C268 O324 1.325 . S
N269 C272 1.314 . S
N269 C273 1.279 . S
C270 C268 1.348 . S
C270 C272 1.353 . S
C270 H328 0.929 . S
C271 C268 1.356 . S
C271 C273 1.358 . S
C271 H329 0.930 . S
C272 N269 1.314 . S
C272 C270 1.353 . S
C272 H330 0.930 . S
C273 N269 1.279 . S
C273 C271 1.358 . S
C273 H331 0.930 . S
C274 C277 1.348 . S
C274 C278 1.356 . S
C274 O325 1.325 . S
C275 N276 1.279 . S
C275 C278 1.358 . S
C275 H332 0.930 . S
N276 C275 1.279 . S
N276 C279 1.314 . S
C277 C274 1.348 . S
C277 C279 1.353 . S
C277 H333 0.929 . S
C278 C274 1.356 . S
C278 C275 1.358 . S
C278 H334 0.930 . S
C279 N276 1.314 . S
C279 C277 1.353 . S
C279 H335 0.930 . S
C280 N281 1.314 . S
C280 C285 1.353 . S
C280 H286 0.930 . S
N281 Li264 1.990 . S
N281 C280 1.314 . S
N281 C283 1.279 . S
C282 C283 1.358 . S
C282 C284 1.356 . S
C282 H336 0.930 . S
C283 N281 1.279 . S
C283 C282 1.358 . S
C283 H287 0.930 . S
C284 C282 1.356 . S
C284 C285 1.348 . S
C285 C280 1.353 . S
C285 C284 1.348 . S
C285 H337 0.929 . S
H286 C280 0.930 . S
H287 C283 0.930 . S
C288 N289 1.314 . S
C288 C290 1.353 . S
C288 H294 0.930 . S
N289 Li265 1.990 . S
N289 C288 1.314 . S
N289 C292 1.279 . S
C290 C288 1.353 . S
C290 C293 1.348 . S
C290 H338 0.929 . S
C291 C292 1.358 . S
C291 C293 1.356 . S
C291 H339 0.930 . S
C292 N289 1.279 . S
C292 C291 1.358 . S
C292 H295 0.930 . S
C293 C290 1.348 . S
C293 C291 1.356 . S
H294 C288 0.930 . S
H295 C292 0.930 . S
C296 C298 1.348 . S
C296 C299 1.356 . S
C296 O326 1.325 . S
N297 C300 1.314 . S
N297 C301 1.279 . S
C298 C296 1.348 . S
C298 C300 1.353 . S
C298 H340 0.929 . S
C299 C296 1.356 . S
C299 C301 1.358 . S
C299 H341 0.930 . S
C300 N297 1.314 . S
C300 C298 1.353 . S
C300 H342 0.930 . S
C301 N297 1.279 . S
C301 C299 1.358 . S
C301 H343 0.930 . S
C302 C303 1.348 . S
C302 C304 1.356 . S
C302 O327 1.325 . S
C303 C302 1.348 . S
C303 C305 1.353 . S
C303 H344 0.929 . S
C304 C302 1.356 . S
C304 C306 1.358 . S
C304 H345 0.930 . S
C305 C303 1.353 . S
C305 N307 1.314 . S
C305 H346 0.930 . S
C306 C304 1.358 . S
C306 N307 1.279 . S
C306 H347 0.930 . S
N307 C305 1.314 . S
N307 C306 1.279 . S
C308 C310 1.353 . S
C308 N311 1.314 . S
C308 H314 0.930 . S
C309 N311 1.279 . S
C309 C312 1.358 . S
C309 H315 0.930 . S
C310 C308 1.353 . S
C310 C313 1.348 . S
C310 H348 0.929 . S
N311 Li266 1.990 . S
N311 C308 1.314 . S
N311 C309 1.279 . S
C312 C309 1.358 . S
C312 C313 1.356 . S
C312 H349 0.930 1_455 S
C313 C310 1.348 . S
C313 C312 1.356 . S
H314 C308 0.930 . S
H315 C309 0.930 . S
C316 N317 1.314 . S
C316 C318 1.353 . S
C316 H322 0.930 . S
N317 Li267 1.990 . S
N317 C316 1.314 . S
N317 C320 1.279 . S
C318 C316 1.353 . S
C318 C321 1.348 . S
C318 H350 0.929 . S
C319 C320 1.358 . S
C319 C321 1.356 . S
C319 H351 0.930 . S
C320 N317 1.279 . S
C320 C319 1.358 . S
C320 H323 0.930 . S
C321 C318 1.348 . S
C321 C319 1.356 . S
H322 C316 0.930 . S
H323 C320 0.930 . S
O324 Li264 1.956 . S
O324 Li265 1.970 . S
O324 Li266 1.961 . S
O324 C268 1.325 . S
O325 Li264 1.970 . S
O325 Li265 1.956 . S
O325 Li267 1.961 . S
O325 C274 1.325 . S
O326 Li264 1.961 . S
O326 Li266 1.956 . S
O326 Li267 1.970 . S
O326 C296 1.325 . S
O327 Li265 1.961 . S
O327 Li266 1.970 . S
O327 Li267 1.956 . S
O327 C302 1.325 . S
H328 C270 0.929 . S
H329 C271 0.930 . S
H330 C272 0.930 . S
H331 C273 0.930 . S
H332 C275 0.930 . S
H333 C277 0.929 . S
H334 C278 0.930 . S
H335 C279 0.930 . S
H336 C282 0.930 . S
H337 C285 0.929 . S
H338 C290 0.929 . S
H339 C291 0.930 . S
H340 C298 0.929 . S
H341 C299 0.930 . S
H342 C300 0.930 . S
H343 C301 0.930 . S
H344 C303 0.929 . S
H345 C304 0.930 . S
H346 C305 0.930 . S
H347 C306 0.930 . S
H348 C310 0.929 . S
H349 C312 0.930 1_655 S
H350 C318 0.929 . S
H351 C319 0.930 . S
Li352 N369 1.990 . S
Li352 O412 1.956 . S
Li352 O413 1.970 . S
Li352 O414 1.961 . S
Li353 N377 1.990 . S
Li353 O412 1.970 . S
Li353 O413 1.956 . S
Li353 O415 1.961 . S
Li354 N399 1.990 . S
Li354 O412 1.961 . S
Li354 O414 1.956 . S
Li354 O415 1.970 . S
Li355 N405 1.990 . S
Li355 O413 1.961 . S
Li355 O414 1.970 . S
Li355 O415 1.956 . S
C356 C358 1.348 1_556 S
C356 C359 1.356 1_556 S
C356 O412 1.325 . S
N357 C360 1.314 . S
N357 C361 1.279 . S
C358 C356 1.348 1_554 S
C358 C360 1.353 . S
C358 H416 0.929 1_554 S
C359 C356 1.356 1_554 S
C359 C361 1.358 . S
C359 H417 0.930 . S
C360 N357 1.314 . S
C360 C358 1.353 . S
C360 H418 0.930 . S
C361 N357 1.279 . S
C361 C359 1.358 . S
C361 H419 0.930 . S
C362 C365 1.348 . S
C362 C366 1.356 . S
C362 O413 1.325 . S
C363 N364 1.279 . S
C363 C366 1.358 . S
C363 H420 0.930 . S
N364 C363 1.279 . S
N364 C367 1.314 . S
C365 C362 1.348 . S
C365 C367 1.353 . S
C365 H421 0.929 . S
C366 C362 1.356 . S
C366 C363 1.358 . S
C366 H422 0.930 . S
C367 N364 1.314 . S
C367 C365 1.353 . S
C367 H423 0.930 . S
C368 N369 1.314 . S
C368 C373 1.353 . S
C368 H374 0.930 . S
N369 Li352 1.990 . S
N369 C368 1.314 . S
N369 C371 1.279 . S
C370 C371 1.358 1_554 S
C370 C372 1.356 1_554 S
C370 H424 0.930 . S
C371 N369 1.279 . S
C371 C370 1.358 1_556 S
C371 H375 0.930 1_556 S
C372 C370 1.356 1_556 S
C372 C373 1.348 . S
C373 C368 1.353 . S
C373 C372 1.348 . S
C373 H425 0.929 . S
H374 C368 0.930 . S
H375 C371 0.930 1_554 S
C376 N377 1.314 . S
C376 C378 1.353 . S
C376 H382 0.930 . S
N377 Li353 1.990 . S
N377 C376 1.314 . S
N377 C380 1.279 . S
C378 C376 1.353 . S
C378 C381 1.348 . S
C378 H426 0.929 . S
C379 C380 1.358 . S
C379 C381 1.356 . S
C379 H427 0.930 . S
C380 N377 1.279 . S
C380 C379 1.358 . S
C380 H383 0.930 . S
C381 C378 1.348 . S
C381 C379 1.356 . S
H382 C376 0.930 . S
H383 C380 0.930 . S
C384 C386 1.348 . S
C384 C387 1.356 . S
C384 O414 1.325 . S
N385 C388 1.314 . S
N385 C389 1.279 . S
C386 C384 1.348 . S
C386 C388 1.353 . S
C386 H428 0.929 . S
C387 C384 1.356 . S
C387 C389 1.358 . S
C387 H429 0.930 . S
C388 N385 1.314 . S
C388 C386 1.353 . S
C388 H430 0.930 . S
C389 N385 1.279 . S
C389 C387 1.358 . S
C389 H431 0.930 . S
C390 C391 1.348 . S
C390 C392 1.356 . S
C390 O415 1.325 . S
C391 C390 1.348 . S
C391 C393 1.353 . S
C391 H432 0.929 . S
C392 C390 1.356 . S
C392 C394 1.358 . S
C392 H433 0.930 . S
C393 C391 1.353 . S
C393 N395 1.314 . S
C393 H434 0.930 . S
C394 C392 1.358 . S
C394 N395 1.279 . S
C394 H435 0.930 . S
N395 C393 1.314 . S
N395 C394 1.279 . S
C396 C398 1.353 . S
C396 N399 1.314 . S
C396 H402 0.930 . S
C397 N399 1.279 . S
C397 C400 1.358 . S
C397 H403 0.930 . S
C398 C396 1.353 . S
C398 C401 1.348 . S
C398 H436 0.929 . S
N399 Li354 1.990 . S
N399 C396 1.314 . S
N399 C397 1.279 . S
C400 C397 1.358 . S
C400 C401 1.356 . S
C400 H437 0.930 . S
C401 C398 1.348 . S
C401 C400 1.356 . S
H402 C396 0.930 . S
H403 C397 0.930 . S
C404 N405 1.314 . S
C404 C406 1.353 . S
C404 H410 0.930 . S
N405 Li355 1.990 . S
N405 C404 1.314 . S
N405 C408 1.279 . S
C406 C404 1.353 . S
C406 C409 1.348 . S
C406 H438 0.929 . S
C407 C408 1.358 . S
C407 C409 1.356 . S
C407 H439 0.930 . S
C408 N405 1.279 . S
C408 C407 1.358 . S
C408 H411 0.930 . S
C409 C406 1.348 . S
C409 C407 1.356 . S
H410 C404 0.930 . S
H411 C408 0.930 . S
O412 Li352 1.956 . S
O412 Li353 1.970 . S
O412 Li354 1.961 . S
O412 C356 1.325 . S
O413 Li352 1.970 . S
O413 Li353 1.956 . S
O413 Li355 1.961 . S
O413 C362 1.325 . S
O414 Li352 1.961 . S
O414 Li354 1.956 . S
O414 Li355 1.970 . S
O414 C384 1.325 . S
O415 Li353 1.961 . S
O415 Li354 1.970 . S
O415 Li355 1.956 . S
O415 C390 1.325 . S
H416 C358 0.929 1_556 S
H417 C359 0.930 . S
H418 C360 0.930 . S
H419 C361 0.930 . S
H420 C363 0.930 . S
H421 C365 0.929 . S
H422 C366 0.930 . S
H423 C367 0.930 . S
H424 C370 0.930 . S
H425 C373 0.929 . S
H426 C378 0.929 . S
H427 C379 0.930 . S
H428 C386 0.929 . S
H429 C387 0.930 . S
H430 C388 0.930 . S
H431 C389 0.930 . S
H432 C391 0.929 . S
H433 C392 0.930 . S
H434 C393 0.930 . S
H435 C394 0.930 . S
H436 C398 0.929 . S
H437 C400 0.930 . S
H438 C406 0.929 . S
H439 C407 0.930 . S
Li440 N457 1.990 . S
Li440 O500 1.956 . S
Li440 O501 1.970 . S
Li440 O502 1.961 . S
Li441 N465 1.990 . S
Li441 O500 1.970 . S
Li441 O501 1.956 . S
Li441 O503 1.961 . S
Li442 N487 1.990 . S
Li442 O500 1.961 . S
Li442 O502 1.956 . S
Li442 O503 1.970 . S
Li443 N493 1.990 . S
Li443 O501 1.961 . S
Li443 O502 1.970 . S
Li443 O503 1.956 . S
C444 C446 1.348 1_556 S
C444 C447 1.356 1_556 S
C444 O500 1.325 . S
N445 C448 1.314 . S
N445 C449 1.279 . S
C446 C444 1.348 1_554 S
C446 C448 1.353 . S
C446 H504 0.929 1_554 S
C447 C444 1.356 1_554 S
C447 C449 1.358 . S
C447 H505 0.930 . S
C448 N445 1.314 . S
C448 C446 1.353 . S
C448 H506 0.930 . S
C449 N445 1.279 . S
C449 C447 1.358 . S
C449 H507 0.930 . S
C450 C453 1.348 . S
C450 C454 1.356 . S
C450 O501 1.325 . S
C451 N452 1.279 . S
C451 C454 1.358 . S
C451 H508 0.930 . S
N452 C451 1.279 . S
N452 C455 1.314 . S
C453 C450 1.348 . S
C453 C455 1.353 . S
C453 H509 0.929 . S
C454 C450 1.356 . S
C454 C451 1.358 . S
C454 H510 0.930 . S
C455 N452 1.314 . S
C455 C453 1.353 . S
C455 H511 0.930 . S
C456 N457 1.314 . S
C456 C461 1.353 . S
C456 H462 0.930 . S
N457 Li440 1.990 . S
N457 C456 1.314 . S
N457 C459 1.279 . S
C458 C459 1.358 1_554 S
C458 C460 1.356 1_554 S
C458 H512 0.930 . S
C459 N457 1.279 . S
C459 C458 1.358 1_556 S
C459 H463 0.930 1_556 S
C460 C458 1.356 1_556 S
C460 C461 1.348 . S
C461 C456 1.353 . S
C461 C460 1.348 . S
C461 H513 0.929 1_655 S
H462 C456 0.930 . S
H463 C459 0.930 1_554 S
C464 N465 1.314 . S
C464 C466 1.353 . S
C464 H470 0.930 . S
N465 Li441 1.990 . S
N465 C464 1.314 . S
N465 C468 1.279 . S
C466 C464 1.353 . S
C466 C469 1.348 . S
C466 H514 0.929 . S
C467 C468 1.358 . S
C467 C469 1.356 . S
C467 H515 0.930 . S
C468 N465 1.279 . S
C468 C467 1.358 . S
C468 H471 0.930 . S
C469 C466 1.348 . S
C469 C467 1.356 . S
H470 C464 0.930 . S
H471 C468 0.930 . S
C472 C474 1.348 . S
C472 C475 1.356 . S
C472 O502 1.325 . S
N473 C476 1.314 . S
N473 C477 1.279 . S
C474 C472 1.348 . S
C474 C476 1.353 . S
C474 H516 0.929 . S
C475 C472 1.356 . S
C475 C477 1.358 . S
C475 H517 0.930 . S
C476 N473 1.314 . S
C476 C474 1.353 . S
C476 H518 0.930 . S
C477 N473 1.279 . S
C477 C475 1.358 . S
C477 H519 0.930 . S
C478 C479 1.348 . S
C478 C480 1.356 . S
C478 O503 1.325 . S
C479 C478 1.348 . S
C479 C481 1.353 . S
C479 H520 0.929 . S
C480 C478 1.356 . S
C480 C482 1.358 . S
C480 H521 0.930 . S
C481 C479 1.353 . S
C481 N483 1.314 . S
C481 H522 0.930 . S
C482 C480 1.358 . S
C482 N483 1.279 . S
C482 H523 0.930 . S
N483 C481 1.314 . S
N483 C482 1.279 . S
C484 C486 1.353 . S
C484 N487 1.314 . S
C484 H490 0.930 . S
C485 N487 1.279 . S
C485 C488 1.358 . S
C485 H491 0.930 . S
C486 C484 1.353 . S
C486 C489 1.348 . S
C486 H524 0.929 . S
N487 Li442 1.990 . S
N487 C484 1.314 . S
N487 C485 1.279 . S
C488 C485 1.358 . S
C488 C489 1.356 . S
C488 H525 0.930 . S
C489 C486 1.348 . S
C489 C488 1.356 . S
H490 C484 0.930 . S
H491 C485 0.930 . S
C492 N493 1.314 . S
C492 C494 1.353 . S
C492 H498 0.930 . S
N493 Li443 1.990 . S
N493 C492 1.314 . S
N493 C496 1.279 . S
C494 C492 1.353 . S
C494 C497 1.348 . S
C494 H526 0.929 . S
C495 C496 1.358 . S
C495 C497 1.356 . S
C495 H527 0.930 . S
C496 N493 1.279 . S
C496 C495 1.358 . S
C496 H499 0.930 . S
C497 C494 1.348 . S
C497 C495 1.356 . S
H498 C492 0.930 . S
H499 C496 0.930 . S
O500 Li440 1.956 . S
O500 Li441 1.970 . S
O500 Li442 1.961 . S
O500 C444 1.325 . S
O501 Li440 1.970 . S
O501 Li441 1.956 . S
O501 Li443 1.961 . S
O501 C450 1.325 . S
O502 Li440 1.961 . S
O502 Li442 1.956 . S
O502 Li443 1.970 . S
O502 C472 1.325 . S
O503 Li441 1.961 . S
O503 Li442 1.970 . S
O503 Li443 1.956 . S
O503 C478 1.325 . S
H504 C446 0.929 1_556 S
H505 C447 0.930 . S
H506 C448 0.930 . S
H507 C449 0.930 . S
H508 C451 0.930 . S
H509 C453 0.929 . S
H510 C454 0.930 . S
H511 C455 0.930 . S
H512 C458 0.930 . S
H513 C461 0.929 1_455 S
H514 C466 0.929 . S
H515 C467 0.930 . S
H516 C474 0.929 . S
H517 C475 0.930 . S
H518 C476 0.930 . S
H519 C477 0.930 . S
H520 C479 0.929 . S
H521 C480 0.930 . S
H522 C481 0.930 . S
H523 C482 0.930 . S
H524 C486 0.929 . S
H525 C488 0.930 . S
H526 C494 0.929 . S
H527 C495 0.930 . S
Li528 N545 1.990 . S
Li528 O588 1.956 . S
Li528 O589 1.970 . S
Li528 O590 1.961 . S
Li529 N553 1.990 . S
Li529 O588 1.970 . S
Li529 O589 1.956 . S
Li529 O591 1.961 . S
Li530 N575 1.990 . S
Li530 O588 1.961 . S
Li530 O590 1.956 . S
Li530 O591 1.970 . S
Li531 N581 1.990 . S
Li531 O589 1.961 . S
Li531 O590 1.970 . S
Li531 O591 1.956 . S
C532 C534 1.348 . S
C532 C535 1.356 . S
C532 O588 1.325 . S
N533 C536 1.314 . S
N533 C537 1.279 . S
C534 C532 1.348 . S
C534 C536 1.353 . S
C534 H592 0.929 . S
C535 C532 1.356 . S
C535 C537 1.358 . S
C535 H593 0.930 . S
C536 N533 1.314 . S
C536 C534 1.353 . S
C536 H594 0.930 . S
C537 N533 1.279 . S
C537 C535 1.358 . S
C537 H595 0.930 . S
C538 C541 1.348 . S
C538 C542 1.356 . S
C538 O589 1.325 . S
C539 N540 1.279 . S
C539 C542 1.358 . S
C539 H596 0.930 . S
N540 C539 1.279 . S
N540 C543 1.314 . S
C541 C538 1.348 . S
C541 C543 1.353 . S
C541 H597 0.929 . S
C542 C538 1.356 . S
C542 C539 1.358 . S
C542 H598 0.930 . S
C543 N540 1.314 . S
C543 C541 1.353 . S
C543 H599 0.930 . S
C544 N545 1.314 . S
C544 C549 1.353 . S
C544 H550 0.930 . S
N545 Li528 1.990 . S
N545 C544 1.314 . S
N545 C547 1.279 . S
C546 C547 1.358 . S
C546 C548 1.356 . S
C546 H600 0.930 . S
C547 N545 1.279 . S
C547 C546 1.358 . S
C547 H551 0.930 . S
C548 C546 1.356 . S
C548 C549 1.348 . S
C549 C544 1.353 . S
C549 C548 1.348 . S
C549 H601 0.929 . S
H550 C544 0.930 . S
H551 C547 0.930 . S
C552 N553 1.314 . S
C552 C554 1.353 . S
C552 H558 0.930 . S
N553 Li529 1.990 . S
N553 C552 1.314 . S
N553 C556 1.279 . S
C554 C552 1.353 . S
C554 C557 1.348 . S
C554 H602 0.929 . S
C555 C556 1.358 . S
C555 C557 1.356 . S
C555 H603 0.930 . S
C556 N553 1.279 . S
C556 C555 1.358 . S
C556 H559 0.930 . S
C557 C554 1.348 . S
C557 C555 1.356 . S
H558 C552 0.930 . S
H559 C556 0.930 . S
C560 C562 1.348 . S
C560 C563 1.356 . S
C560 O590 1.325 . S
N561 C564 1.314 . S
N561 C565 1.279 . S
C562 C560 1.348 . S
C562 C564 1.353 . S
C562 H604 0.929 . S
C563 C560 1.356 . S
C563 C565 1.358 . S
C563 H605 0.930 . S
C564 N561 1.314 . S
C564 C562 1.353 . S
C564 H606 0.930 . S
C565 N561 1.279 . S
C565 C563 1.358 . S
C565 H607 0.930 . S
C566 C567 1.348 . S
C566 C568 1.356 . S
C566 O591 1.325 . S
C567 C566 1.348 . S
C567 C569 1.353 . S
C567 H608 0.929 . S
C568 C566 1.356 . S
C568 C570 1.358 . S
C568 H609 0.930 . S
C569 C567 1.353 . S
C569 N571 1.314 . S
C569 H610 0.930 . S
C570 C568 1.358 . S
C570 N571 1.279 . S
C570 H611 0.930 . S
N571 C569 1.314 . S
N571 C570 1.279 . S
C572 C574 1.353 . S
C572 N575 1.314 . S
C572 H578 0.930 . S
C573 N575 1.279 . S
C573 C576 1.358 . S
C573 H579 0.930 . S
C574 C572 1.353 . S
C574 C577 1.348 . S
C574 H612 0.929 . S
N575 Li530 1.990 . S
N575 C572 1.314 . S
N575 C573 1.279 . S
C576 C573 1.358 . S
C576 C577 1.356 . S
C576 H613 0.930 1_565 S
C577 C574 1.348 . S
C577 C576 1.356 . S
H578 C572 0.930 . S
H579 C573 0.930 . S
C580 N581 1.314 . S
C580 C582 1.353 . S
C580 H586 0.930 . S
N581 Li531 1.990 . S
N581 C580 1.314 . S
N581 C584 1.279 . S
C582 C580 1.353 . S
C582 C585 1.348 . S
C582 H614 0.929 . S
C583 C584 1.358 . S
C583 C585 1.356 . S
C583 H615 0.930 . S
C584 N581 1.279 . S
C584 C583 1.358 . S
C584 H587 0.930 . S
C585 C582 1.348 . S
C585 C583 1.356 . S
H586 C580 0.930 . S
H587 C584 0.930 . S
O588 Li528 1.956 . S
O588 Li529 1.970 . S
O588 Li530 1.961 . S
O588 C532 1.325 . S
O589 Li528 1.970 . S
O589 Li529 1.956 . S
O589 Li531 1.961 . S
O589 C538 1.325 . S
O590 Li528 1.961 . S
O590 Li530 1.956 . S
O590 Li531 1.970 . S
O590 C560 1.325 . S
O591 Li529 1.961 . S
O591 Li530 1.970 . S
O591 Li531 1.956 . S
O591 C566 1.325 . S
H592 C534 0.929 . S
H593 C535 0.930 . S
H594 C536 0.930 . S
H595 C537 0.930 . S
H596 C539 0.930 . S
H597 C541 0.929 . S
H598 C542 0.930 . S
H599 C543 0.930 . S
H600 C546 0.930 . S
H601 C549 0.929 . S
H602 C554 0.929 . S
H603 C555 0.930 . S
H604 C562 0.929 . S
H605 C563 0.930 . S
H606 C564 0.930 . S
H607 C565 0.930 . S
H608 C567 0.929 . S
H609 C568 0.930 . S
H610 C569 0.930 . S
H611 C570 0.930 . S
H612 C574 0.929 . S
H613 C576 0.930 1_545 S
H614 C582 0.929 . S
H615 C583 0.930 . S
Li616 N633 1.990 . S
Li616 O676 1.956 . S
Li616 O677 1.970 . S
Li616 O678 1.961 . S
Li617 N641 1.990 . S
Li617 O676 1.970 . S
Li617 O677 1.956 . S
Li617 O679 1.961 . S
Li618 N663 1.990 . S
Li618 O676 1.961 . S
Li618 O678 1.956 . S
Li618 O679 1.970 . S
Li619 N669 1.990 . S
Li619 O677 1.961 . S
Li619 O678 1.970 . S
Li619 O679 1.956 . S
C620 C622 1.348 . S
C620 C623 1.356 . S
C620 O676 1.325 . S
N621 C624 1.314 . S
N621 C625 1.279 . S
C622 C620 1.348 . S
C622 C624 1.353 . S
C622 H680 0.929 . S
C623 C620 1.356 . S
C623 C625 1.358 . S
C623 H681 0.930 . S
C624 N621 1.314 . S
C624 C622 1.353 . S
C624 H682 0.930 . S
C625 N621 1.279 . S
C625 C623 1.358 . S
C625 H683 0.930 . S
C626 C629 1.348 . S
C626 C630 1.356 . S
C626 O677 1.325 . S
C627 N628 1.279 . S
C627 C630 1.358 . S
C627 H684 0.930 . S
N628 C627 1.279 . S
N628 C631 1.314 . S
C629 C626 1.348 . S
C629 C631 1.353 . S
C629 H685 0.929 . S
C630 C626 1.356 . S
C630 C627 1.358 . S
C630 H686 0.930 . S
C631 N628 1.314 . S
C631 C629 1.353 . S
C631 H687 0.930 . S
C632 N633 1.314 . S
C632 C637 1.353 . S
C632 H638 0.930 . S
N633 Li616 1.990 . S
N633 C632 1.314 . S
N633 C635 1.279 . S
C634 C635 1.358 . S
C634 C636 1.356 . S
C634 H688 0.930 . S
C635 N633 1.279 . S
C635 C634 1.358 . S
C635 H639 0.930 . S
C636 C634 1.356 . S
C636 C637 1.348 . S
C637 C632 1.353 . S
C637 C636 1.348 . S
C637 H689 0.929 . S
H638 C632 0.930 . S
H639 C635 0.930 . S
C640 N641 1.314 . S
C640 C642 1.353 . S
C640 H646 0.930 . S
N641 Li617 1.990 . S
N641 C640 1.314 . S
N641 C644 1.279 . S
C642 C640 1.353 . S
C642 C645 1.348 . S
C642 H690 0.929 . S
C643 C644 1.358 . S
C643 C645 1.356 . S
C643 H691 0.930 . S
C644 N641 1.279 . S
C644 C643 1.358 . S
C644 H647 0.930 . S
C645 C642 1.348 . S
C645 C643 1.356 . S
H646 C640 0.930 . S
H647 C644 0.930 . S
C648 C650 1.348 . S
C648 C651 1.356 . S
C648 O678 1.325 . S
N649 C652 1.314 . S
N649 C653 1.279 . S
C650 C648 1.348 . S
C650 C652 1.353 . S
C650 H692 0.929 . S
C651 C648 1.356 . S
C651 C653 1.358 . S
C651 H693 0.930 . S
C652 N649 1.314 . S
C652 C650 1.353 . S
C652 H694 0.930 . S
C653 N649 1.279 . S
C653 C651 1.358 . S
C653 H695 0.930 . S
C654 C655 1.348 . S
C654 C656 1.356 . S
C654 O679 1.325 . S
C655 C654 1.348 . S
C655 C657 1.353 . S
C655 H696 0.929 . S
C656 C654 1.356 . S
C656 C658 1.358 . S
C656 H697 0.930 . S
C657 C655 1.353 . S
C657 N659 1.314 . S
C657 H698 0.930 . S
C658 C656 1.358 . S
C658 N659 1.279 . S
C658 H699 0.930 . S
N659 C657 1.314 . S
N659 C658 1.279 . S
C660 C662 1.353 . S
C660 N663 1.314 . S
C660 H666 0.930 . S
C661 N663 1.279 . S
C661 C664 1.358 . S
C661 H667 0.930 . S
C662 C660 1.353 . S
C662 C665 1.348 . S
C662 H700 0.929 1_655 S
N663 Li618 1.990 . S
N663 C660 1.314 . S
N663 C661 1.279 . S
C664 C661 1.358 . S
C664 C665 1.356 . S
C664 H701 0.930 . S
C665 C662 1.348 . S
C665 C664 1.356 . S
H666 C660 0.930 . S
H667 C661 0.930 . S
C668 N669 1.314 . S
C668 C670 1.353 . S
C668 H674 0.930 . S
N669 Li619 1.990 . S
N669 C668 1.314 . S
N669 C672 1.279 . S
C670 C668 1.353 . S
C670 C673 1.348 . S
C670 H702 0.929 . S
C671 C672 1.358 . S
C671 C673 1.356 . S
C671 H703 0.930 1_545 S
C672 N669 1.279 . S
C672 C671 1.358 . S
C672 H675 0.930 . S
C673 C670 1.348 . S
C673 C671 1.356 . S
H674 C668 0.930 . S
H675 C672 0.930 . S
O676 Li616 1.956 . S
O676 Li617 1.970 . S
O676 Li618 1.961 . S
O676 C620 1.325 . S
O677 Li616 1.970 . S
O677 Li617 1.956 . S
O677 Li619 1.961 . S
O677 C626 1.325 . S
O678 Li616 1.961 . S
O678 Li618 1.956 . S
O678 Li619 1.970 . S
O678 C648 1.325 . S
O679 Li617 1.961 . S
O679 Li618 1.970 . S
O679 Li619 1.956 . S
O679 C654 1.325 . S
H680 C622 0.929 . S
H681 C623 0.930 . S
H682 C624 0.930 . S
H683 C625 0.930 . S
H684 C627 0.930 . S
H685 C629 0.929 . S
H686 C630 0.930 . S
H687 C631 0.930 . S
H688 C634 0.930 . S
H689 C637 0.929 . S
H690 C642 0.929 . S
H691 C643 0.930 . S
H692 C650 0.929 . S
H693 C651 0.930 . S
H694 C652 0.930 . S
H695 C653 0.930 . S
H696 C655 0.929 . S
H697 C656 0.930 . S
H698 C657 0.930 . S
H699 C658 0.930 . S
H700 C662 0.929 1_455 S
H701 C664 0.930 . S
H702 C670 0.929 . S
H703 C671 0.930 1_565 S
C704 C705 1.387 . S
C704 H708 0.950 . S
C704 C713 1.390 1_545 S
C705 C704 1.387 . S
C705 C707 1.387 1_554 S
H706 C713 0.950 . S
C707 C705 1.387 1_556 S
C707 C709 1.390 1_545 S
C707 H711 0.950 . S
H708 C704 0.950 . S
C709 C707 1.390 1_565 S
C709 C710 1.387 1_556 S
C709 H712 0.950 . S
C710 C709 1.387 1_554 S
C710 C713 1.387 . S
H711 C707 0.950 . S
H712 C709 0.950 . S
C713 C704 1.390 1_565 S
C713 H706 0.950 . S
C713 C710 1.387 . S
C714 C715 1.387 . S
C714 H718 0.950 . S
C714 C723 1.390 . S
C715 C714 1.387 . S
C715 C717 1.387 . S
H716 C723 0.950 . S
C717 C715 1.387 . S
C717 C719 1.390 . S
C717 H721 0.950 . S
H718 C714 0.950 . S
C719 C717 1.390 . S
C719 C720 1.387 . S
C719 H722 0.950 . S
C720 C719 1.387 . S
C720 C723 1.387 . S
H721 C717 0.950 . S
H722 C719 0.950 . S
C723 C714 1.390 . S
C723 H716 0.950 . S
C723 C720 1.387 . S
C724 C725 1.387 1_554 S
C724 H728 0.950 . S
C724 C733 1.390 1_565 S
C725 C724 1.387 1_556 S
C725 C727 1.387 . S
H726 C733 0.950 . S
C727 C725 1.387 . S
C727 C729 1.390 1_565 S
C727 H731 0.950 . S
H728 C724 0.950 . S
C729 C727 1.390 1_545 S
C729 C730 1.387 . S
C729 H732 0.950 . S
C730 C729 1.387 . S
C730 C733 1.387 1_556 S
H731 C727 0.950 . S
H732 C729 0.950 . S
C733 C724 1.390 1_545 S
C733 H726 0.950 . S
C733 C730 1.387 1_554 S
C734 C735 1.387 . S
C734 H738 0.950 . S
C734 C743 1.390 . S
C735 C734 1.387 . S
C735 C737 1.387 . S
H736 C743 0.950 . S
C737 C735 1.387 . S
C737 C739 1.390 . S
C737 H741 0.950 . S
H738 C734 0.950 . S
C739 C737 1.390 . S
C739 C740 1.387 . S
C739 H742 0.950 . S
C740 C739 1.387 . S
C740 C743 1.387 . S
H741 C737 0.950 . S
H742 C739 0.950 . S
C743 C734 1.390 . S
C743 H736 0.950 . S
C743 C740 1.387 . S
C744 C745 1.387 . S
C744 H748 0.950 . S
C744 C753 1.390 . S
C745 C744 1.387 . S
C745 C747 1.387 . S
H746 C753 0.950 . S
C747 C745 1.387 . S
C747 C749 1.390 . S
C747 H751 0.950 . S
H748 C744 0.950 . S
C749 C747 1.390 . S
C749 C750 1.387 . S
C749 H752 0.950 . S
C750 C749 1.387 . S
C750 C753 1.387 . S
H751 C747 0.950 . S
H752 C749 0.950 . S
C753 C744 1.390 . S
C753 H746 0.950 . S
C753 C750 1.387 . S
C754 C755 1.387 . S
C754 H758 0.950 . S
C754 C763 1.390 . S
C755 C754 1.387 . S
C755 C757 1.387 . S
H756 C763 0.950 . S
C757 C755 1.387 . S
C757 C759 1.390 . S
C757 H761 0.950 . S
H758 C754 0.950 . S
C759 C757 1.390 . S
C759 C760 1.387 . S
C759 H762 0.950 . S
C760 C759 1.387 . S
C760 C763 1.387 . S
H761 C757 0.950 . S
H762 C759 0.950 . S
C763 C754 1.390 . S
C763 H756 0.950 . S
C763 C760 1.387 . S
C764 C765 1.387 . S
C764 H768 0.950 . S
C764 C773 1.390 . S
C765 C764 1.387 . S
C765 C767 1.387 . S
H766 C773 0.950 . S
C767 C765 1.387 . S
C767 C769 1.390 . S
C767 H771 0.950 . S
H768 C764 0.950 . S
C769 C767 1.390 . S
C769 C770 1.387 . S
C769 H772 0.950 . S
C770 C769 1.387 . S
C770 C773 1.387 . S
H771 C767 0.950 . S
H772 C769 0.950 . S
C773 C764 1.390 . S
C773 H766 0.950 . S
C773 C770 1.387 . S
C774 C775 1.387 . S
C774 H778 0.950 . S
C774 C783 1.390 . S
C775 C774 1.387 . S
C775 C777 1.387 . S
H776 C783 0.950 . S
C777 C775 1.387 . S
C777 C779 1.390 . S
C777 H781 0.950 . S
H778 C774 0.950 . S
C779 C777 1.390 . S
C779 C780 1.387 . S
C779 H782 0.950 . S
C780 C779 1.387 . S
C780 C783 1.387 . S
H781 C777 0.950 . S
H782 C779 0.950 . S
C783 C774 1.390 . S
C783 H776 0.950 . S
C783 C780 1.387 . S
C784 C785 1.387 1_554 S
C784 H788 0.950 . S
C784 C793 1.390 . S
C785 C784 1.387 1_556 S
C785 C787 1.387 . S
H786 C793 0.950 . S
C787 C785 1.387 . S
C787 C789 1.390 . S
C787 H791 0.950 . S
H788 C784 0.950 . S
C789 C787 1.390 . S
C789 C790 1.387 1_556 S
C789 H792 0.950 . S
C790 C789 1.387 1_554 S
C790 C793 1.387 . S
H791 C787 0.950 . S
H792 C789 0.950 . S
C793 C784 1.390 . S
C793 H786 0.950 . S
C793 C790 1.387 . S
C794 C795 1.387 1_554 S
C794 H798 0.950 . S
C794 C803 1.390 . S
C795 C794 1.387 1_556 S
C795 C797 1.387 1_455 S
H796 C803 0.950 . S
C797 C795 1.387 1_655 S
C797 C799 1.390 . S
C797 H801 0.950 . S
H798 C794 0.950 . S
C799 C797 1.390 . S
C799 C800 1.400 1_556 S
C799 H802 0.950 . S
C800 C799 1.400 1_554 S
C800 C803 1.375 1_655 S
H801 C797 0.950 . S
H802 C799 0.950 . S
C803 C794 1.390 . S
C803 H796 0.950 . S
C803 C800 1.375 1_455 S
C804 C805 1.387 . S
C804 H808 0.950 . S
C804 C813 1.390 1_565 S
C805 C804 1.387 . S
C805 C807 1.387 . S
H806 C813 0.950 . S
C807 C805 1.387 . S
C807 C809 1.390 1_565 S
C807 H811 0.950 . S
H808 C804 0.950 . S
C809 C807 1.390 1_545 S
C809 C810 1.387 . S
C809 H812 0.950 . S
C810 C809 1.387 . S
C810 C813 1.387 . S
H811 C807 0.950 . S
H812 C809 0.950 . S
C813 C804 1.390 1_545 S
C813 H806 0.950 . S
C813 C810 1.387 . S
C814 C815 1.410 . S
C814 H818 0.950 . S
C814 C823 1.390 1_545 S
C815 C814 1.410 . S
C815 C817 1.364 1_655 S
H816 C823 0.950 . S
C817 C815 1.364 1_455 S
C817 C819 1.390 1_545 S
C817 H821 0.950 . S
H818 C814 0.950 . S
C819 C817 1.390 1_565 S
C819 C820 1.387 . S
C819 H822 0.950 . S
C820 C819 1.387 . S
C820 C823 1.387 1_455 S
H821 C817 0.950 . S
H822 C819 0.950 . S
C823 C814 1.390 1_565 S
C823 H816 0.950 . S
C823 C820 1.387 1_655 S
C824 C825 1.387 . S
C824 H828 0.950 . S
C824 C833 1.390 . S
C825 C824 1.387 . S
C825 C827 1.387 . S
H826 C833 0.950 . S
C827 C825 1.387 . S
C827 C829 1.390 . S
C827 H831 0.950 . S
H828 C824 0.950 . S
C829 C827 1.390 . S
C829 C830 1.387 . S
C829 H832 0.950 . S
C830 C829 1.387 . S
C830 C833 1.387 . S
H831 C827 0.950 . S
H832 C829 0.950 . S
C833 C824 1.390 . S
C833 H826 0.950 . S
C833 C830 1.387 . S
C834 C835 1.387 . S
C834 H838 0.950 . S
C834 C843 1.390 1_545 S
C835 C834 1.387 . S
C835 C837 1.387 . S
H836 C843 0.950 . S
C837 C835 1.387 . S
C837 C839 1.390 1_545 S
C837 H841 0.950 . S
H838 C834 0.950 . S
C839 C837 1.390 1_565 S
C839 C840 1.387 . S
C839 H842 0.950 . S
C840 C839 1.387 . S
C840 C843 1.387 . S
H841 C837 0.950 . S
H842 C839 0.950 . S
C843 C834 1.390 1_565 S
C843 H836 0.950 . S
C843 C840 1.387 . S
C844 C845 1.387 . S
C844 H848 0.950 . S
C844 C853 1.390 . S
C845 C844 1.387 . S
C845 C847 1.387 . S
H846 C853 0.950 . S
C847 C845 1.387 . S
C847 C849 1.390 . S
C847 H851 0.950 . S
H848 C844 0.950 . S
C849 C847 1.390 . S
C849 C850 1.387 . S
C849 H852 0.950 . S
C850 C849 1.387 . S
C850 C853 1.387 . S
H851 C847 0.950 . S
H852 C849 0.950 . S
C853 C844 1.390 . S
C853 H846 0.950 . S
C853 C850 1.387 . S
C854 C855 1.387 . S
C854 H858 0.950 . S
C854 C863 1.390 1_565 S
C855 C854 1.387 . S
C855 C857 1.387 . S
H856 C863 0.950 . S
C857 C855 1.387 . S
C857 C859 1.390 1_565 S
C857 H861 0.950 . S
H858 C854 0.950 . S
C859 C857 1.390 1_545 S
C859 C860 1.387 . S
C859 H862 0.950 . S
C860 C859 1.387 . S
C860 C863 1.387 . S
H861 C857 0.950 . S
H862 C859 0.950 . S
C863 C854 1.390 1_545 S
C863 H856 0.950 . S
C863 C860 1.387 . S
C705 C49 2.299 . S
C710 C137 2.299 . S
C715 C284 2.299 . S
C720 C205 2.299 . S
C725 C401 2.310 . S
C730 C489 2.310 . S
C735 C557 2.311 . S
C740 C636 2.311 . S
C745 C29 1.636 . S
C750 C225 1.636 . S
C755 C321 1.636 . S
C760 C117 1.636 . S
C765 C409 1.635 . S
C770 C548 1.635 . S
C775 C645 1.634 . S
C780 C497 1.634 . S
C785 C20 2.679 1_556 S
C790 C372 2.671 1_554 S
C795 C108 2.679 1_556 S
C800 C460 2.681 1_554 S
C805 C585 2.672 . S
C810 C233 2.680 . S
C815 C665 2.680 . S
C820 C313 2.679 . S
C825 C145 0.299 . S
C830 C57 0.299 . S
C835 C196 0.295 . S
C840 C293 0.295 . S
C845 C381 0.299 . S
C850 C469 0.299 . S
C855 C577 0.302 . S
C860 C673 0.302 . S
