# Generated by pormake.
# Topology wje, (4)-cn, num edge types: 1
# Building blocks:
#     Node 0, Type 0, BuildingBlock: AZAVOO_clean_sbu_0, # of connection points: 4
#     Node 1, Type 0, BuildingBlock: AZAVOO_clean_sbu_0, # of connection points: 4
#     Node 2, Type 0, BuildingBlock: AZAVOO_clean_sbu_0, # of connection points: 4
#     Node 3, Type 0, BuildingBlock: AZAVOO_clean_sbu_0, # of connection points: 4
#     Node 4, Type 0, BuildingBlock: AZAVOO_clean_sbu_0, # of connection points: 4
#     Node 5, Type 0, BuildingBlock: AZAVOO_clean_sbu_0, # of connection points: 4
#     Node 6, Type 0, BuildingBlock: AZAVOO_clean_sbu_0, # of connection points: 4
#     Node 7, Type 0, BuildingBlock: AZAVOO_clean_sbu_0, # of connection points: 4
#     Node 8, Type 0, BuildingBlock: AZAVOO_clean_sbu_0, # of connection points: 4
#     Node 9, Type 0, BuildingBlock: AZAVOO_clean_sbu_0, # of connection points: 4
#     Node 10, Type 0, BuildingBlock: AZAVOO_clean_sbu_0, # of connection points: 4
#     Node 11, Type 0, BuildingBlock: AZAVOO_clean_sbu_0, # of connection points: 4
#     Edge 12, Type (0, 0), BuildingBlock: CIFDUS_clean_linker_0, # of connection points: 2
#     Edge 13, Type (0, 0), BuildingBlock: CIFDUS_clean_linker_0, # of connection points: 2
#     Edge 14, Type (0, 0), BuildingBlock: CIFDUS_clean_linker_0, # of connection points: 2
#     Edge 15, Type (0, 0), BuildingBlock: CIFDUS_clean_linker_0, # of connection points: 2
#     Edge 16, Type (0, 0), BuildingBlock: CIFDUS_clean_linker_0, # of connection points: 2
#     Edge 17, Type (0, 0), BuildingBlock: CIFDUS_clean_linker_0, # of connection points: 2
#     Edge 18, Type (0, 0), BuildingBlock: CIFDUS_clean_linker_0, # of connection points: 2
#     Edge 19, Type (0, 0), BuildingBlock: CIFDUS_clean_linker_0, # of connection points: 2
#     Edge 20, Type (0, 0), BuildingBlock: CIFDUS_clean_linker_0, # of connection points: 2
#     Edge 21, Type (0, 0), BuildingBlock: CIFDUS_clean_linker_0, # of connection points: 2
#     Edge 22, Type (0, 0), BuildingBlock: CIFDUS_clean_linker_0, # of connection points: 2
#     Edge 23, Type (0, 0), BuildingBlock: CIFDUS_clean_linker_0, # of connection points: 2
#     Edge 24, Type (0, 0), BuildingBlock: CIFDUS_clean_linker_0, # of connection points: 2
#     Edge 25, Type (0, 0), BuildingBlock: CIFDUS_clean_linker_0, # of connection points: 2
#     Edge 26, Type (0, 0), BuildingBlock: CIFDUS_clean_linker_0, # of connection points: 2
#     Edge 27, Type (0, 0), BuildingBlock: CIFDUS_clean_linker_0, # of connection points: 2
#     Edge 28, Type (0, 0), BuildingBlock: CIFDUS_clean_linker_0, # of connection points: 2
#     Edge 29, Type (0, 0), BuildingBlock: CIFDUS_clean_linker_0, # of connection points: 2
#     Edge 30, Type (0, 0), BuildingBlock: CIFDUS_clean_linker_0, # of connection points: 2
#     Edge 31, Type (0, 0), BuildingBlock: CIFDUS_clean_linker_0, # of connection points: 2
#     Edge 32, Type (0, 0), BuildingBlock: CIFDUS_clean_linker_0, # of connection points: 2
#     Edge 33, Type (0, 0), BuildingBlock: CIFDUS_clean_linker_0, # of connection points: 2
#     Edge 34, Type (0, 0), BuildingBlock: CIFDUS_clean_linker_0, # of connection points: 2
#     Edge 35, Type (0, 0), BuildingBlock: CIFDUS_clean_linker_0, # of connection points: 2
# Relax obj value: 0.158
# Max RMSD: 0.139
# Mean RMSD: 0.138
data_MOF--net-wje--node1-AZAVOO_clean_sbu_0--edge1-CIFDUS_clean_linker_0
_symmetry_space_group_name_H-M    P1
_symmetry_Int_Tables_number       1
_symmetry_cell_setting            triclinic
loop_
_symmetry_equiv_pos_as_xyz
'x, y, z'
_cell_length_a     38.824922
_cell_length_b     38.654686
_cell_length_c     25.815732
_cell_angle_alpha  90.285342
_cell_angle_beta   89.747869
_cell_angle_gamma 120.45372
loop_
_atom_site_label
_atom_site_type_symbol
_atom_site_fract_x
_atom_site_fract_y
_atom_site_fract_z
_atom_type_partial_charge
Mg0 Mg 0.32137 0.96011 0.20757 0.0
O1 O 0.32755 0.96661 0.29543 0.0
O2 O 0.38269 0.02406 0.31591 0.0
Mg3 Mg 0.41464 0.05303 0.23968 0.0
C4 C 0.35119 0.9916 0.32891 0.0
C5 C 0.24427 0.87981 0.24498 0.0
O6 O 0.27094 0.86984 0.25706 0.0
O7 O 0.30511 0.00956 0.20079 0.0
O8 O 0.36487 0.06433 0.21483 0.0
O9 O 0.35762 0.92926 0.20779 0.0
O10 O 0.38366 0.99448 0.1992 0.0
C11 C 0.32793 0.04764 0.20327 0.0
C12 C 0.38915 0.96454 0.20341 0.0
O13 O 0.25564 0.91276 0.22146 0.0
Mg14 Mg 0.31743 0.32031 0.58141 0.0
O15 O 0.32179 0.32993 0.66908 0.0
O16 O 0.33761 0.39285 0.68765 0.0
Mg17 Mg 0.33668 0.42146 0.61093 0.0
C18 C 0.33029 0.35815 0.70136 0.0
C19 C 0.31273 0.23859 0.57818 0.0
O20 O 0.34108 0.25931 0.54421 0.0
O21 O 0.25476 0.31174 0.58089 0.0
O22 O 0.2706 0.3748 0.59813 0.0
O23 O 0.38372 0.34723 0.57763 0.0
O24 O 0.35367 0.38241 0.56941 0.0
C25 C 0.24478 0.3382 0.58814 0.0
C26 C 0.38644 0.38184 0.57298 0.0
O27 O 0.29408 0.25445 0.59822 0.0
Mg28 Mg 0.02113 0.3403 0.94315 0.0
O29 O 0.99562 0.3278 0.02476 0.0
O30 O 0.93851 0.32831 0.0277 0.0
Mg31 Mg 0.92887 0.34431 0.94542 0.0
C32 C 0.96553 0.32407 0.04966 0.0
C33 C 0.08492 0.31094 0.94186 0.0
O34 O 0.0826 0.31227 0.89122 0.0
O35 O 0.97366 0.2773 0.91628 0.0
O36 O 0.92047 0.28529 0.91249 0.0
O37 O 0.05483 0.40594 0.96035 0.0
O38 O 0.99363 0.37429 0.92865 0.0
C39 C 0.93713 0.26445 0.9051 0.0
C40 C 0.02347 0.40704 0.94617 0.0
O41 O 0.06327 0.31932 0.97012 0.0
Mg42 Mg 0.69061 0.04299 0.20162 0.0
O43 O 0.68431 0.03849 0.28974 0.0
O44 O 0.62922 0.98182 0.3125 0.0
Mg45 Mg 0.59883 0.94971 0.23718 0.0
C46 C 0.66065 0.01476 0.32418 0.0
C47 C 0.76446 0.12694 0.23443 0.0
O48 O 0.73628 0.1361 0.23863 0.0
O49 O 0.70872 0.99473 0.19687 0.0
O50 O 0.65075 0.93995 0.2177 0.0
O51 O 0.65327 0.07226 0.20063 0.0
O52 O 0.6282 0.00695 0.19375 0.0
C53 C 0.68745 0.9569 0.20436 0.0
C54 C 0.62213 0.03661 0.19744 0.0
O55 O 0.75551 0.09268 0.21622 0.0
Mg56 Mg 0.64535 0.66591 0.57744 0.0
O57 O 0.65159 0.66052 0.66436 0.0
O58 O 0.6488 0.6024 0.67983 0.0
Mg59 Mg 0.63418 0.56763 0.60295 0.0
C60 C 0.65285 0.63566 0.69537 0.0
C61 C 0.65002 0.74674 0.56584 0.0
O62 O 0.62282 0.72397 0.53164 0.0
O63 O 0.70791 0.67608 0.56002 0.0
O64 O 0.69421 0.6126 0.56662 0.0
O65 O 0.57926 0.63739 0.58681 0.0
O66 O 0.60966 0.60333 0.57077 0.0
C67 C 0.71766 0.64928 0.55454 0.0
C68 C 0.57697 0.60307 0.58024 0.0
O69 O 0.66817 0.73229 0.59024 0.0
Mg70 Mg 0.9858 0.6552 0.91032 0.0
O71 O -0.00124 0.67301 0.99487 0.0
O72 O 0.05471 0.67557 0.02022 0.0
Mg73 Mg 0.07619 0.65502 0.94937 0.0
C74 C 0.0246 0.67954 0.02953 0.0
C75 C 0.90604 0.65344 0.89473 0.0
O76 O 0.90008 0.62264 0.86621 0.0
O77 O 0.03601 0.71662 0.88303 0.0
O78 O 0.08869 0.70989 0.90095 0.0
O79 O 0.95075 0.59064 0.9327 0.0
O80 O 0.01538 0.62233 0.91569 0.0
C81 C 0.0734 0.72924 0.88107 0.0
C82 C 0.98366 0.58989 0.92993 0.0
O83 O 0.94018 0.67548 0.91493 0.0
Mg84 Mg 0.0106 0.68942 0.4593 0.0
O85 O 0.01765 0.69942 0.37098 0.0
O86 O 0.96578 0.64458 0.33636 0.0
Mg87 Mg 0.92926 0.59889 0.39868 0.0
C88 C 0.99717 0.67908 0.33191 0.0
C89 C 0.0785 0.78791 0.45528 0.0
O90 O 0.09085 0.82239 0.47895 0.0
O91 O 0.95672 0.69843 0.46299 0.0
O92 O 0.90832 0.64052 0.43039 0.0
O93 O 0.04764 0.65954 0.45635 0.0
O94 O 0.98224 0.62757 0.44838 0.0
C95 C 0.92015 0.67473 0.45131 0.0
C96 C 0.01452 0.62613 0.44842 0.0
O97 O 0.05078 0.75631 0.47638 0.0
Mg98 Mg 0.33714 0.00514 0.75652 0.0
O99 O 0.33842 0.99618 0.66946 0.0
O100 O 0.33844 0.93981 0.65123 0.0
Mg101 Mg 0.33899 0.91298 0.73003 0.0
C102 C 0.33875 0.97149 0.63694 0.0
C103 C 0.29292 0.05743 0.74654 0.0
O104 O 0.26589 0.03322 0.77993 0.0
O105 O 0.27129 0.95609 0.76303 0.0
O106 O 0.27646 0.90175 0.74933 0.0
O107 O 0.40364 0.03777 0.75665 0.0
O108 O 0.36602 0.97239 0.76894 0.0
C109 C 0.2557 0.91806 0.75986 0.0
C110 C 0.40114 0.00337 0.76312 0.0
O111 O 0.3222 0.05286 0.73495 0.0
Mg112 Mg 0.34281 0.32394 0.10806 0.0
O113 O 0.35775 0.33173 0.02168 0.0
O114 O 0.41956 0.34344 0.00798 0.0
Mg115 Mg 0.44144 0.33563 0.08663 0.0
C116 C 0.38692 0.3397 0.99153 0.0
C117 C 0.25575 0.31134 0.11193 0.0
O118 O 0.26696 0.32643 0.15868 0.0
O119 O 0.32933 0.25916 0.10542 0.0
O120 O 0.39073 0.26966 0.09041 0.0
O121 O 0.37388 0.3907 0.11612 0.0
O122 O 0.40393 0.35562 0.12619 0.0
C123 C 0.35326 0.24615 0.09739 0.0
C124 C 0.40659 0.39016 0.1233 0.0
O125 O 0.27933 0.30533 0.08424 0.0
Mg126 Mg 0.9744 0.33885 0.46878 0.0
O127 O 0.98283 0.33093 0.38244 0.0
O128 O 0.03906 0.38702 0.3595 0.0
Mg129 Mg 0.0613 0.43318 0.42519 0.0
C130 C 0.00975 0.35208 0.34919 0.0
C131 C 0.91175 0.2378 0.45956 0.0
O132 O 0.89959 0.2048 0.48642 0.0
O133 O 0.02887 0.33381 0.49168 0.0
O134 O 0.07898 0.39573 0.47381 0.0
O135 O 0.93621 0.36654 0.45006 0.0
O136 O 0.00136 0.40052 0.45896 0.0
C137 C 0.0657 0.36103 0.4935 0.0
C138 C 0.96924 0.40083 0.44916 0.0
O139 O 0.93544 0.27113 0.48135 0.0
Mg140 Mg 0.67733 0.01494 0.75254 0.0
O141 O 0.67529 0.02146 0.66476 0.0
O142 O 0.67486 0.07705 0.64359 0.0
Mg143 Mg 0.67636 0.10706 0.72089 0.0
C144 C 0.67441 0.0449 0.631 0.0
C145 C 0.66579 0.93836 0.7048 0.0
O146 O 0.63494 0.94111 0.69002 0.0
O147 O 0.74354 0.06363 0.75555 0.0
O148 O 0.73899 0.11777 0.73751 0.0
O149 O 0.61088 0.98341 0.75579 0.0
O150 O 0.64944 0.04915 0.76283 0.0
C151 C 0.7595 0.10143 0.74884 0.0
C152 C 0.61399 0.01826 0.75973 0.0
O153 O 0.6909 0.96473 0.73579 0.0
Mg154 Mg 0.66987 0.67248 0.10528 0.0
O155 O 0.65675 0.67667 0.02034 0.0
O156 O 0.60083 0.67884 0.0117 0.0
Mg157 Mg 0.57579 0.6728 0.09418 0.0
C158 C 0.63107 0.67882 0.99221 0.0
C159 C 0.73272 0.6656 0.04337 0.0
O160 O 0.69834 0.63581 0.02719 0.0
O161 O 0.68878 0.73842 0.12048 0.0
O162 O 0.62876 0.73343 0.11998 0.0
O163 O 0.63451 0.60568 0.10057 0.0
O164 O 0.60794 0.64257 0.12139 0.0
C165 C 0.66653 0.75364 0.12672 0.0
C166 C 0.603 0.60762 0.11155 0.0
O167 O 0.73275 0.68806 0.07964 0.0
H168 H 0.34478 0.08146 0.11053 0.0
H169 H 0.28418 0.07535 0.2531 0.0
H170 H 0.27984 0.13417 0.22728 0.0
H171 H 0.30447 0.19394 0.17084 0.0
H172 H 0.37164 0.20247 0.03325 0.0
H173 H 0.36167 0.13581 0.04942 0.0
C174 C 0.32938 0.09228 0.13497 0.0
C175 C 0.31441 0.07421 0.18318 0.0
C176 C 0.32874 0.12689 0.12086 0.0
C177 C 0.29527 0.08863 0.2154 0.0
C178 C 0.29324 0.12246 0.20083 0.0
C179 C 0.31573 0.1805 0.14367 0.0
C180 C 0.33878 0.20287 0.10095 0.0
C181 C 0.31143 0.14284 0.15462 0.0
C182 C 0.3539 0.18568 0.06638 0.0
C183 C 0.34835 0.14771 0.07575 0.0
H184 H 0.21093 0.38065 0.61954 0.0
H185 H 0.18563 0.27433 0.53367 0.0
H186 H 0.12354 0.26835 0.50138 0.0
H187 H 0.082 0.29989 0.48733 0.0
H188 H 0.11263 0.40949 0.56869 0.0
H189 H 0.1669 0.40765 0.613 0.0
C190 C 0.19158 0.35574 0.59439 0.0
C191 C 0.20325 0.32844 0.57831 0.0
C192 C 0.15702 0.35344 0.57458 0.0
C193 C 0.17742 0.29591 0.54651 0.0
C194 C 0.14208 0.29269 0.52765 0.0
C195 C 0.10018 0.32276 0.51555 0.0
C196 C 0.09383 0.355 0.52457 0.0
C197 C 0.13239 0.32224 0.53979 0.0
C198 C 0.11747 0.38469 0.56091 0.0
C199 C 0.14844 0.38365 0.58624 0.0
H200 H 0.80063 0.09712 0.83097 0.0
H201 H 0.81213 0.16804 0.6966 0.0
H202 H 0.87423 0.22374 0.73053 0.0
H203 H 0.91698 0.25635 0.80559 0.0
H204 H 0.90356 0.18826 0.94324 0.0
H205 H 0.85078 0.12717 0.90115 0.0
C206 C 0.81765 0.12424 0.80836 0.0
C207 C 0.80192 0.1287 0.76151 0.0
C208 C 0.85248 0.15686 0.82932 0.0
C209 C 0.82375 0.16412 0.7328 0.0
C210 C 0.85906 0.19604 0.75237 0.0
C211 C 0.90327 0.22776 0.82559 0.0
C212 C 0.9138 0.22638 0.87708 0.0
C213 C 0.87247 0.19343 0.80169 0.0
C214 C 0.89591 0.18961 0.90329 0.0
C215 C 0.8656 0.15489 0.87935 0.0
H216 H 0.70896 0.82898 0.08496 0.0
H217 H 0.65723 0.76461 0.22663 0.0
H218 H 0.66676 0.82572 0.26803 0.0
H219 H 0.67799 0.89351 0.2585 0.0
H220 H 0.72852 0.95891 0.11727 0.0
H221 H 0.73248 0.90212 0.08147 0.0
C222 C 0.70114 0.82892 0.12535 0.0
C223 C 0.68241 0.79262 0.15293 0.0
C224 C 0.70614 0.86425 0.14874 0.0
C225 C 0.67182 0.79242 0.20499 0.0
C226 C 0.67706 0.82726 0.22854 0.0
C227 C 0.69121 0.89579 0.22062 0.0
C228 C 0.70269 0.93003 0.19039 0.0
C229 C 0.69252 0.86284 0.20009 0.0
C230 C 0.71977 0.93286 0.14137 0.0
C231 C 0.72152 0.90017 0.12065 0.0
H232 H 0.84487 0.64112 0.41536 0.0
H233 H 0.92578 0.72915 0.52497 0.0
H234 H 0.87024 0.73325 0.56388 0.0
H235 H 0.79665 0.70422 0.57408 0.0
H236 H 0.71738 0.61295 0.46656 0.0
H237 H 0.7741 0.61777 0.41949 0.0
C238 C 0.85058 0.6617 0.44729 0.0
C239 C 0.88926 0.68426 0.46772 0.0
C240 C 0.81853 0.66294 0.47029 0.0
C241 C 0.8962 0.71129 0.50854 0.0
C242 C 0.86437 0.7134 0.53111 0.0
C243 C 0.79214 0.68611 0.53978 0.0
C244 C 0.75313 0.65802 0.52386 0.0
C245 C 0.82512 0.68825 0.5135 0.0
C246 C 0.7473 0.63446 0.47959 0.0
C247 C 0.77965 0.63719 0.45269 0.0
H248 H 0.20653 0.84234 0.72753 0.0
H249 H 0.21167 0.93302 0.83033 0.0
H250 H 0.15076 0.88242 0.8742 0.0
H251 H 0.10291 0.8101 0.89238 0.0
H252 H 0.10158 0.72062 0.79079 0.0
H253 H 0.15377 0.77277 0.73725 0.0
C254 C 0.19376 0.85121 0.75874 0.0
C255 C 0.21383 0.89113 0.77619 0.0
C256 C 0.15965 0.82191 0.78454 0.0
C257 C 0.19673 0.90239 0.81618 0.0
C258 C 0.16215 0.87336 0.84166 0.0
C259 C 0.11351 0.80238 0.85776 0.0
C260 C 0.09888 0.76185 0.84539 0.0
C261 C 0.14436 0.8327 0.82764 0.0
C262 C 0.11275 0.75179 0.80083 0.0
C263 C 0.14259 0.78153 0.77033 0.0
H264 H 0.45933 0.03573 0.2005 0.0
H265 H 0.41159 0.90784 0.20753 0.0
H266 H 0.4795 0.91891 0.20577 0.0
H267 H 0.55195 0.96491 0.2002 0.0
H268 H 0.59939 0.09291 0.19958 0.0
H269 H 0.53155 0.0817 0.20111 0.0
C270 C 0.46352 0.01018 0.20263 0.0
C271 C 0.4302 0.97097 0.20465 0.0
C272 C 0.50255 0.01682 0.20254 0.0
C273 C 0.4366 0.93833 0.20621 0.0
C274 C 0.47544 0.94465 0.20513 0.0
C275 C 0.54768 0.99046 0.20125 0.0
C276 C 0.58094 0.02977 0.20016 0.0
C277 C 0.50861 0.98378 0.20312 0.0
C278 C 0.57446 0.06237 0.20057 0.0
C279 C 0.53565 0.05597 0.20141 0.0
H280 H 0.56396 0.52682 0.5828 0.0
H281 H 0.50263 0.59382 0.58127 0.0
H282 H 0.43843 0.5313 0.5777 0.0
H283 H 0.40024 0.45822 0.57162 0.0
H284 H 0.46078 0.39063 0.57928 0.0
H285 H 0.5252 0.45316 0.583 0.0
C286 C 0.53664 0.52786 0.58228 0.0
C287 C 0.5382 0.56504 0.58233 0.0
C288 C 0.4998 0.49178 0.58083 0.0
C289 C 0.50233 0.56565 0.58148 0.0
C290 C 0.4656 0.52991 0.57921 0.0
C291 C 0.4273 0.45691 0.57506 0.0
C292 C 0.42549 0.41964 0.57569 0.0
C293 C 0.46404 0.49286 0.57846 0.0
C294 C 0.46123 0.41887 0.57887 0.0
C295 C 0.49808 0.45461 0.58107 0.0
H296 H 0.04874 0.58152 0.94305 0.0
H297 H 0.91987 0.514 0.93837 0.0
H298 H 0.9206 0.45138 0.94459 0.0
H299 H 0.95797 0.41581 0.94571 0.0
H300 H 0.08666 0.48322 0.95409 0.0
H301 H 0.08585 0.54598 0.95237 0.0
C302 C 0.02079 0.55319 0.944 0.0
C303 C 0.98433 0.55253 0.93989 0.0
C304 C 0.0214 0.51726 0.94791 0.0
C305 C 0.94839 0.51544 0.94149 0.0
C306 C 0.94876 0.47956 0.94482 0.0
C307 C 0.98582 0.44412 0.94752 0.0
C308 C 0.02232 0.44471 0.94952 0.0
C309 C 0.98511 0.48009 0.94712 0.0
C310 C 0.05812 0.48185 0.95248 0.0
C311 C 0.05771 0.51779 0.95135 0.0
H312 H 0.94874 0.55214 0.43417 0.0
H313 H 0.0772 0.61278 0.44772 0.0
H314 H 0.07431 0.54819 0.44535 0.0
H315 H 0.03516 0.47517 0.4467 0.0
H316 H 0.90681 0.41373 0.43234 0.0
H317 H 0.90985 0.47852 0.42741 0.0
C318 C 0.97623 0.55142 0.43566 0.0
C319 C 0.01319 0.58741 0.44122 0.0
C320 C 0.97432 0.51414 0.43447 0.0
C321 C 0.04839 0.58565 0.44354 0.0
C322 C 0.04674 0.5487 0.44229 0.0
C323 C 0.0078 0.47562 0.44132 0.0
C324 C 0.97077 0.43942 0.43975 0.0
C325 C 0.00983 0.51281 0.43874 0.0
C326 C 0.93569 0.44104 0.43357 0.0
C327 C 0.93744 0.47809 0.43093 0.0
H328 H 0.53641 0.95848 0.76092 0.0
H329 H 0.61091 0.08752 0.75754 0.0
H330 H 0.55176 0.09415 0.75611 0.0
H331 H 0.47874 0.06337 0.7573 0.0
H332 H 0.40459 0.93449 0.76691 0.0
H333 H 0.46364 0.92784 0.76436 0.0
C334 C 0.53976 0.98808 0.75964 0.0
C335 C 0.57814 0.02241 0.75861 0.0
C336 C 0.5056 0.99174 0.75999 0.0
C337 C 0.58185 0.06052 0.75763 0.0
C338 C 0.54797 0.06438 0.75703 0.0
C339 C 0.47547 0.03381 0.75862 0.0
C340 C 0.43715 0.99948 0.76151 0.0
C341 C 0.50969 0.0302 0.75832 0.0
C342 C 0.43355 0.96144 0.76387 0.0
C343 C 0.46739 0.95758 0.76265 0.0
H344 H 0.42246 0.46715 0.11256 0.0
H345 H 0.4799 0.39762 0.13524 0.0
H346 H 0.54518 0.45825 0.13086 0.0
H347 H 0.58634 0.53107 0.12087 0.0
H348 H 0.52962 0.60172 0.10472 0.0
H349 H 0.46394 0.54084 0.10644 0.0
C350 C 0.44925 0.46526 0.11659 0.0
C351 C 0.44611 0.42763 0.12313 0.0
C352 C 0.48695 0.50054 0.11522 0.0
C353 C 0.48121 0.4259 0.12896 0.0
C354 C 0.5187 0.46067 0.12675 0.0
C355 C 0.55962 0.53317 0.11746 0.0
C356 C 0.56298 0.57093 0.11215 0.0
C357 C 0.52194 0.49811 0.11966 0.0
C358 C 0.52802 0.57313 0.10866 0.0
C359 C 0.49037 0.53825 0.10967 0.0
H360 H 0.09069 0.8348 0.37314 0.0
H361 H 0.11173 0.74254 0.42957 0.0
H362 H 0.16272 0.75933 0.36236 0.0
H363 H 0.20957 0.80914 0.29902 0.0
H364 H 0.18742 0.90141 0.24382 0.0
H365 H 0.1282 0.87528 0.29827 0.0
C366 C 0.10551 0.81748 0.36945 0.0
C367 C 0.09793 0.78779 0.40621 0.0
C368 C 0.1351 0.82784 0.33152 0.0
C369 C 0.11706 0.76538 0.40135 0.0
C370 C 0.14654 0.77537 0.36336 0.0
C371 C 0.19129 0.82298 0.29801 0.0
C372 C 0.20367 0.85791 0.26832 0.0
C373 C 0.15719 0.80794 0.32994 0.0
C374 C 0.17913 0.87494 0.2668 0.0
C375 C 0.1452 0.86007 0.2981 0.0
H376 H 0.26697 0.19527 0.66053 0.0
H377 H 0.34782 0.19717 0.54354 0.0
H378 H 0.34758 0.14052 0.58481 0.0
H379 H 0.32842 0.09377 0.65683 0.0
H380 H 0.24759 0.09071 0.77443 0.0
H381 H 0.24382 0.14464 0.73004 0.0
C382 C 0.2841 0.18294 0.64364 0.0
C383 C 0.30766 0.20071 0.59919 0.0
C384 C 0.28424 0.15055 0.66798 0.0
C385 C 0.32961 0.18428 0.57783 0.0
C386 C 0.32963 0.15196 0.60151 0.0
C387 C 0.30995 0.10487 0.67291 0.0
C388 C 0.2888 0.08872 0.71933 0.0
C389 C 0.3078 0.13551 0.64716 0.0
C390 C 0.26436 0.10285 0.73894 0.0
C391 C 0.26222 0.13365 0.71357 0.0
H392 H 0.23168 0.29482 0.01142 0.0
H393 H 0.19628 0.31696 0.16102 0.0
H394 H 0.13847 0.31559 0.12184 0.0
H395 H 0.10095 0.31308 0.04458 0.0
H396 H 0.13769 0.29365 0.89435 0.0
H397 H 0.19192 0.28871 0.93453 0.0
C398 C 0.21109 0.29888 0.03563 0.0
C399 C 0.21848 0.30621 0.08911 0.0
C400 C 0.1783 0.29879 0.01271 0.0
C401 C 0.19146 0.31147 0.11977 0.0
C402 C 0.15841 0.31075 0.09738 0.0
C403 C 0.12054 0.30739 0.02054 0.0
C404 C 0.11537 0.30404 0.9664 0.0
C405 C 0.152 0.30522 0.04377 0.0
C406 C 0.14105 0.29654 0.93604 0.0
C407 C 0.17212 0.29377 0.959 0.0
H408 H 0.90771 0.18632 0.38678 0.0
H409 H 0.88011 0.27954 0.41467 0.0
H410 H 0.83497 0.25654 0.33978 0.0
H411 H 0.79386 0.2014 0.27824 0.0
H412 H 0.82231 0.10817 0.25217 0.0
H413 H 0.877 0.14004 0.31382 0.0
C414 C 0.89281 0.20242 0.37529 0.0
C415 C 0.89668 0.23416 0.40629 0.0
C416 C 0.86645 0.18847 0.33315 0.0
C417 C 0.87759 0.25507 0.39115 0.0
C418 C 0.85141 0.24156 0.34876 0.0
C419 C 0.81261 0.18856 0.28512 0.0
C420 C 0.80318 0.15177 0.26152 0.0
C421 C 0.84403 0.20693 0.32124 0.0
C422 C 0.82833 0.13605 0.27022 0.0
C423 C 0.85964 0.1542 0.30569 0.0
H424 H 0.69398 0.79579 0.64585 0.0
H425 H 0.61583 0.78532 0.52052 0.0
H426 H 0.61545 0.84466 0.5517 0.0
H427 H 0.63307 0.89633 0.61747 0.0
H428 H 0.71123 0.90824 0.74317 0.0
H429 H 0.71596 0.85148 0.70876 0.0
C430 C 0.6773 0.8068 0.62497 0.0
C431 C 0.65464 0.78584 0.58114 0.0
C432 C 0.67685 0.84087 0.64345 0.0
C433 C 0.6333 0.80063 0.55451 0.0
C434 C 0.63295 0.83453 0.57239 0.0
C435 C 0.65121 0.88658 0.63742 0.0
C436 C 0.67126 0.90598 0.68325 0.0
C437 C 0.65384 0.85427 0.6174 0.0
C438 C 0.69532 0.89357 0.70798 0.0
C439 C 0.69797 0.86113 0.68834 0.0
H440 H 0.7397 0.63306 0.95399 0.0
H441 H 0.80978 0.71335 0.07754 0.0
H442 H 0.87067 0.71997 0.03915 0.0
H443 H 0.90292 0.69868 0.97408 0.0
H444 H 0.83169 0.61699 0.85216 0.0
H445 H 0.7723 0.61568 0.88606 0.0
C446 C 0.76829 0.65211 0.97258 0.0
C447 C 0.77015 0.67221 0.01901 0.0
C448 C 0.80294 0.65559 0.9505 0.0
C449 C 0.80752 0.69735 0.04197 0.0
C450 C 0.84231 0.70111 0.02005 0.0
C451 C 0.87454 0.6811 0.95441 0.0
C452 C 0.87172 0.65774 0.91078 0.0
C453 C 0.84026 0.67982 0.97477 0.0
C454 C 0.83467 0.63505 0.88593 0.0
C455 C 0.80065 0.63416 0.9054 0.0
H456 H 0.3743 0.04291 0.4109 0.0
H457 H 0.30951 0.91701 0.37139 0.0
H458 H 0.29983 0.8994 0.46317 0.0
H459 H 0.31191 0.9198 0.55498 0.0
H460 H 0.37272 0.04575 0.59412 0.0
H461 H 0.38169 0.06326 0.50241 0.0
C462 C 0.35796 0.01165 0.42244 0.0
C463 C 0.343 0.98136 0.38445 0.0
C464 C 0.35187 1.00171 0.47527 0.0
C465 C 0.32134 0.94094 0.39991 0.0
C466 C 0.3159 0.93081 0.45239 0.0
C467 C 0.32703 0.95104 0.54333 0.0
C468 C 0.34194 0.98141 0.58123 0.0
C469 C 0.3314 0.96094 0.49044 0.0
C470 C 0.36094 0.02178 0.56567 0.0
C471 C 0.3662 0.03186 0.51322 0.0
H472 H 0.31918 0.30617 0.93423 0.0
H473 H 0.44624 0.38869 0.92499 0.0
H474 H 0.43954 0.4032 0.8347 0.0
H475 H 0.39727 0.39282 0.75847 0.0
H476 H 0.2714 0.30611 0.76532 0.0
H477 H 0.2776 0.29289 0.85669 0.0
C478 C 0.34537 0.32726 0.91235 0.0
C479 C 0.38311 0.34649 0.93617 0.0
C480 C 0.34139 0.33483 0.86026 0.0
C481 C 0.41691 0.37338 0.90732 0.0
C482 C 0.41307 0.38184 0.85584 0.0
C483 C 0.37131 0.37123 0.78033 0.0
C484 C 0.33387 0.35083 0.75616 0.0
C485 C 0.37545 0.36289 0.83202 0.0
C486 C 0.30038 0.32227 0.78383 0.0
C487 C 0.30397 0.31471 0.83581 0.0
H488 H 0.94194 0.31704 0.29207 0.0
H489 H 0.06784 0.35784 0.28526 0.0
H490 H 0.06358 0.34713 0.19158 0.0
H491 H 0.02641 0.33488 0.11132 0.0
H492 H 0.90208 0.3012 0.116 0.0
H493 H 0.9032 0.30014 0.2108 0.0
C494 C 0.96813 0.32261 0.27005 0.0
C495 C 0.00516 0.33812 0.29517 0.0
C496 C 0.96584 0.31831 0.21584 0.0
C497 C 0.0391 0.3459 0.26646 0.0
C498 C 0.03669 0.33998 0.21298 0.0
C499 C -0.0007 0.32669 0.1329 0.0
C500 C 0.96429 0.31846 0.10653 0.0
C501 C 0.00057 0.32757 0.18713 0.0
C502 C 0.92954 0.30804 0.13532 0.0
C503 C 0.93017 0.30745 0.18952 0.0
H504 H 0.6376 0.96621 0.40846 0.0
H505 H 0.70243 0.09073 0.36322 0.0
H506 H 0.71244 0.1113 0.45415 0.0
H507 H 0.70079 0.09385 0.5468 0.0
H508 H 0.63979 0.96925 0.59158 0.0
H509 H 0.63041 0.9488 0.50081 0.0
C510 C 0.654 0.99783 0.41856 0.0
C511 C 0.6689 0.02687 0.37922 0.0
C512 C 0.66027 0.00945 0.47089 0.0
C513 C 0.69065 0.06775 0.39283 0.0
C514 C 0.69627 0.07957 0.44481 0.0
C515 C 0.68551 0.06226 0.53657 0.0
C516 C 0.67073 0.03313 0.57582 0.0
C517 C 0.68087 0.05068 0.48419 0.0
C518 C 0.65152 0.99228 0.56211 0.0
C519 C 0.64601 0.98053 0.51018 0.0
H520 H 0.66948 0.64809 0.9383 0.0
H521 H 0.60087 0.70661 0.91817 0.0
H522 H 0.6046 0.70134 0.82397 0.0
H523 H 0.62439 0.67688 0.74773 0.0
H524 H 0.6877 0.61301 0.7689 0.0
H525 H 0.68936 0.62389 0.86257 0.0
C526 C 0.65571 0.66013 0.91337 0.0
C527 C 0.63508 0.67791 0.93523 0.0
C528 C 0.65694 0.65587 0.85951 0.0
C529 C 0.61686 0.69275 0.9023 0.0
C530 C 0.619 0.68974 0.84849 0.0
C531 C 0.63894 0.66576 0.77285 0.0
C532 C 0.6561 0.64436 0.75153 0.0
C533 C 0.63854 0.67092 0.82671 0.0
C534 C 0.67425 0.6295 0.7845 0.0
C535 C 0.67518 0.6357 0.83798 0.0
H536 H 0.95265 0.67333 0.24936 0.0
H537 H 0.07399 0.71545 0.29609 0.0
H538 H 0.09486 0.72305 0.20502 0.0
H539 H 0.07599 0.70819 0.11234 0.0
H540 H 0.95424 0.66808 0.06764 0.0
H541 H 0.93633 0.66959 0.15746 0.0
C542 C 0.98382 0.68504 0.23949 0.0
C543 C 0.01166 0.6933 0.279 0.0
C544 C 0.99541 0.6891 0.18739 0.0
C545 C 0.05207 0.70894 0.26611 0.0
C546 C 0.06389 0.71288 0.21408 0.0
C547 C 0.04572 0.70037 0.12223 0.0
C548 C 0.01639 0.68723 0.08324 0.0
C549 C 0.03545 0.70153 0.17437 0.0
C550 C 0.97744 0.67794 0.09668 0.0
C551 C 0.96702 0.67867 0.14818 0.0
loop_
_geom_bond_atom_site_label_1
_geom_bond_atom_site_label_2
_geom_bond_distance
_geom_bond_site_symmetry_2
_ccdc_geom_bond_type
Mg0 O1 2.028 . S
Mg0 O7 1.986 1_565 S
Mg0 O9 2.114 . S
Mg0 O10 2.251 1_565 S
Mg0 O13 2.010 . S
O1 Mg0 2.028 . S
O1 C4 1.250 1_565 S
O2 Mg3 2.028 . S
O2 C4 1.248 . S
Mg3 O2 2.028 . S
Mg3 O8 2.032 . S
Mg3 O10 2.079 . S
C4 O1 1.250 1_545 S
C4 O2 1.248 . S
C5 O6 1.264 . S
C5 O13 1.249 . S
O6 C5 1.264 . S
O7 Mg0 1.986 1_545 S
O7 C11 1.246 . S
O8 Mg3 2.032 . S
O8 C11 1.259 . S
O9 Mg0 2.114 . S
O9 C12 1.252 . S
O10 Mg0 2.251 1_545 S
O10 Mg3 2.079 . S
O10 C12 1.273 1_545 S
C11 O7 1.246 . S
C11 O8 1.259 . S
C12 O9 1.252 . S
C12 O10 1.273 1_565 S
O13 Mg0 2.010 . S
O13 C5 1.249 . S
Mg14 O15 2.028 . S
Mg14 O21 1.986 . S
Mg14 O23 2.114 . S
Mg14 O24 2.251 . S
Mg14 O27 2.010 . S
O15 Mg14 2.028 . S
O15 C18 1.250 . S
O16 Mg17 2.028 . S
O16 C18 1.248 . S
Mg17 O16 2.028 . S
Mg17 O22 2.032 . S
Mg17 O24 2.079 . S
C18 O15 1.250 . S
C18 O16 1.248 . S
C19 O20 1.264 . S
C19 O27 1.249 . S
O20 C19 1.264 . S
O21 Mg14 1.986 . S
O21 C25 1.246 . S
O22 Mg17 2.032 . S
O22 C25 1.259 . S
O23 Mg14 2.114 . S
O23 C26 1.252 . S
O24 Mg14 2.251 . S
O24 Mg17 2.079 . S
O24 C26 1.273 . S
C25 O21 1.246 . S
C25 O22 1.259 . S
C26 O23 1.252 . S
C26 O24 1.273 . S
O27 Mg14 2.010 . S
O27 C19 1.249 . S
Mg28 O29 2.028 1_556 S
Mg28 O35 1.986 1_455 S
Mg28 O37 2.114 . S
Mg28 O38 2.251 1_455 S
Mg28 O41 2.010 . S
O29 Mg28 2.028 1_554 S
O29 C32 1.250 1_455 S
O30 Mg31 2.028 1_554 S
O30 C32 1.248 . S
Mg31 O30 2.028 1_556 S
Mg31 O36 2.032 . S
Mg31 O38 2.079 . S
C32 O29 1.250 1_655 S
C32 O30 1.248 . S
C33 O34 1.264 . S
C33 O41 1.249 . S
O34 C33 1.264 . S
O35 Mg28 1.986 1_655 S
O35 C39 1.246 . S
O36 Mg31 2.032 . S
O36 C39 1.259 . S
O37 Mg28 2.114 . S
O37 C40 1.252 . S
O38 Mg28 2.251 1_655 S
O38 Mg31 2.079 . S
O38 C40 1.273 1_655 S
C39 O35 1.246 . S
C39 O36 1.259 . S
C40 O37 1.252 . S
C40 O38 1.273 1_455 S
O41 Mg28 2.010 . S
O41 C33 1.249 . S
Mg42 O43 2.028 . S
Mg42 O49 1.986 1_545 S
Mg42 O51 2.114 . S
Mg42 O52 2.251 1_545 S
Mg42 O55 2.010 . S
O43 Mg42 2.028 . S
O43 C46 1.250 1_545 S
O44 Mg45 2.028 . S
O44 C46 1.248 . S
Mg45 O44 2.028 . S
Mg45 O50 2.032 . S
Mg45 O52 2.079 . S
C46 O43 1.250 1_565 S
C46 O44 1.248 . S
C47 O48 1.264 . S
C47 O55 1.249 . S
O48 C47 1.264 . S
O49 Mg42 1.986 1_565 S
O49 C53 1.246 . S
O50 Mg45 2.032 . S
O50 C53 1.259 . S
O51 Mg42 2.114 . S
O51 C54 1.252 . S
O52 Mg42 2.251 1_565 S
O52 Mg45 2.079 . S
O52 C54 1.273 1_565 S
C53 O49 1.246 . S
C53 O50 1.259 . S
C54 O51 1.252 . S
C54 O52 1.273 1_545 S
O55 Mg42 2.010 . S
O55 C47 1.249 . S
Mg56 O57 2.028 . S
Mg56 O63 1.986 . S
Mg56 O65 2.114 . S
Mg56 O66 2.251 . S
Mg56 O69 2.010 . S
O57 Mg56 2.028 . S
O57 C60 1.250 . S
O58 Mg59 2.028 . S
O58 C60 1.248 . S
Mg59 O58 2.028 . S
Mg59 O64 2.032 . S
Mg59 O66 2.079 . S
C60 O57 1.250 . S
C60 O58 1.248 . S
C61 O62 1.264 . S
C61 O69 1.249 . S
O62 C61 1.264 . S
O63 Mg56 1.986 . S
O63 C67 1.246 . S
O64 Mg59 2.032 . S
O64 C67 1.259 . S
O65 Mg56 2.114 . S
O65 C68 1.252 . S
O66 Mg56 2.251 . S
O66 Mg59 2.079 . S
O66 C68 1.273 . S
C67 O63 1.246 . S
C67 O64 1.259 . S
C68 O65 1.252 . S
C68 O66 1.273 . S
O69 Mg56 2.010 . S
O69 C61 1.249 . S
Mg70 O71 2.028 1_556 S
Mg70 O77 1.986 1_655 S
Mg70 O79 2.114 . S
Mg70 O80 2.251 1_655 S
Mg70 O83 2.010 . S
O71 Mg70 2.028 1_554 S
O71 C74 1.250 1_655 S
O72 Mg73 2.028 1_554 S
O72 C74 1.248 . S
Mg73 O72 2.028 1_556 S
Mg73 O78 2.032 . S
Mg73 O80 2.079 . S
C74 O71 1.250 1_455 S
C74 O72 1.248 . S
C75 O76 1.264 . S
C75 O83 1.249 . S
O76 C75 1.264 . S
O77 Mg70 1.986 1_455 S
O77 C81 1.246 . S
O78 Mg73 2.032 . S
O78 C81 1.259 . S
O79 Mg70 2.114 . S
O79 C82 1.252 . S
O80 Mg70 2.251 1_455 S
O80 Mg73 2.079 . S
O80 C82 1.273 1_455 S
C81 O77 1.246 . S
C81 O78 1.259 . S
C82 O79 1.252 . S
C82 O80 1.273 1_655 S
O83 Mg70 2.010 . S
O83 C75 1.249 . S
Mg84 O85 2.028 . S
Mg84 O91 1.986 1_455 S
Mg84 O93 2.114 . S
Mg84 O94 2.251 1_455 S
Mg84 O97 2.010 . S
O85 Mg84 2.028 . S
O85 C88 1.250 1_455 S
O86 Mg87 2.028 . S
O86 C88 1.248 . S
Mg87 O86 2.028 . S
Mg87 O92 2.032 . S
Mg87 O94 2.079 . S
C88 O85 1.250 1_655 S
C88 O86 1.248 . S
C89 O90 1.264 . S
C89 O97 1.249 . S
O90 C89 1.264 . S
O91 Mg84 1.986 1_655 S
O91 C95 1.246 . S
O92 Mg87 2.032 . S
O92 C95 1.259 . S
O93 Mg84 2.114 . S
O93 C96 1.252 . S
O94 Mg84 2.251 1_655 S
O94 Mg87 2.079 . S
O94 C96 1.273 1_655 S
C95 O91 1.246 . S
C95 O92 1.259 . S
C96 O93 1.252 . S
C96 O94 1.273 1_455 S
O97 Mg84 2.010 . S
O97 C89 1.249 . S
Mg98 O99 2.028 . S
Mg98 O105 1.986 1_545 S
Mg98 O107 2.114 . S
Mg98 O108 2.251 1_545 S
Mg98 O111 2.010 . S
O99 Mg98 2.028 . S
O99 C102 1.250 1_545 S
O100 Mg101 2.028 . S
O100 C102 1.248 . S
Mg101 O100 2.028 . S
Mg101 O106 2.032 . S
Mg101 O108 2.079 . S
C102 O99 1.250 1_565 S
C102 O100 1.248 . S
C103 O104 1.264 . S
C103 O111 1.249 . S
O104 C103 1.264 . S
O105 Mg98 1.986 1_565 S
O105 C109 1.246 . S
O106 Mg101 2.032 . S
O106 C109 1.259 . S
O107 Mg98 2.114 . S
O107 C110 1.252 . S
O108 Mg98 2.251 1_565 S
O108 Mg101 2.079 . S
O108 C110 1.273 1_565 S
C109 O105 1.246 . S
C109 O106 1.259 . S
C110 O107 1.252 . S
C110 O108 1.273 1_545 S
O111 Mg98 2.010 . S
O111 C103 1.249 . S
Mg112 O113 2.028 1_554 S
Mg112 O119 1.986 . S
Mg112 O121 2.114 . S
Mg112 O122 2.251 . S
Mg112 O125 2.010 . S
O113 Mg112 2.028 1_556 S
O113 C116 1.250 . S
O114 Mg115 2.028 1_556 S
O114 C116 1.248 . S
Mg115 O114 2.028 1_554 S
Mg115 O120 2.032 . S
Mg115 O122 2.079 . S
C116 O113 1.250 . S
C116 O114 1.248 . S
C117 O118 1.264 . S
C117 O125 1.249 . S
O118 C117 1.264 . S
O119 Mg112 1.986 . S
O119 C123 1.246 . S
O120 Mg115 2.032 . S
O120 C123 1.259 . S
O121 Mg112 2.114 . S
O121 C124 1.252 . S
O122 Mg112 2.251 . S
O122 Mg115 2.079 . S
O122 C124 1.273 . S
C123 O119 1.246 . S
C123 O120 1.259 . S
C124 O121 1.252 . S
C124 O122 1.273 . S
O125 Mg112 2.010 . S
O125 C117 1.249 . S
Mg126 O127 2.028 . S
Mg126 O133 1.986 1_655 S
Mg126 O135 2.114 . S
Mg126 O136 2.251 1_655 S
Mg126 O139 2.010 . S
O127 Mg126 2.028 . S
O127 C130 1.250 1_655 S
O128 Mg129 2.028 . S
O128 C130 1.248 . S
Mg129 O128 2.028 . S
Mg129 O134 2.032 . S
Mg129 O136 2.079 . S
C130 O127 1.250 1_455 S
C130 O128 1.248 . S
C131 O132 1.264 . S
C131 O139 1.249 . S
O132 C131 1.264 . S
O133 Mg126 1.986 1_455 S
O133 C137 1.246 . S
O134 Mg129 2.032 . S
O134 C137 1.259 . S
O135 Mg126 2.114 . S
O135 C138 1.252 . S
O136 Mg126 2.251 1_455 S
O136 Mg129 2.079 . S
O136 C138 1.273 1_455 S
C137 O133 1.246 . S
C137 O134 1.259 . S
C138 O135 1.252 . S
C138 O136 1.273 1_655 S
O139 Mg126 2.010 . S
O139 C131 1.249 . S
Mg140 O141 2.028 . S
Mg140 O147 1.986 1_565 S
Mg140 O149 2.114 . S
Mg140 O150 2.251 1_565 S
Mg140 O153 2.010 . S
O141 Mg140 2.028 . S
O141 C144 1.250 1_565 S
O142 Mg143 2.028 . S
O142 C144 1.248 . S
Mg143 O142 2.028 . S
Mg143 O148 2.032 . S
Mg143 O150 2.079 . S
C144 O141 1.250 1_545 S
C144 O142 1.248 . S
C145 O146 1.264 . S
C145 O153 1.249 . S
O146 C145 1.264 . S
O147 Mg140 1.986 1_545 S
O147 C151 1.246 . S
O148 Mg143 2.032 . S
O148 C151 1.259 . S
O149 Mg140 2.114 . S
O149 C152 1.252 . S
O150 Mg140 2.251 1_545 S
O150 Mg143 2.079 . S
O150 C152 1.273 1_545 S
C151 O147 1.246 . S
C151 O148 1.259 . S
C152 O149 1.252 . S
C152 O150 1.273 1_565 S
O153 Mg140 2.010 . S
O153 C145 1.249 . S
Mg154 O155 2.028 1_554 S
Mg154 O161 1.986 . S
Mg154 O163 2.114 . S
Mg154 O164 2.251 . S
Mg154 O167 2.010 . S
O155 Mg154 2.028 1_556 S
O155 C158 1.250 . S
O156 Mg157 2.028 1_556 S
O156 C158 1.248 . S
Mg157 O156 2.028 1_554 S
Mg157 O162 2.032 . S
Mg157 O164 2.079 . S
C158 O155 1.250 . S
C158 O156 1.248 . S
C159 O160 1.264 . S
C159 O167 1.249 . S
O160 C159 1.264 . S
O161 Mg154 1.986 . S
O161 C165 1.246 . S
O162 Mg157 2.032 . S
O162 C165 1.259 . S
O163 Mg154 2.114 . S
O163 C166 1.252 . S
O164 Mg154 2.251 . S
O164 Mg157 2.079 . S
O164 C166 1.273 . S
C165 O161 1.246 . S
C165 O162 1.259 . S
C166 O163 1.252 . S
C166 O164 1.273 . S
O167 Mg154 2.010 . S
O167 C159 1.249 . S
H168 C174 0.930 . S
H169 C177 0.930 . S
H170 C178 0.930 . S
H171 C179 0.930 . S
H172 C182 0.930 . S
H173 C183 0.930 . S
C174 H168 0.930 . S
C174 C175 1.355 . S
C174 C176 1.415 . S
C175 C174 1.355 . S
C175 C177 1.419 . S
C176 C174 1.415 . S
C176 C181 1.425 . S
C176 C183 1.409 . S
C177 H169 0.930 . S
C177 C175 1.419 . S
C177 C178 1.362 . S
C178 H170 0.930 . S
C178 C177 1.362 . S
C178 C181 1.409 . S
C179 H171 0.930 . S
C179 C180 1.355 . S
C179 C181 1.415 . S
C180 C179 1.355 . S
C180 C182 1.419 . S
C181 C176 1.425 . S
C181 C178 1.409 . S
C181 C179 1.415 . S
C182 H172 0.930 . S
C182 C180 1.419 . S
C182 C183 1.362 . S
C183 H173 0.930 . S
C183 C176 1.409 . S
C183 C182 1.362 . S
H184 C190 0.930 . S
H185 C193 0.930 . S
H186 C194 0.930 . S
H187 C195 0.930 . S
H188 C198 0.930 . S
H189 C199 0.930 . S
C190 H184 0.930 . S
C190 C191 1.355 . S
C190 C192 1.415 . S
C191 C190 1.355 . S
C191 C193 1.419 . S
C192 C190 1.415 . S
C192 C197 1.425 . S
C192 C199 1.409 . S
C193 H185 0.930 . S
C193 C191 1.419 . S
C193 C194 1.362 . S
C194 H186 0.930 . S
C194 C193 1.362 . S
C194 C197 1.409 . S
C195 H187 0.930 . S
C195 C196 1.355 . S
C195 C197 1.415 . S
C196 C195 1.355 . S
C196 C198 1.419 . S
C197 C192 1.425 . S
C197 C194 1.409 . S
C197 C195 1.415 . S
C198 H188 0.930 . S
C198 C196 1.419 . S
C198 C199 1.362 . S
C199 H189 0.930 . S
C199 C192 1.409 . S
C199 C198 1.362 . S
H200 C206 0.930 . S
H201 C209 0.930 . S
H202 C210 0.930 . S
H203 C211 0.930 . S
H204 C214 0.930 . S
H205 C215 0.930 . S
C206 H200 0.930 . S
C206 C207 1.355 . S
C206 C208 1.415 . S
C207 C206 1.355 . S
C207 C209 1.419 . S
C208 C206 1.415 . S
C208 C213 1.425 . S
C208 C215 1.409 . S
C209 H201 0.930 . S
C209 C207 1.419 . S
C209 C210 1.362 . S
C210 H202 0.930 . S
C210 C209 1.362 . S
C210 C213 1.409 . S
C211 H203 0.930 . S
C211 C212 1.355 . S
C211 C213 1.415 . S
C212 C211 1.355 . S
C212 C214 1.419 . S
C213 C208 1.425 . S
C213 C210 1.409 . S
C213 C211 1.415 . S
C214 H204 0.930 . S
C214 C212 1.419 . S
C214 C215 1.362 . S
C215 H205 0.930 . S
C215 C208 1.409 . S
C215 C214 1.362 . S
H216 C222 0.930 . S
H217 C225 0.930 . S
H218 C226 0.930 . S
H219 C227 0.930 . S
H220 C230 0.930 . S
H221 C231 0.930 . S
C222 H216 0.930 . S
C222 C223 1.355 . S
C222 C224 1.415 . S
C223 C222 1.355 . S
C223 C225 1.419 . S
C224 C222 1.415 . S
C224 C229 1.425 . S
C224 C231 1.409 . S
C225 H217 0.930 . S
C225 C223 1.419 . S
C225 C226 1.362 . S
C226 H218 0.930 . S
C226 C225 1.362 . S
C226 C229 1.409 . S
C227 H219 0.930 . S
C227 C228 1.355 . S
C227 C229 1.415 . S
C228 C227 1.355 . S
C228 C230 1.419 . S
C229 C224 1.425 . S
C229 C226 1.409 . S
C229 C227 1.415 . S
C230 H220 0.930 . S
C230 C228 1.419 . S
C230 C231 1.362 . S
C231 H221 0.930 . S
C231 C224 1.409 . S
C231 C230 1.362 . S
H232 C238 0.930 . S
H233 C241 0.930 . S
H234 C242 0.930 . S
H235 C243 0.930 . S
H236 C246 0.930 . S
H237 C247 0.930 . S
C238 H232 0.930 . S
C238 C239 1.355 . S
C238 C240 1.415 . S
C239 C238 1.355 . S
C239 C241 1.419 . S
C240 C238 1.415 . S
C240 C245 1.425 . S
C240 C247 1.409 . S
C241 H233 0.930 . S
C241 C239 1.419 . S
C241 C242 1.362 . S
C242 H234 0.930 . S
C242 C241 1.362 . S
C242 C245 1.409 . S
C243 H235 0.930 . S
C243 C244 1.355 . S
C243 C245 1.415 . S
C244 C243 1.355 . S
C244 C246 1.419 . S
C245 C240 1.425 . S
C245 C242 1.409 . S
C245 C243 1.415 . S
C246 H236 0.930 . S
C246 C244 1.419 . S
C246 C247 1.362 . S
C247 H237 0.930 . S
C247 C240 1.409 . S
C247 C246 1.362 . S
H248 C254 0.930 . S
H249 C257 0.930 . S
H250 C258 0.930 . S
H251 C259 0.930 . S
H252 C262 0.930 . S
H253 C263 0.930 . S
C254 H248 0.930 . S
C254 C255 1.355 . S
C254 C256 1.415 . S
C255 C254 1.355 . S
C255 C257 1.419 . S
C256 C254 1.415 . S
C256 C261 1.425 . S
C256 C263 1.409 . S
C257 H249 0.930 . S
C257 C255 1.419 . S
C257 C258 1.362 . S
C258 H250 0.930 . S
C258 C257 1.362 . S
C258 C261 1.409 . S
C259 H251 0.930 . S
C259 C260 1.355 . S
C259 C261 1.415 . S
C260 C259 1.355 . S
C260 C262 1.419 . S
C261 C256 1.425 . S
C261 C258 1.409 . S
C261 C259 1.415 . S
C262 H252 0.930 . S
C262 C260 1.419 . S
C262 C263 1.362 . S
C263 H253 0.930 . S
C263 C256 1.409 . S
C263 C262 1.362 . S
H264 C270 0.930 . S
H265 C273 0.930 . S
H266 C274 0.930 . S
H267 C275 0.930 . S
H268 C278 0.930 . S
H269 C279 0.930 . S
C270 H264 0.930 . S
C270 C271 1.355 1_545 S
C270 C272 1.415 . S
C271 C270 1.355 1_565 S
C271 C273 1.419 . S
C272 C270 1.415 . S
C272 C277 1.425 1_545 S
C272 C279 1.409 . S
C273 H265 0.930 . S
C273 C271 1.419 . S
C273 C274 1.362 . S
C274 H266 0.930 . S
C274 C273 1.362 . S
C274 C277 1.409 . S
C275 H267 0.930 . S
C275 C276 1.355 1_565 S
C275 C277 1.415 . S
C276 C275 1.355 1_545 S
C276 C278 1.419 . S
C277 C272 1.425 1_565 S
C277 C274 1.409 . S
C277 C275 1.415 . S
C278 H268 0.930 . S
C278 C276 1.419 . S
C278 C279 1.362 . S
C279 H269 0.930 . S
C279 C272 1.409 . S
C279 C278 1.362 . S
H280 C286 0.930 . S
H281 C289 0.930 . S
H282 C290 0.930 . S
H283 C291 0.930 . S
H284 C294 0.930 . S
H285 C295 0.930 . S
C286 H280 0.930 . S
C286 C287 1.355 . S
C286 C288 1.415 . S
C287 C286 1.355 . S
C287 C289 1.419 . S
C288 C286 1.415 . S
C288 C293 1.425 . S
C288 C295 1.409 . S
C289 H281 0.930 . S
C289 C287 1.419 . S
C289 C290 1.362 . S
C290 H282 0.930 . S
C290 C289 1.362 . S
C290 C293 1.409 . S
C291 H283 0.930 . S
C291 C292 1.355 . S
C291 C293 1.415 . S
C292 C291 1.355 . S
C292 C294 1.419 . S
C293 C288 1.425 . S
C293 C290 1.409 . S
C293 C291 1.415 . S
C294 H284 0.930 . S
C294 C292 1.419 . S
C294 C295 1.362 . S
C295 H285 0.930 . S
C295 C288 1.409 . S
C295 C294 1.362 . S
H296 C302 0.930 . S
H297 C305 0.930 . S
H298 C306 0.930 . S
H299 C307 0.930 . S
H300 C310 0.930 . S
H301 C311 0.930 . S
C302 H296 0.930 . S
C302 C303 1.355 1_455 S
C302 C304 1.415 . S
C303 C302 1.355 1_655 S
C303 C305 1.419 . S
C304 C302 1.415 . S
C304 C309 1.425 1_455 S
C304 C311 1.409 . S
C305 H297 0.930 . S
C305 C303 1.419 . S
C305 C306 1.362 . S
C306 H298 0.930 . S
C306 C305 1.362 . S
C306 C309 1.409 . S
C307 H299 0.930 . S
C307 C308 1.355 1_655 S
C307 C309 1.415 . S
C308 C307 1.355 1_455 S
C308 C310 1.419 . S
C309 C304 1.425 1_655 S
C309 C306 1.409 . S
C309 C307 1.415 . S
C310 H300 0.930 . S
C310 C308 1.419 . S
C310 C311 1.362 . S
C311 H301 0.930 . S
C311 C304 1.409 . S
C311 C310 1.362 . S
H312 C318 0.930 . S
H313 C321 0.930 . S
H314 C322 0.930 . S
H315 C323 0.930 . S
H316 C326 0.930 . S
H317 C327 0.930 . S
C318 H312 0.930 . S
C318 C319 1.355 1_655 S
C318 C320 1.415 . S
C319 C318 1.355 1_455 S
C319 C321 1.419 . S
C320 C318 1.415 . S
C320 C325 1.425 1_655 S
C320 C327 1.409 . S
C321 H313 0.930 . S
C321 C319 1.419 . S
C321 C322 1.362 . S
C322 H314 0.930 . S
C322 C321 1.362 . S
C322 C325 1.409 . S
C323 H315 0.930 . S
C323 C324 1.355 1_455 S
C323 C325 1.415 . S
C324 C323 1.355 1_655 S
C324 C326 1.419 . S
C325 C320 1.425 1_455 S
C325 C322 1.409 . S
C325 C323 1.415 . S
C326 H316 0.930 . S
C326 C324 1.419 . S
C326 C327 1.362 . S
C327 H317 0.930 . S
C327 C320 1.409 . S
C327 C326 1.362 . S
H328 C334 0.930 . S
H329 C337 0.930 . S
H330 C338 0.930 . S
H331 C339 0.930 . S
H332 C342 0.930 . S
H333 C343 0.930 . S
C334 H328 0.930 . S
C334 C335 1.355 1_565 S
C334 C336 1.415 . S
C335 C334 1.355 1_545 S
C335 C337 1.419 . S
C336 C334 1.415 . S
C336 C341 1.425 1_565 S
C336 C343 1.409 . S
C337 H329 0.930 . S
C337 C335 1.419 . S
C337 C338 1.362 . S
C338 H330 0.930 . S
C338 C337 1.362 . S
C338 C341 1.409 . S
C339 H331 0.930 . S
C339 C340 1.355 1_545 S
C339 C341 1.415 . S
C340 C339 1.355 1_565 S
C340 C342 1.419 . S
C341 C336 1.425 1_545 S
C341 C338 1.409 . S
C341 C339 1.415 . S
C342 H332 0.930 . S
C342 C340 1.419 . S
C342 C343 1.362 . S
C343 H333 0.930 . S
C343 C336 1.409 . S
C343 C342 1.362 . S
H344 C350 0.930 . S
H345 C353 0.930 . S
H346 C354 0.930 1_556 S
H347 C355 0.930 . S
H348 C358 0.930 . S
H349 C359 0.930 . S
C350 H344 0.930 . S
C350 C351 1.355 . S
C350 C352 1.415 . S
C351 C350 1.355 . S
C351 C353 1.419 . S
C352 C350 1.415 . S
C352 C357 1.425 . S
C352 C359 1.409 . S
C353 H345 0.930 . S
C353 C351 1.419 . S
C353 C354 1.362 . S
C354 H346 0.930 1_554 S
C354 C353 1.362 . S
C354 C357 1.409 . S
C355 H347 0.930 . S
C355 C356 1.355 . S
C355 C357 1.415 . S
C356 C355 1.355 . S
C356 C358 1.419 . S
C357 C352 1.425 . S
C357 C354 1.409 . S
C357 C355 1.415 . S
C358 H348 0.930 . S
C358 C356 1.419 . S
C358 C359 1.362 . S
C359 H349 0.930 . S
C359 C352 1.409 . S
C359 C358 1.362 . S
H360 C366 0.930 . S
H361 C369 0.930 . S
H362 C370 0.930 . S
H363 C371 0.930 . S
H364 C374 0.930 . S
H365 C375 0.930 . S
C366 H360 0.930 . S
C366 C367 1.355 . S
C366 C368 1.415 . S
C367 C366 1.355 . S
C367 C369 1.419 . S
C368 C366 1.415 . S
C368 C373 1.425 . S
C368 C375 1.409 . S
C369 H361 0.930 . S
C369 C367 1.419 . S
C369 C370 1.362 . S
C370 H362 0.930 . S
C370 C369 1.362 . S
C370 C373 1.409 . S
C371 H363 0.930 . S
C371 C372 1.355 . S
C371 C373 1.415 . S
C372 C371 1.355 . S
C372 C374 1.419 . S
C373 C368 1.425 . S
C373 C370 1.409 . S
C373 C371 1.415 . S
C374 H364 0.930 . S
C374 C372 1.419 . S
C374 C375 1.362 . S
C375 H365 0.930 . S
C375 C368 1.409 . S
C375 C374 1.362 . S
H376 C382 0.930 . S
H377 C385 0.930 . S
H378 C386 0.930 . S
H379 C387 0.930 . S
H380 C390 0.930 . S
H381 C391 0.930 . S
C382 H376 0.930 . S
C382 C383 1.355 . S
C382 C384 1.415 . S
C383 C382 1.355 . S
C383 C385 1.419 . S
C384 C382 1.415 . S
C384 C389 1.425 . S
C384 C391 1.409 . S
C385 H377 0.930 . S
C385 C383 1.419 . S
C385 C386 1.362 . S
C386 H378 0.930 . S
C386 C385 1.362 . S
C386 C389 1.409 . S
C387 H379 0.930 . S
C387 C388 1.355 . S
C387 C389 1.415 . S
C388 C387 1.355 . S
C388 C390 1.419 . S
C389 C384 1.425 . S
C389 C386 1.409 . S
C389 C387 1.415 . S
C390 H380 0.930 . S
C390 C388 1.419 . S
C390 C391 1.362 . S
C391 H381 0.930 . S
C391 C384 1.409 . S
C391 C390 1.362 . S
H392 C398 0.930 1_556 S
H393 C401 0.930 . S
H394 C402 0.930 . S
H395 C403 0.930 1_554 S
H396 C406 0.930 . S
H397 C407 0.930 . S
C398 H392 0.930 1_554 S
C398 C399 1.355 . S
C398 C400 1.415 1_554 S
C399 C398 1.355 . S
C399 C401 1.419 . S
C400 C398 1.415 1_556 S
C400 C405 1.425 1_556 S
C400 C407 1.409 . S
C401 H393 0.930 . S
C401 C399 1.419 . S
C401 C402 1.362 . S
C402 H394 0.930 . S
C402 C401 1.362 . S
C402 C405 1.409 . S
C403 H395 0.930 1_556 S
C403 C404 1.355 . S
C403 C405 1.415 1_556 S
C404 C403 1.355 . S
C404 C406 1.419 . S
C405 C400 1.425 1_554 S
C405 C402 1.409 . S
C405 C403 1.415 1_554 S
C406 H396 0.930 . S
C406 C404 1.419 . S
C406 C407 1.362 . S
C407 H397 0.930 . S
C407 C400 1.409 . S
C407 C406 1.362 . S
H408 C414 0.930 . S
H409 C417 0.930 . S
H410 C418 0.930 . S
H411 C419 0.930 . S
H412 C422 0.930 . S
H413 C423 0.930 . S
C414 H408 0.930 . S
C414 C415 1.355 . S
C414 C416 1.415 . S
C415 C414 1.355 . S
C415 C417 1.419 . S
C416 C414 1.415 . S
C416 C421 1.425 . S
C416 C423 1.409 . S
C417 H409 0.930 . S
C417 C415 1.419 . S
C417 C418 1.362 . S
C418 H410 0.930 . S
C418 C417 1.362 . S
C418 C421 1.409 . S
C419 H411 0.930 . S
C419 C420 1.355 . S
C419 C421 1.415 . S
C420 C419 1.355 . S
C420 C422 1.419 . S
C421 C416 1.425 . S
C421 C418 1.409 . S
C421 C419 1.415 . S
C422 H412 0.930 . S
C422 C420 1.419 . S
C422 C423 1.362 . S
C423 H413 0.930 . S
C423 C416 1.409 . S
C423 C422 1.362 . S
H424 C430 0.930 . S
H425 C433 0.930 . S
H426 C434 0.930 . S
H427 C435 0.930 . S
H428 C438 0.930 . S
H429 C439 0.930 . S
C430 H424 0.930 . S
C430 C431 1.355 . S
C430 C432 1.415 . S
C431 C430 1.355 . S
C431 C433 1.419 . S
C432 C430 1.415 . S
C432 C437 1.425 . S
C432 C439 1.409 . S
C433 H425 0.930 . S
C433 C431 1.419 . S
C433 C434 1.362 . S
C434 H426 0.930 . S
C434 C433 1.362 . S
C434 C437 1.409 . S
C435 H427 0.930 . S
C435 C436 1.355 . S
C435 C437 1.415 . S
C436 C435 1.355 . S
C436 C438 1.419 . S
C437 C432 1.425 . S
C437 C434 1.409 . S
C437 C435 1.415 . S
C438 H428 0.930 . S
C438 C436 1.419 . S
C438 C439 1.362 . S
C439 H429 0.930 . S
C439 C432 1.409 . S
C439 C438 1.362 . S
H440 C446 0.930 . S
H441 C449 0.930 . S
H442 C450 0.930 . S
H443 C451 0.930 . S
H444 C454 0.930 . S
H445 C455 0.930 . S
C446 H440 0.930 . S
C446 C447 1.355 . S
C446 C448 1.415 1_554 S
C447 C446 1.355 . S
C447 C449 1.419 . S
C448 C446 1.415 1_556 S
C448 C453 1.425 1_556 S
C448 C455 1.409 . S
C449 H441 0.930 . S
C449 C447 1.419 . S
C449 C450 1.362 . S
C450 H442 0.930 . S
C450 C449 1.362 . S
C450 C453 1.409 . S
C451 H443 0.930 . S
C451 C452 1.355 . S
C451 C453 1.415 1_556 S
C452 C451 1.355 . S
C452 C454 1.419 . S
C453 C448 1.425 1_554 S
C453 C450 1.409 . S
C453 C451 1.415 1_554 S
C454 H444 0.930 . S
C454 C452 1.419 . S
C454 C455 1.362 . S
C455 H445 0.930 . S
C455 C448 1.409 . S
C455 C454 1.362 . S
H456 C462 0.930 . S
H457 C465 0.930 . S
H458 C466 0.930 . S
H459 C467 0.930 . S
H460 C470 0.930 . S
H461 C471 0.930 . S
C462 H456 0.930 . S
C462 C463 1.355 . S
C462 C464 1.415 . S
C463 C462 1.355 . S
C463 C465 1.419 1_545 S
C464 C462 1.415 . S
C464 C469 1.425 1_545 S
C464 C471 1.409 . S
C465 H457 0.930 . S
C465 C463 1.419 1_565 S
C465 C466 1.362 . S
C466 H458 0.930 . S
C466 C465 1.362 . S
C466 C469 1.409 . S
C467 H459 0.930 . S
C467 C468 1.355 . S
C467 C469 1.415 . S
C468 C467 1.355 . S
C468 C470 1.419 1_565 S
C469 C464 1.425 1_565 S
C469 C466 1.409 . S
C469 C467 1.415 . S
C470 H460 0.930 . S
C470 C468 1.419 1_545 S
C470 C471 1.362 . S
C471 H461 0.930 . S
C471 C464 1.409 . S
C471 C470 1.362 . S
H472 C478 0.930 . S
H473 C481 0.930 . S
H474 C482 0.930 . S
H475 C483 0.930 . S
H476 C486 0.930 . S
H477 C487 0.930 . S
C478 H472 0.930 . S
C478 C479 1.355 . S
C478 C480 1.415 . S
C479 C478 1.355 . S
C479 C481 1.419 . S
C480 C478 1.415 . S
C480 C485 1.425 . S
C480 C487 1.409 . S
C481 H473 0.930 . S
C481 C479 1.419 . S
C481 C482 1.362 . S
C482 H474 0.930 . S
C482 C481 1.362 . S
C482 C485 1.409 . S
C483 H475 0.930 . S
C483 C484 1.355 . S
C483 C485 1.415 . S
C484 C483 1.355 . S
C484 C486 1.419 . S
C485 C480 1.425 . S
C485 C482 1.409 . S
C485 C483 1.415 . S
C486 H476 0.930 . S
C486 C484 1.419 . S
C486 C487 1.362 . S
C487 H477 0.930 . S
C487 C480 1.409 . S
C487 C486 1.362 . S
H488 C494 0.930 . S
H489 C497 0.930 . S
H490 C498 0.930 . S
H491 C499 0.930 . S
H492 C502 0.930 . S
H493 C503 0.930 . S
C494 H488 0.930 . S
C494 C495 1.355 1_655 S
C494 C496 1.415 . S
C495 C494 1.355 1_455 S
C495 C497 1.419 . S
C496 C494 1.415 . S
C496 C501 1.425 1_655 S
C496 C503 1.409 . S
C497 H489 0.930 . S
C497 C495 1.419 . S
C497 C498 1.362 . S
C498 H490 0.930 . S
C498 C497 1.362 . S
C498 C501 1.409 . S
C499 H491 0.930 . S
C499 C500 1.355 1_455 S
C499 C501 1.415 . S
C500 C499 1.355 1_655 S
C500 C502 1.419 . S
C501 C496 1.425 1_455 S
C501 C498 1.409 . S
C501 C499 1.415 . S
C502 H492 0.930 . S
C502 C500 1.419 . S
C502 C503 1.362 . S
C503 H493 0.930 . S
C503 C496 1.409 . S
C503 C502 1.362 . S
H504 C510 0.930 . S
H505 C513 0.930 . S
H506 C514 0.930 . S
H507 C515 0.930 . S
H508 C518 0.930 . S
H509 C519 0.930 . S
C510 H504 0.930 . S
C510 C511 1.355 . S
C510 C512 1.415 . S
C511 C510 1.355 . S
C511 C513 1.419 1_565 S
C512 C510 1.415 . S
C512 C517 1.425 1_565 S
C512 C519 1.409 . S
C513 H505 0.930 . S
C513 C511 1.419 1_545 S
C513 C514 1.362 . S
C514 H506 0.930 . S
C514 C513 1.362 . S
C514 C517 1.409 . S
C515 H507 0.930 . S
C515 C516 1.355 . S
C515 C517 1.415 . S
C516 C515 1.355 . S
C516 C518 1.419 1_545 S
C517 C512 1.425 1_545 S
C517 C514 1.409 . S
C517 C515 1.415 . S
C518 H508 0.930 . S
C518 C516 1.419 1_565 S
C518 C519 1.362 . S
C519 H509 0.930 . S
C519 C512 1.409 . S
C519 C518 1.362 . S
H520 C526 0.930 . S
H521 C529 0.930 . S
H522 C530 0.930 . S
H523 C531 0.930 . S
H524 C534 0.930 . S
H525 C535 0.930 . S
C526 H520 0.930 . S
C526 C527 1.355 . S
C526 C528 1.415 . S
C527 C526 1.355 . S
C527 C529 1.419 . S
C528 C526 1.415 . S
C528 C533 1.425 . S
C528 C535 1.409 . S
C529 H521 0.930 . S
C529 C527 1.419 . S
C529 C530 1.362 . S
C530 H522 0.930 . S
C530 C529 1.362 . S
C530 C533 1.409 . S
C531 H523 0.930 . S
C531 C532 1.355 . S
C531 C533 1.415 . S
C532 C531 1.355 . S
C532 C534 1.419 . S
C533 C528 1.425 . S
C533 C530 1.409 . S
C533 C531 1.415 . S
C534 H524 0.930 . S
C534 C532 1.419 . S
C534 C535 1.362 . S
C535 H525 0.930 . S
C535 C528 1.409 . S
C535 C534 1.362 . S
H536 C542 0.930 . S
H537 C545 0.931 . S
H538 C546 0.930 . S
H539 C547 0.930 . S
H540 C550 0.931 . S
H541 C551 0.930 . S
C542 H536 0.930 . S
C542 C543 1.355 . S
C542 C544 1.415 . S
C543 C542 1.355 . S
C543 C545 1.419 . S
C544 C542 1.415 . S
C544 C549 1.425 1_655 S
C544 C551 1.409 . S
C545 H537 0.931 . S
C545 C543 1.419 . S
C545 C546 1.362 1_655 S
C546 H538 0.930 . S
C546 C545 1.362 1_455 S
C546 C549 1.409 . S
C547 H539 0.930 . S
C547 C548 1.355 . S
C547 C549 1.415 . S
C548 C547 1.355 . S
C548 C550 1.419 . S
C549 C544 1.425 1_455 S
C549 C546 1.409 . S
C549 C547 1.415 . S
C550 H540 0.931 . S
C550 C548 1.419 . S
C550 C551 1.362 1_455 S
C551 H541 0.930 . S
C551 C544 1.409 . S
C551 C550 1.362 1_655 S
C175 C11 1.729 . S
C180 C123 1.701 . S
C191 C25 1.751 . S
C196 C137 1.717 . S
C207 C151 1.705 . S
C212 C39 1.671 . S
C223 C165 1.719 . S
C228 C53 1.750 . S
C239 C95 1.749 . S
C244 C67 1.706 . S
C255 C109 1.712 . S
C260 C81 1.673 . S
C271 C12 1.461 . S
C276 C54 1.445 . S
C287 C68 1.436 . S
C292 C26 1.444 . S
C303 C82 1.422 . S
C308 C40 1.411 . S
C319 C96 1.452 . S
C324 C138 1.454 . S
C335 C152 1.408 1_545 S
C340 C110 1.420 1_565 S
C351 C124 1.422 . S
C356 C166 1.451 . S
C367 C89 1.303 . S
C372 C5 1.328 . S
C383 C19 1.264 . S
C388 C103 1.282 . S
C399 C117 1.266 . S
C404 C33 1.286 . S
C415 C131 1.319 . S
C420 C47 1.343 . S
C431 C61 1.329 . S
C436 C145 1.334 . S
C447 C159 1.275 . S
C452 C75 1.265 . S
C463 C4 0.989 . S
C468 C102 0.951 . S
C479 C116 0.954 . S
C484 C18 1.008 . S
C495 C130 0.975 . S
C500 C32 0.966 . S
C511 C46 0.990 . S
C516 C144 0.950 . S
C527 C158 0.964 . S
C532 C60 0.995 . S
C543 C88 0.941 . S
C548 C74 0.999 . S
