# Generated by pormake.
# Topology cha, (4)-cn, num edge types: 1
# Building blocks:
#     Node 0, Type 0, BuildingBlock: NAHDIM_clean_sbu_0, # of connection points: 4
#     Node 1, Type 0, BuildingBlock: NAHDIM_clean_sbu_0, # of connection points: 4
#     Node 2, Type 0, BuildingBlock: NAHDIM_clean_sbu_0, # of connection points: 4
#     Node 3, Type 0, BuildingBlock: NAHDIM_clean_sbu_0, # of connection points: 4
#     Node 4, Type 0, BuildingBlock: NAHDIM_clean_sbu_0, # of connection points: 4
#     Node 5, Type 0, BuildingBlock: NAHDIM_clean_sbu_0, # of connection points: 4
#     Node 6, Type 0, BuildingBlock: NAHDIM_clean_sbu_0, # of connection points: 4
#     Node 7, Type 0, BuildingBlock: NAHDIM_clean_sbu_0, # of connection points: 4
#     Node 8, Type 0, BuildingBlock: NAHDIM_clean_sbu_0, # of connection points: 4
#     Node 9, Type 0, BuildingBlock: NAHDIM_clean_sbu_0, # of connection points: 4
#     Node 10, Type 0, BuildingBlock: NAHDIM_clean_sbu_0, # of connection points: 4
#     Node 11, Type 0, BuildingBlock: NAHDIM_clean_sbu_0, # of connection points: 4
#     Node 12, Type 0, BuildingBlock: NAHDIM_clean_sbu_0, # of connection points: 4
#     Node 13, Type 0, BuildingBlock: NAHDIM_clean_sbu_0, # of connection points: 4
#     Node 14, Type 0, BuildingBlock: NAHDIM_clean_sbu_0, # of connection points: 4
#     Node 15, Type 0, BuildingBlock: NAHDIM_clean_sbu_0, # of connection points: 4
#     Node 16, Type 0, BuildingBlock: NAHDIM_clean_sbu_0, # of connection points: 4
#     Node 17, Type 0, BuildingBlock: NAHDIM_clean_sbu_0, # of connection points: 4
#     Node 18, Type 0, BuildingBlock: NAHDIM_clean_sbu_0, # of connection points: 4
#     Node 19, Type 0, BuildingBlock: NAHDIM_clean_sbu_0, # of connection points: 4
#     Node 20, Type 0, BuildingBlock: NAHDIM_clean_sbu_0, # of connection points: 4
#     Node 21, Type 0, BuildingBlock: NAHDIM_clean_sbu_0, # of connection points: 4
#     Node 22, Type 0, BuildingBlock: NAHDIM_clean_sbu_0, # of connection points: 4
#     Node 23, Type 0, BuildingBlock: NAHDIM_clean_sbu_0, # of connection points: 4
#     Node 24, Type 0, BuildingBlock: NAHDIM_clean_sbu_0, # of connection points: 4
#     Node 25, Type 0, BuildingBlock: NAHDIM_clean_sbu_0, # of connection points: 4
#     Node 26, Type 0, BuildingBlock: NAHDIM_clean_sbu_0, # of connection points: 4
#     Node 27, Type 0, BuildingBlock: NAHDIM_clean_sbu_0, # of connection points: 4
#     Node 28, Type 0, BuildingBlock: NAHDIM_clean_sbu_0, # of connection points: 4
#     Node 29, Type 0, BuildingBlock: NAHDIM_clean_sbu_0, # of connection points: 4
#     Node 30, Type 0, BuildingBlock: NAHDIM_clean_sbu_0, # of connection points: 4
#     Node 31, Type 0, BuildingBlock: NAHDIM_clean_sbu_0, # of connection points: 4
#     Node 32, Type 0, BuildingBlock: NAHDIM_clean_sbu_0, # of connection points: 4
#     Node 33, Type 0, BuildingBlock: NAHDIM_clean_sbu_0, # of connection points: 4
#     Node 34, Type 0, BuildingBlock: NAHDIM_clean_sbu_0, # of connection points: 4
#     Node 35, Type 0, BuildingBlock: NAHDIM_clean_sbu_0, # of connection points: 4
#     Edge 36, Type (0, 0), BuildingBlock: UVAHIK_clean_linker_0, # of connection points: 2
#     Edge 37, Type (0, 0), BuildingBlock: UVAHIK_clean_linker_0, # of connection points: 2
#     Edge 38, Type (0, 0), BuildingBlock: UVAHIK_clean_linker_0, # of connection points: 2
#     Edge 39, Type (0, 0), BuildingBlock: UVAHIK_clean_linker_0, # of connection points: 2
#     Edge 40, Type (0, 0), BuildingBlock: UVAHIK_clean_linker_0, # of connection points: 2
#     Edge 41, Type (0, 0), BuildingBlock: UVAHIK_clean_linker_0, # of connection points: 2
#     Edge 42, Type (0, 0), BuildingBlock: UVAHIK_clean_linker_0, # of connection points: 2
#     Edge 43, Type (0, 0), BuildingBlock: UVAHIK_clean_linker_0, # of connection points: 2
#     Edge 44, Type (0, 0), BuildingBlock: UVAHIK_clean_linker_0, # of connection points: 2
#     Edge 45, Type (0, 0), BuildingBlock: UVAHIK_clean_linker_0, # of connection points: 2
#     Edge 46, Type (0, 0), BuildingBlock: UVAHIK_clean_linker_0, # of connection points: 2
#     Edge 47, Type (0, 0), BuildingBlock: UVAHIK_clean_linker_0, # of connection points: 2
#     Edge 48, Type (0, 0), BuildingBlock: UVAHIK_clean_linker_0, # of connection points: 2
#     Edge 49, Type (0, 0), BuildingBlock: UVAHIK_clean_linker_0, # of connection points: 2
#     Edge 50, Type (0, 0), BuildingBlock: UVAHIK_clean_linker_0, # of connection points: 2
#     Edge 51, Type (0, 0), BuildingBlock: UVAHIK_clean_linker_0, # of connection points: 2
#     Edge 52, Type (0, 0), BuildingBlock: UVAHIK_clean_linker_0, # of connection points: 2
#     Edge 53, Type (0, 0), BuildingBlock: UVAHIK_clean_linker_0, # of connection points: 2
#     Edge 54, Type (0, 0), BuildingBlock: UVAHIK_clean_linker_0, # of connection points: 2
#     Edge 55, Type (0, 0), BuildingBlock: UVAHIK_clean_linker_0, # of connection points: 2
#     Edge 56, Type (0, 0), BuildingBlock: UVAHIK_clean_linker_0, # of connection points: 2
#     Edge 57, Type (0, 0), BuildingBlock: UVAHIK_clean_linker_0, # of connection points: 2
#     Edge 58, Type (0, 0), BuildingBlock: UVAHIK_clean_linker_0, # of connection points: 2
#     Edge 59, Type (0, 0), BuildingBlock: UVAHIK_clean_linker_0, # of connection points: 2
#     Edge 60, Type (0, 0), BuildingBlock: UVAHIK_clean_linker_0, # of connection points: 2
#     Edge 61, Type (0, 0), BuildingBlock: UVAHIK_clean_linker_0, # of connection points: 2
#     Edge 62, Type (0, 0), BuildingBlock: UVAHIK_clean_linker_0, # of connection points: 2
#     Edge 63, Type (0, 0), BuildingBlock: UVAHIK_clean_linker_0, # of connection points: 2
#     Edge 64, Type (0, 0), BuildingBlock: UVAHIK_clean_linker_0, # of connection points: 2
#     Edge 65, Type (0, 0), BuildingBlock: UVAHIK_clean_linker_0, # of connection points: 2
#     Edge 66, Type (0, 0), BuildingBlock: UVAHIK_clean_linker_0, # of connection points: 2
#     Edge 67, Type (0, 0), BuildingBlock: UVAHIK_clean_linker_0, # of connection points: 2
#     Edge 68, Type (0, 0), BuildingBlock: UVAHIK_clean_linker_0, # of connection points: 2
#     Edge 69, Type (0, 0), BuildingBlock: UVAHIK_clean_linker_0, # of connection points: 2
#     Edge 70, Type (0, 0), BuildingBlock: UVAHIK_clean_linker_0, # of connection points: 2
#     Edge 71, Type (0, 0), BuildingBlock: UVAHIK_clean_linker_0, # of connection points: 2
#     Edge 72, Type (0, 0), BuildingBlock: UVAHIK_clean_linker_0, # of connection points: 2
#     Edge 73, Type (0, 0), BuildingBlock: UVAHIK_clean_linker_0, # of connection points: 2
#     Edge 74, Type (0, 0), BuildingBlock: UVAHIK_clean_linker_0, # of connection points: 2
#     Edge 75, Type (0, 0), BuildingBlock: UVAHIK_clean_linker_0, # of connection points: 2
#     Edge 76, Type (0, 0), BuildingBlock: UVAHIK_clean_linker_0, # of connection points: 2
#     Edge 77, Type (0, 0), BuildingBlock: UVAHIK_clean_linker_0, # of connection points: 2
#     Edge 78, Type (0, 0), BuildingBlock: UVAHIK_clean_linker_0, # of connection points: 2
#     Edge 79, Type (0, 0), BuildingBlock: UVAHIK_clean_linker_0, # of connection points: 2
#     Edge 80, Type (0, 0), BuildingBlock: UVAHIK_clean_linker_0, # of connection points: 2
#     Edge 81, Type (0, 0), BuildingBlock: UVAHIK_clean_linker_0, # of connection points: 2
#     Edge 82, Type (0, 0), BuildingBlock: UVAHIK_clean_linker_0, # of connection points: 2
#     Edge 83, Type (0, 0), BuildingBlock: UVAHIK_clean_linker_0, # of connection points: 2
#     Edge 84, Type (0, 0), BuildingBlock: UVAHIK_clean_linker_0, # of connection points: 2
#     Edge 85, Type (0, 0), BuildingBlock: UVAHIK_clean_linker_0, # of connection points: 2
#     Edge 86, Type (0, 0), BuildingBlock: UVAHIK_clean_linker_0, # of connection points: 2
#     Edge 87, Type (0, 0), BuildingBlock: UVAHIK_clean_linker_0, # of connection points: 2
#     Edge 88, Type (0, 0), BuildingBlock: UVAHIK_clean_linker_0, # of connection points: 2
#     Edge 89, Type (0, 0), BuildingBlock: UVAHIK_clean_linker_0, # of connection points: 2
#     Edge 90, Type (0, 0), BuildingBlock: UVAHIK_clean_linker_0, # of connection points: 2
#     Edge 91, Type (0, 0), BuildingBlock: UVAHIK_clean_linker_0, # of connection points: 2
#     Edge 92, Type (0, 0), BuildingBlock: UVAHIK_clean_linker_0, # of connection points: 2
#     Edge 93, Type (0, 0), BuildingBlock: UVAHIK_clean_linker_0, # of connection points: 2
#     Edge 94, Type (0, 0), BuildingBlock: UVAHIK_clean_linker_0, # of connection points: 2
#     Edge 95, Type (0, 0), BuildingBlock: UVAHIK_clean_linker_0, # of connection points: 2
#     Edge 96, Type (0, 0), BuildingBlock: UVAHIK_clean_linker_0, # of connection points: 2
#     Edge 97, Type (0, 0), BuildingBlock: UVAHIK_clean_linker_0, # of connection points: 2
#     Edge 98, Type (0, 0), BuildingBlock: UVAHIK_clean_linker_0, # of connection points: 2
#     Edge 99, Type (0, 0), BuildingBlock: UVAHIK_clean_linker_0, # of connection points: 2
#     Edge 100, Type (0, 0), BuildingBlock: UVAHIK_clean_linker_0, # of connection points: 2
#     Edge 101, Type (0, 0), BuildingBlock: UVAHIK_clean_linker_0, # of connection points: 2
#     Edge 102, Type (0, 0), BuildingBlock: UVAHIK_clean_linker_0, # of connection points: 2
#     Edge 103, Type (0, 0), BuildingBlock: UVAHIK_clean_linker_0, # of connection points: 2
#     Edge 104, Type (0, 0), BuildingBlock: UVAHIK_clean_linker_0, # of connection points: 2
#     Edge 105, Type (0, 0), BuildingBlock: UVAHIK_clean_linker_0, # of connection points: 2
#     Edge 106, Type (0, 0), BuildingBlock: UVAHIK_clean_linker_0, # of connection points: 2
#     Edge 107, Type (0, 0), BuildingBlock: UVAHIK_clean_linker_0, # of connection points: 2
# Relax obj value: 0.157
# Max RMSD: 0.151
# Mean RMSD: 0.151
data_MOF--net-cha--node1-NAHDIM_clean_sbu_0--edge1-UVAHIK_clean_linker_0
_symmetry_space_group_name_H-M    P1
_symmetry_Int_Tables_number       1
_symmetry_cell_setting            triclinic
loop_
_symmetry_equiv_pos_as_xyz
'x, y, z'
_cell_length_a     79.973114
_cell_length_b     79.889646
_cell_length_c     98.638579
_cell_angle_alpha  89.962344
_cell_angle_beta   89.990268
_cell_angle_gamma 120.03576
loop_
_atom_site_label
_atom_site_type_symbol
_atom_site_fract_x
_atom_site_fract_y
_atom_site_fract_z
_atom_type_partial_charge
C0 C 0.02733 0.30698 0.10677 0.0
O1 O 0.04355 0.30788 0.10312 0.0
O2 O 0.03178 0.26618 0.09641 0.0
Zn3 Zn 0.00903 0.26977 0.09314 0.0
O4 O 0.98505 0.2452 0.09842 0.0
C5 C 0.02272 0.28469 0.06648 0.0
O6 O 0.03963 0.29215 0.07246 0.0
O7 O 0.01127 0.29222 0.1037 0.0
C8 C 0.98374 0.22953 0.09428 0.0
O9 O -0.00215 0.23034 0.08695 0.0
C10 C 0.03854 0.26653 0.10812 0.0
O11 O 0.03082 0.26989 0.11879 0.0
O12 O 0.0075 0.27456 0.07338 0.0
C13 C 0.75833 0.77188 0.11308 0.0
O14 O 0.76105 0.7895 0.1131 0.0
O15 O 0.79366 0.81338 0.0956 0.0
Zn16 Zn 0.79045 0.78694 0.09388 0.0
O17 O 0.81528 0.78776 0.09854 0.0
C18 C 0.76936 0.77783 0.06901 0.0
O19 O 0.759 0.7835 0.07588 0.0
O20 O 0.7691 0.76796 0.10587 0.0
C21 C 0.83097 0.80113 0.09357 0.0
O22 O 0.8305 0.81422 0.08576 0.0
C23 C 0.8016 0.82413 0.10582 0.0
O24 O 0.808 0.81782 0.11572 0.0
O25 O 0.78373 0.77809 0.07469 0.0
C26 C 0.27349 0.02204 0.11791 0.0
O27 O 0.2552 0.01 0.12056 0.0
O28 O 0.23333 0.00659 0.09663 0.0
Zn29 Zn 0.25844 0.03134 0.09409 0.0
O30 O 0.25467 0.05422 0.09629 0.0
C31 C 0.26431 0.01734 0.06844 0.0
O32 O 0.25285 0.00021 0.07371 0.0
O33 O 0.27805 0.03262 0.10739 0.0
C34 C 0.24597 0.05761 0.08684 0.0
O35 O 0.23947 0.04582 0.07642 0.0
C36 C 0.21988 0.00519 0.10426 0.0
O37 O 0.22204 0.02062 0.11058 0.0
O38 O 0.26861 0.03238 0.07534 0.0
C39 C 0.29404 0.03517 0.87675 0.0
O40 O 0.28411 0.04328 0.8727 0.0
O41 O 0.26667 0.04831 0.89826 0.0
Zn42 Zn 0.26857 0.02423 0.89985 0.0
O43 O 0.24315 0.00086 0.89504 0.0
C44 C 0.28768 0.03556 0.9256 0.0
O45 O 0.29812 0.05212 0.91929 0.0
O46 O 0.28987 0.0262 0.88799 0.0
C47 C 0.22826 -0.00116 0.90116 0.0
O48 O 0.23022 0.01207 0.90993 0.0
C49 C 0.2557 0.05019 0.88983 0.0
O50 O 0.24505 0.03592 0.88152 0.0
O51 O 0.27433 0.02141 0.91918 0.0
C52 C 0.02421 0.27883 0.87202 0.0
O53 O 0.02677 0.26454 0.86817 0.0
O54 O 0.00289 0.23848 0.89725 0.0
Zn55 Zn 0.0265 0.26484 0.89814 0.0
O56 O 0.05033 0.2631 0.89468 0.0
C57 C 0.01336 0.27406 0.92243 0.0
O58 O -0.00293 0.26642 0.91562 0.0
O59 O 0.0239 0.28206 0.88459 0.0
C60 C 0.05278 0.25133 0.9019 0.0
O61 O 0.03962 0.24081 0.91098 0.0
C62 C 0.00127 0.22502 0.88955 0.0
O63 O 0.01573 0.22806 0.88162 0.0
O64 O 0.02824 0.2753 0.91683 0.0
C65 C 0.75436 0.74545 0.8791 0.0
O66 O 0.77146 0.74693 0.87853 0.0
O67 O 0.79724 0.77707 0.89684 0.0
Zn68 Zn 0.77176 0.77576 0.89947 0.0
O69 O 0.77511 0.802 0.89594 0.0
C70 C 0.76828 0.7589 0.92592 0.0
O71 O 0.77909 0.75257 0.92049 0.0
O72 O 0.75153 0.75619 0.88716 0.0
C73 C 0.7886 0.81625 0.90222 0.0
O74 O 0.79967 0.81316 0.91047 0.0
C75 C 0.80857 0.78661 0.8872 0.0
O76 O 0.80332 0.79555 0.87847 0.0
O77 O 0.76321 0.76881 0.91875 0.0
C78 C 0.01485 0.76146 0.87319 0.0
O79 O 0.0134 0.77556 0.86754 0.0
O80 O 0.99439 0.78458 0.89412 0.0
Zn81 Zn 0.0187 0.78342 0.89695 0.0
O82 O 0.04248 0.80871 0.89202 0.0
C83 C 0.01551 0.7864 0.92552 0.0
O84 O 0.0081 0.79699 0.92153 0.0
O85 O 0.0174 0.76174 0.88591 0.0
C86 C 0.04388 0.82466 0.89556 0.0
O87 O 0.02927 0.82447 0.90179 0.0
C88 C 0.99192 0.79453 0.88513 0.0
O89 O 0.00599 0.8051 0.87665 0.0
O90 O 0.02075 0.77838 0.91669 0.0
C91 C 0.30395 0.28847 0.87924 0.0
O92 O 0.3012 0.27095 0.87763 0.0
O93 O 0.27356 0.24568 0.89777 0.0
Zn94 Zn 0.27438 0.27103 0.9002 0.0
O95 O 0.24823 0.26758 0.8961 0.0
C96 C 0.27846 0.2681 0.92903 0.0
O97 O 0.2731 0.25009 0.926 0.0
O98 O 0.29425 0.2915 0.88811 0.0
C99 C 0.23368 0.25417 0.9022 0.0
O100 O 0.23625 0.24288 0.91058 0.0
C101 C 0.26363 0.2338 0.8885 0.0
O102 O 0.25406 0.23842 0.87989 0.0
O103 O 0.28043 0.27976 0.91958 0.0
C104 C 0.76372 0.0386 0.88069 0.0
O105 O 0.7813 0.05353 0.87998 0.0
O106 O 0.80553 0.04783 0.89937 0.0
Zn107 Zn 0.77962 0.0238 0.90095 0.0
O108 O 0.78217 0.00064 0.89663 0.0
C109 C 0.77392 0.03506 0.92761 0.0
O110 O 0.78443 0.05268 0.92282 0.0
O111 O 0.76016 0.02474 0.8887 0.0
C112 C 0.79497 -0.00122 0.90297 0.0
O113 O 0.80609 0.01217 0.9117 0.0
C114 C 0.81735 0.04975 0.89007 0.0
O115 O 0.81234 0.03587 0.88111 0.0
O116 O 0.77009 0.02074 0.92004 0.0
C117 C 0.73776 -0.00011 0.11474 0.0
O118 O 0.74099 0.98532 0.11514 0.0
O119 O 0.77542 0.99563 0.09853 0.0
Zn120 Zn 0.77112 0.01816 0.09659 0.0
O121 O 0.79514 0.04251 0.1021 0.0
C122 C 0.75356 0.0066 0.07033 0.0
O123 O 0.74361 0.98968 0.07628 0.0
O124 O 0.74866 0.01474 0.10768 0.0
C125 C 0.81118 0.04554 0.09733 0.0
O126 O 0.8114 0.0325 0.08933 0.0
C127 C 0.78355 0.9934 0.10889 0.0
O128 O 0.78887 0.00592 0.11887 0.0
O129 O 0.76607 0.0209 0.07712 0.0
C130 C 0.04371 0.75797 0.11309 0.0
O131 O 0.06015 0.77423 0.11448 0.0
O132 O 0.05641 0.80505 0.10231 0.0
Zn133 Zn 0.03295 0.78075 0.09602 0.0
O134 O 0.009 0.78246 0.09943 0.0
C135 C 0.0442 0.79268 0.06858 0.0
O136 O 0.05266 0.80982 0.0743 0.0
O137 O 0.03049 0.7576 0.10573 0.0
C138 C 0.00817 0.79724 0.09563 0.0
O139 O 0.02326 0.81154 0.08968 0.0
C140 C 0.05642 0.81537 0.11211 0.0
O141 O 0.04048 0.80978 0.11908 0.0
O142 O 0.03507 0.77772 0.07595 0.0
C143 C 0.2712 0.28342 0.12098 0.0
O144 O 0.25561 0.26692 0.12385 0.0
O145 O 0.22793 0.27288 0.10073 0.0
Zn146 Zn 0.25299 0.27452 0.09548 0.0
O147 O 0.24985 0.24786 0.09565 0.0
C148 C 0.25231 0.28951 0.06848 0.0
O149 O 0.23514 0.28643 0.07194 0.0
O150 O 0.27324 0.29032 0.10911 0.0
C151 C 0.24628 0.23779 0.08494 0.0
O152 O 0.24419 0.24473 0.07339 0.0
C153 C 0.21206 0.2595 0.096 0.0
O154 O 0.21227 0.24705 0.08741 0.0
O155 O 0.26215 0.28606 0.07696 0.0
C156 C 0.70319 0.63017 0.45082 0.0
O157 O 0.70636 0.61689 0.45606 0.0
O158 O 0.72145 0.60624 0.42951 0.0
Zn159 Zn 0.69714 0.60739 0.42734 0.0
O160 O 0.67416 0.58244 0.43346 0.0
C161 C 0.68403 0.59701 0.40013 0.0
O162 O 0.67638 0.57959 0.40537 0.0
O163 O 0.69906 0.62928 0.43833 0.0
C164 C 0.65842 0.58147 0.437 0.0
O165 O 0.6573 0.59732 0.43719 0.0
C166 C 0.72228 0.59304 0.43615 0.0
O167 O 0.7066 0.57933 0.44197 0.0
O168 O 0.69384 0.6116 0.40767 0.0
C169 C 0.4197 0.10364 0.45606 0.0
O170 O 0.43458 0.11926 0.46099 0.0
O171 O 0.44249 0.14617 0.43304 0.0
Zn172 Zn 0.43898 0.1196 0.43075 0.0
O173 O 0.46427 0.1206 0.43405 0.0
C174 C 0.43201 0.12184 0.40219 0.0
O175 O 0.43737 0.13986 0.40516 0.0
O176 O 0.41853 0.10076 0.44335 0.0
C177 C 0.47848 0.13247 0.42685 0.0
O178 O 0.47593 0.14347 0.41816 0.0
C179 C 0.45459 0.15868 0.44119 0.0
O180 O 0.46506 0.15415 0.44898 0.0
O181 O 0.43121 0.11054 0.41156 0.0
C182 C 0.9369 0.34789 0.44931 0.0
O183 O 0.91851 0.34012 0.45237 0.0
O184 O 0.89931 0.33765 0.42529 0.0
Zn185 Zn 0.92624 0.36042 0.42478 0.0
O186 O 0.92596 0.38504 0.42829 0.0
C187 C 0.9373 0.34815 0.40061 0.0
O188 O 0.93013 0.33165 0.40717 0.0
O189 O 0.94314 0.35713 0.43825 0.0
C190 C 0.91621 0.38922 0.42022 0.0
O191 O 0.90649 0.37709 0.4104 0.0
C192 C 0.88614 0.33706 0.43284 0.0
O193 O 0.89013 0.35182 0.44075 0.0
O194 O 0.9372 0.3624 0.40623 0.0
C195 C 0.95737 0.37047 0.20728 0.0
O196 O 0.94094 0.36953 0.20423 0.0
O197 O 0.93195 0.38055 0.23365 0.0
Zn198 Zn 0.93924 0.35987 0.23309 0.0
O199 O 0.91609 0.33426 0.22837 0.0
C200 C 0.95811 0.37203 0.25899 0.0
O201 O 0.96283 0.38929 0.25441 0.0
O202 O 0.96017 0.3669 0.21935 0.0
C203 C 0.90304 0.32614 0.23734 0.0
O204 O 0.90514 0.33493 0.249 0.0
C205 C 0.91745 0.37929 0.22742 0.0
O206 O 0.90639 0.36375 0.22025 0.0
O207 O 0.94847 0.3574 0.25146 0.0
C208 C 0.68361 0.62084 0.20459 0.0
O209 O 0.6813 0.60463 0.19949 0.0
O210 O 0.66402 0.57743 0.22383 0.0
Zn211 Zn 0.68658 0.60329 0.22881 0.0
O212 O 0.71135 0.60296 0.22616 0.0
C213 C 0.67231 0.5952 0.2562 0.0
O214 O 0.66093 0.57801 0.25103 0.0
O215 O 0.68632 0.62377 0.21726 0.0
C216 C 0.71405 0.59138 0.23343 0.0
O217 O 0.70064 0.58025 0.24216 0.0
C218 C 0.66474 0.56478 0.21644 0.0
O219 O 0.68119 0.56862 0.21085 0.0
O220 O 0.68444 0.60861 0.24855 0.0
C221 C 0.42933 0.08318 0.20863 0.0
O222 O 0.4461 0.09645 0.20382 0.0
O223 O 0.47229 0.10301 0.23039 0.0
Zn224 Zn 0.44674 0.10139 0.23379 0.0
O225 O 0.44955 0.12756 0.2309 0.0
C226 C 0.45004 0.09425 0.26212 0.0
O227 O 0.46772 0.099 0.25861 0.0
O228 O 0.42638 0.08227 0.22133 0.0
C229 C 0.46125 0.14145 0.23839 0.0
O230 O 0.47115 0.13825 0.24762 0.0
C231 C 0.4851 0.11578 0.22272 0.0
O232 O 0.48136 0.12792 0.21626 0.0
O233 O 0.43845 0.09379 0.25313 0.0
C234 C 0.68437 0.08984 0.20732 0.0
O235 O 0.68203 0.1039 0.20259 0.0
O236 O 0.67189 0.1165 0.23058 0.0
Zn237 Zn 0.6949 0.1129 0.23135 0.0
O238 O 0.71897 0.13724 0.22589 0.0
C239 C 0.68346 0.09503 0.25741 0.0
O240 O 0.66624 0.08709 0.25183 0.0
O241 O 0.69017 0.09074 0.21942 0.0
C242 C 0.73516 0.13808 0.22726 0.0
O243 O 0.73552 0.1227 0.23159 0.0
C244 C 0.67073 0.129 0.22331 0.0
O245 O 0.68547 0.1408 0.21571 0.0
O246 O 0.69812 0.10657 0.25045 0.0
C247 C 0.94708 0.60841 0.20517 0.0
O248 O 0.93025 0.59421 0.20118 0.0
O249 O 0.92503 0.56902 0.23135 0.0
Zn250 Zn 0.92992 0.59624 0.23147 0.0
O251 O 0.9053 0.59633 0.2276 0.0
C252 C 0.94682 0.60116 0.25802 0.0
O253 O 0.94891 0.58657 0.25419 0.0
O254 O 0.95019 0.61201 0.21774 0.0
C255 C 0.89108 0.58648 0.23544 0.0
O256 O 0.89312 0.5767 0.24539 0.0
C257 C 0.91201 0.55538 0.22434 0.0
O258 O 0.90084 0.55886 0.21647 0.0
O259 O 0.93929 0.60786 0.24989 0.0
C260 C 0.43637 0.34464 0.20563 0.0
O261 O 0.4494 0.34009 0.20198 0.0
O262 O 0.48113 0.37584 0.22815 0.0
Zn263 Zn 0.45598 0.35136 0.23085 0.0
O264 O 0.45911 0.32819 0.22831 0.0
C265 C 0.44728 0.3657 0.25492 0.0
O266 O 0.4542 0.38164 0.24771 0.0
O267 O 0.43648 0.35022 0.21769 0.0
C268 C 0.47038 0.3255 0.23589 0.0
O269 O 0.48035 0.33835 0.24527 0.0
C270 C 0.49424 0.37744 0.22009 0.0
O271 O 0.49154 0.36237 0.21301 0.0
O272 O 0.44654 0.35081 0.24973 0.0
C273 C 0.41729 0.36722 0.43483 0.0
O274 O 0.42133 0.38005 0.42519 0.0
O275 O 0.45619 0.34479 0.42516 0.0
Zn276 Zn 0.45031 0.36634 0.42412 0.0
O277 O 0.47315 0.39137 0.4302 0.0
C278 C 0.43276 0.35428 0.39804 0.0
O279 O 0.42535 0.33713 0.4037 0.0
O280 O 0.42774 0.35953 0.43619 0.0
C281 C 0.49022 0.39502 0.42762 0.0
O282 O 0.49274 0.38216 0.42104 0.0
C283 C 0.46261 0.34139 0.43597 0.0
O284 O 0.46597 0.3526 0.44656 0.0
O285 O 0.44386 0.36916 0.40496 0.0
C286 C 0.69941 0.10358 0.44618 0.0
O287 O 0.71307 0.12178 0.44703 0.0
O288 O 0.70682 0.14353 0.42608 0.0
Zn289 Zn 0.68365 0.11694 0.42486 0.0
O290 O 0.65957 0.11814 0.42855 0.0
C291 C 0.697 0.10815 0.40054 0.0
O292 O 0.71311 0.11531 0.40754 0.0
O293 O 0.68577 0.09865 0.4377 0.0
C294 C 0.6569 0.12999 0.42159 0.0
O295 O 0.66996 0.14087 0.41257 0.0
C296 C 0.70825 0.15599 0.4347 0.0
O297 O 0.69419 0.15139 0.44343 0.0
O298 O 0.68217 0.10722 0.40598 0.0
C299 C 0.96036 0.63208 0.45246 0.0
O300 O 0.94411 0.61706 0.45649 0.0
O301 O 0.91868 0.61352 0.43111 0.0
Zn302 Zn 0.9443 0.61572 0.42699 0.0
O303 O 0.94229 0.58967 0.42888 0.0
C304 C 0.93928 0.62367 0.39935 0.0
O305 O 0.92153 0.6173 0.40358 0.0
O306 O 0.96402 0.63467 0.43986 0.0
C307 C 0.93098 0.57629 0.42089 0.0
O308 O 0.92107 0.57996 0.41194 0.0
C309 C 0.90508 0.59973 0.43768 0.0
O310 O 0.9076 0.5859 0.44266 0.0
O311 O 0.95189 0.62477 0.4077 0.0
C312 C 0.36189 0.96538 0.77425 0.0
O313 O 0.3768 0.97315 0.76601 0.0
O314 O 0.37237 0.92796 0.75965 0.0
Zn315 Zn 0.34881 0.9306 0.758 0.0
O316 O 0.32543 0.90441 0.76035 0.0
C317 C 0.36301 0.95059 0.73259 0.0
O318 O 0.37985 0.95501 0.73777 0.0
O319 O 0.34864 0.94797 0.77246 0.0
C320 C 0.32446 0.88994 0.75427 0.0
O321 O 0.33889 0.89247 0.74649 0.0
C322 C 0.3809 0.92971 0.77086 0.0
O323 O 0.37431 0.93356 0.78192 0.0
O324 O 0.34781 0.94063 0.73955 0.0
C325 C 0.07069 0.42098 0.77462 0.0
O326 O 0.06982 0.43696 0.77491 0.0
O327 O 0.10491 0.46756 0.76271 0.0
Zn328 Zn 0.10457 0.44311 0.75767 0.0
O329 O 0.13048 0.44571 0.76179 0.0
C330 C 0.10848 0.45374 0.72996 0.0
O331 O 0.1193 0.4708 0.73548 0.0
O332 O 0.08396 0.42047 0.76787 0.0
C333 C 0.146 0.46188 0.7606 0.0
O334 O 0.14503 0.4772 0.75701 0.0
C335 C 0.11093 0.4763 0.77395 0.0
O336 O 0.11681 0.46881 0.78339 0.0
O337 O 0.09992 0.43898 0.73759 0.0
C338 C 0.61034 0.69026 0.782 0.0
O339 O 0.59402 0.68872 0.78616 0.0
O340 O 0.57088 0.67273 0.7579 0.0
Zn341 Zn 0.59731 0.69607 0.75638 0.0
O342 O 0.59642 0.72043 0.75966 0.0
C343 C 0.60619 0.68234 0.73207 0.0
O344 O 0.59853 0.666 0.73887 0.0
O345 O 0.61494 0.69366 0.76958 0.0
C346 C 0.58849 0.72541 0.75058 0.0
O347 O 0.581 0.71428 0.73991 0.0
C348 C 0.55724 0.67235 0.76476 0.0
O349 O 0.56017 0.68799 0.77118 0.0
O350 O 0.60734 0.69721 0.73763 0.0
C351 C 0.62283 0.70244 0.54157 0.0
O352 O 0.61732 0.71527 0.53992 0.0
O353 O 0.59364 0.71263 0.56315 0.0
Zn354 Zn 0.59542 0.68848 0.56398 0.0
O355 O 0.56947 0.66528 0.56023 0.0
C356 C 0.61509 0.7 0.58963 0.0
O357 O 0.62271 0.71739 0.58433 0.0
O358 O 0.61529 0.68986 0.55092 0.0
C359 C 0.55534 0.66317 0.56741 0.0
O360 O 0.55829 0.67637 0.57652 0.0
C361 C 0.58263 0.71468 0.55487 0.0
O362 O 0.572 0.7006 0.54642 0.0
O363 O 0.60317 0.6855 0.58271 0.0
C364 C 0.34267 0.9492 0.54527 0.0
O365 O 0.32787 0.93155 0.5445 0.0
O366 O 0.33548 0.90678 0.56262 0.0
Zn367 Zn 0.35879 0.93314 0.56452 0.0
O368 O 0.38259 0.93202 0.55974 0.0
C369 C 0.34714 0.94221 0.5896 0.0
O370 O 0.33133 0.93739 0.58268 0.0
O371 O 0.35687 0.95267 0.55288 0.0
C372 C 0.38518 0.91928 0.56552 0.0
O373 O 0.37211 0.90729 0.57413 0.0
C374 C 0.33304 0.89595 0.55251 0.0
O375 O 0.34593 0.9023 0.54273 0.0
O376 O 0.36099 0.94151 0.58385 0.0
C377 C 0.09396 0.41202 0.53612 0.0
O378 O 0.11084 0.42057 0.53005 0.0
O379 O 0.13936 0.43697 0.55379 0.0
Zn380 Zn 0.11536 0.43818 0.55786 0.0
O381 O 0.11851 0.46408 0.55269 0.0
C382 C 0.12427 0.44245 0.58614 0.0
O383 O 0.14196 0.45207 0.58138 0.0
O384 O 0.09253 0.4171 0.54806 0.0
C385 C 0.13389 0.47981 0.55539 0.0
O386 O 0.1484 0.47918 0.5611 0.0
C387 C 0.15104 0.44595 0.54417 0.0
O388 O 0.14745 0.45665 0.53589 0.0
O389 O 0.1102 0.43463 0.5779 0.0
C390 C 0.34358 0.40633 0.54883 0.0
O391 O 0.32636 0.4029 0.55252 0.0
O392 O 0.33213 0.43943 0.56318 0.0
Zn393 Zn 0.35678 0.43932 0.5665 0.0
O394 O 0.37917 0.46598 0.56335 0.0
C395 C 0.34313 0.42244 0.59302 0.0
O396 O 0.32602 0.41698 0.58785 0.0
O397 O 0.35849 0.42087 0.55369 0.0
C398 C 0.37962 0.48014 0.56955 0.0
O399 O 0.36532 0.47689 0.57771 0.0
C400 C 0.33013 0.4473 0.55258 0.0
O401 O 0.34453 0.45565 0.54395 0.0
O402 O 0.35806 0.43178 0.58568 0.0
C403 C 0.62782 0.9539 0.53937 0.0
O404 O 0.6144 0.93724 0.53451 0.0
O405 O 0.60447 0.91206 0.56156 0.0
Zn406 Zn 0.60672 0.93812 0.56395 0.0
O407 O 0.58133 0.93642 0.55964 0.0
C408 C 0.6102 0.9346 0.59272 0.0
O409 O 0.60328 0.91633 0.58958 0.0
O410 O 0.62752 0.95756 0.55186 0.0
C411 C 0.56645 0.92418 0.56612 0.0
O412 O 0.56821 0.91304 0.57513 0.0
C413 C 0.59235 0.89914 0.55364 0.0
O414 O 0.58094 0.90287 0.54624 0.0
O415 O 0.61322 0.94671 0.58334 0.0
C416 C 0.10554 0.70308 0.5492 0.0
O417 O 0.1228 0.7185 0.54977 0.0
O418 O 0.14782 0.70884 0.56514 0.0
Zn419 Zn 0.12161 0.68523 0.5668 0.0
O420 O 0.12265 0.66174 0.56084 0.0
C421 C 0.11213 0.69507 0.59243 0.0
O422 O 0.11671 0.71124 0.58602 0.0
O423 O 0.10217 0.68785 0.55554 0.0
C424 C 0.1366 0.65948 0.56458 0.0
O425 O 0.1503 0.67279 0.57217 0.0
C426 C 0.15815 0.71227 0.55458 0.0
O427 O 0.15152 0.70007 0.54439 0.0
O428 O 0.11319 0.68174 0.58618 0.0
C429 C 0.0768 0.67058 0.78328 0.0
O430 O 0.07948 0.65572 0.78446 0.0
O431 O 0.10906 0.66033 0.76521 0.0
Zn432 Zn 0.10664 0.68386 0.76243 0.0
O433 O 0.13245 0.70741 0.76573 0.0
C434 C 0.09154 0.67019 0.73553 0.0
O435 O 0.08707 0.65323 0.74057 0.0
O436 O 0.08666 0.68381 0.77472 0.0
C437 C 0.14676 0.70857 0.75929 0.0
O438 O 0.14399 0.69431 0.75123 0.0
C439 C 0.11783 0.65834 0.77527 0.0
O440 O 0.12537 0.67198 0.78452 0.0
O441 O 0.09956 0.68503 0.74309 0.0
C442 C 0.35956 0.43725 0.78573 0.0
O443 O 0.36103 0.45329 0.79048 0.0
O444 O 0.37738 0.47795 0.76199 0.0
Zn445 Zn 0.35361 0.45169 0.76069 0.0
O446 O 0.32975 0.45302 0.765 0.0
C447 C 0.36493 0.4415 0.73581 0.0
O448 O 0.38126 0.44745 0.74235 0.0
O449 O 0.3562 0.4334 0.77321 0.0
C450 C 0.32718 0.46547 0.75876 0.0
O451 O 0.34035 0.47717 0.75009 0.0
C452 C 0.37881 0.49129 0.76976 0.0
O453 O 0.36412 0.48813 0.77747 0.0
O454 O 0.35106 0.44196 0.74171 0.0
C455 C 0.61464 0.96233 0.78596 0.0
O456 O 0.5981 0.94783 0.79013 0.0
O457 O 0.57335 0.9409 0.76453 0.0
Zn458 Zn 0.59969 0.94493 0.7603 0.0
O459 O 0.59919 0.91948 0.76194 0.0
C460 C 0.59993 0.96188 0.73386 0.0
O461 O 0.58531 0.96326 0.73857 0.0
O462 O 0.61864 0.96402 0.7734 0.0
C463 C 0.59572 0.90902 0.75143 0.0
O464 O 0.59271 0.91515 0.73983 0.0
C465 C 0.55848 0.929 0.75791 0.0
O466 O 0.56035 0.91923 0.74789 0.0
O467 O 0.60804 0.95514 0.74141 0.0
C468 C 0.06704 0.27005 0.12111 0.0
C469 C 0.0552 0.26353 0.10956 0.0
C470 C 0.0834 0.26804 0.12201 0.0
C471 C 0.10525 0.24059 0.10872 0.0
H472 H 0.15438 0.28751 0.11412 0.0
C473 C 0.17682 0.24657 0.0923 0.0
C474 C 0.19364 0.25833 0.09975 0.0
C475 C 0.15952 0.24593 0.0955 0.0
C476 C 0.14079 0.27417 0.11289 0.0
H477 H 0.05074 0.24919 0.09012 0.0
H478 H 0.07908 0.24542 0.09181 0.0
H479 H 0.12444 0.28828 0.11659 0.0
H480 H 0.20545 0.2782 0.11668 0.0
H481 H 0.17511 0.27671 0.12252 0.0
H482 H 0.12144 0.22641 0.10499 0.0
C483 C 0.07578 0.25216 0.10012 0.0
C484 C 0.12366 0.27465 0.11428 0.0
C485 C 0.05967 0.25445 0.09912 0.0
C486 C 0.19274 0.26913 0.11067 0.0
C487 C 0.17536 0.26833 0.11398 0.0
C488 C 0.12235 0.24003 0.1075 0.0
C489 C 0.08792 0.25913 0.11148 0.0
C490 C 0.10579 0.25798 0.11187 0.0
C491 C 0.15858 0.25687 0.10635 0.0
C492 C 0.14036 0.25693 0.10921 0.0
H493 H 0.06393 0.27712 0.1293 0.0
H494 H 0.09257 0.27351 0.13088 0.0
H495 H 0.09159 0.2275 0.10696 0.0
H496 H 0.17708 0.23815 0.08378 0.0
H497 H 0.14701 0.23724 0.08922 0.0
C498 C 0.78287 0.96472 0.09826 0.0
C499 C 0.78737 0.97714 0.10944 0.0
C500 C 0.78677 0.94956 0.09856 0.0
C501 C 0.79431 0.91798 0.12159 0.0
H502 H 0.81487 0.90707 0.0893 0.0
C503 C 0.80967 0.85445 0.11852 0.0
C504 C 0.80282 0.84316 0.10672 0.0
C505 C 0.81008 0.87213 0.11943 0.0
C506 C 0.80905 0.90989 0.09838 0.0
H507 H 0.7994 0.98332 0.12975 0.0
H508 H 0.80619 0.95669 0.13026 0.0
H509 H 0.81117 0.93554 0.08994 0.0
H510 H 0.7913 0.84168 0.08655 0.0
H511 H 0.79193 0.87233 0.08817 0.0
H512 H 0.79181 0.89205 0.12992 0.0
C513 C 0.79959 0.95872 0.1213 0.0
C514 C 0.80693 0.92617 0.09874 0.0
C515 C 0.79575 0.97398 0.12098 0.0
C516 C 0.79668 0.85003 0.09579 0.0
C517 C 0.79717 0.86768 0.09667 0.0
C518 C 0.79642 0.90164 0.12123 0.0
C519 C 0.79523 0.94643 0.11005 0.0
C520 C 0.79916 0.93017 0.11024 0.0
C521 C 0.80378 0.87888 0.10852 0.0
C522 C 0.80344 0.89722 0.1095 0.0
H523 H 0.77636 0.9667 0.08923 0.0
H524 H 0.78294 0.94013 0.08983 0.0
H525 H 0.78816 0.92063 0.13056 0.0
H526 H 0.81451 0.84956 0.12712 0.0
H527 H 0.81538 0.88054 0.12865 0.0
C528 C 0.09113 0.83937 0.10794 0.0
C529 C 0.07378 0.83432 0.1147 0.0
C530 C 0.10712 0.85783 0.10934 0.0
C531 C 0.11965 0.90757 0.1165 0.0
H532 H 0.17179 0.91602 0.1176 0.0
C533 C 0.18796 0.98398 0.11555 0.0
C534 C 0.20272 0.98603 0.10677 0.0
C535 C 0.17216 0.96568 0.11829 0.0
C536 C 0.15731 0.91389 0.11724 0.0
H537 H 0.05976 0.84449 0.12859 0.0
H538 H 0.08784 0.87689 0.13104 0.0
H539 H 0.14442 0.88331 0.11989 0.0
H540 H 0.21236 0.97052 0.09384 0.0
H541 H 0.18483 0.93876 0.09851 0.0
H542 H 0.13258 0.93813 0.11351 0.0
C543 C 0.08895 0.86653 0.12459 0.0
C544 C 0.14166 0.89518 0.11858 0.0
C545 C 0.07293 0.84796 0.12325 0.0
C546 C 0.20128 0.96946 0.10069 0.0
C547 C 0.18557 0.95122 0.10345 0.0
C548 C 0.13534 0.92632 0.11516 0.0
C549 C 0.10613 0.87171 0.11751 0.0
C550 C 0.12266 0.89176 0.1179 0.0
C551 C 0.17091 0.9491 0.11235 0.0
C552 C 0.15431 0.9296 0.11519 0.0
H553 H 0.09227 0.82919 0.1013 0.0
H554 H 0.12006 0.86144 0.10362 0.0
H555 H 0.10517 0.90537 0.11581 0.0
H556 H 0.18866 0.99648 0.1204 0.0
H557 H 0.1611 0.96447 0.12522 0.0
C558 C 0.26599 0.08325 0.89865 0.0
C559 C 0.25521 0.06842 0.88932 0.0
C560 C 0.26566 0.10053 0.89822 0.0
C561 C 0.25609 0.13129 0.87563 0.0
H562 H 0.25347 0.15479 0.90937 0.0
C563 C 0.25083 0.20107 0.87798 0.0
C564 C 0.2623 0.2147 0.88785 0.0
C565 C 0.24906 0.18275 0.87777 0.0
C566 C 0.25438 0.14849 0.89987 0.0
H567 H 0.23562 0.06008 0.87219 0.0
H568 H 0.23503 0.09036 0.87147 0.0
H569 H 0.25172 0.12347 0.90978 0.0
H570 H 0.28119 0.21992 0.90507 0.0
H571 H 0.27826 0.18814 0.9046 0.0
H572 H 0.25895 0.15647 0.86574 0.0
C573 C 0.24382 0.0886 0.87906 0.0
C574 C 0.25336 0.13055 0.90011 0.0
C575 C 0.24409 0.07125 0.87952 0.0
C576 C 0.27216 0.20974 0.89737 0.0
C577 C 0.27038 0.19146 0.89716 0.0
C578 C 0.25713 0.14928 0.87539 0.0
C579 C 0.25458 0.10339 0.88843 0.0
C580 C 0.25446 0.12188 0.88802 0.0
C581 C 0.25869 0.17771 0.88744 0.0
C582 C 0.25655 0.15818 0.88753 0.0
H583 H 0.27475 0.08157 0.90631 0.0
H584 H 0.27433 0.11177 0.90545 0.0
H585 H 0.25714 0.12502 0.86616 0.0
H586 H 0.24303 0.20445 0.87051 0.0
H587 H 0.23985 0.17241 0.87021 0.0
C588 C 0.96832 0.20262 0.89869 0.0
C589 C 0.98316 0.20618 0.88949 0.0
C590 C 0.95108 0.18497 0.89861 0.0
C591 C 0.92038 0.14367 0.87685 0.0
H592 H 0.89665 0.11894 0.91094 0.0
C593 C 0.85033 0.0691 0.87983 0.0
C594 C 0.83667 0.06726 0.88956 0.0
C595 C 0.86873 0.08551 0.87961 0.0
C596 C 0.90301 0.12576 0.90134 0.0
H597 H 0.99157 0.19396 0.87301 0.0
H598 H 0.96134 0.16302 0.87288 0.0
H599 H 0.92801 0.14849 0.911 0.0
H600 H 0.83151 0.08129 0.90658 0.0
H601 H 0.86344 0.10995 0.90608 0.0
H602 H 0.89522 0.12106 0.86719 0.0
C603 C 0.96307 0.17399 0.8801 0.0
C604 C 0.92097 0.14265 0.90138 0.0
C605 C 0.9804 0.19166 0.88022 0.0
C606 C 0.84172 0.08221 0.89899 0.0
C607 C 0.86008 0.09859 0.89876 0.0
C608 C 0.90236 0.12676 0.87681 0.0
C609 C 0.94825 0.17048 0.8893 0.0
C610 C 0.92974 0.15191 0.88915 0.0
C611 C 0.87383 0.10038 0.88913 0.0
C612 C 0.89338 0.11776 0.88907 0.0
H613 H 0.96996 0.21351 0.90596 0.0
H614 H 0.93981 0.18278 0.9057 0.0
H615 H 0.92671 0.1506 0.86728 0.0
H616 H 0.84688 0.0578 0.87244 0.0
H617 H 0.87907 0.0864 0.87214 0.0
C618 C 0.8331 0.77848 0.89559 0.0
C619 C 0.82765 0.788 0.88612 0.0
C620 C 0.85131 0.7802 0.89492 0.0
C621 C 0.89213 0.79237 0.87204 0.0
H622 H 0.91972 0.79902 0.90576 0.0
C623 C 0.97021 0.80518 0.8746 0.0
C624 C 0.97347 0.79454 0.88456 0.0
C625 C 0.95282 0.80535 0.87432 0.0
C626 C 0.91213 0.79703 0.89627 0.0
H627 H 0.83693 0.80661 0.8684 0.0
H628 H 0.86888 0.80969 0.86729 0.0
H629 H 0.88857 0.79755 0.90608 0.0
H630 H 0.96095 0.77559 0.90195 0.0
H631 H 0.93069 0.77582 0.90139 0.0
H632 H 0.91573 0.79172 0.86227 0.0
C633 C 0.85897 0.8008 0.87517 0.0
C634 C 0.8943 0.79618 0.89645 0.0
C635 C 0.84071 0.79909 0.87584 0.0
C636 C 0.95895 0.784 0.89416 0.0
C637 C 0.94164 0.78422 0.89391 0.0
C638 C 0.91003 0.79324 0.87186 0.0
C639 C 0.8645 0.79149 0.88478 0.0
C640 C 0.88396 0.79354 0.88437 0.0
C641 C 0.93842 0.79498 0.88404 0.0
C642 C 0.92006 0.79529 0.88401 0.0
H643 H 0.82335 0.76974 0.9036 0.0
H644 H 0.85501 0.77257 0.90233 0.0
H645 H 0.88443 0.7902 0.86258 0.0
H646 H 0.98112 0.81345 0.86706 0.0
H647 H 0.95076 0.81386 0.86664 0.0
C648 C 0.74173 0.57801 0.44371 0.0
C649 C 0.74075 0.59313 0.43716 0.0
C650 C 0.7592 0.57801 0.44435 0.0
C651 C 0.80632 0.59861 0.42715 0.0
H652 H 0.82307 0.58488 0.46012 0.0
C653 C 0.8837 0.6136 0.43337 0.0
C654 C 0.88624 0.59883 0.43892 0.0
C655 C 0.86569 0.61233 0.43374 0.0
C656 C 0.81846 0.58855 0.45081 0.0
H657 H 0.75739 0.6203 0.42641 0.0
H658 H 0.78778 0.6204 0.42766 0.0
H659 H 0.79185 0.58357 0.45961 0.0
H660 H 0.87196 0.57135 0.44955 0.0
H661 H 0.84034 0.5691 0.45013 0.0
H662 H 0.83287 0.6037 0.41835 0.0
C663 C 0.77502 0.60836 0.43209 0.0
C664 C 0.80061 0.58779 0.45051 0.0
C665 C 0.75761 0.60835 0.43143 0.0
C666 C 0.87046 0.58296 0.44517 0.0
C667 C 0.85238 0.58171 0.44556 0.0
C668 C 0.82411 0.5994 0.42745 0.0
C669 C 0.77599 0.59313 0.43844 0.0
C670 C 0.79447 0.59304 0.43871 0.0
C671 C 0.84977 0.59626 0.43966 0.0
C672 C 0.83048 0.5946 0.43933 0.0
H673 H 0.72899 0.56607 0.44822 0.0
H674 H 0.75948 0.56601 0.44922 0.0
H675 H 0.8018 0.60233 0.41781 0.0
H676 H 0.89558 0.62609 0.42856 0.0
H677 H 0.8642 0.62395 0.42934 0.0
C678 C 0.47314 0.32084 0.44839 0.0
C679 C 0.4653 0.32442 0.43674 0.0
C680 C 0.47478 0.30425 0.44927 0.0
C681 C 0.47375 0.26513 0.42826 0.0
H682 H 0.45841 0.23594 0.46185 0.0
C683 C 0.44975 0.18451 0.43095 0.0
C684 C 0.45747 0.17843 0.44137 0.0
C685 C 0.45289 0.20332 0.4308 0.0
C686 C 0.46297 0.24408 0.45247 0.0
H687 H 0.45329 0.31356 0.4168 0.0
H688 H 0.45576 0.28457 0.41844 0.0
H689 H 0.46033 0.2674 0.46074 0.0
H690 H 0.47432 0.18719 0.4599 0.0
H691 H 0.47952 0.22011 0.45974 0.0
H692 H 0.47566 0.24144 0.41987 0.0
C693 C 0.46101 0.29469 0.42681 0.0
C694 C 0.46413 0.26211 0.45183 0.0
C695 C 0.45946 0.31128 0.42591 0.0
C696 C 0.46822 0.19148 0.45173 0.0
C697 C 0.47115 0.21027 0.45167 0.0
C698 C 0.47241 0.24706 0.42887 0.0
C699 C 0.46858 0.2909 0.43853 0.0
C700 C 0.46919 0.27268 0.43964 0.0
C701 C 0.46363 0.21638 0.44114 0.0
C702 C 0.46668 0.23623 0.44091 0.0
H703 H 0.47786 0.33076 0.45688 0.0
H704 H 0.4809 0.30188 0.45837 0.0
H705 H 0.47812 0.27308 0.4188 0.0
H706 H 0.44143 0.17482 0.4228 0.0
H707 H 0.44672 0.2076 0.42266 0.0
C708 C 0.85258 0.3179 0.44221 0.0
C709 C 0.86673 0.31965 0.43295 0.0
C710 C 0.8344 0.30116 0.44246 0.0
C711 C 0.80141 0.25908 0.42167 0.0
H712 H 0.77958 0.23451 0.45617 0.0
C713 C 0.74042 0.1802 0.4253 0.0
C714 C 0.72556 0.17548 0.43475 0.0
C715 C 0.75675 0.1986 0.42518 0.0
C716 C 0.78534 0.24134 0.44647 0.0
H717 H 0.87287 0.30531 0.41662 0.0
H718 H 0.84127 0.27619 0.4171 0.0
H719 H 0.80972 0.26548 0.4557 0.0
H720 H 0.71619 0.18637 0.45151 0.0
H721 H 0.74477 0.21864 0.45125 0.0
H722 H 0.77721 0.23491 0.41242 0.0
C723 C 0.84413 0.28779 0.42408 0.0
C724 C 0.80259 0.25907 0.4462 0.0
C725 C 0.86229 0.30444 0.42387 0.0
C726 C 0.72741 0.18956 0.44411 0.0
C727 C 0.7438 0.20801 0.444 0.0
C728 C 0.78418 0.24141 0.42194 0.0
C729 C 0.83001 0.28594 0.4334 0.0
C730 C 0.81096 0.26795 0.43378 0.0
C731 C 0.75861 0.21272 0.4345 0.0
C732 C 0.77612 0.23219 0.43432 0.0
H733 H 0.85556 0.32937 0.44933 0.0
H734 H 0.82374 0.30018 0.44968 0.0
H735 H 0.80733 0.26577 0.41195 0.0
H736 H 0.7395 0.16968 0.41797 0.0
H737 H 0.76806 0.20167 0.41788 0.0
C738 C 0.92478 0.41159 0.23622 0.0
C739 C 0.9136 0.39555 0.22787 0.0
C740 C 0.92171 0.42731 0.23631 0.0
C741 C 0.9031 0.4521 0.21529 0.0
H742 H 0.90608 0.47876 0.24883 0.0
C743 C 0.89587 0.52068 0.21702 0.0
C744 C 0.9096 0.53581 0.2251 0.0
C745 C 0.89392 0.50229 0.21767 0.0
C746 C 0.9053 0.47152 0.23938 0.0
H747 H 0.89023 0.38329 0.21322 0.0
H748 H 0.8849 0.41085 0.21341 0.0
H749 H 0.90689 0.44867 0.2495 0.0
H750 H 0.93192 0.54349 0.24029 0.0
H751 H 0.92865 0.5116 0.24131 0.0
H752 H 0.90196 0.47521 0.20514 0.0
C753 C 0.8961 0.41125 0.2198 0.0
C754 C 0.90575 0.45429 0.23976 0.0
C755 C 0.89911 0.39545 0.21975 0.0
C756 C 0.92119 0.53215 0.23393 0.0
C757 C 0.91921 0.51382 0.2346 0.0
C758 C 0.90267 0.46937 0.2149 0.0
C759 C 0.90745 0.42738 0.22804 0.0
C760 C 0.90503 0.4446 0.22771 0.0
C761 C 0.9056 0.49869 0.22646 0.0
C762 C 0.90415 0.47945 0.22693 0.0
H763 H 0.93606 0.41213 0.24259 0.0
H764 H 0.93087 0.43963 0.24263 0.0
H765 H 0.9027 0.44505 0.20582 0.0
H766 H 0.88669 0.52303 0.21014 0.0
H767 H 0.88321 0.49088 0.21135 0.0
C768 C 0.63043 0.54114 0.22213 0.0
C769 C 0.64744 0.5454 0.21515 0.0
C770 C 0.61449 0.52252 0.22189 0.0
C771 C 0.59124 0.47664 0.20338 0.0
H772 H 0.56642 0.45608 0.23803 0.0
C773 C 0.5275 0.39816 0.21049 0.0
C774 C 0.51237 0.39616 0.21886 0.0
C775 C 0.5447 0.41591 0.20958 0.0
C776 C 0.57307 0.46167 0.22826 0.0
H777 H 0.66083 0.53362 0.20207 0.0
H778 H 0.63276 0.50092 0.20164 0.0
H779 H 0.595 0.48807 0.23698 0.0
H780 H 0.50331 0.41127 0.23267 0.0
H781 H 0.53306 0.4421 0.23095 0.0
H782 H 0.56904 0.45026 0.19465 0.0
C783 C 0.63188 0.51208 0.20728 0.0
C784 C 0.58945 0.47997 0.22766 0.0
C785 C 0.64794 0.53076 0.20756 0.0
C786 C 0.51471 0.41226 0.22619 0.0
C787 C 0.53183 0.42993 0.22528 0.0
C788 C 0.57475 0.45828 0.20397 0.0
C789 C 0.61515 0.50773 0.21465 0.0
C790 C 0.59851 0.48778 0.2152 0.0
C791 C 0.54707 0.43194 0.21705 0.0
C792 C 0.56532 0.45076 0.2164 0.0
H793 H 0.6295 0.55209 0.22801 0.0
H794 H 0.60165 0.51966 0.22746 0.0
H795 H 0.59793 0.48237 0.19364 0.0
H796 H 0.52612 0.38601 0.20472 0.0
H797 H 0.55624 0.41699 0.20322 0.0
C798 C 0.509 0.10605 0.22986 0.0
C799 C 0.50445 0.11777 0.22185 0.0
C800 C 0.52758 0.10864 0.22968 0.0
C801 C 0.57218 0.12854 0.20963 0.0
H802 H 0.59495 0.12769 0.24416 0.0
C803 C 0.6504 0.14251 0.2146 0.0
C804 C 0.65261 0.12969 0.22317 0.0
C805 C 0.63298 0.14264 0.21434 0.0
C806 C 0.58874 0.12784 0.23443 0.0
H807 H 0.51571 0.14111 0.20712 0.0
H808 H 0.54825 0.14559 0.20682 0.0
H809 H 0.56304 0.1245 0.24362 0.0
H810 H 0.6383 0.10702 0.23823 0.0
H811 H 0.60803 0.10715 0.23767 0.0
H812 H 0.59782 0.13158 0.20044 0.0
C813 C 0.53738 0.13439 0.2132 0.0
C814 C 0.57047 0.126 0.23412 0.0
C815 C 0.51877 0.13185 0.21342 0.0
C816 C 0.63713 0.11713 0.23153 0.0
C817 C 0.61979 0.11729 0.23128 0.0
C818 C 0.59048 0.13034 0.20993 0.0
C819 C 0.54201 0.12296 0.22146 0.0
C820 C 0.56187 0.12602 0.22172 0.0
C821 C 0.6175 0.13001 0.22268 0.0
C822 C 0.59881 0.1297 0.22233 0.0
H823 H 0.49829 0.09503 0.23643 0.0
H824 H 0.53066 0.0994 0.23598 0.0
H825 H 0.56584 0.1285 0.19992 0.0
H826 H 0.66207 0.15237 0.20804 0.0
H827 H 0.63167 0.15271 0.20768 0.0
C828 C 0.41023 0.93347 0.7828 0.0
C829 C 0.3982 0.9276 0.77132 0.0
C830 C 0.42695 0.93205 0.78296 0.0
C831 C 0.44995 0.9072 0.76689 0.0
H832 H 0.49814 0.95311 0.77636 0.0
C833 C 0.5238 0.91673 0.75223 0.0
C834 C 0.53947 0.92686 0.76107 0.0
C835 C 0.50605 0.91544 0.75489 0.0
C836 C 0.48479 0.94003 0.77393 0.0
H837 H 0.39399 0.91523 0.75117 0.0
H838 H 0.42308 0.91265 0.75152 0.0
H839 H 0.46782 0.95313 0.77875 0.0
H840 H 0.54866 0.94305 0.77988 0.0
H841 H 0.51756 0.94042 0.78469 0.0
H842 H 0.46683 0.89407 0.76204 0.0
C843 C 0.41957 0.91832 0.76038 0.0
C844 C 0.46744 0.94008 0.77528 0.0
C845 C 0.403 0.91993 0.76014 0.0
C846 C 0.5369 0.93529 0.7728 0.0
C847 C 0.51909 0.93386 0.77553 0.0
C848 C 0.46728 0.90708 0.76566 0.0
C849 C 0.43179 0.92451 0.77173 0.0
C850 C 0.44991 0.92379 0.77154 0.0
C851 C 0.50352 0.92411 0.76653 0.0
C852 C 0.48495 0.92362 0.76893 0.0
H853 H 0.40689 0.93944 0.79156 0.0
H854 H 0.43611 0.93684 0.79186 0.0
H855 H 0.43657 0.89436 0.76411 0.0
H856 H 0.52535 0.91014 0.74307 0.0
H857 H 0.49448 0.90808 0.74762 0.0
C858 C 0.10738 0.50361 0.76519 0.0
C859 C 0.11268 0.49546 0.77579 0.0
C860 C 0.11005 0.52214 0.76639 0.0
C861 C 0.11563 0.55917 0.79061 0.0
H862 H 0.13572 0.59247 0.75905 0.0
C863 C 0.12694 0.63701 0.7882 0.0
C864 C 0.11942 0.64077 0.77644 0.0
C865 C 0.12826 0.62023 0.78916 0.0
C866 C 0.13007 0.58333 0.76793 0.0
H867 H 0.12449 0.5002 0.79614 0.0
H868 H 0.12909 0.53281 0.79825 0.0
H869 H 0.13391 0.56112 0.75901 0.0
H870 H 0.10745 0.62994 0.75648 0.0
H871 H 0.10975 0.60084 0.75818 0.0
H872 H 0.11142 0.58135 0.79938 0.0
C873 C 0.12289 0.52473 0.78901 0.0
C874 C 0.12902 0.56539 0.76791 0.0
C875 C 0.12028 0.50611 0.78779 0.0
C876 C 0.11333 0.6275 0.76568 0.0
C877 C 0.11478 0.61088 0.7666 0.0
C878 C 0.1167 0.57719 0.79063 0.0
C879 C 0.11805 0.533 0.77822 0.0
C880 C 0.12128 0.5529 0.77908 0.0
C881 C 0.12228 0.60707 0.77832 0.0
C882 C 0.12343 0.58918 0.77913 0.0
H883 H 0.10138 0.49578 0.75583 0.0
H884 H 0.1058 0.52799 0.75802 0.0
H885 H 0.10957 0.5498 0.79934 0.0
H886 H 0.13173 0.64696 0.79667 0.0
H887 H 0.13414 0.61764 0.7983 0.0
C888 C 0.4129 0.51306 0.76234 0.0
C889 C 0.39691 0.51014 0.77009 0.0
C890 C 0.43005 0.53081 0.76262 0.0
C891 C 0.44965 0.58234 0.76994 0.0
H892 H 0.49846 0.58303 0.77135 0.0
C893 C 0.52357 0.65312 0.77396 0.0
C894 C 0.5385 0.65419 0.76582 0.0
C895 C 0.50607 0.63574 0.77517 0.0
C896 C 0.48495 0.58308 0.77084 0.0
H897 H 0.38636 0.5236 0.78418 0.0
H898 H 0.41643 0.55466 0.78467 0.0
H899 H 0.4683 0.55226 0.77231 0.0
H900 H 0.54668 0.63795 0.75241 0.0
H901 H 0.51618 0.60781 0.7544 0.0
H902 H 0.46636 0.61318 0.7683 0.0
C903 C 0.4156 0.5432 0.77833 0.0
C904 C 0.46769 0.56546 0.7714 0.0
C905 C 0.39843 0.52539 0.77809 0.0
C906 C 0.53552 0.6376 0.75882 0.0
C907 C 0.51807 0.62028 0.76003 0.0
C908 C 0.46696 0.6 0.76936 0.0
C909 C 0.43159 0.54606 0.77062 0.0
C910 C 0.44986 0.56488 0.77079 0.0
C911 C 0.50319 0.6191 0.76828 0.0
C912 C 0.48479 0.60052 0.76962 0.0
H913 H 0.41221 0.50164 0.75603 0.0
H914 H 0.44203 0.53266 0.75641 0.0
H915 H 0.43612 0.58232 0.76933 0.0
H916 H 0.52543 0.66565 0.77949 0.0
H917 H 0.49492 0.63524 0.78168 0.0
C918 C 0.59392 0.74804 0.56352 0.0
C919 C 0.58219 0.73295 0.55462 0.0
C920 C 0.59376 0.76541 0.56325 0.0
C921 C 0.5821 0.79545 0.54137 0.0
H922 H 0.58425 0.82113 0.57522 0.0
C923 C 0.57755 0.86552 0.54433 0.0
C924 C 0.59064 0.87986 0.55321 0.0
C925 C 0.57559 0.84713 0.54427 0.0
C926 C 0.5838 0.8142 0.56569 0.0
H927 H 0.56101 0.72421 0.53848 0.0
H928 H 0.56063 0.75458 0.5381 0.0
H929 H 0.58213 0.78964 0.57564 0.0
H930 H 0.61207 0.88623 0.56887 0.0
H931 H 0.60872 0.85424 0.56868 0.0
H932 H 0.58388 0.82014 0.53144 0.0
C933 C 0.57009 0.753 0.54518 0.0
C934 C 0.58259 0.79617 0.56593 0.0
C935 C 0.57024 0.73558 0.54545 0.0
C936 C 0.60182 0.8755 0.56193 0.0
C937 C 0.59982 0.85712 0.56189 0.0
C938 C 0.58328 0.8135 0.54114 0.0
C939 C 0.58185 0.76809 0.55409 0.0
C940 C 0.58197 0.78671 0.55378 0.0
C941 C 0.58661 0.84271 0.55312 0.0
C942 C 0.58439 0.82316 0.5533 0.0
H943 H 0.60335 0.74652 0.57067 0.0
H944 H 0.60322 0.77686 0.57009 0.0
H945 H 0.58185 0.78861 0.53184 0.0
H946 H 0.56871 0.86844 0.5375 0.0
H947 H 0.56521 0.83626 0.53746 0.0
C948 C 0.18856 0.73454 0.54197 0.0
C949 C 0.17722 0.73007 0.55375 0.0
C950 C 0.20646 0.75157 0.54121 0.0
C951 C 0.24457 0.78915 0.56274 0.0
H952 H 0.2577 0.82125 0.53056 0.0
C953 C 0.30321 0.86912 0.56301 0.0
C954 C 0.31596 0.87632 0.55194 0.0
C955 C 0.2872 0.85052 0.56267 0.0
C956 C 0.25436 0.8123 0.53954 0.0
H957 H 0.17579 0.73994 0.57399 0.0
H958 H 0.2068 0.76961 0.57262 0.0
H959 H 0.22801 0.78984 0.53099 0.0
H960 H 0.32184 0.86968 0.53178 0.0
H961 H 0.29372 0.83708 0.53119 0.0
H962 H 0.27068 0.81172 0.57138 0.0
C963 C 0.20204 0.75987 0.56402 0.0
C964 C 0.23738 0.79432 0.53978 0.0
C965 C 0.18418 0.74291 0.56477 0.0
C966 C 0.31228 0.86454 0.54047 0.0
C967 C 0.29616 0.84592 0.5401 0.0
C968 C 0.26149 0.80709 0.5625 0.0
C969 C 0.21338 0.76441 0.55224 0.0
C970 C 0.23215 0.78272 0.55148 0.0
C971 C 0.28352 0.8387 0.55123 0.0
C972 C 0.26639 0.81901 0.55099 0.0
H973 H 0.18361 0.72492 0.5333 0.0
H974 H 0.21495 0.75462 0.53203 0.0
H975 H 0.24114 0.78035 0.5718 0.0
H976 H 0.30559 0.87782 0.572 0.0
H977 H 0.27755 0.84547 0.57131 0.0
C978 C 0.30973 0.45672 0.53888 0.0
C979 C 0.31165 0.44667 0.54993 0.0
C980 C 0.29219 0.45604 0.53644 0.0
C981 C 0.24011 0.4271 0.54377 0.0
H982 H 0.23981 0.47483 0.53724 0.0
C983 C 0.17256 0.43346 0.55173 0.0
C984 C 0.16886 0.44487 0.54273 0.0
C985 C 0.18969 0.43295 0.55083 0.0
C986 C 0.23966 0.46133 0.53881 0.0
H987 H 0.29667 0.42798 0.56702 0.0
H988 H 0.26617 0.42686 0.56276 0.0
H989 H 0.27055 0.4754 0.53894 0.0
H990 H 0.18011 0.46444 0.52557 0.0
H991 H 0.21009 0.46344 0.52396 0.0
H992 H 0.20927 0.41305 0.54384 0.0
C993 C 0.27815 0.43511 0.55592 0.0
C994 C 0.25725 0.46167 0.5398 0.0
C995 C 0.29568 0.43588 0.55842 0.0
C996 C 0.18256 0.45554 0.53267 0.0
C997 C 0.19976 0.45504 0.53178 0.0
C998 C 0.22255 0.42675 0.54274 0.0
C999 C 0.27621 0.44519 0.54492 0.0
C1000 C 0.25764 0.44461 0.54257 0.0
C1001 C 0.20354 0.44382 0.54091 0.0
C1002 C 0.22213 0.44392 0.54054 0.0
H1003 H 0.32178 0.46515 0.53215 0.0
H1004 H 0.29106 0.46386 0.52784 0.0
H1005 H 0.23998 0.41368 0.54565 0.0
H1006 H 0.16233 0.42509 0.55962 0.0
H1007 H 0.19229 0.4244 0.55816 0.0
C1008 C 0.01143 0.32493 0.11517 0.0
C1009 C 0.02753 0.32234 0.11514 0.0
C1010 C 0.01057 0.338 0.12409 0.0
C1011 C 0.02442 0.35491 0.15783 0.0
H1012 H 0.00224 0.38714 0.14942 0.0
C1013 C 0.98999 0.37678 0.19988 0.0
C1014 C 0.97158 0.37372 0.19657 0.0
C1015 C 0.00255 0.37762 0.18971 0.0
C1016 C 0.00846 0.37822 0.15196 0.0
H1017 H 0.05573 0.33189 0.12393 0.0
H1018 H 0.0539 0.3544 0.13995 0.0
H1019 H 0.01422 0.37537 0.13111 0.0
H1020 H 0.95231 0.37025 0.17998 0.0
H1021 H 0.97374 0.37094 0.16234 0.0
H1022 H 0.01726 0.35622 0.17847 0.0
C1023 C 0.04212 0.34648 0.13291 0.0
C1024 C 0.01544 0.37163 0.14148 0.0
C1025 C 0.04315 0.33364 0.12377 0.0
C1026 C 0.96638 0.37257 0.18287 0.0
C1027 C 0.97881 0.37317 0.17272 0.0
C1028 C 0.0172 0.36125 0.16828 0.0
C1029 C 0.02565 0.34849 0.13329 0.0
C1030 C 0.02278 0.35931 0.1443 0.0
C1031 C -0.00315 0.37518 0.17602 0.0
C1032 C 0.00837 0.3723 0.16541 0.0
H1033 H -0.00075 0.31648 0.10854 0.0
H1034 H -0.0024 0.33909 0.1243 0.0
H1035 H 0.02987 0.34528 0.16026 0.0
H1036 H 0.99451 0.37801 0.21036 0.0
H1037 H 0.01647 0.37958 0.19261 0.0
C1038 C 0.73735 0.73726 0.1194 0.0
C1039 C 0.74356 0.75681 0.12188 0.0
C1040 C 0.72475 0.72302 0.12835 0.0
C1041 C 0.71426 0.71651 0.16395 0.0
H1042 H 0.67397 0.66548 0.15294 0.0
C1043 C 0.68514 0.65263 0.20105 0.0
C1044 C 0.68408 0.63587 0.19562 0.0
C1045 C 0.68705 0.66745 0.19252 0.0
C1046 C 0.68517 0.67966 0.15619 0.0
H1047 H 0.74082 0.77678 0.13533 0.0
H1048 H 0.71904 0.75175 0.15124 0.0
H1049 H 0.68702 0.69198 0.13656 0.0
H1050 H 0.68339 0.62114 0.17698 0.0
H1051 H 0.6873 0.64711 0.16216 0.0
H1052 H 0.71349 0.70408 0.18326 0.0
C1053 C 0.72388 0.74753 0.14229 0.0
C1054 C 0.69254 0.69481 0.14683 0.0
C1055 C 0.7363 0.7618 0.1332 0.0
C1056 C 0.68421 0.63389 0.18149 0.0
C1057 C 0.68626 0.64874 0.17297 0.0
C1058 C 0.70704 0.70133 0.17327 0.0
C1059 C 0.71827 0.72805 0.14005 0.0
C1060 C 0.70762 0.7132 0.15051 0.0
C1061 C 0.68807 0.66586 0.17838 0.0
C1062 C 0.69292 0.68256 0.16935 0.0
H1063 H 0.74259 0.73298 0.11069 0.0
H1064 H 0.72085 0.70814 0.12646 0.0
H1065 H 0.72601 0.73051 0.16702 0.0
H1066 H 0.68485 0.65448 0.21191 0.0
H1067 H 0.68812 0.68032 0.197 0.0
C1068 C 0.28382 0.01347 0.13955 0.0
C1069 C 0.28869 0.02341 0.12711 0.0
C1070 C 0.29827 0.01537 0.14844 0.0
C1071 C 0.35022 0.03106 0.1505 0.0
H1072 H 0.34574 0.04467 0.18751 0.0
C1073 C 0.41558 0.07405 0.18528 0.0
C1074 C 0.4134 0.07083 0.19933 0.0
C1075 C 0.39985 0.064 0.17662 0.0
C1076 C 0.34708 0.04046 0.17731 0.0
H1077 H 0.3125 0.04265 0.11406 0.0
H1078 H 0.33764 0.04603 0.1296 0.0
H1079 H 0.3188 0.03477 0.17198 0.0
H1080 H 0.39337 0.0536 0.21524 0.0
H1081 H 0.36599 0.03583 0.20007 0.0
H1082 H 0.37871 0.03722 0.15576 0.0
C1083 C 0.32268 0.03666 0.13244 0.0
C1084 C 0.33163 0.03482 0.1684 0.0
C1085 C 0.30826 0.03487 0.12359 0.0
C1086 C 0.39545 0.05657 0.20446 0.0
C1087 C 0.37975 0.04645 0.19579 0.0
C1088 C 0.36566 0.03662 0.15944 0.0
C1089 C 0.31784 0.02712 0.14501 0.0
C1090 C 0.33323 0.03054 0.15483 0.0
C1091 C 0.38164 0.05042 0.18181 0.0
C1092 C 0.36444 0.04186 0.17285 0.0
H1093 H 0.26886 0.00446 0.14252 0.0
H1094 H 0.29414 0.00776 0.15804 0.0
H1095 H 0.35171 0.02754 0.14013 0.0
H1096 H 0.42923 0.0849 0.181 0.0
H1097 H 0.40178 0.06757 0.16592 0.0
C1098 C 0.30936 0.0395 0.85399 0.0
C1099 C 0.30871 0.03496 0.8678 0.0
C1100 C 0.32147 0.03685 0.84515 0.0
C1101 C 0.35096 0.03346 0.82802 0.0
H1102 H 0.34787 0.98406 0.8342 0.0
C1103 C 0.37448 0.9959 0.78791 0.0
C1104 C 0.36059 0.97635 0.78585 0.0
C1105 C 0.37293 0.00601 0.79898 0.0
C1106 C 0.34897 -0.00205 0.83236 0.0
H1107 H 0.32144 0.02576 0.88344 0.0
H1108 H 0.34296 0.02161 0.86808 0.0
H1109 H 0.33711 -0.00224 0.85172 0.0
H1110 H 0.33426 0.95209 0.79379 0.0
H1111 H 0.3315 0.96964 0.81285 0.0
H1112 H 0.36155 0.03277 0.80818 0.0
C1113 C 0.33369 0.02663 0.86398 0.0
C1114 C 0.34304 0.00597 0.84249 0.0
C1115 C 0.32138 0.02904 0.87278 0.0
C1116 C 0.34524 0.96712 0.79508 0.0
C1117 C 0.34375 0.97714 0.8061 0.0
C1118 C 0.35681 0.02534 0.81782 0.0
C1119 C 0.33335 0.02981 0.84998 0.0
C1120 C 0.34328 0.02348 0.84027 0.0
C1121 C 0.35756 0.99666 0.80821 0.0
C1122 C 0.35513 0.00713 0.81973 0.0
H1123 H 0.29981 0.04416 0.84985 0.0
H1124 H 0.32064 0.03924 0.83443 0.0
H1125 H 0.35169 0.04715 0.82608 0.0
H1126 H 0.38648 0.0034 0.78096 0.0
H1127 H 0.38377 0.02106 0.80037 0.0
C1128 C 0.05663 0.38638 0.78126 0.0
C1129 C 0.05772 0.40432 0.78318 0.0
C1130 C 0.04643 0.37127 0.79036 0.0
C1131 C 0.03498 0.36448 0.826 0.0
H1132 H 0.00714 0.31017 0.81629 0.0
C1133 C 0.01785 0.30557 0.8659 0.0
C1134 C 0.02217 0.29128 0.86186 0.0
C1135 C 0.01686 0.31793 0.85633 0.0
C1136 C 0.01489 0.32528 0.81917 0.0
H1137 H 0.04805 0.42016 0.7957 0.0
H1138 H 0.03038 0.3937 0.81178 0.0
H1139 H 0.0144 0.33465 0.79889 0.0
H1140 H 0.02824 0.27836 0.8446 0.0
H1141 H 0.02703 0.3002 0.82798 0.0
H1142 H 0.03653 0.35532 0.84607 0.0
C1143 C 0.03747 0.39142 0.80321 0.0
C1144 C 0.01895 0.33925 0.80922 0.0
C1145 C 0.04752 0.40651 0.79399 0.0
C1146 C 0.02491 0.28924 0.84804 0.0
C1147 C 0.02402 0.30166 0.83848 0.0
C1148 C 0.03104 0.35053 0.83592 0.0
C1149 C 0.03723 0.37383 0.80165 0.0
C1150 C 0.02956 0.359 0.81247 0.0
C1151 C 0.02025 0.31633 0.84253 0.0
C1152 C 0.0215 0.3308 0.83253 0.0
H1153 H 0.06422 0.38421 0.77296 0.0
H1154 H 0.04668 0.35795 0.78897 0.0
H1155 H 0.04338 0.37961 0.82877 0.0
H1156 H 0.01546 0.30737 0.87647 0.0
H1157 H 0.01367 0.32891 0.85975 0.0
C1158 C 0.62063 0.68907 0.80574 0.0
C1159 C 0.62365 0.68893 0.79173 0.0
C1160 C 0.63404 0.68937 0.81493 0.0
C1161 C 0.68557 0.7048 0.81676 0.0
H1162 H 0.67164 0.68317 0.85296 0.0
C1163 C 0.74295 0.72493 0.85821 0.0
C1164 C 0.73881 0.73243 0.86981 0.0
C1165 C 0.72851 0.71444 0.84867 0.0
C1166 C 0.67572 0.68915 0.84284 0.0
H1167 H 0.64247 0.6878 0.77635 0.0
H1168 H 0.66569 0.68795 0.7924 0.0
H1169 H 0.64653 0.67384 0.83577 0.0
H1170 H 0.71612 0.73377 0.88096 0.0
H1171 H 0.69101 0.71547 0.86436 0.0
H1172 H 0.71467 0.72053 0.82395 0.0
C1173 C 0.65321 0.68831 0.79629 0.0
C1174 C 0.66137 0.68391 0.83303 0.0
C1175 C 0.63988 0.68818 0.7871 0.0
C1176 C 0.71978 0.72832 0.87206 0.0
C1177 C 0.70535 0.71766 0.86262 0.0
C1178 C 0.69992 0.70991 0.82654 0.0
C1179 C 0.65067 0.68935 0.8103 0.0
C1180 C 0.66606 0.6922 0.82001 0.0
C1181 C 0.70967 0.71105 0.85068 0.0
C1182 C 0.69505 0.70265 0.83979 0.0
H1183 H 0.60824 0.68963 0.80962 0.0
H1184 H 0.63175 0.69046 0.82563 0.0
H1185 H 0.68971 0.71166 0.80691 0.0
H1186 H 0.75748 0.72783 0.85623 0.0
H1187 H 0.73218 0.7094 0.83956 0.0
C1188 C 0.0138 0.74694 0.85058 0.0
C1189 C 0.01441 0.74597 0.86477 0.0
C1190 C 0.01479 0.73313 0.84253 0.0
C1191 C 0.01091 0.69884 0.8271 0.0
H1192 H 0.05136 0.68806 0.83745 0.0
C1193 C 0.05752 0.68618 0.78936 0.0
C1194 C 0.06337 0.6727 0.79241 0.0
C1195 C 0.04634 0.68964 0.79853 0.0
C1196 C 0.0397 0.69053 0.83454 0.0
H1197 H 0.01552 0.72917 0.88168 0.0
H1198 H 0.01703 0.70487 0.86759 0.0
H1199 H 0.04116 0.70449 0.85331 0.0
H1200 H 0.0614 0.65164 0.80717 0.0
H1201 H 0.04208 0.65802 0.82338 0.0
H1202 H 0.01042 0.68591 0.80798 0.0
C1203 C 0.01613 0.71653 0.8627 0.0
C1204 C 0.03382 0.69994 0.84364 0.0
C1205 C 0.01523 0.73043 0.87076 0.0
C1206 C 0.05714 0.66215 0.80457 0.0
C1207 C 0.04613 0.66581 0.81385 0.0
C1208 C 0.01691 0.68956 0.81797 0.0
C1209 C 0.0163 0.71794 0.84848 0.0
C1210 C 0.01985 0.70483 0.83984 0.0
C1211 C 0.04093 0.67983 0.811 0.0
C1212 C 0.03181 0.68592 0.82145 0.0
H1213 H 0.01313 0.75871 0.84564 0.0
H1214 H 0.01521 0.73486 0.83162 0.0
H1215 H -0.00021 0.702 0.82399 0.0
H1216 H 0.06198 0.69443 0.78002 0.0
H1217 H 0.04274 0.7007 0.79614 0.0
C1218 C 0.36122 0.40719 0.78971 0.0
C1219 C 0.36085 0.42336 0.79493 0.0
C1220 C 0.36102 0.39331 0.79842 0.0
C1221 C 0.36593 0.38328 0.83469 0.0
H1222 H 0.32832 0.3306 0.82484 0.0
C1223 C 0.32192 0.32345 0.87306 0.0
C1224 C 0.31705 0.30433 0.87014 0.0
C1225 C 0.33257 0.33824 0.86382 0.0
C1226 C 0.33921 0.34516 0.82763 0.0
H1227 H 0.36075 0.43807 0.81338 0.0
H1228 H 0.35982 0.41364 0.82856 0.0
H1229 H 0.33728 0.35641 0.80844 0.0
H1230 H 0.3204 0.28586 0.85559 0.0
H1231 H 0.33886 0.31179 0.83932 0.0
H1232 H 0.36693 0.37199 0.85419 0.0
C1233 C 0.36066 0.41181 0.81775 0.0
C1234 C 0.34437 0.35999 0.81822 0.0
C1235 C 0.36101 0.42575 0.80904 0.0
C1236 C 0.32385 0.30044 0.85809 0.0
C1237 C 0.33437 0.31525 0.84877 0.0
C1238 C 0.36066 0.36844 0.84414 0.0
C1239 C 0.36029 0.39524 0.81254 0.0
C1240 C 0.35734 0.3793 0.82178 0.0
C1241 C 0.33846 0.33421 0.85143 0.0
C1242 C 0.34681 0.34933 0.84082 0.0
H1243 H 0.36135 0.40506 0.77887 0.0
H1244 H 0.36106 0.38088 0.79409 0.0
H1245 H 0.37627 0.39795 0.83765 0.0
H1246 H 0.31702 0.32693 0.88231 0.0
H1247 H 0.33531 0.35267 0.86609 0.0
C1248 C 0.7527 0.04941 0.86043 0.0
C1249 C 0.74829 0.03728 0.87178 0.0
C1250 C 0.73818 0.04675 0.85132 0.0
C1251 C 0.68516 0.02257 0.84679 0.0
H1252 H 0.69623 0.01464 0.80985 0.0
C1253 C 0.62634 0.972 0.80972 0.0
C1254 C 0.6289 0.97592 0.79577 0.0
C1255 C 0.64063 0.98399 0.8189 0.0
C1256 C 0.69294 0.01723 0.82002 0.0
H1257 H 0.7251 0.01365 0.88296 0.0
H1258 H 0.69985 0.00905 0.86713 0.0
H1259 H 0.72217 0.0284 0.82641 0.0
H1260 H 0.64788 0.99612 0.78053 0.0
H1261 H 0.67265 0.01724 0.79658 0.0
H1262 H 0.6558 0.01085 0.84049 0.0
C1263 C 0.71448 0.02062 0.86524 0.0
C1264 C 0.70785 0.02513 0.82952 0.0
C1265 C 0.72898 0.02313 0.87424 0.0
C1266 C 0.64561 0.99257 0.79122 0.0
C1267 C 0.65982 0.00465 0.80041 0.0
C1268 C 0.67026 0.01479 0.83727 0.0
C1269 C 0.71898 0.03209 0.85354 0.0
C1270 C 0.70398 0.02727 0.84309 0.0
C1271 C 0.65771 0.00025 0.81432 0.0
C1272 C 0.67387 0.01143 0.82388 0.0
H1273 H 0.76745 0.06049 0.85831 0.0
H1274 H 0.742 0.05585 0.8424 0.0
H1275 H 0.68186 0.02432 0.85717 0.0
H1276 H 0.61362 0.95929 0.81354 0.0
H1277 H 0.63862 0.97999 0.82952 0.0
C1278 C 0.71676 0.01351 0.12086 0.0
C1279 C 0.72283 8e-05 0.1234 0.0
C1280 C 0.70486 0.01584 0.13006 0.0
C1281 C 0.6982 0.01408 0.16607 0.0
H1282 H 0.66065 0.0295 0.157 0.0
C1283 C 0.68067 0.05711 0.20407 0.0
C1284 C 0.68117 0.07357 0.19852 0.0
C1285 C 0.67924 0.04242 0.19564 0.0
C1286 C 0.67108 0.0252 0.15971 0.0
H1287 H 0.72014 0.97757 0.13705 0.0
H1288 H 0.69952 0.98193 0.15334 0.0
H1289 H 0.66942 0.01283 0.14013 0.0
H1290 H 0.67964 0.08712 0.17988 0.0
H1291 H 0.67788 0.06192 0.16515 0.0
H1292 H 0.70104 0.02759 0.18522 0.0
C1293 C 0.704 0.9906 0.1442 0.0
C1294 C 0.676 0.01557 0.15009 0.0
C1295 C 0.71575 0.98811 0.13488 0.0
C1296 C 0.67934 0.07464 0.18444 0.0
C1297 C 0.67813 0.06006 0.176 0.0
C1298 C 0.69342 0.02384 0.17563 0.0
C1299 C 0.69893 0.0049 0.14205 0.0
C1300 C 0.69016 0.0106 0.15301 0.0
C1301 C 0.67851 0.04398 0.18148 0.0
C1302 C 0.68039 0.03021 0.17238 0.0
H1303 H 0.72183 0.0228 0.11201 0.0
H1304 H 0.70138 0.02711 0.12819 0.0
H1305 H 0.70932 0.01064 0.16856 0.0
H1306 H 0.68174 0.05574 0.21491 0.0
H1307 H 0.67921 0.03008 0.2002 0.0
C1308 C 0.02314 0.72282 0.11825 0.0
C1309 C 0.03977 0.74065 0.12096 0.0
C1310 C 0.01806 0.70691 0.12663 0.0
C1311 C 0.02196 0.69684 0.16184 0.0
H1312 H -0.00388 0.64356 0.14963 0.0
C1313 C 0.98046 0.6348 0.19942 0.0
C1314 C 0.96183 0.62088 0.19516 0.0
C1315 C 0.99389 0.64773 0.19013 0.0
C1316 C 0.0033 0.65836 0.1532 0.0
H1317 H 0.06473 0.75552 0.1341 0.0
H1318 H 0.05569 0.72767 0.14887 0.0
H1319 H 0.01331 0.66968 0.13328 0.0
H1320 H 0.94297 0.60901 0.17773 0.0
H1321 H 0.96616 0.63188 0.16159 0.0
H1322 H 0.01114 0.68575 0.18157 0.0
C1323 C 0.04659 0.72608 0.14027 0.0
C1324 C 0.01319 0.67329 0.14385 0.0
C1325 C 0.05177 0.74199 0.1318 0.0
C1326 C 0.95719 0.61961 0.18133 0.0
C1327 C 0.97057 0.63263 0.17206 0.0
C1328 C 0.01199 0.68194 0.17116 0.0
C1329 C 0.02944 0.70853 0.13794 0.0
C1330 C 0.02212 0.69268 0.14803 0.0
C1331 C 0.98894 0.64712 0.1764 0.0
C1332 C 0.00205 0.66255 0.16688 0.0
H1333 H 0.01367 0.72128 0.10991 0.0
H1334 H 0.00465 0.69365 0.12466 0.0
H1335 H 0.02849 0.71165 0.16534 0.0
H1336 H 0.98457 0.63598 0.21 0.0
H1337 H 0.00803 0.65849 0.19377 0.0
C1338 C 0.28664 0.28282 0.14283 0.0
C1339 C 0.28716 0.29257 0.13085 0.0
C1340 C 0.30269 0.29029 0.15137 0.0
C1341 C 0.34823 0.33382 0.16038 0.0
H1342 H 0.36469 0.29712 0.16981 0.0
C1343 C 0.40775 0.34798 0.19976 0.0
C1344 C 0.4208 0.34175 0.19623 0.0
C1345 C 0.39204 0.34378 0.19139 0.0
C1346 C 0.36033 0.30755 0.16718 0.0
H1347 H 0.30445 0.31836 0.11881 0.0
H1348 H 0.33247 0.33145 0.13381 0.0
H1349 H 0.33525 0.28637 0.15666 0.0
H1350 H 0.42806 0.32691 0.18094 0.0
H1351 H 0.40052 0.31945 0.1664 0.0
H1352 H 0.37342 0.35501 0.17096 0.0
C1353 C 0.31966 0.31801 0.13655 0.0
C1354 C 0.34338 0.30135 0.15981 0.0
C1355 C 0.30366 0.31046 0.12794 0.0
C1356 C 0.41822 0.33183 0.18397 0.0
C1357 C 0.40242 0.32748 0.17567 0.0
C1358 C 0.36513 0.33999 0.16791 0.0
C1359 C 0.31948 0.30772 0.14814 0.0
C1360 C 0.33718 0.31442 0.15633 0.0
C1361 C 0.38903 0.33313 0.17943 0.0
C1362 C 0.37135 0.32691 0.17131 0.0
H1363 H 0.27411 0.26906 0.1454 0.0
H1364 H 0.30212 0.28222 0.16036 0.0
H1365 H 0.34371 0.34415 0.15782 0.0
H1366 H 0.40942 0.35574 0.20912 0.0
H1367 H 0.38186 0.34821 0.19454 0.0
C1368 C 0.64244 0.7127 0.52023 0.0
C1369 C 0.63721 0.70208 0.53238 0.0
C1370 C 0.6549 0.71107 0.51108 0.0
C1371 C 0.68986 0.69381 0.50744 0.0
H1372 H 0.66811 0.67844 0.47143 0.0
C1373 C 0.69989 0.65947 0.45393 0.0
C1374 C 0.7025 0.64478 0.45959 0.0
C1375 C 0.69701 0.67191 0.46228 0.0
C1376 C 0.67474 0.68318 0.4813 0.0
H1377 H 0.6417 0.68226 0.54482 0.0
H1378 H 0.66335 0.67942 0.52889 0.0
H1379 H 0.65387 0.69098 0.4873 0.0
H1380 H 0.70521 0.63231 0.47842 0.0
H1381 H 0.69966 0.65359 0.49295 0.0
H1382 H 0.71036 0.6854 0.50157 0.0
C1383 C 0.65791 0.68904 0.52643 0.0
C1384 C 0.66653 0.69035 0.49041 0.0
C1385 C 0.64534 0.69051 0.53549 0.0
C1386 C 0.70318 0.64344 0.47374 0.0
C1387 C 0.70016 0.65578 0.48209 0.0
C1388 C 0.69817 0.68676 0.49829 0.0
C1389 C 0.66251 0.69899 0.51401 0.0
C1390 C 0.67358 0.69508 0.50372 0.0
C1391 C 0.69654 0.66983 0.47645 0.0
C1392 C 0.69026 0.6807 0.48528 0.0
H1393 H 0.63647 0.7218 0.51758 0.0
H1394 H 0.65829 0.71895 0.50159 0.0
H1395 H 0.69573 0.69763 0.51759 0.0
H1396 H 0.69954 0.66103 0.44304 0.0
H1397 H 0.6946 0.68281 0.45762 0.0
C1398 C 0.40829 0.09033 0.4793 0.0
C1399 C 0.40525 0.08885 0.46523 0.0
C1400 C 0.39568 0.07543 0.48787 0.0
C1401 C 0.36263 0.02311 0.48698 0.0
H1402 H 0.35414 0.03137 0.52449 0.0
C1403 C 0.33127 0.96076 0.52563 0.0
C1404 C 0.34343 0.96489 0.53692 0.0
C1405 C 0.33347 0.97564 0.51701 0.0
C1406 C 0.35626 0.02885 0.514 0.0
H1407 H 0.38591 0.07118 0.44918 0.0
H1408 H 0.36372 0.04527 0.46419 0.0
H1409 H 0.36767 0.05858 0.50869 0.0
H1410 H 0.36658 0.98786 0.54853 0.0
H1411 H 0.37036 0.01372 0.53356 0.0
H1412 H 0.35184 0.99353 0.49241 0.0
C1413 C 0.37609 0.05776 0.46857 0.0
C1414 C 0.36407 0.04441 0.50497 0.0
C1415 C 0.38878 0.07263 0.45997 0.0
C1416 C 0.3571 0.98421 0.53983 0.0
C1417 C 0.35914 -0.00094 0.53134 0.0
C1418 C 0.3547 0.00754 0.49599 0.0
C1419 C 0.37967 0.05877 0.48258 0.0
C1420 C 0.36803 0.04185 0.49149 0.0
C1421 C 0.34766 0.99489 0.51967 0.0
C1422 C 0.35212 0.01041 0.50969 0.0
H1423 H 0.42083 0.10267 0.48367 0.0
H1424 H 0.39906 0.07659 0.49859 0.0
H1425 H 0.36567 0.02062 0.47671 0.0
H1426 H 0.32056 0.946 0.52316 0.0
H1427 H 0.3244 0.97208 0.5081 0.0
C1428 C 0.94477 0.34031 0.47228 0.0
C1429 C 0.95052 0.34692 0.45895 0.0
C1430 C 0.95821 0.34113 0.4817 0.0
C1431 C 0.00741 0.34805 0.4853 0.0
H1432 H 0.0093 0.37587 0.51797 0.0
C1433 C 0.05858 0.38792 0.53538 0.0
C1434 C 0.07648 0.39796 0.5287 0.0
C1435 C 0.04171 0.37626 0.52808 0.0
C1436 C 0.00879 0.36766 0.5091 0.0
H1437 H 0.97456 0.35851 0.44482 0.0
H1438 H -0.00205 0.36001 0.46124 0.0
H1439 H 0.98185 0.36465 0.50281 0.0
H1440 H 0.09087 0.40283 0.50926 0.0
H1441 H 0.06146 0.38299 0.49648 0.0
H1442 H 0.03469 0.35161 0.49141 0.0
C1443 C 0.98308 0.35413 0.46442 0.0
C1444 C 0.99303 0.36124 0.50039 0.0
C1445 C 0.96971 0.35345 0.45504 0.0
C1446 C 0.0773 0.39533 0.5147 0.0
C1447 C 0.06042 0.3838 0.50738 0.0
C1448 C 0.02315 0.35437 0.49407 0.0
C1449 C 0.97758 0.34839 0.47791 0.0
C1450 C 0.99248 0.35193 0.48819 0.0
C1451 C 0.04237 0.37452 0.51394 0.0
C1452 C 0.02431 0.36481 0.50584 0.0
H1453 H 0.93005 0.33509 0.47557 0.0
H1454 H 0.95357 0.33649 0.49202 0.0
H1455 H 0.00721 0.34065 0.47605 0.0
H1456 H 0.05752 0.38945 0.54621 0.0
H1457 H 0.02809 0.36903 0.53347 0.0
C1458 C 0.36411 0.39707 0.53542 0.0
C1459 C 0.34577 0.39448 0.53828 0.0
C1460 C 0.36672 0.38741 0.52461 0.0
C1461 C 0.36793 0.36031 0.50403 0.0
H1462 H 0.34726 0.36592 0.46986 0.0
C1463 C 0.39645 0.34804 0.45427 0.0
C1464 C 0.40212 0.36323 0.44493 0.0
C1465 C 0.38411 0.34583 0.46498 0.0
C1466 C 0.35304 0.36413 0.47933 0.0
H1467 H 0.31557 0.37906 0.53241 0.0
H1468 H 0.32019 0.36216 0.51337 0.0
H1469 H 0.33637 0.37309 0.49104 0.0
H1470 H 0.39829 0.38722 0.43894 0.0
H1471 H 0.37726 0.38377 0.45784 0.0
H1472 H 0.38564 0.35277 0.49239 0.0
C1473 C 0.33254 0.37177 0.51951 0.0
C1474 C 0.34664 0.36802 0.49147 0.0
C1475 C 0.3299 0.38139 0.53043 0.0
C1476 C 0.39424 0.37542 0.44601 0.0
C1477 C 0.38204 0.37333 0.4568 0.0
C1478 C 0.37438 0.35651 0.49192 0.0
C1479 C 0.35105 0.37495 0.51637 0.0
C1480 C 0.35461 0.36689 0.5039 0.0
C1481 C 0.37733 0.35888 0.46665 0.0
C1482 C 0.36755 0.35909 0.4794 0.0
H1483 H 0.37662 0.407 0.54132 0.0
H1484 H 0.38122 0.39042 0.52234 0.0
H1485 H 0.37409 0.35903 0.51348 0.0
H1486 H 0.40204 0.33821 0.45357 0.0
H1487 H 0.38044 0.33432 0.47224 0.0
C1488 C 0.65737 0.98612 0.53547 0.0
C1489 C 0.64216 0.96883 0.53022 0.0
C1490 C 0.66976 0.00101 0.52678 0.0
C1491 C 0.6833 0.01305 0.49036 0.0
H1492 H 0.6902 0.06292 0.50078 0.0
C1493 C 0.68698 0.06919 0.45274 0.0
C1494 C 0.69932 0.08894 0.45536 0.0
C1495 C 0.68564 0.05527 0.4619 0.0
C1496 C 0.68882 0.04923 0.49782 0.0
H1497 H 0.6286 0.95319 0.51175 0.0
H1498 H 0.64976 0.97926 0.49663 0.0
H1499 H 0.67751 0.03669 0.51716 0.0
H1500 H 0.72055 0.10961 0.46933 0.0
H1501 H 0.7179 0.08517 0.48552 0.0
H1502 H 0.69353 0.02544 0.47072 0.0
C1503 C 0.65243 0.98128 0.50743 0.0
C1504 C 0.68156 0.03415 0.50722 0.0
C1505 C 0.64015 0.96636 0.51612 0.0
C1506 C 0.71086 0.09449 0.46707 0.0
C1507 C 0.70934 0.08054 0.47633 0.0
C1508 C 0.69043 0.0281 0.48093 0.0
C1509 C 0.6671 -0.00104 0.51266 0.0
C1510 C 0.67809 0.0157 0.50347 0.0
C1511 C 0.69647 0.06082 0.47392 0.0
C1512 C 0.69265 0.04614 0.48445 0.0
H1513 H 0.65944 0.98836 0.54631 0.0
H1514 H 0.68112 0.01431 0.53113 0.0
H1515 H 0.68121 -0.00087 0.48724 0.0
H1516 H 0.67802 0.06446 0.44374 0.0
H1517 H 0.67542 0.0402 0.45985 0.0
C1518 C 0.97168 0.64083 0.47635 0.0
C1519 C 0.97449 0.64534 0.46248 0.0
C1520 C 0.98559 0.65262 0.4858 0.0
C1521 C 0.03762 0.68681 0.48796 0.0
H1522 H 0.0246 0.69112 0.52518 0.0
C1523 C 0.09523 0.71624 0.52991 0.0
C1524 C 0.09042 0.7028 0.54049 0.0
C1525 C 0.08111 0.71443 0.52072 0.0
C1526 C 0.02844 0.69019 0.51479 0.0
H1527 H 0.99362 0.66629 0.44768 0.0
H1528 H 0.01782 0.68707 0.46421 0.0
H1529 H -0.00066 0.67846 0.50791 0.0
H1530 H 0.06692 0.67776 0.55032 0.0
H1531 H 0.04233 0.67469 0.53437 0.0
H1532 H 0.06661 0.698 0.49493 0.0
C1533 C 0.00503 0.6742 0.46776 0.0
C1534 C 0.014 0.68286 0.50492 0.0
C1535 C 0.99115 0.66231 0.45829 0.0
C1536 C 0.07108 0.68823 0.54219 0.0
C1537 C 0.05696 0.68659 0.53314 0.0
C1538 C 0.05208 0.6943 0.4978 0.0
C1539 C 0.00258 0.66929 0.4816 0.0
C1540 C 0.0183 0.68038 0.49149 0.0
C1541 C 0.06192 0.69935 0.52212 0.0
C1542 C 0.04749 0.69538 0.51139 0.0
H1543 H 0.95899 0.62786 0.47991 0.0
H1544 H 0.98335 0.64819 0.49633 0.0
H1545 H 0.04144 0.68494 0.47776 0.0
H1546 H 0.11002 0.72764 0.52839 0.0
H1547 H 0.08526 0.72448 0.51232 0.0
C1548 C 0.0033 0.28079 0.04563 0.0
C1549 C 0.02137 0.28724 0.05176 0.0
C1550 C 0.00188 0.2822 0.03162 0.0
C1551 C 0.03058 0.30543 0.0006 0.0
H1552 H 0.98945 0.26024 0.98285 0.0
C1553 C 0.03154 0.28786 0.94401 0.0
C1554 C 0.01403 0.27953 0.93681 0.0
C1555 C 0.03191 0.29141 0.95789 0.0
C1556 C 0.00082 0.27311 0.98765 0.0
H1557 H 0.05217 0.30068 0.04805 0.0
H1558 H 0.04965 0.30274 0.02357 0.0
H1559 H 0.99111 0.26151 0.00747 0.0
H1560 H 0.98331 0.26916 0.93842 0.0
H1561 H 0.984 0.27535 0.96269 0.0
H1562 H 0.04061 0.3167 0.98067 0.0
C1563 C 0.0366 0.29689 0.0296 0.0
C1564 C 0.00177 0.27386 0.00178 0.0
C1565 C 0.03804 0.29559 0.04363 0.0
C1566 C -0.00298 0.2755 0.94369 0.0
C1567 C -0.00262 0.27896 0.95759 0.0
C1568 C 0.02968 0.30464 0.98645 0.0
C1569 C 0.01847 0.28998 0.02342 0.0
C1570 C 0.01679 0.28992 0.00842 0.0
C1571 C 0.01478 0.28663 0.96488 0.0
C1572 C 0.01491 0.28836 0.97984 0.0
H1573 H 0.9902 0.27445 0.05163 0.0
H1574 H 0.98773 0.27704 0.02721 0.0
H1575 H 0.04216 0.31815 0.00541 0.0
H1576 H 0.04491 0.2912 0.939 0.0
H1577 H 0.04551 0.29717 0.96325 0.0
C1578 C 0.75054 0.76134 0.94599 0.0
C1579 C 0.76341 0.75602 0.94049 0.0
C1580 C 0.74727 0.76032 0.95995 0.0
C1581 C 0.75488 0.74089 0.9922 0.0
H1582 H 0.75593 0.786 0.00774 0.0
C1583 C 0.77505 0.76443 0.04773 0.0
C1584 C 0.76487 0.77191 0.05468 0.0
C1585 C 0.77158 0.75975 0.034 0.0
C1586 C 0.75527 0.77314 0.00356 0.0
H1587 H 0.78238 0.74473 0.94525 0.0
H1588 H 0.77704 0.74337 0.96962 0.0
H1589 H 0.75569 0.78256 0.98324 0.0
H1590 H 0.74268 0.77981 0.05277 0.0
H1591 H 0.73671 0.77172 0.02872 0.0
H1592 H 0.7552 0.73191 0.01262 0.0
C1593 C 0.76921 0.74804 0.96315 0.0
C1594 C 0.7551 0.77114 0.9895 0.0
C1595 C 0.77238 0.74894 0.94917 0.0
C1596 C 0.75081 0.77416 0.04769 0.0
C1597 C 0.74743 0.76959 0.03392 0.0
C1598 C 0.75516 0.74296 0.00627 0.0
C1599 C 0.7569 0.75408 0.96872 0.0
C1600 C 0.75521 0.75515 0.98365 0.0
C1601 C 0.75794 0.76254 0.02691 0.0
C1602 C 0.75566 0.75926 0.01208 0.0
H1603 H 0.74324 0.76666 0.93955 0.0
H1604 H 0.73741 0.76473 0.96388 0.0
H1605 H 0.75464 0.72824 0.98801 0.0
H1606 H 0.78593 0.76246 0.05283 0.0
H1607 H 0.78006 0.75456 0.02884 0.0
C1608 C 0.30297 0.05008 0.94792 0.0
C1609 C 0.29027 0.03379 0.94026 0.0
C1610 C 0.304 0.04872 0.96199 0.0
C1611 C 0.29104 0.01415 0.99047 0.0
H1612 H 0.28628 0.05318 0.01067 0.0
C1613 C 0.26365 0.00313 0.04568 0.0
C1614 C 0.27123 0.01926 0.05432 0.0
C1615 C 0.26911 0.0053 0.03204 0.0
C1616 C 0.288 0.04235 0.00525 0.0
H1617 H 0.26938 0.0031 0.94126 0.0
H1618 H 0.27111 0.00078 0.96578 0.0
H1619 H 0.29075 0.05638 0.98625 0.0
H1620 H 0.29122 0.05013 0.05563 0.0
H1621 H 0.301 0.05384 0.03194 0.0
H1622 H 0.28793 -7e-05 0.00949 0.0
C1623 C 0.28035 0.01457 0.96092 0.0
C1624 C 0.29056 0.0442 0.99123 0.0
C1625 C 0.27925 0.01595 0.94688 0.0
C1626 C 0.28495 0.03745 0.04919 0.0
C1627 C 0.2905 0.0396 0.0356 0.0
C1628 C 0.28856 0.01234 0.00453 0.0
C1629 C 0.29243 0.03103 0.96865 0.0
C1630 C 0.29179 0.02997 0.98366 0.0
C1631 C 0.28236 0.02362 0.02679 0.0
C1632 C 0.2867 0.02627 0.01205 0.0
H1633 H 0.31173 0.06402 0.94312 0.0
H1634 H 0.31361 0.06159 0.96768 0.0
H1635 H 0.29217 0.00307 0.98491 0.0
H1636 H 0.25305 0.98892 0.04933 0.0
H1637 H 0.26239 0.99273 0.02552 0.0
C1638 C 0.02027 0.79935 0.94902 0.0
C1639 C 0.0191 0.78517 0.94005 0.0
C1640 C 0.02464 0.79894 0.96266 0.0
C1641 C 0.02037 0.76822 0.99035 0.0
H1642 H 0.06394 0.81391 0.00573 0.0
C1643 C 0.03825 0.77308 0.04745 0.0
C1644 C 0.04402 0.79097 0.05368 0.0
C1645 C 0.03716 0.77143 0.03333 0.0
C1646 C 0.0516 0.8011 0.00166 0.0
H1647 H 0.0211 0.75916 0.93832 0.0
H1648 H 0.02813 0.75812 0.96244 0.0
H1649 H 0.05754 0.8126 0.98148 0.0
H1650 H 0.05328 0.82115 0.05004 0.0
H1651 H 0.05069 0.81817 0.02558 0.0
H1652 H 0.01364 0.75709 0.01054 0.0
C1653 C 0.02594 0.76967 0.95877 0.0
C1654 C 0.04806 0.80034 0.98776 0.0
C1655 C 0.02197 0.7703 0.94503 0.0
C1656 C 0.04893 0.80719 0.04554 0.0
C1657 C 0.04757 0.80549 0.03147 0.0
C1658 C 0.02368 0.76911 0.00431 0.0
C1659 C 0.02754 0.78414 0.96762 0.0
C1660 C 0.03226 0.78403 0.98205 0.0
C1661 C 0.04157 0.78757 0.02516 0.0
C1662 C 0.03915 0.78573 0.01018 0.0
H1663 H 0.01821 0.81103 0.94547 0.0
H1664 H 0.02566 0.81016 0.96936 0.0
H1665 H 0.00803 0.75555 0.98611 0.0
H1666 H 0.0345 0.76035 0.05349 0.0
H1667 H 0.03279 0.75747 0.02883 0.0
C1668 C 0.27782 0.29848 0.0508 0.0
C1669 C 0.25905 0.29418 0.0543 0.0
C1670 C 0.28338 0.3002 0.03723 0.0
C1671 C 0.28484 0.28644 0.00902 0.0
H1672 H 0.2658 0.30614 0.98064 0.0
C1673 C 0.27697 0.26099 0.95382 0.0
C1674 C 0.28056 0.27428 0.94334 0.0
C1675 C 0.27745 0.26634 0.96734 0.0
C1676 C 0.27149 0.30083 0.98844 0.0
H1677 H 0.23172 0.28939 0.04633 0.0
H1678 H 0.24126 0.29198 0.02264 0.0
H1679 H 0.2614 0.31181 0.00432 0.0
H1680 H 0.28812 0.30386 0.93886 0.0
H1681 H 0.28914 0.31325 0.96251 0.0
H1682 H 0.29489 0.27544 0.99317 0.0
C1683 C 0.25181 0.29429 0.03037 0.0
C1684 C 0.26878 0.30389 0.00201 0.0
C1685 C 0.24629 0.2927 0.04397 0.0
C1686 C 0.2852 0.29324 0.9467 0.0
C1687 C 0.28569 0.2986 0.96024 0.0
C1688 C 0.2876 0.28343 0.99547 0.0
C1689 C 0.27024 0.29753 0.02684 0.0
C1690 C 0.27507 0.29638 0.01246 0.0
C1691 C 0.28157 0.28512 0.9707 0.0
C1692 C 0.28058 0.29022 0.98503 0.0
H1693 H 0.28808 0.29994 0.05854 0.0
H1694 H 0.29782 0.30311 0.03486 0.0
H1695 H 0.28969 0.28026 0.01678 0.0
H1696 H 0.27333 0.24627 0.95159 0.0
H1697 H 0.27394 0.25552 0.97513 0.0
C1698 C 0.75487 0.01293 0.94658 0.0
C1699 C 0.76749 0.03177 0.94189 0.0
C1700 C 0.74981 0.00955 0.96025 0.0
C1701 C 0.75051 0.03367 0.99257 0.0
H1702 H 0.75244 0.99033 0.00862 0.0
C1703 C 0.76116 0.02724 0.04965 0.0
C1704 C 0.75112 0.00888 0.05573 0.0
C1705 C 0.75997 0.02933 0.0357 0.0
C1706 C 0.7515 0.00229 0.00427 0.0
H1707 H 0.78422 0.06191 0.94779 0.0
H1708 H 0.7757 0.05597 0.97173 0.0
H1709 H 0.75628 0.99541 0.98425 0.0
H1710 H 0.73141 0.9784 0.05202 0.0
H1711 H 0.72936 0.98209 0.02759 0.0
H1712 H 0.74634 0.04084 0.01274 0.0
C1713 C 0.76948 0.04383 0.9648 0.0
C1714 C 0.75369 0.00521 0.99029 0.0
C1715 C 0.77446 0.04723 0.95109 0.0
C1716 C 0.73939 0.99272 0.04762 0.0
C1717 C 0.73827 0.99482 0.03364 0.0
C1718 C 0.74838 0.03078 0.00658 0.0
C1719 C 0.75734 0.02491 0.96957 0.0
C1720 C 0.75349 0.02108 0.98429 0.0
C1721 C 0.74876 0.01311 0.02752 0.0
C1722 C 0.74912 0.01521 0.01258 0.0
H1723 H 0.74909 0.00072 0.93972 0.0
H1724 H 0.74015 0.99485 0.96355 0.0
H1725 H 0.74998 0.04585 0.98823 0.0
H1726 H 0.77028 0.03999 0.05561 0.0
H1727 H 0.76839 0.04359 0.03126 0.0
C1728 C 0.65917 0.58307 0.27933 0.0
C1729 C 0.6718 0.59841 0.2709 0.0
C1730 C 0.65944 0.58556 0.29333 0.0
C1731 C 0.69153 0.61551 0.32071 0.0
H1732 H 0.64474 0.58872 0.34219 0.0
C1733 C 0.69202 0.61772 0.37935 0.0
C1734 C 0.68151 0.5995 0.38557 0.0
C1735 C 0.69007 0.61981 0.36546 0.0
C1736 C 0.65792 0.59627 0.33631 0.0
H1737 H 0.6942 0.62862 0.27052 0.0
H1738 H 0.6945 0.63305 0.29503 0.0
H1739 H 0.64252 0.58878 0.31753 0.0
H1740 H 0.66043 0.56928 0.38219 0.0
H1741 H 0.65705 0.57294 0.35802 0.0
H1742 H 0.70691 0.62272 0.33953 0.0
C1743 C 0.68459 0.619 0.29079 0.0
C1744 C 0.65666 0.59629 0.3222 0.0
C1745 C 0.68435 0.61649 0.27675 0.0
C1746 C 0.66876 0.5835 0.3777 0.0
C1747 C 0.6667 0.58562 0.36387 0.0
C1748 C 0.69277 0.61557 0.33483 0.0
C1749 C 0.67229 0.60349 0.29925 0.0
C1750 C 0.67348 0.60551 0.31423 0.0
C1751 C 0.67744 0.60375 0.35759 0.0
C1752 C 0.676 0.60557 0.34275 0.0
H1753 H 0.64933 0.56894 0.27517 0.0
H1754 H 0.64999 0.57322 0.29955 0.0
H1755 H 0.70477 0.62256 0.31487 0.0
H1756 H 0.70195 0.63033 0.38515 0.0
H1757 H 0.69844 0.63397 0.36088 0.0
C1758 C 0.42384 0.09624 0.38463 0.0
C1759 C 0.42868 0.11527 0.38794 0.0
C1760 C 0.42239 0.09056 0.37109 0.0
C1761 C 0.41852 0.10489 0.33595 0.0
H1762 H 0.44476 0.07677 0.3265 0.0
C1763 C 0.45786 0.09433 0.28668 0.0
C1764 C 0.44434 0.09153 0.27656 0.0
C1765 C 0.45312 0.09375 0.30036 0.0
C1766 C 0.43737 0.08461 0.32898 0.0
H1767 H 0.43511 0.14302 0.37964 0.0
H1768 H 0.43285 0.1332 0.35607 0.0
H1769 H 0.44134 0.08286 0.35026 0.0
H1770 H 0.4149 0.08495 0.27288 0.0
H1771 H 0.40658 0.08371 0.29678 0.0
H1772 H 0.41539 0.10749 0.31466 0.0
C1773 C 0.42994 0.12259 0.36391 0.0
C1774 C 0.4352 0.0879 0.3426 0.0
C1775 C 0.43136 0.12826 0.37744 0.0
C1776 C 0.42571 0.08732 0.28043 0.0
C1777 C 0.42096 0.0867 0.29412 0.0
C1778 C 0.42071 0.10162 0.32233 0.0
C1779 C 0.42574 0.10377 0.36058 0.0
C1780 C 0.4261 0.09843 0.34622 0.0
C1781 C 0.43474 0.09029 0.30423 0.0
C1782 C 0.43051 0.09179 0.31868 0.0
H1783 H 0.42156 0.08583 0.39249 0.0
H1784 H 0.41887 0.07588 0.36885 0.0
H1785 H 0.41121 0.11282 0.33842 0.0
H1786 H 0.47234 0.09761 0.28404 0.0
H1787 H 0.46416 0.09681 0.30787 0.0
C1788 C 0.95287 0.3679 0.37989 0.0
C1789 C 0.94441 0.34994 0.38655 0.0
C1790 C 0.95834 0.36945 0.36631 0.0
C1791 C 0.94551 0.34054 0.33548 0.0
H1792 H 0.99069 0.38545 0.32078 0.0
C1793 C 0.95716 0.35087 0.27804 0.0
C1794 C 0.96196 0.36932 0.27325 0.0
C1795 C 0.95863 0.3478 0.29181 0.0
C1796 C 0.978 0.37284 0.32473 0.0
H1797 H 0.93575 0.31965 0.38434 0.0
H1798 H 0.9453 0.32237 0.36055 0.0
H1799 H 0.98666 0.3812 0.34532 0.0
H1800 H 0.97301 0.39922 0.27905 0.0
H1801 H 0.97522 0.39382 0.3031 0.0
H1802 H 0.93641 0.33252 0.315 0.0
C1803 C 0.94754 0.33521 0.36585 0.0
C1804 C 0.97571 0.3704 0.33877 0.0
C1805 C 0.94214 0.33367 0.37947 0.0
C1806 C 0.96917 0.38483 0.28242 0.0
C1807 C 0.97055 0.38175 0.29621 0.0
C1808 C 0.94776 0.34301 0.32147 0.0
C1809 C 0.95543 0.35306 0.35908 0.0
C1810 C 0.95923 0.35444 0.34429 0.0
C1811 C 0.96485 0.3631 0.30111 0.0
C1812 C 0.96382 0.3594 0.31593 0.0
H1813 H 0.95489 0.38074 0.38506 0.0
H1814 H 0.96415 0.38335 0.36134 0.0
H1815 H 0.93252 0.32823 0.33941 0.0
H1816 H 0.95174 0.33864 0.2712 0.0
H1817 H 0.95446 0.33334 0.29523 0.0
C1818 C 0.67885 0.0936 0.37909 0.0
C1819 C 0.6964 0.10241 0.38624 0.0
C1820 C 0.67844 0.08947 0.36531 0.0
C1821 C 0.70898 0.10693 0.33536 0.0
H1822 H 0.66794 0.06071 0.31852 0.0
C1823 C 0.70413 0.09872 0.27748 0.0
C1824 C 0.68567 0.09183 0.27188 0.0
C1825 C 0.70636 0.09717 0.29138 0.0
C1826 C 0.67944 0.07374 0.32307 0.0
H1827 H 0.72719 0.11315 0.38466 0.0
H1828 H 0.72645 0.10603 0.36052 0.0
H1829 H 0.67016 0.06306 0.34322 0.0
H1830 H 0.65502 0.07728 0.27638 0.0
H1831 H 0.65891 0.07501 0.30066 0.0
H1832 H 0.71785 0.11802 0.31534 0.0
C1833 C 0.71305 0.10242 0.3656 0.0
C1834 C 0.68073 0.07504 0.3372 0.0
C1835 C 0.71345 0.10643 0.37942 0.0
C1836 C 0.66943 0.08272 0.28039 0.0
C1837 C 0.67167 0.08131 0.29431 0.0
C1838 C 0.70762 0.10569 0.32126 0.0
C1839 C 0.69558 0.09417 0.35837 0.0
C1840 C 0.69533 0.09179 0.34347 0.0
C1841 C 0.69019 0.08883 0.3 0.0
C1842 C 0.69265 0.08921 0.31494 0.0
H1843 H 0.66545 0.09024 0.38406 0.0
H1844 H 0.66479 0.0833 0.35997 0.0
H1845 H 0.72022 0.12013 0.33991 0.0
H1846 H 0.71692 0.10562 0.27116 0.0
H1847 H 0.72079 0.10278 0.29539 0.0
C1848 C 0.9629 0.63477 0.38006 0.0
C1849 C 0.94393 0.62756 0.38478 0.0
C1850 C 0.96684 0.63678 0.36615 0.0
C1851 C 0.94517 0.63622 0.33253 0.0
H1852 H 0.97881 0.61769 0.31969 0.0
C1853 C 0.95485 0.59814 0.28205 0.0
C1854 C 0.95167 0.60869 0.272 0.0
C1855 C 0.95757 0.60424 0.29553 0.0
C1856 C 0.96933 0.62286 0.3231 0.0
H1857 H 0.91432 0.61739 0.37864 0.0
H1858 H 0.92104 0.62036 0.35453 0.0
H1859 H 0.97599 0.62145 0.3439 0.0
H1860 H 0.95 0.63451 0.26803 0.0
H1861 H 0.95533 0.64549 0.29149 0.0
H1862 H 0.93745 0.63633 0.31184 0.0
C1863 C 0.93301 0.62488 0.36148 0.0
C1864 C 0.96793 0.62531 0.33699 0.0
C1865 C 0.92911 0.62302 0.37535 0.0
C1866 C 0.95218 0.62595 0.27559 0.0
C1867 C 0.95515 0.63219 0.28905 0.0
C1868 C 0.9464 0.63357 0.31866 0.0
C1869 C 0.95186 0.63151 0.35669 0.0
C1870 C 0.95544 0.63154 0.3419 0.0
C1871 C 0.95743 0.62117 0.29925 0.0
C1872 C 0.95814 0.6264 0.31379 0.0
H1873 H 0.97467 0.63853 0.38709 0.0
H1874 H 0.98157 0.6422 0.36281 0.0
H1875 H 0.9357 0.64141 0.33593 0.0
H1876 H 0.95449 0.58475 0.27961 0.0
H1877 H 0.95897 0.5952 0.3031 0.0
C1878 C 0.43601 0.37455 0.37779 0.0
C1879 C 0.42955 0.35621 0.38352 0.0
C1880 C 0.43452 0.37656 0.36385 0.0
C1881 C 0.41198 0.34901 0.33222 0.0
H1882 H 0.4581 0.39026 0.31539 0.0
C1883 C 0.43283 0.3479 0.27653 0.0
C1884 C 0.44144 0.36532 0.26919 0.0
C1885 C 0.42851 0.34769 0.29026 0.0
C1886 C 0.44497 0.37888 0.31993 0.0
H1887 H 0.41578 0.32552 0.37921 0.0
H1888 H 0.41361 0.32904 0.35488 0.0
H1889 H 0.45564 0.38824 0.33997 0.0
H1890 H 0.45164 0.39607 0.27036 0.0
H1891 H 0.44418 0.39568 0.29441 0.0
H1892 H 0.40173 0.33926 0.31207 0.0
C1893 C 0.41953 0.34187 0.36115 0.0
C1894 C 0.44353 0.37772 0.33404 0.0
C1895 C 0.42089 0.33985 0.37511 0.0
C1896 C 0.44509 0.38243 0.27575 0.0
C1897 C 0.44088 0.38223 0.28953 0.0
C1898 C 0.41348 0.35011 0.31809 0.0
C1899 C 0.42666 0.36029 0.35532 0.0
C1900 C 0.42717 0.36257 0.34036 0.0
C1901 C 0.4328 0.36489 0.29696 0.0
C1902 C 0.43014 0.36487 0.31182 0.0
H1903 H 0.44255 0.38743 0.38403 0.0
H1904 H 0.43981 0.39091 0.35973 0.0
H1905 H 0.39905 0.33736 0.33676 0.0
H1906 H 0.42976 0.33445 0.27176 0.0
H1907 H 0.42249 0.33414 0.29575 0.0
C1908 C 0.34363 0.95158 0.713 0.0
C1909 C 0.36148 0.95533 0.71832 0.0
C1910 C 0.3417 0.95406 0.69919 0.0
C1911 C 0.36945 0.97478 0.6673 0.0
H1912 H 0.32434 0.9321 0.65062 0.0
C1913 C 0.366 0.95398 0.61113 0.0
C1914 C 0.34859 0.94761 0.60405 0.0
C1915 C 0.36715 0.95804 0.62496 0.0
C1916 C 0.33684 0.94431 0.65513 0.0
H1917 H 0.39151 0.96549 0.71344 0.0
H1918 H 0.38805 0.96939 0.68933 0.0
H1919 H 0.32718 0.93388 0.67518 0.0
H1920 H 0.31889 0.9411 0.60587 0.0
H1921 H 0.3209 0.94813 0.6301 0.0
H1922 H 0.3794 0.98472 0.64713 0.0
C1923 C 0.37559 0.96481 0.69583 0.0
C1924 C 0.33848 0.94537 0.66922 0.0
C1925 C 0.37755 0.96245 0.70966 0.0
C1926 C 0.33249 0.9459 0.61104 0.0
C1927 C 0.33361 0.94986 0.62491 0.0
C1928 C 0.36786 0.97366 0.65318 0.0
C1929 C 0.35753 0.96023 0.69038 0.0
C1930 C 0.35496 0.96042 0.67548 0.0
C1931 C 0.35089 0.95574 0.63204 0.0
C1932 C 0.35169 0.95822 0.64696 0.0
H1933 H 0.33101 0.94628 0.71945 0.0
H1934 H 0.32768 0.95076 0.69537 0.0
H1935 H 0.38218 0.98674 0.67181 0.0
H1936 H 0.3787 0.95551 0.60603 0.0
H1937 H 0.38059 0.96233 0.63021 0.0
C1938 C 0.12037 0.46716 0.70689 0.0
C1939 C 0.10727 0.45175 0.71506 0.0
C1940 C 0.11996 0.46524 0.69284 0.0
C1941 C 0.10269 0.42835 0.66567 0.0
H1942 H 0.11742 0.47323 0.6429 0.0
C1943 C 0.10294 0.42824 0.60648 0.0
C1944 C 0.12076 0.44198 0.60085 0.0
C1945 C 0.09954 0.42836 0.62037 0.0
C1946 C 0.11326 0.4606 0.64916 0.0
H1947 H 0.08311 0.42238 0.71492 0.0
H1948 H 0.08195 0.4192 0.69026 0.0
H1949 H 0.11367 0.47547 0.66723 0.0
H1950 H 0.14897 0.46658 0.60531 0.0
H1951 H 0.14282 0.46703 0.6295 0.0
H1952 H 0.10203 0.41349 0.64738 0.0
C1953 C 0.09289 0.43262 0.69475 0.0
C1954 C 0.11122 0.46187 0.6631 0.0
C1955 C 0.09347 0.43447 0.70887 0.0
C1956 C 0.13512 0.45577 0.60936 0.0
C1957 C 0.13159 0.45612 0.62317 0.0
C1958 C 0.10442 0.427 0.65166 0.0
C1959 C 0.10623 0.44796 0.68656 0.0
C1960 C 0.10638 0.44591 0.67158 0.0
C1961 C 0.11377 0.44248 0.62877 0.0
C1962 C 0.11014 0.44325 0.64336 0.0
H1963 H 0.1313 0.48061 0.71136 0.0
H1964 H 0.13076 0.47721 0.68693 0.0
H1965 H 0.09915 0.41583 0.67188 0.0
H1966 H 0.09164 0.41741 0.60014 0.0
H1967 H 0.08569 0.41772 0.62452 0.0
C1968 C 0.62114 0.70093 0.71083 0.0
C1969 C 0.61208 0.68319 0.71778 0.0
C1970 C 0.62518 0.70161 0.69701 0.0
C1971 C 0.60681 0.6717 0.66686 0.0
H1972 H 0.65243 0.71331 0.6498 0.0
C1973 C 0.61265 0.67866 0.60897 0.0
C1974 C 0.61914 0.69733 0.60383 0.0
C1975 C 0.61493 0.67593 0.62268 0.0
C1976 C 0.63958 0.70164 0.65442 0.0
H1977 H 0.60095 0.65234 0.71584 0.0
H1978 H 0.60796 0.65354 0.69164 0.0
H1979 H 0.65093 0.71026 0.67448 0.0
H1980 H 0.63379 0.72783 0.60889 0.0
H1981 H 0.63733 0.72304 0.63287 0.0
H1982 H 0.59505 0.6635 0.64696 0.0
C1983 C 0.61179 0.66689 0.6969 0.0
C1984 C 0.63876 0.69987 0.66853 0.0
C1985 C 0.60784 0.66622 0.71075 0.0
C1986 C 0.62863 0.71326 0.61255 0.0
C1987 C 0.63078 0.71052 0.62629 0.0
C1988 C 0.60759 0.67352 0.65278 0.0
C1989 C 0.62018 0.68455 0.68985 0.0
C1990 C 0.62221 0.6851 0.6749 0.0
C1991 C 0.62361 0.69178 0.63156 0.0
C1992 C 0.62382 0.68873 0.6464 0.0
H1993 H 0.62467 0.71428 0.71596 0.0
H1994 H 0.63145 0.7154 0.69183 0.0
H1995 H 0.59374 0.66034 0.67149 0.0
H1996 H 0.60548 0.66609 0.60247 0.0
H1997 H 0.60958 0.66134 0.62636 0.0
C1998 C 0.34508 0.4279 0.71486 0.0
C1999 C 0.36291 0.43519 0.72153 0.0
C2000 C 0.34336 0.42305 0.70114 0.0
C2001 C 0.37225 0.43572 0.67028 0.0
H2002 H 0.32676 0.39165 0.65514 0.0
C2003 C 0.36342 0.42391 0.61277 0.0
C2004 C 0.34527 0.41931 0.60753 0.0
C2005 C 0.36591 0.42274 0.62667 0.0
C2006 C 0.33952 0.40406 0.65922 0.0
H2007 H 0.39279 0.4425 0.71915 0.0
H2008 H 0.38977 0.43406 0.69513 0.0
H2009 H 0.33061 0.39525 0.67972 0.0
H2010 H 0.31533 0.40913 0.6127 0.0
H2011 H 0.31976 0.40749 0.63699 0.0
H2012 H 0.38089 0.44496 0.64988 0.0
C2013 C 0.37717 0.43224 0.70053 0.0
C2014 C 0.34173 0.40609 0.67328 0.0
C2015 C 0.37887 0.43701 0.71428 0.0
C2016 C 0.3295 0.41278 0.61642 0.0
C2017 C 0.33202 0.41172 0.63035 0.0
C2018 C 0.37001 0.43374 0.65624 0.0
C2019 C 0.35945 0.42545 0.69378 0.0
C2020 C 0.35798 0.42212 0.67894 0.0
C2021 C 0.35035 0.41707 0.63566 0.0
C2022 C 0.35347 0.41805 0.65054 0.0
H2023 H 0.33248 0.42626 0.72016 0.0
H2024 H 0.32958 0.41807 0.69619 0.0
H2025 H 0.38479 0.44837 0.67434 0.0
H2026 H 0.37583 0.42879 0.60616 0.0
H2027 H 0.38013 0.42661 0.63041 0.0
C2028 C 0.59276 0.96633 0.70987 0.0
C2029 C 0.6054 0.96562 0.71942 0.0
C2030 C 0.59668 0.96698 0.69601 0.0
C2031 C 0.61079 0.97397 0.66686 0.0
H2032 H 0.62924 0.93936 0.65607 0.0
C2033 C 0.62025 0.9602 0.61057 0.0
C2034 C 0.61324 0.94075 0.60706 0.0
C2035 C 0.6221 0.96573 0.62417 0.0
C2036 C 0.62405 0.94906 0.6589 0.0
H2037 H 0.63279 0.96655 0.72204 0.0
H2038 H 0.63989 0.96823 0.69792 0.0
H2039 H 0.62722 0.94532 0.67998 0.0
H2040 H 0.60298 0.91192 0.61507 0.0
H2041 H 0.60593 0.92149 0.63872 0.0
H2042 H 0.60666 0.97684 0.64573 0.0
C2043 C 0.62665 0.96767 0.70107 0.0
C2044 C 0.62315 0.95271 0.67263 0.0
C2045 C 0.62263 0.96681 0.7149 0.0
C2046 C 0.60848 0.92703 0.61742 0.0
C2047 C 0.61029 0.93255 0.631 0.0
C2048 C 0.61161 0.97024 0.65311 0.0
C2049 C 0.61342 0.96712 0.69145 0.0
C2050 C 0.61621 0.96496 0.67679 0.0
C2051 C 0.61699 0.95193 0.63454 0.0
C2052 C 0.6179 0.95744 0.649 0.0
H2053 H 0.57935 0.96539 0.71305 0.0
H2054 H 0.58608 0.96636 0.68889 0.0
H2055 H 0.6056 0.98366 0.66972 0.0
H2056 H 0.62411 0.97114 0.60281 0.0
H2057 H 0.62751 0.98081 0.62657 0.0
C2058 C 0.09277 0.69034 0.71572 0.0
C2059 C 0.08892 0.67238 0.72093 0.0
C2060 C 0.09204 0.69295 0.70178 0.0
C2061 C 0.07558 0.66673 0.66901 0.0
H2062 H 0.1186 0.71366 0.65443 0.0
C2063 C 0.10027 0.67478 0.61338 0.0
C2064 C 0.10636 0.69256 0.60685 0.0
C2065 C 0.09558 0.67257 0.62714 0.0
C2066 C 0.10632 0.70063 0.65834 0.0
H2067 H 0.08058 0.64286 0.71565 0.0
H2068 H 0.07969 0.6475 0.69132 0.0
H2069 H 0.11475 0.70923 0.67886 0.0
H2070 H 0.11184 0.72183 0.60957 0.0
H2071 H 0.10369 0.71796 0.63367 0.0
H2072 H 0.06756 0.65792 0.6484 0.0
C2073 C 0.083 0.65951 0.698 0.0
C2074 C 0.10408 0.69808 0.67235 0.0
C2075 C 0.08362 0.65688 0.71196 0.0
C2076 C 0.10727 0.70797 0.61432 0.0
C2077 C 0.10267 0.70579 0.62812 0.0
C2078 C 0.07787 0.66925 0.65498 0.0
C2079 C 0.08755 0.67768 0.69274 0.0
C2080 C 0.08884 0.68099 0.67786 0.0
C2081 C 0.09695 0.68811 0.63469 0.0
C2082 C 0.09343 0.68611 0.64951 0.0
H2083 H 0.09671 0.70254 0.72238 0.0
H2084 H 0.09528 0.70702 0.69807 0.0
H2085 H 0.06351 0.65353 0.67293 0.0
H2086 H 0.09936 0.6626 0.60791 0.0
H2087 H 0.09144 0.65885 0.63196 0.0
C2088 C 0.84688 0.06703 0.09489 0.0
C2089 C 0.82918 0.06392 0.10007 0.0
C2090 C 0.86373 0.0848 0.09671 0.0
C2091 C 0.87997 0.13602 0.10222 0.0
H2092 H 0.92955 0.13972 0.10868 0.0
C2093 C 0.95086 0.2096 0.10465 0.0
C2094 C 0.96644 0.21066 0.09731 0.0
C2095 C 0.93427 0.19174 0.10701 0.0
C2096 C 0.91581 0.13892 0.10682 0.0
H2097 H 0.81538 0.07681 0.11159 0.0
H2098 H 0.84488 0.10787 0.11478 0.0
H2099 H 0.90014 0.10817 0.10934 0.0
H2100 H 0.97694 0.19378 0.08692 0.0
H2101 H 0.94799 0.16276 0.0909 0.0
H2102 H 0.89566 0.16668 0.09936 0.0
C2103 C 0.84564 0.0966 0.1092 0.0
C2104 C 0.89898 0.12086 0.1072 0.0
C2105 C 0.82878 0.07878 0.10742 0.0
C2106 C 0.96521 0.19348 0.09261 0.0
C2107 C 0.94866 0.17566 0.09499 0.0
C2108 C 0.89681 0.15408 0.10182 0.0
C2109 C 0.86326 0.09987 0.10373 0.0
C2110 C 0.88091 0.11918 0.10467 0.0
C2111 C 0.93293 0.17459 0.10212 0.0
C2112 C 0.91495 0.15569 0.10387 0.0
H2113 H 0.8477 0.05588 0.0892 0.0
H2114 H 0.87702 0.08693 0.09223 0.0
H2115 H 0.86629 0.13518 0.10007 0.0
H2116 H 0.9514 0.22258 0.10846 0.0
H2117 H 0.92247 0.19136 0.11266 0.0
C2118 C 0.97414 0.78303 0.10403 0.0
C2119 C 0.99029 0.79814 0.09752 0.0
C2120 C 0.95704 0.78361 0.10533 0.0
C2121 C 0.93725 0.8168 0.10356 0.0
H2122 H 0.88905 0.7699 0.09573 0.0
C2123 C 0.86677 0.8165 0.09075 0.0
C2124 C 0.84937 0.80145 0.09601 0.0
C2125 C 0.88403 0.81635 0.09247 0.0
C2126 C 0.90235 0.78305 0.09814 0.0
H2127 H 0.00124 0.82583 0.08744 0.0
H2128 H 0.97137 0.82671 0.08952 0.0
H2129 H 0.91912 0.76913 0.09597 0.0
H2130 H 0.83652 0.77464 0.10746 0.0
H2131 H 0.86669 0.77442 0.11046 0.0
H2132 H 0.92046 0.83078 0.10544 0.0
C2133 C 0.97198 0.81454 0.09381 0.0
C2134 C 0.91959 0.78261 0.09829 0.0
C2135 C 0.98907 0.81397 0.09254 0.0
C2136 C 0.84966 0.78643 0.10324 0.0
C2137 C 0.86692 0.78624 0.10491 0.0
C2138 C 0.92001 0.81724 0.10337 0.0
C2139 C 0.95571 0.7993 0.10014 0.0
C2140 C 0.93727 0.79953 0.10085 0.0
C2141 C 0.88426 0.80111 0.09944 0.0
C2142 C 0.9024 0.80042 0.10051 0.0
H2143 H 0.97464 0.77067 0.10805 0.0
H2144 H 0.94485 0.77177 0.11042 0.0
H2145 H 0.95058 0.83 0.1058 0.0
H2146 H 0.86704 0.82829 0.08514 0.0
H2147 H 0.89711 0.8279 0.088 0.0
C2148 C 0.23673 0.08008 0.07592 0.0
C2149 C 0.24411 0.07511 0.08719 0.0
C2150 C 0.23589 0.09712 0.07591 0.0
C2151 C 0.23575 0.13397 0.0982 0.0
H2152 H 0.25439 0.16649 0.06621 0.0
C2153 C 0.24936 0.21211 0.09737 0.0
C2154 C 0.24479 0.21859 0.08544 0.0
C2155 C 0.24847 0.1942 0.09772 0.0
C2156 C 0.24886 0.15746 0.07515 0.0
H2157 H 0.25597 0.0839 0.10741 0.0
H2158 H 0.25445 0.11367 0.10739 0.0
H2159 H 0.25397 0.13581 0.06663 0.0
H2160 H 0.23531 0.21117 0.0646 0.0
H2161 H 0.2334 0.17978 0.06528 0.0
H2162 H 0.23053 0.15557 0.10671 0.0
C2163 C 0.24927 0.10433 0.09859 0.0
C2164 C 0.24866 0.13989 0.07539 0.0
C2165 C 0.25023 0.08734 0.09857 0.0
C2166 C 0.23905 0.20666 0.07392 0.0
C2167 C 0.23806 0.18871 0.07429 0.0
C2168 C 0.23584 0.15151 0.09793 0.0
C2169 C 0.24229 0.1095 0.08719 0.0
C2170 C 0.24215 0.12798 0.08692 0.0
C2171 C 0.24289 0.18232 0.08617 0.0
C2172 C 0.24245 0.16349 0.08641 0.0
H2173 H 0.23185 0.07096 0.067 0.0
H2174 H 0.23021 0.10062 0.06706 0.0
H2175 H 0.23045 0.12498 0.10717 0.0
H2176 H 0.2539 0.221 0.10641 0.0
H2177 H 0.25255 0.18986 0.10698 0.0
C2178 C 0.19249 0.98064 0.90443 0.0
C2179 C 0.20909 0.98162 0.89881 0.0
C2180 C 0.17445 0.96407 0.90283 0.0
C2181 C 0.14761 0.91897 0.88278 0.0
H2182 H 0.11402 0.90205 0.91425 0.0
C2183 C 0.07836 0.84353 0.88775 0.0
C2184 C 0.06222 0.84309 0.8938 0.0
C2185 C 0.09611 0.86077 0.8872 0.0
C2186 C 0.12313 0.9067 0.90532 0.0
H2187 H 0.21975 0.96613 0.88686 0.0
H2188 H 0.18825 0.93699 0.8843 0.0
H2189 H 0.14534 0.93138 0.91554 0.0
H2190 H 0.05188 0.86058 0.90352 0.0
H2191 H 0.08276 0.89054 0.90253 0.0
H2192 H 0.12535 0.89392 0.87268 0.0
C2193 C 0.18914 0.94916 0.88978 0.0
C2194 C 0.14109 0.92354 0.90605 0.0
C2195 C 0.20721 0.96581 0.8913 0.0
C2196 C 0.06404 0.86036 0.89887 0.0
C2197 C 0.08176 0.87753 0.89837 0.0
C2198 C 0.12963 0.902 0.88208 0.0
C2199 C 0.17258 0.94801 0.89567 0.0
C2200 C 0.15351 0.92997 0.89477 0.0
C2201 C 0.09806 0.87785 0.89276 0.0
C2202 C 0.11717 0.89577 0.89333 0.0
H2203 H 0.19341 0.99264 0.91015 0.0
H2204 H 0.16194 0.96385 0.90726 0.0
H2205 H 0.15675 0.92362 0.87387 0.0
H2206 H 0.07742 0.83047 0.88373 0.0
H2207 H 0.10846 0.86058 0.88287 0.0
C2208 C 0.21157 0.26462 0.89211 0.0
C2209 C 0.2143 0.25198 0.90052 0.0
C2210 C 0.19347 0.26325 0.89124 0.0
C2211 C 0.14874 0.24602 0.9108 0.0
H2212 H 0.12776 0.25233 0.87699 0.0
C2213 C 0.0726 0.23625 0.90811 0.0
C2214 C 0.07043 0.24991 0.90049 0.0
C2215 C 0.08961 0.23544 0.9073 0.0
C2216 C 0.13351 0.25071 0.88653 0.0
H2217 H 0.20003 0.22754 0.91424 0.0
H2218 H 0.16849 0.22508 0.91264 0.0
H2219 H 0.15852 0.25275 0.87695 0.0
H2220 H 0.08426 0.27318 0.88583 0.0
H2221 H 0.11409 0.27195 0.88459 0.0
H2222 H 0.12398 0.24425 0.92044 0.0
C2223 C 0.1804 0.23625 0.90688 0.0
C2224 C 0.15111 0.25093 0.8865 0.0
C2225 C 0.19846 0.2376 0.90774 0.0
C2226 C 0.08548 0.26248 0.89183 0.0
C2227 C 0.10254 0.26171 0.89105 0.0
C2228 C 0.13121 0.24584 0.91084 0.0
C2229 C 0.17777 0.24922 0.89878 0.0
C2230 C 0.15891 0.24859 0.89864 0.0
C2231 C 0.10487 0.24832 0.8989 0.0
C2232 C 0.12338 0.24818 0.89871 0.0
H2233 H 0.22349 0.27585 0.88641 0.0
H2234 H 0.19194 0.27355 0.88499 0.0
H2235 H 0.15454 0.24455 0.92037 0.0
H2236 H 0.06122 0.22625 0.91479 0.0
H2237 H 0.09081 0.22473 0.9133 0.0
C2238 C 0.8062 0.85152 0.90778 0.0
C2239 C 0.79134 0.83588 0.90072 0.0
C2240 C 0.80824 0.8699 0.90694 0.0
C2241 C 0.79434 0.90006 0.88675 0.0
H2242 H 0.80318 0.92811 0.92052 0.0
C2243 C 0.78363 0.96611 0.89277 0.0
C2244 C 0.79664 0.9813 0.90114 0.0
C2245 C 0.78446 0.94909 0.89178 0.0
C2246 C 0.80101 0.92062 0.91096 0.0
H2247 H 0.76726 0.82737 0.88694 0.0
H2248 H 0.77071 0.85943 0.88559 0.0
H2249 H 0.80198 0.89708 0.92047 0.0
H2250 H 0.82117 0.99086 0.91464 0.0
H2251 H 0.82273 0.96127 0.91279 0.0
H2252 H 0.79314 0.92358 0.87729 0.0
C2253 C 0.7809 0.85751 0.89168 0.0
C2254 C 0.80031 0.90282 0.91093 0.0
C2255 C 0.77885 0.83911 0.89252 0.0
C2256 C 0.81084 0.97936 0.90819 0.0
C2257 C 0.81168 0.96236 0.90718 0.0
C2258 C 0.79505 0.91791 0.88677 0.0
C2259 C 0.79547 0.87305 0.89901 0.0
C2260 C 0.79689 0.8923 0.89885 0.0
C2261 C 0.79832 0.94692 0.89913 0.0
C2262 C 0.7983 0.92834 0.8989 0.0
H2263 H 0.81615 0.84955 0.91411 0.0
H2264 H 0.81981 0.88164 0.91254 0.0
H2265 H 0.7919 0.8924 0.87725 0.0
H2266 H 0.77252 0.96716 0.8872 0.0
H2267 H 0.77384 0.93739 0.88559 0.0
C2268 C 0.52589 0.41728 0.42957 0.0
C2269 C 0.50702 0.41382 0.4315 0.0
C2270 C 0.54179 0.4353 0.43265 0.0
C2271 C 0.55584 0.48631 0.43528 0.0
H2272 H 0.60202 0.49151 0.45211 0.0
C2273 C 0.62346 0.56105 0.44321 0.0
C2274 C 0.6411 0.56243 0.43959 0.0
C2275 C 0.60675 0.54298 0.4445 0.0
C2276 C 0.58927 0.4903 0.44734 0.0
H2277 H 0.49001 0.42643 0.43847 0.0
H2278 H 0.51782 0.45796 0.44379 0.0
H2279 H 0.57331 0.45957 0.45006 0.0
H2280 H 0.65516 0.54589 0.43492 0.0
H2281 H 0.62605 0.51449 0.43693 0.0
H2282 H 0.57189 0.51688 0.43213 0.0
C2283 C 0.52028 0.44673 0.43982 0.0
C2284 C 0.57284 0.47202 0.44618 0.0
C2285 C 0.50437 0.42865 0.43683 0.0
C2286 C 0.64181 0.54535 0.43773 0.0
C2287 C 0.62511 0.52731 0.43897 0.0
C2288 C 0.5723 0.50458 0.43637 0.0
C2289 C 0.53915 0.45029 0.43765 0.0
C2290 C 0.55605 0.4698 0.43995 0.0
C2291 C 0.60731 0.52591 0.44216 0.0
C2292 C 0.58931 0.50675 0.44222 0.0
H2293 H 0.52843 0.40614 0.42552 0.0
H2294 H 0.55616 0.43768 0.43073 0.0
H2295 H 0.54319 0.48504 0.43028 0.0
H2296 H 0.62246 0.57394 0.4448 0.0
H2297 H 0.59333 0.5424 0.44718 0.0
C2298 C 0.62454 0.11875 0.4323 0.0
C2299 C 0.63915 0.13117 0.42329 0.0
C2300 C 0.60747 0.11945 0.43347 0.0
C2301 C 0.57765 0.13465 0.41448 0.0
H2302 H 0.55308 0.13024 0.44924 0.0
C2303 C 0.51289 0.14657 0.41966 0.0
C2304 C 0.49736 0.13335 0.42771 0.0
C2305 C 0.53044 0.14679 0.41982 0.0
C2306 C 0.55969 0.13131 0.43945 0.0
H2307 H 0.64751 0.15438 0.40872 0.0
H2308 H 0.61788 0.15571 0.41086 0.0
H2309 H 0.58337 0.12975 0.44824 0.0
H2310 H 0.48822 0.11028 0.4425 0.0
H2311 H 0.5189 0.11055 0.44268 0.0
H2312 H 0.55403 0.13614 0.40566 0.0
C2313 C 0.61946 0.14521 0.41685 0.0
C2314 C 0.57702 0.13102 0.43888 0.0
C2315 C 0.63649 0.14452 0.41568 0.0
C2316 C 0.49992 0.12064 0.43617 0.0
C2317 C 0.51751 0.12086 0.43633 0.0
C2318 C 0.56037 0.13495 0.41505 0.0
C2319 C 0.60467 0.13256 0.42565 0.0
C2320 C 0.58623 0.13277 0.42638 0.0
C2321 C 0.53288 0.13378 0.42802 0.0
C2322 C 0.55123 0.13336 0.42754 0.0
H2323 H 0.62615 0.1083 0.43832 0.0
H2324 H 0.59628 0.10939 0.44025 0.0
H2325 H 0.58415 0.13563 0.40466 0.0
H2326 H 0.51146 0.15666 0.4131 0.0
H2327 H 0.54212 0.15716 0.41349 0.0
C2328 C 0.90584 0.41237 0.41232 0.0
C2329 C 0.9166 0.40786 0.42135 0.0
C2330 C 0.90695 0.43036 0.41286 0.0
C2331 C 0.92122 0.47292 0.43479 0.0
H2332 H 0.92497 0.49857 0.40059 0.0
C2333 C 0.93946 0.55272 0.43111 0.0
C2334 C 0.929 0.55688 0.42156 0.0
C2335 C 0.93775 0.53442 0.43152 0.0
C2336 C 0.92372 0.49151 0.41023 0.0
H2337 H 0.93664 0.41856 0.43825 0.0
H2338 H 0.93871 0.45006 0.4391 0.0
H2339 H 0.92211 0.46677 0.40063 0.0
H2340 H 0.90834 0.54501 0.40507 0.0
H2341 H 0.90527 0.51315 0.40584 0.0
H2342 H 0.92292 0.49778 0.44437 0.0
C2343 C 0.92928 0.43961 0.43168 0.0
C2344 C 0.92207 0.47328 0.41025 0.0
C2345 C 0.92817 0.42158 0.43114 0.0
C2346 C 0.91668 0.54233 0.41251 0.0
C2347 C 0.91499 0.52408 0.4129 0.0
C2348 C 0.9229 0.4912 0.43477 0.0
C2349 C 0.91885 0.44427 0.42244 0.0
C2350 C 0.92071 0.46372 0.42252 0.0
C2351 C 0.92558 0.51994 0.42235 0.0
C2352 C 0.92408 0.50065 0.42247 0.0
H2353 H 0.89669 0.40208 0.40471 0.0
H2354 H 0.89846 0.43337 0.40576 0.0
H2355 H 0.92001 0.46585 0.44441 0.0
H2356 H 0.94908 0.56362 0.43823 0.0
H2357 H 0.94623 0.53173 0.43883 0.0
C2358 C 0.753 0.17327 0.22117 0.0
C2359 C 0.75335 0.15665 0.22543 0.0
C2360 C 0.77 0.19121 0.22077 0.0
C2361 C 0.81724 0.2169 0.2372 0.0
H2362 H 0.82906 0.25551 0.20931 0.0
C2363 C 0.88299 0.29778 0.22221 0.0
C2364 C 0.88603 0.30683 0.23492 0.0
C2365 C 0.86715 0.27928 0.22013 0.0
C2366 C 0.82601 0.24481 0.21712 0.0
H2367 H 0.77197 0.14567 0.23198 0.0
H2368 H 0.80161 0.17697 0.23126 0.0
H2369 H 0.80107 0.22305 0.20665 0.0
H2370 H 0.8747 0.30367 0.25533 0.0
H2371 H 0.84715 0.27147 0.25168 0.0
H2372 H 0.84203 0.23859 0.24772 0.0
C2373 C 0.78814 0.17615 0.2284 0.0
C2374 C 0.80993 0.22631 0.21564 0.0
C2375 C 0.77117 0.15821 0.22874 0.0
C2376 C 0.87282 0.29709 0.24543 0.0
C2377 C 0.8571 0.27859 0.24338 0.0
C2378 C 0.83319 0.23539 0.23872 0.0
C2379 C 0.78769 0.1929 0.22467 0.0
C2380 C 0.80532 0.2122 0.22572 0.0
C2381 C 0.85415 0.26944 0.23074 0.0
C2382 C 0.83765 0.2496 0.22876 0.0
H2383 H 0.73951 0.17255 0.21851 0.0
H2384 H 0.76917 0.20387 0.21795 0.0
H2385 H 0.81394 0.20642 0.24522 0.0
H2386 H 0.8929 0.30492 0.21389 0.0
H2387 H 0.86529 0.27253 0.2103 0.0
C2388 C 0.8567 0.57455 0.24192 0.0
C2389 C 0.87261 0.58626 0.23361 0.0
C2390 C 0.83938 0.57463 0.24049 0.0
C2391 C 0.81968 0.60465 0.22828 0.0
H2392 H 0.77064 0.55685 0.23097 0.0
C2393 C 0.74638 0.60213 0.22279 0.0
C2394 C 0.73198 0.59041 0.23216 0.0
C2395 C 0.76339 0.6013 0.22178 0.0
C2396 C 0.78421 0.57034 0.2303 0.0
H2397 H 0.88274 0.60709 0.21714 0.0
H2398 H 0.8524 0.6072 0.21465 0.0
H2399 H 0.80063 0.55591 0.23127 0.0
H2400 H 0.72412 0.56859 0.24778 0.0
H2401 H 0.75381 0.56732 0.24613 0.0
H2402 H 0.80326 0.61912 0.22755 0.0
C2403 C 0.85342 0.59807 0.22234 0.0
C2404 C 0.80139 0.5698 0.23046 0.0
C2405 C 0.87076 0.59793 0.22373 0.0
C2406 C 0.73489 0.57778 0.24043 0.0
C2407 C 0.75187 0.57695 0.23942 0.0
C2408 C 0.80248 0.60521 0.22815 0.0
C2409 C 0.83757 0.58646 0.23074 0.0
C2410 C 0.81932 0.58696 0.22963 0.0
C2411 C 0.76634 0.58872 0.2301 0.0
C2412 C 0.78456 0.58807 0.22934 0.0
H2413 H 0.85764 0.56539 0.24963 0.0
H2414 H 0.82751 0.56571 0.24724 0.0
H2415 H 0.83327 0.61815 0.22777 0.0
H2416 H 0.74454 0.61198 0.21623 0.0
H2417 H 0.77417 0.61041 0.2144 0.0
C2418 C 0.46032 0.29368 0.2248 0.0
C2419 C 0.47139 0.30759 0.23464 0.0
C2420 C 0.46036 0.27625 0.2241 0.0
C2421 C 0.48737 0.25209 0.23474 0.0
H2422 H 0.43769 0.20531 0.23082 0.0
C2423 C 0.47602 0.17607 0.24544 0.0
C2424 C 0.46353 0.1609 0.23685 0.0
C2425 C 0.47781 0.19432 0.24426 0.0
C2426 C 0.45171 0.21824 0.23172 0.0
H2427 H 0.49158 0.3143 0.25123 0.0
H2428 H 0.49151 0.28378 0.25007 0.0
H2429 H 0.43952 0.23665 0.23029 0.0
H2430 H 0.44341 0.15308 0.22009 0.0
H2431 H 0.44666 0.18499 0.21797 0.0
H2432 H 0.49952 0.23362 0.23631 0.0
C2433 C 0.48293 0.28644 0.24283 0.0
C2434 C 0.45276 0.23621 0.23142 0.0
C2435 C 0.48289 0.30389 0.24353 0.0
C2436 C 0.45308 0.16444 0.22692 0.0
C2437 C 0.45487 0.1827 0.22574 0.0
C2438 C 0.48632 0.2341 0.23503 0.0
C2439 C 0.47148 0.27234 0.23321 0.0
C2440 C 0.47058 0.25333 0.23301 0.0
C2441 C 0.46716 0.1978 0.23446 0.0
C2442 C 0.46846 0.21697 0.23361 0.0
H2443 H 0.4514 0.29613 0.21773 0.0
H2444 H 0.45162 0.2658 0.21644 0.0
H2445 H 0.50135 0.26504 0.23581 0.0
H2446 H 0.48428 0.17382 0.25321 0.0
H2447 H 0.48722 0.20558 0.25125 0.0
C2448 C 0.29162 0.86797 0.76393 0.0
C2449 C 0.30715 0.87059 0.75575 0.0
C2450 C 0.27508 0.84979 0.76509 0.0
C2451 C 0.24806 0.80343 0.74717 0.0
H2452 H 0.22165 0.78506 0.78162 0.0
C2453 C 0.18169 0.72741 0.75291 0.0
C2454 C 0.16601 0.72613 0.76022 0.0
C2455 C 0.19962 0.74439 0.75311 0.0
C2456 C 0.22879 0.79006 0.77191 0.0
H2457 H 0.31762 0.85609 0.74256 0.0
H2458 H 0.28877 0.82432 0.74466 0.0
H2459 H 0.25177 0.81599 0.78054 0.0
H2460 H 0.15698 0.74152 0.77376 0.0
H2461 H 0.18823 0.77124 0.774 0.0
H2462 H 0.22502 0.77767 0.7385 0.0
C2463 C 0.28931 0.83639 0.75004 0.0
C2464 C 0.24603 0.80777 0.77129 0.0
C2465 C 0.30587 0.85458 0.74889 0.0
C2466 C 0.16877 0.74204 0.76802 0.0
C2467 C 0.18671 0.75903 0.76821 0.0
C2468 C 0.23084 0.78575 0.74779 0.0
C2469 C 0.27369 0.83382 0.75809 0.0
C2470 C 0.25579 0.81469 0.7589 0.0
C2471 C 0.20226 0.76047 0.76063 0.0
C2472 C 0.22095 0.77891 0.76015 0.0
H2473 H 0.29214 0.88001 0.76935 0.0
H2474 H 0.2632 0.84833 0.77124 0.0
H2475 H 0.25506 0.8085 0.73743 0.0
H2476 H 0.18009 0.71537 0.74687 0.0
H2477 H 0.2114 0.74494 0.74733 0.0
C2478 C 0.30787 0.48192 0.75559 0.0
C2479 C 0.30931 0.46632 0.76076 0.0
C2480 C 0.29068 0.48231 0.75683 0.0
C2481 C 0.24358 0.45962 0.775 0.0
H2482 H 0.22795 0.47829 0.74392 0.0
C2483 C 0.16632 0.44736 0.76717 0.0
C2484 C 0.16499 0.46324 0.76238 0.0
C2485 C 0.18426 0.4484 0.76808 0.0
C2486 C 0.23222 0.47323 0.75274 0.0
H2487 H 0.29398 0.43903 0.77153 0.0
H2488 H 0.2638 0.43943 0.77337 0.0
H2489 H 0.25861 0.47882 0.74341 0.0
H2490 H 0.1815 0.49281 0.75512 0.0
H2491 H 0.21273 0.49452 0.75662 0.0
H2492 H 0.21677 0.45357 0.78411 0.0
C2493 C 0.27605 0.45157 0.76858 0.0
C2494 C 0.24984 0.47358 0.75248 0.0
C2495 C 0.29333 0.45128 0.76746 0.0
C2496 C 0.182 0.4803 0.75881 0.0
C2497 C 0.19989 0.48127 0.75961 0.0
C2498 C 0.22584 0.45911 0.7752 0.0
C2499 C 0.27445 0.46699 0.76314 0.0
C2500 C 0.25578 0.46683 0.76361 0.0
C2501 C 0.20118 0.46527 0.7641 0.0
C2502 C 0.22003 0.46595 0.76408 0.0
H2503 H 0.32 0.49383 0.7505 0.0
H2504 H 0.29012 0.49462 0.75278 0.0
H2505 H 0.24781 0.45454 0.78382 0.0
H2506 H 0.15348 0.43403 0.77004 0.0
H2507 H 0.18484 0.43581 0.7715 0.0
C2508 C 0.59572 0.75553 0.76326 0.0
C2509 C 0.58851 0.74389 0.75163 0.0
C2510 C 0.59645 0.77338 0.76392 0.0
C2511 C 0.59865 0.81145 0.74189 0.0
H2512 H 0.58197 0.82766 0.77371 0.0
C2513 C 0.58917 0.87799 0.74076 0.0
C2514 C 0.59498 0.89017 0.75214 0.0
C2515 C 0.58858 0.86026 0.74123 0.0
C2516 C 0.58693 0.82346 0.76482 0.0
H2517 H 0.57607 0.74166 0.7317 0.0
H2518 H 0.57738 0.77274 0.73286 0.0
H2519 H 0.58046 0.79633 0.77365 0.0
H2520 H 0.60467 0.89325 0.773 0.0
H2521 H 0.60397 0.86233 0.77375 0.0
H2522 H 0.60529 0.83851 0.73306 0.0
C2523 C 0.58262 0.76816 0.74141 0.0
C2524 C 0.58603 0.80551 0.76479 0.0
C2525 C 0.58178 0.7503 0.74079 0.0
C2526 C 0.60009 0.88416 0.76406 0.0
C2527 C 0.59959 0.86641 0.76451 0.0
C2528 C 0.59966 0.8294 0.74195 0.0
C2529 C 0.59013 0.77997 0.75292 0.0
C2530 C 0.59167 0.79925 0.75326 0.0
C2531 C 0.59392 0.85429 0.75307 0.0
C2532 C 0.5936 0.83554 0.75334 0.0
H2533 H 0.60099 0.75097 0.7718 0.0
H2534 H 0.60239 0.78223 0.77289 0.0
H2535 H 0.60346 0.80717 0.73296 0.0
H2536 H 0.58497 0.88209 0.73144 0.0
H2537 H 0.58376 0.85113 0.73231 0.0
C2538 C 0.5205 0.6436 0.57389 0.0
C2539 C 0.53611 0.64566 0.56608 0.0
C2540 C 0.50262 0.62659 0.5733 0.0
C2541 C 0.47346 0.5823 0.55296 0.0
H2542 H 0.44775 0.56117 0.58727 0.0
C2543 C 0.41177 0.50332 0.55938 0.0
C2544 C 0.39636 0.49986 0.56799 0.0
C2545 C 0.42796 0.52179 0.55838 0.0
C2546 C 0.45458 0.567 0.57758 0.0
H2547 H 0.54507 0.63167 0.55124 0.0
H2548 H 0.51393 0.60187 0.55036 0.0
H2549 H 0.47754 0.59225 0.58682 0.0
H2550 H 0.38565 0.51321 0.58205 0.0
H2551 H 0.41388 0.54546 0.58024 0.0
H2552 H 0.45058 0.55681 0.54377 0.0
C2553 C 0.51544 0.61349 0.55683 0.0
C2554 C 0.47167 0.58483 0.57732 0.0
C2555 C 0.53332 0.63054 0.55739 0.0
C2556 C 0.39732 0.51536 0.57537 0.0
C2557 C 0.41353 0.53382 0.57439 0.0
C2558 C 0.45636 0.56442 0.55323 0.0
C2559 C 0.49996 0.61123 0.56491 0.0
C2560 C 0.48136 0.59264 0.56502 0.0
C2561 C 0.42911 0.5372 0.56599 0.0
C2562 C 0.4468 0.55654 0.56555 0.0
H2563 H 0.52212 0.65504 0.58061 0.0
H2564 H 0.49089 0.62543 0.57949 0.0
H2565 H 0.48044 0.58804 0.5433 0.0
H2566 H 0.41147 0.49169 0.55354 0.0
H2567 H 0.43982 0.52388 0.55192 0.0
C2568 C 0.40612 0.90485 0.56994 0.0
C2569 C 0.40306 0.91855 0.56314 0.0
C2570 C 0.4234 0.90475 0.56828 0.0
C2571 C 0.47425 0.9367 0.55897 0.0
H2572 H 0.47539 0.88875 0.55796 0.0
C2573 C 0.54566 0.93537 0.55483 0.0
C2574 C 0.54749 0.92268 0.56378 0.0
C2575 C 0.52782 0.93434 0.55308 0.0
C2576 C 0.4753 0.90226 0.55829 0.0
H2577 H 0.41554 0.94254 0.54896 0.0
H2578 H 0.44568 0.94225 0.54598 0.0
H2579 H 0.44442 0.8878 0.55776 0.0
H2580 H 0.53196 0.89873 0.57771 0.0
H2581 H 0.50095 0.89704 0.57473 0.0
H2582 H 0.50511 0.95114 0.55974 0.0
C2583 C 0.4348 0.93176 0.55274 0.0
C2584 C 0.45757 0.90172 0.55818 0.0
C2585 C 0.41749 0.93186 0.5544 0.0
C2586 C 0.53105 0.90873 0.57074 0.0
C2587 C 0.51323 0.90766 0.56896 0.0
C2588 C 0.49198 0.93724 0.55907 0.0
C2589 C 0.43802 0.91832 0.55977 0.0
C2590 C 0.45684 0.91892 0.55874 0.0
C2591 C 0.51144 0.92055 0.5602 0.0
C2592 C 0.49269 0.92001 0.55895 0.0
H2593 H 0.39531 0.8944 0.57675 0.0
H2594 H 0.42552 0.89437 0.57398 0.0
H2595 H 0.47418 0.9502 0.55959 0.0
H2596 H 0.55804 0.94625 0.54928 0.0
H2597 H 0.52684 0.94435 0.54616 0.0
C2598 C 0.12148 0.62669 0.55383 0.0
C2599 C 0.13698 0.64172 0.56091 0.0
C2600 C 0.1214 0.60951 0.551 0.0
C2601 C 0.15285 0.58795 0.54883 0.0
H2602 H 0.10584 0.54009 0.55717 0.0
C2603 C 0.15127 0.51586 0.55732 0.0
C2604 C 0.13495 0.49862 0.5531 0.0
C2605 C 0.15171 0.5335 0.55622 0.0
C2606 C 0.11898 0.55327 0.55454 0.0
H2607 H 0.16477 0.65071 0.57024 0.0
H2608 H 0.16457 0.62071 0.56536 0.0
H2609 H 0.10627 0.57069 0.55896 0.0
H2610 H 0.10659 0.48648 0.5439 0.0
H2611 H 0.10747 0.51734 0.54182 0.0
H2612 H 0.16564 0.57054 0.5446 0.0
C2613 C 0.15255 0.62226 0.56191 0.0
C2614 C 0.11922 0.57083 0.55559 0.0
C2615 C 0.1526 0.6394 0.56479 0.0
C2616 C 0.11933 0.49949 0.54733 0.0
C2617 C 0.11979 0.51716 0.5462 0.0
C2618 C 0.15259 0.57038 0.54774 0.0
C2619 C 0.13685 0.60705 0.55513 0.0
C2620 C 0.13624 0.58837 0.55294 0.0
C2621 C 0.13586 0.53432 0.55083 0.0
C2622 C 0.13573 0.55286 0.55079 0.0
H2623 H 0.10926 0.62805 0.55064 0.0
H2624 H 0.1092 0.59813 0.54562 0.0
H2625 H 0.16609 0.60122 0.54652 0.0
H2626 H 0.16355 0.51571 0.56182 0.0
H2627 H 0.16421 0.54639 0.56004 0.0
loop_
_geom_bond_atom_site_label_1
_geom_bond_atom_site_label_2
_geom_bond_distance
_geom_bond_site_symmetry_2
_ccdc_geom_bond_type
C0 O1 1.160 . S
C0 O7 1.185 . S
O1 C0 1.160 . S
O2 Zn3 1.899 . S
O2 C10 1.284 . S
Zn3 O2 1.899 . S
Zn3 O4 2.032 . S
Zn3 O7 2.086 . S
Zn3 O12 1.977 . S
O4 Zn3 2.032 . S
O4 C8 1.277 1_455 S
C5 O6 1.203 . S
C5 O12 1.267 . S
O6 C5 1.203 . S
O7 C0 1.185 . S
O7 Zn3 2.086 . S
C8 O4 1.277 1_655 S
C8 O9 1.205 1_655 S
O9 C8 1.205 1_455 S
C10 O2 1.284 . S
C10 O11 1.273 . S
O11 C10 1.273 . S
O12 Zn3 1.977 . S
O12 C5 1.267 . S
C13 O14 1.160 . S
C13 O20 1.185 . S
O14 C13 1.160 . S
O15 Zn16 1.899 . S
O15 C23 1.284 . S
Zn16 O15 1.899 . S
Zn16 O17 2.032 . S
Zn16 O20 2.086 . S
Zn16 O25 1.977 . S
O17 Zn16 2.032 . S
O17 C21 1.278 . S
C18 O19 1.203 . S
C18 O25 1.267 . S
O19 C18 1.203 . S
O20 C13 1.185 . S
O20 Zn16 2.086 . S
C21 O17 1.278 . S
C21 O22 1.211 . S
O22 C21 1.211 . S
C23 O15 1.284 . S
C23 O24 1.273 . S
O24 C23 1.273 . S
O25 Zn16 1.977 . S
O25 C18 1.267 . S
C26 O27 1.160 . S
C26 O33 1.185 . S
O27 C26 1.160 . S
O28 Zn29 1.899 1_565 S
O28 C36 1.284 . S
Zn29 O28 1.899 1_545 S
Zn29 O30 2.032 . S
Zn29 O33 2.086 . S
Zn29 O38 1.977 . S
O30 Zn29 2.032 . S
O30 C34 1.278 . S
C31 O32 1.203 . S
C31 O38 1.267 . S
O32 C31 1.203 . S
O33 C26 1.185 . S
O33 Zn29 2.086 . S
C34 O30 1.278 . S
C34 O35 1.211 . S
O35 C34 1.211 . S
C36 O28 1.284 . S
C36 O37 1.273 1_565 S
O37 C36 1.273 1_545 S
O38 Zn29 1.977 . S
O38 C31 1.267 . S
C39 O40 1.160 . S
C39 O46 1.185 . S
O40 C39 1.160 . S
O41 Zn42 1.899 . S
O41 C49 1.284 . S
Zn42 O41 1.899 . S
Zn42 O43 2.032 . S
Zn42 O46 2.086 . S
Zn42 O51 1.977 . S
O43 Zn42 2.032 . S
O43 C47 1.277 1_545 S
C44 O45 1.203 . S
C44 O51 1.267 . S
O45 C44 1.203 . S
O46 C39 1.185 . S
O46 Zn42 2.086 . S
C47 O43 1.277 1_565 S
C47 O48 1.205 1_565 S
O48 C47 1.205 1_545 S
C49 O41 1.284 . S
C49 O50 1.273 . S
O50 C49 1.273 . S
O51 Zn42 1.977 . S
O51 C44 1.267 . S
C52 O53 1.160 . S
C52 O59 1.185 . S
O53 C52 1.160 . S
O54 Zn55 1.899 1_655 S
O54 C62 1.284 . S
Zn55 O54 1.899 1_455 S
Zn55 O56 2.032 . S
Zn55 O59 2.086 . S
Zn55 O64 1.977 . S
O56 Zn55 2.032 . S
O56 C60 1.278 . S
C57 O58 1.203 . S
C57 O64 1.267 . S
O58 C57 1.203 . S
O59 C52 1.185 . S
O59 Zn55 2.086 . S
C60 O56 1.278 . S
C60 O61 1.211 . S
O61 C60 1.211 . S
C62 O54 1.284 . S
C62 O63 1.273 1_655 S
O63 C62 1.273 1_455 S
O64 Zn55 1.977 . S
O64 C57 1.267 . S
C65 O66 1.160 . S
C65 O72 1.185 . S
O66 C65 1.160 . S
O67 Zn68 1.899 . S
O67 C75 1.284 . S
Zn68 O67 1.899 . S
Zn68 O69 2.032 . S
Zn68 O72 2.086 . S
Zn68 O77 1.977 . S
O69 Zn68 2.032 . S
O69 C73 1.278 . S
C70 O71 1.203 . S
C70 O77 1.267 . S
O71 C70 1.203 . S
O72 C65 1.185 . S
O72 Zn68 2.086 . S
C73 O69 1.278 . S
C73 O74 1.211 . S
O74 C73 1.211 . S
C75 O67 1.284 . S
C75 O76 1.273 . S
O76 C75 1.273 . S
O77 Zn68 1.977 . S
O77 C70 1.267 . S
C78 O79 1.160 . S
C78 O85 1.185 . S
O79 C78 1.160 . S
O80 Zn81 1.899 1_655 S
O80 C88 1.284 . S
Zn81 O80 1.899 1_455 S
Zn81 O82 2.032 . S
Zn81 O85 2.086 . S
Zn81 O90 1.977 . S
O82 Zn81 2.032 . S
O82 C86 1.278 . S
C83 O84 1.203 . S
C83 O90 1.267 . S
O84 C83 1.203 . S
O85 C78 1.185 . S
O85 Zn81 2.086 . S
C86 O82 1.278 . S
C86 O87 1.211 . S
O87 C86 1.211 . S
C88 O80 1.284 . S
C88 O89 1.273 1_655 S
O89 C88 1.273 1_455 S
O90 Zn81 1.977 . S
O90 C83 1.267 . S
C91 O92 1.160 . S
C91 O98 1.185 . S
O92 C91 1.160 . S
O93 Zn94 1.899 . S
O93 C101 1.284 . S
Zn94 O93 1.899 . S
Zn94 O95 2.032 . S
Zn94 O98 2.086 . S
Zn94 O103 1.977 . S
O95 Zn94 2.032 . S
O95 C99 1.278 . S
C96 O97 1.203 . S
C96 O103 1.267 . S
O97 C96 1.203 . S
O98 C91 1.185 . S
O98 Zn94 2.086 . S
C99 O95 1.278 . S
C99 O100 1.211 . S
O100 C99 1.211 . S
C101 O93 1.284 . S
C101 O102 1.273 . S
O102 C101 1.273 . S
O103 Zn94 1.977 . S
O103 C96 1.267 . S
C104 O105 1.160 . S
C104 O111 1.185 . S
O105 C104 1.160 . S
O106 Zn107 1.899 . S
O106 C114 1.284 . S
Zn107 O106 1.899 . S
Zn107 O108 2.032 . S
Zn107 O111 2.086 . S
Zn107 O116 1.977 . S
O108 Zn107 2.032 . S
O108 C112 1.266 1_545 S
C109 O110 1.203 . S
C109 O116 1.267 . S
O110 C109 1.203 . S
O111 C104 1.185 . S
O111 Zn107 2.086 . S
C112 O108 1.266 1_565 S
C112 O113 1.210 1_565 S
O113 C112 1.210 1_545 S
C114 O106 1.284 . S
C114 O115 1.273 . S
O115 C114 1.273 . S
O116 Zn107 1.977 . S
O116 C109 1.267 . S
C117 O118 1.160 . S
C117 O124 1.185 . S
O118 C117 1.160 . S
O119 Zn120 1.899 1_565 S
O119 C127 1.284 . S
Zn120 O119 1.899 1_545 S
Zn120 O121 2.032 . S
Zn120 O124 2.086 . S
Zn120 O129 1.977 . S
O121 Zn120 2.032 . S
O121 C125 1.278 . S
C122 O123 1.203 . S
C122 O129 1.267 . S
O123 C122 1.203 . S
O124 C117 1.185 . S
O124 Zn120 2.086 . S
C125 O121 1.278 . S
C125 O126 1.211 . S
O126 C125 1.211 . S
C127 O119 1.284 . S
C127 O128 1.273 1_565 S
O128 C127 1.273 1_545 S
O129 Zn120 1.977 . S
O129 C122 1.267 . S
C130 O131 1.160 . S
C130 O137 1.185 . S
O131 C130 1.160 . S
O132 Zn133 1.899 . S
O132 C140 1.284 . S
Zn133 O132 1.899 . S
Zn133 O134 2.032 . S
Zn133 O137 2.086 . S
Zn133 O142 1.977 . S
O134 Zn133 2.032 . S
O134 C138 1.266 1_455 S
C135 O136 1.203 . S
C135 O142 1.267 . S
O136 C135 1.203 . S
O137 C130 1.185 . S
O137 Zn133 2.086 . S
C138 O134 1.266 1_655 S
C138 O139 1.210 1_655 S
O139 C138 1.210 1_455 S
C140 O132 1.284 . S
C140 O141 1.273 . S
O141 C140 1.273 . S
O142 Zn133 1.977 . S
O142 C135 1.267 . S
C143 O144 1.160 . S
C143 O150 1.185 . S
O144 C143 1.160 . S
O145 Zn146 1.899 . S
O145 C153 1.284 . S
Zn146 O145 1.899 . S
Zn146 O147 2.032 . S
Zn146 O150 2.086 . S
Zn146 O155 1.977 . S
O147 Zn146 2.032 . S
O147 C151 1.278 . S
C148 O149 1.203 . S
C148 O155 1.267 . S
O149 C148 1.203 . S
O150 C143 1.185 . S
O150 Zn146 2.086 . S
C151 O147 1.278 . S
C151 O152 1.211 . S
O152 C151 1.211 . S
C153 O145 1.284 . S
C153 O154 1.273 . S
O154 C153 1.273 . S
O155 Zn146 1.977 . S
O155 C148 1.267 . S
C156 O157 1.160 . S
C156 O163 1.185 . S
O157 C156 1.160 . S
O158 Zn159 1.899 . S
O158 C166 1.284 . S
Zn159 O158 1.899 . S
Zn159 O160 2.032 . S
Zn159 O163 2.086 . S
Zn159 O168 1.977 . S
O160 Zn159 2.032 . S
O160 C164 1.278 . S
C161 O162 1.203 . S
C161 O168 1.267 . S
O162 C161 1.203 . S
O163 C156 1.185 . S
O163 Zn159 2.086 . S
C164 O160 1.278 . S
C164 O165 1.211 . S
O165 C164 1.211 . S
C166 O158 1.284 . S
C166 O167 1.273 . S
O167 C166 1.273 . S
O168 Zn159 1.977 . S
O168 C161 1.267 . S
C169 O170 1.160 . S
C169 O176 1.185 . S
O170 C169 1.160 . S
O171 Zn172 1.899 . S
O171 C179 1.284 . S
Zn172 O171 1.899 . S
Zn172 O173 2.032 . S
Zn172 O176 2.086 . S
Zn172 O181 1.977 . S
O173 Zn172 2.032 . S
O173 C177 1.278 . S
C174 O175 1.203 . S
C174 O181 1.267 . S
O175 C174 1.203 . S
O176 C169 1.185 . S
O176 Zn172 2.086 . S
C177 O173 1.278 . S
C177 O178 1.211 . S
O178 C177 1.211 . S
C179 O171 1.284 . S
C179 O180 1.273 . S
O180 C179 1.273 . S
O181 Zn172 1.977 . S
O181 C174 1.267 . S
C182 O183 1.160 . S
C182 O189 1.185 . S
O183 C182 1.160 . S
O184 Zn185 1.899 . S
O184 C192 1.284 . S
Zn185 O184 1.899 . S
Zn185 O186 2.032 . S
Zn185 O189 2.086 . S
Zn185 O194 1.977 . S
O186 Zn185 2.032 . S
O186 C190 1.278 . S
C187 O188 1.203 . S
C187 O194 1.267 . S
O188 C187 1.203 . S
O189 C182 1.185 . S
O189 Zn185 2.086 . S
C190 O186 1.278 . S
C190 O191 1.211 . S
O191 C190 1.211 . S
C192 O184 1.284 . S
C192 O193 1.273 . S
O193 C192 1.273 . S
O194 Zn185 1.977 . S
O194 C187 1.267 . S
C195 O196 1.160 . S
C195 O202 1.185 . S
O196 C195 1.160 . S
O197 Zn198 1.899 . S
O197 C205 1.284 . S
Zn198 O197 1.899 . S
Zn198 O199 2.032 . S
Zn198 O202 2.086 . S
Zn198 O207 1.977 . S
O199 Zn198 2.032 . S
O199 C203 1.278 . S
C200 O201 1.203 . S
C200 O207 1.267 . S
O201 C200 1.203 . S
O202 C195 1.185 . S
O202 Zn198 2.086 . S
C203 O199 1.278 . S
C203 O204 1.211 . S
O204 C203 1.211 . S
C205 O197 1.284 . S
C205 O206 1.273 . S
O206 C205 1.273 . S
O207 Zn198 1.977 . S
O207 C200 1.267 . S
C208 O209 1.160 . S
C208 O215 1.185 . S
O209 C208 1.160 . S
O210 Zn211 1.899 . S
O210 C218 1.284 . S
Zn211 O210 1.899 . S
Zn211 O212 2.032 . S
Zn211 O215 2.086 . S
Zn211 O220 1.977 . S
O212 Zn211 2.032 . S
O212 C216 1.278 . S
C213 O214 1.203 . S
C213 O220 1.267 . S
O214 C213 1.203 . S
O215 C208 1.185 . S
O215 Zn211 2.086 . S
C216 O212 1.278 . S
C216 O217 1.211 . S
O217 C216 1.211 . S
C218 O210 1.284 . S
C218 O219 1.273 . S
O219 C218 1.273 . S
O220 Zn211 1.977 . S
O220 C213 1.267 . S
C221 O222 1.160 . S
C221 O228 1.185 . S
O222 C221 1.160 . S
O223 Zn224 1.899 . S
O223 C231 1.284 . S
Zn224 O223 1.899 . S
Zn224 O225 2.032 . S
Zn224 O228 2.086 . S
Zn224 O233 1.977 . S
O225 Zn224 2.032 . S
O225 C229 1.278 . S
C226 O227 1.203 . S
C226 O233 1.267 . S
O227 C226 1.203 . S
O228 C221 1.185 . S
O228 Zn224 2.086 . S
C229 O225 1.278 . S
C229 O230 1.211 . S
O230 C229 1.211 . S
C231 O223 1.284 . S
C231 O232 1.273 . S
O232 C231 1.273 . S
O233 Zn224 1.977 . S
O233 C226 1.267 . S
C234 O235 1.160 . S
C234 O241 1.185 . S
O235 C234 1.160 . S
O236 Zn237 1.899 . S
O236 C244 1.284 . S
Zn237 O236 1.899 . S
Zn237 O238 2.032 . S
Zn237 O241 2.086 . S
Zn237 O246 1.977 . S
O238 Zn237 2.032 . S
O238 C242 1.278 . S
C239 O240 1.203 . S
C239 O246 1.267 . S
O240 C239 1.203 . S
O241 C234 1.185 . S
O241 Zn237 2.086 . S
C242 O238 1.278 . S
C242 O243 1.211 . S
O243 C242 1.211 . S
C244 O236 1.284 . S
C244 O245 1.273 . S
O245 C244 1.273 . S
O246 Zn237 1.977 . S
O246 C239 1.267 . S
C247 O248 1.160 . S
C247 O254 1.185 . S
O248 C247 1.160 . S
O249 Zn250 1.899 . S
O249 C257 1.284 . S
Zn250 O249 1.899 . S
Zn250 O251 2.032 . S
Zn250 O254 2.086 . S
Zn250 O259 1.977 . S
O251 Zn250 2.032 . S
O251 C255 1.278 . S
C252 O253 1.203 . S
C252 O259 1.267 . S
O253 C252 1.203 . S
O254 C247 1.185 . S
O254 Zn250 2.086 . S
C255 O251 1.278 . S
C255 O256 1.211 . S
O256 C255 1.211 . S
C257 O249 1.284 . S
C257 O258 1.273 . S
O258 C257 1.273 . S
O259 Zn250 1.977 . S
O259 C252 1.267 . S
C260 O261 1.160 . S
C260 O267 1.185 . S
O261 C260 1.160 . S
O262 Zn263 1.899 . S
O262 C270 1.284 . S
Zn263 O262 1.899 . S
Zn263 O264 2.032 . S
Zn263 O267 2.086 . S
Zn263 O272 1.977 . S
O264 Zn263 2.032 . S
O264 C268 1.278 . S
C265 O266 1.203 . S
C265 O272 1.267 . S
O266 C265 1.203 . S
O267 C260 1.185 . S
O267 Zn263 2.086 . S
C268 O264 1.278 . S
C268 O269 1.211 . S
O269 C268 1.211 . S
C270 O262 1.284 . S
C270 O271 1.273 . S
O271 C270 1.273 . S
O272 Zn263 1.977 . S
O272 C265 1.267 . S
C273 O274 1.160 . S
C273 O280 1.185 . S
O274 C273 1.160 . S
O275 Zn276 1.899 . S
O275 C283 1.284 . S
Zn276 O275 1.899 . S
Zn276 O277 2.032 . S
Zn276 O280 2.086 . S
Zn276 O285 1.977 . S
O277 Zn276 2.032 . S
O277 C281 1.278 . S
C278 O279 1.203 . S
C278 O285 1.267 . S
O279 C278 1.203 . S
O280 C273 1.185 . S
O280 Zn276 2.086 . S
C281 O277 1.278 . S
C281 O282 1.211 . S
O282 C281 1.211 . S
C283 O275 1.284 . S
C283 O284 1.273 . S
O284 C283 1.273 . S
O285 Zn276 1.977 . S
O285 C278 1.267 . S
C286 O287 1.160 . S
C286 O293 1.185 . S
O287 C286 1.160 . S
O288 Zn289 1.899 . S
O288 C296 1.284 . S
Zn289 O288 1.899 . S
Zn289 O290 2.032 . S
Zn289 O293 2.086 . S
Zn289 O298 1.977 . S
O290 Zn289 2.032 . S
O290 C294 1.278 . S
C291 O292 1.203 . S
C291 O298 1.267 . S
O292 C291 1.203 . S
O293 C286 1.185 . S
O293 Zn289 2.086 . S
C294 O290 1.278 . S
C294 O295 1.211 . S
O295 C294 1.211 . S
C296 O288 1.284 . S
C296 O297 1.273 . S
O297 C296 1.273 . S
O298 Zn289 1.977 . S
O298 C291 1.267 . S
C299 O300 1.160 . S
C299 O306 1.185 . S
O300 C299 1.160 . S
O301 Zn302 1.899 . S
O301 C309 1.284 . S
Zn302 O301 1.899 . S
Zn302 O303 2.032 . S
Zn302 O306 2.086 . S
Zn302 O311 1.977 . S
O303 Zn302 2.032 . S
O303 C307 1.278 . S
C304 O305 1.203 . S
C304 O311 1.267 . S
O305 C304 1.203 . S
O306 C299 1.185 . S
O306 Zn302 2.086 . S
C307 O303 1.278 . S
C307 O308 1.211 . S
O308 C307 1.211 . S
C309 O301 1.284 . S
C309 O310 1.273 . S
O310 C309 1.273 . S
O311 Zn302 1.977 . S
O311 C304 1.267 . S
C312 O313 1.160 . S
C312 O319 1.185 . S
O313 C312 1.160 . S
O314 Zn315 1.899 . S
O314 C322 1.284 . S
Zn315 O314 1.899 . S
Zn315 O316 2.032 . S
Zn315 O319 2.086 . S
Zn315 O324 1.977 . S
O316 Zn315 2.032 . S
O316 C320 1.278 . S
C317 O318 1.203 . S
C317 O324 1.267 . S
O318 C317 1.203 . S
O319 C312 1.185 . S
O319 Zn315 2.086 . S
C320 O316 1.278 . S
C320 O321 1.211 . S
O321 C320 1.211 . S
C322 O314 1.284 . S
C322 O323 1.273 . S
O323 C322 1.273 . S
O324 Zn315 1.977 . S
O324 C317 1.267 . S
C325 O326 1.160 . S
C325 O332 1.185 . S
O326 C325 1.160 . S
O327 Zn328 1.899 . S
O327 C335 1.284 . S
Zn328 O327 1.899 . S
Zn328 O329 2.032 . S
Zn328 O332 2.086 . S
Zn328 O337 1.977 . S
O329 Zn328 2.032 . S
O329 C333 1.278 . S
C330 O331 1.203 . S
C330 O337 1.267 . S
O331 C330 1.203 . S
O332 C325 1.185 . S
O332 Zn328 2.086 . S
C333 O329 1.278 . S
C333 O334 1.211 . S
O334 C333 1.211 . S
C335 O327 1.284 . S
C335 O336 1.273 . S
O336 C335 1.273 . S
O337 Zn328 1.977 . S
O337 C330 1.267 . S
C338 O339 1.160 . S
C338 O345 1.185 . S
O339 C338 1.160 . S
O340 Zn341 1.899 . S
O340 C348 1.284 . S
Zn341 O340 1.899 . S
Zn341 O342 2.032 . S
Zn341 O345 2.086 . S
Zn341 O350 1.977 . S
O342 Zn341 2.032 . S
O342 C346 1.278 . S
C343 O344 1.203 . S
C343 O350 1.267 . S
O344 C343 1.203 . S
O345 C338 1.185 . S
O345 Zn341 2.086 . S
C346 O342 1.278 . S
C346 O347 1.211 . S
O347 C346 1.211 . S
C348 O340 1.284 . S
C348 O349 1.273 . S
O349 C348 1.273 . S
O350 Zn341 1.977 . S
O350 C343 1.267 . S
C351 O352 1.160 . S
C351 O358 1.185 . S
O352 C351 1.160 . S
O353 Zn354 1.899 . S
O353 C361 1.284 . S
Zn354 O353 1.899 . S
Zn354 O355 2.032 . S
Zn354 O358 2.086 . S
Zn354 O363 1.977 . S
O355 Zn354 2.032 . S
O355 C359 1.278 . S
C356 O357 1.203 . S
C356 O363 1.267 . S
O357 C356 1.203 . S
O358 C351 1.185 . S
O358 Zn354 2.086 . S
C359 O355 1.278 . S
C359 O360 1.211 . S
O360 C359 1.211 . S
C361 O353 1.284 . S
C361 O362 1.273 . S
O362 C361 1.273 . S
O363 Zn354 1.977 . S
O363 C356 1.267 . S
C364 O365 1.160 . S
C364 O371 1.185 . S
O365 C364 1.160 . S
O366 Zn367 1.899 . S
O366 C374 1.284 . S
Zn367 O366 1.899 . S
Zn367 O368 2.032 . S
Zn367 O371 2.086 . S
Zn367 O376 1.977 . S
O368 Zn367 2.032 . S
O368 C372 1.278 . S
C369 O370 1.203 . S
C369 O376 1.267 . S
O370 C369 1.203 . S
O371 C364 1.185 . S
O371 Zn367 2.086 . S
C372 O368 1.278 . S
C372 O373 1.211 . S
O373 C372 1.211 . S
C374 O366 1.284 . S
C374 O375 1.273 . S
O375 C374 1.273 . S
O376 Zn367 1.977 . S
O376 C369 1.267 . S
C377 O378 1.160 . S
C377 O384 1.185 . S
O378 C377 1.160 . S
O379 Zn380 1.899 . S
O379 C387 1.284 . S
Zn380 O379 1.899 . S
Zn380 O381 2.032 . S
Zn380 O384 2.086 . S
Zn380 O389 1.977 . S
O381 Zn380 2.032 . S
O381 C385 1.278 . S
C382 O383 1.203 . S
C382 O389 1.267 . S
O383 C382 1.203 . S
O384 C377 1.185 . S
O384 Zn380 2.086 . S
C385 O381 1.278 . S
C385 O386 1.211 . S
O386 C385 1.211 . S
C387 O379 1.284 . S
C387 O388 1.273 . S
O388 C387 1.273 . S
O389 Zn380 1.977 . S
O389 C382 1.267 . S
C390 O391 1.160 . S
C390 O397 1.185 . S
O391 C390 1.160 . S
O392 Zn393 1.899 . S
O392 C400 1.284 . S
Zn393 O392 1.899 . S
Zn393 O394 2.032 . S
Zn393 O397 2.086 . S
Zn393 O402 1.977 . S
O394 Zn393 2.032 . S
O394 C398 1.278 . S
C395 O396 1.203 . S
C395 O402 1.267 . S
O396 C395 1.203 . S
O397 C390 1.185 . S
O397 Zn393 2.086 . S
C398 O394 1.278 . S
C398 O399 1.211 . S
O399 C398 1.211 . S
C400 O392 1.284 . S
C400 O401 1.273 . S
O401 C400 1.273 . S
O402 Zn393 1.977 . S
O402 C395 1.267 . S
C403 O404 1.160 . S
C403 O410 1.185 . S
O404 C403 1.160 . S
O405 Zn406 1.899 . S
O405 C413 1.284 . S
Zn406 O405 1.899 . S
Zn406 O407 2.032 . S
Zn406 O410 2.086 . S
Zn406 O415 1.977 . S
O407 Zn406 2.032 . S
O407 C411 1.278 . S
C408 O409 1.203 . S
C408 O415 1.267 . S
O409 C408 1.203 . S
O410 C403 1.185 . S
O410 Zn406 2.086 . S
C411 O407 1.278 . S
C411 O412 1.211 . S
O412 C411 1.211 . S
C413 O405 1.284 . S
C413 O414 1.273 . S
O414 C413 1.273 . S
O415 Zn406 1.977 . S
O415 C408 1.267 . S
C416 O417 1.160 . S
C416 O423 1.185 . S
O417 C416 1.160 . S
O418 Zn419 1.899 . S
O418 C426 1.284 . S
Zn419 O418 1.899 . S
Zn419 O420 2.032 . S
Zn419 O423 2.086 . S
Zn419 O428 1.977 . S
O420 Zn419 2.032 . S
O420 C424 1.278 . S
C421 O422 1.203 . S
C421 O428 1.267 . S
O422 C421 1.203 . S
O423 C416 1.185 . S
O423 Zn419 2.086 . S
C424 O420 1.278 . S
C424 O425 1.211 . S
O425 C424 1.211 . S
C426 O418 1.284 . S
C426 O427 1.273 . S
O427 C426 1.273 . S
O428 Zn419 1.977 . S
O428 C421 1.267 . S
C429 O430 1.160 . S
C429 O436 1.185 . S
O430 C429 1.160 . S
O431 Zn432 1.899 . S
O431 C439 1.284 . S
Zn432 O431 1.899 . S
Zn432 O433 2.032 . S
Zn432 O436 2.086 . S
Zn432 O441 1.977 . S
O433 Zn432 2.032 . S
O433 C437 1.278 . S
C434 O435 1.203 . S
C434 O441 1.267 . S
O435 C434 1.203 . S
O436 C429 1.185 . S
O436 Zn432 2.086 . S
C437 O433 1.278 . S
C437 O438 1.211 . S
O438 C437 1.211 . S
C439 O431 1.284 . S
C439 O440 1.273 . S
O440 C439 1.273 . S
O441 Zn432 1.977 . S
O441 C434 1.267 . S
C442 O443 1.160 . S
C442 O449 1.185 . S
O443 C442 1.160 . S
O444 Zn445 1.899 . S
O444 C452 1.284 . S
Zn445 O444 1.899 . S
Zn445 O446 2.032 . S
Zn445 O449 2.086 . S
Zn445 O454 1.977 . S
O446 Zn445 2.032 . S
O446 C450 1.278 . S
C447 O448 1.203 . S
C447 O454 1.267 . S
O448 C447 1.203 . S
O449 C442 1.185 . S
O449 Zn445 2.086 . S
C450 O446 1.278 . S
C450 O451 1.211 . S
O451 C450 1.211 . S
C452 O444 1.284 . S
C452 O453 1.273 . S
O453 C452 1.273 . S
O454 Zn445 1.977 . S
O454 C447 1.267 . S
C455 O456 1.160 . S
C455 O462 1.185 . S
O456 C455 1.160 . S
O457 Zn458 1.899 . S
O457 C465 1.284 . S
Zn458 O457 1.899 . S
Zn458 O459 2.032 . S
Zn458 O462 2.086 . S
Zn458 O467 1.977 . S
O459 Zn458 2.032 . S
O459 C463 1.278 . S
C460 O461 1.203 . S
C460 O467 1.267 . S
O461 C460 1.203 . S
O462 C455 1.185 . S
O462 Zn458 2.086 . S
C463 O459 1.278 . S
C463 O464 1.211 . S
O464 C463 1.211 . S
C465 O457 1.284 . S
C465 O466 1.273 . S
O466 C465 1.273 . S
O467 Zn458 1.977 . S
O467 C460 1.267 . S
C468 C469 1.349 . S
C468 C470 1.327 . S
C468 H493 0.950 . S
C469 C468 1.349 . S
C469 C485 1.349 . S
C470 C468 1.327 . S
C470 C489 1.429 . S
C470 H494 0.950 . S
C471 C488 1.574 . S
C471 C490 1.368 . S
C471 H495 0.949 . S
H472 C476 0.949 . S
C473 C474 1.349 . S
C473 C475 1.327 . S
C473 H496 0.950 . S
C474 C473 1.349 . S
C474 C486 1.349 . S
C475 C473 1.327 . S
C475 C491 1.429 . S
C475 H497 0.950 . S
C476 H472 0.949 . S
C476 C484 1.574 . S
C476 C492 1.368 . S
H477 C485 0.950 . S
H478 C483 0.950 . S
H479 C484 0.949 . S
H480 C486 0.950 . S
H481 C487 0.950 . S
H482 C488 0.949 . S
C483 H478 0.950 . S
C483 C485 1.327 . S
C483 C489 1.429 . S
C484 C476 1.574 . S
C484 H479 0.949 . S
C484 C490 1.368 . S
C485 C469 1.349 . S
C485 H477 0.950 . S
C485 C483 1.327 . S
C486 C474 1.349 . S
C486 H480 0.950 . S
C486 C487 1.327 . S
C487 H481 0.950 . S
C487 C486 1.327 . S
C487 C491 1.429 . S
C488 C471 1.574 . S
C488 H482 0.949 . S
C488 C492 1.368 . S
C489 C470 1.429 . S
C489 C483 1.429 . S
C489 C490 1.523 . S
C490 C471 1.368 . S
C490 C484 1.368 . S
C490 C489 1.523 . S
C491 C475 1.429 . S
C491 C487 1.429 . S
C491 C492 1.523 . S
C492 C476 1.368 . S
C492 C488 1.368 . S
C492 C491 1.523 . S
H493 C468 0.950 . S
H494 C470 0.950 . S
H495 C471 0.949 . S
H496 C473 0.950 . S
H497 C475 0.950 . S
C498 C499 1.349 . S
C498 C500 1.327 . S
C498 H523 0.950 . S
C499 C498 1.349 . S
C499 C515 1.349 . S
C500 C498 1.327 . S
C500 C519 1.429 . S
C500 H524 0.950 . S
C501 C518 1.574 . S
C501 C520 1.368 . S
C501 H525 0.949 . S
H502 C506 0.949 . S
C503 C504 1.349 . S
C503 C505 1.327 . S
C503 H526 0.950 . S
C504 C503 1.349 . S
C504 C516 1.349 . S
C505 C503 1.327 . S
C505 C521 1.429 . S
C505 H527 0.950 . S
C506 H502 0.949 . S
C506 C514 1.574 . S
C506 C522 1.368 . S
H507 C515 0.950 . S
H508 C513 0.950 . S
H509 C514 0.949 . S
H510 C516 0.950 . S
H511 C517 0.950 . S
H512 C518 0.949 . S
C513 H508 0.950 . S
C513 C515 1.327 . S
C513 C519 1.429 . S
C514 C506 1.574 . S
C514 H509 0.949 . S
C514 C520 1.368 . S
C515 C499 1.349 . S
C515 H507 0.950 . S
C515 C513 1.327 . S
C516 C504 1.349 . S
C516 H510 0.950 . S
C516 C517 1.327 . S
C517 H511 0.950 . S
C517 C516 1.327 . S
C517 C521 1.429 . S
C518 C501 1.574 . S
C518 H512 0.949 . S
C518 C522 1.368 . S
C519 C500 1.429 . S
C519 C513 1.429 . S
C519 C520 1.523 . S
C520 C501 1.368 . S
C520 C514 1.368 . S
C520 C519 1.523 . S
C521 C505 1.429 . S
C521 C517 1.429 . S
C521 C522 1.523 . S
C522 C506 1.368 . S
C522 C518 1.368 . S
C522 C521 1.523 . S
H523 C498 0.950 . S
H524 C500 0.950 . S
H525 C501 0.949 . S
H526 C503 0.950 . S
H527 C505 0.950 . S
C528 C529 1.349 . S
C528 C530 1.327 . S
C528 H553 0.950 . S
C529 C528 1.349 . S
C529 C545 1.349 . S
C530 C528 1.327 . S
C530 C549 1.429 . S
C530 H554 0.950 . S
C531 C548 1.574 . S
C531 C550 1.368 . S
C531 H555 0.949 . S
H532 C536 0.949 . S
C533 C534 1.349 . S
C533 C535 1.327 . S
C533 H556 0.950 . S
C534 C533 1.349 . S
C534 C546 1.349 . S
C535 C533 1.327 . S
C535 C551 1.429 . S
C535 H557 0.950 . S
C536 H532 0.949 . S
C536 C544 1.574 . S
C536 C552 1.368 . S
H537 C545 0.950 . S
H538 C543 0.950 . S
H539 C544 0.949 . S
H540 C546 0.950 . S
H541 C547 0.950 . S
H542 C548 0.949 . S
C543 H538 0.950 . S
C543 C545 1.327 . S
C543 C549 1.429 . S
C544 C536 1.574 . S
C544 H539 0.949 . S
C544 C550 1.368 . S
C545 C529 1.349 . S
C545 H537 0.950 . S
C545 C543 1.327 . S
C546 C534 1.349 . S
C546 H540 0.950 . S
C546 C547 1.327 . S
C547 H541 0.950 . S
C547 C546 1.327 . S
C547 C551 1.429 . S
C548 C531 1.574 . S
C548 H542 0.949 . S
C548 C552 1.368 . S
C549 C530 1.429 . S
C549 C543 1.429 . S
C549 C550 1.523 . S
C550 C531 1.368 . S
C550 C544 1.368 . S
C550 C549 1.523 . S
C551 C535 1.429 . S
C551 C547 1.429 . S
C551 C552 1.523 . S
C552 C536 1.368 . S
C552 C548 1.368 . S
C552 C551 1.523 . S
H553 C528 0.950 . S
H554 C530 0.950 . S
H555 C531 0.949 . S
H556 C533 0.950 . S
H557 C535 0.950 . S
C558 C559 1.349 . S
C558 C560 1.327 . S
C558 H583 0.950 . S
C559 C558 1.349 . S
C559 C575 1.349 . S
C560 C558 1.327 . S
C560 C579 1.429 . S
C560 H584 0.950 . S
C561 C578 1.574 . S
C561 C580 1.368 . S
C561 H585 0.949 . S
H562 C566 0.949 . S
C563 C564 1.349 . S
C563 C565 1.327 . S
C563 H586 0.950 . S
C564 C563 1.349 . S
C564 C576 1.349 . S
C565 C563 1.327 . S
C565 C581 1.429 . S
C565 H587 0.950 . S
C566 H562 0.949 . S
C566 C574 1.574 . S
C566 C582 1.368 . S
H567 C575 0.950 . S
H568 C573 0.950 . S
H569 C574 0.949 . S
H570 C576 0.950 . S
H571 C577 0.950 . S
H572 C578 0.949 . S
C573 H568 0.950 . S
C573 C575 1.327 . S
C573 C579 1.429 . S
C574 C566 1.574 . S
C574 H569 0.949 . S
C574 C580 1.368 . S
C575 C559 1.349 . S
C575 H567 0.950 . S
C575 C573 1.327 . S
C576 C564 1.349 . S
C576 H570 0.950 . S
C576 C577 1.327 . S
C577 H571 0.950 . S
C577 C576 1.327 . S
C577 C581 1.429 . S
C578 C561 1.574 . S
C578 H572 0.949 . S
C578 C582 1.368 . S
C579 C560 1.429 . S
C579 C573 1.429 . S
C579 C580 1.523 . S
C580 C561 1.368 . S
C580 C574 1.368 . S
C580 C579 1.523 . S
C581 C565 1.429 . S
C581 C577 1.429 . S
C581 C582 1.523 . S
C582 C566 1.368 . S
C582 C578 1.368 . S
C582 C581 1.523 . S
H583 C558 0.950 . S
H584 C560 0.950 . S
H585 C561 0.949 . S
H586 C563 0.950 . S
H587 C565 0.950 . S
C588 C589 1.349 . S
C588 C590 1.327 . S
C588 H613 0.950 . S
C589 C588 1.349 . S
C589 C605 1.349 . S
C590 C588 1.327 . S
C590 C609 1.429 . S
C590 H614 0.950 . S
C591 C608 1.574 . S
C591 C610 1.368 . S
C591 H615 0.949 . S
H592 C596 0.949 . S
C593 C594 1.349 . S
C593 C595 1.327 . S
C593 H616 0.950 . S
C594 C593 1.349 . S
C594 C606 1.349 . S
C595 C593 1.327 . S
C595 C611 1.429 . S
C595 H617 0.950 . S
C596 H592 0.949 . S
C596 C604 1.574 . S
C596 C612 1.368 . S
H597 C605 0.950 . S
H598 C603 0.950 . S
H599 C604 0.949 . S
H600 C606 0.950 . S
H601 C607 0.950 . S
H602 C608 0.949 . S
C603 H598 0.950 . S
C603 C605 1.327 . S
C603 C609 1.429 . S
C604 C596 1.574 . S
C604 H599 0.949 . S
C604 C610 1.368 . S
C605 C589 1.349 . S
C605 H597 0.950 . S
C605 C603 1.327 . S
C606 C594 1.349 . S
C606 H600 0.950 . S
C606 C607 1.327 . S
C607 H601 0.950 . S
C607 C606 1.327 . S
C607 C611 1.429 . S
C608 C591 1.574 . S
C608 H602 0.949 . S
C608 C612 1.368 . S
C609 C590 1.429 . S
C609 C603 1.429 . S
C609 C610 1.523 . S
C610 C591 1.368 . S
C610 C604 1.368 . S
C610 C609 1.523 . S
C611 C595 1.429 . S
C611 C607 1.429 . S
C611 C612 1.523 . S
C612 C596 1.368 . S
C612 C608 1.368 . S
C612 C611 1.523 . S
H613 C588 0.950 . S
H614 C590 0.950 . S
H615 C591 0.949 . S
H616 C593 0.950 . S
H617 C595 0.950 . S
C618 C619 1.349 . S
C618 C620 1.327 . S
C618 H643 0.950 . S
C619 C618 1.349 . S
C619 C635 1.349 . S
C620 C618 1.327 . S
C620 C639 1.429 . S
C620 H644 0.950 . S
C621 C638 1.574 . S
C621 C640 1.368 . S
C621 H645 0.949 . S
H622 C626 0.949 . S
C623 C624 1.349 . S
C623 C625 1.327 . S
C623 H646 0.950 . S
C624 C623 1.349 . S
C624 C636 1.349 . S
C625 C623 1.327 . S
C625 C641 1.429 . S
C625 H647 0.950 . S
C626 H622 0.949 . S
C626 C634 1.574 . S
C626 C642 1.368 . S
H627 C635 0.950 . S
H628 C633 0.950 . S
H629 C634 0.949 . S
H630 C636 0.950 . S
H631 C637 0.950 . S
H632 C638 0.949 . S
C633 H628 0.950 . S
C633 C635 1.327 . S
C633 C639 1.429 . S
C634 C626 1.574 . S
C634 H629 0.949 . S
C634 C640 1.368 . S
C635 C619 1.349 . S
C635 H627 0.950 . S
C635 C633 1.327 . S
C636 C624 1.349 . S
C636 H630 0.950 . S
C636 C637 1.327 . S
C637 H631 0.950 . S
C637 C636 1.327 . S
C637 C641 1.429 . S
C638 C621 1.574 . S
C638 H632 0.949 . S
C638 C642 1.368 . S
C639 C620 1.429 . S
C639 C633 1.429 . S
C639 C640 1.523 . S
C640 C621 1.368 . S
C640 C634 1.368 . S
C640 C639 1.523 . S
C641 C625 1.429 . S
C641 C637 1.429 . S
C641 C642 1.523 . S
C642 C626 1.368 . S
C642 C638 1.368 . S
C642 C641 1.523 . S
H643 C618 0.950 . S
H644 C620 0.950 . S
H645 C621 0.949 . S
H646 C623 0.950 . S
H647 C625 0.950 . S
C648 C649 1.349 . S
C648 C650 1.327 . S
C648 H673 0.950 . S
C649 C648 1.349 . S
C649 C665 1.349 . S
C650 C648 1.327 . S
C650 C669 1.429 . S
C650 H674 0.950 . S
C651 C668 1.574 . S
C651 C670 1.368 . S
C651 H675 0.949 . S
H652 C656 0.949 . S
C653 C654 1.349 . S
C653 C655 1.327 . S
C653 H676 0.950 . S
C654 C653 1.349 . S
C654 C666 1.349 . S
C655 C653 1.327 . S
C655 C671 1.429 . S
C655 H677 0.950 . S
C656 H652 0.949 . S
C656 C664 1.574 . S
C656 C672 1.368 . S
H657 C665 0.950 . S
H658 C663 0.950 . S
H659 C664 0.949 . S
H660 C666 0.950 . S
H661 C667 0.950 . S
H662 C668 0.949 . S
C663 H658 0.950 . S
C663 C665 1.327 . S
C663 C669 1.429 . S
C664 C656 1.574 . S
C664 H659 0.949 . S
C664 C670 1.368 . S
C665 C649 1.349 . S
C665 H657 0.950 . S
C665 C663 1.327 . S
C666 C654 1.349 . S
C666 H660 0.950 . S
C666 C667 1.327 . S
C667 H661 0.950 . S
C667 C666 1.327 . S
C667 C671 1.429 . S
C668 C651 1.574 . S
C668 H662 0.949 . S
C668 C672 1.368 . S
C669 C650 1.429 . S
C669 C663 1.429 . S
C669 C670 1.523 . S
C670 C651 1.368 . S
C670 C664 1.368 . S
C670 C669 1.523 . S
C671 C655 1.429 . S
C671 C667 1.429 . S
C671 C672 1.523 . S
C672 C656 1.368 . S
C672 C668 1.368 . S
C672 C671 1.523 . S
H673 C648 0.950 . S
H674 C650 0.950 . S
H675 C651 0.949 . S
H676 C653 0.950 . S
H677 C655 0.950 . S
C678 C679 1.349 . S
C678 C680 1.327 . S
C678 H703 0.950 . S
C679 C678 1.349 . S
C679 C695 1.349 . S
C680 C678 1.327 . S
C680 C699 1.429 . S
C680 H704 0.950 . S
C681 C698 1.574 . S
C681 C700 1.368 . S
C681 H705 0.949 . S
H682 C686 0.949 . S
C683 C684 1.349 . S
C683 C685 1.327 . S
C683 H706 0.950 . S
C684 C683 1.349 . S
C684 C696 1.349 . S
C685 C683 1.327 . S
C685 C701 1.429 . S
C685 H707 0.950 . S
C686 H682 0.949 . S
C686 C694 1.574 . S
C686 C702 1.368 . S
H687 C695 0.950 . S
H688 C693 0.950 . S
H689 C694 0.949 . S
H690 C696 0.950 . S
H691 C697 0.950 . S
H692 C698 0.949 . S
C693 H688 0.950 . S
C693 C695 1.327 . S
C693 C699 1.429 . S
C694 C686 1.574 . S
C694 H689 0.949 . S
C694 C700 1.368 . S
C695 C679 1.349 . S
C695 H687 0.950 . S
C695 C693 1.327 . S
C696 C684 1.349 . S
C696 H690 0.950 . S
C696 C697 1.327 . S
C697 H691 0.950 . S
C697 C696 1.327 . S
C697 C701 1.429 . S
C698 C681 1.574 . S
C698 H692 0.949 . S
C698 C702 1.368 . S
C699 C680 1.429 . S
C699 C693 1.429 . S
C699 C700 1.523 . S
C700 C681 1.368 . S
C700 C694 1.368 . S
C700 C699 1.523 . S
C701 C685 1.429 . S
C701 C697 1.429 . S
C701 C702 1.523 . S
C702 C686 1.368 . S
C702 C698 1.368 . S
C702 C701 1.523 . S
H703 C678 0.950 . S
H704 C680 0.950 . S
H705 C681 0.949 . S
H706 C683 0.950 . S
H707 C685 0.950 . S
C708 C709 1.349 . S
C708 C710 1.327 . S
C708 H733 0.950 . S
C709 C708 1.349 . S
C709 C725 1.349 . S
C710 C708 1.327 . S
C710 C729 1.429 . S
C710 H734 0.950 . S
C711 C728 1.574 . S
C711 C730 1.368 . S
C711 H735 0.949 . S
H712 C716 0.949 . S
C713 C714 1.349 . S
C713 C715 1.327 . S
C713 H736 0.950 . S
C714 C713 1.349 . S
C714 C726 1.349 . S
C715 C713 1.327 . S
C715 C731 1.429 . S
C715 H737 0.950 . S
C716 H712 0.949 . S
C716 C724 1.574 . S
C716 C732 1.368 . S
H717 C725 0.950 . S
H718 C723 0.950 . S
H719 C724 0.949 . S
H720 C726 0.950 . S
H721 C727 0.950 . S
H722 C728 0.949 . S
C723 H718 0.950 . S
C723 C725 1.327 . S
C723 C729 1.429 . S
C724 C716 1.574 . S
C724 H719 0.949 . S
C724 C730 1.368 . S
C725 C709 1.349 . S
C725 H717 0.950 . S
C725 C723 1.327 . S
C726 C714 1.349 . S
C726 H720 0.950 . S
C726 C727 1.327 . S
C727 H721 0.950 . S
C727 C726 1.327 . S
C727 C731 1.429 . S
C728 C711 1.574 . S
C728 H722 0.949 . S
C728 C732 1.368 . S
C729 C710 1.429 . S
C729 C723 1.429 . S
C729 C730 1.523 . S
C730 C711 1.368 . S
C730 C724 1.368 . S
C730 C729 1.523 . S
C731 C715 1.429 . S
C731 C727 1.429 . S
C731 C732 1.523 . S
C732 C716 1.368 . S
C732 C728 1.368 . S
C732 C731 1.523 . S
H733 C708 0.950 . S
H734 C710 0.950 . S
H735 C711 0.949 . S
H736 C713 0.950 . S
H737 C715 0.950 . S
C738 C739 1.349 . S
C738 C740 1.327 . S
C738 H763 0.950 . S
C739 C738 1.349 . S
C739 C755 1.349 . S
C740 C738 1.327 . S
C740 C759 1.429 . S
C740 H764 0.950 . S
C741 C758 1.574 . S
C741 C760 1.368 . S
C741 H765 0.949 . S
H742 C746 0.949 . S
C743 C744 1.349 . S
C743 C745 1.327 . S
C743 H766 0.950 . S
C744 C743 1.349 . S
C744 C756 1.349 . S
C745 C743 1.327 . S
C745 C761 1.429 . S
C745 H767 0.950 . S
C746 H742 0.949 . S
C746 C754 1.574 . S
C746 C762 1.368 . S
H747 C755 0.950 . S
H748 C753 0.950 . S
H749 C754 0.949 . S
H750 C756 0.950 . S
H751 C757 0.950 . S
H752 C758 0.949 . S
C753 H748 0.950 . S
C753 C755 1.327 . S
C753 C759 1.429 . S
C754 C746 1.574 . S
C754 H749 0.949 . S
C754 C760 1.368 . S
C755 C739 1.349 . S
C755 H747 0.950 . S
C755 C753 1.327 . S
C756 C744 1.349 . S
C756 H750 0.950 . S
C756 C757 1.327 . S
C757 H751 0.950 . S
C757 C756 1.327 . S
C757 C761 1.429 . S
C758 C741 1.574 . S
C758 H752 0.949 . S
C758 C762 1.368 . S
C759 C740 1.429 . S
C759 C753 1.429 . S
C759 C760 1.523 . S
C760 C741 1.368 . S
C760 C754 1.368 . S
C760 C759 1.523 . S
C761 C745 1.429 . S
C761 C757 1.429 . S
C761 C762 1.523 . S
C762 C746 1.368 . S
C762 C758 1.368 . S
C762 C761 1.523 . S
H763 C738 0.950 . S
H764 C740 0.950 . S
H765 C741 0.949 . S
H766 C743 0.950 . S
H767 C745 0.950 . S
C768 C769 1.349 . S
C768 C770 1.327 . S
C768 H793 0.950 . S
C769 C768 1.349 . S
C769 C785 1.349 . S
C770 C768 1.327 . S
C770 C789 1.429 . S
C770 H794 0.950 . S
C771 C788 1.574 . S
C771 C790 1.368 . S
C771 H795 0.949 . S
H772 C776 0.949 . S
C773 C774 1.349 . S
C773 C775 1.327 . S
C773 H796 0.950 . S
C774 C773 1.349 . S
C774 C786 1.349 . S
C775 C773 1.327 . S
C775 C791 1.429 . S
C775 H797 0.950 . S
C776 H772 0.949 . S
C776 C784 1.574 . S
C776 C792 1.368 . S
H777 C785 0.950 . S
H778 C783 0.950 . S
H779 C784 0.949 . S
H780 C786 0.950 . S
H781 C787 0.950 . S
H782 C788 0.949 . S
C783 H778 0.950 . S
C783 C785 1.327 . S
C783 C789 1.429 . S
C784 C776 1.574 . S
C784 H779 0.949 . S
C784 C790 1.368 . S
C785 C769 1.349 . S
C785 H777 0.950 . S
C785 C783 1.327 . S
C786 C774 1.349 . S
C786 H780 0.950 . S
C786 C787 1.327 . S
C787 H781 0.950 . S
C787 C786 1.327 . S
C787 C791 1.429 . S
C788 C771 1.574 . S
C788 H782 0.949 . S
C788 C792 1.368 . S
C789 C770 1.429 . S
C789 C783 1.429 . S
C789 C790 1.523 . S
C790 C771 1.368 . S
C790 C784 1.368 . S
C790 C789 1.523 . S
C791 C775 1.429 . S
C791 C787 1.429 . S
C791 C792 1.523 . S
C792 C776 1.368 . S
C792 C788 1.368 . S
C792 C791 1.523 . S
H793 C768 0.950 . S
H794 C770 0.950 . S
H795 C771 0.949 . S
H796 C773 0.950 . S
H797 C775 0.950 . S
C798 C799 1.349 . S
C798 C800 1.327 . S
C798 H823 0.950 . S
C799 C798 1.349 . S
C799 C815 1.349 . S
C800 C798 1.327 . S
C800 C819 1.429 . S
C800 H824 0.950 . S
C801 C818 1.574 . S
C801 C820 1.368 . S
C801 H825 0.949 . S
H802 C806 0.949 . S
C803 C804 1.349 . S
C803 C805 1.327 . S
C803 H826 0.950 . S
C804 C803 1.349 . S
C804 C816 1.349 . S
C805 C803 1.327 . S
C805 C821 1.429 . S
C805 H827 0.950 . S
C806 H802 0.949 . S
C806 C814 1.574 . S
C806 C822 1.368 . S
H807 C815 0.950 . S
H808 C813 0.950 . S
H809 C814 0.949 . S
H810 C816 0.950 . S
H811 C817 0.950 . S
H812 C818 0.949 . S
C813 H808 0.950 . S
C813 C815 1.327 . S
C813 C819 1.429 . S
C814 C806 1.574 . S
C814 H809 0.949 . S
C814 C820 1.368 . S
C815 C799 1.349 . S
C815 H807 0.950 . S
C815 C813 1.327 . S
C816 C804 1.349 . S
C816 H810 0.950 . S
C816 C817 1.327 . S
C817 H811 0.950 . S
C817 C816 1.327 . S
C817 C821 1.429 . S
C818 C801 1.574 . S
C818 H812 0.949 . S
C818 C822 1.368 . S
C819 C800 1.429 . S
C819 C813 1.429 . S
C819 C820 1.523 . S
C820 C801 1.368 . S
C820 C814 1.368 . S
C820 C819 1.523 . S
C821 C805 1.429 . S
C821 C817 1.429 . S
C821 C822 1.523 . S
C822 C806 1.368 . S
C822 C818 1.368 . S
C822 C821 1.523 . S
H823 C798 0.950 . S
H824 C800 0.950 . S
H825 C801 0.949 . S
H826 C803 0.950 . S
H827 C805 0.950 . S
C828 C829 1.349 . S
C828 C830 1.327 . S
C828 H853 0.950 . S
C829 C828 1.349 . S
C829 C845 1.349 . S
C830 C828 1.327 . S
C830 C849 1.429 . S
C830 H854 0.950 . S
C831 C848 1.574 . S
C831 C850 1.368 . S
C831 H855 0.949 . S
H832 C836 0.949 . S
C833 C834 1.349 . S
C833 C835 1.327 . S
C833 H856 0.950 . S
C834 C833 1.349 . S
C834 C846 1.349 . S
C835 C833 1.327 . S
C835 C851 1.429 . S
C835 H857 0.950 . S
C836 H832 0.949 . S
C836 C844 1.574 . S
C836 C852 1.368 . S
H837 C845 0.950 . S
H838 C843 0.950 . S
H839 C844 0.949 . S
H840 C846 0.950 . S
H841 C847 0.950 . S
H842 C848 0.949 . S
C843 H838 0.950 . S
C843 C845 1.327 . S
C843 C849 1.429 . S
C844 C836 1.574 . S
C844 H839 0.949 . S
C844 C850 1.368 . S
C845 C829 1.349 . S
C845 H837 0.950 . S
C845 C843 1.327 . S
C846 C834 1.349 . S
C846 H840 0.950 . S
C846 C847 1.327 . S
C847 H841 0.950 . S
C847 C846 1.327 . S
C847 C851 1.429 . S
C848 C831 1.574 . S
C848 H842 0.949 . S
C848 C852 1.368 . S
C849 C830 1.429 . S
C849 C843 1.429 . S
C849 C850 1.523 . S
C850 C831 1.368 . S
C850 C844 1.368 . S
C850 C849 1.523 . S
C851 C835 1.429 . S
C851 C847 1.429 . S
C851 C852 1.523 . S
C852 C836 1.368 . S
C852 C848 1.368 . S
C852 C851 1.523 . S
H853 C828 0.950 . S
H854 C830 0.950 . S
H855 C831 0.949 . S
H856 C833 0.950 . S
H857 C835 0.950 . S
C858 C859 1.349 . S
C858 C860 1.327 . S
C858 H883 0.950 . S
C859 C858 1.349 . S
C859 C875 1.349 . S
C860 C858 1.327 . S
C860 C879 1.429 . S
C860 H884 0.950 . S
C861 C878 1.574 . S
C861 C880 1.368 . S
C861 H885 0.949 . S
H862 C866 0.949 . S
C863 C864 1.349 . S
C863 C865 1.327 . S
C863 H886 0.950 . S
C864 C863 1.349 . S
C864 C876 1.349 . S
C865 C863 1.327 . S
C865 C881 1.429 . S
C865 H887 0.950 . S
C866 H862 0.949 . S
C866 C874 1.574 . S
C866 C882 1.368 . S
H867 C875 0.950 . S
H868 C873 0.950 . S
H869 C874 0.949 . S
H870 C876 0.950 . S
H871 C877 0.950 . S
H872 C878 0.949 . S
C873 H868 0.950 . S
C873 C875 1.327 . S
C873 C879 1.429 . S
C874 C866 1.574 . S
C874 H869 0.949 . S
C874 C880 1.368 . S
C875 C859 1.349 . S
C875 H867 0.950 . S
C875 C873 1.327 . S
C876 C864 1.349 . S
C876 H870 0.950 . S
C876 C877 1.327 . S
C877 H871 0.950 . S
C877 C876 1.327 . S
C877 C881 1.429 . S
C878 C861 1.574 . S
C878 H872 0.949 . S
C878 C882 1.368 . S
C879 C860 1.429 . S
C879 C873 1.429 . S
C879 C880 1.523 . S
C880 C861 1.368 . S
C880 C874 1.368 . S
C880 C879 1.523 . S
C881 C865 1.429 . S
C881 C877 1.429 . S
C881 C882 1.523 . S
C882 C866 1.368 . S
C882 C878 1.368 . S
C882 C881 1.523 . S
H883 C858 0.950 . S
H884 C860 0.950 . S
H885 C861 0.949 . S
H886 C863 0.950 . S
H887 C865 0.950 . S
C888 C889 1.349 . S
C888 C890 1.327 . S
C888 H913 0.950 . S
C889 C888 1.349 . S
C889 C905 1.349 . S
C890 C888 1.327 . S
C890 C909 1.429 . S
C890 H914 0.950 . S
C891 C908 1.574 . S
C891 C910 1.368 . S
C891 H915 0.949 . S
H892 C896 0.949 . S
C893 C894 1.349 . S
C893 C895 1.327 . S
C893 H916 0.950 . S
C894 C893 1.349 . S
C894 C906 1.349 . S
C895 C893 1.327 . S
C895 C911 1.429 . S
C895 H917 0.950 . S
C896 H892 0.949 . S
C896 C904 1.574 . S
C896 C912 1.368 . S
H897 C905 0.950 . S
H898 C903 0.950 . S
H899 C904 0.949 . S
H900 C906 0.950 . S
H901 C907 0.950 . S
H902 C908 0.949 . S
C903 H898 0.950 . S
C903 C905 1.327 . S
C903 C909 1.429 . S
C904 C896 1.574 . S
C904 H899 0.949 . S
C904 C910 1.368 . S
C905 C889 1.349 . S
C905 H897 0.950 . S
C905 C903 1.327 . S
C906 C894 1.349 . S
C906 H900 0.950 . S
C906 C907 1.327 . S
C907 H901 0.950 . S
C907 C906 1.327 . S
C907 C911 1.429 . S
C908 C891 1.574 . S
C908 H902 0.949 . S
C908 C912 1.368 . S
C909 C890 1.429 . S
C909 C903 1.429 . S
C909 C910 1.523 . S
C910 C891 1.368 . S
C910 C904 1.368 . S
C910 C909 1.523 . S
C911 C895 1.429 . S
C911 C907 1.429 . S
C911 C912 1.523 . S
C912 C896 1.368 . S
C912 C908 1.368 . S
C912 C911 1.523 . S
H913 C888 0.950 . S
H914 C890 0.950 . S
H915 C891 0.949 . S
H916 C893 0.950 . S
H917 C895 0.950 . S
C918 C919 1.349 . S
C918 C920 1.327 . S
C918 H943 0.950 . S
C919 C918 1.349 . S
C919 C935 1.349 . S
C920 C918 1.327 . S
C920 C939 1.429 . S
C920 H944 0.950 . S
C921 C938 1.574 . S
C921 C940 1.368 . S
C921 H945 0.949 . S
H922 C926 0.949 . S
C923 C924 1.349 . S
C923 C925 1.327 . S
C923 H946 0.950 . S
C924 C923 1.349 . S
C924 C936 1.349 . S
C925 C923 1.327 . S
C925 C941 1.429 . S
C925 H947 0.950 . S
C926 H922 0.949 . S
C926 C934 1.574 . S
C926 C942 1.368 . S
H927 C935 0.950 . S
H928 C933 0.950 . S
H929 C934 0.949 . S
H930 C936 0.950 . S
H931 C937 0.950 . S
H932 C938 0.949 . S
C933 H928 0.950 . S
C933 C935 1.327 . S
C933 C939 1.429 . S
C934 C926 1.574 . S
C934 H929 0.949 . S
C934 C940 1.368 . S
C935 C919 1.349 . S
C935 H927 0.950 . S
C935 C933 1.327 . S
C936 C924 1.349 . S
C936 H930 0.950 . S
C936 C937 1.327 . S
C937 H931 0.950 . S
C937 C936 1.327 . S
C937 C941 1.429 . S
C938 C921 1.574 . S
C938 H932 0.949 . S
C938 C942 1.368 . S
C939 C920 1.429 . S
C939 C933 1.429 . S
C939 C940 1.523 . S
C940 C921 1.368 . S
C940 C934 1.368 . S
C940 C939 1.523 . S
C941 C925 1.429 . S
C941 C937 1.429 . S
C941 C942 1.523 . S
C942 C926 1.368 . S
C942 C938 1.368 . S
C942 C941 1.523 . S
H943 C918 0.950 . S
H944 C920 0.950 . S
H945 C921 0.949 . S
H946 C923 0.950 . S
H947 C925 0.950 . S
C948 C949 1.349 . S
C948 C950 1.327 . S
C948 H973 0.950 . S
C949 C948 1.349 . S
C949 C965 1.349 . S
C950 C948 1.327 . S
C950 C969 1.429 . S
C950 H974 0.950 . S
C951 C968 1.574 . S
C951 C970 1.368 . S
C951 H975 0.949 . S
H952 C956 0.949 . S
C953 C954 1.349 . S
C953 C955 1.327 . S
C953 H976 0.950 . S
C954 C953 1.349 . S
C954 C966 1.349 . S
C955 C953 1.327 . S
C955 C971 1.429 . S
C955 H977 0.950 . S
C956 H952 0.949 . S
C956 C964 1.574 . S
C956 C972 1.368 . S
H957 C965 0.950 . S
H958 C963 0.950 . S
H959 C964 0.949 . S
H960 C966 0.950 . S
H961 C967 0.950 . S
H962 C968 0.949 . S
C963 H958 0.950 . S
C963 C965 1.327 . S
C963 C969 1.429 . S
C964 C956 1.574 . S
C964 H959 0.949 . S
C964 C970 1.368 . S
C965 C949 1.349 . S
C965 H957 0.950 . S
C965 C963 1.327 . S
C966 C954 1.349 . S
C966 H960 0.950 . S
C966 C967 1.327 . S
C967 H961 0.950 . S
C967 C966 1.327 . S
C967 C971 1.429 . S
C968 C951 1.574 . S
C968 H962 0.949 . S
C968 C972 1.368 . S
C969 C950 1.429 . S
C969 C963 1.429 . S
C969 C970 1.523 . S
C970 C951 1.368 . S
C970 C964 1.368 . S
C970 C969 1.523 . S
C971 C955 1.429 . S
C971 C967 1.429 . S
C971 C972 1.523 . S
C972 C956 1.368 . S
C972 C968 1.368 . S
C972 C971 1.523 . S
H973 C948 0.950 . S
H974 C950 0.950 . S
H975 C951 0.949 . S
H976 C953 0.950 . S
H977 C955 0.950 . S
C978 C979 1.349 . S
C978 C980 1.327 . S
C978 H1003 0.950 . S
C979 C978 1.349 . S
C979 C995 1.349 . S
C980 C978 1.327 . S
C980 C999 1.429 . S
C980 H1004 0.950 . S
C981 C998 1.574 . S
C981 C1000 1.368 . S
C981 H1005 0.949 . S
H982 C986 0.949 . S
C983 C984 1.349 . S
C983 C985 1.327 . S
C983 H1006 0.950 . S
C984 C983 1.349 . S
C984 C996 1.349 . S
C985 C983 1.327 . S
C985 C1001 1.429 . S
C985 H1007 0.950 . S
C986 H982 0.949 . S
C986 C994 1.574 . S
C986 C1002 1.368 . S
H987 C995 0.950 . S
H988 C993 0.950 . S
H989 C994 0.949 . S
H990 C996 0.950 . S
H991 C997 0.950 . S
H992 C998 0.949 . S
C993 H988 0.950 . S
C993 C995 1.327 . S
C993 C999 1.429 . S
C994 C986 1.574 . S
C994 H989 0.949 . S
C994 C1000 1.368 . S
C995 C979 1.349 . S
C995 H987 0.950 . S
C995 C993 1.327 . S
C996 C984 1.349 . S
C996 H990 0.950 . S
C996 C997 1.327 . S
C997 H991 0.950 . S
C997 C996 1.327 . S
C997 C1001 1.429 . S
C998 C981 1.574 . S
C998 H992 0.949 . S
C998 C1002 1.368 . S
C999 C980 1.429 . S
C999 C993 1.429 . S
C999 C1000 1.523 . S
C1000 C981 1.368 . S
C1000 C994 1.368 . S
C1000 C999 1.523 . S
C1001 C985 1.429 . S
C1001 C997 1.429 . S
C1001 C1002 1.523 . S
C1002 C986 1.368 . S
C1002 C998 1.368 . S
C1002 C1001 1.523 . S
H1003 C978 0.950 . S
H1004 C980 0.950 . S
H1005 C981 0.949 . S
H1006 C983 0.950 . S
H1007 C985 0.950 . S
C1008 C1009 1.349 . S
C1008 C1010 1.327 1_455 S
C1008 H1033 0.950 1_455 S
C1009 C1008 1.349 . S
C1009 C1025 1.349 . S
C1010 C1008 1.327 1_655 S
C1010 C1029 1.429 1_655 S
C1010 H1034 0.950 . S
C1011 C1028 1.580 . S
C1011 C1030 1.368 1_455 S
C1011 H1035 0.949 . S
H1012 C1016 0.949 . S
C1013 C1014 1.349 . S
C1013 C1015 1.327 . S
C1013 H1036 0.950 . S
C1014 C1013 1.349 . S
C1014 C1026 1.349 . S
C1015 C1013 1.327 . S
C1015 C1031 1.429 . S
C1015 H1037 0.950 . S
C1016 H1012 0.949 . S
C1016 C1024 1.574 . S
C1016 C1032 1.368 . S
H1017 C1025 0.950 . S
H1018 C1023 0.950 . S
H1019 C1024 0.949 . S
H1020 C1026 0.950 . S
H1021 C1027 0.950 . S
H1022 C1028 0.953 . S
C1023 H1018 0.950 . S
C1023 C1025 1.327 . S
C1023 C1029 1.429 . S
C1024 C1016 1.574 . S
C1024 H1019 0.949 . S
C1024 C1030 1.368 . S
C1025 C1009 1.349 . S
C1025 H1017 0.950 . S
C1025 C1023 1.327 . S
C1026 C1014 1.349 . S
C1026 H1020 0.950 . S
C1026 C1027 1.327 . S
C1027 H1021 0.950 . S
C1027 C1026 1.327 . S
C1027 C1031 1.429 . S
C1028 C1011 1.580 . S
C1028 H1022 0.953 . S
C1028 C1032 1.358 1_455 S
C1029 C1010 1.429 1_455 S
C1029 C1023 1.429 . S
C1029 C1030 1.523 1_455 S
C1030 C1011 1.368 1_655 S
C1030 C1024 1.368 . S
C1030 C1029 1.523 1_655 S
C1031 C1015 1.429 . S
C1031 C1027 1.429 . S
C1031 C1032 1.523 . S
C1032 C1016 1.368 . S
C1032 C1028 1.358 1_655 S
C1032 C1031 1.523 . S
H1033 C1008 0.950 1_655 S
H1034 C1010 0.950 . S
H1035 C1011 0.949 . S
H1036 C1013 0.950 . S
H1037 C1015 0.950 . S
C1038 C1039 1.349 . S
C1038 C1040 1.327 . S
C1038 H1063 0.950 . S
C1039 C1038 1.349 . S
C1039 C1055 1.349 . S
C1040 C1038 1.327 . S
C1040 C1059 1.429 . S
C1040 H1064 0.950 . S
C1041 C1058 1.574 . S
C1041 C1060 1.368 . S
C1041 H1065 0.949 . S
H1042 C1046 0.949 . S
C1043 C1044 1.349 . S
C1043 C1045 1.327 . S
C1043 H1066 0.950 . S
C1044 C1043 1.349 . S
C1044 C1056 1.349 . S
C1045 C1043 1.327 . S
C1045 C1061 1.429 . S
C1045 H1067 0.950 . S
C1046 H1042 0.949 . S
C1046 C1054 1.574 . S
C1046 C1062 1.368 . S
H1047 C1055 0.950 . S
H1048 C1053 0.950 . S
H1049 C1054 0.949 . S
H1050 C1056 0.950 . S
H1051 C1057 0.950 . S
H1052 C1058 0.949 . S
C1053 H1048 0.950 . S
C1053 C1055 1.327 . S
C1053 C1059 1.429 . S
C1054 C1046 1.574 . S
C1054 H1049 0.949 . S
C1054 C1060 1.368 . S
C1055 C1039 1.349 . S
C1055 H1047 0.950 . S
C1055 C1053 1.327 . S
C1056 C1044 1.349 . S
C1056 H1050 0.950 . S
C1056 C1057 1.327 . S
C1057 H1051 0.950 . S
C1057 C1056 1.327 . S
C1057 C1061 1.429 . S
C1058 C1041 1.574 . S
C1058 H1052 0.949 . S
C1058 C1062 1.368 . S
C1059 C1040 1.429 . S
C1059 C1053 1.429 . S
C1059 C1060 1.523 . S
C1060 C1041 1.368 . S
C1060 C1054 1.368 . S
C1060 C1059 1.523 . S
C1061 C1045 1.429 . S
C1061 C1057 1.429 . S
C1061 C1062 1.523 . S
C1062 C1046 1.368 . S
C1062 C1058 1.368 . S
C1062 C1061 1.523 . S
H1063 C1038 0.950 . S
H1064 C1040 0.950 . S
H1065 C1041 0.949 . S
H1066 C1043 0.950 . S
H1067 C1045 0.950 . S
C1068 C1069 1.349 . S
C1068 C1070 1.327 . S
C1068 H1093 0.950 . S
C1069 C1068 1.349 . S
C1069 C1085 1.349 . S
C1070 C1068 1.327 . S
C1070 C1089 1.429 . S
C1070 H1094 0.950 . S
C1071 C1088 1.574 . S
C1071 C1090 1.368 . S
C1071 H1095 0.949 . S
H1072 C1076 0.949 . S
C1073 C1074 1.349 . S
C1073 C1075 1.327 . S
C1073 H1096 0.950 . S
C1074 C1073 1.349 . S
C1074 C1086 1.349 . S
C1075 C1073 1.327 . S
C1075 C1091 1.429 . S
C1075 H1097 0.950 . S
C1076 H1072 0.949 . S
C1076 C1084 1.574 . S
C1076 C1092 1.368 . S
H1077 C1085 0.950 . S
H1078 C1083 0.950 . S
H1079 C1084 0.949 . S
H1080 C1086 0.950 . S
H1081 C1087 0.950 . S
H1082 C1088 0.949 . S
C1083 H1078 0.950 . S
C1083 C1085 1.327 . S
C1083 C1089 1.429 . S
C1084 C1076 1.574 . S
C1084 H1079 0.949 . S
C1084 C1090 1.368 . S
C1085 C1069 1.349 . S
C1085 H1077 0.950 . S
C1085 C1083 1.327 . S
C1086 C1074 1.349 . S
C1086 H1080 0.950 . S
C1086 C1087 1.327 . S
C1087 H1081 0.950 . S
C1087 C1086 1.327 . S
C1087 C1091 1.429 . S
C1088 C1071 1.574 . S
C1088 H1082 0.949 . S
C1088 C1092 1.368 . S
C1089 C1070 1.429 . S
C1089 C1083 1.429 . S
C1089 C1090 1.523 . S
C1090 C1071 1.368 . S
C1090 C1084 1.368 . S
C1090 C1089 1.523 . S
C1091 C1075 1.429 . S
C1091 C1087 1.429 . S
C1091 C1092 1.523 . S
C1092 C1076 1.368 . S
C1092 C1088 1.368 . S
C1092 C1091 1.523 . S
H1093 C1068 0.950 . S
H1094 C1070 0.950 . S
H1095 C1071 0.949 . S
H1096 C1073 0.950 . S
H1097 C1075 0.950 . S
C1098 C1099 1.349 . S
C1098 C1100 1.327 1_545 S
C1098 H1123 0.950 1_545 S
C1099 C1098 1.349 . S
C1099 C1115 1.349 . S
C1100 C1098 1.327 1_565 S
C1100 C1119 1.429 1_565 S
C1100 H1124 0.950 . S
C1101 C1118 1.574 . S
C1101 C1120 1.368 1_545 S
C1101 H1125 0.949 . S
H1102 C1106 0.949 . S
C1103 C1104 1.349 . S
C1103 C1105 1.327 . S
C1103 H1126 0.950 . S
C1104 C1103 1.349 . S
C1104 C1116 1.349 . S
C1105 C1103 1.327 . S
C1105 C1121 1.429 . S
C1105 H1127 0.950 . S
C1106 H1102 0.949 . S
C1106 C1114 1.574 . S
C1106 C1122 1.368 . S
H1107 C1115 0.950 . S
H1108 C1113 0.950 . S
H1109 C1114 0.949 . S
H1110 C1116 0.950 . S
H1111 C1117 0.950 . S
H1112 C1118 0.949 . S
C1113 H1108 0.950 . S
C1113 C1115 1.327 . S
C1113 C1119 1.429 . S
C1114 C1106 1.574 . S
C1114 H1109 0.949 . S
C1114 C1120 1.368 . S
C1115 C1099 1.349 . S
C1115 H1107 0.950 . S
C1115 C1113 1.327 . S
C1116 C1104 1.349 . S
C1116 H1110 0.950 . S
C1116 C1117 1.327 . S
C1117 H1111 0.950 . S
C1117 C1116 1.327 . S
C1117 C1121 1.429 . S
C1118 C1101 1.574 . S
C1118 H1112 0.949 . S
C1118 C1122 1.368 1_545 S
C1119 C1100 1.429 1_545 S
C1119 C1113 1.429 . S
C1119 C1120 1.523 1_545 S
C1120 C1101 1.368 1_565 S
C1120 C1114 1.368 . S
C1120 C1119 1.523 1_565 S
C1121 C1105 1.429 . S
C1121 C1117 1.429 . S
C1121 C1122 1.523 . S
C1122 C1106 1.368 . S
C1122 C1118 1.368 1_565 S
C1122 C1121 1.523 . S
H1123 C1098 0.950 1_565 S
H1124 C1100 0.950 . S
H1125 C1101 0.949 . S
H1126 C1103 0.950 . S
H1127 C1105 0.950 . S
C1128 C1129 1.349 . S
C1128 C1130 1.327 . S
C1128 H1153 0.950 . S
C1129 C1128 1.349 . S
C1129 C1145 1.349 . S
C1130 C1128 1.327 . S
C1130 C1149 1.429 . S
C1130 H1154 0.950 . S
C1131 C1148 1.574 . S
C1131 C1150 1.368 . S
C1131 H1155 0.949 . S
H1132 C1136 0.949 . S
C1133 C1134 1.349 . S
C1133 C1135 1.327 . S
C1133 H1156 0.950 . S
C1134 C1133 1.349 . S
C1134 C1146 1.349 . S
C1135 C1133 1.327 . S
C1135 C1151 1.429 . S
C1135 H1157 0.950 . S
C1136 H1132 0.949 . S
C1136 C1144 1.574 . S
C1136 C1152 1.368 . S
H1137 C1145 0.950 . S
H1138 C1143 0.950 . S
H1139 C1144 0.949 . S
H1140 C1146 0.950 . S
H1141 C1147 0.950 . S
H1142 C1148 0.949 . S
C1143 H1138 0.950 . S
C1143 C1145 1.327 . S
C1143 C1149 1.429 . S
C1144 C1136 1.574 . S
C1144 H1139 0.949 . S
C1144 C1150 1.368 . S
C1145 C1129 1.349 . S
C1145 H1137 0.950 . S
C1145 C1143 1.327 . S
C1146 C1134 1.349 . S
C1146 H1140 0.950 . S
C1146 C1147 1.327 . S
C1147 H1141 0.950 . S
C1147 C1146 1.327 . S
C1147 C1151 1.429 . S
C1148 C1131 1.574 . S
C1148 H1142 0.949 . S
C1148 C1152 1.368 . S
C1149 C1130 1.429 . S
C1149 C1143 1.429 . S
C1149 C1150 1.523 . S
C1150 C1131 1.368 . S
C1150 C1144 1.368 . S
C1150 C1149 1.523 . S
C1151 C1135 1.429 . S
C1151 C1147 1.429 . S
C1151 C1152 1.523 . S
C1152 C1136 1.368 . S
C1152 C1148 1.368 . S
C1152 C1151 1.523 . S
H1153 C1128 0.950 . S
H1154 C1130 0.950 . S
H1155 C1131 0.949 . S
H1156 C1133 0.950 . S
H1157 C1135 0.950 . S
C1158 C1159 1.349 . S
C1158 C1160 1.327 . S
C1158 H1183 0.950 . S
C1159 C1158 1.349 . S
C1159 C1175 1.349 . S
C1160 C1158 1.327 . S
C1160 C1179 1.429 . S
C1160 H1184 0.950 . S
C1161 C1178 1.574 . S
C1161 C1180 1.368 . S
C1161 H1185 0.949 . S
H1162 C1166 0.949 . S
C1163 C1164 1.349 . S
C1163 C1165 1.327 . S
C1163 H1186 0.950 . S
C1164 C1163 1.349 . S
C1164 C1176 1.349 . S
C1165 C1163 1.327 . S
C1165 C1181 1.429 . S
C1165 H1187 0.950 . S
C1166 H1162 0.949 . S
C1166 C1174 1.574 . S
C1166 C1182 1.368 . S
H1167 C1175 0.950 . S
H1168 C1173 0.950 . S
H1169 C1174 0.949 . S
H1170 C1176 0.950 . S
H1171 C1177 0.950 . S
H1172 C1178 0.949 . S
C1173 H1168 0.950 . S
C1173 C1175 1.327 . S
C1173 C1179 1.429 . S
C1174 C1166 1.574 . S
C1174 H1169 0.949 . S
C1174 C1180 1.368 . S
C1175 C1159 1.349 . S
C1175 H1167 0.950 . S
C1175 C1173 1.327 . S
C1176 C1164 1.349 . S
C1176 H1170 0.950 . S
C1176 C1177 1.327 . S
C1177 H1171 0.950 . S
C1177 C1176 1.327 . S
C1177 C1181 1.429 . S
C1178 C1161 1.574 . S
C1178 H1172 0.949 . S
C1178 C1182 1.368 . S
C1179 C1160 1.429 . S
C1179 C1173 1.429 . S
C1179 C1180 1.523 . S
C1180 C1161 1.368 . S
C1180 C1174 1.368 . S
C1180 C1179 1.523 . S
C1181 C1165 1.429 . S
C1181 C1177 1.429 . S
C1181 C1182 1.523 . S
C1182 C1166 1.368 . S
C1182 C1178 1.368 . S
C1182 C1181 1.523 . S
H1183 C1158 0.950 . S
H1184 C1160 0.950 . S
H1185 C1161 0.949 . S
H1186 C1163 0.950 . S
H1187 C1165 0.950 . S
C1188 C1189 1.349 . S
C1188 C1190 1.327 . S
C1188 H1213 0.950 . S
C1189 C1188 1.349 . S
C1189 C1205 1.349 . S
C1190 C1188 1.327 . S
C1190 C1209 1.429 . S
C1190 H1214 0.950 . S
C1191 C1208 1.574 . S
C1191 C1210 1.368 . S
C1191 H1215 0.949 . S
H1192 C1196 0.949 . S
C1193 C1194 1.349 . S
C1193 C1195 1.327 . S
C1193 H1216 0.950 . S
C1194 C1193 1.349 . S
C1194 C1206 1.349 . S
C1195 C1193 1.327 . S
C1195 C1211 1.429 . S
C1195 H1217 0.950 . S
C1196 H1192 0.949 . S
C1196 C1204 1.574 . S
C1196 C1212 1.368 . S
H1197 C1205 0.950 . S
H1198 C1203 0.950 . S
H1199 C1204 0.949 . S
H1200 C1206 0.950 . S
H1201 C1207 0.950 . S
H1202 C1208 0.949 . S
C1203 H1198 0.950 . S
C1203 C1205 1.327 . S
C1203 C1209 1.429 . S
C1204 C1196 1.574 . S
C1204 H1199 0.949 . S
C1204 C1210 1.368 . S
C1205 C1189 1.349 . S
C1205 H1197 0.950 . S
C1205 C1203 1.327 . S
C1206 C1194 1.349 . S
C1206 H1200 0.950 . S
C1206 C1207 1.327 . S
C1207 H1201 0.950 . S
C1207 C1206 1.327 . S
C1207 C1211 1.429 . S
C1208 C1191 1.574 . S
C1208 H1202 0.949 . S
C1208 C1212 1.368 . S
C1209 C1190 1.429 . S
C1209 C1203 1.429 . S
C1209 C1210 1.523 . S
C1210 C1191 1.368 . S
C1210 C1204 1.368 . S
C1210 C1209 1.523 . S
C1211 C1195 1.429 . S
C1211 C1207 1.429 . S
C1211 C1212 1.523 . S
C1212 C1196 1.368 . S
C1212 C1208 1.368 . S
C1212 C1211 1.523 . S
H1213 C1188 0.950 . S
H1214 C1190 0.950 . S
H1215 C1191 0.949 . S
H1216 C1193 0.950 . S
H1217 C1195 0.950 . S
C1218 C1219 1.349 . S
C1218 C1220 1.327 . S
C1218 H1243 0.950 . S
C1219 C1218 1.349 . S
C1219 C1235 1.349 . S
C1220 C1218 1.327 . S
C1220 C1239 1.429 . S
C1220 H1244 0.950 . S
C1221 C1238 1.574 . S
C1221 C1240 1.368 . S
C1221 H1245 0.949 . S
H1222 C1226 0.949 . S
C1223 C1224 1.349 . S
C1223 C1225 1.327 . S
C1223 H1246 0.950 . S
C1224 C1223 1.349 . S
C1224 C1236 1.349 . S
C1225 C1223 1.327 . S
C1225 C1241 1.429 . S
C1225 H1247 0.950 . S
C1226 H1222 0.949 . S
C1226 C1234 1.574 . S
C1226 C1242 1.368 . S
H1227 C1235 0.950 . S
H1228 C1233 0.950 . S
H1229 C1234 0.949 . S
H1230 C1236 0.950 . S
H1231 C1237 0.950 . S
H1232 C1238 0.949 . S
C1233 H1228 0.950 . S
C1233 C1235 1.327 . S
C1233 C1239 1.429 . S
C1234 C1226 1.574 . S
C1234 H1229 0.949 . S
C1234 C1240 1.368 . S
C1235 C1219 1.349 . S
C1235 H1227 0.950 . S
C1235 C1233 1.327 . S
C1236 C1224 1.349 . S
C1236 H1230 0.950 . S
C1236 C1237 1.327 . S
C1237 H1231 0.950 . S
C1237 C1236 1.327 . S
C1237 C1241 1.429 . S
C1238 C1221 1.574 . S
C1238 H1232 0.949 . S
C1238 C1242 1.368 . S
C1239 C1220 1.429 . S
C1239 C1233 1.429 . S
C1239 C1240 1.523 . S
C1240 C1221 1.368 . S
C1240 C1234 1.368 . S
C1240 C1239 1.523 . S
C1241 C1225 1.429 . S
C1241 C1237 1.429 . S
C1241 C1242 1.523 . S
C1242 C1226 1.368 . S
C1242 C1238 1.368 . S
C1242 C1241 1.523 . S
H1243 C1218 0.950 . S
H1244 C1220 0.950 . S
H1245 C1221 0.949 . S
H1246 C1223 0.950 . S
H1247 C1225 0.950 . S
C1248 C1249 1.349 . S
C1248 C1250 1.327 . S
C1248 H1273 0.950 . S
C1249 C1248 1.349 . S
C1249 C1265 1.349 . S
C1250 C1248 1.327 . S
C1250 C1269 1.429 . S
C1250 H1274 0.950 . S
C1251 C1268 1.574 . S
C1251 C1270 1.368 . S
C1251 H1275 0.949 . S
H1252 C1256 0.949 . S
C1253 C1254 1.349 . S
C1253 C1255 1.327 . S
C1253 H1276 0.950 . S
C1254 C1253 1.349 . S
C1254 C1266 1.349 . S
C1255 C1253 1.327 . S
C1255 C1271 1.429 . S
C1255 H1277 0.950 . S
C1256 H1252 0.949 . S
C1256 C1264 1.574 . S
C1256 C1272 1.368 1_545 S
H1257 C1265 0.950 1_565 S
H1258 C1263 0.950 . S
H1259 C1264 0.949 . S
H1260 C1266 0.950 . S
H1261 C1267 0.975 . S
H1262 C1268 0.949 . S
C1263 H1258 0.950 . S
C1263 C1265 1.327 1_565 S
C1263 C1269 1.429 1_565 S
C1264 C1256 1.574 . S
C1264 H1259 0.949 . S
C1264 C1270 1.368 1_545 S
C1265 C1249 1.349 . S
C1265 H1257 0.950 1_545 S
C1265 C1263 1.327 1_545 S
C1266 C1254 1.349 . S
C1266 H1260 0.950 . S
C1266 C1267 1.327 . S
C1267 H1261 0.975 . S
C1267 C1266 1.327 . S
C1267 C1271 1.429 . S
C1268 C1251 1.574 . S
C1268 H1262 0.949 . S
C1268 C1272 1.368 . S
C1269 C1250 1.429 . S
C1269 C1263 1.429 1_545 S
C1269 C1270 1.523 1_545 S
C1270 C1251 1.368 . S
C1270 C1264 1.368 1_565 S
C1270 C1269 1.523 1_565 S
C1271 C1255 1.429 . S
C1271 C1267 1.429 . S
C1271 C1272 1.523 . S
C1272 C1256 1.368 1_565 S
C1272 C1268 1.368 . S
C1272 C1271 1.523 . S
H1273 C1248 0.950 . S
H1274 C1250 0.950 . S
H1275 C1251 0.949 . S
H1276 C1253 0.950 . S
H1277 C1255 0.950 . S
C1278 C1279 1.349 . S
C1278 C1280 1.327 . S
C1278 H1303 0.950 . S
C1279 C1278 1.349 . S
C1279 C1295 1.349 . S
C1280 C1278 1.327 . S
C1280 C1299 1.429 . S
C1280 H1304 0.950 . S
C1281 C1298 1.574 . S
C1281 C1300 1.368 . S
C1281 H1305 0.949 . S
H1282 C1286 0.949 . S
C1283 C1284 1.349 . S
C1283 C1285 1.327 . S
C1283 H1306 0.950 . S
C1284 C1283 1.349 . S
C1284 C1296 1.349 . S
C1285 C1283 1.327 . S
C1285 C1301 1.429 . S
C1285 H1307 0.950 . S
C1286 H1282 0.949 . S
C1286 C1294 1.574 . S
C1286 C1302 1.368 . S
H1287 C1295 0.950 . S
H1288 C1293 0.950 . S
H1289 C1294 0.949 . S
H1290 C1296 0.950 . S
H1291 C1297 0.950 . S
H1292 C1298 0.949 . S
C1293 H1288 0.950 . S
C1293 C1295 1.327 . S
C1293 C1299 1.429 . S
C1294 C1286 1.574 . S
C1294 H1289 0.949 . S
C1294 C1300 1.368 . S
C1295 C1279 1.349 . S
C1295 H1287 0.950 . S
C1295 C1293 1.327 . S
C1296 C1284 1.349 . S
C1296 H1290 0.950 . S
C1296 C1297 1.327 . S
C1297 H1291 0.950 . S
C1297 C1296 1.327 . S
C1297 C1301 1.429 . S
C1298 C1281 1.574 . S
C1298 H1292 0.949 . S
C1298 C1302 1.368 . S
C1299 C1280 1.429 . S
C1299 C1293 1.429 . S
C1299 C1300 1.523 . S
C1300 C1281 1.368 . S
C1300 C1294 1.368 . S
C1300 C1299 1.523 . S
C1301 C1285 1.429 . S
C1301 C1297 1.429 . S
C1301 C1302 1.523 . S
C1302 C1286 1.368 . S
C1302 C1298 1.368 . S
C1302 C1301 1.523 . S
H1303 C1278 0.950 . S
H1304 C1280 0.950 . S
H1305 C1281 0.949 . S
H1306 C1283 0.950 . S
H1307 C1285 0.950 . S
C1308 C1309 1.349 . S
C1308 C1310 1.327 1_455 S
C1308 H1333 0.950 1_455 S
C1309 C1308 1.349 . S
C1309 C1325 1.349 . S
C1310 C1308 1.327 1_655 S
C1310 C1329 1.429 1_655 S
C1310 H1334 0.950 . S
C1311 C1328 1.574 . S
C1311 C1330 1.368 1_455 S
C1311 H1335 0.949 . S
H1312 C1316 0.949 . S
C1313 C1314 1.349 . S
C1313 C1315 1.327 . S
C1313 H1336 0.950 . S
C1314 C1313 1.349 . S
C1314 C1326 1.349 . S
C1315 C1313 1.327 . S
C1315 C1331 1.429 . S
C1315 H1337 0.950 . S
C1316 H1312 0.949 . S
C1316 C1324 1.574 . S
C1316 C1332 1.368 . S
H1317 C1325 0.950 . S
H1318 C1323 0.950 . S
H1319 C1324 0.949 . S
H1320 C1326 0.950 . S
H1321 C1327 0.950 . S
H1322 C1328 0.949 . S
C1323 H1318 0.950 . S
C1323 C1325 1.327 . S
C1323 C1329 1.429 . S
C1324 C1316 1.574 . S
C1324 H1319 0.949 . S
C1324 C1330 1.368 . S
C1325 C1309 1.349 . S
C1325 H1317 0.950 . S
C1325 C1323 1.327 . S
C1326 C1314 1.349 . S
C1326 H1320 0.950 . S
C1326 C1327 1.327 . S
C1327 H1321 0.950 . S
C1327 C1326 1.327 . S
C1327 C1331 1.429 . S
C1328 C1311 1.574 . S
C1328 H1322 0.949 . S
C1328 C1332 1.368 1_455 S
C1329 C1310 1.429 1_455 S
C1329 C1323 1.429 . S
C1329 C1330 1.523 1_455 S
C1330 C1311 1.368 1_655 S
C1330 C1324 1.368 . S
C1330 C1329 1.523 1_655 S
C1331 C1315 1.429 . S
C1331 C1327 1.429 . S
C1331 C1332 1.523 . S
C1332 C1316 1.368 . S
C1332 C1328 1.368 1_655 S
C1332 C1331 1.523 . S
H1333 C1308 0.950 1_655 S
H1334 C1310 0.950 . S
H1335 C1311 0.949 . S
H1336 C1313 0.950 . S
H1337 C1315 0.950 . S
C1338 C1339 1.349 . S
C1338 C1340 1.327 . S
C1338 H1363 0.950 . S
C1339 C1338 1.349 . S
C1339 C1355 1.349 . S
C1340 C1338 1.327 . S
C1340 C1359 1.429 . S
C1340 H1364 0.950 . S
C1341 C1358 1.574 . S
C1341 C1360 1.368 . S
C1341 H1365 0.949 . S
H1342 C1346 0.949 . S
C1343 C1344 1.349 . S
C1343 C1345 1.327 . S
C1343 H1366 0.950 . S
C1344 C1343 1.349 . S
C1344 C1356 1.349 . S
C1345 C1343 1.327 . S
C1345 C1361 1.429 . S
C1345 H1367 0.950 . S
C1346 H1342 0.949 . S
C1346 C1354 1.574 . S
C1346 C1362 1.368 . S
H1347 C1355 0.950 . S
H1348 C1353 0.950 . S
H1349 C1354 0.949 . S
H1350 C1356 0.950 . S
H1351 C1357 0.950 . S
H1352 C1358 0.949 . S
C1353 H1348 0.950 . S
C1353 C1355 1.327 . S
C1353 C1359 1.429 . S
C1354 C1346 1.574 . S
C1354 H1349 0.949 . S
C1354 C1360 1.368 . S
C1355 C1339 1.349 . S
C1355 H1347 0.950 . S
C1355 C1353 1.327 . S
C1356 C1344 1.349 . S
C1356 H1350 0.950 . S
C1356 C1357 1.327 . S
C1357 H1351 0.950 . S
C1357 C1356 1.327 . S
C1357 C1361 1.429 . S
C1358 C1341 1.574 . S
C1358 H1352 0.949 . S
C1358 C1362 1.368 . S
C1359 C1340 1.429 . S
C1359 C1353 1.429 . S
C1359 C1360 1.523 . S
C1360 C1341 1.368 . S
C1360 C1354 1.368 . S
C1360 C1359 1.523 . S
C1361 C1345 1.429 . S
C1361 C1357 1.429 . S
C1361 C1362 1.523 . S
C1362 C1346 1.368 . S
C1362 C1358 1.368 . S
C1362 C1361 1.523 . S
H1363 C1338 0.950 . S
H1364 C1340 0.950 . S
H1365 C1341 0.949 . S
H1366 C1343 0.950 . S
H1367 C1345 0.950 . S
C1368 C1369 1.349 . S
C1368 C1370 1.327 . S
C1368 H1393 0.950 . S
C1369 C1368 1.349 . S
C1369 C1385 1.349 . S
C1370 C1368 1.327 . S
C1370 C1389 1.429 . S
C1370 H1394 0.950 . S
C1371 C1388 1.574 . S
C1371 C1390 1.368 . S
C1371 H1395 0.949 . S
H1372 C1376 0.949 . S
C1373 C1374 1.349 . S
C1373 C1375 1.327 . S
C1373 H1396 0.950 . S
C1374 C1373 1.349 . S
C1374 C1386 1.349 . S
C1375 C1373 1.327 . S
C1375 C1391 1.429 . S
C1375 H1397 0.950 . S
C1376 H1372 0.949 . S
C1376 C1384 1.574 . S
C1376 C1392 1.368 . S
H1377 C1385 0.950 . S
H1378 C1383 0.950 . S
H1379 C1384 0.949 . S
H1380 C1386 0.950 . S
H1381 C1387 0.950 . S
H1382 C1388 0.949 . S
C1383 H1378 0.950 . S
C1383 C1385 1.327 . S
C1383 C1389 1.429 . S
C1384 C1376 1.574 . S
C1384 H1379 0.949 . S
C1384 C1390 1.368 . S
C1385 C1369 1.349 . S
C1385 H1377 0.950 . S
C1385 C1383 1.327 . S
C1386 C1374 1.349 . S
C1386 H1380 0.950 . S
C1386 C1387 1.327 . S
C1387 H1381 0.950 . S
C1387 C1386 1.327 . S
C1387 C1391 1.429 . S
C1388 C1371 1.574 . S
C1388 H1382 0.949 . S
C1388 C1392 1.368 . S
C1389 C1370 1.429 . S
C1389 C1383 1.429 . S
C1389 C1390 1.523 . S
C1390 C1371 1.368 . S
C1390 C1384 1.368 . S
C1390 C1389 1.523 . S
C1391 C1375 1.429 . S
C1391 C1387 1.429 . S
C1391 C1392 1.523 . S
C1392 C1376 1.368 . S
C1392 C1388 1.368 . S
C1392 C1391 1.523 . S
H1393 C1368 0.950 . S
H1394 C1370 0.950 . S
H1395 C1371 0.949 . S
H1396 C1373 0.950 . S
H1397 C1375 0.950 . S
C1398 C1399 1.349 . S
C1398 C1400 1.327 . S
C1398 H1423 0.950 . S
C1399 C1398 1.349 . S
C1399 C1415 1.349 . S
C1400 C1398 1.327 . S
C1400 C1419 1.429 . S
C1400 H1424 0.950 . S
C1401 C1418 1.574 . S
C1401 C1420 1.368 . S
C1401 H1425 0.949 . S
H1402 C1406 0.949 . S
C1403 C1404 1.349 . S
C1403 C1405 1.327 . S
C1403 H1426 0.950 . S
C1404 C1403 1.349 . S
C1404 C1416 1.349 . S
C1405 C1403 1.327 . S
C1405 C1421 1.429 . S
C1405 H1427 0.950 . S
C1406 H1402 0.949 . S
C1406 C1414 1.574 . S
C1406 C1422 1.368 . S
H1407 C1415 0.950 . S
H1408 C1413 0.950 . S
H1409 C1414 0.949 . S
H1410 C1416 0.950 . S
H1411 C1417 0.950 . S
H1412 C1418 0.949 1_565 S
C1413 H1408 0.950 . S
C1413 C1415 1.327 . S
C1413 C1419 1.429 . S
C1414 C1406 1.574 . S
C1414 H1409 0.949 . S
C1414 C1420 1.368 . S
C1415 C1399 1.349 . S
C1415 H1407 0.950 . S
C1415 C1413 1.327 . S
C1416 C1404 1.349 . S
C1416 H1410 0.950 . S
C1416 C1417 1.326 1_565 S
C1417 H1411 0.950 . S
C1417 C1416 1.326 1_545 S
C1417 C1421 1.429 1_545 S
C1418 C1401 1.574 . S
C1418 H1412 0.949 1_545 S
C1418 C1422 1.368 . S
C1419 C1400 1.429 . S
C1419 C1413 1.429 . S
C1419 C1420 1.523 . S
C1420 C1401 1.368 . S
C1420 C1414 1.368 . S
C1420 C1419 1.523 . S
C1421 C1405 1.429 . S
C1421 C1417 1.429 1_565 S
C1421 C1422 1.523 1_565 S
C1422 C1406 1.368 . S
C1422 C1418 1.368 . S
C1422 C1421 1.523 1_545 S
H1423 C1398 0.950 . S
H1424 C1400 0.950 . S
H1425 C1401 0.949 . S
H1426 C1403 0.950 . S
H1427 C1405 0.950 . S
C1428 C1429 1.349 . S
C1428 C1430 1.327 . S
C1428 H1453 0.950 . S
C1429 C1428 1.349 . S
C1429 C1445 1.349 . S
C1430 C1428 1.327 . S
C1430 C1449 1.429 . S
C1430 H1454 0.950 . S
C1431 C1448 1.574 . S
C1431 C1450 1.368 . S
C1431 H1455 0.949 . S
H1432 C1436 0.949 . S
C1433 C1434 1.349 . S
C1433 C1435 1.327 . S
C1433 H1456 0.950 . S
C1434 C1433 1.349 . S
C1434 C1446 1.349 . S
C1435 C1433 1.327 . S
C1435 C1451 1.429 . S
C1435 H1457 0.950 . S
C1436 H1432 0.949 . S
C1436 C1444 1.574 . S
C1436 C1452 1.368 . S
H1437 C1445 0.950 . S
H1438 C1443 0.950 . S
H1439 C1444 0.949 . S
H1440 C1446 0.950 . S
H1441 C1447 0.950 . S
H1442 C1448 0.949 . S
C1443 H1438 0.950 . S
C1443 C1445 1.327 . S
C1443 C1449 1.429 . S
C1444 C1436 1.574 . S
C1444 H1439 0.949 . S
C1444 C1450 1.368 . S
C1445 C1429 1.349 . S
C1445 H1437 0.950 . S
C1445 C1443 1.327 . S
C1446 C1434 1.349 . S
C1446 H1440 0.950 . S
C1446 C1447 1.327 . S
C1447 H1441 0.950 . S
C1447 C1446 1.327 . S
C1447 C1451 1.429 . S
C1448 C1431 1.574 . S
C1448 H1442 0.949 . S
C1448 C1452 1.368 . S
C1449 C1430 1.429 . S
C1449 C1443 1.429 . S
C1449 C1450 1.523 1_655 S
C1450 C1431 1.368 . S
C1450 C1444 1.368 . S
C1450 C1449 1.523 1_455 S
C1451 C1435 1.429 . S
C1451 C1447 1.429 . S
C1451 C1452 1.523 . S
C1452 C1436 1.368 . S
C1452 C1448 1.368 . S
C1452 C1451 1.523 . S
H1453 C1428 0.950 . S
H1454 C1430 0.950 . S
H1455 C1431 0.949 . S
H1456 C1433 0.950 . S
H1457 C1435 0.950 . S
C1458 C1459 1.349 . S
C1458 C1460 1.327 . S
C1458 H1483 0.950 . S
C1459 C1458 1.349 . S
C1459 C1475 1.349 . S
C1460 C1458 1.327 . S
C1460 C1479 1.429 . S
C1460 H1484 0.950 . S
C1461 C1478 1.574 . S
C1461 C1480 1.368 . S
C1461 H1485 0.949 . S
H1462 C1466 0.949 . S
C1463 C1464 1.349 . S
C1463 C1465 1.327 . S
C1463 H1486 0.950 . S
C1464 C1463 1.349 . S
C1464 C1476 1.349 . S
C1465 C1463 1.327 . S
C1465 C1481 1.429 . S
C1465 H1487 0.950 . S
C1466 H1462 0.949 . S
C1466 C1474 1.574 . S
C1466 C1482 1.368 . S
H1467 C1475 0.950 . S
H1468 C1473 0.950 . S
H1469 C1474 0.949 . S
H1470 C1476 0.950 . S
H1471 C1477 0.950 . S
H1472 C1478 0.949 . S
C1473 H1468 0.950 . S
C1473 C1475 1.327 . S
C1473 C1479 1.429 . S
C1474 C1466 1.574 . S
C1474 H1469 0.949 . S
C1474 C1480 1.368 . S
C1475 C1459 1.349 . S
C1475 H1467 0.950 . S
C1475 C1473 1.327 . S
C1476 C1464 1.349 . S
C1476 H1470 0.950 . S
C1476 C1477 1.327 . S
C1477 H1471 0.950 . S
C1477 C1476 1.327 . S
C1477 C1481 1.429 . S
C1478 C1461 1.574 . S
C1478 H1472 0.949 . S
C1478 C1482 1.368 . S
C1479 C1460 1.429 . S
C1479 C1473 1.429 . S
C1479 C1480 1.523 . S
C1480 C1461 1.368 . S
C1480 C1474 1.368 . S
C1480 C1479 1.523 . S
C1481 C1465 1.429 . S
C1481 C1477 1.429 . S
C1481 C1482 1.523 . S
C1482 C1466 1.368 . S
C1482 C1478 1.368 . S
C1482 C1481 1.523 . S
H1483 C1458 0.950 . S
H1484 C1460 0.950 . S
H1485 C1461 0.949 . S
H1486 C1463 0.950 . S
H1487 C1465 0.950 . S
C1488 C1489 1.349 . S
C1488 C1490 1.287 1_565 S
C1488 H1513 0.950 . S
C1489 C1488 1.349 . S
C1489 C1505 1.349 . S
C1490 C1488 1.287 1_545 S
C1490 C1509 1.440 1_545 S
C1490 H1514 0.984 . S
C1491 C1508 1.574 . S
C1491 C1510 1.368 . S
C1491 H1515 0.949 1_545 S
H1492 C1496 0.949 . S
C1493 C1494 1.349 . S
C1493 C1495 1.327 . S
C1493 H1516 0.950 . S
C1494 C1493 1.349 . S
C1494 C1506 1.349 . S
C1495 C1493 1.327 . S
C1495 C1511 1.429 . S
C1495 H1517 0.950 . S
C1496 H1492 0.949 . S
C1496 C1504 1.574 . S
C1496 C1512 1.368 . S
H1497 C1505 0.950 . S
H1498 C1503 0.950 . S
H1499 C1504 0.949 . S
H1500 C1506 0.950 . S
H1501 C1507 0.950 . S
H1502 C1508 0.949 . S
C1503 H1498 0.950 . S
C1503 C1505 1.327 . S
C1503 C1509 1.429 . S
C1504 C1496 1.574 . S
C1504 H1499 0.949 . S
C1504 C1510 1.368 . S
C1505 C1489 1.349 . S
C1505 H1497 0.950 . S
C1505 C1503 1.327 . S
C1506 C1494 1.349 . S
C1506 H1500 0.950 . S
C1506 C1507 1.327 . S
C1507 H1501 0.950 . S
C1507 C1506 1.327 . S
C1507 C1511 1.429 . S
C1508 C1491 1.574 . S
C1508 H1502 0.949 . S
C1508 C1512 1.368 . S
C1509 C1490 1.440 1_565 S
C1509 C1503 1.429 . S
C1509 C1510 1.523 1_565 S
C1510 C1491 1.368 . S
C1510 C1504 1.368 . S
C1510 C1509 1.523 1_545 S
C1511 C1495 1.429 . S
C1511 C1507 1.429 . S
C1511 C1512 1.523 . S
C1512 C1496 1.368 . S
C1512 C1508 1.368 . S
C1512 C1511 1.523 . S
H1513 C1488 0.950 . S
H1514 C1490 0.984 . S
H1515 C1491 0.949 1_565 S
H1516 C1493 0.950 . S
H1517 C1495 0.950 . S
C1518 C1519 1.349 . S
C1518 C1520 1.327 . S
C1518 H1543 0.950 . S
C1519 C1518 1.349 . S
C1519 C1535 1.349 . S
C1520 C1518 1.327 . S
C1520 C1539 1.429 . S
C1520 H1544 0.950 . S
C1521 C1538 1.574 . S
C1521 C1540 1.368 . S
C1521 H1545 0.949 . S
H1522 C1526 0.949 . S
C1523 C1524 1.349 . S
C1523 C1525 1.327 . S
C1523 H1546 0.950 . S
C1524 C1523 1.349 . S
C1524 C1536 1.349 . S
C1525 C1523 1.327 . S
C1525 C1541 1.429 . S
C1525 H1547 0.950 . S
C1526 H1522 0.949 . S
C1526 C1534 1.574 . S
C1526 C1542 1.368 . S
H1527 C1535 0.950 . S
H1528 C1533 0.950 . S
H1529 C1534 0.949 1_655 S
H1530 C1536 0.950 . S
H1531 C1537 0.950 . S
H1532 C1538 0.949 . S
C1533 H1528 0.950 . S
C1533 C1535 1.327 1_455 S
C1533 C1539 1.429 1_455 S
C1534 C1526 1.574 . S
C1534 H1529 0.949 1_455 S
C1534 C1540 1.368 . S
C1535 C1519 1.349 . S
C1535 H1527 0.950 . S
C1535 C1533 1.327 1_655 S
C1536 C1524 1.349 . S
C1536 H1530 0.950 . S
C1536 C1537 1.327 . S
C1537 H1531 0.950 . S
C1537 C1536 1.327 . S
C1537 C1541 1.429 . S
C1538 C1521 1.574 . S
C1538 H1532 0.949 . S
C1538 C1542 1.368 . S
C1539 C1520 1.429 . S
C1539 C1533 1.429 1_655 S
C1539 C1540 1.523 1_655 S
C1540 C1521 1.368 . S
C1540 C1534 1.368 . S
C1540 C1539 1.523 1_455 S
C1541 C1525 1.429 . S
C1541 C1537 1.429 . S
C1541 C1542 1.523 . S
C1542 C1526 1.368 . S
C1542 C1538 1.368 . S
C1542 C1541 1.523 . S
H1543 C1518 0.950 . S
H1544 C1520 0.950 . S
H1545 C1521 0.949 . S
H1546 C1523 0.950 . S
H1547 C1525 0.950 . S
C1548 C1549 1.349 . S
C1548 C1550 1.327 . S
C1548 H1573 0.950 . S
C1549 C1548 1.349 . S
C1549 C1565 1.349 . S
C1550 C1548 1.327 . S
C1550 C1569 1.429 . S
C1550 H1574 0.950 . S
C1551 C1568 1.574 1_554 S
C1551 C1570 1.368 . S
C1551 H1575 0.949 . S
H1552 C1556 0.930 1_655 S
C1553 C1554 1.349 . S
C1553 C1555 1.327 . S
C1553 H1576 0.950 . S
C1554 C1553 1.349 . S
C1554 C1566 1.349 . S
C1555 C1553 1.327 . S
C1555 C1571 1.429 . S
C1555 H1577 0.950 . S
C1556 H1552 0.930 1_455 S
C1556 C1564 1.574 1_556 S
C1556 C1572 1.368 . S
H1557 C1565 0.950 . S
H1558 C1563 0.950 . S
H1559 C1564 0.949 . S
H1560 C1566 0.950 1_655 S
H1561 C1567 0.950 1_655 S
H1562 C1568 0.949 . S
C1563 H1558 0.950 . S
C1563 C1565 1.327 . S
C1563 C1569 1.429 . S
C1564 C1556 1.574 1_554 S
C1564 H1559 0.949 . S
C1564 C1570 1.368 . S
C1565 C1549 1.349 . S
C1565 H1557 0.950 . S
C1565 C1563 1.327 . S
C1566 C1554 1.349 . S
C1566 H1560 0.950 1_455 S
C1566 C1567 1.327 . S
C1567 H1561 0.950 1_455 S
C1567 C1566 1.327 . S
C1567 C1571 1.429 . S
C1568 C1551 1.574 1_556 S
C1568 H1562 0.949 . S
C1568 C1572 1.368 . S
C1569 C1550 1.429 . S
C1569 C1563 1.429 . S
C1569 C1570 1.523 . S
C1570 C1551 1.368 . S
C1570 C1564 1.368 . S
C1570 C1569 1.523 . S
C1571 C1555 1.429 . S
C1571 C1567 1.429 . S
C1571 C1572 1.523 . S
C1572 C1556 1.368 . S
C1572 C1568 1.368 . S
C1572 C1571 1.523 . S
H1573 C1548 0.950 . S
H1574 C1550 0.950 . S
H1575 C1551 0.949 . S
H1576 C1553 0.950 . S
H1577 C1555 0.950 . S
C1578 C1579 1.349 . S
C1578 C1580 1.327 . S
C1578 H1603 0.950 . S
C1579 C1578 1.349 . S
C1579 C1595 1.349 . S
C1580 C1578 1.327 . S
C1580 C1599 1.429 . S
C1580 H1604 0.950 . S
C1581 C1598 1.574 1_556 S
C1581 C1600 1.368 . S
C1581 H1605 0.949 . S
H1582 C1586 0.949 . S
C1583 C1584 1.349 . S
C1583 C1585 1.327 . S
C1583 H1606 0.950 . S
C1584 C1583 1.349 . S
C1584 C1596 1.349 . S
C1585 C1583 1.327 . S
C1585 C1601 1.429 . S
C1585 H1607 0.950 . S
C1586 H1582 0.949 . S
C1586 C1594 1.574 1_554 S
C1586 C1602 1.368 . S
H1587 C1595 0.950 . S
H1588 C1593 0.950 . S
H1589 C1594 0.949 . S
H1590 C1596 0.950 . S
H1591 C1597 0.950 . S
H1592 C1598 0.949 . S
C1593 H1588 0.950 . S
C1593 C1595 1.327 . S
C1593 C1599 1.429 . S
C1594 C1586 1.574 1_556 S
C1594 H1589 0.949 . S
C1594 C1600 1.368 . S
C1595 C1579 1.349 . S
C1595 H1587 0.950 . S
C1595 C1593 1.327 . S
C1596 C1584 1.349 . S
C1596 H1590 0.950 . S
C1596 C1597 1.327 . S
C1597 H1591 0.950 . S
C1597 C1596 1.327 . S
C1597 C1601 1.429 . S
C1598 C1581 1.574 1_554 S
C1598 H1592 0.949 . S
C1598 C1602 1.368 . S
C1599 C1580 1.429 . S
C1599 C1593 1.429 . S
C1599 C1600 1.523 . S
C1600 C1581 1.368 . S
C1600 C1594 1.368 . S
C1600 C1599 1.523 . S
C1601 C1585 1.429 . S
C1601 C1597 1.429 . S
C1601 C1602 1.523 . S
C1602 C1586 1.368 . S
C1602 C1598 1.368 . S
C1602 C1601 1.523 . S
H1603 C1578 0.950 . S
H1604 C1580 0.950 . S
H1605 C1581 0.949 . S
H1606 C1583 0.950 . S
H1607 C1585 0.950 . S
C1608 C1609 1.349 . S
C1608 C1610 1.327 . S
C1608 H1633 0.950 . S
C1609 C1608 1.349 . S
C1609 C1625 1.349 . S
C1610 C1608 1.327 . S
C1610 C1629 1.429 . S
C1610 H1634 0.950 . S
C1611 C1628 1.574 1_556 S
C1611 C1630 1.368 . S
C1611 H1635 0.949 . S
H1612 C1616 0.949 . S
C1613 C1614 1.349 . S
C1613 C1615 1.327 . S
C1613 H1636 0.915 1_545 S
C1614 C1613 1.349 . S
C1614 C1626 1.349 . S
C1615 C1613 1.327 . S
C1615 C1631 1.429 . S
C1615 H1637 0.985 . S
C1616 H1612 0.949 . S
C1616 C1624 1.574 1_554 S
C1616 C1632 1.368 . S
H1617 C1625 0.950 . S
H1618 C1623 0.950 . S
H1619 C1624 0.949 . S
H1620 C1626 0.950 . S
H1621 C1627 0.950 . S
H1622 C1628 0.949 . S
C1623 H1618 0.950 . S
C1623 C1625 1.327 . S
C1623 C1629 1.429 . S
C1624 C1616 1.574 1_556 S
C1624 H1619 0.949 . S
C1624 C1630 1.368 . S
C1625 C1609 1.349 . S
C1625 H1617 0.950 . S
C1625 C1623 1.327 . S
C1626 C1614 1.349 . S
C1626 H1620 0.950 . S
C1626 C1627 1.327 . S
C1627 H1621 0.950 . S
C1627 C1626 1.327 . S
C1627 C1631 1.429 . S
C1628 C1611 1.574 1_554 S
C1628 H1622 0.949 . S
C1628 C1632 1.368 . S
C1629 C1610 1.429 . S
C1629 C1623 1.429 . S
C1629 C1630 1.523 . S
C1630 C1611 1.368 . S
C1630 C1624 1.368 . S
C1630 C1629 1.523 . S
C1631 C1615 1.429 . S
C1631 C1627 1.429 . S
C1631 C1632 1.523 . S
C1632 C1616 1.368 . S
C1632 C1628 1.368 . S
C1632 C1631 1.523 . S
H1633 C1608 0.950 . S
H1634 C1610 0.950 . S
H1635 C1611 0.949 . S
H1636 C1613 0.915 1_565 S
H1637 C1615 0.985 . S
C1638 C1639 1.349 . S
C1638 C1640 1.327 . S
C1638 H1663 0.950 . S
C1639 C1638 1.349 . S
C1639 C1655 1.349 . S
C1640 C1638 1.327 . S
C1640 C1659 1.429 . S
C1640 H1664 0.950 . S
C1641 C1658 1.574 1_556 S
C1641 C1660 1.368 . S
C1641 H1665 0.949 . S
H1642 C1646 0.949 . S
C1643 C1644 1.349 . S
C1643 C1645 1.327 . S
C1643 H1666 0.950 . S
C1644 C1643 1.349 . S
C1644 C1656 1.349 . S
C1645 C1643 1.327 . S
C1645 C1661 1.429 . S
C1645 H1667 0.950 . S
C1646 H1642 0.949 . S
C1646 C1654 1.574 1_554 S
C1646 C1662 1.368 . S
H1647 C1655 0.950 . S
H1648 C1653 0.950 . S
H1649 C1654 0.949 . S
H1650 C1656 0.950 . S
H1651 C1657 0.950 . S
H1652 C1658 0.949 . S
C1653 H1648 0.950 . S
C1653 C1655 1.327 . S
C1653 C1659 1.429 . S
C1654 C1646 1.574 1_556 S
C1654 H1649 0.949 . S
C1654 C1660 1.368 . S
C1655 C1639 1.349 . S
C1655 H1647 0.950 . S
C1655 C1653 1.327 . S
C1656 C1644 1.349 . S
C1656 H1650 0.950 . S
C1656 C1657 1.327 . S
C1657 H1651 0.950 . S
C1657 C1656 1.327 . S
C1657 C1661 1.429 . S
C1658 C1641 1.574 1_554 S
C1658 H1652 0.949 . S
C1658 C1662 1.368 . S
C1659 C1640 1.429 . S
C1659 C1653 1.429 . S
C1659 C1660 1.523 . S
C1660 C1641 1.368 . S
C1660 C1654 1.368 . S
C1660 C1659 1.523 . S
C1661 C1645 1.429 . S
C1661 C1657 1.429 . S
C1661 C1662 1.523 . S
C1662 C1646 1.368 . S
C1662 C1658 1.368 . S
C1662 C1661 1.523 . S
H1663 C1638 0.950 . S
H1664 C1640 0.950 . S
H1665 C1641 0.949 . S
H1666 C1643 0.950 . S
H1667 C1645 0.950 . S
C1668 C1669 1.349 . S
C1668 C1670 1.327 . S
C1668 H1693 0.950 . S
C1669 C1668 1.349 . S
C1669 C1685 1.349 . S
C1670 C1668 1.327 . S
C1670 C1689 1.429 . S
C1670 H1694 0.950 . S
C1671 C1688 1.574 1_554 S
C1671 C1690 1.368 . S
C1671 H1695 0.949 . S
H1672 C1676 0.949 . S
C1673 C1674 1.349 . S
C1673 C1675 1.327 . S
C1673 H1696 0.950 . S
C1674 C1673 1.349 . S
C1674 C1686 1.349 . S
C1675 C1673 1.327 . S
C1675 C1691 1.429 . S
C1675 H1697 0.950 . S
C1676 H1672 0.949 . S
C1676 C1684 1.574 1_556 S
C1676 C1692 1.368 . S
H1677 C1685 0.950 . S
H1678 C1683 0.950 . S
H1679 C1684 0.949 . S
H1680 C1686 0.950 . S
H1681 C1687 0.950 . S
H1682 C1688 0.949 . S
C1683 H1678 0.950 . S
C1683 C1685 1.327 . S
C1683 C1689 1.429 . S
C1684 C1676 1.574 1_554 S
C1684 H1679 0.949 . S
C1684 C1690 1.368 . S
C1685 C1669 1.349 . S
C1685 H1677 0.950 . S
C1685 C1683 1.327 . S
C1686 C1674 1.349 . S
C1686 H1680 0.950 . S
C1686 C1687 1.327 . S
C1687 H1681 0.950 . S
C1687 C1686 1.327 . S
C1687 C1691 1.429 . S
C1688 C1671 1.574 1_556 S
C1688 H1682 0.949 . S
C1688 C1692 1.368 . S
C1689 C1670 1.429 . S
C1689 C1683 1.429 . S
C1689 C1690 1.523 . S
C1690 C1671 1.368 . S
C1690 C1684 1.368 . S
C1690 C1689 1.523 . S
C1691 C1675 1.429 . S
C1691 C1687 1.429 . S
C1691 C1692 1.523 . S
C1692 C1676 1.368 . S
C1692 C1688 1.368 . S
C1692 C1691 1.523 . S
H1693 C1668 0.950 . S
H1694 C1670 0.950 . S
H1695 C1671 0.949 . S
H1696 C1673 0.950 . S
H1697 C1675 0.950 . S
C1698 C1699 1.349 . S
C1698 C1700 1.327 . S
C1698 H1723 0.950 . S
C1699 C1698 1.349 . S
C1699 C1715 1.349 . S
C1700 C1698 1.327 . S
C1700 C1719 1.429 . S
C1700 H1724 0.950 . S
C1701 C1718 1.574 1_556 S
C1701 C1720 1.368 . S
C1701 H1725 0.949 . S
H1702 C1706 0.949 . S
C1703 C1704 1.349 . S
C1703 C1705 1.327 . S
C1703 H1726 0.950 . S
C1704 C1703 1.349 . S
C1704 C1716 1.349 . S
C1705 C1703 1.327 . S
C1705 C1721 1.429 . S
C1705 H1727 0.950 . S
C1706 H1702 0.949 . S
C1706 C1714 1.574 1_554 S
C1706 C1722 1.368 . S
H1707 C1715 0.950 . S
H1708 C1713 0.950 . S
H1709 C1714 0.949 . S
H1710 C1716 0.965 . S
H1711 C1717 0.950 . S
H1712 C1718 0.949 . S
C1713 H1708 0.950 . S
C1713 C1715 1.327 . S
C1713 C1719 1.429 . S
C1714 C1706 1.574 1_556 S
C1714 H1709 0.949 . S
C1714 C1720 1.368 . S
C1715 C1699 1.349 . S
C1715 H1707 0.950 . S
C1715 C1713 1.327 . S
C1716 C1704 1.349 . S
C1716 H1710 0.965 . S
C1716 C1717 1.327 . S
C1717 H1711 0.950 . S
C1717 C1716 1.327 . S
C1717 C1721 1.429 . S
C1718 C1701 1.574 1_554 S
C1718 H1712 0.949 . S
C1718 C1722 1.368 . S
C1719 C1700 1.429 . S
C1719 C1713 1.429 . S
C1719 C1720 1.523 . S
C1720 C1701 1.368 . S
C1720 C1714 1.368 . S
C1720 C1719 1.523 . S
C1721 C1705 1.429 . S
C1721 C1717 1.429 . S
C1721 C1722 1.523 . S
C1722 C1706 1.368 . S
C1722 C1718 1.368 . S
C1722 C1721 1.523 . S
H1723 C1698 0.950 . S
H1724 C1700 0.950 . S
H1725 C1701 0.949 . S
H1726 C1703 0.950 . S
H1727 C1705 0.950 . S
C1728 C1729 1.349 . S
C1728 C1730 1.327 . S
C1728 H1753 0.950 . S
C1729 C1728 1.349 . S
C1729 C1745 1.349 . S
C1730 C1728 1.327 . S
C1730 C1749 1.429 . S
C1730 H1754 0.950 . S
C1731 C1748 1.574 . S
C1731 C1750 1.368 . S
C1731 H1755 0.949 . S
H1732 C1736 0.949 . S
C1733 C1734 1.349 . S
C1733 C1735 1.327 . S
C1733 H1756 0.950 . S
C1734 C1733 1.349 . S
C1734 C1746 1.349 . S
C1735 C1733 1.327 . S
C1735 C1751 1.429 . S
C1735 H1757 0.950 . S
C1736 H1732 0.949 . S
C1736 C1744 1.574 . S
C1736 C1752 1.368 . S
H1737 C1745 0.950 . S
H1738 C1743 0.950 . S
H1739 C1744 0.949 . S
H1740 C1746 0.950 . S
H1741 C1747 0.950 . S
H1742 C1748 0.949 . S
C1743 H1738 0.950 . S
C1743 C1745 1.327 . S
C1743 C1749 1.429 . S
C1744 C1736 1.574 . S
C1744 H1739 0.949 . S
C1744 C1750 1.368 . S
C1745 C1729 1.349 . S
C1745 H1737 0.950 . S
C1745 C1743 1.327 . S
C1746 C1734 1.349 . S
C1746 H1740 0.950 . S
C1746 C1747 1.327 . S
C1747 H1741 0.950 . S
C1747 C1746 1.327 . S
C1747 C1751 1.429 . S
C1748 C1731 1.574 . S
C1748 H1742 0.949 . S
C1748 C1752 1.368 . S
C1749 C1730 1.429 . S
C1749 C1743 1.429 . S
C1749 C1750 1.523 . S
C1750 C1731 1.368 . S
C1750 C1744 1.368 . S
C1750 C1749 1.523 . S
C1751 C1735 1.429 . S
C1751 C1747 1.429 . S
C1751 C1752 1.523 . S
C1752 C1736 1.368 . S
C1752 C1748 1.368 . S
C1752 C1751 1.523 . S
H1753 C1728 0.950 . S
H1754 C1730 0.950 . S
H1755 C1731 0.949 . S
H1756 C1733 0.950 . S
H1757 C1735 0.950 . S
C1758 C1759 1.349 . S
C1758 C1760 1.327 . S
C1758 H1783 0.950 . S
C1759 C1758 1.349 . S
C1759 C1775 1.349 . S
C1760 C1758 1.327 . S
C1760 C1779 1.429 . S
C1760 H1784 0.950 . S
C1761 C1778 1.574 . S
C1761 C1780 1.368 . S
C1761 H1785 0.949 . S
H1762 C1766 0.949 . S
C1763 C1764 1.349 . S
C1763 C1765 1.327 . S
C1763 H1786 0.950 . S
C1764 C1763 1.349 . S
C1764 C1776 1.349 . S
C1765 C1763 1.327 . S
C1765 C1781 1.429 . S
C1765 H1787 0.950 . S
C1766 H1762 0.949 . S
C1766 C1774 1.574 . S
C1766 C1782 1.368 . S
H1767 C1775 0.950 . S
H1768 C1773 0.950 . S
H1769 C1774 0.949 . S
H1770 C1776 0.950 . S
H1771 C1777 0.950 . S
H1772 C1778 0.949 . S
C1773 H1768 0.950 . S
C1773 C1775 1.327 . S
C1773 C1779 1.429 . S
C1774 C1766 1.574 . S
C1774 H1769 0.949 . S
C1774 C1780 1.368 . S
C1775 C1759 1.349 . S
C1775 H1767 0.950 . S
C1775 C1773 1.327 . S
C1776 C1764 1.349 . S
C1776 H1770 0.950 . S
C1776 C1777 1.327 . S
C1777 H1771 0.950 . S
C1777 C1776 1.327 . S
C1777 C1781 1.429 . S
C1778 C1761 1.574 . S
C1778 H1772 0.949 . S
C1778 C1782 1.368 . S
C1779 C1760 1.429 . S
C1779 C1773 1.429 . S
C1779 C1780 1.523 . S
C1780 C1761 1.368 . S
C1780 C1774 1.368 . S
C1780 C1779 1.523 . S
C1781 C1765 1.429 . S
C1781 C1777 1.429 . S
C1781 C1782 1.523 . S
C1782 C1766 1.368 . S
C1782 C1778 1.368 . S
C1782 C1781 1.523 . S
H1783 C1758 0.950 . S
H1784 C1760 0.950 . S
H1785 C1761 0.949 . S
H1786 C1763 0.950 . S
H1787 C1765 0.950 . S
C1788 C1789 1.349 . S
C1788 C1790 1.327 . S
C1788 H1813 0.950 . S
C1789 C1788 1.349 . S
C1789 C1805 1.349 . S
C1790 C1788 1.327 . S
C1790 C1809 1.429 . S
C1790 H1814 0.950 . S
C1791 C1808 1.574 . S
C1791 C1810 1.368 . S
C1791 H1815 0.949 . S
H1792 C1796 0.949 . S
C1793 C1794 1.349 . S
C1793 C1795 1.327 . S
C1793 H1816 0.950 . S
C1794 C1793 1.349 . S
C1794 C1806 1.349 . S
C1795 C1793 1.327 . S
C1795 C1811 1.429 . S
C1795 H1817 0.950 . S
C1796 H1792 0.949 . S
C1796 C1804 1.574 . S
C1796 C1812 1.368 . S
H1797 C1805 0.950 . S
H1798 C1803 0.950 . S
H1799 C1804 0.949 . S
H1800 C1806 0.950 . S
H1801 C1807 0.950 . S
H1802 C1808 0.949 . S
C1803 H1798 0.950 . S
C1803 C1805 1.327 . S
C1803 C1809 1.429 . S
C1804 C1796 1.574 . S
C1804 H1799 0.949 . S
C1804 C1810 1.368 . S
C1805 C1789 1.349 . S
C1805 H1797 0.950 . S
C1805 C1803 1.327 . S
C1806 C1794 1.349 . S
C1806 H1800 0.950 . S
C1806 C1807 1.327 . S
C1807 H1801 0.950 . S
C1807 C1806 1.327 . S
C1807 C1811 1.429 . S
C1808 C1791 1.574 . S
C1808 H1802 0.949 . S
C1808 C1812 1.368 . S
C1809 C1790 1.429 . S
C1809 C1803 1.429 . S
C1809 C1810 1.523 . S
C1810 C1791 1.368 . S
C1810 C1804 1.368 . S
C1810 C1809 1.523 . S
C1811 C1795 1.429 . S
C1811 C1807 1.429 . S
C1811 C1812 1.523 . S
C1812 C1796 1.368 . S
C1812 C1808 1.368 . S
C1812 C1811 1.523 . S
H1813 C1788 0.950 . S
H1814 C1790 0.950 . S
H1815 C1791 0.949 . S
H1816 C1793 0.950 . S
H1817 C1795 0.950 . S
C1818 C1819 1.349 . S
C1818 C1820 1.327 . S
C1818 H1843 0.950 . S
C1819 C1818 1.349 . S
C1819 C1835 1.349 . S
C1820 C1818 1.327 . S
C1820 C1839 1.429 . S
C1820 H1844 0.950 . S
C1821 C1838 1.574 . S
C1821 C1840 1.368 . S
C1821 H1845 0.949 . S
H1822 C1826 0.949 . S
C1823 C1824 1.349 . S
C1823 C1825 1.327 . S
C1823 H1846 0.950 . S
C1824 C1823 1.349 . S
C1824 C1836 1.349 . S
C1825 C1823 1.327 . S
C1825 C1841 1.429 . S
C1825 H1847 0.950 . S
C1826 H1822 0.949 . S
C1826 C1834 1.574 . S
C1826 C1842 1.368 . S
H1827 C1835 0.950 . S
H1828 C1833 0.950 . S
H1829 C1834 0.949 . S
H1830 C1836 0.950 . S
H1831 C1837 0.950 . S
H1832 C1838 0.949 . S
C1833 H1828 0.950 . S
C1833 C1835 1.327 . S
C1833 C1839 1.429 . S
C1834 C1826 1.574 . S
C1834 H1829 0.949 . S
C1834 C1840 1.368 . S
C1835 C1819 1.349 . S
C1835 H1827 0.950 . S
C1835 C1833 1.327 . S
C1836 C1824 1.349 . S
C1836 H1830 0.950 . S
C1836 C1837 1.327 . S
C1837 H1831 0.950 . S
C1837 C1836 1.327 . S
C1837 C1841 1.429 . S
C1838 C1821 1.574 . S
C1838 H1832 0.949 . S
C1838 C1842 1.368 . S
C1839 C1820 1.429 . S
C1839 C1833 1.429 . S
C1839 C1840 1.523 . S
C1840 C1821 1.368 . S
C1840 C1834 1.368 . S
C1840 C1839 1.523 . S
C1841 C1825 1.429 . S
C1841 C1837 1.429 . S
C1841 C1842 1.523 . S
C1842 C1826 1.368 . S
C1842 C1838 1.368 . S
C1842 C1841 1.523 . S
H1843 C1818 0.950 . S
H1844 C1820 0.950 . S
H1845 C1821 0.949 . S
H1846 C1823 0.950 . S
H1847 C1825 0.950 . S
C1848 C1849 1.349 . S
C1848 C1850 1.327 . S
C1848 H1873 0.950 . S
C1849 C1848 1.349 . S
C1849 C1865 1.349 . S
C1850 C1848 1.327 . S
C1850 C1869 1.429 . S
C1850 H1874 0.950 . S
C1851 C1868 1.574 . S
C1851 C1870 1.368 . S
C1851 H1875 0.949 . S
H1852 C1856 0.949 . S
C1853 C1854 1.349 . S
C1853 C1855 1.327 . S
C1853 H1876 0.950 . S
C1854 C1853 1.349 . S
C1854 C1866 1.349 . S
C1855 C1853 1.327 . S
C1855 C1871 1.429 . S
C1855 H1877 0.950 . S
C1856 H1852 0.949 . S
C1856 C1864 1.574 . S
C1856 C1872 1.368 . S
H1857 C1865 0.950 . S
H1858 C1863 0.950 . S
H1859 C1864 0.949 . S
H1860 C1866 0.950 . S
H1861 C1867 0.950 . S
H1862 C1868 0.949 . S
C1863 H1858 0.950 . S
C1863 C1865 1.327 . S
C1863 C1869 1.429 . S
C1864 C1856 1.574 . S
C1864 H1859 0.949 . S
C1864 C1870 1.368 . S
C1865 C1849 1.349 . S
C1865 H1857 0.950 . S
C1865 C1863 1.327 . S
C1866 C1854 1.349 . S
C1866 H1860 0.950 . S
C1866 C1867 1.327 . S
C1867 H1861 0.950 . S
C1867 C1866 1.327 . S
C1867 C1871 1.429 . S
C1868 C1851 1.574 . S
C1868 H1862 0.949 . S
C1868 C1872 1.368 . S
C1869 C1850 1.429 . S
C1869 C1863 1.429 . S
C1869 C1870 1.523 . S
C1870 C1851 1.368 . S
C1870 C1864 1.368 . S
C1870 C1869 1.523 . S
C1871 C1855 1.429 . S
C1871 C1867 1.429 . S
C1871 C1872 1.523 . S
C1872 C1856 1.368 . S
C1872 C1868 1.368 . S
C1872 C1871 1.523 . S
H1873 C1848 0.950 . S
H1874 C1850 0.950 . S
H1875 C1851 0.949 . S
H1876 C1853 0.950 . S
H1877 C1855 0.950 . S
C1878 C1879 1.349 . S
C1878 C1880 1.327 . S
C1878 H1903 0.950 . S
C1879 C1878 1.349 . S
C1879 C1895 1.349 . S
C1880 C1878 1.327 . S
C1880 C1899 1.429 . S
C1880 H1904 0.950 . S
C1881 C1898 1.574 . S
C1881 C1900 1.368 . S
C1881 H1905 0.949 . S
H1882 C1886 0.949 . S
C1883 C1884 1.349 . S
C1883 C1885 1.327 . S
C1883 H1906 0.950 . S
C1884 C1883 1.349 . S
C1884 C1896 1.349 . S
C1885 C1883 1.327 . S
C1885 C1901 1.429 . S
C1885 H1907 0.950 . S
C1886 H1882 0.949 . S
C1886 C1894 1.574 . S
C1886 C1902 1.368 . S
H1887 C1895 0.950 . S
H1888 C1893 0.950 . S
H1889 C1894 0.949 . S
H1890 C1896 0.950 . S
H1891 C1897 0.950 . S
H1892 C1898 0.949 . S
C1893 H1888 0.950 . S
C1893 C1895 1.327 . S
C1893 C1899 1.429 . S
C1894 C1886 1.574 . S
C1894 H1889 0.949 . S
C1894 C1900 1.368 . S
C1895 C1879 1.349 . S
C1895 H1887 0.950 . S
C1895 C1893 1.327 . S
C1896 C1884 1.349 . S
C1896 H1890 0.950 . S
C1896 C1897 1.327 . S
C1897 H1891 0.950 . S
C1897 C1896 1.327 . S
C1897 C1901 1.429 . S
C1898 C1881 1.574 . S
C1898 H1892 0.949 . S
C1898 C1902 1.368 . S
C1899 C1880 1.429 . S
C1899 C1893 1.429 . S
C1899 C1900 1.523 . S
C1900 C1881 1.368 . S
C1900 C1894 1.368 . S
C1900 C1899 1.523 . S
C1901 C1885 1.429 . S
C1901 C1897 1.429 . S
C1901 C1902 1.523 . S
C1902 C1886 1.368 . S
C1902 C1898 1.368 . S
C1902 C1901 1.523 . S
H1903 C1878 0.950 . S
H1904 C1880 0.950 . S
H1905 C1881 0.949 . S
H1906 C1883 0.950 . S
H1907 C1885 0.950 . S
C1908 C1909 1.349 . S
C1908 C1910 1.327 . S
C1908 H1933 0.950 . S
C1909 C1908 1.349 . S
C1909 C1925 1.349 . S
C1910 C1908 1.327 . S
C1910 C1929 1.429 . S
C1910 H1934 0.950 . S
C1911 C1928 1.574 . S
C1911 C1930 1.368 . S
C1911 H1935 0.949 . S
H1912 C1916 0.949 . S
C1913 C1914 1.349 . S
C1913 C1915 1.327 . S
C1913 H1936 0.950 . S
C1914 C1913 1.349 . S
C1914 C1926 1.349 . S
C1915 C1913 1.327 . S
C1915 C1931 1.429 . S
C1915 H1937 0.950 . S
C1916 H1912 0.949 . S
C1916 C1924 1.574 . S
C1916 C1932 1.368 . S
H1917 C1925 0.950 . S
H1918 C1923 0.950 . S
H1919 C1924 0.949 . S
H1920 C1926 0.950 . S
H1921 C1927 0.950 . S
H1922 C1928 0.949 . S
C1923 H1918 0.950 . S
C1923 C1925 1.327 . S
C1923 C1929 1.429 . S
C1924 C1916 1.574 . S
C1924 H1919 0.949 . S
C1924 C1930 1.368 . S
C1925 C1909 1.349 . S
C1925 H1917 0.950 . S
C1925 C1923 1.327 . S
C1926 C1914 1.349 . S
C1926 H1920 0.950 . S
C1926 C1927 1.327 . S
C1927 H1921 0.950 . S
C1927 C1926 1.327 . S
C1927 C1931 1.429 . S
C1928 C1911 1.574 . S
C1928 H1922 0.949 . S
C1928 C1932 1.368 . S
C1929 C1910 1.429 . S
C1929 C1923 1.429 . S
C1929 C1930 1.523 . S
C1930 C1911 1.368 . S
C1930 C1924 1.368 . S
C1930 C1929 1.523 . S
C1931 C1915 1.429 . S
C1931 C1927 1.429 . S
C1931 C1932 1.523 . S
C1932 C1916 1.368 . S
C1932 C1928 1.368 . S
C1932 C1931 1.523 . S
H1933 C1908 0.950 . S
H1934 C1910 0.950 . S
H1935 C1911 0.949 . S
H1936 C1913 0.950 . S
H1937 C1915 0.950 . S
C1938 C1939 1.349 . S
C1938 C1940 1.327 . S
C1938 H1963 0.950 . S
C1939 C1938 1.349 . S
C1939 C1955 1.349 . S
C1940 C1938 1.327 . S
C1940 C1959 1.429 . S
C1940 H1964 0.950 . S
C1941 C1958 1.574 . S
C1941 C1960 1.368 . S
C1941 H1965 0.949 . S
H1942 C1946 0.949 . S
C1943 C1944 1.349 . S
C1943 C1945 1.327 . S
C1943 H1966 0.950 . S
C1944 C1943 1.349 . S
C1944 C1956 1.349 . S
C1945 C1943 1.327 . S
C1945 C1961 1.429 . S
C1945 H1967 0.950 . S
C1946 H1942 0.949 . S
C1946 C1954 1.574 . S
C1946 C1962 1.368 . S
H1947 C1955 0.950 . S
H1948 C1953 0.950 . S
H1949 C1954 0.949 . S
H1950 C1956 0.950 . S
H1951 C1957 0.950 . S
H1952 C1958 0.949 . S
C1953 H1948 0.950 . S
C1953 C1955 1.327 . S
C1953 C1959 1.429 . S
C1954 C1946 1.574 . S
C1954 H1949 0.949 . S
C1954 C1960 1.368 . S
C1955 C1939 1.349 . S
C1955 H1947 0.950 . S
C1955 C1953 1.327 . S
C1956 C1944 1.349 . S
C1956 H1950 0.950 . S
C1956 C1957 1.327 . S
C1957 H1951 0.950 . S
C1957 C1956 1.327 . S
C1957 C1961 1.429 . S
C1958 C1941 1.574 . S
C1958 H1952 0.949 . S
C1958 C1962 1.368 . S
C1959 C1940 1.429 . S
C1959 C1953 1.429 . S
C1959 C1960 1.523 . S
C1960 C1941 1.368 . S
C1960 C1954 1.368 . S
C1960 C1959 1.523 . S
C1961 C1945 1.429 . S
C1961 C1957 1.429 . S
C1961 C1962 1.523 . S
C1962 C1946 1.368 . S
C1962 C1958 1.368 . S
C1962 C1961 1.523 . S
H1963 C1938 0.950 . S
H1964 C1940 0.950 . S
H1965 C1941 0.949 . S
H1966 C1943 0.950 . S
H1967 C1945 0.950 . S
C1968 C1969 1.349 . S
C1968 C1970 1.327 . S
C1968 H1993 0.950 . S
C1969 C1968 1.349 . S
C1969 C1985 1.349 . S
C1970 C1968 1.327 . S
C1970 C1989 1.429 . S
C1970 H1994 0.950 . S
C1971 C1988 1.574 . S
C1971 C1990 1.368 . S
C1971 H1995 0.949 . S
H1972 C1976 0.949 . S
C1973 C1974 1.349 . S
C1973 C1975 1.327 . S
C1973 H1996 0.950 . S
C1974 C1973 1.349 . S
C1974 C1986 1.349 . S
C1975 C1973 1.327 . S
C1975 C1991 1.429 . S
C1975 H1997 0.950 . S
C1976 H1972 0.949 . S
C1976 C1984 1.574 . S
C1976 C1992 1.368 . S
H1977 C1985 0.950 . S
H1978 C1983 0.950 . S
H1979 C1984 0.949 . S
H1980 C1986 0.950 . S
H1981 C1987 0.950 . S
H1982 C1988 0.949 . S
C1983 H1978 0.950 . S
C1983 C1985 1.327 . S
C1983 C1989 1.429 . S
C1984 C1976 1.574 . S
C1984 H1979 0.949 . S
C1984 C1990 1.368 . S
C1985 C1969 1.349 . S
C1985 H1977 0.950 . S
C1985 C1983 1.327 . S
C1986 C1974 1.349 . S
C1986 H1980 0.950 . S
C1986 C1987 1.327 . S
C1987 H1981 0.950 . S
C1987 C1986 1.327 . S
C1987 C1991 1.429 . S
C1988 C1971 1.574 . S
C1988 H1982 0.949 . S
C1988 C1992 1.368 . S
C1989 C1970 1.429 . S
C1989 C1983 1.429 . S
C1989 C1990 1.523 . S
C1990 C1971 1.368 . S
C1990 C1984 1.368 . S
C1990 C1989 1.523 . S
C1991 C1975 1.429 . S
C1991 C1987 1.429 . S
C1991 C1992 1.523 . S
C1992 C1976 1.368 . S
C1992 C1988 1.368 . S
C1992 C1991 1.523 . S
H1993 C1968 0.950 . S
H1994 C1970 0.950 . S
H1995 C1971 0.949 . S
H1996 C1973 0.950 . S
H1997 C1975 0.950 . S
C1998 C1999 1.349 . S
C1998 C2000 1.327 . S
C1998 H2023 0.950 . S
C1999 C1998 1.349 . S
C1999 C2015 1.349 . S
C2000 C1998 1.327 . S
C2000 C2019 1.429 . S
C2000 H2024 0.950 . S
C2001 C2018 1.574 . S
C2001 C2020 1.368 . S
C2001 H2025 0.949 . S
H2002 C2006 0.949 . S
C2003 C2004 1.349 . S
C2003 C2005 1.327 . S
C2003 H2026 0.950 . S
C2004 C2003 1.349 . S
C2004 C2016 1.349 . S
C2005 C2003 1.327 . S
C2005 C2021 1.429 . S
C2005 H2027 0.950 . S
C2006 H2002 0.949 . S
C2006 C2014 1.574 . S
C2006 C2022 1.368 . S
H2007 C2015 0.950 . S
H2008 C2013 0.950 . S
H2009 C2014 0.949 . S
H2010 C2016 0.950 . S
H2011 C2017 0.950 . S
H2012 C2018 0.949 . S
C2013 H2008 0.950 . S
C2013 C2015 1.327 . S
C2013 C2019 1.429 . S
C2014 C2006 1.574 . S
C2014 H2009 0.949 . S
C2014 C2020 1.368 . S
C2015 C1999 1.349 . S
C2015 H2007 0.950 . S
C2015 C2013 1.327 . S
C2016 C2004 1.349 . S
C2016 H2010 0.950 . S
C2016 C2017 1.327 . S
C2017 H2011 0.950 . S
C2017 C2016 1.327 . S
C2017 C2021 1.429 . S
C2018 C2001 1.574 . S
C2018 H2012 0.949 . S
C2018 C2022 1.368 . S
C2019 C2000 1.429 . S
C2019 C2013 1.429 . S
C2019 C2020 1.523 . S
C2020 C2001 1.368 . S
C2020 C2014 1.368 . S
C2020 C2019 1.523 . S
C2021 C2005 1.429 . S
C2021 C2017 1.429 . S
C2021 C2022 1.523 . S
C2022 C2006 1.368 . S
C2022 C2018 1.368 . S
C2022 C2021 1.523 . S
H2023 C1998 0.950 . S
H2024 C2000 0.950 . S
H2025 C2001 0.949 . S
H2026 C2003 0.950 . S
H2027 C2005 0.950 . S
C2028 C2029 1.349 . S
C2028 C2030 1.327 . S
C2028 H2053 0.950 . S
C2029 C2028 1.349 . S
C2029 C2045 1.349 . S
C2030 C2028 1.327 . S
C2030 C2049 1.429 . S
C2030 H2054 0.950 . S
C2031 C2048 1.574 . S
C2031 C2050 1.368 . S
C2031 H2055 0.949 . S
H2032 C2036 0.949 . S
C2033 C2034 1.349 . S
C2033 C2035 1.327 . S
C2033 H2056 0.950 . S
C2034 C2033 1.349 . S
C2034 C2046 1.349 . S
C2035 C2033 1.327 . S
C2035 C2051 1.429 . S
C2035 H2057 0.950 . S
C2036 H2032 0.949 . S
C2036 C2044 1.574 . S
C2036 C2052 1.368 . S
H2037 C2045 0.950 . S
H2038 C2043 0.950 . S
H2039 C2044 0.949 . S
H2040 C2046 0.950 . S
H2041 C2047 0.950 . S
H2042 C2048 0.949 . S
C2043 H2038 0.950 . S
C2043 C2045 1.327 . S
C2043 C2049 1.429 . S
C2044 C2036 1.574 . S
C2044 H2039 0.949 . S
C2044 C2050 1.368 . S
C2045 C2029 1.349 . S
C2045 H2037 0.950 . S
C2045 C2043 1.327 . S
C2046 C2034 1.349 . S
C2046 H2040 0.950 . S
C2046 C2047 1.327 . S
C2047 H2041 0.950 . S
C2047 C2046 1.327 . S
C2047 C2051 1.429 . S
C2048 C2031 1.574 . S
C2048 H2042 0.949 . S
C2048 C2052 1.368 . S
C2049 C2030 1.429 . S
C2049 C2043 1.429 . S
C2049 C2050 1.523 . S
C2050 C2031 1.368 . S
C2050 C2044 1.368 . S
C2050 C2049 1.523 . S
C2051 C2035 1.429 . S
C2051 C2047 1.429 . S
C2051 C2052 1.523 . S
C2052 C2036 1.368 . S
C2052 C2048 1.368 . S
C2052 C2051 1.523 . S
H2053 C2028 0.950 . S
H2054 C2030 0.950 . S
H2055 C2031 0.949 . S
H2056 C2033 0.950 . S
H2057 C2035 0.950 . S
C2058 C2059 1.349 . S
C2058 C2060 1.327 . S
C2058 H2083 0.950 . S
C2059 C2058 1.349 . S
C2059 C2075 1.349 . S
C2060 C2058 1.327 . S
C2060 C2079 1.429 . S
C2060 H2084 0.950 . S
C2061 C2078 1.574 . S
C2061 C2080 1.368 . S
C2061 H2085 0.949 . S
H2062 C2066 0.949 . S
C2063 C2064 1.349 . S
C2063 C2065 1.327 . S
C2063 H2086 0.950 . S
C2064 C2063 1.349 . S
C2064 C2076 1.349 . S
C2065 C2063 1.327 . S
C2065 C2081 1.429 . S
C2065 H2087 0.950 . S
C2066 H2062 0.949 . S
C2066 C2074 1.574 . S
C2066 C2082 1.368 . S
H2067 C2075 0.950 . S
H2068 C2073 0.950 . S
H2069 C2074 0.949 . S
H2070 C2076 0.950 . S
H2071 C2077 0.950 . S
H2072 C2078 0.949 . S
C2073 H2068 0.950 . S
C2073 C2075 1.327 . S
C2073 C2079 1.429 . S
C2074 C2066 1.574 . S
C2074 H2069 0.949 . S
C2074 C2080 1.368 . S
C2075 C2059 1.349 . S
C2075 H2067 0.950 . S
C2075 C2073 1.327 . S
C2076 C2064 1.349 . S
C2076 H2070 0.950 . S
C2076 C2077 1.327 . S
C2077 H2071 0.950 . S
C2077 C2076 1.327 . S
C2077 C2081 1.429 . S
C2078 C2061 1.574 . S
C2078 H2072 0.949 . S
C2078 C2082 1.368 . S
C2079 C2060 1.429 . S
C2079 C2073 1.429 . S
C2079 C2080 1.523 . S
C2080 C2061 1.368 . S
C2080 C2074 1.368 . S
C2080 C2079 1.523 . S
C2081 C2065 1.429 . S
C2081 C2077 1.429 . S
C2081 C2082 1.523 . S
C2082 C2066 1.368 . S
C2082 C2078 1.368 . S
C2082 C2081 1.523 . S
H2083 C2058 0.950 . S
H2084 C2060 0.950 . S
H2085 C2061 0.949 . S
H2086 C2063 0.950 . S
H2087 C2065 0.950 . S
C2088 C2089 1.349 . S
C2088 C2090 1.327 . S
C2088 H2113 0.950 . S
C2089 C2088 1.349 . S
C2089 C2105 1.349 . S
C2090 C2088 1.327 . S
C2090 C2109 1.429 . S
C2090 H2114 0.950 . S
C2091 C2108 1.574 . S
C2091 C2110 1.368 . S
C2091 H2115 0.949 . S
H2092 C2096 0.949 . S
C2093 C2094 1.349 . S
C2093 C2095 1.327 . S
C2093 H2116 0.950 . S
C2094 C2093 1.349 . S
C2094 C2106 1.349 . S
C2095 C2093 1.327 . S
C2095 C2111 1.429 . S
C2095 H2117 0.950 . S
C2096 H2092 0.949 . S
C2096 C2104 1.574 . S
C2096 C2112 1.368 . S
H2097 C2105 0.950 . S
H2098 C2103 0.950 . S
H2099 C2104 0.949 . S
H2100 C2106 0.950 . S
H2101 C2107 0.950 . S
H2102 C2108 0.949 . S
C2103 H2098 0.950 . S
C2103 C2105 1.327 . S
C2103 C2109 1.429 . S
C2104 C2096 1.574 . S
C2104 H2099 0.949 . S
C2104 C2110 1.368 . S
C2105 C2089 1.349 . S
C2105 H2097 0.950 . S
C2105 C2103 1.327 . S
C2106 C2094 1.349 . S
C2106 H2100 0.950 . S
C2106 C2107 1.327 . S
C2107 H2101 0.950 . S
C2107 C2106 1.327 . S
C2107 C2111 1.429 . S
C2108 C2091 1.574 . S
C2108 H2102 0.949 . S
C2108 C2112 1.368 . S
C2109 C2090 1.429 . S
C2109 C2103 1.429 . S
C2109 C2110 1.523 . S
C2110 C2091 1.368 . S
C2110 C2104 1.368 . S
C2110 C2109 1.523 . S
C2111 C2095 1.429 . S
C2111 C2107 1.429 . S
C2111 C2112 1.523 . S
C2112 C2096 1.368 . S
C2112 C2108 1.368 . S
C2112 C2111 1.523 . S
H2113 C2088 0.950 . S
H2114 C2090 0.950 . S
H2115 C2091 0.949 . S
H2116 C2093 0.950 . S
H2117 C2095 0.950 . S
C2118 C2119 1.349 . S
C2118 C2120 1.327 . S
C2118 H2143 0.950 . S
C2119 C2118 1.349 . S
C2119 C2135 1.349 . S
C2120 C2118 1.327 . S
C2120 C2139 1.429 . S
C2120 H2144 0.950 . S
C2121 C2138 1.574 . S
C2121 C2140 1.368 . S
C2121 H2145 0.949 . S
H2122 C2126 0.949 . S
C2123 C2124 1.349 . S
C2123 C2125 1.327 . S
C2123 H2146 0.950 . S
C2124 C2123 1.349 . S
C2124 C2136 1.349 . S
C2125 C2123 1.327 . S
C2125 C2141 1.429 . S
C2125 H2147 0.950 . S
C2126 H2122 0.949 . S
C2126 C2134 1.574 . S
C2126 C2142 1.368 . S
H2127 C2135 0.950 . S
H2128 C2133 0.950 . S
H2129 C2134 0.949 . S
H2130 C2136 0.950 . S
H2131 C2137 0.950 . S
H2132 C2138 0.949 . S
C2133 H2128 0.950 . S
C2133 C2135 1.327 . S
C2133 C2139 1.429 . S
C2134 C2126 1.574 . S
C2134 H2129 0.949 . S
C2134 C2140 1.368 . S
C2135 C2119 1.349 . S
C2135 H2127 0.950 . S
C2135 C2133 1.327 . S
C2136 C2124 1.349 . S
C2136 H2130 0.950 . S
C2136 C2137 1.327 . S
C2137 H2131 0.950 . S
C2137 C2136 1.327 . S
C2137 C2141 1.429 . S
C2138 C2121 1.574 . S
C2138 H2132 0.949 . S
C2138 C2142 1.368 . S
C2139 C2120 1.429 . S
C2139 C2133 1.429 . S
C2139 C2140 1.523 . S
C2140 C2121 1.368 . S
C2140 C2134 1.368 . S
C2140 C2139 1.523 . S
C2141 C2125 1.429 . S
C2141 C2137 1.429 . S
C2141 C2142 1.523 . S
C2142 C2126 1.368 . S
C2142 C2138 1.368 . S
C2142 C2141 1.523 . S
H2143 C2118 0.950 . S
H2144 C2120 0.950 . S
H2145 C2121 0.949 . S
H2146 C2123 0.950 . S
H2147 C2125 0.950 . S
C2148 C2149 1.349 . S
C2148 C2150 1.327 . S
C2148 H2173 0.950 . S
C2149 C2148 1.349 . S
C2149 C2165 1.349 . S
C2150 C2148 1.327 . S
C2150 C2169 1.429 . S
C2150 H2174 0.950 . S
C2151 C2168 1.574 . S
C2151 C2170 1.368 . S
C2151 H2175 0.949 . S
H2152 C2156 0.949 . S
C2153 C2154 1.349 . S
C2153 C2155 1.327 . S
C2153 H2176 0.950 . S
C2154 C2153 1.349 . S
C2154 C2166 1.349 . S
C2155 C2153 1.327 . S
C2155 C2171 1.429 . S
C2155 H2177 0.950 . S
C2156 H2152 0.949 . S
C2156 C2164 1.574 . S
C2156 C2172 1.368 . S
H2157 C2165 0.950 . S
H2158 C2163 0.950 . S
H2159 C2164 0.949 . S
H2160 C2166 0.950 . S
H2161 C2167 0.950 . S
H2162 C2168 0.949 . S
C2163 H2158 0.950 . S
C2163 C2165 1.327 . S
C2163 C2169 1.429 . S
C2164 C2156 1.574 . S
C2164 H2159 0.949 . S
C2164 C2170 1.368 . S
C2165 C2149 1.349 . S
C2165 H2157 0.950 . S
C2165 C2163 1.327 . S
C2166 C2154 1.349 . S
C2166 H2160 0.950 . S
C2166 C2167 1.327 . S
C2167 H2161 0.950 . S
C2167 C2166 1.327 . S
C2167 C2171 1.429 . S
C2168 C2151 1.574 . S
C2168 H2162 0.949 . S
C2168 C2172 1.368 . S
C2169 C2150 1.429 . S
C2169 C2163 1.429 . S
C2169 C2170 1.523 . S
C2170 C2151 1.368 . S
C2170 C2164 1.368 . S
C2170 C2169 1.523 . S
C2171 C2155 1.429 . S
C2171 C2167 1.429 . S
C2171 C2172 1.523 . S
C2172 C2156 1.368 . S
C2172 C2168 1.368 . S
C2172 C2171 1.523 . S
H2173 C2148 0.950 . S
H2174 C2150 0.950 . S
H2175 C2151 0.949 . S
H2176 C2153 0.950 . S
H2177 C2155 0.950 . S
C2178 C2179 1.349 . S
C2178 C2180 1.327 . S
C2178 H2203 0.950 . S
C2179 C2178 1.349 . S
C2179 C2195 1.349 . S
C2180 C2178 1.327 . S
C2180 C2199 1.429 . S
C2180 H2204 0.950 . S
C2181 C2198 1.574 . S
C2181 C2200 1.368 . S
C2181 H2205 0.949 . S
H2182 C2186 0.949 . S
C2183 C2184 1.349 . S
C2183 C2185 1.327 . S
C2183 H2206 0.950 . S
C2184 C2183 1.349 . S
C2184 C2196 1.349 . S
C2185 C2183 1.327 . S
C2185 C2201 1.429 . S
C2185 H2207 0.950 . S
C2186 H2182 0.949 . S
C2186 C2194 1.574 . S
C2186 C2202 1.368 . S
H2187 C2195 0.950 . S
H2188 C2193 0.950 . S
H2189 C2194 0.949 . S
H2190 C2196 0.950 . S
H2191 C2197 0.950 . S
H2192 C2198 0.949 . S
C2193 H2188 0.950 . S
C2193 C2195 1.327 . S
C2193 C2199 1.429 . S
C2194 C2186 1.574 . S
C2194 H2189 0.949 . S
C2194 C2200 1.368 . S
C2195 C2179 1.349 . S
C2195 H2187 0.950 . S
C2195 C2193 1.327 . S
C2196 C2184 1.349 . S
C2196 H2190 0.950 . S
C2196 C2197 1.327 . S
C2197 H2191 0.950 . S
C2197 C2196 1.327 . S
C2197 C2201 1.429 . S
C2198 C2181 1.574 . S
C2198 H2192 0.949 . S
C2198 C2202 1.368 . S
C2199 C2180 1.429 . S
C2199 C2193 1.429 . S
C2199 C2200 1.523 . S
C2200 C2181 1.368 . S
C2200 C2194 1.368 . S
C2200 C2199 1.523 . S
C2201 C2185 1.429 . S
C2201 C2197 1.429 . S
C2201 C2202 1.523 . S
C2202 C2186 1.368 . S
C2202 C2198 1.368 . S
C2202 C2201 1.523 . S
H2203 C2178 0.950 . S
H2204 C2180 0.950 . S
H2205 C2181 0.949 . S
H2206 C2183 0.950 . S
H2207 C2185 0.950 . S
C2208 C2209 1.349 . S
C2208 C2210 1.327 . S
C2208 H2233 0.950 . S
C2209 C2208 1.349 . S
C2209 C2225 1.349 . S
C2210 C2208 1.327 . S
C2210 C2229 1.429 . S
C2210 H2234 0.950 . S
C2211 C2228 1.574 . S
C2211 C2230 1.368 . S
C2211 H2235 0.949 . S
H2212 C2216 0.949 . S
C2213 C2214 1.349 . S
C2213 C2215 1.327 . S
C2213 H2236 0.950 . S
C2214 C2213 1.349 . S
C2214 C2226 1.349 . S
C2215 C2213 1.327 . S
C2215 C2231 1.429 . S
C2215 H2237 0.950 . S
C2216 H2212 0.949 . S
C2216 C2224 1.574 . S
C2216 C2232 1.368 . S
H2217 C2225 0.950 . S
H2218 C2223 0.950 . S
H2219 C2224 0.949 . S
H2220 C2226 0.950 . S
H2221 C2227 0.950 . S
H2222 C2228 0.949 . S
C2223 H2218 0.950 . S
C2223 C2225 1.327 . S
C2223 C2229 1.429 . S
C2224 C2216 1.574 . S
C2224 H2219 0.949 . S
C2224 C2230 1.368 . S
C2225 C2209 1.349 . S
C2225 H2217 0.950 . S
C2225 C2223 1.327 . S
C2226 C2214 1.349 . S
C2226 H2220 0.950 . S
C2226 C2227 1.327 . S
C2227 H2221 0.950 . S
C2227 C2226 1.327 . S
C2227 C2231 1.429 . S
C2228 C2211 1.574 . S
C2228 H2222 0.949 . S
C2228 C2232 1.368 . S
C2229 C2210 1.429 . S
C2229 C2223 1.429 . S
C2229 C2230 1.523 . S
C2230 C2211 1.368 . S
C2230 C2224 1.368 . S
C2230 C2229 1.523 . S
C2231 C2215 1.429 . S
C2231 C2227 1.429 . S
C2231 C2232 1.523 . S
C2232 C2216 1.368 . S
C2232 C2228 1.368 . S
C2232 C2231 1.523 . S
H2233 C2208 0.950 . S
H2234 C2210 0.950 . S
H2235 C2211 0.949 . S
H2236 C2213 0.950 . S
H2237 C2215 0.950 . S
C2238 C2239 1.349 . S
C2238 C2240 1.327 . S
C2238 H2263 0.950 . S
C2239 C2238 1.349 . S
C2239 C2255 1.349 . S
C2240 C2238 1.327 . S
C2240 C2259 1.429 . S
C2240 H2264 0.950 . S
C2241 C2258 1.574 . S
C2241 C2260 1.368 . S
C2241 H2265 0.949 . S
H2242 C2246 0.949 . S
C2243 C2244 1.349 . S
C2243 C2245 1.327 . S
C2243 H2266 0.950 . S
C2244 C2243 1.349 . S
C2244 C2256 1.349 . S
C2245 C2243 1.327 . S
C2245 C2261 1.429 . S
C2245 H2267 0.950 . S
C2246 H2242 0.949 . S
C2246 C2254 1.574 . S
C2246 C2262 1.368 . S
H2247 C2255 0.950 . S
H2248 C2253 0.950 . S
H2249 C2254 0.949 . S
H2250 C2256 0.950 . S
H2251 C2257 0.950 . S
H2252 C2258 0.949 . S
C2253 H2248 0.950 . S
C2253 C2255 1.327 . S
C2253 C2259 1.429 . S
C2254 C2246 1.574 . S
C2254 H2249 0.949 . S
C2254 C2260 1.368 . S
C2255 C2239 1.349 . S
C2255 H2247 0.950 . S
C2255 C2253 1.327 . S
C2256 C2244 1.349 . S
C2256 H2250 0.950 . S
C2256 C2257 1.327 . S
C2257 H2251 0.950 . S
C2257 C2256 1.327 . S
C2257 C2261 1.429 . S
C2258 C2241 1.574 . S
C2258 H2252 0.949 . S
C2258 C2262 1.368 . S
C2259 C2240 1.429 . S
C2259 C2253 1.429 . S
C2259 C2260 1.523 . S
C2260 C2241 1.368 . S
C2260 C2254 1.368 . S
C2260 C2259 1.523 . S
C2261 C2245 1.429 . S
C2261 C2257 1.429 . S
C2261 C2262 1.523 . S
C2262 C2246 1.368 . S
C2262 C2258 1.368 . S
C2262 C2261 1.523 . S
H2263 C2238 0.950 . S
H2264 C2240 0.950 . S
H2265 C2241 0.949 . S
H2266 C2243 0.950 . S
H2267 C2245 0.950 . S
C2268 C2269 1.349 . S
C2268 C2270 1.327 . S
C2268 H2293 0.950 . S
C2269 C2268 1.349 . S
C2269 C2285 1.349 . S
C2270 C2268 1.327 . S
C2270 C2289 1.429 . S
C2270 H2294 0.950 . S
C2271 C2288 1.574 . S
C2271 C2290 1.368 . S
C2271 H2295 0.949 . S
H2272 C2276 0.949 . S
C2273 C2274 1.349 . S
C2273 C2275 1.327 . S
C2273 H2296 0.950 . S
C2274 C2273 1.349 . S
C2274 C2286 1.349 . S
C2275 C2273 1.327 . S
C2275 C2291 1.429 . S
C2275 H2297 0.950 . S
C2276 H2272 0.949 . S
C2276 C2284 1.574 . S
C2276 C2292 1.368 . S
H2277 C2285 0.950 . S
H2278 C2283 0.950 . S
H2279 C2284 0.949 . S
H2280 C2286 0.950 . S
H2281 C2287 0.950 . S
H2282 C2288 0.949 . S
C2283 H2278 0.950 . S
C2283 C2285 1.327 . S
C2283 C2289 1.429 . S
C2284 C2276 1.574 . S
C2284 H2279 0.949 . S
C2284 C2290 1.368 . S
C2285 C2269 1.349 . S
C2285 H2277 0.950 . S
C2285 C2283 1.327 . S
C2286 C2274 1.349 . S
C2286 H2280 0.950 . S
C2286 C2287 1.327 . S
C2287 H2281 0.950 . S
C2287 C2286 1.327 . S
C2287 C2291 1.429 . S
C2288 C2271 1.574 . S
C2288 H2282 0.949 . S
C2288 C2292 1.368 . S
C2289 C2270 1.429 . S
C2289 C2283 1.429 . S
C2289 C2290 1.523 . S
C2290 C2271 1.368 . S
C2290 C2284 1.368 . S
C2290 C2289 1.523 . S
C2291 C2275 1.429 . S
C2291 C2287 1.429 . S
C2291 C2292 1.523 . S
C2292 C2276 1.368 . S
C2292 C2288 1.368 . S
C2292 C2291 1.523 . S
H2293 C2268 0.950 . S
H2294 C2270 0.950 . S
H2295 C2271 0.949 . S
H2296 C2273 0.950 . S
H2297 C2275 0.950 . S
C2298 C2299 1.349 . S
C2298 C2300 1.327 . S
C2298 H2323 0.950 . S
C2299 C2298 1.349 . S
C2299 C2315 1.349 . S
C2300 C2298 1.327 . S
C2300 C2319 1.429 . S
C2300 H2324 0.950 . S
C2301 C2318 1.574 . S
C2301 C2320 1.368 . S
C2301 H2325 0.949 . S
H2302 C2306 0.949 . S
C2303 C2304 1.349 . S
C2303 C2305 1.327 . S
C2303 H2326 0.950 . S
C2304 C2303 1.349 . S
C2304 C2316 1.349 . S
C2305 C2303 1.327 . S
C2305 C2321 1.429 . S
C2305 H2327 0.950 . S
C2306 H2302 0.949 . S
C2306 C2314 1.574 . S
C2306 C2322 1.368 . S
H2307 C2315 0.950 . S
H2308 C2313 0.950 . S
H2309 C2314 0.949 . S
H2310 C2316 0.950 . S
H2311 C2317 0.950 . S
H2312 C2318 0.949 . S
C2313 H2308 0.950 . S
C2313 C2315 1.327 . S
C2313 C2319 1.429 . S
C2314 C2306 1.574 . S
C2314 H2309 0.949 . S
C2314 C2320 1.368 . S
C2315 C2299 1.349 . S
C2315 H2307 0.950 . S
C2315 C2313 1.327 . S
C2316 C2304 1.349 . S
C2316 H2310 0.950 . S
C2316 C2317 1.327 . S
C2317 H2311 0.950 . S
C2317 C2316 1.327 . S
C2317 C2321 1.429 . S
C2318 C2301 1.574 . S
C2318 H2312 0.949 . S
C2318 C2322 1.368 . S
C2319 C2300 1.429 . S
C2319 C2313 1.429 . S
C2319 C2320 1.523 . S
C2320 C2301 1.368 . S
C2320 C2314 1.368 . S
C2320 C2319 1.523 . S
C2321 C2305 1.429 . S
C2321 C2317 1.429 . S
C2321 C2322 1.523 . S
C2322 C2306 1.368 . S
C2322 C2318 1.368 . S
C2322 C2321 1.523 . S
H2323 C2298 0.950 . S
H2324 C2300 0.950 . S
H2325 C2301 0.949 . S
H2326 C2303 0.950 . S
H2327 C2305 0.950 . S
C2328 C2329 1.349 . S
C2328 C2330 1.327 . S
C2328 H2353 0.950 . S
C2329 C2328 1.349 . S
C2329 C2345 1.349 . S
C2330 C2328 1.327 . S
C2330 C2349 1.429 . S
C2330 H2354 0.950 . S
C2331 C2348 1.574 . S
C2331 C2350 1.368 . S
C2331 H2355 0.949 . S
H2332 C2336 0.949 . S
C2333 C2334 1.349 . S
C2333 C2335 1.327 . S
C2333 H2356 0.950 . S
C2334 C2333 1.349 . S
C2334 C2346 1.349 . S
C2335 C2333 1.327 . S
C2335 C2351 1.429 . S
C2335 H2357 0.950 . S
C2336 H2332 0.949 . S
C2336 C2344 1.574 . S
C2336 C2352 1.368 . S
H2337 C2345 0.950 . S
H2338 C2343 0.950 . S
H2339 C2344 0.949 . S
H2340 C2346 0.950 . S
H2341 C2347 0.950 . S
H2342 C2348 0.949 . S
C2343 H2338 0.950 . S
C2343 C2345 1.327 . S
C2343 C2349 1.429 . S
C2344 C2336 1.574 . S
C2344 H2339 0.949 . S
C2344 C2350 1.368 . S
C2345 C2329 1.349 . S
C2345 H2337 0.950 . S
C2345 C2343 1.327 . S
C2346 C2334 1.349 . S
C2346 H2340 0.950 . S
C2346 C2347 1.327 . S
C2347 H2341 0.950 . S
C2347 C2346 1.327 . S
C2347 C2351 1.429 . S
C2348 C2331 1.574 . S
C2348 H2342 0.949 . S
C2348 C2352 1.368 . S
C2349 C2330 1.429 . S
C2349 C2343 1.429 . S
C2349 C2350 1.523 . S
C2350 C2331 1.368 . S
C2350 C2344 1.368 . S
C2350 C2349 1.523 . S
C2351 C2335 1.429 . S
C2351 C2347 1.429 . S
C2351 C2352 1.523 . S
C2352 C2336 1.368 . S
C2352 C2348 1.368 . S
C2352 C2351 1.523 . S
H2353 C2328 0.950 . S
H2354 C2330 0.950 . S
H2355 C2331 0.949 . S
H2356 C2333 0.950 . S
H2357 C2335 0.950 . S
C2358 C2359 1.349 . S
C2358 C2360 1.327 . S
C2358 H2383 0.950 . S
C2359 C2358 1.349 . S
C2359 C2375 1.349 . S
C2360 C2358 1.327 . S
C2360 C2379 1.429 . S
C2360 H2384 0.950 . S
C2361 C2378 1.574 . S
C2361 C2380 1.368 . S
C2361 H2385 0.949 . S
H2362 C2366 0.949 . S
C2363 C2364 1.349 . S
C2363 C2365 1.327 . S
C2363 H2386 0.950 . S
C2364 C2363 1.349 . S
C2364 C2376 1.349 . S
C2365 C2363 1.327 . S
C2365 C2381 1.429 . S
C2365 H2387 0.950 . S
C2366 H2362 0.949 . S
C2366 C2374 1.574 . S
C2366 C2382 1.368 . S
H2367 C2375 0.950 . S
H2368 C2373 0.950 . S
H2369 C2374 0.949 . S
H2370 C2376 0.950 . S
H2371 C2377 0.950 . S
H2372 C2378 0.949 . S
C2373 H2368 0.950 . S
C2373 C2375 1.327 . S
C2373 C2379 1.429 . S
C2374 C2366 1.574 . S
C2374 H2369 0.949 . S
C2374 C2380 1.368 . S
C2375 C2359 1.349 . S
C2375 H2367 0.950 . S
C2375 C2373 1.327 . S
C2376 C2364 1.349 . S
C2376 H2370 0.950 . S
C2376 C2377 1.327 . S
C2377 H2371 0.950 . S
C2377 C2376 1.327 . S
C2377 C2381 1.429 . S
C2378 C2361 1.574 . S
C2378 H2372 0.949 . S
C2378 C2382 1.368 . S
C2379 C2360 1.429 . S
C2379 C2373 1.429 . S
C2379 C2380 1.523 . S
C2380 C2361 1.368 . S
C2380 C2374 1.368 . S
C2380 C2379 1.523 . S
C2381 C2365 1.429 . S
C2381 C2377 1.429 . S
C2381 C2382 1.523 . S
C2382 C2366 1.368 . S
C2382 C2378 1.368 . S
C2382 C2381 1.523 . S
H2383 C2358 0.950 . S
H2384 C2360 0.950 . S
H2385 C2361 0.949 . S
H2386 C2363 0.950 . S
H2387 C2365 0.950 . S
C2388 C2389 1.349 . S
C2388 C2390 1.327 . S
C2388 H2413 0.950 . S
C2389 C2388 1.349 . S
C2389 C2405 1.349 . S
C2390 C2388 1.327 . S
C2390 C2409 1.429 . S
C2390 H2414 0.950 . S
C2391 C2408 1.574 . S
C2391 C2410 1.368 . S
C2391 H2415 0.949 . S
H2392 C2396 0.949 . S
C2393 C2394 1.349 . S
C2393 C2395 1.327 . S
C2393 H2416 0.950 . S
C2394 C2393 1.349 . S
C2394 C2406 1.349 . S
C2395 C2393 1.327 . S
C2395 C2411 1.429 . S
C2395 H2417 0.950 . S
C2396 H2392 0.949 . S
C2396 C2404 1.574 . S
C2396 C2412 1.368 . S
H2397 C2405 0.950 . S
H2398 C2403 0.950 . S
H2399 C2404 0.949 . S
H2400 C2406 0.950 . S
H2401 C2407 0.950 . S
H2402 C2408 0.949 . S
C2403 H2398 0.950 . S
C2403 C2405 1.327 . S
C2403 C2409 1.429 . S
C2404 C2396 1.574 . S
C2404 H2399 0.949 . S
C2404 C2410 1.368 . S
C2405 C2389 1.349 . S
C2405 H2397 0.950 . S
C2405 C2403 1.327 . S
C2406 C2394 1.349 . S
C2406 H2400 0.950 . S
C2406 C2407 1.327 . S
C2407 H2401 0.950 . S
C2407 C2406 1.327 . S
C2407 C2411 1.429 . S
C2408 C2391 1.574 . S
C2408 H2402 0.949 . S
C2408 C2412 1.368 . S
C2409 C2390 1.429 . S
C2409 C2403 1.429 . S
C2409 C2410 1.523 . S
C2410 C2391 1.368 . S
C2410 C2404 1.368 . S
C2410 C2409 1.523 . S
C2411 C2395 1.429 . S
C2411 C2407 1.429 . S
C2411 C2412 1.523 . S
C2412 C2396 1.368 . S
C2412 C2408 1.368 . S
C2412 C2411 1.523 . S
H2413 C2388 0.950 . S
H2414 C2390 0.950 . S
H2415 C2391 0.949 . S
H2416 C2393 0.950 . S
H2417 C2395 0.950 . S
C2418 C2419 1.349 . S
C2418 C2420 1.327 . S
C2418 H2443 0.950 . S
C2419 C2418 1.349 . S
C2419 C2435 1.349 . S
C2420 C2418 1.327 . S
C2420 C2439 1.429 . S
C2420 H2444 0.950 . S
C2421 C2438 1.574 . S
C2421 C2440 1.368 . S
C2421 H2445 0.949 . S
H2422 C2426 0.949 . S
C2423 C2424 1.349 . S
C2423 C2425 1.327 . S
C2423 H2446 0.950 . S
C2424 C2423 1.349 . S
C2424 C2436 1.349 . S
C2425 C2423 1.327 . S
C2425 C2441 1.429 . S
C2425 H2447 0.950 . S
C2426 H2422 0.949 . S
C2426 C2434 1.574 . S
C2426 C2442 1.368 . S
H2427 C2435 0.950 . S
H2428 C2433 0.950 . S
H2429 C2434 0.949 . S
H2430 C2436 0.950 . S
H2431 C2437 0.950 . S
H2432 C2438 0.949 . S
C2433 H2428 0.950 . S
C2433 C2435 1.327 . S
C2433 C2439 1.429 . S
C2434 C2426 1.574 . S
C2434 H2429 0.949 . S
C2434 C2440 1.368 . S
C2435 C2419 1.349 . S
C2435 H2427 0.950 . S
C2435 C2433 1.327 . S
C2436 C2424 1.349 . S
C2436 H2430 0.950 . S
C2436 C2437 1.327 . S
C2437 H2431 0.950 . S
C2437 C2436 1.327 . S
C2437 C2441 1.429 . S
C2438 C2421 1.574 . S
C2438 H2432 0.949 . S
C2438 C2442 1.368 . S
C2439 C2420 1.429 . S
C2439 C2433 1.429 . S
C2439 C2440 1.523 . S
C2440 C2421 1.368 . S
C2440 C2434 1.368 . S
C2440 C2439 1.523 . S
C2441 C2425 1.429 . S
C2441 C2437 1.429 . S
C2441 C2442 1.523 . S
C2442 C2426 1.368 . S
C2442 C2438 1.368 . S
C2442 C2441 1.523 . S
H2443 C2418 0.950 . S
H2444 C2420 0.950 . S
H2445 C2421 0.949 . S
H2446 C2423 0.950 . S
H2447 C2425 0.950 . S
C2448 C2449 1.349 . S
C2448 C2450 1.327 . S
C2448 H2473 0.950 . S
C2449 C2448 1.349 . S
C2449 C2465 1.349 . S
C2450 C2448 1.327 . S
C2450 C2469 1.429 . S
C2450 H2474 0.950 . S
C2451 C2468 1.574 . S
C2451 C2470 1.368 . S
C2451 H2475 0.949 . S
H2452 C2456 0.949 . S
C2453 C2454 1.349 . S
C2453 C2455 1.327 . S
C2453 H2476 0.950 . S
C2454 C2453 1.349 . S
C2454 C2466 1.349 . S
C2455 C2453 1.327 . S
C2455 C2471 1.429 . S
C2455 H2477 0.950 . S
C2456 H2452 0.949 . S
C2456 C2464 1.574 . S
C2456 C2472 1.368 . S
H2457 C2465 0.950 . S
H2458 C2463 0.950 . S
H2459 C2464 0.949 . S
H2460 C2466 0.950 . S
H2461 C2467 0.950 . S
H2462 C2468 0.949 . S
C2463 H2458 0.950 . S
C2463 C2465 1.327 . S
C2463 C2469 1.429 . S
C2464 C2456 1.574 . S
C2464 H2459 0.949 . S
C2464 C2470 1.368 . S
C2465 C2449 1.349 . S
C2465 H2457 0.950 . S
C2465 C2463 1.327 . S
C2466 C2454 1.349 . S
C2466 H2460 0.950 . S
C2466 C2467 1.327 . S
C2467 H2461 0.950 . S
C2467 C2466 1.327 . S
C2467 C2471 1.429 . S
C2468 C2451 1.574 . S
C2468 H2462 0.949 . S
C2468 C2472 1.368 . S
C2469 C2450 1.429 . S
C2469 C2463 1.429 . S
C2469 C2470 1.523 . S
C2470 C2451 1.368 . S
C2470 C2464 1.368 . S
C2470 C2469 1.523 . S
C2471 C2455 1.429 . S
C2471 C2467 1.429 . S
C2471 C2472 1.523 . S
C2472 C2456 1.368 . S
C2472 C2468 1.368 . S
C2472 C2471 1.523 . S
H2473 C2448 0.950 . S
H2474 C2450 0.950 . S
H2475 C2451 0.949 . S
H2476 C2453 0.950 . S
H2477 C2455 0.950 . S
C2478 C2479 1.349 . S
C2478 C2480 1.327 . S
C2478 H2503 0.950 . S
C2479 C2478 1.349 . S
C2479 C2495 1.349 . S
C2480 C2478 1.327 . S
C2480 C2499 1.429 . S
C2480 H2504 0.950 . S
C2481 C2498 1.574 . S
C2481 C2500 1.368 . S
C2481 H2505 0.949 . S
H2482 C2486 0.949 . S
C2483 C2484 1.349 . S
C2483 C2485 1.327 . S
C2483 H2506 0.950 . S
C2484 C2483 1.349 . S
C2484 C2496 1.349 . S
C2485 C2483 1.327 . S
C2485 C2501 1.429 . S
C2485 H2507 0.950 . S
C2486 H2482 0.949 . S
C2486 C2494 1.574 . S
C2486 C2502 1.368 . S
H2487 C2495 0.950 . S
H2488 C2493 0.950 . S
H2489 C2494 0.949 . S
H2490 C2496 0.950 . S
H2491 C2497 0.950 . S
H2492 C2498 0.949 . S
C2493 H2488 0.950 . S
C2493 C2495 1.327 . S
C2493 C2499 1.429 . S
C2494 C2486 1.574 . S
C2494 H2489 0.949 . S
C2494 C2500 1.368 . S
C2495 C2479 1.349 . S
C2495 H2487 0.950 . S
C2495 C2493 1.327 . S
C2496 C2484 1.349 . S
C2496 H2490 0.950 . S
C2496 C2497 1.327 . S
C2497 H2491 0.950 . S
C2497 C2496 1.327 . S
C2497 C2501 1.429 . S
C2498 C2481 1.574 . S
C2498 H2492 0.949 . S
C2498 C2502 1.368 . S
C2499 C2480 1.429 . S
C2499 C2493 1.429 . S
C2499 C2500 1.523 . S
C2500 C2481 1.368 . S
C2500 C2494 1.368 . S
C2500 C2499 1.523 . S
C2501 C2485 1.429 . S
C2501 C2497 1.429 . S
C2501 C2502 1.523 . S
C2502 C2486 1.368 . S
C2502 C2498 1.368 . S
C2502 C2501 1.523 . S
H2503 C2478 0.950 . S
H2504 C2480 0.950 . S
H2505 C2481 0.949 . S
H2506 C2483 0.950 . S
H2507 C2485 0.950 . S
C2508 C2509 1.349 . S
C2508 C2510 1.327 . S
C2508 H2533 0.950 . S
C2509 C2508 1.349 . S
C2509 C2525 1.349 . S
C2510 C2508 1.327 . S
C2510 C2529 1.429 . S
C2510 H2534 0.950 . S
C2511 C2528 1.574 . S
C2511 C2530 1.368 . S
C2511 H2535 0.949 . S
H2512 C2516 0.949 . S
C2513 C2514 1.349 . S
C2513 C2515 1.327 . S
C2513 H2536 0.950 . S
C2514 C2513 1.349 . S
C2514 C2526 1.349 . S
C2515 C2513 1.327 . S
C2515 C2531 1.429 . S
C2515 H2537 0.950 . S
C2516 H2512 0.949 . S
C2516 C2524 1.574 . S
C2516 C2532 1.368 . S
H2517 C2525 0.950 . S
H2518 C2523 0.950 . S
H2519 C2524 0.949 . S
H2520 C2526 0.950 . S
H2521 C2527 0.950 . S
H2522 C2528 0.949 . S
C2523 H2518 0.950 . S
C2523 C2525 1.327 . S
C2523 C2529 1.429 . S
C2524 C2516 1.574 . S
C2524 H2519 0.949 . S
C2524 C2530 1.368 . S
C2525 C2509 1.349 . S
C2525 H2517 0.950 . S
C2525 C2523 1.327 . S
C2526 C2514 1.349 . S
C2526 H2520 0.950 . S
C2526 C2527 1.327 . S
C2527 H2521 0.950 . S
C2527 C2526 1.327 . S
C2527 C2531 1.429 . S
C2528 C2511 1.574 . S
C2528 H2522 0.949 . S
C2528 C2532 1.368 . S
C2529 C2510 1.429 . S
C2529 C2523 1.429 . S
C2529 C2530 1.523 . S
C2530 C2511 1.368 . S
C2530 C2524 1.368 . S
C2530 C2529 1.523 . S
C2531 C2515 1.429 . S
C2531 C2527 1.429 . S
C2531 C2532 1.523 . S
C2532 C2516 1.368 . S
C2532 C2528 1.368 . S
C2532 C2531 1.523 . S
H2533 C2508 0.950 . S
H2534 C2510 0.950 . S
H2535 C2511 0.949 . S
H2536 C2513 0.950 . S
H2537 C2515 0.950 . S
C2538 C2539 1.349 . S
C2538 C2540 1.327 . S
C2538 H2563 0.950 . S
C2539 C2538 1.349 . S
C2539 C2555 1.349 . S
C2540 C2538 1.327 . S
C2540 C2559 1.429 . S
C2540 H2564 0.950 . S
C2541 C2558 1.574 . S
C2541 C2560 1.368 . S
C2541 H2565 0.949 . S
H2542 C2546 0.949 . S
C2543 C2544 1.349 . S
C2543 C2545 1.327 . S
C2543 H2566 0.950 . S
C2544 C2543 1.349 . S
C2544 C2556 1.349 . S
C2545 C2543 1.327 . S
C2545 C2561 1.429 . S
C2545 H2567 0.950 . S
C2546 H2542 0.949 . S
C2546 C2554 1.574 . S
C2546 C2562 1.368 . S
H2547 C2555 0.950 . S
H2548 C2553 0.950 . S
H2549 C2554 0.949 . S
H2550 C2556 0.950 . S
H2551 C2557 0.950 . S
H2552 C2558 0.949 . S
C2553 H2548 0.950 . S
C2553 C2555 1.327 . S
C2553 C2559 1.429 . S
C2554 C2546 1.574 . S
C2554 H2549 0.949 . S
C2554 C2560 1.368 . S
C2555 C2539 1.349 . S
C2555 H2547 0.950 . S
C2555 C2553 1.327 . S
C2556 C2544 1.349 . S
C2556 H2550 0.950 . S
C2556 C2557 1.327 . S
C2557 H2551 0.950 . S
C2557 C2556 1.327 . S
C2557 C2561 1.429 . S
C2558 C2541 1.574 . S
C2558 H2552 0.949 . S
C2558 C2562 1.368 . S
C2559 C2540 1.429 . S
C2559 C2553 1.429 . S
C2559 C2560 1.523 . S
C2560 C2541 1.368 . S
C2560 C2554 1.368 . S
C2560 C2559 1.523 . S
C2561 C2545 1.429 . S
C2561 C2557 1.429 . S
C2561 C2562 1.523 . S
C2562 C2546 1.368 . S
C2562 C2558 1.368 . S
C2562 C2561 1.523 . S
H2563 C2538 0.950 . S
H2564 C2540 0.950 . S
H2565 C2541 0.949 . S
H2566 C2543 0.950 . S
H2567 C2545 0.950 . S
C2568 C2569 1.349 . S
C2568 C2570 1.327 . S
C2568 H2593 0.950 . S
C2569 C2568 1.349 . S
C2569 C2585 1.349 . S
C2570 C2568 1.327 . S
C2570 C2589 1.429 . S
C2570 H2594 0.950 . S
C2571 C2588 1.574 . S
C2571 C2590 1.368 . S
C2571 H2595 0.949 . S
H2572 C2576 0.949 . S
C2573 C2574 1.349 . S
C2573 C2575 1.327 . S
C2573 H2596 0.950 . S
C2574 C2573 1.349 . S
C2574 C2586 1.349 . S
C2575 C2573 1.327 . S
C2575 C2591 1.429 . S
C2575 H2597 0.950 . S
C2576 H2572 0.949 . S
C2576 C2584 1.574 . S
C2576 C2592 1.368 . S
H2577 C2585 0.950 . S
H2578 C2583 0.950 . S
H2579 C2584 0.949 . S
H2580 C2586 0.950 . S
H2581 C2587 0.950 . S
H2582 C2588 0.949 . S
C2583 H2578 0.950 . S
C2583 C2585 1.327 . S
C2583 C2589 1.429 . S
C2584 C2576 1.574 . S
C2584 H2579 0.949 . S
C2584 C2590 1.368 . S
C2585 C2569 1.349 . S
C2585 H2577 0.950 . S
C2585 C2583 1.327 . S
C2586 C2574 1.349 . S
C2586 H2580 0.950 . S
C2586 C2587 1.327 . S
C2587 H2581 0.950 . S
C2587 C2586 1.327 . S
C2587 C2591 1.429 . S
C2588 C2571 1.574 . S
C2588 H2582 0.949 . S
C2588 C2592 1.368 . S
C2589 C2570 1.429 . S
C2589 C2583 1.429 . S
C2589 C2590 1.523 . S
C2590 C2571 1.368 . S
C2590 C2584 1.368 . S
C2590 C2589 1.523 . S
C2591 C2575 1.429 . S
C2591 C2587 1.429 . S
C2591 C2592 1.523 . S
C2592 C2576 1.368 . S
C2592 C2588 1.368 . S
C2592 C2591 1.523 . S
H2593 C2568 0.950 . S
H2594 C2570 0.950 . S
H2595 C2571 0.949 . S
H2596 C2573 0.950 . S
H2597 C2575 0.950 . S
C2598 C2599 1.349 . S
C2598 C2600 1.327 . S
C2598 H2623 0.950 . S
C2599 C2598 1.349 . S
C2599 C2615 1.349 . S
C2600 C2598 1.327 . S
C2600 C2619 1.429 . S
C2600 H2624 0.950 . S
C2601 C2618 1.574 . S
C2601 C2620 1.368 . S
C2601 H2625 0.949 . S
H2602 C2606 0.949 . S
C2603 C2604 1.349 . S
C2603 C2605 1.327 . S
C2603 H2626 0.950 . S
C2604 C2603 1.349 . S
C2604 C2616 1.349 . S
C2605 C2603 1.327 . S
C2605 C2621 1.429 . S
C2605 H2627 0.950 . S
C2606 H2602 0.949 . S
C2606 C2614 1.574 . S
C2606 C2622 1.368 . S
H2607 C2615 0.950 . S
H2608 C2613 0.950 . S
H2609 C2614 0.949 . S
H2610 C2616 0.950 . S
H2611 C2617 0.950 . S
H2612 C2618 0.949 . S
C2613 H2608 0.950 . S
C2613 C2615 1.327 . S
C2613 C2619 1.429 . S
C2614 C2606 1.574 . S
C2614 H2609 0.949 . S
C2614 C2620 1.368 . S
C2615 C2599 1.349 . S
C2615 H2607 0.950 . S
C2615 C2613 1.327 . S
C2616 C2604 1.349 . S
C2616 H2610 0.950 . S
C2616 C2617 1.327 . S
C2617 H2611 0.950 . S
C2617 C2616 1.327 . S
C2617 C2621 1.429 . S
C2618 C2601 1.574 . S
C2618 H2612 0.949 . S
C2618 C2622 1.368 . S
C2619 C2600 1.429 . S
C2619 C2613 1.429 . S
C2619 C2620 1.523 . S
C2620 C2601 1.368 . S
C2620 C2614 1.368 . S
C2620 C2619 1.523 . S
C2621 C2605 1.429 . S
C2621 C2617 1.429 . S
C2621 C2622 1.523 . S
C2622 C2606 1.368 . S
C2622 C2618 1.368 . S
C2622 C2621 1.523 . S
H2623 C2598 0.950 . S
H2624 C2600 0.950 . S
H2625 C2601 0.949 . S
H2626 C2603 0.950 . S
H2627 C2605 0.950 . S
C469 C10 1.126 . S
C474 C153 1.126 . S
C499 C127 1.125 . S
C504 C23 1.125 . S
C529 C140 1.126 . S
C534 C36 1.126 . S
C559 C49 1.126 . S
C564 C101 1.126 . S
C589 C62 1.126 . S
C594 C114 1.126 . S
C619 C75 1.125 . S
C624 C88 1.125 . S
C649 C166 1.125 . S
C654 C309 1.125 . S
C679 C283 1.126 . S
C684 C179 1.126 . S
C709 C192 1.126 . S
C714 C296 1.126 . S
C739 C205 1.125 . S
C744 C257 1.125 . S
C769 C218 1.126 . S
C774 C270 1.126 . S
C799 C231 1.126 . S
C804 C244 1.126 . S
C829 C322 1.125 . S
C834 C465 1.125 . S
C859 C335 1.125 . S
C864 C439 1.125 . S
C889 C452 1.126 . S
C894 C348 1.126 . S
C919 C361 1.125 . S
C924 C413 1.125 . S
C949 C426 1.126 . S
C954 C374 1.126 . S
C979 C400 1.126 . S
C984 C387 1.126 . S
C1009 C0 1.025 . S
C1014 C195 1.025 . S
C1039 C13 1.025 . S
C1044 C208 1.025 . S
C1069 C26 1.024 . S
C1074 C221 1.024 . S
C1099 C39 1.024 . S
C1104 C312 1.024 . S
C1129 C325 1.024 . S
C1134 C52 1.024 . S
C1159 C338 1.025 . S
C1164 C65 1.025 . S
C1189 C78 1.025 . S
C1194 C429 1.025 . S
C1219 C442 1.024 . S
C1224 C91 1.024 . S
C1249 C104 1.024 . S
C1254 C455 1.024 . S
C1279 C117 1.025 . S
C1284 C234 1.025 . S
C1309 C130 1.024 . S
C1314 C247 1.024 . S
C1339 C143 1.024 . S
C1344 C260 1.024 . S
C1369 C351 1.025 . S
C1374 C156 1.025 . S
C1399 C169 1.024 . S
C1404 C364 1.024 . S
C1429 C182 1.024 . S
C1434 C377 1.024 . S
C1459 C390 1.024 . S
C1464 C273 1.024 . S
C1489 C403 1.025 . S
C1494 C286 1.025 . S
C1519 C299 1.025 . S
C1524 C416 1.025 . S
C1549 C5 1.285 . S
C1554 C57 1.285 . S
C1579 C70 1.284 . S
C1584 C18 1.284 . S
C1609 C44 1.285 . S
C1614 C31 1.285 . S
C1639 C83 1.285 . S
C1644 C135 1.285 . S
C1669 C148 1.284 . S
C1674 C96 1.284 . S
C1699 C109 1.285 . S
C1704 C122 1.285 . S
C1729 C213 1.285 . S
C1734 C161 1.285 . S
C1759 C174 1.285 . S
C1764 C226 1.285 . S
C1789 C187 1.285 . S
C1794 C200 1.285 . S
C1819 C291 1.285 . S
C1824 C239 1.285 . S
C1849 C304 1.284 . S
C1854 C252 1.284 . S
C1879 C278 1.285 . S
C1884 C265 1.285 . S
C1909 C317 1.285 . S
C1914 C369 1.285 . S
C1939 C330 1.285 . S
C1944 C382 1.285 . S
C1969 C343 1.284 . S
C1974 C356 1.284 . S
C1999 C447 1.285 . S
C2004 C395 1.285 . S
C2029 C460 1.284 . S
C2034 C408 1.284 . S
C2059 C434 1.284 . S
C2064 C421 1.284 . S
C2089 C125 1.330 . S
C2094 C8 1.338 . S
C2119 C138 1.346 . S
C2124 C21 1.330 . S
C2149 C34 1.331 . S
C2154 C151 1.331 . S
C2179 C47 1.338 . S
C2184 C86 1.330 . S
C2209 C99 1.330 . S
C2214 C60 1.330 . S
C2239 C73 1.330 . S
C2244 C112 1.346 . S
C2269 C281 1.330 . S
C2274 C164 1.330 . S
C2299 C294 1.330 . S
C2304 C177 1.330 . S
C2329 C190 1.331 . S
C2334 C307 1.331 . S
C2359 C242 1.330 . S
C2364 C203 1.330 . S
C2389 C255 1.330 . S
C2394 C216 1.330 . S
C2419 C268 1.330 . S
C2424 C229 1.330 . S
C2449 C320 1.330 . S
C2454 C437 1.330 . S
C2479 C450 1.331 . S
C2484 C333 1.331 . S
C2509 C346 1.330 . S
C2514 C463 1.330 . S
C2539 C359 1.330 . S
C2544 C398 1.330 . S
C2569 C372 1.331 . S
C2574 C411 1.330 . S
C2599 C424 1.330 . S
C2604 C385 1.330 . S
