# Generated by pormake.
# Topology umf, (4)-cn, num edge types: 1
# Building blocks:
#     Node 0, Type 0, BuildingBlock: ICAMEG_clean_sbu_1, # of connection points: 4
#     Node 1, Type 0, BuildingBlock: ICAMEG_clean_sbu_1, # of connection points: 4
#     Node 2, Type 0, BuildingBlock: ICAMEG_clean_sbu_1, # of connection points: 4
#     Node 3, Type 0, BuildingBlock: ICAMEG_clean_sbu_1, # of connection points: 4
#     Node 4, Type 0, BuildingBlock: ICAMEG_clean_sbu_1, # of connection points: 4
#     Node 5, Type 0, BuildingBlock: ICAMEG_clean_sbu_1, # of connection points: 4
#     Node 6, Type 0, BuildingBlock: ICAMEG_clean_sbu_1, # of connection points: 4
#     Node 7, Type 0, BuildingBlock: ICAMEG_clean_sbu_1, # of connection points: 4
#     Edge 8, Type (0, 0), BuildingBlock: TEMPAE_clean_linker_10, # of connection points: 2
#     Edge 9, Type (0, 0), BuildingBlock: TEMPAE_clean_linker_10, # of connection points: 2
#     Edge 10, Type (0, 0), BuildingBlock: TEMPAE_clean_linker_10, # of connection points: 2
#     Edge 11, Type (0, 0), BuildingBlock: TEMPAE_clean_linker_10, # of connection points: 2
#     Edge 12, Type (0, 0), BuildingBlock: TEMPAE_clean_linker_10, # of connection points: 2
#     Edge 13, Type (0, 0), BuildingBlock: TEMPAE_clean_linker_10, # of connection points: 2
#     Edge 14, Type (0, 0), BuildingBlock: TEMPAE_clean_linker_10, # of connection points: 2
#     Edge 15, Type (0, 0), BuildingBlock: TEMPAE_clean_linker_10, # of connection points: 2
#     Edge 16, Type (0, 0), BuildingBlock: TEMPAE_clean_linker_10, # of connection points: 2
#     Edge 17, Type (0, 0), BuildingBlock: TEMPAE_clean_linker_10, # of connection points: 2
#     Edge 18, Type (0, 0), BuildingBlock: TEMPAE_clean_linker_10, # of connection points: 2
#     Edge 19, Type (0, 0), BuildingBlock: TEMPAE_clean_linker_10, # of connection points: 2
#     Edge 20, Type (0, 0), BuildingBlock: TEMPAE_clean_linker_10, # of connection points: 2
#     Edge 21, Type (0, 0), BuildingBlock: TEMPAE_clean_linker_10, # of connection points: 2
#     Edge 22, Type (0, 0), BuildingBlock: TEMPAE_clean_linker_10, # of connection points: 2
#     Edge 23, Type (0, 0), BuildingBlock: TEMPAE_clean_linker_10, # of connection points: 2
# Relax obj value: 0.112
# Max RMSD: 0.202
# Mean RMSD: 0.202
data_MOF--net-umf--node1-ICAMEG_clean_sbu_1--edge1-TEMPAE_clean_linker_10
_symmetry_space_group_name_H-M    P1
_symmetry_Int_Tables_number       1
_symmetry_cell_setting            triclinic
loop_
_symmetry_equiv_pos_as_xyz
'x, y, z'
_cell_length_a     30.189659
_cell_length_b     30.168013
_cell_length_c     57.507599
_cell_angle_alpha  90.024689
_cell_angle_beta   89.989471
_cell_angle_gamma 89.999329
loop_
_atom_site_label
_atom_site_type_symbol
_atom_site_fract_x
_atom_site_fract_y
_atom_site_fract_z
_atom_type_partial_charge
Co0 Co 0.09236 0.23428 0.13349 0.0
Co1 Co -0.00115 0.24079 0.16805 0.0
O2 O 0.03621 0.26095 0.14254 0.0
C3 C 0.0353 0.22575 0.09228 0.0
O4 O 0.00533 0.21027 0.10666 0.0
C5 C 0.02261 0.33225 0.17898 0.0
O6 O 0.06323 0.32075 0.17358 0.0
O7 O 0.05052 0.23454 0.18906 0.0
O8 O 0.11172 0.2298 0.16685 0.0
H9 H 0.95496 0.14133 0.23424 0.0
H10 H 0.06382 0.31843 0.11141 0.0
O11 O 0.07316 0.23766 0.09996 0.0
H12 H 0.20542 0.35274 0.15018 0.0
H13 H 0.2265 0.21812 0.08223 0.0
H14 H 0.14797 0.16046 0.15108 0.0
H15 H 0.17431 0.27716 0.15166 0.0
H16 H 0.15587 0.25149 0.09491 0.0
O17 O 0.99146 0.30381 0.17829 0.0
H18 H 0.00205 0.16642 0.20177 0.0
H19 H 0.91518 0.27448 0.18909 0.0
H20 H 0.21866 0.12633 0.13913 0.0
H21 H 0.09401 0.39429 0.10924 0.0
H22 H 0.25841 0.15519 0.10447 0.0
H23 H 0.16518 0.41189 0.12882 0.0
O24 O 0.0672 0.1735 0.13564 0.0
H25 H 0.90322 0.31776 0.10904 0.0
H26 H 0.92305 0.18208 0.1557 0.0
H27 H 0.85974 0.18758 0.12873 0.0
H28 H 0.84951 0.25582 0.10519 0.0
H29 H 0.96625 0.31073 0.13608 0.0
H30 H 0.86727 0.25074 0.22155 0.0
H31 H 0.88698 0.18361 0.24431 0.0
O32 O 0.00654 0.17789 0.15828 0.0
C33 C 0.09221 0.22956 0.1866 0.0
C34 C 0.94591 0.17054 0.2244 0.0
C35 C 0.89674 0.23199 0.2173 0.0
N36 N 0.96116 0.22165 0.19344 0.0
C37 C 0.97238 0.18483 0.20595 0.0
C38 C 0.92403 0.24532 0.19897 0.0
C39 C 0.90782 0.19431 0.23006 0.0
C40 C 0.09509 0.3257 0.11973 0.0
N41 N 0.11742 0.29336 0.13153 0.0
C42 C 0.11194 0.36875 0.11851 0.0
C43 C 0.15183 0.37863 0.12954 0.0
C44 C 0.17439 0.34546 0.14155 0.0
C45 C 0.15657 0.30276 0.14238 0.0
C46 C 0.20954 0.20533 0.0974 0.0
C47 C 0.16524 0.1734 0.13607 0.0
C48 C 0.16952 0.22403 0.10463 0.0
N49 N 0.14807 0.20818 0.12383 0.0
C50 C 0.20517 0.15385 0.12935 0.0
C51 C 0.22744 0.17002 0.10989 0.0
C52 C 0.0343 0.15598 0.1461 0.0
C53 C 0.90724 0.28792 0.11927 0.0
C54 C 0.9188 0.21188 0.14551 0.0
C55 C 0.88287 0.21482 0.13029 0.0
C56 C 0.87715 0.25313 0.11709 0.0
N57 N 0.94812 0.24618 0.14757 0.0
C58 C 0.94274 0.28383 0.13468 0.0
Co59 Co 0.75839 0.09601 0.63286 0.0
Co60 Co 0.73643 0.0061 0.66843 0.0
O61 O 0.72176 0.0464 0.64301 0.0
C62 C 0.75042 0.03662 0.59236 0.0
O63 O 0.75389 0.00367 0.6071 0.0
C64 C 0.65238 0.04817 0.68129 0.0
O65 O 0.67025 0.08574 0.67469 0.0
O66 O 0.75544 0.05592 0.68863 0.0
O67 O 0.76711 0.11557 0.66594 0.0
H68 H 0.83144 0.94381 0.73229 0.0
H69 H 0.66971 0.08275 0.6119 0.0
O70 O 0.75127 0.07665 0.59953 0.0
H71 H 0.66419 0.2304 0.6486 0.0
H72 H 0.79898 0.22245 0.57991 0.0
H73 H 0.842 0.13684 0.64937 0.0
H74 H 0.73259 0.18571 0.64993 0.0
H75 H 0.75269 0.16034 0.59367 0.0
O76 O 0.67458 0.0123 0.6805 0.0
H77 H 0.8133 0.99437 0.69998 0.0
H78 H 0.68829 0.93188 0.69144 0.0
H79 H 0.88909 0.19887 0.63633 0.0
H80 H 0.60075 0.12647 0.60995 0.0
H81 H 0.86764 0.24214 0.60135 0.0
H82 H 0.59765 0.20078 0.62848 0.0
O83 O 0.81301 0.05971 0.63476 0.0
H84 H 0.63444 0.92712 0.61316 0.0
H85 H 0.77643 0.91924 0.65536 0.0
H86 H 0.75464 0.85774 0.62949 0.0
H87 H 0.68319 0.86148 0.60817 0.0
H88 H 0.65765 0.988 0.63906 0.0
H89 H 0.70492 0.88083 0.7238 0.0
H90 H 0.77702 0.88651 0.7444 0.0
O91 O 0.79842 -2e-05 0.65685 0.0
C92 C 0.76636 0.09638 0.68576 0.0
C93 C 0.79997 0.9409 0.7234 0.0
C94 C 0.72893 0.9056 0.71866 0.0
N95 N 0.74994 0.96583 0.69372 0.0
C96 C 0.78957 0.96934 0.70505 0.0
C97 C 0.71966 0.93464 0.70038 0.0
C98 C 0.7694 0.90879 0.7302 0.0
C99 C 0.66876 0.11528 0.61976 0.0
N100 N 0.70518 0.13179 0.63089 0.0
C101 C 0.62958 0.13981 0.61868 0.0
C102 C 0.62784 0.18147 0.62912 0.0
C103 C 0.66515 0.19809 0.64043 0.0
C104 C 0.70375 0.17261 0.64117 0.0
C105 C 0.80861 0.20392 0.59521 0.0
C106 C 0.83229 0.15575 0.63424 0.0
C107 C 0.78257 0.1687 0.60306 0.0
N108 N 0.79444 0.14531 0.62242 0.0
C109 C 0.85915 0.19073 0.62689 0.0
C110 C 0.84713 0.21496 0.60725 0.0
C111 C 0.82438 0.02342 0.64439 0.0
C112 C 0.66558 0.92504 0.62242 0.0
C113 C 0.74529 0.92109 0.64615 0.0
C114 C 0.7331 0.88615 0.63154 0.0
C115 C 0.69298 0.88825 0.6196 0.0
N116 N 0.71822 0.95705 0.64882 0.0
C117 C 0.6788 0.95931 0.6372 0.0
Co118 Co 0.90768 0.76068 0.13388 0.0
Co119 Co -0.00105 0.74053 0.16877 0.0
O120 O 0.95814 0.72491 0.14372 0.0
C121 C 0.96573 0.75286 0.09286 0.0
O122 O -0.00089 0.757 0.10726 0.0
C123 C 0.95876 0.6559 0.18217 0.0
O124 O 0.92072 0.6732 0.17593 0.0
O125 O 0.94949 0.75885 0.18936 0.0
O126 O 0.88914 0.76961 0.16709 0.0
H127 H 0.06146 0.83732 0.23188 0.0
H128 H 0.92153 0.67183 0.11312 0.0
O129 O 0.92597 0.75333 0.1004 0.0
H130 H 0.77532 0.66471 0.15118 0.0
H131 H 0.77889 0.79856 0.08199 0.0
H132 H 0.86621 0.84399 0.15045 0.0
H133 H 0.81902 0.73381 0.15187 0.0
H134 H 0.84215 0.75342 0.09532 0.0
O135 O 0.99423 0.67865 0.18101 0.0
H136 H 0.0102 0.81789 0.20008 0.0
H137 H 0.07474 0.69394 0.19122 0.0
H138 H 0.80304 0.88994 0.13783 0.0
H139 H 0.87877 0.60218 0.1118 0.0
H140 H 0.7589 0.86728 0.10337 0.0
H141 H 0.80519 0.59828 0.13102 0.0
O142 O 0.94322 0.81589 0.13522 0.0
H143 H 0.07788 0.63934 0.11303 0.0
H144 H 0.08461 0.78195 0.15485 0.0
H145 H 0.14558 0.76099 0.12848 0.0
H146 H 0.14242 0.68923 0.10735 0.0
H147 H 0.01749 0.66174 0.13942 0.0
H148 H 0.12652 0.71186 0.22306 0.0
H149 H 0.12016 0.7841 0.24356 0.0
O150 O 0.00361 0.80251 0.15699 0.0
C151 C 0.90884 0.76921 0.18678 0.0
C152 C 0.06468 0.80581 0.22303 0.0
C153 C 0.10115 0.73537 0.2181 0.0
N154 N 0.03974 0.75501 0.19368 0.0
C155 C 0.03583 0.79469 0.20496 0.0
C156 C 0.07169 0.72537 0.20012 0.0
C157 C 0.09757 0.77591 0.22959 0.0
C158 C 0.88931 0.67052 0.12128 0.0
N159 N 0.87266 0.70688 0.13244 0.0
C160 C 0.86532 0.63096 0.12055 0.0
C161 C 0.82408 0.62877 0.13138 0.0
C162 C 0.80732 0.66602 0.14272 0.0
C163 C 0.83224 0.70502 0.1431 0.0
C164 C 0.7978 0.80872 0.09707 0.0
C165 C 0.84694 0.83375 0.13554 0.0
C166 C 0.83367 0.78333 0.10467 0.0
N167 N 0.85754 0.79587 0.12377 0.0
C168 C 0.81131 0.85998 0.12843 0.0
C169 C 0.78659 0.84727 0.10908 0.0
C170 C 0.97955 0.82794 0.14457 0.0
C171 C 0.07971 0.67062 0.12221 0.0
C172 C 0.08301 0.75067 0.14572 0.0
C173 C 0.11765 0.73895 0.13084 0.0
C174 C 0.11588 0.69866 0.119 0.0
N175 N 0.04765 0.72298 0.14877 0.0
C176 C 0.04571 0.68339 0.13726 0.0
Co177 Co 0.23134 0.91248 0.63483 0.0
Co178 Co 0.23668 0.00693 0.66881 0.0
O179 O 0.25702 0.9694 0.64338 0.0
C180 C 0.22109 0.96835 0.59327 0.0
O181 O 0.20509 -0.00165 0.6075 0.0
C182 C 0.32874 0.98524 0.67921 0.0
O183 O 0.31777 0.94426 0.67423 0.0
O184 O 0.23204 0.95561 0.69019 0.0
O185 O 0.22779 0.89387 0.66833 0.0
H186 H 0.13782 0.05033 0.73536 0.0
H187 H 0.3145 0.94205 0.61213 0.0
O188 O 0.23384 0.93091 0.60117 0.0
H189 H 0.35211 0.80199 0.65165 0.0
H190 H 0.21701 0.77666 0.58457 0.0
H191 H 0.15897 0.85585 0.65315 0.0
H192 H 0.27607 0.83178 0.65335 0.0
H193 H 0.24914 0.84831 0.59659 0.0
O194 O 0.29976 0.0159 0.67855 0.0
H195 H 0.16327 0.00289 0.70307 0.0
H196 H 0.26897 0.09188 0.68909 0.0
H197 H 0.12609 0.78415 0.64186 0.0
H198 H 0.39079 0.91315 0.6097 0.0
H199 H 0.15514 0.74406 0.60734 0.0
H200 H 0.41005 0.84276 0.62967 0.0
O201 O 0.17019 0.93655 0.63711 0.0
H202 H 0.31002 0.10279 0.60862 0.0
H203 H 0.17607 0.0812 0.65639 0.0
H204 H 0.1795 0.14395 0.62896 0.0
H205 H 0.24686 0.15506 0.60484 0.0
H206 H 0.30506 0.04029 0.63613 0.0
H207 H 0.24487 0.14016 0.72136 0.0
H208 H 0.17871 0.11956 0.74467 0.0
O209 O 0.17376 -0.00235 0.65951 0.0
C210 C 0.22772 0.91377 0.68798 0.0
C211 C 0.16659 0.05976 0.72528 0.0
C212 C 0.22671 0.11013 0.71744 0.0
N213 N 0.21733 0.04482 0.69409 0.0
C214 C 0.18108 0.0331 0.70693 0.0
C215 C 0.24026 0.08264 0.69922 0.0
C216 C 0.18958 0.09856 0.73051 0.0
C217 C 0.32249 0.91111 0.62061 0.0
N218 N 0.29081 0.88848 0.63275 0.0
C219 C 0.36578 0.89499 0.61925 0.0
C220 C 0.37659 0.85554 0.6305 0.0
C221 C 0.34411 0.83268 0.64286 0.0
C222 C 0.30114 0.84976 0.64381 0.0
C223 C 0.20413 0.79377 0.59967 0.0
C224 C 0.17198 0.83845 0.6382 0.0
C225 C 0.22214 0.83436 0.60654 0.0
N226 N 0.20619 0.856 0.62567 0.0
C227 C 0.15314 0.79793 0.63185 0.0
C228 C 0.16943 0.77548 0.61246 0.0
C229 C 0.1522 0.96925 0.64755 0.0
C230 C 0.28055 0.09839 0.61909 0.0
C231 C 0.2055 0.08583 0.64596 0.0
C232 C 0.20726 0.12144 0.63048 0.0
C233 C 0.24508 0.12766 0.61696 0.0
N234 N 0.24046 0.05731 0.64797 0.0
C235 C 0.27764 0.06318 0.63477 0.0
Co236 Co 0.09866 0.76032 0.88152 0.0
Co237 Co 0.00819 0.73831 0.84637 0.0
O238 O 0.04883 0.72367 0.87164 0.0
C239 C 0.04024 0.75233 0.92237 0.0
O240 O 0.00698 0.75588 0.90785 0.0
C241 C 0.04925 0.6537 0.8335 0.0
O242 O 0.08709 0.67114 0.83999 0.0
O243 O 0.05774 0.7567 0.82588 0.0
O244 O 0.11751 0.76907 0.84835 0.0
H245 H 0.94569 0.8331 0.78247 0.0
H246 H 0.0858 0.67155 0.9025 0.0
O247 O 0.08007 0.75317 0.91495 0.0
H248 H 0.23251 0.66596 0.86491 0.0
H249 H 0.22628 0.80073 0.93369 0.0
H250 H 0.13917 0.84397 0.86479 0.0
H251 H 0.18791 0.73447 0.86391 0.0
H252 H 0.16382 0.75452 0.92031 0.0
O253 O 0.01367 0.67631 0.83443 0.0
H254 H 0.99661 0.8149 0.81461 0.0
H255 H 0.93316 0.6905 0.82388 0.0
H256 H 0.20155 0.89097 0.87745 0.0
H257 H 0.12943 0.60246 0.90409 0.0
H258 H 0.24558 0.86942 0.91214 0.0
H259 H 0.20327 0.59934 0.88512 0.0
O260 O 0.06238 0.81504 0.87986 0.0
H261 H 0.92956 0.63738 0.9023 0.0
H262 H 0.92188 0.77908 0.85974 0.0
H263 H 0.86075 0.75797 0.88597 0.0
H264 H 0.86439 0.68666 0.90747 0.0
H265 H 0.99009 0.65992 0.87604 0.0
H266 H 0.88174 0.70719 0.7917 0.0
H267 H 0.88773 0.77902 0.77083 0.0
O268 O 0.00266 0.80044 0.8578 0.0
C269 C 0.09816 0.76783 0.82858 0.0
C270 C 0.94264 0.80176 0.79149 0.0
C271 C 0.9068 0.73106 0.79665 0.0
N272 N 0.9676 0.75186 0.82123 0.0
C273 C 0.97128 0.79133 0.80975 0.0
C274 C 0.93605 0.72176 0.81482 0.0
C275 C 0.91017 0.77138 0.78495 0.0
C276 C 0.11813 0.67058 0.89444 0.0
N277 N 0.13442 0.70704 0.88326 0.0
C278 C 0.1426 0.63133 0.89532 0.0
C279 C 0.184 0.62958 0.88463 0.0
C280 C 0.2004 0.66693 0.87327 0.0
C281 C 0.17498 0.7056 0.87272 0.0
C282 C 0.20742 0.81041 0.91852 0.0
C283 C 0.1584 0.83421 0.8798 0.0
C284 C 0.17199 0.78442 0.91089 0.0
N285 N 0.14818 0.79635 0.89167 0.0
C286 C 0.19358 0.86103 0.88693 0.0
C287 C 0.21823 0.84894 0.90641 0.0
C288 C 0.0261 0.82643 0.87024 0.0
C289 C 0.92752 0.66846 0.89296 0.0
C290 C 0.92369 0.748 0.86904 0.0
C291 C 0.88896 0.73619 0.88384 0.0
C292 C 0.891 0.69616 0.89589 0.0
N293 N 0.95939 0.72064 0.86626 0.0
C294 C 0.96159 0.6813 0.87798 0.0
Co295 Co 0.23015 0.09143 0.3799 0.0
Co296 Co 0.23563 -0.00257 0.34559 0.0
O297 O 0.25576 0.03452 0.37123 0.0
C298 C 0.21966 0.03527 0.42134 0.0
O299 O 0.20324 0.00553 0.40709 0.0
C300 C 0.32821 0.01804 0.3358 0.0
O301 O 0.31773 0.05915 0.34079 0.0
O302 O 0.23207 0.04903 0.32433 0.0
O303 O 0.22676 0.11036 0.34644 0.0
H304 H 0.138 0.95584 0.27826 0.0
H305 H 0.31322 0.06146 0.40253 0.0
O306 O 0.23259 0.07268 0.4135 0.0
H307 H 0.35117 0.20183 0.3634 0.0
H308 H 0.2159 0.2268 0.43049 0.0
H309 H 0.15795 0.14836 0.36166 0.0
H310 H 0.27506 0.17224 0.36163 0.0
H311 H 0.24795 0.15521 0.41831 0.0
O312 O 0.29878 0.98781 0.33623 0.0
H313 H 0.1631 0.0026 0.31088 0.0
H314 H 0.26748 0.91232 0.3253 0.0
H315 H 0.12517 0.22002 0.37311 0.0
H316 H 0.38959 0.09013 0.40501 0.0
H317 H 0.15417 0.25974 0.40776 0.0
H318 H 0.40902 0.16068 0.38524 0.0
O319 O 0.16893 0.06749 0.37752 0.0
H320 H 0.30645 0.90028 0.40604 0.0
H321 H 0.17397 0.92365 0.3574 0.0
H322 H 0.17605 0.86063 0.38469 0.0
H323 H 0.24266 0.84863 0.40925 0.0
H324 H 0.30283 0.96306 0.37864 0.0
H325 H 0.24369 0.86469 0.29271 0.0
H326 H 0.17839 0.88629 0.269 0.0
O327 O 0.17263 0.00723 0.35452 0.0
C328 C 0.22744 0.09082 0.3267 0.0
C329 C 0.1664 0.94598 0.28851 0.0
C330 C 0.22577 0.89486 0.2966 0.0
N331 N 0.21648 0.95999 0.32009 0.0
C332 C 0.18069 0.97225 0.30705 0.0
C333 C 0.23913 0.92199 0.315 0.0
C334 C 0.18911 0.90699 0.28331 0.0
C335 C 0.32129 0.09246 0.39413 0.0
N336 N 0.28967 0.11529 0.38207 0.0
C337 C 0.36462 0.10845 0.39552 0.0
C338 C 0.37553 0.148 0.38439 0.0
C339 C 0.34309 0.17107 0.3721 0.0
C340 C 0.30008 0.15411 0.37111 0.0
C341 C 0.20305 0.20987 0.41533 0.0
C342 C 0.17095 0.1656 0.37667 0.0
C343 C 0.221 0.1693 0.40838 0.0
N344 N 0.20508 0.14787 0.38918 0.0
C345 C 0.15216 0.20609 0.38311 0.0
C346 C 0.16842 0.22833 0.40256 0.0
C347 C 0.15099 0.03521 0.36669 0.0
C348 C 0.2773 0.90507 0.39537 0.0
C349 C 0.20308 0.91863 0.36802 0.0
C350 C 0.20408 0.88287 0.38342 0.0
C351 C 0.24148 0.87614 0.39719 0.0
N352 N 0.23838 0.94681 0.36632 0.0
C353 C 0.27515 0.94044 0.37975 0.0
Co354 Co 0.91047 0.23252 0.87913 0.0
Co355 Co 0.00423 0.23848 0.84473 0.0
O356 O 0.96701 0.25866 0.8703 0.0
C357 C 0.96687 0.22334 0.92055 0.0
O358 O -0.00328 0.2071 0.90632 0.0
C359 C 0.98241 0.33064 0.83448 0.0
O360 O 0.94149 0.31972 0.83956 0.0
O361 O 0.95266 0.23393 0.82354 0.0
O362 O 0.89149 0.22831 0.84569 0.0
H363 H 0.04653 0.14016 0.77774 0.0
H364 H 0.93943 0.31639 0.9014 0.0
O365 O 0.92929 0.23574 0.91271 0.0
H366 H 0.79856 0.35193 0.86223 0.0
H367 H 0.77555 0.21749 0.92991 0.0
H368 H 0.8544 0.15927 0.86126 0.0
H369 H 0.82914 0.27615 0.8607 0.0
H370 H 0.84666 0.25021 0.91752 0.0
O371 O 0.01301 0.30161 0.83505 0.0
H372 H -0.00036 0.16536 0.81029 0.0
H373 H 0.08889 0.27089 0.82423 0.0
H374 H 0.78323 0.1258 0.87292 0.0
H375 H 0.90975 0.39244 0.90364 0.0
H376 H 0.74331 0.15494 0.90747 0.0
H377 H 0.83894 0.41067 0.88386 0.0
O378 O 0.93513 0.17153 0.87702 0.0
H379 H 0.10066 0.31167 0.90472 0.0
H380 H 0.07874 0.17789 0.85676 0.0
H381 H 0.14178 0.18127 0.88399 0.0
H382 H 0.15306 0.24854 0.9082 0.0
H383 H 0.03787 0.30676 0.8774 0.0
H384 H 0.13663 0.24703 0.7917 0.0
H385 H 0.11562 0.18108 0.76828 0.0
O386 O 0.99525 0.17547 0.85396 0.0
C387 C 0.91098 0.22889 0.82594 0.0
C388 C 0.05615 0.16883 0.78788 0.0
C389 C 0.10667 0.22885 0.79569 0.0
N390 N 0.04176 0.21929 0.81927 0.0
C391 C 0.0298 0.18317 0.80637 0.0
C392 C 0.07949 0.24226 0.81405 0.0
C393 C 0.09487 0.19184 0.78256 0.0
C394 C 0.90832 0.32393 0.89299 0.0
N395 N 0.88591 0.29181 0.88105 0.0
C396 C 0.89176 0.36709 0.89425 0.0
C397 C 0.85207 0.37731 0.8831 0.0
C398 C 0.82943 0.34438 0.87094 0.0
C399 C 0.84696 0.30157 0.87008 0.0
C400 C 0.79258 0.20457 0.91479 0.0
C401 C 0.83706 0.17233 0.87622 0.0
C402 C 0.83287 0.22291 0.90772 0.0
N403 N 0.85441 0.20691 0.88857 0.0
C404 C 0.79685 0.15315 0.88278 0.0
C405 C 0.7745 0.16948 0.90219 0.0
C406 C 0.96757 0.15375 0.86628 0.0
C407 C 0.09619 0.28224 0.89421 0.0
C408 C 0.08345 0.20728 0.86724 0.0
C409 C 0.11922 0.20902 0.8826 0.0
C410 C 0.12554 0.24678 0.89617 0.0
N411 N 0.05485 0.24223 0.86538 0.0
C412 C 0.06081 0.27936 0.87863 0.0
Co413 Co 0.75938 0.90226 0.38101 0.0
Co414 Co 0.73537 0.99301 0.34639 0.0
O415 O 0.72177 0.95164 0.37151 0.0
C416 C 0.75079 0.95984 0.42214 0.0
O417 O 0.75404 0.99333 0.40773 0.0
C418 C 0.65107 0.95105 0.33381 0.0
O419 O 0.66903 0.91328 0.34002 0.0
O420 O 0.75397 0.94406 0.32555 0.0
O421 O 0.76827 0.88429 0.3477 0.0
H422 H 0.82779 0.05778 0.28216 0.0
H423 H 0.67061 0.91293 0.4023 0.0
O424 O 0.75208 0.92008 0.41457 0.0
H425 H 0.66765 0.76682 0.36385 0.0
H426 H 0.80256 0.7743 0.43236 0.0
H427 H 0.84358 0.86363 0.36386 0.0
H428 H 0.73515 0.81288 0.3629 0.0
H429 H 0.75513 0.8362 0.41945 0.0
O430 O 0.67326 0.9869 0.33478 0.0
H431 H 0.81097 0.00603 0.31416 0.0
H432 H 0.68621 0.06795 0.32465 0.0
H433 H 0.8918 0.80184 0.37604 0.0
H434 H 0.6025 0.86782 0.40384 0.0
H435 H 0.87137 0.7567 0.41053 0.0
H436 H 0.6007 0.79427 0.38445 0.0
O437 O 0.81332 0.93962 0.37946 0.0
H438 H 0.63462 0.06915 0.40337 0.0
H439 H 0.7752 0.07967 0.36001 0.0
H440 H 0.75383 0.13998 0.38674 0.0
H441 H 0.68309 0.1349 0.40865 0.0
H442 H 0.6574 0.00946 0.37661 0.0
H443 H 0.7015 0.12018 0.29262 0.0
H444 H 0.77282 0.11538 0.27121 0.0
O445 O 0.79766 -0.0008 0.35749 0.0
C446 C 0.76611 0.90386 0.32801 0.0
C447 C 0.79667 0.06032 0.29142 0.0
C448 C 0.72576 0.0953 0.29727 0.0
N449 N 0.74785 0.03426 0.32139 0.0
C450 C 0.78703 0.03121 0.3096 0.0
C451 C 0.71726 0.0656 0.31536 0.0
C452 C 0.76579 0.0926 0.28527 0.0
C453 C 0.67021 0.88074 0.39404 0.0
N454 N 0.70686 0.86542 0.38265 0.0
C455 C 0.63152 0.85542 0.3949 0.0
C456 C 0.6305 0.81419 0.38397 0.0
C457 C 0.66804 0.79879 0.37239 0.0
C458 C 0.70614 0.82504 0.37188 0.0
C459 C 0.81176 0.79365 0.41727 0.0
C460 C 0.83431 0.84391 0.37878 0.0
C461 C 0.78507 0.82877 0.40991 0.0
N462 N 0.79639 0.85319 0.3908 0.0
C463 C 0.86182 0.80907 0.38564 0.0
C464 C 0.85036 0.78379 0.40501 0.0
C465 C 0.82407 0.97612 0.36986 0.0
C466 C 0.66544 0.07181 0.39386 0.0
C467 C 0.74436 0.07724 0.36948 0.0
C468 C 0.73241 0.11151 0.38457 0.0
C469 C 0.6927 0.10866 0.39684 0.0
N470 N 0.71745 0.0412 0.36665 0.0
C471 C 0.67842 0.03822 0.37859 0.0
C472 C 0.03583 0.41168 0.1708 0.0
C473 C 0.01224 0.37918 0.18295 0.0
C474 C 0.02451 0.45647 0.17278 0.0
C475 C 0.98985 0.46909 0.188 0.0
C476 C 0.96699 0.43649 0.20102 0.0
C477 C 0.97789 0.39163 0.19796 0.0
C478 C 0.04877 0.49008 0.15803 0.0
C479 C 0.93101 0.44898 0.21803 0.0
C480 C 0.99374 0.5915 0.20194 0.0
C481 C 0.96193 0.60809 0.18653 0.0
C482 C 0.00083 0.54574 0.20395 0.0
C483 C 0.97683 0.51637 0.18945 0.0
C484 C 0.9436 0.53301 0.17444 0.0
C485 C 0.93599 0.57876 0.1735 0.0
C486 C 0.03537 0.52903 0.22078 0.0
C487 C 0.91834 0.50297 0.15813 0.0
H488 H 0.06213 0.40191 0.15904 0.0
H489 H 0.95988 0.36632 0.20744 0.0
H490 H 0.02483 0.50835 0.14696 0.0
H491 H 0.0655 0.51477 0.16929 0.0
H492 H 0.07404 0.47448 0.1466 0.0
H493 H 0.91896 0.41999 0.22812 0.0
H494 H 0.94344 0.47444 0.23034 0.0
H495 H 0.90256 0.46372 0.2086 0.0
H496 H 0.01357 0.61437 0.21211 0.0
H497 H 0.91165 0.59176 0.16144 0.0
H498 H 0.06497 0.51766 0.21103 0.0
H499 H 0.0225 0.50024 0.23071 0.0
H500 H 0.04588 0.55513 0.23324 0.0
H501 H 0.94154 0.48848 0.14522 0.0
H502 H 0.89177 0.52086 0.14861 0.0
H503 H 0.90322 0.47506 0.16783 0.0
C504 C 0.4081 0.97256 0.67072 0.0
C505 C 0.37561 0.99641 0.68274 0.0
C506 C 0.45282 0.98415 0.67246 0.0
C507 C 0.4654 0.01941 0.68731 0.0
C508 C 0.43281 0.04272 0.70012 0.0
C509 C 0.388 0.03148 0.69731 0.0
C510 C 0.4864 0.95935 0.65794 0.0
C511 C 0.44528 0.0794 0.71674 0.0
C512 C 0.58756 0.01489 0.70146 0.0
C513 C 0.60456 0.04588 0.68571 0.0
C514 C 0.54175 0.00843 0.70353 0.0
C515 C 0.51272 0.03221 0.68877 0.0
C516 C 0.52978 0.06472 0.67343 0.0
C517 C 0.57559 0.07173 0.67241 0.0
C518 C 0.52463 0.97465 0.72067 0.0
C519 C 0.50009 0.08971 0.65685 0.0
H520 H 0.39839 0.94568 0.65931 0.0
H521 H 0.3627 0.04971 0.70669 0.0
H522 H 0.50493 0.98292 0.64676 0.0
H523 H 0.51085 0.94271 0.66937 0.0
H524 H 0.47078 0.93388 0.64663 0.0
H525 H 0.41622 0.09229 0.72647 0.0
H526 H 0.47023 0.0672 0.72938 0.0
H527 H 0.46066 0.10722 0.70706 0.0
H528 H 0.61015 0.99514 0.71183 0.0
H529 H 0.5889 0.09543 0.6601 0.0
H530 H 0.51315 0.94474 0.71121 0.0
H531 H 0.49586 0.98812 0.7304 0.0
H532 H 0.55052 0.96441 0.73331 0.0
H533 H 0.48581 0.06623 0.64401 0.0
H534 H 0.51821 0.11604 0.64725 0.0
H535 H 0.47205 0.1051 0.66632 0.0
C536 C 0.97023 0.41009 0.84314 0.0
C537 C 0.99374 0.3775 0.831 0.0
C538 C 0.9823 0.45474 0.84157 0.0
C539 C 0.01769 0.46716 0.82679 0.0
C540 C 0.04058 0.43449 0.81382 0.0
C541 C 0.02886 0.38974 0.81645 0.0
C542 C 0.95791 0.48841 0.85625 0.0
C543 C 0.07738 0.4468 0.79726 0.0
C544 C 0.01507 0.58963 0.81311 0.0
C545 C 0.0463 0.60596 0.82893 0.0
C546 C 0.00784 0.54394 0.8109 0.0
C547 C 0.03112 0.51434 0.82558 0.0
C548 C 0.06386 0.5307 0.84098 0.0
C549 C 0.07162 0.57642 0.84216 0.0
C550 C 0.97382 0.52755 0.79369 0.0
C551 C 0.08835 0.50039 0.85746 0.0
H552 H 0.94331 0.40048 0.85454 0.0
H553 H 0.04683 0.36437 0.80698 0.0
H554 H 0.98168 0.50637 0.86757 0.0
H555 H 0.94173 0.51336 0.84493 0.0
H556 H 0.93216 0.47293 0.86742 0.0
H557 H 0.08976 0.41776 0.78732 0.0
H558 H 0.06558 0.47228 0.7848 0.0
H559 H 0.10545 0.46147 0.80703 0.0
H560 H 0.99572 0.61267 0.8028 0.0
H561 H 0.09548 0.58923 0.85453 0.0
H562 H 0.94379 0.51634 0.80311 0.0
H563 H 0.98686 0.49874 0.78383 0.0
H564 H 0.96394 0.5538 0.78118 0.0
H565 H 0.06465 0.4862 0.8702 0.0
H566 H 0.11487 0.51799 0.86717 0.0
H567 H 0.10339 0.47229 0.84786 0.0
C568 C 0.40772 0.02959 0.34442 0.0
C569 C 0.37494 0.00613 0.33242 0.0
C570 C 0.45226 0.01722 0.34282 0.0
C571 C 0.46438 0.98153 0.32813 0.0
C572 C 0.4315 0.95854 0.31537 0.0
C573 C 0.38687 0.9706 0.31803 0.0
C574 C 0.48617 0.04174 0.35726 0.0
C575 C 0.44348 0.92138 0.29895 0.0
C576 C 0.58642 0.98448 0.31365 0.0
C577 C 0.60325 0.95356 0.32949 0.0
C578 C 0.54068 0.99141 0.31169 0.0
C579 C 0.51154 0.96819 0.32664 0.0
C580 C 0.5284 0.93572 0.34206 0.0
C581 C 0.57416 0.92823 0.34299 0.0
C582 C 0.52376 0.02514 0.29446 0.0
C583 C 0.4986 0.91129 0.35882 0.0
H584 H 0.39837 0.05679 0.35571 0.0
H585 H 0.36136 0.95265 0.30867 0.0
H586 H 0.5044 0.01804 0.3685 0.0
H587 H 0.51082 0.05792 0.34577 0.0
H588 H 0.47088 0.06753 0.36849 0.0
H589 H 0.41422 0.90857 0.28936 0.0
H590 H 0.46844 0.93307 0.28618 0.0
H591 H 0.45868 0.89363 0.30875 0.0
H592 H 0.60912 0.00383 0.30314 0.0
H593 H 0.58738 0.90462 0.35538 0.0
H594 H 0.51259 0.05526 0.30385 0.0
H595 H 0.49483 0.01182 0.28483 0.0
H596 H 0.54967 0.03501 0.28176 0.0
H597 H 0.48485 0.93508 0.37166 0.0
H598 H 0.51647 0.88478 0.3684 0.0
H599 H 0.4702 0.89624 0.3495 0.0
C600 C 0.01074 0.20012 0.95521 0.0
C601 C 0.97698 0.22636 0.94567 0.0
C602 C 0.02048 0.20162 0.97904 0.0
C603 C 0.99655 0.23083 0.99366 0.0
C604 C 0.96307 0.25818 0.98405 0.0
C605 C 0.9533 0.25524 0.96019 0.0
C606 C 0.05574 0.1712 0.98866 0.0
C607 C 0.93748 0.29039 0.99899 0.0
C608 C 0.99086 0.20218 0.05788 0.0
C609 C 0.02508 0.2282 0.06715 0.0
C610 C 0.9811 0.20298 0.03404 0.0
C611 C 0.00548 0.23125 0.01914 0.0
C612 C 0.03941 0.25841 0.02847 0.0
C613 C 0.04918 0.25617 0.05235 0.0
C614 C 0.94533 0.17279 0.02473 0.0
C615 C 0.06548 0.28965 0.01321 0.0
H616 H 0.02904 0.17758 0.94409 0.0
H617 H 0.92745 0.27589 0.95285 0.0
H618 H 0.0819 0.19085 0.99744 0.0
H619 H 0.04103 0.14888 1.0019 0.0
H620 H 0.07145 0.15059 0.97493 0.0
H621 H 0.91431 0.3111 0.98864 0.0
H622 H 0.91815 0.27205 0.01227 0.0
H623 H 0.9607 0.31254 0.00842 0.0
H624 H 0.97223 0.18034 0.06921 0.0
H625 H 0.0754 0.27663 0.05948 0.0
H626 H 0.95968 0.1497 0.01172 0.0
H627 H 0.91951 0.19252 0.01574 0.0
H628 H 0.92927 0.15298 0.03866 0.0
H629 H 0.08454 0.27051 1.00013 0.0
H630 H 0.08896 0.31039 0.02336 0.0
H631 H 0.0426 0.31177 1.00355 0.0
C632 C 0.77207 0.05073 0.55122 0.0
C633 C 0.74693 0.0268 0.56736 0.0
C634 C 0.77191 0.03905 0.52757 0.0
C635 C 0.74451 0.00384 0.51984 0.0
C636 C 0.71778 0.98071 0.53604 0.0
C637 C 0.72009 0.99186 0.55972 0.0
C638 C 0.80205 0.0635 0.511 0.0
C639 C 0.6868 0.94423 0.5284 0.0
C640 C 0.71928 0.00284 0.45509 0.0
C641 C 0.74698 0.96877 0.44722 0.0
C642 C 0.71688 0.01349 0.47882 0.0
C643 C 0.74437 0.99082 0.49485 0.0
C644 C 0.77252 0.95638 0.48688 0.0
C645 C 0.77278 0.94513 0.46317 0.0
C646 C 0.68512 0.04911 0.48671 0.0
C647 C 0.80346 0.93247 0.50325 0.0
H648 H 0.79319 0.07744 0.55726 0.0
H649 H 0.70051 0.97354 0.57228 0.0
H650 H 0.8248 0.03969 0.50239 0.0
H651 H 0.78229 0.07964 0.49714 0.0
H652 H 0.82216 0.08925 0.51991 0.0
H653 H 0.66604 0.93169 0.54293 0.0
H654 H 0.66471 0.95645 0.51437 0.0
H655 H 0.70606 0.91613 0.52117 0.0
H656 H 0.69919 0.02092 0.44267 0.0
H657 H 0.79455 0.91911 0.45694 0.0
H658 H 0.70382 0.07777 0.49373 0.0
H659 H 0.66379 0.03636 0.50094 0.0
H660 H 0.66359 0.06101 0.47234 0.0
H661 H 0.82607 0.95668 0.51164 0.0
H662 H 0.82372 0.90698 0.49422 0.0
H663 H 0.78435 0.91611 0.5173 0.0
C664 C 0.00915 0.72183 0.05991 0.0
C665 C 0.97471 0.74906 0.06778 0.0
C666 C 0.01964 0.71935 0.03617 0.0
C667 C 0.99641 0.74632 0.02011 0.0
C668 C 0.96165 0.77406 0.02808 0.0
C669 C 0.95059 0.77437 0.05181 0.0
C670 C 0.05563 0.688 0.02828 0.0
C671 C 0.93715 0.80449 0.01168 0.0
C672 C 0.05492 0.77436 0.9634 0.0
C673 C 0.03103 0.74879 0.94744 0.0
C674 C 0.04373 0.77419 0.98711 0.0
C675 C 0.00909 0.74631 0.99508 0.0
C676 C 0.98608 0.71911 0.97904 0.0
C677 C -0.00332 0.72145 0.9553 0.0
C678 C 0.06801 0.80485 1.0035 0.0
C679 C 0.95023 0.68763 0.98693 0.0
H680 H 0.02761 0.70212 0.07236 0.0
H681 H 0.92427 0.79578 0.05804 0.0
H682 H 0.04302 0.66626 0.01419 0.0
H683 H 0.08387 0.70705 0.02108 0.0
H684 H 0.06804 0.66686 0.04269 0.0
H685 H 0.9116 0.82462 0.02073 0.0
H686 H 0.96094 0.82724 1.00308 0.0
H687 H 0.92079 0.78494 0.9978 0.0
H688 H 0.08117 0.79585 0.95718 0.0
H689 H 0.9784 0.70154 0.94287 0.0
H690 H 0.08456 0.78546 0.01737 0.0
H691 H 0.04405 0.82743 0.01211 0.0
H692 H 0.09339 0.82516 0.99443 0.0
H693 H 0.96295 0.66595 1.00102 0.0
H694 H 0.93789 0.66642 0.97252 0.0
H695 H 0.92191 0.70656 0.99415 0.0
C696 C 0.25104 0.04903 0.46106 0.0
C697 C 0.22242 0.0252 0.44648 0.0
C698 C 0.25371 0.03938 0.48494 0.0
C699 C 0.22637 0.00583 0.4945 0.0
C700 C 0.19745 0.98172 0.47982 0.0
C701 C 0.19619 0.99137 0.45597 0.0
C702 C 0.28562 0.06519 0.49995 0.0
C703 C 0.16709 0.94635 0.48939 0.0
C704 C 0.25155 0.95395 0.55339 0.0
C705 C 0.22341 0.97812 0.56808 0.0
C706 C 0.2538 0.96338 0.52948 0.0
C707 C 0.22652 -0.00294 0.52 0.0
C708 C 0.19804 0.02147 0.53478 0.0
C709 C 0.1972 0.01202 0.55866 0.0
C710 C 0.28524 0.93726 0.51434 0.0
C711 C 0.16774 0.05699 0.52532 0.0
H712 H 0.27169 0.07493 0.45376 0.0
H713 H 0.17386 0.97294 0.44481 0.0
H714 H 0.26704 0.08453 0.51315 0.0
H715 H 0.30772 0.04209 0.50948 0.0
H716 H 0.30634 0.08841 0.48964 0.0
H717 H 0.14677 0.93043 0.47561 0.0
H718 H 0.18672 0.92034 0.4983 0.0
H719 H 0.1445 0.96106 0.50252 0.0
H720 H 0.27217 0.92796 0.56064 0.0
H721 H 0.17522 0.0307 0.5699 0.0
H722 H 0.30744 0.96015 0.50473 0.0
H723 H 0.26631 0.91812 0.50121 0.0
H724 H 0.30587 0.91383 0.52457 0.0
H725 H 0.18741 0.08291 0.51635 0.0
H726 H 0.14767 0.07302 0.53916 0.0
H727 H 0.14494 0.04241 0.51226 0.0
C728 C 0.09622 0.20846 0.22853 0.0
C729 C 0.11836 0.21955 0.20784 0.0
C730 C 0.11932 0.1926 0.24792 0.0
C731 C 0.16598 0.18865 0.24693 0.0
C732 C 0.18893 0.20262 0.22673 0.0
C733 C 0.1648 0.21743 0.20728 0.0
C734 C 0.09335 0.17739 0.26893 0.0
C735 C 0.23876 0.20005 0.22527 0.0
C736 C 0.21646 0.16358 0.30601 0.0
C737 C 0.21881 0.11711 0.30534 0.0
C738 C 0.20242 0.18787 0.28647 0.0
C739 C 0.1895 0.16507 0.26603 0.0
C740 C 0.19396 0.11843 0.26489 0.0
C741 C 0.20901 0.09516 0.28442 0.0
C742 C 0.19929 0.23769 0.28812 0.0
C743 C 0.1799 0.09263 0.2436 0.0
H744 H 0.0604 0.21006 0.2293 0.0
H745 H 0.18229 0.22629 0.19149 0.0
H746 H 0.09741 0.14107 0.27117 0.0
H747 H 0.10613 0.19353 0.2849 0.0
H748 H 0.05742 0.1848 0.26738 0.0
H749 H 0.25191 0.2189 0.21018 0.0
H750 H 0.25409 0.21308 0.24142 0.0
H751 H 0.24908 0.16494 0.22344 0.0
H752 H 0.22437 0.18095 0.32199 0.0
H753 H 0.21086 0.05933 0.28356 0.0
H754 H 0.16405 0.2476 0.28978 0.0
H755 H 0.21249 0.25342 0.27212 0.0
H756 H 0.21763 0.25081 0.30339 0.0
H757 H 0.14357 0.09588 0.24117 0.0
H758 H 0.18812 0.05683 0.24496 0.0
H759 H 0.19605 0.10619 0.22782 0.0
C760 C 0.9067 0.21265 0.78337 0.0
C761 C 0.88476 0.21995 0.80458 0.0
C762 C 0.88382 0.19767 0.7637 0.0
C763 C 0.83758 0.19052 0.76502 0.0
C764 C 0.81465 0.20069 0.78585 0.0
C765 C 0.83855 0.21494 0.80548 0.0
C766 C 0.90976 0.18663 0.74197 0.0
C767 C 0.7652 0.19438 0.78777 0.0
C768 C 0.78195 0.16788 0.7068 0.0
C769 C 0.78086 0.12138 0.70661 0.0
C770 C 0.79818 0.19115 0.72623 0.0
C771 C 0.81472 0.16729 0.74559 0.0
C772 C 0.81285 0.12042 0.74563 0.0
C773 C 0.79552 0.09815 0.7263 0.0
C774 C 0.79865 0.24116 0.72581 0.0
C775 C 0.831 0.09357 0.76567 0.0
H776 H 0.94233 0.21659 0.78233 0.0
H777 H 0.82116 0.22082 0.82168 0.0
H778 H 0.90886 0.1503 0.73896 0.0
H779 H 0.89463 0.20274 0.72658 0.0
H780 H 0.94494 0.19717 0.74319 0.0
H781 H 0.7515 0.21013 0.80369 0.0
H782 H 0.74821 0.20844 0.77233 0.0
H783 H 0.75745 0.15846 0.78833 0.0
H784 H 0.77035 0.18608 0.69174 0.0
H785 H 0.79502 0.06224 0.72634 0.0
H786 H 0.83332 0.25318 0.72478 0.0
H787 H 0.78419 0.25456 0.74211 0.0
H788 H 0.77995 0.25474 0.71078 0.0
H789 H 0.8258 0.05739 0.76328 0.0
H790 H 0.81503 0.10381 0.78218 0.0
H791 H 0.86706 0.0998 0.76749 0.0
C792 C 0.78758 0.83374 0.3071 0.0
C793 C 0.78045 0.87971 0.3068 0.0
C794 C 0.8043 0.81162 0.28743 0.0
C795 C 0.81493 0.8362 0.26719 0.0
C796 C 0.8067 0.88235 0.26661 0.0
C797 C 0.78923 0.9034 0.28629 0.0
C798 C 0.81186 0.76222 0.28853 0.0
C799 C 0.81832 0.90999 0.24556 0.0
C800 C 0.90736 0.79702 0.22765 0.0
C801 C 0.88405 0.78303 0.20783 0.0
C802 C 0.88515 0.81328 0.24726 0.0
C803 C 0.83831 0.81483 0.24734 0.0
C804 C 0.81441 0.79916 0.22779 0.0
C805 C 0.83759 0.78391 0.20813 0.0
C806 C 0.91198 0.83053 0.26752 0.0
C807 C 0.76443 0.79949 0.22744 0.0
H808 H 0.78064 0.81508 0.32279 0.0
H809 H 0.78397 0.93892 0.2858 0.0
H810 H 0.79734 0.7458 0.27304 0.0
H811 H 0.84794 0.75523 0.2884 0.0
H812 H 0.79729 0.74724 0.30444 0.0
H813 H 0.80798 0.94515 0.24751 0.0
H814 H 0.85465 0.90907 0.24265 0.0
H815 H 0.80233 0.8962 0.22978 0.0
H816 H 0.94325 0.79669 0.2276 0.0
H817 H 0.81932 0.77287 0.19297 0.0
H818 H 0.90185 0.81371 0.28381 0.0
H819 H 0.90563 0.86649 0.26985 0.0
H820 H 0.94814 0.82558 0.26502 0.0
H821 H 0.75121 0.78351 0.24338 0.0
H822 H 0.75082 0.78209 0.21198 0.0
H823 H 0.75227 0.83418 0.22731 0.0
C824 C 0.20904 0.91001 0.73027 0.0
C825 C 0.21891 0.88778 0.70942 0.0
C826 C 0.19439 0.88694 0.74994 0.0
C827 C 0.19031 0.84026 0.74903 0.0
C828 C 0.20298 0.81724 0.7286 0.0
C829 C 0.21673 0.8413 0.70893 0.0
C830 C 0.18056 0.91293 0.77121 0.0
C831 C 0.20003 0.76738 0.72716 0.0
C832 C 0.16923 0.78605 0.80775 0.0
C833 C 0.1229 0.78215 0.80759 0.0
C834 C 0.19209 0.80265 0.78828 0.0
C835 C 0.16793 0.81662 0.76848 0.0
C836 C 0.12133 0.81169 0.76803 0.0
C837 C 0.09951 0.79412 0.78744 0.0
C838 C 0.2419 0.80647 0.78917 0.0
C839 C 0.09413 0.82695 0.74747 0.0
H840 H 0.21071 0.94586 0.73098 0.0
H841 H 0.22462 0.82373 0.69301 0.0
H842 H 0.14431 0.90944 0.77387 0.0
H843 H 0.19712 0.8997 0.78696 0.0
H844 H 0.1885 0.94877 0.76967 0.0
H845 H 0.21728 0.75415 0.71156 0.0
H846 H 0.21456 0.75195 0.74292 0.0
H847 H 0.16475 0.75723 0.72632 0.0
H848 H 0.18761 0.77656 0.82315 0.0
H849 H 0.06373 0.79139 0.78709 0.0
H850 H 0.25151 0.84191 0.79009 0.0
H851 H 0.25683 0.79253 0.77313 0.0
H852 H 0.25612 0.7891 0.80448 0.0
H853 H 0.0978 0.86332 0.74528 0.0
H854 H 0.05836 0.81923 0.74952 0.0
H855 H 0.10621 0.81108 0.73128 0.0
C856 C 0.99617 0.08596 0.15779 0.0
C857 C 0.028 0.10751 0.14407 0.0
C858 C 0.99071 0.03994 0.15667 0.0
C859 C 0.01745 0.01487 0.14132 0.0
C860 C 0.04932 0.03631 0.12724 0.0
C861 C 0.05435 0.08242 0.12884 0.0
C862 C 0.95649 0.01811 0.17205 0.0
C863 C 0.07808 0.01055 0.11054 0.0
C864 C 0.02651 0.89281 0.15584 0.0
C865 C 0.99311 0.87473 0.14177 0.0
C866 C 0.03594 0.93828 0.15528 0.0
C867 C 0.01172 0.96614 0.14011 0.0
C868 C 0.97964 0.94779 0.125 0.0
C869 C 0.97059 0.90231 0.12606 0.0
C870 C 0.07031 0.9568 0.1717 0.0
C871 C 0.95352 0.97646 0.1084 0.0
H872 H 0.97572 0.10496 0.16965 0.0
H873 H 0.07896 0.09876 0.11812 0.0
H874 H 0.93184 0.00028 0.16122 0.0
H875 H 0.97262 0.9932 0.18344 0.0
H876 H 0.93868 0.04237 0.18319 0.0
H877 H 0.10102 0.03231 0.10064 0.0
H878 H 0.09794 0.98566 0.12018 0.0
H879 H 0.05703 0.99215 0.09801 0.0
H880 H 0.04421 0.87177 0.16796 0.0
H881 H 0.94506 0.88859 0.11493 0.0
H882 H 0.05401 0.97866 0.18465 0.0
H883 H 0.09461 0.97734 0.16205 0.0
H884 H 0.08846 0.93032 0.18116 0.0
H885 H 0.93154 -0.00103 0.11839 0.0
H886 H 0.93276 0.95652 0.09636 0.0
H887 H 0.97617 -0.00248 0.09798 0.0
C888 C 0.07889 0.94763 0.6306 0.0
C889 C 0.10364 0.97468 0.64565 0.0
C890 C 0.03277 0.95217 0.62892 0.0
C891 C 0.01097 0.98428 0.64271 0.0
C892 C 0.03566 0.01157 0.65796 0.0
C893 C 0.0817 0.00656 0.65918 0.0
C894 C 0.00742 0.92279 0.61234 0.0
C895 C 0.01345 0.04607 0.67303 0.0
C896 C 0.89915 0.03114 0.62624 0.0
C897 C 0.87104 0.00925 0.64193 0.0
C898 C 0.94456 0.02182 0.62557 0.0
C899 C 0.96232 0.99009 0.64107 0.0
C900 C 0.93394 0.96641 0.65621 0.0
C901 C 0.88853 0.97612 0.65638 0.0
C902 C 0.9738 0.04738 0.609 0.0
C903 C 0.95182 0.93239 0.67302 0.0
H904 H 0.09551 0.92294 0.62004 0.0
H905 H 0.10043 0.02752 0.67092 0.0
H906 H 0.98203 0.90356 0.62196 0.0
H907 H 0.98968 0.94342 0.59937 0.0
H908 H 0.02935 0.89924 0.60294 0.0
H909 H 0.03738 0.06402 0.68429 0.0
H910 H 0.99603 0.0706 0.66195 0.0
H911 H 0.98817 0.03017 0.68428 0.0
H912 H 0.88589 0.05645 0.61482 0.0
H913 H 0.86709 0.9589 0.6685 0.0
H914 H 0.99503 0.02434 0.5989 0.0
H915 H 0.9961 0.06955 0.619 0.0
H916 H 0.95431 0.06791 0.59665 0.0
H917 H 0.925 0.91444 0.68232 0.0
H918 H 0.97316 0.949 0.6861 0.0
H919 H 0.97272 0.90786 0.66373 0.0
C920 C 0.94822 0.08047 0.88406 0.0
C921 C 0.97372 0.10527 0.86832 0.0
C922 C 0.95366 0.03445 0.88596 0.0
C923 C 0.98506 0.0128 0.87167 0.0
C924 C 0.01075 0.03754 0.85571 0.0
C925 C 0.0049 0.08349 0.85429 0.0
C926 C 0.92599 0.00904 0.9033 0.0
C927 C 0.04442 0.01548 0.84007 0.0
C928 C 0.03454 0.9018 0.88773 0.0
C929 C 0.01184 0.87311 0.87265 0.0
C930 C 0.02474 0.94716 0.88834 0.0
C931 C 0.99165 0.96424 0.87343 0.0
C932 C 0.96725 0.93527 0.85892 0.0
C933 C 0.97751 0.88996 0.85878 0.0
C934 C 0.05114 0.97706 0.90422 0.0
C935 C 0.93178 0.95241 0.84274 0.0
H936 H 0.92411 0.09701 0.89501 0.0
H937 H 0.02465 0.10225 0.84201 0.0
H938 H 0.9064 0.98316 0.89424 0.0
H939 H 0.94786 0.99186 0.91591 0.0
H940 H 0.9029 0.03086 0.91307 0.0
H941 H 0.06119 0.03944 0.82834 0.0
H942 H 0.06997 -0.00139 0.85074 0.0
H943 H 0.02807 0.98974 0.82929 0.0
H944 H 0.06083 0.88907 0.89869 0.0
H945 H 0.95963 0.86808 0.84714 0.0
H946 H 0.02863 -0.00182 0.9147 0.0
H947 H 0.07218 -0.0005 0.89365 0.0
H948 H 0.07287 0.95807 0.91621 0.0
H949 H 0.90767 0.9731 0.85245 0.0
H950 H 0.91357 0.92517 0.83392 0.0
H951 H 0.94708 0.97381 0.82926 0.0
C952 C 0.89913 0.96944 0.38778 0.0
C953 C 0.87049 0.9911 0.37228 0.0
C954 C 0.94434 0.97971 0.38843 0.0
C955 C 0.96134 0.01222 0.37313 0.0
C956 C 0.93237 0.03566 0.35821 0.0
C957 C 0.88718 0.02496 0.35803 0.0
C958 C 0.97422 0.95433 0.40476 0.0
C959 C 0.94942 0.07048 0.34161 0.0
C960 C 0.07741 0.05604 0.38367 0.0
C961 C 0.10242 0.02961 0.36844 0.0
C962 C 0.03133 0.05095 0.38535 0.0
C963 C 0.00986 0.01891 0.37137 0.0
C964 C 0.03481 0.99237 0.35587 0.0
C965 C 0.08077 -0.00207 0.35465 0.0
C966 C 0.00569 0.07957 0.40218 0.0
C967 C 0.01296 0.95797 0.34059 0.0
H968 H 0.88649 0.94356 0.39904 0.0
H969 H 0.86531 0.04202 0.34607 0.0
H970 H -0.00316 0.93283 0.39456 0.0
H971 H 0.99511 0.97752 0.41496 0.0
H972 H 0.95524 0.93314 0.41702 0.0
H973 H 0.92215 0.08824 0.33258 0.0
H974 H 0.97006 0.09507 0.351 0.0
H975 H 0.97081 0.05461 0.3283 0.0
H976 H 0.09381 0.08059 0.39441 0.0
H977 H 0.09968 0.97746 0.34276 0.0
H978 H 0.98866 0.05837 0.41516 0.0
H979 H 0.97971 0.09839 0.39278 0.0
H980 H 0.02731 0.10343 0.41155 0.0
H981 H 0.99613 0.9328 0.35153 0.0
H982 H 0.03703 0.94078 0.32908 0.0
H983 H 0.98724 0.97377 0.32959 0.0
loop_
_geom_bond_atom_site_label_1
_geom_bond_atom_site_label_2
_geom_bond_distance
_geom_bond_site_symmetry_2
_ccdc_geom_bond_type
Co0 O2 2.143 . S
Co0 O8 2.074 . S
Co0 O11 2.093 . S
Co0 O24 2.097 . S
Co0 N41 2.151 . S
Co0 N49 2.214 . S
Co1 O2 2.160 . S
Co1 O7 2.058 . S
Co1 O17 2.057 . S
Co1 O32 2.037 . S
Co1 N36 2.145 1_455 S
Co1 N57 2.257 1_455 S
O2 Co0 2.143 . S
O2 Co1 2.160 . S
C3 O4 1.278 . S
C3 O11 1.224 . S
O4 C3 1.278 . S
C5 O6 1.245 . S
C5 O17 1.232 . S
O6 C5 1.245 . S
O7 Co1 2.058 . S
O7 C33 1.269 . S
O8 Co0 2.074 . S
O8 C33 1.257 . S
H9 C34 0.930 . S
H10 C40 0.930 . S
O11 Co0 2.093 . S
O11 C3 1.224 . S
H12 C44 0.929 . S
H13 C46 0.930 . S
H14 C47 0.930 . S
H15 C45 0.929 . S
H16 C48 0.928 . S
O17 Co1 2.057 . S
O17 C5 1.232 . S
H18 C37 0.929 . S
H19 C38 0.929 . S
H20 C50 0.931 . S
H21 C42 0.929 . S
H22 C51 0.930 . S
H23 C43 0.931 . S
O24 Co0 2.097 . S
O24 C52 1.214 . S
H25 C53 0.929 . S
H26 C54 0.929 . S
H27 C55 0.930 . S
H28 C56 0.929 . S
H29 C58 0.930 . S
H30 C35 0.930 . S
H31 C39 0.930 . S
O32 Co1 2.037 . S
O32 C52 1.234 . S
C33 O7 1.269 . S
C33 O8 1.257 . S
C34 H9 0.930 . S
C34 C37 1.388 . S
C34 C39 1.418 . S
C35 H30 0.930 . S
C35 C38 1.404 . S
C35 C39 1.353 . S
N36 Co1 2.145 1_655 S
N36 C37 1.397 . S
N36 C38 1.334 . S
C37 H18 0.929 . S
C37 C34 1.388 . S
C37 N36 1.397 . S
C38 H19 0.929 . S
C38 C35 1.404 . S
C38 N36 1.334 . S
C39 H31 0.930 . S
C39 C34 1.418 . S
C39 C35 1.353 . S
C40 H10 0.930 . S
C40 N41 1.330 . S
C40 C42 1.446 . S
N41 Co0 2.151 . S
N41 C40 1.330 . S
N41 C45 1.418 . S
C42 H21 0.929 . S
C42 C40 1.446 . S
C42 C43 1.332 . S
C43 H23 0.931 . S
C43 C42 1.332 . S
C43 C44 1.267 . S
C44 H12 0.929 . S
C44 C43 1.267 . S
C44 C45 1.251 . S
C45 H15 0.929 . S
C45 N41 1.418 . S
C45 C44 1.251 . S
C46 H13 0.930 . S
C46 C48 1.406 . S
C46 C51 1.261 . S
C47 H14 0.930 . S
C47 N49 1.325 . S
C47 C50 1.357 . S
C48 H16 0.928 . S
C48 C46 1.406 . S
C48 N49 1.261 . S
N49 Co0 2.214 . S
N49 C47 1.325 . S
N49 C48 1.261 . S
C50 H20 0.931 . S
C50 C47 1.357 . S
C50 C51 1.312 . S
C51 H22 0.930 . S
C51 C46 1.261 . S
C51 C50 1.312 . S
C52 O24 1.214 . S
C52 O32 1.234 . S
C53 H25 0.929 . S
C53 C56 1.391 . S
C53 C58 1.391 . S
C54 H26 0.929 . S
C54 C55 1.390 . S
C54 N57 1.391 . S
C55 H27 0.930 . S
C55 C54 1.390 . S
C55 C56 1.392 . S
C56 H28 0.929 . S
C56 C53 1.391 . S
C56 C55 1.392 . S
N57 Co1 2.257 1_655 S
N57 C54 1.391 . S
N57 C58 1.388 . S
C58 H29 0.930 . S
C58 C53 1.391 . S
C58 N57 1.388 . S
Co59 O61 2.143 . S
Co59 O67 2.074 . S
Co59 O70 2.093 . S
Co59 O83 2.097 . S
Co59 N100 2.151 . S
Co59 N108 2.214 . S
Co60 O61 2.160 . S
Co60 O66 2.058 . S
Co60 O76 2.057 . S
Co60 O91 2.037 . S
Co60 N95 2.145 1_545 S
Co60 N116 2.257 1_545 S
O61 Co59 2.143 . S
O61 Co60 2.160 . S
C62 O63 1.278 . S
C62 O70 1.224 . S
O63 C62 1.278 . S
C64 O65 1.245 . S
C64 O76 1.232 . S
O65 C64 1.245 . S
O66 Co60 2.058 . S
O66 C92 1.269 . S
O67 Co59 2.074 . S
O67 C92 1.257 . S
H68 C93 0.930 . S
H69 C99 0.930 . S
O70 Co59 2.093 . S
O70 C62 1.224 . S
H71 C103 0.929 . S
H72 C105 0.930 . S
H73 C106 0.930 . S
H74 C104 0.929 . S
H75 C107 0.928 . S
O76 Co60 2.057 . S
O76 C64 1.232 . S
H77 C96 0.929 . S
H78 C97 0.929 . S
H79 C109 0.931 . S
H80 C101 0.929 . S
H81 C110 0.930 . S
H82 C102 0.931 . S
O83 Co59 2.097 . S
O83 C111 1.214 . S
H84 C112 0.929 . S
H85 C113 0.929 . S
H86 C114 0.930 . S
H87 C115 0.929 . S
H88 C117 0.930 . S
H89 C94 0.930 . S
H90 C98 0.930 . S
O91 Co60 2.037 . S
O91 C111 1.234 . S
C92 O66 1.269 . S
C92 O67 1.257 . S
C93 H68 0.930 . S
C93 C96 1.388 . S
C93 C98 1.418 . S
C94 H89 0.930 . S
C94 C97 1.404 . S
C94 C98 1.353 . S
N95 Co60 2.145 1_565 S
N95 C96 1.397 . S
N95 C97 1.334 . S
C96 H77 0.929 . S
C96 C93 1.388 . S
C96 N95 1.397 . S
C97 H78 0.929 . S
C97 C94 1.404 . S
C97 N95 1.334 . S
C98 H90 0.930 . S
C98 C93 1.418 . S
C98 C94 1.353 . S
C99 H69 0.930 . S
C99 N100 1.330 . S
C99 C101 1.446 . S
N100 Co59 2.151 . S
N100 C99 1.330 . S
N100 C104 1.418 . S
C101 H80 0.929 . S
C101 C99 1.446 . S
C101 C102 1.332 . S
C102 H82 0.931 . S
C102 C101 1.332 . S
C102 C103 1.267 . S
C103 H71 0.929 . S
C103 C102 1.267 . S
C103 C104 1.251 . S
C104 H74 0.929 . S
C104 N100 1.418 . S
C104 C103 1.251 . S
C105 H72 0.930 . S
C105 C107 1.406 . S
C105 C110 1.261 . S
C106 H73 0.930 . S
C106 N108 1.325 . S
C106 C109 1.357 . S
C107 H75 0.928 . S
C107 C105 1.406 . S
C107 N108 1.261 . S
N108 Co59 2.214 . S
N108 C106 1.325 . S
N108 C107 1.261 . S
C109 H79 0.931 . S
C109 C106 1.357 . S
C109 C110 1.312 . S
C110 H81 0.930 . S
C110 C105 1.261 . S
C110 C109 1.312 . S
C111 O83 1.214 . S
C111 O91 1.234 . S
C112 H84 0.929 . S
C112 C115 1.391 . S
C112 C117 1.391 . S
C113 H85 0.929 . S
C113 C114 1.390 . S
C113 N116 1.391 . S
C114 H86 0.930 . S
C114 C113 1.390 . S
C114 C115 1.392 . S
C115 H87 0.929 . S
C115 C112 1.391 . S
C115 C114 1.392 . S
N116 Co60 2.257 1_565 S
N116 C113 1.391 . S
N116 C117 1.388 . S
C117 H88 0.930 . S
C117 C112 1.391 . S
C117 N116 1.388 . S
Co118 O120 2.143 . S
Co118 O126 2.074 . S
Co118 O129 2.093 . S
Co118 O142 2.097 . S
Co118 N159 2.151 . S
Co118 N167 2.214 . S
Co119 O120 2.160 . S
Co119 O125 2.058 . S
Co119 O135 2.057 . S
Co119 O150 2.037 . S
Co119 N154 2.145 1_655 S
Co119 N175 2.257 1_655 S
O120 Co118 2.143 . S
O120 Co119 2.160 . S
C121 O122 1.278 . S
C121 O129 1.224 . S
O122 C121 1.278 . S
C123 O124 1.245 . S
C123 O135 1.232 . S
O124 C123 1.245 . S
O125 Co119 2.058 . S
O125 C151 1.269 . S
O126 Co118 2.074 . S
O126 C151 1.257 . S
H127 C152 0.930 . S
H128 C158 0.930 . S
O129 Co118 2.093 . S
O129 C121 1.224 . S
H130 C162 0.929 . S
H131 C164 0.930 . S
H132 C165 0.930 . S
H133 C163 0.929 . S
H134 C166 0.928 . S
O135 Co119 2.057 . S
O135 C123 1.232 . S
H136 C155 0.929 . S
H137 C156 0.929 . S
H138 C168 0.931 . S
H139 C160 0.929 . S
H140 C169 0.930 . S
H141 C161 0.931 . S
O142 Co118 2.097 . S
O142 C170 1.214 . S
H143 C171 0.929 . S
H144 C172 0.929 . S
H145 C173 0.930 . S
H146 C174 0.929 . S
H147 C176 0.930 . S
H148 C153 0.930 . S
H149 C157 0.930 . S
O150 Co119 2.037 . S
O150 C170 1.234 . S
C151 O125 1.269 . S
C151 O126 1.257 . S
C152 H127 0.930 . S
C152 C155 1.388 . S
C152 C157 1.418 . S
C153 H148 0.930 . S
C153 C156 1.404 . S
C153 C157 1.353 . S
N154 Co119 2.145 1_455 S
N154 C155 1.397 . S
N154 C156 1.334 . S
C155 H136 0.929 . S
C155 C152 1.388 . S
C155 N154 1.397 . S
C156 H137 0.929 . S
C156 C153 1.404 . S
C156 N154 1.334 . S
C157 H149 0.930 . S
C157 C152 1.418 . S
C157 C153 1.353 . S
C158 H128 0.930 . S
C158 N159 1.330 . S
C158 C160 1.446 . S
N159 Co118 2.151 . S
N159 C158 1.330 . S
N159 C163 1.418 . S
C160 H139 0.929 . S
C160 C158 1.446 . S
C160 C161 1.332 . S
C161 H141 0.931 . S
C161 C160 1.332 . S
C161 C162 1.267 . S
C162 H130 0.929 . S
C162 C161 1.267 . S
C162 C163 1.251 . S
C163 H133 0.929 . S
C163 N159 1.418 . S
C163 C162 1.251 . S
C164 H131 0.930 . S
C164 C166 1.406 . S
C164 C169 1.261 . S
C165 H132 0.930 . S
C165 N167 1.325 . S
C165 C168 1.357 . S
C166 H134 0.928 . S
C166 C164 1.406 . S
C166 N167 1.261 . S
N167 Co118 2.214 . S
N167 C165 1.325 . S
N167 C166 1.261 . S
C168 H138 0.931 . S
C168 C165 1.357 . S
C168 C169 1.312 . S
C169 H140 0.930 . S
C169 C164 1.261 . S
C169 C168 1.312 . S
C170 O142 1.214 . S
C170 O150 1.234 . S
C171 H143 0.929 . S
C171 C174 1.391 . S
C171 C176 1.391 . S
C172 H144 0.929 . S
C172 C173 1.390 . S
C172 N175 1.391 . S
C173 H145 0.930 . S
C173 C172 1.390 . S
C173 C174 1.392 . S
C174 H146 0.929 . S
C174 C171 1.391 . S
C174 C173 1.392 . S
N175 Co119 2.257 1_455 S
N175 C172 1.391 . S
N175 C176 1.388 . S
C176 H147 0.930 . S
C176 C171 1.391 . S
C176 N175 1.388 . S
Co177 O179 2.143 . S
Co177 O185 2.074 . S
Co177 O188 2.093 . S
Co177 O201 2.097 . S
Co177 N218 2.151 . S
Co177 N226 2.214 . S
Co178 O179 2.160 . S
Co178 O184 2.058 . S
Co178 O194 2.057 . S
Co178 O209 2.037 . S
Co178 N213 2.145 1_565 S
Co178 N234 2.257 1_565 S
O179 Co177 2.143 . S
O179 Co178 2.160 . S
C180 O181 1.278 . S
C180 O188 1.224 . S
O181 C180 1.278 . S
C182 O183 1.245 . S
C182 O194 1.232 . S
O183 C182 1.245 . S
O184 Co178 2.058 . S
O184 C210 1.269 . S
O185 Co177 2.074 . S
O185 C210 1.257 . S
H186 C211 0.930 . S
H187 C217 0.930 . S
O188 Co177 2.093 . S
O188 C180 1.224 . S
H189 C221 0.929 . S
H190 C223 0.930 . S
H191 C224 0.930 . S
H192 C222 0.929 . S
H193 C225 0.928 . S
O194 Co178 2.057 . S
O194 C182 1.232 . S
H195 C214 0.929 . S
H196 C215 0.929 . S
H197 C227 0.931 . S
H198 C219 0.929 . S
H199 C228 0.930 . S
H200 C220 0.931 . S
O201 Co177 2.097 . S
O201 C229 1.214 . S
H202 C230 0.929 . S
H203 C231 0.929 . S
H204 C232 0.930 . S
H205 C233 0.929 . S
H206 C235 0.930 . S
H207 C212 0.930 . S
H208 C216 0.930 . S
O209 Co178 2.037 . S
O209 C229 1.234 . S
C210 O184 1.269 . S
C210 O185 1.257 . S
C211 H186 0.930 . S
C211 C214 1.388 . S
C211 C216 1.418 . S
C212 H207 0.930 . S
C212 C215 1.404 . S
C212 C216 1.353 . S
N213 Co178 2.145 1_545 S
N213 C214 1.397 . S
N213 C215 1.334 . S
C214 H195 0.929 . S
C214 C211 1.388 . S
C214 N213 1.397 . S
C215 H196 0.929 . S
C215 C212 1.404 . S
C215 N213 1.334 . S
C216 H208 0.930 . S
C216 C211 1.418 . S
C216 C212 1.353 . S
C217 H187 0.930 . S
C217 N218 1.330 . S
C217 C219 1.446 . S
N218 Co177 2.151 . S
N218 C217 1.330 . S
N218 C222 1.418 . S
C219 H198 0.929 . S
C219 C217 1.446 . S
C219 C220 1.332 . S
C220 H200 0.931 . S
C220 C219 1.332 . S
C220 C221 1.267 . S
C221 H189 0.929 . S
C221 C220 1.267 . S
C221 C222 1.251 . S
C222 H192 0.929 . S
C222 N218 1.418 . S
C222 C221 1.251 . S
C223 H190 0.930 . S
C223 C225 1.406 . S
C223 C228 1.261 . S
C224 H191 0.930 . S
C224 N226 1.325 . S
C224 C227 1.357 . S
C225 H193 0.928 . S
C225 C223 1.406 . S
C225 N226 1.261 . S
N226 Co177 2.214 . S
N226 C224 1.325 . S
N226 C225 1.261 . S
C227 H197 0.931 . S
C227 C224 1.357 . S
C227 C228 1.312 . S
C228 H199 0.930 . S
C228 C223 1.261 . S
C228 C227 1.312 . S
C229 O201 1.214 . S
C229 O209 1.234 . S
C230 H202 0.929 . S
C230 C233 1.391 . S
C230 C235 1.391 . S
C231 H203 0.929 . S
C231 C232 1.390 . S
C231 N234 1.391 . S
C232 H204 0.930 . S
C232 C231 1.390 . S
C232 C233 1.392 . S
C233 H205 0.929 . S
C233 C230 1.391 . S
C233 C232 1.392 . S
N234 Co178 2.257 1_545 S
N234 C231 1.391 . S
N234 C235 1.388 . S
C235 H206 0.930 . S
C235 C230 1.391 . S
C235 N234 1.388 . S
Co236 O238 2.143 . S
Co236 O244 2.074 . S
Co236 O247 2.093 . S
Co236 O260 2.097 . S
Co236 N277 2.151 . S
Co236 N285 2.214 . S
Co237 O238 2.160 . S
Co237 O243 2.058 . S
Co237 O253 2.057 . S
Co237 O268 2.037 . S
Co237 N272 2.145 1_455 S
Co237 N293 2.257 1_455 S
O238 Co236 2.143 . S
O238 Co237 2.160 . S
C239 O240 1.278 . S
C239 O247 1.224 . S
O240 C239 1.278 . S
C241 O242 1.245 . S
C241 O253 1.232 . S
O242 C241 1.245 . S
O243 Co237 2.058 . S
O243 C269 1.269 . S
O244 Co236 2.074 . S
O244 C269 1.257 . S
H245 C270 0.930 . S
H246 C276 0.930 . S
O247 Co236 2.093 . S
O247 C239 1.224 . S
H248 C280 0.929 . S
H249 C282 0.930 . S
H250 C283 0.930 . S
H251 C281 0.929 . S
H252 C284 0.928 . S
O253 Co237 2.057 . S
O253 C241 1.232 . S
H254 C273 0.929 . S
H255 C274 0.929 . S
H256 C286 0.931 . S
H257 C278 0.929 . S
H258 C287 0.930 . S
H259 C279 0.931 . S
O260 Co236 2.097 . S
O260 C288 1.214 . S
H261 C289 0.929 . S
H262 C290 0.929 . S
H263 C291 0.930 . S
H264 C292 0.929 . S
H265 C294 0.930 . S
H266 C271 0.930 . S
H267 C275 0.930 . S
O268 Co237 2.037 . S
O268 C288 1.234 . S
C269 O243 1.269 . S
C269 O244 1.257 . S
C270 H245 0.930 . S
C270 C273 1.388 . S
C270 C275 1.418 . S
C271 H266 0.930 . S
C271 C274 1.404 . S
C271 C275 1.353 . S
N272 Co237 2.145 1_655 S
N272 C273 1.397 . S
N272 C274 1.334 . S
C273 H254 0.929 . S
C273 C270 1.388 . S
C273 N272 1.397 . S
C274 H255 0.929 . S
C274 C271 1.404 . S
C274 N272 1.334 . S
C275 H267 0.930 . S
C275 C270 1.418 . S
C275 C271 1.353 . S
C276 H246 0.930 . S
C276 N277 1.330 . S
C276 C278 1.446 . S
N277 Co236 2.151 . S
N277 C276 1.330 . S
N277 C281 1.418 . S
C278 H257 0.929 . S
C278 C276 1.446 . S
C278 C279 1.332 . S
C279 H259 0.931 . S
C279 C278 1.332 . S
C279 C280 1.267 . S
C280 H248 0.929 . S
C280 C279 1.267 . S
C280 C281 1.251 . S
C281 H251 0.929 . S
C281 N277 1.418 . S
C281 C280 1.251 . S
C282 H249 0.930 . S
C282 C284 1.406 . S
C282 C287 1.261 . S
C283 H250 0.930 . S
C283 N285 1.325 . S
C283 C286 1.357 . S
C284 H252 0.928 . S
C284 C282 1.406 . S
C284 N285 1.261 . S
N285 Co236 2.214 . S
N285 C283 1.325 . S
N285 C284 1.261 . S
C286 H256 0.931 . S
C286 C283 1.357 . S
C286 C287 1.312 . S
C287 H258 0.930 . S
C287 C282 1.261 . S
C287 C286 1.312 . S
C288 O260 1.214 . S
C288 O268 1.234 . S
C289 H261 0.929 . S
C289 C292 1.391 . S
C289 C294 1.391 . S
C290 H262 0.929 . S
C290 C291 1.390 . S
C290 N293 1.391 . S
C291 H263 0.930 . S
C291 C290 1.390 . S
C291 C292 1.392 . S
C292 H264 0.929 . S
C292 C289 1.391 . S
C292 C291 1.392 . S
N293 Co237 2.257 1_655 S
N293 C290 1.391 . S
N293 C294 1.388 . S
C294 H265 0.930 . S
C294 C289 1.391 . S
C294 N293 1.388 . S
Co295 O297 2.143 . S
Co295 O303 2.074 . S
Co295 O306 2.093 . S
Co295 O319 2.097 . S
Co295 N336 2.151 . S
Co295 N344 2.214 . S
Co296 O297 2.160 . S
Co296 O302 2.058 . S
Co296 O312 2.057 . S
Co296 O327 2.037 . S
Co296 N331 2.145 1_545 S
Co296 N352 2.257 1_545 S
O297 Co295 2.143 . S
O297 Co296 2.160 . S
C298 O299 1.278 . S
C298 O306 1.224 . S
O299 C298 1.278 . S
C300 O301 1.245 . S
C300 O312 1.232 . S
O301 C300 1.245 . S
O302 Co296 2.058 . S
O302 C328 1.269 . S
O303 Co295 2.074 . S
O303 C328 1.257 . S
H304 C329 0.930 . S
H305 C335 0.930 . S
O306 Co295 2.093 . S
O306 C298 1.224 . S
H307 C339 0.929 . S
H308 C341 0.930 . S
H309 C342 0.930 . S
H310 C340 0.929 . S
H311 C343 0.928 . S
O312 Co296 2.057 . S
O312 C300 1.232 . S
H313 C332 0.929 . S
H314 C333 0.929 . S
H315 C345 0.931 . S
H316 C337 0.929 . S
H317 C346 0.930 . S
H318 C338 0.931 . S
O319 Co295 2.097 . S
O319 C347 1.214 . S
H320 C348 0.929 . S
H321 C349 0.929 . S
H322 C350 0.930 . S
H323 C351 0.929 . S
H324 C353 0.930 . S
H325 C330 0.930 . S
H326 C334 0.930 . S
O327 Co296 2.037 . S
O327 C347 1.234 . S
C328 O302 1.269 . S
C328 O303 1.257 . S
C329 H304 0.930 . S
C329 C332 1.388 . S
C329 C334 1.418 . S
C330 H325 0.930 . S
C330 C333 1.404 . S
C330 C334 1.353 . S
N331 Co296 2.145 1_565 S
N331 C332 1.397 . S
N331 C333 1.334 . S
C332 H313 0.929 . S
C332 C329 1.388 . S
C332 N331 1.397 . S
C333 H314 0.929 . S
C333 C330 1.404 . S
C333 N331 1.334 . S
C334 H326 0.930 . S
C334 C329 1.418 . S
C334 C330 1.353 . S
C335 H305 0.930 . S
C335 N336 1.330 . S
C335 C337 1.446 . S
N336 Co295 2.151 . S
N336 C335 1.330 . S
N336 C340 1.418 . S
C337 H316 0.929 . S
C337 C335 1.446 . S
C337 C338 1.332 . S
C338 H318 0.931 . S
C338 C337 1.332 . S
C338 C339 1.267 . S
C339 H307 0.929 . S
C339 C338 1.267 . S
C339 C340 1.251 . S
C340 H310 0.929 . S
C340 N336 1.418 . S
C340 C339 1.251 . S
C341 H308 0.930 . S
C341 C343 1.406 . S
C341 C346 1.261 . S
C342 H309 0.930 . S
C342 N344 1.325 . S
C342 C345 1.357 . S
C343 H311 0.928 . S
C343 C341 1.406 . S
C343 N344 1.261 . S
N344 Co295 2.214 . S
N344 C342 1.325 . S
N344 C343 1.261 . S
C345 H315 0.931 . S
C345 C342 1.357 . S
C345 C346 1.312 . S
C346 H317 0.930 . S
C346 C341 1.261 . S
C346 C345 1.312 . S
C347 O319 1.214 . S
C347 O327 1.234 . S
C348 H320 0.929 . S
C348 C351 1.391 . S
C348 C353 1.391 . S
C349 H321 0.929 . S
C349 C350 1.390 . S
C349 N352 1.391 . S
C350 H322 0.930 . S
C350 C349 1.390 . S
C350 C351 1.392 . S
C351 H323 0.929 . S
C351 C348 1.391 . S
C351 C350 1.392 . S
N352 Co296 2.257 1_565 S
N352 C349 1.391 . S
N352 C353 1.388 . S
C353 H324 0.930 . S
C353 C348 1.391 . S
C353 N352 1.388 . S
Co354 O356 2.143 . S
Co354 O362 2.074 . S
Co354 O365 2.093 . S
Co354 O378 2.097 . S
Co354 N395 2.151 . S
Co354 N403 2.214 . S
Co355 O356 2.160 . S
Co355 O361 2.058 . S
Co355 O371 2.057 . S
Co355 O386 2.037 . S
Co355 N390 2.145 1_655 S
Co355 N411 2.257 1_655 S
O356 Co354 2.143 . S
O356 Co355 2.160 . S
C357 O358 1.278 . S
C357 O365 1.224 . S
O358 C357 1.278 . S
C359 O360 1.245 . S
C359 O371 1.232 . S
O360 C359 1.245 . S
O361 Co355 2.058 . S
O361 C387 1.269 . S
O362 Co354 2.074 . S
O362 C387 1.257 . S
H363 C388 0.930 . S
H364 C394 0.930 . S
O365 Co354 2.093 . S
O365 C357 1.224 . S
H366 C398 0.929 . S
H367 C400 0.930 . S
H368 C401 0.930 . S
H369 C399 0.929 . S
H370 C402 0.928 . S
O371 Co355 2.057 . S
O371 C359 1.232 . S
H372 C391 0.929 . S
H373 C392 0.929 . S
H374 C404 0.931 . S
H375 C396 0.929 . S
H376 C405 0.930 . S
H377 C397 0.931 . S
O378 Co354 2.097 . S
O378 C406 1.214 . S
H379 C407 0.929 . S
H380 C408 0.929 . S
H381 C409 0.930 . S
H382 C410 0.929 . S
H383 C412 0.930 . S
H384 C389 0.930 . S
H385 C393 0.930 . S
O386 Co355 2.037 . S
O386 C406 1.234 . S
C387 O361 1.269 . S
C387 O362 1.257 . S
C388 H363 0.930 . S
C388 C391 1.388 . S
C388 C393 1.418 . S
C389 H384 0.930 . S
C389 C392 1.404 . S
C389 C393 1.353 . S
N390 Co355 2.145 1_455 S
N390 C391 1.397 . S
N390 C392 1.334 . S
C391 H372 0.929 . S
C391 C388 1.388 . S
C391 N390 1.397 . S
C392 H373 0.929 . S
C392 C389 1.404 . S
C392 N390 1.334 . S
C393 H385 0.930 . S
C393 C388 1.418 . S
C393 C389 1.353 . S
C394 H364 0.930 . S
C394 N395 1.330 . S
C394 C396 1.446 . S
N395 Co354 2.151 . S
N395 C394 1.330 . S
N395 C399 1.418 . S
C396 H375 0.929 . S
C396 C394 1.446 . S
C396 C397 1.332 . S
C397 H377 0.931 . S
C397 C396 1.332 . S
C397 C398 1.267 . S
C398 H366 0.929 . S
C398 C397 1.267 . S
C398 C399 1.251 . S
C399 H369 0.929 . S
C399 N395 1.418 . S
C399 C398 1.251 . S
C400 H367 0.930 . S
C400 C402 1.406 . S
C400 C405 1.261 . S
C401 H368 0.930 . S
C401 N403 1.325 . S
C401 C404 1.357 . S
C402 H370 0.928 . S
C402 C400 1.406 . S
C402 N403 1.261 . S
N403 Co354 2.214 . S
N403 C401 1.325 . S
N403 C402 1.261 . S
C404 H374 0.931 . S
C404 C401 1.357 . S
C404 C405 1.312 . S
C405 H376 0.930 . S
C405 C400 1.261 . S
C405 C404 1.312 . S
C406 O378 1.214 . S
C406 O386 1.234 . S
C407 H379 0.929 . S
C407 C410 1.391 . S
C407 C412 1.391 . S
C408 H380 0.929 . S
C408 C409 1.390 . S
C408 N411 1.391 . S
C409 H381 0.930 . S
C409 C408 1.390 . S
C409 C410 1.392 . S
C410 H382 0.929 . S
C410 C407 1.391 . S
C410 C409 1.392 . S
N411 Co355 2.257 1_455 S
N411 C408 1.391 . S
N411 C412 1.388 . S
C412 H383 0.930 . S
C412 C407 1.391 . S
C412 N411 1.388 . S
Co413 O415 2.143 . S
Co413 O421 2.074 . S
Co413 O424 2.093 . S
Co413 O437 2.097 . S
Co413 N454 2.151 . S
Co413 N462 2.214 . S
Co414 O415 2.160 . S
Co414 O420 2.058 . S
Co414 O430 2.057 . S
Co414 O445 2.037 . S
Co414 N449 2.145 1_565 S
Co414 N470 2.257 1_565 S
O415 Co413 2.143 . S
O415 Co414 2.160 . S
C416 O417 1.278 . S
C416 O424 1.224 . S
O417 C416 1.278 . S
C418 O419 1.245 . S
C418 O430 1.232 . S
O419 C418 1.245 . S
O420 Co414 2.058 . S
O420 C446 1.269 . S
O421 Co413 2.074 . S
O421 C446 1.257 . S
H422 C447 0.930 . S
H423 C453 0.930 . S
O424 Co413 2.093 . S
O424 C416 1.224 . S
H425 C457 0.929 . S
H426 C459 0.930 . S
H427 C460 0.930 . S
H428 C458 0.929 . S
H429 C461 0.928 . S
O430 Co414 2.057 . S
O430 C418 1.232 . S
H431 C450 0.929 . S
H432 C451 0.929 . S
H433 C463 0.931 . S
H434 C455 0.929 . S
H435 C464 0.930 . S
H436 C456 0.931 . S
O437 Co413 2.097 . S
O437 C465 1.214 . S
H438 C466 0.929 . S
H439 C467 0.929 . S
H440 C468 0.930 . S
H441 C469 0.929 . S
H442 C471 0.930 . S
H443 C448 0.930 . S
H444 C452 0.930 . S
O445 Co414 2.037 . S
O445 C465 1.234 . S
C446 O420 1.269 . S
C446 O421 1.257 . S
C447 H422 0.930 . S
C447 C450 1.388 . S
C447 C452 1.418 . S
C448 H443 0.930 . S
C448 C451 1.404 . S
C448 C452 1.353 . S
N449 Co414 2.145 1_545 S
N449 C450 1.397 . S
N449 C451 1.334 . S
C450 H431 0.929 . S
C450 C447 1.388 . S
C450 N449 1.397 . S
C451 H432 0.929 . S
C451 C448 1.404 . S
C451 N449 1.334 . S
C452 H444 0.930 . S
C452 C447 1.418 . S
C452 C448 1.353 . S
C453 H423 0.930 . S
C453 N454 1.330 . S
C453 C455 1.446 . S
N454 Co413 2.151 . S
N454 C453 1.330 . S
N454 C458 1.418 . S
C455 H434 0.929 . S
C455 C453 1.446 . S
C455 C456 1.332 . S
C456 H436 0.931 . S
C456 C455 1.332 . S
C456 C457 1.267 . S
C457 H425 0.929 . S
C457 C456 1.267 . S
C457 C458 1.251 . S
C458 H428 0.929 . S
C458 N454 1.418 . S
C458 C457 1.251 . S
C459 H426 0.930 . S
C459 C461 1.406 . S
C459 C464 1.261 . S
C460 H427 0.930 . S
C460 N462 1.325 . S
C460 C463 1.357 . S
C461 H429 0.928 . S
C461 C459 1.406 . S
C461 N462 1.261 . S
N462 Co413 2.214 . S
N462 C460 1.325 . S
N462 C461 1.261 . S
C463 H433 0.931 . S
C463 C460 1.357 . S
C463 C464 1.312 . S
C464 H435 0.930 . S
C464 C459 1.261 . S
C464 C463 1.312 . S
C465 O437 1.214 . S
C465 O445 1.234 . S
C466 H438 0.929 . S
C466 C469 1.391 . S
C466 C471 1.391 . S
C467 H439 0.929 . S
C467 C468 1.390 . S
C467 N470 1.391 . S
C468 H440 0.930 . S
C468 C467 1.390 . S
C468 C469 1.392 . S
C469 H441 0.929 . S
C469 C466 1.391 . S
C469 C468 1.392 . S
N470 Co414 2.257 1_545 S
N470 C467 1.391 . S
N470 C471 1.388 . S
C471 H442 0.930 . S
C471 C466 1.391 . S
C471 N470 1.388 . S
C472 C473 1.391 . S
C472 C474 1.394 . S
C472 H488 0.931 . S
C473 C472 1.391 . S
C473 C477 1.376 1_455 S
C474 C472 1.394 . S
C474 C475 1.369 1_455 S
C474 C478 1.531 . S
C475 C474 1.369 1_655 S
C475 C476 1.410 . S
C475 C483 1.503 . S
C476 C475 1.410 . S
C476 C477 1.392 . S
C476 C479 1.511 . S
C477 C473 1.376 1_655 S
C477 C476 1.392 . S
C477 H489 0.929 . S
C478 C474 1.531 . S
C478 H490 0.960 1_455 S
C478 H491 0.962 . S
C478 H492 0.960 . S
C479 C476 1.511 . S
C479 H493 0.961 . S
C479 H494 0.961 . S
C479 H495 0.961 . S
C480 C481 1.370 1_455 S
C480 C482 1.363 . S
C480 H496 0.931 . S
C481 C480 1.370 1_655 S
C481 C485 1.408 . S
C482 C480 1.363 . S
C482 C483 1.370 1_455 S
C482 C486 1.524 . S
C483 C475 1.503 . S
C483 C482 1.370 1_655 S
C483 C484 1.403 . S
C484 C483 1.403 . S
C484 C485 1.404 . S
C484 C487 1.539 . S
C485 C481 1.408 . S
C485 C484 1.404 . S
C485 H497 0.930 . S
C486 C482 1.524 . S
C486 H498 0.956 . S
C486 H499 0.961 . S
C486 H500 0.961 . S
C487 C484 1.539 . S
C487 H501 0.958 . S
C487 H502 0.961 . S
C487 H503 0.960 . S
H488 C472 0.931 . S
H489 C477 0.929 . S
H490 C478 0.960 1_655 S
H491 C478 0.962 . S
H492 C478 0.960 . S
H493 C479 0.961 . S
H494 C479 0.961 . S
H495 C479 0.961 . S
H496 C480 0.931 . S
H497 C485 0.930 . S
H498 C486 0.956 . S
H499 C486 0.961 . S
H500 C486 0.961 . S
H501 C487 0.958 . S
H502 C487 0.961 . S
H503 C487 0.960 . S
C504 C505 1.391 . S
C504 C506 1.394 . S
C504 H520 0.931 . S
C505 C504 1.391 . S
C505 C509 1.376 1_565 S
C506 C504 1.394 . S
C506 C507 1.369 1_565 S
C506 C510 1.531 . S
C507 C506 1.369 1_545 S
C507 C508 1.410 . S
C507 C515 1.503 . S
C508 C507 1.410 . S
C508 C509 1.392 . S
C508 C511 1.511 . S
C509 C505 1.376 1_545 S
C509 C508 1.392 . S
C509 H521 0.929 . S
C510 C506 1.531 . S
C510 H522 0.960 . S
C510 H523 0.962 . S
C510 H524 0.960 . S
C511 C508 1.511 . S
C511 H525 0.961 . S
C511 H526 0.961 . S
C511 H527 0.961 . S
C512 C513 1.370 1_565 S
C512 C514 1.363 . S
C512 H528 0.931 . S
C513 C512 1.370 1_545 S
C513 C517 1.408 . S
C514 C512 1.363 . S
C514 C515 1.370 1_565 S
C514 C518 1.524 . S
C515 C507 1.503 . S
C515 C514 1.370 1_545 S
C515 C516 1.403 . S
C516 C515 1.403 . S
C516 C517 1.404 . S
C516 C519 1.539 . S
C517 C513 1.408 . S
C517 C516 1.404 . S
C517 H529 0.930 . S
C518 C514 1.524 . S
C518 H530 0.956 . S
C518 H531 0.961 . S
C518 H532 0.961 . S
C519 C516 1.539 . S
C519 H533 0.958 . S
C519 H534 0.961 . S
C519 H535 0.960 . S
H520 C504 0.931 . S
H521 C509 0.929 . S
H522 C510 0.960 . S
H523 C510 0.962 . S
H524 C510 0.960 . S
H525 C511 0.961 . S
H526 C511 0.961 . S
H527 C511 0.961 . S
H528 C512 0.931 . S
H529 C517 0.930 . S
H530 C518 0.956 . S
H531 C518 0.961 . S
H532 C518 0.961 . S
H533 C519 0.958 . S
H534 C519 0.961 . S
H535 C519 0.960 . S
C536 C537 1.391 . S
C536 C538 1.394 . S
C536 H552 0.931 . S
C537 C536 1.391 . S
C537 C541 1.376 1_655 S
C538 C536 1.394 . S
C538 C539 1.369 1_655 S
C538 C542 1.531 . S
C539 C538 1.369 1_455 S
C539 C540 1.410 . S
C539 C547 1.503 . S
C540 C539 1.410 . S
C540 C541 1.392 . S
C540 C543 1.511 . S
C541 C537 1.376 1_455 S
C541 C540 1.392 . S
C541 H553 0.929 . S
C542 C538 1.531 . S
C542 H554 0.960 . S
C542 H555 0.962 . S
C542 H556 0.960 . S
C543 C540 1.511 . S
C543 H557 0.961 . S
C543 H558 0.961 . S
C543 H559 0.961 . S
C544 C545 1.370 1_655 S
C544 C546 1.363 . S
C544 H560 0.931 . S
C545 C544 1.370 1_455 S
C545 C549 1.408 . S
C546 C544 1.363 . S
C546 C547 1.370 1_655 S
C546 C550 1.524 . S
C547 C539 1.503 . S
C547 C546 1.370 1_455 S
C547 C548 1.403 . S
C548 C547 1.403 . S
C548 C549 1.404 . S
C548 C551 1.539 . S
C549 C545 1.408 . S
C549 C548 1.404 . S
C549 H561 0.930 . S
C550 C546 1.524 . S
C550 H562 0.956 . S
C550 H563 0.961 . S
C550 H564 0.961 . S
C551 C548 1.539 . S
C551 H565 0.958 . S
C551 H566 0.961 . S
C551 H567 0.960 . S
H552 C536 0.931 . S
H553 C541 0.929 . S
H554 C542 0.960 . S
H555 C542 0.962 . S
H556 C542 0.960 . S
H557 C543 0.961 . S
H558 C543 0.961 . S
H559 C543 0.961 . S
H560 C544 0.931 . S
H561 C549 0.930 . S
H562 C550 0.956 . S
H563 C550 0.961 . S
H564 C550 0.961 . S
H565 C551 0.958 . S
H566 C551 0.961 . S
H567 C551 0.960 . S
C568 C569 1.391 . S
C568 C570 1.394 . S
C568 H584 0.931 . S
C569 C568 1.391 . S
C569 C573 1.376 1_545 S
C570 C568 1.394 . S
C570 C571 1.369 1_545 S
C570 C574 1.531 . S
C571 C570 1.369 1_565 S
C571 C572 1.410 . S
C571 C579 1.503 . S
C572 C571 1.410 . S
C572 C573 1.392 . S
C572 C575 1.511 . S
C573 C569 1.376 1_565 S
C573 C572 1.392 . S
C573 H585 0.929 . S
C574 C570 1.531 . S
C574 H586 0.960 . S
C574 H587 0.962 . S
C574 H588 0.960 . S
C575 C572 1.511 . S
C575 H589 0.961 . S
C575 H590 0.961 . S
C575 H591 0.961 . S
C576 C577 1.370 1_545 S
C576 C578 1.363 . S
C576 H592 0.931 . S
C577 C576 1.370 1_565 S
C577 C581 1.408 . S
C578 C576 1.363 . S
C578 C579 1.370 1_545 S
C578 C582 1.524 . S
C579 C571 1.503 . S
C579 C578 1.370 1_565 S
C579 C580 1.403 . S
C580 C579 1.403 . S
C580 C581 1.404 . S
C580 C583 1.539 . S
C581 C577 1.408 . S
C581 C580 1.404 . S
C581 H593 0.930 . S
C582 C578 1.524 . S
C582 H594 0.956 . S
C582 H595 0.961 . S
C582 H596 0.961 . S
C583 C580 1.539 . S
C583 H597 0.958 . S
C583 H598 0.961 . S
C583 H599 0.960 . S
H584 C568 0.931 . S
H585 C573 0.929 . S
H586 C574 0.960 . S
H587 C574 0.962 . S
H588 C574 0.960 . S
H589 C575 0.961 . S
H590 C575 0.961 . S
H591 C575 0.961 . S
H592 C576 0.931 . S
H593 C581 0.930 . S
H594 C582 0.956 . S
H595 C582 0.961 . S
H596 C582 0.961 . S
H597 C583 0.958 . S
H598 C583 0.961 . S
H599 C583 0.960 . S
C600 C601 1.391 . S
C600 C602 1.394 1_655 S
C600 H616 0.931 1_655 S
C601 C600 1.391 . S
C601 C605 1.376 . S
C602 C600 1.394 1_455 S
C602 C603 1.369 1_455 S
C602 C606 1.531 . S
C603 C602 1.369 1_655 S
C603 C604 1.410 . S
C603 C611 1.503 1_656 S
C604 C603 1.410 . S
C604 C605 1.392 . S
C604 C607 1.511 1_556 S
C605 C601 1.376 . S
C605 C604 1.392 . S
C605 H617 0.929 . S
C606 C602 1.531 . S
C606 H618 0.960 . S
C606 H619 0.962 . S
C606 H620 0.960 . S
C607 C604 1.511 1_554 S
C607 H621 0.961 . S
C607 H622 0.961 . S
C607 H623 0.961 . S
C608 C609 1.370 . S
C608 C610 1.363 . S
C608 H624 0.931 . S
C609 C608 1.370 . S
C609 C613 1.408 . S
C610 C608 1.363 . S
C610 C611 1.370 . S
C610 C614 1.524 1_455 S
C611 C603 1.503 1_454 S
C611 C610 1.370 . S
C611 C612 1.403 . S
C612 C611 1.403 . S
C612 C613 1.404 . S
C612 C615 1.539 . S
C613 C609 1.408 . S
C613 C612 1.404 . S
C613 H625 0.930 . S
C614 C610 1.524 1_655 S
C614 H626 0.956 1_654 S
C614 H627 0.961 . S
C614 H628 0.961 . S
C615 C612 1.539 . S
C615 H629 0.958 . S
C615 H630 0.961 . S
C615 H631 0.968 . S
H616 C600 0.931 1_455 S
H617 C605 0.929 . S
H618 C606 0.960 . S
H619 C606 0.962 . S
H620 C606 0.960 . S
H621 C607 0.961 . S
H622 C607 0.961 . S
H623 C607 0.961 . S
H624 C608 0.931 . S
H625 C613 0.930 . S
H626 C614 0.956 1_456 S
H627 C614 0.961 . S
H628 C614 0.961 . S
H629 C615 0.958 . S
H630 C615 0.961 . S
H631 C615 0.968 . S
C632 C633 1.391 . S
C632 C634 1.394 . S
C632 H648 0.931 . S
C633 C632 1.391 . S
C633 C637 1.376 . S
C634 C632 1.394 . S
C634 C635 1.369 . S
C634 C638 1.531 . S
C635 C634 1.369 . S
C635 C636 1.410 1_545 S
C635 C643 1.503 1_545 S
C636 C635 1.410 1_565 S
C636 C637 1.392 1_565 S
C636 C639 1.511 . S
C637 C633 1.376 . S
C637 C636 1.392 1_545 S
C637 H649 0.929 . S
C638 C634 1.531 . S
C638 H650 0.960 . S
C638 H651 0.962 . S
C638 H652 0.960 . S
C639 C636 1.511 . S
C639 H653 0.961 . S
C639 H654 0.961 . S
C639 H655 0.961 . S
C640 C641 1.370 . S
C640 C642 1.363 1_565 S
C640 H656 0.931 1_565 S
C641 C640 1.370 . S
C641 C645 1.408 . S
C642 C640 1.363 1_545 S
C642 C643 1.370 1_545 S
C642 C646 1.524 . S
C643 C635 1.503 1_565 S
C643 C642 1.370 1_565 S
C643 C644 1.403 . S
C644 C643 1.403 . S
C644 C645 1.404 . S
C644 C647 1.539 . S
C645 C641 1.408 . S
C645 C644 1.404 . S
C645 H657 0.930 . S
C646 C642 1.524 . S
C646 H658 0.956 . S
C646 H659 0.961 . S
C646 H660 0.961 . S
C647 C644 1.539 . S
C647 H661 0.958 . S
C647 H662 0.961 . S
C647 H663 0.960 . S
H648 C632 0.931 . S
H649 C637 0.929 . S
H650 C638 0.960 . S
H651 C638 0.962 . S
H652 C638 0.960 . S
H653 C639 0.961 . S
H654 C639 0.961 . S
H655 C639 0.961 . S
H656 C640 0.931 1_545 S
H657 C645 0.930 . S
H658 C646 0.956 . S
H659 C646 0.961 . S
H660 C646 0.961 . S
H661 C647 0.958 . S
H662 C647 0.961 . S
H663 C647 0.960 . S
C664 C665 1.391 . S
C664 C666 1.394 1_655 S
C664 H680 0.931 1_655 S
C665 C664 1.391 . S
C665 C669 1.376 . S
C666 C664 1.394 1_455 S
C666 C667 1.369 1_455 S
C666 C670 1.531 . S
C667 C666 1.369 1_655 S
C667 C668 1.410 . S
C667 C675 1.503 1_654 S
C668 C667 1.410 . S
C668 C669 1.392 . S
C668 C671 1.511 1_554 S
C669 C665 1.376 . S
C669 C668 1.392 . S
C669 H681 0.929 . S
C670 C666 1.531 . S
C670 H682 0.960 . S
C670 H683 0.962 . S
C670 H684 0.960 . S
C671 C668 1.511 1_556 S
C671 H685 0.961 . S
C671 H686 0.961 . S
C671 H687 0.961 . S
C672 C673 1.370 . S
C672 C674 1.363 . S
C672 H688 0.931 . S
C673 C672 1.370 . S
C673 C677 1.408 . S
C674 C672 1.363 . S
C674 C675 1.370 . S
C674 C678 1.524 . S
C675 C667 1.503 1_456 S
C675 C674 1.370 . S
C675 C676 1.403 . S
C676 C675 1.403 . S
C676 C677 1.404 . S
C676 C679 1.539 1_455 S
C677 C673 1.408 . S
C677 C676 1.404 . S
C677 H689 0.930 . S
C678 C674 1.524 . S
C678 H690 0.956 1_556 S
C678 H691 0.961 1_556 S
C678 H692 0.961 . S
C679 C676 1.539 1_655 S
C679 H693 0.958 . S
C679 H694 0.961 . S
C679 H695 0.960 . S
H680 C664 0.931 1_455 S
H681 C669 0.929 . S
H682 C670 0.960 . S
H683 C670 0.962 . S
H684 C670 0.960 . S
H685 C671 0.961 . S
H686 C671 0.961 . S
H687 C671 0.961 . S
H688 C672 0.931 . S
H689 C677 0.930 . S
H690 C678 0.956 1_554 S
H691 C678 0.961 1_554 S
H692 C678 0.961 . S
H693 C679 0.958 . S
H694 C679 0.961 . S
H695 C679 0.960 . S
C696 C697 1.391 . S
C696 C698 1.394 . S
C696 H712 0.931 . S
C697 C696 1.391 . S
C697 C701 1.376 . S
C698 C696 1.394 . S
C698 C699 1.369 . S
C698 C702 1.531 . S
C699 C698 1.369 . S
C699 C700 1.415 . S
C699 C707 1.503 1_545 S
C700 C699 1.415 . S
C700 C701 1.398 . S
C700 C703 1.501 1_545 S
C701 C697 1.376 . S
C701 C700 1.398 . S
C701 H713 0.929 . S
C702 C698 1.531 . S
C702 H714 0.960 . S
C702 H715 0.962 . S
C702 H716 0.960 . S
C703 C700 1.501 1_565 S
C703 H717 0.961 . S
C703 H718 0.961 . S
C703 H719 0.961 . S
C704 C705 1.370 . S
C704 C706 1.363 . S
C704 H720 0.931 . S
C705 C704 1.370 . S
C705 C709 1.408 . S
C706 C704 1.363 . S
C706 C707 1.370 . S
C706 C710 1.524 . S
C707 C699 1.503 1_565 S
C707 C706 1.370 . S
C707 C708 1.403 1_565 S
C708 C707 1.403 1_545 S
C708 C709 1.404 1_545 S
C708 C711 1.539 . S
C709 C705 1.408 . S
C709 C708 1.404 1_565 S
C709 H721 0.930 . S
C710 C706 1.524 . S
C710 H722 0.956 . S
C710 H723 0.961 . S
C710 H724 0.961 . S
C711 C708 1.539 . S
C711 H725 0.958 . S
C711 H726 0.961 . S
C711 H727 0.960 . S
H712 C696 0.931 . S
H713 C701 0.929 . S
H714 C702 0.960 . S
H715 C702 0.962 . S
H716 C702 0.960 . S
H717 C703 0.961 . S
H718 C703 0.961 . S
H719 C703 0.961 . S
H720 C704 0.931 . S
H721 C709 0.930 . S
H722 C710 0.956 . S
H723 C710 0.961 . S
H724 C710 0.961 . S
H725 C711 0.958 . S
H726 C711 0.961 . S
H727 C711 0.960 . S
C728 C729 1.391 . S
C728 C730 1.394 . S
C728 H744 0.931 . S
C729 C728 1.391 . S
C729 C733 1.376 . S
C730 C728 1.394 . S
C730 C731 1.369 . S
C730 C734 1.531 . S
C731 C730 1.369 . S
C731 C732 1.410 . S
C731 C739 1.503 . S
C732 C731 1.410 . S
C732 C733 1.392 . S
C732 C735 1.511 . S
C733 C729 1.376 . S
C733 C732 1.392 . S
C733 H745 0.929 . S
C734 C730 1.531 . S
C734 H746 0.960 . S
C734 H747 0.962 . S
C734 H748 0.960 . S
C735 C732 1.511 . S
C735 H749 0.961 . S
C735 H750 0.961 . S
C735 H751 0.961 . S
C736 C737 1.370 . S
C736 C738 1.363 . S
C736 H752 0.931 . S
C737 C736 1.370 . S
C737 C741 1.408 . S
C738 C736 1.363 . S
C738 C739 1.370 . S
C738 C742 1.524 . S
C739 C731 1.503 . S
C739 C738 1.370 . S
C739 C740 1.403 . S
C740 C739 1.403 . S
C740 C741 1.404 . S
C740 C743 1.539 . S
C741 C737 1.408 . S
C741 C740 1.404 . S
C741 H753 0.930 . S
C742 C738 1.524 . S
C742 H754 0.956 . S
C742 H755 0.961 . S
C742 H756 0.961 . S
C743 C740 1.539 . S
C743 H757 0.958 . S
C743 H758 0.961 . S
C743 H759 0.960 . S
H744 C728 0.931 . S
H745 C733 0.929 . S
H746 C734 0.960 . S
H747 C734 0.962 . S
H748 C734 0.960 . S
H749 C735 0.961 . S
H750 C735 0.961 . S
H751 C735 0.961 . S
H752 C736 0.931 . S
H753 C741 0.930 . S
H754 C742 0.956 . S
H755 C742 0.961 . S
H756 C742 0.961 . S
H757 C743 0.958 . S
H758 C743 0.961 . S
H759 C743 0.960 . S
C760 C761 1.391 . S
C760 C762 1.394 . S
C760 H776 0.931 . S
C761 C760 1.391 . S
C761 C765 1.376 . S
C762 C760 1.394 . S
C762 C763 1.369 . S
C762 C766 1.531 . S
C763 C762 1.369 . S
C763 C764 1.410 . S
C763 C771 1.503 . S
C764 C763 1.410 . S
C764 C765 1.392 . S
C764 C767 1.511 . S
C765 C761 1.376 . S
C765 C764 1.392 . S
C765 H777 0.929 . S
C766 C762 1.531 . S
C766 H778 0.960 . S
C766 H779 0.962 . S
C766 H780 0.960 . S
C767 C764 1.511 . S
C767 H781 0.961 . S
C767 H782 0.961 . S
C767 H783 0.961 . S
C768 C769 1.370 . S
C768 C770 1.363 . S
C768 H784 0.931 . S
C769 C768 1.370 . S
C769 C773 1.408 . S
C770 C768 1.363 . S
C770 C771 1.370 . S
C770 C774 1.524 . S
C771 C763 1.503 . S
C771 C770 1.370 . S
C771 C772 1.403 . S
C772 C771 1.403 . S
C772 C773 1.404 . S
C772 C775 1.539 . S
C773 C769 1.408 . S
C773 C772 1.404 . S
C773 H785 0.930 . S
C774 C770 1.524 . S
C774 H786 0.956 . S
C774 H787 0.961 . S
C774 H788 0.961 . S
C775 C772 1.539 . S
C775 H789 0.958 . S
C775 H790 0.961 . S
C775 H791 0.960 . S
H776 C760 0.931 . S
H777 C765 0.929 . S
H778 C766 0.960 . S
H779 C766 0.962 . S
H780 C766 0.960 . S
H781 C767 0.961 . S
H782 C767 0.961 . S
H783 C767 0.961 . S
H784 C768 0.931 . S
H785 C773 0.930 . S
H786 C774 0.956 . S
H787 C774 0.961 . S
H788 C774 0.961 . S
H789 C775 0.958 . S
H790 C775 0.961 . S
H791 C775 0.960 . S
C792 C793 1.391 . S
C792 C794 1.394 . S
C792 H808 0.931 . S
C793 C792 1.391 . S
C793 C797 1.376 . S
C794 C792 1.394 . S
C794 C795 1.369 . S
C794 C798 1.531 . S
C795 C794 1.369 . S
C795 C796 1.410 . S
C795 C803 1.503 . S
C796 C795 1.410 . S
C796 C797 1.392 . S
C796 C799 1.511 . S
C797 C793 1.376 . S
C797 C796 1.392 . S
C797 H809 0.929 . S
C798 C794 1.531 . S
C798 H810 0.960 . S
C798 H811 0.962 . S
C798 H812 0.960 . S
C799 C796 1.511 . S
C799 H813 0.961 . S
C799 H814 0.961 . S
C799 H815 0.961 . S
C800 C801 1.370 . S
C800 C802 1.363 . S
C800 H816 0.931 . S
C801 C800 1.370 . S
C801 C805 1.408 . S
C802 C800 1.363 . S
C802 C803 1.370 . S
C802 C806 1.524 . S
C803 C795 1.503 . S
C803 C802 1.370 . S
C803 C804 1.403 . S
C804 C803 1.403 . S
C804 C805 1.404 . S
C804 C807 1.539 . S
C805 C801 1.408 . S
C805 C804 1.404 . S
C805 H817 0.930 . S
C806 C802 1.524 . S
C806 H818 0.956 . S
C806 H819 0.961 . S
C806 H820 0.961 . S
C807 C804 1.539 . S
C807 H821 0.958 . S
C807 H822 0.961 . S
C807 H823 0.960 . S
H808 C792 0.931 . S
H809 C797 0.929 . S
H810 C798 0.960 . S
H811 C798 0.962 . S
H812 C798 0.960 . S
H813 C799 0.961 . S
H814 C799 0.961 . S
H815 C799 0.961 . S
H816 C800 0.931 . S
H817 C805 0.930 . S
H818 C806 0.956 . S
H819 C806 0.961 . S
H820 C806 0.961 . S
H821 C807 0.958 . S
H822 C807 0.961 . S
H823 C807 0.960 . S
C824 C825 1.391 . S
C824 C826 1.394 . S
C824 H840 0.931 . S
C825 C824 1.391 . S
C825 C829 1.376 . S
C826 C824 1.394 . S
C826 C827 1.369 . S
C826 C830 1.531 . S
C827 C826 1.369 . S
C827 C828 1.410 . S
C827 C835 1.503 . S
C828 C827 1.410 . S
C828 C829 1.392 . S
C828 C831 1.511 . S
C829 C825 1.376 . S
C829 C828 1.392 . S
C829 H841 0.929 . S
C830 C826 1.531 . S
C830 H842 0.960 . S
C830 H843 0.962 . S
C830 H844 0.960 . S
C831 C828 1.511 . S
C831 H845 0.961 . S
C831 H846 0.961 . S
C831 H847 0.961 . S
C832 C833 1.370 . S
C832 C834 1.363 . S
C832 H848 0.931 . S
C833 C832 1.370 . S
C833 C837 1.408 . S
C834 C832 1.363 . S
C834 C835 1.370 . S
C834 C838 1.524 . S
C835 C827 1.503 . S
C835 C834 1.370 . S
C835 C836 1.403 . S
C836 C835 1.403 . S
C836 C837 1.404 . S
C836 C839 1.539 . S
C837 C833 1.408 . S
C837 C836 1.404 . S
C837 H849 0.930 . S
C838 C834 1.524 . S
C838 H850 0.956 . S
C838 H851 0.961 . S
C838 H852 0.961 . S
C839 C836 1.539 . S
C839 H853 0.958 . S
C839 H854 0.961 . S
C839 H855 0.960 . S
H840 C824 0.931 . S
H841 C829 0.929 . S
H842 C830 0.960 . S
H843 C830 0.962 . S
H844 C830 0.960 . S
H845 C831 0.961 . S
H846 C831 0.961 . S
H847 C831 0.961 . S
H848 C832 0.931 . S
H849 C837 0.930 . S
H850 C838 0.956 . S
H851 C838 0.961 . S
H852 C838 0.961 . S
H853 C839 0.958 . S
H854 C839 0.961 . S
H855 C839 0.960 . S
C856 C857 1.391 1_655 S
C856 C858 1.394 . S
C856 H872 0.931 . S
C857 C856 1.391 1_455 S
C857 C861 1.376 . S
C858 C856 1.394 . S
C858 C859 1.369 1_655 S
C858 C862 1.531 . S
C859 C858 1.369 1_455 S
C859 C860 1.410 . S
C859 C867 1.503 1_445 S
C860 C859 1.410 . S
C860 C861 1.392 . S
C860 C863 1.511 . S
C861 C857 1.376 . S
C861 C860 1.392 . S
C861 H873 0.929 . S
C862 C858 1.531 . S
C862 H874 0.960 . S
C862 H875 0.962 . S
C862 H876 0.960 . S
C863 C860 1.511 . S
C863 H877 0.961 . S
C863 H878 0.961 1_545 S
C863 H879 0.961 . S
C864 C865 1.370 . S
C864 C866 1.363 . S
C864 H880 0.931 . S
C865 C864 1.370 . S
C865 C869 1.408 . S
C866 C864 1.363 . S
C866 C867 1.370 . S
C866 C870 1.524 . S
C867 C859 1.503 1_665 S
C867 C866 1.370 . S
C867 C868 1.403 1_655 S
C868 C867 1.403 1_455 S
C868 C869 1.404 1_455 S
C868 C871 1.539 . S
C869 C865 1.408 . S
C869 C868 1.404 1_655 S
C869 H881 0.930 . S
C870 C866 1.524 . S
C870 H882 0.956 1_565 S
C870 H883 0.961 1_665 S
C870 H884 0.961 . S
C871 C868 1.539 . S
C871 H885 0.958 1_455 S
C871 H886 0.961 . S
C871 H887 0.960 . S
H872 C856 0.931 . S
H873 C861 0.929 . S
H874 C862 0.960 . S
H875 C862 0.962 . S
H876 C862 0.960 . S
H877 C863 0.961 . S
H878 C863 0.961 1_565 S
H879 C863 0.961 . S
H880 C864 0.931 . S
H881 C869 0.930 . S
H882 C870 0.956 1_545 S
H883 C870 0.961 1_445 S
H884 C870 0.961 . S
H885 C871 0.958 1_655 S
H886 C871 0.961 . S
H887 C871 0.960 . S
C888 C889 1.391 . S
C888 C890 1.394 . S
C888 H904 0.931 . S
C889 C888 1.391 . S
C889 C893 1.376 1_565 S
C890 C888 1.394 . S
C890 C891 1.364 1_565 S
C890 C894 1.531 . S
C891 C890 1.364 1_545 S
C891 C892 1.413 . S
C891 C899 1.504 1_455 S
C892 C891 1.413 . S
C892 C893 1.392 . S
C892 C895 1.511 . S
C893 C889 1.376 1_545 S
C893 C892 1.392 . S
C893 H905 0.929 . S
C894 C890 1.531 . S
C894 H906 0.960 1_455 S
C894 H907 0.962 . S
C894 H908 0.960 . S
C895 C892 1.511 . S
C895 H909 0.961 . S
C895 H910 0.961 . S
C895 H911 0.961 . S
C896 C897 1.370 1_565 S
C896 C898 1.363 . S
C896 H912 0.931 . S
C897 C896 1.370 1_545 S
C897 C901 1.408 . S
C898 C896 1.363 . S
C898 C899 1.370 1_565 S
C898 C902 1.524 . S
C899 C891 1.504 1_655 S
C899 C898 1.370 1_545 S
C899 C900 1.403 . S
C900 C899 1.403 . S
C900 C901 1.404 . S
C900 C903 1.539 . S
C901 C897 1.408 . S
C901 C900 1.404 . S
C901 H913 0.930 . S
C902 C898 1.524 . S
C902 H914 0.956 . S
C902 H915 0.961 1_655 S
C902 H916 0.961 . S
C903 C900 1.539 . S
C903 H917 0.958 . S
C903 H918 0.961 . S
C903 H919 0.960 1_655 S
H904 C888 0.931 . S
H905 C893 0.929 . S
H906 C894 0.960 1_655 S
H907 C894 0.962 . S
H908 C894 0.960 . S
H909 C895 0.961 . S
H910 C895 0.961 . S
H911 C895 0.961 . S
H912 C896 0.931 . S
H913 C901 0.930 . S
H914 C902 0.956 . S
H915 C902 0.961 1_455 S
H916 C902 0.961 . S
H917 C903 0.958 . S
H918 C903 0.961 . S
H919 C903 0.960 1_455 S
C920 C921 1.391 . S
C920 C922 1.394 . S
C920 H936 0.931 . S
C921 C920 1.391 . S
C921 C925 1.376 . S
C922 C920 1.394 . S
C922 C923 1.369 . S
C922 C926 1.535 . S
C923 C922 1.369 . S
C923 C924 1.410 . S
C923 C931 1.503 1_545 S
C924 C923 1.410 . S
C924 C925 1.392 . S
C924 C927 1.511 . S
C925 C921 1.376 . S
C925 C924 1.392 . S
C925 H937 0.929 . S
C926 C922 1.535 . S
C926 H938 0.971 1_545 S
C926 H939 0.937 1_655 S
C926 H940 0.971 . S
C927 C924 1.511 . S
C927 H941 0.961 . S
C927 H942 0.961 1_545 S
C927 H943 0.961 . S
C928 C929 1.370 . S
C928 C930 1.363 . S
C928 H944 0.931 . S
C929 C928 1.370 . S
C929 C933 1.408 1_455 S
C930 C928 1.363 . S
C930 C931 1.370 1_455 S
C930 C934 1.524 . S
C931 C923 1.503 1_565 S
C931 C930 1.370 1_655 S
C931 C932 1.403 . S
C932 C931 1.403 . S
C932 C933 1.404 . S
C932 C935 1.539 . S
C933 C929 1.408 1_655 S
C933 C932 1.404 . S
C933 H945 0.930 . S
C934 C930 1.524 . S
C934 H946 0.956 1_565 S
C934 H947 0.961 1_565 S
C934 H948 0.961 . S
C935 C932 1.539 . S
C935 H949 0.958 . S
C935 H950 0.961 . S
C935 H951 0.960 . S
H936 C920 0.931 . S
H937 C925 0.929 . S
H938 C926 0.971 1_565 S
H939 C926 0.937 1_455 S
H940 C926 0.971 . S
H941 C927 0.961 . S
H942 C927 0.961 1_565 S
H943 C927 0.961 . S
H944 C928 0.931 . S
H945 C933 0.930 . S
H946 C934 0.956 1_545 S
H947 C934 0.961 1_545 S
H948 C934 0.961 . S
H949 C935 0.958 . S
H950 C935 0.961 . S
H951 C935 0.960 . S
C952 C953 1.391 . S
C952 C954 1.394 . S
C952 H968 0.931 . S
C953 C952 1.391 . S
C953 C957 1.376 1_565 S
C954 C952 1.394 . S
C954 C955 1.388 . S
C954 C958 1.531 . S
C955 C954 1.388 . S
C955 C956 1.393 1_565 S
C955 C963 1.501 1_665 S
C956 C955 1.393 1_545 S
C956 C957 1.392 . S
C956 C959 1.511 . S
C957 C953 1.376 1_545 S
C957 C956 1.392 . S
C957 H969 0.929 . S
C958 C954 1.531 . S
C958 H970 0.960 1_655 S
C958 H971 0.962 . S
C958 H972 0.960 . S
C959 C956 1.511 . S
C959 H973 0.961 . S
C959 H974 0.961 . S
C959 H975 0.961 . S
C960 C961 1.378 . S
C960 C962 1.361 1_545 S
C960 H976 0.926 1_545 S
C961 C960 1.378 . S
C961 C965 1.408 . S
C962 C960 1.361 1_565 S
C962 C963 1.370 1_565 S
C962 C966 1.524 . S
C963 C955 1.501 1_445 S
C963 C962 1.370 1_545 S
C963 C964 1.403 . S
C964 C963 1.403 . S
C964 C965 1.404 . S
C964 C967 1.539 . S
C965 C961 1.408 . S
C965 C964 1.404 . S
C965 H977 0.930 . S
C966 C962 1.524 . S
C966 H978 0.956 . S
C966 H979 0.961 1_465 S
C966 H980 0.961 . S
C967 C964 1.539 . S
C967 H981 0.958 . S
C967 H982 0.961 . S
C967 H983 0.960 1_455 S
H968 C952 0.931 . S
H969 C957 0.929 . S
H970 C958 0.960 1_455 S
H971 C958 0.962 . S
H972 C958 0.960 . S
H973 C959 0.961 . S
H974 C959 0.961 . S
H975 C959 0.961 . S
H976 C960 0.926 1_565 S
H977 C965 0.930 . S
H978 C966 0.956 . S
H979 C966 0.961 1_645 S
H980 C966 0.961 . S
H981 C967 0.958 . S
H982 C967 0.961 . S
H983 C967 0.960 1_655 S
C473 C5 1.380 . S
C481 C123 1.374 . S
C505 C182 1.374 . S
C513 C64 1.373 . S
C537 C359 1.374 . S
C545 C241 1.373 . S
C569 C300 1.373 . S
C577 C418 1.373 . S
C601 C357 1.537 . S
C609 C3 1.538 . S
C633 C62 1.496 . S
C641 C416 1.542 . S
C665 C121 1.553 . S
C673 C239 1.530 . S
C697 C298 1.539 . S
C705 C180 1.521 . S
C729 C33 1.352 . S
C737 C328 1.340 . S
C761 C387 1.313 . S
C769 C92 1.334 . S
C793 C446 1.362 . S
C801 C151 1.349 . S
C825 C210 1.314 . S
C833 C269 1.332 . S
C857 C52 0.934 . S
C865 C170 0.953 . S
C889 C229 0.977 . S
C897 C111 0.957 . S
C921 C406 0.932 . S
C929 C288 0.964 . S
C953 C465 0.976 . S
C961 C347 0.958 . S
