# Generated by pormake.
# Topology umh, (4)-cn, num edge types: 1
# Building blocks:
#     Node 0, Type 0, BuildingBlock: ESEHIV_clean_sbu_0, # of connection points: 4
#     Node 1, Type 0, BuildingBlock: ESEHIV_clean_sbu_0, # of connection points: 4
#     Node 2, Type 0, BuildingBlock: ESEHIV_clean_sbu_0, # of connection points: 4
#     Node 3, Type 0, BuildingBlock: ESEHIV_clean_sbu_0, # of connection points: 4
#     Node 4, Type 0, BuildingBlock: ESEHIV_clean_sbu_0, # of connection points: 4
#     Node 5, Type 0, BuildingBlock: ESEHIV_clean_sbu_0, # of connection points: 4
#     Node 6, Type 0, BuildingBlock: ESEHIV_clean_sbu_0, # of connection points: 4
#     Node 7, Type 0, BuildingBlock: ESEHIV_clean_sbu_0, # of connection points: 4
#     Node 8, Type 0, BuildingBlock: ESEHIV_clean_sbu_0, # of connection points: 4
#     Node 9, Type 0, BuildingBlock: ESEHIV_clean_sbu_0, # of connection points: 4
#     Node 10, Type 0, BuildingBlock: ESEHIV_clean_sbu_0, # of connection points: 4
#     Node 11, Type 0, BuildingBlock: ESEHIV_clean_sbu_0, # of connection points: 4
#     Node 12, Type 0, BuildingBlock: ESEHIV_clean_sbu_0, # of connection points: 4
#     Node 13, Type 0, BuildingBlock: ESEHIV_clean_sbu_0, # of connection points: 4
#     Node 14, Type 0, BuildingBlock: ESEHIV_clean_sbu_0, # of connection points: 4
#     Node 15, Type 0, BuildingBlock: ESEHIV_clean_sbu_0, # of connection points: 4
#     Edge 16, Type (0, 0), BuildingBlock: CIFDUS_clean_linker_0, # of connection points: 2
#     Edge 17, Type (0, 0), BuildingBlock: CIFDUS_clean_linker_0, # of connection points: 2
#     Edge 18, Type (0, 0), BuildingBlock: CIFDUS_clean_linker_0, # of connection points: 2
#     Edge 19, Type (0, 0), BuildingBlock: CIFDUS_clean_linker_0, # of connection points: 2
#     Edge 20, Type (0, 0), BuildingBlock: CIFDUS_clean_linker_0, # of connection points: 2
#     Edge 21, Type (0, 0), BuildingBlock: CIFDUS_clean_linker_0, # of connection points: 2
#     Edge 22, Type (0, 0), BuildingBlock: CIFDUS_clean_linker_0, # of connection points: 2
#     Edge 23, Type (0, 0), BuildingBlock: CIFDUS_clean_linker_0, # of connection points: 2
#     Edge 24, Type (0, 0), BuildingBlock: CIFDUS_clean_linker_0, # of connection points: 2
#     Edge 25, Type (0, 0), BuildingBlock: CIFDUS_clean_linker_0, # of connection points: 2
#     Edge 26, Type (0, 0), BuildingBlock: CIFDUS_clean_linker_0, # of connection points: 2
#     Edge 27, Type (0, 0), BuildingBlock: CIFDUS_clean_linker_0, # of connection points: 2
#     Edge 28, Type (0, 0), BuildingBlock: CIFDUS_clean_linker_0, # of connection points: 2
#     Edge 29, Type (0, 0), BuildingBlock: CIFDUS_clean_linker_0, # of connection points: 2
#     Edge 30, Type (0, 0), BuildingBlock: CIFDUS_clean_linker_0, # of connection points: 2
#     Edge 31, Type (0, 0), BuildingBlock: CIFDUS_clean_linker_0, # of connection points: 2
#     Edge 32, Type (0, 0), BuildingBlock: CIFDUS_clean_linker_0, # of connection points: 2
#     Edge 33, Type (0, 0), BuildingBlock: CIFDUS_clean_linker_0, # of connection points: 2
#     Edge 34, Type (0, 0), BuildingBlock: CIFDUS_clean_linker_0, # of connection points: 2
#     Edge 35, Type (0, 0), BuildingBlock: CIFDUS_clean_linker_0, # of connection points: 2
#     Edge 36, Type (0, 0), BuildingBlock: CIFDUS_clean_linker_0, # of connection points: 2
#     Edge 37, Type (0, 0), BuildingBlock: CIFDUS_clean_linker_0, # of connection points: 2
#     Edge 38, Type (0, 0), BuildingBlock: CIFDUS_clean_linker_0, # of connection points: 2
#     Edge 39, Type (0, 0), BuildingBlock: CIFDUS_clean_linker_0, # of connection points: 2
#     Edge 40, Type (0, 0), BuildingBlock: CIFDUS_clean_linker_0, # of connection points: 2
#     Edge 41, Type (0, 0), BuildingBlock: CIFDUS_clean_linker_0, # of connection points: 2
#     Edge 42, Type (0, 0), BuildingBlock: CIFDUS_clean_linker_0, # of connection points: 2
#     Edge 43, Type (0, 0), BuildingBlock: CIFDUS_clean_linker_0, # of connection points: 2
#     Edge 44, Type (0, 0), BuildingBlock: CIFDUS_clean_linker_0, # of connection points: 2
#     Edge 45, Type (0, 0), BuildingBlock: CIFDUS_clean_linker_0, # of connection points: 2
#     Edge 46, Type (0, 0), BuildingBlock: CIFDUS_clean_linker_0, # of connection points: 2
#     Edge 47, Type (0, 0), BuildingBlock: CIFDUS_clean_linker_0, # of connection points: 2
# Relax obj value: 0.059
# Max RMSD: 0.085
# Mean RMSD: 0.085
data_MOF--net-umh--node1-ESEHIV_clean_sbu_0--edge1-CIFDUS_clean_linker_0
_symmetry_space_group_name_H-M    P1
_symmetry_Int_Tables_number       1
_symmetry_cell_setting            triclinic
loop_
_symmetry_equiv_pos_as_xyz
'x, y, z'
_cell_length_a     42.164067
_cell_length_b     42.230742
_cell_length_c     44.892353
_cell_angle_alpha  90.877244
_cell_angle_beta   89.29749
_cell_angle_gamma 90.094659
loop_
_atom_site_label
_atom_site_type_symbol
_atom_site_fract_x
_atom_site_fract_y
_atom_site_fract_z
_atom_type_partial_charge
Cu0 Cu 0.36092 0.12367 0.17884 0.0
N1 N 0.31857 0.1281 0.16809 0.0
N2 N 0.27439 0.15657 0.16236 0.0
C3 C 0.30637 0.15679 0.16265 0.0
C4 C 0.2661 0.12624 0.16776 0.0
C5 C 0.29346 0.10873 0.17144 0.0
O6 O 0.36035 0.14144 0.2192 0.0
C7 C 0.37886 0.141 0.12231 0.0
O8 O 0.35495 0.12195 0.11669 0.0
H9 H 0.3208 0.17798 0.16174 0.0
H10 H 0.29475 0.08437 0.17837 0.0
N11 N 0.37581 0.08194 0.17847 0.0
N12 N 0.41138 0.04272 0.18076 0.0
C13 C 0.40527 0.07363 0.18653 0.0
C14 C 0.36268 0.05543 0.16707 0.0
C15 C 0.38452 0.03116 0.16855 0.0
C16 C 0.34727 0.12454 0.23926 0.0
O17 O 0.34127 0.09465 0.233 0.0
H18 H 0.42239 0.09048 0.19509 0.0
H19 H 0.3394 0.05406 0.15733 0.0
O20 O 0.38659 0.14624 0.14934 0.0
H21 H 0.24207 0.11763 0.17048 0.0
H22 H 0.381 1.00706 0.16073 0.0
Cu23 Cu 0.4546 0.35863 0.65927 0.0
N24 N 0.44545 0.31908 0.64225 0.0
N25 N 0.41184 0.28251 0.62444 0.0
C26 C 0.41774 0.31364 0.6285 0.0
C27 C 0.43707 0.26761 0.63608 0.0
C28 C 0.45781 0.29029 0.6471 0.0
O29 O 0.43883 0.35606 0.7003 0.0
C30 C 0.4435 0.38714 0.60662 0.0
O31 O 0.46744 0.36828 0.60007 0.0
H32 H 0.40076 0.33216 0.62422 0.0
H33 H 0.47902 0.28602 0.65974 0.0
N34 N 0.49755 0.37012 0.65918 0.0
N35 N 0.53988 0.40175 0.66447 0.0
C36 C 0.50833 0.39838 0.66904 0.0
C37 C 0.5231 0.35487 0.64794 0.0
C38 C 0.54929 0.37436 0.65116 0.0
C39 C 0.45638 0.3415 0.71857 0.0
O40 O 0.48476 0.33245 0.70959 0.0
H41 H 0.49298 0.41654 0.67847 0.0
H42 H 0.52262 0.33157 0.63762 0.0
O43 O 0.43333 0.38836 0.63353 0.0
H44 H 0.43956 0.24222 0.63799 0.0
H45 H 0.57331 0.36878 0.64417 0.0
Cu46 Cu 0.19063 0.42263 0.15567 0.0
N47 N 0.18927 0.38031 0.16716 0.0
N48 N 0.20062 0.32857 0.16823 0.0
C49 C 0.2045 0.35604 0.15351 0.0
C50 C 0.1819 0.33599 0.19197 0.0
C51 C 0.17499 0.36791 0.19125 0.0
O52 O 0.21889 0.44536 0.18274 0.0
C53 C 0.19389 0.43825 0.09356 0.0
O54 O 0.17436 0.46154 0.10027 0.0
H55 H 0.21862 0.35875 0.13342 0.0
H56 H 0.16123 0.38132 0.20754 0.0
N57 N 0.14936 0.43899 0.15804 0.0
N58 N 0.1074 0.47133 0.1619 0.0
C59 C 0.13945 0.46914 0.16232 0.0
C60 C 0.12281 0.4217 0.15468 0.0
C61 C 0.09699 0.44146 0.15711 0.0
C62 C 0.24408 0.43254 0.19239 0.0
O63 O 0.25257 0.40462 0.18177 0.0
H64 H 0.15537 0.48896 0.16572 0.0
H65 H 0.12234 0.39642 0.15042 0.0
O66 O 0.20518 0.42166 0.11438 0.0
H67 H 0.17473 0.31988 0.20931 0.0
H68 H 0.07243 0.43442 0.15487 0.0
Cu69 Cu 0.1646 0.16364 0.64895 0.0
N70 N 0.19314 0.18694 0.62561 0.0
N71 N 0.24083 0.20671 0.61348 0.0
C72 C 0.22305 0.19234 0.6345 0.0
C73 C 0.22105 0.21105 0.59044 0.0
C74 C 0.19162 0.19867 0.59794 0.0
O75 O 0.15201 0.18829 0.68433 0.0
C76 C 0.20524 0.10936 0.64364 0.0
O77 O 0.22183 0.08621 0.65482 0.0
H78 H 0.23167 0.18514 0.65596 0.0
H79 H 0.17114 0.1973 0.58377 0.0
N80 N 0.12744 0.14936 0.6306 0.0
N81 N 0.0841 0.11908 0.62475 0.0
C82 C 0.11023 0.12495 0.64109 0.0
C83 C 0.11162 0.15965 0.60678 0.0
C84 C 0.08489 0.14099 0.6031 0.0
C85 C 0.15657 0.21795 0.68814 0.0
O86 O 0.1715 0.23408 0.66749 0.0
H87 H 0.11662 0.11216 0.66083 0.0
H88 H 0.11875 0.17936 0.59318 0.0
O89 O 0.18757 0.1261 0.66097 0.0
H90 H 0.22766 0.22124 0.56928 0.0
H91 H 0.06753 0.14335 0.58572 0.0
Cu92 Cu 0.34714 0.46976 0.40303 0.0
N93 N 0.30647 0.45701 0.41494 0.0
N94 N 0.26858 0.42084 0.42335 0.0
C95 C 0.30001 0.42659 0.42126 0.0
C96 C 0.25463 0.449 0.41824 0.0
C97 C 0.27808 0.47129 0.41298 0.0
O98 O 0.34925 0.45823 0.36079 0.0
C99 C 0.37058 0.45511 0.45701 0.0
O100 O 0.34842 0.47599 0.46363 0.0
H101 H 0.31812 0.40849 0.422 0.0
H102 H 0.27459 0.49554 0.40639 0.0
N103 N 0.35649 0.51298 0.40789 0.0
N104 N 0.38693 0.55649 0.41093 0.0
C105 C 0.38539 0.5256 0.40271 0.0
C106 C 0.33894 0.53666 0.41978 0.0
C107 C 0.35764 0.56354 0.42165 0.0
C108 C 0.33208 0.47519 0.34409 0.0
O109 O 0.31815 0.50027 0.35591 0.0
H110 H 0.40531 0.51188 0.39428 0.0
H111 H 0.31464 0.53435 0.42741 0.0
O112 O 0.37551 0.44782 0.42962 0.0
H113 H 0.22932 0.453 0.41721 0.0
H114 H 0.35027 0.58637 0.43053 0.0
Cu115 Cu 0.11846 0.34515 0.8881 0.0
N116 N 0.13207 0.30489 0.89961 0.0
N117 N 0.16798 0.2665 0.90521 0.0
C118 C 0.163 0.29784 0.90237 0.0
C119 C 0.1389 0.25313 0.90409 0.0
C120 C 0.11675 0.27691 0.90063 0.0
O121 O 0.12588 0.34411 0.8452 0.0
C122 C 0.14603 0.37003 0.93818 0.0
O123 O 0.13244 0.34448 0.94874 0.0
H124 H 0.18169 0.31531 0.90033 0.0
H125 H 0.09158 0.27374 0.89736 0.0
N126 N 0.07579 0.35429 0.89699 0.0
N127 N 0.03193 0.38387 0.9036 0.0
C128 C 0.06144 0.38207 0.89141 0.0
C129 C 0.05476 0.33779 0.91332 0.0
C130 C 0.0277 0.35584 0.91731 0.0
C131 C 0.10926 0.3235 0.83137 0.0
O132 O 0.08579 0.30988 0.84585 0.0
H133 H 0.07296 0.40088 0.87927 0.0
H134 H 0.05925 0.31491 0.92284 0.0
O135 O 0.14337 0.37612 0.91059 0.0
H136 H 0.13408 0.22797 0.90477 0.0
H137 H 1.00718 0.34929 0.93054 0.0
Cu138 Cu 0.17419 0.16256 0.41217 0.0
N139 N 0.16679 0.2064 0.41382 0.0
N140 N 0.17224 0.25923 0.41478 0.0
C141 C 0.18737 0.23095 0.41529 0.0
C142 C 0.14109 0.25204 0.4134 0.0
C143 C 0.13785 0.21963 0.4129 0.0
O144 O 0.21372 0.15221 0.3908 0.0
C145 C 0.19685 0.1509 0.47068 0.0
O146 O 0.22269 0.16532 0.46139 0.0
H147 H 0.21287 0.22813 0.41579 0.0
H148 H 0.11584 0.20651 0.41163 0.0
N149 N 0.14056 0.14337 0.39157 0.0
N150 N 0.09899 0.11292 0.37913 0.0
C151 C 0.12167 0.11894 0.39961 0.0
C152 C 0.12963 0.15282 0.36515 0.0
C153 C 0.10408 0.13422 0.35746 0.0
C154 C 0.22384 0.16794 0.36856 0.0
O155 O 0.20795 0.19292 0.36016 0.0
H156 H 0.12409 0.10633 0.42026 0.0
H157 H 0.13946 0.17217 0.35249 0.0
O158 O 0.17399 0.14687 0.45273 0.0
H159 H 0.1219 0.269 0.41283 0.0
H160 H 0.09047 0.13608 0.33728 0.0
Cu161 Cu 0.42198 0.1801 0.8933 0.0
N162 N 0.38124 0.16921 0.88077 0.0
N163 N 0.32835 0.17242 0.87787 0.0
C164 C 0.35436 0.18018 0.89369 0.0
C165 C 0.33942 0.15524 0.85431 0.0
C166 C 0.37208 0.15338 0.85613 0.0
O167 O 0.43454 0.21953 0.87377 0.0
C168 C 0.43588 0.17759 0.95764 0.0
O169 O 0.46405 0.16566 0.95177 0.0
H170 H 0.35422 0.19482 0.91369 0.0
H171 H 0.38809 0.14262 0.83993 0.0
N172 N 0.45185 0.14957 0.88046 0.0
N173 N 0.48459 0.10803 0.87414 0.0
C174 C 0.46098 0.12118 0.89108 0.0
C175 C 0.46997 0.1541 0.85605 0.0
C176 C 0.49001 0.12879 0.8521 0.0
C177 C 0.4158 0.23856 0.86091 0.0
O178 O 0.38504 0.23438 0.86346 0.0
H179 H 0.45094 0.11067 0.91091 0.0
H180 H 0.46864 0.1746 0.84197 0.0
O181 O 0.41786 0.18529 0.93638 0.0
H182 H 0.32522 0.14621 0.83614 0.0
H183 H 0.50698 0.12573 0.834 0.0
Cu184 Cu 0.67269 0.90079 0.87212 0.0
N185 N 0.67524 0.85711 0.86417 0.0
N186 N 0.69445 0.80766 0.86599 0.0
C187 C 0.69684 0.83782 0.87628 0.0
C188 C 0.67021 0.8081 0.84656 0.0
C189 C 0.65852 0.83863 0.84539 0.0
O190 O 0.70256 0.92115 0.84476 0.0
C191 C 0.66388 0.89003 0.93153 0.0
O192 O 0.64207 0.87184 0.91947 0.0
H193 H 0.71395 0.84593 0.89247 0.0
H194 H 0.63955 0.84685 0.83149 0.0
N195 N 0.63208 0.91791 0.86656 0.0
N196 N 0.5936 0.95462 0.86648 0.0
C197 C 0.62521 0.94911 0.86701 0.0
C198 C 0.60381 0.90307 0.86575 0.0
C199 C 0.58007 0.92561 0.86564 0.0
C200 C 0.73253 0.91887 0.84708 0.0
O201 O 0.74422 0.90499 0.87051 0.0
H202 H 0.64312 0.96738 0.86898 0.0
H203 H 0.60061 0.87767 0.86625 0.0
O204 O 0.68168 0.90631 0.91438 0.0
H205 H 0.662 0.78802 0.83351 0.0
H206 H 0.55483 0.92096 0.86517 0.0
Cu207 Cu 0.61763 0.70828 0.40804 0.0
N208 N 0.63307 0.7484 0.41884 0.0
N209 N 0.66454 0.79118 0.4187 0.0
C210 C 0.65585 0.76444 0.40401 0.0
C211 C 0.64659 0.79189 0.44381 0.0
C212 C 0.6275 0.76533 0.44399 0.0
O213 O 0.62085 0.70659 0.36471 0.0
C214 C 0.6383 0.66468 0.45186 0.0
O215 O 0.60878 0.66581 0.46144 0.0
H216 H 0.66628 0.75629 0.38312 0.0
H217 H 0.61165 0.75823 0.4618 0.0
N218 N 0.57474 0.70319 0.41973 0.0
N219 N 0.52602 0.68294 0.42714 0.0
C220 C 0.55597 0.67728 0.4171 0.0
C221 C 0.55581 0.72599 0.43127 0.0
C222 C 0.526 0.71364 0.43595 0.0
C223 C 0.60206 0.72458 0.35075 0.0
O224 O 0.58055 0.74056 0.36612 0.0
H225 H 0.56422 0.65473 0.40826 0.0
H226 H 0.56287 0.75025 0.4353 0.0
O227 O 0.64597 0.67896 0.42801 0.0
H228 H 0.64817 0.8096 0.46142 0.0
H229 H 0.50565 0.72661 0.44452 0.0
Cu230 Cu 0.868 0.60405 0.90625 0.0
N231 N 0.82498 0.61574 0.90763 0.0
N232 N 0.78176 0.64568 0.90098 0.0
C233 C 0.81384 0.64476 0.90119 0.0
C234 C 0.77247 0.61592 0.90758 0.0
C235 C 0.79909 0.59755 0.91151 0.0
O236 O 0.87873 0.60797 0.86399 0.0
C237 C 0.87728 0.63648 0.95954 0.0
O238 O 0.84909 0.62407 0.96412 0.0
H239 H 0.82913 0.66443 0.89555 0.0
H240 H 0.79944 0.57246 0.91589 0.0
N241 N 0.87456 0.56196 0.91788 0.0
N242 N 0.89628 0.51378 0.92209 0.0
C243 C 0.8977 0.54202 0.90825 0.0
C244 C 0.85833 0.54596 0.93879 0.0
C245 C 0.87147 0.51628 0.94129 0.0
C246 C 0.86474 0.58798 0.84698 0.0
O247 O 0.84841 0.56505 0.85939 0.0
H248 H 0.91512 0.54812 0.89138 0.0
H249 H 0.83869 0.55545 0.95179 0.0
O250 O 0.89118 0.63138 0.93449 0.0
H251 H 0.74818 0.60777 0.90914 0.0
H252 H 0.86385 0.49823 0.95668 0.0
Cu253 Cu 0.91037 0.91203 0.36878 0.0
N254 N 0.86608 0.90904 0.36597 0.0
N255 N 0.81699 0.88908 0.37026 0.0
C256 C 0.84843 0.88288 0.37072 0.0
C257 C 0.81482 0.92037 0.36493 0.0
C258 C 0.84508 0.93258 0.36228 0.0
O259 O 0.92866 0.88115 0.34054 0.0
C260 C 0.90607 0.92422 0.42929 0.0
O261 O 0.88734 0.94627 0.41907 0.0
H262 H 0.85848 0.86004 0.37573 0.0
H263 H 0.8513 0.95713 0.35894 0.0
N264 N 0.92468 0.95219 0.3573 0.0
N265 N 0.95274 0.99723 0.35363 0.0
C266 C 0.94779 0.97043 0.36931 0.0
C267 C 0.91499 0.96773 0.33318 0.0
C268 C 0.93205 0.9954 0.3309 0.0
C269 C 0.93052 0.85144 0.34458 0.0
O270 O 0.92191 0.83997 0.3705 0.0
H271 H 0.96074 0.96408 0.389 0.0
H272 H 0.89717 0.95913 0.31791 0.0
O273 O 0.92031 0.90588 0.41065 0.0
H274 H 0.79294 0.93358 0.3634 0.0
H275 H 0.92996 1.01237 0.31322 0.0
Cu276 Cu 0.72926 0.60833 0.65964 0.0
N277 N 0.72621 0.6518 0.6693 0.0
N278 N 0.74088 0.70255 0.67534 0.0
C279 C 0.7468 0.67468 0.66124 0.0
C280 C 0.7148 0.69734 0.69229 0.0
C281 C 0.70584 0.66607 0.68854 0.0
O282 O 0.76654 0.59019 0.67894 0.0
C283 C 0.73465 0.61762 0.59497 0.0
O284 O 0.75665 0.6391 0.5995 0.0
H285 H 0.76652 0.67077 0.6461 0.0
H286 H 0.6866 0.65432 0.70004 0.0
N287 N 0.69496 0.58594 0.67595 0.0
N288 N 0.65875 0.54724 0.68029 0.0
C289 C 0.67925 0.56233 0.66192 0.0
C290 C 0.68417 0.58581 0.70427 0.0
C291 C 0.66167 0.56216 0.70696 0.0
C292 C 0.79178 0.60489 0.68642 0.0
O293 O 0.79773 0.63286 0.67542 0.0
H294 H 0.68358 0.55579 0.63884 0.0
H295 H 0.69312 0.60078 0.72204 0.0
O296 O 0.7242 0.60151 0.61676 0.0
H297 H 0.704 0.71436 0.70755 0.0
H298 H 0.64968 0.55548 0.72737 0.0
Cu299 Cu 0.93779 0.68989 0.17157 0.0
N300 N 0.89425 0.69117 0.1795 0.0
N301 N 0.84509 0.71054 0.18407 0.0
C302 C 0.87615 0.7174 0.1804 0.0
C303 C 0.84362 0.67865 0.18553 0.0
C304 C 0.87399 0.66678 0.18267 0.0
O305 O 0.95533 0.724 0.19627 0.0
C306 C 0.9626 0.68701 0.10951 0.0
O307 O 0.9911 0.68057 0.11918 0.0
H308 H 0.88539 0.74098 0.17712 0.0
H309 H 0.88073 0.64207 0.18215 0.0
N310 N 0.95337 0.65125 0.18552 0.0
N311 N 0.9786 0.6052 0.1915 0.0
C312 C 0.97442 0.63033 0.17362 0.0
C313 C 0.94437 0.63895 0.21177 0.0
C314 C 0.95966 0.61059 0.21545 0.0
C315 C 0.95224 0.7535 0.19165 0.0
O316 O 0.94199 0.76278 0.16569 0.0
H317 H 0.98597 0.63295 0.1522 0.0
H318 H 0.92765 0.64994 0.22718 0.0
O319 O 0.94031 0.69315 0.12812 0.0
H320 H 0.82215 0.66484 0.18813 0.0
H321 H 0.95727 0.59521 0.23442 0.0
Cu322 Cu 0.88911 0.93018 0.66837 0.0
N323 N 0.89046 0.88627 0.67279 0.0
N324 N 0.87359 0.83605 0.6747 0.0
C325 C 0.86554 0.86649 0.66994 0.0
C326 C 0.90491 0.83681 0.68071 0.0
C327 C 0.91523 0.8678 0.67954 0.0
O328 O 0.85685 0.94481 0.69702 0.0
C329 C 0.90029 0.92484 0.60783 0.0
O330 O 0.92352 0.90764 0.61816 0.0
H331 H 0.84207 0.8743 0.66406 0.0
H332 H 0.93908 0.87624 0.68335 0.0
N333 N 0.92807 0.94869 0.67845 0.0
N334 N 0.9721 0.97853 0.67747 0.0
C335 C 0.94509 0.97039 0.66322 0.0
C336 C 0.94465 0.9432 0.70322 0.0
C337 C 0.97178 0.96141 0.70265 0.0
C338 C 0.82708 0.94182 0.69341 0.0
O339 O 0.81652 0.93273 0.66723 0.0
H340 H 0.93797 0.97972 0.64201 0.0
H341 H 0.93738 0.92714 0.72057 0.0
O342 O 0.88115 0.93811 0.6264 0.0
H343 H 0.91934 0.81653 0.68598 0.0
H344 H 0.98962 0.96233 0.71977 0.0
Cu345 Cu 0.63144 0.86904 0.16772 0.0
N346 N 0.67294 0.87025 0.1818 0.0
N347 N 0.72137 0.85145 0.19077 0.0
C348 C 0.69625 0.85064 0.17243 0.0
C349 C 0.71386 0.87301 0.21219 0.0
C350 C 0.68384 0.88438 0.20674 0.0
O351 O 0.60937 0.83653 0.19031 0.0
C352 C 0.64922 0.87976 0.10896 0.0
O353 O 0.66476 0.90299 0.12205 0.0
H354 H 0.6939 0.83455 0.15358 0.0
H355 H 0.67004 0.89995 0.22117 0.0
N356 N 0.61024 0.90739 0.17458 0.0
N357 N 0.57067 0.94265 0.17726 0.0
C358 C 0.57893 0.9123 0.17114 0.0
C359 C 0.62231 0.93562 0.18295 0.0
C360 C 0.59795 0.95737 0.18476 0.0
C361 C 0.62135 0.80945 0.19527 0.0
O362 O 0.64742 0.80089 0.18105 0.0
H363 H 0.56255 0.89387 0.16437 0.0
H364 H 0.64713 0.94022 0.18699 0.0
O365 O 0.63279 0.86103 0.12499 0.0
H366 H 0.72793 0.87827 0.23167 0.0
H367 H 0.60031 0.98227 0.19041 0.0
H368 H 0.46616 0.16478 1.01025 0.0
H369 H 0.37552 0.19209 0.97484 0.0
H370 H 0.35095 0.18663 1.02364 0.0
H371 H 0.35344 0.16838 0.07492 0.0
H372 H 0.44313 0.14232 0.11211 0.0
H373 H 0.46989 0.15347 0.0644 0.0
C374 C 0.44115 0.16995 1.01331 0.0
C375 C 0.42273 0.17831 0.98859 0.0
C376 C 0.42691 0.16691 0.04179 0.0
C377 C 0.39037 0.1853 0.99319 0.0
C378 C 0.37616 0.18216 1.02117 0.0
C379 C 0.37898 0.16587 0.07273 0.0
C380 C 0.39635 0.15453 0.0968 0.0
C381 C 0.39397 0.17217 0.04539 0.0
C382 C 0.42938 0.15136 0.09388 0.0
C383 C 0.44457 0.15741 0.06652 0.0
H384 H 0.36022 0.46324 0.51635 0.0
H385 H 0.42053 0.41354 0.45288 0.0
H386 H 0.44891 0.3891 0.49385 0.0
H387 H 0.45591 0.38137 0.54738 0.0
H388 H 0.39472 0.43003 0.61082 0.0
H389 H 0.36732 0.45562 0.56989 0.0
C390 C 0.37963 0.44713 0.51136 0.0
C391 C 0.38826 0.44026 0.48149 0.0
C392 C 0.39563 0.43306 0.53498 0.0
C393 C 0.41339 0.41922 0.47559 0.0
C394 C 0.42961 0.40528 0.49902 0.0
C395 C 0.43668 0.3977 0.55238 0.0
C396 C 0.42744 0.40384 0.58222 0.0
C397 C 0.42086 0.41198 0.52877 0.0
C398 C 0.40235 0.42492 0.58813 0.0
C399 C 0.38666 0.4395 0.56472 0.0
H400 H 0.18975 0.35427 0.97799 0.0
H401 H 0.1358 0.43336 0.94683 0.0
H402 H 0.14986 0.46422 0.99158 0.0
H403 H 0.16995 0.46467 0.04319 0.0
H404 H 0.22396 0.38475 0.0735 0.0
H405 H 0.21803 0.35857 1.02526 0.0
C406 C 0.18197 0.37866 0.98062 0.0
C407 C 0.16176 0.39162 0.95941 0.0
C408 C 0.18979 0.3959 1.00645 0.0
C409 C 0.15167 0.42311 0.96284 0.0
C410 C 0.15941 0.44056 0.98858 0.0
C411 C 0.18105 0.44186 0.03903 0.0
C412 C 0.19673 0.42644 0.06229 0.0
C413 C 0.17732 0.42665 1.01114 0.0
C414 C 0.21138 0.39707 0.05627 0.0
C415 C 0.20791 0.38195 1.02866 0.0
H416 H 0.16053 0.10651 0.60083 0.0
H417 H 0.25935 0.1264 0.61485 0.0
H418 H 0.26589 0.14079 0.56242 0.0
H419 H 0.24281 0.14952 0.51301 0.0
H420 H 0.14362 0.12926 0.4992 0.0
H421 H 0.13761 0.11413 0.55122 0.0
C422 C 0.1832 0.11481 0.59249 0.0
C423 C 0.20909 0.11677 0.61177 0.0
C424 C 0.18668 0.12297 0.56237 0.0
C425 C 0.239 0.12527 0.60037 0.0
C426 C 0.2427 0.13353 0.57046 0.0
C427 C 0.21989 0.14173 0.52133 0.0
C428 C 0.19371 0.14065 0.50213 0.0
C429 C 0.2166 0.1328 0.5513 0.0
C430 C 0.16422 0.1303 0.51337 0.0
C431 C 0.16072 0.12165 0.54316 0.0
H432 H 0.68367 0.91467 0.06947 0.0
H433 H 0.61655 0.83749 0.07421 0.0
H434 H 0.61608 0.83359 1.01991 0.0
H435 H 0.63334 0.85293 0.9713 0.0
H436 H 0.70046 0.92997 0.96587 0.0
H437 H 0.70241 0.93297 1.02039 0.0
C438 C 0.66899 0.89691 0.05866 0.0
C439 C 0.65003 0.87648 0.07599 0.0
C440 C 0.6688 0.89481 1.02735 0.0
C441 C 0.63132 0.85354 0.06152 0.0
C442 C 0.631 0.85132 0.03044 0.0
C443 C 0.64849 0.8704 0.98195 0.0
C444 C 0.66661 0.89135 0.96446 0.0
C445 C 0.64943 0.87198 1.01317 0.0
C446 C 0.68626 0.9136 0.97875 0.0
C447 C 0.68732 0.91535 1.00993 0.0
H448 H 0.7491 0.64793 0.54291 0.0
H449 H 0.67974 0.58578 0.58292 0.0
H450 H 0.64509 0.59237 0.54052 0.0
H451 H 0.63141 0.62092 0.49517 0.0
H452 H 0.70077 0.68206 0.45416 0.0
H453 H 0.73845 0.67036 0.49348 0.0
C454 C 0.72668 0.63535 0.54212 0.0
C455 C 0.71696 0.61681 0.56645 0.0
C456 C 0.70662 0.63926 0.51753 0.0
C457 C 0.6879 0.60042 0.56475 0.0
C458 C 0.66789 0.60427 0.5405 0.0
C459 C 0.655 0.63122 0.49453 0.0
C460 C 0.6631 0.65259 0.47194 0.0
C461 C 0.67654 0.62443 0.51725 0.0
C462 C 0.69388 0.66548 0.47126 0.0
C463 C 0.7154 0.65898 0.49389 0.0
H464 H 0.93947 0.63694 0.97773 0.0
H465 H 0.84714 0.67615 0.99772 0.0
H466 H 0.86651 0.69853 0.04441 0.0
H467 H 0.90738 0.70156 0.08231 0.0
H468 H 0.9995 0.66067 0.06459 0.0
H469 H 0.98279 0.64484 1.01447 0.0
C470 C 0.92393 0.65109 0.992 0.0
C471 C 0.89187 0.65484 0.98428 0.0
C472 C 0.93507 0.66325 1.01952 0.0
C473 C 0.87186 0.67283 1.0032 0.0
C474 C 0.88289 0.68556 0.03 0.0
C475 C 0.92405 0.68959 0.0674 0.0
C476 C 0.95458 0.68206 0.07749 0.0
C477 C 0.9141 0.68004 0.03885 0.0
C478 C 0.97582 0.66675 0.05759 0.0
C479 C 0.96621 0.65753 1.02889 0.0
H480 H 0.87242 0.95475 0.473 0.0
H481 H 0.94651 0.88543 0.45928 0.0
H482 H 0.9511 0.87973 0.51324 0.0
H483 H 0.9341 0.89443 0.56413 0.0
H484 H 0.8593 0.96302 0.57781 0.0
H485 H 0.85494 0.96894 0.52387 0.0
C486 C 0.88967 0.93842 0.48174 0.0
C487 C 0.90921 0.92062 0.46201 0.0
C488 C 0.89199 0.93511 0.51275 0.0
C489 C 0.93121 0.89943 0.47386 0.0
C490 C 0.93383 0.89618 0.50473 0.0
C491 C 0.91681 0.91074 0.55539 0.0
C492 C 0.89709 0.92835 0.57511 0.0
C493 C 0.91435 0.91389 0.52437 0.0
C494 C 0.87476 0.94918 0.56324 0.0
C495 C 0.87229 0.95259 0.53238 0.0
H496 H 0.18126 0.27039 0.18558 0.0
H497 H 0.25473 0.31868 0.13603 0.0
H498 H 0.28218 0.26881 0.12725 0.0
H499 H 0.28742 0.2121 0.13623 0.0
H500 H 0.21606 0.16384 0.1882 0.0
H501 H 0.18558 0.21283 0.19299 0.0
C502 C 0.2033 0.27007 0.17293 0.0
C503 C 0.21582 0.29853 0.16166 0.0
C504 C 0.21941 0.2412 0.16832 0.0
C505 C 0.24417 0.29735 0.14478 0.0
C506 C 0.26009 0.26876 0.13988 0.0
C507 C 0.26521 0.21225 0.14864 0.0
C508 C 0.25434 0.18429 0.1621 0.0
C509 C 0.24821 0.24066 0.15192 0.0
C510 C 0.22504 0.18483 0.17744 0.0
C511 C 0.20769 0.21298 0.18043 0.0
H512 H 0.38401 0.22909 0.64454 0.0
H513 H 0.37164 0.30636 0.58417 0.0
H514 H 0.31759 0.28867 0.5739 0.0
H515 H 0.27227 0.25367 0.58528 0.0
H516 H 0.28505 0.17641 0.6457 0.0
H517 H 0.34024 0.19155 0.65264 0.0
C518 C 0.36976 0.24165 0.62866 0.0
C519 C 0.38184 0.26915 0.61531 0.0
C520 C 0.33848 0.23158 0.62317 0.0
C521 C 0.36278 0.28535 0.59504 0.0
C522 C 0.33186 0.27524 0.58915 0.0
C523 C 0.28725 0.2399 0.59962 0.0
C524 C 0.27421 0.21429 0.61533 0.0
C525 C 0.31917 0.24879 0.6036 0.0
C526 C 0.29407 0.19675 0.63391 0.0
C527 C 0.3258 0.20525 0.63776 0.0
H528 H 0.21244 0.40176 0.40065 0.0
H529 H 0.2917 0.37012 0.45211 0.0
H530 H 0.26922 0.31681 0.45371 0.0
H531 H 0.22719 0.2787 0.43981 0.0
H532 H 0.14811 0.31083 0.38834 0.0
H533 H 0.17009 0.3642 0.38774 0.0
C534 C 0.22459 0.38337 0.41259 0.0
C535 C 0.25381 0.39006 0.42616 0.0
C536 C 0.21156 0.35266 0.41335 0.0
C537 C 0.26938 0.36562 0.44115 0.0
C538 C 0.2565 0.33509 0.44214 0.0
C539 C 0.2149 0.29734 0.42833 0.0
C540 C 0.18594 0.29064 0.41425 0.0
C541 C 0.22773 0.32821 0.42806 0.0
C542 C 0.17016 0.31528 0.39975 0.0
C543 C 0.1828 0.34587 0.39927 0.0
H544 H 0.31051 0.22567 0.90778 0.0
H545 H 0.27363 0.14533 0.85875 0.0
H546 H 0.21988 0.16647 0.86434 0.0
H547 H 0.18362 0.20934 0.88114 0.0
H548 H 0.22132 0.28927 0.9301 0.0
H549 H 0.2744 0.26645 0.92697 0.0
C550 C 0.29079 0.21236 0.89875 0.0
C551 C 0.29633 0.18385 0.88282 0.0
C552 C 0.25998 0.22468 0.90198 0.0
C553 C 0.27024 0.16747 0.87081 0.0
C554 C 0.23942 0.1795 0.87411 0.0
C555 C 0.20337 0.22146 0.89154 0.0
C556 C 0.19851 0.25109 0.9057 0.0
C557 C 0.23403 0.2083 0.88937 0.0
C558 C 0.22448 0.26668 0.91874 0.0
C559 C 0.25484 0.2536 0.91701 0.0
H560 H 0.67943 0.74527 0.86259 0.0
H561 H 0.75474 0.80978 0.88653 0.0
H562 H 0.78817 0.76538 0.89997 0.0
H563 H 0.79633 0.70812 0.90503 0.0
H564 H 0.72168 0.64344 0.87971 0.0
H565 H 0.68795 0.68786 0.86688 0.0
C566 C 0.70323 0.74967 0.8705 0.0
C567 C 0.7143 0.78106 0.87359 0.0
C568 C 0.72257 0.72388 0.8781 0.0
C569 C 0.74519 0.78608 0.88431 0.0
C570 C 0.76451 0.76061 0.89186 0.0
C571 C 0.77281 0.70363 0.89648 0.0
C572 C 0.76176 0.67223 0.89348 0.0
C573 C 0.75347 0.72939 0.88887 0.0
C574 C 0.73087 0.66717 0.88274 0.0
C575 C 0.71154 0.69265 0.87517 0.0
H576 H 0.71938 0.77802 0.3893 0.0
H577 H 0.66554 0.8541 0.43013 0.0
H578 H 0.70788 0.89157 0.41803 0.0
H579 H 0.76076 0.90255 0.39683 0.0
H580 H 0.81538 0.82635 0.35718 0.0
H581 H 0.77233 0.7891 0.3678 0.0
C582 C 0.71679 0.80285 0.39524 0.0
C583 C 0.68926 0.81326 0.41055 0.0
C584 C 0.74148 0.82422 0.38854 0.0
C585 C 0.68656 0.84545 0.41857 0.0
C586 C 0.71073 0.8669 0.41157 0.0
C587 C 0.76311 0.87787 0.39023 0.0
C588 C 0.79126 0.8673 0.37613 0.0
C589 C 0.73837 0.85654 0.3967 0.0
C590 C 0.79411 0.83506 0.36826 0.0
C591 C 0.76943 0.81378 0.37422 0.0
H592 H 0.80995 0.83446 0.68369 0.0
H593 H 0.89091 0.77535 0.6629 0.0
H594 H 0.85675 0.72878 0.6611 0.0
H595 H 0.80418 0.70468 0.6658 0.0
H596 H 0.72276 0.76334 0.68568 0.0
H597 H 0.75685 0.8103 0.68736 0.0
C598 C 0.82013 0.81149 0.67844 0.0
C599 C 0.8531 0.80858 0.67346 0.0
C600 C 0.80025 0.78469 0.67728 0.0
C601 C 0.86579 0.77838 0.66723 0.0
C602 C 0.84621 0.75169 0.666 0.0
C603 C 0.79371 0.72774 0.67003 0.0
C604 C 0.76082 0.73043 0.67538 0.0
C605 C 0.81344 0.75456 0.67099 0.0
C606 C 0.74797 0.76054 0.68163 0.0
C607 C 0.76745 0.78741 0.68251 0.0
H608 H 0.84616 0.77176 0.20224 0.0
H609 H 0.78514 0.69919 0.16576 0.0
H610 H 0.74137 0.73681 0.16427 0.0
H611 H 0.72046 0.79028 0.17306 0.0
H612 H 0.78097 0.86313 0.20952 0.0
H613 H 0.82509 0.82549 0.21113 0.0
C614 C 0.82336 0.76424 0.19377 0.0
C615 C 0.81902 0.73265 0.18408 0.0
C616 C 0.79827 0.78607 0.19287 0.0
C617 C 0.78909 0.72318 0.17369 0.0
C618 C 0.76409 0.74477 0.17262 0.0
C619 C 0.74342 0.79807 0.18093 0.0
C620 C 0.74758 0.82958 0.19082 0.0
C621 C 0.76845 0.77627 0.18202 0.0
C622 C 0.77724 0.83901 0.2018 0.0
C623 C 0.80242 0.81752 0.20268 0.0
H624 H 0.25915 0.20124 0.32848 0.0
H625 H 0.25008 0.10876 0.36728 0.0
H626 H 0.29045 0.08803 0.33272 0.0
H627 H 0.32426 0.09487 0.28826 0.0
H628 H 0.33371 0.18731 0.24947 0.0
H629 H 0.29788 0.20945 0.28761 0.0
C630 C 0.26626 0.17663 0.3296 0.0
C631 C 0.25125 0.1565 0.35023 0.0
C632 C 0.28961 0.16484 0.30964 0.0
C633 C 0.26111 0.12478 0.35163 0.0
C634 C 0.28416 0.11287 0.33178 0.0
C635 C 0.31898 0.12001 0.28846 0.0
C636 C 0.33152 0.13932 0.26582 0.0
C637 C 0.29802 0.1325 0.31024 0.0
C638 C 0.32455 0.17187 0.2666 0.0
C639 C 0.30379 0.18451 0.28829 0.0
H640 H 0.48994 0.31531 0.76301 0.0
H641 H 0.39468 0.34109 0.73919 0.0
H642 H 0.37387 0.31398 0.78315 0.0
H643 H 0.38246 0.27817 0.82524 0.0
H644 H 0.47795 0.25141 0.84771 0.0
H645 H 0.49887 0.2839 0.80752 0.0
C646 C 0.46463 0.3154 0.76758 0.0
C647 C 0.44389 0.32998 0.74758 0.0
C648 C 0.45283 0.29933 0.79257 0.0
C649 C 0.4112 0.33008 0.75412 0.0
C650 C 0.39928 0.31439 0.77919 0.0
C651 C 0.40789 0.27977 0.82166 0.0
C652 C 0.42855 0.26201 0.83941 0.0
C653 C 0.41981 0.2982 0.79812 0.0
C654 C 0.46143 0.2646 0.83441 0.0
C655 C 0.47344 0.28313 0.81132 0.0
H656 H 0.29179 0.40634 0.22438 0.0
H657 H 0.23536 0.49114 0.2179 0.0
H658 H 0.2601 0.5128 0.26268 0.0
H659 H 0.29444 0.50609 0.30561 0.0
H660 H 0.34939 0.42058 0.31381 0.0
H661 H 0.32883 0.40099 0.26615 0.0
C662 C 0.28514 0.42973 0.23253 0.0
C663 C 0.26154 0.44699 0.21778 0.0
C664 C 0.29912 0.44187 0.25867 0.0
C665 C 0.25328 0.47724 0.22879 0.0
C666 C 0.26741 0.48965 0.25445 0.0
C667 C 0.30228 0.48328 0.29691 0.0
C668 C 0.32335 0.46477 0.31347 0.0
C669 C 0.28987 0.47192 0.26987 0.0
C670 C 0.33323 0.43535 0.30163 0.0
C671 C 0.32134 0.42407 0.27442 0.0
H672 H 0.17184 0.2771 0.70928 0.0
H673 H 0.11338 0.19563 0.72829 0.0
H674 H 0.0923 0.22221 0.77284 0.0
H675 H 0.09115 0.26765 0.80691 0.0
H676 H 0.15145 0.34833 0.79054 0.0
H677 H 0.1709 0.32311 0.74421 0.0
C678 C 0.15443 0.2652 0.72314 0.0
C679 C 0.14423 0.23435 0.71538 0.0
C680 C 0.14264 0.28052 0.74909 0.0
C681 C 0.12181 0.21924 0.73374 0.0
C682 C 0.10963 0.23448 0.75919 0.0
C683 C 0.1083 0.28 0.79311 0.0
C684 C 0.11961 0.31002 0.8021 0.0
C685 C 0.11993 0.26503 0.76711 0.0
C686 C 0.14223 0.32531 0.78409 0.0
C687 C 0.15341 0.31082 0.75766 0.0
H688 H 0.71667 0.93169 0.78956 0.0
H689 H 0.79683 0.92636 0.84811 0.0
H690 H 0.83292 0.93607 0.80626 0.0
H691 H 0.84214 0.94191 0.75243 0.0
H692 H 0.76225 0.94426 0.69335 0.0
H693 H 0.72582 0.9402 0.73591 0.0
C694 C 0.742 0.9331 0.79327 0.0
C695 C 0.75395 0.92822 0.82205 0.0
C696 C 0.76278 0.93799 0.76889 0.0
C697 C 0.78691 0.92988 0.82627 0.0
C698 C 0.80762 0.93541 0.8023 0.0
C699 C 0.81675 0.94205 0.74885 0.0
C700 C 0.80504 0.94341 0.7196 0.0
C701 C 0.79589 0.9389 0.77341 0.0
C702 C 0.77201 0.94321 0.71552 0.0
C703 C 0.75112 0.94081 0.73989 0.0
H704 H 0.56447 0.76004 0.31591 0.0
H705 H 0.65094 0.70547 0.31363 0.0
H706 H 0.66261 0.72415 0.26331 0.0
H707 H 0.65114 0.76063 0.22248 0.0
H708 H 0.56576 0.81695 0.22639 0.0
H709 H 0.55066 0.79264 0.27345 0.0
C710 C 0.58571 0.75186 0.30433 0.0
C711 C 0.60697 0.73163 0.31872 0.0
C712 C 0.59256 0.76319 0.27572 0.0
C713 C 0.6342 0.72109 0.30317 0.0
C714 C 0.64095 0.73189 0.27442 0.0
C715 C 0.62892 0.76717 0.23332 0.0
C716 C 0.60972 0.79081 0.22097 0.0
C717 C 0.62073 0.75363 0.26082 0.0
C718 C 0.58108 0.79901 0.23543 0.0
C719 C 0.57247 0.78517 0.26242 0.0
H720 H 0.83852 0.54784 0.80656 0.0
H721 H 0.88212 0.64007 0.81437 0.0
H722 H 0.86685 0.65175 0.76323 0.0
H723 H 0.83521 0.63826 0.71893 0.0
H724 H 0.78912 0.54704 0.71291 0.0
H725 H 0.81156 0.53241 0.76063 0.0
C726 C 0.84516 0.57037 0.797 0.0
C727 C 0.86118 0.59319 0.8145 0.0
C728 C 0.83558 0.5772 0.76793 0.0
C729 C 0.86979 0.62208 0.80152 0.0
C730 C 0.86087 0.62884 0.7723 0.0
C731 C 0.83057 0.61491 0.72771 0.0
C732 C 0.81022 0.59387 0.71233 0.0
C733 C 0.84288 0.60695 0.75565 0.0
C734 C 0.80449 0.56377 0.72423 0.0
C735 C 0.81724 0.55543 0.75162 0.0
H736 H 0.93916 0.86591 0.28577 0.0
H737 H 0.94145 0.78769 0.34647 0.0
H738 H 0.95145 0.75101 0.30487 0.0
H739 H 0.95575 0.74048 0.25096 0.0
H740 H 0.95109 0.81827 0.18995 0.0
H741 H 0.94622 0.85563 0.23188 0.0
C742 C 0.94219 0.84089 0.28999 0.0
C743 C 0.93941 0.82968 0.31936 0.0
C744 C 0.94746 0.81974 0.26581 0.0
C745 C 0.94332 0.79709 0.32421 0.0
C746 C 0.94904 0.77603 0.30037 0.0
C747 C 0.95421 0.76565 0.24677 0.0
C748 C 0.95382 0.77645 0.21718 0.0
C749 C 0.95065 0.787 0.27102 0.0
C750 C 0.95147 0.80919 0.21238 0.0
C751 C 0.94856 0.83061 0.2364 0.0
H752 H 0.43308 0.99093 0.15045 0.0
H753 H 0.45737 0.0578 0.2202 0.0
H754 H 0.50897 0.03266 0.22527 0.0
H755 H 0.5477 0.99211 0.20952 0.0
H756 H 0.52332 0.92481 0.14029 0.0
H757 H 0.47114 0.94922 0.13588 0.0
C758 C 0.44942 0.99981 0.16703 0.0
C759 C 0.44122 0.02649 0.18473 0.0
C760 C 0.47915 0.98509 0.16997 0.0
C761 C 0.46309 0.03774 0.20587 0.0
C762 C 0.49263 1.02324 0.20891 0.0
C763 C 0.53104 0.98289 0.19337 0.0
C764 C 0.53954 0.95669 0.17522 0.0
C765 C 0.50104 0.99709 0.19091 0.0
C766 C 0.51737 0.94471 0.15476 0.0
C767 C 0.48754 0.95879 0.1521 0.0
H768 H 0.60521 0.52785 0.70852 0.0
H769 H 0.67006 0.50299 0.63684 0.0
H770 H 0.63908 0.45566 0.62572 0.0
H771 H 0.59347 0.42095 0.63623 0.0
H772 H 0.52915 0.44522 0.70842 0.0
H773 H 0.56002 0.49279 0.71947 0.0
C774 C 0.61274 0.512 0.69061 0.0
C775 C 0.64001 0.51929 0.67357 0.0
C776 C 0.59485 0.48453 0.68437 0.0
C777 C 0.64901 0.49851 0.65013 0.0
C778 C 0.63138 0.47118 0.64384 0.0
C779 C 0.58637 0.43644 0.65457 0.0
C780 C 0.55891 0.42939 0.6714 0.0
C781 C 0.60428 0.4639 0.66082 0.0
C782 C 0.54988 0.45015 0.69482 0.0
C783 C 0.56764 0.47735 0.70126 0.0
H784 H 0.0483 0.47427 0.18491 0.0
H785 H 0.12258 0.53162 0.14681 0.0
H786 H 0.08866 0.57856 0.15143 0.0
H787 H 0.03736 0.60335 0.16657 0.0
H788 H 0.9642 0.5452 0.20548 0.0
H789 H 0.99787 0.49849 0.19983 0.0
C790 C 0.05702 0.49696 0.17736 0.0
C791 C 0.08792 0.49931 0.16539 0.0
C792 C 0.03744 0.52374 0.18013 0.0
C793 C 0.09903 0.52913 0.15634 0.0
C794 C 0.07953 0.55596 0.1588 0.0
C795 C 0.02881 0.58036 0.1735 0.0
C796 C 0.99832 0.57771 0.18643 0.0
C797 C 0.04862 0.55355 0.17062 0.0
C798 C 0.98764 0.54787 0.19572 0.0
C799 C 1.00687 0.52115 0.19246 0.0
H800 H 0.96496 0.03055 0.64339 0.0
H801 H 0.03441 0.97652 0.69068 0.0
H802 H 0.07534 1.01489 0.67783 0.0
H803 H 0.09148 0.0642 0.65411 0.0
H804 H 1.02243 0.11937 0.60747 0.0
H805 H 0.98168 0.07986 0.61841 0.0
C806 C 0.9891 0.02701 0.65061 0.0
C807 C 0.9964 1.0007 0.66825 0.0
C808 C 1.01272 0.04939 0.64318 0.0
C809 C 0.02787 0.99673 0.67758 0.0
C810 C 0.05141 1.01863 0.67009 0.0
C811 C 0.06751 0.06784 0.6465 0.0
C812 C 0.06019 0.09505 0.63015 0.0
C813 C 0.04406 0.04521 0.65319 0.0
C814 C 0.02899 0.09869 0.61991 0.0
C815 C 1.00555 0.07613 0.62632 0.0
H816 H 0.51475 0.63177 0.39133 0.0
H817 H 0.47657 0.68539 0.46603 0.0
H818 H 0.42991 0.65142 0.46722 0.0
H819 H 0.39953 0.60653 0.4472 0.0
H820 H 0.4372 0.55232 0.37272 0.0
H821 H 0.48439 0.58598 0.37162 0.0
C822 C 0.49638 0.63583 0.40803 0.0
C823 C 0.49924 0.66142 0.42838 0.0
C824 C 0.46937 0.61603 0.40867 0.0
C825 C 0.47491 0.66636 0.44972 0.0
C826 C 0.44818 0.6468 0.45053 0.0
C827 C 0.41787 0.60221 0.43053 0.0
C828 C 0.41461 0.57686 0.41005 0.0
C829 C 0.44501 0.6217 0.43001 0.0
C830 C 0.43908 0.5714 0.38897 0.0
C831 C 0.46609 0.59076 0.38824 0.0
H832 H 0.9686 0.38371 0.9152 0.0
H833 H 0.04677 0.44571 0.89338 0.0
H834 H 1.01139 0.49116 0.89566 0.0
H835 H 0.95844 0.51407 0.90591 0.0
H836 H 0.88089 0.45217 0.92924 0.0
H837 H 0.91587 0.40633 0.92486 0.0
C838 C 0.9781 0.4071 0.91112 0.0
C839 C 1.0106 0.41086 0.90414 0.0
C840 C 0.95764 0.43344 0.91294 0.0
C841 C 1.02198 0.44162 0.89844 0.0
C842 C 1.00172 0.46785 0.89994 0.0
C843 C 0.94913 0.49053 0.90972 0.0
C844 C 0.91701 0.48671 0.91805 0.0
C845 C 0.96952 0.46412 0.90735 0.0
C846 C 0.90553 0.45595 0.92323 0.0
C847 C 0.92552 0.42965 0.9206 0.0
H848 H 1.00878 0.99366 0.38311 0.0
H849 H 0.94844 0.05803 0.33613 0.0
H850 H 0.98813 0.09953 0.34056 0.0
H851 H 0.04066 0.11745 0.356 0.0
H852 H 0.10148 0.05458 0.40377 0.0
H853 H 0.06079 1.01304 0.40149 0.0
C854 C 1.00413 1.01685 0.37417 0.0
C855 C 0.97565 1.02231 0.35881 0.0
C856 C 0.02722 0.04101 0.37695 0.0
C857 C 0.97028 0.05267 0.34737 0.0
C858 C 0.99296 0.07662 0.35005 0.0
C859 C 0.04511 0.09463 0.36584 0.0
C860 C 0.07428 0.08907 0.37973 0.0
C861 C 1.02168 0.07094 0.36437 0.0
C862 C 0.07924 0.05957 0.39302 0.0
C863 C 0.05601 0.03574 0.39156 0.0
H864 H 0.53469 0.96845 0.88841 0.0
H865 H 0.61694 1.00996 0.8461 0.0
H866 H 0.59098 0.06146 0.8465 0.0
H867 H 0.5447 0.09457 0.85748 0.0
H868 H 0.46159 0.05405 0.89883 0.0
H869 H 0.48821 1.00248 0.90061 0.0
C870 C 0.54687 0.9887 0.87912 0.0
C871 C 0.57785 0.98511 0.86716 0.0
C872 C 0.53168 1.0185 0.87938 0.0
C873 C 0.59335 1.0119 0.85571 0.0
C874 C 0.57843 0.04142 0.85581 0.0
C875 C 0.53225 0.07447 0.86674 0.0
C876 C 0.50096 0.07821 0.87767 0.0
C877 C 0.54757 0.04496 0.86739 0.0
C878 C 0.48565 0.05197 0.89036 0.0
C879 C 0.50082 1.0224 0.89117 0.0
loop_
_geom_bond_atom_site_label_1
_geom_bond_atom_site_label_2
_geom_bond_distance
_geom_bond_site_symmetry_2
_ccdc_geom_bond_type
Cu0 N1 1.999 . S
Cu0 O6 1.974 . S
Cu0 N11 1.985 . S
Cu0 O20 1.959 . S
N1 Cu0 1.999 . S
N1 C3 1.263 . S
N1 C5 1.389 . S
N2 C3 1.358 . S
N2 C4 1.400 . S
C3 N1 1.263 . S
C3 N2 1.358 . S
C3 H9 0.930 . S
C4 N2 1.400 . S
C4 C5 1.351 . S
C4 H21 0.930 . S
C5 N1 1.389 . S
C5 C4 1.351 . S
C5 H10 0.930 . S
O6 Cu0 1.974 . S
O6 C16 1.282 . S
C7 O8 1.261 . S
C7 O20 1.251 . S
O8 C7 1.261 . S
H9 C3 0.930 . S
H10 C5 0.930 . S
N11 Cu0 1.985 . S
N11 C13 1.335 . S
N11 C14 1.390 . S
N12 C13 1.345 . S
N12 C15 1.336 . S
C13 N11 1.335 . S
C13 N12 1.345 . S
C13 H18 0.930 . S
C14 N11 1.390 . S
C14 C15 1.346 . S
C14 H19 0.930 . S
C15 N12 1.336 . S
C15 C14 1.346 . S
C15 H22 0.929 1_545 S
C16 O6 1.282 . S
C16 O17 1.216 . S
O17 C16 1.216 . S
H18 C13 0.930 . S
H19 C14 0.930 . S
O20 Cu0 1.959 . S
O20 C7 1.251 . S
H21 C4 0.930 . S
H22 C15 0.929 1_565 S
Cu23 N24 1.999 . S
Cu23 O29 1.974 . S
Cu23 N34 1.985 . S
Cu23 O43 1.959 . S
N24 Cu23 1.999 . S
N24 C26 1.263 . S
N24 C28 1.389 . S
N25 C26 1.358 . S
N25 C27 1.400 . S
C26 N24 1.263 . S
C26 N25 1.358 . S
C26 H32 0.930 . S
C27 N25 1.400 . S
C27 C28 1.351 . S
C27 H44 0.930 . S
C28 N24 1.389 . S
C28 C27 1.351 . S
C28 H33 0.930 . S
O29 Cu23 1.974 . S
O29 C39 1.282 . S
C30 O31 1.261 . S
C30 O43 1.251 . S
O31 C30 1.261 . S
H32 C26 0.930 . S
H33 C28 0.930 . S
N34 Cu23 1.985 . S
N34 C36 1.335 . S
N34 C37 1.390 . S
N35 C36 1.345 . S
N35 C38 1.336 . S
C36 N34 1.335 . S
C36 N35 1.345 . S
C36 H41 0.930 . S
C37 N34 1.390 . S
C37 C38 1.346 . S
C37 H42 0.930 . S
C38 N35 1.336 . S
C38 C37 1.346 . S
C38 H45 0.929 . S
C39 O29 1.282 . S
C39 O40 1.216 . S
O40 C39 1.216 . S
H41 C36 0.930 . S
H42 C37 0.930 . S
O43 Cu23 1.959 . S
O43 C30 1.251 . S
H44 C27 0.930 . S
H45 C38 0.929 . S
Cu46 N47 1.999 . S
Cu46 O52 1.974 . S
Cu46 N57 1.985 . S
Cu46 O66 1.959 . S
N47 Cu46 1.999 . S
N47 C49 1.263 . S
N47 C51 1.389 . S
N48 C49 1.358 . S
N48 C50 1.400 . S
C49 N47 1.263 . S
C49 N48 1.358 . S
C49 H55 0.930 . S
C50 N48 1.400 . S
C50 C51 1.351 . S
C50 H67 0.930 . S
C51 N47 1.389 . S
C51 C50 1.351 . S
C51 H56 0.930 . S
O52 Cu46 1.974 . S
O52 C62 1.282 . S
C53 O54 1.261 . S
C53 O66 1.251 . S
O54 C53 1.261 . S
H55 C49 0.930 . S
H56 C51 0.930 . S
N57 Cu46 1.985 . S
N57 C59 1.335 . S
N57 C60 1.390 . S
N58 C59 1.345 . S
N58 C61 1.336 . S
C59 N57 1.335 . S
C59 N58 1.345 . S
C59 H64 0.930 . S
C60 N57 1.390 . S
C60 C61 1.346 . S
C60 H65 0.930 . S
C61 N58 1.336 . S
C61 C60 1.346 . S
C61 H68 0.929 . S
C62 O52 1.282 . S
C62 O63 1.216 . S
O63 C62 1.216 . S
H64 C59 0.930 . S
H65 C60 0.930 . S
O66 Cu46 1.959 . S
O66 C53 1.251 . S
H67 C50 0.930 . S
H68 C61 0.929 . S
Cu69 N70 1.999 . S
Cu69 O75 1.974 . S
Cu69 N80 1.985 . S
Cu69 O89 1.959 . S
N70 Cu69 1.999 . S
N70 C72 1.263 . S
N70 C74 1.389 . S
N71 C72 1.358 . S
N71 C73 1.400 . S
C72 N70 1.263 . S
C72 N71 1.358 . S
C72 H78 0.930 . S
C73 N71 1.400 . S
C73 C74 1.351 . S
C73 H90 0.930 . S
C74 N70 1.389 . S
C74 C73 1.351 . S
C74 H79 0.930 . S
O75 Cu69 1.974 . S
O75 C85 1.282 . S
C76 O77 1.261 . S
C76 O89 1.251 . S
O77 C76 1.261 . S
H78 C72 0.930 . S
H79 C74 0.930 . S
N80 Cu69 1.985 . S
N80 C82 1.335 . S
N80 C83 1.390 . S
N81 C82 1.345 . S
N81 C84 1.336 . S
C82 N80 1.335 . S
C82 N81 1.345 . S
C82 H87 0.930 . S
C83 N80 1.390 . S
C83 C84 1.346 . S
C83 H88 0.930 . S
C84 N81 1.336 . S
C84 C83 1.346 . S
C84 H91 0.929 1_455 S
C85 O75 1.282 . S
C85 O86 1.216 . S
O86 C85 1.216 . S
H87 C82 0.930 . S
H88 C83 0.930 . S
O89 Cu69 1.959 . S
O89 C76 1.251 . S
H90 C73 0.930 . S
H91 C84 0.929 1_655 S
Cu92 N93 1.999 . S
Cu92 O98 1.974 . S
Cu92 N103 1.985 . S
Cu92 O112 1.959 . S
N93 Cu92 1.999 . S
N93 C95 1.263 . S
N93 C97 1.389 . S
N94 C95 1.358 . S
N94 C96 1.400 . S
C95 N93 1.263 . S
C95 N94 1.358 . S
C95 H101 0.930 . S
C96 N94 1.400 . S
C96 C97 1.351 . S
C96 H113 0.930 . S
C97 N93 1.389 . S
C97 C96 1.351 . S
C97 H102 0.930 . S
O98 Cu92 1.974 . S
O98 C108 1.282 . S
C99 O100 1.261 . S
C99 O112 1.251 . S
O100 C99 1.261 . S
H101 C95 0.930 . S
H102 C97 0.930 . S
N103 Cu92 1.985 . S
N103 C105 1.335 . S
N103 C106 1.390 . S
N104 C105 1.345 . S
N104 C107 1.336 . S
C105 N103 1.335 . S
C105 N104 1.345 . S
C105 H110 0.930 . S
C106 N103 1.390 . S
C106 C107 1.346 . S
C106 H111 0.930 . S
C107 N104 1.336 . S
C107 C106 1.346 . S
C107 H114 0.929 . S
C108 O98 1.282 . S
C108 O109 1.216 . S
O109 C108 1.216 . S
H110 C105 0.930 . S
H111 C106 0.930 . S
O112 Cu92 1.959 . S
O112 C99 1.251 . S
H113 C96 0.930 . S
H114 C107 0.929 . S
Cu115 N116 1.999 . S
Cu115 O121 1.974 . S
Cu115 N126 1.985 . S
Cu115 O135 1.959 . S
N116 Cu115 1.999 . S
N116 C118 1.263 . S
N116 C120 1.389 . S
N117 C118 1.358 . S
N117 C119 1.400 . S
C118 N116 1.263 . S
C118 N117 1.358 . S
C118 H124 0.930 . S
C119 N117 1.400 . S
C119 C120 1.351 . S
C119 H136 0.930 . S
C120 N116 1.389 . S
C120 C119 1.351 . S
C120 H125 0.930 . S
O121 Cu115 1.974 . S
O121 C131 1.282 . S
C122 O123 1.261 . S
C122 O135 1.251 . S
O123 C122 1.261 . S
H124 C118 0.930 . S
H125 C120 0.930 . S
N126 Cu115 1.985 . S
N126 C128 1.335 . S
N126 C129 1.390 . S
N127 C128 1.345 . S
N127 C130 1.336 . S
C128 N126 1.335 . S
C128 N127 1.345 . S
C128 H133 0.930 . S
C129 N126 1.390 . S
C129 C130 1.346 . S
C129 H134 0.930 . S
C130 N127 1.336 . S
C130 C129 1.346 . S
C130 H137 0.929 1_455 S
C131 O121 1.282 . S
C131 O132 1.216 . S
O132 C131 1.216 . S
H133 C128 0.930 . S
H134 C129 0.930 . S
O135 Cu115 1.959 . S
O135 C122 1.251 . S
H136 C119 0.930 . S
H137 C130 0.929 1_655 S
Cu138 N139 1.999 . S
Cu138 O144 1.974 . S
Cu138 N149 1.985 . S
Cu138 O158 1.959 . S
N139 Cu138 1.999 . S
N139 C141 1.263 . S
N139 C143 1.389 . S
N140 C141 1.358 . S
N140 C142 1.400 . S
C141 N139 1.263 . S
C141 N140 1.358 . S
C141 H147 0.930 . S
C142 N140 1.400 . S
C142 C143 1.351 . S
C142 H159 0.930 . S
C143 N139 1.389 . S
C143 C142 1.351 . S
C143 H148 0.930 . S
O144 Cu138 1.974 . S
O144 C154 1.282 . S
C145 O146 1.261 . S
C145 O158 1.251 . S
O146 C145 1.261 . S
H147 C141 0.930 . S
H148 C143 0.930 . S
N149 Cu138 1.985 . S
N149 C151 1.335 . S
N149 C152 1.390 . S
N150 C151 1.345 . S
N150 C153 1.336 . S
C151 N149 1.335 . S
C151 N150 1.345 . S
C151 H156 0.930 . S
C152 N149 1.390 . S
C152 C153 1.346 . S
C152 H157 0.930 . S
C153 N150 1.336 . S
C153 C152 1.346 . S
C153 H160 0.929 1_545 S
C154 O144 1.282 . S
C154 O155 1.216 . S
O155 C154 1.216 . S
H156 C151 0.930 . S
H157 C152 0.930 . S
O158 Cu138 1.959 . S
O158 C145 1.251 . S
H159 C142 0.930 . S
H160 C153 0.929 1_565 S
Cu161 N162 1.999 . S
Cu161 O167 1.974 . S
Cu161 N172 1.985 . S
Cu161 O181 1.959 . S
N162 Cu161 1.999 . S
N162 C164 1.263 . S
N162 C166 1.389 . S
N163 C164 1.358 . S
N163 C165 1.400 . S
C164 N162 1.263 . S
C164 N163 1.358 . S
C164 H170 0.930 . S
C165 N163 1.400 . S
C165 C166 1.351 . S
C165 H182 0.930 . S
C166 N162 1.389 . S
C166 C165 1.351 . S
C166 H171 0.930 . S
O167 Cu161 1.974 . S
O167 C177 1.282 . S
C168 O169 1.261 . S
C168 O181 1.251 . S
O169 C168 1.261 . S
H170 C164 0.930 . S
H171 C166 0.930 . S
N172 Cu161 1.985 . S
N172 C174 1.335 . S
N172 C175 1.390 . S
N173 C174 1.345 . S
N173 C176 1.336 . S
C174 N172 1.335 . S
C174 N173 1.345 . S
C174 H179 0.930 . S
C175 N172 1.390 . S
C175 C176 1.346 . S
C175 H180 0.930 . S
C176 N173 1.336 . S
C176 C175 1.346 . S
C176 H183 0.929 . S
C177 O167 1.282 . S
C177 O178 1.216 . S
O178 C177 1.216 . S
H179 C174 0.930 . S
H180 C175 0.930 . S
O181 Cu161 1.959 . S
O181 C168 1.251 . S
H182 C165 0.930 . S
H183 C176 0.929 . S
Cu184 N185 1.999 . S
Cu184 O190 1.974 . S
Cu184 N195 1.985 . S
Cu184 O204 1.959 . S
N185 Cu184 1.999 . S
N185 C187 1.263 . S
N185 C189 1.389 . S
N186 C187 1.358 . S
N186 C188 1.400 . S
C187 N185 1.263 . S
C187 N186 1.358 . S
C187 H193 0.930 . S
C188 N186 1.400 . S
C188 C189 1.351 . S
C188 H205 0.930 . S
C189 N185 1.389 . S
C189 C188 1.351 . S
C189 H194 0.930 . S
O190 Cu184 1.974 . S
O190 C200 1.282 . S
C191 O192 1.261 . S
C191 O204 1.251 . S
O192 C191 1.261 . S
H193 C187 0.930 . S
H194 C189 0.930 . S
N195 Cu184 1.985 . S
N195 C197 1.335 . S
N195 C198 1.390 . S
N196 C197 1.345 . S
N196 C199 1.336 . S
C197 N195 1.335 . S
C197 N196 1.345 . S
C197 H202 0.930 . S
C198 N195 1.390 . S
C198 C199 1.346 . S
C198 H203 0.930 . S
C199 N196 1.336 . S
C199 C198 1.346 . S
C199 H206 0.929 1_565 S
C200 O190 1.282 . S
C200 O201 1.216 . S
O201 C200 1.216 . S
H202 C197 0.930 . S
H203 C198 0.930 . S
O204 Cu184 1.959 . S
O204 C191 1.251 . S
H205 C188 0.930 . S
H206 C199 0.929 1_545 S
Cu207 N208 1.999 . S
Cu207 O213 1.974 . S
Cu207 N218 1.985 . S
Cu207 O227 1.959 . S
N208 Cu207 1.999 . S
N208 C210 1.263 . S
N208 C212 1.389 . S
N209 C210 1.358 . S
N209 C211 1.400 . S
C210 N208 1.263 . S
C210 N209 1.358 . S
C210 H216 0.930 . S
C211 N209 1.400 . S
C211 C212 1.351 . S
C211 H228 0.930 . S
C212 N208 1.389 . S
C212 C211 1.351 . S
C212 H217 0.930 . S
O213 Cu207 1.974 . S
O213 C223 1.282 . S
C214 O215 1.261 . S
C214 O227 1.251 . S
O215 C214 1.261 . S
H216 C210 0.930 . S
H217 C212 0.930 . S
N218 Cu207 1.985 . S
N218 C220 1.335 . S
N218 C221 1.390 . S
N219 C220 1.345 . S
N219 C222 1.336 . S
C220 N218 1.335 . S
C220 N219 1.345 . S
C220 H225 0.930 . S
C221 N218 1.390 . S
C221 C222 1.346 . S
C221 H226 0.930 . S
C222 N219 1.336 . S
C222 C221 1.346 . S
C222 H229 0.929 . S
C223 O213 1.282 . S
C223 O224 1.216 . S
O224 C223 1.216 . S
H225 C220 0.930 . S
H226 C221 0.930 . S
O227 Cu207 1.959 . S
O227 C214 1.251 . S
H228 C211 0.930 . S
H229 C222 0.929 . S
Cu230 N231 1.999 . S
Cu230 O236 1.974 . S
Cu230 N241 1.985 . S
Cu230 O250 1.959 . S
N231 Cu230 1.999 . S
N231 C233 1.263 . S
N231 C235 1.389 . S
N232 C233 1.358 . S
N232 C234 1.400 . S
C233 N231 1.263 . S
C233 N232 1.358 . S
C233 H239 0.930 . S
C234 N232 1.400 . S
C234 C235 1.351 . S
C234 H251 0.930 . S
C235 N231 1.389 . S
C235 C234 1.351 . S
C235 H240 0.930 . S
O236 Cu230 1.974 . S
O236 C246 1.282 . S
C237 O238 1.261 . S
C237 O250 1.251 . S
O238 C237 1.261 . S
H239 C233 0.930 . S
H240 C235 0.930 . S
N241 Cu230 1.985 . S
N241 C243 1.335 . S
N241 C244 1.390 . S
N242 C243 1.345 . S
N242 C245 1.336 . S
C243 N241 1.335 . S
C243 N242 1.345 . S
C243 H248 0.930 . S
C244 N241 1.390 . S
C244 C245 1.346 . S
C244 H249 0.930 . S
C245 N242 1.336 . S
C245 C244 1.346 . S
C245 H252 0.929 . S
C246 O236 1.282 . S
C246 O247 1.216 . S
O247 C246 1.216 . S
H248 C243 0.930 . S
H249 C244 0.930 . S
O250 Cu230 1.959 . S
O250 C237 1.251 . S
H251 C234 0.930 . S
H252 C245 0.929 . S
Cu253 N254 1.999 . S
Cu253 O259 1.974 . S
Cu253 N264 1.985 . S
Cu253 O273 1.959 . S
N254 Cu253 1.999 . S
N254 C256 1.263 . S
N254 C258 1.389 . S
N255 C256 1.358 . S
N255 C257 1.400 . S
C256 N254 1.263 . S
C256 N255 1.358 . S
C256 H262 0.930 . S
C257 N255 1.400 . S
C257 C258 1.351 . S
C257 H274 0.930 . S
C258 N254 1.389 . S
C258 C257 1.351 . S
C258 H263 0.930 . S
O259 Cu253 1.974 . S
O259 C269 1.282 . S
C260 O261 1.261 . S
C260 O273 1.251 . S
O261 C260 1.261 . S
H262 C256 0.930 . S
H263 C258 0.930 . S
N264 Cu253 1.985 . S
N264 C266 1.335 . S
N264 C267 1.390 . S
N265 C266 1.345 . S
N265 C268 1.336 . S
C266 N264 1.335 . S
C266 N265 1.345 . S
C266 H271 0.930 . S
C267 N264 1.390 . S
C267 C268 1.346 . S
C267 H272 0.930 . S
C268 N265 1.336 . S
C268 C267 1.346 . S
C268 H275 0.929 1_655 S
C269 O259 1.282 . S
C269 O270 1.216 . S
O270 C269 1.216 . S
H271 C266 0.930 . S
H272 C267 0.930 . S
O273 Cu253 1.959 . S
O273 C260 1.251 . S
H274 C257 0.930 . S
H275 C268 0.929 1_455 S
Cu276 N277 1.999 . S
Cu276 O282 1.974 . S
Cu276 N287 1.985 . S
Cu276 O296 1.959 . S
N277 Cu276 1.999 . S
N277 C279 1.263 . S
N277 C281 1.389 . S
N278 C279 1.358 . S
N278 C280 1.400 . S
C279 N277 1.263 . S
C279 N278 1.358 . S
C279 H285 0.930 . S
C280 N278 1.400 . S
C280 C281 1.351 . S
C280 H297 0.930 . S
C281 N277 1.389 . S
C281 C280 1.351 . S
C281 H286 0.930 . S
O282 Cu276 1.974 . S
O282 C292 1.282 . S
C283 O284 1.261 . S
C283 O296 1.251 . S
O284 C283 1.261 . S
H285 C279 0.930 . S
H286 C281 0.930 . S
N287 Cu276 1.985 . S
N287 C289 1.335 . S
N287 C290 1.390 . S
N288 C289 1.345 . S
N288 C291 1.336 . S
C289 N287 1.335 . S
C289 N288 1.345 . S
C289 H294 0.930 . S
C290 N287 1.390 . S
C290 C291 1.346 . S
C290 H295 0.930 . S
C291 N288 1.336 . S
C291 C290 1.346 . S
C291 H298 0.929 . S
C292 O282 1.282 . S
C292 O293 1.216 . S
O293 C292 1.216 . S
H294 C289 0.930 . S
H295 C290 0.930 . S
O296 Cu276 1.959 . S
O296 C283 1.251 . S
H297 C280 0.930 . S
H298 C291 0.929 . S
Cu299 N300 1.999 . S
Cu299 O305 1.974 . S
Cu299 N310 1.985 . S
Cu299 O319 1.959 . S
N300 Cu299 1.999 . S
N300 C302 1.263 . S
N300 C304 1.389 . S
N301 C302 1.358 . S
N301 C303 1.400 . S
C302 N300 1.263 . S
C302 N301 1.358 . S
C302 H308 0.930 . S
C303 N301 1.400 . S
C303 C304 1.351 . S
C303 H320 0.930 . S
C304 N300 1.389 . S
C304 C303 1.351 . S
C304 H309 0.930 . S
O305 Cu299 1.974 . S
O305 C315 1.282 . S
C306 O307 1.261 . S
C306 O319 1.251 . S
O307 C306 1.261 . S
H308 C302 0.930 . S
H309 C304 0.930 . S
N310 Cu299 1.985 . S
N310 C312 1.335 . S
N310 C313 1.390 . S
N311 C312 1.345 . S
N311 C314 1.336 . S
C312 N310 1.335 . S
C312 N311 1.345 . S
C312 H317 0.930 . S
C313 N310 1.390 . S
C313 C314 1.346 . S
C313 H318 0.930 . S
C314 N311 1.336 . S
C314 C313 1.346 . S
C314 H321 0.929 1_655 S
C315 O305 1.282 . S
C315 O316 1.216 . S
O316 C315 1.216 . S
H317 C312 0.930 . S
H318 C313 0.930 . S
O319 Cu299 1.959 . S
O319 C306 1.251 . S
H320 C303 0.930 . S
H321 C314 0.929 1_455 S
Cu322 N323 1.999 . S
Cu322 O328 1.974 . S
Cu322 N333 1.985 . S
Cu322 O342 1.959 . S
N323 Cu322 1.999 . S
N323 C325 1.263 . S
N323 C327 1.389 . S
N324 C325 1.358 . S
N324 C326 1.400 . S
C325 N323 1.263 . S
C325 N324 1.358 . S
C325 H331 0.930 . S
C326 N324 1.400 . S
C326 C327 1.351 . S
C326 H343 0.930 . S
C327 N323 1.389 . S
C327 C326 1.351 . S
C327 H332 0.930 . S
O328 Cu322 1.974 . S
O328 C338 1.282 . S
C329 O330 1.261 . S
C329 O342 1.251 . S
O330 C329 1.261 . S
H331 C325 0.930 . S
H332 C327 0.930 . S
N333 Cu322 1.985 . S
N333 C335 1.335 . S
N333 C336 1.390 . S
N334 C335 1.345 . S
N334 C337 1.336 . S
C335 N333 1.335 . S
C335 N334 1.345 . S
C335 H340 0.930 . S
C336 N333 1.390 . S
C336 C337 1.346 . S
C336 H341 0.930 . S
C337 N334 1.336 . S
C337 C336 1.346 . S
C337 H344 0.929 1_565 S
C338 O328 1.282 . S
C338 O339 1.216 . S
O339 C338 1.216 . S
H340 C335 0.930 . S
H341 C336 0.930 . S
O342 Cu322 1.959 . S
O342 C329 1.251 . S
H343 C326 0.930 . S
H344 C337 0.929 1_545 S
Cu345 N346 1.999 . S
Cu345 O351 1.974 . S
Cu345 N356 1.985 . S
Cu345 O365 1.959 . S
N346 Cu345 1.999 . S
N346 C348 1.263 . S
N346 C350 1.389 . S
N347 C348 1.358 . S
N347 C349 1.400 . S
C348 N346 1.263 . S
C348 N347 1.358 . S
C348 H354 0.930 . S
C349 N347 1.400 . S
C349 C350 1.351 . S
C349 H366 0.930 . S
C350 N346 1.389 . S
C350 C349 1.351 . S
C350 H355 0.930 . S
O351 Cu345 1.974 . S
O351 C361 1.282 . S
C352 O353 1.261 . S
C352 O365 1.251 . S
O353 C352 1.261 . S
H354 C348 0.930 . S
H355 C350 0.930 . S
N356 Cu345 1.985 . S
N356 C358 1.335 . S
N356 C359 1.390 . S
N357 C358 1.345 . S
N357 C360 1.336 . S
C358 N356 1.335 . S
C358 N357 1.345 . S
C358 H363 0.930 . S
C359 N356 1.390 . S
C359 C360 1.346 . S
C359 H364 0.930 . S
C360 N357 1.336 . S
C360 C359 1.346 . S
C360 H367 0.929 . S
C361 O351 1.282 . S
C361 O362 1.216 . S
O362 C361 1.216 . S
H363 C358 0.930 . S
H364 C359 0.930 . S
O365 Cu345 1.959 . S
O365 C352 1.251 . S
H366 C349 0.930 . S
H367 C360 0.929 . S
H368 C374 0.930 . S
H369 C377 0.930 . S
H370 C378 0.930 . S
H371 C379 0.930 . S
H372 C382 0.930 . S
H373 C383 0.930 . S
C374 H368 0.930 . S
C374 C375 1.355 . S
C374 C376 1.415 . S
C375 C374 1.355 . S
C375 C377 1.419 . S
C376 C374 1.415 . S
C376 C381 1.425 1_556 S
C376 C383 1.409 1_556 S
C377 H369 0.930 . S
C377 C375 1.419 . S
C377 C378 1.362 . S
C378 H370 0.930 . S
C378 C377 1.362 . S
C378 C381 1.409 1_556 S
C379 H371 0.930 . S
C379 C380 1.355 . S
C379 C381 1.415 . S
C380 C379 1.355 . S
C380 C382 1.419 . S
C381 C376 1.425 1_554 S
C381 C378 1.409 1_554 S
C381 C379 1.415 . S
C382 H372 0.930 . S
C382 C380 1.419 . S
C382 C383 1.362 . S
C383 H373 0.930 . S
C383 C376 1.409 1_554 S
C383 C382 1.362 . S
H384 C390 0.930 . S
H385 C393 0.930 . S
H386 C394 0.930 . S
H387 C395 0.930 . S
H388 C398 0.930 . S
H389 C399 0.930 . S
C390 H384 0.930 . S
C390 C391 1.355 . S
C390 C392 1.415 . S
C391 C390 1.355 . S
C391 C393 1.419 . S
C392 C390 1.415 . S
C392 C397 1.425 . S
C392 C399 1.409 . S
C393 H385 0.930 . S
C393 C391 1.419 . S
C393 C394 1.362 . S
C394 H386 0.930 . S
C394 C393 1.362 . S
C394 C397 1.409 . S
C395 H387 0.930 . S
C395 C396 1.355 . S
C395 C397 1.415 . S
C396 C395 1.355 . S
C396 C398 1.419 . S
C397 C392 1.425 . S
C397 C394 1.409 . S
C397 C395 1.415 . S
C398 H388 0.930 . S
C398 C396 1.419 . S
C398 C399 1.362 . S
C399 H389 0.930 . S
C399 C392 1.409 . S
C399 C398 1.362 . S
H400 C406 0.930 . S
H401 C409 0.930 . S
H402 C410 0.930 . S
H403 C411 0.930 . S
H404 C414 0.930 . S
H405 C415 0.930 . S
C406 H400 0.930 . S
C406 C407 1.355 . S
C406 C408 1.415 . S
C407 C406 1.355 . S
C407 C409 1.419 . S
C408 C406 1.415 . S
C408 C413 1.425 1_556 S
C408 C415 1.409 1_556 S
C409 H401 0.930 . S
C409 C407 1.419 . S
C409 C410 1.362 . S
C410 H402 0.930 . S
C410 C409 1.362 . S
C410 C413 1.409 1_556 S
C411 H403 0.930 . S
C411 C412 1.355 . S
C411 C413 1.415 . S
C412 C411 1.355 . S
C412 C414 1.419 . S
C413 C408 1.425 1_554 S
C413 C410 1.409 1_554 S
C413 C411 1.415 . S
C414 H404 0.930 . S
C414 C412 1.419 . S
C414 C415 1.362 . S
C415 H405 0.930 . S
C415 C408 1.409 1_554 S
C415 C414 1.362 . S
H416 C422 0.930 . S
H417 C425 0.930 . S
H418 C426 0.930 . S
H419 C427 0.930 . S
H420 C430 0.930 . S
H421 C431 0.930 . S
C422 H416 0.930 . S
C422 C423 1.355 . S
C422 C424 1.415 . S
C423 C422 1.355 . S
C423 C425 1.419 . S
C424 C422 1.415 . S
C424 C429 1.425 . S
C424 C431 1.409 . S
C425 H417 0.930 . S
C425 C423 1.419 . S
C425 C426 1.362 . S
C426 H418 0.930 . S
C426 C425 1.362 . S
C426 C429 1.409 . S
C427 H419 0.930 . S
C427 C428 1.355 . S
C427 C429 1.415 . S
C428 C427 1.355 . S
C428 C430 1.419 . S
C429 C424 1.425 . S
C429 C426 1.409 . S
C429 C427 1.415 . S
C430 H420 0.930 . S
C430 C428 1.419 . S
C430 C431 1.362 . S
C431 H421 0.930 . S
C431 C424 1.409 . S
C431 C430 1.362 . S
H432 C438 0.930 . S
H433 C441 0.930 . S
H434 C442 0.930 1_556 S
H435 C443 0.930 . S
H436 C446 0.930 . S
H437 C447 0.930 1_554 S
C438 H432 0.930 . S
C438 C439 1.355 . S
C438 C440 1.415 . S
C439 C438 1.355 . S
C439 C441 1.419 . S
C440 C438 1.415 . S
C440 C445 1.425 1_554 S
C440 C447 1.409 1_554 S
C441 H433 0.930 . S
C441 C439 1.419 . S
C441 C442 1.362 . S
C442 H434 0.930 1_554 S
C442 C441 1.362 . S
C442 C445 1.409 1_554 S
C443 H435 0.930 . S
C443 C444 1.355 . S
C443 C445 1.415 . S
C444 C443 1.355 . S
C444 C446 1.419 . S
C445 C440 1.425 1_556 S
C445 C442 1.409 1_556 S
C445 C443 1.415 . S
C446 H436 0.930 . S
C446 C444 1.419 . S
C446 C447 1.362 . S
C447 H437 0.930 1_556 S
C447 C440 1.409 1_556 S
C447 C446 1.362 . S
H448 C454 0.930 . S
H449 C457 0.930 . S
H450 C458 0.930 . S
H451 C459 0.930 . S
H452 C462 0.930 . S
H453 C463 0.930 . S
C454 H448 0.930 . S
C454 C455 1.355 . S
C454 C456 1.415 . S
C455 C454 1.355 . S
C455 C457 1.419 . S
C456 C454 1.415 . S
C456 C461 1.425 . S
C456 C463 1.409 . S
C457 H449 0.930 . S
C457 C455 1.419 . S
C457 C458 1.362 . S
C458 H450 0.930 . S
C458 C457 1.362 . S
C458 C461 1.409 . S
C459 H451 0.930 . S
C459 C460 1.355 . S
C459 C461 1.415 . S
C460 C459 1.355 . S
C460 C462 1.419 . S
C461 C456 1.425 . S
C461 C458 1.409 . S
C461 C459 1.415 . S
C462 H452 0.930 . S
C462 C460 1.419 . S
C462 C463 1.362 . S
C463 H453 0.930 . S
C463 C456 1.409 . S
C463 C462 1.362 . S
H464 C470 0.930 . S
H465 C473 0.930 . S
H466 C474 0.930 1_554 S
H467 C475 0.930 . S
H468 C478 0.930 . S
H469 C479 0.930 1_556 S
C470 H464 0.930 . S
C470 C471 1.355 . S
C470 C472 1.415 . S
C471 C470 1.355 . S
C471 C473 1.419 . S
C472 C470 1.415 . S
C472 C477 1.425 1_556 S
C472 C479 1.409 1_556 S
C473 H465 0.930 . S
C473 C471 1.419 . S
C473 C474 1.362 . S
C474 H466 0.930 1_556 S
C474 C473 1.362 . S
C474 C477 1.409 1_556 S
C475 H467 0.930 . S
C475 C476 1.355 . S
C475 C477 1.415 . S
C476 C475 1.355 . S
C476 C478 1.419 . S
C477 C472 1.425 1_554 S
C477 C474 1.409 1_554 S
C477 C475 1.415 . S
C478 H468 0.930 . S
C478 C476 1.419 . S
C478 C479 1.362 . S
C479 H469 0.930 1_554 S
C479 C472 1.409 1_554 S
C479 C478 1.362 . S
H480 C486 0.930 . S
H481 C489 0.930 . S
H482 C490 0.930 . S
H483 C491 0.930 . S
H484 C494 0.930 . S
H485 C495 0.930 . S
C486 H480 0.930 . S
C486 C487 1.355 . S
C486 C488 1.415 . S
C487 C486 1.355 . S
C487 C489 1.419 . S
C488 C486 1.415 . S
C488 C493 1.425 . S
C488 C495 1.409 . S
C489 H481 0.930 . S
C489 C487 1.419 . S
C489 C490 1.362 . S
C490 H482 0.930 . S
C490 C489 1.362 . S
C490 C493 1.409 . S
C491 H483 0.930 . S
C491 C492 1.355 . S
C491 C493 1.415 . S
C492 C491 1.355 . S
C492 C494 1.419 . S
C493 C488 1.425 . S
C493 C490 1.409 . S
C493 C491 1.415 . S
C494 H484 0.930 . S
C494 C492 1.419 . S
C494 C495 1.362 . S
C495 H485 0.930 . S
C495 C488 1.409 . S
C495 C494 1.362 . S
H496 C502 0.930 . S
H497 C505 0.930 . S
H498 C506 0.930 . S
H499 C507 0.930 . S
H500 C510 0.930 . S
H501 C511 0.930 . S
C502 H496 0.930 . S
C502 C503 1.355 . S
C502 C504 1.415 . S
C503 C502 1.355 . S
C503 C505 1.419 . S
C504 C502 1.415 . S
C504 C509 1.425 . S
C504 C511 1.409 . S
C505 H497 0.930 . S
C505 C503 1.419 . S
C505 C506 1.362 . S
C506 H498 0.930 . S
C506 C505 1.362 . S
C506 C509 1.409 . S
C507 H499 0.930 . S
C507 C508 1.355 . S
C507 C509 1.415 . S
C508 C507 1.355 . S
C508 C510 1.419 . S
C509 C504 1.425 . S
C509 C506 1.409 . S
C509 C507 1.415 . S
C510 H500 0.930 . S
C510 C508 1.419 . S
C510 C511 1.362 . S
C511 H501 0.930 . S
C511 C504 1.409 . S
C511 C510 1.362 . S
H512 C518 0.930 . S
H513 C521 0.930 . S
H514 C522 0.930 . S
H515 C523 0.930 . S
H516 C526 0.930 . S
H517 C527 0.930 . S
C518 H512 0.930 . S
C518 C519 1.355 . S
C518 C520 1.415 . S
C519 C518 1.355 . S
C519 C521 1.419 . S
C520 C518 1.415 . S
C520 C525 1.425 . S
C520 C527 1.409 . S
C521 H513 0.930 . S
C521 C519 1.419 . S
C521 C522 1.362 . S
C522 H514 0.930 . S
C522 C521 1.362 . S
C522 C525 1.409 . S
C523 H515 0.930 . S
C523 C524 1.355 . S
C523 C525 1.415 . S
C524 C523 1.355 . S
C524 C526 1.419 . S
C525 C520 1.425 . S
C525 C522 1.409 . S
C525 C523 1.415 . S
C526 H516 0.930 . S
C526 C524 1.419 . S
C526 C527 1.362 . S
C527 H517 0.930 . S
C527 C520 1.409 . S
C527 C526 1.362 . S
H528 C534 0.930 . S
H529 C537 0.930 . S
H530 C538 0.930 . S
H531 C539 0.930 . S
H532 C542 0.930 . S
H533 C543 0.930 . S
C534 H528 0.930 . S
C534 C535 1.355 . S
C534 C536 1.415 . S
C535 C534 1.355 . S
C535 C537 1.419 . S
C536 C534 1.415 . S
C536 C541 1.425 . S
C536 C543 1.409 . S
C537 H529 0.930 . S
C537 C535 1.419 . S
C537 C538 1.362 . S
C538 H530 0.930 . S
C538 C537 1.362 . S
C538 C541 1.409 . S
C539 H531 0.930 . S
C539 C540 1.355 . S
C539 C541 1.415 . S
C540 C539 1.355 . S
C540 C542 1.419 . S
C541 C536 1.425 . S
C541 C538 1.409 . S
C541 C539 1.415 . S
C542 H532 0.930 . S
C542 C540 1.419 . S
C542 C543 1.362 . S
C543 H533 0.930 . S
C543 C536 1.409 . S
C543 C542 1.362 . S
H544 C550 0.930 . S
H545 C553 0.930 . S
H546 C554 0.930 . S
H547 C555 0.930 . S
H548 C558 0.930 . S
H549 C559 0.930 . S
C550 H544 0.930 . S
C550 C551 1.355 . S
C550 C552 1.415 . S
C551 C550 1.355 . S
C551 C553 1.419 . S
C552 C550 1.415 . S
C552 C557 1.425 . S
C552 C559 1.409 . S
C553 H545 0.930 . S
C553 C551 1.419 . S
C553 C554 1.362 . S
C554 H546 0.930 . S
C554 C553 1.362 . S
C554 C557 1.409 . S
C555 H547 0.930 . S
C555 C556 1.355 . S
C555 C557 1.415 . S
C556 C555 1.355 . S
C556 C558 1.419 . S
C557 C552 1.425 . S
C557 C554 1.409 . S
C557 C555 1.415 . S
C558 H548 0.930 . S
C558 C556 1.419 . S
C558 C559 1.362 . S
C559 H549 0.930 . S
C559 C552 1.409 . S
C559 C558 1.362 . S
H560 C566 0.930 . S
H561 C569 0.930 . S
H562 C570 0.930 . S
H563 C571 0.930 . S
H564 C574 0.930 . S
H565 C575 0.930 . S
C566 H560 0.930 . S
C566 C567 1.355 . S
C566 C568 1.415 . S
C567 C566 1.355 . S
C567 C569 1.419 . S
C568 C566 1.415 . S
C568 C573 1.425 . S
C568 C575 1.409 . S
C569 H561 0.930 . S
C569 C567 1.419 . S
C569 C570 1.362 . S
C570 H562 0.930 . S
C570 C569 1.362 . S
C570 C573 1.409 . S
C571 H563 0.930 . S
C571 C572 1.355 . S
C571 C573 1.415 . S
C572 C571 1.355 . S
C572 C574 1.419 . S
C573 C568 1.425 . S
C573 C570 1.409 . S
C573 C571 1.415 . S
C574 H564 0.930 . S
C574 C572 1.419 . S
C574 C575 1.362 . S
C575 H565 0.930 . S
C575 C568 1.409 . S
C575 C574 1.362 . S
H576 C582 0.930 . S
H577 C585 0.930 . S
H578 C586 0.930 . S
H579 C587 0.930 . S
H580 C590 0.930 . S
H581 C591 0.930 . S
C582 H576 0.930 . S
C582 C583 1.355 . S
C582 C584 1.415 . S
C583 C582 1.355 . S
C583 C585 1.419 . S
C584 C582 1.415 . S
C584 C589 1.425 . S
C584 C591 1.409 . S
C585 H577 0.930 . S
C585 C583 1.419 . S
C585 C586 1.362 . S
C586 H578 0.930 . S
C586 C585 1.362 . S
C586 C589 1.409 . S
C587 H579 0.930 . S
C587 C588 1.355 . S
C587 C589 1.415 . S
C588 C587 1.355 . S
C588 C590 1.419 . S
C589 C584 1.425 . S
C589 C586 1.409 . S
C589 C587 1.415 . S
C590 H580 0.930 . S
C590 C588 1.419 . S
C590 C591 1.362 . S
C591 H581 0.930 . S
C591 C584 1.409 . S
C591 C590 1.362 . S
H592 C598 0.930 . S
H593 C601 0.930 . S
H594 C602 0.930 . S
H595 C603 0.930 . S
H596 C606 0.930 . S
H597 C607 0.930 . S
C598 H592 0.930 . S
C598 C599 1.355 . S
C598 C600 1.415 . S
C599 C598 1.355 . S
C599 C601 1.419 . S
C600 C598 1.415 . S
C600 C605 1.425 . S
C600 C607 1.409 . S
C601 H593 0.930 . S
C601 C599 1.419 . S
C601 C602 1.362 . S
C602 H594 0.930 . S
C602 C601 1.362 . S
C602 C605 1.409 . S
C603 H595 0.930 . S
C603 C604 1.355 . S
C603 C605 1.415 . S
C604 C603 1.355 . S
C604 C606 1.419 . S
C605 C600 1.425 . S
C605 C602 1.409 . S
C605 C603 1.415 . S
C606 H596 0.930 . S
C606 C604 1.419 . S
C606 C607 1.362 . S
C607 H597 0.930 . S
C607 C600 1.409 . S
C607 C606 1.362 . S
H608 C614 0.930 . S
H609 C617 0.930 . S
H610 C618 0.930 . S
H611 C619 0.930 . S
H612 C622 0.930 . S
H613 C623 0.930 . S
C614 H608 0.930 . S
C614 C615 1.355 . S
C614 C616 1.415 . S
C615 C614 1.355 . S
C615 C617 1.419 . S
C616 C614 1.415 . S
C616 C621 1.425 . S
C616 C623 1.409 . S
C617 H609 0.930 . S
C617 C615 1.419 . S
C617 C618 1.362 . S
C618 H610 0.930 . S
C618 C617 1.362 . S
C618 C621 1.409 . S
C619 H611 0.930 . S
C619 C620 1.355 . S
C619 C621 1.415 . S
C620 C619 1.355 . S
C620 C622 1.419 . S
C621 C616 1.425 . S
C621 C618 1.409 . S
C621 C619 1.415 . S
C622 H612 0.930 . S
C622 C620 1.419 . S
C622 C623 1.362 . S
C623 H613 0.930 . S
C623 C616 1.409 . S
C623 C622 1.362 . S
H624 C630 0.930 . S
H625 C633 0.930 . S
H626 C634 0.930 . S
H627 C635 0.930 . S
H628 C638 0.930 . S
H629 C639 0.930 . S
C630 H624 0.930 . S
C630 C631 1.355 . S
C630 C632 1.415 . S
C631 C630 1.355 . S
C631 C633 1.419 . S
C632 C630 1.415 . S
C632 C637 1.425 . S
C632 C639 1.409 . S
C633 H625 0.930 . S
C633 C631 1.419 . S
C633 C634 1.362 . S
C634 H626 0.930 . S
C634 C633 1.362 . S
C634 C637 1.409 . S
C635 H627 0.930 . S
C635 C636 1.355 . S
C635 C637 1.415 . S
C636 C635 1.355 . S
C636 C638 1.419 . S
C637 C632 1.425 . S
C637 C634 1.409 . S
C637 C635 1.415 . S
C638 H628 0.930 . S
C638 C636 1.419 . S
C638 C639 1.362 . S
C639 H629 0.930 . S
C639 C632 1.409 . S
C639 C638 1.362 . S
H640 C646 0.930 . S
H641 C649 0.930 . S
H642 C650 0.930 . S
H643 C651 0.930 . S
H644 C654 0.930 . S
H645 C655 0.930 . S
C646 H640 0.930 . S
C646 C647 1.355 . S
C646 C648 1.415 . S
C647 C646 1.355 . S
C647 C649 1.419 . S
C648 C646 1.415 . S
C648 C653 1.425 . S
C648 C655 1.409 . S
C649 H641 0.930 . S
C649 C647 1.419 . S
C649 C650 1.362 . S
C650 H642 0.930 . S
C650 C649 1.362 . S
C650 C653 1.409 . S
C651 H643 0.930 . S
C651 C652 1.355 . S
C651 C653 1.415 . S
C652 C651 1.355 . S
C652 C654 1.419 . S
C653 C648 1.425 . S
C653 C650 1.409 . S
C653 C651 1.415 . S
C654 H644 0.930 . S
C654 C652 1.419 . S
C654 C655 1.362 . S
C655 H645 0.930 . S
C655 C648 1.409 . S
C655 C654 1.362 . S
H656 C662 0.930 . S
H657 C665 0.930 . S
H658 C666 0.930 . S
H659 C667 0.930 . S
H660 C670 0.930 . S
H661 C671 0.930 . S
C662 H656 0.930 . S
C662 C663 1.355 . S
C662 C664 1.415 . S
C663 C662 1.355 . S
C663 C665 1.419 . S
C664 C662 1.415 . S
C664 C669 1.425 . S
C664 C671 1.409 . S
C665 H657 0.930 . S
C665 C663 1.419 . S
C665 C666 1.362 . S
C666 H658 0.930 . S
C666 C665 1.362 . S
C666 C669 1.409 . S
C667 H659 0.930 . S
C667 C668 1.355 . S
C667 C669 1.415 . S
C668 C667 1.355 . S
C668 C670 1.419 . S
C669 C664 1.425 . S
C669 C666 1.409 . S
C669 C667 1.415 . S
C670 H660 0.930 . S
C670 C668 1.419 . S
C670 C671 1.362 . S
C671 H661 0.930 . S
C671 C664 1.409 . S
C671 C670 1.362 . S
H672 C678 0.930 . S
H673 C681 0.930 . S
H674 C682 0.930 . S
H675 C683 0.930 . S
H676 C686 0.930 . S
H677 C687 0.930 . S
C678 H672 0.930 . S
C678 C679 1.355 . S
C678 C680 1.415 . S
C679 C678 1.355 . S
C679 C681 1.419 . S
C680 C678 1.415 . S
C680 C685 1.425 . S
C680 C687 1.409 . S
C681 H673 0.930 . S
C681 C679 1.419 . S
C681 C682 1.362 . S
C682 H674 0.930 . S
C682 C681 1.362 . S
C682 C685 1.409 . S
C683 H675 0.930 . S
C683 C684 1.355 . S
C683 C685 1.415 . S
C684 C683 1.355 . S
C684 C686 1.419 . S
C685 C680 1.425 . S
C685 C682 1.409 . S
C685 C683 1.415 . S
C686 H676 0.930 . S
C686 C684 1.419 . S
C686 C687 1.362 . S
C687 H677 0.930 . S
C687 C680 1.409 . S
C687 C686 1.362 . S
H688 C694 0.930 . S
H689 C697 0.930 . S
H690 C698 0.930 . S
H691 C699 0.930 . S
H692 C702 0.930 . S
H693 C703 0.930 . S
C694 H688 0.930 . S
C694 C695 1.355 . S
C694 C696 1.415 . S
C695 C694 1.355 . S
C695 C697 1.419 . S
C696 C694 1.415 . S
C696 C701 1.425 . S
C696 C703 1.409 . S
C697 H689 0.930 . S
C697 C695 1.419 . S
C697 C698 1.362 . S
C698 H690 0.930 . S
C698 C697 1.362 . S
C698 C701 1.409 . S
C699 H691 0.930 . S
C699 C700 1.355 . S
C699 C701 1.415 . S
C700 C699 1.355 . S
C700 C702 1.419 . S
C701 C696 1.425 . S
C701 C698 1.409 . S
C701 C699 1.415 . S
C702 H692 0.930 . S
C702 C700 1.419 . S
C702 C703 1.362 . S
C703 H693 0.930 . S
C703 C696 1.409 . S
C703 C702 1.362 . S
H704 C710 0.930 . S
H705 C713 0.930 . S
H706 C714 0.930 . S
H707 C715 0.930 . S
H708 C718 0.930 . S
H709 C719 0.930 . S
C710 H704 0.930 . S
C710 C711 1.355 . S
C710 C712 1.415 . S
C711 C710 1.355 . S
C711 C713 1.419 . S
C712 C710 1.415 . S
C712 C717 1.425 . S
C712 C719 1.409 . S
C713 H705 0.930 . S
C713 C711 1.419 . S
C713 C714 1.362 . S
C714 H706 0.930 . S
C714 C713 1.362 . S
C714 C717 1.409 . S
C715 H707 0.930 . S
C715 C716 1.355 . S
C715 C717 1.415 . S
C716 C715 1.355 . S
C716 C718 1.419 . S
C717 C712 1.425 . S
C717 C714 1.409 . S
C717 C715 1.415 . S
C718 H708 0.930 . S
C718 C716 1.419 . S
C718 C719 1.362 . S
C719 H709 0.930 . S
C719 C712 1.409 . S
C719 C718 1.362 . S
H720 C726 0.930 . S
H721 C729 0.930 . S
H722 C730 0.930 . S
H723 C731 0.930 . S
H724 C734 0.930 . S
H725 C735 0.930 . S
C726 H720 0.930 . S
C726 C727 1.355 . S
C726 C728 1.415 . S
C727 C726 1.355 . S
C727 C729 1.419 . S
C728 C726 1.415 . S
C728 C733 1.425 . S
C728 C735 1.409 . S
C729 H721 0.930 . S
C729 C727 1.419 . S
C729 C730 1.362 . S
C730 H722 0.930 . S
C730 C729 1.362 . S
C730 C733 1.409 . S
C731 H723 0.930 . S
C731 C732 1.355 . S
C731 C733 1.415 . S
C732 C731 1.355 . S
C732 C734 1.419 . S
C733 C728 1.425 . S
C733 C730 1.409 . S
C733 C731 1.415 . S
C734 H724 0.930 . S
C734 C732 1.419 . S
C734 C735 1.362 . S
C735 H725 0.930 . S
C735 C728 1.409 . S
C735 C734 1.362 . S
H736 C742 0.930 . S
H737 C745 0.930 . S
H738 C746 0.930 . S
H739 C747 0.930 . S
H740 C750 0.930 . S
H741 C751 0.930 . S
C742 H736 0.930 . S
C742 C743 1.355 . S
C742 C744 1.415 . S
C743 C742 1.355 . S
C743 C745 1.419 . S
C744 C742 1.415 . S
C744 C749 1.425 . S
C744 C751 1.409 . S
C745 H737 0.930 . S
C745 C743 1.419 . S
C745 C746 1.362 . S
C746 H738 0.930 . S
C746 C745 1.362 . S
C746 C749 1.409 . S
C747 H739 0.930 . S
C747 C748 1.355 . S
C747 C749 1.415 . S
C748 C747 1.355 . S
C748 C750 1.419 . S
C749 C744 1.425 . S
C749 C746 1.409 . S
C749 C747 1.415 . S
C750 H740 0.930 . S
C750 C748 1.419 . S
C750 C751 1.362 . S
C751 H741 0.930 . S
C751 C744 1.409 . S
C751 C750 1.362 . S
H752 C758 0.930 . S
H753 C761 0.930 . S
H754 C762 0.930 . S
H755 C763 0.930 . S
H756 C766 0.930 . S
H757 C767 0.930 . S
C758 H752 0.930 . S
C758 C759 1.355 1_565 S
C758 C760 1.415 . S
C759 C758 1.355 1_545 S
C759 C761 1.419 . S
C760 C758 1.415 . S
C760 C765 1.425 . S
C760 C767 1.409 . S
C761 H753 0.930 . S
C761 C759 1.419 . S
C761 C762 1.362 1_545 S
C762 H754 0.930 . S
C762 C761 1.362 1_565 S
C762 C765 1.409 . S
C763 H755 0.930 . S
C763 C764 1.355 . S
C763 C765 1.415 . S
C764 C763 1.355 . S
C764 C766 1.419 . S
C765 C760 1.425 . S
C765 C762 1.409 . S
C765 C763 1.415 . S
C766 H756 0.930 . S
C766 C764 1.419 . S
C766 C767 1.362 . S
C767 H757 0.930 . S
C767 C760 1.409 . S
C767 C766 1.362 . S
H768 C774 0.930 . S
H769 C777 0.930 . S
H770 C778 0.930 . S
H771 C779 0.930 . S
H772 C782 0.930 . S
H773 C783 0.930 . S
C774 H768 0.930 . S
C774 C775 1.355 . S
C774 C776 1.415 . S
C775 C774 1.355 . S
C775 C777 1.419 . S
C776 C774 1.415 . S
C776 C781 1.425 . S
C776 C783 1.409 . S
C777 H769 0.930 . S
C777 C775 1.419 . S
C777 C778 1.362 . S
C778 H770 0.930 . S
C778 C777 1.362 . S
C778 C781 1.409 . S
C779 H771 0.930 . S
C779 C780 1.355 . S
C779 C781 1.415 . S
C780 C779 1.355 . S
C780 C782 1.419 . S
C781 C776 1.425 . S
C781 C778 1.409 . S
C781 C779 1.415 . S
C782 H772 0.930 . S
C782 C780 1.419 . S
C782 C783 1.362 . S
C783 H773 0.930 . S
C783 C776 1.409 . S
C783 C782 1.362 . S
H784 C790 0.930 . S
H785 C793 0.930 . S
H786 C794 0.930 . S
H787 C795 0.930 . S
H788 C798 0.930 . S
H789 C799 0.930 . S
C790 H784 0.930 . S
C790 C791 1.355 . S
C790 C792 1.415 . S
C791 C790 1.355 . S
C791 C793 1.419 . S
C792 C790 1.415 . S
C792 C797 1.425 . S
C792 C799 1.409 . S
C793 H785 0.930 . S
C793 C791 1.419 . S
C793 C794 1.362 . S
C794 H786 0.930 . S
C794 C793 1.362 . S
C794 C797 1.409 . S
C795 H787 0.930 . S
C795 C796 1.355 1_455 S
C795 C797 1.415 . S
C796 C795 1.355 1_655 S
C796 C798 1.419 . S
C797 C792 1.425 . S
C797 C794 1.409 . S
C797 C795 1.415 . S
C798 H788 0.930 . S
C798 C796 1.419 . S
C798 C799 1.362 1_655 S
C799 H789 0.930 . S
C799 C792 1.409 . S
C799 C798 1.362 1_455 S
H800 C806 0.930 . S
H801 C809 0.930 . S
H802 C810 0.930 . S
H803 C811 0.930 1_455 S
H804 C814 0.930 . S
H805 C815 0.930 . S
C806 H800 0.930 . S
C806 C807 1.355 1_545 S
C806 C808 1.415 . S
C807 C806 1.355 1_565 S
C807 C809 1.419 . S
C808 C806 1.415 . S
C808 C813 1.425 . S
C808 C815 1.409 . S
C809 H801 0.930 . S
C809 C807 1.419 . S
C809 C810 1.362 1_565 S
C810 H802 0.930 . S
C810 C809 1.362 1_545 S
C810 C813 1.409 . S
C811 H803 0.930 1_655 S
C811 C812 1.355 1_655 S
C811 C813 1.415 . S
C812 C811 1.355 1_455 S
C812 C814 1.419 1_455 S
C813 C808 1.425 . S
C813 C810 1.409 . S
C813 C811 1.415 . S
C814 H804 0.930 . S
C814 C812 1.419 1_655 S
C814 C815 1.362 . S
C815 H805 0.930 . S
C815 C808 1.409 . S
C815 C814 1.362 . S
H816 C822 0.930 . S
H817 C825 0.930 . S
H818 C826 0.930 . S
H819 C827 0.930 . S
H820 C830 0.930 . S
H821 C831 0.930 . S
C822 H816 0.930 . S
C822 C823 1.355 . S
C822 C824 1.415 . S
C823 C822 1.355 . S
C823 C825 1.419 . S
C824 C822 1.415 . S
C824 C829 1.425 . S
C824 C831 1.409 . S
C825 H817 0.930 . S
C825 C823 1.419 . S
C825 C826 1.362 . S
C826 H818 0.930 . S
C826 C825 1.362 . S
C826 C829 1.409 . S
C827 H819 0.930 . S
C827 C828 1.355 . S
C827 C829 1.415 . S
C828 C827 1.355 . S
C828 C830 1.419 . S
C829 C824 1.425 . S
C829 C826 1.409 . S
C829 C827 1.415 . S
C830 H820 0.930 . S
C830 C828 1.419 . S
C830 C831 1.362 . S
C831 H821 0.930 . S
C831 C824 1.409 . S
C831 C830 1.362 . S
H832 C838 0.930 . S
H833 C841 0.930 . S
H834 C842 0.924 1_455 S
H835 C843 0.930 . S
H836 C846 0.930 . S
H837 C847 0.930 . S
C838 H832 0.930 . S
C838 C839 1.355 1_655 S
C838 C840 1.415 . S
C839 C838 1.355 1_455 S
C839 C841 1.419 . S
C840 C838 1.415 . S
C840 C845 1.425 . S
C840 C847 1.409 . S
C841 H833 0.930 . S
C841 C839 1.419 . S
C841 C842 1.352 1_455 S
C842 H834 0.924 1_655 S
C842 C841 1.352 1_655 S
C842 C845 1.425 . S
C843 H835 0.930 . S
C843 C844 1.355 . S
C843 C845 1.415 . S
C844 C843 1.355 . S
C844 C846 1.419 . S
C845 C840 1.425 . S
C845 C842 1.425 . S
C845 C843 1.415 . S
C846 H836 0.930 . S
C846 C844 1.419 . S
C846 C847 1.362 . S
C847 H837 0.930 . S
C847 C840 1.409 . S
C847 C846 1.362 . S
H848 C854 0.930 . S
H849 C857 0.930 . S
H850 C858 0.934 . S
H851 C859 0.930 . S
H852 C862 0.930 . S
H853 C863 0.930 . S
C854 H848 0.930 . S
C854 C855 1.355 1_455 S
C854 C856 1.415 . S
C855 C854 1.355 1_655 S
C855 C857 1.419 . S
C856 C854 1.415 . S
C856 C861 1.425 . S
C856 C863 1.409 . S
C857 H849 0.930 . S
C857 C855 1.419 . S
C857 C858 1.368 . S
C858 H850 0.934 . S
C858 C857 1.368 . S
C858 C861 1.400 1_655 S
C859 H851 0.930 . S
C859 C860 1.355 . S
C859 C861 1.415 1_545 S
C860 C859 1.355 . S
C860 C862 1.419 1_545 S
C861 C856 1.425 . S
C861 C858 1.400 1_455 S
C861 C859 1.415 1_565 S
C862 H852 0.930 . S
C862 C860 1.419 1_565 S
C862 C863 1.362 . S
C863 H853 0.930 . S
C863 C856 1.409 . S
C863 C862 1.362 . S
H864 C870 0.930 . S
H865 C873 0.930 . S
H866 C874 0.930 . S
H867 C875 0.930 . S
H868 C878 0.930 . S
H869 C879 0.930 . S
C870 H864 0.930 . S
C870 C871 1.355 1_545 S
C870 C872 1.415 . S
C871 C870 1.355 1_565 S
C871 C873 1.419 . S
C872 C870 1.415 . S
C872 C877 1.425 . S
C872 C879 1.409 . S
C873 H865 0.930 . S
C873 C871 1.419 . S
C873 C874 1.362 1_565 S
C874 H866 0.930 . S
C874 C873 1.362 1_545 S
C874 C877 1.409 . S
C875 H867 0.930 . S
C875 C876 1.355 . S
C875 C877 1.415 . S
C876 C875 1.355 . S
C876 C878 1.419 . S
C877 C872 1.425 . S
C877 C874 1.409 . S
C877 C875 1.415 . S
C878 H868 0.930 . S
C878 C876 1.419 . S
C878 C879 1.362 . S
C879 H869 0.930 . S
C879 C872 1.409 . S
C879 C878 1.362 . S
C375 C168 1.633 . S
C380 C7 1.659 . S
C391 C99 1.634 . S
C396 C30 1.658 . S
C407 C122 1.665 . S
C412 C53 1.625 . S
C423 C76 1.644 . S
C428 C145 1.649 . S
C439 C352 1.636 . S
C444 C191 1.651 . S
C455 C283 1.664 . S
C460 C214 1.627 . S
C471 C237 1.631 . S
C476 C306 1.657 . S
C487 C260 1.650 . S
C492 C329 1.638 . S
C503 N48 1.356 . S
C508 N2 1.348 . S
C519 N25 1.261 . S
C524 N71 1.266 . S
C535 N94 1.264 . S
C540 N140 1.285 . S
C551 N163 1.261 . S
C556 N117 1.274 . S
C567 N186 1.345 . S
C572 N232 1.356 . S
C583 N209 1.338 . S
C588 N255 1.354 . S
C599 N324 1.291 . S
C604 N278 1.267 . S
C615 N301 1.293 . S
C620 N347 1.268 . S
C631 C154 1.597 . S
C636 C16 1.602 . S
C647 C39 1.598 . S
C652 C177 1.598 . S
C663 C62 1.641 . S
C668 C108 1.642 . S
C679 C85 1.638 . S
C684 C131 1.643 . S
C695 C200 1.618 . S
C700 C338 1.604 . S
C711 C223 1.639 . S
C716 C361 1.643 . S
C727 C246 1.642 . S
C732 C292 1.641 . S
C743 C269 1.600 . S
C748 C315 1.597 . S
C759 N12 1.438 . S
C764 N357 1.481 . S
C775 N288 1.432 . S
C780 N35 1.487 . S
C791 N58 1.481 . S
C796 N311 1.438 . S
C807 N334 1.450 . S
C812 N81 1.469 . S
C823 N219 1.466 . S
C828 N104 1.453 . S
C839 N127 1.476 . S
C844 N242 1.443 . S
C855 N265 1.467 . S
C860 N150 1.452 . S
C871 N196 1.485 . S
C876 N173 1.434 . S
