# Generated by pormake.
# Topology xfw, (5)-cn, num edge types: 1
# Building blocks:
#     Node 0, Type 0, BuildingBlock: XOMCOT_clean_sbu_0, # of connection points: 5
#     Node 1, Type 0, BuildingBlock: XOMCOT_clean_sbu_0, # of connection points: 5
#     Node 2, Type 0, BuildingBlock: XOMCOT_clean_sbu_0, # of connection points: 5
#     Node 3, Type 0, BuildingBlock: XOMCOT_clean_sbu_0, # of connection points: 5
#     Node 4, Type 0, BuildingBlock: XOMCOT_clean_sbu_0, # of connection points: 5
#     Node 5, Type 0, BuildingBlock: XOMCOT_clean_sbu_0, # of connection points: 5
#     Node 6, Type 0, BuildingBlock: XOMCOT_clean_sbu_0, # of connection points: 5
#     Node 7, Type 0, BuildingBlock: XOMCOT_clean_sbu_0, # of connection points: 5
#     Edge 8, Type (0, 0), BuildingBlock: ZUJKAS_clean_linker_0, # of connection points: 2
#     Edge 9, Type (0, 0), BuildingBlock: ZUJKAS_clean_linker_0, # of connection points: 2
#     Edge 10, Type (0, 0), BuildingBlock: ZUJKAS_clean_linker_0, # of connection points: 2
#     Edge 11, Type (0, 0), BuildingBlock: ZUJKAS_clean_linker_0, # of connection points: 2
#     Edge 12, Type (0, 0), BuildingBlock: ZUJKAS_clean_linker_0, # of connection points: 2
#     Edge 13, Type (0, 0), BuildingBlock: ZUJKAS_clean_linker_0, # of connection points: 2
#     Edge 14, Type (0, 0), BuildingBlock: ZUJKAS_clean_linker_0, # of connection points: 2
#     Edge 15, Type (0, 0), BuildingBlock: ZUJKAS_clean_linker_0, # of connection points: 2
#     Edge 16, Type (0, 0), BuildingBlock: ZUJKAS_clean_linker_0, # of connection points: 2
#     Edge 17, Type (0, 0), BuildingBlock: ZUJKAS_clean_linker_0, # of connection points: 2
#     Edge 18, Type (0, 0), BuildingBlock: ZUJKAS_clean_linker_0, # of connection points: 2
#     Edge 19, Type (0, 0), BuildingBlock: ZUJKAS_clean_linker_0, # of connection points: 2
#     Edge 20, Type (0, 0), BuildingBlock: ZUJKAS_clean_linker_0, # of connection points: 2
#     Edge 21, Type (0, 0), BuildingBlock: ZUJKAS_clean_linker_0, # of connection points: 2
#     Edge 22, Type (0, 0), BuildingBlock: ZUJKAS_clean_linker_0, # of connection points: 2
#     Edge 23, Type (0, 0), BuildingBlock: ZUJKAS_clean_linker_0, # of connection points: 2
#     Edge 24, Type (0, 0), BuildingBlock: ZUJKAS_clean_linker_0, # of connection points: 2
#     Edge 25, Type (0, 0), BuildingBlock: ZUJKAS_clean_linker_0, # of connection points: 2
#     Edge 26, Type (0, 0), BuildingBlock: ZUJKAS_clean_linker_0, # of connection points: 2
#     Edge 27, Type (0, 0), BuildingBlock: ZUJKAS_clean_linker_0, # of connection points: 2
# Relax obj value: 0.388
# Max RMSD: 0.286
# Mean RMSD: 0.286
data_MOF--net-xfw--node1-XOMCOT_clean_sbu_0--edge1-ZUJKAS_clean_linker_0
_symmetry_space_group_name_H-M    P1
_symmetry_Int_Tables_number       1
_symmetry_cell_setting            triclinic
loop_
_symmetry_equiv_pos_as_xyz
'x, y, z'
_cell_length_a     37.482712
_cell_length_b     37.360168
_cell_length_c     73.536528
_cell_angle_alpha  89.99678
_cell_angle_beta   90.025667
_cell_angle_gamma 89.966782
loop_
_atom_site_label
_atom_site_type_symbol
_atom_site_fract_x
_atom_site_fract_y
_atom_site_fract_z
_atom_type_partial_charge
Co0 Co 0.19927 0.0567 0.62089 0.0
C1 C 0.19978 0.10776 0.65096 0.0
C2 C 0.17066 0.12874 0.6282 0.0
C3 C 0.16599 0.15134 0.64286 0.0
N4 N 0.19169 0.10139 0.6334 0.0
N5 N 0.18413 0.13788 0.65719 0.0
H6 H 0.21415 0.08895 0.65943 0.0
H7 H 0.15761 0.13082 0.61512 0.0
C8 C 0.21299 0.07586 0.58193 0.0
O9 O 0.24024 0.05369 0.58189 0.0
N10 N 0.20591 0.01126 0.60842 0.0
C11 C 0.22748 0.98355 0.61263 0.0
C12 C 0.2232 0.95709 0.5998 0.0
C13 C 0.18774 0.00045 0.59354 0.0
N14 N 0.19841 0.96789 0.58769 0.0
C15 C 0.26864 0.04426 0.63543 0.0
C16 C 0.30494 0.09292 0.61408 0.0
C17 C 0.32428 0.06916 0.62503 0.0
C18 C 0.30561 0.04577 0.63643 0.0
C19 C 0.2677 0.09086 0.61378 0.0
N20 N 0.25037 0.06439 0.62308 0.0
H21 H 0.25487 0.02584 0.64425 0.0
H22 H 0.25309 0.1101 0.60577 0.0
H23 H 0.24488 0.98184 0.62424 0.0
H24 H 0.16788 0.01676 0.58679 0.0
O25 O 0.19098 0.03154 0.64351 0.0
O26 O 0.14941 0.04568 0.6232 0.0
O27 O 0.1959 0.08194 0.59666 0.0
C28 C 0.15762 0.03127 0.63874 0.0
H29 H 0.149 0.17476 0.64317 0.0
H30 H 0.23715 0.93173 0.59952 0.0
H31 H 0.31847 0.11241 0.60563 0.0
H32 H 0.31945 0.02739 0.64538 0.0
Co33 Co 0.04758 0.80287 0.38679 0.0
C34 C 0.10191 0.80002 0.35775 0.0
C35 C 0.11776 0.83481 0.37936 0.0
C36 C 0.14039 0.84008 0.36487 0.0
N37 N 0.09372 0.80927 0.37504 0.0
N38 N 0.13012 0.81838 0.35122 0.0
H39 H 0.08486 0.78411 0.34915 0.0
H40 H 0.11671 0.85135 0.39141 0.0
C41 C 0.0983 0.80456 0.41851 0.0
O42 O 0.11943 0.78203 0.40999 0.0
N43 N 0.0015 0.79763 0.39813 0.0
C44 C 0.97455 0.77664 0.39249 0.0
C45 C 0.94658 0.78022 0.40449 0.0
C46 C 0.9897 0.81378 0.41337 0.0
N47 N 0.95612 0.80353 0.4177 0.0
C48 C 0.05568 0.73022 0.37488 0.0
C49 C 0.05281 0.69957 0.40904 0.0
C50 C 0.05336 0.67713 0.39375 0.0
C51 C 0.05518 0.69302 0.3765 0.0
C52 C 0.05281 0.73665 0.40679 0.0
N53 N 0.055 0.75168 0.38988 0.0
H54 H 0.05413 0.74153 0.36147 0.0
H55 H 0.04912 0.7531 0.41869 0.0
H56 H 0.97529 0.75977 0.38054 0.0
H57 H 0.00568 0.83223 0.4212 0.0
O58 O 0.02512 0.80293 0.36302 0.0
O59 O 0.03554 0.85096 0.38006 0.0
O60 O 0.06896 0.81443 0.41124 0.0
C61 C 0.0236 0.83752 0.36493 0.0
H62 H 0.16088 0.8604 0.36396 0.0
H63 H 0.92117 0.76671 0.4034 0.0
H64 H 0.0512 0.6887 0.42266 0.0
H65 H 0.05418 0.67702 0.36423 0.0
Co66 Co 0.7984 0.9418 0.61947 0.0
C67 C 0.79853 0.892 0.65011 0.0
C68 C 0.82832 0.87069 0.62767 0.0
C69 C 0.83314 0.84868 0.64255 0.0
N70 N 0.80674 0.89785 0.63253 0.0
N71 N 0.81453 0.86232 0.65667 0.0
H72 H 0.78365 0.91081 0.65834 0.0
H73 H 0.84152 0.86832 0.61465 0.0
C74 C 0.7834 0.91963 0.58091 0.0
O75 O 0.75635 0.94201 0.58046 0.0
N76 N 0.79088 0.98656 0.60647 0.0
C77 C 0.77022 0.01471 0.61108 0.0
C78 C 0.77371 0.04092 0.59806 0.0
C79 C 0.80777 0.99684 0.5911 0.0
N80 N 0.79713 0.02955 0.58539 0.0
C81 C 0.72968 0.95463 0.63463 0.0
C82 C 0.69227 0.90568 0.61394 0.0
C83 C 0.67351 0.92991 0.62489 0.0
C84 C 0.69276 0.9534 0.63597 0.0
C85 C 0.72953 0.9074 0.61333 0.0
N86 N 0.74739 0.93404 0.62226 0.0
H87 H 0.74382 0.97322 0.64319 0.0
H88 H 0.74371 0.88777 0.60538 0.0
H89 H 0.75421 0.01698 0.62316 0.0
H90 H 0.8269 0.98021 0.58403 0.0
O91 O 0.80734 0.96817 0.64164 0.0
O92 O 0.84832 0.95326 0.6212 0.0
O93 O 0.80103 0.91506 0.59562 0.0
C94 C 0.84055 0.96835 0.63664 0.0
H95 H 0.85039 0.82548 0.64315 0.0
H96 H 0.76035 0.06659 0.59811 0.0
H97 H 0.67828 0.88613 0.60573 0.0
H98 H 0.67939 0.97216 0.6449 0.0
Co99 Co 0.94889 0.17749 0.38279 0.0
C100 C 0.89573 0.19524 0.35473 0.0
C101 C 0.87389 0.16074 0.37505 0.0
C102 C 0.85072 0.16179 0.36051 0.0
N103 N 0.90214 0.18199 0.37152 0.0
N104 N 0.86481 0.18309 0.34757 0.0
H105 H 0.91496 0.21039 0.3471 0.0
H106 H 0.87206 0.14257 0.38646 0.0
C107 C 0.89898 0.18564 0.41486 0.0
O108 O 0.88103 0.21083 0.40638 0.0
N109 N 0.99564 0.17242 0.39355 0.0
C110 C 0.02646 0.18404 0.38626 0.0
C111 C 0.05357 0.17812 0.39852 0.0
C112 C 0.00433 0.15962 0.41012 0.0
N113 N 0.03963 0.16292 0.41359 0.0
C114 C 0.96056 0.24933 0.37036 0.0
C115 C 0.96261 0.28087 0.40431 0.0
C116 C 0.96842 0.30228 0.38894 0.0
C117 C 0.96749 0.28593 0.37178 0.0
C118 C 0.95625 0.24431 0.40228 0.0
N119 N 0.95381 0.2291 0.38542 0.0
H120 H 0.96248 0.23709 0.35715 0.0
H121 H 0.95481 0.22825 0.41441 0.0
H122 H 0.02896 0.19673 0.37311 0.0
H123 H 0.98509 0.14924 0.41967 0.0
O124 O 0.96972 0.17078 0.35877 0.0
O125 O 0.94852 0.12778 0.37654 0.0
O126 O 0.92646 0.17157 0.40751 0.0
C127 C 0.96258 0.13698 0.36108 0.0
H128 H 0.82737 0.14508 0.35886 0.0
H129 H 0.08133 0.18485 0.39645 0.0
H130 H 0.9635 0.29204 0.41789 0.0
H131 H 0.97345 0.3009 0.35955 0.0
Co132 Co 0.80246 0.05335 0.12177 0.0
C133 C 0.79622 0.1056 0.1519 0.0
C134 C 0.82675 0.12675 0.12983 0.0
C135 C 0.82936 0.14994 0.14433 0.0
N136 N 0.80533 0.09912 0.1344 0.0
N137 N 0.81019 0.13646 0.15822 0.0
H138 H 0.78341 0.08633 0.16063 0.0
H139 H 0.84206 0.12854 0.11742 0.0
C140 C 0.79633 0.10588 0.09085 0.0
O141 O 0.77211 0.12402 0.09991 0.0
N142 N 0.80066 0.00769 0.1095 0.0
C143 C 0.78146 0.9789 0.11454 0.0
C144 C 0.7847 0.95303 0.10129 0.0
C145 C 0.81561 -0.00106 0.09345 0.0
N146 N 0.80609 0.96574 0.08801 0.0
C147 C 0.7303 0.05464 0.13487 0.0
C148 C 0.69886 0.04607 0.10114 0.0
C149 C 0.67763 0.04388 0.11673 0.0
C150 C 0.69357 0.04913 0.13374 0.0
C151 C 0.73541 0.05182 0.10286 0.0
N152 N 0.75085 0.05612 0.11958 0.0
H153 H 0.74232 0.05475 0.14812 0.0
H154 H 0.75154 0.05012 0.09075 0.0
H155 H 0.76537 0.97729 0.12672 0.0
H156 H 0.83198 0.017 0.08557 0.0
O157 O 0.80628 0.02889 0.14497 0.0
O158 O 0.85164 0.04528 0.12732 0.0
O159 O 0.81007 0.07763 0.09766 0.0
C160 C 0.84057 0.03038 0.14227 0.0
H161 H 0.84589 0.17365 0.14496 0.0
H162 H 0.77194 0.92706 0.10137 0.0
H163 H 0.6876 0.04173 0.08775 0.0
H164 H 0.67826 0.04646 0.14616 0.0
Co165 Co 0.03317 0.19021 0.88425 0.0
C166 C 0.08548 0.1927 0.85428 0.0
C167 C 0.10022 0.15413 0.8744 0.0
C168 C 0.1219 0.14961 0.85944 0.0
N169 N 0.07758 0.18155 0.87129 0.0
N170 N 0.11224 0.17365 0.84669 0.0
H171 H 0.06994 0.21204 0.84691 0.0
H172 H 0.09889 0.13637 0.88599 0.0
C173 C 0.08778 0.18598 0.91429 0.0
O174 O 0.10954 0.20631 0.90482 0.0
N175 N 0.98871 0.19808 0.8968 0.0
C176 C 0.96238 0.22049 0.89174 0.0
C177 C 0.93638 0.22019 0.90497 0.0
C178 C 0.97843 0.18428 0.91288 0.0
N179 N 0.94657 0.19747 0.91828 0.0
C180 C 0.03943 0.26231 0.87143 0.0
C181 C 0.04565 0.29398 0.90522 0.0
C182 C 0.04195 0.31592 0.88987 0.0
C183 C 0.03935 0.29953 0.87278 0.0
C184 C 0.04514 0.25683 0.90328 0.0
N185 N 0.04278 0.24125 0.88649 0.0
H186 H 0.03386 0.25073 0.85835 0.0
H187 H 0.04421 0.24094 0.91549 0.0
H188 H 0.96244 0.23646 0.87947 0.0
H189 H 0.99445 0.16581 0.92071 0.0
O190 O 0.0081 0.18988 0.86112 0.0
O191 O 0.01846 0.14238 0.87852 0.0
O192 O 0.05679 0.17852 0.90816 0.0
C193 C 0.00525 0.15552 0.8636 0.0
H194 H 0.14087 0.1281 0.85749 0.0
H195 H 0.91197 0.23566 0.90478 0.0
H196 H 0.04741 0.30529 0.91874 0.0
H197 H 0.03487 0.31516 0.86058 0.0
Co198 Co 0.19042 0.94883 0.12176 0.0
C199 C 0.19268 0.90085 0.15292 0.0
C200 C 0.16105 0.8782 0.13151 0.0
C201 C 0.1569 0.85759 0.14697 0.0
N202 N 0.18337 0.90535 0.13539 0.0
N203 N 0.17646 0.87226 0.16049 0.0
H204 H 0.2091 0.91972 0.16029 0.0
H205 H 0.14657 0.87525 0.11887 0.0
C206 C 0.20511 0.92594 0.08356 0.0
O207 O 0.23212 0.94838 0.08341 0.0
N208 N 0.19643 0.99318 0.10817 0.0
C209 C 0.21697 0.02189 0.11198 0.0
C210 C 0.2126 0.04703 0.09849 0.0
C211 C 0.17863 0.0022 0.09284 0.0
N212 N 0.1887 0.03449 0.08636 0.0
C213 C 0.26077 0.96315 0.135 0.0
C214 C 0.29501 0.90908 0.11625 0.0
C215 C 0.3154 0.93413 0.12587 0.0
C216 C 0.29776 0.96051 0.13596 0.0
C217 C 0.25792 0.91253 0.11588 0.0
N218 N 0.24161 0.94132 0.12381 0.0
H219 H 0.24763 0.98314 0.14317 0.0
H220 H 0.24251 0.89227 0.109 0.0
H221 H 0.23359 0.02526 0.12377 0.0
H222 H 0.15943 0.98487 0.08628 0.0
O223 O 0.18252 0.97593 0.14383 0.0
O224 O 0.14054 0.95971 0.1242 0.0
O225 O 0.18705 0.92133 0.09813 0.0
C226 C 0.14893 0.97524 0.13945 0.0
H227 H 0.13859 0.8354 0.14852 0.0
H228 H 0.22578 0.07276 0.0978 0.0
H229 H 0.30763 0.88729 0.10896 0.0
H230 H 0.31242 0.97985 0.144 0.0
Co231 Co 0.9512 0.81577 0.88404 0.0
C232 C 0.89831 0.81097 0.85428 0.0
C233 C 0.88027 0.84526 0.87566 0.0
C234 C 0.85754 0.84898 0.86105 0.0
N235 N 0.90567 0.82093 0.87155 0.0
N236 N 0.86912 0.8275 0.84758 0.0
H237 H 0.91621 0.79561 0.84587 0.0
H238 H 0.88005 0.86174 0.88773 0.0
C239 C 0.89857 0.81441 0.915 0.0
O240 O 0.87852 0.79173 0.90594 0.0
N241 N 0.99658 0.81169 0.8962 0.0
C242 C 0.02358 0.78952 0.89187 0.0
C243 C 0.04999 0.7931 0.90478 0.0
C244 C 0.00688 0.82866 0.91147 0.0
N245 N 0.03939 0.81765 0.91715 0.0
C246 C 0.94741 0.74333 0.87131 0.0
C247 C 0.94916 0.71155 0.90522 0.0
C248 C 0.95148 0.68978 0.88975 0.0
C249 C 0.95006 0.70618 0.87261 0.0
C250 C 0.94701 0.74863 0.90331 0.0
N251 N 0.94553 0.76421 0.8865 0.0
H252 H 0.94966 0.75521 0.85806 0.0
H253 H 0.94886 0.76472 0.91544 0.0
H254 H 0.02359 0.77132 0.88043 0.0
H255 H 0.99074 0.84853 0.9183 0.0
O256 O 0.9753 0.81761 0.86071 0.0
O257 O 0.96194 0.8645 0.87804 0.0
O258 O 0.92789 0.82554 0.90823 0.0
C259 C 0.97559 0.85213 0.86305 0.0
H260 H 0.83573 0.86787 0.86002 0.0
H261 H 0.07452 0.77786 0.90529 0.0
H262 H 0.95035 0.70025 0.91877 0.0
H263 H 0.95318 0.69074 0.86025 0.0
H264 H 0.13614 0.97602 0.56915 0.0
H265 H 0.11928 0.94695 0.54062 0.0
H266 H 0.21942 0.89012 0.54009 0.0
H267 H 0.23661 0.91917 0.56846 0.0
H268 H 0.15438 0.94959 0.50717 0.0
H269 H 0.14676 0.80998 0.53271 0.0
H270 H 0.14782 0.84821 0.54771 0.0
H271 H 0.18829 0.83198 0.5375 0.0
C272 C 0.1546 0.95736 0.56299 0.0
C273 C 0.18766 0.94979 0.57123 0.0
C274 C 0.14486 0.94067 0.54671 0.0
C275 C 0.16784 0.91593 0.53841 0.0
C276 C 0.20088 0.90844 0.54651 0.0
H277 H 0.16016 0.7933 0.4377 0.0
H278 H 0.17765 0.82082 0.46663 0.0
C279 C 0.21064 0.92507 0.56277 0.0
C280 C 0.15781 0.89884 0.52095 0.0
H281 H 0.14325 0.81785 0.50072 0.0
C282 C 0.15177 0.9208 0.50577 0.0
C283 C 0.15459 0.86127 0.51915 0.0
C284 C 0.15938 0.83645 0.53516 0.0
C285 C 0.14308 0.90616 0.48876 0.0
C286 C 0.13977 0.86859 0.48697 0.0
C287 C 0.14593 0.84662 0.50213 0.0
C288 C 0.12909 0.85162 0.46958 0.0
C289 C 0.13816 0.93102 0.47277 0.0
C290 C 0.09573 0.85926 0.46187 0.0
C291 C 0.08568 0.84365 0.44541 0.0
C292 C 0.1087 0.81981 0.43634 0.0
C293 C 0.14184 0.81158 0.4443 0.0
C294 C 0.15188 0.82729 0.46081 0.0
H295 H 0.15084 0.95748 0.47519 0.0
H296 H 0.14956 0.91925 0.46018 0.0
H297 H 0.10923 0.93553 0.47051 0.0
H298 H 0.0774 0.87732 0.46862 0.0
H299 H 0.05987 0.85047 0.43977 0.0
H300 H 0.75126 0.92006 0.54743 0.0
H301 H 0.77505 0.89622 0.51891 0.0
H302 H 0.86846 0.8583 0.54728 0.0
H303 H 0.84451 0.88102 0.57583 0.0
H304 H 0.83427 0.91608 0.50179 0.0
H305 H 0.84428 0.77175 0.51754 0.0
H306 H 0.81938 0.80244 0.53161 0.0
H307 H 0.86702 0.79841 0.53416 0.0
C308 C 0.77657 0.90607 0.54765 0.0
C309 C 0.79589 0.90233 0.56394 0.0
C310 C 0.79017 0.89253 0.53132 0.0
C311 C 0.82333 0.875 0.53096 0.0
C312 C 0.84241 0.87084 0.54725 0.0
H313 H 0.9689 0.8597 0.44059 0.0
H314 H 0.93502 0.8764 0.46742 0.0
C315 C 0.82872 0.88408 0.56359 0.0
C316 C 0.83921 0.86337 0.51342 0.0
H317 H 0.87897 0.79255 0.49219 0.0
C318 C 0.84366 0.88894 0.49961 0.0
C319 C 0.85104 0.82786 0.51044 0.0
C320 C 0.84484 0.79847 0.52416 0.0
C321 C 0.86062 0.88031 0.48316 0.0
C322 C 0.8744 0.84537 0.48065 0.0
C323 C 0.86888 0.81947 0.4942 0.0
C324 C 0.895 0.83518 0.46418 0.0
C325 C 0.86326 0.90868 0.46862 0.0
C326 C 0.88458 0.80562 0.45368 0.0
C327 C 0.90446 0.79534 0.43847 0.0
C328 C 0.93529 0.81443 0.43334 0.0
C329 C 0.94561 0.84404 0.44398 0.0
C330 C 0.92589 0.85406 0.45929 0.0
H331 H 0.842 0.9292 0.47015 0.0
H332 H 0.88935 0.9225 0.46982 0.0
H333 H 0.86128 0.89687 0.4548 0.0
H334 H 0.86101 0.79042 0.45728 0.0
H335 H 0.89573 0.7721 0.43094 0.0
H336 H 0.85717 0.01943 0.56524 0.0
H337 H 0.87239 0.04857 0.53651 0.0
H338 H 0.77502 0.1098 0.5389 0.0
H339 H 0.75927 0.08055 0.56744 0.0
H340 H 0.8312 0.04813 0.50394 0.0
H341 H 0.85237 0.18632 0.52983 0.0
H342 H 0.85186 0.14769 0.54459 0.0
H343 H 0.81075 0.16591 0.5361 0.0
C344 C 0.83891 0.03902 0.55969 0.0
C345 C 0.80702 0.04767 0.56879 0.0
C346 C 0.84776 0.05578 0.54329 0.0
C347 C 0.82508 0.0817 0.53572 0.0
C348 C 0.79329 0.09045 0.54472 0.0
H349 H 0.83994 0.20564 0.43468 0.0
H350 H 0.81997 0.1808 0.46387 0.0
C351 C 0.78437 0.07368 0.56108 0.0
C352 C 0.83403 0.09852 0.51805 0.0
H353 H 0.85439 0.17836 0.49792 0.0
C354 C 0.83633 0.07659 0.50262 0.0
C355 C 0.84031 0.13571 0.51635 0.0
C356 C 0.83901 0.16035 0.5326 0.0
C357 C 0.84478 0.09083 0.4855 0.0
C358 C 0.85188 0.1279 0.48385 0.0
C359 C 0.84894 0.14997 0.49922 0.0
C360 C 0.86413 0.14382 0.46646 0.0
C361 C 0.84567 0.06605 0.46929 0.0
C362 C 0.89594 0.13187 0.4585 0.0
C363 C 0.9073 0.14583 0.4419 0.0
C364 C 0.88733 0.17243 0.43294 0.0
C365 C 0.85592 0.18515 0.44119 0.0
C366 C 0.84447 0.17099 0.45785 0.0
H367 H 0.82951 0.04156 0.47169 0.0
H368 H 0.83557 0.07961 0.45687 0.0
H369 H 0.8736 0.05754 0.46676 0.0
H370 H 0.91197 0.11153 0.46511 0.0
H371 H 0.93164 0.13538 0.43605 0.0
H372 H 0.15235 0.11523 0.57658 0.0
H373 H 0.12445 0.13068 0.54763 0.0
H374 H 0.21277 0.08321 0.51881 0.0
H375 H 0.24058 0.06684 0.54774 0.0
H376 H 0.14535 0.17146 0.51905 0.0
H377 H 0.12814 0.03028 0.49727 0.0
H378 H 0.14088 0.04237 0.52012 0.0
H379 H 0.17353 0.04205 0.50221 0.0
C380 C 0.16607 0.10831 0.56411 0.0
C381 C 0.19859 0.0895 0.56449 0.0
C382 C 0.15001 0.11713 0.54755 0.0
C383 C 0.16611 0.10736 0.53106 0.0
C384 C 0.19941 0.09016 0.53138 0.0
H385 H 0.10357 0.18901 0.42514 0.0
H386 H 0.13436 0.17496 0.45338 0.0
C387 C 0.21543 0.08113 0.54794 0.0
C388 C 0.14772 0.11489 0.5136 0.0
H389 H 0.11378 0.07505 0.47554 0.0
C390 C 0.13842 0.15039 0.50953 0.0
C391 C 0.1381 0.08725 0.50137 0.0
C392 C 0.14532 0.04831 0.5055 0.0
C393 C 0.12018 0.15912 0.49345 0.0
C394 C 0.11174 0.13167 0.4809 0.0
C395 C 0.12061 0.09609 0.48508 0.0
C396 C 0.09343 0.13928 0.46343 0.0
C397 C 0.10942 0.19756 0.49029 0.0
C398 C 0.06072 0.12289 0.45933 0.0
C399 C 0.04323 0.13033 0.44296 0.0
C400 C 0.05813 0.15432 0.43029 0.0
C401 C 0.09125 0.17021 0.43438 0.0
C402 C 0.10878 0.16258 0.45069 0.0
H403 H 0.10856 0.21297 0.50321 0.0
H404 H 0.12927 0.21053 0.48125 0.0
H405 H 0.08284 0.19927 0.48367 0.0
H406 H 0.04854 0.10455 0.46891 0.0
H407 H 0.01814 0.11709 0.44024 0.0
H408 H 0.93482 0.86021 0.93724 0.0
H409 H 0.9165 0.88328 0.96679 0.0
H410 H 0.81899 0.82244 0.96358 0.0
H411 H 0.83728 0.79877 0.9339 0.0
H412 H 0.854 0.92314 0.97438 0.0
H413 H 0.85978 0.79666 0.01419 0.0
H414 H 0.8812 0.80152 0.99234 0.0
H415 H 0.83379 0.79525 0.99365 0.0
C416 C 0.90954 0.85147 0.9428 0.0
C417 C 0.88753 0.82754 0.93317 0.0
C418 C 0.89912 0.86477 0.95971 0.0
C419 C 0.86658 0.85433 0.96745 0.0
C420 C 0.8445 0.83039 0.95796 0.0
H421 H 0.76709 0.91574 0.07002 0.0
H422 H 0.78078 0.88861 0.04059 0.0
C423 C 0.85491 0.81702 0.94097 0.0
C424 C 0.85555 0.86961 0.98518 0.0
H425 H 0.83913 0.84818 0.02954 0.0
C426 C 0.85071 0.90678 0.98645 0.0
C427 C 0.85113 0.84814 1.00085 0.0
C428 C 0.85697 0.80819 1.00034 0.0
C429 C 0.84155 0.92311 0.00298 0.0
C430 C 0.83788 0.90176 0.01876 0.0
C431 C 0.84211 0.8645 0.01743 0.0
C432 C 0.8301 0.91768 0.03681 0.0
C433 C 0.83543 0.96304 0.00334 0.0
C434 C 0.85366 0.9425 0.04462 0.0
C435 C 0.84596 0.958 0.06147 0.0
C436 C 0.8147 0.94874 0.07094 0.0
C437 C 0.79157 0.92323 0.06323 0.0
C438 C 0.79925 0.90782 0.04635 0.0
H439 H 0.8294 0.9737 0.98957 0.0
H440 H 0.81312 0.97014 0.0126 0.0
H441 H 0.85994 0.97652 0.00832 0.0
H442 H 0.87808 0.94984 0.0377 0.0
H443 H 0.86466 0.97703 0.06714 0.0
H444 H 0.84397 0.07272 0.06849 0.0
H445 H 0.86642 0.09324 0.03929 0.0
H446 H 0.80033 0.18747 0.04282 0.0
H447 H 0.77707 0.1668 0.07223 0.0
H448 H 0.79947 0.15299 0.00821 0.0
H449 H 0.93753 0.17564 0.03258 0.0
H450 H 0.92101 0.13178 0.03786 0.0
H451 H 0.90022 0.17045 0.04788 0.0
C452 C 0.83404 0.09781 0.06314 0.0
C453 C 0.80883 0.11823 0.0728 0.0
C454 C 0.84713 0.10959 0.04645 0.0
C455 C 0.83559 0.14219 0.03908 0.0
C456 C 0.80978 0.16235 0.0484 0.0
H457 H 0.89884 0.24034 0.93565 0.0
H458 H 0.86979 0.22893 0.96482 0.0
C459 C 0.79655 0.15051 0.06517 0.0
C460 C 0.85054 0.15468 0.02157 0.0
H461 H 0.92943 0.17301 1.00035 0.0
C462 C 0.82779 0.15788 0.00649 0.0
C463 C 0.8875 0.16111 0.01944 0.0
C464 C 0.91295 0.15993 0.03534 0.0
C465 C 0.84132 0.16574 0.98913 0.0
C466 C 0.87844 0.17087 0.98692 0.0
C467 C 0.901 0.16875 1.00209 0.0
C468 C 0.89473 0.17733 0.96888 0.0
C469 C 0.81607 0.16714 0.97316 0.0
C470 C 0.91862 0.15224 0.9616 0.0
C471 C 0.93518 0.15859 0.94491 0.0
C472 C 0.9284 0.19033 0.9352 0.0
C473 C 0.90427 0.21536 0.94255 0.0
C474 C 0.88765 0.20893 0.95925 0.0
H475 H 0.78947 0.15586 0.97655 0.0
H476 H 0.81237 0.19541 0.96893 0.0
H477 H 0.82723 0.1522 0.96141 0.0
H478 H 0.92444 0.12769 0.96887 0.0
H479 H 0.95319 0.13851 0.9396 0.0
H480 H 0.15096 0.19651 0.93248 0.0
H481 H 0.16896 0.17076 0.96177 0.0
H482 H 0.06752 0.11703 0.96587 0.0
H483 H 0.04946 0.14216 0.9367 0.0
H484 H 0.13472 0.17758 0.99621 0.0
H485 H 0.14021 0.0359 0.97358 0.0
H486 H 0.13962 0.07293 0.9578 0.0
H487 H 0.09903 0.05833 0.96847 0.0
C488 C 0.13251 0.17918 0.9396 0.0
C489 C 0.09882 0.17133 0.93218 0.0
C490 C 0.14284 0.1645 0.95633 0.0
C491 C 0.11979 0.14152 0.96583 0.0
C492 C 0.086 0.1341 0.95859 0.0
H493 H 0.12685 0.02434 0.06774 0.0
H494 H 0.11011 0.05121 0.0386 0.0
C495 C 0.07565 0.14874 0.94193 0.0
C496 C 0.13061 0.12584 0.98352 0.0
H497 H 0.14453 0.04634 0.00534 0.0
C498 C 0.13712 0.14891 0.9982 0.0
C499 C 0.1335 0.08841 0.98607 0.0
C500 C 0.12805 0.0624 0.97062 0.0
C501 C 0.14571 0.13552 0.01551 0.0
C502 C 0.14857 0.09807 0.01808 0.0
C503 C 0.1422 0.07502 0.00336 0.0
C504 C 0.15855 0.08224 0.03588 0.0
C505 C 0.15073 0.16156 0.03099 0.0
C506 C 0.19149 0.09041 0.04392 0.0
C507 C 0.20112 0.0751 0.06055 0.0
C508 C 0.17815 0.051 0.06944 0.0
C509 C 0.14527 0.0426 0.06125 0.0
C510 C 0.13561 0.05803 0.04462 0.0
H511 H 0.13806 0.18783 0.02805 0.0
H512 H 0.13936 0.15083 0.04382 0.0
H513 H 0.17967 0.1662 0.03311 0.0
H514 H 0.21003 0.10825 0.0372 0.0
H515 H 0.22697 0.08155 0.06621 0.0
H516 H 0.01058 0.84673 0.94775 0.0
H517 H 0.04202 0.86397 0.97544 0.0
H518 H 0.14148 0.82899 0.95203 0.0
H519 H 0.11049 0.81239 0.92402 0.0
H520 H 0.12626 0.80329 0.98878 0.0
H521 H 0.1119 0.95068 0.9812 0.0
H522 H 0.07147 0.92526 0.97867 0.0
H523 H 0.10671 0.92011 0.96235 0.0
C524 C 0.0392 0.84317 0.94828 0.0
C525 C 0.05795 0.82829 0.9335 0.0
C526 C 0.0571 0.85293 0.9642 0.0
C527 C 0.09407 0.84801 0.96569 0.0
C528 C 0.1129 0.833 0.9511 0.0
H529 H 0.23078 0.93803 0.04933 0.0
H530 H 0.20601 0.91661 0.02058 0.0
C531 C 0.09507 0.82338 0.93513 0.0
C532 C 0.11296 0.85803 0.98261 0.0
H533 H 0.13468 0.92953 0.00928 0.0
C534 C 0.12827 0.83087 0.99326 0.0
C535 C 0.11576 0.89407 0.98828 0.0
C536 C 0.10087 0.92434 0.977 0.0
C537 C 0.14571 0.8388 0.00968 0.0
C538 C 0.14765 0.87475 0.01559 0.0
C539 C 0.13297 0.90196 0.00474 0.0
C540 C 0.16447 0.88488 0.03307 0.0
C541 C 0.16216 0.80874 0.02052 0.0
C542 C 0.1495 0.87382 0.04963 0.0
C543 C 0.16355 0.88604 0.06612 0.0
C544 C 0.19281 0.90962 0.06632 0.0
C545 C 0.20835 0.91979 0.04969 0.0
C546 C 0.19418 0.90768 0.03323 0.0
H547 H 0.16578 0.78422 0.01217 0.0
H548 H 0.18844 0.81685 0.02614 0.0
H549 H 0.1444 0.80201 0.03209 0.0
H550 H 0.12622 0.85665 0.04979 0.0
H551 H 0.15086 0.87779 0.07867 0.0
H552 H 0.62556 0.93598 0.6526 0.0
H553 H 0.56478 0.95941 0.6502 0.0
H554 H 0.57318 0.95874 0.5917 0.0
H555 H 0.63398 0.93529 0.59402 0.0
H556 H 0.55546 0.02718 0.63276 0.0
H557 H 0.4711 0.92098 0.60166 0.0
H558 H 0.51259 0.91118 0.61315 0.0
H559 H 0.51302 0.92983 0.59066 0.0
C560 C 0.614 0.93983 0.63924 0.0
C561 C 0.63444 0.93408 0.6235 0.0
C562 C 0.57941 0.95324 0.63788 0.0
C563 C 0.5647 0.96088 0.62078 0.0
C564 C 0.58398 0.95257 0.605 0.0
H565 H 0.36331 0.06456 0.59397 0.0
H566 H 0.42519 0.04412 0.59135 0.0
C567 C 0.61863 0.93906 0.60635 0.0
C568 C 0.53133 0.98166 0.61962 0.0
H569 H 0.44476 0.97789 0.60564 0.0
C570 C 0.53121 0.01646 0.62683 0.0
C571 C 0.5001 0.96771 0.6116 0.0
C572 C 0.4989 0.93029 0.60391 0.0
C573 C 0.50035 0.03759 0.62649 0.0
C574 C 0.46877 0.02325 0.619 0.0
C575 C 0.46915 0.98881 0.61132 0.0
C576 C 0.43426 0.04206 0.62038 0.0
C577 C 0.50181 0.07501 0.63417 0.0
C578 C 0.41947 0.04878 0.63756 0.0
C579 C 0.38433 0.06062 0.63909 0.0
C580 C 0.36339 0.06566 0.62345 0.0
C581 C 0.37902 0.06128 0.60623 0.0
C582 C 0.41419 0.04932 0.60471 0.0
H583 H 0.52945 0.08576 0.63403 0.0
H584 H 0.48427 0.09349 0.62641 0.0
H585 H 0.49258 0.07451 0.6485 0.0
H586 H 0.43436 0.04282 0.64982 0.0
H587 H 0.37291 0.06393 0.65252 0.0
H588 H 0.01216 0.64093 0.41849 0.0
H589 H 0.00136 0.5768 0.42023 0.0
H590 H 0.07015 0.55994 0.37401 0.0
H591 H 0.08325 0.62383 0.37296 0.0
H592 H 0.96934 0.53687 0.39609 0.0
H593 H 0.10494 0.48239 0.40688 0.0
H594 H 0.09503 0.52944 0.40911 0.0
H595 H 0.10283 0.51013 0.38702 0.0
C596 C 0.026 0.62358 0.40904 0.0
C597 C 0.0488 0.63772 0.39563 0.0
C598 C 0.01943 0.58687 0.40994 0.0
C599 C 0.03524 0.56344 0.3974 0.0
C600 C 0.05828 0.57732 0.38411 0.0
H601 H 0.94867 0.35754 0.36648 0.0
H602 H 0.96507 0.42051 0.36896 0.0
C603 C 0.0653 0.61402 0.38335 0.0
C604 C 0.02555 0.52496 0.39743 0.0
H605 H 0.06041 0.44057 0.39713 0.0
C606 C 0.98926 0.51581 0.3965 0.0
C607 C 0.05148 0.49746 0.39822 0.0
C608 C 0.0907 0.50534 0.40056 0.0
C609 C 0.9782 0.47998 0.39597 0.0
C610 C 0.00422 0.45254 0.39572 0.0
C611 C 0.04048 0.46164 0.39706 0.0
C612 C 0.99446 0.41422 0.39411 0.0
C613 C 0.93872 0.47201 0.39598 0.0
C614 C 0.0066 0.38948 0.40706 0.0
C615 C -0.00187 0.35323 0.40541 0.0
C616 C 0.97711 0.34097 0.39081 0.0
C617 C 0.96509 0.3659 0.37783 0.0
C618 C 0.97399 0.40207 0.37937 0.0
H619 H 0.92318 0.49437 0.40204 0.0
H620 H 0.92946 0.46851 0.38176 0.0
H621 H 0.93271 0.44716 0.40366 0.0
H622 H 0.02273 0.3982 0.41846 0.0
H623 H 0.0086 0.3348 0.41544 0.0
H624 H 0.65127 0.9889 0.09652 0.0
H625 H 0.59015 0.96597 0.09615 0.0
H626 H 0.5585 0.04783 0.13421 0.0
H627 H 0.61967 0.0712 0.13456 0.0
H628 H 0.55137 0.94284 0.12959 0.0
H629 H 0.48497 0.05145 0.09032 0.0
H630 H 0.53242 0.04314 0.08908 0.0
H631 H 0.51389 0.06533 0.10855 0.0
C632 C 0.63114 0.00246 0.10453 0.0
C633 C 0.64008 0.03202 0.11547 0.0
C634 C 0.5964 0.98915 0.10441 0.0
C635 C 0.57002 0.00538 0.11507 0.0
C636 C 0.57861 0.03521 0.12579 0.0
H637 H 0.36412 0.94272 0.15321 0.0
H638 H 0.42797 0.9548 0.14981 0.0
C639 C 0.61345 0.04841 0.12603 0.0
C640 C 0.53376 0.99025 0.11553 0.0
H641 H 0.44751 0.00811 0.10402 0.0
C642 C 0.52862 0.95692 0.12392 0.0
C643 C 0.50444 0.00866 0.10794 0.0
C644 C 0.50901 0.04403 0.09833 0.0
C645 C 0.49445 0.94192 0.12538 0.0
C646 C 0.46498 0.96088 0.11829 0.0
C647 C 0.4703 0.99373 0.10945 0.0
C648 C 0.42806 0.94812 0.12058 0.0
C649 C 0.49002 0.90605 0.1345 0.0
C650 C 0.40732 0.93983 0.10529 0.0
C651 C 0.37093 0.93292 0.10719 0.0
C652 C 0.35472 0.93472 0.1244 0.0
C653 C 0.37595 0.94138 0.13979 0.0
C654 C 0.41238 0.94803 0.13789 0.0
H655 H 0.51574 0.89139 0.13552 0.0
H656 H 0.47956 0.91014 0.14847 0.0
H657 H 0.47057 0.88922 0.12697 0.0
H658 H 0.41904 0.94003 0.09182 0.0
H659 H 0.35512 0.92827 0.09509 0.0
H660 H 0.00619 0.35198 0.91678 0.0
H661 H 0.99298 0.41571 0.91828 0.0
H662 H 0.05004 0.4326 0.8681 0.0
H663 H 0.06555 0.36912 0.86708 0.0
H664 H 0.06268 0.48544 0.8917 0.0
H665 H 0.91702 0.46142 0.88746 0.0
H666 H 0.93722 0.43971 0.90663 0.0
H667 H 0.94937 0.42637 0.88393 0.0
C668 C 0.01678 0.36925 0.90627 0.0
C669 C 0.0368 0.35523 0.89172 0.0
C670 C 0.0086 0.40567 0.907 0.0
C671 C 0.0196 0.42869 0.89303 0.0
C672 C 0.04087 0.41518 0.87891 0.0
H673 H 0.9266 0.6353 0.86813 0.0
H674 H 0.94391 0.57228 0.86901 0.0
C675 C 0.04949 0.37883 0.87828 0.0
C676 C 0.00842 0.46672 0.89293 0.0
H677 H 0.93521 0.52108 0.89374 0.0
C678 C 0.03482 0.49327 0.8921 0.0
C679 C 0.972 0.47682 0.8931 0.0
C680 C 0.94226 0.44959 0.89263 0.0
C681 C 0.02583 0.52971 0.89164 0.0
C682 C 0.98947 0.53983 0.89262 0.0
C683 C 0.96307 0.51327 0.89324 0.0
C684 C 0.97818 0.57784 0.89254 0.0
C685 C 0.05538 0.55687 0.88963 0.0
C686 C 0.99099 0.60168 0.90574 0.0
C687 C 0.98174 0.63784 0.90506 0.0
C688 C 0.95884 0.65079 0.89137 0.0
C689 C 0.9448 0.62643 0.87865 0.0
C690 C 0.95445 0.59034 0.87921 0.0
H691 H 0.07978 0.5447 0.88367 0.0
H692 H 0.04697 0.5796 0.88089 0.0
H693 H 0.06251 0.56751 0.90324 0.0
H694 H 0.00857 0.59243 0.91644 0.0
H695 H 0.99345 0.65574 0.91497 0.0
H696 H 0.1522 0.04133 0.67527 0.0
H697 H 0.09934 0.0289 0.69416 0.0
H698 H 0.0482 0.9792 0.64804 0.0
H699 H 0.1 0.99267 0.62917 0.0
H700 H 0.03103 0.05946 0.68127 0.0
H701 H 0.02111 0.91397 0.69253 0.0
H702 H 0.06341 0.9371 0.69057 0.0
H703 H 0.03926 0.92376 0.6705 0.0
C704 C 0.12998 0.02675 0.66944 0.0
C705 C 0.12978 0.01785 0.65087 0.0
C706 C 0.10001 0.01967 0.6802 0.0
C707 C 0.07028 0.00257 0.67256 0.0
C708 C 0.07126 0.99167 0.65429 0.0
H709 H 0.90109 0.00155 0.62625 0.0
H710 H 0.9521 0.01669 0.64541 0.0
C711 C 0.10062 -0.0004 0.64348 0.0
C712 C 0.0355 0.00194 0.68187 0.0
H713 H 0.96539 0.94437 0.6828 0.0
C714 C 0.0167 0.03438 0.68264 0.0
C715 C 0.01697 0.96937 0.68408 0.0
C716 C 0.03637 0.93407 0.68458 0.0
C717 C 0.97935 0.03462 0.68198 0.0
C718 C 0.96104 0.00175 0.68065 0.0
C719 C 0.97961 0.96962 0.68348 0.0
C720 C 0.92723 -0.00049 0.67053 0.0
C721 C 0.96002 0.06981 0.6802 0.0
C722 C 0.8963 0.98527 0.6784 0.0
C723 C 0.86682 0.97721 0.66745 0.0
C724 C 0.86865 0.98227 0.64852 0.0
C725 C 0.89919 0.99752 0.64081 0.0
C726 C 0.92812 0.0064 0.65176 0.0
H727 H 0.9746 0.09147 0.6874 0.0
H728 H 0.95832 0.07719 0.6656 0.0
H729 H 0.93248 0.06792 0.68569 0.0
H730 H 0.8955 0.97917 0.69279 0.0
H731 H 0.84353 0.96502 0.67359 0.0
H732 H 0.04285 0.83405 0.32921 0.0
H733 H 0.03567 0.88227 0.30657 0.0
H734 H 0.9734 0.94256 0.34527 0.0
H735 H 0.98139 0.89537 0.36784 0.0
H736 H 0.95182 0.94248 0.303 0.0
H737 H 0.09026 0.98121 0.32163 0.0
H738 H 0.07844 0.9362 0.31493 0.0
H739 H 0.06732 0.95207 0.33726 0.0
C740 C 0.02659 0.85713 0.33253 0.0
C741 C 0.01249 0.86128 0.35013 0.0
C742 C 0.02262 0.88454 0.31966 0.0
C743 C 0.00388 0.91576 0.32428 0.0
C744 C 0.98763 0.91845 0.34142 0.0
H745 H 0.9292 0.07352 0.35834 0.0
H746 H 0.94106 0.02555 0.33715 0.0
C747 C 0.99225 0.89163 0.35431 0.0
C748 C 0.00538 0.94854 0.31315 0.0
H749 H 0.04692 0.0281 0.32021 0.0
C750 C 0.97331 0.96117 0.30572 0.0
C751 C 0.0338 0.97275 0.31599 0.0
C752 C 0.0696 0.96001 0.32276 0.0
C753 C 0.96667 0.99803 0.30458 0.0
C754 C 0.99221 0.02212 0.31171 0.0
C755 C 0.0268 0.00961 0.31532 0.0
C756 C 0.98058 0.05475 0.32152 0.0
C757 C 0.93063 0.01064 0.29814 0.0
C758 C -0.00092 0.08737 0.32006 0.0
C759 C 0.99241 0.11513 0.33248 0.0
C760 C 0.96787 0.11009 0.34671 0.0
C761 C 0.94857 0.07803 0.34764 0.0
C762 C 0.95485 0.05075 0.33524 0.0
H763 H 0.92224 0.99511 0.28599 0.0
H764 H 0.91052 0.00579 0.30893 0.0
H765 H 0.93082 0.0396 0.29471 0.0
H766 H 0.01954 0.09078 0.30982 0.0
H767 H 0.00754 0.13974 0.33148 0.0
H768 H 0.15268 0.98195 0.17647 0.0
H769 H 0.10265 0.99433 0.19728 0.0
H770 H 0.03291 0.00861 0.15117 0.0
H771 H 0.08216 0.99594 0.13051 0.0
H772 H 0.03013 0.06244 0.18499 0.0
H773 H 0.01404 0.91701 0.19839 0.0
H774 H 0.05674 0.93938 0.19971 0.0
H775 H 0.03757 0.92919 0.17794 0.0
C776 C 0.12679 0.9886 0.17085 0.0
C777 C 0.12108 0.98802 0.15192 0.0
C778 C 0.09838 0.99553 0.18273 0.0
C779 C 0.06431 0.00243 0.1757 0.0
C780 C 0.05917 0.00354 0.1568 0.0
H781 H 0.90038 0.99365 0.1352 0.0
H782 H 0.95034 0.98367 0.15574 0.0
C783 C 0.08722 0.99621 0.14502 0.0
C784 C 0.0324 0.00514 0.18732 0.0
H785 H 0.96058 0.9509 0.19314 0.0
C786 C 0.01507 0.03835 0.18796 0.0
C787 C 0.01318 0.97376 0.19158 0.0
C788 C 0.03127 0.93772 0.19204 0.0
C789 C 0.97779 0.04019 0.18917 0.0
C790 C 0.958 0.00798 0.18949 0.0
C791 C 0.97585 0.97552 0.19259 0.0
C792 C 0.92408 0.00634 0.17932 0.0
C793 C 0.95969 0.07599 0.18693 0.0
C794 C 0.89223 0.02117 0.18598 0.0
C795 C 0.8633 0.0265 0.17417 0.0
C796 C 0.86649 0.01757 0.15567 0.0
C797 C 0.89747 0.00071 0.14942 0.0
C798 C 0.92587 0.99485 0.16118 0.0
H799 H 0.97854 0.09859 0.18894 0.0
H800 H 0.94824 0.07801 0.17303 0.0
H801 H 0.93751 0.07864 0.19683 0.0
H802 H 0.8905 0.03039 0.19991 0.0
H803 H 0.83961 0.03993 0.17915 0.0
H804 H 0.95944 0.85049 0.82692 0.0
H805 H 0.96637 0.90058 0.80545 0.0
H806 H 0.02382 0.95976 0.84651 0.0
H807 H 0.01629 0.91054 0.86778 0.0
H808 H 0.93479 0.96419 0.81372 0.0
H809 H 0.07587 0.99234 0.8013 0.0
H810 H 0.06004 0.94774 0.80658 0.0
H811 H 0.07166 0.97861 0.82453 0.0
C812 C 0.97486 0.87369 0.83096 0.0
C813 C 0.98753 0.87693 0.84887 0.0
C814 C 0.97877 0.9022 0.81873 0.0
C815 C 0.99622 0.93369 0.82421 0.0
C816 C 0.01122 0.93544 0.84172 0.0
H817 H 0.96383 0.09775 0.86893 0.0
H818 H 0.95352 0.04924 0.84758 0.0
C819 C 0.00665 0.90745 0.85397 0.0
C820 C 0.99227 0.9676 0.81399 0.0
H821 H 0.0394 0.04517 0.81245 0.0
C822 C 0.95769 0.98176 0.81247 0.0
C823 C 0.02182 0.99051 0.81145 0.0
C824 C 0.0594 0.97626 0.81084 0.0
C825 C 0.95224 0.01889 0.81249 0.0
C826 C 0.98202 0.04177 0.81431 0.0
C827 C 0.01638 0.02764 0.81175 0.0
C828 C 0.97922 0.07553 0.82477 0.0
C829 C 0.91464 0.03313 0.81295 0.0
C830 C 0.99645 0.10696 0.81904 0.0
C831 C 0.00201 0.13507 0.83135 0.0
C832 C 0.99124 0.13147 0.84956 0.0
C833 C 0.97212 0.10111 0.85491 0.0
C834 C 0.96592 0.07353 0.84261 0.0
H835 H 0.89725 0.01733 0.80372 0.0
H836 H 0.90377 0.03032 0.82692 0.0
H837 H 0.91356 0.06178 0.80894 0.0
H838 H 0.00753 0.10878 0.80547 0.0
H839 H 0.01731 0.15816 0.82705 0.0
H840 H 0.1285 0.17159 0.67351 0.0
H841 H 0.12079 0.18222 0.70605 0.0
H842 H 0.22459 0.1368 0.71643 0.0
H843 H 0.2329 0.1269 0.68381 0.0
H844 H 0.12119 0.12654 0.73183 0.0
H845 H 0.22478 0.22823 0.74769 0.0
H846 H 0.20934 0.21983 0.72481 0.0
H847 H 0.24034 0.18966 0.73542 0.0
C848 C 0.15013 0.16477 0.68262 0.0
C849 C 0.18135 0.14836 0.67603 0.0
C850 C 0.14556 0.17062 0.70124 0.0
C851 C 0.1722 0.16053 0.71364 0.0
C852 C 0.2039 0.14529 0.70709 0.0
H853 H 0.17545 0.15156 0.83253 0.0
H854 H 0.19144 0.14792 0.80022 0.0
C855 C 0.20847 0.13935 0.68846 0.0
C856 C 0.16545 0.1631 0.73347 0.0
H857 H 0.19457 0.20219 0.77277 0.0
C858 C 0.13714 0.1432 0.74077 0.0
C859 C 0.18659 0.1845 0.74512 0.0
C860 C 0.21682 0.20703 0.7379 0.0
C861 C 0.12937 0.14405 0.75942 0.0
C862 C 0.15006 0.16596 0.77104 0.0
C863 C 0.17874 0.18548 0.76381 0.0
C864 C 0.14139 0.16972 0.79061 0.0
C865 C 0.09937 0.12106 0.76656 0.0
C866 C 0.10835 0.18388 0.79588 0.0
C867 C 0.09909 0.18578 0.81423 0.0
C868 C 0.12283 0.17382 0.82779 0.0
C869 C 0.15641 0.1606 0.82246 0.0
C870 C 0.16566 0.15869 0.80403 0.0
H871 H 0.09287 0.09885 0.75707 0.0
H872 H 0.10619 0.1095 0.78003 0.0
H873 H 0.07507 0.13775 0.76817 0.0
H874 H 0.08945 0.19304 0.78575 0.0
H875 H 0.07285 0.19571 0.81763 0.0
H876 H 0.1626 0.80765 0.17588 0.0
H877 H 0.15576 0.79481 0.20845 0.0
H878 H 0.17949 0.90498 0.22097 0.0
H879 H 0.18521 0.91824 0.18874 0.0
H880 H 0.20477 0.80423 0.23773 0.0
H881 H 0.08377 0.88799 0.24644 0.0
H882 H 0.10004 0.87449 0.22438 0.0
H883 H 0.12037 0.9114 0.23616 0.0
C884 C 0.16625 0.82911 0.18559 0.0
C885 C 0.17453 0.86393 0.17964 0.0
C886 C 0.16249 0.82172 0.20417 0.0
C887 C 0.16661 0.84909 0.21708 0.0
C888 C 0.17565 0.8836 0.21122 0.0
H889 H 0.15361 0.87711 0.33309 0.0
H890 H 0.16455 0.88219 0.30044 0.0
C891 C 0.17941 0.891 0.19273 0.0
C892 C 0.16138 0.84195 0.23673 0.0
H893 H 0.11257 0.86837 0.27355 0.0
C894 C 0.18442 0.81795 0.24557 0.0
C895 C 0.13476 0.85989 0.24688 0.0
C896 C 0.10809 0.88462 0.23797 0.0
C897 C 0.18233 0.81236 0.26445 0.0
C898 C 0.15621 0.83094 0.27463 0.0
C899 C 0.13277 0.85441 0.26572 0.0
C900 C 0.15269 0.82671 0.2946 0.0
C901 C 0.2087 0.78749 0.27343 0.0
C902 C 0.14267 0.79374 0.30216 0.0
C903 C 0.13657 0.79072 0.32086 0.0
C904 C 0.14029 0.82061 0.33234 0.0
C905 C 0.15114 0.85341 0.32474 0.0
C906 C 0.15711 0.85643 0.30604 0.0
H907 H 0.23193 0.78178 0.2645 0.0
H908 H 0.21855 0.79901 0.28641 0.0
H909 H 0.19533 0.76173 0.27655 0.0
H910 H 0.13854 0.77061 0.29354 0.0
H911 H 0.12828 0.76514 0.32634 0.0
H912 H 0.87341 0.77272 0.82367 0.0
H913 H 0.86106 0.77498 0.79094 0.0
H914 H 0.82784 0.885 0.7961 0.0
H915 H 0.84062 0.88312 0.82871 0.0
H916 H 0.79609 0.79447 0.77118 0.0
H917 H 0.91054 0.88545 0.75797 0.0
H918 H 0.9061 0.86029 0.77882 0.0
H919 H 0.88001 0.90002 0.77531 0.0
C920 C 0.86331 0.79731 0.81783 0.0
C921 C 0.85815 0.82775 0.82877 0.0
C922 C 0.85613 0.79852 0.79917 0.0
C923 C 0.84397 0.83028 0.79111 0.0
C924 C 0.83757 0.86034 0.80207 0.0
H925 H 0.76416 0.87214 0.68256 0.0
H926 H 0.77053 0.86141 0.71525 0.0
C927 C 0.84456 0.85911 0.82074 0.0
C928 C 0.83931 0.83238 0.77114 0.0
H929 H 0.87233 0.87302 0.73313 0.0
C930 C 0.81273 0.81158 0.76282 0.0
C931 C 0.86145 0.85436 0.76029 0.0
C932 C 0.89136 0.87612 0.76847 0.0
C933 C 0.80724 0.81276 0.74392 0.0
C934 C 0.82877 0.83548 0.73314 0.0
C935 C 0.85576 0.85575 0.74144 0.0
C936 C 0.82363 0.83905 0.71323 0.0
C937 C 0.77876 0.78944 0.73559 0.0
C938 C 0.85137 0.83007 0.70125 0.0
C939 C 0.84785 0.8363 0.68258 0.0
C940 C 0.81664 0.85203 0.67556 0.0
C941 C 0.78858 0.8602 0.68757 0.0
C942 C 0.79206 0.85381 0.70622 0.0
H943 H 0.77068 0.76744 0.74489 0.0
H944 H 0.75484 0.80598 0.73268 0.0
H945 H 0.78809 0.77763 0.72257 0.0
H946 H 0.87605 0.81888 0.70641 0.0
H947 H 0.87016 0.83017 0.67379 0.0
H948 H 0.7981 0.17347 0.33391 0.0
H949 H 0.78105 0.17091 0.30173 0.0
H950 H 0.8894 0.1944 0.28627 0.0
H951 H 0.90688 0.19617 0.31804 0.0
H952 H 0.83353 0.23398 0.26659 0.0
H953 H 0.81369 0.08623 0.268 0.0
H954 H 0.79072 0.11221 0.28496 0.0
H955 H 0.8385 0.10952 0.28541 0.0
C956 C 0.81829 0.17815 0.32368 0.0
C957 C 0.85388 0.18499 0.32873 0.0
C958 C 0.80848 0.17674 0.30531 0.0
C959 C 0.83407 0.18221 0.29166 0.0
C960 C 0.86924 0.19024 0.29661 0.0
H961 H 0.86309 0.17133 0.17616 0.0
H962 H 0.86501 0.18561 0.20855 0.0
C963 C 0.87911 0.19147 0.3149 0.0
C964 C 0.82494 0.1781 0.27217 0.0
H965 H 0.80603 0.11516 0.23995 0.0
C966 C 0.82718 0.20809 0.26075 0.0
C967 C 0.81669 0.14429 0.26465 0.0
C968 C 0.81492 0.11106 0.27629 0.0
C969 C 0.8217 0.20511 0.2419 0.0
C970 C 0.81463 0.17106 0.23428 0.0
C971 C 0.81145 0.14125 0.2458 0.0
C972 C 0.81215 0.16525 0.21433 0.0
C973 C 0.82345 0.23847 0.23038 0.0
C974 C 0.78199 0.14865 0.20679 0.0
C975 C 0.78095 0.14023 0.18827 0.0
C976 C 0.81007 0.14816 0.17692 0.0
C977 C 0.83994 0.16548 0.18443 0.0
C978 C 0.84105 0.17372 0.20297 0.0
H979 H 0.81758 0.26282 0.23852 0.0
H980 H 0.85079 0.24131 0.22478 0.0
H981 H 0.80438 0.23713 0.21884 0.0
H982 H 0.75945 0.14172 0.2153 0.0
H983 H 0.7575 0.12711 0.18285 0.0
loop_
_geom_bond_atom_site_label_1
_geom_bond_atom_site_label_2
_geom_bond_distance
_geom_bond_site_symmetry_2
_ccdc_geom_bond_type
Co0 N4 2.148 . S
Co0 N10 2.128 . S
Co0 N20 2.194 . S
Co0 O25 2.351 . S
Co0 O26 2.155 . S
Co0 O27 2.096 . S
C1 N4 1.301 . S
C1 N5 1.328 . S
C1 H6 0.930 . S
C2 C3 1.333 . S
C2 N4 1.317 . S
C2 H7 0.930 . S
C3 C2 1.333 . S
C3 N5 1.350 . S
C3 H29 0.931 . S
N4 Co0 2.148 . S
N4 C1 1.301 . S
N4 C2 1.317 . S
N5 C1 1.328 . S
N5 C3 1.350 . S
H6 C1 0.930 . S
H7 C2 0.930 . S
C8 O9 1.224 . S
C8 O27 1.247 . S
O9 C8 1.224 . S
N10 Co0 2.128 . S
N10 C11 1.355 1_545 S
N10 C13 1.311 . S
C11 N10 1.355 1_565 S
C11 C12 1.363 . S
C11 H23 0.929 . S
C12 C11 1.363 . S
C12 N14 1.376 1_565 S
C12 H30 0.931 . S
C13 N10 1.311 . S
C13 N14 1.346 . S
C13 H24 0.929 . S
N14 C12 1.376 1_545 S
N14 C13 1.346 . S
C15 C18 1.365 . S
C15 N20 1.328 . S
C15 H21 0.929 . S
C16 C17 1.362 . S
C16 C19 1.378 . S
C16 H31 0.929 . S
C17 C16 1.362 . S
C17 C18 1.366 . S
C18 C15 1.365 . S
C18 C17 1.366 . S
C18 H32 0.930 . S
C19 C16 1.378 . S
C19 N20 1.315 . S
C19 H22 0.930 . S
N20 Co0 2.194 . S
N20 C15 1.328 . S
N20 C19 1.315 . S
H21 C15 0.929 . S
H22 C19 0.930 . S
H23 C11 0.929 . S
H24 C13 0.929 . S
O25 Co0 2.351 . S
O25 C28 1.244 . S
O26 Co0 2.155 . S
O26 C28 1.240 . S
O27 Co0 2.096 . S
O27 C8 1.247 . S
C28 O25 1.244 . S
C28 O26 1.240 . S
H29 C3 0.931 . S
H30 C12 0.931 . S
H31 C16 0.929 . S
H32 C18 0.930 . S
Co33 N37 2.148 . S
Co33 N43 2.128 . S
Co33 N53 2.194 . S
Co33 O58 2.351 . S
Co33 O59 2.155 . S
Co33 O60 2.096 . S
C34 N37 1.301 . S
C34 N38 1.328 . S
C34 H39 0.930 . S
C35 C36 1.333 . S
C35 N37 1.317 . S
C35 H40 0.930 . S
C36 C35 1.333 . S
C36 N38 1.350 . S
C36 H62 0.931 . S
N37 Co33 2.148 . S
N37 C34 1.301 . S
N37 C35 1.317 . S
N38 C34 1.328 . S
N38 C36 1.350 . S
H39 C34 0.930 . S
H40 C35 0.930 . S
C41 O42 1.224 . S
C41 O60 1.247 . S
O42 C41 1.224 . S
N43 Co33 2.128 . S
N43 C44 1.355 1_455 S
N43 C46 1.311 . S
C44 N43 1.355 1_655 S
C44 C45 1.363 . S
C44 H56 0.929 . S
C45 C44 1.363 . S
C45 N47 1.376 1_655 S
C45 H63 0.931 . S
C46 N43 1.311 . S
C46 N47 1.346 . S
C46 H57 0.929 . S
N47 C45 1.376 1_455 S
N47 C46 1.346 . S
C48 C51 1.365 . S
C48 N53 1.328 . S
C48 H54 0.929 . S
C49 C50 1.362 . S
C49 C52 1.378 . S
C49 H64 0.929 . S
C50 C49 1.362 . S
C50 C51 1.366 . S
C51 C48 1.365 . S
C51 C50 1.366 . S
C51 H65 0.930 . S
C52 C49 1.378 . S
C52 N53 1.315 . S
C52 H55 0.930 . S
N53 Co33 2.194 . S
N53 C48 1.328 . S
N53 C52 1.315 . S
H54 C48 0.929 . S
H55 C52 0.930 . S
H56 C44 0.929 . S
H57 C46 0.929 . S
O58 Co33 2.351 . S
O58 C61 1.244 . S
O59 Co33 2.155 . S
O59 C61 1.240 . S
O60 Co33 2.096 . S
O60 C41 1.247 . S
C61 O58 1.244 . S
C61 O59 1.240 . S
H62 C36 0.931 . S
H63 C45 0.931 . S
H64 C49 0.929 . S
H65 C51 0.930 . S
Co66 N70 2.148 . S
Co66 N76 2.128 . S
Co66 N86 2.194 . S
Co66 O91 2.351 . S
Co66 O92 2.155 . S
Co66 O93 2.096 . S
C67 N70 1.301 . S
C67 N71 1.328 . S
C67 H72 0.930 . S
C68 C69 1.333 . S
C68 N70 1.317 . S
C68 H73 0.930 . S
C69 C68 1.333 . S
C69 N71 1.350 . S
C69 H95 0.931 . S
N70 Co66 2.148 . S
N70 C67 1.301 . S
N70 C68 1.317 . S
N71 C67 1.328 . S
N71 C69 1.350 . S
H72 C67 0.930 . S
H73 C68 0.930 . S
C74 O75 1.224 . S
C74 O93 1.247 . S
O75 C74 1.224 . S
N76 Co66 2.128 . S
N76 C77 1.355 1_565 S
N76 C79 1.311 . S
C77 N76 1.355 1_545 S
C77 C78 1.363 . S
C77 H89 0.929 . S
C78 C77 1.363 . S
C78 N80 1.376 1_545 S
C78 H96 0.931 . S
C79 N76 1.311 . S
C79 N80 1.346 . S
C79 H90 0.929 . S
N80 C78 1.376 1_565 S
N80 C79 1.346 . S
C81 C84 1.365 . S
C81 N86 1.328 . S
C81 H87 0.929 . S
C82 C83 1.362 . S
C82 C85 1.378 . S
C82 H97 0.929 . S
C83 C82 1.362 . S
C83 C84 1.366 . S
C84 C81 1.365 . S
C84 C83 1.366 . S
C84 H98 0.930 . S
C85 C82 1.378 . S
C85 N86 1.315 . S
C85 H88 0.930 . S
N86 Co66 2.194 . S
N86 C81 1.328 . S
N86 C85 1.315 . S
H87 C81 0.929 . S
H88 C85 0.930 . S
H89 C77 0.929 . S
H90 C79 0.929 . S
O91 Co66 2.351 . S
O91 C94 1.244 . S
O92 Co66 2.155 . S
O92 C94 1.240 . S
O93 Co66 2.096 . S
O93 C74 1.247 . S
C94 O91 1.244 . S
C94 O92 1.240 . S
H95 C69 0.931 . S
H96 C78 0.931 . S
H97 C82 0.929 . S
H98 C84 0.930 . S
Co99 N103 2.148 . S
Co99 N109 2.128 . S
Co99 N119 2.194 . S
Co99 O124 2.351 . S
Co99 O125 2.155 . S
Co99 O126 2.096 . S
C100 N103 1.301 . S
C100 N104 1.328 . S
C100 H105 0.930 . S
C101 C102 1.333 . S
C101 N103 1.317 . S
C101 H106 0.930 . S
C102 C101 1.333 . S
C102 N104 1.350 . S
C102 H128 0.931 . S
N103 Co99 2.148 . S
N103 C100 1.301 . S
N103 C101 1.317 . S
N104 C100 1.328 . S
N104 C102 1.350 . S
H105 C100 0.930 . S
H106 C101 0.930 . S
C107 O108 1.224 . S
C107 O126 1.247 . S
O108 C107 1.224 . S
N109 Co99 2.128 . S
N109 C110 1.355 1_655 S
N109 C112 1.311 . S
C110 N109 1.355 1_455 S
C110 C111 1.363 . S
C110 H122 0.929 . S
C111 C110 1.363 . S
C111 N113 1.376 1_455 S
C111 H129 0.931 . S
C112 N109 1.311 . S
C112 N113 1.346 . S
C112 H123 0.929 . S
N113 C111 1.376 1_655 S
N113 C112 1.346 . S
C114 C117 1.365 . S
C114 N119 1.328 . S
C114 H120 0.929 . S
C115 C116 1.362 . S
C115 C118 1.378 . S
C115 H130 0.929 . S
C116 C115 1.362 . S
C116 C117 1.366 . S
C117 C114 1.365 . S
C117 C116 1.366 . S
C117 H131 0.930 . S
C118 C115 1.378 . S
C118 N119 1.315 . S
C118 H121 0.930 . S
N119 Co99 2.194 . S
N119 C114 1.328 . S
N119 C118 1.315 . S
H120 C114 0.929 . S
H121 C118 0.930 . S
H122 C110 0.929 . S
H123 C112 0.929 . S
O124 Co99 2.351 . S
O124 C127 1.244 . S
O125 Co99 2.155 . S
O125 C127 1.240 . S
O126 Co99 2.096 . S
O126 C107 1.247 . S
C127 O124 1.244 . S
C127 O125 1.240 . S
H128 C102 0.931 . S
H129 C111 0.931 . S
H130 C115 0.929 . S
H131 C117 0.930 . S
Co132 N136 2.148 . S
Co132 N142 2.128 . S
Co132 N152 2.194 . S
Co132 O157 2.351 . S
Co132 O158 2.155 . S
Co132 O159 2.096 . S
C133 N136 1.301 . S
C133 N137 1.328 . S
C133 H138 0.930 . S
C134 C135 1.333 . S
C134 N136 1.317 . S
C134 H139 0.930 . S
C135 C134 1.333 . S
C135 N137 1.350 . S
C135 H161 0.931 . S
N136 Co132 2.148 . S
N136 C133 1.301 . S
N136 C134 1.317 . S
N137 C133 1.328 . S
N137 C135 1.350 . S
H138 C133 0.930 . S
H139 C134 0.930 . S
C140 O141 1.224 . S
C140 O159 1.247 . S
O141 C140 1.224 . S
N142 Co132 2.128 . S
N142 C143 1.355 1_545 S
N142 C145 1.311 . S
C143 N142 1.355 1_565 S
C143 C144 1.363 . S
C143 H155 0.929 . S
C144 C143 1.363 . S
C144 N146 1.376 1_565 S
C144 H162 0.931 . S
C145 N142 1.311 . S
C145 N146 1.346 . S
C145 H156 0.929 . S
N146 C144 1.376 1_545 S
N146 C145 1.346 . S
C147 C150 1.365 . S
C147 N152 1.328 . S
C147 H153 0.929 . S
C148 C149 1.362 . S
C148 C151 1.378 . S
C148 H163 0.929 . S
C149 C148 1.362 . S
C149 C150 1.366 . S
C150 C147 1.365 . S
C150 C149 1.366 . S
C150 H164 0.930 . S
C151 C148 1.378 . S
C151 N152 1.315 . S
C151 H154 0.930 . S
N152 Co132 2.194 . S
N152 C147 1.328 . S
N152 C151 1.315 . S
H153 C147 0.929 . S
H154 C151 0.930 . S
H155 C143 0.929 . S
H156 C145 0.929 . S
O157 Co132 2.351 . S
O157 C160 1.244 . S
O158 Co132 2.155 . S
O158 C160 1.240 . S
O159 Co132 2.096 . S
O159 C140 1.247 . S
C160 O157 1.244 . S
C160 O158 1.240 . S
H161 C135 0.931 . S
H162 C144 0.931 . S
H163 C148 0.929 . S
H164 C150 0.930 . S
Co165 N169 2.148 . S
Co165 N175 2.128 . S
Co165 N185 2.194 . S
Co165 O190 2.351 . S
Co165 O191 2.155 . S
Co165 O192 2.096 . S
C166 N169 1.301 . S
C166 N170 1.328 . S
C166 H171 0.930 . S
C167 C168 1.333 . S
C167 N169 1.317 . S
C167 H172 0.930 . S
C168 C167 1.333 . S
C168 N170 1.350 . S
C168 H194 0.931 . S
N169 Co165 2.148 . S
N169 C166 1.301 . S
N169 C167 1.317 . S
N170 C166 1.328 . S
N170 C168 1.350 . S
H171 C166 0.930 . S
H172 C167 0.930 . S
C173 O174 1.224 . S
C173 O192 1.247 . S
O174 C173 1.224 . S
N175 Co165 2.128 . S
N175 C176 1.355 1_455 S
N175 C178 1.311 . S
C176 N175 1.355 1_655 S
C176 C177 1.363 . S
C176 H188 0.929 . S
C177 C176 1.363 . S
C177 N179 1.376 1_655 S
C177 H195 0.931 . S
C178 N175 1.311 . S
C178 N179 1.346 . S
C178 H189 0.929 . S
N179 C177 1.376 1_455 S
N179 C178 1.346 . S
C180 C183 1.365 . S
C180 N185 1.328 . S
C180 H186 0.929 . S
C181 C182 1.362 . S
C181 C184 1.378 . S
C181 H196 0.929 . S
C182 C181 1.362 . S
C182 C183 1.366 . S
C183 C180 1.365 . S
C183 C182 1.366 . S
C183 H197 0.930 . S
C184 C181 1.378 . S
C184 N185 1.315 . S
C184 H187 0.930 . S
N185 Co165 2.194 . S
N185 C180 1.328 . S
N185 C184 1.315 . S
H186 C180 0.929 . S
H187 C184 0.930 . S
H188 C176 0.929 . S
H189 C178 0.929 . S
O190 Co165 2.351 . S
O190 C193 1.244 . S
O191 Co165 2.155 . S
O191 C193 1.240 . S
O192 Co165 2.096 . S
O192 C173 1.247 . S
C193 O190 1.244 . S
C193 O191 1.240 . S
H194 C168 0.931 . S
H195 C177 0.931 . S
H196 C181 0.929 . S
H197 C183 0.930 . S
Co198 N202 2.148 . S
Co198 N208 2.128 . S
Co198 N218 2.194 . S
Co198 O223 2.351 . S
Co198 O224 2.155 . S
Co198 O225 2.096 . S
C199 N202 1.301 . S
C199 N203 1.328 . S
C199 H204 0.930 . S
C200 C201 1.333 . S
C200 N202 1.317 . S
C200 H205 0.930 . S
C201 C200 1.333 . S
C201 N203 1.350 . S
C201 H227 0.931 . S
N202 Co198 2.148 . S
N202 C199 1.301 . S
N202 C200 1.317 . S
N203 C199 1.328 . S
N203 C201 1.350 . S
H204 C199 0.930 . S
H205 C200 0.930 . S
C206 O207 1.224 . S
C206 O225 1.247 . S
O207 C206 1.224 . S
N208 Co198 2.128 . S
N208 C209 1.355 1_565 S
N208 C211 1.311 . S
C209 N208 1.355 1_545 S
C209 C210 1.363 . S
C209 H221 0.929 . S
C210 C209 1.363 . S
C210 N212 1.376 1_545 S
C210 H228 0.931 . S
C211 N208 1.311 . S
C211 N212 1.346 . S
C211 H222 0.929 . S
N212 C210 1.376 1_565 S
N212 C211 1.346 . S
C213 C216 1.365 . S
C213 N218 1.328 . S
C213 H219 0.929 . S
C214 C215 1.362 . S
C214 C217 1.378 . S
C214 H229 0.929 . S
C215 C214 1.362 . S
C215 C216 1.366 . S
C216 C213 1.365 . S
C216 C215 1.366 . S
C216 H230 0.930 . S
C217 C214 1.378 . S
C217 N218 1.315 . S
C217 H220 0.930 . S
N218 Co198 2.194 . S
N218 C213 1.328 . S
N218 C217 1.315 . S
H219 C213 0.929 . S
H220 C217 0.930 . S
H221 C209 0.929 . S
H222 C211 0.929 . S
O223 Co198 2.351 . S
O223 C226 1.244 . S
O224 Co198 2.155 . S
O224 C226 1.240 . S
O225 Co198 2.096 . S
O225 C206 1.247 . S
C226 O223 1.244 . S
C226 O224 1.240 . S
H227 C201 0.931 . S
H228 C210 0.931 . S
H229 C214 0.929 . S
H230 C216 0.930 . S
Co231 N235 2.148 . S
Co231 N241 2.128 . S
Co231 N251 2.194 . S
Co231 O256 2.351 . S
Co231 O257 2.155 . S
Co231 O258 2.096 . S
C232 N235 1.301 . S
C232 N236 1.328 . S
C232 H237 0.930 . S
C233 C234 1.333 . S
C233 N235 1.317 . S
C233 H238 0.930 . S
C234 C233 1.333 . S
C234 N236 1.350 . S
C234 H260 0.931 . S
N235 Co231 2.148 . S
N235 C232 1.301 . S
N235 C233 1.317 . S
N236 C232 1.328 . S
N236 C234 1.350 . S
H237 C232 0.930 . S
H238 C233 0.930 . S
C239 O240 1.224 . S
C239 O258 1.247 . S
O240 C239 1.224 . S
N241 Co231 2.128 . S
N241 C242 1.355 1_655 S
N241 C244 1.311 . S
C242 N241 1.355 1_455 S
C242 C243 1.363 . S
C242 H254 0.929 . S
C243 C242 1.363 . S
C243 N245 1.376 1_455 S
C243 H261 0.931 . S
C244 N241 1.311 . S
C244 N245 1.346 . S
C244 H255 0.929 . S
N245 C243 1.376 1_655 S
N245 C244 1.346 . S
C246 C249 1.365 . S
C246 N251 1.328 . S
C246 H252 0.929 . S
C247 C248 1.362 . S
C247 C250 1.378 . S
C247 H262 0.929 . S
C248 C247 1.362 . S
C248 C249 1.366 . S
C249 C246 1.365 . S
C249 C248 1.366 . S
C249 H263 0.930 . S
C250 C247 1.378 . S
C250 N251 1.315 . S
C250 H253 0.930 . S
N251 Co231 2.194 . S
N251 C246 1.328 . S
N251 C250 1.315 . S
H252 C246 0.929 . S
H253 C250 0.930 . S
H254 C242 0.929 . S
H255 C244 0.929 . S
O256 Co231 2.351 . S
O256 C259 1.244 . S
O257 Co231 2.155 . S
O257 C259 1.240 . S
O258 Co231 2.096 . S
O258 C239 1.247 . S
C259 O256 1.244 . S
C259 O257 1.240 . S
H260 C234 0.931 . S
H261 C243 0.931 . S
H262 C247 0.929 . S
H263 C249 0.930 . S
H264 C272 0.929 . S
H265 C274 0.930 . S
H266 C276 0.930 . S
H267 C279 0.929 . S
H268 C282 0.930 . S
H269 C284 0.960 . S
H270 C284 0.960 . S
H271 C284 0.960 . S
C272 H264 0.929 . S
C272 C273 1.377 . S
C272 C274 1.384 . S
C273 C272 1.377 . S
C273 C279 1.390 . S
C274 H265 0.930 . S
C274 C272 1.384 . S
C274 C275 1.372 . S
C275 C274 1.372 . S
C275 C276 1.400 . S
C275 C280 1.490 . S
C276 H266 0.930 . S
C276 C275 1.400 . S
C276 C279 1.386 . S
H277 C293 0.930 . S
H278 C294 0.931 . S
C279 H267 0.929 . S
C279 C273 1.390 . S
C279 C276 1.386 . S
C280 C275 1.490 . S
C280 C282 1.395 . S
C280 C283 1.403 . S
H281 C287 0.930 . S
C282 H268 0.930 . S
C282 C280 1.395 . S
C282 C285 1.403 . S
C283 C280 1.403 . S
C283 C284 1.524 . S
C283 C287 1.400 . S
C284 H269 0.960 . S
C284 H270 0.960 . S
C284 H271 0.960 . S
C284 C283 1.524 . S
C285 C282 1.403 . S
C285 C286 1.392 . S
C285 C289 1.495 . S
C286 C285 1.392 . S
C286 C287 1.385 . S
C286 C288 1.478 . S
C287 H281 0.930 . S
C287 C283 1.400 . S
C287 C286 1.385 . S
C288 C286 1.478 . S
C288 C290 1.381 . S
C288 C294 1.383 . S
C289 C285 1.495 . S
C289 H295 0.959 . S
C289 H296 0.961 . S
C289 H297 0.960 . S
C290 C288 1.381 . S
C290 C291 1.394 . S
C290 H298 0.930 . S
C291 C290 1.394 . S
C291 C292 1.383 . S
C291 H299 0.929 . S
C292 C291 1.383 . S
C292 C293 1.377 . S
C293 H277 0.930 . S
C293 C292 1.377 . S
C293 C294 1.379 . S
C294 H278 0.931 . S
C294 C288 1.383 . S
C294 C293 1.379 . S
H295 C289 0.959 . S
H296 C289 0.961 . S
H297 C289 0.960 . S
H298 C290 0.930 . S
H299 C291 0.929 . S
H300 C308 0.929 . S
H301 C310 0.930 . S
H302 C312 0.930 . S
H303 C315 0.929 . S
H304 C318 0.930 . S
H305 C320 0.960 . S
H306 C320 0.960 . S
H307 C320 0.960 . S
C308 H300 0.929 . S
C308 C309 1.377 . S
C308 C310 1.384 . S
C309 C308 1.377 . S
C309 C315 1.390 . S
C310 H301 0.930 . S
C310 C308 1.384 . S
C310 C311 1.372 . S
C311 C310 1.372 . S
C311 C312 1.400 . S
C311 C316 1.490 . S
C312 H302 0.930 . S
C312 C311 1.400 . S
C312 C315 1.386 . S
H313 C329 0.930 1_455 S
H314 C330 0.931 . S
C315 H303 0.929 . S
C315 C309 1.390 . S
C315 C312 1.386 . S
C316 C311 1.490 . S
C316 C318 1.395 . S
C316 C319 1.403 . S
H317 C323 0.930 . S
C318 H304 0.930 . S
C318 C316 1.395 . S
C318 C321 1.403 . S
C319 C316 1.403 . S
C319 C320 1.524 . S
C319 C323 1.400 . S
C320 H305 0.960 . S
C320 H306 0.960 . S
C320 H307 0.960 . S
C320 C319 1.524 . S
C321 C318 1.403 . S
C321 C322 1.392 . S
C321 C325 1.495 . S
C322 C321 1.392 . S
C322 C323 1.385 . S
C322 C324 1.478 . S
C323 H317 0.930 . S
C323 C319 1.400 . S
C323 C322 1.385 . S
C324 C322 1.478 . S
C324 C326 1.381 . S
C324 C330 1.383 . S
C325 C321 1.495 . S
C325 H331 0.959 . S
C325 H332 0.961 . S
C325 H333 0.960 . S
C326 C324 1.381 . S
C326 C327 1.394 . S
C326 H334 0.930 . S
C327 C326 1.394 . S
C327 C328 1.383 . S
C327 H335 0.929 . S
C328 C327 1.383 . S
C328 C329 1.377 . S
C329 H313 0.930 1_655 S
C329 C328 1.377 . S
C329 C330 1.379 . S
C330 H314 0.931 . S
C330 C324 1.383 . S
C330 C329 1.379 . S
H331 C325 0.959 . S
H332 C325 0.961 . S
H333 C325 0.960 . S
H334 C326 0.930 . S
H335 C327 0.929 . S
H336 C344 0.929 . S
H337 C346 0.930 . S
H338 C348 0.930 . S
H339 C351 0.929 1_565 S
H340 C354 0.930 . S
H341 C356 0.960 . S
H342 C356 0.960 . S
H343 C356 0.960 . S
C344 H336 0.929 . S
C344 C345 1.377 . S
C344 C346 1.384 . S
C345 C344 1.377 . S
C345 C351 1.390 . S
C346 H337 0.930 . S
C346 C344 1.384 . S
C346 C347 1.372 . S
C347 C346 1.372 . S
C347 C348 1.400 . S
C347 C352 1.490 . S
C348 H338 0.930 . S
C348 C347 1.400 . S
C348 C351 1.386 . S
H349 C365 0.930 . S
H350 C366 0.931 . S
C351 H339 0.929 1_545 S
C351 C345 1.390 . S
C351 C348 1.386 . S
C352 C347 1.490 . S
C352 C354 1.395 . S
C352 C355 1.403 . S
H353 C359 0.930 . S
C354 H340 0.930 . S
C354 C352 1.395 . S
C354 C357 1.403 . S
C355 C352 1.403 . S
C355 C356 1.524 . S
C355 C359 1.400 . S
C356 H341 0.960 . S
C356 H342 0.960 . S
C356 H343 0.960 . S
C356 C355 1.524 . S
C357 C354 1.403 . S
C357 C358 1.392 . S
C357 C361 1.495 . S
C358 C357 1.392 . S
C358 C359 1.385 . S
C358 C360 1.478 . S
C359 H353 0.930 . S
C359 C355 1.400 . S
C359 C358 1.385 . S
C360 C358 1.478 . S
C360 C362 1.381 . S
C360 C366 1.383 . S
C361 C357 1.495 . S
C361 H367 0.959 . S
C361 H368 0.961 . S
C361 H369 0.960 . S
C362 C360 1.381 . S
C362 C363 1.394 . S
C362 H370 0.930 . S
C363 C362 1.394 . S
C363 C364 1.383 . S
C363 H371 0.929 . S
C364 C363 1.383 . S
C364 C365 1.377 . S
C365 H349 0.930 . S
C365 C364 1.377 . S
C365 C366 1.379 . S
C366 H350 0.931 . S
C366 C360 1.383 . S
C366 C365 1.379 . S
H367 C361 0.959 . S
H368 C361 0.961 . S
H369 C361 0.960 . S
H370 C362 0.930 . S
H371 C363 0.929 . S
H372 C380 0.929 . S
H373 C382 0.930 . S
H374 C384 0.930 . S
H375 C387 0.929 . S
H376 C390 0.930 . S
H377 C392 0.960 . S
H378 C392 0.960 . S
H379 C392 0.960 . S
C380 H372 0.929 . S
C380 C381 1.377 . S
C380 C382 1.384 . S
C381 C380 1.377 . S
C381 C387 1.390 . S
C382 H373 0.930 . S
C382 C380 1.384 . S
C382 C383 1.372 . S
C383 C382 1.372 . S
C383 C384 1.400 . S
C383 C388 1.490 . S
C384 H374 0.930 . S
C384 C383 1.400 . S
C384 C387 1.386 . S
H385 C401 0.930 . S
H386 C402 0.931 . S
C387 H375 0.929 . S
C387 C381 1.390 . S
C387 C384 1.386 . S
C388 C383 1.490 . S
C388 C390 1.395 . S
C388 C391 1.403 . S
H389 C395 0.930 . S
C390 H376 0.930 . S
C390 C388 1.395 . S
C390 C393 1.403 . S
C391 C388 1.403 . S
C391 C392 1.524 . S
C391 C395 1.400 . S
C392 H377 0.960 . S
C392 H378 0.960 . S
C392 H379 0.960 . S
C392 C391 1.524 . S
C393 C390 1.403 . S
C393 C394 1.392 . S
C393 C397 1.495 . S
C394 C393 1.392 . S
C394 C395 1.385 . S
C394 C396 1.478 . S
C395 H389 0.930 . S
C395 C391 1.400 . S
C395 C394 1.385 . S
C396 C394 1.478 . S
C396 C398 1.381 . S
C396 C402 1.383 . S
C397 C393 1.495 . S
C397 H403 0.959 . S
C397 H404 0.961 . S
C397 H405 0.947 1_455 S
C398 C396 1.381 . S
C398 C399 1.394 1_455 S
C398 H406 0.930 . S
C399 C398 1.394 1_655 S
C399 C400 1.383 1_655 S
C399 H407 0.929 . S
C400 C399 1.383 1_455 S
C400 C401 1.377 . S
C401 H385 0.930 . S
C401 C400 1.377 . S
C401 C402 1.379 . S
C402 H386 0.931 . S
C402 C396 1.383 . S
C402 C401 1.379 . S
H403 C397 0.959 . S
H404 C397 0.961 . S
H405 C397 0.947 1_655 S
H406 C398 0.930 . S
H407 C399 0.929 . S
H408 C416 0.929 . S
H409 C418 0.930 . S
H410 C420 0.930 . S
H411 C423 0.929 . S
H412 C426 0.930 . S
H413 C428 0.960 1_554 S
H414 C428 0.960 . S
H415 C428 0.960 . S
C416 H408 0.929 . S
C416 C417 1.377 . S
C416 C418 1.384 . S
C417 C416 1.377 . S
C417 C423 1.390 . S
C418 H409 0.930 . S
C418 C416 1.384 . S
C418 C419 1.372 . S
C419 C418 1.372 . S
C419 C420 1.400 . S
C419 C424 1.490 . S
C420 H410 0.930 . S
C420 C419 1.400 . S
C420 C423 1.386 . S
H421 C437 0.930 . S
H422 C438 0.931 . S
C423 H411 0.929 . S
C423 C417 1.390 . S
C423 C420 1.386 . S
C424 C419 1.490 . S
C424 C426 1.395 . S
C424 C427 1.403 . S
H425 C431 0.930 . S
C426 H412 0.930 . S
C426 C424 1.395 . S
C426 C429 1.403 . S
C427 C424 1.403 . S
C427 C428 1.524 . S
C427 C431 1.400 1_556 S
C428 H413 0.960 1_556 S
C428 H414 0.960 . S
C428 H415 0.960 . S
C428 C427 1.524 . S
C429 C426 1.403 . S
C429 C430 1.392 1_556 S
C429 C433 1.495 . S
C430 C429 1.392 1_554 S
C430 C431 1.385 . S
C430 C432 1.478 . S
C431 H425 0.930 . S
C431 C427 1.400 1_554 S
C431 C430 1.385 . S
C432 C430 1.478 . S
C432 C434 1.381 . S
C432 C438 1.383 . S
C433 C429 1.495 . S
C433 H439 0.959 . S
C433 H440 0.967 . S
C433 H441 0.960 . S
C434 C432 1.381 . S
C434 C435 1.394 . S
C434 H442 0.930 . S
C435 C434 1.394 . S
C435 C436 1.383 . S
C435 H443 0.932 . S
C436 C435 1.383 . S
C436 C437 1.377 . S
C437 H421 0.930 . S
C437 C436 1.377 . S
C437 C438 1.379 . S
C438 H422 0.931 . S
C438 C432 1.383 . S
C438 C437 1.379 . S
H439 C433 0.959 . S
H440 C433 0.967 . S
H441 C433 0.960 . S
H442 C434 0.930 . S
H443 C435 0.932 . S
H444 C452 0.929 . S
H445 C454 0.930 . S
H446 C456 0.930 . S
H447 C459 0.929 . S
H448 C462 0.930 . S
H449 C464 0.960 . S
H450 C464 0.960 . S
H451 C464 0.960 . S
C452 H444 0.929 . S
C452 C453 1.377 . S
C452 C454 1.384 . S
C453 C452 1.377 . S
C453 C459 1.390 . S
C454 H445 0.930 . S
C454 C452 1.384 . S
C454 C455 1.372 . S
C455 C454 1.372 . S
C455 C456 1.400 . S
C455 C460 1.490 . S
C456 H446 0.930 . S
C456 C455 1.400 . S
C456 C459 1.386 . S
H457 C473 0.930 1_455 S
H458 C474 0.931 . S
C459 H447 0.929 . S
C459 C453 1.390 . S
C459 C456 1.386 . S
C460 C455 1.490 . S
C460 C462 1.395 . S
C460 C463 1.403 . S
H461 C467 0.930 . S
C462 H448 0.930 . S
C462 C460 1.395 . S
C462 C465 1.403 1_554 S
C463 C460 1.403 . S
C463 C464 1.524 . S
C463 C467 1.400 . S
C464 H449 0.960 . S
C464 H450 0.960 . S
C464 H451 0.960 . S
C464 C463 1.524 . S
C465 C462 1.403 1_556 S
C465 C466 1.392 . S
C465 C469 1.495 . S
C466 C465 1.392 . S
C466 C467 1.385 1_556 S
C466 C468 1.478 . S
C467 H461 0.930 . S
C467 C463 1.400 . S
C467 C466 1.385 1_554 S
C468 C466 1.478 . S
C468 C470 1.381 . S
C468 C474 1.383 . S
C469 C465 1.495 . S
C469 H475 0.959 . S
C469 H476 0.961 . S
C469 H477 0.960 . S
C470 C468 1.381 . S
C470 C471 1.394 . S
C470 H478 0.930 . S
C471 C470 1.394 . S
C471 C472 1.383 . S
C471 H479 0.929 . S
C472 C471 1.383 . S
C472 C473 1.377 . S
C473 H457 0.930 1_655 S
C473 C472 1.377 . S
C473 C474 1.379 . S
C474 H458 0.931 . S
C474 C468 1.383 . S
C474 C473 1.379 . S
H475 C469 0.959 . S
H476 C469 0.961 . S
H477 C469 0.960 . S
H478 C470 0.930 . S
H479 C471 0.929 . S
H480 C488 0.929 . S
H481 C490 0.930 . S
H482 C492 0.930 . S
H483 C495 0.929 . S
H484 C498 0.930 . S
H485 C500 0.960 . S
H486 C500 0.960 . S
H487 C500 0.960 . S
C488 H480 0.929 . S
C488 C489 1.377 . S
C488 C490 1.384 . S
C489 C488 1.377 . S
C489 C495 1.390 . S
C490 H481 0.930 . S
C490 C488 1.384 . S
C490 C491 1.372 . S
C491 C490 1.372 . S
C491 C492 1.400 . S
C491 C496 1.490 . S
C492 H482 0.930 . S
C492 C491 1.400 . S
C492 C495 1.386 . S
H493 C509 0.930 1_565 S
H494 C510 0.931 . S
C495 H483 0.929 . S
C495 C489 1.390 . S
C495 C492 1.386 . S
C496 C491 1.490 . S
C496 C498 1.395 . S
C496 C499 1.403 . S
H497 C503 0.930 . S
C498 H484 0.930 . S
C498 C496 1.395 . S
C498 C501 1.403 1_556 S
C499 C496 1.403 . S
C499 C500 1.524 . S
C499 C503 1.400 . S
C500 H485 0.960 . S
C500 H486 0.960 . S
C500 H487 0.960 . S
C500 C499 1.524 . S
C501 C498 1.403 1_554 S
C501 C502 1.392 . S
C501 C505 1.495 . S
C502 C501 1.392 . S
C502 C503 1.385 1_554 S
C502 C504 1.478 . S
C503 H497 0.930 . S
C503 C499 1.400 . S
C503 C502 1.385 1_556 S
C504 C502 1.478 . S
C504 C506 1.381 . S
C504 C510 1.383 . S
C505 C501 1.495 . S
C505 H511 0.959 . S
C505 H512 0.961 . S
C505 H513 0.960 . S
C506 C504 1.381 . S
C506 C507 1.394 . S
C506 H514 0.930 . S
C507 C506 1.394 . S
C507 C508 1.383 . S
C507 H515 0.929 . S
C508 C507 1.383 . S
C508 C509 1.377 . S
C509 H493 0.930 1_545 S
C509 C508 1.377 . S
C509 C510 1.379 . S
C510 H494 0.931 . S
C510 C504 1.383 . S
C510 C509 1.379 . S
H511 C505 0.959 . S
H512 C505 0.961 . S
H513 C505 0.960 . S
H514 C506 0.930 . S
H515 C507 0.929 . S
H516 C524 0.929 . S
H517 C526 0.924 1_655 S
H518 C528 0.930 . S
H519 C531 0.929 . S
H520 C534 0.930 . S
H521 C536 0.960 . S
H522 C536 0.960 . S
H523 C536 0.960 . S
C524 H516 0.929 . S
C524 C525 1.377 1_655 S
C524 C526 1.384 1_655 S
C525 C524 1.377 1_455 S
C525 C531 1.390 . S
C526 H517 0.924 1_455 S
C526 C524 1.384 1_455 S
C526 C527 1.372 . S
C527 C526 1.372 . S
C527 C528 1.400 . S
C527 C532 1.490 . S
C528 H518 0.930 . S
C528 C527 1.400 . S
C528 C531 1.386 . S
H529 C545 0.930 . S
H530 C546 0.931 . S
C531 H519 0.929 . S
C531 C525 1.390 . S
C531 C528 1.386 . S
C532 C527 1.490 . S
C532 C534 1.395 1_556 S
C532 C535 1.403 . S
H533 C539 0.930 . S
C534 H520 0.930 . S
C534 C532 1.395 1_554 S
C534 C537 1.403 . S
C535 C532 1.403 . S
C535 C536 1.524 . S
C535 C539 1.400 1_556 S
C536 H521 0.960 . S
C536 H522 0.960 . S
C536 H523 0.960 . S
C536 C535 1.524 . S
C537 C534 1.403 . S
C537 C538 1.392 . S
C537 C541 1.495 . S
C538 C537 1.392 . S
C538 C539 1.385 . S
C538 C540 1.478 . S
C539 H533 0.930 . S
C539 C535 1.400 1_554 S
C539 C538 1.385 . S
C540 C538 1.478 . S
C540 C542 1.381 . S
C540 C546 1.383 . S
C541 C537 1.495 . S
C541 H547 0.959 . S
C541 H548 0.961 . S
C541 H549 0.960 . S
C542 C540 1.381 . S
C542 C543 1.394 . S
C542 H550 0.930 . S
C543 C542 1.394 . S
C543 C544 1.383 . S
C543 H551 0.929 . S
C544 C543 1.383 . S
C544 C545 1.377 . S
C545 H529 0.930 . S
C545 C544 1.377 . S
C545 C546 1.379 . S
C546 H530 0.931 . S
C546 C540 1.383 . S
C546 C545 1.379 . S
H547 C541 0.959 . S
H548 C541 0.961 . S
H549 C541 0.960 . S
H550 C542 0.930 . S
H551 C543 0.929 . S
H552 C560 0.929 . S
H553 C562 0.930 1_545 S
H554 C564 0.930 . S
H555 C567 0.929 . S
H556 C570 0.930 . S
H557 C572 0.960 . S
H558 C572 0.960 . S
H559 C572 0.960 . S
C560 H552 0.929 . S
C560 C561 1.377 . S
C560 C562 1.384 . S
C561 C560 1.377 . S
C561 C567 1.390 . S
C562 H553 0.930 1_565 S
C562 C560 1.384 . S
C562 C563 1.372 . S
C563 C562 1.372 . S
C563 C564 1.400 . S
C563 C568 1.490 . S
C564 H554 0.930 . S
C564 C563 1.400 . S
C564 C567 1.386 . S
H565 C581 0.930 . S
H566 C582 0.931 . S
C567 H555 0.929 . S
C567 C561 1.390 . S
C567 C564 1.386 . S
C568 C563 1.490 . S
C568 C570 1.395 1_565 S
C568 C571 1.403 . S
H569 C575 0.930 . S
C570 H556 0.930 . S
C570 C568 1.395 1_545 S
C570 C573 1.403 . S
C571 C568 1.403 . S
C571 C572 1.524 . S
C571 C575 1.400 . S
C572 H557 0.960 . S
C572 H558 0.960 . S
C572 H559 0.960 . S
C572 C571 1.524 . S
C573 C570 1.403 . S
C573 C574 1.392 . S
C573 C577 1.495 . S
C574 C573 1.392 . S
C574 C575 1.385 1_545 S
C574 C576 1.478 . S
C575 H569 0.930 . S
C575 C571 1.400 . S
C575 C574 1.385 1_565 S
C576 C574 1.478 . S
C576 C578 1.381 . S
C576 C582 1.383 . S
C577 C573 1.495 . S
C577 H583 0.959 . S
C577 H584 0.961 . S
C577 H585 0.960 . S
C578 C576 1.381 . S
C578 C579 1.394 . S
C578 H586 0.930 . S
C579 C578 1.394 . S
C579 C580 1.383 . S
C579 H587 0.929 . S
C580 C579 1.383 . S
C580 C581 1.377 . S
C581 H565 0.930 . S
C581 C580 1.377 . S
C581 C582 1.379 . S
C582 H566 0.931 . S
C582 C576 1.383 . S
C582 C581 1.379 . S
H583 C577 0.959 . S
H584 C577 0.961 . S
H585 C577 0.960 . S
H586 C578 0.930 . S
H587 C579 0.929 . S
H588 C596 0.929 1_655 S
H589 C598 0.932 1_655 S
H590 C600 0.930 . S
H591 C603 0.929 . S
H592 C606 0.930 . S
H593 C608 0.960 . S
H594 C608 0.960 . S
H595 C608 0.960 . S
C596 H588 0.929 1_455 S
C596 C597 1.377 . S
C596 C598 1.383 . S
C597 C596 1.377 . S
C597 C603 1.390 . S
C598 H589 0.932 1_455 S
C598 C596 1.383 . S
C598 C599 1.371 . S
C599 C598 1.371 . S
C599 C600 1.400 . S
C599 C604 1.490 . S
C600 H590 0.930 . S
C600 C599 1.400 . S
C600 C603 1.386 . S
H601 C617 0.930 . S
H602 C618 0.931 1_455 S
C603 H591 0.929 . S
C603 C597 1.390 . S
C603 C600 1.386 . S
C604 C599 1.490 . S
C604 C606 1.395 1_455 S
C604 C607 1.403 . S
H605 C611 0.930 . S
C606 H592 0.930 . S
C606 C604 1.395 1_655 S
C606 C609 1.403 . S
C607 C604 1.403 . S
C607 C608 1.524 . S
C607 C611 1.400 . S
C608 H593 0.960 . S
C608 H594 0.960 . S
C608 H595 0.960 . S
C608 C607 1.524 . S
C609 C606 1.403 . S
C609 C610 1.392 . S
C609 C613 1.495 . S
C610 C609 1.392 . S
C610 C611 1.385 1_655 S
C610 C612 1.478 . S
C611 H605 0.930 . S
C611 C607 1.400 . S
C611 C610 1.385 1_455 S
C612 C610 1.478 . S
C612 C614 1.381 . S
C612 C618 1.383 . S
C613 C609 1.495 . S
C613 H619 0.959 . S
C613 H620 0.961 . S
C613 H621 0.960 . S
C614 C612 1.381 . S
C614 C615 1.394 . S
C614 H622 0.930 . S
C615 C614 1.394 . S
C615 C616 1.383 . S
C615 H623 0.929 . S
C616 C615 1.383 . S
C616 C617 1.377 . S
C617 H601 0.930 . S
C617 C616 1.377 . S
C617 C618 1.379 . S
C618 H602 0.931 1_655 S
C618 C612 1.383 . S
C618 C617 1.379 . S
H619 C613 0.959 . S
H620 C613 0.961 . S
H621 C613 0.960 . S
H622 C614 0.930 . S
H623 C615 0.929 . S
H624 C632 0.929 1_565 S
H625 C634 0.930 . S
H626 C636 0.930 . S
H627 C639 0.929 . S
H628 C642 0.930 . S
H629 C644 0.960 . S
H630 C644 0.960 . S
H631 C644 0.960 . S
C632 H624 0.929 1_545 S
C632 C633 1.377 . S
C632 C634 1.384 1_545 S
C633 C632 1.377 . S
C633 C639 1.390 . S
C634 H625 0.930 . S
C634 C632 1.384 1_565 S
C634 C635 1.372 1_565 S
C635 C634 1.372 1_545 S
C635 C636 1.400 . S
C635 C640 1.490 . S
C636 H626 0.930 . S
C636 C635 1.400 . S
C636 C639 1.386 . S
H637 C653 0.926 1_545 S
H638 C654 0.931 1_545 S
C639 H627 0.929 . S
C639 C633 1.390 . S
C639 C636 1.386 . S
C640 C635 1.490 . S
C640 C642 1.395 1_545 S
C640 C643 1.403 . S
H641 C647 0.930 . S
C642 H628 0.930 . S
C642 C640 1.395 1_565 S
C642 C645 1.403 . S
C643 C640 1.403 . S
C643 C644 1.524 . S
C643 C647 1.400 . S
C644 H629 0.960 . S
C644 H630 0.960 . S
C644 H631 0.960 . S
C644 C643 1.524 . S
C645 C642 1.403 . S
C645 C646 1.392 . S
C645 C649 1.495 . S
C646 C645 1.392 . S
C646 C647 1.385 1_565 S
C646 C648 1.478 . S
C647 H641 0.930 . S
C647 C643 1.400 . S
C647 C646 1.385 1_545 S
C648 C646 1.478 . S
C648 C650 1.381 . S
C648 C654 1.383 . S
C649 C645 1.495 . S
C649 H655 0.959 . S
C649 H656 0.961 . S
C649 H657 0.960 . S
C650 C648 1.381 . S
C650 C651 1.394 . S
C650 H658 0.930 . S
C651 C650 1.394 . S
C651 C652 1.383 . S
C651 H659 0.929 . S
C652 C651 1.383 . S
C652 C653 1.377 . S
C653 H637 0.926 1_565 S
C653 C652 1.377 . S
C653 C654 1.379 . S
C654 H638 0.931 1_565 S
C654 C648 1.383 . S
C654 C653 1.379 . S
H655 C649 0.959 . S
H656 C649 0.961 . S
H657 C649 0.960 . S
H658 C650 0.930 . S
H659 C651 0.929 . S
H660 C668 0.929 . S
H661 C670 0.930 . S
H662 C672 0.930 . S
H663 C675 0.929 . S
H664 C678 0.930 . S
H665 C680 0.960 . S
H666 C680 0.960 . S
H667 C680 0.960 . S
C668 H660 0.929 . S
C668 C669 1.377 . S
C668 C670 1.384 . S
C669 C668 1.377 . S
C669 C675 1.390 . S
C670 H661 0.930 . S
C670 C668 1.384 . S
C670 C671 1.372 . S
C671 C670 1.372 . S
C671 C672 1.400 . S
C671 C676 1.490 . S
C672 H662 0.930 . S
C672 C671 1.400 . S
C672 C675 1.386 . S
H673 C689 0.930 . S
H674 C690 0.931 . S
C675 H663 0.929 . S
C675 C669 1.390 . S
C675 C672 1.386 . S
C676 C671 1.490 . S
C676 C678 1.395 . S
C676 C679 1.403 1_455 S
H677 C683 0.930 . S
C678 H664 0.930 . S
C678 C676 1.395 . S
C678 C681 1.403 . S
C679 C676 1.403 1_655 S
C679 C680 1.524 . S
C679 C683 1.400 . S
C680 H665 0.960 . S
C680 H666 0.960 . S
C680 H667 0.960 . S
C680 C679 1.524 . S
C681 C678 1.403 . S
C681 C682 1.392 1_455 S
C681 C685 1.495 . S
C682 C681 1.392 1_655 S
C682 C683 1.385 . S
C682 C684 1.478 . S
C683 H677 0.930 . S
C683 C679 1.400 . S
C683 C682 1.385 . S
C684 C682 1.478 . S
C684 C686 1.381 . S
C684 C690 1.383 . S
C685 C681 1.495 . S
C685 H691 0.959 . S
C685 H692 0.961 . S
C685 H693 0.960 . S
C686 C684 1.381 . S
C686 C687 1.394 . S
C686 H694 0.930 . S
C687 C686 1.394 . S
C687 C688 1.383 . S
C687 H695 0.929 . S
C688 C687 1.383 . S
C688 C689 1.377 . S
C689 H673 0.930 . S
C689 C688 1.377 . S
C689 C690 1.379 . S
C690 H674 0.931 . S
C690 C684 1.383 . S
C690 C689 1.379 . S
H691 C685 0.959 . S
H692 C685 0.961 . S
H693 C685 0.960 . S
H694 C686 0.930 . S
H695 C687 0.929 . S
H696 C704 0.929 . S
H697 C706 0.930 . S
H698 C708 0.930 1_565 S
H699 C711 0.929 . S
H700 C714 0.930 . S
H701 C716 0.960 . S
H702 C716 0.960 . S
H703 C716 0.960 . S
C704 H696 0.929 . S
C704 C705 1.377 . S
C704 C706 1.384 . S
C705 C704 1.377 . S
C705 C711 1.390 . S
C706 H697 0.930 . S
C706 C704 1.384 . S
C706 C707 1.372 . S
C707 C706 1.372 . S
C707 C708 1.400 . S
C707 C712 1.490 . S
C708 H698 0.930 1_545 S
C708 C707 1.400 . S
C708 C711 1.386 . S
H709 C725 0.930 . S
H710 C726 0.931 . S
C711 H699 0.929 . S
C711 C705 1.390 . S
C711 C708 1.386 . S
C712 C707 1.490 . S
C712 C714 1.395 . S
C712 C715 1.403 1_545 S
H713 C719 0.930 . S
C714 H700 0.930 . S
C714 C712 1.395 . S
C714 C717 1.403 1_455 S
C715 C712 1.403 1_565 S
C715 C716 1.524 . S
C715 C719 1.400 1_455 S
C716 H701 0.960 . S
C716 H702 0.960 . S
C716 H703 0.960 . S
C716 C715 1.524 . S
C717 C714 1.403 1_655 S
C717 C718 1.392 . S
C717 C721 1.495 . S
C718 C717 1.392 . S
C718 C719 1.385 1_545 S
C718 C720 1.478 1_545 S
C719 H713 0.930 . S
C719 C715 1.400 1_655 S
C719 C718 1.385 1_565 S
C720 C718 1.478 1_565 S
C720 C722 1.380 1_565 S
C720 C726 1.383 . S
C721 C717 1.495 . S
C721 H727 0.959 . S
C721 H728 0.961 . S
C721 H729 0.960 . S
C722 C720 1.380 1_545 S
C722 C723 1.391 1_545 S
C722 H730 0.934 . S
C723 C722 1.391 1_565 S
C723 C724 1.383 . S
C723 H731 0.929 . S
C724 C723 1.383 . S
C724 C725 1.377 . S
C725 H709 0.930 . S
C725 C724 1.377 . S
C725 C726 1.379 . S
C726 H710 0.931 . S
C726 C720 1.383 . S
C726 C725 1.379 . S
H727 C721 0.959 . S
H728 C721 0.961 . S
H729 C721 0.960 . S
H730 C722 0.934 . S
H731 C723 0.929 . S
H732 C740 0.929 . S
H733 C742 0.930 . S
H734 C744 0.930 . S
H735 C747 0.929 . S
H736 C750 0.930 . S
H737 C752 0.960 . S
H738 C752 0.960 . S
H739 C752 0.960 . S
C740 H732 0.929 . S
C740 C741 1.377 . S
C740 C742 1.384 . S
C741 C740 1.377 . S
C741 C747 1.390 1_455 S
C742 H733 0.930 . S
C742 C740 1.384 . S
C742 C743 1.372 . S
C743 C742 1.372 . S
C743 C744 1.400 1_455 S
C743 C748 1.490 . S
C744 H734 0.930 . S
C744 C743 1.400 1_655 S
C744 C747 1.386 . S
H745 C761 0.930 . S
H746 C762 0.931 . S
C747 H735 0.929 . S
C747 C741 1.390 1_655 S
C747 C744 1.386 . S
C748 C743 1.490 . S
C748 C750 1.395 1_455 S
C748 C751 1.403 . S
H749 C755 0.930 . S
C750 H736 0.930 . S
C750 C748 1.395 1_655 S
C750 C753 1.403 1_565 S
C751 C748 1.403 . S
C751 C752 1.524 . S
C751 C755 1.400 1_565 S
C752 H737 0.960 . S
C752 H738 0.960 . S
C752 H739 0.960 . S
C752 C751 1.524 . S
C753 C750 1.403 1_545 S
C753 C754 1.392 . S
C753 C757 1.495 . S
C754 C753 1.392 . S
C754 C755 1.385 1_655 S
C754 C756 1.478 . S
C755 H749 0.930 . S
C755 C751 1.400 1_545 S
C755 C754 1.385 1_455 S
C756 C754 1.478 . S
C756 C758 1.381 1_655 S
C756 C762 1.383 . S
C757 C753 1.495 . S
C757 H763 0.959 . S
C757 H764 0.961 . S
C757 H765 0.960 . S
C758 C756 1.381 1_455 S
C758 C759 1.394 . S
C758 H766 0.930 . S
C759 C758 1.394 . S
C759 C760 1.383 1_455 S
C759 H767 0.929 . S
C760 C759 1.383 1_655 S
C760 C761 1.377 . S
C761 H745 0.930 . S
C761 C760 1.377 . S
C761 C762 1.379 . S
C762 H746 0.931 . S
C762 C756 1.383 . S
C762 C761 1.379 . S
H763 C757 0.959 . S
H764 C757 0.961 . S
H765 C757 0.960 . S
H766 C758 0.930 . S
H767 C759 0.929 . S
H768 C776 0.929 . S
H769 C778 0.930 . S
H770 C780 0.930 . S
H771 C783 0.929 . S
H772 C786 0.930 . S
H773 C788 0.960 . S
H774 C788 0.960 . S
H775 C788 0.960 . S
C776 H768 0.929 . S
C776 C777 1.377 . S
C776 C778 1.384 . S
C777 C776 1.377 . S
C777 C783 1.390 . S
C778 H769 0.930 . S
C778 C776 1.384 . S
C778 C779 1.372 . S
C779 C778 1.372 . S
C779 C780 1.400 . S
C779 C784 1.490 . S
C780 H770 0.930 . S
C780 C779 1.400 . S
C780 C783 1.386 . S
H781 C797 0.930 . S
H782 C798 0.931 . S
C783 H771 0.929 . S
C783 C777 1.390 . S
C783 C780 1.386 . S
C784 C779 1.490 . S
C784 C786 1.395 1_565 S
C784 C787 1.403 . S
H785 C791 0.930 . S
C786 H772 0.930 . S
C786 C784 1.395 1_545 S
C786 C789 1.403 1_455 S
C787 C784 1.403 . S
C787 C788 1.524 . S
C787 C791 1.400 1_455 S
C788 H773 0.960 . S
C788 H774 0.960 . S
C788 H775 0.960 . S
C788 C787 1.524 . S
C789 C786 1.403 1_655 S
C789 C790 1.392 . S
C789 C793 1.495 . S
C790 C789 1.392 . S
C790 C791 1.385 1_545 S
C790 C792 1.478 . S
C791 H785 0.930 . S
C791 C787 1.400 1_655 S
C791 C790 1.385 1_565 S
C792 C790 1.478 . S
C792 C794 1.381 . S
C792 C798 1.383 . S
C793 C789 1.495 . S
C793 H799 0.959 . S
C793 H800 0.961 . S
C793 H801 0.960 . S
C794 C792 1.381 . S
C794 C795 1.394 . S
C794 H802 0.930 . S
C795 C794 1.394 . S
C795 C796 1.383 . S
C795 H803 0.929 . S
C796 C795 1.383 . S
C796 C797 1.377 . S
C797 H781 0.930 . S
C797 C796 1.377 . S
C797 C798 1.379 . S
C798 H782 0.931 . S
C798 C792 1.383 . S
C798 C797 1.379 . S
H799 C793 0.959 . S
H800 C793 0.961 . S
H801 C793 0.960 . S
H802 C794 0.930 . S
H803 C795 0.929 . S
H804 C812 0.929 . S
H805 C814 0.930 . S
H806 C816 0.930 . S
H807 C819 0.929 . S
H808 C822 0.930 . S
H809 C824 0.960 . S
H810 C824 0.960 . S
H811 C824 0.960 . S
C812 H804 0.929 . S
C812 C813 1.377 . S
C812 C814 1.384 . S
C813 C812 1.377 . S
C813 C819 1.390 . S
C814 H805 0.930 . S
C814 C812 1.384 . S
C814 C815 1.372 . S
C815 C814 1.372 . S
C815 C816 1.400 . S
C815 C820 1.490 . S
C816 H806 0.930 . S
C816 C815 1.400 . S
C816 C819 1.386 . S
H817 C833 0.930 . S
H818 C834 0.931 . S
C819 H807 0.929 . S
C819 C813 1.390 . S
C819 C816 1.386 . S
C820 C815 1.490 . S
C820 C822 1.395 . S
C820 C823 1.403 1_655 S
H821 C827 0.930 . S
C822 H808 0.930 . S
C822 C820 1.395 . S
C822 C825 1.403 1_565 S
C823 C820 1.403 1_455 S
C823 C824 1.524 . S
C823 C827 1.400 1_565 S
C824 H809 0.960 . S
C824 H810 0.960 . S
C824 H811 0.960 . S
C824 C823 1.524 . S
C825 C822 1.403 1_545 S
C825 C826 1.392 . S
C825 C829 1.495 . S
C826 C825 1.392 . S
C826 C827 1.385 1_655 S
C826 C828 1.478 1_655 S
C827 H821 0.930 . S
C827 C823 1.400 1_545 S
C827 C826 1.385 1_455 S
C828 C826 1.478 1_455 S
C828 C830 1.381 . S
C828 C834 1.383 . S
C829 C825 1.495 . S
C829 H835 0.959 . S
C829 H836 0.961 . S
C829 H837 0.960 . S
C830 C828 1.381 . S
C830 C831 1.394 . S
C830 H838 0.930 . S
C831 C830 1.394 . S
C831 C832 1.383 . S
C831 H839 0.929 . S
C832 C831 1.383 . S
C832 C833 1.377 . S
C833 H817 0.930 . S
C833 C832 1.377 . S
C833 C834 1.379 . S
C834 H818 0.931 . S
C834 C828 1.383 . S
C834 C833 1.379 . S
H835 C829 0.959 . S
H836 C829 0.961 . S
H837 C829 0.960 . S
H838 C830 0.930 . S
H839 C831 0.929 . S
H840 C848 0.929 . S
H841 C850 0.930 . S
H842 C852 0.930 . S
H843 C855 0.929 . S
H844 C858 0.930 . S
H845 C860 0.960 . S
H846 C860 0.960 . S
H847 C860 0.960 . S
C848 H840 0.929 . S
C848 C849 1.377 . S
C848 C850 1.384 . S
C849 C848 1.377 . S
C849 C855 1.390 . S
C850 H841 0.930 . S
C850 C848 1.384 . S
C850 C851 1.372 . S
C851 C850 1.372 . S
C851 C852 1.400 . S
C851 C856 1.490 . S
C852 H842 0.930 . S
C852 C851 1.400 . S
C852 C855 1.386 . S
H853 C869 0.930 . S
H854 C870 0.931 . S
C855 H843 0.929 . S
C855 C849 1.390 . S
C855 C852 1.386 . S
C856 C851 1.490 . S
C856 C858 1.395 . S
C856 C859 1.403 . S
H857 C863 0.930 . S
C858 H844 0.930 . S
C858 C856 1.395 . S
C858 C861 1.403 . S
C859 C856 1.403 . S
C859 C860 1.524 . S
C859 C863 1.400 . S
C860 H845 0.960 . S
C860 H846 0.960 . S
C860 H847 0.960 . S
C860 C859 1.524 . S
C861 C858 1.403 . S
C861 C862 1.392 . S
C861 C865 1.495 . S
C862 C861 1.392 . S
C862 C863 1.385 . S
C862 C864 1.478 . S
C863 H857 0.930 . S
C863 C859 1.400 . S
C863 C862 1.385 . S
C864 C862 1.478 . S
C864 C866 1.381 . S
C864 C870 1.383 . S
C865 C861 1.495 . S
C865 H871 0.959 . S
C865 H872 0.961 . S
C865 H873 0.960 . S
C866 C864 1.381 . S
C866 C867 1.394 . S
C866 H874 0.930 . S
C867 C866 1.394 . S
C867 C868 1.383 . S
C867 H875 0.929 . S
C868 C867 1.383 . S
C868 C869 1.377 . S
C869 H853 0.930 . S
C869 C868 1.377 . S
C869 C870 1.379 . S
C870 H854 0.931 . S
C870 C864 1.383 . S
C870 C869 1.379 . S
H871 C865 0.959 . S
H872 C865 0.961 . S
H873 C865 0.960 . S
H874 C866 0.930 . S
H875 C867 0.929 . S
H876 C884 0.929 . S
H877 C886 0.930 . S
H878 C888 0.930 . S
H879 C891 0.929 . S
H880 C894 0.930 . S
H881 C896 0.960 . S
H882 C896 0.960 . S
H883 C896 0.960 . S
C884 H876 0.929 . S
C884 C885 1.377 . S
C884 C886 1.384 . S
C885 C884 1.377 . S
C885 C891 1.390 . S
C886 H877 0.930 . S
C886 C884 1.384 . S
C886 C887 1.372 . S
C887 C886 1.372 . S
C887 C888 1.400 . S
C887 C892 1.490 . S
C888 H878 0.930 . S
C888 C887 1.400 . S
C888 C891 1.386 . S
H889 C905 0.930 . S
H890 C906 0.931 . S
C891 H879 0.929 . S
C891 C885 1.390 . S
C891 C888 1.386 . S
C892 C887 1.490 . S
C892 C894 1.395 . S
C892 C895 1.403 . S
H893 C899 0.930 . S
C894 H880 0.930 . S
C894 C892 1.395 . S
C894 C897 1.403 . S
C895 C892 1.403 . S
C895 C896 1.524 . S
C895 C899 1.400 . S
C896 H881 0.960 . S
C896 H882 0.960 . S
C896 H883 0.960 . S
C896 C895 1.524 . S
C897 C894 1.403 . S
C897 C898 1.392 . S
C897 C901 1.495 . S
C898 C897 1.392 . S
C898 C899 1.385 . S
C898 C900 1.478 . S
C899 H893 0.930 . S
C899 C895 1.400 . S
C899 C898 1.385 . S
C900 C898 1.478 . S
C900 C902 1.381 . S
C900 C906 1.383 . S
C901 C897 1.495 . S
C901 H907 0.959 . S
C901 H908 0.961 . S
C901 H909 0.960 . S
C902 C900 1.381 . S
C902 C903 1.394 . S
C902 H910 0.930 . S
C903 C902 1.394 . S
C903 C904 1.383 . S
C903 H911 0.929 . S
C904 C903 1.383 . S
C904 C905 1.377 . S
C905 H889 0.930 . S
C905 C904 1.377 . S
C905 C906 1.379 . S
C906 H890 0.931 . S
C906 C900 1.383 . S
C906 C905 1.379 . S
H907 C901 0.959 . S
H908 C901 0.961 . S
H909 C901 0.960 . S
H910 C902 0.930 . S
H911 C903 0.929 . S
H912 C920 0.929 . S
H913 C922 0.930 . S
H914 C924 0.930 . S
H915 C927 0.929 . S
H916 C930 0.930 . S
H917 C932 0.960 . S
H918 C932 0.960 . S
H919 C932 0.960 . S
C920 H912 0.929 . S
C920 C921 1.377 . S
C920 C922 1.384 . S
C921 C920 1.377 . S
C921 C927 1.390 . S
C922 H913 0.930 . S
C922 C920 1.384 . S
C922 C923 1.372 . S
C923 C922 1.372 . S
C923 C924 1.400 . S
C923 C928 1.490 . S
C924 H914 0.930 . S
C924 C923 1.400 . S
C924 C927 1.386 . S
H925 C941 0.930 . S
H926 C942 0.931 . S
C927 H915 0.929 . S
C927 C921 1.390 . S
C927 C924 1.386 . S
C928 C923 1.490 . S
C928 C930 1.395 . S
C928 C931 1.403 . S
H929 C935 0.930 . S
C930 H916 0.930 . S
C930 C928 1.395 . S
C930 C933 1.403 . S
C931 C928 1.403 . S
C931 C932 1.524 . S
C931 C935 1.400 . S
C932 H917 0.960 . S
C932 H918 0.960 . S
C932 H919 0.960 . S
C932 C931 1.524 . S
C933 C930 1.403 . S
C933 C934 1.392 . S
C933 C937 1.495 . S
C934 C933 1.392 . S
C934 C935 1.385 . S
C934 C936 1.478 . S
C935 H929 0.930 . S
C935 C931 1.400 . S
C935 C934 1.385 . S
C936 C934 1.478 . S
C936 C938 1.381 . S
C936 C942 1.383 . S
C937 C933 1.495 . S
C937 H943 0.959 . S
C937 H944 0.961 . S
C937 H945 0.960 . S
C938 C936 1.381 . S
C938 C939 1.394 . S
C938 H946 0.930 . S
C939 C938 1.394 . S
C939 C940 1.383 . S
C939 H947 0.929 . S
C940 C939 1.383 . S
C940 C941 1.377 . S
C941 H925 0.930 . S
C941 C940 1.377 . S
C941 C942 1.379 . S
C942 H926 0.931 . S
C942 C936 1.383 . S
C942 C941 1.379 . S
H943 C937 0.959 . S
H944 C937 0.961 . S
H945 C937 0.960 . S
H946 C938 0.930 . S
H947 C939 0.929 . S
H948 C956 0.929 . S
H949 C958 0.930 . S
H950 C960 0.930 . S
H951 C963 0.929 . S
H952 C966 0.930 . S
H953 C968 0.960 . S
H954 C968 0.960 . S
H955 C968 0.960 . S
C956 H948 0.929 . S
C956 C957 1.377 . S
C956 C958 1.384 . S
C957 C956 1.377 . S
C957 C963 1.390 . S
C958 H949 0.930 . S
C958 C956 1.384 . S
C958 C959 1.372 . S
C959 C958 1.372 . S
C959 C960 1.400 . S
C959 C964 1.490 . S
C960 H950 0.930 . S
C960 C959 1.400 . S
C960 C963 1.386 . S
H961 C977 0.930 . S
H962 C978 0.931 . S
C963 H951 0.929 . S
C963 C957 1.390 . S
C963 C960 1.386 . S
C964 C959 1.490 . S
C964 C966 1.395 . S
C964 C967 1.403 . S
H965 C971 0.930 . S
C966 H952 0.930 . S
C966 C964 1.395 . S
C966 C969 1.403 . S
C967 C964 1.403 . S
C967 C968 1.524 . S
C967 C971 1.400 . S
C968 H953 0.960 . S
C968 H954 0.960 . S
C968 H955 0.960 . S
C968 C967 1.524 . S
C969 C966 1.403 . S
C969 C970 1.392 . S
C969 C973 1.495 . S
C970 C969 1.392 . S
C970 C971 1.385 . S
C970 C972 1.478 . S
C971 H965 0.930 . S
C971 C967 1.400 . S
C971 C970 1.385 . S
C972 C970 1.478 . S
C972 C974 1.381 . S
C972 C978 1.383 . S
C973 C969 1.495 . S
C973 H979 0.959 . S
C973 H980 0.961 . S
C973 H981 0.960 . S
C974 C972 1.381 . S
C974 C975 1.394 . S
C974 H982 0.930 . S
C975 C974 1.394 . S
C975 C976 1.383 . S
C975 H983 0.929 . S
C976 C975 1.383 . S
C976 C977 1.377 . S
C977 H961 0.930 . S
C977 C976 1.377 . S
C977 C978 1.379 . S
C978 H962 0.931 . S
C978 C972 1.383 . S
C978 C977 1.379 . S
H979 C973 0.959 . S
H980 C973 0.961 . S
H981 C973 0.960 . S
H982 C974 0.930 . S
H983 C975 0.929 . S
C273 N14 0.837 1_565 S
C292 C41 0.804 . S
C309 C74 0.848 . S
C328 N47 0.801 1_655 S
C345 N80 0.837 1_545 S
C364 C107 0.789 . S
C381 C8 0.831 . S
C400 N113 0.889 1_455 S
C417 C239 0.836 . S
C436 N146 0.882 1_565 S
C453 C140 0.830 . S
C472 N179 0.814 1_655 S
C489 C173 0.846 . S
C508 N212 0.804 1_545 S
C525 N245 0.847 1_455 S
C544 C206 0.868 . S
C561 C83 1.225 . S
C580 C17 1.217 . S
C597 C50 1.222 . S
C616 C116 1.218 . S
C633 C149 1.223 . S
C652 C215 1.219 . S
C669 C182 1.224 . S
C688 C248 1.223 . S
C705 C28 0.552 . S
C724 C94 0.604 . S
C741 C61 0.517 . S
C760 C127 0.597 . S
C777 C226 0.531 . S
C796 C160 0.530 . S
C813 C259 0.551 . S
C832 C193 0.616 . S
C849 N5 1.618 . S
C868 N170 1.607 . S
C885 N203 1.617 . S
C904 N38 1.619 . S
C921 N236 1.618 . S
C940 N71 1.619 . S
C957 N104 1.618 . S
C976 N137 1.614 . S
