# Generated by pormake.
# Topology vmn, (7)-cn, num edge types: 1
# Building blocks:
#     Node 0, Type 0, BuildingBlock: HICVOG_clean_sbu_0, # of connection points: 7
#     Node 1, Type 0, BuildingBlock: HICVOG_clean_sbu_0, # of connection points: 7
#     Node 2, Type 0, BuildingBlock: HICVOG_clean_sbu_0, # of connection points: 7
#     Node 3, Type 0, BuildingBlock: HICVOG_clean_sbu_0, # of connection points: 7
#     Node 4, Type 0, BuildingBlock: HICVOG_clean_sbu_0, # of connection points: 7
#     Node 5, Type 0, BuildingBlock: HICVOG_clean_sbu_0, # of connection points: 7
#     Node 6, Type 0, BuildingBlock: HICVOG_clean_sbu_0, # of connection points: 7
#     Node 7, Type 0, BuildingBlock: HICVOG_clean_sbu_0, # of connection points: 7
#     Edge 8, Type (0, 0), BuildingBlock: MIFKUJ_clean_linker_0, # of connection points: 2
#     Edge 9, Type (0, 0), BuildingBlock: MIFKUJ_clean_linker_0, # of connection points: 2
#     Edge 10, Type (0, 0), BuildingBlock: MIFKUJ_clean_linker_0, # of connection points: 2
#     Edge 11, Type (0, 0), BuildingBlock: MIFKUJ_clean_linker_0, # of connection points: 2
#     Edge 12, Type (0, 0), BuildingBlock: MIFKUJ_clean_linker_0, # of connection points: 2
#     Edge 13, Type (0, 0), BuildingBlock: MIFKUJ_clean_linker_0, # of connection points: 2
#     Edge 14, Type (0, 0), BuildingBlock: MIFKUJ_clean_linker_0, # of connection points: 2
#     Edge 15, Type (0, 0), BuildingBlock: MIFKUJ_clean_linker_0, # of connection points: 2
#     Edge 16, Type (0, 0), BuildingBlock: MIFKUJ_clean_linker_0, # of connection points: 2
#     Edge 17, Type (0, 0), BuildingBlock: MIFKUJ_clean_linker_0, # of connection points: 2
#     Edge 18, Type (0, 0), BuildingBlock: MIFKUJ_clean_linker_0, # of connection points: 2
#     Edge 19, Type (0, 0), BuildingBlock: MIFKUJ_clean_linker_0, # of connection points: 2
#     Edge 20, Type (0, 0), BuildingBlock: MIFKUJ_clean_linker_0, # of connection points: 2
#     Edge 21, Type (0, 0), BuildingBlock: MIFKUJ_clean_linker_0, # of connection points: 2
#     Edge 22, Type (0, 0), BuildingBlock: MIFKUJ_clean_linker_0, # of connection points: 2
#     Edge 23, Type (0, 0), BuildingBlock: MIFKUJ_clean_linker_0, # of connection points: 2
#     Edge 24, Type (0, 0), BuildingBlock: MIFKUJ_clean_linker_0, # of connection points: 2
#     Edge 25, Type (0, 0), BuildingBlock: MIFKUJ_clean_linker_0, # of connection points: 2
#     Edge 26, Type (0, 0), BuildingBlock: MIFKUJ_clean_linker_0, # of connection points: 2
#     Edge 27, Type (0, 0), BuildingBlock: MIFKUJ_clean_linker_0, # of connection points: 2
#     Edge 28, Type (0, 0), BuildingBlock: MIFKUJ_clean_linker_0, # of connection points: 2
#     Edge 29, Type (0, 0), BuildingBlock: MIFKUJ_clean_linker_0, # of connection points: 2
#     Edge 30, Type (0, 0), BuildingBlock: MIFKUJ_clean_linker_0, # of connection points: 2
#     Edge 31, Type (0, 0), BuildingBlock: MIFKUJ_clean_linker_0, # of connection points: 2
#     Edge 32, Type (0, 0), BuildingBlock: MIFKUJ_clean_linker_0, # of connection points: 2
#     Edge 33, Type (0, 0), BuildingBlock: MIFKUJ_clean_linker_0, # of connection points: 2
#     Edge 34, Type (0, 0), BuildingBlock: MIFKUJ_clean_linker_0, # of connection points: 2
#     Edge 35, Type (0, 0), BuildingBlock: MIFKUJ_clean_linker_0, # of connection points: 2
# Relax obj value: 0.154
# Max RMSD: 0.216
# Mean RMSD: 0.216
data_MOF--net-vmn--node1-HICVOG_clean_sbu_0--edge1-MIFKUJ_clean_linker_0
_symmetry_space_group_name_H-M    P1
_symmetry_Int_Tables_number       1
_symmetry_cell_setting            triclinic
loop_
_symmetry_equiv_pos_as_xyz
'x, y, z'
_cell_length_a     47.992038
_cell_length_b     40.294305
_cell_length_c     37.443692
_cell_angle_alpha  89.853772
_cell_angle_beta   99.120006
_cell_angle_gamma 89.889347
loop_
_atom_site_label
_atom_site_type_symbol
_atom_site_fract_x
_atom_site_fract_y
_atom_site_fract_z
_atom_type_partial_charge
Zn0 Zn 0.96852 0.3342 0.17343 0.0
C1 C 1.00334 0.33125 0.27788 0.0
N2 N 0.99231 0.36195 0.27868 0.0
C3 C 0.98293 0.36836 0.24359 0.0
N4 N 0.98784 0.34261 0.22234 0.0
N5 N 1.00143 0.31955 0.24371 0.0
C6 C 0.01389 0.22253 0.23733 0.0
O7 O 0.99301 0.2312 0.21191 0.0
O8 O 0.97719 0.36888 0.13813 0.0
Zn9 Zn 0.03013 0.29127 0.22711 0.0
N10 N 0.92793 0.33273 0.17414 0.0
C11 C 0.89171 0.32395 0.20967 0.0
C12 C 0.92014 0.32611 0.20676 0.0
C13 C 0.90817 0.33688 0.14386 0.0
N14 N 0.87208 0.328 0.17972 0.0
C15 C 0.87914 0.3343 0.1465 0.0
O16 O 0.02577 0.288 0.17162 0.0
C17 C 1.00449 0.28532 0.14665 0.0
O18 O 0.97964 0.29045 0.15315 0.0
H19 H 0.93593 0.32226 0.23038 0.0
H20 H 0.91518 0.34219 0.11841 0.0
C21 C 0.09159 0.29854 0.24633 0.0
C22 C 0.11648 0.31747 0.25529 0.0
C23 C 0.08856 0.36634 0.25412 0.0
C24 C 0.06422 0.3477 0.24463 0.0
N25 N 0.066 0.31417 0.24143 0.0
N26 N 0.11395 0.35089 0.25913 0.0
H27 H 0.0924 0.27189 0.2433 0.0
C28 C 1.00271 0.37442 0.1348 0.0
O29 O 0.02297 0.36008 0.15732 0.0
O30 O 0.03216 0.24435 0.24932 0.0
H31 H 0.04406 0.36008 0.23952 0.0
H32 H 0.88523 0.31881 0.23552 0.0
H33 H 0.08734 0.39299 0.25701 0.0
Zn34 Zn 0.54955 0.34748 0.83814 0.0
C35 C 0.5079 0.33012 0.7379 0.0
N36 N 0.5148 0.36193 0.73251 0.0
C37 C 0.52707 0.37166 0.7655 0.0
N38 N 0.52767 0.34686 0.78993 0.0
N39 N 0.51456 0.32094 0.77309 0.0
C40 C 0.4797 0.22141 0.79496 0.0
O41 O 0.47483 0.22824 0.82769 0.0
O42 O 0.55082 0.39323 0.85817 0.0
Zn43 Zn 0.48871 0.29238 0.796 0.0
N44 N 0.58798 0.3323 0.83683 0.0
C45 C 0.61995 0.30554 0.80375 0.0
C46 C 0.59279 0.3162 0.80656 0.0
C47 C 0.60941 0.33805 0.86476 0.0
N48 N 0.64129 0.31129 0.8314 0.0
C49 C 0.63706 0.32719 0.86218 0.0
O50 O 0.49696 0.2895 0.85187 0.0
C51 C 0.51327 0.30145 0.87903 0.0
O52 O 0.53265 0.32185 0.87498 0.0
H53 H 0.57565 0.31181 0.78465 0.0
H54 H 0.60492 0.35142 0.8882 0.0
C55 C 0.42626 0.29884 0.78292 0.0
C56 C 0.40132 0.31815 0.77941 0.0
C57 C 0.42896 0.36714 0.78172 0.0
C58 C 0.45341 0.34812 0.78593 0.0
N59 N 0.45182 0.31443 0.78626 0.0
N60 N 0.40365 0.3518 0.77883 0.0
H61 H 0.42547 0.27204 0.78437 0.0
C62 C 0.52708 0.40564 0.86163 0.0
O63 O 0.50398 0.3892 0.84918 0.0
O64 O 0.486 0.24512 0.7751 0.0
H65 H 0.47358 0.3603 0.78972 0.0
H66 H 0.6241 0.29281 0.77973 0.0
H67 H 0.43008 0.39395 0.78145 0.0
Zn68 Zn 0.99004 0.74146 0.80374 0.0
C69 C 0.0286 0.66131 0.77404 0.0
N70 N 0.01826 0.67199 0.74055 0.0
C71 C 0.01007 0.70324 0.74642 0.0
N72 N 0.01489 0.71137 0.78188 0.0
N73 N 0.02731 0.68511 0.79907 0.0
C74 C 0.03068 0.63327 0.88987 0.0
O75 O 0.01125 0.65558 0.8931 0.0
O76 O 0.98304 0.78628 0.77757 0.0
Zn77 Zn 0.04973 0.68498 0.84721 0.0
N78 N 0.95484 0.71718 0.80266 0.0
C79 C 0.93561 0.66533 0.81693 0.0
C80 C 0.95874 0.6854 0.8147 0.0
C81 C 0.92834 0.73002 0.79317 0.0
N82 N 0.90929 0.678 0.80771 0.0
C83 C 0.90467 0.70985 0.79595 0.0
O84 O 0.03651 0.71716 0.88183 0.0
C85 C 0.01931 0.74071 0.88458 0.0
O86 O 1.00222 0.75126 0.85735 0.0
H87 H 0.97978 0.67586 0.82317 0.0
H88 H 0.92588 0.75571 0.78477 0.0
C89 C 0.11001 0.69019 0.87165 0.0
C90 C 0.13812 0.69773 0.86776 0.0
C91 C 0.1218 0.71538 0.80736 0.0
C92 C 0.09416 0.70808 0.81147 0.0
N93 N 0.08874 0.69552 0.84337 0.0
N94 N 0.14297 0.71004 0.83539 0.0
H95 H 0.10497 0.67976 0.89648 0.0
C96 C 1.00284 0.8076 0.78049 0.0
O97 O 0.02782 0.79905 0.79783 0.0
O98 O 0.04948 0.63994 0.87056 0.0
H99 H 0.07714 0.71232 0.78932 0.0
H100 H 0.9385 0.63999 0.82644 0.0
H101 H 0.12644 0.72526 0.78206 0.0
Zn102 Zn 0.52839 0.73783 0.22653 0.0
C103 C 0.48644 0.65628 0.24741 0.0
N104 N 0.4961 0.66438 0.28189 0.0
C105 C 0.50496 0.69589 0.27908 0.0
N106 N 0.50165 0.70653 0.2443 0.0
N107 N 0.48925 0.68168 0.22469 0.0
C108 C 0.49515 0.63294 0.14325 0.0
O109 O 0.51699 0.65123 0.15645 0.0
O110 O 0.53061 0.78313 0.25178 0.0
Zn111 Zn 0.47003 0.68419 0.17543 0.0
N112 N 0.56501 0.71545 0.2368 0.0
C113 C 0.58771 0.66268 0.24089 0.0
C114 C 0.56337 0.68183 0.23448 0.0
C115 C 0.59057 0.73092 0.24434 0.0
N116 N 0.61304 0.6779 0.24852 0.0
C117 C 0.61552 0.71155 0.25026 0.0
O118 O 0.4889 0.71366 0.14408 0.0
C119 C 0.50766 0.73554 0.14283 0.0
O120 O 0.52283 0.74653 0.17139 0.0
H121 H 0.54326 0.66987 0.22738 0.0
H122 H 0.59132 0.75772 0.24574 0.0
C123 C 0.41015 0.69164 0.14669 0.0
C124 C 0.3823 0.70247 0.14809 0.0
C125 C 0.39834 0.72625 0.20579 0.0
C126 C 0.42571 0.7157 0.2041 0.0
N127 N 0.43114 0.69851 0.1748 0.0
N128 N 0.37744 0.71942 0.17795 0.0
H129 H 0.41516 0.67754 0.124 0.0
C130 C 0.51075 0.8041 0.24332 0.0
O131 O 0.48846 0.79505 0.22038 0.0
O132 O 0.47095 0.64062 0.15043 0.0
H133 H 0.44254 0.7211 0.22609 0.0
H134 H 0.58654 0.6359 0.23939 0.0
H135 H 0.39369 0.73983 0.22904 0.0
Zn136 Zn 0.46787 0.84722 0.67863 0.0
C137 C 0.51095 0.8308 0.77825 0.0
N138 N 0.50599 0.86331 0.78263 0.0
C139 C 0.49362 0.87286 0.7495 0.0
N140 N 0.49045 0.84712 0.72619 0.0
N141 N 0.50233 0.82074 0.74382 0.0
C142 C 0.51068 0.72313 0.74627 0.0
O143 O 0.48559 0.73185 0.72946 0.0
O144 O 0.47406 0.88855 0.65154 0.0
Zn145 Zn 0.52613 0.78897 0.72172 0.0
N146 N 0.42798 0.84268 0.68201 0.0
C147 C 0.39247 0.83628 0.71917 0.0
C148 C 0.42081 0.83835 0.71539 0.0
C149 C 0.40781 0.84442 0.65195 0.0
N150 N 0.37237 0.83836 0.68937 0.0
C151 C 0.37905 0.8422 0.65558 0.0
O152 O 0.51422 0.77974 0.66733 0.0
C153 C 0.49606 0.79008 0.64101 0.0
O154 O 0.47884 0.81313 0.64517 0.0
H155 H 0.43698 0.83689 0.73899 0.0
H156 H 0.41416 0.84815 0.62576 0.0
C157 C 0.58817 0.79343 0.72746 0.0
C158 C 0.61336 0.81133 0.72661 0.0
C159 C 0.58722 0.86163 0.72185 0.0
C160 C 0.56249 0.84395 0.72239 0.0
N161 N 0.56318 0.81026 0.72499 0.0
N162 N 0.61192 0.84498 0.72378 0.0
H163 H 0.58828 0.7666 0.72896 0.0
C164 C 0.49819 0.89007 0.64176 0.0
O165 O 0.51745 0.86802 0.65439 0.0
O166 O 0.53083 0.74393 0.74795 0.0
H167 H 0.54282 0.85718 0.7201 0.0
H168 H 0.38645 0.83312 0.74561 0.0
H169 H 0.58678 0.8884 0.71956 0.0
Zn170 Zn 0.99315 0.78715 0.30346 0.0
C171 C 0.02459 0.86985 0.27244 0.0
N172 N 0.01183 0.85911 0.24004 0.0
C173 C 1.00794 0.82667 0.24599 0.0
N174 N 0.01716 0.81775 0.28064 0.0
N175 N 0.02864 0.84483 0.29692 0.0
C176 C 0.02468 0.89673 0.37749 0.0
O177 O 1.00433 0.87473 0.3716 0.0
O178 O 0.98944 0.74081 0.27963 0.0
Zn179 Zn 0.05146 0.84627 0.3444 0.0
N180 N 0.95623 0.80909 0.29693 0.0
C181 C 0.93352 0.86163 0.2977 0.0
C182 C 0.95785 0.84243 0.30236 0.0
C183 C 0.93067 0.79389 0.28776 0.0
N184 N 0.9082 0.8467 0.2884 0.0
C185 C 0.90575 0.81332 0.2834 0.0
O186 O 0.03903 0.81511 0.3804 0.0
C187 C 0.02141 0.79259 0.3849 0.0
O188 O 1.00401 0.78124 0.35845 0.0
H189 H 0.97799 0.85417 0.31017 0.0
H190 H 0.92986 0.76733 0.28359 0.0
C191 C 0.1116 0.83985 0.3702 0.0
C192 C 0.14005 0.83418 0.36622 0.0
C193 C 0.12513 0.82527 0.30327 0.0
C194 C 0.09723 0.831 0.30741 0.0
N195 N 0.09094 0.83815 0.34066 0.0
N196 N 0.1457 0.82698 0.33255 0.0
H197 H 0.10569 0.84509 0.39629 0.0
C198 C 1.00441 0.71671 0.29425 0.0
O199 O 0.02314 0.72269 0.32308 0.0
O200 O 0.04799 0.89059 0.36689 0.0
H201 H 0.08069 0.82974 0.28423 0.0
H202 H 0.93469 0.88821 0.30165 0.0
H203 H 0.13044 0.81952 0.27695 0.0
Zn204 Zn 0.49186 0.23739 0.29754 0.0
C205 C 0.5263 0.15664 0.26756 0.0
N206 N 0.5139 0.16658 0.2346 0.0
C207 C 0.50894 0.19902 0.23949 0.0
N208 N 0.51686 0.20845 0.27434 0.0
N209 N 0.52888 0.18193 0.29143 0.0
C210 C 0.52318 0.12836 0.37113 0.0
O211 O 0.50352 0.15138 0.36792 0.0
O212 O 0.48689 0.28383 0.27508 0.0
Zn213 Zn 0.55074 0.17971 0.33954 0.0
N214 N 0.4555 0.21474 0.29074 0.0
C215 C 0.43263 0.16226 0.28911 0.0
C216 C 0.45709 0.18118 0.29434 0.0
C217 C 0.42998 0.23039 0.28318 0.0
N218 N 0.4073 0.17767 0.28127 0.0
C219 C 0.40502 0.21129 0.27837 0.0
O220 O 0.5386 0.2109 0.37596 0.0
C221 C 0.52018 0.23285 0.37944 0.0
O222 O 0.50251 0.24307 0.35253 0.0
H223 H 0.47726 0.16909 0.30124 0.0
H224 H 0.42922 0.25714 0.28064 0.0
C225 C 0.61054 0.18676 0.36727 0.0
C226 C 0.6392 0.19183 0.36411 0.0
C227 C 0.62583 0.19709 0.30035 0.0
C228 C 0.59771 0.19198 0.3037 0.0
N229 N 0.59053 0.18692 0.33695 0.0
N230 N 0.64574 0.1969 0.33041 0.0
H231 H 0.60394 0.18318 0.3933 0.0
C232 C 0.5074 0.30398 0.27605 0.0
O233 O 0.5329 0.29385 0.28982 0.0
O234 O 0.5463 0.13442 0.35998 0.0
H235 H 0.58172 0.19209 0.27988 0.0
H236 H 0.43372 0.13551 0.29154 0.0
H237 H 0.63184 0.20118 0.27404 0.0
Zn238 Zn 0.02378 0.24143 0.72455 0.0
C239 C 0.98852 0.15947 0.75235 0.0
N240 N 1.00036 0.16859 0.78575 0.0
C241 C 1.00576 0.20109 0.78176 0.0
N242 N 0.99871 0.2113 0.74691 0.0
N243 N 0.98666 0.18527 0.72903 0.0
C244 C 0.99514 0.1387 0.64653 0.0
O245 O 0.01421 0.16176 0.65567 0.0
O246 O 0.02741 0.2874 0.74839 0.0
Zn247 Zn 0.96509 0.18445 0.68085 0.0
N248 N 0.06057 0.21873 0.73008 0.0
C249 C 0.08261 0.16582 0.72848 0.0
C250 C 0.05852 0.18515 0.72717 0.0
C251 C 0.08637 0.23387 0.73412 0.0
N252 N 0.10809 0.18077 0.732 0.0
C253 C 0.11096 0.2143 0.73476 0.0
O254 O 0.97675 0.21746 0.64614 0.0
C255 C 0.99495 0.23955 0.64258 0.0
O256 O 0.01283 0.24915 0.66949 0.0
H257 H 0.03824 0.1733 0.72315 0.0
H258 H 0.08764 0.26061 0.73563 0.0
C259 C 0.90506 0.18722 0.65284 0.0
C260 C 0.87618 0.18961 0.65596 0.0
C261 C 0.88902 0.19646 0.71948 0.0
C262 C 0.91745 0.19417 0.71622 0.0
N263 N 0.92499 0.18938 0.68312 0.0
N264 N 0.86918 0.19404 0.68949 0.0
H265 H 0.9117 0.18298 0.62693 0.0
C266 C 0.03904 0.31018 0.73224 0.0
O267 O 0.04857 0.30269 0.70223 0.0
O268 O 0.9713 0.14144 0.65695 0.0
H269 H 0.93338 0.19588 0.74001 0.0
H270 H 0.08106 0.1391 0.72613 0.0
H271 H 0.88273 0.20004 0.7457 0.0
H272 H 0.98439 0.91575 0.25459 0.0
H273 H 0.98848 0.976 0.25842 0.0
H274 H 0.07476 0.96644 0.31098 0.0
H275 H 0.07094 0.90532 0.30619 0.0
H276 H 0.03288 0.02086 0.3383 0.0
H277 H 0.07543 0.98366 0.23684 0.0
H278 H 0.07771 0.95027 0.18229 0.0
H279 H 1.00022 0.9941 0.12999 0.0
H280 H 0.99712 0.02719 0.18457 0.0
H281 H 0.05436 0.1944 0.28953 0.0
H282 H 0.0607 0.13524 0.30518 0.0
H283 H 0.98694 0.1117 0.22789 0.0
H284 H 0.98049 0.17021 0.21225 0.0
H285 H 0.03097 0.0736 0.21805 0.0
H286 H 0.98678 0.10912 0.31775 0.0
H287 H 0.98044 0.13969 0.37279 0.0
H288 H 0.05779 0.09858 0.42895 0.0
H289 H 0.06491 0.06821 0.37397 0.0
C290 C 1.00418 0.9264 0.26743 0.0
C291 C 0.0273 0.90585 0.28033 0.0
C292 C 1.00642 0.96086 0.26974 0.0
C293 C 0.03187 0.97577 0.28498 0.0
C294 C 0.05483 0.9554 0.29937 0.0
C295 C 0.05265 0.92057 0.2967 0.0
C296 C 0.03459 1.01246 0.28199 0.0
C297 C 0.03327 0.03258 0.31226 0.0
C298 C 0.03418 0.02763 0.24781 0.0
C299 C 0.03593 1.0077 0.21494 0.0
C300 C 0.05871 0.98591 0.21387 0.0
C301 C 0.06018 0.96708 0.18291 0.0
C302 C 0.03913 0.97008 0.15269 0.0
C303 C 0.01652 0.99184 0.15341 0.0
C304 C 0.01489 1.01061 0.18436 0.0
C305 C 0.03935 0.17663 0.27614 0.0
C306 C 0.017 0.18718 0.24943 0.0
C307 C 0.04295 0.14279 0.28521 0.0
C308 C 0.02434 0.11885 0.26768 0.0
C309 C 1.00169 0.12955 0.24171 0.0
C310 C 0.998 0.16317 0.23283 0.0
C311 C 0.029 0.08247 0.27431 0.0
C312 C 0.03141 0.06224 0.24444 0.0
C313 C 0.0303 0.06742 0.30888 0.0
C314 C 0.02667 0.08687 0.34145 0.0
C315 C 1.00276 0.10711 0.34156 0.0
C316 C 0.99894 0.12426 0.37284 0.0
C317 C 0.01878 0.12123 0.40429 0.0
C318 C 0.04251 0.10105 0.40451 0.0
C319 C 0.04646 0.08388 0.37328 0.0
H320 H 0.01571 0.13439 0.42853 0.0
H321 H 0.04034 0.95555 0.12871 0.0
H322 H 0.44516 0.90444 0.7158 0.0
H323 H 0.4376 0.96486 0.70944 0.0
H324 H 0.52433 0.98133 0.75707 0.0
H325 H 0.53171 0.92159 0.76343 0.0
H326 H 0.44076 1.00969 0.7626 0.0
H327 H 0.55068 0.04648 0.7277 0.0
H328 H 0.5828 0.02984 0.68546 0.0
H329 H 0.51289 0.98892 0.61349 0.0
H330 H 0.48066 1.00424 0.65559 0.0
H331 H 0.47768 0.1657 0.83574 0.0
H332 H 0.47525 0.10812 0.81629 0.0
H333 H 0.47498 0.13939 0.70594 0.0
H334 H 0.47858 0.19754 0.72569 0.0
H335 H 0.50663 0.0883 0.71724 0.0
H336 H 0.4136 0.10927 0.73786 0.0
H337 H 0.37586 0.12891 0.77031 0.0
H338 H 0.40184 0.05854 0.85544 0.0
H339 H 0.44 0.03879 0.82377 0.0
C340 C 0.46267 0.92102 0.72405 0.0
C341 C 0.48903 0.90839 0.74 0.0
C342 C 0.45834 0.95554 0.72062 0.0
C343 C 0.48046 0.97784 0.73251 0.0
C344 C 0.50702 0.96489 0.74709 0.0
C345 C 0.51119 0.93068 0.75094 0.0
C346 C 0.47568 0.0145 0.73332 0.0
C347 C 0.45498 0.0269 0.75238 0.0
C348 C 0.49361 0.03724 0.7192 0.0
C349 C 0.51333 0.02628 0.69492 0.0
C350 C 0.54226 0.03362 0.70297 0.0
C351 C 0.56052 0.02425 0.67911 0.0
C352 C 0.54997 1.00795 0.6469 0.0
C353 C 0.52119 1.00088 0.63864 0.0
C354 C 0.50295 1.0097 0.66261 0.0
C355 C 0.47701 0.16047 0.80726 0.0
C356 C 0.47815 0.18637 0.78226 0.0
C357 C 0.47539 0.12737 0.79609 0.0
C358 C 0.4742 0.11913 0.75944 0.0
C359 C 0.47565 0.14494 0.73435 0.0
C360 C 0.47768 0.17822 0.74564 0.0
C361 C 0.47247 0.08351 0.74794 0.0
C362 C 0.49207 0.07126 0.72706 0.0
C363 C 0.45284 0.06108 0.75941 0.0
C364 C 0.42978 0.07267 0.77849 0.0
C365 C 0.41137 0.0981 0.7636 0.0
C366 C 0.38989 0.10925 0.78185 0.0
C367 C 0.38648 0.09501 0.81494 0.0
C368 C 0.40451 0.06954 0.82981 0.0
C369 C 0.42604 0.05833 0.81169 0.0
H370 H 0.36985 0.10368 0.82904 0.0
H371 H 0.56404 1.00098 0.62826 0.0
H372 H 0.94035 0.12347 0.7283 0.0
H373 H 0.93717 0.06267 0.72111 0.0
H374 H 0.02781 0.05531 0.74726 0.0
H375 H 0.03085 0.11552 0.7545 0.0
H376 H 1.00804 1.01113 0.69491 0.0
H377 H 0.98618 0.04435 0.81171 0.0
H378 H 0.95932 0.07462 0.8523 0.0
H379 H 0.88319 0.02584 0.8039 0.0
H380 H 0.90959 0.9956 0.76266 0.0
H381 H 0.0418 0.85641 0.77777 0.0
H382 H 0.03363 0.91472 0.76207 0.0
H383 H 0.94402 0.89704 0.73884 0.0
H384 H 0.95207 0.83823 0.75494 0.0
H385 H 0.95613 0.95244 0.78068 0.0
H386 H 0.9786 0.91608 0.66657 0.0
H387 H 1.00613 0.88446 0.62783 0.0
H388 H 0.08105 0.93745 0.67271 0.0
H389 H 0.05398 0.96895 0.71221 0.0
C390 C 0.95952 0.10881 0.7317 0.0
C391 C 0.98584 0.12406 0.74189 0.0
C392 C 0.95773 0.07409 0.7278 0.0
C393 C 0.98226 0.05419 0.73402 0.0
C394 C 1.00858 0.06988 0.74225 0.0
C395 C 0.01031 0.10433 0.74646 0.0
C396 C 0.98085 0.01707 0.73509 0.0
C397 C 0.99664 0.99838 0.71365 0.0
C398 C 0.96561 1.00004 0.75898 0.0
C399 C 0.94977 0.01806 0.78382 0.0
C400 C 0.96367 0.04029 0.80954 0.0
C401 C 0.94855 0.0574 0.83268 0.0
C402 C 0.91955 0.05224 0.83059 0.0
C403 C 0.90564 0.02987 0.80542 0.0
C404 C 0.92067 1.01274 0.78216 0.0
C405 C 0.02032 0.86471 0.76897 0.0
C406 C 0.99761 0.84247 0.76762 0.0
C407 C 0.01568 0.89818 0.7598 0.0
C408 C 0.98821 0.91043 0.74885 0.0
C409 C 0.96543 0.88826 0.74707 0.0
C410 C 0.97008 0.85458 0.75613 0.0
C411 C 0.98361 0.94664 0.74091 0.0
C412 C 0.96691 0.96514 0.76125 0.0
C413 C 0.99797 0.9635 0.71605 0.0
C414 C 0.01426 0.94501 0.69208 0.0
C415 C 1.00096 0.92096 0.66814 0.0
C416 C 0.01648 0.90303 0.6461 0.0
C417 C 0.04532 0.909 0.64772 0.0
C418 C 0.0587 0.93288 0.67144 0.0
C419 C 0.04327 0.95081 0.69361 0.0
H420 H 0.05734 0.89507 0.6307 0.0
H421 H 0.90787 0.06551 0.84854 0.0
H422 H 0.55637 0.83458 0.28456 0.0
H423 H 0.56184 0.89386 0.29915 0.0
H424 H 0.47676 0.912 0.24581 0.0
H425 H 0.47125 0.85331 0.23098 0.0
H426 H 0.51217 0.95247 0.22069 0.0
H427 H 0.49604 0.91691 0.33762 0.0
H428 H 0.50427 0.88519 0.39466 0.0
H429 H 0.58622 0.92929 0.42187 0.0
H430 H 0.5788 0.96068 0.36452 0.0
H431 H 0.48281 0.11461 0.26331 0.0
H432 H 0.48402 0.05432 0.27016 0.0
H433 H 0.57457 0.05729 0.29909 0.0
H434 H 0.57334 0.1184 0.29239 0.0
H435 H 0.54156 1.00673 0.33945 0.0
H436 H 0.55688 0.04049 0.22006 0.0
H437 H 0.54622 0.07393 0.16452 0.0
H438 H 0.46236 0.03375 0.1443 0.0
H439 H 0.47249 1.00035 0.20023 0.0
C440 C 0.5387 0.85114 0.2764 0.0
C441 C 0.51345 0.83912 0.25624 0.0
C442 C 0.54183 0.88506 0.2849 0.0
C443 C 0.51974 0.90759 0.27354 0.0
C444 C 0.4942 0.89529 0.25475 0.0
C445 C 0.49107 0.86157 0.24628 0.0
C446 C 0.52369 0.94426 0.27804 0.0
C447 C 0.51843 0.96412 0.24681 0.0
C448 C 0.53251 0.9598 0.31197 0.0
C449 C 0.53707 0.94069 0.34636 0.0
C450 C 0.51599 0.91951 0.35548 0.0
C451 C 0.52047 0.90166 0.38796 0.0
C452 C 0.54582 0.90507 0.41178 0.0
C453 C 0.56665 0.92653 0.4033 0.0
C454 C 0.56234 0.94432 0.37078 0.0
C455 C 0.50294 0.1025 0.27192 0.0
C456 C 0.52797 0.12105 0.27741 0.0
C457 C 0.5036 0.06806 0.2759 0.0
C458 C 0.52936 0.05123 0.28503 0.0
C459 C 0.55444 0.06981 0.29225 0.0
C460 C 0.55376 0.10459 0.28833 0.0
C461 C 0.52977 0.01435 0.2822 0.0
C462 C 0.53571 0.99467 0.3135 0.0
C463 C 0.52136 0.99872 0.24846 0.0
C464 C 0.51538 0.01814 0.21442 0.0
C465 C 0.53611 0.03895 0.20388 0.0
C466 C 0.53015 0.0579 0.17229 0.0
C467 C 0.50357 0.05606 0.15085 0.0
C468 C 0.48293 0.03517 0.16093 0.0
C469 C 0.48878 0.01619 0.19256 0.0
H470 H 0.49895 0.07074 0.12638 0.0
H471 H 0.54935 0.89111 0.43681 0.0
H472 H 0.4718 0.67385 0.74872 0.0
H473 H 0.48035 0.61567 0.76559 0.0
H474 H 0.56968 0.63469 0.79005 0.0
H475 H 0.56126 0.69327 0.77369 0.0
H476 H 0.55811 0.58189 0.74484 0.0
H477 H 0.5361 0.6142 0.85779 0.0
H478 H 0.51257 0.63575 0.90683 0.0
H479 H 0.4405 0.57453 0.87121 0.0
H480 H 0.46392 0.55178 0.82254 0.0
H481 H 0.57564 0.40768 0.78753 0.0
H482 H 0.57888 0.46838 0.79657 0.0
H483 H 0.48817 0.47585 0.7717 0.0
H484 H 0.48507 0.41592 0.76263 0.0
H485 H 0.50864 0.51616 0.8277 0.0
H486 H 0.52962 0.49217 0.70709 0.0
H487 H 0.55688 0.46563 0.66437 0.0
H488 H 0.63271 0.5116 0.71808 0.0
H489 H 0.60583 0.53836 0.76122 0.0
C490 C 0.49327 0.66586 0.75811 0.0
C491 C 0.51584 0.68839 0.7597 0.0
C492 C 0.49811 0.63251 0.768 0.0
C493 C 0.52566 0.62067 0.77932 0.0
C494 C 0.54822 0.64319 0.78156 0.0
C495 C 0.54336 0.67673 0.77218 0.0
C496 C 0.53086 0.58433 0.78531 0.0
C497 C 0.54771 0.56769 0.76355 0.0
C498 C 0.51711 0.56551 0.80936 0.0
C499 C 0.50173 0.58144 0.83624 0.0
C500 C 0.51508 0.60562 0.86004 0.0
C501 C 0.50191 0.61772 0.88812 0.0
C502 C 0.47502 0.60661 0.89206 0.0
C503 C 0.46132 0.58315 0.8681 0.0
C504 C 0.47464 0.57042 0.84045 0.0
C505 C 0.55651 0.42243 0.78448 0.0
C506 C 0.5301 0.40728 0.77463 0.0
C507 C 0.55832 0.45702 0.78953 0.0
C508 C 0.53374 0.47684 0.78462 0.0
C509 C 0.50742 0.46128 0.77581 0.0
C510 C 0.50566 0.42702 0.77052 0.0
C511 C 0.53492 0.51389 0.78629 0.0
C512 C 0.51922 0.5306 0.80935 0.0
C513 C 0.5497 0.53283 0.76351 0.0
C514 C 0.56581 0.51693 0.73756 0.0
C515 C 0.55214 0.49643 0.7099 0.0
C516 C 0.56751 0.48138 0.68561 0.0
C517 C 0.59654 0.48677 0.68862 0.0
C518 C 0.61023 0.50738 0.71583 0.0
C519 C 0.59494 0.52254 0.74017 0.0
H520 H 0.60841 0.47506 0.6698 0.0
H521 H 0.4648 0.61621 0.91367 0.0
H522 H 0.93815 0.40583 0.25551 0.0
H523 H 0.93504 0.46653 0.25257 0.0
H524 H 0.01265 0.4694 0.20795 0.0
H525 H 0.01439 0.40898 0.20859 0.0
H526 H 0.96603 0.50605 0.28991 0.0
H527 H 0.02757 0.53962 0.17553 0.0
H528 H 0.03345 0.51998 0.11493 0.0
H529 H 0.94903 0.48157 0.09845 0.0
H530 H 0.94284 0.50039 0.15945 0.0
H531 H 0.03118 0.66064 0.32305 0.0
H532 H 0.02198 0.60316 0.30494 0.0
H533 H 0.95779 0.63528 0.21786 0.0
H534 H 0.96698 0.69341 0.23587 0.0
H535 H 0.99073 0.5837 0.19687 0.0
H536 H 0.93786 0.605 0.29244 0.0
H537 H 0.93038 0.62458 0.35255 0.0
H538 H 0.99146 0.55418 0.40343 0.0
H539 H 0.99961 0.53451 0.3436 0.0
C540 C 0.95362 0.41951 0.24325 0.0
C541 C 0.97598 0.40268 0.23118 0.0
C542 C 0.95215 0.4543 0.24208 0.0
C543 C 0.97352 0.47315 0.22986 0.0
C544 C 0.99528 0.45602 0.2164 0.0
C545 C 0.99627 0.42122 0.21664 0.0
C546 C 0.97485 0.51014 0.23533 0.0
C547 C 0.97113 0.52287 0.26924 0.0
C548 C 0.98145 0.5327 0.2087 0.0
C549 C 0.98472 0.52155 0.17193 0.0
C550 C 0.0102 0.52718 0.15887 0.0
C551 C 0.01361 0.51612 0.1245 0.0
C552 C 0.99149 0.49998 0.10263 0.0
C553 C 0.96608 0.49425 0.11537 0.0
C554 C 0.96266 0.50494 0.14993 0.0
C555 C 0.01518 0.6557 0.29987 0.0
C556 C 0.9997 0.68186 0.28111 0.0
C557 C 0.00989 0.62265 0.28959 0.0
C558 C 0.98892 0.61467 0.26029 0.0
C559 C 0.97402 0.64071 0.24062 0.0
C560 C 0.97925 0.67397 0.25102 0.0
C561 C 0.98217 0.57908 0.25136 0.0
C562 C 0.9851 0.56673 0.21709 0.0
C563 C 0.97444 0.55683 0.27745 0.0
C564 C 0.96949 0.56845 0.31352 0.0
C565 C 0.94984 0.59385 0.31645 0.0
C566 C 0.94546 0.60495 0.35047 0.0
C567 C 0.96048 0.59068 0.38179 0.0
C568 C 0.97986 0.56523 0.37915 0.0
C569 C 0.98434 0.55407 0.34518 0.0
H570 H 0.95706 0.5993 0.40811 0.0
H571 H 0.99402 0.49201 0.07579 0.0
H572 H 0.45711 0.33794 0.26234 0.0
H573 H 0.45001 0.39719 0.2495 0.0
H574 H 0.53946 0.40899 0.25037 0.0
H575 H 0.54674 0.35009 0.26446 0.0
H576 H 0.52313 0.45588 0.28752 0.0
H577 H 0.48863 0.41394 0.16986 0.0
H578 H 0.46004 0.37844 0.12462 0.0
H579 H 0.38409 0.41958 0.15351 0.0
H580 H 0.41227 0.45532 0.199 0.0
H581 H 0.52259 0.61668 0.21896 0.0
H582 H 0.5212 0.55634 0.21373 0.0
H583 H 0.44055 0.55512 0.25053 0.0
H584 H 0.44183 0.61615 0.25538 0.0
H585 H 0.45054 0.50361 0.19189 0.0
H586 H 0.48937 0.54554 0.31172 0.0
H587 H 0.52099 0.5826 0.35181 0.0
H588 H 0.59287 0.54049 0.31319 0.0
H589 H 0.56158 0.5036 0.27236 0.0
C590 C 0.47524 0.35308 0.25939 0.0
C591 C 0.50253 0.33921 0.26457 0.0
C592 C 0.47114 0.38704 0.25185 0.0
C593 C 0.49415 0.40783 0.24864 0.0
C594 C 0.52131 0.39372 0.25285 0.0
C595 C 0.52545 0.35992 0.26081 0.0
C596 C 0.49029 0.44449 0.24294 0.0
C597 C 0.50742 0.46608 0.26628 0.0
C598 C 0.46961 0.45828 0.21558 0.0
C599 C 0.45255 0.43707 0.18808 0.0
C600 C 0.46583 0.41524 0.16675 0.0
C601 C 0.44971 0.39515 0.14098 0.0
C602 C 0.42027 0.39666 0.13629 0.0
C603 C 0.4069 0.41838 0.15724 0.0
C604 C 0.42293 0.43867 0.18291 0.0
C605 C 0.50393 0.60378 0.22425 0.0
C606 C 0.48188 0.62122 0.23639 0.0
C607 C 0.50326 0.56918 0.22155 0.0
C608 C 0.48074 0.55113 0.23161 0.0
C609 C 0.45795 0.56855 0.24212 0.0
C610 C 0.45868 0.60335 0.24491 0.0
C611 C 0.48336 0.51446 0.23648 0.0
C612 C 0.46608 0.49307 0.21309 0.0
C613 C 0.50426 0.50068 0.26337 0.0
C614 C 0.52313 0.52202 0.28881 0.0
C615 C 0.5119 0.54432 0.31165 0.0
C616 C 0.52976 0.56529 0.3345 0.0
C617 C 0.55892 0.56394 0.335 0.0
C618 C 0.57028 0.54152 0.31275 0.0
C619 C 0.5525 0.52056 0.28977 0.0
H620 H 0.57271 0.58023 0.35267 0.0
H621 H 0.40782 0.38109 0.11634 0.0
H622 H 0.01501 0.33824 0.78738 0.0
H623 H 0.01607 0.39692 0.80531 0.0
H624 H 0.06824 0.4195 0.7247 0.0
H625 H 0.06743 0.36137 0.7069 0.0
H626 H 0.08643 0.45252 0.78706 0.0
H627 H 0.99691 0.43361 0.70883 0.0
H628 H 0.95088 0.40613 0.6915 0.0
H629 H 0.92558 0.43688 0.79135 0.0
H630 H 0.97163 0.46422 0.80944 0.0
H631 H 0.06472 0.62265 0.74336 0.0
H632 H 0.06944 0.56214 0.74717 0.0
H633 H 0.01071 0.55934 0.82328 0.0
H634 H 1.00515 0.61975 0.81803 0.0
H635 H 0.99624 0.51506 0.77355 0.0
H636 H 0.08239 0.53831 0.85012 0.0
H637 H 0.12784 0.56654 0.8694 0.0
H638 H 0.1596 0.52725 0.77715 0.0
H639 H 0.1141 0.49932 0.75707 0.0
C640 C 0.02688 0.35568 0.7737 0.0
C641 C 0.04093 0.34506 0.74547 0.0
C642 C 0.02741 0.38926 0.78389 0.0
C643 C 0.04203 0.41281 0.76612 0.0
C644 C 0.05682 0.40194 0.73886 0.0
C645 C 0.0562 0.36858 0.72858 0.0
C646 C 0.04117 0.44901 0.77446 0.0
C647 C 0.06671 0.46621 0.78395 0.0
C648 C 0.01547 0.46689 0.77158 0.0
C649 C 0.98779 0.45062 0.76064 0.0
C650 C 0.98159 0.4343 0.72718 0.0
C651 C 0.9555 0.41879 0.71721 0.0
C652 C 0.93535 0.41968 0.74035 0.0
C653 C 0.94123 0.43616 0.77348 0.0
C654 C 0.96731 0.45168 0.78359 0.0
C655 C 0.05351 0.60913 0.76169 0.0
C656 C 0.03559 0.62598 0.78173 0.0
C657 C 0.0562 0.57451 0.76392 0.0
C658 C 0.04084 0.55594 0.78606 0.0
C659 C 0.02307 0.57294 0.80633 0.0
C660 C 0.0203 0.60755 0.80391 0.0
C661 C 0.04156 0.51881 0.7855 0.0
C662 C 0.01599 0.5014 0.77733 0.0
C663 C 0.06722 0.5007 0.78996 0.0
C664 C 0.09475 0.51708 0.80195 0.0
C665 C 0.09899 0.53601 0.83382 0.0
C666 C 0.12477 0.55189 0.84491 0.0
C667 C 0.14658 0.54877 0.82445 0.0
C668 C 0.14267 0.52968 0.79294 0.0
C669 C 0.11689 0.5138 0.78172 0.0
H670 H 0.16653 0.56108 0.83306 0.0
H671 H 0.91516 0.40766 0.73258 0.0
H672 H 0.96613 0.40054 0.07816 0.0
H673 H 0.97753 0.4352 0.02892 0.0
H674 H 0.06605 0.42856 0.07308 0.0
H675 H 0.05478 0.39406 0.12256 0.0
H676 H 0.05302 0.4894 0.06115 0.0
H677 H 0.04128 0.39397 0.98848 0.0
H678 H 0.02103 0.34295 0.95905 0.0
H679 H 0.94716 0.39693 0.91132 0.0
H680 H 0.96714 0.44846 0.94019 0.0
H681 H 0.0663 0.58046 0.88705 0.0
H682 H 0.06781 0.52841 0.9217 0.0
H683 H 0.99821 0.56251 0.97199 0.0
H684 H 0.99563 0.61354 0.93628 0.0
H685 H 0.01219 0.48181 0.93115 0.0
H686 H 0.0394 0.55393 0.06518 0.0
H687 H 0.07066 0.59838 0.09321 0.0
H688 H 0.12547 0.5837 0.01439 0.0
H689 H 0.09539 0.53786 0.98732 0.0
C690 C 0.98804 0.4063 0.0773 0.0
C691 C 1.00953 0.39494 0.10456 0.0
C692 C 0.99458 0.42571 0.04878 0.0
C693 C 0.0227 0.43426 0.04703 0.0
C694 C 0.04421 0.42227 0.0738 0.0
C695 C 0.03772 0.40269 0.10219 0.0
C696 C 0.02916 0.45893 0.01998 0.0
C697 C 0.04435 0.4874 0.03267 0.0
C698 C 0.01853 0.45616 0.9826 0.0
C699 C 1.00564 0.42503 0.96671 0.0
C700 C 0.02059 0.39491 0.97201 0.0
C701 C 1.00923 0.36593 0.95523 0.0
C702 C 0.9828 0.36668 0.93334 0.0
C703 C 0.96765 0.39641 0.92824 0.0
C704 C 0.97904 0.42555 0.94467 0.0
C705 C 0.05109 0.57659 0.90511 0.0
C706 C 0.031 0.6012 0.9092 0.0
C707 C 0.05202 0.54695 0.92487 0.0
C708 C 0.03329 0.54196 0.94955 0.0
C709 C 0.01291 0.56611 0.95314 0.0
C710 C 0.01156 0.59531 0.93286 0.0
C711 C 0.03519 0.5122 0.97284 0.0
C712 C 0.02122 0.48319 0.95956 0.0
C713 C 0.04786 0.51381 0.00943 0.0
C714 C 0.06503 0.54264 0.02414 0.0
C715 C 0.05825 0.56001 0.05409 0.0
C716 C 0.07586 0.58529 0.06993 0.0
C717 C 0.10004 0.59388 0.05557 0.0
C718 C 0.10669 0.5771 0.02542 0.0
C719 C 0.0894 0.55139 0.00989 0.0
H720 H 0.11357 0.6136 0.06776 0.0
H721 H 0.97404 0.34424 0.92031 0.0
H722 H 0.45377 0.60536 0.094 0.0
H723 H 0.46003 0.56869 0.04407 0.0
H724 H 0.54978 0.56558 0.08192 0.0
H725 H 0.54374 0.60322 0.13121 0.0
H726 H 0.54092 0.5754 0.01246 0.0
H727 H 0.50628 0.49946 0.09214 0.0
H728 H 0.47399 0.47943 0.13231 0.0
H729 H 0.40612 0.4763 0.04263 0.0
H730 H 0.43787 0.4974 1.00203 0.0
H731 H 0.56946 0.4329 0.90955 0.0
H732 H 0.56457 0.47459 0.95534 0.0
H733 H 0.4765 0.48662 0.9109 0.0
H734 H 0.48106 0.44421 0.86556 0.0
H735 H 0.48477 0.47315 0.9828 0.0
H736 H 0.52785 0.54254 0.90197 0.0
H737 H 0.56545 0.55781 0.86711 0.0
H738 H 0.62432 0.56727 0.96539 0.0
H739 H 0.58758 0.55064 1.00085 0.0
C740 C 0.47477 0.59643 0.09201 0.0
C741 C 0.49828 0.60709 0.11646 0.0
C742 C 0.47834 0.57551 0.06343 0.0
C743 C 0.50537 0.56429 0.05932 0.0
C744 C 0.52876 0.57412 0.08443 0.0
C745 C 0.52525 0.59541 0.1127 0.0
C746 C 0.50934 0.54299 0.02832 0.0
C747 C 0.52891 0.5528 1.00616 0.0
C748 C 0.49345 0.51372 0.02 0.0
C749 C 0.47439 0.5004 0.04413 0.0
C750 C 0.48442 0.49475 0.08102 0.0
C751 C 0.4662 0.48317 0.10387 0.0
C752 C 0.43799 0.47663 0.09005 0.0
C753 C 0.42797 0.48149 0.0533 0.0
C754 C 0.44605 0.49334 0.03037 0.0
C755 C 0.5492 0.44493 0.90905 0.0
C756 C 0.52553 0.43509 0.88433 0.0
C757 C 0.54645 0.46874 0.93522 0.0
C758 C 0.52016 0.48356 0.93653 0.0
C759 C 0.49691 0.47523 0.91045 0.0
C760 C 0.49957 0.45113 0.88455 0.0
C761 C 0.51628 0.50559 0.96683 0.0
C762 C 0.4967 0.49584 0.98894 0.0
C763 C 0.53292 0.53426 0.97568 0.0
C764 C 0.55484 0.54512 0.95415 0.0
C765 C 0.54884 0.5476 0.9162 0.0
C766 C 0.57003 0.55644 0.8963 0.0
C767 C 0.59716 0.56362 0.91401 0.0
C768 C 0.60326 0.56177 0.95168 0.0
C769 C 0.58227 0.55252 0.97169 0.0
H770 H 0.61348 0.57058 0.89853 0.0
H771 H 0.42385 0.4679 0.10779 0.0
H772 H 0.48546 0.11694 0.41673 0.0
H773 H 0.48432 0.06957 0.45723 0.0
H774 H 0.55162 0.02274 0.41195 0.0
H775 H 0.55355 0.07071 0.37187 0.0
H776 H 0.50143 0.97964 0.42897 0.0
H777 H 0.57388 0.05793 0.47846 0.0
H778 H 0.59206 0.11365 0.4962 0.0
H779 H 0.53243 0.12245 0.56989 0.0
H780 H 0.51325 0.06722 0.55171 0.0
H781 H 0.5486 0.90694 0.62231 0.0
H782 H 0.55642 0.93991 0.56974 0.0
H783 H 0.4666 0.95382 0.54004 0.0
H784 H 0.45857 0.92141 0.59284 0.0
H785 H 0.53617 1.00768 0.55736 0.0
H786 H 0.45644 0.94931 0.44221 0.0
H787 H 0.43514 0.89473 0.42567 0.0
H788 H 0.50734 0.84601 0.48571 0.0
H789 H 0.52927 0.90023 0.50247 0.0
C790 C 0.49972 0.09636 0.41489 0.0
C791 C 0.51984 0.09766 0.39147 0.0
C792 C 0.49899 0.06933 0.438 0.0
C793 C 0.518 0.04296 0.43758 0.0
C794 C 0.53682 0.04301 0.41253 0.0
C795 C 0.53796 0.07042 0.38985 0.0
C796 C 0.51998 0.0173 0.46596 0.0
C797 C 0.50914 0.98556 0.45705 0.0
C798 C 0.53034 0.02524 0.50241 0.0
C799 C 0.54188 0.05855 0.51333 0.0
C800 C 0.56435 0.07192 0.49804 0.0
C801 C 0.57488 0.10341 0.50824 0.0
C802 C 0.56336 0.12161 0.53409 0.0
C803 C 0.54134 0.10832 0.54987 0.0
C804 C 0.53056 0.07697 0.53953 0.0
C805 C 0.53053 0.91714 0.60464 0.0
C806 C 0.503 0.91193 0.6118 0.0
C807 C 0.53504 0.93567 0.57456 0.0
C808 C 0.51204 0.94869 0.55088 0.0
C809 C 0.48453 0.94346 0.55783 0.0
C810 C 0.48003 0.92538 0.58822 0.0
C811 C 0.51679 0.97031 0.52067 0.0
C812 C 0.52881 1.00146 0.52927 0.0
C813 C 0.50717 0.96187 0.48415 0.0
C814 C 0.4944 0.92898 0.47389 0.0
C815 C 0.46785 0.92697 0.45183 0.0
C816 C 0.45564 0.89607 0.44248 0.0
C817 C 0.46984 0.86693 0.45483 0.0
C818 C 0.49631 0.86863 0.47648 0.0
C819 C 0.50858 0.89945 0.48603 0.0
H820 H 0.46039 0.84303 0.44756 0.0
H821 H 0.57153 0.14599 0.54194 0.0
H822 H 0.97838 0.91517 0.40638 0.0
H823 H 0.97488 0.96025 0.44879 0.0
H824 H 0.0603 0.98959 0.44209 0.0
H825 H 0.06406 0.94445 0.39947 0.0
H826 H 0.05045 0.9819 0.51235 0.0
H827 H 1.00849 0.03484 0.40392 0.0
H828 H 0.97604 0.04082 0.34633 0.0
H829 H 0.90515 0.04049 0.40325 0.0
H830 H 0.93706 0.03319 0.46115 0.0
H831 H 0.0422 0.1296 0.61539 0.0
H832 H 0.04808 0.09154 0.56649 0.0
H833 H 0.96444 0.05295 0.56755 0.0
H834 H 0.95822 0.09112 0.61641 0.0
H835 H 0.9758 0.06848 0.49786 0.0
H836 H 0.02008 1.01381 0.60695 0.0
H837 H 0.054 1.0124 0.66352 0.0
H838 H 0.12295 0.01696 0.60341 0.0
H839 H 0.08941 0.02118 0.54644 0.0
C840 C 0.99632 0.93146 0.4135 0.0
C841 C 0.02157 0.92616 0.39979 0.0
C842 C 0.99424 0.95724 0.43767 0.0
C843 C 0.01735 0.97813 0.4485 0.0
C844 C 0.04232 0.97354 0.43411 0.0
C845 C 0.04437 0.94785 0.40972 0.0
C846 C 0.01575 1.00365 0.47629 0.0
C847 C 0.03446 1.00122 0.50901 0.0
C848 C 0.99455 0.02842 0.47185 0.0
C849 C 0.97525 0.0332 0.437 0.0
C850 C 0.98598 0.03572 0.40422 0.0
C851 C 0.96768 0.03936 0.37148 0.0
C852 C 0.93858 0.04115 0.37114 0.0
C853 C 0.92771 0.03914 0.40355 0.0
C854 C 0.94591 0.03516 0.43635 0.0
C855 C 0.02512 0.11281 0.60549 0.0
C856 C 0.99974 0.1133 0.61979 0.0
C857 C 0.0285 0.09122 0.57745 0.0
C858 C 1.00666 0.06958 0.56345 0.0
C859 C 0.98144 0.06968 0.57793 0.0
C860 C 0.97804 0.09126 0.60602 0.0
C861 C 0.01026 0.04643 0.53403 0.0
C862 C 0.99191 0.0493 0.50104 0.0
C863 C 0.03199 0.02227 0.53807 0.0
C864 C 0.05215 0.01829 0.57232 0.0
C865 C 0.04245 0.01495 0.6057 0.0
C866 C 0.06163 1.01365 0.6379 0.0
C867 C 0.09061 0.01422 0.63708 0.0
C868 C 0.10048 0.01648 0.60402 0.0
C869 C 0.08138 0.01864 0.57176 0.0
H870 H 0.1054 1.01298 0.66207 0.0
H871 H 0.92445 0.04407 0.34577 0.0
H872 H 0.82358 0.34621 0.14886 0.0
H873 H 0.78407 0.34713 0.09957 0.0
H874 H 0.84074 0.33117 0.0228 0.0
H875 H 0.8808 0.32941 0.07212 0.0
H876 H 0.79798 0.37984 1.00038 0.0
H877 H 0.805 0.26784 0.04406 0.0
H878 H 0.80895 0.22358 0.09018 0.0
H879 H 0.72994 0.2538 0.12 0.0
H880 H 0.72572 0.2986 0.0744 0.0
H881 H 0.69251 0.33094 0.85462 0.0
H882 H 0.73373 0.33519 0.90155 0.0
H883 H 0.67969 0.33913 0.9831 0.0
H884 H 0.63817 0.33395 0.9363 0.0
H885 H 0.72214 0.29661 1.00237 0.0
H886 H 0.71472 0.40852 0.9594 0.0
H887 H 0.71059 0.45357 0.91418 0.0
H888 H 0.78971 0.42464 0.88375 0.0
H889 H 0.79413 0.37908 0.92846 0.0
C890 C 0.82795 0.3429 0.12159 0.0
C891 C 0.85575 0.33765 0.11497 0.0
C892 C 0.80515 0.34348 0.09334 0.0
C893 C 0.80934 0.33887 0.0575 0.0
C894 C 0.83702 0.33479 0.05031 0.0
C895 C 0.86 0.33396 0.07873 0.0
C896 C 0.78453 0.33735 0.02803 0.0
C897 C 0.7816 0.36133 1.00044 0.0
C898 C 0.76276 0.31375 0.02864 0.0
C899 C 0.76518 0.28678 0.05604 0.0
C900 C 0.78858 0.26524 0.06066 0.0
C901 C 0.79085 0.24002 0.08667 0.0
C902 C 0.76975 0.23593 0.10807 0.0
C903 C 0.74629 0.25702 0.10344 0.0
C904 C 0.74394 0.28232 0.07749 0.0
C905 C 0.68923 0.33289 0.8825 0.0
C906 C 0.66177 0.33238 0.89138 0.0
C907 C 0.71294 0.33556 0.90937 0.0
C908 C 0.70994 0.33791 0.94595 0.0
C909 C 0.6826 0.33756 0.95505 0.0
C910 C 0.65878 0.33494 0.92811 0.0
C911 C 0.73537 0.33926 0.97466 0.0
C912 C 0.73847 0.31516 1.00217 0.0
C913 C 0.75721 0.36283 0.97399 0.0
C914 C 0.75461 0.39017 0.94704 0.0
C915 C 0.73112 0.41157 0.94285 0.0
C916 C 0.72875 0.43724 0.91735 0.0
C917 C 0.74983 0.44191 0.89604 0.0
C918 C 0.77337 0.42096 0.90024 0.0
C919 C 0.77583 0.39523 0.92568 0.0
H920 H 0.74796 0.4618 0.87632 0.0
H921 H 0.77153 0.21638 0.12819 0.0
H922 H 0.32658 0.69934 0.15425 0.0
H923 H 0.28603 0.69397 0.10657 0.0
H924 H 0.34157 0.68649 0.02702 0.0
H925 H 0.38246 0.69287 0.07455 0.0
H926 H 0.29969 0.72906 1.00522 0.0
H927 H 0.3051 0.61841 0.05204 0.0
H928 H 0.30813 0.57482 0.09884 0.0
H929 H 0.22888 0.60672 0.1266 0.0
H930 H 0.22556 0.65083 0.0803 0.0
H931 H 0.19297 0.68713 0.86044 0.0
H932 H 0.23423 0.68369 0.90749 0.0
H933 H 0.18102 0.6946 0.98931 0.0
H934 H 0.13942 0.69817 0.94234 0.0
H935 H 0.22223 0.64838 1.00908 0.0
H936 H 0.21789 0.76027 0.96431 0.0
H937 H 0.21476 0.80409 0.91775 0.0
H938 H 0.29216 0.76983 0.88652 0.0
H939 H 0.29555 0.72548 0.93259 0.0
C940 C 0.33034 0.69635 0.12667 0.0
C941 C 0.35803 0.6963 0.11856 0.0
C942 C 0.307 0.69301 0.09937 0.0
C943 C 0.31062 0.68936 0.06313 0.0
C944 C 0.33819 0.68904 0.05481 0.0
C945 C 0.36165 0.69236 0.08219 0.0
C946 C 0.28555 0.68758 0.03394 0.0
C947 C 0.28302 0.71099 1.00576 0.0
C948 C 0.2633 0.66466 0.03505 0.0
C949 C 0.26521 0.63813 0.0629 0.0
C950 C 0.28842 0.61631 0.06832 0.0
C951 C 0.29017 0.59148 0.09473 0.0
C952 C 0.26875 0.58806 0.11574 0.0
C953 C 0.24548 0.60942 0.11033 0.0
C954 C 0.24364 0.63433 0.08398 0.0
C955 C 0.18988 0.6887 0.88842 0.0
C956 C 0.16266 0.69294 0.89733 0.0
C957 C 0.2136 0.68676 0.91535 0.0
C958 C 0.21087 0.68938 0.952 0.0
C959 C 0.1837 0.69252 0.96121 0.0
C960 C 0.15984 0.69439 0.9342 0.0
C961 C 0.23645 0.68982 0.98045 0.0
C962 C 0.23901 0.66627 1.0085 0.0
C963 C 0.25875 0.71263 0.97928 0.0
C964 C 0.25682 0.73935 0.95165 0.0
C965 C 0.23413 0.76192 0.94733 0.0
C966 C 0.23233 0.78688 0.92106 0.0
C967 C 0.25321 0.78969 0.89913 0.0
C968 C 0.27598 0.76759 0.90349 0.0
C969 C 0.27787 0.74256 0.92969 0.0
H970 H 0.25178 0.80904 0.87881 0.0
H971 H 0.27014 0.56881 0.13617 0.0
H972 H 0.37787 0.81829 0.58625 0.0
H973 H 0.33774 0.81813 0.53697 0.0
H974 H 0.28736 0.87013 0.6047 0.0
H975 H 0.32706 0.86944 0.65427 0.0
H976 H 0.25741 0.82327 0.57241 0.0
H977 H 0.31557 0.90791 0.53153 0.0
H978 H 0.35944 0.93108 0.51531 0.0
H979 H 0.35863 0.85756 0.43236 0.0
H980 H 0.31492 0.83369 0.44838 0.0
H981 H 0.14358 0.86641 0.43269 0.0
H982 H 0.18412 0.86864 0.48103 0.0
H983 H 0.2323 0.80843 0.41783 0.0
H984 H 0.19196 0.80565 0.36951 0.0
H985 H 0.26319 0.86005 0.44732 0.0
H986 H 0.20526 0.77546 0.48889 0.0
H987 H 0.1614 0.75241 0.50524 0.0
H988 H 0.16182 0.82689 0.58714 0.0
H989 H 0.20551 0.85067 0.57093 0.0
C990 C 0.3584 0.83018 0.59046 0.0
C991 C 0.35579 0.84414 0.62418 0.0
C992 C 0.33539 0.83007 0.5622 0.0
C993 C 0.30944 0.84449 0.56678 0.0
C994 C 0.30701 0.85876 0.60033 0.0
C995 C 0.32981 0.85844 0.62868 0.0
C996 C 0.28449 0.84383 0.53725 0.0
C997 C 0.25865 0.83183 0.54522 0.0
C998 C 0.28604 0.85422 0.50141 0.0
C999 C 0.3121 0.86883 0.49138 0.0
C1000 C 0.32483 0.89657 0.50996 0.0
C1001 C 0.34966 0.90985 0.50079 0.0
C1002 C 0.36186 0.89575 0.47289 0.0
C1003 C 0.34918 0.86843 0.45399 0.0
C1004 C 0.32435 0.85504 0.46308 0.0
C1005 C 0.16251 0.85308 0.4291 0.0
C1006 C 0.16409 0.83543 0.39701 0.0
C1007 C 0.18585 0.85459 0.45686 0.0
C1008 C 0.21129 0.83851 0.45326 0.0
C1009 C 0.21299 0.82113 0.42128 0.0
C1010 C 0.18975 0.81954 0.39363 0.0
C1011 C 0.23621 0.83973 0.48265 0.0
C1012 C 0.262 0.85171 0.4746 0.0
C1013 C 0.23463 0.82947 0.51845 0.0
C1014 C 0.20849 0.81504 0.52844 0.0
C1015 C 0.19589 0.78707 0.5102 0.0
C1016 C 0.17108 0.77385 0.51948 0.0
C1017 C 0.15878 0.78823 0.54714 0.0
C1018 C 0.17134 0.8158 0.56568 0.0
C1019 C 0.19614 0.82915 0.55648 0.0
H1020 H 0.13957 0.77797 0.55427 0.0
H1021 H 0.38111 0.90602 0.46586 0.0
H1022 H 0.82352 0.16461 0.65531 0.0
H1023 H 0.78397 0.16397 0.60554 0.0
H1024 H 0.83615 0.20934 0.53541 0.0
H1025 H 0.87597 0.21032 0.58532 0.0
H1026 H 0.7839 0.24012 0.53177 0.0
H1027 H 0.8192 0.12936 0.52463 0.0
H1028 H 0.83514 0.07413 0.54805 0.0
H1029 H 0.75374 0.05568 0.57776 0.0
H1030 H 0.73741 0.11103 0.55497 0.0
H1031 H 0.69127 0.21954 0.36711 0.0
H1032 H 0.73089 0.21831 0.4163 0.0
H1033 H 0.68084 0.16407 0.48256 0.0
H1034 H 0.64117 0.16392 0.43285 0.0
H1035 H 0.73206 0.13772 0.48865 0.0
H1036 H 0.69643 0.24769 0.49689 0.0
H1037 H 0.67995 0.30321 0.47503 0.0
H1038 H 0.76101 0.32373 0.44531 0.0
H1039 H 0.77787 0.26812 0.46654 0.0
C1040 C 0.82673 0.17427 0.62925 0.0
C1041 C 0.85308 0.18726 0.62436 0.0
C1042 C 0.80407 0.17375 0.60074 0.0
C1043 C 0.80709 0.18637 0.56661 0.0
C1044 C 0.83335 0.19932 0.56148 0.0
C1045 C 0.8562 0.19956 0.58998 0.0
C1046 C 0.78249 0.18697 0.5368 0.0
C1047 C 0.77283 0.21768 0.52191 0.0
C1048 C 0.76744 0.15782 0.52478 0.0
C1049 C 0.77717 0.12448 0.5384 0.0
C1050 C 0.80476 0.11364 0.53643 0.0
C1051 C 0.81386 0.08229 0.54954 0.0
C1052 C 0.79549 0.06144 0.56447 0.0
C1053 C 0.76796 0.07187 0.56623 0.0
C1054 C 0.75876 0.10322 0.55319 0.0
C1055 C 0.68845 0.20732 0.39208 0.0
C1056 C 0.6626 0.19217 0.39575 0.0
C1057 C 0.71123 0.20689 0.42042 0.0
C1058 C 0.70885 0.19158 0.45349 0.0
C1059 C 0.68319 0.17627 0.4574 0.0
C1060 C 0.6603 0.17657 0.42892 0.0
C1061 C 0.73344 0.19092 0.48345 0.0
C1062 C 0.74309 0.1602 0.49844 0.0
C1063 C 0.74838 0.22012 0.49577 0.0
C1064 C 0.73832 0.2536 0.483 0.0
C1065 C 0.71067 0.26393 0.48543 0.0
C1066 C 0.70128 0.29544 0.4732 0.0
C1067 C 0.7194 0.31695 0.45871 0.0
C1068 C 0.74699 0.30702 0.4565 0.0
C1069 C 0.75648 0.27552 0.46866 0.0
H1070 H 0.71209 0.34134 0.44926 0.0
H1071 H 0.80257 0.03717 0.5746 0.0
H1072 H 0.35861 0.18516 0.23747 0.0
H1073 H 0.30985 0.20422 0.23206 0.0
H1074 H 0.33702 0.28902 0.29852 0.0
H1075 H 0.38609 0.26983 0.3044 0.0
H1076 H 0.29334 0.25527 0.32177 0.0
H1077 H 0.31355 0.29938 0.20973 0.0
H1078 H 0.33035 0.29765 0.15086 0.0
H1079 H 0.26799 0.22417 0.1131 0.0
H1080 H 0.25106 0.2251 0.17196 0.0
H1081 H 0.16364 0.34167 0.29652 0.0
H1082 H 0.21217 0.32314 0.2993 0.0
H1083 H 0.18424 0.24235 0.22719 0.0
H1084 H 0.13537 0.26145 0.22322 0.0
H1085 H 0.22832 0.2735 0.20648 0.0
H1086 H 0.20808 0.22859 0.31758 0.0
H1087 H 0.19123 0.22895 0.37646 0.0
H1088 H 0.25352 0.30194 0.4161 0.0
H1089 H 0.27049 0.30237 0.35727 0.0
C1090 C 0.35431 0.20816 0.25053 0.0
C1091 C 0.37629 0.22605 0.27121 0.0
C1092 C 0.3264 0.21908 0.24728 0.0
C1093 C 0.31977 0.24812 0.26473 0.0
C1094 C 0.3417 0.26657 0.28473 0.0
C1095 C 0.36977 0.25576 0.28776 0.0
C1096 C 0.28977 0.25791 0.26379 0.0
C1097 C 0.27922 0.25984 0.2966 0.0
C1098 C 0.27113 0.26263 0.23088 0.0
C1099 C 0.2812 0.26209 0.1954 0.0
C1100 C 0.30356 0.28264 0.18899 0.0
C1101 C 0.31308 0.28185 0.15559 0.0
C1102 C 0.30029 0.26076 0.12829 0.0
C1103 C 0.2779 0.24047 0.13429 0.0
C1104 C 0.26831 0.24115 0.16765 0.0
C1105 C 0.16766 0.31975 0.28142 0.0
C1106 C 0.1454 0.30298 0.25985 0.0
C1107 C 0.19552 0.30906 0.28325 0.0
C1108 C 0.20192 0.28112 0.26378 0.0
C1109 C 0.17979 0.2639 0.24259 0.0
C1110 C 0.15177 0.27464 0.24071 0.0
C1111 C 0.23186 0.27102 0.26451 0.0
C1112 C 0.24241 0.26896 0.23167 0.0
C1113 C 0.2505 0.26597 0.2974 0.0
C1114 C 0.24039 0.26572 0.33288 0.0
C1115 C 0.21804 0.24492 0.33875 0.0
C1116 C 0.2085 0.24494 0.37214 0.0
C1117 C 0.22125 0.26551 0.39997 0.0
C1118 C 0.24364 0.28604 0.3945 0.0
C1119 C 0.25325 0.28613 0.36115 0.0
H1120 H 0.21383 0.2655 0.4258 0.0
H1121 H 0.30769 0.26018 0.10245 0.0
H1122 H 0.35793 0.34406 0.80835 0.0
H1123 H 0.30916 0.32533 0.80098 0.0
H1124 H 0.33009 0.24176 0.73849 0.0
H1125 H 0.3794 0.26065 0.74562 0.0
H1126 H 0.28197 0.27587 0.70576 0.0
H1127 H 0.31647 0.2288 0.82162 0.0
H1128 H 0.34099 0.22829 0.88467 0.0
H1129 H 0.28302 0.30117 0.91323 0.0
H1130 H 0.25838 0.30249 0.8502 0.0
H1131 H 0.1541 0.18908 0.70466 0.0
H1132 H 0.20293 0.20737 0.71231 0.0
H1133 H 0.18293 0.28916 0.77794 0.0
H1134 H 0.13365 0.2705 0.77094 0.0
H1135 H 0.23064 0.2559 0.80888 0.0
H1136 H 0.19587 0.30277 0.69308 0.0
H1137 H 0.17073 0.30246 0.63032 0.0
H1138 H 0.22893 0.22996 0.60157 0.0
H1139 H 0.25415 0.2294 0.66433 0.0
C1140 C 0.3523 0.32149 0.79328 0.0
C1141 C 0.37262 0.3038 0.77767 0.0
C1142 C 0.32437 0.31074 0.78922 0.0
C1143 C 0.31594 0.28206 0.76935 0.0
C1144 C 0.33617 0.26395 0.75403 0.0
C1145 C 0.36438 0.27458 0.7584 0.0
C1146 C 0.28572 0.27206 0.76369 0.0
C1147 C 0.27084 0.27094 0.72827 0.0
C1148 C 0.27098 0.26669 0.79311 0.0
C1149 C 0.28573 0.26597 0.83108 0.0
C1150 C 0.30909 0.24494 0.84126 0.0
C1151 C 0.32299 0.24446 0.87702 0.0
C1152 C 0.31361 0.26475 0.90292 0.0
C1153 C 0.29028 0.2855 0.89313 0.0
C1154 C 0.27632 0.2861 0.8574 0.0
C1155 C 0.15993 0.21114 0.72057 0.0
C1156 C 0.13983 0.22836 0.73708 0.0
C1157 C 0.18791 0.22167 0.72473 0.0
C1158 C 0.19662 0.24981 0.74542 0.0
C1159 C 0.17664 0.26743 0.7617 0.0
C1160 C 0.14841 0.25693 0.75739 0.0
C1161 C 0.22687 0.25973 0.75095 0.0
C1162 C 0.24175 0.26085 0.78636 0.0
C1163 C 0.24159 0.26513 0.7215 0.0
C1164 C 0.22677 0.26583 0.68354 0.0
C1165 C 0.2032 0.28659 0.67345 0.0
C1166 C 0.18894 0.28658 0.63786 0.0
C1167 C 0.19817 0.26614 0.612 0.0
C1168 C 0.22177 0.24575 0.62164 0.0
C1169 C 0.23608 0.24561 0.65722 0.0
H1170 H 0.18707 0.26613 0.58448 0.0
H1171 H 0.32439 0.26434 0.93059 0.0
H1172 H 0.86009 0.68759 0.82553 0.0
H1173 H 0.81069 0.70337 0.81066 0.0
H1174 H 0.83159 0.77448 0.73288 0.0
H1175 H 0.88149 0.7588 0.74767 0.0
H1176 H 0.79401 0.79976 0.77266 0.0
H1177 H 0.80163 0.7001 0.70541 0.0
H1178 H 0.81477 0.64185 0.6966 0.0
H1179 H 0.76069 0.6098 0.77095 0.0
H1180 H 0.74753 0.66792 0.78061 0.0
H1181 H 0.65505 0.82986 0.68998 0.0
H1182 H 0.70383 0.81056 0.69874 0.0
H1183 H 0.68485 0.73867 0.77693 0.0
H1184 H 0.63551 0.75764 0.76773 0.0
H1185 H 0.72152 0.71355 0.73542 0.0
H1186 H 0.71504 0.81277 0.80421 0.0
H1187 H 0.70192 0.87091 0.81376 0.0
H1188 H 0.75407 0.9036 0.73738 0.0
H1189 H 0.76718 0.84559 0.72698 0.0
C1190 C 0.85433 0.70661 0.80519 0.0
C1191 C 0.87495 0.72184 0.7878 0.0
C1192 C 0.82595 0.71553 0.79665 0.0
C1193 C 0.81728 0.73965 0.77016 0.0
C1194 C 0.83779 0.75567 0.75334 0.0
C1195 C 0.86637 0.7468 0.76199 0.0
C1196 C 0.7868 0.74805 0.76036 0.0
C1197 C 0.77822 0.781 0.76392 0.0
C1198 C 0.76605 0.72341 0.74991 0.0
C1199 C 0.77378 0.6884 0.74396 0.0
C1200 C 0.79269 0.68065 0.72008 0.0
C1201 C 0.80012 0.64765 0.7149 0.0
C1202 C 0.78862 0.62215 0.73326 0.0
C1203 C 0.76961 0.62958 0.75677 0.0
C1204 C 0.76213 0.66255 0.76208 0.0
C1205 C 0.66113 0.80961 0.70871 0.0
C1206 C 0.64145 0.79542 0.72834 0.0
C1207 C 0.68908 0.7987 0.71379 0.0
C1208 C 0.69822 0.77374 0.73915 0.0
C1209 C 0.67831 0.75814 0.75737 0.0
C1210 C 0.6501 0.76888 0.752 0.0
C1211 C 0.72877 0.76526 0.7477 0.0
C1212 C 0.73733 0.73231 0.744 0.0
C1213 C 0.74954 0.78987 0.75814 0.0
C1214 C 0.74188 0.82481 0.76458 0.0
C1215 C 0.72356 0.83234 0.78927 0.0
C1216 C 0.71614 0.86527 0.79486 0.0
C1217 C 0.7271 0.89092 0.77612 0.0
C1218 C 0.74557 0.8837 0.75184 0.0
C1219 C 0.75302 0.8508 0.74611 0.0
H1220 H 0.72133 0.9164 0.78048 0.0
H1221 H 0.79441 0.59661 0.72922 0.0
H1222 H 0.63463 0.77236 0.22864 0.0
H1223 H 0.68371 0.79082 0.23452 0.0
H1224 H 0.71126 0.70034 0.29126 0.0
H1225 H 0.66254 0.68239 0.28689 0.0
H1226 H 0.74152 0.74985 0.32094 0.0
H1227 H 0.71218 0.71118 0.19853 0.0
H1228 H 0.68157 0.71093 0.13902 0.0
H1229 H 0.70208 0.81293 0.12256 0.0
H1230 H 0.73257 0.81389 0.1822 0.0
H1231 H 0.88591 0.75204 0.30184 0.0
H1232 H 0.83654 0.7342 0.29433 0.0
H1233 H 0.81064 0.82604 0.2394 0.0
H1234 H 0.85969 0.84354 0.24579 0.0
H1235 H 0.77942 0.77672 0.20851 0.0
H1236 H 0.80866 0.81572 0.33007 0.0
H1237 H 0.83865 0.81701 0.38997 0.0
H1238 H 0.81784 0.71543 0.4083 0.0
H1239 H 0.78801 0.71342 0.34826 0.0
C1240 C 0.65101 0.75675 0.24319 0.0
C1241 C 0.64449 0.72578 0.25723 0.0
C1242 C 0.67917 0.76716 0.2461 0.0
C1243 C 0.7013 0.74667 0.26272 0.0
C1244 C 0.69467 0.71655 0.27815 0.0
C1245 C 0.66669 0.70625 0.27544 0.0
C1246 C 0.73146 0.75561 0.26311 0.0
C1247 C 0.74983 0.75538 0.29628 0.0
C1248 C 0.74233 0.76342 0.23107 0.0
C1249 C 0.72443 0.76269 0.19495 0.0
C1250 C 0.71004 0.73359 0.18228 0.0
C1251 C 0.69273 0.73332 0.14853 0.0
C1252 C 0.68981 0.76192 0.12707 0.0
C1253 C 0.70432 0.79081 0.13924 0.0
C1254 C 0.72165 0.79122 0.17299 0.0
C1255 C 0.86982 0.76804 0.2873 0.0
C1256 C 0.87683 0.79932 0.27453 0.0
C1257 C 0.84152 0.75798 0.2834 0.0
C1258 C 0.81978 0.77906 0.26688 0.0
C1259 C 0.82694 0.80939 0.25238 0.0
C1260 C 0.85507 0.81942 0.25624 0.0
C1261 C 0.7895 0.77066 0.26631 0.0
C1262 C 0.77111 0.7711 0.23314 0.0
C1263 C 0.77857 0.7631 0.29836 0.0
C1264 C 0.79635 0.76432 0.33454 0.0
C1265 C 0.81064 0.79359 0.34678 0.0
C1266 C 0.82759 0.79446 0.38076 0.0
C1267 C 0.83021 0.76629 0.40289 0.0
C1268 C 0.81583 0.73721 0.39111 0.0
C1269 C 0.79888 0.7362 0.35711 0.0
H1270 H 0.84334 0.76701 0.42919 0.0
H1271 H 0.67635 0.76169 0.10098 0.0
H1272 H 0.99018 0.2652 0.79488 0.0
H1273 H 0.99518 0.29192 0.85461 0.0
H1274 H 0.04507 0.20879 0.90134 0.0
H1275 H 0.04089 0.18304 0.84218 0.0
H1276 H 0.97471 0.27265 0.9104 0.0
H1277 H 0.08725 0.22495 0.9764 0.0
H1278 H 0.13472 0.22063 0.95944 0.0
H1279 H 0.11336 0.29609 0.87851 0.0
H1280 H 0.06595 0.30129 0.89535 0.0
H1281 H 0.97278 0.24807 0.09469 0.0
H1282 H 0.97777 0.24312 0.03093 0.0
H1283 H 0.04881 0.31002 0.04808 0.0
H1284 H 0.04521 0.31259 0.1125 0.0
H1285 H 0.06035 0.26986 1.00387 0.0
H1286 H 0.97839 0.33183 1.00693 0.0
H1287 H 0.93206 0.34746 0.02204 0.0
H1288 H 0.89396 0.26391 0.96237 0.0
H1289 H 0.94018 0.24744 0.94721 0.0
C1290 C 1.00333 0.25353 0.81765 0.0
C1291 C 0.01542 0.22219 0.81375 0.0
C1292 C 1.00579 0.26852 0.85196 0.0
C1293 C 0.02053 0.2525 0.88284 0.0
C1294 C 0.03402 0.22218 0.87822 0.0
C1295 C 0.0316 0.20736 0.8442 0.0
C1296 C 0.0197 0.26507 0.92034 0.0
C1297 C 0.99347 0.27227 0.93078 0.0
C1298 C 0.04424 0.26615 0.94695 0.0
C1299 C 0.07293 0.26334 0.93702 0.0
C1300 C 0.09272 0.24079 0.95515 0.0
C1301 C 0.11962 0.23815 0.94551 0.0
C1302 C 0.12703 0.25801 0.91786 0.0
C1303 C 0.10758 0.28064 0.89985 0.0
C1304 C 0.08067 0.28341 0.9094 0.0
C1305 C 0.98968 0.26132 0.08486 0.0
C1306 C 1.00869 0.28053 0.10859 0.0
C1307 C 0.99234 0.25887 0.04824 0.0
C1308 C 0.01325 0.27686 0.03402 0.0
C1309 C 0.03249 0.29578 0.05799 0.0
C1310 C 0.03044 0.29727 0.09492 0.0
C1311 C 0.01511 0.27561 0.99438 0.0
C1312 C 0.04156 0.27061 0.98355 0.0
C1313 C 0.99091 0.27834 0.96722 0.0
C1314 C 0.96289 0.2883 0.97597 0.0
C1315 C 0.96019 0.31668 0.99707 0.0
C1316 C 0.93392 0.3257 1.00567 0.0
C1317 C 0.91008 0.30668 0.99319 0.0
C1318 C 0.91246 0.27864 0.97199 0.0
C1319 C 0.9387 0.26948 0.96332 0.0
H1320 H 0.88976 0.31367 0.99993 0.0
H1321 H 0.14785 0.25591 0.91043 0.0
H1322 H 0.46691 0.18527 0.18461 0.0
H1323 H 0.46077 0.20976 0.12411 0.0
H1324 H 0.52275 0.28431 0.16185 0.0
H1325 H 0.52885 0.25972 0.22271 0.0
H1326 H 0.48134 0.30823 0.10608 0.0
H1327 H 0.54434 0.21598 0.12824 0.0
H1328 H 0.56095 0.15944 0.14583 0.0
H1329 H 0.49645 0.11833 0.06568 0.0
H1330 H 0.47912 0.17466 0.04799 0.0
H1331 H 0.53771 0.33152 0.94164 0.0
H1332 H 0.52944 0.32102 1.00321 0.0
H1333 H 0.46931 0.24493 0.96415 0.0
H1334 H 0.47742 0.25535 0.90203 0.0
H1335 H 0.50729 0.2239 0.02067 0.0
H1336 H 0.44889 0.31964 0.99379 0.0
H1337 H 0.43637 0.3772 0.97538 0.0
H1338 H 0.49561 0.4138 0.06449 0.0
H1339 H 0.50908 0.35644 0.08297 0.0
C1340 C 0.47833 0.20775 0.18038 0.0
C1341 C 0.4982 0.22075 0.20843 0.0
C1342 C 0.47499 0.22158 0.14569 0.0
C1343 C 0.49177 0.24842 0.13814 0.0
C1344 C 0.5096 0.26356 0.16695 0.0
C1345 C 0.51286 0.24974 0.20189 0.0
C1346 C 0.4934 0.25741 0.09981 0.0
C1347 C 0.48725 0.28994 0.08741 0.0
C1348 C 0.50081 0.23345 0.07528 0.0
C1349 C 0.51026 0.19952 0.08705 0.0
C1350 C 0.53343 0.19488 0.11473 0.0
C1351 C 0.54303 0.16288 0.12463 0.0
C1352 C 0.52979 0.13536 0.1068 0.0
C1353 C 0.50669 0.13971 0.0794 0.0
C1354 C 0.49695 0.17165 0.06945 0.0
C1355 C 0.52268 0.31249 0.94595 0.0
C1356 C 0.50839 0.29408 0.91664 0.0
C1357 C 0.51775 0.3068 0.9813 0.0
C1358 C 0.49845 0.28252 0.98844 0.0
C1359 C 0.48417 0.264 0.95934 0.0
C1360 C 0.4889 0.26988 0.9238 0.0
C1361 C 0.49492 0.27468 0.02648 0.0
C1362 C 0.501 0.24225 0.03903 0.0
C1363 C 0.48788 0.29897 0.05106 0.0
C1364 C 0.4803 0.33359 0.03948 0.0
C1365 C 0.4596 0.3399 1.00917 0.0
C1366 C 0.45227 0.37253 0.99877 0.0
C1367 C 0.46528 0.39912 0.01866 0.0
C1368 C 0.48565 0.39316 0.04902 0.0
C1369 C 0.49315 0.36058 0.05944 0.0
H1370 H 0.45951 0.42432 0.0106 0.0
H1371 H 0.5376 0.11068 0.11396 0.0
H1372 H 0.0579 0.73401 0.94613 0.0
H1373 H 0.05144 0.74641 1.00802 0.0
H1374 H 0.96857 0.78585 0.96908 0.0
H1375 H 0.97521 0.77437 0.90668 0.0
H1376 H 0.99734 0.82241 0.02629 0.0
H1377 H 0.97273 0.70329 1.00656 0.0
H1378 H 0.98444 0.64794 0.98494 0.0
H1379 H 0.06533 0.65176 0.05303 0.0
H1380 H 0.05348 0.70613 0.07614 0.0
H1381 H 0.96021 0.83031 0.19671 0.0
H1382 H 0.95571 0.80948 0.13473 0.0
H1383 H 0.03389 0.7555 0.1631 0.0
H1384 H 0.03727 0.77461 0.2256 0.0
H1385 H 1.0042 0.72549 0.10949 0.0
H1386 H 0.03068 0.83886 0.13378 0.0
H1387 H 0.02427 0.89518 0.15681 0.0
H1388 H 0.94875 0.90737 0.07936 0.0
H1389 H 0.95438 0.85077 0.05641 0.0
C1390 C 0.03843 0.74576 0.9506 0.0
C1391 C 0.01698 0.75293 0.92139 0.0
C1392 C 0.03467 0.75259 0.98609 0.0
C1393 C 1.00918 0.76616 0.99333 0.0
C1394 C 0.98832 0.77508 0.96418 0.0
C1395 C 0.99219 0.76859 0.9285 0.0
C1396 C 1.004 0.76969 0.03133 0.0
C1397 C 0.9983 0.80118 0.04432 0.0
C1398 C 1.00605 0.74222 0.05524 0.0
C1399 C 0.01221 0.70854 0.04311 0.0
C1400 C 0.99285 0.69197 0.01718 0.0
C1401 C 0.99949 0.6607 1.00475 0.0
C1402 C 0.02559 0.64607 0.01771 0.0
C1403 C 0.04494 0.6626 0.04339 0.0
C1404 C 0.03818 0.69351 0.05644 0.0
C1405 C 0.97553 0.81249 0.19007 0.0
C1406 C 0.99905 0.80397 0.21573 0.0
C1407 C 0.97325 0.80104 0.15452 0.0
C1408 C 0.99513 0.78213 0.14378 0.0
C1409 C 0.0169 0.77042 0.17049 0.0
C1410 C 0.01872 0.7811 0.20635 0.0
C1411 C 0.99736 0.7783 0.1047 0.0
C1412 C 1.00267 0.74676 0.09145 0.0
C1413 C 0.99564 0.80599 0.08082 0.0
C1414 C 0.99278 0.84047 0.09364 0.0
C1415 C 0.01266 0.85352 0.12173 0.0
C1416 C 1.00915 0.88547 0.13481 0.0
C1417 C 0.98607 0.90481 0.11961 0.0
C1418 C 0.96657 0.89232 0.09116 0.0
C1419 C 0.96989 0.8603 0.07812 0.0
H1420 H 0.98328 0.92947 0.12986 0.0
H1421 H 0.03088 0.62203 1.00782 0.0
H1422 H 0.51692 0.6916 0.0921 0.0
H1423 H 0.52511 0.70217 0.03059 0.0
H1424 H 0.51999 0.80767 0.0489 0.0
H1425 H 0.51368 0.79682 0.11181 0.0
H1426 H 0.49486 0.72348 0.97751 0.0
H1427 H 0.55103 0.85258 0.99073 0.0
H1428 H 0.58637 0.88218 0.03416 0.0
H1429 H 0.61906 0.78924 0.0792 0.0
H1430 H 0.58415 0.75907 0.03579 0.0
H1431 H 0.47076 0.80481 0.81121 0.0
H1432 H 0.47615 0.78423 0.87303 0.0
H1433 H 0.56682 0.78813 0.88029 0.0
H1434 H 0.56103 0.81146 0.81867 0.0
H1435 H 0.5558 0.8112 0.93833 0.0
H1436 H 0.52627 0.71286 0.87722 0.0
H1437 H 0.49775 0.6777 0.83204 0.0
H1438 H 0.42475 0.69489 0.88245 0.0
H1439 H 0.4527 0.73099 0.92767 0.0
C1440 C 0.518 0.7171 0.08315 0.0
C1441 C 0.51467 0.74343 0.10667 0.0
C1442 C 0.52254 0.72316 0.04782 0.0
C1443 C 0.52322 0.75576 0.03461 0.0
C1444 C 0.52021 0.78225 0.05835 0.0
C1445 C 0.51643 0.77613 0.09428 0.0
C1446 C 0.52538 0.76156 0.99556 0.0
C1447 C 0.50837 0.74257 0.96913 0.0
C1448 C 0.54364 0.78559 0.98409 0.0
C1449 C 0.56476 0.8036 0.01021 0.0
C1450 C 0.56581 0.83846 0.00982 0.0
C1451 C 0.58576 0.85534 0.03446 0.0
C1452 C 0.60488 0.83761 0.0595 0.0
C1453 C 0.60416 0.80295 0.05989 0.0
C1454 C 0.58426 0.78596 0.03532 0.0
C1455 C 0.49184 0.80009 0.82558 0.0
C1456 C 0.51549 0.80869 0.80994 0.0
C1457 C 0.49498 0.78838 0.8611 0.0
C1458 C 0.52194 0.78391 0.88158 0.0
C1459 C 0.54576 0.79122 0.86526 0.0
C1460 C 0.54253 0.80392 0.82985 0.0
C1461 C 0.5248 0.77363 0.92049 0.0
C1462 C 0.54263 0.79181 0.94684 0.0
C1463 C 0.5084 0.74762 0.93197 0.0
C1464 C 0.49158 0.72495 0.90569 0.0
C1465 C 0.50407 0.70944 0.87854 0.0
C1466 C 0.48792 0.68954 0.8527 0.0
C1467 C 0.45935 0.68433 0.85403 0.0
C1468 C 0.44687 0.69903 0.88135 0.0
C1469 C 0.46286 0.71927 0.9071 0.0
H1470 H 0.44698 0.66864 0.83412 0.0
H1471 H 0.6203 0.85072 0.07854 0.0
H1472 H 0.53109 0.74341 0.61686 0.0
H1473 H 0.53709 0.73268 0.55406 0.0
H1474 H 0.47245 0.80498 0.51698 0.0
H1475 H 0.46553 0.8147 0.57883 0.0
H1476 H 0.46557 0.75697 0.47363 0.0
H1477 H 0.54625 0.82015 0.52415 0.0
H1478 H 0.58886 0.83396 0.56727 0.0
H1479 H 0.62875 0.74414 0.53981 0.0
H1480 H 0.58617 0.72954 0.49677 0.0
H1481 H 0.49002 0.75893 0.29458 0.0
H1482 H 0.49462 0.78308 0.35535 0.0
H1483 H 0.54544 0.6995 0.39857 0.0
H1484 H 0.54114 0.67569 0.33796 0.0
H1485 H 0.56058 0.75862 0.43725 0.0
H1486 H 0.47643 0.6942 0.39205 0.0
H1487 H 0.43407 0.6826 0.34731 0.0
H1488 H 0.40116 0.77937 0.36484 0.0
H1489 H 0.4436 0.79171 0.40925 0.0
C1490 C 0.51786 0.7566 0.59528 0.0
C1491 C 0.49781 0.77987 0.60316 0.0
C1492 C 0.52155 0.75079 0.55934 0.0
C1493 C 0.50567 0.76856 0.53058 0.0
C1494 C 0.48509 0.79098 0.53844 0.0
C1495 C 0.48113 0.79645 0.5741 0.0
C1496 C 0.51007 0.76383 0.49226 0.0
C1497 C 0.48638 0.75792 0.4658 0.0
C1498 C 0.53716 0.76481 0.48161 0.0
C1499 C 0.56287 0.77361 0.50737 0.0
C1500 C 0.56401 0.80323 0.52738 0.0
C1501 C 0.58819 0.81122 0.55183 0.0
C1502 C 0.61148 0.78991 0.55634 0.0
C1503 C 0.61067 0.76061 0.53632 0.0
C1504 C 0.58652 0.75248 0.51186 0.0
C1505 C 0.50347 0.74673 0.31672 0.0
C1506 C 0.51547 0.71565 0.31157 0.0
C1507 C 0.50578 0.76029 0.35155 0.0
C1508 C 0.52001 0.74281 0.38166 0.0
C1509 C 0.53437 0.71344 0.37586 0.0
C1510 C 0.53192 0.69986 0.34118 0.0
C1511 C 0.51616 0.75173 0.41917 0.0
C1512 C 0.53986 0.75822 0.44534 0.0
C1513 C 0.48907 0.75173 0.42964 0.0
C1514 C 0.46327 0.74399 0.40367 0.0
C1515 C 0.46021 0.71305 0.38622 0.0
C1516 C 0.4362 0.70635 0.36092 0.0
C1517 C 0.41497 0.73026 0.35318 0.0
C1518 C 0.41765 0.76089 0.37082 0.0
C1519 C 0.44167 0.76775 0.39606 0.0
H1520 H 0.3964 0.72505 0.33355 0.0
H1521 H 0.63018 0.79612 0.57529 0.0
H1522 H 0.96525 0.69462 0.69371 0.0
H1523 H 0.9609 0.71765 0.6326 0.0
H1524 H 0.03147 0.78231 0.66737 0.0
H1525 H 0.0349 0.76024 0.72904 0.0
H1526 H 0.99746 0.80967 0.61027 0.0
H1527 H 0.04241 0.7049 0.63842 0.0
H1528 H 0.04606 0.64767 0.6622 0.0
H1529 H 0.97592 0.61855 0.58261 0.0
H1530 H 0.97149 0.67583 0.55882 0.0
H1531 H 0.05517 0.81197 0.44717 0.0
H1532 H 0.04823 0.80215 0.50936 0.0
H1533 H 0.97505 0.74251 0.47153 0.0
H1534 H 0.9819 0.75206 0.40879 0.0
H1535 H 1.00877 0.71453 0.5297 0.0
H1536 H 0.96817 0.82277 0.49909 0.0
H1537 H 0.96902 0.88041 0.47686 0.0
H1538 H 0.03725 0.90319 0.56187 0.0
H1539 H 0.03713 0.84554 0.58432 0.0
C1540 C 0.97878 0.71504 0.68871 0.0
C1541 C 1.00029 0.72581 0.716 0.0
C1542 C 0.97655 0.72793 0.65367 0.0
C1543 C 0.9965 0.75089 0.64502 0.0
C1544 C 0.01598 0.76443 0.67323 0.0
C1545 C 0.0178 0.75199 0.70857 0.0
C1546 C 0.99985 0.75645 0.60648 0.0
C1547 C 1.00004 0.7889 0.59271 0.0
C1548 C 1.00343 0.72938 0.58342 0.0
C1549 C 1.00643 0.69472 0.59707 0.0
C1550 C 0.02767 0.68633 0.62611 0.0
C1551 C 0.02987 0.65389 0.63961 0.0
C1552 C 0.0112 0.6295 0.62397 0.0
C1553 C 0.99034 0.63749 0.59473 0.0
C1554 C 0.98796 0.66994 0.58123 0.0
C1555 C 0.03768 0.79649 0.45188 0.0
C1556 C 0.01901 0.78293 0.42273 0.0
C1557 C 0.03363 0.79114 0.4876 0.0
C1558 C 0.01075 0.77223 0.49517 0.0
C1559 C 0.99272 0.75747 0.46633 0.0
C1560 C 0.99673 0.76285 0.43045 0.0
C1561 C 1.00586 0.76767 0.53321 0.0
C1562 C 1.00573 0.73532 0.54705 0.0
C1563 C 1.00299 0.79489 0.55638 0.0
C1564 C 1.00274 0.82974 0.54327 0.0
C1565 C 0.98346 0.84001 0.51295 0.0
C1566 C 0.9838 0.87269 0.50032 0.0
C1567 C 1.00318 0.89542 0.51796 0.0
C1568 C 0.02225 0.88553 0.54827 0.0
C1569 C 0.02204 0.85287 0.56097 0.0
H1570 H 1.00341 0.92071 0.50822 0.0
H1571 H 0.01292 0.6044 0.63446 0.0
H1572 H 0.52418 0.26649 0.72538 0.0
H1573 H 0.52175 0.24178 0.66496 0.0
H1574 H 0.46772 0.32178 0.61929 0.0
H1575 H 0.4701 0.34634 0.67918 0.0
H1576 H 0.47873 0.22575 0.59725 0.0
H1577 H 0.50569 0.35905 0.56108 0.0
H1578 H 0.52577 0.40961 0.59216 0.0
H1579 H 0.575 0.34988 0.67413 0.0
H1580 H 0.55569 0.29904 0.64313 0.0
H1581 H 0.47225 0.25136 0.40549 0.0
H1582 H 0.46715 0.26142 0.46882 0.0
H1583 H 0.55675 0.2482 0.50098 0.0
H1584 H 0.5619 0.23709 0.438 0.0
H1585 H 0.53108 0.3061 0.53203 0.0
H1586 H 0.52311 0.18882 0.51639 0.0
H1587 H 0.5041 0.13773 0.48586 0.0
H1588 H 0.42178 0.16109 0.50993 0.0
H1589 H 0.44007 0.21303 0.53951 0.0
C1590 C 0.51051 0.27771 0.70275 0.0
C1591 C 0.49738 0.30838 0.70692 0.0
C1592 C 0.50928 0.26369 0.66815 0.0
C1593 C 0.49493 0.28026 0.63751 0.0
C1594 C 0.47905 0.30867 0.64246 0.0
C1595 C 0.48034 0.32263 0.67678 0.0
C1596 C 0.50083 0.27235 0.60056 0.0
C1597 C 0.49015 0.24325 0.58296 0.0
C1598 C 0.51626 0.29486 0.58212 0.0
C1599 C 0.52903 0.32529 0.59996 0.0
C1600 C 0.52097 0.35674 0.58557 0.0
C1601 C 0.5322 0.38543 0.60319 0.0
C1602 C 0.55158 0.38295 0.63515 0.0
C1603 C 0.55994 0.35177 0.64943 0.0
C1604 C 0.54886 0.32302 0.63184 0.0
C1605 C 0.49092 0.25111 0.42597 0.0
C1606 C 0.5175 0.2436 0.41669 0.0
C1607 C 0.48794 0.25659 0.46217 0.0
C1608 C 0.51155 0.25534 0.48963 0.0
C1609 C 0.53826 0.24922 0.48024 0.0
C1610 C 0.54116 0.24295 0.44424 0.0
C1611 C 0.50836 0.25992 0.52822 0.0
C1612 C 0.51964 0.28851 0.5462 0.0
C1613 C 0.49392 0.23661 0.54703 0.0
C1614 C 0.4829 0.20511 0.52978 0.0
C1615 C 0.50087 0.18334 0.51478 0.0
C1616 C 0.49023 0.15418 0.49767 0.0
C1617 C 0.46176 0.14616 0.49594 0.0
C1618 C 0.44384 0.16734 0.51127 0.0
C1619 C 0.45432 0.1967 0.52814 0.0
H1620 H 0.4536 0.12351 0.48277 0.0
H1621 H 0.5602 0.40516 0.64881 0.0
H1622 H 0.99176 0.26803 0.29732 0.0
H1623 H 0.99663 0.24723 0.35977 0.0
H1624 H 0.04367 0.33476 0.39758 0.0
H1625 H 0.03838 0.35575 0.33547 0.0
H1626 H 0.0609 0.27378 0.43936 0.0
H1627 H 0.97825 0.34087 0.39379 0.0
H1628 H 0.93627 0.3536 0.34875 0.0
H1629 H 0.9011 0.25842 0.3676 0.0
H1630 H 0.9432 0.2449 0.41229 0.0
H1631 H 0.03158 0.28536 0.62019 0.0
H1632 H 0.03809 0.29797 0.5579 0.0
H1633 H 0.97193 0.22894 0.51785 0.0
H1634 H 0.9646 0.21732 0.57929 0.0
H1635 H 0.96611 0.27869 0.47624 0.0
H1636 H 0.04567 0.21127 0.52397 0.0
H1637 H 0.08795 0.19531 0.567 0.0
H1638 H 0.12907 0.2855 0.54354 0.0
H1639 H 0.08685 0.30224 0.50067 0.0
C1640 C 1.00429 0.282 0.31876 0.0
C1641 C 0.01478 0.31342 0.31162 0.0
C1642 C 1.00686 0.27026 0.35449 0.0
C1643 C 0.02026 0.28964 0.38345 0.0
C1644 C 0.03332 0.31935 0.37578 0.0
C1645 C 0.03032 0.33131 0.34024 0.0
C1646 C 0.0166 0.28211 0.42146 0.0
C1647 C 0.04024 0.27496 0.44757 0.0
C1648 C 0.98961 0.28327 0.43212 0.0
C1649 C 0.96397 0.29175 0.40608 0.0
C1650 C 0.96164 0.32259 0.38816 0.0
C1651 C 0.93783 0.32994 0.3627 0.0
C1652 C 0.91606 0.3068 0.35525 0.0
C1653 C 0.91801 0.2763 0.37336 0.0
C1654 C 0.94183 0.26878 0.39875 0.0
C1655 C 0.01818 0.27322 0.59808 0.0
C1656 C 0.99754 0.25033 0.60503 0.0
C1657 C 0.02213 0.28016 0.56239 0.0
C1658 C 1.00589 0.26396 0.53288 0.0
C1659 C 0.98483 0.24182 0.53986 0.0
C1660 C 0.98066 0.2352 0.57529 0.0
C1661 C 0.01042 0.26989 0.49466 0.0
C1662 C 0.98686 0.27709 0.46833 0.0
C1663 C 0.03747 0.26825 0.48387 0.0
C1664 C 0.06298 0.25817 0.50939 0.0
C1665 C 0.06365 0.22782 0.52816 0.0
C1666 C 0.08762 0.21861 0.5525 0.0
C1667 C 0.11115 0.23943 0.55808 0.0
C1668 C 0.1108 0.26944 0.53923 0.0
C1669 C 0.08687 0.27878 0.51488 0.0
H1670 H 0.12968 0.23228 0.57695 0.0
H1671 H 0.89765 0.31252 0.33551 0.0
loop_
_geom_bond_atom_site_label_1
_geom_bond_atom_site_label_2
_geom_bond_distance
_geom_bond_site_symmetry_2
_ccdc_geom_bond_type
Zn0 N4 2.020 1_655 S
Zn0 O8 2.019 . S
Zn0 N10 2.119 . S
Zn0 O18 1.975 1_655 S
C1 N2 1.334 . S
C1 N5 1.336 . S
N2 C1 1.334 . S
N2 C3 1.334 1_455 S
C3 N2 1.334 1_655 S
C3 N4 1.336 1_655 S
N4 Zn0 2.020 1_455 S
N4 C3 1.336 1_455 S
N4 N5 1.354 . S
N5 C1 1.336 . S
N5 N4 1.354 . S
N5 Zn9 2.020 . S
C6 O7 1.244 1_455 S
C6 O30 1.257 . S
O7 C6 1.244 1_655 S
O8 Zn0 2.019 . S
O8 C28 1.257 1_655 S
Zn9 N5 2.020 . S
Zn9 O16 1.975 . S
Zn9 N25 2.119 . S
Zn9 O30 2.019 . S
N10 Zn0 2.119 . S
N10 C12 1.334 . S
N10 C13 1.328 . S
C11 C12 1.391 . S
C11 N14 1.329 . S
C11 H32 0.930 . S
C12 N10 1.334 . S
C12 C11 1.391 . S
C12 H19 0.930 . S
C13 N10 1.328 . S
C13 C15 1.392 . S
C13 H20 0.930 . S
N14 C11 1.329 . S
N14 C15 1.331 . S
C15 C13 1.392 . S
C15 N14 1.331 . S
O16 Zn9 1.975 . S
O16 C17 1.252 . S
C17 O16 1.252 . S
C17 O18 1.252 . S
O18 Zn0 1.975 1_455 S
O18 C17 1.252 . S
H19 C12 0.930 . S
H20 C13 0.930 . S
C21 C22 1.392 . S
C21 N25 1.328 . S
C21 H27 0.930 . S
C22 C21 1.392 . S
C22 N26 1.331 . S
C23 C24 1.391 . S
C23 N26 1.329 . S
C23 H33 0.930 . S
C24 C23 1.391 . S
C24 N25 1.334 . S
C24 H31 0.930 . S
N25 Zn9 2.119 . S
N25 C21 1.328 . S
N25 C24 1.334 . S
N26 C22 1.331 . S
N26 C23 1.329 . S
H27 C21 0.930 . S
C28 O8 1.257 1_455 S
C28 O29 1.244 . S
O29 C28 1.244 . S
O30 C6 1.257 . S
O30 Zn9 2.019 . S
H31 C24 0.930 . S
H32 C11 0.930 . S
H33 C23 0.930 . S
Zn34 N38 2.020 . S
Zn34 O42 2.019 . S
Zn34 N44 2.119 . S
Zn34 O52 1.975 . S
C35 N36 1.334 . S
C35 N39 1.336 . S
N36 C35 1.334 . S
N36 C37 1.334 . S
C37 N36 1.334 . S
C37 N38 1.336 . S
N38 Zn34 2.020 . S
N38 C37 1.336 . S
N38 N39 1.354 . S
N39 C35 1.336 . S
N39 N38 1.354 . S
N39 Zn43 2.020 . S
C40 O41 1.244 . S
C40 O64 1.257 . S
O41 C40 1.244 . S
O42 Zn34 2.019 . S
O42 C62 1.257 . S
Zn43 N39 2.020 . S
Zn43 O50 1.975 . S
Zn43 N59 2.119 . S
Zn43 O64 2.019 . S
N44 Zn34 2.119 . S
N44 C46 1.334 . S
N44 C47 1.328 . S
C45 C46 1.391 . S
C45 N48 1.329 . S
C45 H66 0.930 . S
C46 N44 1.334 . S
C46 C45 1.391 . S
C46 H53 0.930 . S
C47 N44 1.328 . S
C47 C49 1.392 . S
C47 H54 0.930 . S
N48 C45 1.329 . S
N48 C49 1.331 . S
C49 C47 1.392 . S
C49 N48 1.331 . S
O50 Zn43 1.975 . S
O50 C51 1.252 . S
C51 O50 1.252 . S
C51 O52 1.252 . S
O52 Zn34 1.975 . S
O52 C51 1.252 . S
H53 C46 0.930 . S
H54 C47 0.930 . S
C55 C56 1.392 . S
C55 N59 1.328 . S
C55 H61 0.930 . S
C56 C55 1.392 . S
C56 N60 1.331 . S
C57 C58 1.391 . S
C57 N60 1.329 . S
C57 H67 0.930 . S
C58 C57 1.391 . S
C58 N59 1.334 . S
C58 H65 0.930 . S
N59 Zn43 2.119 . S
N59 C55 1.328 . S
N59 C58 1.334 . S
N60 C56 1.331 . S
N60 C57 1.329 . S
H61 C55 0.930 . S
C62 O42 1.257 . S
C62 O63 1.244 . S
O63 C62 1.244 . S
O64 C40 1.257 . S
O64 Zn43 2.019 . S
H65 C58 0.930 . S
H66 C45 0.930 . S
H67 C57 0.930 . S
Zn68 N72 2.020 . S
Zn68 O76 2.019 . S
Zn68 N78 2.119 . S
Zn68 O86 1.975 . S
C69 N70 1.334 1_455 S
C69 N73 1.336 1_455 S
N70 C69 1.334 1_655 S
N70 C71 1.334 . S
C71 N70 1.334 . S
C71 N72 1.336 . S
N72 Zn68 2.020 . S
N72 C71 1.336 . S
N72 N73 1.354 . S
N73 C69 1.336 1_655 S
N73 N72 1.354 . S
N73 Zn77 2.020 1_655 S
C74 O75 1.244 . S
C74 O98 1.257 1_655 S
O75 C74 1.244 . S
O76 Zn68 2.019 . S
O76 C96 1.257 . S
Zn77 N73 2.020 1_455 S
Zn77 O84 1.975 1_455 S
Zn77 N93 2.119 . S
Zn77 O98 2.019 . S
N78 Zn68 2.119 . S
N78 C80 1.334 . S
N78 C81 1.328 . S
C79 C80 1.391 . S
C79 N82 1.329 . S
C79 H100 0.930 . S
C80 N78 1.334 . S
C80 C79 1.391 . S
C80 H87 0.930 . S
C81 N78 1.328 . S
C81 C83 1.392 . S
C81 H88 0.930 . S
N82 C79 1.329 . S
N82 C83 1.331 . S
C83 C81 1.392 . S
C83 N82 1.331 . S
O84 Zn77 1.975 1_655 S
O84 C85 1.252 . S
C85 O84 1.252 . S
C85 O86 1.252 . S
O86 Zn68 1.975 . S
O86 C85 1.252 . S
H87 C80 0.930 . S
H88 C81 0.930 . S
C89 C90 1.392 . S
C89 N93 1.328 . S
C89 H95 0.930 . S
C90 C89 1.392 . S
C90 N94 1.331 . S
C91 C92 1.391 . S
C91 N94 1.329 . S
C91 H101 0.930 . S
C92 C91 1.391 . S
C92 N93 1.334 . S
C92 H99 0.930 . S
N93 Zn77 2.119 . S
N93 C89 1.328 . S
N93 C92 1.334 . S
N94 C90 1.331 . S
N94 C91 1.329 . S
H95 C89 0.930 . S
C96 O76 1.257 . S
C96 O97 1.244 1_655 S
O97 C96 1.244 1_455 S
O98 C74 1.257 1_455 S
O98 Zn77 2.019 . S
H99 C92 0.930 . S
H100 C79 0.930 . S
H101 C91 0.930 . S
Zn102 N106 2.020 . S
Zn102 O110 2.019 . S
Zn102 N112 2.119 . S
Zn102 O120 1.975 . S
C103 N104 1.334 . S
C103 N107 1.336 . S
N104 C103 1.334 . S
N104 C105 1.334 . S
C105 N104 1.334 . S
C105 N106 1.336 . S
N106 Zn102 2.020 . S
N106 C105 1.336 . S
N106 N107 1.354 . S
N107 C103 1.336 . S
N107 N106 1.354 . S
N107 Zn111 2.020 . S
C108 O109 1.244 . S
C108 O132 1.257 . S
O109 C108 1.244 . S
O110 Zn102 2.019 . S
O110 C130 1.257 . S
Zn111 N107 2.020 . S
Zn111 O118 1.975 . S
Zn111 N127 2.119 . S
Zn111 O132 2.019 . S
N112 Zn102 2.119 . S
N112 C114 1.334 . S
N112 C115 1.328 . S
C113 C114 1.391 . S
C113 N116 1.329 . S
C113 H134 0.930 . S
C114 N112 1.334 . S
C114 C113 1.391 . S
C114 H121 0.930 . S
C115 N112 1.328 . S
C115 C117 1.392 . S
C115 H122 0.930 . S
N116 C113 1.329 . S
N116 C117 1.331 . S
C117 C115 1.392 . S
C117 N116 1.331 . S
O118 Zn111 1.975 . S
O118 C119 1.252 . S
C119 O118 1.252 . S
C119 O120 1.252 . S
O120 Zn102 1.975 . S
O120 C119 1.252 . S
H121 C114 0.930 . S
H122 C115 0.930 . S
C123 C124 1.392 . S
C123 N127 1.328 . S
C123 H129 0.930 . S
C124 C123 1.392 . S
C124 N128 1.331 . S
C125 C126 1.391 . S
C125 N128 1.329 . S
C125 H135 0.930 . S
C126 C125 1.391 . S
C126 N127 1.334 . S
C126 H133 0.930 . S
N127 Zn111 2.119 . S
N127 C123 1.328 . S
N127 C126 1.334 . S
N128 C124 1.331 . S
N128 C125 1.329 . S
H129 C123 0.930 . S
C130 O110 1.257 . S
C130 O131 1.244 . S
O131 C130 1.244 . S
O132 C108 1.257 . S
O132 Zn111 2.019 . S
H133 C126 0.930 . S
H134 C113 0.930 . S
H135 C125 0.930 . S
Zn136 N140 2.020 . S
Zn136 O144 2.019 . S
Zn136 N146 2.119 . S
Zn136 O154 1.975 . S
C137 N138 1.334 . S
C137 N141 1.336 . S
N138 C137 1.334 . S
N138 C139 1.334 . S
C139 N138 1.334 . S
C139 N140 1.336 . S
N140 Zn136 2.020 . S
N140 C139 1.336 . S
N140 N141 1.354 . S
N141 C137 1.336 . S
N141 N140 1.354 . S
N141 Zn145 2.020 . S
C142 O143 1.244 . S
C142 O166 1.257 . S
O143 C142 1.244 . S
O144 Zn136 2.019 . S
O144 C164 1.257 . S
Zn145 N141 2.020 . S
Zn145 O152 1.975 . S
Zn145 N161 2.119 . S
Zn145 O166 2.019 . S
N146 Zn136 2.119 . S
N146 C148 1.334 . S
N146 C149 1.328 . S
C147 C148 1.391 . S
C147 N150 1.329 . S
C147 H168 0.930 . S
C148 N146 1.334 . S
C148 C147 1.391 . S
C148 H155 0.930 . S
C149 N146 1.328 . S
C149 C151 1.392 . S
C149 H156 0.930 . S
N150 C147 1.329 . S
N150 C151 1.331 . S
C151 C149 1.392 . S
C151 N150 1.331 . S
O152 Zn145 1.975 . S
O152 C153 1.252 . S
C153 O152 1.252 . S
C153 O154 1.252 . S
O154 Zn136 1.975 . S
O154 C153 1.252 . S
H155 C148 0.930 . S
H156 C149 0.930 . S
C157 C158 1.392 . S
C157 N161 1.328 . S
C157 H163 0.930 . S
C158 C157 1.392 . S
C158 N162 1.331 . S
C159 C160 1.391 . S
C159 N162 1.329 . S
C159 H169 0.930 . S
C160 C159 1.391 . S
C160 N161 1.334 . S
C160 H167 0.930 . S
N161 Zn145 2.119 . S
N161 C157 1.328 . S
N161 C160 1.334 . S
N162 C158 1.331 . S
N162 C159 1.329 . S
H163 C157 0.930 . S
C164 O144 1.257 . S
C164 O165 1.244 . S
O165 C164 1.244 . S
O166 C142 1.257 . S
O166 Zn145 2.019 . S
H167 C160 0.930 . S
H168 C147 0.930 . S
H169 C159 0.930 . S
Zn170 N174 2.020 . S
Zn170 O178 2.019 . S
Zn170 N180 2.119 . S
Zn170 O188 1.975 . S
C171 N172 1.334 1_455 S
C171 N175 1.336 1_455 S
N172 C171 1.334 1_655 S
N172 C173 1.334 . S
C173 N172 1.334 . S
C173 N174 1.336 . S
N174 Zn170 2.020 . S
N174 C173 1.336 . S
N174 N175 1.354 . S
N175 C171 1.336 1_655 S
N175 N174 1.354 . S
N175 Zn179 2.020 1_655 S
C176 O177 1.244 . S
C176 O200 1.257 1_655 S
O177 C176 1.244 . S
O178 Zn170 2.019 . S
O178 C198 1.257 . S
Zn179 N175 2.020 1_455 S
Zn179 O186 1.975 1_455 S
Zn179 N195 2.119 . S
Zn179 O200 2.019 . S
N180 Zn170 2.119 . S
N180 C182 1.334 . S
N180 C183 1.328 . S
C181 C182 1.391 . S
C181 N184 1.329 . S
C181 H202 0.930 . S
C182 N180 1.334 . S
C182 C181 1.391 . S
C182 H189 0.930 . S
C183 N180 1.328 . S
C183 C185 1.392 . S
C183 H190 0.930 . S
N184 C181 1.329 . S
N184 C185 1.331 . S
C185 C183 1.392 . S
C185 N184 1.331 . S
O186 Zn179 1.975 1_655 S
O186 C187 1.252 . S
C187 O186 1.252 . S
C187 O188 1.252 . S
O188 Zn170 1.975 . S
O188 C187 1.252 . S
H189 C182 0.930 . S
H190 C183 0.930 . S
C191 C192 1.392 . S
C191 N195 1.328 . S
C191 H197 0.930 . S
C192 C191 1.392 . S
C192 N196 1.331 . S
C193 C194 1.391 . S
C193 N196 1.329 . S
C193 H203 0.930 . S
C194 C193 1.391 . S
C194 N195 1.334 . S
C194 H201 0.930 . S
N195 Zn179 2.119 . S
N195 C191 1.328 . S
N195 C194 1.334 . S
N196 C192 1.331 . S
N196 C193 1.329 . S
H197 C191 0.930 . S
C198 O178 1.257 . S
C198 O199 1.244 1_655 S
O199 C198 1.244 1_455 S
O200 C176 1.257 1_455 S
O200 Zn179 2.019 . S
H201 C194 0.930 . S
H202 C181 0.930 . S
H203 C193 0.930 . S
Zn204 N208 2.020 . S
Zn204 O212 2.019 . S
Zn204 N214 2.119 . S
Zn204 O222 1.975 . S
C205 N206 1.334 . S
C205 N209 1.336 . S
N206 C205 1.334 . S
N206 C207 1.334 . S
C207 N206 1.334 . S
C207 N208 1.336 . S
N208 Zn204 2.020 . S
N208 C207 1.336 . S
N208 N209 1.354 . S
N209 C205 1.336 . S
N209 N208 1.354 . S
N209 Zn213 2.020 . S
C210 O211 1.244 . S
C210 O234 1.257 . S
O211 C210 1.244 . S
O212 Zn204 2.019 . S
O212 C232 1.257 . S
Zn213 N209 2.020 . S
Zn213 O220 1.975 . S
Zn213 N229 2.119 . S
Zn213 O234 2.019 . S
N214 Zn204 2.119 . S
N214 C216 1.334 . S
N214 C217 1.328 . S
C215 C216 1.391 . S
C215 N218 1.329 . S
C215 H236 0.930 . S
C216 N214 1.334 . S
C216 C215 1.391 . S
C216 H223 0.930 . S
C217 N214 1.328 . S
C217 C219 1.392 . S
C217 H224 0.930 . S
N218 C215 1.329 . S
N218 C219 1.331 . S
C219 C217 1.392 . S
C219 N218 1.331 . S
O220 Zn213 1.975 . S
O220 C221 1.252 . S
C221 O220 1.252 . S
C221 O222 1.252 . S
O222 Zn204 1.975 . S
O222 C221 1.252 . S
H223 C216 0.930 . S
H224 C217 0.930 . S
C225 C226 1.392 . S
C225 N229 1.328 . S
C225 H231 0.930 . S
C226 C225 1.392 . S
C226 N230 1.331 . S
C227 C228 1.391 . S
C227 N230 1.329 . S
C227 H237 0.930 . S
C228 C227 1.391 . S
C228 N229 1.334 . S
C228 H235 0.930 . S
N229 Zn213 2.119 . S
N229 C225 1.328 . S
N229 C228 1.334 . S
N230 C226 1.331 . S
N230 C227 1.329 . S
H231 C225 0.930 . S
C232 O212 1.257 . S
C232 O233 1.244 . S
O233 C232 1.244 . S
O234 C210 1.257 . S
O234 Zn213 2.019 . S
H235 C228 0.930 . S
H236 C215 0.930 . S
H237 C227 0.930 . S
Zn238 N242 2.020 . S
Zn238 O246 2.019 . S
Zn238 N248 2.119 . S
Zn238 O256 1.975 . S
C239 N240 1.334 1_655 S
C239 N243 1.336 1_655 S
N240 C239 1.334 1_455 S
N240 C241 1.334 . S
C241 N240 1.334 . S
C241 N242 1.336 . S
N242 Zn238 2.020 . S
N242 C241 1.336 . S
N242 N243 1.354 . S
N243 C239 1.336 1_455 S
N243 N242 1.354 . S
N243 Zn247 2.020 1_455 S
C244 O245 1.244 . S
C244 O268 1.257 1_455 S
O245 C244 1.244 . S
O246 Zn238 2.019 . S
O246 C266 1.257 . S
Zn247 N243 2.020 1_655 S
Zn247 O254 1.975 1_655 S
Zn247 N263 2.119 . S
Zn247 O268 2.019 . S
N248 Zn238 2.119 . S
N248 C250 1.334 . S
N248 C251 1.328 . S
C249 C250 1.391 . S
C249 N252 1.329 . S
C249 H270 0.930 . S
C250 N248 1.334 . S
C250 C249 1.391 . S
C250 H257 0.930 . S
C251 N248 1.328 . S
C251 C253 1.392 . S
C251 H258 0.930 . S
N252 C249 1.329 . S
N252 C253 1.331 . S
C253 C251 1.392 . S
C253 N252 1.331 . S
O254 Zn247 1.975 1_455 S
O254 C255 1.252 . S
C255 O254 1.252 . S
C255 O256 1.252 . S
O256 Zn238 1.975 . S
O256 C255 1.252 . S
H257 C250 0.930 . S
H258 C251 0.930 . S
C259 C260 1.392 . S
C259 N263 1.328 . S
C259 H265 0.930 . S
C260 C259 1.392 . S
C260 N264 1.331 . S
C261 C262 1.391 . S
C261 N264 1.329 . S
C261 H271 0.930 . S
C262 C261 1.391 . S
C262 N263 1.334 . S
C262 H269 0.930 . S
N263 Zn247 2.119 . S
N263 C259 1.328 . S
N263 C262 1.334 . S
N264 C260 1.331 . S
N264 C261 1.329 . S
H265 C259 0.930 . S
C266 O246 1.257 . S
C266 O267 1.244 1_455 S
O267 C266 1.244 1_655 S
O268 C244 1.257 1_655 S
O268 Zn247 2.019 . S
H269 C262 0.930 . S
H270 C249 0.930 . S
H271 C261 0.930 . S
H272 C290 0.951 . S
H273 C292 0.952 . S
H274 C294 0.950 . S
H275 C295 0.950 . S
H276 C297 0.950 1_655 S
H277 C300 0.950 . S
H278 C301 0.950 . S
H279 C303 0.950 . S
H280 C304 0.950 1_545 S
H281 C305 0.951 . S
H282 C307 0.951 . S
H283 C309 0.950 1_655 S
H284 C310 0.950 1_655 S
H285 C312 0.950 . S
H286 C315 0.950 . S
H287 C316 0.950 . S
H288 C318 0.950 . S
H289 C319 0.950 1_455 S
C290 H272 0.951 . S
C290 C291 1.366 1_655 S
C290 C292 1.388 . S
C291 C290 1.366 1_455 S
C291 C295 1.385 . S
C292 H273 0.952 . S
C292 C290 1.388 . S
C292 C293 1.364 1_655 S
C293 C292 1.364 1_455 S
C293 C294 1.414 . S
C293 C296 1.499 1_565 S
C294 H274 0.950 . S
C294 C293 1.414 . S
C294 C295 1.374 . S
C295 H275 0.950 . S
C295 C291 1.385 . S
C295 C294 1.374 . S
C296 C293 1.499 1_545 S
C296 C297 1.373 . S
C296 C298 1.389 . S
C297 H276 0.950 1_455 S
C297 C296 1.373 . S
C297 C313 1.377 . S
C298 C296 1.389 . S
C298 C299 1.524 1_545 S
C298 C312 1.377 . S
C299 C298 1.524 1_565 S
C299 C300 1.397 . S
C299 C304 1.363 . S
C300 H277 0.950 . S
C300 C299 1.397 . S
C300 C301 1.334 . S
C301 H278 0.950 . S
C301 C300 1.334 . S
C301 C302 1.287 . S
C302 C301 1.287 . S
C302 C303 1.524 . S
C302 H321 0.913 . S
C303 H279 0.950 . S
C303 C302 1.524 . S
C303 C304 1.415 . S
C304 H280 0.950 1_565 S
C304 C299 1.363 . S
C304 C303 1.415 . S
C305 H281 0.951 . S
C305 C306 1.366 . S
C305 C307 1.388 . S
C306 C305 1.366 . S
C306 C310 1.385 . S
C307 H282 0.951 . S
C307 C305 1.388 . S
C307 C308 1.366 . S
C308 C307 1.366 . S
C308 C309 1.414 . S
C308 C311 1.499 . S
C309 H283 0.950 1_455 S
C309 C308 1.414 . S
C309 C310 1.374 . S
C310 H284 0.950 1_455 S
C310 C306 1.385 . S
C310 C309 1.374 . S
C311 C308 1.499 . S
C311 C312 1.373 . S
C311 C313 1.389 . S
C312 H285 0.950 . S
C312 C298 1.377 . S
C312 C311 1.373 . S
C313 C297 1.377 . S
C313 C311 1.389 . S
C313 C314 1.524 1_455 S
C314 C313 1.524 1_655 S
C314 C315 1.397 . S
C314 C319 1.363 . S
C315 H286 0.950 . S
C315 C314 1.397 . S
C315 C316 1.334 . S
C316 H287 0.950 . S
C316 C315 1.334 . S
C316 C317 1.287 . S
C317 C316 1.287 . S
C317 C318 1.524 . S
C317 H320 0.999 . S
C318 H288 0.950 . S
C318 C317 1.524 . S
C318 C319 1.415 . S
C319 H289 0.950 1_655 S
C319 C314 1.363 . S
C319 C318 1.415 . S
H320 C317 0.999 . S
H321 C302 0.913 . S
H322 C340 0.951 . S
H323 C342 0.951 . S
H324 C344 0.950 . S
H325 C345 0.950 . S
H326 C347 0.950 . S
H327 C350 0.950 1_565 S
H328 C351 0.934 1_565 S
H329 C353 0.950 . S
H330 C354 0.950 . S
H331 C355 0.951 . S
H332 C357 0.951 . S
H333 C359 0.950 . S
H334 C360 0.950 . S
H335 C362 0.950 . S
H336 C365 0.950 . S
H337 C366 0.950 . S
H338 C368 0.950 . S
H339 C369 0.950 . S
C340 H322 0.951 . S
C340 C341 1.366 . S
C340 C342 1.388 . S
C341 C340 1.366 . S
C341 C345 1.385 . S
C342 H323 0.951 . S
C342 C340 1.388 . S
C342 C343 1.366 . S
C343 C342 1.366 . S
C343 C344 1.414 . S
C343 C346 1.499 1_565 S
C344 H324 0.950 . S
C344 C343 1.414 . S
C344 C345 1.374 . S
C345 H325 0.950 . S
C345 C341 1.385 . S
C345 C344 1.374 . S
C346 C343 1.499 1_545 S
C346 C347 1.373 . S
C346 C348 1.389 . S
C347 H326 0.950 . S
C347 C346 1.373 . S
C347 C363 1.377 . S
C348 C346 1.389 . S
C348 C349 1.524 . S
C348 C362 1.377 . S
C349 C348 1.524 . S
C349 C350 1.397 . S
C349 C354 1.363 . S
C350 H327 0.950 1_545 S
C350 C349 1.397 . S
C350 C351 1.339 . S
C351 H328 0.934 1_545 S
C351 C350 1.339 . S
C351 C352 1.299 . S
C352 C351 1.299 . S
C352 C353 1.524 . S
C352 H371 0.913 . S
C353 H329 0.950 . S
C353 C352 1.524 . S
C353 C354 1.415 . S
C354 H330 0.950 . S
C354 C349 1.363 . S
C354 C353 1.415 . S
C355 H331 0.951 . S
C355 C356 1.366 . S
C355 C357 1.388 . S
C356 C355 1.366 . S
C356 C360 1.385 . S
C357 H332 0.951 . S
C357 C355 1.388 . S
C357 C358 1.366 . S
C358 C357 1.366 . S
C358 C359 1.414 . S
C358 C361 1.499 . S
C359 H333 0.950 . S
C359 C358 1.414 . S
C359 C360 1.374 . S
C360 H334 0.950 . S
C360 C356 1.385 . S
C360 C359 1.374 . S
C361 C358 1.499 . S
C361 C362 1.373 . S
C361 C363 1.389 . S
C362 H335 0.950 . S
C362 C348 1.377 . S
C362 C361 1.373 . S
C363 C347 1.377 . S
C363 C361 1.389 . S
C363 C364 1.524 . S
C364 C363 1.524 . S
C364 C365 1.397 . S
C364 C369 1.363 . S
C365 H336 0.950 . S
C365 C364 1.397 . S
C365 C366 1.334 . S
C366 H337 0.950 . S
C366 C365 1.334 . S
C366 C367 1.287 . S
C367 C366 1.287 . S
C367 C368 1.524 . S
C367 H370 0.999 . S
C368 H338 0.950 . S
C368 C367 1.524 . S
C368 C369 1.415 . S
C369 H339 0.950 . S
C369 C364 1.363 . S
C369 C368 1.415 . S
H370 C367 0.999 . S
H371 C352 0.913 . S
H372 C390 0.951 . S
H373 C392 0.951 . S
H374 C394 0.950 . S
H375 C395 0.950 . S
H376 C397 0.950 . S
H377 C400 0.950 . S
H378 C401 0.950 . S
H379 C403 0.950 . S
H380 C404 0.950 . S
H381 C405 0.951 . S
H382 C407 0.951 . S
H383 C409 0.950 . S
H384 C410 0.950 . S
H385 C412 0.950 . S
H386 C415 0.950 1_655 S
H387 C416 0.950 . S
H388 C418 0.950 . S
H389 C419 0.950 . S
C390 H372 0.951 . S
C390 C391 1.366 . S
C390 C392 1.388 . S
C391 C390 1.366 . S
C391 C395 1.385 1_655 S
C392 H373 0.951 . S
C392 C390 1.388 . S
C392 C393 1.366 . S
C393 C392 1.366 . S
C393 C394 1.414 1_655 S
C393 C396 1.499 1_545 S
C394 H374 0.950 . S
C394 C393 1.414 1_455 S
C394 C395 1.374 . S
C395 H375 0.950 . S
C395 C391 1.385 1_455 S
C395 C394 1.374 . S
C396 C393 1.499 1_565 S
C396 C397 1.373 1_655 S
C396 C398 1.389 . S
C397 H376 0.950 . S
C397 C396 1.373 1_455 S
C397 C413 1.377 . S
C398 C396 1.389 . S
C398 C399 1.526 1_565 S
C398 C412 1.377 . S
C399 C398 1.526 1_545 S
C399 C400 1.394 . S
C399 C404 1.363 1_545 S
C400 H377 0.950 . S
C400 C399 1.394 . S
C400 C401 1.334 . S
C401 H378 0.950 . S
C401 C400 1.334 . S
C401 C402 1.287 . S
C402 C401 1.287 . S
C402 C403 1.524 . S
C402 H421 0.913 . S
C403 H379 0.950 . S
C403 C402 1.524 . S
C403 C404 1.415 1_545 S
C404 H380 0.950 . S
C404 C399 1.363 1_565 S
C404 C403 1.415 1_565 S
C405 H381 0.951 . S
C405 C406 1.366 1_455 S
C405 C407 1.388 . S
C406 C405 1.366 1_655 S
C406 C410 1.385 . S
C407 H382 0.951 . S
C407 C405 1.388 . S
C407 C408 1.366 1_455 S
C408 C407 1.366 1_655 S
C408 C409 1.414 . S
C408 C411 1.499 . S
C409 H383 0.950 . S
C409 C408 1.414 . S
C409 C410 1.374 . S
C410 H384 0.950 . S
C410 C406 1.385 . S
C410 C409 1.374 . S
C411 C408 1.499 . S
C411 C412 1.373 . S
C411 C413 1.389 1_655 S
C412 H385 0.950 . S
C412 C398 1.377 . S
C412 C411 1.373 . S
C413 C397 1.377 . S
C413 C411 1.389 1_455 S
C413 C414 1.524 . S
C414 C413 1.524 . S
C414 C415 1.397 . S
C414 C419 1.363 . S
C415 H386 0.950 1_455 S
C415 C414 1.397 . S
C415 C416 1.334 . S
C416 H387 0.950 . S
C416 C415 1.334 . S
C416 C417 1.287 . S
C417 C416 1.287 . S
C417 C418 1.524 . S
C417 H420 0.999 . S
C418 H388 0.950 . S
C418 C417 1.524 . S
C418 C419 1.415 . S
C419 H389 0.950 . S
C419 C414 1.363 . S
C419 C418 1.415 . S
H420 C417 0.999 . S
H421 C402 0.913 . S
H422 C440 0.951 . S
H423 C442 0.951 . S
H424 C444 0.950 . S
H425 C445 0.950 . S
H426 C447 0.950 . S
H427 C450 0.950 . S
H428 C451 0.950 . S
H429 C453 0.950 . S
H430 C454 0.950 . S
H431 C455 0.951 . S
H432 C457 0.951 . S
H433 C459 0.950 . S
H434 C460 0.950 . S
H435 C462 0.950 . S
H436 C465 0.950 . S
H437 C466 0.950 . S
H438 C468 0.950 . S
H439 C469 0.950 . S
C440 H422 0.951 . S
C440 C441 1.366 . S
C440 C442 1.388 . S
C441 C440 1.366 . S
C441 C445 1.385 . S
C442 H423 0.951 . S
C442 C440 1.388 . S
C442 C443 1.366 . S
C443 C442 1.366 . S
C443 C444 1.414 . S
C443 C446 1.499 . S
C444 H424 0.950 . S
C444 C443 1.414 . S
C444 C445 1.374 . S
C445 H425 0.950 . S
C445 C441 1.385 . S
C445 C444 1.374 . S
C446 C443 1.499 . S
C446 C447 1.373 . S
C446 C448 1.389 . S
C447 H426 0.950 . S
C447 C446 1.373 . S
C447 C463 1.377 . S
C448 C446 1.389 . S
C448 C449 1.524 . S
C448 C462 1.377 . S
C449 C448 1.524 . S
C449 C450 1.397 . S
C449 C454 1.363 . S
C450 H427 0.950 . S
C450 C449 1.397 . S
C450 C451 1.334 . S
C451 H428 0.950 . S
C451 C450 1.334 . S
C451 C452 1.287 . S
C452 C451 1.287 . S
C452 C453 1.524 . S
C452 H471 0.913 . S
C453 H429 0.950 . S
C453 C452 1.524 . S
C453 C454 1.415 . S
C454 H430 0.950 . S
C454 C449 1.363 . S
C454 C453 1.415 . S
C455 H431 0.951 . S
C455 C456 1.366 . S
C455 C457 1.388 . S
C456 C455 1.366 . S
C456 C460 1.385 . S
C457 H432 0.951 . S
C457 C455 1.388 . S
C457 C458 1.366 . S
C458 C457 1.366 . S
C458 C459 1.414 . S
C458 C461 1.499 1_545 S
C459 H433 0.950 . S
C459 C458 1.414 . S
C459 C460 1.374 . S
C460 H434 0.950 . S
C460 C456 1.385 . S
C460 C459 1.374 . S
C461 C458 1.499 1_565 S
C461 C462 1.373 . S
C461 C463 1.389 . S
C462 H435 0.950 . S
C462 C448 1.377 . S
C462 C461 1.373 . S
C463 C447 1.377 . S
C463 C461 1.389 . S
C463 C464 1.538 . S
C464 C463 1.538 . S
C464 C465 1.381 1_565 S
C464 C469 1.367 . S
C465 H436 0.950 . S
C465 C464 1.381 1_545 S
C465 C466 1.334 . S
C466 H437 0.950 . S
C466 C465 1.334 . S
C466 C467 1.287 . S
C467 C466 1.287 . S
C467 C468 1.524 . S
C467 H470 0.999 . S
C468 H438 0.950 . S
C468 C467 1.524 . S
C468 C469 1.415 1_545 S
C469 H439 0.950 . S
C469 C464 1.367 . S
C469 C468 1.415 1_565 S
H470 C467 0.999 . S
H471 C452 0.913 . S
H472 C490 0.951 . S
H473 C492 0.951 . S
H474 C494 0.950 . S
H475 C495 0.950 . S
H476 C497 0.950 . S
H477 C500 0.950 . S
H478 C501 0.950 . S
H479 C503 0.950 . S
H480 C504 0.950 . S
H481 C505 0.951 . S
H482 C507 0.951 . S
H483 C509 0.950 . S
H484 C510 0.950 . S
H485 C512 0.950 . S
H486 C515 0.950 . S
H487 C516 0.950 . S
H488 C518 0.950 . S
H489 C519 0.950 . S
C490 H472 0.951 . S
C490 C491 1.366 . S
C490 C492 1.388 . S
C491 C490 1.366 . S
C491 C495 1.385 . S
C492 H473 0.951 . S
C492 C490 1.388 . S
C492 C493 1.366 . S
C493 C492 1.366 . S
C493 C494 1.414 . S
C493 C496 1.499 . S
C494 H474 0.950 . S
C494 C493 1.414 . S
C494 C495 1.374 . S
C495 H475 0.950 . S
C495 C491 1.385 . S
C495 C494 1.374 . S
C496 C493 1.499 . S
C496 C497 1.373 . S
C496 C498 1.389 . S
C497 H476 0.950 . S
C497 C496 1.373 . S
C497 C513 1.377 . S
C498 C496 1.389 . S
C498 C499 1.524 . S
C498 C512 1.377 . S
C499 C498 1.524 . S
C499 C500 1.397 . S
C499 C504 1.363 . S
C500 H477 0.950 . S
C500 C499 1.397 . S
C500 C501 1.334 . S
C501 H478 0.950 . S
C501 C500 1.334 . S
C501 C502 1.287 . S
C502 C501 1.287 . S
C502 C503 1.524 . S
C502 H521 0.913 . S
C503 H479 0.950 . S
C503 C502 1.524 . S
C503 C504 1.415 . S
C504 H480 0.950 . S
C504 C499 1.363 . S
C504 C503 1.415 . S
C505 H481 0.951 . S
C505 C506 1.366 . S
C505 C507 1.388 . S
C506 C505 1.366 . S
C506 C510 1.385 . S
C507 H482 0.951 . S
C507 C505 1.388 . S
C507 C508 1.366 . S
C508 C507 1.366 . S
C508 C509 1.414 . S
C508 C511 1.499 . S
C509 H483 0.950 . S
C509 C508 1.414 . S
C509 C510 1.374 . S
C510 H484 0.950 . S
C510 C506 1.385 . S
C510 C509 1.374 . S
C511 C508 1.499 . S
C511 C512 1.373 . S
C511 C513 1.389 . S
C512 H485 0.950 . S
C512 C498 1.377 . S
C512 C511 1.373 . S
C513 C497 1.377 . S
C513 C511 1.389 . S
C513 C514 1.524 . S
C514 C513 1.524 . S
C514 C515 1.397 . S
C514 C519 1.363 . S
C515 H486 0.950 . S
C515 C514 1.397 . S
C515 C516 1.334 . S
C516 H487 0.950 . S
C516 C515 1.334 . S
C516 C517 1.287 . S
C517 C516 1.287 . S
C517 C518 1.524 . S
C517 H520 0.999 . S
C518 H488 0.950 . S
C518 C517 1.524 . S
C518 C519 1.415 . S
C519 H489 0.950 . S
C519 C514 1.363 . S
C519 C518 1.415 . S
H520 C517 0.999 . S
H521 C502 0.913 . S
H522 C540 0.951 . S
H523 C542 0.951 . S
H524 C544 0.950 . S
H525 C545 0.950 . S
H526 C547 0.950 . S
H527 C550 0.950 . S
H528 C551 0.950 . S
H529 C553 0.950 . S
H530 C554 0.950 . S
H531 C555 0.951 . S
H532 C557 0.951 . S
H533 C559 0.950 . S
H534 C560 0.950 . S
H535 C562 0.950 . S
H536 C565 0.950 . S
H537 C566 0.950 . S
H538 C568 0.950 . S
H539 C569 0.950 . S
C540 H522 0.951 . S
C540 C541 1.366 . S
C540 C542 1.388 . S
C541 C540 1.366 . S
C541 C545 1.385 1_655 S
C542 H523 0.951 . S
C542 C540 1.388 . S
C542 C543 1.366 . S
C543 C542 1.366 . S
C543 C544 1.414 1_655 S
C543 C546 1.499 . S
C544 H524 0.950 . S
C544 C543 1.414 1_455 S
C544 C545 1.374 . S
C545 H525 0.950 . S
C545 C541 1.385 1_455 S
C545 C544 1.374 . S
C546 C543 1.499 . S
C546 C547 1.373 . S
C546 C548 1.389 . S
C547 H526 0.950 . S
C547 C546 1.373 . S
C547 C563 1.377 . S
C548 C546 1.389 . S
C548 C549 1.524 . S
C548 C562 1.377 . S
C549 C548 1.524 . S
C549 C550 1.397 1_655 S
C549 C554 1.363 . S
C550 H527 0.950 . S
C550 C549 1.397 1_455 S
C550 C551 1.334 . S
C551 H528 0.950 . S
C551 C550 1.334 . S
C551 C552 1.287 1_455 S
C552 C551 1.287 1_655 S
C552 C553 1.524 . S
C552 H571 0.913 . S
C553 H529 0.950 . S
C553 C552 1.524 . S
C553 C554 1.415 . S
C554 H530 0.950 . S
C554 C549 1.363 . S
C554 C553 1.415 . S
C555 H531 0.951 . S
C555 C556 1.366 1_455 S
C555 C557 1.388 . S
C556 C555 1.366 1_655 S
C556 C560 1.385 . S
C557 H532 0.951 . S
C557 C555 1.388 . S
C557 C558 1.366 1_455 S
C558 C557 1.366 1_655 S
C558 C559 1.414 . S
C558 C561 1.499 . S
C559 H533 0.950 . S
C559 C558 1.414 . S
C559 C560 1.374 . S
C560 H534 0.950 . S
C560 C556 1.385 . S
C560 C559 1.374 . S
C561 C558 1.499 . S
C561 C562 1.373 . S
C561 C563 1.389 . S
C562 H535 0.950 . S
C562 C548 1.377 . S
C562 C561 1.373 . S
C563 C547 1.377 . S
C563 C561 1.389 . S
C563 C564 1.524 . S
C564 C563 1.524 . S
C564 C565 1.397 . S
C564 C569 1.363 1_655 S
C565 H536 0.950 . S
C565 C564 1.397 . S
C565 C566 1.334 . S
C566 H537 0.950 . S
C566 C565 1.334 . S
C566 C567 1.287 . S
C567 C566 1.287 . S
C567 C568 1.524 1_655 S
C567 H570 0.999 . S
C568 H538 0.950 . S
C568 C567 1.524 1_455 S
C568 C569 1.415 . S
C569 H539 0.950 . S
C569 C564 1.363 1_455 S
C569 C568 1.415 . S
H570 C567 0.999 . S
H571 C552 0.913 . S
H572 C590 0.951 . S
H573 C592 0.951 . S
H574 C594 0.950 . S
H575 C595 0.950 . S
H576 C597 0.950 . S
H577 C600 0.950 . S
H578 C601 0.950 . S
H579 C603 0.950 . S
H580 C604 0.950 . S
H581 C605 0.951 . S
H582 C607 0.951 . S
H583 C609 0.950 . S
H584 C610 0.950 . S
H585 C612 0.950 . S
H586 C615 0.950 . S
H587 C616 0.950 . S
H588 C618 0.950 . S
H589 C619 0.950 . S
C590 H572 0.951 . S
C590 C591 1.366 . S
C590 C592 1.388 . S
C591 C590 1.366 . S
C591 C595 1.385 . S
C592 H573 0.951 . S
C592 C590 1.388 . S
C592 C593 1.366 . S
C593 C592 1.366 . S
C593 C594 1.414 . S
C593 C596 1.499 . S
C594 H574 0.950 . S
C594 C593 1.414 . S
C594 C595 1.374 . S
C595 H575 0.950 . S
C595 C591 1.385 . S
C595 C594 1.374 . S
C596 C593 1.499 . S
C596 C597 1.373 . S
C596 C598 1.389 . S
C597 H576 0.950 . S
C597 C596 1.373 . S
C597 C613 1.377 . S
C598 C596 1.389 . S
C598 C599 1.524 . S
C598 C612 1.377 . S
C599 C598 1.524 . S
C599 C600 1.397 . S
C599 C604 1.363 . S
C600 H577 0.950 . S
C600 C599 1.397 . S
C600 C601 1.334 . S
C601 H578 0.950 . S
C601 C600 1.334 . S
C601 C602 1.287 . S
C602 C601 1.287 . S
C602 C603 1.524 . S
C602 H621 0.913 . S
C603 H579 0.950 . S
C603 C602 1.524 . S
C603 C604 1.415 . S
C604 H580 0.950 . S
C604 C599 1.363 . S
C604 C603 1.415 . S
C605 H581 0.951 . S
C605 C606 1.366 . S
C605 C607 1.388 . S
C606 C605 1.366 . S
C606 C610 1.385 . S
C607 H582 0.951 . S
C607 C605 1.388 . S
C607 C608 1.366 . S
C608 C607 1.366 . S
C608 C609 1.414 . S
C608 C611 1.499 . S
C609 H583 0.950 . S
C609 C608 1.414 . S
C609 C610 1.374 . S
C610 H584 0.950 . S
C610 C606 1.385 . S
C610 C609 1.374 . S
C611 C608 1.499 . S
C611 C612 1.373 . S
C611 C613 1.389 . S
C612 H585 0.950 . S
C612 C598 1.377 . S
C612 C611 1.373 . S
C613 C597 1.377 . S
C613 C611 1.389 . S
C613 C614 1.524 . S
C614 C613 1.524 . S
C614 C615 1.397 . S
C614 C619 1.363 . S
C615 H586 0.950 . S
C615 C614 1.397 . S
C615 C616 1.334 . S
C616 H587 0.950 . S
C616 C615 1.334 . S
C616 C617 1.287 . S
C617 C616 1.287 . S
C617 C618 1.524 . S
C617 H620 0.999 . S
C618 H588 0.950 . S
C618 C617 1.524 . S
C618 C619 1.415 . S
C619 H589 0.950 . S
C619 C614 1.363 . S
C619 C618 1.415 . S
H620 C617 0.999 . S
H621 C602 0.913 . S
H622 C640 0.951 . S
H623 C642 0.951 . S
H624 C644 0.950 . S
H625 C645 0.950 . S
H626 C647 0.950 . S
H627 C650 0.950 . S
H628 C651 0.950 . S
H629 C653 0.950 . S
H630 C654 0.950 . S
H631 C655 0.951 . S
H632 C657 0.951 . S
H633 C659 0.950 . S
H634 C660 0.950 . S
H635 C662 0.950 . S
H636 C665 0.950 . S
H637 C666 0.950 . S
H638 C668 0.950 . S
H639 C669 0.950 . S
C640 H622 0.951 . S
C640 C641 1.366 . S
C640 C642 1.388 . S
C641 C640 1.366 . S
C641 C645 1.385 . S
C642 H623 0.951 . S
C642 C640 1.388 . S
C642 C643 1.366 . S
C643 C642 1.366 . S
C643 C644 1.414 . S
C643 C646 1.499 . S
C644 H624 0.950 . S
C644 C643 1.414 . S
C644 C645 1.374 . S
C645 H625 0.950 . S
C645 C641 1.385 . S
C645 C644 1.374 . S
C646 C643 1.499 . S
C646 C647 1.373 . S
C646 C648 1.389 1_455 S
C647 H626 0.950 . S
C647 C646 1.373 . S
C647 C663 1.377 . S
C648 C646 1.389 1_655 S
C648 C649 1.524 . S
C648 C662 1.377 . S
C649 C648 1.524 . S
C649 C650 1.397 . S
C649 C654 1.363 . S
C650 H627 0.950 . S
C650 C649 1.397 . S
C650 C651 1.334 . S
C651 H628 0.950 . S
C651 C650 1.334 . S
C651 C652 1.287 . S
C652 C651 1.287 . S
C652 C653 1.524 . S
C652 H671 0.913 . S
C653 H629 0.950 . S
C653 C652 1.524 . S
C653 C654 1.415 . S
C654 H630 0.950 . S
C654 C649 1.363 . S
C654 C653 1.415 . S
C655 H631 0.951 . S
C655 C656 1.366 . S
C655 C657 1.388 . S
C656 C655 1.366 . S
C656 C660 1.385 . S
C657 H632 0.951 . S
C657 C655 1.388 . S
C657 C658 1.366 . S
C658 C657 1.366 . S
C658 C659 1.414 . S
C658 C661 1.499 . S
C659 H633 0.950 . S
C659 C658 1.414 . S
C659 C660 1.374 . S
C660 H634 0.950 . S
C660 C656 1.385 . S
C660 C659 1.374 . S
C661 C658 1.499 . S
C661 C662 1.373 1_455 S
C661 C663 1.389 . S
C662 H635 0.950 . S
C662 C648 1.377 . S
C662 C661 1.373 1_655 S
C663 C647 1.377 . S
C663 C661 1.389 . S
C663 C664 1.524 . S
C664 C663 1.524 . S
C664 C665 1.397 . S
C664 C669 1.363 . S
C665 H636 0.950 . S
C665 C664 1.397 . S
C665 C666 1.334 . S
C666 H637 0.950 . S
C666 C665 1.334 . S
C666 C667 1.287 . S
C667 C666 1.287 . S
C667 C668 1.524 . S
C667 H670 0.999 . S
C668 H638 0.950 . S
C668 C667 1.524 . S
C668 C669 1.415 . S
C669 H639 0.950 . S
C669 C664 1.363 . S
C669 C668 1.415 . S
H670 C667 0.999 . S
H671 C652 0.913 . S
H672 C690 0.951 . S
H673 C692 0.951 . S
H674 C694 0.950 . S
H675 C695 0.950 . S
H676 C697 0.950 . S
H677 C700 0.950 . S
H678 C701 0.950 . S
H679 C703 0.950 . S
H680 C704 0.950 . S
H681 C705 0.951 . S
H682 C707 0.951 . S
H683 C709 0.950 . S
H684 C710 0.950 . S
H685 C712 0.950 . S
H686 C715 0.950 . S
H687 C716 0.950 . S
H688 C718 0.950 . S
H689 C719 0.950 . S
C690 H672 0.951 . S
C690 C691 1.366 1_655 S
C690 C692 1.388 . S
C691 C690 1.366 1_455 S
C691 C695 1.385 . S
C692 H673 0.951 . S
C692 C690 1.388 . S
C692 C693 1.366 1_655 S
C693 C692 1.366 1_455 S
C693 C694 1.414 . S
C693 C696 1.499 . S
C694 H674 0.950 . S
C694 C693 1.414 . S
C694 C695 1.374 . S
C695 H675 0.950 . S
C695 C691 1.385 . S
C695 C694 1.374 . S
C696 C693 1.499 . S
C696 C697 1.373 . S
C696 C698 1.389 1_455 S
C697 H676 0.950 . S
C697 C696 1.373 . S
C697 C713 1.377 1_554 S
C698 C696 1.389 1_655 S
C698 C699 1.524 . S
C698 C712 1.377 1_554 S
C699 C698 1.524 . S
C699 C700 1.397 1_554 S
C699 C704 1.363 . S
C700 H677 0.950 . S
C700 C699 1.397 1_556 S
C700 C701 1.334 . S
C701 H678 0.950 . S
C701 C700 1.334 . S
C701 C702 1.287 . S
C702 C701 1.287 . S
C702 C703 1.524 1_556 S
C702 H721 0.913 . S
C703 H679 0.950 . S
C703 C702 1.524 1_554 S
C703 C704 1.415 . S
C704 H680 0.950 . S
C704 C699 1.363 . S
C704 C703 1.415 . S
C705 H681 0.951 . S
C705 C706 1.366 1_455 S
C705 C707 1.388 . S
C706 C705 1.366 1_655 S
C706 C710 1.385 . S
C707 H682 0.951 . S
C707 C705 1.388 . S
C707 C708 1.366 1_455 S
C708 C707 1.366 1_655 S
C708 C709 1.414 . S
C708 C711 1.499 . S
C709 H683 0.950 . S
C709 C708 1.414 . S
C709 C710 1.374 . S
C710 H684 0.950 . S
C710 C706 1.385 . S
C710 C709 1.374 . S
C711 C708 1.499 . S
C711 C712 1.373 . S
C711 C713 1.389 1_655 S
C712 H685 0.950 . S
C712 C698 1.377 1_556 S
C712 C711 1.373 . S
C713 C697 1.377 1_556 S
C713 C711 1.389 1_455 S
C713 C714 1.524 . S
C714 C713 1.524 . S
C714 C715 1.397 1_556 S
C714 C719 1.363 . S
C715 H686 0.950 . S
C715 C714 1.397 1_554 S
C715 C716 1.334 . S
C716 H687 0.950 . S
C716 C715 1.334 . S
C716 C717 1.287 . S
C717 C716 1.287 . S
C717 C718 1.524 1_554 S
C717 H720 0.999 . S
C718 H688 0.950 . S
C718 C717 1.524 1_556 S
C718 C719 1.415 . S
C719 H689 0.950 . S
C719 C714 1.363 . S
C719 C718 1.415 . S
H720 C717 0.999 . S
H721 C702 0.913 . S
H722 C740 0.951 . S
H723 C742 0.951 . S
H724 C744 0.950 . S
H725 C745 0.950 . S
H726 C747 0.950 . S
H727 C750 0.950 . S
H728 C751 0.950 . S
H729 C753 0.950 . S
H730 C754 0.950 . S
H731 C755 0.951 . S
H732 C757 0.951 . S
H733 C759 0.950 . S
H734 C760 0.950 . S
H735 C762 0.950 . S
H736 C765 0.950 . S
H737 C766 0.950 . S
H738 C768 0.950 . S
H739 C769 0.950 . S
C740 H722 0.951 . S
C740 C741 1.366 . S
C740 C742 1.388 . S
C741 C740 1.366 . S
C741 C745 1.385 . S
C742 H723 0.951 . S
C742 C740 1.388 . S
C742 C743 1.366 . S
C743 C742 1.366 . S
C743 C744 1.414 . S
C743 C746 1.499 . S
C744 H724 0.950 . S
C744 C743 1.414 . S
C744 C745 1.374 . S
C745 H725 0.950 . S
C745 C741 1.385 . S
C745 C744 1.374 . S
C746 C743 1.499 . S
C746 C747 1.373 1_554 S
C746 C748 1.389 . S
C747 H726 0.950 . S
C747 C746 1.373 1_556 S
C747 C763 1.377 . S
C748 C746 1.389 . S
C748 C749 1.524 . S
C748 C762 1.377 . S
C749 C748 1.524 . S
C749 C750 1.397 . S
C749 C754 1.363 . S
C750 H727 0.950 . S
C750 C749 1.397 . S
C750 C751 1.334 . S
C751 H728 0.950 . S
C751 C750 1.334 . S
C751 C752 1.287 . S
C752 C751 1.287 . S
C752 C753 1.524 . S
C752 H771 0.913 . S
C753 H729 0.950 . S
C753 C752 1.524 . S
C753 C754 1.415 . S
C754 H730 0.950 . S
C754 C749 1.363 . S
C754 C753 1.415 . S
C755 H731 0.951 . S
C755 C756 1.366 . S
C755 C757 1.388 . S
C756 C755 1.366 . S
C756 C760 1.385 . S
C757 H732 0.951 . S
C757 C755 1.388 . S
C757 C758 1.366 . S
C758 C757 1.366 . S
C758 C759 1.414 . S
C758 C761 1.499 . S
C759 H733 0.950 . S
C759 C758 1.414 . S
C759 C760 1.374 . S
C760 H734 0.950 . S
C760 C756 1.385 . S
C760 C759 1.374 . S
C761 C758 1.499 . S
C761 C762 1.373 1_556 S
C761 C763 1.389 . S
C762 H735 0.950 . S
C762 C748 1.377 . S
C762 C761 1.373 1_554 S
C763 C747 1.377 . S
C763 C761 1.389 . S
C763 C764 1.524 . S
C764 C763 1.524 . S
C764 C765 1.397 . S
C764 C769 1.363 . S
C765 H736 0.950 . S
C765 C764 1.397 . S
C765 C766 1.334 . S
C766 H737 0.950 . S
C766 C765 1.334 . S
C766 C767 1.287 . S
C767 C766 1.287 . S
C767 C768 1.524 . S
C767 H770 0.999 . S
C768 H738 0.950 . S
C768 C767 1.524 . S
C768 C769 1.415 . S
C769 H739 0.950 . S
C769 C764 1.363 . S
C769 C768 1.415 . S
H770 C767 0.999 . S
H771 C752 0.913 . S
H772 C790 0.951 . S
H773 C792 0.951 . S
H774 C794 0.950 . S
H775 C795 0.950 . S
H776 C797 0.950 . S
H777 C800 0.950 . S
H778 C801 0.950 . S
H779 C803 0.950 . S
H780 C804 0.950 . S
H781 C805 0.951 . S
H782 C807 0.951 . S
H783 C809 0.950 . S
H784 C810 0.950 . S
H785 C812 0.950 . S
H786 C815 0.950 . S
H787 C816 0.950 . S
H788 C818 0.950 . S
H789 C819 0.950 . S
C790 H772 0.951 . S
C790 C791 1.366 . S
C790 C792 1.388 . S
C791 C790 1.366 . S
C791 C795 1.385 . S
C792 H773 0.951 . S
C792 C790 1.388 . S
C792 C793 1.366 . S
C793 C792 1.366 . S
C793 C794 1.414 . S
C793 C796 1.499 . S
C794 H774 0.950 . S
C794 C793 1.414 . S
C794 C795 1.374 . S
C795 H775 0.950 . S
C795 C791 1.385 . S
C795 C794 1.374 . S
C796 C793 1.499 . S
C796 C797 1.373 1_545 S
C796 C798 1.389 . S
C797 H776 0.950 . S
C797 C796 1.373 1_565 S
C797 C813 1.377 . S
C798 C796 1.389 . S
C798 C799 1.524 . S
C798 C812 1.377 . S
C799 C798 1.524 . S
C799 C800 1.397 . S
C799 C804 1.363 . S
C800 H777 0.950 . S
C800 C799 1.397 . S
C800 C801 1.334 . S
C801 H778 0.950 . S
C801 C800 1.334 . S
C801 C802 1.287 . S
C802 C801 1.287 . S
C802 C803 1.524 . S
C802 H821 0.913 . S
C803 H779 0.950 . S
C803 C802 1.524 . S
C803 C804 1.415 . S
C804 H780 0.950 . S
C804 C799 1.363 . S
C804 C803 1.415 . S
C805 H781 0.951 . S
C805 C806 1.366 . S
C805 C807 1.388 . S
C806 C805 1.366 . S
C806 C810 1.385 . S
C807 H782 0.951 . S
C807 C805 1.388 . S
C807 C808 1.366 . S
C808 C807 1.366 . S
C808 C809 1.414 . S
C808 C811 1.499 . S
C809 H783 0.950 . S
C809 C808 1.414 . S
C809 C810 1.374 . S
C810 H784 0.950 . S
C810 C806 1.385 . S
C810 C809 1.374 . S
C811 C808 1.499 . S
C811 C812 1.373 1_565 S
C811 C813 1.389 . S
C812 H785 0.950 . S
C812 C798 1.377 . S
C812 C811 1.373 1_545 S
C813 C797 1.377 . S
C813 C811 1.389 . S
C813 C814 1.524 . S
C814 C813 1.524 . S
C814 C815 1.397 . S
C814 C819 1.363 . S
C815 H786 0.950 . S
C815 C814 1.397 . S
C815 C816 1.334 . S
C816 H787 0.950 . S
C816 C815 1.334 . S
C816 C817 1.287 . S
C817 C816 1.287 . S
C817 C818 1.524 . S
C817 H820 0.999 . S
C818 H788 0.950 . S
C818 C817 1.524 . S
C818 C819 1.415 . S
C819 H789 0.950 . S
C819 C814 1.363 . S
C819 C818 1.415 . S
H820 C817 0.999 . S
H821 C802 0.913 . S
H822 C840 0.951 . S
H823 C842 0.951 . S
H824 C844 0.947 1_455 S
H825 C845 0.950 1_455 S
H826 C847 0.950 . S
H827 C850 0.950 . S
H828 C851 0.950 . S
H829 C853 0.950 . S
H830 C854 0.950 . S
H831 C855 0.951 . S
H832 C857 0.951 . S
H833 C859 0.947 1_655 S
H834 C860 0.950 1_655 S
H835 C862 0.950 . S
H836 C865 0.950 . S
H837 C866 0.950 . S
H838 C868 0.950 . S
H839 C869 0.950 . S
C840 H822 0.951 . S
C840 C841 1.366 . S
C840 C842 1.388 . S
C841 C840 1.366 . S
C841 C845 1.385 . S
C842 H823 0.951 . S
C842 C840 1.388 . S
C842 C843 1.366 . S
C843 C842 1.366 . S
C843 C844 1.418 . S
C843 C846 1.499 . S
C844 H824 0.947 1_655 S
C844 C843 1.418 . S
C844 C845 1.373 . S
C845 H825 0.950 1_655 S
C845 C841 1.385 . S
C845 C844 1.373 . S
C846 C843 1.499 . S
C846 C847 1.373 1_655 S
C846 C848 1.389 . S
C847 H826 0.950 . S
C847 C846 1.373 1_455 S
C847 C863 1.377 1_565 S
C848 C846 1.389 . S
C848 C849 1.524 . S
C848 C862 1.377 1_565 S
C849 C848 1.524 . S
C849 C850 1.397 . S
C849 C854 1.363 . S
C850 H827 0.950 . S
C850 C849 1.397 . S
C850 C851 1.334 . S
C851 H828 0.950 . S
C851 C850 1.334 . S
C851 C852 1.287 . S
C852 C851 1.287 . S
C852 C853 1.524 . S
C852 H871 0.913 . S
C853 H829 0.950 . S
C853 C852 1.524 . S
C853 C854 1.415 . S
C854 H830 0.950 . S
C854 C849 1.363 . S
C854 C853 1.415 . S
C855 H831 0.951 . S
C855 C856 1.366 . S
C855 C857 1.388 . S
C856 C855 1.366 . S
C856 C860 1.385 . S
C857 H832 0.951 . S
C857 C855 1.388 . S
C857 C858 1.366 . S
C858 C857 1.366 . S
C858 C859 1.418 . S
C858 C861 1.499 . S
C859 H833 0.947 1_455 S
C859 C858 1.418 . S
C859 C860 1.373 . S
C860 H834 0.950 1_455 S
C860 C856 1.385 . S
C860 C859 1.373 . S
C861 C858 1.499 . S
C861 C862 1.373 1_455 S
C861 C863 1.389 . S
C862 H835 0.950 . S
C862 C848 1.377 1_545 S
C862 C861 1.373 1_655 S
C863 C847 1.377 1_545 S
C863 C861 1.389 . S
C863 C864 1.524 . S
C864 C863 1.524 . S
C864 C865 1.397 . S
C864 C869 1.363 . S
C865 H836 0.950 . S
C865 C864 1.397 . S
C865 C866 1.334 . S
C866 H837 0.950 . S
C866 C865 1.334 . S
C866 C867 1.287 . S
C867 C866 1.287 . S
C867 C868 1.524 . S
C867 H870 0.999 . S
C868 H838 0.950 . S
C868 C867 1.524 . S
C868 C869 1.415 . S
C869 H839 0.950 . S
C869 C864 1.363 . S
C869 C868 1.415 . S
H870 C867 0.999 . S
H871 C852 0.913 . S
H872 C890 0.951 . S
H873 C892 0.951 . S
H874 C894 0.950 1_556 S
H875 C895 0.950 . S
H876 C897 0.950 . S
H877 C900 0.950 . S
H878 C901 0.950 . S
H879 C903 0.950 . S
H880 C904 0.950 . S
H881 C905 0.951 . S
H882 C907 0.951 . S
H883 C909 0.950 1_554 S
H884 C910 0.950 . S
H885 C912 0.950 . S
H886 C915 0.950 . S
H887 C916 0.950 . S
H888 C918 0.950 . S
H889 C919 0.950 . S
C890 H872 0.951 . S
C890 C891 1.366 . S
C890 C892 1.388 . S
C891 C890 1.366 . S
C891 C895 1.385 . S
C892 H873 0.951 . S
C892 C890 1.388 . S
C892 C893 1.366 . S
C893 C892 1.366 . S
C893 C894 1.414 . S
C893 C896 1.499 . S
C894 H874 0.950 1_554 S
C894 C893 1.414 . S
C894 C895 1.374 . S
C895 H875 0.950 . S
C895 C891 1.385 . S
C895 C894 1.374 . S
C896 C893 1.499 . S
C896 C897 1.373 1_554 S
C896 C898 1.389 . S
C897 H876 0.950 . S
C897 C896 1.373 1_556 S
C897 C913 1.377 . S
C898 C896 1.389 . S
C898 C899 1.524 . S
C898 C912 1.377 . S
C899 C898 1.524 . S
C899 C900 1.397 . S
C899 C904 1.363 . S
C900 H877 0.950 . S
C900 C899 1.397 . S
C900 C901 1.334 . S
C901 H878 0.950 . S
C901 C900 1.334 . S
C901 C902 1.287 . S
C902 C901 1.287 . S
C902 C903 1.524 . S
C902 H921 0.913 . S
C903 H879 0.950 . S
C903 C902 1.524 . S
C903 C904 1.415 . S
C904 H880 0.950 . S
C904 C899 1.363 . S
C904 C903 1.415 . S
C905 H881 0.951 . S
C905 C906 1.366 . S
C905 C907 1.388 . S
C906 C905 1.366 . S
C906 C910 1.385 . S
C907 H882 0.951 . S
C907 C905 1.388 . S
C907 C908 1.366 . S
C908 C907 1.366 . S
C908 C909 1.414 . S
C908 C911 1.499 . S
C909 H883 0.950 1_556 S
C909 C908 1.414 . S
C909 C910 1.374 . S
C910 H884 0.950 . S
C910 C906 1.385 . S
C910 C909 1.374 . S
C911 C908 1.499 . S
C911 C912 1.373 1_556 S
C911 C913 1.389 . S
C912 H885 0.950 . S
C912 C898 1.377 . S
C912 C911 1.373 1_554 S
C913 C897 1.377 . S
C913 C911 1.389 . S
C913 C914 1.524 . S
C914 C913 1.524 . S
C914 C915 1.397 . S
C914 C919 1.363 . S
C915 H886 0.950 . S
C915 C914 1.397 . S
C915 C916 1.334 . S
C916 H887 0.950 . S
C916 C915 1.334 . S
C916 C917 1.287 . S
C917 C916 1.287 . S
C917 C918 1.524 . S
C917 H920 0.999 . S
C918 H888 0.950 . S
C918 C917 1.524 . S
C918 C919 1.415 . S
C919 H889 0.950 . S
C919 C914 1.363 . S
C919 C918 1.415 . S
H920 C917 0.999 . S
H921 C902 0.913 . S
H922 C940 0.951 . S
H923 C942 0.951 . S
H924 C944 0.950 1_556 S
H925 C945 0.950 . S
H926 C947 0.950 . S
H927 C950 0.950 . S
H928 C951 0.950 . S
H929 C953 0.950 . S
H930 C954 0.950 . S
H931 C955 0.951 . S
H932 C957 0.951 . S
H933 C959 0.950 1_554 S
H934 C960 0.950 . S
H935 C962 0.950 . S
H936 C965 0.950 . S
H937 C966 0.950 . S
H938 C968 0.950 . S
H939 C969 0.950 . S
C940 H922 0.951 . S
C940 C941 1.366 . S
C940 C942 1.388 . S
C941 C940 1.366 . S
C941 C945 1.385 . S
C942 H923 0.951 . S
C942 C940 1.388 . S
C942 C943 1.366 . S
C943 C942 1.366 . S
C943 C944 1.414 . S
C943 C946 1.499 . S
C944 H924 0.950 1_554 S
C944 C943 1.414 . S
C944 C945 1.374 . S
C945 H925 0.950 . S
C945 C941 1.385 . S
C945 C944 1.374 . S
C946 C943 1.499 . S
C946 C947 1.373 1_554 S
C946 C948 1.389 . S
C947 H926 0.950 . S
C947 C946 1.373 1_556 S
C947 C963 1.377 . S
C948 C946 1.389 . S
C948 C949 1.524 . S
C948 C962 1.377 . S
C949 C948 1.524 . S
C949 C950 1.397 . S
C949 C954 1.363 . S
C950 H927 0.950 . S
C950 C949 1.397 . S
C950 C951 1.334 . S
C951 H928 0.950 . S
C951 C950 1.334 . S
C951 C952 1.287 . S
C952 C951 1.287 . S
C952 C953 1.524 . S
C952 H971 0.913 . S
C953 H929 0.950 . S
C953 C952 1.524 . S
C953 C954 1.415 . S
C954 H930 0.950 . S
C954 C949 1.363 . S
C954 C953 1.415 . S
C955 H931 0.951 . S
C955 C956 1.366 . S
C955 C957 1.388 . S
C956 C955 1.366 . S
C956 C960 1.385 . S
C957 H932 0.951 . S
C957 C955 1.388 . S
C957 C958 1.366 . S
C958 C957 1.366 . S
C958 C959 1.414 . S
C958 C961 1.499 . S
C959 H933 0.950 1_556 S
C959 C958 1.414 . S
C959 C960 1.374 . S
C960 H934 0.950 . S
C960 C956 1.385 . S
C960 C959 1.374 . S
C961 C958 1.499 . S
C961 C962 1.373 1_556 S
C961 C963 1.389 . S
C962 H935 0.950 . S
C962 C948 1.377 . S
C962 C961 1.373 1_554 S
C963 C947 1.377 . S
C963 C961 1.389 . S
C963 C964 1.524 . S
C964 C963 1.524 . S
C964 C965 1.397 . S
C964 C969 1.363 . S
C965 H936 0.950 . S
C965 C964 1.397 . S
C965 C966 1.334 . S
C966 H937 0.950 . S
C966 C965 1.334 . S
C966 C967 1.287 . S
C967 C966 1.287 . S
C967 C968 1.524 . S
C967 H970 0.999 . S
C968 H938 0.950 . S
C968 C967 1.524 . S
C968 C969 1.415 . S
C969 H939 0.950 . S
C969 C964 1.363 . S
C969 C968 1.415 . S
H970 C967 0.999 . S
H971 C952 0.913 . S
H972 C990 0.951 . S
H973 C992 0.951 . S
H974 C994 0.950 . S
H975 C995 0.950 . S
H976 C997 0.950 . S
H977 C1000 0.950 . S
H978 C1001 0.950 . S
H979 C1003 0.950 . S
H980 C1004 0.950 . S
H981 C1005 0.951 . S
H982 C1007 0.951 . S
H983 C1009 0.950 . S
H984 C1010 0.950 . S
H985 C1012 0.950 . S
H986 C1015 0.950 . S
H987 C1016 0.950 . S
H988 C1018 0.950 . S
H989 C1019 0.950 . S
C990 H972 0.951 . S
C990 C991 1.366 . S
C990 C992 1.388 . S
C991 C990 1.366 . S
C991 C995 1.385 . S
C992 H973 0.951 . S
C992 C990 1.388 . S
C992 C993 1.366 . S
C993 C992 1.366 . S
C993 C994 1.414 . S
C993 C996 1.499 . S
C994 H974 0.950 . S
C994 C993 1.414 . S
C994 C995 1.374 . S
C995 H975 0.950 . S
C995 C991 1.385 . S
C995 C994 1.374 . S
C996 C993 1.499 . S
C996 C997 1.373 . S
C996 C998 1.389 . S
C997 H976 0.950 . S
C997 C996 1.373 . S
C997 C1013 1.377 . S
C998 C996 1.389 . S
C998 C999 1.524 . S
C998 C1012 1.377 . S
C999 C998 1.524 . S
C999 C1000 1.397 . S
C999 C1004 1.363 . S
C1000 H977 0.950 . S
C1000 C999 1.397 . S
C1000 C1001 1.334 . S
C1001 H978 0.950 . S
C1001 C1000 1.334 . S
C1001 C1002 1.287 . S
C1002 C1001 1.287 . S
C1002 C1003 1.524 . S
C1002 H1021 0.913 . S
C1003 H979 0.950 . S
C1003 C1002 1.524 . S
C1003 C1004 1.415 . S
C1004 H980 0.950 . S
C1004 C999 1.363 . S
C1004 C1003 1.415 . S
C1005 H981 0.951 . S
C1005 C1006 1.366 . S
C1005 C1007 1.388 . S
C1006 C1005 1.366 . S
C1006 C1010 1.385 . S
C1007 H982 0.951 . S
C1007 C1005 1.388 . S
C1007 C1008 1.366 . S
C1008 C1007 1.366 . S
C1008 C1009 1.414 . S
C1008 C1011 1.499 . S
C1009 H983 0.950 . S
C1009 C1008 1.414 . S
C1009 C1010 1.374 . S
C1010 H984 0.950 . S
C1010 C1006 1.385 . S
C1010 C1009 1.374 . S
C1011 C1008 1.499 . S
C1011 C1012 1.373 . S
C1011 C1013 1.389 . S
C1012 H985 0.950 . S
C1012 C998 1.377 . S
C1012 C1011 1.373 . S
C1013 C997 1.377 . S
C1013 C1011 1.389 . S
C1013 C1014 1.524 . S
C1014 C1013 1.524 . S
C1014 C1015 1.397 . S
C1014 C1019 1.363 . S
C1015 H986 0.950 . S
C1015 C1014 1.397 . S
C1015 C1016 1.334 . S
C1016 H987 0.950 . S
C1016 C1015 1.334 . S
C1016 C1017 1.287 . S
C1017 C1016 1.287 . S
C1017 C1018 1.524 . S
C1017 H1020 0.999 . S
C1018 H988 0.950 . S
C1018 C1017 1.524 . S
C1018 C1019 1.415 . S
C1019 H989 0.950 . S
C1019 C1014 1.363 . S
C1019 C1018 1.415 . S
H1020 C1017 0.999 . S
H1021 C1002 0.913 . S
H1022 C1040 0.951 . S
H1023 C1042 0.951 . S
H1024 C1044 0.950 . S
H1025 C1045 0.950 . S
H1026 C1047 0.950 . S
H1027 C1050 0.950 . S
H1028 C1051 0.950 . S
H1029 C1053 0.950 . S
H1030 C1054 0.950 . S
H1031 C1055 0.951 . S
H1032 C1057 0.951 . S
H1033 C1059 0.950 . S
H1034 C1060 0.950 . S
H1035 C1062 0.950 . S
H1036 C1065 0.950 . S
H1037 C1066 0.950 . S
H1038 C1068 0.950 . S
H1039 C1069 0.950 . S
C1040 H1022 0.951 . S
C1040 C1041 1.366 . S
C1040 C1042 1.388 . S
C1041 C1040 1.366 . S
C1041 C1045 1.385 . S
C1042 H1023 0.951 . S
C1042 C1040 1.388 . S
C1042 C1043 1.366 . S
C1043 C1042 1.366 . S
C1043 C1044 1.414 . S
C1043 C1046 1.499 . S
C1044 H1024 0.950 . S
C1044 C1043 1.414 . S
C1044 C1045 1.374 . S
C1045 H1025 0.950 . S
C1045 C1041 1.385 . S
C1045 C1044 1.374 . S
C1046 C1043 1.499 . S
C1046 C1047 1.373 . S
C1046 C1048 1.389 . S
C1047 H1026 0.950 . S
C1047 C1046 1.373 . S
C1047 C1063 1.377 . S
C1048 C1046 1.389 . S
C1048 C1049 1.524 . S
C1048 C1062 1.377 . S
C1049 C1048 1.524 . S
C1049 C1050 1.397 . S
C1049 C1054 1.363 . S
C1050 H1027 0.950 . S
C1050 C1049 1.397 . S
C1050 C1051 1.334 . S
C1051 H1028 0.950 . S
C1051 C1050 1.334 . S
C1051 C1052 1.287 . S
C1052 C1051 1.287 . S
C1052 C1053 1.524 . S
C1052 H1071 0.913 . S
C1053 H1029 0.950 . S
C1053 C1052 1.524 . S
C1053 C1054 1.415 . S
C1054 H1030 0.950 . S
C1054 C1049 1.363 . S
C1054 C1053 1.415 . S
C1055 H1031 0.951 . S
C1055 C1056 1.366 . S
C1055 C1057 1.388 . S
C1056 C1055 1.366 . S
C1056 C1060 1.385 . S
C1057 H1032 0.951 . S
C1057 C1055 1.388 . S
C1057 C1058 1.366 . S
C1058 C1057 1.366 . S
C1058 C1059 1.414 . S
C1058 C1061 1.499 . S
C1059 H1033 0.950 . S
C1059 C1058 1.414 . S
C1059 C1060 1.374 . S
C1060 H1034 0.950 . S
C1060 C1056 1.385 . S
C1060 C1059 1.374 . S
C1061 C1058 1.499 . S
C1061 C1062 1.373 . S
C1061 C1063 1.389 . S
C1062 H1035 0.950 . S
C1062 C1048 1.377 . S
C1062 C1061 1.373 . S
C1063 C1047 1.377 . S
C1063 C1061 1.389 . S
C1063 C1064 1.524 . S
C1064 C1063 1.524 . S
C1064 C1065 1.397 . S
C1064 C1069 1.363 . S
C1065 H1036 0.950 . S
C1065 C1064 1.397 . S
C1065 C1066 1.334 . S
C1066 H1037 0.950 . S
C1066 C1065 1.334 . S
C1066 C1067 1.287 . S
C1067 C1066 1.287 . S
C1067 C1068 1.524 . S
C1067 H1070 0.999 . S
C1068 H1038 0.950 . S
C1068 C1067 1.524 . S
C1068 C1069 1.415 . S
C1069 H1039 0.950 . S
C1069 C1064 1.363 . S
C1069 C1068 1.415 . S
H1070 C1067 0.999 . S
H1071 C1052 0.913 . S
H1072 C1090 0.951 . S
H1073 C1092 0.951 . S
H1074 C1094 0.950 . S
H1075 C1095 0.950 . S
H1076 C1097 0.950 . S
H1077 C1100 0.950 . S
H1078 C1101 0.950 . S
H1079 C1103 0.950 . S
H1080 C1104 0.950 . S
H1081 C1105 0.951 . S
H1082 C1107 0.951 . S
H1083 C1109 0.950 . S
H1084 C1110 0.950 . S
H1085 C1112 0.950 . S
H1086 C1115 0.950 . S
H1087 C1116 0.950 . S
H1088 C1118 0.950 . S
H1089 C1119 0.950 . S
C1090 H1072 0.951 . S
C1090 C1091 1.366 . S
C1090 C1092 1.388 . S
C1091 C1090 1.366 . S
C1091 C1095 1.385 . S
C1092 H1073 0.951 . S
C1092 C1090 1.388 . S
C1092 C1093 1.366 . S
C1093 C1092 1.366 . S
C1093 C1094 1.414 . S
C1093 C1096 1.499 . S
C1094 H1074 0.950 . S
C1094 C1093 1.414 . S
C1094 C1095 1.374 . S
C1095 H1075 0.950 . S
C1095 C1091 1.385 . S
C1095 C1094 1.374 . S
C1096 C1093 1.499 . S
C1096 C1097 1.373 . S
C1096 C1098 1.389 . S
C1097 H1076 0.950 . S
C1097 C1096 1.373 . S
C1097 C1113 1.377 . S
C1098 C1096 1.389 . S
C1098 C1099 1.524 . S
C1098 C1112 1.377 . S
C1099 C1098 1.524 . S
C1099 C1100 1.397 . S
C1099 C1104 1.363 . S
C1100 H1077 0.950 . S
C1100 C1099 1.397 . S
C1100 C1101 1.334 . S
C1101 H1078 0.950 . S
C1101 C1100 1.334 . S
C1101 C1102 1.287 . S
C1102 C1101 1.287 . S
C1102 C1103 1.524 . S
C1102 H1121 0.913 . S
C1103 H1079 0.950 . S
C1103 C1102 1.524 . S
C1103 C1104 1.415 . S
C1104 H1080 0.950 . S
C1104 C1099 1.363 . S
C1104 C1103 1.415 . S
C1105 H1081 0.951 . S
C1105 C1106 1.366 . S
C1105 C1107 1.388 . S
C1106 C1105 1.366 . S
C1106 C1110 1.385 . S
C1107 H1082 0.951 . S
C1107 C1105 1.388 . S
C1107 C1108 1.366 . S
C1108 C1107 1.366 . S
C1108 C1109 1.414 . S
C1108 C1111 1.499 . S
C1109 H1083 0.950 . S
C1109 C1108 1.414 . S
C1109 C1110 1.374 . S
C1110 H1084 0.950 . S
C1110 C1106 1.385 . S
C1110 C1109 1.374 . S
C1111 C1108 1.499 . S
C1111 C1112 1.373 . S
C1111 C1113 1.389 . S
C1112 H1085 0.950 . S
C1112 C1098 1.377 . S
C1112 C1111 1.373 . S
C1113 C1097 1.377 . S
C1113 C1111 1.389 . S
C1113 C1114 1.524 . S
C1114 C1113 1.524 . S
C1114 C1115 1.397 . S
C1114 C1119 1.363 . S
C1115 H1086 0.950 . S
C1115 C1114 1.397 . S
C1115 C1116 1.334 . S
C1116 H1087 0.950 . S
C1116 C1115 1.334 . S
C1116 C1117 1.287 . S
C1117 C1116 1.287 . S
C1117 C1118 1.524 . S
C1117 H1120 0.999 . S
C1118 H1088 0.950 . S
C1118 C1117 1.524 . S
C1118 C1119 1.415 . S
C1119 H1089 0.950 . S
C1119 C1114 1.363 . S
C1119 C1118 1.415 . S
H1120 C1117 0.999 . S
H1121 C1102 0.913 . S
H1122 C1140 0.951 . S
H1123 C1142 0.951 . S
H1124 C1144 0.950 . S
H1125 C1145 0.950 . S
H1126 C1147 0.950 . S
H1127 C1150 0.950 . S
H1128 C1151 0.950 . S
H1129 C1153 0.950 . S
H1130 C1154 0.950 . S
H1131 C1155 0.951 . S
H1132 C1157 0.951 . S
H1133 C1159 0.950 . S
H1134 C1160 0.950 . S
H1135 C1162 0.950 . S
H1136 C1165 0.950 . S
H1137 C1166 0.950 . S
H1138 C1168 0.950 . S
H1139 C1169 0.950 . S
C1140 H1122 0.951 . S
C1140 C1141 1.366 . S
C1140 C1142 1.388 . S
C1141 C1140 1.366 . S
C1141 C1145 1.385 . S
C1142 H1123 0.951 . S
C1142 C1140 1.388 . S
C1142 C1143 1.366 . S
C1143 C1142 1.366 . S
C1143 C1144 1.414 . S
C1143 C1146 1.499 . S
C1144 H1124 0.950 . S
C1144 C1143 1.414 . S
C1144 C1145 1.374 . S
C1145 H1125 0.950 . S
C1145 C1141 1.385 . S
C1145 C1144 1.374 . S
C1146 C1143 1.499 . S
C1146 C1147 1.373 . S
C1146 C1148 1.389 . S
C1147 H1126 0.950 . S
C1147 C1146 1.373 . S
C1147 C1163 1.377 . S
C1148 C1146 1.389 . S
C1148 C1149 1.524 . S
C1148 C1162 1.377 . S
C1149 C1148 1.524 . S
C1149 C1150 1.397 . S
C1149 C1154 1.363 . S
C1150 H1127 0.950 . S
C1150 C1149 1.397 . S
C1150 C1151 1.334 . S
C1151 H1128 0.950 . S
C1151 C1150 1.334 . S
C1151 C1152 1.287 . S
C1152 C1151 1.287 . S
C1152 C1153 1.524 . S
C1152 H1171 0.913 . S
C1153 H1129 0.950 . S
C1153 C1152 1.524 . S
C1153 C1154 1.415 . S
C1154 H1130 0.950 . S
C1154 C1149 1.363 . S
C1154 C1153 1.415 . S
C1155 H1131 0.951 . S
C1155 C1156 1.366 . S
C1155 C1157 1.388 . S
C1156 C1155 1.366 . S
C1156 C1160 1.385 . S
C1157 H1132 0.951 . S
C1157 C1155 1.388 . S
C1157 C1158 1.366 . S
C1158 C1157 1.366 . S
C1158 C1159 1.414 . S
C1158 C1161 1.499 . S
C1159 H1133 0.950 . S
C1159 C1158 1.414 . S
C1159 C1160 1.374 . S
C1160 H1134 0.950 . S
C1160 C1156 1.385 . S
C1160 C1159 1.374 . S
C1161 C1158 1.499 . S
C1161 C1162 1.373 . S
C1161 C1163 1.389 . S
C1162 H1135 0.950 . S
C1162 C1148 1.377 . S
C1162 C1161 1.373 . S
C1163 C1147 1.377 . S
C1163 C1161 1.389 . S
C1163 C1164 1.524 . S
C1164 C1163 1.524 . S
C1164 C1165 1.397 . S
C1164 C1169 1.363 . S
C1165 H1136 0.950 . S
C1165 C1164 1.397 . S
C1165 C1166 1.334 . S
C1166 H1137 0.950 . S
C1166 C1165 1.334 . S
C1166 C1167 1.287 . S
C1167 C1166 1.287 . S
C1167 C1168 1.524 . S
C1167 H1170 0.999 . S
C1168 H1138 0.950 . S
C1168 C1167 1.524 . S
C1168 C1169 1.415 . S
C1169 H1139 0.950 . S
C1169 C1164 1.363 . S
C1169 C1168 1.415 . S
H1170 C1167 0.999 . S
H1171 C1152 0.913 . S
H1172 C1190 0.951 . S
H1173 C1192 0.951 . S
H1174 C1194 0.950 . S
H1175 C1195 0.950 . S
H1176 C1197 0.950 . S
H1177 C1200 0.950 . S
H1178 C1201 0.950 . S
H1179 C1203 0.950 . S
H1180 C1204 0.950 . S
H1181 C1205 0.951 . S
H1182 C1207 0.951 . S
H1183 C1209 0.950 . S
H1184 C1210 0.950 . S
H1185 C1212 0.950 . S
H1186 C1215 0.950 . S
H1187 C1216 0.950 . S
H1188 C1218 0.950 . S
H1189 C1219 0.950 . S
C1190 H1172 0.951 . S
C1190 C1191 1.366 . S
C1190 C1192 1.388 . S
C1191 C1190 1.366 . S
C1191 C1195 1.385 . S
C1192 H1173 0.951 . S
C1192 C1190 1.388 . S
C1192 C1193 1.366 . S
C1193 C1192 1.366 . S
C1193 C1194 1.414 . S
C1193 C1196 1.499 . S
C1194 H1174 0.950 . S
C1194 C1193 1.414 . S
C1194 C1195 1.374 . S
C1195 H1175 0.950 . S
C1195 C1191 1.385 . S
C1195 C1194 1.374 . S
C1196 C1193 1.499 . S
C1196 C1197 1.373 . S
C1196 C1198 1.389 . S
C1197 H1176 0.950 . S
C1197 C1196 1.373 . S
C1197 C1213 1.377 . S
C1198 C1196 1.389 . S
C1198 C1199 1.524 . S
C1198 C1212 1.377 . S
C1199 C1198 1.524 . S
C1199 C1200 1.397 . S
C1199 C1204 1.363 . S
C1200 H1177 0.950 . S
C1200 C1199 1.397 . S
C1200 C1201 1.334 . S
C1201 H1178 0.950 . S
C1201 C1200 1.334 . S
C1201 C1202 1.287 . S
C1202 C1201 1.287 . S
C1202 C1203 1.524 . S
C1202 H1221 0.913 . S
C1203 H1179 0.950 . S
C1203 C1202 1.524 . S
C1203 C1204 1.415 . S
C1204 H1180 0.950 . S
C1204 C1199 1.363 . S
C1204 C1203 1.415 . S
C1205 H1181 0.951 . S
C1205 C1206 1.366 . S
C1205 C1207 1.388 . S
C1206 C1205 1.366 . S
C1206 C1210 1.385 . S
C1207 H1182 0.951 . S
C1207 C1205 1.388 . S
C1207 C1208 1.366 . S
C1208 C1207 1.366 . S
C1208 C1209 1.414 . S
C1208 C1211 1.499 . S
C1209 H1183 0.950 . S
C1209 C1208 1.414 . S
C1209 C1210 1.374 . S
C1210 H1184 0.950 . S
C1210 C1206 1.385 . S
C1210 C1209 1.374 . S
C1211 C1208 1.499 . S
C1211 C1212 1.373 . S
C1211 C1213 1.389 . S
C1212 H1185 0.950 . S
C1212 C1198 1.377 . S
C1212 C1211 1.373 . S
C1213 C1197 1.377 . S
C1213 C1211 1.389 . S
C1213 C1214 1.524 . S
C1214 C1213 1.524 . S
C1214 C1215 1.397 . S
C1214 C1219 1.363 . S
C1215 H1186 0.950 . S
C1215 C1214 1.397 . S
C1215 C1216 1.334 . S
C1216 H1187 0.950 . S
C1216 C1215 1.334 . S
C1216 C1217 1.287 . S
C1217 C1216 1.287 . S
C1217 C1218 1.524 . S
C1217 H1220 0.999 . S
C1218 H1188 0.950 . S
C1218 C1217 1.524 . S
C1218 C1219 1.415 . S
C1219 H1189 0.950 . S
C1219 C1214 1.363 . S
C1219 C1218 1.415 . S
H1220 C1217 0.999 . S
H1221 C1202 0.913 . S
H1222 C1240 0.951 . S
H1223 C1242 0.951 . S
H1224 C1244 0.950 . S
H1225 C1245 0.950 . S
H1226 C1247 0.950 . S
H1227 C1250 0.950 . S
H1228 C1251 0.950 . S
H1229 C1253 0.950 . S
H1230 C1254 0.950 . S
H1231 C1255 0.951 . S
H1232 C1257 0.951 . S
H1233 C1259 0.950 . S
H1234 C1260 0.950 . S
H1235 C1262 0.950 . S
H1236 C1265 0.950 . S
H1237 C1266 0.950 . S
H1238 C1268 0.950 . S
H1239 C1269 0.950 . S
C1240 H1222 0.951 . S
C1240 C1241 1.366 . S
C1240 C1242 1.388 . S
C1241 C1240 1.366 . S
C1241 C1245 1.385 . S
C1242 H1223 0.951 . S
C1242 C1240 1.388 . S
C1242 C1243 1.366 . S
C1243 C1242 1.366 . S
C1243 C1244 1.414 . S
C1243 C1246 1.499 . S
C1244 H1224 0.950 . S
C1244 C1243 1.414 . S
C1244 C1245 1.374 . S
C1245 H1225 0.950 . S
C1245 C1241 1.385 . S
C1245 C1244 1.374 . S
C1246 C1243 1.499 . S
C1246 C1247 1.373 . S
C1246 C1248 1.389 . S
C1247 H1226 0.950 . S
C1247 C1246 1.373 . S
C1247 C1263 1.377 . S
C1248 C1246 1.389 . S
C1248 C1249 1.524 . S
C1248 C1262 1.377 . S
C1249 C1248 1.524 . S
C1249 C1250 1.397 . S
C1249 C1254 1.363 . S
C1250 H1227 0.950 . S
C1250 C1249 1.397 . S
C1250 C1251 1.334 . S
C1251 H1228 0.950 . S
C1251 C1250 1.334 . S
C1251 C1252 1.287 . S
C1252 C1251 1.287 . S
C1252 C1253 1.524 . S
C1252 H1271 0.913 . S
C1253 H1229 0.950 . S
C1253 C1252 1.524 . S
C1253 C1254 1.415 . S
C1254 H1230 0.950 . S
C1254 C1249 1.363 . S
C1254 C1253 1.415 . S
C1255 H1231 0.951 . S
C1255 C1256 1.366 . S
C1255 C1257 1.388 . S
C1256 C1255 1.366 . S
C1256 C1260 1.385 . S
C1257 H1232 0.951 . S
C1257 C1255 1.388 . S
C1257 C1258 1.366 . S
C1258 C1257 1.366 . S
C1258 C1259 1.414 . S
C1258 C1261 1.499 . S
C1259 H1233 0.950 . S
C1259 C1258 1.414 . S
C1259 C1260 1.374 . S
C1260 H1234 0.950 . S
C1260 C1256 1.385 . S
C1260 C1259 1.374 . S
C1261 C1258 1.499 . S
C1261 C1262 1.373 . S
C1261 C1263 1.389 . S
C1262 H1235 0.950 . S
C1262 C1248 1.377 . S
C1262 C1261 1.373 . S
C1263 C1247 1.377 . S
C1263 C1261 1.389 . S
C1263 C1264 1.524 . S
C1264 C1263 1.524 . S
C1264 C1265 1.397 . S
C1264 C1269 1.363 . S
C1265 H1236 0.950 . S
C1265 C1264 1.397 . S
C1265 C1266 1.334 . S
C1266 H1237 0.950 . S
C1266 C1265 1.334 . S
C1266 C1267 1.287 . S
C1267 C1266 1.287 . S
C1267 C1268 1.524 . S
C1267 H1270 0.999 . S
C1268 H1238 0.950 . S
C1268 C1267 1.524 . S
C1268 C1269 1.415 . S
C1269 H1239 0.950 . S
C1269 C1264 1.363 . S
C1269 C1268 1.415 . S
H1270 C1267 0.999 . S
H1271 C1252 0.913 . S
H1272 C1290 0.951 . S
H1273 C1292 0.951 . S
H1274 C1294 0.950 . S
H1275 C1295 0.950 . S
H1276 C1297 0.950 . S
H1277 C1300 0.950 . S
H1278 C1301 0.950 . S
H1279 C1303 0.950 . S
H1280 C1304 0.950 . S
H1281 C1305 0.951 . S
H1282 C1307 0.951 . S
H1283 C1309 0.950 . S
H1284 C1310 0.950 . S
H1285 C1312 0.950 . S
H1286 C1315 0.950 . S
H1287 C1316 0.950 . S
H1288 C1318 0.950 . S
H1289 C1319 0.950 . S
C1290 H1272 0.951 . S
C1290 C1291 1.366 . S
C1290 C1292 1.388 . S
C1291 C1290 1.366 . S
C1291 C1295 1.385 . S
C1292 H1273 0.951 . S
C1292 C1290 1.388 . S
C1292 C1293 1.366 . S
C1293 C1292 1.366 . S
C1293 C1294 1.414 . S
C1293 C1296 1.499 . S
C1294 H1274 0.950 . S
C1294 C1293 1.414 . S
C1294 C1295 1.374 . S
C1295 H1275 0.950 . S
C1295 C1291 1.385 . S
C1295 C1294 1.374 . S
C1296 C1293 1.499 . S
C1296 C1297 1.373 1_455 S
C1296 C1298 1.389 . S
C1297 H1276 0.950 . S
C1297 C1296 1.373 1_655 S
C1297 C1313 1.377 . S
C1298 C1296 1.389 . S
C1298 C1299 1.524 . S
C1298 C1312 1.377 . S
C1299 C1298 1.524 . S
C1299 C1300 1.397 . S
C1299 C1304 1.363 . S
C1300 H1277 0.950 . S
C1300 C1299 1.397 . S
C1300 C1301 1.334 . S
C1301 H1278 0.950 . S
C1301 C1300 1.334 . S
C1301 C1302 1.287 . S
C1302 C1301 1.287 . S
C1302 C1303 1.524 . S
C1302 H1321 0.913 . S
C1303 H1279 0.950 . S
C1303 C1302 1.524 . S
C1303 C1304 1.415 . S
C1304 H1280 0.950 . S
C1304 C1299 1.363 . S
C1304 C1303 1.415 . S
C1305 H1281 0.951 . S
C1305 C1306 1.366 . S
C1305 C1307 1.388 . S
C1306 C1305 1.366 . S
C1306 C1310 1.385 . S
C1307 H1282 0.951 . S
C1307 C1305 1.388 . S
C1307 C1308 1.366 1_554 S
C1308 C1307 1.366 1_556 S
C1308 C1309 1.414 . S
C1308 C1311 1.499 . S
C1309 H1283 0.950 . S
C1309 C1308 1.414 . S
C1309 C1310 1.374 1_556 S
C1310 H1284 0.950 . S
C1310 C1306 1.385 . S
C1310 C1309 1.374 1_554 S
C1311 C1308 1.499 . S
C1311 C1312 1.373 . S
C1311 C1313 1.389 1_455 S
C1312 H1285 0.950 . S
C1312 C1298 1.377 . S
C1312 C1311 1.373 . S
C1313 C1297 1.377 . S
C1313 C1311 1.389 1_655 S
C1313 C1314 1.524 . S
C1314 C1313 1.524 . S
C1314 C1315 1.397 . S
C1314 C1319 1.363 . S
C1315 H1286 0.950 . S
C1315 C1314 1.397 . S
C1315 C1316 1.334 . S
C1316 H1287 0.950 . S
C1316 C1315 1.334 . S
C1316 C1317 1.287 . S
C1317 C1316 1.287 . S
C1317 C1318 1.524 . S
C1317 H1320 0.999 . S
C1318 H1288 0.950 . S
C1318 C1317 1.524 . S
C1318 C1319 1.415 . S
C1319 H1289 0.950 . S
C1319 C1314 1.363 . S
C1319 C1318 1.415 . S
H1320 C1317 0.999 . S
H1321 C1302 0.913 . S
H1322 C1340 0.951 . S
H1323 C1342 0.951 . S
H1324 C1344 0.950 . S
H1325 C1345 0.950 . S
H1326 C1347 0.950 . S
H1327 C1350 0.950 . S
H1328 C1351 0.950 . S
H1329 C1353 0.950 . S
H1330 C1354 0.950 . S
H1331 C1355 0.951 . S
H1332 C1357 0.951 . S
H1333 C1359 0.950 . S
H1334 C1360 0.950 . S
H1335 C1362 0.950 . S
H1336 C1365 0.950 . S
H1337 C1366 0.950 . S
H1338 C1368 0.950 . S
H1339 C1369 0.950 . S
C1340 H1322 0.951 . S
C1340 C1341 1.366 . S
C1340 C1342 1.388 . S
C1341 C1340 1.366 . S
C1341 C1345 1.385 . S
C1342 H1323 0.951 . S
C1342 C1340 1.388 . S
C1342 C1343 1.366 . S
C1343 C1342 1.366 . S
C1343 C1344 1.414 . S
C1343 C1346 1.499 . S
C1344 H1324 0.950 . S
C1344 C1343 1.414 . S
C1344 C1345 1.374 . S
C1345 H1325 0.950 . S
C1345 C1341 1.385 . S
C1345 C1344 1.374 . S
C1346 C1343 1.499 . S
C1346 C1347 1.373 . S
C1346 C1348 1.389 . S
C1347 H1326 0.950 . S
C1347 C1346 1.373 . S
C1347 C1363 1.377 . S
C1348 C1346 1.389 . S
C1348 C1349 1.524 . S
C1348 C1362 1.377 . S
C1349 C1348 1.524 . S
C1349 C1350 1.397 . S
C1349 C1354 1.363 . S
C1350 H1327 0.950 . S
C1350 C1349 1.397 . S
C1350 C1351 1.334 . S
C1351 H1328 0.950 . S
C1351 C1350 1.334 . S
C1351 C1352 1.287 . S
C1352 C1351 1.287 . S
C1352 C1353 1.524 . S
C1352 H1371 0.913 . S
C1353 H1329 0.950 . S
C1353 C1352 1.524 . S
C1353 C1354 1.415 . S
C1354 H1330 0.950 . S
C1354 C1349 1.363 . S
C1354 C1353 1.415 . S
C1355 H1331 0.951 . S
C1355 C1356 1.366 . S
C1355 C1357 1.388 1_556 S
C1356 C1355 1.366 . S
C1356 C1360 1.385 . S
C1357 H1332 0.951 . S
C1357 C1355 1.388 1_554 S
C1357 C1358 1.366 . S
C1358 C1357 1.366 . S
C1358 C1359 1.414 1_554 S
C1358 C1361 1.499 . S
C1359 H1333 0.950 . S
C1359 C1358 1.414 1_556 S
C1359 C1360 1.374 . S
C1360 H1334 0.950 . S
C1360 C1356 1.385 . S
C1360 C1359 1.374 . S
C1361 C1358 1.499 . S
C1361 C1362 1.373 . S
C1361 C1363 1.389 . S
C1362 H1335 0.950 . S
C1362 C1348 1.377 . S
C1362 C1361 1.373 . S
C1363 C1347 1.377 . S
C1363 C1361 1.389 . S
C1363 C1364 1.524 . S
C1364 C1363 1.524 . S
C1364 C1365 1.397 . S
C1364 C1369 1.363 . S
C1365 H1336 0.950 . S
C1365 C1364 1.397 . S
C1365 C1366 1.334 . S
C1366 H1337 0.950 . S
C1366 C1365 1.334 . S
C1366 C1367 1.287 . S
C1367 C1366 1.287 . S
C1367 C1368 1.524 . S
C1367 H1370 0.999 . S
C1368 H1338 0.950 . S
C1368 C1367 1.524 . S
C1368 C1369 1.415 . S
C1369 H1339 0.950 . S
C1369 C1364 1.363 . S
C1369 C1368 1.415 . S
H1370 C1367 0.999 . S
H1371 C1352 0.913 . S
H1372 C1390 0.981 . S
H1373 C1392 0.970 1_554 S
H1374 C1394 0.942 1_554 S
H1375 C1395 0.950 . S
H1376 C1397 0.950 . S
H1377 C1400 0.950 . S
H1378 C1401 0.950 . S
H1379 C1403 0.950 . S
H1380 C1404 0.950 . S
H1381 C1405 0.951 . S
H1382 C1407 0.951 . S
H1383 C1409 0.950 1_455 S
H1384 C1410 0.950 1_455 S
H1385 C1412 0.950 . S
H1386 C1415 0.950 . S
H1387 C1416 0.950 . S
H1388 C1418 0.950 . S
H1389 C1419 0.950 . S
C1390 H1372 0.981 . S
C1390 C1391 1.343 1_455 S
C1390 C1392 1.387 . S
C1391 C1390 1.343 1_655 S
C1391 C1395 1.385 . S
C1392 H1373 0.970 1_556 S
C1392 C1390 1.387 . S
C1392 C1393 1.342 1_456 S
C1393 C1392 1.342 1_654 S
C1393 C1394 1.410 1_554 S
C1393 C1396 1.499 . S
C1394 H1374 0.942 1_556 S
C1394 C1393 1.410 1_556 S
C1394 C1395 1.386 . S
C1395 H1375 0.950 . S
C1395 C1391 1.385 . S
C1395 C1394 1.386 . S
C1396 C1393 1.499 . S
C1396 C1397 1.373 . S
C1396 C1398 1.389 1_655 S
C1397 H1376 0.950 . S
C1397 C1396 1.373 . S
C1397 C1413 1.377 . S
C1398 C1396 1.389 1_455 S
C1398 C1399 1.524 . S
C1398 C1412 1.377 . S
C1399 C1398 1.524 . S
C1399 C1400 1.397 . S
C1399 C1404 1.363 . S
C1400 H1377 0.950 . S
C1400 C1399 1.397 . S
C1400 C1401 1.334 . S
C1401 H1378 0.950 . S
C1401 C1400 1.334 . S
C1401 C1402 1.287 . S
C1402 C1401 1.287 . S
C1402 C1403 1.524 . S
C1402 H1421 0.913 . S
C1403 H1379 0.950 . S
C1403 C1402 1.524 . S
C1403 C1404 1.415 . S
C1404 H1380 0.950 . S
C1404 C1399 1.363 . S
C1404 C1403 1.415 . S
C1405 H1381 0.951 . S
C1405 C1406 1.366 . S
C1405 C1407 1.388 . S
C1406 C1405 1.366 . S
C1406 C1410 1.385 . S
C1407 H1382 0.951 . S
C1407 C1405 1.388 . S
C1407 C1408 1.366 . S
C1408 C1407 1.366 . S
C1408 C1409 1.414 . S
C1408 C1411 1.499 . S
C1409 H1383 0.950 1_655 S
C1409 C1408 1.414 . S
C1409 C1410 1.374 . S
C1410 H1384 0.950 1_655 S
C1410 C1406 1.385 . S
C1410 C1409 1.374 . S
C1411 C1408 1.499 . S
C1411 C1412 1.373 1_655 S
C1411 C1413 1.389 . S
C1412 H1385 0.950 . S
C1412 C1398 1.377 . S
C1412 C1411 1.373 1_455 S
C1413 C1397 1.377 . S
C1413 C1411 1.389 . S
C1413 C1414 1.524 . S
C1414 C1413 1.524 . S
C1414 C1415 1.397 . S
C1414 C1419 1.363 . S
C1415 H1386 0.950 . S
C1415 C1414 1.397 . S
C1415 C1416 1.334 . S
C1416 H1387 0.950 . S
C1416 C1415 1.334 . S
C1416 C1417 1.287 . S
C1417 C1416 1.287 . S
C1417 C1418 1.524 . S
C1417 H1420 0.999 . S
C1418 H1388 0.950 . S
C1418 C1417 1.524 . S
C1418 C1419 1.415 . S
C1419 H1389 0.950 . S
C1419 C1414 1.363 . S
C1419 C1418 1.415 . S
H1420 C1417 0.999 . S
H1421 C1402 0.913 . S
H1422 C1440 0.951 . S
H1423 C1442 0.951 . S
H1424 C1444 0.953 . S
H1425 C1445 0.950 . S
H1426 C1447 0.950 . S
H1427 C1450 0.950 . S
H1428 C1451 0.950 . S
H1429 C1453 0.950 . S
H1430 C1454 0.950 . S
H1431 C1455 0.951 . S
H1432 C1457 0.951 . S
H1433 C1459 0.950 . S
H1434 C1460 0.950 . S
H1435 C1462 0.950 . S
H1436 C1465 0.950 . S
H1437 C1466 0.950 . S
H1438 C1468 0.950 . S
H1439 C1469 0.950 . S
C1440 H1422 0.951 . S
C1440 C1441 1.366 . S
C1440 C1442 1.388 1_554 S
C1441 C1440 1.366 . S
C1441 C1445 1.385 . S
C1442 H1423 0.951 . S
C1442 C1440 1.388 1_556 S
C1442 C1443 1.366 . S
C1443 C1442 1.366 . S
C1443 C1444 1.414 1_556 S
C1443 C1446 1.499 . S
C1444 H1424 0.953 . S
C1444 C1443 1.414 1_554 S
C1444 C1445 1.374 . S
C1445 H1425 0.950 . S
C1445 C1441 1.385 . S
C1445 C1444 1.374 . S
C1446 C1443 1.499 . S
C1446 C1447 1.373 . S
C1446 C1448 1.389 . S
C1447 H1426 0.950 . S
C1447 C1446 1.373 . S
C1447 C1463 1.377 . S
C1448 C1446 1.389 . S
C1448 C1449 1.524 . S
C1448 C1462 1.377 . S
C1449 C1448 1.524 . S
C1449 C1450 1.397 . S
C1449 C1454 1.363 . S
C1450 H1427 0.950 . S
C1450 C1449 1.397 . S
C1450 C1451 1.334 1_556 S
C1451 H1428 0.950 . S
C1451 C1450 1.334 1_554 S
C1451 C1452 1.287 1_554 S
C1452 C1451 1.287 1_556 S
C1452 C1453 1.524 . S
C1452 H1471 0.913 1_556 S
C1453 H1429 0.950 . S
C1453 C1452 1.524 . S
C1453 C1454 1.415 . S
C1454 H1430 0.950 . S
C1454 C1449 1.363 . S
C1454 C1453 1.415 . S
C1455 H1431 0.951 . S
C1455 C1456 1.366 . S
C1455 C1457 1.388 . S
C1456 C1455 1.366 . S
C1456 C1460 1.385 . S
C1457 H1432 0.951 . S
C1457 C1455 1.388 . S
C1457 C1458 1.366 . S
C1458 C1457 1.366 . S
C1458 C1459 1.414 . S
C1458 C1461 1.499 . S
C1459 H1433 0.950 . S
C1459 C1458 1.414 . S
C1459 C1460 1.374 . S
C1460 H1434 0.950 . S
C1460 C1456 1.385 . S
C1460 C1459 1.374 . S
C1461 C1458 1.499 . S
C1461 C1462 1.373 . S
C1461 C1463 1.389 . S
C1462 H1435 0.950 . S
C1462 C1448 1.377 . S
C1462 C1461 1.373 . S
C1463 C1447 1.377 . S
C1463 C1461 1.389 . S
C1463 C1464 1.524 . S
C1464 C1463 1.524 . S
C1464 C1465 1.397 . S
C1464 C1469 1.363 . S
C1465 H1436 0.950 . S
C1465 C1464 1.397 . S
C1465 C1466 1.334 . S
C1466 H1437 0.950 . S
C1466 C1465 1.334 . S
C1466 C1467 1.287 . S
C1467 C1466 1.287 . S
C1467 C1468 1.524 . S
C1467 H1470 0.999 . S
C1468 H1438 0.950 . S
C1468 C1467 1.524 . S
C1468 C1469 1.415 . S
C1469 H1439 0.950 . S
C1469 C1464 1.363 . S
C1469 C1468 1.415 . S
H1470 C1467 0.999 . S
H1471 C1452 0.913 1_554 S
H1472 C1490 0.951 . S
H1473 C1492 0.951 . S
H1474 C1494 0.950 . S
H1475 C1495 0.950 . S
H1476 C1497 0.950 . S
H1477 C1500 0.950 . S
H1478 C1501 0.950 . S
H1479 C1503 0.950 . S
H1480 C1504 0.950 . S
H1481 C1505 0.951 . S
H1482 C1507 0.951 . S
H1483 C1509 0.950 . S
H1484 C1510 0.950 . S
H1485 C1512 0.950 . S
H1486 C1515 0.950 . S
H1487 C1516 0.950 . S
H1488 C1518 0.950 . S
H1489 C1519 0.950 . S
C1490 H1472 0.951 . S
C1490 C1491 1.366 . S
C1490 C1492 1.388 . S
C1491 C1490 1.366 . S
C1491 C1495 1.385 . S
C1492 H1473 0.951 . S
C1492 C1490 1.388 . S
C1492 C1493 1.366 . S
C1493 C1492 1.366 . S
C1493 C1494 1.414 . S
C1493 C1496 1.499 . S
C1494 H1474 0.950 . S
C1494 C1493 1.414 . S
C1494 C1495 1.374 . S
C1495 H1475 0.950 . S
C1495 C1491 1.385 . S
C1495 C1494 1.374 . S
C1496 C1493 1.499 . S
C1496 C1497 1.373 . S
C1496 C1498 1.389 . S
C1497 H1476 0.950 . S
C1497 C1496 1.373 . S
C1497 C1513 1.377 . S
C1498 C1496 1.389 . S
C1498 C1499 1.524 . S
C1498 C1512 1.377 . S
C1499 C1498 1.524 . S
C1499 C1500 1.397 . S
C1499 C1504 1.363 . S
C1500 H1477 0.950 . S
C1500 C1499 1.397 . S
C1500 C1501 1.334 . S
C1501 H1478 0.950 . S
C1501 C1500 1.334 . S
C1501 C1502 1.287 . S
C1502 C1501 1.287 . S
C1502 C1503 1.524 . S
C1502 H1521 0.913 . S
C1503 H1479 0.950 . S
C1503 C1502 1.524 . S
C1503 C1504 1.415 . S
C1504 H1480 0.950 . S
C1504 C1499 1.363 . S
C1504 C1503 1.415 . S
C1505 H1481 0.951 . S
C1505 C1506 1.366 . S
C1505 C1507 1.388 . S
C1506 C1505 1.366 . S
C1506 C1510 1.385 . S
C1507 H1482 0.951 . S
C1507 C1505 1.388 . S
C1507 C1508 1.366 . S
C1508 C1507 1.366 . S
C1508 C1509 1.414 . S
C1508 C1511 1.499 . S
C1509 H1483 0.950 . S
C1509 C1508 1.414 . S
C1509 C1510 1.374 . S
C1510 H1484 0.950 . S
C1510 C1506 1.385 . S
C1510 C1509 1.374 . S
C1511 C1508 1.499 . S
C1511 C1512 1.373 . S
C1511 C1513 1.389 . S
C1512 H1485 0.950 . S
C1512 C1498 1.377 . S
C1512 C1511 1.373 . S
C1513 C1497 1.377 . S
C1513 C1511 1.389 . S
C1513 C1514 1.524 . S
C1514 C1513 1.524 . S
C1514 C1515 1.397 . S
C1514 C1519 1.363 . S
C1515 H1486 0.950 . S
C1515 C1514 1.397 . S
C1515 C1516 1.334 . S
C1516 H1487 0.950 . S
C1516 C1515 1.334 . S
C1516 C1517 1.287 . S
C1517 C1516 1.287 . S
C1517 C1518 1.524 . S
C1517 H1520 0.999 . S
C1518 H1488 0.950 . S
C1518 C1517 1.524 . S
C1518 C1519 1.415 . S
C1519 H1489 0.950 . S
C1519 C1514 1.363 . S
C1519 C1518 1.415 . S
H1520 C1517 0.999 . S
H1521 C1502 0.913 . S
H1522 C1540 0.951 . S
H1523 C1542 0.951 . S
H1524 C1544 0.950 . S
H1525 C1545 0.950 . S
H1526 C1547 0.950 . S
H1527 C1550 0.950 . S
H1528 C1551 0.950 . S
H1529 C1553 0.950 . S
H1530 C1554 0.950 . S
H1531 C1555 0.951 . S
H1532 C1557 0.951 . S
H1533 C1559 0.950 . S
H1534 C1560 0.950 . S
H1535 C1562 0.950 . S
H1536 C1565 0.950 . S
H1537 C1566 0.950 . S
H1538 C1568 0.950 . S
H1539 C1569 0.950 . S
C1540 H1522 0.951 . S
C1540 C1541 1.366 . S
C1540 C1542 1.388 . S
C1541 C1540 1.366 . S
C1541 C1545 1.385 . S
C1542 H1523 0.951 . S
C1542 C1540 1.388 . S
C1542 C1543 1.366 . S
C1543 C1542 1.366 . S
C1543 C1544 1.414 . S
C1543 C1546 1.499 . S
C1544 H1524 0.950 . S
C1544 C1543 1.414 . S
C1544 C1545 1.374 . S
C1545 H1525 0.950 . S
C1545 C1541 1.385 . S
C1545 C1544 1.374 . S
C1546 C1543 1.499 . S
C1546 C1547 1.373 . S
C1546 C1548 1.389 1_655 S
C1547 H1526 0.950 . S
C1547 C1546 1.373 . S
C1547 C1563 1.377 . S
C1548 C1546 1.389 1_455 S
C1548 C1549 1.524 . S
C1548 C1562 1.377 . S
C1549 C1548 1.524 . S
C1549 C1550 1.397 . S
C1549 C1554 1.363 . S
C1550 H1527 0.950 . S
C1550 C1549 1.397 . S
C1550 C1551 1.334 . S
C1551 H1528 0.950 . S
C1551 C1550 1.334 . S
C1551 C1552 1.287 . S
C1552 C1551 1.287 . S
C1552 C1553 1.524 . S
C1552 H1571 0.913 . S
C1553 H1529 0.950 . S
C1553 C1552 1.524 . S
C1553 C1554 1.415 . S
C1554 H1530 0.950 . S
C1554 C1549 1.363 . S
C1554 C1553 1.415 . S
C1555 H1531 0.951 . S
C1555 C1556 1.366 . S
C1555 C1557 1.388 . S
C1556 C1555 1.366 . S
C1556 C1560 1.385 . S
C1557 H1532 0.951 . S
C1557 C1555 1.388 . S
C1557 C1558 1.366 . S
C1558 C1557 1.366 . S
C1558 C1559 1.414 . S
C1558 C1561 1.499 . S
C1559 H1533 0.950 . S
C1559 C1558 1.414 . S
C1559 C1560 1.374 . S
C1560 H1534 0.950 . S
C1560 C1556 1.385 . S
C1560 C1559 1.374 . S
C1561 C1558 1.499 . S
C1561 C1562 1.373 1_655 S
C1561 C1563 1.389 . S
C1562 H1535 0.950 . S
C1562 C1548 1.377 . S
C1562 C1561 1.373 1_455 S
C1563 C1547 1.377 . S
C1563 C1561 1.389 . S
C1563 C1564 1.524 . S
C1564 C1563 1.524 . S
C1564 C1565 1.397 . S
C1564 C1569 1.363 . S
C1565 H1536 0.950 . S
C1565 C1564 1.397 . S
C1565 C1566 1.334 . S
C1566 H1537 0.950 . S
C1566 C1565 1.334 . S
C1566 C1567 1.287 . S
C1567 C1566 1.287 . S
C1567 C1568 1.524 . S
C1567 H1570 0.999 . S
C1568 H1538 0.950 . S
C1568 C1567 1.524 . S
C1568 C1569 1.415 . S
C1569 H1539 0.950 . S
C1569 C1564 1.363 . S
C1569 C1568 1.415 . S
H1570 C1567 0.999 . S
H1571 C1552 0.913 . S
H1572 C1590 0.951 . S
H1573 C1592 0.951 . S
H1574 C1594 0.950 . S
H1575 C1595 0.950 . S
H1576 C1597 0.950 . S
H1577 C1600 0.950 . S
H1578 C1601 0.950 . S
H1579 C1603 0.950 . S
H1580 C1604 0.950 . S
H1581 C1605 0.951 . S
H1582 C1607 0.951 . S
H1583 C1609 0.950 . S
H1584 C1610 0.950 . S
H1585 C1612 0.950 . S
H1586 C1615 0.950 . S
H1587 C1616 0.950 . S
H1588 C1618 0.950 . S
H1589 C1619 0.950 . S
C1590 H1572 0.951 . S
C1590 C1591 1.366 . S
C1590 C1592 1.388 . S
C1591 C1590 1.366 . S
C1591 C1595 1.385 . S
C1592 H1573 0.951 . S
C1592 C1590 1.388 . S
C1592 C1593 1.366 . S
C1593 C1592 1.366 . S
C1593 C1594 1.414 . S
C1593 C1596 1.499 . S
C1594 H1574 0.950 . S
C1594 C1593 1.414 . S
C1594 C1595 1.374 . S
C1595 H1575 0.950 . S
C1595 C1591 1.385 . S
C1595 C1594 1.374 . S
C1596 C1593 1.499 . S
C1596 C1597 1.373 . S
C1596 C1598 1.389 . S
C1597 H1576 0.950 . S
C1597 C1596 1.373 . S
C1597 C1613 1.377 . S
C1598 C1596 1.389 . S
C1598 C1599 1.524 . S
C1598 C1612 1.377 . S
C1599 C1598 1.524 . S
C1599 C1600 1.397 . S
C1599 C1604 1.363 . S
C1600 H1577 0.950 . S
C1600 C1599 1.397 . S
C1600 C1601 1.334 . S
C1601 H1578 0.950 . S
C1601 C1600 1.334 . S
C1601 C1602 1.287 . S
C1602 C1601 1.287 . S
C1602 C1603 1.524 . S
C1602 H1621 0.913 . S
C1603 H1579 0.950 . S
C1603 C1602 1.524 . S
C1603 C1604 1.415 . S
C1604 H1580 0.950 . S
C1604 C1599 1.363 . S
C1604 C1603 1.415 . S
C1605 H1581 0.951 . S
C1605 C1606 1.366 . S
C1605 C1607 1.388 . S
C1606 C1605 1.366 . S
C1606 C1610 1.385 . S
C1607 H1582 0.951 . S
C1607 C1605 1.388 . S
C1607 C1608 1.366 . S
C1608 C1607 1.366 . S
C1608 C1609 1.414 . S
C1608 C1611 1.499 . S
C1609 H1583 0.950 . S
C1609 C1608 1.414 . S
C1609 C1610 1.374 . S
C1610 H1584 0.950 . S
C1610 C1606 1.385 . S
C1610 C1609 1.374 . S
C1611 C1608 1.499 . S
C1611 C1612 1.373 . S
C1611 C1613 1.389 . S
C1612 H1585 0.950 . S
C1612 C1598 1.377 . S
C1612 C1611 1.373 . S
C1613 C1597 1.377 . S
C1613 C1611 1.389 . S
C1613 C1614 1.524 . S
C1614 C1613 1.524 . S
C1614 C1615 1.397 . S
C1614 C1619 1.363 . S
C1615 H1586 0.950 . S
C1615 C1614 1.397 . S
C1615 C1616 1.334 . S
C1616 H1587 0.950 . S
C1616 C1615 1.334 . S
C1616 C1617 1.287 . S
C1617 C1616 1.287 . S
C1617 C1618 1.524 . S
C1617 H1620 0.999 . S
C1618 H1588 0.950 . S
C1618 C1617 1.524 . S
C1618 C1619 1.415 . S
C1619 H1589 0.950 . S
C1619 C1614 1.363 . S
C1619 C1618 1.415 . S
H1620 C1617 0.999 . S
H1621 C1602 0.913 . S
H1622 C1640 0.951 . S
H1623 C1642 0.951 . S
H1624 C1644 0.950 . S
H1625 C1645 0.950 . S
H1626 C1647 0.950 . S
H1627 C1650 0.950 . S
H1628 C1651 0.950 . S
H1629 C1653 0.950 . S
H1630 C1654 0.950 . S
H1631 C1655 0.951 . S
H1632 C1657 0.951 . S
H1633 C1659 0.950 . S
H1634 C1660 0.950 . S
H1635 C1662 0.950 1_655 S
H1636 C1665 0.950 . S
H1637 C1666 0.950 . S
H1638 C1668 0.950 . S
H1639 C1669 0.950 . S
C1640 H1622 0.951 . S
C1640 C1641 1.366 . S
C1640 C1642 1.388 . S
C1641 C1640 1.366 . S
C1641 C1645 1.385 . S
C1642 H1623 0.951 . S
C1642 C1640 1.388 . S
C1642 C1643 1.366 . S
C1643 C1642 1.366 . S
C1643 C1644 1.414 . S
C1643 C1646 1.499 . S
C1644 H1624 0.950 . S
C1644 C1643 1.414 . S
C1644 C1645 1.374 . S
C1645 H1625 0.950 . S
C1645 C1641 1.385 . S
C1645 C1644 1.374 . S
C1646 C1643 1.499 . S
C1646 C1647 1.373 . S
C1646 C1648 1.389 . S
C1647 H1626 0.950 . S
C1647 C1646 1.373 . S
C1647 C1663 1.377 . S
C1648 C1646 1.389 . S
C1648 C1649 1.524 1_455 S
C1648 C1662 1.377 . S
C1649 C1648 1.524 1_655 S
C1649 C1650 1.397 . S
C1649 C1654 1.363 . S
C1650 H1627 0.950 . S
C1650 C1649 1.397 . S
C1650 C1651 1.334 . S
C1651 H1628 0.950 . S
C1651 C1650 1.334 . S
C1651 C1652 1.287 . S
C1652 C1651 1.287 . S
C1652 C1653 1.524 . S
C1652 H1671 0.913 . S
C1653 H1629 0.950 . S
C1653 C1652 1.524 . S
C1653 C1654 1.415 . S
C1654 H1630 0.950 . S
C1654 C1649 1.363 . S
C1654 C1653 1.415 . S
C1655 H1631 0.951 . S
C1655 C1656 1.366 . S
C1655 C1657 1.388 . S
C1656 C1655 1.366 . S
C1656 C1660 1.385 . S
C1657 H1632 0.951 . S
C1657 C1655 1.388 . S
C1657 C1658 1.366 . S
C1658 C1657 1.366 . S
C1658 C1659 1.414 . S
C1658 C1661 1.499 . S
C1659 H1633 0.950 . S
C1659 C1658 1.414 . S
C1659 C1660 1.374 . S
C1660 H1634 0.950 . S
C1660 C1656 1.385 . S
C1660 C1659 1.374 . S
C1661 C1658 1.499 . S
C1661 C1662 1.373 . S
C1661 C1663 1.389 . S
C1662 H1635 0.950 1_455 S
C1662 C1648 1.377 . S
C1662 C1661 1.373 . S
C1663 C1647 1.377 . S
C1663 C1661 1.389 . S
C1663 C1664 1.524 . S
C1664 C1663 1.524 . S
C1664 C1665 1.397 . S
C1664 C1669 1.363 . S
C1665 H1636 0.950 . S
C1665 C1664 1.397 . S
C1665 C1666 1.334 . S
C1666 H1637 0.950 . S
C1666 C1665 1.334 . S
C1666 C1667 1.287 . S
C1667 C1666 1.287 . S
C1667 C1668 1.524 . S
C1667 H1670 0.999 . S
C1668 H1638 0.950 . S
C1668 C1667 1.524 . S
C1668 C1669 1.415 . S
C1669 H1639 0.950 . S
C1669 C1664 1.363 . S
C1669 C1668 1.415 . S
H1670 C1667 0.999 . S
H1671 C1652 0.913 . S
C291 C171 1.934 . S
C306 C6 2.019 . S
C341 C139 1.934 . S
C356 C40 2.019 . S
C391 C239 1.935 . S
C406 C96 2.019 . S
C441 C130 2.019 . S
C456 C205 1.935 . S
C491 C142 2.019 . S
C506 C37 1.934 . S
C541 C3 1.934 . S
C556 C198 2.019 . S
C591 C232 2.019 . S
C606 C103 1.935 . S
C641 C266 2.019 . S
C656 C69 1.934 . S
C691 C28 0.444 . S
C706 C74 0.444 . S
C741 C108 0.442 . S
C756 C62 0.442 . S
C791 C210 0.444 . S
C806 C164 0.444 . S
C841 C176 0.442 . S
C856 C244 0.442 . S
C891 C15 2.208 . S
C906 C49 2.207 . S
C941 C124 2.207 . S
C956 C90 2.208 . S
C991 C151 2.207 . S
C1006 C192 2.208 . S
C1041 C260 2.207 . S
C1056 C226 2.208 . S
C1091 C219 0.979 . S
C1106 C22 0.979 . S
C1141 C56 0.979 . S
C1156 C253 0.979 . S
C1191 C83 0.980 . S
C1206 C158 0.980 . S
C1241 C117 0.979 . S
C1256 C185 0.979 . S
C1291 C241 1.789 . S
C1306 C17 1.865 . S
C1341 C207 1.790 . S
C1356 C51 1.865 . S
C1391 C85 1.865 . S
C1406 C173 1.789 . S
C1441 C119 1.864 . S
C1456 C137 1.789 . S
C1491 C153 1.865 . S
C1506 C105 1.790 . S
C1541 C71 1.790 . S
C1556 C187 1.865 . S
C1591 C35 1.789 . S
C1606 C221 1.865 . S
C1641 C1 1.789 . S
C1656 C255 1.865 . S
