# Generated by pormake.
# Topology wla, (5)-cn, num edge types: 1
# Building blocks:
#     Node 0, Type 0, BuildingBlock: BEQFEK_clean_sbu_0, # of connection points: 5
#     Node 1, Type 0, BuildingBlock: BEQFEK_clean_sbu_0, # of connection points: 5
#     Node 2, Type 0, BuildingBlock: BEQFEK_clean_sbu_0, # of connection points: 5
#     Node 3, Type 0, BuildingBlock: BEQFEK_clean_sbu_0, # of connection points: 5
#     Node 4, Type 0, BuildingBlock: BEQFEK_clean_sbu_0, # of connection points: 5
#     Node 5, Type 0, BuildingBlock: BEQFEK_clean_sbu_0, # of connection points: 5
#     Node 6, Type 0, BuildingBlock: BEQFEK_clean_sbu_0, # of connection points: 5
#     Node 7, Type 0, BuildingBlock: BEQFEK_clean_sbu_0, # of connection points: 5
#     Node 8, Type 0, BuildingBlock: BEQFEK_clean_sbu_0, # of connection points: 5
#     Node 9, Type 0, BuildingBlock: BEQFEK_clean_sbu_0, # of connection points: 5
#     Node 10, Type 0, BuildingBlock: BEQFEK_clean_sbu_0, # of connection points: 5
#     Node 11, Type 0, BuildingBlock: BEQFEK_clean_sbu_0, # of connection points: 5
#     Node 12, Type 0, BuildingBlock: BEQFEK_clean_sbu_0, # of connection points: 5
#     Node 13, Type 0, BuildingBlock: BEQFEK_clean_sbu_0, # of connection points: 5
#     Node 14, Type 0, BuildingBlock: BEQFEK_clean_sbu_0, # of connection points: 5
#     Node 15, Type 0, BuildingBlock: BEQFEK_clean_sbu_0, # of connection points: 5
#     Node 16, Type 0, BuildingBlock: BEQFEK_clean_sbu_0, # of connection points: 5
#     Node 17, Type 0, BuildingBlock: BEQFEK_clean_sbu_0, # of connection points: 5
#     Edge 18, Type (0, 0), BuildingBlock: MIFKUJ_clean_linker_0, # of connection points: 2
#     Edge 19, Type (0, 0), BuildingBlock: MIFKUJ_clean_linker_0, # of connection points: 2
#     Edge 20, Type (0, 0), BuildingBlock: MIFKUJ_clean_linker_0, # of connection points: 2
#     Edge 21, Type (0, 0), BuildingBlock: MIFKUJ_clean_linker_0, # of connection points: 2
#     Edge 22, Type (0, 0), BuildingBlock: MIFKUJ_clean_linker_0, # of connection points: 2
#     Edge 23, Type (0, 0), BuildingBlock: MIFKUJ_clean_linker_0, # of connection points: 2
#     Edge 24, Type (0, 0), BuildingBlock: MIFKUJ_clean_linker_0, # of connection points: 2
#     Edge 25, Type (0, 0), BuildingBlock: MIFKUJ_clean_linker_0, # of connection points: 2
#     Edge 26, Type (0, 0), BuildingBlock: MIFKUJ_clean_linker_0, # of connection points: 2
#     Edge 27, Type (0, 0), BuildingBlock: MIFKUJ_clean_linker_0, # of connection points: 2
#     Edge 28, Type (0, 0), BuildingBlock: MIFKUJ_clean_linker_0, # of connection points: 2
#     Edge 29, Type (0, 0), BuildingBlock: MIFKUJ_clean_linker_0, # of connection points: 2
#     Edge 30, Type (0, 0), BuildingBlock: MIFKUJ_clean_linker_0, # of connection points: 2
#     Edge 31, Type (0, 0), BuildingBlock: MIFKUJ_clean_linker_0, # of connection points: 2
#     Edge 32, Type (0, 0), BuildingBlock: MIFKUJ_clean_linker_0, # of connection points: 2
#     Edge 33, Type (0, 0), BuildingBlock: MIFKUJ_clean_linker_0, # of connection points: 2
#     Edge 34, Type (0, 0), BuildingBlock: MIFKUJ_clean_linker_0, # of connection points: 2
#     Edge 35, Type (0, 0), BuildingBlock: MIFKUJ_clean_linker_0, # of connection points: 2
#     Edge 36, Type (0, 0), BuildingBlock: MIFKUJ_clean_linker_0, # of connection points: 2
#     Edge 37, Type (0, 0), BuildingBlock: MIFKUJ_clean_linker_0, # of connection points: 2
#     Edge 38, Type (0, 0), BuildingBlock: MIFKUJ_clean_linker_0, # of connection points: 2
#     Edge 39, Type (0, 0), BuildingBlock: MIFKUJ_clean_linker_0, # of connection points: 2
#     Edge 40, Type (0, 0), BuildingBlock: MIFKUJ_clean_linker_0, # of connection points: 2
#     Edge 41, Type (0, 0), BuildingBlock: MIFKUJ_clean_linker_0, # of connection points: 2
#     Edge 42, Type (0, 0), BuildingBlock: MIFKUJ_clean_linker_0, # of connection points: 2
#     Edge 43, Type (0, 0), BuildingBlock: MIFKUJ_clean_linker_0, # of connection points: 2
#     Edge 44, Type (0, 0), BuildingBlock: MIFKUJ_clean_linker_0, # of connection points: 2
#     Edge 45, Type (0, 0), BuildingBlock: MIFKUJ_clean_linker_0, # of connection points: 2
#     Edge 46, Type (0, 0), BuildingBlock: MIFKUJ_clean_linker_0, # of connection points: 2
#     Edge 47, Type (0, 0), BuildingBlock: MIFKUJ_clean_linker_0, # of connection points: 2
#     Edge 48, Type (0, 0), BuildingBlock: MIFKUJ_clean_linker_0, # of connection points: 2
#     Edge 49, Type (0, 0), BuildingBlock: MIFKUJ_clean_linker_0, # of connection points: 2
#     Edge 50, Type (0, 0), BuildingBlock: MIFKUJ_clean_linker_0, # of connection points: 2
#     Edge 51, Type (0, 0), BuildingBlock: MIFKUJ_clean_linker_0, # of connection points: 2
#     Edge 52, Type (0, 0), BuildingBlock: MIFKUJ_clean_linker_0, # of connection points: 2
#     Edge 53, Type (0, 0), BuildingBlock: MIFKUJ_clean_linker_0, # of connection points: 2
#     Edge 54, Type (0, 0), BuildingBlock: MIFKUJ_clean_linker_0, # of connection points: 2
#     Edge 55, Type (0, 0), BuildingBlock: MIFKUJ_clean_linker_0, # of connection points: 2
#     Edge 56, Type (0, 0), BuildingBlock: MIFKUJ_clean_linker_0, # of connection points: 2
#     Edge 57, Type (0, 0), BuildingBlock: MIFKUJ_clean_linker_0, # of connection points: 2
#     Edge 58, Type (0, 0), BuildingBlock: MIFKUJ_clean_linker_0, # of connection points: 2
#     Edge 59, Type (0, 0), BuildingBlock: MIFKUJ_clean_linker_0, # of connection points: 2
#     Edge 60, Type (0, 0), BuildingBlock: MIFKUJ_clean_linker_0, # of connection points: 2
#     Edge 61, Type (0, 0), BuildingBlock: MIFKUJ_clean_linker_0, # of connection points: 2
#     Edge 62, Type (0, 0), BuildingBlock: MIFKUJ_clean_linker_0, # of connection points: 2
# Relax obj value: 0.271
# Max RMSD: 0.180
# Mean RMSD: 0.180
data_MOF--net-wla--node1-BEQFEK_clean_sbu_0--edge1-MIFKUJ_clean_linker_0
_symmetry_space_group_name_H-M    P1
_symmetry_Int_Tables_number       1
_symmetry_cell_setting            triclinic
loop_
_symmetry_equiv_pos_as_xyz
'x, y, z'
_cell_length_a     77.95404
_cell_length_b     77.950046
_cell_length_c     38.798031
_cell_angle_alpha  89.98078
_cell_angle_beta   89.99769
_cell_angle_gamma 119.99165
loop_
_atom_site_label
_atom_site_type_symbol
_atom_site_fract_x
_atom_site_fract_y
_atom_site_fract_z
_atom_type_partial_charge
Co0 Co 0.14709 0.0143 0.27848 0.0
Co1 Co 0.18951 0.05006 0.26561 0.0
C2 C 0.18188 0.0213 0.32205 0.0
O3 O 0.1637 0.01125 0.31357 0.0
O4 O 0.19386 0.03708 0.30606 0.0
C5 C 0.11601 0.97356 0.28938 0.0
O6 O 0.13014 0.97022 0.29965 0.0
C7 C 0.23148 0.07145 0.24689 0.0
C8 C 0.23359 0.09727 0.21929 0.0
C9 C 0.24417 0.08793 0.22767 0.0
N10 N 0.21406 0.07093 0.24945 0.0
N11 N 0.21556 0.08665 0.23365 0.0
C12 C 0.23487 0.05506 0.25848 0.0
H13 H 0.2207 0.04076 0.25868 0.0
H14 H 0.24572 0.05389 0.24157 0.0
H15 H 0.24086 0.05823 0.28511 0.0
C16 C 0.14993 0.00824 0.20421 0.0
N17 N 0.15802 0.01738 0.23421 0.0
N18 N 0.17622 0.03186 0.22879 0.0
C19 C 0.18049 0.03203 0.19504 0.0
C20 C 0.16391 0.01724 0.17828 0.0
C21 C 0.12851 0.99297 0.20014 0.0
H22 H 0.11925 0.9975 0.21492 0.0
H23 H 0.12598 0.97868 0.21083 0.0
H24 H 0.12378 0.99085 0.17279 0.0
O25 O 0.14394 0.03728 0.28893 0.0
O26 O 0.17401 0.06278 0.27962 0.0
H27 H 0.20201 0.06108 0.17812 0.0
H28 H 0.20134 0.04139 0.15254 0.0
C29 C 0.20008 0.046 0.17902 0.0
H30 H 0.2121 0.04639 0.19471 0.0
H31 H 0.20388 0.08949 0.23094 0.0
O32 O 0.12034 0.99084 0.27975 0.0
C33 C 0.15595 0.05586 0.28805 0.0
Co34 Co 0.0007 0.14054 0.28301 0.0
Co35 Co 0.96207 0.14234 0.27113 0.0
C36 C 0.98856 0.1611 0.33271 0.0
O37 O 0.00119 0.1563 0.32302 0.0
O38 O 0.97296 0.15625 0.31531 0.0
C39 C 0.04168 0.15028 0.295 0.0
O40 O 0.04473 0.16684 0.30935 0.0
C41 C 0.94295 0.16468 0.25218 0.0
C42 C 0.91287 0.14112 0.23767 0.0
C43 C 0.92517 0.16151 0.23853 0.0
N44 N 0.94137 0.147 0.25819 0.0
N45 N 0.92328 0.13295 0.25001 0.0
C46 C 0.96112 0.18409 0.26002 0.0
H47 H 0.96886 0.18264 0.2828 0.0
H48 H 0.97151 0.18866 0.23794 0.0
H49 H 0.95726 0.19579 0.2649 0.0
C50 C 0.00972 0.15819 0.21327 0.0
N51 N 0.99824 0.15176 0.24161 0.0
N52 N 0.98153 0.15157 0.23567 0.0
C53 C 0.98162 0.15737 0.20287 0.0
C54 C -0.0004 0.16206 0.18788 0.0
C55 C 0.02968 0.15996 0.21043 0.0
H56 H 0.02796 0.14495 0.21084 0.0
H57 H 0.03883 0.16828 0.23292 0.0
H58 H 0.03742 0.16771 0.18643 0.0
O59 O 0.9785 0.11278 0.28701 0.0
O60 O 0.95087 0.11371 0.27796 0.0
H61 H 0.95009 0.14281 0.19506 0.0
H62 H 0.96451 0.1526 0.15638 0.0
C63 C 0.96382 0.1553 0.18429 0.0
H64 H 0.96327 0.16916 0.18696 0.0
H65 H 0.91828 0.11781 0.2517 0.0
O66 O 0.02478 0.1383 0.2825 0.0
C67 C 0.95971 0.10407 0.28432 0.0
Co68 Co 0.87338 0.86013 0.27471 0.0
Co69 Co 0.86827 0.81798 0.26718 0.0
C70 C 0.84884 0.82826 0.32429 0.0
O71 O 0.8558 0.84594 0.31357 0.0
O72 O 0.8527 0.81617 0.30889 0.0
C73 C 0.86599 0.89307 0.28282 0.0
O74 O 0.84843 0.8801 0.29474 0.0
C75 C 0.84524 0.77585 0.25094 0.0
C76 C 0.86879 0.76891 0.23855 0.0
C77 C 0.84841 0.76084 0.23929 0.0
N78 N 0.86295 0.79214 0.25597 0.0
N79 N 0.87696 0.78783 0.24905 0.0
C80 C 0.82582 0.77479 0.25786 0.0
H81 H 0.82145 0.78036 0.23516 0.0
H82 H 0.81405 0.75933 0.2632 0.0
H83 H 0.82717 0.78427 0.2801 0.0
C84 C 0.85946 0.85248 0.2027 0.0
N85 N 0.86323 0.84654 0.23291 0.0
N86 N 0.862 0.82919 0.22885 0.0
C87 C 0.85794 0.8238 0.19548 0.0
C88 C 0.85598 0.83826 0.17802 0.0
C89 C 0.86157 0.87242 0.19691 0.0
H90 H 0.87697 0.88407 0.20294 0.0
H91 H 0.85154 0.87436 0.21473 0.0
H92 H 0.85806 0.87432 0.16996 0.0
O93 O 0.90004 0.86374 0.28271 0.0
O94 O 0.89684 0.83394 0.27759 0.0
H95 H 0.87025 0.80476 0.18946 0.0
H96 H 0.85781 0.80653 0.15143 0.0
C97 C 0.85748 0.80597 0.17998 0.0
H98 H 0.84367 0.79249 0.1878 0.0
H99 H 0.89211 0.79798 0.25048 0.0
O100 O 0.87773 0.88726 0.27258 0.0
C101 C 0.90747 0.85244 0.2831 0.0
Co102 Co 0.01507 0.15201 0.727 0.0
Co103 Co 0.05437 0.19241 0.73346 0.0
C104 C 0.02468 0.18486 0.67814 0.0
O105 O 0.01278 0.16757 0.68931 0.0
O106 O 0.04144 0.19579 0.69216 0.0
C107 C 0.9748 0.1212 0.71233 0.0
O108 O 0.97381 0.13443 0.69277 0.0
C109 C 0.07669 0.23445 0.74781 0.0
C110 C 0.10666 0.23931 0.7584 0.0
C111 C 0.09561 0.24879 0.7577 0.0
N112 N 0.07661 0.21737 0.74316 0.0
N113 N 0.09461 0.22038 0.74894 0.0
C114 C 0.05842 0.23617 0.74613 0.0
H115 H 0.04493 0.22131 0.74715 0.0
H116 H 0.05818 0.24544 0.76763 0.0
H117 H 0.05832 0.2433 0.72144 0.0
C118 C 0.01044 0.16129 0.799 0.0
N119 N 0.02021 0.16602 0.76879 0.0
N120 N 0.03692 0.18292 0.77206 0.0
C121 C 0.03846 0.18931 0.80483 0.0
C122 C 0.02164 0.17592 0.8228 0.0
C123 C 0.99104 0.1428 0.80495 0.0
H124 H 0.98066 0.14088 0.78378 0.0
H125 H 0.98439 0.14324 0.82998 0.0
H126 H 0.99336 0.12986 0.80455 0.0
O127 O 0.03635 0.14565 0.71736 0.0
O128 O 0.0643 0.17423 0.72344 0.0
H129 H 0.07013 0.20724 0.80836 0.0
H130 H 0.05732 0.20483 0.84829 0.0
C131 C 0.05672 0.20634 0.81995 0.0
H132 H 0.05672 0.2203 0.81455 0.0
H133 H 0.09847 0.20937 0.74762 0.0
O134 O 0.99045 0.12607 0.72956 0.0
C135 C 0.0552 0.15574 0.71729 0.0
Co136 Co 0.86631 0.87667 0.7192 0.0
Co137 Co 0.82474 0.87335 0.72208 0.0
C138 C 0.83471 0.85156 0.66935 0.0
O139 O 0.85208 0.85821 0.68135 0.0
O140 O 0.82282 0.85651 0.68228 0.0
C141 C 0.89677 0.86566 0.71668 0.0
O142 O 0.88257 0.848 0.70744 0.0
C143 C 0.78223 0.85213 0.7345 0.0
C144 C 0.77673 0.87641 0.74874 0.0
C145 C 0.76772 0.85596 0.74652 0.0
N146 N 0.79913 0.86946 0.73088 0.0
N147 N 0.79567 0.88396 0.73865 0.0
C148 C 0.78027 0.83244 0.7263 0.0
H149 H 0.78688 0.83313 0.7007 0.0
H150 H 0.78859 0.82892 0.74552 0.0
H151 H 0.76454 0.82046 0.72587 0.0
C152 C 0.85651 0.86359 0.79148 0.0
N153 N 0.85181 0.86783 0.76051 0.0
N154 N 0.83454 0.86698 0.76248 0.0
C155 C 0.82787 0.86251 0.79523 0.0
C156 C 0.84148 0.86 0.81447 0.0
C157 C 0.87591 0.86488 0.79947 0.0
H158 H 0.8882 0.87943 0.79082 0.0
H159 H 0.87697 0.85317 0.78499 0.0
H160 H 0.87764 0.86311 0.82741 0.0
O161 O 0.87148 0.90371 0.70847 0.0
O162 O 0.84203 0.90157 0.71021 0.0
H163 H 0.80838 0.87437 0.79939 0.0
H164 H 0.80814 0.86036 0.83669 0.0
C165 C 0.80919 0.86127 0.8082 0.0
H166 H 0.7963 0.84779 0.79772 0.0
H167 H 0.80645 0.89894 0.73861 0.0
O168 O 0.89264 0.87912 0.72351 0.0
C169 C 0.86068 0.91164 0.7058 0.0
Co170 Co 0.13726 0.9949 0.71125 0.0
Co171 Co 0.1438 0.95897 0.72267 0.0
C172 C 0.16548 0.98885 0.66761 0.0
O173 O 0.15725 0.9988 0.67623 0.0
O174 O 0.16151 0.97293 0.68324 0.0
C175 C 0.14583 0.03593 0.70959 0.0
O176 O 0.16467 0.04133 0.71208 0.0
C177 C 0.16501 0.93805 0.74099 0.0
C178 C 0.14026 0.90907 0.75768 0.0
C179 C 0.16072 0.91987 0.75479 0.0
N180 N 0.14787 0.93796 0.73654 0.0
N181 N 0.13313 0.9205 0.74599 0.0
C182 C 0.18492 0.95599 0.73548 0.0
H183 H 0.18367 0.96955 0.7346 0.0
H184 H 0.19529 0.95738 0.75633 0.0
H185 H 0.19103 0.95456 0.71051 0.0
C186 C 0.14523 -0.00045 0.78634 0.0
N187 N 0.14467 0.99113 0.75574 0.0
N188 N 0.14796 0.9763 0.76052 0.0
C189 C 0.15106 0.97503 0.79439 0.0
C190 C 0.14932 0.98964 0.81188 0.0
C191 C 0.13934 0.01496 0.79138 0.0
H192 H 0.12644 0.01159 0.77483 0.0
H193 H 0.15184 0.02961 0.78368 0.0
H194 H 0.13544 0.01575 0.8186 0.0
O195 O 0.11144 0.9719 0.6996 0.0
O196 O 0.11564 0.94615 0.70821 0.0
H197 H 0.14236 0.94491 0.80597 0.0
H198 H 0.15887 0.9625 0.83759 0.0
C199 C 0.15531 0.95992 0.80976 0.0
H200 H 0.16822 0.96065 0.79658 0.0
H201 H 0.11823 0.91664 0.74556 0.0
O202 O 0.13285 0.01766 0.70952 0.0
C203 C 0.1047 0.9533 0.69987 0.0
Co204 Co 0.80987 0.34635 0.60965 0.0
Co205 Co 0.85195 0.38264 0.59609 0.0
C206 C 0.84458 0.35431 0.6537 0.0
O207 O 0.82632 0.34397 0.64593 0.0
O208 O 0.85624 0.36966 0.63643 0.0
C209 C 0.77781 0.30776 0.62994 0.0
O210 O 0.79088 0.30705 0.65035 0.0
C211 C 0.89325 0.40289 0.57285 0.0
C212 C 0.89874 0.4333 0.56462 0.0
C213 C 0.90741 0.4216 0.56176 0.0
N214 N 0.87685 0.40348 0.58137 0.0
N215 N 0.88028 0.42172 0.57667 0.0
C216 C 0.89553 0.38502 0.57695 0.0
H217 H 0.88453 0.37444 0.59553 0.0
H218 H 0.89308 0.37735 0.55187 0.0
H219 H 0.91076 0.38949 0.58573 0.0
C220 C 0.81377 0.33905 0.53608 0.0
N221 N 0.82129 0.34916 0.56558 0.0
N222 N 0.83886 0.36461 0.55939 0.0
C223 C 0.84293 0.36493 0.52553 0.0
C224 C 0.82733 0.34862 0.50991 0.0
C225 C 0.79356 0.32126 0.53284 0.0
H226 H 0.78229 0.32556 0.53875 0.0
H227 H 0.79188 0.30994 0.55198 0.0
H228 H 0.79094 0.31481 0.50655 0.0
O229 O 0.80643 0.3694 0.61965 0.0
O230 O 0.83636 0.39508 0.61015 0.0
H231 H 0.86273 0.39614 0.51846 0.0
H232 H 0.8569 0.38183 0.47933 0.0
C233 C 0.8599 0.38188 0.50731 0.0
H234 H 0.87336 0.38065 0.51024 0.0
H235 H 0.86989 0.42619 0.58118 0.0
O236 O 0.78306 0.32277 0.61069 0.0
C237 C 0.81833 0.38801 0.61877 0.0
Co238 Co 0.67137 0.48108 0.61121 0.0
Co239 Co 0.63726 0.48812 0.58701 0.0
C240 C 0.65934 0.50599 0.65194 0.0
O241 O 0.67053 0.49869 0.64679 0.0
O242 O 0.64551 0.5029 0.63103 0.0
C243 C 0.71156 0.4898 0.62715 0.0
O244 O 0.71695 0.50867 0.62592 0.0
C245 C 0.61705 0.50945 0.56579 0.0
C246 C 0.5947 0.48816 0.52942 0.0
C247 C 0.60221 0.50691 0.54328 0.0
N248 N 0.6184 0.49294 0.56508 0.0
N249 N 0.60481 0.48016 0.54372 0.0
C250 C 0.63096 0.5278 0.58517 0.0
H251 H 0.64602 0.52961 0.58545 0.0
H252 H 0.63155 0.54111 0.57362 0.0
H253 H 0.62579 0.52632 0.61223 0.0
C254 C 0.68467 0.49333 0.53931 0.0
N255 N 0.67305 0.49129 0.56654 0.0
N256 N 0.6591 0.49507 0.55682 0.0
C257 C 0.66174 0.50013 0.52324 0.0
C258 C 0.67781 0.49894 0.51096 0.0
C259 C 0.70006 0.4872 0.53935 0.0
H260 H 0.69437 0.4729 0.55316 0.0
H261 H 0.71335 0.49852 0.55326 0.0
H262 H 0.70445 0.48572 0.5128 0.0
O263 O 0.64762 0.45466 0.61454 0.0
O264 O 0.62327 0.45929 0.59654 0.0
H265 H 0.63425 0.49075 0.49737 0.0
H266 H 0.65519 0.51149 0.47723 0.0
C267 C 0.64835 0.50465 0.50233 0.0
H268 H 0.64515 0.51502 0.51664 0.0
H269 H 0.60287 0.4662 0.53809 0.0
O270 O 0.69368 0.47679 0.62117 0.0
C271 C 0.62942 0.44796 0.60764 0.0
Co272 Co 0.53671 0.2064 0.62075 0.0
Co273 Co 0.53077 0.16452 0.6056 0.0
C274 C 0.50725 0.17034 0.65995 0.0
O275 O 0.51585 0.18883 0.65355 0.0
O276 O 0.51142 0.15891 0.64303 0.0
C277 C 0.52703 0.23812 0.62243 0.0
O278 O 0.50846 0.22455 0.61712 0.0
C279 C 0.51146 0.12339 0.58169 0.0
C280 C 0.53742 0.12087 0.5662 0.0
C281 C 0.51689 0.11066 0.56656 0.0
N282 N 0.52805 0.14039 0.5893 0.0
N283 N 0.5435 0.13868 0.58057 0.0
C284 C 0.49109 0.12055 0.58531 0.0
H285 H 0.49178 0.13508 0.58741 0.0
H286 H 0.48171 0.1122 0.563 0.0
H287 H 0.48417 0.11197 0.60913 0.0
C288 C 0.53294 0.20637 0.54466 0.0
N289 N 0.5313 0.19703 0.57481 0.0
N290 N 0.52818 0.1791 0.56853 0.0
C291 C 0.52739 0.17634 0.53415 0.0
C292 C 0.53061 0.19357 0.51793 0.0
C293 C 0.53947 0.22793 0.54164 0.0
H294 H 0.55179 0.2366 0.55985 0.0
H295 H 0.52693 0.23017 0.54862 0.0
H296 H 0.54436 0.23353 0.51508 0.0
O297 O 0.56231 0.20927 0.63477 0.0
O298 O 0.55807 0.17948 0.62405 0.0
H299 H 0.53745 0.15601 0.52226 0.0
H300 H 0.52258 0.1582 0.4887 0.0
C301 C 0.52451 0.15788 0.51696 0.0
H302 H 0.51106 0.14495 0.52738 0.0
H303 H 0.55821 0.14995 0.58321 0.0
O304 O 0.54021 0.23312 0.62423 0.0
C305 C 0.56881 0.1972 0.63448 0.0
Co306 Co 0.67328 0.47575 0.05009 0.0
Co307 Co 0.71072 0.51792 0.04846 0.0
C308 C 0.677 0.5057 -0.00121 0.0
O309 O 0.66703 0.48855 0.01207 0.0
O310 O 0.69405 0.51814 0.01026 0.0
C311 C 0.64315 0.43802 0.03199 0.0
O312 O 0.65184 0.44447 0.00197 0.0
C313 C 0.73086 0.56054 0.0597 0.0
C314 C 0.76213 0.56806 0.06402 0.0
C315 C 0.74978 0.57604 0.06665 0.0
N316 N 0.73199 0.54413 0.05416 0.0
N317 N 0.75074 0.54877 0.05617 0.0
C318 C 0.71198 0.56116 0.05788 0.0
H319 H 0.70205 0.55074 0.03801 0.0
H320 H 0.70416 0.55647 0.08297 0.0
H321 H 0.71496 0.57632 0.05177 0.0
C322 C 0.67354 0.48641 0.12312 0.0
N323 N 0.68022 0.49121 0.09057 0.0
N324 N 0.69645 0.50868 0.09041 0.0
C325 C 0.70089 0.51533 0.1231 0.0
C326 C 0.68639 0.50155 0.14472 0.0
C327 C 0.65683 0.46658 0.13365 0.0
H328 H 0.66088 0.45509 0.12801 0.0
H329 H 0.64348 0.46307 0.11824 0.0
H330 H 0.6534 0.46615 0.16151 0.0
O331 O 0.69534 0.47109 0.03713 0.0
O332 O 0.72201 0.50108 0.03647 0.0
H333 H 0.7325 0.5336 0.12047 0.0
H334 H 0.72216 0.53351 0.16222 0.0
C335 C 0.7198 0.53325 0.134 0.0
H336 H 0.71929 0.54676 0.12706 0.0
H337 H 0.75566 0.53862 0.05333 0.0
O338 O 0.64979 0.44944 0.05792 0.0
C339 C 0.71393 0.4824 0.03298 0.0
Co340 Co 0.53698 0.19572 0.0526 0.0
Co341 Co 0.49465 0.18897 0.06643 0.0
C342 C 0.50263 0.17062 0.00589 0.0
O343 O 0.5208 0.17832 0.01431 0.0
O344 O 0.49058 0.17339 0.02392 0.0
C345 C 0.56886 0.18691 0.04022 0.0
O346 O 0.55537 0.16949 0.02861 0.0
C347 C 0.45225 0.1686 0.08274 0.0
C348 C 0.4501 0.19212 0.11093 0.0
C349 C 0.43927 0.17248 0.1009 0.0
N350 N 0.47005 0.18518 0.08243 0.0
N351 N 0.46858 0.19928 0.09874 0.0
C352 C 0.4485 0.14904 0.06929 0.0
H353 H 0.46245 0.14849 0.06893 0.0
H354 H 0.43723 0.13671 0.08521 0.0
H355 H 0.44283 0.14715 0.04251 0.0
C356 C 0.53384 0.1859 0.12648 0.0
N357 N 0.52548 0.18617 0.09625 0.0
N358 N 0.50722 0.18225 0.10172 0.0
C359 C 0.50312 0.1786 0.13555 0.0
C360 C 0.51995 0.18119 0.15256 0.0
C361 C 0.5556 0.1936 0.13061 0.0
H362 H 0.56403 0.20778 0.11641 0.0
H363 H 0.55934 0.18284 0.11911 0.0
H364 H 0.56029 0.19606 0.15798 0.0
O365 O 0.54079 0.2224 0.04653 0.0
O366 O 0.5108 0.21782 0.05656 0.0
H367 H 0.48266 0.18749 0.15275 0.0
H368 H 0.48257 0.1681 0.17835 0.0
C369 C 0.48384 0.17391 0.15179 0.0
H370 H 0.47143 0.16259 0.13625 0.0
H371 H 0.48042 0.21358 0.10276 0.0
O372 O 0.56373 0.19908 0.05096 0.0
C373 C 0.529 0.22915 0.04928 0.0
Co374 Co 0.80886 0.3329 0.0443 0.0
Co375 Co 0.81857 0.29893 0.05279 0.0
C376 C 0.83582 0.32805 0.99527 0.0
O377 O 0.82693 0.33712 0.00532 0.0
O378 O 0.83393 0.31299 0.01138 0.0
C379 C 0.81495 0.37291 0.0393 0.0
O380 O 0.83387 0.37905 0.03506 0.0
C381 C 0.84251 0.28008 0.06442 0.0
C382 C 0.81975 0.25034 0.08231 0.0
C383 C 0.83983 0.26205 0.07584 0.0
N384 N 0.82481 0.27911 0.06457 0.0
N385 N 0.81125 0.26125 0.07495 0.0
C386 C 0.86123 0.2977 0.05205 0.0
H387 H 0.85937 0.30049 0.02469 0.0
H388 H 0.86402 0.31103 0.06685 0.0
H389 H 0.87415 0.29544 0.054 0.0
C390 C 0.82086 0.33934 0.11766 0.0
N391 N 0.81935 0.33069 0.08691 0.0
N392 N 0.82383 0.31659 0.0905 0.0
C393 C 0.82872 0.31607 0.12366 0.0
C394 C 0.82688 0.33038 0.14209 0.0
C395 C 0.81374 0.35369 0.12414 0.0
H396 H 0.79968 0.34889 0.11007 0.0
H397 H 0.82491 0.36848 0.1142 0.0
H398 H 0.81124 0.35494 0.15192 0.0
O399 O 0.7831 0.30886 0.0371 0.0
O400 O 0.78975 0.28448 0.04247 0.0
H401 H 0.8214 0.28645 0.13636 0.0
H402 H 0.83974 0.30513 0.16458 0.0
C403 C 0.83436 0.30165 0.13764 0.0
H404 H 0.84635 0.30213 0.12172 0.0
H405 H 0.79622 0.2566 0.07744 0.0
O406 O 0.80289 0.35464 0.04433 0.0
C407 C 0.77751 0.29049 0.0372 0.0
Co408 Co 0.48917 0.68066 0.94599 0.0
Co409 Co 0.53119 0.7183 0.95062 0.0
C410 C 0.51873 0.68441 -0.00089 0.0
O411 O 0.50208 0.67459 0.98411 0.0
O412 O 0.53139 0.70175 0.98913 0.0
C413 C 0.4535 0.6461 0.96299 0.0
O414 O 0.46166 0.65059 0.99371 0.0
C415 C 0.57436 0.74121 0.94637 0.0
C416 C 0.57934 0.77086 0.93256 0.0
C417 C 0.58898 0.76014 0.93705 0.0
N418 N 0.55688 0.74068 0.94631 0.0
N419 N 0.56 0.75855 0.93887 0.0
C420 C 0.57676 0.7238 0.9551 0.0
H421 H 0.56902 0.71715 0.97967 0.0
H422 H 0.56975 0.71231 0.93483 0.0
H423 H 0.59258 0.72813 0.95791 0.0
C424 C 0.50076 0.68291 0.87308 0.0
N425 N 0.50514 0.68873 0.9061 0.0
N426 N 0.5231 0.70421 0.90789 0.0
C427 C 0.5309 0.70853 0.87585 0.0
C428 C 0.51697 0.69524 0.85268 0.0
C429 C 0.48043 0.66779 0.86124 0.0
H430 H 0.46923 0.67013 0.87477 0.0
H431 H 0.47768 0.6528 0.86809 0.0
H432 H 0.47852 0.66854 0.83308 0.0
O433 O 0.48351 0.70177 0.95956 0.0
O434 O 0.51325 0.72867 0.96186 0.0
H435 H 0.55151 0.73966 0.87296 0.0
H436 H 0.55511 0.72526 0.8401 0.0
C437 C 0.55104 0.72548 0.8674 0.0
H438 H 0.56222 0.7246 0.88362 0.0
H439 H 0.5488 0.76212 0.93655 0.0
O440 O 0.4631 0.65681 0.93742 0.0
C441 C 0.4945 0.7203 0.96454 0.0
Co442 Co 0.34126 0.81077 0.95379 0.0
Co443 Co 0.30499 0.81661 0.93969 0.0
C444 C 0.33438 0.83875 0.99568 0.0
O445 O 0.34484 0.83089 0.98831 0.0
O446 O 0.31861 0.83435 0.97914 0.0
C447 C 0.38162 0.81801 0.96382 0.0
O448 O 0.38698 0.83654 0.97057 0.0
C449 C 0.28444 0.83757 0.9163 0.0
C450 C 0.25398 0.81247 0.90954 0.0
C451 C 0.26549 0.83283 0.90629 0.0
N452 N 0.28413 0.82068 0.92468 0.0
N453 N 0.26588 0.80577 0.92073 0.0
C454 C 0.30228 0.85778 0.91947 0.0
H455 H 0.31343 0.85747 0.9368 0.0
H456 H 0.30918 0.86299 0.89379 0.0
H457 H 0.29794 0.86845 0.92929 0.0
C458 C 0.34745 0.81962 0.87925 0.0
N459 N 0.3381 0.81839 0.90912 0.0
N460 N 0.32256 0.82034 0.90287 0.0
C461 C 0.32131 0.82248 0.86866 0.0
C462 C 0.33712 0.82229 0.85277 0.0
C463 C 0.36458 0.81615 0.87586 0.0
H464 H 0.36023 0.80114 0.88564 0.0
H465 H 0.37703 0.82707 0.89195 0.0
H466 H 0.36957 0.81749 0.84869 0.0
O467 O 0.3179 0.7848 0.96537 0.0
O468 O 0.29224 0.7889 0.95497 0.0
H469 H 0.29011 0.81046 0.8612 0.0
H470 H 0.30474 0.82111 0.82272 0.0
C471 C 0.30429 0.82266 0.85108 0.0
H472 H 0.30488 0.83687 0.85647 0.0
H473 H 0.26155 0.79097 0.92547 0.0
O474 O 0.36376 0.80589 0.95576 0.0
C475 C 0.29929 0.77806 0.96442 0.0
Co476 Co 0.20625 0.53798 0.93531 0.0
Co477 Co 0.20402 0.49704 0.92963 0.0
C478 C 0.18345 0.50603 0.98622 0.0
O479 O 0.18963 0.52351 0.97516 0.0
O480 O 0.18794 0.49437 0.97102 0.0
C481 C 0.19739 0.56901 0.95008 0.0
O482 O 0.18405 0.55613 0.97133 0.0
C483 C 0.18259 0.45505 0.91391 0.0
C484 C 0.20674 0.44832 0.90665 0.0
C485 C 0.18635 0.44004 0.90504 0.0
N486 N 0.19998 0.47154 0.91978 0.0
N487 N 0.21436 0.46741 0.91581 0.0
C488 C 0.16282 0.45371 0.91767 0.0
H489 H 0.16353 0.46447 0.93705 0.0
H490 H 0.15842 0.45736 0.89279 0.0
H491 H 0.15132 0.43852 0.92529 0.0
C492 C 0.19259 0.52874 0.86322 0.0
N493 N 0.19653 0.52352 0.89401 0.0
N494 N 0.19671 0.50681 0.89075 0.0
C495 C 0.19353 0.5012 0.8574 0.0
C496 C 0.19055 0.51476 0.83906 0.0
C497 C 0.19342 0.54803 0.85638 0.0
H498 H 0.20882 0.56032 0.86019 0.0
H499 H 0.18383 0.55005 0.87515 0.0
H500 H 0.1886 0.54873 0.82975 0.0
O501 O 0.23385 0.54387 0.94273 0.0
O502 O 0.23242 0.51475 0.93935 0.0
H503 H 0.20833 0.48425 0.8545 0.0
H504 H 0.19758 0.48585 0.81421 0.0
C505 C 0.19556 0.48454 0.84256 0.0
H506 H 0.18196 0.4703 0.84801 0.0
H507 H 0.2294 0.47773 0.91865 0.0
O508 O 0.2077 0.56395 0.93191 0.0
C509 C 0.24225 0.53343 0.94365 0.0
Co510 Co 0.33922 0.81834 0.386 0.0
Co511 Co 0.37699 0.8598 0.39656 0.0
C512 C 0.34678 0.85253 0.34188 0.0
O513 O 0.33574 0.83449 0.35057 0.0
O514 O 0.36299 0.86362 0.35748 0.0
C515 C 0.29915 0.78549 0.37354 0.0
O516 O 0.29519 0.7984 0.35927 0.0
C517 C 0.3987 0.90191 0.41517 0.0
C518 C 0.42917 0.90714 0.42092 0.0
C519 C 0.41792 0.91633 0.42308 0.0
N520 N 0.39856 0.88487 0.40903 0.0
N521 N 0.41682 0.88812 0.41237 0.0
C522 C 0.38095 0.90445 0.41195 0.0
H523 H 0.36905 0.89213 0.39708 0.0
H524 H 0.37508 0.90452 0.43794 0.0
H525 H 0.38515 0.91883 0.39942 0.0
C526 C 0.33522 0.82269 0.46055 0.0
N527 N 0.34393 0.83012 0.42998 0.0
N528 N 0.36003 0.84737 0.43482 0.0
C529 C 0.3622 0.8514 0.46882 0.0
C530 C 0.34654 0.83592 0.48622 0.0
C531 C 0.31809 0.80214 0.46513 0.0
H532 H 0.3222 0.79135 0.45508 0.0
H533 H 0.30534 0.80047 0.44977 0.0
H534 H 0.31364 0.79866 0.49252 0.0
O535 O 0.36155 0.81443 0.37315 0.0
O536 O 0.38854 0.84362 0.38098 0.0
H537 H 0.3935 0.86977 0.47597 0.0
H538 H 0.37894 0.86902 0.51296 0.0
C539 C 0.3796 0.86913 0.48443 0.0
H540 H 0.37987 0.8827 0.4753 0.0
H541 H 0.42086 0.87733 0.40882 0.0
O542 O 0.31613 0.79133 0.38658 0.0
C543 C 0.38029 0.82547 0.37241 0.0
Co544 Co 0.19527 0.53977 0.37586 0.0
Co545 Co 0.15394 0.53636 0.38223 0.0
C546 C 0.16248 0.51487 0.32715 0.0
O547 O 0.18022 0.52187 0.33762 0.0
O548 O 0.15059 0.51916 0.34218 0.0
C549 C 0.22639 0.52889 0.37647 0.0
O550 O 0.21266 0.51021 0.37306 0.0
C551 C 0.11149 0.51719 0.39593 0.0
C552 C 0.10796 0.54297 0.40806 0.0
C553 C 0.09764 0.52245 0.40612 0.0
N554 N 0.12908 0.53383 0.39246 0.0
N555 N 0.12683 0.54919 0.39922 0.0
C556 C 0.1088 0.49686 0.39247 0.0
H557 H 0.12333 0.49748 0.39365 0.0
H558 H 0.09897 0.48699 0.41312 0.0
H559 H 0.10191 0.49057 0.36715 0.0
C560 C 0.18735 0.52756 0.44913 0.0
N561 N 0.18173 0.53105 0.41833 0.0
N562 N 0.16433 0.52982 0.42147 0.0
C563 C 0.15835 0.52556 0.45457 0.0
C564 C 0.17268 0.52383 0.47307 0.0
C565 C 0.20741 0.53018 0.45629 0.0
H566 H 0.21897 0.54412 0.44432 0.0
H567 H 0.20833 0.51766 0.44471 0.0
H568 H 0.21041 0.53069 0.48433 0.0
O569 O 0.20085 0.56695 0.36628 0.0
O570 O 0.17138 0.56455 0.36986 0.0
H571 H 0.13874 0.5371 0.46123 0.0
H572 H 0.13848 0.52194 0.49681 0.0
C573 C 0.13961 0.52379 0.46844 0.0
H574 H 0.1268 0.51066 0.45693 0.0
H575 H 0.13832 0.56391 0.39875 0.0
O576 O 0.22153 0.54217 0.37825 0.0
C577 C 0.18994 0.57477 0.36468 0.0
Co578 Co 0.46718 0.67264 0.39396 0.0
Co579 Co 0.47578 0.63917 0.41565 0.0
C580 C 0.48903 0.65917 0.34763 0.0
O581 O 0.48178 0.67027 0.35427 0.0
O582 O 0.48779 0.64627 0.36917 0.0
C583 C 0.47447 0.7114 0.37178 0.0
O584 O 0.49238 0.71526 0.36342 0.0
C585 C 0.49871 0.62031 0.43434 0.0
C586 C 0.47795 0.59645 0.46917 0.0
C587 C 0.49683 0.60508 0.45533 0.0
N588 N 0.48173 0.62073 0.43593 0.0
N589 N 0.46929 0.6063 0.45643 0.0
C590 C 0.51681 0.63546 0.41575 0.0
H591 H 0.51655 0.64951 0.41316 0.0
H592 H 0.53045 0.63826 0.42954 0.0
H593 H 0.51702 0.62991 0.38952 0.0
C594 C 0.48651 0.68915 0.46125 0.0
N595 N 0.48097 0.67579 0.43557 0.0
N596 N 0.48508 0.66192 0.44433 0.0
C597 C 0.49372 0.66626 0.47563 0.0
C598 C 0.49499 0.68366 0.48725 0.0
C599 C 0.48244 0.70598 0.46178 0.0
H600 H 0.46656 0.70035 0.45609 0.0
H601 H 0.49128 0.7167 0.44128 0.0
H602 H 0.48632 0.71371 0.48702 0.0
O603 O 0.4406 0.64902 0.39669 0.0
O604 O 0.4466 0.62513 0.41179 0.0
H605 H 0.48493 0.6382 0.49903 0.0
H606 H 0.5044 0.65888 0.52183 0.0
C607 C 0.49849 0.65283 0.49593 0.0
H608 H 0.50969 0.65076 0.48186 0.0
H609 H 0.45508 0.60353 0.46242 0.0
O610 O 0.46247 0.69488 0.38553 0.0
C611 C 0.43452 0.63099 0.40407 0.0
H612 H 0.11742 0.04635 0.29547 0.0
H613 H 0.10438 0.06894 0.29806 0.0
H614 H 0.16372 0.11897 0.29699 0.0
H615 H 0.17711 0.09641 0.29384 0.0
H616 H 0.13098 0.11812 0.34741 0.0
H617 H 0.14793 0.11518 0.22855 0.0
H618 H 0.14918 0.09756 0.17668 0.0
H619 H 0.08567 0.06294 0.17547 0.0
H620 H 0.08407 0.08013 0.22771 0.0
H621 H 0.08093 0.17324 0.31295 0.0
H622 H 0.10642 0.16351 0.31198 0.0
H623 H 0.0631 0.10553 0.27498 0.0
H624 H 0.03799 0.11523 0.2749 0.0
H625 H 0.09583 0.11809 0.24071 0.0
H626 H 0.07819 0.11582 0.36177 0.0
H627 H 0.07495 0.13025 0.41629 0.0
H628 H 0.13738 0.172 0.4156 0.0
H629 H 0.14093 0.15794 0.36084 0.0
C630 C 0.12779 0.06213 0.2963 0.0
C631 C 0.14832 0.06957 0.29414 0.0
C632 C 0.12028 0.075 0.2978 0.0
C633 C 0.13313 0.09553 0.29752 0.0
C634 C 0.15365 0.10312 0.29727 0.0
C635 C 0.16122 0.09022 0.29534 0.0
C636 C 0.12469 0.1087 0.29454 0.0
C637 C 0.1237 0.11861 0.3239 0.0
C638 C 0.11501 0.10897 0.26397 0.0
C639 C 0.1159 0.09886 0.23217 0.0
C640 C 0.13424 0.10371 0.21737 0.0
C641 C 0.13501 0.09381 0.18788 0.0
C642 C 0.11752 0.07912 0.17282 0.0
C643 C 0.09921 0.07433 0.18717 0.0
C644 C 0.09836 0.08416 0.21669 0.0
C645 C 0.07693 0.15846 0.30448 0.0
C646 C 0.05744 0.145 0.29405 0.0
C647 C 0.09147 0.15291 0.30404 0.0
C648 C 0.08664 0.13374 0.29361 0.0
C649 C 0.06724 0.12044 0.28293 0.0
C650 C 0.05284 0.126 0.28303 0.0
C651 C 0.10139 0.12702 0.29403 0.0
C652 C 0.10358 0.11822 0.26404 0.0
C653 C 0.11193 0.1276 0.32419 0.0
C654 C 0.10978 0.13602 0.35703 0.0
C655 C 0.09119 0.12818 0.37312 0.0
C656 C 0.0893 0.13627 0.40408 0.0
C657 C 0.10594 0.15208 0.41933 0.0
C658 C 0.1245 0.15979 0.40371 0.0
C659 C 0.12646 0.15177 0.37273 0.0
H660 H 0.10445 0.15831 0.4433 0.0
H661 H 0.11814 0.07146 0.15 0.0
H662 H 0.84479 0.91148 0.29899 0.0
H663 H 0.85743 0.94729 0.30294 0.0
H664 H 0.91546 0.95867 0.27285 0.0
H665 H 0.90308 0.92324 0.26855 0.0
H666 H 0.91519 0.97932 0.33241 0.0
H667 H 0.88829 0.96491 0.216 0.0
H668 H 0.8615 0.94785 0.17344 0.0
H669 H 0.82787 0.97081 0.22284 0.0
H670 H 0.85437 0.98779 0.26601 0.0
H671 H 0.97337 0.078 0.2828 0.0
H672 H 0.95416 0.04204 0.28673 0.0
H673 H 0.90048 0.04472 0.29837 0.0
H674 H 0.91961 0.08084 0.2932 0.0
H675 H 0.89419 0.01637 0.25565 0.0
H676 H 0.92203 0.03404 0.36781 0.0
H677 H 0.94813 0.05108 0.41151 0.0
H678 H 0.97863 0.02183 0.37364 0.0
H679 H 0.95286 0.00482 0.32938 0.0
C680 C 0.8602 0.92164 0.29301 0.0
C681 C 0.87293 0.91452 0.28353 0.0
C682 C 0.86738 0.94204 0.29527 0.0
C683 C 0.88737 0.95554 0.28829 0.0
C684 C 0.9 0.94845 0.27851 0.0
C685 C 0.89285 0.92818 0.27593 0.0
C686 C 0.89552 0.97713 0.29155 0.0
C687 C 0.91069 0.98748 0.31559 0.0
C688 C 0.88906 0.98757 0.27046 0.0
C689 C 0.87318 0.9774 0.24448 0.0
C690 C 0.8751 0.96617 0.21798 0.0
C691 C 0.85999 0.95655 0.19371 0.0
C692 C 0.84296 0.95819 0.19551 0.0
C693 C 0.84104 0.96951 0.22153 0.0
C694 C 0.8561 0.97914 0.24589 0.0
C695 C 0.95749 0.07099 0.28642 0.0
C696 C 0.94803 0.08229 0.28786 0.0
C697 C 0.94652 0.0504 0.28884 0.0
C698 C 0.92591 0.04068 0.29354 0.0
C699 C 0.91638 0.05191 0.29491 0.0
C700 C 0.92734 0.07254 0.29202 0.0
C701 C 0.91438 0.01875 0.29586 0.0
C702 C 0.89853 0.00828 0.27298 0.0
C703 C 0.92006 0.00815 0.31835 0.0
C704 C 0.93554 0.01823 0.34513 0.0
C705 C 0.93436 0.03133 0.36866 0.0
C706 C 0.94909 0.04097 0.39355 0.0
C707 C 0.96504 0.03756 0.39532 0.0
C708 C 0.96627 0.02446 0.37224 0.0
C709 C 0.95158 0.01478 0.34728 0.0
H710 H 0.97644 0.04505 0.4146 0.0
H711 H 0.83128 0.95073 0.17668 0.0
H712 H 0.93536 0.89158 0.28109 0.0
H713 H 0.97121 0.90627 0.28376 0.0
H714 H 0.96471 0.84852 0.29882 0.0
H715 H 0.92852 0.83344 0.29559 0.0
H716 H 0.99494 0.88465 0.3442 0.0
H717 H 0.97709 0.86045 0.22814 0.0
H718 H 0.95881 0.85497 0.17362 0.0
H719 H 0.98553 0.9178 0.15922 0.0
H720 H 0.00372 0.92365 0.21398 0.0
H721 H 0.10038 0.93516 0.31189 0.0
H722 H 0.06539 0.90914 0.31188 0.0
H723 H 0.04963 0.94993 0.26655 0.0
H724 H 0.08427 0.97572 0.26599 0.0
H725 H 0.03075 0.91486 0.23521 0.0
H726 H 0.04411 0.93939 0.3528 0.0
H727 H 0.06121 0.94657 0.4089 0.0
H728 H 0.0425 0.88495 0.42169 0.0
H729 H 0.02549 0.87745 0.3654 0.0
C730 C 0.94145 0.88194 0.28534 0.0
C731 C 0.92907 0.86131 0.28791 0.0
C732 C 0.96194 0.89039 0.28684 0.0
C733 C 0.97048 0.87842 0.29131 0.0
C734 C 0.95828 0.85792 0.29537 0.0
C735 C 0.93767 0.84937 0.29338 0.0
C736 C 0.99221 0.88762 0.28963 0.0
C737 C 0.00288 0.89084 0.3203 0.0
C738 C 0.00237 0.8959 0.25847 0.0
C739 C 0.99166 0.89247 0.22529 0.0
C740 C 0.97894 0.87309 0.21349 0.0
C741 C 0.96862 0.86992 0.18252 0.0
C742 C 0.97098 0.88603 0.163 0.0
C743 C 0.98371 0.90534 0.17438 0.0
C744 C 0.99405 0.90859 0.20536 0.0
C745 C 0.08944 0.93852 0.30181 0.0
C746 C 0.09509 0.95752 0.28905 0.0
C747 C 0.06948 0.92367 0.30193 0.0
C748 C 0.05492 0.92765 0.28936 0.0
C749 C 0.06062 0.94652 0.27625 0.0
C750 C 0.08045 0.96129 0.27611 0.0
C751 C 0.03363 0.91248 0.29001 0.0
C752 C 0.02296 0.90819 0.25904 0.0
C753 C 0.02352 0.9034 0.32097 0.0
C754 C 0.03378 0.90791 0.35471 0.0
C755 C 0.04381 0.92741 0.36743 0.0
C756 C 0.05345 0.93153 0.39929 0.0
C757 C 0.05301 0.91624 0.41879 0.0
C758 C 0.04287 0.89678 0.40651 0.0
C759 C 0.03323 0.89259 0.37464 0.0
H760 H 0.06047 0.91945 0.44346 0.0
H761 H 0.96297 0.88355 0.13903 0.0
H762 H 0.10909 0.02926 0.69312 0.0
H763 H 0.09784 0.05324 0.68977 0.0
H764 H 0.15632 0.10018 0.71688 0.0
H765 H 0.16785 0.0761 0.7203 0.0
H766 H 0.12612 0.10068 0.75483 0.0
H767 H 0.14171 0.0983 0.63699 0.0
H768 H 0.14187 0.08267 0.58187 0.0
H769 H 0.07856 0.05531 0.57572 0.0
H770 H 0.07798 0.07053 0.6311 0.0
H771 H 0.09515 0.17123 0.72482 0.0
H772 H 0.11389 0.15393 0.71926 0.0
H773 H 0.06039 0.10026 0.69164 0.0
H774 H 0.04147 0.11741 0.69707 0.0
H775 H 0.09257 0.10719 0.65103 0.0
H776 H 0.07669 0.10593 0.77151 0.0
H777 H 0.07591 0.1207 0.82726 0.0
H778 H 0.13947 0.15432 0.82855 0.0
H779 H 0.14061 0.13994 0.77251 0.0
C780 C 0.11965 0.04468 0.69828 0.0
C781 C 0.13939 0.05079 0.70698 0.0
C782 C 0.11319 0.05839 0.69614 0.0
C783 C 0.12631 0.07849 0.70268 0.0
C784 C 0.14602 0.08471 0.71155 0.0
C785 C 0.15258 0.07097 0.71342 0.0
C786 C 0.11894 0.09267 0.70148 0.0
C787 C 0.1192 0.1025 0.73192 0.0
C788 C 0.10954 0.09464 0.67175 0.0
C789 C 0.1098 0.08546 0.63836 0.0
C790 C 0.1278 0.08882 0.62404 0.0
C791 C 0.12797 0.08005 0.59271 0.0
C792 C 0.11023 0.06797 0.57533 0.0
C793 C 0.09229 0.06466 0.58922 0.0
C794 C 0.09203 0.07338 0.62056 0.0
C795 C 0.08736 0.15579 0.71727 0.0
C796 C 0.06677 0.14566 0.71159 0.0
C797 C 0.09811 0.14593 0.71421 0.0
C798 C 0.08848 0.1258 0.70536 0.0
C799 C 0.06807 0.11582 0.69852 0.0
C800 C 0.05728 0.12562 0.70177 0.0
C801 C 0.09947 0.11489 0.70451 0.0
C802 C 0.09982 0.10566 0.67373 0.0
C803 C 0.10939 0.11341 0.73393 0.0
C804 C 0.10873 0.12206 0.76762 0.0
C805 C 0.0905 0.11661 0.78353 0.0
C806 C 0.08999 0.12488 0.81521 0.0
C807 C 0.10763 0.13849 0.83138 0.0
C808 C 0.12582 0.14381 0.81595 0.0
C809 C 0.12641 0.1356 0.78424 0.0
H810 H 0.1072 0.14487 0.85592 0.0
H811 H 0.1104 0.0612 0.55108 0.0
H812 H 0.97469 0.08995 0.74392 0.0
H813 H 0.95102 0.05486 0.73599 0.0
H814 H 0.91553 0.06935 0.67014 0.0
H815 H 0.93946 0.10478 0.67733 0.0
H816 H 0.89543 0.03569 0.72746 0.0
H817 H 0.93739 0.05727 0.62656 0.0
H818 H 0.96981 0.0758 0.59768 0.0
H819 H 0.9904 0.04153 0.65204 0.0
H820 H 0.9582 0.02305 0.68178 0.0
H821 H 0.84318 0.93286 0.68471 0.0
H822 H 0.85892 0.96883 0.67806 0.0
H823 H 0.9151 0.97501 0.70781 0.0
H824 H 0.89971 0.9392 0.71302 0.0
H825 H 0.92115 -0.00039 0.65894 0.0
H826 H 0.88316 0.98179 0.76518 0.0
H827 H 0.85266 0.96432 0.79995 0.0
H828 H 0.82617 0.99169 0.74106 0.0
H829 H 0.85645 0.00915 0.70567 0.0
C830 C 0.96175 0.08578 0.72808 0.0
C831 C 0.95905 0.10017 0.71102 0.0
C832 C 0.94824 0.06571 0.72362 0.0
C833 C 0.93168 0.05964 0.70236 0.0
C834 C 0.92827 0.07386 0.68668 0.0
C835 C 0.94196 0.09405 0.69079 0.0
C836 C 0.91896 0.03835 0.6949 0.0
C837 C 0.90072 0.02775 0.7118 0.0
C838 C 0.92622 0.02815 0.67508 0.0
C839 C 0.94542 0.03887 0.65656 0.0
C840 C 0.94888 0.05378 0.63254 0.0
C841 C 0.96721 0.06426 0.61599 0.0
C842 C 0.98217 0.05986 0.62305 0.0
C843 C 0.9788 0.04492 0.6466 0.0
C844 C 0.9605 0.03443 0.66328 0.0
C845 C 0.85893 0.94191 0.68951 0.0
C846 C 0.87019 0.9332 0.69955 0.0
C847 C 0.86789 0.96247 0.68585 0.0
C848 C 0.88814 0.97469 0.69299 0.0
C849 C 0.89946 0.96592 0.70209 0.0
C850 C 0.89062 0.94541 0.70515 0.0
C851 C 0.89766 0.99662 0.69227 0.0
C852 C 0.91545 0.00743 0.67388 0.0
C853 C 0.89008 0.00696 0.71116 0.0
C854 C 0.87195 0.99657 0.73254 0.0
C855 C 0.87077 0.98397 0.75951 0.0
C856 C 0.85354 0.97409 0.77934 0.0
C857 C 0.83747 0.97684 0.77264 0.0
C858 C 0.83862 0.98954 0.74617 0.0
C859 C 0.85581 -0.00056 0.72623 0.0
H860 H 0.82414 0.96917 0.78801 0.0
H861 H 0.99636 0.068 0.61023 0.0
H862 H 0.07689 0.96369 0.68532 0.0
H863 H 0.04105 0.94243 0.68682 0.0
H864 H 0.04762 0.89134 0.70339 0.0
H865 H 0.08379 0.91259 0.70243 0.0
H866 H 0.01379 0.8891 0.65334 0.0
H867 H 0.04024 0.90289 0.7697 0.0
H868 H 0.0626 0.92523 0.81468 0.0
H869 H 0.03633 0.96203 0.80494 0.0
H870 H 0.01405 0.94008 0.75945 0.0
H871 H 0.91164 0.84067 0.70625 0.0
H872 H 0.9466 0.84968 0.70376 0.0
H873 H 0.96388 0.91069 0.72381 0.0
H874 H 0.9293 0.90178 0.72737 0.0
H875 H 0.98604 0.90135 0.75958 0.0
H876 H 0.96333 0.89205 0.64086 0.0
H877 H 0.94224 0.87298 0.59186 0.0
H878 H 0.96172 0.83054 0.60248 0.0
H879 H 0.98275 0.84926 0.65184 0.0
C880 C 0.07083 0.9479 0.68862 0.0
C881 C 0.08324 0.93989 0.69427 0.0
C882 C 0.05032 0.93578 0.68938 0.0
C883 C 0.04183 0.91543 0.6955 0.0
C884 C 0.05402 0.90706 0.69861 0.0
C885 C 0.07464 0.91924 0.69814 0.0
C886 C 0.02041 0.90368 0.7026 0.0
C887 C 0.00761 0.8913 0.67687 0.0
C888 C 0.01255 0.90697 0.73306 0.0
C889 C 0.02558 0.91991 0.76102 0.0
C890 C 0.03933 0.91582 0.77699 0.0
C891 C 0.05197 0.9284 0.80259 0.0
C892 C 0.05091 0.94506 0.81263 0.0
C893 C 0.03714 0.94913 0.79714 0.0
C894 C 0.02449 0.93661 0.77147 0.0
C895 C 0.92292 0.85596 0.7104 0.0
C896 C 0.91769 0.87051 0.71689 0.0
C897 C 0.94288 0.8611 0.7088 0.0
C898 C 0.95787 0.8809 0.71323 0.0
C899 C 0.9526 0.8953 0.72041 0.0
C900 C 0.93277 0.89018 0.72233 0.0
C901 C 0.97915 0.88708 0.70985 0.0
C902 C 0.99203 0.89855 0.73638 0.0
C903 C 0.98702 0.88314 0.6799 0.0
C904 C 0.97439 0.8719 0.65029 0.0
C905 C 0.96298 0.87857 0.63291 0.0
C906 C 0.95107 0.86784 0.60505 0.0
C907 C 0.95059 0.85052 0.59414 0.0
C908 C 0.96207 0.84392 0.61102 0.0
C909 C 0.97399 0.85459 0.63892 0.0
H910 H 0.94136 0.84223 0.57256 0.0
H911 H 0.06072 0.95479 0.83243 0.0
H912 H 0.75216 0.51194 0.62472 0.0
H913 H 0.77565 0.49987 0.63175 0.0
H914 H 0.72705 0.44109 0.65209 0.0
H915 H 0.70367 0.45292 0.64521 0.0
H916 H 0.7589 0.45107 0.69493 0.0
H917 H 0.7454 0.45328 0.57302 0.0
H918 H 0.74473 0.47017 0.51971 0.0
H919 H 0.8076 0.50921 0.52656 0.0
H920 H 0.80858 0.49272 0.58027 0.0
H921 H 0.78138 0.37863 0.64117 0.0
H922 H 0.76866 0.40114 0.65098 0.0
H923 H 0.82563 0.45094 0.62452 0.0
H924 H 0.8385 0.4285 0.61431 0.0
H925 H 0.79606 0.45196 0.59048 0.0
H926 H 0.80995 0.44468 0.70696 0.0
H927 H 0.81005 0.42706 0.75966 0.0
H928 H 0.74652 0.39717 0.76331 0.0
H929 H 0.74601 0.41439 0.71032 0.0
C930 C 0.74656 0.49652 0.63112 0.0
C931 C 0.72608 0.48333 0.63406 0.0
C932 C 0.75996 0.48966 0.63509 0.0
C933 C 0.75304 0.46958 0.64226 0.0
C934 C 0.73269 0.45665 0.64667 0.0
C935 C 0.71934 0.46342 0.64245 0.0
C936 C 0.76655 0.46141 0.64268 0.0
C937 C 0.76708 0.45126 0.67217 0.0
C938 C 0.77759 0.46214 0.61323 0.0
C939 C 0.77702 0.47196 0.58087 0.0
C940 C 0.75905 0.46558 0.56331 0.0
C941 C 0.75862 0.47506 0.53301 0.0
C942 C 0.7761 0.4908 0.51982 0.0
C943 C 0.79406 0.49705 0.53686 0.0
C944 C 0.79457 0.48765 0.56723 0.0
C945 C 0.79129 0.39438 0.63772 0.0
C946 C 0.81094 0.40174 0.62685 0.0
C947 C 0.78402 0.40725 0.64357 0.0
C948 C 0.79627 0.42773 0.63884 0.0
C949 C 0.81597 0.43519 0.62845 0.0
C950 C 0.82328 0.42232 0.62267 0.0
C951 C 0.78797 0.44108 0.64245 0.0
C952 C 0.78837 0.45217 0.61365 0.0
C953 C 0.77775 0.44115 0.67254 0.0
C954 C 0.77795 0.43076 0.70451 0.0
C955 C 0.79599 0.43424 0.71884 0.0
C956 C 0.79612 0.42434 0.7488 0.0
C957 C 0.7783 0.41098 0.7648 0.0
C958 C 0.76032 0.40753 0.75089 0.0
C959 C 0.7601 0.41738 0.72092 0.0
H960 H 0.77844 0.40333 0.78799 0.0
H961 H 0.77574 0.49812 0.49634 0.0
H962 H 0.58939 0.42763 0.59483 0.0
H963 H 0.5671 0.39167 0.59684 0.0
H964 H 0.61558 0.38387 0.63 0.0
H965 H 0.63786 0.41954 0.62811 0.0
H966 H 0.59522 0.36041 0.57446 0.0
H967 H 0.58105 0.37876 0.68599 0.0
H968 H 0.57013 0.39665 0.72444 0.0
H969 H 0.51342 0.36924 0.67436 0.0
H970 H 0.52412 0.35139 0.63526 0.0
H971 H 0.56275 0.26826 0.6427 0.0
H972 H 0.57469 0.3036 0.63949 0.0
H973 H 0.51773 0.29186 0.60209 0.0
H974 H 0.50542 0.25605 0.60546 0.0
H975 H 0.53694 0.32459 0.65133 0.0
H976 H 0.54996 0.30286 0.54464 0.0
H977 H 0.56091 0.28426 0.50811 0.0
H978 H 0.61983 0.31813 0.54879 0.0
H979 H 0.60914 0.33667 0.58611 0.0
C980 C 0.59526 0.41826 0.60284 0.0
C981 C 0.61545 0.42646 0.61112 0.0
C982 C 0.58249 0.39775 0.60402 0.0
C983 C 0.58974 0.38518 0.61347 0.0
C984 C 0.60974 0.39336 0.62245 0.0
C985 C 0.62245 0.41377 0.62143 0.0
C986 C 0.57692 0.3634 0.61282 0.0
C987 C 0.58249 0.35259 0.59128 0.0
C988 C 0.5599 0.35327 0.63387 0.0
C989 C 0.55347 0.36395 0.65742 0.0
C990 C 0.56632 0.3767 0.68296 0.0
C991 C 0.56016 0.3868 0.70492 0.0
C992 C 0.54112 0.38414 0.70177 0.0
C993 C 0.52818 0.37132 0.67672 0.0
C994 C 0.53428 0.3612 0.65467 0.0
C995 C 0.55262 0.2731 0.63408 0.0
C996 C 0.53321 0.25936 0.62384 0.0
C997 C 0.55948 0.29331 0.63234 0.0
C998 C 0.54717 0.30027 0.62006 0.0
C999 C 0.52743 0.2867 0.61153 0.0
C1000 C 0.52047 0.2663 0.61339 0.0
C1001 C 0.55576 0.32172 0.61392 0.0
C1002 C 0.54939 0.33246 0.63396 0.0
C1003 C 0.57207 0.33187 0.59138 0.0
C1004 C 0.57871 0.3211 0.56832 0.0
C1005 C 0.56523 0.30627 0.54595 0.0
C1006 C 0.57139 0.29574 0.5251 0.0
C1007 C 0.59105 0.3 0.52615 0.0
C1008 C 0.6046 0.31485 0.548 0.0
C1009 C 0.59851 0.32539 0.56899 0.0
H1010 H 0.59579 0.29182 0.51 0.0
H1011 H 0.53637 0.39196 0.7188 0.0
H1012 H 0.59601 0.23387 0.65838 0.0
H1013 H 0.63165 0.24752 0.66379 0.0
H1014 H 0.62499 0.19092 0.63609 0.0
H1015 H 0.58925 0.17711 0.63016 0.0
H1016 H 0.65706 0.24002 0.69998 0.0
H1017 H 0.66269 0.20046 0.5795 0.0
H1018 H 0.64349 0.18403 0.52712 0.0
H1019 H 0.6172 0.22105 0.52923 0.0
H1020 H 0.63645 0.23786 0.5813 0.0
H1021 H 0.76018 0.27594 0.67375 0.0
H1022 H 0.72475 0.25193 0.67885 0.0
H1023 H 0.71255 0.28042 0.59465 0.0
H1024 H 0.74778 0.30418 0.58903 0.0
H1025 H 0.69009 0.24109 0.58996 0.0
H1026 H 0.70837 0.29137 0.67818 0.0
H1027 H 0.72717 0.31085 0.72878 0.0
H1028 H 0.70526 0.25747 0.78826 0.0
H1029 H 0.68652 0.23766 0.73782 0.0
C1030 C 0.60203 0.22419 0.65397 0.0
C1031 C 0.5898 0.20448 0.6433 0.0
C1032 C 0.62242 0.232 0.65728 0.0
C1033 C 0.63096 0.22029 0.64989 0.0
C1034 C 0.61868 0.20024 0.64152 0.0
C1035 C 0.59825 0.19239 0.63819 0.0
C1036 C 0.65276 0.22973 0.64747 0.0
C1037 C 0.66431 0.24002 0.67611 0.0
C1038 C 0.66218 0.22995 0.61615 0.0
C1039 C 0.65081 0.22021 0.5845 0.0
C1040 C 0.65285 0.20512 0.5687 0.0
C1041 C 0.64196 0.19574 0.53908 0.0
C1042 C 0.62907 0.20144 0.52494 0.0
C1043 C 0.62713 0.2166 0.54028 0.0
C1044 C 0.63801 0.22604 0.56985 0.0
C1045 C 0.74996 0.27693 0.65605 0.0
C1046 C 0.75676 0.29208 0.63121 0.0
C1047 C 0.72974 0.26324 0.65907 0.0
C1048 C 0.71603 0.26455 0.63738 0.0
C1049 C 0.72288 0.27914 0.61165 0.0
C1050 C 0.74303 0.29278 0.6086 0.0
C1051 C 0.69443 0.25158 0.64238 0.0
C1052 C 0.6829 0.24063 0.61417 0.0
C1053 C 0.68502 0.25114 0.67386 0.0
C1054 C 0.69626 0.26303 0.70415 0.0
C1055 C 0.7077 0.28378 0.70197 0.0
C1056 C 0.71832 0.29488 0.73063 0.0
C1057 C 0.71746 0.2854 0.76168 0.0
C1058 C 0.70594 0.26479 0.76417 0.0
C1059 C 0.69532 0.25362 0.73556 0.0
H1060 H 0.72569 0.29402 0.78384 0.0
H1061 H 0.62063 0.19414 0.50205 0.0
H1062 H 0.83596 0.41353 0.03436 0.0
H1063 H 0.82246 0.43586 0.02771 0.0
H1064 H 0.76314 0.38571 0.03031 0.0
H1065 H 0.77634 0.36346 0.03709 0.0
H1066 H 0.76919 0.41188 0.97664 0.0
H1067 H 0.78127 0.41313 0.09968 0.0
H1068 H 0.80213 0.41887 0.15098 0.0
H1069 H 0.83919 0.47972 0.1216 0.0
H1070 H 0.81867 0.47425 0.06982 0.0
H1071 H 0.70219 0.44332 0.02291 0.0
H1072 H 0.72322 0.42856 0.01732 0.0
H1073 H 0.77532 0.48654 0.02244 0.0
H1074 H 0.75439 0.50149 0.02844 0.0
H1075 H 0.77805 0.46121 0.0659 0.0
H1076 H 0.7631 0.46129 0.94738 0.0
H1077 H 0.74224 0.45575 0.89618 0.0
H1078 H 0.71113 0.39315 0.91575 0.0
H1079 H 0.73161 0.39833 0.96739 0.0
C1080 C 0.82006 0.40731 0.03359 0.0
C1081 C 0.80723 0.38674 0.03629 0.0
C1082 C 0.81239 0.42006 0.02979 0.0
C1083 C 0.79182 0.41238 0.02844 0.0
C1084 C 0.77906 0.3919 0.03109 0.0
C1085 C 0.78666 0.37922 0.03517 0.0
C1086 C 0.78328 0.42548 0.02464 0.0
C1087 C 0.77106 0.42265 0.99615 0.0
C1088 C 0.78629 0.43994 0.04957 0.0
C1089 C 0.79861 0.44321 0.08066 0.0
C1090 C 0.79398 0.42768 0.10398 0.0
C1091 C 0.80572 0.4309 0.13318 0.0
C1092 C 0.82202 0.44963 0.13948 0.0
C1093 C 0.82659 0.4652 0.11664 0.0
C1094 C 0.81491 0.46206 0.08737 0.0
C1095 C 0.71811 0.45299 0.02245 0.0
C1096 C 0.72659 0.47359 0.02622 0.0
C1097 C 0.73012 0.44452 0.01908 0.0
C1098 C 0.75084 0.45647 0.0192 0.0
C1099 C 0.75936 0.47707 0.02224 0.0
C1100 C 0.74736 0.48557 0.02555 0.0
C1101 C 0.76345 0.44723 0.01834 0.0
C1102 C 0.77645 0.45077 0.04595 0.0
C1103 C 0.76121 0.43346 0.9925 0.0
C1104 C 0.74883 0.43023 0.96142 0.0
C1105 C 0.75171 0.44636 0.94094 0.0
C1106 C 0.73997 0.44327 0.9118 0.0
C1107 C 0.72535 0.42411 0.90275 0.0
C1108 C 0.72246 0.40798 0.92279 0.0
C1109 C 0.73416 0.41098 0.95198 0.0
H1110 H 0.71628 0.42175 0.88017 0.0
H1111 H 0.83108 0.4521 0.16212 0.0
H1112 H 0.62745 0.40951 0.98235 0.0
H1113 H 0.6026 0.37472 0.98945 0.0
H1114 H 0.59683 0.38482 0.09711 0.0
H1115 H 0.62212 0.41972 0.09036 0.0
H1116 H 0.60087 0.35383 0.09056 0.0
H1117 H 0.55896 0.37422 0.03968 0.0
H1118 H 0.54829 0.391 -0.00178 0.0
H1119 H 0.54974 0.35468 0.91639 0.0
H1120 H 0.56071 0.33787 0.95724 0.0
H1121 H 0.50914 0.24977 0.05657 0.0
H1122 H 0.52352 0.28584 0.05769 0.0
H1123 H 0.58128 0.29338 0.03732 0.0
H1124 H 0.56721 0.2576 0.03621 0.0
H1125 H 0.54493 0.31562 0.01017 0.0
H1126 H 0.61438 0.32937 0.08883 0.0
H1127 H 0.62291 0.31242 0.13363 0.0
H1128 H 0.5623 0.28084 0.16706 0.0
H1129 H 0.55345 0.29781 0.12281 0.0
C1130 C 0.62076 0.40442 0.00748 0.0
C1131 C 0.62683 0.41736 0.03583 0.0
C1132 C 0.60641 0.38452 0.01145 0.0
C1133 C 0.59766 0.37718 0.04373 0.0
C1134 C 0.60335 0.39017 0.07194 0.0
C1135 C 0.61779 0.41011 0.06803 0.0
C1136 C 0.58386 0.35565 0.04834 0.0
C1137 C 0.58852 0.34553 0.0732 0.0
C1138 C 0.56741 0.34482 0.02631 0.0
C1139 C 0.56077 0.35485 0.00155 0.0
C1140 C 0.55714 0.3699 0.0128 0.0
C1141 C 0.55102 0.37941 0.9894 0.0
C1142 C 0.54836 0.37393 0.95468 0.0
C1143 C 0.5518 0.35891 0.94329 0.0
C1144 C 0.55794 0.34936 0.96658 0.0
C1145 C 0.52487 0.25911 0.05199 0.0
C1146 C 0.53705 0.25078 0.04656 0.0
C1147 C 0.53303 0.27969 0.05264 0.0
C1148 C 0.55348 0.2922 0.04817 0.0
C1149 C 0.5655 0.28394 0.04142 0.0
C1150 C 0.5574 0.26346 0.04065 0.0
C1151 C 0.5626 0.31394 0.05121 0.0
C1152 C 0.55707 0.32404 0.02785 0.0
C1153 C 0.57794 0.3248 0.07518 0.0
C1154 C 0.58324 0.31479 0.10231 0.0
C1155 C 0.60289 0.3189 0.10587 0.0
C1156 C 0.60777 0.30926 0.13114 0.0
C1157 C 0.59314 0.29553 0.15312 0.0
C1158 C 0.5736 0.29144 0.14995 0.0
C1159 C 0.56865 0.30104 0.12474 0.0
H1160 H 0.59695 0.28807 0.17265 0.0
H1161 H 0.54362 0.38131 0.93661 0.0
H1162 H 0.75973 0.25046 0.02484 0.0
H1163 H 0.724 0.22644 0.02416 0.0
H1164 H 0.71159 0.27367 0.04291 0.0
H1165 H 0.74691 0.29769 0.04292 0.0
H1166 H 0.6935 0.23836 0.09042 0.0
H1167 H 0.70379 0.25868 0.96894 0.0
H1168 H 0.71912 0.26205 0.91189 0.0
H1169 H 0.69644 0.19927 0.90851 0.0
H1170 H 0.6812 0.19559 0.96583 0.0
H1171 H 0.59953 0.22182 0.06269 0.0
H1172 H 0.63456 0.23249 0.06211 0.0
H1173 H 0.62183 0.17646 0.01831 0.0
H1174 H 0.58631 0.16565 0.01812 0.0
H1175 H 0.65286 0.20735 0.98603 0.0
H1176 H 0.63628 0.18602 0.10137 0.0
H1177 H 0.62059 0.18215 0.15818 0.0
H1178 H 0.6551 0.24492 0.17481 0.0
H1179 H 0.67079 0.24922 0.11788 0.0
C1180 C 0.74935 0.25572 0.02843 0.0
C1181 C 0.75615 0.27598 0.03395 0.0
C1182 C 0.72902 0.24201 0.02804 0.0
C1183 C 0.71531 0.24837 0.03366 0.0
C1184 C 0.72203 0.26854 0.03864 0.0
C1185 C 0.74223 0.28224 0.03847 0.0
C1186 C 0.69387 0.2342 0.03568 0.0
C1187 C 0.68455 0.23147 0.0677 0.0
C1188 C 0.68244 0.22465 0.00619 0.0
C1189 C 0.69163 0.2269 0.97185 0.0
C1190 C 0.70228 0.24564 0.95621 0.0
C1191 C 0.7109 0.24759 0.92379 0.0
C1192 C 0.70883 0.2309 0.90665 0.0
C1193 C 0.69808 0.2122 0.92186 0.0
C1194 C 0.68945 0.21017 0.9543 0.0
C1195 C 0.60405 0.21164 0.05301 0.0
C1196 C 0.59008 0.19283 0.04052 0.0
C1197 C 0.62414 0.21775 0.05291 0.0
C1198 C 0.63078 0.20513 0.04077 0.0
C1199 C 0.61696 0.18636 0.02803 0.0
C1200 C 0.59671 0.1802 0.02802 0.0
C1201 C 0.65231 0.21224 0.04064 0.0
C1202 C 0.66173 0.21364 0.00905 0.0
C1203 C 0.66389 0.22042 0.07068 0.0
C1204 C 0.65469 0.21794 0.10523 0.0
C1205 C 0.64046 0.19902 0.11705 0.0
C1206 C 0.63157 0.19675 0.14929 0.0
C1207 C 0.63684 0.21328 0.17008 0.0
C1208 C 0.65105 0.23212 0.15869 0.0
C1209 C 0.65998 0.23448 0.12645 0.0
H1210 H 0.62992 0.21149 0.19502 0.0
H1211 H 0.7155 0.23244 0.88153 0.0
H1212 H 0.37342 0.77978 0.96068 0.0
H1213 H 0.39624 0.76727 0.96755 0.0
H1214 H 0.44479 0.82686 0.98091 0.0
H1215 H 0.42187 0.83968 0.97421 0.0
H1216 H 0.45256 0.8031 0.93448 0.0
H1217 H 0.42937 0.79992 0.04944 0.0
H1218 H 0.40448 0.79201 0.09505 0.0
H1219 H 0.37756 0.73013 0.07086 0.0
H1220 H 0.40212 0.73768 0.02475 0.0
H1221 H 0.51277 0.76057 0.97324 0.0
H1222 H 0.49697 0.78072 0.97979 0.0
H1223 H 0.43945 0.72788 0.9773 0.0
H1224 H 0.45504 0.70763 0.97134 0.0
H1225 H 0.44057 0.75325 0.02491 0.0
H1226 H 0.45947 0.75634 0.90535 0.0
H1227 H 0.48295 0.76317 0.85765 0.0
H1228 H 0.51658 0.82411 0.8887 0.0
H1229 H 0.4934 0.81756 0.93687 0.0
C1230 C 0.38894 0.79031 0.96504 0.0
C1231 C 0.39582 0.81075 0.96701 0.0
C1232 C 0.40195 0.7831 0.96913 0.0
C1233 C 0.42212 0.79613 0.97518 0.0
C1234 C 0.42921 0.81659 0.97646 0.0
C1235 C 0.41612 0.82386 0.97267 0.0
C1236 C 0.4356 0.78806 0.9796 0.0
C1237 C 0.4503 0.79256 0.95473 0.0
C1238 C 0.43231 0.77403 0.00564 0.0
C1239 C 0.41754 0.76939 0.03347 0.0
C1240 C 0.41806 0.78463 0.05366 0.0
C1241 C 0.40402 0.78021 0.07964 0.0
C1242 C 0.38944 0.76058 0.08581 0.0
C1243 C 0.38887 0.74533 0.06605 0.0
C1244 C 0.40287 0.74967 0.04002 0.0
C1245 C 0.49676 0.75321 0.97446 0.0
C1246 C 0.48517 0.73248 0.9715 0.0
C1247 C 0.48776 0.76477 0.97807 0.0
C1248 C 0.46704 0.75581 0.97856 0.0
C1249 C 0.45548 0.7351 0.97694 0.0
C1250 C 0.46443 0.72354 0.97341 0.0
C1251 C 0.45721 0.7679 0.97929 0.0
C1252 C 0.44315 0.76412 0.00511 0.0
C1253 C 0.46097 0.78245 0.95393 0.0
C1254 C 0.47486 0.78641 0.92494 0.0
C1255 C 0.47196 0.77116 0.90216 0.0
C1256 C 0.48519 0.77498 0.87502 0.0
C1257 C 0.50129 0.79404 0.87022 0.0
C1258 C 0.50413 0.80934 0.8925 0.0
C1259 C 0.49095 0.80558 0.91971 0.0
H1260 H 0.51152 0.79698 0.84919 0.0
H1261 H 0.37859 0.75719 0.10595 0.0
H1262 H 0.30877 0.74992 0.98276 0.0
H1263 H 0.28653 0.71417 0.98534 0.0
H1264 H 0.23665 0.7222 0.96436 0.0
H1265 H 0.25878 0.75801 0.96132 0.0
H1266 H 0.25403 0.68826 0.02201 0.0
H1267 H 0.20724 0.68627 0.9059 0.0
H1268 H 0.20976 0.70673 0.85547 0.0
H1269 H 0.27291 0.73177 0.85426 0.0
H1270 H 0.27072 0.71126 0.90433 0.0
H1271 H 0.1837 0.58684 0.99433 0.0
H1272 H 0.19584 0.62237 -6e-05 0.0
H1273 H 0.23476 0.63395 0.91317 0.0
H1274 H 0.22258 0.59858 0.90708 0.0
H1275 H 0.21924 0.658 0.9123 0.0
H1276 H 0.25143 0.63637 0.99424 0.0
H1277 H 0.25224 0.61612 0.04238 0.0
H1278 H 0.2237 0.63858 0.10822 0.0
H1279 H 0.22249 0.65878 0.06028 0.0
C1280 C 0.29304 0.74415 0.97923 0.0
C1281 C 0.2856 0.75681 0.97132 0.0
C1282 C 0.28034 0.7237 0.98088 0.0
C1283 C 0.26002 0.71557 0.97456 0.0
C1284 C 0.25235 0.72822 0.96887 0.0
C1285 C 0.26503 0.74867 0.96719 0.0
C1286 C 0.24731 0.69388 0.97083 0.0
C1287 C 0.24619 0.68162 -0.00179 0.0
C1288 C 0.23735 0.68527 0.93957 0.0
C1289 C 0.23882 0.69742 0.9091 0.0
C1290 C 0.22165 0.69611 0.89479 0.0
C1291 C 0.22302 0.70771 0.86628 0.0
C1292 C 0.24149 0.7206 0.85176 0.0
C1293 C 0.25862 0.72184 0.86561 0.0
C1294 C 0.25732 0.71024 0.89407 0.0
C1295 C 0.19457 0.59692 0.97605 0.0
C1296 C 0.20238 0.58994 0.95054 0.0
C1297 C 0.20153 0.61721 0.97938 0.0
C1298 C 0.21639 0.63077 0.95728 0.0
C1299 C 0.22331 0.62372 0.93052 0.0
C1300 C 0.2164 0.6035 0.92719 0.0
C1301 C 0.22601 0.65235 0.96343 0.0
C1302 C 0.2266 0.66461 0.93645 0.0
C1303 C 0.23587 0.66096 0.99477 0.0
C1304 C 0.23665 0.64888 0.0236 0.0
C1305 C 0.24519 0.63686 0.01891 0.0
C1306 C 0.24574 0.62542 0.04616 0.0
C1307 C 0.23797 0.62601 0.07831 0.0
C1308 C 0.22967 0.6381 0.08329 0.0
C1309 C 0.22905 0.64955 0.05609 0.0
H1310 H 0.23842 0.61714 0.09938 0.0
H1311 H 0.24252 0.72959 0.82973 0.0
H1312 H 0.26845 0.5732 0.94623 0.0
H1313 H 0.30445 0.58969 0.94961 0.0
H1314 H 0.30143 0.53296 0.95514 0.0
H1315 H 0.26533 0.51625 0.95092 0.0
H1316 H 0.3292 0.59087 0.99626 0.0
H1317 H 0.34196 0.53633 0.91436 0.0
H1318 H 0.32569 0.51212 0.86745 0.0
H1319 H 0.29751 0.54424 0.83241 0.0
H1320 H 0.31381 0.56876 0.87881 0.0
H1321 H 0.42958 0.61979 0.01178 0.0
H1322 H 0.39385 0.59741 0.00835 0.0
H1323 H 0.3941 0.61508 0.90289 0.0
H1324 H 0.42994 0.63728 0.90586 0.0
H1325 H 0.36786 0.57602 0.91182 0.0
H1326 H 0.38365 0.63756 0.96638 0.0
H1327 H 0.40006 0.66438 0.0091 0.0
H1328 H 0.37092 0.62284 0.09125 0.0
H1329 H 0.35454 0.59571 0.04899 0.0
C1330 C 0.27539 0.56418 0.94831 0.0
C1331 C 0.26399 0.54339 0.9481 0.0
C1332 C 0.296 0.57366 0.95031 0.0
C1333 C 0.30565 0.56257 0.95221 0.0
C1334 C 0.29431 0.54181 0.95307 0.0
C1335 C 0.27367 0.53229 0.95083 0.0
C1336 C 0.32759 0.57287 0.95287 0.0
C1337 C 0.33762 0.58752 0.9779 0.0
C1338 C 0.33861 0.56873 0.92859 0.0
C1339 C 0.32894 0.55423 0.9003 0.0
C1340 C 0.33234 0.53825 0.89657 0.0
C1341 C 0.32311 0.52447 0.87008 0.0
C1342 C 0.31052 0.5266 0.84704 0.0
C1343 C 0.3072 0.54256 0.85036 0.0
C1344 C 0.31642 0.55639 0.87677 0.0
C1345 C 0.4221 0.6187 0.98766 0.0
C1346 C 0.43253 0.63052 0.95924 0.0
C1347 C 0.40168 0.60591 0.98578 0.0
C1348 C 0.3913 0.60489 0.95559 0.0
C1349 C 0.40184 0.61572 0.92647 0.0
C1350 C 0.42231 0.62844 0.92826 0.0
C1351 C 0.36937 0.59389 0.9553 0.0
C1352 C 0.35938 0.57915 0.93039 0.0
C1353 C 0.35835 0.59828 0.97912 0.0
C1354 C 0.36804 0.61458 0.00456 0.0
C1355 C 0.38086 0.63413 0.99357 0.0
C1356 C 0.39013 0.64938 0.01769 0.0
C1357 C 0.38658 0.64531 0.05287 0.0
C1358 C 0.37369 0.62597 0.06399 0.0
C1359 C 0.36439 0.61065 0.03997 0.0
H1360 H 0.39377 0.65714 0.07151 0.0
H1361 H 0.30337 0.51592 0.82658 0.0
H1362 H 0.49708 0.75069 0.35432 0.0
H1363 H 0.48543 0.77427 0.34384 0.0
H1364 H 0.42527 0.72792 0.36204 0.0
H1365 H 0.43667 0.70447 0.37271 0.0
H1366 H 0.42923 0.75148 0.3044 0.0
H1367 H 0.4499 0.75852 0.42487 0.0
H1368 H 0.47433 0.76567 0.47102 0.0
H1369 H 0.51198 0.82359 0.42868 0.0
H1370 H 0.48785 0.81665 0.38197 0.0
H1371 H 0.36808 0.78639 0.3627 0.0
H1372 H 0.38848 0.77147 0.35215 0.0
H1373 H 0.44082 0.8294 0.34982 0.0
H1374 H 0.42044 0.84455 0.36158 0.0
H1375 H 0.44701 0.80566 0.38872 0.0
H1376 H 0.42246 0.80097 0.27535 0.0
H1377 H 0.39724 0.79391 0.23078 0.0
H1378 H 0.36703 0.73232 0.25835 0.0
H1379 H 0.39189 0.73903 0.30346 0.0
C1380 C 0.48138 0.74555 0.35591 0.0
C1381 C 0.46781 0.72577 0.36458 0.0
C1382 C 0.47476 0.759 0.34989 0.0
C1383 C 0.4545 0.75278 0.35215 0.0
C1384 C 0.44095 0.73297 0.35998 0.0
C1385 C 0.44753 0.71963 0.36634 0.0
C1386 C 0.44718 0.76691 0.34837 0.0
C1387 C 0.43312 0.76339 0.32269 0.0
C1388 C 0.45279 0.7828 0.3716 0.0
C1389 C 0.46722 0.78697 0.3997 0.0
C1390 C 0.46347 0.77271 0.42524 0.0
C1391 C 0.47724 0.77674 0.45152 0.0
C1392 C 0.49473 0.79505 0.45271 0.0
C1393 C 0.49845 0.80939 0.42767 0.0
C1394 C 0.48474 0.80542 0.40129 0.0
C1395 C 0.3839 0.79604 0.35956 0.0
C1396 C 0.39263 0.81668 0.36305 0.0
C1397 C 0.39556 0.78746 0.35326 0.0
C1398 C 0.41617 0.79932 0.34958 0.0
C1399 C 0.42493 0.81998 0.35239 0.0
C1400 C 0.41327 0.82859 0.35908 0.0
C1401 C 0.42847 0.78985 0.3454 0.0
C1402 C 0.44349 0.7942 0.36962 0.0
C1403 C 0.4238 0.77478 0.32067 0.0
C1404 C 0.40906 0.77053 0.2929 0.0
C1405 C 0.41042 0.78592 0.272 0.0
C1406 C 0.39617 0.78198 0.24663 0.0
C1407 C 0.38055 0.76268 0.24174 0.0
C1408 C 0.37917 0.74726 0.26213 0.0
C1409 C 0.39336 0.75112 0.28756 0.0
H1410 H 0.36951 0.75967 0.22214 0.0
H1411 H 0.50537 0.79814 0.47309 0.0
H1412 H 0.30523 0.75545 0.39331 0.0
H1413 H 0.28323 0.72004 0.3854 0.0
H1414 H 0.23882 0.73099 0.34141 0.0
H1415 H 0.26097 0.76681 0.34886 0.0
H1416 H 0.22516 0.69843 0.39296 0.0
H1417 H 0.26188 0.72099 0.2871 0.0
H1418 H 0.2923 0.73957 0.25256 0.0
H1419 H 0.31596 0.70516 0.2964 0.0
H1420 H 0.2858 0.68656 0.3316 0.0
H1421 H 0.17165 0.59608 0.34917 0.0
H1422 H 0.18708 0.63206 0.34366 0.0
H1423 H 0.24441 0.63817 0.36302 0.0
H1424 H 0.22925 0.60234 0.36723 0.0
H1425 H 0.24806 0.66312 0.31581 0.0
H1426 H 0.21605 0.64468 0.42709 0.0
H1427 H 0.18782 0.62684 0.46675 0.0
H1428 H 0.15755 0.65375 0.41832 0.0
H1429 H 0.18553 0.67157 0.37807 0.0
C1430 C 0.29075 0.75043 0.38215 0.0
C1431 C 0.28491 0.76399 0.37146 0.0
C1432 C 0.27823 0.73016 0.37759 0.0
C1433 C 0.25956 0.723 0.36246 0.0
C1434 C 0.25325 0.73633 0.353 0.0
C1435 C 0.26591 0.75674 0.35724 0.0
C1436 C 0.24709 0.70154 0.35595 0.0
C1437 C 0.22984 0.69068 0.37551 0.0
C1438 C 0.25358 0.69154 0.33378 0.0
C1439 C 0.27161 0.70245 0.31214 0.0
C1440 C 0.27362 0.71746 0.28953 0.0
C1441 C 0.29081 0.72799 0.26982 0.0
C1442 C 0.30607 0.72357 0.27233 0.0
C1443 C 0.30413 0.70856 0.29448 0.0
C1444 C 0.28697 0.698 0.31428 0.0
C1445 C 0.18757 0.6051 0.35191 0.0
C1446 C 0.19922 0.59635 0.35883 0.0
C1447 C 0.19636 0.62567 0.34891 0.0
C1448 C 0.21687 0.63787 0.3535 0.0
C1449 C 0.22855 0.62909 0.35935 0.0
C1450 C 0.21984 0.60857 0.36184 0.0
C1451 C 0.22629 0.65979 0.35353 0.0
C1452 C 0.24304 0.6708 0.33273 0.0
C1453 C 0.21953 0.66988 0.37507 0.0
C1454 C 0.20276 0.65925 0.39932 0.0
C1455 C 0.20331 0.64668 0.42475 0.0
C1456 C 0.18736 0.63659 0.44735 0.0
C1457 C 0.17087 0.63911 0.44498 0.0
C1458 C 0.17032 0.65177 0.42007 0.0
C1459 C 0.18621 0.66188 0.39736 0.0
H1460 H 0.15854 0.63128 0.4625 0.0
H1461 H 0.31938 0.73175 0.25708 0.0
H1462 H 0.41577 0.59061 0.41224 0.0
H1463 H 0.37999 0.5673 0.41259 0.0
H1464 H 0.36906 0.61576 0.39639 0.0
H1465 H 0.40454 0.63905 0.39601 0.0
H1466 H 0.3462 0.59045 0.44852 0.0
H1467 H 0.36614 0.58682 0.33072 0.0
H1468 H 0.38515 0.58014 0.28726 0.0
H1469 H 0.35967 0.52027 0.32363 0.0
H1470 H 0.3407 0.52671 0.36764 0.0
H1471 H 0.2577 0.56622 0.37387 0.0
H1472 H 0.29237 0.57702 0.38368 0.0
H1473 H 0.27811 0.51639 0.39741 0.0
H1474 H 0.24289 0.50523 0.38714 0.0
H1475 H 0.31281 0.53988 0.35713 0.0
H1476 H 0.28714 0.54261 0.46698 0.0
H1477 H 0.26766 0.55016 0.50805 0.0
H1478 H 0.30385 0.61222 0.48622 0.0
H1479 H 0.32332 0.60505 0.44458 0.0
C1480 C 0.40573 0.59629 0.40875 0.0
C1481 C 0.41301 0.6167 0.40407 0.0
C1482 C 0.38533 0.58295 0.40891 0.0
C1483 C 0.37196 0.58985 0.40452 0.0
C1484 C 0.37918 0.61018 0.39998 0.0
C1485 C 0.39948 0.62346 0.39962 0.0
C1486 C 0.35033 0.57616 0.40441 0.0
C1487 C 0.33887 0.57932 0.42866 0.0
C1488 C 0.34087 0.56117 0.37924 0.0
C1489 C 0.35222 0.55732 0.35275 0.0
C1490 C 0.36473 0.57229 0.32965 0.0
C1491 C 0.37547 0.56854 0.30488 0.0
C1492 C 0.37367 0.54981 0.30277 0.0
C1493 C 0.36108 0.53478 0.32536 0.0
C1494 C 0.35033 0.53847 0.35021 0.0
C1495 C 0.26182 0.55508 0.37887 0.0
C1496 C 0.2475 0.53486 0.38013 0.0
C1497 C 0.28168 0.56131 0.38453 0.0
C1498 C 0.28769 0.54753 0.39198 0.0
C1499 C 0.27365 0.52723 0.39197 0.0
C1500 C 0.2536 0.52091 0.38613 0.0
C1501 C 0.30874 0.55488 0.40026 0.0
C1502 C 0.3201 0.55052 0.37771 0.0
C1503 C 0.31817 0.56884 0.42701 0.0
C1504 C 0.30669 0.57327 0.45257 0.0
C1505 C 0.29089 0.55787 0.47081 0.0
C1506 C 0.27985 0.56208 0.4942 0.0
C1507 C 0.28452 0.58165 0.49974 0.0
C1508 C 0.30026 0.59706 0.48194 0.0
C1509 C 0.31133 0.59294 0.45848 0.0
H1510 H 0.27598 0.58491 0.51784 0.0
H1511 H 0.38199 0.54693 0.28358 0.0
H1512 H 0.40868 0.14612 0.06067 0.0
H1513 H 0.37386 0.12543 0.07817 0.0
H1514 H 0.38943 0.14692 0.18241 0.0
H1515 H 0.42402 0.16787 0.16492 0.0
H1516 H 0.36042 0.10325 0.173 0.0
H1517 H 0.37493 0.17015 0.13912 0.0
H1518 H 0.38678 0.19757 0.09723 0.0
H1519 H 0.34384 0.15865 0.02351 0.0
H1520 H 0.33194 0.13093 0.06487 0.0
H1521 H 0.27765 0.09487 0.26116 0.0
H1522 H 0.30971 0.10378 0.23522 0.0
H1523 H 0.28462 0.09839 0.13374 0.0
H1524 H 0.25304 0.09079 0.15992 0.0
H1525 H 0.31721 0.12939 0.13419 0.0
H1526 H 0.29783 0.06396 0.16898 0.0
H1527 H 0.28543 0.03506 0.20761 0.0
H1528 H 0.33562 0.06717 0.27406 0.0
H1529 H 0.34818 0.09639 0.23612 0.0
C1530 C 0.40464 0.14609 0.08739 0.0
C1531 C 0.41884 0.15854 0.11151 0.0
C1532 C 0.38486 0.13431 0.09732 0.0
C1533 C 0.37923 0.13467 0.13156 0.0
C1534 C 0.3936 0.14638 0.15595 0.0
C1535 C 0.41324 0.15842 0.14591 0.0
C1536 C 0.35819 0.12473 0.14144 0.0
C1537 C 0.35085 0.10884 0.16464 0.0
C1538 C 0.34571 0.13174 0.1295 0.0
C1539 C 0.35273 0.14845 0.10488 0.0
C1540 C 0.36814 0.16742 0.11387 0.0
C1541 C 0.37484 0.18301 0.09025 0.0
C1542 C 0.36611 0.17984 0.05769 0.0
C1543 C 0.35062 0.16108 0.04872 0.0
C1544 C 0.34389 0.14542 0.07223 0.0
C1545 C 0.27911 0.09558 0.23335 0.0
C1546 C 0.26315 0.09237 0.21239 0.0
C1547 C 0.2973 0.10042 0.21848 0.0
C1548 C 0.29955 0.10145 0.18241 0.0
C1549 C 0.28332 0.09774 0.16157 0.0
C1550 C 0.26532 0.09343 0.17647 0.0
C1551 C 0.31916 0.10785 0.16653 0.0
C1552 C 0.32638 0.12325 0.14219 0.0
C1553 C 0.33131 0.10001 0.1769 0.0
C1554 C 0.32388 0.08244 0.19978 0.0
C1555 C 0.30616 0.06492 0.19195 0.0
C1556 C 0.29911 0.04847 0.21372 0.0
C1557 C 0.30971 0.04929 0.2433 0.0
C1558 C 0.32742 0.06656 0.25114 0.0
C1559 C 0.33453 0.08307 0.22948 0.0
H1560 H 0.30422 0.03654 0.26012 0.0
H1561 H 0.37132 0.19193 0.03944 0.0
H1562 H 0.83825 0.22734 0.06169 0.0
H1563 H 0.85943 0.21543 0.08568 0.0
H1564 H 0.8956 0.27199 0.13495 0.0
H1565 H 0.87416 0.28378 0.11168 0.0
H1566 H 0.89937 0.22646 0.08664 0.0
H1567 H 0.90251 0.26132 0.21779 0.0
H1568 H 0.88496 0.27514 0.25034 0.0
H1569 H 0.83103 0.23622 0.19684 0.0
H1570 H 0.84819 0.222 0.16441 0.0
H1571 H 0.94954 0.19459 0.20063 0.0
H1572 H 0.94069 0.21693 0.17188 0.0
H1573 H 0.88087 0.18229 0.20991 0.0
H1574 H 0.88987 0.16034 0.23998 0.0
H1575 H 0.89365 0.22126 0.21414 0.0
H1576 H 0.89382 0.17554 0.1292 0.0
H1577 H 0.90911 0.15971 0.09587 0.0
H1578 H 0.95256 0.21636 0.05578 0.0
H1579 H 0.93769 0.23257 0.0893 0.0
C1580 C 0.85104 0.23736 0.07689 0.0
C1581 C 0.85476 0.25651 0.08452 0.0
C1582 C 0.86318 0.23061 0.09038 0.0
C1583 C 0.879 0.24283 0.11213 0.0
C1584 C 0.88346 0.26239 0.11813 0.0
C1585 C 0.87132 0.26915 0.10459 0.0
C1586 C 0.88883 0.23409 0.13216 0.0
C1587 C 0.8984 0.22554 0.11454 0.0
C1588 C 0.8873 0.23273 0.1685 0.0
C1589 C 0.8767 0.2408 0.18842 0.0
C1590 C 0.88689 0.25568 0.2131 0.0
C1591 C 0.87701 0.26358 0.23151 0.0
C1592 C 0.85691 0.25661 0.22556 0.0
C1593 C 0.84661 0.24165 0.20134 0.0
C1594 C 0.85641 0.23368 0.18293 0.0
C1595 C 0.9347 0.19212 0.20392 0.0
C1596 C 0.92048 0.176 0.22327 0.0
C1597 C 0.92959 0.20473 0.18699 0.0
C1598 C 0.91012 0.20119 0.18866 0.0
C1599 C 0.89601 0.18532 0.20847 0.0
C1600 C 0.90113 0.17276 0.22549 0.0
C1601 C 0.90402 0.21338 0.16864 0.0
C1602 C 0.89512 0.22258 0.18631 0.0
C1603 C 0.90592 0.21505 0.13231 0.0
C1604 C 0.91479 0.20528 0.11207 0.0
C1605 C 0.90673 0.18463 0.11349 0.0
C1606 C 0.91531 0.1756 0.09454 0.0
C1607 C 0.93184 0.18703 0.07381 0.0
C1608 C 0.93979 0.20753 0.07191 0.0
C1609 C 0.93129 0.21665 0.09088 0.0
H1610 H 0.93845 0.18001 0.05914 0.0
H1611 H 0.8493 0.26278 0.23978 0.0
H1612 H 0.78464 0.60967 0.05486 0.0
H1613 H 0.79721 0.64165 0.08359 0.0
H1614 H 0.74158 0.61951 0.13719 0.0
H1615 H 0.7294 0.58729 0.11021 0.0
H1616 H 0.78738 0.66987 0.08845 0.0
H1617 H 0.75131 0.63703 0.2194 0.0
H1618 H 0.73747 0.60546 0.25129 0.0
H1619 H 0.77616 0.59062 0.19651 0.0
H1620 H 0.79041 0.62222 0.1647 0.0
H1621 H 0.81527 0.75088 0.20071 0.0
H1622 H 0.79369 0.71921 0.17279 0.0
H1623 H 0.8287 0.69548 0.21523 0.0
H1624 H 0.84984 0.72693 0.24454 0.0
H1625 H 0.79011 0.66818 0.21618 0.0
H1626 H 0.83722 0.71475 0.1344 0.0
H1627 H 0.85386 0.74615 0.10191 0.0
H1628 H 0.79822 0.7334 0.05767 0.0
H1629 H 0.78121 0.70202 0.09028 0.0
C1630 C 0.775 0.61174 0.07237 0.0
C1631 C 0.75593 0.59606 0.07978 0.0
C1632 C 0.78214 0.63003 0.08861 0.0
C1633 C 0.77036 0.63287 0.11268 0.0
C1634 C 0.75094 0.61756 0.11882 0.0
C1635 C 0.74387 0.59921 0.10286 0.0
C1636 C 0.77911 0.65122 0.13346 0.0
C1637 C 0.78781 0.66952 0.11639 0.0
C1638 C 0.77986 0.65071 0.1699 0.0
C1639 C 0.77174 0.63187 0.18941 0.0
C1640 C 0.7569 0.62705 0.21428 0.0
C1641 C 0.74899 0.60916 0.23233 0.0
C1642 C 0.75588 0.59601 0.22583 0.0
C1643 C 0.77078 0.60078 0.20143 0.0
C1644 C 0.77878 0.61868 0.18338 0.0
C1645 C 0.81792 0.73872 0.20525 0.0
C1646 C 0.83399 0.74122 0.22543 0.0
C1647 C 0.80575 0.72071 0.18881 0.0
C1648 C 0.80971 0.70509 0.19174 0.0
C1649 C 0.82536 0.70735 0.21276 0.0
C1650 C 0.83746 0.72531 0.22933 0.0
C1651 C 0.79851 0.68683 0.17115 0.0
C1652 C 0.78934 0.66854 0.18828 0.0
C1653 C 0.79771 0.68735 0.13473 0.0
C1654 C 0.80792 0.70616 0.11503 0.0
C1655 C 0.82852 0.71872 0.11793 0.0
C1656 C 0.83802 0.73649 0.09946 0.0
C1657 C 0.8271 0.74177 0.07777 0.0
C1658 C 0.80666 0.72929 0.07449 0.0
C1659 C 0.79708 0.71151 0.09294 0.0
H1660 H 0.8345 0.75552 0.06346 0.0
H1661 H 0.7497 0.58214 0.23977 0.0
H1662 H 0.12091 0.26714 0.81046 0.0
H1663 H 0.13091 0.29962 0.8348 0.0
H1664 H 0.09533 0.30837 0.75933 0.0
H1665 H 0.08582 0.27604 0.73394 0.0
H1666 H 0.13098 0.34124 0.76758 0.0
H1667 H 0.07873 0.29748 0.84008 0.0
H1668 H 0.05905 0.26792 0.87604 0.0
H1669 H 0.10737 0.28764 0.94741 0.0
H1670 H 0.12751 0.31717 0.91156 0.0
H1671 H 0.15502 0.42884 0.8613 0.0
H1672 H 0.13363 0.39591 0.83721 0.0
H1673 H 0.16573 0.37343 0.89427 0.0
H1674 H 0.18686 0.40628 0.91925 0.0
H1675 H 0.12469 0.34745 0.8937 0.0
H1676 H 0.17807 0.38783 0.8124 0.0
H1677 H 0.19686 0.4174 0.77588 0.0
H1678 H 0.14369 0.40386 0.72109 0.0
H1679 H 0.12456 0.37427 0.75752 0.0
C1680 C 0.11531 0.27602 0.79889 0.0
C1681 C 0.10223 0.26888 0.77081 0.0
C1682 C 0.12087 0.29447 0.81302 0.0
C1683 C 0.11342 0.30613 0.7994 0.0
C1684 C 0.10095 0.29941 0.77052 0.0
C1685 C 0.09538 0.28088 0.7563 0.0
C1686 C 0.11916 0.32548 0.81526 0.0
C1687 C 0.1292 0.34259 0.79501 0.0
C1688 C 0.11678 0.32718 0.85103 0.0
C1689 C 0.10469 0.30952 0.87297 0.0
C1690 C 0.08523 0.29546 0.86331 0.0
C1691 C 0.07398 0.27871 0.8837 0.0
C1692 C 0.08196 0.27589 0.91397 0.0
C1693 C 0.10121 0.28985 0.92395 0.0
C1694 C 0.11254 0.30661 0.90362 0.0
C1695 C 0.1571 0.41675 0.86963 0.0
C1696 C 0.17234 0.41996 0.89266 0.0
C1697 C 0.14501 0.39802 0.85552 0.0
C1698 C 0.14817 0.38233 0.86395 0.0
C1699 C 0.16302 0.38537 0.88766 0.0
C1700 C 0.17512 0.40411 0.90172 0.0
C1701 C 0.13713 0.36308 0.84624 0.0
C1702 C 0.12605 0.34601 0.86616 0.0
C1703 C 0.13831 0.36142 0.81012 0.0
C1704 C 0.14988 0.37897 0.78783 0.0
C1705 C 0.17039 0.39122 0.79265 0.0
C1706 C 0.18109 0.40796 0.77196 0.0
C1707 C 0.17147 0.41251 0.74621 0.0
C1708 C 0.15112 0.4003 0.74103 0.0
C1709 C 0.14035 0.38353 0.76166 0.0
H1710 H 0.17979 0.42549 0.73023 0.0
H1711 H 0.07323 0.26291 0.92971 0.0
H1712 H 0.62142 0.79642 0.94551 0.0
H1713 H 0.65304 0.8097 0.91493 0.0
H1714 H 0.63342 0.75241 0.86919 0.0
H1715 H 0.60167 0.73931 0.8985 0.0
H1716 H 0.6835 0.8013 0.90848 0.0
H1717 H 0.64513 0.7602 0.78387 0.0
H1718 H 0.61175 0.74383 0.75789 0.0
H1719 H 0.59772 0.78291 0.81333 0.0
H1720 H 0.6311 0.79971 0.83914 0.0
H1721 H 0.75823 0.82344 0.78628 0.0
H1722 H 0.72759 0.80335 0.81803 0.0
H1723 H 0.70362 0.83841 0.77681 0.0
H1724 H 0.73408 0.85813 0.74367 0.0
H1725 H 0.67543 0.79932 0.78129 0.0
H1726 H 0.72613 0.84951 0.85373 0.0
H1727 H 0.75934 0.8671 0.88013 0.0
H1728 H 0.74858 0.81335 0.92973 0.0
H1729 H 0.7154 0.79538 0.90317 0.0
C1730 C 0.62411 0.78657 0.92963 0.0
C1731 C 0.60924 0.76678 0.92486 0.0
C1732 C 0.64215 0.79413 0.91231 0.0
C1733 C 0.64543 0.78204 0.88966 0.0
C1734 C 0.6311 0.76195 0.88653 0.0
C1735 C 0.61305 0.75442 0.90373 0.0
C1736 C 0.66273 0.79099 0.86638 0.0
C1737 C 0.68178 0.80075 0.88068 0.0
C1738 C 0.66037 0.7905 0.83014 0.0
C1739 C 0.64053 0.78105 0.81369 0.0
C1740 C 0.63495 0.76537 0.79032 0.0
C1741 C 0.61603 0.75601 0.77565 0.0
C1742 C 0.6026 0.76228 0.78405 0.0
C1743 C 0.60811 0.77803 0.80692 0.0
C1744 C 0.62703 0.78747 0.82157 0.0
C1745 C 0.74616 0.82636 0.78274 0.0
C1746 C 0.74834 0.84206 0.76183 0.0
C1747 C 0.72876 0.81505 0.80137 0.0
C1748 C 0.71345 0.81954 0.79999 0.0
C1749 C 0.71527 0.83469 0.77811 0.0
C1750 C 0.73265 0.84596 0.75932 0.0
C1751 C 0.69625 0.80953 0.82335 0.0
C1752 C 0.67719 0.79964 0.80906 0.0
C1753 C 0.6986 0.81018 0.85962 0.0
C1754 C 0.71836 0.82107 0.87621 0.0
C1755 C 0.73089 0.84143 0.87012 0.0
C1756 C 0.7497 0.85146 0.88511 0.0
C1757 C 0.75608 0.84134 0.90652 0.0
C1758 C 0.74363 0.82117 0.9131 0.0
C1759 C 0.72481 0.81105 0.8981 0.0
H1760 H 0.77066 0.84913 0.91807 0.0
H1761 H 0.58793 0.75496 0.77279 0.0
H1762 H 0.28374 0.86356 0.86041 0.0
H1763 H 0.2694 0.88185 0.83315 0.0
H1764 H 0.21627 0.84881 0.89364 0.0
H1765 H 0.2305 0.83047 0.92074 0.0
H1766 H 0.208 0.84749 0.827 0.0
H1767 H 0.2493 0.89813 0.90889 0.0
H1768 H 0.28082 0.92139 0.93721 0.0
H1769 H 0.30444 0.95046 0.84045 0.0
H1770 H 0.27312 0.92718 0.81146 0.0
H1771 H 0.1545 0.89639 0.81011 0.0
H1772 H 0.17595 0.8847 0.8329 0.0
H1773 H 0.21914 0.91702 0.75387 0.0
H1774 H 0.19745 0.9285 0.73023 0.0
H1775 H 0.2354 0.92021 0.82236 0.0
H1776 H 0.19286 0.8708 0.74165 0.0
H1777 H 0.16095 0.84778 0.71425 0.0
H1778 H 0.13957 0.81637 0.80983 0.0
H1779 H 0.17127 0.8394 0.83796 0.0
C1780 C 0.26928 0.86067 0.86868 0.0
C1781 C 0.2583 0.84581 0.89302 0.0
C1782 C 0.26106 0.87104 0.85293 0.0
C1783 C 0.2418 0.86672 0.86147 0.0
C1784 C 0.23113 0.85232 0.88661 0.0
C1785 C 0.23927 0.8419 0.90211 0.0
C1786 C 0.23201 0.87597 0.8426 0.0
C1787 C 0.21394 0.86339 0.82628 0.0
C1788 C 0.24015 0.89674 0.84051 0.0
C1789 C 0.25895 0.91076 0.85794 0.0
C1790 C 0.26128 0.90937 0.8936 0.0
C1791 C 0.27909 0.92258 0.90978 0.0
C1792 C 0.29465 0.93735 0.89062 0.0
C1793 C 0.29239 0.93898 0.85525 0.0
C1794 C 0.27461 0.92579 0.83893 0.0
C1795 C 0.16855 0.90104 0.79749 0.0
C1796 C 0.17435 0.91354 0.76855 0.0
C1797 C 0.18081 0.89441 0.81065 0.0
C1798 C 0.19906 0.89998 0.79497 0.0
C1799 C 0.20514 0.91272 0.76642 0.0
C1800 C 0.19279 0.91934 0.75309 0.0
C1801 C 0.21116 0.89164 0.80794 0.0
C1802 C 0.22965 0.90435 0.82287 0.0
C1803 C 0.20344 0.87094 0.80887 0.0
C1804 C 0.18441 0.85692 0.79196 0.0
C1805 C 0.18131 0.85907 0.75689 0.0
C1806 C 0.16326 0.84601 0.74122 0.0
C1807 C 0.14823 0.83064 0.7603 0.0
C1808 C 0.15123 0.82828 0.79508 0.0
C1809 C 0.16925 0.84132 0.81089 0.0
H1810 H 0.13427 0.82054 0.74812 0.0
H1811 H 0.30843 0.94757 0.9032 0.0
H1812 H 0.94071 0.45664 0.57253 0.0
H1813 H 0.97217 0.46992 0.5418 0.0
H1814 H 0.94961 0.41522 0.48512 0.0
H1815 H 0.91805 0.40184 0.51586 0.0
H1816 H 0.98954 0.43147 0.50383 0.0
H1817 H 0.94826 0.45139 0.44683 0.0
H1818 H 0.92559 0.46476 0.44263 0.0
H1819 H 0.97102 0.52077 0.48161 0.0
H1820 H 0.99389 0.50764 0.48657 0.0
H1821 H 0.06971 0.48537 0.38246 0.0
H1822 H 0.03617 0.46433 0.4049 0.0
H1823 H 0.04501 0.51021 0.47686 0.0
H1824 H 0.07861 0.53099 0.45553 0.0
H1825 H 0.00932 0.49421 0.44122 0.0
H1826 H 0.04902 0.47218 0.5038 0.0
H1827 H 0.07134 0.45837 0.50757 0.0
H1828 H 0.02827 0.40565 0.45557 0.0
H1829 H 0.0058 0.41931 0.45103 0.0
C1830 C 0.9426 0.44733 0.55396 0.0
C1831 C 0.92708 0.42818 0.54682 0.0
C1832 C 0.96051 0.45492 0.53641 0.0
C1833 C 0.96304 0.4436 0.51093 0.0
C1834 C 0.94791 0.42411 0.50481 0.0
C1835 C 0.92996 0.41645 0.52258 0.0
C1836 C 0.98101 0.45284 0.48927 0.0
C1837 C 0.99374 0.44498 0.48957 0.0
C1838 C 0.98636 0.47041 0.47064 0.0
C1839 C 0.97275 0.47848 0.46726 0.0
C1840 C 0.95339 0.46653 0.45471 0.0
C1841 C 0.9405 0.47406 0.45217 0.0
C1842 C 0.94685 0.4936 0.46189 0.0
C1843 C 0.96613 0.50564 0.47409 0.0
C1844 C 0.97906 0.49817 0.47673 0.0
C1845 C 0.06469 0.49081 0.40353 0.0
C1846 C 0.07701 0.50966 0.41782 0.0
C1847 C 0.04545 0.47885 0.41605 0.0
C1848 C 0.03827 0.4857 0.44269 0.0
C1849 C 0.05034 0.50469 0.45627 0.0
C1850 C 0.06952 0.51654 0.444 0.0
C1851 C 0.01819 0.47329 0.45688 0.0
C1852 C 0.00499 0.48052 0.45497 0.0
C1853 C 0.0124 0.4551 0.47371 0.0
C1854 C 0.02584 0.44686 0.47669 0.0
C1855 C 0.04438 0.45772 0.4929 0.0
C1856 C 0.05705 0.44991 0.49523 0.0
C1857 C 0.05125 0.43117 0.48172 0.0
C1858 C 0.03275 0.42018 0.46595 0.0
C1859 C 0.02005 0.42795 0.4635 0.0
H1860 H 0.06107 0.42515 0.48355 0.0
H1861 H 0.93685 0.49941 0.45993 0.0
H1862 H 0.50428 0.59459 0.51765 0.0
H1863 H 0.5273 0.58274 0.5308 0.0
H1864 H 0.54541 0.59022 0.42419 0.0
H1865 H 0.52226 0.60192 0.41084 0.0
H1866 H 0.53351 0.55265 0.45154 0.0
H1867 H 0.57699 0.62094 0.48127 0.0
H1868 H 0.58537 0.65216 0.51086 0.0
H1869 H 0.57652 0.6235 0.60905 0.0
H1870 H 0.5678 0.59201 0.58005 0.0
H1871 H 0.60055 0.51942 0.47909 0.0
H1872 H 0.588 0.54139 0.46227 0.0
H1873 H 0.5765 0.54752 0.56917 0.0
H1874 H 0.59025 0.52649 0.58603 0.0
H1875 H 0.58746 0.58078 0.53837 0.0
H1876 H 0.53992 0.51299 0.51316 0.0
H1877 H 0.52774 0.47992 0.48762 0.0
H1878 H 0.54004 0.50538 0.38618 0.0
H1879 H 0.55254 0.53866 0.41117 0.0
C1880 C 0.51333 0.59388 0.49714 0.0
C1881 C 0.5117 0.59932 0.46334 0.0
C1882 C 0.52655 0.58728 0.5047 0.0
C1883 C 0.53817 0.58587 0.4785 0.0
C1884 C 0.53667 0.59144 0.44475 0.0
C1885 C 0.52358 0.59823 0.43723 0.0
C1886 C 0.55061 0.57699 0.48593 0.0
C1887 C 0.54561 0.55899 0.46994 0.0
C1888 C 0.56583 0.585 0.51092 0.0
C1889 C 0.57162 0.60407 0.52845 0.0
C1890 C 0.57674 0.62126 0.50917 0.0
C1891 C 0.58155 0.63901 0.52584 0.0
C1892 C 0.58145 0.6398 0.56181 0.0
C1893 C 0.5766 0.62286 0.58118 0.0
C1894 C 0.57175 0.60507 0.56464 0.0
C1895 C 0.59556 0.52572 0.49889 0.0
C1896 C 0.59612 0.52127 0.53372 0.0
C1897 C 0.58835 0.53818 0.48934 0.0
C1898 C 0.58083 0.54568 0.51439 0.0
C1899 C 0.58217 0.54186 0.54939 0.0
C1900 C 0.58991 0.52982 0.55901 0.0
C1901 C 0.57035 0.55632 0.50398 0.0
C1902 C 0.5756 0.57458 0.51953 0.0
C1903 C 0.55496 0.54833 0.47915 0.0
C1904 C 0.54737 0.52833 0.46405 0.0
C1905 C 0.54015 0.51155 0.48542 0.0
C1906 C 0.53317 0.49277 0.47104 0.0
C1907 C 0.53317 0.49056 0.4353 0.0
C1908 C 0.54009 0.50712 0.41386 0.0
C1909 C 0.54711 0.52594 0.42811 0.0
H1910 H 0.52776 0.47601 0.42422 0.0
H1911 H 0.58513 0.65355 0.57466 0.0
H1912 H 0.40138 0.93063 0.46861 0.0
H1913 H 0.41581 0.96455 0.48983 0.0
H1914 H 0.4663 0.98246 0.42314 0.0
H1915 H 0.45197 0.94842 0.40222 0.0
H1916 H 0.47784 0.99451 0.48599 0.0
H1917 H 0.43089 0.99659 0.4086 0.0
H1918 H 0.39789 0.98528 0.38348 0.0
H1919 H 0.37681 0.99316 0.48111 0.0
H1920 H 0.40962 0.00425 0.50697 0.0
H1921 H 0.52506 0.09712 0.50828 0.0
H1922 H 0.5056 0.06456 0.48175 0.0
H1923 H 0.46099 0.04785 0.56055 0.0
H1924 H 0.48056 0.08044 0.58759 0.0
H1925 H 0.44536 0.03528 0.49291 0.0
H1926 H 0.49245 0.03279 0.56984 0.0
H1927 H 0.52568 0.04448 0.59427 0.0
H1928 H 0.54652 0.03744 0.49577 0.0
H1929 H 0.51347 0.02598 0.47061 0.0
C1930 C 0.41524 0.94192 0.45771 0.0
C1931 C 0.42544 0.93704 0.43335 0.0
C1932 C 0.42352 0.96129 0.46996 0.0
C1933 C 0.44203 0.97609 0.45778 0.0
C1934 C 0.45198 0.97127 0.43284 0.0
C1935 C 0.44381 0.95188 0.4209 0.0
C1936 C 0.45181 0.99618 0.47303 0.0
C1937 C 0.47082 0.00352 0.48696 0.0
C1938 C 0.4424 0.00766 0.47534 0.0
C1939 C 0.42267 0.00107 0.45981 0.0
C1940 C 0.41918 0.99575 0.42479 0.0
C1941 C 0.40051 0.98941 0.4104 0.0
C1942 C 0.38525 0.98845 0.4307 0.0
C1943 C 0.38864 0.99388 0.46543 0.0
C1944 C 0.40727 0.00022 0.47995 0.0
C1945 C 0.51107 0.08654 0.51991 0.0
C1946 C 0.50428 0.09132 0.54993 0.0
C1947 C 0.49995 0.06801 0.50465 0.0
C1948 C 0.48196 0.05383 0.51937 0.0
C1949 C 0.4748 0.0587 0.54876 0.0
C1950 C 0.48596 0.07732 0.56408 0.0
C1951 C 0.4714 0.03357 0.50515 0.0
C1952 C 0.45228 0.02619 0.49172 0.0
C1953 C 0.48069 0.022 0.50313 0.0
C1954 C 0.50053 0.02869 0.51829 0.0
C1955 C 0.50416 0.03387 0.55333 0.0
C1956 C 0.52295 0.04043 0.56732 0.0
C1957 C 0.53822 0.04175 0.54657 0.0
C1958 C 0.53469 0.03644 0.5118 0.0
C1959 C 0.51593 0.02989 0.49768 0.0
H1960 H 0.55276 0.04684 0.55744 0.0
H1961 H 0.37081 0.98353 0.41951 0.0
H1962 H 0.21322 0.04478 0.36389 0.0
H1963 H 0.21868 0.03686 0.42239 0.0
H1964 H 0.1709 0.97677 0.40944 0.0
H1965 H 0.165 0.98474 0.35144 0.0
H1966 H 0.16376 0.99351 0.46097 0.0
H1967 H 0.21906 0.9876 0.42537 0.0
H1968 H 0.25087 0.99751 0.39661 0.0
H1969 H 0.27991 0.04885 0.46151 0.0
H1970 H 0.24821 0.03942 0.49035 0.0
H1971 H 0.1811 0.96853 0.63487 0.0
H1972 H 0.19355 0.97385 0.57565 0.0
H1973 H 0.18995 0.02716 0.56971 0.0
H1974 H 0.17758 0.02211 0.62864 0.0
H1975 H 0.22408 0.00943 0.5283 0.0
H1976 H 0.15431 0.01402 0.50972 0.0
H1977 H 0.12272 0.00408 0.53957 0.0
H1978 H 0.12258 0.95288 0.58079 0.0
H1979 H 0.15396 0.96234 0.55067 0.0
C1980 C 0.20428 0.02973 0.37316 0.0
C1981 C 0.18842 0.01547 0.35342 0.0
C1982 C 0.20749 0.02518 0.40656 0.0
C1983 C 0.19511 0.00625 0.42038 0.0
C1984 C 0.18053 0.99152 0.39938 0.0
C1985 C 0.17715 0.99611 0.36627 0.0
C1986 C 0.19487 0.00282 0.458 0.0
C1987 C 0.17695 0.99671 0.4754 0.0
C1988 C 0.21207 0.00714 0.47709 0.0
C1989 C 0.2312 0.01286 0.45987 0.0
C1990 C 0.23219 0.00109 0.43334 0.0
C1991 C 0.25021 0.00661 0.41705 0.0
C1992 C 0.26739 0.02382 0.42719 0.0
C1993 C 0.26659 0.03553 0.45368 0.0
C1994 C 0.2486 0.03009 0.47005 0.0
C1995 C 0.18361 0.98177 0.62141 0.0
C1996 C 0.17782 0.99461 0.63611 0.0
C1997 C 0.1909 0.98485 0.58768 0.0
C1998 C 0.19245 0.00077 0.56841 0.0
C1999 C 0.18883 0.01479 0.58432 0.0
C2000 C 0.18158 0.01175 0.61793 0.0
C2001 C 0.19311 0.00033 0.53045 0.0
C2002 C 0.21097 0.00588 0.51332 0.0
C2003 C 0.17584 0.99527 0.51125 0.0
C2004 C 0.15654 0.98899 0.52823 0.0
C2005 C 0.14744 0.00057 0.52497 0.0
C2006 C 0.1296 0.99504 0.54195 0.0
C2007 C 0.12068 0.97789 0.56215 0.0
C2008 C 0.12953 0.96618 0.56522 0.0
C2009 C 0.14734 0.97163 0.54821 0.0
H2010 H 0.1069 0.97367 0.57537 0.0
H2011 H 0.28133 0.02806 0.41454 0.0
H2012 H 0.98819 0.17702 0.65704 0.0
H2013 H 0.97906 0.18193 0.59906 0.0
H2014 H 0.04056 0.21085 0.56866 0.0
H2015 H 0.0498 0.20713 0.62713 0.0
H2016 H 0.02268 0.22487 0.53143 0.0
H2017 H 0.00925 0.15925 0.56357 0.0
H2018 H 0.99425 0.12908 0.59952 0.0
H2019 H 0.93618 0.119 0.57529 0.0
H2020 H 0.95088 0.14928 0.53953 0.0
H2021 H 0.02259 0.18086 0.37037 0.0
H2022 H 0.02584 0.19338 0.42919 0.0
H2023 H 0.96396 0.17611 0.42977 0.0
H2024 H 0.96059 0.16386 0.37072 0.0
H2025 H 0.97676 0.15875 0.48194 0.0
H2026 H 0.99376 0.22225 0.43635 0.0
H2027 H 0.01181 0.2515 0.39891 0.0
H2028 H 0.0668 0.26417 0.44585 0.0
H2029 H 0.04913 0.23483 0.48323 0.0
C2030 C -0.00023 0.18496 0.63818 0.0
C2031 C 0.01963 0.19139 0.64615 0.0
C2032 C 0.99456 0.18773 0.60512 0.0
C2033 C 0.00906 0.19615 0.57926 0.0
C2034 C 0.0291 0.20419 0.58812 0.0
C2035 C 0.03437 0.20198 0.62149 0.0
C2036 C 0.00334 0.1939 0.54244 0.0
C2037 C 0.01261 0.21044 0.52057 0.0
C2038 C 0.99004 0.17505 0.52833 0.0
C2039 C 0.98116 0.15664 0.54924 0.0
C2040 C 0.99328 0.15063 0.56604 0.0
C2041 C 0.98484 0.13353 0.58638 0.0
C2042 C 0.96427 0.12217 0.58979 0.0
C2043 C 0.95211 0.12785 0.57271 0.0
C2044 C 0.96048 0.14497 0.55239 0.0
C2045 C 0.00977 0.1801 0.38275 0.0
C2046 C 0.99129 0.17118 0.36611 0.0
C2047 C 0.01169 0.18738 0.41621 0.0
C2048 C 0.99514 0.18569 0.4336 0.0
C2049 C 0.97689 0.17763 0.41656 0.0
C2050 C 0.97502 0.17063 0.38289 0.0
C2051 C 0.99637 0.18964 0.47093 0.0
C2052 C 0.98635 0.1733 0.49288 0.0
C2053 C 0.00941 0.20851 0.48483 0.0
C2054 C 0.02011 0.22625 0.46249 0.0
C2055 C 0.00972 0.23118 0.43852 0.0
C2056 C 0.01988 0.2478 0.41733 0.0
C2057 C 0.04044 0.25967 0.41997 0.0
C2058 C 0.05087 0.25497 0.44384 0.0
C2059 C 0.04078 0.23836 0.46508 0.0
H2060 H 0.04828 0.27253 0.40354 0.0
H2061 H 0.95777 0.10895 0.6056 0.0
H2062 H 0.80543 0.84487 0.6235 0.0
H2063 H 0.80043 0.82981 0.56659 0.0
H2064 H 0.84556 0.81463 0.58801 0.0
H2065 H 0.85115 0.83034 0.64446 0.0
H2066 H 0.85451 0.83536 0.53314 0.0
H2067 H 0.79595 0.77854 0.5718 0.0
H2068 H 0.76358 0.75959 0.60066 0.0
H2069 H 0.73834 0.78349 0.5304 0.0
H2070 H 0.77063 0.80282 0.5014 0.0
H2071 H 0.83358 0.79263 0.35802 0.0
H2072 H 0.82266 0.78612 0.41819 0.0
H2073 H 0.82901 0.84418 0.42566 0.0
H2074 H 0.83976 0.85085 0.36581 0.0
H2075 H 0.79305 0.79402 0.46624 0.0
H2076 H 0.86713 0.86458 0.48333 0.0
H2077 H 0.89934 0.88322 0.45361 0.0
H2078 H 0.89329 0.82884 0.41493 0.0
H2079 H 0.86124 0.8099 0.44492 0.0
C2080 C 0.81395 0.8379 0.6164 0.0
C2081 C 0.82895 0.83911 0.63811 0.0
C2082 C 0.81096 0.82913 0.58393 0.0
C2083 C 0.82262 0.82107 0.57298 0.0
C2084 C 0.83646 0.82084 0.59585 0.0
C2085 C 0.83969 0.82988 0.62804 0.0
C2086 C 0.8228 0.8161 0.53616 0.0
C2087 C 0.84105 0.82593 0.51886 0.0
C2088 C 0.80529 0.80388 0.51725 0.0
C2089 C 0.78578 0.79222 0.53451 0.0
C2090 C 0.78354 0.77987 0.56263 0.0
C2091 C 0.76519 0.76904 0.579 0.0
C2092 C 0.74892 0.77035 0.5674 0.0
C2093 C 0.75096 0.78248 0.53935 0.0
C2094 C 0.76928 0.79335 0.5229 0.0
C2095 C 0.83208 0.8038 0.37214 0.0
C2096 C 0.838 0.82245 0.35739 0.0
C2097 C 0.82567 0.79995 0.40639 0.0
C2098 C 0.8252 0.81474 0.42617 0.0
C2099 C 0.82928 0.83261 0.4106 0.0
C2100 C 0.83557 0.83643 0.37645 0.0
C2101 C 0.82458 0.8135 0.46405 0.0
C2102 C 0.80641 0.80283 0.48117 0.0
C2103 C 0.84215 0.82466 0.48315 0.0
C2104 C 0.86174 0.83587 0.46608 0.0
C2105 C 0.87276 0.85662 0.46865 0.0
C2106 C 0.89097 0.86723 0.45174 0.0
C2107 C 0.89833 0.85723 0.4323 0.0
C2108 C 0.88754 0.83658 0.42989 0.0
C2109 C 0.86935 0.82591 0.44681 0.0
H2110 H 0.9124 0.86547 0.41916 0.0
H2111 H 0.73473 0.76196 0.58012 0.0
H2112 H 0.85989 0.31505 0.96851 0.0
H2113 H 0.87482 0.32181 0.91117 0.0
H2114 H 0.85124 0.36045 0.89032 0.0
H2115 H 0.83707 0.35444 0.94776 0.0
H2116 H 0.85687 0.31149 0.85459 0.0
H2117 H 0.87417 0.39335 0.83152 0.0
H2118 H 0.89025 0.42507 0.86289 0.0
H2119 H 0.92189 0.40466 0.92547 0.0
H2120 H 0.90626 0.37291 0.89415 0.0
H2121 H 0.82276 0.3264 0.70191 0.0
H2122 H 0.83349 0.32225 0.75834 0.0
H2123 H 0.89363 0.36681 0.73425 0.0
H2124 H 0.88279 0.37158 0.67763 0.0
H2125 H 0.88472 0.37534 0.79195 0.0
H2126 H 0.88094 0.31734 0.75136 0.0
H2127 H 0.86827 0.28582 0.71995 0.0
H2128 H 0.8166 0.25917 0.78444 0.0
H2129 H 0.82877 0.29059 0.81593 0.0
C2130 C 0.8583 0.32537 0.952 0.0
C2131 C 0.84717 0.33411 0.96266 0.0
C2132 C 0.86685 0.32921 0.91919 0.0
C2133 C 0.86434 0.34177 0.8964 0.0
C2134 C 0.8539 0.35111 0.9076 0.0
C2135 C 0.84559 0.3475 0.94048 0.0
C2136 C 0.87009 0.34315 0.85959 0.0
C2137 C 0.86327 0.32548 0.84092 0.0
C2138 C 0.87934 0.36145 0.84178 0.0
C2139 C 0.88899 0.38068 0.86044 0.0
C2140 C 0.88469 0.39566 0.85175 0.0
C2141 C 0.89369 0.41364 0.8696 0.0
C2142 C 0.90707 0.41687 0.89618 0.0
C2143 C 0.9115 0.40213 0.90493 0.0
C2144 C 0.90255 0.38412 0.88716 0.0
C2145 C 0.83836 0.33505 0.70818 0.0
C2146 C 0.85187 0.34948 0.68536 0.0
C2147 C 0.84455 0.33252 0.7405 0.0
C2148 C 0.86445 0.34406 0.75055 0.0
C2149 C 0.87821 0.35772 0.72707 0.0
C2150 C 0.87198 0.36042 0.69473 0.0
C2151 C 0.86993 0.34356 0.78702 0.0
C2152 C 0.87895 0.3614 0.80563 0.0
C2153 C 0.8633 0.32546 0.80477 0.0
C2154 C 0.85582 0.30639 0.78606 0.0
C2155 C 0.86683 0.3048 0.75877 0.0
C2156 C 0.85973 0.28693 0.74094 0.0
C2157 C 0.84164 0.2705 0.7502 0.0
C2158 C 0.83063 0.2719 0.77734 0.0
C2159 C 0.83765 0.28973 0.79526 0.0
H2160 H 0.83617 0.25668 0.73635 0.0
H2161 H 0.91401 0.4308 0.90998 0.0
H2162 H 0.69594 0.53919 0.95943 0.0
H2163 H 0.68632 0.5444 0.90244 0.0
H2164 H 0.63139 0.4889 0.91031 0.0
H2165 H 0.64114 0.4833 0.96713 0.0
H2166 H 0.65071 0.48901 0.85606 0.0
H2167 H 0.63187 0.53345 0.90132 0.0
H2168 H 0.63454 0.56114 0.93607 0.0
H2169 H 0.68581 0.60212 0.87829 0.0
H2170 H 0.68365 0.57464 0.8435 0.0
H2171 H 0.63204 0.51381 0.68159 0.0
H2172 H 0.63045 0.52067 0.74275 0.0
H2173 H 0.68793 0.52672 0.75882 0.0
H2174 H 0.68969 0.51984 0.69809 0.0
H2175 H 0.65867 0.54997 0.80048 0.0
H2176 H 0.67628 0.48742 0.80932 0.0
H2177 H 0.67357 0.46006 0.77332 0.0
H2178 H 0.62149 0.45444 0.72477 0.0
H2179 H 0.62372 0.48151 0.76091 0.0
C2180 C 0.68161 0.52828 0.94943 0.0
C2181 C 0.66949 0.51063 0.96753 0.0
C2182 C 0.67602 0.53139 0.9169 0.0
C2183 C 0.65811 0.51705 0.90208 0.0
C2184 C 0.6453 0.50014 0.92125 0.0
C2185 C 0.65093 0.49694 0.9537 0.0
C2186 C 0.65455 0.51808 0.86483 0.0
C2187 C 0.65201 0.50221 0.84416 0.0
C2188 C 0.65626 0.53528 0.84909 0.0
C2189 C 0.65764 0.55193 0.86987 0.0
C2190 C 0.64381 0.54834 0.89617 0.0
C2191 C 0.64522 0.56401 0.91585 0.0
C2192 C 0.66035 0.58337 0.90942 0.0
C2193 C 0.67409 0.58711 0.88323 0.0
C2194 C 0.67276 0.57149 0.86347 0.0
C2195 C 0.64468 0.51734 0.69786 0.0
C2196 C 0.66076 0.51574 0.68529 0.0
C2197 C 0.64377 0.52138 0.73273 0.0
C2198 C 0.65896 0.52391 0.75513 0.0
C2199 C 0.67605 0.52471 0.74178 0.0
C2200 C 0.67695 0.52063 0.70712 0.0
C2201 C 0.65538 0.52118 0.79254 0.0
C2202 C 0.65675 0.53665 0.81289 0.0
C2203 C 0.65227 0.50351 0.80828 0.0
C2204 C 0.65026 0.48657 0.78762 0.0
C2205 C 0.66417 0.48022 0.79116 0.0
C2206 C 0.66273 0.46479 0.7707 0.0
C2207 C 0.6474 0.45555 0.7467 0.0
C2208 C 0.63339 0.46164 0.74329 0.0
C2209 C 0.63474 0.47703 0.76375 0.0
H2210 H 0.64635 0.44366 0.7308 0.0
H2211 H 0.66142 0.59548 0.92469 0.0
H2212 H 0.50198 0.19178 0.71001 0.0
H2213 H 0.48916 0.18056 0.76755 0.0
H2214 H 0.47046 0.12029 0.73841 0.0
H2215 H 0.48426 0.13163 0.68074 0.0
H2216 H 0.45856 0.15776 0.80332 0.0
H2217 H 0.4805 0.0982 0.80373 0.0
H2218 H 0.50074 0.08777 0.77043 0.0
H2219 H 0.54027 0.14815 0.74101 0.0
H2220 H 0.52037 0.15891 0.77443 0.0
H2221 H 0.46451 0.14687 0.98301 0.0
H2222 H 0.45412 0.13453 0.92425 0.0
H2223 H 0.51541 0.15976 0.89435 0.0
H2224 H 0.52574 0.17112 0.95292 0.0
H2225 H 0.49538 0.12856 0.85899 0.0
H2226 H 0.4875 0.18541 0.8882 0.0
H2227 H 0.47308 0.20214 0.92145 0.0
H2228 H 0.41461 0.15714 0.89152 0.0
H2229 H 0.42872 0.14006 0.85837 0.0
C2230 C 0.49475 0.17605 0.71544 0.0
C2231 C 0.49466 0.16268 0.69106 0.0
C2232 C 0.48728 0.16961 0.74846 0.0
C2233 C 0.47932 0.14964 0.75769 0.0
C2234 C 0.47701 0.13586 0.73215 0.0
C2235 C 0.48486 0.14236 0.69916 0.0
C2236 C 0.47651 0.14427 0.79483 0.0
C2237 C 0.46627 0.15099 0.81547 0.0
C2238 C 0.48663 0.13554 0.81086 0.0
C2239 C 0.49882 0.12928 0.79113 0.0
C2240 C 0.49353 0.10922 0.79018 0.0
C2241 C 0.50494 0.10326 0.7713 0.0
C2242 C 0.52173 0.11727 0.7535 0.0
C2243 C 0.52723 0.1373 0.7547 0.0
C2244 C 0.5159 0.14333 0.77361 0.0
C2245 C 0.47572 0.14936 0.96402 0.0
C2246 C 0.49597 0.16024 0.97246 0.0
C2247 C 0.46976 0.14236 0.93043 0.0
C2248 C 0.48397 0.14661 0.9046 0.0
C2249 C 0.5041 0.15626 0.9137 0.0
C2250 C 0.51003 0.16287 0.9473 0.0
C2251 C 0.47852 0.14321 0.86751 0.0
C2252 C 0.48699 0.13461 0.84689 0.0
C2253 C 0.46758 0.15107 0.85152 0.0
C2254 C 0.45912 0.16135 0.87124 0.0
C2255 C 0.47156 0.17905 0.88889 0.0
C2256 C 0.46346 0.18859 0.90769 0.0
C2257 C 0.44294 0.18067 0.9087 0.0
C2258 C 0.4305 0.16323 0.8908 0.0
C2259 C 0.43853 0.15361 0.87201 0.0
H2260 H 0.43669 0.18807 0.92328 0.0
H2261 H 0.53052 0.11263 0.73885 0.0
H2262 H 0.4932 0.68418 0.29502 0.0
H2263 H 0.50304 0.68311 0.23586 0.0
H2264 H 0.5142 0.63585 0.26233 0.0
H2265 H 0.50433 0.63674 0.32204 0.0
H2266 H 0.54257 0.66562 0.21367 0.0
H2267 H 0.47334 0.62081 0.22855 0.0
H2268 H 0.43964 0.61051 0.24923 0.0
H2269 H 0.4387 0.65583 0.18769 0.0
H2270 H 0.47253 0.66661 0.16708 0.0
H2271 H 0.49835 0.64638 0.02302 0.0
H2272 H 0.49873 0.63533 0.08173 0.0
H2273 H 0.54632 0.69378 0.10754 0.0
H2274 H 0.54648 0.7047 0.0487 0.0
H2275 H 0.4878 0.64908 0.13123 0.0
H2276 H 0.5698 0.69432 0.17999 0.0
H2277 H 0.60315 0.70308 0.15959 0.0
H2278 H 0.57796 0.65264 0.09224 0.0
H2279 H 0.54448 0.64339 0.11258 0.0
C2280 C 0.49801 0.67373 0.28856 0.0
C2281 C 0.49767 0.66033 0.31317 0.0
C2282 C 0.50367 0.67317 0.25472 0.0
C2283 C 0.50908 0.65924 0.2448 0.0
C2284 C 0.51002 0.64667 0.26962 0.0
C2285 C 0.50429 0.64716 0.30363 0.0
C2286 C 0.5118 0.65676 0.20784 0.0
C2287 C 0.53065 0.66185 0.19546 0.0
C2288 C 0.49599 0.65116 0.18445 0.0
C2289 C 0.47552 0.64458 0.19642 0.0
C2290 C 0.466 0.62866 0.21961 0.0
C2291 C 0.44686 0.62273 0.2313 0.0
C2292 C 0.43704 0.63253 0.21982 0.0
C2293 C 0.44632 0.64825 0.19656 0.0
C2294 C 0.46547 0.65427 0.18483 0.0
C2295 C 0.50932 0.6567 0.04091 0.0
C2296 C 0.52213 0.67652 0.03143 0.0
C2297 C 0.50954 0.65035 0.07446 0.0
C2298 C 0.52245 0.66373 0.09918 0.0
C2299 C 0.5364 0.68306 0.08891 0.0
C2300 C 0.53637 0.68936 0.05522 0.0
C2301 C 0.51891 0.6588 0.13639 0.0
C2302 C 0.49978 0.65238 0.14906 0.0
C2303 C 0.53442 0.66284 0.15983 0.0
C2304 C 0.55458 0.66822 0.14772 0.0
C2305 C 0.57136 0.68501 0.161 0.0
C2306 C 0.5903 0.69009 0.1494 0.0
C2307 C 0.59267 0.67844 0.12459 0.0
C2308 C 0.57611 0.66168 0.11138 0.0
C2309 C 0.55714 0.65653 0.1229 0.0
H2310 H 0.60735 0.6824 0.11564 0.0
H2311 H 0.42223 0.62792 0.22891 0.0
H2312 H 0.31018 0.84813 0.03185 0.0
H2313 H 0.31579 0.86185 0.08978 0.0
H2314 H 0.3755 0.87192 0.08754 0.0
H2315 H 0.3697 0.85744 0.02995 0.0
H2316 H 0.35704 0.84982 0.13865 0.0
H2317 H 0.36494 0.91067 0.09776 0.0
H2318 H 0.35726 0.93286 0.06423 0.0
H2319 H 0.30211 0.9107 0.11828 0.0
H2320 H 0.30931 0.88815 0.15181 0.0
H2321 H 0.36779 0.88954 0.31328 0.0
H2322 H 0.36668 0.89773 0.25282 0.0
H2323 H 0.31533 0.84021 0.23692 0.0
H2324 H 0.31619 0.8318 0.29712 0.0
H2325 H 0.33582 0.89302 0.19625 0.0
H2326 H 0.33428 0.81934 0.18366 0.0
H2327 H 0.34269 0.79789 0.21803 0.0
H2328 H 0.38883 0.84898 0.26928 0.0
H2329 H 0.38096 0.87072 0.2347 0.0
C2330 C 0.3247 0.85377 0.04327 0.0
C2331 C 0.33937 0.85133 0.02667 0.0
C2332 C 0.32795 0.86179 0.07638 0.0
C2333 C 0.34606 0.86788 0.09312 0.0
C2334 C 0.36136 0.86719 0.0752 0.0
C2335 C 0.35802 0.85888 0.04232 0.0
C2336 C 0.34768 0.87135 0.13083 0.0
C2337 C 0.35276 0.8596 0.151 0.0
C2338 C 0.34203 0.88404 0.14722 0.0
C2339 C 0.33764 0.89763 0.12721 0.0
C2340 C 0.35111 0.91042 0.10235 0.0
C2341 C 0.34685 0.92308 0.08336 0.0
C2342 C 0.3292 0.92317 0.08909 0.0
C2343 C 0.31579 0.91062 0.11388 0.0
C2344 C 0.31997 0.89792 0.13293 0.0
C2345 C 0.35579 0.87889 0.29728 0.0
C2346 C 0.34245 0.85977 0.30968 0.0
C2347 C 0.35511 0.8837 0.26282 0.0
C2348 C 0.34113 0.86944 0.24055 0.0
C2349 C 0.32627 0.85135 0.25389 0.0
C2350 C 0.32688 0.84653 0.28828 0.0
C2351 C 0.34475 0.87123 0.20312 0.0
C2352 C 0.34055 0.88373 0.18339 0.0
C2353 C 0.35155 0.85953 0.18687 0.0
C2354 C 0.35688 0.84662 0.20685 0.0
C2355 C 0.3463 0.82598 0.20211 0.0
C2356 C 0.35097 0.81378 0.22163 0.0
C2357 C 0.36624 0.82206 0.2459 0.0
C2358 C 0.37696 0.84257 0.25055 0.0
C2359 C 0.3724 0.85484 0.231 0.0
H2360 H 0.36981 0.81259 0.26104 0.0
H2361 H 0.32593 0.93298 0.07435 0.0
H2362 H 0.12532 0.49509 0.29848 0.0
H2363 H 0.11659 0.48038 0.2409 0.0
H2364 H 0.17716 0.49471 0.225 0.0
H2365 H 0.1857 0.50854 0.28247 0.0
H2366 H 0.12775 0.49838 0.18478 0.0
H2367 H 0.18404 0.46912 0.16776 0.0
H2368 H 0.19409 0.44845 0.20033 0.0
H2369 H 0.13963 0.42273 0.25739 0.0
H2370 H 0.12907 0.443 0.22482 0.0
H2371 H 0.18075 0.52948 0.03526 0.0
H2372 H 0.16513 0.5196 0.09142 0.0
H2373 H 0.14378 0.4582 0.06651 0.0
H2374 H 0.16038 0.4682 0.01047 0.0
H2375 H 0.15826 0.4639 0.12542 0.0
H2376 H 0.11088 0.47709 0.0798 0.0
H2377 H 0.09667 0.49402 0.04672 0.0
H2378 H 0.12526 0.54434 0.11398 0.0
H2379 H 0.1399 0.52788 0.14717 0.0
C2380 C 0.13663 0.49462 0.28298 0.0
C2381 C 0.15626 0.50317 0.29493 0.0
C2382 C 0.13162 0.48621 0.25006 0.0
C2383 C 0.14614 0.48626 0.22854 0.0
C2384 C 0.16549 0.49394 0.24124 0.0
C2385 C 0.17044 0.50209 0.27415 0.0
C2386 C 0.1422 0.48116 0.1914 0.0
C2387 C 0.1341 0.49053 0.1718 0.0
C2388 C 0.1495 0.47005 0.17436 0.0
C2389 C 0.15575 0.45764 0.19379 0.0
C2390 C 0.1741 0.45894 0.18702 0.0
C2391 C 0.17992 0.44732 0.20556 0.0
C2392 C 0.16752 0.4343 0.23092 0.0
C2393 C 0.14925 0.43285 0.23778 0.0
C2394 C 0.14335 0.44443 0.21931 0.0
C2395 C 0.17247 0.51384 0.04144 0.0
C2396 C 0.17189 0.49963 0.01851 0.0
C2397 C 0.16332 0.50815 0.07354 0.0
C2398 C 0.1529 0.48808 0.08314 0.0
C2399 C 0.15167 0.47376 0.05972 0.0
C2400 C 0.16116 0.47949 0.02773 0.0
C2401 C 0.14545 0.48263 0.11902 0.0
C2402 C 0.15129 0.47117 0.13833 0.0
C2403 C 0.13534 0.49115 0.13571 0.0
C2404 C 0.1265 0.5012 0.11602 0.0
C2405 C 0.11422 0.4918 0.08747 0.0
C2406 C 0.10608 0.50132 0.06869 0.0
C2407 C 0.11006 0.52024 0.07825 0.0
C2408 C 0.12216 0.52967 0.10664 0.0
C2409 C 0.13034 0.52022 0.12552 0.0
H2410 H 0.10375 0.52759 0.06366 0.0
H2411 H 0.17206 0.42532 0.24526 0.0
H2412 H 0.14801 0.982 0.14413 0.0
H2413 H 0.1432 0.97654 0.08185 0.0
H2414 H 0.16921 0.03953 0.06588 0.0
H2415 H 0.17267 0.04479 0.12814 0.0
H2416 H 0.13992 0.02172 0.0247 0.0
H2417 H 0.19533 0.01375 0.05317 0.0
H2418 H 0.21337 -1e-05 0.08416 0.0
H2419 H 0.17205 0.9418 0.04686 0.0
H2420 H 0.1536 0.95519 0.01601 0.0
H2421 H 0.16962 0.02396 0.84818 0.0
H2422 H 0.16993 0.02818 0.91099 0.0
H2423 H 0.12937 0.96555 0.92278 0.0
H2424 H 0.12839 0.96143 0.86007 0.0
H2425 H 0.16514 0.98239 0.96526 0.0
H2426 H 0.11108 0.99273 0.9339 0.0
H2427 H 0.09556 0.00856 0.90129 0.0
H2428 H 0.13801 0.06527 0.9426 0.0
H2429 H 0.154 0.0498 0.97503 0.0
C2430 C 0.15249 0.99461 0.12723 0.0
C2431 C 0.16096 0.01383 0.14076 0.0
C2432 C 0.14993 0.99152 0.09169 0.0
C2433 C 0.15624 0.00768 0.06907 0.0
C2434 C 0.16433 0.02685 0.08273 0.0
C2435 C 0.16654 0.02987 0.11826 0.0
C2436 C 0.15463 0.00471 0.03117 0.0
C2437 C 0.14564 0.0133 0.01173 0.0
C2438 C 0.16187 0.99352 0.01416 0.0
C2439 C 0.17297 0.98544 0.03258 0.0
C2440 C 0.19001 0.998 0.05178 0.0
C2441 C 0.20032 0.99027 0.06929 0.0
C2442 C 0.19383 0.97002 0.06756 0.0
C2443 C 0.17704 0.95747 0.04823 0.0
C2444 C 0.16666 0.96512 0.03071 0.0
C2445 C 0.16065 0.01118 0.86426 0.0
C2446 C 0.14923 0.99234 0.84953 0.0
C2447 C 0.16086 0.01358 0.89997 0.0
C2448 C 0.14973 0.99714 0.92132 0.0
C2449 C 0.13815 0.97836 0.90662 0.0
C2450 C 0.1377 0.97602 0.87094 0.0
C2451 C 0.15055 -0.00056 0.95913 0.0
C2452 C 0.1594 0.99074 0.97843 0.0
C2453 C 0.14356 0.01084 0.97588 0.0
C2454 C 0.13386 0.02013 0.95662 0.0
C2455 C 0.11722 0.0086 0.93579 0.0
C2456 C 0.10832 0.0175 0.91738 0.0
C2457 C 0.11583 0.03792 0.9198 0.0
C2458 C 0.13223 0.04946 0.94071 0.0
C2459 C 0.1412 0.04063 0.95913 0.0
H2460 H 0.10892 0.04478 0.90554 0.0
H2461 H 0.20183 0.96407 0.08113 0.0
H2462 H 0.01021 0.14255 0.14248 0.0
H2463 H 0.01597 0.14869 0.08062 0.0
H2464 H 0.0066 0.19863 0.08947 0.0
H2465 H 0.0003 0.19208 0.15139 0.0
H2466 H 0.98667 0.1771 0.03766 0.0
H2467 H 0.05336 0.20469 0.07379 0.0
H2468 H 0.08197 0.20659 0.10439 0.0
H2469 H 0.07559 0.15659 0.04715 0.0
H2470 H 0.04674 0.15419 0.01655 0.0
H2471 H 0.0209 0.20468 0.86124 0.0
H2472 H 0.018 0.20536 0.92431 0.0
H2473 H 0.01298 0.14777 0.93098 0.0
H2474 H 0.01569 0.14701 0.86811 0.0
H2475 H 0.04243 0.17784 0.97475 0.0
H2476 H 0.97369 0.15041 0.94126 0.0
H2477 H 0.94578 0.15038 0.91137 0.0
H2478 H 0.95786 0.20358 0.96454 0.0
H2479 H 0.98611 0.20415 0.99426 0.0
C2480 C 0.0098 0.15506 0.13123 0.0
C2481 C 0.00508 0.16701 0.15144 0.0
C2482 C 0.01311 0.15859 0.09596 0.0
C2483 C 0.01202 0.17432 0.08047 0.0
C2484 C 0.00758 0.18647 0.10089 0.0
C2485 C 0.00406 0.18279 0.13613 0.0
C2486 C 0.01429 0.17721 0.04264 0.0
C2487 C -0.00091 0.17768 0.02398 0.0
C2488 C 0.03039 0.1778 0.02474 0.0
C2489 C 0.04777 0.17918 0.04305 0.0
C2490 C 0.05796 0.194 0.0679 0.0
C2491 C 0.07424 0.19518 0.08522 0.0
C2492 C 0.08057 0.1817 0.07776 0.0
C2493 C 0.07066 0.16702 0.05291 0.0
C2494 C 0.05435 0.16576 0.03554 0.0
C2495 C 0.01892 0.19212 0.87631 0.0
C2496 C 0.01833 0.17572 0.86017 0.0
C2497 C 0.01727 0.19251 0.91213 0.0
C2498 C 0.01525 0.17659 0.9321 0.0
C2499 C 0.01451 0.16015 0.91588 0.0
C2500 C 0.0159 0.15966 0.88011 0.0
C2501 C 0.01464 0.17726 0.97005 0.0
C2502 C 0.03019 0.17752 0.98863 0.0
C2503 C -0.00094 0.17772 0.98784 0.0
C2504 C 0.98222 0.17749 0.96958 0.0
C2505 C 0.97058 0.16226 0.94623 0.0
C2506 C 0.95465 0.16211 0.92938 0.0
C2507 C 0.9501 0.17701 0.93593 0.0
C2508 C 0.96144 0.19208 0.95939 0.0
C2509 C 0.97742 0.19233 0.97622 0.0
H2510 H 0.93774 0.17685 0.92291 0.0
H2511 H 0.09318 0.18264 0.0912 0.0
H2512 H 0.84088 0.883 0.86645 0.0
H2513 H 0.8423 0.87793 0.92855 0.0
H2514 H 0.84369 0.82421 0.90805 0.0
H2515 H 0.84198 0.82918 0.84587 0.0
H2516 H 0.81926 0.82 0.96266 0.0
H2517 H 0.88543 0.86481 0.92501 0.0
H2518 H 0.91164 0.89456 0.89605 0.0
H2519 H 0.9015 0.93169 0.96497 0.0
H2520 H 0.87498 0.90212 0.99399 0.0
H2521 H 0.88257 0.84271 0.12888 0.0
H2522 H 0.87954 0.84528 0.06637 0.0
H2523 H 0.82246 0.84061 0.08111 0.0
H2524 H 0.82552 0.83796 0.14371 0.0
H2525 H 0.87558 0.8726 0.02861 0.0
H2526 H 0.7928 0.81272 0.01155 0.0
H2527 H 0.76787 0.78186 0.03976 0.0
H2528 H 0.81401 0.77265 0.07965 0.0
H2529 H 0.83917 0.80308 0.05082 0.0
C2530 C 0.84118 0.86998 0.87537 0.0
C2531 C 0.84121 0.85638 0.85175 0.0
C2532 C 0.8421 0.86715 0.91068 0.0
C2533 C 0.84323 0.85076 0.9228 0.0
C2534 C 0.84277 0.83691 0.89918 0.0
C2535 C 0.84189 0.83977 0.86383 0.0
C2536 C 0.84575 0.84857 0.96002 0.0
C2537 C 0.83152 0.83149 0.97715 0.0
C2538 C 0.86201 0.86342 0.97864 0.0
C2539 C 0.87809 0.88124 0.96147 0.0
C2540 C 0.88869 0.87931 0.93383 0.0
C2541 C 0.90362 0.89615 0.91742 0.0
C2542 C 0.90821 0.915 0.92862 0.0
C2543 C 0.89791 0.91707 0.9563 0.0
C2544 C 0.88294 0.90027 0.97276 0.0
C2545 C 0.86938 0.84216 0.11858 0.0
C2546 C 0.85415 0.83992 0.14062 0.0
C2547 C 0.8677 0.84373 0.08307 0.0
C2548 C 0.85071 0.84295 0.06918 0.0
C2549 C 0.83558 0.84099 0.09135 0.0
C2550 C 0.83732 0.83953 0.12692 0.0
C2551 C 0.84885 0.84421 0.03147 0.0
C2552 C 0.86325 0.86112 0.0142 0.0
C2553 C 0.83294 0.82903 0.01268 0.0
C2554 C 0.81789 0.81035 0.02934 0.0
C2555 C 0.79762 0.80404 0.02613 0.0
C2556 C 0.78344 0.78659 0.04218 0.0
C2557 C 0.78936 0.7753 0.06149 0.0
C2558 C 0.80945 0.78138 0.06463 0.0
C2559 C 0.82367 0.79873 0.04844 0.0
H2560 H 0.77837 0.76184 0.074 0.0
H2561 H 0.91977 0.92802 0.91588 0.0
H2562 H 0.80873 0.30147 0.19044 0.0
H2563 H 0.8089 0.30534 0.25281 0.0
H2564 H 0.84448 0.36881 0.24139 0.0
H2565 H 0.84555 0.36478 0.17884 0.0
H2566 H 0.85691 0.35879 0.29423 0.0
H2567 H 0.79336 0.34479 0.25725 0.0
H2568 H 0.76141 0.32707 0.2267 0.0
H2569 H 0.74517 0.27496 0.28705 0.0
H2570 H 0.77716 0.29228 0.31763 0.0
H2571 H 0.80173 0.35186 0.46679 0.0
H2572 H 0.80108 0.3497 0.40364 0.0
H2573 H 0.84658 0.33351 0.40711 0.0
H2574 H 0.84789 0.33678 0.47002 0.0
H2575 H 0.79319 0.32351 0.35767 0.0
H2576 H 0.87767 0.35231 0.34052 0.0
H2577 H 0.90885 0.37416 0.3712 0.0
H2578 H 0.88211 0.40491 0.41836 0.0
H2579 H 0.85091 0.38351 0.38749 0.0
C2580 C 0.81695 0.31621 0.2013 0.0
C2581 C 0.8273 0.33283 0.17994 0.0
C2582 C 0.81676 0.31845 0.23693 0.0
C2583 C 0.82637 0.3374 0.25184 0.0
C2584 C 0.83691 0.35404 0.23052 0.0
C2585 C 0.83742 0.35176 0.19484 0.0
C2586 C 0.82532 0.33974 0.28966 0.0
C2587 C 0.84297 0.35112 0.30806 0.0
C2588 C 0.80708 0.33027 0.30772 0.0
C2589 C 0.78774 0.3198 0.28956 0.0
C2590 C 0.78303 0.32951 0.26386 0.0
C2591 C 0.76491 0.31954 0.24655 0.0
C2592 C 0.75129 0.29989 0.25488 0.0
C2593 C 0.75575 0.29018 0.2806 0.0
C2594 C 0.77387 0.30007 0.29796 0.0
C2595 C 0.81137 0.34763 0.45386 0.0
C2596 C 0.82484 0.34445 0.47277 0.0
C2597 C 0.81103 0.3464 0.41791 0.0
C2598 C 0.82406 0.34183 0.40054 0.0
C2599 C 0.83676 0.33757 0.41983 0.0
C2600 C 0.83738 0.33922 0.45567 0.0
C2601 C 0.82483 0.34207 0.36229 0.0
C2602 C 0.80712 0.33123 0.34381 0.0
C2603 C 0.84293 0.35277 0.34408 0.0
C2604 C 0.86188 0.36616 0.36189 0.0
C2605 C 0.87849 0.36382 0.35723 0.0
C2606 C 0.89616 0.37612 0.37469 0.0
C2607 C 0.89744 0.39088 0.39679 0.0
C2608 C 0.88109 0.39345 0.40131 0.0
C2609 C 0.86341 0.38124 0.38382 0.0
H2610 H 0.91112 0.40033 0.41037 0.0
H2611 H 0.73726 0.2922 0.24145 0.0
H2612 H 0.71091 0.49426 0.18342 0.0
H2613 H 0.7126 0.49377 0.24663 0.0
H2614 H 0.66529 0.50721 0.25346 0.0
H2615 H 0.66361 0.50763 0.19019 0.0
H2616 H 0.69659 0.53003 0.2977 0.0
H2617 H 0.65498 0.46168 0.26604 0.0
H2618 H 0.64661 0.43088 0.23496 0.0
H2619 H 0.69573 0.42971 0.2826 0.0
H2620 H 0.7046 0.46071 0.31355 0.0
H2621 H 0.65288 0.4732 0.46377 0.0
H2622 H 0.65814 0.47336 0.40168 0.0
H2623 H 0.7179 0.52199 0.41388 0.0
H2624 H 0.71245 0.52196 0.47646 0.0
H2625 H 0.68329 0.46896 0.36002 0.0
H2626 H 0.72627 0.55358 0.34439 0.0
H2627 H 0.73163 0.58352 0.37539 0.0
H2628 H 0.67426 0.55037 0.4224 0.0
H2629 H 0.66846 0.52035 0.39127 0.0
C2630 C 0.70091 0.49707 0.19862 0.0
C2631 C 0.68713 0.50097 0.18247 0.0
C2632 C 0.70188 0.4968 0.23451 0.0
C2633 C 0.68906 0.50044 0.25459 0.0
C2634 C 0.67535 0.50446 0.23833 0.0
C2635 C 0.67431 0.50459 0.20241 0.0
C2636 C 0.68967 0.49971 0.29259 0.0
C2637 C 0.69383 0.51673 0.31135 0.0
C2638 C 0.68594 0.48231 0.31026 0.0
C2639 C 0.6806 0.46364 0.29179 0.0
C2640 C 0.66411 0.45495 0.26964 0.0
C2641 C 0.65925 0.43744 0.25209 0.0
C2642 C 0.67067 0.42837 0.25672 0.0
C2643 C 0.68693 0.43677 0.27899 0.0
C2644 C 0.69188 0.45431 0.29655 0.0
C2645 C 0.66719 0.48378 0.45314 0.0
C2646 C 0.6822 0.49777 0.47443 0.0
C2647 C 0.67023 0.48377 0.4178 0.0
C2648 C 0.68833 0.49781 0.40318 0.0
C2649 C 0.70376 0.51117 0.42471 0.0
C2650 C 0.7007 0.51114 0.46027 0.0
C2651 C 0.69017 0.49927 0.36521 0.0
C2652 C 0.68645 0.48238 0.34638 0.0
C2653 C 0.69392 0.51668 0.34747 0.0
C2654 C 0.69706 0.53469 0.36585 0.0
C2655 C 0.71479 0.55272 0.36126 0.0
C2656 C 0.7179 0.5697 0.37885 0.0
C2657 C 0.70333 0.56883 0.40096 0.0
C2658 C 0.68557 0.55101 0.40538 0.0
C2659 C 0.68237 0.53401 0.38778 0.0
H2660 H 0.70578 0.58198 0.41459 0.0
H2661 H 0.66688 0.41481 0.24313 0.0
H2662 H 0.51193 0.20406 0.19476 0.0
H2663 H 0.51734 0.2088 0.2566 0.0
H2664 H 0.54395 0.17172 0.25639 0.0
H2665 H 0.53705 0.1657 0.19442 0.0
H2666 H 0.52137 0.16285 0.30907 0.0
H2667 H 0.57169 0.22401 0.26361 0.0
H2668 H 0.58598 0.254 0.22733 0.0
H2669 H 0.55067 0.27397 0.27984 0.0
H2670 H 0.53592 0.24394 0.31608 0.0
H2671 H 0.55741 0.19031 0.47814 0.0
H2672 H 0.55999 0.19236 0.41521 0.0
H2673 H 0.51545 0.20972 0.41149 0.0
H2674 H 0.51252 0.20724 0.47471 0.0
H2675 H 0.55042 0.22976 0.36148 0.0
H2676 H 0.4982 0.16514 0.40236 0.0
H2677 H 0.48655 0.13583 0.43985 0.0
H2678 H 0.52978 0.12354 0.39569 0.0
H2679 H 0.5419 0.153 0.35831 0.0
C2680 C 0.51863 0.19664 0.20799 0.0
C2681 C 0.52383 0.18428 0.18999 0.0
C2682 C 0.52207 0.19967 0.24327 0.0
C2683 C 0.53144 0.19097 0.26115 0.0
C2684 C 0.53678 0.17867 0.24314 0.0
C2685 C 0.53294 0.1753 0.20781 0.0
C2686 C 0.5349 0.19418 0.29883 0.0
C2687 C 0.52806 0.17754 0.32033 0.0
C2688 C 0.54349 0.21334 0.31378 0.0
C2689 C 0.55259 0.23163 0.29243 0.0
C2690 C 0.56689 0.23474 0.26731 0.0
C2691 C 0.57507 0.25175 0.24675 0.0
C2692 C 0.56921 0.26586 0.25123 0.0
C2693 C 0.5552 0.26302 0.27638 0.0
C2694 C 0.54693 0.24602 0.29698 0.0
C2695 C 0.54837 0.1948 0.46385 0.0
C2696 C 0.53443 0.19818 0.48089 0.0
C2697 C 0.54995 0.1961 0.42807 0.0
C2698 C 0.53778 0.201 0.40888 0.0
C2699 C 0.52497 0.20593 0.42602 0.0
C2700 C 0.52325 0.20446 0.46194 0.0
C2701 C 0.53665 0.19847 0.37111 0.0
C2702 C 0.54392 0.21518 0.34983 0.0
C2703 C 0.52883 0.17946 0.35625 0.0
C2704 C 0.52106 0.16135 0.37778 0.0
C2705 C 0.50528 0.15624 0.40078 0.0
C2706 C 0.49858 0.13959 0.42198 0.0
C2707 C 0.50745 0.12785 0.42021 0.0
C2708 C 0.52295 0.13267 0.39706 0.0
C2709 C 0.52972 0.14932 0.37584 0.0
H2710 H 0.50229 0.11501 0.43674 0.0
H2711 H 0.57555 0.27901 0.23526 0.0
H2712 H 0.52804 0.72762 0.81188 0.0
H2713 H 0.52784 0.72887 0.74903 0.0
H2714 H 0.50537 0.66581 0.74482 0.0
H2715 H 0.50717 0.66489 0.80778 0.0
H2716 H 0.52937 0.68178 0.69464 0.0
H2717 H 0.47481 0.68716 0.73795 0.0
H2718 H 0.45839 0.70109 0.77323 0.0
H2719 H 0.49179 0.75707 0.72177 0.0
H2720 H 0.50861 0.74353 0.68649 0.0
H2721 H 0.46858 0.67969 0.53608 0.0
H2722 H 0.47468 0.68484 0.59815 0.0
H2723 H 0.53728 0.70887 0.58038 0.0
H2724 H 0.53093 0.70288 0.51834 0.0
H2725 H 0.49388 0.71308 0.6413 0.0
H2726 H 0.55681 0.69388 0.64327 0.0
H2727 H 0.56826 0.6748 0.60909 0.0
H2728 H 0.50922 0.63743 0.57118 0.0
H2729 H 0.49739 0.65616 0.60532 0.0
C2730 C 0.52359 0.71413 0.79749 0.0
C2731 C 0.51772 0.69615 0.81459 0.0
C2732 C 0.52318 0.7148 0.76157 0.0
C2733 C 0.51619 0.69737 0.74213 0.0
C2734 C 0.51078 0.67947 0.7592 0.0
C2735 C 0.51165 0.67889 0.79513 0.0
C2736 C 0.51376 0.69763 0.70419 0.0
C2737 C 0.52168 0.6887 0.68299 0.0
C2738 C 0.50335 0.70626 0.68893 0.0
C2739 C 0.49311 0.71439 0.70983 0.0
C2740 C 0.47873 0.70247 0.7343 0.0
C2741 C 0.46935 0.71029 0.75428 0.0
C2742 C 0.47408 0.72997 0.74981 0.0
C2743 C 0.48816 0.74184 0.72525 0.0
C2744 C 0.49762 0.7341 0.70523 0.0
C2745 C 0.48366 0.68653 0.54553 0.0
C2746 C 0.49934 0.69101 0.52286 0.0
C2747 C 0.48716 0.68942 0.5809 0.0
C2748 C 0.5064 0.69689 0.594 0.0
C2749 C 0.52227 0.7027 0.57093 0.0
C2750 C 0.51871 0.69952 0.53558 0.0
C2751 C 0.50953 0.69729 0.63178 0.0
C2752 C 0.50175 0.70635 0.65294 0.0
C2753 C 0.51933 0.68802 0.64708 0.0
C2754 C 0.52628 0.67659 0.62657 0.0
C2755 C 0.54627 0.68157 0.62769 0.0
C2756 C 0.55283 0.67083 0.6083 0.0
C2757 C 0.53949 0.65497 0.58787 0.0
C2758 C 0.51955 0.64977 0.58689 0.0
C2759 C 0.51292 0.66047 0.60621 0.0
H2760 H 0.54459 0.64668 0.57287 0.0
H2761 H 0.46681 0.736 0.76532 0.0
H2762 H 0.36333 0.85181 0.81161 0.0
H2763 H 0.36448 0.85157 0.74831 0.0
H2764 H 0.31765 0.79045 0.74777 0.0
H2765 H 0.31658 0.79075 0.81103 0.0
H2766 H 0.34602 0.79797 0.69856 0.0
H2767 H 0.30558 0.82405 0.73661 0.0
H2768 H 0.2976 0.84586 0.77059 0.0
H2769 H 0.3442 0.89687 0.71981 0.0
H2770 H 0.35274 0.87537 0.68601 0.0
H2771 H 0.31522 0.82899 0.52662 0.0
H2772 H 0.31206 0.82341 0.5892 0.0
H2773 H 0.37046 0.83007 0.59212 0.0
H2774 H 0.37324 0.83486 0.52962 0.0
H2775 H 0.33247 0.84671 0.64039 0.0
H2776 H 0.37341 0.80176 0.65456 0.0
H2777 H 0.37811 0.77744 0.62136 0.0
H2778 H 0.32362 0.75932 0.56732 0.0
H2779 H 0.31844 0.78331 0.60053 0.0
C2780 C 0.35362 0.83829 0.7978 0.0
C2781 C 0.33986 0.82132 0.81561 0.0
C2782 C 0.35421 0.83815 0.76186 0.0
C2783 C 0.34098 0.82105 0.74351 0.0
C2784 C 0.32796 0.80376 0.76153 0.0
C2785 C 0.32734 0.80393 0.79745 0.0
C2786 C 0.33971 0.82165 0.70559 0.0
C2787 C 0.34312 0.80863 0.68574 0.0
C2788 C 0.33521 0.83512 0.68912 0.0
C2789 C 0.32993 0.8481 0.70899 0.0
C2790 C 0.31423 0.83993 0.73286 0.0
C2791 C 0.3096 0.85223 0.75209 0.0
C2792 C 0.32041 0.87274 0.74741 0.0
C2793 C 0.33585 0.88098 0.72343 0.0
C2794 C 0.3406 0.86874 0.70423 0.0
C2795 C 0.32725 0.82909 0.54078 0.0
C2796 C 0.34451 0.83247 0.52369 0.0
C2797 C 0.32549 0.82599 0.57639 0.0
C2798 C 0.34096 0.82617 0.59526 0.0
C2799 C 0.35822 0.82956 0.57803 0.0
C2800 C 0.35989 0.83249 0.54247 0.0
C2801 C 0.33939 0.82341 0.63311 0.0
C2802 C 0.33538 0.83601 0.65306 0.0
C2803 C 0.34279 0.80917 0.64963 0.0
C2804 C 0.34564 0.79447 0.62986 0.0
C2805 C 0.36238 0.79252 0.63572 0.0
C2806 C 0.36514 0.7788 0.61687 0.0
C2807 C 0.3512 0.76688 0.59218 0.0
C2808 C 0.33444 0.76861 0.58637 0.0
C2809 C 0.3316 0.78228 0.60517 0.0
H2810 H 0.35338 0.75629 0.5776 0.0
H2811 H 0.3168 0.88225 0.7623 0.0
H2812 H 0.17073 0.54681 0.52377 0.0
H2813 H 0.17411 0.5439 0.58594 0.0
H2814 H 0.18135 0.49318 0.56864 0.0
H2815 H 0.17743 0.49582 0.50635 0.0
H2816 H 0.15829 0.48729 0.6238 0.0
H2817 H 0.22093 0.5369 0.58374 0.0
H2818 H 0.24469 0.56692 0.55229 0.0
H2819 H 0.22991 0.60236 0.61697 0.0
H2820 H 0.20572 0.57243 0.64844 0.0
H2821 H 0.22006 0.52426 0.793 0.0
H2822 H 0.21791 0.5248 0.72989 0.0
H2823 H 0.15647 0.50888 0.73796 0.0
H2824 H 0.15868 0.50829 0.80112 0.0
H2825 H 0.20939 0.54636 0.68645 0.0
H2826 H 0.13109 0.47597 0.67201 0.0
H2827 H 0.11066 0.44413 0.70189 0.0
H2828 H 0.16301 0.4474 0.74469 0.0
H2829 H 0.18377 0.47898 0.71444 0.0
C2830 C 0.17269 0.53486 0.53339 0.0
C2831 C 0.17364 0.52141 0.51059 0.0
C2832 C 0.17479 0.5333 0.56878 0.0
C2833 C 0.17816 0.51843 0.58185 0.0
C2834 C 0.17873 0.50473 0.55908 0.0
C2835 C 0.17657 0.50627 0.52364 0.0
C2836 C 0.18168 0.51765 0.6192 0.0
C2837 C 0.16943 0.5002 0.63754 0.0
C2838 C 0.19671 0.53427 0.63684 0.0
C2839 C 0.21137 0.55238 0.61826 0.0
C2840 C 0.22263 0.55107 0.59111 0.0
C2841 C 0.2362 0.56808 0.57329 0.0
C2842 C 0.23881 0.58655 0.58259 0.0
C2843 C 0.22786 0.58804 0.60978 0.0
C2844 C 0.21422 0.57105 0.62763 0.0
C2845 C 0.20617 0.52097 0.7811 0.0
C2846 C 0.18948 0.5161 0.80142 0.0
C2847 C 0.20496 0.52132 0.74523 0.0
C2848 C 0.18698 0.51667 0.7293 0.0
C2849 C 0.1704 0.51225 0.74978 0.0
C2850 C 0.17166 0.512 0.78567 0.0
C2851 C 0.18549 0.51627 0.69125 0.0
C2852 C 0.1982 0.53348 0.67275 0.0
C2853 C 0.17137 0.49918 0.67334 0.0
C2854 C 0.15897 0.47999 0.69123 0.0
C2855 C 0.13825 0.46985 0.68764 0.0
C2856 C 0.12661 0.45183 0.70463 0.0
C2857 C 0.13553 0.44376 0.72522 0.0
C2858 C 0.15611 0.45366 0.72877 0.0
C2859 C 0.16782 0.47164 0.71173 0.0
H2860 H 0.1265 0.42982 0.73839 0.0
H2861 H 0.24933 0.59971 0.56876 0.0
loop_
_geom_bond_atom_site_label_1
_geom_bond_atom_site_label_2
_geom_bond_distance
_geom_bond_site_symmetry_2
_ccdc_geom_bond_type
Co0 O3 1.970 1_545 S
Co0 N17 1.989 . S
Co0 O25 1.967 . S
Co0 O32 1.920 1_545 S
Co1 O4 1.966 . S
Co1 N10 2.022 . S
Co1 N18 1.993 . S
Co1 O26 1.941 . S
C2 O3 1.258 1_545 S
C2 O4 1.263 . S
O3 Co0 1.970 1_565 S
O3 C2 1.258 1_565 S
O4 Co1 1.966 . S
O4 C2 1.263 . S
C5 O6 1.235 . S
C5 O32 1.289 . S
O6 C5 1.235 . S
C7 C9 1.400 . S
C7 N10 1.351 . S
C7 C12 1.501 . S
C8 C9 1.387 . S
C8 N11 1.341 . S
C9 C7 1.400 . S
C9 C8 1.387 . S
N10 Co1 2.022 . S
N10 C7 1.351 . S
N10 N11 1.365 . S
N11 C8 1.341 . S
N11 N10 1.365 . S
N11 H31 0.862 . S
C12 C7 1.501 . S
C12 H13 0.961 . S
C12 H14 0.961 . S
C12 H15 0.960 . S
H13 C12 0.961 . S
H14 C12 0.961 . S
H15 C12 0.960 . S
C16 N17 1.342 1_565 S
C16 C20 1.405 1_565 S
C16 C21 1.499 . S
N17 Co0 1.989 . S
N17 C16 1.342 1_545 S
N17 N18 1.388 . S
N18 Co1 1.993 . S
N18 N17 1.388 . S
N18 C19 1.346 . S
C19 N18 1.346 . S
C19 C20 1.409 . S
C19 C29 1.510 . S
C20 C16 1.405 1_545 S
C20 C19 1.409 . S
C21 C16 1.499 . S
C21 H22 0.959 . S
C21 H23 0.960 . S
C21 H24 0.961 . S
H22 C21 0.959 . S
H23 C21 0.960 . S
H24 C21 0.961 . S
O25 Co0 1.967 . S
O25 C33 1.258 . S
O26 Co1 1.941 . S
O26 C33 1.266 . S
H27 C29 0.959 . S
H28 C29 0.961 . S
C29 C19 1.510 . S
C29 H27 0.959 . S
C29 H28 0.961 . S
C29 H30 0.960 . S
H30 C29 0.960 . S
H31 N11 0.862 . S
O32 Co0 1.920 1_565 S
O32 C5 1.289 . S
C33 O25 1.258 . S
C33 O26 1.266 . S
Co34 O37 1.970 . S
Co34 N51 1.989 . S
Co34 O59 1.967 1_455 S
Co34 O66 1.920 . S
Co35 O38 1.966 . S
Co35 N44 2.022 . S
Co35 N52 1.973 1_655 S
Co35 O60 1.941 . S
C36 O37 1.258 . S
C36 O38 1.263 1_455 S
O37 Co34 1.970 . S
O37 C36 1.258 . S
O38 Co35 1.966 . S
O38 C36 1.263 1_655 S
C39 O40 1.235 . S
C39 O66 1.289 . S
O40 C39 1.235 . S
C41 C43 1.400 . S
C41 N44 1.351 . S
C41 C46 1.501 . S
C42 C43 1.387 . S
C42 N45 1.341 . S
C43 C41 1.400 . S
C43 C42 1.387 . S
N44 Co35 2.022 . S
N44 C41 1.351 . S
N44 N45 1.365 . S
N45 C42 1.341 . S
N45 N44 1.365 . S
N45 H65 0.862 . S
C46 C41 1.501 . S
C46 H47 0.961 . S
C46 H48 0.961 . S
C46 H49 0.960 . S
H47 C46 0.961 . S
H48 C46 0.961 . S
H49 C46 0.960 . S
C50 N51 1.342 . S
C50 C54 1.401 . S
C50 C55 1.499 . S
N51 Co34 1.989 . S
N51 C50 1.342 . S
N51 N52 1.420 . S
N52 Co35 1.973 1_455 S
N52 N51 1.420 . S
N52 C53 1.341 . S
C53 N52 1.341 . S
C53 C54 1.396 . S
C53 C63 1.510 1_455 S
C54 C50 1.401 . S
C54 C53 1.396 . S
C55 C50 1.499 . S
C55 H56 0.959 . S
C55 H57 0.960 . S
C55 H58 0.961 . S
H56 C55 0.959 . S
H57 C55 0.960 . S
H58 C55 0.961 . S
O59 Co34 1.967 1_655 S
O59 C67 1.258 . S
O60 Co35 1.941 . S
O60 C67 1.266 . S
H61 C63 0.959 . S
H62 C63 0.961 . S
C63 C53 1.510 1_655 S
C63 H61 0.959 . S
C63 H62 0.961 . S
C63 H64 0.960 . S
H64 C63 0.960 . S
H65 N45 0.862 . S
O66 Co34 1.920 . S
O66 C39 1.289 . S
C67 O59 1.258 . S
C67 O60 1.266 . S
Co68 O71 1.970 . S
Co68 N85 1.989 . S
Co68 O93 1.967 . S
Co68 O100 1.920 . S
Co69 O72 1.966 . S
Co69 N78 2.022 . S
Co69 N86 1.993 . S
Co69 O94 1.941 . S
C70 O71 1.258 . S
C70 O72 1.263 . S
O71 Co68 1.970 . S
O71 C70 1.258 . S
O72 Co69 1.966 . S
O72 C70 1.263 . S
C73 O74 1.235 . S
C73 O100 1.289 . S
O74 C73 1.235 . S
C75 C77 1.400 . S
C75 N78 1.351 . S
C75 C80 1.501 . S
C76 C77 1.387 . S
C76 N79 1.341 . S
C77 C75 1.400 . S
C77 C76 1.387 . S
N78 Co69 2.022 . S
N78 C75 1.351 . S
N78 N79 1.365 . S
N79 C76 1.341 . S
N79 N78 1.365 . S
N79 H99 0.862 . S
C80 C75 1.501 . S
C80 H81 0.961 . S
C80 H82 0.961 . S
C80 H83 0.960 . S
H81 C80 0.961 . S
H82 C80 0.961 . S
H83 C80 0.960 . S
C84 N85 1.342 . S
C84 C88 1.401 . S
C84 C89 1.499 . S
N85 Co68 1.989 . S
N85 C84 1.342 . S
N85 N86 1.388 . S
N86 Co69 1.993 . S
N86 N85 1.388 . S
N86 C87 1.346 . S
C87 N86 1.346 . S
C87 C88 1.396 . S
C87 C97 1.510 . S
C88 C84 1.401 . S
C88 C87 1.396 . S
C89 C84 1.499 . S
C89 H90 0.959 . S
C89 H91 0.960 . S
C89 H92 0.961 . S
H90 C89 0.959 . S
H91 C89 0.960 . S
H92 C89 0.961 . S
O93 Co68 1.967 . S
O93 C101 1.258 . S
O94 Co69 1.941 . S
O94 C101 1.266 . S
H95 C97 0.959 . S
H96 C97 0.961 . S
C97 C87 1.510 . S
C97 H95 0.959 . S
C97 H96 0.961 . S
C97 H98 0.960 . S
H98 C97 0.960 . S
H99 N79 0.862 . S
O100 Co68 1.920 . S
O100 C73 1.289 . S
C101 O93 1.258 . S
C101 O94 1.266 . S
Co102 O105 1.970 1_455 S
Co102 N119 1.989 . S
Co102 O127 1.967 . S
Co102 O134 1.920 1_455 S
Co103 O106 1.966 . S
Co103 N112 2.022 . S
Co103 N120 1.993 . S
Co103 O128 1.941 . S
C104 O105 1.258 1_455 S
C104 O106 1.263 . S
O105 Co102 1.970 1_655 S
O105 C104 1.258 1_655 S
O106 Co103 1.966 . S
O106 C104 1.263 . S
C107 O108 1.235 . S
C107 O134 1.289 . S
O108 C107 1.235 . S
C109 C111 1.400 . S
C109 N112 1.351 . S
C109 C114 1.501 . S
C110 C111 1.387 . S
C110 N113 1.341 . S
C111 C109 1.400 . S
C111 C110 1.387 . S
N112 Co103 2.022 . S
N112 C109 1.351 . S
N112 N113 1.365 . S
N113 C110 1.341 . S
N113 N112 1.365 . S
N113 H133 0.862 . S
C114 C109 1.501 . S
C114 H115 0.961 . S
C114 H116 0.961 . S
C114 H117 0.960 . S
H115 C114 0.961 . S
H116 C114 0.961 . S
H117 C114 0.960 . S
C118 N119 1.342 1_655 S
C118 C122 1.405 1_655 S
C118 C123 1.499 . S
N119 Co102 1.989 . S
N119 C118 1.342 1_455 S
N119 N120 1.388 . S
N120 Co103 1.993 . S
N120 N119 1.388 . S
N120 C121 1.346 . S
C121 N120 1.346 . S
C121 C122 1.409 . S
C121 C131 1.510 . S
C122 C118 1.405 1_455 S
C122 C121 1.409 . S
C123 C118 1.499 . S
C123 H124 0.959 . S
C123 H125 0.960 . S
C123 H126 0.961 . S
H124 C123 0.959 . S
H125 C123 0.960 . S
H126 C123 0.961 . S
O127 Co102 1.967 . S
O127 C135 1.258 . S
O128 Co103 1.941 . S
O128 C135 1.266 . S
H129 C131 0.959 . S
H130 C131 0.961 . S
C131 C121 1.510 . S
C131 H129 0.959 . S
C131 H130 0.961 . S
C131 H132 0.960 . S
H132 C131 0.960 . S
H133 N113 0.862 . S
O134 Co102 1.920 1_655 S
O134 C107 1.289 . S
C135 O127 1.258 . S
C135 O128 1.266 . S
Co136 O139 1.970 . S
Co136 N153 1.989 . S
Co136 O161 1.967 . S
Co136 O168 1.920 . S
Co137 O140 1.966 . S
Co137 N146 2.022 . S
Co137 N154 1.993 . S
Co137 O162 1.941 . S
C138 O139 1.258 . S
C138 O140 1.263 . S
O139 Co136 1.970 . S
O139 C138 1.258 . S
O140 Co137 1.966 . S
O140 C138 1.263 . S
C141 O142 1.235 . S
C141 O168 1.289 . S
O142 C141 1.235 . S
C143 C145 1.400 . S
C143 N146 1.351 . S
C143 C148 1.501 . S
C144 C145 1.387 . S
C144 N147 1.341 . S
C145 C143 1.400 . S
C145 C144 1.387 . S
N146 Co137 2.022 . S
N146 C143 1.351 . S
N146 N147 1.365 . S
N147 C144 1.341 . S
N147 N146 1.365 . S
N147 H167 0.862 . S
C148 C143 1.501 . S
C148 H149 0.961 . S
C148 H150 0.961 . S
C148 H151 0.960 . S
H149 C148 0.961 . S
H150 C148 0.961 . S
H151 C148 0.960 . S
C152 N153 1.342 . S
C152 C156 1.401 . S
C152 C157 1.499 . S
N153 Co136 1.989 . S
N153 C152 1.342 . S
N153 N154 1.388 . S
N154 Co137 1.993 . S
N154 N153 1.388 . S
N154 C155 1.346 . S
C155 N154 1.346 . S
C155 C156 1.396 . S
C155 C165 1.510 . S
C156 C152 1.401 . S
C156 C155 1.396 . S
C157 C152 1.499 . S
C157 H158 0.959 . S
C157 H159 0.960 . S
C157 H160 0.961 . S
H158 C157 0.959 . S
H159 C157 0.960 . S
H160 C157 0.961 . S
O161 Co136 1.967 . S
O161 C169 1.258 . S
O162 Co137 1.941 . S
O162 C169 1.266 . S
H163 C165 0.959 . S
H164 C165 0.961 . S
C165 C155 1.510 . S
C165 H163 0.959 . S
C165 H164 0.961 . S
C165 H166 0.960 . S
H166 C165 0.960 . S
H167 N147 0.862 . S
O168 Co136 1.920 . S
O168 C141 1.289 . S
C169 O161 1.258 . S
C169 O162 1.266 . S
Co170 O173 1.970 . S
Co170 N187 1.989 . S
Co170 O195 1.967 1_545 S
Co170 O202 1.920 . S
Co171 O174 1.966 . S
Co171 N180 2.022 . S
Co171 N188 1.973 1_565 S
Co171 O196 1.941 . S
C172 O173 1.258 . S
C172 O174 1.263 1_545 S
O173 Co170 1.970 . S
O173 C172 1.258 . S
O174 Co171 1.966 . S
O174 C172 1.263 1_565 S
C175 O176 1.235 . S
C175 O202 1.289 . S
O176 C175 1.235 . S
C177 C179 1.400 . S
C177 N180 1.351 . S
C177 C182 1.501 . S
C178 C179 1.387 . S
C178 N181 1.341 . S
C179 C177 1.400 . S
C179 C178 1.387 . S
N180 Co171 2.022 . S
N180 C177 1.351 . S
N180 N181 1.365 . S
N181 C178 1.341 . S
N181 N180 1.365 . S
N181 H201 0.862 . S
C182 C177 1.501 . S
C182 H183 0.961 . S
C182 H184 0.961 . S
C182 H185 0.960 . S
H183 C182 0.961 . S
H184 C182 0.961 . S
H185 C182 0.960 . S
C186 N187 1.342 . S
C186 C190 1.401 . S
C186 C191 1.499 . S
N187 Co170 1.989 . S
N187 C186 1.342 . S
N187 N188 1.420 . S
N188 Co171 1.973 1_545 S
N188 N187 1.420 . S
N188 C189 1.341 . S
C189 N188 1.341 . S
C189 C190 1.396 . S
C189 C199 1.510 1_545 S
C190 C186 1.401 . S
C190 C189 1.396 . S
C191 C186 1.499 . S
C191 H192 0.959 . S
C191 H193 0.960 . S
C191 H194 0.961 . S
H192 C191 0.959 . S
H193 C191 0.960 . S
H194 C191 0.961 . S
O195 Co170 1.967 1_565 S
O195 C203 1.258 . S
O196 Co171 1.941 . S
O196 C203 1.266 . S
H197 C199 0.959 . S
H198 C199 0.961 . S
C199 C189 1.510 1_565 S
C199 H197 0.959 . S
C199 H198 0.961 . S
C199 H200 0.960 . S
H200 C199 0.960 . S
H201 N181 0.862 . S
O202 Co170 1.920 . S
O202 C175 1.289 . S
C203 O195 1.258 . S
C203 O196 1.266 . S
Co204 O207 1.970 . S
Co204 N221 1.989 . S
Co204 O229 1.967 . S
Co204 O236 1.920 . S
Co205 O208 1.966 . S
Co205 N214 2.022 . S
Co205 N222 1.993 . S
Co205 O230 1.941 . S
C206 O207 1.258 . S
C206 O208 1.263 . S
O207 Co204 1.970 . S
O207 C206 1.258 . S
O208 Co205 1.966 . S
O208 C206 1.263 . S
C209 O210 1.235 . S
C209 O236 1.289 . S
O210 C209 1.235 . S
C211 C213 1.400 . S
C211 N214 1.351 . S
C211 C216 1.501 . S
C212 C213 1.387 . S
C212 N215 1.341 . S
C213 C211 1.400 . S
C213 C212 1.387 . S
N214 Co205 2.022 . S
N214 C211 1.351 . S
N214 N215 1.365 . S
N215 C212 1.341 . S
N215 N214 1.365 . S
N215 H235 0.862 . S
C216 C211 1.501 . S
C216 H217 0.961 . S
C216 H218 0.961 . S
C216 H219 0.960 . S
H217 C216 0.961 . S
H218 C216 0.961 . S
H219 C216 0.960 . S
C220 N221 1.342 . S
C220 C224 1.401 . S
C220 C225 1.499 . S
N221 Co204 1.989 . S
N221 C220 1.342 . S
N221 N222 1.388 . S
N222 Co205 1.993 . S
N222 N221 1.388 . S
N222 C223 1.346 . S
C223 N222 1.346 . S
C223 C224 1.396 . S
C223 C233 1.510 . S
C224 C220 1.401 . S
C224 C223 1.396 . S
C225 C220 1.499 . S
C225 H226 0.959 . S
C225 H227 0.960 . S
C225 H228 0.961 . S
H226 C225 0.959 . S
H227 C225 0.960 . S
H228 C225 0.961 . S
O229 Co204 1.967 . S
O229 C237 1.258 . S
O230 Co205 1.941 . S
O230 C237 1.266 . S
H231 C233 0.959 . S
H232 C233 0.961 . S
C233 C223 1.510 . S
C233 H231 0.959 . S
C233 H232 0.961 . S
C233 H234 0.960 . S
H234 C233 0.960 . S
H235 N215 0.862 . S
O236 Co204 1.920 . S
O236 C209 1.289 . S
C237 O229 1.258 . S
C237 O230 1.266 . S
Co238 O241 1.970 . S
Co238 N255 1.989 . S
Co238 O263 1.967 . S
Co238 O270 1.920 . S
Co239 O242 1.966 . S
Co239 N248 2.022 . S
Co239 N256 1.993 . S
Co239 O264 1.941 . S
C240 O241 1.258 . S
C240 O242 1.263 . S
O241 Co238 1.970 . S
O241 C240 1.258 . S
O242 Co239 1.966 . S
O242 C240 1.263 . S
C243 O244 1.235 . S
C243 O270 1.289 . S
O244 C243 1.235 . S
C245 C247 1.400 . S
C245 N248 1.351 . S
C245 C250 1.501 . S
C246 C247 1.387 . S
C246 N249 1.341 . S
C247 C245 1.400 . S
C247 C246 1.387 . S
N248 Co239 2.022 . S
N248 C245 1.351 . S
N248 N249 1.365 . S
N249 C246 1.341 . S
N249 N248 1.365 . S
N249 H269 0.862 . S
C250 C245 1.501 . S
C250 H251 0.961 . S
C250 H252 0.961 . S
C250 H253 0.960 . S
H251 C250 0.961 . S
H252 C250 0.961 . S
H253 C250 0.960 . S
C254 N255 1.342 . S
C254 C258 1.401 . S
C254 C259 1.499 . S
N255 Co238 1.989 . S
N255 C254 1.342 . S
N255 N256 1.388 . S
N256 Co239 1.993 . S
N256 N255 1.388 . S
N256 C257 1.346 . S
C257 N256 1.346 . S
C257 C258 1.396 . S
C257 C267 1.510 . S
C258 C254 1.401 . S
C258 C257 1.396 . S
C259 C254 1.499 . S
C259 H260 0.959 . S
C259 H261 0.960 . S
C259 H262 0.961 . S
H260 C259 0.959 . S
H261 C259 0.960 . S
H262 C259 0.961 . S
O263 Co238 1.967 . S
O263 C271 1.258 . S
O264 Co239 1.941 . S
O264 C271 1.266 . S
H265 C267 0.959 . S
H266 C267 0.961 . S
C267 C257 1.510 . S
C267 H265 0.959 . S
C267 H266 0.961 . S
C267 H268 0.960 . S
H268 C267 0.960 . S
H269 N249 0.862 . S
O270 Co238 1.920 . S
O270 C243 1.289 . S
C271 O263 1.258 . S
C271 O264 1.266 . S
Co272 O275 1.970 . S
Co272 N289 1.989 . S
Co272 O297 1.967 . S
Co272 O304 1.920 . S
Co273 O276 1.966 . S
Co273 N282 2.022 . S
Co273 N290 1.993 . S
Co273 O298 1.941 . S
C274 O275 1.258 . S
C274 O276 1.263 . S
O275 Co272 1.970 . S
O275 C274 1.258 . S
O276 Co273 1.966 . S
O276 C274 1.263 . S
C277 O278 1.235 . S
C277 O304 1.289 . S
O278 C277 1.235 . S
C279 C281 1.400 . S
C279 N282 1.351 . S
C279 C284 1.501 . S
C280 C281 1.387 . S
C280 N283 1.341 . S
C281 C279 1.400 . S
C281 C280 1.387 . S
N282 Co273 2.022 . S
N282 C279 1.351 . S
N282 N283 1.365 . S
N283 C280 1.341 . S
N283 N282 1.365 . S
N283 H303 0.862 . S
C284 C279 1.501 . S
C284 H285 0.961 . S
C284 H286 0.961 . S
C284 H287 0.960 . S
H285 C284 0.961 . S
H286 C284 0.961 . S
H287 C284 0.960 . S
C288 N289 1.342 . S
C288 C292 1.401 . S
C288 C293 1.499 . S
N289 Co272 1.989 . S
N289 C288 1.342 . S
N289 N290 1.388 . S
N290 Co273 1.993 . S
N290 N289 1.388 . S
N290 C291 1.346 . S
C291 N290 1.346 . S
C291 C292 1.396 . S
C291 C301 1.510 . S
C292 C288 1.401 . S
C292 C291 1.396 . S
C293 C288 1.499 . S
C293 H294 0.959 . S
C293 H295 0.960 . S
C293 H296 0.961 . S
H294 C293 0.959 . S
H295 C293 0.960 . S
H296 C293 0.961 . S
O297 Co272 1.967 . S
O297 C305 1.258 . S
O298 Co273 1.941 . S
O298 C305 1.266 . S
H299 C301 0.959 . S
H300 C301 0.961 . S
C301 C291 1.510 . S
C301 H299 0.959 . S
C301 H300 0.961 . S
C301 H302 0.960 . S
H302 C301 0.960 . S
H303 N283 0.862 . S
O304 Co272 1.920 . S
O304 C277 1.289 . S
C305 O297 1.258 . S
C305 O298 1.266 . S
Co306 O309 1.970 . S
Co306 N323 1.989 . S
Co306 O331 1.967 . S
Co306 O338 1.920 . S
Co307 O310 1.966 . S
Co307 N316 2.022 . S
Co307 N324 1.993 . S
Co307 O332 1.941 . S
C308 O309 1.258 . S
C308 O310 1.263 . S
O309 Co306 1.970 . S
O309 C308 1.258 . S
O310 Co307 1.966 . S
O310 C308 1.263 . S
C311 O312 1.235 . S
C311 O338 1.289 . S
O312 C311 1.235 . S
C313 C315 1.400 . S
C313 N316 1.351 . S
C313 C318 1.501 . S
C314 C315 1.387 . S
C314 N317 1.341 . S
C315 C313 1.400 . S
C315 C314 1.387 . S
N316 Co307 2.022 . S
N316 C313 1.351 . S
N316 N317 1.365 . S
N317 C314 1.341 . S
N317 N316 1.365 . S
N317 H337 0.862 . S
C318 C313 1.501 . S
C318 H319 0.961 . S
C318 H320 0.961 . S
C318 H321 0.960 . S
H319 C318 0.961 . S
H320 C318 0.961 . S
H321 C318 0.960 . S
C322 N323 1.342 . S
C322 C326 1.401 . S
C322 C327 1.499 . S
N323 Co306 1.989 . S
N323 C322 1.342 . S
N323 N324 1.388 . S
N324 Co307 1.993 . S
N324 N323 1.388 . S
N324 C325 1.346 . S
C325 N324 1.346 . S
C325 C326 1.396 . S
C325 C335 1.510 . S
C326 C322 1.401 . S
C326 C325 1.396 . S
C327 C322 1.499 . S
C327 H328 0.959 . S
C327 H329 0.960 . S
C327 H330 0.961 . S
H328 C327 0.959 . S
H329 C327 0.960 . S
H330 C327 0.961 . S
O331 Co306 1.967 . S
O331 C339 1.258 . S
O332 Co307 1.941 . S
O332 C339 1.266 . S
H333 C335 0.959 . S
H334 C335 0.961 . S
C335 C325 1.510 . S
C335 H333 0.959 . S
C335 H334 0.961 . S
C335 H336 0.960 . S
H336 C335 0.960 . S
H337 N317 0.862 . S
O338 Co306 1.920 . S
O338 C311 1.289 . S
C339 O331 1.258 . S
C339 O332 1.266 . S
Co340 O343 1.970 . S
Co340 N357 1.989 . S
Co340 O365 1.967 . S
Co340 O372 1.920 . S
Co341 O344 1.966 . S
Co341 N350 2.022 . S
Co341 N358 1.993 . S
Co341 O366 1.941 . S
C342 O343 1.258 . S
C342 O344 1.263 . S
O343 Co340 1.970 . S
O343 C342 1.258 . S
O344 Co341 1.966 . S
O344 C342 1.263 . S
C345 O346 1.235 . S
C345 O372 1.289 . S
O346 C345 1.235 . S
C347 C349 1.400 . S
C347 N350 1.351 . S
C347 C352 1.501 . S
C348 C349 1.387 . S
C348 N351 1.341 . S
C349 C347 1.400 . S
C349 C348 1.387 . S
N350 Co341 2.022 . S
N350 C347 1.351 . S
N350 N351 1.365 . S
N351 C348 1.341 . S
N351 N350 1.365 . S
N351 H371 0.862 . S
C352 C347 1.501 . S
C352 H353 0.961 . S
C352 H354 0.961 . S
C352 H355 0.960 . S
H353 C352 0.961 . S
H354 C352 0.961 . S
H355 C352 0.960 . S
C356 N357 1.342 . S
C356 C360 1.401 . S
C356 C361 1.499 . S
N357 Co340 1.989 . S
N357 C356 1.342 . S
N357 N358 1.388 . S
N358 Co341 1.993 . S
N358 N357 1.388 . S
N358 C359 1.346 . S
C359 N358 1.346 . S
C359 C360 1.396 . S
C359 C369 1.510 . S
C360 C356 1.401 . S
C360 C359 1.396 . S
C361 C356 1.499 . S
C361 H362 0.959 . S
C361 H363 0.960 . S
C361 H364 0.961 . S
H362 C361 0.959 . S
H363 C361 0.960 . S
H364 C361 0.961 . S
O365 Co340 1.967 . S
O365 C373 1.258 . S
O366 Co341 1.941 . S
O366 C373 1.266 . S
H367 C369 0.959 . S
H368 C369 0.961 . S
C369 C359 1.510 . S
C369 H367 0.959 . S
C369 H368 0.961 . S
C369 H370 0.960 . S
H370 C369 0.960 . S
H371 N351 0.862 . S
O372 Co340 1.920 . S
O372 C345 1.289 . S
C373 O365 1.258 . S
C373 O366 1.266 . S
Co374 O377 1.970 . S
Co374 N391 1.989 . S
Co374 O399 1.967 . S
Co374 O406 1.920 . S
Co375 O378 1.966 . S
Co375 N384 2.022 . S
Co375 N392 1.993 . S
Co375 O400 1.941 . S
C376 O377 1.258 . S
C376 O378 1.263 . S
O377 Co374 1.970 . S
O377 C376 1.258 . S
O378 Co375 1.966 . S
O378 C376 1.263 . S
C379 O380 1.235 . S
C379 O406 1.289 . S
O380 C379 1.235 . S
C381 C383 1.400 . S
C381 N384 1.351 . S
C381 C386 1.501 . S
C382 C383 1.387 . S
C382 N385 1.341 . S
C383 C381 1.400 . S
C383 C382 1.387 . S
N384 Co375 2.022 . S
N384 C381 1.351 . S
N384 N385 1.365 . S
N385 C382 1.341 . S
N385 N384 1.365 . S
N385 H405 0.862 . S
C386 C381 1.501 . S
C386 H387 0.961 . S
C386 H388 0.961 . S
C386 H389 0.960 . S
H387 C386 0.961 . S
H388 C386 0.961 . S
H389 C386 0.960 . S
C390 N391 1.342 . S
C390 C394 1.401 . S
C390 C395 1.499 . S
N391 Co374 1.989 . S
N391 C390 1.342 . S
N391 N392 1.388 . S
N392 Co375 1.993 . S
N392 N391 1.388 . S
N392 C393 1.346 . S
C393 N392 1.346 . S
C393 C394 1.396 . S
C393 C403 1.510 . S
C394 C390 1.401 . S
C394 C393 1.396 . S
C395 C390 1.499 . S
C395 H396 0.959 . S
C395 H397 0.960 . S
C395 H398 0.961 . S
H396 C395 0.959 . S
H397 C395 0.960 . S
H398 C395 0.961 . S
O399 Co374 1.967 . S
O399 C407 1.258 . S
O400 Co375 1.941 . S
O400 C407 1.266 . S
H401 C403 0.959 . S
H402 C403 0.961 . S
C403 C393 1.510 . S
C403 H401 0.959 . S
C403 H402 0.961 . S
C403 H404 0.960 . S
H404 C403 0.960 . S
H405 N385 0.862 . S
O406 Co374 1.920 . S
O406 C379 1.289 . S
C407 O399 1.258 . S
C407 O400 1.266 . S
Co408 O411 1.970 . S
Co408 N425 1.989 . S
Co408 O433 1.967 . S
Co408 O440 1.920 . S
Co409 O412 1.966 . S
Co409 N418 2.022 . S
Co409 N426 1.993 . S
Co409 O434 1.941 . S
C410 O411 1.258 . S
C410 O412 1.263 . S
O411 Co408 1.970 . S
O411 C410 1.258 . S
O412 Co409 1.966 . S
O412 C410 1.263 . S
C413 O414 1.235 . S
C413 O440 1.289 . S
O414 C413 1.235 . S
C415 C417 1.400 . S
C415 N418 1.351 . S
C415 C420 1.501 . S
C416 C417 1.387 . S
C416 N419 1.341 . S
C417 C415 1.400 . S
C417 C416 1.387 . S
N418 Co409 2.022 . S
N418 C415 1.351 . S
N418 N419 1.365 . S
N419 C416 1.341 . S
N419 N418 1.365 . S
N419 H439 0.862 . S
C420 C415 1.501 . S
C420 H421 0.961 . S
C420 H422 0.961 . S
C420 H423 0.960 . S
H421 C420 0.961 . S
H422 C420 0.961 . S
H423 C420 0.960 . S
C424 N425 1.342 . S
C424 C428 1.401 . S
C424 C429 1.499 . S
N425 Co408 1.989 . S
N425 C424 1.342 . S
N425 N426 1.388 . S
N426 Co409 1.993 . S
N426 N425 1.388 . S
N426 C427 1.346 . S
C427 N426 1.346 . S
C427 C428 1.396 . S
C427 C437 1.510 . S
C428 C424 1.401 . S
C428 C427 1.396 . S
C429 C424 1.499 . S
C429 H430 0.959 . S
C429 H431 0.960 . S
C429 H432 0.961 . S
H430 C429 0.959 . S
H431 C429 0.960 . S
H432 C429 0.961 . S
O433 Co408 1.967 . S
O433 C441 1.258 . S
O434 Co409 1.941 . S
O434 C441 1.266 . S
H435 C437 0.959 . S
H436 C437 0.961 . S
C437 C427 1.510 . S
C437 H435 0.959 . S
C437 H436 0.961 . S
C437 H438 0.960 . S
H438 C437 0.960 . S
H439 N419 0.862 . S
O440 Co408 1.920 . S
O440 C413 1.289 . S
C441 O433 1.258 . S
C441 O434 1.266 . S
Co442 O445 1.970 . S
Co442 N459 1.989 . S
Co442 O467 1.967 . S
Co442 O474 1.920 . S
Co443 O446 1.966 . S
Co443 N452 2.022 . S
Co443 N460 1.993 . S
Co443 O468 1.941 . S
C444 O445 1.258 . S
C444 O446 1.263 . S
O445 Co442 1.970 . S
O445 C444 1.258 . S
O446 Co443 1.966 . S
O446 C444 1.263 . S
C447 O448 1.235 . S
C447 O474 1.289 . S
O448 C447 1.235 . S
C449 C451 1.400 . S
C449 N452 1.351 . S
C449 C454 1.501 . S
C450 C451 1.387 . S
C450 N453 1.341 . S
C451 C449 1.400 . S
C451 C450 1.387 . S
N452 Co443 2.022 . S
N452 C449 1.351 . S
N452 N453 1.365 . S
N453 C450 1.341 . S
N453 N452 1.365 . S
N453 H473 0.862 . S
C454 C449 1.501 . S
C454 H455 0.961 . S
C454 H456 0.961 . S
C454 H457 0.960 . S
H455 C454 0.961 . S
H456 C454 0.961 . S
H457 C454 0.960 . S
C458 N459 1.342 . S
C458 C462 1.401 . S
C458 C463 1.499 . S
N459 Co442 1.989 . S
N459 C458 1.342 . S
N459 N460 1.388 . S
N460 Co443 1.993 . S
N460 N459 1.388 . S
N460 C461 1.346 . S
C461 N460 1.346 . S
C461 C462 1.396 . S
C461 C471 1.510 . S
C462 C458 1.401 . S
C462 C461 1.396 . S
C463 C458 1.499 . S
C463 H464 0.959 . S
C463 H465 0.960 . S
C463 H466 0.961 . S
H464 C463 0.959 . S
H465 C463 0.960 . S
H466 C463 0.961 . S
O467 Co442 1.967 . S
O467 C475 1.258 . S
O468 Co443 1.941 . S
O468 C475 1.266 . S
H469 C471 0.959 . S
H470 C471 0.961 . S
C471 C461 1.510 . S
C471 H469 0.959 . S
C471 H470 0.961 . S
C471 H472 0.960 . S
H472 C471 0.960 . S
H473 N453 0.862 . S
O474 Co442 1.920 . S
O474 C447 1.289 . S
C475 O467 1.258 . S
C475 O468 1.266 . S
Co476 O479 1.970 . S
Co476 N493 1.989 . S
Co476 O501 1.967 . S
Co476 O508 1.920 . S
Co477 O480 1.966 . S
Co477 N486 2.022 . S
Co477 N494 1.993 . S
Co477 O502 1.941 . S
C478 O479 1.258 . S
C478 O480 1.263 . S
O479 Co476 1.970 . S
O479 C478 1.258 . S
O480 Co477 1.966 . S
O480 C478 1.263 . S
C481 O482 1.235 . S
C481 O508 1.289 . S
O482 C481 1.235 . S
C483 C485 1.400 . S
C483 N486 1.351 . S
C483 C488 1.501 . S
C484 C485 1.387 . S
C484 N487 1.341 . S
C485 C483 1.400 . S
C485 C484 1.387 . S
N486 Co477 2.022 . S
N486 C483 1.351 . S
N486 N487 1.365 . S
N487 C484 1.341 . S
N487 N486 1.365 . S
N487 H507 0.862 . S
C488 C483 1.501 . S
C488 H489 0.961 . S
C488 H490 0.961 . S
C488 H491 0.960 . S
H489 C488 0.961 . S
H490 C488 0.961 . S
H491 C488 0.960 . S
C492 N493 1.342 . S
C492 C496 1.401 . S
C492 C497 1.499 . S
N493 Co476 1.989 . S
N493 C492 1.342 . S
N493 N494 1.388 . S
N494 Co477 1.993 . S
N494 N493 1.388 . S
N494 C495 1.346 . S
C495 N494 1.346 . S
C495 C496 1.396 . S
C495 C505 1.510 . S
C496 C492 1.401 . S
C496 C495 1.396 . S
C497 C492 1.499 . S
C497 H498 0.959 . S
C497 H499 0.960 . S
C497 H500 0.961 . S
H498 C497 0.959 . S
H499 C497 0.960 . S
H500 C497 0.961 . S
O501 Co476 1.967 . S
O501 C509 1.258 . S
O502 Co477 1.941 . S
O502 C509 1.266 . S
H503 C505 0.959 . S
H504 C505 0.961 . S
C505 C495 1.510 . S
C505 H503 0.959 . S
C505 H504 0.961 . S
C505 H506 0.960 . S
H506 C505 0.960 . S
H507 N487 0.862 . S
O508 Co476 1.920 . S
O508 C481 1.289 . S
C509 O501 1.258 . S
C509 O502 1.266 . S
Co510 O513 1.970 . S
Co510 N527 1.989 . S
Co510 O535 1.967 . S
Co510 O542 1.920 . S
Co511 O514 1.966 . S
Co511 N520 2.022 . S
Co511 N528 1.993 . S
Co511 O536 1.941 . S
C512 O513 1.258 . S
C512 O514 1.263 . S
O513 Co510 1.970 . S
O513 C512 1.258 . S
O514 Co511 1.966 . S
O514 C512 1.263 . S
C515 O516 1.235 . S
C515 O542 1.289 . S
O516 C515 1.235 . S
C517 C519 1.400 . S
C517 N520 1.351 . S
C517 C522 1.501 . S
C518 C519 1.387 . S
C518 N521 1.341 . S
C519 C517 1.400 . S
C519 C518 1.387 . S
N520 Co511 2.022 . S
N520 C517 1.351 . S
N520 N521 1.365 . S
N521 C518 1.341 . S
N521 N520 1.365 . S
N521 H541 0.862 . S
C522 C517 1.501 . S
C522 H523 0.961 . S
C522 H524 0.961 . S
C522 H525 0.960 . S
H523 C522 0.961 . S
H524 C522 0.961 . S
H525 C522 0.960 . S
C526 N527 1.342 . S
C526 C530 1.401 . S
C526 C531 1.499 . S
N527 Co510 1.989 . S
N527 C526 1.342 . S
N527 N528 1.388 . S
N528 Co511 1.993 . S
N528 N527 1.388 . S
N528 C529 1.346 . S
C529 N528 1.346 . S
C529 C530 1.396 . S
C529 C539 1.510 . S
C530 C526 1.401 . S
C530 C529 1.396 . S
C531 C526 1.499 . S
C531 H532 0.959 . S
C531 H533 0.960 . S
C531 H534 0.961 . S
H532 C531 0.959 . S
H533 C531 0.960 . S
H534 C531 0.961 . S
O535 Co510 1.967 . S
O535 C543 1.258 . S
O536 Co511 1.941 . S
O536 C543 1.266 . S
H537 C539 0.959 . S
H538 C539 0.961 . S
C539 C529 1.510 . S
C539 H537 0.959 . S
C539 H538 0.961 . S
C539 H540 0.960 . S
H540 C539 0.960 . S
H541 N521 0.862 . S
O542 Co510 1.920 . S
O542 C515 1.289 . S
C543 O535 1.258 . S
C543 O536 1.266 . S
Co544 O547 1.970 . S
Co544 N561 1.989 . S
Co544 O569 1.967 . S
Co544 O576 1.920 . S
Co545 O548 1.966 . S
Co545 N554 2.022 . S
Co545 N562 1.993 . S
Co545 O570 1.941 . S
C546 O547 1.258 . S
C546 O548 1.263 . S
O547 Co544 1.970 . S
O547 C546 1.258 . S
O548 Co545 1.966 . S
O548 C546 1.263 . S
C549 O550 1.235 . S
C549 O576 1.289 . S
O550 C549 1.235 . S
C551 C553 1.400 . S
C551 N554 1.351 . S
C551 C556 1.501 . S
C552 C553 1.387 . S
C552 N555 1.341 . S
C553 C551 1.400 . S
C553 C552 1.387 . S
N554 Co545 2.022 . S
N554 C551 1.351 . S
N554 N555 1.365 . S
N555 C552 1.341 . S
N555 N554 1.365 . S
N555 H575 0.862 . S
C556 C551 1.501 . S
C556 H557 0.961 . S
C556 H558 0.961 . S
C556 H559 0.960 . S
H557 C556 0.961 . S
H558 C556 0.961 . S
H559 C556 0.960 . S
C560 N561 1.342 . S
C560 C564 1.401 . S
C560 C565 1.499 . S
N561 Co544 1.989 . S
N561 C560 1.342 . S
N561 N562 1.388 . S
N562 Co545 1.993 . S
N562 N561 1.388 . S
N562 C563 1.346 . S
C563 N562 1.346 . S
C563 C564 1.396 . S
C563 C573 1.510 . S
C564 C560 1.401 . S
C564 C563 1.396 . S
C565 C560 1.499 . S
C565 H566 0.959 . S
C565 H567 0.960 . S
C565 H568 0.961 . S
H566 C565 0.959 . S
H567 C565 0.960 . S
H568 C565 0.961 . S
O569 Co544 1.967 . S
O569 C577 1.258 . S
O570 Co545 1.941 . S
O570 C577 1.266 . S
H571 C573 0.959 . S
H572 C573 0.961 . S
C573 C563 1.510 . S
C573 H571 0.959 . S
C573 H572 0.961 . S
C573 H574 0.960 . S
H574 C573 0.960 . S
H575 N555 0.862 . S
O576 Co544 1.920 . S
O576 C549 1.289 . S
C577 O569 1.258 . S
C577 O570 1.266 . S
Co578 O581 1.970 . S
Co578 N595 1.989 . S
Co578 O603 1.967 . S
Co578 O610 1.920 . S
Co579 O582 1.966 . S
Co579 N588 2.022 . S
Co579 N596 1.993 . S
Co579 O604 1.941 . S
C580 O581 1.258 . S
C580 O582 1.263 . S
O581 Co578 1.970 . S
O581 C580 1.258 . S
O582 Co579 1.966 . S
O582 C580 1.263 . S
C583 O584 1.235 . S
C583 O610 1.289 . S
O584 C583 1.235 . S
C585 C587 1.400 . S
C585 N588 1.351 . S
C585 C590 1.501 . S
C586 C587 1.387 . S
C586 N589 1.341 . S
C587 C585 1.400 . S
C587 C586 1.387 . S
N588 Co579 2.022 . S
N588 C585 1.351 . S
N588 N589 1.365 . S
N589 C586 1.341 . S
N589 N588 1.365 . S
N589 H609 0.862 . S
C590 C585 1.501 . S
C590 H591 0.961 . S
C590 H592 0.961 . S
C590 H593 0.960 . S
H591 C590 0.961 . S
H592 C590 0.961 . S
H593 C590 0.960 . S
C594 N595 1.342 . S
C594 C598 1.401 . S
C594 C599 1.499 . S
N595 Co578 1.989 . S
N595 C594 1.342 . S
N595 N596 1.388 . S
N596 Co579 1.993 . S
N596 N595 1.388 . S
N596 C597 1.346 . S
C597 N596 1.346 . S
C597 C598 1.396 . S
C597 C607 1.510 . S
C598 C594 1.401 . S
C598 C597 1.396 . S
C599 C594 1.499 . S
C599 H600 0.959 . S
C599 H601 0.960 . S
C599 H602 0.961 . S
H600 C599 0.959 . S
H601 C599 0.960 . S
H602 C599 0.961 . S
O603 Co578 1.967 . S
O603 C611 1.258 . S
O604 Co579 1.941 . S
O604 C611 1.266 . S
H605 C607 0.959 . S
H606 C607 0.961 . S
C607 C597 1.510 . S
C607 H605 0.959 . S
C607 H606 0.961 . S
C607 H608 0.960 . S
H608 C607 0.960 . S
H609 N589 0.862 . S
O610 Co578 1.920 . S
O610 C583 1.289 . S
C611 O603 1.258 . S
C611 O604 1.266 . S
H612 C630 0.951 . S
H613 C632 0.951 . S
H614 C634 0.950 . S
H615 C635 0.950 . S
H616 C637 0.950 . S
H617 C640 0.950 . S
H618 C641 0.950 . S
H619 C643 0.950 . S
H620 C644 0.950 . S
H621 C645 0.951 . S
H622 C647 0.951 . S
H623 C649 0.950 . S
H624 C650 0.950 . S
H625 C652 0.950 . S
H626 C655 0.950 . S
H627 C656 0.950 . S
H628 C658 0.950 . S
H629 C659 0.950 . S
C630 H612 0.951 . S
C630 C631 1.366 . S
C630 C632 1.388 . S
C631 C630 1.366 . S
C631 C635 1.385 . S
C632 H613 0.951 . S
C632 C630 1.388 . S
C632 C633 1.366 . S
C633 C632 1.366 . S
C633 C634 1.414 . S
C633 C636 1.499 . S
C634 H614 0.950 . S
C634 C633 1.414 . S
C634 C635 1.374 . S
C635 H615 0.950 . S
C635 C631 1.385 . S
C635 C634 1.374 . S
C636 C633 1.499 . S
C636 C637 1.373 . S
C636 C638 1.389 . S
C637 H616 0.950 . S
C637 C636 1.373 . S
C637 C653 1.377 . S
C638 C636 1.389 . S
C638 C639 1.524 . S
C638 C652 1.377 . S
C639 C638 1.524 . S
C639 C640 1.397 . S
C639 C644 1.363 . S
C640 H617 0.950 . S
C640 C639 1.397 . S
C640 C641 1.334 . S
C641 H618 0.950 . S
C641 C640 1.334 . S
C641 C642 1.287 . S
C642 C641 1.287 . S
C642 C643 1.524 . S
C642 H661 0.913 . S
C643 H619 0.950 . S
C643 C642 1.524 . S
C643 C644 1.415 . S
C644 H620 0.950 . S
C644 C639 1.363 . S
C644 C643 1.415 . S
C645 H621 0.951 . S
C645 C646 1.366 . S
C645 C647 1.388 . S
C646 C645 1.366 . S
C646 C650 1.385 . S
C647 H622 0.951 . S
C647 C645 1.388 . S
C647 C648 1.366 . S
C648 C647 1.366 . S
C648 C649 1.414 . S
C648 C651 1.499 . S
C649 H623 0.950 . S
C649 C648 1.414 . S
C649 C650 1.374 . S
C650 H624 0.950 . S
C650 C646 1.385 . S
C650 C649 1.374 . S
C651 C648 1.499 . S
C651 C652 1.373 . S
C651 C653 1.389 . S
C652 H625 0.950 . S
C652 C638 1.377 . S
C652 C651 1.373 . S
C653 C637 1.377 . S
C653 C651 1.389 . S
C653 C654 1.524 . S
C654 C653 1.524 . S
C654 C655 1.397 . S
C654 C659 1.363 . S
C655 H626 0.950 . S
C655 C654 1.397 . S
C655 C656 1.334 . S
C656 H627 0.950 . S
C656 C655 1.334 . S
C656 C657 1.287 . S
C657 C656 1.287 . S
C657 C658 1.524 . S
C657 H660 0.999 . S
C658 H628 0.950 . S
C658 C657 1.524 . S
C658 C659 1.415 . S
C659 H629 0.950 . S
C659 C654 1.363 . S
C659 C658 1.415 . S
H660 C657 0.999 . S
H661 C642 0.913 . S
H662 C680 0.951 . S
H663 C682 0.951 . S
H664 C684 0.950 . S
H665 C685 0.950 . S
H666 C687 0.950 1_565 S
H667 C690 0.950 . S
H668 C691 0.950 . S
H669 C693 0.950 . S
H670 C694 0.972 . S
H671 C695 0.951 . S
H672 C697 0.951 . S
H673 C699 0.950 . S
H674 C700 0.950 . S
H675 C702 0.950 . S
H676 C705 0.950 . S
H677 C706 0.950 . S
H678 C708 0.950 1_455 S
H679 C709 0.950 . S
C680 H662 0.951 . S
C680 C681 1.366 . S
C680 C682 1.388 . S
C681 C680 1.366 . S
C681 C685 1.385 . S
C682 H663 0.951 . S
C682 C680 1.388 . S
C682 C683 1.366 . S
C683 C682 1.366 . S
C683 C684 1.414 . S
C683 C686 1.499 . S
C684 H664 0.950 . S
C684 C683 1.414 . S
C684 C685 1.374 . S
C685 H665 0.950 . S
C685 C681 1.385 . S
C685 C684 1.374 . S
C686 C683 1.499 . S
C686 C687 1.373 1_565 S
C686 C688 1.389 1_565 S
C687 H666 0.950 1_545 S
C687 C686 1.373 1_545 S
C687 C703 1.377 . S
C688 C686 1.389 1_545 S
C688 C689 1.524 1_545 S
C688 C702 1.377 . S
C689 C688 1.524 1_565 S
C689 C690 1.397 . S
C689 C694 1.338 1_565 S
C690 H667 0.950 . S
C690 C689 1.397 . S
C690 C691 1.334 . S
C691 H668 0.950 . S
C691 C690 1.334 . S
C691 C692 1.287 . S
C692 C691 1.287 . S
C692 C693 1.524 . S
C692 H711 0.913 . S
C693 H669 0.950 . S
C693 C692 1.524 . S
C693 C694 1.419 1_565 S
C694 H670 0.972 . S
C694 C689 1.338 1_545 S
C694 C693 1.419 1_545 S
C695 H671 0.951 . S
C695 C696 1.366 . S
C695 C697 1.388 . S
C696 C695 1.366 . S
C696 C700 1.385 . S
C697 H672 0.951 . S
C697 C695 1.388 . S
C697 C698 1.366 . S
C698 C697 1.366 . S
C698 C699 1.414 . S
C698 C701 1.499 . S
C699 H673 0.950 . S
C699 C698 1.414 . S
C699 C700 1.374 . S
C700 H674 0.950 . S
C700 C696 1.385 . S
C700 C699 1.374 . S
C701 C698 1.499 . S
C701 C702 1.373 . S
C701 C703 1.389 . S
C702 H675 0.950 . S
C702 C688 1.377 . S
C702 C701 1.373 . S
C703 C687 1.377 . S
C703 C701 1.389 . S
C703 C704 1.524 . S
C704 C703 1.524 . S
C704 C705 1.397 . S
C704 C709 1.363 . S
C705 H676 0.950 . S
C705 C704 1.397 . S
C705 C706 1.334 . S
C706 H677 0.950 . S
C706 C705 1.334 . S
C706 C707 1.287 . S
C707 C706 1.287 . S
C707 C708 1.524 . S
C707 H710 0.999 1_655 S
C708 H678 0.950 1_655 S
C708 C707 1.524 . S
C708 C709 1.415 . S
C709 H679 0.950 . S
C709 C704 1.363 . S
C709 C708 1.415 . S
H710 C707 0.999 1_455 S
H711 C692 0.913 . S
H712 C730 0.951 . S
H713 C732 0.951 . S
H714 C734 0.950 . S
H715 C735 0.950 . S
H716 C737 0.950 . S
H717 C740 0.950 . S
H718 C741 0.950 . S
H719 C743 0.950 . S
H720 C744 0.950 . S
H721 C745 0.951 . S
H722 C747 0.951 . S
H723 C749 0.950 . S
H724 C750 0.950 . S
H725 C752 0.950 . S
H726 C755 0.950 . S
H727 C756 0.950 . S
H728 C758 0.950 . S
H729 C759 0.950 . S
C730 H712 0.951 . S
C730 C731 1.366 . S
C730 C732 1.388 . S
C731 C730 1.366 . S
C731 C735 1.385 . S
C732 H713 0.951 . S
C732 C730 1.388 . S
C732 C733 1.366 . S
C733 C732 1.366 . S
C733 C734 1.414 . S
C733 C736 1.499 . S
C734 H714 0.950 . S
C734 C733 1.414 . S
C734 C735 1.374 . S
C735 H715 0.950 . S
C735 C731 1.385 . S
C735 C734 1.374 . S
C736 C733 1.499 . S
C736 C737 1.373 . S
C736 C738 1.389 . S
C737 H716 0.950 . S
C737 C736 1.373 . S
C737 C753 1.377 1_655 S
C738 C736 1.389 . S
C738 C739 1.524 . S
C738 C752 1.377 1_655 S
C739 C738 1.524 . S
C739 C740 1.397 . S
C739 C744 1.363 . S
C740 H717 0.950 . S
C740 C739 1.397 . S
C740 C741 1.334 . S
C741 H718 0.950 . S
C741 C740 1.334 . S
C741 C742 1.287 . S
C742 C741 1.287 . S
C742 C743 1.524 . S
C742 H761 0.913 . S
C743 H719 0.950 . S
C743 C742 1.524 . S
C743 C744 1.415 . S
C744 H720 0.950 . S
C744 C739 1.363 . S
C744 C743 1.415 . S
C745 H721 0.951 . S
C745 C746 1.366 . S
C745 C747 1.388 . S
C746 C745 1.366 . S
C746 C750 1.385 . S
C747 H722 0.951 . S
C747 C745 1.388 . S
C747 C748 1.366 . S
C748 C747 1.366 . S
C748 C749 1.414 . S
C748 C751 1.499 . S
C749 H723 0.950 . S
C749 C748 1.414 . S
C749 C750 1.374 . S
C750 H724 0.950 . S
C750 C746 1.385 . S
C750 C749 1.374 . S
C751 C748 1.499 . S
C751 C752 1.373 . S
C751 C753 1.389 . S
C752 H725 0.950 . S
C752 C738 1.377 1_455 S
C752 C751 1.373 . S
C753 C737 1.377 1_455 S
C753 C751 1.389 . S
C753 C754 1.524 . S
C754 C753 1.524 . S
C754 C755 1.397 . S
C754 C759 1.363 . S
C755 H726 0.950 . S
C755 C754 1.397 . S
C755 C756 1.334 . S
C756 H727 0.950 . S
C756 C755 1.334 . S
C756 C757 1.287 . S
C757 C756 1.287 . S
C757 C758 1.524 . S
C757 H760 0.999 . S
C758 H728 0.950 . S
C758 C757 1.524 . S
C758 C759 1.415 . S
C759 H729 0.950 . S
C759 C754 1.363 . S
C759 C758 1.415 . S
H760 C757 0.999 . S
H761 C742 0.913 . S
H762 C780 0.951 . S
H763 C782 0.951 . S
H764 C784 0.950 . S
H765 C785 0.950 . S
H766 C787 0.950 . S
H767 C790 0.950 . S
H768 C791 0.950 . S
H769 C793 0.950 . S
H770 C794 0.950 . S
H771 C795 0.951 . S
H772 C797 0.951 . S
H773 C799 0.950 . S
H774 C800 0.950 . S
H775 C802 0.950 . S
H776 C805 0.950 . S
H777 C806 0.950 . S
H778 C808 0.950 . S
H779 C809 0.950 . S
C780 H762 0.951 . S
C780 C781 1.366 . S
C780 C782 1.388 . S
C781 C780 1.366 . S
C781 C785 1.385 . S
C782 H763 0.951 . S
C782 C780 1.388 . S
C782 C783 1.366 . S
C783 C782 1.366 . S
C783 C784 1.414 . S
C783 C786 1.499 . S
C784 H764 0.950 . S
C784 C783 1.414 . S
C784 C785 1.374 . S
C785 H765 0.950 . S
C785 C781 1.385 . S
C785 C784 1.374 . S
C786 C783 1.499 . S
C786 C787 1.373 . S
C786 C788 1.389 . S
C787 H766 0.950 . S
C787 C786 1.373 . S
C787 C803 1.377 . S
C788 C786 1.389 . S
C788 C789 1.524 . S
C788 C802 1.377 . S
C789 C788 1.524 . S
C789 C790 1.397 . S
C789 C794 1.363 . S
C790 H767 0.950 . S
C790 C789 1.397 . S
C790 C791 1.334 . S
C791 H768 0.950 . S
C791 C790 1.334 . S
C791 C792 1.287 . S
C792 C791 1.287 . S
C792 C793 1.524 . S
C792 H811 0.913 . S
C793 H769 0.950 . S
C793 C792 1.524 . S
C793 C794 1.415 . S
C794 H770 0.950 . S
C794 C789 1.363 . S
C794 C793 1.415 . S
C795 H771 0.951 . S
C795 C796 1.366 . S
C795 C797 1.388 . S
C796 C795 1.366 . S
C796 C800 1.385 . S
C797 H772 0.951 . S
C797 C795 1.388 . S
C797 C798 1.366 . S
C798 C797 1.366 . S
C798 C799 1.414 . S
C798 C801 1.499 . S
C799 H773 0.950 . S
C799 C798 1.414 . S
C799 C800 1.374 . S
C800 H774 0.950 . S
C800 C796 1.385 . S
C800 C799 1.374 . S
C801 C798 1.499 . S
C801 C802 1.373 . S
C801 C803 1.389 . S
C802 H775 0.950 . S
C802 C788 1.377 . S
C802 C801 1.373 . S
C803 C787 1.377 . S
C803 C801 1.389 . S
C803 C804 1.524 . S
C804 C803 1.524 . S
C804 C805 1.397 . S
C804 C809 1.363 . S
C805 H776 0.950 . S
C805 C804 1.397 . S
C805 C806 1.334 . S
C806 H777 0.950 . S
C806 C805 1.334 . S
C806 C807 1.287 . S
C807 C806 1.287 . S
C807 C808 1.524 . S
C807 H810 0.999 . S
C808 H778 0.950 . S
C808 C807 1.524 . S
C808 C809 1.415 . S
C809 H779 0.950 . S
C809 C804 1.363 . S
C809 C808 1.415 . S
H810 C807 0.999 . S
H811 C792 0.913 . S
H812 C830 0.951 . S
H813 C832 0.951 . S
H814 C834 0.950 . S
H815 C835 0.950 . S
H816 C837 0.950 . S
H817 C840 0.950 . S
H818 C841 0.950 . S
H819 C843 0.950 . S
H820 C844 0.950 . S
H821 C845 0.951 . S
H822 C847 0.951 . S
H823 C849 0.950 . S
H824 C850 0.950 . S
H825 C852 0.950 . S
H826 C855 0.950 . S
H827 C856 0.950 . S
H828 C858 0.950 . S
H829 C859 0.950 . S
C830 H812 0.951 . S
C830 C831 1.366 . S
C830 C832 1.388 . S
C831 C830 1.366 . S
C831 C835 1.385 . S
C832 H813 0.951 . S
C832 C830 1.388 . S
C832 C833 1.366 . S
C833 C832 1.366 . S
C833 C834 1.414 . S
C833 C836 1.499 . S
C834 H814 0.950 . S
C834 C833 1.414 . S
C834 C835 1.374 . S
C835 H815 0.950 . S
C835 C831 1.385 . S
C835 C834 1.374 . S
C836 C833 1.499 . S
C836 C837 1.373 . S
C836 C838 1.389 . S
C837 H816 0.950 . S
C837 C836 1.373 . S
C837 C853 1.377 1_545 S
C838 C836 1.389 . S
C838 C839 1.524 . S
C838 C852 1.377 1_545 S
C839 C838 1.524 . S
C839 C840 1.397 . S
C839 C844 1.363 . S
C840 H817 0.950 . S
C840 C839 1.397 . S
C840 C841 1.334 . S
C841 H818 0.950 . S
C841 C840 1.334 . S
C841 C842 1.287 . S
C842 C841 1.287 . S
C842 C843 1.524 . S
C842 H861 0.913 1_655 S
C843 H819 0.950 . S
C843 C842 1.524 . S
C843 C844 1.415 . S
C844 H820 0.950 . S
C844 C839 1.363 . S
C844 C843 1.415 . S
C845 H821 0.951 . S
C845 C846 1.366 . S
C845 C847 1.388 . S
C846 C845 1.366 . S
C846 C850 1.385 . S
C847 H822 0.951 . S
C847 C845 1.388 . S
C847 C848 1.366 . S
C848 C847 1.366 . S
C848 C849 1.414 . S
C848 C851 1.499 . S
C849 H823 0.950 . S
C849 C848 1.414 . S
C849 C850 1.374 . S
C850 H824 0.950 . S
C850 C846 1.385 . S
C850 C849 1.374 . S
C851 C848 1.499 . S
C851 C852 1.373 . S
C851 C853 1.389 . S
C852 H825 0.950 . S
C852 C838 1.377 1_565 S
C852 C851 1.373 . S
C853 C837 1.377 1_565 S
C853 C851 1.389 . S
C853 C854 1.524 . S
C854 C853 1.524 . S
C854 C855 1.397 . S
C854 C859 1.363 . S
C855 H826 0.950 . S
C855 C854 1.397 . S
C855 C856 1.334 . S
C856 H827 0.950 . S
C856 C855 1.334 . S
C856 C857 1.287 . S
C857 C856 1.287 . S
C857 C858 1.524 . S
C857 H860 0.999 . S
C858 H828 0.950 . S
C858 C857 1.524 . S
C858 C859 1.415 . S
C859 H829 0.950 . S
C859 C854 1.363 . S
C859 C858 1.415 . S
H860 C857 0.999 . S
H861 C842 0.913 1_455 S
H862 C880 0.951 . S
H863 C882 0.951 . S
H864 C884 0.950 . S
H865 C885 0.950 . S
H866 C887 0.950 . S
H867 C890 0.950 . S
H868 C891 0.950 . S
H869 C893 0.950 . S
H870 C894 0.950 . S
H871 C895 0.951 . S
H872 C897 0.951 . S
H873 C899 0.950 . S
H874 C900 0.950 . S
H875 C902 0.950 1_655 S
H876 C905 0.950 . S
H877 C906 0.950 . S
H878 C908 0.950 . S
H879 C909 0.947 1_455 S
C880 H862 0.951 . S
C880 C881 1.366 . S
C880 C882 1.388 . S
C881 C880 1.366 . S
C881 C885 1.385 . S
C882 H863 0.951 . S
C882 C880 1.388 . S
C882 C883 1.366 . S
C883 C882 1.366 . S
C883 C884 1.414 . S
C883 C886 1.499 . S
C884 H864 0.950 . S
C884 C883 1.414 . S
C884 C885 1.374 . S
C885 H865 0.950 . S
C885 C881 1.385 . S
C885 C884 1.374 . S
C886 C883 1.499 . S
C886 C887 1.373 . S
C886 C888 1.389 . S
C887 H866 0.950 . S
C887 C886 1.373 . S
C887 C903 1.377 . S
C888 C886 1.389 . S
C888 C889 1.524 . S
C888 C902 1.377 . S
C889 C888 1.524 . S
C889 C890 1.397 . S
C889 C894 1.363 . S
C890 H867 0.950 . S
C890 C889 1.397 . S
C890 C891 1.334 . S
C891 H868 0.950 . S
C891 C890 1.334 . S
C891 C892 1.287 . S
C892 C891 1.287 . S
C892 C893 1.524 . S
C892 H911 0.913 . S
C893 H869 0.950 . S
C893 C892 1.524 . S
C893 C894 1.415 . S
C894 H870 0.950 . S
C894 C889 1.363 . S
C894 C893 1.415 . S
C895 H871 0.951 . S
C895 C896 1.366 . S
C895 C897 1.388 . S
C896 C895 1.366 . S
C896 C900 1.385 . S
C897 H872 0.951 . S
C897 C895 1.388 . S
C897 C898 1.366 . S
C898 C897 1.366 . S
C898 C899 1.414 . S
C898 C901 1.499 . S
C899 H873 0.950 . S
C899 C898 1.414 . S
C899 C900 1.374 . S
C900 H874 0.950 . S
C900 C896 1.385 . S
C900 C899 1.374 . S
C901 C898 1.499 . S
C901 C902 1.373 1_655 S
C901 C903 1.389 1_655 S
C902 H875 0.950 1_455 S
C902 C888 1.377 . S
C902 C901 1.373 1_455 S
C903 C887 1.377 . S
C903 C901 1.389 1_455 S
C903 C904 1.524 1_455 S
C904 C903 1.524 1_655 S
C904 C905 1.397 . S
C904 C909 1.365 . S
C905 H876 0.950 . S
C905 C904 1.397 . S
C905 C906 1.334 . S
C906 H877 0.950 . S
C906 C905 1.334 . S
C906 C907 1.287 . S
C907 C906 1.287 . S
C907 C908 1.524 . S
C907 H910 0.999 . S
C908 H878 0.950 . S
C908 C907 1.524 . S
C908 C909 1.415 . S
C909 H879 0.947 1_655 S
C909 C904 1.365 . S
C909 C908 1.415 . S
H910 C907 0.999 . S
H911 C892 0.913 . S
H912 C930 0.951 . S
H913 C932 0.951 . S
H914 C934 0.950 . S
H915 C935 0.950 . S
H916 C937 0.950 . S
H917 C940 0.950 . S
H918 C941 0.950 . S
H919 C943 0.950 . S
H920 C944 0.950 . S
H921 C945 0.951 . S
H922 C947 0.951 . S
H923 C949 0.950 . S
H924 C950 0.950 . S
H925 C952 0.950 . S
H926 C955 0.950 . S
H927 C956 0.950 . S
H928 C958 0.950 . S
H929 C959 0.950 . S
C930 H912 0.951 . S
C930 C931 1.366 . S
C930 C932 1.388 . S
C931 C930 1.366 . S
C931 C935 1.385 . S
C932 H913 0.951 . S
C932 C930 1.388 . S
C932 C933 1.366 . S
C933 C932 1.366 . S
C933 C934 1.414 . S
C933 C936 1.499 . S
C934 H914 0.950 . S
C934 C933 1.414 . S
C934 C935 1.374 . S
C935 H915 0.950 . S
C935 C931 1.385 . S
C935 C934 1.374 . S
C936 C933 1.499 . S
C936 C937 1.373 . S
C936 C938 1.389 . S
C937 H916 0.950 . S
C937 C936 1.373 . S
C937 C953 1.377 . S
C938 C936 1.389 . S
C938 C939 1.524 . S
C938 C952 1.377 . S
C939 C938 1.524 . S
C939 C940 1.397 . S
C939 C944 1.363 . S
C940 H917 0.950 . S
C940 C939 1.397 . S
C940 C941 1.334 . S
C941 H918 0.950 . S
C941 C940 1.334 . S
C941 C942 1.287 . S
C942 C941 1.287 . S
C942 C943 1.524 . S
C942 H961 0.913 . S
C943 H919 0.950 . S
C943 C942 1.524 . S
C943 C944 1.415 . S
C944 H920 0.950 . S
C944 C939 1.363 . S
C944 C943 1.415 . S
C945 H921 0.951 . S
C945 C946 1.366 . S
C945 C947 1.388 . S
C946 C945 1.366 . S
C946 C950 1.385 . S
C947 H922 0.951 . S
C947 C945 1.388 . S
C947 C948 1.366 . S
C948 C947 1.366 . S
C948 C949 1.414 . S
C948 C951 1.499 . S
C949 H923 0.950 . S
C949 C948 1.414 . S
C949 C950 1.374 . S
C950 H924 0.950 . S
C950 C946 1.385 . S
C950 C949 1.374 . S
C951 C948 1.499 . S
C951 C952 1.373 . S
C951 C953 1.389 . S
C952 H925 0.950 . S
C952 C938 1.377 . S
C952 C951 1.373 . S
C953 C937 1.377 . S
C953 C951 1.389 . S
C953 C954 1.524 . S
C954 C953 1.524 . S
C954 C955 1.397 . S
C954 C959 1.363 . S
C955 H926 0.950 . S
C955 C954 1.397 . S
C955 C956 1.334 . S
C956 H927 0.950 . S
C956 C955 1.334 . S
C956 C957 1.287 . S
C957 C956 1.287 . S
C957 C958 1.524 . S
C957 H960 0.999 . S
C958 H928 0.950 . S
C958 C957 1.524 . S
C958 C959 1.415 . S
C959 H929 0.950 . S
C959 C954 1.363 . S
C959 C958 1.415 . S
H960 C957 0.999 . S
H961 C942 0.913 . S
H962 C980 0.951 . S
H963 C982 0.951 . S
H964 C984 0.950 . S
H965 C985 0.950 . S
H966 C987 0.950 . S
H967 C990 0.950 . S
H968 C991 0.950 . S
H969 C993 0.950 . S
H970 C994 0.950 . S
H971 C995 0.951 . S
H972 C997 0.951 . S
H973 C999 0.950 . S
H974 C1000 0.950 . S
H975 C1002 0.950 . S
H976 C1005 0.950 . S
H977 C1006 0.950 . S
H978 C1008 0.950 . S
H979 C1009 0.950 . S
C980 H962 0.951 . S
C980 C981 1.366 . S
C980 C982 1.388 . S
C981 C980 1.366 . S
C981 C985 1.385 . S
C982 H963 0.951 . S
C982 C980 1.388 . S
C982 C983 1.366 . S
C983 C982 1.366 . S
C983 C984 1.414 . S
C983 C986 1.499 . S
C984 H964 0.950 . S
C984 C983 1.414 . S
C984 C985 1.374 . S
C985 H965 0.950 . S
C985 C981 1.385 . S
C985 C984 1.374 . S
C986 C983 1.499 . S
C986 C987 1.373 . S
C986 C988 1.389 . S
C987 H966 0.950 . S
C987 C986 1.373 . S
C987 C1003 1.377 . S
C988 C986 1.389 . S
C988 C989 1.524 . S
C988 C1002 1.377 . S
C989 C988 1.524 . S
C989 C990 1.397 . S
C989 C994 1.363 . S
C990 H967 0.950 . S
C990 C989 1.397 . S
C990 C991 1.334 . S
C991 H968 0.950 . S
C991 C990 1.334 . S
C991 C992 1.287 . S
C992 C991 1.287 . S
C992 C993 1.524 . S
C992 H1011 0.913 . S
C993 H969 0.950 . S
C993 C992 1.524 . S
C993 C994 1.415 . S
C994 H970 0.950 . S
C994 C989 1.363 . S
C994 C993 1.415 . S
C995 H971 0.951 . S
C995 C996 1.366 . S
C995 C997 1.388 . S
C996 C995 1.366 . S
C996 C1000 1.385 . S
C997 H972 0.951 . S
C997 C995 1.388 . S
C997 C998 1.366 . S
C998 C997 1.366 . S
C998 C999 1.414 . S
C998 C1001 1.499 . S
C999 H973 0.950 . S
C999 C998 1.414 . S
C999 C1000 1.374 . S
C1000 H974 0.950 . S
C1000 C996 1.385 . S
C1000 C999 1.374 . S
C1001 C998 1.499 . S
C1001 C1002 1.373 . S
C1001 C1003 1.389 . S
C1002 H975 0.950 . S
C1002 C988 1.377 . S
C1002 C1001 1.373 . S
C1003 C987 1.377 . S
C1003 C1001 1.389 . S
C1003 C1004 1.524 . S
C1004 C1003 1.524 . S
C1004 C1005 1.397 . S
C1004 C1009 1.363 . S
C1005 H976 0.950 . S
C1005 C1004 1.397 . S
C1005 C1006 1.334 . S
C1006 H977 0.950 . S
C1006 C1005 1.334 . S
C1006 C1007 1.287 . S
C1007 C1006 1.287 . S
C1007 C1008 1.524 . S
C1007 H1010 0.999 . S
C1008 H978 0.950 . S
C1008 C1007 1.524 . S
C1008 C1009 1.415 . S
C1009 H979 0.950 . S
C1009 C1004 1.363 . S
C1009 C1008 1.415 . S
H1010 C1007 0.999 . S
H1011 C992 0.913 . S
H1012 C1030 0.951 . S
H1013 C1032 0.951 . S
H1014 C1034 0.950 . S
H1015 C1035 0.950 . S
H1016 C1037 0.950 . S
H1017 C1040 0.950 . S
H1018 C1041 0.950 . S
H1019 C1043 0.950 . S
H1020 C1044 0.950 . S
H1021 C1045 0.951 . S
H1022 C1047 0.951 . S
H1023 C1049 0.950 . S
H1024 C1050 0.950 . S
H1025 C1052 0.950 . S
H1026 C1055 0.950 . S
H1027 C1056 0.950 . S
H1028 C1058 0.950 . S
H1029 C1059 0.950 . S
C1030 H1012 0.951 . S
C1030 C1031 1.366 . S
C1030 C1032 1.388 . S
C1031 C1030 1.366 . S
C1031 C1035 1.385 . S
C1032 H1013 0.951 . S
C1032 C1030 1.388 . S
C1032 C1033 1.366 . S
C1033 C1032 1.366 . S
C1033 C1034 1.414 . S
C1033 C1036 1.499 . S
C1034 H1014 0.950 . S
C1034 C1033 1.414 . S
C1034 C1035 1.374 . S
C1035 H1015 0.950 . S
C1035 C1031 1.385 . S
C1035 C1034 1.374 . S
C1036 C1033 1.499 . S
C1036 C1037 1.373 . S
C1036 C1038 1.389 . S
C1037 H1016 0.950 . S
C1037 C1036 1.373 . S
C1037 C1053 1.377 . S
C1038 C1036 1.389 . S
C1038 C1039 1.524 . S
C1038 C1052 1.377 . S
C1039 C1038 1.524 . S
C1039 C1040 1.397 . S
C1039 C1044 1.363 . S
C1040 H1017 0.950 . S
C1040 C1039 1.397 . S
C1040 C1041 1.334 . S
C1041 H1018 0.950 . S
C1041 C1040 1.334 . S
C1041 C1042 1.287 . S
C1042 C1041 1.287 . S
C1042 C1043 1.524 . S
C1042 H1061 0.913 . S
C1043 H1019 0.950 . S
C1043 C1042 1.524 . S
C1043 C1044 1.415 . S
C1044 H1020 0.950 . S
C1044 C1039 1.363 . S
C1044 C1043 1.415 . S
C1045 H1021 0.951 . S
C1045 C1046 1.366 . S
C1045 C1047 1.388 . S
C1046 C1045 1.366 . S
C1046 C1050 1.385 . S
C1047 H1022 0.951 . S
C1047 C1045 1.388 . S
C1047 C1048 1.366 . S
C1048 C1047 1.366 . S
C1048 C1049 1.414 . S
C1048 C1051 1.499 . S
C1049 H1023 0.950 . S
C1049 C1048 1.414 . S
C1049 C1050 1.374 . S
C1050 H1024 0.950 . S
C1050 C1046 1.385 . S
C1050 C1049 1.374 . S
C1051 C1048 1.499 . S
C1051 C1052 1.373 . S
C1051 C1053 1.389 . S
C1052 H1025 0.950 . S
C1052 C1038 1.377 . S
C1052 C1051 1.373 . S
C1053 C1037 1.377 . S
C1053 C1051 1.389 . S
C1053 C1054 1.524 . S
C1054 C1053 1.524 . S
C1054 C1055 1.397 . S
C1054 C1059 1.363 . S
C1055 H1026 0.950 . S
C1055 C1054 1.397 . S
C1055 C1056 1.334 . S
C1056 H1027 0.950 . S
C1056 C1055 1.334 . S
C1056 C1057 1.287 . S
C1057 C1056 1.287 . S
C1057 C1058 1.524 . S
C1057 H1060 0.999 . S
C1058 H1028 0.950 . S
C1058 C1057 1.524 . S
C1058 C1059 1.415 . S
C1059 H1029 0.950 . S
C1059 C1054 1.363 . S
C1059 C1058 1.415 . S
H1060 C1057 0.999 . S
H1061 C1042 0.913 . S
H1062 C1080 0.951 . S
H1063 C1082 0.951 . S
H1064 C1084 0.950 . S
H1065 C1085 0.950 . S
H1066 C1087 0.950 . S
H1067 C1090 0.950 . S
H1068 C1091 0.950 . S
H1069 C1093 0.950 . S
H1070 C1094 0.950 . S
H1071 C1095 0.951 . S
H1072 C1097 0.951 . S
H1073 C1099 0.950 . S
H1074 C1100 0.950 . S
H1075 C1102 0.950 . S
H1076 C1105 0.950 1_554 S
H1077 C1106 0.950 . S
H1078 C1108 0.950 . S
H1079 C1109 0.950 1_554 S
C1080 H1062 0.951 . S
C1080 C1081 1.366 . S
C1080 C1082 1.388 . S
C1081 C1080 1.366 . S
C1081 C1085 1.385 . S
C1082 H1063 0.951 . S
C1082 C1080 1.388 . S
C1082 C1083 1.366 . S
C1083 C1082 1.366 . S
C1083 C1084 1.414 . S
C1083 C1086 1.499 . S
C1084 H1064 0.950 . S
C1084 C1083 1.414 . S
C1084 C1085 1.374 . S
C1085 H1065 0.950 . S
C1085 C1081 1.385 . S
C1085 C1084 1.374 . S
C1086 C1083 1.499 . S
C1086 C1087 1.373 . S
C1086 C1088 1.389 . S
C1087 H1066 0.950 . S
C1087 C1086 1.373 . S
C1087 C1103 1.377 . S
C1088 C1086 1.389 . S
C1088 C1089 1.524 . S
C1088 C1102 1.377 . S
C1089 C1088 1.524 . S
C1089 C1090 1.397 . S
C1089 C1094 1.363 . S
C1090 H1067 0.950 . S
C1090 C1089 1.397 . S
C1090 C1091 1.334 . S
C1091 H1068 0.950 . S
C1091 C1090 1.334 . S
C1091 C1092 1.287 . S
C1092 C1091 1.287 . S
C1092 C1093 1.524 . S
C1092 H1111 0.913 . S
C1093 H1069 0.950 . S
C1093 C1092 1.524 . S
C1093 C1094 1.415 . S
C1094 H1070 0.950 . S
C1094 C1089 1.363 . S
C1094 C1093 1.415 . S
C1095 H1071 0.951 . S
C1095 C1096 1.366 . S
C1095 C1097 1.388 . S
C1096 C1095 1.366 . S
C1096 C1100 1.385 . S
C1097 H1072 0.951 . S
C1097 C1095 1.388 . S
C1097 C1098 1.366 . S
C1098 C1097 1.366 . S
C1098 C1099 1.414 . S
C1098 C1101 1.499 . S
C1099 H1073 0.950 . S
C1099 C1098 1.414 . S
C1099 C1100 1.374 . S
C1100 H1074 0.950 . S
C1100 C1096 1.385 . S
C1100 C1099 1.374 . S
C1101 C1098 1.499 . S
C1101 C1102 1.373 . S
C1101 C1103 1.389 . S
C1102 H1075 0.950 . S
C1102 C1088 1.377 . S
C1102 C1101 1.373 . S
C1103 C1087 1.377 . S
C1103 C1101 1.389 . S
C1103 C1104 1.524 . S
C1104 C1103 1.524 . S
C1104 C1105 1.397 1_554 S
C1104 C1109 1.363 1_554 S
C1105 H1076 0.950 1_556 S
C1105 C1104 1.397 1_556 S
C1105 C1106 1.334 . S
C1106 H1077 0.950 . S
C1106 C1105 1.334 . S
C1106 C1107 1.287 . S
C1107 C1106 1.287 . S
C1107 C1108 1.524 . S
C1107 H1110 0.999 . S
C1108 H1078 0.950 . S
C1108 C1107 1.524 . S
C1108 C1109 1.415 . S
C1109 H1079 0.950 1_556 S
C1109 C1104 1.363 1_556 S
C1109 C1108 1.415 . S
H1110 C1107 0.999 . S
H1111 C1092 0.913 . S
H1112 C1130 0.951 . S
H1113 C1132 0.951 . S
H1114 C1134 0.950 . S
H1115 C1135 0.950 . S
H1116 C1137 0.950 . S
H1117 C1140 0.950 . S
H1118 C1141 0.950 . S
H1119 C1143 0.950 . S
H1120 C1144 0.950 1_556 S
H1121 C1145 0.951 . S
H1122 C1147 0.951 . S
H1123 C1149 0.950 . S
H1124 C1150 0.950 . S
H1125 C1152 0.950 . S
H1126 C1155 0.950 . S
H1127 C1156 0.950 . S
H1128 C1158 0.950 . S
H1129 C1159 0.950 . S
C1130 H1112 0.951 . S
C1130 C1131 1.366 . S
C1130 C1132 1.388 . S
C1131 C1130 1.366 . S
C1131 C1135 1.385 . S
C1132 H1113 0.951 . S
C1132 C1130 1.388 . S
C1132 C1133 1.366 . S
C1133 C1132 1.366 . S
C1133 C1134 1.414 . S
C1133 C1136 1.499 . S
C1134 H1114 0.950 . S
C1134 C1133 1.414 . S
C1134 C1135 1.374 . S
C1135 H1115 0.950 . S
C1135 C1131 1.385 . S
C1135 C1134 1.374 . S
C1136 C1133 1.499 . S
C1136 C1137 1.373 . S
C1136 C1138 1.389 . S
C1137 H1116 0.950 . S
C1137 C1136 1.373 . S
C1137 C1153 1.377 . S
C1138 C1136 1.389 . S
C1138 C1139 1.524 . S
C1138 C1152 1.377 . S
C1139 C1138 1.524 . S
C1139 C1140 1.397 . S
C1139 C1144 1.363 . S
C1140 H1117 0.950 . S
C1140 C1139 1.397 . S
C1140 C1141 1.334 . S
C1141 H1118 0.950 . S
C1141 C1140 1.334 . S
C1141 C1142 1.287 . S
C1142 C1141 1.287 . S
C1142 C1143 1.524 1_554 S
C1142 H1161 0.913 . S
C1143 H1119 0.950 . S
C1143 C1142 1.524 1_556 S
C1143 C1144 1.415 1_556 S
C1144 H1120 0.950 1_554 S
C1144 C1139 1.363 . S
C1144 C1143 1.415 1_554 S
C1145 H1121 0.951 . S
C1145 C1146 1.366 . S
C1145 C1147 1.388 . S
C1146 C1145 1.366 . S
C1146 C1150 1.385 . S
C1147 H1122 0.951 . S
C1147 C1145 1.388 . S
C1147 C1148 1.366 . S
C1148 C1147 1.366 . S
C1148 C1149 1.414 . S
C1148 C1151 1.499 . S
C1149 H1123 0.950 . S
C1149 C1148 1.414 . S
C1149 C1150 1.374 . S
C1150 H1124 0.950 . S
C1150 C1146 1.385 . S
C1150 C1149 1.374 . S
C1151 C1148 1.499 . S
C1151 C1152 1.373 . S
C1151 C1153 1.389 . S
C1152 H1125 0.950 . S
C1152 C1138 1.377 . S
C1152 C1151 1.373 . S
C1153 C1137 1.377 . S
C1153 C1151 1.389 . S
C1153 C1154 1.524 . S
C1154 C1153 1.524 . S
C1154 C1155 1.397 . S
C1154 C1159 1.363 . S
C1155 H1126 0.950 . S
C1155 C1154 1.397 . S
C1155 C1156 1.334 . S
C1156 H1127 0.950 . S
C1156 C1155 1.334 . S
C1156 C1157 1.287 . S
C1157 C1156 1.287 . S
C1157 C1158 1.524 . S
C1157 H1160 0.999 . S
C1158 H1128 0.950 . S
C1158 C1157 1.524 . S
C1158 C1159 1.415 . S
C1159 H1129 0.950 . S
C1159 C1154 1.363 . S
C1159 C1158 1.415 . S
H1160 C1157 0.999 . S
H1161 C1142 0.913 . S
H1162 C1180 0.951 . S
H1163 C1182 0.951 . S
H1164 C1184 0.950 . S
H1165 C1185 0.950 . S
H1166 C1187 0.950 . S
H1167 C1190 0.950 . S
H1168 C1191 0.950 . S
H1169 C1193 0.950 . S
H1170 C1194 0.950 . S
H1171 C1195 0.951 . S
H1172 C1197 0.951 . S
H1173 C1199 0.950 . S
H1174 C1200 0.950 . S
H1175 C1202 0.950 . S
H1176 C1205 0.950 . S
H1177 C1206 0.950 . S
H1178 C1208 0.950 . S
H1179 C1209 0.950 . S
C1180 H1162 0.951 . S
C1180 C1181 1.366 . S
C1180 C1182 1.388 . S
C1181 C1180 1.366 . S
C1181 C1185 1.385 . S
C1182 H1163 0.951 . S
C1182 C1180 1.388 . S
C1182 C1183 1.366 . S
C1183 C1182 1.366 . S
C1183 C1184 1.414 . S
C1183 C1186 1.499 . S
C1184 H1164 0.950 . S
C1184 C1183 1.414 . S
C1184 C1185 1.374 . S
C1185 H1165 0.950 . S
C1185 C1181 1.385 . S
C1185 C1184 1.374 . S
C1186 C1183 1.499 . S
C1186 C1187 1.373 . S
C1186 C1188 1.389 . S
C1187 H1166 0.950 . S
C1187 C1186 1.373 . S
C1187 C1203 1.377 . S
C1188 C1186 1.389 . S
C1188 C1189 1.524 . S
C1188 C1202 1.377 . S
C1189 C1188 1.524 . S
C1189 C1190 1.397 . S
C1189 C1194 1.363 1_554 S
C1190 H1167 0.950 . S
C1190 C1189 1.397 . S
C1190 C1191 1.334 1_554 S
C1191 H1168 0.950 . S
C1191 C1190 1.334 1_556 S
C1191 C1192 1.287 . S
C1192 C1191 1.287 . S
C1192 C1193 1.524 . S
C1192 H1211 0.913 . S
C1193 H1169 0.950 . S
C1193 C1192 1.524 . S
C1193 C1194 1.415 . S
C1194 H1170 0.950 . S
C1194 C1189 1.363 1_556 S
C1194 C1193 1.415 . S
C1195 H1171 0.951 . S
C1195 C1196 1.366 . S
C1195 C1197 1.388 . S
C1196 C1195 1.366 . S
C1196 C1200 1.385 . S
C1197 H1172 0.951 . S
C1197 C1195 1.388 . S
C1197 C1198 1.366 . S
C1198 C1197 1.366 . S
C1198 C1199 1.414 . S
C1198 C1201 1.499 . S
C1199 H1173 0.950 . S
C1199 C1198 1.414 . S
C1199 C1200 1.374 . S
C1200 H1174 0.950 . S
C1200 C1196 1.385 . S
C1200 C1199 1.374 . S
C1201 C1198 1.499 . S
C1201 C1202 1.373 . S
C1201 C1203 1.389 . S
C1202 H1175 0.950 . S
C1202 C1188 1.377 . S
C1202 C1201 1.373 . S
C1203 C1187 1.377 . S
C1203 C1201 1.389 . S
C1203 C1204 1.524 . S
C1204 C1203 1.524 . S
C1204 C1205 1.397 . S
C1204 C1209 1.363 . S
C1205 H1176 0.950 . S
C1205 C1204 1.397 . S
C1205 C1206 1.334 . S
C1206 H1177 0.950 . S
C1206 C1205 1.334 . S
C1206 C1207 1.287 . S
C1207 C1206 1.287 . S
C1207 C1208 1.524 . S
C1207 H1210 0.999 . S
C1208 H1178 0.950 . S
C1208 C1207 1.524 . S
C1208 C1209 1.415 . S
C1209 H1179 0.950 . S
C1209 C1204 1.363 . S
C1209 C1208 1.415 . S
H1210 C1207 0.999 . S
H1211 C1192 0.913 . S
H1212 C1230 0.951 . S
H1213 C1232 0.951 . S
H1214 C1234 0.950 . S
H1215 C1235 0.950 . S
H1216 C1237 0.950 . S
H1217 C1240 0.950 . S
H1218 C1241 0.950 . S
H1219 C1243 0.950 . S
H1220 C1244 0.950 . S
H1221 C1245 0.951 . S
H1222 C1247 0.951 . S
H1223 C1249 0.950 . S
H1224 C1250 0.950 . S
H1225 C1252 0.950 . S
H1226 C1255 0.950 . S
H1227 C1256 0.950 . S
H1228 C1258 0.950 . S
H1229 C1259 0.950 . S
C1230 H1212 0.951 . S
C1230 C1231 1.366 . S
C1230 C1232 1.388 . S
C1231 C1230 1.366 . S
C1231 C1235 1.385 . S
C1232 H1213 0.951 . S
C1232 C1230 1.388 . S
C1232 C1233 1.366 . S
C1233 C1232 1.366 . S
C1233 C1234 1.414 . S
C1233 C1236 1.499 . S
C1234 H1214 0.950 . S
C1234 C1233 1.414 . S
C1234 C1235 1.374 . S
C1235 H1215 0.950 . S
C1235 C1231 1.385 . S
C1235 C1234 1.374 . S
C1236 C1233 1.499 . S
C1236 C1237 1.373 . S
C1236 C1238 1.389 . S
C1237 H1216 0.950 . S
C1237 C1236 1.373 . S
C1237 C1253 1.377 . S
C1238 C1236 1.389 . S
C1238 C1239 1.524 . S
C1238 C1252 1.377 . S
C1239 C1238 1.524 . S
C1239 C1240 1.397 . S
C1239 C1244 1.363 . S
C1240 H1217 0.950 . S
C1240 C1239 1.397 . S
C1240 C1241 1.334 1_556 S
C1241 H1218 0.950 . S
C1241 C1240 1.334 1_554 S
C1241 C1242 1.287 . S
C1242 C1241 1.287 . S
C1242 C1243 1.524 . S
C1242 H1261 0.913 . S
C1243 H1219 0.950 . S
C1243 C1242 1.524 . S
C1243 C1244 1.415 1_554 S
C1244 H1220 0.950 . S
C1244 C1239 1.363 . S
C1244 C1243 1.415 1_556 S
C1245 H1221 0.951 . S
C1245 C1246 1.366 . S
C1245 C1247 1.388 . S
C1246 C1245 1.366 . S
C1246 C1250 1.385 . S
C1247 H1222 0.951 . S
C1247 C1245 1.388 . S
C1247 C1248 1.366 . S
C1248 C1247 1.366 . S
C1248 C1249 1.414 . S
C1248 C1251 1.499 . S
C1249 H1223 0.950 . S
C1249 C1248 1.414 . S
C1249 C1250 1.374 . S
C1250 H1224 0.950 . S
C1250 C1246 1.385 . S
C1250 C1249 1.374 . S
C1251 C1248 1.499 . S
C1251 C1252 1.373 . S
C1251 C1253 1.389 . S
C1252 H1225 0.950 . S
C1252 C1238 1.377 . S
C1252 C1251 1.373 . S
C1253 C1237 1.377 . S
C1253 C1251 1.389 . S
C1253 C1254 1.524 . S
C1254 C1253 1.524 . S
C1254 C1255 1.397 . S
C1254 C1259 1.363 . S
C1255 H1226 0.950 . S
C1255 C1254 1.397 . S
C1255 C1256 1.334 . S
C1256 H1227 0.950 . S
C1256 C1255 1.334 . S
C1256 C1257 1.287 . S
C1257 C1256 1.287 . S
C1257 C1258 1.524 . S
C1257 H1260 0.999 . S
C1258 H1228 0.950 . S
C1258 C1257 1.524 . S
C1258 C1259 1.415 . S
C1259 H1229 0.950 . S
C1259 C1254 1.363 . S
C1259 C1258 1.415 . S
H1260 C1257 0.999 . S
H1261 C1242 0.913 . S
H1262 C1280 0.951 . S
H1263 C1282 0.951 . S
H1264 C1284 0.950 . S
H1265 C1285 0.950 . S
H1266 C1287 0.950 . S
H1267 C1290 0.950 . S
H1268 C1291 0.950 . S
H1269 C1293 0.950 . S
H1270 C1294 0.950 . S
H1271 C1295 0.951 . S
H1272 C1297 0.951 . S
H1273 C1299 0.950 . S
H1274 C1300 0.950 . S
H1275 C1302 0.950 . S
H1276 C1305 0.950 . S
H1277 C1306 0.945 1_556 S
H1278 C1308 0.950 . S
H1279 C1309 0.950 . S
C1280 H1262 0.951 . S
C1280 C1281 1.366 . S
C1280 C1282 1.388 . S
C1281 C1280 1.366 . S
C1281 C1285 1.385 . S
C1282 H1263 0.951 . S
C1282 C1280 1.388 . S
C1282 C1283 1.366 . S
C1283 C1282 1.366 . S
C1283 C1284 1.414 . S
C1283 C1286 1.499 . S
C1284 H1264 0.950 . S
C1284 C1283 1.414 . S
C1284 C1285 1.374 . S
C1285 H1265 0.950 . S
C1285 C1281 1.385 . S
C1285 C1284 1.374 . S
C1286 C1283 1.499 . S
C1286 C1287 1.373 . S
C1286 C1288 1.389 . S
C1287 H1266 0.950 . S
C1287 C1286 1.373 . S
C1287 C1303 1.377 . S
C1288 C1286 1.389 . S
C1288 C1289 1.524 . S
C1288 C1302 1.377 . S
C1289 C1288 1.524 . S
C1289 C1290 1.397 . S
C1289 C1294 1.363 . S
C1290 H1267 0.950 . S
C1290 C1289 1.397 . S
C1290 C1291 1.334 . S
C1291 H1268 0.950 . S
C1291 C1290 1.334 . S
C1291 C1292 1.287 . S
C1292 C1291 1.287 . S
C1292 C1293 1.524 . S
C1292 H1311 0.913 . S
C1293 H1269 0.950 . S
C1293 C1292 1.524 . S
C1293 C1294 1.415 . S
C1294 H1270 0.950 . S
C1294 C1289 1.363 . S
C1294 C1293 1.415 . S
C1295 H1271 0.951 . S
C1295 C1296 1.366 . S
C1295 C1297 1.388 . S
C1296 C1295 1.366 . S
C1296 C1300 1.385 . S
C1297 H1272 0.951 . S
C1297 C1295 1.388 . S
C1297 C1298 1.366 . S
C1298 C1297 1.366 . S
C1298 C1299 1.414 . S
C1298 C1301 1.499 . S
C1299 H1273 0.950 . S
C1299 C1298 1.414 . S
C1299 C1300 1.374 . S
C1300 H1274 0.950 . S
C1300 C1296 1.385 . S
C1300 C1299 1.374 . S
C1301 C1298 1.499 . S
C1301 C1302 1.373 . S
C1301 C1303 1.389 . S
C1302 H1275 0.950 . S
C1302 C1288 1.377 . S
C1302 C1301 1.373 . S
C1303 C1287 1.377 . S
C1303 C1301 1.389 . S
C1303 C1304 1.524 . S
C1304 C1303 1.524 . S
C1304 C1305 1.397 . S
C1304 C1309 1.363 1_556 S
C1305 H1276 0.950 . S
C1305 C1304 1.397 . S
C1305 C1306 1.317 1_556 S
C1306 H1277 0.945 1_554 S
C1306 C1305 1.317 1_554 S
C1306 C1307 1.309 . S
C1307 C1306 1.309 . S
C1307 C1308 1.524 . S
C1307 H1310 0.999 . S
C1308 H1278 0.950 . S
C1308 C1307 1.524 . S
C1308 C1309 1.415 . S
C1309 H1279 0.950 . S
C1309 C1304 1.363 1_554 S
C1309 C1308 1.415 . S
H1310 C1307 0.999 . S
H1311 C1292 0.913 . S
H1312 C1330 0.951 . S
H1313 C1332 0.951 . S
H1314 C1334 0.950 . S
H1315 C1335 0.950 . S
H1316 C1337 0.950 . S
H1317 C1340 0.950 . S
H1318 C1341 0.950 . S
H1319 C1343 0.950 . S
H1320 C1344 0.950 . S
H1321 C1345 0.951 . S
H1322 C1347 0.951 . S
H1323 C1349 0.950 . S
H1324 C1350 0.950 . S
H1325 C1352 0.950 . S
H1326 C1355 0.950 . S
H1327 C1356 0.950 . S
H1328 C1358 0.950 . S
H1329 C1359 0.950 . S
C1330 H1312 0.951 . S
C1330 C1331 1.366 . S
C1330 C1332 1.388 . S
C1331 C1330 1.366 . S
C1331 C1335 1.385 . S
C1332 H1313 0.951 . S
C1332 C1330 1.388 . S
C1332 C1333 1.366 . S
C1333 C1332 1.366 . S
C1333 C1334 1.414 . S
C1333 C1336 1.499 . S
C1334 H1314 0.950 . S
C1334 C1333 1.414 . S
C1334 C1335 1.374 . S
C1335 H1315 0.950 . S
C1335 C1331 1.385 . S
C1335 C1334 1.374 . S
C1336 C1333 1.499 . S
C1336 C1337 1.373 . S
C1336 C1338 1.389 . S
C1337 H1316 0.950 . S
C1337 C1336 1.373 . S
C1337 C1353 1.377 . S
C1338 C1336 1.389 . S
C1338 C1339 1.524 . S
C1338 C1352 1.377 . S
C1339 C1338 1.524 . S
C1339 C1340 1.397 . S
C1339 C1344 1.363 . S
C1340 H1317 0.950 . S
C1340 C1339 1.397 . S
C1340 C1341 1.334 . S
C1341 H1318 0.950 . S
C1341 C1340 1.334 . S
C1341 C1342 1.287 . S
C1342 C1341 1.287 . S
C1342 C1343 1.524 . S
C1342 H1361 0.913 . S
C1343 H1319 0.950 . S
C1343 C1342 1.524 . S
C1343 C1344 1.415 . S
C1344 H1320 0.950 . S
C1344 C1339 1.363 . S
C1344 C1343 1.415 . S
C1345 H1321 0.951 . S
C1345 C1346 1.366 . S
C1345 C1347 1.388 . S
C1346 C1345 1.366 . S
C1346 C1350 1.385 . S
C1347 H1322 0.951 . S
C1347 C1345 1.388 . S
C1347 C1348 1.366 . S
C1348 C1347 1.366 . S
C1348 C1349 1.414 . S
C1348 C1351 1.499 . S
C1349 H1323 0.950 . S
C1349 C1348 1.414 . S
C1349 C1350 1.374 . S
C1350 H1324 0.950 . S
C1350 C1346 1.385 . S
C1350 C1349 1.374 . S
C1351 C1348 1.499 . S
C1351 C1352 1.373 . S
C1351 C1353 1.389 . S
C1352 H1325 0.950 . S
C1352 C1338 1.377 . S
C1352 C1351 1.373 . S
C1353 C1337 1.377 . S
C1353 C1351 1.389 . S
C1353 C1354 1.524 . S
C1354 C1353 1.524 . S
C1354 C1355 1.397 . S
C1354 C1359 1.363 1_556 S
C1355 H1326 0.950 . S
C1355 C1354 1.397 . S
C1355 C1356 1.334 . S
C1356 H1327 0.950 . S
C1356 C1355 1.334 . S
C1356 C1357 1.287 1_556 S
C1357 C1356 1.287 1_554 S
C1357 C1358 1.524 . S
C1357 H1360 0.999 . S
C1358 H1328 0.950 . S
C1358 C1357 1.524 . S
C1358 C1359 1.415 . S
C1359 H1329 0.950 . S
C1359 C1354 1.363 1_554 S
C1359 C1358 1.415 . S
H1360 C1357 0.999 . S
H1361 C1342 0.913 . S
H1362 C1380 0.951 . S
H1363 C1382 0.951 . S
H1364 C1384 0.950 . S
H1365 C1385 0.950 . S
H1366 C1387 0.950 . S
H1367 C1390 0.950 . S
H1368 C1391 0.950 . S
H1369 C1393 0.950 . S
H1370 C1394 0.950 . S
H1371 C1395 0.951 . S
H1372 C1397 0.951 . S
H1373 C1399 0.950 . S
H1374 C1400 0.950 . S
H1375 C1402 0.950 . S
H1376 C1405 0.950 . S
H1377 C1406 0.950 . S
H1378 C1408 0.950 . S
H1379 C1409 0.950 . S
C1380 H1362 0.951 . S
C1380 C1381 1.366 . S
C1380 C1382 1.388 . S
C1381 C1380 1.366 . S
C1381 C1385 1.385 . S
C1382 H1363 0.951 . S
C1382 C1380 1.388 . S
C1382 C1383 1.366 . S
C1383 C1382 1.366 . S
C1383 C1384 1.414 . S
C1383 C1386 1.499 . S
C1384 H1364 0.950 . S
C1384 C1383 1.414 . S
C1384 C1385 1.374 . S
C1385 H1365 0.950 . S
C1385 C1381 1.385 . S
C1385 C1384 1.374 . S
C1386 C1383 1.499 . S
C1386 C1387 1.373 . S
C1386 C1388 1.389 . S
C1387 H1366 0.950 . S
C1387 C1386 1.373 . S
C1387 C1403 1.377 . S
C1388 C1386 1.389 . S
C1388 C1389 1.524 . S
C1388 C1402 1.377 . S
C1389 C1388 1.524 . S
C1389 C1390 1.397 . S
C1389 C1394 1.363 . S
C1390 H1367 0.950 . S
C1390 C1389 1.397 . S
C1390 C1391 1.334 . S
C1391 H1368 0.950 . S
C1391 C1390 1.334 . S
C1391 C1392 1.287 . S
C1392 C1391 1.287 . S
C1392 C1393 1.524 . S
C1392 H1411 0.913 . S
C1393 H1369 0.950 . S
C1393 C1392 1.524 . S
C1393 C1394 1.415 . S
C1394 H1370 0.950 . S
C1394 C1389 1.363 . S
C1394 C1393 1.415 . S
C1395 H1371 0.951 . S
C1395 C1396 1.366 . S
C1395 C1397 1.388 . S
C1396 C1395 1.366 . S
C1396 C1400 1.385 . S
C1397 H1372 0.951 . S
C1397 C1395 1.388 . S
C1397 C1398 1.366 . S
C1398 C1397 1.366 . S
C1398 C1399 1.414 . S
C1398 C1401 1.499 . S
C1399 H1373 0.950 . S
C1399 C1398 1.414 . S
C1399 C1400 1.374 . S
C1400 H1374 0.950 . S
C1400 C1396 1.385 . S
C1400 C1399 1.374 . S
C1401 C1398 1.499 . S
C1401 C1402 1.373 . S
C1401 C1403 1.389 . S
C1402 H1375 0.950 . S
C1402 C1388 1.377 . S
C1402 C1401 1.373 . S
C1403 C1387 1.377 . S
C1403 C1401 1.389 . S
C1403 C1404 1.524 . S
C1404 C1403 1.524 . S
C1404 C1405 1.397 . S
C1404 C1409 1.363 . S
C1405 H1376 0.950 . S
C1405 C1404 1.397 . S
C1405 C1406 1.334 . S
C1406 H1377 0.950 . S
C1406 C1405 1.334 . S
C1406 C1407 1.287 . S
C1407 C1406 1.287 . S
C1407 C1408 1.524 . S
C1407 H1410 0.999 . S
C1408 H1378 0.950 . S
C1408 C1407 1.524 . S
C1408 C1409 1.415 . S
C1409 H1379 0.950 . S
C1409 C1404 1.363 . S
C1409 C1408 1.415 . S
H1410 C1407 0.999 . S
H1411 C1392 0.913 . S
H1412 C1430 0.951 . S
H1413 C1432 0.951 . S
H1414 C1434 0.950 . S
H1415 C1435 0.950 . S
H1416 C1437 0.950 . S
H1417 C1440 0.950 . S
H1418 C1441 0.950 . S
H1419 C1443 0.950 . S
H1420 C1444 0.950 . S
H1421 C1445 0.951 . S
H1422 C1447 0.951 . S
H1423 C1449 0.950 . S
H1424 C1450 0.950 . S
H1425 C1452 0.950 . S
H1426 C1455 0.950 . S
H1427 C1456 0.950 . S
H1428 C1458 0.950 . S
H1429 C1459 0.950 . S
C1430 H1412 0.951 . S
C1430 C1431 1.366 . S
C1430 C1432 1.388 . S
C1431 C1430 1.366 . S
C1431 C1435 1.385 . S
C1432 H1413 0.951 . S
C1432 C1430 1.388 . S
C1432 C1433 1.366 . S
C1433 C1432 1.366 . S
C1433 C1434 1.414 . S
C1433 C1436 1.499 . S
C1434 H1414 0.950 . S
C1434 C1433 1.414 . S
C1434 C1435 1.374 . S
C1435 H1415 0.950 . S
C1435 C1431 1.385 . S
C1435 C1434 1.374 . S
C1436 C1433 1.499 . S
C1436 C1437 1.373 . S
C1436 C1438 1.389 . S
C1437 H1416 0.950 . S
C1437 C1436 1.373 . S
C1437 C1453 1.377 . S
C1438 C1436 1.389 . S
C1438 C1439 1.524 . S
C1438 C1452 1.377 . S
C1439 C1438 1.524 . S
C1439 C1440 1.397 . S
C1439 C1444 1.363 . S
C1440 H1417 0.950 . S
C1440 C1439 1.397 . S
C1440 C1441 1.334 . S
C1441 H1418 0.950 . S
C1441 C1440 1.334 . S
C1441 C1442 1.287 . S
C1442 C1441 1.287 . S
C1442 C1443 1.524 . S
C1442 H1461 0.913 . S
C1443 H1419 0.950 . S
C1443 C1442 1.524 . S
C1443 C1444 1.415 . S
C1444 H1420 0.950 . S
C1444 C1439 1.363 . S
C1444 C1443 1.415 . S
C1445 H1421 0.951 . S
C1445 C1446 1.366 . S
C1445 C1447 1.388 . S
C1446 C1445 1.366 . S
C1446 C1450 1.385 . S
C1447 H1422 0.951 . S
C1447 C1445 1.388 . S
C1447 C1448 1.366 . S
C1448 C1447 1.366 . S
C1448 C1449 1.414 . S
C1448 C1451 1.499 . S
C1449 H1423 0.950 . S
C1449 C1448 1.414 . S
C1449 C1450 1.374 . S
C1450 H1424 0.950 . S
C1450 C1446 1.385 . S
C1450 C1449 1.374 . S
C1451 C1448 1.499 . S
C1451 C1452 1.373 . S
C1451 C1453 1.389 . S
C1452 H1425 0.950 . S
C1452 C1438 1.377 . S
C1452 C1451 1.373 . S
C1453 C1437 1.377 . S
C1453 C1451 1.389 . S
C1453 C1454 1.524 . S
C1454 C1453 1.524 . S
C1454 C1455 1.397 . S
C1454 C1459 1.363 . S
C1455 H1426 0.950 . S
C1455 C1454 1.397 . S
C1455 C1456 1.334 . S
C1456 H1427 0.950 . S
C1456 C1455 1.334 . S
C1456 C1457 1.287 . S
C1457 C1456 1.287 . S
C1457 C1458 1.524 . S
C1457 H1460 0.999 . S
C1458 H1428 0.950 . S
C1458 C1457 1.524 . S
C1458 C1459 1.415 . S
C1459 H1429 0.950 . S
C1459 C1454 1.363 . S
C1459 C1458 1.415 . S
H1460 C1457 0.999 . S
H1461 C1442 0.913 . S
H1462 C1480 0.951 . S
H1463 C1482 0.951 . S
H1464 C1484 0.950 . S
H1465 C1485 0.950 . S
H1466 C1487 0.950 . S
H1467 C1490 0.950 . S
H1468 C1491 0.950 . S
H1469 C1493 0.950 . S
H1470 C1494 0.950 . S
H1471 C1495 0.951 . S
H1472 C1497 0.951 . S
H1473 C1499 0.950 . S
H1474 C1500 0.950 . S
H1475 C1502 0.950 . S
H1476 C1505 0.950 . S
H1477 C1506 0.950 . S
H1478 C1508 0.950 . S
H1479 C1509 0.950 . S
C1480 H1462 0.951 . S
C1480 C1481 1.366 . S
C1480 C1482 1.388 . S
C1481 C1480 1.366 . S
C1481 C1485 1.385 . S
C1482 H1463 0.951 . S
C1482 C1480 1.388 . S
C1482 C1483 1.366 . S
C1483 C1482 1.366 . S
C1483 C1484 1.414 . S
C1483 C1486 1.499 . S
C1484 H1464 0.950 . S
C1484 C1483 1.414 . S
C1484 C1485 1.374 . S
C1485 H1465 0.950 . S
C1485 C1481 1.385 . S
C1485 C1484 1.374 . S
C1486 C1483 1.499 . S
C1486 C1487 1.373 . S
C1486 C1488 1.389 . S
C1487 H1466 0.950 . S
C1487 C1486 1.373 . S
C1487 C1503 1.377 . S
C1488 C1486 1.389 . S
C1488 C1489 1.524 . S
C1488 C1502 1.377 . S
C1489 C1488 1.524 . S
C1489 C1490 1.397 . S
C1489 C1494 1.363 . S
C1490 H1467 0.950 . S
C1490 C1489 1.397 . S
C1490 C1491 1.334 . S
C1491 H1468 0.950 . S
C1491 C1490 1.334 . S
C1491 C1492 1.287 . S
C1492 C1491 1.287 . S
C1492 C1493 1.524 . S
C1492 H1511 0.913 . S
C1493 H1469 0.950 . S
C1493 C1492 1.524 . S
C1493 C1494 1.415 . S
C1494 H1470 0.950 . S
C1494 C1489 1.363 . S
C1494 C1493 1.415 . S
C1495 H1471 0.951 . S
C1495 C1496 1.366 . S
C1495 C1497 1.388 . S
C1496 C1495 1.366 . S
C1496 C1500 1.385 . S
C1497 H1472 0.951 . S
C1497 C1495 1.388 . S
C1497 C1498 1.366 . S
C1498 C1497 1.366 . S
C1498 C1499 1.414 . S
C1498 C1501 1.499 . S
C1499 H1473 0.950 . S
C1499 C1498 1.414 . S
C1499 C1500 1.374 . S
C1500 H1474 0.950 . S
C1500 C1496 1.385 . S
C1500 C1499 1.374 . S
C1501 C1498 1.499 . S
C1501 C1502 1.373 . S
C1501 C1503 1.389 . S
C1502 H1475 0.950 . S
C1502 C1488 1.377 . S
C1502 C1501 1.373 . S
C1503 C1487 1.377 . S
C1503 C1501 1.389 . S
C1503 C1504 1.524 . S
C1504 C1503 1.524 . S
C1504 C1505 1.397 . S
C1504 C1509 1.363 . S
C1505 H1476 0.950 . S
C1505 C1504 1.397 . S
C1505 C1506 1.334 . S
C1506 H1477 0.950 . S
C1506 C1505 1.334 . S
C1506 C1507 1.287 . S
C1507 C1506 1.287 . S
C1507 C1508 1.524 . S
C1507 H1510 0.999 . S
C1508 H1478 0.950 . S
C1508 C1507 1.524 . S
C1508 C1509 1.415 . S
C1509 H1479 0.950 . S
C1509 C1504 1.363 . S
C1509 C1508 1.415 . S
H1510 C1507 0.999 . S
H1511 C1492 0.913 . S
H1512 C1530 0.951 . S
H1513 C1532 0.951 . S
H1514 C1534 0.950 . S
H1515 C1535 0.950 . S
H1516 C1537 0.950 . S
H1517 C1540 0.950 . S
H1518 C1541 0.950 . S
H1519 C1543 0.950 . S
H1520 C1544 0.950 . S
H1521 C1545 0.951 . S
H1522 C1547 0.951 . S
H1523 C1549 0.950 . S
H1524 C1550 0.950 . S
H1525 C1552 0.950 . S
H1526 C1555 0.950 . S
H1527 C1556 0.950 . S
H1528 C1558 0.950 . S
H1529 C1559 0.950 . S
C1530 H1512 0.951 . S
C1530 C1531 1.366 . S
C1530 C1532 1.388 . S
C1531 C1530 1.366 . S
C1531 C1535 1.385 . S
C1532 H1513 0.951 . S
C1532 C1530 1.388 . S
C1532 C1533 1.366 . S
C1533 C1532 1.366 . S
C1533 C1534 1.414 . S
C1533 C1536 1.499 . S
C1534 H1514 0.950 . S
C1534 C1533 1.414 . S
C1534 C1535 1.374 . S
C1535 H1515 0.950 . S
C1535 C1531 1.385 . S
C1535 C1534 1.374 . S
C1536 C1533 1.499 . S
C1536 C1537 1.373 . S
C1536 C1538 1.389 . S
C1537 H1516 0.950 . S
C1537 C1536 1.373 . S
C1537 C1553 1.377 . S
C1538 C1536 1.389 . S
C1538 C1539 1.524 . S
C1538 C1552 1.377 . S
C1539 C1538 1.524 . S
C1539 C1540 1.397 . S
C1539 C1544 1.363 . S
C1540 H1517 0.950 . S
C1540 C1539 1.397 . S
C1540 C1541 1.334 . S
C1541 H1518 0.950 . S
C1541 C1540 1.334 . S
C1541 C1542 1.287 . S
C1542 C1541 1.287 . S
C1542 C1543 1.524 . S
C1542 H1561 0.913 . S
C1543 H1519 0.950 . S
C1543 C1542 1.524 . S
C1543 C1544 1.415 . S
C1544 H1520 0.950 . S
C1544 C1539 1.363 . S
C1544 C1543 1.415 . S
C1545 H1521 0.951 . S
C1545 C1546 1.366 . S
C1545 C1547 1.388 . S
C1546 C1545 1.366 . S
C1546 C1550 1.385 . S
C1547 H1522 0.951 . S
C1547 C1545 1.388 . S
C1547 C1548 1.366 . S
C1548 C1547 1.366 . S
C1548 C1549 1.414 . S
C1548 C1551 1.499 . S
C1549 H1523 0.950 . S
C1549 C1548 1.414 . S
C1549 C1550 1.374 . S
C1550 H1524 0.950 . S
C1550 C1546 1.385 . S
C1550 C1549 1.374 . S
C1551 C1548 1.499 . S
C1551 C1552 1.373 . S
C1551 C1553 1.389 . S
C1552 H1525 0.950 . S
C1552 C1538 1.377 . S
C1552 C1551 1.373 . S
C1553 C1537 1.377 . S
C1553 C1551 1.389 . S
C1553 C1554 1.524 . S
C1554 C1553 1.524 . S
C1554 C1555 1.397 . S
C1554 C1559 1.363 . S
C1555 H1526 0.950 . S
C1555 C1554 1.397 . S
C1555 C1556 1.334 . S
C1556 H1527 0.950 . S
C1556 C1555 1.334 . S
C1556 C1557 1.287 . S
C1557 C1556 1.287 . S
C1557 C1558 1.524 . S
C1557 H1560 0.999 . S
C1558 H1528 0.950 . S
C1558 C1557 1.524 . S
C1558 C1559 1.415 . S
C1559 H1529 0.950 . S
C1559 C1554 1.363 . S
C1559 C1558 1.415 . S
H1560 C1557 0.999 . S
H1561 C1542 0.913 . S
H1562 C1580 0.951 . S
H1563 C1582 0.951 . S
H1564 C1584 0.950 . S
H1565 C1585 0.950 . S
H1566 C1587 0.950 . S
H1567 C1590 0.950 . S
H1568 C1591 0.950 . S
H1569 C1593 0.950 . S
H1570 C1594 0.950 . S
H1571 C1595 0.951 . S
H1572 C1597 0.951 . S
H1573 C1599 0.950 . S
H1574 C1600 0.950 . S
H1575 C1602 0.950 . S
H1576 C1605 0.950 . S
H1577 C1606 0.950 . S
H1578 C1608 0.950 . S
H1579 C1609 0.950 . S
C1580 H1562 0.951 . S
C1580 C1581 1.366 . S
C1580 C1582 1.388 . S
C1581 C1580 1.366 . S
C1581 C1585 1.385 . S
C1582 H1563 0.951 . S
C1582 C1580 1.388 . S
C1582 C1583 1.366 . S
C1583 C1582 1.366 . S
C1583 C1584 1.414 . S
C1583 C1586 1.499 . S
C1584 H1564 0.950 . S
C1584 C1583 1.414 . S
C1584 C1585 1.374 . S
C1585 H1565 0.950 . S
C1585 C1581 1.385 . S
C1585 C1584 1.374 . S
C1586 C1583 1.499 . S
C1586 C1587 1.373 . S
C1586 C1588 1.389 . S
C1587 H1566 0.950 . S
C1587 C1586 1.373 . S
C1587 C1603 1.377 . S
C1588 C1586 1.389 . S
C1588 C1589 1.524 . S
C1588 C1602 1.377 . S
C1589 C1588 1.524 . S
C1589 C1590 1.397 . S
C1589 C1594 1.363 . S
C1590 H1567 0.950 . S
C1590 C1589 1.397 . S
C1590 C1591 1.334 . S
C1591 H1568 0.950 . S
C1591 C1590 1.334 . S
C1591 C1592 1.287 . S
C1592 C1591 1.287 . S
C1592 C1593 1.524 . S
C1592 H1611 0.913 . S
C1593 H1569 0.950 . S
C1593 C1592 1.524 . S
C1593 C1594 1.415 . S
C1594 H1570 0.950 . S
C1594 C1589 1.363 . S
C1594 C1593 1.415 . S
C1595 H1571 0.951 . S
C1595 C1596 1.366 . S
C1595 C1597 1.388 . S
C1596 C1595 1.366 . S
C1596 C1600 1.385 . S
C1597 H1572 0.951 . S
C1597 C1595 1.388 . S
C1597 C1598 1.366 . S
C1598 C1597 1.366 . S
C1598 C1599 1.414 . S
C1598 C1601 1.499 . S
C1599 H1573 0.950 . S
C1599 C1598 1.414 . S
C1599 C1600 1.374 . S
C1600 H1574 0.950 . S
C1600 C1596 1.385 . S
C1600 C1599 1.374 . S
C1601 C1598 1.499 . S
C1601 C1602 1.373 . S
C1601 C1603 1.389 . S
C1602 H1575 0.950 . S
C1602 C1588 1.377 . S
C1602 C1601 1.373 . S
C1603 C1587 1.377 . S
C1603 C1601 1.389 . S
C1603 C1604 1.524 . S
C1604 C1603 1.524 . S
C1604 C1605 1.397 . S
C1604 C1609 1.363 . S
C1605 H1576 0.950 . S
C1605 C1604 1.397 . S
C1605 C1606 1.334 . S
C1606 H1577 0.950 . S
C1606 C1605 1.334 . S
C1606 C1607 1.287 . S
C1607 C1606 1.287 . S
C1607 C1608 1.524 . S
C1607 H1610 0.999 . S
C1608 H1578 0.950 . S
C1608 C1607 1.524 . S
C1608 C1609 1.415 . S
C1609 H1579 0.950 . S
C1609 C1604 1.363 . S
C1609 C1608 1.415 . S
H1610 C1607 0.999 . S
H1611 C1592 0.913 . S
H1612 C1630 0.951 . S
H1613 C1632 0.951 . S
H1614 C1634 0.950 . S
H1615 C1635 0.950 . S
H1616 C1637 0.950 . S
H1617 C1640 0.950 . S
H1618 C1641 0.950 . S
H1619 C1643 0.950 . S
H1620 C1644 0.950 . S
H1621 C1645 0.951 . S
H1622 C1647 0.951 . S
H1623 C1649 0.950 . S
H1624 C1650 0.950 . S
H1625 C1652 0.950 . S
H1626 C1655 0.950 . S
H1627 C1656 0.950 . S
H1628 C1658 0.950 . S
H1629 C1659 0.950 . S
C1630 H1612 0.951 . S
C1630 C1631 1.366 . S
C1630 C1632 1.388 . S
C1631 C1630 1.366 . S
C1631 C1635 1.385 . S
C1632 H1613 0.951 . S
C1632 C1630 1.388 . S
C1632 C1633 1.366 . S
C1633 C1632 1.366 . S
C1633 C1634 1.414 . S
C1633 C1636 1.499 . S
C1634 H1614 0.950 . S
C1634 C1633 1.414 . S
C1634 C1635 1.374 . S
C1635 H1615 0.950 . S
C1635 C1631 1.385 . S
C1635 C1634 1.374 . S
C1636 C1633 1.499 . S
C1636 C1637 1.373 . S
C1636 C1638 1.389 . S
C1637 H1616 0.950 . S
C1637 C1636 1.373 . S
C1637 C1653 1.377 . S
C1638 C1636 1.389 . S
C1638 C1639 1.524 . S
C1638 C1652 1.377 . S
C1639 C1638 1.524 . S
C1639 C1640 1.397 . S
C1639 C1644 1.363 . S
C1640 H1617 0.950 . S
C1640 C1639 1.397 . S
C1640 C1641 1.334 . S
C1641 H1618 0.950 . S
C1641 C1640 1.334 . S
C1641 C1642 1.287 . S
C1642 C1641 1.287 . S
C1642 C1643 1.524 . S
C1642 H1661 0.913 . S
C1643 H1619 0.950 . S
C1643 C1642 1.524 . S
C1643 C1644 1.415 . S
C1644 H1620 0.950 . S
C1644 C1639 1.363 . S
C1644 C1643 1.415 . S
C1645 H1621 0.951 . S
C1645 C1646 1.366 . S
C1645 C1647 1.388 . S
C1646 C1645 1.366 . S
C1646 C1650 1.385 . S
C1647 H1622 0.951 . S
C1647 C1645 1.388 . S
C1647 C1648 1.366 . S
C1648 C1647 1.366 . S
C1648 C1649 1.414 . S
C1648 C1651 1.499 . S
C1649 H1623 0.950 . S
C1649 C1648 1.414 . S
C1649 C1650 1.374 . S
C1650 H1624 0.950 . S
C1650 C1646 1.385 . S
C1650 C1649 1.374 . S
C1651 C1648 1.499 . S
C1651 C1652 1.373 . S
C1651 C1653 1.389 . S
C1652 H1625 0.950 . S
C1652 C1638 1.377 . S
C1652 C1651 1.373 . S
C1653 C1637 1.377 . S
C1653 C1651 1.389 . S
C1653 C1654 1.524 . S
C1654 C1653 1.524 . S
C1654 C1655 1.397 . S
C1654 C1659 1.363 . S
C1655 H1626 0.950 . S
C1655 C1654 1.397 . S
C1655 C1656 1.334 . S
C1656 H1627 0.950 . S
C1656 C1655 1.334 . S
C1656 C1657 1.287 . S
C1657 C1656 1.287 . S
C1657 C1658 1.524 . S
C1657 H1660 0.999 . S
C1658 H1628 0.950 . S
C1658 C1657 1.524 . S
C1658 C1659 1.415 . S
C1659 H1629 0.950 . S
C1659 C1654 1.363 . S
C1659 C1658 1.415 . S
H1660 C1657 0.999 . S
H1661 C1642 0.913 . S
H1662 C1680 0.951 . S
H1663 C1682 0.951 . S
H1664 C1684 0.950 . S
H1665 C1685 0.950 . S
H1666 C1687 0.950 . S
H1667 C1690 0.950 . S
H1668 C1691 0.950 . S
H1669 C1693 0.950 . S
H1670 C1694 0.950 . S
H1671 C1695 0.951 . S
H1672 C1697 0.951 . S
H1673 C1699 0.950 . S
H1674 C1700 0.950 . S
H1675 C1702 0.950 . S
H1676 C1705 0.950 . S
H1677 C1706 0.950 . S
H1678 C1708 0.950 . S
H1679 C1709 0.950 . S
C1680 H1662 0.951 . S
C1680 C1681 1.366 . S
C1680 C1682 1.388 . S
C1681 C1680 1.366 . S
C1681 C1685 1.385 . S
C1682 H1663 0.951 . S
C1682 C1680 1.388 . S
C1682 C1683 1.366 . S
C1683 C1682 1.366 . S
C1683 C1684 1.414 . S
C1683 C1686 1.499 . S
C1684 H1664 0.950 . S
C1684 C1683 1.414 . S
C1684 C1685 1.374 . S
C1685 H1665 0.950 . S
C1685 C1681 1.385 . S
C1685 C1684 1.374 . S
C1686 C1683 1.499 . S
C1686 C1687 1.373 . S
C1686 C1688 1.389 . S
C1687 H1666 0.950 . S
C1687 C1686 1.373 . S
C1687 C1703 1.377 . S
C1688 C1686 1.389 . S
C1688 C1689 1.524 . S
C1688 C1702 1.377 . S
C1689 C1688 1.524 . S
C1689 C1690 1.397 . S
C1689 C1694 1.363 . S
C1690 H1667 0.950 . S
C1690 C1689 1.397 . S
C1690 C1691 1.334 . S
C1691 H1668 0.950 . S
C1691 C1690 1.334 . S
C1691 C1692 1.287 . S
C1692 C1691 1.287 . S
C1692 C1693 1.524 . S
C1692 H1711 0.913 . S
C1693 H1669 0.950 . S
C1693 C1692 1.524 . S
C1693 C1694 1.415 . S
C1694 H1670 0.950 . S
C1694 C1689 1.363 . S
C1694 C1693 1.415 . S
C1695 H1671 0.951 . S
C1695 C1696 1.366 . S
C1695 C1697 1.388 . S
C1696 C1695 1.366 . S
C1696 C1700 1.385 . S
C1697 H1672 0.951 . S
C1697 C1695 1.388 . S
C1697 C1698 1.366 . S
C1698 C1697 1.366 . S
C1698 C1699 1.414 . S
C1698 C1701 1.499 . S
C1699 H1673 0.950 . S
C1699 C1698 1.414 . S
C1699 C1700 1.374 . S
C1700 H1674 0.950 . S
C1700 C1696 1.385 . S
C1700 C1699 1.374 . S
C1701 C1698 1.499 . S
C1701 C1702 1.373 . S
C1701 C1703 1.389 . S
C1702 H1675 0.950 . S
C1702 C1688 1.377 . S
C1702 C1701 1.373 . S
C1703 C1687 1.377 . S
C1703 C1701 1.389 . S
C1703 C1704 1.524 . S
C1704 C1703 1.524 . S
C1704 C1705 1.397 . S
C1704 C1709 1.363 . S
C1705 H1676 0.950 . S
C1705 C1704 1.397 . S
C1705 C1706 1.334 . S
C1706 H1677 0.950 . S
C1706 C1705 1.334 . S
C1706 C1707 1.287 . S
C1707 C1706 1.287 . S
C1707 C1708 1.524 . S
C1707 H1710 0.999 . S
C1708 H1678 0.950 . S
C1708 C1707 1.524 . S
C1708 C1709 1.415 . S
C1709 H1679 0.950 . S
C1709 C1704 1.363 . S
C1709 C1708 1.415 . S
H1710 C1707 0.999 . S
H1711 C1692 0.913 . S
H1712 C1730 0.951 . S
H1713 C1732 0.951 . S
H1714 C1734 0.950 . S
H1715 C1735 0.950 . S
H1716 C1737 0.950 . S
H1717 C1740 0.950 . S
H1718 C1741 0.950 . S
H1719 C1743 0.950 . S
H1720 C1744 0.950 . S
H1721 C1745 0.951 . S
H1722 C1747 0.951 . S
H1723 C1749 0.950 . S
H1724 C1750 0.950 . S
H1725 C1752 0.950 . S
H1726 C1755 0.950 . S
H1727 C1756 0.950 . S
H1728 C1758 0.950 . S
H1729 C1759 0.950 . S
C1730 H1712 0.951 . S
C1730 C1731 1.366 . S
C1730 C1732 1.388 . S
C1731 C1730 1.366 . S
C1731 C1735 1.385 . S
C1732 H1713 0.951 . S
C1732 C1730 1.388 . S
C1732 C1733 1.366 . S
C1733 C1732 1.366 . S
C1733 C1734 1.414 . S
C1733 C1736 1.499 . S
C1734 H1714 0.950 . S
C1734 C1733 1.414 . S
C1734 C1735 1.374 . S
C1735 H1715 0.950 . S
C1735 C1731 1.385 . S
C1735 C1734 1.374 . S
C1736 C1733 1.499 . S
C1736 C1737 1.373 . S
C1736 C1738 1.389 . S
C1737 H1716 0.950 . S
C1737 C1736 1.373 . S
C1737 C1753 1.377 . S
C1738 C1736 1.389 . S
C1738 C1739 1.524 . S
C1738 C1752 1.377 . S
C1739 C1738 1.524 . S
C1739 C1740 1.397 . S
C1739 C1744 1.363 . S
C1740 H1717 0.950 . S
C1740 C1739 1.397 . S
C1740 C1741 1.334 . S
C1741 H1718 0.950 . S
C1741 C1740 1.334 . S
C1741 C1742 1.287 . S
C1742 C1741 1.287 . S
C1742 C1743 1.524 . S
C1742 H1761 0.913 . S
C1743 H1719 0.950 . S
C1743 C1742 1.524 . S
C1743 C1744 1.415 . S
C1744 H1720 0.950 . S
C1744 C1739 1.363 . S
C1744 C1743 1.415 . S
C1745 H1721 0.951 . S
C1745 C1746 1.366 . S
C1745 C1747 1.388 . S
C1746 C1745 1.366 . S
C1746 C1750 1.385 . S
C1747 H1722 0.951 . S
C1747 C1745 1.388 . S
C1747 C1748 1.366 . S
C1748 C1747 1.366 . S
C1748 C1749 1.414 . S
C1748 C1751 1.499 . S
C1749 H1723 0.950 . S
C1749 C1748 1.414 . S
C1749 C1750 1.374 . S
C1750 H1724 0.950 . S
C1750 C1746 1.385 . S
C1750 C1749 1.374 . S
C1751 C1748 1.499 . S
C1751 C1752 1.373 . S
C1751 C1753 1.389 . S
C1752 H1725 0.950 . S
C1752 C1738 1.377 . S
C1752 C1751 1.373 . S
C1753 C1737 1.377 . S
C1753 C1751 1.389 . S
C1753 C1754 1.524 . S
C1754 C1753 1.524 . S
C1754 C1755 1.397 . S
C1754 C1759 1.363 . S
C1755 H1726 0.950 . S
C1755 C1754 1.397 . S
C1755 C1756 1.334 . S
C1756 H1727 0.950 . S
C1756 C1755 1.334 . S
C1756 C1757 1.287 . S
C1757 C1756 1.287 . S
C1757 C1758 1.524 . S
C1757 H1760 0.999 . S
C1758 H1728 0.950 . S
C1758 C1757 1.524 . S
C1758 C1759 1.415 . S
C1759 H1729 0.950 . S
C1759 C1754 1.363 . S
C1759 C1758 1.415 . S
H1760 C1757 0.999 . S
H1761 C1742 0.913 . S
H1762 C1780 0.951 . S
H1763 C1782 0.951 . S
H1764 C1784 0.950 . S
H1765 C1785 0.950 . S
H1766 C1787 0.950 . S
H1767 C1790 0.950 . S
H1768 C1791 0.950 . S
H1769 C1793 0.950 . S
H1770 C1794 0.950 . S
H1771 C1795 0.951 . S
H1772 C1797 0.951 . S
H1773 C1799 0.950 . S
H1774 C1800 0.950 . S
H1775 C1802 0.950 . S
H1776 C1805 0.950 . S
H1777 C1806 0.950 . S
H1778 C1808 0.950 . S
H1779 C1809 0.950 . S
C1780 H1762 0.951 . S
C1780 C1781 1.366 . S
C1780 C1782 1.388 . S
C1781 C1780 1.366 . S
C1781 C1785 1.385 . S
C1782 H1763 0.951 . S
C1782 C1780 1.388 . S
C1782 C1783 1.366 . S
C1783 C1782 1.366 . S
C1783 C1784 1.414 . S
C1783 C1786 1.499 . S
C1784 H1764 0.950 . S
C1784 C1783 1.414 . S
C1784 C1785 1.374 . S
C1785 H1765 0.950 . S
C1785 C1781 1.385 . S
C1785 C1784 1.374 . S
C1786 C1783 1.499 . S
C1786 C1787 1.373 . S
C1786 C1788 1.389 . S
C1787 H1766 0.950 . S
C1787 C1786 1.373 . S
C1787 C1803 1.377 . S
C1788 C1786 1.389 . S
C1788 C1789 1.524 . S
C1788 C1802 1.377 . S
C1789 C1788 1.524 . S
C1789 C1790 1.397 . S
C1789 C1794 1.363 . S
C1790 H1767 0.950 . S
C1790 C1789 1.397 . S
C1790 C1791 1.334 . S
C1791 H1768 0.950 . S
C1791 C1790 1.334 . S
C1791 C1792 1.287 . S
C1792 C1791 1.287 . S
C1792 C1793 1.524 . S
C1792 H1811 0.913 . S
C1793 H1769 0.950 . S
C1793 C1792 1.524 . S
C1793 C1794 1.415 . S
C1794 H1770 0.950 . S
C1794 C1789 1.363 . S
C1794 C1793 1.415 . S
C1795 H1771 0.951 . S
C1795 C1796 1.366 . S
C1795 C1797 1.388 . S
C1796 C1795 1.366 . S
C1796 C1800 1.385 . S
C1797 H1772 0.951 . S
C1797 C1795 1.388 . S
C1797 C1798 1.366 . S
C1798 C1797 1.366 . S
C1798 C1799 1.414 . S
C1798 C1801 1.499 . S
C1799 H1773 0.950 . S
C1799 C1798 1.414 . S
C1799 C1800 1.374 . S
C1800 H1774 0.950 . S
C1800 C1796 1.385 . S
C1800 C1799 1.374 . S
C1801 C1798 1.499 . S
C1801 C1802 1.373 . S
C1801 C1803 1.389 . S
C1802 H1775 0.950 . S
C1802 C1788 1.377 . S
C1802 C1801 1.373 . S
C1803 C1787 1.377 . S
C1803 C1801 1.389 . S
C1803 C1804 1.524 . S
C1804 C1803 1.524 . S
C1804 C1805 1.397 . S
C1804 C1809 1.363 . S
C1805 H1776 0.950 . S
C1805 C1804 1.397 . S
C1805 C1806 1.334 . S
C1806 H1777 0.950 . S
C1806 C1805 1.334 . S
C1806 C1807 1.287 . S
C1807 C1806 1.287 . S
C1807 C1808 1.524 . S
C1807 H1810 0.999 . S
C1808 H1778 0.950 . S
C1808 C1807 1.524 . S
C1808 C1809 1.415 . S
C1809 H1779 0.950 . S
C1809 C1804 1.363 . S
C1809 C1808 1.415 . S
H1810 C1807 0.999 . S
H1811 C1792 0.913 . S
H1812 C1830 0.951 . S
H1813 C1832 0.951 . S
H1814 C1834 0.950 . S
H1815 C1835 0.950 . S
H1816 C1837 0.950 . S
H1817 C1840 0.950 . S
H1818 C1841 0.950 . S
H1819 C1843 0.950 1_455 S
H1820 C1844 0.950 . S
H1821 C1845 0.951 . S
H1822 C1847 0.951 . S
H1823 C1849 0.950 . S
H1824 C1850 0.950 . S
H1825 C1852 0.950 . S
H1826 C1855 0.950 . S
H1827 C1856 0.950 . S
H1828 C1858 0.950 . S
H1829 C1859 0.950 . S
C1830 H1812 0.951 . S
C1830 C1831 1.366 . S
C1830 C1832 1.388 . S
C1831 C1830 1.366 . S
C1831 C1835 1.385 . S
C1832 H1813 0.951 . S
C1832 C1830 1.388 . S
C1832 C1833 1.366 . S
C1833 C1832 1.366 . S
C1833 C1834 1.414 . S
C1833 C1836 1.499 . S
C1834 H1814 0.950 . S
C1834 C1833 1.414 . S
C1834 C1835 1.374 . S
C1835 H1815 0.950 . S
C1835 C1831 1.385 . S
C1835 C1834 1.374 . S
C1836 C1833 1.499 . S
C1836 C1837 1.373 . S
C1836 C1838 1.388 1_655 S
C1837 H1816 0.950 . S
C1837 C1836 1.373 . S
C1837 C1853 1.377 1_655 S
C1838 C1836 1.388 1_455 S
C1838 C1839 1.506 1_455 S
C1838 C1852 1.397 . S
C1839 C1838 1.506 1_655 S
C1839 C1840 1.397 . S
C1839 C1844 1.363 1_655 S
C1840 H1817 0.950 . S
C1840 C1839 1.397 . S
C1840 C1841 1.334 . S
C1841 H1818 0.950 . S
C1841 C1840 1.334 . S
C1841 C1842 1.287 . S
C1842 C1841 1.287 . S
C1842 C1843 1.524 . S
C1842 H1861 0.913 . S
C1843 H1819 0.950 1_655 S
C1843 C1842 1.524 . S
C1843 C1844 1.415 1_655 S
C1844 H1820 0.950 . S
C1844 C1839 1.363 1_455 S
C1844 C1843 1.415 1_455 S
C1845 H1821 0.951 . S
C1845 C1846 1.366 . S
C1845 C1847 1.388 . S
C1846 C1845 1.366 . S
C1846 C1850 1.385 . S
C1847 H1822 0.951 . S
C1847 C1845 1.388 . S
C1847 C1848 1.366 . S
C1848 C1847 1.366 . S
C1848 C1849 1.414 . S
C1848 C1851 1.499 . S
C1849 H1823 0.950 . S
C1849 C1848 1.414 . S
C1849 C1850 1.374 . S
C1850 H1824 0.950 . S
C1850 C1846 1.385 . S
C1850 C1849 1.374 . S
C1851 C1848 1.499 . S
C1851 C1852 1.373 . S
C1851 C1853 1.389 . S
C1852 H1825 0.950 . S
C1852 C1838 1.397 . S
C1852 C1851 1.373 . S
C1853 C1837 1.377 1_455 S
C1853 C1851 1.389 . S
C1853 C1854 1.524 . S
C1854 C1853 1.524 . S
C1854 C1855 1.397 . S
C1854 C1859 1.363 . S
C1855 H1826 0.950 . S
C1855 C1854 1.397 . S
C1855 C1856 1.334 . S
C1856 H1827 0.950 . S
C1856 C1855 1.334 . S
C1856 C1857 1.287 . S
C1857 C1856 1.287 . S
C1857 C1858 1.524 . S
C1857 H1860 0.999 . S
C1858 H1828 0.950 . S
C1858 C1857 1.524 . S
C1858 C1859 1.415 . S
C1859 H1829 0.950 . S
C1859 C1854 1.363 . S
C1859 C1858 1.415 . S
H1860 C1857 0.999 . S
H1861 C1842 0.913 . S
H1862 C1880 0.951 . S
H1863 C1882 0.951 . S
H1864 C1884 0.950 . S
H1865 C1885 0.950 . S
H1866 C1887 0.950 . S
H1867 C1890 0.950 . S
H1868 C1891 0.950 . S
H1869 C1893 0.950 . S
H1870 C1894 0.950 . S
H1871 C1895 0.951 . S
H1872 C1897 0.951 . S
H1873 C1899 0.950 . S
H1874 C1900 0.950 . S
H1875 C1902 0.950 . S
H1876 C1905 0.950 . S
H1877 C1906 0.950 . S
H1878 C1908 0.950 . S
H1879 C1909 0.950 . S
C1880 H1862 0.951 . S
C1880 C1881 1.366 . S
C1880 C1882 1.388 . S
C1881 C1880 1.366 . S
C1881 C1885 1.385 . S
C1882 H1863 0.951 . S
C1882 C1880 1.388 . S
C1882 C1883 1.366 . S
C1883 C1882 1.366 . S
C1883 C1884 1.414 . S
C1883 C1886 1.499 . S
C1884 H1864 0.950 . S
C1884 C1883 1.414 . S
C1884 C1885 1.374 . S
C1885 H1865 0.950 . S
C1885 C1881 1.385 . S
C1885 C1884 1.374 . S
C1886 C1883 1.499 . S
C1886 C1887 1.373 . S
C1886 C1888 1.389 . S
C1887 H1866 0.950 . S
C1887 C1886 1.373 . S
C1887 C1903 1.377 . S
C1888 C1886 1.389 . S
C1888 C1889 1.524 . S
C1888 C1902 1.377 . S
C1889 C1888 1.524 . S
C1889 C1890 1.397 . S
C1889 C1894 1.363 . S
C1890 H1867 0.950 . S
C1890 C1889 1.397 . S
C1890 C1891 1.334 . S
C1891 H1868 0.950 . S
C1891 C1890 1.334 . S
C1891 C1892 1.287 . S
C1892 C1891 1.287 . S
C1892 C1893 1.524 . S
C1892 H1911 0.913 . S
C1893 H1869 0.950 . S
C1893 C1892 1.524 . S
C1893 C1894 1.415 . S
C1894 H1870 0.950 . S
C1894 C1889 1.363 . S
C1894 C1893 1.415 . S
C1895 H1871 0.951 . S
C1895 C1896 1.366 . S
C1895 C1897 1.388 . S
C1896 C1895 1.366 . S
C1896 C1900 1.385 . S
C1897 H1872 0.951 . S
C1897 C1895 1.388 . S
C1897 C1898 1.366 . S
C1898 C1897 1.366 . S
C1898 C1899 1.414 . S
C1898 C1901 1.499 . S
C1899 H1873 0.950 . S
C1899 C1898 1.414 . S
C1899 C1900 1.374 . S
C1900 H1874 0.950 . S
C1900 C1896 1.385 . S
C1900 C1899 1.374 . S
C1901 C1898 1.499 . S
C1901 C1902 1.373 . S
C1901 C1903 1.389 . S
C1902 H1875 0.950 . S
C1902 C1888 1.377 . S
C1902 C1901 1.373 . S
C1903 C1887 1.377 . S
C1903 C1901 1.389 . S
C1903 C1904 1.524 . S
C1904 C1903 1.524 . S
C1904 C1905 1.397 . S
C1904 C1909 1.363 . S
C1905 H1876 0.950 . S
C1905 C1904 1.397 . S
C1905 C1906 1.334 . S
C1906 H1877 0.950 . S
C1906 C1905 1.334 . S
C1906 C1907 1.287 . S
C1907 C1906 1.287 . S
C1907 C1908 1.524 . S
C1907 H1910 0.999 . S
C1908 H1878 0.950 . S
C1908 C1907 1.524 . S
C1908 C1909 1.415 . S
C1909 H1879 0.950 . S
C1909 C1904 1.363 . S
C1909 C1908 1.415 . S
H1910 C1907 0.999 . S
H1911 C1892 0.913 . S
H1912 C1930 0.951 . S
H1913 C1932 0.951 . S
H1914 C1934 0.950 . S
H1915 C1935 0.950 . S
H1916 C1937 0.965 . S
H1917 C1940 0.950 . S
H1918 C1941 0.950 . S
H1919 C1943 0.950 . S
H1920 C1944 0.950 . S
H1921 C1945 0.951 . S
H1922 C1947 0.951 . S
H1923 C1949 0.950 . S
H1924 C1950 0.950 . S
H1925 C1952 0.950 . S
H1926 C1955 0.950 . S
H1927 C1956 0.950 . S
H1928 C1958 0.950 . S
H1929 C1959 0.950 . S
C1930 H1912 0.951 . S
C1930 C1931 1.366 . S
C1930 C1932 1.388 . S
C1931 C1930 1.366 . S
C1931 C1935 1.385 . S
C1932 H1913 0.951 . S
C1932 C1930 1.388 . S
C1932 C1933 1.366 . S
C1933 C1932 1.366 . S
C1933 C1934 1.414 . S
C1933 C1936 1.499 . S
C1934 H1914 0.950 . S
C1934 C1933 1.414 . S
C1934 C1935 1.374 . S
C1935 H1915 0.950 . S
C1935 C1931 1.385 . S
C1935 C1934 1.374 . S
C1936 C1933 1.499 . S
C1936 C1937 1.373 . S
C1936 C1938 1.419 . S
C1937 H1916 0.965 . S
C1937 C1936 1.373 . S
C1937 C1953 1.362 1_565 S
C1938 C1936 1.419 . S
C1938 C1939 1.520 . S
C1938 C1952 1.349 1_565 S
C1939 C1938 1.520 . S
C1939 C1940 1.397 . S
C1939 C1944 1.363 . S
C1940 H1917 0.950 . S
C1940 C1939 1.397 . S
C1940 C1941 1.334 . S
C1941 H1918 0.950 . S
C1941 C1940 1.334 . S
C1941 C1942 1.287 . S
C1942 C1941 1.287 . S
C1942 C1943 1.524 . S
C1942 H1961 0.913 . S
C1943 H1919 0.950 . S
C1943 C1942 1.524 . S
C1943 C1944 1.415 . S
C1944 H1920 0.950 . S
C1944 C1939 1.363 . S
C1944 C1943 1.415 . S
C1945 H1921 0.951 . S
C1945 C1946 1.366 . S
C1945 C1947 1.388 . S
C1946 C1945 1.366 . S
C1946 C1950 1.385 . S
C1947 H1922 0.951 . S
C1947 C1945 1.388 . S
C1947 C1948 1.366 . S
C1948 C1947 1.366 . S
C1948 C1949 1.414 . S
C1948 C1951 1.499 . S
C1949 H1923 0.950 . S
C1949 C1948 1.414 . S
C1949 C1950 1.374 . S
C1950 H1924 0.950 . S
C1950 C1946 1.385 . S
C1950 C1949 1.374 . S
C1951 C1948 1.499 . S
C1951 C1952 1.373 . S
C1951 C1953 1.389 . S
C1952 H1925 0.950 . S
C1952 C1938 1.349 1_545 S
C1952 C1951 1.373 . S
C1953 C1937 1.362 1_545 S
C1953 C1951 1.389 . S
C1953 C1954 1.524 . S
C1954 C1953 1.524 . S
C1954 C1955 1.397 . S
C1954 C1959 1.363 . S
C1955 H1926 0.950 . S
C1955 C1954 1.397 . S
C1955 C1956 1.334 . S
C1956 H1927 0.950 . S
C1956 C1955 1.334 . S
C1956 C1957 1.287 . S
C1957 C1956 1.287 . S
C1957 C1958 1.524 . S
C1957 H1960 0.999 . S
C1958 H1928 0.950 . S
C1958 C1957 1.524 . S
C1958 C1959 1.415 . S
C1959 H1929 0.950 . S
C1959 C1954 1.363 . S
C1959 C1958 1.415 . S
H1960 C1957 0.999 . S
H1961 C1942 0.913 . S
H1962 C1980 0.951 . S
H1963 C1982 0.951 . S
H1964 C1984 0.950 . S
H1965 C1985 0.950 . S
H1966 C1987 0.950 . S
H1967 C1990 0.950 1_565 S
H1968 C1991 0.950 . S
H1969 C1993 0.950 . S
H1970 C1994 0.950 . S
H1971 C1995 0.951 . S
H1972 C1997 0.951 . S
H1973 C1999 0.950 . S
H1974 C2000 0.950 . S
H1975 C2002 0.950 . S
H1976 C2005 0.950 . S
H1977 C2006 0.950 . S
H1978 C2008 0.950 . S
H1979 C2009 0.950 . S
C1980 H1962 0.951 . S
C1980 C1981 1.366 . S
C1980 C1982 1.388 . S
C1981 C1980 1.366 . S
C1981 C1985 1.385 1_545 S
C1982 H1963 0.951 . S
C1982 C1980 1.388 . S
C1982 C1983 1.366 . S
C1983 C1982 1.366 . S
C1983 C1984 1.414 1_545 S
C1983 C1986 1.499 . S
C1984 H1964 0.950 . S
C1984 C1983 1.414 1_565 S
C1984 C1985 1.374 . S
C1985 H1965 0.950 . S
C1985 C1981 1.385 1_565 S
C1985 C1984 1.374 . S
C1986 C1983 1.499 . S
C1986 C1987 1.373 1_545 S
C1986 C1988 1.389 . S
C1987 H1966 0.950 . S
C1987 C1986 1.373 1_565 S
C1987 C2003 1.374 1_565 S
C1988 C1986 1.389 . S
C1988 C1989 1.524 . S
C1988 C2002 1.377 . S
C1989 C1988 1.524 . S
C1989 C1990 1.397 . S
C1989 C1994 1.363 . S
C1990 H1967 0.950 1_545 S
C1990 C1989 1.397 . S
C1990 C1991 1.334 . S
C1991 H1968 0.950 . S
C1991 C1990 1.334 . S
C1991 C1992 1.287 . S
C1992 C1991 1.287 . S
C1992 C1993 1.524 . S
C1992 H2011 0.913 . S
C1993 H1969 0.950 . S
C1993 C1992 1.524 . S
C1993 C1994 1.415 . S
C1994 H1970 0.950 . S
C1994 C1989 1.363 . S
C1994 C1993 1.415 . S
C1995 H1971 0.951 . S
C1995 C1996 1.366 1_565 S
C1995 C1997 1.388 . S
C1996 C1995 1.366 1_545 S
C1996 C2000 1.385 . S
C1997 H1972 0.951 . S
C1997 C1995 1.388 . S
C1997 C1998 1.366 1_565 S
C1998 C1997 1.366 1_545 S
C1998 C1999 1.414 . S
C1998 C2001 1.499 . S
C1999 H1973 0.950 . S
C1999 C1998 1.414 . S
C1999 C2000 1.374 . S
C2000 H1974 0.950 . S
C2000 C1996 1.385 . S
C2000 C1999 1.374 . S
C2001 C1998 1.499 . S
C2001 C2002 1.373 . S
C2001 C2003 1.390 . S
C2002 H1975 0.950 . S
C2002 C1988 1.377 . S
C2002 C2001 1.373 . S
C2003 C1987 1.374 1_545 S
C2003 C2001 1.390 . S
C2003 C2004 1.534 1_545 S
C2004 C2003 1.534 1_565 S
C2004 C2005 1.397 1_565 S
C2004 C2009 1.363 . S
C2005 H1976 0.950 . S
C2005 C2004 1.397 1_545 S
C2005 C2006 1.334 . S
C2006 H1977 0.950 . S
C2006 C2005 1.334 . S
C2006 C2007 1.287 1_545 S
C2007 C2006 1.287 1_565 S
C2007 C2008 1.524 . S
C2007 H2010 0.999 . S
C2008 H1978 0.950 . S
C2008 C2007 1.524 . S
C2008 C2009 1.415 . S
C2009 H1979 0.950 . S
C2009 C2004 1.363 . S
C2009 C2008 1.415 . S
H2010 C2007 0.999 . S
H2011 C1992 0.913 . S
H2012 C2030 0.951 . S
H2013 C2032 0.951 . S
H2014 C2034 0.950 . S
H2015 C2035 0.950 . S
H2016 C2037 0.950 . S
H2017 C2040 0.950 1_455 S
H2018 C2041 0.950 . S
H2019 C2043 0.950 . S
H2020 C2044 0.950 . S
H2021 C2045 0.951 . S
H2022 C2047 0.951 . S
H2023 C2049 0.950 . S
H2024 C2050 0.950 . S
H2025 C2052 0.950 . S
H2026 C2055 0.950 . S
H2027 C2056 0.950 . S
H2028 C2058 0.950 . S
H2029 C2059 0.950 . S
C2030 H2012 0.951 . S
C2030 C2031 1.366 1_655 S
C2030 C2032 1.388 . S
C2031 C2030 1.366 1_455 S
C2031 C2035 1.385 . S
C2032 H2013 0.951 . S
C2032 C2030 1.388 . S
C2032 C2033 1.366 1_655 S
C2033 C2032 1.366 1_455 S
C2033 C2034 1.414 . S
C2033 C2036 1.499 . S
C2034 H2014 0.950 . S
C2034 C2033 1.414 . S
C2034 C2035 1.374 . S
C2035 H2015 0.950 . S
C2035 C2031 1.385 . S
C2035 C2034 1.374 . S
C2036 C2033 1.499 . S
C2036 C2037 1.373 . S
C2036 C2038 1.389 1_455 S
C2037 H2016 0.950 . S
C2037 C2036 1.373 . S
C2037 C2053 1.377 . S
C2038 C2036 1.389 1_655 S
C2038 C2039 1.524 . S
C2038 C2052 1.377 . S
C2039 C2038 1.524 . S
C2039 C2040 1.397 . S
C2039 C2044 1.363 . S
C2040 H2017 0.950 1_655 S
C2040 C2039 1.397 . S
C2040 C2041 1.334 . S
C2041 H2018 0.950 . S
C2041 C2040 1.334 . S
C2041 C2042 1.287 . S
C2042 C2041 1.287 . S
C2042 C2043 1.524 . S
C2042 H2061 0.913 . S
C2043 H2019 0.950 . S
C2043 C2042 1.524 . S
C2043 C2044 1.415 . S
C2044 H2020 0.950 . S
C2044 C2039 1.363 . S
C2044 C2043 1.415 . S
C2045 H2021 0.951 . S
C2045 C2046 1.366 . S
C2045 C2047 1.388 . S
C2046 C2045 1.366 . S
C2046 C2050 1.385 1_455 S
C2047 H2022 0.951 . S
C2047 C2045 1.388 . S
C2047 C2048 1.366 . S
C2048 C2047 1.366 . S
C2048 C2049 1.414 1_455 S
C2048 C2051 1.499 . S
C2049 H2023 0.950 . S
C2049 C2048 1.414 1_655 S
C2049 C2050 1.374 . S
C2050 H2024 0.950 . S
C2050 C2046 1.385 1_655 S
C2050 C2049 1.374 . S
C2051 C2048 1.499 . S
C2051 C2052 1.373 1_455 S
C2051 C2053 1.389 . S
C2052 H2025 0.950 . S
C2052 C2038 1.377 . S
C2052 C2051 1.373 1_655 S
C2053 C2037 1.377 . S
C2053 C2051 1.389 . S
C2053 C2054 1.524 . S
C2054 C2053 1.524 . S
C2054 C2055 1.397 . S
C2054 C2059 1.363 . S
C2055 H2026 0.950 . S
C2055 C2054 1.397 . S
C2055 C2056 1.334 . S
C2056 H2027 0.950 . S
C2056 C2055 1.334 . S
C2056 C2057 1.287 . S
C2057 C2056 1.287 . S
C2057 C2058 1.524 . S
C2057 H2060 0.999 . S
C2058 H2028 0.950 . S
C2058 C2057 1.524 . S
C2058 C2059 1.415 . S
C2059 H2029 0.950 . S
C2059 C2054 1.363 . S
C2059 C2058 1.415 . S
H2060 C2057 0.999 . S
H2061 C2042 0.913 . S
H2062 C2080 0.951 . S
H2063 C2082 0.951 . S
H2064 C2084 0.950 . S
H2065 C2085 0.950 . S
H2066 C2087 0.950 . S
H2067 C2090 0.950 . S
H2068 C2091 0.950 . S
H2069 C2093 0.950 . S
H2070 C2094 0.950 . S
H2071 C2095 0.951 . S
H2072 C2097 0.951 . S
H2073 C2099 0.950 . S
H2074 C2100 0.950 . S
H2075 C2102 0.950 . S
H2076 C2105 0.950 . S
H2077 C2106 0.950 . S
H2078 C2108 0.950 . S
H2079 C2109 0.950 . S
C2080 H2062 0.951 . S
C2080 C2081 1.366 . S
C2080 C2082 1.388 . S
C2081 C2080 1.366 . S
C2081 C2085 1.385 . S
C2082 H2063 0.951 . S
C2082 C2080 1.388 . S
C2082 C2083 1.366 . S
C2083 C2082 1.366 . S
C2083 C2084 1.414 . S
C2083 C2086 1.499 . S
C2084 H2064 0.950 . S
C2084 C2083 1.414 . S
C2084 C2085 1.374 . S
C2085 H2065 0.950 . S
C2085 C2081 1.385 . S
C2085 C2084 1.374 . S
C2086 C2083 1.499 . S
C2086 C2087 1.373 . S
C2086 C2088 1.389 . S
C2087 H2066 0.950 . S
C2087 C2086 1.373 . S
C2087 C2103 1.377 . S
C2088 C2086 1.389 . S
C2088 C2089 1.524 . S
C2088 C2102 1.377 . S
C2089 C2088 1.524 . S
C2089 C2090 1.397 . S
C2089 C2094 1.363 . S
C2090 H2067 0.950 . S
C2090 C2089 1.397 . S
C2090 C2091 1.334 . S
C2091 H2068 0.950 . S
C2091 C2090 1.334 . S
C2091 C2092 1.287 . S
C2092 C2091 1.287 . S
C2092 C2093 1.524 . S
C2092 H2111 0.913 . S
C2093 H2069 0.950 . S
C2093 C2092 1.524 . S
C2093 C2094 1.415 . S
C2094 H2070 0.950 . S
C2094 C2089 1.363 . S
C2094 C2093 1.415 . S
C2095 H2071 0.951 . S
C2095 C2096 1.366 . S
C2095 C2097 1.388 . S
C2096 C2095 1.366 . S
C2096 C2100 1.385 . S
C2097 H2072 0.951 . S
C2097 C2095 1.388 . S
C2097 C2098 1.366 . S
C2098 C2097 1.366 . S
C2098 C2099 1.414 . S
C2098 C2101 1.499 . S
C2099 H2073 0.950 . S
C2099 C2098 1.414 . S
C2099 C2100 1.374 . S
C2100 H2074 0.950 . S
C2100 C2096 1.385 . S
C2100 C2099 1.374 . S
C2101 C2098 1.499 . S
C2101 C2102 1.373 . S
C2101 C2103 1.389 . S
C2102 H2075 0.950 . S
C2102 C2088 1.377 . S
C2102 C2101 1.373 . S
C2103 C2087 1.377 . S
C2103 C2101 1.389 . S
C2103 C2104 1.524 . S
C2104 C2103 1.524 . S
C2104 C2105 1.397 . S
C2104 C2109 1.363 . S
C2105 H2076 0.950 . S
C2105 C2104 1.397 . S
C2105 C2106 1.334 . S
C2106 H2077 0.950 . S
C2106 C2105 1.334 . S
C2106 C2107 1.287 . S
C2107 C2106 1.287 . S
C2107 C2108 1.524 . S
C2107 H2110 0.999 . S
C2108 H2078 0.950 . S
C2108 C2107 1.524 . S
C2108 C2109 1.415 . S
C2109 H2079 0.950 . S
C2109 C2104 1.363 . S
C2109 C2108 1.415 . S
H2110 C2107 0.999 . S
H2111 C2092 0.913 . S
H2112 C2130 0.951 . S
H2113 C2132 0.951 . S
H2114 C2134 0.950 . S
H2115 C2135 0.950 . S
H2116 C2137 0.950 . S
H2117 C2140 0.950 . S
H2118 C2141 0.950 . S
H2119 C2143 0.950 . S
H2120 C2144 0.950 . S
H2121 C2145 0.951 . S
H2122 C2147 0.951 . S
H2123 C2149 0.950 . S
H2124 C2150 0.950 . S
H2125 C2152 0.950 . S
H2126 C2155 0.950 . S
H2127 C2156 0.950 . S
H2128 C2158 0.950 . S
H2129 C2159 0.950 . S
C2130 H2112 0.951 . S
C2130 C2131 1.366 . S
C2130 C2132 1.388 . S
C2131 C2130 1.366 . S
C2131 C2135 1.385 . S
C2132 H2113 0.951 . S
C2132 C2130 1.388 . S
C2132 C2133 1.366 . S
C2133 C2132 1.366 . S
C2133 C2134 1.414 . S
C2133 C2136 1.499 . S
C2134 H2114 0.950 . S
C2134 C2133 1.414 . S
C2134 C2135 1.374 . S
C2135 H2115 0.950 . S
C2135 C2131 1.385 . S
C2135 C2134 1.374 . S
C2136 C2133 1.499 . S
C2136 C2137 1.373 . S
C2136 C2138 1.389 . S
C2137 H2116 0.950 . S
C2137 C2136 1.373 . S
C2137 C2153 1.377 . S
C2138 C2136 1.389 . S
C2138 C2139 1.524 . S
C2138 C2152 1.377 . S
C2139 C2138 1.524 . S
C2139 C2140 1.397 . S
C2139 C2144 1.363 . S
C2140 H2117 0.950 . S
C2140 C2139 1.397 . S
C2140 C2141 1.334 . S
C2141 H2118 0.950 . S
C2141 C2140 1.334 . S
C2141 C2142 1.287 . S
C2142 C2141 1.287 . S
C2142 C2143 1.524 . S
C2142 H2161 0.913 . S
C2143 H2119 0.950 . S
C2143 C2142 1.524 . S
C2143 C2144 1.415 . S
C2144 H2120 0.950 . S
C2144 C2139 1.363 . S
C2144 C2143 1.415 . S
C2145 H2121 0.951 . S
C2145 C2146 1.366 . S
C2145 C2147 1.388 . S
C2146 C2145 1.366 . S
C2146 C2150 1.385 . S
C2147 H2122 0.951 . S
C2147 C2145 1.388 . S
C2147 C2148 1.366 . S
C2148 C2147 1.366 . S
C2148 C2149 1.414 . S
C2148 C2151 1.499 . S
C2149 H2123 0.950 . S
C2149 C2148 1.414 . S
C2149 C2150 1.374 . S
C2150 H2124 0.950 . S
C2150 C2146 1.385 . S
C2150 C2149 1.374 . S
C2151 C2148 1.499 . S
C2151 C2152 1.373 . S
C2151 C2153 1.389 . S
C2152 H2125 0.950 . S
C2152 C2138 1.377 . S
C2152 C2151 1.373 . S
C2153 C2137 1.377 . S
C2153 C2151 1.389 . S
C2153 C2154 1.524 . S
C2154 C2153 1.524 . S
C2154 C2155 1.397 . S
C2154 C2159 1.363 . S
C2155 H2126 0.950 . S
C2155 C2154 1.397 . S
C2155 C2156 1.334 . S
C2156 H2127 0.950 . S
C2156 C2155 1.334 . S
C2156 C2157 1.287 . S
C2157 C2156 1.287 . S
C2157 C2158 1.524 . S
C2157 H2160 0.999 . S
C2158 H2128 0.950 . S
C2158 C2157 1.524 . S
C2158 C2159 1.415 . S
C2159 H2129 0.950 . S
C2159 C2154 1.363 . S
C2159 C2158 1.415 . S
H2160 C2157 0.999 . S
H2161 C2142 0.913 . S
H2162 C2180 0.951 . S
H2163 C2182 0.951 . S
H2164 C2184 0.950 . S
H2165 C2185 0.950 . S
H2166 C2187 0.950 . S
H2167 C2190 0.950 . S
H2168 C2191 0.950 . S
H2169 C2193 0.950 . S
H2170 C2194 0.950 . S
H2171 C2195 0.951 . S
H2172 C2197 0.951 . S
H2173 C2199 0.950 . S
H2174 C2200 0.950 . S
H2175 C2202 0.950 . S
H2176 C2205 0.950 . S
H2177 C2206 0.950 . S
H2178 C2208 0.950 . S
H2179 C2209 0.950 . S
C2180 H2162 0.951 . S
C2180 C2181 1.366 . S
C2180 C2182 1.388 . S
C2181 C2180 1.366 . S
C2181 C2185 1.385 . S
C2182 H2163 0.951 . S
C2182 C2180 1.388 . S
C2182 C2183 1.366 . S
C2183 C2182 1.366 . S
C2183 C2184 1.414 . S
C2183 C2186 1.499 . S
C2184 H2164 0.950 . S
C2184 C2183 1.414 . S
C2184 C2185 1.374 . S
C2185 H2165 0.950 . S
C2185 C2181 1.385 . S
C2185 C2184 1.374 . S
C2186 C2183 1.499 . S
C2186 C2187 1.373 . S
C2186 C2188 1.389 . S
C2187 H2166 0.950 . S
C2187 C2186 1.373 . S
C2187 C2203 1.377 . S
C2188 C2186 1.389 . S
C2188 C2189 1.524 . S
C2188 C2202 1.377 . S
C2189 C2188 1.524 . S
C2189 C2190 1.397 . S
C2189 C2194 1.363 . S
C2190 H2167 0.950 . S
C2190 C2189 1.397 . S
C2190 C2191 1.334 . S
C2191 H2168 0.950 . S
C2191 C2190 1.334 . S
C2191 C2192 1.287 . S
C2192 C2191 1.287 . S
C2192 C2193 1.524 . S
C2192 H2211 0.913 . S
C2193 H2169 0.950 . S
C2193 C2192 1.524 . S
C2193 C2194 1.415 . S
C2194 H2170 0.950 . S
C2194 C2189 1.363 . S
C2194 C2193 1.415 . S
C2195 H2171 0.951 . S
C2195 C2196 1.366 . S
C2195 C2197 1.388 . S
C2196 C2195 1.366 . S
C2196 C2200 1.385 . S
C2197 H2172 0.951 . S
C2197 C2195 1.388 . S
C2197 C2198 1.366 . S
C2198 C2197 1.366 . S
C2198 C2199 1.414 . S
C2198 C2201 1.499 . S
C2199 H2173 0.950 . S
C2199 C2198 1.414 . S
C2199 C2200 1.374 . S
C2200 H2174 0.950 . S
C2200 C2196 1.385 . S
C2200 C2199 1.374 . S
C2201 C2198 1.499 . S
C2201 C2202 1.373 . S
C2201 C2203 1.389 . S
C2202 H2175 0.950 . S
C2202 C2188 1.377 . S
C2202 C2201 1.373 . S
C2203 C2187 1.377 . S
C2203 C2201 1.389 . S
C2203 C2204 1.524 . S
C2204 C2203 1.524 . S
C2204 C2205 1.397 . S
C2204 C2209 1.363 . S
C2205 H2176 0.950 . S
C2205 C2204 1.397 . S
C2205 C2206 1.334 . S
C2206 H2177 0.950 . S
C2206 C2205 1.334 . S
C2206 C2207 1.287 . S
C2207 C2206 1.287 . S
C2207 C2208 1.524 . S
C2207 H2210 0.999 . S
C2208 H2178 0.950 . S
C2208 C2207 1.524 . S
C2208 C2209 1.415 . S
C2209 H2179 0.950 . S
C2209 C2204 1.363 . S
C2209 C2208 1.415 . S
H2210 C2207 0.999 . S
H2211 C2192 0.913 . S
H2212 C2230 0.951 . S
H2213 C2232 0.951 . S
H2214 C2234 0.950 . S
H2215 C2235 0.950 . S
H2216 C2237 0.950 . S
H2217 C2240 0.950 . S
H2218 C2241 0.950 . S
H2219 C2243 0.950 . S
H2220 C2244 0.950 . S
H2221 C2245 0.951 . S
H2222 C2247 0.951 . S
H2223 C2249 0.950 . S
H2224 C2250 0.950 . S
H2225 C2252 0.950 . S
H2226 C2255 0.950 . S
H2227 C2256 0.950 . S
H2228 C2258 0.950 . S
H2229 C2259 0.950 . S
C2230 H2212 0.951 . S
C2230 C2231 1.366 . S
C2230 C2232 1.388 . S
C2231 C2230 1.366 . S
C2231 C2235 1.385 . S
C2232 H2213 0.951 . S
C2232 C2230 1.388 . S
C2232 C2233 1.366 . S
C2233 C2232 1.366 . S
C2233 C2234 1.414 . S
C2233 C2236 1.499 . S
C2234 H2214 0.950 . S
C2234 C2233 1.414 . S
C2234 C2235 1.374 . S
C2235 H2215 0.950 . S
C2235 C2231 1.385 . S
C2235 C2234 1.374 . S
C2236 C2233 1.499 . S
C2236 C2237 1.373 . S
C2236 C2238 1.389 . S
C2237 H2216 0.950 . S
C2237 C2236 1.373 . S
C2237 C2253 1.377 . S
C2238 C2236 1.389 . S
C2238 C2239 1.524 . S
C2238 C2252 1.377 . S
C2239 C2238 1.524 . S
C2239 C2240 1.397 . S
C2239 C2244 1.363 . S
C2240 H2217 0.950 . S
C2240 C2239 1.397 . S
C2240 C2241 1.334 . S
C2241 H2218 0.950 . S
C2241 C2240 1.334 . S
C2241 C2242 1.287 . S
C2242 C2241 1.287 . S
C2242 C2243 1.524 . S
C2242 H2261 0.913 . S
C2243 H2219 0.950 . S
C2243 C2242 1.524 . S
C2243 C2244 1.415 . S
C2244 H2220 0.950 . S
C2244 C2239 1.363 . S
C2244 C2243 1.415 . S
C2245 H2221 0.951 . S
C2245 C2246 1.366 . S
C2245 C2247 1.388 . S
C2246 C2245 1.366 . S
C2246 C2250 1.385 . S
C2247 H2222 0.951 . S
C2247 C2245 1.388 . S
C2247 C2248 1.366 . S
C2248 C2247 1.366 . S
C2248 C2249 1.414 . S
C2248 C2251 1.499 . S
C2249 H2223 0.950 . S
C2249 C2248 1.414 . S
C2249 C2250 1.374 . S
C2250 H2224 0.950 . S
C2250 C2246 1.385 . S
C2250 C2249 1.374 . S
C2251 C2248 1.499 . S
C2251 C2252 1.373 . S
C2251 C2253 1.389 . S
C2252 H2225 0.950 . S
C2252 C2238 1.377 . S
C2252 C2251 1.373 . S
C2253 C2237 1.377 . S
C2253 C2251 1.389 . S
C2253 C2254 1.524 . S
C2254 C2253 1.524 . S
C2254 C2255 1.397 . S
C2254 C2259 1.363 . S
C2255 H2226 0.950 . S
C2255 C2254 1.397 . S
C2255 C2256 1.334 . S
C2256 H2227 0.950 . S
C2256 C2255 1.334 . S
C2256 C2257 1.287 . S
C2257 C2256 1.287 . S
C2257 C2258 1.524 . S
C2257 H2260 0.999 . S
C2258 H2228 0.950 . S
C2258 C2257 1.524 . S
C2258 C2259 1.415 . S
C2259 H2229 0.950 . S
C2259 C2254 1.363 . S
C2259 C2258 1.415 . S
H2260 C2257 0.999 . S
H2261 C2242 0.913 . S
H2262 C2280 0.951 . S
H2263 C2282 0.951 . S
H2264 C2284 0.950 . S
H2265 C2285 0.950 . S
H2266 C2287 0.950 . S
H2267 C2290 0.950 . S
H2268 C2291 0.950 . S
H2269 C2293 0.950 . S
H2270 C2294 0.950 . S
H2271 C2295 0.951 . S
H2272 C2297 0.951 . S
H2273 C2299 0.950 . S
H2274 C2300 0.950 . S
H2275 C2302 0.950 . S
H2276 C2305 0.950 . S
H2277 C2306 0.950 . S
H2278 C2308 0.950 . S
H2279 C2309 0.950 . S
C2280 H2262 0.951 . S
C2280 C2281 1.366 . S
C2280 C2282 1.388 . S
C2281 C2280 1.366 . S
C2281 C2285 1.385 . S
C2282 H2263 0.951 . S
C2282 C2280 1.388 . S
C2282 C2283 1.366 . S
C2283 C2282 1.366 . S
C2283 C2284 1.414 . S
C2283 C2286 1.499 . S
C2284 H2264 0.950 . S
C2284 C2283 1.414 . S
C2284 C2285 1.374 . S
C2285 H2265 0.950 . S
C2285 C2281 1.385 . S
C2285 C2284 1.374 . S
C2286 C2283 1.499 . S
C2286 C2287 1.373 . S
C2286 C2288 1.389 . S
C2287 H2266 0.950 . S
C2287 C2286 1.373 . S
C2287 C2303 1.377 . S
C2288 C2286 1.389 . S
C2288 C2289 1.524 . S
C2288 C2302 1.377 . S
C2289 C2288 1.524 . S
C2289 C2290 1.397 . S
C2289 C2294 1.363 . S
C2290 H2267 0.950 . S
C2290 C2289 1.397 . S
C2290 C2291 1.334 . S
C2291 H2268 0.950 . S
C2291 C2290 1.334 . S
C2291 C2292 1.287 . S
C2292 C2291 1.287 . S
C2292 C2293 1.524 . S
C2292 H2311 0.913 . S
C2293 H2269 0.950 . S
C2293 C2292 1.524 . S
C2293 C2294 1.415 . S
C2294 H2270 0.950 . S
C2294 C2289 1.363 . S
C2294 C2293 1.415 . S
C2295 H2271 0.951 . S
C2295 C2296 1.366 . S
C2295 C2297 1.388 . S
C2296 C2295 1.366 . S
C2296 C2300 1.385 . S
C2297 H2272 0.951 . S
C2297 C2295 1.388 . S
C2297 C2298 1.366 . S
C2298 C2297 1.366 . S
C2298 C2299 1.414 . S
C2298 C2301 1.499 . S
C2299 H2273 0.950 . S
C2299 C2298 1.414 . S
C2299 C2300 1.374 . S
C2300 H2274 0.950 . S
C2300 C2296 1.385 . S
C2300 C2299 1.374 . S
C2301 C2298 1.499 . S
C2301 C2302 1.373 . S
C2301 C2303 1.389 . S
C2302 H2275 0.950 . S
C2302 C2288 1.377 . S
C2302 C2301 1.373 . S
C2303 C2287 1.377 . S
C2303 C2301 1.389 . S
C2303 C2304 1.524 . S
C2304 C2303 1.524 . S
C2304 C2305 1.397 . S
C2304 C2309 1.363 . S
C2305 H2276 0.950 . S
C2305 C2304 1.397 . S
C2305 C2306 1.334 . S
C2306 H2277 0.950 . S
C2306 C2305 1.334 . S
C2306 C2307 1.287 . S
C2307 C2306 1.287 . S
C2307 C2308 1.524 . S
C2307 H2310 0.999 . S
C2308 H2278 0.950 . S
C2308 C2307 1.524 . S
C2308 C2309 1.415 . S
C2309 H2279 0.950 . S
C2309 C2304 1.363 . S
C2309 C2308 1.415 . S
H2310 C2307 0.999 . S
H2311 C2292 0.913 . S
H2312 C2330 0.951 . S
H2313 C2332 0.951 . S
H2314 C2334 0.950 . S
H2315 C2335 0.950 . S
H2316 C2337 0.950 . S
H2317 C2340 0.950 . S
H2318 C2341 0.950 . S
H2319 C2343 0.950 . S
H2320 C2344 0.950 . S
H2321 C2345 0.951 . S
H2322 C2347 0.951 . S
H2323 C2349 0.950 . S
H2324 C2350 0.950 . S
H2325 C2352 0.950 . S
H2326 C2355 0.950 . S
H2327 C2356 0.950 . S
H2328 C2358 0.950 . S
H2329 C2359 0.950 . S
C2330 H2312 0.951 . S
C2330 C2331 1.366 . S
C2330 C2332 1.388 . S
C2331 C2330 1.366 . S
C2331 C2335 1.385 . S
C2332 H2313 0.951 . S
C2332 C2330 1.388 . S
C2332 C2333 1.366 . S
C2333 C2332 1.366 . S
C2333 C2334 1.414 . S
C2333 C2336 1.499 . S
C2334 H2314 0.950 . S
C2334 C2333 1.414 . S
C2334 C2335 1.374 . S
C2335 H2315 0.950 . S
C2335 C2331 1.385 . S
C2335 C2334 1.374 . S
C2336 C2333 1.499 . S
C2336 C2337 1.373 . S
C2336 C2338 1.389 . S
C2337 H2316 0.950 . S
C2337 C2336 1.373 . S
C2337 C2353 1.377 . S
C2338 C2336 1.389 . S
C2338 C2339 1.524 . S
C2338 C2352 1.377 . S
C2339 C2338 1.524 . S
C2339 C2340 1.397 . S
C2339 C2344 1.363 . S
C2340 H2317 0.950 . S
C2340 C2339 1.397 . S
C2340 C2341 1.334 . S
C2341 H2318 0.950 . S
C2341 C2340 1.334 . S
C2341 C2342 1.287 . S
C2342 C2341 1.287 . S
C2342 C2343 1.524 . S
C2342 H2361 0.913 . S
C2343 H2319 0.950 . S
C2343 C2342 1.524 . S
C2343 C2344 1.415 . S
C2344 H2320 0.950 . S
C2344 C2339 1.363 . S
C2344 C2343 1.415 . S
C2345 H2321 0.951 . S
C2345 C2346 1.366 . S
C2345 C2347 1.388 . S
C2346 C2345 1.366 . S
C2346 C2350 1.385 . S
C2347 H2322 0.951 . S
C2347 C2345 1.388 . S
C2347 C2348 1.366 . S
C2348 C2347 1.366 . S
C2348 C2349 1.414 . S
C2348 C2351 1.499 . S
C2349 H2323 0.950 . S
C2349 C2348 1.414 . S
C2349 C2350 1.374 . S
C2350 H2324 0.950 . S
C2350 C2346 1.385 . S
C2350 C2349 1.374 . S
C2351 C2348 1.499 . S
C2351 C2352 1.373 . S
C2351 C2353 1.389 . S
C2352 H2325 0.950 . S
C2352 C2338 1.377 . S
C2352 C2351 1.373 . S
C2353 C2337 1.377 . S
C2353 C2351 1.389 . S
C2353 C2354 1.524 . S
C2354 C2353 1.524 . S
C2354 C2355 1.397 . S
C2354 C2359 1.363 . S
C2355 H2326 0.950 . S
C2355 C2354 1.397 . S
C2355 C2356 1.334 . S
C2356 H2327 0.950 . S
C2356 C2355 1.334 . S
C2356 C2357 1.287 . S
C2357 C2356 1.287 . S
C2357 C2358 1.524 . S
C2357 H2360 0.999 . S
C2358 H2328 0.950 . S
C2358 C2357 1.524 . S
C2358 C2359 1.415 . S
C2359 H2329 0.950 . S
C2359 C2354 1.363 . S
C2359 C2358 1.415 . S
H2360 C2357 0.999 . S
H2361 C2342 0.913 . S
H2362 C2380 0.951 . S
H2363 C2382 0.951 . S
H2364 C2384 0.950 . S
H2365 C2385 0.950 . S
H2366 C2387 0.950 . S
H2367 C2390 0.950 . S
H2368 C2391 0.950 . S
H2369 C2393 0.950 . S
H2370 C2394 0.950 . S
H2371 C2395 0.951 . S
H2372 C2397 0.951 . S
H2373 C2399 0.950 . S
H2374 C2400 0.950 . S
H2375 C2402 0.950 . S
H2376 C2405 0.950 . S
H2377 C2406 0.950 . S
H2378 C2408 0.950 . S
H2379 C2409 0.950 . S
C2380 H2362 0.951 . S
C2380 C2381 1.366 . S
C2380 C2382 1.388 . S
C2381 C2380 1.366 . S
C2381 C2385 1.385 . S
C2382 H2363 0.951 . S
C2382 C2380 1.388 . S
C2382 C2383 1.366 . S
C2383 C2382 1.366 . S
C2383 C2384 1.414 . S
C2383 C2386 1.499 . S
C2384 H2364 0.950 . S
C2384 C2383 1.414 . S
C2384 C2385 1.374 . S
C2385 H2365 0.950 . S
C2385 C2381 1.385 . S
C2385 C2384 1.374 . S
C2386 C2383 1.499 . S
C2386 C2387 1.373 . S
C2386 C2388 1.389 . S
C2387 H2366 0.950 . S
C2387 C2386 1.373 . S
C2387 C2403 1.377 . S
C2388 C2386 1.389 . S
C2388 C2389 1.524 . S
C2388 C2402 1.377 . S
C2389 C2388 1.524 . S
C2389 C2390 1.397 . S
C2389 C2394 1.363 . S
C2390 H2367 0.950 . S
C2390 C2389 1.397 . S
C2390 C2391 1.334 . S
C2391 H2368 0.950 . S
C2391 C2390 1.334 . S
C2391 C2392 1.287 . S
C2392 C2391 1.287 . S
C2392 C2393 1.524 . S
C2392 H2411 0.913 . S
C2393 H2369 0.950 . S
C2393 C2392 1.524 . S
C2393 C2394 1.415 . S
C2394 H2370 0.950 . S
C2394 C2389 1.363 . S
C2394 C2393 1.415 . S
C2395 H2371 0.951 . S
C2395 C2396 1.366 . S
C2395 C2397 1.388 . S
C2396 C2395 1.366 . S
C2396 C2400 1.385 . S
C2397 H2372 0.951 . S
C2397 C2395 1.388 . S
C2397 C2398 1.366 . S
C2398 C2397 1.366 . S
C2398 C2399 1.414 . S
C2398 C2401 1.499 . S
C2399 H2373 0.950 . S
C2399 C2398 1.414 . S
C2399 C2400 1.374 . S
C2400 H2374 0.950 . S
C2400 C2396 1.385 . S
C2400 C2399 1.374 . S
C2401 C2398 1.499 . S
C2401 C2402 1.373 . S
C2401 C2403 1.389 . S
C2402 H2375 0.950 . S
C2402 C2388 1.377 . S
C2402 C2401 1.373 . S
C2403 C2387 1.377 . S
C2403 C2401 1.389 . S
C2403 C2404 1.524 . S
C2404 C2403 1.524 . S
C2404 C2405 1.397 . S
C2404 C2409 1.363 . S
C2405 H2376 0.950 . S
C2405 C2404 1.397 . S
C2405 C2406 1.334 . S
C2406 H2377 0.950 . S
C2406 C2405 1.334 . S
C2406 C2407 1.287 . S
C2407 C2406 1.287 . S
C2407 C2408 1.524 . S
C2407 H2410 0.999 . S
C2408 H2378 0.950 . S
C2408 C2407 1.524 . S
C2408 C2409 1.415 . S
C2409 H2379 0.950 . S
C2409 C2404 1.363 . S
C2409 C2408 1.415 . S
H2410 C2407 0.999 . S
H2411 C2392 0.913 . S
H2412 C2430 0.951 . S
H2413 C2432 0.951 . S
H2414 C2434 0.950 . S
H2415 C2435 0.950 . S
H2416 C2437 0.950 . S
H2417 C2440 0.950 . S
H2418 C2441 0.950 . S
H2419 C2443 0.950 . S
H2420 C2444 0.950 1_556 S
H2421 C2445 0.951 . S
H2422 C2447 0.951 . S
H2423 C2449 0.935 1_565 S
H2424 C2450 0.950 1_565 S
H2425 C2452 0.950 . S
H2426 C2455 0.950 . S
H2427 C2456 0.950 . S
H2428 C2458 0.950 . S
H2429 C2459 0.950 1_554 S
C2430 H2412 0.951 . S
C2430 C2431 1.366 . S
C2430 C2432 1.388 . S
C2431 C2430 1.366 . S
C2431 C2435 1.385 1_565 S
C2432 H2413 0.951 . S
C2432 C2430 1.388 . S
C2432 C2433 1.366 1_565 S
C2433 C2432 1.366 1_545 S
C2433 C2434 1.414 . S
C2433 C2436 1.499 . S
C2434 H2414 0.950 . S
C2434 C2433 1.414 . S
C2434 C2435 1.374 . S
C2435 H2415 0.950 . S
C2435 C2431 1.385 1_545 S
C2435 C2434 1.374 . S
C2436 C2433 1.499 . S
C2436 C2437 1.373 . S
C2436 C2438 1.389 1_545 S
C2437 H2416 0.950 . S
C2437 C2436 1.373 . S
C2437 C2453 1.377 1_554 S
C2438 C2436 1.389 1_565 S
C2438 C2439 1.524 . S
C2438 C2452 1.377 1_554 S
C2439 C2438 1.524 . S
C2439 C2440 1.397 . S
C2439 C2444 1.363 . S
C2440 H2417 0.950 . S
C2440 C2439 1.397 . S
C2440 C2441 1.334 . S
C2441 H2418 0.950 . S
C2441 C2440 1.334 . S
C2441 C2442 1.287 . S
C2442 C2441 1.287 . S
C2442 C2443 1.524 . S
C2442 H2461 0.913 . S
C2443 H2419 0.950 . S
C2443 C2442 1.524 . S
C2443 C2444 1.415 . S
C2444 H2420 0.950 1_554 S
C2444 C2439 1.363 . S
C2444 C2443 1.415 . S
C2445 H2421 0.951 . S
C2445 C2446 1.366 . S
C2445 C2447 1.388 . S
C2446 C2445 1.366 . S
C2446 C2450 1.385 . S
C2447 H2422 0.951 . S
C2447 C2445 1.388 . S
C2447 C2448 1.366 . S
C2448 C2447 1.366 . S
C2448 C2449 1.427 . S
C2448 C2451 1.499 . S
C2449 H2423 0.935 1_545 S
C2449 C2448 1.427 . S
C2449 C2450 1.378 . S
C2450 H2424 0.950 1_545 S
C2450 C2446 1.385 . S
C2450 C2449 1.378 . S
C2451 C2448 1.499 . S
C2451 C2452 1.373 1_545 S
C2451 C2453 1.389 . S
C2452 H2425 0.950 . S
C2452 C2438 1.377 1_556 S
C2452 C2451 1.373 1_565 S
C2453 C2437 1.377 1_556 S
C2453 C2451 1.389 . S
C2453 C2454 1.524 . S
C2454 C2453 1.524 . S
C2454 C2455 1.397 . S
C2454 C2459 1.363 . S
C2455 H2426 0.950 . S
C2455 C2454 1.397 . S
C2455 C2456 1.334 . S
C2456 H2427 0.950 . S
C2456 C2455 1.334 . S
C2456 C2457 1.287 . S
C2457 C2456 1.287 . S
C2457 C2458 1.524 . S
C2457 H2460 0.999 . S
C2458 H2428 0.950 . S
C2458 C2457 1.524 . S
C2458 C2459 1.415 . S
C2459 H2429 0.950 1_556 S
C2459 C2454 1.363 . S
C2459 C2458 1.415 . S
H2460 C2457 0.999 . S
H2461 C2442 0.913 . S
H2462 C2480 0.951 . S
H2463 C2482 0.951 . S
H2464 C2484 0.950 . S
H2465 C2485 0.950 . S
H2466 C2487 0.950 . S
H2467 C2490 0.950 . S
H2468 C2491 0.950 . S
H2469 C2493 0.950 . S
H2470 C2494 0.950 . S
H2471 C2495 0.971 . S
H2472 C2497 0.951 . S
H2473 C2499 0.983 . S
H2474 C2500 0.950 . S
H2475 C2502 0.950 . S
H2476 C2505 0.950 . S
H2477 C2506 0.950 . S
H2478 C2508 0.950 . S
H2479 C2509 0.950 . S
C2480 H2462 0.951 . S
C2480 C2481 1.366 . S
C2480 C2482 1.388 . S
C2481 C2480 1.366 . S
C2481 C2485 1.385 . S
C2482 H2463 0.951 . S
C2482 C2480 1.388 . S
C2482 C2483 1.366 . S
C2483 C2482 1.366 . S
C2483 C2484 1.414 . S
C2483 C2486 1.499 . S
C2484 H2464 0.950 . S
C2484 C2483 1.414 . S
C2484 C2485 1.374 . S
C2485 H2465 0.950 . S
C2485 C2481 1.385 . S
C2485 C2484 1.374 . S
C2486 C2483 1.499 . S
C2486 C2487 1.373 1_455 S
C2486 C2488 1.389 . S
C2487 H2466 0.950 . S
C2487 C2486 1.373 1_655 S
C2487 C2503 1.377 1_554 S
C2488 C2486 1.389 . S
C2488 C2489 1.524 . S
C2488 C2502 1.377 1_554 S
C2489 C2488 1.524 . S
C2489 C2490 1.397 . S
C2489 C2494 1.363 . S
C2490 H2467 0.950 . S
C2490 C2489 1.397 . S
C2490 C2491 1.334 . S
C2491 H2468 0.950 . S
C2491 C2490 1.334 . S
C2491 C2492 1.287 . S
C2492 C2491 1.287 . S
C2492 C2493 1.524 . S
C2492 H2511 0.913 . S
C2493 H2469 0.950 . S
C2493 C2492 1.524 . S
C2493 C2494 1.415 . S
C2494 H2470 0.950 . S
C2494 C2489 1.363 . S
C2494 C2493 1.415 . S
C2495 H2471 0.971 . S
C2495 C2496 1.351 . S
C2495 C2497 1.385 1_655 S
C2496 C2495 1.351 . S
C2496 C2500 1.385 . S
C2497 H2472 0.951 . S
C2497 C2495 1.385 1_455 S
C2497 C2498 1.366 . S
C2498 C2497 1.366 . S
C2498 C2499 1.391 . S
C2498 C2501 1.499 . S
C2499 H2473 0.983 . S
C2499 C2498 1.391 . S
C2499 C2500 1.369 1_455 S
C2500 H2474 0.950 . S
C2500 C2496 1.385 . S
C2500 C2499 1.369 1_655 S
C2501 C2498 1.499 . S
C2501 C2502 1.373 . S
C2501 C2503 1.389 1_455 S
C2502 H2475 0.950 . S
C2502 C2488 1.377 1_556 S
C2502 C2501 1.373 . S
C2503 C2487 1.377 1_556 S
C2503 C2501 1.389 1_655 S
C2503 C2504 1.524 . S
C2504 C2503 1.524 . S
C2504 C2505 1.397 . S
C2504 C2509 1.363 . S
C2505 H2476 0.950 . S
C2505 C2504 1.397 . S
C2505 C2506 1.334 . S
C2506 H2477 0.950 . S
C2506 C2505 1.334 . S
C2506 C2507 1.287 . S
C2507 C2506 1.287 . S
C2507 C2508 1.524 . S
C2507 H2510 0.999 . S
C2508 H2478 0.950 . S
C2508 C2507 1.524 . S
C2508 C2509 1.415 . S
C2509 H2479 0.950 . S
C2509 C2504 1.363 . S
C2509 C2508 1.415 . S
H2510 C2507 0.999 . S
H2511 C2492 0.913 . S
H2512 C2530 0.951 . S
H2513 C2532 0.951 . S
H2514 C2534 0.950 . S
H2515 C2535 0.950 . S
H2516 C2537 0.950 . S
H2517 C2540 0.950 . S
H2518 C2541 0.950 . S
H2519 C2543 0.950 . S
H2520 C2544 0.950 . S
H2521 C2545 0.951 . S
H2522 C2547 0.951 . S
H2523 C2549 0.950 . S
H2524 C2550 0.950 . S
H2525 C2552 0.950 . S
H2526 C2555 0.950 . S
H2527 C2556 0.950 . S
H2528 C2558 0.950 . S
H2529 C2559 0.950 . S
C2530 H2512 0.951 . S
C2530 C2531 1.366 . S
C2530 C2532 1.388 . S
C2531 C2530 1.366 . S
C2531 C2535 1.385 . S
C2532 H2513 0.951 . S
C2532 C2530 1.388 . S
C2532 C2533 1.366 . S
C2533 C2532 1.366 . S
C2533 C2534 1.414 . S
C2533 C2536 1.499 . S
C2534 H2514 0.950 . S
C2534 C2533 1.414 . S
C2534 C2535 1.374 . S
C2535 H2515 0.950 . S
C2535 C2531 1.385 . S
C2535 C2534 1.374 . S
C2536 C2533 1.499 . S
C2536 C2537 1.373 . S
C2536 C2538 1.389 . S
C2537 H2516 0.950 . S
C2537 C2536 1.373 . S
C2537 C2553 1.377 1_556 S
C2538 C2536 1.389 . S
C2538 C2539 1.524 . S
C2538 C2552 1.377 1_556 S
C2539 C2538 1.524 . S
C2539 C2540 1.397 . S
C2539 C2544 1.363 . S
C2540 H2517 0.950 . S
C2540 C2539 1.397 . S
C2540 C2541 1.334 . S
C2541 H2518 0.950 . S
C2541 C2540 1.334 . S
C2541 C2542 1.287 . S
C2542 C2541 1.287 . S
C2542 C2543 1.524 . S
C2542 H2561 0.913 . S
C2543 H2519 0.950 . S
C2543 C2542 1.524 . S
C2543 C2544 1.415 . S
C2544 H2520 0.950 . S
C2544 C2539 1.363 . S
C2544 C2543 1.415 . S
C2545 H2521 0.951 . S
C2545 C2546 1.366 . S
C2545 C2547 1.388 . S
C2546 C2545 1.366 . S
C2546 C2550 1.385 . S
C2547 H2522 0.951 . S
C2547 C2545 1.388 . S
C2547 C2548 1.366 . S
C2548 C2547 1.366 . S
C2548 C2549 1.414 . S
C2548 C2551 1.499 . S
C2549 H2523 0.950 . S
C2549 C2548 1.414 . S
C2549 C2550 1.374 . S
C2550 H2524 0.950 . S
C2550 C2546 1.385 . S
C2550 C2549 1.374 . S
C2551 C2548 1.499 . S
C2551 C2552 1.373 . S
C2551 C2553 1.389 . S
C2552 H2525 0.950 . S
C2552 C2538 1.377 1_554 S
C2552 C2551 1.373 . S
C2553 C2537 1.377 1_554 S
C2553 C2551 1.389 . S
C2553 C2554 1.524 . S
C2554 C2553 1.524 . S
C2554 C2555 1.397 . S
C2554 C2559 1.363 . S
C2555 H2526 0.950 . S
C2555 C2554 1.397 . S
C2555 C2556 1.334 . S
C2556 H2527 0.950 . S
C2556 C2555 1.334 . S
C2556 C2557 1.287 . S
C2557 C2556 1.287 . S
C2557 C2558 1.524 . S
C2557 H2560 0.999 . S
C2558 H2528 0.950 . S
C2558 C2557 1.524 . S
C2558 C2559 1.415 . S
C2559 H2529 0.950 . S
C2559 C2554 1.363 . S
C2559 C2558 1.415 . S
H2560 C2557 0.999 . S
H2561 C2542 0.913 . S
H2562 C2580 0.951 . S
H2563 C2582 0.951 . S
H2564 C2584 0.950 . S
H2565 C2585 0.950 . S
H2566 C2587 0.950 . S
H2567 C2590 0.950 . S
H2568 C2591 0.950 . S
H2569 C2593 0.950 . S
H2570 C2594 0.950 . S
H2571 C2595 0.951 . S
H2572 C2597 0.951 . S
H2573 C2599 0.950 . S
H2574 C2600 0.950 . S
H2575 C2602 0.950 . S
H2576 C2605 0.950 . S
H2577 C2606 0.950 . S
H2578 C2608 0.950 . S
H2579 C2609 0.950 . S
C2580 H2562 0.951 . S
C2580 C2581 1.366 . S
C2580 C2582 1.388 . S
C2581 C2580 1.366 . S
C2581 C2585 1.385 . S
C2582 H2563 0.951 . S
C2582 C2580 1.388 . S
C2582 C2583 1.366 . S
C2583 C2582 1.366 . S
C2583 C2584 1.414 . S
C2583 C2586 1.499 . S
C2584 H2564 0.950 . S
C2584 C2583 1.414 . S
C2584 C2585 1.374 . S
C2585 H2565 0.950 . S
C2585 C2581 1.385 . S
C2585 C2584 1.374 . S
C2586 C2583 1.499 . S
C2586 C2587 1.373 . S
C2586 C2588 1.389 . S
C2587 H2566 0.950 . S
C2587 C2586 1.373 . S
C2587 C2603 1.377 . S
C2588 C2586 1.389 . S
C2588 C2589 1.524 . S
C2588 C2602 1.377 . S
C2589 C2588 1.524 . S
C2589 C2590 1.397 . S
C2589 C2594 1.363 . S
C2590 H2567 0.950 . S
C2590 C2589 1.397 . S
C2590 C2591 1.334 . S
C2591 H2568 0.950 . S
C2591 C2590 1.334 . S
C2591 C2592 1.287 . S
C2592 C2591 1.287 . S
C2592 C2593 1.524 . S
C2592 H2611 0.913 . S
C2593 H2569 0.950 . S
C2593 C2592 1.524 . S
C2593 C2594 1.415 . S
C2594 H2570 0.950 . S
C2594 C2589 1.363 . S
C2594 C2593 1.415 . S
C2595 H2571 0.951 . S
C2595 C2596 1.366 . S
C2595 C2597 1.388 . S
C2596 C2595 1.366 . S
C2596 C2600 1.385 . S
C2597 H2572 0.951 . S
C2597 C2595 1.388 . S
C2597 C2598 1.366 . S
C2598 C2597 1.366 . S
C2598 C2599 1.414 . S
C2598 C2601 1.499 . S
C2599 H2573 0.950 . S
C2599 C2598 1.414 . S
C2599 C2600 1.374 . S
C2600 H2574 0.950 . S
C2600 C2596 1.385 . S
C2600 C2599 1.374 . S
C2601 C2598 1.499 . S
C2601 C2602 1.373 . S
C2601 C2603 1.389 . S
C2602 H2575 0.950 . S
C2602 C2588 1.377 . S
C2602 C2601 1.373 . S
C2603 C2587 1.377 . S
C2603 C2601 1.389 . S
C2603 C2604 1.524 . S
C2604 C2603 1.524 . S
C2604 C2605 1.397 . S
C2604 C2609 1.363 . S
C2605 H2576 0.950 . S
C2605 C2604 1.397 . S
C2605 C2606 1.334 . S
C2606 H2577 0.950 . S
C2606 C2605 1.334 . S
C2606 C2607 1.287 . S
C2607 C2606 1.287 . S
C2607 C2608 1.524 . S
C2607 H2610 0.999 . S
C2608 H2578 0.950 . S
C2608 C2607 1.524 . S
C2608 C2609 1.415 . S
C2609 H2579 0.950 . S
C2609 C2604 1.363 . S
C2609 C2608 1.415 . S
H2610 C2607 0.999 . S
H2611 C2592 0.913 . S
H2612 C2630 0.951 . S
H2613 C2632 0.951 . S
H2614 C2634 0.950 . S
H2615 C2635 0.950 . S
H2616 C2637 0.950 . S
H2617 C2640 0.950 . S
H2618 C2641 0.950 . S
H2619 C2643 0.950 . S
H2620 C2644 0.950 . S
H2621 C2645 0.951 . S
H2622 C2647 0.951 . S
H2623 C2649 0.950 . S
H2624 C2650 0.950 . S
H2625 C2652 0.950 . S
H2626 C2655 0.950 . S
H2627 C2656 0.950 . S
H2628 C2658 0.950 . S
H2629 C2659 0.950 . S
C2630 H2612 0.951 . S
C2630 C2631 1.366 . S
C2630 C2632 1.388 . S
C2631 C2630 1.366 . S
C2631 C2635 1.385 . S
C2632 H2613 0.951 . S
C2632 C2630 1.388 . S
C2632 C2633 1.366 . S
C2633 C2632 1.366 . S
C2633 C2634 1.414 . S
C2633 C2636 1.499 . S
C2634 H2614 0.950 . S
C2634 C2633 1.414 . S
C2634 C2635 1.374 . S
C2635 H2615 0.950 . S
C2635 C2631 1.385 . S
C2635 C2634 1.374 . S
C2636 C2633 1.499 . S
C2636 C2637 1.373 . S
C2636 C2638 1.389 . S
C2637 H2616 0.950 . S
C2637 C2636 1.373 . S
C2637 C2653 1.377 . S
C2638 C2636 1.389 . S
C2638 C2639 1.524 . S
C2638 C2652 1.377 . S
C2639 C2638 1.524 . S
C2639 C2640 1.397 . S
C2639 C2644 1.363 . S
C2640 H2617 0.950 . S
C2640 C2639 1.397 . S
C2640 C2641 1.334 . S
C2641 H2618 0.950 . S
C2641 C2640 1.334 . S
C2641 C2642 1.287 . S
C2642 C2641 1.287 . S
C2642 C2643 1.524 . S
C2642 H2661 0.913 . S
C2643 H2619 0.950 . S
C2643 C2642 1.524 . S
C2643 C2644 1.415 . S
C2644 H2620 0.950 . S
C2644 C2639 1.363 . S
C2644 C2643 1.415 . S
C2645 H2621 0.951 . S
C2645 C2646 1.366 . S
C2645 C2647 1.388 . S
C2646 C2645 1.366 . S
C2646 C2650 1.385 . S
C2647 H2622 0.951 . S
C2647 C2645 1.388 . S
C2647 C2648 1.366 . S
C2648 C2647 1.366 . S
C2648 C2649 1.414 . S
C2648 C2651 1.499 . S
C2649 H2623 0.950 . S
C2649 C2648 1.414 . S
C2649 C2650 1.374 . S
C2650 H2624 0.950 . S
C2650 C2646 1.385 . S
C2650 C2649 1.374 . S
C2651 C2648 1.499 . S
C2651 C2652 1.373 . S
C2651 C2653 1.389 . S
C2652 H2625 0.950 . S
C2652 C2638 1.377 . S
C2652 C2651 1.373 . S
C2653 C2637 1.377 . S
C2653 C2651 1.389 . S
C2653 C2654 1.524 . S
C2654 C2653 1.524 . S
C2654 C2655 1.397 . S
C2654 C2659 1.363 . S
C2655 H2626 0.950 . S
C2655 C2654 1.397 . S
C2655 C2656 1.334 . S
C2656 H2627 0.950 . S
C2656 C2655 1.334 . S
C2656 C2657 1.287 . S
C2657 C2656 1.287 . S
C2657 C2658 1.524 . S
C2657 H2660 0.999 . S
C2658 H2628 0.950 . S
C2658 C2657 1.524 . S
C2658 C2659 1.415 . S
C2659 H2629 0.950 . S
C2659 C2654 1.363 . S
C2659 C2658 1.415 . S
H2660 C2657 0.999 . S
H2661 C2642 0.913 . S
H2662 C2680 0.951 . S
H2663 C2682 0.951 . S
H2664 C2684 0.950 . S
H2665 C2685 0.950 . S
H2666 C2687 0.950 . S
H2667 C2690 0.950 . S
H2668 C2691 0.950 . S
H2669 C2693 0.950 . S
H2670 C2694 0.950 . S
H2671 C2695 0.951 . S
H2672 C2697 0.951 . S
H2673 C2699 0.950 . S
H2674 C2700 0.950 . S
H2675 C2702 0.950 . S
H2676 C2705 0.950 . S
H2677 C2706 0.950 . S
H2678 C2708 0.950 . S
H2679 C2709 0.950 . S
C2680 H2662 0.951 . S
C2680 C2681 1.366 . S
C2680 C2682 1.388 . S
C2681 C2680 1.366 . S
C2681 C2685 1.385 . S
C2682 H2663 0.951 . S
C2682 C2680 1.388 . S
C2682 C2683 1.366 . S
C2683 C2682 1.366 . S
C2683 C2684 1.414 . S
C2683 C2686 1.499 . S
C2684 H2664 0.950 . S
C2684 C2683 1.414 . S
C2684 C2685 1.374 . S
C2685 H2665 0.950 . S
C2685 C2681 1.385 . S
C2685 C2684 1.374 . S
C2686 C2683 1.499 . S
C2686 C2687 1.373 . S
C2686 C2688 1.389 . S
C2687 H2666 0.950 . S
C2687 C2686 1.373 . S
C2687 C2703 1.377 . S
C2688 C2686 1.389 . S
C2688 C2689 1.524 . S
C2688 C2702 1.377 . S
C2689 C2688 1.524 . S
C2689 C2690 1.397 . S
C2689 C2694 1.363 . S
C2690 H2667 0.950 . S
C2690 C2689 1.397 . S
C2690 C2691 1.334 . S
C2691 H2668 0.950 . S
C2691 C2690 1.334 . S
C2691 C2692 1.287 . S
C2692 C2691 1.287 . S
C2692 C2693 1.524 . S
C2692 H2711 0.913 . S
C2693 H2669 0.950 . S
C2693 C2692 1.524 . S
C2693 C2694 1.415 . S
C2694 H2670 0.950 . S
C2694 C2689 1.363 . S
C2694 C2693 1.415 . S
C2695 H2671 0.951 . S
C2695 C2696 1.366 . S
C2695 C2697 1.388 . S
C2696 C2695 1.366 . S
C2696 C2700 1.385 . S
C2697 H2672 0.951 . S
C2697 C2695 1.388 . S
C2697 C2698 1.366 . S
C2698 C2697 1.366 . S
C2698 C2699 1.414 . S
C2698 C2701 1.499 . S
C2699 H2673 0.950 . S
C2699 C2698 1.414 . S
C2699 C2700 1.374 . S
C2700 H2674 0.950 . S
C2700 C2696 1.385 . S
C2700 C2699 1.374 . S
C2701 C2698 1.499 . S
C2701 C2702 1.373 . S
C2701 C2703 1.389 . S
C2702 H2675 0.950 . S
C2702 C2688 1.377 . S
C2702 C2701 1.373 . S
C2703 C2687 1.377 . S
C2703 C2701 1.389 . S
C2703 C2704 1.524 . S
C2704 C2703 1.524 . S
C2704 C2705 1.397 . S
C2704 C2709 1.363 . S
C2705 H2676 0.950 . S
C2705 C2704 1.397 . S
C2705 C2706 1.334 . S
C2706 H2677 0.950 . S
C2706 C2705 1.334 . S
C2706 C2707 1.287 . S
C2707 C2706 1.287 . S
C2707 C2708 1.524 . S
C2707 H2710 0.999 . S
C2708 H2678 0.950 . S
C2708 C2707 1.524 . S
C2708 C2709 1.415 . S
C2709 H2679 0.950 . S
C2709 C2704 1.363 . S
C2709 C2708 1.415 . S
H2710 C2707 0.999 . S
H2711 C2692 0.913 . S
H2712 C2730 0.951 . S
H2713 C2732 0.951 . S
H2714 C2734 0.950 . S
H2715 C2735 0.950 . S
H2716 C2737 0.950 . S
H2717 C2740 0.950 . S
H2718 C2741 0.950 . S
H2719 C2743 0.950 . S
H2720 C2744 0.950 . S
H2721 C2745 0.951 . S
H2722 C2747 0.951 . S
H2723 C2749 0.950 . S
H2724 C2750 0.950 . S
H2725 C2752 0.950 . S
H2726 C2755 0.950 . S
H2727 C2756 0.950 . S
H2728 C2758 0.950 . S
H2729 C2759 0.950 . S
C2730 H2712 0.951 . S
C2730 C2731 1.366 . S
C2730 C2732 1.388 . S
C2731 C2730 1.366 . S
C2731 C2735 1.385 . S
C2732 H2713 0.951 . S
C2732 C2730 1.388 . S
C2732 C2733 1.366 . S
C2733 C2732 1.366 . S
C2733 C2734 1.414 . S
C2733 C2736 1.499 . S
C2734 H2714 0.950 . S
C2734 C2733 1.414 . S
C2734 C2735 1.374 . S
C2735 H2715 0.950 . S
C2735 C2731 1.385 . S
C2735 C2734 1.374 . S
C2736 C2733 1.499 . S
C2736 C2737 1.373 . S
C2736 C2738 1.389 . S
C2737 H2716 0.950 . S
C2737 C2736 1.373 . S
C2737 C2753 1.377 . S
C2738 C2736 1.389 . S
C2738 C2739 1.524 . S
C2738 C2752 1.377 . S
C2739 C2738 1.524 . S
C2739 C2740 1.397 . S
C2739 C2744 1.363 . S
C2740 H2717 0.950 . S
C2740 C2739 1.397 . S
C2740 C2741 1.334 . S
C2741 H2718 0.950 . S
C2741 C2740 1.334 . S
C2741 C2742 1.287 . S
C2742 C2741 1.287 . S
C2742 C2743 1.524 . S
C2742 H2761 0.913 . S
C2743 H2719 0.950 . S
C2743 C2742 1.524 . S
C2743 C2744 1.415 . S
C2744 H2720 0.950 . S
C2744 C2739 1.363 . S
C2744 C2743 1.415 . S
C2745 H2721 0.951 . S
C2745 C2746 1.366 . S
C2745 C2747 1.388 . S
C2746 C2745 1.366 . S
C2746 C2750 1.385 . S
C2747 H2722 0.951 . S
C2747 C2745 1.388 . S
C2747 C2748 1.366 . S
C2748 C2747 1.366 . S
C2748 C2749 1.414 . S
C2748 C2751 1.499 . S
C2749 H2723 0.950 . S
C2749 C2748 1.414 . S
C2749 C2750 1.374 . S
C2750 H2724 0.950 . S
C2750 C2746 1.385 . S
C2750 C2749 1.374 . S
C2751 C2748 1.499 . S
C2751 C2752 1.373 . S
C2751 C2753 1.389 . S
C2752 H2725 0.950 . S
C2752 C2738 1.377 . S
C2752 C2751 1.373 . S
C2753 C2737 1.377 . S
C2753 C2751 1.389 . S
C2753 C2754 1.524 . S
C2754 C2753 1.524 . S
C2754 C2755 1.397 . S
C2754 C2759 1.363 . S
C2755 H2726 0.950 . S
C2755 C2754 1.397 . S
C2755 C2756 1.334 . S
C2756 H2727 0.950 . S
C2756 C2755 1.334 . S
C2756 C2757 1.287 . S
C2757 C2756 1.287 . S
C2757 C2758 1.524 . S
C2757 H2760 0.999 . S
C2758 H2728 0.950 . S
C2758 C2757 1.524 . S
C2758 C2759 1.415 . S
C2759 H2729 0.950 . S
C2759 C2754 1.363 . S
C2759 C2758 1.415 . S
H2760 C2757 0.999 . S
H2761 C2742 0.913 . S
H2762 C2780 0.951 . S
H2763 C2782 0.951 . S
H2764 C2784 0.950 . S
H2765 C2785 0.950 . S
H2766 C2787 0.950 . S
H2767 C2790 0.950 . S
H2768 C2791 0.950 . S
H2769 C2793 0.950 . S
H2770 C2794 0.950 . S
H2771 C2795 0.951 . S
H2772 C2797 0.951 . S
H2773 C2799 0.950 . S
H2774 C2800 0.950 . S
H2775 C2802 0.950 . S
H2776 C2805 0.950 . S
H2777 C2806 0.950 . S
H2778 C2808 0.950 . S
H2779 C2809 0.950 . S
C2780 H2762 0.951 . S
C2780 C2781 1.366 . S
C2780 C2782 1.388 . S
C2781 C2780 1.366 . S
C2781 C2785 1.385 . S
C2782 H2763 0.951 . S
C2782 C2780 1.388 . S
C2782 C2783 1.366 . S
C2783 C2782 1.366 . S
C2783 C2784 1.414 . S
C2783 C2786 1.499 . S
C2784 H2764 0.950 . S
C2784 C2783 1.414 . S
C2784 C2785 1.374 . S
C2785 H2765 0.950 . S
C2785 C2781 1.385 . S
C2785 C2784 1.374 . S
C2786 C2783 1.499 . S
C2786 C2787 1.373 . S
C2786 C2788 1.389 . S
C2787 H2766 0.950 . S
C2787 C2786 1.373 . S
C2787 C2803 1.377 . S
C2788 C2786 1.389 . S
C2788 C2789 1.524 . S
C2788 C2802 1.377 . S
C2789 C2788 1.524 . S
C2789 C2790 1.397 . S
C2789 C2794 1.363 . S
C2790 H2767 0.950 . S
C2790 C2789 1.397 . S
C2790 C2791 1.334 . S
C2791 H2768 0.950 . S
C2791 C2790 1.334 . S
C2791 C2792 1.287 . S
C2792 C2791 1.287 . S
C2792 C2793 1.524 . S
C2792 H2811 0.913 . S
C2793 H2769 0.950 . S
C2793 C2792 1.524 . S
C2793 C2794 1.415 . S
C2794 H2770 0.950 . S
C2794 C2789 1.363 . S
C2794 C2793 1.415 . S
C2795 H2771 0.951 . S
C2795 C2796 1.366 . S
C2795 C2797 1.388 . S
C2796 C2795 1.366 . S
C2796 C2800 1.385 . S
C2797 H2772 0.951 . S
C2797 C2795 1.388 . S
C2797 C2798 1.366 . S
C2798 C2797 1.366 . S
C2798 C2799 1.414 . S
C2798 C2801 1.499 . S
C2799 H2773 0.950 . S
C2799 C2798 1.414 . S
C2799 C2800 1.374 . S
C2800 H2774 0.950 . S
C2800 C2796 1.385 . S
C2800 C2799 1.374 . S
C2801 C2798 1.499 . S
C2801 C2802 1.373 . S
C2801 C2803 1.389 . S
C2802 H2775 0.950 . S
C2802 C2788 1.377 . S
C2802 C2801 1.373 . S
C2803 C2787 1.377 . S
C2803 C2801 1.389 . S
C2803 C2804 1.524 . S
C2804 C2803 1.524 . S
C2804 C2805 1.397 . S
C2804 C2809 1.363 . S
C2805 H2776 0.950 . S
C2805 C2804 1.397 . S
C2805 C2806 1.334 . S
C2806 H2777 0.950 . S
C2806 C2805 1.334 . S
C2806 C2807 1.287 . S
C2807 C2806 1.287 . S
C2807 C2808 1.524 . S
C2807 H2810 0.999 . S
C2808 H2778 0.950 . S
C2808 C2807 1.524 . S
C2808 C2809 1.415 . S
C2809 H2779 0.950 . S
C2809 C2804 1.363 . S
C2809 C2808 1.415 . S
H2810 C2807 0.999 . S
H2811 C2792 0.913 . S
H2812 C2830 0.951 . S
H2813 C2832 0.951 . S
H2814 C2834 0.950 . S
H2815 C2835 0.950 . S
H2816 C2837 0.950 . S
H2817 C2840 0.950 . S
H2818 C2841 0.950 . S
H2819 C2843 0.950 . S
H2820 C2844 0.950 . S
H2821 C2845 0.951 . S
H2822 C2847 0.951 . S
H2823 C2849 0.950 . S
H2824 C2850 0.950 . S
H2825 C2852 0.950 . S
H2826 C2855 0.950 . S
H2827 C2856 0.950 . S
H2828 C2858 0.950 . S
H2829 C2859 0.950 . S
C2830 H2812 0.951 . S
C2830 C2831 1.366 . S
C2830 C2832 1.388 . S
C2831 C2830 1.366 . S
C2831 C2835 1.385 . S
C2832 H2813 0.951 . S
C2832 C2830 1.388 . S
C2832 C2833 1.366 . S
C2833 C2832 1.366 . S
C2833 C2834 1.414 . S
C2833 C2836 1.499 . S
C2834 H2814 0.950 . S
C2834 C2833 1.414 . S
C2834 C2835 1.374 . S
C2835 H2815 0.950 . S
C2835 C2831 1.385 . S
C2835 C2834 1.374 . S
C2836 C2833 1.499 . S
C2836 C2837 1.373 . S
C2836 C2838 1.389 . S
C2837 H2816 0.950 . S
C2837 C2836 1.373 . S
C2837 C2853 1.377 . S
C2838 C2836 1.389 . S
C2838 C2839 1.524 . S
C2838 C2852 1.377 . S
C2839 C2838 1.524 . S
C2839 C2840 1.397 . S
C2839 C2844 1.363 . S
C2840 H2817 0.950 . S
C2840 C2839 1.397 . S
C2840 C2841 1.334 . S
C2841 H2818 0.950 . S
C2841 C2840 1.334 . S
C2841 C2842 1.287 . S
C2842 C2841 1.287 . S
C2842 C2843 1.524 . S
C2842 H2861 0.913 . S
C2843 H2819 0.950 . S
C2843 C2842 1.524 . S
C2843 C2844 1.415 . S
C2844 H2820 0.950 . S
C2844 C2839 1.363 . S
C2844 C2843 1.415 . S
C2845 H2821 0.951 . S
C2845 C2846 1.366 . S
C2845 C2847 1.388 . S
C2846 C2845 1.366 . S
C2846 C2850 1.385 . S
C2847 H2822 0.951 . S
C2847 C2845 1.388 . S
C2847 C2848 1.366 . S
C2848 C2847 1.366 . S
C2848 C2849 1.414 . S
C2848 C2851 1.499 . S
C2849 H2823 0.950 . S
C2849 C2848 1.414 . S
C2849 C2850 1.374 . S
C2850 H2824 0.950 . S
C2850 C2846 1.385 . S
C2850 C2849 1.374 . S
C2851 C2848 1.499 . S
C2851 C2852 1.373 . S
C2851 C2853 1.389 . S
C2852 H2825 0.950 . S
C2852 C2838 1.377 . S
C2852 C2851 1.373 . S
C2853 C2837 1.377 . S
C2853 C2851 1.389 . S
C2853 C2854 1.524 . S
C2854 C2853 1.524 . S
C2854 C2855 1.397 . S
C2854 C2859 1.363 . S
C2855 H2826 0.950 . S
C2855 C2854 1.397 . S
C2855 C2856 1.334 . S
C2856 H2827 0.950 . S
C2856 C2855 1.334 . S
C2856 C2857 1.287 . S
C2857 C2856 1.287 . S
C2857 C2858 1.524 . S
C2857 H2860 0.999 . S
C2858 H2828 0.950 . S
C2858 C2857 1.524 . S
C2858 C2859 1.415 . S
C2859 H2829 0.950 . S
C2859 C2854 1.363 . S
C2859 C2858 1.415 . S
H2860 C2857 0.999 . S
H2861 C2842 0.913 . S
C631 C33 1.030 . S
C646 C39 1.038 . S
C681 C73 1.034 . S
C696 C67 1.029 . S
C731 C101 1.030 . S
C746 C5 1.035 . S
C781 C175 1.034 . S
C796 C135 1.034 . S
C831 C107 1.034 . S
C846 C169 1.029 . S
C881 C203 1.030 . S
C896 C141 1.035 . S
C931 C243 1.034 . S
C946 C237 1.029 . S
C981 C271 1.029 . S
C996 C277 1.034 . S
C1031 C305 1.029 . S
C1046 C209 1.035 . S
C1081 C379 1.034 . S
C1096 C339 1.029 . S
C1131 C311 1.034 . S
C1146 C373 1.030 . S
C1181 C407 1.030 . S
C1196 C345 1.034 . S
C1231 C447 1.034 . S
C1246 C441 1.030 . S
C1281 C475 1.029 . S
C1296 C481 1.035 . S
C1331 C509 1.029 . S
C1346 C413 1.035 . S
C1381 C583 1.034 . S
C1396 C543 1.029 . S
C1431 C515 1.035 . S
C1446 C577 1.030 . S
C1481 C611 1.029 . S
C1496 C549 1.034 . S
C1531 C349 1.505 . S
C1546 C9 1.504 . S
C1581 C383 1.505 . S
C1596 C43 1.502 . S
C1631 C315 1.505 . S
C1646 C77 1.505 . S
C1681 C111 1.504 . S
C1696 C485 1.505 . S
C1731 C417 1.505 . S
C1746 C145 1.505 . S
C1781 C451 1.504 . S
C1796 C179 1.501 . S
C1831 C213 1.505 . S
C1846 C553 1.504 . S
C1881 C587 1.504 . S
C1896 C247 1.505 . S
C1931 C519 1.504 . S
C1946 C281 1.505 . S
C1981 C2 1.610 . S
C1996 C172 1.611 . S
C2031 C104 1.611 . S
C2046 C36 1.610 . S
C2081 C138 1.610 . S
C2096 C70 1.611 . S
C2131 C376 1.610 1_556 S
C2146 C206 1.610 . S
C2181 C308 1.610 1_556 S
C2196 C240 1.610 . S
C2231 C274 1.610 . S
C2246 C342 1.610 1_556 S
C2281 C580 1.611 . S
C2296 C410 1.610 1_554 S
C2331 C444 1.610 1_554 S
C2346 C512 1.611 . S
C2381 C546 1.610 . S
C2396 C478 1.610 1_554 S
C2431 C20 0.617 1_565 S
C2446 C190 0.629 . S
C2481 C54 0.628 . S
C2496 C122 0.618 1_655 S
C2531 C156 0.630 . S
C2546 C88 0.629 . S
C2581 C394 0.630 . S
C2596 C224 0.629 . S
C2631 C326 0.629 . S
C2646 C258 0.628 . S
C2681 C360 0.630 . S
C2696 C292 0.630 . S
C2731 C428 0.630 . S
C2746 C598 0.629 . S
C2781 C462 0.629 . S
C2796 C530 0.630 . S
C2831 C564 0.630 . S
C2846 C496 0.629 . S
