# Generated by pormake.
# Topology sra, (4)-cn, num edge types: 1
# Building blocks:
#     Node 0, Type 0, BuildingBlock: NAHDIM_clean_sbu_0, # of connection points: 4
#     Node 1, Type 0, BuildingBlock: NAHDIM_clean_sbu_0, # of connection points: 4
#     Node 2, Type 0, BuildingBlock: NAHDIM_clean_sbu_0, # of connection points: 4
#     Node 3, Type 0, BuildingBlock: NAHDIM_clean_sbu_0, # of connection points: 4
#     Node 4, Type 0, BuildingBlock: NAHDIM_clean_sbu_0, # of connection points: 4
#     Node 5, Type 0, BuildingBlock: NAHDIM_clean_sbu_0, # of connection points: 4
#     Node 6, Type 0, BuildingBlock: NAHDIM_clean_sbu_0, # of connection points: 4
#     Node 7, Type 0, BuildingBlock: NAHDIM_clean_sbu_0, # of connection points: 4
#     Edge 8, Type (0, 0), BuildingBlock: UVAHIK_clean_linker_0, # of connection points: 2
#     Edge 9, Type (0, 0), BuildingBlock: UVAHIK_clean_linker_0, # of connection points: 2
#     Edge 10, Type (0, 0), BuildingBlock: UVAHIK_clean_linker_0, # of connection points: 2
#     Edge 11, Type (0, 0), BuildingBlock: UVAHIK_clean_linker_0, # of connection points: 2
#     Edge 12, Type (0, 0), BuildingBlock: UVAHIK_clean_linker_0, # of connection points: 2
#     Edge 13, Type (0, 0), BuildingBlock: UVAHIK_clean_linker_0, # of connection points: 2
#     Edge 14, Type (0, 0), BuildingBlock: UVAHIK_clean_linker_0, # of connection points: 2
#     Edge 15, Type (0, 0), BuildingBlock: UVAHIK_clean_linker_0, # of connection points: 2
#     Edge 16, Type (0, 0), BuildingBlock: UVAHIK_clean_linker_0, # of connection points: 2
#     Edge 17, Type (0, 0), BuildingBlock: UVAHIK_clean_linker_0, # of connection points: 2
#     Edge 18, Type (0, 0), BuildingBlock: UVAHIK_clean_linker_0, # of connection points: 2
#     Edge 19, Type (0, 0), BuildingBlock: UVAHIK_clean_linker_0, # of connection points: 2
#     Edge 20, Type (0, 0), BuildingBlock: UVAHIK_clean_linker_0, # of connection points: 2
#     Edge 21, Type (0, 0), BuildingBlock: UVAHIK_clean_linker_0, # of connection points: 2
#     Edge 22, Type (0, 0), BuildingBlock: UVAHIK_clean_linker_0, # of connection points: 2
#     Edge 23, Type (0, 0), BuildingBlock: UVAHIK_clean_linker_0, # of connection points: 2
# Relax obj value: 0.091
# Max RMSD: 0.091
# Mean RMSD: 0.091
data_MOF--net-sra--node1-NAHDIM_clean_sbu_0--edge1-UVAHIK_clean_linker_0
_symmetry_space_group_name_H-M    P1
_symmetry_Int_Tables_number       1
_symmetry_cell_setting            triclinic
loop_
_symmetry_equiv_pos_as_xyz
'x, y, z'
_cell_length_a     32.5799
_cell_length_b     62.013328
_cell_length_c     52.872807
_cell_angle_alpha  90.077064
_cell_angle_beta   90.064867
_cell_angle_gamma 89.969278
loop_
_atom_site_label
_atom_site_type_symbol
_atom_site_fract_x
_atom_site_fract_y
_atom_site_fract_z
_atom_type_partial_charge
C0 C -0.00424 0.04488 0.11227 0.0
O1 O -2e-05 0.03381 0.13328 0.0
O2 O 0.94909 0.06869 0.16908 0.0
Zn3 Zn -0.0047 0.07952 0.14739 0.0
O4 O 0.05011 0.0734 0.16312 0.0
C5 C 0.99386 0.12324 0.16305 0.0
O6 O -0.00014 0.1138 0.18497 0.0
O7 O 0.99278 0.06527 0.11349 0.0
C8 C 0.08151 0.08023 0.15139 0.0
O9 O 0.07644 0.09018 0.12968 0.0
C10 C 0.95245 0.06577 0.19277 0.0
O11 O 0.98788 0.06939 0.20388 0.0
O12 O 0.99021 0.11164 0.14336 0.0
C13 C 0.01057 0.43168 0.10242 0.0
O14 O -0.00467 0.44146 0.12236 0.0
O15 O 0.06551 0.4048 0.15963 0.0
Zn16 Zn 0.01616 0.39787 0.13818 0.0
O17 O 0.96318 0.40761 0.15405 0.0
C18 C 0.01229 0.35498 0.15484 0.0
O19 O 0.01366 0.36545 0.17645 0.0
O20 O 0.02197 0.41216 0.10432 0.0
C21 C 0.95788 0.41209 0.17727 0.0
O22 O 0.98896 0.41076 0.19302 0.0
C23 C 0.07402 0.42308 0.16918 0.0
O24 O 0.04897 0.43939 0.1656 0.0
O25 O 0.01325 0.36567 0.13436 0.0
C26 C -0.00428 0.93781 0.87068 0.0
O27 O -0.00474 0.949 0.8496 0.0
O28 O 0.9494 0.91548 0.81481 0.0
Zn29 Zn -0.0044 0.90311 0.83553 0.0
O30 O 0.05044 0.9075 0.81888 0.0
C31 C 0.01 0.86014 0.85351 0.0
O32 O 0.03986 0.86979 0.86583 0.0
O33 O -0.00399 0.91736 0.86948 0.0
C34 C 0.06277 0.89395 0.8025 0.0
O35 O 0.03866 0.87785 0.79615 0.0
C36 C 0.95237 0.92087 0.7917 0.0
O37 O 0.98776 0.91879 0.78008 0.0
O38 O 0.98625 0.87133 0.83969 0.0
C39 C 0.02745 0.54911 0.86853 0.0
O40 O 0.03135 0.53914 0.84672 0.0
O41 O 0.05846 0.57644 0.8124 0.0
Zn42 Zn 0.01299 0.5848 0.83595 0.0
O43 O 0.95836 0.57647 0.82147 0.0
C44 C 0.99288 0.62959 0.82872 0.0
O45 O 0.96962 0.62161 0.81069 0.0
O46 O 0.02006 0.56922 0.86874 0.0
C47 C 0.9268 0.57917 0.83521 0.0
O48 O 0.93138 0.58696 0.85817 0.0
C49 C 0.05818 0.58191 0.78926 0.0
O50 O 0.02705 0.59308 0.78043 0.0
O51 O 0.01447 0.61687 0.84208 0.0
C52 C 0.53134 0.55367 0.61236 0.0
O53 O 0.52752 0.54249 0.63331 0.0
O54 O 0.46119 0.58383 0.65718 0.0
Zn55 Zn 0.51953 0.5888 0.64647 0.0
O56 O 0.55925 0.57788 0.67243 0.0
C57 C 0.50529 0.63215 0.62914 0.0
O58 O 0.47458 0.62303 0.61707 0.0
O59 O 0.52935 0.5741 0.61336 0.0
C60 C 0.55637 0.58407 0.69527 0.0
O61 O 0.52613 0.59697 0.70174 0.0
C62 C 0.45019 0.56849 0.67155 0.0
O63 O 0.47789 0.55495 0.68014 0.0
O64 O 0.52877 0.62056 0.64267 0.0
C65 C 0.48538 0.94192 0.606 0.0
O66 O 0.4839 0.95152 0.62815 0.0
O67 O 0.55985 0.9174 0.65137 0.0
Zn68 Zn 0.50655 0.90634 0.63709 0.0
O69 O 0.45948 0.91089 0.66098 0.0
C70 C 0.53831 0.86293 0.64041 0.0
O71 O 0.56481 0.87199 0.65586 0.0
O72 O 0.49459 0.92204 0.60495 0.0
C73 C 0.45595 0.89968 0.68095 0.0
O74 O 0.48457 0.88553 0.68653 0.0
C75 C 0.56328 0.92775 0.67201 0.0
O76 O 0.53028 0.9322 0.68528 0.0
O77 O 0.51105 0.87454 0.62989 0.0
C78 C 0.52704 0.44564 0.37207 0.0
O79 O 0.5303 0.45641 0.35079 0.0
O80 O 0.46071 0.41756 0.32216 0.0
Zn81 Zn 0.51587 0.41119 0.33745 0.0
O82 O 0.56193 0.42136 0.3154 0.0
C83 C 0.49487 0.36761 0.35178 0.0
O84 O 0.46203 0.37684 0.3613 0.0
O85 O 0.52044 0.42547 0.37126 0.0
C86 C 0.56386 0.41627 0.29216 0.0
O87 O 0.53403 0.40487 0.28207 0.0
C88 C 0.4537 0.43274 0.30662 0.0
O89 O 0.48378 0.44557 0.29982 0.0
O90 O 0.52191 0.3792 0.34113 0.0
C91 C 0.4824 0.05751 0.37223 0.0
O92 O 0.48608 0.04662 0.35101 0.0
O93 O 0.55518 0.08254 0.32732 0.0
Zn94 Zn 0.49955 0.09246 0.33917 0.0
O95 O 0.45556 0.08519 0.31399 0.0
C96 C 0.52656 0.13666 0.33452 0.0
O97 O 0.55533 0.12795 0.32042 0.0
O98 O 0.48675 0.07785 0.37188 0.0
C99 C 0.45546 0.09333 0.29196 0.0
O100 O 0.4854 0.10633 0.28534 0.0
C101 C 0.56071 0.06888 0.30971 0.0
O102 O 0.52881 0.06029 0.29833 0.0
O103 O 0.49966 0.12458 0.34459 0.0
C104 C 0.00735 0.31969 0.1317 0.0
C105 C 0.00965 0.33117 0.1546 0.0
C106 C 0.00502 0.29716 0.13173 0.0
C107 C 0.02825 0.25003 0.17162 0.0
H108 H 0.95228 0.21991 0.1275 0.0
C109 C -0.00431 0.15964 0.18335 0.0
C110 C 0.99319 0.14703 0.16131 0.0
C111 C -0.00317 0.18209 0.18183 0.0
C112 C 0.97398 0.22807 0.13972 0.0
H113 H 0.0109 0.32803 0.19548 0.0
H114 H 0.00662 0.28888 0.19549 0.0
H115 H 0.95648 0.25922 0.12589 0.0
H116 H 0.98924 0.14813 0.12037 0.0
H117 H 0.99169 0.1874 0.11771 0.0
H118 H 0.04588 0.21901 0.18545 0.0
C119 C 0.00714 0.29723 0.17751 0.0
C120 C 0.97638 0.25058 0.1388 0.0
C121 C 0.00937 0.31969 0.17749 0.0
C122 C 0.99112 0.15739 0.13771 0.0
C123 C 0.99234 0.1799 0.13619 0.0
C124 C 0.02591 0.22758 0.17252 0.0
C125 C 0.00509 0.2857 0.15465 0.0
C126 C 0.00332 0.26179 0.1549 0.0
C127 C -0.00439 0.19248 0.15824 0.0
C128 C -0.00147 0.21634 0.15674 0.0
H129 H 0.00749 0.32807 0.11374 0.0
H130 H 0.00381 0.2887 0.11381 0.0
H131 H 0.04988 0.25817 0.18393 0.0
H132 H -0.00296 0.15218 0.20185 0.0
H133 H -0.00142 0.19133 0.1992 0.0
C134 C 0.03186 0.82387 0.86947 0.0
C135 C 0.00579 0.8364 0.85423 0.0
C136 C 0.0293 0.80137 0.86904 0.0
C137 C 0.96149 0.75617 0.84985 0.0
H138 H 0.06314 0.72365 0.84769 0.0
C139 C 0.96807 0.66696 0.81955 0.0
C140 C 0.99378 0.65311 0.83339 0.0
C141 C 0.96886 0.68918 0.82384 0.0
C142 C 0.03449 0.73248 0.8486 0.0
H143 H 0.95618 0.83515 0.82684 0.0
H144 H 0.95215 0.796 0.82582 0.0
H145 H 0.06537 0.76274 0.8524 0.0
H146 H 0.04043 0.65172 0.86267 0.0
H147 H 0.04176 0.69057 0.87015 0.0
H148 H 0.93068 0.7259 0.84558 0.0
C149 C 0.97416 0.80351 0.83841 0.0
C150 C 0.03574 0.75488 0.85135 0.0
C151 C 0.97663 0.82598 0.83889 0.0
C152 C 0.02028 0.66196 0.85165 0.0
C153 C 0.02119 0.68421 0.85587 0.0
C154 C 0.96026 0.73378 0.84701 0.0
C155 C 0.00068 0.79092 0.85331 0.0
C156 C -0.00074 0.76701 0.85178 0.0
C157 C -0.00452 0.69806 0.84201 0.0
C158 C -0.00325 0.72172 0.84614 0.0
H159 H 0.05454 0.8314 0.88158 0.0
H160 H 0.04979 0.79215 0.88102 0.0
H161 H 0.93281 0.76498 0.85055 0.0
H162 H 0.94732 0.66068 0.80532 0.0
H163 H 0.94907 0.69945 0.81262 0.0
C164 C 0.54432 0.66536 0.64114 0.0
C165 C 0.51168 0.65573 0.62789 0.0
C166 C 0.5495 0.6877 0.64089 0.0
C167 C 0.52094 0.73722 0.60628 0.0
H168 H 0.54595 0.76516 0.67012 0.0
C169 C 0.5086 0.82935 0.62138 0.0
C170 C 0.53859 0.83931 0.63656 0.0
C171 C 0.5075 0.80693 0.61893 0.0
C172 C 0.53955 0.7576 0.65207 0.0
H173 H 0.45931 0.66199 0.6036 0.0
H174 H 0.46817 0.70106 0.60336 0.0
H175 H 0.53988 0.72608 0.66837 0.0
H176 H 0.59165 0.83355 0.66045 0.0
H177 H 0.58994 0.79446 0.65595 0.0
H178 H 0.52027 0.76884 0.59005 0.0
C179 C 0.48998 0.69128 0.61374 0.0
C180 C 0.53605 0.73519 0.65107 0.0
C181 C 0.48477 0.66891 0.614 0.0
C182 C 0.568 0.82639 0.64874 0.0
C183 C 0.56689 0.80398 0.64628 0.0
C184 C 0.52446 0.75967 0.60728 0.0
C185 C 0.52217 0.70093 0.62739 0.0
C186 C 0.52662 0.72474 0.62819 0.0
C187 C 0.53634 0.79398 0.63159 0.0
C188 C 0.53371 0.77011 0.63021 0.0
H189 H 0.56575 0.65567 0.65192 0.0
H190 H 0.57498 0.69461 0.65127 0.0
H191 H 0.51415 0.72961 0.5883 0.0
H192 H 0.48546 0.83884 0.61176 0.0
H193 H 0.48332 0.79971 0.60768 0.0
C194 C 0.46955 0.33072 0.36337 0.0
C195 C 0.49964 0.34389 0.35226 0.0
C196 C 0.47342 0.30827 0.36276 0.0
C197 C 0.52343 0.26493 0.32657 0.0
H198 H 0.49733 0.22952 0.38476 0.0
C199 C 0.55517 0.17362 0.32755 0.0
C200 C 0.52477 0.1603 0.33804 0.0
C201 C 0.55293 0.196 0.33027 0.0
C202 C 0.50433 0.23918 0.36827 0.0
H203 H 0.55785 0.3438 0.3323 0.0
H204 H 0.56462 0.30472 0.3314 0.0
H205 H 0.4917 0.26871 0.38786 0.0
H206 H 0.46835 0.16002 0.35982 0.0
H207 H 0.46417 0.19907 0.36425 0.0
H208 H 0.5357 0.23551 0.30687 0.0
C209 C 0.53779 0.31173 0.34028 0.0
C210 C 0.50113 0.26161 0.37006 0.0
C211 C 0.53399 0.33414 0.34093 0.0
C212 C 0.49233 0.16982 0.35155 0.0
C213 C 0.49004 0.19221 0.35422 0.0
C214 C 0.52654 0.24254 0.32476 0.0
C215 C 0.50738 0.29854 0.35097 0.0
C216 C 0.51073 0.27472 0.34923 0.0
C217 C 0.52018 0.20556 0.34348 0.0
C218 C 0.51709 0.22939 0.34559 0.0
H219 H 0.44272 0.33773 0.37224 0.0
H220 H 0.44932 0.29852 0.37098 0.0
H221 H 0.53035 0.27458 0.31005 0.0
H222 H 0.58069 0.1668 0.31715 0.0
H223 H 0.57699 0.20581 0.32211 0.0
C224 C 0.38758 0.07633 0.28237 0.0
C225 C 0.42101 0.08895 0.27447 0.0
C226 C 0.35383 0.07324 0.26649 0.0
C227 C 0.30061 0.09859 0.21287 0.0
H228 H 0.2401 0.04475 0.21138 0.0
C229 C 0.15701 0.08752 0.15063 0.0
C230 C 0.12286 0.0783 0.1627 0.0
C231 C 0.19565 0.08699 0.16206 0.0
C232 C 0.25662 0.0599 0.21169 0.0
H233 H 0.44586 0.1076 0.24337 0.0
H234 H 0.38708 0.10197 0.21552 0.0
H235 H 0.30433 0.047 0.23508 0.0
H236 H 0.10272 0.06069 0.19588 0.0
H237 H 0.17019 0.05986 0.21587 0.0
H238 H 0.25269 0.11157 0.18977 0.0
C239 C 0.3867 0.09477 0.23417 0.0
C240 C 0.29336 0.06121 0.22527 0.0
C241 C 0.42046 0.09791 0.25008 0.0
C242 C 0.12841 0.06797 0.1861 0.0
C243 C 0.16711 0.06737 0.19748 0.0
C244 C 0.26398 0.09726 0.19924 0.0
C245 C 0.35276 0.08264 0.24233 0.0
C246 C 0.31549 0.08066 0.22629 0.0
C247 C 0.20101 0.07715 0.18575 0.0
C248 C 0.24132 0.07799 0.19877 0.0
H249 H 0.38702 0.06919 0.30105 0.0
H250 H 0.328 0.06405 0.27352 0.0
H251 H 0.3165 0.11391 0.21359 0.0
H252 H 0.15382 0.09552 0.13253 0.0
H253 H 0.22132 0.09442 0.15242 0.0
C254 C 0.63614 0.42957 0.28956 0.0
C255 C 0.60108 0.42136 0.2774 0.0
C256 C 0.67272 0.4323 0.27625 0.0
C257 C 0.72569 0.41128 0.21989 0.0
H258 H 0.80518 0.45569 0.23638 0.0
C259 C 0.88231 0.41596 0.17026 0.0
C260 C 0.91632 0.41742 0.18657 0.0
C261 C 0.84267 0.41946 0.17936 0.0
C262 C 0.78324 0.4432 0.23163 0.0
H263 H 0.5762 0.41079 0.2414 0.0
H264 H 0.63983 0.41607 0.21798 0.0
H265 H 0.73678 0.457 0.25521 0.0
H266 H 0.93553 0.42457 0.22498 0.0
H267 H 0.86612 0.43072 0.24085 0.0
H268 H 0.77223 0.39743 0.19646 0.0
C269 C 0.63936 0.41984 0.23799 0.0
C270 C 0.74412 0.4439 0.24243 0.0
C271 C 0.60283 0.41692 0.25137 0.0
C272 C 0.90996 0.42323 0.21196 0.0
C273 C 0.87026 0.4269 0.22102 0.0
C274 C 0.76461 0.4107 0.20895 0.0
C275 C 0.67502 0.42708 0.2504 0.0
C276 C 0.7151 0.42773 0.23702 0.0
C277 C 0.83621 0.42467 0.20489 0.0
C278 C 0.79398 0.42645 0.21501 0.0
H279 H 0.63583 0.43315 0.30961 0.0
H280 H 0.69963 0.43764 0.28653 0.0
H281 H 0.70449 0.39833 0.21564 0.0
H282 H 0.88614 0.41162 0.15056 0.0
H283 H 0.81698 0.41786 0.16646 0.0
C284 C 0.13093 0.91243 0.79885 0.0
C285 C 0.10407 0.89592 0.7912 0.0
C286 C 0.1704 0.91382 0.78865 0.0
C287 C 0.2488 0.88102 0.756 0.0
H288 H 0.29426 0.93641 0.73683 0.0
C289 C 0.38672 0.91553 0.68963 0.0
C290 C 0.41866 0.90152 0.69671 0.0
C291 C 0.35012 0.91604 0.70333 0.0
C292 C 0.28194 0.92082 0.74204 0.0
H293 H 0.09735 0.86813 0.76657 0.0
H294 H 0.16586 0.87073 0.74856 0.0
H295 H 0.226 0.93471 0.75568 0.0
H296 H 0.43789 0.87773 0.72434 0.0
H297 H 0.37414 0.87882 0.74844 0.0
H298 H 0.30403 0.86704 0.74163 0.0
C299 C 0.15673 0.88238 0.76276 0.0
C300 C 0.24302 0.91987 0.75306 0.0
C301 C 0.11733 0.88098 0.77296 0.0
C302 C 0.41376 0.88858 0.71829 0.0
C303 C 0.37716 0.88912 0.73202 0.0
C304 C 0.28766 0.88197 0.74499 0.0
C305 C 0.1838 0.89872 0.77059 0.0
C306 C 0.22584 0.89993 0.75991 0.0
C307 C 0.34468 0.9026 0.72445 0.0
C308 C 0.30452 0.90186 0.73766 0.0
H309 H 0.12166 0.92417 0.81292 0.0
H310 H 0.19066 0.92648 0.79523 0.0
H311 H 0.23668 0.86543 0.7614 0.0
H312 H 0.38951 0.92572 0.67311 0.0
H313 H 0.32557 0.92644 0.69683 0.0
C314 C 0.62376 0.567 0.70586 0.0
C315 C 0.58872 0.57839 0.71371 0.0
C316 C 0.65631 0.56355 0.72256 0.0
C317 C 0.70252 0.58751 0.77935 0.0
H318 H 0.77269 0.53703 0.77625 0.0
C319 C 0.85029 0.58101 0.83871 0.0
C320 C 0.88537 0.57505 0.82491 0.0
C321 C 0.81121 0.57856 0.82821 0.0
C322 C 0.75334 0.55122 0.7773 0.0
H323 H 0.55934 0.59404 0.74564 0.0
H324 H 0.61595 0.5877 0.77493 0.0
H325 H 0.70816 0.53747 0.75269 0.0
H326 H 0.90691 0.56109 0.78969 0.0
H327 H 0.83869 0.55687 0.77138 0.0
H328 H 0.74801 0.6014 0.80357 0.0
C329 C 0.61861 0.58184 0.7557 0.0
C330 C 0.71645 0.55149 0.7638 0.0
C331 C 0.5861 0.58538 0.73895 0.0
C332 C 0.88049 0.5659 0.80077 0.0
C333 C 0.8414 0.56333 0.79035 0.0
C334 C 0.73925 0.58718 0.79294 0.0
C335 C 0.65447 0.5713 0.74753 0.0
C336 C 0.69105 0.56983 0.76423 0.0
C337 C 0.80641 0.56996 0.8038 0.0
C338 C 0.76544 0.56922 0.79164 0.0
H339 H 0.62674 0.56136 0.68655 0.0
H340 H 0.68362 0.55561 0.71552 0.0
H341 H 0.68406 0.60203 0.77981 0.0
H342 H 0.85301 0.58803 0.8574 0.0
H343 H 0.78473 0.58363 0.83909 0.0
C344 C 0.60993 0.93902 0.70728 0.0
C345 C 0.60448 0.93315 0.68184 0.0
C346 C 0.64935 0.94205 0.71711 0.0
C347 C 0.75633 0.92565 0.70479 0.0
H348 H 0.7804 0.96574 0.75916 0.0
C349 C 0.91601 0.92926 0.75112 0.0
C350 C 0.91541 0.92778 0.77764 0.0
C351 C 0.88 0.93375 0.73773 0.0
C352 C 0.77407 0.95449 0.74396 0.0
H353 H 0.63585 0.92709 0.64636 0.0
H354 H 0.70445 0.93294 0.66331 0.0
H355 H 0.71343 0.96691 0.73835 0.0
H356 H 0.87706 0.93094 0.81098 0.0
H357 H 0.81433 0.93877 0.7876 0.0
H358 H 0.81672 0.91307 0.71059 0.0
C359 C 0.67844 0.9346 0.67589 0.0
C360 C 0.73571 0.9551 0.7321 0.0
C361 C 0.63909 0.93135 0.66614 0.0
C362 C 0.8785 0.93184 0.79054 0.0
C363 C 0.84261 0.9365 0.77717 0.0
C364 C 0.79471 0.92517 0.71649 0.0
C365 C 0.68414 0.93948 0.70164 0.0
C366 C 0.72611 0.94041 0.71267 0.0
C367 C 0.84281 0.93704 0.75061 0.0
C368 C 0.80373 0.93932 0.73649 0.0
H369 H 0.58387 0.94049 0.71986 0.0
H370 H 0.65254 0.94554 0.73709 0.0
H371 H 0.74985 0.91383 0.69024 0.0
H372 H 0.94399 0.9263 0.74063 0.0
H373 H 0.88108 0.93428 0.71726 0.0
C374 C 0.37641 0.579 0.6674 0.0
C375 C 0.40685 0.56665 0.67943 0.0
C376 C 0.33581 0.57827 0.67574 0.0
C377 C 0.2635 0.54743 0.71637 0.0
H378 H 0.20772 0.60255 0.72109 0.0
C379 C 0.12566 0.56369 0.78202 0.0
C380 C 0.09386 0.57697 0.77302 0.0
C381 C 0.16086 0.5603 0.76752 0.0
C382 C 0.22258 0.58697 0.71951 0.0
H383 H 0.41844 0.54342 0.70922 0.0
H384 H 0.3478 0.54259 0.72424 0.0
H385 H 0.2751 0.60062 0.70152 0.0
H386 H 0.07338 0.59644 0.74137 0.0
H387 H 0.1351 0.59058 0.7161 0.0
H388 H 0.21129 0.53402 0.7353 0.0
C389 C 0.35507 0.55253 0.70804 0.0
C390 C 0.26122 0.58584 0.70826 0.0
C391 C 0.39565 0.55311 0.69954 0.0
C392 C 0.09741 0.58621 0.74887 0.0
C393 C 0.13279 0.58293 0.73444 0.0
C394 C 0.2249 0.54861 0.72781 0.0
C395 C 0.32476 0.56533 0.69645 0.0
C396 C 0.2824 0.5661 0.70681 0.0
C397 C 0.16511 0.57021 0.7438 0.0
C398 C 0.20429 0.56844 0.72974 0.0
H399 H 0.38398 0.58942 0.65165 0.0
H400 H 0.31312 0.58802 0.66606 0.0
H401 H 0.27864 0.53191 0.71519 0.0
H402 H 0.12378 0.55625 0.8005 0.0
H403 H 0.18543 0.55058 0.77532 0.0
C404 C 0.63676 0.06966 0.3161 0.0
C405 C 0.60279 0.06372 0.30126 0.0
C406 C 0.67664 0.06608 0.30741 0.0
C407 C 0.73719 0.03739 0.25779 0.0
H408 H 0.8141 0.08413 0.26914 0.0
C409 C 0.8794 0.05373 0.19584 0.0
C410 C 0.91575 0.06037 0.20788 0.0
C411 C 0.84352 0.05062 0.20978 0.0
C412 C 0.79323 0.07077 0.26616 0.0
H413 H 0.58394 0.04891 0.26595 0.0
H414 H 0.65342 0.04331 0.25038 0.0
H415 H 0.74673 0.08546 0.28876 0.0
H416 H 0.94343 0.06811 0.24411 0.0
H417 H 0.88045 0.06292 0.26842 0.0
H418 H 0.78346 0.02329 0.23415 0.0
C419 C 0.64941 0.05026 0.26901 0.0
C420 C 0.75456 0.07148 0.27745 0.0
C421 C 0.60951 0.05361 0.27785 0.0
C422 C 0.91588 0.06305 0.23428 0.0
C423 C 0.87985 0.06016 0.24818 0.0
C424 C 0.77578 0.0368 0.24627 0.0
C425 C 0.6835 0.05674 0.28353 0.0
C426 C 0.72581 0.05495 0.27315 0.0
C427 C 0.84317 0.05427 0.23599 0.0
C428 C 0.80395 0.05363 0.2501 0.0
H429 H 0.63256 0.07727 0.33437 0.0
H430 H 0.7021 0.07085 0.31934 0.0
H431 H 0.71614 0.02418 0.25444 0.0
H432 H 0.87837 0.05142 0.17554 0.0
H433 H 0.81562 0.04625 0.19986 0.0
C434 C 0.14088 0.40902 0.18539 0.0
C435 C 0.11177 0.42571 0.18441 0.0
C436 C 0.17646 0.41125 0.19984 0.0
C437 C 0.24315 0.45172 0.23077 0.0
H438 H 0.28424 0.40135 0.266 0.0
C439 C 0.37891 0.42396 0.30569 0.0
C440 C 0.41252 0.43492 0.29519 0.0
C441 C 0.34054 0.42468 0.29398 0.0
C442 C 0.27299 0.41569 0.25662 0.0
H443 H 0.09716 0.45787 0.19783 0.0
H444 H 0.15906 0.4616 0.22356 0.0
H445 H 0.22022 0.39905 0.24272 0.0
H446 H 0.43207 0.45571 0.26455 0.0
H447 H 0.36535 0.45647 0.24365 0.0
H448 H 0.29562 0.46848 0.24524 0.0
C449 C 0.15465 0.44692 0.21279 0.0
C450 C 0.23651 0.41427 0.2429 0.0
C451 C 0.11908 0.44474 0.19815 0.0
C452 C 0.40671 0.44713 0.27312 0.0
C453 C 0.36837 0.44766 0.26122 0.0
C454 C 0.27959 0.45319 0.24467 0.0
C455 C 0.18368 0.43014 0.21387 0.0
C456 C 0.2214 0.43216 0.22953 0.0
C457 C 0.33497 0.43615 0.2713 0.0
C458 C 0.29515 0.43512 0.25757 0.0
H459 H 0.13637 0.39421 0.17487 0.0
H460 H 0.19854 0.39818 0.19978 0.0
H461 H 0.23254 0.46578 0.22054 0.0
H462 H 0.3823 0.41462 0.32286 0.0
H463 H 0.31531 0.41603 0.30259 0.0
C464 C 0.99219 0.04579 0.065 0.0
C465 C 0.99505 0.03383 0.08749 0.0
C466 C 0.99203 0.03539 0.04157 0.0
C467 C 0.97167 0.98293 0.01141 0.0
H468 H 0.0369 0.0063 0.9566 0.0
C469 C -0.0027 0.93683 0.918 0.0
C470 C -0.00433 0.94883 0.89548 0.0
C471 C -0.00287 0.94722 0.94143 0.0
C472 C 0.01816 -0.00028 0.97163 0.0
H473 H -0.00015 0.00156 0.10305 0.0
H474 H -0.00023 0.98342 0.0621 0.0
H475 H 0.03658 0.0244 -0.00244 0.0
H476 H 0.99246 0.98114 0.8799 0.0
H477 H 0.9917 -0.00075 0.92084 0.0
H478 H 0.95316 0.95827 0.98547 0.0
C479 C -0.00273 0.00083 0.06262 0.0
C480 C 0.01799 0.01008 -0.00492 0.0
C481 C -0.00246 0.01124 0.08607 0.0
C482 C 0.99388 0.97143 0.8969 0.0
C483 C 0.99367 0.98182 0.92035 0.0
C484 C 0.97178 0.97259 0.98794 0.0
C485 C 0.99463 0.0128 0.04013 0.0
C486 C 0.99475 0.00179 0.01523 0.0
C487 C -0.00473 0.96983 0.94288 0.0
C488 C 0.99505 0.98086 0.96779 0.0
H489 H 0.99014 0.06322 0.06544 0.0
H490 H 0.98944 0.04503 0.02457 0.0
H491 H 0.953 0.97634 0.02647 0.0
H492 H -0.00115 0.91939 0.91756 0.0
H493 H -0.00104 0.93754 0.95843 0.0
C494 C 0.03835 0.51477 0.89249 0.0
C495 C 0.02937 0.53694 0.89249 0.0
C496 C 0.03818 0.5031 0.91508 0.0
C497 C 0.99384 0.50429 0.97873 0.0
H498 H 0.07875 0.4627 -0.00494 0.0
C499 C 0.00463 0.4654 0.07693 0.0
C500 C 0.0142 0.44334 0.07818 0.0
C501 C 0.00756 0.4765 0.05409 0.0
C502 C 0.05455 0.47407 0.99062 0.0
H503 H 0.01404 0.56436 0.91624 0.0
H504 H 0.01383 0.544 0.9556 0.0
H505 H 0.08241 0.48276 0.95538 0.0
H506 H 0.03455 0.41562 0.05648 0.0
H507 H 0.03902 0.43498 0.01641 0.0
H508 H 0.9657 0.49555 0.01371 0.0
C509 C 0.02059 0.53561 0.9381 0.0
C510 C 0.0567 0.48557 0.96794 0.0
C511 C 0.02095 0.54728 0.91557 0.0
C512 C 0.02703 0.43263 0.05612 0.0
C513 C 0.02981 0.44374 0.03321 0.0
C514 C 0.99159 0.49275 0.0013 0.0
C515 C 0.0288 0.51337 0.93806 0.0
C516 C 0.0265 0.5009 0.96188 0.0
C517 C 0.01992 0.46579 0.03193 0.0
C518 C 0.02204 0.47762 0.0076 0.0
H519 H 0.04501 0.50634 0.87501 0.0
H520 H 0.04436 0.48595 0.91448 0.0
H521 H 0.96971 0.51571 0.97432 0.0
H522 H 0.99494 0.47416 0.09362 0.0
H523 H 0.00043 0.49356 0.05386 0.0
C524 C 0.52817 0.44527 0.41941 0.0
C525 C 0.53092 0.45684 0.39663 0.0
C526 C 0.53138 0.45591 0.44261 0.0
C527 C 0.51827 0.50926 0.47165 0.0
H528 H 0.58034 0.48442 0.52708 0.0
C529 C 0.54115 0.55467 0.56547 0.0
C530 C 0.53604 0.54264 0.58775 0.0
C531 C 0.54362 0.54434 0.54206 0.0
C532 C 0.56261 0.49146 0.51184 0.0
H533 H 0.5397 0.48861 0.38033 0.0
H534 H 0.54545 0.50714 0.42087 0.0
H535 H 0.57868 0.46607 0.48621 0.0
H536 H 0.53034 0.51032 0.60301 0.0
H537 H 0.53409 0.49231 0.56208 0.0
H538 H 0.50171 0.53448 0.49727 0.0
C539 C 0.54039 0.48988 0.42075 0.0
C540 C 0.56168 0.48096 0.48845 0.0
C541 C 0.53727 0.47924 0.39754 0.0
C542 C 0.53431 0.52005 0.58618 0.0
C543 C 0.53669 0.50971 0.56274 0.0
C544 C 0.51914 0.51972 0.49502 0.0
C545 C 0.53732 0.47834 0.44352 0.0
C546 C 0.53935 0.48972 0.46815 0.0
C547 C 0.54093 0.52177 0.5404 0.0
C548 C 0.54118 0.51091 0.5154 0.0
H549 H 0.52327 0.428 0.41935 0.0
H550 H 0.5284 0.44663 0.45985 0.0
H551 H 0.50027 0.51622 0.45648 0.0
H552 H 0.54288 0.57211 0.56605 0.0
H553 H 0.54756 0.55406 0.52523 0.0
C554 C 0.47891 0.94381 0.55891 0.0
C555 C 0.47785 0.95421 0.58254 0.0
C556 C 0.47357 0.95556 0.53665 0.0
C557 C 0.48593 0.01006 0.5114 0.0
H558 H 0.42367 0.98768 0.45458 0.0
C559 C 0.4696 0.05794 0.41887 0.0
C560 C 0.47513 0.04619 0.39638 0.0
C561 C 0.46487 0.04727 0.44191 0.0
C562 C 0.44138 0.99406 0.47024 0.0
H563 H 0.4693 0.98499 0.60138 0.0
H564 H 0.45991 0.00549 0.56244 0.0
H565 H 0.42438 0.96795 0.49452 0.0
H566 H 0.47905 0.01405 0.38032 0.0
H567 H 0.47149 0.99543 0.42058 0.0
H568 H 0.50375 0.03589 0.48708 0.0
C569 C 0.46527 0.98828 0.56118 0.0
C570 C 0.44174 0.98279 0.49309 0.0
C571 C 0.47049 0.97652 0.58346 0.0
C572 C 0.47484 0.02356 0.39732 0.0
C573 C 0.47023 0.01288 0.42038 0.0
C574 C 0.48566 0.02129 0.48856 0.0
C575 C 0.46715 0.97795 0.53754 0.0
C576 C 0.46437 0.99056 0.51382 0.0
C577 C 0.46568 0.02463 0.44297 0.0
C578 C 0.46373 0.01332 0.46764 0.0
H579 H 0.48446 0.92663 0.55754 0.0
H580 H 0.47565 0.94718 0.5187 0.0
H581 H 0.50416 0.01629 0.52692 0.0
H582 H 0.46935 0.0754 0.41876 0.0
H583 H 0.46078 0.05677 0.45893 0.0
loop_
_geom_bond_atom_site_label_1
_geom_bond_atom_site_label_2
_geom_bond_distance
_geom_bond_site_symmetry_2
_ccdc_geom_bond_type
C0 O1 1.160 1_455 S
C0 O7 1.185 . S
O1 C0 1.160 1_655 S
O2 Zn3 1.899 1_655 S
O2 C10 1.284 . S
Zn3 O2 1.899 1_455 S
Zn3 O4 2.032 . S
Zn3 O7 2.086 . S
Zn3 O12 1.977 . S
O4 Zn3 2.032 . S
O4 C8 1.278 . S
C5 O6 1.203 1_455 S
C5 O12 1.267 . S
O6 C5 1.203 1_655 S
O7 C0 1.185 . S
O7 Zn3 2.086 . S
C8 O4 1.278 . S
C8 O9 1.211 . S
O9 C8 1.211 . S
C10 O2 1.284 . S
C10 O11 1.273 . S
O11 C10 1.273 . S
O12 Zn3 1.977 . S
O12 C5 1.267 . S
C13 O14 1.160 . S
C13 O20 1.185 . S
O14 C13 1.160 . S
O15 Zn16 1.899 . S
O15 C23 1.284 . S
Zn16 O15 1.899 . S
Zn16 O17 2.032 1_455 S
Zn16 O20 2.086 . S
Zn16 O25 1.977 . S
O17 Zn16 2.032 1_655 S
O17 C21 1.278 . S
C18 O19 1.203 . S
C18 O25 1.267 . S
O19 C18 1.203 . S
O20 C13 1.185 . S
O20 Zn16 2.086 . S
C21 O17 1.278 . S
C21 O22 1.211 . S
O22 C21 1.211 . S
C23 O15 1.284 . S
C23 O24 1.273 . S
O24 C23 1.273 . S
O25 Zn16 1.977 . S
O25 C18 1.267 . S
C26 O27 1.160 1_455 S
C26 O33 1.185 . S
O27 C26 1.160 1_655 S
O28 Zn29 1.899 1_655 S
O28 C36 1.284 . S
Zn29 O28 1.899 1_455 S
Zn29 O30 2.032 . S
Zn29 O33 2.086 . S
Zn29 O38 1.977 . S
O30 Zn29 2.032 . S
O30 C34 1.278 . S
C31 O32 1.203 1_455 S
C31 O38 1.267 . S
O32 C31 1.203 1_655 S
O33 C26 1.185 . S
O33 Zn29 2.086 . S
C34 O30 1.278 . S
C34 O35 1.211 . S
O35 C34 1.211 . S
C36 O28 1.284 . S
C36 O37 1.273 . S
O37 C36 1.273 . S
O38 Zn29 1.977 . S
O38 C31 1.267 . S
C39 O40 1.160 . S
C39 O46 1.185 . S
O40 C39 1.160 . S
O41 Zn42 1.899 . S
O41 C49 1.284 . S
Zn42 O41 1.899 . S
Zn42 O43 2.032 1_455 S
Zn42 O46 2.086 . S
Zn42 O51 1.977 . S
O43 Zn42 2.032 1_655 S
O43 C47 1.278 . S
C44 O45 1.203 . S
C44 O51 1.267 . S
O45 C44 1.203 . S
O46 C39 1.185 . S
O46 Zn42 2.086 . S
C47 O43 1.278 . S
C47 O48 1.211 . S
O48 C47 1.211 . S
C49 O41 1.284 . S
C49 O50 1.273 . S
O50 C49 1.273 . S
O51 Zn42 1.977 . S
O51 C44 1.267 . S
C52 O53 1.160 . S
C52 O59 1.185 . S
O53 C52 1.160 . S
O54 Zn55 1.899 . S
O54 C62 1.284 . S
Zn55 O54 1.899 . S
Zn55 O56 2.032 . S
Zn55 O59 2.086 . S
Zn55 O64 1.977 . S
O56 Zn55 2.032 . S
O56 C60 1.278 . S
C57 O58 1.203 . S
C57 O64 1.267 . S
O58 C57 1.203 . S
O59 C52 1.185 . S
O59 Zn55 2.086 . S
C60 O56 1.278 . S
C60 O61 1.211 . S
O61 C60 1.211 . S
C62 O54 1.284 . S
C62 O63 1.273 . S
O63 C62 1.273 . S
O64 Zn55 1.977 . S
O64 C57 1.267 . S
C65 O66 1.160 . S
C65 O72 1.185 . S
O66 C65 1.160 . S
O67 Zn68 1.899 . S
O67 C75 1.284 . S
Zn68 O67 1.899 . S
Zn68 O69 2.032 . S
Zn68 O72 2.086 . S
Zn68 O77 1.977 . S
O69 Zn68 2.032 . S
O69 C73 1.278 . S
C70 O71 1.203 . S
C70 O77 1.267 . S
O71 C70 1.203 . S
O72 C65 1.185 . S
O72 Zn68 2.086 . S
C73 O69 1.278 . S
C73 O74 1.211 . S
O74 C73 1.211 . S
C75 O67 1.284 . S
C75 O76 1.273 . S
O76 C75 1.273 . S
O77 Zn68 1.977 . S
O77 C70 1.267 . S
C78 O79 1.160 . S
C78 O85 1.185 . S
O79 C78 1.160 . S
O80 Zn81 1.899 . S
O80 C88 1.284 . S
Zn81 O80 1.899 . S
Zn81 O82 2.032 . S
Zn81 O85 2.086 . S
Zn81 O90 1.977 . S
O82 Zn81 2.032 . S
O82 C86 1.278 . S
C83 O84 1.203 . S
C83 O90 1.267 . S
O84 C83 1.203 . S
O85 C78 1.185 . S
O85 Zn81 2.086 . S
C86 O82 1.278 . S
C86 O87 1.211 . S
O87 C86 1.211 . S
C88 O80 1.284 . S
C88 O89 1.273 . S
O89 C88 1.273 . S
O90 Zn81 1.977 . S
O90 C83 1.267 . S
C91 O92 1.160 . S
C91 O98 1.185 . S
O92 C91 1.160 . S
O93 Zn94 1.899 . S
O93 C101 1.284 . S
Zn94 O93 1.899 . S
Zn94 O95 2.032 . S
Zn94 O98 2.086 . S
Zn94 O103 1.977 . S
O95 Zn94 2.032 . S
O95 C99 1.278 . S
C96 O97 1.203 . S
C96 O103 1.267 . S
O97 C96 1.203 . S
O98 C91 1.185 . S
O98 Zn94 2.086 . S
C99 O95 1.278 . S
C99 O100 1.211 . S
O100 C99 1.211 . S
C101 O93 1.284 . S
C101 O102 1.273 . S
O102 C101 1.273 . S
O103 Zn94 1.977 . S
O103 C96 1.267 . S
C104 C105 1.349 . S
C104 C106 1.327 . S
C104 H129 0.950 . S
C105 C104 1.349 . S
C105 C121 1.349 1_455 S
C106 C104 1.327 . S
C106 C125 1.429 . S
C106 H130 0.950 . S
C107 C124 1.574 . S
C107 C126 1.368 1_655 S
C107 H131 0.949 . S
H108 C112 0.949 . S
C109 C110 1.349 1_655 S
C109 C111 1.327 . S
C109 H132 0.950 . S
C110 C109 1.349 1_455 S
C110 C122 1.349 . S
C111 C109 1.327 . S
C111 C127 1.429 1_655 S
C111 H133 0.950 . S
C112 H108 0.949 . S
C112 C120 1.574 . S
C112 C128 1.368 . S
H113 C121 0.950 . S
H114 C119 0.950 . S
H115 C120 0.949 . S
H116 C122 0.950 . S
H117 C123 0.950 . S
H118 C124 0.949 . S
C119 H114 0.950 . S
C119 C121 1.327 . S
C119 C125 1.429 1_655 S
C120 C112 1.574 . S
C120 H115 0.949 . S
C120 C126 1.368 . S
C121 C105 1.349 1_655 S
C121 H113 0.950 . S
C121 C119 1.327 . S
C122 C110 1.349 . S
C122 H116 0.950 . S
C122 C123 1.327 . S
C123 H117 0.950 . S
C123 C122 1.327 . S
C123 C127 1.429 . S
C124 C107 1.574 . S
C124 H118 0.949 . S
C124 C128 1.368 1_655 S
C125 C106 1.429 . S
C125 C119 1.429 1_455 S
C125 C126 1.523 . S
C126 C107 1.368 1_455 S
C126 C120 1.368 . S
C126 C125 1.523 . S
C127 C111 1.429 1_455 S
C127 C123 1.429 . S
C127 C128 1.523 . S
C128 C112 1.368 . S
C128 C124 1.368 1_455 S
C128 C127 1.523 . S
H129 C104 0.950 . S
H130 C106 0.950 . S
H131 C107 0.949 . S
H132 C109 0.950 . S
H133 C111 0.950 . S
C134 C135 1.349 1_655 S
C134 C136 1.327 . S
C134 H159 0.950 . S
C135 C134 1.349 1_455 S
C135 C151 1.349 . S
C136 C134 1.327 . S
C136 C155 1.429 1_655 S
C136 H160 0.950 . S
C137 C154 1.574 . S
C137 C156 1.368 . S
C137 H161 0.949 . S
H138 C142 0.949 . S
C139 C140 1.349 . S
C139 C141 1.327 . S
C139 H162 0.950 . S
C140 C139 1.349 . S
C140 C152 1.349 1_455 S
C141 C139 1.327 . S
C141 C157 1.429 . S
C141 H163 0.950 . S
C142 H138 0.949 . S
C142 C150 1.574 . S
C142 C158 1.368 1_655 S
H143 C151 0.950 . S
H144 C149 0.950 . S
H145 C150 0.949 . S
H146 C152 0.950 . S
H147 C153 0.950 . S
H148 C154 0.949 . S
C149 H144 0.950 . S
C149 C151 1.327 . S
C149 C155 1.429 . S
C150 C142 1.574 . S
C150 H145 0.949 . S
C150 C156 1.368 1_655 S
C151 C135 1.349 . S
C151 H143 0.950 . S
C151 C149 1.327 . S
C152 C140 1.349 1_655 S
C152 H146 0.950 . S
C152 C153 1.327 . S
C153 H147 0.950 . S
C153 C152 1.327 . S
C153 C157 1.429 1_655 S
C154 C137 1.574 . S
C154 H148 0.949 . S
C154 C158 1.368 . S
C155 C136 1.429 1_455 S
C155 C149 1.429 . S
C155 C156 1.523 . S
C156 C137 1.368 . S
C156 C150 1.368 1_455 S
C156 C155 1.523 . S
C157 C141 1.429 . S
C157 C153 1.429 1_455 S
C157 C158 1.523 . S
C158 C142 1.368 1_455 S
C158 C154 1.368 . S
C158 C157 1.523 . S
H159 C134 0.950 . S
H160 C136 0.950 . S
H161 C137 0.949 . S
H162 C139 0.950 . S
H163 C141 0.950 . S
C164 C165 1.349 . S
C164 C166 1.327 . S
C164 H189 0.950 . S
C165 C164 1.349 . S
C165 C181 1.349 . S
C166 C164 1.327 . S
C166 C185 1.429 . S
C166 H190 0.950 . S
C167 C184 1.574 . S
C167 C186 1.368 . S
C167 H191 0.949 . S
H168 C172 0.949 . S
C169 C170 1.349 . S
C169 C171 1.327 . S
C169 H192 0.950 . S
C170 C169 1.349 . S
C170 C182 1.349 . S
C171 C169 1.327 . S
C171 C187 1.429 . S
C171 H193 0.950 . S
C172 H168 0.949 . S
C172 C180 1.574 . S
C172 C188 1.368 . S
H173 C181 0.950 . S
H174 C179 0.950 . S
H175 C180 0.949 . S
H176 C182 0.950 . S
H177 C183 0.950 . S
H178 C184 0.949 . S
C179 H174 0.950 . S
C179 C181 1.327 . S
C179 C185 1.429 . S
C180 C172 1.574 . S
C180 H175 0.949 . S
C180 C186 1.368 . S
C181 C165 1.349 . S
C181 H173 0.950 . S
C181 C179 1.327 . S
C182 C170 1.349 . S
C182 H176 0.950 . S
C182 C183 1.327 . S
C183 H177 0.950 . S
C183 C182 1.327 . S
C183 C187 1.429 . S
C184 C167 1.574 . S
C184 H178 0.949 . S
C184 C188 1.368 . S
C185 C166 1.429 . S
C185 C179 1.429 . S
C185 C186 1.523 . S
C186 C167 1.368 . S
C186 C180 1.368 . S
C186 C185 1.523 . S
C187 C171 1.429 . S
C187 C183 1.429 . S
C187 C188 1.523 . S
C188 C172 1.368 . S
C188 C184 1.368 . S
C188 C187 1.523 . S
H189 C164 0.950 . S
H190 C166 0.950 . S
H191 C167 0.949 . S
H192 C169 0.950 . S
H193 C171 0.950 . S
C194 C195 1.349 . S
C194 C196 1.327 . S
C194 H219 0.950 . S
C195 C194 1.349 . S
C195 C211 1.349 . S
C196 C194 1.327 . S
C196 C215 1.429 . S
C196 H220 0.950 . S
C197 C214 1.574 . S
C197 C216 1.368 . S
C197 H221 0.949 . S
H198 C202 0.949 . S
C199 C200 1.349 . S
C199 C201 1.327 . S
C199 H222 0.950 . S
C200 C199 1.349 . S
C200 C212 1.349 . S
C201 C199 1.327 . S
C201 C217 1.429 . S
C201 H223 0.950 . S
C202 H198 0.949 . S
C202 C210 1.574 . S
C202 C218 1.368 . S
H203 C211 0.950 . S
H204 C209 0.950 . S
H205 C210 0.949 . S
H206 C212 0.950 . S
H207 C213 0.950 . S
H208 C214 0.949 . S
C209 H204 0.950 . S
C209 C211 1.327 . S
C209 C215 1.429 . S
C210 C202 1.574 . S
C210 H205 0.949 . S
C210 C216 1.368 . S
C211 C195 1.349 . S
C211 H203 0.950 . S
C211 C209 1.327 . S
C212 C200 1.349 . S
C212 H206 0.950 . S
C212 C213 1.327 . S
C213 H207 0.950 . S
C213 C212 1.327 . S
C213 C217 1.429 . S
C214 C197 1.574 . S
C214 H208 0.949 . S
C214 C218 1.368 . S
C215 C196 1.429 . S
C215 C209 1.429 . S
C215 C216 1.523 . S
C216 C197 1.368 . S
C216 C210 1.368 . S
C216 C215 1.523 . S
C217 C201 1.429 . S
C217 C213 1.429 . S
C217 C218 1.523 . S
C218 C202 1.368 . S
C218 C214 1.368 . S
C218 C217 1.523 . S
H219 C194 0.950 . S
H220 C196 0.950 . S
H221 C197 0.949 . S
H222 C199 0.950 . S
H223 C201 0.950 . S
C224 C225 1.349 . S
C224 C226 1.327 . S
C224 H249 0.950 . S
C225 C224 1.349 . S
C225 C241 1.349 . S
C226 C224 1.327 . S
C226 C245 1.429 . S
C226 H250 0.950 . S
C227 C244 1.574 . S
C227 C246 1.368 . S
C227 H251 0.949 . S
H228 C232 0.949 . S
C229 C230 1.349 . S
C229 C231 1.327 . S
C229 H252 0.950 . S
C230 C229 1.349 . S
C230 C242 1.349 . S
C231 C229 1.327 . S
C231 C247 1.429 . S
C231 H253 0.950 . S
C232 H228 0.949 . S
C232 C240 1.574 . S
C232 C248 1.368 . S
H233 C241 0.950 . S
H234 C239 0.950 . S
H235 C240 0.949 . S
H236 C242 0.950 . S
H237 C243 0.950 . S
H238 C244 0.949 . S
C239 H234 0.950 . S
C239 C241 1.327 . S
C239 C245 1.429 . S
C240 C232 1.574 . S
C240 H235 0.949 . S
C240 C246 1.368 . S
C241 C225 1.349 . S
C241 H233 0.950 . S
C241 C239 1.327 . S
C242 C230 1.349 . S
C242 H236 0.950 . S
C242 C243 1.327 . S
C243 H237 0.950 . S
C243 C242 1.327 . S
C243 C247 1.429 . S
C244 C227 1.574 . S
C244 H238 0.949 . S
C244 C248 1.368 . S
C245 C226 1.429 . S
C245 C239 1.429 . S
C245 C246 1.523 . S
C246 C227 1.368 . S
C246 C240 1.368 . S
C246 C245 1.523 . S
C247 C231 1.429 . S
C247 C243 1.429 . S
C247 C248 1.523 . S
C248 C232 1.368 . S
C248 C244 1.368 . S
C248 C247 1.523 . S
H249 C224 0.950 . S
H250 C226 0.950 . S
H251 C227 0.949 . S
H252 C229 0.950 . S
H253 C231 0.950 . S
C254 C255 1.349 . S
C254 C256 1.327 . S
C254 H279 0.950 . S
C255 C254 1.349 . S
C255 C271 1.349 . S
C256 C254 1.327 . S
C256 C275 1.429 . S
C256 H280 0.950 . S
C257 C274 1.574 . S
C257 C276 1.368 . S
C257 H281 0.949 . S
H258 C262 0.949 . S
C259 C260 1.349 . S
C259 C261 1.327 . S
C259 H282 0.950 . S
C260 C259 1.349 . S
C260 C272 1.349 . S
C261 C259 1.327 . S
C261 C277 1.429 . S
C261 H283 0.950 . S
C262 H258 0.949 . S
C262 C270 1.574 . S
C262 C278 1.368 . S
H263 C271 0.950 . S
H264 C269 0.950 . S
H265 C270 0.949 . S
H266 C272 0.950 . S
H267 C273 0.950 . S
H268 C274 0.949 . S
C269 H264 0.950 . S
C269 C271 1.327 . S
C269 C275 1.429 . S
C270 C262 1.574 . S
C270 H265 0.949 . S
C270 C276 1.368 . S
C271 C255 1.349 . S
C271 H263 0.950 . S
C271 C269 1.327 . S
C272 C260 1.349 . S
C272 H266 0.950 . S
C272 C273 1.327 . S
C273 H267 0.950 . S
C273 C272 1.327 . S
C273 C277 1.429 . S
C274 C257 1.574 . S
C274 H268 0.949 . S
C274 C278 1.368 . S
C275 C256 1.429 . S
C275 C269 1.429 . S
C275 C276 1.523 . S
C276 C257 1.368 . S
C276 C270 1.368 . S
C276 C275 1.523 . S
C277 C261 1.429 . S
C277 C273 1.429 . S
C277 C278 1.523 . S
C278 C262 1.368 . S
C278 C274 1.368 . S
C278 C277 1.523 . S
H279 C254 0.950 . S
H280 C256 0.950 . S
H281 C257 0.949 . S
H282 C259 0.950 . S
H283 C261 0.950 . S
C284 C285 1.349 . S
C284 C286 1.327 . S
C284 H309 0.950 . S
C285 C284 1.349 . S
C285 C301 1.349 . S
C286 C284 1.327 . S
C286 C305 1.429 . S
C286 H310 0.950 . S
C287 C304 1.574 . S
C287 C306 1.368 . S
C287 H311 0.949 . S
H288 C292 0.949 . S
C289 C290 1.349 . S
C289 C291 1.327 . S
C289 H312 0.950 . S
C290 C289 1.349 . S
C290 C302 1.349 . S
C291 C289 1.327 . S
C291 C307 1.429 . S
C291 H313 0.950 . S
C292 H288 0.949 . S
C292 C300 1.574 . S
C292 C308 1.368 . S
H293 C301 0.950 . S
H294 C299 0.950 . S
H295 C300 0.949 . S
H296 C302 0.950 . S
H297 C303 0.950 . S
H298 C304 0.949 . S
C299 H294 0.950 . S
C299 C301 1.327 . S
C299 C305 1.429 . S
C300 C292 1.574 . S
C300 H295 0.949 . S
C300 C306 1.368 . S
C301 C285 1.349 . S
C301 H293 0.950 . S
C301 C299 1.327 . S
C302 C290 1.349 . S
C302 H296 0.950 . S
C302 C303 1.327 . S
C303 H297 0.950 . S
C303 C302 1.327 . S
C303 C307 1.429 . S
C304 C287 1.574 . S
C304 H298 0.949 . S
C304 C308 1.368 . S
C305 C286 1.429 . S
C305 C299 1.429 . S
C305 C306 1.523 . S
C306 C287 1.368 . S
C306 C300 1.368 . S
C306 C305 1.523 . S
C307 C291 1.429 . S
C307 C303 1.429 . S
C307 C308 1.523 . S
C308 C292 1.368 . S
C308 C304 1.368 . S
C308 C307 1.523 . S
H309 C284 0.950 . S
H310 C286 0.950 . S
H311 C287 0.949 . S
H312 C289 0.950 . S
H313 C291 0.950 . S
C314 C315 1.349 . S
C314 C316 1.327 . S
C314 H339 0.950 . S
C315 C314 1.349 . S
C315 C331 1.349 . S
C316 C314 1.327 . S
C316 C335 1.429 . S
C316 H340 0.950 . S
C317 C334 1.574 . S
C317 C336 1.368 . S
C317 H341 0.949 . S
H318 C322 0.949 . S
C319 C320 1.349 . S
C319 C321 1.327 . S
C319 H342 0.950 . S
C320 C319 1.349 . S
C320 C332 1.349 . S
C321 C319 1.327 . S
C321 C337 1.429 . S
C321 H343 0.950 . S
C322 H318 0.949 . S
C322 C330 1.574 . S
C322 C338 1.368 . S
H323 C331 0.950 . S
H324 C329 0.950 . S
H325 C330 0.949 . S
H326 C332 0.950 . S
H327 C333 0.950 . S
H328 C334 0.949 . S
C329 H324 0.950 . S
C329 C331 1.327 . S
C329 C335 1.429 . S
C330 C322 1.574 . S
C330 H325 0.949 . S
C330 C336 1.368 . S
C331 C315 1.349 . S
C331 H323 0.950 . S
C331 C329 1.327 . S
C332 C320 1.349 . S
C332 H326 0.950 . S
C332 C333 1.327 . S
C333 H327 0.950 . S
C333 C332 1.327 . S
C333 C337 1.429 . S
C334 C317 1.574 . S
C334 H328 0.949 . S
C334 C338 1.368 . S
C335 C316 1.429 . S
C335 C329 1.429 . S
C335 C336 1.523 . S
C336 C317 1.368 . S
C336 C330 1.368 . S
C336 C335 1.523 . S
C337 C321 1.429 . S
C337 C333 1.429 . S
C337 C338 1.523 . S
C338 C322 1.368 . S
C338 C334 1.368 . S
C338 C337 1.523 . S
H339 C314 0.950 . S
H340 C316 0.950 . S
H341 C317 0.949 . S
H342 C319 0.950 . S
H343 C321 0.950 . S
C344 C345 1.349 . S
C344 C346 1.327 . S
C344 H369 0.950 . S
C345 C344 1.349 . S
C345 C361 1.349 . S
C346 C344 1.327 . S
C346 C365 1.429 . S
C346 H370 0.950 . S
C347 C364 1.574 . S
C347 C366 1.368 . S
C347 H371 0.949 . S
H348 C352 0.949 . S
C349 C350 1.349 . S
C349 C351 1.327 . S
C349 H372 0.950 . S
C350 C349 1.349 . S
C350 C362 1.349 . S
C351 C349 1.327 . S
C351 C367 1.429 . S
C351 H373 0.950 . S
C352 H348 0.949 . S
C352 C360 1.574 . S
C352 C368 1.368 . S
H353 C361 0.950 . S
H354 C359 0.950 . S
H355 C360 0.949 . S
H356 C362 0.950 . S
H357 C363 0.950 . S
H358 C364 0.949 . S
C359 H354 0.950 . S
C359 C361 1.327 . S
C359 C365 1.429 . S
C360 C352 1.574 . S
C360 H355 0.949 . S
C360 C366 1.368 . S
C361 C345 1.349 . S
C361 H353 0.950 . S
C361 C359 1.327 . S
C362 C350 1.349 . S
C362 H356 0.950 . S
C362 C363 1.327 . S
C363 H357 0.950 . S
C363 C362 1.327 . S
C363 C367 1.429 . S
C364 C347 1.574 . S
C364 H358 0.949 . S
C364 C368 1.368 . S
C365 C346 1.429 . S
C365 C359 1.429 . S
C365 C366 1.523 . S
C366 C347 1.368 . S
C366 C360 1.368 . S
C366 C365 1.523 . S
C367 C351 1.429 . S
C367 C363 1.429 . S
C367 C368 1.523 . S
C368 C352 1.368 . S
C368 C364 1.368 . S
C368 C367 1.523 . S
H369 C344 0.950 . S
H370 C346 0.950 . S
H371 C347 0.949 . S
H372 C349 0.950 . S
H373 C351 0.950 . S
C374 C375 1.349 . S
C374 C376 1.327 . S
C374 H399 0.950 . S
C375 C374 1.349 . S
C375 C391 1.349 . S
C376 C374 1.327 . S
C376 C395 1.429 . S
C376 H400 0.950 . S
C377 C394 1.574 . S
C377 C396 1.368 . S
C377 H401 0.949 . S
H378 C382 0.949 . S
C379 C380 1.349 . S
C379 C381 1.327 . S
C379 H402 0.950 . S
C380 C379 1.349 . S
C380 C392 1.349 . S
C381 C379 1.327 . S
C381 C397 1.429 . S
C381 H403 0.950 . S
C382 H378 0.949 . S
C382 C390 1.574 . S
C382 C398 1.368 . S
H383 C391 0.950 . S
H384 C389 0.950 . S
H385 C390 0.949 . S
H386 C392 0.950 . S
H387 C393 0.950 . S
H388 C394 0.949 . S
C389 H384 0.950 . S
C389 C391 1.327 . S
C389 C395 1.429 . S
C390 C382 1.574 . S
C390 H385 0.949 . S
C390 C396 1.368 . S
C391 C375 1.349 . S
C391 H383 0.950 . S
C391 C389 1.327 . S
C392 C380 1.349 . S
C392 H386 0.950 . S
C392 C393 1.327 . S
C393 H387 0.950 . S
C393 C392 1.327 . S
C393 C397 1.429 . S
C394 C377 1.574 . S
C394 H388 0.949 . S
C394 C398 1.368 . S
C395 C376 1.429 . S
C395 C389 1.429 . S
C395 C396 1.523 . S
C396 C377 1.368 . S
C396 C390 1.368 . S
C396 C395 1.523 . S
C397 C381 1.429 . S
C397 C393 1.429 . S
C397 C398 1.523 . S
C398 C382 1.368 . S
C398 C394 1.368 . S
C398 C397 1.523 . S
H399 C374 0.950 . S
H400 C376 0.950 . S
H401 C377 0.949 . S
H402 C379 0.950 . S
H403 C381 0.950 . S
C404 C405 1.349 . S
C404 C406 1.327 . S
C404 H429 0.950 . S
C405 C404 1.349 . S
C405 C421 1.349 . S
C406 C404 1.327 . S
C406 C425 1.429 . S
C406 H430 0.950 . S
C407 C424 1.574 . S
C407 C426 1.368 . S
C407 H431 0.949 . S
H408 C412 0.949 . S
C409 C410 1.349 . S
C409 C411 1.327 . S
C409 H432 0.950 . S
C410 C409 1.349 . S
C410 C422 1.349 . S
C411 C409 1.327 . S
C411 C427 1.429 . S
C411 H433 0.950 . S
C412 H408 0.949 . S
C412 C420 1.574 . S
C412 C428 1.368 . S
H413 C421 0.950 . S
H414 C419 0.950 . S
H415 C420 0.949 . S
H416 C422 0.950 . S
H417 C423 0.950 . S
H418 C424 0.949 . S
C419 H414 0.950 . S
C419 C421 1.327 . S
C419 C425 1.429 . S
C420 C412 1.574 . S
C420 H415 0.949 . S
C420 C426 1.368 . S
C421 C405 1.349 . S
C421 H413 0.950 . S
C421 C419 1.327 . S
C422 C410 1.349 . S
C422 H416 0.950 . S
C422 C423 1.327 . S
C423 H417 0.950 . S
C423 C422 1.327 . S
C423 C427 1.429 . S
C424 C407 1.574 . S
C424 H418 0.949 . S
C424 C428 1.368 . S
C425 C406 1.429 . S
C425 C419 1.429 . S
C425 C426 1.523 . S
C426 C407 1.368 . S
C426 C420 1.368 . S
C426 C425 1.523 . S
C427 C411 1.429 . S
C427 C423 1.429 . S
C427 C428 1.523 . S
C428 C412 1.368 . S
C428 C424 1.368 . S
C428 C427 1.523 . S
H429 C404 0.950 . S
H430 C406 0.950 . S
H431 C407 0.949 . S
H432 C409 0.950 . S
H433 C411 0.950 . S
C434 C435 1.349 . S
C434 C436 1.327 . S
C434 H459 0.950 . S
C435 C434 1.349 . S
C435 C451 1.349 . S
C436 C434 1.327 . S
C436 C455 1.429 . S
C436 H460 0.950 . S
C437 C454 1.574 . S
C437 C456 1.368 . S
C437 H461 0.949 . S
H438 C442 0.949 . S
C439 C440 1.349 . S
C439 C441 1.327 . S
C439 H462 0.950 . S
C440 C439 1.349 . S
C440 C452 1.349 . S
C441 C439 1.327 . S
C441 C457 1.429 . S
C441 H463 0.950 . S
C442 H438 0.949 . S
C442 C450 1.574 . S
C442 C458 1.368 . S
H443 C451 0.950 . S
H444 C449 0.950 . S
H445 C450 0.949 . S
H446 C452 0.950 . S
H447 C453 0.950 . S
H448 C454 0.949 . S
C449 H444 0.950 . S
C449 C451 1.327 . S
C449 C455 1.429 . S
C450 C442 1.574 . S
C450 H445 0.949 . S
C450 C456 1.368 . S
C451 C435 1.349 . S
C451 H443 0.950 . S
C451 C449 1.327 . S
C452 C440 1.349 . S
C452 H446 0.950 . S
C452 C453 1.327 . S
C453 H447 0.950 . S
C453 C452 1.327 . S
C453 C457 1.429 . S
C454 C437 1.574 . S
C454 H448 0.949 . S
C454 C458 1.368 . S
C455 C436 1.429 . S
C455 C449 1.429 . S
C455 C456 1.523 . S
C456 C437 1.368 . S
C456 C450 1.368 . S
C456 C455 1.523 . S
C457 C441 1.429 . S
C457 C453 1.429 . S
C457 C458 1.523 . S
C458 C442 1.368 . S
C458 C454 1.368 . S
C458 C457 1.523 . S
H459 C434 0.950 . S
H460 C436 0.950 . S
H461 C437 0.949 . S
H462 C439 0.950 . S
H463 C441 0.950 . S
C464 C465 1.349 . S
C464 C466 1.327 . S
C464 H489 0.950 . S
C465 C464 1.349 . S
C465 C481 1.349 . S
C466 C464 1.327 . S
C466 C485 1.429 . S
C466 H490 0.950 . S
C467 C484 1.574 1_554 S
C467 C486 1.368 1_565 S
C467 H491 0.949 1_455 S
H468 C472 0.949 . S
C469 C470 1.349 . S
C469 C471 1.327 . S
C469 H492 0.950 1_455 S
C470 C469 1.349 . S
C470 C482 1.349 . S
C471 C469 1.327 . S
C471 C487 1.429 . S
C471 H493 0.950 1_455 S
C472 H468 0.949 . S
C472 C480 1.574 1_556 S
C472 C488 1.368 1_545 S
H473 C481 0.950 1_655 S
H474 C479 0.950 1_655 S
H475 C480 0.949 . S
H476 C482 0.950 . S
H477 C483 0.950 . S
H478 C484 0.949 1_655 S
C479 H474 0.950 1_455 S
C479 C481 1.327 . S
C479 C485 1.429 . S
C480 C472 1.574 1_554 S
C480 H475 0.949 . S
C480 C486 1.368 . S
C481 C465 1.349 . S
C481 H473 0.950 1_455 S
C481 C479 1.327 . S
C482 C470 1.349 . S
C482 H476 0.950 . S
C482 C483 1.327 . S
C483 H477 0.950 . S
C483 C482 1.327 . S
C483 C487 1.429 . S
C484 C467 1.574 1_556 S
C484 H478 0.949 1_455 S
C484 C488 1.368 . S
C485 C466 1.429 . S
C485 C479 1.429 . S
C485 C486 1.523 . S
C486 C467 1.368 1_545 S
C486 C480 1.368 . S
C486 C485 1.523 . S
C487 C471 1.429 . S
C487 C483 1.429 . S
C487 C488 1.523 . S
C488 C472 1.368 1_565 S
C488 C484 1.368 . S
C488 C487 1.523 . S
H489 C464 0.950 . S
H490 C466 0.950 . S
H491 C467 0.949 1_655 S
H492 C469 0.950 1_655 S
H493 C471 0.950 1_655 S
C494 C495 1.349 . S
C494 C496 1.327 . S
C494 H519 0.950 . S
C495 C494 1.349 . S
C495 C511 1.349 1_455 S
C496 C494 1.327 . S
C496 C515 1.429 . S
C496 H520 0.950 . S
C497 C514 1.562 1_556 S
C497 C516 1.379 1_655 S
C497 H521 0.950 . S
H498 C502 0.950 . S
C499 C500 1.349 1_655 S
C499 C501 1.327 . S
C499 H522 0.950 . S
C500 C499 1.349 1_455 S
C500 C512 1.349 . S
C501 C499 1.327 . S
C501 C517 1.429 1_655 S
C501 H523 0.950 . S
C502 H498 0.950 . S
C502 C510 1.562 1_554 S
C502 C518 1.379 . S
H503 C511 0.950 . S
H504 C509 0.950 . S
H505 C510 0.949 . S
H506 C512 0.950 . S
H507 C513 0.950 . S
H508 C514 0.949 . S
C509 H504 0.950 . S
C509 C511 1.327 . S
C509 C515 1.429 1_655 S
C510 C502 1.562 1_556 S
C510 H505 0.949 . S
C510 C516 1.368 . S
C511 C495 1.349 1_655 S
C511 H503 0.950 . S
C511 C509 1.327 . S
C512 C500 1.349 . S
C512 H506 0.950 . S
C512 C513 1.327 . S
C513 H507 0.950 . S
C513 C512 1.327 . S
C513 C517 1.429 . S
C514 C497 1.562 1_554 S
C514 H508 0.949 . S
C514 C518 1.368 1_655 S
C515 C496 1.429 . S
C515 C509 1.429 1_455 S
C515 C516 1.523 . S
C516 C497 1.379 1_455 S
C516 C510 1.368 . S
C516 C515 1.523 . S
C517 C501 1.429 1_455 S
C517 C513 1.429 . S
C517 C518 1.523 . S
C518 C502 1.379 . S
C518 C514 1.368 1_455 S
C518 C517 1.523 . S
H519 C494 0.950 . S
H520 C496 0.950 . S
H521 C497 0.950 . S
H522 C499 0.950 . S
H523 C501 0.950 . S
C524 C525 1.349 . S
C524 C526 1.327 . S
C524 H549 0.950 . S
C525 C524 1.349 . S
C525 C541 1.349 . S
C526 C524 1.327 . S
C526 C545 1.429 . S
C526 H550 0.950 . S
C527 C544 1.574 . S
C527 C546 1.368 . S
C527 H551 0.949 . S
H528 C532 0.949 . S
C529 C530 1.349 . S
C529 C531 1.327 . S
C529 H552 0.950 . S
C530 C529 1.349 . S
C530 C542 1.349 . S
C531 C529 1.327 . S
C531 C547 1.429 . S
C531 H553 0.950 . S
C532 H528 0.949 . S
C532 C540 1.574 . S
C532 C548 1.368 . S
H533 C541 0.950 . S
H534 C539 0.950 . S
H535 C540 0.949 . S
H536 C542 0.950 . S
H537 C543 0.950 . S
H538 C544 0.949 . S
C539 H534 0.950 . S
C539 C541 1.327 . S
C539 C545 1.429 . S
C540 C532 1.574 . S
C540 H535 0.949 . S
C540 C546 1.368 . S
C541 C525 1.349 . S
C541 H533 0.950 . S
C541 C539 1.327 . S
C542 C530 1.349 . S
C542 H536 0.950 . S
C542 C543 1.327 . S
C543 H537 0.950 . S
C543 C542 1.327 . S
C543 C547 1.429 . S
C544 C527 1.574 . S
C544 H538 0.949 . S
C544 C548 1.368 . S
C545 C526 1.429 . S
C545 C539 1.429 . S
C545 C546 1.523 . S
C546 C527 1.368 . S
C546 C540 1.368 . S
C546 C545 1.523 . S
C547 C531 1.429 . S
C547 C543 1.429 . S
C547 C548 1.523 . S
C548 C532 1.368 . S
C548 C544 1.368 . S
C548 C547 1.523 . S
H549 C524 0.950 . S
H550 C526 0.950 . S
H551 C527 0.949 . S
H552 C529 0.950 . S
H553 C531 0.950 . S
C554 C555 1.349 . S
C554 C556 1.327 . S
C554 H579 0.950 . S
C555 C554 1.349 . S
C555 C571 1.349 . S
C556 C554 1.327 . S
C556 C575 1.429 . S
C556 H580 0.950 . S
C557 C574 1.574 . S
C557 C576 1.368 1_545 S
C557 H581 0.949 . S
H558 C562 0.949 . S
C559 C560 1.349 . S
C559 C561 1.327 . S
C559 H582 0.950 . S
C560 C559 1.349 . S
C560 C572 1.349 . S
C561 C559 1.327 . S
C561 C577 1.429 . S
C561 H583 0.950 . S
C562 H558 0.949 . S
C562 C570 1.574 . S
C562 C578 1.368 1_565 S
H563 C571 0.950 . S
H564 C569 0.950 . S
H565 C570 0.949 . S
H566 C572 0.950 . S
H567 C573 0.950 . S
H568 C574 0.949 . S
C569 H564 0.950 . S
C569 C571 1.327 . S
C569 C575 1.429 . S
C570 C562 1.574 . S
C570 H565 0.949 . S
C570 C576 1.368 . S
C571 C555 1.349 . S
C571 H563 0.950 . S
C571 C569 1.327 . S
C572 C560 1.349 . S
C572 H566 0.950 . S
C572 C573 1.327 . S
C573 H567 0.950 . S
C573 C572 1.327 . S
C573 C577 1.429 . S
C574 C557 1.574 . S
C574 H568 0.949 . S
C574 C578 1.368 . S
C575 C556 1.429 . S
C575 C569 1.429 . S
C575 C576 1.523 . S
C576 C557 1.368 1_565 S
C576 C570 1.368 . S
C576 C575 1.523 . S
C577 C561 1.429 . S
C577 C573 1.429 . S
C577 C578 1.523 . S
C578 C562 1.368 1_545 S
C578 C574 1.368 . S
C578 C577 1.523 . S
H579 C554 0.950 . S
H580 C556 0.950 . S
H581 C557 0.949 . S
H582 C559 0.950 . S
H583 C561 0.950 . S
C105 C18 1.398 . S
C110 C5 1.398 . S
C135 C31 1.398 . S
C140 C44 1.398 . S
C165 C57 1.398 . S
C170 C70 1.398 . S
C195 C83 1.398 . S
C200 C96 1.398 . S
C225 C99 1.252 . S
C230 C8 1.252 . S
C255 C86 1.253 . S
C260 C21 1.252 . S
C285 C34 1.252 . S
C290 C73 1.252 . S
C315 C60 1.253 . S
C320 C47 1.252 . S
C345 C75 1.407 . S
C350 C36 1.407 . S
C375 C62 1.406 . S
C380 C49 1.406 . S
C405 C101 1.407 . S
C410 C10 1.407 . S
C435 C23 1.406 . S
C440 C88 1.406 . S
C465 C0 1.199 . S
C470 C26 1.199 . S
C495 C39 1.199 . S
C500 C13 1.199 . S
C525 C78 1.198 . S
C530 C52 1.198 . S
C555 C65 1.199 . S
C560 C91 1.199 . S
