# Generated by pormake.
# Topology dei, (4)-cn, num edge types: 1
# Building blocks:
#     Node 0, Type 0, BuildingBlock: CEKHIL_clean_sbu_0, # of connection points: 4
#     Node 1, Type 0, BuildingBlock: CEKHIL_clean_sbu_0, # of connection points: 4
#     Node 2, Type 0, BuildingBlock: CEKHIL_clean_sbu_0, # of connection points: 4
#     Node 3, Type 0, BuildingBlock: CEKHIL_clean_sbu_0, # of connection points: 4
#     Node 4, Type 0, BuildingBlock: CEKHIL_clean_sbu_0, # of connection points: 4
#     Node 5, Type 0, BuildingBlock: CEKHIL_clean_sbu_0, # of connection points: 4
#     Node 6, Type 0, BuildingBlock: CEKHIL_clean_sbu_0, # of connection points: 4
#     Node 7, Type 0, BuildingBlock: CEKHIL_clean_sbu_0, # of connection points: 4
#     Node 8, Type 0, BuildingBlock: CEKHIL_clean_sbu_0, # of connection points: 4
#     Node 9, Type 0, BuildingBlock: CEKHIL_clean_sbu_0, # of connection points: 4
#     Node 10, Type 0, BuildingBlock: CEKHIL_clean_sbu_0, # of connection points: 4
#     Node 11, Type 0, BuildingBlock: CEKHIL_clean_sbu_0, # of connection points: 4
#     Node 12, Type 0, BuildingBlock: CEKHIL_clean_sbu_0, # of connection points: 4
#     Node 13, Type 0, BuildingBlock: CEKHIL_clean_sbu_0, # of connection points: 4
#     Node 14, Type 0, BuildingBlock: CEKHIL_clean_sbu_0, # of connection points: 4
#     Node 15, Type 0, BuildingBlock: CEKHIL_clean_sbu_0, # of connection points: 4
#     Node 16, Type 0, BuildingBlock: CEKHIL_clean_sbu_0, # of connection points: 4
#     Node 17, Type 0, BuildingBlock: CEKHIL_clean_sbu_0, # of connection points: 4
#     Node 18, Type 0, BuildingBlock: CEKHIL_clean_sbu_0, # of connection points: 4
#     Node 19, Type 0, BuildingBlock: CEKHIL_clean_sbu_0, # of connection points: 4
#     Node 20, Type 0, BuildingBlock: CEKHIL_clean_sbu_0, # of connection points: 4
#     Node 21, Type 0, BuildingBlock: CEKHIL_clean_sbu_0, # of connection points: 4
#     Node 22, Type 0, BuildingBlock: CEKHIL_clean_sbu_0, # of connection points: 4
#     Node 23, Type 0, BuildingBlock: CEKHIL_clean_sbu_0, # of connection points: 4
#     Node 24, Type 0, BuildingBlock: CEKHIL_clean_sbu_0, # of connection points: 4
#     Node 25, Type 0, BuildingBlock: CEKHIL_clean_sbu_0, # of connection points: 4
#     Node 26, Type 0, BuildingBlock: CEKHIL_clean_sbu_0, # of connection points: 4
#     Node 27, Type 0, BuildingBlock: CEKHIL_clean_sbu_0, # of connection points: 4
#     Node 28, Type 0, BuildingBlock: CEKHIL_clean_sbu_0, # of connection points: 4
#     Node 29, Type 0, BuildingBlock: CEKHIL_clean_sbu_0, # of connection points: 4
#     Node 30, Type 0, BuildingBlock: CEKHIL_clean_sbu_0, # of connection points: 4
#     Node 31, Type 0, BuildingBlock: CEKHIL_clean_sbu_0, # of connection points: 4
#     Edge 32, Type (0, 0), None
#     Edge 33, Type (0, 0), None
#     Edge 34, Type (0, 0), None
#     Edge 35, Type (0, 0), None
#     Edge 36, Type (0, 0), None
#     Edge 37, Type (0, 0), None
#     Edge 38, Type (0, 0), None
#     Edge 39, Type (0, 0), None
#     Edge 40, Type (0, 0), None
#     Edge 41, Type (0, 0), None
#     Edge 42, Type (0, 0), None
#     Edge 43, Type (0, 0), None
#     Edge 44, Type (0, 0), None
#     Edge 45, Type (0, 0), None
#     Edge 46, Type (0, 0), None
#     Edge 47, Type (0, 0), None
#     Edge 48, Type (0, 0), None
#     Edge 49, Type (0, 0), None
#     Edge 50, Type (0, 0), None
#     Edge 51, Type (0, 0), None
#     Edge 52, Type (0, 0), None
#     Edge 53, Type (0, 0), None
#     Edge 54, Type (0, 0), None
#     Edge 55, Type (0, 0), None
#     Edge 56, Type (0, 0), None
#     Edge 57, Type (0, 0), None
#     Edge 58, Type (0, 0), None
#     Edge 59, Type (0, 0), None
#     Edge 60, Type (0, 0), None
#     Edge 61, Type (0, 0), None
#     Edge 62, Type (0, 0), None
#     Edge 63, Type (0, 0), None
#     Edge 64, Type (0, 0), None
#     Edge 65, Type (0, 0), None
#     Edge 66, Type (0, 0), None
#     Edge 67, Type (0, 0), None
#     Edge 68, Type (0, 0), None
#     Edge 69, Type (0, 0), None
#     Edge 70, Type (0, 0), None
#     Edge 71, Type (0, 0), None
#     Edge 72, Type (0, 0), None
#     Edge 73, Type (0, 0), None
#     Edge 74, Type (0, 0), None
#     Edge 75, Type (0, 0), None
#     Edge 76, Type (0, 0), None
#     Edge 77, Type (0, 0), None
#     Edge 78, Type (0, 0), None
#     Edge 79, Type (0, 0), None
#     Edge 80, Type (0, 0), None
#     Edge 81, Type (0, 0), None
#     Edge 82, Type (0, 0), None
#     Edge 83, Type (0, 0), None
#     Edge 84, Type (0, 0), None
#     Edge 85, Type (0, 0), None
#     Edge 86, Type (0, 0), None
#     Edge 87, Type (0, 0), None
#     Edge 88, Type (0, 0), None
#     Edge 89, Type (0, 0), None
#     Edge 90, Type (0, 0), None
#     Edge 91, Type (0, 0), None
#     Edge 92, Type (0, 0), None
#     Edge 93, Type (0, 0), None
#     Edge 94, Type (0, 0), None
#     Edge 95, Type (0, 0), None
# Relax obj value: 0.225
# Max RMSD: 0.071
# Mean RMSD: 0.071
data_MOF--net-dei--node1-CEKHIL_clean_sbu_0--edge1-none
_symmetry_space_group_name_H-M    P1
_symmetry_Int_Tables_number       1
_symmetry_cell_setting            triclinic
loop_
_symmetry_equiv_pos_as_xyz
'x, y, z'
_cell_length_a     25.777197
_cell_length_b     25.708841
_cell_length_c     33.600071
_cell_angle_alpha  89.946135
_cell_angle_beta   90.249928
_cell_angle_gamma 89.962217
loop_
_atom_site_label
_atom_site_type_symbol
_atom_site_fract_x
_atom_site_fract_y
_atom_site_fract_z
_atom_type_partial_charge
Co0 Co 0.14033 0.63596 0.01311 0.0
O1 O 0.11934 0.56361 0.0165 0.0
O2 O 0.17726 0.59227 0.97422 0.0
C3 C 0.1454 0.63589 0.08168 0.0
O4 O 0.17137 0.7129 0.0047 0.0
Co5 Co 0.04385 0.70557 0.06849 0.0
O6 O 0.10635 0.70834 0.03772 0.0
C7 C 0.03543 0.66489 -0.01253 0.0
C8 C 0.15273 0.55262 -0.01049 0.0
C9 C 0.13879 0.73928 0.02429 0.0
O10 O 0.08004 0.64945 0.97497 0.0
O11 O 0.03433 0.70728 0.00748 0.0
O12 O 0.1843 0.62178 0.05969 0.0
O13 O 0.10575 0.65443 0.06226 0.0
Co14 Co 0.66521 0.90124 0.27583 0.0
O15 O 0.73899 0.88903 0.27698 0.0
O16 O 0.70075 0.94132 0.23426 0.0
C17 C 0.66206 0.90868 0.34161 0.0
O18 O 0.58607 0.92142 0.27146 0.0
Co19 Co 0.59893 0.81568 0.32165 0.0
O20 O 0.54286 0.84831 0.28853 0.0
C21 C 0.65977 0.79631 0.25749 0.0
C22 C 0.74393 0.92169 0.24837 0.0
C23 C 0.54295 0.89508 0.27535 0.0
O24 O 0.65436 0.83999 0.23992 0.0
O25 O 0.66614 0.79759 0.29488 0.0
O26 O 0.67445 0.94921 0.32049 0.0
O27 O 0.65469 0.86626 0.32271 0.0
Co28 Co 0.39028 0.42012 0.52246 0.0
O29 O 0.40252 0.49416 0.52241 0.0
O30 O 0.35275 0.45472 0.47862 0.0
C31 C 0.37824 0.41784 0.58775 0.0
O32 O 0.37042 0.34062 0.51954 0.0
Co33 Co 0.47405 0.35634 0.57283 0.0
O34 O 0.44235 0.29853 0.54123 0.0
C35 C 0.49658 0.41299 0.50649 0.0
C36 C 0.37157 0.49833 0.49259 0.0
C37 C 0.39642 0.29778 0.52652 0.0
O38 O 0.45298 0.40782 0.48884 0.0
O39 O 0.49578 0.42086 0.54369 0.0
O40 O 0.33956 0.4305 0.56474 0.0
O41 O 0.42208 0.41082 0.57094 0.0
Co42 Co 0.87184 0.13475 0.77577 0.0
O43 O 0.79786 0.14607 0.77693 0.0
O44 O 0.83635 0.09803 0.73197 0.0
C45 C 0.87477 0.1204 0.84048 0.0
O46 O 0.95199 0.11677 0.77231 0.0
Co47 Co 0.93266 0.21931 0.82567 0.0
O48 O 0.99074 0.19083 0.79306 0.0
C49 C 0.87548 0.24291 0.75892 0.0
C50 C 0.793 0.11582 0.74694 0.0
C51 C 0.99372 0.14466 0.77901 0.0
O52 O 0.88211 0.19861 0.74258 0.0
O53 O 0.86934 0.2442 0.79634 0.0
O54 O 0.86309 0.08211 0.81691 0.0
O55 O 0.88054 0.16521 0.82447 0.0
Co56 Co 0.14058 0.41812 0.94566 0.0
O57 O 0.12261 0.49104 0.94228 0.0
O58 O 0.17435 0.45897 -0.01177 0.0
C59 C 0.15505 0.41217 0.8809 0.0
O60 O 0.16593 0.34035 0.95201 0.0
Co61 Co 0.06585 0.34201 0.8977 0.0
O62 O 0.09311 0.29502 0.94069 0.0
C63 C 0.03523 0.4043 0.95897 0.0
C64 C 0.15262 0.4999 0.97203 0.0
C65 C 0.14083 0.29613 0.95076 0.0
O66 O 0.07779 0.40396 0.97845 0.0
O67 O 0.03795 0.40782 0.92141 0.0
O68 O 0.19172 0.42943 0.90403 0.0
O69 O 0.11115 0.40264 0.89699 0.0
Co70 Co 0.86934 0.89834 0.19592 0.0
O71 O 0.79549 0.88772 0.19755 0.0
O72 O 0.83694 0.93931 0.2388 0.0
C73 C 0.86515 0.90449 0.12964 0.0
O74 O 0.94979 0.916 0.19702 0.0
Co75 Co 0.92731 0.81027 0.14517 0.0
O76 O 0.98894 0.84525 0.17001 0.0
C77 C 0.87082 0.79466 0.2123 0.0
C78 C 0.79274 0.92038 0.22613 0.0
C79 C 0.99159 0.88975 0.18732 0.0
O80 O 0.8809 0.83645 0.23118 0.0
O81 O 0.8607 0.79989 0.17562 0.0
O82 O 0.85756 0.94612 0.15085 0.0
O83 O 0.87431 0.86297 0.14895 0.0
Co84 Co 0.39032 0.62811 0.44407 0.0
O85 O 0.39668 0.55321 0.43962 0.0
O86 O 0.35487 0.5921 0.48791 0.0
C87 C 0.37475 0.62942 0.37897 0.0
O88 O 0.37901 0.709 0.45539 0.0
Co89 Co 0.452 0.70687 0.39606 0.0
O90 O 0.37951 0.73448 0.39406 0.0
C91 C 0.49681 0.65628 0.46774 0.0
C92 C 0.3698 0.54854 0.47145 0.0
C93 C 0.37287 0.7468 0.42989 0.0
O94 O 0.45594 0.63017 0.47564 0.0
O95 O 0.49446 0.69816 0.44699 0.0
O96 O 0.33633 0.62417 0.40366 0.0
O97 O 0.41988 0.63874 0.39399 0.0
Co98 Co 0.66481 0.13704 0.6964 0.0
O99 O 0.73894 0.14718 0.69592 0.0
O100 O 0.69927 0.09907 0.74023 0.0
C101 C 0.66373 0.1244 0.63107 0.0
O102 O 0.58438 0.12095 0.69895 0.0
Co103 Co 0.60915 0.22537 0.64352 0.0
O104 O 0.5478 0.1918 0.66943 0.0
C105 C 0.66351 0.24334 0.71183 0.0
C106 C 0.74301 0.11651 0.72572 0.0
C107 C 0.54367 0.14796 0.68761 0.0
O108 O 0.65482 0.20064 0.72986 0.0
O109 O 0.674 0.24027 0.67511 0.0
O110 O 0.67371 0.08518 0.65429 0.0
O111 O 0.65753 0.16834 0.64795 0.0
Co112 Co 0.89008 0.40408 0.94538 0.0
O113 O 0.89906 0.47864 0.94186 0.0
O114 O 0.85215 0.44059 -0.01228 0.0
C115 C 0.87977 0.40362 0.87912 0.0
O116 O 0.87632 0.32345 0.9555 0.0
Co117 Co 0.95676 0.32534 0.89791 0.0
O118 O 0.88345 0.30001 0.89397 0.0
C119 C 0.99254 0.37245 0.97284 0.0
C120 C 0.87002 0.48382 0.97247 0.0
C121 C 0.87399 0.28638 0.9292 0.0
O122 O 0.95226 0.39932 0.98064 0.0
O123 O 0.98805 0.32953 0.95379 0.0
O124 O 0.83981 0.41016 0.90211 0.0
O125 O 0.92333 0.39323 0.89643 0.0
Co126 Co 0.37359 0.14215 0.69905 0.0
O127 O 0.29913 0.15152 0.69661 0.0
O128 O 0.33771 0.10197 0.74082 0.0
C129 C 0.37156 0.13487 0.63266 0.0
O130 O 0.45435 0.12691 0.70764 0.0
Co131 Co 0.45214 0.20951 0.65078 0.0
O132 O 0.47594 0.13554 0.64579 0.0
C133 C 0.40776 0.24321 0.72613 0.0
C134 C 0.29431 0.12005 0.72599 0.0
C135 C 0.4904 0.12445 0.68063 0.0
O136 O 0.37984 0.20384 0.73492 0.0
O137 O 0.45074 0.2358 0.70814 0.0
O138 O 0.3658 0.09376 0.65483 0.0
O139 O 0.3835 0.17747 0.6507 0.0
Co140 Co 0.64581 0.61795 0.44113 0.0
O141 O 0.63445 0.54362 0.44094 0.0
O142 O 0.68435 0.58324 0.48444 0.0
C143 C 0.6555 0.62079 0.37485 0.0
O144 O 0.66463 0.69767 0.44518 0.0
Co145 Co 0.56073 0.68222 0.39197 0.0
O146 O 0.59171 0.73927 0.42506 0.0
C147 C 0.54063 0.6235 0.45715 0.0
C148 C 0.66543 0.53953 0.47079 0.0
C149 C 0.63755 0.74027 0.43998 0.0
O150 O 0.58356 0.62907 0.47562 0.0
O151 O 0.54326 0.61549 0.42005 0.0
O152 O 0.69517 0.60876 0.39712 0.0
O153 O 0.61269 0.62772 0.39301 0.0
Co154 Co 0.16228 0.89713 0.19868 0.0
O155 O 0.23686 0.88911 0.19579 0.0
O156 O 0.19815 0.93546 0.24161 0.0
C157 C 0.16458 0.90853 0.13274 0.0
O158 O 0.08111 0.91069 0.20779 0.0
Co159 Co 0.08412 0.83308 0.14954 0.0
O160 O 0.05838 0.90645 0.14593 0.0
C161 C 0.12781 0.79506 0.22439 0.0
C162 C 0.24159 0.91908 0.22601 0.0
C163 C 0.04438 0.91485 0.18111 0.0
O164 O 0.1576 0.8333 0.23261 0.0
O165 O 0.08501 0.80393 0.20624 0.0
O166 O 0.16885 0.94834 0.1564 0.0
O167 O 0.15302 0.86452 0.14901 0.0
Co168 Co 0.89307 0.61036 0.02507 0.0
O169 O 0.90569 0.53647 0.0233 0.0
O170 O 0.85372 0.57729 0.98163 0.0
C171 C 0.88329 0.60945 0.09119 0.0
O172 O 0.87172 0.68998 0.0228 0.0
Co173 Co 0.97572 0.67369 0.0742 0.0
O174 O 0.94034 0.7338 0.04811 0.0
C175 C 1.00099 0.62493 0.00383 0.0
C176 C 0.87306 0.53328 -0.0056 0.0
C177 C 0.89595 0.73356 0.03091 0.0
O178 O 0.95461 0.62475 -0.01014 0.0
O179 O 1.00687 0.61696 0.04084 0.0
O180 O 0.84388 0.59825 0.06853 0.0
O181 O 0.92627 0.61761 0.07334 0.0
Co182 Co 0.16366 0.14027 0.77235 0.0
O183 O 0.23789 0.15115 0.77578 0.0
O184 O 0.20139 0.09983 0.73182 0.0
C185 C 0.1636 0.1347 0.83884 0.0
O186 O 0.08366 0.1233 0.76245 0.0
Co187 Co 0.08227 0.20719 0.81745 0.0
O188 O 0.05869 0.13329 0.82343 0.0
C189 C 0.12908 0.24033 0.74245 0.0
C190 C 0.24405 0.11927 0.74684 0.0
C191 C 0.04626 0.12102 0.78836 0.0
O192 O 0.15713 0.20054 0.73509 0.0
O193 O 0.08574 0.23409 0.76024 0.0
O194 O 0.17109 0.0932 0.81746 0.0
O195 O 0.15151 0.17668 0.81994 0.0
Co196 Co 0.64286 0.41148 0.52141 0.0
O197 O 0.63556 0.48645 0.52337 0.0
O198 O 0.68228 0.44594 0.47871 0.0
C199 C 0.65214 0.41314 0.58783 0.0
O200 O 0.65566 0.33019 0.51285 0.0
Co201 Co 0.57534 0.33493 0.56935 0.0
O202 O 0.64813 0.30852 0.57472 0.0
C203 C 0.53968 0.38059 0.49384 0.0
C204 C 0.6655 0.49006 0.4931 0.0
C205 C 0.6584 0.29395 0.53989 0.0
O206 O 0.58045 0.40694 0.48615 0.0
O207 O 0.54321 0.33818 0.51374 0.0
O208 O 0.69259 0.41789 0.56506 0.0
O209 O 0.60878 0.40277 0.57029 0.0
Co210 Co 0.37355 0.90203 0.27167 0.0
O211 O 0.29916 0.89403 0.27757 0.0
O212 O 0.33509 0.93716 0.22859 0.0
C213 C 0.37712 0.91702 0.33641 0.0
O214 O 0.45325 0.91502 0.25892 0.0
Co215 Co 0.45562 0.84202 0.31835 0.0
O216 O 0.48152 0.91524 0.3197 0.0
C217 C 0.40324 0.79585 0.24742 0.0
C218 C 0.29262 0.9213 0.24596 0.0
C219 C 0.49195 0.92152 0.2835 0.0
O220 O 0.37633 0.83661 0.24017 0.0
O221 O 0.44448 0.79733 0.26899 0.0
O222 O 0.36982 0.95575 0.31204 0.0
O223 O 0.38689 0.87214 0.32126 0.0
Co224 Co 0.64459 0.11949 0.52372 0.0
O225 O 0.63374 0.0454 0.52431 0.0
O226 O 0.68167 0.0848 0.47978 0.0
C227 C 0.65817 0.11955 0.58903 0.0
O228 O 0.6611 0.19997 0.52123 0.0
Co229 Co 0.55724 0.17479 0.57727 0.0
O230 O 0.59151 0.23647 0.55204 0.0
C231 C 0.5383 0.12213 0.50834 0.0
C232 C 0.66408 0.04111 0.49454 0.0
C233 C 0.63469 0.24066 0.53325 0.0
O234 O 0.58092 0.13043 0.49041 0.0
O235 O 0.54134 0.11077 0.54498 0.0
O236 O 0.69685 0.10964 0.56558 0.0
O237 O 0.6142 0.12655 0.57232 0.0
Co238 Co 0.1639 0.39169 0.77411 0.0
O239 O 0.23768 0.37977 0.7748 0.0
O240 O 0.19814 0.42841 0.73013 0.0
C241 C 0.16174 0.40554 0.83906 0.0
O242 O 0.08429 0.41068 0.77042 0.0
Co243 Co 0.10134 0.30842 0.82393 0.0
O244 O 0.04441 0.3367 0.78958 0.0
C245 C 0.15854 0.28407 0.75784 0.0
C246 C 0.24166 0.41003 0.74463 0.0
C247 C 0.04222 0.38311 0.77587 0.0
O248 O 0.15255 0.32815 0.74097 0.0
O249 O 0.16472 0.28331 0.7953 0.0
O250 O 0.17377 0.44382 0.81558 0.0
O251 O 0.15509 0.36099 0.82286 0.0
Co252 Co 0.88891 0.90372 0.02377 0.0
O253 O 0.89675 0.9784 0.02899 0.0
O254 O 0.85547 0.9412 0.97947 0.0
C255 C 0.87204 0.90459 0.08752 0.0
O256 O 0.87685 0.82306 0.01184 0.0
Co257 Co 0.9436 0.82229 0.07447 0.0
O258 O 0.87053 0.79665 0.07274 0.0
C259 C 0.99739 0.87909 0.00751 0.0
C260 C 0.87019 0.98419 -0.00299 0.0
C261 C 0.86813 0.78484 0.0365 0.0
O262 O 0.95549 0.90001 -0.00529 0.0
O263 O 0.99785 0.84223 0.03348 0.0
O264 O 0.83369 0.90928 0.06241 0.0
O265 O 0.91687 0.89246 0.0738 0.0
Co266 Co 0.36743 0.64527 0.27015 0.0
O267 O 0.29354 0.65695 0.26878 0.0
O268 O 0.33437 0.60808 0.22539 0.0
C269 C 0.36715 0.63367 0.33652 0.0
O270 O 0.44721 0.62698 0.26789 0.0
Co271 Co 0.42761 0.73015 0.32263 0.0
O272 O 0.48721 0.69828 0.29325 0.0
C273 C 0.37147 0.75065 0.25581 0.0
C274 C 0.2905 0.62716 0.23828 0.0
C275 C 0.48918 0.65365 0.27621 0.0
O276 O 0.37944 0.7086 0.23683 0.0
O277 O 0.36178 0.74624 0.29257 0.0
O278 O 0.35662 0.59443 0.31341 0.0
O279 O 0.37485 0.67691 0.31893 0.0
Co280 Co 0.64381 0.91023 0.44858 0.0
O281 O 0.63574 0.98486 0.44379 0.0
O282 O 0.68118 0.94743 0.49109 0.0
C283 C 0.65637 0.90996 0.38392 0.0
O284 O 0.65713 0.82963 0.45924 0.0
Co285 Co 0.5813 0.83065 0.40125 0.0
O286 O 0.65456 0.80537 0.39761 0.0
C287 C 0.53839 0.88123 0.47339 0.0
C288 C 0.66517 0.99052 0.47427 0.0
C289 C 0.66265 0.79249 0.4332 0.0
O290 O 0.57986 0.90646 0.48156 0.0
O291 O 0.53961 0.83965 0.45226 0.0
O292 O 0.69593 0.91545 0.40769 0.0
O293 O 0.61199 0.89939 0.39944 0.0
Co294 Co 0.36978 0.39468 0.69434 0.0
O295 O 0.29625 0.38122 0.69305 0.0
O296 O 0.33437 0.42973 0.73845 0.0
C297 C 0.37278 0.41023 0.62965 0.0
O298 O 0.4487 0.41568 0.69892 0.0
Co299 Co 0.43645 0.31518 0.64504 0.0
O300 O 0.49094 0.34235 0.68212 0.0
C301 C 0.3783 0.28654 0.70978 0.0
C302 C 0.29138 0.41083 0.72351 0.0
C303 C 0.49164 0.38909 0.69498 0.0
O304 O 0.38228 0.33065 0.72693 0.0
O305 O 0.37384 0.28578 0.67217 0.0
O306 O 0.3593 0.44754 0.65353 0.0
O307 O 0.3801 0.36526 0.64519 0.0
Co308 Co 0.89218 0.11321 0.94777 0.0
O309 O 0.9038 0.0392 0.94761 0.0
O310 O 0.85435 0.07855 -0.00873 0.0
C311 C 0.87986 0.11393 0.88239 0.0
O312 O 0.87427 0.19324 0.94972 0.0
Co313 Co 0.98008 0.16935 0.89482 0.0
O314 O 0.94272 0.23062 0.91802 0.0
C315 C 0.99808 0.11738 0.96411 0.0
C316 C 0.87263 0.03492 0.97691 0.0
C317 C 0.89947 0.23417 0.9368 0.0
O318 O 0.95514 0.12506 0.98181 0.0
O319 O 0.99531 0.10543 0.9276 0.0
O320 O 0.84091 0.10299 0.90531 0.0
O321 O 0.9235 0.12077 0.89955 0.0
Co322 Co 0.16067 0.64542 0.19011 0.0
O323 O 0.23467 0.65797 0.18691 0.0
O324 O 0.19861 0.60611 0.23089 0.0
C325 C 0.14931 0.637 0.12449 0.0
O326 O 0.08314 0.62322 0.19799 0.0
Co327 Co 0.08619 0.72745 0.14956 0.0
O328 O 0.03715 0.69643 0.18914 0.0
C329 C 0.15538 0.75061 0.20819 0.0
C330 C 0.24097 0.62614 0.2162 0.0
C331 C 0.03933 0.6485 0.19896 0.0
O332 O 0.15224 0.70688 0.22603 0.0
O333 O 0.15578 0.74974 0.1705 0.0
O334 O 0.16621 0.59758 0.14522 0.0
O335 O 0.14443 0.68006 0.14314 0.0
Co336 Co 0.38996 0.92125 0.44513 0.0
O337 O 0.40151 0.99529 0.44727 0.0
O338 O 0.35085 0.95386 0.48898 0.0
C339 C 0.3806 0.92367 0.37883 0.0
O340 O 0.37163 0.84106 0.44606 0.0
Co341 Co 0.47668 0.86237 0.39394 0.0
O342 O 0.44265 0.8014 0.42019 0.0
C343 C 0.49521 0.91501 0.46295 0.0
C344 C 0.36994 0.9981 0.47653 0.0
C345 C 0.39805 0.79911 0.43696 0.0
O346 O 0.45171 0.90804 0.48001 0.0
O347 O 0.494 0.92595 0.42619 0.0
O348 O 0.34071 0.9334 0.40119 0.0
O349 O 0.42327 0.91513 0.39713 0.0
Co350 Co 0.87094 0.64015 0.1968 0.0
O351 O 0.79666 0.64683 0.18869 0.0
O352 O 0.83194 0.60828 0.24051 0.0
C353 C 0.87824 0.61967 0.13312 0.0
O354 O 0.94974 0.62869 0.21237 0.0
Co355 Co 0.95423 0.69791 0.15079 0.0
O356 O 0.98144 0.62531 0.15272 0.0
C357 C 0.90076 0.74787 0.21952 0.0
C358 C 0.78977 0.62235 0.22158 0.0
C359 C 0.98962 0.6211 0.18947 0.0
O360 O 0.87205 0.70802 0.22541 0.0
O361 O 0.94172 0.74595 0.19796 0.0
O362 O 0.86946 0.58314 0.15907 0.0
O363 O 0.88631 0.66601 0.14629 0.0
Co364 Co 0.14802 0.12658 0.94721 0.0
O365 O 0.14054 0.05162 0.9408 0.0
O366 O 0.18491 0.08786 -0.01086 0.0
C367 C 0.15993 0.13283 0.88184 0.0
O368 O 0.16161 0.20572 0.96186 0.0
Co369 Co 0.087 0.21112 0.90396 0.0
O370 O 0.15943 0.23865 0.90253 0.0
C371 C 0.04125 0.15226 0.97219 0.0
C372 C 0.16876 0.04514 0.9721 0.0
C373 C 0.16724 0.24628 0.93906 0.0
O374 O 0.08375 0.12836 0.97994 0.0
O375 O 0.03959 0.19322 0.95026 0.0
O376 O 0.1996 0.12419 0.90509 0.0
O377 O 0.1161 0.14199 0.89853 0.0
Co378 Co 0.66094 0.39437 0.6963 0.0
O379 O 0.73548 0.38592 0.69096 0.0
O380 O 0.6991 0.4298 0.73935 0.0
C381 C 0.6565 0.40793 0.63073 0.0
O382 O 0.58168 0.4084 0.70948 0.0
Co383 Co 0.57766 0.33445 0.65045 0.0
O384 O 0.55191 0.4078 0.64914 0.0
C385 C 0.63131 0.28816 0.72081 0.0
C386 C 0.74172 0.41322 0.72265 0.0
C387 C 0.54248 0.41488 0.68544 0.0
O388 O 0.65771 0.3292 0.72833 0.0
O389 O 0.58987 0.28935 0.69946 0.0
O390 O 0.66482 0.44707 0.65452 0.0
O391 O 0.6467 0.36379 0.64703 0.0
Co392 Co 0.38812 0.1281 0.5244 0.0
O393 O 0.39513 0.05319 0.5297 0.0
O394 O 0.35125 0.09109 0.4817 0.0
C395 C 0.37585 0.13175 0.5898 0.0
O396 O 0.37559 0.20796 0.5113 0.0
Co397 Co 0.44989 0.20997 0.57002 0.0
O398 O 0.37702 0.23656 0.57179 0.0
C399 C 0.49428 0.15561 0.4996 0.0
C400 C 0.36711 0.04784 0.49825 0.0
C401 C 0.36998 0.24692 0.53557 0.0
O402 O 0.45263 0.13028 0.49204 0.0
O403 O 0.49431 0.19694 0.52107 0.0
O404 O 0.33615 0.12479 0.56627 0.0
O405 O 0.4198 0.14114 0.57339 0.0
Co406 Co 0.6592 0.64594 0.26764 0.0
O407 O 0.73379 0.6522 0.27224 0.0
O408 O 0.69495 0.61047 0.22357 0.0
C409 C 0.65866 0.62935 0.33252 0.0
O410 O 0.57846 0.63459 0.2567 0.0
Co411 Co 0.58133 0.70782 0.31683 0.0
O412 O 0.55446 0.63489 0.31836 0.0
C413 C 0.62888 0.75211 0.24461 0.0
C414 C 0.73836 0.62494 0.24053 0.0
C415 C 0.54146 0.62838 0.2826 0.0
O416 O 0.65659 0.71221 0.23666 0.0
O417 O 0.58666 0.74749 0.26434 0.0
O418 O 0.66365 0.59127 0.30735 0.0
O419 O 0.64918 0.67493 0.31814 0.0
Co420 Co 0.1459 0.91664 0.02349 0.0
O421 O 0.13947 0.99162 0.02469 0.0
O422 O 0.18208 0.94999 0.97829 0.0
C423 C 0.16073 0.91462 0.09 0.0
O424 O 0.15644 0.83542 0.01759 0.0
Co425 Co 0.05992 0.86397 0.08308 0.0
O426 O 0.09683 0.80208 0.06074 0.0
C427 C 0.04021 0.91528 0.01273 0.0
C428 C 0.16685 0.9945 -0.00694 0.0
C429 C 0.13266 0.79624 0.03462 0.0
O430 O 0.08062 0.90968 -0.00834 0.0
O431 O 0.04747 0.92742 0.04889 0.0
O432 O 0.19956 0.9223 0.06606 0.0
O433 O 0.11699 0.90984 0.07314 0.0
Co434 Co 0.8724 0.38971 0.76997 0.0
O435 O 0.79771 0.38181 0.77369 0.0
O436 O 0.83586 0.42844 0.72761 0.0
C437 C 0.87501 0.39963 0.83616 0.0
O438 O 0.95244 0.4038 0.75926 0.0
Co439 Co 0.9531 0.32376 0.81692 0.0
O440 O 0.97885 0.39716 0.82042 0.0
C441 C 0.90448 0.28683 0.74335 0.0
C442 C 0.79263 0.4115 0.74313 0.0
C443 C 0.99034 0.40747 0.78487 0.0
O444 O 0.87612 0.32642 0.73559 0.0
O445 O 0.94807 0.29303 0.76103 0.0
O446 O 0.8676 0.4399 0.81329 0.0
O447 O 0.88478 0.35613 0.81878 0.0
loop_
_geom_bond_atom_site_label_1
_geom_bond_atom_site_label_2
_geom_bond_distance
_geom_bond_site_symmetry_2
_ccdc_geom_bond_type
Co0 O1 2.216 . S
Co0 O2 2.091 1_554 S
Co0 O4 2.004 . S
Co0 O10 2.021 1_554 S
Co0 O12 2.137 . S
Co0 O13 2.244 . S
O1 Co0 2.216 . S
O1 C8 1.247 1_554 S
O2 Co0 2.091 1_556 S
O2 C8 1.261 . S
C3 O12 1.247 . S
C3 O13 1.272 . S
O4 Co0 2.004 . S
O4 C9 1.259 . S
Co5 O6 2.061 . S
Co5 O11 2.052 . S
Co5 O13 2.135 . S
O6 Co5 2.061 . S
O6 C9 1.235 . S
C7 O10 1.238 1_554 S
C7 O11 1.241 . S
C8 O1 1.247 1_556 S
C8 O2 1.261 . S
C9 O4 1.259 . S
C9 O6 1.235 . S
O10 Co0 2.021 1_556 S
O10 C7 1.238 1_556 S
O11 Co5 2.052 . S
O11 C7 1.241 . S
O12 Co0 2.137 . S
O12 C3 1.247 . S
O13 Co0 2.244 . S
O13 C3 1.272 . S
O13 Co5 2.135 . S
Co14 O15 2.216 . S
Co14 O16 2.091 . S
Co14 O18 2.004 . S
Co14 O24 2.021 . S
Co14 O26 2.137 . S
Co14 O27 2.244 . S
O15 Co14 2.216 . S
O15 C22 1.247 . S
O16 Co14 2.091 . S
O16 C22 1.261 . S
C17 O26 1.247 . S
C17 O27 1.272 . S
O18 Co14 2.004 . S
O18 C23 1.259 . S
Co19 O20 2.061 . S
Co19 O25 2.052 . S
Co19 O27 2.135 . S
O20 Co19 2.061 . S
O20 C23 1.235 . S
C21 O24 1.238 . S
C21 O25 1.241 . S
C22 O15 1.247 . S
C22 O16 1.261 . S
C23 O18 1.259 . S
C23 O20 1.235 . S
O24 Co14 2.021 . S
O24 C21 1.238 . S
O25 Co19 2.052 . S
O25 C21 1.241 . S
O26 Co14 2.137 . S
O26 C17 1.247 . S
O27 Co14 2.244 . S
O27 C17 1.272 . S
O27 Co19 2.135 . S
Co28 O29 2.216 . S
Co28 O30 2.091 . S
Co28 O32 2.004 . S
Co28 O38 2.021 . S
Co28 O40 2.137 . S
Co28 O41 2.244 . S
O29 Co28 2.216 . S
O29 C36 1.247 . S
O30 Co28 2.091 . S
O30 C36 1.261 . S
C31 O40 1.247 . S
C31 O41 1.272 . S
O32 Co28 2.004 . S
O32 C37 1.259 . S
Co33 O34 2.061 . S
Co33 O39 2.052 . S
Co33 O41 2.135 . S
O34 Co33 2.061 . S
O34 C37 1.235 . S
C35 O38 1.238 . S
C35 O39 1.241 . S
C36 O29 1.247 . S
C36 O30 1.261 . S
C37 O32 1.259 . S
C37 O34 1.235 . S
O38 Co28 2.021 . S
O38 C35 1.238 . S
O39 Co33 2.052 . S
O39 C35 1.241 . S
O40 Co28 2.137 . S
O40 C31 1.247 . S
O41 Co28 2.244 . S
O41 C31 1.272 . S
O41 Co33 2.135 . S
Co42 O43 2.216 . S
Co42 O44 2.091 . S
Co42 O46 2.004 . S
Co42 O52 2.021 . S
Co42 O54 2.137 . S
Co42 O55 2.244 . S
O43 Co42 2.216 . S
O43 C50 1.247 . S
O44 Co42 2.091 . S
O44 C50 1.261 . S
C45 O54 1.247 . S
C45 O55 1.272 . S
O46 Co42 2.004 . S
O46 C51 1.259 . S
Co47 O48 2.061 . S
Co47 O53 2.052 . S
Co47 O55 2.135 . S
O48 Co47 2.061 . S
O48 C51 1.235 . S
C49 O52 1.238 . S
C49 O53 1.241 . S
C50 O43 1.247 . S
C50 O44 1.261 . S
C51 O46 1.259 . S
C51 O48 1.235 . S
O52 Co42 2.021 . S
O52 C49 1.238 . S
O53 Co47 2.052 . S
O53 C49 1.241 . S
O54 Co42 2.137 . S
O54 C45 1.247 . S
O55 Co42 2.244 . S
O55 C45 1.272 . S
O55 Co47 2.135 . S
Co56 O57 2.216 . S
Co56 O58 2.091 1_556 S
Co56 O60 2.004 . S
Co56 O66 2.021 1_556 S
Co56 O68 2.137 . S
Co56 O69 2.244 . S
O57 Co56 2.216 . S
O57 C64 1.247 1_556 S
O58 Co56 2.091 1_554 S
O58 C64 1.261 . S
C59 O68 1.247 . S
C59 O69 1.272 . S
O60 Co56 2.004 . S
O60 C65 1.259 . S
Co61 O62 2.061 . S
Co61 O67 2.052 . S
Co61 O69 2.135 . S
O62 Co61 2.061 . S
O62 C65 1.235 . S
C63 O66 1.238 1_556 S
C63 O67 1.241 . S
C64 O57 1.247 1_554 S
C64 O58 1.261 . S
C65 O60 1.259 . S
C65 O62 1.235 . S
O66 Co56 2.021 1_554 S
O66 C63 1.238 1_554 S
O67 Co61 2.052 . S
O67 C63 1.241 . S
O68 Co56 2.137 . S
O68 C59 1.247 . S
O69 Co56 2.244 . S
O69 C59 1.272 . S
O69 Co61 2.135 . S
Co70 O71 2.216 . S
Co70 O72 2.091 . S
Co70 O74 2.004 . S
Co70 O80 2.021 . S
Co70 O82 2.137 . S
Co70 O83 2.244 . S
O71 Co70 2.216 . S
O71 C78 1.247 . S
O72 Co70 2.091 . S
O72 C78 1.261 . S
C73 O82 1.247 . S
C73 O83 1.272 . S
O74 Co70 2.004 . S
O74 C79 1.259 . S
Co75 O76 2.061 . S
Co75 O81 2.052 . S
Co75 O83 2.135 . S
O76 Co75 2.061 . S
O76 C79 1.235 . S
C77 O80 1.238 . S
C77 O81 1.241 . S
C78 O71 1.247 . S
C78 O72 1.261 . S
C79 O74 1.259 . S
C79 O76 1.235 . S
O80 Co70 2.021 . S
O80 C77 1.238 . S
O81 Co75 2.052 . S
O81 C77 1.241 . S
O82 Co70 2.137 . S
O82 C73 1.247 . S
O83 Co70 2.244 . S
O83 C73 1.272 . S
O83 Co75 2.135 . S
Co84 O85 2.216 . S
Co84 O86 2.091 . S
Co84 O88 2.004 . S
Co84 O94 2.021 . S
Co84 O96 2.137 . S
Co84 O97 2.244 . S
O85 Co84 2.216 . S
O85 C92 1.247 . S
O86 Co84 2.091 . S
O86 C92 1.261 . S
C87 O96 1.247 . S
C87 O97 1.272 . S
O88 Co84 2.004 . S
O88 C93 1.259 . S
Co89 O90 2.061 . S
Co89 O95 2.052 . S
Co89 O97 2.135 . S
O90 Co89 2.061 . S
O90 C93 1.235 . S
C91 O94 1.238 . S
C91 O95 1.241 . S
C92 O85 1.247 . S
C92 O86 1.261 . S
C93 O88 1.259 . S
C93 O90 1.235 . S
O94 Co84 2.021 . S
O94 C91 1.238 . S
O95 Co89 2.052 . S
O95 C91 1.241 . S
O96 Co84 2.137 . S
O96 C87 1.247 . S
O97 Co84 2.244 . S
O97 C87 1.272 . S
O97 Co89 2.135 . S
Co98 O99 2.216 . S
Co98 O100 2.091 . S
Co98 O102 2.004 . S
Co98 O108 2.021 . S
Co98 O110 2.137 . S
Co98 O111 2.244 . S
O99 Co98 2.216 . S
O99 C106 1.247 . S
O100 Co98 2.091 . S
O100 C106 1.261 . S
C101 O110 1.247 . S
C101 O111 1.272 . S
O102 Co98 2.004 . S
O102 C107 1.259 . S
Co103 O104 2.061 . S
Co103 O109 2.052 . S
Co103 O111 2.135 . S
O104 Co103 2.061 . S
O104 C107 1.235 . S
C105 O108 1.238 . S
C105 O109 1.241 . S
C106 O99 1.247 . S
C106 O100 1.261 . S
C107 O102 1.259 . S
C107 O104 1.235 . S
O108 Co98 2.021 . S
O108 C105 1.238 . S
O109 Co103 2.052 . S
O109 C105 1.241 . S
O110 Co98 2.137 . S
O110 C101 1.247 . S
O111 Co98 2.244 . S
O111 C101 1.272 . S
O111 Co103 2.135 . S
Co112 O113 2.216 . S
Co112 O114 2.091 1_556 S
Co112 O116 2.004 . S
Co112 O122 2.021 1_556 S
Co112 O124 2.137 . S
Co112 O125 2.244 . S
O113 Co112 2.216 . S
O113 C120 1.247 1_556 S
O114 Co112 2.091 1_554 S
O114 C120 1.261 . S
C115 O124 1.247 . S
C115 O125 1.272 . S
O116 Co112 2.004 . S
O116 C121 1.259 . S
Co117 O118 2.061 . S
Co117 O123 2.052 . S
Co117 O125 2.135 . S
O118 Co117 2.061 . S
O118 C121 1.235 . S
C119 O122 1.238 1_556 S
C119 O123 1.241 . S
C120 O113 1.247 1_554 S
C120 O114 1.261 . S
C121 O116 1.259 . S
C121 O118 1.235 . S
O122 Co112 2.021 1_554 S
O122 C119 1.238 1_554 S
O123 Co117 2.052 . S
O123 C119 1.241 . S
O124 Co112 2.137 . S
O124 C115 1.247 . S
O125 Co112 2.244 . S
O125 C115 1.272 . S
O125 Co117 2.135 . S
Co126 O127 2.216 . S
Co126 O128 2.091 . S
Co126 O130 2.004 . S
Co126 O136 2.021 . S
Co126 O138 2.137 . S
Co126 O139 2.244 . S
O127 Co126 2.216 . S
O127 C134 1.247 . S
O128 Co126 2.091 . S
O128 C134 1.261 . S
C129 O138 1.247 . S
C129 O139 1.272 . S
O130 Co126 2.004 . S
O130 C135 1.259 . S
Co131 O132 2.061 . S
Co131 O137 2.052 . S
Co131 O139 2.135 . S
O132 Co131 2.061 . S
O132 C135 1.235 . S
C133 O136 1.238 . S
C133 O137 1.241 . S
C134 O127 1.247 . S
C134 O128 1.261 . S
C135 O130 1.259 . S
C135 O132 1.235 . S
O136 Co126 2.021 . S
O136 C133 1.238 . S
O137 Co131 2.052 . S
O137 C133 1.241 . S
O138 Co126 2.137 . S
O138 C129 1.247 . S
O139 Co126 2.244 . S
O139 C129 1.272 . S
O139 Co131 2.135 . S
Co140 O141 2.216 . S
Co140 O142 2.091 . S
Co140 O144 2.004 . S
Co140 O150 2.021 . S
Co140 O152 2.137 . S
Co140 O153 2.244 . S
O141 Co140 2.216 . S
O141 C148 1.247 . S
O142 Co140 2.091 . S
O142 C148 1.261 . S
C143 O152 1.247 . S
C143 O153 1.272 . S
O144 Co140 2.004 . S
O144 C149 1.259 . S
Co145 O146 2.061 . S
Co145 O151 2.052 . S
Co145 O153 2.135 . S
O146 Co145 2.061 . S
O146 C149 1.235 . S
C147 O150 1.238 . S
C147 O151 1.241 . S
C148 O141 1.247 . S
C148 O142 1.261 . S
C149 O144 1.259 . S
C149 O146 1.235 . S
O150 Co140 2.021 . S
O150 C147 1.238 . S
O151 Co145 2.052 . S
O151 C147 1.241 . S
O152 Co140 2.137 . S
O152 C143 1.247 . S
O153 Co140 2.244 . S
O153 C143 1.272 . S
O153 Co145 2.135 . S
Co154 O155 2.216 . S
Co154 O156 2.091 . S
Co154 O158 2.004 . S
Co154 O164 2.021 . S
Co154 O166 2.137 . S
Co154 O167 2.244 . S
O155 Co154 2.216 . S
O155 C162 1.247 . S
O156 Co154 2.091 . S
O156 C162 1.261 . S
C157 O166 1.247 . S
C157 O167 1.272 . S
O158 Co154 2.004 . S
O158 C163 1.259 . S
Co159 O160 2.061 . S
Co159 O165 2.052 . S
Co159 O167 2.135 . S
O160 Co159 2.061 . S
O160 C163 1.235 . S
C161 O164 1.238 . S
C161 O165 1.241 . S
C162 O155 1.247 . S
C162 O156 1.261 . S
C163 O158 1.259 . S
C163 O160 1.235 . S
O164 Co154 2.021 . S
O164 C161 1.238 . S
O165 Co159 2.052 . S
O165 C161 1.241 . S
O166 Co154 2.137 . S
O166 C157 1.247 . S
O167 Co154 2.244 . S
O167 C157 1.272 . S
O167 Co159 2.135 . S
Co168 O169 2.216 . S
Co168 O170 2.091 1_554 S
Co168 O172 2.004 . S
Co168 O178 2.021 1_554 S
Co168 O180 2.137 . S
Co168 O181 2.244 . S
O169 Co168 2.216 . S
O169 C176 1.247 1_554 S
O170 Co168 2.091 1_556 S
O170 C176 1.261 . S
C171 O180 1.247 . S
C171 O181 1.272 . S
O172 Co168 2.004 . S
O172 C177 1.259 . S
Co173 O174 2.061 . S
Co173 O179 2.052 . S
Co173 O181 2.135 . S
O174 Co173 2.061 . S
O174 C177 1.235 . S
C175 O178 1.238 1_554 S
C175 O179 1.241 . S
C176 O169 1.247 1_556 S
C176 O170 1.261 . S
C177 O172 1.259 . S
C177 O174 1.235 . S
O178 Co168 2.021 1_556 S
O178 C175 1.238 1_556 S
O179 Co173 2.052 . S
O179 C175 1.241 . S
O180 Co168 2.137 . S
O180 C171 1.247 . S
O181 Co168 2.244 . S
O181 C171 1.272 . S
O181 Co173 2.135 . S
Co182 O183 2.216 . S
Co182 O184 2.091 . S
Co182 O186 2.004 . S
Co182 O192 2.021 . S
Co182 O194 2.137 . S
Co182 O195 2.244 . S
O183 Co182 2.216 . S
O183 C190 1.247 . S
O184 Co182 2.091 . S
O184 C190 1.261 . S
C185 O194 1.247 . S
C185 O195 1.272 . S
O186 Co182 2.004 . S
O186 C191 1.259 . S
Co187 O188 2.061 . S
Co187 O193 2.052 . S
Co187 O195 2.135 . S
O188 Co187 2.061 . S
O188 C191 1.235 . S
C189 O192 1.238 . S
C189 O193 1.241 . S
C190 O183 1.247 . S
C190 O184 1.261 . S
C191 O186 1.259 . S
C191 O188 1.235 . S
O192 Co182 2.021 . S
O192 C189 1.238 . S
O193 Co187 2.052 . S
O193 C189 1.241 . S
O194 Co182 2.137 . S
O194 C185 1.247 . S
O195 Co182 2.244 . S
O195 C185 1.272 . S
O195 Co187 2.135 . S
Co196 O197 2.216 . S
Co196 O198 2.091 . S
Co196 O200 2.004 . S
Co196 O206 2.021 . S
Co196 O208 2.137 . S
Co196 O209 2.244 . S
O197 Co196 2.216 . S
O197 C204 1.247 . S
O198 Co196 2.091 . S
O198 C204 1.261 . S
C199 O208 1.247 . S
C199 O209 1.272 . S
O200 Co196 2.004 . S
O200 C205 1.259 . S
Co201 O202 2.061 . S
Co201 O207 2.052 . S
Co201 O209 2.135 . S
O202 Co201 2.061 . S
O202 C205 1.235 . S
C203 O206 1.238 . S
C203 O207 1.241 . S
C204 O197 1.247 . S
C204 O198 1.261 . S
C205 O200 1.259 . S
C205 O202 1.235 . S
O206 Co196 2.021 . S
O206 C203 1.238 . S
O207 Co201 2.052 . S
O207 C203 1.241 . S
O208 Co196 2.137 . S
O208 C199 1.247 . S
O209 Co196 2.244 . S
O209 C199 1.272 . S
O209 Co201 2.135 . S
Co210 O211 2.216 . S
Co210 O212 2.091 . S
Co210 O214 2.004 . S
Co210 O220 2.021 . S
Co210 O222 2.137 . S
Co210 O223 2.244 . S
O211 Co210 2.216 . S
O211 C218 1.247 . S
O212 Co210 2.091 . S
O212 C218 1.261 . S
C213 O222 1.247 . S
C213 O223 1.272 . S
O214 Co210 2.004 . S
O214 C219 1.259 . S
Co215 O216 2.061 . S
Co215 O221 2.052 . S
Co215 O223 2.135 . S
O216 Co215 2.061 . S
O216 C219 1.235 . S
C217 O220 1.238 . S
C217 O221 1.241 . S
C218 O211 1.247 . S
C218 O212 1.261 . S
C219 O214 1.259 . S
C219 O216 1.235 . S
O220 Co210 2.021 . S
O220 C217 1.238 . S
O221 Co215 2.052 . S
O221 C217 1.241 . S
O222 Co210 2.137 . S
O222 C213 1.247 . S
O223 Co210 2.244 . S
O223 C213 1.272 . S
O223 Co215 2.135 . S
Co224 O225 2.216 . S
Co224 O226 2.091 . S
Co224 O228 2.004 . S
Co224 O234 2.021 . S
Co224 O236 2.137 . S
Co224 O237 2.244 . S
O225 Co224 2.216 . S
O225 C232 1.247 . S
O226 Co224 2.091 . S
O226 C232 1.261 . S
C227 O236 1.247 . S
C227 O237 1.272 . S
O228 Co224 2.004 . S
O228 C233 1.259 . S
Co229 O230 2.061 . S
Co229 O235 2.052 . S
Co229 O237 2.135 . S
O230 Co229 2.061 . S
O230 C233 1.235 . S
C231 O234 1.238 . S
C231 O235 1.241 . S
C232 O225 1.247 . S
C232 O226 1.261 . S
C233 O228 1.259 . S
C233 O230 1.235 . S
O234 Co224 2.021 . S
O234 C231 1.238 . S
O235 Co229 2.052 . S
O235 C231 1.241 . S
O236 Co224 2.137 . S
O236 C227 1.247 . S
O237 Co224 2.244 . S
O237 C227 1.272 . S
O237 Co229 2.135 . S
Co238 O239 2.216 . S
Co238 O240 2.091 . S
Co238 O242 2.004 . S
Co238 O248 2.021 . S
Co238 O250 2.137 . S
Co238 O251 2.244 . S
O239 Co238 2.216 . S
O239 C246 1.247 . S
O240 Co238 2.091 . S
O240 C246 1.261 . S
C241 O250 1.247 . S
C241 O251 1.272 . S
O242 Co238 2.004 . S
O242 C247 1.259 . S
Co243 O244 2.061 . S
Co243 O249 2.052 . S
Co243 O251 2.135 . S
O244 Co243 2.061 . S
O244 C247 1.235 . S
C245 O248 1.238 . S
C245 O249 1.241 . S
C246 O239 1.247 . S
C246 O240 1.261 . S
C247 O242 1.259 . S
C247 O244 1.235 . S
O248 Co238 2.021 . S
O248 C245 1.238 . S
O249 Co243 2.052 . S
O249 C245 1.241 . S
O250 Co238 2.137 . S
O250 C241 1.247 . S
O251 Co238 2.244 . S
O251 C241 1.272 . S
O251 Co243 2.135 . S
Co252 O253 2.216 . S
Co252 O254 2.091 1_554 S
Co252 O256 2.004 . S
Co252 O262 2.021 1_554 S
Co252 O264 2.137 . S
Co252 O265 2.244 . S
O253 Co252 2.216 . S
O253 C260 1.247 1_554 S
O254 Co252 2.091 1_556 S
O254 C260 1.261 . S
C255 O264 1.247 . S
C255 O265 1.272 . S
O256 Co252 2.004 . S
O256 C261 1.259 . S
Co257 O258 2.061 . S
Co257 O263 2.052 . S
Co257 O265 2.135 . S
O258 Co257 2.061 . S
O258 C261 1.235 . S
C259 O262 1.238 1_554 S
C259 O263 1.241 . S
C260 O253 1.247 1_556 S
C260 O254 1.261 . S
C261 O256 1.259 . S
C261 O258 1.235 . S
O262 Co252 2.021 1_556 S
O262 C259 1.238 1_556 S
O263 Co257 2.052 . S
O263 C259 1.241 . S
O264 Co252 2.137 . S
O264 C255 1.247 . S
O265 Co252 2.244 . S
O265 C255 1.272 . S
O265 Co257 2.135 . S
Co266 O267 2.216 . S
Co266 O268 2.091 . S
Co266 O270 2.004 . S
Co266 O276 2.021 . S
Co266 O278 2.137 . S
Co266 O279 2.244 . S
O267 Co266 2.216 . S
O267 C274 1.247 . S
O268 Co266 2.091 . S
O268 C274 1.261 . S
C269 O278 1.247 . S
C269 O279 1.272 . S
O270 Co266 2.004 . S
O270 C275 1.259 . S
Co271 O272 2.061 . S
Co271 O277 2.052 . S
Co271 O279 2.135 . S
O272 Co271 2.061 . S
O272 C275 1.235 . S
C273 O276 1.238 . S
C273 O277 1.241 . S
C274 O267 1.247 . S
C274 O268 1.261 . S
C275 O270 1.259 . S
C275 O272 1.235 . S
O276 Co266 2.021 . S
O276 C273 1.238 . S
O277 Co271 2.052 . S
O277 C273 1.241 . S
O278 Co266 2.137 . S
O278 C269 1.247 . S
O279 Co266 2.244 . S
O279 C269 1.272 . S
O279 Co271 2.135 . S
Co280 O281 2.216 . S
Co280 O282 2.091 . S
Co280 O284 2.004 . S
Co280 O290 2.021 . S
Co280 O292 2.137 . S
Co280 O293 2.244 . S
O281 Co280 2.216 . S
O281 C288 1.247 . S
O282 Co280 2.091 . S
O282 C288 1.261 . S
C283 O292 1.247 . S
C283 O293 1.272 . S
O284 Co280 2.004 . S
O284 C289 1.259 . S
Co285 O286 2.061 . S
Co285 O291 2.052 . S
Co285 O293 2.135 . S
O286 Co285 2.061 . S
O286 C289 1.235 . S
C287 O290 1.238 . S
C287 O291 1.241 . S
C288 O281 1.247 . S
C288 O282 1.261 . S
C289 O284 1.259 . S
C289 O286 1.235 . S
O290 Co280 2.021 . S
O290 C287 1.238 . S
O291 Co285 2.052 . S
O291 C287 1.241 . S
O292 Co280 2.137 . S
O292 C283 1.247 . S
O293 Co280 2.244 . S
O293 C283 1.272 . S
O293 Co285 2.135 . S
Co294 O295 2.216 . S
Co294 O296 2.091 . S
Co294 O298 2.004 . S
Co294 O304 2.021 . S
Co294 O306 2.137 . S
Co294 O307 2.244 . S
O295 Co294 2.216 . S
O295 C302 1.247 . S
O296 Co294 2.091 . S
O296 C302 1.261 . S
C297 O306 1.247 . S
C297 O307 1.272 . S
O298 Co294 2.004 . S
O298 C303 1.259 . S
Co299 O300 2.061 . S
Co299 O305 2.052 . S
Co299 O307 2.135 . S
O300 Co299 2.061 . S
O300 C303 1.235 . S
C301 O304 1.238 . S
C301 O305 1.241 . S
C302 O295 1.247 . S
C302 O296 1.261 . S
C303 O298 1.259 . S
C303 O300 1.235 . S
O304 Co294 2.021 . S
O304 C301 1.238 . S
O305 Co299 2.052 . S
O305 C301 1.241 . S
O306 Co294 2.137 . S
O306 C297 1.247 . S
O307 Co294 2.244 . S
O307 C297 1.272 . S
O307 Co299 2.135 . S
Co308 O309 2.216 . S
Co308 O310 2.091 1_556 S
Co308 O312 2.004 . S
Co308 O318 2.021 1_556 S
Co308 O320 2.137 . S
Co308 O321 2.244 . S
O309 Co308 2.216 . S
O309 C316 1.247 1_556 S
O310 Co308 2.091 1_554 S
O310 C316 1.261 . S
C311 O320 1.247 . S
C311 O321 1.272 . S
O312 Co308 2.004 . S
O312 C317 1.259 . S
Co313 O314 2.061 . S
Co313 O319 2.052 . S
Co313 O321 2.135 . S
O314 Co313 2.061 . S
O314 C317 1.235 . S
C315 O318 1.238 1_556 S
C315 O319 1.241 . S
C316 O309 1.247 1_554 S
C316 O310 1.261 . S
C317 O312 1.259 . S
C317 O314 1.235 . S
O318 Co308 2.021 1_554 S
O318 C315 1.238 1_554 S
O319 Co313 2.052 . S
O319 C315 1.241 . S
O320 Co308 2.137 . S
O320 C311 1.247 . S
O321 Co308 2.244 . S
O321 C311 1.272 . S
O321 Co313 2.135 . S
Co322 O323 2.216 . S
Co322 O324 2.091 . S
Co322 O326 2.004 . S
Co322 O332 2.021 . S
Co322 O334 2.137 . S
Co322 O335 2.244 . S
O323 Co322 2.216 . S
O323 C330 1.247 . S
O324 Co322 2.091 . S
O324 C330 1.261 . S
C325 O334 1.247 . S
C325 O335 1.272 . S
O326 Co322 2.004 . S
O326 C331 1.259 . S
Co327 O328 2.061 . S
Co327 O333 2.052 . S
Co327 O335 2.135 . S
O328 Co327 2.061 . S
O328 C331 1.235 . S
C329 O332 1.238 . S
C329 O333 1.241 . S
C330 O323 1.247 . S
C330 O324 1.261 . S
C331 O326 1.259 . S
C331 O328 1.235 . S
O332 Co322 2.021 . S
O332 C329 1.238 . S
O333 Co327 2.052 . S
O333 C329 1.241 . S
O334 Co322 2.137 . S
O334 C325 1.247 . S
O335 Co322 2.244 . S
O335 C325 1.272 . S
O335 Co327 2.135 . S
Co336 O337 2.216 . S
Co336 O338 2.091 . S
Co336 O340 2.004 . S
Co336 O346 2.021 . S
Co336 O348 2.137 . S
Co336 O349 2.244 . S
O337 Co336 2.216 . S
O337 C344 1.247 . S
O338 Co336 2.091 . S
O338 C344 1.261 . S
C339 O348 1.247 . S
C339 O349 1.272 . S
O340 Co336 2.004 . S
O340 C345 1.259 . S
Co341 O342 2.061 . S
Co341 O347 2.052 . S
Co341 O349 2.135 . S
O342 Co341 2.061 . S
O342 C345 1.235 . S
C343 O346 1.238 . S
C343 O347 1.241 . S
C344 O337 1.247 . S
C344 O338 1.261 . S
C345 O340 1.259 . S
C345 O342 1.235 . S
O346 Co336 2.021 . S
O346 C343 1.238 . S
O347 Co341 2.052 . S
O347 C343 1.241 . S
O348 Co336 2.137 . S
O348 C339 1.247 . S
O349 Co336 2.244 . S
O349 C339 1.272 . S
O349 Co341 2.135 . S
Co350 O351 2.216 . S
Co350 O352 2.091 . S
Co350 O354 2.004 . S
Co350 O360 2.021 . S
Co350 O362 2.137 . S
Co350 O363 2.244 . S
O351 Co350 2.216 . S
O351 C358 1.247 . S
O352 Co350 2.091 . S
O352 C358 1.261 . S
C353 O362 1.247 . S
C353 O363 1.272 . S
O354 Co350 2.004 . S
O354 C359 1.259 . S
Co355 O356 2.061 . S
Co355 O361 2.052 . S
Co355 O363 2.135 . S
O356 Co355 2.061 . S
O356 C359 1.235 . S
C357 O360 1.238 . S
C357 O361 1.241 . S
C358 O351 1.247 . S
C358 O352 1.261 . S
C359 O354 1.259 . S
C359 O356 1.235 . S
O360 Co350 2.021 . S
O360 C357 1.238 . S
O361 Co355 2.052 . S
O361 C357 1.241 . S
O362 Co350 2.137 . S
O362 C353 1.247 . S
O363 Co350 2.244 . S
O363 C353 1.272 . S
O363 Co355 2.135 . S
Co364 O365 2.216 . S
Co364 O366 2.091 1_556 S
Co364 O368 2.004 . S
Co364 O374 2.021 1_556 S
Co364 O376 2.137 . S
Co364 O377 2.244 . S
O365 Co364 2.216 . S
O365 C372 1.247 1_556 S
O366 Co364 2.091 1_554 S
O366 C372 1.261 . S
C367 O376 1.247 . S
C367 O377 1.272 . S
O368 Co364 2.004 . S
O368 C373 1.259 . S
Co369 O370 2.061 . S
Co369 O375 2.052 . S
Co369 O377 2.135 . S
O370 Co369 2.061 . S
O370 C373 1.235 . S
C371 O374 1.238 1_556 S
C371 O375 1.241 . S
C372 O365 1.247 1_554 S
C372 O366 1.261 . S
C373 O368 1.259 . S
C373 O370 1.235 . S
O374 Co364 2.021 1_554 S
O374 C371 1.238 1_554 S
O375 Co369 2.052 . S
O375 C371 1.241 . S
O376 Co364 2.137 . S
O376 C367 1.247 . S
O377 Co364 2.244 . S
O377 C367 1.272 . S
O377 Co369 2.135 . S
Co378 O379 2.216 . S
Co378 O380 2.091 . S
Co378 O382 2.004 . S
Co378 O388 2.021 . S
Co378 O390 2.137 . S
Co378 O391 2.244 . S
O379 Co378 2.216 . S
O379 C386 1.247 . S
O380 Co378 2.091 . S
O380 C386 1.261 . S
C381 O390 1.247 . S
C381 O391 1.272 . S
O382 Co378 2.004 . S
O382 C387 1.259 . S
Co383 O384 2.061 . S
Co383 O389 2.052 . S
Co383 O391 2.135 . S
O384 Co383 2.061 . S
O384 C387 1.235 . S
C385 O388 1.238 . S
C385 O389 1.241 . S
C386 O379 1.247 . S
C386 O380 1.261 . S
C387 O382 1.259 . S
C387 O384 1.235 . S
O388 Co378 2.021 . S
O388 C385 1.238 . S
O389 Co383 2.052 . S
O389 C385 1.241 . S
O390 Co378 2.137 . S
O390 C381 1.247 . S
O391 Co378 2.244 . S
O391 C381 1.272 . S
O391 Co383 2.135 . S
Co392 O393 2.216 . S
Co392 O394 2.091 . S
Co392 O396 2.004 . S
Co392 O402 2.021 . S
Co392 O404 2.137 . S
Co392 O405 2.244 . S
O393 Co392 2.216 . S
O393 C400 1.247 . S
O394 Co392 2.091 . S
O394 C400 1.261 . S
C395 O404 1.247 . S
C395 O405 1.272 . S
O396 Co392 2.004 . S
O396 C401 1.259 . S
Co397 O398 2.061 . S
Co397 O403 2.052 . S
Co397 O405 2.135 . S
O398 Co397 2.061 . S
O398 C401 1.235 . S
C399 O402 1.238 . S
C399 O403 1.241 . S
C400 O393 1.247 . S
C400 O394 1.261 . S
C401 O396 1.259 . S
C401 O398 1.235 . S
O402 Co392 2.021 . S
O402 C399 1.238 . S
O403 Co397 2.052 . S
O403 C399 1.241 . S
O404 Co392 2.137 . S
O404 C395 1.247 . S
O405 Co392 2.244 . S
O405 C395 1.272 . S
O405 Co397 2.135 . S
Co406 O407 2.216 . S
Co406 O408 2.091 . S
Co406 O410 2.004 . S
Co406 O416 2.021 . S
Co406 O418 2.137 . S
Co406 O419 2.244 . S
O407 Co406 2.216 . S
O407 C414 1.247 . S
O408 Co406 2.091 . S
O408 C414 1.261 . S
C409 O418 1.247 . S
C409 O419 1.272 . S
O410 Co406 2.004 . S
O410 C415 1.259 . S
Co411 O412 2.061 . S
Co411 O417 2.052 . S
Co411 O419 2.135 . S
O412 Co411 2.061 . S
O412 C415 1.235 . S
C413 O416 1.238 . S
C413 O417 1.241 . S
C414 O407 1.247 . S
C414 O408 1.261 . S
C415 O410 1.259 . S
C415 O412 1.235 . S
O416 Co406 2.021 . S
O416 C413 1.238 . S
O417 Co411 2.052 . S
O417 C413 1.241 . S
O418 Co406 2.137 . S
O418 C409 1.247 . S
O419 Co406 2.244 . S
O419 C409 1.272 . S
O419 Co411 2.135 . S
Co420 O421 2.216 . S
Co420 O422 2.091 1_554 S
Co420 O424 2.004 . S
Co420 O430 2.021 1_554 S
Co420 O432 2.137 . S
Co420 O433 2.244 . S
O421 Co420 2.216 . S
O421 C428 1.247 1_554 S
O422 Co420 2.091 1_556 S
O422 C428 1.261 . S
C423 O432 1.247 . S
C423 O433 1.272 . S
O424 Co420 2.004 . S
O424 C429 1.259 . S
Co425 O426 2.061 . S
Co425 O431 2.052 . S
Co425 O433 2.135 . S
O426 Co425 2.061 . S
O426 C429 1.235 . S
C427 O430 1.238 1_554 S
C427 O431 1.241 . S
C428 O421 1.247 1_556 S
C428 O422 1.261 . S
C429 O424 1.259 . S
C429 O426 1.235 . S
O430 Co420 2.021 1_556 S
O430 C427 1.238 1_556 S
O431 Co425 2.052 . S
O431 C427 1.241 . S
O432 Co420 2.137 . S
O432 C423 1.247 . S
O433 Co420 2.244 . S
O433 C423 1.272 . S
O433 Co425 2.135 . S
Co434 O435 2.216 . S
Co434 O436 2.091 . S
Co434 O438 2.004 . S
Co434 O444 2.021 . S
Co434 O446 2.137 . S
Co434 O447 2.244 . S
O435 Co434 2.216 . S
O435 C442 1.247 . S
O436 Co434 2.091 . S
O436 C442 1.261 . S
C437 O446 1.247 . S
C437 O447 1.272 . S
O438 Co434 2.004 . S
O438 C443 1.259 . S
Co439 O440 2.061 . S
Co439 O445 2.052 . S
Co439 O447 2.135 . S
O440 Co439 2.061 . S
O440 C443 1.235 . S
C441 O444 1.238 . S
C441 O445 1.241 . S
C442 O435 1.247 . S
C442 O436 1.261 . S
C443 O438 1.259 . S
C443 O440 1.235 . S
O444 Co434 2.021 . S
O444 C441 1.238 . S
O445 Co439 2.052 . S
O445 C441 1.241 . S
O446 Co434 2.137 . S
O446 C437 1.247 . S
O447 Co434 2.244 . S
O447 C437 1.272 . S
O447 Co439 2.135 . S
C325 C3 2.121 . S
C283 C17 2.121 . S
C297 C31 2.121 . S
C311 C45 2.121 . S
C59 C241 2.121 . S
C255 C73 2.121 . S
C87 C269 2.121 . S
C101 C227 2.121 . S
C437 C115 2.121 . S
C129 C395 2.121 . S
C143 C409 2.121 . S
C157 C423 2.121 . S
C171 C353 2.121 . S
C185 C367 2.121 . S
C199 C381 2.121 . S
C213 C339 2.121 . S
C7 C175 1.277 1_455 S
C413 C21 1.277 . S
C35 C203 1.277 . S
C441 C49 1.277 . S
C119 C63 1.277 1_655 S
C77 C357 1.277 . S
C91 C147 1.277 . S
C105 C385 1.277 . S
C301 C133 1.277 . S
C329 C161 1.277 . S
C189 C245 1.277 . S
C273 C217 1.277 . S
C399 C231 1.277 . S
C259 C427 1.277 1_655 S
C343 C287 1.277 . S
C371 C315 1.277 1_455 S
C64 C8 1.625 1_554 S
C78 C22 1.625 . S
C36 C92 1.625 . S
C50 C106 1.625 . S
C176 C120 1.625 1_556 S
C190 C134 1.625 . S
C204 C148 1.625 . S
C162 C218 1.625 . S
C232 C288 1.625 1_545 S
C246 C302 1.625 . S
C260 C316 1.625 1_566 S
C274 C330 1.625 . S
C400 C344 1.625 1_545 S
C414 C358 1.625 . S
C428 C372 1.625 1_566 S
C442 C386 1.625 . S
C429 C9 1.456 . S
C23 C219 1.456 . S
C401 C37 1.456 . S
C51 C191 1.456 1_655 S
C373 C65 1.456 . S
C79 C163 1.456 1_655 S
C93 C345 1.456 . S
C135 C107 1.456 . S
C121 C317 1.456 . S
C289 C149 1.456 . S
C177 C261 1.456 . S
C205 C233 1.456 . S
C443 C247 1.456 1_655 S
C275 C415 1.456 . S
C303 C387 1.456 . S
C359 C331 1.456 1_655 S
