# Generated by pormake.
# Topology sod-h, (3)-cn, num edge types: 1
# Building blocks:
#     Node 0, Type 0, BuildingBlock: OLANEW_clean_sbu_2, # of connection points: 3
#     Node 1, Type 0, BuildingBlock: OLANEW_clean_sbu_2, # of connection points: 3
#     Node 2, Type 0, BuildingBlock: OLANEW_clean_sbu_2, # of connection points: 3
#     Node 3, Type 0, BuildingBlock: OLANEW_clean_sbu_2, # of connection points: 3
#     Node 4, Type 0, BuildingBlock: OLANEW_clean_sbu_2, # of connection points: 3
#     Node 5, Type 0, BuildingBlock: OLANEW_clean_sbu_2, # of connection points: 3
#     Node 6, Type 0, BuildingBlock: OLANEW_clean_sbu_2, # of connection points: 3
#     Node 7, Type 0, BuildingBlock: OLANEW_clean_sbu_2, # of connection points: 3
#     Node 8, Type 0, BuildingBlock: OLANEW_clean_sbu_2, # of connection points: 3
#     Node 9, Type 0, BuildingBlock: OLANEW_clean_sbu_2, # of connection points: 3
#     Node 10, Type 0, BuildingBlock: OLANEW_clean_sbu_2, # of connection points: 3
#     Node 11, Type 0, BuildingBlock: OLANEW_clean_sbu_2, # of connection points: 3
#     Node 12, Type 0, BuildingBlock: OLANEW_clean_sbu_2, # of connection points: 3
#     Node 13, Type 0, BuildingBlock: OLANEW_clean_sbu_2, # of connection points: 3
#     Node 14, Type 0, BuildingBlock: OLANEW_clean_sbu_2, # of connection points: 3
#     Node 15, Type 0, BuildingBlock: OLANEW_clean_sbu_2, # of connection points: 3
#     Node 16, Type 0, BuildingBlock: OLANEW_clean_sbu_2, # of connection points: 3
#     Node 17, Type 0, BuildingBlock: OLANEW_clean_sbu_2, # of connection points: 3
#     Node 18, Type 0, BuildingBlock: OLANEW_clean_sbu_2, # of connection points: 3
#     Node 19, Type 0, BuildingBlock: OLANEW_clean_sbu_2, # of connection points: 3
#     Node 20, Type 0, BuildingBlock: OLANEW_clean_sbu_2, # of connection points: 3
#     Node 21, Type 0, BuildingBlock: OLANEW_clean_sbu_2, # of connection points: 3
#     Node 22, Type 0, BuildingBlock: OLANEW_clean_sbu_2, # of connection points: 3
#     Node 23, Type 0, BuildingBlock: OLANEW_clean_sbu_2, # of connection points: 3
#     Node 24, Type 0, BuildingBlock: OLANEW_clean_sbu_2, # of connection points: 3
#     Node 25, Type 0, BuildingBlock: OLANEW_clean_sbu_2, # of connection points: 3
#     Node 26, Type 0, BuildingBlock: OLANEW_clean_sbu_2, # of connection points: 3
#     Node 27, Type 0, BuildingBlock: OLANEW_clean_sbu_2, # of connection points: 3
#     Node 28, Type 0, BuildingBlock: OLANEW_clean_sbu_2, # of connection points: 3
#     Node 29, Type 0, BuildingBlock: OLANEW_clean_sbu_2, # of connection points: 3
#     Node 30, Type 0, BuildingBlock: OLANEW_clean_sbu_2, # of connection points: 3
#     Node 31, Type 0, BuildingBlock: OLANEW_clean_sbu_2, # of connection points: 3
#     Node 32, Type 0, BuildingBlock: OLANEW_clean_sbu_2, # of connection points: 3
#     Node 33, Type 0, BuildingBlock: OLANEW_clean_sbu_2, # of connection points: 3
#     Node 34, Type 0, BuildingBlock: OLANEW_clean_sbu_2, # of connection points: 3
#     Node 35, Type 0, BuildingBlock: OLANEW_clean_sbu_2, # of connection points: 3
#     Node 36, Type 0, BuildingBlock: OLANEW_clean_sbu_2, # of connection points: 3
#     Node 37, Type 0, BuildingBlock: OLANEW_clean_sbu_2, # of connection points: 3
#     Node 38, Type 0, BuildingBlock: OLANEW_clean_sbu_2, # of connection points: 3
#     Node 39, Type 0, BuildingBlock: OLANEW_clean_sbu_2, # of connection points: 3
#     Node 40, Type 0, BuildingBlock: OLANEW_clean_sbu_2, # of connection points: 3
#     Node 41, Type 0, BuildingBlock: OLANEW_clean_sbu_2, # of connection points: 3
#     Node 42, Type 0, BuildingBlock: OLANEW_clean_sbu_2, # of connection points: 3
#     Node 43, Type 0, BuildingBlock: OLANEW_clean_sbu_2, # of connection points: 3
#     Node 44, Type 0, BuildingBlock: OLANEW_clean_sbu_2, # of connection points: 3
#     Node 45, Type 0, BuildingBlock: OLANEW_clean_sbu_2, # of connection points: 3
#     Node 46, Type 0, BuildingBlock: OLANEW_clean_sbu_2, # of connection points: 3
#     Node 47, Type 0, BuildingBlock: OLANEW_clean_sbu_2, # of connection points: 3
#     Edge 48, Type (0, 0), BuildingBlock: XIVTED_clean_linker_0, # of connection points: 2
#     Edge 49, Type (0, 0), BuildingBlock: XIVTED_clean_linker_0, # of connection points: 2
#     Edge 50, Type (0, 0), BuildingBlock: XIVTED_clean_linker_0, # of connection points: 2
#     Edge 51, Type (0, 0), BuildingBlock: XIVTED_clean_linker_0, # of connection points: 2
#     Edge 52, Type (0, 0), BuildingBlock: XIVTED_clean_linker_0, # of connection points: 2
#     Edge 53, Type (0, 0), BuildingBlock: XIVTED_clean_linker_0, # of connection points: 2
#     Edge 54, Type (0, 0), BuildingBlock: XIVTED_clean_linker_0, # of connection points: 2
#     Edge 55, Type (0, 0), BuildingBlock: XIVTED_clean_linker_0, # of connection points: 2
#     Edge 56, Type (0, 0), BuildingBlock: XIVTED_clean_linker_0, # of connection points: 2
#     Edge 57, Type (0, 0), BuildingBlock: XIVTED_clean_linker_0, # of connection points: 2
#     Edge 58, Type (0, 0), BuildingBlock: XIVTED_clean_linker_0, # of connection points: 2
#     Edge 59, Type (0, 0), BuildingBlock: XIVTED_clean_linker_0, # of connection points: 2
#     Edge 60, Type (0, 0), BuildingBlock: XIVTED_clean_linker_0, # of connection points: 2
#     Edge 61, Type (0, 0), BuildingBlock: XIVTED_clean_linker_0, # of connection points: 2
#     Edge 62, Type (0, 0), BuildingBlock: XIVTED_clean_linker_0, # of connection points: 2
#     Edge 63, Type (0, 0), BuildingBlock: XIVTED_clean_linker_0, # of connection points: 2
#     Edge 64, Type (0, 0), BuildingBlock: XIVTED_clean_linker_0, # of connection points: 2
#     Edge 65, Type (0, 0), BuildingBlock: XIVTED_clean_linker_0, # of connection points: 2
#     Edge 66, Type (0, 0), BuildingBlock: XIVTED_clean_linker_0, # of connection points: 2
#     Edge 67, Type (0, 0), BuildingBlock: XIVTED_clean_linker_0, # of connection points: 2
#     Edge 68, Type (0, 0), BuildingBlock: XIVTED_clean_linker_0, # of connection points: 2
#     Edge 69, Type (0, 0), BuildingBlock: XIVTED_clean_linker_0, # of connection points: 2
#     Edge 70, Type (0, 0), BuildingBlock: XIVTED_clean_linker_0, # of connection points: 2
#     Edge 71, Type (0, 0), BuildingBlock: XIVTED_clean_linker_0, # of connection points: 2
#     Edge 72, Type (0, 0), BuildingBlock: XIVTED_clean_linker_0, # of connection points: 2
#     Edge 73, Type (0, 0), BuildingBlock: XIVTED_clean_linker_0, # of connection points: 2
#     Edge 74, Type (0, 0), BuildingBlock: XIVTED_clean_linker_0, # of connection points: 2
#     Edge 75, Type (0, 0), BuildingBlock: XIVTED_clean_linker_0, # of connection points: 2
#     Edge 76, Type (0, 0), BuildingBlock: XIVTED_clean_linker_0, # of connection points: 2
#     Edge 77, Type (0, 0), BuildingBlock: XIVTED_clean_linker_0, # of connection points: 2
#     Edge 78, Type (0, 0), BuildingBlock: XIVTED_clean_linker_0, # of connection points: 2
#     Edge 79, Type (0, 0), BuildingBlock: XIVTED_clean_linker_0, # of connection points: 2
#     Edge 80, Type (0, 0), BuildingBlock: XIVTED_clean_linker_0, # of connection points: 2
#     Edge 81, Type (0, 0), BuildingBlock: XIVTED_clean_linker_0, # of connection points: 2
#     Edge 82, Type (0, 0), BuildingBlock: XIVTED_clean_linker_0, # of connection points: 2
#     Edge 83, Type (0, 0), BuildingBlock: XIVTED_clean_linker_0, # of connection points: 2
#     Edge 84, Type (0, 0), BuildingBlock: XIVTED_clean_linker_0, # of connection points: 2
#     Edge 85, Type (0, 0), BuildingBlock: XIVTED_clean_linker_0, # of connection points: 2
#     Edge 86, Type (0, 0), BuildingBlock: XIVTED_clean_linker_0, # of connection points: 2
#     Edge 87, Type (0, 0), BuildingBlock: XIVTED_clean_linker_0, # of connection points: 2
#     Edge 88, Type (0, 0), BuildingBlock: XIVTED_clean_linker_0, # of connection points: 2
#     Edge 89, Type (0, 0), BuildingBlock: XIVTED_clean_linker_0, # of connection points: 2
#     Edge 90, Type (0, 0), BuildingBlock: XIVTED_clean_linker_0, # of connection points: 2
#     Edge 91, Type (0, 0), BuildingBlock: XIVTED_clean_linker_0, # of connection points: 2
#     Edge 92, Type (0, 0), BuildingBlock: XIVTED_clean_linker_0, # of connection points: 2
#     Edge 93, Type (0, 0), BuildingBlock: XIVTED_clean_linker_0, # of connection points: 2
#     Edge 94, Type (0, 0), BuildingBlock: XIVTED_clean_linker_0, # of connection points: 2
#     Edge 95, Type (0, 0), BuildingBlock: XIVTED_clean_linker_0, # of connection points: 2
#     Edge 96, Type (0, 0), BuildingBlock: XIVTED_clean_linker_0, # of connection points: 2
#     Edge 97, Type (0, 0), BuildingBlock: XIVTED_clean_linker_0, # of connection points: 2
#     Edge 98, Type (0, 0), BuildingBlock: XIVTED_clean_linker_0, # of connection points: 2
#     Edge 99, Type (0, 0), BuildingBlock: XIVTED_clean_linker_0, # of connection points: 2
#     Edge 100, Type (0, 0), BuildingBlock: XIVTED_clean_linker_0, # of connection points: 2
#     Edge 101, Type (0, 0), BuildingBlock: XIVTED_clean_linker_0, # of connection points: 2
#     Edge 102, Type (0, 0), BuildingBlock: XIVTED_clean_linker_0, # of connection points: 2
#     Edge 103, Type (0, 0), BuildingBlock: XIVTED_clean_linker_0, # of connection points: 2
#     Edge 104, Type (0, 0), BuildingBlock: XIVTED_clean_linker_0, # of connection points: 2
#     Edge 105, Type (0, 0), BuildingBlock: XIVTED_clean_linker_0, # of connection points: 2
#     Edge 106, Type (0, 0), BuildingBlock: XIVTED_clean_linker_0, # of connection points: 2
#     Edge 107, Type (0, 0), BuildingBlock: XIVTED_clean_linker_0, # of connection points: 2
#     Edge 108, Type (0, 0), BuildingBlock: XIVTED_clean_linker_0, # of connection points: 2
#     Edge 109, Type (0, 0), BuildingBlock: XIVTED_clean_linker_0, # of connection points: 2
#     Edge 110, Type (0, 0), BuildingBlock: XIVTED_clean_linker_0, # of connection points: 2
#     Edge 111, Type (0, 0), BuildingBlock: XIVTED_clean_linker_0, # of connection points: 2
#     Edge 112, Type (0, 0), BuildingBlock: XIVTED_clean_linker_0, # of connection points: 2
#     Edge 113, Type (0, 0), BuildingBlock: XIVTED_clean_linker_0, # of connection points: 2
#     Edge 114, Type (0, 0), BuildingBlock: XIVTED_clean_linker_0, # of connection points: 2
#     Edge 115, Type (0, 0), BuildingBlock: XIVTED_clean_linker_0, # of connection points: 2
#     Edge 116, Type (0, 0), BuildingBlock: XIVTED_clean_linker_0, # of connection points: 2
#     Edge 117, Type (0, 0), BuildingBlock: XIVTED_clean_linker_0, # of connection points: 2
#     Edge 118, Type (0, 0), BuildingBlock: XIVTED_clean_linker_0, # of connection points: 2
#     Edge 119, Type (0, 0), BuildingBlock: XIVTED_clean_linker_0, # of connection points: 2
# Relax obj value: 0.008
# Max RMSD: 0.032
# Mean RMSD: 0.032
data_MOF--net-sod-h--node1-OLANEW_clean_sbu_2--edge1-XIVTED_clean_linker_0
_symmetry_space_group_name_H-M    P1
_symmetry_Int_Tables_number       1
_symmetry_cell_setting            triclinic
loop_
_symmetry_equiv_pos_as_xyz
'x, y, z'
_cell_length_a     104.04065
_cell_length_b     104.04897
_cell_length_c     104.04951
_cell_angle_alpha  89.989129
_cell_angle_beta   89.999101
_cell_angle_gamma 90.010978
loop_
_atom_site_label
_atom_site_type_symbol
_atom_site_fract_x
_atom_site_fract_y
_atom_site_fract_z
_atom_type_partial_charge
O0 O 0.116 0.22675 0.69911 0.0
Cd1 Cd 0.11482 0.21183 0.681 0.0
O2 O 0.09675 0.22028 0.70446 0.0
Cd3 Cd 0.07902 0.21837 0.7156 0.0
O4 O 0.0593 0.21642 0.72243 0.0
C5 C 0.05144 0.22558 0.72052 0.0
O6 O 0.05557 0.2361 0.71488 0.0
C7 C 0.10638 0.22751 0.70661 0.0
C8 C 0.12843 0.18912 0.68525 0.0
O9 O 0.13374 0.19877 0.67973 0.0
O10 O 0.11669 0.19025 0.68884 0.0
O11 O 0.77843 0.61357 0.20326 0.0
Cd12 Cd 0.7923 0.61319 0.18431 0.0
O13 O 0.78272 0.59314 0.20552 0.0
Cd14 Cd 0.78309 0.57395 0.21416 0.0
O15 O 0.78311 0.55368 0.21959 0.0
C16 C 0.77522 0.54611 0.21412 0.0
O17 O 0.76717 0.55079 0.2056 0.0
C18 C 0.7769 0.60316 0.20946 0.0
C19 C 0.81576 0.6254 0.18869 0.0
O20 O 0.80623 0.63153 0.18386 0.0
O21 O 0.81419 0.6135 0.19146 0.0
O22 O 0.39069 0.25083 0.70367 0.0
Cd23 Cd 0.38787 0.26077 0.68261 0.0
O24 O 0.4079 0.26269 0.70638 0.0
Cd25 Cd 0.42558 0.26795 0.71642 0.0
O26 O 0.4457 0.27124 0.72144 0.0
C27 C 0.45411 0.2644 0.71581 0.0
O28 O 0.4503 0.25563 0.70755 0.0
C29 C 0.40012 0.25428 0.71062 0.0
C30 C 0.37178 0.28215 0.68397 0.0
O31 O 0.36725 0.27094 0.6816 0.0
O32 O 0.38393 0.28324 0.68568 0.0
O33 O 0.7216 0.88274 0.20561 0.0
Cd34 Cd 0.70881 0.88289 0.1859 0.0
O35 O 0.7181 0.9034 0.20668 0.0
Cd36 Cd 0.71792 0.92315 0.21397 0.0
O37 O 0.71773 0.94386 0.21736 0.0
C38 C 0.72254 0.95116 0.20883 0.0
O39 O 0.72759 0.94596 0.19849 0.0
C40 C 0.72323 0.89335 0.21143 0.0
C41 C 0.68453 0.87215 0.1896 0.0
O42 O 0.69395 0.8653 0.18557 0.0
O43 O 0.68661 0.88408 0.19188 0.0
O44 O 0.12113 0.29017 0.78626 0.0
Cd45 Cd 0.12569 0.30371 0.80493 0.0
O46 O 0.10041 0.2939 0.78648 0.0
Cd47 Cd 0.08038 0.29342 0.77991 0.0
O48 O 0.0598 0.29348 0.77561 0.0
C49 C 0.0524 0.28555 0.78125 0.0
O50 O 0.05737 0.2773 0.78942 0.0
C51 C 0.11005 0.28827 0.78147 0.0
C52 C 0.13581 0.32759 0.79812 0.0
O53 O 0.14284 0.31749 0.79817 0.0
O54 O 0.12395 0.32645 0.80126 0.0
O55 O 0.72093 0.61271 0.2952 0.0
Cd56 Cd 0.70755 0.61241 0.31451 0.0
O57 O 0.71652 0.59228 0.29316 0.0
Cd58 Cd 0.7159 0.57292 0.28493 0.0
O59 O 0.71565 0.55234 0.28081 0.0
C60 C 0.72399 0.54522 0.28618 0.0
O61 O 0.73262 0.55054 0.29371 0.0
C62 C 0.7223 0.60226 0.28904 0.0
C63 C 0.68438 0.62546 0.31112 0.0
O64 O 0.69427 0.63118 0.31575 0.0
O65 O 0.68547 0.61358 0.30807 0.0
O66 O 0.39143 0.21782 0.8051 0.0
Cd67 Cd 0.38944 0.20624 0.82542 0.0
O68 O 0.41041 0.20895 0.80289 0.0
Cd69 Cd 0.42895 0.20687 0.79325 0.0
O70 O 0.44913 0.20724 0.7875 0.0
C71 C 0.45616 0.21626 0.79177 0.0
O72 O 0.45097 0.22505 0.7992 0.0
C73 C 0.40158 0.21616 0.79852 0.0
C74 C 0.37682 0.18288 0.82167 0.0
O75 O 0.3706 0.19298 0.82501 0.0
O76 O 0.38902 0.18382 0.82021 0.0
O77 O 0.7763 0.88488 0.29921 0.0
Cd78 Cd 0.79 0.88524 0.3183 0.0
O79 O 0.78082 0.90525 0.29679 0.0
Cd80 Cd 0.78153 0.92427 0.28779 0.0
O81 O 0.78174 0.94418 0.28116 0.0
C82 C 0.77497 0.95248 0.28703 0.0
O83 O 0.76791 0.9488 0.29683 0.0
C84 C 0.77496 0.89524 0.29288 0.0
C85 C 0.81349 0.87309 0.31393 0.0
O86 O 0.80396 0.86691 0.31871 0.0
O87 O 0.81191 0.885 0.31123 0.0
O88 O 0.69599 0.11058 0.21766 0.0
Cd89 Cd 0.67574 0.11286 0.206 0.0
O90 O 0.69856 0.09226 0.2076 0.0
Cd91 Cd 0.7084 0.07398 0.20442 0.0
O92 O 0.71434 0.05388 0.20374 0.0
C93 C 0.7119 0.04681 0.2134 0.0
O94 O 0.70623 0.05195 0.22344 0.0
C95 C 0.70274 0.10066 0.21543 0.0
C96 C 0.67981 0.12493 0.18241 0.0
O97 O 0.67657 0.13142 0.19237 0.0
O98 O 0.68101 0.11273 0.18359 0.0
O99 O 0.88861 0.20423 0.72244 0.0
Cd100 Cd 0.88818 0.18549 0.70827 0.0
O101 O 0.90951 0.20467 0.72013 0.0
Cd102 Cd 0.92915 0.21115 0.7239 0.0
O103 O 0.94936 0.21654 0.72543 0.0
C104 C 0.95729 0.20892 0.73075 0.0
O105 O 0.95306 0.19801 0.7355 0.0
C106 C 0.89935 0.20947 0.72495 0.0
C107 C 0.87225 0.18915 0.68701 0.0
O108 O 0.86794 0.18403 0.69735 0.0
O109 O 0.88409 0.19257 0.68674 0.0
O110 O 0.79656 0.38394 0.22497 0.0
Cd111 Cd 0.81505 0.38522 0.21051 0.0
O112 O 0.79302 0.40411 0.2204 0.0
Cd113 Cd 0.78383 0.42304 0.21992 0.0
O114 O 0.77877 0.4434 0.21928 0.0
C115 C 0.78445 0.45107 0.2269 0.0
O116 O 0.79288 0.44644 0.23507 0.0
C117 C 0.78987 0.39403 0.22659 0.0
C118 C 0.81162 0.37145 0.18777 0.0
O119 O 0.81695 0.36626 0.19759 0.0
O120 O 0.80783 0.38313 0.18874 0.0
O121 O 0.61101 0.30323 0.72927 0.0
Cd122 Cd 0.61027 0.32307 0.7167 0.0
O123 O 0.59315 0.29769 0.7196 0.0
Cd124 Cd 0.5761 0.28565 0.71733 0.0
O125 O 0.55641 0.27839 0.71676 0.0
C126 C 0.54819 0.28373 0.72404 0.0
O127 O 0.55195 0.29306 0.73167 0.0
C128 C 0.60204 0.29513 0.72757 0.0
C129 C 0.62208 0.3202 0.6928 0.0
O130 O 0.62834 0.32454 0.70249 0.0
O131 O 0.61023 0.31722 0.69442 0.0
O132 O 0.7106 0.38118 0.291 0.0
Cd133 Cd 0.69296 0.38084 0.30656 0.0
O134 O 0.71152 0.40195 0.29401 0.0
Cd135 Cd 0.71861 0.42173 0.29255 0.0
O136 O 0.72294 0.44222 0.29115 0.0
C137 C 0.71635 0.44921 0.28361 0.0
O138 O 0.70726 0.44384 0.27668 0.0
C139 C 0.7157 0.39195 0.28832 0.0
C140 C 0.69877 0.36717 0.32891 0.0
O141 O 0.69327 0.36167 0.31936 0.0
O142 O 0.70162 0.37911 0.32785 0.0
O143 O 0.61687 0.20521 0.77402 0.0
Cd144 Cd 0.61839 0.18549 0.78669 0.0
O145 O 0.59832 0.2084 0.78342 0.0
Cd146 Cd 0.57976 0.21801 0.78556 0.0
O147 O 0.55914 0.22177 0.78648 0.0
C148 C 0.55181 0.21433 0.78013 0.0
O149 O 0.55698 0.20511 0.77324 0.0
C150 C 0.60691 0.21209 0.77556 0.0
C151 C 0.62941 0.18991 0.81072 0.0
O152 O 0.63628 0.18621 0.80119 0.0
O153 O 0.61734 0.19151 0.80889 0.0
O154 O 0.79764 0.10859 0.2512 0.0
Cd155 Cd 0.8187 0.11055 0.26133 0.0
O156 O 0.79393 0.09188 0.26348 0.0
Cd157 Cd 0.78315 0.07477 0.26919 0.0
O158 O 0.77784 0.05484 0.2731 0.0
C159 C 0.78283 0.04625 0.266 0.0
O160 O 0.79051 0.04979 0.25662 0.0
C161 C 0.79018 0.09962 0.25481 0.0
C162 C 0.81762 0.12586 0.28329 0.0
O163 O 0.82019 0.13074 0.27227 0.0
O164 O 0.81558 0.11373 0.28391 0.0
O165 O 0.88745 0.29381 0.781 0.0
Cd166 Cd 0.88303 0.31375 0.7926 0.0
O167 O 0.90841 0.29584 0.78217 0.0
Cd168 Cd 0.92847 0.28976 0.78005 0.0
O169 O 0.94911 0.28578 0.77994 0.0
C170 C 0.95655 0.29241 0.77286 0.0
O171 O 0.95159 0.30138 0.76549 0.0
C172 C 0.89861 0.28953 0.77846 0.0
C173 C 0.87216 0.30859 0.81654 0.0
O174 O 0.86536 0.30835 0.80628 0.0
O175 O 0.88412 0.31138 0.81554 0.0
O176 O 0.22651 0.70146 0.11507 0.0
Cd177 Cd 0.21355 0.6819 0.11627 0.0
O178 O 0.2163 0.70596 0.09722 0.0
Cd179 Cd 0.21373 0.71678 0.0794 0.0
O180 O 0.21286 0.72236 0.05919 0.0
C181 C 0.22148 0.71801 0.05172 0.0
O182 O 0.23064 0.71076 0.05653 0.0
C183 C 0.22467 0.70893 0.1056 0.0
C184 C 0.18994 0.68618 0.12822 0.0
O185 O 0.19969 0.68227 0.13466 0.0
O186 O 0.19136 0.68808 0.11613 0.0
O187 O 0.22145 0.79395 0.38807 0.0
Cd188 Cd 0.20838 0.81341 0.38963 0.0
O189 O 0.2186 0.79144 0.40872 0.0
Cd190 Cd 0.21904 0.78291 0.42797 0.0
O191 O 0.2189 0.77868 0.44854 0.0
C192 C 0.2236 0.78701 0.45615 0.0
O193 O 0.22852 0.79759 0.45133 0.0
C194 C 0.22348 0.78746 0.39822 0.0
C195 C 0.18515 0.81085 0.37651 0.0
O196 O 0.19505 0.81567 0.37099 0.0
O197 O 0.18624 0.80725 0.38824 0.0
O198 O 0.20162 0.72178 0.88863 0.0
Cd199 Cd 0.18143 0.7098 0.88993 0.0
O200 O 0.2036 0.71849 0.90926 0.0
Cd201 Cd 0.21193 0.71847 0.9286 0.0
O202 O 0.21683 0.71898 0.949 0.0
C203 C 0.21023 0.72609 0.95642 0.0
O204 O 0.20088 0.73302 0.95152 0.0
C205 C 0.20797 0.72339 0.89893 0.0
C206 C 0.1811 0.68793 0.87443 0.0
O207 O 0.17702 0.69877 0.87021 0.0
O208 O 0.18542 0.68746 0.88596 0.0
O209 O 0.27635 0.70065 0.38204 0.0
Cd210 Cd 0.28981 0.68143 0.38092 0.0
O211 O 0.28284 0.7026 0.40192 0.0
Cd212 Cd 0.28514 0.7113 0.42092 0.0
O213 O 0.28618 0.71708 0.44105 0.0
C214 C 0.27683 0.71445 0.44845 0.0
O215 O 0.26671 0.70858 0.44369 0.0
C216 C 0.27605 0.70673 0.39262 0.0
C217 C 0.31385 0.68654 0.37023 0.0
O218 O 0.30453 0.68255 0.36324 0.0
O219 O 0.3118 0.68814 0.38227 0.0
O220 O 0.29486 0.77711 0.88596 0.0
Cd221 Cd 0.31372 0.79113 0.88563 0.0
O222 O 0.29378 0.78099 0.90657 0.0
Cd223 Cd 0.28636 0.78108 0.92627 0.0
O224 O 0.28199 0.7807 0.9468 0.0
C225 C 0.28839 0.77326 0.95407 0.0
O226 O 0.29728 0.76588 0.94896 0.0
C227 C 0.28926 0.77536 0.89668 0.0
C228 C 0.30833 0.81495 0.87456 0.0
O229 O 0.31296 0.80574 0.86782 0.0
O230 O 0.30625 0.8129 0.88653 0.0
O231 O 0.27549 0.79705 0.11335 0.0
Cd232 Cd 0.28847 0.81662 0.11374 0.0
O233 O 0.2849 0.79237 0.0951 0.0
Cd234 Cd 0.28681 0.78145 0.07726 0.0
O235 O 0.28725 0.77609 0.05698 0.0
C236 C 0.27891 0.78112 0.04961 0.0
O237 O 0.27029 0.7889 0.05458 0.0
C238 C 0.27691 0.78947 0.10388 0.0
C239 C 0.31191 0.81297 0.12621 0.0
O240 O 0.30208 0.81722 0.13231 0.0
O241 O 0.31064 0.81043 0.11423 0.0
O242 O 0.20216 0.77728 0.61891 0.0
Cd243 Cd 0.18235 0.78904 0.62345 0.0
O244 O 0.20256 0.78304 0.59867 0.0
Cd245 Cd 0.21007 0.78512 0.57911 0.0
O246 O 0.21507 0.78632 0.55875 0.0
C247 C 0.21266 0.77685 0.55141 0.0
O248 O 0.20741 0.76647 0.55634 0.0
C249 C 0.20765 0.77698 0.608 0.0
C250 C 0.18784 0.81358 0.63268 0.0
O251 O 0.18836 0.80374 0.64006 0.0
O252 O 0.18461 0.81188 0.62092 0.0
O253 O 0.29602 0.72472 0.61113 0.0
Cd254 Cd 0.31494 0.71083 0.61034 0.0
O255 O 0.29333 0.72105 0.59063 0.0
Cd256 Cd 0.2845 0.72098 0.57154 0.0
O257 O 0.27981 0.72085 0.5511 0.0
C258 C 0.28748 0.72645 0.54341 0.0
O259 O 0.29768 0.73224 0.5481 0.0
C260 C 0.28955 0.72649 0.60092 0.0
C261 C 0.31096 0.68844 0.62454 0.0
O262 O 0.31628 0.69831 0.62964 0.0
O263 O 0.3076 0.68914 0.6127 0.0
O264 O 0.91602 0.79794 0.27699 0.0
Cd265 Cd 0.9205 0.81654 0.29064 0.0
O266 O 0.91885 0.78419 0.29279 0.0
Cd267 Cd 0.92795 0.79862 0.30502 0.0
O268 O 0.94611 0.80735 0.31096 0.0
C269 C 0.95273 0.80187 0.31964 0.0
O270 O 0.94789 0.7918 0.32554 0.0
C271 C 0.91563 0.78648 0.28122 0.0
C272 C 0.8978 0.82965 0.29623 0.0
O273 O 0.90485 0.83298 0.2867 0.0
O274 O 0.90155 0.8202 0.3032 0.0
O275 O 0.20657 0.43077 0.75709 0.0
Cd276 Cd 0.18703 0.4356 0.76928 0.0
O277 O 0.21816 0.42457 0.77364 0.0
Cd278 Cd 0.2045 0.43368 0.78674 0.0
O279 O 0.19654 0.4507 0.79615 0.0
C280 C 0.20154 0.45469 0.80655 0.0
O281 O 0.21077 0.44791 0.81188 0.0
C282 C 0.21684 0.42588 0.76156 0.0
C283 C 0.17456 0.41282 0.77608 0.0
O284 O 0.17355 0.41749 0.76473 0.0
O285 O 0.18133 0.41897 0.78432 0.0
O286 O 0.58321 0.70574 0.28146 0.0
Cd287 Cd 0.579 0.68743 0.29554 0.0
O288 O 0.57707 0.71981 0.29598 0.0
Cd289 Cd 0.56786 0.70528 0.30803 0.0
O290 O 0.54973 0.69643 0.31388 0.0
C291 C 0.54487 0.68761 0.30696 0.0
O292 O 0.55143 0.6833 0.29708 0.0
C293 C 0.58193 0.71736 0.28504 0.0
C294 C 0.60152 0.67354 0.29975 0.0
O295 O 0.59377 0.67044 0.29069 0.0
O296 O 0.59855 0.68313 0.30689 0.0
O297 O 0.29851 0.08434 0.78061 0.0
Cd298 Cd 0.31521 0.07925 0.79632 0.0
O299 O 0.28292 0.0799 0.79419 0.0
Cd300 Cd 0.29572 0.07005 0.80762 0.0
O301 O 0.30306 0.05172 0.81482 0.0
C302 C 0.31209 0.0461 0.80881 0.0
O303 O 0.31747 0.05197 0.79901 0.0
C304 C 0.28659 0.08412 0.78331 0.0
C305 C 0.32899 0.10126 0.80297 0.0
O306 O 0.33291 0.09381 0.79398 0.0
O307 O 0.31861 0.09824 0.80887 0.0
O308 O 0.91773 0.70085 0.22541 0.0
Cd309 Cd 0.92257 0.68242 0.21169 0.0
O310 O 0.91979 0.71469 0.20956 0.0
Cd311 Cd 0.92916 0.70057 0.19717 0.0
O312 O 0.94733 0.69227 0.19067 0.0
C313 C 0.95373 0.69817 0.18209 0.0
O314 O 0.94868 0.70841 0.17669 0.0
C315 C 0.91685 0.71229 0.22119 0.0
C316 C 0.90003 0.66907 0.20601 0.0
O317 O 0.90712 0.66577 0.21554 0.0
O318 O 0.9037 0.67857 0.19908 0.0
O319 O 0.28714 0.38861 0.69686 0.0
Cd320 Cd 0.30169 0.38305 0.67927 0.0
O321 O 0.29104 0.4085 0.69131 0.0
Cd322 Cd 0.29021 0.42945 0.69287 0.0
O323 O 0.29258 0.45029 0.69367 0.0
C324 C 0.3014 0.45498 0.7007 0.0
O325 O 0.30869 0.44714 0.70741 0.0
C326 C 0.2851 0.40054 0.69844 0.0
C327 C 0.31616 0.36085 0.68312 0.0
O328 O 0.32042 0.37187 0.68661 0.0
O329 O 0.30494 0.36031 0.67804 0.0
O330 O 0.58014 0.80079 0.22593 0.0
Cd331 Cd 0.57576 0.81855 0.21119 0.0
O332 O 0.58029 0.78638 0.21047 0.0
Cd333 Cd 0.57132 0.79969 0.19694 0.0
O334 O 0.55326 0.80773 0.18986 0.0
C335 C 0.54687 0.80146 0.18155 0.0
O336 O 0.55189 0.79093 0.17669 0.0
C337 C 0.582 0.78929 0.22222 0.0
C338 C 0.59867 0.83103 0.20505 0.0
O339 O 0.59158 0.83499 0.21431 0.0
O340 O 0.59482 0.82128 0.19858 0.0
O341 O 0.20712 0.08758 0.71881 0.0
Cd342 Cd 0.18987 0.08376 0.70333 0.0
O343 O 0.22232 0.08238 0.70507 0.0
Cd344 Cd 0.20888 0.07348 0.69159 0.0
O345 O 0.20099 0.05546 0.68419 0.0
C346 C 0.19124 0.05041 0.68956 0.0
O347 O 0.18542 0.05672 0.69882 0.0
C348 C 0.21898 0.08667 0.71602 0.0
C349 C 0.17591 0.10625 0.69912 0.0
O350 O 0.17241 0.09814 0.70771 0.0
O351 O 0.18593 0.10366 0.69245 0.0
O352 O 0.26786 0.91877 0.8034 0.0
Cd353 Cd 0.28039 0.92323 0.82278 0.0
O354 O 0.28512 0.9181 0.79122 0.0
Cd355 Cd 0.29708 0.92705 0.80596 0.0
O356 O 0.30387 0.94517 0.8141 0.0
C357 C 0.31271 0.95122 0.80823 0.0
O358 O 0.31814 0.94581 0.79819 0.0
C359 C 0.27304 0.91666 0.79253 0.0
C360 C 0.28703 0.90029 0.83497 0.0
O361 O 0.27696 0.90655 0.8383 0.0
O362 O 0.29403 0.90496 0.82597 0.0
O363 O 0.08511 0.78101 0.29514 0.0
Cd364 Cd 0.08068 0.79572 0.3129 0.0
O365 O 0.07956 0.79516 0.28045 0.0
Cd366 Cd 0.07015 0.80773 0.29439 0.0
O367 O 0.05212 0.81403 0.30316 0.0
C368 C 0.04711 0.80723 0.31199 0.0
O369 O 0.05345 0.79719 0.31629 0.0
C370 C 0.08419 0.78423 0.28339 0.0
C371 C 0.10291 0.80005 0.32723 0.0
O372 O 0.09498 0.79115 0.33037 0.0
O373 O 0.10026 0.80697 0.3174 0.0
O374 O 0.19861 0.59249 0.78687 0.0
Cd375 Cd 0.18141 0.58814 0.80222 0.0
O376 O 0.21347 0.58543 0.80013 0.0
Cd377 Cd 0.19966 0.57487 0.81191 0.0
O378 O 0.19232 0.55553 0.81561 0.0
C379 C 0.19855 0.54821 0.82315 0.0
O380 O 0.20849 0.55291 0.82937 0.0
C381 C 0.21041 0.59101 0.78969 0.0
C382 C 0.17985 0.60885 0.81917 0.0
O383 O 0.18682 0.59904 0.82179 0.0
O384 O 0.1734 0.60872 0.80868 0.0
O385 O 0.41747 0.72725 0.29952 0.0
Cd386 Cd 0.42206 0.71298 0.31762 0.0
O387 O 0.41668 0.71135 0.28562 0.0
Cd388 Cd 0.42565 0.69809 0.2992 0.0
O389 O 0.44362 0.69127 0.30764 0.0
C390 C 0.45031 0.68317 0.3014 0.0
O391 O 0.44564 0.6784 0.29069 0.0
C392 C 0.41528 0.72322 0.28819 0.0
C393 C 0.3992 0.70603 0.32975 0.0
O394 O 0.40583 0.71561 0.33374 0.0
O395 O 0.40347 0.69963 0.32013 0.0
O396 O 0.27248 0.59361 0.70923 0.0
Cd397 Cd 0.28652 0.58774 0.69131 0.0
O398 O 0.28671 0.58778 0.72372 0.0
Cd399 Cd 0.29842 0.57737 0.7098 0.0
O400 O 0.30241 0.55809 0.70259 0.0
C401 C 0.30847 0.55045 0.70995 0.0
O402 O 0.31292 0.55483 0.72093 0.0
C403 C 0.27595 0.59284 0.72093 0.0
C404 C 0.29228 0.6091 0.67617 0.0
O405 O 0.28278 0.60176 0.67343 0.0
O406 O 0.2991 0.60629 0.68604 0.0
O407 O 0.41426 0.78188 0.2045 0.0
Cd408 Cd 0.41835 0.79559 0.18587 0.0
O409 O 0.41982 0.79697 0.21822 0.0
Cd410 Cd 0.42898 0.80876 0.20345 0.0
O411 O 0.4471 0.8145 0.19449 0.0
C412 C 0.45232 0.80697 0.18641 0.0
O413 O 0.44613 0.79654 0.18291 0.0
C414 C 0.41527 0.78584 0.21603 0.0
C415 C 0.3956 0.80018 0.17247 0.0
O416 O 0.40307 0.79092 0.16928 0.0
O417 O 0.39895 0.80733 0.18192 0.0
O418 O 0.2276 0.91792 0.70133 0.0
Cd419 Cd 0.21826 0.92265 0.68032 0.0
O420 O 0.21018 0.92192 0.71259 0.0
Cd421 Cd 0.20069 0.93103 0.69623 0.0
O422 O 0.1955 0.94921 0.68708 0.0
C423 C 0.18638 0.95572 0.69194 0.0
O424 O 0.17979 0.95075 0.7015 0.0
C425 C 0.22175 0.91803 0.71206 0.0
C426 C 0.2115 0.89969 0.66832 0.0
O427 O 0.2231 0.9038 0.66813 0.0
O428 O 0.20298 0.90654 0.67399 0.0
O429 O 0.08582 0.72307 0.20113 0.0
Cd430 Cd 0.08199 0.70794 0.18358 0.0
O431 O 0.08114 0.70875 0.21595 0.0
Cd432 Cd 0.07196 0.69576 0.20223 0.0
O433 O 0.05376 0.68903 0.19415 0.0
C434 C 0.04852 0.69534 0.18509 0.0
O435 O 0.05473 0.70513 0.18009 0.0
C436 C 0.08522 0.71986 0.21291 0.0
C437 C 0.1049 0.70262 0.17074 0.0
O438 O 0.09736 0.71152 0.1668 0.0
O439 O 0.10154 0.69615 0.18067 0.0
O440 O 0.80096 0.26921 0.9197 0.0
Cd441 Cd 0.82155 0.27936 0.92464 0.0
O442 O 0.78941 0.28689 0.92028 0.0
Cd443 Cd 0.80507 0.29745 0.92944 0.0
O444 O 0.81356 0.30339 0.9477 0.0
C445 C 0.80825 0.3125 0.95387 0.0
O446 O 0.79863 0.31868 0.9485 0.0
C447 C 0.79026 0.27489 0.91811 0.0
C448 C 0.8337 0.28652 0.90187 0.0
O449 O 0.83414 0.27491 0.90594 0.0
O450 O 0.82768 0.29486 0.90864 0.0
O451 O 0.78172 0.22254 0.59541 0.0
Cd452 Cd 0.79764 0.20604 0.59028 0.0
O453 O 0.79442 0.23851 0.58989 0.0
Cd454 Cd 0.8078 0.22589 0.57987 0.0
O455 O 0.81277 0.21909 0.56066 0.0
C456 C 0.80478 0.21182 0.55496 0.0
O457 O 0.79455 0.2079 0.56125 0.0
C458 C 0.78388 0.23455 0.59465 0.0
C459 C 0.814 0.20175 0.61109 0.0
O460 O 0.81689 0.20993 0.60234 0.0
O461 O 0.80342 0.19554 0.60994 0.0
O462 O 0.78246 0.29133 0.08634 0.0
Cd463 Cd 0.7973 0.3091 0.08238 0.0
O464 O 0.79661 0.27661 0.08086 0.0
Cd465 Cd 0.8096 0.29051 0.07198 0.0
O466 O 0.81674 0.29873 0.05401 0.0
C467 C 0.81036 0.30761 0.04856 0.0
O468 O 0.80023 0.31233 0.05444 0.0
C469 C 0.78562 0.27956 0.08532 0.0
C470 C 0.80081 0.32338 0.10479 0.0
O471 O 0.80787 0.3136 0.10233 0.0
O472 O 0.79217 0.3265 0.09658 0.0
O473 O 0.69813 0.28906 0.59098 0.0
Cd474 Cd 0.67917 0.3017 0.58531 0.0
O475 O 0.7115 0.30405 0.58439 0.0
Cd476 Cd 0.69677 0.31398 0.5732 0.0
O477 O 0.68984 0.31648 0.55353 0.0
C478 C 0.68275 0.30781 0.54865 0.0
O479 O 0.67886 0.29829 0.55597 0.0
C480 C 0.70953 0.29336 0.58999 0.0
C481 C 0.66524 0.30688 0.6076 0.0
O482 O 0.66249 0.29717 0.60054 0.0
O483 O 0.67441 0.31427 0.60398 0.0
O484 O 0.72282 0.19893 0.08196 0.0
Cd485 Cd 0.70735 0.18202 0.07678 0.0
O486 O 0.70809 0.21408 0.08179 0.0
Cd487 Cd 0.6941 0.20157 0.07238 0.0
O488 O 0.68659 0.19429 0.05417 0.0
C489 C 0.6787 0.20121 0.04793 0.0
O490 O 0.67452 0.21191 0.05317 0.0
C491 C 0.71963 0.21059 0.08381 0.0
C492 C 0.70039 0.16872 0.09898 0.0
O493 O 0.70951 0.16467 0.09176 0.0
O494 O 0.69447 0.17899 0.09562 0.0
O495 O 0.70039 0.22589 0.91642 0.0
Cd496 Cd 0.68086 0.21341 0.92017 0.0
O497 O 0.71278 0.20922 0.92032 0.0
Cd498 Cd 0.69739 0.1982 0.92944 0.0
O499 O 0.68875 0.19223 0.94765 0.0
C500 C 0.68052 0.19944 0.95308 0.0
O501 O 0.67659 0.20982 0.94706 0.0
C502 C 0.71151 0.22081 0.91666 0.0
C503 C 0.66879 0.20777 0.89693 0.0
O504 O 0.66546 0.21759 0.90356 0.0
O505 O 0.67773 0.20054 0.90135 0.0
O506 O 0.80298 0.2076 0.39089 0.0
Cd507 Cd 0.82069 0.1928 0.38653 0.0
O508 O 0.81011 0.20778 0.41066 0.0
Cd509 Cd 0.80991 0.21228 0.4312 0.0
O510 O 0.81113 0.21343 0.45213 0.0
C511 C 0.8048 0.20547 0.45892 0.0
O512 O 0.79752 0.19692 0.45314 0.0
C513 C 0.80209 0.21176 0.40233 0.0
C514 C 0.81793 0.17883 0.36386 0.0
O515 O 0.81368 0.17444 0.37456 0.0
O516 O 0.82332 0.1899 0.36386 0.0
O517 O 0.73845 0.28865 0.42841 0.0
Cd518 Cd 0.7232 0.3059 0.43318 0.0
O519 O 0.72332 0.27453 0.42406 0.0
Cd520 Cd 0.70869 0.28693 0.43264 0.0
O521 O 0.69959 0.29622 0.44915 0.0
C522 C 0.69133 0.29 0.45567 0.0
O523 O 0.68784 0.27852 0.45173 0.0
C524 C 0.73517 0.27754 0.42448 0.0
C525 C 0.7176 0.3198 0.4109 0.0
O526 O 0.72662 0.32337 0.41851 0.0
O527 O 0.71115 0.30974 0.4139 0.0
H528 H 0.08911 0.27387 0.77371 0.0
H529 H 0.12752 0.23712 0.71866 0.0
H530 H 0.12847 0.28247 0.76387 0.0
H531 H 0.08611 0.23909 0.71923 0.0
H532 H 0.12822 0.25215 0.73667 0.0
H533 H 0.08785 0.25954 0.75514 0.0
C534 C 0.09737 0.27305 0.76748 0.0
C535 C 0.10878 0.27973 0.77016 0.0
C536 C 0.11897 0.24921 0.73291 0.0
C537 C 0.10761 0.26281 0.74926 0.0
C538 C 0.11856 0.24061 0.72263 0.0
C539 C 0.10672 0.23651 0.71764 0.0
C540 C 0.10745 0.25374 0.73828 0.0
C541 C 0.09542 0.24146 0.72312 0.0
C542 C 0.0967 0.2647 0.75698 0.0
C543 C 0.11944 0.2776 0.76214 0.0
N544 N 0.09606 0.24977 0.73319 0.0
N545 N 0.1186 0.26932 0.7521 0.0
H546 H 0.73494 0.58171 0.27799 0.0
H547 H 0.77081 0.62341 0.22491 0.0
H548 H 0.72868 0.62247 0.27363 0.0
H549 H 0.76376 0.58281 0.22028 0.0
H550 H 0.75745 0.62322 0.24425 0.0
H551 H 0.7477 0.58179 0.25832 0.0
C552 C 0.73593 0.59061 0.27275 0.0
C553 C 0.73029 0.60201 0.27725 0.0
C554 C 0.75893 0.61434 0.23904 0.0
C555 C 0.74551 0.60229 0.25506 0.0
C556 C 0.76655 0.61442 0.228 0.0
C557 C 0.76878 0.60301 0.22115 0.0
C558 C 0.75351 0.60274 0.2433 0.0
C559 C 0.7629 0.59169 0.22556 0.0
C560 C 0.7434 0.59068 0.2616 0.0
C561 C 0.73272 0.61342 0.27046 0.0
N562 N 0.75561 0.59182 0.2364 0.0
N563 N 0.74016 0.61328 0.25972 0.0
H564 H 0.39501 0.24064 0.79181 0.0
H565 H 0.39716 0.22919 0.71739 0.0
H566 H 0.41074 0.20551 0.77647 0.0
H567 H 0.40676 0.2664 0.73288 0.0
H568 H 0.39896 0.21998 0.73906 0.0
H569 H 0.39611 0.25024 0.77023 0.0
C570 C 0.39878 0.23501 0.7839 0.0
C571 C 0.40292 0.22235 0.78587 0.0
C572 C 0.40079 0.23014 0.73766 0.0
C573 C 0.40387 0.23306 0.76131 0.0
C574 C 0.39972 0.23538 0.72536 0.0
C575 C 0.40194 0.24852 0.72341 0.0
C576 C 0.40367 0.23819 0.74809 0.0
C577 C 0.40518 0.25618 0.73401 0.0
C578 C 0.39944 0.24048 0.77166 0.0
C579 C 0.40766 0.21538 0.77534 0.0
N580 N 0.40577 0.25094 0.74597 0.0
N581 N 0.40784 0.22077 0.76345 0.0
H582 H 0.72832 0.87336 0.22758 0.0
H583 H 0.76219 0.91555 0.28156 0.0
H584 H 0.73591 0.91383 0.22262 0.0
H585 H 0.76896 0.87484 0.27758 0.0
H586 H 0.74995 0.91525 0.26155 0.0
H587 H 0.74073 0.87378 0.24753 0.0
C588 C 0.73248 0.88238 0.23072 0.0
C589 C 0.73071 0.89368 0.22355 0.0
C590 C 0.75424 0.90642 0.26501 0.0
C591 C 0.74489 0.8942 0.24641 0.0
C592 C 0.76142 0.90662 0.27634 0.0
C593 C 0.76708 0.8953 0.28102 0.0
C594 C 0.75244 0.89477 0.25846 0.0
C595 C 0.7649 0.88382 0.27427 0.0
C596 C 0.73957 0.88259 0.2421 0.0
C597 C 0.73644 0.90503 0.22807 0.0
N598 N 0.75775 0.88384 0.26333 0.0
N599 N 0.74321 0.90502 0.23925 0.0
H600 H 0.78388 0.10281 0.22962 0.0
H601 H 0.70911 0.10611 0.24027 0.0
H602 H 0.76748 0.09376 0.26659 0.0
H603 H 0.72497 0.09203 0.20467 0.0
H604 H 0.73052 0.10448 0.25014 0.0
H605 H 0.76233 0.10173 0.22007 0.0
C606 C 0.77574 0.10051 0.23569 0.0
C607 C 0.77741 0.09824 0.24886 0.0
C608 C 0.72925 0.10162 0.24021 0.0
C609 C 0.75285 0.09731 0.23812 0.0
C610 C 0.7171 0.10259 0.23459 0.0
C611 C 0.71531 0.09905 0.22172 0.0
C612 C 0.7397 0.09747 0.23277 0.0
C613 C 0.72594 0.09462 0.2147 0.0
C614 C 0.7635 0.09986 0.23025 0.0
C615 C 0.76657 0.09536 0.25635 0.0
N616 N 0.73774 0.09411 0.22027 0.0
N617 N 0.75469 0.09514 0.2509 0.0
H618 H 0.91734 0.28232 0.76126 0.0
H619 H 0.88319 0.21529 0.74468 0.0
H620 H 0.88231 0.26914 0.7791 0.0
H621 H 0.9162 0.2298 0.72424 0.0
H622 H 0.88365 0.23432 0.75843 0.0
H623 H 0.91828 0.26233 0.7489 0.0
C624 C 0.91002 0.2751 0.7628 0.0
C625 C 0.89987 0.27728 0.7714 0.0
C626 C 0.89088 0.23329 0.75102 0.0
C627 C 0.90065 0.25457 0.75701 0.0
C628 C 0.89061 0.22244 0.74317 0.0
C629 C 0.89986 0.22081 0.7335 0.0
C630 C 0.90041 0.24268 0.74914 0.0
C631 C 0.9092 0.2304 0.73189 0.0
C632 C 0.91046 0.26376 0.75562 0.0
C633 C 0.89033 0.26782 0.77259 0.0
N634 N 0.90924 0.24094 0.73962 0.0
N635 N 0.89095 0.25689 0.76549 0.0
H636 H 0.77644 0.37304 0.2347 0.0
H637 H 0.72329 0.41231 0.27311 0.0
H638 H 0.77823 0.41421 0.23931 0.0
H639 H 0.73209 0.37267 0.2815 0.0
H640 H 0.74147 0.413 0.25831 0.0
H641 H 0.75824 0.37246 0.24956 0.0
C642 C 0.77295 0.38198 0.23871 0.0
C643 C 0.77869 0.39375 0.23541 0.0
C644 C 0.73949 0.4042 0.26351 0.0
C645 C 0.75782 0.39313 0.2524 0.0
C646 C 0.72922 0.40386 0.27214 0.0
C647 C 0.72645 0.39257 0.27899 0.0
C648 C 0.74686 0.39309 0.26147 0.0
C649 C 0.73396 0.38163 0.27654 0.0
C650 C 0.76257 0.38163 0.2472 0.0
C651 C 0.77379 0.405 0.24102 0.0
N652 N 0.74382 0.38216 0.26798 0.0
N653 N 0.7636 0.40442 0.24918 0.0
H654 H 0.6126 0.21631 0.75035 0.0
H655 H 0.60767 0.29165 0.75292 0.0
H656 H 0.59797 0.23513 0.78424 0.0
H657 H 0.59644 0.27114 0.71871 0.0
H658 H 0.608 0.27119 0.76476 0.0
H659 H 0.61056 0.23665 0.73849 0.0
C660 C 0.60893 0.22473 0.75525 0.0
C661 C 0.60533 0.22408 0.76822 0.0
C662 C 0.60538 0.27123 0.75468 0.0
C663 C 0.60329 0.24727 0.7549 0.0
C664 C 0.60524 0.28283 0.74794 0.0
C665 C 0.6019 0.28302 0.73489 0.0
C666 C 0.60257 0.25975 0.74819 0.0
C667 C 0.59888 0.27137 0.72882 0.0
C668 C 0.60773 0.23626 0.7485 0.0
C669 C 0.60066 0.23523 0.77419 0.0
N670 N 0.59943 0.26015 0.73549 0.0
N671 N 0.59993 0.24644 0.76752 0.0
H672 H 0.28492 0.76568 0.0964 0.0
H673 H 0.2163 0.73267 0.09835 0.0
H674 H 0.25158 0.78634 0.10976 0.0
H675 H 0.25028 0.7121 0.11015 0.0
H676 H 0.22904 0.75253 0.09715 0.0
H677 H 0.27215 0.7458 0.09605 0.0
C678 C 0.27487 0.76604 0.09908 0.0
C679 C 0.26923 0.77761 0.10305 0.0
C680 C 0.23368 0.74363 0.09992 0.0
C681 C 0.25466 0.7551 0.10258 0.0
C682 C 0.22647 0.73232 0.10051 0.0
C683 C 0.23231 0.72078 0.10429 0.0
C684 C 0.24684 0.74327 0.10284 0.0
C685 C 0.24546 0.72085 0.10722 0.0
C686 C 0.26765 0.75473 0.09898 0.0
C687 C 0.25624 0.77757 0.10666 0.0
N688 N 0.25234 0.73192 0.10633 0.0
N689 N 0.24934 0.76648 0.10624 0.0
H690 H 0.26471 0.71691 0.41429 0.0
H691 H 0.22817 0.77286 0.377 0.0
H692 H 0.26861 0.72297 0.37346 0.0
H693 H 0.23682 0.77498 0.4175 0.0
H694 H 0.24084 0.75314 0.37562 0.0
H695 H 0.25228 0.73675 0.41583 0.0
C696 C 0.26327 0.72256 0.4057 0.0
C697 C 0.26816 0.71852 0.3938 0.0
C698 C 0.23987 0.75789 0.38483 0.0
C699 C 0.25333 0.74089 0.3954 0.0
C700 C 0.23263 0.76914 0.38565 0.0
C701 C 0.2311 0.77545 0.39748 0.0
C702 C 0.2456 0.75284 0.39594 0.0
C703 C 0.2372 0.77021 0.40831 0.0
C704 C 0.25598 0.7338 0.40656 0.0
C705 C 0.26515 0.7258 0.38285 0.0
N706 N 0.24413 0.75917 0.4073 0.0
N707 N 0.25793 0.73663 0.38391 0.0
H708 H 0.22338 0.72791 0.87821 0.0
H709 H 0.27925 0.7622 0.91744 0.0
H710 H 0.22011 0.73631 0.91868 0.0
H711 H 0.27298 0.76926 0.87707 0.0
H712 H 0.25938 0.74975 0.91814 0.0
H713 H 0.24339 0.74026 0.87758 0.0
C714 C 0.22692 0.73222 0.88701 0.0
C715 C 0.22021 0.7307 0.89862 0.0
C716 C 0.26231 0.75414 0.90917 0.0
C717 C 0.24312 0.74478 0.89795 0.0
C718 C 0.27357 0.76144 0.9088 0.0
C719 C 0.27755 0.76727 0.89731 0.0
C720 C 0.25516 0.75237 0.89788 0.0
C721 C 0.2702 0.76509 0.88619 0.0
C722 C 0.23833 0.73926 0.88662 0.0
C723 C 0.22521 0.73662 0.90967 0.0
N724 N 0.25937 0.75781 0.88674 0.0
N725 N 0.2364 0.74333 0.90908 0.0
H726 H 0.27723 0.73945 0.58122 0.0
H727 H 0.22486 0.7715 0.62685 0.0
H728 H 0.27508 0.73206 0.62197 0.0
H729 H 0.2182 0.76575 0.58632 0.0
H730 H 0.24494 0.75953 0.62499 0.0
H731 H 0.25718 0.7516 0.5826 0.0
C732 C 0.27243 0.74009 0.59039 0.0
C733 C 0.27765 0.73431 0.60141 0.0
C734 C 0.23913 0.76099 0.61647 0.0
C735 C 0.25503 0.74877 0.60316 0.0
C736 C 0.22767 0.76783 0.61751 0.0
C737 C 0.21995 0.76995 0.60665 0.0
C738 C 0.24299 0.75624 0.60446 0.0
C739 C 0.22407 0.76489 0.59483 0.0
C740 C 0.26106 0.7472 0.5912 0.0
C741 C 0.27137 0.73624 0.6132 0.0
N742 N 0.23534 0.75831 0.59404 0.0
N743 N 0.26041 0.74331 0.61376 0.0
H744 H 0.91062 0.7875 0.25537 0.0
H745 H 0.9122 0.71108 0.2471 0.0
H746 H 0.91374 0.76084 0.28703 0.0
H747 H 0.9139 0.73783 0.21541 0.0
H748 H 0.90917 0.72912 0.26182 0.0
H749 H 0.90821 0.76935 0.24067 0.0
C750 C 0.91064 0.77784 0.25926 0.0
C751 C 0.91254 0.7757 0.27245 0.0
C752 C 0.91009 0.73103 0.25164 0.0
C753 C 0.90985 0.75487 0.25564 0.0
C754 C 0.91179 0.72073 0.24321 0.0
C755 C 0.91346 0.72294 0.23 0.0
C756 C 0.91005 0.74365 0.24684 0.0
C757 C 0.91278 0.73566 0.22553 0.0
C758 C 0.9093 0.76748 0.25085 0.0
C759 C 0.91243 0.76296 0.27693 0.0
N760 N 0.91124 0.74553 0.23394 0.0
N761 N 0.91122 0.75304 0.26853 0.0
H762 H 0.23796 0.41083 0.7666 0.0
H763 H 0.2688 0.42104 0.697 0.0
H764 H 0.21958 0.43239 0.73628 0.0
H765 H 0.27978 0.38967 0.72175 0.0
H766 H 0.25264 0.42754 0.71276 0.0
H767 H 0.25515 0.40493 0.75157 0.0
C768 C 0.23754 0.41433 0.75681 0.0
C769 C 0.22729 0.42208 0.75268 0.0
C770 C 0.25865 0.41929 0.71479 0.0
C771 C 0.24696 0.4155 0.73554 0.0
C772 C 0.26799 0.41569 0.70588 0.0
C773 C 0.27578 0.40494 0.7082 0.0
C774 C 0.25712 0.41214 0.72614 0.0
C775 C 0.27398 0.39804 0.71965 0.0
C776 C 0.24733 0.41094 0.74824 0.0
C777 C 0.22725 0.42634 0.73987 0.0
N778 N 0.26486 0.40179 0.72824 0.0
N779 N 0.23695 0.42304 0.73179 0.0
H780 H 0.58419 0.79162 0.24837 0.0
H781 H 0.58961 0.71578 0.25986 0.0
H782 H 0.58677 0.76376 0.21772 0.0
H783 H 0.58134 0.74324 0.28986 0.0
H784 H 0.59226 0.73353 0.2447 0.0
H785 H 0.58681 0.7743 0.26399 0.0
C786 C 0.58545 0.78188 0.2449 0.0
C787 C 0.58511 0.77913 0.2317 0.0
C788 C 0.58998 0.73567 0.25463 0.0
C789 C 0.58806 0.75924 0.24957 0.0
C790 C 0.5885 0.72554 0.26331 0.0
C791 C 0.5851 0.72801 0.27613 0.0
C792 C 0.58807 0.74837 0.2588 0.0
C793 C 0.58384 0.74086 0.28004 0.0
C794 C 0.58691 0.77199 0.25384 0.0
C795 C 0.58686 0.76633 0.2278 0.0
N796 N 0.58523 0.75055 0.27139 0.0
N797 N 0.58815 0.75685 0.2367 0.0
H798 H 0.29057 0.08971 0.75786 0.0
H799 H 0.21546 0.09245 0.74149 0.0
H800 H 0.26055 0.08663 0.78635 0.0
H801 H 0.24514 0.08733 0.71294 0.0
H802 H 0.23205 0.09454 0.75798 0.0
H803 H 0.27418 0.09305 0.74135 0.0
C804 C 0.28055 0.0899 0.76068 0.0
C805 C 0.27693 0.08773 0.7735 0.0
C806 C 0.23492 0.09308 0.74809 0.0
C807 C 0.25813 0.09152 0.75463 0.0
C808 C 0.22546 0.09192 0.73865 0.0
C809 C 0.2289 0.08955 0.72582 0.0
C810 C 0.24793 0.09191 0.74468 0.0
C811 C 0.24203 0.08901 0.72273 0.0
C812 C 0.2712 0.09176 0.75124 0.0
C813 C 0.26379 0.08812 0.77658 0.0
N814 N 0.25106 0.09008 0.7321 0.0
N815 N 0.25487 0.08987 0.7672 0.0
H816 H 0.24667 0.9099 0.71444 0.0
H817 H 0.24673 0.91558 0.79108 0.0
H818 H 0.21285 0.91854 0.7369 0.0
H819 H 0.28097 0.91101 0.76807 0.0
H820 H 0.23369 0.91327 0.77167 0.0
H821 H 0.25878 0.90685 0.73429 0.0
C822 C 0.24174 0.91103 0.72354 0.0
C823 C 0.22874 0.91464 0.72399 0.0
C824 C 0.24405 0.91265 0.77089 0.0
C825 C 0.24262 0.91122 0.74679 0.0
C826 C 0.25151 0.91393 0.78198 0.0
C827 C 0.26498 0.91364 0.78119 0.0
C828 C 0.2501 0.91104 0.75893 0.0
C829 C 0.27062 0.91143 0.76913 0.0
C830 C 0.24868 0.9093 0.73488 0.0
C831 C 0.22287 0.91586 0.73608 0.0
N832 N 0.26316 0.91032 0.75848 0.0
N833 N 0.22988 0.91428 0.747 0.0
H834 H 0.09025 0.74559 0.21019 0.0
H835 H 0.09062 0.75881 0.28597 0.0
H836 H 0.08694 0.71577 0.23887 0.0
H837 H 0.08519 0.78842 0.2574 0.0
H838 H 0.09352 0.74309 0.26875 0.0
H839 H 0.09264 0.76146 0.22735 0.0
C840 C 0.09018 0.74235 0.22008 0.0
C841 C 0.08824 0.72934 0.22309 0.0
C842 C 0.09181 0.75305 0.26626 0.0
C843 C 0.09095 0.74747 0.24277 0.0
C844 C 0.0902 0.76205 0.27608 0.0
C845 C 0.08751 0.77494 0.27313 0.0
C846 C 0.0908 0.75698 0.25338 0.0
C847 C 0.08711 0.77857 0.26013 0.0
C848 C 0.09151 0.75143 0.22987 0.0
C849 C 0.08828 0.72571 0.23609 0.0
N850 N 0.08865 0.76962 0.25074 0.0
N851 N 0.08952 0.73474 0.24545 0.0
H852 H 0.2365 0.59018 0.79304 0.0
H853 H 0.25124 0.60186 0.71875 0.0
H854 H 0.20745 0.60031 0.76519 0.0
H855 H 0.28008 0.59191 0.74689 0.0
H856 H 0.23561 0.60447 0.73608 0.0
H857 H 0.25301 0.59383 0.77681 0.0
C858 C 0.23359 0.5933 0.78355 0.0
C859 C 0.22054 0.59477 0.78043 0.0
C860 C 0.2454 0.60188 0.73848 0.0
C861 C 0.23943 0.59888 0.76173 0.0
C862 C 0.25435 0.60041 0.72858 0.0
C863 C 0.26696 0.59647 0.73134 0.0
C864 C 0.24907 0.59934 0.75122 0.0
C865 C 0.27043 0.59481 0.74428 0.0
C866 C 0.24303 0.59539 0.77427 0.0
C867 C 0.21738 0.59895 0.768 0.0
N868 N 0.2615 0.5961 0.75371 0.0
N869 N 0.22675 0.60071 0.75906 0.0
H870 H 0.40975 0.71802 0.26294 0.0
H871 H 0.41521 0.79149 0.24174 0.0
H872 H 0.4138 0.74948 0.2897 0.0
H873 H 0.40844 0.76039 0.21512 0.0
H874 H 0.41261 0.77647 0.25957 0.0
H875 H 0.40714 0.73352 0.24551 0.0
C876 C 0.40996 0.72818 0.26518 0.0
C877 C 0.41214 0.73244 0.2778 0.0
C878 C 0.41156 0.77294 0.24984 0.0
C879 C 0.40926 0.75026 0.25784 0.0
C880 C 0.41305 0.78152 0.23964 0.0
C881 C 0.41218 0.77718 0.22689 0.0
C882 C 0.4093 0.75988 0.2473 0.0
C883 C 0.40927 0.76417 0.22477 0.0
C884 C 0.40847 0.73704 0.25521 0.0
C885 C 0.41224 0.74574 0.28012 0.0
N886 N 0.40808 0.75595 0.23487 0.0
N887 N 0.41096 0.75416 0.27022 0.0
H888 H 0.76549 0.2835 0.91495 0.0
H889 H 0.73638 0.21258 0.91426 0.0
H890 H 0.78853 0.24901 0.91379 0.0
H891 H 0.71301 0.24682 0.91251 0.0
H892 H 0.75557 0.22583 0.91199 0.0
H893 H 0.74621 0.27039 0.91196 0.0
C894 C 0.76652 0.27319 0.91392 0.0
C895 C 0.77865 0.26734 0.91477 0.0
C896 C 0.74625 0.23046 0.91197 0.0
C897 C 0.7566 0.25227 0.91144 0.0
C898 C 0.73526 0.22288 0.91327 0.0
C899 C 0.72306 0.2286 0.91372 0.0
C900 C 0.74506 0.24389 0.91122 0.0
C901 C 0.72223 0.242 0.91228 0.0
C902 C 0.7555 0.26571 0.91223 0.0
C903 C 0.77939 0.25394 0.91331 0.0
N904 N 0.73309 0.2492 0.91125 0.0
N905 N 0.76852 0.24687 0.91185 0.0
H906 H 0.70917 0.26912 0.60038 0.0
H907 H 0.78517 0.26084 0.59399 0.0
H908 H 0.7351 0.29962 0.58939 0.0
H909 H 0.7592 0.2296 0.60254 0.0
H910 H 0.76732 0.2759 0.59599 0.0
H911 H 0.72767 0.25534 0.6048 0.0
C912 C 0.71875 0.27298 0.59905 0.0
C913 C 0.72057 0.2855 0.59433 0.0
C914 C 0.76554 0.26577 0.59758 0.0
C915 C 0.74179 0.26974 0.59932 0.0
C916 C 0.77575 0.25715 0.59646 0.0
C917 C 0.77366 0.24389 0.59791 0.0
C918 C 0.75312 0.26112 0.60009 0.0
C919 C 0.76125 0.23971 0.60122 0.0
C920 C 0.72931 0.2651 0.60156 0.0
C921 C 0.73321 0.28999 0.59287 0.0
N922 N 0.75142 0.24828 0.60204 0.0
N923 N 0.74332 0.28208 0.59523 0.0
H924 H 0.76036 0.28226 0.09239 0.0
H925 H 0.74559 0.20703 0.0866 0.0
H926 H 0.78931 0.25348 0.08491 0.0
H927 H 0.7162 0.23625 0.08872 0.0
H928 H 0.76194 0.2236 0.08964 0.0
H929 H 0.74438 0.26521 0.09472 0.0
C930 C 0.7634 0.27236 0.09138 0.0
C931 C 0.77618 0.26932 0.0883 0.0
C932 C 0.7519 0.22637 0.08956 0.0
C933 C 0.7579 0.24975 0.09091 0.0
C934 C 0.74255 0.2169 0.08786 0.0
C935 C 0.72949 0.22026 0.08725 0.0
C936 C 0.74819 0.2393 0.09068 0.0
C937 C 0.72615 0.23322 0.089 0.0
C938 C 0.75425 0.26263 0.09269 0.0
C939 C 0.77955 0.2563 0.08717 0.0
N940 N 0.73544 0.24228 0.09053 0.0
N941 N 0.77045 0.24701 0.08837 0.0
H942 H 0.76107 0.27885 0.42885 0.0
H943 H 0.77788 0.21347 0.39242 0.0
H944 H 0.73197 0.25453 0.41199 0.0
H945 H 0.80345 0.23158 0.41954 0.0
H946 H 0.76141 0.22951 0.39761 0.0
H947 H 0.77728 0.26272 0.42355 0.0
C948 C 0.75809 0.27015 0.42398 0.0
C949 C 0.74512 0.26804 0.42087 0.0
C950 C 0.77059 0.22989 0.40251 0.0
C951 C 0.76367 0.24954 0.41477 0.0
C952 C 0.77998 0.22077 0.39953 0.0
C953 C 0.79194 0.22107 0.40575 0.0
C954 C 0.77329 0.23952 0.41156 0.0
C955 C 0.79423 0.23078 0.41481 0.0
C956 C 0.76735 0.26091 0.42102 0.0
C957 C 0.74184 0.25655 0.4146 0.0
N958 N 0.78501 0.23966 0.4174 0.0
N959 N 0.75106 0.24774 0.41171 0.0
H960 H 0.03187 0.24266 0.71636 0.0
H961 H 0.97701 0.19413 0.74 0.0
H962 H 0.03958 0.20492 0.7318 0.0
H963 H 0.96926 0.23062 0.72181 0.0
H964 H 1.0 0.19878 0.73896 0.0
H965 H 0.00896 0.23928 0.72021 0.0
C966 C 0.02876 0.23369 0.72064 0.0
C967 C 0.03766 0.22402 0.72367 0.0
C968 C 0.99327 0.20579 0.73525 0.0
C969 C 0.01142 0.22007 0.72807 0.0
C970 C 0.98013 0.20315 0.73585 0.0
C971 C 0.97118 0.21196 0.7309 0.0
C972 C 0.99752 0.21733 0.72966 0.0
C973 C 0.9758 0.22351 0.72568 0.0
C974 C 0.01567 0.23176 0.72282 0.0
C975 C 0.03307 0.21262 0.72924 0.0
N976 N 0.98865 0.22584 0.72515 0.0
N977 N 0.02026 0.21093 0.7312 0.0
H978 H 0.76059 0.52717 0.20318 0.0
H979 H 0.79586 0.47015 0.24098 0.0
H980 H 0.79057 0.53321 0.23123 0.0
H981 H 0.76791 0.46399 0.21093 0.0
H982 H 0.79284 0.49331 0.23871 0.0
H983 H 0.76195 0.50406 0.20706 0.0
C984 C 0.76742 0.52365 0.2102 0.0
C985 C 0.77553 0.53215 0.21684 0.0
C986 C 0.78733 0.48689 0.23264 0.0
C987 C 0.77715 0.50567 0.22132 0.0
C988 C 0.78904 0.47365 0.23394 0.0
C989 C 0.78218 0.4651 0.22609 0.0
C990 C 0.77869 0.49164 0.22342 0.0
C991 C 0.77344 0.47022 0.21716 0.0
C992 C 0.7682 0.51044 0.2124 0.0
C993 C 0.78417 0.52702 0.22585 0.0
N994 N 0.77199 0.48315 0.21604 0.0
N995 N 0.78478 0.51411 0.22779 0.0
H996 H 0.53701 0.26493 0.70931 0.0
H997 H 0.46542 0.28181 0.73206 0.0
H998 H 0.5281 0.29394 0.7376 0.0
H999 H 0.47444 0.25209 0.70456 0.0
H1000 H 0.4884 0.28588 0.7348 0.0
H1001 H 0.51418 0.25956 0.70801 0.0
C1002 C 0.53027 0.27014 0.71529 0.0
C1003 C 0.53448 0.27994 0.72354 0.0
C1004 C 0.48535 0.27843 0.7282 0.0
C1005 C 0.50831 0.27386 0.72207 0.0
C1006 C 0.47223 0.2761 0.72663 0.0
C1007 C 0.46798 0.26663 0.71802 0.0
C1008 C 0.49431 0.27126 0.72109 0.0
C1009 C 0.47725 0.25951 0.71127 0.0
C1010 C 0.51723 0.26707 0.71454 0.0
C1011 C 0.5253 0.28634 0.73108 0.0
N1012 N 0.48997 0.26201 0.71291 0.0
N1013 N 0.51265 0.28323 0.73012 0.0
H1014 H 0.71292 0.96515 0.22899 0.0
H1015 H 0.72344 0.03298 0.19416 0.0
H1016 H 0.73086 0.96942 0.19181 0.0
H1017 H 0.70675 0.02885 0.23193 0.0
H1018 H 0.72699 0.00978 0.19348 0.0
H1019 H 0.7113 0.98852 0.2306 0.0
C1020 C 0.71656 0.971 0.22118 0.0
C1021 C 0.72198 0.9653 0.21022 0.0
C1022 C 0.7226 0.01395 0.20194 0.0
C1023 C 0.72012 0.99208 0.21198 0.0
C1024 C 0.72057 0.02721 0.20234 0.0
C1025 C 0.71473 0.03287 0.21309 0.0
C1026 C 0.71872 0.00628 0.21236 0.0
C1027 C 0.71124 0.02491 0.22342 0.0
C1028 C 0.71564 0.98435 0.22211 0.0
C1029 C 0.72657 0.97337 0.20043 0.0
N1030 N 0.71324 0.01202 0.22276 0.0
N1031 N 0.72549 0.98634 0.20152 0.0
H1032 H 0.97007 0.27499 0.78732 0.0
H1033 H 0.03891 0.30138 0.76507 0.0
H1034 H 0.97519 0.30546 0.75962 0.0
H1035 H 0.03381 0.27066 0.7925 0.0
H1036 H 0.01561 0.30243 0.7623 0.0
H1037 H 0.9934 0.27266 0.78869 0.0
C1038 C 0.97609 0.28116 0.78148 0.0
C1039 C 0.97065 0.29048 0.77338 0.0
C1040 C 0.01959 0.29543 0.76889 0.0
C1041 C 0.9974 0.28788 0.77494 0.0
C1042 C 0.0329 0.29482 0.77048 0.0
C1043 C 0.03834 0.28595 0.77907 0.0
C1044 C 0.01162 0.28713 0.77597 0.0
C1045 C 0.03006 0.27768 0.7858 0.0
C1046 C 0.98942 0.27983 0.78228 0.0
C1047 C 0.97895 0.29818 0.76603 0.0
N1048 N 0.01713 0.2785 0.78414 0.0
N1049 N 0.99189 0.29674 0.76702 0.0
H1050 H 0.73442 0.46342 0.29647 0.0
H1051 H 0.70737 0.53099 0.27148 0.0
H1052 H 0.70302 0.46707 0.26959 0.0
H1053 H 0.73962 0.52722 0.29731 0.0
H1054 H 0.70618 0.50758 0.26995 0.0
H1055 H 0.73702 0.48675 0.29621 0.0
C1056 C 0.7281 0.46912 0.29047 0.0
C1057 C 0.71844 0.46327 0.28309 0.0
C1058 C 0.71355 0.51187 0.27591 0.0
C1059 C 0.72135 0.49002 0.28278 0.0
C1060 C 0.71424 0.52525 0.27678 0.0
C1061 C 0.72357 0.53109 0.28459 0.0
C1062 C 0.72223 0.50426 0.28292 0.0
C1063 C 0.73224 0.52315 0.29121 0.0
C1064 C 0.7296 0.48245 0.29033 0.0
C1065 C 0.71057 0.47115 0.27547 0.0
N1066 N 0.73132 0.51016 0.29027 0.0
N1067 N 0.71216 0.48412 0.27556 0.0
H1068 H 0.47006 0.19971 0.77669 0.0
H1069 H 0.53779 0.23217 0.79358 0.0
H1070 H 0.47406 0.23348 0.80046 0.0
H1071 H 0.53357 0.19928 0.76864 0.0
H1072 H 0.51441 0.2333 0.7956 0.0
H1073 H 0.49325 0.19987 0.77301 0.0
C1074 C 0.4758 0.20719 0.7811 0.0
C1075 C 0.47011 0.21656 0.78895 0.0
C1076 C 0.51859 0.22587 0.78964 0.0
C1077 C 0.49669 0.21678 0.7848 0.0
C1078 C 0.53195 0.22522 0.78849 0.0
C1079 C 0.53766 0.21557 0.78098 0.0
C1080 C 0.51088 0.21679 0.78328 0.0
C1081 C 0.5296 0.20685 0.77457 0.0
C1082 C 0.48905 0.20728 0.77899 0.0
C1083 C 0.47804 0.22604 0.79437 0.0
N1084 N 0.51664 0.20763 0.77591 0.0
N1085 N 0.49092 0.22587 0.79224 0.0
H1086 H 0.76788 0.0354 0.28485 0.0
H1087 H 0.7883 0.96334 0.26707 0.0
H1088 H 0.79272 0.0256 0.25309 0.0
H1089 H 0.76262 0.97285 0.29824 0.0
H1090 H 0.78945 0.98608 0.26139 0.0
H1091 H 0.76522 0.01251 0.28949 0.0
C1092 C 0.77273 0.02844 0.27882 0.0
C1093 C 0.78058 0.03244 0.2686 0.0
C1094 C 0.78353 0.9832 0.26945 0.0
C1095 C 0.7776 0.00622 0.27388 0.0
C1096 C 0.78287 0.9702 0.2727 0.0
C1097 C 0.77539 0.96618 0.28318 0.0
C1098 C 0.77669 0.99227 0.27675 0.0
C1099 C 0.76853 0.97551 0.2901 0.0
C1100 C 0.77121 0.01537 0.28147 0.0
C1101 C 0.78661 0.02298 0.26109 0.0
N1102 N 0.76938 0.98812 0.28679 0.0
N1103 N 0.78503 0.01033 0.26391 0.0
H1104 H 0.23769 0.70905 0.03304 0.0
H1105 H 0.19696 0.73909 0.97506 0.0
H1106 H 0.20373 0.73227 0.03842 0.0
H1107 H 0.22889 0.71312 0.96977 0.0
H1108 H 0.20039 0.73817 0.99826 0.0
H1109 H 0.23571 0.71195 0.00984 0.0
C1110 C 0.22985 0.71482 0.02936 0.0
C1111 C 0.22081 0.72036 0.0377 0.0
C1112 C 0.20667 0.73271 0.99203 0.0
C1113 C 0.21848 0.7237 0.01111 0.0
C1114 C 0.20474 0.73323 0.97876 0.0
C1115 C 0.21261 0.72611 0.97044 0.0
C1116 C 0.21657 0.72502 0.99703 0.0
C1117 C 0.22255 0.71873 0.97581 0.0
C1118 C 0.22872 0.71645 0.01609 0.0
C1119 C 0.21088 0.72777 0.03236 0.0
N1120 N 0.22422 0.71834 0.98876 0.0
N1121 N 0.20995 0.72918 0.0194 0.0
H1122 H 0.23197 0.80335 0.47498 0.0
H1123 H 0.20761 0.75884 0.53288 0.0
H1124 H 0.21392 0.76639 0.46948 0.0
H1125 H 0.22347 0.79684 0.53806 0.0
H1126 H 0.21108 0.76082 0.50974 0.0
H1127 H 0.23017 0.80051 0.49819 0.0
C1128 C 0.22767 0.7946 0.47864 0.0
C1129 C 0.22304 0.78511 0.47025 0.0
C1130 C 0.21383 0.76871 0.51594 0.0
C1131 C 0.22093 0.78181 0.49687 0.0
C1132 C 0.21187 0.76759 0.52917 0.0
C1133 C 0.2152 0.77771 0.53744 0.0
C1134 C 0.21918 0.78005 0.51092 0.0
C1135 C 0.22071 0.7888 0.53206 0.0
C1136 C 0.22663 0.793 0.49191 0.0
C1137 C 0.21758 0.77398 0.47558 0.0
N1138 N 0.22249 0.78968 0.51915 0.0
N1139 N 0.21665 0.77265 0.48854 0.0
H1140 H 0.25921 0.70875 0.46717 0.0
H1141 H 0.30273 0.73629 0.52437 0.0
H1142 H 0.29621 0.72668 0.46145 0.0
H1143 H 0.2674 0.71535 0.53041 0.0
H1144 H 0.29961 0.7344 0.5012 0.0
H1145 H 0.26118 0.71263 0.49024 0.0
C1146 C 0.26773 0.71356 0.47075 0.0
C1147 C 0.2776 0.71733 0.46236 0.0
C1148 C 0.29251 0.73025 0.50759 0.0
C1149 C 0.27991 0.72179 0.48878 0.0
C1150 C 0.29428 0.73134 0.52083 0.0
C1151 C 0.28535 0.72591 0.52936 0.0
C1152 C 0.28173 0.72369 0.5028 0.0
C1153 C 0.27457 0.71964 0.5242 0.0
C1154 C 0.26885 0.71576 0.48393 0.0
C1155 C 0.28838 0.72355 0.46755 0.0
N1156 N 0.27308 0.71867 0.51126 0.0
N1157 N 0.28927 0.72555 0.48043 0.0
H1158 H 0.30132 0.75952 0.97243 0.0
H1159 H 0.26313 0.79129 0.0312 0.0
H1160 H 0.27069 0.78713 0.9678 0.0
H1161 H 0.29567 0.76599 0.03597 0.0
H1162 H 0.26469 0.78854 0.00796 0.0
H1163 H 0.29834 0.76047 0.9957 0.0
C1164 C 0.29393 0.76575 0.97629 0.0
C1165 C 0.28629 0.77331 0.96814 0.0
C1166 C 0.27146 0.78355 0.01408 0.0
C1167 C 0.28283 0.77445 0.9948 0.0
C1168 C 0.27057 0.7851 0.02737 0.0
C1169 C 0.27933 0.77892 0.03556 0.0
C1170 C 0.28119 0.77575 0.00891 0.0
C1171 C 0.28874 0.77099 0.03003 0.0
C1172 C 0.29224 0.76629 0.98959 0.0
C1173 C 0.27684 0.78117 0.97371 0.0
N1174 N 0.28945 0.76967 0.01705 0.0
N1175 N 0.27541 0.78156 0.98668 0.0
H1176 H 0.97003 0.79118 0.33635 0.0
H1177 H 0.0301 0.8252 0.30283 0.0
H1178 H 0.96665 0.82049 0.30717 0.0
H1179 H 0.03322 0.79396 0.32997 0.0
H1180 H 0.00703 0.82627 0.30712 0.0
H1181 H 0.9932 0.79479 0.33695 0.0
C1182 C 0.97412 0.7985 0.33018 0.0
C1183 C 0.96639 0.8054 0.32155 0.0
C1184 C 0.01279 0.81929 0.31225 0.0
C1185 C 0.99297 0.80952 0.32212 0.0
C1186 C 0.02598 0.81868 0.30983 0.0
C1187 C 0.03359 0.80934 0.31591 0.0
C1188 C 0.00715 0.81047 0.32079 0.0
C1189 C 0.02771 0.80122 0.32494 0.0
C1190 C 0.98738 0.80054 0.33052 0.0
C1191 C 0.97225 0.81485 0.31388 0.0
N1192 N 0.01483 0.80188 0.327 0.0
N1193 N 0.9852 0.81651 0.31424 0.0
H1194 H 0.18086 0.53469 0.80899 0.0
H1195 H 0.21165 0.46686 0.8276 0.0
H1196 H 0.2106 0.52972 0.83748 0.0
H1197 H 0.18435 0.47216 0.7968 0.0
H1198 H 0.20858 0.48926 0.83385 0.0
H1199 H 0.17923 0.51135 0.80699 0.0
C1200 C 0.18692 0.52871 0.81496 0.0
C1201 C 0.19602 0.5342 0.82329 0.0
C1202 C 0.20315 0.48549 0.82581 0.0
C1203 C 0.19425 0.50744 0.82097 0.0
C1204 C 0.20488 0.47268 0.82224 0.0
C1205 C 0.19838 0.46765 0.81154 0.0
C1206 C 0.19488 0.49338 0.81861 0.0
C1207 C 0.18966 0.47565 0.80504 0.0
C1208 C 0.18601 0.51536 0.81379 0.0
C1209 C 0.20356 0.52593 0.83084 0.0
N1210 N 0.18828 0.48815 0.80859 0.0
N1211 N 0.2026 0.51299 0.8294 0.0
H1212 H 0.53115 0.66982 0.29325 0.0
H1213 H 0.46392 0.69346 0.32153 0.0
H1214 H 0.5275 0.69679 0.32456 0.0
H1215 H 0.46774 0.66762 0.2893 0.0
H1216 H 0.48708 0.69198 0.32514 0.0
H1217 H 0.508 0.6661 0.29406 0.0
C1218 C 0.52552 0.67484 0.30042 0.0
C1219 C 0.53127 0.68378 0.30872 0.0
C1220 C 0.48283 0.68651 0.31737 0.0
C1221 C 0.5047 0.67964 0.30963 0.0
C1222 C 0.46959 0.68733 0.31532 0.0
C1223 C 0.46389 0.68081 0.30497 0.0
C1224 C 0.49044 0.67915 0.309 0.0
C1225 C 0.47172 0.67294 0.2973 0.0
C1226 C 0.51228 0.67272 0.30086 0.0
C1227 C 0.52347 0.68991 0.31788 0.0
N1228 N 0.48461 0.67245 0.29938 0.0
N1229 N 0.51057 0.68785 0.31798 0.0
H1230 H 0.30138 0.96628 0.82669 0.0
H1231 H 0.33019 0.03094 0.79719 0.0
H1232 H 0.32992 0.96737 0.7966 0.0
H1233 H 0.3007 0.03003 0.82636 0.0
H1234 H 0.33274 0.00773 0.79939 0.0
H1235 H 0.30354 0.98952 0.82923 0.0
C1236 C 0.30824 0.97137 0.82074 0.0
C1237 C 0.31534 0.96487 0.81128 0.0
C1238 C 0.32582 0.01262 0.80543 0.0
C1239 C 0.31779 0.99152 0.81408 0.0
C1240 C 0.32436 0.0259 0.80419 0.0
C1241 C 0.31508 0.03244 0.81147 0.0
C1242 C 0.31789 0.0058 0.81396 0.0
C1243 C 0.30789 0.02538 0.82045 0.0
C1244 C 0.30945 0.98466 0.82218 0.0
C1245 C 0.32414 0.97198 0.80391 0.0
N1246 N 0.30933 0.01243 0.82133 0.0
N1247 N 0.325 0.98493 0.80536 0.0
H1248 H 0.96806 0.67914 0.19344 0.0
H1249 H 0.03411 0.70762 0.16682 0.0
H1250 H 0.97058 0.70974 0.16552 0.0
H1251 H 0.03178 0.67793 0.19571 0.0
H1252 H 0.01093 0.70602 0.16364 0.0
H1253 H 0.99129 0.67609 0.1918 0.0
C1254 C 0.97346 0.6851 0.18683 0.0
C1255 C 0.96737 0.69485 0.17975 0.0
C1256 C 0.0155 0.69974 0.17057 0.0
C1257 C 0.994 0.69145 0.1779 0.0
C1258 C 0.02876 0.70064 0.17238 0.0
C1259 C 0.03489 0.69304 0.18169 0.0
C1260 C 0.00828 0.69122 0.17816 0.0
C1261 C 0.02745 0.68408 0.18852 0.0
C1262 C 0.98674 0.68336 0.18592 0.0
C1263 C 0.97487 0.70221 0.17128 0.0
N1264 N 0.01451 0.68353 0.18674 0.0
N1265 N 0.9878 0.70046 0.1707 0.0
H1266 H 0.29685 0.53745 0.69017 0.0
H1267 H 0.31822 0.46817 0.71604 0.0
H1268 H 0.32117 0.5317 0.72329 0.0
H1269 H 0.28932 0.47385 0.68681 0.0
H1270 H 0.32121 0.49141 0.71725 0.0
H1271 H 0.296 0.51417 0.68708 0.0
C1272 C 0.30213 0.53131 0.69671 0.0
C1273 C 0.30902 0.53654 0.70707 0.0
C1274 C 0.31424 0.48758 0.71055 0.0
C1275 C 0.30802 0.50988 0.70363 0.0
C1276 C 0.31252 0.47429 0.70985 0.0
C1277 C 0.30345 0.46904 0.70136 0.0
C1278 C 0.30687 0.49569 0.70267 0.0
C1279 C 0.29637 0.47747 0.69355 0.0
C1280 C 0.30158 0.51801 0.69498 0.0
C1281 C 0.31567 0.5281 0.71523 0.0
N1282 N 0.29822 0.49038 0.69441 0.0
N1283 N 0.31495 0.51519 0.71337 0.0
H1284 H 0.53002 0.78918 0.16548 0.0
H1285 H 0.46905 0.82582 0.19425 0.0
H1286 H 0.53259 0.82105 0.19193 0.0
H1287 H 0.46668 0.7922 0.17004 0.0
H1288 H 0.49221 0.82662 0.19044 0.0
H1289 H 0.50686 0.79261 0.16398 0.0
C1290 C 0.52575 0.79702 0.17085 0.0
C1291 C 0.53325 0.80472 0.179 0.0
C1292 C 0.4866 0.81916 0.18583 0.0
C1293 C 0.50668 0.80863 0.1774 0.0
C1294 C 0.47336 0.81871 0.18798 0.0
C1295 C 0.46592 0.80881 0.18261 0.0
C1296 C 0.49247 0.80963 0.17828 0.0
C1297 C 0.47204 0.79992 0.17451 0.0
C1298 C 0.5125 0.79895 0.17 0.0
C1299 C 0.52718 0.81479 0.18562 0.0
N1300 N 0.48496 0.80046 0.17271 0.0
N1301 N 0.51423 0.81635 0.1848 0.0
H1302 H 0.17162 0.03631 0.7 0.0
H1303 H 0.19991 0.96987 0.67425 0.0
H1304 H 0.20317 0.03352 0.67319 0.0
H1305 H 0.16889 0.9728 0.70165 0.0
H1306 H 0.19895 0.99312 0.67106 0.0
H1307 H 0.16821 0.01318 0.69802 0.0
C1308 C 0.17773 0.03087 0.69356 0.0
C1309 C 0.18782 0.03685 0.6869 0.0
C1310 C 0.19225 0.98866 0.67765 0.0
C1311 C 0.18403 0.01031 0.68467 0.0
C1312 C 0.19277 0.97537 0.67946 0.0
C1313 C 0.1846 0.96939 0.68838 0.0
C1314 C 0.18352 0.99604 0.68484 0.0
C1315 C 0.17549 0.97701 0.69479 0.0
C1316 C 0.17578 0.01764 0.69245 0.0
C1317 C 0.19535 0.02931 0.67861 0.0
N1318 N 0.1753 0.98994 0.69301 0.0
N1319 N 0.19341 0.01641 0.67786 0.0
H1320 H 0.82866 0.29753 0.03245 0.0
H1321 H 0.79763 0.33011 0.97027 0.0
H1322 H 0.798 0.32546 0.03369 0.0
H1323 H 0.82592 0.2998 0.96879 0.0
H1324 H 0.8005 0.33132 0.99352 0.0
H1325 H 0.83059 0.30106 0.00931 0.0
C1326 C 0.82245 0.30454 0.0279 0.0
C1327 C 0.81301 0.31107 0.035 0.0
C1328 C 0.8062 0.32451 0.9881 0.0
C1329 C 0.81513 0.31509 0.00848 0.0
C1330 C 0.80458 0.32382 0.9748 0.0
C1331 C 0.8114 0.3147 0.96757 0.0
C1332 C 0.81467 0.31598 0.99425 0.0
C1333 C 0.82035 0.30689 0.97398 0.0
C1334 C 0.82354 0.30653 0.01467 0.0
C1335 C 0.80531 0.3201 0.02859 0.0
N1336 N 0.82161 0.3076 0.98697 0.0
N1337 N 0.80644 0.32173 0.01568 0.0
H1338 H 0.82032 0.22057 0.47395 0.0
H1339 H 0.78992 0.19602 0.5401 0.0
H1340 H 0.79128 0.19101 0.47626 0.0
H1341 H 0.82231 0.22187 0.53803 0.0
H1342 H 0.79061 0.19366 0.51676 0.0
H1343 H 0.82137 0.22102 0.49741 0.0
C1344 C 0.81417 0.21416 0.47938 0.0
C1345 C 0.80566 0.20577 0.47312 0.0
C1346 C 0.79764 0.19978 0.52141 0.0
C1347 C 0.80682 0.20624 0.5 0.0
C1348 C 0.79726 0.20111 0.53475 0.0
C1349 C 0.80602 0.20922 0.54103 0.0
C1350 C 0.80679 0.20667 0.51426 0.0
C1351 C 0.81534 0.21554 0.5336 0.0
C1352 C 0.8148 0.2144 0.49279 0.0
C1353 C 0.79797 0.19766 0.48067 0.0
N1354 N 0.81541 0.21422 0.5206 0.0
N1355 N 0.79868 0.19814 0.4937 0.0
H1356 H 0.66873 0.29024 0.53496 0.0
H1357 H 0.69819 0.31245 0.46771 0.0
H1358 H 0.6923 0.32406 0.53018 0.0
H1359 H 0.67504 0.27839 0.47277 0.0
H1360 H 0.6935 0.31862 0.48988 0.0
H1361 H 0.66824 0.28758 0.51166 0.0
C1362 C 0.67367 0.29722 0.52901 0.0
C1363 C 0.68072 0.30729 0.53456 0.0
C1364 C 0.68932 0.30987 0.4861 0.0
C1365 C 0.6803 0.30422 0.50783 0.0
C1366 C 0.69198 0.30635 0.47342 0.0
C1367 C 0.68715 0.29479 0.46841 0.0
C1368 C 0.6818 0.30176 0.49385 0.0
C1369 C 0.67909 0.28731 0.47625 0.0
C1370 C 0.6734 0.29568 0.51569 0.0
C1371 C 0.68684 0.31608 0.52634 0.0
N1372 N 0.6768 0.29085 0.48861 0.0
N1373 N 0.68662 0.31425 0.5134 0.0
H1374 H 0.68777 0.18127 0.03322 0.0
H1375 H 0.66388 0.21348 0.96785 0.0
H1376 H 0.66337 0.21478 0.0314 0.0
H1377 H 0.68929 0.18072 0.96947 0.0
H1378 H 0.66076 0.2119 0.99104 0.0
H1379 H 0.68561 0.17876 0.00997 0.0
C1380 C 0.6818 0.188 0.02797 0.0
C1381 C 0.67589 0.19837 0.03426 0.0
C1382 C 0.6669 0.20496 0.98631 0.0
C1383 C 0.67346 0.1956 0.00761 0.0
C1384 C 0.66867 0.20585 0.97305 0.0
C1385 C 0.67701 0.19734 0.96671 0.0
C1386 C 0.67356 0.19555 0.99334 0.0
C1387 C 0.68287 0.18757 0.97396 0.0
C1388 C 0.6806 0.18657 0.01468 0.0
C1389 C 0.66822 0.20673 0.02695 0.0
N1390 N 0.68116 0.18704 0.9869 0.0
N1391 N 0.66735 0.20525 0.01401 0.0
H1392 H 0.15256 0.18293 0.67679 0.0
H1393 H 0.15321 0.11364 0.71024 0.0
H1394 H 0.12059 0.16769 0.6984 0.0
H1395 H 0.18216 0.12641 0.6834 0.0
H1396 H 0.14161 0.13381 0.70693 0.0
H1397 H 0.1641 0.16274 0.68009 0.0
C1398 C 0.14797 0.17535 0.68225 0.0
C1399 C 0.13558 0.17701 0.68732 0.0
C1400 C 0.15049 0.13219 0.70175 0.0
C1401 C 0.14875 0.15386 0.69115 0.0
C1402 C 0.15712 0.12068 0.70364 0.0
C1403 C 0.16867 0.11832 0.69708 0.0
C1404 C 0.15548 0.14146 0.6933 0.0
C1405 C 0.17328 0.1278 0.68864 0.0
C1406 C 0.15455 0.16381 0.6841 0.0
C1407 C 0.13011 0.16683 0.6943 0.0
N1408 N 0.16669 0.13896 0.68703 0.0
N1409 N 0.13674 0.15571 0.69602 0.0
H1410 H 0.89105 0.64685 0.21692 0.0
H1411 H 0.82319 0.64944 0.18099 0.0
H1412 H 0.88124 0.67581 0.18887 0.0
H1413 H 0.8367 0.61609 0.20165 0.0
H1414 H 0.84384 0.65994 0.18495 0.0
H1415 H 0.87062 0.63607 0.21257 0.0
C1416 C 0.88461 0.65093 0.20983 0.0
C1417 C 0.88786 0.66225 0.20325 0.0
C1418 C 0.8423 0.65032 0.18859 0.0
C1419 C 0.86443 0.65 0.19828 0.0
C1420 C 0.8305 0.64433 0.18637 0.0
C1421 C 0.82821 0.63187 0.191 0.0
C1422 C 0.85185 0.64385 0.19559 0.0
C1423 C 0.83804 0.62569 0.19788 0.0
C1424 C 0.87296 0.64476 0.20733 0.0
C1425 C 0.87915 0.66709 0.19415 0.0
N1426 N 0.84941 0.63177 0.20001 0.0
N1427 N 0.86781 0.66098 0.19198 0.0
H1428 H 0.34091 0.35904 0.69191 0.0
H1429 H 0.34587 0.28322 0.67946 0.0
H1430 H 0.30962 0.33603 0.67728 0.0
H1431 H 0.37824 0.30696 0.68996 0.0
H1432 H 0.33205 0.30219 0.68014 0.0
H1433 H 0.3543 0.33976 0.69289 0.0
C1434 C 0.33682 0.34992 0.68897 0.0
C1435 C 0.32413 0.34916 0.68446 0.0
C1436 C 0.34217 0.30325 0.68232 0.0
C1437 C 0.33943 0.32706 0.68552 0.0
C1438 C 0.35007 0.29242 0.68194 0.0
C1439 C 0.36325 0.29351 0.68461 0.0
C1440 C 0.34746 0.31527 0.68543 0.0
C1441 C 0.36815 0.30567 0.68779 0.0
C1442 C 0.34449 0.33892 0.6895 0.0
C1443 C 0.31937 0.33708 0.68079 0.0
N1444 N 0.36026 0.31608 0.6881 0.0
N1445 N 0.32702 0.32652 0.68137 0.0
H1446 H 0.61743 0.8229 0.18849 0.0
H1447 H 0.66355 0.88313 0.20109 0.0
H1448 H 0.6082 0.85348 0.21496 0.0
H1449 H 0.67618 0.84819 0.18262 0.0
H1450 H 0.64241 0.87341 0.20445 0.0
H1451 H 0.6382 0.83309 0.18436 0.0
C1452 C 0.61974 0.83179 0.19339 0.0
C1453 C 0.61107 0.83733 0.20211 0.0
C1454 C 0.64981 0.86788 0.19966 0.0
C1455 C 0.63482 0.84905 0.1974 0.0
C1456 C 0.66187 0.87343 0.19772 0.0
C1457 C 0.67166 0.86645 0.19159 0.0
C1458 C 0.64747 0.8553 0.19535 0.0
C1459 C 0.66893 0.85391 0.18743 0.0
C1460 C 0.63162 0.83757 0.19106 0.0
C1461 C 0.6146 0.84885 0.2082 0.0
N1462 N 0.65709 0.84875 0.18936 0.0
N1463 N 0.6262 0.85433 0.20572 0.0
H1464 H 0.16568 0.40508 0.79958 0.0
H1465 H 0.15545 0.33247 0.78147 0.0
H1466 H 0.16949 0.39259 0.76023 0.0
H1467 H 0.12865 0.35129 0.80689 0.0
H1468 H 0.16453 0.35353 0.77587 0.0
H1469 H 0.15567 0.38432 0.8049 0.0
C1470 C 0.16442 0.39796 0.79208 0.0
C1471 C 0.16836 0.40052 0.77944 0.0
C1472 C 0.15665 0.353 0.78265 0.0
C1473 C 0.15727 0.37684 0.78551 0.0
C1474 C 0.15151 0.34103 0.78589 0.0
C1475 C 0.14128 0.34019 0.79461 0.0
C1476 C 0.15176 0.36412 0.78849 0.0
C1477 C 0.13649 0.35157 0.80005 0.0
C1478 C 0.15868 0.3862 0.79511 0.0
C1479 C 0.1665 0.39101 0.77007 0.0
N1480 N 0.14188 0.36309 0.79702 0.0
N1481 N 0.16123 0.3795 0.77332 0.0
H1482 H 0.66264 0.617 0.29894 0.0
H1483 H 0.62137 0.67959 0.31594 0.0
H1484 H 0.67803 0.64959 0.31949 0.0
H1485 H 0.6093 0.6512 0.28819 0.0
H1486 H 0.6415 0.66783 0.31884 0.0
H1487 H 0.64234 0.62855 0.29632 0.0
C1488 C 0.66175 0.62658 0.30291 0.0
C1489 C 0.67206 0.63234 0.30943 0.0
C1490 C 0.63445 0.66418 0.31211 0.0
C1491 C 0.64883 0.64559 0.30652 0.0
C1492 C 0.62293 0.67086 0.31048 0.0
C1493 C 0.61364 0.66638 0.30179 0.0
C1494 C 0.63666 0.65287 0.30509 0.0
C1495 C 0.6162 0.65503 0.29497 0.0
C1496 C 0.65017 0.63317 0.30139 0.0
C1497 C 0.67036 0.64479 0.31436 0.0
N1498 N 0.62746 0.64865 0.29678 0.0
N1499 N 0.65895 0.65097 0.31284 0.0
H1500 H 0.38658 0.16085 0.81112 0.0
H1501 H 0.32144 0.12076 0.81893 0.0
H1502 H 0.35174 0.17687 0.82695 0.0
H1503 H 0.3528 0.10872 0.79459 0.0
H1504 H 0.33322 0.14048 0.82393 0.0
H1505 H 0.37514 0.14074 0.80695 0.0
C1506 C 0.37654 0.16013 0.81376 0.0
C1507 C 0.3701 0.17057 0.81937 0.0
C1508 C 0.33752 0.13351 0.8175 0.0
C1509 C 0.35696 0.14758 0.81465 0.0
C1510 C 0.33082 0.12224 0.81467 0.0
C1511 C 0.33613 0.11309 0.80631 0.0
C1512 C 0.34967 0.13561 0.81202 0.0
C1513 C 0.34832 0.11553 0.80105 0.0
C1514 C 0.37 0.14866 0.81134 0.0
C1515 C 0.35707 0.16909 0.82257 0.0
N1516 N 0.35469 0.12655 0.80402 0.0
N1517 N 0.35094 0.1578 0.82018 0.0
H1518 H 0.82096 0.84901 0.32151 0.0
H1519 H 0.88868 0.8518 0.28533 0.0
H1520 H 0.8344 0.88247 0.30098 0.0
H1521 H 0.87905 0.82279 0.31339 0.0
H1522 H 0.86824 0.86251 0.28977 0.0
H1523 H 0.8416 0.83854 0.31743 0.0
C1524 C 0.82824 0.85416 0.31614 0.0
C1525 C 0.82595 0.86664 0.31158 0.0
C1526 C 0.87062 0.85383 0.29499 0.0
C1527 C 0.84957 0.85468 0.30684 0.0
C1528 C 0.88228 0.84769 0.29244 0.0
C1529 C 0.88558 0.83638 0.29901 0.0
C1530 C 0.86214 0.84855 0.30407 0.0
C1531 C 0.87691 0.8315 0.30812 0.0
C1532 C 0.84004 0.84818 0.31384 0.0
C1533 C 0.83576 0.87285 0.3047 0.0
N1534 N 0.86557 0.83758 0.31034 0.0
N1535 N 0.84712 0.86679 0.30249 0.0
H1536 H 0.67487 0.14993 0.17584 0.0
H1537 H 0.70866 0.14509 0.10709 0.0
H1538 H 0.69041 0.11459 0.16067 0.0
H1539 H 0.68435 0.17682 0.11821 0.0
H1540 H 0.70326 0.13423 0.12723 0.0
H1541 H 0.67946 0.16046 0.15533 0.0
C1542 C 0.67923 0.14438 0.16819 0.0
C1543 C 0.68227 0.13136 0.16997 0.0
C1544 C 0.69907 0.14355 0.12524 0.0
C1545 C 0.68761 0.14337 0.14651 0.0
C1546 C 0.70217 0.14977 0.11376 0.0
C1547 C 0.69695 0.16189 0.11097 0.0
C1548 C 0.69081 0.14954 0.13406 0.0
C1549 C 0.68857 0.16747 0.11995 0.0
C1550 C 0.68182 0.15039 0.15648 0.0
C1551 C 0.68789 0.12464 0.15971 0.0
N1552 N 0.68582 0.16129 0.13113 0.0
N1553 N 0.69044 0.13074 0.14844 0.0
H1554 H 0.80963 0.18665 0.63221 0.0
H1555 H 0.87794 0.20143 0.66443 0.0
H1556 H 0.83788 0.21198 0.6154 0.0
H1557 H 0.84738 0.18113 0.68381 0.0
H1558 H 0.86387 0.20439 0.64585 0.0
H1559 H 0.82382 0.18347 0.65066 0.0
C1560 C 0.81883 0.19153 0.63238 0.0
C1561 C 0.82257 0.19961 0.62224 0.0
C1562 C 0.86024 0.1993 0.65417 0.0
C1563 C 0.83887 0.19599 0.64334 0.0
C1564 C 0.86827 0.19759 0.66478 0.0
C1565 C 0.86383 0.19103 0.6757 0.0
C1566 C 0.84768 0.19435 0.65444 0.0
C1567 C 0.8512 0.18627 0.67561 0.0
C1568 C 0.82691 0.18973 0.64293 0.0
C1569 C 0.83459 0.20568 0.623 0.0
N1570 N 0.84358 0.188 0.66514 0.0
N1571 N 0.84232 0.20374 0.63336 0.0
H1572 H 0.82078 0.3475 0.18186 0.0
H1573 H 0.7889 0.34577 0.11188 0.0
H1574 H 0.79885 0.37894 0.16599 0.0
H1575 H 0.8164 0.31772 0.12522 0.0
H1576 H 0.79147 0.35752 0.13206 0.0
H1577 H 0.81826 0.33585 0.16162 0.0
C1578 C 0.81541 0.35195 0.17413 0.0
C1579 C 0.81002 0.36422 0.17562 0.0
C1580 C 0.79696 0.34881 0.13056 0.0
C1581 C 0.80709 0.35092 0.15242 0.0
C1582 C 0.79549 0.34209 0.11904 0.0
C1583 C 0.80245 0.33074 0.11685 0.0
C1584 C 0.80539 0.34412 0.14001 0.0
C1585 C 0.81086 0.32643 0.12648 0.0
C1586 C 0.81401 0.34531 0.16256 0.0
C1587 C 0.80319 0.36951 0.16526 0.0
N1588 N 0.81206 0.3331 0.13765 0.0
N1589 N 0.80189 0.36282 0.15411 0.0
H1590 H 0.64577 0.32886 0.6853 0.0
H1591 H 0.64344 0.29505 0.61644 0.0
H1592 H 0.61268 0.30799 0.67146 0.0
H1593 H 0.67132 0.32406 0.62657 0.0
H1594 H 0.63267 0.29857 0.63704 0.0
H1595 H 0.656 0.32604 0.66433 0.0
C1596 C 0.64065 0.32368 0.67785 0.0
C1597 C 0.62835 0.31865 0.68014 0.0
C1598 C 0.64111 0.30421 0.63472 0.0
C1599 C 0.64004 0.31535 0.65614 0.0
C1600 C 0.64727 0.30219 0.62298 0.0
C1601 C 0.6583 0.30927 0.61978 0.0
C1602 C 0.64608 0.31327 0.6434 0.0
C1603 C 0.66283 0.31841 0.62862 0.0
C1604 C 0.64649 0.32212 0.66588 0.0
C1605 C 0.62217 0.31205 0.67012 0.0
N1606 N 0.65675 0.32009 0.64005 0.0
N1607 N 0.6281 0.31054 0.65858 0.0
H1608 H 0.72786 0.34274 0.40303 0.0
H1609 H 0.6916 0.34263 0.33518 0.0
H1610 H 0.70109 0.31322 0.39148 0.0
H1611 H 0.71236 0.37539 0.34991 0.0
H1612 H 0.69611 0.3311 0.35516 0.0
H1613 H 0.72336 0.35429 0.38306 0.0
C1614 C 0.72103 0.33869 0.3963 0.0
C1615 C 0.71483 0.327 0.39894 0.0
C1616 C 0.69967 0.34081 0.35402 0.0
C1617 C 0.7097 0.34014 0.37602 0.0
C1618 C 0.69713 0.34739 0.3426 0.0
C1619 C 0.7016 0.36 0.34087 0.0
C1620 C 0.70682 0.34684 0.36376 0.0
C1621 C 0.7087 0.36569 0.35083 0.0
C1622 C 0.71845 0.3453 0.38491 0.0
C1623 C 0.70607 0.32221 0.38986 0.0
N1624 N 0.71112 0.35906 0.36183 0.0
N1625 N 0.70379 0.32878 0.3788 0.0
H1626 H 0.65357 0.18347 0.8189 0.0
H1627 H 0.64706 0.21861 0.88677 0.0
H1628 H 0.61856 0.20178 0.83154 0.0
H1629 H 0.67653 0.19059 0.87858 0.0
H1630 H 0.63732 0.2141 0.86585 0.0
H1631 H 0.66305 0.18757 0.84003 0.0
C1632 C 0.64788 0.18836 0.82611 0.0
C1633 C 0.63525 0.19228 0.82346 0.0
C1634 C 0.64589 0.20891 0.86866 0.0
C1635 C 0.64606 0.19706 0.84761 0.0
C1636 C 0.65148 0.2115 0.88058 0.0
C1637 C 0.66263 0.20496 0.88443 0.0
C1638 C 0.65158 0.19984 0.86045 0.0
C1639 C 0.66792 0.19583 0.87602 0.0
C1640 C 0.65328 0.19065 0.83818 0.0
C1641 C 0.62831 0.19855 0.83319 0.0
N1642 N 0.66239 0.19359 0.86439 0.0
N1643 N 0.63383 0.20081 0.84481 0.0
H1644 H 0.82297 0.15154 0.28539 0.0
H1645 H 0.80865 0.15435 0.36099 0.0
H1646 H 0.81107 0.11868 0.30776 0.0
H1647 H 0.82506 0.18584 0.33951 0.0
H1648 H 0.80799 0.14159 0.34128 0.0
H1649 H 0.82238 0.16468 0.30485 0.0
C1650 C 0.82021 0.14709 0.29439 0.0
C1651 C 0.81711 0.13397 0.29495 0.0
C1652 C 0.81171 0.1513 0.34088 0.0
C1653 C 0.81639 0.14898 0.31727 0.0
C1654 C 0.81207 0.15861 0.35212 0.0
C1655 C 0.81696 0.17118 0.35191 0.0
C1656 C 0.81624 0.1566 0.32932 0.0
C1657 C 0.82124 0.17618 0.34013 0.0
C1658 C 0.81989 0.1546 0.3055 0.0
C1659 C 0.81358 0.12874 0.30688 0.0
N1660 N 0.8208 0.16888 0.32932 0.0
N1661 N 0.81333 0.13625 0.31756 0.0
H1662 H 0.84342 0.30989 0.8947 0.0
H1663 H 0.85174 0.29292 0.82135 0.0
H1664 H 0.83745 0.27123 0.88096 0.0
H1665 H 0.87948 0.31727 0.84025 0.0
H1666 H 0.84253 0.28753 0.84238 0.0
H1667 H 0.8531 0.31549 0.87386 0.0
C1668 C 0.84413 0.30261 0.88729 0.0
C1669 C 0.83969 0.29008 0.88952 0.0
C1670 C 0.85062 0.29406 0.84188 0.0
C1671 C 0.8504 0.29647 0.86577 0.0
C1672 C 0.85583 0.29718 0.82993 0.0
C1673 C 0.8664 0.30551 0.82912 0.0
C1674 C 0.85579 0.29959 0.85303 0.0
C1675 C 0.87138 0.31074 0.84051 0.0
C1676 C 0.84968 0.3058 0.87548 0.0
C1677 C 0.84085 0.28098 0.87964 0.0
N1678 N 0.86595 0.30779 0.85203 0.0
N1679 N 0.84596 0.28439 0.86812 0.0
H1680 H 0.11342 0.71242 0.14784 0.0
H1681 H 0.18289 0.67998 0.1528 0.0
H1682 H 0.12451 0.68696 0.17867 0.0
H1683 H 0.16843 0.69747 0.11807 0.0
H1684 H 0.16209 0.68376 0.16307 0.0
H1685 H 0.13406 0.70831 0.13736 0.0
C1686 C 0.12019 0.70595 0.1524 0.0
C1687 C 0.11723 0.70002 0.16415 0.0
C1688 C 0.16346 0.68675 0.15319 0.0
C1689 C 0.1409 0.69534 0.15224 0.0
C1690 C 0.17535 0.68463 0.14734 0.0
C1691 C 0.1774 0.68841 0.13455 0.0
C1692 C 0.15359 0.69281 0.14626 0.0
C1693 C 0.16726 0.69437 0.12793 0.0
C1694 C 0.13196 0.70359 0.1464 0.0
C1695 C 0.12637 0.69172 0.1696 0.0
N1696 N 0.15581 0.69643 0.13388 0.0
N1697 N 0.13781 0.68967 0.16364 0.0
H1698 H 0.12291 0.81615 0.32147 0.0
H1699 H 0.16326 0.79866 0.3846 0.0
H1700 H 0.11019 0.78866 0.34983 0.0
H1701 H 0.17897 0.81983 0.35255 0.0
H1702 H 0.14306 0.79631 0.37282 0.0
H1703 H 0.14283 0.81907 0.33359 0.0
C1704 C 0.12429 0.81076 0.33027 0.0
C1705 C 0.11488 0.80213 0.33463 0.0
C1706 C 0.15093 0.80146 0.36837 0.0
C1707 C 0.13765 0.80543 0.34856 0.0
C1708 C 0.16246 0.80284 0.37509 0.0
C1709 C 0.17283 0.80944 0.36954 0.0
C1710 C 0.14972 0.80681 0.35603 0.0
C1711 C 0.17124 0.81464 0.35719 0.0
C1712 C 0.13568 0.8124 0.33716 0.0
C1713 C 0.11719 0.79538 0.34609 0.0
N1714 N 0.1599 0.81323 0.35086 0.0
N1715 N 0.12834 0.79719 0.35266 0.0
H1716 H 0.19149 0.61167 0.84263 0.0
H1717 H 0.17088 0.68541 0.85031 0.0
H1718 H 0.1677 0.63186 0.81527 0.0
H1719 H 0.19039 0.66392 0.87996 0.0
H1720 H 0.17019 0.66604 0.83707 0.0
H1721 H 0.19164 0.63082 0.85624 0.0
C1722 C 0.18625 0.62011 0.8395 0.0
C1723 C 0.17957 0.62016 0.82778 0.0
C1724 C 0.17461 0.66555 0.84648 0.0
C1725 C 0.17978 0.64215 0.84329 0.0
C1726 C 0.17504 0.67662 0.85404 0.0
C1727 C 0.18071 0.67629 0.86627 0.0
C1728 C 0.17995 0.65406 0.85114 0.0
C1729 C 0.18591 0.66462 0.8706 0.0
C1730 C 0.18635 0.63105 0.84728 0.0
C1731 C 0.17297 0.63138 0.82423 0.0
N1732 N 0.18543 0.65398 0.86303 0.0
N1733 N 0.17328 0.64193 0.83193 0.0
H1734 H 0.38113 0.68888 0.32129 0.0
H1735 H 0.3344 0.69848 0.38155 0.0
H1736 H 0.38909 0.71541 0.35217 0.0
H1737 H 0.32239 0.6807 0.34604 0.0
H1738 H 0.3554 0.70292 0.37193 0.0
H1739 H 0.36045 0.68385 0.33128 0.0
C1740 C 0.37856 0.69361 0.3302 0.0
C1741 C 0.38684 0.7026 0.33589 0.0
C1742 C 0.34816 0.69805 0.36625 0.0
C1743 C 0.36321 0.69686 0.34738 0.0
C1744 C 0.33618 0.69549 0.37174 0.0
C1745 C 0.32661 0.68923 0.36457 0.0
C1746 C 0.35063 0.69422 0.35355 0.0
C1747 C 0.32946 0.68559 0.3519 0.0
C1748 C 0.36673 0.69077 0.33587 0.0
C1749 C 0.38299 0.70845 0.34743 0.0
N1750 N 0.34123 0.6881 0.3468 0.0
N1751 N 0.37146 0.70546 0.3528 0.0
H1752 H 0.27643 0.88965 0.85658 0.0
H1753 H 0.31512 0.82363 0.85066 0.0
H1754 H 0.30514 0.88276 0.82744 0.0
H1755 H 0.295 0.83504 0.8851 0.0
H1756 H 0.31019 0.84455 0.84114 0.0
H1757 H 0.28178 0.86896 0.86638 0.0
C1758 C 0.28387 0.88379 0.85225 0.0
C1759 C 0.29036 0.88794 0.84117 0.0
C1760 C 0.30688 0.84248 0.8508 0.0
C1761 C 0.29645 0.86422 0.85229 0.0
C1762 C 0.30966 0.83053 0.85622 0.0
C1763 C 0.30546 0.82758 0.8687 0.0
C1764 C 0.29974 0.85151 0.85784 0.0
C1765 C 0.29845 0.83691 0.87546 0.0
C1766 C 0.28694 0.872 0.85787 0.0
C1767 C 0.29992 0.87996 0.83599 0.0
N1768 N 0.29575 0.84843 0.86992 0.0
N1769 N 0.30263 0.86846 0.84155 0.0
H1770 H 0.33349 0.80104 0.117 0.0
H1771 H 0.37611 0.81658 0.17904 0.0
H1772 H 0.31873 0.82067 0.15044 0.0
H1773 H 0.38721 0.78888 0.15022 0.0
H1774 H 0.35578 0.81984 0.16771 0.0
H1775 H 0.35399 0.79808 0.12811 0.0
C1776 C 0.33456 0.80474 0.12667 0.0
C1777 C 0.32437 0.8111 0.13281 0.0
C1778 C 0.36266 0.81305 0.16388 0.0
C1779 C 0.34783 0.8078 0.14554 0.0
C1780 C 0.37429 0.81121 0.17031 0.0
C1781 C 0.38337 0.80243 0.16558 0.0
C1782 C 0.36013 0.80615 0.15256 0.0
C1783 C 0.38047 0.79572 0.15423 0.0
C1784 C 0.34626 0.80302 0.13301 0.0
C1785 C 0.3263 0.81567 0.14535 0.0
N1786 N 0.36912 0.79774 0.14809 0.0
N1787 N 0.33782 0.81397 0.15129 0.0
H1788 H 0.17894 0.83683 0.62421 0.0
H1789 H 0.22713 0.87896 0.66498 0.0
H1790 H 0.20416 0.81959 0.65225 0.0
H1791 H 0.1883 0.89201 0.65856 0.0
H1792 H 0.22125 0.85792 0.65611 0.0
H1793 H 0.18457 0.85817 0.63269 0.0
C1794 C 0.18568 0.83755 0.63211 0.0
C1795 C 0.19107 0.82648 0.63759 0.0
C1796 C 0.21406 0.86543 0.65663 0.0
C1797 C 0.19771 0.85069 0.64705 0.0
C1798 C 0.2174 0.87742 0.66161 0.0
C1799 C 0.20816 0.88719 0.66252 0.0
C1800 C 0.20149 0.86333 0.65223 0.0
C1801 C 0.19567 0.88468 0.65807 0.0
C1802 C 0.18883 0.84968 0.63695 0.0
C1803 C 0.19973 0.8279 0.64782 0.0
N1804 N 0.19271 0.873 0.653 0.0
N1805 N 0.2029 0.83981 0.65215 0.0
H1806 H 0.28145 0.61616 0.65325 0.0
H1807 H 0.31927 0.68293 0.6489 0.0
H1808 H 0.30977 0.62815 0.68109 0.0
H1809 H 0.29731 0.66708 0.61747 0.0
H1810 H 0.315 0.66347 0.66137 0.0
H1811 H 0.28622 0.63532 0.64051 0.0
C1812 C 0.28868 0.62281 0.65668 0.0
C1813 C 0.29522 0.62055 0.66826 0.0
C1814 C 0.31115 0.66424 0.65173 0.0
C1815 C 0.30069 0.64253 0.65375 0.0
C1816 C 0.31356 0.67535 0.64461 0.0
C1817 C 0.30864 0.67664 0.63212 0.0
C1818 C 0.30366 0.65436 0.64636 0.0
C1819 C 0.30131 0.6665 0.62705 0.0
C1820 C 0.29142 0.63374 0.64939 0.0
C1821 C 0.30451 0.6295 0.67222 0.0
N1822 N 0.299 0.65581 0.63421 0.0
N1823 N 0.30693 0.64012 0.66501 0.0
loop_
_geom_bond_atom_site_label_1
_geom_bond_atom_site_label_2
_geom_bond_distance
_geom_bond_site_symmetry_2
_ccdc_geom_bond_type
O0 Cd1 2.300 . S
O0 C7 1.275 . S
Cd1 O0 2.300 . S
Cd1 O9 2.381 . S
Cd1 O10 2.378 . S
O2 Cd3 2.385 . S
O2 C7 1.255 . S
Cd3 O2 2.385 . S
Cd3 O4 2.317 . S
O4 Cd3 2.317 . S
O4 C5 1.232 . S
C5 O4 1.232 . S
C5 O6 1.218 . S
O6 C5 1.218 . S
C7 O0 1.275 . S
C7 O2 1.255 . S
C8 O9 1.258 . S
C8 O10 1.256 . S
O9 Cd1 2.381 . S
O9 C8 1.258 . S
O10 Cd1 2.378 . S
O10 C8 1.256 . S
O11 Cd12 2.300 . S
O11 C18 1.275 . S
Cd12 O11 2.300 . S
Cd12 O20 2.381 . S
Cd12 O21 2.378 . S
O13 Cd14 2.385 . S
O13 C18 1.255 . S
Cd14 O13 2.385 . S
Cd14 O15 2.317 . S
O15 Cd14 2.317 . S
O15 C16 1.232 . S
C16 O15 1.232 . S
C16 O17 1.218 . S
O17 C16 1.218 . S
C18 O11 1.275 . S
C18 O13 1.255 . S
C19 O20 1.258 . S
C19 O21 1.256 . S
O20 Cd12 2.381 . S
O20 C19 1.258 . S
O21 Cd12 2.378 . S
O21 C19 1.256 . S
O22 Cd23 2.300 . S
O22 C29 1.275 . S
Cd23 O22 2.300 . S
Cd23 O31 2.381 . S
Cd23 O32 2.378 . S
O24 Cd25 2.385 . S
O24 C29 1.255 . S
Cd25 O24 2.385 . S
Cd25 O26 2.317 . S
O26 Cd25 2.317 . S
O26 C27 1.232 . S
C27 O26 1.232 . S
C27 O28 1.218 . S
O28 C27 1.218 . S
C29 O22 1.275 . S
C29 O24 1.255 . S
C30 O31 1.258 . S
C30 O32 1.256 . S
O31 Cd23 2.381 . S
O31 C30 1.258 . S
O32 Cd23 2.378 . S
O32 C30 1.256 . S
O33 Cd34 2.300 . S
O33 C40 1.275 . S
Cd34 O33 2.300 . S
Cd34 O42 2.381 . S
Cd34 O43 2.378 . S
O35 Cd36 2.385 . S
O35 C40 1.255 . S
Cd36 O35 2.385 . S
Cd36 O37 2.317 . S
O37 Cd36 2.317 . S
O37 C38 1.232 . S
C38 O37 1.232 . S
C38 O39 1.218 . S
O39 C38 1.218 . S
C40 O33 1.275 . S
C40 O35 1.255 . S
C41 O42 1.258 . S
C41 O43 1.256 . S
O42 Cd34 2.381 . S
O42 C41 1.258 . S
O43 Cd34 2.378 . S
O43 C41 1.256 . S
O44 Cd45 2.300 . S
O44 C51 1.275 . S
Cd45 O44 2.300 . S
Cd45 O53 2.381 . S
Cd45 O54 2.378 . S
O46 Cd47 2.385 . S
O46 C51 1.255 . S
Cd47 O46 2.385 . S
Cd47 O48 2.317 . S
O48 Cd47 2.317 . S
O48 C49 1.232 . S
C49 O48 1.232 . S
C49 O50 1.218 . S
O50 C49 1.218 . S
C51 O44 1.275 . S
C51 O46 1.255 . S
C52 O53 1.258 . S
C52 O54 1.256 . S
O53 Cd45 2.381 . S
O53 C52 1.258 . S
O54 Cd45 2.378 . S
O54 C52 1.256 . S
O55 Cd56 2.300 . S
O55 C62 1.275 . S
Cd56 O55 2.300 . S
Cd56 O64 2.381 . S
Cd56 O65 2.378 . S
O57 Cd58 2.385 . S
O57 C62 1.255 . S
Cd58 O57 2.385 . S
Cd58 O59 2.317 . S
O59 Cd58 2.317 . S
O59 C60 1.232 . S
C60 O59 1.232 . S
C60 O61 1.218 . S
O61 C60 1.218 . S
C62 O55 1.275 . S
C62 O57 1.255 . S
C63 O64 1.258 . S
C63 O65 1.256 . S
O64 Cd56 2.381 . S
O64 C63 1.258 . S
O65 Cd56 2.378 . S
O65 C63 1.256 . S
O66 Cd67 2.300 . S
O66 C73 1.275 . S
Cd67 O66 2.300 . S
Cd67 O75 2.381 . S
Cd67 O76 2.378 . S
O68 Cd69 2.385 . S
O68 C73 1.255 . S
Cd69 O68 2.385 . S
Cd69 O70 2.317 . S
O70 Cd69 2.317 . S
O70 C71 1.232 . S
C71 O70 1.232 . S
C71 O72 1.218 . S
O72 C71 1.218 . S
C73 O66 1.275 . S
C73 O68 1.255 . S
C74 O75 1.258 . S
C74 O76 1.256 . S
O75 Cd67 2.381 . S
O75 C74 1.258 . S
O76 Cd67 2.378 . S
O76 C74 1.256 . S
O77 Cd78 2.300 . S
O77 C84 1.275 . S
Cd78 O77 2.300 . S
Cd78 O86 2.381 . S
Cd78 O87 2.378 . S
O79 Cd80 2.385 . S
O79 C84 1.255 . S
Cd80 O79 2.385 . S
Cd80 O81 2.317 . S
O81 Cd80 2.317 . S
O81 C82 1.232 . S
C82 O81 1.232 . S
C82 O83 1.218 . S
O83 C82 1.218 . S
C84 O77 1.275 . S
C84 O79 1.255 . S
C85 O86 1.258 . S
C85 O87 1.256 . S
O86 Cd78 2.381 . S
O86 C85 1.258 . S
O87 Cd78 2.378 . S
O87 C85 1.256 . S
O88 Cd89 2.300 . S
O88 C95 1.275 . S
Cd89 O88 2.300 . S
Cd89 O97 2.381 . S
Cd89 O98 2.378 . S
O90 Cd91 2.385 . S
O90 C95 1.255 . S
Cd91 O90 2.385 . S
Cd91 O92 2.317 . S
O92 Cd91 2.317 . S
O92 C93 1.232 . S
C93 O92 1.232 . S
C93 O94 1.218 . S
O94 C93 1.218 . S
C95 O88 1.275 . S
C95 O90 1.255 . S
C96 O97 1.258 . S
C96 O98 1.256 . S
O97 Cd89 2.381 . S
O97 C96 1.258 . S
O98 Cd89 2.378 . S
O98 C96 1.256 . S
O99 Cd100 2.300 . S
O99 C106 1.275 . S
Cd100 O99 2.300 . S
Cd100 O108 2.381 . S
Cd100 O109 2.378 . S
O101 Cd102 2.385 . S
O101 C106 1.255 . S
Cd102 O101 2.385 . S
Cd102 O103 2.317 . S
O103 Cd102 2.317 . S
O103 C104 1.232 . S
C104 O103 1.232 . S
C104 O105 1.218 . S
O105 C104 1.218 . S
C106 O99 1.275 . S
C106 O101 1.255 . S
C107 O108 1.258 . S
C107 O109 1.256 . S
O108 Cd100 2.381 . S
O108 C107 1.258 . S
O109 Cd100 2.378 . S
O109 C107 1.256 . S
O110 Cd111 2.300 . S
O110 C117 1.275 . S
Cd111 O110 2.300 . S
Cd111 O119 2.381 . S
Cd111 O120 2.378 . S
O112 Cd113 2.385 . S
O112 C117 1.255 . S
Cd113 O112 2.385 . S
Cd113 O114 2.317 . S
O114 Cd113 2.317 . S
O114 C115 1.232 . S
C115 O114 1.232 . S
C115 O116 1.218 . S
O116 C115 1.218 . S
C117 O110 1.275 . S
C117 O112 1.255 . S
C118 O119 1.258 . S
C118 O120 1.256 . S
O119 Cd111 2.381 . S
O119 C118 1.258 . S
O120 Cd111 2.378 . S
O120 C118 1.256 . S
O121 Cd122 2.300 . S
O121 C128 1.275 . S
Cd122 O121 2.300 . S
Cd122 O130 2.381 . S
Cd122 O131 2.378 . S
O123 Cd124 2.385 . S
O123 C128 1.255 . S
Cd124 O123 2.385 . S
Cd124 O125 2.317 . S
O125 Cd124 2.317 . S
O125 C126 1.232 . S
C126 O125 1.232 . S
C126 O127 1.218 . S
O127 C126 1.218 . S
C128 O121 1.275 . S
C128 O123 1.255 . S
C129 O130 1.258 . S
C129 O131 1.256 . S
O130 Cd122 2.381 . S
O130 C129 1.258 . S
O131 Cd122 2.378 . S
O131 C129 1.256 . S
O132 Cd133 2.300 . S
O132 C139 1.275 . S
Cd133 O132 2.300 . S
Cd133 O141 2.381 . S
Cd133 O142 2.378 . S
O134 Cd135 2.385 . S
O134 C139 1.255 . S
Cd135 O134 2.385 . S
Cd135 O136 2.317 . S
O136 Cd135 2.317 . S
O136 C137 1.232 . S
C137 O136 1.232 . S
C137 O138 1.218 . S
O138 C137 1.218 . S
C139 O132 1.275 . S
C139 O134 1.255 . S
C140 O141 1.258 . S
C140 O142 1.256 . S
O141 Cd133 2.381 . S
O141 C140 1.258 . S
O142 Cd133 2.378 . S
O142 C140 1.256 . S
O143 Cd144 2.300 . S
O143 C150 1.275 . S
Cd144 O143 2.300 . S
Cd144 O152 2.381 . S
Cd144 O153 2.378 . S
O145 Cd146 2.385 . S
O145 C150 1.255 . S
Cd146 O145 2.385 . S
Cd146 O147 2.317 . S
O147 Cd146 2.317 . S
O147 C148 1.232 . S
C148 O147 1.232 . S
C148 O149 1.218 . S
O149 C148 1.218 . S
C150 O143 1.275 . S
C150 O145 1.255 . S
C151 O152 1.258 . S
C151 O153 1.256 . S
O152 Cd144 2.381 . S
O152 C151 1.258 . S
O153 Cd144 2.378 . S
O153 C151 1.256 . S
O154 Cd155 2.300 . S
O154 C161 1.275 . S
Cd155 O154 2.300 . S
Cd155 O163 2.381 . S
Cd155 O164 2.378 . S
O156 Cd157 2.385 . S
O156 C161 1.255 . S
Cd157 O156 2.385 . S
Cd157 O158 2.317 . S
O158 Cd157 2.317 . S
O158 C159 1.232 . S
C159 O158 1.232 . S
C159 O160 1.218 . S
O160 C159 1.218 . S
C161 O154 1.275 . S
C161 O156 1.255 . S
C162 O163 1.258 . S
C162 O164 1.256 . S
O163 Cd155 2.381 . S
O163 C162 1.258 . S
O164 Cd155 2.378 . S
O164 C162 1.256 . S
O165 Cd166 2.300 . S
O165 C172 1.275 . S
Cd166 O165 2.300 . S
Cd166 O174 2.381 . S
Cd166 O175 2.378 . S
O167 Cd168 2.385 . S
O167 C172 1.255 . S
Cd168 O167 2.385 . S
Cd168 O169 2.317 . S
O169 Cd168 2.317 . S
O169 C170 1.232 . S
C170 O169 1.232 . S
C170 O171 1.218 . S
O171 C170 1.218 . S
C172 O165 1.275 . S
C172 O167 1.255 . S
C173 O174 1.258 . S
C173 O175 1.256 . S
O174 Cd166 2.381 . S
O174 C173 1.258 . S
O175 Cd166 2.378 . S
O175 C173 1.256 . S
O176 Cd177 2.300 . S
O176 C183 1.275 . S
Cd177 O176 2.300 . S
Cd177 O185 2.381 . S
Cd177 O186 2.378 . S
O178 Cd179 2.385 . S
O178 C183 1.255 . S
Cd179 O178 2.385 . S
Cd179 O180 2.317 . S
O180 Cd179 2.317 . S
O180 C181 1.232 . S
C181 O180 1.232 . S
C181 O182 1.218 . S
O182 C181 1.218 . S
C183 O176 1.275 . S
C183 O178 1.255 . S
C184 O185 1.258 . S
C184 O186 1.256 . S
O185 Cd177 2.381 . S
O185 C184 1.258 . S
O186 Cd177 2.378 . S
O186 C184 1.256 . S
O187 Cd188 2.300 . S
O187 C194 1.275 . S
Cd188 O187 2.300 . S
Cd188 O196 2.381 . S
Cd188 O197 2.378 . S
O189 Cd190 2.385 . S
O189 C194 1.255 . S
Cd190 O189 2.385 . S
Cd190 O191 2.317 . S
O191 Cd190 2.317 . S
O191 C192 1.232 . S
C192 O191 1.232 . S
C192 O193 1.218 . S
O193 C192 1.218 . S
C194 O187 1.275 . S
C194 O189 1.255 . S
C195 O196 1.258 . S
C195 O197 1.256 . S
O196 Cd188 2.381 . S
O196 C195 1.258 . S
O197 Cd188 2.378 . S
O197 C195 1.256 . S
O198 Cd199 2.300 . S
O198 C205 1.275 . S
Cd199 O198 2.300 . S
Cd199 O207 2.381 . S
Cd199 O208 2.378 . S
O200 Cd201 2.385 . S
O200 C205 1.255 . S
Cd201 O200 2.385 . S
Cd201 O202 2.317 . S
O202 Cd201 2.317 . S
O202 C203 1.232 . S
C203 O202 1.232 . S
C203 O204 1.218 . S
O204 C203 1.218 . S
C205 O198 1.275 . S
C205 O200 1.255 . S
C206 O207 1.258 . S
C206 O208 1.256 . S
O207 Cd199 2.381 . S
O207 C206 1.258 . S
O208 Cd199 2.378 . S
O208 C206 1.256 . S
O209 Cd210 2.300 . S
O209 C216 1.275 . S
Cd210 O209 2.300 . S
Cd210 O218 2.381 . S
Cd210 O219 2.378 . S
O211 Cd212 2.385 . S
O211 C216 1.255 . S
Cd212 O211 2.385 . S
Cd212 O213 2.317 . S
O213 Cd212 2.317 . S
O213 C214 1.232 . S
C214 O213 1.232 . S
C214 O215 1.218 . S
O215 C214 1.218 . S
C216 O209 1.275 . S
C216 O211 1.255 . S
C217 O218 1.258 . S
C217 O219 1.256 . S
O218 Cd210 2.381 . S
O218 C217 1.258 . S
O219 Cd210 2.378 . S
O219 C217 1.256 . S
O220 Cd221 2.300 . S
O220 C227 1.275 . S
Cd221 O220 2.300 . S
Cd221 O229 2.381 . S
Cd221 O230 2.378 . S
O222 Cd223 2.385 . S
O222 C227 1.255 . S
Cd223 O222 2.385 . S
Cd223 O224 2.317 . S
O224 Cd223 2.317 . S
O224 C225 1.232 . S
C225 O224 1.232 . S
C225 O226 1.218 . S
O226 C225 1.218 . S
C227 O220 1.275 . S
C227 O222 1.255 . S
C228 O229 1.258 . S
C228 O230 1.256 . S
O229 Cd221 2.381 . S
O229 C228 1.258 . S
O230 Cd221 2.378 . S
O230 C228 1.256 . S
O231 Cd232 2.300 . S
O231 C238 1.275 . S
Cd232 O231 2.300 . S
Cd232 O240 2.381 . S
Cd232 O241 2.378 . S
O233 Cd234 2.385 . S
O233 C238 1.255 . S
Cd234 O233 2.385 . S
Cd234 O235 2.317 . S
O235 Cd234 2.317 . S
O235 C236 1.232 . S
C236 O235 1.232 . S
C236 O237 1.218 . S
O237 C236 1.218 . S
C238 O231 1.275 . S
C238 O233 1.255 . S
C239 O240 1.258 . S
C239 O241 1.256 . S
O240 Cd232 2.381 . S
O240 C239 1.258 . S
O241 Cd232 2.378 . S
O241 C239 1.256 . S
O242 Cd243 2.300 . S
O242 C249 1.275 . S
Cd243 O242 2.300 . S
Cd243 O251 2.381 . S
Cd243 O252 2.378 . S
O244 Cd245 2.385 . S
O244 C249 1.255 . S
Cd245 O244 2.385 . S
Cd245 O246 2.317 . S
O246 Cd245 2.317 . S
O246 C247 1.232 . S
C247 O246 1.232 . S
C247 O248 1.218 . S
O248 C247 1.218 . S
C249 O242 1.275 . S
C249 O244 1.255 . S
C250 O251 1.258 . S
C250 O252 1.256 . S
O251 Cd243 2.381 . S
O251 C250 1.258 . S
O252 Cd243 2.378 . S
O252 C250 1.256 . S
O253 Cd254 2.300 . S
O253 C260 1.275 . S
Cd254 O253 2.300 . S
Cd254 O262 2.381 . S
Cd254 O263 2.378 . S
O255 Cd256 2.385 . S
O255 C260 1.255 . S
Cd256 O255 2.385 . S
Cd256 O257 2.317 . S
O257 Cd256 2.317 . S
O257 C258 1.232 . S
C258 O257 1.232 . S
C258 O259 1.218 . S
O259 C258 1.218 . S
C260 O253 1.275 . S
C260 O255 1.255 . S
C261 O262 1.258 . S
C261 O263 1.256 . S
O262 Cd254 2.381 . S
O262 C261 1.258 . S
O263 Cd254 2.378 . S
O263 C261 1.256 . S
O264 Cd265 2.300 . S
O264 C271 1.275 . S
Cd265 O264 2.300 . S
Cd265 O273 2.381 . S
Cd265 O274 2.378 . S
O266 Cd267 2.385 . S
O266 C271 1.255 . S
Cd267 O266 2.385 . S
Cd267 O268 2.317 . S
O268 Cd267 2.317 . S
O268 C269 1.232 . S
C269 O268 1.232 . S
C269 O270 1.218 . S
O270 C269 1.218 . S
C271 O264 1.275 . S
C271 O266 1.255 . S
C272 O273 1.258 . S
C272 O274 1.256 . S
O273 Cd265 2.381 . S
O273 C272 1.258 . S
O274 Cd265 2.378 . S
O274 C272 1.256 . S
O275 Cd276 2.300 . S
O275 C282 1.275 . S
Cd276 O275 2.300 . S
Cd276 O284 2.381 . S
Cd276 O285 2.378 . S
O277 Cd278 2.385 . S
O277 C282 1.255 . S
Cd278 O277 2.385 . S
Cd278 O279 2.317 . S
O279 Cd278 2.317 . S
O279 C280 1.232 . S
C280 O279 1.232 . S
C280 O281 1.218 . S
O281 C280 1.218 . S
C282 O275 1.275 . S
C282 O277 1.255 . S
C283 O284 1.258 . S
C283 O285 1.256 . S
O284 Cd276 2.381 . S
O284 C283 1.258 . S
O285 Cd276 2.378 . S
O285 C283 1.256 . S
O286 Cd287 2.300 . S
O286 C293 1.275 . S
Cd287 O286 2.300 . S
Cd287 O295 2.381 . S
Cd287 O296 2.378 . S
O288 Cd289 2.385 . S
O288 C293 1.255 . S
Cd289 O288 2.385 . S
Cd289 O290 2.317 . S
O290 Cd289 2.317 . S
O290 C291 1.232 . S
C291 O290 1.232 . S
C291 O292 1.218 . S
O292 C291 1.218 . S
C293 O286 1.275 . S
C293 O288 1.255 . S
C294 O295 1.258 . S
C294 O296 1.256 . S
O295 Cd287 2.381 . S
O295 C294 1.258 . S
O296 Cd287 2.378 . S
O296 C294 1.256 . S
O297 Cd298 2.300 . S
O297 C304 1.275 . S
Cd298 O297 2.300 . S
Cd298 O306 2.381 . S
Cd298 O307 2.378 . S
O299 Cd300 2.385 . S
O299 C304 1.255 . S
Cd300 O299 2.385 . S
Cd300 O301 2.317 . S
O301 Cd300 2.317 . S
O301 C302 1.232 . S
C302 O301 1.232 . S
C302 O303 1.218 . S
O303 C302 1.218 . S
C304 O297 1.275 . S
C304 O299 1.255 . S
C305 O306 1.258 . S
C305 O307 1.256 . S
O306 Cd298 2.381 . S
O306 C305 1.258 . S
O307 Cd298 2.378 . S
O307 C305 1.256 . S
O308 Cd309 2.300 . S
O308 C315 1.275 . S
Cd309 O308 2.300 . S
Cd309 O317 2.381 . S
Cd309 O318 2.378 . S
O310 Cd311 2.385 . S
O310 C315 1.255 . S
Cd311 O310 2.385 . S
Cd311 O312 2.317 . S
O312 Cd311 2.317 . S
O312 C313 1.232 . S
C313 O312 1.232 . S
C313 O314 1.218 . S
O314 C313 1.218 . S
C315 O308 1.275 . S
C315 O310 1.255 . S
C316 O317 1.258 . S
C316 O318 1.256 . S
O317 Cd309 2.381 . S
O317 C316 1.258 . S
O318 Cd309 2.378 . S
O318 C316 1.256 . S
O319 Cd320 2.300 . S
O319 C326 1.275 . S
Cd320 O319 2.300 . S
Cd320 O328 2.381 . S
Cd320 O329 2.378 . S
O321 Cd322 2.385 . S
O321 C326 1.255 . S
Cd322 O321 2.385 . S
Cd322 O323 2.317 . S
O323 Cd322 2.317 . S
O323 C324 1.232 . S
C324 O323 1.232 . S
C324 O325 1.218 . S
O325 C324 1.218 . S
C326 O319 1.275 . S
C326 O321 1.255 . S
C327 O328 1.258 . S
C327 O329 1.256 . S
O328 Cd320 2.381 . S
O328 C327 1.258 . S
O329 Cd320 2.378 . S
O329 C327 1.256 . S
O330 Cd331 2.300 . S
O330 C337 1.275 . S
Cd331 O330 2.300 . S
Cd331 O339 2.381 . S
Cd331 O340 2.378 . S
O332 Cd333 2.385 . S
O332 C337 1.255 . S
Cd333 O332 2.385 . S
Cd333 O334 2.317 . S
O334 Cd333 2.317 . S
O334 C335 1.232 . S
C335 O334 1.232 . S
C335 O336 1.218 . S
O336 C335 1.218 . S
C337 O330 1.275 . S
C337 O332 1.255 . S
C338 O339 1.258 . S
C338 O340 1.256 . S
O339 Cd331 2.381 . S
O339 C338 1.258 . S
O340 Cd331 2.378 . S
O340 C338 1.256 . S
O341 Cd342 2.300 . S
O341 C348 1.275 . S
Cd342 O341 2.300 . S
Cd342 O350 2.381 . S
Cd342 O351 2.378 . S
O343 Cd344 2.385 . S
O343 C348 1.255 . S
Cd344 O343 2.385 . S
Cd344 O345 2.317 . S
O345 Cd344 2.317 . S
O345 C346 1.232 . S
C346 O345 1.232 . S
C346 O347 1.218 . S
O347 C346 1.218 . S
C348 O341 1.275 . S
C348 O343 1.255 . S
C349 O350 1.258 . S
C349 O351 1.256 . S
O350 Cd342 2.381 . S
O350 C349 1.258 . S
O351 Cd342 2.378 . S
O351 C349 1.256 . S
O352 Cd353 2.300 . S
O352 C359 1.275 . S
Cd353 O352 2.300 . S
Cd353 O361 2.381 . S
Cd353 O362 2.378 . S
O354 Cd355 2.385 . S
O354 C359 1.255 . S
Cd355 O354 2.385 . S
Cd355 O356 2.317 . S
O356 Cd355 2.317 . S
O356 C357 1.232 . S
C357 O356 1.232 . S
C357 O358 1.218 . S
O358 C357 1.218 . S
C359 O352 1.275 . S
C359 O354 1.255 . S
C360 O361 1.258 . S
C360 O362 1.256 . S
O361 Cd353 2.381 . S
O361 C360 1.258 . S
O362 Cd353 2.378 . S
O362 C360 1.256 . S
O363 Cd364 2.300 . S
O363 C370 1.275 . S
Cd364 O363 2.300 . S
Cd364 O372 2.381 . S
Cd364 O373 2.378 . S
O365 Cd366 2.385 . S
O365 C370 1.255 . S
Cd366 O365 2.385 . S
Cd366 O367 2.317 . S
O367 Cd366 2.317 . S
O367 C368 1.232 . S
C368 O367 1.232 . S
C368 O369 1.218 . S
O369 C368 1.218 . S
C370 O363 1.275 . S
C370 O365 1.255 . S
C371 O372 1.258 . S
C371 O373 1.256 . S
O372 Cd364 2.381 . S
O372 C371 1.258 . S
O373 Cd364 2.378 . S
O373 C371 1.256 . S
O374 Cd375 2.300 . S
O374 C381 1.275 . S
Cd375 O374 2.300 . S
Cd375 O383 2.381 . S
Cd375 O384 2.378 . S
O376 Cd377 2.385 . S
O376 C381 1.255 . S
Cd377 O376 2.385 . S
Cd377 O378 2.317 . S
O378 Cd377 2.317 . S
O378 C379 1.232 . S
C379 O378 1.232 . S
C379 O380 1.218 . S
O380 C379 1.218 . S
C381 O374 1.275 . S
C381 O376 1.255 . S
C382 O383 1.258 . S
C382 O384 1.256 . S
O383 Cd375 2.381 . S
O383 C382 1.258 . S
O384 Cd375 2.378 . S
O384 C382 1.256 . S
O385 Cd386 2.300 . S
O385 C392 1.275 . S
Cd386 O385 2.300 . S
Cd386 O394 2.381 . S
Cd386 O395 2.378 . S
O387 Cd388 2.385 . S
O387 C392 1.255 . S
Cd388 O387 2.385 . S
Cd388 O389 2.317 . S
O389 Cd388 2.317 . S
O389 C390 1.232 . S
C390 O389 1.232 . S
C390 O391 1.218 . S
O391 C390 1.218 . S
C392 O385 1.275 . S
C392 O387 1.255 . S
C393 O394 1.258 . S
C393 O395 1.256 . S
O394 Cd386 2.381 . S
O394 C393 1.258 . S
O395 Cd386 2.378 . S
O395 C393 1.256 . S
O396 Cd397 2.300 . S
O396 C403 1.275 . S
Cd397 O396 2.300 . S
Cd397 O405 2.381 . S
Cd397 O406 2.378 . S
O398 Cd399 2.385 . S
O398 C403 1.255 . S
Cd399 O398 2.385 . S
Cd399 O400 2.317 . S
O400 Cd399 2.317 . S
O400 C401 1.232 . S
C401 O400 1.232 . S
C401 O402 1.218 . S
O402 C401 1.218 . S
C403 O396 1.275 . S
C403 O398 1.255 . S
C404 O405 1.258 . S
C404 O406 1.256 . S
O405 Cd397 2.381 . S
O405 C404 1.258 . S
O406 Cd397 2.378 . S
O406 C404 1.256 . S
O407 Cd408 2.300 . S
O407 C414 1.275 . S
Cd408 O407 2.300 . S
Cd408 O416 2.381 . S
Cd408 O417 2.378 . S
O409 Cd410 2.385 . S
O409 C414 1.255 . S
Cd410 O409 2.385 . S
Cd410 O411 2.317 . S
O411 Cd410 2.317 . S
O411 C412 1.232 . S
C412 O411 1.232 . S
C412 O413 1.218 . S
O413 C412 1.218 . S
C414 O407 1.275 . S
C414 O409 1.255 . S
C415 O416 1.258 . S
C415 O417 1.256 . S
O416 Cd408 2.381 . S
O416 C415 1.258 . S
O417 Cd408 2.378 . S
O417 C415 1.256 . S
O418 Cd419 2.300 . S
O418 C425 1.275 . S
Cd419 O418 2.300 . S
Cd419 O427 2.381 . S
Cd419 O428 2.378 . S
O420 Cd421 2.385 . S
O420 C425 1.255 . S
Cd421 O420 2.385 . S
Cd421 O422 2.317 . S
O422 Cd421 2.317 . S
O422 C423 1.232 . S
C423 O422 1.232 . S
C423 O424 1.218 . S
O424 C423 1.218 . S
C425 O418 1.275 . S
C425 O420 1.255 . S
C426 O427 1.258 . S
C426 O428 1.256 . S
O427 Cd419 2.381 . S
O427 C426 1.258 . S
O428 Cd419 2.378 . S
O428 C426 1.256 . S
O429 Cd430 2.300 . S
O429 C436 1.275 . S
Cd430 O429 2.300 . S
Cd430 O438 2.381 . S
Cd430 O439 2.378 . S
O431 Cd432 2.385 . S
O431 C436 1.255 . S
Cd432 O431 2.385 . S
Cd432 O433 2.317 . S
O433 Cd432 2.317 . S
O433 C434 1.232 . S
C434 O433 1.232 . S
C434 O435 1.218 . S
O435 C434 1.218 . S
C436 O429 1.275 . S
C436 O431 1.255 . S
C437 O438 1.258 . S
C437 O439 1.256 . S
O438 Cd430 2.381 . S
O438 C437 1.258 . S
O439 Cd430 2.378 . S
O439 C437 1.256 . S
O440 Cd441 2.300 . S
O440 C447 1.275 . S
Cd441 O440 2.300 . S
Cd441 O449 2.381 . S
Cd441 O450 2.378 . S
O442 Cd443 2.385 . S
O442 C447 1.255 . S
Cd443 O442 2.385 . S
Cd443 O444 2.317 . S
O444 Cd443 2.317 . S
O444 C445 1.232 . S
C445 O444 1.232 . S
C445 O446 1.218 . S
O446 C445 1.218 . S
C447 O440 1.275 . S
C447 O442 1.255 . S
C448 O449 1.258 . S
C448 O450 1.256 . S
O449 Cd441 2.381 . S
O449 C448 1.258 . S
O450 Cd441 2.378 . S
O450 C448 1.256 . S
O451 Cd452 2.300 . S
O451 C458 1.275 . S
Cd452 O451 2.300 . S
Cd452 O460 2.381 . S
Cd452 O461 2.378 . S
O453 Cd454 2.385 . S
O453 C458 1.255 . S
Cd454 O453 2.385 . S
Cd454 O455 2.317 . S
O455 Cd454 2.317 . S
O455 C456 1.232 . S
C456 O455 1.232 . S
C456 O457 1.218 . S
O457 C456 1.218 . S
C458 O451 1.275 . S
C458 O453 1.255 . S
C459 O460 1.258 . S
C459 O461 1.256 . S
O460 Cd452 2.381 . S
O460 C459 1.258 . S
O461 Cd452 2.378 . S
O461 C459 1.256 . S
O462 Cd463 2.300 . S
O462 C469 1.275 . S
Cd463 O462 2.300 . S
Cd463 O471 2.381 . S
Cd463 O472 2.378 . S
O464 Cd465 2.385 . S
O464 C469 1.255 . S
Cd465 O464 2.385 . S
Cd465 O466 2.317 . S
O466 Cd465 2.317 . S
O466 C467 1.232 . S
C467 O466 1.232 . S
C467 O468 1.218 . S
O468 C467 1.218 . S
C469 O462 1.275 . S
C469 O464 1.255 . S
C470 O471 1.258 . S
C470 O472 1.256 . S
O471 Cd463 2.381 . S
O471 C470 1.258 . S
O472 Cd463 2.378 . S
O472 C470 1.256 . S
O473 Cd474 2.300 . S
O473 C480 1.275 . S
Cd474 O473 2.300 . S
Cd474 O482 2.381 . S
Cd474 O483 2.378 . S
O475 Cd476 2.385 . S
O475 C480 1.255 . S
Cd476 O475 2.385 . S
Cd476 O477 2.317 . S
O477 Cd476 2.317 . S
O477 C478 1.232 . S
C478 O477 1.232 . S
C478 O479 1.218 . S
O479 C478 1.218 . S
C480 O473 1.275 . S
C480 O475 1.255 . S
C481 O482 1.258 . S
C481 O483 1.256 . S
O482 Cd474 2.381 . S
O482 C481 1.258 . S
O483 Cd474 2.378 . S
O483 C481 1.256 . S
O484 Cd485 2.300 . S
O484 C491 1.275 . S
Cd485 O484 2.300 . S
Cd485 O493 2.381 . S
Cd485 O494 2.378 . S
O486 Cd487 2.385 . S
O486 C491 1.255 . S
Cd487 O486 2.385 . S
Cd487 O488 2.317 . S
O488 Cd487 2.317 . S
O488 C489 1.232 . S
C489 O488 1.232 . S
C489 O490 1.218 . S
O490 C489 1.218 . S
C491 O484 1.275 . S
C491 O486 1.255 . S
C492 O493 1.258 . S
C492 O494 1.256 . S
O493 Cd485 2.381 . S
O493 C492 1.258 . S
O494 Cd485 2.378 . S
O494 C492 1.256 . S
O495 Cd496 2.300 . S
O495 C502 1.275 . S
Cd496 O495 2.300 . S
Cd496 O504 2.381 . S
Cd496 O505 2.378 . S
O497 Cd498 2.385 . S
O497 C502 1.255 . S
Cd498 O497 2.385 . S
Cd498 O499 2.317 . S
O499 Cd498 2.317 . S
O499 C500 1.232 . S
C500 O499 1.232 . S
C500 O501 1.218 . S
O501 C500 1.218 . S
C502 O495 1.275 . S
C502 O497 1.255 . S
C503 O504 1.258 . S
C503 O505 1.256 . S
O504 Cd496 2.381 . S
O504 C503 1.258 . S
O505 Cd496 2.378 . S
O505 C503 1.256 . S
O506 Cd507 2.300 . S
O506 C513 1.275 . S
Cd507 O506 2.300 . S
Cd507 O515 2.381 . S
Cd507 O516 2.378 . S
O508 Cd509 2.385 . S
O508 C513 1.255 . S
Cd509 O508 2.385 . S
Cd509 O510 2.317 . S
O510 Cd509 2.317 . S
O510 C511 1.232 . S
C511 O510 1.232 . S
C511 O512 1.218 . S
O512 C511 1.218 . S
C513 O506 1.275 . S
C513 O508 1.255 . S
C514 O515 1.258 . S
C514 O516 1.256 . S
O515 Cd507 2.381 . S
O515 C514 1.258 . S
O516 Cd507 2.378 . S
O516 C514 1.256 . S
O517 Cd518 2.300 . S
O517 C524 1.275 . S
Cd518 O517 2.300 . S
Cd518 O526 2.381 . S
Cd518 O527 2.378 . S
O519 Cd520 2.385 . S
O519 C524 1.255 . S
Cd520 O519 2.385 . S
Cd520 O521 2.317 . S
O521 Cd520 2.317 . S
O521 C522 1.232 . S
C522 O521 1.232 . S
C522 O523 1.218 . S
O523 C522 1.218 . S
C524 O517 1.275 . S
C524 O519 1.255 . S
C525 O526 1.258 . S
C525 O527 1.256 . S
O526 Cd518 2.381 . S
O526 C525 1.258 . S
O527 Cd518 2.378 . S
O527 C525 1.256 . S
H528 C534 0.930 . S
H529 C538 0.930 . S
H530 C543 0.929 . S
H531 C541 0.929 . S
H532 C536 0.929 . S
H533 C542 0.929 . S
C534 H528 0.930 . S
C534 C535 1.367 . S
C534 C542 1.378 . S
C535 C534 1.367 . S
C535 C543 1.433 . S
C536 H532 0.929 . S
C536 C538 1.378 . S
C536 C540 1.350 . S
C537 C540 1.463 . S
C537 C542 1.350 . S
C537 N545 1.427 . S
C538 H529 0.930 . S
C538 C536 1.378 . S
C538 C539 1.367 . S
C539 C538 1.367 . S
C539 C541 1.433 . S
C540 C536 1.350 . S
C540 C537 1.463 . S
C540 N544 1.427 . S
C541 H531 0.929 . S
C541 C539 1.433 . S
C541 N544 1.384 . S
C542 H533 0.929 . S
C542 C534 1.378 . S
C542 C537 1.350 . S
C543 H530 0.929 . S
C543 C535 1.433 . S
C543 N545 1.384 . S
N544 C540 1.427 . S
N544 C541 1.384 . S
N545 C537 1.427 . S
N545 C543 1.384 . S
H546 C552 0.930 . S
H547 C556 0.930 . S
H548 C561 0.929 . S
H549 C559 0.929 . S
H550 C554 0.929 . S
H551 C560 0.929 . S
C552 H546 0.930 . S
C552 C553 1.367 . S
C552 C560 1.378 . S
C553 C552 1.367 . S
C553 C561 1.433 . S
C554 H550 0.929 . S
C554 C556 1.378 . S
C554 C558 1.350 . S
C555 C558 1.463 . S
C555 C560 1.350 . S
C555 N563 1.427 . S
C556 H547 0.930 . S
C556 C554 1.378 . S
C556 C557 1.367 . S
C557 C556 1.367 . S
C557 C559 1.433 . S
C558 C554 1.350 . S
C558 C555 1.463 . S
C558 N562 1.427 . S
C559 H549 0.929 . S
C559 C557 1.433 . S
C559 N562 1.384 . S
C560 H551 0.929 . S
C560 C552 1.378 . S
C560 C555 1.350 . S
C561 H548 0.929 . S
C561 C553 1.433 . S
C561 N563 1.384 . S
N562 C558 1.427 . S
N562 C559 1.384 . S
N563 C555 1.427 . S
N563 C561 1.384 . S
H564 C570 0.930 . S
H565 C574 0.930 . S
H566 C579 0.929 . S
H567 C577 0.929 . S
H568 C572 0.929 . S
H569 C578 0.929 . S
C570 H564 0.930 . S
C570 C571 1.367 . S
C570 C578 1.378 . S
C571 C570 1.367 . S
C571 C579 1.433 . S
C572 H568 0.929 . S
C572 C574 1.378 . S
C572 C576 1.350 . S
C573 C576 1.463 . S
C573 C578 1.350 . S
C573 N581 1.427 . S
C574 H565 0.930 . S
C574 C572 1.378 . S
C574 C575 1.367 . S
C575 C574 1.367 . S
C575 C577 1.433 . S
C576 C572 1.350 . S
C576 C573 1.463 . S
C576 N580 1.427 . S
C577 H567 0.929 . S
C577 C575 1.433 . S
C577 N580 1.384 . S
C578 H569 0.929 . S
C578 C570 1.378 . S
C578 C573 1.350 . S
C579 H566 0.929 . S
C579 C571 1.433 . S
C579 N581 1.384 . S
N580 C576 1.427 . S
N580 C577 1.384 . S
N581 C573 1.427 . S
N581 C579 1.384 . S
H582 C588 0.930 . S
H583 C592 0.930 . S
H584 C597 0.929 . S
H585 C595 0.929 . S
H586 C590 0.929 . S
H587 C596 0.929 . S
C588 H582 0.930 . S
C588 C589 1.367 . S
C588 C596 1.378 . S
C589 C588 1.367 . S
C589 C597 1.433 . S
C590 H586 0.929 . S
C590 C592 1.378 . S
C590 C594 1.350 . S
C591 C594 1.463 . S
C591 C596 1.350 . S
C591 N599 1.427 . S
C592 H583 0.930 . S
C592 C590 1.378 . S
C592 C593 1.367 . S
C593 C592 1.367 . S
C593 C595 1.433 . S
C594 C590 1.350 . S
C594 C591 1.463 . S
C594 N598 1.427 . S
C595 H585 0.929 . S
C595 C593 1.433 . S
C595 N598 1.384 . S
C596 H587 0.929 . S
C596 C588 1.378 . S
C596 C591 1.350 . S
C597 H584 0.929 . S
C597 C589 1.433 . S
C597 N599 1.384 . S
N598 C594 1.427 . S
N598 C595 1.384 . S
N599 C591 1.427 . S
N599 C597 1.384 . S
H600 C606 0.930 . S
H601 C610 0.930 . S
H602 C615 0.929 . S
H603 C613 0.929 . S
H604 C608 0.929 . S
H605 C614 0.929 . S
C606 H600 0.930 . S
C606 C607 1.367 . S
C606 C614 1.378 . S
C607 C606 1.367 . S
C607 C615 1.433 . S
C608 H604 0.929 . S
C608 C610 1.378 . S
C608 C612 1.350 . S
C609 C612 1.463 . S
C609 C614 1.350 . S
C609 N617 1.427 . S
C610 H601 0.930 . S
C610 C608 1.378 . S
C610 C611 1.367 . S
C611 C610 1.367 . S
C611 C613 1.433 . S
C612 C608 1.350 . S
C612 C609 1.463 . S
C612 N616 1.427 . S
C613 H603 0.929 . S
C613 C611 1.433 . S
C613 N616 1.384 . S
C614 H605 0.929 . S
C614 C606 1.378 . S
C614 C609 1.350 . S
C615 H602 0.929 . S
C615 C607 1.433 . S
C615 N617 1.384 . S
N616 C612 1.427 . S
N616 C613 1.384 . S
N617 C609 1.427 . S
N617 C615 1.384 . S
H618 C624 0.930 . S
H619 C628 0.930 . S
H620 C633 0.929 . S
H621 C631 0.929 . S
H622 C626 0.929 . S
H623 C632 0.929 . S
C624 H618 0.930 . S
C624 C625 1.367 . S
C624 C632 1.378 . S
C625 C624 1.367 . S
C625 C633 1.433 . S
C626 H622 0.929 . S
C626 C628 1.378 . S
C626 C630 1.350 . S
C627 C630 1.463 . S
C627 C632 1.350 . S
C627 N635 1.427 . S
C628 H619 0.930 . S
C628 C626 1.378 . S
C628 C629 1.367 . S
C629 C628 1.367 . S
C629 C631 1.433 . S
C630 C626 1.350 . S
C630 C627 1.463 . S
C630 N634 1.427 . S
C631 H621 0.929 . S
C631 C629 1.433 . S
C631 N634 1.384 . S
C632 H623 0.929 . S
C632 C624 1.378 . S
C632 C627 1.350 . S
C633 H620 0.929 . S
C633 C625 1.433 . S
C633 N635 1.384 . S
N634 C630 1.427 . S
N634 C631 1.384 . S
N635 C627 1.427 . S
N635 C633 1.384 . S
H636 C642 0.930 . S
H637 C646 0.930 . S
H638 C651 0.929 . S
H639 C649 0.929 . S
H640 C644 0.929 . S
H641 C650 0.929 . S
C642 H636 0.930 . S
C642 C643 1.367 . S
C642 C650 1.378 . S
C643 C642 1.367 . S
C643 C651 1.433 . S
C644 H640 0.929 . S
C644 C646 1.378 . S
C644 C648 1.350 . S
C645 C648 1.463 . S
C645 C650 1.350 . S
C645 N653 1.427 . S
C646 H637 0.930 . S
C646 C644 1.378 . S
C646 C647 1.367 . S
C647 C646 1.367 . S
C647 C649 1.433 . S
C648 C644 1.350 . S
C648 C645 1.463 . S
C648 N652 1.427 . S
C649 H639 0.929 . S
C649 C647 1.433 . S
C649 N652 1.384 . S
C650 H641 0.929 . S
C650 C642 1.378 . S
C650 C645 1.350 . S
C651 H638 0.929 . S
C651 C643 1.433 . S
C651 N653 1.384 . S
N652 C648 1.427 . S
N652 C649 1.384 . S
N653 C645 1.427 . S
N653 C651 1.384 . S
H654 C660 0.930 . S
H655 C664 0.930 . S
H656 C669 0.929 . S
H657 C667 0.929 . S
H658 C662 0.929 . S
H659 C668 0.929 . S
C660 H654 0.930 . S
C660 C661 1.367 . S
C660 C668 1.378 . S
C661 C660 1.367 . S
C661 C669 1.433 . S
C662 H658 0.929 . S
C662 C664 1.378 . S
C662 C666 1.350 . S
C663 C666 1.463 . S
C663 C668 1.350 . S
C663 N671 1.427 . S
C664 H655 0.930 . S
C664 C662 1.378 . S
C664 C665 1.367 . S
C665 C664 1.367 . S
C665 C667 1.433 . S
C666 C662 1.350 . S
C666 C663 1.463 . S
C666 N670 1.427 . S
C667 H657 0.929 . S
C667 C665 1.433 . S
C667 N670 1.384 . S
C668 H659 0.929 . S
C668 C660 1.378 . S
C668 C663 1.350 . S
C669 H656 0.929 . S
C669 C661 1.433 . S
C669 N671 1.384 . S
N670 C666 1.427 . S
N670 C667 1.384 . S
N671 C663 1.427 . S
N671 C669 1.384 . S
H672 C678 0.930 . S
H673 C682 0.930 . S
H674 C687 0.929 . S
H675 C685 0.929 . S
H676 C680 0.929 . S
H677 C686 0.929 . S
C678 H672 0.930 . S
C678 C679 1.367 . S
C678 C686 1.378 . S
C679 C678 1.367 . S
C679 C687 1.433 . S
C680 H676 0.929 . S
C680 C682 1.378 . S
C680 C684 1.350 . S
C681 C684 1.463 . S
C681 C686 1.350 . S
C681 N689 1.427 . S
C682 H673 0.930 . S
C682 C680 1.378 . S
C682 C683 1.367 . S
C683 C682 1.367 . S
C683 C685 1.433 . S
C684 C680 1.350 . S
C684 C681 1.463 . S
C684 N688 1.427 . S
C685 H675 0.929 . S
C685 C683 1.433 . S
C685 N688 1.384 . S
C686 H677 0.929 . S
C686 C678 1.378 . S
C686 C681 1.350 . S
C687 H674 0.929 . S
C687 C679 1.433 . S
C687 N689 1.384 . S
N688 C684 1.427 . S
N688 C685 1.384 . S
N689 C681 1.427 . S
N689 C687 1.384 . S
H690 C696 0.930 . S
H691 C700 0.930 . S
H692 C705 0.929 . S
H693 C703 0.929 . S
H694 C698 0.929 . S
H695 C704 0.929 . S
C696 H690 0.930 . S
C696 C697 1.367 . S
C696 C704 1.378 . S
C697 C696 1.367 . S
C697 C705 1.433 . S
C698 H694 0.929 . S
C698 C700 1.378 . S
C698 C702 1.350 . S
C699 C702 1.463 . S
C699 C704 1.350 . S
C699 N707 1.427 . S
C700 H691 0.930 . S
C700 C698 1.378 . S
C700 C701 1.367 . S
C701 C700 1.367 . S
C701 C703 1.433 . S
C702 C698 1.350 . S
C702 C699 1.463 . S
C702 N706 1.427 . S
C703 H693 0.929 . S
C703 C701 1.433 . S
C703 N706 1.384 . S
C704 H695 0.929 . S
C704 C696 1.378 . S
C704 C699 1.350 . S
C705 H692 0.929 . S
C705 C697 1.433 . S
C705 N707 1.384 . S
N706 C702 1.427 . S
N706 C703 1.384 . S
N707 C699 1.427 . S
N707 C705 1.384 . S
H708 C714 0.930 . S
H709 C718 0.930 . S
H710 C723 0.929 . S
H711 C721 0.929 . S
H712 C716 0.929 . S
H713 C722 0.929 . S
C714 H708 0.930 . S
C714 C715 1.367 . S
C714 C722 1.378 . S
C715 C714 1.367 . S
C715 C723 1.433 . S
C716 H712 0.929 . S
C716 C718 1.378 . S
C716 C720 1.350 . S
C717 C720 1.463 . S
C717 C722 1.350 . S
C717 N725 1.427 . S
C718 H709 0.930 . S
C718 C716 1.378 . S
C718 C719 1.367 . S
C719 C718 1.367 . S
C719 C721 1.433 . S
C720 C716 1.350 . S
C720 C717 1.463 . S
C720 N724 1.427 . S
C721 H711 0.929 . S
C721 C719 1.433 . S
C721 N724 1.384 . S
C722 H713 0.929 . S
C722 C714 1.378 . S
C722 C717 1.350 . S
C723 H710 0.929 . S
C723 C715 1.433 . S
C723 N725 1.384 . S
N724 C720 1.427 . S
N724 C721 1.384 . S
N725 C717 1.427 . S
N725 C723 1.384 . S
H726 C732 0.930 . S
H727 C736 0.930 . S
H728 C741 0.929 . S
H729 C739 0.929 . S
H730 C734 0.929 . S
H731 C740 0.929 . S
C732 H726 0.930 . S
C732 C733 1.367 . S
C732 C740 1.378 . S
C733 C732 1.367 . S
C733 C741 1.433 . S
C734 H730 0.929 . S
C734 C736 1.378 . S
C734 C738 1.350 . S
C735 C738 1.463 . S
C735 C740 1.350 . S
C735 N743 1.427 . S
C736 H727 0.930 . S
C736 C734 1.378 . S
C736 C737 1.367 . S
C737 C736 1.367 . S
C737 C739 1.433 . S
C738 C734 1.350 . S
C738 C735 1.463 . S
C738 N742 1.427 . S
C739 H729 0.929 . S
C739 C737 1.433 . S
C739 N742 1.384 . S
C740 H731 0.929 . S
C740 C732 1.378 . S
C740 C735 1.350 . S
C741 H728 0.929 . S
C741 C733 1.433 . S
C741 N743 1.384 . S
N742 C738 1.427 . S
N742 C739 1.384 . S
N743 C735 1.427 . S
N743 C741 1.384 . S
H744 C750 0.930 . S
H745 C754 0.930 . S
H746 C759 0.929 . S
H747 C757 0.929 . S
H748 C752 0.929 . S
H749 C758 0.929 . S
C750 H744 0.930 . S
C750 C751 1.367 . S
C750 C758 1.378 . S
C751 C750 1.367 . S
C751 C759 1.433 . S
C752 H748 0.929 . S
C752 C754 1.378 . S
C752 C756 1.350 . S
C753 C756 1.463 . S
C753 C758 1.350 . S
C753 N761 1.427 . S
C754 H745 0.930 . S
C754 C752 1.378 . S
C754 C755 1.367 . S
C755 C754 1.367 . S
C755 C757 1.433 . S
C756 C752 1.350 . S
C756 C753 1.463 . S
C756 N760 1.427 . S
C757 H747 0.929 . S
C757 C755 1.433 . S
C757 N760 1.384 . S
C758 H749 0.929 . S
C758 C750 1.378 . S
C758 C753 1.350 . S
C759 H746 0.929 . S
C759 C751 1.433 . S
C759 N761 1.384 . S
N760 C756 1.427 . S
N760 C757 1.384 . S
N761 C753 1.427 . S
N761 C759 1.384 . S
H762 C768 0.930 . S
H763 C772 0.930 . S
H764 C777 0.929 . S
H765 C775 0.929 . S
H766 C770 0.929 . S
H767 C776 0.929 . S
C768 H762 0.930 . S
C768 C769 1.367 . S
C768 C776 1.378 . S
C769 C768 1.367 . S
C769 C777 1.433 . S
C770 H766 0.929 . S
C770 C772 1.378 . S
C770 C774 1.350 . S
C771 C774 1.463 . S
C771 C776 1.350 . S
C771 N779 1.427 . S
C772 H763 0.930 . S
C772 C770 1.378 . S
C772 C773 1.367 . S
C773 C772 1.367 . S
C773 C775 1.433 . S
C774 C770 1.350 . S
C774 C771 1.463 . S
C774 N778 1.427 . S
C775 H765 0.929 . S
C775 C773 1.433 . S
C775 N778 1.384 . S
C776 H767 0.929 . S
C776 C768 1.378 . S
C776 C771 1.350 . S
C777 H764 0.929 . S
C777 C769 1.433 . S
C777 N779 1.384 . S
N778 C774 1.427 . S
N778 C775 1.384 . S
N779 C771 1.427 . S
N779 C777 1.384 . S
H780 C786 0.930 . S
H781 C790 0.930 . S
H782 C795 0.929 . S
H783 C793 0.929 . S
H784 C788 0.929 . S
H785 C794 0.929 . S
C786 H780 0.930 . S
C786 C787 1.367 . S
C786 C794 1.378 . S
C787 C786 1.367 . S
C787 C795 1.433 . S
C788 H784 0.929 . S
C788 C790 1.378 . S
C788 C792 1.350 . S
C789 C792 1.463 . S
C789 C794 1.350 . S
C789 N797 1.427 . S
C790 H781 0.930 . S
C790 C788 1.378 . S
C790 C791 1.367 . S
C791 C790 1.367 . S
C791 C793 1.433 . S
C792 C788 1.350 . S
C792 C789 1.463 . S
C792 N796 1.427 . S
C793 H783 0.929 . S
C793 C791 1.433 . S
C793 N796 1.384 . S
C794 H785 0.929 . S
C794 C786 1.378 . S
C794 C789 1.350 . S
C795 H782 0.929 . S
C795 C787 1.433 . S
C795 N797 1.384 . S
N796 C792 1.427 . S
N796 C793 1.384 . S
N797 C789 1.427 . S
N797 C795 1.384 . S
H798 C804 0.930 . S
H799 C808 0.930 . S
H800 C813 0.929 . S
H801 C811 0.929 . S
H802 C806 0.929 . S
H803 C812 0.929 . S
C804 H798 0.930 . S
C804 C805 1.367 . S
C804 C812 1.378 . S
C805 C804 1.367 . S
C805 C813 1.433 . S
C806 H802 0.929 . S
C806 C808 1.378 . S
C806 C810 1.350 . S
C807 C810 1.463 . S
C807 C812 1.350 . S
C807 N815 1.427 . S
C808 H799 0.930 . S
C808 C806 1.378 . S
C808 C809 1.367 . S
C809 C808 1.367 . S
C809 C811 1.433 . S
C810 C806 1.350 . S
C810 C807 1.463 . S
C810 N814 1.427 . S
C811 H801 0.929 . S
C811 C809 1.433 . S
C811 N814 1.384 . S
C812 H803 0.929 . S
C812 C804 1.378 . S
C812 C807 1.350 . S
C813 H800 0.929 . S
C813 C805 1.433 . S
C813 N815 1.384 . S
N814 C810 1.427 . S
N814 C811 1.384 . S
N815 C807 1.427 . S
N815 C813 1.384 . S
H816 C822 0.930 . S
H817 C826 0.930 . S
H818 C831 0.929 . S
H819 C829 0.929 . S
H820 C824 0.929 . S
H821 C830 0.929 . S
C822 H816 0.930 . S
C822 C823 1.367 . S
C822 C830 1.378 . S
C823 C822 1.367 . S
C823 C831 1.433 . S
C824 H820 0.929 . S
C824 C826 1.378 . S
C824 C828 1.350 . S
C825 C828 1.463 . S
C825 C830 1.350 . S
C825 N833 1.427 . S
C826 H817 0.930 . S
C826 C824 1.378 . S
C826 C827 1.367 . S
C827 C826 1.367 . S
C827 C829 1.433 . S
C828 C824 1.350 . S
C828 C825 1.463 . S
C828 N832 1.427 . S
C829 H819 0.929 . S
C829 C827 1.433 . S
C829 N832 1.384 . S
C830 H821 0.929 . S
C830 C822 1.378 . S
C830 C825 1.350 . S
C831 H818 0.929 . S
C831 C823 1.433 . S
C831 N833 1.384 . S
N832 C828 1.427 . S
N832 C829 1.384 . S
N833 C825 1.427 . S
N833 C831 1.384 . S
H834 C840 0.930 . S
H835 C844 0.930 . S
H836 C849 0.929 . S
H837 C847 0.929 . S
H838 C842 0.929 . S
H839 C848 0.929 . S
C840 H834 0.930 . S
C840 C841 1.367 . S
C840 C848 1.378 . S
C841 C840 1.367 . S
C841 C849 1.433 . S
C842 H838 0.929 . S
C842 C844 1.378 . S
C842 C846 1.350 . S
C843 C846 1.463 . S
C843 C848 1.350 . S
C843 N851 1.427 . S
C844 H835 0.930 . S
C844 C842 1.378 . S
C844 C845 1.367 . S
C845 C844 1.367 . S
C845 C847 1.433 . S
C846 C842 1.350 . S
C846 C843 1.463 . S
C846 N850 1.427 . S
C847 H837 0.929 . S
C847 C845 1.433 . S
C847 N850 1.384 . S
C848 H839 0.929 . S
C848 C840 1.378 . S
C848 C843 1.350 . S
C849 H836 0.929 . S
C849 C841 1.433 . S
C849 N851 1.384 . S
N850 C846 1.427 . S
N850 C847 1.384 . S
N851 C843 1.427 . S
N851 C849 1.384 . S
H852 C858 0.930 . S
H853 C862 0.930 . S
H854 C867 0.929 . S
H855 C865 0.929 . S
H856 C860 0.929 . S
H857 C866 0.929 . S
C858 H852 0.930 . S
C858 C859 1.367 . S
C858 C866 1.378 . S
C859 C858 1.367 . S
C859 C867 1.433 . S
C860 H856 0.929 . S
C860 C862 1.378 . S
C860 C864 1.350 . S
C861 C864 1.463 . S
C861 C866 1.350 . S
C861 N869 1.427 . S
C862 H853 0.930 . S
C862 C860 1.378 . S
C862 C863 1.367 . S
C863 C862 1.367 . S
C863 C865 1.433 . S
C864 C860 1.350 . S
C864 C861 1.463 . S
C864 N868 1.427 . S
C865 H855 0.929 . S
C865 C863 1.433 . S
C865 N868 1.384 . S
C866 H857 0.929 . S
C866 C858 1.378 . S
C866 C861 1.350 . S
C867 H854 0.929 . S
C867 C859 1.433 . S
C867 N869 1.384 . S
N868 C864 1.427 . S
N868 C865 1.384 . S
N869 C861 1.427 . S
N869 C867 1.384 . S
H870 C876 0.930 . S
H871 C880 0.930 . S
H872 C885 0.929 . S
H873 C883 0.929 . S
H874 C878 0.929 . S
H875 C884 0.929 . S
C876 H870 0.930 . S
C876 C877 1.367 . S
C876 C884 1.378 . S
C877 C876 1.367 . S
C877 C885 1.433 . S
C878 H874 0.929 . S
C878 C880 1.378 . S
C878 C882 1.350 . S
C879 C882 1.463 . S
C879 C884 1.350 . S
C879 N887 1.427 . S
C880 H871 0.930 . S
C880 C878 1.378 . S
C880 C881 1.367 . S
C881 C880 1.367 . S
C881 C883 1.433 . S
C882 C878 1.350 . S
C882 C879 1.463 . S
C882 N886 1.427 . S
C883 H873 0.929 . S
C883 C881 1.433 . S
C883 N886 1.384 . S
C884 H875 0.929 . S
C884 C876 1.378 . S
C884 C879 1.350 . S
C885 H872 0.929 . S
C885 C877 1.433 . S
C885 N887 1.384 . S
N886 C882 1.427 . S
N886 C883 1.384 . S
N887 C879 1.427 . S
N887 C885 1.384 . S
H888 C894 0.930 . S
H889 C898 0.930 . S
H890 C903 0.929 . S
H891 C901 0.929 . S
H892 C896 0.929 . S
H893 C902 0.929 . S
C894 H888 0.930 . S
C894 C895 1.367 . S
C894 C902 1.378 . S
C895 C894 1.367 . S
C895 C903 1.433 . S
C896 H892 0.929 . S
C896 C898 1.378 . S
C896 C900 1.350 . S
C897 C900 1.463 . S
C897 C902 1.350 . S
C897 N905 1.427 . S
C898 H889 0.930 . S
C898 C896 1.378 . S
C898 C899 1.367 . S
C899 C898 1.367 . S
C899 C901 1.433 . S
C900 C896 1.350 . S
C900 C897 1.463 . S
C900 N904 1.427 . S
C901 H891 0.929 . S
C901 C899 1.433 . S
C901 N904 1.384 . S
C902 H893 0.929 . S
C902 C894 1.378 . S
C902 C897 1.350 . S
C903 H890 0.929 . S
C903 C895 1.433 . S
C903 N905 1.384 . S
N904 C900 1.427 . S
N904 C901 1.384 . S
N905 C897 1.427 . S
N905 C903 1.384 . S
H906 C912 0.930 . S
H907 C916 0.930 . S
H908 C921 0.929 . S
H909 C919 0.929 . S
H910 C914 0.929 . S
H911 C920 0.929 . S
C912 H906 0.930 . S
C912 C913 1.367 . S
C912 C920 1.378 . S
C913 C912 1.367 . S
C913 C921 1.433 . S
C914 H910 0.929 . S
C914 C916 1.378 . S
C914 C918 1.350 . S
C915 C918 1.463 . S
C915 C920 1.350 . S
C915 N923 1.427 . S
C916 H907 0.930 . S
C916 C914 1.378 . S
C916 C917 1.367 . S
C917 C916 1.367 . S
C917 C919 1.433 . S
C918 C914 1.350 . S
C918 C915 1.463 . S
C918 N922 1.427 . S
C919 H909 0.929 . S
C919 C917 1.433 . S
C919 N922 1.384 . S
C920 H911 0.929 . S
C920 C912 1.378 . S
C920 C915 1.350 . S
C921 H908 0.929 . S
C921 C913 1.433 . S
C921 N923 1.384 . S
N922 C918 1.427 . S
N922 C919 1.384 . S
N923 C915 1.427 . S
N923 C921 1.384 . S
H924 C930 0.930 . S
H925 C934 0.930 . S
H926 C939 0.929 . S
H927 C937 0.929 . S
H928 C932 0.929 . S
H929 C938 0.929 . S
C930 H924 0.930 . S
C930 C931 1.367 . S
C930 C938 1.378 . S
C931 C930 1.367 . S
C931 C939 1.433 . S
C932 H928 0.929 . S
C932 C934 1.378 . S
C932 C936 1.350 . S
C933 C936 1.463 . S
C933 C938 1.350 . S
C933 N941 1.427 . S
C934 H925 0.930 . S
C934 C932 1.378 . S
C934 C935 1.367 . S
C935 C934 1.367 . S
C935 C937 1.433 . S
C936 C932 1.350 . S
C936 C933 1.463 . S
C936 N940 1.427 . S
C937 H927 0.929 . S
C937 C935 1.433 . S
C937 N940 1.384 . S
C938 H929 0.929 . S
C938 C930 1.378 . S
C938 C933 1.350 . S
C939 H926 0.929 . S
C939 C931 1.433 . S
C939 N941 1.384 . S
N940 C936 1.427 . S
N940 C937 1.384 . S
N941 C933 1.427 . S
N941 C939 1.384 . S
H942 C948 0.930 . S
H943 C952 0.930 . S
H944 C957 0.929 . S
H945 C955 0.929 . S
H946 C950 0.929 . S
H947 C956 0.929 . S
C948 H942 0.930 . S
C948 C949 1.367 . S
C948 C956 1.378 . S
C949 C948 1.367 . S
C949 C957 1.433 . S
C950 H946 0.929 . S
C950 C952 1.378 . S
C950 C954 1.350 . S
C951 C954 1.463 . S
C951 C956 1.350 . S
C951 N959 1.427 . S
C952 H943 0.930 . S
C952 C950 1.378 . S
C952 C953 1.367 . S
C953 C952 1.367 . S
C953 C955 1.433 . S
C954 C950 1.350 . S
C954 C951 1.463 . S
C954 N958 1.427 . S
C955 H945 0.929 . S
C955 C953 1.433 . S
C955 N958 1.384 . S
C956 H947 0.929 . S
C956 C948 1.378 . S
C956 C951 1.350 . S
C957 H944 0.929 . S
C957 C949 1.433 . S
C957 N959 1.384 . S
N958 C954 1.427 . S
N958 C955 1.384 . S
N959 C951 1.427 . S
N959 C957 1.384 . S
H960 C966 0.930 . S
H961 C970 0.930 . S
H962 C975 0.929 . S
H963 C973 0.929 . S
H964 C968 0.929 . S
H965 C974 0.929 . S
C966 H960 0.930 . S
C966 C967 1.367 . S
C966 C974 1.378 . S
C967 C966 1.367 . S
C967 C975 1.433 . S
C968 H964 0.929 . S
C968 C970 1.378 . S
C968 C972 1.350 . S
C969 C972 1.463 1_455 S
C969 C974 1.350 . S
C969 N977 1.427 . S
C970 H961 0.930 . S
C970 C968 1.378 . S
C970 C971 1.367 . S
C971 C970 1.367 . S
C971 C973 1.433 . S
C972 C968 1.350 . S
C972 C969 1.463 1_655 S
C972 N976 1.427 . S
C973 H963 0.929 . S
C973 C971 1.433 . S
C973 N976 1.384 . S
C974 H965 0.929 . S
C974 C966 1.378 . S
C974 C969 1.350 . S
C975 H962 0.929 . S
C975 C967 1.433 . S
C975 N977 1.384 . S
N976 C972 1.427 . S
N976 C973 1.384 . S
N977 C969 1.427 . S
N977 C975 1.384 . S
H978 C984 0.930 . S
H979 C988 0.930 . S
H980 C993 0.929 . S
H981 C991 0.929 . S
H982 C986 0.929 . S
H983 C992 0.929 . S
C984 H978 0.930 . S
C984 C985 1.367 . S
C984 C992 1.378 . S
C985 C984 1.367 . S
C985 C993 1.433 . S
C986 H982 0.929 . S
C986 C988 1.378 . S
C986 C990 1.350 . S
C987 C990 1.463 . S
C987 C992 1.350 . S
C987 N995 1.427 . S
C988 H979 0.930 . S
C988 C986 1.378 . S
C988 C989 1.367 . S
C989 C988 1.367 . S
C989 C991 1.433 . S
C990 C986 1.350 . S
C990 C987 1.463 . S
C990 N994 1.427 . S
C991 H981 0.929 . S
C991 C989 1.433 . S
C991 N994 1.384 . S
C992 H983 0.929 . S
C992 C984 1.378 . S
C992 C987 1.350 . S
C993 H980 0.929 . S
C993 C985 1.433 . S
C993 N995 1.384 . S
N994 C990 1.427 . S
N994 C991 1.384 . S
N995 C987 1.427 . S
N995 C993 1.384 . S
H996 C1002 0.930 . S
H997 C1006 0.930 . S
H998 C1011 0.929 . S
H999 C1009 0.929 . S
H1000 C1004 0.929 . S
H1001 C1010 0.929 . S
C1002 H996 0.930 . S
C1002 C1003 1.367 . S
C1002 C1010 1.378 . S
C1003 C1002 1.367 . S
C1003 C1011 1.433 . S
C1004 H1000 0.929 . S
C1004 C1006 1.378 . S
C1004 C1008 1.350 . S
C1005 C1008 1.463 . S
C1005 C1010 1.350 . S
C1005 N1013 1.427 . S
C1006 H997 0.930 . S
C1006 C1004 1.378 . S
C1006 C1007 1.367 . S
C1007 C1006 1.367 . S
C1007 C1009 1.433 . S
C1008 C1004 1.350 . S
C1008 C1005 1.463 . S
C1008 N1012 1.427 . S
C1009 H999 0.929 . S
C1009 C1007 1.433 . S
C1009 N1012 1.384 . S
C1010 H1001 0.929 . S
C1010 C1002 1.378 . S
C1010 C1005 1.350 . S
C1011 H998 0.929 . S
C1011 C1003 1.433 . S
C1011 N1013 1.384 . S
N1012 C1008 1.427 . S
N1012 C1009 1.384 . S
N1013 C1005 1.427 . S
N1013 C1011 1.384 . S
H1014 C1020 0.930 . S
H1015 C1024 0.930 . S
H1016 C1029 0.929 . S
H1017 C1027 0.929 . S
H1018 C1022 0.929 . S
H1019 C1028 0.929 . S
C1020 H1014 0.930 . S
C1020 C1021 1.367 . S
C1020 C1028 1.378 . S
C1021 C1020 1.367 . S
C1021 C1029 1.433 . S
C1022 H1018 0.929 . S
C1022 C1024 1.378 . S
C1022 C1026 1.350 . S
C1023 C1026 1.463 1_565 S
C1023 C1028 1.350 . S
C1023 N1031 1.427 . S
C1024 H1015 0.930 . S
C1024 C1022 1.378 . S
C1024 C1025 1.367 . S
C1025 C1024 1.367 . S
C1025 C1027 1.433 . S
C1026 C1022 1.350 . S
C1026 C1023 1.463 1_545 S
C1026 N1030 1.427 . S
C1027 H1017 0.929 . S
C1027 C1025 1.433 . S
C1027 N1030 1.384 . S
C1028 H1019 0.929 . S
C1028 C1020 1.378 . S
C1028 C1023 1.350 . S
C1029 H1016 0.929 . S
C1029 C1021 1.433 . S
C1029 N1031 1.384 . S
N1030 C1026 1.427 . S
N1030 C1027 1.384 . S
N1031 C1023 1.427 . S
N1031 C1029 1.384 . S
H1032 C1038 0.930 . S
H1033 C1042 0.930 . S
H1034 C1047 0.929 . S
H1035 C1045 0.929 . S
H1036 C1040 0.929 . S
H1037 C1046 0.929 . S
C1038 H1032 0.930 . S
C1038 C1039 1.367 . S
C1038 C1046 1.378 . S
C1039 C1038 1.367 . S
C1039 C1047 1.433 . S
C1040 H1036 0.929 . S
C1040 C1042 1.378 . S
C1040 C1044 1.350 . S
C1041 C1044 1.463 1_655 S
C1041 C1046 1.350 . S
C1041 N1049 1.427 . S
C1042 H1033 0.930 . S
C1042 C1040 1.378 . S
C1042 C1043 1.367 . S
C1043 C1042 1.367 . S
C1043 C1045 1.433 . S
C1044 C1040 1.350 . S
C1044 C1041 1.463 1_455 S
C1044 N1048 1.427 . S
C1045 H1035 0.929 . S
C1045 C1043 1.433 . S
C1045 N1048 1.384 . S
C1046 H1037 0.929 . S
C1046 C1038 1.378 . S
C1046 C1041 1.350 . S
C1047 H1034 0.929 . S
C1047 C1039 1.433 . S
C1047 N1049 1.384 . S
N1048 C1044 1.427 . S
N1048 C1045 1.384 . S
N1049 C1041 1.427 . S
N1049 C1047 1.384 . S
H1050 C1056 0.930 . S
H1051 C1060 0.930 . S
H1052 C1065 0.929 . S
H1053 C1063 0.929 . S
H1054 C1058 0.929 . S
H1055 C1064 0.929 . S
C1056 H1050 0.930 . S
C1056 C1057 1.367 . S
C1056 C1064 1.378 . S
C1057 C1056 1.367 . S
C1057 C1065 1.433 . S
C1058 H1054 0.929 . S
C1058 C1060 1.378 . S
C1058 C1062 1.350 . S
C1059 C1062 1.463 . S
C1059 C1064 1.350 . S
C1059 N1067 1.427 . S
C1060 H1051 0.930 . S
C1060 C1058 1.378 . S
C1060 C1061 1.367 . S
C1061 C1060 1.367 . S
C1061 C1063 1.433 . S
C1062 C1058 1.350 . S
C1062 C1059 1.463 . S
C1062 N1066 1.427 . S
C1063 H1053 0.929 . S
C1063 C1061 1.433 . S
C1063 N1066 1.384 . S
C1064 H1055 0.929 . S
C1064 C1056 1.378 . S
C1064 C1059 1.350 . S
C1065 H1052 0.929 . S
C1065 C1057 1.433 . S
C1065 N1067 1.384 . S
N1066 C1062 1.427 . S
N1066 C1063 1.384 . S
N1067 C1059 1.427 . S
N1067 C1065 1.384 . S
H1068 C1074 0.930 . S
H1069 C1078 0.930 . S
H1070 C1083 0.929 . S
H1071 C1081 0.929 . S
H1072 C1076 0.929 . S
H1073 C1082 0.929 . S
C1074 H1068 0.930 . S
C1074 C1075 1.367 . S
C1074 C1082 1.378 . S
C1075 C1074 1.367 . S
C1075 C1083 1.433 . S
C1076 H1072 0.929 . S
C1076 C1078 1.378 . S
C1076 C1080 1.350 . S
C1077 C1080 1.463 . S
C1077 C1082 1.350 . S
C1077 N1085 1.427 . S
C1078 H1069 0.930 . S
C1078 C1076 1.378 . S
C1078 C1079 1.367 . S
C1079 C1078 1.367 . S
C1079 C1081 1.433 . S
C1080 C1076 1.350 . S
C1080 C1077 1.463 . S
C1080 N1084 1.427 . S
C1081 H1071 0.929 . S
C1081 C1079 1.433 . S
C1081 N1084 1.384 . S
C1082 H1073 0.929 . S
C1082 C1074 1.378 . S
C1082 C1077 1.350 . S
C1083 H1070 0.929 . S
C1083 C1075 1.433 . S
C1083 N1085 1.384 . S
N1084 C1080 1.427 . S
N1084 C1081 1.384 . S
N1085 C1077 1.427 . S
N1085 C1083 1.384 . S
H1086 C1092 0.930 . S
H1087 C1096 0.930 . S
H1088 C1101 0.929 . S
H1089 C1099 0.929 . S
H1090 C1094 0.929 . S
H1091 C1100 0.929 . S
C1092 H1086 0.930 . S
C1092 C1093 1.367 . S
C1092 C1100 1.378 . S
C1093 C1092 1.367 . S
C1093 C1101 1.433 . S
C1094 H1090 0.929 . S
C1094 C1096 1.378 . S
C1094 C1098 1.350 . S
C1095 C1098 1.463 1_545 S
C1095 C1100 1.350 . S
C1095 N1103 1.427 . S
C1096 H1087 0.930 . S
C1096 C1094 1.378 . S
C1096 C1097 1.367 . S
C1097 C1096 1.367 . S
C1097 C1099 1.433 . S
C1098 C1094 1.350 . S
C1098 C1095 1.463 1_565 S
C1098 N1102 1.427 . S
C1099 H1089 0.929 . S
C1099 C1097 1.433 . S
C1099 N1102 1.384 . S
C1100 H1091 0.929 . S
C1100 C1092 1.378 . S
C1100 C1095 1.350 . S
C1101 H1088 0.929 . S
C1101 C1093 1.433 . S
C1101 N1103 1.384 . S
N1102 C1098 1.427 . S
N1102 C1099 1.384 . S
N1103 C1095 1.427 . S
N1103 C1101 1.384 . S
H1104 C1110 0.930 . S
H1105 C1114 0.930 . S
H1106 C1119 0.929 . S
H1107 C1117 0.929 . S
H1108 C1112 0.929 . S
H1109 C1118 0.929 . S
C1110 H1104 0.930 . S
C1110 C1111 1.367 . S
C1110 C1118 1.378 . S
C1111 C1110 1.367 . S
C1111 C1119 1.433 . S
C1112 H1108 0.929 . S
C1112 C1114 1.378 . S
C1112 C1116 1.350 . S
C1113 C1116 1.463 1_554 S
C1113 C1118 1.350 . S
C1113 N1121 1.427 . S
C1114 H1105 0.930 . S
C1114 C1112 1.378 . S
C1114 C1115 1.367 . S
C1115 C1114 1.367 . S
C1115 C1117 1.433 . S
C1116 C1112 1.350 . S
C1116 C1113 1.463 1_556 S
C1116 N1120 1.427 . S
C1117 H1107 0.929 . S
C1117 C1115 1.433 . S
C1117 N1120 1.384 . S
C1118 H1109 0.929 . S
C1118 C1110 1.378 . S
C1118 C1113 1.350 . S
C1119 H1106 0.929 . S
C1119 C1111 1.433 . S
C1119 N1121 1.384 . S
N1120 C1116 1.427 . S
N1120 C1117 1.384 . S
N1121 C1113 1.427 . S
N1121 C1119 1.384 . S
H1122 C1128 0.930 . S
H1123 C1132 0.930 . S
H1124 C1137 0.929 . S
H1125 C1135 0.929 . S
H1126 C1130 0.929 . S
H1127 C1136 0.929 . S
C1128 H1122 0.930 . S
C1128 C1129 1.367 . S
C1128 C1136 1.378 . S
C1129 C1128 1.367 . S
C1129 C1137 1.433 . S
C1130 H1126 0.929 . S
C1130 C1132 1.378 . S
C1130 C1134 1.350 . S
C1131 C1134 1.463 . S
C1131 C1136 1.350 . S
C1131 N1139 1.427 . S
C1132 H1123 0.930 . S
C1132 C1130 1.378 . S
C1132 C1133 1.367 . S
C1133 C1132 1.367 . S
C1133 C1135 1.433 . S
C1134 C1130 1.350 . S
C1134 C1131 1.463 . S
C1134 N1138 1.427 . S
C1135 H1125 0.929 . S
C1135 C1133 1.433 . S
C1135 N1138 1.384 . S
C1136 H1127 0.929 . S
C1136 C1128 1.378 . S
C1136 C1131 1.350 . S
C1137 H1124 0.929 . S
C1137 C1129 1.433 . S
C1137 N1139 1.384 . S
N1138 C1134 1.427 . S
N1138 C1135 1.384 . S
N1139 C1131 1.427 . S
N1139 C1137 1.384 . S
H1140 C1146 0.930 . S
H1141 C1150 0.930 . S
H1142 C1155 0.929 . S
H1143 C1153 0.929 . S
H1144 C1148 0.929 . S
H1145 C1154 0.929 . S
C1146 H1140 0.930 . S
C1146 C1147 1.367 . S
C1146 C1154 1.378 . S
C1147 C1146 1.367 . S
C1147 C1155 1.433 . S
C1148 H1144 0.929 . S
C1148 C1150 1.378 . S
C1148 C1152 1.350 . S
C1149 C1152 1.463 . S
C1149 C1154 1.350 . S
C1149 N1157 1.427 . S
C1150 H1141 0.930 . S
C1150 C1148 1.378 . S
C1150 C1151 1.367 . S
C1151 C1150 1.367 . S
C1151 C1153 1.433 . S
C1152 C1148 1.350 . S
C1152 C1149 1.463 . S
C1152 N1156 1.427 . S
C1153 H1143 0.929 . S
C1153 C1151 1.433 . S
C1153 N1156 1.384 . S
C1154 H1145 0.929 . S
C1154 C1146 1.378 . S
C1154 C1149 1.350 . S
C1155 H1142 0.929 . S
C1155 C1147 1.433 . S
C1155 N1157 1.384 . S
N1156 C1152 1.427 . S
N1156 C1153 1.384 . S
N1157 C1149 1.427 . S
N1157 C1155 1.384 . S
H1158 C1164 0.930 . S
H1159 C1168 0.930 . S
H1160 C1173 0.929 . S
H1161 C1171 0.929 . S
H1162 C1166 0.929 . S
H1163 C1172 0.929 . S
C1164 H1158 0.930 . S
C1164 C1165 1.367 . S
C1164 C1172 1.378 . S
C1165 C1164 1.367 . S
C1165 C1173 1.433 . S
C1166 H1162 0.929 . S
C1166 C1168 1.378 . S
C1166 C1170 1.350 . S
C1167 C1170 1.463 1_556 S
C1167 C1172 1.350 . S
C1167 N1175 1.427 . S
C1168 H1159 0.930 . S
C1168 C1166 1.378 . S
C1168 C1169 1.367 . S
C1169 C1168 1.367 . S
C1169 C1171 1.433 . S
C1170 C1166 1.350 . S
C1170 C1167 1.463 1_554 S
C1170 N1174 1.427 . S
C1171 H1161 0.929 . S
C1171 C1169 1.433 . S
C1171 N1174 1.384 . S
C1172 H1163 0.929 . S
C1172 C1164 1.378 . S
C1172 C1167 1.350 . S
C1173 H1160 0.929 . S
C1173 C1165 1.433 . S
C1173 N1175 1.384 . S
N1174 C1170 1.427 . S
N1174 C1171 1.384 . S
N1175 C1167 1.427 . S
N1175 C1173 1.384 . S
H1176 C1182 0.930 . S
H1177 C1186 0.930 . S
H1178 C1191 0.929 . S
H1179 C1189 0.929 . S
H1180 C1184 0.929 . S
H1181 C1190 0.929 . S
C1182 H1176 0.930 . S
C1182 C1183 1.367 . S
C1182 C1190 1.378 . S
C1183 C1182 1.367 . S
C1183 C1191 1.433 . S
C1184 H1180 0.929 . S
C1184 C1186 1.378 . S
C1184 C1188 1.350 . S
C1185 C1188 1.463 1_655 S
C1185 C1190 1.350 . S
C1185 N1193 1.427 . S
C1186 H1177 0.930 . S
C1186 C1184 1.378 . S
C1186 C1187 1.367 . S
C1187 C1186 1.367 . S
C1187 C1189 1.433 . S
C1188 C1184 1.350 . S
C1188 C1185 1.463 1_455 S
C1188 N1192 1.427 . S
C1189 H1179 0.929 . S
C1189 C1187 1.433 . S
C1189 N1192 1.384 . S
C1190 H1181 0.929 . S
C1190 C1182 1.378 . S
C1190 C1185 1.350 . S
C1191 H1178 0.929 . S
C1191 C1183 1.433 . S
C1191 N1193 1.384 . S
N1192 C1188 1.427 . S
N1192 C1189 1.384 . S
N1193 C1185 1.427 . S
N1193 C1191 1.384 . S
H1194 C1200 0.930 . S
H1195 C1204 0.930 . S
H1196 C1209 0.929 . S
H1197 C1207 0.929 . S
H1198 C1202 0.929 . S
H1199 C1208 0.929 . S
C1200 H1194 0.930 . S
C1200 C1201 1.367 . S
C1200 C1208 1.378 . S
C1201 C1200 1.367 . S
C1201 C1209 1.433 . S
C1202 H1198 0.929 . S
C1202 C1204 1.378 . S
C1202 C1206 1.350 . S
C1203 C1206 1.463 . S
C1203 C1208 1.350 . S
C1203 N1211 1.427 . S
C1204 H1195 0.930 . S
C1204 C1202 1.378 . S
C1204 C1205 1.367 . S
C1205 C1204 1.367 . S
C1205 C1207 1.433 . S
C1206 C1202 1.350 . S
C1206 C1203 1.463 . S
C1206 N1210 1.427 . S
C1207 H1197 0.929 . S
C1207 C1205 1.433 . S
C1207 N1210 1.384 . S
C1208 H1199 0.929 . S
C1208 C1200 1.378 . S
C1208 C1203 1.350 . S
C1209 H1196 0.929 . S
C1209 C1201 1.433 . S
C1209 N1211 1.384 . S
N1210 C1206 1.427 . S
N1210 C1207 1.384 . S
N1211 C1203 1.427 . S
N1211 C1209 1.384 . S
H1212 C1218 0.930 . S
H1213 C1222 0.930 . S
H1214 C1227 0.929 . S
H1215 C1225 0.929 . S
H1216 C1220 0.929 . S
H1217 C1226 0.929 . S
C1218 H1212 0.930 . S
C1218 C1219 1.367 . S
C1218 C1226 1.378 . S
C1219 C1218 1.367 . S
C1219 C1227 1.433 . S
C1220 H1216 0.929 . S
C1220 C1222 1.378 . S
C1220 C1224 1.350 . S
C1221 C1224 1.463 . S
C1221 C1226 1.350 . S
C1221 N1229 1.427 . S
C1222 H1213 0.930 . S
C1222 C1220 1.378 . S
C1222 C1223 1.367 . S
C1223 C1222 1.367 . S
C1223 C1225 1.433 . S
C1224 C1220 1.350 . S
C1224 C1221 1.463 . S
C1224 N1228 1.427 . S
C1225 H1215 0.929 . S
C1225 C1223 1.433 . S
C1225 N1228 1.384 . S
C1226 H1217 0.929 . S
C1226 C1218 1.378 . S
C1226 C1221 1.350 . S
C1227 H1214 0.929 . S
C1227 C1219 1.433 . S
C1227 N1229 1.384 . S
N1228 C1224 1.427 . S
N1228 C1225 1.384 . S
N1229 C1221 1.427 . S
N1229 C1227 1.384 . S
H1230 C1236 0.930 . S
H1231 C1240 0.930 . S
H1232 C1245 0.929 . S
H1233 C1243 0.929 . S
H1234 C1238 0.929 . S
H1235 C1244 0.929 . S
C1236 H1230 0.930 . S
C1236 C1237 1.367 . S
C1236 C1244 1.378 . S
C1237 C1236 1.367 . S
C1237 C1245 1.433 . S
C1238 H1234 0.929 . S
C1238 C1240 1.378 . S
C1238 C1242 1.350 . S
C1239 C1242 1.463 1_565 S
C1239 C1244 1.350 . S
C1239 N1247 1.427 . S
C1240 H1231 0.930 . S
C1240 C1238 1.378 . S
C1240 C1241 1.367 . S
C1241 C1240 1.367 . S
C1241 C1243 1.433 . S
C1242 C1238 1.350 . S
C1242 C1239 1.463 1_545 S
C1242 N1246 1.427 . S
C1243 H1233 0.929 . S
C1243 C1241 1.433 . S
C1243 N1246 1.384 . S
C1244 H1235 0.929 . S
C1244 C1236 1.378 . S
C1244 C1239 1.350 . S
C1245 H1232 0.929 . S
C1245 C1237 1.433 . S
C1245 N1247 1.384 . S
N1246 C1242 1.427 . S
N1246 C1243 1.384 . S
N1247 C1239 1.427 . S
N1247 C1245 1.384 . S
H1248 C1254 0.930 . S
H1249 C1258 0.930 . S
H1250 C1263 0.929 . S
H1251 C1261 0.929 . S
H1252 C1256 0.929 . S
H1253 C1262 0.929 . S
C1254 H1248 0.930 . S
C1254 C1255 1.367 . S
C1254 C1262 1.378 . S
C1255 C1254 1.367 . S
C1255 C1263 1.433 . S
C1256 H1252 0.929 . S
C1256 C1258 1.378 . S
C1256 C1260 1.350 . S
C1257 C1260 1.463 1_655 S
C1257 C1262 1.350 . S
C1257 N1265 1.427 . S
C1258 H1249 0.930 . S
C1258 C1256 1.378 . S
C1258 C1259 1.367 . S
C1259 C1258 1.367 . S
C1259 C1261 1.433 . S
C1260 C1256 1.350 . S
C1260 C1257 1.463 1_455 S
C1260 N1264 1.427 . S
C1261 H1251 0.929 . S
C1261 C1259 1.433 . S
C1261 N1264 1.384 . S
C1262 H1253 0.929 . S
C1262 C1254 1.378 . S
C1262 C1257 1.350 . S
C1263 H1250 0.929 . S
C1263 C1255 1.433 . S
C1263 N1265 1.384 . S
N1264 C1260 1.427 . S
N1264 C1261 1.384 . S
N1265 C1257 1.427 . S
N1265 C1263 1.384 . S
H1266 C1272 0.930 . S
H1267 C1276 0.930 . S
H1268 C1281 0.929 . S
H1269 C1279 0.929 . S
H1270 C1274 0.929 . S
H1271 C1280 0.929 . S
C1272 H1266 0.930 . S
C1272 C1273 1.367 . S
C1272 C1280 1.378 . S
C1273 C1272 1.367 . S
C1273 C1281 1.433 . S
C1274 H1270 0.929 . S
C1274 C1276 1.378 . S
C1274 C1278 1.350 . S
C1275 C1278 1.463 . S
C1275 C1280 1.350 . S
C1275 N1283 1.427 . S
C1276 H1267 0.930 . S
C1276 C1274 1.378 . S
C1276 C1277 1.367 . S
C1277 C1276 1.367 . S
C1277 C1279 1.433 . S
C1278 C1274 1.350 . S
C1278 C1275 1.463 . S
C1278 N1282 1.427 . S
C1279 H1269 0.929 . S
C1279 C1277 1.433 . S
C1279 N1282 1.384 . S
C1280 H1271 0.929 . S
C1280 C1272 1.378 . S
C1280 C1275 1.350 . S
C1281 H1268 0.929 . S
C1281 C1273 1.433 . S
C1281 N1283 1.384 . S
N1282 C1278 1.427 . S
N1282 C1279 1.384 . S
N1283 C1275 1.427 . S
N1283 C1281 1.384 . S
H1284 C1290 0.930 . S
H1285 C1294 0.930 . S
H1286 C1299 0.929 . S
H1287 C1297 0.929 . S
H1288 C1292 0.929 . S
H1289 C1298 0.929 . S
C1290 H1284 0.930 . S
C1290 C1291 1.367 . S
C1290 C1298 1.378 . S
C1291 C1290 1.367 . S
C1291 C1299 1.433 . S
C1292 H1288 0.929 . S
C1292 C1294 1.378 . S
C1292 C1296 1.350 . S
C1293 C1296 1.463 . S
C1293 C1298 1.350 . S
C1293 N1301 1.427 . S
C1294 H1285 0.930 . S
C1294 C1292 1.378 . S
C1294 C1295 1.367 . S
C1295 C1294 1.367 . S
C1295 C1297 1.433 . S
C1296 C1292 1.350 . S
C1296 C1293 1.463 . S
C1296 N1300 1.427 . S
C1297 H1287 0.929 . S
C1297 C1295 1.433 . S
C1297 N1300 1.384 . S
C1298 H1289 0.929 . S
C1298 C1290 1.378 . S
C1298 C1293 1.350 . S
C1299 H1286 0.929 . S
C1299 C1291 1.433 . S
C1299 N1301 1.384 . S
N1300 C1296 1.427 . S
N1300 C1297 1.384 . S
N1301 C1293 1.427 . S
N1301 C1299 1.384 . S
H1302 C1308 0.930 . S
H1303 C1312 0.930 . S
H1304 C1317 0.929 . S
H1305 C1315 0.929 . S
H1306 C1310 0.929 . S
H1307 C1316 0.929 . S
C1308 H1302 0.930 . S
C1308 C1309 1.367 . S
C1308 C1316 1.378 . S
C1309 C1308 1.367 . S
C1309 C1317 1.433 . S
C1310 H1306 0.929 . S
C1310 C1312 1.378 . S
C1310 C1314 1.350 . S
C1311 C1314 1.463 1_545 S
C1311 C1316 1.350 . S
C1311 N1319 1.427 . S
C1312 H1303 0.930 . S
C1312 C1310 1.378 . S
C1312 C1313 1.367 . S
C1313 C1312 1.367 . S
C1313 C1315 1.433 . S
C1314 C1310 1.350 . S
C1314 C1311 1.463 1_565 S
C1314 N1318 1.427 . S
C1315 H1305 0.929 . S
C1315 C1313 1.433 . S
C1315 N1318 1.384 . S
C1316 H1307 0.929 . S
C1316 C1308 1.378 . S
C1316 C1311 1.350 . S
C1317 H1304 0.929 . S
C1317 C1309 1.433 . S
C1317 N1319 1.384 . S
N1318 C1314 1.427 . S
N1318 C1315 1.384 . S
N1319 C1311 1.427 . S
N1319 C1317 1.384 . S
H1320 C1326 0.930 . S
H1321 C1330 0.930 . S
H1322 C1335 0.929 . S
H1323 C1333 0.929 . S
H1324 C1328 0.929 . S
H1325 C1334 0.929 . S
C1326 H1320 0.930 . S
C1326 C1327 1.367 . S
C1326 C1334 1.378 . S
C1327 C1326 1.367 . S
C1327 C1335 1.433 . S
C1328 H1324 0.929 . S
C1328 C1330 1.378 . S
C1328 C1332 1.350 . S
C1329 C1332 1.463 1_554 S
C1329 C1334 1.350 . S
C1329 N1337 1.427 . S
C1330 H1321 0.930 . S
C1330 C1328 1.378 . S
C1330 C1331 1.367 . S
C1331 C1330 1.367 . S
C1331 C1333 1.433 . S
C1332 C1328 1.350 . S
C1332 C1329 1.463 1_556 S
C1332 N1336 1.427 . S
C1333 H1323 0.929 . S
C1333 C1331 1.433 . S
C1333 N1336 1.384 . S
C1334 H1325 0.929 . S
C1334 C1326 1.378 . S
C1334 C1329 1.350 . S
C1335 H1322 0.929 . S
C1335 C1327 1.433 . S
C1335 N1337 1.384 . S
N1336 C1332 1.427 . S
N1336 C1333 1.384 . S
N1337 C1329 1.427 . S
N1337 C1335 1.384 . S
H1338 C1344 0.930 . S
H1339 C1348 0.930 . S
H1340 C1353 0.929 . S
H1341 C1351 0.929 . S
H1342 C1346 0.929 . S
H1343 C1352 0.929 . S
C1344 H1338 0.930 . S
C1344 C1345 1.367 . S
C1344 C1352 1.378 . S
C1345 C1344 1.367 . S
C1345 C1353 1.433 . S
C1346 H1342 0.929 . S
C1346 C1348 1.378 . S
C1346 C1350 1.350 . S
C1347 C1350 1.463 . S
C1347 C1352 1.350 . S
C1347 N1355 1.427 . S
C1348 H1339 0.930 . S
C1348 C1346 1.378 . S
C1348 C1349 1.367 . S
C1349 C1348 1.367 . S
C1349 C1351 1.433 . S
C1350 C1346 1.350 . S
C1350 C1347 1.463 . S
C1350 N1354 1.427 . S
C1351 H1341 0.929 . S
C1351 C1349 1.433 . S
C1351 N1354 1.384 . S
C1352 H1343 0.929 . S
C1352 C1344 1.378 . S
C1352 C1347 1.350 . S
C1353 H1340 0.929 . S
C1353 C1345 1.433 . S
C1353 N1355 1.384 . S
N1354 C1350 1.427 . S
N1354 C1351 1.384 . S
N1355 C1347 1.427 . S
N1355 C1353 1.384 . S
H1356 C1362 0.930 . S
H1357 C1366 0.930 . S
H1358 C1371 0.929 . S
H1359 C1369 0.929 . S
H1360 C1364 0.929 . S
H1361 C1370 0.929 . S
C1362 H1356 0.930 . S
C1362 C1363 1.367 . S
C1362 C1370 1.378 . S
C1363 C1362 1.367 . S
C1363 C1371 1.433 . S
C1364 H1360 0.929 . S
C1364 C1366 1.378 . S
C1364 C1368 1.350 . S
C1365 C1368 1.463 . S
C1365 C1370 1.350 . S
C1365 N1373 1.427 . S
C1366 H1357 0.930 . S
C1366 C1364 1.378 . S
C1366 C1367 1.367 . S
C1367 C1366 1.367 . S
C1367 C1369 1.433 . S
C1368 C1364 1.350 . S
C1368 C1365 1.463 . S
C1368 N1372 1.427 . S
C1369 H1359 0.929 . S
C1369 C1367 1.433 . S
C1369 N1372 1.384 . S
C1370 H1361 0.929 . S
C1370 C1362 1.378 . S
C1370 C1365 1.350 . S
C1371 H1358 0.929 . S
C1371 C1363 1.433 . S
C1371 N1373 1.384 . S
N1372 C1368 1.427 . S
N1372 C1369 1.384 . S
N1373 C1365 1.427 . S
N1373 C1371 1.384 . S
H1374 C1380 0.930 . S
H1375 C1384 0.930 . S
H1376 C1389 0.929 . S
H1377 C1387 0.929 . S
H1378 C1382 0.929 . S
H1379 C1388 0.929 . S
C1380 H1374 0.930 . S
C1380 C1381 1.367 . S
C1380 C1388 1.378 . S
C1381 C1380 1.367 . S
C1381 C1389 1.433 . S
C1382 H1378 0.929 . S
C1382 C1384 1.378 . S
C1382 C1386 1.350 . S
C1383 C1386 1.463 1_554 S
C1383 C1388 1.350 . S
C1383 N1391 1.427 . S
C1384 H1375 0.930 . S
C1384 C1382 1.378 . S
C1384 C1385 1.367 . S
C1385 C1384 1.367 . S
C1385 C1387 1.433 . S
C1386 C1382 1.350 . S
C1386 C1383 1.463 1_556 S
C1386 N1390 1.427 . S
C1387 H1377 0.929 . S
C1387 C1385 1.433 . S
C1387 N1390 1.384 . S
C1388 H1379 0.929 . S
C1388 C1380 1.378 . S
C1388 C1383 1.350 . S
C1389 H1376 0.929 . S
C1389 C1381 1.433 . S
C1389 N1391 1.384 . S
N1390 C1386 1.427 . S
N1390 C1387 1.384 . S
N1391 C1383 1.427 . S
N1391 C1389 1.384 . S
H1392 C1398 0.930 . S
H1393 C1402 0.930 . S
H1394 C1407 0.929 . S
H1395 C1405 0.929 . S
H1396 C1400 0.929 . S
H1397 C1406 0.929 . S
C1398 H1392 0.930 . S
C1398 C1399 1.367 . S
C1398 C1406 1.378 . S
C1399 C1398 1.367 . S
C1399 C1407 1.433 . S
C1400 H1396 0.929 . S
C1400 C1402 1.378 . S
C1400 C1404 1.350 . S
C1401 C1404 1.463 . S
C1401 C1406 1.350 . S
C1401 N1409 1.427 . S
C1402 H1393 0.930 . S
C1402 C1400 1.378 . S
C1402 C1403 1.367 . S
C1403 C1402 1.367 . S
C1403 C1405 1.433 . S
C1404 C1400 1.350 . S
C1404 C1401 1.463 . S
C1404 N1408 1.427 . S
C1405 H1395 0.929 . S
C1405 C1403 1.433 . S
C1405 N1408 1.384 . S
C1406 H1397 0.929 . S
C1406 C1398 1.378 . S
C1406 C1401 1.350 . S
C1407 H1394 0.929 . S
C1407 C1399 1.433 . S
C1407 N1409 1.384 . S
N1408 C1404 1.427 . S
N1408 C1405 1.384 . S
N1409 C1401 1.427 . S
N1409 C1407 1.384 . S
H1410 C1416 0.930 . S
H1411 C1420 0.930 . S
H1412 C1425 0.929 . S
H1413 C1423 0.929 . S
H1414 C1418 0.929 . S
H1415 C1424 0.929 . S
C1416 H1410 0.930 . S
C1416 C1417 1.367 . S
C1416 C1424 1.378 . S
C1417 C1416 1.367 . S
C1417 C1425 1.433 . S
C1418 H1414 0.929 . S
C1418 C1420 1.378 . S
C1418 C1422 1.350 . S
C1419 C1422 1.463 . S
C1419 C1424 1.350 . S
C1419 N1427 1.427 . S
C1420 H1411 0.930 . S
C1420 C1418 1.378 . S
C1420 C1421 1.367 . S
C1421 C1420 1.367 . S
C1421 C1423 1.433 . S
C1422 C1418 1.350 . S
C1422 C1419 1.463 . S
C1422 N1426 1.427 . S
C1423 H1413 0.929 . S
C1423 C1421 1.433 . S
C1423 N1426 1.384 . S
C1424 H1415 0.929 . S
C1424 C1416 1.378 . S
C1424 C1419 1.350 . S
C1425 H1412 0.929 . S
C1425 C1417 1.433 . S
C1425 N1427 1.384 . S
N1426 C1422 1.427 . S
N1426 C1423 1.384 . S
N1427 C1419 1.427 . S
N1427 C1425 1.384 . S
H1428 C1434 0.930 . S
H1429 C1438 0.930 . S
H1430 C1443 0.929 . S
H1431 C1441 0.929 . S
H1432 C1436 0.929 . S
H1433 C1442 0.929 . S
C1434 H1428 0.930 . S
C1434 C1435 1.367 . S
C1434 C1442 1.378 . S
C1435 C1434 1.367 . S
C1435 C1443 1.433 . S
C1436 H1432 0.929 . S
C1436 C1438 1.378 . S
C1436 C1440 1.350 . S
C1437 C1440 1.463 . S
C1437 C1442 1.350 . S
C1437 N1445 1.427 . S
C1438 H1429 0.930 . S
C1438 C1436 1.378 . S
C1438 C1439 1.367 . S
C1439 C1438 1.367 . S
C1439 C1441 1.433 . S
C1440 C1436 1.350 . S
C1440 C1437 1.463 . S
C1440 N1444 1.427 . S
C1441 H1431 0.929 . S
C1441 C1439 1.433 . S
C1441 N1444 1.384 . S
C1442 H1433 0.929 . S
C1442 C1434 1.378 . S
C1442 C1437 1.350 . S
C1443 H1430 0.929 . S
C1443 C1435 1.433 . S
C1443 N1445 1.384 . S
N1444 C1440 1.427 . S
N1444 C1441 1.384 . S
N1445 C1437 1.427 . S
N1445 C1443 1.384 . S
H1446 C1452 0.930 . S
H1447 C1456 0.930 . S
H1448 C1461 0.929 . S
H1449 C1459 0.929 . S
H1450 C1454 0.929 . S
H1451 C1460 0.929 . S
C1452 H1446 0.930 . S
C1452 C1453 1.367 . S
C1452 C1460 1.378 . S
C1453 C1452 1.367 . S
C1453 C1461 1.433 . S
C1454 H1450 0.929 . S
C1454 C1456 1.378 . S
C1454 C1458 1.350 . S
C1455 C1458 1.463 . S
C1455 C1460 1.350 . S
C1455 N1463 1.427 . S
C1456 H1447 0.930 . S
C1456 C1454 1.378 . S
C1456 C1457 1.367 . S
C1457 C1456 1.367 . S
C1457 C1459 1.433 . S
C1458 C1454 1.350 . S
C1458 C1455 1.463 . S
C1458 N1462 1.427 . S
C1459 H1449 0.929 . S
C1459 C1457 1.433 . S
C1459 N1462 1.384 . S
C1460 H1451 0.929 . S
C1460 C1452 1.378 . S
C1460 C1455 1.350 . S
C1461 H1448 0.929 . S
C1461 C1453 1.433 . S
C1461 N1463 1.384 . S
N1462 C1458 1.427 . S
N1462 C1459 1.384 . S
N1463 C1455 1.427 . S
N1463 C1461 1.384 . S
H1464 C1470 0.930 . S
H1465 C1474 0.930 . S
H1466 C1479 0.929 . S
H1467 C1477 0.929 . S
H1468 C1472 0.929 . S
H1469 C1478 0.929 . S
C1470 H1464 0.930 . S
C1470 C1471 1.367 . S
C1470 C1478 1.378 . S
C1471 C1470 1.367 . S
C1471 C1479 1.433 . S
C1472 H1468 0.929 . S
C1472 C1474 1.378 . S
C1472 C1476 1.350 . S
C1473 C1476 1.463 . S
C1473 C1478 1.350 . S
C1473 N1481 1.427 . S
C1474 H1465 0.930 . S
C1474 C1472 1.378 . S
C1474 C1475 1.367 . S
C1475 C1474 1.367 . S
C1475 C1477 1.433 . S
C1476 C1472 1.350 . S
C1476 C1473 1.463 . S
C1476 N1480 1.427 . S
C1477 H1467 0.929 . S
C1477 C1475 1.433 . S
C1477 N1480 1.384 . S
C1478 H1469 0.929 . S
C1478 C1470 1.378 . S
C1478 C1473 1.350 . S
C1479 H1466 0.929 . S
C1479 C1471 1.433 . S
C1479 N1481 1.384 . S
N1480 C1476 1.427 . S
N1480 C1477 1.384 . S
N1481 C1473 1.427 . S
N1481 C1479 1.384 . S
H1482 C1488 0.930 . S
H1483 C1492 0.930 . S
H1484 C1497 0.929 . S
H1485 C1495 0.929 . S
H1486 C1490 0.929 . S
H1487 C1496 0.929 . S
C1488 H1482 0.930 . S
C1488 C1489 1.367 . S
C1488 C1496 1.378 . S
C1489 C1488 1.367 . S
C1489 C1497 1.433 . S
C1490 H1486 0.929 . S
C1490 C1492 1.378 . S
C1490 C1494 1.350 . S
C1491 C1494 1.463 . S
C1491 C1496 1.350 . S
C1491 N1499 1.427 . S
C1492 H1483 0.930 . S
C1492 C1490 1.378 . S
C1492 C1493 1.367 . S
C1493 C1492 1.367 . S
C1493 C1495 1.433 . S
C1494 C1490 1.350 . S
C1494 C1491 1.463 . S
C1494 N1498 1.427 . S
C1495 H1485 0.929 . S
C1495 C1493 1.433 . S
C1495 N1498 1.384 . S
C1496 H1487 0.929 . S
C1496 C1488 1.378 . S
C1496 C1491 1.350 . S
C1497 H1484 0.929 . S
C1497 C1489 1.433 . S
C1497 N1499 1.384 . S
N1498 C1494 1.427 . S
N1498 C1495 1.384 . S
N1499 C1491 1.427 . S
N1499 C1497 1.384 . S
H1500 C1506 0.930 . S
H1501 C1510 0.930 . S
H1502 C1515 0.929 . S
H1503 C1513 0.929 . S
H1504 C1508 0.929 . S
H1505 C1514 0.929 . S
C1506 H1500 0.930 . S
C1506 C1507 1.367 . S
C1506 C1514 1.378 . S
C1507 C1506 1.367 . S
C1507 C1515 1.433 . S
C1508 H1504 0.929 . S
C1508 C1510 1.378 . S
C1508 C1512 1.350 . S
C1509 C1512 1.463 . S
C1509 C1514 1.350 . S
C1509 N1517 1.427 . S
C1510 H1501 0.930 . S
C1510 C1508 1.378 . S
C1510 C1511 1.367 . S
C1511 C1510 1.367 . S
C1511 C1513 1.433 . S
C1512 C1508 1.350 . S
C1512 C1509 1.463 . S
C1512 N1516 1.427 . S
C1513 H1503 0.929 . S
C1513 C1511 1.433 . S
C1513 N1516 1.384 . S
C1514 H1505 0.929 . S
C1514 C1506 1.378 . S
C1514 C1509 1.350 . S
C1515 H1502 0.929 . S
C1515 C1507 1.433 . S
C1515 N1517 1.384 . S
N1516 C1512 1.427 . S
N1516 C1513 1.384 . S
N1517 C1509 1.427 . S
N1517 C1515 1.384 . S
H1518 C1524 0.930 . S
H1519 C1528 0.930 . S
H1520 C1533 0.929 . S
H1521 C1531 0.929 . S
H1522 C1526 0.929 . S
H1523 C1532 0.929 . S
C1524 H1518 0.930 . S
C1524 C1525 1.367 . S
C1524 C1532 1.378 . S
C1525 C1524 1.367 . S
C1525 C1533 1.433 . S
C1526 H1522 0.929 . S
C1526 C1528 1.378 . S
C1526 C1530 1.350 . S
C1527 C1530 1.463 . S
C1527 C1532 1.350 . S
C1527 N1535 1.427 . S
C1528 H1519 0.930 . S
C1528 C1526 1.378 . S
C1528 C1529 1.367 . S
C1529 C1528 1.367 . S
C1529 C1531 1.433 . S
C1530 C1526 1.350 . S
C1530 C1527 1.463 . S
C1530 N1534 1.427 . S
C1531 H1521 0.929 . S
C1531 C1529 1.433 . S
C1531 N1534 1.384 . S
C1532 H1523 0.929 . S
C1532 C1524 1.378 . S
C1532 C1527 1.350 . S
C1533 H1520 0.929 . S
C1533 C1525 1.433 . S
C1533 N1535 1.384 . S
N1534 C1530 1.427 . S
N1534 C1531 1.384 . S
N1535 C1527 1.427 . S
N1535 C1533 1.384 . S
H1536 C1542 0.930 . S
H1537 C1546 0.930 . S
H1538 C1551 0.929 . S
H1539 C1549 0.929 . S
H1540 C1544 0.929 . S
H1541 C1550 0.929 . S
C1542 H1536 0.930 . S
C1542 C1543 1.367 . S
C1542 C1550 1.378 . S
C1543 C1542 1.367 . S
C1543 C1551 1.433 . S
C1544 H1540 0.929 . S
C1544 C1546 1.378 . S
C1544 C1548 1.350 . S
C1545 C1548 1.463 . S
C1545 C1550 1.350 . S
C1545 N1553 1.427 . S
C1546 H1537 0.930 . S
C1546 C1544 1.378 . S
C1546 C1547 1.367 . S
C1547 C1546 1.367 . S
C1547 C1549 1.433 . S
C1548 C1544 1.350 . S
C1548 C1545 1.463 . S
C1548 N1552 1.427 . S
C1549 H1539 0.929 . S
C1549 C1547 1.433 . S
C1549 N1552 1.384 . S
C1550 H1541 0.929 . S
C1550 C1542 1.378 . S
C1550 C1545 1.350 . S
C1551 H1538 0.929 . S
C1551 C1543 1.433 . S
C1551 N1553 1.384 . S
N1552 C1548 1.427 . S
N1552 C1549 1.384 . S
N1553 C1545 1.427 . S
N1553 C1551 1.384 . S
H1554 C1560 0.930 . S
H1555 C1564 0.930 . S
H1556 C1569 0.929 . S
H1557 C1567 0.929 . S
H1558 C1562 0.929 . S
H1559 C1568 0.929 . S
C1560 H1554 0.930 . S
C1560 C1561 1.367 . S
C1560 C1568 1.378 . S
C1561 C1560 1.367 . S
C1561 C1569 1.433 . S
C1562 H1558 0.929 . S
C1562 C1564 1.378 . S
C1562 C1566 1.350 . S
C1563 C1566 1.463 . S
C1563 C1568 1.350 . S
C1563 N1571 1.427 . S
C1564 H1555 0.930 . S
C1564 C1562 1.378 . S
C1564 C1565 1.367 . S
C1565 C1564 1.367 . S
C1565 C1567 1.433 . S
C1566 C1562 1.350 . S
C1566 C1563 1.463 . S
C1566 N1570 1.427 . S
C1567 H1557 0.929 . S
C1567 C1565 1.433 . S
C1567 N1570 1.384 . S
C1568 H1559 0.929 . S
C1568 C1560 1.378 . S
C1568 C1563 1.350 . S
C1569 H1556 0.929 . S
C1569 C1561 1.433 . S
C1569 N1571 1.384 . S
N1570 C1566 1.427 . S
N1570 C1567 1.384 . S
N1571 C1563 1.427 . S
N1571 C1569 1.384 . S
H1572 C1578 0.930 . S
H1573 C1582 0.930 . S
H1574 C1587 0.929 . S
H1575 C1585 0.929 . S
H1576 C1580 0.929 . S
H1577 C1586 0.929 . S
C1578 H1572 0.930 . S
C1578 C1579 1.367 . S
C1578 C1586 1.378 . S
C1579 C1578 1.367 . S
C1579 C1587 1.433 . S
C1580 H1576 0.929 . S
C1580 C1582 1.378 . S
C1580 C1584 1.350 . S
C1581 C1584 1.463 . S
C1581 C1586 1.350 . S
C1581 N1589 1.427 . S
C1582 H1573 0.930 . S
C1582 C1580 1.378 . S
C1582 C1583 1.367 . S
C1583 C1582 1.367 . S
C1583 C1585 1.433 . S
C1584 C1580 1.350 . S
C1584 C1581 1.463 . S
C1584 N1588 1.427 . S
C1585 H1575 0.929 . S
C1585 C1583 1.433 . S
C1585 N1588 1.384 . S
C1586 H1577 0.929 . S
C1586 C1578 1.378 . S
C1586 C1581 1.350 . S
C1587 H1574 0.929 . S
C1587 C1579 1.433 . S
C1587 N1589 1.384 . S
N1588 C1584 1.427 . S
N1588 C1585 1.384 . S
N1589 C1581 1.427 . S
N1589 C1587 1.384 . S
H1590 C1596 0.930 . S
H1591 C1600 0.930 . S
H1592 C1605 0.929 . S
H1593 C1603 0.929 . S
H1594 C1598 0.929 . S
H1595 C1604 0.929 . S
C1596 H1590 0.930 . S
C1596 C1597 1.367 . S
C1596 C1604 1.378 . S
C1597 C1596 1.367 . S
C1597 C1605 1.433 . S
C1598 H1594 0.929 . S
C1598 C1600 1.378 . S
C1598 C1602 1.350 . S
C1599 C1602 1.463 . S
C1599 C1604 1.350 . S
C1599 N1607 1.427 . S
C1600 H1591 0.930 . S
C1600 C1598 1.378 . S
C1600 C1601 1.367 . S
C1601 C1600 1.367 . S
C1601 C1603 1.433 . S
C1602 C1598 1.350 . S
C1602 C1599 1.463 . S
C1602 N1606 1.427 . S
C1603 H1593 0.929 . S
C1603 C1601 1.433 . S
C1603 N1606 1.384 . S
C1604 H1595 0.929 . S
C1604 C1596 1.378 . S
C1604 C1599 1.350 . S
C1605 H1592 0.929 . S
C1605 C1597 1.433 . S
C1605 N1607 1.384 . S
N1606 C1602 1.427 . S
N1606 C1603 1.384 . S
N1607 C1599 1.427 . S
N1607 C1605 1.384 . S
H1608 C1614 0.930 . S
H1609 C1618 0.930 . S
H1610 C1623 0.929 . S
H1611 C1621 0.929 . S
H1612 C1616 0.929 . S
H1613 C1622 0.929 . S
C1614 H1608 0.930 . S
C1614 C1615 1.367 . S
C1614 C1622 1.378 . S
C1615 C1614 1.367 . S
C1615 C1623 1.433 . S
C1616 H1612 0.929 . S
C1616 C1618 1.378 . S
C1616 C1620 1.350 . S
C1617 C1620 1.463 . S
C1617 C1622 1.350 . S
C1617 N1625 1.427 . S
C1618 H1609 0.930 . S
C1618 C1616 1.378 . S
C1618 C1619 1.367 . S
C1619 C1618 1.367 . S
C1619 C1621 1.433 . S
C1620 C1616 1.350 . S
C1620 C1617 1.463 . S
C1620 N1624 1.427 . S
C1621 H1611 0.929 . S
C1621 C1619 1.433 . S
C1621 N1624 1.384 . S
C1622 H1613 0.929 . S
C1622 C1614 1.378 . S
C1622 C1617 1.350 . S
C1623 H1610 0.929 . S
C1623 C1615 1.433 . S
C1623 N1625 1.384 . S
N1624 C1620 1.427 . S
N1624 C1621 1.384 . S
N1625 C1617 1.427 . S
N1625 C1623 1.384 . S
H1626 C1632 0.930 . S
H1627 C1636 0.930 . S
H1628 C1641 0.929 . S
H1629 C1639 0.929 . S
H1630 C1634 0.929 . S
H1631 C1640 0.929 . S
C1632 H1626 0.930 . S
C1632 C1633 1.367 . S
C1632 C1640 1.378 . S
C1633 C1632 1.367 . S
C1633 C1641 1.433 . S
C1634 H1630 0.929 . S
C1634 C1636 1.378 . S
C1634 C1638 1.350 . S
C1635 C1638 1.463 . S
C1635 C1640 1.350 . S
C1635 N1643 1.427 . S
C1636 H1627 0.930 . S
C1636 C1634 1.378 . S
C1636 C1637 1.367 . S
C1637 C1636 1.367 . S
C1637 C1639 1.433 . S
C1638 C1634 1.350 . S
C1638 C1635 1.463 . S
C1638 N1642 1.427 . S
C1639 H1629 0.929 . S
C1639 C1637 1.433 . S
C1639 N1642 1.384 . S
C1640 H1631 0.929 . S
C1640 C1632 1.378 . S
C1640 C1635 1.350 . S
C1641 H1628 0.929 . S
C1641 C1633 1.433 . S
C1641 N1643 1.384 . S
N1642 C1638 1.427 . S
N1642 C1639 1.384 . S
N1643 C1635 1.427 . S
N1643 C1641 1.384 . S
H1644 C1650 0.930 . S
H1645 C1654 0.930 . S
H1646 C1659 0.929 . S
H1647 C1657 0.929 . S
H1648 C1652 0.929 . S
H1649 C1658 0.929 . S
C1650 H1644 0.930 . S
C1650 C1651 1.367 . S
C1650 C1658 1.378 . S
C1651 C1650 1.367 . S
C1651 C1659 1.433 . S
C1652 H1648 0.929 . S
C1652 C1654 1.378 . S
C1652 C1656 1.350 . S
C1653 C1656 1.463 . S
C1653 C1658 1.350 . S
C1653 N1661 1.427 . S
C1654 H1645 0.930 . S
C1654 C1652 1.378 . S
C1654 C1655 1.367 . S
C1655 C1654 1.367 . S
C1655 C1657 1.433 . S
C1656 C1652 1.350 . S
C1656 C1653 1.463 . S
C1656 N1660 1.427 . S
C1657 H1647 0.929 . S
C1657 C1655 1.433 . S
C1657 N1660 1.384 . S
C1658 H1649 0.929 . S
C1658 C1650 1.378 . S
C1658 C1653 1.350 . S
C1659 H1646 0.929 . S
C1659 C1651 1.433 . S
C1659 N1661 1.384 . S
N1660 C1656 1.427 . S
N1660 C1657 1.384 . S
N1661 C1653 1.427 . S
N1661 C1659 1.384 . S
H1662 C1668 0.930 . S
H1663 C1672 0.930 . S
H1664 C1677 0.929 . S
H1665 C1675 0.929 . S
H1666 C1670 0.929 . S
H1667 C1676 0.929 . S
C1668 H1662 0.930 . S
C1668 C1669 1.367 . S
C1668 C1676 1.378 . S
C1669 C1668 1.367 . S
C1669 C1677 1.433 . S
C1670 H1666 0.929 . S
C1670 C1672 1.378 . S
C1670 C1674 1.350 . S
C1671 C1674 1.463 . S
C1671 C1676 1.350 . S
C1671 N1679 1.427 . S
C1672 H1663 0.930 . S
C1672 C1670 1.378 . S
C1672 C1673 1.367 . S
C1673 C1672 1.367 . S
C1673 C1675 1.433 . S
C1674 C1670 1.350 . S
C1674 C1671 1.463 . S
C1674 N1678 1.427 . S
C1675 H1665 0.929 . S
C1675 C1673 1.433 . S
C1675 N1678 1.384 . S
C1676 H1667 0.929 . S
C1676 C1668 1.378 . S
C1676 C1671 1.350 . S
C1677 H1664 0.929 . S
C1677 C1669 1.433 . S
C1677 N1679 1.384 . S
N1678 C1674 1.427 . S
N1678 C1675 1.384 . S
N1679 C1671 1.427 . S
N1679 C1677 1.384 . S
H1680 C1686 0.930 . S
H1681 C1690 0.930 . S
H1682 C1695 0.929 . S
H1683 C1693 0.929 . S
H1684 C1688 0.929 . S
H1685 C1694 0.929 . S
C1686 H1680 0.930 . S
C1686 C1687 1.367 . S
C1686 C1694 1.378 . S
C1687 C1686 1.367 . S
C1687 C1695 1.433 . S
C1688 H1684 0.929 . S
C1688 C1690 1.378 . S
C1688 C1692 1.350 . S
C1689 C1692 1.463 . S
C1689 C1694 1.350 . S
C1689 N1697 1.427 . S
C1690 H1681 0.930 . S
C1690 C1688 1.378 . S
C1690 C1691 1.367 . S
C1691 C1690 1.367 . S
C1691 C1693 1.433 . S
C1692 C1688 1.350 . S
C1692 C1689 1.463 . S
C1692 N1696 1.427 . S
C1693 H1683 0.929 . S
C1693 C1691 1.433 . S
C1693 N1696 1.384 . S
C1694 H1685 0.929 . S
C1694 C1686 1.378 . S
C1694 C1689 1.350 . S
C1695 H1682 0.929 . S
C1695 C1687 1.433 . S
C1695 N1697 1.384 . S
N1696 C1692 1.427 . S
N1696 C1693 1.384 . S
N1697 C1689 1.427 . S
N1697 C1695 1.384 . S
H1698 C1704 0.930 . S
H1699 C1708 0.930 . S
H1700 C1713 0.929 . S
H1701 C1711 0.929 . S
H1702 C1706 0.929 . S
H1703 C1712 0.929 . S
C1704 H1698 0.930 . S
C1704 C1705 1.367 . S
C1704 C1712 1.378 . S
C1705 C1704 1.367 . S
C1705 C1713 1.433 . S
C1706 H1702 0.929 . S
C1706 C1708 1.378 . S
C1706 C1710 1.350 . S
C1707 C1710 1.463 . S
C1707 C1712 1.350 . S
C1707 N1715 1.427 . S
C1708 H1699 0.930 . S
C1708 C1706 1.378 . S
C1708 C1709 1.367 . S
C1709 C1708 1.367 . S
C1709 C1711 1.433 . S
C1710 C1706 1.350 . S
C1710 C1707 1.463 . S
C1710 N1714 1.427 . S
C1711 H1701 0.929 . S
C1711 C1709 1.433 . S
C1711 N1714 1.384 . S
C1712 H1703 0.929 . S
C1712 C1704 1.378 . S
C1712 C1707 1.350 . S
C1713 H1700 0.929 . S
C1713 C1705 1.433 . S
C1713 N1715 1.384 . S
N1714 C1710 1.427 . S
N1714 C1711 1.384 . S
N1715 C1707 1.427 . S
N1715 C1713 1.384 . S
H1716 C1722 0.930 . S
H1717 C1726 0.930 . S
H1718 C1731 0.929 . S
H1719 C1729 0.929 . S
H1720 C1724 0.929 . S
H1721 C1730 0.929 . S
C1722 H1716 0.930 . S
C1722 C1723 1.367 . S
C1722 C1730 1.378 . S
C1723 C1722 1.367 . S
C1723 C1731 1.433 . S
C1724 H1720 0.929 . S
C1724 C1726 1.378 . S
C1724 C1728 1.350 . S
C1725 C1728 1.463 . S
C1725 C1730 1.350 . S
C1725 N1733 1.427 . S
C1726 H1717 0.930 . S
C1726 C1724 1.378 . S
C1726 C1727 1.367 . S
C1727 C1726 1.367 . S
C1727 C1729 1.433 . S
C1728 C1724 1.350 . S
C1728 C1725 1.463 . S
C1728 N1732 1.427 . S
C1729 H1719 0.929 . S
C1729 C1727 1.433 . S
C1729 N1732 1.384 . S
C1730 H1721 0.929 . S
C1730 C1722 1.378 . S
C1730 C1725 1.350 . S
C1731 H1718 0.929 . S
C1731 C1723 1.433 . S
C1731 N1733 1.384 . S
N1732 C1728 1.427 . S
N1732 C1729 1.384 . S
N1733 C1725 1.427 . S
N1733 C1731 1.384 . S
H1734 C1740 0.930 . S
H1735 C1744 0.930 . S
H1736 C1749 0.929 . S
H1737 C1747 0.929 . S
H1738 C1742 0.929 . S
H1739 C1748 0.929 . S
C1740 H1734 0.930 . S
C1740 C1741 1.367 . S
C1740 C1748 1.378 . S
C1741 C1740 1.367 . S
C1741 C1749 1.433 . S
C1742 H1738 0.929 . S
C1742 C1744 1.378 . S
C1742 C1746 1.350 . S
C1743 C1746 1.463 . S
C1743 C1748 1.350 . S
C1743 N1751 1.427 . S
C1744 H1735 0.930 . S
C1744 C1742 1.378 . S
C1744 C1745 1.367 . S
C1745 C1744 1.367 . S
C1745 C1747 1.433 . S
C1746 C1742 1.350 . S
C1746 C1743 1.463 . S
C1746 N1750 1.427 . S
C1747 H1737 0.929 . S
C1747 C1745 1.433 . S
C1747 N1750 1.384 . S
C1748 H1739 0.929 . S
C1748 C1740 1.378 . S
C1748 C1743 1.350 . S
C1749 H1736 0.929 . S
C1749 C1741 1.433 . S
C1749 N1751 1.384 . S
N1750 C1746 1.427 . S
N1750 C1747 1.384 . S
N1751 C1743 1.427 . S
N1751 C1749 1.384 . S
H1752 C1758 0.930 . S
H1753 C1762 0.930 . S
H1754 C1767 0.929 . S
H1755 C1765 0.929 . S
H1756 C1760 0.929 . S
H1757 C1766 0.929 . S
C1758 H1752 0.930 . S
C1758 C1759 1.367 . S
C1758 C1766 1.378 . S
C1759 C1758 1.367 . S
C1759 C1767 1.433 . S
C1760 H1756 0.929 . S
C1760 C1762 1.378 . S
C1760 C1764 1.350 . S
C1761 C1764 1.463 . S
C1761 C1766 1.350 . S
C1761 N1769 1.427 . S
C1762 H1753 0.930 . S
C1762 C1760 1.378 . S
C1762 C1763 1.367 . S
C1763 C1762 1.367 . S
C1763 C1765 1.433 . S
C1764 C1760 1.350 . S
C1764 C1761 1.463 . S
C1764 N1768 1.427 . S
C1765 H1755 0.929 . S
C1765 C1763 1.433 . S
C1765 N1768 1.384 . S
C1766 H1757 0.929 . S
C1766 C1758 1.378 . S
C1766 C1761 1.350 . S
C1767 H1754 0.929 . S
C1767 C1759 1.433 . S
C1767 N1769 1.384 . S
N1768 C1764 1.427 . S
N1768 C1765 1.384 . S
N1769 C1761 1.427 . S
N1769 C1767 1.384 . S
H1770 C1776 0.930 . S
H1771 C1780 0.930 . S
H1772 C1785 0.929 . S
H1773 C1783 0.929 . S
H1774 C1778 0.929 . S
H1775 C1784 0.929 . S
C1776 H1770 0.930 . S
C1776 C1777 1.367 . S
C1776 C1784 1.378 . S
C1777 C1776 1.367 . S
C1777 C1785 1.433 . S
C1778 H1774 0.929 . S
C1778 C1780 1.378 . S
C1778 C1782 1.350 . S
C1779 C1782 1.463 . S
C1779 C1784 1.350 . S
C1779 N1787 1.427 . S
C1780 H1771 0.930 . S
C1780 C1778 1.378 . S
C1780 C1781 1.367 . S
C1781 C1780 1.367 . S
C1781 C1783 1.433 . S
C1782 C1778 1.350 . S
C1782 C1779 1.463 . S
C1782 N1786 1.427 . S
C1783 H1773 0.929 . S
C1783 C1781 1.433 . S
C1783 N1786 1.384 . S
C1784 H1775 0.929 . S
C1784 C1776 1.378 . S
C1784 C1779 1.350 . S
C1785 H1772 0.929 . S
C1785 C1777 1.433 . S
C1785 N1787 1.384 . S
N1786 C1782 1.427 . S
N1786 C1783 1.384 . S
N1787 C1779 1.427 . S
N1787 C1785 1.384 . S
H1788 C1794 0.930 . S
H1789 C1798 0.930 . S
H1790 C1803 0.929 . S
H1791 C1801 0.929 . S
H1792 C1796 0.929 . S
H1793 C1802 0.929 . S
C1794 H1788 0.930 . S
C1794 C1795 1.367 . S
C1794 C1802 1.378 . S
C1795 C1794 1.367 . S
C1795 C1803 1.433 . S
C1796 H1792 0.929 . S
C1796 C1798 1.378 . S
C1796 C1800 1.350 . S
C1797 C1800 1.463 . S
C1797 C1802 1.350 . S
C1797 N1805 1.427 . S
C1798 H1789 0.930 . S
C1798 C1796 1.378 . S
C1798 C1799 1.367 . S
C1799 C1798 1.367 . S
C1799 C1801 1.433 . S
C1800 C1796 1.350 . S
C1800 C1797 1.463 . S
C1800 N1804 1.427 . S
C1801 H1791 0.929 . S
C1801 C1799 1.433 . S
C1801 N1804 1.384 . S
C1802 H1793 0.929 . S
C1802 C1794 1.378 . S
C1802 C1797 1.350 . S
C1803 H1790 0.929 . S
C1803 C1795 1.433 . S
C1803 N1805 1.384 . S
N1804 C1800 1.427 . S
N1804 C1801 1.384 . S
N1805 C1797 1.427 . S
N1805 C1803 1.384 . S
H1806 C1812 0.930 . S
H1807 C1816 0.930 . S
H1808 C1821 0.929 . S
H1809 C1819 0.929 . S
H1810 C1814 0.929 . S
H1811 C1820 0.929 . S
C1812 H1806 0.930 . S
C1812 C1813 1.367 . S
C1812 C1820 1.378 . S
C1813 C1812 1.367 . S
C1813 C1821 1.433 . S
C1814 H1810 0.929 . S
C1814 C1816 1.378 . S
C1814 C1818 1.350 . S
C1815 C1818 1.463 . S
C1815 C1820 1.350 . S
C1815 N1823 1.427 . S
C1816 H1807 0.930 . S
C1816 C1814 1.378 . S
C1816 C1817 1.367 . S
C1817 C1816 1.367 . S
C1817 C1819 1.433 . S
C1818 C1814 1.350 . S
C1818 C1815 1.463 . S
C1818 N1822 1.427 . S
C1819 H1809 0.929 . S
C1819 C1817 1.433 . S
C1819 N1822 1.384 . S
C1820 H1811 0.929 . S
C1820 C1812 1.378 . S
C1820 C1815 1.350 . S
C1821 H1808 0.929 . S
C1821 C1813 1.433 . S
C1821 N1823 1.384 . S
N1822 C1818 1.427 . S
N1822 C1819 1.384 . S
N1823 C1815 1.427 . S
N1823 C1821 1.384 . S
C535 C51 1.486 . S
C539 C7 1.483 . S
C553 C62 1.480 . S
C557 C18 1.477 . S
C571 C73 1.488 . S
C575 C29 1.485 . S
C589 C40 1.476 . S
C593 C84 1.480 . S
C607 C161 1.488 . S
C611 C95 1.486 . S
C625 C172 1.486 . S
C629 C106 1.483 . S
C643 C117 1.482 . S
C647 C139 1.485 . S
C661 C150 1.488 . S
C665 C128 1.488 . S
C679 C238 1.470 . S
C683 C183 1.469 . S
C697 C216 1.475 . S
C701 C194 1.472 . S
C715 C205 1.473 . S
C719 C227 1.477 . S
C733 C260 1.485 . S
C737 C249 1.482 . S
C751 C271 1.563 . S
C755 C315 1.569 . S
C769 C282 1.568 . S
C773 C326 1.566 . S
C787 C337 1.566 . S
C791 C293 1.565 . S
C805 C304 1.570 . S
C809 C348 1.562 . S
C823 C425 1.563 . S
C827 C359 1.569 . S
C841 C436 1.568 . S
C845 C370 1.564 . S
C859 C381 1.570 . S
C863 C403 1.562 . S
C877 C392 1.564 . S
C881 C414 1.569 . S
C895 C447 1.567 . S
C899 C502 1.567 . S
C913 C480 1.562 . S
C917 C458 1.570 . S
C931 C469 1.566 . S
C935 C491 1.565 . S
C949 C524 1.565 . S
C953 C513 1.566 . S
C967 C5 1.327 . S
C971 C104 1.313 . S
C985 C16 1.326 . S
C989 C115 1.310 . S
C1003 C126 1.310 . S
C1007 C27 1.297 . S
C1021 C38 1.303 . S
C1025 C93 1.321 . S
C1039 C170 1.317 . S
C1043 C49 1.300 . S
C1057 C137 1.302 . S
C1061 C60 1.298 . S
C1075 C71 1.301 . S
C1079 C148 1.298 . S
C1093 C159 1.299 . S
C1097 C82 1.301 . S
C1111 C181 1.326 . S
C1115 C203 1.325 . S
C1129 C192 1.326 . S
C1133 C247 1.310 . S
C1147 C214 1.304 . S
C1151 C258 1.322 . S
C1165 C225 1.327 . S
C1169 C236 1.323 . S
C1183 C269 1.553 . S
C1187 C368 1.554 . S
C1201 C379 1.553 . S
C1205 C280 1.552 . S
C1219 C291 1.569 . S
C1223 C390 1.570 . S
C1237 C357 1.570 . S
C1241 C302 1.568 . S
C1255 C313 1.568 . S
C1259 C434 1.566 . S
C1273 C401 1.568 . S
C1277 C324 1.565 . S
C1291 C335 1.555 . S
C1295 C412 1.558 . S
C1309 C346 1.569 . S
C1313 C423 1.570 . S
C1327 C467 1.563 . S
C1331 C445 1.560 . S
C1345 C511 1.560 . S
C1349 C456 1.557 . S
C1363 C478 1.562 . S
C1367 C522 1.565 . S
C1381 C489 1.570 . S
C1385 C500 1.569 . S
C1399 C8 1.581 . S
C1403 C349 1.606 . S
C1417 C316 1.605 . S
C1421 C19 1.580 . S
C1435 C327 1.606 . S
C1439 C30 1.579 . S
C1453 C338 1.605 . S
C1457 C41 1.572 . S
C1471 C283 1.606 . S
C1475 C52 1.575 . S
C1489 C63 1.573 . S
C1493 C294 1.604 . S
C1507 C74 1.573 . S
C1511 C305 1.604 . S
C1525 C85 1.581 . S
C1529 C272 1.605 . S
C1543 C96 1.579 . S
C1547 C492 1.606 . S
C1561 C459 1.604 . S
C1565 C107 1.576 . S
C1579 C118 1.577 . S
C1583 C470 1.606 . S
C1597 C129 1.582 . S
C1601 C481 1.606 . S
C1615 C525 1.606 . S
C1619 C140 1.580 . S
C1633 C151 1.582 . S
C1637 C503 1.605 . S
C1651 C162 1.581 . S
C1655 C514 1.605 . S
C1669 C448 1.606 . S
C1673 C173 1.575 . S
C1687 C437 1.606 . S
C1691 C184 1.581 . S
C1705 C371 1.604 . S
C1709 C195 1.578 . S
C1723 C382 1.606 . S
C1727 C206 1.579 . S
C1741 C393 1.605 . S
C1745 C217 1.572 . S
C1759 C360 1.606 . S
C1763 C228 1.579 . S
C1777 C239 1.572 . S
C1781 C415 1.604 . S
C1795 C250 1.578 . S
C1799 C426 1.604 . S
C1813 C404 1.606 . S
C1817 C261 1.580 . S
