# Generated by pormake.
# Topology crs-a, (5)-cn, num edge types: 1
# Building blocks:
#     Node 0, Type 0, BuildingBlock: XOMCOT_clean_sbu_0, # of connection points: 5
#     Node 1, Type 0, BuildingBlock: XOMCOT_clean_sbu_0, # of connection points: 5
#     Node 2, Type 0, BuildingBlock: XOMCOT_clean_sbu_0, # of connection points: 5
#     Node 3, Type 0, BuildingBlock: XOMCOT_clean_sbu_0, # of connection points: 5
#     Node 4, Type 0, BuildingBlock: XOMCOT_clean_sbu_0, # of connection points: 5
#     Node 5, Type 0, BuildingBlock: XOMCOT_clean_sbu_0, # of connection points: 5
#     Node 6, Type 0, BuildingBlock: XOMCOT_clean_sbu_0, # of connection points: 5
#     Node 7, Type 0, BuildingBlock: XOMCOT_clean_sbu_0, # of connection points: 5
#     Node 8, Type 0, BuildingBlock: XOMCOT_clean_sbu_0, # of connection points: 5
#     Node 9, Type 0, BuildingBlock: XOMCOT_clean_sbu_0, # of connection points: 5
#     Node 10, Type 0, BuildingBlock: XOMCOT_clean_sbu_0, # of connection points: 5
#     Node 11, Type 0, BuildingBlock: XOMCOT_clean_sbu_0, # of connection points: 5
#     Node 12, Type 0, BuildingBlock: XOMCOT_clean_sbu_0, # of connection points: 5
#     Node 13, Type 0, BuildingBlock: XOMCOT_clean_sbu_0, # of connection points: 5
#     Node 14, Type 0, BuildingBlock: XOMCOT_clean_sbu_0, # of connection points: 5
#     Node 15, Type 0, BuildingBlock: XOMCOT_clean_sbu_0, # of connection points: 5
#     Node 16, Type 0, BuildingBlock: XOMCOT_clean_sbu_0, # of connection points: 5
#     Node 17, Type 0, BuildingBlock: XOMCOT_clean_sbu_0, # of connection points: 5
#     Node 18, Type 0, BuildingBlock: XOMCOT_clean_sbu_0, # of connection points: 5
#     Node 19, Type 0, BuildingBlock: XOMCOT_clean_sbu_0, # of connection points: 5
#     Node 20, Type 0, BuildingBlock: XOMCOT_clean_sbu_0, # of connection points: 5
#     Node 21, Type 0, BuildingBlock: XOMCOT_clean_sbu_0, # of connection points: 5
#     Node 22, Type 0, BuildingBlock: XOMCOT_clean_sbu_0, # of connection points: 5
#     Node 23, Type 0, BuildingBlock: XOMCOT_clean_sbu_0, # of connection points: 5
#     Node 24, Type 0, BuildingBlock: XOMCOT_clean_sbu_0, # of connection points: 5
#     Node 25, Type 0, BuildingBlock: XOMCOT_clean_sbu_0, # of connection points: 5
#     Node 26, Type 0, BuildingBlock: XOMCOT_clean_sbu_0, # of connection points: 5
#     Node 27, Type 0, BuildingBlock: XOMCOT_clean_sbu_0, # of connection points: 5
#     Node 28, Type 0, BuildingBlock: XOMCOT_clean_sbu_0, # of connection points: 5
#     Node 29, Type 0, BuildingBlock: XOMCOT_clean_sbu_0, # of connection points: 5
#     Node 30, Type 0, BuildingBlock: XOMCOT_clean_sbu_0, # of connection points: 5
#     Node 31, Type 0, BuildingBlock: XOMCOT_clean_sbu_0, # of connection points: 5
#     Node 32, Type 0, BuildingBlock: XOMCOT_clean_sbu_0, # of connection points: 5
#     Node 33, Type 0, BuildingBlock: XOMCOT_clean_sbu_0, # of connection points: 5
#     Node 34, Type 0, BuildingBlock: XOMCOT_clean_sbu_0, # of connection points: 5
#     Node 35, Type 0, BuildingBlock: XOMCOT_clean_sbu_0, # of connection points: 5
#     Node 36, Type 0, BuildingBlock: XOMCOT_clean_sbu_0, # of connection points: 5
#     Node 37, Type 0, BuildingBlock: XOMCOT_clean_sbu_0, # of connection points: 5
#     Node 38, Type 0, BuildingBlock: XOMCOT_clean_sbu_0, # of connection points: 5
#     Node 39, Type 0, BuildingBlock: XOMCOT_clean_sbu_0, # of connection points: 5
#     Node 40, Type 0, BuildingBlock: XOMCOT_clean_sbu_0, # of connection points: 5
#     Node 41, Type 0, BuildingBlock: XOMCOT_clean_sbu_0, # of connection points: 5
#     Node 42, Type 0, BuildingBlock: XOMCOT_clean_sbu_0, # of connection points: 5
#     Node 43, Type 0, BuildingBlock: XOMCOT_clean_sbu_0, # of connection points: 5
#     Node 44, Type 0, BuildingBlock: XOMCOT_clean_sbu_0, # of connection points: 5
#     Node 45, Type 0, BuildingBlock: XOMCOT_clean_sbu_0, # of connection points: 5
#     Node 46, Type 0, BuildingBlock: XOMCOT_clean_sbu_0, # of connection points: 5
#     Node 47, Type 0, BuildingBlock: XOMCOT_clean_sbu_0, # of connection points: 5
#     Node 48, Type 0, BuildingBlock: XOMCOT_clean_sbu_0, # of connection points: 5
#     Node 49, Type 0, BuildingBlock: XOMCOT_clean_sbu_0, # of connection points: 5
#     Node 50, Type 0, BuildingBlock: XOMCOT_clean_sbu_0, # of connection points: 5
#     Node 51, Type 0, BuildingBlock: XOMCOT_clean_sbu_0, # of connection points: 5
#     Node 52, Type 0, BuildingBlock: XOMCOT_clean_sbu_0, # of connection points: 5
#     Node 53, Type 0, BuildingBlock: XOMCOT_clean_sbu_0, # of connection points: 5
#     Node 54, Type 0, BuildingBlock: XOMCOT_clean_sbu_0, # of connection points: 5
#     Node 55, Type 0, BuildingBlock: XOMCOT_clean_sbu_0, # of connection points: 5
#     Node 56, Type 0, BuildingBlock: XOMCOT_clean_sbu_0, # of connection points: 5
#     Node 57, Type 0, BuildingBlock: XOMCOT_clean_sbu_0, # of connection points: 5
#     Node 58, Type 0, BuildingBlock: XOMCOT_clean_sbu_0, # of connection points: 5
#     Node 59, Type 0, BuildingBlock: XOMCOT_clean_sbu_0, # of connection points: 5
#     Node 60, Type 0, BuildingBlock: XOMCOT_clean_sbu_0, # of connection points: 5
#     Node 61, Type 0, BuildingBlock: XOMCOT_clean_sbu_0, # of connection points: 5
#     Node 62, Type 0, BuildingBlock: XOMCOT_clean_sbu_0, # of connection points: 5
#     Node 63, Type 0, BuildingBlock: XOMCOT_clean_sbu_0, # of connection points: 5
#     Node 64, Type 0, BuildingBlock: XOMCOT_clean_sbu_0, # of connection points: 5
#     Node 65, Type 0, BuildingBlock: XOMCOT_clean_sbu_0, # of connection points: 5
#     Node 66, Type 0, BuildingBlock: XOMCOT_clean_sbu_0, # of connection points: 5
#     Node 67, Type 0, BuildingBlock: XOMCOT_clean_sbu_0, # of connection points: 5
#     Node 68, Type 0, BuildingBlock: XOMCOT_clean_sbu_0, # of connection points: 5
#     Node 69, Type 0, BuildingBlock: XOMCOT_clean_sbu_0, # of connection points: 5
#     Node 70, Type 0, BuildingBlock: XOMCOT_clean_sbu_0, # of connection points: 5
#     Node 71, Type 0, BuildingBlock: XOMCOT_clean_sbu_0, # of connection points: 5
#     Node 72, Type 0, BuildingBlock: XOMCOT_clean_sbu_0, # of connection points: 5
#     Node 73, Type 0, BuildingBlock: XOMCOT_clean_sbu_0, # of connection points: 5
#     Node 74, Type 0, BuildingBlock: XOMCOT_clean_sbu_0, # of connection points: 5
#     Node 75, Type 0, BuildingBlock: XOMCOT_clean_sbu_0, # of connection points: 5
#     Node 76, Type 0, BuildingBlock: XOMCOT_clean_sbu_0, # of connection points: 5
#     Node 77, Type 0, BuildingBlock: XOMCOT_clean_sbu_0, # of connection points: 5
#     Node 78, Type 0, BuildingBlock: XOMCOT_clean_sbu_0, # of connection points: 5
#     Node 79, Type 0, BuildingBlock: XOMCOT_clean_sbu_0, # of connection points: 5
#     Node 80, Type 0, BuildingBlock: XOMCOT_clean_sbu_0, # of connection points: 5
#     Node 81, Type 0, BuildingBlock: XOMCOT_clean_sbu_0, # of connection points: 5
#     Node 82, Type 0, BuildingBlock: XOMCOT_clean_sbu_0, # of connection points: 5
#     Node 83, Type 0, BuildingBlock: XOMCOT_clean_sbu_0, # of connection points: 5
#     Node 84, Type 0, BuildingBlock: XOMCOT_clean_sbu_0, # of connection points: 5
#     Node 85, Type 0, BuildingBlock: XOMCOT_clean_sbu_0, # of connection points: 5
#     Node 86, Type 0, BuildingBlock: XOMCOT_clean_sbu_0, # of connection points: 5
#     Node 87, Type 0, BuildingBlock: XOMCOT_clean_sbu_0, # of connection points: 5
#     Node 88, Type 0, BuildingBlock: XOMCOT_clean_sbu_0, # of connection points: 5
#     Node 89, Type 0, BuildingBlock: XOMCOT_clean_sbu_0, # of connection points: 5
#     Node 90, Type 0, BuildingBlock: XOMCOT_clean_sbu_0, # of connection points: 5
#     Node 91, Type 0, BuildingBlock: XOMCOT_clean_sbu_0, # of connection points: 5
#     Node 92, Type 0, BuildingBlock: XOMCOT_clean_sbu_0, # of connection points: 5
#     Node 93, Type 0, BuildingBlock: XOMCOT_clean_sbu_0, # of connection points: 5
#     Node 94, Type 0, BuildingBlock: XOMCOT_clean_sbu_0, # of connection points: 5
#     Node 95, Type 0, BuildingBlock: XOMCOT_clean_sbu_0, # of connection points: 5
#     Edge 96, Type (0, 0), BuildingBlock: OJICUG_clean_linker_0, # of connection points: 2
#     Edge 97, Type (0, 0), BuildingBlock: OJICUG_clean_linker_0, # of connection points: 2
#     Edge 98, Type (0, 0), BuildingBlock: OJICUG_clean_linker_0, # of connection points: 2
#     Edge 99, Type (0, 0), BuildingBlock: OJICUG_clean_linker_0, # of connection points: 2
#     Edge 100, Type (0, 0), BuildingBlock: OJICUG_clean_linker_0, # of connection points: 2
#     Edge 101, Type (0, 0), BuildingBlock: OJICUG_clean_linker_0, # of connection points: 2
#     Edge 102, Type (0, 0), BuildingBlock: OJICUG_clean_linker_0, # of connection points: 2
#     Edge 103, Type (0, 0), BuildingBlock: OJICUG_clean_linker_0, # of connection points: 2
#     Edge 104, Type (0, 0), BuildingBlock: OJICUG_clean_linker_0, # of connection points: 2
#     Edge 105, Type (0, 0), BuildingBlock: OJICUG_clean_linker_0, # of connection points: 2
#     Edge 106, Type (0, 0), BuildingBlock: OJICUG_clean_linker_0, # of connection points: 2
#     Edge 107, Type (0, 0), BuildingBlock: OJICUG_clean_linker_0, # of connection points: 2
#     Edge 108, Type (0, 0), BuildingBlock: OJICUG_clean_linker_0, # of connection points: 2
#     Edge 109, Type (0, 0), BuildingBlock: OJICUG_clean_linker_0, # of connection points: 2
#     Edge 110, Type (0, 0), BuildingBlock: OJICUG_clean_linker_0, # of connection points: 2
#     Edge 111, Type (0, 0), BuildingBlock: OJICUG_clean_linker_0, # of connection points: 2
#     Edge 112, Type (0, 0), BuildingBlock: OJICUG_clean_linker_0, # of connection points: 2
#     Edge 113, Type (0, 0), BuildingBlock: OJICUG_clean_linker_0, # of connection points: 2
#     Edge 114, Type (0, 0), BuildingBlock: OJICUG_clean_linker_0, # of connection points: 2
#     Edge 115, Type (0, 0), BuildingBlock: OJICUG_clean_linker_0, # of connection points: 2
#     Edge 116, Type (0, 0), BuildingBlock: OJICUG_clean_linker_0, # of connection points: 2
#     Edge 117, Type (0, 0), BuildingBlock: OJICUG_clean_linker_0, # of connection points: 2
#     Edge 118, Type (0, 0), BuildingBlock: OJICUG_clean_linker_0, # of connection points: 2
#     Edge 119, Type (0, 0), BuildingBlock: OJICUG_clean_linker_0, # of connection points: 2
#     Edge 120, Type (0, 0), BuildingBlock: OJICUG_clean_linker_0, # of connection points: 2
#     Edge 121, Type (0, 0), BuildingBlock: OJICUG_clean_linker_0, # of connection points: 2
#     Edge 122, Type (0, 0), BuildingBlock: OJICUG_clean_linker_0, # of connection points: 2
#     Edge 123, Type (0, 0), BuildingBlock: OJICUG_clean_linker_0, # of connection points: 2
#     Edge 124, Type (0, 0), BuildingBlock: OJICUG_clean_linker_0, # of connection points: 2
#     Edge 125, Type (0, 0), BuildingBlock: OJICUG_clean_linker_0, # of connection points: 2
#     Edge 126, Type (0, 0), BuildingBlock: OJICUG_clean_linker_0, # of connection points: 2
#     Edge 127, Type (0, 0), BuildingBlock: OJICUG_clean_linker_0, # of connection points: 2
#     Edge 128, Type (0, 0), BuildingBlock: OJICUG_clean_linker_0, # of connection points: 2
#     Edge 129, Type (0, 0), BuildingBlock: OJICUG_clean_linker_0, # of connection points: 2
#     Edge 130, Type (0, 0), BuildingBlock: OJICUG_clean_linker_0, # of connection points: 2
#     Edge 131, Type (0, 0), BuildingBlock: OJICUG_clean_linker_0, # of connection points: 2
#     Edge 132, Type (0, 0), BuildingBlock: OJICUG_clean_linker_0, # of connection points: 2
#     Edge 133, Type (0, 0), BuildingBlock: OJICUG_clean_linker_0, # of connection points: 2
#     Edge 134, Type (0, 0), BuildingBlock: OJICUG_clean_linker_0, # of connection points: 2
#     Edge 135, Type (0, 0), BuildingBlock: OJICUG_clean_linker_0, # of connection points: 2
#     Edge 136, Type (0, 0), BuildingBlock: OJICUG_clean_linker_0, # of connection points: 2
#     Edge 137, Type (0, 0), BuildingBlock: OJICUG_clean_linker_0, # of connection points: 2
#     Edge 138, Type (0, 0), BuildingBlock: OJICUG_clean_linker_0, # of connection points: 2
#     Edge 139, Type (0, 0), BuildingBlock: OJICUG_clean_linker_0, # of connection points: 2
#     Edge 140, Type (0, 0), BuildingBlock: OJICUG_clean_linker_0, # of connection points: 2
#     Edge 141, Type (0, 0), BuildingBlock: OJICUG_clean_linker_0, # of connection points: 2
#     Edge 142, Type (0, 0), BuildingBlock: OJICUG_clean_linker_0, # of connection points: 2
#     Edge 143, Type (0, 0), BuildingBlock: OJICUG_clean_linker_0, # of connection points: 2
#     Edge 144, Type (0, 0), BuildingBlock: OJICUG_clean_linker_0, # of connection points: 2
#     Edge 145, Type (0, 0), BuildingBlock: OJICUG_clean_linker_0, # of connection points: 2
#     Edge 146, Type (0, 0), BuildingBlock: OJICUG_clean_linker_0, # of connection points: 2
#     Edge 147, Type (0, 0), BuildingBlock: OJICUG_clean_linker_0, # of connection points: 2
#     Edge 148, Type (0, 0), BuildingBlock: OJICUG_clean_linker_0, # of connection points: 2
#     Edge 149, Type (0, 0), BuildingBlock: OJICUG_clean_linker_0, # of connection points: 2
#     Edge 150, Type (0, 0), BuildingBlock: OJICUG_clean_linker_0, # of connection points: 2
#     Edge 151, Type (0, 0), BuildingBlock: OJICUG_clean_linker_0, # of connection points: 2
#     Edge 152, Type (0, 0), BuildingBlock: OJICUG_clean_linker_0, # of connection points: 2
#     Edge 153, Type (0, 0), BuildingBlock: OJICUG_clean_linker_0, # of connection points: 2
#     Edge 154, Type (0, 0), BuildingBlock: OJICUG_clean_linker_0, # of connection points: 2
#     Edge 155, Type (0, 0), BuildingBlock: OJICUG_clean_linker_0, # of connection points: 2
#     Edge 156, Type (0, 0), BuildingBlock: OJICUG_clean_linker_0, # of connection points: 2
#     Edge 157, Type (0, 0), BuildingBlock: OJICUG_clean_linker_0, # of connection points: 2
#     Edge 158, Type (0, 0), BuildingBlock: OJICUG_clean_linker_0, # of connection points: 2
#     Edge 159, Type (0, 0), BuildingBlock: OJICUG_clean_linker_0, # of connection points: 2
#     Edge 160, Type (0, 0), BuildingBlock: OJICUG_clean_linker_0, # of connection points: 2
#     Edge 161, Type (0, 0), BuildingBlock: OJICUG_clean_linker_0, # of connection points: 2
#     Edge 162, Type (0, 0), BuildingBlock: OJICUG_clean_linker_0, # of connection points: 2
#     Edge 163, Type (0, 0), BuildingBlock: OJICUG_clean_linker_0, # of connection points: 2
#     Edge 164, Type (0, 0), BuildingBlock: OJICUG_clean_linker_0, # of connection points: 2
#     Edge 165, Type (0, 0), BuildingBlock: OJICUG_clean_linker_0, # of connection points: 2
#     Edge 166, Type (0, 0), BuildingBlock: OJICUG_clean_linker_0, # of connection points: 2
#     Edge 167, Type (0, 0), BuildingBlock: OJICUG_clean_linker_0, # of connection points: 2
#     Edge 168, Type (0, 0), BuildingBlock: OJICUG_clean_linker_0, # of connection points: 2
#     Edge 169, Type (0, 0), BuildingBlock: OJICUG_clean_linker_0, # of connection points: 2
#     Edge 170, Type (0, 0), BuildingBlock: OJICUG_clean_linker_0, # of connection points: 2
#     Edge 171, Type (0, 0), BuildingBlock: OJICUG_clean_linker_0, # of connection points: 2
#     Edge 172, Type (0, 0), BuildingBlock: OJICUG_clean_linker_0, # of connection points: 2
#     Edge 173, Type (0, 0), BuildingBlock: OJICUG_clean_linker_0, # of connection points: 2
#     Edge 174, Type (0, 0), BuildingBlock: OJICUG_clean_linker_0, # of connection points: 2
#     Edge 175, Type (0, 0), BuildingBlock: OJICUG_clean_linker_0, # of connection points: 2
#     Edge 176, Type (0, 0), BuildingBlock: OJICUG_clean_linker_0, # of connection points: 2
#     Edge 177, Type (0, 0), BuildingBlock: OJICUG_clean_linker_0, # of connection points: 2
#     Edge 178, Type (0, 0), BuildingBlock: OJICUG_clean_linker_0, # of connection points: 2
#     Edge 179, Type (0, 0), BuildingBlock: OJICUG_clean_linker_0, # of connection points: 2
#     Edge 180, Type (0, 0), BuildingBlock: OJICUG_clean_linker_0, # of connection points: 2
#     Edge 181, Type (0, 0), BuildingBlock: OJICUG_clean_linker_0, # of connection points: 2
#     Edge 182, Type (0, 0), BuildingBlock: OJICUG_clean_linker_0, # of connection points: 2
#     Edge 183, Type (0, 0), BuildingBlock: OJICUG_clean_linker_0, # of connection points: 2
#     Edge 184, Type (0, 0), BuildingBlock: OJICUG_clean_linker_0, # of connection points: 2
#     Edge 185, Type (0, 0), BuildingBlock: OJICUG_clean_linker_0, # of connection points: 2
#     Edge 186, Type (0, 0), BuildingBlock: OJICUG_clean_linker_0, # of connection points: 2
#     Edge 187, Type (0, 0), BuildingBlock: OJICUG_clean_linker_0, # of connection points: 2
#     Edge 188, Type (0, 0), BuildingBlock: OJICUG_clean_linker_0, # of connection points: 2
#     Edge 189, Type (0, 0), BuildingBlock: OJICUG_clean_linker_0, # of connection points: 2
#     Edge 190, Type (0, 0), BuildingBlock: OJICUG_clean_linker_0, # of connection points: 2
#     Edge 191, Type (0, 0), BuildingBlock: OJICUG_clean_linker_0, # of connection points: 2
#     Edge 192, Type (0, 0), BuildingBlock: OJICUG_clean_linker_0, # of connection points: 2
#     Edge 193, Type (0, 0), BuildingBlock: OJICUG_clean_linker_0, # of connection points: 2
#     Edge 194, Type (0, 0), BuildingBlock: OJICUG_clean_linker_0, # of connection points: 2
#     Edge 195, Type (0, 0), BuildingBlock: OJICUG_clean_linker_0, # of connection points: 2
#     Edge 196, Type (0, 0), BuildingBlock: OJICUG_clean_linker_0, # of connection points: 2
#     Edge 197, Type (0, 0), BuildingBlock: OJICUG_clean_linker_0, # of connection points: 2
#     Edge 198, Type (0, 0), BuildingBlock: OJICUG_clean_linker_0, # of connection points: 2
#     Edge 199, Type (0, 0), BuildingBlock: OJICUG_clean_linker_0, # of connection points: 2
#     Edge 200, Type (0, 0), BuildingBlock: OJICUG_clean_linker_0, # of connection points: 2
#     Edge 201, Type (0, 0), BuildingBlock: OJICUG_clean_linker_0, # of connection points: 2
#     Edge 202, Type (0, 0), BuildingBlock: OJICUG_clean_linker_0, # of connection points: 2
#     Edge 203, Type (0, 0), BuildingBlock: OJICUG_clean_linker_0, # of connection points: 2
#     Edge 204, Type (0, 0), BuildingBlock: OJICUG_clean_linker_0, # of connection points: 2
#     Edge 205, Type (0, 0), BuildingBlock: OJICUG_clean_linker_0, # of connection points: 2
#     Edge 206, Type (0, 0), BuildingBlock: OJICUG_clean_linker_0, # of connection points: 2
#     Edge 207, Type (0, 0), BuildingBlock: OJICUG_clean_linker_0, # of connection points: 2
#     Edge 208, Type (0, 0), BuildingBlock: OJICUG_clean_linker_0, # of connection points: 2
#     Edge 209, Type (0, 0), BuildingBlock: OJICUG_clean_linker_0, # of connection points: 2
#     Edge 210, Type (0, 0), BuildingBlock: OJICUG_clean_linker_0, # of connection points: 2
#     Edge 211, Type (0, 0), BuildingBlock: OJICUG_clean_linker_0, # of connection points: 2
#     Edge 212, Type (0, 0), BuildingBlock: OJICUG_clean_linker_0, # of connection points: 2
#     Edge 213, Type (0, 0), BuildingBlock: OJICUG_clean_linker_0, # of connection points: 2
#     Edge 214, Type (0, 0), BuildingBlock: OJICUG_clean_linker_0, # of connection points: 2
#     Edge 215, Type (0, 0), BuildingBlock: OJICUG_clean_linker_0, # of connection points: 2
#     Edge 216, Type (0, 0), BuildingBlock: OJICUG_clean_linker_0, # of connection points: 2
#     Edge 217, Type (0, 0), BuildingBlock: OJICUG_clean_linker_0, # of connection points: 2
#     Edge 218, Type (0, 0), BuildingBlock: OJICUG_clean_linker_0, # of connection points: 2
#     Edge 219, Type (0, 0), BuildingBlock: OJICUG_clean_linker_0, # of connection points: 2
#     Edge 220, Type (0, 0), BuildingBlock: OJICUG_clean_linker_0, # of connection points: 2
#     Edge 221, Type (0, 0), BuildingBlock: OJICUG_clean_linker_0, # of connection points: 2
#     Edge 222, Type (0, 0), BuildingBlock: OJICUG_clean_linker_0, # of connection points: 2
#     Edge 223, Type (0, 0), BuildingBlock: OJICUG_clean_linker_0, # of connection points: 2
#     Edge 224, Type (0, 0), BuildingBlock: OJICUG_clean_linker_0, # of connection points: 2
#     Edge 225, Type (0, 0), BuildingBlock: OJICUG_clean_linker_0, # of connection points: 2
#     Edge 226, Type (0, 0), BuildingBlock: OJICUG_clean_linker_0, # of connection points: 2
#     Edge 227, Type (0, 0), BuildingBlock: OJICUG_clean_linker_0, # of connection points: 2
#     Edge 228, Type (0, 0), BuildingBlock: OJICUG_clean_linker_0, # of connection points: 2
#     Edge 229, Type (0, 0), BuildingBlock: OJICUG_clean_linker_0, # of connection points: 2
#     Edge 230, Type (0, 0), BuildingBlock: OJICUG_clean_linker_0, # of connection points: 2
#     Edge 231, Type (0, 0), BuildingBlock: OJICUG_clean_linker_0, # of connection points: 2
#     Edge 232, Type (0, 0), BuildingBlock: OJICUG_clean_linker_0, # of connection points: 2
#     Edge 233, Type (0, 0), BuildingBlock: OJICUG_clean_linker_0, # of connection points: 2
#     Edge 234, Type (0, 0), BuildingBlock: OJICUG_clean_linker_0, # of connection points: 2
#     Edge 235, Type (0, 0), BuildingBlock: OJICUG_clean_linker_0, # of connection points: 2
#     Edge 236, Type (0, 0), BuildingBlock: OJICUG_clean_linker_0, # of connection points: 2
#     Edge 237, Type (0, 0), BuildingBlock: OJICUG_clean_linker_0, # of connection points: 2
#     Edge 238, Type (0, 0), BuildingBlock: OJICUG_clean_linker_0, # of connection points: 2
#     Edge 239, Type (0, 0), BuildingBlock: OJICUG_clean_linker_0, # of connection points: 2
#     Edge 240, Type (0, 0), BuildingBlock: OJICUG_clean_linker_0, # of connection points: 2
#     Edge 241, Type (0, 0), BuildingBlock: OJICUG_clean_linker_0, # of connection points: 2
#     Edge 242, Type (0, 0), BuildingBlock: OJICUG_clean_linker_0, # of connection points: 2
#     Edge 243, Type (0, 0), BuildingBlock: OJICUG_clean_linker_0, # of connection points: 2
#     Edge 244, Type (0, 0), BuildingBlock: OJICUG_clean_linker_0, # of connection points: 2
#     Edge 245, Type (0, 0), BuildingBlock: OJICUG_clean_linker_0, # of connection points: 2
#     Edge 246, Type (0, 0), BuildingBlock: OJICUG_clean_linker_0, # of connection points: 2
#     Edge 247, Type (0, 0), BuildingBlock: OJICUG_clean_linker_0, # of connection points: 2
#     Edge 248, Type (0, 0), BuildingBlock: OJICUG_clean_linker_0, # of connection points: 2
#     Edge 249, Type (0, 0), BuildingBlock: OJICUG_clean_linker_0, # of connection points: 2
#     Edge 250, Type (0, 0), BuildingBlock: OJICUG_clean_linker_0, # of connection points: 2
#     Edge 251, Type (0, 0), BuildingBlock: OJICUG_clean_linker_0, # of connection points: 2
#     Edge 252, Type (0, 0), BuildingBlock: OJICUG_clean_linker_0, # of connection points: 2
#     Edge 253, Type (0, 0), BuildingBlock: OJICUG_clean_linker_0, # of connection points: 2
#     Edge 254, Type (0, 0), BuildingBlock: OJICUG_clean_linker_0, # of connection points: 2
#     Edge 255, Type (0, 0), BuildingBlock: OJICUG_clean_linker_0, # of connection points: 2
#     Edge 256, Type (0, 0), BuildingBlock: OJICUG_clean_linker_0, # of connection points: 2
#     Edge 257, Type (0, 0), BuildingBlock: OJICUG_clean_linker_0, # of connection points: 2
#     Edge 258, Type (0, 0), BuildingBlock: OJICUG_clean_linker_0, # of connection points: 2
#     Edge 259, Type (0, 0), BuildingBlock: OJICUG_clean_linker_0, # of connection points: 2
#     Edge 260, Type (0, 0), BuildingBlock: OJICUG_clean_linker_0, # of connection points: 2
#     Edge 261, Type (0, 0), BuildingBlock: OJICUG_clean_linker_0, # of connection points: 2
#     Edge 262, Type (0, 0), BuildingBlock: OJICUG_clean_linker_0, # of connection points: 2
#     Edge 263, Type (0, 0), BuildingBlock: OJICUG_clean_linker_0, # of connection points: 2
#     Edge 264, Type (0, 0), BuildingBlock: OJICUG_clean_linker_0, # of connection points: 2
#     Edge 265, Type (0, 0), BuildingBlock: OJICUG_clean_linker_0, # of connection points: 2
#     Edge 266, Type (0, 0), BuildingBlock: OJICUG_clean_linker_0, # of connection points: 2
#     Edge 267, Type (0, 0), BuildingBlock: OJICUG_clean_linker_0, # of connection points: 2
#     Edge 268, Type (0, 0), BuildingBlock: OJICUG_clean_linker_0, # of connection points: 2
#     Edge 269, Type (0, 0), BuildingBlock: OJICUG_clean_linker_0, # of connection points: 2
#     Edge 270, Type (0, 0), BuildingBlock: OJICUG_clean_linker_0, # of connection points: 2
#     Edge 271, Type (0, 0), BuildingBlock: OJICUG_clean_linker_0, # of connection points: 2
#     Edge 272, Type (0, 0), BuildingBlock: OJICUG_clean_linker_0, # of connection points: 2
#     Edge 273, Type (0, 0), BuildingBlock: OJICUG_clean_linker_0, # of connection points: 2
#     Edge 274, Type (0, 0), BuildingBlock: OJICUG_clean_linker_0, # of connection points: 2
#     Edge 275, Type (0, 0), BuildingBlock: OJICUG_clean_linker_0, # of connection points: 2
#     Edge 276, Type (0, 0), BuildingBlock: OJICUG_clean_linker_0, # of connection points: 2
#     Edge 277, Type (0, 0), BuildingBlock: OJICUG_clean_linker_0, # of connection points: 2
#     Edge 278, Type (0, 0), BuildingBlock: OJICUG_clean_linker_0, # of connection points: 2
#     Edge 279, Type (0, 0), BuildingBlock: OJICUG_clean_linker_0, # of connection points: 2
#     Edge 280, Type (0, 0), BuildingBlock: OJICUG_clean_linker_0, # of connection points: 2
#     Edge 281, Type (0, 0), BuildingBlock: OJICUG_clean_linker_0, # of connection points: 2
#     Edge 282, Type (0, 0), BuildingBlock: OJICUG_clean_linker_0, # of connection points: 2
#     Edge 283, Type (0, 0), BuildingBlock: OJICUG_clean_linker_0, # of connection points: 2
#     Edge 284, Type (0, 0), BuildingBlock: OJICUG_clean_linker_0, # of connection points: 2
#     Edge 285, Type (0, 0), BuildingBlock: OJICUG_clean_linker_0, # of connection points: 2
#     Edge 286, Type (0, 0), BuildingBlock: OJICUG_clean_linker_0, # of connection points: 2
#     Edge 287, Type (0, 0), BuildingBlock: OJICUG_clean_linker_0, # of connection points: 2
#     Edge 288, Type (0, 0), BuildingBlock: OJICUG_clean_linker_0, # of connection points: 2
#     Edge 289, Type (0, 0), BuildingBlock: OJICUG_clean_linker_0, # of connection points: 2
#     Edge 290, Type (0, 0), BuildingBlock: OJICUG_clean_linker_0, # of connection points: 2
#     Edge 291, Type (0, 0), BuildingBlock: OJICUG_clean_linker_0, # of connection points: 2
#     Edge 292, Type (0, 0), BuildingBlock: OJICUG_clean_linker_0, # of connection points: 2
#     Edge 293, Type (0, 0), BuildingBlock: OJICUG_clean_linker_0, # of connection points: 2
#     Edge 294, Type (0, 0), BuildingBlock: OJICUG_clean_linker_0, # of connection points: 2
#     Edge 295, Type (0, 0), BuildingBlock: OJICUG_clean_linker_0, # of connection points: 2
#     Edge 296, Type (0, 0), BuildingBlock: OJICUG_clean_linker_0, # of connection points: 2
#     Edge 297, Type (0, 0), BuildingBlock: OJICUG_clean_linker_0, # of connection points: 2
#     Edge 298, Type (0, 0), BuildingBlock: OJICUG_clean_linker_0, # of connection points: 2
#     Edge 299, Type (0, 0), BuildingBlock: OJICUG_clean_linker_0, # of connection points: 2
#     Edge 300, Type (0, 0), BuildingBlock: OJICUG_clean_linker_0, # of connection points: 2
#     Edge 301, Type (0, 0), BuildingBlock: OJICUG_clean_linker_0, # of connection points: 2
#     Edge 302, Type (0, 0), BuildingBlock: OJICUG_clean_linker_0, # of connection points: 2
#     Edge 303, Type (0, 0), BuildingBlock: OJICUG_clean_linker_0, # of connection points: 2
#     Edge 304, Type (0, 0), BuildingBlock: OJICUG_clean_linker_0, # of connection points: 2
#     Edge 305, Type (0, 0), BuildingBlock: OJICUG_clean_linker_0, # of connection points: 2
#     Edge 306, Type (0, 0), BuildingBlock: OJICUG_clean_linker_0, # of connection points: 2
#     Edge 307, Type (0, 0), BuildingBlock: OJICUG_clean_linker_0, # of connection points: 2
#     Edge 308, Type (0, 0), BuildingBlock: OJICUG_clean_linker_0, # of connection points: 2
#     Edge 309, Type (0, 0), BuildingBlock: OJICUG_clean_linker_0, # of connection points: 2
#     Edge 310, Type (0, 0), BuildingBlock: OJICUG_clean_linker_0, # of connection points: 2
#     Edge 311, Type (0, 0), BuildingBlock: OJICUG_clean_linker_0, # of connection points: 2
#     Edge 312, Type (0, 0), BuildingBlock: OJICUG_clean_linker_0, # of connection points: 2
#     Edge 313, Type (0, 0), BuildingBlock: OJICUG_clean_linker_0, # of connection points: 2
#     Edge 314, Type (0, 0), BuildingBlock: OJICUG_clean_linker_0, # of connection points: 2
#     Edge 315, Type (0, 0), BuildingBlock: OJICUG_clean_linker_0, # of connection points: 2
#     Edge 316, Type (0, 0), BuildingBlock: OJICUG_clean_linker_0, # of connection points: 2
#     Edge 317, Type (0, 0), BuildingBlock: OJICUG_clean_linker_0, # of connection points: 2
#     Edge 318, Type (0, 0), BuildingBlock: OJICUG_clean_linker_0, # of connection points: 2
#     Edge 319, Type (0, 0), BuildingBlock: OJICUG_clean_linker_0, # of connection points: 2
#     Edge 320, Type (0, 0), BuildingBlock: OJICUG_clean_linker_0, # of connection points: 2
#     Edge 321, Type (0, 0), BuildingBlock: OJICUG_clean_linker_0, # of connection points: 2
#     Edge 322, Type (0, 0), BuildingBlock: OJICUG_clean_linker_0, # of connection points: 2
#     Edge 323, Type (0, 0), BuildingBlock: OJICUG_clean_linker_0, # of connection points: 2
#     Edge 324, Type (0, 0), BuildingBlock: OJICUG_clean_linker_0, # of connection points: 2
#     Edge 325, Type (0, 0), BuildingBlock: OJICUG_clean_linker_0, # of connection points: 2
#     Edge 326, Type (0, 0), BuildingBlock: OJICUG_clean_linker_0, # of connection points: 2
#     Edge 327, Type (0, 0), BuildingBlock: OJICUG_clean_linker_0, # of connection points: 2
#     Edge 328, Type (0, 0), BuildingBlock: OJICUG_clean_linker_0, # of connection points: 2
#     Edge 329, Type (0, 0), BuildingBlock: OJICUG_clean_linker_0, # of connection points: 2
#     Edge 330, Type (0, 0), BuildingBlock: OJICUG_clean_linker_0, # of connection points: 2
#     Edge 331, Type (0, 0), BuildingBlock: OJICUG_clean_linker_0, # of connection points: 2
#     Edge 332, Type (0, 0), BuildingBlock: OJICUG_clean_linker_0, # of connection points: 2
#     Edge 333, Type (0, 0), BuildingBlock: OJICUG_clean_linker_0, # of connection points: 2
#     Edge 334, Type (0, 0), BuildingBlock: OJICUG_clean_linker_0, # of connection points: 2
#     Edge 335, Type (0, 0), BuildingBlock: OJICUG_clean_linker_0, # of connection points: 2
# Relax obj value: 0.844
# Max RMSD: 0.228
# Mean RMSD: 0.228
data_MOF--net-crs-a--node1-XOMCOT_clean_sbu_0--edge1-OJICUG_clean_linker_0
_symmetry_space_group_name_H-M    P1
_symmetry_Int_Tables_number       1
_symmetry_cell_setting            triclinic
loop_
_symmetry_equiv_pos_as_xyz
'x, y, z'
_cell_length_a     78.04585
_cell_length_b     78.098763
_cell_length_c     78.117985
_cell_angle_alpha  89.996472
_cell_angle_beta   90.040796
_cell_angle_gamma 90.056966
loop_
_atom_site_label
_atom_site_type_symbol
_atom_site_fract_x
_atom_site_fract_y
_atom_site_fract_z
_atom_type_partial_charge
Co0 Co 0.05628 0.05998 0.44614 0.0
C1 C 0.06902 0.0298 0.46574 0.0
C2 C 0.06249 0.05069 0.48223 0.0
C3 C 0.06821 0.03731 0.49215 0.0
N4 N 0.06264 0.04588 0.46564 0.0
N5 N 0.07221 0.02418 0.48172 0.0
H6 H 0.07142 0.02222 0.45447 0.0
H7 H 0.0585 0.06305 0.48694 0.0
C8 C 0.02642 0.07645 0.4611 0.0
O9 O 0.01838 0.07187 0.44707 0.0
N10 N 0.05018 0.07458 0.42678 0.0
C11 C 0.05328 0.09151 0.42497 0.0
C12 C 0.04214 0.09819 0.41302 0.0
C13 C 0.03771 0.07122 0.4153 0.0
N14 N 0.03216 0.0854 0.40714 0.0
C15 C 0.09211 0.06404 0.44673 0.0
C16 C 0.09271 0.09373 0.46587 0.0
C17 C 0.10813 0.08507 0.46271 0.0
C18 C 0.10767 0.07 0.45303 0.0
C19 C 0.07738 0.08709 0.45973 0.0
N20 N 0.0772 0.07247 0.45017 0.0
H21 H 0.09201 0.05208 0.43984 0.0
H22 H 0.06573 0.09385 0.46274 0.0
H23 H 0.0617 0.09906 0.43287 0.0
H24 H 0.03089 0.05919 0.41471 0.0
O25 O 0.06454 0.04248 0.43052 0.0
O26 O 0.03824 0.04411 0.44085 0.0
O27 O 0.04265 0.07478 0.462 0.0
C28 C 0.04945 0.03553 0.43208 0.0
H29 H 0.06864 0.03702 0.506 0.0
H30 H 0.04022 0.11165 0.41035 0.0
H31 H 0.09241 0.10575 0.47276 0.0
H32 H 0.11921 0.06277 0.45038 0.0
Co33 Co 0.93372 0.30288 0.69298 0.0
C34 C 0.95678 0.31817 0.71952 0.0
C35 C 0.93537 0.30527 0.73074 0.0
C36 C 0.94482 0.31273 0.74362 0.0
N37 N 0.94302 0.30834 0.71556 0.0
N38 N 0.9583 0.3208 0.7365 0.0
H39 H 0.96527 0.32393 0.71027 0.0
H40 H 0.9234 0.29864 0.73242 0.0
C41 C 0.92355 0.2683 0.70486 0.0
O42 O 0.93654 0.26235 0.69606 0.0
N43 N 0.92414 0.29814 0.67055 0.0
C44 C 0.91245 0.30743 0.66179 0.0
C45 C 0.90455 0.29695 0.64996 0.0
C46 C 0.92415 0.28277 0.66293 0.0
N47 N 0.91199 0.28144 0.65078 0.0
C48 C 0.92047 0.3358 0.70022 0.0
C49 C 0.88675 0.3253 0.70382 0.0
C50 C 0.89113 0.34235 0.70707 0.0
C51 C 0.90817 0.34765 0.70517 0.0
C52 C 0.89939 0.31391 0.69887 0.0
N53 N 0.91598 0.31921 0.69733 0.0
H54 H 0.93367 0.33979 0.69897 0.0
H55 H 0.89573 0.30089 0.69602 0.0
H56 H 0.90853 0.32032 0.66493 0.0
H57 H 0.93126 0.27194 0.66764 0.0
O58 O 0.95123 0.31718 0.68241 0.0
O59 O 0.95325 0.28943 0.68787 0.0
O60 O 0.9196 0.28415 0.70386 0.0
C61 C 0.96064 0.30337 0.6829 0.0
H62 H 0.94208 0.31208 0.75718 0.0
H63 H 0.89303 0.29988 0.6428 0.0
H64 H 0.87367 0.32081 0.70505 0.0
H65 H 0.91191 0.36086 0.70723 0.0
Co66 Co 0.69223 0.18821 0.95024 0.0
C67 C 0.66886 0.2027 0.97615 0.0
C68 C 0.69343 0.19695 0.98708 0.0
C69 C 0.68351 0.20474 -0.00067 0.0
N70 N 0.68422 0.19566 0.97253 0.0
N71 N 0.66815 0.20852 0.99237 0.0
H72 H 0.65877 0.20459 0.96684 0.0
H73 H 0.70675 0.19351 0.98853 0.0
C74 C 0.71786 0.16337 0.96716 0.0
O75 O 0.70918 0.1494 0.96366 0.0
N76 N 0.70027 0.18097 0.92779 0.0
C77 C 0.69735 0.18825 0.91237 0.0
C78 C 0.70536 0.17868 0.8999 0.0
C79 C 0.70966 0.16697 0.92432 0.0
N80 N 0.71312 0.16525 0.90748 0.0
C81 C 0.66888 0.16329 0.93832 0.0
C82 C 0.66383 0.14705 0.96939 0.0
C83 C 0.6542 0.14215 0.95514 0.0
C84 C 0.65688 0.15026 0.93943 0.0
C85 C 0.67586 0.16006 0.96767 0.0
N86 N 0.67843 0.16784 0.9522 0.0
H87 H 0.66993 0.17023 0.92643 0.0
H88 H 0.68302 0.16394 0.97885 0.0
H89 H 0.69024 0.19991 0.91018 0.0
H90 H 0.71489 0.15873 0.934 0.0
O91 O 0.67529 0.20278 0.93963 0.0
O92 O 0.70184 0.21043 0.94702 0.0
O93 O 0.71308 0.178 0.96167 0.0
C94 C 0.68679 0.21476 0.9413 0.0
H95 H 0.68785 0.20884 0.01184 0.0
H96 H 0.70621 0.18192 0.88646 0.0
H97 H 0.66192 0.14102 0.98174 0.0
H98 H 0.64924 0.14707 0.92829 0.0
Co99 Co 0.80579 0.93334 0.20422 0.0
C100 C 0.77722 0.91706 0.22377 0.0
C101 C 0.7986 0.92262 0.23994 0.0
C102 C 0.78565 0.91597 0.24984 0.0
N103 N 0.79318 0.92379 0.22359 0.0
N104 N 0.77211 0.91261 0.23966 0.0
H105 H 0.76935 0.91544 0.21256 0.0
H106 H 0.81097 0.92655 0.24456 0.0
C107 C 0.83543 0.95354 0.22223 0.0
O108 O 0.84476 0.95672 0.20865 0.0
N109 N 0.81826 0.94228 0.18482 0.0
C110 C 0.82431 0.93327 0.17136 0.0
C111 C 0.83299 0.94425 0.16056 0.0
C112 C 0.82271 0.95861 0.18174 0.0
N113 N 0.83222 0.96001 0.16742 0.0
C114 C 0.811 0.89772 0.20257 0.0
C115 C 0.84597 0.8987 0.20791 0.0
C116 C 0.83741 0.88298 0.20752 0.0
C117 C 0.81985 0.88241 0.20433 0.0
C118 C 0.83668 0.91363 0.20592 0.0
N119 N 0.81938 0.913 0.20395 0.0
H120 H 0.79731 0.89737 0.20058 0.0
H121 H 0.84343 0.92557 0.20587 0.0
H122 H 0.82269 0.91963 0.16959 0.0
H123 H 0.81941 0.96923 0.19002 0.0
O124 O 0.78792 0.92623 0.18877 0.0
O125 O 0.78888 0.95119 0.20228 0.0
O126 O 0.82142 0.94501 0.22142 0.0
C127 C 0.78036 0.94058 0.1926 0.0
H128 H 0.78592 0.91469 0.26363 0.0
H129 H 0.83954 0.94094 0.14881 0.0
H130 H 0.85973 0.89941 0.20965 0.0
H131 H 0.81303 0.87034 0.2036 0.0
Co132 Co 0.04675 0.17965 0.78643 0.0
C133 C 0.06479 0.20502 0.76371 0.0
C134 C 0.06588 0.17935 0.75416 0.0
C135 C 0.07476 0.18979 0.74311 0.0
N136 N 0.05943 0.18889 0.76703 0.0
N137 N 0.07407 0.20593 0.74916 0.0
H138 H 0.06186 0.21601 0.77147 0.0
H139 H 0.06443 0.16563 0.753 0.0
C140 C 0.024 0.1524 0.76758 0.0
O141 O 0.0184 0.14396 0.78098 0.0
N142 N 0.03505 0.17013 0.80602 0.0
C143 C 0.0428 0.16584 0.82088 0.0
C144 C 0.03087 0.15891 0.8318 0.0
C145 C 0.01841 0.16636 0.80831 0.0
N146 N 0.01569 0.15894 0.82368 0.0
C147 C 0.08075 0.16969 0.79227 0.0
C148 C 0.07455 0.13481 0.7921 0.0
C149 C 0.09129 0.14098 0.7935 0.0
C150 C 0.0944 0.15857 0.79412 0.0
C151 C 0.0613 0.14638 0.79024 0.0
N152 N 0.06464 0.16347 0.78977 0.0
H153 H 0.08309 0.18333 0.79223 0.0
H154 H 0.04845 0.14162 0.78928 0.0
H155 H 0.05629 0.16757 0.82357 0.0
H156 H 0.00846 0.16914 0.79905 0.0
O157 O 0.05508 0.19773 0.80108 0.0
O158 O 0.03114 0.19842 0.78565 0.0
O159 O 0.03454 0.16484 0.76904 0.0
C160 C 0.04169 0.20624 0.79595 0.0
H161 H 0.0812 0.18578 0.73152 0.0
H162 H 0.0331 0.15423 0.84466 0.0
H163 H 0.07184 0.12119 0.79192 0.0
H164 H 0.10729 0.16364 0.79511 0.0
Co165 Co 0.80138 0.29639 0.03228 0.0
C166 C 0.78367 0.31602 0.00545 0.0
C167 C 0.7947 0.29309 -0.00488 0.0
C168 C 0.7853 0.30102 0.9825 0.0
N169 N 0.79358 0.30249 0.00954 0.0
N170 N 0.77821 0.31531 0.98911 0.0
H171 H 0.77941 0.32554 0.01456 0.0
H172 H 0.80083 0.28074 0.99405 0.0
C173 C 0.83297 0.27616 0.01998 0.0
O174 O 0.8443 0.28584 0.02778 0.0
N175 N 0.80918 0.29048 0.05529 0.0
C176 C 0.80443 0.29775 0.07027 0.0
C177 C 0.81353 0.29041 0.08348 0.0
C178 C 0.8208 0.27854 0.0598 0.0
N179 N 0.82401 0.27852 0.07678 0.0
C180 C 0.81717 0.32703 0.04287 0.0
C181 C 0.83977 0.32972 0.0158 0.0
C182 C 0.83991 0.34217 0.02871 0.0
C183 C 0.82793 0.34106 0.04198 0.0
C184 C 0.82821 0.31623 0.01686 0.0
N185 N 0.81796 0.31444 0.03087 0.0
H186 H 0.80783 0.32659 0.05298 0.0
H187 H 0.82757 0.30718 0.00646 0.0
H188 H 0.79481 0.30759 0.0717 0.0
H189 H 0.82595 0.26911 0.05118 0.0
O190 O 0.78284 0.3095 0.04177 0.0
O191 O 0.7816 0.28196 0.03463 0.0
O192 O 0.8169 0.2788 0.0215 0.0
C193 C 0.77368 0.29577 0.03963 0.0
H194 H 0.78243 0.29575 0.97 0.0
H195 H 0.81214 0.29321 0.09698 0.0
H196 H 0.84858 0.33016 0.00512 0.0
H197 H 0.82679 0.35092 0.05165 0.0
Co198 Co 0.68453 0.05753 0.28517 0.0
C199 C 0.6675 0.03138 0.26242 0.0
C200 C 0.66656 0.0568 0.25226 0.0
C201 C 0.65848 0.04598 0.24096 0.0
N202 N 0.67232 0.04768 0.26574 0.0
N203 N 0.65911 0.02994 0.24734 0.0
H204 H 0.67035 0.02065 0.27051 0.0
H205 H 0.66817 0.07047 0.25071 0.0
C206 C 0.71047 0.08123 0.26579 0.0
O207 O 0.71571 0.09072 0.2786 0.0
N208 N 0.69604 0.06769 0.3046 0.0
C209 C 0.6884 0.07416 0.31872 0.0
C210 C 0.70072 0.08129 0.32917 0.0
C211 C 0.71288 0.07022 0.307 0.0
N212 N 0.71594 0.07906 0.32149 0.0
C213 C 0.65111 0.06947 0.28946 0.0
C214 C 0.65921 0.10393 0.28996 0.0
C215 C 0.64245 0.09858 0.29347 0.0
C216 C 0.63833 0.0812 0.29299 0.0
C217 C 0.6716 0.09175 0.28638 0.0
N218 N 0.66743 0.07484 0.28645 0.0
H219 H 0.64804 0.05597 0.28945 0.0
H220 H 0.68462 0.09583 0.28448 0.0
H221 H 0.67474 0.07406 0.32107 0.0
H222 H 0.72271 0.06599 0.2982 0.0
O223 O 0.6744 0.0411 0.30063 0.0
O224 O 0.69899 0.038 0.28662 0.0
O225 O 0.6986 0.0701 0.26754 0.0
C226 C 0.68754 0.03155 0.29687 0.0
H227 H 0.65276 0.0497 0.22891 0.0
H228 H 0.69869 0.08795 0.34116 0.0
H229 H 0.66279 0.11733 0.29039 0.0
H230 H 0.62539 0.07672 0.29532 0.0
Co231 Co 0.93405 0.94439 0.54326 0.0
C232 C 0.95514 0.92353 0.51912 0.0
C233 C 0.94335 0.94489 0.50649 0.0
C234 C 0.95347 0.93644 0.49492 0.0
N235 N 0.94424 0.93678 0.52173 0.0
N236 N 0.96101 0.92312 0.50287 0.0
H237 H 0.95945 0.9149 0.52905 0.0
H238 H 0.93651 0.95661 0.50393 0.0
C239 C 0.9057 0.96549 0.52622 0.0
O240 O 0.89315 0.95641 0.53277 0.0
N241 N 0.9241 0.95219 0.56481 0.0
C242 C 0.92726 0.94646 0.58085 0.0
C243 C 0.91841 0.95644 0.59243 0.0
C244 C 0.91369 0.96573 0.56704 0.0
N245 N 0.9097 0.96841 0.58361 0.0
C246 C 0.91293 0.9169 0.55377 0.0
C247 C 0.89655 0.91221 0.52271 0.0
C248 C 0.89256 0.90162 0.53654 0.0
C249 C 0.90093 0.90394 0.55218 0.0
C250 C 0.90862 0.92509 0.52489 0.0
N251 N 0.91621 0.92765 0.54045 0.0
H252 H 0.91999 0.91788 0.56555 0.0
H253 H 0.91174 0.93308 0.51407 0.0
H254 H 0.9359 0.93616 0.5841 0.0
H255 H 0.91044 0.97469 0.55711 0.0
O256 O 0.95026 0.9304 0.5555 0.0
O257 O 0.95418 0.9575 0.5476 0.0
O258 O 0.92131 0.96253 0.53007 0.0
C259 C 0.96055 0.94344 0.55391 0.0
H260 H 0.95624 0.94066 0.482 0.0
H261 H 0.91912 0.95559 0.60624 0.0
H262 H 0.89042 0.91055 0.51037 0.0
H263 H 0.89859 0.89549 0.56293 0.0
Co264 Co 0.4543 0.04989 0.05937 0.0
C265 C 0.47392 0.06039 0.02793 0.0
C266 C 0.48991 0.0581 0.0501 0.0
C267 C 0.49987 0.06336 0.03659 0.0
N268 N 0.47362 0.056 0.0447 0.0
N269 N 0.4898 0.06482 0.02265 0.0
H270 H 0.4628 0.06092 0.01977 0.0
H271 H 0.49431 0.05632 0.06307 0.0
C272 C 0.47178 0.02783 0.08748 0.0
O273 O 0.45798 0.02385 0.09617 0.0
N274 N 0.43512 0.04424 0.07396 0.0
C275 C 0.42346 0.055 0.08091 0.0
C276 C 0.41078 0.04543 0.08875 0.0
C277 C 0.42911 0.02847 0.07713 0.0
N278 N 0.41475 0.02884 0.08661 0.0
C279 C 0.45707 0.08561 0.06194 0.0
C280 C 0.46247 0.08688 0.09689 0.0
C281 C 0.46167 0.10201 0.08736 0.0
C282 C 0.45914 0.10143 0.06974 0.0
C283 C 0.4605 0.0713 0.08856 0.0
N284 N 0.45769 0.07093 0.07136 0.0
H285 H 0.45478 0.0851 0.04832 0.0
H286 H 0.46055 0.05966 0.09597 0.0
H287 H 0.42376 0.0688 0.0798 0.0
H288 H 0.43491 0.01686 0.07224 0.0
O289 O 0.43825 0.05769 0.04243 0.0
O290 O 0.44863 0.03131 0.04426 0.0
O291 O 0.47129 0.03752 0.07432 0.0
C292 C 0.43925 0.04235 0.03599 0.0
H293 H 0.51354 0.06563 0.03697 0.0
H294 H 0.39936 0.05019 0.095 0.0
H295 H 0.46407 0.08718 0.11067 0.0
H296 H 0.45819 0.11305 0.06222 0.0
Co297 Co 0.93639 0.69907 0.30751 0.0
C298 C 0.91805 0.72155 0.28288 0.0
C299 C 0.92493 0.73521 0.30561 0.0
C300 C 0.91694 0.74637 0.29451 0.0
N301 N 0.92601 0.71969 0.29811 0.0
N302 N 0.91273 0.73771 0.28017 0.0
H303 H 0.91601 0.71135 0.27381 0.0
H304 H 0.92984 0.73836 0.31815 0.0
C305 C 0.95992 0.72259 0.33307 0.0
O306 O 0.95992 0.71914 0.34953 0.0
N307 N 0.94627 0.67868 0.31722 0.0
C308 C 0.93925 0.66292 0.31844 0.0
C309 C 0.95022 0.65257 0.32774 0.0
C310 C 0.96109 0.67781 0.32584 0.0
N311 N 0.96367 0.6622 0.33266 0.0
C312 C 0.90192 0.69675 0.31747 0.0
C313 C 0.90779 0.69681 0.35241 0.0
C314 C 0.89099 0.69618 0.34615 0.0
C315 C 0.88806 0.69598 0.32851 0.0
C316 C 0.92133 0.69741 0.34087 0.0
N317 N 0.91818 0.69771 0.32373 0.0
H318 H 0.89965 0.69678 0.30383 0.0
H319 H 0.93428 0.69747 0.34568 0.0
H320 H 0.92703 0.65925 0.31303 0.0
H321 H 0.9702 0.68822 0.32669 0.0
O322 O 0.92654 0.68549 0.28941 0.0
O323 O 0.95202 0.69821 0.28865 0.0
O324 O 0.95079 0.71347 0.32308 0.0
C325 C 0.94028 0.68933 0.28078 0.0
H326 H 0.91513 0.75996 0.29653 0.0
H327 H 0.94858 0.63909 0.33052 0.0
H328 H 0.9104 0.69668 0.36603 0.0
H329 H 0.87519 0.69555 0.32333 0.0
Co330 Co 0.28607 0.19287 0.55572 0.0
C331 C 0.26323 0.17973 0.52818 0.0
C332 C 0.24922 0.18615 0.55084 0.0
C333 C 0.23801 0.17917 0.53914 0.0
N334 N 0.26504 0.18671 0.5439 0.0
N335 N 0.24694 0.17519 0.52496 0.0
H336 H 0.27356 0.17721 0.51939 0.0
H337 H 0.24606 0.18994 0.56373 0.0
C338 C 0.27132 0.22429 0.57068 0.0
O339 O 0.28141 0.23285 0.56035 0.0
N340 N 0.3071 0.19846 0.56783 0.0
C341 C 0.31648 0.1885 0.57851 0.0
C342 C 0.32945 0.19822 0.58564 0.0
C343 C 0.31505 0.21371 0.56796 0.0
N344 N 0.32848 0.21393 0.57875 0.0
C345 C 0.28236 0.15781 0.56328 0.0
C346 C 0.27806 0.16171 0.5982 0.0
C347 C 0.27914 0.14532 0.59109 0.0
C348 C 0.28071 0.14332 0.57342 0.0
C349 C 0.2796 0.17585 0.5876 0.0
N350 N 0.28231 0.1737 0.57049 0.0
H351 H 0.28413 0.15631 0.54965 0.0
H352 H 0.27973 0.18843 0.59333 0.0
H353 H 0.31397 0.17519 0.58135 0.0
H354 H 0.31102 0.2247 0.56065 0.0
O355 O 0.29959 0.18199 0.53812 0.0
O356 O 0.29127 0.2091 0.53794 0.0
O357 O 0.2722 0.20801 0.57121 0.0
C358 C 0.29877 0.19654 0.53003 0.0
H359 H 0.22438 0.17725 0.54086 0.0
H360 H 0.33851 0.19427 0.59536 0.0
H361 H 0.27688 0.16352 0.6119 0.0
H362 H 0.28168 0.13074 0.56766 0.0
Co363 Co 0.80427 0.53995 0.81172 0.0
C364 C 0.82577 0.51862 0.78903 0.0
C365 C 0.81048 0.50307 0.80567 0.0
C366 C 0.81898 0.49259 0.79443 0.0
N367 N 0.81449 0.51947 0.80208 0.0
N368 N 0.82838 0.50239 0.78375 0.0
H369 H 0.83109 0.52969 0.78264 0.0
H370 H 0.80116 0.49885 0.81495 0.0
C371 C 0.7815 0.52624 0.84088 0.0
O372 O 0.78171 0.54025 0.85015 0.0
N373 N 0.79426 0.56032 0.82139 0.0
C374 C 0.80186 0.57368 0.82936 0.0
C375 C 0.78926 0.5845 0.83553 0.0
C376 C 0.77737 0.56335 0.82242 0.0
N377 N 0.77401 0.57776 0.83119 0.0
C378 C 0.83753 0.5494 0.82161 0.0
C379 C 0.84088 0.52519 0.84703 0.0
C380 C 0.85569 0.5328 0.84023 0.0
C381 C 0.85378 0.54534 0.82757 0.0
C382 C 0.82495 0.52907 0.84015 0.0
N383 N 0.82344 0.54074 0.82726 0.0
H384 H 0.83656 0.55878 0.81155 0.0
H385 H 0.81422 0.52174 0.84464 0.0
H386 H 0.81549 0.57526 0.83113 0.0
H387 H 0.76765 0.55463 0.81772 0.0
O388 O 0.81361 0.55346 0.79325 0.0
O389 O 0.78837 0.54053 0.79286 0.0
O390 O 0.7899 0.52497 0.82693 0.0
C391 C 0.80012 0.54899 0.78463 0.0
H392 H 0.81687 0.47895 0.79305 0.0
H393 H 0.7911 0.59592 0.84318 0.0
H394 H 0.84147 0.51602 0.85739 0.0
H395 H 0.86468 0.55169 0.82184 0.0
Co396 Co 0.44627 0.1885 0.18123 0.0
C397 C 0.47179 0.17886 0.20862 0.0
C398 C 0.48336 0.18545 0.18463 0.0
C399 C 0.49615 0.1817 0.19606 0.0
N400 N 0.46802 0.18363 0.1924 0.0
N401 N 0.48886 0.17749 0.21109 0.0
H402 H 0.46251 0.17717 0.21865 0.0
H403 H 0.48515 0.18942 0.17149 0.0
C404 C 0.45945 0.22355 0.18154 0.0
O405 O 0.45152 0.22534 0.19624 0.0
N406 N 0.42501 0.19372 0.16973 0.0
C407 C 0.41661 0.18463 0.15762 0.0
C408 C 0.40504 0.19535 0.14953 0.0
C409 C 0.41797 0.20935 0.1694 0.0
N410 N 0.4059 0.21075 0.1572 0.0
C411 C 0.45858 0.15997 0.16315 0.0
C412 C 0.45815 0.17505 0.13101 0.0
C413 C 0.4617 0.15763 0.13273 0.0
C414 C 0.4625 0.15016 0.14895 0.0
C415 C 0.45457 0.18453 0.14565 0.0
N416 N 0.45424 0.17672 0.1613 0.0
H417 H 0.45841 0.15404 0.17566 0.0
H418 H 0.45089 0.1978 0.1443 0.0
H419 H 0.41981 0.17171 0.1538 0.0
H420 H 0.42287 0.22008 0.17668 0.0
O421 O 0.43525 0.16958 0.19294 0.0
O422 O 0.43644 0.19637 0.20231 0.0
O423 O 0.45696 0.21015 0.17262 0.0
C424 C 0.43124 0.18073 0.20461 0.0
H425 H 0.50978 0.1821 0.19356 0.0
H426 H 0.39765 0.19249 0.13815 0.0
H427 H 0.45713 0.18094 0.11849 0.0
H428 H 0.46504 0.1366 0.15048 0.0
Co429 Co 0.79489 0.69359 0.43754 0.0
C430 C 0.81855 0.71933 0.4533 0.0
C431 C 0.79507 0.73072 0.44474 0.0
C432 C 0.80474 0.74309 0.45256 0.0
N433 N 0.80373 0.71578 0.44498 0.0
N434 N 0.81942 0.73594 0.45812 0.0
H435 H 0.82804 0.70981 0.45668 0.0
H436 H 0.78216 0.73252 0.44021 0.0
C437 C 0.77115 0.71153 0.41154 0.0
O438 O 0.78019 0.70765 0.39794 0.0
N439 N 0.78565 0.6716 0.43028 0.0
C440 C 0.7831 0.65716 0.43939 0.0
C441 C 0.77434 0.64558 0.42932 0.0
C442 C 0.77882 0.66832 0.41481 0.0
N443 N 0.77142 0.6527 0.41381 0.0
C444 C 0.8183 0.67984 0.41367 0.0
C445 C 0.82553 0.71015 0.39687 0.0
C446 C 0.83439 0.69525 0.39249 0.0
C447 C 0.8306 0.67991 0.40087 0.0
C448 C 0.81321 0.70948 0.40967 0.0
N449 N 0.8095 0.69438 0.41768 0.0
H450 H 0.81627 0.66818 0.42083 0.0
H451 H 0.8067 0.72116 0.41313 0.0
H452 H 0.78644 0.65535 0.45269 0.0
H453 H 0.77829 0.67771 0.40482 0.0
O454 O 0.81076 0.68238 0.45277 0.0
O455 O 0.78444 0.69129 0.45946 0.0
O456 O 0.775 0.70571 0.42633 0.0
C457 C 0.79906 0.68492 0.46435 0.0
H458 H 0.80056 0.75601 0.45537 0.0
H459 H 0.76937 0.63341 0.4337 0.0
H460 H 0.82829 0.72224 0.39064 0.0
H461 H 0.83763 0.66828 0.39812 0.0
Co462 Co 0.29599 0.04631 0.6778 0.0
C463 C 0.2709 0.05878 0.70418 0.0
C464 C 0.26031 0.05841 0.6789 0.0
C465 C 0.24829 0.06526 0.68985 0.0
N466 N 0.27459 0.05441 0.68784 0.0
N467 N 0.25507 0.0654 0.70567 0.0
H468 H 0.27946 0.05765 0.71488 0.0
H469 H 0.25882 0.0568 0.66524 0.0
C470 C 0.28026 0.01366 0.66778 0.0
O471 O 0.2914 0.00627 0.67792 0.0
N472 N 0.3173 0.03868 0.66733 0.0
C473 C 0.3266 0.04615 0.65472 0.0
C474 C 0.3394 0.0351 0.64964 0.0
C475 C 0.32536 0.02381 0.67042 0.0
N476 N 0.33863 0.02122 0.65974 0.0
C477 C 0.29403 0.08004 0.66557 0.0
C478 C 0.28772 0.0719 0.63162 0.0
C479 C 0.28839 0.08906 0.63671 0.0
C480 C 0.29143 0.0931 0.6539 0.0
C481 C 0.29024 0.05917 0.64379 0.0
N482 N 0.29345 0.06342 0.66045 0.0
H483 H 0.29611 0.0832 0.67887 0.0
H484 H 0.29011 0.04596 0.63972 0.0
H485 H 0.32405 0.05848 0.64902 0.0
H486 H 0.32112 0.01443 0.67964 0.0
O487 O 0.30924 0.05895 0.69482 0.0
O488 O 0.30014 0.03226 0.69728 0.0
O489 O 0.28181 0.02956 0.66428 0.0
C490 C 0.30793 0.0452 0.70418 0.0
H491 H 0.23553 0.06957 0.68655 0.0
H492 H 0.34798 0.0367 0.63887 0.0
H493 H 0.2856 0.06839 0.61837 0.0
H494 H 0.29167 0.10625 0.65832 0.0
Co495 Co 0.93299 0.54009 0.94088 0.0
C496 C 0.91126 0.51522 0.96028 0.0
C497 C 0.93553 0.5045 0.95321 0.0
C498 C 0.92669 0.49254 0.96245 0.0
N499 N 0.9259 0.51879 0.95172 0.0
N500 N 0.91152 0.49928 0.96698 0.0
H501 H 0.90088 0.52417 0.96208 0.0
H502 H 0.94846 0.50284 0.94864 0.0
C503 C 0.96038 0.52438 0.91804 0.0
O504 O 0.95382 0.53106 0.90406 0.0
N505 N 0.94068 0.56138 0.93018 0.0
C506 C 0.93248 0.57654 0.92802 0.0
C507 C 0.94305 0.58767 0.9191 0.0
C508 C 0.9563 0.56402 0.92346 0.0
N509 N 0.95779 0.57938 0.91595 0.0
C510 C 0.90952 0.54532 0.91386 0.0
C511 C 0.91545 0.51482 0.89685 0.0
C512 C 0.90621 0.52784 0.88876 0.0
C513 C 0.90249 0.54284 0.89783 0.0
C514 C 0.9222 0.51787 0.91311 0.0
N515 N 0.92046 0.53361 0.9206 0.0
H516 H 0.90633 0.55678 0.92077 0.0
H517 H 0.92976 0.50798 0.91908 0.0
H518 H 0.91978 0.57948 0.93269 0.0
H519 H 0.96695 0.55535 0.92463 0.0
O520 O 0.91495 0.55225 0.95275 0.0
O521 O 0.94148 0.5483 0.96242 0.0
O522 O 0.95434 0.52794 0.93282 0.0
C523 C 0.92618 0.55449 0.96484 0.0
H524 H 0.93162 0.48034 0.96683 0.0
H525 H 0.9402 0.60069 0.91529 0.0
H526 H 0.9178 0.50269 0.89055 0.0
H527 H 0.89416 0.55263 0.89259 0.0
Co528 Co 0.05688 0.44471 0.04459 0.0
C529 C 0.02822 0.46675 0.05776 0.0
C530 C 0.05054 0.4813 0.05138 0.0
C531 C 0.03824 0.49232 0.05742 0.0
N532 N 0.0442 0.46524 0.05119 0.0
N533 N 0.02418 0.48313 0.06139 0.0
H534 H 0.01984 0.4562 0.06063 0.0
H535 H 0.06341 0.4848 0.0479 0.0
C536 C 0.06899 0.46232 0.01349 0.0
O537 O 0.05712 0.45376 0.00517 0.0
N538 N 0.06978 0.42453 0.03854 0.0
C539 C 0.07436 0.41134 0.04876 0.0
C540 C 0.08431 0.40004 0.03939 0.0
C541 C 0.07708 0.42123 0.02337 0.0
N542 N 0.08618 0.40664 0.0236 0.0
C543 C 0.06564 0.4504 0.07916 0.0
C544 C 0.10048 0.45414 0.07341 0.0
C545 C 0.09393 0.45611 0.08993 0.0
C546 C 0.07632 0.45426 0.09282 0.0
C547 C 0.08935 0.45031 0.06012 0.0
N548 N 0.07223 0.44867 0.06315 0.0
H549 H 0.05204 0.44897 0.08131 0.0
H550 H 0.09449 0.44847 0.04741 0.0
H551 H 0.07072 0.41005 0.06205 0.0
H552 H 0.07542 0.42892 0.01205 0.0
O553 O 0.03987 0.43047 0.05575 0.0
O554 O 0.03926 0.43873 0.02867 0.0
O555 O 0.07148 0.45947 0.02936 0.0
C556 C 0.03157 0.43113 0.04128 0.0
H557 H 0.03952 0.50607 0.05861 0.0
H558 H 0.08955 0.38796 0.0437 0.0
H559 H 0.1141 0.45507 0.07087 0.0
H560 H 0.0709 0.45571 0.1055 0.0
Co561 Co 0.55973 0.29147 0.19639 0.0
C562 C 0.52915 0.27173 0.18391 0.0
C563 C 0.5525 0.2579 0.18049 0.0
C564 C 0.53906 0.24767 0.17525 0.0
N565 N 0.54627 0.27298 0.18619 0.0
N566 N 0.52439 0.25643 0.17758 0.0
H567 H 0.52009 0.28157 0.18677 0.0
H568 H 0.5659 0.25444 0.18041 0.0
C569 C 0.58521 0.27093 0.21912 0.0
O570 O 0.59482 0.28386 0.2239 0.0
N571 N 0.57316 0.30996 0.20601 0.0
C572 C 0.58018 0.32318 0.19729 0.0
C573 C 0.5879 0.33421 0.20874 0.0
C574 C 0.5761 0.31345 0.22259 0.0
N575 N 0.58555 0.32777 0.22451 0.0
C576 C 0.56845 0.29216 0.16135 0.0
C577 C 0.6034 0.28837 0.16606 0.0
C578 C 0.59682 0.2901 0.14951 0.0
C579 C 0.57913 0.29193 0.14714 0.0
C580 C 0.59227 0.28853 0.17985 0.0
N581 N 0.5751 0.29036 0.17735 0.0
H582 H 0.55481 0.29376 0.15959 0.0
H583 H 0.59757 0.28789 0.19251 0.0
H584 H 0.57952 0.32482 0.18356 0.0
H585 H 0.57129 0.30576 0.23309 0.0
O586 O 0.54372 0.30835 0.18792 0.0
O587 O 0.54216 0.29535 0.21309 0.0
O588 O 0.57256 0.27288 0.20893 0.0
C589 C 0.53534 0.30593 0.20215 0.0
H590 H 0.53996 0.23456 0.17085 0.0
H591 H 0.59456 0.34601 0.2058 0.0
H592 H 0.61705 0.28735 0.16837 0.0
H593 H 0.5736 0.29316 0.13448 0.0
Co594 Co 0.7048 0.81151 0.43875 0.0
C595 C 0.72539 0.78063 0.42979 0.0
C596 C 0.74115 0.80109 0.43913 0.0
C597 C 0.75161 0.7879 0.43389 0.0
N598 N 0.72464 0.79655 0.43658 0.0
N599 N 0.7416 0.77512 0.42806 0.0
H600 H 0.71454 0.77342 0.42518 0.0
H601 H 0.74539 0.81343 0.44375 0.0
C602 C 0.71585 0.82471 0.47255 0.0
O603 O 0.70356 0.8158 0.47979 0.0
N604 N 0.68505 0.8264 0.44084 0.0
C605 C 0.67936 0.83955 0.43108 0.0
C606 C 0.66534 0.84695 0.43907 0.0
C607 C 0.67399 0.82553 0.45391 0.0
N608 N 0.66191 0.83772 0.45319 0.0
C609 C 0.71814 0.81813 0.40607 0.0
C610 C 0.72496 0.85252 0.41125 0.0
C611 C 0.72681 0.84537 0.39494 0.0
C612 C 0.72475 0.82771 0.39274 0.0
C613 C 0.71888 0.84231 0.42444 0.0
N614 N 0.71457 0.82565 0.42136 0.0
H615 H 0.71528 0.80475 0.404 0.0
H616 H 0.71624 0.84821 0.43666 0.0
H617 H 0.68512 0.84389 0.41928 0.0
H618 H 0.67525 0.81677 0.46453 0.0
O619 O 0.69122 0.79629 0.42485 0.0
O620 O 0.69403 0.79486 0.45308 0.0
O621 O 0.71737 0.82488 0.45637 0.0
C622 C 0.68774 0.78836 0.4391 0.0
H623 H 0.76548 0.78775 0.43416 0.0
H624 H 0.65868 0.85848 0.43522 0.0
H625 H 0.72634 0.86616 0.41337 0.0
H626 H 0.72635 0.82179 0.38029 0.0
Co627 Co 0.17849 0.94896 0.68938 0.0
C628 C 0.20809 0.96985 0.67701 0.0
C629 C 0.18735 0.98565 0.68543 0.0
C630 C 0.20035 -0.00393 0.67964 0.0
N631 N 0.19228 0.96915 0.68409 0.0
N632 N 0.21341 0.98608 0.6744 0.0
H633 H 0.21555 0.95881 0.67343 0.0
H634 H 0.17509 0.98998 0.69004 0.0
C635 C 0.1607 0.96297 0.71989 0.0
O636 O 0.16644 0.94996 0.7288 0.0
N637 N 0.16462 0.9287 0.69405 0.0
C638 C 0.1515 0.92197 0.68488 0.0
C639 C 0.1437 0.90928 0.69436 0.0
C640 C 0.16529 0.91906 0.7083 0.0
N641 N 0.15256 0.90745 0.70898 0.0
C642 C 0.17247 0.95313 0.65394 0.0
C643 C 0.1387 0.96339 0.65725 0.0
C644 C 0.14588 0.9614 0.64105 0.0
C645 C 0.16303 0.95671 0.63928 0.0
C646 C 0.14848 0.95967 0.67147 0.0
N647 N 0.16497 0.95416 0.66965 0.0
H648 H 0.18568 0.94921 0.65272 0.0
H649 H 0.14226 0.96008 0.68377 0.0
H650 H 0.14725 0.92625 0.67246 0.0
H651 H 0.17411 0.92126 0.71875 0.0
O652 O 0.19579 0.93436 0.67948 0.0
O653 O 0.19461 0.94264 0.70663 0.0
O654 O 0.16348 0.96374 0.70388 0.0
C655 C 0.20294 0.93481 0.69457 0.0
H656 H 0.20033 0.00992 0.67969 0.0
H657 H 0.13189 0.90268 0.69127 0.0
H658 H 0.12532 0.96675 0.65883 0.0
H659 H 0.16873 0.95492 0.62676 0.0
Co660 Co 0.54481 0.43855 0.43707 0.0
C661 C 0.51623 0.4557 0.41808 0.0
C662 C 0.51335 0.45676 0.44544 0.0
C663 C 0.49944 0.46448 0.43812 0.0
N664 N 0.52377 0.451 0.43296 0.0
N665 N 0.50123 0.46382 0.421 0.0
H666 H 0.52163 0.45343 0.40553 0.0
H667 H 0.51582 0.45579 0.45901 0.0
C668 C 0.52928 0.41516 0.46396 0.0
O669 O 0.53435 0.40123 0.456 0.0
N670 N 0.56612 0.42645 0.44208 0.0
C671 C 0.58116 0.42614 0.43342 0.0
C672 C 0.59307 0.41679 0.44274 0.0
C673 C 0.56942 0.41785 0.45661 0.0
N674 N 0.58526 0.41127 0.45705 0.0
C675 C 0.54642 0.41072 0.41359 0.0
C676 C 0.51328 0.39909 0.41878 0.0
C677 C 0.52465 0.38936 0.40902 0.0
C678 C 0.54121 0.39556 0.406 0.0
C679 C 0.5191 0.41419 0.42628 0.0
N680 N 0.53581 0.41924 0.42445 0.0
H681 H 0.55904 0.41554 0.41083 0.0
H682 H 0.5104 0.42128 0.43435 0.0
H683 H 0.58353 0.43259 0.4214 0.0
H684 H 0.56114 0.4175 0.4676 0.0
O685 O 0.55537 0.4508 0.41839 0.0
O686 O 0.5549 0.45927 0.4456 0.0
O687 O 0.53413 0.42999 0.45895 0.0
C688 C 0.55903 0.46244 0.42975 0.0
H689 H 0.48911 0.47083 0.44485 0.0
H690 H 0.60638 0.41465 0.43954 0.0
H691 H 0.50022 0.39489 0.42088 0.0
H692 H 0.55 0.38883 0.39764 0.0
Co693 Co 0.18544 0.78125 0.04656 0.0
C694 C 0.20828 0.75702 0.06511 0.0
C695 C 0.19385 0.7442 0.04563 0.0
C696 C 0.20608 0.73319 0.05175 0.0
N697 N 0.19534 0.75939 0.05377 0.0
N698 N 0.21528 0.74134 0.06384 0.0
H699 H 0.21384 0.76702 0.07289 0.0
H700 H 0.18554 0.74153 0.03492 0.0
C701 C 0.15861 0.76548 0.02186 0.0
O702 O 0.14506 0.77226 0.02914 0.0
N703 N 0.17579 0.8032 0.0395 0.0
C704 C 0.17775 0.81853 0.04733 0.0
C705 C 0.16922 0.8309 0.03817 0.0
C706 C 0.16647 0.8067 0.0254 0.0
N707 N 0.16203 0.82339 0.02443 0.0
C708 C 0.16339 0.79029 0.0737 0.0
C709 C 0.14286 0.76145 0.07231 0.0
C710 C 0.13832 0.77514 0.08286 0.0
C711 C 0.14899 0.78945 0.08393 0.0
C712 C 0.15738 0.76294 0.06209 0.0
N713 N 0.16674 0.77773 0.06213 0.0
H714 H 0.17185 0.80107 0.07511 0.0
H715 H 0.16076 0.75242 0.05383 0.0
H716 H 0.18536 0.82086 0.05866 0.0
H717 H 0.16422 0.79768 0.01521 0.0
O718 O 0.20121 0.79303 0.06161 0.0
O719 O 0.20605 0.78622 0.03442 0.0
O720 O 0.17372 0.76889 0.02718 0.0
C721 C 0.2119 0.79222 0.04881 0.0
H722 H 0.20933 0.72086 0.0463 0.0
H723 H 0.16911 0.84448 0.04091 0.0
H724 H 0.13516 0.74991 0.0718 0.0
H725 H 0.14634 0.79979 0.0928 0.0
Co726 Co 0.6933 0.93255 0.30158 0.0
C727 C 0.71875 0.95885 0.31346 0.0
C728 C 0.73062 0.93501 0.30705 0.0
C729 C 0.74303 0.94597 0.31318 0.0
N730 N 0.71534 0.94312 0.307 0.0
N731 N 0.73547 0.96093 0.31712 0.0
H732 H 0.70931 0.9685 0.31623 0.0
H733 H 0.73258 0.92182 0.30344 0.0
C734 C 0.70702 0.91993 0.26861 0.0
O735 O 0.69822 0.93211 0.26112 0.0
N736 N 0.67149 0.92178 0.29656 0.0
C737 C 0.66221 0.91075 0.30619 0.0
C738 C 0.64993 0.90314 0.29594 0.0
C739 C 0.66404 0.92151 0.28111 0.0
N740 N 0.65111 0.91017 0.28029 0.0
C741 C 0.70114 0.92187 0.33539 0.0
C742 C 0.7056 0.88782 0.32661 0.0
C743 C 0.7098 0.89335 0.34309 0.0
C744 C 0.70739 0.91052 0.34762 0.0
C745 C 0.69932 0.89945 0.31493 0.0
N746 N 0.6976 0.91625 0.31927 0.0
H747 H 0.69975 0.93527 0.33856 0.0
H748 H 0.69596 0.89493 0.30231 0.0
H749 H 0.66492 0.90742 0.31935 0.0
H750 H 0.66883 0.92833 0.27011 0.0
O751 O 0.68145 0.95045 0.31416 0.0
O752 O 0.68791 0.95077 0.28654 0.0
O753 O 0.70555 0.9175 0.28468 0.0
C754 C 0.68179 0.95879 0.29967 0.0
H755 H 0.75656 0.94323 0.31449 0.0
H756 H 0.64171 0.89249 0.29933 0.0
H757 H 0.70724 0.8746 0.32272 0.0
H758 H 0.71022 0.91507 0.36042 0.0
Co759 Co 0.02916 0.30521 0.80018 0.0
C760 C 0.00579 0.28211 0.81864 0.0
C761 C 0.99263 0.295 0.79821 0.0
C762 C 0.98106 0.28492 0.80685 0.0
N763 N 0.00814 0.29326 0.80565 0.0
N764 N 0.9894 0.27689 0.81963 0.0
H765 H 0.01578 0.27781 0.82722 0.0
H766 H 0.98977 0.30292 0.78724 0.0
C767 C 0.01412 0.33471 0.77856 0.0
O768 O 0.02161 0.34733 0.78679 0.0
N769 N 0.05028 0.31731 0.79518 0.0
C770 C 0.06486 0.31785 0.80453 0.0
C771 C 0.077 0.32719 0.79578 0.0
C772 C 0.05394 0.32602 0.78082 0.0
N773 N 0.06994 0.33252 0.78101 0.0
C774 C 0.03525 0.32043 0.8324 0.0
C775 C 0.00922 0.34434 0.83035 0.0
C776 C 0.02204 0.34607 0.8427 0.0
C777 C 0.03447 0.33334 0.84446 0.0
C778 C 0.01047 0.33104 0.8186 0.0
N779 N 0.02443 0.32053 0.81875 0.0
H780 H 0.04494 0.31073 0.8337 0.0
H781 H 0.00062 0.32968 0.80901 0.0
H782 H 0.0671 0.311 0.81631 0.0
H783 H 0.04575 0.32622 0.76965 0.0
O784 O 0.04192 0.28767 0.81218 0.0
O785 O 0.03516 0.28752 0.78457 0.0
O786 O 0.01618 0.31914 0.78294 0.0
C787 C 0.04149 0.27948 0.79767 0.0
H788 H 0.9677 0.28307 0.8036 0.0
H789 H 0.09031 0.32884 0.79935 0.0
H790 H -0.00104 0.3536 0.82922 0.0
H791 H 0.04393 0.3338 0.85461 0.0
Co792 Co 0.05139 0.68611 0.28728 0.0
C793 C 0.07186 0.70264 0.25982 0.0
C794 C 0.04928 0.69065 0.24974 0.0
C795 C 0.05724 0.69939 0.23676 0.0
N796 N 0.05841 0.69266 0.26428 0.0
N797 N 0.07133 0.7071 0.24313 0.0
H798 H 0.08128 0.70743 0.26877 0.0
H799 H 0.03703 0.68433 0.24864 0.0
C800 C 0.02764 0.65727 0.2736 0.0
O801 O 0.03649 0.6442 0.27938 0.0
N802 N 0.04431 0.67964 0.31036 0.0
C803 C 0.04987 0.68609 0.32545 0.0
C804 C 0.04111 0.67831 0.33864 0.0
C805 C 0.03231 0.66805 0.31474 0.0
N806 N 0.03012 0.66687 0.33183 0.0
C807 C 0.07914 0.6672 0.2999 0.0
C808 C 0.08207 0.64442 0.27303 0.0
C809 C 0.09385 0.64357 0.28663 0.0
C810 C 0.09241 0.65549 0.29996 0.0
C811 C 0.06936 0.65696 0.27315 0.0
N812 N 0.06757 0.66759 0.28688 0.0
H813 H 0.07862 0.6765 0.31007 0.0
H814 H 0.06098 0.65813 0.2622 0.0
H815 H 0.0593 0.69613 0.32691 0.0
H816 H 0.02411 0.66162 0.30575 0.0
O817 O 0.06633 0.70349 0.29654 0.0
O818 O 0.03905 0.70716 0.28891 0.0
O819 O 0.03202 0.67268 0.27679 0.0
C820 C 0.05341 0.71375 0.29426 0.0
H821 H 0.05216 0.70122 0.22399 0.0
H822 H 0.04201 0.68154 0.35209 0.0
H823 H 0.08263 0.63564 0.26234 0.0
H824 H 0.10167 0.65621 0.31024 0.0
Co825 Co 0.31058 0.79912 0.05027 0.0
C826 C 0.28392 0.81368 0.02688 0.0
C827 C 0.3081 0.82606 0.02354 0.0
C828 C 0.29651 0.83324 0.01227 0.0
N829 N 0.3001 0.81392 0.03297 0.0
N830 N 0.28136 0.82532 0.01444 0.0
H831 H 0.27414 0.80494 0.03088 0.0
H832 H 0.32155 0.82925 0.02446 0.0
C833 C 0.33825 0.78016 0.02914 0.0
O834 O 0.34752 0.77482 0.04206 0.0
N835 N 0.32107 0.78476 0.0674 0.0
C836 C 0.32755 0.78946 0.08276 0.0
C837 C 0.33502 0.77535 0.09035 0.0
C838 C 0.32385 0.76787 0.06625 0.0
N839 N 0.33297 0.76203 0.07964 0.0
C840 C 0.31797 0.83247 0.06174 0.0
C841 C 0.35311 0.83006 0.05813 0.0
C842 C 0.34548 0.84598 0.06096 0.0
C843 C 0.32784 0.84711 0.06366 0.0
C844 C 0.34272 0.81588 0.05587 0.0
N845 N 0.3254 0.8175 0.05672 0.0
H846 H 0.30419 0.83343 0.06275 0.0
H847 H 0.34855 0.80384 0.05283 0.0
H848 H 0.32724 0.8023 0.08792 0.0
H849 H 0.31994 0.76012 0.05543 0.0
O850 O 0.29193 0.80352 0.06595 0.0
O851 O 0.29303 0.7824 0.04701 0.0
O852 O 0.326 0.79084 0.03115 0.0
C853 C 0.28436 0.79056 0.05866 0.0
H854 H 0.2992 0.8429 0.0027 0.0
H855 H 0.34179 0.77496 0.10244 0.0
H856 H 0.36677 0.82888 0.05598 0.0
H857 H 0.32169 0.85935 0.0658 0.0
Co858 Co 0.19218 0.05668 0.78628 0.0
C859 C 0.17339 0.03169 0.7646 0.0
C860 C 0.18639 0.05026 0.74918 0.0
C861 C 0.17793 0.03899 0.73856 0.0
N862 N 0.18376 0.0455 0.76559 0.0
N863 N 0.16978 0.02733 0.74834 0.0
H864 H 0.16821 0.02503 0.77552 0.0
H865 H 0.19396 0.06106 0.74503 0.0
C866 C 0.21757 0.08183 0.76604 0.0
O867 O 0.21537 0.09718 0.77245 0.0
N868 N 0.1999 0.06788 0.80678 0.0
C869 C 0.19079 0.07023 0.82129 0.0
C870 C 0.20052 0.07965 0.83263 0.0
C871 C 0.21481 0.07596 0.80933 0.0
N872 N 0.21537 0.08353 0.82481 0.0
C873 C 0.15837 0.06783 0.78247 0.0
C874 C 0.16493 0.10233 0.78682 0.0
C875 C 0.14809 0.09649 0.7853 0.0
C876 C 0.1448 0.0791 0.78296 0.0
C877 C 0.17816 0.09054 0.78628 0.0
N878 N 0.17477 0.07361 0.78391 0.0
H879 H 0.15562 0.05433 0.78186 0.0
H880 H 0.19087 0.09487 0.78913 0.0
H881 H 0.178 0.06535 0.82349 0.0
H882 H 0.2254 0.07569 0.80041 0.0
O883 O 0.17982 0.04053 0.80026 0.0
O884 O 0.20652 0.03751 0.7908 0.0
O885 O 0.20923 0.06886 0.7714 0.0
C886 C 0.19333 0.03089 0.79852 0.0
H887 H 0.17839 0.039 0.72471 0.0
H888 H 0.19724 0.08296 0.84568 0.0
H889 H 0.16778 0.11574 0.78898 0.0
H890 H 0.13183 0.07415 0.78233 0.0
Co891 Co 0.93455 0.79468 0.20267 0.0
C892 C 0.95375 0.81694 0.2263 0.0
C893 C 0.94542 0.79402 0.23897 0.0
C894 C 0.95562 0.80323 0.25001 0.0
N895 N 0.94432 0.80264 0.22406 0.0
N896 N 0.96099 0.81751 0.24193 0.0
H897 H 0.95658 0.82604 0.21624 0.0
H898 H 0.94026 0.78139 0.24133 0.0
C899 C 0.9058 0.77335 0.21851 0.0
O900 O 0.89345 0.78173 0.21076 0.0
N901 N 0.925 0.78674 0.18102 0.0
C902 C 0.92748 0.79326 0.16517 0.0
C903 C 0.91871 0.78342 0.1534 0.0
C904 C 0.91521 0.77279 0.17849 0.0
N905 N 0.91078 0.77073 0.16194 0.0
C906 C 0.91169 0.82125 0.19203 0.0
C907 C 0.89391 0.82258 0.22265 0.0
C908 C 0.88792 0.83174 0.20854 0.0
C909 C 0.89723 0.8315 0.19323 0.0
C910 C 0.90843 0.81257 0.22087 0.0
N911 N 0.9164 0.8111 0.20537 0.0
H912 H 0.91903 0.82146 0.18038 0.0
H913 H 0.91262 0.80519 0.23177 0.0
H914 H 0.93548 0.80417 0.16218 0.0
H915 H 0.91257 0.76331 0.18815 0.0
O916 O 0.9513 0.80843 0.19056 0.0
O917 O 0.95468 0.78143 0.19893 0.0
O918 O 0.92157 0.77675 0.21581 0.0
C919 C 0.96141 0.79529 0.19262 0.0
H920 H 0.96032 0.7988 0.26229 0.0
H921 H 0.91876 0.785 0.13964 0.0
H922 H 0.88724 0.82283 0.23481 0.0
H923 H 0.89347 0.83928 0.18238 0.0
Co924 Co 0.18646 0.68693 0.93673 0.0
C925 C 0.16455 0.70896 0.95961 0.0
C926 C 0.16569 0.68305 0.96818 0.0
C927 C 0.15747 0.69269 0.98049 0.0
N928 N 0.17074 0.6934 0.95526 0.0
N929 N 0.15693 0.70904 0.97509 0.0
H930 H 0.16621 0.72043 0.95228 0.0
H931 H 0.16884 0.66961 0.9692 0.0
C932 C 0.20737 0.65918 0.95808 0.0
O933 O 0.2117 0.64789 0.94646 0.0
N934 N 0.20177 0.68017 0.91855 0.0
C935 C 0.19762 0.67768 0.90194 0.0
C936 C 0.21117 0.66975 0.89382 0.0
C937 C 0.21781 0.67421 0.92021 0.0
N938 N 0.22359 0.66727 0.90552 0.0
C939 C 0.15389 0.6737 0.92881 0.0
C940 C 0.16417 0.63987 0.92663 0.0
C941 C 0.14687 0.6439 0.92845 0.0
C942 C 0.14156 0.66097 0.92832 0.0
C943 C 0.17604 0.65304 0.92733 0.0
N944 N 0.17075 0.66943 0.92996 0.0
H945 H 0.14993 0.68692 0.92986 0.0
H946 H 0.18939 0.64998 0.92645 0.0
H947 H 0.18525 0.68057 0.89639 0.0
H948 H 0.22506 0.6746 0.932 0.0
O949 O 0.17818 0.70565 0.92262 0.0
O950 O 0.20006 0.70656 0.94083 0.0
O951 O 0.19846 0.67237 0.95436 0.0
C952 C 0.19009 0.71462 0.93025 0.0
H953 H 0.15381 0.68837 0.99314 0.0
H954 H 0.21161 0.66547 0.88065 0.0
H955 H 0.16852 0.6267 0.92628 0.0
H956 H 0.12813 0.66433 0.92934 0.0
Co957 Co 0.30213 0.934 0.70786 0.0
C958 C 0.27902 0.91524 0.73149 0.0
C959 C 0.29375 0.93426 0.7448 0.0
C960 C 0.28276 0.92666 0.75622 0.0
N961 N 0.29142 0.92713 0.72924 0.0
N962 N 0.27343 0.9148 0.74782 0.0
H963 H 0.27368 0.90748 0.72134 0.0
H964 H 0.30231 0.94474 0.74771 0.0
C965 C 0.33282 0.95375 0.72236 0.0
O966 O 0.34436 0.94504 0.71378 0.0
N967 N 0.31287 0.94093 0.68642 0.0
C968 C 0.31287 0.93292 0.67105 0.0
C969 C 0.32308 0.94198 0.65979 0.0
C970 C 0.32237 0.95508 0.68392 0.0
N971 N 0.32932 0.95565 0.66818 0.0
C972 C 0.31843 0.9033 0.6982 0.0
C973 C 0.34207 0.90278 0.72456 0.0
C974 C 0.34415 0.89206 0.7104 0.0
C975 C 0.3316 0.89155 0.69769 0.0
C976 C 0.32851 0.91432 0.72454 0.0
N977 N 0.31813 0.91559 0.71052 0.0
H978 H 0.30876 0.9028 0.68841 0.0
H979 H 0.32697 0.92281 0.73532 0.0
H980 H 0.30562 0.92159 0.66788 0.0
H981 H 0.32348 0.96541 0.69304 0.0
O982 O 0.28464 0.92199 0.6953 0.0
O983 O 0.2834 0.94919 0.70372 0.0
O984 O 0.31681 0.95067 0.72095 0.0
C985 C 0.27584 0.93603 0.6968 0.0
H986 H 0.28094 0.93041 0.76944 0.0
H987 H 0.32541 0.93899 0.64647 0.0
H988 H 0.3512 0.9028 0.73501 0.0
H989 H 0.33228 0.88251 0.68718 0.0
Co990 Co 0.54631 0.93371 0.93862 0.0
C991 C 0.52208 0.95911 0.92276 0.0
C992 C 0.50898 0.93821 0.93465 0.0
C993 C 0.49701 0.94876 0.92723 0.0
N994 N 0.52478 0.94484 0.93224 0.0
N995 N 0.50528 0.96193 0.9198 0.0
H996 H 0.53207 0.96703 0.91746 0.0
H997 H 0.50625 0.92623 0.94089 0.0
C998 C 0.53123 0.92635 0.97239 0.0
O999 O 0.5404 0.93924 0.97809 0.0
N1000 N 0.56747 0.92223 0.9445 0.0
C1001 C 0.57702 0.91174 0.93459 0.0
C1002 C 0.5884 0.90293 0.94491 0.0
C1003 C 0.57372 0.9203 0.96037 0.0
N1004 N 0.58633 0.90858 0.96103 0.0
C1005 C 0.53883 0.92126 0.90591 0.0
C1006 C 0.53454 0.88729 0.91517 0.0
C1007 C 0.53232 0.89228 0.8981 0.0
C1008 C 0.53424 0.90949 0.89354 0.0
C1009 C 0.53893 0.8996 0.92725 0.0
N1010 N 0.54106 0.91624 0.92242 0.0
H1011 H 0.54044 0.93451 0.90231 0.0
H1012 H 0.54104 0.89572 0.94036 0.0
H1013 H 0.5749 0.90952 0.92109 0.0
H1014 H 0.56813 0.92606 0.9716 0.0
O1015 O 0.55902 0.94942 0.9241 0.0
O1016 O 0.55309 0.95328 0.9515 0.0
O1017 O 0.53339 0.92104 0.95707 0.0
C1018 C 0.5593 0.95944 0.93741 0.0
H1019 H 0.48325 0.94703 0.92757 0.0
H1020 H 0.59653 0.89236 0.94114 0.0
H1021 H 0.53343 0.874 0.91899 0.0
H1022 H 0.53241 0.91378 0.88047 0.0
Co1023 Co 0.05829 0.28649 0.68835 0.0
C1024 C 0.03073 0.26285 0.67513 0.0
C1025 C 0.05597 0.25218 0.6736 0.0
C1026 C 0.04457 0.24044 0.66717 0.0
N1027 N 0.04737 0.26628 0.67864 0.0
N1028 N 0.02869 0.24715 0.66814 0.0
H1029 H 0.02022 0.27132 0.67792 0.0
H1030 H 0.0697 0.25059 0.67442 0.0
C1031 C 0.08252 0.26934 0.71512 0.0
O1032 O 0.0905 0.28308 0.72057 0.0
N1033 N 0.06942 0.30668 0.69736 0.0
C1034 C 0.07631 0.31963 0.68811 0.0
C1035 C 0.08267 0.33188 0.69912 0.0
C1036 C 0.07094 0.31156 0.71374 0.0
N1037 N 0.07948 0.32648 0.71511 0.0
C1038 C 0.06951 0.28664 0.6545 0.0
C1039 C 0.10412 0.28813 0.66203 0.0
C1040 C 0.09843 0.29045 0.64521 0.0
C1041 C 0.08101 0.28915 0.64134 0.0
C1042 C 0.09216 0.28545 0.67481 0.0
N1043 N 0.07516 0.2853 0.67092 0.0
H1044 H 0.05595 0.28639 0.65169 0.0
H1045 H 0.09647 0.28484 0.68788 0.0
H1046 H 0.07661 0.32018 0.67428 0.0
H1047 H 0.0659 0.30439 0.72449 0.0
O1048 O 0.0423 0.30139 0.67698 0.0
O1049 O 0.03909 0.29026 0.70299 0.0
O1050 O 0.07117 0.26997 0.70337 0.0
C1051 C 0.03294 0.29965 0.69063 0.0
H1052 H 0.04776 0.22793 0.66216 0.0
H1053 H 0.08905 0.34371 0.69575 0.0
H1054 H 0.11756 0.28916 0.66537 0.0
H1055 H 0.07632 0.29045 0.62835 0.0
Co1056 Co 0.17828 0.45507 0.19162 0.0
C1057 C 0.20546 0.47754 0.1769 0.0
C1058 C 0.18492 0.4923 0.18736 0.0
C1059 C 0.19692 0.50335 0.18068 0.0
N1060 N 0.19034 0.47605 0.18526 0.0
N1061 N 0.20986 0.49402 0.17412 0.0
H1062 H 0.21305 0.46685 0.17256 0.0
H1063 H 0.17302 0.49605 0.19312 0.0
C1064 C 0.16293 0.47016 0.22279 0.0
O1065 O 0.17372 0.46085 0.23168 0.0
N1066 N 0.16624 0.4341 0.19733 0.0
C1067 C 0.15783 0.42331 0.18665 0.0
C1068 C 0.15083 0.41006 0.1961 0.0
C1069 C 0.16471 0.42699 0.21289 0.0
N1070 N 0.15521 0.41266 0.21251 0.0
C1071 C 0.1696 0.45916 0.15653 0.0
C1072 C 0.13475 0.46253 0.16223 0.0
C1073 C 0.141 0.46247 0.1455 0.0
C1074 C 0.15865 0.46117 0.14259 0.0
C1075 C 0.14601 0.46034 0.17568 0.0
N1076 N 0.16313 0.45853 0.1727 0.0
H1077 H 0.1832 0.4577 0.15439 0.0
H1078 H 0.14079 0.45927 0.18841 0.0
H1079 H 0.15684 0.42487 0.17293 0.0
H1080 H 0.17079 0.43173 0.22433 0.0
O1081 O 0.19619 0.44154 0.18105 0.0
O1082 O 0.19566 0.45021 0.20807 0.0
O1083 O 0.16265 0.46894 0.20655 0.0
C1084 C 0.20398 0.4428 0.19578 0.0
H1085 H 0.1963 0.51719 0.18098 0.0
H1086 H 0.1433 0.39942 0.19137 0.0
H1087 H 0.12115 0.46353 0.16486 0.0
H1088 H 0.16381 0.4609 0.12972 0.0
Co1089 Co 0.53491 0.80351 0.80186 0.0
C1090 C 0.51134 0.77731 0.81649 0.0
C1091 C 0.49768 0.79852 0.80578 0.0
C1092 C 0.48606 0.78768 0.81338 0.0
N1093 N 0.51357 0.79193 0.8075 0.0
N1094 N 0.49472 0.77438 0.82011 0.0
H1095 H 0.52155 0.76916 0.82096 0.0
H1096 H 0.49468 0.81067 0.79997 0.0
C1097 C 0.52265 0.8168 0.76835 0.0
O1098 O 0.53341 0.80633 0.76085 0.0
N1099 N 0.55622 0.81546 0.79691 0.0
C1100 C 0.56402 0.82771 0.80639 0.0
C1101 C 0.57685 0.83514 0.79683 0.0
C1102 C 0.56521 0.81492 0.78224 0.0
N1103 N 0.57761 0.8269 0.78176 0.0
C1104 C 0.52912 0.81413 0.8359 0.0
C1105 C 0.52244 0.84805 0.82823 0.0
C1106 C 0.52323 0.84276 0.84529 0.0
C1107 C 0.52599 0.82553 0.84918 0.0
C1108 C 0.52577 0.83634 0.8154 0.0
N1109 N 0.52954 0.81975 0.8194 0.0
H1110 H 0.5317 0.80088 0.83887 0.0
H1111 H 0.5264 0.84098 0.80243 0.0
H1112 H 0.56017 0.83178 0.81902 0.0
H1113 H 0.56215 0.80672 0.77155 0.0
O1114 O 0.54775 0.78687 0.81498 0.0
O1115 O 0.54132 0.78475 0.78741 0.0
O1116 O 0.52207 0.8176 0.78461 0.0
C1117 C 0.54789 0.77778 0.80102 0.0
H1118 H 0.4723 0.78934 0.81375 0.0
H1119 H 0.58421 0.84641 0.80016 0.0
H1120 H 0.52036 0.86137 0.82492 0.0
H1121 H 0.5268 0.82114 0.86231 0.0
Co1122 Co 0.18098 0.29043 0.54473 0.0
C1123 C 0.20256 0.26987 0.56848 0.0
C1124 C 0.18391 0.25413 0.55605 0.0
C1125 C 0.19477 0.24379 0.56528 0.0
N1126 N 0.18898 0.27055 0.55773 0.0
N1127 N 0.20672 0.25368 0.5729 0.0
H1128 H 0.20995 0.28093 0.57225 0.0
H1129 H 0.17385 0.24958 0.54781 0.0
C1130 C 0.15257 0.27451 0.52124 0.0
O1131 O 0.14505 0.28875 0.51654 0.0
N1132 N 0.17323 0.3105 0.53259 0.0
C1133 C 0.16871 0.32556 0.53982 0.0
C1134 C 0.16271 0.3364 0.52727 0.0
C1135 C 0.17072 0.31262 0.51573 0.0
N1136 N 0.16376 0.32803 0.51231 0.0
C1137 C 0.17171 0.29894 0.57804 0.0
C1138 C 0.13663 0.29857 0.57341 0.0
C1139 C 0.14361 0.30141 0.58965 0.0
C1140 C 0.16127 0.3023 0.59183 0.0
C1141 C 0.14763 0.29546 0.55982 0.0
N1142 N 0.16487 0.29507 0.56246 0.0
H1143 H 0.18536 0.29903 0.58006 0.0
H1144 H 0.14226 0.29323 0.54739 0.0
H1145 H 0.16927 0.32833 0.55337 0.0
H1146 H 0.17322 0.30285 0.50621 0.0
O1147 O 0.19946 0.30396 0.55344 0.0
O1148 O 0.20054 0.28803 0.52992 0.0
O1149 O 0.16505 0.2744 0.53188 0.0
C1150 C 0.20853 0.29746 0.54115 0.0
H1151 H 0.19483 0.22994 0.56489 0.0
H1152 H 0.15739 0.34907 0.52903 0.0
H1153 H 0.1229 0.29782 0.57146 0.0
H1154 H 0.16694 0.3046 0.6043 0.0
Co1155 Co 0.43685 0.69976 0.80253 0.0
C1156 C 0.41736 0.72491 0.78103 0.0
C1157 C 0.43919 0.73628 0.79329 0.0
C1158 C 0.43157 0.7484 0.78323 0.0
N1159 N 0.43026 0.7215 0.79213 0.0
N1160 N 0.41794 0.74129 0.77539 0.0
H1161 H 0.40826 0.71547 0.77653 0.0
H1162 H 0.45094 0.73818 0.80034 0.0
C1163 C 0.45736 0.71539 0.83191 0.0
O1164 O 0.44778 0.70871 0.84401 0.0
N1165 N 0.4443 0.67816 0.8127 0.0
C1166 C 0.43829 0.66212 0.81004 0.0
C1167 C 0.44928 0.65048 0.81763 0.0
C1168 C 0.45902 0.67585 0.82143 0.0
N1169 N 0.46215 0.6593 0.825 0.0
C1170 C 0.40815 0.69006 0.82296 0.0
C1171 C 0.40403 0.72153 0.83869 0.0
C1172 C 0.3929 0.70814 0.84272 0.0
C1173 C 0.39491 0.69227 0.83466 0.0
C1174 C 0.4172 0.71871 0.82709 0.0
N1175 N 0.41946 0.70297 0.81977 0.0
H1176 H 0.40909 0.67806 0.81626 0.0
H1177 H 0.42573 0.72918 0.82421 0.0
H1178 H 0.42728 0.65891 0.80227 0.0
H1179 H 0.46842 0.68572 0.82359 0.0
O1180 O 0.42327 0.68769 0.7858 0.0
O1181 O 0.45065 0.69523 0.78287 0.0
O1182 O 0.45457 0.71242 0.81611 0.0
C1183 C 0.43686 0.68861 0.7762 0.0
H1184 H 0.43652 0.76113 0.78083 0.0
H1185 H 0.4484 0.63667 0.81697 0.0
H1186 H 0.40284 0.73395 0.84476 0.0
H1187 H 0.38623 0.68175 0.83728 0.0
Co1188 Co 0.80344 0.03302 0.30316 0.0
C1189 C 0.8234 0.0052 0.2865 0.0
C1190 C 0.79797 -0.00294 0.29315 0.0
C1191 C 0.80619 0.98375 0.28527 0.0
N1192 N 0.80875 0.01054 0.29405 0.0
N1193 N 0.82211 0.98886 0.28097 0.0
H1194 H 0.83445 0.01328 0.28434 0.0
H1195 H 0.78475 -0.00307 0.29721 0.0
C1196 C 0.77625 0.01952 0.32835 0.0
O1197 O 0.784 0.02502 0.34222 0.0
N1198 N 0.79809 0.05567 0.31224 0.0
C1199 C 0.80634 0.07066 0.30939 0.0
C1200 C 0.79728 0.0838 0.31694 0.0
C1201 C 0.7842 0.06005 0.3214 0.0
N1202 N 0.78351 0.07694 0.32471 0.0
C1203 C 0.829 0.03991 0.32765 0.0
C1204 C 0.82385 0.01105 0.34756 0.0
C1205 C 0.83439 0.02425 0.35357 0.0
C1206 C 0.83763 0.03837 0.343 0.0
C1207 C 0.81561 0.01305 0.33184 0.0
N1208 N 0.8172 0.02802 0.32293 0.0
H1209 H 0.83159 0.05085 0.31966 0.0
H1210 H 0.80718 0.00303 0.32739 0.0
H1211 H 0.81771 0.0722 0.30166 0.0
H1212 H 0.77361 0.05162 0.32395 0.0
O1213 O 0.82092 0.04282 0.28864 0.0
O1214 O 0.79344 0.03924 0.28174 0.0
O1215 O 0.78201 0.02289 0.31344 0.0
C1216 C 0.80873 0.04415 0.27733 0.0
H1217 H 0.80038 0.97166 0.28171 0.0
H1218 H 0.79987 0.09737 0.31575 0.0
H1219 H 0.8216 -0.00038 0.35508 0.0
H1220 H 0.8467 0.04825 0.34659 0.0
Co1221 Co 0.44568 0.54402 0.55366 0.0
C1222 C 0.46892 0.55867 0.52682 0.0
C1223 C 0.48242 0.55264 0.54987 0.0
C1224 C 0.49392 0.55911 0.53818 0.0
N1225 N 0.46673 0.55192 0.54262 0.0
N1226 N 0.48539 0.56276 0.52364 0.0
H1227 H 0.45881 0.5609 0.51773 0.0
H1228 H 0.48538 0.54883 0.5628 0.0
C1229 C 0.46015 0.51309 0.57294 0.0
O1230 O 0.44619 0.50402 0.57097 0.0
N1231 N 0.42436 0.53713 0.56475 0.0
C1232 C 0.41441 0.54671 0.57525 0.0
C1233 C 0.40154 0.53663 0.58188 0.0
C1234 C 0.41629 0.52193 0.56391 0.0
N1235 N 0.4028 0.52112 0.57465 0.0
C1236 C 0.45006 0.57844 0.56484 0.0
C1237 C 0.45388 0.56974 0.59904 0.0
C1238 C 0.45611 0.58669 0.59388 0.0
C1239 C 0.45409 0.59118 0.57665 0.0
C1240 C 0.45011 0.5575 0.58691 0.0
N1241 N 0.44842 0.5619 0.5701 0.0
H1242 H 0.4487 0.58165 0.55144 0.0
H1243 H 0.44826 0.54445 0.59108 0.0
H1244 H 0.4166 0.55997 0.5785 0.0
H1245 H 0.42057 0.51126 0.55619 0.0
O1246 O 0.43216 0.5552 0.53609 0.0
O1247 O 0.4417 0.52845 0.53529 0.0
O1248 O 0.46075 0.52868 0.56812 0.0
C1249 C 0.43401 0.54096 0.52749 0.0
H1250 H 0.50761 0.56034 0.54003 0.0
H1251 H 0.39258 0.54011 0.59186 0.0
H1252 H 0.45529 0.56596 0.61231 0.0
H1253 H 0.45558 0.60431 0.57243 0.0
Co1254 Co 0.79882 0.1972 0.93845 0.0
C1255 C 0.8206 0.22289 0.95691 0.0
C1256 C 0.7991 0.23497 0.94508 0.0
C1257 C 0.8081 0.24712 0.95404 0.0
N1258 N 0.80719 0.21971 0.94626 0.0
N1259 N 0.82158 0.2395 0.96154 0.0
H1260 H 0.82885 0.21312 0.96222 0.0
H1261 H 0.78658 0.23713 0.93977 0.0
C1262 C 0.78169 0.22026 0.91253 0.0
O1263 O 0.79688 0.22515 0.90716 0.0
N1264 N 0.79075 0.17499 0.93114 0.0
C1265 C 0.8 0.16044 0.92956 0.0
C1266 C 0.79065 0.1487 0.92011 0.0
C1267 C 0.77601 0.17191 0.92288 0.0
N1268 N 0.77582 0.15625 0.91572 0.0
C1269 C 0.83179 0.20014 0.92371 0.0
C1270 C 0.82147 0.19426 0.89038 0.0
C1271 C 0.83808 0.19985 0.89385 0.0
C1272 C 0.84354 0.20221 0.91064 0.0
C1273 C 0.81006 0.19266 0.90385 0.0
N1274 N 0.81505 0.19682 0.92008 0.0
H1275 H 0.83612 0.20151 0.9367 0.0
H1276 H 0.79695 0.18921 0.90108 0.0
H1277 H 0.81302 0.15885 0.93403 0.0
H1278 H 0.76583 0.18118 0.92135 0.0
O1279 O 0.81266 0.18635 0.95558 0.0
O1280 O 0.78583 0.19563 0.95893 0.0
O1281 O 0.7805 0.20884 0.92421 0.0
C1282 C 0.79978 0.18945 0.96568 0.0
H1283 H 0.80398 0.26014 0.95642 0.0
H1284 H 0.79467 0.13605 0.91615 0.0
H1285 H 0.81719 0.19199 0.87738 0.0
H1286 H 0.85663 0.20584 0.91355 0.0
Co1287 Co 0.95085 0.68509 0.18222 0.0
C1288 C 0.97398 0.67289 0.21013 0.0
C1289 C 0.98798 0.68148 0.18816 0.0
C1290 C -0.0006 0.67479 0.1998 0.0
N1291 N 0.97198 0.68047 0.19467 0.0
N1292 N 0.99053 0.66943 0.21357 0.0
H1293 H 0.96365 0.66922 0.21854 0.0
H1294 H 0.99117 0.68617 0.17555 0.0
C1295 C 0.96263 0.71709 0.16622 0.0
O1296 O 0.94995 0.72463 0.1742 0.0
N1297 N 0.92976 0.68912 0.16939 0.0
C1298 C 0.92371 0.68067 0.1555 0.0
C1299 C 0.91059 0.69001 0.14827 0.0
C1300 C 0.91942 0.70281 0.17092 0.0
N1301 N 0.90791 0.70385 0.15809 0.0
C1302 C 0.95536 0.64987 0.17607 0.0
C1303 C 0.96673 0.65284 0.14269 0.0
C1304 C 0.96543 0.63674 0.15033 0.0
C1305 C 0.9599 0.63519 0.16718 0.0
C1306 C 0.96217 0.66722 0.15204 0.0
N1307 N 0.95619 0.66553 0.16838 0.0
H1308 H 0.95121 0.64865 0.18918 0.0
H1309 H 0.96267 0.67951 0.14578 0.0
H1310 H 0.92888 0.66904 0.15018 0.0
H1311 H 0.92123 0.71285 0.18028 0.0
O1312 O 0.93761 0.6742 0.20008 0.0
O1313 O 0.9446 0.70167 0.19921 0.0
O1314 O 0.96404 0.70083 0.16677 0.0
C1315 C 0.93783 0.68905 0.20763 0.0
H1316 H 0.01317 0.67403 0.19832 0.0
H1317 H 0.90445 0.68756 0.13608 0.0
H1318 H 0.97057 0.65418 0.12943 0.0
H1319 H 0.95854 0.62275 0.17318 0.0
Co1320 Co 0.05083 0.55883 0.9497 0.0
C1321 C 0.0695 0.53376 0.97128 0.0
C1322 C 0.05444 0.55064 0.98673 0.0
C1323 C 0.06213 0.53876 -0.00278 0.0
N1324 N 0.05886 0.54737 0.97037 0.0
N1325 N 0.07148 0.52805 0.98745 0.0
H1326 H 0.07517 0.52758 0.96029 0.0
H1327 H 0.04563 0.56038 0.99092 0.0
C1328 C 0.02207 0.58149 0.96289 0.0
O1329 O 0.01427 0.58173 0.94808 0.0
N1330 N 0.04344 0.57033 0.92873 0.0
C1331 C 0.05066 0.58392 0.92074 0.0
C1332 C 0.03944 0.59016 0.90866 0.0
C1333 C 0.02861 0.56771 0.92026 0.0
N1334 N 0.02557 0.57997 0.90847 0.0
C1335 C 0.08587 0.56662 0.94822 0.0
C1336 C 0.08296 0.60101 0.95594 0.0
C1337 C 0.09878 0.59427 0.95085 0.0
C1338 C 0.10039 0.57675 0.94784 0.0
C1339 C 0.06877 0.59035 0.95642 0.0
N1340 N 0.07026 0.57363 0.95161 0.0
H1341 H 0.08716 0.55322 0.94524 0.0
H1342 H 0.05649 0.596 0.95918 0.0
H1343 H 0.06281 0.58971 0.92385 0.0
H1344 H 0.01904 0.5585 0.92428 0.0
O1345 O 0.06067 0.54109 0.93576 0.0
O1346 O 0.03442 0.54068 0.94662 0.0
O1347 O 0.03659 0.57419 0.9647 0.0
C1348 C 0.04666 0.5326 0.93867 0.0
H1349 H 0.05981 0.53727 0.0108 0.0
H1350 H 0.04073 0.60202 0.9016 0.0
H1351 H 0.08127 0.61458 0.95825 0.0
H1352 H 0.11257 0.57111 0.94432 0.0
Co1353 Co 0.69262 0.68989 0.44259 0.0
C1354 C 0.67353 0.70682 0.47093 0.0
C1355 C 0.69864 0.69881 0.47882 0.0
C1356 C 0.69101 0.70722 0.49219 0.0
N1357 N 0.68767 0.69843 0.46547 0.0
N1358 N 0.67531 0.71241 0.4872 0.0
H1359 H 0.66257 0.7096 0.46292 0.0
H1360 H 0.71167 0.69421 0.47869 0.0
C1361 C 0.71561 0.66186 0.45784 0.0
O1362 O 0.705 0.64934 0.45416 0.0
N1363 N 0.69787 0.68163 0.4196 0.0
C1364 C 0.69637 0.68988 0.40447 0.0
C1365 C 0.7039 0.68011 0.39182 0.0
C1366 C 0.70573 0.66683 0.4157 0.0
N1367 N 0.70991 0.66559 0.39898 0.0
C1368 C 0.66525 0.66823 0.43325 0.0
C1369 C 0.66075 0.65333 0.46507 0.0
C1370 C 0.64922 0.6497 0.45189 0.0
C1371 C 0.65154 0.65723 0.43581 0.0
C1372 C 0.67429 0.66443 0.46196 0.0
N1373 N 0.67659 0.67148 0.44611 0.0
H1374 H 0.66634 0.6747 0.42108 0.0
H1375 H 0.68293 0.66734 0.47237 0.0
H1376 H 0.69114 0.70257 0.40272 0.0
H1377 H 0.70995 0.65782 0.42512 0.0
O1378 O 0.67659 0.70613 0.43338 0.0
O1379 O 0.70437 0.71087 0.43818 0.0
O1380 O 0.71292 0.67709 0.45247 0.0
C1381 C 0.68936 0.71681 0.43392 0.0
H1382 H 0.69712 0.71053 0.50419 0.0
H1383 H 0.70607 0.68407 0.37873 0.0
H1384 H 0.65936 0.6476 0.47763 0.0
H1385 H 0.6426 0.65494 0.42544 0.0
Co1386 Co 0.8085 0.44346 0.70313 0.0
C1387 C 0.77881 0.43301 0.72537 0.0
C1388 C 0.80164 0.43786 0.7398 0.0
C1389 C 0.78905 0.43242 0.75088 0.0
N1390 N 0.79524 0.4384 0.72374 0.0
N1391 N 0.77475 0.42946 0.74172 0.0
H1392 H 0.77005 0.43085 0.71496 0.0
H1393 H 0.81473 0.44071 0.74323 0.0
C1394 C 0.82159 0.47486 0.71938 0.0
O1395 O 0.80963 0.48315 0.71094 0.0
N1396 N 0.82198 0.44822 0.68294 0.0
C1397 C 0.82648 0.43738 0.67025 0.0
C1398 C 0.83552 0.44644 0.65796 0.0
C1399 C 0.82845 0.46347 0.67838 0.0
N1400 N 0.83692 0.46272 0.66343 0.0
C1401 C 0.81539 0.4089 0.71039 0.0
C1402 C 0.85052 0.41253 0.71358 0.0
C1403 C 0.84302 0.39631 0.71525 0.0
C1404 C 0.82522 0.39459 0.71401 0.0
C1405 C 0.84018 0.42654 0.71004 0.0
N1406 N 0.82294 0.42448 0.70834 0.0
H1407 H 0.80168 0.40752 0.70904 0.0
H1408 H 0.84606 0.43892 0.7081 0.0
H1409 H 0.82304 0.42397 0.66976 0.0
H1410 H 0.82625 0.47524 0.68523 0.0
O1411 O 0.79176 0.43196 0.6891 0.0
O1412 O 0.79133 0.45949 0.69585 0.0
O1413 O 0.82346 0.45882 0.71721 0.0
C1414 C 0.7838 0.44657 0.68851 0.0
H1415 H 0.79023 0.43088 0.7646 0.0
H1416 H 0.8402 0.44165 0.64584 0.0
H1417 H 0.86429 0.41422 0.71408 0.0
H1418 H 0.81906 0.38222 0.71524 0.0
Co1419 Co 0.81252 0.79574 0.53419 0.0
C1420 C 0.78611 0.81592 0.51587 0.0
C1421 C 0.804 0.805 0.49823 0.0
C1422 C 0.79188 0.81397 0.48914 0.0
N1423 N 0.80023 0.80596 0.51506 0.0
N1424 N 0.78063 0.82075 0.5003 0.0
H1425 H 0.77969 0.81949 0.52757 0.0
H1426 H 0.8145 0.798 0.49272 0.0
C1427 C 0.8383 0.77118 0.51654 0.0
O1428 O 0.84581 0.76581 0.53055 0.0
N1429 N 0.82469 0.78646 0.55361 0.0
C1430 C 0.83233 0.79557 0.56623 0.0
C1431 C 0.83841 0.78446 0.57851 0.0
C1432 C 0.82564 0.77006 0.5587 0.0
N1433 N 0.83444 0.76853 0.57345 0.0
C1434 C 0.82059 0.83062 0.53677 0.0
C1435 C 0.8552 0.82768 0.52987 0.0
C1436 C 0.84801 0.84384 0.53275 0.0
C1437 C 0.83052 0.84527 0.53618 0.0
C1438 C 0.84473 0.81328 0.53051 0.0
N1439 N 0.82767 0.81498 0.53379 0.0
H1440 H 0.80712 0.83185 0.53956 0.0
H1441 H 0.85041 0.80085 0.52878 0.0
H1442 H 0.83304 0.80938 0.56676 0.0
H1443 H 0.81991 0.75944 0.55183 0.0
O1444 O 0.79537 0.80423 0.54985 0.0
O1445 O 0.79442 0.77918 0.53658 0.0
O1446 O 0.82671 0.78273 0.51686 0.0
C1447 C 0.78667 0.79052 0.54601 0.0
H1448 H 0.79084 0.81454 0.47533 0.0
H1449 H 0.84494 0.78777 0.59029 0.0
H1450 H 0.8688 0.82616 0.52756 0.0
H1451 H 0.82458 0.8576 0.53841 0.0
Co1452 Co 0.68336 0.55354 0.78967 0.0
C1453 C 0.66625 0.5282 0.76675 0.0
C1454 C 0.68782 0.54019 0.75467 0.0
C1455 C 0.68061 0.52893 0.74329 0.0
N1456 N 0.67887 0.53977 0.76946 0.0
N1457 N 0.66712 0.5214 0.75092 0.0
H1458 H 0.6566 0.52479 0.77598 0.0
H1459 H 0.69902 0.54791 0.75216 0.0
C1460 C 0.71386 0.57496 0.77871 0.0
O1461 O 0.70747 0.5888 0.7858 0.0
N1462 N 0.68829 0.56738 0.80976 0.0
C1463 C 0.68045 0.58131 0.81646 0.0
C1464 C 0.69108 0.58858 0.82858 0.0
C1465 C 0.70314 0.56612 0.81836 0.0
N1466 N 0.7052 0.57884 0.82977 0.0
C1467 C 0.655 0.57583 0.78529 0.0
C1468 C 0.66918 0.59588 0.75968 0.0
C1469 C 0.65454 0.60139 0.76821 0.0
C1470 C 0.64681 0.59078 0.78037 0.0
C1471 C 0.67685 0.58064 0.76494 0.0
N1472 N 0.67074 0.57195 0.77888 0.0
H1473 H 0.64945 0.56827 0.79543 0.0
H1474 H 0.68799 0.57631 0.75811 0.0
H1475 H 0.66847 0.58674 0.8124 0.0
H1476 H 0.71313 0.5571 0.81501 0.0
O1477 O 0.66487 0.54212 0.8019 0.0
O1478 O 0.69208 0.53392 0.8015 0.0
O1479 O 0.70578 0.56078 0.77932 0.0
C1480 C 0.67656 0.53133 0.80688 0.0
H1481 H 0.68543 0.52585 0.73067 0.0
H1482 H 0.68914 0.60065 0.83512 0.0
H1483 H 0.67494 0.60351 0.74964 0.0
H1484 H 0.63506 0.59454 0.78673 0.0
Co1485 Co 0.93203 0.43852 0.03578 0.0
C1486 C 0.95302 0.41813 0.01158 0.0
C1487 C 0.93924 0.438 -0.0014 0.0
C1488 C 0.94979 0.43 0.98704 0.0
N1489 N 0.94134 0.43065 0.01407 0.0
N1490 N 0.95865 0.41765 -0.00475 0.0
H1491 H 0.95823 0.41026 0.0217 0.0
H1492 H 0.93145 0.44911 -0.00408 0.0
C1493 C 0.90214 0.46035 0.02326 0.0
O1494 O 0.89096 0.45269 0.03323 0.0
N1495 N 0.92275 0.44653 0.05742 0.0
C1496 C 0.92139 0.43853 0.07274 0.0
C1497 C 0.91347 0.44942 0.08425 0.0
C1498 C 0.91636 0.46226 0.06013 0.0
N1499 N 0.90997 0.46409 0.07598 0.0
C1500 C 0.91502 0.40792 0.04499 0.0
C1501 C 0.89194 0.40792 0.01814 0.0
C1502 C 0.89126 0.39483 0.03036 0.0
C1503 C 0.90344 0.39458 0.04353 0.0
C1504 C 0.90421 0.42067 0.01977 0.0
N1505 N 0.9147 0.42121 0.03375 0.0
H1506 H 0.92461 0.40721 0.05486 0.0
H1507 H 0.90529 0.43 0.00967 0.0
H1508 H 0.9262 0.42593 0.07569 0.0
H1509 H 0.91689 0.47256 0.05089 0.0
O1510 O 0.94916 0.42543 0.04783 0.0
O1511 O 0.95208 0.45231 0.03901 0.0
O1512 O 0.91792 0.45602 0.02308 0.0
C1513 C 0.959 0.43868 0.04567 0.0
H1514 H 0.95206 0.43417 0.97402 0.0
H1515 H 0.91069 0.44687 0.09758 0.0
H1516 H 0.88307 0.40846 0.0075 0.0
H1517 H 0.90415 0.38413 0.05261 0.0
Co1518 Co 0.93251 0.20433 0.80765 0.0
C1519 C 0.92263 0.22332 0.77618 0.0
C1520 C 0.93126 0.24017 0.7961 0.0
C1521 C 0.9263 0.2499 0.7823 0.0
N1522 N 0.92907 0.22346 0.79224 0.0
N1523 N 0.92088 0.23925 0.76986 0.0
H1524 H 0.91908 0.21194 0.76917 0.0
H1525 H 0.93603 0.24509 0.80811 0.0
C1526 C 0.95338 0.21996 0.83704 0.0
O1527 O 0.94623 0.21092 0.84929 0.0
N1528 N 0.93553 0.1854 0.82312 0.0
C1529 C 0.92456 0.17246 0.82653 0.0
C1530 C 0.9335 0.15948 0.83461 0.0
C1531 C 0.95071 0.18023 0.82916 0.0
N1532 N 0.94983 0.1647 0.8365 0.0
C1533 C 0.89712 0.2039 0.81438 0.0
C1534 C 0.8978 0.22513 0.84261 0.0
C1535 C 0.88328 0.21523 0.83915 0.0
C1536 C 0.88243 0.20585 0.82399 0.0
C1537 C 0.91207 0.22328 0.83219 0.0
N1538 N 0.9121 0.2113 0.81947 0.0
H1539 H 0.89649 0.19556 0.80345 0.0
H1540 H 0.92303 0.23109 0.83487 0.0
H1541 H 0.91149 0.17173 0.82202 0.0
H1542 H 0.96263 0.18682 0.82646 0.0
O1543 O 0.92249 0.18883 0.79127 0.0
O1544 O 0.95003 0.19532 0.79299 0.0
O1545 O 0.9483 0.21905 0.82155 0.0
C1546 C 0.9378 0.18729 0.78502 0.0
H1547 H 0.92714 0.2637 0.78126 0.0
H1548 H 0.92882 0.14673 0.83742 0.0
H1549 H 0.89865 0.23314 0.8539 0.0
H1550 H 0.87102 0.19874 0.82049 0.0
Co1551 Co 0.28511 0.67675 0.05209 0.0
C1552 C 0.25914 0.66771 0.02499 0.0
C1553 C 0.2478 0.67587 0.04856 0.0
C1554 C 0.23492 0.67224 0.03724 0.0
N1555 N 0.26307 0.67291 0.04106 0.0
N1556 N 0.24199 0.66717 0.02235 0.0
H1557 H 0.26846 0.66511 0.01519 0.0
H1558 H 0.24592 0.68082 0.06128 0.0
C1559 C 0.27911 0.71109 0.07049 0.0
O1560 O 0.28952 0.70815 0.08338 0.0
N1561 N 0.30691 0.68049 0.06341 0.0
C1562 C 0.31494 0.67078 0.07531 0.0
C1563 C 0.32902 0.67954 0.08131 0.0
C1564 C 0.31674 0.69448 0.06171 0.0
N1565 N 0.33013 0.69433 0.07261 0.0
C1566 C 0.28004 0.64857 0.0745 0.0
C1567 C 0.26845 0.66772 0.102 0.0
C1568 C 0.27521 0.65154 0.10473 0.0
C1569 C 0.27988 0.64135 0.09075 0.0
C1570 C 0.26893 0.67442 0.08558 0.0
N1571 N 0.27642 0.6655 0.07247 0.0
H1572 H 0.28498 0.6411 0.06399 0.0
H1573 H 0.26361 0.68689 0.08385 0.0
H1574 H 0.31071 0.65855 0.08001 0.0
H1575 H 0.31321 0.70537 0.05388 0.0
O1576 O 0.29532 0.65747 0.03988 0.0
O1577 O 0.29498 0.68458 0.03124 0.0
O1578 O 0.27635 0.69979 0.05902 0.0
C1579 C 0.29998 0.66898 0.02871 0.0
H1580 H 0.22136 0.6735 0.03978 0.0
H1581 H 0.33714 0.6759 0.09195 0.0
H1582 H 0.26384 0.67548 0.11254 0.0
H1583 H 0.28447 0.62839 0.09254 0.0
Co1584 Co 0.45567 0.68301 0.67954 0.0
C1585 C 0.47763 0.67287 0.70911 0.0
C1586 C 0.49244 0.68094 0.68749 0.0
C1587 C 0.50349 0.6757 0.70016 0.0
N1588 N 0.47619 0.67937 0.69314 0.0
N1589 N 0.49412 0.67061 0.71372 0.0
H1590 H 0.46697 0.66928 0.71712 0.0
H1591 H 0.4961 0.68509 0.67484 0.0
C1592 C 0.46751 0.71613 0.66559 0.0
O1593 O 0.45496 0.72347 0.67398 0.0
N1594 N 0.43521 0.68626 0.66568 0.0
C1595 C 0.42911 0.67694 0.65237 0.0
C1596 C 0.41568 0.68569 0.64487 0.0
C1597 C 0.42472 0.69983 0.66665 0.0
N1598 N 0.4129 0.6999 0.65413 0.0
C1599 C 0.46375 0.64874 0.67196 0.0
C1600 C 0.47155 0.65399 0.6378 0.0
C1601 C 0.47045 0.63733 0.64423 0.0
C1602 C 0.46753 0.63476 0.66172 0.0
C1603 C 0.46786 0.66762 0.64851 0.0
N1604 N 0.4631 0.66472 0.66507 0.0
H1605 H 0.4607 0.64673 0.6853 0.0
H1606 H 0.46733 0.68025 0.64296 0.0
H1607 H 0.43426 0.66495 0.64786 0.0
H1608 H 0.42632 0.71024 0.67561 0.0
O1609 O 0.44202 0.67051 0.69609 0.0
O1610 O 0.44714 0.69841 0.69649 0.0
O1611 O 0.46878 0.69989 0.66545 0.0
C1612 C 0.44022 0.68519 0.70381 0.0
H1613 H 0.51734 0.67579 0.69948 0.0
H1614 H 0.4091 0.68236 0.63312 0.0
H1615 H 0.47359 0.65643 0.6243 0.0
H1616 H 0.46693 0.62199 0.66712 0.0
Co1617 Co 0.29103 0.55099 0.17793 0.0
C1618 C 0.27125 0.56416 0.20833 0.0
C1619 C 0.25515 0.55933 0.18663 0.0
C1620 C 0.24526 0.56615 0.19943 0.0
N1621 N 0.27154 0.55806 0.19205 0.0
N1622 N 0.25536 0.56916 0.21304 0.0
H1623 H 0.28233 0.56532 0.21654 0.0
H1624 H 0.25051 0.55585 0.17412 0.0
C1625 C 0.27458 0.52367 0.15909 0.0
O1626 O 0.2884 0.51475 0.16257 0.0
N1627 N 0.31017 0.54452 0.16348 0.0
C1628 C 0.31161 0.54759 0.14655 0.0
C1629 C 0.32424 0.53719 0.13993 0.0
C1630 C 0.32228 0.53276 0.16694 0.0
N1631 N 0.33081 0.52773 0.1528 0.0
C1632 C 0.30173 0.58492 0.17159 0.0
C1633 C 0.27411 0.59377 0.15139 0.0
C1634 C 0.28557 0.60648 0.15679 0.0
C1635 C 0.29969 0.60192 0.16678 0.0
C1636 C 0.2766 0.57699 0.15647 0.0
N1637 N 0.29002 0.57284 0.16681 0.0
H1638 H 0.31262 0.58156 0.17939 0.0
H1639 H 0.26746 0.56752 0.15232 0.0
H1640 H 0.3029 0.55544 0.13918 0.0
H1641 H 0.3232 0.52608 0.17902 0.0
O1642 O 0.30652 0.55687 0.19607 0.0
O1643 O 0.29423 0.53149 0.19252 0.0
O1644 O 0.27469 0.53981 0.16159 0.0
C1645 C 0.30373 0.54151 0.20182 0.0
H1646 H 0.23159 0.56844 0.19891 0.0
H1647 H 0.32693 0.53526 0.12647 0.0
H1648 H 0.26351 0.59667 0.14291 0.0
H1649 H 0.3091 0.61136 0.17069 0.0
Co1650 Co 0.93715 0.03586 0.43276 0.0
C1651 C 0.91921 0.01465 0.45897 0.0
C1652 C 0.93187 -0.00095 0.44029 0.0
C1653 C 0.92396 0.9885 0.45193 0.0
N1654 N 0.929 0.01551 0.4447 0.0
N1655 N 0.91607 -0.00167 0.46368 0.0
H1656 H 0.91462 0.02563 0.46601 0.0
H1657 H 0.93941 -0.00524 0.42954 0.0
C1658 C 0.95651 0.02035 0.40242 0.0
O1659 O 0.95073 0.03116 0.39092 0.0
N1660 N 0.94528 0.05597 0.42076 0.0
C1661 C 0.93713 0.07086 0.41745 0.0
C1662 C 0.94846 0.08193 0.40952 0.0
C1663 C 0.96138 0.05831 0.41511 0.0
N1664 N 0.96354 0.07377 0.40781 0.0
C1665 C 0.90352 0.04426 0.42257 0.0
C1666 C 0.89917 0.01755 0.39991 0.0
C1667 C 0.88498 0.02766 0.40426 0.0
C1668 C 0.88734 0.04104 0.41596 0.0
C1669 C 0.91496 0.02069 0.40748 0.0
N1670 N 0.91715 0.03417 0.41837 0.0
H1671 H 0.90475 0.05444 0.43177 0.0
H1672 H 0.92499 0.01162 0.40512 0.0
H1673 H 0.92411 0.07382 0.421 0.0
H1674 H 0.9716 0.0491 0.41689 0.0
O1675 O 0.92784 0.05016 0.45049 0.0
O1676 O 0.95405 0.03922 0.45027 0.0
O1677 O 0.95169 0.02084 0.41798 0.0
C1678 C 0.94221 0.04759 0.45845 0.0
H1679 H 0.92471 0.97466 0.45226 0.0
H1680 H 0.94596 0.09501 0.40567 0.0
H1681 H 0.89826 0.00718 0.39077 0.0
H1682 H 0.8768 0.04894 0.42025 0.0
Co1683 Co 0.05794 0.94505 0.5446 0.0
C1684 C 0.0325 0.96859 0.56051 0.0
C1685 C 0.05124 0.98242 0.54609 0.0
C1686 C 0.04029 0.99399 0.55362 0.0
N1687 N 0.04619 0.96639 0.55014 0.0
N1688 N 0.02852 0.98522 0.56266 0.0
H1689 H 0.02568 0.95835 0.56681 0.0
H1690 H 0.06223 0.98567 0.53843 0.0
C1691 C 0.06762 0.95878 0.51072 0.0
O1692 O 0.05511 0.94956 0.50429 0.0
N1693 N 0.06987 0.92393 0.53964 0.0
C1694 C 0.08221 0.91601 0.54887 0.0
C1695 C 0.09076 0.90465 0.53837 0.0
C1696 C 0.07034 0.91645 0.52422 0.0
N1697 N 0.08309 0.90495 0.52296 0.0
C1698 C 0.06926 0.95263 0.57781 0.0
C1699 C 0.10329 0.95824 0.5694 0.0
C1700 C 0.09798 0.95928 0.58642 0.0
C1701 C 0.08071 0.95697 0.59058 0.0
C1702 C 0.09133 0.95405 0.55694 0.0
N1703 N 0.07469 0.95097 0.56137 0.0
H1704 H 0.05601 0.95038 0.58111 0.0
H1705 H 0.09569 0.9524 0.54393 0.0
H1706 H 0.08585 0.91929 0.56181 0.0
H1707 H 0.06286 0.92069 0.51341 0.0
O1708 O 0.04173 0.93241 0.55853 0.0
O1709 O 0.03898 0.93799 0.5309 0.0
O1710 O 0.07134 0.95754 0.52656 0.0
C1711 C 0.03217 0.93214 0.54486 0.0
H1712 H 0.04065 0.00777 0.55211 0.0
H1713 H 0.10254 0.89796 0.54131 0.0
H1714 H 0.11664 0.95968 0.5659 0.0
H1715 H 0.07626 0.95784 0.60369 0.0
Co1716 Co 0.55907 0.78922 0.68993 0.0
C1717 C 0.5348 0.76574 0.67245 0.0
C1718 C 0.55357 0.75171 0.68666 0.0
C1719 C 0.54249 0.74026 0.67912 0.0
N1720 N 0.54856 0.76777 0.68277 0.0
N1721 N 0.53065 0.74916 0.67029 0.0
H1722 H 0.52767 0.7761 0.66672 0.0
H1723 H 0.56429 0.74836 0.69465 0.0
C1724 C 0.57203 0.77578 0.72274 0.0
O1725 O 0.56106 0.78614 0.73006 0.0
N1726 N 0.56984 0.81077 0.69644 0.0
C1727 C 0.58276 0.81917 0.68848 0.0
C1728 C 0.58944 0.83128 0.69944 0.0
C1729 C 0.56808 0.81888 0.71152 0.0
N1730 N 0.58007 0.83107 0.71384 0.0
C1731 C 0.56954 0.78788 0.65555 0.0
C1732 C 0.60394 0.7821 0.66178 0.0
C1733 C 0.59827 0.78506 0.64504 0.0
C1734 C 0.5808 0.78736 0.64188 0.0
C1735 C 0.59221 0.78261 0.67511 0.0
N1736 N 0.57539 0.78618 0.67189 0.0
H1737 H 0.55612 0.79007 0.65304 0.0
H1738 H 0.59696 0.78137 0.68802 0.0
H1739 H 0.58787 0.8162 0.67599 0.0
H1740 H 0.5591 0.81517 0.72133 0.0
O1741 O 0.54153 0.80193 0.67785 0.0
O1742 O 0.53992 0.79335 0.70477 0.0
O1743 O 0.57384 0.77608 0.7065 0.0
C1744 C 0.53234 0.80009 0.69161 0.0
H1745 H 0.54255 0.7265 0.68084 0.0
H1746 H 0.60104 0.83866 0.69754 0.0
H1747 H 0.61741 0.78037 0.66465 0.0
H1748 H 0.57595 0.78923 0.62902 0.0
Co1749 Co 0.69828 0.31046 0.92813 0.0
C1750 C 0.72135 0.28014 0.92123 0.0
C1751 C 0.73401 0.30447 0.91979 0.0
C1752 C 0.74541 0.29208 0.91502 0.0
N1753 N 0.71887 0.29714 0.92373 0.0
N1754 N 0.73745 0.27681 0.9158 0.0
H1755 H 0.71161 0.27042 0.9226 0.0
H1756 H 0.73635 0.31809 0.91941 0.0
C1757 C 0.71477 0.32481 0.95873 0.0
O1758 O 0.70382 0.31556 0.96752 0.0
N1759 N 0.67801 0.32423 0.93195 0.0
C1760 C 0.66332 0.32356 0.92289 0.0
C1761 C 0.65061 0.33171 0.93206 0.0
C1762 C 0.67423 0.33348 0.94595 0.0
N1763 N 0.65755 0.33785 0.94664 0.0
C1764 C 0.7042 0.31458 0.89268 0.0
C1765 C 0.71321 0.34875 0.8946 0.0
C1766 C 0.7155 0.33983 0.8792 0.0
C1767 C 0.71045 0.3227 0.87809 0.0
C1768 C 0.70673 0.34023 0.90877 0.0
N1769 N 0.70297 0.32326 0.90778 0.0
H1770 H 0.70111 0.3011 0.89211 0.0
H1771 H 0.70515 0.34713 0.92065 0.0
H1772 H 0.66153 0.31624 0.91128 0.0
H1773 H 0.68281 0.33529 0.95655 0.0
O1774 O 0.68413 0.29244 0.9185 0.0
O1775 O 0.6914 0.29487 0.94574 0.0
O1776 O 0.7131 0.3261 0.94249 0.0
C1777 C 0.68358 0.28621 0.93394 0.0
H1778 H 0.75855 0.29415 0.9111 0.0
H1779 H 0.63704 0.3314 0.92922 0.0
H1780 H 0.71632 0.36224 0.89562 0.0
H1781 H 0.7117 0.31561 0.86624 0.0
Co1782 Co 0.70095 0.44156 0.80816 0.0
C1783 C 0.72529 0.46456 0.82649 0.0
C1784 C 0.7338 0.45868 0.80101 0.0
C1785 C 0.74597 0.46868 0.80875 0.0
N1786 N 0.72081 0.45598 0.8121 0.0
N1787 N 0.74061 0.47237 0.82467 0.0
H1788 H 0.71773 0.46492 0.83807 0.0
H1789 H 0.73461 0.45383 0.7881 0.0
C1790 C 0.71324 0.41986 0.77824 0.0
O1791 O 0.70734 0.40579 0.78532 0.0
N1792 N 0.68106 0.42715 0.80379 0.0
C1793 C 0.673 0.41525 0.81351 0.0
C1794 C 0.66213 0.40583 0.80323 0.0
C1795 C 0.67407 0.42546 0.78816 0.0
N1796 N 0.66284 0.4124 0.78736 0.0
C1797 C 0.70594 0.41864 0.83603 0.0
C1798 C 0.73266 0.40041 0.82156 0.0
C1799 C 0.72372 0.39359 0.83542 0.0
C1800 C 0.71103 0.40333 0.84342 0.0
C1801 C 0.72715 0.41596 0.81471 0.0
N1802 N 0.71252 0.42354 0.82067 0.0
H1803 H 0.69578 0.42587 0.84197 0.0
H1804 H 0.73415 0.42139 0.80414 0.0
H1805 H 0.67519 0.41273 0.82685 0.0
H1806 H 0.67853 0.43243 0.77703 0.0
O1807 O 0.68907 0.45273 0.82686 0.0
O1808 O 0.6884 0.46077 0.79959 0.0
O1809 O 0.71125 0.43431 0.78561 0.0
C1810 C 0.68367 0.46344 0.81531 0.0
H1811 H 0.7577 0.47333 0.80297 0.0
H1812 H 0.65525 0.39433 0.80681 0.0
H1813 H 0.74323 0.39355 0.81577 0.0
H1814 H 0.70453 0.39871 0.85478 0.0
Co1815 Co 0.04056 0.81124 0.29864 0.0
C1816 C 0.01598 0.78224 0.30594 0.0
C1817 C 0.00363 0.80659 0.30332 0.0
C1818 C 0.99132 0.79452 0.30681 0.0
N1819 N 0.0191 0.79895 0.30236 0.0
N1820 N -0.00087 0.77931 0.3084 0.0
H1821 H 0.02566 0.77248 0.3073 0.0
H1822 H 0.00153 0.82019 0.30265 0.0
C1823 C 0.02582 0.82554 0.26712 0.0
O1824 O 0.03598 0.81503 0.25882 0.0
N1825 N 0.06167 0.82387 0.29526 0.0
C1826 C 0.07624 0.82252 0.30446 0.0
C1827 C 0.0894 0.83012 0.2954 0.0
C1828 C 0.06602 0.83295 0.28132 0.0
N1829 N 0.08287 0.83664 0.28081 0.0
C1830 C 0.03285 0.81701 0.33327 0.0
C1831 C 0.02954 0.85217 0.33059 0.0
C1832 C 0.02645 0.84407 0.34628 0.0
C1833 C 0.02822 0.82632 0.34764 0.0
C1834 C 0.03422 0.84237 0.31655 0.0
N1835 N 0.03556 0.82507 0.31806 0.0
H1836 H 0.034 0.80325 0.33421 0.0
H1837 H 0.03685 0.84864 0.3045 0.0
H1838 H 0.07759 0.81512 0.31608 0.0
H1839 H 0.05764 0.83502 0.27059 0.0
O1840 O 0.05325 0.79325 0.30984 0.0
O1841 O 0.04754 0.79449 0.28209 0.0
O1842 O 0.02742 0.82721 0.28329 0.0
C1843 C 0.05428 0.78617 0.29482 0.0
H1844 H 0.97781 0.79685 0.30893 0.0
H1845 H 0.10293 0.82921 0.29836 0.0
H1846 H 0.02874 0.86597 0.32931 0.0
H1847 H 0.02605 0.81976 0.35967 0.0
Co1848 Co 0.30474 0.30339 0.53465 0.0
C1849 C 0.27391 0.31416 0.51391 0.0
C1850 C 0.29732 0.31525 0.49969 0.0
C1851 C 0.28423 0.32101 0.48938 0.0
N1852 N 0.2909 0.31076 0.5151 0.0
N1853 N 0.26956 0.32024 0.49836 0.0
H1854 H 0.26481 0.31292 0.52413 0.0
H1855 H 0.31071 0.31475 0.49623 0.0
C1856 C 0.33245 0.28101 0.51795 0.0
O1857 O 0.33985 0.27649 0.5323 0.0
N1858 N 0.31859 0.29664 0.55418 0.0
C1859 C 0.32833 0.30661 0.56452 0.0
C1860 C 0.33641 0.29638 0.57649 0.0
C1861 C 0.32014 0.28074 0.5606 0.0
N1862 N 0.33117 0.28023 0.57383 0.0
C1863 C 0.30829 0.33933 0.5338 0.0
C1864 C 0.34216 0.33935 0.52357 0.0
C1865 C 0.33301 0.35473 0.52401 0.0
C1866 C 0.31603 0.35482 0.52963 0.0
C1867 C 0.33403 0.32425 0.52799 0.0
N1868 N 0.31721 0.32437 0.53255 0.0
H1869 H 0.29492 0.33921 0.53739 0.0
H1870 H 0.34125 0.31252 0.52775 0.0
H1871 H 0.32976 0.32033 0.56339 0.0
H1872 H 0.31414 0.26952 0.55505 0.0
O1873 O 0.28725 0.31053 0.5503 0.0
O1874 O 0.28936 0.28469 0.53862 0.0
O1875 O 0.31994 0.2915 0.51761 0.0
C1876 C 0.28071 0.29532 0.54807 0.0
H1877 H 0.28535 0.32513 0.47619 0.0
H1878 H 0.34567 0.30037 0.58601 0.0
H1879 H 0.35559 0.33903 0.52003 0.0
H1880 H 0.30881 0.36663 0.53048 0.0
Co1881 Co 0.19281 0.55342 0.28966 0.0
C1882 C 0.16883 0.54014 0.26421 0.0
C1883 C 0.19296 0.54617 0.25252 0.0
C1884 C 0.18281 0.53786 0.24074 0.0
N1885 N 0.18421 0.54732 0.2673 0.0
N1886 N 0.16777 0.53374 0.24826 0.0
H1887 H 0.15933 0.53774 0.274 0.0
H1888 H 0.20629 0.54953 0.25081 0.0
C1889 C 0.218 0.58028 0.27371 0.0
O1890 O 0.20959 0.59422 0.27784 0.0
N1891 N 0.20092 0.55971 0.3123 0.0
C1892 C 0.19949 0.55106 0.32719 0.0
C1893 C 0.20619 0.56098 0.34018 0.0
C1894 C 0.2079 0.57482 0.3166 0.0
N1895 N 0.2116 0.57598 0.33347 0.0
C1896 C 0.16659 0.57393 0.30305 0.0
C1897 C 0.16265 0.59507 0.27496 0.0
C1898 C 0.15092 0.59629 0.28854 0.0
C1899 C 0.15305 0.58539 0.30268 0.0
C1900 C 0.17556 0.5828 0.27553 0.0
N1901 N 0.17766 0.57277 0.28966 0.0
H1902 H 0.16767 0.56524 0.31376 0.0
H1903 H 0.18355 0.58102 0.26439 0.0
H1904 H 0.19428 0.53833 0.32864 0.0
H1905 H 0.21115 0.58449 0.30739 0.0
O1906 O 0.17747 0.53661 0.29968 0.0
O1907 O 0.2041 0.53175 0.29085 0.0
O1908 O 0.21273 0.56548 0.27825 0.0
C1909 C 0.18968 0.52568 0.29656 0.0
H1910 H 0.18709 0.53307 0.22846 0.0
H1911 H 0.20793 0.55699 0.35333 0.0
H1912 H 0.16176 0.6032 0.26378 0.0
H1913 H 0.14404 0.5851 0.31318 0.0
Co1914 Co 0.18604 0.18454 0.44741 0.0
C1915 C 0.16643 0.20721 0.47136 0.0
C1916 C 0.19103 0.20012 0.48142 0.0
C1917 C 0.18306 0.21044 0.4931 0.0
N1918 N 0.18057 0.19781 0.46781 0.0
N1919 N 0.16768 0.21494 0.48679 0.0
H1920 H 0.15562 0.20864 0.46282 0.0
H1921 H 0.20382 0.19509 0.48283 0.0
C1922 C 0.21211 0.16094 0.46388 0.0
O1923 O 0.20421 0.14707 0.45854 0.0
N1924 N 0.19218 0.17158 0.42692 0.0
C1925 C 0.18408 0.17079 0.4116 0.0
C1926 C 0.19484 0.16322 0.39973 0.0
C1927 C 0.20772 0.16478 0.42389 0.0
N1928 N 0.20951 0.15913 0.40777 0.0
C1929 C 0.16135 0.15806 0.44492 0.0
C1930 C 0.16646 0.14452 0.4773 0.0
C1931 C 0.1571 0.13526 0.46518 0.0
C1932 C 0.15383 0.14258 0.44915 0.0
C1933 C 0.17382 0.16007 0.47246 0.0
N1934 N 0.17231 0.16584 0.45598 0.0
H1935 H 0.15875 0.16355 0.43255 0.0
H1936 H 0.18177 0.16673 0.4816 0.0
H1937 H 0.17179 0.17649 0.40877 0.0
H1938 H 0.21852 0.16596 0.4324 0.0
O1939 O 0.1686 0.1968 0.43483 0.0
O1940 O 0.196 0.20447 0.43721 0.0
O1941 O 0.207 0.17585 0.45956 0.0
C1942 C 0.18075 0.20767 0.43128 0.0
H1943 H 0.18857 0.21515 0.50493 0.0
H1944 H 0.19261 0.16208 0.3861 0.0
H1945 H 0.1686 0.13951 0.49005 0.0
H1946 H 0.14563 0.1363 0.43987 0.0
Co1947 Co 0.30362 0.44072 0.21041 0.0
C1948 C 0.28261 0.42147 0.23552 0.0
C1949 C 0.29391 0.44395 0.24667 0.0
C1950 C 0.28425 0.43589 0.25891 0.0
N1951 N 0.29298 0.43488 0.23201 0.0
N1952 N 0.27713 0.4218 0.25191 0.0
H1953 H 0.27885 0.41191 0.22622 0.0
H1954 H 0.3006 0.45595 0.24836 0.0
C1955 C 0.33446 0.4608 0.22511 0.0
O1956 O 0.3464 0.45217 0.21701 0.0
N1957 N 0.3144 0.44663 0.18876 0.0
C1958 C 0.31354 0.43815 0.1737 0.0
C1959 C 0.32243 0.44721 0.16145 0.0
C1960 C 0.32345 0.4609 0.18527 0.0
N1961 N 0.32881 0.46142 0.16885 0.0
C1962 C 0.31763 0.40847 0.20219 0.0
C1963 C 0.342 0.40749 0.22779 0.0
C1964 C 0.342 0.39481 0.21506 0.0
C1965 C 0.32891 0.39487 0.20282 0.0
C1966 C 0.3299 0.42058 0.22702 0.0
N1967 N 0.31904 0.42175 0.21338 0.0
H1968 H 0.30773 0.40823 0.19262 0.0
H1969 H 0.32948 0.42987 0.2372 0.0
H1970 H 0.3062 0.42668 0.17133 0.0
H1971 H 0.32497 0.47143 0.19412 0.0
O1972 O 0.28553 0.42888 0.1984 0.0
O1973 O 0.2852 0.45632 0.20591 0.0
O1974 O 0.31861 0.45738 0.22316 0.0
C1975 C 0.2772 0.44323 0.19936 0.0
H1976 H 0.28184 0.4406 0.27172 0.0
H1977 H 0.32337 0.44407 0.14799 0.0
H1978 H 0.35145 0.40765 0.23793 0.0
H1979 H 0.32753 0.38466 0.19354 0.0
Co1980 Co 0.05951 0.78673 0.1868 0.0
C1981 C 0.03031 0.76639 0.17196 0.0
C1982 C 0.05377 0.75232 0.1729 0.0
C1983 C 0.04136 0.742 0.16593 0.0
N1984 N 0.04682 0.76754 0.17708 0.0
N1985 N 0.02651 0.75082 0.16538 0.0
H1986 H 0.02127 0.77674 0.1727 0.0
H1987 H 0.06708 0.74895 0.17455 0.0
C1988 C 0.08702 0.76764 0.20859 0.0
O1989 O 0.09629 0.78093 0.21302 0.0
N1990 N 0.07242 0.80581 0.19587 0.0
C1991 C 0.07923 0.81895 0.18691 0.0
C1992 C 0.08724 0.83002 0.19813 0.0
C1993 C 0.07584 0.80931 0.21236 0.0
N1994 N 0.08534 0.82363 0.21399 0.0
C1995 C 0.06518 0.78853 0.1514 0.0
C1996 C 0.09952 0.78002 0.15244 0.0
C1997 C 0.091 0.78101 0.13669 0.0
C1998 C 0.07379 0.78578 0.13614 0.0
C1999 C 0.09044 0.78299 0.1674 0.0
N2000 N 0.07339 0.78656 0.16668 0.0
H2001 H 0.05165 0.79143 0.15103 0.0
H2002 H 0.09702 0.78222 0.17947 0.0
H2003 H 0.07837 0.82045 0.17317 0.0
H2004 H 0.07156 0.80149 0.22299 0.0
O2005 O 0.04199 0.8026 0.17948 0.0
O2006 O 0.0427 0.78919 0.20449 0.0
O2007 O 0.07407 0.769 0.19869 0.0
C2008 C 0.03449 0.79919 0.19398 0.0
H2009 H 0.04319 0.72884 0.16206 0.0
H2010 H 0.09397 0.84173 0.19495 0.0
H2011 H 0.11304 0.77695 0.15315 0.0
H2012 H 0.06698 0.78686 0.1241 0.0
Co2013 Co 0.53469 0.31301 0.30786 0.0
C2014 C 0.5133 0.28144 0.31392 0.0
C2015 C 0.49867 0.30461 0.31488 0.0
C2016 C 0.48792 0.29107 0.31832 0.0
N2017 N 0.51464 0.29864 0.31203 0.0
N2018 N 0.49717 0.27657 0.31763 0.0
H2019 H 0.52377 0.27253 0.31336 0.0
H2020 H 0.49511 0.31797 0.31491 0.0
C2021 C 0.52029 0.33155 0.27841 0.0
O2022 O 0.53356 0.32626 0.26958 0.0
N2023 N 0.55462 0.32757 0.3038 0.0
C2024 C 0.56088 0.34108 0.31274 0.0
C2025 C 0.57473 0.34794 0.30404 0.0
C2026 C 0.56522 0.32609 0.29032 0.0
N2027 N 0.57746 0.33818 0.29017 0.0
C2028 C 0.53009 0.3154 0.3435 0.0
C2029 C 0.51785 0.34857 0.34401 0.0
C2030 C 0.51879 0.33926 0.35934 0.0
C2031 C 0.52478 0.3224 0.35895 0.0
C2032 C 0.52311 0.34103 0.32881 0.0
N2033 N 0.52942 0.32476 0.32879 0.0
H2034 H 0.5344 0.30228 0.34328 0.0
H2035 H 0.52266 0.34853 0.31721 0.0
H2036 H 0.55583 0.34596 0.32462 0.0
H2037 H 0.56368 0.31686 0.28012 0.0
O2038 O 0.5497 0.29567 0.31675 0.0
O2039 O 0.54143 0.29789 0.28969 0.0
O2040 O 0.51957 0.32865 0.29443 0.0
C2041 C 0.54988 0.28945 0.30131 0.0
H2042 H 0.47435 0.2918 0.32108 0.0
H2043 H 0.58195 0.3593 0.3074 0.0
H2044 H 0.5138 0.36183 0.34382 0.0
H2045 H 0.52562 0.3148 0.37052 0.0
Co2046 Co 0.43738 0.19552 0.29832 0.0
C2047 C 0.41747 0.22203 0.27944 0.0
C2048 C 0.44321 0.23026 0.28456 0.0
C2049 C 0.43511 0.24276 0.27529 0.0
N2050 N 0.43214 0.21724 0.28732 0.0
N2051 N 0.41901 0.23756 0.27204 0.0
H2052 H 0.40615 0.21411 0.27847 0.0
H2053 H 0.45655 0.23047 0.28813 0.0
C2054 C 0.46412 0.2117 0.32172 0.0
O2055 O 0.45614 0.20656 0.33561 0.0
N2056 N 0.44286 0.17348 0.30895 0.0
C2057 C 0.43576 0.1579 0.30594 0.0
C2058 C 0.44411 0.1457 0.31565 0.0
C2059 C 0.45534 0.17031 0.32036 0.0
N2060 N 0.4561 0.15375 0.32501 0.0
C2061 C 0.4149 0.19051 0.3262 0.0
C2062 C 0.41752 0.22303 0.34004 0.0
C2063 C 0.40895 0.21016 0.34904 0.0
C2064 C 0.40723 0.19392 0.34176 0.0
C2065 C 0.42525 0.21897 0.32447 0.0
N2066 N 0.42476 0.20256 0.31835 0.0
H2067 H 0.41299 0.17809 0.32053 0.0
H2068 H 0.43247 0.2288 0.31796 0.0
H2069 H 0.42554 0.15533 0.29695 0.0
H2070 H 0.46508 0.17932 0.32393 0.0
O2071 O 0.41871 0.18504 0.28598 0.0
O2072 O 0.4457 0.18695 0.27688 0.0
O2073 O 0.45952 0.20629 0.30694 0.0
C2074 C 0.42995 0.18218 0.27404 0.0
H2075 H 0.44104 0.25416 0.27004 0.0
H2076 H 0.44221 0.13198 0.31516 0.0
H2077 H 0.41845 0.23592 0.34509 0.0
H2078 H 0.39969 0.18399 0.34788 0.0
Co2079 Co 0.94709 0.1855 0.68525 0.0
C2080 C 0.9725 0.16511 0.70565 0.0
C2081 C 0.98061 0.16883 0.67979 0.0
C2082 C 0.99336 0.16024 0.68849 0.0
N2083 N 0.96767 0.17233 0.69069 0.0
N2084 N 0.98816 0.15792 0.70477 0.0
H2085 H 0.96517 0.16543 0.71726 0.0
H2086 H 0.98086 0.17246 0.66644 0.0
C2087 C 0.96422 0.21325 0.66101 0.0
O2088 O 0.9509 0.21957 0.65302 0.0
N2089 N 0.92622 0.19767 0.67968 0.0
C2090 C 0.91128 0.18984 0.67573 0.0
C2091 C 0.90012 0.20169 0.669 0.0
C2092 C 0.92363 0.21432 0.67623 0.0
N2093 N 0.90804 0.21695 0.66921 0.0
C2094 C 0.94235 0.15372 0.66887 0.0
C2095 C 0.93897 0.16691 0.63611 0.0
C2096 C 0.93961 0.14923 0.63857 0.0
C2097 C 0.94071 0.14256 0.65519 0.0
C2098 C 0.94067 0.17757 0.65017 0.0
N2099 N 0.94307 0.17088 0.66609 0.0
H2100 H 0.94377 0.14865 0.68168 0.0
H2101 H 0.94006 0.19115 0.64824 0.0
H2102 H 0.90914 0.17617 0.6764 0.0
H2103 H 0.93317 0.22421 0.67798 0.0
O2104 O 0.93434 0.17341 0.70272 0.0
O2105 O 0.94901 0.19765 0.70619 0.0
O2106 O 0.96284 0.20113 0.67191 0.0
C2107 C 0.93981 0.18551 0.71288 0.0
H2108 H 0.00565 0.15638 0.68336 0.0
H2109 H 0.88778 0.19913 0.6632 0.0
H2110 H 0.93777 0.17239 0.62342 0.0
H2111 H 0.94135 0.1289 0.65751 0.0
Co2112 Co 0.55377 0.05733 0.94337 0.0
C2113 C 0.5656 0.03001 0.96774 0.0
C2114 C 0.55695 0.05258 0.98061 0.0
C2115 C 0.56272 0.04115 0.99271 0.0
N2116 N 0.55844 0.04552 0.96489 0.0
N2117 N 0.56807 0.02699 0.98453 0.0
H2118 H 0.56969 0.02124 0.95795 0.0
H2119 H 0.55246 0.06538 0.98316 0.0
C2120 C 0.51982 0.06689 0.95669 0.0
O2121 O 0.51356 0.05558 0.94597 0.0
N2122 N 0.54948 0.0695 0.92213 0.0
C2123 C 0.55925 0.08146 0.91427 0.0
C2124 C 0.54945 0.0897 0.90206 0.0
C2125 C 0.53444 0.06992 0.91381 0.0
N2126 N 0.53392 0.08223 0.90175 0.0
C2127 C 0.58745 0.06681 0.95095 0.0
C2128 C 0.58159 0.10139 0.95588 0.0
C2129 C 0.59835 0.09498 0.95638 0.0
C2130 C 0.60117 0.07745 0.95443 0.0
C2131 C 0.56809 0.09019 0.95247 0.0
N2132 N 0.57133 0.07329 0.94951 0.0
H2133 H 0.58978 0.05331 0.94915 0.0
H2134 H 0.55526 0.09522 0.9513 0.0
H2135 H 0.57214 0.08494 0.91793 0.0
H2136 H 0.52335 0.06258 0.91758 0.0
O2137 O 0.56749 0.04078 0.93086 0.0
O2138 O 0.53971 0.03879 0.93584 0.0
O2139 O 0.53569 0.07098 0.95586 0.0
C2140 C 0.5535 0.03177 0.92986 0.0
H2141 H 0.56273 0.04297 0.00645 0.0
H2142 H 0.55294 0.10115 0.89506 0.0
H2143 H 0.57906 0.11496 0.95723 0.0
H2144 H 0.61396 0.07209 0.95506 0.0
Co2145 Co 0.43547 0.29982 0.20379 0.0
C2146 C 0.45294 0.32105 0.22982 0.0
C2147 C 0.44222 0.29835 0.24101 0.0
C2148 C 0.45126 0.307 0.25337 0.0
N2149 N 0.4433 0.30715 0.2262 0.0
N2150 N 0.45815 0.32115 0.24627 0.0
H2151 H 0.4571 0.33032 0.2204 0.0
H2152 H 0.43626 0.28596 0.24261 0.0
C2153 C 0.40582 0.27726 0.21655 0.0
O2154 O 0.39383 0.28563 0.20824 0.0
N2155 N 0.42768 0.29236 0.18126 0.0
C2156 C 0.4306 0.29961 0.16579 0.0
C2157 C 0.42257 0.28998 0.15326 0.0
C2158 C 0.41841 0.27826 0.17774 0.0
N2159 N 0.4146 0.27683 0.161 0.0
C2160 C 0.41648 0.32891 0.19334 0.0
C2161 C 0.39546 0.33013 0.2218 0.0
C2162 C 0.39405 0.34291 0.20931 0.0
C2163 C 0.40499 0.34235 0.19508 0.0
C2164 C 0.40755 0.31729 0.21983 0.0
N2165 N 0.41732 0.31634 0.20537 0.0
H2166 H 0.42522 0.32905 0.18269 0.0
H2167 H 0.40917 0.30819 0.23009 0.0
H2168 H 0.43836 0.31086 0.16357 0.0
H2169 H 0.41545 0.26836 0.18687 0.0
O2170 O 0.45278 0.31417 0.19342 0.0
O2171 O 0.45629 0.28707 0.20135 0.0
O2172 O 0.42163 0.28131 0.21532 0.0
C2173 C 0.46306 0.3013 0.19588 0.0
H2174 H 0.45398 0.30234 0.26614 0.0
H2175 H 0.42291 0.29221 0.13958 0.0
H2176 H 0.38736 0.32997 0.23304 0.0
H2177 H 0.40499 0.35236 0.18549 0.0
Co2178 Co 0.54907 0.18934 0.29451 0.0
C2179 C 0.57042 0.20949 0.26978 0.0
C2180 C 0.56645 0.18364 0.26159 0.0
C2181 C 0.57573 0.19209 0.24919 0.0
N2182 N 0.56272 0.19469 0.27434 0.0
N2183 N 0.57822 0.20832 0.25446 0.0
H2184 H 0.56996 0.22117 0.27704 0.0
H2185 H 0.56234 0.17043 0.26111 0.0
C2186 C 0.52532 0.16264 0.27321 0.0
O2187 O 0.5226 0.14875 0.28228 0.0
N2188 N 0.53613 0.18328 0.31466 0.0
C2189 C 0.54244 0.18277 0.33077 0.0
C2190 C 0.53179 0.17285 0.34081 0.0
C2191 C 0.52174 0.17387 0.31516 0.0
N2192 N 0.51913 0.16696 0.33073 0.0
C2193 C 0.58141 0.17674 0.30231 0.0
C2194 C 0.57267 0.14249 0.30459 0.0
C2195 C 0.58985 0.14753 0.30545 0.0
C2196 C 0.59412 0.16487 0.30527 0.0
C2197 C 0.56022 0.15495 0.30193 0.0
N2198 N 0.56492 0.17162 0.2999 0.0
H2199 H 0.58493 0.19006 0.30113 0.0
H2200 H 0.54699 0.15123 0.3012 0.0
H2201 H 0.55462 0.18812 0.33466 0.0
H2202 H 0.51347 0.17169 0.3043 0.0
O2203 O 0.55974 0.20764 0.30714 0.0
O2204 O 0.53603 0.20982 0.2915 0.0
O2205 O 0.53432 0.17495 0.27909 0.0
C2206 C 0.54766 0.21723 0.30085 0.0
H2207 H 0.57986 0.18686 0.23704 0.0
H2208 H 0.53363 0.16952 0.35414 0.0
H2209 H 0.56904 0.1291 0.30489 0.0
H2210 H 0.60733 0.16909 0.30618 0.0
Co2211 Co 0.42756 0.94174 0.03435 0.0
C2212 C 0.45864 0.92906 0.01578 0.0
C2213 C 0.43711 0.93211 -0.00092 0.0
C2214 C 0.45087 0.92651 0.98956 0.0
N2215 N 0.44202 0.93397 0.01554 0.0
N2216 N 0.4644 0.92467 0.00012 0.0
H2217 H 0.46653 0.92853 0.02705 0.0
H2218 H 0.42443 0.93473 -0.00578 0.0
C2219 C 0.40376 0.96805 0.01666 0.0
O2220 O 0.39612 0.97371 0.03046 0.0
N2221 N 0.41318 0.94881 0.05328 0.0
C2222 C 0.40402 0.93865 0.06395 0.0
C2223 C 0.39668 0.94861 0.07656 0.0
C2224 C 0.41202 0.96455 0.06005 0.0
N2225 N 0.40161 0.96483 0.07376 0.0
C2226 C 0.41856 0.90701 0.03197 0.0
C2227 C 0.38367 0.91288 0.02934 0.0
C2228 C 0.38967 0.89669 0.03399 0.0
C2229 C 0.40731 0.89343 0.03403 0.0
C2230 C 0.39535 0.92604 0.02725 0.0
N2231 N 0.41237 0.92314 0.02982 0.0
H2232 H 0.43215 0.9049 0.03358 0.0
H2233 H 0.39043 0.9388 0.02575 0.0
H2234 H 0.40304 0.92487 0.06295 0.0
H2235 H 0.41871 0.97566 0.0551 0.0
O2236 O 0.44265 0.93112 0.05083 0.0
O2237 O 0.44485 0.95776 0.04123 0.0
O2238 O 0.41526 0.95644 0.01717 0.0
C2239 C 0.45103 0.94556 0.05077 0.0
H2240 H 0.45107 0.92463 0.97583 0.0
H2241 H 0.38869 0.94432 0.08704 0.0
H2242 H 0.37011 0.91584 0.02918 0.0
H2243 H 0.41232 0.88086 0.03707 0.0
Co2244 Co 0.95373 0.05064 0.55654 0.0
C2245 C 0.97697 0.06214 0.52846 0.0
C2246 C 0.9909 0.05323 0.55028 0.0
C2247 C 0.00243 0.05909 0.53836 0.0
N2248 N 0.97489 0.05478 0.54399 0.0
N2249 N 0.99363 0.06472 0.52464 0.0
H2250 H 0.96662 0.06634 0.52034 0.0
H2251 H 0.99408 0.04896 0.56297 0.0
C2252 C 0.96611 0.01839 0.5717 0.0
O2253 O 0.95394 0.01081 0.56295 0.0
N2254 N 0.93251 0.04733 0.56933 0.0
C2255 C 0.92459 0.05846 0.58004 0.0
C2256 C 0.91126 0.05022 0.5882 0.0
C2257 C 0.92303 0.03299 0.57026 0.0
N2258 N 0.91027 0.03432 0.58179 0.0
C2259 C 0.9585 0.08565 0.56288 0.0
C2260 C 0.96167 0.0826 0.59798 0.0
C2261 C 0.95827 0.09855 0.59058 0.0
C2262 C 0.95786 0.1003 0.57283 0.0
C2263 C 0.96225 0.06827 0.58755 0.0
N2264 N 0.95935 0.06994 0.57043 0.0
H2265 H 0.95693 0.08681 0.54919 0.0
H2266 H 0.96304 0.05584 0.59352 0.0
H2267 H 0.92841 0.07154 0.58234 0.0
H2268 H 0.92562 0.02142 0.56321 0.0
O2269 O 0.94068 0.06194 0.5389 0.0
O2270 O 0.94684 0.03426 0.53963 0.0
O2271 O 0.96681 0.03471 0.57207 0.0
C2272 C 0.94034 0.04711 0.53134 0.0
H2273 H 0.01623 0.05918 0.53973 0.0
H2274 H 0.90345 0.05521 0.5985 0.0
H2275 H 0.96231 0.08106 0.61175 0.0
H2276 H 0.95547 0.11258 0.56683 0.0
Co2277 Co 0.79176 0.19552 0.06095 0.0
C2278 C 0.77032 0.18327 0.0314 0.0
C2279 C 0.75535 0.1902 0.0533 0.0
C2280 C 0.74458 0.1834 0.04115 0.0
N2281 N 0.77154 0.19031 0.04721 0.0
N2282 N 0.75404 0.17907 0.02744 0.0
H2283 H 0.78102 0.18029 0.02322 0.0
H2284 H 0.75164 0.19395 0.06605 0.0
C2285 C 0.77651 0.22771 0.07307 0.0
O2286 O 0.78853 0.23565 0.06442 0.0
N2287 N 0.81181 0.20026 0.07497 0.0
C2288 C 0.81895 0.19093 0.08773 0.0
C2289 C 0.83168 0.20052 0.09548 0.0
C2290 C 0.82099 0.21479 0.07455 0.0
N2291 N 0.83301 0.21536 0.08689 0.0
C2292 C 0.78597 0.1608 0.06746 0.0
C2293 C 0.77752 0.16424 0.10163 0.0
C2294 C 0.779 0.14796 0.09429 0.0
C2295 C 0.78257 0.14623 0.07692 0.0
C2296 C 0.78082 0.17853 0.09163 0.0
N2297 N 0.78571 0.17652 0.07501 0.0
H2298 H 0.78922 0.15944 0.0541 0.0
H2299 H 0.7806 0.19102 0.09754 0.0
H2300 H 0.81493 0.17831 0.0917 0.0
H2301 H 0.81829 0.22541 0.06612 0.0
O2302 O 0.80634 0.18391 0.04485 0.0
O2303 O 0.7994 0.21139 0.04394 0.0
O2304 O 0.77719 0.21149 0.07487 0.0
C2305 C 0.80699 0.19845 0.03678 0.0
H2306 H 0.73087 0.18166 0.04233 0.0
H2307 H 0.83873 0.19726 0.10696 0.0
H2308 H 0.77485 0.16579 0.11515 0.0
H2309 H 0.78387 0.13374 0.07101 0.0
Co2310 Co 0.29405 0.53844 0.30116 0.0
C2311 C 0.31974 0.51378 0.28774 0.0
C2312 C 0.30014 0.50086 0.30193 0.0
C2313 C 0.3102 0.48881 0.2939 0.0
N2314 N 0.306 0.51662 0.29795 0.0
N2315 N 0.32231 0.49697 0.2847 0.0
H2316 H 0.32688 0.52378 0.28135 0.0
H2317 H 0.28858 0.49814 0.309 0.0
C2318 C 0.27092 0.52426 0.33029 0.0
O2319 O 0.27898 0.53128 0.34326 0.0
N2320 N 0.28227 0.56012 0.3042 0.0
C2321 C 0.27824 0.57214 0.29249 0.0
C2322 C 0.27052 0.58568 0.30071 0.0
C2323 C 0.27723 0.56673 0.31929 0.0
N2324 N 0.26984 0.58228 0.31768 0.0
C2325 C 0.31645 0.55926 0.32029 0.0
C2326 C 0.32541 0.53465 0.34402 0.0
C2327 C 0.33378 0.55047 0.3439 0.0
C2328 C 0.32905 0.56305 0.33223 0.0
C2329 C 0.31287 0.5314 0.33189 0.0
N2330 N 0.30851 0.54366 0.3203 0.0
H2331 H 0.31358 0.56859 0.31048 0.0
H2332 H 0.30712 0.51884 0.33143 0.0
H2333 H 0.28033 0.57114 0.27886 0.0
H2334 H 0.27872 0.56004 0.33121 0.0
O2335 O 0.30809 0.54844 0.28371 0.0
O2336 O 0.28321 0.53489 0.27963 0.0
O2337 O 0.27581 0.52649 0.31487 0.0
C2338 C 0.29685 0.542 0.27318 0.0
H2339 H 0.30756 0.4752 0.29333 0.0
H2340 H 0.2649 0.59663 0.29439 0.0
H2341 H 0.32926 0.52459 0.35277 0.0
H2342 H 0.33579 0.57518 0.33162 0.0
Co2343 Co 0.30678 0.70065 0.93993 0.0
C2344 C 0.32003 0.72566 0.96618 0.0
C2345 C 0.30201 0.73679 0.94872 0.0
C2346 C 0.30787 0.74939 0.95935 0.0
N2347 N 0.30943 0.72177 0.95298 0.0
N2348 N 0.31934 0.74254 0.97028 0.0
H2349 H 0.32846 0.71655 0.97228 0.0
H2350 H 0.29326 0.73888 0.93823 0.0
C2351 C 0.27368 0.70809 0.91891 0.0
O2352 O 0.27459 0.69531 0.90809 0.0
N2353 N 0.30427 0.67983 0.92668 0.0
C2354 C 0.31399 0.67387 0.9137 0.0
C2355 C 0.30518 0.66082 0.90564 0.0
C2356 C 0.29049 0.66957 0.92713 0.0
N2357 N 0.29037 0.65823 0.91411 0.0
C2358 C 0.33785 0.71303 0.92641 0.0
C2359 C 0.32676 0.71687 0.89298 0.0
C2360 C 0.34425 0.71739 0.89665 0.0
C2361 C 0.34976 0.71637 0.91365 0.0
C2362 C 0.31527 0.71339 0.90614 0.0
N2363 N 0.32105 0.71056 0.9224 0.0
H2364 H 0.3423 0.71125 0.93938 0.0
H2365 H 0.30213 0.71143 0.90276 0.0
H2366 H 0.32594 0.67942 0.90945 0.0
H2367 H 0.27951 0.67211 0.93521 0.0
O2368 O 0.32415 0.68919 0.95348 0.0
O2369 O 0.29619 0.68949 0.959 0.0
O2370 O 0.28531 0.71088 0.93004 0.0
C2371 C 0.31144 0.68416 0.96303 0.0
H2372 H 0.30381 0.76262 0.95904 0.0
H2373 H 0.30857 0.65493 0.89356 0.0
H2374 H 0.32216 0.71752 0.8799 0.0
H2375 H 0.36326 0.71693 0.91685 0.0
Co2376 Co 0.79269 0.04875 0.17984 0.0
C2377 C 0.76613 0.06075 0.20529 0.0
C2378 C 0.75639 0.05706 0.17989 0.0
C2379 C 0.74346 0.06339 0.18986 0.0
N2380 N 0.77066 0.05532 0.18946 0.0
N2381 N 0.74949 0.06571 0.20587 0.0
H2382 H 0.7747 0.06113 0.21614 0.0
H2383 H 0.75563 0.0546 0.16631 0.0
C2384 C 0.77782 0.01573 0.16995 0.0
O2385 O 0.78695 0.00902 0.18238 0.0
N2386 N 0.8144 0.04257 0.16955 0.0
C2387 C 0.82937 0.0512 0.17034 0.0
C2388 C 0.84204 0.04127 0.163 0.0
C2389 C 0.81802 0.02805 0.16112 0.0
N2390 N 0.83472 0.02681 0.15707 0.0
C2391 C 0.78742 0.08191 0.16771 0.0
C2392 C 0.78756 0.07372 0.13318 0.0
C2393 C 0.78535 0.09068 0.13843 0.0
C2394 C 0.78505 0.09474 0.15585 0.0
C2395 C 0.78983 0.06117 0.14557 0.0
N2396 N 0.7897 0.06548 0.16248 0.0
H2397 H 0.78727 0.08503 0.18119 0.0
H2398 H 0.79193 0.04807 0.14163 0.0
H2399 H 0.83121 0.06336 0.1767 0.0
H2400 H 0.80909 0.01771 0.15926 0.0
O2401 O 0.80466 0.06255 0.19663 0.0
O2402 O 0.79788 0.03511 0.19949 0.0
O2403 O 0.77995 0.03138 0.16585 0.0
C2404 C 0.80501 0.04872 0.20587 0.0
H2405 H 0.73069 0.06646 0.18544 0.0
H2406 H 0.85567 0.04383 0.1632 0.0
H2407 H 0.788 0.07035 0.11973 0.0
H2408 H 0.78317 0.10778 0.16022 0.0
Co2409 Co 0.43408 0.53304 0.4272 0.0
C2410 C 0.41441 0.51164 0.45216 0.0
C2411 C 0.41781 0.49867 0.42831 0.0
C2412 C 0.4099 0.48765 0.43966 0.0
N2413 N 0.4211 0.51362 0.43632 0.0
N2414 N 0.40796 0.49582 0.45473 0.0
H2415 H 0.41421 0.52142 0.46184 0.0
H2416 H 0.42127 0.49576 0.41525 0.0
C2417 C 0.45765 0.5149 0.40016 0.0
O2418 O 0.46207 0.52843 0.39124 0.0
N2419 N 0.44643 0.55259 0.41829 0.0
C2420 C 0.43944 0.56781 0.41397 0.0
C2421 C 0.45206 0.57832 0.40752 0.0
C2422 C 0.46327 0.55428 0.41514 0.0
N2423 N 0.46689 0.56959 0.40799 0.0
C2424 C 0.40029 0.53876 0.416 0.0
C2425 C 0.40829 0.54403 0.38193 0.0
C2426 C 0.39142 0.5463 0.38749 0.0
C2427 C 0.3874 0.54353 0.40473 0.0
C2428 C 0.42067 0.53895 0.39356 0.0
N2429 N 0.41662 0.53651 0.41032 0.0
H2430 H 0.39728 0.53715 0.42941 0.0
H2431 H 0.43362 0.538 0.38921 0.0
H2432 H 0.42599 0.57093 0.41513 0.0
H2433 H 0.4727 0.54448 0.41786 0.0
O2434 O 0.42524 0.54772 0.44507 0.0
O2435 O 0.44903 0.53224 0.4466 0.0
O2436 O 0.44709 0.51589 0.41267 0.0
C2437 C 0.43824 0.54245 0.45413 0.0
H2438 H 0.40672 0.47437 0.43725 0.0
H2439 H 0.45047 0.59117 0.40258 0.0
H2440 H 0.41195 0.54634 0.36875 0.0
H2441 H 0.37442 0.54482 0.40945 0.0
Co2442 Co 0.55718 0.44439 0.54741 0.0
C2443 C 0.52988 0.46652 0.56278 0.0
C2444 C 0.55059 0.48139 0.55278 0.0
C2445 C 0.53864 0.49235 0.55961 0.0
N2446 N 0.54499 0.46513 0.55439 0.0
N2447 N 0.52553 0.48299 0.56585 0.0
H2448 H 0.52223 0.45576 0.56685 0.0
H2449 H 0.56258 0.48522 0.54717 0.0
C2450 C 0.57308 0.4595 0.51647 0.0
O2451 O 0.56423 0.44848 0.50743 0.0
N2452 N 0.56963 0.42365 0.54098 0.0
C2453 C 0.58226 0.41564 0.54976 0.0
C2454 C 0.59056 0.40438 0.53902 0.0
C2455 C 0.56965 0.41602 0.52551 0.0
N2456 N 0.58251 0.40464 0.52383 0.0
C2457 C 0.5651 0.44645 0.58255 0.0
C2458 C 0.59949 0.45406 0.57842 0.0
C2459 C 0.59275 0.45201 0.59486 0.0
C2460 C 0.57529 0.44854 0.59695 0.0
C2461 C 0.58885 0.45198 0.5644 0.0
N2462 N 0.57202 0.44778 0.56662 0.0
H2463 H 0.55165 0.4436 0.58415 0.0
H2464 H 0.59452 0.45266 0.55183 0.0
H2465 H 0.58604 0.41833 0.56277 0.0
H2466 H 0.56117 0.41942 0.51514 0.0
O2467 O 0.53952 0.43035 0.55772 0.0
O2468 O 0.5396 0.43972 0.53094 0.0
O2469 O 0.57246 0.45897 0.53274 0.0
C2470 C 0.53145 0.43199 0.54322 0.0
H2471 H 0.53936 0.50618 0.55945 0.0
H2472 H 0.60228 0.39749 0.54173 0.0
H2473 H 0.61302 0.45639 0.57635 0.0
H2474 H 0.56968 0.44711 0.60955 0.0
Co2475 Co 0.2081 0.80883 0.94078 0.0
C2476 C 0.22694 0.7776 0.92871 0.0
C2477 C 0.24376 0.79809 0.93589 0.0
C2478 C 0.25351 0.78466 0.93002 0.0
N2479 N 0.22705 0.79366 0.93519 0.0
N2480 N 0.24286 0.77184 0.92559 0.0
H2481 H 0.2157 0.77025 0.92572 0.0
H2482 H 0.24855 0.81035 0.94018 0.0
C2483 C 0.22271 0.82974 0.97097 0.0
O2484 O 0.21069 0.84147 0.97146 0.0
N2485 N 0.18928 0.82401 0.94596 0.0
C2486 C 0.18113 0.83528 0.93561 0.0
C2487 C 0.16759 0.84246 0.94448 0.0
C2488 C 0.18026 0.82395 0.96054 0.0
N2489 N 0.16712 0.83505 0.95999 0.0
C2490 C 0.21744 0.81928 0.90789 0.0
C2491 C 0.22228 0.85348 0.91584 0.0
C2492 C 0.22032 0.84839 0.89882 0.0
C2493 C 0.21928 0.831 0.89475 0.0
C2494 C 0.22053 0.84127 0.9286 0.0
N2495 N 0.21689 0.82472 0.92442 0.0
H2496 H 0.215 0.80602 0.90478 0.0
H2497 H 0.22022 0.84556 0.94162 0.0
H2498 H 0.18463 0.83803 0.9225 0.0
H2499 H 0.18345 0.81619 0.97158 0.0
O2500 O 0.19279 0.79579 0.92624 0.0
O2501 O 0.1975 0.79131 0.95388 0.0
O2502 O 0.22288 0.818 0.95965 0.0
C2503 C 0.19004 0.78644 0.9398 0.0
H2504 H 0.26736 0.78418 0.92939 0.0
H2505 H 0.15886 0.85225 0.93999 0.0
H2506 H 0.2231 0.86689 0.91931 0.0
H2507 H 0.21802 0.82675 0.8816 0.0
Co2508 Co 0.68061 0.95044 0.1874 0.0
C2509 C 0.70733 0.97076 0.16944 0.0
C2510 C 0.68754 0.98699 0.17916 0.0
C2511 C 0.7 -0.00292 0.17187 0.0
N2512 N 0.69232 0.97043 0.17803 0.0
N2513 N 0.71253 0.98682 0.16592 0.0
H2514 H 0.7147 0.95956 0.16612 0.0
H2515 H 0.67616 0.99168 0.18532 0.0
C2516 C 0.65449 0.96646 0.21259 0.0
O2517 O 0.64867 0.95199 0.21873 0.0
N2518 N 0.669 0.93014 0.19592 0.0
C2519 C 0.65966 0.91882 0.18668 0.0
C2520 C 0.65256 0.9069 0.19756 0.0
C2521 C 0.6684 0.92421 0.21208 0.0
N2522 N 0.65814 0.91036 0.21343 0.0
C2523 C 0.67295 0.94867 0.15215 0.0
C2524 C 0.6383 0.95534 0.15521 0.0
C2525 C 0.64554 0.95329 0.13895 0.0
C2526 C 0.66302 0.94976 0.13744 0.0
C2527 C 0.64867 0.95409 0.16958 0.0
N2528 N 0.66576 0.95097 0.16787 0.0
H2529 H 0.6865 0.94618 0.15094 0.0
H2530 H 0.64287 0.95525 0.18203 0.0
H2531 H 0.6576 0.91938 0.17301 0.0
H2532 H 0.67423 0.93067 0.2229 0.0
O2533 O 0.69856 0.93577 0.17886 0.0
O2534 O 0.69835 0.9483 0.20433 0.0
O2535 O 0.66549 0.96687 0.2005 0.0
C2536 C 0.70671 0.93946 0.19296 0.0
H2537 H 0.70039 0.01093 0.17211 0.0
H2538 H 0.6434 0.89702 0.19424 0.0
H2539 H 0.6247 0.95763 0.1568 0.0
H2540 H 0.66897 0.94809 0.12502 0.0
Co2541 Co 0.04056 0.43357 0.93813 0.0
C2542 C 0.01547 0.46096 0.92816 0.0
C2543 C 0.00449 0.43591 0.92734 0.0
C2544 C 0.99221 0.44752 0.92225 0.0
N2545 N 0.01907 0.44435 0.93132 0.0
N2546 N -0.00077 0.46323 0.92291 0.0
H2547 H 0.02442 0.47132 0.92887 0.0
H2548 H 0.00303 0.42217 0.92756 0.0
C2549 C 0.02356 0.41879 0.96838 0.0
O2550 O 0.03177 0.43037 0.97739 0.0
N2551 N 0.06174 0.42224 0.94424 0.0
C2552 C 0.07531 0.41945 0.93387 0.0
C2553 C 0.08749 0.41011 0.94271 0.0
C2554 C 0.06571 0.41442 0.95903 0.0
N2555 N 0.08115 0.40679 0.95836 0.0
C2556 C 0.03754 0.42632 0.903 0.0
C2557 C 0.03356 0.39133 0.90691 0.0
C2558 C 0.03167 0.39886 0.89081 0.0
C2559 C 0.03406 0.41641 0.88867 0.0
C2560 C 0.03724 0.40166 0.92085 0.0
N2561 N 0.03862 0.41891 0.91876 0.0
H2562 H 0.03874 0.44003 0.90161 0.0
H2563 H 0.03874 0.39588 0.93332 0.0
H2564 H 0.07625 0.42386 0.92078 0.0
H2565 H 0.05784 0.41456 0.97034 0.0
O2566 O 0.05357 0.45192 0.9279 0.0
O2567 O 0.04457 0.45134 0.95475 0.0
O2568 O 0.02657 0.4173 0.95241 0.0
C2569 C 0.05212 0.45974 0.94252 0.0
H2570 H 0.97915 0.44467 0.91856 0.0
H2571 H 0.09997 0.40619 0.93813 0.0
H2572 H 0.03222 0.37763 0.90864 0.0
H2573 H 0.03294 0.42235 0.87619 0.0
Co2574 Co 0.68585 0.78902 0.54639 0.0
C2575 C 0.70957 0.76563 0.5655 0.0
C2576 C 0.68431 0.75529 0.5632 0.0
C2577 C 0.69418 0.74395 0.57241 0.0
N2578 N 0.69406 0.76875 0.55846 0.0
N2579 N 0.71011 0.75049 0.57378 0.0
H2580 H 0.7202 0.77436 0.56521 0.0
H2581 H 0.67078 0.75403 0.56062 0.0
C2582 C 0.65756 0.77127 0.52321 0.0
O2583 O 0.64834 0.78446 0.51842 0.0
N2584 N 0.67734 0.80951 0.53533 0.0
C2585 C 0.67451 0.82443 0.54362 0.0
C2586 C 0.66653 0.83571 0.5327 0.0
C2587 C 0.67151 0.81208 0.51932 0.0
N2588 N 0.66434 0.82775 0.51762 0.0
C2589 C 0.67559 0.79299 0.58065 0.0
C2590 C 0.64076 0.79443 0.57423 0.0
C2591 C 0.64674 0.79374 0.59108 0.0
C2592 C 0.66434 0.7935 0.59434 0.0
C2593 C 0.65248 0.79369 0.56093 0.0
N2594 N 0.66953 0.7923 0.56431 0.0
H2595 H 0.68921 0.79243 0.5831 0.0
H2596 H 0.64787 0.79414 0.54799 0.0
H2597 H 0.67757 0.82674 0.55693 0.0
H2598 H 0.67252 0.80279 0.50909 0.0
O2599 O 0.70472 0.80232 0.55542 0.0
O2600 O 0.70494 0.78786 0.53099 0.0
O2601 O 0.67046 0.77287 0.53319 0.0
C2602 C 0.71333 0.79694 0.54217 0.0
H2603 H 0.68999 0.73172 0.57739 0.0
H2604 H 0.66233 0.84857 0.53567 0.0
H2605 H 0.62717 0.79481 0.57139 0.0
H2606 H 0.66928 0.79328 0.6073 0.0
Co2607 Co 0.19506 0.9322 0.80173 0.0
C2608 C 0.22101 0.95834 0.8144 0.0
C2609 C 0.23042 0.93258 0.81433 0.0
C2610 C 0.24336 0.94321 0.81971 0.0
N2611 N 0.21639 0.94199 0.81066 0.0
N2612 N 0.23747 0.95941 0.81971 0.0
H2613 H 0.21285 0.96935 0.81307 0.0
H2614 H 0.23121 0.91882 0.81323 0.0
C2615 C 0.21009 0.90342 0.77813 0.0
O2616 O 0.19592 0.8957 0.7735 0.0
N2617 N 0.17396 0.92226 0.79328 0.0
C2618 C 0.16057 0.91648 0.80263 0.0
C2619 C 0.14872 0.90906 0.79176 0.0
C2620 C 0.16975 0.91908 0.77693 0.0
N2621 N 0.15477 0.9106 0.77575 0.0
C2622 C 0.19559 0.92431 0.83682 0.0
C2623 C 0.19567 0.88915 0.83261 0.0
C2624 C 0.19823 0.89626 0.84884 0.0
C2625 C 0.19772 0.91398 0.85108 0.0
C2626 C 0.19385 0.89995 0.81871 0.0
N2627 N 0.19448 0.91721 0.82093 0.0
H2628 H 0.19575 0.93807 0.83833 0.0
H2629 H 0.1922 0.89447 0.80618 0.0
H2630 H 0.15971 0.9171 0.81643 0.0
H2631 H 0.17781 0.92228 0.76611 0.0
O2632 O 0.18198 0.95083 0.81098 0.0
O2633 O 0.19368 0.94988 0.78501 0.0
O2634 O 0.21016 0.9162 0.7883 0.0
C2635 C 0.18531 0.95851 0.79655 0.0
H2636 H 0.25619 0.93931 0.82325 0.0
H2637 H 0.13699 0.90258 0.79533 0.0
H2638 H 0.19595 0.87543 0.83057 0.0
H2639 H 0.19948 0.91973 0.86358 0.0
Co2640 Co 0.55621 0.67916 0.79262 0.0
C2641 C 0.57055 0.70731 0.7711 0.0
C2642 C 0.56094 0.68662 0.75589 0.0
C2643 C 0.56748 0.69889 0.74513 0.0
N2644 N 0.5625 0.69201 0.77223 0.0
N2645 N 0.57347 0.71192 0.75472 0.0
H2646 H 0.5743 0.715 0.78195 0.0
H2647 H 0.55551 0.67458 0.75189 0.0
C2648 C 0.52531 0.66326 0.77855 0.0
O2649 O 0.51726 0.66982 0.79173 0.0
N2650 N 0.55025 0.66569 0.81281 0.0
C2651 C 0.55517 0.64943 0.81615 0.0
C2652 C 0.54357 0.64199 0.82714 0.0
C2653 C 0.53626 0.66805 0.82267 0.0
N2654 N 0.53153 0.65367 0.83102 0.0
C2655 C 0.59195 0.67354 0.79253 0.0
C2656 C 0.5913 0.64421 0.77283 0.0
C2657 C 0.60704 0.65225 0.77609 0.0
C2658 C 0.60727 0.66699 0.78625 0.0
C2659 C 0.57626 0.65129 0.77914 0.0
N2660 N 0.57667 0.66588 0.78875 0.0
H2661 H 0.59238 0.6853 0.79972 0.0
H2662 H 0.56438 0.6449 0.7762 0.0
H2663 H 0.5653 0.64261 0.80973 0.0
H2664 H 0.52804 0.67915 0.82173 0.0
O2665 O 0.56543 0.69724 0.80704 0.0
O2666 O 0.53883 0.69582 0.79748 0.0
O2667 O 0.54165 0.66388 0.77793 0.0
C2668 C 0.55058 0.70459 0.8053 0.0
H2669 H 0.56717 0.69855 0.73128 0.0
H2670 H 0.54286 0.62851 0.83031 0.0
H2671 H 0.59055 0.63237 0.76564 0.0
H2672 H 0.61915 0.67357 0.78915 0.0
Co2673 Co 0.43289 0.79758 0.69527 0.0
C2674 C 0.45857 0.81626 0.71687 0.0
C2675 C 0.43449 0.81344 0.72952 0.0
C2676 C 0.44565 0.82166 0.7404 0.0
N2677 N 0.44275 0.80952 0.7149 0.0
N2678 N 0.46096 0.82326 0.7325 0.0
H2679 H 0.46818 0.81619 0.70709 0.0
H2680 H 0.42123 0.81053 0.73216 0.0
C2681 C 0.40568 0.77414 0.71318 0.0
O2682 O 0.39742 0.76903 0.69949 0.0
N2683 N 0.42285 0.78649 0.67559 0.0
C2684 C 0.41693 0.79435 0.66135 0.0
C2685 C 0.41005 0.78222 0.65051 0.0
C2686 C 0.42019 0.76971 0.67294 0.0
N2687 N 0.41187 0.76689 0.65808 0.0
C2688 C 0.42357 0.83207 0.69155 0.0
C2689 C 0.38894 0.82703 0.697 0.0
C2690 C 0.39576 0.84356 0.69704 0.0
C2691 C 0.41306 0.84623 0.69351 0.0
C2692 C 0.39987 0.81328 0.69481 0.0
N2693 N 0.417 0.81597 0.69312 0.0
H2694 H 0.43718 0.83397 0.6899 0.0
H2695 H 0.39465 0.80056 0.69498 0.0
H2696 H 0.41732 0.80802 0.65913 0.0
H2697 H 0.42382 0.75977 0.6819 0.0
O2698 O 0.4509 0.80606 0.68062 0.0
O2699 O 0.4516 0.78172 0.69526 0.0
O2700 O 0.41807 0.78484 0.71237 0.0
C2701 C 0.45955 0.79264 0.68549 0.0
H2702 H 0.44274 0.82547 0.75338 0.0
H2703 H 0.40383 0.78447 0.63833 0.0
H2704 H 0.3754 0.82481 0.69916 0.0
H2705 H 0.41849 0.859 0.69323 0.0
Co2706 Co 0.03421 0.93665 0.43843 0.0
C2707 C 0.00978 0.95925 0.41976 0.0
C2708 C -0.00339 0.94307 0.43755 0.0
C2709 C 0.98471 0.95275 0.42894 0.0
N2710 N 0.01244 0.94712 0.43187 0.0
N2711 N 0.99303 0.96289 0.41776 0.0
H2712 H 0.01979 0.96531 0.41237 0.0
H2713 H 0.99367 0.93392 0.44737 0.0
C2714 C 0.02329 0.9151 0.47064 0.0
O2715 O 0.03847 0.91124 0.47668 0.0
N2716 N 0.05615 0.92631 0.44383 0.0
C2717 C 0.06571 0.91686 0.43294 0.0
C2718 C 0.07964 0.91043 0.44158 0.0
C2719 C 0.06512 0.92657 0.45854 0.0
N2720 N 0.07924 0.91662 0.4576 0.0
C2721 C 0.0269 0.9219 0.40612 0.0
C2722 C 0.02469 0.88849 0.41784 0.0
C2723 C 0.02221 0.89196 0.40047 0.0
C2724 C 0.02321 0.90889 0.3946 0.0
C2725 C 0.02846 0.90185 0.42887 0.0
N2726 N 0.02941 0.91826 0.42296 0.0
H2727 H 0.02806 0.93489 0.40152 0.0
H2728 H 0.03131 0.89883 0.44201 0.0
H2729 H 0.0624 0.91408 0.41979 0.0
H2730 H 0.06081 0.93288 0.4701 0.0
O2731 O 0.04627 0.9523 0.4235 0.0
O2732 O 0.03994 0.95691 0.45087 0.0
O2733 O 0.02137 0.92416 0.45714 0.0
C2734 C 0.04596 0.96277 0.43648 0.0
H2735 H 0.97103 0.95281 0.43123 0.0
H2736 H 0.08867 0.90105 0.43685 0.0
H2737 H 0.0242 0.87553 0.42276 0.0
H2738 H 0.02185 0.91197 0.38115 0.0
Co2739 Co 0.68378 0.44724 0.69088 0.0
C2740 C 0.7055 0.47127 0.67054 0.0
C2741 C 0.68525 0.48457 0.6832 0.0
C2742 C 0.69589 0.49639 0.67564 0.0
N2743 N 0.6915 0.46873 0.68044 0.0
N2744 N 0.70886 0.48804 0.66787 0.0
H2745 H 0.71356 0.46108 0.6659 0.0
H2746 H 0.67428 0.48765 0.69092 0.0
C2747 C 0.65759 0.45972 0.71826 0.0
O2748 O 0.65251 0.44466 0.72358 0.0
N2749 N 0.67635 0.4257 0.70073 0.0
C2750 C 0.66828 0.41265 0.69269 0.0
C2751 C 0.66341 0.40066 0.70469 0.0
C2752 C 0.67738 0.42088 0.71721 0.0
N2753 N 0.66923 0.40591 0.72001 0.0
C2754 C 0.67134 0.44616 0.65707 0.0
C2755 C 0.63694 0.44535 0.66564 0.0
C2756 C 0.64183 0.44679 0.64852 0.0
C2757 C 0.65919 0.44689 0.64414 0.0
C2758 C 0.6495 0.44486 0.67815 0.0
N2759 N 0.66637 0.44569 0.67376 0.0
H2760 H 0.68477 0.44645 0.65376 0.0
H2761 H 0.64563 0.44364 0.69129 0.0
H2762 H 0.6653 0.41223 0.67918 0.0
H2763 H 0.68251 0.42896 0.72726 0.0
O2764 O 0.70202 0.43501 0.6796 0.0
O2765 O 0.70363 0.44741 0.70518 0.0
O2766 O 0.66854 0.46142 0.70623 0.0
C2767 C 0.71135 0.4396 0.69267 0.0
H2768 H 0.69488 0.51012 0.67714 0.0
H2769 H 0.65536 0.38957 0.70255 0.0
H2770 H 0.62356 0.44506 0.66933 0.0
H2771 H 0.66327 0.44768 0.63091 0.0
Co2772 Co 0.67561 0.28785 0.04281 0.0
C2773 C 0.70418 0.26957 0.06066 0.0
C2774 C 0.68331 0.25268 0.05522 0.0
C2775 C 0.6962 0.24341 0.06285 0.0
N2776 N 0.68839 0.2691 0.05348 0.0
N2777 N 0.70939 0.25406 0.0662 0.0
H2778 H 0.71178 0.28103 0.062 0.0
H2779 H 0.67115 0.24758 0.05116 0.0
C2780 C 0.64759 0.26844 0.02204 0.0
O2781 O 0.63899 0.28177 0.01658 0.0
N2782 N 0.66316 0.30674 0.03277 0.0
C2783 C 0.65748 0.3208 0.04112 0.0
C2784 C 0.65046 0.33199 0.02942 0.0
C2785 C 0.66009 0.30983 0.01612 0.0
N2786 N 0.65184 0.32482 0.01385 0.0
C2787 C 0.66884 0.29069 0.07817 0.0
C2788 C 0.63354 0.28877 0.07537 0.0
C2789 C 0.64115 0.29029 0.09148 0.0
C2790 C 0.65897 0.29124 0.09293 0.0
C2791 C 0.64388 0.28801 0.061 0.0
N2792 N 0.66124 0.28882 0.06258 0.0
H2793 H 0.6826 0.29173 0.0792 0.0
H2794 H 0.6379 0.28723 0.04863 0.0
H2795 H 0.65874 0.32295 0.05474 0.0
H2796 H 0.66408 0.30145 0.00583 0.0
O2797 O 0.69309 0.30388 0.04956 0.0
O2798 O 0.69263 0.2892 0.0252 0.0
O2799 O 0.66067 0.26992 0.03177 0.0
C2800 C 0.70081 0.29955 0.0354 0.0
H2801 H 0.69609 0.22973 0.06508 0.0
H2802 H 0.64501 0.34446 0.03205 0.0
H2803 H 0.61975 0.28805 0.07393 0.0
H2804 H 0.66513 0.29261 0.10529 0.0
Co2805 Co 0.30672 0.03743 0.80419 0.0
C2806 C 0.32406 0.01321 0.77995 0.0
C2807 C 0.31939 0.00213 0.80454 0.0
C2808 C 0.32726 0.99009 0.79443 0.0
N2809 N 0.3169 0.01652 0.79533 0.0
N2810 N 0.33013 -0.00293 0.77891 0.0
H2811 H 0.32523 0.02236 0.76975 0.0
H2812 H 0.31579 0.0005 0.8178 0.0
C2813 C 0.27758 0.02091 0.8271 0.0
O2814 O 0.27242 0.03427 0.83585 0.0
N2815 N 0.29783 0.05852 0.81349 0.0
C2816 C 0.30766 0.07166 0.81909 0.0
C2817 C 0.29733 0.08396 0.82632 0.0
C2818 C 0.28165 0.06329 0.81666 0.0
N2819 N 0.28114 0.0784 0.82497 0.0
C2820 C 0.34006 0.03853 0.81752 0.0
C2821 C 0.33062 0.03867 0.8517 0.0
C2822 C 0.34786 0.04045 0.84718 0.0
C2823 C 0.35262 0.04022 0.82993 0.0
C2824 C 0.31843 0.0371 0.83884 0.0
N2825 N 0.32331 0.03715 0.8221 0.0
H2826 H 0.34366 0.03859 0.80417 0.0
H2827 H 0.30509 0.03656 0.84229 0.0
H2828 H 0.32149 0.07206 0.81839 0.0
H2829 H 0.27046 0.05591 0.81309 0.0
O2830 O 0.31873 0.05095 0.78701 0.0
O2831 O 0.29274 0.03973 0.78438 0.0
O2832 O 0.29025 0.02182 0.81677 0.0
C2833 C 0.30533 0.04807 0.77742 0.0
H2834 H 0.33003 0.97702 0.79807 0.0
H2835 H 0.30134 0.09574 0.83242 0.0
H2836 H 0.32661 0.03891 0.86497 0.0
H2837 H 0.36592 0.0413 0.8261 0.0
Co2838 Co 0.94989 0.55156 0.0558 0.0
C2839 C 0.9721 0.56656 0.02841 0.0
C2840 C 0.98641 0.5532 0.04757 0.0
C2841 C -0.00227 0.56055 0.03636 0.0
N2842 N 0.97026 0.55685 0.04257 0.0
N2843 N 0.98871 0.56904 0.02438 0.0
H2844 H 0.9617 0.5721 0.02141 0.0
H2845 H 0.98984 0.54614 0.05894 0.0
C2846 C 0.96048 0.51601 0.07072 0.0
O2847 O 0.94553 0.5105 0.07598 0.0
N2848 N 0.92971 0.54652 0.06937 0.0
C2849 C 0.92372 0.55467 0.0834 0.0
C2850 C 0.9107 0.54501 0.09045 0.0
C2851 C 0.91936 0.53294 0.06732 0.0
N2852 N 0.908 0.53141 0.08021 0.0
C2853 C 0.96359 0.58087 0.07145 0.0
C2854 C 0.96799 0.56668 0.10368 0.0
C2855 C 0.9705 0.58417 0.10113 0.0
C2856 C 0.96919 0.59115 0.08473 0.0
C2857 C 0.96271 0.55672 0.08991 0.0
N2858 N 0.95977 0.56413 0.07434 0.0
H2859 H 0.96153 0.58647 0.05897 0.0
H2860 H 0.95951 0.54348 0.09217 0.0
H2861 H 0.92903 0.56626 0.08881 0.0
H2862 H 0.92136 0.52324 0.05761 0.0
O2863 O 0.93709 0.56966 0.04457 0.0
O2864 O 0.9386 0.54261 0.03588 0.0
O2865 O 0.96242 0.53048 0.06345 0.0
C2866 C 0.9326 0.55799 0.03355 0.0
H2867 H 0.01155 0.55949 0.03689 0.0
H2868 H 0.90459 0.5471 0.10271 0.0
H2869 H 0.96855 0.56114 0.11638 0.0
H2870 H 0.97091 0.60476 0.08257 0.0
Co2871 Co 0.30794 0.20365 0.42992 0.0
C2872 C 0.32303 0.22853 0.45523 0.0
C2873 C 0.324 0.23744 0.42932 0.0
C2874 C 0.33131 0.24965 0.43964 0.0
N2875 N 0.31862 0.22422 0.43907 0.0
N2876 N 0.33066 0.24404 0.45593 0.0
H2877 H 0.32052 0.2208 0.46635 0.0
H2878 H 0.32284 0.23812 0.41555 0.0
C2879 C 0.28645 0.21882 0.39999 0.0
O2880 O 0.28368 0.20457 0.39156 0.0
N2881 N 0.29753 0.18338 0.4203 0.0
C2882 C 0.30537 0.16914 0.41441 0.0
C2883 C 0.29315 0.15841 0.40739 0.0
C2884 C 0.28075 0.18093 0.41732 0.0
N2885 N 0.27783 0.16613 0.40897 0.0
C2886 C 0.34309 0.20008 0.42411 0.0
C2887 C 0.34214 0.20608 0.38933 0.0
C2888 C 0.3578 0.20686 0.39809 0.0
C2889 C 0.35833 0.20309 0.41553 0.0
C2890 C 0.32717 0.20302 0.39844 0.0
N2891 N 0.32778 0.20103 0.41572 0.0
H2892 H 0.34349 0.19848 0.43783 0.0
H2893 H 0.3152 0.2029 0.39169 0.0
H2894 H 0.31904 0.16689 0.41482 0.0
H2895 H 0.2709 0.19014 0.42055 0.0
O2896 O 0.31549 0.19029 0.44926 0.0
O2897 O 0.29085 0.20436 0.44763 0.0
O2898 O 0.29583 0.21928 0.41339 0.0
C2899 C 0.30139 0.19516 0.45669 0.0
H2900 H 0.33659 0.26176 0.43545 0.0
H2901 H 0.29534 0.14621 0.40119 0.0
H2902 H 0.34143 0.20815 0.37563 0.0
H2903 H 0.37027 0.2033 0.42261 0.0
Co2904 Co 0.55761 0.55709 0.44908 0.0
C2905 C 0.57155 0.52967 0.47142 0.0
C2906 C 0.56068 0.5501 0.48602 0.0
C2907 C 0.56669 0.53783 0.49716 0.0
N2908 N 0.56348 0.5448 0.46983 0.0
N2909 N 0.57349 0.52497 0.48788 0.0
H2910 H 0.57595 0.52211 0.46087 0.0
H2911 H 0.55461 0.562 0.48955 0.0
C2912 C 0.52246 0.5627 0.46166 0.0
O2913 O 0.51768 0.55065 0.45096 0.0
N2914 N 0.55169 0.56966 0.4285 0.0
C2915 C 0.55879 0.58377 0.42136 0.0
C2916 C 0.5481 0.58959 0.40846 0.0
C2917 C 0.53754 0.56663 0.41926 0.0
N2918 N 0.53496 0.57852 0.40712 0.0
C2919 C 0.58939 0.57078 0.45826 0.0
C2920 C 0.5789 0.60438 0.46247 0.0
C2921 C 0.59635 0.60033 0.4625 0.0
C2922 C 0.60153 0.58327 0.46139 0.0
C2923 C 0.56704 0.59133 0.45957 0.0
N2924 N 0.5726 0.57504 0.45649 0.0
H2925 H 0.59353 0.55771 0.45646 0.0
H2926 H 0.55365 0.5946 0.45832 0.0
H2927 H 0.57044 0.58994 0.42557 0.0
H2928 H 0.52846 0.55659 0.42207 0.0
O2929 O 0.5737 0.54349 0.43579 0.0
O2930 O 0.54644 0.53702 0.44002 0.0
O2931 O 0.53799 0.56776 0.46181 0.0
C2932 C 0.56101 0.53305 0.43307 0.0
H2933 H 0.56544 0.53804 0.51095 0.0
H2934 H 0.5494 0.60137 0.40129 0.0
H2935 H 0.57462 0.61755 0.46323 0.0
H2936 H 0.61498 0.57982 0.4616 0.0
Co2937 Co 0.43228 0.43734 0.53264 0.0
C2938 C 0.4565 0.42166 0.50794 0.0
C2939 C 0.44452 0.44407 0.49755 0.0
C2940 C 0.45714 0.43888 0.48654 0.0
N2941 N 0.44411 0.43333 0.5111 0.0
N2942 N 0.4647 0.42489 0.49314 0.0
H2943 H 0.46073 0.4121 0.51703 0.0
H2944 H 0.43729 0.45577 0.49626 0.0
C2945 C 0.40344 0.45869 0.51668 0.0
O2946 O 0.39108 0.44882 0.52244 0.0
N2947 N 0.42072 0.44167 0.55434 0.0
C2948 C 0.4234 0.43418 0.56974 0.0
C2949 C 0.41363 0.44239 0.58196 0.0
C2950 C 0.40961 0.45439 0.55761 0.0
N2951 N 0.40478 0.45492 0.57414 0.0
C2952 C 0.41006 0.40912 0.53863 0.0
C2953 C 0.39325 0.41118 0.50749 0.0
C2954 C 0.38601 0.4018 0.52087 0.0
C2955 C 0.39508 0.39992 0.53622 0.0
C2956 C 0.40832 0.42022 0.5105 0.0
N2957 N 0.41546 0.42037 0.52648 0.0
H2958 H 0.41689 0.40778 0.55053 0.0
H2959 H 0.41317 0.4284 0.50049 0.0
H2960 H 0.43239 0.42394 0.57218 0.0
H2961 H 0.40656 0.46444 0.5487 0.0
O2962 O 0.4488 0.4229 0.54413 0.0
O2963 O 0.45124 0.45095 0.53992 0.0
O2964 O 0.41905 0.45622 0.52093 0.0
C2965 C 0.45821 0.43668 0.54497 0.0
H2966 H 0.4617 0.44592 0.47549 0.0
H2967 H 0.4139 0.44011 0.59563 0.0
H2968 H 0.38687 0.41234 0.49522 0.0
H2969 H 0.39042 0.39173 0.54641 0.0
Co2970 Co 0.78301 0.68473 0.55862 0.0
C2971 C 0.76359 0.67214 0.52812 0.0
C2972 C 0.74775 0.68711 0.54484 0.0
C2973 C 0.73797 0.68175 0.53122 0.0
N2974 N 0.76386 0.68105 0.54301 0.0
N2975 N 0.74798 0.67242 0.5208 0.0
H2976 H 0.77443 0.66554 0.52264 0.0
H2977 H 0.74323 0.69506 0.5552 0.0
C2978 C 0.76642 0.70776 0.58561 0.0
O2979 O 0.77229 0.69913 0.5988 0.0
N2980 N 0.80205 0.68847 0.57412 0.0
C2981 C 0.81563 0.67824 0.57739 0.0
C2982 C 0.82788 0.68753 0.58612 0.0
C2983 C 0.80637 0.70374 0.58075 0.0
N2984 N 0.82182 0.70348 0.5884 0.0
C2985 C 0.78385 0.65225 0.57442 0.0
C2986 C 0.75603 0.6573 0.59575 0.0
C2987 C 0.76759 0.64412 0.59907 0.0
C2988 C 0.78093 0.64086 0.58765 0.0
C2989 C 0.75945 0.66837 0.58219 0.0
N2990 N 0.77427 0.66673 0.57303 0.0
H2991 H 0.79449 0.64995 0.56597 0.0
H2992 H 0.7507 0.67876 0.57987 0.0
H2993 H 0.81748 0.66552 0.57234 0.0
H2994 H 0.7994 0.71542 0.57812 0.0
O2995 O 0.79772 0.67151 0.54377 0.0
O2996 O 0.79354 0.69956 0.54233 0.0
O2997 O 0.76944 0.7031 0.57028 0.0
C2998 C 0.80054 0.68593 0.53587 0.0
H2999 H 0.72466 0.68488 0.52885 0.0
H3000 H 0.84082 0.68344 0.58899 0.0
H3001 H 0.7452 0.65962 0.6041 0.0
H3002 H 0.78962 0.63021 0.58958 0.0
Co3003 Co 0.79064 0.54983 0.68612 0.0
C3004 C 0.7678 0.56153 0.71481 0.0
C3005 C 0.75477 0.56038 0.69073 0.0
C3006 C 0.74357 0.5666 0.70283 0.0
N3007 N 0.76999 0.55698 0.69824 0.0
N3008 N 0.75184 0.56722 0.71793 0.0
H3009 H 0.77759 0.56147 0.72445 0.0
H3010 H 0.75213 0.55897 0.67723 0.0
C3011 C 0.773 0.51937 0.67277 0.0
O3012 O 0.78251 0.51057 0.68348 0.0
N3013 N 0.81108 0.54339 0.67355 0.0
C3014 C 0.82604 0.55206 0.67314 0.0
C3015 C 0.83776 0.54282 0.66368 0.0
C3016 C 0.81376 0.52938 0.66389 0.0
N3017 N 0.8299 0.52863 0.65776 0.0
C3018 C 0.78735 0.58498 0.67863 0.0
C3019 C 0.77989 0.58053 0.6443 0.0
C3020 C 0.77821 0.59673 0.65177 0.0
C3021 C 0.7825 0.5991 0.66897 0.0
C3022 C 0.785 0.56683 0.65436 0.0
N3023 N 0.78795 0.56913 0.67138 0.0
H3024 H 0.78983 0.58657 0.69215 0.0
H3025 H 0.78614 0.55431 0.6486 0.0
H3026 H 0.82849 0.56393 0.67983 0.0
H3027 H 0.8046 0.51922 0.66217 0.0
O3028 O 0.80482 0.56002 0.70372 0.0
O3029 O 0.79552 0.53328 0.70366 0.0
O3030 O 0.77545 0.53543 0.67101 0.0
C3031 C 0.80362 0.54541 0.71164 0.0
H3032 H 0.73033 0.5702 0.70076 0.0
H3033 H 0.85122 0.54577 0.66207 0.0
H3034 H 0.77727 0.57852 0.63082 0.0
H3035 H 0.78163 0.61159 0.67494 0.0
Co3036 Co 0.44594 0.03809 0.9361 0.0
C3037 C 0.42093 0.01316 0.94935 0.0
C3038 C 0.44403 0.00071 0.94119 0.0
C3039 C 0.43373 0.98887 0.9491 0.0
N3040 N 0.43602 0.01598 0.94143 0.0
N3041 N 0.41935 -0.00322 0.9545 0.0
H3042 H 0.41195 0.02316 0.95268 0.0
H3043 H 0.45702 -0.00147 0.93698 0.0
C3044 C 0.46767 0.02175 0.9074 0.0
O3045 O 0.45831 0.02723 0.89457 0.0
N3046 N 0.45601 0.0603 0.93097 0.0
C3047 C 0.45455 0.07506 0.93985 0.0
C3048 C 0.46325 0.08778 0.93127 0.0
C3049 C 0.46541 0.06439 0.91712 0.0
N3050 N 0.47013 0.08104 0.91693 0.0
C3051 C 0.42215 0.05538 0.91485 0.0
C3052 C 0.41229 0.02687 0.89634 0.0
C3053 C 0.40347 0.04227 0.89426 0.0
C3054 C 0.40866 0.05676 0.90333 0.0
C3055 C 0.42577 0.02608 0.90785 0.0
N3056 N 0.43061 0.04023 0.91691 0.0
H3057 H 0.42515 0.06628 0.92278 0.0
H3058 H 0.43207 0.01392 0.90973 0.0
H3059 H 0.44778 0.0766 0.95181 0.0
H3060 H 0.46944 0.0552 0.90773 0.0
O3061 O 0.43137 0.04828 0.95325 0.0
O3062 O 0.45734 0.0373 0.95772 0.0
O3063 O 0.46452 0.02603 0.92285 0.0
C3064 C 0.44324 0.04359 0.964 0.0
H3065 H 0.43746 0.97594 0.95245 0.0
H3066 H 0.46487 0.10082 0.93566 0.0
H3067 H 0.40856 0.01545 0.88938 0.0
H3068 H 0.40183 0.06878 0.90217 0.0
Co3069 Co 0.5503 0.95027 0.04662 0.0
C3070 C 0.53522 0.97682 0.06921 0.0
C3071 C 0.54289 0.9873 0.04498 0.0
C3072 C 0.53506 -6e-05 0.05431 0.0
N3073 N 0.54311 0.97279 0.05434 0.0
N3074 N 0.53011 0.99331 0.06945 0.0
H3075 H 0.53233 0.96769 0.07921 0.0
H3076 H 0.54715 0.98853 0.0319 0.0
C3077 C 0.57727 0.9664 0.02275 0.0
O3078 O 0.59063 0.96167 0.03179 0.0
N3079 N 0.5572 0.92763 0.03865 0.0
C3080 C 0.54981 0.91231 0.04187 0.0
C3081 C 0.55883 0.89968 0.03344 0.0
C3082 C 0.57066 0.92396 0.02854 0.0
N3083 N 0.57202 0.90708 0.0251 0.0
C3084 C 0.57471 0.9374 0.07042 0.0
C3085 C 0.59222 0.96788 0.07503 0.0
C3086 C 0.59741 0.95329 0.08397 0.0
C3087 C 0.58851 0.93791 0.08164 0.0
C3088 C 0.57836 0.9668 0.06394 0.0
N3089 N 0.57013 0.95157 0.06132 0.0
H3090 H 0.56745 0.92569 0.06937 0.0
H3091 H 0.57462 0.9782 0.05709 0.0
H3092 H 0.53844 0.91033 0.0495 0.0
H3093 H 0.57875 0.93345 0.02277 0.0
O3094 O 0.5343 0.94015 0.06265 0.0
O3095 O 0.52853 0.94787 0.03582 0.0
O3096 O 0.5621 0.96156 0.02658 0.0
C3097 C 0.52302 0.94245 0.05056 0.0
H3098 H 0.53184 0.0126 0.04968 0.0
H3099 H 0.55548 0.88625 0.03287 0.0
H3100 H 0.59876 0.98002 0.07664 0.0
H3101 H 0.59179 0.92654 0.08888 0.0
Co3102 Co 0.20075 0.29979 0.42991 0.0
C3103 C 0.22755 0.27786 0.41493 0.0
C3104 C 0.23185 0.28215 0.44179 0.0
C3105 C 0.24525 0.27274 0.43544 0.0
N3106 N 0.22081 0.28545 0.42891 0.0
N3107 N 0.24247 0.27009 0.41864 0.0
H3108 H 0.22187 0.27826 0.40229 0.0
H3109 H 0.23044 0.28629 0.45491 0.0
C3110 C 0.20851 0.32313 0.46026 0.0
O3111 O 0.20163 0.33646 0.45267 0.0
N3112 N 0.18057 0.31427 0.43105 0.0
C3113 C 0.17618 0.32851 0.42218 0.0
C3114 C 0.1634 0.33697 0.43091 0.0
C3115 C 0.16989 0.31401 0.44449 0.0
N3116 N 0.15951 0.32777 0.44492 0.0
C3117 C 0.20938 0.31944 0.40055 0.0
C3118 C 0.23088 0.34211 0.41741 0.0
C3119 C 0.22402 0.34644 0.40152 0.0
C3120 C 0.21441 0.3344 0.39239 0.0
C3121 C 0.22598 0.32662 0.42478 0.0
N3122 N 0.21344 0.31693 0.41731 0.0
H3123 H 0.20051 0.31105 0.39408 0.0
H3124 H 0.23157 0.32301 0.43685 0.0
H3125 H 0.1826 0.3336 0.41114 0.0
H3126 H 0.17149 0.30529 0.45516 0.0
O3127 O 0.19082 0.28703 0.41108 0.0
O3128 O 0.18763 0.28099 0.43865 0.0
O3129 O 0.20875 0.3086 0.45282 0.0
C3130 C 0.1846 0.27697 0.42281 0.0
H3131 H 0.25607 0.2679 0.44264 0.0
H3132 H 0.15874 0.34974 0.42822 0.0
H3133 H 0.23907 0.35091 0.42436 0.0
H3134 H 0.20937 0.33732 0.3798 0.0
Co3135 Co 0.19799 0.42853 0.30757 0.0
C3136 C 0.2181 0.45871 0.32082 0.0
C3137 C 0.23148 0.43492 0.32339 0.0
C3138 C 0.24162 0.44774 0.32994 0.0
N3139 N 0.21673 0.44176 0.3175 0.0
N3140 N 0.23319 0.46268 0.32827 0.0
H3141 H 0.20836 0.46807 0.31813 0.0
H3142 H 0.23467 0.42146 0.32304 0.0
C3143 C 0.21771 0.40186 0.2858 0.0
O3144 O 0.20434 0.3934 0.28017 0.0
N3145 N 0.1794 0.41517 0.29805 0.0
C3146 C 0.16671 0.40687 0.30643 0.0
C3147 C 0.15589 0.3994 0.29455 0.0
C3148 C 0.1758 0.4132 0.28136 0.0
N3149 N 0.16197 0.40321 0.27892 0.0
C3150 C 0.19638 0.42317 0.34333 0.0
C3151 C 0.20733 0.38957 0.34193 0.0
C3152 C 0.20774 0.39839 0.35753 0.0
C3153 C 0.20133 0.41506 0.35843 0.0
C3154 C 0.2022 0.39809 0.32724 0.0
N3155 N 0.19787 0.41493 0.32799 0.0
H3156 H 0.19274 0.43652 0.34371 0.0
H3157 H 0.20253 0.39142 0.31517 0.0
H3158 H 0.1653 0.40636 0.32019 0.0
H3159 H 0.18332 0.41875 0.27111 0.0
O3160 O 0.18166 0.44606 0.31387 0.0
O3161 O 0.19591 0.44472 0.28935 0.0
O3162 O 0.21631 0.41402 0.29662 0.0
C3163 C 0.18534 0.45304 0.29914 0.0
H3164 H 0.25445 0.44624 0.33501 0.0
H3165 H 0.14459 0.39179 0.29712 0.0
H3166 H 0.21149 0.37637 0.34103 0.0
H3167 H 0.20109 0.422 0.37043 0.0
C3168 C 0.0336 0.99137 0.44064 0.0
C3169 C 0.04678 0.98132 0.43376 0.0
H3170 H 0.02344 0.01631 0.44434 0.0
C3171 C 0.05941 0.98904 0.42361 0.0
H3172 H 0.02334 0.9856 0.44801 0.0
C3173 C 0.05966 0.0069 0.42167 0.0
C3174 C 0.04691 0.01703 0.4294 0.0
H3175 H 0.06942 0.98138 0.41783 0.0
H3176 H 0.07021 0.01281 0.41488 0.0
C3177 C 0.03348 0.00896 0.43822 0.0
C3178 C 0.98638 0.29521 0.69865 0.0
C3179 C 0.97925 0.30422 0.68481 0.0
H3180 H 0.00881 0.28781 0.71204 0.0
C3181 C 0.98984 0.3141 0.67425 0.0
H3182 H 0.97842 0.28792 0.70738 0.0
C3183 C 0.00763 0.31372 0.67676 0.0
C3184 C 0.01469 0.304 0.69023 0.0
H3185 H 0.98448 0.32141 0.66375 0.0
H3186 H 0.01585 0.32042 0.66782 0.0
C3187 C 0.00382 0.29541 0.70156 0.0
C3188 C 0.67534 0.23978 0.92512 0.0
C3189 C 0.68222 0.23278 0.94011 0.0
H3190 H 0.67003 0.26293 0.91136 0.0
C3191 C 0.68568 0.2433 0.95418 0.0
H3192 H 0.67233 0.23167 0.91428 0.0
C3193 C 0.68375 0.26091 0.95283 0.0
C3194 C 0.67896 0.26825 0.93713 0.0
H3195 H 0.69055 0.23795 0.96603 0.0
H3196 H 0.68755 0.26877 0.96361 0.0
C3197 C 0.67386 0.25756 0.92356 0.0
C3198 C 0.73474 0.9292 0.18133 0.0
C3199 C 0.7256 0.93873 0.19352 0.0
H3200 H 0.75936 0.92271 0.17108 0.0
C3201 C 0.73461 0.95001 0.2043 0.0
H3202 H 0.7281 0.92071 0.1726 0.0
C3203 C 0.75237 0.95164 0.203 0.0
C3204 C 0.76156 0.94187 0.19103 0.0
H3205 H 0.72792 0.95786 0.21357 0.0
H3206 H 0.75894 0.9601 0.21182 0.0
C3207 C 0.75257 0.93065 0.1802 0.0
C3208 C 0.03338 0.25195 0.78471 0.0
C3209 C 0.04297 0.26079 0.79708 0.0
H3210 H 0.02471 0.22793 0.77534 0.0
C3211 C 0.05153 0.25155 0.8099 0.0
H3212 H 0.02634 0.25871 0.77484 0.0
C3213 C 0.05075 0.23363 0.81005 0.0
C3214 C 0.04089 0.22491 0.79777 0.0
H3215 H 0.05877 0.25815 0.81973 0.0
H3216 H 0.05787 0.22661 0.81968 0.0
C3217 C 0.03211 0.23428 0.78523 0.0
C3218 C 0.72853 0.31177 0.04558 0.0
C3219 C 0.71953 0.30127 0.03405 0.0
H3220 H 0.75291 0.31799 0.05666 0.0
C3221 C 0.72863 0.28939 0.02408 0.0
H3222 H 0.7218 0.32092 0.05353 0.0
C3223 C 0.74616 0.2872 0.02644 0.0
C3224 C 0.75501 0.29716 0.03849 0.0
H3225 H 0.72207 0.281 0.01518 0.0
H3226 H 0.75281 0.27777 0.01875 0.0
C3227 C 0.7462 0.30985 0.04764 0.0
C3228 C 0.67346 0.98759 0.31152 0.0
C3229 C 0.6816 0.97754 0.29906 0.0
H3230 H 0.66887 0.01319 0.32063 0.0
C3231 C 0.69253 0.98537 0.28712 0.0
H3232 H 0.66532 0.98173 0.32109 0.0
C3233 C 0.69558 0.00274 0.28773 0.0
C3234 C 0.68699 0.01302 0.2996 0.0
H3235 H 0.69942 0.97801 0.2776 0.0
H3236 H 0.70406 0.00819 0.27818 0.0
C3237 C 0.67581 0.0054 0.31151 0.0
C3238 C 0.98757 0.94769 0.53871 0.0
C3239 C 0.97899 0.94047 0.55269 0.0
H3240 H 0.01071 0.9498 0.52475 0.0
C3241 C 0.98756 0.92876 0.5633 0.0
H3242 H 0.9811 0.95629 0.52994 0.0
C3243 C 0.0049 0.92506 0.5604 0.0
C3244 C 0.01344 0.93246 0.5464 0.0
H3245 H 0.98095 0.92272 0.57389 0.0
H3246 H 0.01168 0.91674 0.56918 0.0
C3247 C 0.00449 0.9436 0.53549 0.0
C3248 C 0.42699 0.05276 0.00848 0.0
C3249 C 0.43518 0.03968 0.0178 0.0
H3250 H 0.42341 0.06446 0.98385 0.0
C3251 C 0.4438 0.02667 0.00892 0.0
H3252 H 0.42017 0.0629 0.01503 0.0
C3253 C 0.44621 0.028 0.99133 0.0
C3254 C 0.43959 0.04204 0.9823 0.0
H3255 H 0.45011 0.01634 0.01568 0.0
H3256 H 0.4537 0.01828 0.98486 0.0
C3257 C 0.42909 0.05385 0.99075 0.0
C3258 C 0.94677 0.70193 0.23502 0.0
C3259 C 0.93635 0.69013 0.22632 0.0
H3260 H 0.95696 0.71019 0.25894 0.0
C3261 C 0.92764 0.67747 0.23566 0.0
H3262 H 0.95396 0.71161 0.22816 0.0
C3263 C 0.92931 0.67672 0.25347 0.0
C3264 C 0.94018 0.68824 0.26203 0.0
H3265 H 0.9198 0.66803 0.22916 0.0
H3266 H 0.92218 0.66715 0.26054 0.0
C3267 C 0.94889 0.70082 0.25264 0.0
C3268 C 0.31012 0.18319 0.48505 0.0
C3269 C 0.29984 0.19439 0.47544 0.0
H3270 H 0.31809 0.17524 0.51012 0.0
C3271 C 0.29024 0.20697 0.48395 0.0
H3272 H 0.31788 0.17357 0.47876 0.0
C3273 C 0.29106 0.20848 0.50169 0.0
C3274 C 0.30108 0.1971 0.51136 0.0
H3275 H 0.28251 0.21605 0.47687 0.0
H3276 H 0.28328 0.21816 0.50785 0.0
C3277 C 0.31054 0.18437 0.50291 0.0
C3278 C 0.79509 0.5332 0.73956 0.0
C3279 C 0.80551 0.54465 0.73037 0.0
H3280 H 0.78441 0.52632 0.76374 0.0
C3281 C 0.81404 0.5578 0.73921 0.0
H3282 H 0.78811 0.52308 0.73311 0.0
C3283 C 0.81188 0.55965 0.75688 0.0
C3284 C 0.8008 0.54868 0.76585 0.0
H3285 H 0.8219 0.56697 0.73237 0.0
H3286 H 0.81875 0.56973 0.7635 0.0
C3287 C 0.79255 0.53536 0.75705 0.0
C3288 C 0.41323 0.1869 0.24779 0.0
C3289 C 0.42475 0.17664 0.25697 0.0
H3290 H 0.40645 0.19643 0.223 0.0
C3291 C 0.43415 0.164 0.24843 0.0
H3292 H 0.40568 0.19657 0.25419 0.0
C3293 C 0.43358 0.16307 0.2306 0.0
C3294 C 0.42467 0.17564 0.22136 0.0
H3295 H 0.44302 0.15591 0.25539 0.0
H3296 H 0.44213 0.15427 0.22413 0.0
C3297 C 0.41353 0.18672 0.22997 0.0
C3298 C 0.80409 0.70137 0.50869 0.0
C3299 C 0.80631 0.68618 0.518 0.0
H3300 H 0.79902 0.71243 0.48428 0.0
C3301 C 0.80931 0.67075 0.50916 0.0
H3302 H 0.80201 0.71351 0.51507 0.0
C3303 C 0.80801 0.67027 0.4913 0.0
C3304 C 0.80347 0.68514 0.48242 0.0
H3305 H 0.81112 0.65886 0.51607 0.0
H3306 H 0.80926 0.65817 0.48464 0.0
C3307 C 0.80222 0.70076 0.49107 0.0
C3308 C 0.29852 0.03512 0.74974 0.0
C3309 C 0.30633 0.04862 0.75863 0.0
H3310 H 0.29435 0.02265 0.72612 0.0
C3311 C 0.31636 0.06052 0.74958 0.0
H3312 H 0.29114 0.0254 0.75635 0.0
C3313 C 0.31776 0.05926 0.73166 0.0
C3314 C 0.3099 0.04558 0.72293 0.0
H3315 H 0.32277 0.07085 0.75627 0.0
H3316 H 0.3247 0.06903 0.72467 0.0
C3317 C 0.30072 0.03332 0.73231 0.0
C3318 C 0.91325 0.55007 0.00987 0.0
C3319 C 0.92406 0.56226 0.01736 0.0
H3320 H 0.90411 0.53923 0.98658 0.0
C3321 C 0.93059 0.57562 0.00723 0.0
H3322 H 0.90769 0.53991 0.01753 0.0
C3323 C 0.92991 0.57426 0.9894 0.0
C3324 C 0.92122 0.5605 0.98186 0.0
H3325 H 0.93823 0.58574 0.01284 0.0
H3326 H 0.93735 0.58302 0.98162 0.0
C3327 C 0.91139 0.54956 0.99214 0.0
C3328 C 0.0037 0.42232 0.05463 0.0
C3329 C 0.01276 0.42981 0.04099 0.0
H3330 H 0.97923 0.41937 0.06697 0.0
C3331 C 0.00385 0.43999 0.02911 0.0
H3332 H 0.01033 0.41469 0.06413 0.0
C3333 C 0.98657 0.44343 0.03132 0.0
C3334 C 0.9776 0.43636 0.04514 0.0
H3335 H 0.01039 0.44612 0.01853 0.0
H3336 H 0.98014 0.45141 0.02196 0.0
C3337 C 0.9861 0.42532 0.0565 0.0
C3338 C 0.50835 0.31729 0.1891 0.0
C3339 C 0.51679 0.30961 0.20308 0.0
H3340 H 0.48449 0.32042 0.17562 0.0
C3341 C 0.50701 0.30081 0.21534 0.0
H3342 H 0.51555 0.32412 0.17941 0.0
C3343 C 0.48963 0.2979 0.2126 0.0
C3344 C 0.4815 0.30433 0.19794 0.0
H3345 H 0.513 0.29483 0.22633 0.0
H3346 H 0.48256 0.29046 0.22195 0.0
C3347 C 0.49072 0.31483 0.18667 0.0
C3348 C 0.67958 0.74462 0.42161 0.0
C3349 C 0.68603 0.73503 0.43529 0.0
H3350 H 0.67466 0.76992 0.41218 0.0
C3351 C 0.6891 0.74282 0.45111 0.0
H3352 H 0.6768 0.73858 0.40944 0.0
C3353 C 0.68681 0.76027 0.45305 0.0
C3354 C 0.68247 0.77036 0.43885 0.0
H3355 H 0.69381 0.7355 0.4619 0.0
H3356 H 0.69021 0.76598 0.46524 0.0
C3357 C 0.67803 0.76237 0.42331 0.0
C3358 C 0.23006 0.94136 0.70931 0.0
C3359 C 0.22145 0.9322 0.69644 0.0
H3360 H 0.25399 0.95048 0.71879 0.0
C3361 C 0.23097 0.92396 0.6836 0.0
H3362 H 0.22312 0.948 0.71931 0.0
C3363 C 0.24884 0.92528 0.68345 0.0
C3364 C 0.2572 0.93537 0.69574 0.0
H3365 H 0.22459 0.917 0.67344 0.0
H3366 H 0.25608 0.91878 0.67357 0.0
C3367 C 0.24772 0.94317 0.70878 0.0
C3368 C 0.54937 0.4896 0.41742 0.0
C3369 C 0.56274 0.48004 0.42462 0.0
H3370 H 0.53824 0.51448 0.41464 0.0
C3371 C 0.57749 0.48842 0.43047 0.0
H3372 H 0.53791 0.48334 0.41283 0.0
C3373 C 0.57815 0.50632 0.4305 0.0
C3374 C 0.56354 0.51582 0.42595 0.0
H3375 H 0.58791 0.4812 0.43614 0.0
H3376 H 0.58923 0.51257 0.43605 0.0
C3377 C 0.54959 0.50741 0.4184 0.0
C3378 C 0.23781 0.80135 0.06559 0.0
C3379 C 0.23045 0.79231 0.0519 0.0
H3380 H 0.26109 0.80779 0.07879 0.0
C3381 C 0.24059 0.78095 0.04242 0.0
H3382 H 0.23007 0.80982 0.07339 0.0
C3383 C 0.25779 0.7788 0.0463 0.0
C3384 C 0.26558 0.78876 0.05908 0.0
H3385 H 0.23517 0.77336 0.03214 0.0
H3386 H 0.26521 0.77019 0.03836 0.0
C3387 C 0.25539 0.79984 0.06896 0.0
C3388 C 0.89054 0.0106 0.57901 0.0
C3389 C 0.90214 0.01974 0.58916 0.0
H3390 H 0.88331 0.98586 0.56989 0.0
C3391 C 0.91087 0.01119 0.60234 0.0
H3392 H 0.88364 0.01705 0.56884 0.0
C3393 C 0.91116 0.99332 0.60262 0.0
C3394 C 0.90251 0.98413 0.58981 0.0
H3395 H 0.91984 0.01814 0.61033 0.0
H3396 H 0.92026 0.987 0.61095 0.0
C3397 C 0.89052 0.99277 0.57952 0.0
C3398 C 0.98779 0.66836 0.35138 0.0
C3399 C 0.97953 0.65698 0.34018 0.0
H3400 H 0.01144 0.68049 0.35768 0.0
C3401 C 0.98918 0.64428 0.33201 0.0
H3402 H 0.98044 0.678 0.35811 0.0
C3403 C 0.00701 0.6456 0.33182 0.0
C3404 C 0.01506 0.65973 0.33963 0.0
H3405 H 0.98302 0.63517 0.32355 0.0
H3406 H 0.0142 0.63728 0.32338 0.0
C3407 C 0.00559 0.66977 0.35112 0.0
C3408 C 0.33393 0.71711 0.09348 0.0
C3409 C 0.33867 0.70957 0.07786 0.0
H3410 H 0.3283 0.74076 0.10627 0.0
C3411 C 0.34662 0.71953 0.0653 0.0
H3412 H 0.32767 0.70954 0.10327 0.0
C3413 C 0.34697 0.73722 0.06702 0.0
C3414 C 0.3393 0.74499 0.08127 0.0
H3415 H 0.35033 0.71384 0.05321 0.0
H3416 H 0.35132 0.74489 0.05635 0.0
C3417 C 0.33418 0.73491 0.09517 0.0
C3418 C 0.25844 0.09939 0.82225 0.0
C3419 C 0.26608 0.08618 0.83157 0.0
H3420 H 0.2346 0.10945 0.81333 0.0
C3421 C 0.25655 0.07727 0.84389 0.0
H3422 H 0.26576 0.10639 0.81277 0.0
C3423 C 0.23884 0.07922 0.84443 0.0
C3424 C 0.23082 0.08967 0.83228 0.0
H3425 H 0.26246 0.06713 0.85127 0.0
H3426 H 0.23137 0.0703 0.85199 0.0
C3427 C 0.2407 0.10122 0.82268 0.0
C3428 C 0.89031 0.72866 0.16422 0.0
C3429 C 0.90092 0.71988 0.15277 0.0
H3430 H 0.88478 0.75282 0.17575 0.0
C3431 C 0.90979 0.72915 0.14017 0.0
H3432 H 0.88334 0.72167 0.17396 0.0
C3433 C 0.91104 0.74694 0.14145 0.0
C3434 C 0.90322 0.75539 0.15523 0.0
H3435 H 0.91805 0.72254 0.13121 0.0
H3436 H 0.9201 0.75359 0.13332 0.0
C3437 C 0.89132 0.74642 0.16533 0.0
C3438 C 0.24548 0.64777 0.91655 0.0
C3439 C 0.23962 0.6586 0.90348 0.0
H3440 H 0.26743 0.63821 0.92979 0.0
C3441 C 0.25085 0.66334 0.89034 0.0
H3442 H 0.23688 0.64344 0.92647 0.0
C3443 C 0.26837 0.65995 0.89204 0.0
C3444 C 0.27457 0.65217 0.90706 0.0
H3445 H 0.24649 0.67148 0.88 0.0
H3446 H 0.27716 0.66594 0.88314 0.0
C3447 C 0.2629 0.64443 0.91825 0.0
C3448 C 0.33412 0.97749 0.64612 0.0
C3449 C 0.33894 0.96983 0.66162 0.0
H3450 H 0.33122 0.00128 0.63287 0.0
C3451 C 0.35004 0.97868 0.67269 0.0
H3452 H 0.32573 0.97083 0.6373 0.0
C3453 C 0.35319 -0.00397 0.67011 0.0
C3454 C 0.34525 0.00453 0.65649 0.0
H3455 H 0.35426 0.9728 0.68453 0.0
H3456 H 0.35933 0.0033 0.68021 0.0
C3457 C 0.33742 -0.00513 0.64349 0.0
C3458 C 0.9904 0.06989 0.39222 0.0
C3459 C 0.97961 0.08042 0.40196 0.0
H3460 H 0.01627 0.0639 0.38552 0.0
C3461 C 0.98612 0.09566 0.40886 0.0
H3462 H 0.9855 0.05818 0.38661 0.0
C3463 C 0.00374 0.09889 0.40834 0.0
C3464 C 0.01491 0.08687 0.40088 0.0
H3465 H 0.97796 0.10396 0.41638 0.0
H3466 H 0.00874 0.10955 0.41566 0.0
C3467 C 0.00792 0.07321 0.39151 0.0
C3468 C 0.57454 0.88807 0.00011 0.0
C3469 C 0.58194 0.90019 0.01117 0.0
H3470 H 0.57128 0.8807 0.97396 0.0
C3471 C 0.59666 0.90902 0.00564 0.0
H3472 H 0.56348 0.88067 0.00403 0.0
C3473 C 0.60091 0.90918 0.9883 0.0
C3474 C 0.59075 0.90014 0.97661 0.0
H3475 H 0.60317 0.91786 0.01412 0.0
H3476 H 0.6101 0.91851 0.98374 0.0
C3477 C 0.57913 0.88792 0.98284 0.0
C3478 C 0.06997 0.34897 0.75457 0.0
C3479 C 0.07861 0.33799 0.76588 0.0
H3480 H 0.06383 0.35385 0.7283 0.0
C3481 C 0.09223 0.32802 0.75978 0.0
H3482 H 0.05952 0.35685 0.75916 0.0
C3483 C 0.09454 0.32622 0.74221 0.0
C3484 C 0.08351 0.33466 0.73086 0.0
H3485 H 0.0991 0.31951 0.7683 0.0
H3486 H 0.10317 0.31643 0.73752 0.0
C3487 C 0.07241 0.34728 0.73699 0.0
C3488 C 0.6594 0.85445 0.47885 0.0
C3489 C 0.65217 0.84207 0.468 0.0
H3490 H 0.66993 0.8589 0.50382 0.0
C3491 C 0.64288 0.82858 0.47542 0.0
H3492 H 0.66626 0.86522 0.47342 0.0
C3493 C 0.64571 0.82442 0.49255 0.0
C3494 C 0.6566 0.83465 0.5025 0.0
H3495 H 0.63678 0.81913 0.46729 0.0
H3496 H 0.64093 0.81238 0.49747 0.0
C3497 C 0.66192 0.85059 0.49614 0.0
C3498 C 0.14085 0.40682 0.25622 0.0
C3499 C 0.1554 0.39848 0.26254 0.0
H3500 H 0.12905 0.41761 0.23393 0.0
C3501 C 0.16626 0.38982 0.25116 0.0
H3502 H 0.13247 0.41369 0.26487 0.0
C3503 C 0.16418 0.39186 0.23357 0.0
C3504 C 0.15138 0.40274 0.22732 0.0
H3505 H 0.17759 0.38338 0.25591 0.0
H3506 H 0.17407 0.38719 0.22505 0.0
C3507 C 0.13885 0.40897 0.23858 0.0
C3508 C 0.57571 0.84751 0.73986 0.0
C3509 C 0.58567 0.83595 0.7305 0.0
H3510 H 0.56588 0.85394 0.76461 0.0
C3511 C 0.59693 0.82493 0.73916 0.0
H3512 H 0.56675 0.85584 0.73333 0.0
C3513 C 0.59607 0.82347 0.75692 0.0
C3514 C 0.58435 0.83342 0.7661 0.0
H3515 H 0.60445 0.81571 0.73203 0.0
H3516 H 0.60297 0.81324 0.76324 0.0
C3517 C 0.57521 0.84639 0.75767 0.0
C3518 C 0.14272 0.32347 0.47051 0.0
C3519 C 0.15328 0.33423 0.4608 0.0
H3520 H 0.13801 0.31307 0.49534 0.0
C3521 C 0.16304 0.34686 0.46915 0.0
H3522 H 0.1351 0.31371 0.46425 0.0
C3523 C 0.16507 0.34621 0.4869 0.0
C3524 C 0.15697 0.33321 0.49618 0.0
H3525 H 0.17128 0.3553 0.46185 0.0
H3526 H 0.1745 0.35435 0.493 0.0
C3527 C 0.14467 0.32288 0.48819 0.0
C3528 C 0.63497 0.91344 0.25413 0.0
C3529 C 0.64563 0.90325 0.26433 0.0
H3530 H 0.63071 0.92351 0.22899 0.0
C3531 C 0.65653 0.89133 0.25643 0.0
H3532 H 0.62664 0.92282 0.26004 0.0
C3533 C 0.65938 0.8922 0.23881 0.0
C3534 C 0.65076 0.90448 0.22906 0.0
H3535 H 0.665 0.88353 0.26417 0.0
H3536 H 0.66966 0.88479 0.2332 0.0
C3537 C 0.63751 0.91403 0.23648 0.0
C3538 C 0.10262 0.4092 0.98079 0.0
C3539 C 0.08961 0.39966 0.97294 0.0
H3540 H 0.11223 0.41841 0.00472 0.0
C3541 C 0.08097 0.38711 0.98248 0.0
H3542 H 0.10939 0.41896 0.97363 0.0
C3543 C 0.08276 0.38664 0.00025 0.0
C3544 C 0.09289 0.39899 0.00843 0.0
H3545 H 0.07092 0.3796 0.97655 0.0
H3546 H 0.07389 0.37894 0.00763 0.0
C3547 C 0.1043 0.40882 -0.00142 0.0
C3548 C 0.98088 0.57354 0.896 0.0
C3549 C 0.97304 0.58495 0.90749 0.0
H3550 H 0.00465 0.56293 0.88739 0.0
C3551 C 0.98275 0.59826 0.91459 0.0
H3552 H 0.9735 0.56321 0.89039 0.0
C3553 C 0.00056 0.5983 0.91255 0.0
C3554 C 0.00862 0.5849 0.90361 0.0
H3555 H 0.97695 0.60708 0.92358 0.0
H3556 H 0.00813 0.60726 0.91996 0.0
C3557 C -0.00137 0.57335 0.89427 0.0
C3558 C 0.50487 0.66156 0.84531 0.0
C3559 C 0.51394 0.6501 0.83495 0.0
H3560 H 0.48059 0.67305 0.8506 0.0
C3561 C 0.50478 0.63843 0.8247 0.0
H3562 H 0.51171 0.67065 0.85326 0.0
C3563 C 0.48701 0.63999 0.8229 0.0
C3564 C 0.47829 0.65317 0.83143 0.0
H3565 H 0.51154 0.62958 0.81645 0.0
H3566 H 0.48051 0.63226 0.8134 0.0
C3567 C 0.48714 0.66298 0.84367 0.0
C3568 C 0.32896 0.25726 0.59468 0.0
C3569 C 0.33777 0.26481 0.58103 0.0
H3570 H 0.31972 0.23368 0.60516 0.0
C3571 C 0.34864 0.25475 0.57091 0.0
H3572 H 0.32041 0.26489 0.60249 0.0
C3573 C 0.34813 0.23697 0.57232 0.0
C3574 C 0.33684 0.22929 0.58393 0.0
H3575 H 0.35547 0.26046 0.56028 0.0
H3576 H 0.3544 0.22928 0.56264 0.0
C3577 C 0.32864 0.23946 0.59624 0.0
C3578 C 0.75797 0.0781 0.34247 0.0
C3579 C 0.76784 0.08524 0.32921 0.0
H3580 H 0.73274 0.07036 0.35014 0.0
C3581 C 0.75978 0.09538 0.3168 0.0
H3582 H 0.76405 0.07033 0.35221 0.0
C3583 C 0.74199 0.09516 0.31549 0.0
C3584 C 0.73229 0.08519 0.32684 0.0
H3585 H 0.76714 0.10107 0.30652 0.0
H3586 H 0.73596 0.10107 0.30451 0.0
C3587 C 0.74014 0.07799 0.34122 0.0
C3588 C 0.38445 0.47842 0.57215 0.0
C3589 C 0.39716 0.46984 0.5816 0.0
H3590 H 0.37667 0.50272 0.56209 0.0
C3591 C 0.40652 0.479 0.59389 0.0
H3592 H 0.37687 0.47147 0.56283 0.0
C3593 C 0.40611 0.49685 0.5937 0.0
C3594 C 0.39632 0.50541 0.5813 0.0
H3595 H 0.41626 0.47268 0.60148 0.0
H3596 H 0.41543 0.50386 0.60123 0.0
C3597 C 0.38433 0.49626 0.57167 0.0
C3598 C 0.73298 0.14113 0.91044 0.0
C3599 C 0.72732 0.15543 0.90102 0.0
H3600 H 0.75471 0.12998 0.9229 0.0
C3601 C 0.73895 0.16336 0.88982 0.0
H3602 H 0.7241 0.1341 0.91845 0.0
C3603 C 0.75644 0.16054 0.89198 0.0
C3604 C 0.76211 0.14998 0.90537 0.0
H3605 H 0.73501 0.17392 0.88177 0.0
H3606 H 0.76537 0.16911 0.8857 0.0
C3607 C 0.75051 0.13857 0.91285 0.0
C3608 C 0.05899 0.50515 0.9281 0.0
C3609 C 0.04728 0.51382 0.93862 0.0
H3610 H 0.07014 0.48098 0.92138 0.0
C3611 C 0.03879 0.50479 0.95164 0.0
H3612 H 0.06605 0.51196 0.9183 0.0
C3613 C 0.04188 0.48741 0.95405 0.0
C3614 C 0.0531 0.47854 0.94313 0.0
H3615 H 0.03016 0.51127 0.96035 0.0
H3616 H 0.03478 0.48075 0.96394 0.0
C3617 C 0.06169 0.48758 0.93017 0.0
C3618 C 0.98862 0.80938 0.18268 0.0
C3619 C 0.98011 0.79737 0.19298 0.0
H3620 H 0.01298 0.81966 0.17504 0.0
C3621 C 0.98943 0.7882 0.20532 0.0
H3622 H 0.98158 0.81692 0.1734 0.0
C3623 C 0.00701 0.79043 0.20692 0.0
C3624 C 0.01583 0.80143 0.19579 0.0
H3625 H 0.98312 0.77932 0.21391 0.0
H3626 H 0.01378 0.78265 0.21619 0.0
C3627 C 0.00646 0.8112 0.18389 0.0
C3628 C 0.73814 0.45535 0.69835 0.0
C3629 C 0.73 0.44113 0.69095 0.0
H3630 H 0.76141 0.46906 0.70206 0.0
C3631 C 0.73936 0.43025 0.68017 0.0
H3632 H 0.73109 0.46438 0.70616 0.0
C3633 C 0.75694 0.4329 0.67786 0.0
C3634 C 0.76518 0.44679 0.68585 0.0
H3635 H 0.73319 0.41951 0.67391 0.0
H3636 H 0.76423 0.42368 0.6705 0.0
C3637 C 0.75545 0.45834 0.69556 0.0
C3638 C 0.06481 0.75871 0.30722 0.0
C3639 C 0.05826 0.7679 0.29318 0.0
H3640 H 0.06842 0.73389 0.31857 0.0
C3641 C 0.05193 0.75897 0.27893 0.0
H3642 H 0.06977 0.76535 0.31835 0.0
C3643 C 0.0505 0.74127 0.27944 0.0
C3644 C 0.0559 0.73221 0.29393 0.0
H3645 H 0.04684 0.76568 0.2679 0.0
H3646 H 0.04487 0.73465 0.2686 0.0
C3647 C 0.06385 0.74085 0.30748 0.0
C3648 C 0.75922 0.80333 0.55661 0.0
C3649 C 0.76776 0.79083 0.54688 0.0
H3650 H 0.73524 0.81542 0.56249 0.0
C3651 C 0.75829 0.78099 0.53515 0.0
H3652 H 0.76625 0.81134 0.5655 0.0
C3653 C 0.74081 0.78385 0.53289 0.0
C3654 C 0.73224 0.79637 0.54255 0.0
H3655 H 0.76449 0.7715 0.52717 0.0
H3656 H 0.73395 0.77593 0.52379 0.0
C3657 C 0.74158 0.80596 0.55459 0.0
C3658 C 0.66266 0.4864 0.80975 0.0
C3659 C 0.67606 0.47993 0.8198 0.0
H3660 H 0.65107 0.50874 0.79911 0.0
C3661 C 0.68569 0.49115 0.82999 0.0
H3662 H 0.65506 0.47789 0.80184 0.0
C3663 C 0.68419 0.50877 0.82756 0.0
C3664 C 0.67248 0.5152 0.81555 0.0
H3665 H 0.69603 0.48643 0.83792 0.0
H3666 H 0.69346 0.5172 0.83357 0.0
C3667 C 0.66052 0.50406 0.80807 0.0
C3668 C 0.42483 0.55373 0.49936 0.0
C3669 C 0.43316 0.54076 0.50863 0.0
H3670 H 0.42 0.56464 0.47454 0.0
C3671 C 0.4438 0.52921 0.49985 0.0
H3672 H 0.41687 0.56303 0.50588 0.0
C3673 C 0.44635 0.53074 0.48234 0.0
C3674 C 0.43789 0.54349 0.47296 0.0
H3675 H 0.45075 0.51927 0.50658 0.0
H3676 H 0.45456 0.52147 0.47609 0.0
C3677 C 0.42695 0.5549 0.48157 0.0
C3678 C 0.92604 0.17568 0.74009 0.0
C3679 C 0.93964 0.18357 0.73148 0.0
H3680 H 0.91489 0.17031 0.76457 0.0
C3681 C 0.95402 0.18919 0.7407 0.0
H3682 H 0.91505 0.17088 0.73311 0.0
C3683 C 0.95439 0.18802 0.75837 0.0
C3684 C 0.94003 0.18195 0.76721 0.0
H3685 H 0.96499 0.19474 0.73424 0.0
H3686 H 0.96533 0.19332 0.76509 0.0
C3687 C 0.92613 0.17507 0.75798 0.0
C3688 C 0.30209 0.66135 0.98289 0.0
C3689 C 0.31394 0.67421 0.97868 0.0
H3690 H 0.28951 0.64785 0.00314 0.0
C3691 C 0.32531 0.68024 0.99116 0.0
H3692 H 0.29336 0.65639 0.97329 0.0
C3693 C 0.32266 0.67585 0.00826 0.0
C3694 C 0.30895 0.66509 0.01278 0.0
H3695 H 0.33464 0.69006 0.98812 0.0
H3696 H 0.32977 0.68266 0.01806 0.0
C3697 C 0.29994 0.65642 -7e-05 0.0
C3698 C 0.81485 0.03206 0.24931 0.0
C3699 C 0.8125 0.0467 0.25931 0.0
H3700 H 0.815 0.02138 0.22423 0.0
C3701 C 0.81041 0.06269 0.2515 0.0
H3702 H 0.81568 0.01958 0.25519 0.0
C3703 C 0.80967 0.06377 0.23363 0.0
C3704 C 0.81073 0.04879 0.2237 0.0
H3705 H 0.8082 0.07404 0.25916 0.0
H3706 H 0.80681 0.076 0.22774 0.0
C3707 C 0.81417 0.03309 0.23162 0.0
C3708 C 0.43815 0.70235 0.74816 0.0
C3709 C 0.43533 0.68744 0.75766 0.0
H3710 H 0.44055 0.71357 0.72352 0.0
C3711 C 0.43106 0.67214 0.74932 0.0
H3712 H 0.44112 0.71436 0.75445 0.0
C3713 C 0.43114 0.67152 0.73139 0.0
C3714 C 0.43505 0.68632 0.72186 0.0
H3715 H 0.42858 0.6606 0.7566 0.0
H3716 H 0.42913 0.65934 0.72507 0.0
C3717 C 0.43765 0.70189 0.73044 0.0
C3718 C 0.79615 0.20644 0.99167 0.0
C3719 C 0.80286 0.19177 0.98387 0.0
H3720 H 0.7937 0.221 0.01444 0.0
C3721 C 0.81413 0.18116 0.99294 0.0
H3722 H 0.78809 0.21529 0.98464 0.0
C3723 C 0.8173 0.18436 0.01024 0.0
C3724 C 0.80966 0.19851 0.0183 0.0
H3725 H 0.8199 0.17013 0.98684 0.0
H3726 H 0.82482 0.17527 0.01753 0.0
C3727 C 0.79981 0.20999 0.00862 0.0
C3728 C 0.29218 0.52774 0.24539 0.0
C3729 C 0.30062 0.54034 0.25501 0.0
H3730 H 0.28764 0.51732 0.22064 0.0
C3731 C 0.31328 0.55049 0.24736 0.0
H3732 H 0.28287 0.51925 0.25122 0.0
C3733 C 0.31612 0.54931 0.22982 0.0
C3734 C 0.3064 0.53788 0.21992 0.0
H3735 H 0.32033 0.5599 0.25474 0.0
H3736 H 0.32487 0.55828 0.22384 0.0
C3737 C 0.29525 0.52633 0.22797 0.0
C3738 C 0.93182 0.06017 0.48582 0.0
C3739 C 0.94262 0.04875 0.47711 0.0
H3740 H 0.92235 0.06846 0.51024 0.0
C3741 C 0.9513 0.036 0.48627 0.0
H3742 H 0.92468 0.06983 0.47889 0.0
C3743 C 0.94919 0.0346 0.50384 0.0
C3744 C 0.93877 0.04625 0.51269 0.0
H3745 H 0.95927 0.02668 0.47979 0.0
H3746 H 0.95634 0.02479 0.51056 0.0
C3747 C 0.93015 0.05912 0.50359 0.0
C3748 C 0.48728 0.7851 0.69874 0.0
C3749 C 0.47841 0.79301 0.68525 0.0
H3750 H 0.51094 0.78209 0.71195 0.0
C3751 C 0.4873 0.80416 0.67427 0.0
H3752 H 0.48074 0.77678 0.70771 0.0
C3753 C 0.50482 0.80721 0.67671 0.0
C3754 C 0.51352 0.79957 0.69047 0.0
H3755 H 0.48065 0.81072 0.66402 0.0
H3756 H 0.51156 0.81545 0.66782 0.0
C3757 C 0.50454 0.78854 0.70147 0.0
C3758 C 0.24891 0.45235 0.20951 0.0
C3759 C 0.25857 0.44337 0.19742 0.0
H3760 H 0.22416 0.45834 0.21903 0.0
C3761 C 0.25025 0.43299 0.1853 0.0
H3762 H 0.25507 0.46005 0.21929 0.0
C3763 C 0.23232 0.43216 0.18495 0.0
C3764 C 0.22268 0.44113 0.19718 0.0
H3765 H 0.2576 0.42571 0.17607 0.0
H3766 H 0.22603 0.42466 0.17512 0.0
C3767 C 0.23119 0.45103 0.20957 0.0
C3768 C 0.54368 0.00415 0.94041 0.0
C3769 C 0.55433 0.01305 0.92907 0.0
H3770 H 0.53782 0.98076 0.95264 0.0
C3771 C 0.56753 0.00425 0.92056 0.0
H3772 H 0.53364 0.01054 0.94754 0.0
C3773 C 0.56971 0.98659 0.92326 0.0
C3774 C 0.55938 0.97805 0.93525 0.0
H3775 H 0.57616 0.01101 0.91207 0.0
H3776 H 0.57951 0.97971 0.91626 0.0
C3777 C 0.54641 0.98706 0.94374 0.0
C3778 C 0.25373 0.28099 0.53971 0.0
C3779 C 0.26221 0.29285 0.5503 0.0
H3780 H 0.23019 0.27382 0.52766 0.0
C3781 C 0.25269 0.30567 0.55849 0.0
H3782 H 0.26073 0.27095 0.53319 0.0
C3783 C 0.23532 0.30756 0.55493 0.0
C3784 C 0.22716 0.2966 0.54324 0.0
H3785 H 0.2589 0.31501 0.56667 0.0
H3786 H 0.22832 0.31778 0.56117 0.0
C3787 C 0.23637 0.28296 0.53607 0.0
C3788 C 0.90932 0.50571 0.09775 0.0
C3789 C 0.90095 0.51522 0.08495 0.0
H3790 H 0.91893 0.48096 0.10476 0.0
C3791 C 0.89076 0.50666 0.07295 0.0
H3792 H 0.91734 0.51215 0.10707 0.0
C3793 C 0.89162 0.48891 0.07168 0.0
C3794 C 0.90275 0.47967 0.08235 0.0
H3795 H 0.88426 0.51381 0.06299 0.0
H3796 H 0.88551 0.48267 0.06089 0.0
C3797 C 0.91032 0.48789 0.09639 0.0
C3798 C 0.98767 0.14538 0.81983 0.0
C3799 C -0.00051 0.15376 0.83044 0.0
H3800 H 0.96115 0.14112 0.8146 0.0
C3801 C 0.99429 0.15961 0.84657 0.0
H3802 H 0.9916 0.14044 0.80749 0.0
C3803 C 0.9769 0.15996 0.85061 0.0
C3804 C 0.96479 0.15449 0.83851 0.0
H3805 H 0.00332 0.16591 0.85501 0.0
H3806 H 0.97278 0.16706 0.86178 0.0
C3807 C 0.97034 0.14539 0.82408 0.0
C3808 C 0.23757 0.57955 0.35043 0.0
C3809 C 0.22482 0.58702 0.34018 0.0
H3810 H 0.26396 0.57288 0.3514 0.0
C3811 C 0.22964 0.60133 0.33034 0.0
H3812 H 0.23441 0.56978 0.35972 0.0
C3813 C 0.24658 0.60247 0.3247 0.0
C3814 C 0.2584 0.58997 0.33005 0.0
H3815 H 0.22 0.60878 0.32371 0.0
H3816 H 0.24945 0.61104 0.31421 0.0
C3817 C 0.25463 0.5811 0.34532 0.0
C3818 C 0.89153 0.24334 0.66604 0.0
C3819 C 0.90335 0.23165 0.65945 0.0
H3820 H 0.88419 0.26967 0.66689 0.0
C3821 C 0.91301 0.23598 0.64497 0.0
H3822 H 0.88385 0.24003 0.67709 0.0
C3823 C 0.9133 0.25285 0.6392 0.0
C3824 C 0.90387 0.26534 0.64791 0.0
H3825 H 0.92173 0.22678 0.6394 0.0
H3826 H 0.92284 0.2566 0.62987 0.0
C3827 C 0.89153 0.26015 0.65998 0.0
C3828 C 0.23634 0.1434 0.40832 0.0
C3829 C 0.22605 0.15601 0.40061 0.0
H3830 H 0.26159 0.1369 0.41706 0.0
C3831 C 0.23392 0.1693 0.39149 0.0
H3832 H 0.23043 0.13317 0.41558 0.0
C3833 C 0.25159 0.17169 0.39275 0.0
C3834 C 0.26153 0.16052 0.40272 0.0
H3835 H 0.22621 0.17925 0.38565 0.0
H3836 H 0.25723 0.18315 0.38739 0.0
C3837 C 0.25407 0.14563 0.40934 0.0
C3838 C 0.32999 0.49905 0.1403 0.0
C3839 C 0.33784 0.51082 0.15144 0.0
H3840 H 0.32074 0.47346 0.13737 0.0
C3841 C 0.34771 0.50455 0.1651 0.0
H3842 H 0.32245 0.50349 0.12954 0.0
C3843 C 0.34653 0.48735 0.16974 0.0
C3844 C 0.33575 0.47628 0.16054 0.0
H3845 H 0.35412 0.51338 0.17368 0.0
H3846 H 0.35238 0.48319 0.18161 0.0
C3847 C 0.32888 0.48181 0.14488 0.0
C3848 C 0.60314 0.41265 0.48252 0.0
C3849 C 0.59202 0.40322 0.47204 0.0
H3850 H 0.60875 0.42021 0.5083 0.0
C3851 C 0.58226 0.38997 0.47936 0.0
H3852 H 0.61061 0.42303 0.47716 0.0
C3853 C 0.58079 0.38869 0.49711 0.0
C3854 C 0.58965 0.40017 0.5076 0.0
H3855 H 0.57354 0.38264 0.47144 0.0
H3856 H 0.57117 0.38029 0.50253 0.0
C3857 C 0.60195 0.41111 0.50032 0.0
C3858 C 0.08531 0.85032 0.25289 0.0
C3859 C 0.0915 0.83825 0.26472 0.0
H3860 H 0.07839 0.85484 0.22668 0.0
C3861 C 0.10059 0.824 0.25863 0.0
H3862 H 0.07826 0.86139 0.25736 0.0
C3863 C 0.10021 0.82003 0.24125 0.0
C3864 C 0.09133 0.83062 0.22981 0.0
H3865 H 0.10547 0.8145 0.26748 0.0
H3866 H 0.1052 0.80781 0.237 0.0
C3867 C 0.0852 0.8465 0.23541 0.0
C3868 C 0.65497 0.34737 0.99232 0.0
C3869 C 0.64732 0.33205 -0.00232 0.0
H3870 H 0.66387 0.36169 0.97069 0.0
C3871 C 0.63816 0.32211 0.98589 0.0
H3872 H 0.66204 0.35519 0.00133 0.0
C3873 C 0.63875 0.32607 0.96851 0.0
C3874 C 0.64905 0.33967 0.96279 0.0
H3875 H 0.63204 0.31034 0.98995 0.0
H3876 H 0.6334 0.317 0.95949 0.0
C3877 C 0.65586 0.35116 0.97486 0.0
C3878 C 0.13417 0.91047 0.73374 0.0
C3879 C 0.14649 0.90083 0.72487 0.0
H3880 H 0.12742 0.92138 0.75802 0.0
C3881 C 0.15729 0.88986 0.73403 0.0
H3882 H 0.12583 0.91912 0.72681 0.0
C3883 C 0.15807 0.89105 0.7518 0.0
C3884 C 0.14816 0.9033 0.76037 0.0
H3885 H 0.16689 0.8824 0.72736 0.0
H3886 H 0.168 0.88415 0.75856 0.0
C3887 C 0.13514 0.91186 0.75154 0.0
C3888 C 0.59932 0.32445 0.25227 0.0
C3889 C 0.59068 0.3349 0.24054 0.0
H3890 H 0.60264 0.31827 0.27869 0.0
C3891 C 0.58342 0.35033 0.24612 0.0
H3892 H 0.60511 0.31258 0.24807 0.0
C3893 C 0.58207 0.35361 0.26366 0.0
C3894 C 0.58784 0.34136 0.27549 0.0
H3895 H 0.57676 0.35854 0.23715 0.0
H3896 H 0.57403 0.36407 0.26789 0.0
C3897 C 0.59813 0.32784 0.26972 0.0
C3898 C 0.16313 0.84704 0.00368 0.0
C3899 C 0.15563 0.83166 0.00929 0.0
H3900 H 0.17195 0.86091 0.9818 0.0
C3901 C 0.14532 0.82234 -0.00214 0.0
H3902 H 0.17084 0.85474 0.01224 0.0
C3903 C 0.14591 0.82605 0.98042 0.0
C3904 C 0.15684 0.83898 0.97449 0.0
H3905 H 0.13888 0.81079 0.00202 0.0
H3906 H 0.14044 0.81695 0.97149 0.0
C3907 C 0.16358 0.85076 0.98622 0.0
C3908 C 0.67173 0.39285 0.76499 0.0
C3909 C 0.65914 0.40378 0.77171 0.0
H3910 H 0.68522 0.38532 0.74229 0.0
C3911 C 0.6468 0.41077 0.76077 0.0
H3912 H 0.68133 0.38737 0.77335 0.0
C3913 C 0.64858 0.40894 0.7431 0.0
C3914 C 0.66308 0.40072 0.73639 0.0
H3915 H 0.63711 0.41934 0.76576 0.0
H3916 H 0.63997 0.41583 0.73471 0.0
C3917 C 0.67396 0.39165 0.74732 0.0
C3918 C 0.08166 0.88995 0.49604 0.0
C3919 C 0.09057 0.90124 0.50676 0.0
H3920 H 0.07104 0.88636 0.47104 0.0
C3921 C 0.10067 0.9142 0.49939 0.0
H3922 H 0.07373 0.87999 0.50154 0.0
C3923 C 0.09851 0.91836 0.48215 0.0
C3924 C 0.0871 0.90887 0.47214 0.0
H3925 H 0.10753 0.92309 0.50754 0.0
H3926 H 0.10409 0.93005 0.47721 0.0
C3927 C 0.07994 0.89376 0.4787 0.0
C3928 C 0.47711 0.15531 0.34766 0.0
C3929 C 0.471 0.14678 0.33301 0.0
H3930 H 0.49825 0.16943 0.35805 0.0
C3931 C 0.48283 0.13861 0.32231 0.0
H3932 H 0.46811 0.16134 0.35632 0.0
C3933 C 0.50002 0.14336 0.32317 0.0
C3934 C 0.50528 0.15577 0.33508 0.0
H3935 H 0.47845 0.13158 0.31119 0.0
H3936 H 0.5086 0.13933 0.31307 0.0
C3937 C 0.49431 0.16015 0.34853 0.0
C3938 C 0.73091 0.59645 0.82795 0.0
C3939 C 0.72157 0.58359 0.83637 0.0
H3940 H 0.75588 0.60459 0.81974 0.0
C3941 C 0.73016 0.57193 0.84692 0.0
H3942 H 0.72443 0.60532 0.81949 0.0
C3943 C 0.74799 0.57157 0.84711 0.0
C3944 C 0.75733 0.5828 0.83667 0.0
H3945 H 0.72311 0.56182 0.85328 0.0
H3946 H 0.75443 0.56128 0.85378 0.0
C3947 C 0.74882 0.596 0.82802 0.0
C3948 C 0.41254 0.00116 0.1004 0.0
C3949 C 0.40484 0.01401 0.09048 0.0
H3950 H 0.41695 0.97422 0.10279 0.0
C3951 C 0.39133 0.00975 0.07948 0.0
H3952 H 0.42308 0.00432 0.10885 0.0
C3953 C 0.38797 0.99258 0.0759 0.0
C3954 C 0.39796 0.97977 0.08352 0.0
H3955 H 0.3854 0.01953 0.07164 0.0
H3956 H 0.37946 0.98942 0.0654 0.0
C3957 C 0.40905 0.984 0.09694 0.0
C3958 C 0.73731 0.66312 0.38388 0.0
C3959 C 0.72404 0.65526 0.39313 0.0
H3960 H 0.76425 0.66724 0.38247 0.0
C3961 C 0.72792 0.64015 0.40214 0.0
H3962 H 0.73481 0.67409 0.37579 0.0
C3963 C 0.74485 0.63688 0.40689 0.0
C3964 C 0.75783 0.64837 0.40193 0.0
H3965 H 0.7178 0.63298 0.40836 0.0
H3966 H 0.74714 0.62713 0.41644 0.0
C3967 C 0.7543 0.65939 0.38806 0.0
C3968 C 0.16459 0.23478 0.43096 0.0
C3969 C 0.17713 0.22431 0.42352 0.0
H3970 H 0.15724 0.26059 0.43658 0.0
C3971 C 0.18883 0.23135 0.41189 0.0
H3972 H 0.15544 0.22955 0.43997 0.0
C3973 C 0.18926 0.24901 0.40925 0.0
C3974 C 0.17854 0.25971 0.41889 0.0
H3975 H 0.1986 0.22342 0.40605 0.0
H3976 H 0.19946 0.25434 0.40151 0.0
C3977 C 0.16553 0.2525 0.42895 0.0
C3978 C 0.54569 0.2626 0.28537 0.0
C3979 C 0.55401 0.27136 0.29868 0.0
H3980 H 0.53614 0.23866 0.27636 0.0
C3981 C 0.56164 0.262 0.31202 0.0
H3982 H 0.53971 0.26945 0.27489 0.0
C3983 C 0.55956 0.24428 0.31285 0.0
C3984 C 0.54961 0.23585 0.30052 0.0
H3985 H 0.56814 0.26848 0.32243 0.0
H3986 H 0.56517 0.23729 0.32343 0.0
C3987 C 0.54319 0.24503 0.28648 0.0
C3988 C 0.20016 0.00261 0.78672 0.0
C3989 C 0.19156 0.01227 0.79916 0.0
H3990 H 0.20373 0.97828 0.77516 0.0
C3991 C 0.17915 0.00441 0.80949 0.0
H3992 H 0.20931 0.00846 0.77808 0.0
C3993 C 0.17602 0.98685 0.80791 0.0
C3994 C 0.18484 0.97721 0.79556 0.0
H3995 H 0.17199 0.01179 0.81879 0.0
H3996 H 0.16708 0.98075 0.8166 0.0
C3997 C 0.19656 0.98537 0.78468 0.0
C3998 C 0.49532 0.93015 0.06118 0.0
C3999 C 0.50476 0.94382 0.05444 0.0
H4000 H 0.47017 0.92012 0.0658 0.0
C4001 C 0.49653 0.95926 0.0505 0.0
H4002 H 0.50159 0.91825 0.06454 0.0
C4003 C 0.47884 0.96061 0.05181 0.0
C4004 C 0.46903 0.94631 0.05646 0.0
H4005 H 0.50373 0.97012 0.04572 0.0
H4006 H 0.47282 0.97238 0.04759 0.0
C4007 C 0.47743 0.93136 0.06211 0.0
C4008 C 0.50316 0.42017 0.55318 0.0
C4009 C 0.51264 0.43138 0.54277 0.0
H4010 H 0.47804 0.41288 0.562 0.0
C4011 C 0.50414 0.44456 0.53404 0.0
H4012 H 0.50955 0.41018 0.56036 0.0
C4013 C 0.48661 0.44672 0.5358 0.0
C4014 C 0.47697 0.43543 0.54588 0.0
H4015 H 0.51113 0.45374 0.52633 0.0
H4016 H 0.48055 0.45704 0.52877 0.0
C4017 C 0.4853 0.42193 0.55438 0.0
C4018 C 0.18129 0.74379 0.91934 0.0
C4019 C 0.18888 0.73331 0.9318 0.0
H4020 H 0.1755 0.76973 0.91205 0.0
C4021 C 0.19343 0.74038 0.94766 0.0
H4022 H 0.17724 0.73849 0.90718 0.0
C4023 C 0.19051 0.75741 0.95116 0.0
C4024 C 0.18489 0.76842 0.93818 0.0
H4025 H 0.19901 0.73262 0.95769 0.0
H4026 H 0.19447 0.76216 0.96358 0.0
C4027 C 0.17976 0.76146 0.92233 0.0
C4028 C 0.82429 0.73186 0.60086 0.0
C4029 C 0.83152 0.71877 0.59091 0.0
H4030 H 0.81985 0.75887 0.60287 0.0
C4031 C 0.84405 0.72289 0.57872 0.0
H4032 H 0.81452 0.72883 0.61023 0.0
C4033 C 0.84672 0.73994 0.57424 0.0
C4034 C 0.83732 0.75287 0.58233 0.0
H4035 H 0.84965 0.71296 0.57083 0.0
H4036 H 0.85455 0.74291 0.56318 0.0
C4037 C 0.82722 0.74894 0.59659 0.0
C4038 C 0.41272 0.74297 0.63791 0.0
C4039 C 0.40555 0.75072 0.65238 0.0
H4040 H 0.41988 0.71909 0.62655 0.0
C4041 C 0.39513 0.74108 0.66335 0.0
H4042 H 0.4207 0.75033 0.62928 0.0
C4043 C 0.39435 0.72338 0.66157 0.0
C4044 C 0.4044 0.71526 0.64915 0.0
H4045 H 0.38926 0.74701 0.6744 0.0
H4046 H 0.38839 0.71591 0.67163 0.0
C4047 C 0.41202 0.72517 0.63621 0.0
C4048 C 0.84925 0.98582 0.17216 0.0
C4049 C 0.83964 0.97548 0.16106 0.0
H4050 H 0.85636 0.0114 0.1787 0.0
C4051 C 0.83428 0.98205 0.14528 0.0
H4052 H 0.85371 0.9808 0.18429 0.0
C4053 C 0.8358 -0.00042 0.14208 0.0
C4054 C 0.84259 0.01047 0.15471 0.0
H4055 H 0.82696 0.97415 0.13653 0.0
H4056 H 0.82924 0.00496 0.13111 0.0
C4057 C 0.85103 0.00325 0.16882 0.0
C4058 C 0.51132 0.10226 0.90801 0.0
C4059 C 0.51803 0.08986 0.8969 0.0
H4060 H 0.49016 0.109 0.92378 0.0
C4061 C 0.50664 0.07985 0.88731 0.0
H4062 H 0.51992 0.11036 0.91531 0.0
C4063 C 0.4894 0.07914 0.89198 0.0
C4064 C 0.48371 0.08811 0.90654 0.0
H4065 H 0.51153 0.07048 0.87835 0.0
H4066 H 0.48129 0.06976 0.88577 0.0
C4067 C 0.49421 0.10123 0.91308 0.0
C4068 C 0.49362 0.56374 0.39278 0.0
C4069 C 0.48332 0.57511 0.40205 0.0
H4070 H 0.51921 0.55681 0.38604 0.0
C4071 C 0.49019 0.59076 0.40757 0.0
H4072 H 0.48841 0.55178 0.38807 0.0
C4073 C 0.50782 0.59368 0.40629 0.0
C4074 C 0.51852 0.58092 0.39952 0.0
H4075 H 0.48232 0.59975 0.4146 0.0
H4076 H 0.51332 0.6046 0.41284 0.0
C4077 C 0.51112 0.56678 0.39128 0.0
C4078 C 0.84699 0.25714 0.07721 0.0
C4079 C 0.83343 0.26543 0.08564 0.0
H4080 H 0.85852 0.23292 0.07203 0.0
C4081 C 0.8265 0.25785 0.10039 0.0
H4082 H 0.85306 0.26304 0.06623 0.0
C4083 C 0.83015 0.24073 0.10403 0.0
C4084 C 0.84012 0.2312 0.09253 0.0
H4085 H 0.81634 0.26409 0.10745 0.0
H4086 H 0.82234 0.23418 0.11344 0.0
C4087 C 0.85043 0.24 0.08078 0.0
C4088 C 0.56033 0.73336 0.81594 0.0
C4089 C 0.54903 0.72334 0.80614 0.0
H4090 H 0.56886 0.75886 0.82208 0.0
C4091 C 0.5381 0.7314 0.79436 0.0
H4092 H 0.56911 0.72739 0.82486 0.0
C4093 C 0.53873 0.749 0.79204 0.0
C4094 C 0.54985 0.7591 0.80188 0.0
H4095 H 0.5295 0.72406 0.78629 0.0
H4096 H 0.53006 0.75474 0.78285 0.0
C4097 C 0.56045 0.75123 0.8141 0.0
C4098 C 0.19472 0.49724 0.28392 0.0
C4099 C 0.18659 0.50717 0.29645 0.0
H4100 H 0.19953 0.47232 0.2741 0.0
C4101 C 0.17525 0.49933 0.30796 0.0
H4102 H 0.20304 0.50309 0.27448 0.0
C4103 C 0.17338 0.48148 0.30793 0.0
C4104 C 0.18246 0.47144 0.29606 0.0
H4105 H 0.16856 0.50688 0.31747 0.0
H4106 H 0.16566 0.47551 0.31779 0.0
C4107 C 0.19241 0.47961 0.2835 0.0
C4108 C 0.41478 0.25287 0.1407 0.0
C4109 C 0.40642 0.26216 0.15357 0.0
H4110 H 0.42031 0.22777 0.1312 0.0
C4111 C 0.39276 0.25447 0.16242 0.0
H4112 H 0.42528 0.25857 0.13365 0.0
C4113 C 0.38994 0.23692 0.16099 0.0
C4114 C 0.40073 0.22701 0.15069 0.0
H4115 H 0.38596 0.26155 0.17221 0.0
H4116 H 0.38136 0.23075 0.16997 0.0
C4117 C 0.41182 0.23528 0.13918 0.0
C4118 C 0.85173 0.50642 0.66092 0.0
C4119 C 0.83771 0.51309 0.65186 0.0
H4120 H 0.8628 0.4837 0.67147 0.0
C4121 C 0.82831 0.50213 0.64109 0.0
H4122 H 0.85928 0.51459 0.66922 0.0
C4123 C 0.83054 0.48443 0.64222 0.0
C4124 C 0.84203 0.47769 0.65425 0.0
H4125 H 0.81761 0.50708 0.63378 0.0
H4126 H 0.82133 0.47612 0.636 0.0
C4127 C 0.85383 0.48871 0.66215 0.0
C4128 C 0.12564 0.10391 0.48189 0.0
C4129 C 0.1246 0.09312 0.46748 0.0
H4130 H 0.13729 0.12635 0.4925 0.0
C4131 C 0.13818 0.09302 0.45569 0.0
H4132 H 0.11578 0.10368 0.49164 0.0
C4133 C 0.15075 0.10557 0.45656 0.0
C4134 C 0.14966 0.11846 0.469 0.0
H4135 H 0.13806 0.08475 0.44457 0.0
H4136 H 0.16 0.10649 0.44625 0.0
C4137 C 0.13807 0.11672 0.48256 0.0
C4138 C 0.86863 0.38053 0.72585 0.0
C4139 C 0.8539 0.38107 0.71557 0.0
H4140 H 0.89206 0.36743 0.73136 0.0
C4141 C 0.85069 0.36789 0.70381 0.0
H4142 H 0.87123 0.39055 0.73509 0.0
C4143 C 0.86253 0.35488 0.7016 0.0
C4144 C 0.87774 0.35483 0.71116 0.0
H4145 H 0.83955 0.36821 0.69553 0.0
H4146 H 0.86022 0.34542 0.69172 0.0
C4147 C 0.88051 0.36744 0.72366 0.0
C4148 C 0.61407 0.11961 0.96929 0.0
C4149 C 0.61308 0.10656 0.95702 0.0
H4150 H 0.62837 0.14118 0.97844 0.0
C4151 C 0.62611 0.10474 0.94479 0.0
H4152 H 0.60412 0.12114 0.97882 0.0
C4153 C 0.63982 0.11602 0.94458 0.0
C4154 C 0.6407 0.12925 0.95663 0.0
H4155 H 0.62545 0.09485 0.93507 0.0
H4156 H 0.64958 0.11461 0.93483 0.0
C4157 C 0.62793 0.13088 0.96916 0.0
C4158 C 0.8709 0.8535 0.22402 0.0
C4159 C 0.87263 0.84244 0.21001 0.0
H4160 H 0.85775 0.87518 0.23424 0.0
C4161 C 0.8606 0.84285 0.19665 0.0
H4162 H 0.88003 0.85337 0.23447 0.0
C4163 C 0.84789 0.8553 0.19655 0.0
C4164 C 0.84728 0.86736 0.20977 0.0
H4165 H 0.86158 0.83414 0.1859 0.0
H4166 H 0.83944 0.8563 0.18558 0.0
C4167 C 0.85825 0.86594 0.22389 0.0
C4168 C 0.10588 0.11767 0.77837 0.0
C4169 C 0.10557 0.12921 0.79208 0.0
H4170 H 0.12009 0.09847 0.76522 0.0
C4171 C 0.1194 0.13026 0.80345 0.0
H4172 H 0.0954 0.11701 0.76927 0.0
C4173 C 0.1335 0.11972 0.8011 0.0
C4174 C 0.1338 0.10821 0.78733 0.0
H4175 H 0.11926 0.13917 0.81408 0.0
H4176 H 0.14401 0.12036 0.81016 0.0
C4177 C 0.11996 0.10723 0.77598 0.0
C4178 C 0.85901 0.36297 0.01346 0.0
C4179 C 0.85276 0.35597 0.0288 0.0
H4180 H 0.87664 0.38027 0.00183 0.0
C4181 C 0.85915 0.36198 0.04449 0.0
H4182 H 0.85416 0.35881 0.00116 0.0
C4183 C 0.87129 0.37487 0.04489 0.0
C4184 C 0.87791 0.38157 0.02961 0.0
H4185 H 0.85497 0.35664 0.05657 0.0
H4186 H 0.87547 0.37954 0.05726 0.0
C4187 C 0.87167 0.37551 0.01386 0.0
C4188 C 0.62791 0.12571 0.2868 0.0
C4189 C 0.62917 0.11117 0.29715 0.0
H4190 H 0.61416 0.14856 0.2814 0.0
C4191 C 0.61751 0.10857 0.31061 0.0
H4192 H 0.63655 0.12775 0.27614 0.0
C4193 C 0.6046 0.12048 0.3136 0.0
C4194 C 0.60348 0.13504 0.30322 0.0
H4195 H 0.61842 0.09741 0.31879 0.0
H4196 H 0.59559 0.11841 0.32395 0.0
C4197 C 0.61515 0.13756 0.28981 0.0
C4198 C 0.871 0.86191 0.52015 0.0
C4199 C 0.85881 0.85914 0.53302 0.0
H4200 H 0.89137 0.87789 0.51117 0.0
C4201 C 0.85711 0.87091 0.54647 0.0
H4202 H 0.87235 0.85302 0.50959 0.0
C4203 C 0.86778 0.88509 0.54727 0.0
C4204 C 0.88027 0.88764 0.53466 0.0
H4205 H 0.84785 0.86892 0.55661 0.0
H4206 H 0.86647 0.89391 0.5579 0.0
C4207 C 0.88168 0.87615 0.52094 0.0
C4208 C 0.44596 0.13715 0.11518 0.0
C4209 C 0.46112 0.14633 0.11801 0.0
H4210 H 0.4345 0.11549 0.10299 0.0
C4211 C 0.47609 0.14223 0.10905 0.0
H4212 H 0.43441 0.14014 0.12227 0.0
C4213 C 0.47612 0.12818 0.09803 0.0
C4214 C 0.46123 0.11832 0.09621 0.0
H4215 H 0.48788 0.14918 0.11138 0.0
H4216 H 0.4879 0.12444 0.09173 0.0
C4217 C 0.44604 0.12312 0.10434 0.0
C4218 C 0.84955 0.68363 0.3671 0.0
C4219 C 0.84849 0.69587 0.38018 0.0
H4220 H 0.86413 0.67415 0.34596 0.0
C4221 C 0.86142 0.70821 0.38202 0.0
H4222 H 0.83966 0.67401 0.36552 0.0
C4223 C 0.87539 0.7082 0.37101 0.0
C4224 C 0.87646 0.69595 0.35795 0.0
H4225 H 0.86089 0.71763 0.3922 0.0
H4226 H 0.88528 0.71783 0.37259 0.0
C4227 C 0.86344 0.68373 0.35597 0.0
C4228 C 0.29731 0.11706 0.62498 0.0
C4229 C 0.28631 0.10288 0.62422 0.0
H4230 H 0.3034 0.14171 0.61499 0.0
C4231 C 0.27311 0.10238 0.61199 0.0
H4232 H 0.30784 0.11751 0.63402 0.0
C4233 C 0.27068 0.11621 0.60097 0.0
C4234 C 0.28134 0.13059 0.60231 0.0
H4235 H 0.26446 0.09155 0.61125 0.0
H4236 H 0.26036 0.11585 0.59169 0.0
C4237 C 0.29478 0.13085 0.61417 0.0
C4238 C 0.89842 0.53998 0.8607 0.0
C4239 C 0.89884 0.52574 0.87161 0.0
H4240 H 0.88385 0.55392 0.84263 0.0
C4241 C 0.88849 0.51154 0.86803 0.0
H4242 H 0.90684 0.55082 0.86288 0.0
C4243 C 0.87562 0.51297 0.85576 0.0
C4244 C 0.87272 0.52878 0.84756 0.0
H4245 H 0.88895 0.50019 0.87597 0.0
H4246 H 0.86692 0.50229 0.85405 0.0
C4247 C 0.8852 0.54169 0.84896 0.0
C4248 C 0.11538 0.4497 0.13221 0.0
C4249 C 0.12884 0.46157 0.13131 0.0
H4250 H 0.09381 0.4387 0.11966 0.0
C4251 C 0.13068 0.47202 0.11685 0.0
H4252 H 0.11398 0.44125 0.14313 0.0
C4253 C 0.11906 0.47056 0.10338 0.0
C4254 C 0.10562 0.45863 0.10434 0.0
H4255 H 0.141 0.48126 0.11602 0.0
H4256 H 0.12057 0.47869 0.09224 0.0
C4257 C 0.10384 0.44826 0.11885 0.0
C4258 C 0.61688 0.30251 0.10763 0.0
C4259 C 0.6304 0.29078 0.10669 0.0
H4260 H 0.59573 0.31167 0.12228 0.0
C4261 C 0.63314 0.27904 0.11995 0.0
H4262 H 0.61476 0.31176 0.09751 0.0
C4263 C 0.62216 0.27878 0.13393 0.0
C4264 C 0.60846 0.29039 0.13482 0.0
H4265 H 0.64347 0.2698 0.11925 0.0
H4266 H 0.62418 0.26932 0.14386 0.0
C4267 C 0.606 0.30237 0.12167 0.0
C4268 C 0.7068 0.86516 0.35671 0.0
C4269 C 0.71556 0.88076 0.35564 0.0
H4270 H 0.70386 0.84166 0.36981 0.0
C4271 C 0.72947 0.88409 0.36656 0.0
H4272 H 0.69579 0.86248 0.34868 0.0
C4273 C 0.73421 0.872 0.37881 0.0
C4274 C 0.72509 0.85655 0.38006 0.0
H4275 H 0.73645 0.89606 0.36576 0.0
H4276 H 0.74451 0.8749 0.38765 0.0
C4277 C 0.71157 0.85315 0.36871 0.0
C4278 C 0.12387 0.97238 0.59983 0.0
C4279 C 0.11063 0.96019 0.60009 0.0
H4280 H 0.14587 0.98232 0.61308 0.0
C4281 C 0.10969 0.94812 0.61331 0.0
H4282 H 0.12476 0.98168 0.58958 0.0
C4283 C 0.12152 0.9485 0.62642 0.0
C4284 C 0.13444 0.9609 0.62645 0.0
H4285 H 0.09987 0.9383 0.61345 0.0
H4286 H 0.12054 0.93913 0.63663 0.0
C4287 C 0.13584 0.97272 0.61307 0.0
C4288 C 0.52878 0.34669 0.38849 0.0
C4289 C 0.51621 0.34817 0.37572 0.0
H4290 H 0.54108 0.35888 0.40966 0.0
C4291 C 0.50354 0.36086 0.37719 0.0
H4292 H 0.53866 0.33698 0.38777 0.0
C4293 C 0.50509 0.37353 0.38964 0.0
C4294 C 0.51924 0.37344 0.40069 0.0
H4295 H 0.49347 0.36195 0.36771 0.0
H4296 H 0.49633 0.38428 0.3894 0.0
C4297 C 0.53027 0.35928 0.40095 0.0
C4298 C 0.12196 0.76121 0.10603 0.0
C4299 C 0.1233 0.77434 0.09391 0.0
H4300 H 0.11032 0.75316 0.12946 0.0
C4301 C 0.11202 0.78829 0.09441 0.0
H4302 H 0.13065 0.7504 0.1058 0.0
C4303 C 0.10052 0.7899 0.10786 0.0
C4304 C 0.10036 0.7776 0.1209 0.0
H4305 H 0.11292 0.79849 0.08504 0.0
H4306 H 0.09268 0.80132 0.10871 0.0
C4307 C 0.11055 0.76288 0.11956 0.0
C4308 C 0.03929 0.3699 0.85408 0.0
C4309 C 0.02341 0.36152 0.85306 0.0
H4310 H 0.0542 0.38886 0.86706 0.0
C4311 C 0.00948 0.3673 0.86275 0.0
H4312 H 0.05009 0.36573 0.84642 0.0
C4313 C 0.01187 0.38049 0.87448 0.0
C4314 C 0.02808 0.38801 0.87624 0.0
H4315 H -0.00287 0.36099 0.86198 0.0
H4316 H 0.00139 0.38425 0.88275 0.0
C4317 C 0.04162 0.38314 0.86565 0.0
C4318 C 0.12901 0.61336 0.27209 0.0
C4319 C 0.13622 0.60833 0.28784 0.0
H4320 H 0.11061 0.62886 0.25923 0.0
C4321 C 0.12897 0.61462 0.30304 0.0
H4322 H 0.13384 0.60852 0.26006 0.0
C4323 C 0.11477 0.62527 0.30257 0.0
C4324 C 0.10798 0.63087 0.28687 0.0
H4325 H 0.13423 0.61148 0.31546 0.0
H4326 H 0.10927 0.62917 0.31466 0.0
C4327 C 0.11527 0.62474 0.27161 0.0
C4328 C 0.3823 0.87587 0.05675 0.0
C4329 C 0.3778 0.88431 0.0415 0.0
H4330 H 0.37506 0.85709 0.07533 0.0
C4331 C 0.36158 0.88174 0.03427 0.0
H4332 H 0.39454 0.87815 0.0629 0.0
C4333 C 0.35029 0.87027 0.04177 0.0
C4334 C 0.35521 0.86116 0.05644 0.0
H4335 H 0.35783 0.88819 0.02258 0.0
H4336 H 0.33818 0.86767 0.03548 0.0
C4337 C 0.3711 0.86422 0.06411 0.0
C4338 C 0.11616 0.62022 0.95622 0.0
C4339 C 0.11267 0.60584 0.94612 0.0
H4340 H 0.12979 0.64382 0.95811 0.0
C4341 C 0.12104 0.60363 0.93034 0.0
H4342 H 0.10999 0.62202 0.96851 0.0
C4343 C 0.13234 0.61603 0.92444 0.0
C4344 C 0.13507 0.63076 0.93419 0.0
H4345 H 0.11832 0.59272 0.92222 0.0
H4346 H 0.13856 0.61437 0.91216 0.0
C4347 C 0.12727 0.63267 0.95023 0.0
C4348 C 0.38097 0.87024 0.68927 0.0
C4349 C 0.3848 0.85782 0.70153 0.0
H4350 H 0.36473 0.89123 0.68277 0.0
C4351 C 0.37689 0.85806 0.71763 0.0
H4352 H 0.38709 0.87012 0.67683 0.0
C4353 C 0.36426 0.87006 0.72108 0.0
C4354 C 0.35944 0.88165 0.70832 0.0
H4355 H 0.38 0.84851 0.72721 0.0
H4356 H 0.35758 0.86962 0.73323 0.0
C4357 C 0.36824 0.88213 0.69265 0.0
C4358 C 0.53663 0.86874 0.85676 0.0
C4359 C 0.52453 0.85564 0.85872 0.0
H4360 H 0.54881 0.89033 0.86797 0.0
C4361 C 0.51491 0.85439 0.87382 0.0
H4362 H 0.54455 0.86957 0.84539 0.0
C4363 C 0.51731 0.8664 0.88681 0.0
C4364 C 0.5294 0.87956 0.88471 0.0
H4365 H 0.50563 0.84421 0.87552 0.0
H4366 H 0.50971 0.86549 0.89837 0.0
C4367 C 0.53909 0.88056 0.86966 0.0
C4368 C 0.10684 0.30718 0.61963 0.0
C4369 C 0.1106 0.2944 0.63171 0.0
H4370 H 0.11474 0.31957 0.59648 0.0
C4371 C 0.12577 0.28499 0.63054 0.0
H4372 H 0.09525 0.31476 0.62057 0.0
C4373 C 0.13685 0.28791 0.61709 0.0
C4374 C 0.13281 0.30022 0.60468 0.0
H4375 H 0.12875 0.27496 0.63965 0.0
H4376 H 0.14822 0.28003 0.61599 0.0
C4377 C 0.1179 0.31001 0.60603 0.0
C4378 C 0.36886 0.72464 0.85579 0.0
C4379 C 0.37991 0.71045 0.85605 0.0
H4380 H 0.34857 0.73798 0.86868 0.0
C4381 C 0.37913 0.69875 0.86961 0.0
H4382 H 0.36928 0.73374 0.84533 0.0
C4383 C 0.36766 0.70134 0.88292 0.0
C4384 C 0.35672 0.71556 0.88279 0.0
H4385 H 0.38762 0.68779 0.87008 0.0
H4386 H 0.36721 0.69209 0.89327 0.0
C4387 C 0.35714 0.72709 0.86905 0.0
C4388 C 0.8515 0.00844 0.3754 0.0
C4389 C 0.84297 0.02336 0.37028 0.0
H4390 H 0.87099 -0.00218 0.39128 0.0
C4391 C 0.84514 0.03846 0.37973 0.0
H4392 H 0.84971 -0.00351 0.36859 0.0
C4393 C 0.85797 0.03954 0.39193 0.0
C4394 C 0.86837 0.02527 0.3954 0.0
H4395 H 0.83811 0.04997 0.37646 0.0
H4396 H 0.8606 0.05203 0.39729 0.0
C4397 C 0.86396 0.00934 0.38815 0.0
C4398 C 0.47868 0.62193 0.61753 0.0
C4399 C 0.46844 0.6231 0.63224 0.0
H4400 H 0.48254 0.60933 0.59346 0.0
C4401 C 0.45432 0.61215 0.63424 0.0
H4402 H 0.48957 0.63035 0.61574 0.0
C4403 C 0.45028 0.60042 0.62161 0.0
C4404 C 0.46028 0.59948 0.60678 0.0
H4405 H 0.44589 0.61316 0.64521 0.0
H4406 H 0.43913 0.59231 0.62325 0.0
C4407 C 0.47457 0.61016 0.60479 0.0
C4408 C 0.85427 0.22097 0.877 0.0
C4409 C 0.84947 0.20393 0.87989 0.0
H4410 H 0.86856 0.23814 0.86112 0.0
C4411 C 0.85525 0.19084 0.86927 0.0
H4412 H 0.84969 0.23114 0.88525 0.0
C4413 C 0.866 0.19473 0.85577 0.0
C4414 C 0.87078 0.21181 0.8526 0.0
H4415 H 0.85167 0.17763 0.87161 0.0
H4416 H 0.87091 0.18428 0.84809 0.0
C4417 C 0.86489 0.22494 0.8633 0.0
C4418 C 0.9537 0.60447 0.11768 0.0
C4419 C 0.96923 0.59578 0.11554 0.0
H4420 H 0.94055 0.62451 0.13074 0.0
C4421 C 0.98328 0.59938 0.12609 0.0
H4422 H 0.94276 0.60167 0.10958 0.0
C4423 C 0.98199 0.61243 0.13823 0.0
C4424 C 0.96665 0.62165 0.13965 0.0
H4425 H -0.0047 0.59264 0.12445 0.0
H4426 H 0.99301 0.61576 0.14599 0.0
C4427 C 0.95242 0.61739 0.12967 0.0
C4428 C 0.63215 0.6248 0.44252 0.0
C4429 C 0.63511 0.63766 0.45465 0.0
H4430 H 0.61729 0.60298 0.43567 0.0
C4431 C 0.62479 0.63865 0.46938 0.0
H4432 H 0.64003 0.62373 0.43115 0.0
C4433 C 0.61175 0.6267 0.47198 0.0
C4434 C 0.60921 0.61364 0.45998 0.0
H4435 H 0.62682 0.64864 0.47879 0.0
H4436 H 0.60393 0.62742 0.48342 0.0
C4437 C 0.61929 0.6129 0.44516 0.0
C4438 C 0.64902 0.62986 0.7799 0.0
C4439 C 0.6477 0.61861 0.766 0.0
H4440 H 0.63679 0.64954 0.79417 0.0
C4441 C 0.63583 0.62177 0.75299 0.0
H4442 H 0.65821 0.6275 0.79004 0.0
C4443 C 0.62363 0.6346 0.75518 0.0
C4444 C 0.62309 0.64395 0.77058 0.0
H4445 H 0.63477 0.61317 0.74216 0.0
H4446 H 0.6136 0.63596 0.74569 0.0
C4447 C 0.63671 0.64248 0.78225 0.0
C4448 C 0.26793 0.63089 0.14688 0.0
C4449 C 0.28421 0.62356 0.14923 0.0
H4450 H 0.25215 0.6458 0.1301 0.0
C4451 C 0.29823 0.62981 0.13993 0.0
H4452 H 0.25704 0.62646 0.15427 0.0
C4453 C 0.29541 0.64072 0.12623 0.0
C4454 C 0.27865 0.64549 0.12199 0.0
H4455 H 0.31094 0.6245 0.14164 0.0
H4456 H 0.30603 0.64395 0.11789 0.0
C4457 C 0.26511 0.64182 0.13311 0.0
C4458 C 0.63653 0.77831 0.61673 0.0
C4459 C 0.63463 0.7919 0.60516 0.0
H4460 H 0.62607 0.76519 0.63833 0.0
C4461 C 0.62075 0.80313 0.6066 0.0
H4462 H 0.64707 0.76937 0.61555 0.0
C4463 C 0.60884 0.80079 0.61958 0.0
C4464 C 0.61063 0.78711 0.63112 0.0
H4465 H 0.6192 0.81372 0.59777 0.0
H4466 H 0.59838 0.80982 0.62073 0.0
C4467 C 0.62455 0.7759 0.62964 0.0
C4468 C 0.71364 0.36401 0.83836 0.0
C4469 C 0.72653 0.37616 0.84149 0.0
H4470 H 0.70011 0.34234 0.84824 0.0
C4471 C 0.73857 0.37334 0.85443 0.0
H4472 H 0.70417 0.36618 0.82843 0.0
C4473 C 0.73623 0.35978 0.86577 0.0
C4474 C 0.7218 0.34914 0.86417 0.0
H4475 H 0.7485 0.3827 0.857 0.0
H4476 H 0.74458 0.35874 0.8768 0.0
C4477 C 0.7113 0.35045 0.84968 0.0
C4478 C 0.01077 0.86757 0.36075 0.0
C4479 C 0.0229 0.85436 0.36146 0.0
H4480 H 0.00069 0.88981 0.37309 0.0
C4481 C 0.03303 0.8522 0.3761 0.0
H4482 H 0.00271 0.86923 0.34958 0.0
C4483 C 0.03199 0.86393 0.38938 0.0
C4484 C 0.02073 0.87789 0.38818 0.0
H4485 H 0.04256 0.84215 0.37679 0.0
H4486 H 0.04083 0.86271 0.40001 0.0
C4487 C 0.00965 0.87927 0.3741 0.0
C4488 C 0.34389 0.38285 0.5332 0.0
C4489 C 0.34211 0.37061 0.52023 0.0
H4490 H 0.35962 0.40278 0.54338 0.0
C4491 C 0.35237 0.37153 0.50552 0.0
H4492 H 0.33602 0.38233 0.5446 0.0
C4493 C 0.36596 0.38301 0.50491 0.0
C4494 C 0.36926 0.39356 0.51902 0.0
H4495 H 0.35093 0.36223 0.49533 0.0
H4496 H 0.37479 0.38241 0.49423 0.0
C4497 C 0.35748 0.39432 0.53259 0.0
C4498 C 0.36356 0.37523 0.22867 0.0
C4499 C 0.35572 0.38189 0.21393 0.0
H4500 H 0.38236 0.35824 0.2388 0.0
C4501 C 0.3611 0.37613 0.19776 0.0
H4502 H 0.35971 0.37934 0.24132 0.0
C4503 C 0.37341 0.36346 0.19634 0.0
C4504 C 0.3812 0.35667 0.21102 0.0
H4505 H 0.35577 0.38135 0.18608 0.0
H4506 H 0.37658 0.35885 0.18366 0.0
C4507 C 0.37635 0.36288 0.22721 0.0
C4508 C 0.40114 0.20193 0.37851 0.0
C4509 C 0.39982 0.21366 0.36497 0.0
H4510 H 0.38839 0.19038 0.39975 0.0
C4511 C 0.3866 0.22576 0.36486 0.0
H4512 H 0.41141 0.1926 0.3788 0.0
C4513 C 0.37344 0.22447 0.37676 0.0
C4514 C 0.37352 0.21113 0.3888 0.0
H4515 H 0.38544 0.23494 0.35452 0.0
H4516 H 0.36256 0.23302 0.37571 0.0
C4517 C 0.38798 0.20063 0.3904 0.0
C4518 C 0.95976 0.12866 0.60049 0.0
C4519 C 0.95217 0.11246 0.60132 0.0
H4520 H 0.96143 0.15339 0.61197 0.0
C4521 C 0.93842 0.1094 0.61245 0.0
H4522 H 0.97018 0.13122 0.59169 0.0
C4523 C 0.93321 0.12203 0.62374 0.0
C4524 C 0.94177 0.13778 0.62399 0.0
H4525 H 0.93205 0.09706 0.61274 0.0
H4526 H 0.92312 0.11922 0.63284 0.0
C4527 C 0.9546 0.14131 0.61187 0.0
C4528 C 0.79491 0.1188 0.12829 0.0
C4529 C 0.78429 0.10452 0.12605 0.0
H4530 H 0.80118 0.14396 0.1199 0.0
C4531 C 0.7721 0.10419 0.11286 0.0
H4532 H 0.80464 0.11904 0.1382 0.0
C4533 C 0.77014 0.11848 0.10237 0.0
C4534 C 0.78027 0.13302 0.10525 0.0
H4535 H 0.76385 0.09317 0.11103 0.0
H4536 H 0.76062 0.11831 0.09227 0.0
C4537 C 0.79285 0.133 0.118 0.0
C4538 C 0.34984 0.56194 0.36875 0.0
C4539 C 0.34945 0.55231 0.35368 0.0
H4540 H 0.36403 0.56787 0.39143 0.0
C4541 C 0.36365 0.54265 0.34866 0.0
H4542 H 0.33887 0.56951 0.3726 0.0
C4543 C 0.37776 0.54151 0.35932 0.0
C4544 C 0.37783 0.55009 0.37509 0.0
H4545 H 0.3634 0.53525 0.33692 0.0
H4546 H 0.38809 0.53302 0.35566 0.0
C4547 C 0.36407 0.56086 0.37947 0.0
C4548 C 0.6177 0.46372 0.61076 0.0
C4549 C 0.60432 0.45176 0.60958 0.0
H4550 H 0.64029 0.47133 0.62423 0.0
C4551 C 0.60302 0.43851 0.62163 0.0
H4552 H 0.61882 0.47412 0.60164 0.0
C4553 C 0.61519 0.43698 0.63448 0.0
C4554 C 0.62881 0.44861 0.6353 0.0
H4555 H 0.59299 0.42895 0.62074 0.0
H4556 H 0.61424 0.42646 0.64348 0.0
C4557 C 0.62994 0.4621 0.62353 0.0
C4558 C 0.19932 0.85832 0.87764 0.0
C4559 C 0.21493 0.86096 0.88618 0.0
H4560 H 0.18151 0.86794 0.85928 0.0
C4561 C 0.22422 0.87607 0.88362 0.0
H4562 H 0.19163 0.847 0.88 0.0
C4563 C 0.21829 0.88812 0.87194 0.0
C4564 C 0.20302 0.88509 0.86293 0.0
H4565 H 0.23612 0.87837 0.8904 0.0
H4566 H 0.22592 0.89946 0.86947 0.0
C4567 C 0.19341 0.87032 0.86605 0.0
C4568 C 0.63528 0.94144 0.11126 0.0
C4569 C 0.63466 0.95436 0.12371 0.0
H4570 H 0.62385 0.93108 0.08861 0.0
C4571 C 0.6228 0.96774 0.12213 0.0
H4572 H 0.64434 0.93099 0.1123 0.0
C4573 C 0.61112 0.96776 0.10872 0.0
C4574 C 0.61114 0.95438 0.09674 0.0
H4575 H 0.62229 0.97793 0.13153 0.0
H4576 H 0.6016 0.97783 0.10816 0.0
C4577 C 0.62354 0.94142 0.09785 0.0
C4578 C 0.37354 0.05497 0.85896 0.0
C4579 C 0.36103 0.04213 0.86034 0.0
H4580 H 0.39701 0.06507 0.86893 0.0
C4581 C 0.36183 0.03016 0.87366 0.0
H4582 H 0.37295 0.0644 0.8488 0.0
C4583 C 0.37552 0.0305 0.88501 0.0
C4584 C 0.38841 0.04289 0.8832 0.0
H4585 H 0.35228 0.02016 0.87486 0.0
H4586 H 0.37622 0.0209 0.89501 0.0
C4587 C 0.38716 0.0554 0.87042 0.0
C4588 C 0.78386 0.62529 0.63952 0.0
C4589 C 0.77292 0.61118 0.64116 0.0
H4590 H 0.7904 0.64716 0.62445 0.0
C4591 C 0.75825 0.60984 0.63083 0.0
H4592 H 0.79526 0.62645 0.64737 0.0
C4593 C 0.75541 0.62171 0.61783 0.0
C4594 C 0.76732 0.63481 0.61518 0.0
H4595 H 0.74962 0.59905 0.63213 0.0
H4596 H 0.74477 0.61991 0.60911 0.0
C4597 C 0.7811 0.63705 0.62649 0.0
C4598 C 0.20906 0.37374 0.39824 0.0
C4599 C 0.22394 0.36405 0.39538 0.0
H4600 H 0.1921 0.3927 0.38801 0.0
C4601 C 0.23544 0.36884 0.38256 0.0
H4602 H 0.19996 0.36994 0.40801 0.0
C4603 C 0.23098 0.38182 0.37121 0.0
C4604 C 0.21492 0.38981 0.37256 0.0
H4605 H 0.24687 0.36135 0.38017 0.0
H4606 H 0.23924 0.38438 0.36036 0.0
C4607 C 0.20452 0.38664 0.3868 0.0
C4608 C 0.08303 0.98684 0.5094 0.0
C4609 C 0.07381 0.9738 0.50103 0.0
H4610 H 0.08952 0.0135 0.50977 0.0
C4611 C 0.06766 0.97681 0.48441 0.0
H4612 H 0.08846 0.98478 0.52199 0.0
C4613 C 0.06853 0.99318 0.47735 0.0
C4614 C 0.07549 0.00681 0.48682 0.0
H4615 H 0.06088 0.96692 0.47743 0.0
H4616 H 0.06236 -0.00457 0.46517 0.0
C4617 C 0.08362 0.0033 0.50246 0.0
C4618 C 0.96991 0.33639 0.76149 0.0
C4619 C 0.97238 0.32882 0.74536 0.0
H4620 H 0.98177 0.34518 0.78466 0.0
C4621 C 0.98913 0.3274 0.73891 0.0
H4622 H 0.95713 0.33787 0.76666 0.0
C4623 C 0.00317 0.33164 0.74918 0.0
C4624 C 0.00067 0.33775 0.76586 0.0
H4625 H 0.99147 0.3216 0.72656 0.0
H4626 H 0.01596 0.32867 0.74466 0.0
C4627 C 0.98397 0.3409 0.77165 0.0
C4628 C 0.65158 0.23503 0.98864 0.0
C4629 C 0.65661 0.22117 -0.00101 0.0
H4630 H 0.64425 0.26145 0.98816 0.0
C4631 C 0.65336 0.22179 0.01662 0.0
H4632 H 0.65391 0.23485 0.97499 0.0
C4633 C 0.64751 0.2369 0.02409 0.0
C4634 C 0.64518 0.25161 0.01404 0.0
H4635 H 0.65688 0.21114 0.02477 0.0
H4636 H 0.64652 0.23759 0.03789 0.0
C4637 C 0.64593 0.25025 -0.00384 0.0
C4638 C 0.73508 0.90447 0.26876 0.0
C4639 C 0.7219 0.91258 0.25955 0.0
H4640 H 0.76169 0.898 0.26952 0.0
C4641 C 0.72459 0.91656 0.24225 0.0
H4642 H 0.73321 0.90056 0.28192 0.0
C4643 C 0.74085 0.91485 0.23509 0.0
C4644 C 0.75476 0.90935 0.24515 0.0
H4645 H 0.71454 0.92234 0.23461 0.0
H4646 H 0.74268 0.91929 0.22215 0.0
C4647 C 0.75144 0.90303 0.26167 0.0
C4648 C 0.08328 0.23629 0.75014 0.0
C4649 C 0.07982 0.2213 0.74072 0.0
H4650 H 0.08735 0.26348 0.74929 0.0
C4651 C 0.08038 0.22202 0.72277 0.0
H4652 H 0.0833 0.23607 0.764 0.0
C4653 C 0.08274 0.23761 0.71444 0.0
C4654 C 0.08477 0.25279 0.72384 0.0
H4655 H 0.07779 0.21078 0.71511 0.0
H4656 H 0.08203 0.23794 0.7006 0.0
C4657 C 0.08584 0.25193 0.74175 0.0
C4658 C 0.74858 0.32527 0.9925 0.0
C4659 C 0.76331 0.32363 0.9823 0.0
H4660 H 0.7213 0.32733 0.99287 0.0
C4661 C 0.76221 0.32719 0.96475 0.0
H4662 H 0.74907 0.32267 0.00611 0.0
C4663 C 0.74629 0.33029 0.95717 0.0
C4664 C 0.73124 0.32915 0.96699 0.0
H4665 H 0.77349 0.32628 0.95673 0.0
H4666 H 0.7457 0.33185 0.94345 0.0
C4667 C 0.73265 0.32792 0.98489 0.0
C4668 C 0.65246 -0.00116 0.24811 0.0
C4669 C 0.65417 0.01424 0.23885 0.0
H4670 H 0.65088 0.97144 0.24695 0.0
C4671 C 0.65249 0.01371 0.22092 0.0
H4672 H 0.65312 -0.00125 0.26194 0.0
C4673 C 0.65087 -0.00191 0.21241 0.0
C4674 C 0.65098 0.98266 0.22159 0.0
H4675 H 0.65352 0.0252 0.21328 0.0
H4676 H 0.65042 -0.00198 0.19856 0.0
C4677 C 0.65088 0.98318 0.23955 0.0
C4678 C 0.99091 0.91345 0.50614 0.0
C4679 C 0.97581 0.91432 0.49636 0.0
H4680 H 0.01845 0.91337 0.50549 0.0
C4681 C 0.97655 0.9102 0.47891 0.0
H4682 H 0.99052 0.91582 0.51974 0.0
C4683 C 0.99234 0.90795 0.47091 0.0
C4684 C 0.00761 0.91044 0.48011 0.0
H4685 H 0.96501 0.91028 0.4712 0.0
H4686 H 0.99262 0.90591 0.4572 0.0
C4687 C 0.00685 0.91184 0.49801 0.0
C4688 C 0.48663 0.06189 0.99128 0.0
C4689 C 0.49534 0.06874 0.00547 0.0
H4690 H 0.48734 0.05641 0.96451 0.0
C4691 C 0.51045 0.07816 0.00264 0.0
H4692 H 0.4749 0.05471 0.99293 0.0
C4693 C 0.51762 0.0792 0.98627 0.0
C4694 C 0.50993 0.07063 0.97245 0.0
H4695 H 0.51715 0.08411 0.01322 0.0
H4696 H 0.52973 0.08577 0.98471 0.0
C4697 C 0.49383 0.06286 0.97494 0.0
C4698 C 0.91228 0.73724 0.2486 0.0
C4699 C 0.90702 0.74477 0.26411 0.0
H4700 H 0.91565 0.74054 0.22162 0.0
C4701 C 0.89784 0.76024 0.26357 0.0
H4702 H 0.91943 0.7254 0.24845 0.0
C4703 C 0.89536 0.76875 0.248 0.0
C4704 C 0.90218 0.76193 0.23286 0.0
H4705 H 0.89342 0.76621 0.27526 0.0
H4706 H 0.88957 0.78135 0.24803 0.0
C4707 C 0.91003 0.74584 0.23315 0.0
C4708 C 0.22674 0.15691 0.50899 0.0
C4709 C 0.24036 0.16866 0.50911 0.0
H4710 H 0.20746 0.14446 0.49392 0.0
C4711 C 0.24667 0.17503 0.49352 0.0
H4712 H 0.22186 0.1517 0.52087 0.0
C4713 C 0.23843 0.171 0.47821 0.0
C4714 C 0.22406 0.16021 0.47826 0.0
H4715 H 0.25714 0.18413 0.4933 0.0
H4716 H 0.24251 0.17724 0.46651 0.0
C4717 C 0.21874 0.15255 0.4936 0.0
C4718 C 0.8303 0.50791 0.75279 0.0
C4719 C 0.83361 0.4972 0.76689 0.0
H4720 H 0.82376 0.50905 0.72622 0.0
C4721 C 0.8382 0.4801 0.76387 0.0
H4722 H 0.82736 0.5213 0.75454 0.0
C4723 C 0.83655 0.47315 0.74751 0.0
C4724 C 0.82991 0.48318 0.73412 0.0
H4725 H 0.84141 0.47172 0.77444 0.0
H4726 H 0.83872 0.45956 0.74586 0.0
C4727 C 0.82822 0.50089 0.73652 0.0
C4728 C 0.52183 0.17851 0.24575 0.0
C4729 C 0.5161 0.16557 0.25688 0.0
H4730 H 0.51762 0.1924 0.22256 0.0
C4731 C 0.50103 0.15656 0.25273 0.0
H4732 H 0.5332 0.18589 0.24861 0.0
C4733 C 0.49182 0.16064 0.23782 0.0
C4734 C 0.49778 0.1735 0.22671 0.0
H4735 H 0.49616 0.14668 0.26115 0.0
H4736 H 0.48021 0.15365 0.23485 0.0
C4737 C 0.51288 0.1823 0.23081 0.0
C4738 C 0.83847 0.7702 0.48478 0.0
C4739 C 0.84022 0.76154 0.50042 0.0
H4740 H 0.83063 0.76849 0.45858 0.0
C4741 C 0.83955 0.74356 0.50056 0.0
H4742 H 0.83948 0.78402 0.48425 0.0
C4743 C 0.83474 0.73463 0.48575 0.0
C4744 C 0.8304 0.74364 0.47078 0.0
H4745 H 0.84091 0.73655 0.51245 0.0
H4746 H 0.83266 0.72096 0.48658 0.0
C4747 C 0.83354 0.76133 0.47009 0.0
C4748 C 0.24689 0.0592 0.73529 0.0
C4749 C 0.24683 0.07039 0.72128 0.0
H4750 H 0.23753 0.05414 0.76051 0.0
C4751 C 0.23841 0.08621 0.72261 0.0
H4752 H 0.25332 0.04694 0.73446 0.0
C4753 C 0.2298 0.09062 0.73772 0.0
C4754 C 0.22912 0.079 0.75142 0.0
H4755 H 0.23842 0.09504 0.71193 0.0
H4756 H 0.22297 0.10267 0.73836 0.0
C4757 C 0.23792 0.06335 0.75014 0.0
C4758 C 0.89431 0.47648 0.9796 0.0
C4759 C 0.90174 0.49278 0.98102 0.0
H4760 H 0.88786 0.45324 0.99267 0.0
C4761 C 0.90453 0.49975 -0.00266 0.0
H4762 H 0.89246 0.47078 0.9671 0.0
C4763 C 0.90214 0.48971 0.01193 0.0
C4764 C 0.89669 0.47269 0.0103 0.0
H4765 H 0.91088 0.51199 -0.00133 0.0
H4766 H 0.90646 0.49456 0.0242 0.0
C4767 C 0.8917 0.46649 -0.00579 0.0
C4768 C 0.99111 0.51333 0.07815 0.0
C4769 C 0.97594 0.50548 0.07253 0.0
H4770 H 0.01842 0.51217 0.07933 0.0
C4771 C 0.97662 0.489 0.06549 0.0
H4772 H 0.99081 0.52601 0.08378 0.0
C4773 C 0.9925 0.48115 0.06272 0.0
C4774 C 0.00785 0.48967 0.06698 0.0
H4775 H 0.96506 0.48281 0.06089 0.0
H4776 H 0.99279 0.46896 0.05622 0.0
C4777 C 0.00691 0.50549 0.07545 0.0
C4778 C 0.50281 0.23697 0.16487 0.0
C4779 C 0.5071 0.25002 0.17645 0.0
H4780 H 0.48398 0.21872 0.15686 0.0
C4781 C 0.49449 0.256 0.18783 0.0
H4782 H 0.51216 0.23232 0.15576 0.0
C4783 C 0.47838 0.24831 0.18848 0.0
C4784 C 0.47451 0.23441 0.17779 0.0
H4785 H 0.49737 0.26589 0.19706 0.0
H4786 H 0.46936 0.2526 0.1981 0.0
C4787 C 0.48661 0.22931 0.16543 0.0
C4788 C 0.76106 0.75813 0.41005 0.0
C4789 C 0.74702 0.75897 0.42121 0.0
H4790 H 0.7792 0.742 0.39735 0.0
C4791 C 0.73894 0.74375 0.42639 0.0
H4792 H 0.7673 0.76974 0.40575 0.0
C4793 C 0.74584 0.72789 0.42179 0.0
C4794 C 0.76056 0.72708 0.41149 0.0
H4795 H 0.72804 0.74416 0.43496 0.0
H4796 H 0.74036 0.71632 0.42715 0.0
C4797 C 0.76763 0.74229 0.40501 0.0
C4798 C 0.24918 0.01455 0.65974 0.0
C4799 C 0.26356 0.00507 0.665 0.0
H4800 H 0.2218 0.01585 0.65859 0.0
C4801 C 0.26117 0.98814 0.67067 0.0
H4802 H 0.25056 0.02752 0.65506 0.0
C4803 C 0.24468 0.9815 0.67273 0.0
C4804 C 0.23023 0.99164 0.66917 0.0
H4805 H 0.27197 0.9804 0.67465 0.0
H4806 H 0.24331 0.96887 0.67825 0.0
C4807 C 0.23267 0.00792 0.66191 0.0
C4808 C 0.48563 0.50012 0.39514 0.0
C4809 C 0.46806 0.49914 0.39904 0.0
H4810 H 0.51042 0.48888 0.39904 0.0
C4811 C 0.46149 0.48379 0.40575 0.0
H4812 H 0.49107 0.51177 0.38992 0.0
C4813 C 0.47256 0.47078 0.41089 0.0
C4814 C 0.49033 0.47286 0.40935 0.0
H4815 H 0.44799 0.4825 0.4086 0.0
H4816 H 0.46742 0.45991 0.41781 0.0
C4817 C 0.49674 0.487 0.40029 0.0
C4818 C 0.2612 0.73222 0.05594 0.0
C4819 C 0.266 0.72447 0.07139 0.0
H4820 H 0.24074 0.74308 0.04139 0.0
C4821 C 0.25476 0.72507 0.08544 0.0
H4822 H 0.26958 0.7317 0.04489 0.0
C4823 C 0.23818 0.73171 0.08339 0.0
C4824 C 0.23289 0.73766 0.06731 0.0
H4825 H 0.25808 0.71881 0.09737 0.0
H4826 H 0.22914 0.73101 0.09388 0.0
C4827 C 0.2447 0.73855 0.05387 0.0
C4828 C 0.75744 0.9759 0.33426 0.0
C4829 C 0.74374 0.97644 0.32261 0.0
H4830 H 0.77815 0.98972 0.34592 0.0
C4831 C 0.73909 0.99218 0.31526 0.0
H4832 H 0.76114 0.9639 0.34015 0.0
C4833 C 0.74889 0.00682 0.31838 0.0
C4834 C 0.76315 0.00607 0.32931 0.0
H4835 H 0.72865 0.99287 0.30617 0.0
H4836 H 0.74594 0.0185 0.31149 0.0
C4837 C 0.76696 0.99068 0.33776 0.0
C4838 C 0.96636 0.26492 0.83722 0.0
C4839 C 0.98267 0.2633 0.82992 0.0
H4840 H 0.94431 0.25172 0.8467 0.0
C4841 C 0.99093 0.24735 0.83015 0.0
H4842 H 0.9599 0.27718 0.8372 0.0
C4843 C 0.98199 0.23278 0.83543 0.0
C4844 C 0.9649 0.23417 0.84084 0.0
H4845 H 0.00349 0.24587 0.82445 0.0
H4846 H 0.98769 0.2203 0.83338 0.0
C4847 C 0.95758 0.25042 0.84286 0.0
C4848 C 0.89686 0.96896 0.49608 0.0
C4849 C 0.90285 0.97645 0.51126 0.0
H4850 H 0.89663 0.97021 0.46866 0.0
C4851 C 0.91052 0.9927 0.51068 0.0
H4852 H 0.89125 0.95626 0.49623 0.0
C4853 C 0.91334 0.00077 0.49497 0.0
C4854 C 0.90907 0.99241 0.47963 0.0
H4855 H 0.91549 -0.00146 0.52225 0.0
H4856 H 0.92027 0.01276 0.49476 0.0
C4857 C 0.90012 0.97681 0.48034 0.0
C4858 C 0.02057 0.64807 0.24417 0.0
C4859 C 0.01512 0.65515 0.25974 0.0
H4860 H 0.017 0.64742 0.21694 0.0
C4861 C -0.0001 0.66474 0.26018 0.0
H4862 H 0.03248 0.64098 0.24348 0.0
C4863 C 0.99101 0.6683 0.24506 0.0
C4864 C -0.00252 0.66273 0.22925 0.0
H4865 H -0.00434 0.67059 0.27201 0.0
H4866 H 0.97992 0.6766 0.24559 0.0
C4867 C 0.01192 0.652 0.22899 0.0
C4868 C 0.33904 0.75257 0.01302 0.0
C4869 C 0.33842 0.77057 0.01288 0.0
H4870 H 0.3331 0.72938 -0.00044 0.0
C4871 C 0.33418 0.77901 -0.00236 0.0
H4872 H 0.34209 0.74573 0.02469 0.0
C4873 C 0.32931 0.76969 0.98321 0.0
C4874 C 0.32805 0.75169 0.98383 0.0
H4875 H 0.33367 0.79287 -0.00282 0.0
H4876 H 0.32567 0.77671 0.97185 0.0
C4877 C 0.33379 0.74318 -0.00137 0.0
C4878 C 0.21672 0.6711 0.00383 0.0
C4879 C 0.23291 0.66375 0.00661 0.0
H4880 H 0.19598 0.67511 0.98665 0.0
C4881 C 0.24006 0.65343 0.99367 0.0
H4882 H 0.21086 0.67931 0.0133 0.0
C4883 C 0.23134 0.65097 0.97812 0.0
C4884 C 0.21543 0.65893 0.97524 0.0
H4885 H 0.25243 0.64745 -0.00453 0.0
H4886 H 0.23738 0.64349 0.96813 0.0
C4887 C 0.20814 0.66872 0.98841 0.0
C4888 C 0.34531 0.9618 0.7503 0.0
C4889 C 0.33778 0.96678 0.73481 0.0
H4890 H 0.34903 0.96788 0.77675 0.0
C4891 C 0.33068 0.98315 0.73326 0.0
H4892 H 0.35064 0.94907 0.75175 0.0
C4893 C 0.32959 0.99383 0.74748 0.0
C4894 C 0.33532 0.98816 0.7636 0.0
H4895 H 0.32465 0.98711 0.72139 0.0
H4896 H 0.32285 0.00581 0.74606 0.0
C4897 C 0.3441 0.97245 0.76464 0.0
C4898 C 0.02509 0.08162 0.49265 0.0
C4899 C 0.01661 0.07796 0.47721 0.0
H4900 H 0.02432 0.08038 0.51998 0.0
C4901 C -0.00059 0.07261 0.47775 0.0
H4902 H 0.0382 0.08616 0.49266 0.0
C4903 C 0.99151 0.06917 0.49339 0.0
C4904 C 0.00061 0.07112 0.50881 0.0
H4905 H 0.99243 0.06979 0.46609 0.0
H4906 H 0.9787 0.06388 0.49328 0.0
C4907 C 0.01718 0.07817 0.50831 0.0
C4908 C 0.48584 0.91205 0.98052 0.0
C4909 C 0.48195 0.92159 -0.00474 0.0
H4910 H 0.50496 0.90505 0.96217 0.0
C4911 C 0.49539 0.9295 0.00427 0.0
H4912 H 0.47583 0.90538 0.97361 0.0
C4913 C 0.51198 0.92952 -0.00237 0.0
C4914 C 0.5155 0.92159 0.98187 0.0
H4915 H 0.49292 0.93685 0.01575 0.0
H4916 H 0.52174 0.93686 0.0042 0.0
C4917 C 0.50254 0.91184 0.97401 0.0
C4918 C 0.74971 0.82284 0.50612 0.0
C4919 C 0.76401 0.82744 0.49618 0.0
H4920 H 0.72264 0.81857 0.50643 0.0
C4921 C 0.76141 0.83601 0.48065 0.0
H4922 H 0.75132 0.81662 0.51835 0.0
C4923 C 0.74495 0.83753 0.47397 0.0
C4924 C 0.73096 0.83004 0.48254 0.0
H4925 H 0.77222 0.84021 0.47304 0.0
H4926 H 0.7435 0.84284 0.46123 0.0
C4927 C 0.73323 0.82404 0.49931 0.0
C4928 C 0.15085 0.49959 0.22062 0.0
C4929 C 0.15555 0.48554 0.23086 0.0
H4930 H 0.15202 0.52694 0.21823 0.0
C4931 C 0.15766 0.48801 0.24852 0.0
H4932 H 0.14787 0.49794 0.20719 0.0
C4933 C 0.15877 0.50456 0.25502 0.0
C4934 C 0.15833 0.51865 0.24383 0.0
H4935 H 0.16057 0.47736 0.25692 0.0
H4936 H 0.16241 0.50618 0.26827 0.0
C4937 C 0.15289 0.51618 0.22693 0.0
C4938 C 0.50814 0.82241 0.74045 0.0
C4939 C 0.50844 0.82425 0.7583 0.0
H4940 H 0.49302 0.82155 0.71795 0.0
C4941 C 0.49377 0.83055 0.76658 0.0
H4942 H 0.51946 0.81832 0.73354 0.0
C4943 C 0.47829 0.83194 0.75771 0.0
C4944 C 0.47731 0.82733 0.74032 0.0
H4945 H 0.49381 0.83305 0.78021 0.0
H4946 H 0.46698 0.83544 0.76486 0.0
C4947 C 0.49277 0.82413 0.73151 0.0
C4948 C 0.15457 0.24347 0.48486 0.0
C4949 C 0.15726 0.22822 0.494 0.0
H4950 H 0.15061 0.27061 0.48663 0.0
C4951 C 0.15374 0.22784 0.51161 0.0
H4952 H 0.1574 0.24405 0.47131 0.0
C4953 C 0.14978 0.2429 0.52033 0.0
C4954 C 0.1495 0.25859 0.5116 0.0
H4955 H 0.1557 0.21617 0.51884 0.0
H4956 H 0.14843 0.24251 0.53412 0.0
C4957 C 0.1507 0.25864 0.49365 0.0
C4958 C 0.07496 0.4973 0.98144 0.0
C4959 C 0.07721 0.51129 0.99253 0.0
H4960 H 0.07032 0.47036 0.97953 0.0
C4961 C 0.08203 0.50815 0.00955 0.0
H4962 H 0.07212 0.49925 0.96808 0.0
C4963 C 0.08197 0.49145 0.01593 0.0
C4964 C 0.07621 0.47789 0.00558 0.0
H4965 H 0.08457 0.51868 0.0182 0.0
H4966 H 0.08482 0.4895 0.02933 0.0
C4967 C 0.07408 0.48071 0.98798 0.0
C4968 C 0.96967 0.4967 0.90541 0.0
C4969 C 0.9726 0.51017 0.91695 0.0
H4970 H 0.9758 0.47079 0.89854 0.0
C4971 C 0.98531 0.50847 0.92952 0.0
H4972 H 0.95968 0.49765 0.89582 0.0
C4973 C 0.99453 0.49327 0.93096 0.0
C4974 C 0.99093 0.47938 0.92011 0.0
H4975 H 0.98761 0.51864 0.93868 0.0
H4976 H 0.00383 0.49203 0.94117 0.0
C4977 C 0.97866 0.48131 0.90711 0.0
C4978 C 0.47196 0.76008 0.83672 0.0
C4979 C 0.48753 0.75926 0.82773 0.0
H4980 H 0.45025 0.74608 0.84605 0.0
C4981 C 0.4949 0.74318 0.82445 0.0
H4982 H 0.46619 0.77233 0.83965 0.0
C4983 C 0.48584 0.72825 0.82817 0.0
C4984 C 0.46947 0.72919 0.83551 0.0
H4985 H 0.50687 0.74215 0.81754 0.0
H4986 H 0.49086 0.71608 0.82378 0.0
C4987 C 0.46302 0.74509 0.8407 0.0
C4988 C 0.22561 0.23072 0.58375 0.0
C4989 C 0.2233 0.24784 0.57869 0.0
H4990 H 0.2431 0.20981 0.58604 0.0
C4991 C 0.23793 0.25811 0.57623 0.0
H4992 H 0.21469 0.22265 0.58656 0.0
C4993 C 0.25417 0.2507 0.57563 0.0
C4994 C 0.25606 0.23296 0.57776 0.0
H4995 H 0.23687 0.2715 0.57301 0.0
H4996 H 0.26495 0.25861 0.57192 0.0
C4997 C 0.24192 0.22336 0.58343 0.0
C4998 C 0.50767 0.50647 0.57748 0.0
C4999 C 0.50927 0.48941 0.57193 0.0
H5000 H 0.49068 0.52723 0.58302 0.0
C5001 C 0.49435 0.47935 0.57063 0.0
H5002 H 0.51887 0.51442 0.57932 0.0
C5003 C 0.47818 0.4867 0.57278 0.0
C5004 C 0.4766 0.50428 0.57624 0.0
H5005 H 0.49498 0.4661 0.56671 0.0
H5006 H 0.46696 0.4789 0.57028 0.0
C5007 C 0.49149 0.51381 0.57966 0.0
C5008 C 0.74208 0.24614 0.92208 0.0
C5009 C 0.74521 0.26058 0.91186 0.0
H5010 H 0.75112 0.22152 0.93007 0.0
C5011 C 0.75788 0.25968 0.89913 0.0
H5012 H 0.73226 0.24646 0.93187 0.0
C5013 C 0.76865 0.24549 0.89804 0.0
C5014 C 0.76699 0.23193 0.90971 0.0
H5015 H 0.76018 0.27046 0.89073 0.0
H5016 H 0.77912 0.2458 0.88895 0.0
C5017 C 0.75289 0.23186 0.921 0.0
C5018 C 0.99209 0.71941 0.1539 0.0
C5019 C 0.97768 0.72737 0.16109 0.0
H5020 H 0.01891 0.72081 0.14906 0.0
C5021 C 0.97894 0.74456 0.16623 0.0
H5022 H 0.99142 0.70632 0.14935 0.0
C5023 C -0.0052 0.75281 0.16641 0.0
C5024 C 0.00973 0.74408 0.16129 0.0
H5025 H 0.96798 0.75124 0.1715 0.0
H5026 H -0.00465 0.76554 0.17178 0.0
C5027 C 0.00794 0.72771 0.15392 0.0
C5028 C 0.97893 0.8326 0.26282 0.0
C5029 C 0.97648 0.82638 0.2462 0.0
H5030 H -0.00289 0.83945 0.28207 0.0
C5031 C 0.99054 0.82537 0.23506 0.0
H5032 H 0.96816 0.83384 0.27146 0.0
C5033 C 0.00712 0.82739 0.24139 0.0
C5034 C 0.0097 0.83095 0.25882 0.0
H5035 H 0.98887 0.821 0.22204 0.0
H5036 H 0.01782 0.82439 0.23308 0.0
C5037 C -0.0045 0.8355 0.26892 0.0
C5038 C 0.66028 0.73961 0.52302 0.0
C5039 C 0.65594 0.75469 0.51426 0.0
H5040 H 0.66961 0.71395 0.52104 0.0
C5041 C 0.65408 0.75414 0.49637 0.0
H5042 H 0.66142 0.73953 0.5368 0.0
C5043 C 0.65868 0.73934 0.48731 0.0
C5044 C 0.66527 0.72504 0.49607 0.0
H5045 H 0.65078 0.7656 0.48928 0.0
H5046 H 0.6587 0.73972 0.47346 0.0
C5047 C 0.66492 0.72494 0.51401 0.0
C5048 C 0.74365 0.4341 0.7439 0.0
C5049 C 0.75827 0.42461 0.74829 0.0
H5050 H 0.71751 0.43993 0.75013 0.0
C5051 C 0.75686 0.4114 0.76038 0.0
H5052 H 0.74452 0.44438 0.73464 0.0
C5053 C 0.7413 0.40841 0.76874 0.0
C5054 C 0.72711 0.41897 0.76552 0.0
H5055 H 0.76799 0.40389 0.76383 0.0
H5056 H 0.74084 0.39887 0.7788 0.0
C5057 C 0.72824 0.43149 0.75266 0.0
C5058 C 0.08621 0.73595 0.20833 0.0
C5059 C 0.08905 0.75116 0.21746 0.0
H5060 H 0.07875 0.70962 0.20957 0.0
C5061 C 0.08957 0.75064 0.23541 0.0
H5062 H 0.086 0.73599 0.19448 0.0
C5063 C 0.08528 0.73554 0.24408 0.0
C5064 C 0.08047 0.72081 0.23485 0.0
H5065 H 0.09157 0.76227 0.24272 0.0
H5066 H 0.08417 0.73592 0.25788 0.0
C5067 C 0.08203 0.72089 0.21695 0.0
C5068 C 0.65815 0.49139 0.75397 0.0
C5069 C 0.6584 0.50663 0.7444 0.0
H5070 H 0.65741 0.46394 0.75289 0.0
C5071 C 0.6536 0.50622 0.72712 0.0
H5072 H 0.66185 0.49147 0.76733 0.0
C5073 C 0.65082 0.49061 0.71896 0.0
C5074 C 0.65315 0.47523 0.72791 0.0
H5075 H 0.65352 0.51789 0.71962 0.0
H5076 H 0.64841 0.49051 0.7053 0.0
C5077 C 0.65557 0.47568 0.74572 0.0
C5078 C 0.00548 0.41099 0.99346 0.0
C5079 C 0.00785 0.41118 0.97566 0.0
H5080 H 0.98741 0.41158 0.01394 0.0
C5081 C 0.99374 0.40786 0.96499 0.0
H5082 H 0.01622 0.41291 0.00205 0.0
C5083 C 0.97719 0.40795 0.97174 0.0
C5084 C 0.97465 0.41069 0.98931 0.0
H5085 H -0.00478 0.40714 0.95127 0.0
H5086 H 0.96636 0.40753 0.96308 0.0
C5087 C 0.98895 0.41035 0.00027 0.0
C5088 C 0.49437 0.56047 0.47676 0.0
C5089 C 0.51109 0.56712 0.47614 0.0
H5090 H 0.47301 0.55397 0.49244 0.0
C5091 C 0.51768 0.57549 0.49067 0.0
H5092 H 0.48875 0.55426 0.4657 0.0
C5093 C 0.50868 0.57513 0.50613 0.0
C5094 C 0.4928 0.56673 0.50722 0.0
H5095 H 0.53031 0.58122 0.49048 0.0
H5096 H 0.51453 0.58064 0.51742 0.0
C5097 C 0.4853 0.56034 0.49214 0.0
C5098 C 0.92408 0.24168 0.72248 0.0
C5099 C 0.91735 0.25814 0.71959 0.0
H5100 H 0.93044 0.22266 0.74114 0.0
C5101 C 0.90795 0.26609 0.7327 0.0
H5102 H 0.93098 0.23495 0.71251 0.0
C5103 C 0.90807 0.25923 0.7492 0.0
C5104 C 0.91689 0.24397 0.75257 0.0
H5105 H 0.90188 0.27838 0.73067 0.0
H5106 H 0.9022 0.26636 0.75954 0.0
C5107 C 0.9238 0.23461 0.73888 0.0
C5108 C 0.83894 0.98875 0.25427 0.0
C5109 C 0.83266 0.98006 0.26874 0.0
H5110 H 0.84474 0.98682 0.22748 0.0
C5111 C 0.83294 0.9621 0.26887 0.0
H5112 H 0.83951 0.00257 0.25402 0.0
C5113 C 0.8364 0.9531 0.25388 0.0
C5114 C 0.83941 0.96196 0.23858 0.0
H5115 H 0.82869 0.95511 0.28006 0.0
H5116 H 0.83519 0.93931 0.25392 0.0
C5117 C 0.84211 0.97972 0.23911 0.0
C5118 C 0.49118 0.6687 0.74511 0.0
C5119 C 0.50049 0.66517 0.73013 0.0
H5120 H 0.49162 0.6704 0.77237 0.0
C5121 C 0.51673 0.65757 0.73156 0.0
H5122 H 0.47857 0.67445 0.74447 0.0
C5123 C 0.52422 0.65513 0.74761 0.0
C5124 C 0.51568 0.6605 0.76249 0.0
H5125 H 0.52396 0.65418 0.72024 0.0
H5126 H 0.53712 0.65008 0.74827 0.0
C5127 C 0.49869 0.66634 0.76115 0.0
C5128 C 0.83448 0.24757 0.00647 0.0
C5129 C 0.83796 0.26517 0.00564 0.0
H5130 H 0.82766 0.22504 0.99238 0.0
C5131 C 0.84023 0.27293 0.9896 0.0
H5132 H 0.83243 0.24139 0.01872 0.0
C5133 C 0.83653 0.26384 0.97466 0.0
C5134 C 0.83104 0.24675 0.97557 0.0
H5135 H 0.84273 0.28654 0.98867 0.0
H5136 H 0.83641 0.27055 0.96253 0.0
C5137 C 0.83149 0.23829 0.99144 0.0
C5138 C 0.23767 0.58838 0.2306 0.0
C5139 C 0.24949 0.57487 0.22952 0.0
H5140 H 0.21881 0.60118 0.24585 0.0
C5141 C 0.25322 0.56532 0.24427 0.0
H5142 H 0.23466 0.5959 0.21935 0.0
C5143 C 0.24392 0.56809 0.25936 0.0
C5144 C 0.2311 0.58075 0.26003 0.0
H5145 H 0.26222 0.5548 0.24369 0.0
H5146 H 0.24599 0.55963 0.27016 0.0
C5147 C 0.22871 0.59146 0.24579 0.0
C5148 C -0.00221 0.98269 0.56927 0.0
C5149 C 0.01316 0.99199 0.57024 0.0
H5150 H 0.97047 0.98377 0.56932 0.0
C5151 C 0.01276 0.00876 0.5767 0.0
H5152 H -0.00226 0.9696 0.5649 0.0
C5153 C -0.00291 0.01676 0.57993 0.0
C5154 C 0.98165 0.00839 0.57587 0.0
H5155 H 0.02451 0.01597 0.5783 0.0
H5156 H -0.00288 0.02993 0.58418 0.0
C5157 C 0.98213 0.99084 0.57192 0.0
C5158 C 0.4836 0.74373 0.6651 0.0
C5159 C 0.48278 0.72627 0.66093 0.0
H5160 H 0.49983 0.7649 0.67103 0.0
C5161 C 0.49783 0.71787 0.65565 0.0
H5162 H 0.47221 0.75072 0.66882 0.0
C5163 C 0.5137 0.7259 0.65743 0.0
C5164 C 0.51468 0.7426 0.66389 0.0
H5165 H 0.49755 0.70461 0.65163 0.0
H5166 H 0.52526 0.71869 0.65484 0.0
C5167 C 0.49946 0.75187 0.66643 0.0
C5168 C 0.24264 0.52401 0.15583 0.0
C5169 C 0.25783 0.51476 0.1586 0.0
H5170 H 0.21537 0.52461 0.15856 0.0
C5171 C 0.25666 0.49764 0.16406 0.0
H5172 H 0.24308 0.53708 0.15121 0.0
C5173 C 0.24081 0.49054 0.16834 0.0
C5174 C 0.22575 0.50035 0.16713 0.0
H5175 H 0.26807 0.49008 0.16628 0.0
H5176 H 0.24057 0.47774 0.17366 0.0
C5177 C 0.22677 0.51691 0.16014 0.0
C5178 C 0.50513 0.99314 0.91503 0.0
C5179 C 0.49755 0.97701 0.91249 0.0
H5180 H 0.5014 0.02034 0.91538 0.0
C5181 C 0.48135 0.97615 0.90468 0.0
H5182 H 0.51757 0.99417 0.92088 0.0
C5183 C 0.47232 0.99115 0.90088 0.0
C5184 C 0.47926 0.00718 0.90516 0.0
H5185 H 0.47529 0.9639 0.90235 0.0
H5186 H 0.4593 0.99016 0.89615 0.0
C5187 C 0.49594 0.0081 0.91172 0.0
C5188 C 0.77682 0.49531 0.84421 0.0
C5189 C 0.77002 0.51191 0.84491 0.0
H5190 H 0.77225 0.46921 0.8372 0.0
C5191 C 0.75222 0.51418 0.84349 0.0
H5192 H 0.79053 0.49332 0.84518 0.0
C5193 C 0.74174 0.50028 0.83901 0.0
C5194 C 0.74906 0.48416 0.83589 0.0
H5195 H 0.74676 0.52693 0.84367 0.0
H5196 H 0.7284 0.50256 0.83593 0.0
C5197 C 0.76641 0.48154 0.83965 0.0
C5198 C 0.97958 0.75532 0.303 0.0
C5199 C 0.99103 0.76381 0.3139 0.0
H5200 H 0.96114 0.73521 0.3003 0.0
C5201 C 0.99295 0.7582 0.33081 0.0
H5202 H 0.97793 0.75965 0.28993 0.0
C5203 C 0.98301 0.74462 0.33697 0.0
C5204 C 0.97115 0.7363 0.32622 0.0
H5205 H 0.00162 0.76481 0.3394 0.0
H5206 H 0.98443 0.74085 0.35024 0.0
C5207 C 0.9699 0.74149 0.30901 0.0
C5208 C 0.02446 0.15554 0.73577 0.0
C5209 C 0.01605 0.14971 0.75059 0.0
H5210 H 0.02217 0.16251 0.70939 0.0
C5211 C -0.0009 0.14382 0.74923 0.0
H5212 H 0.03757 0.16001 0.73636 0.0
C5213 C 0.99024 0.14534 0.73372 0.0
C5214 C -0.00177 0.15258 0.71928 0.0
H5215 H 0.99227 0.13925 0.7604 0.0
H5216 H 0.97686 0.1417 0.73325 0.0
C5217 C 0.01567 0.15686 0.72025 0.0
C5218 C 0.33363 0.27154 0.47106 0.0
C5219 C 0.3348 0.25359 0.47113 0.0
H5220 H 0.3324 0.29439 0.48604 0.0
C5221 C 0.33837 0.24514 0.48664 0.0
H5222 H 0.33088 0.27848 0.4594 0.0
C5223 C 0.33932 0.25434 0.50196 0.0
C5224 C 0.33653 0.27208 0.50195 0.0
H5225 H 0.33968 0.23135 0.48704 0.0
H5226 H 0.3409 0.24743 0.51388 0.0
C5227 C 0.33442 0.28068 0.48634 0.0
C5228 C 0.33393 0.4891 0.23912 0.0
C5229 C 0.33858 0.47178 0.23978 0.0
H5230 H 0.3256 0.511 0.25317 0.0
C5231 C 0.34122 0.46402 0.25578 0.0
H5232 H 0.3314 0.4952 0.22692 0.0
C5233 C 0.33734 0.47289 0.27086 0.0
C5234 C 0.33104 0.48971 0.27015 0.0
H5235 H 0.34444 0.45056 0.25659 0.0
H5236 H 0.33795 0.46618 0.28298 0.0
C5237 C 0.33046 0.49809 0.2542 0.0
C5238 C 0.02075 0.58708 0.99412 0.0
C5239 C 0.01214 0.58474 0.97853 0.0
H5240 H 0.01979 0.58408 0.02127 0.0
C5241 C 0.99447 0.58129 0.97866 0.0
H5242 H 0.03428 0.59023 -0.00565 0.0
C5243 C 0.98623 0.57754 0.99406 0.0
C5244 C -0.00445 0.57736 0.00946 0.0
H5245 H 0.98745 0.57961 0.96681 0.0
H5246 H 0.97306 0.57322 0.99362 0.0
C5247 C 0.01251 0.58339 0.00949 0.0
C5248 C 0.50175 0.4021 0.47368 0.0
C5249 C 0.51462 0.41458 0.47575 0.0
H5250 H 0.4752 0.39581 0.47783 0.0
C5251 C 0.51144 0.42883 0.48621 0.0
H5252 H 0.50383 0.39107 0.46554 0.0
C5253 C 0.49513 0.43164 0.49272 0.0
C5254 C 0.4819 0.42001 0.48937 0.0
H5255 H 0.52114 0.43861 0.48808 0.0
H5256 H 0.49246 0.4435 0.49933 0.0
C5257 C 0.4854 0.40483 0.48051 0.0
C5258 C 0.15969 0.98079 0.74625 0.0
C5259 C 0.15629 0.97907 0.72871 0.0
H5260 H 0.16661 -0.00229 0.76638 0.0
C5261 C 0.1527 0.99384 0.71903 0.0
H5262 H 0.16202 0.96966 0.7542 0.0
C5263 C 0.15577 0.01002 0.72593 0.0
C5264 C 0.16194 0.01162 0.74272 0.0
H5265 H 0.14917 0.99289 0.70566 0.0
H5266 H 0.15447 0.02115 0.71777 0.0
C5267 C 0.16245 -0.00303 0.75322 0.0
C5268 C 0.47313 0.33373 0.27079 0.0
C5269 C 0.47254 0.33024 0.25322 0.0
H5270 H 0.48895 0.3381 0.2926 0.0
C5271 C 0.48749 0.33228 0.2434 0.0
H5272 H 0.46167 0.33262 0.27851 0.0
C5273 C 0.50327 0.33478 0.25148 0.0
C5274 C 0.50414 0.33568 0.26943 0.0
H5275 H 0.4873 0.33009 0.22974 0.0
H5276 H 0.51482 0.33435 0.24381 0.0
C5277 C 0.4888 0.33674 0.27881 0.0
C5278 C 0.14145 0.72868 -0.00528 0.0
C5279 C 0.15641 0.7238 0.98603 0.0
H5280 H 0.13018 0.74618 0.01281 0.0
C5281 C 0.17146 0.73325 0.98847 0.0
H5282 H 0.12974 0.72143 0.99305 0.0
C5283 C 0.17173 0.74731 -0.00066 0.0
C5284 C 0.15699 0.75215 0.00844 0.0
H5285 H 0.18323 0.72933 0.98237 0.0
H5286 H 0.18377 0.75403 0.00103 0.0
C5287 C 0.1417 0.74287 0.00584 0.0
C5288 C 0.98496 0.00712 0.40196 0.0
C5289 C 0.9675 0.00593 0.39788 0.0
H5290 H 0.00701 0.99398 0.41155 0.0
C5291 C 0.9598 0.98975 0.39672 0.0
H5292 H 0.99101 0.01955 0.40334 0.0
C5293 C 0.96878 0.97518 0.40183 0.0
C5294 C 0.98562 0.97662 0.408 0.0
H5295 H 0.94624 0.98861 0.39394 0.0
H5296 H 0.96213 0.96302 0.40231 0.0
C5297 C 0.99404 0.9925 0.40688 0.0
C5298 C 0.49561 0.24623 0.30884 0.0
C5299 C 0.49096 0.25942 0.32015 0.0
H5300 H 0.49063 0.22051 0.30041 0.0
C5301 C 0.47924 0.25595 0.33329 0.0
H5302 H 0.50465 0.24866 0.29861 0.0
C5303 C 0.47163 0.23982 0.33464 0.0
C5304 C 0.47527 0.22698 0.32259 0.0
H5305 H 0.47564 0.2659 0.34224 0.0
H5306 H 0.46204 0.23782 0.34445 0.0
C5307 C 0.48764 0.23018 0.3099 0.0
C5308 C 0.51809 0.01872 0.08324 0.0
C5309 C 0.51755 0.00099 0.08044 0.0
H5310 H 0.50362 0.04131 0.08859 0.0
C5311 C 0.50276 0.99181 0.08512 0.0
H5312 H 0.52945 0.02598 0.07996 0.0
C5313 C 0.48792 0.00059 0.09 0.0
C5314 C 0.48788 0.01856 0.09029 0.0
H5315 H 0.50205 0.97811 0.08313 0.0
H5316 H 0.47608 0.99348 0.09149 0.0
C5317 C 0.50335 0.02744 0.08817 0.0
C5318 C 0.01167 0.22072 0.66525 0.0
C5319 C 0.0128 0.23863 0.66413 0.0
H5320 H -0.00447 0.19872 0.66479 0.0
C5321 C -0.00202 0.248 0.65989 0.0
H5322 H 0.02274 0.21308 0.66858 0.0
C5323 C 0.98224 0.23964 0.65762 0.0
C5324 C 0.98105 0.22182 0.65977 0.0
H5325 H -0.00152 0.2618 0.65869 0.0
H5326 H 0.97088 0.24722 0.65513 0.0
C5327 C -0.004 0.21245 0.66315 0.0
C5328 C 0.56853 0.98059 -0.00427 0.0
C5329 C 0.5787 0.98062 0.01054 0.0
H5330 H 0.5573 -0.00437 0.97581 0.0
C5331 C 0.58702 -0.00423 0.01552 0.0
H5332 H 0.56176 0.96911 0.99184 0.0
C5333 C 0.58412 0.011 0.00654 0.0
C5334 C 0.57321 0.01113 0.99225 0.0
H5335 H 0.59461 -0.00383 0.02713 0.0
H5336 H 0.58981 0.02279 0.0111 0.0
C5337 C 0.56598 -0.0043 0.98656 0.0
C5338 C 0.22754 0.90185 0.75163 0.0
C5339 C 0.22634 0.89979 0.76944 0.0
H5340 H 0.24387 0.90841 0.7306 0.0
C5341 C 0.24136 0.89911 0.77926 0.0
H5342 H 0.21606 0.90266 0.74386 0.0
C5343 C 0.2572 0.90247 0.77175 0.0
C5344 C 0.25825 0.90661 0.75431 0.0
H5345 H 0.2407 0.89741 0.793 0.0
H5346 H 0.26847 0.9031 0.77982 0.0
C5347 C 0.24345 0.90524 0.74408 0.0
C5348 C 0.58147 0.23928 0.21843 0.0
C5349 C 0.5875 0.25393 0.22698 0.0
H5350 H 0.57402 0.21302 0.22052 0.0
C5351 C 0.59336 0.25241 0.24389 0.0
H5352 H 0.57709 0.24003 0.20531 0.0
C5353 C 0.59155 0.23689 0.25263 0.0
C5354 C 0.58407 0.22265 0.24451 0.0
H5355 H 0.59811 0.26349 0.25077 0.0
H5356 H 0.59508 0.23627 0.26602 0.0
C5357 C 0.57986 0.22375 0.22709 0.0
C5358 C 0.23393 0.33835 0.47196 0.0
C5359 C 0.22142 0.32554 0.47383 0.0
H5360 H 0.25947 0.34643 0.47824 0.0
C5361 C 0.22398 0.31255 0.48602 0.0
H5362 H 0.23239 0.34835 0.46247 0.0
C5363 C 0.23936 0.3116 0.49515 0.0
C5364 C 0.25258 0.32338 0.49193 0.0
H5365 H 0.21459 0.30243 0.48755 0.0
H5366 H 0.24149 0.30085 0.50363 0.0
C5367 C 0.24949 0.33714 0.48078 0.0
C5368 C 0.40258 0.74753 0.73061 0.0
C5369 C 0.4029 0.7655 0.72971 0.0
H5370 H 0.40709 0.72546 0.74632 0.0
C5371 C 0.40427 0.775 0.74488 0.0
H5372 H 0.40159 0.73994 0.71905 0.0
C5373 C 0.40727 0.76676 0.76041 0.0
C5374 C 0.40921 0.74889 0.76104 0.0
H5375 H 0.40421 0.78885 0.74456 0.0
H5376 H 0.4095 0.77446 0.77173 0.0
C5377 C 0.40574 0.73925 0.74622 0.0
C5378 C 0.73462 0.15973 0.01183 0.0
C5379 C 0.74771 0.17207 0.01165 0.0
H5380 H 0.71527 0.14666 -0.00259 0.0
C5381 C 0.7531 0.17892 -0.00406 0.0
H5382 H 0.7304 0.15419 0.02381 0.0
C5383 C 0.74432 0.17482 0.98087 0.0
C5384 C 0.73036 0.16344 0.98128 0.0
H5385 H 0.76314 0.18848 -0.00446 0.0
H5386 H 0.74771 0.18136 0.96912 0.0
C5387 C 0.72614 0.15528 -0.00329 0.0
C5388 C 0.71221 0.07442 0.23482 0.0
C5389 C 0.72028 0.0806 0.24963 0.0
H5390 H 0.71503 0.06452 0.20967 0.0
C5391 C 0.73812 0.0832 0.24943 0.0
H5392 H 0.6985 0.07225 0.23459 0.0
C5393 C 0.74777 0.07869 0.23495 0.0
C5394 C 0.73972 0.07164 0.22042 0.0
H5395 H 0.74471 0.08778 0.26075 0.0
H5396 H 0.76153 0.0804 0.23529 0.0
C5397 C 0.72177 0.07 0.22045 0.0
C5398 C 0.41113 0.49471 0.48618 0.0
C5399 C 0.40362 0.48833 0.47108 0.0
H5400 H 0.41673 0.49033 0.51264 0.0
C5401 C 0.39331 0.47357 0.47213 0.0
H5402 H 0.41921 0.50592 0.48595 0.0
C5403 C 0.39162 0.46476 0.48768 0.0
C5404 C 0.40042 0.47045 0.50231 0.0
H5405 H 0.3872 0.46844 0.4608 0.0
H5406 H 0.38463 0.45277 0.4879 0.0
C5407 C 0.40968 0.4858 0.50156 0.0
C5408 C 0.24742 0.72432 0.92585 0.0
C5409 C 0.26209 0.7224 0.91569 0.0
H5410 H 0.22954 0.74202 0.93682 0.0
C5411 C 0.26853 0.7365 0.90663 0.0
H5412 H 0.24254 0.71364 0.93325 0.0
C5413 C 0.26144 0.7527 0.90902 0.0
C5414 C 0.24769 0.75494 0.92031 0.0
H5415 H 0.28006 0.7353 0.899 0.0
H5416 H 0.26732 0.76365 0.90287 0.0
C5417 C 0.2401 0.74052 0.92798 0.0
C5418 C 0.7437 0.98216 0.16735 0.0
C5419 C 0.72971 0.99208 0.16185 0.0
H5420 H 0.77021 0.98191 0.17419 0.0
C5421 C 0.73281 0.00838 0.15498 0.0
H5422 H 0.74184 0.96943 0.17238 0.0
C5423 C 0.74922 0.01546 0.15566 0.0
C5424 C 0.76264 0.00646 0.16362 0.0
H5425 H 0.72234 0.01609 0.15018 0.0
H5426 H 0.75098 0.0285 0.15133 0.0
C5427 C 0.76002 0.98934 0.16838 0.0
C5428 C 0.74146 0.74642 0.574 0.0
C5429 C 0.72517 0.7421 0.58042 0.0
H5430 H 0.7676 0.73885 0.57114 0.0
C5431 C 0.72378 0.7283 0.59194 0.0
H5432 H 0.74315 0.75688 0.56509 0.0
C5433 C 0.73802 0.71801 0.59555 0.0
C5434 C 0.75377 0.72143 0.58763 0.0
H5435 H 0.71151 0.72485 0.5974 0.0
H5436 H 0.73633 0.70656 0.60319 0.0
C5437 C 0.75557 0.73613 0.57751 0.0
C5438 C 0.24033 0.98934 0.83032 0.0
C5439 C 0.24749 0.97466 0.82271 0.0
H5440 H 0.24434 0.01545 0.83821 0.0
C5441 C 0.26471 0.97512 0.81764 0.0
H5442 H 0.22707 0.98931 0.8344 0.0
C5443 C 0.27448 0.98991 0.81972 0.0
C5444 C 0.26744 0.00473 0.82711 0.0
H5445 H 0.27054 0.96415 0.81149 0.0
H5446 H 0.28751 0.98975 0.81512 0.0
C5447 C 0.25026 0.00422 0.83264 0.0
C5448 C 0.40199 0.99403 -0.00146 0.0
C5449 C 0.40078 0.9762 6e-05 0.0
H5450 H 0.40887 0.01486 0.98223 0.0
C5451 C 0.4011 0.966 0.98528 0.0
H5452 H 0.40181 0.00211 0.00981 0.0
C5453 C 0.40515 0.97323 0.96952 0.0
C5454 C 0.40895 0.99073 0.96838 0.0
H5455 H 0.39983 0.95221 0.9862 0.0
H5456 H 0.40703 0.96493 0.95857 0.0
C5457 C 0.40606 0.0013 0.98271 0.0
C5458 C 0.74224 0.67009 0.47361 0.0
C5459 C 0.72727 0.66009 0.47258 0.0
H5460 H 0.76102 0.68148 0.49024 0.0
C5461 C 0.72129 0.65171 0.48732 0.0
H5462 H 0.747 0.67678 0.46242 0.0
C5463 C 0.72896 0.65484 0.50315 0.0
C5464 C 0.74303 0.66592 0.50439 0.0
H5465 H 0.70965 0.64415 0.48694 0.0
H5466 H 0.72327 0.64952 0.51462 0.0
C5467 C 0.75021 0.67281 0.48944 0.0
C5468 C 0.25638 0.81236 0.00036 0.0
C5469 C 0.26607 0.82699 0.00428 0.0
H5470 H 0.235 0.80196 0.98684 0.0
C5471 C 0.26064 0.84302 -0.00188 0.0
H5472 H 0.2603 0.79982 0.00478 0.0
C5473 C 0.24584 0.84428 0.98797 0.0
C5474 C 0.23662 0.82947 0.98363 0.0
H5475 H 0.26786 0.85448 0.00111 0.0
H5476 H 0.24204 0.85664 0.98296 0.0
C5477 C 0.24191 0.81357 0.99007 0.0
C5478 C 0.57617 0.49382 0.48345 0.0
C5479 C 0.57844 0.5083 0.49394 0.0
H5480 H 0.57327 0.4667 0.48235 0.0
C5481 C 0.58364 0.50593 0.51099 0.0
H5482 H 0.57246 0.49504 0.47017 0.0
C5483 C 0.58431 0.48948 0.51795 0.0
C5484 C 0.57926 0.47528 0.50808 0.0
H5485 H 0.58617 0.51681 0.51919 0.0
H5486 H 0.58737 0.48809 0.5314 0.0
C5487 C 0.57662 0.47745 0.49046 0.0
C5488 C 0.74584 0.22745 0.08253 0.0
C5489 C 0.75995 0.23649 0.07592 0.0
H5490 H 0.71856 0.22603 0.08471 0.0
C5491 C 0.75727 0.25293 0.0691 0.0
H5492 H 0.74751 0.21498 0.08835 0.0
C5493 C 0.74068 0.25924 0.06702 0.0
C5494 C 0.7264 0.24929 0.07173 0.0
H5495 H 0.76786 0.26041 0.06414 0.0
H5496 H 0.73911 0.27137 0.06058 0.0
C5497 C 0.72922 0.23374 0.08035 0.0
C5498 C 0.25757 0.23151 0.39565 0.0
C5499 C 0.27536 0.23379 0.39738 0.0
H5500 H 0.23273 0.24194 0.40129 0.0
C5501 C 0.28175 0.24997 0.40195 0.0
H5502 H 0.25233 0.21909 0.39232 0.0
C5503 C 0.27059 0.26281 0.40726 0.0
C5504 C 0.25294 0.25973 0.40778 0.0
H5505 H 0.29541 0.25205 0.40329 0.0
H5506 H 0.2758 0.27455 0.4125 0.0
C5507 C 0.24636 0.2445 0.40085 0.0
C5508 C 0.24954 0.4063 0.25036 0.0
C5509 C 0.26398 0.41156 0.25978 0.0
H5510 H 0.2232 0.39851 0.2515 0.0
C5511 C 0.26409 0.40924 0.2776 0.0
H5512 H 0.24911 0.40798 0.23661 0.0
C5513 C 0.24933 0.40389 0.28607 0.0
C5514 C 0.23424 0.40064 0.27686 0.0
H5515 H 0.27519 0.41286 0.28509 0.0
H5516 H 0.24929 0.40372 0.29994 0.0
C5517 C 0.23473 0.40081 0.25888 0.0
C5518 C 0.58509 0.73055 0.73201 0.0
C5519 C 0.57831 0.72859 0.74855 0.0
H5520 H 0.58951 0.74754 0.711 0.0
C5521 C 0.5739 0.7433 0.7579 0.0
H5522 H 0.58919 0.71949 0.72474 0.0
C5523 C 0.57379 0.7593 0.74998 0.0
C5524 C 0.57819 0.76084 0.7326 0.0
H5525 H 0.56898 0.74231 0.7708 0.0
H5526 H 0.56878 0.77012 0.75706 0.0
C5527 C 0.58527 0.74662 0.72416 0.0
C5528 C 0.40701 0.24779 0.22772 0.0
C5529 C 0.40152 0.26475 0.2298 0.0
H5530 H 0.41651 0.22534 0.24026 0.0
C5531 C 0.39777 0.27086 0.24627 0.0
H5532 H 0.41042 0.24303 0.21514 0.0
C5533 C 0.4016 0.26085 0.2606 0.0
C5534 C 0.40882 0.24457 0.25855 0.0
H5535 H 0.39397 0.28407 0.24814 0.0
H5536 H 0.40063 0.26646 0.27324 0.0
C5537 C 0.41047 0.23768 0.24205 0.0
C5538 C 0.72415 0.58744 0.75139 0.0
C5539 C 0.7269 0.57632 0.76524 0.0
H5540 H 0.72985 0.59293 0.72506 0.0
C5541 C 0.73953 0.56361 0.76396 0.0
H5542 H 0.71423 0.59711 0.75199 0.0
C5543 C 0.74856 0.56139 0.7487 0.0
C5544 C 0.74473 0.5715 0.73434 0.0
H5545 H 0.74164 0.55472 0.7744 0.0
H5546 H 0.75763 0.55095 0.74774 0.0
C5547 C 0.73285 0.58489 0.73595 0.0
C5548 C 0.75624 0.49332 0.66529 0.0
C5549 C 0.75754 0.51122 0.66553 0.0
H5550 H 0.73975 0.4717 0.66483 0.0
C5551 C 0.74294 0.52103 0.66183 0.0
H5552 H 0.76741 0.48539 0.66752 0.0
C5553 C 0.72686 0.51319 0.66074 0.0
C5554 C 0.7252 0.4954 0.66314 0.0
H5555 H 0.74363 0.53485 0.66131 0.0
H5556 H 0.71567 0.52122 0.6593 0.0
C5557 C 0.74025 0.48547 0.66383 0.0
C5558 C 0.2526 0.48209 0.3441 0.0
C5559 C 0.24003 0.47952 0.33143 0.0
H5560 H 0.27205 0.49878 0.35405 0.0
C5561 C 0.23561 0.49323 0.32065 0.0
H5562 H 0.25604 0.47183 0.35275 0.0
C5563 C 0.24476 0.50858 0.32138 0.0
C5564 C 0.25826 0.5106 0.3331 0.0
H5565 H 0.22602 0.4917 0.31076 0.0
H5566 H 0.24201 0.51847 0.31205 0.0
C5567 C 0.26158 0.49757 0.34501 0.0
loop_
_geom_bond_atom_site_label_1
_geom_bond_atom_site_label_2
_geom_bond_distance
_geom_bond_site_symmetry_2
_ccdc_geom_bond_type
Co0 N4 2.148 . S
Co0 N10 2.128 . S
Co0 N20 2.194 . S
Co0 O25 2.351 . S
Co0 O26 2.155 . S
Co0 O27 2.096 . S
C1 N4 1.301 . S
C1 N5 1.328 . S
C1 H6 0.930 . S
C2 C3 1.333 . S
C2 N4 1.317 . S
C2 H7 0.930 . S
C3 C2 1.333 . S
C3 N5 1.350 . S
C3 H29 0.931 . S
N4 Co0 2.148 . S
N4 C1 1.301 . S
N4 C2 1.317 . S
N5 C1 1.328 . S
N5 C3 1.350 . S
H6 C1 0.930 . S
H7 C2 0.930 . S
C8 O9 1.224 . S
C8 O27 1.247 . S
O9 C8 1.224 . S
N10 Co0 2.128 . S
N10 C11 1.355 . S
N10 C13 1.311 . S
C11 N10 1.355 . S
C11 C12 1.363 . S
C11 H23 0.929 . S
C12 C11 1.363 . S
C12 N14 1.375 . S
C12 H30 0.931 . S
C13 N10 1.311 . S
C13 N14 1.347 . S
C13 H24 0.929 . S
N14 C12 1.375 . S
N14 C13 1.347 . S
C15 C18 1.365 . S
C15 N20 1.328 . S
C15 H21 0.929 . S
C16 C17 1.362 . S
C16 C19 1.378 . S
C16 H31 0.929 . S
C17 C16 1.362 . S
C17 C18 1.366 . S
C18 C15 1.365 . S
C18 C17 1.366 . S
C18 H32 0.930 . S
C19 C16 1.378 . S
C19 N20 1.315 . S
C19 H22 0.930 . S
N20 Co0 2.194 . S
N20 C15 1.328 . S
N20 C19 1.315 . S
H21 C15 0.929 . S
H22 C19 0.930 . S
H23 C11 0.929 . S
H24 C13 0.929 . S
O25 Co0 2.351 . S
O25 C28 1.244 . S
O26 Co0 2.155 . S
O26 C28 1.240 . S
O27 Co0 2.096 . S
O27 C8 1.247 . S
C28 O25 1.244 . S
C28 O26 1.240 . S
H29 C3 0.931 . S
H30 C12 0.931 . S
H31 C16 0.929 . S
H32 C18 0.930 . S
Co33 N37 2.148 . S
Co33 N43 2.128 . S
Co33 N53 2.194 . S
Co33 O58 2.351 . S
Co33 O59 2.155 . S
Co33 O60 2.096 . S
C34 N37 1.301 . S
C34 N38 1.328 . S
C34 H39 0.930 . S
C35 C36 1.333 . S
C35 N37 1.317 . S
C35 H40 0.930 . S
C36 C35 1.333 . S
C36 N38 1.350 . S
C36 H62 0.931 . S
N37 Co33 2.148 . S
N37 C34 1.301 . S
N37 C35 1.317 . S
N38 C34 1.328 . S
N38 C36 1.350 . S
H39 C34 0.930 . S
H40 C35 0.930 . S
C41 O42 1.224 . S
C41 O60 1.247 . S
O42 C41 1.224 . S
N43 Co33 2.128 . S
N43 C44 1.355 . S
N43 C46 1.311 . S
C44 N43 1.355 . S
C44 C45 1.363 . S
C44 H56 0.929 . S
C45 C44 1.363 . S
C45 N47 1.375 . S
C45 H63 0.931 . S
C46 N43 1.311 . S
C46 N47 1.347 . S
C46 H57 0.929 . S
N47 C45 1.375 . S
N47 C46 1.347 . S
C48 C51 1.365 . S
C48 N53 1.328 . S
C48 H54 0.929 . S
C49 C50 1.362 . S
C49 C52 1.378 . S
C49 H64 0.929 . S
C50 C49 1.362 . S
C50 C51 1.366 . S
C51 C48 1.365 . S
C51 C50 1.366 . S
C51 H65 0.930 . S
C52 C49 1.378 . S
C52 N53 1.315 . S
C52 H55 0.930 . S
N53 Co33 2.194 . S
N53 C48 1.328 . S
N53 C52 1.315 . S
H54 C48 0.929 . S
H55 C52 0.930 . S
H56 C44 0.929 . S
H57 C46 0.929 . S
O58 Co33 2.351 . S
O58 C61 1.244 . S
O59 Co33 2.155 . S
O59 C61 1.240 . S
O60 Co33 2.096 . S
O60 C41 1.247 . S
C61 O58 1.244 . S
C61 O59 1.240 . S
H62 C36 0.931 . S
H63 C45 0.931 . S
H64 C49 0.929 . S
H65 C51 0.930 . S
Co66 N70 2.148 . S
Co66 N76 2.128 . S
Co66 N86 2.194 . S
Co66 O91 2.351 . S
Co66 O92 2.155 . S
Co66 O93 2.096 . S
C67 N70 1.301 . S
C67 N71 1.328 . S
C67 H72 0.930 . S
C68 C69 1.333 1_556 S
C68 N70 1.317 . S
C68 H73 0.945 . S
C69 C68 1.333 1_554 S
C69 N71 1.350 1_554 S
C69 H95 0.931 . S
N70 Co66 2.148 . S
N70 C67 1.301 . S
N70 C68 1.317 . S
N71 C67 1.328 . S
N71 C69 1.350 1_556 S
H72 C67 0.930 . S
H73 C68 0.945 . S
C74 O75 1.224 . S
C74 O93 1.247 . S
O75 C74 1.224 . S
N76 Co66 2.128 . S
N76 C77 1.355 . S
N76 C79 1.311 . S
C77 N76 1.355 . S
C77 C78 1.363 . S
C77 H89 0.929 . S
C78 C77 1.363 . S
C78 N80 1.375 . S
C78 H96 0.931 . S
C79 N76 1.311 . S
C79 N80 1.347 . S
C79 H90 0.929 . S
N80 C78 1.375 . S
N80 C79 1.347 . S
C81 C84 1.365 . S
C81 N86 1.328 . S
C81 H87 0.929 . S
C82 C83 1.362 . S
C82 C85 1.378 . S
C82 H97 0.929 . S
C83 C82 1.362 . S
C83 C84 1.366 . S
C84 C81 1.365 . S
C84 C83 1.366 . S
C84 H98 0.930 . S
C85 C82 1.378 . S
C85 N86 1.315 . S
C85 H88 0.930 . S
N86 Co66 2.194 . S
N86 C81 1.328 . S
N86 C85 1.315 . S
H87 C81 0.929 . S
H88 C85 0.930 . S
H89 C77 0.929 . S
H90 C79 0.929 . S
O91 Co66 2.351 . S
O91 C94 1.244 . S
O92 Co66 2.155 . S
O92 C94 1.240 . S
O93 Co66 2.096 . S
O93 C74 1.247 . S
C94 O91 1.244 . S
C94 O92 1.240 . S
H95 C69 0.931 . S
H96 C78 0.931 . S
H97 C82 0.929 . S
H98 C84 0.930 . S
Co99 N103 2.148 . S
Co99 N109 2.128 . S
Co99 N119 2.194 . S
Co99 O124 2.351 . S
Co99 O125 2.155 . S
Co99 O126 2.096 . S
C100 N103 1.301 . S
C100 N104 1.328 . S
C100 H105 0.930 . S
C101 C102 1.333 . S
C101 N103 1.317 . S
C101 H106 0.930 . S
C102 C101 1.333 . S
C102 N104 1.350 . S
C102 H128 0.931 . S
N103 Co99 2.148 . S
N103 C100 1.301 . S
N103 C101 1.317 . S
N104 C100 1.328 . S
N104 C102 1.350 . S
H105 C100 0.930 . S
H106 C101 0.930 . S
C107 O108 1.224 . S
C107 O126 1.247 . S
O108 C107 1.224 . S
N109 Co99 2.128 . S
N109 C110 1.355 . S
N109 C112 1.311 . S
C110 N109 1.355 . S
C110 C111 1.363 . S
C110 H122 0.929 . S
C111 C110 1.363 . S
C111 N113 1.375 . S
C111 H129 0.931 . S
C112 N109 1.311 . S
C112 N113 1.347 . S
C112 H123 0.929 . S
N113 C111 1.375 . S
N113 C112 1.347 . S
C114 C117 1.365 . S
C114 N119 1.328 . S
C114 H120 0.929 . S
C115 C116 1.362 . S
C115 C118 1.378 . S
C115 H130 0.929 . S
C116 C115 1.362 . S
C116 C117 1.366 . S
C117 C114 1.365 . S
C117 C116 1.366 . S
C117 H131 0.930 . S
C118 C115 1.378 . S
C118 N119 1.315 . S
C118 H121 0.930 . S
N119 Co99 2.194 . S
N119 C114 1.328 . S
N119 C118 1.315 . S
H120 C114 0.929 . S
H121 C118 0.930 . S
H122 C110 0.929 . S
H123 C112 0.929 . S
O124 Co99 2.351 . S
O124 C127 1.244 . S
O125 Co99 2.155 . S
O125 C127 1.240 . S
O126 Co99 2.096 . S
O126 C107 1.247 . S
C127 O124 1.244 . S
C127 O125 1.240 . S
H128 C102 0.931 . S
H129 C111 0.931 . S
H130 C115 0.929 . S
H131 C117 0.930 . S
Co132 N136 2.148 . S
Co132 N142 2.128 . S
Co132 N152 2.194 . S
Co132 O157 2.351 . S
Co132 O158 2.155 . S
Co132 O159 2.096 . S
C133 N136 1.301 . S
C133 N137 1.328 . S
C133 H138 0.930 . S
C134 C135 1.333 . S
C134 N136 1.317 . S
C134 H139 0.930 . S
C135 C134 1.333 . S
C135 N137 1.350 . S
C135 H161 0.931 . S
N136 Co132 2.148 . S
N136 C133 1.301 . S
N136 C134 1.317 . S
N137 C133 1.328 . S
N137 C135 1.350 . S
H138 C133 0.930 . S
H139 C134 0.930 . S
C140 O141 1.224 . S
C140 O159 1.247 . S
O141 C140 1.224 . S
N142 Co132 2.128 . S
N142 C143 1.355 . S
N142 C145 1.311 . S
C143 N142 1.355 . S
C143 C144 1.363 . S
C143 H155 0.929 . S
C144 C143 1.363 . S
C144 N146 1.375 . S
C144 H162 0.931 . S
C145 N142 1.311 . S
C145 N146 1.347 . S
C145 H156 0.929 . S
N146 C144 1.375 . S
N146 C145 1.347 . S
C147 C150 1.365 . S
C147 N152 1.328 . S
C147 H153 0.929 . S
C148 C149 1.362 . S
C148 C151 1.378 . S
C148 H163 0.929 . S
C149 C148 1.362 . S
C149 C150 1.366 . S
C150 C147 1.365 . S
C150 C149 1.366 . S
C150 H164 0.930 . S
C151 C148 1.378 . S
C151 N152 1.315 . S
C151 H154 0.930 . S
N152 Co132 2.194 . S
N152 C147 1.328 . S
N152 C151 1.315 . S
H153 C147 0.929 . S
H154 C151 0.930 . S
H155 C143 0.929 . S
H156 C145 0.929 . S
O157 Co132 2.351 . S
O157 C160 1.244 . S
O158 Co132 2.155 . S
O158 C160 1.240 . S
O159 Co132 2.096 . S
O159 C140 1.247 . S
C160 O157 1.244 . S
C160 O158 1.240 . S
H161 C135 0.931 . S
H162 C144 0.931 . S
H163 C148 0.929 . S
H164 C150 0.930 . S
Co165 N169 2.148 . S
Co165 N175 2.128 . S
Co165 N185 2.194 . S
Co165 O190 2.351 . S
Co165 O191 2.155 . S
Co165 O192 2.096 . S
C166 N169 1.301 . S
C166 N170 1.328 . S
C166 H171 0.930 . S
C167 C168 1.333 1_554 S
C167 N169 1.317 . S
C167 H172 0.945 . S
C168 C167 1.333 1_556 S
C168 N170 1.350 1_556 S
C168 H194 0.931 . S
N169 Co165 2.148 . S
N169 C166 1.301 . S
N169 C167 1.317 . S
N170 C166 1.328 . S
N170 C168 1.350 1_554 S
H171 C166 0.930 . S
H172 C167 0.945 . S
C173 O174 1.224 . S
C173 O192 1.247 . S
O174 C173 1.224 . S
N175 Co165 2.128 . S
N175 C176 1.355 . S
N175 C178 1.311 . S
C176 N175 1.355 . S
C176 C177 1.363 . S
C176 H188 0.929 . S
C177 C176 1.363 . S
C177 N179 1.375 . S
C177 H195 0.931 . S
C178 N175 1.311 . S
C178 N179 1.347 . S
C178 H189 0.929 . S
N179 C177 1.375 . S
N179 C178 1.347 . S
C180 C183 1.365 . S
C180 N185 1.328 . S
C180 H186 0.929 . S
C181 C182 1.362 . S
C181 C184 1.378 . S
C181 H196 0.929 . S
C182 C181 1.362 . S
C182 C183 1.366 . S
C183 C180 1.365 . S
C183 C182 1.366 . S
C183 H197 0.930 . S
C184 C181 1.378 . S
C184 N185 1.315 . S
C184 H187 0.930 . S
N185 Co165 2.194 . S
N185 C180 1.328 . S
N185 C184 1.315 . S
H186 C180 0.929 . S
H187 C184 0.930 . S
H188 C176 0.929 . S
H189 C178 0.929 . S
O190 Co165 2.351 . S
O190 C193 1.244 . S
O191 Co165 2.155 . S
O191 C193 1.240 . S
O192 Co165 2.096 . S
O192 C173 1.247 . S
C193 O190 1.244 . S
C193 O191 1.240 . S
H194 C168 0.931 . S
H195 C177 0.931 . S
H196 C181 0.929 . S
H197 C183 0.930 . S
Co198 N202 2.148 . S
Co198 N208 2.128 . S
Co198 N218 2.194 . S
Co198 O223 2.351 . S
Co198 O224 2.155 . S
Co198 O225 2.096 . S
C199 N202 1.301 . S
C199 N203 1.328 . S
C199 H204 0.930 . S
C200 C201 1.333 . S
C200 N202 1.317 . S
C200 H205 0.930 . S
C201 C200 1.333 . S
C201 N203 1.350 . S
C201 H227 0.931 . S
N202 Co198 2.148 . S
N202 C199 1.301 . S
N202 C200 1.317 . S
N203 C199 1.328 . S
N203 C201 1.350 . S
H204 C199 0.930 . S
H205 C200 0.930 . S
C206 O207 1.224 . S
C206 O225 1.247 . S
O207 C206 1.224 . S
N208 Co198 2.128 . S
N208 C209 1.355 . S
N208 C211 1.311 . S
C209 N208 1.355 . S
C209 C210 1.363 . S
C209 H221 0.929 . S
C210 C209 1.363 . S
C210 N212 1.375 . S
C210 H228 0.931 . S
C211 N208 1.311 . S
C211 N212 1.347 . S
C211 H222 0.929 . S
N212 C210 1.375 . S
N212 C211 1.347 . S
C213 C216 1.365 . S
C213 N218 1.328 . S
C213 H219 0.929 . S
C214 C215 1.362 . S
C214 C217 1.378 . S
C214 H229 0.929 . S
C215 C214 1.362 . S
C215 C216 1.366 . S
C216 C213 1.365 . S
C216 C215 1.366 . S
C216 H230 0.930 . S
C217 C214 1.378 . S
C217 N218 1.315 . S
C217 H220 0.930 . S
N218 Co198 2.194 . S
N218 C213 1.328 . S
N218 C217 1.315 . S
H219 C213 0.929 . S
H220 C217 0.930 . S
H221 C209 0.929 . S
H222 C211 0.929 . S
O223 Co198 2.351 . S
O223 C226 1.244 . S
O224 Co198 2.155 . S
O224 C226 1.240 . S
O225 Co198 2.096 . S
O225 C206 1.247 . S
C226 O223 1.244 . S
C226 O224 1.240 . S
H227 C201 0.931 . S
H228 C210 0.931 . S
H229 C214 0.929 . S
H230 C216 0.930 . S
Co231 N235 2.148 . S
Co231 N241 2.128 . S
Co231 N251 2.194 . S
Co231 O256 2.351 . S
Co231 O257 2.155 . S
Co231 O258 2.096 . S
C232 N235 1.301 . S
C232 N236 1.328 . S
C232 H237 0.930 . S
C233 C234 1.333 . S
C233 N235 1.317 . S
C233 H238 0.930 . S
C234 C233 1.333 . S
C234 N236 1.350 . S
C234 H260 0.931 . S
N235 Co231 2.148 . S
N235 C232 1.301 . S
N235 C233 1.317 . S
N236 C232 1.328 . S
N236 C234 1.350 . S
H237 C232 0.930 . S
H238 C233 0.930 . S
C239 O240 1.224 . S
C239 O258 1.247 . S
O240 C239 1.224 . S
N241 Co231 2.128 . S
N241 C242 1.355 . S
N241 C244 1.311 . S
C242 N241 1.355 . S
C242 C243 1.363 . S
C242 H254 0.929 . S
C243 C242 1.363 . S
C243 N245 1.375 . S
C243 H261 0.931 . S
C244 N241 1.311 . S
C244 N245 1.347 . S
C244 H255 0.929 . S
N245 C243 1.375 . S
N245 C244 1.347 . S
C246 C249 1.365 . S
C246 N251 1.328 . S
C246 H252 0.929 . S
C247 C248 1.362 . S
C247 C250 1.378 . S
C247 H262 0.929 . S
C248 C247 1.362 . S
C248 C249 1.366 . S
C249 C246 1.365 . S
C249 C248 1.366 . S
C249 H263 0.930 . S
C250 C247 1.378 . S
C250 N251 1.315 . S
C250 H253 0.930 . S
N251 Co231 2.194 . S
N251 C246 1.328 . S
N251 C250 1.315 . S
H252 C246 0.929 . S
H253 C250 0.930 . S
H254 C242 0.929 . S
H255 C244 0.929 . S
O256 Co231 2.351 . S
O256 C259 1.244 . S
O257 Co231 2.155 . S
O257 C259 1.240 . S
O258 Co231 2.096 . S
O258 C239 1.247 . S
C259 O256 1.244 . S
C259 O257 1.240 . S
H260 C234 0.931 . S
H261 C243 0.931 . S
H262 C247 0.929 . S
H263 C249 0.930 . S
Co264 N268 2.148 . S
Co264 N274 2.128 . S
Co264 N284 2.194 . S
Co264 O289 2.351 . S
Co264 O290 2.155 . S
Co264 O291 2.096 . S
C265 N268 1.301 . S
C265 N269 1.328 . S
C265 H270 0.930 . S
C266 C267 1.333 . S
C266 N268 1.317 . S
C266 H271 0.930 . S
C267 C266 1.333 . S
C267 N269 1.350 . S
C267 H293 0.931 . S
N268 Co264 2.148 . S
N268 C265 1.301 . S
N268 C266 1.317 . S
N269 C265 1.328 . S
N269 C267 1.350 . S
H270 C265 0.930 . S
H271 C266 0.930 . S
C272 O273 1.224 . S
C272 O291 1.247 . S
O273 C272 1.224 . S
N274 Co264 2.128 . S
N274 C275 1.355 . S
N274 C277 1.311 . S
C275 N274 1.355 . S
C275 C276 1.363 . S
C275 H287 0.929 . S
C276 C275 1.363 . S
C276 N278 1.375 . S
C276 H294 0.931 . S
C277 N274 1.311 . S
C277 N278 1.347 . S
C277 H288 0.929 . S
N278 C276 1.375 . S
N278 C277 1.347 . S
C279 C282 1.365 . S
C279 N284 1.328 . S
C279 H285 0.929 . S
C280 C281 1.362 . S
C280 C283 1.378 . S
C280 H295 0.929 . S
C281 C280 1.362 . S
C281 C282 1.366 . S
C282 C279 1.365 . S
C282 C281 1.366 . S
C282 H296 0.930 . S
C283 C280 1.378 . S
C283 N284 1.315 . S
C283 H286 0.930 . S
N284 Co264 2.194 . S
N284 C279 1.328 . S
N284 C283 1.315 . S
H285 C279 0.929 . S
H286 C283 0.930 . S
H287 C275 0.929 . S
H288 C277 0.929 . S
O289 Co264 2.351 . S
O289 C292 1.244 . S
O290 Co264 2.155 . S
O290 C292 1.240 . S
O291 Co264 2.096 . S
O291 C272 1.247 . S
C292 O289 1.244 . S
C292 O290 1.240 . S
H293 C267 0.931 . S
H294 C276 0.931 . S
H295 C280 0.929 . S
H296 C282 0.930 . S
Co297 N301 2.148 . S
Co297 N307 2.128 . S
Co297 N317 2.194 . S
Co297 O322 2.351 . S
Co297 O323 2.155 . S
Co297 O324 2.096 . S
C298 N301 1.301 . S
C298 N302 1.328 . S
C298 H303 0.930 . S
C299 C300 1.333 . S
C299 N301 1.317 . S
C299 H304 0.930 . S
C300 C299 1.333 . S
C300 N302 1.350 . S
C300 H326 0.931 . S
N301 Co297 2.148 . S
N301 C298 1.301 . S
N301 C299 1.317 . S
N302 C298 1.328 . S
N302 C300 1.350 . S
H303 C298 0.930 . S
H304 C299 0.930 . S
C305 O306 1.224 . S
C305 O324 1.247 . S
O306 C305 1.224 . S
N307 Co297 2.128 . S
N307 C308 1.355 . S
N307 C310 1.311 . S
C308 N307 1.355 . S
C308 C309 1.363 . S
C308 H320 0.929 . S
C309 C308 1.363 . S
C309 N311 1.375 . S
C309 H327 0.931 . S
C310 N307 1.311 . S
C310 N311 1.347 . S
C310 H321 0.929 . S
N311 C309 1.375 . S
N311 C310 1.347 . S
C312 C315 1.365 . S
C312 N317 1.328 . S
C312 H318 0.929 . S
C313 C314 1.362 . S
C313 C316 1.378 . S
C313 H328 0.929 . S
C314 C313 1.362 . S
C314 C315 1.366 . S
C315 C312 1.365 . S
C315 C314 1.366 . S
C315 H329 0.930 . S
C316 C313 1.378 . S
C316 N317 1.315 . S
C316 H319 0.930 . S
N317 Co297 2.194 . S
N317 C312 1.328 . S
N317 C316 1.315 . S
H318 C312 0.929 . S
H319 C316 0.930 . S
H320 C308 0.929 . S
H321 C310 0.929 . S
O322 Co297 2.351 . S
O322 C325 1.244 . S
O323 Co297 2.155 . S
O323 C325 1.240 . S
O324 Co297 2.096 . S
O324 C305 1.247 . S
C325 O322 1.244 . S
C325 O323 1.240 . S
H326 C300 0.931 . S
H327 C309 0.931 . S
H328 C313 0.929 . S
H329 C315 0.930 . S
Co330 N334 2.148 . S
Co330 N340 2.128 . S
Co330 N350 2.194 . S
Co330 O355 2.351 . S
Co330 O356 2.155 . S
Co330 O357 2.096 . S
C331 N334 1.301 . S
C331 N335 1.328 . S
C331 H336 0.930 . S
C332 C333 1.333 . S
C332 N334 1.317 . S
C332 H337 0.930 . S
C333 C332 1.333 . S
C333 N335 1.350 . S
C333 H359 0.931 . S
N334 Co330 2.148 . S
N334 C331 1.301 . S
N334 C332 1.317 . S
N335 C331 1.328 . S
N335 C333 1.350 . S
H336 C331 0.930 . S
H337 C332 0.930 . S
C338 O339 1.224 . S
C338 O357 1.247 . S
O339 C338 1.224 . S
N340 Co330 2.128 . S
N340 C341 1.355 . S
N340 C343 1.311 . S
C341 N340 1.355 . S
C341 C342 1.363 . S
C341 H353 0.929 . S
C342 C341 1.363 . S
C342 N344 1.375 . S
C342 H360 0.931 . S
C343 N340 1.311 . S
C343 N344 1.347 . S
C343 H354 0.929 . S
N344 C342 1.375 . S
N344 C343 1.347 . S
C345 C348 1.365 . S
C345 N350 1.328 . S
C345 H351 0.929 . S
C346 C347 1.362 . S
C346 C349 1.378 . S
C346 H361 0.929 . S
C347 C346 1.362 . S
C347 C348 1.366 . S
C348 C345 1.365 . S
C348 C347 1.366 . S
C348 H362 0.930 . S
C349 C346 1.378 . S
C349 N350 1.315 . S
C349 H352 0.930 . S
N350 Co330 2.194 . S
N350 C345 1.328 . S
N350 C349 1.315 . S
H351 C345 0.929 . S
H352 C349 0.930 . S
H353 C341 0.929 . S
H354 C343 0.929 . S
O355 Co330 2.351 . S
O355 C358 1.244 . S
O356 Co330 2.155 . S
O356 C358 1.240 . S
O357 Co330 2.096 . S
O357 C338 1.247 . S
C358 O355 1.244 . S
C358 O356 1.240 . S
H359 C333 0.931 . S
H360 C342 0.931 . S
H361 C346 0.929 . S
H362 C348 0.930 . S
Co363 N367 2.148 . S
Co363 N373 2.128 . S
Co363 N383 2.194 . S
Co363 O388 2.351 . S
Co363 O389 2.155 . S
Co363 O390 2.096 . S
C364 N367 1.301 . S
C364 N368 1.328 . S
C364 H369 0.930 . S
C365 C366 1.333 . S
C365 N367 1.317 . S
C365 H370 0.930 . S
C366 C365 1.333 . S
C366 N368 1.350 . S
C366 H392 0.931 . S
N367 Co363 2.148 . S
N367 C364 1.301 . S
N367 C365 1.317 . S
N368 C364 1.328 . S
N368 C366 1.350 . S
H369 C364 0.930 . S
H370 C365 0.930 . S
C371 O372 1.224 . S
C371 O390 1.247 . S
O372 C371 1.224 . S
N373 Co363 2.128 . S
N373 C374 1.355 . S
N373 C376 1.311 . S
C374 N373 1.355 . S
C374 C375 1.363 . S
C374 H386 0.929 . S
C375 C374 1.363 . S
C375 N377 1.375 . S
C375 H393 0.931 . S
C376 N373 1.311 . S
C376 N377 1.347 . S
C376 H387 0.929 . S
N377 C375 1.375 . S
N377 C376 1.347 . S
C378 C381 1.365 . S
C378 N383 1.328 . S
C378 H384 0.929 . S
C379 C380 1.362 . S
C379 C382 1.378 . S
C379 H394 0.929 . S
C380 C379 1.362 . S
C380 C381 1.366 . S
C381 C378 1.365 . S
C381 C380 1.366 . S
C381 H395 0.930 . S
C382 C379 1.378 . S
C382 N383 1.315 . S
C382 H385 0.930 . S
N383 Co363 2.194 . S
N383 C378 1.328 . S
N383 C382 1.315 . S
H384 C378 0.929 . S
H385 C382 0.930 . S
H386 C374 0.929 . S
H387 C376 0.929 . S
O388 Co363 2.351 . S
O388 C391 1.244 . S
O389 Co363 2.155 . S
O389 C391 1.240 . S
O390 Co363 2.096 . S
O390 C371 1.247 . S
C391 O388 1.244 . S
C391 O389 1.240 . S
H392 C366 0.931 . S
H393 C375 0.931 . S
H394 C379 0.929 . S
H395 C381 0.930 . S
Co396 N400 2.148 . S
Co396 N406 2.128 . S
Co396 N416 2.194 . S
Co396 O421 2.351 . S
Co396 O422 2.155 . S
Co396 O423 2.096 . S
C397 N400 1.301 . S
C397 N401 1.328 . S
C397 H402 0.930 . S
C398 C399 1.333 . S
C398 N400 1.317 . S
C398 H403 0.930 . S
C399 C398 1.333 . S
C399 N401 1.350 . S
C399 H425 0.931 . S
N400 Co396 2.148 . S
N400 C397 1.301 . S
N400 C398 1.317 . S
N401 C397 1.328 . S
N401 C399 1.350 . S
H402 C397 0.930 . S
H403 C398 0.930 . S
C404 O405 1.224 . S
C404 O423 1.247 . S
O405 C404 1.224 . S
N406 Co396 2.128 . S
N406 C407 1.355 . S
N406 C409 1.311 . S
C407 N406 1.355 . S
C407 C408 1.363 . S
C407 H419 0.929 . S
C408 C407 1.363 . S
C408 N410 1.375 . S
C408 H426 0.931 . S
C409 N406 1.311 . S
C409 N410 1.347 . S
C409 H420 0.929 . S
N410 C408 1.375 . S
N410 C409 1.347 . S
C411 C414 1.365 . S
C411 N416 1.328 . S
C411 H417 0.929 . S
C412 C413 1.362 . S
C412 C415 1.378 . S
C412 H427 0.929 . S
C413 C412 1.362 . S
C413 C414 1.366 . S
C414 C411 1.365 . S
C414 C413 1.366 . S
C414 H428 0.930 . S
C415 C412 1.378 . S
C415 N416 1.315 . S
C415 H418 0.930 . S
N416 Co396 2.194 . S
N416 C411 1.328 . S
N416 C415 1.315 . S
H417 C411 0.929 . S
H418 C415 0.930 . S
H419 C407 0.929 . S
H420 C409 0.929 . S
O421 Co396 2.351 . S
O421 C424 1.244 . S
O422 Co396 2.155 . S
O422 C424 1.240 . S
O423 Co396 2.096 . S
O423 C404 1.247 . S
C424 O421 1.244 . S
C424 O422 1.240 . S
H425 C399 0.931 . S
H426 C408 0.931 . S
H427 C412 0.929 . S
H428 C414 0.930 . S
Co429 N433 2.148 . S
Co429 N439 2.128 . S
Co429 N449 2.194 . S
Co429 O454 2.351 . S
Co429 O455 2.155 . S
Co429 O456 2.096 . S
C430 N433 1.301 . S
C430 N434 1.328 . S
C430 H435 0.930 . S
C431 C432 1.333 . S
C431 N433 1.317 . S
C431 H436 0.930 . S
C432 C431 1.333 . S
C432 N434 1.350 . S
C432 H458 0.931 . S
N433 Co429 2.148 . S
N433 C430 1.301 . S
N433 C431 1.317 . S
N434 C430 1.328 . S
N434 C432 1.350 . S
H435 C430 0.930 . S
H436 C431 0.930 . S
C437 O438 1.224 . S
C437 O456 1.247 . S
O438 C437 1.224 . S
N439 Co429 2.128 . S
N439 C440 1.355 . S
N439 C442 1.311 . S
C440 N439 1.355 . S
C440 C441 1.363 . S
C440 H452 0.929 . S
C441 C440 1.363 . S
C441 N443 1.375 . S
C441 H459 0.931 . S
C442 N439 1.311 . S
C442 N443 1.347 . S
C442 H453 0.929 . S
N443 C441 1.375 . S
N443 C442 1.347 . S
C444 C447 1.365 . S
C444 N449 1.328 . S
C444 H450 0.929 . S
C445 C446 1.362 . S
C445 C448 1.378 . S
C445 H460 0.929 . S
C446 C445 1.362 . S
C446 C447 1.366 . S
C447 C444 1.365 . S
C447 C446 1.366 . S
C447 H461 0.930 . S
C448 C445 1.378 . S
C448 N449 1.315 . S
C448 H451 0.930 . S
N449 Co429 2.194 . S
N449 C444 1.328 . S
N449 C448 1.315 . S
H450 C444 0.929 . S
H451 C448 0.930 . S
H452 C440 0.929 . S
H453 C442 0.929 . S
O454 Co429 2.351 . S
O454 C457 1.244 . S
O455 Co429 2.155 . S
O455 C457 1.240 . S
O456 Co429 2.096 . S
O456 C437 1.247 . S
C457 O454 1.244 . S
C457 O455 1.240 . S
H458 C432 0.931 . S
H459 C441 0.931 . S
H460 C445 0.929 . S
H461 C447 0.930 . S
Co462 N466 2.148 . S
Co462 N472 2.128 . S
Co462 N482 2.194 . S
Co462 O487 2.351 . S
Co462 O488 2.155 . S
Co462 O489 2.096 . S
C463 N466 1.301 . S
C463 N467 1.328 . S
C463 H468 0.930 . S
C464 C465 1.333 . S
C464 N466 1.317 . S
C464 H469 0.930 . S
C465 C464 1.333 . S
C465 N467 1.350 . S
C465 H491 0.931 . S
N466 Co462 2.148 . S
N466 C463 1.301 . S
N466 C464 1.317 . S
N467 C463 1.328 . S
N467 C465 1.350 . S
H468 C463 0.930 . S
H469 C464 0.930 . S
C470 O471 1.224 . S
C470 O489 1.247 . S
O471 C470 1.224 . S
N472 Co462 2.128 . S
N472 C473 1.355 . S
N472 C475 1.311 . S
C473 N472 1.355 . S
C473 C474 1.363 . S
C473 H485 0.929 . S
C474 C473 1.363 . S
C474 N476 1.375 . S
C474 H492 0.931 . S
C475 N472 1.311 . S
C475 N476 1.347 . S
C475 H486 0.929 . S
N476 C474 1.375 . S
N476 C475 1.347 . S
C477 C480 1.365 . S
C477 N482 1.328 . S
C477 H483 0.929 . S
C478 C479 1.362 . S
C478 C481 1.378 . S
C478 H493 0.929 . S
C479 C478 1.362 . S
C479 C480 1.366 . S
C480 C477 1.365 . S
C480 C479 1.366 . S
C480 H494 0.930 . S
C481 C478 1.378 . S
C481 N482 1.315 . S
C481 H484 0.930 . S
N482 Co462 2.194 . S
N482 C477 1.328 . S
N482 C481 1.315 . S
H483 C477 0.929 . S
H484 C481 0.930 . S
H485 C473 0.929 . S
H486 C475 0.929 . S
O487 Co462 2.351 . S
O487 C490 1.244 . S
O488 Co462 2.155 . S
O488 C490 1.240 . S
O489 Co462 2.096 . S
O489 C470 1.247 . S
C490 O487 1.244 . S
C490 O488 1.240 . S
H491 C465 0.931 . S
H492 C474 0.931 . S
H493 C478 0.929 . S
H494 C480 0.930 . S
Co495 N499 2.148 . S
Co495 N505 2.128 . S
Co495 N515 2.194 . S
Co495 O520 2.351 . S
Co495 O521 2.155 . S
Co495 O522 2.096 . S
C496 N499 1.301 . S
C496 N500 1.328 . S
C496 H501 0.930 . S
C497 C498 1.333 . S
C497 N499 1.317 . S
C497 H502 0.930 . S
C498 C497 1.333 . S
C498 N500 1.350 . S
C498 H524 0.931 . S
N499 Co495 2.148 . S
N499 C496 1.301 . S
N499 C497 1.317 . S
N500 C496 1.328 . S
N500 C498 1.350 . S
H501 C496 0.930 . S
H502 C497 0.930 . S
C503 O504 1.224 . S
C503 O522 1.247 . S
O504 C503 1.224 . S
N505 Co495 2.128 . S
N505 C506 1.355 . S
N505 C508 1.311 . S
C506 N505 1.355 . S
C506 C507 1.363 . S
C506 H518 0.929 . S
C507 C506 1.363 . S
C507 N509 1.375 . S
C507 H525 0.931 . S
C508 N505 1.311 . S
C508 N509 1.347 . S
C508 H519 0.929 . S
N509 C507 1.375 . S
N509 C508 1.347 . S
C510 C513 1.365 . S
C510 N515 1.328 . S
C510 H516 0.929 . S
C511 C512 1.362 . S
C511 C514 1.378 . S
C511 H526 0.929 . S
C512 C511 1.362 . S
C512 C513 1.366 . S
C513 C510 1.365 . S
C513 C512 1.366 . S
C513 H527 0.930 . S
C514 C511 1.378 . S
C514 N515 1.315 . S
C514 H517 0.930 . S
N515 Co495 2.194 . S
N515 C510 1.328 . S
N515 C514 1.315 . S
H516 C510 0.929 . S
H517 C514 0.930 . S
H518 C506 0.929 . S
H519 C508 0.929 . S
O520 Co495 2.351 . S
O520 C523 1.244 . S
O521 Co495 2.155 . S
O521 C523 1.240 . S
O522 Co495 2.096 . S
O522 C503 1.247 . S
C523 O520 1.244 . S
C523 O521 1.240 . S
H524 C498 0.931 . S
H525 C507 0.931 . S
H526 C511 0.929 . S
H527 C513 0.930 . S
Co528 N532 2.148 . S
Co528 N538 2.128 . S
Co528 N548 2.194 . S
Co528 O553 2.351 . S
Co528 O554 2.155 . S
Co528 O555 2.096 . S
C529 N532 1.301 . S
C529 N533 1.328 . S
C529 H534 0.930 . S
C530 C531 1.333 . S
C530 N532 1.317 . S
C530 H535 0.930 . S
C531 C530 1.333 . S
C531 N533 1.350 . S
C531 H557 0.931 . S
N532 Co528 2.148 . S
N532 C529 1.301 . S
N532 C530 1.317 . S
N533 C529 1.328 . S
N533 C531 1.350 . S
H534 C529 0.930 . S
H535 C530 0.930 . S
C536 O537 1.224 . S
C536 O555 1.247 . S
O537 C536 1.224 . S
N538 Co528 2.128 . S
N538 C539 1.355 . S
N538 C541 1.311 . S
C539 N538 1.355 . S
C539 C540 1.363 . S
C539 H551 0.929 . S
C540 C539 1.363 . S
C540 N542 1.375 . S
C540 H558 0.931 . S
C541 N538 1.311 . S
C541 N542 1.347 . S
C541 H552 0.929 . S
N542 C540 1.375 . S
N542 C541 1.347 . S
C543 C546 1.365 . S
C543 N548 1.328 . S
C543 H549 0.929 . S
C544 C545 1.362 . S
C544 C547 1.378 . S
C544 H559 0.929 . S
C545 C544 1.362 . S
C545 C546 1.366 . S
C546 C543 1.365 . S
C546 C545 1.366 . S
C546 H560 0.930 . S
C547 C544 1.378 . S
C547 N548 1.315 . S
C547 H550 0.930 . S
N548 Co528 2.194 . S
N548 C543 1.328 . S
N548 C547 1.315 . S
H549 C543 0.929 . S
H550 C547 0.930 . S
H551 C539 0.929 . S
H552 C541 0.929 . S
O553 Co528 2.351 . S
O553 C556 1.244 . S
O554 Co528 2.155 . S
O554 C556 1.240 . S
O555 Co528 2.096 . S
O555 C536 1.247 . S
C556 O553 1.244 . S
C556 O554 1.240 . S
H557 C531 0.931 . S
H558 C540 0.931 . S
H559 C544 0.929 . S
H560 C546 0.930 . S
Co561 N565 2.148 . S
Co561 N571 2.128 . S
Co561 N581 2.194 . S
Co561 O586 2.351 . S
Co561 O587 2.155 . S
Co561 O588 2.096 . S
C562 N565 1.301 . S
C562 N566 1.328 . S
C562 H567 0.930 . S
C563 C564 1.333 . S
C563 N565 1.317 . S
C563 H568 0.930 . S
C564 C563 1.333 . S
C564 N566 1.350 . S
C564 H590 0.931 . S
N565 Co561 2.148 . S
N565 C562 1.301 . S
N565 C563 1.317 . S
N566 C562 1.328 . S
N566 C564 1.350 . S
H567 C562 0.930 . S
H568 C563 0.930 . S
C569 O570 1.224 . S
C569 O588 1.247 . S
O570 C569 1.224 . S
N571 Co561 2.128 . S
N571 C572 1.355 . S
N571 C574 1.311 . S
C572 N571 1.355 . S
C572 C573 1.363 . S
C572 H584 0.929 . S
C573 C572 1.363 . S
C573 N575 1.375 . S
C573 H591 0.931 . S
C574 N571 1.311 . S
C574 N575 1.347 . S
C574 H585 0.929 . S
N575 C573 1.375 . S
N575 C574 1.347 . S
C576 C579 1.365 . S
C576 N581 1.328 . S
C576 H582 0.929 . S
C577 C578 1.362 . S
C577 C580 1.378 . S
C577 H592 0.929 . S
C578 C577 1.362 . S
C578 C579 1.366 . S
C579 C576 1.365 . S
C579 C578 1.366 . S
C579 H593 0.930 . S
C580 C577 1.378 . S
C580 N581 1.315 . S
C580 H583 0.930 . S
N581 Co561 2.194 . S
N581 C576 1.328 . S
N581 C580 1.315 . S
H582 C576 0.929 . S
H583 C580 0.930 . S
H584 C572 0.929 . S
H585 C574 0.929 . S
O586 Co561 2.351 . S
O586 C589 1.244 . S
O587 Co561 2.155 . S
O587 C589 1.240 . S
O588 Co561 2.096 . S
O588 C569 1.247 . S
C589 O586 1.244 . S
C589 O587 1.240 . S
H590 C564 0.931 . S
H591 C573 0.931 . S
H592 C577 0.929 . S
H593 C579 0.930 . S
Co594 N598 2.148 . S
Co594 N604 2.128 . S
Co594 N614 2.194 . S
Co594 O619 2.351 . S
Co594 O620 2.155 . S
Co594 O621 2.096 . S
C595 N598 1.301 . S
C595 N599 1.328 . S
C595 H600 0.930 . S
C596 C597 1.333 . S
C596 N598 1.317 . S
C596 H601 0.930 . S
C597 C596 1.333 . S
C597 N599 1.350 . S
C597 H623 0.931 . S
N598 Co594 2.148 . S
N598 C595 1.301 . S
N598 C596 1.317 . S
N599 C595 1.328 . S
N599 C597 1.350 . S
H600 C595 0.930 . S
H601 C596 0.930 . S
C602 O603 1.224 . S
C602 O621 1.247 . S
O603 C602 1.224 . S
N604 Co594 2.128 . S
N604 C605 1.355 . S
N604 C607 1.311 . S
C605 N604 1.355 . S
C605 C606 1.363 . S
C605 H617 0.929 . S
C606 C605 1.363 . S
C606 N608 1.375 . S
C606 H624 0.931 . S
C607 N604 1.311 . S
C607 N608 1.347 . S
C607 H618 0.929 . S
N608 C606 1.375 . S
N608 C607 1.347 . S
C609 C612 1.365 . S
C609 N614 1.328 . S
C609 H615 0.929 . S
C610 C611 1.362 . S
C610 C613 1.378 . S
C610 H625 0.929 . S
C611 C610 1.362 . S
C611 C612 1.366 . S
C612 C609 1.365 . S
C612 C611 1.366 . S
C612 H626 0.930 . S
C613 C610 1.378 . S
C613 N614 1.315 . S
C613 H616 0.930 . S
N614 Co594 2.194 . S
N614 C609 1.328 . S
N614 C613 1.315 . S
H615 C609 0.929 . S
H616 C613 0.930 . S
H617 C605 0.929 . S
H618 C607 0.929 . S
O619 Co594 2.351 . S
O619 C622 1.244 . S
O620 Co594 2.155 . S
O620 C622 1.240 . S
O621 Co594 2.096 . S
O621 C602 1.247 . S
C622 O619 1.244 . S
C622 O620 1.240 . S
H623 C597 0.931 . S
H624 C606 0.931 . S
H625 C610 0.929 . S
H626 C612 0.930 . S
Co627 N631 2.148 . S
Co627 N637 2.128 . S
Co627 N647 2.194 . S
Co627 O652 2.351 . S
Co627 O653 2.155 . S
Co627 O654 2.096 . S
C628 N631 1.301 . S
C628 N632 1.328 . S
C628 H633 0.930 . S
C629 C630 1.333 1_565 S
C629 N631 1.317 . S
C629 H634 0.945 . S
C630 C629 1.333 1_545 S
C630 N632 1.350 1_545 S
C630 H656 0.931 . S
N631 Co627 2.148 . S
N631 C628 1.301 . S
N631 C629 1.317 . S
N632 C628 1.328 . S
N632 C630 1.350 1_565 S
H633 C628 0.930 . S
H634 C629 0.945 . S
C635 O636 1.224 . S
C635 O654 1.247 . S
O636 C635 1.224 . S
N637 Co627 2.128 . S
N637 C638 1.355 . S
N637 C640 1.311 . S
C638 N637 1.355 . S
C638 C639 1.363 . S
C638 H650 0.929 . S
C639 C638 1.363 . S
C639 N641 1.375 . S
C639 H657 0.931 . S
C640 N637 1.311 . S
C640 N641 1.347 . S
C640 H651 0.929 . S
N641 C639 1.375 . S
N641 C640 1.347 . S
C642 C645 1.365 . S
C642 N647 1.328 . S
C642 H648 0.929 . S
C643 C644 1.362 . S
C643 C646 1.378 . S
C643 H658 0.929 . S
C644 C643 1.362 . S
C644 C645 1.366 . S
C645 C642 1.365 . S
C645 C644 1.366 . S
C645 H659 0.930 . S
C646 C643 1.378 . S
C646 N647 1.315 . S
C646 H649 0.930 . S
N647 Co627 2.194 . S
N647 C642 1.328 . S
N647 C646 1.315 . S
H648 C642 0.929 . S
H649 C646 0.930 . S
H650 C638 0.929 . S
H651 C640 0.929 . S
O652 Co627 2.351 . S
O652 C655 1.244 . S
O653 Co627 2.155 . S
O653 C655 1.240 . S
O654 Co627 2.096 . S
O654 C635 1.247 . S
C655 O652 1.244 . S
C655 O653 1.240 . S
H656 C630 0.931 . S
H657 C639 0.931 . S
H658 C643 0.929 . S
H659 C645 0.930 . S
Co660 N664 2.148 . S
Co660 N670 2.128 . S
Co660 N680 2.194 . S
Co660 O685 2.351 . S
Co660 O686 2.155 . S
Co660 O687 2.096 . S
C661 N664 1.301 . S
C661 N665 1.328 . S
C661 H666 0.930 . S
C662 C663 1.333 . S
C662 N664 1.317 . S
C662 H667 0.930 . S
C663 C662 1.333 . S
C663 N665 1.350 . S
C663 H689 0.931 . S
N664 Co660 2.148 . S
N664 C661 1.301 . S
N664 C662 1.317 . S
N665 C661 1.328 . S
N665 C663 1.350 . S
H666 C661 0.930 . S
H667 C662 0.930 . S
C668 O669 1.224 . S
C668 O687 1.247 . S
O669 C668 1.224 . S
N670 Co660 2.128 . S
N670 C671 1.355 . S
N670 C673 1.311 . S
C671 N670 1.355 . S
C671 C672 1.363 . S
C671 H683 0.929 . S
C672 C671 1.363 . S
C672 N674 1.375 . S
C672 H690 0.931 . S
C673 N670 1.311 . S
C673 N674 1.347 . S
C673 H684 0.929 . S
N674 C672 1.375 . S
N674 C673 1.347 . S
C675 C678 1.365 . S
C675 N680 1.328 . S
C675 H681 0.929 . S
C676 C677 1.362 . S
C676 C679 1.378 . S
C676 H691 0.929 . S
C677 C676 1.362 . S
C677 C678 1.366 . S
C678 C675 1.365 . S
C678 C677 1.366 . S
C678 H692 0.930 . S
C679 C676 1.378 . S
C679 N680 1.315 . S
C679 H682 0.930 . S
N680 Co660 2.194 . S
N680 C675 1.328 . S
N680 C679 1.315 . S
H681 C675 0.929 . S
H682 C679 0.930 . S
H683 C671 0.929 . S
H684 C673 0.929 . S
O685 Co660 2.351 . S
O685 C688 1.244 . S
O686 Co660 2.155 . S
O686 C688 1.240 . S
O687 Co660 2.096 . S
O687 C668 1.247 . S
C688 O685 1.244 . S
C688 O686 1.240 . S
H689 C663 0.931 . S
H690 C672 0.931 . S
H691 C676 0.929 . S
H692 C678 0.930 . S
Co693 N697 2.148 . S
Co693 N703 2.128 . S
Co693 N713 2.194 . S
Co693 O718 2.351 . S
Co693 O719 2.155 . S
Co693 O720 2.096 . S
C694 N697 1.301 . S
C694 N698 1.328 . S
C694 H699 0.930 . S
C695 C696 1.333 . S
C695 N697 1.317 . S
C695 H700 0.930 . S
C696 C695 1.333 . S
C696 N698 1.350 . S
C696 H722 0.931 . S
N697 Co693 2.148 . S
N697 C694 1.301 . S
N697 C695 1.317 . S
N698 C694 1.328 . S
N698 C696 1.350 . S
H699 C694 0.930 . S
H700 C695 0.930 . S
C701 O702 1.224 . S
C701 O720 1.247 . S
O702 C701 1.224 . S
N703 Co693 2.128 . S
N703 C704 1.355 . S
N703 C706 1.311 . S
C704 N703 1.355 . S
C704 C705 1.363 . S
C704 H716 0.929 . S
C705 C704 1.363 . S
C705 N707 1.375 . S
C705 H723 0.931 . S
C706 N703 1.311 . S
C706 N707 1.347 . S
C706 H717 0.929 . S
N707 C705 1.375 . S
N707 C706 1.347 . S
C708 C711 1.365 . S
C708 N713 1.328 . S
C708 H714 0.929 . S
C709 C710 1.362 . S
C709 C712 1.378 . S
C709 H724 0.929 . S
C710 C709 1.362 . S
C710 C711 1.366 . S
C711 C708 1.365 . S
C711 C710 1.366 . S
C711 H725 0.930 . S
C712 C709 1.378 . S
C712 N713 1.315 . S
C712 H715 0.930 . S
N713 Co693 2.194 . S
N713 C708 1.328 . S
N713 C712 1.315 . S
H714 C708 0.929 . S
H715 C712 0.930 . S
H716 C704 0.929 . S
H717 C706 0.929 . S
O718 Co693 2.351 . S
O718 C721 1.244 . S
O719 Co693 2.155 . S
O719 C721 1.240 . S
O720 Co693 2.096 . S
O720 C701 1.247 . S
C721 O718 1.244 . S
C721 O719 1.240 . S
H722 C696 0.931 . S
H723 C705 0.931 . S
H724 C709 0.929 . S
H725 C711 0.930 . S
Co726 N730 2.148 . S
Co726 N736 2.128 . S
Co726 N746 2.194 . S
Co726 O751 2.351 . S
Co726 O752 2.155 . S
Co726 O753 2.096 . S
C727 N730 1.301 . S
C727 N731 1.328 . S
C727 H732 0.930 . S
C728 C729 1.333 . S
C728 N730 1.317 . S
C728 H733 0.930 . S
C729 C728 1.333 . S
C729 N731 1.350 . S
C729 H755 0.931 . S
N730 Co726 2.148 . S
N730 C727 1.301 . S
N730 C728 1.317 . S
N731 C727 1.328 . S
N731 C729 1.350 . S
H732 C727 0.930 . S
H733 C728 0.930 . S
C734 O735 1.224 . S
C734 O753 1.247 . S
O735 C734 1.224 . S
N736 Co726 2.128 . S
N736 C737 1.355 . S
N736 C739 1.311 . S
C737 N736 1.355 . S
C737 C738 1.363 . S
C737 H749 0.929 . S
C738 C737 1.363 . S
C738 N740 1.375 . S
C738 H756 0.931 . S
C739 N736 1.311 . S
C739 N740 1.347 . S
C739 H750 0.929 . S
N740 C738 1.375 . S
N740 C739 1.347 . S
C741 C744 1.365 . S
C741 N746 1.328 . S
C741 H747 0.929 . S
C742 C743 1.362 . S
C742 C745 1.378 . S
C742 H757 0.929 . S
C743 C742 1.362 . S
C743 C744 1.366 . S
C744 C741 1.365 . S
C744 C743 1.366 . S
C744 H758 0.930 . S
C745 C742 1.378 . S
C745 N746 1.315 . S
C745 H748 0.930 . S
N746 Co726 2.194 . S
N746 C741 1.328 . S
N746 C745 1.315 . S
H747 C741 0.929 . S
H748 C745 0.930 . S
H749 C737 0.929 . S
H750 C739 0.929 . S
O751 Co726 2.351 . S
O751 C754 1.244 . S
O752 Co726 2.155 . S
O752 C754 1.240 . S
O753 Co726 2.096 . S
O753 C734 1.247 . S
C754 O751 1.244 . S
C754 O752 1.240 . S
H755 C729 0.931 . S
H756 C738 0.931 . S
H757 C742 0.929 . S
H758 C744 0.930 . S
Co759 N763 2.148 . S
Co759 N769 2.128 . S
Co759 N779 2.194 . S
Co759 O784 2.351 . S
Co759 O785 2.155 . S
Co759 O786 2.096 . S
C760 N763 1.301 . S
C760 N764 1.328 . S
C760 H765 0.930 . S
C761 C762 1.333 1_455 S
C761 N763 1.317 . S
C761 H766 0.945 . S
C762 C761 1.333 1_655 S
C762 N764 1.350 1_655 S
C762 H788 0.931 . S
N763 Co759 2.148 . S
N763 C760 1.301 . S
N763 C761 1.317 . S
N764 C760 1.328 . S
N764 C762 1.350 1_455 S
H765 C760 0.930 . S
H766 C761 0.945 . S
C767 O768 1.224 . S
C767 O786 1.247 . S
O768 C767 1.224 . S
N769 Co759 2.128 . S
N769 C770 1.355 . S
N769 C772 1.311 . S
C770 N769 1.355 . S
C770 C771 1.363 . S
C770 H782 0.929 . S
C771 C770 1.363 . S
C771 N773 1.375 . S
C771 H789 0.931 . S
C772 N769 1.311 . S
C772 N773 1.347 . S
C772 H783 0.929 . S
N773 C771 1.375 . S
N773 C772 1.347 . S
C774 C777 1.365 . S
C774 N779 1.328 . S
C774 H780 0.929 . S
C775 C776 1.362 . S
C775 C778 1.378 . S
C775 H790 0.929 . S
C776 C775 1.362 . S
C776 C777 1.366 . S
C777 C774 1.365 . S
C777 C776 1.366 . S
C777 H791 0.930 . S
C778 C775 1.378 . S
C778 N779 1.315 . S
C778 H781 0.930 . S
N779 Co759 2.194 . S
N779 C774 1.328 . S
N779 C778 1.315 . S
H780 C774 0.929 . S
H781 C778 0.930 . S
H782 C770 0.929 . S
H783 C772 0.929 . S
O784 Co759 2.351 . S
O784 C787 1.244 . S
O785 Co759 2.155 . S
O785 C787 1.240 . S
O786 Co759 2.096 . S
O786 C767 1.247 . S
C787 O784 1.244 . S
C787 O785 1.240 . S
H788 C762 0.931 . S
H789 C771 0.931 . S
H790 C775 0.929 . S
H791 C777 0.930 . S
Co792 N796 2.148 . S
Co792 N802 2.128 . S
Co792 N812 2.194 . S
Co792 O817 2.351 . S
Co792 O818 2.155 . S
Co792 O819 2.096 . S
C793 N796 1.301 . S
C793 N797 1.328 . S
C793 H798 0.930 . S
C794 C795 1.333 . S
C794 N796 1.317 . S
C794 H799 0.930 . S
C795 C794 1.333 . S
C795 N797 1.350 . S
C795 H821 0.931 . S
N796 Co792 2.148 . S
N796 C793 1.301 . S
N796 C794 1.317 . S
N797 C793 1.328 . S
N797 C795 1.350 . S
H798 C793 0.930 . S
H799 C794 0.930 . S
C800 O801 1.224 . S
C800 O819 1.247 . S
O801 C800 1.224 . S
N802 Co792 2.128 . S
N802 C803 1.355 . S
N802 C805 1.311 . S
C803 N802 1.355 . S
C803 C804 1.363 . S
C803 H815 0.929 . S
C804 C803 1.363 . S
C804 N806 1.375 . S
C804 H822 0.931 . S
C805 N802 1.311 . S
C805 N806 1.347 . S
C805 H816 0.929 . S
N806 C804 1.375 . S
N806 C805 1.347 . S
C807 C810 1.365 . S
C807 N812 1.328 . S
C807 H813 0.929 . S
C808 C809 1.362 . S
C808 C811 1.378 . S
C808 H823 0.929 . S
C809 C808 1.362 . S
C809 C810 1.366 . S
C810 C807 1.365 . S
C810 C809 1.366 . S
C810 H824 0.930 . S
C811 C808 1.378 . S
C811 N812 1.315 . S
C811 H814 0.930 . S
N812 Co792 2.194 . S
N812 C807 1.328 . S
N812 C811 1.315 . S
H813 C807 0.929 . S
H814 C811 0.930 . S
H815 C803 0.929 . S
H816 C805 0.929 . S
O817 Co792 2.351 . S
O817 C820 1.244 . S
O818 Co792 2.155 . S
O818 C820 1.240 . S
O819 Co792 2.096 . S
O819 C800 1.247 . S
C820 O817 1.244 . S
C820 O818 1.240 . S
H821 C795 0.931 . S
H822 C804 0.931 . S
H823 C808 0.929 . S
H824 C810 0.930 . S
Co825 N829 2.148 . S
Co825 N835 2.128 . S
Co825 N845 2.194 . S
Co825 O850 2.351 . S
Co825 O851 2.155 . S
Co825 O852 2.096 . S
C826 N829 1.301 . S
C826 N830 1.328 . S
C826 H831 0.930 . S
C827 C828 1.333 1_554 S
C827 N829 1.317 . S
C827 H832 0.945 . S
C828 C827 1.333 1_556 S
C828 N830 1.350 1_556 S
C828 H854 0.931 . S
N829 Co825 2.148 . S
N829 C826 1.301 . S
N829 C827 1.317 . S
N830 C826 1.328 . S
N830 C828 1.350 1_554 S
H831 C826 0.930 . S
H832 C827 0.945 . S
C833 O834 1.224 . S
C833 O852 1.247 . S
O834 C833 1.224 . S
N835 Co825 2.128 . S
N835 C836 1.355 . S
N835 C838 1.311 . S
C836 N835 1.355 . S
C836 C837 1.363 . S
C836 H848 0.929 . S
C837 C836 1.363 . S
C837 N839 1.375 . S
C837 H855 0.931 . S
C838 N835 1.311 . S
C838 N839 1.347 . S
C838 H849 0.929 . S
N839 C837 1.375 . S
N839 C838 1.347 . S
C840 C843 1.365 . S
C840 N845 1.328 . S
C840 H846 0.929 . S
C841 C842 1.362 . S
C841 C844 1.378 . S
C841 H856 0.929 . S
C842 C841 1.362 . S
C842 C843 1.366 . S
C843 C840 1.365 . S
C843 C842 1.366 . S
C843 H857 0.930 . S
C844 C841 1.378 . S
C844 N845 1.315 . S
C844 H847 0.930 . S
N845 Co825 2.194 . S
N845 C840 1.328 . S
N845 C844 1.315 . S
H846 C840 0.929 . S
H847 C844 0.930 . S
H848 C836 0.929 . S
H849 C838 0.929 . S
O850 Co825 2.351 . S
O850 C853 1.244 . S
O851 Co825 2.155 . S
O851 C853 1.240 . S
O852 Co825 2.096 . S
O852 C833 1.247 . S
C853 O850 1.244 . S
C853 O851 1.240 . S
H854 C828 0.931 . S
H855 C837 0.931 . S
H856 C841 0.929 . S
H857 C843 0.930 . S
Co858 N862 2.148 . S
Co858 N868 2.128 . S
Co858 N878 2.194 . S
Co858 O883 2.351 . S
Co858 O884 2.155 . S
Co858 O885 2.096 . S
C859 N862 1.301 . S
C859 N863 1.328 . S
C859 H864 0.930 . S
C860 C861 1.333 . S
C860 N862 1.317 . S
C860 H865 0.930 . S
C861 C860 1.333 . S
C861 N863 1.350 . S
C861 H887 0.931 . S
N862 Co858 2.148 . S
N862 C859 1.301 . S
N862 C860 1.317 . S
N863 C859 1.328 . S
N863 C861 1.350 . S
H864 C859 0.930 . S
H865 C860 0.930 . S
C866 O867 1.224 . S
C866 O885 1.247 . S
O867 C866 1.224 . S
N868 Co858 2.128 . S
N868 C869 1.355 . S
N868 C871 1.311 . S
C869 N868 1.355 . S
C869 C870 1.363 . S
C869 H881 0.929 . S
C870 C869 1.363 . S
C870 N872 1.375 . S
C870 H888 0.931 . S
C871 N868 1.311 . S
C871 N872 1.347 . S
C871 H882 0.929 . S
N872 C870 1.375 . S
N872 C871 1.347 . S
C873 C876 1.365 . S
C873 N878 1.328 . S
C873 H879 0.929 . S
C874 C875 1.362 . S
C874 C877 1.378 . S
C874 H889 0.929 . S
C875 C874 1.362 . S
C875 C876 1.366 . S
C876 C873 1.365 . S
C876 C875 1.366 . S
C876 H890 0.930 . S
C877 C874 1.378 . S
C877 N878 1.315 . S
C877 H880 0.930 . S
N878 Co858 2.194 . S
N878 C873 1.328 . S
N878 C877 1.315 . S
H879 C873 0.929 . S
H880 C877 0.930 . S
H881 C869 0.929 . S
H882 C871 0.929 . S
O883 Co858 2.351 . S
O883 C886 1.244 . S
O884 Co858 2.155 . S
O884 C886 1.240 . S
O885 Co858 2.096 . S
O885 C866 1.247 . S
C886 O883 1.244 . S
C886 O884 1.240 . S
H887 C861 0.931 . S
H888 C870 0.931 . S
H889 C874 0.929 . S
H890 C876 0.930 . S
Co891 N895 2.148 . S
Co891 N901 2.128 . S
Co891 N911 2.194 . S
Co891 O916 2.351 . S
Co891 O917 2.155 . S
Co891 O918 2.096 . S
C892 N895 1.301 . S
C892 N896 1.328 . S
C892 H897 0.930 . S
C893 C894 1.333 . S
C893 N895 1.317 . S
C893 H898 0.930 . S
C894 C893 1.333 . S
C894 N896 1.350 . S
C894 H920 0.931 . S
N895 Co891 2.148 . S
N895 C892 1.301 . S
N895 C893 1.317 . S
N896 C892 1.328 . S
N896 C894 1.350 . S
H897 C892 0.930 . S
H898 C893 0.930 . S
C899 O900 1.224 . S
C899 O918 1.247 . S
O900 C899 1.224 . S
N901 Co891 2.128 . S
N901 C902 1.355 . S
N901 C904 1.311 . S
C902 N901 1.355 . S
C902 C903 1.363 . S
C902 H914 0.929 . S
C903 C902 1.363 . S
C903 N905 1.375 . S
C903 H921 0.931 . S
C904 N901 1.311 . S
C904 N905 1.347 . S
C904 H915 0.929 . S
N905 C903 1.375 . S
N905 C904 1.347 . S
C906 C909 1.365 . S
C906 N911 1.328 . S
C906 H912 0.929 . S
C907 C908 1.362 . S
C907 C910 1.378 . S
C907 H922 0.929 . S
C908 C907 1.362 . S
C908 C909 1.366 . S
C909 C906 1.365 . S
C909 C908 1.366 . S
C909 H923 0.930 . S
C910 C907 1.378 . S
C910 N911 1.315 . S
C910 H913 0.930 . S
N911 Co891 2.194 . S
N911 C906 1.328 . S
N911 C910 1.315 . S
H912 C906 0.929 . S
H913 C910 0.930 . S
H914 C902 0.929 . S
H915 C904 0.929 . S
O916 Co891 2.351 . S
O916 C919 1.244 . S
O917 Co891 2.155 . S
O917 C919 1.240 . S
O918 Co891 2.096 . S
O918 C899 1.247 . S
C919 O916 1.244 . S
C919 O917 1.240 . S
H920 C894 0.931 . S
H921 C903 0.931 . S
H922 C907 0.929 . S
H923 C909 0.930 . S
Co924 N928 2.148 . S
Co924 N934 2.128 . S
Co924 N944 2.194 . S
Co924 O949 2.351 . S
Co924 O950 2.155 . S
Co924 O951 2.096 . S
C925 N928 1.301 . S
C925 N929 1.328 . S
C925 H930 0.930 . S
C926 C927 1.333 1_556 S
C926 N928 1.317 . S
C926 H931 0.945 . S
C927 C926 1.333 1_554 S
C927 N929 1.350 1_554 S
C927 H953 0.931 . S
N928 Co924 2.148 . S
N928 C925 1.301 . S
N928 C926 1.317 . S
N929 C925 1.328 . S
N929 C927 1.350 1_556 S
H930 C925 0.930 . S
H931 C926 0.945 . S
C932 O933 1.224 . S
C932 O951 1.247 . S
O933 C932 1.224 . S
N934 Co924 2.128 . S
N934 C935 1.355 . S
N934 C937 1.311 . S
C935 N934 1.355 . S
C935 C936 1.363 . S
C935 H947 0.929 . S
C936 C935 1.363 . S
C936 N938 1.375 . S
C936 H954 0.931 . S
C937 N934 1.311 . S
C937 N938 1.347 . S
C937 H948 0.929 . S
N938 C936 1.375 . S
N938 C937 1.347 . S
C939 C942 1.365 . S
C939 N944 1.328 . S
C939 H945 0.929 . S
C940 C941 1.362 . S
C940 C943 1.378 . S
C940 H955 0.929 . S
C941 C940 1.362 . S
C941 C942 1.366 . S
C942 C939 1.365 . S
C942 C941 1.366 . S
C942 H956 0.930 . S
C943 C940 1.378 . S
C943 N944 1.315 . S
C943 H946 0.930 . S
N944 Co924 2.194 . S
N944 C939 1.328 . S
N944 C943 1.315 . S
H945 C939 0.929 . S
H946 C943 0.930 . S
H947 C935 0.929 . S
H948 C937 0.929 . S
O949 Co924 2.351 . S
O949 C952 1.244 . S
O950 Co924 2.155 . S
O950 C952 1.240 . S
O951 Co924 2.096 . S
O951 C932 1.247 . S
C952 O949 1.244 . S
C952 O950 1.240 . S
H953 C927 0.931 . S
H954 C936 0.931 . S
H955 C940 0.929 . S
H956 C942 0.930 . S
Co957 N961 2.148 . S
Co957 N967 2.128 . S
Co957 N977 2.194 . S
Co957 O982 2.351 . S
Co957 O983 2.155 . S
Co957 O984 2.096 . S
C958 N961 1.301 . S
C958 N962 1.328 . S
C958 H963 0.930 . S
C959 C960 1.333 . S
C959 N961 1.317 . S
C959 H964 0.930 . S
C960 C959 1.333 . S
C960 N962 1.350 . S
C960 H986 0.931 . S
N961 Co957 2.148 . S
N961 C958 1.301 . S
N961 C959 1.317 . S
N962 C958 1.328 . S
N962 C960 1.350 . S
H963 C958 0.930 . S
H964 C959 0.930 . S
C965 O966 1.224 . S
C965 O984 1.247 . S
O966 C965 1.224 . S
N967 Co957 2.128 . S
N967 C968 1.355 . S
N967 C970 1.311 . S
C968 N967 1.355 . S
C968 C969 1.363 . S
C968 H980 0.929 . S
C969 C968 1.363 . S
C969 N971 1.375 . S
C969 H987 0.931 . S
C970 N967 1.311 . S
C970 N971 1.347 . S
C970 H981 0.929 . S
N971 C969 1.375 . S
N971 C970 1.347 . S
C972 C975 1.365 . S
C972 N977 1.328 . S
C972 H978 0.929 . S
C973 C974 1.362 . S
C973 C976 1.378 . S
C973 H988 0.929 . S
C974 C973 1.362 . S
C974 C975 1.366 . S
C975 C972 1.365 . S
C975 C974 1.366 . S
C975 H989 0.930 . S
C976 C973 1.378 . S
C976 N977 1.315 . S
C976 H979 0.930 . S
N977 Co957 2.194 . S
N977 C972 1.328 . S
N977 C976 1.315 . S
H978 C972 0.929 . S
H979 C976 0.930 . S
H980 C968 0.929 . S
H981 C970 0.929 . S
O982 Co957 2.351 . S
O982 C985 1.244 . S
O983 Co957 2.155 . S
O983 C985 1.240 . S
O984 Co957 2.096 . S
O984 C965 1.247 . S
C985 O982 1.244 . S
C985 O983 1.240 . S
H986 C960 0.931 . S
H987 C969 0.931 . S
H988 C973 0.929 . S
H989 C975 0.930 . S
Co990 N994 2.148 . S
Co990 N1000 2.128 . S
Co990 N1010 2.194 . S
Co990 O1015 2.351 . S
Co990 O1016 2.155 . S
Co990 O1017 2.096 . S
C991 N994 1.301 . S
C991 N995 1.328 . S
C991 H996 0.930 . S
C992 C993 1.333 . S
C992 N994 1.317 . S
C992 H997 0.930 . S
C993 C992 1.333 . S
C993 N995 1.350 . S
C993 H1019 0.931 . S
N994 Co990 2.148 . S
N994 C991 1.301 . S
N994 C992 1.317 . S
N995 C991 1.328 . S
N995 C993 1.350 . S
H996 C991 0.930 . S
H997 C992 0.930 . S
C998 O999 1.224 . S
C998 O1017 1.247 . S
O999 C998 1.224 . S
N1000 Co990 2.128 . S
N1000 C1001 1.355 . S
N1000 C1003 1.311 . S
C1001 N1000 1.355 . S
C1001 C1002 1.363 . S
C1001 H1013 0.929 . S
C1002 C1001 1.363 . S
C1002 N1004 1.375 . S
C1002 H1020 0.931 . S
C1003 N1000 1.311 . S
C1003 N1004 1.347 . S
C1003 H1014 0.929 . S
N1004 C1002 1.375 . S
N1004 C1003 1.347 . S
C1005 C1008 1.365 . S
C1005 N1010 1.328 . S
C1005 H1011 0.929 . S
C1006 C1007 1.362 . S
C1006 C1009 1.378 . S
C1006 H1021 0.929 . S
C1007 C1006 1.362 . S
C1007 C1008 1.366 . S
C1008 C1005 1.365 . S
C1008 C1007 1.366 . S
C1008 H1022 0.930 . S
C1009 C1006 1.378 . S
C1009 N1010 1.315 . S
C1009 H1012 0.930 . S
N1010 Co990 2.194 . S
N1010 C1005 1.328 . S
N1010 C1009 1.315 . S
H1011 C1005 0.929 . S
H1012 C1009 0.930 . S
H1013 C1001 0.929 . S
H1014 C1003 0.929 . S
O1015 Co990 2.351 . S
O1015 C1018 1.244 . S
O1016 Co990 2.155 . S
O1016 C1018 1.240 . S
O1017 Co990 2.096 . S
O1017 C998 1.247 . S
C1018 O1015 1.244 . S
C1018 O1016 1.240 . S
H1019 C993 0.931 . S
H1020 C1002 0.931 . S
H1021 C1006 0.929 . S
H1022 C1008 0.930 . S
Co1023 N1027 2.148 . S
Co1023 N1033 2.128 . S
Co1023 N1043 2.194 . S
Co1023 O1048 2.351 . S
Co1023 O1049 2.155 . S
Co1023 O1050 2.096 . S
C1024 N1027 1.301 . S
C1024 N1028 1.328 . S
C1024 H1029 0.930 . S
C1025 C1026 1.333 . S
C1025 N1027 1.317 . S
C1025 H1030 0.930 . S
C1026 C1025 1.333 . S
C1026 N1028 1.350 . S
C1026 H1052 0.931 . S
N1027 Co1023 2.148 . S
N1027 C1024 1.301 . S
N1027 C1025 1.317 . S
N1028 C1024 1.328 . S
N1028 C1026 1.350 . S
H1029 C1024 0.930 . S
H1030 C1025 0.930 . S
C1031 O1032 1.224 . S
C1031 O1050 1.247 . S
O1032 C1031 1.224 . S
N1033 Co1023 2.128 . S
N1033 C1034 1.355 . S
N1033 C1036 1.311 . S
C1034 N1033 1.355 . S
C1034 C1035 1.363 . S
C1034 H1046 0.929 . S
C1035 C1034 1.363 . S
C1035 N1037 1.375 . S
C1035 H1053 0.931 . S
C1036 N1033 1.311 . S
C1036 N1037 1.347 . S
C1036 H1047 0.929 . S
N1037 C1035 1.375 . S
N1037 C1036 1.347 . S
C1038 C1041 1.365 . S
C1038 N1043 1.328 . S
C1038 H1044 0.929 . S
C1039 C1040 1.362 . S
C1039 C1042 1.378 . S
C1039 H1054 0.929 . S
C1040 C1039 1.362 . S
C1040 C1041 1.366 . S
C1041 C1038 1.365 . S
C1041 C1040 1.366 . S
C1041 H1055 0.930 . S
C1042 C1039 1.378 . S
C1042 N1043 1.315 . S
C1042 H1045 0.930 . S
N1043 Co1023 2.194 . S
N1043 C1038 1.328 . S
N1043 C1042 1.315 . S
H1044 C1038 0.929 . S
H1045 C1042 0.930 . S
H1046 C1034 0.929 . S
H1047 C1036 0.929 . S
O1048 Co1023 2.351 . S
O1048 C1051 1.244 . S
O1049 Co1023 2.155 . S
O1049 C1051 1.240 . S
O1050 Co1023 2.096 . S
O1050 C1031 1.247 . S
C1051 O1048 1.244 . S
C1051 O1049 1.240 . S
H1052 C1026 0.931 . S
H1053 C1035 0.931 . S
H1054 C1039 0.929 . S
H1055 C1041 0.930 . S
Co1056 N1060 2.148 . S
Co1056 N1066 2.128 . S
Co1056 N1076 2.194 . S
Co1056 O1081 2.351 . S
Co1056 O1082 2.155 . S
Co1056 O1083 2.096 . S
C1057 N1060 1.301 . S
C1057 N1061 1.328 . S
C1057 H1062 0.930 . S
C1058 C1059 1.333 . S
C1058 N1060 1.317 . S
C1058 H1063 0.930 . S
C1059 C1058 1.333 . S
C1059 N1061 1.350 . S
C1059 H1085 0.931 . S
N1060 Co1056 2.148 . S
N1060 C1057 1.301 . S
N1060 C1058 1.317 . S
N1061 C1057 1.328 . S
N1061 C1059 1.350 . S
H1062 C1057 0.930 . S
H1063 C1058 0.930 . S
C1064 O1065 1.224 . S
C1064 O1083 1.247 . S
O1065 C1064 1.224 . S
N1066 Co1056 2.128 . S
N1066 C1067 1.355 . S
N1066 C1069 1.311 . S
C1067 N1066 1.355 . S
C1067 C1068 1.363 . S
C1067 H1079 0.929 . S
C1068 C1067 1.363 . S
C1068 N1070 1.375 . S
C1068 H1086 0.931 . S
C1069 N1066 1.311 . S
C1069 N1070 1.347 . S
C1069 H1080 0.929 . S
N1070 C1068 1.375 . S
N1070 C1069 1.347 . S
C1071 C1074 1.365 . S
C1071 N1076 1.328 . S
C1071 H1077 0.929 . S
C1072 C1073 1.362 . S
C1072 C1075 1.378 . S
C1072 H1087 0.929 . S
C1073 C1072 1.362 . S
C1073 C1074 1.366 . S
C1074 C1071 1.365 . S
C1074 C1073 1.366 . S
C1074 H1088 0.930 . S
C1075 C1072 1.378 . S
C1075 N1076 1.315 . S
C1075 H1078 0.930 . S
N1076 Co1056 2.194 . S
N1076 C1071 1.328 . S
N1076 C1075 1.315 . S
H1077 C1071 0.929 . S
H1078 C1075 0.930 . S
H1079 C1067 0.929 . S
H1080 C1069 0.929 . S
O1081 Co1056 2.351 . S
O1081 C1084 1.244 . S
O1082 Co1056 2.155 . S
O1082 C1084 1.240 . S
O1083 Co1056 2.096 . S
O1083 C1064 1.247 . S
C1084 O1081 1.244 . S
C1084 O1082 1.240 . S
H1085 C1059 0.931 . S
H1086 C1068 0.931 . S
H1087 C1072 0.929 . S
H1088 C1074 0.930 . S
Co1089 N1093 2.148 . S
Co1089 N1099 2.128 . S
Co1089 N1109 2.194 . S
Co1089 O1114 2.351 . S
Co1089 O1115 2.155 . S
Co1089 O1116 2.096 . S
C1090 N1093 1.301 . S
C1090 N1094 1.328 . S
C1090 H1095 0.930 . S
C1091 C1092 1.333 . S
C1091 N1093 1.317 . S
C1091 H1096 0.930 . S
C1092 C1091 1.333 . S
C1092 N1094 1.350 . S
C1092 H1118 0.931 . S
N1093 Co1089 2.148 . S
N1093 C1090 1.301 . S
N1093 C1091 1.317 . S
N1094 C1090 1.328 . S
N1094 C1092 1.350 . S
H1095 C1090 0.930 . S
H1096 C1091 0.930 . S
C1097 O1098 1.224 . S
C1097 O1116 1.247 . S
O1098 C1097 1.224 . S
N1099 Co1089 2.128 . S
N1099 C1100 1.355 . S
N1099 C1102 1.311 . S
C1100 N1099 1.355 . S
C1100 C1101 1.363 . S
C1100 H1112 0.929 . S
C1101 C1100 1.363 . S
C1101 N1103 1.375 . S
C1101 H1119 0.931 . S
C1102 N1099 1.311 . S
C1102 N1103 1.347 . S
C1102 H1113 0.929 . S
N1103 C1101 1.375 . S
N1103 C1102 1.347 . S
C1104 C1107 1.365 . S
C1104 N1109 1.328 . S
C1104 H1110 0.929 . S
C1105 C1106 1.362 . S
C1105 C1108 1.378 . S
C1105 H1120 0.929 . S
C1106 C1105 1.362 . S
C1106 C1107 1.366 . S
C1107 C1104 1.365 . S
C1107 C1106 1.366 . S
C1107 H1121 0.930 . S
C1108 C1105 1.378 . S
C1108 N1109 1.315 . S
C1108 H1111 0.930 . S
N1109 Co1089 2.194 . S
N1109 C1104 1.328 . S
N1109 C1108 1.315 . S
H1110 C1104 0.929 . S
H1111 C1108 0.930 . S
H1112 C1100 0.929 . S
H1113 C1102 0.929 . S
O1114 Co1089 2.351 . S
O1114 C1117 1.244 . S
O1115 Co1089 2.155 . S
O1115 C1117 1.240 . S
O1116 Co1089 2.096 . S
O1116 C1097 1.247 . S
C1117 O1114 1.244 . S
C1117 O1115 1.240 . S
H1118 C1092 0.931 . S
H1119 C1101 0.931 . S
H1120 C1105 0.929 . S
H1121 C1107 0.930 . S
Co1122 N1126 2.148 . S
Co1122 N1132 2.128 . S
Co1122 N1142 2.194 . S
Co1122 O1147 2.351 . S
Co1122 O1148 2.155 . S
Co1122 O1149 2.096 . S
C1123 N1126 1.301 . S
C1123 N1127 1.328 . S
C1123 H1128 0.930 . S
C1124 C1125 1.333 . S
C1124 N1126 1.317 . S
C1124 H1129 0.930 . S
C1125 C1124 1.333 . S
C1125 N1127 1.350 . S
C1125 H1151 0.931 . S
N1126 Co1122 2.148 . S
N1126 C1123 1.301 . S
N1126 C1124 1.317 . S
N1127 C1123 1.328 . S
N1127 C1125 1.350 . S
H1128 C1123 0.930 . S
H1129 C1124 0.930 . S
C1130 O1131 1.224 . S
C1130 O1149 1.247 . S
O1131 C1130 1.224 . S
N1132 Co1122 2.128 . S
N1132 C1133 1.355 . S
N1132 C1135 1.311 . S
C1133 N1132 1.355 . S
C1133 C1134 1.363 . S
C1133 H1145 0.929 . S
C1134 C1133 1.363 . S
C1134 N1136 1.375 . S
C1134 H1152 0.931 . S
C1135 N1132 1.311 . S
C1135 N1136 1.347 . S
C1135 H1146 0.929 . S
N1136 C1134 1.375 . S
N1136 C1135 1.347 . S
C1137 C1140 1.365 . S
C1137 N1142 1.328 . S
C1137 H1143 0.929 . S
C1138 C1139 1.362 . S
C1138 C1141 1.378 . S
C1138 H1153 0.929 . S
C1139 C1138 1.362 . S
C1139 C1140 1.366 . S
C1140 C1137 1.365 . S
C1140 C1139 1.366 . S
C1140 H1154 0.930 . S
C1141 C1138 1.378 . S
C1141 N1142 1.315 . S
C1141 H1144 0.930 . S
N1142 Co1122 2.194 . S
N1142 C1137 1.328 . S
N1142 C1141 1.315 . S
H1143 C1137 0.929 . S
H1144 C1141 0.930 . S
H1145 C1133 0.929 . S
H1146 C1135 0.929 . S
O1147 Co1122 2.351 . S
O1147 C1150 1.244 . S
O1148 Co1122 2.155 . S
O1148 C1150 1.240 . S
O1149 Co1122 2.096 . S
O1149 C1130 1.247 . S
C1150 O1147 1.244 . S
C1150 O1148 1.240 . S
H1151 C1125 0.931 . S
H1152 C1134 0.931 . S
H1153 C1138 0.929 . S
H1154 C1140 0.930 . S
Co1155 N1159 2.148 . S
Co1155 N1165 2.128 . S
Co1155 N1175 2.194 . S
Co1155 O1180 2.351 . S
Co1155 O1181 2.155 . S
Co1155 O1182 2.096 . S
C1156 N1159 1.301 . S
C1156 N1160 1.328 . S
C1156 H1161 0.930 . S
C1157 C1158 1.333 . S
C1157 N1159 1.317 . S
C1157 H1162 0.930 . S
C1158 C1157 1.333 . S
C1158 N1160 1.350 . S
C1158 H1184 0.931 . S
N1159 Co1155 2.148 . S
N1159 C1156 1.301 . S
N1159 C1157 1.317 . S
N1160 C1156 1.328 . S
N1160 C1158 1.350 . S
H1161 C1156 0.930 . S
H1162 C1157 0.930 . S
C1163 O1164 1.224 . S
C1163 O1182 1.247 . S
O1164 C1163 1.224 . S
N1165 Co1155 2.128 . S
N1165 C1166 1.355 . S
N1165 C1168 1.311 . S
C1166 N1165 1.355 . S
C1166 C1167 1.363 . S
C1166 H1178 0.929 . S
C1167 C1166 1.363 . S
C1167 N1169 1.375 . S
C1167 H1185 0.931 . S
C1168 N1165 1.311 . S
C1168 N1169 1.347 . S
C1168 H1179 0.929 . S
N1169 C1167 1.375 . S
N1169 C1168 1.347 . S
C1170 C1173 1.365 . S
C1170 N1175 1.328 . S
C1170 H1176 0.929 . S
C1171 C1172 1.362 . S
C1171 C1174 1.378 . S
C1171 H1186 0.929 . S
C1172 C1171 1.362 . S
C1172 C1173 1.366 . S
C1173 C1170 1.365 . S
C1173 C1172 1.366 . S
C1173 H1187 0.930 . S
C1174 C1171 1.378 . S
C1174 N1175 1.315 . S
C1174 H1177 0.930 . S
N1175 Co1155 2.194 . S
N1175 C1170 1.328 . S
N1175 C1174 1.315 . S
H1176 C1170 0.929 . S
H1177 C1174 0.930 . S
H1178 C1166 0.929 . S
H1179 C1168 0.929 . S
O1180 Co1155 2.351 . S
O1180 C1183 1.244 . S
O1181 Co1155 2.155 . S
O1181 C1183 1.240 . S
O1182 Co1155 2.096 . S
O1182 C1163 1.247 . S
C1183 O1180 1.244 . S
C1183 O1181 1.240 . S
H1184 C1158 0.931 . S
H1185 C1167 0.931 . S
H1186 C1171 0.929 . S
H1187 C1173 0.930 . S
Co1188 N1192 2.148 . S
Co1188 N1198 2.128 . S
Co1188 N1208 2.194 . S
Co1188 O1213 2.351 . S
Co1188 O1214 2.155 . S
Co1188 O1215 2.096 . S
C1189 N1192 1.301 . S
C1189 N1193 1.328 . S
C1189 H1194 0.930 . S
C1190 C1191 1.333 1_545 S
C1190 N1192 1.317 . S
C1190 H1195 0.945 . S
C1191 C1190 1.333 1_565 S
C1191 N1193 1.350 1_565 S
C1191 H1217 0.931 . S
N1192 Co1188 2.148 . S
N1192 C1189 1.301 . S
N1192 C1190 1.317 . S
N1193 C1189 1.328 . S
N1193 C1191 1.350 1_545 S
H1194 C1189 0.930 . S
H1195 C1190 0.945 . S
C1196 O1197 1.224 . S
C1196 O1215 1.247 . S
O1197 C1196 1.224 . S
N1198 Co1188 2.128 . S
N1198 C1199 1.355 . S
N1198 C1201 1.311 . S
C1199 N1198 1.355 . S
C1199 C1200 1.363 . S
C1199 H1211 0.929 . S
C1200 C1199 1.363 . S
C1200 N1202 1.375 . S
C1200 H1218 0.931 . S
C1201 N1198 1.311 . S
C1201 N1202 1.347 . S
C1201 H1212 0.929 . S
N1202 C1200 1.375 . S
N1202 C1201 1.347 . S
C1203 C1206 1.365 . S
C1203 N1208 1.328 . S
C1203 H1209 0.929 . S
C1204 C1205 1.362 . S
C1204 C1207 1.378 . S
C1204 H1219 0.929 . S
C1205 C1204 1.362 . S
C1205 C1206 1.366 . S
C1206 C1203 1.365 . S
C1206 C1205 1.366 . S
C1206 H1220 0.930 . S
C1207 C1204 1.378 . S
C1207 N1208 1.315 . S
C1207 H1210 0.930 . S
N1208 Co1188 2.194 . S
N1208 C1203 1.328 . S
N1208 C1207 1.315 . S
H1209 C1203 0.929 . S
H1210 C1207 0.930 . S
H1211 C1199 0.929 . S
H1212 C1201 0.929 . S
O1213 Co1188 2.351 . S
O1213 C1216 1.244 . S
O1214 Co1188 2.155 . S
O1214 C1216 1.240 . S
O1215 Co1188 2.096 . S
O1215 C1196 1.247 . S
C1216 O1213 1.244 . S
C1216 O1214 1.240 . S
H1217 C1191 0.931 . S
H1218 C1200 0.931 . S
H1219 C1204 0.929 . S
H1220 C1206 0.930 . S
Co1221 N1225 2.148 . S
Co1221 N1231 2.128 . S
Co1221 N1241 2.194 . S
Co1221 O1246 2.351 . S
Co1221 O1247 2.155 . S
Co1221 O1248 2.096 . S
C1222 N1225 1.301 . S
C1222 N1226 1.328 . S
C1222 H1227 0.930 . S
C1223 C1224 1.333 . S
C1223 N1225 1.317 . S
C1223 H1228 0.930 . S
C1224 C1223 1.333 . S
C1224 N1226 1.350 . S
C1224 H1250 0.931 . S
N1225 Co1221 2.148 . S
N1225 C1222 1.301 . S
N1225 C1223 1.317 . S
N1226 C1222 1.328 . S
N1226 C1224 1.350 . S
H1227 C1222 0.930 . S
H1228 C1223 0.930 . S
C1229 O1230 1.224 . S
C1229 O1248 1.247 . S
O1230 C1229 1.224 . S
N1231 Co1221 2.128 . S
N1231 C1232 1.355 . S
N1231 C1234 1.311 . S
C1232 N1231 1.355 . S
C1232 C1233 1.363 . S
C1232 H1244 0.929 . S
C1233 C1232 1.363 . S
C1233 N1235 1.375 . S
C1233 H1251 0.931 . S
C1234 N1231 1.311 . S
C1234 N1235 1.347 . S
C1234 H1245 0.929 . S
N1235 C1233 1.375 . S
N1235 C1234 1.347 . S
C1236 C1239 1.365 . S
C1236 N1241 1.328 . S
C1236 H1242 0.929 . S
C1237 C1238 1.362 . S
C1237 C1240 1.378 . S
C1237 H1252 0.929 . S
C1238 C1237 1.362 . S
C1238 C1239 1.366 . S
C1239 C1236 1.365 . S
C1239 C1238 1.366 . S
C1239 H1253 0.930 . S
C1240 C1237 1.378 . S
C1240 N1241 1.315 . S
C1240 H1243 0.930 . S
N1241 Co1221 2.194 . S
N1241 C1236 1.328 . S
N1241 C1240 1.315 . S
H1242 C1236 0.929 . S
H1243 C1240 0.930 . S
H1244 C1232 0.929 . S
H1245 C1234 0.929 . S
O1246 Co1221 2.351 . S
O1246 C1249 1.244 . S
O1247 Co1221 2.155 . S
O1247 C1249 1.240 . S
O1248 Co1221 2.096 . S
O1248 C1229 1.247 . S
C1249 O1246 1.244 . S
C1249 O1247 1.240 . S
H1250 C1224 0.931 . S
H1251 C1233 0.931 . S
H1252 C1237 0.929 . S
H1253 C1239 0.930 . S
Co1254 N1258 2.148 . S
Co1254 N1264 2.128 . S
Co1254 N1274 2.194 . S
Co1254 O1279 2.351 . S
Co1254 O1280 2.155 . S
Co1254 O1281 2.096 . S
C1255 N1258 1.301 . S
C1255 N1259 1.328 . S
C1255 H1260 0.930 . S
C1256 C1257 1.333 . S
C1256 N1258 1.317 . S
C1256 H1261 0.930 . S
C1257 C1256 1.333 . S
C1257 N1259 1.350 . S
C1257 H1283 0.931 . S
N1258 Co1254 2.148 . S
N1258 C1255 1.301 . S
N1258 C1256 1.317 . S
N1259 C1255 1.328 . S
N1259 C1257 1.350 . S
H1260 C1255 0.930 . S
H1261 C1256 0.930 . S
C1262 O1263 1.224 . S
C1262 O1281 1.247 . S
O1263 C1262 1.224 . S
N1264 Co1254 2.128 . S
N1264 C1265 1.355 . S
N1264 C1267 1.311 . S
C1265 N1264 1.355 . S
C1265 C1266 1.363 . S
C1265 H1277 0.929 . S
C1266 C1265 1.363 . S
C1266 N1268 1.375 . S
C1266 H1284 0.931 . S
C1267 N1264 1.311 . S
C1267 N1268 1.347 . S
C1267 H1278 0.929 . S
N1268 C1266 1.375 . S
N1268 C1267 1.347 . S
C1269 C1272 1.365 . S
C1269 N1274 1.328 . S
C1269 H1275 0.929 . S
C1270 C1271 1.362 . S
C1270 C1273 1.378 . S
C1270 H1285 0.929 . S
C1271 C1270 1.362 . S
C1271 C1272 1.366 . S
C1272 C1269 1.365 . S
C1272 C1271 1.366 . S
C1272 H1286 0.930 . S
C1273 C1270 1.378 . S
C1273 N1274 1.315 . S
C1273 H1276 0.930 . S
N1274 Co1254 2.194 . S
N1274 C1269 1.328 . S
N1274 C1273 1.315 . S
H1275 C1269 0.929 . S
H1276 C1273 0.930 . S
H1277 C1265 0.929 . S
H1278 C1267 0.929 . S
O1279 Co1254 2.351 . S
O1279 C1282 1.244 . S
O1280 Co1254 2.155 . S
O1280 C1282 1.240 . S
O1281 Co1254 2.096 . S
O1281 C1262 1.247 . S
C1282 O1279 1.244 . S
C1282 O1280 1.240 . S
H1283 C1257 0.931 . S
H1284 C1266 0.931 . S
H1285 C1270 0.929 . S
H1286 C1272 0.930 . S
Co1287 N1291 2.148 . S
Co1287 N1297 2.128 . S
Co1287 N1307 2.194 . S
Co1287 O1312 2.351 . S
Co1287 O1313 2.155 . S
Co1287 O1314 2.096 . S
C1288 N1291 1.301 . S
C1288 N1292 1.328 . S
C1288 H1293 0.930 . S
C1289 C1290 1.333 1_655 S
C1289 N1291 1.317 . S
C1289 H1294 0.945 . S
C1290 C1289 1.333 1_455 S
C1290 N1292 1.350 1_455 S
C1290 H1316 0.931 . S
N1291 Co1287 2.148 . S
N1291 C1288 1.301 . S
N1291 C1289 1.317 . S
N1292 C1288 1.328 . S
N1292 C1290 1.350 1_655 S
H1293 C1288 0.930 . S
H1294 C1289 0.945 . S
C1295 O1296 1.224 . S
C1295 O1314 1.247 . S
O1296 C1295 1.224 . S
N1297 Co1287 2.128 . S
N1297 C1298 1.355 . S
N1297 C1300 1.311 . S
C1298 N1297 1.355 . S
C1298 C1299 1.363 . S
C1298 H1310 0.929 . S
C1299 C1298 1.363 . S
C1299 N1301 1.375 . S
C1299 H1317 0.931 . S
C1300 N1297 1.311 . S
C1300 N1301 1.347 . S
C1300 H1311 0.929 . S
N1301 C1299 1.375 . S
N1301 C1300 1.347 . S
C1302 C1305 1.365 . S
C1302 N1307 1.328 . S
C1302 H1308 0.929 . S
C1303 C1304 1.362 . S
C1303 C1306 1.378 . S
C1303 H1318 0.929 . S
C1304 C1303 1.362 . S
C1304 C1305 1.366 . S
C1305 C1302 1.365 . S
C1305 C1304 1.366 . S
C1305 H1319 0.930 . S
C1306 C1303 1.378 . S
C1306 N1307 1.315 . S
C1306 H1309 0.930 . S
N1307 Co1287 2.194 . S
N1307 C1302 1.328 . S
N1307 C1306 1.315 . S
H1308 C1302 0.929 . S
H1309 C1306 0.930 . S
H1310 C1298 0.929 . S
H1311 C1300 0.929 . S
O1312 Co1287 2.351 . S
O1312 C1315 1.244 . S
O1313 Co1287 2.155 . S
O1313 C1315 1.240 . S
O1314 Co1287 2.096 . S
O1314 C1295 1.247 . S
C1315 O1312 1.244 . S
C1315 O1313 1.240 . S
H1316 C1290 0.931 . S
H1317 C1299 0.931 . S
H1318 C1303 0.929 . S
H1319 C1305 0.930 . S
Co1320 N1324 2.148 . S
Co1320 N1330 2.128 . S
Co1320 N1340 2.194 . S
Co1320 O1345 2.351 . S
Co1320 O1346 2.155 . S
Co1320 O1347 2.096 . S
C1321 N1324 1.301 . S
C1321 N1325 1.328 . S
C1321 H1326 0.930 . S
C1322 C1323 1.333 1_556 S
C1322 N1324 1.317 . S
C1322 H1327 0.945 . S
C1323 C1322 1.333 1_554 S
C1323 N1325 1.350 1_554 S
C1323 H1349 0.931 . S
N1324 Co1320 2.148 . S
N1324 C1321 1.301 . S
N1324 C1322 1.317 . S
N1325 C1321 1.328 . S
N1325 C1323 1.350 1_556 S
H1326 C1321 0.930 . S
H1327 C1322 0.945 . S
C1328 O1329 1.224 . S
C1328 O1347 1.247 . S
O1329 C1328 1.224 . S
N1330 Co1320 2.128 . S
N1330 C1331 1.355 . S
N1330 C1333 1.311 . S
C1331 N1330 1.355 . S
C1331 C1332 1.363 . S
C1331 H1343 0.929 . S
C1332 C1331 1.363 . S
C1332 N1334 1.375 . S
C1332 H1350 0.931 . S
C1333 N1330 1.311 . S
C1333 N1334 1.347 . S
C1333 H1344 0.929 . S
N1334 C1332 1.375 . S
N1334 C1333 1.347 . S
C1335 C1338 1.365 . S
C1335 N1340 1.328 . S
C1335 H1341 0.929 . S
C1336 C1337 1.362 . S
C1336 C1339 1.378 . S
C1336 H1351 0.929 . S
C1337 C1336 1.362 . S
C1337 C1338 1.366 . S
C1338 C1335 1.365 . S
C1338 C1337 1.366 . S
C1338 H1352 0.930 . S
C1339 C1336 1.378 . S
C1339 N1340 1.315 . S
C1339 H1342 0.930 . S
N1340 Co1320 2.194 . S
N1340 C1335 1.328 . S
N1340 C1339 1.315 . S
H1341 C1335 0.929 . S
H1342 C1339 0.930 . S
H1343 C1331 0.929 . S
H1344 C1333 0.929 . S
O1345 Co1320 2.351 . S
O1345 C1348 1.244 . S
O1346 Co1320 2.155 . S
O1346 C1348 1.240 . S
O1347 Co1320 2.096 . S
O1347 C1328 1.247 . S
C1348 O1345 1.244 . S
C1348 O1346 1.240 . S
H1349 C1323 0.931 . S
H1350 C1332 0.931 . S
H1351 C1336 0.929 . S
H1352 C1338 0.930 . S
Co1353 N1357 2.148 . S
Co1353 N1363 2.128 . S
Co1353 N1373 2.194 . S
Co1353 O1378 2.351 . S
Co1353 O1379 2.155 . S
Co1353 O1380 2.096 . S
C1354 N1357 1.301 . S
C1354 N1358 1.328 . S
C1354 H1359 0.930 . S
C1355 C1356 1.333 . S
C1355 N1357 1.317 . S
C1355 H1360 0.930 . S
C1356 C1355 1.333 . S
C1356 N1358 1.350 . S
C1356 H1382 0.931 . S
N1357 Co1353 2.148 . S
N1357 C1354 1.301 . S
N1357 C1355 1.317 . S
N1358 C1354 1.328 . S
N1358 C1356 1.350 . S
H1359 C1354 0.930 . S
H1360 C1355 0.930 . S
C1361 O1362 1.224 . S
C1361 O1380 1.247 . S
O1362 C1361 1.224 . S
N1363 Co1353 2.128 . S
N1363 C1364 1.355 . S
N1363 C1366 1.311 . S
C1364 N1363 1.355 . S
C1364 C1365 1.363 . S
C1364 H1376 0.929 . S
C1365 C1364 1.363 . S
C1365 N1367 1.375 . S
C1365 H1383 0.931 . S
C1366 N1363 1.311 . S
C1366 N1367 1.347 . S
C1366 H1377 0.929 . S
N1367 C1365 1.375 . S
N1367 C1366 1.347 . S
C1368 C1371 1.365 . S
C1368 N1373 1.328 . S
C1368 H1374 0.929 . S
C1369 C1370 1.362 . S
C1369 C1372 1.378 . S
C1369 H1384 0.929 . S
C1370 C1369 1.362 . S
C1370 C1371 1.366 . S
C1371 C1368 1.365 . S
C1371 C1370 1.366 . S
C1371 H1385 0.930 . S
C1372 C1369 1.378 . S
C1372 N1373 1.315 . S
C1372 H1375 0.930 . S
N1373 Co1353 2.194 . S
N1373 C1368 1.328 . S
N1373 C1372 1.315 . S
H1374 C1368 0.929 . S
H1375 C1372 0.930 . S
H1376 C1364 0.929 . S
H1377 C1366 0.929 . S
O1378 Co1353 2.351 . S
O1378 C1381 1.244 . S
O1379 Co1353 2.155 . S
O1379 C1381 1.240 . S
O1380 Co1353 2.096 . S
O1380 C1361 1.247 . S
C1381 O1378 1.244 . S
C1381 O1379 1.240 . S
H1382 C1356 0.931 . S
H1383 C1365 0.931 . S
H1384 C1369 0.929 . S
H1385 C1371 0.930 . S
Co1386 N1390 2.148 . S
Co1386 N1396 2.128 . S
Co1386 N1406 2.194 . S
Co1386 O1411 2.351 . S
Co1386 O1412 2.155 . S
Co1386 O1413 2.096 . S
C1387 N1390 1.301 . S
C1387 N1391 1.328 . S
C1387 H1392 0.930 . S
C1388 C1389 1.333 . S
C1388 N1390 1.317 . S
C1388 H1393 0.930 . S
C1389 C1388 1.333 . S
C1389 N1391 1.350 . S
C1389 H1415 0.931 . S
N1390 Co1386 2.148 . S
N1390 C1387 1.301 . S
N1390 C1388 1.317 . S
N1391 C1387 1.328 . S
N1391 C1389 1.350 . S
H1392 C1387 0.930 . S
H1393 C1388 0.930 . S
C1394 O1395 1.224 . S
C1394 O1413 1.247 . S
O1395 C1394 1.224 . S
N1396 Co1386 2.128 . S
N1396 C1397 1.355 . S
N1396 C1399 1.311 . S
C1397 N1396 1.355 . S
C1397 C1398 1.363 . S
C1397 H1409 0.929 . S
C1398 C1397 1.363 . S
C1398 N1400 1.375 . S
C1398 H1416 0.931 . S
C1399 N1396 1.311 . S
C1399 N1400 1.347 . S
C1399 H1410 0.929 . S
N1400 C1398 1.375 . S
N1400 C1399 1.347 . S
C1401 C1404 1.365 . S
C1401 N1406 1.328 . S
C1401 H1407 0.929 . S
C1402 C1403 1.362 . S
C1402 C1405 1.378 . S
C1402 H1417 0.929 . S
C1403 C1402 1.362 . S
C1403 C1404 1.366 . S
C1404 C1401 1.365 . S
C1404 C1403 1.366 . S
C1404 H1418 0.930 . S
C1405 C1402 1.378 . S
C1405 N1406 1.315 . S
C1405 H1408 0.930 . S
N1406 Co1386 2.194 . S
N1406 C1401 1.328 . S
N1406 C1405 1.315 . S
H1407 C1401 0.929 . S
H1408 C1405 0.930 . S
H1409 C1397 0.929 . S
H1410 C1399 0.929 . S
O1411 Co1386 2.351 . S
O1411 C1414 1.244 . S
O1412 Co1386 2.155 . S
O1412 C1414 1.240 . S
O1413 Co1386 2.096 . S
O1413 C1394 1.247 . S
C1414 O1411 1.244 . S
C1414 O1412 1.240 . S
H1415 C1389 0.931 . S
H1416 C1398 0.931 . S
H1417 C1402 0.929 . S
H1418 C1404 0.930 . S
Co1419 N1423 2.148 . S
Co1419 N1429 2.128 . S
Co1419 N1439 2.194 . S
Co1419 O1444 2.351 . S
Co1419 O1445 2.155 . S
Co1419 O1446 2.096 . S
C1420 N1423 1.301 . S
C1420 N1424 1.328 . S
C1420 H1425 0.930 . S
C1421 C1422 1.333 . S
C1421 N1423 1.317 . S
C1421 H1426 0.930 . S
C1422 C1421 1.333 . S
C1422 N1424 1.350 . S
C1422 H1448 0.931 . S
N1423 Co1419 2.148 . S
N1423 C1420 1.301 . S
N1423 C1421 1.317 . S
N1424 C1420 1.328 . S
N1424 C1422 1.350 . S
H1425 C1420 0.930 . S
H1426 C1421 0.930 . S
C1427 O1428 1.224 . S
C1427 O1446 1.247 . S
O1428 C1427 1.224 . S
N1429 Co1419 2.128 . S
N1429 C1430 1.355 . S
N1429 C1432 1.311 . S
C1430 N1429 1.355 . S
C1430 C1431 1.363 . S
C1430 H1442 0.929 . S
C1431 C1430 1.363 . S
C1431 N1433 1.375 . S
C1431 H1449 0.931 . S
C1432 N1429 1.311 . S
C1432 N1433 1.347 . S
C1432 H1443 0.929 . S
N1433 C1431 1.375 . S
N1433 C1432 1.347 . S
C1434 C1437 1.365 . S
C1434 N1439 1.328 . S
C1434 H1440 0.929 . S
C1435 C1436 1.362 . S
C1435 C1438 1.378 . S
C1435 H1450 0.929 . S
C1436 C1435 1.362 . S
C1436 C1437 1.366 . S
C1437 C1434 1.365 . S
C1437 C1436 1.366 . S
C1437 H1451 0.930 . S
C1438 C1435 1.378 . S
C1438 N1439 1.315 . S
C1438 H1441 0.930 . S
N1439 Co1419 2.194 . S
N1439 C1434 1.328 . S
N1439 C1438 1.315 . S
H1440 C1434 0.929 . S
H1441 C1438 0.930 . S
H1442 C1430 0.929 . S
H1443 C1432 0.929 . S
O1444 Co1419 2.351 . S
O1444 C1447 1.244 . S
O1445 Co1419 2.155 . S
O1445 C1447 1.240 . S
O1446 Co1419 2.096 . S
O1446 C1427 1.247 . S
C1447 O1444 1.244 . S
C1447 O1445 1.240 . S
H1448 C1422 0.931 . S
H1449 C1431 0.931 . S
H1450 C1435 0.929 . S
H1451 C1437 0.930 . S
Co1452 N1456 2.148 . S
Co1452 N1462 2.128 . S
Co1452 N1472 2.194 . S
Co1452 O1477 2.351 . S
Co1452 O1478 2.155 . S
Co1452 O1479 2.096 . S
C1453 N1456 1.301 . S
C1453 N1457 1.328 . S
C1453 H1458 0.930 . S
C1454 C1455 1.333 . S
C1454 N1456 1.317 . S
C1454 H1459 0.930 . S
C1455 C1454 1.333 . S
C1455 N1457 1.350 . S
C1455 H1481 0.931 . S
N1456 Co1452 2.148 . S
N1456 C1453 1.301 . S
N1456 C1454 1.317 . S
N1457 C1453 1.328 . S
N1457 C1455 1.350 . S
H1458 C1453 0.930 . S
H1459 C1454 0.930 . S
C1460 O1461 1.224 . S
C1460 O1479 1.247 . S
O1461 C1460 1.224 . S
N1462 Co1452 2.128 . S
N1462 C1463 1.355 . S
N1462 C1465 1.311 . S
C1463 N1462 1.355 . S
C1463 C1464 1.363 . S
C1463 H1475 0.929 . S
C1464 C1463 1.363 . S
C1464 N1466 1.375 . S
C1464 H1482 0.931 . S
C1465 N1462 1.311 . S
C1465 N1466 1.347 . S
C1465 H1476 0.929 . S
N1466 C1464 1.375 . S
N1466 C1465 1.347 . S
C1467 C1470 1.365 . S
C1467 N1472 1.328 . S
C1467 H1473 0.929 . S
C1468 C1469 1.362 . S
C1468 C1471 1.378 . S
C1468 H1483 0.929 . S
C1469 C1468 1.362 . S
C1469 C1470 1.366 . S
C1470 C1467 1.365 . S
C1470 C1469 1.366 . S
C1470 H1484 0.930 . S
C1471 C1468 1.378 . S
C1471 N1472 1.315 . S
C1471 H1474 0.930 . S
N1472 Co1452 2.194 . S
N1472 C1467 1.328 . S
N1472 C1471 1.315 . S
H1473 C1467 0.929 . S
H1474 C1471 0.930 . S
H1475 C1463 0.929 . S
H1476 C1465 0.929 . S
O1477 Co1452 2.351 . S
O1477 C1480 1.244 . S
O1478 Co1452 2.155 . S
O1478 C1480 1.240 . S
O1479 Co1452 2.096 . S
O1479 C1460 1.247 . S
C1480 O1477 1.244 . S
C1480 O1478 1.240 . S
H1481 C1455 0.931 . S
H1482 C1464 0.931 . S
H1483 C1468 0.929 . S
H1484 C1470 0.930 . S
Co1485 N1489 2.148 . S
Co1485 N1495 2.128 . S
Co1485 N1505 2.194 . S
Co1485 O1510 2.351 . S
Co1485 O1511 2.155 . S
Co1485 O1512 2.096 . S
C1486 N1489 1.301 . S
C1486 N1490 1.328 . S
C1486 H1491 0.930 . S
C1487 C1488 1.333 1_554 S
C1487 N1489 1.317 . S
C1487 H1492 0.945 . S
C1488 C1487 1.333 1_556 S
C1488 N1490 1.350 1_556 S
C1488 H1514 0.931 . S
N1489 Co1485 2.148 . S
N1489 C1486 1.301 . S
N1489 C1487 1.317 . S
N1490 C1486 1.328 . S
N1490 C1488 1.350 1_554 S
H1491 C1486 0.930 . S
H1492 C1487 0.945 . S
C1493 O1494 1.224 . S
C1493 O1512 1.247 . S
O1494 C1493 1.224 . S
N1495 Co1485 2.128 . S
N1495 C1496 1.355 . S
N1495 C1498 1.311 . S
C1496 N1495 1.355 . S
C1496 C1497 1.363 . S
C1496 H1508 0.929 . S
C1497 C1496 1.363 . S
C1497 N1499 1.375 . S
C1497 H1515 0.931 . S
C1498 N1495 1.311 . S
C1498 N1499 1.347 . S
C1498 H1509 0.929 . S
N1499 C1497 1.375 . S
N1499 C1498 1.347 . S
C1500 C1503 1.365 . S
C1500 N1505 1.328 . S
C1500 H1506 0.929 . S
C1501 C1502 1.362 . S
C1501 C1504 1.378 . S
C1501 H1516 0.929 . S
C1502 C1501 1.362 . S
C1502 C1503 1.366 . S
C1503 C1500 1.365 . S
C1503 C1502 1.366 . S
C1503 H1517 0.930 . S
C1504 C1501 1.378 . S
C1504 N1505 1.315 . S
C1504 H1507 0.930 . S
N1505 Co1485 2.194 . S
N1505 C1500 1.328 . S
N1505 C1504 1.315 . S
H1506 C1500 0.929 . S
H1507 C1504 0.930 . S
H1508 C1496 0.929 . S
H1509 C1498 0.929 . S
O1510 Co1485 2.351 . S
O1510 C1513 1.244 . S
O1511 Co1485 2.155 . S
O1511 C1513 1.240 . S
O1512 Co1485 2.096 . S
O1512 C1493 1.247 . S
C1513 O1510 1.244 . S
C1513 O1511 1.240 . S
H1514 C1488 0.931 . S
H1515 C1497 0.931 . S
H1516 C1501 0.929 . S
H1517 C1503 0.930 . S
Co1518 N1522 2.148 . S
Co1518 N1528 2.128 . S
Co1518 N1538 2.194 . S
Co1518 O1543 2.351 . S
Co1518 O1544 2.155 . S
Co1518 O1545 2.096 . S
C1519 N1522 1.301 . S
C1519 N1523 1.328 . S
C1519 H1524 0.930 . S
C1520 C1521 1.333 . S
C1520 N1522 1.317 . S
C1520 H1525 0.930 . S
C1521 C1520 1.333 . S
C1521 N1523 1.350 . S
C1521 H1547 0.931 . S
N1522 Co1518 2.148 . S
N1522 C1519 1.301 . S
N1522 C1520 1.317 . S
N1523 C1519 1.328 . S
N1523 C1521 1.350 . S
H1524 C1519 0.930 . S
H1525 C1520 0.930 . S
C1526 O1527 1.224 . S
C1526 O1545 1.247 . S
O1527 C1526 1.224 . S
N1528 Co1518 2.128 . S
N1528 C1529 1.355 . S
N1528 C1531 1.311 . S
C1529 N1528 1.355 . S
C1529 C1530 1.363 . S
C1529 H1541 0.929 . S
C1530 C1529 1.363 . S
C1530 N1532 1.375 . S
C1530 H1548 0.931 . S
C1531 N1528 1.311 . S
C1531 N1532 1.347 . S
C1531 H1542 0.929 . S
N1532 C1530 1.375 . S
N1532 C1531 1.347 . S
C1533 C1536 1.365 . S
C1533 N1538 1.328 . S
C1533 H1539 0.929 . S
C1534 C1535 1.362 . S
C1534 C1537 1.378 . S
C1534 H1549 0.929 . S
C1535 C1534 1.362 . S
C1535 C1536 1.366 . S
C1536 C1533 1.365 . S
C1536 C1535 1.366 . S
C1536 H1550 0.930 . S
C1537 C1534 1.378 . S
C1537 N1538 1.315 . S
C1537 H1540 0.930 . S
N1538 Co1518 2.194 . S
N1538 C1533 1.328 . S
N1538 C1537 1.315 . S
H1539 C1533 0.929 . S
H1540 C1537 0.930 . S
H1541 C1529 0.929 . S
H1542 C1531 0.929 . S
O1543 Co1518 2.351 . S
O1543 C1546 1.244 . S
O1544 Co1518 2.155 . S
O1544 C1546 1.240 . S
O1545 Co1518 2.096 . S
O1545 C1526 1.247 . S
C1546 O1543 1.244 . S
C1546 O1544 1.240 . S
H1547 C1521 0.931 . S
H1548 C1530 0.931 . S
H1549 C1534 0.929 . S
H1550 C1536 0.930 . S
Co1551 N1555 2.148 . S
Co1551 N1561 2.128 . S
Co1551 N1571 2.194 . S
Co1551 O1576 2.351 . S
Co1551 O1577 2.155 . S
Co1551 O1578 2.096 . S
C1552 N1555 1.301 . S
C1552 N1556 1.328 . S
C1552 H1557 0.930 . S
C1553 C1554 1.333 . S
C1553 N1555 1.317 . S
C1553 H1558 0.930 . S
C1554 C1553 1.333 . S
C1554 N1556 1.350 . S
C1554 H1580 0.931 . S
N1555 Co1551 2.148 . S
N1555 C1552 1.301 . S
N1555 C1553 1.317 . S
N1556 C1552 1.328 . S
N1556 C1554 1.350 . S
H1557 C1552 0.930 . S
H1558 C1553 0.930 . S
C1559 O1560 1.224 . S
C1559 O1578 1.247 . S
O1560 C1559 1.224 . S
N1561 Co1551 2.128 . S
N1561 C1562 1.355 . S
N1561 C1564 1.311 . S
C1562 N1561 1.355 . S
C1562 C1563 1.363 . S
C1562 H1574 0.929 . S
C1563 C1562 1.363 . S
C1563 N1565 1.375 . S
C1563 H1581 0.931 . S
C1564 N1561 1.311 . S
C1564 N1565 1.347 . S
C1564 H1575 0.929 . S
N1565 C1563 1.375 . S
N1565 C1564 1.347 . S
C1566 C1569 1.365 . S
C1566 N1571 1.328 . S
C1566 H1572 0.929 . S
C1567 C1568 1.362 . S
C1567 C1570 1.378 . S
C1567 H1582 0.929 . S
C1568 C1567 1.362 . S
C1568 C1569 1.366 . S
C1569 C1566 1.365 . S
C1569 C1568 1.366 . S
C1569 H1583 0.930 . S
C1570 C1567 1.378 . S
C1570 N1571 1.315 . S
C1570 H1573 0.930 . S
N1571 Co1551 2.194 . S
N1571 C1566 1.328 . S
N1571 C1570 1.315 . S
H1572 C1566 0.929 . S
H1573 C1570 0.930 . S
H1574 C1562 0.929 . S
H1575 C1564 0.929 . S
O1576 Co1551 2.351 . S
O1576 C1579 1.244 . S
O1577 Co1551 2.155 . S
O1577 C1579 1.240 . S
O1578 Co1551 2.096 . S
O1578 C1559 1.247 . S
C1579 O1576 1.244 . S
C1579 O1577 1.240 . S
H1580 C1554 0.931 . S
H1581 C1563 0.931 . S
H1582 C1567 0.929 . S
H1583 C1569 0.930 . S
Co1584 N1588 2.148 . S
Co1584 N1594 2.128 . S
Co1584 N1604 2.194 . S
Co1584 O1609 2.351 . S
Co1584 O1610 2.155 . S
Co1584 O1611 2.096 . S
C1585 N1588 1.301 . S
C1585 N1589 1.328 . S
C1585 H1590 0.930 . S
C1586 C1587 1.333 . S
C1586 N1588 1.317 . S
C1586 H1591 0.930 . S
C1587 C1586 1.333 . S
C1587 N1589 1.350 . S
C1587 H1613 0.931 . S
N1588 Co1584 2.148 . S
N1588 C1585 1.301 . S
N1588 C1586 1.317 . S
N1589 C1585 1.328 . S
N1589 C1587 1.350 . S
H1590 C1585 0.930 . S
H1591 C1586 0.930 . S
C1592 O1593 1.224 . S
C1592 O1611 1.247 . S
O1593 C1592 1.224 . S
N1594 Co1584 2.128 . S
N1594 C1595 1.355 . S
N1594 C1597 1.311 . S
C1595 N1594 1.355 . S
C1595 C1596 1.363 . S
C1595 H1607 0.929 . S
C1596 C1595 1.363 . S
C1596 N1598 1.375 . S
C1596 H1614 0.931 . S
C1597 N1594 1.311 . S
C1597 N1598 1.347 . S
C1597 H1608 0.929 . S
N1598 C1596 1.375 . S
N1598 C1597 1.347 . S
C1599 C1602 1.365 . S
C1599 N1604 1.328 . S
C1599 H1605 0.929 . S
C1600 C1601 1.362 . S
C1600 C1603 1.378 . S
C1600 H1615 0.929 . S
C1601 C1600 1.362 . S
C1601 C1602 1.366 . S
C1602 C1599 1.365 . S
C1602 C1601 1.366 . S
C1602 H1616 0.930 . S
C1603 C1600 1.378 . S
C1603 N1604 1.315 . S
C1603 H1606 0.930 . S
N1604 Co1584 2.194 . S
N1604 C1599 1.328 . S
N1604 C1603 1.315 . S
H1605 C1599 0.929 . S
H1606 C1603 0.930 . S
H1607 C1595 0.929 . S
H1608 C1597 0.929 . S
O1609 Co1584 2.351 . S
O1609 C1612 1.244 . S
O1610 Co1584 2.155 . S
O1610 C1612 1.240 . S
O1611 Co1584 2.096 . S
O1611 C1592 1.247 . S
C1612 O1609 1.244 . S
C1612 O1610 1.240 . S
H1613 C1587 0.931 . S
H1614 C1596 0.931 . S
H1615 C1600 0.929 . S
H1616 C1602 0.930 . S
Co1617 N1621 2.148 . S
Co1617 N1627 2.128 . S
Co1617 N1637 2.194 . S
Co1617 O1642 2.351 . S
Co1617 O1643 2.155 . S
Co1617 O1644 2.096 . S
C1618 N1621 1.301 . S
C1618 N1622 1.328 . S
C1618 H1623 0.930 . S
C1619 C1620 1.333 . S
C1619 N1621 1.317 . S
C1619 H1624 0.930 . S
C1620 C1619 1.333 . S
C1620 N1622 1.350 . S
C1620 H1646 0.931 . S
N1621 Co1617 2.148 . S
N1621 C1618 1.301 . S
N1621 C1619 1.317 . S
N1622 C1618 1.328 . S
N1622 C1620 1.350 . S
H1623 C1618 0.930 . S
H1624 C1619 0.930 . S
C1625 O1626 1.224 . S
C1625 O1644 1.247 . S
O1626 C1625 1.224 . S
N1627 Co1617 2.128 . S
N1627 C1628 1.355 . S
N1627 C1630 1.311 . S
C1628 N1627 1.355 . S
C1628 C1629 1.363 . S
C1628 H1640 0.929 . S
C1629 C1628 1.363 . S
C1629 N1631 1.375 . S
C1629 H1647 0.931 . S
C1630 N1627 1.311 . S
C1630 N1631 1.347 . S
C1630 H1641 0.929 . S
N1631 C1629 1.375 . S
N1631 C1630 1.347 . S
C1632 C1635 1.365 . S
C1632 N1637 1.328 . S
C1632 H1638 0.929 . S
C1633 C1634 1.362 . S
C1633 C1636 1.378 . S
C1633 H1648 0.929 . S
C1634 C1633 1.362 . S
C1634 C1635 1.366 . S
C1635 C1632 1.365 . S
C1635 C1634 1.366 . S
C1635 H1649 0.930 . S
C1636 C1633 1.378 . S
C1636 N1637 1.315 . S
C1636 H1639 0.930 . S
N1637 Co1617 2.194 . S
N1637 C1632 1.328 . S
N1637 C1636 1.315 . S
H1638 C1632 0.929 . S
H1639 C1636 0.930 . S
H1640 C1628 0.929 . S
H1641 C1630 0.929 . S
O1642 Co1617 2.351 . S
O1642 C1645 1.244 . S
O1643 Co1617 2.155 . S
O1643 C1645 1.240 . S
O1644 Co1617 2.096 . S
O1644 C1625 1.247 . S
C1645 O1642 1.244 . S
C1645 O1643 1.240 . S
H1646 C1620 0.931 . S
H1647 C1629 0.931 . S
H1648 C1633 0.929 . S
H1649 C1635 0.930 . S
Co1650 N1654 2.148 . S
Co1650 N1660 2.128 . S
Co1650 N1670 2.194 . S
Co1650 O1675 2.351 . S
Co1650 O1676 2.155 . S
Co1650 O1677 2.096 . S
C1651 N1654 1.301 . S
C1651 N1655 1.328 . S
C1651 H1656 0.930 . S
C1652 C1653 1.333 1_545 S
C1652 N1654 1.317 . S
C1652 H1657 0.945 . S
C1653 C1652 1.333 1_565 S
C1653 N1655 1.350 1_565 S
C1653 H1679 0.931 . S
N1654 Co1650 2.148 . S
N1654 C1651 1.301 . S
N1654 C1652 1.317 . S
N1655 C1651 1.328 . S
N1655 C1653 1.350 1_545 S
H1656 C1651 0.930 . S
H1657 C1652 0.945 . S
C1658 O1659 1.224 . S
C1658 O1677 1.247 . S
O1659 C1658 1.224 . S
N1660 Co1650 2.128 . S
N1660 C1661 1.355 . S
N1660 C1663 1.311 . S
C1661 N1660 1.355 . S
C1661 C1662 1.363 . S
C1661 H1673 0.929 . S
C1662 C1661 1.363 . S
C1662 N1664 1.375 . S
C1662 H1680 0.931 . S
C1663 N1660 1.311 . S
C1663 N1664 1.347 . S
C1663 H1674 0.929 . S
N1664 C1662 1.375 . S
N1664 C1663 1.347 . S
C1665 C1668 1.365 . S
C1665 N1670 1.328 . S
C1665 H1671 0.929 . S
C1666 C1667 1.362 . S
C1666 C1669 1.378 . S
C1666 H1681 0.929 . S
C1667 C1666 1.362 . S
C1667 C1668 1.366 . S
C1668 C1665 1.365 . S
C1668 C1667 1.366 . S
C1668 H1682 0.930 . S
C1669 C1666 1.378 . S
C1669 N1670 1.315 . S
C1669 H1672 0.930 . S
N1670 Co1650 2.194 . S
N1670 C1665 1.328 . S
N1670 C1669 1.315 . S
H1671 C1665 0.929 . S
H1672 C1669 0.930 . S
H1673 C1661 0.929 . S
H1674 C1663 0.929 . S
O1675 Co1650 2.351 . S
O1675 C1678 1.244 . S
O1676 Co1650 2.155 . S
O1676 C1678 1.240 . S
O1677 Co1650 2.096 . S
O1677 C1658 1.247 . S
C1678 O1675 1.244 . S
C1678 O1676 1.240 . S
H1679 C1653 0.931 . S
H1680 C1662 0.931 . S
H1681 C1666 0.929 . S
H1682 C1668 0.930 . S
Co1683 N1687 2.148 . S
Co1683 N1693 2.128 . S
Co1683 N1703 2.194 . S
Co1683 O1708 2.351 . S
Co1683 O1709 2.155 . S
Co1683 O1710 2.096 . S
C1684 N1687 1.301 . S
C1684 N1688 1.328 . S
C1684 H1689 0.930 . S
C1685 C1686 1.333 1_565 S
C1685 N1687 1.317 . S
C1685 H1690 0.945 . S
C1686 C1685 1.333 1_545 S
C1686 N1688 1.350 1_545 S
C1686 H1712 0.931 . S
N1687 Co1683 2.148 . S
N1687 C1684 1.301 . S
N1687 C1685 1.317 . S
N1688 C1684 1.328 . S
N1688 C1686 1.350 1_565 S
H1689 C1684 0.930 . S
H1690 C1685 0.945 . S
C1691 O1692 1.224 . S
C1691 O1710 1.247 . S
O1692 C1691 1.224 . S
N1693 Co1683 2.128 . S
N1693 C1694 1.355 . S
N1693 C1696 1.311 . S
C1694 N1693 1.355 . S
C1694 C1695 1.363 . S
C1694 H1706 0.929 . S
C1695 C1694 1.363 . S
C1695 N1697 1.375 . S
C1695 H1713 0.931 . S
C1696 N1693 1.311 . S
C1696 N1697 1.347 . S
C1696 H1707 0.929 . S
N1697 C1695 1.375 . S
N1697 C1696 1.347 . S
C1698 C1701 1.365 . S
C1698 N1703 1.328 . S
C1698 H1704 0.929 . S
C1699 C1700 1.362 . S
C1699 C1702 1.378 . S
C1699 H1714 0.929 . S
C1700 C1699 1.362 . S
C1700 C1701 1.366 . S
C1701 C1698 1.365 . S
C1701 C1700 1.366 . S
C1701 H1715 0.930 . S
C1702 C1699 1.378 . S
C1702 N1703 1.315 . S
C1702 H1705 0.930 . S
N1703 Co1683 2.194 . S
N1703 C1698 1.328 . S
N1703 C1702 1.315 . S
H1704 C1698 0.929 . S
H1705 C1702 0.930 . S
H1706 C1694 0.929 . S
H1707 C1696 0.929 . S
O1708 Co1683 2.351 . S
O1708 C1711 1.244 . S
O1709 Co1683 2.155 . S
O1709 C1711 1.240 . S
O1710 Co1683 2.096 . S
O1710 C1691 1.247 . S
C1711 O1708 1.244 . S
C1711 O1709 1.240 . S
H1712 C1686 0.931 . S
H1713 C1695 0.931 . S
H1714 C1699 0.929 . S
H1715 C1701 0.930 . S
Co1716 N1720 2.148 . S
Co1716 N1726 2.128 . S
Co1716 N1736 2.194 . S
Co1716 O1741 2.351 . S
Co1716 O1742 2.155 . S
Co1716 O1743 2.096 . S
C1717 N1720 1.301 . S
C1717 N1721 1.328 . S
C1717 H1722 0.930 . S
C1718 C1719 1.333 . S
C1718 N1720 1.317 . S
C1718 H1723 0.930 . S
C1719 C1718 1.333 . S
C1719 N1721 1.350 . S
C1719 H1745 0.931 . S
N1720 Co1716 2.148 . S
N1720 C1717 1.301 . S
N1720 C1718 1.317 . S
N1721 C1717 1.328 . S
N1721 C1719 1.350 . S
H1722 C1717 0.930 . S
H1723 C1718 0.930 . S
C1724 O1725 1.224 . S
C1724 O1743 1.247 . S
O1725 C1724 1.224 . S
N1726 Co1716 2.128 . S
N1726 C1727 1.355 . S
N1726 C1729 1.311 . S
C1727 N1726 1.355 . S
C1727 C1728 1.363 . S
C1727 H1739 0.929 . S
C1728 C1727 1.363 . S
C1728 N1730 1.375 . S
C1728 H1746 0.931 . S
C1729 N1726 1.311 . S
C1729 N1730 1.347 . S
C1729 H1740 0.929 . S
N1730 C1728 1.375 . S
N1730 C1729 1.347 . S
C1731 C1734 1.365 . S
C1731 N1736 1.328 . S
C1731 H1737 0.929 . S
C1732 C1733 1.362 . S
C1732 C1735 1.378 . S
C1732 H1747 0.929 . S
C1733 C1732 1.362 . S
C1733 C1734 1.366 . S
C1734 C1731 1.365 . S
C1734 C1733 1.366 . S
C1734 H1748 0.930 . S
C1735 C1732 1.378 . S
C1735 N1736 1.315 . S
C1735 H1738 0.930 . S
N1736 Co1716 2.194 . S
N1736 C1731 1.328 . S
N1736 C1735 1.315 . S
H1737 C1731 0.929 . S
H1738 C1735 0.930 . S
H1739 C1727 0.929 . S
H1740 C1729 0.929 . S
O1741 Co1716 2.351 . S
O1741 C1744 1.244 . S
O1742 Co1716 2.155 . S
O1742 C1744 1.240 . S
O1743 Co1716 2.096 . S
O1743 C1724 1.247 . S
C1744 O1741 1.244 . S
C1744 O1742 1.240 . S
H1745 C1719 0.931 . S
H1746 C1728 0.931 . S
H1747 C1732 0.929 . S
H1748 C1734 0.930 . S
Co1749 N1753 2.148 . S
Co1749 N1759 2.128 . S
Co1749 N1769 2.194 . S
Co1749 O1774 2.351 . S
Co1749 O1775 2.155 . S
Co1749 O1776 2.096 . S
C1750 N1753 1.301 . S
C1750 N1754 1.328 . S
C1750 H1755 0.930 . S
C1751 C1752 1.333 . S
C1751 N1753 1.317 . S
C1751 H1756 0.930 . S
C1752 C1751 1.333 . S
C1752 N1754 1.350 . S
C1752 H1778 0.931 . S
N1753 Co1749 2.148 . S
N1753 C1750 1.301 . S
N1753 C1751 1.317 . S
N1754 C1750 1.328 . S
N1754 C1752 1.350 . S
H1755 C1750 0.930 . S
H1756 C1751 0.930 . S
C1757 O1758 1.224 . S
C1757 O1776 1.247 . S
O1758 C1757 1.224 . S
N1759 Co1749 2.128 . S
N1759 C1760 1.355 . S
N1759 C1762 1.311 . S
C1760 N1759 1.355 . S
C1760 C1761 1.363 . S
C1760 H1772 0.929 . S
C1761 C1760 1.363 . S
C1761 N1763 1.375 . S
C1761 H1779 0.931 . S
C1762 N1759 1.311 . S
C1762 N1763 1.347 . S
C1762 H1773 0.929 . S
N1763 C1761 1.375 . S
N1763 C1762 1.347 . S
C1764 C1767 1.365 . S
C1764 N1769 1.328 . S
C1764 H1770 0.929 . S
C1765 C1766 1.362 . S
C1765 C1768 1.378 . S
C1765 H1780 0.929 . S
C1766 C1765 1.362 . S
C1766 C1767 1.366 . S
C1767 C1764 1.365 . S
C1767 C1766 1.366 . S
C1767 H1781 0.930 . S
C1768 C1765 1.378 . S
C1768 N1769 1.315 . S
C1768 H1771 0.930 . S
N1769 Co1749 2.194 . S
N1769 C1764 1.328 . S
N1769 C1768 1.315 . S
H1770 C1764 0.929 . S
H1771 C1768 0.930 . S
H1772 C1760 0.929 . S
H1773 C1762 0.929 . S
O1774 Co1749 2.351 . S
O1774 C1777 1.244 . S
O1775 Co1749 2.155 . S
O1775 C1777 1.240 . S
O1776 Co1749 2.096 . S
O1776 C1757 1.247 . S
C1777 O1774 1.244 . S
C1777 O1775 1.240 . S
H1778 C1752 0.931 . S
H1779 C1761 0.931 . S
H1780 C1765 0.929 . S
H1781 C1767 0.930 . S
Co1782 N1786 2.148 . S
Co1782 N1792 2.128 . S
Co1782 N1802 2.194 . S
Co1782 O1807 2.351 . S
Co1782 O1808 2.155 . S
Co1782 O1809 2.096 . S
C1783 N1786 1.301 . S
C1783 N1787 1.328 . S
C1783 H1788 0.930 . S
C1784 C1785 1.333 . S
C1784 N1786 1.317 . S
C1784 H1789 0.930 . S
C1785 C1784 1.333 . S
C1785 N1787 1.350 . S
C1785 H1811 0.931 . S
N1786 Co1782 2.148 . S
N1786 C1783 1.301 . S
N1786 C1784 1.317 . S
N1787 C1783 1.328 . S
N1787 C1785 1.350 . S
H1788 C1783 0.930 . S
H1789 C1784 0.930 . S
C1790 O1791 1.224 . S
C1790 O1809 1.247 . S
O1791 C1790 1.224 . S
N1792 Co1782 2.128 . S
N1792 C1793 1.355 . S
N1792 C1795 1.311 . S
C1793 N1792 1.355 . S
C1793 C1794 1.363 . S
C1793 H1805 0.929 . S
C1794 C1793 1.363 . S
C1794 N1796 1.375 . S
C1794 H1812 0.931 . S
C1795 N1792 1.311 . S
C1795 N1796 1.347 . S
C1795 H1806 0.929 . S
N1796 C1794 1.375 . S
N1796 C1795 1.347 . S
C1797 C1800 1.365 . S
C1797 N1802 1.328 . S
C1797 H1803 0.929 . S
C1798 C1799 1.362 . S
C1798 C1801 1.378 . S
C1798 H1813 0.929 . S
C1799 C1798 1.362 . S
C1799 C1800 1.366 . S
C1800 C1797 1.365 . S
C1800 C1799 1.366 . S
C1800 H1814 0.930 . S
C1801 C1798 1.378 . S
C1801 N1802 1.315 . S
C1801 H1804 0.930 . S
N1802 Co1782 2.194 . S
N1802 C1797 1.328 . S
N1802 C1801 1.315 . S
H1803 C1797 0.929 . S
H1804 C1801 0.930 . S
H1805 C1793 0.929 . S
H1806 C1795 0.929 . S
O1807 Co1782 2.351 . S
O1807 C1810 1.244 . S
O1808 Co1782 2.155 . S
O1808 C1810 1.240 . S
O1809 Co1782 2.096 . S
O1809 C1790 1.247 . S
C1810 O1807 1.244 . S
C1810 O1808 1.240 . S
H1811 C1785 0.931 . S
H1812 C1794 0.931 . S
H1813 C1798 0.929 . S
H1814 C1800 0.930 . S
Co1815 N1819 2.148 . S
Co1815 N1825 2.128 . S
Co1815 N1835 2.194 . S
Co1815 O1840 2.351 . S
Co1815 O1841 2.155 . S
Co1815 O1842 2.096 . S
C1816 N1819 1.301 . S
C1816 N1820 1.328 . S
C1816 H1821 0.930 . S
C1817 C1818 1.333 1_455 S
C1817 N1819 1.317 . S
C1817 H1822 0.945 . S
C1818 C1817 1.333 1_655 S
C1818 N1820 1.350 1_655 S
C1818 H1844 0.931 . S
N1819 Co1815 2.148 . S
N1819 C1816 1.301 . S
N1819 C1817 1.317 . S
N1820 C1816 1.328 . S
N1820 C1818 1.350 1_455 S
H1821 C1816 0.930 . S
H1822 C1817 0.945 . S
C1823 O1824 1.224 . S
C1823 O1842 1.247 . S
O1824 C1823 1.224 . S
N1825 Co1815 2.128 . S
N1825 C1826 1.355 . S
N1825 C1828 1.311 . S
C1826 N1825 1.355 . S
C1826 C1827 1.363 . S
C1826 H1838 0.929 . S
C1827 C1826 1.363 . S
C1827 N1829 1.375 . S
C1827 H1845 0.931 . S
C1828 N1825 1.311 . S
C1828 N1829 1.347 . S
C1828 H1839 0.929 . S
N1829 C1827 1.375 . S
N1829 C1828 1.347 . S
C1830 C1833 1.365 . S
C1830 N1835 1.328 . S
C1830 H1836 0.929 . S
C1831 C1832 1.362 . S
C1831 C1834 1.378 . S
C1831 H1846 0.929 . S
C1832 C1831 1.362 . S
C1832 C1833 1.366 . S
C1833 C1830 1.365 . S
C1833 C1832 1.366 . S
C1833 H1847 0.930 . S
C1834 C1831 1.378 . S
C1834 N1835 1.315 . S
C1834 H1837 0.930 . S
N1835 Co1815 2.194 . S
N1835 C1830 1.328 . S
N1835 C1834 1.315 . S
H1836 C1830 0.929 . S
H1837 C1834 0.930 . S
H1838 C1826 0.929 . S
H1839 C1828 0.929 . S
O1840 Co1815 2.351 . S
O1840 C1843 1.244 . S
O1841 Co1815 2.155 . S
O1841 C1843 1.240 . S
O1842 Co1815 2.096 . S
O1842 C1823 1.247 . S
C1843 O1840 1.244 . S
C1843 O1841 1.240 . S
H1844 C1818 0.931 . S
H1845 C1827 0.931 . S
H1846 C1831 0.929 . S
H1847 C1833 0.930 . S
Co1848 N1852 2.148 . S
Co1848 N1858 2.128 . S
Co1848 N1868 2.194 . S
Co1848 O1873 2.351 . S
Co1848 O1874 2.155 . S
Co1848 O1875 2.096 . S
C1849 N1852 1.301 . S
C1849 N1853 1.328 . S
C1849 H1854 0.930 . S
C1850 C1851 1.333 . S
C1850 N1852 1.317 . S
C1850 H1855 0.930 . S
C1851 C1850 1.333 . S
C1851 N1853 1.350 . S
C1851 H1877 0.931 . S
N1852 Co1848 2.148 . S
N1852 C1849 1.301 . S
N1852 C1850 1.317 . S
N1853 C1849 1.328 . S
N1853 C1851 1.350 . S
H1854 C1849 0.930 . S
H1855 C1850 0.930 . S
C1856 O1857 1.224 . S
C1856 O1875 1.247 . S
O1857 C1856 1.224 . S
N1858 Co1848 2.128 . S
N1858 C1859 1.355 . S
N1858 C1861 1.311 . S
C1859 N1858 1.355 . S
C1859 C1860 1.363 . S
C1859 H1871 0.929 . S
C1860 C1859 1.363 . S
C1860 N1862 1.375 . S
C1860 H1878 0.931 . S
C1861 N1858 1.311 . S
C1861 N1862 1.347 . S
C1861 H1872 0.929 . S
N1862 C1860 1.375 . S
N1862 C1861 1.347 . S
C1863 C1866 1.365 . S
C1863 N1868 1.328 . S
C1863 H1869 0.929 . S
C1864 C1865 1.362 . S
C1864 C1867 1.378 . S
C1864 H1879 0.929 . S
C1865 C1864 1.362 . S
C1865 C1866 1.366 . S
C1866 C1863 1.365 . S
C1866 C1865 1.366 . S
C1866 H1880 0.930 . S
C1867 C1864 1.378 . S
C1867 N1868 1.315 . S
C1867 H1870 0.930 . S
N1868 Co1848 2.194 . S
N1868 C1863 1.328 . S
N1868 C1867 1.315 . S
H1869 C1863 0.929 . S
H1870 C1867 0.930 . S
H1871 C1859 0.929 . S
H1872 C1861 0.929 . S
O1873 Co1848 2.351 . S
O1873 C1876 1.244 . S
O1874 Co1848 2.155 . S
O1874 C1876 1.240 . S
O1875 Co1848 2.096 . S
O1875 C1856 1.247 . S
C1876 O1873 1.244 . S
C1876 O1874 1.240 . S
H1877 C1851 0.931 . S
H1878 C1860 0.931 . S
H1879 C1864 0.929 . S
H1880 C1866 0.930 . S
Co1881 N1885 2.148 . S
Co1881 N1891 2.128 . S
Co1881 N1901 2.194 . S
Co1881 O1906 2.351 . S
Co1881 O1907 2.155 . S
Co1881 O1908 2.096 . S
C1882 N1885 1.301 . S
C1882 N1886 1.328 . S
C1882 H1887 0.930 . S
C1883 C1884 1.333 . S
C1883 N1885 1.317 . S
C1883 H1888 0.930 . S
C1884 C1883 1.333 . S
C1884 N1886 1.350 . S
C1884 H1910 0.931 . S
N1885 Co1881 2.148 . S
N1885 C1882 1.301 . S
N1885 C1883 1.317 . S
N1886 C1882 1.328 . S
N1886 C1884 1.350 . S
H1887 C1882 0.930 . S
H1888 C1883 0.930 . S
C1889 O1890 1.224 . S
C1889 O1908 1.247 . S
O1890 C1889 1.224 . S
N1891 Co1881 2.128 . S
N1891 C1892 1.355 . S
N1891 C1894 1.311 . S
C1892 N1891 1.355 . S
C1892 C1893 1.363 . S
C1892 H1904 0.929 . S
C1893 C1892 1.363 . S
C1893 N1895 1.375 . S
C1893 H1911 0.931 . S
C1894 N1891 1.311 . S
C1894 N1895 1.347 . S
C1894 H1905 0.929 . S
N1895 C1893 1.375 . S
N1895 C1894 1.347 . S
C1896 C1899 1.365 . S
C1896 N1901 1.328 . S
C1896 H1902 0.929 . S
C1897 C1898 1.362 . S
C1897 C1900 1.378 . S
C1897 H1912 0.929 . S
C1898 C1897 1.362 . S
C1898 C1899 1.366 . S
C1899 C1896 1.365 . S
C1899 C1898 1.366 . S
C1899 H1913 0.930 . S
C1900 C1897 1.378 . S
C1900 N1901 1.315 . S
C1900 H1903 0.930 . S
N1901 Co1881 2.194 . S
N1901 C1896 1.328 . S
N1901 C1900 1.315 . S
H1902 C1896 0.929 . S
H1903 C1900 0.930 . S
H1904 C1892 0.929 . S
H1905 C1894 0.929 . S
O1906 Co1881 2.351 . S
O1906 C1909 1.244 . S
O1907 Co1881 2.155 . S
O1907 C1909 1.240 . S
O1908 Co1881 2.096 . S
O1908 C1889 1.247 . S
C1909 O1906 1.244 . S
C1909 O1907 1.240 . S
H1910 C1884 0.931 . S
H1911 C1893 0.931 . S
H1912 C1897 0.929 . S
H1913 C1899 0.930 . S
Co1914 N1918 2.148 . S
Co1914 N1924 2.128 . S
Co1914 N1934 2.194 . S
Co1914 O1939 2.351 . S
Co1914 O1940 2.155 . S
Co1914 O1941 2.096 . S
C1915 N1918 1.301 . S
C1915 N1919 1.328 . S
C1915 H1920 0.930 . S
C1916 C1917 1.333 . S
C1916 N1918 1.317 . S
C1916 H1921 0.930 . S
C1917 C1916 1.333 . S
C1917 N1919 1.350 . S
C1917 H1943 0.931 . S
N1918 Co1914 2.148 . S
N1918 C1915 1.301 . S
N1918 C1916 1.317 . S
N1919 C1915 1.328 . S
N1919 C1917 1.350 . S
H1920 C1915 0.930 . S
H1921 C1916 0.930 . S
C1922 O1923 1.224 . S
C1922 O1941 1.247 . S
O1923 C1922 1.224 . S
N1924 Co1914 2.128 . S
N1924 C1925 1.355 . S
N1924 C1927 1.311 . S
C1925 N1924 1.355 . S
C1925 C1926 1.363 . S
C1925 H1937 0.929 . S
C1926 C1925 1.363 . S
C1926 N1928 1.375 . S
C1926 H1944 0.931 . S
C1927 N1924 1.311 . S
C1927 N1928 1.347 . S
C1927 H1938 0.929 . S
N1928 C1926 1.375 . S
N1928 C1927 1.347 . S
C1929 C1932 1.365 . S
C1929 N1934 1.328 . S
C1929 H1935 0.929 . S
C1930 C1931 1.362 . S
C1930 C1933 1.378 . S
C1930 H1945 0.929 . S
C1931 C1930 1.362 . S
C1931 C1932 1.366 . S
C1932 C1929 1.365 . S
C1932 C1931 1.366 . S
C1932 H1946 0.930 . S
C1933 C1930 1.378 . S
C1933 N1934 1.315 . S
C1933 H1936 0.930 . S
N1934 Co1914 2.194 . S
N1934 C1929 1.328 . S
N1934 C1933 1.315 . S
H1935 C1929 0.929 . S
H1936 C1933 0.930 . S
H1937 C1925 0.929 . S
H1938 C1927 0.929 . S
O1939 Co1914 2.351 . S
O1939 C1942 1.244 . S
O1940 Co1914 2.155 . S
O1940 C1942 1.240 . S
O1941 Co1914 2.096 . S
O1941 C1922 1.247 . S
C1942 O1939 1.244 . S
C1942 O1940 1.240 . S
H1943 C1917 0.931 . S
H1944 C1926 0.931 . S
H1945 C1930 0.929 . S
H1946 C1932 0.930 . S
Co1947 N1951 2.148 . S
Co1947 N1957 2.128 . S
Co1947 N1967 2.194 . S
Co1947 O1972 2.351 . S
Co1947 O1973 2.155 . S
Co1947 O1974 2.096 . S
C1948 N1951 1.301 . S
C1948 N1952 1.328 . S
C1948 H1953 0.930 . S
C1949 C1950 1.333 . S
C1949 N1951 1.317 . S
C1949 H1954 0.930 . S
C1950 C1949 1.333 . S
C1950 N1952 1.350 . S
C1950 H1976 0.931 . S
N1951 Co1947 2.148 . S
N1951 C1948 1.301 . S
N1951 C1949 1.317 . S
N1952 C1948 1.328 . S
N1952 C1950 1.350 . S
H1953 C1948 0.930 . S
H1954 C1949 0.930 . S
C1955 O1956 1.224 . S
C1955 O1974 1.247 . S
O1956 C1955 1.224 . S
N1957 Co1947 2.128 . S
N1957 C1958 1.355 . S
N1957 C1960 1.311 . S
C1958 N1957 1.355 . S
C1958 C1959 1.363 . S
C1958 H1970 0.929 . S
C1959 C1958 1.363 . S
C1959 N1961 1.375 . S
C1959 H1977 0.931 . S
C1960 N1957 1.311 . S
C1960 N1961 1.347 . S
C1960 H1971 0.929 . S
N1961 C1959 1.375 . S
N1961 C1960 1.347 . S
C1962 C1965 1.365 . S
C1962 N1967 1.328 . S
C1962 H1968 0.929 . S
C1963 C1964 1.362 . S
C1963 C1966 1.378 . S
C1963 H1978 0.929 . S
C1964 C1963 1.362 . S
C1964 C1965 1.366 . S
C1965 C1962 1.365 . S
C1965 C1964 1.366 . S
C1965 H1979 0.930 . S
C1966 C1963 1.378 . S
C1966 N1967 1.315 . S
C1966 H1969 0.930 . S
N1967 Co1947 2.194 . S
N1967 C1962 1.328 . S
N1967 C1966 1.315 . S
H1968 C1962 0.929 . S
H1969 C1966 0.930 . S
H1970 C1958 0.929 . S
H1971 C1960 0.929 . S
O1972 Co1947 2.351 . S
O1972 C1975 1.244 . S
O1973 Co1947 2.155 . S
O1973 C1975 1.240 . S
O1974 Co1947 2.096 . S
O1974 C1955 1.247 . S
C1975 O1972 1.244 . S
C1975 O1973 1.240 . S
H1976 C1950 0.931 . S
H1977 C1959 0.931 . S
H1978 C1963 0.929 . S
H1979 C1965 0.930 . S
Co1980 N1984 2.148 . S
Co1980 N1990 2.128 . S
Co1980 N2000 2.194 . S
Co1980 O2005 2.351 . S
Co1980 O2006 2.155 . S
Co1980 O2007 2.096 . S
C1981 N1984 1.301 . S
C1981 N1985 1.328 . S
C1981 H1986 0.930 . S
C1982 C1983 1.333 . S
C1982 N1984 1.317 . S
C1982 H1987 0.930 . S
C1983 C1982 1.333 . S
C1983 N1985 1.350 . S
C1983 H2009 0.931 . S
N1984 Co1980 2.148 . S
N1984 C1981 1.301 . S
N1984 C1982 1.317 . S
N1985 C1981 1.328 . S
N1985 C1983 1.350 . S
H1986 C1981 0.930 . S
H1987 C1982 0.930 . S
C1988 O1989 1.224 . S
C1988 O2007 1.247 . S
O1989 C1988 1.224 . S
N1990 Co1980 2.128 . S
N1990 C1991 1.355 . S
N1990 C1993 1.311 . S
C1991 N1990 1.355 . S
C1991 C1992 1.363 . S
C1991 H2003 0.929 . S
C1992 C1991 1.363 . S
C1992 N1994 1.375 . S
C1992 H2010 0.931 . S
C1993 N1990 1.311 . S
C1993 N1994 1.347 . S
C1993 H2004 0.929 . S
N1994 C1992 1.375 . S
N1994 C1993 1.347 . S
C1995 C1998 1.365 . S
C1995 N2000 1.328 . S
C1995 H2001 0.929 . S
C1996 C1997 1.362 . S
C1996 C1999 1.378 . S
C1996 H2011 0.929 . S
C1997 C1996 1.362 . S
C1997 C1998 1.366 . S
C1998 C1995 1.365 . S
C1998 C1997 1.366 . S
C1998 H2012 0.930 . S
C1999 C1996 1.378 . S
C1999 N2000 1.315 . S
C1999 H2002 0.930 . S
N2000 Co1980 2.194 . S
N2000 C1995 1.328 . S
N2000 C1999 1.315 . S
H2001 C1995 0.929 . S
H2002 C1999 0.930 . S
H2003 C1991 0.929 . S
H2004 C1993 0.929 . S
O2005 Co1980 2.351 . S
O2005 C2008 1.244 . S
O2006 Co1980 2.155 . S
O2006 C2008 1.240 . S
O2007 Co1980 2.096 . S
O2007 C1988 1.247 . S
C2008 O2005 1.244 . S
C2008 O2006 1.240 . S
H2009 C1983 0.931 . S
H2010 C1992 0.931 . S
H2011 C1996 0.929 . S
H2012 C1998 0.930 . S
Co2013 N2017 2.148 . S
Co2013 N2023 2.128 . S
Co2013 N2033 2.194 . S
Co2013 O2038 2.351 . S
Co2013 O2039 2.155 . S
Co2013 O2040 2.096 . S
C2014 N2017 1.301 . S
C2014 N2018 1.328 . S
C2014 H2019 0.930 . S
C2015 C2016 1.333 . S
C2015 N2017 1.317 . S
C2015 H2020 0.930 . S
C2016 C2015 1.333 . S
C2016 N2018 1.350 . S
C2016 H2042 0.931 . S
N2017 Co2013 2.148 . S
N2017 C2014 1.301 . S
N2017 C2015 1.317 . S
N2018 C2014 1.328 . S
N2018 C2016 1.350 . S
H2019 C2014 0.930 . S
H2020 C2015 0.930 . S
C2021 O2022 1.224 . S
C2021 O2040 1.247 . S
O2022 C2021 1.224 . S
N2023 Co2013 2.128 . S
N2023 C2024 1.355 . S
N2023 C2026 1.311 . S
C2024 N2023 1.355 . S
C2024 C2025 1.363 . S
C2024 H2036 0.929 . S
C2025 C2024 1.363 . S
C2025 N2027 1.375 . S
C2025 H2043 0.931 . S
C2026 N2023 1.311 . S
C2026 N2027 1.347 . S
C2026 H2037 0.929 . S
N2027 C2025 1.375 . S
N2027 C2026 1.347 . S
C2028 C2031 1.365 . S
C2028 N2033 1.328 . S
C2028 H2034 0.929 . S
C2029 C2030 1.362 . S
C2029 C2032 1.378 . S
C2029 H2044 0.929 . S
C2030 C2029 1.362 . S
C2030 C2031 1.366 . S
C2031 C2028 1.365 . S
C2031 C2030 1.366 . S
C2031 H2045 0.930 . S
C2032 C2029 1.378 . S
C2032 N2033 1.315 . S
C2032 H2035 0.930 . S
N2033 Co2013 2.194 . S
N2033 C2028 1.328 . S
N2033 C2032 1.315 . S
H2034 C2028 0.929 . S
H2035 C2032 0.930 . S
H2036 C2024 0.929 . S
H2037 C2026 0.929 . S
O2038 Co2013 2.351 . S
O2038 C2041 1.244 . S
O2039 Co2013 2.155 . S
O2039 C2041 1.240 . S
O2040 Co2013 2.096 . S
O2040 C2021 1.247 . S
C2041 O2038 1.244 . S
C2041 O2039 1.240 . S
H2042 C2016 0.931 . S
H2043 C2025 0.931 . S
H2044 C2029 0.929 . S
H2045 C2031 0.930 . S
Co2046 N2050 2.148 . S
Co2046 N2056 2.128 . S
Co2046 N2066 2.194 . S
Co2046 O2071 2.351 . S
Co2046 O2072 2.155 . S
Co2046 O2073 2.096 . S
C2047 N2050 1.301 . S
C2047 N2051 1.328 . S
C2047 H2052 0.930 . S
C2048 C2049 1.333 . S
C2048 N2050 1.317 . S
C2048 H2053 0.930 . S
C2049 C2048 1.333 . S
C2049 N2051 1.350 . S
C2049 H2075 0.931 . S
N2050 Co2046 2.148 . S
N2050 C2047 1.301 . S
N2050 C2048 1.317 . S
N2051 C2047 1.328 . S
N2051 C2049 1.350 . S
H2052 C2047 0.930 . S
H2053 C2048 0.930 . S
C2054 O2055 1.224 . S
C2054 O2073 1.247 . S
O2055 C2054 1.224 . S
N2056 Co2046 2.128 . S
N2056 C2057 1.355 . S
N2056 C2059 1.311 . S
C2057 N2056 1.355 . S
C2057 C2058 1.363 . S
C2057 H2069 0.929 . S
C2058 C2057 1.363 . S
C2058 N2060 1.375 . S
C2058 H2076 0.931 . S
C2059 N2056 1.311 . S
C2059 N2060 1.347 . S
C2059 H2070 0.929 . S
N2060 C2058 1.375 . S
N2060 C2059 1.347 . S
C2061 C2064 1.365 . S
C2061 N2066 1.328 . S
C2061 H2067 0.929 . S
C2062 C2063 1.362 . S
C2062 C2065 1.378 . S
C2062 H2077 0.929 . S
C2063 C2062 1.362 . S
C2063 C2064 1.366 . S
C2064 C2061 1.365 . S
C2064 C2063 1.366 . S
C2064 H2078 0.930 . S
C2065 C2062 1.378 . S
C2065 N2066 1.315 . S
C2065 H2068 0.930 . S
N2066 Co2046 2.194 . S
N2066 C2061 1.328 . S
N2066 C2065 1.315 . S
H2067 C2061 0.929 . S
H2068 C2065 0.930 . S
H2069 C2057 0.929 . S
H2070 C2059 0.929 . S
O2071 Co2046 2.351 . S
O2071 C2074 1.244 . S
O2072 Co2046 2.155 . S
O2072 C2074 1.240 . S
O2073 Co2046 2.096 . S
O2073 C2054 1.247 . S
C2074 O2071 1.244 . S
C2074 O2072 1.240 . S
H2075 C2049 0.931 . S
H2076 C2058 0.931 . S
H2077 C2062 0.929 . S
H2078 C2064 0.930 . S
Co2079 N2083 2.148 . S
Co2079 N2089 2.128 . S
Co2079 N2099 2.194 . S
Co2079 O2104 2.351 . S
Co2079 O2105 2.155 . S
Co2079 O2106 2.096 . S
C2080 N2083 1.301 . S
C2080 N2084 1.328 . S
C2080 H2085 0.930 . S
C2081 C2082 1.333 1_655 S
C2081 N2083 1.317 . S
C2081 H2086 0.945 . S
C2082 C2081 1.333 1_455 S
C2082 N2084 1.350 1_455 S
C2082 H2108 0.931 . S
N2083 Co2079 2.148 . S
N2083 C2080 1.301 . S
N2083 C2081 1.317 . S
N2084 C2080 1.328 . S
N2084 C2082 1.350 1_655 S
H2085 C2080 0.930 . S
H2086 C2081 0.945 . S
C2087 O2088 1.224 . S
C2087 O2106 1.247 . S
O2088 C2087 1.224 . S
N2089 Co2079 2.128 . S
N2089 C2090 1.355 . S
N2089 C2092 1.311 . S
C2090 N2089 1.355 . S
C2090 C2091 1.363 . S
C2090 H2102 0.929 . S
C2091 C2090 1.363 . S
C2091 N2093 1.375 . S
C2091 H2109 0.931 . S
C2092 N2089 1.311 . S
C2092 N2093 1.347 . S
C2092 H2103 0.929 . S
N2093 C2091 1.375 . S
N2093 C2092 1.347 . S
C2094 C2097 1.365 . S
C2094 N2099 1.328 . S
C2094 H2100 0.929 . S
C2095 C2096 1.362 . S
C2095 C2098 1.378 . S
C2095 H2110 0.929 . S
C2096 C2095 1.362 . S
C2096 C2097 1.366 . S
C2097 C2094 1.365 . S
C2097 C2096 1.366 . S
C2097 H2111 0.930 . S
C2098 C2095 1.378 . S
C2098 N2099 1.315 . S
C2098 H2101 0.930 . S
N2099 Co2079 2.194 . S
N2099 C2094 1.328 . S
N2099 C2098 1.315 . S
H2100 C2094 0.929 . S
H2101 C2098 0.930 . S
H2102 C2090 0.929 . S
H2103 C2092 0.929 . S
O2104 Co2079 2.351 . S
O2104 C2107 1.244 . S
O2105 Co2079 2.155 . S
O2105 C2107 1.240 . S
O2106 Co2079 2.096 . S
O2106 C2087 1.247 . S
C2107 O2104 1.244 . S
C2107 O2105 1.240 . S
H2108 C2082 0.931 . S
H2109 C2091 0.931 . S
H2110 C2095 0.929 . S
H2111 C2097 0.930 . S
Co2112 N2116 2.148 . S
Co2112 N2122 2.128 . S
Co2112 N2132 2.194 . S
Co2112 O2137 2.351 . S
Co2112 O2138 2.155 . S
Co2112 O2139 2.096 . S
C2113 N2116 1.301 . S
C2113 N2117 1.328 . S
C2113 H2118 0.930 . S
C2114 C2115 1.333 1_556 S
C2114 N2116 1.317 . S
C2114 H2119 0.945 . S
C2115 C2114 1.333 1_554 S
C2115 N2117 1.350 1_554 S
C2115 H2141 0.931 . S
N2116 Co2112 2.148 . S
N2116 C2113 1.301 . S
N2116 C2114 1.317 . S
N2117 C2113 1.328 . S
N2117 C2115 1.350 1_556 S
H2118 C2113 0.930 . S
H2119 C2114 0.945 . S
C2120 O2121 1.224 . S
C2120 O2139 1.247 . S
O2121 C2120 1.224 . S
N2122 Co2112 2.128 . S
N2122 C2123 1.355 . S
N2122 C2125 1.311 . S
C2123 N2122 1.355 . S
C2123 C2124 1.363 . S
C2123 H2135 0.929 . S
C2124 C2123 1.363 . S
C2124 N2126 1.375 . S
C2124 H2142 0.931 . S
C2125 N2122 1.311 . S
C2125 N2126 1.347 . S
C2125 H2136 0.929 . S
N2126 C2124 1.375 . S
N2126 C2125 1.347 . S
C2127 C2130 1.365 . S
C2127 N2132 1.328 . S
C2127 H2133 0.929 . S
C2128 C2129 1.362 . S
C2128 C2131 1.378 . S
C2128 H2143 0.929 . S
C2129 C2128 1.362 . S
C2129 C2130 1.366 . S
C2130 C2127 1.365 . S
C2130 C2129 1.366 . S
C2130 H2144 0.930 . S
C2131 C2128 1.378 . S
C2131 N2132 1.315 . S
C2131 H2134 0.930 . S
N2132 Co2112 2.194 . S
N2132 C2127 1.328 . S
N2132 C2131 1.315 . S
H2133 C2127 0.929 . S
H2134 C2131 0.930 . S
H2135 C2123 0.929 . S
H2136 C2125 0.929 . S
O2137 Co2112 2.351 . S
O2137 C2140 1.244 . S
O2138 Co2112 2.155 . S
O2138 C2140 1.240 . S
O2139 Co2112 2.096 . S
O2139 C2120 1.247 . S
C2140 O2137 1.244 . S
C2140 O2138 1.240 . S
H2141 C2115 0.931 . S
H2142 C2124 0.931 . S
H2143 C2128 0.929 . S
H2144 C2130 0.930 . S
Co2145 N2149 2.148 . S
Co2145 N2155 2.128 . S
Co2145 N2165 2.194 . S
Co2145 O2170 2.351 . S
Co2145 O2171 2.155 . S
Co2145 O2172 2.096 . S
C2146 N2149 1.301 . S
C2146 N2150 1.328 . S
C2146 H2151 0.930 . S
C2147 C2148 1.333 . S
C2147 N2149 1.317 . S
C2147 H2152 0.930 . S
C2148 C2147 1.333 . S
C2148 N2150 1.350 . S
C2148 H2174 0.931 . S
N2149 Co2145 2.148 . S
N2149 C2146 1.301 . S
N2149 C2147 1.317 . S
N2150 C2146 1.328 . S
N2150 C2148 1.350 . S
H2151 C2146 0.930 . S
H2152 C2147 0.930 . S
C2153 O2154 1.224 . S
C2153 O2172 1.247 . S
O2154 C2153 1.224 . S
N2155 Co2145 2.128 . S
N2155 C2156 1.355 . S
N2155 C2158 1.311 . S
C2156 N2155 1.355 . S
C2156 C2157 1.363 . S
C2156 H2168 0.929 . S
C2157 C2156 1.363 . S
C2157 N2159 1.375 . S
C2157 H2175 0.931 . S
C2158 N2155 1.311 . S
C2158 N2159 1.347 . S
C2158 H2169 0.929 . S
N2159 C2157 1.375 . S
N2159 C2158 1.347 . S
C2160 C2163 1.365 . S
C2160 N2165 1.328 . S
C2160 H2166 0.929 . S
C2161 C2162 1.362 . S
C2161 C2164 1.378 . S
C2161 H2176 0.929 . S
C2162 C2161 1.362 . S
C2162 C2163 1.366 . S
C2163 C2160 1.365 . S
C2163 C2162 1.366 . S
C2163 H2177 0.930 . S
C2164 C2161 1.378 . S
C2164 N2165 1.315 . S
C2164 H2167 0.930 . S
N2165 Co2145 2.194 . S
N2165 C2160 1.328 . S
N2165 C2164 1.315 . S
H2166 C2160 0.929 . S
H2167 C2164 0.930 . S
H2168 C2156 0.929 . S
H2169 C2158 0.929 . S
O2170 Co2145 2.351 . S
O2170 C2173 1.244 . S
O2171 Co2145 2.155 . S
O2171 C2173 1.240 . S
O2172 Co2145 2.096 . S
O2172 C2153 1.247 . S
C2173 O2170 1.244 . S
C2173 O2171 1.240 . S
H2174 C2148 0.931 . S
H2175 C2157 0.931 . S
H2176 C2161 0.929 . S
H2177 C2163 0.930 . S
Co2178 N2182 2.148 . S
Co2178 N2188 2.128 . S
Co2178 N2198 2.194 . S
Co2178 O2203 2.351 . S
Co2178 O2204 2.155 . S
Co2178 O2205 2.096 . S
C2179 N2182 1.301 . S
C2179 N2183 1.328 . S
C2179 H2184 0.930 . S
C2180 C2181 1.333 . S
C2180 N2182 1.317 . S
C2180 H2185 0.930 . S
C2181 C2180 1.333 . S
C2181 N2183 1.350 . S
C2181 H2207 0.931 . S
N2182 Co2178 2.148 . S
N2182 C2179 1.301 . S
N2182 C2180 1.317 . S
N2183 C2179 1.328 . S
N2183 C2181 1.350 . S
H2184 C2179 0.930 . S
H2185 C2180 0.930 . S
C2186 O2187 1.224 . S
C2186 O2205 1.247 . S
O2187 C2186 1.224 . S
N2188 Co2178 2.128 . S
N2188 C2189 1.355 . S
N2188 C2191 1.311 . S
C2189 N2188 1.355 . S
C2189 C2190 1.363 . S
C2189 H2201 0.929 . S
C2190 C2189 1.363 . S
C2190 N2192 1.375 . S
C2190 H2208 0.931 . S
C2191 N2188 1.311 . S
C2191 N2192 1.347 . S
C2191 H2202 0.929 . S
N2192 C2190 1.375 . S
N2192 C2191 1.347 . S
C2193 C2196 1.365 . S
C2193 N2198 1.328 . S
C2193 H2199 0.929 . S
C2194 C2195 1.362 . S
C2194 C2197 1.378 . S
C2194 H2209 0.929 . S
C2195 C2194 1.362 . S
C2195 C2196 1.366 . S
C2196 C2193 1.365 . S
C2196 C2195 1.366 . S
C2196 H2210 0.930 . S
C2197 C2194 1.378 . S
C2197 N2198 1.315 . S
C2197 H2200 0.930 . S
N2198 Co2178 2.194 . S
N2198 C2193 1.328 . S
N2198 C2197 1.315 . S
H2199 C2193 0.929 . S
H2200 C2197 0.930 . S
H2201 C2189 0.929 . S
H2202 C2191 0.929 . S
O2203 Co2178 2.351 . S
O2203 C2206 1.244 . S
O2204 Co2178 2.155 . S
O2204 C2206 1.240 . S
O2205 Co2178 2.096 . S
O2205 C2186 1.247 . S
C2206 O2203 1.244 . S
C2206 O2204 1.240 . S
H2207 C2181 0.931 . S
H2208 C2190 0.931 . S
H2209 C2194 0.929 . S
H2210 C2196 0.930 . S
Co2211 N2215 2.148 . S
Co2211 N2221 2.128 . S
Co2211 N2231 2.194 . S
Co2211 O2236 2.351 . S
Co2211 O2237 2.155 . S
Co2211 O2238 2.096 . S
C2212 N2215 1.301 . S
C2212 N2216 1.328 . S
C2212 H2217 0.930 . S
C2213 C2214 1.333 1_554 S
C2213 N2215 1.317 . S
C2213 H2218 0.945 . S
C2214 C2213 1.333 1_556 S
C2214 N2216 1.350 1_556 S
C2214 H2240 0.931 . S
N2215 Co2211 2.148 . S
N2215 C2212 1.301 . S
N2215 C2213 1.317 . S
N2216 C2212 1.328 . S
N2216 C2214 1.350 1_554 S
H2217 C2212 0.930 . S
H2218 C2213 0.945 . S
C2219 O2220 1.224 . S
C2219 O2238 1.247 . S
O2220 C2219 1.224 . S
N2221 Co2211 2.128 . S
N2221 C2222 1.355 . S
N2221 C2224 1.311 . S
C2222 N2221 1.355 . S
C2222 C2223 1.363 . S
C2222 H2234 0.929 . S
C2223 C2222 1.363 . S
C2223 N2225 1.375 . S
C2223 H2241 0.931 . S
C2224 N2221 1.311 . S
C2224 N2225 1.347 . S
C2224 H2235 0.929 . S
N2225 C2223 1.375 . S
N2225 C2224 1.347 . S
C2226 C2229 1.365 . S
C2226 N2231 1.328 . S
C2226 H2232 0.929 . S
C2227 C2228 1.362 . S
C2227 C2230 1.378 . S
C2227 H2242 0.929 . S
C2228 C2227 1.362 . S
C2228 C2229 1.366 . S
C2229 C2226 1.365 . S
C2229 C2228 1.366 . S
C2229 H2243 0.930 . S
C2230 C2227 1.378 . S
C2230 N2231 1.315 . S
C2230 H2233 0.930 . S
N2231 Co2211 2.194 . S
N2231 C2226 1.328 . S
N2231 C2230 1.315 . S
H2232 C2226 0.929 . S
H2233 C2230 0.930 . S
H2234 C2222 0.929 . S
H2235 C2224 0.929 . S
O2236 Co2211 2.351 . S
O2236 C2239 1.244 . S
O2237 Co2211 2.155 . S
O2237 C2239 1.240 . S
O2238 Co2211 2.096 . S
O2238 C2219 1.247 . S
C2239 O2236 1.244 . S
C2239 O2237 1.240 . S
H2240 C2214 0.931 . S
H2241 C2223 0.931 . S
H2242 C2227 0.929 . S
H2243 C2229 0.930 . S
Co2244 N2248 2.148 . S
Co2244 N2254 2.128 . S
Co2244 N2264 2.194 . S
Co2244 O2269 2.351 . S
Co2244 O2270 2.155 . S
Co2244 O2271 2.096 . S
C2245 N2248 1.301 . S
C2245 N2249 1.328 . S
C2245 H2250 0.930 . S
C2246 C2247 1.333 1_655 S
C2246 N2248 1.317 . S
C2246 H2251 0.945 . S
C2247 C2246 1.333 1_455 S
C2247 N2249 1.350 1_455 S
C2247 H2273 0.931 . S
N2248 Co2244 2.148 . S
N2248 C2245 1.301 . S
N2248 C2246 1.317 . S
N2249 C2245 1.328 . S
N2249 C2247 1.350 1_655 S
H2250 C2245 0.930 . S
H2251 C2246 0.945 . S
C2252 O2253 1.224 . S
C2252 O2271 1.247 . S
O2253 C2252 1.224 . S
N2254 Co2244 2.128 . S
N2254 C2255 1.355 . S
N2254 C2257 1.311 . S
C2255 N2254 1.355 . S
C2255 C2256 1.363 . S
C2255 H2267 0.929 . S
C2256 C2255 1.363 . S
C2256 N2258 1.375 . S
C2256 H2274 0.931 . S
C2257 N2254 1.311 . S
C2257 N2258 1.347 . S
C2257 H2268 0.929 . S
N2258 C2256 1.375 . S
N2258 C2257 1.347 . S
C2259 C2262 1.365 . S
C2259 N2264 1.328 . S
C2259 H2265 0.929 . S
C2260 C2261 1.362 . S
C2260 C2263 1.378 . S
C2260 H2275 0.929 . S
C2261 C2260 1.362 . S
C2261 C2262 1.366 . S
C2262 C2259 1.365 . S
C2262 C2261 1.366 . S
C2262 H2276 0.930 . S
C2263 C2260 1.378 . S
C2263 N2264 1.315 . S
C2263 H2266 0.930 . S
N2264 Co2244 2.194 . S
N2264 C2259 1.328 . S
N2264 C2263 1.315 . S
H2265 C2259 0.929 . S
H2266 C2263 0.930 . S
H2267 C2255 0.929 . S
H2268 C2257 0.929 . S
O2269 Co2244 2.351 . S
O2269 C2272 1.244 . S
O2270 Co2244 2.155 . S
O2270 C2272 1.240 . S
O2271 Co2244 2.096 . S
O2271 C2252 1.247 . S
C2272 O2269 1.244 . S
C2272 O2270 1.240 . S
H2273 C2247 0.931 . S
H2274 C2256 0.931 . S
H2275 C2260 0.929 . S
H2276 C2262 0.930 . S
Co2277 N2281 2.148 . S
Co2277 N2287 2.128 . S
Co2277 N2297 2.194 . S
Co2277 O2302 2.351 . S
Co2277 O2303 2.155 . S
Co2277 O2304 2.096 . S
C2278 N2281 1.301 . S
C2278 N2282 1.328 . S
C2278 H2283 0.930 . S
C2279 C2280 1.333 . S
C2279 N2281 1.317 . S
C2279 H2284 0.930 . S
C2280 C2279 1.333 . S
C2280 N2282 1.350 . S
C2280 H2306 0.931 . S
N2281 Co2277 2.148 . S
N2281 C2278 1.301 . S
N2281 C2279 1.317 . S
N2282 C2278 1.328 . S
N2282 C2280 1.350 . S
H2283 C2278 0.930 . S
H2284 C2279 0.930 . S
C2285 O2286 1.224 . S
C2285 O2304 1.247 . S
O2286 C2285 1.224 . S
N2287 Co2277 2.128 . S
N2287 C2288 1.355 . S
N2287 C2290 1.311 . S
C2288 N2287 1.355 . S
C2288 C2289 1.363 . S
C2288 H2300 0.929 . S
C2289 C2288 1.363 . S
C2289 N2291 1.375 . S
C2289 H2307 0.931 . S
C2290 N2287 1.311 . S
C2290 N2291 1.347 . S
C2290 H2301 0.929 . S
N2291 C2289 1.375 . S
N2291 C2290 1.347 . S
C2292 C2295 1.365 . S
C2292 N2297 1.328 . S
C2292 H2298 0.929 . S
C2293 C2294 1.362 . S
C2293 C2296 1.378 . S
C2293 H2308 0.929 . S
C2294 C2293 1.362 . S
C2294 C2295 1.366 . S
C2295 C2292 1.365 . S
C2295 C2294 1.366 . S
C2295 H2309 0.930 . S
C2296 C2293 1.378 . S
C2296 N2297 1.315 . S
C2296 H2299 0.930 . S
N2297 Co2277 2.194 . S
N2297 C2292 1.328 . S
N2297 C2296 1.315 . S
H2298 C2292 0.929 . S
H2299 C2296 0.930 . S
H2300 C2288 0.929 . S
H2301 C2290 0.929 . S
O2302 Co2277 2.351 . S
O2302 C2305 1.244 . S
O2303 Co2277 2.155 . S
O2303 C2305 1.240 . S
O2304 Co2277 2.096 . S
O2304 C2285 1.247 . S
C2305 O2302 1.244 . S
C2305 O2303 1.240 . S
H2306 C2280 0.931 . S
H2307 C2289 0.931 . S
H2308 C2293 0.929 . S
H2309 C2295 0.930 . S
Co2310 N2314 2.148 . S
Co2310 N2320 2.128 . S
Co2310 N2330 2.194 . S
Co2310 O2335 2.351 . S
Co2310 O2336 2.155 . S
Co2310 O2337 2.096 . S
C2311 N2314 1.301 . S
C2311 N2315 1.328 . S
C2311 H2316 0.930 . S
C2312 C2313 1.333 . S
C2312 N2314 1.317 . S
C2312 H2317 0.930 . S
C2313 C2312 1.333 . S
C2313 N2315 1.350 . S
C2313 H2339 0.931 . S
N2314 Co2310 2.148 . S
N2314 C2311 1.301 . S
N2314 C2312 1.317 . S
N2315 C2311 1.328 . S
N2315 C2313 1.350 . S
H2316 C2311 0.930 . S
H2317 C2312 0.930 . S
C2318 O2319 1.224 . S
C2318 O2337 1.247 . S
O2319 C2318 1.224 . S
N2320 Co2310 2.128 . S
N2320 C2321 1.355 . S
N2320 C2323 1.311 . S
C2321 N2320 1.355 . S
C2321 C2322 1.363 . S
C2321 H2333 0.929 . S
C2322 C2321 1.363 . S
C2322 N2324 1.375 . S
C2322 H2340 0.931 . S
C2323 N2320 1.311 . S
C2323 N2324 1.347 . S
C2323 H2334 0.929 . S
N2324 C2322 1.375 . S
N2324 C2323 1.347 . S
C2325 C2328 1.365 . S
C2325 N2330 1.328 . S
C2325 H2331 0.929 . S
C2326 C2327 1.362 . S
C2326 C2329 1.378 . S
C2326 H2341 0.929 . S
C2327 C2326 1.362 . S
C2327 C2328 1.366 . S
C2328 C2325 1.365 . S
C2328 C2327 1.366 . S
C2328 H2342 0.930 . S
C2329 C2326 1.378 . S
C2329 N2330 1.315 . S
C2329 H2332 0.930 . S
N2330 Co2310 2.194 . S
N2330 C2325 1.328 . S
N2330 C2329 1.315 . S
H2331 C2325 0.929 . S
H2332 C2329 0.930 . S
H2333 C2321 0.929 . S
H2334 C2323 0.929 . S
O2335 Co2310 2.351 . S
O2335 C2338 1.244 . S
O2336 Co2310 2.155 . S
O2336 C2338 1.240 . S
O2337 Co2310 2.096 . S
O2337 C2318 1.247 . S
C2338 O2335 1.244 . S
C2338 O2336 1.240 . S
H2339 C2313 0.931 . S
H2340 C2322 0.931 . S
H2341 C2326 0.929 . S
H2342 C2328 0.930 . S
Co2343 N2347 2.148 . S
Co2343 N2353 2.128 . S
Co2343 N2363 2.194 . S
Co2343 O2368 2.351 . S
Co2343 O2369 2.155 . S
Co2343 O2370 2.096 . S
C2344 N2347 1.301 . S
C2344 N2348 1.328 . S
C2344 H2349 0.930 . S
C2345 C2346 1.333 . S
C2345 N2347 1.317 . S
C2345 H2350 0.930 . S
C2346 C2345 1.333 . S
C2346 N2348 1.350 . S
C2346 H2372 0.931 . S
N2347 Co2343 2.148 . S
N2347 C2344 1.301 . S
N2347 C2345 1.317 . S
N2348 C2344 1.328 . S
N2348 C2346 1.350 . S
H2349 C2344 0.930 . S
H2350 C2345 0.930 . S
C2351 O2352 1.224 . S
C2351 O2370 1.247 . S
O2352 C2351 1.224 . S
N2353 Co2343 2.128 . S
N2353 C2354 1.355 . S
N2353 C2356 1.311 . S
C2354 N2353 1.355 . S
C2354 C2355 1.363 . S
C2354 H2366 0.929 . S
C2355 C2354 1.363 . S
C2355 N2357 1.375 . S
C2355 H2373 0.931 . S
C2356 N2353 1.311 . S
C2356 N2357 1.347 . S
C2356 H2367 0.929 . S
N2357 C2355 1.375 . S
N2357 C2356 1.347 . S
C2358 C2361 1.365 . S
C2358 N2363 1.328 . S
C2358 H2364 0.929 . S
C2359 C2360 1.362 . S
C2359 C2362 1.378 . S
C2359 H2374 0.929 . S
C2360 C2359 1.362 . S
C2360 C2361 1.366 . S
C2361 C2358 1.365 . S
C2361 C2360 1.366 . S
C2361 H2375 0.930 . S
C2362 C2359 1.378 . S
C2362 N2363 1.315 . S
C2362 H2365 0.930 . S
N2363 Co2343 2.194 . S
N2363 C2358 1.328 . S
N2363 C2362 1.315 . S
H2364 C2358 0.929 . S
H2365 C2362 0.930 . S
H2366 C2354 0.929 . S
H2367 C2356 0.929 . S
O2368 Co2343 2.351 . S
O2368 C2371 1.244 . S
O2369 Co2343 2.155 . S
O2369 C2371 1.240 . S
O2370 Co2343 2.096 . S
O2370 C2351 1.247 . S
C2371 O2368 1.244 . S
C2371 O2369 1.240 . S
H2372 C2346 0.931 . S
H2373 C2355 0.931 . S
H2374 C2359 0.929 . S
H2375 C2361 0.930 . S
Co2376 N2380 2.148 . S
Co2376 N2386 2.128 . S
Co2376 N2396 2.194 . S
Co2376 O2401 2.351 . S
Co2376 O2402 2.155 . S
Co2376 O2403 2.096 . S
C2377 N2380 1.301 . S
C2377 N2381 1.328 . S
C2377 H2382 0.930 . S
C2378 C2379 1.333 . S
C2378 N2380 1.317 . S
C2378 H2383 0.930 . S
C2379 C2378 1.333 . S
C2379 N2381 1.350 . S
C2379 H2405 0.931 . S
N2380 Co2376 2.148 . S
N2380 C2377 1.301 . S
N2380 C2378 1.317 . S
N2381 C2377 1.328 . S
N2381 C2379 1.350 . S
H2382 C2377 0.930 . S
H2383 C2378 0.930 . S
C2384 O2385 1.224 . S
C2384 O2403 1.247 . S
O2385 C2384 1.224 . S
N2386 Co2376 2.128 . S
N2386 C2387 1.355 . S
N2386 C2389 1.311 . S
C2387 N2386 1.355 . S
C2387 C2388 1.363 . S
C2387 H2399 0.929 . S
C2388 C2387 1.363 . S
C2388 N2390 1.375 . S
C2388 H2406 0.931 . S
C2389 N2386 1.311 . S
C2389 N2390 1.347 . S
C2389 H2400 0.929 . S
N2390 C2388 1.375 . S
N2390 C2389 1.347 . S
C2391 C2394 1.365 . S
C2391 N2396 1.328 . S
C2391 H2397 0.929 . S
C2392 C2393 1.362 . S
C2392 C2395 1.378 . S
C2392 H2407 0.929 . S
C2393 C2392 1.362 . S
C2393 C2394 1.366 . S
C2394 C2391 1.365 . S
C2394 C2393 1.366 . S
C2394 H2408 0.930 . S
C2395 C2392 1.378 . S
C2395 N2396 1.315 . S
C2395 H2398 0.930 . S
N2396 Co2376 2.194 . S
N2396 C2391 1.328 . S
N2396 C2395 1.315 . S
H2397 C2391 0.929 . S
H2398 C2395 0.930 . S
H2399 C2387 0.929 . S
H2400 C2389 0.929 . S
O2401 Co2376 2.351 . S
O2401 C2404 1.244 . S
O2402 Co2376 2.155 . S
O2402 C2404 1.240 . S
O2403 Co2376 2.096 . S
O2403 C2384 1.247 . S
C2404 O2401 1.244 . S
C2404 O2402 1.240 . S
H2405 C2379 0.931 . S
H2406 C2388 0.931 . S
H2407 C2392 0.929 . S
H2408 C2394 0.930 . S
Co2409 N2413 2.148 . S
Co2409 N2419 2.128 . S
Co2409 N2429 2.194 . S
Co2409 O2434 2.351 . S
Co2409 O2435 2.155 . S
Co2409 O2436 2.096 . S
C2410 N2413 1.301 . S
C2410 N2414 1.328 . S
C2410 H2415 0.930 . S
C2411 C2412 1.333 . S
C2411 N2413 1.317 . S
C2411 H2416 0.930 . S
C2412 C2411 1.333 . S
C2412 N2414 1.350 . S
C2412 H2438 0.931 . S
N2413 Co2409 2.148 . S
N2413 C2410 1.301 . S
N2413 C2411 1.317 . S
N2414 C2410 1.328 . S
N2414 C2412 1.350 . S
H2415 C2410 0.930 . S
H2416 C2411 0.930 . S
C2417 O2418 1.224 . S
C2417 O2436 1.247 . S
O2418 C2417 1.224 . S
N2419 Co2409 2.128 . S
N2419 C2420 1.355 . S
N2419 C2422 1.311 . S
C2420 N2419 1.355 . S
C2420 C2421 1.363 . S
C2420 H2432 0.929 . S
C2421 C2420 1.363 . S
C2421 N2423 1.375 . S
C2421 H2439 0.931 . S
C2422 N2419 1.311 . S
C2422 N2423 1.347 . S
C2422 H2433 0.929 . S
N2423 C2421 1.375 . S
N2423 C2422 1.347 . S
C2424 C2427 1.365 . S
C2424 N2429 1.328 . S
C2424 H2430 0.929 . S
C2425 C2426 1.362 . S
C2425 C2428 1.378 . S
C2425 H2440 0.929 . S
C2426 C2425 1.362 . S
C2426 C2427 1.366 . S
C2427 C2424 1.365 . S
C2427 C2426 1.366 . S
C2427 H2441 0.930 . S
C2428 C2425 1.378 . S
C2428 N2429 1.315 . S
C2428 H2431 0.930 . S
N2429 Co2409 2.194 . S
N2429 C2424 1.328 . S
N2429 C2428 1.315 . S
H2430 C2424 0.929 . S
H2431 C2428 0.930 . S
H2432 C2420 0.929 . S
H2433 C2422 0.929 . S
O2434 Co2409 2.351 . S
O2434 C2437 1.244 . S
O2435 Co2409 2.155 . S
O2435 C2437 1.240 . S
O2436 Co2409 2.096 . S
O2436 C2417 1.247 . S
C2437 O2434 1.244 . S
C2437 O2435 1.240 . S
H2438 C2412 0.931 . S
H2439 C2421 0.931 . S
H2440 C2425 0.929 . S
H2441 C2427 0.930 . S
Co2442 N2446 2.148 . S
Co2442 N2452 2.128 . S
Co2442 N2462 2.194 . S
Co2442 O2467 2.351 . S
Co2442 O2468 2.155 . S
Co2442 O2469 2.096 . S
C2443 N2446 1.301 . S
C2443 N2447 1.328 . S
C2443 H2448 0.930 . S
C2444 C2445 1.333 . S
C2444 N2446 1.317 . S
C2444 H2449 0.930 . S
C2445 C2444 1.333 . S
C2445 N2447 1.350 . S
C2445 H2471 0.931 . S
N2446 Co2442 2.148 . S
N2446 C2443 1.301 . S
N2446 C2444 1.317 . S
N2447 C2443 1.328 . S
N2447 C2445 1.350 . S
H2448 C2443 0.930 . S
H2449 C2444 0.930 . S
C2450 O2451 1.224 . S
C2450 O2469 1.247 . S
O2451 C2450 1.224 . S
N2452 Co2442 2.128 . S
N2452 C2453 1.355 . S
N2452 C2455 1.311 . S
C2453 N2452 1.355 . S
C2453 C2454 1.363 . S
C2453 H2465 0.929 . S
C2454 C2453 1.363 . S
C2454 N2456 1.375 . S
C2454 H2472 0.931 . S
C2455 N2452 1.311 . S
C2455 N2456 1.347 . S
C2455 H2466 0.929 . S
N2456 C2454 1.375 . S
N2456 C2455 1.347 . S
C2457 C2460 1.365 . S
C2457 N2462 1.328 . S
C2457 H2463 0.929 . S
C2458 C2459 1.362 . S
C2458 C2461 1.378 . S
C2458 H2473 0.929 . S
C2459 C2458 1.362 . S
C2459 C2460 1.366 . S
C2460 C2457 1.365 . S
C2460 C2459 1.366 . S
C2460 H2474 0.930 . S
C2461 C2458 1.378 . S
C2461 N2462 1.315 . S
C2461 H2464 0.930 . S
N2462 Co2442 2.194 . S
N2462 C2457 1.328 . S
N2462 C2461 1.315 . S
H2463 C2457 0.929 . S
H2464 C2461 0.930 . S
H2465 C2453 0.929 . S
H2466 C2455 0.929 . S
O2467 Co2442 2.351 . S
O2467 C2470 1.244 . S
O2468 Co2442 2.155 . S
O2468 C2470 1.240 . S
O2469 Co2442 2.096 . S
O2469 C2450 1.247 . S
C2470 O2467 1.244 . S
C2470 O2468 1.240 . S
H2471 C2445 0.931 . S
H2472 C2454 0.931 . S
H2473 C2458 0.929 . S
H2474 C2460 0.930 . S
Co2475 N2479 2.148 . S
Co2475 N2485 2.128 . S
Co2475 N2495 2.194 . S
Co2475 O2500 2.351 . S
Co2475 O2501 2.155 . S
Co2475 O2502 2.096 . S
C2476 N2479 1.301 . S
C2476 N2480 1.328 . S
C2476 H2481 0.930 . S
C2477 C2478 1.333 . S
C2477 N2479 1.317 . S
C2477 H2482 0.930 . S
C2478 C2477 1.333 . S
C2478 N2480 1.350 . S
C2478 H2504 0.931 . S
N2479 Co2475 2.148 . S
N2479 C2476 1.301 . S
N2479 C2477 1.317 . S
N2480 C2476 1.328 . S
N2480 C2478 1.350 . S
H2481 C2476 0.930 . S
H2482 C2477 0.930 . S
C2483 O2484 1.224 . S
C2483 O2502 1.247 . S
O2484 C2483 1.224 . S
N2485 Co2475 2.128 . S
N2485 C2486 1.355 . S
N2485 C2488 1.311 . S
C2486 N2485 1.355 . S
C2486 C2487 1.363 . S
C2486 H2498 0.929 . S
C2487 C2486 1.363 . S
C2487 N2489 1.375 . S
C2487 H2505 0.931 . S
C2488 N2485 1.311 . S
C2488 N2489 1.347 . S
C2488 H2499 0.929 . S
N2489 C2487 1.375 . S
N2489 C2488 1.347 . S
C2490 C2493 1.365 . S
C2490 N2495 1.328 . S
C2490 H2496 0.929 . S
C2491 C2492 1.362 . S
C2491 C2494 1.378 . S
C2491 H2506 0.929 . S
C2492 C2491 1.362 . S
C2492 C2493 1.366 . S
C2493 C2490 1.365 . S
C2493 C2492 1.366 . S
C2493 H2507 0.930 . S
C2494 C2491 1.378 . S
C2494 N2495 1.315 . S
C2494 H2497 0.930 . S
N2495 Co2475 2.194 . S
N2495 C2490 1.328 . S
N2495 C2494 1.315 . S
H2496 C2490 0.929 . S
H2497 C2494 0.930 . S
H2498 C2486 0.929 . S
H2499 C2488 0.929 . S
O2500 Co2475 2.351 . S
O2500 C2503 1.244 . S
O2501 Co2475 2.155 . S
O2501 C2503 1.240 . S
O2502 Co2475 2.096 . S
O2502 C2483 1.247 . S
C2503 O2500 1.244 . S
C2503 O2501 1.240 . S
H2504 C2478 0.931 . S
H2505 C2487 0.931 . S
H2506 C2491 0.929 . S
H2507 C2493 0.930 . S
Co2508 N2512 2.148 . S
Co2508 N2518 2.128 . S
Co2508 N2528 2.194 . S
Co2508 O2533 2.351 . S
Co2508 O2534 2.155 . S
Co2508 O2535 2.096 . S
C2509 N2512 1.301 . S
C2509 N2513 1.328 . S
C2509 H2514 0.930 . S
C2510 C2511 1.333 1_565 S
C2510 N2512 1.317 . S
C2510 H2515 0.945 . S
C2511 C2510 1.333 1_545 S
C2511 N2513 1.350 1_545 S
C2511 H2537 0.931 . S
N2512 Co2508 2.148 . S
N2512 C2509 1.301 . S
N2512 C2510 1.317 . S
N2513 C2509 1.328 . S
N2513 C2511 1.350 1_565 S
H2514 C2509 0.930 . S
H2515 C2510 0.945 . S
C2516 O2517 1.224 . S
C2516 O2535 1.247 . S
O2517 C2516 1.224 . S
N2518 Co2508 2.128 . S
N2518 C2519 1.355 . S
N2518 C2521 1.311 . S
C2519 N2518 1.355 . S
C2519 C2520 1.363 . S
C2519 H2531 0.929 . S
C2520 C2519 1.363 . S
C2520 N2522 1.375 . S
C2520 H2538 0.931 . S
C2521 N2518 1.311 . S
C2521 N2522 1.347 . S
C2521 H2532 0.929 . S
N2522 C2520 1.375 . S
N2522 C2521 1.347 . S
C2523 C2526 1.365 . S
C2523 N2528 1.328 . S
C2523 H2529 0.929 . S
C2524 C2525 1.362 . S
C2524 C2527 1.378 . S
C2524 H2539 0.929 . S
C2525 C2524 1.362 . S
C2525 C2526 1.366 . S
C2526 C2523 1.365 . S
C2526 C2525 1.366 . S
C2526 H2540 0.930 . S
C2527 C2524 1.378 . S
C2527 N2528 1.315 . S
C2527 H2530 0.930 . S
N2528 Co2508 2.194 . S
N2528 C2523 1.328 . S
N2528 C2527 1.315 . S
H2529 C2523 0.929 . S
H2530 C2527 0.930 . S
H2531 C2519 0.929 . S
H2532 C2521 0.929 . S
O2533 Co2508 2.351 . S
O2533 C2536 1.244 . S
O2534 Co2508 2.155 . S
O2534 C2536 1.240 . S
O2535 Co2508 2.096 . S
O2535 C2516 1.247 . S
C2536 O2533 1.244 . S
C2536 O2534 1.240 . S
H2537 C2511 0.931 . S
H2538 C2520 0.931 . S
H2539 C2524 0.929 . S
H2540 C2526 0.930 . S
Co2541 N2545 2.148 . S
Co2541 N2551 2.128 . S
Co2541 N2561 2.194 . S
Co2541 O2566 2.351 . S
Co2541 O2567 2.155 . S
Co2541 O2568 2.096 . S
C2542 N2545 1.301 . S
C2542 N2546 1.328 . S
C2542 H2547 0.930 . S
C2543 C2544 1.333 1_455 S
C2543 N2545 1.317 . S
C2543 H2548 0.945 . S
C2544 C2543 1.333 1_655 S
C2544 N2546 1.350 1_655 S
C2544 H2570 0.931 . S
N2545 Co2541 2.148 . S
N2545 C2542 1.301 . S
N2545 C2543 1.317 . S
N2546 C2542 1.328 . S
N2546 C2544 1.350 1_455 S
H2547 C2542 0.930 . S
H2548 C2543 0.945 . S
C2549 O2550 1.224 . S
C2549 O2568 1.247 . S
O2550 C2549 1.224 . S
N2551 Co2541 2.128 . S
N2551 C2552 1.355 . S
N2551 C2554 1.311 . S
C2552 N2551 1.355 . S
C2552 C2553 1.363 . S
C2552 H2564 0.929 . S
C2553 C2552 1.363 . S
C2553 N2555 1.375 . S
C2553 H2571 0.931 . S
C2554 N2551 1.311 . S
C2554 N2555 1.347 . S
C2554 H2565 0.929 . S
N2555 C2553 1.375 . S
N2555 C2554 1.347 . S
C2556 C2559 1.365 . S
C2556 N2561 1.328 . S
C2556 H2562 0.929 . S
C2557 C2558 1.362 . S
C2557 C2560 1.378 . S
C2557 H2572 0.929 . S
C2558 C2557 1.362 . S
C2558 C2559 1.366 . S
C2559 C2556 1.365 . S
C2559 C2558 1.366 . S
C2559 H2573 0.930 . S
C2560 C2557 1.378 . S
C2560 N2561 1.315 . S
C2560 H2563 0.930 . S
N2561 Co2541 2.194 . S
N2561 C2556 1.328 . S
N2561 C2560 1.315 . S
H2562 C2556 0.929 . S
H2563 C2560 0.930 . S
H2564 C2552 0.929 . S
H2565 C2554 0.929 . S
O2566 Co2541 2.351 . S
O2566 C2569 1.244 . S
O2567 Co2541 2.155 . S
O2567 C2569 1.240 . S
O2568 Co2541 2.096 . S
O2568 C2549 1.247 . S
C2569 O2566 1.244 . S
C2569 O2567 1.240 . S
H2570 C2544 0.931 . S
H2571 C2553 0.931 . S
H2572 C2557 0.929 . S
H2573 C2559 0.930 . S
Co2574 N2578 2.148 . S
Co2574 N2584 2.128 . S
Co2574 N2594 2.194 . S
Co2574 O2599 2.351 . S
Co2574 O2600 2.155 . S
Co2574 O2601 2.096 . S
C2575 N2578 1.301 . S
C2575 N2579 1.328 . S
C2575 H2580 0.930 . S
C2576 C2577 1.333 . S
C2576 N2578 1.317 . S
C2576 H2581 0.930 . S
C2577 C2576 1.333 . S
C2577 N2579 1.350 . S
C2577 H2603 0.931 . S
N2578 Co2574 2.148 . S
N2578 C2575 1.301 . S
N2578 C2576 1.317 . S
N2579 C2575 1.328 . S
N2579 C2577 1.350 . S
H2580 C2575 0.930 . S
H2581 C2576 0.930 . S
C2582 O2583 1.224 . S
C2582 O2601 1.247 . S
O2583 C2582 1.224 . S
N2584 Co2574 2.128 . S
N2584 C2585 1.355 . S
N2584 C2587 1.311 . S
C2585 N2584 1.355 . S
C2585 C2586 1.363 . S
C2585 H2597 0.929 . S
C2586 C2585 1.363 . S
C2586 N2588 1.375 . S
C2586 H2604 0.931 . S
C2587 N2584 1.311 . S
C2587 N2588 1.347 . S
C2587 H2598 0.929 . S
N2588 C2586 1.375 . S
N2588 C2587 1.347 . S
C2589 C2592 1.365 . S
C2589 N2594 1.328 . S
C2589 H2595 0.929 . S
C2590 C2591 1.362 . S
C2590 C2593 1.378 . S
C2590 H2605 0.929 . S
C2591 C2590 1.362 . S
C2591 C2592 1.366 . S
C2592 C2589 1.365 . S
C2592 C2591 1.366 . S
C2592 H2606 0.930 . S
C2593 C2590 1.378 . S
C2593 N2594 1.315 . S
C2593 H2596 0.930 . S
N2594 Co2574 2.194 . S
N2594 C2589 1.328 . S
N2594 C2593 1.315 . S
H2595 C2589 0.929 . S
H2596 C2593 0.930 . S
H2597 C2585 0.929 . S
H2598 C2587 0.929 . S
O2599 Co2574 2.351 . S
O2599 C2602 1.244 . S
O2600 Co2574 2.155 . S
O2600 C2602 1.240 . S
O2601 Co2574 2.096 . S
O2601 C2582 1.247 . S
C2602 O2599 1.244 . S
C2602 O2600 1.240 . S
H2603 C2577 0.931 . S
H2604 C2586 0.931 . S
H2605 C2590 0.929 . S
H2606 C2592 0.930 . S
Co2607 N2611 2.148 . S
Co2607 N2617 2.128 . S
Co2607 N2627 2.194 . S
Co2607 O2632 2.351 . S
Co2607 O2633 2.155 . S
Co2607 O2634 2.096 . S
C2608 N2611 1.301 . S
C2608 N2612 1.328 . S
C2608 H2613 0.930 . S
C2609 C2610 1.333 . S
C2609 N2611 1.317 . S
C2609 H2614 0.930 . S
C2610 C2609 1.333 . S
C2610 N2612 1.350 . S
C2610 H2636 0.931 . S
N2611 Co2607 2.148 . S
N2611 C2608 1.301 . S
N2611 C2609 1.317 . S
N2612 C2608 1.328 . S
N2612 C2610 1.350 . S
H2613 C2608 0.930 . S
H2614 C2609 0.930 . S
C2615 O2616 1.224 . S
C2615 O2634 1.247 . S
O2616 C2615 1.224 . S
N2617 Co2607 2.128 . S
N2617 C2618 1.355 . S
N2617 C2620 1.311 . S
C2618 N2617 1.355 . S
C2618 C2619 1.363 . S
C2618 H2630 0.929 . S
C2619 C2618 1.363 . S
C2619 N2621 1.375 . S
C2619 H2637 0.931 . S
C2620 N2617 1.311 . S
C2620 N2621 1.347 . S
C2620 H2631 0.929 . S
N2621 C2619 1.375 . S
N2621 C2620 1.347 . S
C2622 C2625 1.365 . S
C2622 N2627 1.328 . S
C2622 H2628 0.929 . S
C2623 C2624 1.362 . S
C2623 C2626 1.378 . S
C2623 H2638 0.929 . S
C2624 C2623 1.362 . S
C2624 C2625 1.366 . S
C2625 C2622 1.365 . S
C2625 C2624 1.366 . S
C2625 H2639 0.930 . S
C2626 C2623 1.378 . S
C2626 N2627 1.315 . S
C2626 H2629 0.930 . S
N2627 Co2607 2.194 . S
N2627 C2622 1.328 . S
N2627 C2626 1.315 . S
H2628 C2622 0.929 . S
H2629 C2626 0.930 . S
H2630 C2618 0.929 . S
H2631 C2620 0.929 . S
O2632 Co2607 2.351 . S
O2632 C2635 1.244 . S
O2633 Co2607 2.155 . S
O2633 C2635 1.240 . S
O2634 Co2607 2.096 . S
O2634 C2615 1.247 . S
C2635 O2632 1.244 . S
C2635 O2633 1.240 . S
H2636 C2610 0.931 . S
H2637 C2619 0.931 . S
H2638 C2623 0.929 . S
H2639 C2625 0.930 . S
Co2640 N2644 2.148 . S
Co2640 N2650 2.128 . S
Co2640 N2660 2.194 . S
Co2640 O2665 2.351 . S
Co2640 O2666 2.155 . S
Co2640 O2667 2.096 . S
C2641 N2644 1.301 . S
C2641 N2645 1.328 . S
C2641 H2646 0.930 . S
C2642 C2643 1.333 . S
C2642 N2644 1.317 . S
C2642 H2647 0.930 . S
C2643 C2642 1.333 . S
C2643 N2645 1.350 . S
C2643 H2669 0.931 . S
N2644 Co2640 2.148 . S
N2644 C2641 1.301 . S
N2644 C2642 1.317 . S
N2645 C2641 1.328 . S
N2645 C2643 1.350 . S
H2646 C2641 0.930 . S
H2647 C2642 0.930 . S
C2648 O2649 1.224 . S
C2648 O2667 1.247 . S
O2649 C2648 1.224 . S
N2650 Co2640 2.128 . S
N2650 C2651 1.355 . S
N2650 C2653 1.311 . S
C2651 N2650 1.355 . S
C2651 C2652 1.363 . S
C2651 H2663 0.929 . S
C2652 C2651 1.363 . S
C2652 N2654 1.375 . S
C2652 H2670 0.931 . S
C2653 N2650 1.311 . S
C2653 N2654 1.347 . S
C2653 H2664 0.929 . S
N2654 C2652 1.375 . S
N2654 C2653 1.347 . S
C2655 C2658 1.365 . S
C2655 N2660 1.328 . S
C2655 H2661 0.929 . S
C2656 C2657 1.362 . S
C2656 C2659 1.378 . S
C2656 H2671 0.929 . S
C2657 C2656 1.362 . S
C2657 C2658 1.366 . S
C2658 C2655 1.365 . S
C2658 C2657 1.366 . S
C2658 H2672 0.930 . S
C2659 C2656 1.378 . S
C2659 N2660 1.315 . S
C2659 H2662 0.930 . S
N2660 Co2640 2.194 . S
N2660 C2655 1.328 . S
N2660 C2659 1.315 . S
H2661 C2655 0.929 . S
H2662 C2659 0.930 . S
H2663 C2651 0.929 . S
H2664 C2653 0.929 . S
O2665 Co2640 2.351 . S
O2665 C2668 1.244 . S
O2666 Co2640 2.155 . S
O2666 C2668 1.240 . S
O2667 Co2640 2.096 . S
O2667 C2648 1.247 . S
C2668 O2665 1.244 . S
C2668 O2666 1.240 . S
H2669 C2643 0.931 . S
H2670 C2652 0.931 . S
H2671 C2656 0.929 . S
H2672 C2658 0.930 . S
Co2673 N2677 2.148 . S
Co2673 N2683 2.128 . S
Co2673 N2693 2.194 . S
Co2673 O2698 2.351 . S
Co2673 O2699 2.155 . S
Co2673 O2700 2.096 . S
C2674 N2677 1.301 . S
C2674 N2678 1.328 . S
C2674 H2679 0.930 . S
C2675 C2676 1.333 . S
C2675 N2677 1.317 . S
C2675 H2680 0.930 . S
C2676 C2675 1.333 . S
C2676 N2678 1.350 . S
C2676 H2702 0.931 . S
N2677 Co2673 2.148 . S
N2677 C2674 1.301 . S
N2677 C2675 1.317 . S
N2678 C2674 1.328 . S
N2678 C2676 1.350 . S
H2679 C2674 0.930 . S
H2680 C2675 0.930 . S
C2681 O2682 1.224 . S
C2681 O2700 1.247 . S
O2682 C2681 1.224 . S
N2683 Co2673 2.128 . S
N2683 C2684 1.355 . S
N2683 C2686 1.311 . S
C2684 N2683 1.355 . S
C2684 C2685 1.363 . S
C2684 H2696 0.929 . S
C2685 C2684 1.363 . S
C2685 N2687 1.375 . S
C2685 H2703 0.931 . S
C2686 N2683 1.311 . S
C2686 N2687 1.347 . S
C2686 H2697 0.929 . S
N2687 C2685 1.375 . S
N2687 C2686 1.347 . S
C2688 C2691 1.365 . S
C2688 N2693 1.328 . S
C2688 H2694 0.929 . S
C2689 C2690 1.362 . S
C2689 C2692 1.378 . S
C2689 H2704 0.929 . S
C2690 C2689 1.362 . S
C2690 C2691 1.366 . S
C2691 C2688 1.365 . S
C2691 C2690 1.366 . S
C2691 H2705 0.930 . S
C2692 C2689 1.378 . S
C2692 N2693 1.315 . S
C2692 H2695 0.930 . S
N2693 Co2673 2.194 . S
N2693 C2688 1.328 . S
N2693 C2692 1.315 . S
H2694 C2688 0.929 . S
H2695 C2692 0.930 . S
H2696 C2684 0.929 . S
H2697 C2686 0.929 . S
O2698 Co2673 2.351 . S
O2698 C2701 1.244 . S
O2699 Co2673 2.155 . S
O2699 C2701 1.240 . S
O2700 Co2673 2.096 . S
O2700 C2681 1.247 . S
C2701 O2698 1.244 . S
C2701 O2699 1.240 . S
H2702 C2676 0.931 . S
H2703 C2685 0.931 . S
H2704 C2689 0.929 . S
H2705 C2691 0.930 . S
Co2706 N2710 2.148 . S
Co2706 N2716 2.128 . S
Co2706 N2726 2.194 . S
Co2706 O2731 2.351 . S
Co2706 O2732 2.155 . S
Co2706 O2733 2.096 . S
C2707 N2710 1.301 . S
C2707 N2711 1.328 . S
C2707 H2712 0.930 . S
C2708 C2709 1.333 1_455 S
C2708 N2710 1.317 . S
C2708 H2713 0.945 . S
C2709 C2708 1.333 1_655 S
C2709 N2711 1.350 1_655 S
C2709 H2735 0.931 . S
N2710 Co2706 2.148 . S
N2710 C2707 1.301 . S
N2710 C2708 1.317 . S
N2711 C2707 1.328 . S
N2711 C2709 1.350 1_455 S
H2712 C2707 0.930 . S
H2713 C2708 0.945 . S
C2714 O2715 1.224 . S
C2714 O2733 1.247 . S
O2715 C2714 1.224 . S
N2716 Co2706 2.128 . S
N2716 C2717 1.355 . S
N2716 C2719 1.311 . S
C2717 N2716 1.355 . S
C2717 C2718 1.363 . S
C2717 H2729 0.929 . S
C2718 C2717 1.363 . S
C2718 N2720 1.375 . S
C2718 H2736 0.931 . S
C2719 N2716 1.311 . S
C2719 N2720 1.347 . S
C2719 H2730 0.929 . S
N2720 C2718 1.375 . S
N2720 C2719 1.347 . S
C2721 C2724 1.365 . S
C2721 N2726 1.328 . S
C2721 H2727 0.929 . S
C2722 C2723 1.362 . S
C2722 C2725 1.378 . S
C2722 H2737 0.929 . S
C2723 C2722 1.362 . S
C2723 C2724 1.366 . S
C2724 C2721 1.365 . S
C2724 C2723 1.366 . S
C2724 H2738 0.930 . S
C2725 C2722 1.378 . S
C2725 N2726 1.315 . S
C2725 H2728 0.930 . S
N2726 Co2706 2.194 . S
N2726 C2721 1.328 . S
N2726 C2725 1.315 . S
H2727 C2721 0.929 . S
H2728 C2725 0.930 . S
H2729 C2717 0.929 . S
H2730 C2719 0.929 . S
O2731 Co2706 2.351 . S
O2731 C2734 1.244 . S
O2732 Co2706 2.155 . S
O2732 C2734 1.240 . S
O2733 Co2706 2.096 . S
O2733 C2714 1.247 . S
C2734 O2731 1.244 . S
C2734 O2732 1.240 . S
H2735 C2709 0.931 . S
H2736 C2718 0.931 . S
H2737 C2722 0.929 . S
H2738 C2724 0.930 . S
Co2739 N2743 2.148 . S
Co2739 N2749 2.128 . S
Co2739 N2759 2.194 . S
Co2739 O2764 2.351 . S
Co2739 O2765 2.155 . S
Co2739 O2766 2.096 . S
C2740 N2743 1.301 . S
C2740 N2744 1.328 . S
C2740 H2745 0.930 . S
C2741 C2742 1.333 . S
C2741 N2743 1.317 . S
C2741 H2746 0.930 . S
C2742 C2741 1.333 . S
C2742 N2744 1.350 . S
C2742 H2768 0.931 . S
N2743 Co2739 2.148 . S
N2743 C2740 1.301 . S
N2743 C2741 1.317 . S
N2744 C2740 1.328 . S
N2744 C2742 1.350 . S
H2745 C2740 0.930 . S
H2746 C2741 0.930 . S
C2747 O2748 1.224 . S
C2747 O2766 1.247 . S
O2748 C2747 1.224 . S
N2749 Co2739 2.128 . S
N2749 C2750 1.355 . S
N2749 C2752 1.311 . S
C2750 N2749 1.355 . S
C2750 C2751 1.363 . S
C2750 H2762 0.929 . S
C2751 C2750 1.363 . S
C2751 N2753 1.375 . S
C2751 H2769 0.931 . S
C2752 N2749 1.311 . S
C2752 N2753 1.347 . S
C2752 H2763 0.929 . S
N2753 C2751 1.375 . S
N2753 C2752 1.347 . S
C2754 C2757 1.365 . S
C2754 N2759 1.328 . S
C2754 H2760 0.929 . S
C2755 C2756 1.362 . S
C2755 C2758 1.378 . S
C2755 H2770 0.929 . S
C2756 C2755 1.362 . S
C2756 C2757 1.366 . S
C2757 C2754 1.365 . S
C2757 C2756 1.366 . S
C2757 H2771 0.930 . S
C2758 C2755 1.378 . S
C2758 N2759 1.315 . S
C2758 H2761 0.930 . S
N2759 Co2739 2.194 . S
N2759 C2754 1.328 . S
N2759 C2758 1.315 . S
H2760 C2754 0.929 . S
H2761 C2758 0.930 . S
H2762 C2750 0.929 . S
H2763 C2752 0.929 . S
O2764 Co2739 2.351 . S
O2764 C2767 1.244 . S
O2765 Co2739 2.155 . S
O2765 C2767 1.240 . S
O2766 Co2739 2.096 . S
O2766 C2747 1.247 . S
C2767 O2764 1.244 . S
C2767 O2765 1.240 . S
H2768 C2742 0.931 . S
H2769 C2751 0.931 . S
H2770 C2755 0.929 . S
H2771 C2757 0.930 . S
Co2772 N2776 2.148 . S
Co2772 N2782 2.128 . S
Co2772 N2792 2.194 . S
Co2772 O2797 2.351 . S
Co2772 O2798 2.155 . S
Co2772 O2799 2.096 . S
C2773 N2776 1.301 . S
C2773 N2777 1.328 . S
C2773 H2778 0.930 . S
C2774 C2775 1.333 . S
C2774 N2776 1.317 . S
C2774 H2779 0.930 . S
C2775 C2774 1.333 . S
C2775 N2777 1.350 . S
C2775 H2801 0.931 . S
N2776 Co2772 2.148 . S
N2776 C2773 1.301 . S
N2776 C2774 1.317 . S
N2777 C2773 1.328 . S
N2777 C2775 1.350 . S
H2778 C2773 0.930 . S
H2779 C2774 0.930 . S
C2780 O2781 1.224 . S
C2780 O2799 1.247 . S
O2781 C2780 1.224 . S
N2782 Co2772 2.128 . S
N2782 C2783 1.355 . S
N2782 C2785 1.311 . S
C2783 N2782 1.355 . S
C2783 C2784 1.363 . S
C2783 H2795 0.929 . S
C2784 C2783 1.363 . S
C2784 N2786 1.375 . S
C2784 H2802 0.931 . S
C2785 N2782 1.311 . S
C2785 N2786 1.347 . S
C2785 H2796 0.929 . S
N2786 C2784 1.375 . S
N2786 C2785 1.347 . S
C2787 C2790 1.365 . S
C2787 N2792 1.328 . S
C2787 H2793 0.929 . S
C2788 C2789 1.362 . S
C2788 C2791 1.378 . S
C2788 H2803 0.929 . S
C2789 C2788 1.362 . S
C2789 C2790 1.366 . S
C2790 C2787 1.365 . S
C2790 C2789 1.366 . S
C2790 H2804 0.930 . S
C2791 C2788 1.378 . S
C2791 N2792 1.315 . S
C2791 H2794 0.930 . S
N2792 Co2772 2.194 . S
N2792 C2787 1.328 . S
N2792 C2791 1.315 . S
H2793 C2787 0.929 . S
H2794 C2791 0.930 . S
H2795 C2783 0.929 . S
H2796 C2785 0.929 . S
O2797 Co2772 2.351 . S
O2797 C2800 1.244 . S
O2798 Co2772 2.155 . S
O2798 C2800 1.240 . S
O2799 Co2772 2.096 . S
O2799 C2780 1.247 . S
C2800 O2797 1.244 . S
C2800 O2798 1.240 . S
H2801 C2775 0.931 . S
H2802 C2784 0.931 . S
H2803 C2788 0.929 . S
H2804 C2790 0.930 . S
Co2805 N2809 2.148 . S
Co2805 N2815 2.128 . S
Co2805 N2825 2.194 . S
Co2805 O2830 2.351 . S
Co2805 O2831 2.155 . S
Co2805 O2832 2.096 . S
C2806 N2809 1.301 . S
C2806 N2810 1.328 . S
C2806 H2811 0.930 . S
C2807 C2808 1.333 1_545 S
C2807 N2809 1.317 . S
C2807 H2812 0.945 . S
C2808 C2807 1.333 1_565 S
C2808 N2810 1.350 1_565 S
C2808 H2834 0.931 . S
N2809 Co2805 2.148 . S
N2809 C2806 1.301 . S
N2809 C2807 1.317 . S
N2810 C2806 1.328 . S
N2810 C2808 1.350 1_545 S
H2811 C2806 0.930 . S
H2812 C2807 0.945 . S
C2813 O2814 1.224 . S
C2813 O2832 1.247 . S
O2814 C2813 1.224 . S
N2815 Co2805 2.128 . S
N2815 C2816 1.355 . S
N2815 C2818 1.311 . S
C2816 N2815 1.355 . S
C2816 C2817 1.363 . S
C2816 H2828 0.929 . S
C2817 C2816 1.363 . S
C2817 N2819 1.375 . S
C2817 H2835 0.931 . S
C2818 N2815 1.311 . S
C2818 N2819 1.347 . S
C2818 H2829 0.929 . S
N2819 C2817 1.375 . S
N2819 C2818 1.347 . S
C2820 C2823 1.365 . S
C2820 N2825 1.328 . S
C2820 H2826 0.929 . S
C2821 C2822 1.362 . S
C2821 C2824 1.378 . S
C2821 H2836 0.929 . S
C2822 C2821 1.362 . S
C2822 C2823 1.366 . S
C2823 C2820 1.365 . S
C2823 C2822 1.366 . S
C2823 H2837 0.930 . S
C2824 C2821 1.378 . S
C2824 N2825 1.315 . S
C2824 H2827 0.930 . S
N2825 Co2805 2.194 . S
N2825 C2820 1.328 . S
N2825 C2824 1.315 . S
H2826 C2820 0.929 . S
H2827 C2824 0.930 . S
H2828 C2816 0.929 . S
H2829 C2818 0.929 . S
O2830 Co2805 2.351 . S
O2830 C2833 1.244 . S
O2831 Co2805 2.155 . S
O2831 C2833 1.240 . S
O2832 Co2805 2.096 . S
O2832 C2813 1.247 . S
C2833 O2830 1.244 . S
C2833 O2831 1.240 . S
H2834 C2808 0.931 . S
H2835 C2817 0.931 . S
H2836 C2821 0.929 . S
H2837 C2823 0.930 . S
Co2838 N2842 2.148 . S
Co2838 N2848 2.128 . S
Co2838 N2858 2.194 . S
Co2838 O2863 2.351 . S
Co2838 O2864 2.155 . S
Co2838 O2865 2.096 . S
C2839 N2842 1.301 . S
C2839 N2843 1.328 . S
C2839 H2844 0.930 . S
C2840 C2841 1.333 1_655 S
C2840 N2842 1.317 . S
C2840 H2845 0.945 . S
C2841 C2840 1.333 1_455 S
C2841 N2843 1.350 1_455 S
C2841 H2867 0.931 . S
N2842 Co2838 2.148 . S
N2842 C2839 1.301 . S
N2842 C2840 1.317 . S
N2843 C2839 1.328 . S
N2843 C2841 1.350 1_655 S
H2844 C2839 0.930 . S
H2845 C2840 0.945 . S
C2846 O2847 1.224 . S
C2846 O2865 1.247 . S
O2847 C2846 1.224 . S
N2848 Co2838 2.128 . S
N2848 C2849 1.355 . S
N2848 C2851 1.311 . S
C2849 N2848 1.355 . S
C2849 C2850 1.363 . S
C2849 H2861 0.929 . S
C2850 C2849 1.363 . S
C2850 N2852 1.375 . S
C2850 H2868 0.931 . S
C2851 N2848 1.311 . S
C2851 N2852 1.347 . S
C2851 H2862 0.929 . S
N2852 C2850 1.375 . S
N2852 C2851 1.347 . S
C2853 C2856 1.365 . S
C2853 N2858 1.328 . S
C2853 H2859 0.929 . S
C2854 C2855 1.362 . S
C2854 C2857 1.378 . S
C2854 H2869 0.929 . S
C2855 C2854 1.362 . S
C2855 C2856 1.366 . S
C2856 C2853 1.365 . S
C2856 C2855 1.366 . S
C2856 H2870 0.930 . S
C2857 C2854 1.378 . S
C2857 N2858 1.315 . S
C2857 H2860 0.930 . S
N2858 Co2838 2.194 . S
N2858 C2853 1.328 . S
N2858 C2857 1.315 . S
H2859 C2853 0.929 . S
H2860 C2857 0.930 . S
H2861 C2849 0.929 . S
H2862 C2851 0.929 . S
O2863 Co2838 2.351 . S
O2863 C2866 1.244 . S
O2864 Co2838 2.155 . S
O2864 C2866 1.240 . S
O2865 Co2838 2.096 . S
O2865 C2846 1.247 . S
C2866 O2863 1.244 . S
C2866 O2864 1.240 . S
H2867 C2841 0.931 . S
H2868 C2850 0.931 . S
H2869 C2854 0.929 . S
H2870 C2856 0.930 . S
Co2871 N2875 2.148 . S
Co2871 N2881 2.128 . S
Co2871 N2891 2.194 . S
Co2871 O2896 2.351 . S
Co2871 O2897 2.155 . S
Co2871 O2898 2.096 . S
C2872 N2875 1.301 . S
C2872 N2876 1.328 . S
C2872 H2877 0.930 . S
C2873 C2874 1.333 . S
C2873 N2875 1.317 . S
C2873 H2878 0.930 . S
C2874 C2873 1.333 . S
C2874 N2876 1.350 . S
C2874 H2900 0.931 . S
N2875 Co2871 2.148 . S
N2875 C2872 1.301 . S
N2875 C2873 1.317 . S
N2876 C2872 1.328 . S
N2876 C2874 1.350 . S
H2877 C2872 0.930 . S
H2878 C2873 0.930 . S
C2879 O2880 1.224 . S
C2879 O2898 1.247 . S
O2880 C2879 1.224 . S
N2881 Co2871 2.128 . S
N2881 C2882 1.355 . S
N2881 C2884 1.311 . S
C2882 N2881 1.355 . S
C2882 C2883 1.363 . S
C2882 H2894 0.929 . S
C2883 C2882 1.363 . S
C2883 N2885 1.375 . S
C2883 H2901 0.931 . S
C2884 N2881 1.311 . S
C2884 N2885 1.347 . S
C2884 H2895 0.929 . S
N2885 C2883 1.375 . S
N2885 C2884 1.347 . S
C2886 C2889 1.365 . S
C2886 N2891 1.328 . S
C2886 H2892 0.929 . S
C2887 C2888 1.362 . S
C2887 C2890 1.378 . S
C2887 H2902 0.929 . S
C2888 C2887 1.362 . S
C2888 C2889 1.366 . S
C2889 C2886 1.365 . S
C2889 C2888 1.366 . S
C2889 H2903 0.930 . S
C2890 C2887 1.378 . S
C2890 N2891 1.315 . S
C2890 H2893 0.930 . S
N2891 Co2871 2.194 . S
N2891 C2886 1.328 . S
N2891 C2890 1.315 . S
H2892 C2886 0.929 . S
H2893 C2890 0.930 . S
H2894 C2882 0.929 . S
H2895 C2884 0.929 . S
O2896 Co2871 2.351 . S
O2896 C2899 1.244 . S
O2897 Co2871 2.155 . S
O2897 C2899 1.240 . S
O2898 Co2871 2.096 . S
O2898 C2879 1.247 . S
C2899 O2896 1.244 . S
C2899 O2897 1.240 . S
H2900 C2874 0.931 . S
H2901 C2883 0.931 . S
H2902 C2887 0.929 . S
H2903 C2889 0.930 . S
Co2904 N2908 2.148 . S
Co2904 N2914 2.128 . S
Co2904 N2924 2.194 . S
Co2904 O2929 2.351 . S
Co2904 O2930 2.155 . S
Co2904 O2931 2.096 . S
C2905 N2908 1.301 . S
C2905 N2909 1.328 . S
C2905 H2910 0.930 . S
C2906 C2907 1.333 . S
C2906 N2908 1.317 . S
C2906 H2911 0.930 . S
C2907 C2906 1.333 . S
C2907 N2909 1.350 . S
C2907 H2933 0.931 . S
N2908 Co2904 2.148 . S
N2908 C2905 1.301 . S
N2908 C2906 1.317 . S
N2909 C2905 1.328 . S
N2909 C2907 1.350 . S
H2910 C2905 0.930 . S
H2911 C2906 0.930 . S
C2912 O2913 1.224 . S
C2912 O2931 1.247 . S
O2913 C2912 1.224 . S
N2914 Co2904 2.128 . S
N2914 C2915 1.355 . S
N2914 C2917 1.311 . S
C2915 N2914 1.355 . S
C2915 C2916 1.363 . S
C2915 H2927 0.929 . S
C2916 C2915 1.363 . S
C2916 N2918 1.375 . S
C2916 H2934 0.931 . S
C2917 N2914 1.311 . S
C2917 N2918 1.347 . S
C2917 H2928 0.929 . S
N2918 C2916 1.375 . S
N2918 C2917 1.347 . S
C2919 C2922 1.365 . S
C2919 N2924 1.328 . S
C2919 H2925 0.929 . S
C2920 C2921 1.362 . S
C2920 C2923 1.378 . S
C2920 H2935 0.929 . S
C2921 C2920 1.362 . S
C2921 C2922 1.366 . S
C2922 C2919 1.365 . S
C2922 C2921 1.366 . S
C2922 H2936 0.930 . S
C2923 C2920 1.378 . S
C2923 N2924 1.315 . S
C2923 H2926 0.930 . S
N2924 Co2904 2.194 . S
N2924 C2919 1.328 . S
N2924 C2923 1.315 . S
H2925 C2919 0.929 . S
H2926 C2923 0.930 . S
H2927 C2915 0.929 . S
H2928 C2917 0.929 . S
O2929 Co2904 2.351 . S
O2929 C2932 1.244 . S
O2930 Co2904 2.155 . S
O2930 C2932 1.240 . S
O2931 Co2904 2.096 . S
O2931 C2912 1.247 . S
C2932 O2929 1.244 . S
C2932 O2930 1.240 . S
H2933 C2907 0.931 . S
H2934 C2916 0.931 . S
H2935 C2920 0.929 . S
H2936 C2922 0.930 . S
Co2937 N2941 2.148 . S
Co2937 N2947 2.128 . S
Co2937 N2957 2.194 . S
Co2937 O2962 2.351 . S
Co2937 O2963 2.155 . S
Co2937 O2964 2.096 . S
C2938 N2941 1.301 . S
C2938 N2942 1.328 . S
C2938 H2943 0.930 . S
C2939 C2940 1.333 . S
C2939 N2941 1.317 . S
C2939 H2944 0.930 . S
C2940 C2939 1.333 . S
C2940 N2942 1.350 . S
C2940 H2966 0.931 . S
N2941 Co2937 2.148 . S
N2941 C2938 1.301 . S
N2941 C2939 1.317 . S
N2942 C2938 1.328 . S
N2942 C2940 1.350 . S
H2943 C2938 0.930 . S
H2944 C2939 0.930 . S
C2945 O2946 1.224 . S
C2945 O2964 1.247 . S
O2946 C2945 1.224 . S
N2947 Co2937 2.128 . S
N2947 C2948 1.355 . S
N2947 C2950 1.311 . S
C2948 N2947 1.355 . S
C2948 C2949 1.363 . S
C2948 H2960 0.929 . S
C2949 C2948 1.363 . S
C2949 N2951 1.375 . S
C2949 H2967 0.931 . S
C2950 N2947 1.311 . S
C2950 N2951 1.347 . S
C2950 H2961 0.929 . S
N2951 C2949 1.375 . S
N2951 C2950 1.347 . S
C2952 C2955 1.365 . S
C2952 N2957 1.328 . S
C2952 H2958 0.929 . S
C2953 C2954 1.362 . S
C2953 C2956 1.378 . S
C2953 H2968 0.929 . S
C2954 C2953 1.362 . S
C2954 C2955 1.366 . S
C2955 C2952 1.365 . S
C2955 C2954 1.366 . S
C2955 H2969 0.930 . S
C2956 C2953 1.378 . S
C2956 N2957 1.315 . S
C2956 H2959 0.930 . S
N2957 Co2937 2.194 . S
N2957 C2952 1.328 . S
N2957 C2956 1.315 . S
H2958 C2952 0.929 . S
H2959 C2956 0.930 . S
H2960 C2948 0.929 . S
H2961 C2950 0.929 . S
O2962 Co2937 2.351 . S
O2962 C2965 1.244 . S
O2963 Co2937 2.155 . S
O2963 C2965 1.240 . S
O2964 Co2937 2.096 . S
O2964 C2945 1.247 . S
C2965 O2962 1.244 . S
C2965 O2963 1.240 . S
H2966 C2940 0.931 . S
H2967 C2949 0.931 . S
H2968 C2953 0.929 . S
H2969 C2955 0.930 . S
Co2970 N2974 2.148 . S
Co2970 N2980 2.128 . S
Co2970 N2990 2.194 . S
Co2970 O2995 2.351 . S
Co2970 O2996 2.155 . S
Co2970 O2997 2.096 . S
C2971 N2974 1.301 . S
C2971 N2975 1.328 . S
C2971 H2976 0.930 . S
C2972 C2973 1.333 . S
C2972 N2974 1.317 . S
C2972 H2977 0.930 . S
C2973 C2972 1.333 . S
C2973 N2975 1.350 . S
C2973 H2999 0.931 . S
N2974 Co2970 2.148 . S
N2974 C2971 1.301 . S
N2974 C2972 1.317 . S
N2975 C2971 1.328 . S
N2975 C2973 1.350 . S
H2976 C2971 0.930 . S
H2977 C2972 0.930 . S
C2978 O2979 1.224 . S
C2978 O2997 1.247 . S
O2979 C2978 1.224 . S
N2980 Co2970 2.128 . S
N2980 C2981 1.355 . S
N2980 C2983 1.311 . S
C2981 N2980 1.355 . S
C2981 C2982 1.363 . S
C2981 H2993 0.929 . S
C2982 C2981 1.363 . S
C2982 N2984 1.375 . S
C2982 H3000 0.931 . S
C2983 N2980 1.311 . S
C2983 N2984 1.347 . S
C2983 H2994 0.929 . S
N2984 C2982 1.375 . S
N2984 C2983 1.347 . S
C2985 C2988 1.365 . S
C2985 N2990 1.328 . S
C2985 H2991 0.929 . S
C2986 C2987 1.362 . S
C2986 C2989 1.378 . S
C2986 H3001 0.929 . S
C2987 C2986 1.362 . S
C2987 C2988 1.366 . S
C2988 C2985 1.365 . S
C2988 C2987 1.366 . S
C2988 H3002 0.930 . S
C2989 C2986 1.378 . S
C2989 N2990 1.315 . S
C2989 H2992 0.930 . S
N2990 Co2970 2.194 . S
N2990 C2985 1.328 . S
N2990 C2989 1.315 . S
H2991 C2985 0.929 . S
H2992 C2989 0.930 . S
H2993 C2981 0.929 . S
H2994 C2983 0.929 . S
O2995 Co2970 2.351 . S
O2995 C2998 1.244 . S
O2996 Co2970 2.155 . S
O2996 C2998 1.240 . S
O2997 Co2970 2.096 . S
O2997 C2978 1.247 . S
C2998 O2995 1.244 . S
C2998 O2996 1.240 . S
H2999 C2973 0.931 . S
H3000 C2982 0.931 . S
H3001 C2986 0.929 . S
H3002 C2988 0.930 . S
Co3003 N3007 2.148 . S
Co3003 N3013 2.128 . S
Co3003 N3023 2.194 . S
Co3003 O3028 2.351 . S
Co3003 O3029 2.155 . S
Co3003 O3030 2.096 . S
C3004 N3007 1.301 . S
C3004 N3008 1.328 . S
C3004 H3009 0.930 . S
C3005 C3006 1.333 . S
C3005 N3007 1.317 . S
C3005 H3010 0.930 . S
C3006 C3005 1.333 . S
C3006 N3008 1.350 . S
C3006 H3032 0.931 . S
N3007 Co3003 2.148 . S
N3007 C3004 1.301 . S
N3007 C3005 1.317 . S
N3008 C3004 1.328 . S
N3008 C3006 1.350 . S
H3009 C3004 0.930 . S
H3010 C3005 0.930 . S
C3011 O3012 1.224 . S
C3011 O3030 1.247 . S
O3012 C3011 1.224 . S
N3013 Co3003 2.128 . S
N3013 C3014 1.355 . S
N3013 C3016 1.311 . S
C3014 N3013 1.355 . S
C3014 C3015 1.363 . S
C3014 H3026 0.929 . S
C3015 C3014 1.363 . S
C3015 N3017 1.375 . S
C3015 H3033 0.931 . S
C3016 N3013 1.311 . S
C3016 N3017 1.347 . S
C3016 H3027 0.929 . S
N3017 C3015 1.375 . S
N3017 C3016 1.347 . S
C3018 C3021 1.365 . S
C3018 N3023 1.328 . S
C3018 H3024 0.929 . S
C3019 C3020 1.362 . S
C3019 C3022 1.378 . S
C3019 H3034 0.929 . S
C3020 C3019 1.362 . S
C3020 C3021 1.366 . S
C3021 C3018 1.365 . S
C3021 C3020 1.366 . S
C3021 H3035 0.930 . S
C3022 C3019 1.378 . S
C3022 N3023 1.315 . S
C3022 H3025 0.930 . S
N3023 Co3003 2.194 . S
N3023 C3018 1.328 . S
N3023 C3022 1.315 . S
H3024 C3018 0.929 . S
H3025 C3022 0.930 . S
H3026 C3014 0.929 . S
H3027 C3016 0.929 . S
O3028 Co3003 2.351 . S
O3028 C3031 1.244 . S
O3029 Co3003 2.155 . S
O3029 C3031 1.240 . S
O3030 Co3003 2.096 . S
O3030 C3011 1.247 . S
C3031 O3028 1.244 . S
C3031 O3029 1.240 . S
H3032 C3006 0.931 . S
H3033 C3015 0.931 . S
H3034 C3019 0.929 . S
H3035 C3021 0.930 . S
Co3036 N3040 2.148 . S
Co3036 N3046 2.128 . S
Co3036 N3056 2.194 . S
Co3036 O3061 2.351 . S
Co3036 O3062 2.155 . S
Co3036 O3063 2.096 . S
C3037 N3040 1.301 . S
C3037 N3041 1.328 . S
C3037 H3042 0.930 . S
C3038 C3039 1.333 1_545 S
C3038 N3040 1.317 . S
C3038 H3043 0.945 . S
C3039 C3038 1.333 1_565 S
C3039 N3041 1.350 1_565 S
C3039 H3065 0.931 . S
N3040 Co3036 2.148 . S
N3040 C3037 1.301 . S
N3040 C3038 1.317 . S
N3041 C3037 1.328 . S
N3041 C3039 1.350 1_545 S
H3042 C3037 0.930 . S
H3043 C3038 0.945 . S
C3044 O3045 1.224 . S
C3044 O3063 1.247 . S
O3045 C3044 1.224 . S
N3046 Co3036 2.128 . S
N3046 C3047 1.355 . S
N3046 C3049 1.311 . S
C3047 N3046 1.355 . S
C3047 C3048 1.363 . S
C3047 H3059 0.929 . S
C3048 C3047 1.363 . S
C3048 N3050 1.375 . S
C3048 H3066 0.931 . S
C3049 N3046 1.311 . S
C3049 N3050 1.347 . S
C3049 H3060 0.929 . S
N3050 C3048 1.375 . S
N3050 C3049 1.347 . S
C3051 C3054 1.365 . S
C3051 N3056 1.328 . S
C3051 H3057 0.929 . S
C3052 C3053 1.362 . S
C3052 C3055 1.378 . S
C3052 H3067 0.929 . S
C3053 C3052 1.362 . S
C3053 C3054 1.366 . S
C3054 C3051 1.365 . S
C3054 C3053 1.366 . S
C3054 H3068 0.930 . S
C3055 C3052 1.378 . S
C3055 N3056 1.315 . S
C3055 H3058 0.930 . S
N3056 Co3036 2.194 . S
N3056 C3051 1.328 . S
N3056 C3055 1.315 . S
H3057 C3051 0.929 . S
H3058 C3055 0.930 . S
H3059 C3047 0.929 . S
H3060 C3049 0.929 . S
O3061 Co3036 2.351 . S
O3061 C3064 1.244 . S
O3062 Co3036 2.155 . S
O3062 C3064 1.240 . S
O3063 Co3036 2.096 . S
O3063 C3044 1.247 . S
C3064 O3061 1.244 . S
C3064 O3062 1.240 . S
H3065 C3039 0.931 . S
H3066 C3048 0.931 . S
H3067 C3052 0.929 . S
H3068 C3054 0.930 . S
Co3069 N3073 2.148 . S
Co3069 N3079 2.128 . S
Co3069 N3089 2.194 . S
Co3069 O3094 2.351 . S
Co3069 O3095 2.155 . S
Co3069 O3096 2.096 . S
C3070 N3073 1.301 . S
C3070 N3074 1.328 . S
C3070 H3075 0.930 . S
C3071 C3072 1.333 1_565 S
C3071 N3073 1.317 . S
C3071 H3076 0.945 . S
C3072 C3071 1.333 1_545 S
C3072 N3074 1.350 1_545 S
C3072 H3098 0.931 . S
N3073 Co3069 2.148 . S
N3073 C3070 1.301 . S
N3073 C3071 1.317 . S
N3074 C3070 1.328 . S
N3074 C3072 1.350 1_565 S
H3075 C3070 0.930 . S
H3076 C3071 0.945 . S
C3077 O3078 1.224 . S
C3077 O3096 1.247 . S
O3078 C3077 1.224 . S
N3079 Co3069 2.128 . S
N3079 C3080 1.355 . S
N3079 C3082 1.311 . S
C3080 N3079 1.355 . S
C3080 C3081 1.363 . S
C3080 H3092 0.929 . S
C3081 C3080 1.363 . S
C3081 N3083 1.375 . S
C3081 H3099 0.931 . S
C3082 N3079 1.311 . S
C3082 N3083 1.347 . S
C3082 H3093 0.929 . S
N3083 C3081 1.375 . S
N3083 C3082 1.347 . S
C3084 C3087 1.365 . S
C3084 N3089 1.328 . S
C3084 H3090 0.929 . S
C3085 C3086 1.362 . S
C3085 C3088 1.378 . S
C3085 H3100 0.929 . S
C3086 C3085 1.362 . S
C3086 C3087 1.366 . S
C3087 C3084 1.365 . S
C3087 C3086 1.366 . S
C3087 H3101 0.930 . S
C3088 C3085 1.378 . S
C3088 N3089 1.315 . S
C3088 H3091 0.930 . S
N3089 Co3069 2.194 . S
N3089 C3084 1.328 . S
N3089 C3088 1.315 . S
H3090 C3084 0.929 . S
H3091 C3088 0.930 . S
H3092 C3080 0.929 . S
H3093 C3082 0.929 . S
O3094 Co3069 2.351 . S
O3094 C3097 1.244 . S
O3095 Co3069 2.155 . S
O3095 C3097 1.240 . S
O3096 Co3069 2.096 . S
O3096 C3077 1.247 . S
C3097 O3094 1.244 . S
C3097 O3095 1.240 . S
H3098 C3072 0.931 . S
H3099 C3081 0.931 . S
H3100 C3085 0.929 . S
H3101 C3087 0.930 . S
Co3102 N3106 2.148 . S
Co3102 N3112 2.128 . S
Co3102 N3122 2.194 . S
Co3102 O3127 2.351 . S
Co3102 O3128 2.155 . S
Co3102 O3129 2.096 . S
C3103 N3106 1.301 . S
C3103 N3107 1.328 . S
C3103 H3108 0.930 . S
C3104 C3105 1.333 . S
C3104 N3106 1.317 . S
C3104 H3109 0.930 . S
C3105 C3104 1.333 . S
C3105 N3107 1.350 . S
C3105 H3131 0.931 . S
N3106 Co3102 2.148 . S
N3106 C3103 1.301 . S
N3106 C3104 1.317 . S
N3107 C3103 1.328 . S
N3107 C3105 1.350 . S
H3108 C3103 0.930 . S
H3109 C3104 0.930 . S
C3110 O3111 1.224 . S
C3110 O3129 1.247 . S
O3111 C3110 1.224 . S
N3112 Co3102 2.128 . S
N3112 C3113 1.355 . S
N3112 C3115 1.311 . S
C3113 N3112 1.355 . S
C3113 C3114 1.363 . S
C3113 H3125 0.929 . S
C3114 C3113 1.363 . S
C3114 N3116 1.375 . S
C3114 H3132 0.931 . S
C3115 N3112 1.311 . S
C3115 N3116 1.347 . S
C3115 H3126 0.929 . S
N3116 C3114 1.375 . S
N3116 C3115 1.347 . S
C3117 C3120 1.365 . S
C3117 N3122 1.328 . S
C3117 H3123 0.929 . S
C3118 C3119 1.362 . S
C3118 C3121 1.378 . S
C3118 H3133 0.929 . S
C3119 C3118 1.362 . S
C3119 C3120 1.366 . S
C3120 C3117 1.365 . S
C3120 C3119 1.366 . S
C3120 H3134 0.930 . S
C3121 C3118 1.378 . S
C3121 N3122 1.315 . S
C3121 H3124 0.930 . S
N3122 Co3102 2.194 . S
N3122 C3117 1.328 . S
N3122 C3121 1.315 . S
H3123 C3117 0.929 . S
H3124 C3121 0.930 . S
H3125 C3113 0.929 . S
H3126 C3115 0.929 . S
O3127 Co3102 2.351 . S
O3127 C3130 1.244 . S
O3128 Co3102 2.155 . S
O3128 C3130 1.240 . S
O3129 Co3102 2.096 . S
O3129 C3110 1.247 . S
C3130 O3127 1.244 . S
C3130 O3128 1.240 . S
H3131 C3105 0.931 . S
H3132 C3114 0.931 . S
H3133 C3118 0.929 . S
H3134 C3120 0.930 . S
Co3135 N3139 2.148 . S
Co3135 N3145 2.128 . S
Co3135 N3155 2.194 . S
Co3135 O3160 2.351 . S
Co3135 O3161 2.155 . S
Co3135 O3162 2.096 . S
C3136 N3139 1.301 . S
C3136 N3140 1.328 . S
C3136 H3141 0.930 . S
C3137 C3138 1.333 . S
C3137 N3139 1.317 . S
C3137 H3142 0.930 . S
C3138 C3137 1.333 . S
C3138 N3140 1.350 . S
C3138 H3164 0.931 . S
N3139 Co3135 2.148 . S
N3139 C3136 1.301 . S
N3139 C3137 1.317 . S
N3140 C3136 1.328 . S
N3140 C3138 1.350 . S
H3141 C3136 0.930 . S
H3142 C3137 0.930 . S
C3143 O3144 1.224 . S
C3143 O3162 1.247 . S
O3144 C3143 1.224 . S
N3145 Co3135 2.128 . S
N3145 C3146 1.355 . S
N3145 C3148 1.311 . S
C3146 N3145 1.355 . S
C3146 C3147 1.363 . S
C3146 H3158 0.929 . S
C3147 C3146 1.363 . S
C3147 N3149 1.375 . S
C3147 H3165 0.931 . S
C3148 N3145 1.311 . S
C3148 N3149 1.347 . S
C3148 H3159 0.929 . S
N3149 C3147 1.375 . S
N3149 C3148 1.347 . S
C3150 C3153 1.365 . S
C3150 N3155 1.328 . S
C3150 H3156 0.929 . S
C3151 C3152 1.362 . S
C3151 C3154 1.378 . S
C3151 H3166 0.929 . S
C3152 C3151 1.362 . S
C3152 C3153 1.366 . S
C3153 C3150 1.365 . S
C3153 C3152 1.366 . S
C3153 H3167 0.930 . S
C3154 C3151 1.378 . S
C3154 N3155 1.315 . S
C3154 H3157 0.930 . S
N3155 Co3135 2.194 . S
N3155 C3150 1.328 . S
N3155 C3154 1.315 . S
H3156 C3150 0.929 . S
H3157 C3154 0.930 . S
H3158 C3146 0.929 . S
H3159 C3148 0.929 . S
O3160 Co3135 2.351 . S
O3160 C3163 1.244 . S
O3161 Co3135 2.155 . S
O3161 C3163 1.240 . S
O3162 Co3135 2.096 . S
O3162 C3143 1.247 . S
C3163 O3160 1.244 . S
C3163 O3161 1.240 . S
H3164 C3138 0.931 . S
H3165 C3147 0.931 . S
H3166 C3151 0.929 . S
H3167 C3153 0.930 . S
C3168 C3169 1.387 . S
C3168 H3172 0.950 . S
C3168 C3177 1.390 1_565 S
C3169 C3168 1.387 . S
C3169 C3171 1.387 . S
H3170 C3177 0.950 . S
C3171 C3169 1.387 . S
C3171 C3173 1.390 1_565 S
C3171 H3175 0.950 . S
H3172 C3168 0.950 . S
C3173 C3171 1.390 1_545 S
C3173 C3174 1.387 . S
C3173 H3176 0.950 . S
C3174 C3173 1.387 . S
C3174 C3177 1.387 . S
H3175 C3171 0.950 . S
H3176 C3173 0.950 . S
C3177 C3168 1.390 1_545 S
C3177 H3170 0.950 . S
C3177 C3174 1.387 . S
C3178 C3179 1.387 . S
C3178 H3182 0.950 . S
C3178 C3187 1.390 1_655 S
C3179 C3178 1.387 . S
C3179 C3181 1.387 . S
H3180 C3187 0.950 . S
C3181 C3179 1.387 . S
C3181 C3183 1.390 1_655 S
C3181 H3185 0.950 . S
H3182 C3178 0.950 . S
C3183 C3181 1.390 1_455 S
C3183 C3184 1.387 . S
C3183 H3186 0.950 . S
C3184 C3183 1.387 . S
C3184 C3187 1.387 . S
H3185 C3181 0.950 . S
H3186 C3183 0.950 . S
C3187 C3178 1.390 1_455 S
C3187 H3180 0.950 . S
C3187 C3184 1.387 . S
C3188 C3189 1.387 . S
C3188 H3192 0.950 . S
C3188 C3197 1.390 . S
C3189 C3188 1.387 . S
C3189 C3191 1.387 . S
H3190 C3197 0.950 . S
C3191 C3189 1.387 . S
C3191 C3193 1.390 . S
C3191 H3195 0.950 . S
H3192 C3188 0.950 . S
C3193 C3191 1.390 . S
C3193 C3194 1.387 . S
C3193 H3196 0.950 . S
C3194 C3193 1.387 . S
C3194 C3197 1.387 . S
H3195 C3191 0.950 . S
H3196 C3193 0.950 . S
C3197 C3188 1.390 . S
C3197 H3190 0.950 . S
C3197 C3194 1.387 . S
C3198 C3199 1.387 . S
C3198 H3202 0.950 . S
C3198 C3207 1.390 . S
C3199 C3198 1.387 . S
C3199 C3201 1.387 . S
H3200 C3207 0.950 . S
C3201 C3199 1.387 . S
C3201 C3203 1.390 . S
C3201 H3205 0.950 . S
H3202 C3198 0.950 . S
C3203 C3201 1.390 . S
C3203 C3204 1.387 . S
C3203 H3206 0.950 . S
C3204 C3203 1.387 . S
C3204 C3207 1.387 . S
H3205 C3201 0.950 . S
H3206 C3203 0.950 . S
C3207 C3198 1.390 . S
C3207 H3200 0.950 . S
C3207 C3204 1.387 . S
C3208 C3209 1.387 . S
C3208 H3212 0.950 . S
C3208 C3217 1.390 . S
C3209 C3208 1.387 . S
C3209 C3211 1.387 . S
H3210 C3217 0.950 . S
C3211 C3209 1.387 . S
C3211 C3213 1.390 . S
C3211 H3215 0.950 . S
H3212 C3208 0.950 . S
C3213 C3211 1.390 . S
C3213 C3214 1.387 . S
C3213 H3216 0.950 . S
C3214 C3213 1.387 . S
C3214 C3217 1.387 . S
H3215 C3211 0.950 . S
H3216 C3213 0.950 . S
C3217 C3208 1.390 . S
C3217 H3210 0.950 . S
C3217 C3214 1.387 . S
C3218 C3219 1.387 . S
C3218 H3222 0.950 . S
C3218 C3227 1.390 . S
C3219 C3218 1.387 . S
C3219 C3221 1.387 . S
H3220 C3227 0.950 . S
C3221 C3219 1.387 . S
C3221 C3223 1.390 . S
C3221 H3225 0.950 . S
H3222 C3218 0.950 . S
C3223 C3221 1.390 . S
C3223 C3224 1.387 . S
C3223 H3226 0.950 . S
C3224 C3223 1.387 . S
C3224 C3227 1.387 . S
H3225 C3221 0.950 . S
H3226 C3223 0.950 . S
C3227 C3218 1.390 . S
C3227 H3220 0.950 . S
C3227 C3224 1.387 . S
C3228 C3229 1.387 . S
C3228 H3232 0.950 . S
C3228 C3237 1.390 1_565 S
C3229 C3228 1.387 . S
C3229 C3231 1.387 . S
H3230 C3237 0.950 . S
C3231 C3229 1.387 . S
C3231 C3233 1.390 1_565 S
C3231 H3235 0.950 . S
H3232 C3228 0.950 . S
C3233 C3231 1.390 1_545 S
C3233 C3234 1.387 . S
C3233 H3236 0.950 . S
C3234 C3233 1.387 . S
C3234 C3237 1.387 . S
H3235 C3231 0.950 . S
H3236 C3233 0.950 . S
C3237 C3228 1.390 1_545 S
C3237 H3230 0.950 . S
C3237 C3234 1.387 . S
C3238 C3239 1.387 . S
C3238 H3242 0.950 . S
C3238 C3247 1.390 1_655 S
C3239 C3238 1.387 . S
C3239 C3241 1.387 . S
H3240 C3247 0.950 . S
C3241 C3239 1.387 . S
C3241 C3243 1.390 1_655 S
C3241 H3245 0.950 . S
H3242 C3238 0.950 . S
C3243 C3241 1.390 1_455 S
C3243 C3244 1.387 . S
C3243 H3246 0.950 . S
C3244 C3243 1.387 . S
C3244 C3247 1.387 . S
H3245 C3241 0.950 . S
H3246 C3243 0.950 . S
C3247 C3238 1.390 1_455 S
C3247 H3240 0.950 . S
C3247 C3244 1.387 . S
C3248 C3249 1.387 . S
C3248 H3252 0.950 . S
C3248 C3257 1.390 1_554 S
C3249 C3248 1.387 . S
C3249 C3251 1.387 . S
H3250 C3257 0.950 . S
C3251 C3249 1.387 . S
C3251 C3253 1.390 1_554 S
C3251 H3255 0.950 . S
H3252 C3248 0.950 . S
C3253 C3251 1.390 1_556 S
C3253 C3254 1.387 . S
C3253 H3256 0.950 . S
C3254 C3253 1.387 . S
C3254 C3257 1.387 . S
H3255 C3251 0.950 . S
H3256 C3253 0.950 . S
C3257 C3248 1.390 1_556 S
C3257 H3250 0.950 . S
C3257 C3254 1.387 . S
C3258 C3259 1.387 . S
C3258 H3262 0.950 . S
C3258 C3267 1.390 . S
C3259 C3258 1.387 . S
C3259 C3261 1.387 . S
H3260 C3267 0.950 . S
C3261 C3259 1.387 . S
C3261 C3263 1.390 . S
C3261 H3265 0.950 . S
H3262 C3258 0.950 . S
C3263 C3261 1.390 . S
C3263 C3264 1.387 . S
C3263 H3266 0.950 . S
C3264 C3263 1.387 . S
C3264 C3267 1.387 . S
H3265 C3261 0.950 . S
H3266 C3263 0.950 . S
C3267 C3258 1.390 . S
C3267 H3260 0.950 . S
C3267 C3264 1.387 . S
C3268 C3269 1.387 . S
C3268 H3272 0.950 . S
C3268 C3277 1.390 . S
C3269 C3268 1.387 . S
C3269 C3271 1.387 . S
H3270 C3277 0.950 . S
C3271 C3269 1.387 . S
C3271 C3273 1.390 . S
C3271 H3275 0.950 . S
H3272 C3268 0.950 . S
C3273 C3271 1.390 . S
C3273 C3274 1.387 . S
C3273 H3276 0.950 . S
C3274 C3273 1.387 . S
C3274 C3277 1.387 . S
H3275 C3271 0.950 . S
H3276 C3273 0.950 . S
C3277 C3268 1.390 . S
C3277 H3270 0.950 . S
C3277 C3274 1.387 . S
C3278 C3279 1.387 . S
C3278 H3282 0.950 . S
C3278 C3287 1.390 . S
C3279 C3278 1.387 . S
C3279 C3281 1.387 . S
H3280 C3287 0.950 . S
C3281 C3279 1.387 . S
C3281 C3283 1.390 . S
C3281 H3285 0.950 . S
H3282 C3278 0.950 . S
C3283 C3281 1.390 . S
C3283 C3284 1.387 . S
C3283 H3286 0.950 . S
C3284 C3283 1.387 . S
C3284 C3287 1.387 . S
H3285 C3281 0.950 . S
H3286 C3283 0.950 . S
C3287 C3278 1.390 . S
C3287 H3280 0.950 . S
C3287 C3284 1.387 . S
C3288 C3289 1.387 . S
C3288 H3292 0.950 . S
C3288 C3297 1.390 . S
C3289 C3288 1.387 . S
C3289 C3291 1.387 . S
H3290 C3297 0.950 . S
C3291 C3289 1.387 . S
C3291 C3293 1.390 . S
C3291 H3295 0.950 . S
H3292 C3288 0.950 . S
C3293 C3291 1.390 . S
C3293 C3294 1.387 . S
C3293 H3296 0.950 . S
C3294 C3293 1.387 . S
C3294 C3297 1.387 . S
H3295 C3291 0.950 . S
H3296 C3293 0.950 . S
C3297 C3288 1.390 . S
C3297 H3290 0.950 . S
C3297 C3294 1.387 . S
C3298 C3299 1.387 . S
C3298 H3302 0.950 . S
C3298 C3307 1.390 . S
C3299 C3298 1.387 . S
C3299 C3301 1.387 . S
H3300 C3307 0.950 . S
C3301 C3299 1.387 . S
C3301 C3303 1.390 . S
C3301 H3305 0.950 . S
H3302 C3298 0.950 . S
C3303 C3301 1.390 . S
C3303 C3304 1.387 . S
C3303 H3306 0.950 . S
C3304 C3303 1.387 . S
C3304 C3307 1.387 . S
H3305 C3301 0.950 . S
H3306 C3303 0.950 . S
C3307 C3298 1.390 . S
C3307 H3300 0.950 . S
C3307 C3304 1.387 . S
C3308 C3309 1.387 . S
C3308 H3312 0.950 . S
C3308 C3317 1.390 . S
C3309 C3308 1.387 . S
C3309 C3311 1.387 . S
H3310 C3317 0.950 . S
C3311 C3309 1.387 . S
C3311 C3313 1.390 . S
C3311 H3315 0.950 . S
H3312 C3308 0.950 . S
C3313 C3311 1.390 . S
C3313 C3314 1.387 . S
C3313 H3316 0.950 . S
C3314 C3313 1.387 . S
C3314 C3317 1.387 . S
H3315 C3311 0.950 . S
H3316 C3313 0.950 . S
C3317 C3308 1.390 . S
C3317 H3310 0.950 . S
C3317 C3314 1.387 . S
C3318 C3319 1.387 . S
C3318 H3322 0.950 . S
C3318 C3327 1.390 1_554 S
C3319 C3318 1.387 . S
C3319 C3321 1.387 . S
H3320 C3327 0.950 . S
C3321 C3319 1.387 . S
C3321 C3323 1.390 1_554 S
C3321 H3325 0.950 . S
H3322 C3318 0.950 . S
C3323 C3321 1.390 1_556 S
C3323 C3324 1.387 . S
C3323 H3326 0.950 . S
C3324 C3323 1.387 . S
C3324 C3327 1.387 . S
H3325 C3321 0.950 . S
H3326 C3323 0.950 . S
C3327 C3318 1.390 1_556 S
C3327 H3320 0.950 . S
C3327 C3324 1.387 . S
C3328 C3329 1.387 . S
C3328 H3332 0.950 . S
C3328 C3337 1.390 1_455 S
C3329 C3328 1.387 . S
C3329 C3331 1.387 . S
H3330 C3337 0.950 . S
C3331 C3329 1.387 . S
C3331 C3333 1.390 1_455 S
C3331 H3335 0.950 . S
H3332 C3328 0.950 . S
C3333 C3331 1.390 1_655 S
C3333 C3334 1.387 . S
C3333 H3336 0.950 . S
C3334 C3333 1.387 . S
C3334 C3337 1.387 . S
H3335 C3331 0.950 . S
H3336 C3333 0.950 . S
C3337 C3328 1.390 1_655 S
C3337 H3330 0.950 . S
C3337 C3334 1.387 . S
C3338 C3339 1.387 . S
C3338 H3342 0.950 . S
C3338 C3347 1.390 . S
C3339 C3338 1.387 . S
C3339 C3341 1.387 . S
H3340 C3347 0.950 . S
C3341 C3339 1.387 . S
C3341 C3343 1.390 . S
C3341 H3345 0.950 . S
H3342 C3338 0.950 . S
C3343 C3341 1.390 . S
C3343 C3344 1.387 . S
C3343 H3346 0.950 . S
C3344 C3343 1.387 . S
C3344 C3347 1.387 . S
H3345 C3341 0.950 . S
H3346 C3343 0.950 . S
C3347 C3338 1.390 . S
C3347 H3340 0.950 . S
C3347 C3344 1.387 . S
C3348 C3349 1.387 . S
C3348 H3352 0.950 . S
C3348 C3357 1.390 . S
C3349 C3348 1.387 . S
C3349 C3351 1.387 . S
H3350 C3357 0.950 . S
C3351 C3349 1.387 . S
C3351 C3353 1.390 . S
C3351 H3355 0.950 . S
H3352 C3348 0.950 . S
C3353 C3351 1.390 . S
C3353 C3354 1.387 . S
C3353 H3356 0.950 . S
C3354 C3353 1.387 . S
C3354 C3357 1.387 . S
H3355 C3351 0.950 . S
H3356 C3353 0.950 . S
C3357 C3348 1.390 . S
C3357 H3350 0.950 . S
C3357 C3354 1.387 . S
C3358 C3359 1.387 . S
C3358 H3362 0.950 . S
C3358 C3367 1.390 . S
C3359 C3358 1.387 . S
C3359 C3361 1.387 . S
H3360 C3367 0.950 . S
C3361 C3359 1.387 . S
C3361 C3363 1.390 . S
C3361 H3365 0.950 . S
H3362 C3358 0.950 . S
C3363 C3361 1.390 . S
C3363 C3364 1.387 . S
C3363 H3366 0.950 . S
C3364 C3363 1.387 . S
C3364 C3367 1.387 . S
H3365 C3361 0.950 . S
H3366 C3363 0.950 . S
C3367 C3358 1.390 . S
C3367 H3360 0.950 . S
C3367 C3364 1.387 . S
C3368 C3369 1.387 . S
C3368 H3372 0.950 . S
C3368 C3377 1.390 . S
C3369 C3368 1.387 . S
C3369 C3371 1.387 . S
H3370 C3377 0.950 . S
C3371 C3369 1.387 . S
C3371 C3373 1.390 . S
C3371 H3375 0.950 . S
H3372 C3368 0.950 . S
C3373 C3371 1.390 . S
C3373 C3374 1.387 . S
C3373 H3376 0.950 . S
C3374 C3373 1.387 . S
C3374 C3377 1.387 . S
H3375 C3371 0.950 . S
H3376 C3373 0.950 . S
C3377 C3368 1.390 . S
C3377 H3370 0.950 . S
C3377 C3374 1.387 . S
C3378 C3379 1.387 . S
C3378 H3382 0.950 . S
C3378 C3387 1.390 . S
C3379 C3378 1.387 . S
C3379 C3381 1.387 . S
H3380 C3387 0.950 . S
C3381 C3379 1.387 . S
C3381 C3383 1.390 . S
C3381 H3385 0.950 . S
H3382 C3378 0.950 . S
C3383 C3381 1.390 . S
C3383 C3384 1.387 . S
C3383 H3386 0.950 . S
C3384 C3383 1.387 . S
C3384 C3387 1.387 . S
H3385 C3381 0.950 . S
H3386 C3383 0.950 . S
C3387 C3378 1.390 . S
C3387 H3380 0.950 . S
C3387 C3384 1.387 . S
C3388 C3389 1.387 . S
C3388 H3392 0.950 . S
C3388 C3397 1.390 1_545 S
C3389 C3388 1.387 . S
C3389 C3391 1.387 . S
H3390 C3397 0.950 . S
C3391 C3389 1.387 . S
C3391 C3393 1.390 1_545 S
C3391 H3395 0.950 . S
H3392 C3388 0.950 . S
C3393 C3391 1.390 1_565 S
C3393 C3394 1.387 . S
C3393 H3396 0.950 . S
C3394 C3393 1.387 . S
C3394 C3397 1.387 . S
H3395 C3391 0.950 . S
H3396 C3393 0.950 . S
C3397 C3388 1.390 1_565 S
C3397 H3390 0.950 . S
C3397 C3394 1.387 . S
C3398 C3399 1.387 . S
C3398 H3402 0.950 . S
C3398 C3407 1.390 1_655 S
C3399 C3398 1.387 . S
C3399 C3401 1.387 . S
H3400 C3407 0.950 . S
C3401 C3399 1.387 . S
C3401 C3403 1.390 1_655 S
C3401 H3405 0.950 . S
H3402 C3398 0.950 . S
C3403 C3401 1.390 1_455 S
C3403 C3404 1.387 . S
C3403 H3406 0.950 . S
C3404 C3403 1.387 . S
C3404 C3407 1.387 . S
H3405 C3401 0.950 . S
H3406 C3403 0.950 . S
C3407 C3398 1.390 1_455 S
C3407 H3400 0.950 . S
C3407 C3404 1.387 . S
C3408 C3409 1.387 . S
C3408 H3412 0.950 . S
C3408 C3417 1.390 . S
C3409 C3408 1.387 . S
C3409 C3411 1.387 . S
H3410 C3417 0.950 . S
C3411 C3409 1.387 . S
C3411 C3413 1.390 . S
C3411 H3415 0.950 . S
H3412 C3408 0.950 . S
C3413 C3411 1.390 . S
C3413 C3414 1.387 . S
C3413 H3416 0.950 . S
C3414 C3413 1.387 . S
C3414 C3417 1.387 . S
H3415 C3411 0.950 . S
H3416 C3413 0.950 . S
C3417 C3408 1.390 . S
C3417 H3410 0.950 . S
C3417 C3414 1.387 . S
C3418 C3419 1.387 . S
C3418 H3422 0.950 . S
C3418 C3427 1.390 . S
C3419 C3418 1.387 . S
C3419 C3421 1.387 . S
H3420 C3427 0.950 . S
C3421 C3419 1.387 . S
C3421 C3423 1.390 . S
C3421 H3425 0.950 . S
H3422 C3418 0.950 . S
C3423 C3421 1.390 . S
C3423 C3424 1.387 . S
C3423 H3426 0.950 . S
C3424 C3423 1.387 . S
C3424 C3427 1.387 . S
H3425 C3421 0.950 . S
H3426 C3423 0.950 . S
C3427 C3418 1.390 . S
C3427 H3420 0.950 . S
C3427 C3424 1.387 . S
C3428 C3429 1.387 . S
C3428 H3432 0.950 . S
C3428 C3437 1.390 . S
C3429 C3428 1.387 . S
C3429 C3431 1.387 . S
H3430 C3437 0.950 . S
C3431 C3429 1.387 . S
C3431 C3433 1.390 . S
C3431 H3435 0.950 . S
H3432 C3428 0.950 . S
C3433 C3431 1.390 . S
C3433 C3434 1.387 . S
C3433 H3436 0.950 . S
C3434 C3433 1.387 . S
C3434 C3437 1.387 . S
H3435 C3431 0.950 . S
H3436 C3433 0.950 . S
C3437 C3428 1.390 . S
C3437 H3430 0.950 . S
C3437 C3434 1.387 . S
C3438 C3439 1.387 . S
C3438 H3442 0.950 . S
C3438 C3447 1.390 . S
C3439 C3438 1.387 . S
C3439 C3441 1.387 . S
H3440 C3447 0.950 . S
C3441 C3439 1.387 . S
C3441 C3443 1.390 . S
C3441 H3445 0.950 . S
H3442 C3438 0.950 . S
C3443 C3441 1.390 . S
C3443 C3444 1.387 . S
C3443 H3446 0.950 . S
C3444 C3443 1.387 . S
C3444 C3447 1.387 . S
H3445 C3441 0.950 . S
H3446 C3443 0.950 . S
C3447 C3438 1.390 . S
C3447 H3440 0.950 . S
C3447 C3444 1.387 . S
C3448 C3449 1.387 . S
C3448 H3452 0.950 . S
C3448 C3457 1.390 1_565 S
C3449 C3448 1.387 . S
C3449 C3451 1.387 . S
H3450 C3457 0.950 . S
C3451 C3449 1.387 . S
C3451 C3453 1.390 1_565 S
C3451 H3455 0.950 . S
H3452 C3448 0.950 . S
C3453 C3451 1.390 1_545 S
C3453 C3454 1.387 . S
C3453 H3456 0.950 . S
C3454 C3453 1.387 . S
C3454 C3457 1.387 . S
H3455 C3451 0.950 . S
H3456 C3453 0.950 . S
C3457 C3448 1.390 1_545 S
C3457 H3450 0.950 . S
C3457 C3454 1.387 . S
C3458 C3459 1.387 . S
C3458 H3462 0.950 . S
C3458 C3467 1.390 1_655 S
C3459 C3458 1.387 . S
C3459 C3461 1.387 . S
H3460 C3467 0.950 . S
C3461 C3459 1.387 . S
C3461 C3463 1.390 1_655 S
C3461 H3465 0.950 . S
H3462 C3458 0.950 . S
C3463 C3461 1.390 1_455 S
C3463 C3464 1.387 . S
C3463 H3466 0.950 . S
C3464 C3463 1.387 . S
C3464 C3467 1.387 . S
H3465 C3461 0.950 . S
H3466 C3463 0.950 . S
C3467 C3458 1.390 1_455 S
C3467 H3460 0.950 . S
C3467 C3464 1.387 . S
C3468 C3469 1.387 . S
C3468 H3472 0.950 . S
C3468 C3477 1.390 1_554 S
C3469 C3468 1.387 . S
C3469 C3471 1.387 . S
H3470 C3477 0.950 . S
C3471 C3469 1.387 . S
C3471 C3473 1.390 1_554 S
C3471 H3475 0.950 . S
H3472 C3468 0.950 . S
C3473 C3471 1.390 1_556 S
C3473 C3474 1.387 . S
C3473 H3476 0.950 . S
C3474 C3473 1.387 . S
C3474 C3477 1.387 . S
H3475 C3471 0.950 . S
H3476 C3473 0.950 . S
C3477 C3468 1.390 1_556 S
C3477 H3470 0.950 . S
C3477 C3474 1.387 . S
C3478 C3479 1.387 . S
C3478 H3482 0.950 . S
C3478 C3487 1.390 . S
C3479 C3478 1.387 . S
C3479 C3481 1.387 . S
H3480 C3487 0.950 . S
C3481 C3479 1.387 . S
C3481 C3483 1.390 . S
C3481 H3485 0.950 . S
H3482 C3478 0.950 . S
C3483 C3481 1.390 . S
C3483 C3484 1.387 . S
C3483 H3486 0.950 . S
C3484 C3483 1.387 . S
C3484 C3487 1.387 . S
H3485 C3481 0.950 . S
H3486 C3483 0.950 . S
C3487 C3478 1.390 . S
C3487 H3480 0.950 . S
C3487 C3484 1.387 . S
C3488 C3489 1.387 . S
C3488 H3492 0.950 . S
C3488 C3497 1.390 . S
C3489 C3488 1.387 . S
C3489 C3491 1.387 . S
H3490 C3497 0.950 . S
C3491 C3489 1.387 . S
C3491 C3493 1.390 . S
C3491 H3495 0.950 . S
H3492 C3488 0.950 . S
C3493 C3491 1.390 . S
C3493 C3494 1.387 . S
C3493 H3496 0.950 . S
C3494 C3493 1.387 . S
C3494 C3497 1.387 . S
H3495 C3491 0.950 . S
H3496 C3493 0.950 . S
C3497 C3488 1.390 . S
C3497 H3490 0.950 . S
C3497 C3494 1.387 . S
C3498 C3499 1.387 . S
C3498 H3502 0.950 . S
C3498 C3507 1.390 . S
C3499 C3498 1.387 . S
C3499 C3501 1.387 . S
H3500 C3507 0.950 . S
C3501 C3499 1.387 . S
C3501 C3503 1.390 . S
C3501 H3505 0.950 . S
H3502 C3498 0.950 . S
C3503 C3501 1.390 . S
C3503 C3504 1.387 . S
C3503 H3506 0.950 . S
C3504 C3503 1.387 . S
C3504 C3507 1.387 . S
H3505 C3501 0.950 . S
H3506 C3503 0.950 . S
C3507 C3498 1.390 . S
C3507 H3500 0.950 . S
C3507 C3504 1.387 . S
C3508 C3509 1.387 . S
C3508 H3512 0.950 . S
C3508 C3517 1.390 . S
C3509 C3508 1.387 . S
C3509 C3511 1.387 . S
H3510 C3517 0.950 . S
C3511 C3509 1.387 . S
C3511 C3513 1.390 . S
C3511 H3515 0.950 . S
H3512 C3508 0.950 . S
C3513 C3511 1.390 . S
C3513 C3514 1.387 . S
C3513 H3516 0.950 . S
C3514 C3513 1.387 . S
C3514 C3517 1.387 . S
H3515 C3511 0.950 . S
H3516 C3513 0.950 . S
C3517 C3508 1.390 . S
C3517 H3510 0.950 . S
C3517 C3514 1.387 . S
C3518 C3519 1.387 . S
C3518 H3522 0.950 . S
C3518 C3527 1.390 . S
C3519 C3518 1.387 . S
C3519 C3521 1.387 . S
H3520 C3527 0.950 . S
C3521 C3519 1.387 . S
C3521 C3523 1.390 . S
C3521 H3525 0.950 . S
H3522 C3518 0.950 . S
C3523 C3521 1.390 . S
C3523 C3524 1.387 . S
C3523 H3526 0.950 . S
C3524 C3523 1.387 . S
C3524 C3527 1.387 . S
H3525 C3521 0.950 . S
H3526 C3523 0.950 . S
C3527 C3518 1.390 . S
C3527 H3520 0.950 . S
C3527 C3524 1.387 . S
C3528 C3529 1.387 . S
C3528 H3532 0.950 . S
C3528 C3537 1.390 . S
C3529 C3528 1.387 . S
C3529 C3531 1.387 . S
H3530 C3537 0.950 . S
C3531 C3529 1.387 . S
C3531 C3533 1.390 . S
C3531 H3535 0.950 . S
H3532 C3528 0.950 . S
C3533 C3531 1.390 . S
C3533 C3534 1.387 . S
C3533 H3536 0.950 . S
C3534 C3533 1.387 . S
C3534 C3537 1.387 . S
H3535 C3531 0.950 . S
H3536 C3533 0.950 . S
C3537 C3528 1.390 . S
C3537 H3530 0.950 . S
C3537 C3534 1.387 . S
C3538 C3539 1.387 . S
C3538 H3542 0.950 . S
C3538 C3547 1.390 1_556 S
C3539 C3538 1.387 . S
C3539 C3541 1.387 . S
H3540 C3547 0.950 . S
C3541 C3539 1.387 . S
C3541 C3543 1.390 1_556 S
C3541 H3545 0.950 . S
H3542 C3538 0.950 . S
C3543 C3541 1.390 1_554 S
C3543 C3544 1.387 . S
C3543 H3546 0.950 . S
C3544 C3543 1.387 . S
C3544 C3547 1.387 . S
H3545 C3541 0.950 . S
H3546 C3543 0.950 . S
C3547 C3538 1.390 1_554 S
C3547 H3540 0.950 . S
C3547 C3544 1.387 . S
C3548 C3549 1.387 . S
C3548 H3552 0.950 . S
C3548 C3557 1.390 1_655 S
C3549 C3548 1.387 . S
C3549 C3551 1.387 . S
H3550 C3557 0.950 . S
C3551 C3549 1.387 . S
C3551 C3553 1.390 1_655 S
C3551 H3555 0.950 . S
H3552 C3548 0.950 . S
C3553 C3551 1.390 1_455 S
C3553 C3554 1.387 . S
C3553 H3556 0.950 . S
C3554 C3553 1.387 . S
C3554 C3557 1.387 . S
H3555 C3551 0.950 . S
H3556 C3553 0.950 . S
C3557 C3548 1.390 1_455 S
C3557 H3550 0.950 . S
C3557 C3554 1.387 . S
C3558 C3559 1.387 . S
C3558 H3562 0.950 . S
C3558 C3567 1.390 . S
C3559 C3558 1.387 . S
C3559 C3561 1.387 . S
H3560 C3567 0.950 . S
C3561 C3559 1.387 . S
C3561 C3563 1.390 . S
C3561 H3565 0.950 . S
H3562 C3558 0.950 . S
C3563 C3561 1.390 . S
C3563 C3564 1.387 . S
C3563 H3566 0.950 . S
C3564 C3563 1.387 . S
C3564 C3567 1.387 . S
H3565 C3561 0.950 . S
H3566 C3563 0.950 . S
C3567 C3558 1.390 . S
C3567 H3560 0.950 . S
C3567 C3564 1.387 . S
C3568 C3569 1.387 . S
C3568 H3572 0.950 . S
C3568 C3577 1.390 . S
C3569 C3568 1.387 . S
C3569 C3571 1.387 . S
H3570 C3577 0.950 . S
C3571 C3569 1.387 . S
C3571 C3573 1.390 . S
C3571 H3575 0.950 . S
H3572 C3568 0.950 . S
C3573 C3571 1.390 . S
C3573 C3574 1.387 . S
C3573 H3576 0.950 . S
C3574 C3573 1.387 . S
C3574 C3577 1.387 . S
H3575 C3571 0.950 . S
H3576 C3573 0.950 . S
C3577 C3568 1.390 . S
C3577 H3570 0.950 . S
C3577 C3574 1.387 . S
C3578 C3579 1.387 . S
C3578 H3582 0.950 . S
C3578 C3587 1.390 . S
C3579 C3578 1.387 . S
C3579 C3581 1.387 . S
H3580 C3587 0.950 . S
C3581 C3579 1.387 . S
C3581 C3583 1.390 . S
C3581 H3585 0.950 . S
H3582 C3578 0.950 . S
C3583 C3581 1.390 . S
C3583 C3584 1.387 . S
C3583 H3586 0.950 . S
C3584 C3583 1.387 . S
C3584 C3587 1.387 . S
H3585 C3581 0.950 . S
H3586 C3583 0.950 . S
C3587 C3578 1.390 . S
C3587 H3580 0.950 . S
C3587 C3584 1.387 . S
C3588 C3589 1.387 . S
C3588 H3592 0.950 . S
C3588 C3597 1.390 . S
C3589 C3588 1.387 . S
C3589 C3591 1.387 . S
H3590 C3597 0.950 . S
C3591 C3589 1.387 . S
C3591 C3593 1.390 . S
C3591 H3595 0.950 . S
H3592 C3588 0.950 . S
C3593 C3591 1.390 . S
C3593 C3594 1.387 . S
C3593 H3596 0.950 . S
C3594 C3593 1.387 . S
C3594 C3597 1.387 . S
H3595 C3591 0.950 . S
H3596 C3593 0.950 . S
C3597 C3588 1.390 . S
C3597 H3590 0.950 . S
C3597 C3594 1.387 . S
C3598 C3599 1.387 . S
C3598 H3602 0.950 . S
C3598 C3607 1.390 . S
C3599 C3598 1.387 . S
C3599 C3601 1.387 . S
H3600 C3607 0.950 . S
C3601 C3599 1.387 . S
C3601 C3603 1.390 . S
C3601 H3605 0.950 . S
H3602 C3598 0.950 . S
C3603 C3601 1.390 . S
C3603 C3604 1.387 . S
C3603 H3606 0.950 . S
C3604 C3603 1.387 . S
C3604 C3607 1.387 . S
H3605 C3601 0.950 . S
H3606 C3603 0.950 . S
C3607 C3598 1.390 . S
C3607 H3600 0.950 . S
C3607 C3604 1.387 . S
C3608 C3609 1.387 . S
C3608 H3612 0.950 . S
C3608 C3617 1.390 . S
C3609 C3608 1.387 . S
C3609 C3611 1.387 . S
H3610 C3617 0.950 . S
C3611 C3609 1.387 . S
C3611 C3613 1.390 . S
C3611 H3615 0.950 . S
H3612 C3608 0.950 . S
C3613 C3611 1.390 . S
C3613 C3614 1.387 . S
C3613 H3616 0.950 . S
C3614 C3613 1.387 . S
C3614 C3617 1.387 . S
H3615 C3611 0.950 . S
H3616 C3613 0.950 . S
C3617 C3608 1.390 . S
C3617 H3610 0.950 . S
C3617 C3614 1.387 . S
C3618 C3619 1.387 . S
C3618 H3622 0.950 . S
C3618 C3627 1.390 1_655 S
C3619 C3618 1.387 . S
C3619 C3621 1.387 . S
H3620 C3627 0.950 . S
C3621 C3619 1.387 . S
C3621 C3623 1.390 1_655 S
C3621 H3625 0.950 . S
H3622 C3618 0.950 . S
C3623 C3621 1.390 1_455 S
C3623 C3624 1.387 . S
C3623 H3626 0.950 . S
C3624 C3623 1.387 . S
C3624 C3627 1.387 . S
H3625 C3621 0.950 . S
H3626 C3623 0.950 . S
C3627 C3618 1.390 1_455 S
C3627 H3620 0.950 . S
C3627 C3624 1.387 . S
C3628 C3629 1.387 . S
C3628 H3632 0.950 . S
C3628 C3637 1.390 . S
C3629 C3628 1.387 . S
C3629 C3631 1.387 . S
H3630 C3637 0.950 . S
C3631 C3629 1.387 . S
C3631 C3633 1.390 . S
C3631 H3635 0.950 . S
H3632 C3628 0.950 . S
C3633 C3631 1.390 . S
C3633 C3634 1.387 . S
C3633 H3636 0.950 . S
C3634 C3633 1.387 . S
C3634 C3637 1.387 . S
H3635 C3631 0.950 . S
H3636 C3633 0.950 . S
C3637 C3628 1.390 . S
C3637 H3630 0.950 . S
C3637 C3634 1.387 . S
C3638 C3639 1.387 . S
C3638 H3642 0.950 . S
C3638 C3647 1.390 . S
C3639 C3638 1.387 . S
C3639 C3641 1.387 . S
H3640 C3647 0.950 . S
C3641 C3639 1.387 . S
C3641 C3643 1.390 . S
C3641 H3645 0.950 . S
H3642 C3638 0.950 . S
C3643 C3641 1.390 . S
C3643 C3644 1.387 . S
C3643 H3646 0.950 . S
C3644 C3643 1.387 . S
C3644 C3647 1.387 . S
H3645 C3641 0.950 . S
H3646 C3643 0.950 . S
C3647 C3638 1.390 . S
C3647 H3640 0.950 . S
C3647 C3644 1.387 . S
C3648 C3649 1.387 . S
C3648 H3652 0.950 . S
C3648 C3657 1.390 . S
C3649 C3648 1.387 . S
C3649 C3651 1.387 . S
H3650 C3657 0.950 . S
C3651 C3649 1.387 . S
C3651 C3653 1.390 . S
C3651 H3655 0.950 . S
H3652 C3648 0.950 . S
C3653 C3651 1.390 . S
C3653 C3654 1.387 . S
C3653 H3656 0.950 . S
C3654 C3653 1.387 . S
C3654 C3657 1.387 . S
H3655 C3651 0.950 . S
H3656 C3653 0.950 . S
C3657 C3648 1.390 . S
C3657 H3650 0.950 . S
C3657 C3654 1.387 . S
C3658 C3659 1.387 . S
C3658 H3662 0.950 . S
C3658 C3667 1.390 . S
C3659 C3658 1.387 . S
C3659 C3661 1.387 . S
H3660 C3667 0.950 . S
C3661 C3659 1.387 . S
C3661 C3663 1.390 . S
C3661 H3665 0.950 . S
H3662 C3658 0.950 . S
C3663 C3661 1.390 . S
C3663 C3664 1.387 . S
C3663 H3666 0.950 . S
C3664 C3663 1.387 . S
C3664 C3667 1.387 . S
H3665 C3661 0.950 . S
H3666 C3663 0.950 . S
C3667 C3658 1.390 . S
C3667 H3660 0.950 . S
C3667 C3664 1.387 . S
C3668 C3669 1.387 . S
C3668 H3672 0.950 . S
C3668 C3677 1.390 . S
C3669 C3668 1.387 . S
C3669 C3671 1.387 . S
H3670 C3677 0.950 . S
C3671 C3669 1.387 . S
C3671 C3673 1.390 . S
C3671 H3675 0.950 . S
H3672 C3668 0.950 . S
C3673 C3671 1.390 . S
C3673 C3674 1.387 . S
C3673 H3676 0.950 . S
C3674 C3673 1.387 . S
C3674 C3677 1.387 . S
H3675 C3671 0.950 . S
H3676 C3673 0.950 . S
C3677 C3668 1.390 . S
C3677 H3670 0.950 . S
C3677 C3674 1.387 . S
C3678 C3679 1.387 . S
C3678 H3682 0.950 . S
C3678 C3687 1.390 . S
C3679 C3678 1.387 . S
C3679 C3681 1.387 . S
H3680 C3687 0.950 . S
C3681 C3679 1.387 . S
C3681 C3683 1.390 . S
C3681 H3685 0.950 . S
H3682 C3678 0.950 . S
C3683 C3681 1.390 . S
C3683 C3684 1.387 . S
C3683 H3686 0.950 . S
C3684 C3683 1.387 . S
C3684 C3687 1.387 . S
H3685 C3681 0.950 . S
H3686 C3683 0.950 . S
C3687 C3678 1.390 . S
C3687 H3680 0.950 . S
C3687 C3684 1.387 . S
C3688 C3689 1.387 . S
C3688 H3692 0.950 . S
C3688 C3697 1.390 1_556 S
C3689 C3688 1.387 . S
C3689 C3691 1.387 . S
H3690 C3697 0.950 . S
C3691 C3689 1.387 . S
C3691 C3693 1.390 1_556 S
C3691 H3695 0.950 . S
H3692 C3688 0.950 . S
C3693 C3691 1.390 1_554 S
C3693 C3694 1.387 . S
C3693 H3696 0.950 . S
C3694 C3693 1.387 . S
C3694 C3697 1.387 . S
H3695 C3691 0.950 . S
H3696 C3693 0.950 . S
C3697 C3688 1.390 1_554 S
C3697 H3690 0.950 . S
C3697 C3694 1.387 . S
C3698 C3699 1.387 . S
C3698 H3702 0.950 . S
C3698 C3707 1.390 . S
C3699 C3698 1.387 . S
C3699 C3701 1.387 . S
H3700 C3707 0.950 . S
C3701 C3699 1.387 . S
C3701 C3703 1.390 . S
C3701 H3705 0.950 . S
H3702 C3698 0.950 . S
C3703 C3701 1.390 . S
C3703 C3704 1.387 . S
C3703 H3706 0.950 . S
C3704 C3703 1.387 . S
C3704 C3707 1.387 . S
H3705 C3701 0.950 . S
H3706 C3703 0.950 . S
C3707 C3698 1.390 . S
C3707 H3700 0.950 . S
C3707 C3704 1.387 . S
C3708 C3709 1.387 . S
C3708 H3712 0.950 . S
C3708 C3717 1.390 . S
C3709 C3708 1.387 . S
C3709 C3711 1.387 . S
H3710 C3717 0.950 . S
C3711 C3709 1.387 . S
C3711 C3713 1.390 . S
C3711 H3715 0.950 . S
H3712 C3708 0.950 . S
C3713 C3711 1.390 . S
C3713 C3714 1.387 . S
C3713 H3716 0.950 . S
C3714 C3713 1.387 . S
C3714 C3717 1.387 . S
H3715 C3711 0.950 . S
H3716 C3713 0.950 . S
C3717 C3708 1.390 . S
C3717 H3710 0.950 . S
C3717 C3714 1.387 . S
C3718 C3719 1.387 . S
C3718 H3722 0.950 . S
C3718 C3727 1.390 1_556 S
C3719 C3718 1.387 . S
C3719 C3721 1.387 . S
H3720 C3727 0.950 . S
C3721 C3719 1.387 . S
C3721 C3723 1.390 1_556 S
C3721 H3725 0.950 . S
H3722 C3718 0.950 . S
C3723 C3721 1.390 1_554 S
C3723 C3724 1.387 . S
C3723 H3726 0.950 . S
C3724 C3723 1.387 . S
C3724 C3727 1.387 . S
H3725 C3721 0.950 . S
H3726 C3723 0.950 . S
C3727 C3718 1.390 1_554 S
C3727 H3720 0.950 . S
C3727 C3724 1.387 . S
C3728 C3729 1.387 . S
C3728 H3732 0.950 . S
C3728 C3737 1.390 . S
C3729 C3728 1.387 . S
C3729 C3731 1.387 . S
H3730 C3737 0.950 . S
C3731 C3729 1.387 . S
C3731 C3733 1.390 . S
C3731 H3735 0.950 . S
H3732 C3728 0.950 . S
C3733 C3731 1.390 . S
C3733 C3734 1.387 . S
C3733 H3736 0.950 . S
C3734 C3733 1.387 . S
C3734 C3737 1.387 . S
H3735 C3731 0.950 . S
H3736 C3733 0.950 . S
C3737 C3728 1.390 . S
C3737 H3730 0.950 . S
C3737 C3734 1.387 . S
C3738 C3739 1.387 . S
C3738 H3742 0.950 . S
C3738 C3747 1.390 . S
C3739 C3738 1.387 . S
C3739 C3741 1.387 . S
H3740 C3747 0.950 . S
C3741 C3739 1.387 . S
C3741 C3743 1.390 . S
C3741 H3745 0.950 . S
H3742 C3738 0.950 . S
C3743 C3741 1.390 . S
C3743 C3744 1.387 . S
C3743 H3746 0.950 . S
C3744 C3743 1.387 . S
C3744 C3747 1.387 . S
H3745 C3741 0.950 . S
H3746 C3743 0.950 . S
C3747 C3738 1.390 . S
C3747 H3740 0.950 . S
C3747 C3744 1.387 . S
C3748 C3749 1.387 . S
C3748 H3752 0.950 . S
C3748 C3757 1.390 . S
C3749 C3748 1.387 . S
C3749 C3751 1.387 . S
H3750 C3757 0.950 . S
C3751 C3749 1.387 . S
C3751 C3753 1.390 . S
C3751 H3755 0.950 . S
H3752 C3748 0.950 . S
C3753 C3751 1.390 . S
C3753 C3754 1.387 . S
C3753 H3756 0.950 . S
C3754 C3753 1.387 . S
C3754 C3757 1.387 . S
H3755 C3751 0.950 . S
H3756 C3753 0.950 . S
C3757 C3748 1.390 . S
C3757 H3750 0.950 . S
C3757 C3754 1.387 . S
C3758 C3759 1.387 . S
C3758 H3762 0.950 . S
C3758 C3767 1.390 . S
C3759 C3758 1.387 . S
C3759 C3761 1.387 . S
H3760 C3767 0.950 . S
C3761 C3759 1.387 . S
C3761 C3763 1.390 . S
C3761 H3765 0.950 . S
H3762 C3758 0.950 . S
C3763 C3761 1.390 . S
C3763 C3764 1.387 . S
C3763 H3766 0.950 . S
C3764 C3763 1.387 . S
C3764 C3767 1.387 . S
H3765 C3761 0.950 . S
H3766 C3763 0.950 . S
C3767 C3758 1.390 . S
C3767 H3760 0.950 . S
C3767 C3764 1.387 . S
C3768 C3769 1.387 . S
C3768 H3772 0.950 . S
C3768 C3777 1.390 1_545 S
C3769 C3768 1.387 . S
C3769 C3771 1.387 . S
H3770 C3777 0.950 . S
C3771 C3769 1.387 . S
C3771 C3773 1.390 1_545 S
C3771 H3775 0.950 . S
H3772 C3768 0.950 . S
C3773 C3771 1.390 1_565 S
C3773 C3774 1.387 . S
C3773 H3776 0.950 . S
C3774 C3773 1.387 . S
C3774 C3777 1.387 . S
H3775 C3771 0.950 . S
H3776 C3773 0.950 . S
C3777 C3768 1.390 1_565 S
C3777 H3770 0.950 . S
C3777 C3774 1.387 . S
C3778 C3779 1.387 . S
C3778 H3782 0.950 . S
C3778 C3787 1.390 . S
C3779 C3778 1.387 . S
C3779 C3781 1.387 . S
H3780 C3787 0.950 . S
C3781 C3779 1.387 . S
C3781 C3783 1.390 . S
C3781 H3785 0.950 . S
H3782 C3778 0.950 . S
C3783 C3781 1.390 . S
C3783 C3784 1.387 . S
C3783 H3786 0.950 . S
C3784 C3783 1.387 . S
C3784 C3787 1.387 . S
H3785 C3781 0.950 . S
H3786 C3783 0.950 . S
C3787 C3778 1.390 . S
C3787 H3780 0.950 . S
C3787 C3784 1.387 . S
C3788 C3789 1.387 . S
C3788 H3792 0.950 . S
C3788 C3797 1.390 . S
C3789 C3788 1.387 . S
C3789 C3791 1.387 . S
H3790 C3797 0.950 . S
C3791 C3789 1.387 . S
C3791 C3793 1.390 . S
C3791 H3795 0.950 . S
H3792 C3788 0.950 . S
C3793 C3791 1.390 . S
C3793 C3794 1.387 . S
C3793 H3796 0.950 . S
C3794 C3793 1.387 . S
C3794 C3797 1.387 . S
H3795 C3791 0.950 . S
H3796 C3793 0.950 . S
C3797 C3788 1.390 . S
C3797 H3790 0.950 . S
C3797 C3794 1.387 . S
C3798 C3799 1.387 . S
C3798 H3802 0.950 . S
C3798 C3807 1.390 1_455 S
C3799 C3798 1.387 . S
C3799 C3801 1.387 . S
H3800 C3807 0.950 . S
C3801 C3799 1.387 . S
C3801 C3803 1.390 1_455 S
C3801 H3805 0.950 . S
H3802 C3798 0.950 . S
C3803 C3801 1.390 1_655 S
C3803 C3804 1.387 . S
C3803 H3806 0.950 . S
C3804 C3803 1.387 . S
C3804 C3807 1.387 . S
H3805 C3801 0.950 . S
H3806 C3803 0.950 . S
C3807 C3798 1.390 1_655 S
C3807 H3800 0.950 . S
C3807 C3804 1.387 . S
C3808 C3809 1.387 . S
C3808 H3812 0.950 . S
C3808 C3817 1.390 . S
C3809 C3808 1.387 . S
C3809 C3811 1.387 . S
H3810 C3817 0.950 . S
C3811 C3809 1.387 . S
C3811 C3813 1.390 . S
C3811 H3815 0.950 . S
H3812 C3808 0.950 . S
C3813 C3811 1.390 . S
C3813 C3814 1.387 . S
C3813 H3816 0.950 . S
C3814 C3813 1.387 . S
C3814 C3817 1.387 . S
H3815 C3811 0.950 . S
H3816 C3813 0.950 . S
C3817 C3808 1.390 . S
C3817 H3810 0.950 . S
C3817 C3814 1.387 . S
C3818 C3819 1.387 . S
C3818 H3822 0.950 . S
C3818 C3827 1.390 . S
C3819 C3818 1.387 . S
C3819 C3821 1.387 . S
H3820 C3827 0.950 . S
C3821 C3819 1.387 . S
C3821 C3823 1.390 . S
C3821 H3825 0.950 . S
H3822 C3818 0.950 . S
C3823 C3821 1.390 . S
C3823 C3824 1.387 . S
C3823 H3826 0.950 . S
C3824 C3823 1.387 . S
C3824 C3827 1.387 . S
H3825 C3821 0.950 . S
H3826 C3823 0.950 . S
C3827 C3818 1.390 . S
C3827 H3820 0.950 . S
C3827 C3824 1.387 . S
C3828 C3829 1.387 . S
C3828 H3832 0.950 . S
C3828 C3837 1.390 . S
C3829 C3828 1.387 . S
C3829 C3831 1.387 . S
H3830 C3837 0.950 . S
C3831 C3829 1.387 . S
C3831 C3833 1.390 . S
C3831 H3835 0.950 . S
H3832 C3828 0.950 . S
C3833 C3831 1.390 . S
C3833 C3834 1.387 . S
C3833 H3836 0.950 . S
C3834 C3833 1.387 . S
C3834 C3837 1.387 . S
H3835 C3831 0.950 . S
H3836 C3833 0.950 . S
C3837 C3828 1.390 . S
C3837 H3830 0.950 . S
C3837 C3834 1.387 . S
C3838 C3839 1.387 . S
C3838 H3842 0.950 . S
C3838 C3847 1.390 . S
C3839 C3838 1.387 . S
C3839 C3841 1.387 . S
H3840 C3847 0.950 . S
C3841 C3839 1.387 . S
C3841 C3843 1.390 . S
C3841 H3845 0.950 . S
H3842 C3838 0.950 . S
C3843 C3841 1.390 . S
C3843 C3844 1.387 . S
C3843 H3846 0.950 . S
C3844 C3843 1.387 . S
C3844 C3847 1.387 . S
H3845 C3841 0.950 . S
H3846 C3843 0.950 . S
C3847 C3838 1.390 . S
C3847 H3840 0.950 . S
C3847 C3844 1.387 . S
C3848 C3849 1.387 . S
C3848 H3852 0.950 . S
C3848 C3857 1.390 . S
C3849 C3848 1.387 . S
C3849 C3851 1.387 . S
H3850 C3857 0.950 . S
C3851 C3849 1.387 . S
C3851 C3853 1.390 . S
C3851 H3855 0.950 . S
H3852 C3848 0.950 . S
C3853 C3851 1.390 . S
C3853 C3854 1.387 . S
C3853 H3856 0.950 . S
C3854 C3853 1.387 . S
C3854 C3857 1.387 . S
H3855 C3851 0.950 . S
H3856 C3853 0.950 . S
C3857 C3848 1.390 . S
C3857 H3850 0.950 . S
C3857 C3854 1.387 . S
C3858 C3859 1.387 . S
C3858 H3862 0.950 . S
C3858 C3867 1.390 . S
C3859 C3858 1.387 . S
C3859 C3861 1.387 . S
H3860 C3867 0.950 . S
C3861 C3859 1.387 . S
C3861 C3863 1.390 . S
C3861 H3865 0.950 . S
H3862 C3858 0.950 . S
C3863 C3861 1.390 . S
C3863 C3864 1.387 . S
C3863 H3866 0.950 . S
C3864 C3863 1.387 . S
C3864 C3867 1.387 . S
H3865 C3861 0.950 . S
H3866 C3863 0.950 . S
C3867 C3858 1.390 . S
C3867 H3860 0.950 . S
C3867 C3864 1.387 . S
C3868 C3869 1.387 . S
C3868 H3872 0.950 . S
C3868 C3877 1.390 1_554 S
C3869 C3868 1.387 . S
C3869 C3871 1.387 . S
H3870 C3877 0.950 . S
C3871 C3869 1.387 . S
C3871 C3873 1.390 1_554 S
C3871 H3875 0.950 . S
H3872 C3868 0.950 . S
C3873 C3871 1.390 1_556 S
C3873 C3874 1.387 . S
C3873 H3876 0.950 . S
C3874 C3873 1.387 . S
C3874 C3877 1.387 . S
H3875 C3871 0.950 . S
H3876 C3873 0.950 . S
C3877 C3868 1.390 1_556 S
C3877 H3870 0.950 . S
C3877 C3874 1.387 . S
C3878 C3879 1.387 . S
C3878 H3882 0.950 . S
C3878 C3887 1.390 . S
C3879 C3878 1.387 . S
C3879 C3881 1.387 . S
H3880 C3887 0.950 . S
C3881 C3879 1.387 . S
C3881 C3883 1.390 . S
C3881 H3885 0.950 . S
H3882 C3878 0.950 . S
C3883 C3881 1.390 . S
C3883 C3884 1.387 . S
C3883 H3886 0.950 . S
C3884 C3883 1.387 . S
C3884 C3887 1.387 . S
H3885 C3881 0.950 . S
H3886 C3883 0.950 . S
C3887 C3878 1.390 . S
C3887 H3880 0.950 . S
C3887 C3884 1.387 . S
C3888 C3889 1.387 . S
C3888 H3892 0.950 . S
C3888 C3897 1.390 . S
C3889 C3888 1.387 . S
C3889 C3891 1.387 . S
H3890 C3897 0.950 . S
C3891 C3889 1.387 . S
C3891 C3893 1.390 . S
C3891 H3895 0.950 . S
H3892 C3888 0.950 . S
C3893 C3891 1.390 . S
C3893 C3894 1.387 . S
C3893 H3896 0.950 . S
C3894 C3893 1.387 . S
C3894 C3897 1.387 . S
H3895 C3891 0.950 . S
H3896 C3893 0.950 . S
C3897 C3888 1.390 . S
C3897 H3890 0.950 . S
C3897 C3894 1.387 . S
C3898 C3899 1.387 . S
C3898 H3902 0.950 . S
C3898 C3907 1.390 1_554 S
C3899 C3898 1.387 . S
C3899 C3901 1.387 . S
H3900 C3907 0.950 . S
C3901 C3899 1.387 . S
C3901 C3903 1.390 1_554 S
C3901 H3905 0.950 . S
H3902 C3898 0.950 . S
C3903 C3901 1.390 1_556 S
C3903 C3904 1.387 . S
C3903 H3906 0.950 . S
C3904 C3903 1.387 . S
C3904 C3907 1.387 . S
H3905 C3901 0.950 . S
H3906 C3903 0.950 . S
C3907 C3898 1.390 1_556 S
C3907 H3900 0.950 . S
C3907 C3904 1.387 . S
C3908 C3909 1.387 . S
C3908 H3912 0.950 . S
C3908 C3917 1.390 . S
C3909 C3908 1.387 . S
C3909 C3911 1.387 . S
H3910 C3917 0.950 . S
C3911 C3909 1.387 . S
C3911 C3913 1.390 . S
C3911 H3915 0.950 . S
H3912 C3908 0.950 . S
C3913 C3911 1.390 . S
C3913 C3914 1.387 . S
C3913 H3916 0.950 . S
C3914 C3913 1.387 . S
C3914 C3917 1.387 . S
H3915 C3911 0.950 . S
H3916 C3913 0.950 . S
C3917 C3908 1.390 . S
C3917 H3910 0.950 . S
C3917 C3914 1.387 . S
C3918 C3919 1.387 . S
C3918 H3922 0.950 . S
C3918 C3927 1.390 . S
C3919 C3918 1.387 . S
C3919 C3921 1.387 . S
H3920 C3927 0.950 . S
C3921 C3919 1.387 . S
C3921 C3923 1.390 . S
C3921 H3925 0.950 . S
H3922 C3918 0.950 . S
C3923 C3921 1.390 . S
C3923 C3924 1.387 . S
C3923 H3926 0.950 . S
C3924 C3923 1.387 . S
C3924 C3927 1.387 . S
H3925 C3921 0.950 . S
H3926 C3923 0.950 . S
C3927 C3918 1.390 . S
C3927 H3920 0.950 . S
C3927 C3924 1.387 . S
C3928 C3929 1.387 . S
C3928 H3932 0.950 . S
C3928 C3937 1.390 . S
C3929 C3928 1.387 . S
C3929 C3931 1.387 . S
H3930 C3937 0.950 . S
C3931 C3929 1.387 . S
C3931 C3933 1.390 . S
C3931 H3935 0.950 . S
H3932 C3928 0.950 . S
C3933 C3931 1.390 . S
C3933 C3934 1.387 . S
C3933 H3936 0.950 . S
C3934 C3933 1.387 . S
C3934 C3937 1.387 . S
H3935 C3931 0.950 . S
H3936 C3933 0.950 . S
C3937 C3928 1.390 . S
C3937 H3930 0.950 . S
C3937 C3934 1.387 . S
C3938 C3939 1.387 . S
C3938 H3942 0.950 . S
C3938 C3947 1.390 . S
C3939 C3938 1.387 . S
C3939 C3941 1.387 . S
H3940 C3947 0.950 . S
C3941 C3939 1.387 . S
C3941 C3943 1.390 . S
C3941 H3945 0.950 . S
H3942 C3938 0.950 . S
C3943 C3941 1.390 . S
C3943 C3944 1.387 . S
C3943 H3946 0.950 . S
C3944 C3943 1.387 . S
C3944 C3947 1.387 . S
H3945 C3941 0.950 . S
H3946 C3943 0.950 . S
C3947 C3938 1.390 . S
C3947 H3940 0.950 . S
C3947 C3944 1.387 . S
C3948 C3949 1.387 . S
C3948 H3952 0.950 . S
C3948 C3957 1.390 1_545 S
C3949 C3948 1.387 . S
C3949 C3951 1.387 . S
H3950 C3957 0.950 . S
C3951 C3949 1.387 . S
C3951 C3953 1.390 1_545 S
C3951 H3955 0.950 . S
H3952 C3948 0.950 . S
C3953 C3951 1.390 1_565 S
C3953 C3954 1.387 . S
C3953 H3956 0.950 . S
C3954 C3953 1.387 . S
C3954 C3957 1.387 . S
H3955 C3951 0.950 . S
H3956 C3953 0.950 . S
C3957 C3948 1.390 1_565 S
C3957 H3950 0.950 . S
C3957 C3954 1.387 . S
C3958 C3959 1.387 . S
C3958 H3962 0.950 . S
C3958 C3967 1.390 . S
C3959 C3958 1.387 . S
C3959 C3961 1.387 . S
H3960 C3967 0.950 . S
C3961 C3959 1.387 . S
C3961 C3963 1.390 . S
C3961 H3965 0.950 . S
H3962 C3958 0.950 . S
C3963 C3961 1.390 . S
C3963 C3964 1.387 . S
C3963 H3966 0.950 . S
C3964 C3963 1.387 . S
C3964 C3967 1.387 . S
H3965 C3961 0.950 . S
H3966 C3963 0.950 . S
C3967 C3958 1.390 . S
C3967 H3960 0.950 . S
C3967 C3964 1.387 . S
C3968 C3969 1.387 . S
C3968 H3972 0.950 . S
C3968 C3977 1.390 . S
C3969 C3968 1.387 . S
C3969 C3971 1.387 . S
H3970 C3977 0.950 . S
C3971 C3969 1.387 . S
C3971 C3973 1.390 . S
C3971 H3975 0.950 . S
H3972 C3968 0.950 . S
C3973 C3971 1.390 . S
C3973 C3974 1.387 . S
C3973 H3976 0.950 . S
C3974 C3973 1.387 . S
C3974 C3977 1.387 . S
H3975 C3971 0.950 . S
H3976 C3973 0.950 . S
C3977 C3968 1.390 . S
C3977 H3970 0.950 . S
C3977 C3974 1.387 . S
C3978 C3979 1.387 . S
C3978 H3982 0.950 . S
C3978 C3987 1.390 . S
C3979 C3978 1.387 . S
C3979 C3981 1.387 . S
H3980 C3987 0.950 . S
C3981 C3979 1.387 . S
C3981 C3983 1.390 . S
C3981 H3985 0.950 . S
H3982 C3978 0.950 . S
C3983 C3981 1.390 . S
C3983 C3984 1.387 . S
C3983 H3986 0.950 . S
C3984 C3983 1.387 . S
C3984 C3987 1.387 . S
H3985 C3981 0.950 . S
H3986 C3983 0.950 . S
C3987 C3978 1.390 . S
C3987 H3980 0.950 . S
C3987 C3984 1.387 . S
C3988 C3989 1.387 . S
C3988 H3992 0.950 . S
C3988 C3997 1.390 1_545 S
C3989 C3988 1.387 . S
C3989 C3991 1.387 . S
H3990 C3997 0.950 . S
C3991 C3989 1.387 . S
C3991 C3993 1.390 1_545 S
C3991 H3995 0.950 . S
H3992 C3988 0.950 . S
C3993 C3991 1.390 1_565 S
C3993 C3994 1.387 . S
C3993 H3996 0.950 . S
C3994 C3993 1.387 . S
C3994 C3997 1.387 . S
H3995 C3991 0.950 . S
H3996 C3993 0.950 . S
C3997 C3988 1.390 1_565 S
C3997 H3990 0.950 . S
C3997 C3994 1.387 . S
C3998 C3999 1.387 . S
C3998 H4002 0.950 . S
C3998 C4007 1.390 . S
C3999 C3998 1.387 . S
C3999 C4001 1.387 . S
H4000 C4007 0.950 . S
C4001 C3999 1.387 . S
C4001 C4003 1.390 . S
C4001 H4005 0.950 . S
H4002 C3998 0.950 . S
C4003 C4001 1.390 . S
C4003 C4004 1.387 . S
C4003 H4006 0.950 . S
C4004 C4003 1.387 . S
C4004 C4007 1.387 . S
H4005 C4001 0.950 . S
H4006 C4003 0.950 . S
C4007 C3998 1.390 . S
C4007 H4000 0.950 . S
C4007 C4004 1.387 . S
C4008 C4009 1.387 . S
C4008 H4012 0.950 . S
C4008 C4017 1.390 . S
C4009 C4008 1.387 . S
C4009 C4011 1.387 . S
H4010 C4017 0.950 . S
C4011 C4009 1.387 . S
C4011 C4013 1.390 . S
C4011 H4015 0.950 . S
H4012 C4008 0.950 . S
C4013 C4011 1.390 . S
C4013 C4014 1.387 . S
C4013 H4016 0.950 . S
C4014 C4013 1.387 . S
C4014 C4017 1.387 . S
H4015 C4011 0.950 . S
H4016 C4013 0.950 . S
C4017 C4008 1.390 . S
C4017 H4010 0.950 . S
C4017 C4014 1.387 . S
C4018 C4019 1.387 . S
C4018 H4022 0.950 . S
C4018 C4027 1.390 . S
C4019 C4018 1.387 . S
C4019 C4021 1.387 . S
H4020 C4027 0.950 . S
C4021 C4019 1.387 . S
C4021 C4023 1.390 . S
C4021 H4025 0.950 . S
H4022 C4018 0.950 . S
C4023 C4021 1.390 . S
C4023 C4024 1.387 . S
C4023 H4026 0.950 . S
C4024 C4023 1.387 . S
C4024 C4027 1.387 . S
H4025 C4021 0.950 . S
H4026 C4023 0.950 . S
C4027 C4018 1.390 . S
C4027 H4020 0.950 . S
C4027 C4024 1.387 . S
C4028 C4029 1.387 . S
C4028 H4032 0.950 . S
C4028 C4037 1.390 . S
C4029 C4028 1.387 . S
C4029 C4031 1.387 . S
H4030 C4037 0.950 . S
C4031 C4029 1.387 . S
C4031 C4033 1.390 . S
C4031 H4035 0.950 . S
H4032 C4028 0.950 . S
C4033 C4031 1.390 . S
C4033 C4034 1.387 . S
C4033 H4036 0.950 . S
C4034 C4033 1.387 . S
C4034 C4037 1.387 . S
H4035 C4031 0.950 . S
H4036 C4033 0.950 . S
C4037 C4028 1.390 . S
C4037 H4030 0.950 . S
C4037 C4034 1.387 . S
C4038 C4039 1.387 . S
C4038 H4042 0.950 . S
C4038 C4047 1.390 . S
C4039 C4038 1.387 . S
C4039 C4041 1.387 . S
H4040 C4047 0.950 . S
C4041 C4039 1.387 . S
C4041 C4043 1.390 . S
C4041 H4045 0.950 . S
H4042 C4038 0.950 . S
C4043 C4041 1.390 . S
C4043 C4044 1.387 . S
C4043 H4046 0.950 . S
C4044 C4043 1.387 . S
C4044 C4047 1.387 . S
H4045 C4041 0.950 . S
H4046 C4043 0.950 . S
C4047 C4038 1.390 . S
C4047 H4040 0.950 . S
C4047 C4044 1.387 . S
C4048 C4049 1.387 . S
C4048 H4052 0.950 . S
C4048 C4057 1.390 1_565 S
C4049 C4048 1.387 . S
C4049 C4051 1.387 . S
H4050 C4057 0.950 . S
C4051 C4049 1.387 . S
C4051 C4053 1.390 1_565 S
C4051 H4055 0.950 . S
H4052 C4048 0.950 . S
C4053 C4051 1.390 1_545 S
C4053 C4054 1.387 . S
C4053 H4056 0.950 . S
C4054 C4053 1.387 . S
C4054 C4057 1.387 . S
H4055 C4051 0.950 . S
H4056 C4053 0.950 . S
C4057 C4048 1.390 1_545 S
C4057 H4050 0.950 . S
C4057 C4054 1.387 . S
C4058 C4059 1.387 . S
C4058 H4062 0.950 . S
C4058 C4067 1.390 . S
C4059 C4058 1.387 . S
C4059 C4061 1.387 . S
H4060 C4067 0.950 . S
C4061 C4059 1.387 . S
C4061 C4063 1.390 . S
C4061 H4065 0.950 . S
H4062 C4058 0.950 . S
C4063 C4061 1.390 . S
C4063 C4064 1.387 . S
C4063 H4066 0.950 . S
C4064 C4063 1.387 . S
C4064 C4067 1.387 . S
H4065 C4061 0.950 . S
H4066 C4063 0.950 . S
C4067 C4058 1.390 . S
C4067 H4060 0.950 . S
C4067 C4064 1.387 . S
C4068 C4069 1.387 . S
C4068 H4072 0.950 . S
C4068 C4077 1.390 . S
C4069 C4068 1.387 . S
C4069 C4071 1.387 . S
H4070 C4077 0.950 . S
C4071 C4069 1.387 . S
C4071 C4073 1.390 . S
C4071 H4075 0.950 . S
H4072 C4068 0.950 . S
C4073 C4071 1.390 . S
C4073 C4074 1.387 . S
C4073 H4076 0.950 . S
C4074 C4073 1.387 . S
C4074 C4077 1.387 . S
H4075 C4071 0.950 . S
H4076 C4073 0.950 . S
C4077 C4068 1.390 . S
C4077 H4070 0.950 . S
C4077 C4074 1.387 . S
C4078 C4079 1.387 . S
C4078 H4082 0.950 . S
C4078 C4087 1.390 . S
C4079 C4078 1.387 . S
C4079 C4081 1.387 . S
H4080 C4087 0.950 . S
C4081 C4079 1.387 . S
C4081 C4083 1.390 . S
C4081 H4085 0.950 . S
H4082 C4078 0.950 . S
C4083 C4081 1.390 . S
C4083 C4084 1.387 . S
C4083 H4086 0.950 . S
C4084 C4083 1.387 . S
C4084 C4087 1.387 . S
H4085 C4081 0.950 . S
H4086 C4083 0.950 . S
C4087 C4078 1.390 . S
C4087 H4080 0.950 . S
C4087 C4084 1.387 . S
C4088 C4089 1.387 . S
C4088 H4092 0.950 . S
C4088 C4097 1.390 . S
C4089 C4088 1.387 . S
C4089 C4091 1.387 . S
H4090 C4097 0.950 . S
C4091 C4089 1.387 . S
C4091 C4093 1.390 . S
C4091 H4095 0.950 . S
H4092 C4088 0.950 . S
C4093 C4091 1.390 . S
C4093 C4094 1.387 . S
C4093 H4096 0.950 . S
C4094 C4093 1.387 . S
C4094 C4097 1.387 . S
H4095 C4091 0.950 . S
H4096 C4093 0.950 . S
C4097 C4088 1.390 . S
C4097 H4090 0.950 . S
C4097 C4094 1.387 . S
C4098 C4099 1.387 . S
C4098 H4102 0.950 . S
C4098 C4107 1.390 . S
C4099 C4098 1.387 . S
C4099 C4101 1.387 . S
H4100 C4107 0.950 . S
C4101 C4099 1.387 . S
C4101 C4103 1.390 . S
C4101 H4105 0.950 . S
H4102 C4098 0.950 . S
C4103 C4101 1.390 . S
C4103 C4104 1.387 . S
C4103 H4106 0.950 . S
C4104 C4103 1.387 . S
C4104 C4107 1.387 . S
H4105 C4101 0.950 . S
H4106 C4103 0.950 . S
C4107 C4098 1.390 . S
C4107 H4100 0.950 . S
C4107 C4104 1.387 . S
C4108 C4109 1.387 . S
C4108 H4112 0.950 . S
C4108 C4117 1.390 . S
C4109 C4108 1.387 . S
C4109 C4111 1.387 . S
H4110 C4117 0.950 . S
C4111 C4109 1.387 . S
C4111 C4113 1.390 . S
C4111 H4115 0.950 . S
H4112 C4108 0.950 . S
C4113 C4111 1.390 . S
C4113 C4114 1.387 . S
C4113 H4116 0.950 . S
C4114 C4113 1.387 . S
C4114 C4117 1.387 . S
H4115 C4111 0.950 . S
H4116 C4113 0.950 . S
C4117 C4108 1.390 . S
C4117 H4110 0.950 . S
C4117 C4114 1.387 . S
C4118 C4119 1.387 . S
C4118 H4122 0.950 . S
C4118 C4127 1.390 . S
C4119 C4118 1.387 . S
C4119 C4121 1.387 . S
H4120 C4127 0.950 . S
C4121 C4119 1.387 . S
C4121 C4123 1.390 . S
C4121 H4125 0.950 . S
H4122 C4118 0.950 . S
C4123 C4121 1.390 . S
C4123 C4124 1.387 . S
C4123 H4126 0.950 . S
C4124 C4123 1.387 . S
C4124 C4127 1.387 . S
H4125 C4121 0.950 . S
H4126 C4123 0.950 . S
C4127 C4118 1.390 . S
C4127 H4120 0.950 . S
C4127 C4124 1.387 . S
C4128 C4129 1.387 . S
C4128 H4132 0.950 . S
C4128 C4137 1.390 . S
C4129 C4128 1.387 . S
C4129 C4131 1.387 . S
H4130 C4137 0.950 . S
C4131 C4129 1.387 . S
C4131 C4133 1.390 . S
C4131 H4135 0.950 . S
H4132 C4128 0.950 . S
C4133 C4131 1.390 . S
C4133 C4134 1.387 . S
C4133 H4136 0.950 . S
C4134 C4133 1.387 . S
C4134 C4137 1.387 . S
H4135 C4131 0.950 . S
H4136 C4133 0.950 . S
C4137 C4128 1.390 . S
C4137 H4130 0.950 . S
C4137 C4134 1.387 . S
C4138 C4139 1.387 . S
C4138 H4142 0.950 . S
C4138 C4147 1.390 . S
C4139 C4138 1.387 . S
C4139 C4141 1.387 . S
H4140 C4147 0.950 . S
C4141 C4139 1.387 . S
C4141 C4143 1.390 . S
C4141 H4145 0.950 . S
H4142 C4138 0.950 . S
C4143 C4141 1.390 . S
C4143 C4144 1.387 . S
C4143 H4146 0.950 . S
C4144 C4143 1.387 . S
C4144 C4147 1.387 . S
H4145 C4141 0.950 . S
H4146 C4143 0.950 . S
C4147 C4138 1.390 . S
C4147 H4140 0.950 . S
C4147 C4144 1.387 . S
C4148 C4149 1.387 . S
C4148 H4152 0.950 . S
C4148 C4157 1.390 . S
C4149 C4148 1.387 . S
C4149 C4151 1.387 . S
H4150 C4157 0.950 . S
C4151 C4149 1.387 . S
C4151 C4153 1.390 . S
C4151 H4155 0.950 . S
H4152 C4148 0.950 . S
C4153 C4151 1.390 . S
C4153 C4154 1.387 . S
C4153 H4156 0.950 . S
C4154 C4153 1.387 . S
C4154 C4157 1.387 . S
H4155 C4151 0.950 . S
H4156 C4153 0.950 . S
C4157 C4148 1.390 . S
C4157 H4150 0.950 . S
C4157 C4154 1.387 . S
C4158 C4159 1.387 . S
C4158 H4162 0.950 . S
C4158 C4167 1.390 . S
C4159 C4158 1.387 . S
C4159 C4161 1.387 . S
H4160 C4167 0.950 . S
C4161 C4159 1.387 . S
C4161 C4163 1.390 . S
C4161 H4165 0.950 . S
H4162 C4158 0.950 . S
C4163 C4161 1.390 . S
C4163 C4164 1.387 . S
C4163 H4166 0.950 . S
C4164 C4163 1.387 . S
C4164 C4167 1.387 . S
H4165 C4161 0.950 . S
H4166 C4163 0.950 . S
C4167 C4158 1.390 . S
C4167 H4160 0.950 . S
C4167 C4164 1.387 . S
C4168 C4169 1.387 . S
C4168 H4172 0.950 . S
C4168 C4177 1.390 . S
C4169 C4168 1.387 . S
C4169 C4171 1.387 . S
H4170 C4177 0.950 . S
C4171 C4169 1.387 . S
C4171 C4173 1.390 . S
C4171 H4175 0.950 . S
H4172 C4168 0.950 . S
C4173 C4171 1.390 . S
C4173 C4174 1.387 . S
C4173 H4176 0.950 . S
C4174 C4173 1.387 . S
C4174 C4177 1.387 . S
H4175 C4171 0.950 . S
H4176 C4173 0.950 . S
C4177 C4168 1.390 . S
C4177 H4170 0.950 . S
C4177 C4174 1.387 . S
C4178 C4179 1.387 . S
C4178 H4182 0.950 . S
C4178 C4187 1.390 . S
C4179 C4178 1.387 . S
C4179 C4181 1.387 . S
H4180 C4187 0.950 . S
C4181 C4179 1.387 . S
C4181 C4183 1.390 . S
C4181 H4185 0.950 . S
H4182 C4178 0.950 . S
C4183 C4181 1.390 . S
C4183 C4184 1.387 . S
C4183 H4186 0.950 . S
C4184 C4183 1.387 . S
C4184 C4187 1.387 . S
H4185 C4181 0.950 . S
H4186 C4183 0.950 . S
C4187 C4178 1.390 . S
C4187 H4180 0.950 . S
C4187 C4184 1.387 . S
C4188 C4189 1.387 . S
C4188 H4192 0.950 . S
C4188 C4197 1.390 . S
C4189 C4188 1.387 . S
C4189 C4191 1.387 . S
H4190 C4197 0.950 . S
C4191 C4189 1.387 . S
C4191 C4193 1.390 . S
C4191 H4195 0.950 . S
H4192 C4188 0.950 . S
C4193 C4191 1.390 . S
C4193 C4194 1.387 . S
C4193 H4196 0.950 . S
C4194 C4193 1.387 . S
C4194 C4197 1.387 . S
H4195 C4191 0.950 . S
H4196 C4193 0.950 . S
C4197 C4188 1.390 . S
C4197 H4190 0.950 . S
C4197 C4194 1.387 . S
C4198 C4199 1.387 . S
C4198 H4202 0.950 . S
C4198 C4207 1.390 . S
C4199 C4198 1.387 . S
C4199 C4201 1.387 . S
H4200 C4207 0.950 . S
C4201 C4199 1.387 . S
C4201 C4203 1.390 . S
C4201 H4205 0.950 . S
H4202 C4198 0.950 . S
C4203 C4201 1.390 . S
C4203 C4204 1.387 . S
C4203 H4206 0.950 . S
C4204 C4203 1.387 . S
C4204 C4207 1.387 . S
H4205 C4201 0.950 . S
H4206 C4203 0.950 . S
C4207 C4198 1.390 . S
C4207 H4200 0.950 . S
C4207 C4204 1.387 . S
C4208 C4209 1.387 . S
C4208 H4212 0.950 . S
C4208 C4217 1.390 . S
C4209 C4208 1.387 . S
C4209 C4211 1.387 . S
H4210 C4217 0.950 . S
C4211 C4209 1.387 . S
C4211 C4213 1.390 . S
C4211 H4215 0.950 . S
H4212 C4208 0.950 . S
C4213 C4211 1.390 . S
C4213 C4214 1.387 . S
C4213 H4216 0.950 . S
C4214 C4213 1.387 . S
C4214 C4217 1.387 . S
H4215 C4211 0.950 . S
H4216 C4213 0.950 . S
C4217 C4208 1.390 . S
C4217 H4210 0.950 . S
C4217 C4214 1.387 . S
C4218 C4219 1.387 . S
C4218 H4222 0.950 . S
C4218 C4227 1.390 . S
C4219 C4218 1.387 . S
C4219 C4221 1.387 . S
H4220 C4227 0.950 . S
C4221 C4219 1.387 . S
C4221 C4223 1.390 . S
C4221 H4225 0.950 . S
H4222 C4218 0.950 . S
C4223 C4221 1.390 . S
C4223 C4224 1.387 . S
C4223 H4226 0.950 . S
C4224 C4223 1.387 . S
C4224 C4227 1.387 . S
H4225 C4221 0.950 . S
H4226 C4223 0.950 . S
C4227 C4218 1.390 . S
C4227 H4220 0.950 . S
C4227 C4224 1.387 . S
C4228 C4229 1.387 . S
C4228 H4232 0.950 . S
C4228 C4237 1.390 . S
C4229 C4228 1.387 . S
C4229 C4231 1.387 . S
H4230 C4237 0.950 . S
C4231 C4229 1.387 . S
C4231 C4233 1.390 . S
C4231 H4235 0.950 . S
H4232 C4228 0.950 . S
C4233 C4231 1.390 . S
C4233 C4234 1.387 . S
C4233 H4236 0.950 . S
C4234 C4233 1.387 . S
C4234 C4237 1.387 . S
H4235 C4231 0.950 . S
H4236 C4233 0.950 . S
C4237 C4228 1.390 . S
C4237 H4230 0.950 . S
C4237 C4234 1.387 . S
C4238 C4239 1.387 . S
C4238 H4242 0.950 . S
C4238 C4247 1.390 . S
C4239 C4238 1.387 . S
C4239 C4241 1.387 . S
H4240 C4247 0.950 . S
C4241 C4239 1.387 . S
C4241 C4243 1.390 . S
C4241 H4245 0.950 . S
H4242 C4238 0.950 . S
C4243 C4241 1.390 . S
C4243 C4244 1.387 . S
C4243 H4246 0.950 . S
C4244 C4243 1.387 . S
C4244 C4247 1.387 . S
H4245 C4241 0.950 . S
H4246 C4243 0.950 . S
C4247 C4238 1.390 . S
C4247 H4240 0.950 . S
C4247 C4244 1.387 . S
C4248 C4249 1.387 . S
C4248 H4252 0.950 . S
C4248 C4257 1.390 . S
C4249 C4248 1.387 . S
C4249 C4251 1.387 . S
H4250 C4257 0.950 . S
C4251 C4249 1.387 . S
C4251 C4253 1.390 . S
C4251 H4255 0.950 . S
H4252 C4248 0.950 . S
C4253 C4251 1.390 . S
C4253 C4254 1.387 . S
C4253 H4256 0.950 . S
C4254 C4253 1.387 . S
C4254 C4257 1.387 . S
H4255 C4251 0.950 . S
H4256 C4253 0.950 . S
C4257 C4248 1.390 . S
C4257 H4250 0.950 . S
C4257 C4254 1.387 . S
C4258 C4259 1.387 . S
C4258 H4262 0.950 . S
C4258 C4267 1.390 . S
C4259 C4258 1.387 . S
C4259 C4261 1.387 . S
H4260 C4267 0.950 . S
C4261 C4259 1.387 . S
C4261 C4263 1.390 . S
C4261 H4265 0.950 . S
H4262 C4258 0.950 . S
C4263 C4261 1.390 . S
C4263 C4264 1.387 . S
C4263 H4266 0.950 . S
C4264 C4263 1.387 . S
C4264 C4267 1.387 . S
H4265 C4261 0.950 . S
H4266 C4263 0.950 . S
C4267 C4258 1.390 . S
C4267 H4260 0.950 . S
C4267 C4264 1.387 . S
C4268 C4269 1.387 . S
C4268 H4272 0.950 . S
C4268 C4277 1.390 . S
C4269 C4268 1.387 . S
C4269 C4271 1.387 . S
H4270 C4277 0.950 . S
C4271 C4269 1.387 . S
C4271 C4273 1.390 . S
C4271 H4275 0.950 . S
H4272 C4268 0.950 . S
C4273 C4271 1.390 . S
C4273 C4274 1.387 . S
C4273 H4276 0.950 . S
C4274 C4273 1.387 . S
C4274 C4277 1.387 . S
H4275 C4271 0.950 . S
H4276 C4273 0.950 . S
C4277 C4268 1.390 . S
C4277 H4270 0.950 . S
C4277 C4274 1.387 . S
C4278 C4279 1.387 . S
C4278 H4282 0.950 . S
C4278 C4287 1.390 . S
C4279 C4278 1.387 . S
C4279 C4281 1.387 . S
H4280 C4287 0.950 . S
C4281 C4279 1.387 . S
C4281 C4283 1.390 . S
C4281 H4285 0.950 . S
H4282 C4278 0.950 . S
C4283 C4281 1.390 . S
C4283 C4284 1.387 . S
C4283 H4286 0.950 . S
C4284 C4283 1.387 . S
C4284 C4287 1.387 . S
H4285 C4281 0.950 . S
H4286 C4283 0.950 . S
C4287 C4278 1.390 . S
C4287 H4280 0.950 . S
C4287 C4284 1.387 . S
C4288 C4289 1.387 . S
C4288 H4292 0.950 . S
C4288 C4297 1.390 . S
C4289 C4288 1.387 . S
C4289 C4291 1.387 . S
H4290 C4297 0.950 . S
C4291 C4289 1.387 . S
C4291 C4293 1.390 . S
C4291 H4295 0.950 . S
H4292 C4288 0.950 . S
C4293 C4291 1.390 . S
C4293 C4294 1.387 . S
C4293 H4296 0.950 . S
C4294 C4293 1.387 . S
C4294 C4297 1.387 . S
H4295 C4291 0.950 . S
H4296 C4293 0.950 . S
C4297 C4288 1.390 . S
C4297 H4290 0.950 . S
C4297 C4294 1.387 . S
C4298 C4299 1.387 . S
C4298 H4302 0.950 . S
C4298 C4307 1.390 . S
C4299 C4298 1.387 . S
C4299 C4301 1.387 . S
H4300 C4307 0.950 . S
C4301 C4299 1.387 . S
C4301 C4303 1.390 . S
C4301 H4305 0.950 . S
H4302 C4298 0.950 . S
C4303 C4301 1.390 . S
C4303 C4304 1.387 . S
C4303 H4306 0.950 . S
C4304 C4303 1.387 . S
C4304 C4307 1.387 . S
H4305 C4301 0.950 . S
H4306 C4303 0.950 . S
C4307 C4298 1.390 . S
C4307 H4300 0.950 . S
C4307 C4304 1.387 . S
C4308 C4309 1.387 . S
C4308 H4312 0.950 . S
C4308 C4317 1.390 . S
C4309 C4308 1.387 . S
C4309 C4311 1.387 . S
H4310 C4317 0.950 . S
C4311 C4309 1.387 . S
C4311 C4313 1.390 . S
C4311 H4315 0.950 . S
H4312 C4308 0.950 . S
C4313 C4311 1.390 . S
C4313 C4314 1.387 . S
C4313 H4316 0.950 . S
C4314 C4313 1.387 . S
C4314 C4317 1.387 . S
H4315 C4311 0.950 . S
H4316 C4313 0.950 . S
C4317 C4308 1.390 . S
C4317 H4310 0.950 . S
C4317 C4314 1.387 . S
C4318 C4319 1.387 . S
C4318 H4322 0.950 . S
C4318 C4327 1.390 . S
C4319 C4318 1.387 . S
C4319 C4321 1.387 . S
H4320 C4327 0.950 . S
C4321 C4319 1.387 . S
C4321 C4323 1.390 . S
C4321 H4325 0.950 . S
H4322 C4318 0.950 . S
C4323 C4321 1.390 . S
C4323 C4324 1.387 . S
C4323 H4326 0.950 . S
C4324 C4323 1.387 . S
C4324 C4327 1.387 . S
H4325 C4321 0.950 . S
H4326 C4323 0.950 . S
C4327 C4318 1.390 . S
C4327 H4320 0.950 . S
C4327 C4324 1.387 . S
C4328 C4329 1.387 . S
C4328 H4332 0.950 . S
C4328 C4337 1.390 . S
C4329 C4328 1.387 . S
C4329 C4331 1.387 . S
H4330 C4337 0.950 . S
C4331 C4329 1.387 . S
C4331 C4333 1.390 . S
C4331 H4335 0.950 . S
H4332 C4328 0.950 . S
C4333 C4331 1.390 . S
C4333 C4334 1.387 . S
C4333 H4336 0.950 . S
C4334 C4333 1.387 . S
C4334 C4337 1.387 . S
H4335 C4331 0.950 . S
H4336 C4333 0.950 . S
C4337 C4328 1.390 . S
C4337 H4330 0.950 . S
C4337 C4334 1.387 . S
C4338 C4339 1.387 . S
C4338 H4342 0.950 . S
C4338 C4347 1.390 . S
C4339 C4338 1.387 . S
C4339 C4341 1.387 . S
H4340 C4347 0.950 . S
C4341 C4339 1.387 . S
C4341 C4343 1.390 . S
C4341 H4345 0.950 . S
H4342 C4338 0.950 . S
C4343 C4341 1.390 . S
C4343 C4344 1.387 . S
C4343 H4346 0.950 . S
C4344 C4343 1.387 . S
C4344 C4347 1.387 . S
H4345 C4341 0.950 . S
H4346 C4343 0.950 . S
C4347 C4338 1.390 . S
C4347 H4340 0.950 . S
C4347 C4344 1.387 . S
C4348 C4349 1.387 . S
C4348 H4352 0.950 . S
C4348 C4357 1.390 . S
C4349 C4348 1.387 . S
C4349 C4351 1.387 . S
H4350 C4357 0.950 . S
C4351 C4349 1.387 . S
C4351 C4353 1.390 . S
C4351 H4355 0.950 . S
H4352 C4348 0.950 . S
C4353 C4351 1.390 . S
C4353 C4354 1.387 . S
C4353 H4356 0.950 . S
C4354 C4353 1.387 . S
C4354 C4357 1.387 . S
H4355 C4351 0.950 . S
H4356 C4353 0.950 . S
C4357 C4348 1.390 . S
C4357 H4350 0.950 . S
C4357 C4354 1.387 . S
C4358 C4359 1.387 . S
C4358 H4362 0.950 . S
C4358 C4367 1.390 . S
C4359 C4358 1.387 . S
C4359 C4361 1.387 . S
H4360 C4367 0.950 . S
C4361 C4359 1.387 . S
C4361 C4363 1.390 . S
C4361 H4365 0.950 . S
H4362 C4358 0.950 . S
C4363 C4361 1.390 . S
C4363 C4364 1.387 . S
C4363 H4366 0.950 . S
C4364 C4363 1.387 . S
C4364 C4367 1.387 . S
H4365 C4361 0.950 . S
H4366 C4363 0.950 . S
C4367 C4358 1.390 . S
C4367 H4360 0.950 . S
C4367 C4364 1.387 . S
C4368 C4369 1.387 . S
C4368 H4372 0.950 . S
C4368 C4377 1.390 . S
C4369 C4368 1.387 . S
C4369 C4371 1.387 . S
H4370 C4377 0.950 . S
C4371 C4369 1.387 . S
C4371 C4373 1.390 . S
C4371 H4375 0.950 . S
H4372 C4368 0.950 . S
C4373 C4371 1.390 . S
C4373 C4374 1.387 . S
C4373 H4376 0.950 . S
C4374 C4373 1.387 . S
C4374 C4377 1.387 . S
H4375 C4371 0.950 . S
H4376 C4373 0.950 . S
C4377 C4368 1.390 . S
C4377 H4370 0.950 . S
C4377 C4374 1.387 . S
C4378 C4379 1.387 . S
C4378 H4382 0.950 . S
C4378 C4387 1.390 . S
C4379 C4378 1.387 . S
C4379 C4381 1.387 . S
H4380 C4387 0.950 . S
C4381 C4379 1.387 . S
C4381 C4383 1.390 . S
C4381 H4385 0.950 . S
H4382 C4378 0.950 . S
C4383 C4381 1.390 . S
C4383 C4384 1.387 . S
C4383 H4386 0.950 . S
C4384 C4383 1.387 . S
C4384 C4387 1.387 . S
H4385 C4381 0.950 . S
H4386 C4383 0.950 . S
C4387 C4378 1.390 . S
C4387 H4380 0.950 . S
C4387 C4384 1.387 . S
C4388 C4389 1.387 . S
C4388 H4392 0.950 . S
C4388 C4397 1.390 . S
C4389 C4388 1.387 . S
C4389 C4391 1.387 . S
H4390 C4397 0.950 . S
C4391 C4389 1.387 . S
C4391 C4393 1.390 . S
C4391 H4395 0.950 . S
H4392 C4388 0.950 . S
C4393 C4391 1.390 . S
C4393 C4394 1.387 . S
C4393 H4396 0.950 . S
C4394 C4393 1.387 . S
C4394 C4397 1.387 . S
H4395 C4391 0.950 . S
H4396 C4393 0.950 . S
C4397 C4388 1.390 . S
C4397 H4390 0.950 . S
C4397 C4394 1.387 . S
C4398 C4399 1.387 . S
C4398 H4402 0.950 . S
C4398 C4407 1.390 . S
C4399 C4398 1.387 . S
C4399 C4401 1.387 . S
H4400 C4407 0.950 . S
C4401 C4399 1.387 . S
C4401 C4403 1.390 . S
C4401 H4405 0.950 . S
H4402 C4398 0.950 . S
C4403 C4401 1.390 . S
C4403 C4404 1.387 . S
C4403 H4406 0.950 . S
C4404 C4403 1.387 . S
C4404 C4407 1.387 . S
H4405 C4401 0.950 . S
H4406 C4403 0.950 . S
C4407 C4398 1.390 . S
C4407 H4400 0.950 . S
C4407 C4404 1.387 . S
C4408 C4409 1.387 . S
C4408 H4412 0.950 . S
C4408 C4417 1.390 . S
C4409 C4408 1.387 . S
C4409 C4411 1.387 . S
H4410 C4417 0.950 . S
C4411 C4409 1.387 . S
C4411 C4413 1.390 . S
C4411 H4415 0.950 . S
H4412 C4408 0.950 . S
C4413 C4411 1.390 . S
C4413 C4414 1.387 . S
C4413 H4416 0.950 . S
C4414 C4413 1.387 . S
C4414 C4417 1.387 . S
H4415 C4411 0.950 . S
H4416 C4413 0.950 . S
C4417 C4408 1.390 . S
C4417 H4410 0.950 . S
C4417 C4414 1.387 . S
C4418 C4419 1.387 . S
C4418 H4422 0.950 . S
C4418 C4427 1.390 . S
C4419 C4418 1.387 . S
C4419 C4421 1.387 . S
H4420 C4427 0.950 . S
C4421 C4419 1.387 . S
C4421 C4423 1.390 . S
C4421 H4425 0.950 . S
H4422 C4418 0.950 . S
C4423 C4421 1.390 . S
C4423 C4424 1.387 . S
C4423 H4426 0.950 . S
C4424 C4423 1.387 . S
C4424 C4427 1.387 . S
H4425 C4421 0.950 . S
H4426 C4423 0.950 . S
C4427 C4418 1.390 . S
C4427 H4420 0.950 . S
C4427 C4424 1.387 . S
C4428 C4429 1.387 . S
C4428 H4432 0.950 . S
C4428 C4437 1.390 . S
C4429 C4428 1.387 . S
C4429 C4431 1.387 . S
H4430 C4437 0.950 . S
C4431 C4429 1.387 . S
C4431 C4433 1.390 . S
C4431 H4435 0.950 . S
H4432 C4428 0.950 . S
C4433 C4431 1.390 . S
C4433 C4434 1.387 . S
C4433 H4436 0.950 . S
C4434 C4433 1.387 . S
C4434 C4437 1.387 . S
H4435 C4431 0.950 . S
H4436 C4433 0.950 . S
C4437 C4428 1.390 . S
C4437 H4430 0.950 . S
C4437 C4434 1.387 . S
C4438 C4439 1.387 . S
C4438 H4442 0.950 . S
C4438 C4447 1.390 . S
C4439 C4438 1.387 . S
C4439 C4441 1.387 . S
H4440 C4447 0.950 . S
C4441 C4439 1.387 . S
C4441 C4443 1.390 . S
C4441 H4445 0.950 . S
H4442 C4438 0.950 . S
C4443 C4441 1.390 . S
C4443 C4444 1.387 . S
C4443 H4446 0.950 . S
C4444 C4443 1.387 . S
C4444 C4447 1.387 . S
H4445 C4441 0.950 . S
H4446 C4443 0.950 . S
C4447 C4438 1.390 . S
C4447 H4440 0.950 . S
C4447 C4444 1.387 . S
C4448 C4449 1.387 . S
C4448 H4452 0.950 . S
C4448 C4457 1.390 . S
C4449 C4448 1.387 . S
C4449 C4451 1.387 . S
H4450 C4457 0.950 . S
C4451 C4449 1.387 . S
C4451 C4453 1.390 . S
C4451 H4455 0.950 . S
H4452 C4448 0.950 . S
C4453 C4451 1.390 . S
C4453 C4454 1.387 . S
C4453 H4456 0.950 . S
C4454 C4453 1.387 . S
C4454 C4457 1.387 . S
H4455 C4451 0.950 . S
H4456 C4453 0.950 . S
C4457 C4448 1.390 . S
C4457 H4450 0.950 . S
C4457 C4454 1.387 . S
C4458 C4459 1.387 . S
C4458 H4462 0.950 . S
C4458 C4467 1.390 . S
C4459 C4458 1.387 . S
C4459 C4461 1.387 . S
H4460 C4467 0.950 . S
C4461 C4459 1.387 . S
C4461 C4463 1.390 . S
C4461 H4465 0.950 . S
H4462 C4458 0.950 . S
C4463 C4461 1.390 . S
C4463 C4464 1.387 . S
C4463 H4466 0.950 . S
C4464 C4463 1.387 . S
C4464 C4467 1.387 . S
H4465 C4461 0.950 . S
H4466 C4463 0.950 . S
C4467 C4458 1.390 . S
C4467 H4460 0.950 . S
C4467 C4464 1.387 . S
C4468 C4469 1.387 . S
C4468 H4472 0.950 . S
C4468 C4477 1.390 . S
C4469 C4468 1.387 . S
C4469 C4471 1.387 . S
H4470 C4477 0.950 . S
C4471 C4469 1.387 . S
C4471 C4473 1.390 . S
C4471 H4475 0.950 . S
H4472 C4468 0.950 . S
C4473 C4471 1.390 . S
C4473 C4474 1.387 . S
C4473 H4476 0.950 . S
C4474 C4473 1.387 . S
C4474 C4477 1.387 . S
H4475 C4471 0.950 . S
H4476 C4473 0.950 . S
C4477 C4468 1.390 . S
C4477 H4470 0.950 . S
C4477 C4474 1.387 . S
C4478 C4479 1.387 . S
C4478 H4482 0.950 . S
C4478 C4487 1.390 . S
C4479 C4478 1.387 . S
C4479 C4481 1.387 . S
H4480 C4487 0.950 . S
C4481 C4479 1.387 . S
C4481 C4483 1.390 . S
C4481 H4485 0.950 . S
H4482 C4478 0.950 . S
C4483 C4481 1.390 . S
C4483 C4484 1.387 . S
C4483 H4486 0.950 . S
C4484 C4483 1.387 . S
C4484 C4487 1.387 . S
H4485 C4481 0.950 . S
H4486 C4483 0.950 . S
C4487 C4478 1.390 . S
C4487 H4480 0.950 . S
C4487 C4484 1.387 . S
C4488 C4489 1.387 . S
C4488 H4492 0.950 . S
C4488 C4497 1.390 . S
C4489 C4488 1.387 . S
C4489 C4491 1.387 . S
H4490 C4497 0.950 . S
C4491 C4489 1.387 . S
C4491 C4493 1.390 . S
C4491 H4495 0.950 . S
H4492 C4488 0.950 . S
C4493 C4491 1.390 . S
C4493 C4494 1.387 . S
C4493 H4496 0.950 . S
C4494 C4493 1.387 . S
C4494 C4497 1.387 . S
H4495 C4491 0.950 . S
H4496 C4493 0.950 . S
C4497 C4488 1.390 . S
C4497 H4490 0.950 . S
C4497 C4494 1.387 . S
C4498 C4499 1.387 . S
C4498 H4502 0.950 . S
C4498 C4507 1.390 . S
C4499 C4498 1.387 . S
C4499 C4501 1.387 . S
H4500 C4507 0.950 . S
C4501 C4499 1.387 . S
C4501 C4503 1.390 . S
C4501 H4505 0.950 . S
H4502 C4498 0.950 . S
C4503 C4501 1.390 . S
C4503 C4504 1.387 . S
C4503 H4506 0.950 . S
C4504 C4503 1.387 . S
C4504 C4507 1.387 . S
H4505 C4501 0.950 . S
H4506 C4503 0.950 . S
C4507 C4498 1.390 . S
C4507 H4500 0.950 . S
C4507 C4504 1.387 . S
C4508 C4509 1.387 . S
C4508 H4512 0.950 . S
C4508 C4517 1.390 . S
C4509 C4508 1.387 . S
C4509 C4511 1.387 . S
H4510 C4517 0.950 . S
C4511 C4509 1.387 . S
C4511 C4513 1.390 . S
C4511 H4515 0.950 . S
H4512 C4508 0.950 . S
C4513 C4511 1.390 . S
C4513 C4514 1.387 . S
C4513 H4516 0.950 . S
C4514 C4513 1.387 . S
C4514 C4517 1.387 . S
H4515 C4511 0.950 . S
H4516 C4513 0.950 . S
C4517 C4508 1.390 . S
C4517 H4510 0.950 . S
C4517 C4514 1.387 . S
C4518 C4519 1.387 . S
C4518 H4522 0.950 . S
C4518 C4527 1.390 . S
C4519 C4518 1.387 . S
C4519 C4521 1.387 . S
H4520 C4527 0.950 . S
C4521 C4519 1.387 . S
C4521 C4523 1.390 . S
C4521 H4525 0.950 . S
H4522 C4518 0.950 . S
C4523 C4521 1.390 . S
C4523 C4524 1.387 . S
C4523 H4526 0.950 . S
C4524 C4523 1.387 . S
C4524 C4527 1.387 . S
H4525 C4521 0.950 . S
H4526 C4523 0.950 . S
C4527 C4518 1.390 . S
C4527 H4520 0.950 . S
C4527 C4524 1.387 . S
C4528 C4529 1.387 . S
C4528 H4532 0.950 . S
C4528 C4537 1.390 . S
C4529 C4528 1.387 . S
C4529 C4531 1.387 . S
H4530 C4537 0.950 . S
C4531 C4529 1.387 . S
C4531 C4533 1.390 . S
C4531 H4535 0.950 . S
H4532 C4528 0.950 . S
C4533 C4531 1.390 . S
C4533 C4534 1.387 . S
C4533 H4536 0.950 . S
C4534 C4533 1.387 . S
C4534 C4537 1.387 . S
H4535 C4531 0.950 . S
H4536 C4533 0.950 . S
C4537 C4528 1.390 . S
C4537 H4530 0.950 . S
C4537 C4534 1.387 . S
C4538 C4539 1.387 . S
C4538 H4542 0.950 . S
C4538 C4547 1.390 . S
C4539 C4538 1.387 . S
C4539 C4541 1.387 . S
H4540 C4547 0.950 . S
C4541 C4539 1.387 . S
C4541 C4543 1.390 . S
C4541 H4545 0.950 . S
H4542 C4538 0.950 . S
C4543 C4541 1.390 . S
C4543 C4544 1.387 . S
C4543 H4546 0.950 . S
C4544 C4543 1.387 . S
C4544 C4547 1.387 . S
H4545 C4541 0.950 . S
H4546 C4543 0.950 . S
C4547 C4538 1.390 . S
C4547 H4540 0.950 . S
C4547 C4544 1.387 . S
C4548 C4549 1.387 . S
C4548 H4552 0.950 . S
C4548 C4557 1.390 . S
C4549 C4548 1.387 . S
C4549 C4551 1.387 . S
H4550 C4557 0.950 . S
C4551 C4549 1.387 . S
C4551 C4553 1.390 . S
C4551 H4555 0.950 . S
H4552 C4548 0.950 . S
C4553 C4551 1.390 . S
C4553 C4554 1.387 . S
C4553 H4556 0.950 . S
C4554 C4553 1.387 . S
C4554 C4557 1.387 . S
H4555 C4551 0.950 . S
H4556 C4553 0.950 . S
C4557 C4548 1.390 . S
C4557 H4550 0.950 . S
C4557 C4554 1.387 . S
C4558 C4559 1.387 . S
C4558 H4562 0.950 . S
C4558 C4567 1.390 . S
C4559 C4558 1.387 . S
C4559 C4561 1.387 . S
H4560 C4567 0.950 . S
C4561 C4559 1.387 . S
C4561 C4563 1.390 . S
C4561 H4565 0.950 . S
H4562 C4558 0.950 . S
C4563 C4561 1.390 . S
C4563 C4564 1.387 . S
C4563 H4566 0.950 . S
C4564 C4563 1.387 . S
C4564 C4567 1.387 . S
H4565 C4561 0.950 . S
H4566 C4563 0.950 . S
C4567 C4558 1.390 . S
C4567 H4560 0.950 . S
C4567 C4564 1.387 . S
C4568 C4569 1.387 . S
C4568 H4572 0.950 . S
C4568 C4577 1.390 . S
C4569 C4568 1.387 . S
C4569 C4571 1.387 . S
H4570 C4577 0.950 . S
C4571 C4569 1.387 . S
C4571 C4573 1.390 . S
C4571 H4575 0.950 . S
H4572 C4568 0.950 . S
C4573 C4571 1.390 . S
C4573 C4574 1.387 . S
C4573 H4576 0.950 . S
C4574 C4573 1.387 . S
C4574 C4577 1.387 . S
H4575 C4571 0.950 . S
H4576 C4573 0.950 . S
C4577 C4568 1.390 . S
C4577 H4570 0.950 . S
C4577 C4574 1.387 . S
C4578 C4579 1.387 . S
C4578 H4582 0.950 . S
C4578 C4587 1.390 . S
C4579 C4578 1.387 . S
C4579 C4581 1.387 . S
H4580 C4587 0.950 . S
C4581 C4579 1.387 . S
C4581 C4583 1.390 . S
C4581 H4585 0.950 . S
H4582 C4578 0.950 . S
C4583 C4581 1.390 . S
C4583 C4584 1.387 . S
C4583 H4586 0.950 . S
C4584 C4583 1.387 . S
C4584 C4587 1.387 . S
H4585 C4581 0.950 . S
H4586 C4583 0.950 . S
C4587 C4578 1.390 . S
C4587 H4580 0.950 . S
C4587 C4584 1.387 . S
C4588 C4589 1.387 . S
C4588 H4592 0.950 . S
C4588 C4597 1.390 . S
C4589 C4588 1.387 . S
C4589 C4591 1.387 . S
H4590 C4597 0.950 . S
C4591 C4589 1.387 . S
C4591 C4593 1.390 . S
C4591 H4595 0.950 . S
H4592 C4588 0.950 . S
C4593 C4591 1.390 . S
C4593 C4594 1.387 . S
C4593 H4596 0.950 . S
C4594 C4593 1.387 . S
C4594 C4597 1.387 . S
H4595 C4591 0.950 . S
H4596 C4593 0.950 . S
C4597 C4588 1.390 . S
C4597 H4590 0.950 . S
C4597 C4594 1.387 . S
C4598 C4599 1.387 . S
C4598 H4602 0.950 . S
C4598 C4607 1.390 . S
C4599 C4598 1.387 . S
C4599 C4601 1.387 . S
H4600 C4607 0.950 . S
C4601 C4599 1.387 . S
C4601 C4603 1.390 . S
C4601 H4605 0.950 . S
H4602 C4598 0.950 . S
C4603 C4601 1.390 . S
C4603 C4604 1.387 . S
C4603 H4606 0.950 . S
C4604 C4603 1.387 . S
C4604 C4607 1.387 . S
H4605 C4601 0.950 . S
H4606 C4603 0.950 . S
C4607 C4598 1.390 . S
C4607 H4600 0.950 . S
C4607 C4604 1.387 . S
C4608 C4609 1.387 1_545 S
C4608 H4612 0.950 . S
C4608 C4617 1.390 . S
C4609 C4608 1.387 1_565 S
C4609 C4611 1.387 . S
H4610 C4617 0.950 . S
C4611 C4609 1.387 . S
C4611 C4613 1.390 1_565 S
C4611 H4615 0.950 . S
H4612 C4608 0.950 . S
C4613 C4611 1.390 1_545 S
C4613 C4614 1.387 . S
C4613 H4616 0.950 . S
C4614 C4613 1.387 . S
C4614 C4617 1.387 . S
H4615 C4611 0.950 . S
H4616 C4613 0.950 . S
C4617 C4608 1.390 . S
C4617 H4610 0.950 . S
C4617 C4614 1.387 . S
C4618 C4619 1.387 . S
C4618 H4622 0.950 . S
C4618 C4627 1.390 . S
C4619 C4618 1.387 . S
C4619 C4621 1.387 . S
H4620 C4627 0.950 1_455 S
C4621 C4619 1.387 . S
C4621 C4623 1.390 . S
C4621 H4625 0.950 . S
H4622 C4618 0.950 . S
C4623 C4621 1.390 . S
C4623 C4624 1.387 1_655 S
C4623 H4626 0.950 1_655 S
C4624 C4623 1.387 1_455 S
C4624 C4627 1.387 1_455 S
H4625 C4621 0.950 . S
H4626 C4623 0.950 1_455 S
C4627 C4618 1.390 . S
C4627 H4620 0.950 1_655 S
C4627 C4624 1.387 1_655 S
C4628 C4629 1.387 1_556 S
C4628 H4632 0.950 . S
C4628 C4637 1.390 1_556 S
C4629 C4628 1.387 1_554 S
C4629 C4631 1.387 . S
H4630 C4637 0.950 1_556 S
C4631 C4629 1.387 . S
C4631 C4633 1.390 . S
C4631 H4635 0.950 . S
H4632 C4628 0.950 . S
C4633 C4631 1.390 . S
C4633 C4634 1.387 . S
C4633 H4636 0.950 . S
C4634 C4633 1.387 . S
C4634 C4637 1.387 . S
H4635 C4631 0.950 . S
H4636 C4633 0.950 . S
C4637 C4628 1.390 1_554 S
C4637 H4630 0.950 1_554 S
C4637 C4634 1.387 . S
C4638 C4639 1.387 . S
C4638 H4642 0.950 . S
C4638 C4647 1.390 . S
C4639 C4638 1.387 . S
C4639 C4641 1.387 . S
H4640 C4647 0.950 . S
C4641 C4639 1.387 . S
C4641 C4643 1.390 . S
C4641 H4645 0.950 . S
H4642 C4638 0.950 . S
C4643 C4641 1.390 . S
C4643 C4644 1.387 . S
C4643 H4646 0.950 . S
C4644 C4643 1.387 . S
C4644 C4647 1.387 . S
H4645 C4641 0.950 . S
H4646 C4643 0.950 . S
C4647 C4638 1.390 . S
C4647 H4640 0.950 . S
C4647 C4644 1.387 . S
C4648 C4649 1.387 . S
C4648 H4652 0.950 . S
C4648 C4657 1.390 . S
C4649 C4648 1.387 . S
C4649 C4651 1.387 . S
H4650 C4657 0.950 . S
C4651 C4649 1.387 . S
C4651 C4653 1.390 . S
C4651 H4655 0.950 . S
H4652 C4648 0.950 . S
C4653 C4651 1.390 . S
C4653 C4654 1.387 . S
C4653 H4656 0.950 . S
C4654 C4653 1.387 . S
C4654 C4657 1.387 . S
H4655 C4651 0.950 . S
H4656 C4653 0.950 . S
C4657 C4648 1.390 . S
C4657 H4650 0.950 . S
C4657 C4654 1.387 . S
C4658 C4659 1.387 1_554 S
C4658 H4662 0.950 . S
C4658 C4667 1.390 1_554 S
C4659 C4658 1.387 1_556 S
C4659 C4661 1.387 . S
H4660 C4667 0.950 1_554 S
C4661 C4659 1.387 . S
C4661 C4663 1.390 . S
C4661 H4665 0.950 . S
H4662 C4658 0.950 . S
C4663 C4661 1.390 . S
C4663 C4664 1.387 . S
C4663 H4666 0.950 . S
C4664 C4663 1.387 . S
C4664 C4667 1.387 . S
H4665 C4661 0.950 . S
H4666 C4663 0.950 . S
C4667 C4658 1.390 1_556 S
C4667 H4660 0.950 1_556 S
C4667 C4664 1.387 . S
C4668 C4669 1.387 . S
C4668 H4672 0.950 . S
C4668 C4677 1.390 1_545 S
C4669 C4668 1.387 . S
C4669 C4671 1.387 . S
H4670 C4677 0.950 . S
C4671 C4669 1.387 . S
C4671 C4673 1.390 . S
C4671 H4675 0.950 . S
H4672 C4668 0.950 . S
C4673 C4671 1.390 . S
C4673 C4674 1.387 1_545 S
C4673 H4676 0.950 . S
C4674 C4673 1.387 1_565 S
C4674 C4677 1.387 . S
H4675 C4671 0.950 . S
H4676 C4673 0.950 . S
C4677 C4668 1.390 1_565 S
C4677 H4670 0.950 . S
C4677 C4674 1.387 . S
C4678 C4679 1.387 . S
C4678 H4682 0.950 . S
C4678 C4687 1.390 1_655 S
C4679 C4678 1.387 . S
C4679 C4681 1.387 . S
H4680 C4687 0.950 . S
C4681 C4679 1.387 . S
C4681 C4683 1.390 . S
C4681 H4685 0.950 . S
H4682 C4678 0.950 . S
C4683 C4681 1.390 . S
C4683 C4684 1.387 1_655 S
C4683 H4686 0.950 . S
C4684 C4683 1.387 1_455 S
C4684 C4687 1.387 . S
H4685 C4681 0.950 . S
H4686 C4683 0.950 . S
C4687 C4678 1.390 1_455 S
C4687 H4680 0.950 . S
C4687 C4684 1.387 . S
C4688 C4689 1.387 . S
C4688 H4692 0.950 . S
C4688 C4697 1.390 . S
C4689 C4688 1.387 . S
C4689 C4691 1.387 . S
H4690 C4697 0.950 . S
C4691 C4689 1.387 . S
C4691 C4693 1.390 1_554 S
C4691 H4695 0.950 . S
H4692 C4688 0.950 . S
C4693 C4691 1.390 1_556 S
C4693 C4694 1.387 . S
C4693 H4696 0.950 . S
C4694 C4693 1.387 . S
C4694 C4697 1.387 1_556 S
H4695 C4691 0.950 . S
H4696 C4693 0.950 . S
C4697 C4688 1.390 . S
C4697 H4690 0.950 . S
C4697 C4694 1.387 1_554 S
C4698 C4699 1.387 . S
C4698 H4702 0.950 . S
C4698 C4707 1.390 . S
C4699 C4698 1.387 . S
C4699 C4701 1.387 . S
H4700 C4707 0.950 . S
C4701 C4699 1.387 . S
C4701 C4703 1.390 . S
C4701 H4705 0.950 . S
H4702 C4698 0.950 . S
C4703 C4701 1.390 . S
C4703 C4704 1.387 . S
C4703 H4706 0.950 . S
C4704 C4703 1.387 . S
C4704 C4707 1.387 . S
H4705 C4701 0.950 . S
H4706 C4703 0.950 . S
C4707 C4698 1.390 . S
C4707 H4700 0.950 . S
C4707 C4704 1.387 . S
C4708 C4709 1.387 . S
C4708 H4712 0.950 . S
C4708 C4717 1.390 . S
C4709 C4708 1.387 . S
C4709 C4711 1.387 . S
H4710 C4717 0.950 . S
C4711 C4709 1.387 . S
C4711 C4713 1.390 . S
C4711 H4715 0.950 . S
H4712 C4708 0.950 . S
C4713 C4711 1.390 . S
C4713 C4714 1.387 . S
C4713 H4716 0.950 . S
C4714 C4713 1.387 . S
C4714 C4717 1.387 . S
H4715 C4711 0.950 . S
H4716 C4713 0.950 . S
C4717 C4708 1.390 . S
C4717 H4710 0.950 . S
C4717 C4714 1.387 . S
C4718 C4719 1.387 . S
C4718 H4722 0.950 . S
C4718 C4727 1.390 . S
C4719 C4718 1.387 . S
C4719 C4721 1.387 . S
H4720 C4727 0.950 . S
C4721 C4719 1.387 . S
C4721 C4723 1.390 . S
C4721 H4725 0.950 . S
H4722 C4718 0.950 . S
C4723 C4721 1.390 . S
C4723 C4724 1.387 . S
C4723 H4726 0.950 . S
C4724 C4723 1.387 . S
C4724 C4727 1.387 . S
H4725 C4721 0.950 . S
H4726 C4723 0.950 . S
C4727 C4718 1.390 . S
C4727 H4720 0.950 . S
C4727 C4724 1.387 . S
C4728 C4729 1.387 . S
C4728 H4732 0.950 . S
C4728 C4737 1.390 . S
C4729 C4728 1.387 . S
C4729 C4731 1.387 . S
H4730 C4737 0.950 . S
C4731 C4729 1.387 . S
C4731 C4733 1.390 . S
C4731 H4735 0.950 . S
H4732 C4728 0.950 . S
C4733 C4731 1.390 . S
C4733 C4734 1.387 . S
C4733 H4736 0.950 . S
C4734 C4733 1.387 . S
C4734 C4737 1.387 . S
H4735 C4731 0.950 . S
H4736 C4733 0.950 . S
C4737 C4728 1.390 . S
C4737 H4730 0.950 . S
C4737 C4734 1.387 . S
C4738 C4739 1.387 . S
C4738 H4742 0.950 . S
C4738 C4747 1.390 . S
C4739 C4738 1.387 . S
C4739 C4741 1.387 . S
H4740 C4747 0.950 . S
C4741 C4739 1.387 . S
C4741 C4743 1.390 . S
C4741 H4745 0.950 . S
H4742 C4738 0.950 . S
C4743 C4741 1.390 . S
C4743 C4744 1.387 . S
C4743 H4746 0.950 . S
C4744 C4743 1.387 . S
C4744 C4747 1.387 . S
H4745 C4741 0.950 . S
H4746 C4743 0.950 . S
C4747 C4738 1.390 . S
C4747 H4740 0.950 . S
C4747 C4744 1.387 . S
C4748 C4749 1.387 . S
C4748 H4752 0.950 . S
C4748 C4757 1.390 . S
C4749 C4748 1.387 . S
C4749 C4751 1.387 . S
H4750 C4757 0.950 . S
C4751 C4749 1.387 . S
C4751 C4753 1.390 . S
C4751 H4755 0.950 . S
H4752 C4748 0.950 . S
C4753 C4751 1.390 . S
C4753 C4754 1.387 . S
C4753 H4756 0.950 . S
C4754 C4753 1.387 . S
C4754 C4757 1.387 . S
H4755 C4751 0.950 . S
H4756 C4753 0.950 . S
C4757 C4748 1.390 . S
C4757 H4750 0.950 . S
C4757 C4754 1.387 . S
C4758 C4759 1.387 . S
C4758 H4762 0.950 . S
C4758 C4767 1.390 . S
C4759 C4758 1.387 . S
C4759 C4761 1.387 . S
H4760 C4767 0.950 . S
C4761 C4759 1.387 . S
C4761 C4763 1.366 1_556 S
C4761 H4765 0.950 . S
H4762 C4758 0.950 . S
C4763 C4761 1.366 1_554 S
C4763 C4764 1.395 . S
C4763 H4766 0.967 . S
C4764 C4763 1.395 . S
C4764 C4767 1.387 1_554 S
H4765 C4761 0.950 . S
H4766 C4763 0.967 . S
C4767 C4758 1.390 . S
C4767 H4760 0.950 . S
C4767 C4764 1.387 1_556 S
C4768 C4769 1.387 1_455 S
C4768 H4772 0.950 1_455 S
C4768 C4777 1.390 . S
C4769 C4768 1.387 1_655 S
C4769 C4771 1.387 1_655 S
H4770 C4777 0.950 . S
C4771 C4769 1.387 1_455 S
C4771 C4773 1.390 . S
C4771 H4775 0.948 1_455 S
H4772 C4768 0.950 1_655 S
C4773 C4771 1.390 . S
C4773 C4774 1.387 . S
C4773 H4776 0.950 . S
C4774 C4773 1.387 . S
C4774 C4777 1.387 . S
H4775 C4771 0.948 1_655 S
H4776 C4773 0.950 . S
C4777 C4768 1.390 . S
C4777 H4770 0.950 . S
C4777 C4774 1.387 . S
C4778 C4779 1.387 . S
C4778 H4782 0.950 . S
C4778 C4787 1.390 . S
C4779 C4778 1.387 . S
C4779 C4781 1.387 . S
H4780 C4787 0.950 . S
C4781 C4779 1.387 . S
C4781 C4783 1.390 . S
C4781 H4785 0.950 . S
H4782 C4778 0.950 . S
C4783 C4781 1.390 . S
C4783 C4784 1.387 . S
C4783 H4786 0.950 . S
C4784 C4783 1.387 . S
C4784 C4787 1.387 . S
H4785 C4781 0.950 . S
H4786 C4783 0.950 . S
C4787 C4778 1.390 . S
C4787 H4780 0.950 . S
C4787 C4784 1.387 . S
C4788 C4789 1.387 . S
C4788 H4792 0.950 . S
C4788 C4797 1.390 . S
C4789 C4788 1.387 . S
C4789 C4791 1.387 . S
H4790 C4797 0.950 . S
C4791 C4789 1.387 . S
C4791 C4793 1.390 . S
C4791 H4795 0.950 . S
H4792 C4788 0.950 . S
C4793 C4791 1.390 . S
C4793 C4794 1.387 . S
C4793 H4796 0.950 . S
C4794 C4793 1.387 . S
C4794 C4797 1.387 . S
H4795 C4791 0.950 . S
H4796 C4793 0.950 . S
C4797 C4788 1.390 . S
C4797 H4790 0.950 . S
C4797 C4794 1.387 . S
C4798 C4799 1.387 . S
C4798 H4802 0.950 . S
C4798 C4807 1.390 . S
C4799 C4798 1.387 . S
C4799 C4801 1.387 . S
H4800 C4807 0.950 . S
C4801 C4799 1.387 . S
C4801 C4803 1.390 . S
C4801 H4805 0.950 . S
H4802 C4798 0.950 . S
C4803 C4801 1.390 . S
C4803 C4804 1.387 . S
C4803 H4806 0.950 1_545 S
C4804 C4803 1.387 . S
C4804 C4807 1.387 . S
H4805 C4801 0.950 . S
H4806 C4803 0.950 1_565 S
C4807 C4798 1.390 . S
C4807 H4800 0.950 . S
C4807 C4804 1.387 . S
C4808 C4809 1.387 . S
C4808 H4812 0.950 . S
C4808 C4817 1.390 . S
C4809 C4808 1.387 . S
C4809 C4811 1.387 . S
H4810 C4817 0.950 . S
C4811 C4809 1.387 . S
C4811 C4813 1.390 . S
C4811 H4815 0.950 . S
H4812 C4808 0.950 . S
C4813 C4811 1.390 . S
C4813 C4814 1.387 . S
C4813 H4816 0.950 . S
C4814 C4813 1.387 . S
C4814 C4817 1.387 . S
H4815 C4811 0.950 . S
H4816 C4813 0.950 . S
C4817 C4808 1.390 . S
C4817 H4810 0.950 . S
C4817 C4814 1.387 . S
C4818 C4819 1.387 . S
C4818 H4822 0.950 . S
C4818 C4827 1.390 . S
C4819 C4818 1.387 . S
C4819 C4821 1.387 . S
H4820 C4827 0.950 . S
C4821 C4819 1.387 . S
C4821 C4823 1.390 . S
C4821 H4825 0.950 . S
H4822 C4818 0.950 . S
C4823 C4821 1.390 . S
C4823 C4824 1.387 . S
C4823 H4826 0.950 . S
C4824 C4823 1.387 . S
C4824 C4827 1.387 . S
H4825 C4821 0.950 . S
H4826 C4823 0.950 . S
C4827 C4818 1.390 . S
C4827 H4820 0.950 . S
C4827 C4824 1.387 . S
C4828 C4829 1.387 . S
C4828 H4832 0.950 . S
C4828 C4837 1.390 1_565 S
C4829 C4828 1.387 . S
C4829 C4831 1.387 . S
H4830 C4837 0.950 . S
C4831 C4829 1.387 . S
C4831 C4833 1.390 . S
C4831 H4835 0.950 . S
H4832 C4828 0.950 . S
C4833 C4831 1.390 . S
C4833 C4834 1.387 1_565 S
C4833 H4836 0.950 . S
C4834 C4833 1.387 1_545 S
C4834 C4837 1.387 . S
H4835 C4831 0.950 . S
H4836 C4833 0.950 . S
C4837 C4828 1.390 1_545 S
C4837 H4830 0.950 . S
C4837 C4834 1.387 . S
C4838 C4839 1.387 . S
C4838 H4842 0.950 . S
C4838 C4847 1.390 . S
C4839 C4838 1.387 . S
C4839 C4841 1.387 . S
H4840 C4847 0.950 . S
C4841 C4839 1.387 . S
C4841 C4843 1.390 . S
C4841 H4845 0.950 1_655 S
H4842 C4838 0.950 . S
C4843 C4841 1.390 . S
C4843 C4844 1.387 . S
C4843 H4846 0.950 . S
C4844 C4843 1.387 . S
C4844 C4847 1.387 . S
H4845 C4841 0.950 1_455 S
H4846 C4843 0.950 . S
C4847 C4838 1.390 . S
C4847 H4840 0.950 . S
C4847 C4844 1.387 . S
C4848 C4849 1.387 . S
C4848 H4852 0.950 . S
C4848 C4857 1.390 . S
C4849 C4848 1.387 . S
C4849 C4851 1.387 . S
H4850 C4857 0.950 . S
C4851 C4849 1.387 . S
C4851 C4853 1.390 1_565 S
C4851 H4855 0.950 1_565 S
H4852 C4848 0.950 . S
C4853 C4851 1.390 1_545 S
C4853 C4854 1.387 1_545 S
C4853 H4856 0.950 . S
C4854 C4853 1.387 1_565 S
C4854 C4857 1.387 . S
H4855 C4851 0.950 1_545 S
H4856 C4853 0.950 . S
C4857 C4848 1.390 . S
C4857 H4850 0.950 . S
C4857 C4854 1.387 . S
C4858 C4859 1.387 . S
C4858 H4862 0.950 . S
C4858 C4867 1.390 . S
C4859 C4858 1.387 . S
C4859 C4861 1.387 . S
H4860 C4867 0.950 . S
C4861 C4859 1.387 . S
C4861 C4863 1.390 1_455 S
C4861 H4865 0.950 . S
H4862 C4858 0.950 . S
C4863 C4861 1.390 1_655 S
C4863 C4864 1.387 1_655 S
C4863 H4866 0.950 . S
C4864 C4863 1.387 1_455 S
C4864 C4867 1.387 . S
H4865 C4861 0.950 . S
H4866 C4863 0.950 . S
C4867 C4858 1.390 . S
C4867 H4860 0.950 . S
C4867 C4864 1.387 . S
C4868 C4869 1.387 . S
C4868 H4872 0.950 . S
C4868 C4877 1.390 1_554 S
C4869 C4868 1.387 . S
C4869 C4871 1.387 1_554 S
H4870 C4877 0.950 . S
C4871 C4869 1.387 1_556 S
C4871 C4873 1.390 . S
C4871 H4875 0.950 . S
H4872 C4868 0.950 . S
C4873 C4871 1.390 . S
C4873 C4874 1.387 . S
C4873 H4876 0.950 . S
C4874 C4873 1.387 . S
C4874 C4877 1.387 . S
H4875 C4871 0.950 . S
H4876 C4873 0.950 . S
C4877 C4868 1.390 1_556 S
C4877 H4870 0.950 . S
C4877 C4874 1.387 . S
C4878 C4879 1.387 . S
C4878 H4882 0.950 . S
C4878 C4887 1.390 . S
C4879 C4878 1.387 . S
C4879 C4881 1.387 . S
H4880 C4887 0.950 . S
C4881 C4879 1.387 . S
C4881 C4883 1.390 1_554 S
C4881 H4885 0.950 . S
H4882 C4878 0.950 . S
C4883 C4881 1.390 1_556 S
C4883 C4884 1.387 . S
C4883 H4886 0.950 . S
C4884 C4883 1.387 . S
C4884 C4887 1.387 1_556 S
H4885 C4881 0.950 . S
H4886 C4883 0.950 . S
C4887 C4878 1.390 . S
C4887 H4880 0.950 . S
C4887 C4884 1.387 1_554 S
C4888 C4889 1.387 . S
C4888 H4892 0.950 . S
C4888 C4897 1.390 . S
C4889 C4888 1.387 . S
C4889 C4891 1.387 . S
H4890 C4897 0.950 . S
C4891 C4889 1.387 . S
C4891 C4893 1.390 1_565 S
C4891 H4895 0.950 1_565 S
H4892 C4888 0.950 . S
C4893 C4891 1.390 1_545 S
C4893 C4894 1.387 1_545 S
C4893 H4896 0.950 . S
C4894 C4893 1.387 1_565 S
C4894 C4897 1.387 . S
H4895 C4891 0.950 1_545 S
H4896 C4893 0.950 . S
C4897 C4888 1.390 . S
C4897 H4890 0.950 . S
C4897 C4894 1.387 . S
C4898 C4899 1.387 . S
C4898 H4902 0.950 . S
C4898 C4907 1.390 . S
C4899 C4898 1.387 . S
C4899 C4901 1.387 . S
H4900 C4907 0.950 . S
C4901 C4899 1.387 . S
C4901 C4903 1.390 1_455 S
C4901 H4905 0.950 . S
H4902 C4898 0.950 . S
C4903 C4901 1.390 1_655 S
C4903 C4904 1.387 1_655 S
C4903 H4906 0.950 . S
C4904 C4903 1.387 1_455 S
C4904 C4907 1.387 . S
H4905 C4901 0.950 . S
H4906 C4903 0.950 . S
C4907 C4898 1.390 . S
C4907 H4900 0.950 . S
C4907 C4904 1.387 . S
C4908 C4909 1.387 . S
C4908 H4912 0.950 . S
C4908 C4917 1.390 . S
C4909 C4908 1.387 . S
C4909 C4911 1.387 1_556 S
H4910 C4917 0.950 . S
C4911 C4909 1.387 1_554 S
C4911 C4913 1.390 1_554 S
C4911 H4915 0.950 . S
H4912 C4908 0.950 . S
C4913 C4911 1.390 1_556 S
C4913 C4914 1.387 . S
C4913 H4916 0.950 1_556 S
C4914 C4913 1.387 . S
C4914 C4917 1.387 . S
H4915 C4911 0.950 . S
H4916 C4913 0.950 1_554 S
C4917 C4908 1.390 . S
C4917 H4910 0.950 . S
C4917 C4914 1.387 . S
C4918 C4919 1.387 . S
C4918 H4922 0.950 . S
C4918 C4927 1.390 . S
C4919 C4918 1.387 . S
C4919 C4921 1.387 . S
H4920 C4927 0.950 . S
C4921 C4919 1.387 . S
C4921 C4923 1.390 . S
C4921 H4925 0.950 . S
H4922 C4918 0.950 . S
C4923 C4921 1.390 . S
C4923 C4924 1.387 . S
C4923 H4926 0.950 . S
C4924 C4923 1.387 . S
C4924 C4927 1.387 . S
H4925 C4921 0.950 . S
H4926 C4923 0.950 . S
C4927 C4918 1.390 . S
C4927 H4920 0.950 . S
C4927 C4924 1.387 . S
C4928 C4929 1.387 . S
C4928 H4932 0.950 . S
C4928 C4937 1.390 . S
C4929 C4928 1.387 . S
C4929 C4931 1.387 . S
H4930 C4937 0.950 . S
C4931 C4929 1.387 . S
C4931 C4933 1.390 . S
C4931 H4935 0.950 . S
H4932 C4928 0.950 . S
C4933 C4931 1.390 . S
C4933 C4934 1.387 . S
C4933 H4936 0.950 . S
C4934 C4933 1.387 . S
C4934 C4937 1.387 . S
H4935 C4931 0.950 . S
H4936 C4933 0.950 . S
C4937 C4928 1.390 . S
C4937 H4930 0.950 . S
C4937 C4934 1.387 . S
C4938 C4939 1.387 . S
C4938 H4942 0.950 . S
C4938 C4947 1.390 . S
C4939 C4938 1.387 . S
C4939 C4941 1.387 . S
H4940 C4947 0.950 . S
C4941 C4939 1.387 . S
C4941 C4943 1.390 . S
C4941 H4945 0.950 . S
H4942 C4938 0.950 . S
C4943 C4941 1.390 . S
C4943 C4944 1.387 . S
C4943 H4946 0.950 . S
C4944 C4943 1.387 . S
C4944 C4947 1.387 . S
H4945 C4941 0.950 . S
H4946 C4943 0.950 . S
C4947 C4938 1.390 . S
C4947 H4940 0.950 . S
C4947 C4944 1.387 . S
C4948 C4949 1.387 . S
C4948 H4952 0.950 . S
C4948 C4957 1.390 . S
C4949 C4948 1.387 . S
C4949 C4951 1.387 . S
H4950 C4957 0.950 . S
C4951 C4949 1.387 . S
C4951 C4953 1.390 . S
C4951 H4955 0.950 . S
H4952 C4948 0.950 . S
C4953 C4951 1.390 . S
C4953 C4954 1.387 . S
C4953 H4956 0.950 . S
C4954 C4953 1.387 . S
C4954 C4957 1.387 . S
H4955 C4951 0.950 . S
H4956 C4953 0.950 . S
C4957 C4948 1.390 . S
C4957 H4950 0.950 . S
C4957 C4954 1.387 . S
C4958 C4959 1.387 1_556 S
C4958 H4962 0.950 . S
C4958 C4967 1.390 1_556 S
C4959 C4958 1.387 1_554 S
C4959 C4961 1.387 . S
H4960 C4967 0.950 1_556 S
C4961 C4959 1.387 . S
C4961 C4963 1.390 . S
C4961 H4965 0.950 . S
H4962 C4958 0.950 . S
C4963 C4961 1.390 . S
C4963 C4964 1.387 . S
C4963 H4966 0.950 . S
C4964 C4963 1.387 . S
C4964 C4967 1.387 . S
H4965 C4961 0.950 . S
H4966 C4963 0.950 . S
C4967 C4958 1.390 1_554 S
C4967 H4960 0.950 1_554 S
C4967 C4964 1.387 . S
C4968 C4969 1.387 . S
C4968 H4972 0.950 . S
C4968 C4977 1.390 . S
C4969 C4968 1.387 . S
C4969 C4971 1.387 . S
H4970 C4977 0.950 . S
C4971 C4969 1.387 . S
C4971 C4973 1.390 . S
C4971 H4975 0.950 . S
H4972 C4968 0.950 . S
C4973 C4971 1.390 . S
C4973 C4974 1.387 . S
C4973 H4976 0.950 . S
C4974 C4973 1.387 . S
C4974 C4977 1.387 . S
H4975 C4971 0.950 . S
H4976 C4973 0.950 . S
C4977 C4968 1.390 . S
C4977 H4970 0.950 . S
C4977 C4974 1.387 . S
C4978 C4979 1.387 . S
C4978 H4982 0.950 . S
C4978 C4987 1.390 . S
C4979 C4978 1.387 . S
C4979 C4981 1.387 . S
H4980 C4987 0.950 . S
C4981 C4979 1.387 . S
C4981 C4983 1.390 . S
C4981 H4985 0.950 . S
H4982 C4978 0.950 . S
C4983 C4981 1.390 . S
C4983 C4984 1.387 . S
C4983 H4986 0.950 . S
C4984 C4983 1.387 . S
C4984 C4987 1.387 . S
H4985 C4981 0.950 . S
H4986 C4983 0.950 . S
C4987 C4978 1.390 . S
C4987 H4980 0.950 . S
C4987 C4984 1.387 . S
C4988 C4989 1.387 . S
C4988 H4992 0.950 . S
C4988 C4997 1.390 . S
C4989 C4988 1.387 . S
C4989 C4991 1.387 . S
H4990 C4997 0.950 . S
C4991 C4989 1.387 . S
C4991 C4993 1.390 . S
C4991 H4995 0.950 . S
H4992 C4988 0.950 . S
C4993 C4991 1.390 . S
C4993 C4994 1.387 . S
C4993 H4996 0.950 . S
C4994 C4993 1.387 . S
C4994 C4997 1.387 . S
H4995 C4991 0.950 . S
H4996 C4993 0.950 . S
C4997 C4988 1.390 . S
C4997 H4990 0.950 . S
C4997 C4994 1.387 . S
C4998 C4999 1.387 . S
C4998 H5002 0.950 . S
C4998 C5007 1.390 . S
C4999 C4998 1.387 . S
C4999 C5001 1.387 . S
H5000 C5007 0.950 . S
C5001 C4999 1.387 . S
C5001 C5003 1.390 . S
C5001 H5005 0.950 . S
H5002 C4998 0.950 . S
C5003 C5001 1.390 . S
C5003 C5004 1.387 . S
C5003 H5006 0.950 . S
C5004 C5003 1.387 . S
C5004 C5007 1.387 . S
H5005 C5001 0.950 . S
H5006 C5003 0.950 . S
C5007 C4998 1.390 . S
C5007 H5000 0.950 . S
C5007 C5004 1.387 . S
C5008 C5009 1.387 . S
C5008 H5012 0.950 . S
C5008 C5017 1.390 . S
C5009 C5008 1.387 . S
C5009 C5011 1.387 . S
H5010 C5017 0.950 . S
C5011 C5009 1.387 . S
C5011 C5013 1.390 . S
C5011 H5015 0.950 . S
H5012 C5008 0.950 . S
C5013 C5011 1.390 . S
C5013 C5014 1.387 . S
C5013 H5016 0.950 . S
C5014 C5013 1.387 . S
C5014 C5017 1.387 . S
H5015 C5011 0.950 . S
H5016 C5013 0.950 . S
C5017 C5008 1.390 . S
C5017 H5010 0.950 . S
C5017 C5014 1.387 . S
C5018 C5019 1.387 1_455 S
C5018 H5022 0.950 1_455 S
C5018 C5027 1.390 . S
C5019 C5018 1.387 1_655 S
C5019 C5021 1.387 1_655 S
H5020 C5027 0.950 . S
C5021 C5019 1.387 1_455 S
C5021 C5023 1.390 . S
C5021 H5025 0.949 1_455 S
H5022 C5018 0.950 1_655 S
C5023 C5021 1.390 . S
C5023 C5024 1.387 . S
C5023 H5026 0.950 . S
C5024 C5023 1.387 . S
C5024 C5027 1.387 . S
H5025 C5021 0.949 1_655 S
H5026 C5023 0.950 . S
C5027 C5018 1.390 . S
C5027 H5020 0.950 . S
C5027 C5024 1.387 . S
C5028 C5029 1.387 . S
C5028 H5032 0.950 . S
C5028 C5037 1.390 . S
C5029 C5028 1.387 . S
C5029 C5031 1.387 . S
H5030 C5037 0.950 . S
C5031 C5029 1.387 . S
C5031 C5033 1.390 1_655 S
C5031 H5035 0.950 . S
H5032 C5028 0.950 . S
C5033 C5031 1.390 1_455 S
C5033 C5034 1.387 . S
C5033 H5036 0.950 . S
C5034 C5033 1.387 . S
C5034 C5037 1.387 1_455 S
H5035 C5031 0.950 . S
H5036 C5033 0.950 . S
C5037 C5028 1.390 . S
C5037 H5030 0.950 . S
C5037 C5034 1.387 1_655 S
C5038 C5039 1.387 . S
C5038 H5042 0.950 . S
C5038 C5047 1.390 . S
C5039 C5038 1.387 . S
C5039 C5041 1.387 . S
H5040 C5047 0.950 . S
C5041 C5039 1.387 . S
C5041 C5043 1.390 . S
C5041 H5045 0.950 . S
H5042 C5038 0.950 . S
C5043 C5041 1.390 . S
C5043 C5044 1.387 . S
C5043 H5046 0.950 . S
C5044 C5043 1.387 . S
C5044 C5047 1.387 . S
H5045 C5041 0.950 . S
H5046 C5043 0.950 . S
C5047 C5038 1.390 . S
C5047 H5040 0.950 . S
C5047 C5044 1.387 . S
C5048 C5049 1.387 . S
C5048 H5052 0.950 . S
C5048 C5057 1.390 . S
C5049 C5048 1.387 . S
C5049 C5051 1.387 . S
H5050 C5057 0.950 . S
C5051 C5049 1.387 . S
C5051 C5053 1.390 . S
C5051 H5055 0.950 . S
H5052 C5048 0.950 . S
C5053 C5051 1.390 . S
C5053 C5054 1.387 . S
C5053 H5056 0.950 . S
C5054 C5053 1.387 . S
C5054 C5057 1.387 . S
H5055 C5051 0.950 . S
H5056 C5053 0.950 . S
C5057 C5048 1.390 . S
C5057 H5050 0.950 . S
C5057 C5054 1.387 . S
C5058 C5059 1.387 . S
C5058 H5062 0.950 . S
C5058 C5067 1.390 . S
C5059 C5058 1.387 . S
C5059 C5061 1.387 . S
H5060 C5067 0.950 . S
C5061 C5059 1.387 . S
C5061 C5063 1.390 . S
C5061 H5065 0.950 . S
H5062 C5058 0.950 . S
C5063 C5061 1.390 . S
C5063 C5064 1.387 . S
C5063 H5066 0.950 . S
C5064 C5063 1.387 . S
C5064 C5067 1.387 . S
H5065 C5061 0.950 . S
H5066 C5063 0.950 . S
C5067 C5058 1.390 . S
C5067 H5060 0.950 . S
C5067 C5064 1.387 . S
C5068 C5069 1.387 . S
C5068 H5072 0.950 . S
C5068 C5077 1.390 . S
C5069 C5068 1.387 . S
C5069 C5071 1.387 . S
H5070 C5077 0.950 . S
C5071 C5069 1.387 . S
C5071 C5073 1.390 . S
C5071 H5075 0.950 . S
H5072 C5068 0.950 . S
C5073 C5071 1.390 . S
C5073 C5074 1.387 . S
C5073 H5076 0.950 . S
C5074 C5073 1.387 . S
C5074 C5077 1.387 . S
H5075 C5071 0.950 . S
H5076 C5073 0.950 . S
C5077 C5068 1.390 . S
C5077 H5070 0.950 . S
C5077 C5074 1.387 . S
C5078 C5079 1.402 . S
C5078 H5082 0.967 1_556 S
C5078 C5087 1.341 1_456 S
C5079 C5078 1.402 . S
C5079 C5081 1.387 1_455 S
H5080 C5087 0.950 . S
C5081 C5079 1.387 1_655 S
C5081 C5083 1.390 . S
C5081 H5085 0.950 . S
H5082 C5078 0.967 1_554 S
C5083 C5081 1.390 . S
C5083 C5084 1.387 . S
C5083 H5086 0.950 . S
C5084 C5083 1.387 . S
C5084 C5087 1.387 1_556 S
H5085 C5081 0.950 . S
H5086 C5083 0.950 . S
C5087 C5078 1.341 1_654 S
C5087 H5080 0.950 . S
C5087 C5084 1.387 1_554 S
C5088 C5089 1.387 . S
C5088 H5092 0.950 . S
C5088 C5097 1.390 . S
C5089 C5088 1.387 . S
C5089 C5091 1.387 . S
H5090 C5097 0.950 . S
C5091 C5089 1.387 . S
C5091 C5093 1.390 . S
C5091 H5095 0.950 . S
H5092 C5088 0.950 . S
C5093 C5091 1.390 . S
C5093 C5094 1.387 . S
C5093 H5096 0.950 . S
C5094 C5093 1.387 . S
C5094 C5097 1.387 . S
H5095 C5091 0.950 . S
H5096 C5093 0.950 . S
C5097 C5088 1.390 . S
C5097 H5090 0.950 . S
C5097 C5094 1.387 . S
C5098 C5099 1.387 . S
C5098 H5102 0.950 . S
C5098 C5107 1.390 . S
C5099 C5098 1.387 . S
C5099 C5101 1.387 . S
H5100 C5107 0.950 . S
C5101 C5099 1.387 . S
C5101 C5103 1.390 . S
C5101 H5105 0.950 . S
H5102 C5098 0.950 . S
C5103 C5101 1.390 . S
C5103 C5104 1.387 . S
C5103 H5106 0.950 . S
C5104 C5103 1.387 . S
C5104 C5107 1.387 . S
H5105 C5101 0.950 . S
H5106 C5103 0.950 . S
C5107 C5098 1.390 . S
C5107 H5100 0.950 . S
C5107 C5104 1.387 . S
C5108 C5109 1.387 1_545 S
C5108 H5112 0.950 . S
C5108 C5117 1.390 1_545 S
C5109 C5108 1.387 1_565 S
C5109 C5111 1.387 . S
H5110 C5117 0.950 . S
C5111 C5109 1.387 . S
C5111 C5113 1.390 . S
C5111 H5115 0.950 . S
H5112 C5108 0.950 . S
C5113 C5111 1.390 . S
C5113 C5114 1.387 . S
C5113 H5116 0.950 . S
C5114 C5113 1.387 . S
C5114 C5117 1.387 . S
H5115 C5111 0.950 . S
H5116 C5113 0.950 . S
C5117 C5108 1.390 1_565 S
C5117 H5110 0.950 . S
C5117 C5114 1.387 . S
C5118 C5119 1.387 . S
C5118 H5122 0.950 . S
C5118 C5127 1.390 . S
C5119 C5118 1.387 . S
C5119 C5121 1.387 . S
H5120 C5127 0.950 . S
C5121 C5119 1.387 . S
C5121 C5123 1.390 . S
C5121 H5125 0.950 . S
H5122 C5118 0.950 . S
C5123 C5121 1.390 . S
C5123 C5124 1.387 . S
C5123 H5126 0.950 . S
C5124 C5123 1.387 . S
C5124 C5127 1.387 . S
H5125 C5121 0.950 . S
H5126 C5123 0.950 . S
C5127 C5118 1.390 . S
C5127 H5120 0.950 . S
C5127 C5124 1.387 . S
C5128 C5129 1.387 . S
C5128 H5132 0.950 . S
C5128 C5137 1.390 1_554 S
C5129 C5128 1.387 . S
C5129 C5131 1.387 1_554 S
H5130 C5137 0.950 . S
C5131 C5129 1.387 1_556 S
C5131 C5133 1.390 . S
C5131 H5135 0.950 . S
H5132 C5128 0.950 . S
C5133 C5131 1.390 . S
C5133 C5134 1.387 . S
C5133 H5136 0.950 . S
C5134 C5133 1.387 . S
C5134 C5137 1.387 . S
H5135 C5131 0.950 . S
H5136 C5133 0.950 . S
C5137 C5128 1.390 1_556 S
C5137 H5130 0.950 . S
C5137 C5134 1.387 . S
C5138 C5139 1.387 . S
C5138 H5142 0.950 . S
C5138 C5147 1.390 . S
C5139 C5138 1.387 . S
C5139 C5141 1.387 . S
H5140 C5147 0.950 . S
C5141 C5139 1.387 . S
C5141 C5143 1.390 . S
C5141 H5145 0.950 . S
H5142 C5138 0.950 . S
C5143 C5141 1.390 . S
C5143 C5144 1.387 . S
C5143 H5146 0.950 . S
C5144 C5143 1.387 . S
C5144 C5147 1.387 . S
H5145 C5141 0.950 . S
H5146 C5143 0.950 . S
C5147 C5138 1.390 . S
C5147 H5140 0.950 . S
C5147 C5144 1.387 . S
C5148 C5149 1.387 1_565 S
C5148 H5152 0.950 . S
C5148 C5157 1.390 1_465 S
C5149 C5148 1.387 1_545 S
C5149 C5151 1.387 . S
H5150 C5157 0.950 1_565 S
C5151 C5149 1.387 . S
C5151 C5153 1.390 . S
C5151 H5155 0.950 . S
H5152 C5148 0.950 . S
C5153 C5151 1.390 . S
C5153 C5154 1.387 1_455 S
C5153 H5156 0.950 . S
C5154 C5153 1.387 1_655 S
C5154 C5157 1.387 . S
H5155 C5151 0.950 . S
H5156 C5153 0.950 . S
C5157 C5148 1.390 1_645 S
C5157 H5150 0.950 1_545 S
C5157 C5154 1.387 . S
C5158 C5159 1.387 . S
C5158 H5162 0.950 . S
C5158 C5167 1.390 . S
C5159 C5158 1.387 . S
C5159 C5161 1.387 . S
H5160 C5167 0.950 . S
C5161 C5159 1.387 . S
C5161 C5163 1.390 . S
C5161 H5165 0.950 . S
H5162 C5158 0.950 . S
C5163 C5161 1.390 . S
C5163 C5164 1.387 . S
C5163 H5166 0.950 . S
C5164 C5163 1.387 . S
C5164 C5167 1.387 . S
H5165 C5161 0.950 . S
H5166 C5163 0.950 . S
C5167 C5158 1.390 . S
C5167 H5160 0.950 . S
C5167 C5164 1.387 . S
C5168 C5169 1.387 . S
C5168 H5172 0.950 . S
C5168 C5177 1.390 . S
C5169 C5168 1.387 . S
C5169 C5171 1.387 . S
H5170 C5177 0.950 . S
C5171 C5169 1.387 . S
C5171 C5173 1.390 . S
C5171 H5175 0.950 . S
H5172 C5168 0.950 . S
C5173 C5171 1.390 . S
C5173 C5174 1.387 . S
C5173 H5176 0.950 . S
C5174 C5173 1.387 . S
C5174 C5177 1.387 . S
H5175 C5171 0.950 . S
H5176 C5173 0.950 . S
C5177 C5168 1.390 . S
C5177 H5170 0.950 . S
C5177 C5174 1.387 . S
C5178 C5179 1.387 . S
C5178 H5182 0.950 . S
C5178 C5187 1.390 . S
C5179 C5178 1.387 . S
C5179 C5181 1.387 . S
H5180 C5187 0.950 . S
C5181 C5179 1.387 . S
C5181 C5183 1.390 1_565 S
C5181 H5185 0.950 . S
H5182 C5178 0.950 . S
C5183 C5181 1.390 1_545 S
C5183 C5184 1.387 . S
C5183 H5186 0.950 . S
C5184 C5183 1.387 . S
C5184 C5187 1.387 1_545 S
H5185 C5181 0.950 . S
H5186 C5183 0.950 . S
C5187 C5178 1.390 . S
C5187 H5180 0.950 . S
C5187 C5184 1.387 1_565 S
C5188 C5189 1.387 . S
C5188 H5192 0.950 . S
C5188 C5197 1.390 . S
C5189 C5188 1.387 . S
C5189 C5191 1.387 . S
H5190 C5197 0.950 . S
C5191 C5189 1.387 . S
C5191 C5193 1.390 . S
C5191 H5195 0.950 . S
H5192 C5188 0.950 . S
C5193 C5191 1.390 . S
C5193 C5194 1.387 . S
C5193 H5196 0.950 . S
C5194 C5193 1.387 . S
C5194 C5197 1.387 . S
H5195 C5191 0.950 . S
H5196 C5193 0.950 . S
C5197 C5188 1.390 . S
C5197 H5190 0.950 . S
C5197 C5194 1.387 . S
C5198 C5199 1.387 . S
C5198 H5202 0.950 . S
C5198 C5207 1.390 . S
C5199 C5198 1.387 . S
C5199 C5201 1.387 . S
H5200 C5207 0.950 . S
C5201 C5199 1.387 . S
C5201 C5203 1.390 . S
C5201 H5205 0.949 . S
H5202 C5198 0.950 . S
C5203 C5201 1.390 . S
C5203 C5204 1.387 . S
C5203 H5206 0.950 . S
C5204 C5203 1.387 . S
C5204 C5207 1.387 . S
H5205 C5201 0.949 . S
H5206 C5203 0.950 . S
C5207 C5198 1.390 . S
C5207 H5200 0.950 . S
C5207 C5204 1.387 . S
C5208 C5209 1.387 . S
C5208 H5212 0.950 . S
C5208 C5217 1.390 . S
C5209 C5208 1.387 . S
C5209 C5211 1.387 . S
H5210 C5217 0.950 . S
C5211 C5209 1.387 . S
C5211 C5213 1.388 . S
C5211 H5215 0.950 . S
H5212 C5208 0.950 . S
C5213 C5211 1.388 . S
C5213 C5214 1.387 . S
C5213 H5216 0.952 1_455 S
C5214 C5213 1.387 . S
C5214 C5217 1.387 . S
H5215 C5211 0.950 . S
H5216 C5213 0.952 1_655 S
C5217 C5208 1.390 . S
C5217 H5210 0.950 . S
C5217 C5214 1.387 . S
C5218 C5219 1.387 . S
C5218 H5222 0.950 . S
C5218 C5227 1.390 . S
C5219 C5218 1.387 . S
C5219 C5221 1.387 . S
H5220 C5227 0.950 . S
C5221 C5219 1.387 . S
C5221 C5223 1.390 . S
C5221 H5225 0.950 . S
H5222 C5218 0.950 . S
C5223 C5221 1.390 . S
C5223 C5224 1.387 . S
C5223 H5226 0.950 . S
C5224 C5223 1.387 . S
C5224 C5227 1.387 . S
H5225 C5221 0.950 . S
H5226 C5223 0.950 . S
C5227 C5218 1.390 . S
C5227 H5220 0.950 . S
C5227 C5224 1.387 . S
C5228 C5229 1.387 . S
C5228 H5232 0.950 . S
C5228 C5237 1.390 . S
C5229 C5228 1.387 . S
C5229 C5231 1.387 . S
H5230 C5237 0.950 . S
C5231 C5229 1.387 . S
C5231 C5233 1.390 . S
C5231 H5235 0.950 . S
H5232 C5228 0.950 . S
C5233 C5231 1.390 . S
C5233 C5234 1.387 . S
C5233 H5236 0.950 . S
C5234 C5233 1.387 . S
C5234 C5237 1.387 . S
H5235 C5231 0.950 . S
H5236 C5233 0.950 . S
C5237 C5228 1.390 . S
C5237 H5230 0.950 . S
C5237 C5234 1.387 . S
C5238 C5239 1.387 1_554 S
C5238 H5242 0.952 1_554 S
C5238 C5247 1.390 . S
C5239 C5238 1.387 1_556 S
C5239 C5241 1.369 1_556 S
H5240 C5247 0.950 . S
C5241 C5239 1.369 1_554 S
C5241 C5243 1.440 1_455 S
C5241 H5245 0.922 1_554 S
H5242 C5238 0.952 1_556 S
C5243 C5241 1.440 1_655 S
C5243 C5244 1.387 1_655 S
C5243 H5246 0.950 . S
C5244 C5243 1.387 1_455 S
C5244 C5247 1.387 . S
H5245 C5241 0.922 1_556 S
H5246 C5243 0.950 . S
C5247 C5238 1.390 . S
C5247 H5240 0.950 . S
C5247 C5244 1.387 . S
C5248 C5249 1.387 . S
C5248 H5252 0.950 . S
C5248 C5257 1.390 . S
C5249 C5248 1.387 . S
C5249 C5251 1.387 . S
H5250 C5257 0.950 . S
C5251 C5249 1.387 . S
C5251 C5253 1.390 . S
C5251 H5255 0.950 . S
H5252 C5248 0.950 . S
C5253 C5251 1.390 . S
C5253 C5254 1.387 . S
C5253 H5256 0.950 . S
C5254 C5253 1.387 . S
C5254 C5257 1.387 . S
H5255 C5251 0.950 . S
H5256 C5253 0.950 . S
C5257 C5248 1.390 . S
C5257 H5250 0.950 . S
C5257 C5254 1.387 . S
C5258 C5259 1.387 . S
C5258 H5262 0.950 . S
C5258 C5267 1.390 1_565 S
C5259 C5258 1.387 . S
C5259 C5261 1.387 1_565 S
H5260 C5267 0.950 . S
C5261 C5259 1.387 1_545 S
C5261 C5263 1.390 . S
C5261 H5265 0.950 . S
H5262 C5258 0.950 . S
C5263 C5261 1.390 . S
C5263 C5264 1.387 . S
C5263 H5266 0.950 . S
C5264 C5263 1.387 . S
C5264 C5267 1.387 . S
H5265 C5261 0.950 . S
H5266 C5263 0.950 . S
C5267 C5258 1.390 1_545 S
C5267 H5260 0.950 . S
C5267 C5264 1.387 . S
C5268 C5269 1.387 . S
C5268 H5272 0.950 . S
C5268 C5277 1.390 . S
C5269 C5268 1.387 . S
C5269 C5271 1.387 . S
H5270 C5277 0.950 . S
C5271 C5269 1.387 . S
C5271 C5273 1.390 . S
C5271 H5275 0.950 . S
H5272 C5268 0.950 . S
C5273 C5271 1.390 . S
C5273 C5274 1.387 . S
C5273 H5276 0.950 . S
C5274 C5273 1.387 . S
C5274 C5277 1.387 . S
H5275 C5271 0.950 . S
H5276 C5273 0.950 . S
C5277 C5268 1.390 . S
C5277 H5270 0.950 . S
C5277 C5274 1.387 . S
C5278 C5279 1.387 . S
C5278 H5282 0.950 . S
C5278 C5287 1.390 . S
C5279 C5278 1.387 . S
C5279 C5281 1.387 . S
H5280 C5287 0.950 . S
C5281 C5279 1.387 . S
C5281 C5283 1.390 . S
C5281 H5285 0.950 1_554 S
H5282 C5278 0.950 . S
C5283 C5281 1.390 . S
C5283 C5284 1.387 . S
C5283 H5286 0.950 . S
C5284 C5283 1.387 . S
C5284 C5287 1.387 . S
H5285 C5281 0.950 1_556 S
H5286 C5283 0.950 . S
C5287 C5278 1.390 . S
C5287 H5280 0.950 . S
C5287 C5284 1.387 . S
C5288 C5289 1.387 . S
C5288 H5292 0.950 1_655 S
C5288 C5297 1.390 1_645 S
C5289 C5288 1.387 . S
C5289 C5291 1.387 1_545 S
H5290 C5297 0.950 . S
C5291 C5289 1.387 1_565 S
C5291 C5293 1.390 . S
C5291 H5295 0.950 . S
H5292 C5288 0.950 1_455 S
C5293 C5291 1.390 . S
C5293 C5294 1.387 . S
C5293 H5296 0.950 . S
C5294 C5293 1.387 . S
C5294 C5297 1.387 1_655 S
H5295 C5291 0.950 . S
H5296 C5293 0.950 . S
C5297 C5288 1.390 1_465 S
C5297 H5290 0.950 . S
C5297 C5294 1.387 1_455 S
C5298 C5299 1.387 . S
C5298 H5302 0.950 . S
C5298 C5307 1.390 . S
C5299 C5298 1.387 . S
C5299 C5301 1.387 . S
H5300 C5307 0.950 . S
C5301 C5299 1.387 . S
C5301 C5303 1.390 . S
C5301 H5305 0.950 . S
H5302 C5298 0.950 . S
C5303 C5301 1.390 . S
C5303 C5304 1.387 . S
C5303 H5306 0.950 . S
C5304 C5303 1.387 . S
C5304 C5307 1.387 . S
H5305 C5301 0.950 . S
H5306 C5303 0.950 . S
C5307 C5298 1.390 . S
C5307 H5300 0.950 . S
C5307 C5304 1.387 . S
C5308 C5309 1.387 . S
C5308 H5312 0.950 . S
C5308 C5317 1.390 . S
C5309 C5308 1.387 . S
C5309 C5311 1.380 1_545 S
H5310 C5317 0.950 . S
C5311 C5309 1.380 1_565 S
C5311 C5313 1.373 1_565 S
C5311 H5315 0.975 . S
H5312 C5308 0.950 . S
C5313 C5311 1.373 1_545 S
C5313 C5314 1.387 . S
C5313 H5316 0.950 . S
C5314 C5313 1.387 . S
C5314 C5317 1.387 . S
H5315 C5311 0.975 . S
H5316 C5313 0.950 . S
C5317 C5308 1.390 . S
C5317 H5310 0.950 . S
C5317 C5314 1.387 . S
C5318 C5319 1.387 . S
C5318 H5322 0.950 . S
C5318 C5327 1.390 . S
C5319 C5318 1.387 . S
C5319 C5321 1.387 . S
H5320 C5327 0.950 . S
C5321 C5319 1.387 . S
C5321 C5323 1.390 1_455 S
C5321 H5325 0.950 . S
H5322 C5318 0.950 . S
C5323 C5321 1.390 1_655 S
C5323 C5324 1.387 . S
C5323 H5326 0.950 . S
C5324 C5323 1.387 . S
C5324 C5327 1.387 1_655 S
H5325 C5321 0.950 . S
H5326 C5323 0.950 . S
C5327 C5318 1.390 . S
C5327 H5320 0.950 . S
C5327 C5324 1.387 1_455 S
C5328 C5329 1.387 1_545 S
C5328 H5332 0.950 . S
C5328 C5337 1.390 . S
C5329 C5328 1.387 1_565 S
C5329 C5331 1.400 . S
H5330 C5337 0.950 1_556 S
C5331 C5329 1.400 . S
C5331 C5333 1.349 1_565 S
C5331 H5335 0.980 . S
H5332 C5328 0.950 . S
C5333 C5331 1.349 1_545 S
C5333 C5334 1.387 . S
C5333 H5336 0.950 . S
C5334 C5333 1.387 . S
C5334 C5337 1.387 . S
H5335 C5331 0.980 . S
H5336 C5333 0.950 . S
C5337 C5328 1.390 . S
C5337 H5330 0.950 1_554 S
C5337 C5334 1.387 . S
C5338 C5339 1.387 . S
C5338 H5342 0.950 . S
C5338 C5347 1.390 . S
C5339 C5338 1.387 . S
C5339 C5341 1.387 . S
H5340 C5347 0.950 . S
C5341 C5339 1.387 . S
C5341 C5343 1.390 . S
C5341 H5345 0.950 . S
H5342 C5338 0.950 . S
C5343 C5341 1.390 . S
C5343 C5344 1.387 . S
C5343 H5346 0.950 . S
C5344 C5343 1.387 . S
C5344 C5347 1.387 . S
H5345 C5341 0.950 . S
H5346 C5343 0.950 . S
C5347 C5338 1.390 . S
C5347 H5340 0.950 . S
C5347 C5344 1.387 . S
C5348 C5349 1.387 . S
C5348 H5352 0.950 . S
C5348 C5357 1.390 . S
C5349 C5348 1.387 . S
C5349 C5351 1.387 . S
H5350 C5357 0.950 . S
C5351 C5349 1.387 . S
C5351 C5353 1.390 . S
C5351 H5355 0.950 . S
H5352 C5348 0.950 . S
C5353 C5351 1.390 . S
C5353 C5354 1.387 . S
C5353 H5356 0.950 . S
C5354 C5353 1.387 . S
C5354 C5357 1.387 . S
H5355 C5351 0.950 . S
H5356 C5353 0.950 . S
C5357 C5348 1.390 . S
C5357 H5350 0.950 . S
C5357 C5354 1.387 . S
C5358 C5359 1.387 . S
C5358 H5362 0.950 . S
C5358 C5367 1.390 . S
C5359 C5358 1.387 . S
C5359 C5361 1.387 . S
H5360 C5367 0.950 . S
C5361 C5359 1.387 . S
C5361 C5363 1.390 . S
C5361 H5365 0.950 . S
H5362 C5358 0.950 . S
C5363 C5361 1.390 . S
C5363 C5364 1.387 . S
C5363 H5366 0.950 . S
C5364 C5363 1.387 . S
C5364 C5367 1.387 . S
H5365 C5361 0.950 . S
H5366 C5363 0.950 . S
C5367 C5358 1.390 . S
C5367 H5360 0.950 . S
C5367 C5364 1.387 . S
C5368 C5369 1.387 . S
C5368 H5372 0.950 . S
C5368 C5377 1.390 . S
C5369 C5368 1.387 . S
C5369 C5371 1.387 . S
H5370 C5377 0.950 . S
C5371 C5369 1.387 . S
C5371 C5373 1.390 . S
C5371 H5375 0.950 . S
H5372 C5368 0.950 . S
C5373 C5371 1.390 . S
C5373 C5374 1.387 . S
C5373 H5376 0.950 . S
C5374 C5373 1.387 . S
C5374 C5377 1.387 . S
H5375 C5371 0.950 . S
H5376 C5373 0.950 . S
C5377 C5368 1.390 . S
C5377 H5370 0.950 . S
C5377 C5374 1.387 . S
C5378 C5379 1.387 . S
C5378 H5382 0.950 . S
C5378 C5387 1.390 1_554 S
C5379 C5378 1.387 . S
C5379 C5381 1.387 . S
H5380 C5387 0.950 . S
C5381 C5379 1.387 . S
C5381 C5383 1.390 . S
C5381 H5385 0.950 . S
H5382 C5378 0.950 . S
C5383 C5381 1.390 . S
C5383 C5384 1.387 1_554 S
C5383 H5386 0.950 . S
C5384 C5383 1.387 1_556 S
C5384 C5387 1.387 . S
H5385 C5381 0.950 . S
H5386 C5383 0.950 . S
C5387 C5378 1.390 1_556 S
C5387 H5380 0.950 . S
C5387 C5384 1.387 . S
C5388 C5389 1.387 . S
C5388 H5392 0.950 . S
C5388 C5397 1.390 . S
C5389 C5388 1.387 . S
C5389 C5391 1.387 . S
H5390 C5397 0.950 . S
C5391 C5389 1.387 . S
C5391 C5393 1.390 . S
C5391 H5395 0.950 . S
H5392 C5388 0.950 . S
C5393 C5391 1.390 . S
C5393 C5394 1.387 . S
C5393 H5396 0.950 . S
C5394 C5393 1.387 . S
C5394 C5397 1.387 . S
H5395 C5391 0.950 . S
H5396 C5393 0.950 . S
C5397 C5388 1.390 . S
C5397 H5390 0.950 . S
C5397 C5394 1.387 . S
C5398 C5399 1.387 . S
C5398 H5402 0.950 . S
C5398 C5407 1.390 . S
C5399 C5398 1.387 . S
C5399 C5401 1.387 . S
H5400 C5407 0.950 . S
C5401 C5399 1.387 . S
C5401 C5403 1.390 . S
C5401 H5405 0.950 . S
H5402 C5398 0.950 . S
C5403 C5401 1.390 . S
C5403 C5404 1.387 . S
C5403 H5406 0.950 . S
C5404 C5403 1.387 . S
C5404 C5407 1.387 . S
H5405 C5401 0.950 . S
H5406 C5403 0.950 . S
C5407 C5398 1.390 . S
C5407 H5400 0.950 . S
C5407 C5404 1.387 . S
C5408 C5409 1.387 . S
C5408 H5412 0.950 . S
C5408 C5417 1.390 . S
C5409 C5408 1.387 . S
C5409 C5411 1.387 . S
H5410 C5417 0.950 . S
C5411 C5409 1.387 . S
C5411 C5413 1.390 . S
C5411 H5415 0.950 . S
H5412 C5408 0.950 . S
C5413 C5411 1.390 . S
C5413 C5414 1.387 . S
C5413 H5416 0.950 . S
C5414 C5413 1.387 . S
C5414 C5417 1.387 . S
H5415 C5411 0.950 . S
H5416 C5413 0.950 . S
C5417 C5408 1.390 . S
C5417 H5410 0.950 . S
C5417 C5414 1.387 . S
C5418 C5419 1.387 1_565 S
C5418 H5422 0.950 . S
C5418 C5427 1.390 1_565 S
C5419 C5418 1.387 1_545 S
C5419 C5421 1.387 . S
H5420 C5427 0.949 1_565 S
C5421 C5419 1.387 . S
C5421 C5423 1.390 . S
C5421 H5425 0.950 . S
H5422 C5418 0.950 . S
C5423 C5421 1.390 . S
C5423 C5424 1.387 . S
C5423 H5426 0.950 . S
C5424 C5423 1.387 . S
C5424 C5427 1.387 . S
H5425 C5421 0.950 . S
H5426 C5423 0.950 . S
C5427 C5418 1.390 1_545 S
C5427 H5420 0.949 1_545 S
C5427 C5424 1.387 . S
C5428 C5429 1.387 . S
C5428 H5432 0.950 . S
C5428 C5437 1.390 . S
C5429 C5428 1.387 . S
C5429 C5431 1.387 . S
H5430 C5437 0.950 . S
C5431 C5429 1.387 . S
C5431 C5433 1.390 . S
C5431 H5435 0.950 . S
H5432 C5428 0.950 . S
C5433 C5431 1.390 . S
C5433 C5434 1.387 . S
C5433 H5436 0.950 . S
C5434 C5433 1.387 . S
C5434 C5437 1.387 . S
H5435 C5431 0.950 . S
H5436 C5433 0.950 . S
C5437 C5428 1.390 . S
C5437 H5430 0.950 . S
C5437 C5434 1.387 . S
C5438 C5439 1.387 . S
C5438 H5442 0.950 . S
C5438 C5447 1.390 1_565 S
C5439 C5438 1.387 . S
C5439 C5441 1.387 . S
H5440 C5447 0.950 . S
C5441 C5439 1.387 . S
C5441 C5443 1.390 . S
C5441 H5445 0.950 . S
H5442 C5438 0.950 . S
C5443 C5441 1.390 . S
C5443 C5444 1.387 1_565 S
C5443 H5446 0.950 . S
C5444 C5443 1.387 1_545 S
C5444 C5447 1.387 . S
H5445 C5441 0.950 . S
H5446 C5443 0.950 . S
C5447 C5438 1.390 1_545 S
C5447 H5440 0.950 . S
C5447 C5444 1.387 . S
C5448 C5449 1.387 . S
C5448 H5452 0.950 1_565 S
C5448 C5457 1.390 1_564 S
C5449 C5448 1.387 . S
C5449 C5451 1.387 1_554 S
H5450 C5457 0.950 . S
C5451 C5449 1.387 1_556 S
C5451 C5453 1.390 . S
C5451 H5455 0.950 . S
H5452 C5448 0.950 1_545 S
C5453 C5451 1.390 . S
C5453 C5454 1.387 . S
C5453 H5456 0.950 . S
C5454 C5453 1.387 . S
C5454 C5457 1.387 1_565 S
H5455 C5451 0.950 . S
H5456 C5453 0.950 . S
C5457 C5448 1.390 1_546 S
C5457 H5450 0.950 . S
C5457 C5454 1.387 1_545 S
C5458 C5459 1.387 . S
C5458 H5462 0.950 . S
C5458 C5467 1.390 . S
C5459 C5458 1.387 . S
C5459 C5461 1.387 . S
H5460 C5467 0.950 . S
C5461 C5459 1.387 . S
C5461 C5463 1.390 . S
C5461 H5465 0.950 . S
H5462 C5458 0.950 . S
C5463 C5461 1.390 . S
C5463 C5464 1.387 . S
C5463 H5466 0.950 . S
C5464 C5463 1.387 . S
C5464 C5467 1.387 . S
H5465 C5461 0.950 . S
H5466 C5463 0.950 . S
C5467 C5458 1.390 . S
C5467 H5460 0.950 . S
C5467 C5464 1.387 . S
C5468 C5469 1.387 . S
C5468 H5472 0.950 . S
C5468 C5477 1.390 . S
C5469 C5468 1.387 . S
C5469 C5471 1.387 . S
H5470 C5477 0.950 . S
C5471 C5469 1.387 . S
C5471 C5473 1.390 . S
C5471 H5475 0.950 . S
H5472 C5468 0.950 . S
C5473 C5471 1.390 . S
C5473 C5474 1.387 . S
C5473 H5476 0.950 . S
C5474 C5473 1.387 . S
C5474 C5477 1.387 . S
H5475 C5471 0.950 . S
H5476 C5473 0.950 . S
C5477 C5468 1.390 . S
C5477 H5470 0.950 . S
C5477 C5474 1.387 . S
C5478 C5479 1.387 . S
C5478 H5482 0.950 . S
C5478 C5487 1.390 . S
C5479 C5478 1.387 . S
C5479 C5481 1.387 . S
H5480 C5487 0.950 . S
C5481 C5479 1.387 . S
C5481 C5483 1.390 . S
C5481 H5485 0.950 . S
H5482 C5478 0.950 . S
C5483 C5481 1.390 . S
C5483 C5484 1.387 . S
C5483 H5486 0.950 . S
C5484 C5483 1.387 . S
C5484 C5487 1.387 . S
H5485 C5481 0.950 . S
H5486 C5483 0.950 . S
C5487 C5478 1.390 . S
C5487 H5480 0.950 . S
C5487 C5484 1.387 . S
C5488 C5489 1.387 . S
C5488 H5492 0.950 . S
C5488 C5497 1.390 . S
C5489 C5488 1.387 . S
C5489 C5491 1.387 . S
H5490 C5497 0.950 . S
C5491 C5489 1.387 . S
C5491 C5493 1.390 . S
C5491 H5495 0.950 . S
H5492 C5488 0.950 . S
C5493 C5491 1.390 . S
C5493 C5494 1.387 . S
C5493 H5496 0.950 . S
C5494 C5493 1.387 . S
C5494 C5497 1.387 . S
H5495 C5491 0.950 . S
H5496 C5493 0.950 . S
C5497 C5488 1.390 . S
C5497 H5490 0.950 . S
C5497 C5494 1.387 . S
C5498 C5499 1.387 . S
C5498 H5502 0.950 . S
C5498 C5507 1.390 . S
C5499 C5498 1.387 . S
C5499 C5501 1.387 . S
H5500 C5507 0.950 . S
C5501 C5499 1.387 . S
C5501 C5503 1.390 . S
C5501 H5505 0.950 . S
H5502 C5498 0.950 . S
C5503 C5501 1.390 . S
C5503 C5504 1.387 . S
C5503 H5506 0.950 . S
C5504 C5503 1.387 . S
C5504 C5507 1.387 . S
H5505 C5501 0.950 . S
H5506 C5503 0.950 . S
C5507 C5498 1.390 . S
C5507 H5500 0.950 . S
C5507 C5504 1.387 . S
C5508 C5509 1.387 . S
C5508 H5512 0.950 . S
C5508 C5517 1.390 . S
C5509 C5508 1.387 . S
C5509 C5511 1.387 . S
H5510 C5517 0.950 . S
C5511 C5509 1.387 . S
C5511 C5513 1.390 . S
C5511 H5515 0.950 . S
H5512 C5508 0.950 . S
C5513 C5511 1.390 . S
C5513 C5514 1.387 . S
C5513 H5516 0.950 . S
C5514 C5513 1.387 . S
C5514 C5517 1.387 . S
H5515 C5511 0.950 . S
H5516 C5513 0.950 . S
C5517 C5508 1.390 . S
C5517 H5510 0.950 . S
C5517 C5514 1.387 . S
C5518 C5519 1.387 . S
C5518 H5522 0.950 . S
C5518 C5527 1.390 . S
C5519 C5518 1.387 . S
C5519 C5521 1.387 . S
H5520 C5527 0.950 . S
C5521 C5519 1.387 . S
C5521 C5523 1.390 . S
C5521 H5525 0.950 . S
H5522 C5518 0.950 . S
C5523 C5521 1.390 . S
C5523 C5524 1.387 . S
C5523 H5526 0.950 . S
C5524 C5523 1.387 . S
C5524 C5527 1.387 . S
H5525 C5521 0.950 . S
H5526 C5523 0.950 . S
C5527 C5518 1.390 . S
C5527 H5520 0.950 . S
C5527 C5524 1.387 . S
C5528 C5529 1.387 . S
C5528 H5532 0.950 . S
C5528 C5537 1.390 . S
C5529 C5528 1.387 . S
C5529 C5531 1.387 . S
H5530 C5537 0.950 . S
C5531 C5529 1.387 . S
C5531 C5533 1.390 . S
C5531 H5535 0.950 . S
H5532 C5528 0.950 . S
C5533 C5531 1.390 . S
C5533 C5534 1.387 . S
C5533 H5536 0.950 . S
C5534 C5533 1.387 . S
C5534 C5537 1.387 . S
H5535 C5531 0.950 . S
H5536 C5533 0.950 . S
C5537 C5528 1.390 . S
C5537 H5530 0.950 . S
C5537 C5534 1.387 . S
C5538 C5539 1.387 . S
C5538 H5542 0.950 . S
C5538 C5547 1.390 . S
C5539 C5538 1.387 . S
C5539 C5541 1.387 . S
H5540 C5547 0.950 . S
C5541 C5539 1.387 . S
C5541 C5543 1.390 . S
C5541 H5545 0.950 . S
H5542 C5538 0.950 . S
C5543 C5541 1.390 . S
C5543 C5544 1.387 . S
C5543 H5546 0.950 . S
C5544 C5543 1.387 . S
C5544 C5547 1.387 . S
H5545 C5541 0.950 . S
H5546 C5543 0.950 . S
C5547 C5538 1.390 . S
C5547 H5540 0.950 . S
C5547 C5544 1.387 . S
C5548 C5549 1.387 . S
C5548 H5552 0.950 . S
C5548 C5557 1.390 . S
C5549 C5548 1.387 . S
C5549 C5551 1.387 . S
H5550 C5557 0.950 . S
C5551 C5549 1.387 . S
C5551 C5553 1.390 . S
C5551 H5555 0.950 . S
H5552 C5548 0.950 . S
C5553 C5551 1.390 . S
C5553 C5554 1.387 . S
C5553 H5556 0.950 . S
C5554 C5553 1.387 . S
C5554 C5557 1.387 . S
H5555 C5551 0.950 . S
H5556 C5553 0.950 . S
C5557 C5548 1.390 . S
C5557 H5550 0.950 . S
C5557 C5554 1.387 . S
C5558 C5559 1.387 . S
C5558 H5562 0.950 . S
C5558 C5567 1.390 . S
C5559 C5558 1.387 . S
C5559 C5561 1.387 . S
H5560 C5567 0.950 . S
C5561 C5559 1.387 . S
C5561 C5563 1.390 . S
C5561 H5565 0.950 . S
H5562 C5558 0.950 . S
C5563 C5561 1.390 . S
C5563 C5564 1.387 . S
C5563 H5566 0.950 . S
C5564 C5563 1.387 . S
C5564 C5567 1.387 . S
H5565 C5561 0.950 . S
H5566 C5563 0.950 . S
C5567 C5558 1.390 . S
C5567 H5560 0.950 . S
C5567 C5564 1.387 . S
C3169 C2734 1.148 . S
C3174 C28 1.150 . S
C3179 C61 1.149 . S
C3184 C1051 1.148 . S
C3189 C94 1.149 . S
C3194 C1777 1.151 . S
C3199 C2536 1.150 . S
C3204 C127 1.151 . S
C3209 C787 1.148 . S
C3214 C160 1.150 . S
C3219 C2800 1.150 . S
C3224 C193 1.150 . S
C3229 C754 1.149 . S
C3234 C226 1.151 . S
C3239 C259 1.149 . S
C3244 C1711 1.149 . S
C3249 C292 1.151 . S
C3254 C3064 1.149 . S
C3259 C1315 1.149 . S
C3264 C325 1.149 . S
C3269 C2899 1.149 . S
C3274 C358 1.151 . S
C3279 C3031 1.149 . S
C3284 C391 1.149 . S
C3289 C2074 1.151 . S
C3294 C424 1.148 . S
C3299 C2998 1.148 . S
C3304 C457 1.150 . S
C3309 C2833 1.151 . S
C3314 C490 1.148 . S
C3319 C2866 1.148 . S
C3324 C523 1.151 . S
C3329 C556 1.149 . S
C3334 C1513 1.151 . S
C3339 C589 1.150 . S
C3344 C2173 1.150 . S
C3349 C1381 1.148 . S
C3354 C622 1.151 . S
C3359 C655 1.149 . S
C3364 C985 1.149 . S
C3369 C688 1.151 . S
C3374 C2932 1.148 . S
C3379 C721 1.150 . S
C3384 C853 1.151 . S
C3389 N2258 0.850 . S
C3394 N245 0.849 . S
C3399 N311 0.854 . S
C3404 N806 0.855 . S
C3409 N1565 0.853 . S
C3414 N839 0.855 . S
C3419 N2819 0.855 . S
C3424 N872 0.852 . S
C3429 N1301 0.852 . S
C3434 N905 0.848 . S
C3439 N938 0.849 . S
C3444 N2357 0.850 . S
C3449 N971 0.855 . S
C3454 N476 0.853 . S
C3459 N1664 0.849 . S
C3464 N14 0.850 . S
C3469 N3083 0.856 . S
C3474 N1004 0.852 . S
C3479 N773 0.853 . S
C3484 N1037 0.855 . S
C3489 N608 0.853 . S
C3494 N2588 0.855 . S
C3499 N3149 0.855 . S
C3504 N1070 0.853 . S
C3509 N1730 0.855 . S
C3514 N1103 0.852 . S
C3519 N3116 0.854 . S
C3524 N1136 0.849 . S
C3529 N740 0.850 . S
C3534 N2522 0.849 . S
C3539 N2555 0.854 . S
C3544 N542 0.849 . S
C3549 N509 0.849 . S
C3554 N1334 0.851 . S
C3559 N2654 0.851 . S
C3564 N1169 0.849 . S
C3569 N1862 0.855 . S
C3574 N344 0.853 . S
C3579 N1202 0.848 . S
C3584 N212 0.852 . S
C3589 N2951 0.848 . S
C3594 N1235 0.852 . S
C3599 N80 0.849 . S
C3604 N1268 0.850 . S
C3609 C1348 1.149 . S
C3614 C2569 1.151 . S
C3619 C919 1.150 . S
C3624 C2008 1.151 . S
C3629 C2767 1.150 . S
C3634 C1414 1.148 . S
C3639 C1843 1.151 . S
C3644 C820 1.148 . S
C3649 C1447 1.151 . S
C3654 C2602 1.149 . S
C3659 C1810 1.148 . S
C3664 C1480 1.151 . S
C3669 C1249 1.149 . S
C3674 C2437 1.151 . S
C3679 C2107 1.148 . S
C3684 C1546 1.151 . S
C3689 C2371 1.148 . S
C3694 C1579 1.151 . S
C3699 C1216 1.151 . S
C3704 C2404 1.148 . S
C3709 C1183 1.151 . S
C3714 C1612 1.148 . S
C3719 C1282 1.149 . S
C3724 C2305 1.149 . S
C3729 C2338 1.150 . S
C3734 C1645 1.148 . S
C3739 C1678 1.151 . S
C3744 C2272 1.149 . S
C3749 C2701 1.149 . S
C3754 C1744 1.149 . S
C3759 C1975 1.148 . S
C3764 C1084 1.149 . S
C3769 C2140 1.150 . S
C3774 C1018 1.148 . S
C3779 C1876 1.149 . S
C3784 C1150 1.149 . S
C3789 N2852 0.851 . S
C3794 N1499 0.855 . S
C3799 N146 0.853 . S
C3804 N1532 0.855 . S
C3809 N1895 0.850 . S
C3814 N2324 0.849 . S
C3819 N2093 0.851 . S
C3824 N47 0.849 . S
C3829 N1928 0.848 . S
C3834 N2885 0.851 . S
C3839 N1631 0.854 . S
C3844 N1961 0.855 . S
C3849 N674 0.853 . S
C3854 N2456 0.849 . S
C3859 N1829 0.852 . S
C3864 N1994 0.855 . S
C3869 N2786 0.856 . S
C3874 N1763 0.852 . S
C3879 N641 0.849 . S
C3884 N2621 0.851 . S
C3889 N575 0.848 . S
C3894 N2027 0.853 . S
C3899 N707 0.855 . S
C3904 N2489 0.853 . S
C3909 N1796 0.851 . S
C3914 N2753 0.855 . S
C3919 N1697 0.854 . S
C3924 N2720 0.849 . S
C3929 N2060 0.848 . S
C3934 N2192 0.853 . S
C3939 N1466 0.848 . S
C3944 N377 0.851 . S
C3949 N278 0.853 . S
C3954 N2225 0.855 . S
C3959 N1367 0.850 . S
C3964 N443 0.849 . S
C3969 C1942 1.151 . S
C3974 C3130 1.149 . S
C3979 C2041 1.149 . S
C3984 C2206 1.149 . S
C3989 C886 1.149 . S
C3994 C2635 1.149 . S
C3999 C3097 1.150 . S
C4004 C2239 1.151 . S
C4009 C2470 1.151 . S
C4014 C2965 1.149 . S
C4019 C952 1.149 . S
C4024 C2503 1.151 . S
C4029 N2984 0.850 . S
C4034 N1433 0.855 . S
C4039 N2687 0.855 . S
C4044 N1598 0.853 . S
C4049 N113 0.848 . S
C4054 N2390 0.852 . S
C4059 N2126 0.854 . S
C4064 N3050 0.855 . S
C4069 N2423 0.849 . S
C4074 N2918 0.850 . S
C4079 N179 0.849 . S
C4084 N2291 0.850 . S
C4089 C2668 1.149 . S
C4094 C1117 1.151 . S
C4099 C1909 1.151 . S
C4104 C3163 1.148 . S
C4109 N2159 0.855 . S
C4114 N410 0.853 . S
C4119 N3017 0.851 . S
C4124 N1400 0.849 . S
C4129 C17 0.828 . S
C4134 C1931 0.828 . S
C4139 C1403 0.828 . S
C4144 C50 0.828 . S
C4149 C2129 0.828 . S
C4154 C83 0.828 . S
C4159 C908 0.828 . S
C4164 C116 0.828 . S
C4169 C149 0.828 . S
C4174 C875 0.828 . S
C4179 C182 0.828 . S
C4184 C1502 0.828 . S
C4189 C215 0.828 . S
C4194 C2195 0.828 . S
C4199 C1436 0.828 . S
C4204 C248 0.828 . S
C4209 C413 0.826 . S
C4214 C281 0.826 . S
C4219 C446 0.826 . S
C4224 C314 0.826 . S
C4229 C479 0.826 . S
C4234 C347 0.826 . S
C4239 C512 0.826 . S
C4244 C380 0.826 . S
C4249 C1073 0.826 . S
C4254 C545 0.826 . S
C4259 C2789 0.826 . S
C4264 C578 0.826 . S
C4269 C743 0.826 . S
C4274 C611 0.826 . S
C4279 C1700 0.828 . S
C4284 C644 0.828 . S
C4289 C2030 0.826 . S
C4294 C677 0.826 . S
C4299 C710 0.828 . S
C4304 C1997 0.828 . S
C4309 C776 0.826 . S
C4314 C2558 0.826 . S
C4319 C1898 0.828 . S
C4324 C809 0.828 . S
C4329 C2228 0.826 . S
C4334 C842 0.826 . S
C4339 C1337 0.828 . S
C4344 C941 0.828 . S
C4349 C2690 0.826 . S
C4354 C974 0.826 . S
C4359 C1106 0.826 . S
C4364 C1007 0.826 . S
C4369 C1040 0.826 . S
C4374 C1139 0.826 . S
C4379 C1172 0.828 . S
C4384 C2360 0.828 . S
C4389 C1205 0.828 . S
C4394 C1667 0.828 . S
C4399 C1601 0.828 . S
C4404 C1238 0.828 . S
C4409 C1271 0.828 . S
C4414 C1535 0.828 . S
C4419 C2855 0.826 . S
C4424 C1304 0.826 . S
C4429 C1370 0.826 . S
C4434 C2921 0.826 . S
C4439 C1469 0.826 . S
C4444 C2657 0.826 . S
C4449 C1634 0.828 . S
C4454 C1568 0.828 . S
C4459 C2591 0.828 . S
C4464 C1733 0.828 . S
C4469 C1799 0.826 . S
C4474 C1766 0.826 . S
C4479 C1832 0.828 . S
C4484 C2723 0.828 . S
C4489 C1865 0.826 . S
C4494 C2954 0.826 . S
C4499 C1964 0.828 . S
C4504 C2162 0.828 . S
C4509 C2063 0.826 . S
C4514 C2888 0.826 . S
C4519 C2261 0.828 . S
C4524 C2096 0.828 . S
C4529 C2393 0.826 . S
C4534 C2294 0.826 . S
C4539 C2327 0.826 . S
C4544 C2426 0.826 . S
C4549 C2459 0.828 . S
C4554 C2756 0.828 . S
C4559 C2492 0.826 . S
C4564 C2624 0.826 . S
C4569 C2525 0.826 . S
C4574 C3086 0.826 . S
C4579 C2822 0.826 . S
C4584 C3053 0.826 . S
C4589 C3020 0.826 . S
C4594 C2987 0.826 . S
C4599 C3119 0.826 . S
C4604 C3152 0.826 . S
C4609 C1691 1.713 . S
C4614 N5 1.360 . S
C4619 N38 1.359 . S
C4624 C767 1.713 . S
C4629 N71 1.354 1_554 S
C4634 C2780 1.712 . S
C4639 C734 1.713 . S
C4644 N104 1.359 . S
C4649 N137 1.354 . S
C4654 C1031 1.712 . S
C4659 N170 1.354 1_556 S
C4664 C1757 1.712 . S
C4669 N203 1.355 . S
C4674 C2516 1.712 . S
C4679 N236 1.355 . S
C4684 C2714 1.713 . S
C4689 N269 1.357 . S
C4694 C2120 1.714 . S
C4699 N302 1.357 . S
C4704 C899 1.714 . S
C4709 N335 1.358 . S
C4714 C1922 1.712 . S
C4719 N368 1.354 . S
C4724 C1394 1.713 . S
C4729 C2186 1.714 . S
C4734 N401 1.359 . S
C4739 C1427 1.714 . S
C4744 N434 1.360 . S
C4749 N467 1.359 . S
C4754 C866 1.714 . S
C4759 N500 1.360 . S
C4764 C1493 1.713 . S
C4769 C2846 1.713 . S
C4774 N533 1.359 . S
C4779 N566 1.360 . S
C4784 C404 1.713 . S
C4789 N599 1.360 . S
C4794 C437 1.714 . S
C4799 C470 1.712 . S
C4804 N632 1.358 1_545 S
C4809 C2417 1.713 . S
C4814 N665 1.354 . S
C4819 C1559 1.714 . S
C4824 N698 1.357 . S
C4829 N731 1.357 . S
C4834 C1196 1.712 . S
C4839 N764 1.358 1_655 S
C4844 C1526 1.712 . S
C4849 C239 1.713 . S
C4854 N1655 1.360 1_565 S
C4859 C800 1.713 . S
C4864 N1292 1.360 1_455 S
C4869 C833 1.713 . S
C4874 N2348 1.354 . S
C4879 N1556 1.360 . S
C4884 C932 1.714 . S
C4889 C965 1.713 . S
C4894 N2810 1.361 1_565 S
C4899 C8 1.713 . S
C4904 N2249 1.359 1_455 S
C4909 N2216 1.361 1_556 S
C4914 C998 1.713 . S
C4919 N1424 1.355 . S
C4924 C602 1.713 . S
C4929 C1064 1.714 . S
C4934 N1886 1.361 . S
C4939 C1097 1.713 . S
C4944 N2678 1.355 . S
C4949 N1919 1.355 . S
C4954 C1130 1.712 . S
C4959 N1325 1.354 1_554 S
C4964 C536 1.713 . S
C4969 C503 1.712 . S
C4974 N2546 1.356 1_655 S
C4979 N1094 1.358 . S
C4984 C1163 1.712 . S
C4989 N1127 1.359 . S
C4994 C338 1.713 . S
C4999 N2447 1.359 . S
C5004 C1229 1.713 . S
C5009 N1754 1.359 . S
C5014 C1262 1.714 . S
C5019 C1295 1.713 . S
C5024 N1985 1.359 . S
C5029 N896 1.360 . S
C5034 C1823 1.713 . S
C5039 C2582 1.714 . S
C5044 N1358 1.360 . S
C5049 N1391 1.355 . S
C5054 C1790 1.713 . S
C5059 C1988 1.714 . S
C5064 N797 1.360 . S
C5069 N1457 1.354 . S
C5074 C2747 1.713 . S
C5079 C2549 1.713 . S
C5084 N1490 1.355 1_556 S
C5089 C2912 1.714 . S
C5094 N1226 1.357 . S
C5099 C41 1.713 . S
C5104 N1523 1.354 . S
C5109 N1193 1.354 1_565 S
C5114 C107 1.712 . S
C5119 N1589 1.354 . S
C5124 C2648 1.713 . S
C5129 C173 1.713 . S
C5134 N1259 1.354 . S
C5139 N1622 1.357 . S
C5144 C1889 1.712 . S
C5149 N1688 1.355 1_545 S
C5154 C2252 1.713 . S
C5159 C1592 1.714 . S
C5164 N1721 1.356 . S
C5169 C1625 1.713 . S
C5174 N1061 1.359 . S
C5179 N995 1.357 . S
C5184 C3044 1.714 . S
C5189 C371 1.712 . S
C5194 N1787 1.358 . S
C5199 N1820 1.359 1_655 S
C5204 C305 1.714 . S
C5209 C140 1.714 . S
C5214 N2084 1.360 1_455 S
C5219 N2876 1.359 . S
C5224 C1856 1.713 . S
C5229 C1955 1.714 . S
C5234 N2315 1.357 . S
C5239 C1328 1.713 . S
C5244 N2843 1.360 1_455 S
C5249 C668 1.713 . S
C5254 N2942 1.359 . S
C5259 C635 1.713 . S
C5264 N863 1.354 . S
C5269 N2150 1.360 . S
C5274 C2021 1.713 . S
C5279 N929 1.358 1_554 S
C5284 C701 1.712 . S
C5289 C1658 1.713 . S
C5294 N2711 1.354 1_655 S
C5299 N2018 1.358 . S
C5304 C2054 1.714 . S
C5309 N3074 1.359 1_545 S
C5314 C272 1.713 . S
C5319 N1028 1.360 . S
C5324 C2087 1.714 . S
C5329 C3077 1.714 . S
C5334 N2117 1.357 1_554 S
C5339 C2615 1.713 . S
C5344 N962 1.354 . S
C5349 C569 1.714 . S
C5354 N2183 1.359 . S
C5359 C3110 1.712 . S
C5364 N1853 1.358 . S
C5369 C2681 1.712 . S
C5374 N1160 1.355 . S
C5379 N2282 1.358 . S
C5384 C74 1.712 . S
C5389 C206 1.714 . S
C5394 N2381 1.359 . S
C5399 N2414 1.356 . S
C5404 C2945 1.714 . S
C5409 C2351 1.714 . S
C5414 N2480 1.358 . S
C5419 N2513 1.355 1_545 S
C5424 C2384 1.713 . S
C5429 N2579 1.357 . S
C5434 C2978 1.714 . S
C5439 N2612 1.355 . S
C5444 C2813 1.712 . S
C5449 C2219 1.712 . S
C5454 N3041 1.354 1_565 S
C5459 C1361 1.714 . S
C5464 N2975 1.356 . S
C5469 N830 1.358 1_556 S
C5474 C2483 1.714 . S
C5479 N2909 1.354 . S
C5484 C2450 1.713 . S
C5489 C2285 1.713 . S
C5494 N2777 1.359 . S
C5499 C2879 1.713 . S
C5504 N3107 1.355 . S
C5509 N1952 1.354 . S
C5514 C3143 1.713 . S
C5519 N2645 1.360 . S
C5524 C1724 1.713 . S
C5529 C2153 1.714 . S
C5534 N2051 1.356 . S
C5539 C1460 1.712 . S
C5544 N3008 1.356 . S
C5549 C3011 1.712 . S
C5554 N2744 1.354 . S
C5559 N3140 1.357 . S
C5564 C2318 1.712 . S
