# Generated by pormake.
# Topology vbn, (6)-cn, num edge types: 1
# Building blocks:
#     Node 0, Type 0, BuildingBlock: OJICUG_clean_sbu_0, # of connection points: 6
#     Node 1, Type 0, BuildingBlock: OJICUG_clean_sbu_0, # of connection points: 6
#     Node 2, Type 0, BuildingBlock: OJICUG_clean_sbu_0, # of connection points: 6
#     Node 3, Type 0, BuildingBlock: OJICUG_clean_sbu_0, # of connection points: 6
#     Node 4, Type 0, BuildingBlock: OJICUG_clean_sbu_0, # of connection points: 6
#     Node 5, Type 0, BuildingBlock: OJICUG_clean_sbu_0, # of connection points: 6
#     Node 6, Type 0, BuildingBlock: OJICUG_clean_sbu_0, # of connection points: 6
#     Node 7, Type 0, BuildingBlock: OJICUG_clean_sbu_0, # of connection points: 6
#     Edge 8, Type (0, 0), BuildingBlock: OJICUG_clean_linker_0, # of connection points: 2
#     Edge 9, Type (0, 0), BuildingBlock: OJICUG_clean_linker_0, # of connection points: 2
#     Edge 10, Type (0, 0), BuildingBlock: OJICUG_clean_linker_0, # of connection points: 2
#     Edge 11, Type (0, 0), BuildingBlock: OJICUG_clean_linker_0, # of connection points: 2
#     Edge 12, Type (0, 0), BuildingBlock: OJICUG_clean_linker_0, # of connection points: 2
#     Edge 13, Type (0, 0), BuildingBlock: OJICUG_clean_linker_0, # of connection points: 2
#     Edge 14, Type (0, 0), BuildingBlock: OJICUG_clean_linker_0, # of connection points: 2
#     Edge 15, Type (0, 0), BuildingBlock: OJICUG_clean_linker_0, # of connection points: 2
#     Edge 16, Type (0, 0), BuildingBlock: OJICUG_clean_linker_0, # of connection points: 2
#     Edge 17, Type (0, 0), BuildingBlock: OJICUG_clean_linker_0, # of connection points: 2
#     Edge 18, Type (0, 0), BuildingBlock: OJICUG_clean_linker_0, # of connection points: 2
#     Edge 19, Type (0, 0), BuildingBlock: OJICUG_clean_linker_0, # of connection points: 2
#     Edge 20, Type (0, 0), BuildingBlock: OJICUG_clean_linker_0, # of connection points: 2
#     Edge 21, Type (0, 0), BuildingBlock: OJICUG_clean_linker_0, # of connection points: 2
#     Edge 22, Type (0, 0), BuildingBlock: OJICUG_clean_linker_0, # of connection points: 2
#     Edge 23, Type (0, 0), BuildingBlock: OJICUG_clean_linker_0, # of connection points: 2
#     Edge 24, Type (0, 0), BuildingBlock: OJICUG_clean_linker_0, # of connection points: 2
#     Edge 25, Type (0, 0), BuildingBlock: OJICUG_clean_linker_0, # of connection points: 2
#     Edge 26, Type (0, 0), BuildingBlock: OJICUG_clean_linker_0, # of connection points: 2
#     Edge 27, Type (0, 0), BuildingBlock: OJICUG_clean_linker_0, # of connection points: 2
#     Edge 28, Type (0, 0), BuildingBlock: OJICUG_clean_linker_0, # of connection points: 2
#     Edge 29, Type (0, 0), BuildingBlock: OJICUG_clean_linker_0, # of connection points: 2
#     Edge 30, Type (0, 0), BuildingBlock: OJICUG_clean_linker_0, # of connection points: 2
#     Edge 31, Type (0, 0), BuildingBlock: OJICUG_clean_linker_0, # of connection points: 2
# Relax obj value: 0.292
# Max RMSD: 0.267
# Mean RMSD: 0.267
data_MOF--net-vbn--node1-OJICUG_clean_sbu_0--edge1-OJICUG_clean_linker_0
_symmetry_space_group_name_H-M    P1
_symmetry_Int_Tables_number       1
_symmetry_cell_setting            triclinic
loop_
_symmetry_equiv_pos_as_xyz
'x, y, z'
_cell_length_a     19.421451
_cell_length_b     21.959581
_cell_length_c     36.801162
_cell_angle_alpha  89.996958
_cell_angle_beta   89.990092
_cell_angle_gamma 89.976795
loop_
_atom_site_label
_atom_site_type_symbol
_atom_site_fract_x
_atom_site_fract_y
_atom_site_fract_z
_atom_type_partial_charge
Sc0 Sc 0.29896 0.28299 0.35192 0.0
Sc1 Sc 0.38688 0.26093 0.43166 0.0
Sc2 Sc 0.43683 0.37153 0.37328 0.0
O3 O 0.37504 0.30319 0.38485 0.0
C4 C 0.43227 0.30788 0.3003 0.0
C5 C 0.33299 0.15618 0.37634 0.0
C6 C 0.53321 0.27638 0.41678 0.0
C7 C 0.2321 0.27179 0.43211 0.0
C8 C 0.29467 0.42244 0.35003 0.0
C9 C 0.41942 0.40116 0.44979 0.0
O10 O 0.36643 0.30185 0.30394 0.0
O11 O 0.34536 0.17453 0.40887 0.0
O12 O 0.52186 0.33088 0.40569 0.0
O13 O 0.22932 0.25985 0.39794 0.0
O14 O 0.35881 0.42135 0.34259 0.0
O15 O 0.42851 0.34495 0.45836 0.0
O16 O 0.26176 0.374 0.35657 0.0
O17 O 0.28714 0.28706 0.44804 0.0
O18 O 0.39564 0.41495 0.41916 0.0
O19 O 0.33359 0.19206 0.3494 0.0
O20 O 0.47069 0.32515 0.32628 0.0
O21 O 0.48687 0.23616 0.4143 0.0
Sc22 Sc 0.20164 0.21596 0.85201 0.0
Sc23 Sc 0.11319 0.2383 0.93158 0.0
Sc24 Sc 0.06371 0.12744 0.87327 0.0
O25 O 0.12538 0.19586 0.88484 0.0
C26 C 0.06857 0.19099 0.80025 0.0
C27 C 0.16748 0.34288 0.87624 0.0
C28 C 0.96699 0.22269 0.91649 0.0
C29 C 0.26801 0.22742 0.93231 0.0
C30 C 0.20599 0.07649 0.85018 0.0
C31 C 0.08056 0.0981 0.94982 0.0
O32 O 0.13439 0.19706 0.80394 0.0
O33 O 0.15483 0.32464 0.90877 0.0
O34 O 0.97846 0.16816 0.90549 0.0
O35 O 0.27102 0.23914 0.89811 0.0
O36 O 0.14187 0.07751 0.84272 0.0
O37 O 0.07139 0.15434 0.95831 0.0
O38 O 0.23882 0.12495 0.85677 0.0
O39 O 0.21284 0.21232 0.9482 0.0
O40 O 0.1047 0.08426 0.91927 0.0
O41 O 0.16708 0.30691 0.84935 0.0
O42 O 0.03007 0.17365 0.82618 0.0
O43 O 0.01329 0.26293 0.914 0.0
Sc44 Sc 0.79892 0.21504 0.60853 0.0
Sc45 Sc 0.8868 0.23709 0.52877 0.0
Sc46 Sc 0.93676 0.12639 0.58709 0.0
O47 O 0.87498 0.19481 0.57558 0.0
C48 C 0.93234 0.19019 0.66007 0.0
C49 C 0.83289 0.34186 0.58411 0.0
C50 C 0.03315 0.2215 0.54361 0.0
C51 C 0.732 0.22629 0.52836 0.0
C52 C 0.79465 0.07556 0.61037 0.0
C53 C 0.91926 0.09685 0.51059 0.0
O54 O 0.86649 0.19626 0.65648 0.0
O55 O 0.84531 0.32352 0.55157 0.0
O56 O 0.02178 0.167 0.55467 0.0
O57 O 0.72921 0.23816 0.56254 0.0
O58 O 0.85878 0.0766 0.61781 0.0
O59 O 0.92839 0.15306 0.50204 0.0
O60 O 0.76173 0.12404 0.60388 0.0
O61 O 0.78706 0.21107 0.5124 0.0
O62 O 0.89549 0.08306 0.54122 0.0
O63 O 0.83346 0.30597 0.61104 0.0
O64 O 0.97069 0.1727 0.6341 0.0
O65 O 0.98682 0.26176 0.5461 0.0
Sc66 Sc 0.56364 0.37269 0.08706 0.0
Sc67 Sc 0.61321 0.26177 0.02877 0.0
Sc68 Sc 0.70158 0.28413 0.10836 0.0
O69 O 0.62533 0.30422 0.07551 0.0
C70 C 0.70585 0.42362 0.11015 0.0
C71 C 0.58065 0.40197 0.01052 0.0
C72 C 0.76804 0.27264 0.02807 0.0
C73 C 0.46697 0.27748 0.04384 0.0
C74 C 0.5684 0.30903 0.16007 0.0
C75 C 0.6675 0.15719 0.08414 0.0
O76 O 0.64173 0.42261 0.11762 0.0
O77 O 0.57145 0.34574 0.00203 0.0
O78 O 0.77105 0.26095 0.06227 0.0
O79 O 0.47844 0.33201 0.05482 0.0
O80 O 0.63423 0.30295 0.1564 0.0
O81 O 0.65484 0.1754 0.05161 0.0
O82 O 0.52994 0.32653 0.13416 0.0
O83 O 0.51328 0.2372 0.04633 0.0
O84 O 0.66709 0.19319 0.11102 0.0
O85 O 0.60476 0.41579 0.04107 0.0
O86 O 0.73871 0.37513 0.10359 0.0
O87 O 0.71286 0.28768 0.01217 0.0
Sc88 Sc 0.56321 0.62671 0.5872 0.0
Sc89 Sc 0.61236 0.73749 0.52873 0.0
Sc90 Sc 0.70139 0.71511 0.60811 0.0
O91 O 0.62489 0.69504 0.57544 0.0
C92 C 0.56867 0.6905 0.66012 0.0
C93 C 0.46623 0.72191 0.54415 0.0
C94 C 0.66711 0.84205 0.58395 0.0
C95 C 0.57958 0.59725 0.51061 0.0
C96 C 0.70559 0.57568 0.61002 0.0
C97 C 0.7672 0.72644 0.52768 0.0
O98 O 0.52997 0.67312 0.63429 0.0
O99 O 0.51257 0.76216 0.54651 0.0
O100 O 0.66689 0.80605 0.61083 0.0
O101 O 0.60376 0.58338 0.54114 0.0
O102 O 0.73844 0.62408 0.6033 0.0
O103 O 0.71188 0.71149 0.51189 0.0
O104 O 0.64153 0.57678 0.61763 0.0
O105 O 0.57039 0.6535 0.50212 0.0
O106 O 0.77046 0.73819 0.56186 0.0
O107 O 0.4778 0.6674 0.55514 0.0
O108 O 0.63449 0.69634 0.65632 0.0
O109 O 0.65421 0.82385 0.55144 0.0
Sc110 Sc 0.79945 0.78405 0.1084 0.0
Sc111 Sc 0.88745 0.76191 0.02869 0.0
Sc112 Sc 0.93722 0.8727 0.08698 0.0
O113 O 0.87552 0.80425 0.07548 0.0
C114 C 0.79505 0.92353 0.11028 0.0
C115 C 0.73265 0.7728 0.02822 0.0
C116 C 0.9199 0.90214 0.01047 0.0
C117 C 0.83348 0.65719 0.08403 0.0
C118 C 0.9328 0.80891 0.15995 0.0
C119 C 0.03374 0.7775 0.04362 0.0
O120 O 0.7622 0.87506 0.10374 0.0
O121 O 0.78773 0.78796 0.01226 0.0
O122 O 0.89594 0.91594 0.04106 0.0
O123 O 0.83404 0.6931 0.11095 0.0
O124 O 0.97114 0.82646 0.134 0.0
O125 O 0.98743 0.73726 0.04611 0.0
O126 O 0.86697 0.80281 0.15635 0.0
O127 O 0.84592 0.67551 0.0515 0.0
O128 O 0.02229 0.83203 0.05463 0.0
O129 O 0.72983 0.76093 0.0624 0.0
O130 O 0.8592 0.92253 0.11767 0.0
O131 O 0.9291 0.84591 0.00196 0.0
Sc132 Sc 0.06324 0.87152 0.37317 0.0
Sc133 Sc 0.11235 0.76056 0.43153 0.0
Sc134 Sc 0.20141 0.78308 0.35215 0.0
O135 O 0.1249 0.8031 0.38485 0.0
C136 C 0.06865 0.80795 0.30019 0.0
C137 C 0.96624 0.77628 0.41613 0.0
C138 C 0.16714 0.65609 0.37624 0.0
C139 C 0.07961 0.90076 0.44977 0.0
C140 C 0.2056 0.92253 0.35035 0.0
C141 C 0.26721 0.77155 0.43257 0.0
O142 O 0.02997 0.8253 0.32604 0.0
O143 O 0.01257 0.73601 0.41374 0.0
O144 O 0.16701 0.69213 0.34938 0.0
O145 O 0.10389 0.91464 0.41926 0.0
O146 O 0.23845 0.87408 0.357 0.0
O147 O 0.21187 0.78643 0.44839 0.0
O148 O 0.14153 0.92147 0.34276 0.0
O149 O 0.07037 0.84451 0.45821 0.0
O150 O 0.27051 0.75992 0.39838 0.0
O151 O 0.97782 0.83082 0.40521 0.0
O152 O 0.13447 0.80198 0.30397 0.0
O153 O 0.15419 0.67424 0.40875 0.0
Sc154 Sc 0.4373 0.62724 0.87345 0.0
Sc155 Sc 0.38751 0.7382 0.93163 0.0
Sc156 Sc 0.29954 0.71589 0.85194 0.0
O157 O 0.37562 0.69577 0.88488 0.0
C158 C 0.43293 0.69076 0.80041 0.0
C159 C 0.53381 0.72248 0.91673 0.0
C160 C 0.33356 0.84281 0.87621 0.0
C161 C 0.41989 0.59802 0.94997 0.0
C162 C 0.29518 0.57641 0.85016 0.0
C163 C 0.2327 0.72735 0.93211 0.0
O164 O 0.47127 0.6733 0.82638 0.0
O165 O 0.48751 0.76275 0.9142 0.0
O166 O 0.33407 0.80684 0.84932 0.0
O167 O 0.39588 0.58422 0.9194 0.0
O168 O 0.26232 0.62491 0.85667 0.0
O169 O 0.28779 0.71226 0.94809 0.0
O170 O 0.35934 0.57737 0.84278 0.0
O171 O 0.42915 0.65424 0.95844 0.0
O172 O 0.22988 0.73913 0.89792 0.0
O173 O 0.52236 0.66793 0.90577 0.0
O174 O 0.3671 0.69696 0.80401 0.0
O175 O 0.34601 0.82456 0.90875 0.0
C176 C 0.293 0.9871 0.38223 0.0
C177 C 0.24121 0.98131 0.35554 0.0
H178 H 0.36199 0.0474 0.41057 0.0
C179 C 0.22105 0.0328 0.3359 0.0
H180 H 0.30872 0.9481 0.39825 0.0
C181 C 0.25245 0.08884 0.34246 0.0
C182 C 0.30349 0.09513 0.3695 0.0
H183 H 0.18102 0.02977 0.31549 0.0
H184 H 0.23529 0.12783 0.32685 0.0
C185 C 0.32321 0.04379 0.38954 0.0
C186 C 0.2483 0.41007 0.84243 0.0
C187 C 0.19704 0.4039 0.86937 0.0
H188 H 0.31996 0.46901 0.8155 0.0
C189 C 0.17717 0.45533 0.88928 0.0
H190 H 0.26558 0.37101 0.82691 0.0
C191 C 0.20745 0.51199 0.88195 0.0
C192 C 0.25946 0.51766 0.85536 0.0
H193 H 0.13822 0.45182 0.91024 0.0
H194 H 0.19162 0.55107 0.89787 0.0
C195 C 0.27976 0.46608 0.83584 0.0
C196 C 0.72152 0.46556 0.62476 0.0
C197 C 0.74121 0.51687 0.60484 0.0
H198 H 0.73612 0.37064 0.63408 0.0
C199 C 0.79256 0.51088 0.57792 0.0
H200 H 0.68184 0.46876 0.64537 0.0
C201 C 0.82277 0.45415 0.57066 0.0
C202 C 0.80351 0.40298 0.59097 0.0
H203 H 0.8079 0.54975 0.5617 0.0
H204 H 0.86117 0.45038 0.54943 0.0
C205 C 0.75293 0.40949 0.61825 0.0
C206 C 0.74772 0.08976 0.11824 0.0
C207 C 0.69695 0.09611 0.09106 0.0
H208 H 0.81901 0.03066 0.14535 0.0
C209 C 0.67755 0.0448 0.07091 0.0
H210 H 0.76465 0.1287 0.13395 0.0
C211 C 0.7078 0.98812 0.07824 0.0
C212 C 0.75934 0.98229 0.10507 0.0
H213 H 0.639 0.04844 0.04975 0.0
H214 H 0.69235 0.94915 0.06214 0.0
C215 C 0.77917 0.03373 0.12482 0.0
C216 C 0.77985 0.96499 0.62424 0.0
C217 C 0.75905 0.01677 0.60506 0.0
H218 H 0.76613 0.86977 0.6328 0.0
C219 C 0.70666 0.01128 0.57867 0.0
H220 H 0.82035 0.96776 0.64441 0.0
C221 C 0.67646 0.95464 0.57122 0.0
C222 C 0.6968 0.90302 0.59082 0.0
H223 H 0.69043 0.05051 0.56299 0.0
H224 H 0.63715 0.95129 0.55044 0.0
C225 C 0.74849 0.90898 0.61754 0.0
C226 C 0.75295 0.5899 0.11799 0.0
C227 C 0.80393 0.59615 0.09091 0.0
H228 H 0.68151 0.53089 0.14504 0.0
C229 C 0.82352 0.54479 0.07085 0.0
H230 H 0.73589 0.6289 0.13363 0.0
C231 C 0.79326 0.48813 0.07819 0.0
C232 C 0.74152 0.48238 0.10492 0.0
H233 H 0.86225 0.54836 0.04978 0.0
H234 H 0.80888 0.44911 0.06216 0.0
C235 C 0.72149 0.53389 0.12458 0.0
C236 C 0.20665 0.48685 0.38165 0.0
C237 C 0.25904 0.48125 0.35525 0.0
H238 H 0.13715 0.54697 0.40984 0.0
C239 C 0.27978 0.53294 0.33599 0.0
H240 H 0.19046 0.44768 0.39739 0.0
C241 C 0.2484 0.58899 0.34263 0.0
C242 C 0.19674 0.59507 0.36937 0.0
H243 H 0.32028 0.53008 0.31581 0.0
H244 H 0.26601 0.62814 0.32731 0.0
C245 C 0.17643 0.54353 0.38904 0.0
C246 C 0.29325 0.01187 0.88218 0.0
C247 C 0.2417 0.01773 0.85536 0.0
H248 H 0.36206 0.95151 0.91063 0.0
C249 C 0.22189 0.96632 0.83556 0.0
H250 H 0.30869 0.05081 0.8983 0.0
C251 C 0.25336 0.91028 0.84211 0.0
C252 C 0.30412 0.9039 0.8693 0.0
H253 H 0.18206 0.96941 0.81503 0.0
H254 H 0.23645 0.87135 0.82638 0.0
C255 C 0.32351 0.95518 0.88947 0.0
C256 C 0.44575 0.51194 0.45647 0.0
C257 C 0.45623 0.45132 0.46835 0.0
H258 H 0.47885 0.60499 0.45854 0.0
C259 C 0.50991 0.43936 0.4926 0.0
H260 H 0.40489 0.52295 0.43752 0.0
C261 C 0.55295 0.48651 0.50406 0.0
C262 C 0.54251 0.54712 0.49216 0.0
H263 H 0.51987 0.39346 0.50198 0.0
H264 H 0.59383 0.47547 0.52298 0.0
C265 C 0.48879 0.55909 0.46793 0.0
C266 C 0.94653 0.01289 0.0039 0.0
C267 C 0.95693 0.95227 -0.008 0.0
H268 H 0.97979 0.1059 0.00187 0.0
C269 C 0.01068 0.94028 0.96778 0.0
H270 H 0.90563 0.02393 0.02281 0.0
C271 C 0.05384 0.98738 0.95637 0.0
C272 C 0.04345 0.04799 0.96827 0.0
H273 H 0.02058 0.89438 0.95838 0.0
H274 H 0.09475 0.97632 0.93745 0.0
C275 C 0.98969 0.06 -0.00752 0.0
C276 C 0.94568 0.98607 0.50392 0.0
C277 C 0.95608 0.04668 0.49202 0.0
H278 H 0.97891 0.89303 0.50187 0.0
C279 C 0.0097 0.05863 0.46773 0.0
H280 H 0.90486 0.97507 0.52289 0.0
C281 C 0.05279 0.01149 0.45627 0.0
C282 C 0.04245 0.95089 0.4682 0.0
H283 H 0.01958 0.10452 0.45832 0.0
H284 H 0.09364 0.02252 0.43732 0.0
C285 C 0.98877 0.93892 0.49245 0.0
C286 C 0.44661 0.48727 0.95649 0.0
C287 C 0.45699 0.54787 0.9684 0.0
H288 H 0.47992 0.39425 0.95847 0.0
C289 C 0.51076 0.55984 -0.00741 0.0
H290 H 0.40569 0.47625 0.93759 0.0
C291 C 0.55395 0.51271 0.00398 0.0
C292 C 0.54357 0.45211 -0.00794 0.0
H293 H 0.52064 0.60573 0.002 0.0
H294 H 0.59486 0.52374 0.02288 0.0
C295 C 0.4898 0.44014 0.96787 0.0
C296 C 0.57253 0.29871 0.22829 0.0
C297 C 0.53434 0.30087 0.19602 0.0
H298 H 0.57032 0.29867 0.28633 0.0
C299 C 0.46169 0.29935 0.19834 0.0
H300 H 0.62828 0.29948 0.22762 0.0
C301 C 0.42814 0.29889 0.23203 0.0
C302 C 0.46633 0.3002 0.26432 0.0
H303 H 0.43033 0.30014 0.17401 0.0
H304 H 0.37239 0.29985 0.23271 0.0
C305 C 0.53897 0.29851 0.26199 0.0
C306 C 0.07276 0.19989 0.73196 0.0
C307 C 0.03458 0.19877 0.76426 0.0
H308 H 0.07051 0.19856 0.67393 0.0
C309 C 0.96194 0.20075 0.76195 0.0
H310 H 0.12849 0.19871 0.73262 0.0
C311 C 0.92836 0.20062 0.72827 0.0
C312 C 0.96651 0.19826 0.69598 0.0
H313 H 0.9306 0.20075 0.7863 0.0
H314 H 0.87261 0.20007 0.72763 0.0
C315 C 0.03917 0.19951 0.69828 0.0
C316 C 0.53973 0.69925 0.7621 0.0
C317 C 0.46706 0.69859 0.76446 0.0
H318 H 0.62893 0.69771 0.72765 0.0
C319 C 0.42883 0.70129 0.73222 0.0
H320 H 0.57114 0.69801 0.7864 0.0
C321 C 0.4623 0.70117 0.69851 0.0
C322 C 0.5349 0.69858 0.69613 0.0
H323 H 0.37308 0.70122 0.73292 0.0
H324 H 0.43089 0.70147 0.67419 0.0
C325 C 0.57321 0.69937 0.72838 0.0
C326 C 0.03964 0.80006 0.1982 0.0
C327 C 0.96697 0.80079 0.19586 0.0
H328 H 0.12886 0.80123 0.23261 0.0
C329 C 0.92877 0.79782 0.22811 0.0
H330 H 0.07103 0.80149 0.17389 0.0
C331 C 0.96226 0.79761 0.26181 0.0
C332 C 0.03487 0.80012 0.26417 0.0
H333 H 0.87301 0.79793 0.22743 0.0
H334 H 0.93088 0.79712 0.28614 0.0
C335 C 0.07314 0.7996 0.2319 0.0
C336 C 0.60257 0.20389 0.45421 0.0
C337 C 0.58818 0.26431 0.44383 0.0
H338 H 0.65801 0.14469 0.49018 0.0
C339 C 0.61827 0.31211 0.46371 0.0
H340 H 0.58021 0.16593 0.43958 0.0
C341 C 0.66038 0.29967 0.49376 0.0
C342 C 0.67399 0.23927 0.50405 0.0
H343 H 0.60836 0.35908 0.45648 0.0
H344 H 0.68458 0.33714 0.50804 0.0
C345 C 0.6456 0.19158 0.48371 0.0
C346 C 0.89757 0.29515 0.95394 0.0
C347 C 0.91192 0.23475 0.9435 0.0
H348 H 0.84214 0.3543 -0.01005 0.0
C349 C 0.88168 0.18692 0.9633 0.0
H350 H 0.92003 0.33314 0.93937 0.0
C351 C 0.83951 0.19931 -0.00666 0.0
C352 C 0.82599 0.25969 0.00371 0.0
H353 H 0.89152 0.13997 0.95602 0.0
H354 H 0.81523 0.16182 0.00757 0.0
C355 C 0.85448 0.30741 -0.01657 0.0
C356 C 0.10284 0.29403 0.50641 0.0
C357 C 0.08821 0.23358 0.51661 0.0
H358 H 0.15851 0.35332 0.4706 0.0
C359 C 0.11812 0.18584 0.49658 0.0
H360 H 0.08062 0.33195 0.52115 0.0
C361 C 0.16027 0.19837 0.46656 0.0
C362 C 0.17412 0.2588 0.45644 0.0
H363 H 0.10803 0.13885 0.50369 0.0
H364 H 0.1843 0.16092 0.45216 0.0
C365 C 0.14592 0.30642 0.47694 0.0
C366 C 0.38173 0.31322 -0.00303 0.0
C367 C 0.41188 0.26542 0.01685 0.0
H368 H 0.31537 0.33827 0.95266 0.0
C369 C 0.3974 0.205 0.00652 0.0
H370 H 0.39166 0.36018 0.00418 0.0
C371 C 0.35429 0.1927 0.97706 0.0
C372 C 0.32592 0.24039 0.95669 0.0
H373 H 0.41978 0.16704 0.02116 0.0
H374 H 0.34186 0.14581 0.97061 0.0
C375 C 0.33956 0.30078 0.96696 0.0
C376 C 0.39645 0.79429 0.50684 0.0
C377 C 0.41106 0.73391 0.5172 0.0
H378 H 0.34077 0.85335 0.47088 0.0
C379 C 0.38099 0.68604 0.49737 0.0
H380 H 0.41876 0.8323 0.52144 0.0
C381 C 0.3388 0.69837 0.46735 0.0
C382 C 0.32505 0.75873 0.45703 0.0
H383 H 0.39103 0.63909 0.5046 0.0
H384 H 0.31471 0.66083 0.45307 0.0
C385 C 0.3533 0.80649 0.47737 0.0
C386 C 0.11893 0.81321 -0.00326 0.0
C387 C 0.08876 0.76541 0.01659 0.0
H388 H 0.18535 0.83823 0.95244 0.0
C389 C 0.10315 0.70499 0.00622 0.0
H390 H 0.10905 0.86017 0.00398 0.0
C391 C 0.14624 0.69267 0.97674 0.0
C392 C 0.17469 0.74036 0.95642 0.0
H393 H 0.08074 0.66703 0.02084 0.0
H394 H 0.15864 0.64578 0.97027 0.0
C395 C 0.1611 0.80076 0.96671 0.0
C396 C 0.89633 0.70384 0.45331 0.0
C397 C 0.91103 0.76425 0.44306 0.0
H398 H 0.84058 0.6447 0.48918 0.0
C399 C 0.88103 0.81208 0.46298 0.0
H400 H 0.9186 0.66587 0.43864 0.0
C401 C 0.83883 0.79967 0.49299 0.0
C402 C 0.825 0.73929 0.5032 0.0
H403 H 0.89113 0.85904 0.45582 0.0
H404 H 0.8148 0.83718 0.50734 0.0
C405 C 0.85317 0.69157 0.48277 0.0
C406 C 0.66112 0.69935 -0.00634 0.0
C407 C 0.67469 0.75977 0.0039 0.0
H408 H 0.60912 0.63987 0.95645 0.0
C409 C 0.64625 0.80742 -0.01648 0.0
H410 H 0.68535 0.66191 0.00798 0.0
C411 C 0.6032 0.79505 0.95406 0.0
C412 C 0.58882 0.73461 0.94374 0.0
H413 H 0.65863 0.85432 -0.01004 0.0
H414 H 0.58079 0.83298 0.9394 0.0
C415 C 0.61898 0.68685 0.96365 0.0
loop_
_geom_bond_atom_site_label_1
_geom_bond_atom_site_label_2
_geom_bond_distance
_geom_bond_site_symmetry_2
_ccdc_geom_bond_type
Sc0 O3 2.025 . S
Sc0 O10 2.105 . S
Sc0 O13 2.105 . S
Sc0 O16 2.105 . S
Sc0 O19 2.105 . S
Sc1 O3 2.025 . S
Sc1 O11 2.105 . S
Sc1 O15 2.105 . S
Sc1 O17 2.105 . S
Sc1 O21 2.105 . S
Sc2 O3 2.025 . S
Sc2 O12 2.105 . S
Sc2 O14 2.105 . S
Sc2 O18 2.105 . S
Sc2 O20 2.105 . S
O3 Sc0 2.025 . S
O3 Sc1 2.025 . S
O3 Sc2 2.025 . S
C4 O10 1.268 . S
C4 O20 1.268 . S
C5 O11 1.268 . S
C5 O19 1.268 . S
C6 O12 1.268 . S
C6 O21 1.268 . S
C7 O13 1.268 . S
C7 O17 1.268 . S
C8 O14 1.268 . S
C8 O16 1.268 . S
C9 O15 1.268 . S
C9 O18 1.268 . S
O10 Sc0 2.105 . S
O10 C4 1.268 . S
O11 Sc1 2.105 . S
O11 C5 1.268 . S
O12 Sc2 2.105 . S
O12 C6 1.268 . S
O13 Sc0 2.105 . S
O13 C7 1.268 . S
O14 Sc2 2.105 . S
O14 C8 1.268 . S
O15 Sc1 2.105 . S
O15 C9 1.268 . S
O16 Sc0 2.105 . S
O16 C8 1.268 . S
O17 Sc1 2.105 . S
O17 C7 1.268 . S
O18 Sc2 2.105 . S
O18 C9 1.268 . S
O19 Sc0 2.105 . S
O19 C5 1.268 . S
O20 Sc2 2.105 . S
O20 C4 1.268 . S
O21 Sc1 2.105 . S
O21 C6 1.268 . S
Sc22 O25 2.025 . S
Sc22 O32 2.105 . S
Sc22 O35 2.105 . S
Sc22 O38 2.105 . S
Sc22 O41 2.105 . S
Sc23 O25 2.025 . S
Sc23 O33 2.105 . S
Sc23 O37 2.105 . S
Sc23 O39 2.105 . S
Sc23 O43 2.105 . S
Sc24 O25 2.025 . S
Sc24 O34 2.105 1_455 S
Sc24 O36 2.105 . S
Sc24 O40 2.105 . S
Sc24 O42 2.105 . S
O25 Sc22 2.025 . S
O25 Sc23 2.025 . S
O25 Sc24 2.025 . S
C26 O32 1.268 . S
C26 O42 1.268 . S
C27 O33 1.268 . S
C27 O41 1.268 . S
C28 O34 1.268 . S
C28 O43 1.268 1_655 S
C29 O35 1.268 . S
C29 O39 1.268 . S
C30 O36 1.268 . S
C30 O38 1.268 . S
C31 O37 1.268 . S
C31 O40 1.268 . S
O32 Sc22 2.105 . S
O32 C26 1.268 . S
O33 Sc23 2.105 . S
O33 C27 1.268 . S
O34 Sc24 2.105 1_655 S
O34 C28 1.268 . S
O35 Sc22 2.105 . S
O35 C29 1.268 . S
O36 Sc24 2.105 . S
O36 C30 1.268 . S
O37 Sc23 2.105 . S
O37 C31 1.268 . S
O38 Sc22 2.105 . S
O38 C30 1.268 . S
O39 Sc23 2.105 . S
O39 C29 1.268 . S
O40 Sc24 2.105 . S
O40 C31 1.268 . S
O41 Sc22 2.105 . S
O41 C27 1.268 . S
O42 Sc24 2.105 . S
O42 C26 1.268 . S
O43 Sc23 2.105 . S
O43 C28 1.268 1_455 S
Sc44 O47 2.025 . S
Sc44 O54 2.105 . S
Sc44 O57 2.105 . S
Sc44 O60 2.105 . S
Sc44 O63 2.105 . S
Sc45 O47 2.025 . S
Sc45 O55 2.105 . S
Sc45 O59 2.105 . S
Sc45 O61 2.105 . S
Sc45 O65 2.105 . S
Sc46 O47 2.025 . S
Sc46 O56 2.105 1_655 S
Sc46 O58 2.105 . S
Sc46 O62 2.105 . S
Sc46 O64 2.105 . S
O47 Sc44 2.025 . S
O47 Sc45 2.025 . S
O47 Sc46 2.025 . S
C48 O54 1.268 . S
C48 O64 1.268 . S
C49 O55 1.268 . S
C49 O63 1.268 . S
C50 O56 1.268 . S
C50 O65 1.268 1_455 S
C51 O57 1.268 . S
C51 O61 1.268 . S
C52 O58 1.268 . S
C52 O60 1.268 . S
C53 O59 1.268 . S
C53 O62 1.268 . S
O54 Sc44 2.105 . S
O54 C48 1.268 . S
O55 Sc45 2.105 . S
O55 C49 1.268 . S
O56 Sc46 2.105 1_455 S
O56 C50 1.268 . S
O57 Sc44 2.105 . S
O57 C51 1.268 . S
O58 Sc46 2.105 . S
O58 C52 1.268 . S
O59 Sc45 2.105 . S
O59 C53 1.268 . S
O60 Sc44 2.105 . S
O60 C52 1.268 . S
O61 Sc45 2.105 . S
O61 C51 1.268 . S
O62 Sc46 2.105 . S
O62 C53 1.268 . S
O63 Sc44 2.105 . S
O63 C49 1.268 . S
O64 Sc46 2.105 . S
O64 C48 1.268 . S
O65 Sc45 2.105 . S
O65 C50 1.268 1_655 S
Sc66 O69 2.025 . S
Sc66 O76 2.105 . S
Sc66 O79 2.105 . S
Sc66 O82 2.105 . S
Sc66 O85 2.105 . S
Sc67 O69 2.025 . S
Sc67 O77 2.105 . S
Sc67 O81 2.105 . S
Sc67 O83 2.105 . S
Sc67 O87 2.105 . S
Sc68 O69 2.025 . S
Sc68 O78 2.105 . S
Sc68 O80 2.105 . S
Sc68 O84 2.105 . S
Sc68 O86 2.105 . S
O69 Sc66 2.025 . S
O69 Sc67 2.025 . S
O69 Sc68 2.025 . S
C70 O76 1.268 . S
C70 O86 1.268 . S
C71 O77 1.268 . S
C71 O85 1.268 . S
C72 O78 1.268 . S
C72 O87 1.268 . S
C73 O79 1.268 . S
C73 O83 1.268 . S
C74 O80 1.268 . S
C74 O82 1.268 . S
C75 O81 1.268 . S
C75 O84 1.268 . S
O76 Sc66 2.105 . S
O76 C70 1.268 . S
O77 Sc67 2.105 . S
O77 C71 1.268 . S
O78 Sc68 2.105 . S
O78 C72 1.268 . S
O79 Sc66 2.105 . S
O79 C73 1.268 . S
O80 Sc68 2.105 . S
O80 C74 1.268 . S
O81 Sc67 2.105 . S
O81 C75 1.268 . S
O82 Sc66 2.105 . S
O82 C74 1.268 . S
O83 Sc67 2.105 . S
O83 C73 1.268 . S
O84 Sc68 2.105 . S
O84 C75 1.268 . S
O85 Sc66 2.105 . S
O85 C71 1.268 . S
O86 Sc68 2.105 . S
O86 C70 1.268 . S
O87 Sc67 2.105 . S
O87 C72 1.268 . S
Sc88 O91 2.025 . S
Sc88 O98 2.105 . S
Sc88 O101 2.105 . S
Sc88 O104 2.105 . S
Sc88 O107 2.105 . S
Sc89 O91 2.025 . S
Sc89 O99 2.105 . S
Sc89 O103 2.105 . S
Sc89 O105 2.105 . S
Sc89 O109 2.105 . S
Sc90 O91 2.025 . S
Sc90 O100 2.105 . S
Sc90 O102 2.105 . S
Sc90 O106 2.105 . S
Sc90 O108 2.105 . S
O91 Sc88 2.025 . S
O91 Sc89 2.025 . S
O91 Sc90 2.025 . S
C92 O98 1.268 . S
C92 O108 1.268 . S
C93 O99 1.268 . S
C93 O107 1.268 . S
C94 O100 1.268 . S
C94 O109 1.268 . S
C95 O101 1.268 . S
C95 O105 1.268 . S
C96 O102 1.268 . S
C96 O104 1.268 . S
C97 O103 1.268 . S
C97 O106 1.268 . S
O98 Sc88 2.105 . S
O98 C92 1.268 . S
O99 Sc89 2.105 . S
O99 C93 1.268 . S
O100 Sc90 2.105 . S
O100 C94 1.268 . S
O101 Sc88 2.105 . S
O101 C95 1.268 . S
O102 Sc90 2.105 . S
O102 C96 1.268 . S
O103 Sc89 2.105 . S
O103 C97 1.268 . S
O104 Sc88 2.105 . S
O104 C96 1.268 . S
O105 Sc89 2.105 . S
O105 C95 1.268 . S
O106 Sc90 2.105 . S
O106 C97 1.268 . S
O107 Sc88 2.105 . S
O107 C93 1.268 . S
O108 Sc90 2.105 . S
O108 C92 1.268 . S
O109 Sc89 2.105 . S
O109 C94 1.268 . S
Sc110 O113 2.025 . S
Sc110 O120 2.105 . S
Sc110 O123 2.105 . S
Sc110 O126 2.105 . S
Sc110 O129 2.105 . S
Sc111 O113 2.025 . S
Sc111 O121 2.105 . S
Sc111 O125 2.105 . S
Sc111 O127 2.105 . S
Sc111 O131 2.105 . S
Sc112 O113 2.025 . S
Sc112 O122 2.105 . S
Sc112 O124 2.105 . S
Sc112 O128 2.105 1_655 S
Sc112 O130 2.105 . S
O113 Sc110 2.025 . S
O113 Sc111 2.025 . S
O113 Sc112 2.025 . S
C114 O120 1.268 . S
C114 O130 1.268 . S
C115 O121 1.268 . S
C115 O129 1.268 . S
C116 O122 1.268 . S
C116 O131 1.268 . S
C117 O123 1.268 . S
C117 O127 1.268 . S
C118 O124 1.268 . S
C118 O126 1.268 . S
C119 O125 1.268 1_455 S
C119 O128 1.268 . S
O120 Sc110 2.105 . S
O120 C114 1.268 . S
O121 Sc111 2.105 . S
O121 C115 1.268 . S
O122 Sc112 2.105 . S
O122 C116 1.268 . S
O123 Sc110 2.105 . S
O123 C117 1.268 . S
O124 Sc112 2.105 . S
O124 C118 1.268 . S
O125 Sc111 2.105 . S
O125 C119 1.268 1_655 S
O126 Sc110 2.105 . S
O126 C118 1.268 . S
O127 Sc111 2.105 . S
O127 C117 1.268 . S
O128 Sc112 2.105 1_455 S
O128 C119 1.268 . S
O129 Sc110 2.105 . S
O129 C115 1.268 . S
O130 Sc112 2.105 . S
O130 C114 1.268 . S
O131 Sc111 2.105 . S
O131 C116 1.268 . S
Sc132 O135 2.025 . S
Sc132 O142 2.105 . S
Sc132 O145 2.105 . S
Sc132 O148 2.105 . S
Sc132 O151 2.105 1_455 S
Sc133 O135 2.025 . S
Sc133 O143 2.105 . S
Sc133 O147 2.105 . S
Sc133 O149 2.105 . S
Sc133 O153 2.105 . S
Sc134 O135 2.025 . S
Sc134 O144 2.105 . S
Sc134 O146 2.105 . S
Sc134 O150 2.105 . S
Sc134 O152 2.105 . S
O135 Sc132 2.025 . S
O135 Sc133 2.025 . S
O135 Sc134 2.025 . S
C136 O142 1.268 . S
C136 O152 1.268 . S
C137 O143 1.268 1_655 S
C137 O151 1.268 . S
C138 O144 1.268 . S
C138 O153 1.268 . S
C139 O145 1.268 . S
C139 O149 1.268 . S
C140 O146 1.268 . S
C140 O148 1.268 . S
C141 O147 1.268 . S
C141 O150 1.268 . S
O142 Sc132 2.105 . S
O142 C136 1.268 . S
O143 Sc133 2.105 . S
O143 C137 1.268 1_455 S
O144 Sc134 2.105 . S
O144 C138 1.268 . S
O145 Sc132 2.105 . S
O145 C139 1.268 . S
O146 Sc134 2.105 . S
O146 C140 1.268 . S
O147 Sc133 2.105 . S
O147 C141 1.268 . S
O148 Sc132 2.105 . S
O148 C140 1.268 . S
O149 Sc133 2.105 . S
O149 C139 1.268 . S
O150 Sc134 2.105 . S
O150 C141 1.268 . S
O151 Sc132 2.105 1_655 S
O151 C137 1.268 . S
O152 Sc134 2.105 . S
O152 C136 1.268 . S
O153 Sc133 2.105 . S
O153 C138 1.268 . S
Sc154 O157 2.025 . S
Sc154 O164 2.105 . S
Sc154 O167 2.105 . S
Sc154 O170 2.105 . S
Sc154 O173 2.105 . S
Sc155 O157 2.025 . S
Sc155 O165 2.105 . S
Sc155 O169 2.105 . S
Sc155 O171 2.105 . S
Sc155 O175 2.105 . S
Sc156 O157 2.025 . S
Sc156 O166 2.105 . S
Sc156 O168 2.105 . S
Sc156 O172 2.105 . S
Sc156 O174 2.105 . S
O157 Sc154 2.025 . S
O157 Sc155 2.025 . S
O157 Sc156 2.025 . S
C158 O164 1.268 . S
C158 O174 1.268 . S
C159 O165 1.268 . S
C159 O173 1.268 . S
C160 O166 1.268 . S
C160 O175 1.268 . S
C161 O167 1.268 . S
C161 O171 1.268 . S
C162 O168 1.268 . S
C162 O170 1.268 . S
C163 O169 1.268 . S
C163 O172 1.268 . S
O164 Sc154 2.105 . S
O164 C158 1.268 . S
O165 Sc155 2.105 . S
O165 C159 1.268 . S
O166 Sc156 2.105 . S
O166 C160 1.268 . S
O167 Sc154 2.105 . S
O167 C161 1.268 . S
O168 Sc156 2.105 . S
O168 C162 1.268 . S
O169 Sc155 2.105 . S
O169 C163 1.268 . S
O170 Sc154 2.105 . S
O170 C162 1.268 . S
O171 Sc155 2.105 . S
O171 C161 1.268 . S
O172 Sc156 2.105 . S
O172 C163 1.268 . S
O173 Sc154 2.105 . S
O173 C159 1.268 . S
O174 Sc156 2.105 . S
O174 C158 1.268 . S
O175 Sc155 2.105 . S
O175 C160 1.268 . S
C176 C177 1.387 . S
C176 H180 0.950 1_545 S
C176 C185 1.390 . S
C177 C176 1.387 . S
C177 C179 1.387 . S
H178 C185 0.950 . S
C179 C177 1.387 . S
C179 C181 1.390 . S
C179 H183 0.950 . S
H180 C176 0.950 1_565 S
C181 C179 1.390 . S
C181 C182 1.387 . S
C181 H184 0.950 . S
C182 C181 1.387 . S
C182 C185 1.387 . S
H183 C179 0.950 . S
H184 C181 0.950 . S
C185 C176 1.390 . S
C185 H178 0.950 . S
C185 C182 1.387 . S
C186 C187 1.387 . S
C186 H190 0.950 . S
C186 C195 1.390 . S
C187 C186 1.387 . S
C187 C189 1.387 . S
H188 C195 0.950 . S
C189 C187 1.387 . S
C189 C191 1.390 . S
C189 H193 0.950 . S
H190 C186 0.950 . S
C191 C189 1.390 . S
C191 C192 1.387 . S
C191 H194 0.950 . S
C192 C191 1.387 . S
C192 C195 1.387 . S
H193 C189 0.950 . S
H194 C191 0.950 . S
C195 C186 1.390 . S
C195 H188 0.950 . S
C195 C192 1.387 . S
C196 C197 1.387 . S
C196 H200 0.950 . S
C196 C205 1.390 . S
C197 C196 1.387 . S
C197 C199 1.387 . S
H198 C205 0.950 . S
C199 C197 1.387 . S
C199 C201 1.390 . S
C199 H203 0.950 . S
H200 C196 0.950 . S
C201 C199 1.390 . S
C201 C202 1.387 . S
C201 H204 0.950 . S
C202 C201 1.387 . S
C202 C205 1.387 . S
H203 C199 0.950 . S
H204 C201 0.950 . S
C205 C196 1.390 . S
C205 H198 0.950 . S
C205 C202 1.387 . S
C206 C207 1.387 . S
C206 H210 0.950 . S
C206 C215 1.390 . S
C207 C206 1.387 . S
C207 C209 1.387 . S
H208 C215 0.950 . S
C209 C207 1.387 . S
C209 C211 1.390 . S
C209 H213 0.950 . S
H210 C206 0.950 . S
C211 C209 1.390 . S
C211 C212 1.391 . S
C211 H214 0.950 1_545 S
C212 C211 1.391 . S
C212 C215 1.394 . S
H213 C209 0.950 . S
H214 C211 0.950 1_565 S
C215 C206 1.390 . S
C215 H208 0.950 . S
C215 C212 1.394 . S
C216 C217 1.387 . S
C216 H220 0.950 . S
C216 C225 1.390 . S
C217 C216 1.387 . S
C217 C219 1.387 . S
H218 C225 0.950 . S
C219 C217 1.387 . S
C219 C221 1.390 . S
C219 H223 0.950 1_565 S
H220 C216 0.950 . S
C221 C219 1.390 . S
C221 C222 1.387 . S
C221 H224 0.950 . S
C222 C221 1.387 . S
C222 C225 1.387 . S
H223 C219 0.950 1_545 S
H224 C221 0.950 . S
C225 C216 1.390 . S
C225 H218 0.950 . S
C225 C222 1.387 . S
C226 C227 1.387 . S
C226 H230 0.950 . S
C226 C235 1.390 . S
C227 C226 1.387 . S
C227 C229 1.387 . S
H228 C235 0.950 . S
C229 C227 1.387 . S
C229 C231 1.390 . S
C229 H233 0.950 . S
H230 C226 0.950 . S
C231 C229 1.390 . S
C231 C232 1.387 . S
C231 H234 0.950 . S
C232 C231 1.387 . S
C232 C235 1.387 . S
H233 C229 0.950 . S
H234 C231 0.950 . S
C235 C226 1.390 . S
C235 H228 0.950 . S
C235 C232 1.387 . S
C236 C237 1.387 . S
C236 H240 0.950 . S
C236 C245 1.390 . S
C237 C236 1.387 . S
C237 C239 1.387 . S
H238 C245 0.950 . S
C239 C237 1.387 . S
C239 C241 1.390 . S
C239 H243 0.950 . S
H240 C236 0.950 . S
C241 C239 1.390 . S
C241 C242 1.387 . S
C241 H244 0.950 . S
C242 C241 1.387 . S
C242 C245 1.387 . S
H243 C239 0.950 . S
H244 C241 0.950 . S
C245 C236 1.390 . S
C245 H238 0.950 . S
C245 C242 1.387 . S
C246 C247 1.390 . S
C246 H250 0.950 1_565 S
C246 C255 1.390 . S
C247 C246 1.390 . S
C247 C249 1.395 . S
H248 C255 0.950 . S
C249 C247 1.395 . S
C249 C251 1.390 . S
C249 H253 0.950 . S
H250 C246 0.950 1_545 S
C251 C249 1.390 . S
C251 C252 1.387 . S
C251 H254 0.950 . S
C252 C251 1.387 . S
C252 C255 1.387 . S
H253 C249 0.950 . S
H254 C251 0.950 . S
C255 C246 1.390 . S
C255 H248 0.950 . S
C255 C252 1.387 . S
C256 C257 1.387 . S
C256 H260 0.950 . S
C256 C265 1.390 . S
C257 C256 1.387 . S
C257 C259 1.387 . S
H258 C265 0.950 . S
C259 C257 1.387 . S
C259 C261 1.390 . S
C259 H263 0.950 . S
H260 C256 0.950 . S
C261 C259 1.390 . S
C261 C262 1.387 . S
C261 H264 0.950 . S
C262 C261 1.387 . S
C262 C265 1.387 . S
H263 C259 0.950 . S
H264 C261 0.950 . S
C265 C256 1.390 . S
C265 H258 0.950 . S
C265 C262 1.387 . S
C266 C267 1.398 . S
C266 H270 0.950 . S
C266 C275 1.390 1_665 S
C267 C266 1.398 . S
C267 C269 1.377 1_554 S
H268 C275 0.950 . S
C269 C267 1.377 1_556 S
C269 C271 1.390 1_665 S
C269 H273 0.950 . S
H270 C266 0.950 . S
C271 C269 1.390 1_445 S
C271 C272 1.398 . S
C271 H274 0.950 . S
C272 C271 1.398 . S
C272 C275 1.377 1_556 S
H273 C269 0.950 . S
H274 C271 0.950 . S
C275 C266 1.390 1_445 S
C275 H268 0.950 . S
C275 C272 1.377 1_554 S
C276 C277 1.387 . S
C276 H280 0.950 . S
C276 C285 1.390 1_645 S
C277 C276 1.387 . S
C277 C279 1.387 . S
H278 C285 0.950 . S
C279 C277 1.387 . S
C279 C281 1.390 1_645 S
C279 H283 0.950 . S
H280 C276 0.950 . S
C281 C279 1.390 1_465 S
C281 C282 1.387 . S
C281 H284 0.950 . S
C282 C281 1.387 . S
C282 C285 1.387 . S
H283 C279 0.950 . S
H284 C281 0.950 . S
C285 C276 1.390 1_465 S
C285 H278 0.950 . S
C285 C282 1.387 . S
C286 C287 1.398 . S
C286 H290 0.950 . S
C286 C295 1.390 . S
C287 C286 1.398 . S
C287 C289 1.377 1_556 S
H288 C295 0.950 . S
C289 C287 1.377 1_554 S
C289 C291 1.390 . S
C289 H293 0.950 . S
H290 C286 0.950 . S
C291 C289 1.390 . S
C291 C292 1.398 . S
C291 H294 0.950 . S
C292 C291 1.398 . S
C292 C295 1.377 1_554 S
H293 C289 0.950 . S
H294 C291 0.950 . S
C295 C286 1.390 . S
C295 H288 0.950 . S
C295 C292 1.377 1_556 S
C296 C297 1.387 . S
C296 H300 0.950 . S
C296 C305 1.390 . S
C297 C296 1.387 . S
C297 C299 1.387 . S
H298 C305 0.950 . S
C299 C297 1.387 . S
C299 C301 1.390 . S
C299 H303 0.950 . S
H300 C296 0.950 . S
C301 C299 1.390 . S
C301 C302 1.387 . S
C301 H304 0.950 . S
C302 C301 1.387 . S
C302 C305 1.387 . S
H303 C299 0.950 . S
H304 C301 0.950 . S
C305 C296 1.390 . S
C305 H298 0.950 . S
C305 C302 1.387 . S
C306 C307 1.387 . S
C306 H310 0.950 . S
C306 C315 1.390 1_455 S
C307 C306 1.387 . S
C307 C309 1.387 . S
H308 C315 0.950 . S
C309 C307 1.387 . S
C309 C311 1.390 1_455 S
C309 H313 0.950 . S
H310 C306 0.950 . S
C311 C309 1.390 1_655 S
C311 C312 1.387 . S
C311 H314 0.950 . S
C312 C311 1.387 . S
C312 C315 1.387 . S
H313 C309 0.950 . S
H314 C311 0.950 . S
C315 C306 1.390 1_655 S
C315 H308 0.950 . S
C315 C312 1.387 . S
C316 C317 1.387 . S
C316 H320 0.950 . S
C316 C325 1.390 . S
C317 C316 1.387 . S
C317 C319 1.387 . S
H318 C325 0.950 . S
C319 C317 1.387 . S
C319 C321 1.390 . S
C319 H323 0.950 . S
H320 C316 0.950 . S
C321 C319 1.390 . S
C321 C322 1.387 . S
C321 H324 0.950 . S
C322 C321 1.387 . S
C322 C325 1.387 . S
H323 C319 0.950 . S
H324 C321 0.950 . S
C325 C316 1.390 . S
C325 H318 0.950 . S
C325 C322 1.387 . S
C326 C327 1.387 . S
C326 H330 0.950 . S
C326 C335 1.390 1_655 S
C327 C326 1.387 . S
C327 C329 1.387 . S
H328 C335 0.950 . S
C329 C327 1.387 . S
C329 C331 1.390 1_655 S
C329 H333 0.950 . S
H330 C326 0.950 . S
C331 C329 1.390 1_455 S
C331 C332 1.387 . S
C331 H334 0.950 . S
C332 C331 1.387 . S
C332 C335 1.387 . S
H333 C329 0.950 . S
H334 C331 0.950 . S
C335 C326 1.390 1_455 S
C335 H328 0.950 . S
C335 C332 1.387 . S
C336 C337 1.387 . S
C336 H340 0.950 . S
C336 C345 1.390 . S
C337 C336 1.387 . S
C337 C339 1.387 . S
H338 C345 0.950 . S
C339 C337 1.387 . S
C339 C341 1.390 . S
C339 H343 0.950 . S
H340 C336 0.950 . S
C341 C339 1.390 . S
C341 C342 1.387 . S
C341 H344 0.950 . S
C342 C341 1.387 . S
C342 C345 1.387 . S
H343 C339 0.950 . S
H344 C341 0.950 . S
C345 C336 1.390 . S
C345 H338 0.950 . S
C345 C342 1.387 . S
C346 C347 1.387 . S
C346 H350 0.950 . S
C346 C355 1.390 . S
C347 C346 1.387 . S
C347 C349 1.387 . S
H348 C355 0.950 . S
C349 C347 1.387 . S
C349 C351 1.390 1_556 S
C349 H353 0.950 . S
H350 C346 0.950 . S
C351 C349 1.390 1_554 S
C351 C352 1.387 . S
C351 H354 0.950 . S
C352 C351 1.387 . S
C352 C355 1.387 1_554 S
H353 C349 0.950 . S
H354 C351 0.950 . S
C355 C346 1.390 . S
C355 H348 0.950 . S
C355 C352 1.387 1_556 S
C356 C357 1.387 . S
C356 H360 0.950 . S
C356 C365 1.390 . S
C357 C356 1.387 . S
C357 C359 1.387 . S
H358 C365 0.950 . S
C359 C357 1.387 . S
C359 C361 1.390 . S
C359 H363 0.950 . S
H360 C356 0.950 . S
C361 C359 1.390 . S
C361 C362 1.387 . S
C361 H364 0.950 . S
C362 C361 1.387 . S
C362 C365 1.387 . S
H363 C359 0.950 . S
H364 C361 0.950 . S
C365 C356 1.390 . S
C365 H358 0.950 . S
C365 C362 1.387 . S
C366 C367 1.387 . S
C366 H370 0.950 . S
C366 C375 1.390 1_554 S
C367 C366 1.387 . S
C367 C369 1.387 . S
H368 C375 0.950 . S
C369 C367 1.387 . S
C369 C371 1.390 . S
C369 H373 0.950 . S
H370 C366 0.950 . S
C371 C369 1.390 . S
C371 C372 1.387 1_554 S
C371 H374 0.950 . S
C372 C371 1.387 1_556 S
C372 C375 1.387 . S
H373 C369 0.950 . S
H374 C371 0.950 . S
C375 C366 1.390 1_556 S
C375 H368 0.950 . S
C375 C372 1.387 . S
C376 C377 1.387 . S
C376 H380 0.950 . S
C376 C385 1.390 . S
C377 C376 1.387 . S
C377 C379 1.387 . S
H378 C385 0.950 . S
C379 C377 1.387 . S
C379 C381 1.390 . S
C379 H383 0.950 . S
H380 C376 0.950 . S
C381 C379 1.390 . S
C381 C382 1.387 . S
C381 H384 0.950 . S
C382 C381 1.387 . S
C382 C385 1.387 . S
H383 C379 0.950 . S
H384 C381 0.950 . S
C385 C376 1.390 . S
C385 H378 0.950 . S
C385 C382 1.387 . S
C386 C387 1.387 . S
C386 H390 0.950 . S
C386 C395 1.390 1_554 S
C387 C386 1.387 . S
C387 C389 1.387 . S
H388 C395 0.950 . S
C389 C387 1.387 . S
C389 C391 1.390 . S
C389 H393 0.950 . S
H390 C386 0.950 . S
C391 C389 1.390 . S
C391 C392 1.387 1_554 S
C391 H394 0.950 . S
C392 C391 1.387 1_556 S
C392 C395 1.387 . S
H393 C389 0.950 . S
H394 C391 0.950 . S
C395 C386 1.390 1_556 S
C395 H388 0.950 . S
C395 C392 1.387 . S
C396 C397 1.387 . S
C396 H400 0.950 . S
C396 C405 1.390 . S
C397 C396 1.387 . S
C397 C399 1.387 . S
H398 C405 0.950 . S
C399 C397 1.387 . S
C399 C401 1.390 . S
C399 H403 0.950 . S
H400 C396 0.950 . S
C401 C399 1.390 . S
C401 C402 1.387 . S
C401 H404 0.950 . S
C402 C401 1.387 . S
C402 C405 1.387 . S
H403 C399 0.950 . S
H404 C401 0.950 . S
C405 C396 1.390 . S
C405 H398 0.950 . S
C405 C402 1.387 . S
C406 C407 1.387 . S
C406 H410 0.950 . S
C406 C415 1.390 1_554 S
C407 C406 1.387 . S
C407 C409 1.387 1_554 S
H408 C415 0.950 . S
C409 C407 1.387 1_556 S
C409 C411 1.390 . S
C409 H413 0.950 . S
H410 C406 0.950 . S
C411 C409 1.390 . S
C411 C412 1.387 . S
C411 H414 0.950 . S
C412 C411 1.387 . S
C412 C415 1.387 . S
H413 C409 0.950 . S
H414 C411 0.950 . S
C415 C406 1.390 1_556 S
C415 H408 0.950 . S
C415 C412 1.387 . S
C177 C140 1.699 1_545 S
C182 C5 1.597 . S
C187 C27 1.593 . S
C192 C162 1.699 . S
C197 C96 1.699 . S
C202 C49 1.593 . S
C207 C75 1.593 . S
C212 C114 1.688 1_545 S
C217 C52 1.699 1_565 S
C222 C94 1.597 . S
C227 C117 1.597 . S
C232 C70 1.699 . S
C237 C8 1.699 . S
C242 C138 1.593 . S
C247 C30 1.688 1_565 S
C252 C160 1.593 . S
C257 C9 1.335 . S
C262 C95 1.335 . S
C267 C116 1.343 . S
C272 C31 1.343 . S
C277 C53 1.335 . S
C282 C139 1.335 . S
C287 C161 1.343 . S
C292 C71 1.343 . S
C297 C74 1.536 . S
C302 C4 1.536 . S
C307 C26 1.536 . S
C312 C48 1.536 . S
C317 C158 1.536 . S
C322 C92 1.536 . S
C327 C118 1.536 . S
C332 C136 1.536 . S
C337 C6 1.418 . S
C342 C51 1.536 . S
C347 C28 1.418 . S
C352 C72 1.535 . S
C357 C50 1.419 . S
C362 C7 1.535 . S
C367 C73 1.422 . S
C372 C29 1.538 . S
C377 C93 1.422 . S
C382 C141 1.537 . S
C387 C119 1.418 . S
C392 C163 1.535 . S
C397 C137 1.422 . S
C402 C97 1.537 . S
C407 C115 1.535 . S
C412 C159 1.418 . S
