# Generated by pormake.
# Topology upb, (4)-cn, num edge types: 1
# Building blocks:
#     Node 0, Type 0, BuildingBlock: NAHDIM_clean_sbu_0, # of connection points: 4
#     Node 1, Type 0, BuildingBlock: NAHDIM_clean_sbu_0, # of connection points: 4
#     Node 2, Type 0, BuildingBlock: NAHDIM_clean_sbu_0, # of connection points: 4
#     Node 3, Type 0, BuildingBlock: NAHDIM_clean_sbu_0, # of connection points: 4
#     Node 4, Type 0, BuildingBlock: NAHDIM_clean_sbu_0, # of connection points: 4
#     Node 5, Type 0, BuildingBlock: NAHDIM_clean_sbu_0, # of connection points: 4
#     Node 6, Type 0, BuildingBlock: NAHDIM_clean_sbu_0, # of connection points: 4
#     Node 7, Type 0, BuildingBlock: NAHDIM_clean_sbu_0, # of connection points: 4
#     Node 8, Type 0, BuildingBlock: NAHDIM_clean_sbu_0, # of connection points: 4
#     Node 9, Type 0, BuildingBlock: NAHDIM_clean_sbu_0, # of connection points: 4
#     Node 10, Type 0, BuildingBlock: NAHDIM_clean_sbu_0, # of connection points: 4
#     Node 11, Type 0, BuildingBlock: NAHDIM_clean_sbu_0, # of connection points: 4
#     Node 12, Type 0, BuildingBlock: NAHDIM_clean_sbu_0, # of connection points: 4
#     Node 13, Type 0, BuildingBlock: NAHDIM_clean_sbu_0, # of connection points: 4
#     Node 14, Type 0, BuildingBlock: NAHDIM_clean_sbu_0, # of connection points: 4
#     Node 15, Type 0, BuildingBlock: NAHDIM_clean_sbu_0, # of connection points: 4
#     Edge 16, Type (0, 0), BuildingBlock: OJICUG_clean_linker_0, # of connection points: 2
#     Edge 17, Type (0, 0), BuildingBlock: OJICUG_clean_linker_0, # of connection points: 2
#     Edge 18, Type (0, 0), BuildingBlock: OJICUG_clean_linker_0, # of connection points: 2
#     Edge 19, Type (0, 0), BuildingBlock: OJICUG_clean_linker_0, # of connection points: 2
#     Edge 20, Type (0, 0), BuildingBlock: OJICUG_clean_linker_0, # of connection points: 2
#     Edge 21, Type (0, 0), BuildingBlock: OJICUG_clean_linker_0, # of connection points: 2
#     Edge 22, Type (0, 0), BuildingBlock: OJICUG_clean_linker_0, # of connection points: 2
#     Edge 23, Type (0, 0), BuildingBlock: OJICUG_clean_linker_0, # of connection points: 2
#     Edge 24, Type (0, 0), BuildingBlock: OJICUG_clean_linker_0, # of connection points: 2
#     Edge 25, Type (0, 0), BuildingBlock: OJICUG_clean_linker_0, # of connection points: 2
#     Edge 26, Type (0, 0), BuildingBlock: OJICUG_clean_linker_0, # of connection points: 2
#     Edge 27, Type (0, 0), BuildingBlock: OJICUG_clean_linker_0, # of connection points: 2
#     Edge 28, Type (0, 0), BuildingBlock: OJICUG_clean_linker_0, # of connection points: 2
#     Edge 29, Type (0, 0), BuildingBlock: OJICUG_clean_linker_0, # of connection points: 2
#     Edge 30, Type (0, 0), BuildingBlock: OJICUG_clean_linker_0, # of connection points: 2
#     Edge 31, Type (0, 0), BuildingBlock: OJICUG_clean_linker_0, # of connection points: 2
#     Edge 32, Type (0, 0), BuildingBlock: OJICUG_clean_linker_0, # of connection points: 2
#     Edge 33, Type (0, 0), BuildingBlock: OJICUG_clean_linker_0, # of connection points: 2
#     Edge 34, Type (0, 0), BuildingBlock: OJICUG_clean_linker_0, # of connection points: 2
#     Edge 35, Type (0, 0), BuildingBlock: OJICUG_clean_linker_0, # of connection points: 2
#     Edge 36, Type (0, 0), BuildingBlock: OJICUG_clean_linker_0, # of connection points: 2
#     Edge 37, Type (0, 0), BuildingBlock: OJICUG_clean_linker_0, # of connection points: 2
#     Edge 38, Type (0, 0), BuildingBlock: OJICUG_clean_linker_0, # of connection points: 2
#     Edge 39, Type (0, 0), BuildingBlock: OJICUG_clean_linker_0, # of connection points: 2
#     Edge 40, Type (0, 0), BuildingBlock: OJICUG_clean_linker_0, # of connection points: 2
#     Edge 41, Type (0, 0), BuildingBlock: OJICUG_clean_linker_0, # of connection points: 2
#     Edge 42, Type (0, 0), BuildingBlock: OJICUG_clean_linker_0, # of connection points: 2
#     Edge 43, Type (0, 0), BuildingBlock: OJICUG_clean_linker_0, # of connection points: 2
#     Edge 44, Type (0, 0), BuildingBlock: OJICUG_clean_linker_0, # of connection points: 2
#     Edge 45, Type (0, 0), BuildingBlock: OJICUG_clean_linker_0, # of connection points: 2
#     Edge 46, Type (0, 0), BuildingBlock: OJICUG_clean_linker_0, # of connection points: 2
#     Edge 47, Type (0, 0), BuildingBlock: OJICUG_clean_linker_0, # of connection points: 2
# Relax obj value: 0.223
# Max RMSD: 0.106
# Mean RMSD: 0.106
data_MOF--net-upb--node1-NAHDIM_clean_sbu_0--edge1-OJICUG_clean_linker_0
_symmetry_space_group_name_H-M    P1
_symmetry_Int_Tables_number       1
_symmetry_cell_setting            triclinic
loop_
_symmetry_equiv_pos_as_xyz
'x, y, z'
_cell_length_a     29.094949
_cell_length_b     28.91329
_cell_length_c     33.240973
_cell_angle_alpha  90.08321
_cell_angle_beta   90.028722
_cell_angle_gamma 89.959653
loop_
_atom_site_label
_atom_site_type_symbol
_atom_site_fract_x
_atom_site_fract_y
_atom_site_fract_z
_atom_type_partial_charge
C0 C 0.02879 0.35292 0.30018 0.0
O1 O 0.02795 0.36289 0.33871 0.0
O2 O 0.98662 0.285 0.38239 0.0
Zn3 Zn 0.00018 0.26146 0.32668 0.0
O4 O 0.0528 0.21677 0.33216 0.0
C5 C 0.90771 0.22524 0.32461 0.0
O6 O 0.90186 0.25398 0.35482 0.0
O7 O 0.01721 0.31267 0.28852 0.0
C8 C 0.07737 0.20148 0.30347 0.0
O9 O 0.06973 0.21614 0.26668 0.0
C10 C 0.01899 0.29176 0.40738 0.0
O11 O 0.06174 0.28658 0.39547 0.0
O12 O 0.94621 0.22437 0.30656 0.0
C13 C 0.6278 0.03674 0.30688 0.0
O14 O 0.62491 0.04667 0.34535 0.0
O15 O 0.69793 0.99296 0.38826 0.0
Zn16 Zn 0.7171 0.00504 0.33085 0.0
O17 O 0.75497 0.06312 0.33066 0.0
C18 C 0.75954 0.9145 0.32993 0.0
O19 O 0.73116 0.90704 0.35994 0.0
O20 O 0.66331 0.01584 0.29395 0.0
C21 C 0.78206 0.0733 0.30205 0.0
O22 O 0.78554 0.04514 0.27114 0.0
C23 C 0.69514 0.02577 0.41366 0.0
O24 O 0.70189 0.06847 0.40158 0.0
O25 O 0.75807 0.9531 0.3117 0.0
C26 C 0.95588 0.63706 0.31204 0.0
O27 O 0.94135 0.63681 0.34943 0.0
O28 O 0.99718 0.71049 0.39189 0.0
Zn29 Zn 0.98434 0.72839 0.33445 0.0
O30 O 0.92505 0.76439 0.33348 0.0
C31 C 0.07409 0.77091 0.33299 0.0
O32 O 0.08195 0.74118 0.36204 0.0
O33 O 0.97722 0.67236 0.29901 0.0
C34 C 0.91553 0.79392 0.30644 0.0
O35 O 0.94499 0.80107 0.27717 0.0
C36 C 0.96548 0.70794 0.41809 0.0
O37 O 0.92262 0.71459 0.40706 0.0
O38 O 0.03526 0.77052 0.3154 0.0
C39 C 0.36002 0.94964 0.29873 0.0
O40 O 0.36609 0.94141 0.3372 0.0
O41 O 0.2987 0.99967 0.38242 0.0
Zn42 Zn 0.27362 0.98525 0.32716 0.0
O43 O 0.23218 0.92967 0.33136 0.0
C44 C 0.2072 0.05457 0.33594 0.0
O45 O 0.20591 0.03404 0.37117 0.0
O46 O 0.32366 0.97026 0.28738 0.0
C47 C 0.20071 0.92166 0.30575 0.0
O48 O 0.19503 0.9503 0.2755 0.0
C49 C 0.30251 0.96859 0.40924 0.0
O50 O 0.2932 0.92545 0.39984 0.0
O51 O 0.2352 0.03969 0.30956 0.0
C52 C 0.02838 0.65129 0.69351 0.0
O53 O 0.03103 0.64353 0.65466 0.0
O54 O 0.98123 0.718 0.61237 0.0
Zn55 Zn 0.99684 0.74153 0.66778 0.0
O56 O 0.05116 0.78371 0.66123 0.0
C57 C 0.90647 0.78283 0.67011 0.0
O58 O 0.89923 0.75465 0.63974 0.0
O59 O 0.01314 0.68999 0.70594 0.0
C60 C 0.08053 0.79396 0.68809 0.0
O61 O 0.07685 0.77579 0.72415 0.0
C62 C 0.01258 0.71278 0.58613 0.0
O63 O 0.05565 0.71942 0.59652 0.0
O64 O 0.94487 0.78138 0.68835 0.0
C65 C 0.36235 0.04905 0.6872 0.0
O66 O 0.36534 0.0609 0.64917 0.0
O67 O 0.3063 0.98905 0.60352 0.0
Zn68 Zn 0.28095 0.0036 0.65867 0.0
O69 O 0.23511 0.05521 0.65256 0.0
C70 C 0.21565 0.9343 0.65186 0.0
O71 O 0.21285 0.95583 0.61715 0.0
O72 O 0.32978 0.02272 0.69826 0.0
C73 C 0.22394 0.08378 0.67996 0.0
O74 O 0.2438 0.08119 0.71538 0.0
C75 C 0.30702 0.01994 0.57634 0.0
O76 O 0.2953 0.06251 0.58569 0.0
O77 O 0.24504 0.9482 0.67747 0.0
C78 C 0.96094 0.35865 0.68366 0.0
O79 O 0.94822 0.35926 0.64576 0.0
O80 O 0.01225 0.29555 0.60221 0.0
Zn81 Zn 0.00256 0.2731 0.65894 0.0
O82 O 0.9523 0.22524 0.65749 0.0
C83 C 0.07299 0.2094 0.65043 0.0
O84 O 0.04863 0.20386 0.61747 0.0
O85 O 0.98566 0.32541 0.6963 0.0
C86 C 0.92137 0.21843 0.68381 0.0
O87 O 0.91997 0.24475 0.71604 0.0
C88 C 0.97964 0.29423 0.57678 0.0
O89 O 0.9385 0.28155 0.58872 0.0
O90 O 0.06027 0.23979 0.6758 0.0
C91 C 0.63 0.97637 0.69017 0.0
O92 O 0.62589 0.96913 0.65134 0.0
O93 O 0.69875 0.01929 0.60883 0.0
Zn94 Zn 0.7193 0.00742 0.66589 0.0
O95 O 0.75817 0.94983 0.66566 0.0
C96 C 0.79252 0.06852 0.65933 0.0
O97 O 0.79778 0.04129 0.62797 0.0
O98 O 0.66624 0.9957 0.7034 0.0
C99 C 0.78645 0.93964 0.69341 0.0
O100 O 0.79135 0.96786 0.72413 0.0
C101 C 0.69624 0.98643 0.58346 0.0
O102 O 0.70391 0.94386 0.59551 0.0
O103 O 0.75898 0.06113 0.68297 0.0
C104 C 0.53136 0.86094 0.80002 0.0
O105 O 0.53686 0.86537 0.83904 0.0
O106 O 0.49456 0.78545 0.87922 0.0
Zn107 Zn 0.50512 0.76753 0.82127 0.0
O108 O 0.56043 0.7256 0.81899 0.0
C109 C 0.41367 0.72883 0.82214 0.0
O110 O 0.40888 0.75671 0.85308 0.0
O111 O 0.51644 0.82288 0.78593 0.0
C112 C 0.55837 0.68942 0.84054 0.0
O113 O 0.52135 0.6822 0.86228 0.0
C114 C 0.52689 0.78963 0.90469 0.0
O115 O 0.56968 0.78519 0.89266 0.0
O116 O 0.45105 0.7295 0.80233 0.0
C117 C 0.13443 0.54398 0.80506 0.0
O118 O 0.13311 0.55468 0.84343 0.0
O119 O 0.20026 0.4959 0.88573 0.0
Zn120 Zn 0.22159 0.50884 0.82917 0.0
O121 O 0.26101 0.56598 0.83003 0.0
C122 C 0.2936 0.4464 0.83661 0.0
O123 O 0.29792 0.47262 0.86872 0.0
O124 O 0.16857 0.52119 0.7917 0.0
C125 C 0.28819 0.57605 0.80147 0.0
O126 O 0.2909 0.54835 0.77019 0.0
C127 C 0.19888 0.52759 0.91225 0.0
O128 O 0.20868 0.5703 0.90192 0.0
O129 O 0.26116 0.45501 0.81206 0.0
C130 C 0.46162 0.15347 0.80644 0.0
O131 O 0.45399 0.14636 0.84486 0.0
O132 O 0.5122 0.21331 0.89099 0.0
Zn133 Zn 0.50141 0.23902 0.83534 0.0
O134 O 0.4518 0.28748 0.83927 0.0
C135 C 0.57912 0.29528 0.84507 0.0
O136 O 0.56209 0.29506 0.88167 0.0
O137 O 0.48262 0.18992 0.79561 0.0
C138 C 0.42251 0.29645 0.81197 0.0
O139 O 0.42313 0.27261 0.7783 0.0
C140 C 0.47997 0.21269 0.91677 0.0
O141 O 0.43832 0.22469 0.90558 0.0
O142 O 0.55897 0.27198 0.81781 0.0
C143 C 0.86882 0.4733 0.79969 0.0
O144 O 0.88024 0.47037 0.83781 0.0
O145 O 0.81153 0.51515 0.88779 0.0
Zn146 Zn 0.7829 0.50259 0.83374 0.0
O147 O 0.74316 0.44624 0.83978 0.0
C148 C 0.70773 0.55753 0.84815 0.0
O149 O 0.70834 0.52786 0.87806 0.0
O150 O 0.82956 0.48945 0.79038 0.0
C151 C 0.72393 0.42545 0.81061 0.0
O152 O 0.73144 0.43973 0.7737 0.0
C153 C 0.81882 0.48198 0.91204 0.0
O154 O 0.81167 0.43935 0.89982 0.0
O155 O 0.73939 0.55525 0.8218 0.0
C156 C 0.52716 0.14565 0.19321 0.0
O157 O 0.53216 0.13894 0.15438 0.0
O158 O 0.49001 0.21778 0.11126 0.0
Zn159 Zn 0.50096 0.23817 0.16856 0.0
O160 O 0.55634 0.27999 0.16974 0.0
C161 C 0.41012 0.27869 0.16661 0.0
O162 O 0.4055 0.25178 0.135 0.0
O163 O 0.51253 0.18452 0.20575 0.0
C164 C 0.55491 0.31595 0.14785 0.0
O165 O 0.51827 0.32335 0.12562 0.0
C166 C 0.52223 0.21195 0.08596 0.0
O167 O 0.56508 0.21652 0.09781 0.0
O168 O 0.44713 0.27692 0.18692 0.0
C169 C 0.87052 0.52074 0.19454 0.0
O170 O 0.88171 0.52559 0.15652 0.0
O171 O 0.81078 0.48631 0.10526 0.0
Zn172 Zn 0.78319 0.49813 0.15979 0.0
O173 O 0.74805 0.55798 0.15704 0.0
C174 C 0.70461 0.44756 0.14416 0.0
O175 O 0.70527 0.47884 0.11552 0.0
O176 O 0.83079 0.50549 0.20332 0.0
C177 C 0.72125 0.57051 0.18518 0.0
O178 O 0.71704 0.54412 0.21712 0.0
C179 C 0.81918 0.5195 0.08134 0.0
O180 O 0.81352 0.56222 0.09393 0.0
O181 O 0.73694 0.4475 0.16997 0.0
C182 C 0.46306 0.8457 0.182 0.0
O183 O 0.45312 0.84928 0.1436 0.0
O184 O 0.51651 0.7826 0.0999 0.0
Zn185 Zn 0.50433 0.75976 0.15627 0.0
O186 O 0.45277 0.71357 0.15293 0.0
C187 C 0.59645 0.72183 0.15622 0.0
O188 O 0.60031 0.74614 0.12305 0.0
O189 O 0.48632 0.81117 0.19409 0.0
C190 C 0.42327 0.70584 0.1803 0.0
O191 O 0.42492 0.72965 0.21396 0.0
C192 C 0.48453 0.78339 0.07384 0.0
O193 O 0.44255 0.77242 0.0848 0.0
O194 O 0.55948 0.72436 0.17648 0.0
C195 C 0.13171 0.46189 0.18783 0.0
O196 O 0.13123 0.45029 0.14964 0.0
O197 O 0.19642 0.51214 0.10694 0.0
Zn198 Zn 0.21765 0.49867 0.16349 0.0
O199 O 0.25691 0.44141 0.16207 0.0
C200 C 0.29011 0.55988 0.1561 0.0
O201 O 0.29373 0.53353 0.124 0.0
O202 O 0.16489 0.48614 0.20107 0.0
C203 C 0.28445 0.4309 0.19028 0.0
O204 O 0.28757 0.45813 0.22184 0.0
C205 C 0.19565 0.48058 0.08027 0.0
O206 O 0.2054 0.43785 0.09061 0.0
O207 O 0.25771 0.55194 0.1808 0.0
C208 C 0.13992 0.14742 0.28054 0.0
C209 C 0.11237 0.16545 0.31159 0.0
H210 H 0.19178 0.09823 0.26381 0.0
C211 C 0.11749 0.14771 0.35068 0.0
H212 H 0.13687 0.1604 0.25011 0.0
C213 C 0.14864 0.11214 0.35843 0.0
C214 C 0.17568 0.09353 0.32737 0.0
H215 H 0.09695 0.16082 0.37536 0.0
H216 H 0.15123 0.09904 0.38886 0.0
C217 C 0.17139 0.11184 0.28838 0.0
C218 C 0.83447 0.18431 0.3412 0.0
C219 C 0.87257 0.18971 0.31568 0.0
H220 H 0.7761 0.14328 0.35696 0.0
C221 C 0.87864 0.15845 0.28367 0.0
H222 H 0.8287 0.20782 0.36609 0.0
C223 C 0.84829 0.12146 0.27833 0.0
C224 C 0.81151 0.11482 0.30508 0.0
H225 H 0.90757 0.16176 0.26338 0.0
H226 H 0.85459 0.09725 0.25405 0.0
C227 C 0.80438 0.14717 0.33606 0.0
C228 C 0.8282 0.88935 0.28978 0.0
C229 C 0.79661 0.88092 0.32093 0.0
H230 H 0.8904 0.86833 0.26059 0.0
C231 C 0.80277 0.84177 0.34535 0.0
H232 H 0.82438 0.91915 0.27035 0.0
C233 C 0.84073 0.81283 0.33991 0.0
C234 C 0.87327 0.82223 0.30977 0.0
H235 H 0.77904 0.83417 0.36955 0.0
H236 H 0.84506 0.78363 0.35995 0.0
C237 C 0.86608 0.86023 0.28419 0.0
C238 C 0.1003 0.83939 0.29276 0.0
C239 C 0.1082 0.80739 0.32381 0.0
H240 H 0.12341 0.90047 0.26255 0.0
C241 C 0.14787 0.81212 0.34761 0.0
H242 H 0.0701 0.83669 0.27384 0.0
C243 C 0.17823 0.84882 0.34133 0.0
C244 C 0.16978 0.88147 0.31093 0.0
H245 H 0.15503 0.78809 0.37179 0.0
H246 H 0.20803 0.85189 0.36069 0.0
C247 C 0.13086 0.87597 0.2863 0.0
C248 C 0.12018 0.84685 0.64004 0.0
C249 C 0.11713 0.82785 0.67883 0.0
H250 H 0.15362 0.89491 0.60122 0.0
C251 C 0.14835 0.84262 0.70849 0.0
H252 H 0.0969 0.83611 0.61636 0.0
C253 C 0.18119 0.87655 0.69971 0.0
C254 C 0.1833 0.89632 0.66113 0.0
H255 H 0.14697 0.82854 0.73865 0.0
H256 H 0.20429 0.88788 0.7233 0.0
C257 C 0.15279 0.88065 0.63133 0.0
C258 C 0.17295 0.14931 0.70217 0.0
C259 C 0.18702 0.11791 0.67225 0.0
H260 H 0.12586 0.2032 0.7188 0.0
C261 C 0.16447 0.1183 0.63487 0.0
H262 H 0.18971 0.14995 0.73126 0.0
C263 C 0.12803 0.14855 0.62783 0.0
C264 C 0.11326 0.17933 0.65791 0.0
H265 H 0.17447 0.09473 0.61107 0.0
H266 H 0.11114 0.14739 0.59879 0.0
C267 C 0.13642 0.17984 0.69503 0.0
C268 C 0.89128 0.15158 0.64408 0.0
C269 C 0.88788 0.18044 0.67801 0.0
H270 H 0.86415 0.09392 0.61177 0.0
C271 C 0.85261 0.17226 0.70604 0.0
H272 H 0.918 0.1568 0.62187 0.0
C273 C 0.82143 0.13593 0.70016 0.0
C274 C 0.82506 0.10709 0.66621 0.0
H275 H 0.84906 0.19387 0.73249 0.0
H276 H 0.7946 0.13042 0.72222 0.0
C277 C 0.86033 0.11538 0.6383 0.0
C278 C 0.85214 0.88978 0.71608 0.0
C279 C 0.81494 0.89742 0.68992 0.0
H280 H 0.91024 0.84739 0.73052 0.0
C281 C 0.8061 0.86506 0.6593 0.0
H282 H 0.85975 0.91398 0.74007 0.0
C283 C 0.83474 0.82676 0.65404 0.0
C284 C 0.87309 0.82011 0.67908 0.0
H285 H 0.77748 0.86969 0.63884 0.0
H286 H 0.82754 0.80318 0.62949 0.0
C287 C 0.88103 0.85158 0.71063 0.0
C288 C 0.63458 0.65983 0.81547 0.0
C289 C 0.597 0.65614 0.84192 0.0
H290 H 0.69919 0.6313 0.79638 0.0
C291 C 0.59639 0.62 0.87006 0.0
H292 H 0.63599 0.6873 0.79339 0.0
C293 C 0.63247 0.58836 0.87191 0.0
C294 C 0.67001 0.59176 0.84549 0.0
H295 H 0.56807 0.61616 0.89092 0.0
H296 H 0.6307 0.56099 0.89408 0.0
C297 C 0.67071 0.62776 0.81712 0.0
C298 C 0.38405 0.66178 0.78172 0.0
C299 C 0.37884 0.69268 0.81411 0.0
H300 H 0.35936 0.60078 0.75217 0.0
C301 C 0.34184 0.68649 0.84073 0.0
H302 H 0.41215 0.66563 0.76063 0.0
C303 C 0.31187 0.64916 0.83608 0.0
C304 C 0.318 0.61735 0.80452 0.0
H305 H 0.33676 0.70965 0.86598 0.0
H306 H 0.28437 0.64481 0.8577 0.0
C307 C 0.35383 0.62457 0.7769 0.0
C308 C 0.3594 0.39737 0.85907 0.0
C309 C 0.32598 0.40764 0.82988 0.0
H310 H 0.41568 0.35437 0.87644 0.0
C311 C 0.32414 0.38066 0.79469 0.0
H312 H 0.36176 0.41734 0.88659 0.0
C313 C 0.35535 0.34435 0.78879 0.0
C314 C 0.38885 0.33427 0.81803 0.0
H315 H 0.29877 0.38771 0.77164 0.0
H316 H 0.35325 0.32429 0.76132 0.0
C317 C 0.39036 0.36113 0.85327 0.0
C318 C 0.67869 0.37747 0.8588 0.0
C319 C 0.68992 0.38866 0.81887 0.0
H320 H 0.63513 0.33918 0.89824 0.0
C321 C 0.66651 0.36628 0.78736 0.0
H322 H 0.69617 0.39385 0.88382 0.0
C323 C 0.63144 0.33458 0.7957 0.0
C324 C 0.61901 0.32498 0.83569 0.0
H325 H 0.6745 0.37403 0.75627 0.0
H326 H 0.61316 0.31875 0.77086 0.0
C327 C 0.64358 0.34613 0.86709 0.0
C328 C 0.66711 0.37663 0.1732 0.0
C329 C 0.66663 0.41356 0.14575 0.0
H330 H 0.63225 0.31646 0.19529 0.0
C331 C 0.62929 0.4179 0.11918 0.0
H332 H 0.69544 0.37232 0.19402 0.0
C333 C 0.59319 0.3862 0.12 0.0
C334 C 0.5936 0.34916 0.14727 0.0
H335 H 0.62773 0.44596 0.09767 0.0
H336 H 0.565 0.39074 0.09908 0.0
C337 C 0.63098 0.34461 0.17385 0.0
C338 C 0.62681 0.65894 0.20085 0.0
C339 C 0.6317 0.68685 0.16651 0.0
H340 H 0.65145 0.60042 0.23386 0.0
C341 C 0.66856 0.67839 0.1402 0.0
H342 H 0.59887 0.66465 0.22181 0.0
C343 C 0.6985 0.64144 0.14698 0.0
C344 C 0.6924 0.61228 0.18034 0.0
H345 H 0.67344 0.6993 0.11353 0.0
H346 H 0.72573 0.63506 0.12545 0.0
C347 C 0.65694 0.62209 0.20775 0.0
C348 C 0.3886 0.64268 0.13891 0.0
C349 C 0.38832 0.66926 0.17433 0.0
H350 H 0.35809 0.58759 0.10556 0.0
C351 C 0.35492 0.65999 0.20381 0.0
H352 H 0.41378 0.64886 0.11554 0.0
C353 C 0.32266 0.62463 0.19801 0.0
C354 C 0.32337 0.59785 0.16268 0.0
H355 H 0.35376 0.67989 0.23142 0.0
H356 H 0.29743 0.61811 0.22126 0.0
C357 C 0.35662 0.60741 0.13321 0.0
C358 C 0.35016 0.38172 0.21389 0.0
C359 C 0.31434 0.38972 0.18638 0.0
H360 H 0.40851 0.3402 0.22938 0.0
C361 C 0.30835 0.35887 0.15409 0.0
H362 H 0.3556 0.40477 0.23917 0.0
C363 C 0.33842 0.32173 0.14865 0.0
C364 C 0.37536 0.31476 0.17522 0.0
H365 H 0.28088 0.36384 0.13251 0.0
H366 H 0.33342 0.29931 0.12288 0.0
C367 C 0.38046 0.34469 0.2083 0.0
C368 C 0.04535 0.37747 0.22966 0.0
C369 C 0.04894 0.3858 0.27116 0.0
H370 H 0.06793 0.39573 0.17068 0.0
C371 C 0.07538 0.42343 0.28466 0.0
H372 H 0.02479 0.34907 0.21831 0.0
C373 C 0.1005 0.45004 0.25733 0.0
C374 C 0.09922 0.43976 0.21602 0.0
H375 H 0.07862 0.43089 0.31647 0.0
H376 H 0.12239 0.47735 0.26877 0.0
C377 C 0.07002 0.40435 0.20235 0.0
C378 C 0.56349 0.09122 0.2914 0.0
C379 C 0.59519 0.05783 0.27811 0.0
H380 H 0.51685 0.14518 0.27487 0.0
C381 C 0.59914 0.04911 0.23665 0.0
H382 H 0.55931 0.09855 0.32315 0.0
C383 C 0.57451 0.07569 0.20895 0.0
C384 C 0.54581 0.11174 0.2222 0.0
H385 H 0.62294 0.02329 0.22547 0.0
H386 H 0.58007 0.06968 0.17715 0.0
C387 C 0.53919 0.11806 0.26371 0.0
C388 C 0.88595 0.54017 0.26669 0.0
C389 C 0.89904 0.54266 0.22607 0.0
H390 H 0.89423 0.56772 0.32597 0.0
C391 C 0.93592 0.57148 0.21527 0.0
H392 H 0.85797 0.51797 0.27606 0.0
C393 C 0.95643 0.60035 0.24381 0.0
C394 C 0.94076 0.6006 0.28377 0.0
H395 H 0.94715 0.57394 0.18429 0.0
H396 H 0.98302 0.62405 0.23411 0.0
C397 C 0.90676 0.56874 0.29531 0.0
C398 C 0.4265 0.8986 0.28104 0.0
C399 C 0.39132 0.92878 0.2687 0.0
H400 H 0.47697 0.84877 0.2633 0.0
C401 C 0.38372 0.9353 0.22734 0.0
H402 H 0.43348 0.89301 0.31267 0.0
C403 C 0.40883 0.91005 0.199 0.0
C404 C 0.44187 0.87759 0.21147 0.0
H405 H 0.35712 0.95858 0.21683 0.0
H406 H 0.40085 0.91453 0.16742 0.0
C407 C 0.45143 0.87317 0.25273 0.0
C408 C 0.10363 0.55629 0.73547 0.0
C409 C 0.10132 0.56543 0.77695 0.0
H410 H 0.08179 0.57596 0.67646 0.0
C411 C 0.07029 0.5991 0.79093 0.0
H412 H 0.12692 0.53031 0.72378 0.0
C413 C 0.04473 0.62551 0.76383 0.0
C414 C 0.04934 0.61849 0.72222 0.0
H415 H 0.06737 0.60677 0.82273 0.0
H416 H 0.02274 0.65266 0.77547 0.0
C417 C 0.07772 0.58246 0.70836 0.0
C418 C 0.44792 0.13097 0.73468 0.0
C419 C 0.44107 0.12254 0.77587 0.0
H420 H 0.42882 0.11397 0.67434 0.0
C421 C 0.41161 0.08644 0.78748 0.0
H422 H 0.47066 0.15829 0.72472 0.0
C423 C 0.38748 0.06107 0.75856 0.0
C424 C 0.39247 0.07119 0.71745 0.0
H425 H 0.40579 0.07886 0.81897 0.0
H426 H 0.36374 0.03463 0.76854 0.0
C427 C 0.42394 0.1055 0.70578 0.0
C428 C 0.95664 0.39377 0.75244 0.0
C429 C 0.94212 0.39309 0.71215 0.0
H430 H 0.94542 0.42045 0.81163 0.0
C431 C 0.90692 0.42335 0.69999 0.0
H432 H 0.98399 0.37122 0.76266 0.0
C433 C 0.8846 0.45143 0.7281 0.0
C434 C 0.8973 0.45007 0.76886 0.0
H435 H 0.89514 0.42392 0.66908 0.0
H436 H 0.85622 0.47281 0.71813 0.0
C437 C 0.9346 0.42215 0.78048 0.0
C438 C 0.60303 0.9596 0.76018 0.0
C439 C 0.59793 0.95373 0.71844 0.0
H440 H 0.58532 0.9352 0.81887 0.0
C441 C 0.56562 0.92155 0.70409 0.0
H442 H 0.62732 0.98442 0.77219 0.0
C443 C 0.54186 0.89305 0.73082 0.0
C444 C 0.54959 0.89651 0.77243 0.0
H445 H 0.56056 0.9164 0.67212 0.0
H446 H 0.51902 0.86691 0.71874 0.0
C447 C 0.5789 0.93139 0.78694 0.0
C448 C 0.96283 0.29767 0.46413 0.0
C449 C 0.00847 0.29941 0.45037 0.0
H450 H 0.91789 0.29498 0.51495 0.0
C451 C 0.04415 0.30458 0.47852 0.0
H452 H 0.93451 0.29397 0.4432 0.0
C453 C 0.03459 0.30531 0.51969 0.0
C454 C 0.98917 0.30069 0.5335 0.0
H455 H 0.07966 0.30636 0.46887 0.0
H456 H 0.06301 0.30751 0.54066 0.0
C457 C 0.95329 0.29821 0.50528 0.0
C458 C 0.68903 0.96022 0.51195 0.0
C459 C 0.68996 0.99644 0.54019 0.0
H460 H 0.68954 0.94103 0.44978 0.0
C461 C 0.6883 0.04233 0.5264 0.0
H462 H 0.69 0.92446 0.52158 0.0
C463 C 0.68811 0.05183 0.48521 0.0
C464 C 0.68946 0.01564 0.45697 0.0
H465 H 0.68878 0.07104 0.54738 0.0
H466 H 0.68836 0.0876 0.47558 0.0
C467 C 0.68872 0.96972 0.47076 0.0
C468 C 0.03492 0.70202 0.51411 0.0
C469 C 0.00036 0.70506 0.5435 0.0
H470 H 0.05102 0.70016 0.45139 0.0
C471 C 0.95408 0.70443 0.53135 0.0
H472 H 0.0709 0.70212 0.52249 0.0
C473 C 0.94266 0.70338 0.49054 0.0
C474 C 0.97729 0.70285 0.4611 0.0
H475 H 0.92661 0.7065 0.55327 0.0
H476 H 0.90672 0.70458 0.48212 0.0
C477 C 0.02351 0.70089 0.47332 0.0
C478 C 0.31356 0.04096 0.5036 0.0
C479 C 0.31358 0.00686 0.53368 0.0
H480 H 0.31058 0.05566 0.44063 0.0
C481 C 0.31525 0.96006 0.52226 0.0
H482 H 0.31261 0.07734 0.51139 0.0
C483 C 0.31389 0.9476 0.48163 0.0
C484 C 0.31107 0.98169 0.45163 0.0
H485 H 0.31546 0.93292 0.54469 0.0
H486 H 0.31328 0.91121 0.47386 0.0
C487 C 0.31243 0.02852 0.46299 0.0
C488 C 0.47013 0.79316 0.96114 0.0
C489 C 0.51604 0.79407 0.94799 0.0
H490 H 0.42419 0.78938 0.0112 0.0
C491 C 0.55139 0.79583 0.97677 0.0
H492 H 0.44204 0.79202 0.93976 0.0
C493 C 0.54111 0.79446 0.01783 0.0
C494 C 0.49527 0.79111 0.03089 0.0
H495 H 0.5871 0.7968 0.96764 0.0
H496 H 0.56919 0.79429 0.03924 0.0
C497 C 0.45987 0.79161 0.00214 0.0
C498 C 0.18958 0.4692 0.96713 0.0
C499 C 0.1916 0.5157 0.95499 0.0
H500 H 0.189 0.42163 0.01633 0.0
C501 C 0.19018 0.5506 0.98442 0.0
H502 H 0.1904 0.44147 0.94519 0.0
C503 C 0.18918 0.53921 0.02523 0.0
C504 C 0.18984 0.49268 0.0374 0.0
H505 H 0.19136 0.58677 0.97603 0.0
H506 H 0.18978 0.56691 0.0472 0.0
C507 C 0.18883 0.45781 0.00793 0.0
C508 C 0.54657 0.20208 0.01416 0.0
C509 C 0.51127 0.20554 0.04284 0.0
H510 H 0.56438 0.20107 0.95172 0.0
C511 C 0.46536 0.20635 0.02962 0.0
H512 H 0.58228 0.20109 0.02334 0.0
C513 C 0.45509 0.2064 0.98858 0.0
C514 C 0.49049 0.20549 0.95986 0.0
H515 H 0.4373 0.20871 0.05093 0.0
H516 H 0.41944 0.20882 0.97941 0.0
C517 C 0.53629 0.20197 0.97307 0.0
C518 C 0.82949 0.53735 0.96921 0.0
C519 C 0.82767 0.49158 0.95502 0.0
H520 H 0.82875 0.58214 0.02045 0.0
C521 C 0.82941 0.4551 0.98286 0.0
H522 H 0.82859 0.56625 0.94852 0.0
C523 C 0.82944 0.46421 0.02411 0.0
C524 C 0.82779 0.50998 0.03832 0.0
H525 H 0.82847 0.41942 0.9729 0.0
H526 H 0.82854 0.4353 0.04479 0.0
C527 C 0.82958 0.54647 0.01048 0.0
loop_
_geom_bond_atom_site_label_1
_geom_bond_atom_site_label_2
_geom_bond_distance
_geom_bond_site_symmetry_2
_ccdc_geom_bond_type
C0 O1 1.160 . S
C0 O7 1.185 . S
O1 C0 1.160 . S
O2 Zn3 1.899 1_655 S
O2 C10 1.284 1_655 S
Zn3 O2 1.899 1_455 S
Zn3 O4 2.032 . S
Zn3 O7 2.086 . S
Zn3 O12 1.977 1_455 S
O4 Zn3 2.032 . S
O4 C8 1.278 . S
C5 O6 1.203 . S
C5 O12 1.267 . S
O6 C5 1.203 . S
O7 C0 1.185 . S
O7 Zn3 2.086 . S
C8 O4 1.278 . S
C8 O9 1.211 . S
O9 C8 1.211 . S
C10 O2 1.284 1_455 S
C10 O11 1.273 . S
O11 C10 1.273 . S
O12 Zn3 1.977 1_655 S
O12 C5 1.267 . S
C13 O14 1.160 . S
C13 O20 1.185 . S
O14 C13 1.160 . S
O15 Zn16 1.899 1_565 S
O15 C23 1.284 1_565 S
Zn16 O15 1.899 1_545 S
Zn16 O17 2.032 . S
Zn16 O20 2.086 . S
Zn16 O25 1.977 1_545 S
O17 Zn16 2.032 . S
O17 C21 1.278 . S
C18 O19 1.203 . S
C18 O25 1.267 . S
O19 C18 1.203 . S
O20 C13 1.185 . S
O20 Zn16 2.086 . S
C21 O17 1.278 . S
C21 O22 1.211 . S
O22 C21 1.211 . S
C23 O15 1.284 1_545 S
C23 O24 1.273 . S
O24 C23 1.273 . S
O25 Zn16 1.977 1_565 S
O25 C18 1.267 . S
C26 O27 1.160 . S
C26 O33 1.185 . S
O27 C26 1.160 . S
O28 Zn29 1.899 1_455 S
O28 C36 1.284 1_455 S
Zn29 O28 1.899 1_655 S
Zn29 O30 2.032 . S
Zn29 O33 2.086 . S
Zn29 O38 1.977 1_655 S
O30 Zn29 2.032 . S
O30 C34 1.278 . S
C31 O32 1.203 . S
C31 O38 1.267 . S
O32 C31 1.203 . S
O33 C26 1.185 . S
O33 Zn29 2.086 . S
C34 O30 1.278 . S
C34 O35 1.211 . S
O35 C34 1.211 . S
C36 O28 1.284 1_655 S
C36 O37 1.273 . S
O37 C36 1.273 . S
O38 Zn29 1.977 1_455 S
O38 C31 1.267 . S
C39 O40 1.160 . S
C39 O46 1.185 . S
O40 C39 1.160 . S
O41 Zn42 1.899 1_545 S
O41 C49 1.284 1_545 S
Zn42 O41 1.899 1_565 S
Zn42 O43 2.032 . S
Zn42 O46 2.086 . S
Zn42 O51 1.977 1_565 S
O43 Zn42 2.032 . S
O43 C47 1.278 . S
C44 O45 1.203 . S
C44 O51 1.267 . S
O45 C44 1.203 . S
O46 C39 1.185 . S
O46 Zn42 2.086 . S
C47 O43 1.278 . S
C47 O48 1.211 . S
O48 C47 1.211 . S
C49 O41 1.284 1_565 S
C49 O50 1.273 . S
O50 C49 1.273 . S
O51 Zn42 1.977 1_545 S
O51 C44 1.267 . S
C52 O53 1.160 . S
C52 O59 1.185 . S
O53 C52 1.160 . S
O54 Zn55 1.899 1_655 S
O54 C62 1.284 1_655 S
Zn55 O54 1.899 1_455 S
Zn55 O56 2.032 . S
Zn55 O59 2.086 . S
Zn55 O64 1.977 1_455 S
O56 Zn55 2.032 . S
O56 C60 1.278 . S
C57 O58 1.203 . S
C57 O64 1.267 . S
O58 C57 1.203 . S
O59 C52 1.185 . S
O59 Zn55 2.086 . S
C60 O56 1.278 . S
C60 O61 1.211 . S
O61 C60 1.211 . S
C62 O54 1.284 1_455 S
C62 O63 1.273 . S
O63 C62 1.273 . S
O64 Zn55 1.977 1_655 S
O64 C57 1.267 . S
C65 O66 1.160 . S
C65 O72 1.185 . S
O66 C65 1.160 . S
O67 Zn68 1.899 1_565 S
O67 C75 1.284 1_565 S
Zn68 O67 1.899 1_545 S
Zn68 O69 2.032 . S
Zn68 O72 2.086 . S
Zn68 O77 1.977 1_545 S
O69 Zn68 2.032 . S
O69 C73 1.278 . S
C70 O71 1.203 . S
C70 O77 1.267 . S
O71 C70 1.203 . S
O72 C65 1.185 . S
O72 Zn68 2.086 . S
C73 O69 1.278 . S
C73 O74 1.211 . S
O74 C73 1.211 . S
C75 O67 1.284 1_545 S
C75 O76 1.273 . S
O76 C75 1.273 . S
O77 Zn68 1.977 1_565 S
O77 C70 1.267 . S
C78 O79 1.160 . S
C78 O85 1.185 . S
O79 C78 1.160 . S
O80 Zn81 1.899 1_455 S
O80 C88 1.284 1_455 S
Zn81 O80 1.899 1_655 S
Zn81 O82 2.032 . S
Zn81 O85 2.086 . S
Zn81 O90 1.977 1_655 S
O82 Zn81 2.032 . S
O82 C86 1.278 . S
C83 O84 1.203 . S
C83 O90 1.267 . S
O84 C83 1.203 . S
O85 C78 1.185 . S
O85 Zn81 2.086 . S
C86 O82 1.278 . S
C86 O87 1.211 . S
O87 C86 1.211 . S
C88 O80 1.284 1_655 S
C88 O89 1.273 . S
O89 C88 1.273 . S
O90 Zn81 1.977 1_455 S
O90 C83 1.267 . S
C91 O92 1.160 . S
C91 O98 1.185 . S
O92 C91 1.160 . S
O93 Zn94 1.899 1_545 S
O93 C101 1.284 1_545 S
Zn94 O93 1.899 1_565 S
Zn94 O95 2.032 . S
Zn94 O98 2.086 . S
Zn94 O103 1.977 1_565 S
O95 Zn94 2.032 . S
O95 C99 1.278 . S
C96 O97 1.203 . S
C96 O103 1.267 . S
O97 C96 1.203 . S
O98 C91 1.185 . S
O98 Zn94 2.086 . S
C99 O95 1.278 . S
C99 O100 1.211 . S
O100 C99 1.211 . S
C101 O93 1.284 1_565 S
C101 O102 1.273 . S
O102 C101 1.273 . S
O103 Zn94 1.977 1_545 S
O103 C96 1.267 . S
C104 O105 1.160 . S
C104 O111 1.185 . S
O105 C104 1.160 . S
O106 Zn107 1.899 . S
O106 C114 1.284 . S
Zn107 O106 1.899 . S
Zn107 O108 2.032 . S
Zn107 O111 2.086 . S
Zn107 O116 1.977 . S
O108 Zn107 2.032 . S
O108 C112 1.278 . S
C109 O110 1.203 . S
C109 O116 1.267 . S
O110 C109 1.203 . S
O111 C104 1.185 . S
O111 Zn107 2.086 . S
C112 O108 1.278 . S
C112 O113 1.211 . S
O113 C112 1.211 . S
C114 O106 1.284 . S
C114 O115 1.273 . S
O115 C114 1.273 . S
O116 Zn107 1.977 . S
O116 C109 1.267 . S
C117 O118 1.160 . S
C117 O124 1.185 . S
O118 C117 1.160 . S
O119 Zn120 1.899 . S
O119 C127 1.284 . S
Zn120 O119 1.899 . S
Zn120 O121 2.032 . S
Zn120 O124 2.086 . S
Zn120 O129 1.977 . S
O121 Zn120 2.032 . S
O121 C125 1.278 . S
C122 O123 1.203 . S
C122 O129 1.267 . S
O123 C122 1.203 . S
O124 C117 1.185 . S
O124 Zn120 2.086 . S
C125 O121 1.278 . S
C125 O126 1.211 . S
O126 C125 1.211 . S
C127 O119 1.284 . S
C127 O128 1.273 . S
O128 C127 1.273 . S
O129 Zn120 1.977 . S
O129 C122 1.267 . S
C130 O131 1.160 . S
C130 O137 1.185 . S
O131 C130 1.160 . S
O132 Zn133 1.899 . S
O132 C140 1.284 . S
Zn133 O132 1.899 . S
Zn133 O134 2.032 . S
Zn133 O137 2.086 . S
Zn133 O142 1.977 . S
O134 Zn133 2.032 . S
O134 C138 1.278 . S
C135 O136 1.203 . S
C135 O142 1.267 . S
O136 C135 1.203 . S
O137 C130 1.185 . S
O137 Zn133 2.086 . S
C138 O134 1.278 . S
C138 O139 1.211 . S
O139 C138 1.211 . S
C140 O132 1.284 . S
C140 O141 1.273 . S
O141 C140 1.273 . S
O142 Zn133 1.977 . S
O142 C135 1.267 . S
C143 O144 1.160 . S
C143 O150 1.185 . S
O144 C143 1.160 . S
O145 Zn146 1.899 . S
O145 C153 1.284 . S
Zn146 O145 1.899 . S
Zn146 O147 2.032 . S
Zn146 O150 2.086 . S
Zn146 O155 1.977 . S
O147 Zn146 2.032 . S
O147 C151 1.278 . S
C148 O149 1.203 . S
C148 O155 1.267 . S
O149 C148 1.203 . S
O150 C143 1.185 . S
O150 Zn146 2.086 . S
C151 O147 1.278 . S
C151 O152 1.211 . S
O152 C151 1.211 . S
C153 O145 1.284 . S
C153 O154 1.273 . S
O154 C153 1.273 . S
O155 Zn146 1.977 . S
O155 C148 1.267 . S
C156 O157 1.160 . S
C156 O163 1.185 . S
O157 C156 1.160 . S
O158 Zn159 1.899 . S
O158 C166 1.284 . S
Zn159 O158 1.899 . S
Zn159 O160 2.032 . S
Zn159 O163 2.086 . S
Zn159 O168 1.977 . S
O160 Zn159 2.032 . S
O160 C164 1.278 . S
C161 O162 1.203 . S
C161 O168 1.267 . S
O162 C161 1.203 . S
O163 C156 1.185 . S
O163 Zn159 2.086 . S
C164 O160 1.278 . S
C164 O165 1.211 . S
O165 C164 1.211 . S
C166 O158 1.284 . S
C166 O167 1.273 . S
O167 C166 1.273 . S
O168 Zn159 1.977 . S
O168 C161 1.267 . S
C169 O170 1.160 . S
C169 O176 1.185 . S
O170 C169 1.160 . S
O171 Zn172 1.899 . S
O171 C179 1.284 . S
Zn172 O171 1.899 . S
Zn172 O173 2.032 . S
Zn172 O176 2.086 . S
Zn172 O181 1.977 . S
O173 Zn172 2.032 . S
O173 C177 1.278 . S
C174 O175 1.203 . S
C174 O181 1.267 . S
O175 C174 1.203 . S
O176 C169 1.185 . S
O176 Zn172 2.086 . S
C177 O173 1.278 . S
C177 O178 1.211 . S
O178 C177 1.211 . S
C179 O171 1.284 . S
C179 O180 1.273 . S
O180 C179 1.273 . S
O181 Zn172 1.977 . S
O181 C174 1.267 . S
C182 O183 1.160 . S
C182 O189 1.185 . S
O183 C182 1.160 . S
O184 Zn185 1.899 . S
O184 C192 1.284 . S
Zn185 O184 1.899 . S
Zn185 O186 2.032 . S
Zn185 O189 2.086 . S
Zn185 O194 1.977 . S
O186 Zn185 2.032 . S
O186 C190 1.278 . S
C187 O188 1.203 . S
C187 O194 1.267 . S
O188 C187 1.203 . S
O189 C182 1.185 . S
O189 Zn185 2.086 . S
C190 O186 1.278 . S
C190 O191 1.211 . S
O191 C190 1.211 . S
C192 O184 1.284 . S
C192 O193 1.273 . S
O193 C192 1.273 . S
O194 Zn185 1.977 . S
O194 C187 1.267 . S
C195 O196 1.160 . S
C195 O202 1.185 . S
O196 C195 1.160 . S
O197 Zn198 1.899 . S
O197 C205 1.284 . S
Zn198 O197 1.899 . S
Zn198 O199 2.032 . S
Zn198 O202 2.086 . S
Zn198 O207 1.977 . S
O199 Zn198 2.032 . S
O199 C203 1.278 . S
C200 O201 1.203 . S
C200 O207 1.267 . S
O201 C200 1.203 . S
O202 C195 1.185 . S
O202 Zn198 2.086 . S
C203 O199 1.278 . S
C203 O204 1.211 . S
O204 C203 1.211 . S
C205 O197 1.284 . S
C205 O206 1.273 . S
O206 C205 1.273 . S
O207 Zn198 1.977 . S
O207 C200 1.267 . S
C208 C209 1.387 . S
C208 H212 0.950 . S
C208 C217 1.390 . S
C209 C208 1.387 . S
C209 C211 1.387 . S
H210 C217 0.950 . S
C211 C209 1.387 . S
C211 C213 1.390 . S
C211 H215 0.950 . S
H212 C208 0.950 . S
C213 C211 1.390 . S
C213 C214 1.387 . S
C213 H216 0.950 . S
C214 C213 1.387 . S
C214 C217 1.387 . S
H215 C211 0.950 . S
H216 C213 0.950 . S
C217 C208 1.390 . S
C217 H210 0.950 . S
C217 C214 1.387 . S
C218 C219 1.387 . S
C218 H222 0.950 . S
C218 C227 1.390 . S
C219 C218 1.387 . S
C219 C221 1.387 . S
H220 C227 0.950 . S
C221 C219 1.387 . S
C221 C223 1.390 . S
C221 H225 0.950 . S
H222 C218 0.950 . S
C223 C221 1.390 . S
C223 C224 1.387 . S
C223 H226 0.950 . S
C224 C223 1.387 . S
C224 C227 1.387 . S
H225 C221 0.950 . S
H226 C223 0.950 . S
C227 C218 1.390 . S
C227 H220 0.950 . S
C227 C224 1.387 . S
C228 C229 1.387 . S
C228 H232 0.950 . S
C228 C237 1.390 . S
C229 C228 1.387 . S
C229 C231 1.387 . S
H230 C237 0.950 . S
C231 C229 1.387 . S
C231 C233 1.390 . S
C231 H235 0.950 . S
H232 C228 0.950 . S
C233 C231 1.390 . S
C233 C234 1.387 . S
C233 H236 0.950 . S
C234 C233 1.387 . S
C234 C237 1.387 . S
H235 C231 0.950 . S
H236 C233 0.950 . S
C237 C228 1.390 . S
C237 H230 0.950 . S
C237 C234 1.387 . S
C238 C239 1.387 . S
C238 H242 0.950 . S
C238 C247 1.390 . S
C239 C238 1.387 . S
C239 C241 1.387 . S
H240 C247 0.950 . S
C241 C239 1.387 . S
C241 C243 1.390 . S
C241 H245 0.950 . S
H242 C238 0.950 . S
C243 C241 1.390 . S
C243 C244 1.387 . S
C243 H246 0.950 . S
C244 C243 1.387 . S
C244 C247 1.387 . S
H245 C241 0.950 . S
H246 C243 0.950 . S
C247 C238 1.390 . S
C247 H240 0.950 . S
C247 C244 1.387 . S
C248 C249 1.387 . S
C248 H252 0.950 . S
C248 C257 1.390 . S
C249 C248 1.387 . S
C249 C251 1.387 . S
H250 C257 0.950 . S
C251 C249 1.387 . S
C251 C253 1.390 . S
C251 H255 0.950 . S
H252 C248 0.950 . S
C253 C251 1.390 . S
C253 C254 1.387 . S
C253 H256 0.950 . S
C254 C253 1.387 . S
C254 C257 1.387 . S
H255 C251 0.950 . S
H256 C253 0.950 . S
C257 C248 1.390 . S
C257 H250 0.950 . S
C257 C254 1.387 . S
C258 C259 1.387 . S
C258 H262 0.950 . S
C258 C267 1.390 . S
C259 C258 1.387 . S
C259 C261 1.387 . S
H260 C267 0.950 . S
C261 C259 1.387 . S
C261 C263 1.390 . S
C261 H265 0.950 . S
H262 C258 0.950 . S
C263 C261 1.390 . S
C263 C264 1.387 . S
C263 H266 0.950 . S
C264 C263 1.387 . S
C264 C267 1.387 . S
H265 C261 0.950 . S
H266 C263 0.950 . S
C267 C258 1.390 . S
C267 H260 0.950 . S
C267 C264 1.387 . S
C268 C269 1.387 . S
C268 H272 0.950 . S
C268 C277 1.390 . S
C269 C268 1.387 . S
C269 C271 1.387 . S
H270 C277 0.950 . S
C271 C269 1.387 . S
C271 C273 1.390 . S
C271 H275 0.950 . S
H272 C268 0.950 . S
C273 C271 1.390 . S
C273 C274 1.387 . S
C273 H276 0.950 . S
C274 C273 1.387 . S
C274 C277 1.387 . S
H275 C271 0.950 . S
H276 C273 0.950 . S
C277 C268 1.390 . S
C277 H270 0.950 . S
C277 C274 1.387 . S
C278 C279 1.387 . S
C278 H282 0.950 . S
C278 C287 1.390 . S
C279 C278 1.387 . S
C279 C281 1.387 . S
H280 C287 0.950 . S
C281 C279 1.387 . S
C281 C283 1.390 . S
C281 H285 0.950 . S
H282 C278 0.950 . S
C283 C281 1.390 . S
C283 C284 1.387 . S
C283 H286 0.950 . S
C284 C283 1.387 . S
C284 C287 1.387 . S
H285 C281 0.950 . S
H286 C283 0.950 . S
C287 C278 1.390 . S
C287 H280 0.950 . S
C287 C284 1.387 . S
C288 C289 1.387 . S
C288 H292 0.950 . S
C288 C297 1.390 . S
C289 C288 1.387 . S
C289 C291 1.387 . S
H290 C297 0.950 . S
C291 C289 1.387 . S
C291 C293 1.390 . S
C291 H295 0.950 . S
H292 C288 0.950 . S
C293 C291 1.390 . S
C293 C294 1.387 . S
C293 H296 0.950 . S
C294 C293 1.387 . S
C294 C297 1.387 . S
H295 C291 0.950 . S
H296 C293 0.950 . S
C297 C288 1.390 . S
C297 H290 0.950 . S
C297 C294 1.387 . S
C298 C299 1.387 . S
C298 H302 0.950 . S
C298 C307 1.390 . S
C299 C298 1.387 . S
C299 C301 1.387 . S
H300 C307 0.950 . S
C301 C299 1.387 . S
C301 C303 1.390 . S
C301 H305 0.950 . S
H302 C298 0.950 . S
C303 C301 1.390 . S
C303 C304 1.387 . S
C303 H306 0.950 . S
C304 C303 1.387 . S
C304 C307 1.387 . S
H305 C301 0.950 . S
H306 C303 0.950 . S
C307 C298 1.390 . S
C307 H300 0.950 . S
C307 C304 1.387 . S
C308 C309 1.387 . S
C308 H312 0.950 . S
C308 C317 1.390 . S
C309 C308 1.387 . S
C309 C311 1.387 . S
H310 C317 0.950 . S
C311 C309 1.387 . S
C311 C313 1.390 . S
C311 H315 0.950 . S
H312 C308 0.950 . S
C313 C311 1.390 . S
C313 C314 1.387 . S
C313 H316 0.950 . S
C314 C313 1.387 . S
C314 C317 1.387 . S
H315 C311 0.950 . S
H316 C313 0.950 . S
C317 C308 1.390 . S
C317 H310 0.950 . S
C317 C314 1.387 . S
C318 C319 1.387 . S
C318 H322 0.950 . S
C318 C327 1.390 . S
C319 C318 1.387 . S
C319 C321 1.387 . S
H320 C327 0.950 . S
C321 C319 1.387 . S
C321 C323 1.390 . S
C321 H325 0.950 . S
H322 C318 0.950 . S
C323 C321 1.390 . S
C323 C324 1.387 . S
C323 H326 0.950 . S
C324 C323 1.387 . S
C324 C327 1.387 . S
H325 C321 0.950 . S
H326 C323 0.950 . S
C327 C318 1.390 . S
C327 H320 0.950 . S
C327 C324 1.387 . S
C328 C329 1.387 . S
C328 H332 0.950 . S
C328 C337 1.390 . S
C329 C328 1.387 . S
C329 C331 1.387 . S
H330 C337 0.950 . S
C331 C329 1.387 . S
C331 C333 1.390 . S
C331 H335 0.950 . S
H332 C328 0.950 . S
C333 C331 1.390 . S
C333 C334 1.387 . S
C333 H336 0.950 . S
C334 C333 1.387 . S
C334 C337 1.387 . S
H335 C331 0.950 . S
H336 C333 0.950 . S
C337 C328 1.390 . S
C337 H330 0.950 . S
C337 C334 1.387 . S
C338 C339 1.387 . S
C338 H342 0.950 . S
C338 C347 1.390 . S
C339 C338 1.387 . S
C339 C341 1.387 . S
H340 C347 0.950 . S
C341 C339 1.387 . S
C341 C343 1.390 . S
C341 H345 0.950 . S
H342 C338 0.950 . S
C343 C341 1.390 . S
C343 C344 1.387 . S
C343 H346 0.950 . S
C344 C343 1.387 . S
C344 C347 1.387 . S
H345 C341 0.950 . S
H346 C343 0.950 . S
C347 C338 1.390 . S
C347 H340 0.950 . S
C347 C344 1.387 . S
C348 C349 1.387 . S
C348 H352 0.950 . S
C348 C357 1.390 . S
C349 C348 1.387 . S
C349 C351 1.387 . S
H350 C357 0.950 . S
C351 C349 1.387 . S
C351 C353 1.390 . S
C351 H355 0.950 . S
H352 C348 0.950 . S
C353 C351 1.390 . S
C353 C354 1.387 . S
C353 H356 0.950 . S
C354 C353 1.387 . S
C354 C357 1.387 . S
H355 C351 0.950 . S
H356 C353 0.950 . S
C357 C348 1.390 . S
C357 H350 0.950 . S
C357 C354 1.387 . S
C358 C359 1.387 . S
C358 H362 0.950 . S
C358 C367 1.390 . S
C359 C358 1.387 . S
C359 C361 1.387 . S
H360 C367 0.950 . S
C361 C359 1.387 . S
C361 C363 1.390 . S
C361 H365 0.950 . S
H362 C358 0.950 . S
C363 C361 1.390 . S
C363 C364 1.387 . S
C363 H366 0.950 . S
C364 C363 1.387 . S
C364 C367 1.387 . S
H365 C361 0.950 . S
H366 C363 0.950 . S
C367 C358 1.390 . S
C367 H360 0.950 . S
C367 C364 1.387 . S
C368 C369 1.387 . S
C368 H372 0.950 . S
C368 C377 1.390 . S
C369 C368 1.387 . S
C369 C371 1.387 . S
H370 C377 0.950 . S
C371 C369 1.387 . S
C371 C373 1.390 . S
C371 H375 0.950 . S
H372 C368 0.950 . S
C373 C371 1.390 . S
C373 C374 1.387 . S
C373 H376 0.950 . S
C374 C373 1.387 . S
C374 C377 1.387 . S
H375 C371 0.950 . S
H376 C373 0.950 . S
C377 C368 1.390 . S
C377 H370 0.950 . S
C377 C374 1.387 . S
C378 C379 1.387 . S
C378 H382 0.950 . S
C378 C387 1.390 . S
C379 C378 1.387 . S
C379 C381 1.387 . S
H380 C387 0.950 . S
C381 C379 1.387 . S
C381 C383 1.390 . S
C381 H385 0.950 . S
H382 C378 0.950 . S
C383 C381 1.390 . S
C383 C384 1.387 . S
C383 H386 0.950 . S
C384 C383 1.387 . S
C384 C387 1.387 . S
H385 C381 0.950 . S
H386 C383 0.950 . S
C387 C378 1.390 . S
C387 H380 0.950 . S
C387 C384 1.387 . S
C388 C389 1.387 . S
C388 H392 0.950 . S
C388 C397 1.390 . S
C389 C388 1.387 . S
C389 C391 1.387 . S
H390 C397 0.950 . S
C391 C389 1.387 . S
C391 C393 1.390 . S
C391 H395 0.950 . S
H392 C388 0.950 . S
C393 C391 1.390 . S
C393 C394 1.387 . S
C393 H396 0.950 . S
C394 C393 1.387 . S
C394 C397 1.387 . S
H395 C391 0.950 . S
H396 C393 0.950 . S
C397 C388 1.390 . S
C397 H390 0.950 . S
C397 C394 1.387 . S
C398 C399 1.387 . S
C398 H402 0.950 . S
C398 C407 1.390 . S
C399 C398 1.387 . S
C399 C401 1.387 . S
H400 C407 0.950 . S
C401 C399 1.387 . S
C401 C403 1.390 . S
C401 H405 0.950 . S
H402 C398 0.950 . S
C403 C401 1.390 . S
C403 C404 1.387 . S
C403 H406 0.950 . S
C404 C403 1.387 . S
C404 C407 1.387 . S
H405 C401 0.950 . S
H406 C403 0.950 . S
C407 C398 1.390 . S
C407 H400 0.950 . S
C407 C404 1.387 . S
C408 C409 1.387 . S
C408 H412 0.950 . S
C408 C417 1.390 . S
C409 C408 1.387 . S
C409 C411 1.387 . S
H410 C417 0.950 . S
C411 C409 1.387 . S
C411 C413 1.390 . S
C411 H415 0.950 . S
H412 C408 0.950 . S
C413 C411 1.390 . S
C413 C414 1.387 . S
C413 H416 0.950 . S
C414 C413 1.387 . S
C414 C417 1.387 . S
H415 C411 0.950 . S
H416 C413 0.950 . S
C417 C408 1.390 . S
C417 H410 0.950 . S
C417 C414 1.387 . S
C418 C419 1.387 . S
C418 H422 0.950 . S
C418 C427 1.390 . S
C419 C418 1.387 . S
C419 C421 1.387 . S
H420 C427 0.950 . S
C421 C419 1.387 . S
C421 C423 1.390 . S
C421 H425 0.950 . S
H422 C418 0.950 . S
C423 C421 1.390 . S
C423 C424 1.387 . S
C423 H426 0.950 . S
C424 C423 1.387 . S
C424 C427 1.387 . S
H425 C421 0.950 . S
H426 C423 0.950 . S
C427 C418 1.390 . S
C427 H420 0.950 . S
C427 C424 1.387 . S
C428 C429 1.387 . S
C428 H432 0.950 . S
C428 C437 1.390 . S
C429 C428 1.387 . S
C429 C431 1.387 . S
H430 C437 0.950 . S
C431 C429 1.387 . S
C431 C433 1.390 . S
C431 H435 0.950 . S
H432 C428 0.950 . S
C433 C431 1.390 . S
C433 C434 1.387 . S
C433 H436 0.950 . S
C434 C433 1.387 . S
C434 C437 1.387 . S
H435 C431 0.950 . S
H436 C433 0.950 . S
C437 C428 1.390 . S
C437 H430 0.950 . S
C437 C434 1.387 . S
C438 C439 1.387 . S
C438 H442 0.950 . S
C438 C447 1.390 . S
C439 C438 1.387 . S
C439 C441 1.387 . S
H440 C447 0.950 . S
C441 C439 1.387 . S
C441 C443 1.390 . S
C441 H445 0.950 . S
H442 C438 0.950 . S
C443 C441 1.390 . S
C443 C444 1.387 . S
C443 H446 0.950 . S
C444 C443 1.387 . S
C444 C447 1.387 . S
H445 C441 0.950 . S
H446 C443 0.950 . S
C447 C438 1.390 . S
C447 H440 0.950 . S
C447 C444 1.387 . S
C448 C449 1.387 . S
C448 H452 0.950 . S
C448 C457 1.390 1_455 S
C449 C448 1.387 . S
C449 C451 1.387 . S
H450 C457 0.950 . S
C451 C449 1.387 . S
C451 C453 1.390 1_455 S
C451 H455 0.950 . S
H452 C448 0.950 . S
C453 C451 1.390 1_655 S
C453 C454 1.387 . S
C453 H456 0.950 . S
C454 C453 1.387 . S
C454 C457 1.387 . S
H455 C451 0.950 . S
H456 C453 0.950 . S
C457 C448 1.390 1_655 S
C457 H450 0.950 . S
C457 C454 1.387 . S
C458 C459 1.387 . S
C458 H462 0.950 . S
C458 C467 1.390 1_565 S
C459 C458 1.387 . S
C459 C461 1.387 . S
H460 C467 0.950 . S
C461 C459 1.387 . S
C461 C463 1.390 1_565 S
C461 H465 0.950 . S
H462 C458 0.950 . S
C463 C461 1.390 1_545 S
C463 C464 1.387 . S
C463 H466 0.950 . S
C464 C463 1.387 . S
C464 C467 1.387 . S
H465 C461 0.950 . S
H466 C463 0.950 . S
C467 C458 1.390 1_545 S
C467 H460 0.950 . S
C467 C464 1.387 . S
C468 C469 1.387 . S
C468 H472 0.950 . S
C468 C477 1.390 1_455 S
C469 C468 1.387 . S
C469 C471 1.387 . S
H470 C477 0.950 . S
C471 C469 1.387 . S
C471 C473 1.390 1_455 S
C471 H475 0.950 . S
H472 C468 0.950 . S
C473 C471 1.390 1_655 S
C473 C474 1.387 . S
C473 H476 0.950 . S
C474 C473 1.387 . S
C474 C477 1.387 . S
H475 C471 0.950 . S
H476 C473 0.950 . S
C477 C468 1.390 1_655 S
C477 H470 0.950 . S
C477 C474 1.387 . S
C478 C479 1.387 . S
C478 H482 0.950 . S
C478 C487 1.390 1_545 S
C479 C478 1.387 . S
C479 C481 1.387 . S
H480 C487 0.950 . S
C481 C479 1.387 . S
C481 C483 1.390 1_545 S
C481 H485 0.950 . S
H482 C478 0.950 . S
C483 C481 1.390 1_565 S
C483 C484 1.387 . S
C483 H486 0.950 . S
C484 C483 1.387 . S
C484 C487 1.387 . S
H485 C481 0.950 . S
H486 C483 0.950 . S
C487 C478 1.390 1_565 S
C487 H480 0.950 . S
C487 C484 1.387 . S
C488 C489 1.387 . S
C488 H492 0.950 . S
C488 C497 1.390 1_556 S
C489 C488 1.387 . S
C489 C491 1.387 . S
H490 C497 0.950 . S
C491 C489 1.387 . S
C491 C493 1.390 1_556 S
C491 H495 0.950 . S
H492 C488 0.950 . S
C493 C491 1.390 1_554 S
C493 C494 1.387 . S
C493 H496 0.950 . S
C494 C493 1.387 . S
C494 C497 1.387 . S
H495 C491 0.950 . S
H496 C493 0.950 . S
C497 C488 1.390 1_554 S
C497 H490 0.950 . S
C497 C494 1.387 . S
C498 C499 1.387 . S
C498 H502 0.950 . S
C498 C507 1.390 1_556 S
C499 C498 1.387 . S
C499 C501 1.387 . S
H500 C507 0.950 . S
C501 C499 1.387 . S
C501 C503 1.390 1_556 S
C501 H505 0.950 . S
H502 C498 0.950 . S
C503 C501 1.390 1_554 S
C503 C504 1.387 . S
C503 H506 0.950 . S
C504 C503 1.387 . S
C504 C507 1.387 . S
H505 C501 0.950 . S
H506 C503 0.950 . S
C507 C498 1.390 1_554 S
C507 H500 0.950 . S
C507 C504 1.387 . S
C508 C509 1.387 . S
C508 H512 0.950 . S
C508 C517 1.390 1_554 S
C509 C508 1.387 . S
C509 C511 1.387 . S
H510 C517 0.950 . S
C511 C509 1.387 . S
C511 C513 1.390 1_554 S
C511 H515 0.950 . S
H512 C508 0.950 . S
C513 C511 1.390 1_556 S
C513 C514 1.387 . S
C513 H516 0.950 . S
C514 C513 1.387 . S
C514 C517 1.387 . S
H515 C511 0.950 . S
H516 C513 0.950 . S
C517 C508 1.390 1_556 S
C517 H510 0.950 . S
C517 C514 1.387 . S
C518 C519 1.387 . S
C518 H522 0.950 . S
C518 C527 1.390 1_556 S
C519 C518 1.387 . S
C519 C521 1.387 . S
H520 C527 0.950 . S
C521 C519 1.387 . S
C521 C523 1.390 1_556 S
C521 H525 0.950 . S
H522 C518 0.950 . S
C523 C521 1.390 1_554 S
C523 C524 1.387 . S
C523 H526 0.950 . S
C524 C523 1.387 . S
C524 C527 1.387 . S
H525 C521 0.950 . S
H526 C523 0.950 . S
C527 C518 1.390 1_554 S
C527 H520 0.950 . S
C527 C524 1.387 . S
C209 C8 1.488 . S
C214 C44 1.360 . S
C219 C5 1.357 . S
C224 C21 1.490 . S
C229 C18 1.360 . S
C234 C34 1.490 . S
C239 C31 1.360 . S
C244 C47 1.488 . S
C249 C60 1.490 . S
C254 C70 1.357 . S
C259 C73 1.488 . S
C264 C83 1.360 . S
C269 C86 1.490 . S
C274 C96 1.357 . S
C279 C99 1.488 . S
C284 C57 1.361 . S
C289 C112 1.488 . S
C294 C148 1.360 . S
C299 C109 1.360 . S
C304 C125 1.488 . S
C309 C122 1.357 . S
C314 C138 1.490 . S
C319 C151 1.490 . S
C324 C135 1.357 . S
C329 C174 1.359 . S
C334 C164 1.488 . S
C339 C187 1.361 . S
C344 C177 1.488 . S
C349 C190 1.490 . S
C354 C200 1.358 . S
C359 C203 1.488 . S
C364 C161 1.360 . S
C369 C0 1.202 . S
C374 C195 1.203 . S
C379 C13 1.202 . S
C384 C156 1.202 . S
C389 C169 1.203 . S
C394 C26 1.204 . S
C399 C39 1.201 . S
C404 C182 1.201 . S
C409 C117 1.203 . S
C414 C52 1.203 . S
C419 C130 1.201 . S
C424 C65 1.202 . S
C429 C78 1.202 . S
C434 C143 1.203 . S
C439 C91 1.203 . S
C444 C104 1.204 . S
C449 C10 1.435 . S
C454 C88 1.435 . S
C459 C101 1.435 . S
C464 C23 1.435 . S
C469 C62 1.435 . S
C474 C36 1.435 . S
C479 C75 1.435 . S
C484 C49 1.435 . S
C489 C114 1.437 . S
C494 C192 1.437 . S
C499 C127 1.435 . S
C504 C205 1.435 . S
C509 C166 1.437 . S
C514 C140 1.437 . S
C519 C153 1.437 . S
C524 C179 1.437 . S
