# Generated by pormake.
# Topology uog, (4)-cn, num edge types: 1
# Building blocks:
#     Node 0, Type 0, BuildingBlock: KOZSID_clean_sbu_0, # of connection points: 4
#     Node 1, Type 0, BuildingBlock: KOZSID_clean_sbu_0, # of connection points: 4
#     Node 2, Type 0, BuildingBlock: KOZSID_clean_sbu_0, # of connection points: 4
#     Node 3, Type 0, BuildingBlock: KOZSID_clean_sbu_0, # of connection points: 4
#     Node 4, Type 0, BuildingBlock: KOZSID_clean_sbu_0, # of connection points: 4
#     Node 5, Type 0, BuildingBlock: KOZSID_clean_sbu_0, # of connection points: 4
#     Edge 6, Type (0, 0), BuildingBlock: EZIPEK_clean_linker_0, # of connection points: 2
#     Edge 7, Type (0, 0), BuildingBlock: EZIPEK_clean_linker_0, # of connection points: 2
#     Edge 8, Type (0, 0), BuildingBlock: EZIPEK_clean_linker_0, # of connection points: 2
#     Edge 9, Type (0, 0), BuildingBlock: EZIPEK_clean_linker_0, # of connection points: 2
#     Edge 10, Type (0, 0), BuildingBlock: EZIPEK_clean_linker_0, # of connection points: 2
#     Edge 11, Type (0, 0), BuildingBlock: EZIPEK_clean_linker_0, # of connection points: 2
#     Edge 12, Type (0, 0), BuildingBlock: EZIPEK_clean_linker_0, # of connection points: 2
#     Edge 13, Type (0, 0), BuildingBlock: EZIPEK_clean_linker_0, # of connection points: 2
#     Edge 14, Type (0, 0), BuildingBlock: EZIPEK_clean_linker_0, # of connection points: 2
#     Edge 15, Type (0, 0), BuildingBlock: EZIPEK_clean_linker_0, # of connection points: 2
#     Edge 16, Type (0, 0), BuildingBlock: EZIPEK_clean_linker_0, # of connection points: 2
#     Edge 17, Type (0, 0), BuildingBlock: EZIPEK_clean_linker_0, # of connection points: 2
# Relax obj value: 0.022
# Max RMSD: 0.265
# Mean RMSD: 0.265
data_MOF--net-uog--node1-KOZSID_clean_sbu_0--edge1-EZIPEK_clean_linker_0
_symmetry_space_group_name_H-M    P1
_symmetry_Int_Tables_number       1
_symmetry_cell_setting            triclinic
loop_
_symmetry_equiv_pos_as_xyz
'x, y, z'
_cell_length_a     29.87286
_cell_length_b     30.068809
_cell_length_c     35.533846
_cell_angle_alpha  89.912582
_cell_angle_beta   89.9652
_cell_angle_gamma 120.08432
loop_
_atom_site_label
_atom_site_type_symbol
_atom_site_fract_x
_atom_site_fract_y
_atom_site_fract_z
_atom_type_partial_charge
C0 C 0.58221 0.31978 0.2418 0.0
C1 C 0.53556 0.30792 0.25852 0.0
C2 C 0.49936 0.29208 0.23017 0.0
C3 C 0.52553 0.29459 0.19765 0.0
N4 N 0.57564 0.3099 0.20403 0.0
Co5 Co 0.62688 0.32144 0.16388 0.0
N6 N 0.57376 0.2847 0.12421 0.0
C7 C 0.52381 0.27182 0.12694 0.0
C8 C 0.49656 0.249 0.09463 0.0
C9 C 0.53174 0.24766 0.07013 0.0
C10 C 0.57873 0.26955 0.08878 0.0
N11 N 0.67966 0.33415 0.12434 0.0
C12 C 0.67517 0.30561 0.09366 0.0
C13 C 0.72345 0.31747 0.07968 0.0
C14 C 0.75923 0.3574 0.10032 0.0
C15 C 0.73123 0.36617 0.12672 0.0
N16 N 0.68267 0.35846 0.20219 0.0
C17 C 0.73312 0.39104 0.19439 0.0
C18 C 0.76244 0.41743 0.22462 0.0
C19 C 0.7287 0.40173 0.25374 0.0
C20 C 0.68033 0.36557 0.2396 0.0
N21 N 0.62029 0.25243 0.17619 0.0
C22 C 0.59816 0.14763 0.18388 0.0
C23 C 0.64934 0.18931 0.17876 0.0
C24 C 0.65954 0.24111 0.17493 0.0
C25 C 0.55951 0.16073 0.18596 0.0
C26 C 0.57109 0.21196 0.18237 0.0
N27 N 0.62556 0.38748 0.15235 0.0
C28 C 0.61212 0.45469 0.18027 0.0
C29 C 0.58115 0.45407 0.15024 0.0
C30 C 0.57767 0.42265 0.11955 0.0
C31 C 0.60136 0.39161 0.12062 0.0
C32 C 0.63324 0.42165 0.1809 0.0
H33 H 0.59664 0.36841 0.09628 0.0
H34 H 0.6528 0.42219 0.20622 0.0
H35 H 0.69886 0.27158 0.17022 0.0
H36 H 0.53861 0.21768 0.18336 0.0
C37 C 0.5041 0.27855 0.16131 0.0
C38 C 0.63278 0.34543 0.26174 0.0
C39 C 0.62768 0.27677 0.07178 0.0
C40 C 0.75307 0.39374 0.159 0.0
H41 H 0.52891 0.31218 0.2879 0.0
H42 H 0.45876 0.28 0.23302 0.0
H43 H 0.45579 0.23428 0.08961 0.0
H44 H 0.52384 0.23226 0.04186 0.0
H45 H 0.73193 0.30041 0.05591 0.0
H46 H 0.80089 0.37548 0.09801 0.0
H47 H 0.80337 0.44544 0.22526 0.0
H48 H 0.73871 0.41783 0.28169 0.0
H49 H 0.68121 0.18189 0.17722 0.0
H50 H 0.51954 0.13095 0.18988 0.0
H51 H 0.61805 0.47903 0.20438 0.0
H52 H 0.55562 0.42103 0.0949 0.0
C53 C 0.26444 0.56128 0.57428 0.0
C54 C 0.22366 0.5154 0.58756 0.0
C55 C 0.21595 0.47807 0.56184 0.0
C56 C 0.25158 0.50304 0.53374 0.0
N57 N 0.28206 0.55367 0.54043 0.0
Co58 Co 0.32554 0.60441 0.5007 0.0
N59 N 0.31762 0.55187 0.46281 0.0
C60 C 0.29027 0.50086 0.46866 0.0
C61 C 0.29934 0.47374 0.44152 0.0
C62 C 0.3348 0.51005 0.41715 0.0
C63 C 0.34472 0.55763 0.43007 0.0
N64 N 0.36394 0.65685 0.46064 0.0
C65 C 0.37442 0.65161 0.4243 0.0
C66 C 0.39172 0.69722 0.40437 0.0
C67 C 0.3958 0.73313 0.42953 0.0
C68 C 0.37921 0.70722 0.46293 0.0
N69 N 0.34042 0.65906 0.53897 0.0
C70 C 0.37111 0.71002 0.53363 0.0
C71 C 0.38337 0.73833 0.56598 0.0
C72 C 0.35785 0.70334 0.59375 0.0
C73 C 0.32968 0.65572 0.57637 0.0
N74 N 0.38958 0.60224 0.51693 0.0
C75 C 0.47299 0.58041 0.52365 0.0
C76 C 0.48108 0.62808 0.50971 0.0
C77 C 0.43916 0.63803 0.50636 0.0
C78 C 0.4229 0.54612 0.53626 0.0
C79 C 0.383 0.55785 0.53344 0.0
N80 N 0.25776 0.59935 0.4845 0.0
C81 C 0.18071 0.60183 0.50506 0.0
C82 C 0.14731 0.55883 0.48297 0.0
C83 C 0.17185 0.54087 0.45865 0.0
C84 C 0.22625 0.56245 0.45889 0.0
C85 C 0.23517 0.62147 0.50516 0.0
H86 H 0.24161 0.54692 0.43884 0.0
H87 H 0.25862 0.65374 0.52288 0.0
H88 H 0.44691 0.67399 0.49398 0.0
H89 H 0.34615 0.52849 0.54332 0.0
C90 C 0.25859 0.48094 0.50084 0.0
C91 C 0.28585 0.61141 0.59459 0.0
C92 C 0.37646 0.60727 0.40927 0.0
C93 C 0.38465 0.73025 0.49765 0.0
H94 H 0.20172 0.50958 0.61315 0.0
H95 H 0.18715 0.43765 0.56322 0.0
H96 H 0.28288 0.43251 0.43992 0.0
H97 H 0.35067 0.50232 0.39227 0.0
H98 H 0.40312 0.70474 0.37514 0.0
H99 H 0.41132 0.77377 0.42444 0.0
H100 H 0.40679 0.77963 0.5689 0.0
H101 H 0.35763 0.71252 0.62313 0.0
H102 H 0.51923 0.65688 0.50021 0.0
H103 H 0.41397 0.50918 0.54779 0.0
H104 H 0.16466 0.61936 0.52306 0.0
H105 H 0.1489 0.5094 0.43965 0.0
C106 C 0.74893 0.27311 0.90619 0.0
C107 C 0.76982 0.24894 0.92701 0.0
C108 C 0.80775 0.24878 0.90509 0.0
C109 C 0.80811 0.27283 0.87205 0.0
N110 N 0.77294 0.2883 0.87179 0.0
Co111 Co 0.76237 0.32579 0.8292 0.0
N112 N 0.81333 0.32164 0.79457 0.0
C113 C 0.84681 0.3065 0.80564 0.0
C114 C 0.8853 0.31784 0.77977 0.0
C115 C 0.87651 0.34283 0.75085 0.0
C116 C 0.83267 0.34502 0.76032 0.0
N117 N 0.74726 0.36 0.78627 0.0
C118 C 0.76431 0.36924 0.75009 0.0
C119 C 0.73732 0.38684 0.72871 0.0
C120 C 0.70504 0.39247 0.75247 0.0
C121 C 0.713 0.37674 0.78659 0.0
N122 N 0.71321 0.33413 0.86332 0.0
C123 C 0.68751 0.35929 0.85505 0.0
C124 C 0.65017 0.35212 0.88052 0.0
C125 C 0.65135 0.31997 0.90667 0.0
C126 C 0.69077 0.31059 0.89627 0.0
N127 N 0.82492 0.39322 0.8466 0.0
C128 C 0.93545 0.46365 0.85012 0.0
C129 C 0.90316 0.47088 0.82495 0.0
C130 C 0.84873 0.43537 0.8233 0.0
C131 C 0.90919 0.42495 0.87721 0.0
C132 C 0.8546 0.39286 0.87624 0.0
N133 N 0.70426 0.25562 0.81276 0.0
C134 C 0.61293 0.18797 0.81179 0.0
C135 C 0.62521 0.14861 0.80692 0.0
C136 C 0.67794 0.16508 0.80298 0.0
C137 C 0.71596 0.21761 0.80551 0.0
C138 C 0.65254 0.24063 0.8146 0.0
H139 H 0.75523 0.22635 0.80318 0.0
H140 H 0.64074 0.26861 0.81931 0.0
H141 H 0.82655 0.44134 0.80218 0.0
H142 H 0.83766 0.36608 0.89907 0.0
C143 C 0.84192 0.284 0.84134 0.0
C144 C 0.70777 0.28269 0.92057 0.0
C145 C 0.81154 0.37118 0.73659 0.0
C146 C 0.68888 0.37751 0.8193 0.0
H147 H 0.75907 0.23358 0.95523 0.0
H148 H 0.83256 0.23353 0.91262 0.0
H149 H 0.91714 0.3105 0.78222 0.0
H150 H 0.90032 0.35879 0.726 0.0
H151 H 0.74232 0.39758 0.69944 0.0
H152 H 0.67953 0.40723 0.74582 0.0
H153 H 0.6224 0.36516 0.8786 0.0
H154 H 0.62547 0.30466 0.93056 0.0
H155 H 0.92054 0.50304 0.80566 0.0
H156 H 0.93079 0.41896 0.89914 0.0
H157 H 0.57285 0.17802 0.81436 0.0
H158 H 0.69016 0.13708 0.79874 0.0
C159 C 0.52077 0.732 0.24691 0.0
C160 C 0.57057 0.74786 0.2592 0.0
C161 C 0.60396 0.7837 0.23346 0.0
C162 C 0.57316 0.7874 0.20625 0.0
N163 N 0.52268 0.75583 0.21332 0.0
Co164 Co 0.46581 0.74058 0.17712 0.0
N165 N 0.5123 0.77433 0.13323 0.0
C166 C 0.56346 0.80761 0.13634 0.0
C167 C 0.58611 0.82795 0.10213 0.0
C168 C 0.54655 0.80726 0.07619 0.0
C169 C 0.50147 0.7754 0.09586 0.0
N170 N 0.40616 0.72148 0.14215 0.0
C171 C 0.4039 0.7256 0.10418 0.0
C172 C 0.35406 0.71229 0.09273 0.0
C173 C 0.32446 0.70026 0.12417 0.0
C174 C 0.35739 0.70705 0.15302 0.0
N175 N 0.41798 0.71007 0.22089 0.0
C176 C 0.36997 0.70336 0.22298 0.0
C177 C 0.34852 0.69131 0.25817 0.0
C178 C 0.38521 0.69014 0.28006 0.0
C179 C 0.42665 0.7006 0.25657 0.0
N180 N 0.47242 0.81016 0.1872 0.0
C181 C 0.51297 0.91986 0.19051 0.0
C182 C 0.48313 0.88991 0.16002 0.0
C183 C 0.46379 0.8362 0.15882 0.0
C184 C 0.5185 0.89229 0.22064 0.0
C185 C 0.49727 0.83806 0.2188 0.0
N186 N 0.46721 0.67467 0.16613 0.0
C187 C 0.43807 0.58242 0.17019 0.0
C188 C 0.48751 0.59013 0.15955 0.0
C189 C 0.52478 0.64079 0.15152 0.0
C190 C 0.51403 0.68097 0.15437 0.0
C191 C 0.4289 0.62505 0.17364 0.0
H192 H 0.54613 0.71782 0.14829 0.0
H193 H 0.39152 0.6179 0.18329 0.0
H194 H 0.44431 0.81685 0.13353 0.0
H195 H 0.50351 0.81938 0.24252 0.0
C196 C 0.58924 0.81212 0.17083 0.0
C197 C 0.47219 0.6987 0.26902 0.0
C198 C 0.44872 0.75057 0.07882 0.0
C199 C 0.3438 0.7021 0.19065 0.0
H200 H 0.58161 0.73544 0.28436 0.0
H201 H 0.64578 0.80294 0.23377 0.0
H202 H 0.62672 0.85397 0.09651 0.0
H203 H 0.55017 0.81568 0.04635 0.0
H204 H 0.34071 0.71467 0.06495 0.0
H205 H 0.28425 0.69012 0.12595 0.0
H206 H 0.31023 0.6829 0.26665 0.0
H207 H 0.3814 0.68166 0.30983 0.0
H208 H 0.47643 0.90833 0.1362 0.0
H209 H 0.54021 0.91272 0.24535 0.0
H210 H 0.40702 0.544 0.1766 0.0
H211 H 0.56341 0.64994 0.14323 0.0
C212 C 0.81843 0.50207 0.57317 0.0
C213 C 0.85572 0.55177 0.58266 0.0
C214 C 0.8515 0.5841 0.55707 0.0
C215 C 0.8126 0.5527 0.53267 0.0
N216 N 0.7924 0.50282 0.54147 0.0
Co217 Co 0.74551 0.44451 0.50847 0.0
N218 N 0.75407 0.4881 0.46386 0.0
C219 C 0.77379 0.53936 0.46533 0.0
C220 C 0.77391 0.55981 0.43064 0.0
C221 C 0.75179 0.51871 0.40626 0.0
C222 C 0.73899 0.47504 0.42732 0.0
N223 N 0.70011 0.38325 0.47669 0.0
C224 C 0.68972 0.37877 0.43931 0.0
C225 C 0.64989 0.32943 0.43043 0.0
C226 C 0.63454 0.30236 0.46303 0.0
C227 C 0.66507 0.33631 0.48996 0.0
N228 N 0.732 0.39967 0.55329 0.0
C229 C 0.68987 0.353 0.55838 0.0
C230 C 0.68536 0.33323 0.59372 0.0
C231 C 0.72742 0.36964 0.61246 0.0
C232 C 0.75558 0.40944 0.58712 0.0
N233 N 0.68443 0.45349 0.52185 0.0
C234 C 0.6161 0.49511 0.52727 0.0
C235 C 0.61129 0.46091 0.49858 0.0
C236 C 0.64554 0.44143 0.49611 0.0
C237 C 0.65391 0.50477 0.55486 0.0
C238 C 0.68633 0.48278 0.5522 0.0
N239 N 0.81101 0.44344 0.49384 0.0
C240 C 0.87647 0.41767 0.50238 0.0
C241 C 0.91682 0.46528 0.48831 0.0
C242 C 0.90143 0.49887 0.47458 0.0
C243 C 0.84986 0.48729 0.47699 0.0
C244 C 0.82411 0.40773 0.50526 0.0
H245 H 0.84383 0.51711 0.46683 0.0
H246 H 0.79518 0.37245 0.5184 0.0
H247 H 0.64161 0.41898 0.47167 0.0
H248 H 0.71471 0.49195 0.57404 0.0
C249 C 0.80048 0.56701 0.49787 0.0
C250 C 0.80508 0.45484 0.59599 0.0
C251 C 0.70926 0.42162 0.41253 0.0
C252 C 0.66018 0.32546 0.52804 0.0
H253 H 0.88278 0.56344 0.60581 0.0
H254 H 0.8758 0.62545 0.55541 0.0
H255 H 0.78977 0.59997 0.42358 0.0
H256 H 0.74514 0.52055 0.37651 0.0
H257 H 0.63066 0.31504 0.40376 0.0
H258 H 0.60314 0.26332 0.46689 0.0
H259 H 0.65625 0.29592 0.60414 0.0
H260 H 0.73664 0.36631 0.64124 0.0
H261 H 0.58248 0.45103 0.47679 0.0
H262 H 0.65924 0.53015 0.57814 0.0
H263 H 0.8856 0.38926 0.51272 0.0
H264 H 0.9299 0.53555 0.46273 0.0
C265 C 0.34636 0.77899 0.90958 0.0
C266 C 0.33411 0.81074 0.92998 0.0
C267 C 0.31441 0.83143 0.9048 0.0
C268 C 0.31537 0.81126 0.87029 0.0
N269 N 0.33332 0.77821 0.87251 0.0
Co270 Co 0.3427 0.74327 0.82809 0.0
N271 N 0.29954 0.7583 0.79343 0.0
C272 C 0.28054 0.78921 0.80164 0.0
C273 C 0.24433 0.78487 0.77568 0.0
C274 C 0.24077 0.74922 0.74958 0.0
C275 C 0.27577 0.73416 0.76039 0.0
N276 N 0.35727 0.7119 0.78371 0.0
C277 C 0.33787 0.70294 0.74842 0.0
C278 C 0.36798 0.69294 0.72378 0.0
C279 C 0.40653 0.69371 0.74459 0.0
C280 C 0.39841 0.70522 0.78027 0.0
N281 N 0.38455 0.72428 0.86167 0.0
C282 C 0.41834 0.7099 0.84968 0.0
C283 C 0.44594 0.70361 0.87768 0.0
C284 C 0.4299 0.71587 0.90973 0.0
C285 C 0.3928 0.72879 0.89945 0.0
N286 N 0.27479 0.67787 0.84075 0.0
C287 C 0.16739 0.59628 0.84478 0.0
C288 C 0.20718 0.58784 0.83076 0.0
C289 C 0.26024 0.62899 0.82873 0.0
C290 C 0.18407 0.64552 0.85843 0.0
C291 C 0.23623 0.68426 0.85671 0.0
N292 N 0.40611 0.81209 0.8161 0.0
C293 C 0.47863 0.89203 0.84032 0.0
C294 C 0.47872 0.92077 0.80901 0.0
C295 C 0.44344 0.89243 0.78013 0.0
C296 C 0.40862 0.83866 0.78385 0.0
C297 C 0.44248 0.8388 0.84341 0.0
H298 H 0.38204 0.81931 0.76105 0.0
H299 H 0.44272 0.82042 0.86923 0.0
H300 H 0.28874 0.62158 0.816 0.0
H301 H 0.24314 0.72037 0.86685 0.0
C302 C 0.29131 0.81436 0.83685 0.0
C303 C 0.37378 0.75329 0.92568 0.0
C304 C 0.28996 0.70104 0.73744 0.0
C305 C 0.42503 0.70446 0.81177 0.0
H306 H 0.33961 0.81871 0.95983 0.0
H307 H 0.29967 0.85691 0.91119 0.0
H308 H 0.22147 0.80361 0.77645 0.0
H309 H 0.21584 0.73637 0.72515 0.0
H310 H 0.3624 0.68528 0.6939 0.0
H311 H 0.43623 0.68576 0.73504 0.0
H312 H 0.47589 0.69357 0.87494 0.0
H313 H 0.44688 0.71856 0.93708 0.0
H314 H 0.19722 0.55024 0.82021 0.0
H315 H 0.1562 0.6549 0.86992 0.0
H316 H 0.5052 0.91114 0.86331 0.0
H317 H 0.4419 0.91195 0.75496 0.0
C318 C 0.58921 0.06327 0.15675 0.0
C319 C 0.58283 0.09047 0.18723 0.0
C320 C 0.52856 1.00593 0.21917 0.0
C321 C 0.53849 0.97913 0.19019 0.0
N322 N 0.59032 0.9868 0.1358 0.0
N323 N 0.5562 0.08678 0.25168 0.0
C324 C 0.57237 1.00924 0.1603 0.0
C325 C 0.55552 0.06135 0.21968 0.0
N326 N 0.60916 0.08817 0.12346 0.0
N327 N 0.49112 0.97865 0.24533 0.0
H328 H 0.5764 0.1268 0.25352 0.0
H329 H 0.54161 0.06833 0.27735 0.0
H330 H 0.46902 0.93866 0.24523 0.0
H331 H 0.47824 0.99581 0.26467 0.0
H332 H 0.60927 0.06925 0.09894 0.0
H333 H 0.62133 0.12693 0.11938 0.0
H334 H 0.61884 1.00751 0.11579 0.0
H335 H 0.58094 0.9485 0.13813 0.0
C336 C 0.52441 0.5459 0.55948 0.0
C337 C 0.51477 0.5646 0.52522 0.0
C338 C 0.57985 0.54762 0.49487 0.0
C339 C 0.5826 0.52096 0.52738 0.0
N340 N 0.54727 0.48701 0.58879 0.0
N341 N 0.52799 0.5731 0.45793 0.0
C342 C 0.55223 0.51825 0.55925 0.0
C343 C 0.54126 0.56287 0.49229 0.0
N344 N 0.50816 0.5557 0.59275 0.0
N345 N 0.61539 0.56032 0.46672 0.0
H346 H 0.499 0.58233 0.45427 0.0
H347 H 0.54211 0.5672 0.43272 0.0
H348 H 0.64567 0.55253 0.46818 0.0
H349 H 0.61832 0.58372 0.4441 0.0
H350 H 0.51812 0.54735 0.61884 0.0
H351 H 0.48983 0.57742 0.59434 0.0
H352 H 0.52162 0.47958 0.611 0.0
H353 H 0.56431 0.46409 0.58916 0.0
C354 C 1.02523 0.52209 0.88103 0.0
C355 C 0.99545 0.49616 0.84853 0.0
C356 C 0.07885 0.5349 0.81259 0.0
C357 C 0.10867 0.55643 0.84594 0.0
N358 N 0.10762 0.55776 0.91369 0.0
N359 N 0.99799 0.46919 0.78496 0.0
C360 C 0.08086 0.54592 0.88062 0.0
C361 C 1.02355 0.50014 0.81479 0.0
N362 N 1.00086 0.52681 0.912 0.0
N363 N 0.10261 0.54932 0.77833 0.0
H364 H 0.95864 0.44211 0.78564 0.0
H365 H 1.01686 0.46651 0.76115 0.0
H366 H 0.14212 0.57481 0.77526 0.0
H367 H 0.08232 0.53966 0.75301 0.0
H368 H 1.02074 0.54949 0.93507 0.0
H369 H 0.96116 0.51306 0.91288 0.0
H370 H 0.08959 0.54675 0.93989 0.0
H371 H 0.14767 0.57346 0.91467 0.0
C372 C 0.05995 0.51282 0.51918 0.0
C373 C 0.0877 0.53299 0.48472 0.0
C374 C 1.00234 0.49629 0.4525 0.0
C375 C 0.97501 0.48258 0.48744 0.0
N376 N 0.98146 0.48799 0.55508 0.0
N377 N 0.08264 0.552 0.41941 0.0
C378 C 1.0049 0.49349 0.52106 0.0
C379 C 0.058 0.52664 0.4516 0.0
N380 N 0.08564 0.5102 0.55012 0.0
N381 N 0.975 0.47946 0.41977 0.0
H382 H 0.12256 0.57654 0.4179 0.0
H383 H 0.06306 0.55321 0.39553 0.0
H384 H 0.93478 0.45648 0.4193 0.0
H385 H 0.99245 0.48363 0.39361 0.0
H386 H 0.06688 0.49135 0.57482 0.0
H387 H 0.12497 0.5221 0.54985 0.0
H388 H 1.00187 0.50057 0.58026 0.0
H389 H 0.94216 0.47537 0.55775 0.0
C390 C 0.55044 1.00417 0.7773 0.0
C391 C 0.51445 0.97976 0.80735 0.0
C392 C 0.55208 0.06575 0.83807 0.0
C393 C 0.5845 0.09074 0.80635 0.0
N394 N 0.60418 0.08263 0.74183 0.0
N395 N 0.47369 0.9919 0.86195 0.0
C396 C 0.58049 0.05948 0.77485 0.0
C397 C 0.51326 1.012 0.83643 0.0
N398 N 0.55815 0.9747 0.75184 0.0
N399 N 0.55971 0.09252 0.87072 0.0
H400 H 0.44354 0.95387 0.86097 0.0
H401 H 0.46775 1.0143 0.88141 0.0
H402 H 0.58806 0.13103 0.87365 0.0
H403 H 0.54138 0.07516 0.89593 0.0
H404 H 0.58754 0.99006 0.73172 0.0
H405 H 0.53885 0.9347 0.75323 0.0
H406 H 0.59857 0.06249 0.71682 0.0
H407 H 0.62497 0.12247 0.73849 0.0
C408 C 0.5023 0.51776 0.1871 0.0
C409 C 0.50316 0.54828 0.15595 0.0
C410 C 0.55732 0.51947 0.12175 0.0
C411 C 0.55274 0.48546 0.15152 0.0
N412 N 0.50681 0.44316 0.20847 0.0
N413 N 0.52 0.56467 0.08958 0.0
C414 C 0.52104 0.482 0.18297 0.0
C415 C 0.52701 0.54466 0.12207 0.0
N416 N 0.48593 0.52432 0.22141 0.0
N417 N 0.59303 0.53067 0.09396 0.0
H418 H 0.49683 0.58152 0.08833 0.0
H419 H 0.5322 0.55926 0.06337 0.0
H420 H 0.61824 0.51619 0.09367 0.0
H421 H 0.60163 0.5589 0.07367 0.0
H422 H 0.48982 0.50757 0.24596 0.0
H423 H 0.47283 0.5501 0.22596 0.0
H424 H 0.48011 0.43573 0.22991 0.0
H425 H 0.51694 0.41481 0.20564 0.0
C426 C 0.65251 0.229 0.97714 0.0
C427 C 0.69049 0.27711 0.96166 0.0
C428 C 0.66809 0.32055 0.0106 0.0
C429 C 0.6364 0.27344 0.02975 0.0
N430 N 0.60288 0.18224 0.0326 0.0
N431 N 0.7434 0.3684 0.9709 0.0
C432 C 0.62972 0.22734 0.01329 0.0
C433 C 0.70136 0.3227 0.98109 0.0
N434 N 0.63714 0.18512 0.95699 0.0
N435 N 0.66781 0.3638 0.02176 0.0
H436 H 0.769 0.37092 0.94986 0.0
H437 H 0.75551 0.40233 0.98587 0.0
H438 H 0.64358 0.36303 0.04321 0.0
H439 H 0.68742 0.39859 0.00726 0.0
H440 H 0.606 0.14964 0.96486 0.0
H441 H 0.65379 0.18508 0.93118 0.0
H442 H 0.60123 0.14827 0.0242 0.0
H443 H 0.58448 0.17983 0.05814 0.0
C444 C 0.42145 0.61517 0.30515 0.0
C445 C 0.4642 0.66658 0.30491 0.0
C446 C 0.46224 0.65947 0.37427 0.0
C447 C 0.41052 0.61693 0.37399 0.0
N448 N 0.33862 0.55952 0.33462 0.0
N449 N 0.51928 0.74029 0.34341 0.0
C450 C 0.38977 0.59511 0.33822 0.0
C451 C 0.48409 0.68919 0.34065 0.0
N452 N 0.40852 0.58737 0.27278 0.0
N453 N 0.48882 0.67394 0.40729 0.0
H454 H 0.53228 0.7647 0.3202 0.0
H455 H 0.53102 0.75915 0.36921 0.0
H456 H 0.47345 0.6526 0.43183 0.0
H457 H 0.52738 0.70317 0.40889 0.0
H458 H 0.37925 0.54897 0.27152 0.0
H459 H 0.43126 0.60175 0.24866 0.0
H460 H 0.32099 0.54625 0.30853 0.0
H461 H 0.31287 0.54758 0.35716 0.0
C462 C 0.8342 0.37851 0.66579 0.0
C463 C 0.8362 0.40247 0.70053 0.0
C464 C 0.83473 0.4728 0.66552 0.0
C465 C 0.83275 0.44919 0.63052 0.0
N466 N 0.85215 0.39017 0.59892 0.0
N467 N 0.86566 0.48448 0.72957 0.0
C468 C 0.84113 0.4063 0.63144 0.0
C469 C 0.8467 0.45418 0.69879 0.0
N470 N 0.82135 0.32815 0.66493 0.0
N471 N 0.81965 0.50857 0.66842 0.0
H472 H 0.87864 0.47202 0.75204 0.0
H473 H 0.87548 0.52302 0.7298 0.0
H474 H 0.80493 0.51927 0.64585 0.0
H475 H 0.81645 0.52309 0.6943 0.0
H476 H 0.81396 0.30748 0.63995 0.0
H477 H 0.81428 0.30614 0.6892 0.0
H478 H 0.8614 0.36106 0.59773 0.0
H479 H 0.8577 0.41081 0.5743 0.0
C480 C 0.37555 0.70915 0.98596 0.0
C481 C 0.38992 0.75607 0.96687 0.0
C482 C 0.44586 0.8021 0.0213 0.0
C483 C 0.43707 0.75491 0.03746 0.0
N484 N 0.40213 0.664 0.02902 0.0
N485 N 0.45034 0.84742 0.96361 0.0
C486 C 0.40506 0.7087 0.01745 0.0
C487 C 0.42842 0.80272 0.98374 0.0
N488 N 0.3338 0.66468 0.97368 0.0
N489 N 0.46874 0.84615 0.04204 0.0
H490 H 0.44015 0.84951 0.93591 0.0
H491 H 0.48195 0.88128 0.97341 0.0
H492 H 0.48101 0.84745 0.06965 0.0
H493 H 0.47127 0.88026 0.03279 0.0
H494 H 0.31893 0.62997 0.98819 0.0
H495 H 0.31107 0.66387 0.9511 0.0
H496 H 0.38266 0.62984 0.01387 0.0
H497 H 0.42358 0.6626 0.05171 0.0
C498 C 0.65398 0.41781 0.35559 0.0
C499 C 0.6913 0.40743 0.37208 0.0
C500 C 0.66978 0.34127 0.32376 0.0
C501 C 0.64047 0.35842 0.3033 0.0
N502 N 0.61453 0.42249 0.2973 0.0
N503 N 0.74249 0.36634 0.36565 0.0
C504 C 0.63512 0.39933 0.31853 0.0
C505 C 0.70191 0.37165 0.35387 0.0
N506 N 0.6346 0.44312 0.37556 0.0
N507 N 0.66868 0.29712 0.31318 0.0
H508 H 0.76731 0.38878 0.38716 0.0
H509 H 0.75434 0.34359 0.35159 0.0
H510 H 0.64542 0.27436 0.29112 0.0
H511 H 0.6866 0.28088 0.32859 0.0
H512 H 0.60408 0.44741 0.36576 0.0
H513 H 0.64547 0.45533 0.40318 0.0
H514 H 0.61463 0.45564 0.30601 0.0
H515 H 0.6014 0.41121 0.2699 0.0
C516 C 0.2651 0.69248 0.66666 0.0
C517 C 0.26439 0.66944 0.70176 0.0
C518 C 0.26549 0.59887 0.66638 0.0
C519 C 0.26451 0.62124 0.63137 0.0
N520 N 0.23758 0.67606 0.60165 0.0
N521 N 0.24192 0.58954 0.73243 0.0
C522 C 0.25457 0.66299 0.63289 0.0
C523 C 0.25576 0.61819 0.70043 0.0
N524 N 0.28104 0.74353 0.66437 0.0
N525 N 0.28041 0.56286 0.6681 0.0
H526 H 0.23382 0.60314 0.75688 0.0
H527 H 0.23281 0.55123 0.73303 0.0
H528 H 0.29179 0.55056 0.64447 0.0
H529 H 0.28628 0.54919 0.69353 0.0
H530 H 0.28622 0.7623 0.63865 0.0
H531 H 0.29446 0.76791 0.68751 0.0
H532 H 0.22825 0.70517 0.60159 0.0
H533 H 0.22625 0.65263 0.57802 0.0
loop_
_geom_bond_atom_site_label_1
_geom_bond_atom_site_label_2
_geom_bond_distance
_geom_bond_site_symmetry_2
_ccdc_geom_bond_type
C0 C1 1.443 . S
C0 N4 1.376 . S
C0 C38 1.389 . S
C1 C0 1.443 . S
C1 C2 1.340 . S
C1 H41 0.951 . S
C2 C1 1.340 . S
C2 C3 1.439 . S
C2 H42 0.950 . S
C3 C2 1.439 . S
C3 N4 1.374 . S
C3 C37 1.395 . S
N4 C0 1.376 . S
N4 C3 1.374 . S
N4 Co5 2.008 . S
Co5 N4 2.008 . S
Co5 N6 1.995 . S
Co5 N11 2.008 . S
Co5 N16 1.995 . S
Co5 N21 2.282 . S
Co5 N27 2.282 . S
N6 Co5 1.995 . S
N6 C7 1.376 . S
N6 C10 1.383 . S
C7 N6 1.376 . S
C7 C8 1.446 . S
C7 C37 1.391 . S
C8 C7 1.446 . S
C8 C9 1.339 . S
C8 H43 0.949 . S
C9 C8 1.339 . S
C9 C10 1.439 . S
C9 H44 0.950 . S
C10 N6 1.383 . S
C10 C9 1.439 . S
C10 C39 1.392 . S
N11 Co5 2.008 . S
N11 C12 1.376 . S
N11 C15 1.374 . S
C12 N11 1.376 . S
C12 C13 1.443 . S
C12 C39 1.389 . S
C13 C12 1.443 . S
C13 C14 1.340 . S
C13 H45 0.951 . S
C14 C13 1.340 . S
C14 C15 1.439 . S
C14 H46 0.950 . S
C15 N11 1.374 . S
C15 C14 1.439 . S
C15 C40 1.395 . S
N16 Co5 1.995 . S
N16 C17 1.376 . S
N16 C20 1.383 . S
C17 N16 1.376 . S
C17 C18 1.446 . S
C17 C40 1.391 . S
C18 C17 1.446 . S
C18 C19 1.339 . S
C18 H47 0.949 . S
C19 C18 1.339 . S
C19 C20 1.439 . S
C19 H48 0.950 . S
C20 N16 1.383 . S
C20 C19 1.439 . S
C20 C38 1.392 . S
N21 Co5 2.282 . S
N21 C24 1.332 . S
N21 C26 1.332 . S
C22 C23 1.386 . S
C22 C25 1.388 . S
C23 C22 1.386 . S
C23 C24 1.382 . S
C23 H49 0.950 . S
C24 N21 1.332 . S
C24 C23 1.382 . S
C24 H35 0.952 . S
C25 C22 1.388 . S
C25 C26 1.382 . S
C25 H50 0.950 . S
C26 N21 1.332 . S
C26 C25 1.382 . S
C26 H36 0.948 . S
N27 Co5 2.282 . S
N27 C31 1.332 . S
N27 C32 1.332 . S
C28 C29 1.388 . S
C28 C32 1.382 . S
C28 H51 0.950 . S
C29 C28 1.388 . S
C29 C30 1.386 . S
C30 C29 1.386 . S
C30 C31 1.382 . S
C30 H52 0.950 . S
C31 N27 1.332 . S
C31 C30 1.382 . S
C31 H33 0.952 . S
C32 N27 1.332 . S
C32 C28 1.382 . S
C32 H34 0.948 . S
H33 C31 0.952 . S
H34 C32 0.948 . S
H35 C24 0.952 . S
H36 C26 0.948 . S
C37 C3 1.395 . S
C37 C7 1.391 . S
C38 C0 1.389 . S
C38 C20 1.392 . S
C39 C10 1.392 . S
C39 C12 1.389 . S
C40 C15 1.395 . S
C40 C17 1.391 . S
H41 C1 0.951 . S
H42 C2 0.950 . S
H43 C8 0.949 . S
H44 C9 0.950 . S
H45 C13 0.951 . S
H46 C14 0.950 . S
H47 C18 0.949 . S
H48 C19 0.950 . S
H49 C23 0.950 . S
H50 C25 0.950 . S
H51 C28 0.950 . S
H52 C30 0.950 . S
C53 C54 1.443 . S
C53 N57 1.376 . S
C53 C91 1.389 . S
C54 C53 1.443 . S
C54 C55 1.340 . S
C54 H94 0.951 . S
C55 C54 1.340 . S
C55 C56 1.439 . S
C55 H95 0.950 . S
C56 C55 1.439 . S
C56 N57 1.374 . S
C56 C90 1.395 . S
N57 C53 1.376 . S
N57 C56 1.374 . S
N57 Co58 2.008 . S
Co58 N57 2.008 . S
Co58 N59 1.995 . S
Co58 N64 2.008 . S
Co58 N69 1.995 . S
Co58 N74 2.282 . S
Co58 N80 2.282 . S
N59 Co58 1.995 . S
N59 C60 1.376 . S
N59 C63 1.383 . S
C60 N59 1.376 . S
C60 C61 1.446 . S
C60 C90 1.391 . S
C61 C60 1.446 . S
C61 C62 1.339 . S
C61 H96 0.949 . S
C62 C61 1.339 . S
C62 C63 1.439 . S
C62 H97 0.950 . S
C63 N59 1.383 . S
C63 C62 1.439 . S
C63 C92 1.392 . S
N64 Co58 2.008 . S
N64 C65 1.376 . S
N64 C68 1.374 . S
C65 N64 1.376 . S
C65 C66 1.443 . S
C65 C92 1.389 . S
C66 C65 1.443 . S
C66 C67 1.340 . S
C66 H98 0.951 . S
C67 C66 1.340 . S
C67 C68 1.439 . S
C67 H99 0.950 . S
C68 N64 1.374 . S
C68 C67 1.439 . S
C68 C93 1.395 . S
N69 Co58 1.995 . S
N69 C70 1.376 . S
N69 C73 1.383 . S
C70 N69 1.376 . S
C70 C71 1.446 . S
C70 C93 1.391 . S
C71 C70 1.446 . S
C71 C72 1.339 . S
C71 H100 0.949 . S
C72 C71 1.339 . S
C72 C73 1.439 . S
C72 H101 0.950 . S
C73 N69 1.383 . S
C73 C72 1.439 . S
C73 C91 1.392 . S
N74 Co58 2.282 . S
N74 C77 1.332 . S
N74 C79 1.332 . S
C75 C76 1.386 . S
C75 C78 1.388 . S
C76 C75 1.386 . S
C76 C77 1.382 . S
C76 H102 0.950 . S
C77 N74 1.332 . S
C77 C76 1.382 . S
C77 H88 0.952 . S
C78 C75 1.388 . S
C78 C79 1.382 . S
C78 H103 0.950 . S
C79 N74 1.332 . S
C79 C78 1.382 . S
C79 H89 0.948 . S
N80 Co58 2.282 . S
N80 C84 1.332 . S
N80 C85 1.332 . S
C81 C82 1.388 . S
C81 C85 1.382 . S
C81 H104 0.950 . S
C82 C81 1.388 . S
C82 C83 1.386 . S
C83 C82 1.386 . S
C83 C84 1.382 . S
C83 H105 0.950 . S
C84 N80 1.332 . S
C84 C83 1.382 . S
C84 H86 0.952 . S
C85 N80 1.332 . S
C85 C81 1.382 . S
C85 H87 0.948 . S
H86 C84 0.952 . S
H87 C85 0.948 . S
H88 C77 0.952 . S
H89 C79 0.948 . S
C90 C56 1.395 . S
C90 C60 1.391 . S
C91 C53 1.389 . S
C91 C73 1.392 . S
C92 C63 1.392 . S
C92 C65 1.389 . S
C93 C68 1.395 . S
C93 C70 1.391 . S
H94 C54 0.951 . S
H95 C55 0.950 . S
H96 C61 0.949 . S
H97 C62 0.950 . S
H98 C66 0.951 . S
H99 C67 0.950 . S
H100 C71 0.949 . S
H101 C72 0.950 . S
H102 C76 0.950 . S
H103 C78 0.950 . S
H104 C81 0.950 . S
H105 C83 0.950 . S
C106 C107 1.443 . S
C106 N110 1.376 . S
C106 C144 1.389 . S
C107 C106 1.443 . S
C107 C108 1.340 . S
C107 H147 0.951 . S
C108 C107 1.340 . S
C108 C109 1.439 . S
C108 H148 0.950 . S
C109 C108 1.439 . S
C109 N110 1.374 . S
C109 C143 1.395 . S
N110 C106 1.376 . S
N110 C109 1.374 . S
N110 Co111 2.008 . S
Co111 N110 2.008 . S
Co111 N112 1.995 . S
Co111 N117 2.008 . S
Co111 N122 1.995 . S
Co111 N127 2.282 . S
Co111 N133 2.282 . S
N112 Co111 1.995 . S
N112 C113 1.376 . S
N112 C116 1.383 . S
C113 N112 1.376 . S
C113 C114 1.446 . S
C113 C143 1.391 . S
C114 C113 1.446 . S
C114 C115 1.339 . S
C114 H149 0.949 . S
C115 C114 1.339 . S
C115 C116 1.439 . S
C115 H150 0.950 . S
C116 N112 1.383 . S
C116 C115 1.439 . S
C116 C145 1.392 . S
N117 Co111 2.008 . S
N117 C118 1.376 . S
N117 C121 1.374 . S
C118 N117 1.376 . S
C118 C119 1.443 . S
C118 C145 1.389 . S
C119 C118 1.443 . S
C119 C120 1.340 . S
C119 H151 0.951 . S
C120 C119 1.340 . S
C120 C121 1.439 . S
C120 H152 0.950 . S
C121 N117 1.374 . S
C121 C120 1.439 . S
C121 C146 1.395 . S
N122 Co111 1.995 . S
N122 C123 1.376 . S
N122 C126 1.383 . S
C123 N122 1.376 . S
C123 C124 1.446 . S
C123 C146 1.391 . S
C124 C123 1.446 . S
C124 C125 1.339 . S
C124 H153 0.949 . S
C125 C124 1.339 . S
C125 C126 1.439 . S
C125 H154 0.950 . S
C126 N122 1.383 . S
C126 C125 1.439 . S
C126 C144 1.392 . S
N127 Co111 2.282 . S
N127 C130 1.332 . S
N127 C132 1.332 . S
C128 C129 1.386 . S
C128 C131 1.388 . S
C129 C128 1.386 . S
C129 C130 1.382 . S
C129 H155 0.950 . S
C130 N127 1.332 . S
C130 C129 1.382 . S
C130 H141 0.952 . S
C131 C128 1.388 . S
C131 C132 1.382 . S
C131 H156 0.950 . S
C132 N127 1.332 . S
C132 C131 1.382 . S
C132 H142 0.948 . S
N133 Co111 2.282 . S
N133 C137 1.332 . S
N133 C138 1.332 . S
C134 C135 1.388 . S
C134 C138 1.382 . S
C134 H157 0.950 . S
C135 C134 1.388 . S
C135 C136 1.386 . S
C136 C135 1.386 . S
C136 C137 1.382 . S
C136 H158 0.950 . S
C137 N133 1.332 . S
C137 C136 1.382 . S
C137 H139 0.952 . S
C138 N133 1.332 . S
C138 C134 1.382 . S
C138 H140 0.948 . S
H139 C137 0.952 . S
H140 C138 0.948 . S
H141 C130 0.952 . S
H142 C132 0.948 . S
C143 C109 1.395 . S
C143 C113 1.391 . S
C144 C106 1.389 . S
C144 C126 1.392 . S
C145 C116 1.392 . S
C145 C118 1.389 . S
C146 C121 1.395 . S
C146 C123 1.391 . S
H147 C107 0.951 . S
H148 C108 0.950 . S
H149 C114 0.949 . S
H150 C115 0.950 . S
H151 C119 0.951 . S
H152 C120 0.950 . S
H153 C124 0.949 . S
H154 C125 0.950 . S
H155 C129 0.950 . S
H156 C131 0.950 . S
H157 C134 0.950 . S
H158 C136 0.950 . S
C159 C160 1.443 . S
C159 N163 1.376 . S
C159 C197 1.389 . S
C160 C159 1.443 . S
C160 C161 1.340 . S
C160 H200 0.951 . S
C161 C160 1.340 . S
C161 C162 1.439 . S
C161 H201 0.950 . S
C162 C161 1.439 . S
C162 N163 1.374 . S
C162 C196 1.395 . S
N163 C159 1.376 . S
N163 C162 1.374 . S
N163 Co164 2.008 . S
Co164 N163 2.008 . S
Co164 N165 1.995 . S
Co164 N170 2.008 . S
Co164 N175 1.995 . S
Co164 N180 2.282 . S
Co164 N186 2.282 . S
N165 Co164 1.995 . S
N165 C166 1.376 . S
N165 C169 1.383 . S
C166 N165 1.376 . S
C166 C167 1.446 . S
C166 C196 1.391 . S
C167 C166 1.446 . S
C167 C168 1.339 . S
C167 H202 0.949 . S
C168 C167 1.339 . S
C168 C169 1.439 . S
C168 H203 0.950 . S
C169 N165 1.383 . S
C169 C168 1.439 . S
C169 C198 1.392 . S
N170 Co164 2.008 . S
N170 C171 1.376 . S
N170 C174 1.374 . S
C171 N170 1.376 . S
C171 C172 1.443 . S
C171 C198 1.389 . S
C172 C171 1.443 . S
C172 C173 1.340 . S
C172 H204 0.951 . S
C173 C172 1.340 . S
C173 C174 1.439 . S
C173 H205 0.950 . S
C174 N170 1.374 . S
C174 C173 1.439 . S
C174 C199 1.395 . S
N175 Co164 1.995 . S
N175 C176 1.376 . S
N175 C179 1.383 . S
C176 N175 1.376 . S
C176 C177 1.446 . S
C176 C199 1.391 . S
C177 C176 1.446 . S
C177 C178 1.339 . S
C177 H206 0.949 . S
C178 C177 1.339 . S
C178 C179 1.439 . S
C178 H207 0.950 . S
C179 N175 1.383 . S
C179 C178 1.439 . S
C179 C197 1.392 . S
N180 Co164 2.282 . S
N180 C183 1.332 . S
N180 C185 1.332 . S
C181 C182 1.386 . S
C181 C184 1.388 . S
C182 C181 1.386 . S
C182 C183 1.382 . S
C182 H208 0.950 . S
C183 N180 1.332 . S
C183 C182 1.382 . S
C183 H194 0.952 . S
C184 C181 1.388 . S
C184 C185 1.382 . S
C184 H209 0.950 . S
C185 N180 1.332 . S
C185 C184 1.382 . S
C185 H195 0.948 . S
N186 Co164 2.282 . S
N186 C190 1.332 . S
N186 C191 1.332 . S
C187 C188 1.388 . S
C187 C191 1.382 . S
C187 H210 0.950 . S
C188 C187 1.388 . S
C188 C189 1.386 . S
C189 C188 1.386 . S
C189 C190 1.382 . S
C189 H211 0.950 . S
C190 N186 1.332 . S
C190 C189 1.382 . S
C190 H192 0.952 . S
C191 N186 1.332 . S
C191 C187 1.382 . S
C191 H193 0.948 . S
H192 C190 0.952 . S
H193 C191 0.948 . S
H194 C183 0.952 . S
H195 C185 0.948 . S
C196 C162 1.395 . S
C196 C166 1.391 . S
C197 C159 1.389 . S
C197 C179 1.392 . S
C198 C169 1.392 . S
C198 C171 1.389 . S
C199 C174 1.395 . S
C199 C176 1.391 . S
H200 C160 0.951 . S
H201 C161 0.950 . S
H202 C167 0.949 . S
H203 C168 0.950 . S
H204 C172 0.951 . S
H205 C173 0.950 . S
H206 C177 0.949 . S
H207 C178 0.950 . S
H208 C182 0.950 . S
H209 C184 0.950 . S
H210 C187 0.950 . S
H211 C189 0.950 . S
C212 C213 1.443 . S
C212 N216 1.376 . S
C212 C250 1.389 . S
C213 C212 1.443 . S
C213 C214 1.340 . S
C213 H253 0.951 . S
C214 C213 1.340 . S
C214 C215 1.439 . S
C214 H254 0.950 . S
C215 C214 1.439 . S
C215 N216 1.374 . S
C215 C249 1.395 . S
N216 C212 1.376 . S
N216 C215 1.374 . S
N216 Co217 2.008 . S
Co217 N216 2.008 . S
Co217 N218 1.995 . S
Co217 N223 2.008 . S
Co217 N228 1.995 . S
Co217 N233 2.282 . S
Co217 N239 2.282 . S
N218 Co217 1.995 . S
N218 C219 1.376 . S
N218 C222 1.383 . S
C219 N218 1.376 . S
C219 C220 1.446 . S
C219 C249 1.391 . S
C220 C219 1.446 . S
C220 C221 1.339 . S
C220 H255 0.949 . S
C221 C220 1.339 . S
C221 C222 1.439 . S
C221 H256 0.950 . S
C222 N218 1.383 . S
C222 C221 1.439 . S
C222 C251 1.392 . S
N223 Co217 2.008 . S
N223 C224 1.376 . S
N223 C227 1.374 . S
C224 N223 1.376 . S
C224 C225 1.443 . S
C224 C251 1.389 . S
C225 C224 1.443 . S
C225 C226 1.340 . S
C225 H257 0.951 . S
C226 C225 1.340 . S
C226 C227 1.439 . S
C226 H258 0.950 . S
C227 N223 1.374 . S
C227 C226 1.439 . S
C227 C252 1.395 . S
N228 Co217 1.995 . S
N228 C229 1.376 . S
N228 C232 1.383 . S
C229 N228 1.376 . S
C229 C230 1.446 . S
C229 C252 1.391 . S
C230 C229 1.446 . S
C230 C231 1.339 . S
C230 H259 0.949 . S
C231 C230 1.339 . S
C231 C232 1.439 . S
C231 H260 0.950 . S
C232 N228 1.383 . S
C232 C231 1.439 . S
C232 C250 1.392 . S
N233 Co217 2.282 . S
N233 C236 1.332 . S
N233 C238 1.332 . S
C234 C235 1.386 . S
C234 C237 1.388 . S
C235 C234 1.386 . S
C235 C236 1.382 . S
C235 H261 0.950 . S
C236 N233 1.332 . S
C236 C235 1.382 . S
C236 H247 0.952 . S
C237 C234 1.388 . S
C237 C238 1.382 . S
C237 H262 0.950 . S
C238 N233 1.332 . S
C238 C237 1.382 . S
C238 H248 0.948 . S
N239 Co217 2.282 . S
N239 C243 1.332 . S
N239 C244 1.332 . S
C240 C241 1.388 . S
C240 C244 1.382 . S
C240 H263 0.950 . S
C241 C240 1.388 . S
C241 C242 1.386 . S
C242 C241 1.386 . S
C242 C243 1.382 . S
C242 H264 0.950 . S
C243 N239 1.332 . S
C243 C242 1.382 . S
C243 H245 0.952 . S
C244 N239 1.332 . S
C244 C240 1.382 . S
C244 H246 0.948 . S
H245 C243 0.952 . S
H246 C244 0.948 . S
H247 C236 0.952 . S
H248 C238 0.948 . S
C249 C215 1.395 . S
C249 C219 1.391 . S
C250 C212 1.389 . S
C250 C232 1.392 . S
C251 C222 1.392 . S
C251 C224 1.389 . S
C252 C227 1.395 . S
C252 C229 1.391 . S
H253 C213 0.951 . S
H254 C214 0.950 . S
H255 C220 0.949 . S
H256 C221 0.950 . S
H257 C225 0.951 . S
H258 C226 0.950 . S
H259 C230 0.949 . S
H260 C231 0.950 . S
H261 C235 0.950 . S
H262 C237 0.950 . S
H263 C240 0.950 . S
H264 C242 0.950 . S
C265 C266 1.443 . S
C265 N269 1.376 . S
C265 C303 1.389 . S
C266 C265 1.443 . S
C266 C267 1.340 . S
C266 H306 0.951 . S
C267 C266 1.340 . S
C267 C268 1.439 . S
C267 H307 0.950 . S
C268 C267 1.439 . S
C268 N269 1.374 . S
C268 C302 1.395 . S
N269 C265 1.376 . S
N269 C268 1.374 . S
N269 Co270 2.008 . S
Co270 N269 2.008 . S
Co270 N271 1.995 . S
Co270 N276 2.008 . S
Co270 N281 1.995 . S
Co270 N286 2.282 . S
Co270 N292 2.282 . S
N271 Co270 1.995 . S
N271 C272 1.376 . S
N271 C275 1.383 . S
C272 N271 1.376 . S
C272 C273 1.446 . S
C272 C302 1.391 . S
C273 C272 1.446 . S
C273 C274 1.339 . S
C273 H308 0.949 . S
C274 C273 1.339 . S
C274 C275 1.439 . S
C274 H309 0.950 . S
C275 N271 1.383 . S
C275 C274 1.439 . S
C275 C304 1.392 . S
N276 Co270 2.008 . S
N276 C277 1.376 . S
N276 C280 1.374 . S
C277 N276 1.376 . S
C277 C278 1.443 . S
C277 C304 1.389 . S
C278 C277 1.443 . S
C278 C279 1.340 . S
C278 H310 0.951 . S
C279 C278 1.340 . S
C279 C280 1.439 . S
C279 H311 0.950 . S
C280 N276 1.374 . S
C280 C279 1.439 . S
C280 C305 1.395 . S
N281 Co270 1.995 . S
N281 C282 1.376 . S
N281 C285 1.383 . S
C282 N281 1.376 . S
C282 C283 1.446 . S
C282 C305 1.391 . S
C283 C282 1.446 . S
C283 C284 1.339 . S
C283 H312 0.949 . S
C284 C283 1.339 . S
C284 C285 1.439 . S
C284 H313 0.950 . S
C285 N281 1.383 . S
C285 C284 1.439 . S
C285 C303 1.392 . S
N286 Co270 2.282 . S
N286 C289 1.332 . S
N286 C291 1.332 . S
C287 C288 1.386 . S
C287 C290 1.388 . S
C288 C287 1.386 . S
C288 C289 1.382 . S
C288 H314 0.950 . S
C289 N286 1.332 . S
C289 C288 1.382 . S
C289 H300 0.952 . S
C290 C287 1.388 . S
C290 C291 1.382 . S
C290 H315 0.950 . S
C291 N286 1.332 . S
C291 C290 1.382 . S
C291 H301 0.948 . S
N292 Co270 2.282 . S
N292 C296 1.332 . S
N292 C297 1.332 . S
C293 C294 1.388 . S
C293 C297 1.382 . S
C293 H316 0.950 . S
C294 C293 1.388 . S
C294 C295 1.386 . S
C295 C294 1.386 . S
C295 C296 1.382 . S
C295 H317 0.950 . S
C296 N292 1.332 . S
C296 C295 1.382 . S
C296 H298 0.952 . S
C297 N292 1.332 . S
C297 C293 1.382 . S
C297 H299 0.948 . S
H298 C296 0.952 . S
H299 C297 0.948 . S
H300 C289 0.952 . S
H301 C291 0.948 . S
C302 C268 1.395 . S
C302 C272 1.391 . S
C303 C265 1.389 . S
C303 C285 1.392 . S
C304 C275 1.392 . S
C304 C277 1.389 . S
C305 C280 1.395 . S
C305 C282 1.391 . S
H306 C266 0.951 . S
H307 C267 0.950 . S
H308 C273 0.949 . S
H309 C274 0.950 . S
H310 C278 0.951 . S
H311 C279 0.950 . S
H312 C283 0.949 . S
H313 C284 0.950 . S
H314 C288 0.950 . S
H315 C290 0.950 . S
H316 C293 0.950 . S
H317 C295 0.950 . S
C318 C319 1.363 . S
C318 C324 1.379 1_545 S
C318 N326 1.356 . S
C319 C318 1.363 . S
C319 C325 1.363 . S
C320 C321 1.363 . S
C320 C325 1.379 1_565 S
C320 N327 1.356 . S
C321 C320 1.363 . S
C321 C324 1.363 . S
N322 C324 1.356 . S
N322 H334 0.984 . S
N322 H335 0.985 . S
N323 C325 1.356 . S
N323 H328 0.984 . S
N323 H329 0.985 . S
C324 C318 1.379 1_565 S
C324 C321 1.363 . S
C324 N322 1.356 . S
C325 C319 1.363 . S
C325 C320 1.379 1_545 S
C325 N323 1.356 . S
N326 C318 1.356 . S
N326 H332 0.984 . S
N326 H333 0.984 . S
N327 C320 1.356 . S
N327 H330 0.984 . S
N327 H331 0.985 . S
H328 N323 0.984 . S
H329 N323 0.985 . S
H330 N327 0.984 . S
H331 N327 0.985 . S
H332 N326 0.984 . S
H333 N326 0.984 . S
H334 N322 0.984 . S
H335 N322 0.985 . S
C336 C337 1.363 . S
C336 C342 1.379 . S
C336 N344 1.356 . S
C337 C336 1.363 . S
C337 C343 1.363 . S
C338 C339 1.363 . S
C338 C343 1.379 . S
C338 N345 1.356 . S
C339 C338 1.363 . S
C339 C342 1.363 . S
N340 C342 1.356 . S
N340 H352 0.984 . S
N340 H353 0.985 . S
N341 C343 1.356 . S
N341 H346 0.984 . S
N341 H347 0.985 . S
C342 C336 1.379 . S
C342 C339 1.363 . S
C342 N340 1.356 . S
C343 C337 1.363 . S
C343 C338 1.379 . S
C343 N341 1.356 . S
N344 C336 1.356 . S
N344 H350 0.984 . S
N344 H351 0.984 . S
N345 C338 1.356 . S
N345 H348 0.984 . S
N345 H349 0.985 . S
H346 N341 0.984 . S
H347 N341 0.985 . S
H348 N345 0.984 . S
H349 N345 0.985 . S
H350 N344 0.984 . S
H351 N344 0.984 . S
H352 N340 0.984 . S
H353 N340 0.985 . S
C354 C355 1.363 . S
C354 C360 1.379 1_655 S
C354 N362 1.356 . S
C355 C354 1.363 . S
C355 C361 1.363 . S
C356 C357 1.363 . S
C356 C361 1.379 1_455 S
C356 N363 1.356 . S
C357 C356 1.363 . S
C357 C360 1.363 . S
N358 C360 1.356 . S
N358 H370 0.984 . S
N358 H371 0.985 . S
N359 C361 1.356 . S
N359 H364 0.984 . S
N359 H365 0.985 . S
C360 C354 1.379 1_455 S
C360 C357 1.363 . S
C360 N358 1.356 . S
C361 C355 1.363 . S
C361 C356 1.379 1_655 S
C361 N359 1.356 . S
N362 C354 1.356 . S
N362 H368 0.984 . S
N362 H369 0.984 . S
N363 C356 1.356 . S
N363 H366 0.984 . S
N363 H367 0.985 . S
H364 N359 0.984 . S
H365 N359 0.985 . S
H366 N363 0.984 . S
H367 N363 0.985 . S
H368 N362 0.984 . S
H369 N362 0.984 . S
H370 N358 0.984 . S
H371 N358 0.985 . S
C372 C373 1.363 . S
C372 C378 1.379 1_455 S
C372 N380 1.356 . S
C373 C372 1.363 . S
C373 C379 1.363 . S
C374 C375 1.363 . S
C374 C379 1.379 1_655 S
C374 N381 1.356 . S
C375 C374 1.363 . S
C375 C378 1.363 . S
N376 C378 1.356 . S
N376 H388 0.984 . S
N376 H389 0.985 . S
N377 C379 1.356 . S
N377 H382 0.984 . S
N377 H383 0.985 . S
C378 C372 1.379 1_655 S
C378 C375 1.363 . S
C378 N376 1.356 . S
C379 C373 1.363 . S
C379 C374 1.379 1_455 S
C379 N377 1.356 . S
N380 C372 1.356 . S
N380 H386 0.984 . S
N380 H387 0.984 . S
N381 C374 1.356 . S
N381 H384 0.984 . S
N381 H385 0.985 . S
H382 N377 0.984 . S
H383 N377 0.985 . S
H384 N381 0.984 . S
H385 N381 0.985 . S
H386 N380 0.984 . S
H387 N380 0.984 . S
H388 N376 0.984 . S
H389 N376 0.985 . S
C390 C391 1.363 . S
C390 C396 1.379 1_565 S
C390 N398 1.356 . S
C391 C390 1.363 . S
C391 C397 1.363 . S
C392 C393 1.363 . S
C392 C397 1.379 1_545 S
C392 N399 1.356 . S
C393 C392 1.363 . S
C393 C396 1.363 . S
N394 C396 1.356 . S
N394 H406 0.984 . S
N394 H407 0.985 . S
N395 C397 1.356 . S
N395 H400 0.984 . S
N395 H401 0.985 . S
C396 C390 1.379 1_545 S
C396 C393 1.363 . S
C396 N394 1.356 . S
C397 C391 1.363 . S
C397 C392 1.379 1_565 S
C397 N395 1.356 . S
N398 C390 1.356 . S
N398 H404 0.984 . S
N398 H405 0.984 . S
N399 C392 1.356 . S
N399 H402 0.984 . S
N399 H403 0.985 . S
H400 N395 0.984 . S
H401 N395 0.985 . S
H402 N399 0.984 . S
H403 N399 0.985 . S
H404 N398 0.984 . S
H405 N398 0.984 . S
H406 N394 0.984 . S
H407 N394 0.985 . S
C408 C409 1.363 . S
C408 C414 1.379 . S
C408 N416 1.356 . S
C409 C408 1.363 . S
C409 C415 1.363 . S
C410 C411 1.363 . S
C410 C415 1.379 . S
C410 N417 1.356 . S
C411 C410 1.363 . S
C411 C414 1.363 . S
N412 C414 1.356 . S
N412 H424 0.984 . S
N412 H425 0.985 . S
N413 C415 1.356 . S
N413 H418 0.984 . S
N413 H419 0.985 . S
C414 C408 1.379 . S
C414 C411 1.363 . S
C414 N412 1.356 . S
C415 C409 1.363 . S
C415 C410 1.379 . S
C415 N413 1.356 . S
N416 C408 1.356 . S
N416 H422 0.984 . S
N416 H423 0.984 . S
N417 C410 1.356 . S
N417 H420 0.984 . S
N417 H421 0.985 . S
H418 N413 0.984 . S
H419 N413 0.985 . S
H420 N417 0.984 . S
H421 N417 0.985 . S
H422 N416 0.984 . S
H423 N416 0.984 . S
H424 N412 0.984 . S
H425 N412 0.985 . S
C426 C427 1.363 . S
C426 C432 1.379 . S
C426 N434 1.356 . S
C427 C426 1.363 . S
C427 C433 1.363 1_556 S
C428 C429 1.363 . S
C428 C433 1.379 . S
C428 N435 1.356 . S
C429 C428 1.363 . S
C429 C432 1.363 1_554 S
N430 C432 1.356 1_554 S
N430 H442 0.984 1_554 S
N430 H443 0.985 . S
N431 C433 1.356 1_556 S
N431 H436 0.984 . S
N431 H437 0.985 1_556 S
C432 C426 1.379 . S
C432 C429 1.363 1_556 S
C432 N430 1.356 1_556 S
C433 C427 1.363 1_554 S
C433 C428 1.379 . S
C433 N431 1.356 1_554 S
N434 C426 1.356 . S
N434 H440 0.984 . S
N434 H441 0.984 . S
N435 C428 1.356 . S
N435 H438 0.984 . S
N435 H439 0.985 . S
H436 N431 0.984 . S
H437 N431 0.985 1_554 S
H438 N435 0.984 . S
H439 N435 0.985 . S
H440 N434 0.984 . S
H441 N434 0.984 . S
H442 N430 0.984 1_556 S
H443 N430 0.985 . S
C444 C445 1.363 . S
C444 C450 1.379 . S
C444 N452 1.356 . S
C445 C444 1.363 . S
C445 C451 1.363 . S
C446 C447 1.363 . S
C446 C451 1.379 . S
C446 N453 1.356 . S
C447 C446 1.363 . S
C447 C450 1.363 . S
N448 C450 1.356 . S
N448 H460 0.984 . S
N448 H461 0.985 . S
N449 C451 1.356 . S
N449 H454 0.984 . S
N449 H455 0.985 . S
C450 C444 1.379 . S
C450 C447 1.363 . S
C450 N448 1.356 . S
C451 C445 1.363 . S
C451 C446 1.379 . S
C451 N449 1.356 . S
N452 C444 1.356 . S
N452 H458 0.984 . S
N452 H459 0.984 . S
N453 C446 1.356 . S
N453 H456 0.984 . S
N453 H457 0.985 . S
H454 N449 0.984 . S
H455 N449 0.985 . S
H456 N453 0.984 . S
H457 N453 0.985 . S
H458 N452 0.984 . S
H459 N452 0.984 . S
H460 N448 0.984 . S
H461 N448 0.985 . S
C462 C463 1.363 . S
C462 C468 1.379 . S
C462 N470 1.356 . S
C463 C462 1.363 . S
C463 C469 1.363 . S
C464 C465 1.363 . S
C464 C469 1.379 . S
C464 N471 1.356 . S
C465 C464 1.363 . S
C465 C468 1.363 . S
N466 C468 1.356 . S
N466 H478 0.984 . S
N466 H479 0.985 . S
N467 C469 1.356 . S
N467 H472 0.984 . S
N467 H473 0.985 . S
C468 C462 1.379 . S
C468 C465 1.363 . S
C468 N466 1.356 . S
C469 C463 1.363 . S
C469 C464 1.379 . S
C469 N467 1.356 . S
N470 C462 1.356 . S
N470 H476 0.984 . S
N470 H477 0.984 . S
N471 C464 1.356 . S
N471 H474 0.984 . S
N471 H475 0.985 . S
H472 N467 0.984 . S
H473 N467 0.985 . S
H474 N471 0.984 . S
H475 N471 0.985 . S
H476 N470 0.984 . S
H477 N470 0.984 . S
H478 N466 0.984 . S
H479 N466 0.985 . S
C480 C481 1.363 1_554 S
C480 C486 1.379 . S
C480 N488 1.356 1_554 S
C481 C480 1.363 1_556 S
C481 C487 1.363 . S
C482 C483 1.363 1_556 S
C482 C487 1.379 . S
C482 N489 1.356 1_556 S
C483 C482 1.363 1_554 S
C483 C486 1.363 . S
N484 C486 1.356 . S
N484 H496 0.984 . S
N484 H497 0.985 . S
N485 C487 1.356 . S
N485 H490 0.984 . S
N485 H491 0.985 . S
C486 C480 1.379 . S
C486 C483 1.363 . S
C486 N484 1.356 . S
C487 C481 1.363 . S
C487 C482 1.379 . S
C487 N485 1.356 . S
N488 C480 1.356 1_556 S
N488 H494 0.984 1_556 S
N488 H495 0.984 . S
N489 C482 1.356 1_554 S
N489 H492 0.984 . S
N489 H493 0.985 1_554 S
H490 N485 0.984 . S
H491 N485 0.985 . S
H492 N489 0.984 . S
H493 N489 0.985 1_556 S
H494 N488 0.984 1_554 S
H495 N488 0.984 . S
H496 N484 0.984 . S
H497 N484 0.985 . S
C498 C499 1.363 . S
C498 C504 1.379 . S
C498 N506 1.356 . S
C499 C498 1.363 . S
C499 C505 1.363 . S
C500 C501 1.363 . S
C500 C505 1.379 . S
C500 N507 1.356 . S
C501 C500 1.363 . S
C501 C504 1.363 . S
N502 C504 1.356 . S
N502 H514 0.984 . S
N502 H515 0.985 . S
N503 C505 1.356 . S
N503 H508 0.984 . S
N503 H509 0.985 . S
C504 C498 1.379 . S
C504 C501 1.363 . S
C504 N502 1.356 . S
C505 C499 1.363 . S
C505 C500 1.379 . S
C505 N503 1.356 . S
N506 C498 1.356 . S
N506 H512 0.984 . S
N506 H513 0.984 . S
N507 C500 1.356 . S
N507 H510 0.984 . S
N507 H511 0.985 . S
H508 N503 0.984 . S
H509 N503 0.985 . S
H510 N507 0.984 . S
H511 N507 0.985 . S
H512 N506 0.984 . S
H513 N506 0.984 . S
H514 N502 0.984 . S
H515 N502 0.985 . S
C516 C517 1.363 . S
C516 C522 1.379 . S
C516 N524 1.356 . S
C517 C516 1.363 . S
C517 C523 1.363 . S
C518 C519 1.363 . S
C518 C523 1.379 . S
C518 N525 1.356 . S
C519 C518 1.363 . S
C519 C522 1.363 . S
N520 C522 1.356 . S
N520 H532 0.984 . S
N520 H533 0.985 . S
N521 C523 1.356 . S
N521 H526 0.984 . S
N521 H527 0.985 . S
C522 C516 1.379 . S
C522 C519 1.363 . S
C522 N520 1.356 . S
C523 C517 1.363 . S
C523 C518 1.379 . S
C523 N521 1.356 . S
N524 C516 1.356 . S
N524 H530 0.984 . S
N524 H531 0.984 . S
N525 C518 1.356 . S
N525 H528 0.984 . S
N525 H529 0.985 . S
H526 N521 0.984 . S
H527 N521 0.985 . S
H528 N525 0.984 . S
H529 N525 0.985 . S
H530 N524 0.984 . S
H531 N524 0.984 . S
H532 N520 0.984 . S
H533 N520 0.985 . S
C319 C22 1.697 . S
C321 C181 1.697 . S
C337 C75 1.697 . S
C339 C234 1.697 . S
C355 C128 1.697 . S
C357 C287 1.697 . S
C373 C82 1.704 . S
C375 C241 1.704 . S
C391 C294 1.705 . S
C393 C135 1.705 . S
C409 C188 1.705 . S
C411 C29 1.705 . S
C427 C144 2.310 . S
C429 C39 2.294 . S
C445 C197 2.310 . S
C447 C92 2.294 . S
C463 C145 2.294 . S
C465 C250 2.310 . S
C481 C303 2.310 . S
C483 C198 2.294 . S
C499 C251 2.294 . S
C501 C38 2.310 . S
C517 C304 2.294 . S
C519 C91 2.310 . S
