# Generated by pormake.
# Topology gme, (4)-cn, num edge types: 1
# Building blocks:
#     Node 0, Type 0, BuildingBlock: CEKHIL_clean_sbu_0, # of connection points: 4
#     Node 1, Type 0, BuildingBlock: CEKHIL_clean_sbu_0, # of connection points: 4
#     Node 2, Type 0, BuildingBlock: CEKHIL_clean_sbu_0, # of connection points: 4
#     Node 3, Type 0, BuildingBlock: CEKHIL_clean_sbu_0, # of connection points: 4
#     Node 4, Type 0, BuildingBlock: CEKHIL_clean_sbu_0, # of connection points: 4
#     Node 5, Type 0, BuildingBlock: CEKHIL_clean_sbu_0, # of connection points: 4
#     Node 6, Type 0, BuildingBlock: CEKHIL_clean_sbu_0, # of connection points: 4
#     Node 7, Type 0, BuildingBlock: CEKHIL_clean_sbu_0, # of connection points: 4
#     Node 8, Type 0, BuildingBlock: CEKHIL_clean_sbu_0, # of connection points: 4
#     Node 9, Type 0, BuildingBlock: CEKHIL_clean_sbu_0, # of connection points: 4
#     Node 10, Type 0, BuildingBlock: CEKHIL_clean_sbu_0, # of connection points: 4
#     Node 11, Type 0, BuildingBlock: CEKHIL_clean_sbu_0, # of connection points: 4
#     Node 12, Type 0, BuildingBlock: CEKHIL_clean_sbu_0, # of connection points: 4
#     Node 13, Type 0, BuildingBlock: CEKHIL_clean_sbu_0, # of connection points: 4
#     Node 14, Type 0, BuildingBlock: CEKHIL_clean_sbu_0, # of connection points: 4
#     Node 15, Type 0, BuildingBlock: CEKHIL_clean_sbu_0, # of connection points: 4
#     Node 16, Type 0, BuildingBlock: CEKHIL_clean_sbu_0, # of connection points: 4
#     Node 17, Type 0, BuildingBlock: CEKHIL_clean_sbu_0, # of connection points: 4
#     Node 18, Type 0, BuildingBlock: CEKHIL_clean_sbu_0, # of connection points: 4
#     Node 19, Type 0, BuildingBlock: CEKHIL_clean_sbu_0, # of connection points: 4
#     Node 20, Type 0, BuildingBlock: CEKHIL_clean_sbu_0, # of connection points: 4
#     Node 21, Type 0, BuildingBlock: CEKHIL_clean_sbu_0, # of connection points: 4
#     Node 22, Type 0, BuildingBlock: CEKHIL_clean_sbu_0, # of connection points: 4
#     Node 23, Type 0, BuildingBlock: CEKHIL_clean_sbu_0, # of connection points: 4
#     Edge 24, Type (0, 0), BuildingBlock: OJICUG_clean_linker_0, # of connection points: 2
#     Edge 25, Type (0, 0), BuildingBlock: OJICUG_clean_linker_0, # of connection points: 2
#     Edge 26, Type (0, 0), BuildingBlock: OJICUG_clean_linker_0, # of connection points: 2
#     Edge 27, Type (0, 0), BuildingBlock: OJICUG_clean_linker_0, # of connection points: 2
#     Edge 28, Type (0, 0), BuildingBlock: OJICUG_clean_linker_0, # of connection points: 2
#     Edge 29, Type (0, 0), BuildingBlock: OJICUG_clean_linker_0, # of connection points: 2
#     Edge 30, Type (0, 0), BuildingBlock: OJICUG_clean_linker_0, # of connection points: 2
#     Edge 31, Type (0, 0), BuildingBlock: OJICUG_clean_linker_0, # of connection points: 2
#     Edge 32, Type (0, 0), BuildingBlock: OJICUG_clean_linker_0, # of connection points: 2
#     Edge 33, Type (0, 0), BuildingBlock: OJICUG_clean_linker_0, # of connection points: 2
#     Edge 34, Type (0, 0), BuildingBlock: OJICUG_clean_linker_0, # of connection points: 2
#     Edge 35, Type (0, 0), BuildingBlock: OJICUG_clean_linker_0, # of connection points: 2
#     Edge 36, Type (0, 0), BuildingBlock: OJICUG_clean_linker_0, # of connection points: 2
#     Edge 37, Type (0, 0), BuildingBlock: OJICUG_clean_linker_0, # of connection points: 2
#     Edge 38, Type (0, 0), BuildingBlock: OJICUG_clean_linker_0, # of connection points: 2
#     Edge 39, Type (0, 0), BuildingBlock: OJICUG_clean_linker_0, # of connection points: 2
#     Edge 40, Type (0, 0), BuildingBlock: OJICUG_clean_linker_0, # of connection points: 2
#     Edge 41, Type (0, 0), BuildingBlock: OJICUG_clean_linker_0, # of connection points: 2
#     Edge 42, Type (0, 0), BuildingBlock: OJICUG_clean_linker_0, # of connection points: 2
#     Edge 43, Type (0, 0), BuildingBlock: OJICUG_clean_linker_0, # of connection points: 2
#     Edge 44, Type (0, 0), BuildingBlock: OJICUG_clean_linker_0, # of connection points: 2
#     Edge 45, Type (0, 0), BuildingBlock: OJICUG_clean_linker_0, # of connection points: 2
#     Edge 46, Type (0, 0), BuildingBlock: OJICUG_clean_linker_0, # of connection points: 2
#     Edge 47, Type (0, 0), BuildingBlock: OJICUG_clean_linker_0, # of connection points: 2
#     Edge 48, Type (0, 0), BuildingBlock: OJICUG_clean_linker_0, # of connection points: 2
#     Edge 49, Type (0, 0), BuildingBlock: OJICUG_clean_linker_0, # of connection points: 2
#     Edge 50, Type (0, 0), BuildingBlock: OJICUG_clean_linker_0, # of connection points: 2
#     Edge 51, Type (0, 0), BuildingBlock: OJICUG_clean_linker_0, # of connection points: 2
#     Edge 52, Type (0, 0), BuildingBlock: OJICUG_clean_linker_0, # of connection points: 2
#     Edge 53, Type (0, 0), BuildingBlock: OJICUG_clean_linker_0, # of connection points: 2
#     Edge 54, Type (0, 0), BuildingBlock: OJICUG_clean_linker_0, # of connection points: 2
#     Edge 55, Type (0, 0), BuildingBlock: OJICUG_clean_linker_0, # of connection points: 2
#     Edge 56, Type (0, 0), BuildingBlock: OJICUG_clean_linker_0, # of connection points: 2
#     Edge 57, Type (0, 0), BuildingBlock: OJICUG_clean_linker_0, # of connection points: 2
#     Edge 58, Type (0, 0), BuildingBlock: OJICUG_clean_linker_0, # of connection points: 2
#     Edge 59, Type (0, 0), BuildingBlock: OJICUG_clean_linker_0, # of connection points: 2
#     Edge 60, Type (0, 0), BuildingBlock: OJICUG_clean_linker_0, # of connection points: 2
#     Edge 61, Type (0, 0), BuildingBlock: OJICUG_clean_linker_0, # of connection points: 2
#     Edge 62, Type (0, 0), BuildingBlock: OJICUG_clean_linker_0, # of connection points: 2
#     Edge 63, Type (0, 0), BuildingBlock: OJICUG_clean_linker_0, # of connection points: 2
#     Edge 64, Type (0, 0), BuildingBlock: OJICUG_clean_linker_0, # of connection points: 2
#     Edge 65, Type (0, 0), BuildingBlock: OJICUG_clean_linker_0, # of connection points: 2
#     Edge 66, Type (0, 0), BuildingBlock: OJICUG_clean_linker_0, # of connection points: 2
#     Edge 67, Type (0, 0), BuildingBlock: OJICUG_clean_linker_0, # of connection points: 2
#     Edge 68, Type (0, 0), BuildingBlock: OJICUG_clean_linker_0, # of connection points: 2
#     Edge 69, Type (0, 0), BuildingBlock: OJICUG_clean_linker_0, # of connection points: 2
#     Edge 70, Type (0, 0), BuildingBlock: OJICUG_clean_linker_0, # of connection points: 2
#     Edge 71, Type (0, 0), BuildingBlock: OJICUG_clean_linker_0, # of connection points: 2
# Relax obj value: 0.072
# Max RMSD: 0.096
# Mean RMSD: 0.096
data_MOF--net-gme--node1-CEKHIL_clean_sbu_0--edge1-OJICUG_clean_linker_0
_symmetry_space_group_name_H-M    P1
_symmetry_Int_Tables_number       1
_symmetry_cell_setting            triclinic
loop_
_symmetry_equiv_pos_as_xyz
'x, y, z'
_cell_length_a     39.24364
_cell_length_b     39.210586
_cell_length_c     41.287617
_cell_angle_alpha  89.999795
_cell_angle_beta   90.000347
_cell_angle_gamma 119.9102
loop_
_atom_site_label
_atom_site_type_symbol
_atom_site_fract_x
_atom_site_fract_y
_atom_site_fract_z
_atom_type_partial_charge
Co0 Co 0.38511 0.06243 0.1211 0.0
O1 O 0.39651 0.0701 0.07559 0.0
O2 O 0.35796 0.01236 0.09847 0.0
C3 C 0.37329 0.11297 0.12562 0.0
O4 O 0.36602 0.04446 0.1678 0.0
Co5 Co 0.43664 0.12958 0.16976 0.0
O6 O 0.39 0.0998 0.19762 0.0
C7 C 0.46505 0.07745 0.1441 0.0
C8 C 0.37354 0.03259 0.07214 0.0
C9 C 0.36702 0.06298 0.19399 0.0
O10 O 0.43279 0.05621 0.12848 0.0
O11 O 0.47237 0.10826 0.16024 0.0
O12 O 0.34557 0.07889 0.11569 0.0
O13 O 0.40702 0.11573 0.13018 0.0
Co14 Co 0.31948 0.38503 0.62106 0.0
O15 O 0.32303 0.39628 0.57551 0.0
O16 O 0.34251 0.35792 0.59844 0.0
C17 C 0.25716 0.37306 0.62571 0.0
O18 O 0.31859 0.36613 0.66781 0.0
Co19 Co 0.30383 0.43677 0.6696 0.0
O20 O 0.28745 0.39035 0.69768 0.0
C21 C 0.38416 0.46524 0.64376 0.0
C22 C 0.33773 0.3734 0.5721 0.0
C23 C 0.30128 0.36732 0.69406 0.0
O24 O 0.37322 0.43287 0.62828 0.0
O25 O 0.36069 0.47262 0.65987 0.0
O26 O 0.26359 0.34534 0.61578 0.0
O27 O 0.28801 0.40688 0.63015 0.0
Co28 Co 0.93201 0.32043 0.12095 0.0
O29 O 0.9245 0.3241 0.07539 0.0
O30 O 0.98217 0.34353 0.09847 0.0
C31 C 0.88176 0.25806 0.1255 0.0
O32 O 0.94979 0.31945 0.16777 0.0
Co33 Co 0.86449 0.30479 0.16926 0.0
O34 O 0.8944 0.28838 0.1975 0.0
C35 C 0.91638 0.3852 0.14356 0.0
C36 C 0.96205 0.33886 0.07208 0.0
C37 C 0.93121 0.30217 0.19399 0.0
O38 O 0.93784 0.37422 0.12817 0.0
O39 O 0.88551 0.36173 0.15957 0.0
O40 O 0.9159 0.26449 0.11565 0.0
O41 O 0.87875 0.28895 0.12989 0.0
Co42 Co 0.60897 0.93307 0.62106 0.0
O43 O 0.59787 0.92552 0.5755 0.0
O44 O 0.63614 0.98323 0.59852 0.0
C45 C 0.62088 0.8826 0.62569 0.0
O46 O 0.62771 0.95089 0.66787 0.0
Co47 Co 0.55709 0.86565 0.66943 0.0
O48 O 0.6034 0.89545 0.69761 0.0
C49 C 0.52879 0.91781 0.64365 0.0
C50 C 0.62074 0.96306 0.57214 0.0
C51 C 0.62641 0.93228 0.6941 0.0
O52 O 0.56118 0.93916 0.62823 0.0
O53 O 0.52136 0.88691 0.6597 0.0
O54 O 0.64863 0.9167 0.61583 0.0
O55 O 0.5871 0.87977 0.63006 0.0
Co56 Co 0.67309 0.61008 0.12115 0.0
O57 O 0.66937 0.59878 0.07562 0.0
O58 O 0.65013 0.63731 0.0986 0.0
C59 C 0.73536 0.62182 0.12562 0.0
O60 O 0.67419 0.62902 0.16792 0.0
Co61 Co 0.68863 0.55818 0.16958 0.0
O62 O 0.70535 0.60469 0.19763 0.0
C63 C 0.60825 0.53003 0.14398 0.0
C64 C 0.65474 0.62173 0.07224 0.0
C65 C 0.69158 0.62778 0.19411 0.0
O66 O 0.61929 0.56239 0.12845 0.0
O67 O 0.63166 0.52255 0.16005 0.0
O68 O 0.72901 0.64963 0.11576 0.0
O69 O 0.70444 0.58807 0.13012 0.0
Co70 Co 0.06216 0.67591 0.62079 0.0
O71 O 0.06955 0.67242 0.57517 0.0
O72 O 0.01194 0.65281 0.5984 0.0
C73 C 0.11234 0.73831 0.62543 0.0
O74 O 0.04451 0.67671 0.6677 0.0
Co75 Co 0.12993 0.69152 0.66885 0.0
O76 O 0.09996 0.70753 0.6974 0.0
C77 C 0.07801 0.61116 0.64307 0.0
C78 C 0.03199 0.65762 0.57194 0.0
C79 C 0.06314 0.69376 0.69397 0.0
O80 O 0.05644 0.62213 0.62782 0.0
O81 O 0.10895 0.63463 0.659 0.0
O82 O 0.07816 0.73186 0.61566 0.0
O83 O 0.11543 0.70745 0.62965 0.0
Co84 Co 0.93167 0.60999 0.39527 0.0
O85 O 0.92448 0.59909 0.44089 0.0
O86 O 0.98192 0.63753 0.4176 0.0
C87 C 0.88096 0.62153 0.39083 0.0
O88 O 0.94908 0.62854 0.34835 0.0
Co89 Co 0.86405 0.55754 0.34726 0.0
O90 O 0.89351 0.60366 0.31879 0.0
C91 C 0.91674 0.52982 0.37284 0.0
C92 C 0.96198 0.62215 0.44408 0.0
C93 C 0.93029 0.6269 0.32215 0.0
O94 O 0.93803 0.56232 0.38815 0.0
O95 O 0.8857 0.52211 0.35691 0.0
O96 O 0.91505 0.64948 0.4005 0.0
O97 O 0.87831 0.58778 0.38652 0.0
Co98 Co 0.31978 0.93414 0.89489 0.0
O99 O 0.32329 0.92629 0.9404 0.0
O100 O 0.34288 0.98419 0.91759 0.0
C101 C 0.25745 0.88394 0.89016 0.0
O102 O 0.31898 0.95228 0.84817 0.0
Co103 Co 0.30421 0.86689 0.84626 0.0
O104 O 0.28793 0.89706 0.81819 0.0
C105 C 0.38451 0.91859 0.87214 0.0
C106 C 0.3381 0.96385 0.94388 0.0
C107 C 0.30177 0.93389 0.82187 0.0
O108 O 0.37351 0.93996 0.88767 0.0
O109 O 0.36109 0.88784 0.85597 0.0
O110 O 0.26389 0.91807 0.90015 0.0
O111 O 0.2883 0.88091 0.88571 0.0
Co112 Co 0.38412 0.32064 0.39501 0.0
O113 O 0.39536 0.32433 0.44055 0.0
O114 O 0.35676 0.34345 0.41757 0.0
C115 C 0.37257 0.2584 0.39046 0.0
O116 O 0.36521 0.31954 0.34823 0.0
Co117 Co 0.43613 0.30532 0.34657 0.0
O118 O 0.38963 0.28845 0.31852 0.0
C119 C 0.46404 0.3857 0.37223 0.0
C120 C 0.37232 0.33884 0.44393 0.0
C121 C 0.36649 0.30215 0.32205 0.0
O122 O 0.43169 0.37456 0.38775 0.0
O123 O 0.4716 0.36234 0.35614 0.0
O124 O 0.34472 0.26464 0.40033 0.0
O125 O 0.40626 0.2894 0.38601 0.0
Co126 Co 0.06168 0.38583 0.89523 0.0
O127 O 0.06919 0.39678 0.94082 0.0
O128 O 0.0115 0.359 0.91767 0.0
C129 C 0.11167 0.37324 0.89059 0.0
O130 O 0.04387 0.36733 0.84838 0.0
Co131 Co 0.1294 0.43747 0.84702 0.0
O132 O 0.09926 0.3914 0.81864 0.0
C133 C 0.07789 0.46648 0.87285 0.0
C134 C 0.03163 0.37418 0.9441 0.0
C135 C 0.06241 0.3686 0.82213 0.0
O136 O 0.05621 0.43404 0.88814 0.0
O137 O 0.10874 0.47368 0.85688 0.0
O138 O 0.07746 0.3457 0.9004 0.0
O139 O 0.1149 0.40724 0.8863 0.0
Co140 Co 0.67387 0.06221 0.39507 0.0
O141 O 0.67007 0.06981 0.4406 0.0
O142 O 0.65103 0.0121 0.41766 0.0
C143 C 0.73607 0.11275 0.39058 0.0
O144 O 0.67506 0.04431 0.34833 0.0
Co145 Co 0.68929 0.12947 0.3465 0.0
O146 O 0.70607 0.09966 0.31851 0.0
C147 C 0.60891 0.07725 0.37206 0.0
C148 C 0.65556 0.03228 0.444 0.0
C149 C 0.69239 0.06285 0.32211 0.0
O150 O 0.62001 0.05602 0.38768 0.0
O151 O 0.63229 0.1081 0.35596 0.0
O152 O 0.72982 0.07866 0.40049 0.0
O153 O 0.7051 0.11553 0.38604 0.0
Co154 Co 0.60786 0.67402 0.89518 0.0
O155 O 0.59668 0.67046 0.94073 0.0
O156 O 0.63504 0.65103 0.91774 0.0
C157 C 0.61975 0.73637 0.89058 0.0
O158 O 0.62668 0.67494 0.8484 0.0
Co159 Co 0.55603 0.68962 0.84675 0.0
O160 O 0.60238 0.70608 0.81861 0.0
C161 C 0.52776 0.6092 0.87249 0.0
C162 C 0.6196 0.6558 0.94411 0.0
C163 C 0.62542 0.69226 0.82217 0.0
O164 O 0.56011 0.62021 0.88798 0.0
O165 O 0.52033 0.63266 0.8564 0.0
O166 O 0.64748 0.72995 0.90044 0.0
O167 O 0.58596 0.70548 0.88617 0.0
Co168 Co 0.60854 0.933 0.89515 0.0
O169 O 0.59735 0.92547 0.94071 0.0
O170 O 0.63588 0.98312 0.91771 0.0
C171 C 0.62016 0.88233 0.89058 0.0
O172 O 0.62742 0.95081 0.84837 0.0
Co173 Co 0.55661 0.86572 0.84669 0.0
O174 O 0.60299 0.89542 0.81856 0.0
C175 C 0.52856 0.91812 0.87241 0.0
C176 C 0.62038 0.96298 0.94408 0.0
C177 C 0.62611 0.93222 0.82213 0.0
O178 O 0.56092 0.93935 0.88791 0.0
O179 O 0.52105 0.88721 0.85634 0.0
O180 O 0.648 0.91638 0.90044 0.0
O181 O 0.58646 0.87967 0.88614 0.0
Co182 Co 0.67303 0.60984 0.39509 0.0
O183 O 0.66933 0.59853 0.44062 0.0
O184 O 0.65018 0.63715 0.41768 0.0
C185 C 0.73525 0.62147 0.39056 0.0
O186 O 0.67412 0.62881 0.34833 0.0
Co187 Co 0.68842 0.5579 0.3466 0.0
O188 O 0.70517 0.60442 0.31856 0.0
C189 C 0.60808 0.52986 0.37225 0.0
C190 C 0.6548 0.62155 0.44403 0.0
C191 C 0.69146 0.62756 0.32212 0.0
O192 O 0.61918 0.56221 0.38781 0.0
O193 O 0.63144 0.52234 0.35614 0.0
O194 O 0.72896 0.64931 0.40044 0.0
O195 O 0.7043 0.58774 0.38608 0.0
Co196 Co 0.06221 0.6758 0.89537 0.0
O197 O 0.06955 0.67224 0.941 0.0
O198 O 0.01196 0.65256 0.91772 0.0
C199 C 0.11231 0.73826 0.8908 0.0
O200 O 0.04458 0.67665 0.84847 0.0
Co201 Co 0.13005 0.69165 0.84732 0.0
O202 O 0.10004 0.70764 0.8188 0.0
C203 C 0.07827 0.61122 0.87302 0.0
C204 C 0.03198 0.65735 0.9442 0.0
C205 C 0.0632 0.69379 0.82222 0.0
O206 O 0.05662 0.62209 0.88826 0.0
O207 O 0.10921 0.63478 0.85713 0.0
O208 O 0.0781 0.73172 0.90057 0.0
O209 O 0.11548 0.70744 0.88654 0.0
Co210 Co 0.38464 0.06221 0.39478 0.0
O211 O 0.39602 0.06987 0.44029 0.0
O212 O 0.35749 0.01213 0.41741 0.0
C213 C 0.37285 0.11277 0.39025 0.0
O214 O 0.36563 0.04429 0.34806 0.0
Co215 Co 0.43628 0.1294 0.34619 0.0
O216 O 0.38968 0.09967 0.3183 0.0
C217 C 0.46459 0.07719 0.37185 0.0
C218 C 0.37308 0.03235 0.44373 0.0
C219 C 0.36669 0.06285 0.32187 0.0
O220 O 0.43232 0.05598 0.38745 0.0
O221 O 0.47197 0.10802 0.35571 0.0
O222 O 0.34511 0.07869 0.40017 0.0
O223 O 0.40658 0.11552 0.38573 0.0
Co224 Co 0.31913 0.38451 0.89503 0.0
O225 O 0.32266 0.39574 0.94058 0.0
O226 O 0.34223 0.35746 0.91764 0.0
C227 C 0.25678 0.37247 0.89037 0.0
O228 O 0.31829 0.36569 0.84826 0.0
Co229 Co 0.30344 0.43628 0.84655 0.0
O230 O 0.28707 0.38988 0.81845 0.0
C231 C 0.38378 0.46477 0.87237 0.0
C232 C 0.33743 0.37292 0.94399 0.0
C233 C 0.30097 0.36689 0.82202 0.0
O234 O 0.37285 0.43239 0.88783 0.0
O235 O 0.3603 0.47214 0.85627 0.0
O236 O 0.26325 0.34477 0.9003 0.0
O237 O 0.28762 0.40631 0.88596 0.0
Co238 Co 0.93211 0.32055 0.39515 0.0
O239 O 0.92464 0.32423 0.44072 0.0
O240 O 0.98225 0.34337 0.41764 0.0
C241 C 0.8816 0.25831 0.39059 0.0
O242 O 0.94985 0.3195 0.34833 0.0
Co243 Co 0.86474 0.30534 0.34683 0.0
O244 O 0.89448 0.28877 0.31855 0.0
C245 C 0.917 0.38566 0.37257 0.0
C246 C 0.96216 0.3388 0.44403 0.0
C247 C 0.93126 0.30236 0.32208 0.0
O248 O 0.93829 0.37448 0.38797 0.0
O249 O 0.8861 0.36234 0.35652 0.0
O250 O 0.91568 0.26453 0.40041 0.0
O251 O 0.87882 0.28933 0.3862 0.0
Co252 Co 0.06174 0.38594 0.6209 0.0
O253 O 0.06925 0.39687 0.5753 0.0
O254 O 0.01158 0.35895 0.59844 0.0
C255 C 0.11188 0.37359 0.62558 0.0
O256 O 0.04393 0.36742 0.66774 0.0
Co257 Co 0.12935 0.43776 0.66913 0.0
O258 O 0.09928 0.3917 0.69754 0.0
C259 C 0.07764 0.4665 0.64323 0.0
C260 C 0.03171 0.37416 0.57201 0.0
C261 C 0.06246 0.36878 0.69402 0.0
O262 O 0.05607 0.43404 0.62794 0.0
O263 O 0.10851 0.47381 0.65923 0.0
O264 O 0.07771 0.34595 0.61577 0.0
O265 O 0.11498 0.40753 0.62985 0.0
Co266 Co 0.67418 0.06207 0.12116 0.0
O267 O 0.67046 0.0697 0.07563 0.0
O268 O 0.65117 0.01194 0.09857 0.0
C269 C 0.73646 0.11244 0.12568 0.0
O270 O 0.67525 0.04417 0.16792 0.0
Co271 Co 0.68976 0.12945 0.16964 0.0
O272 O 0.70642 0.09957 0.19768 0.0
C273 C 0.60937 0.07743 0.14405 0.0
C274 C 0.65579 0.03215 0.07223 0.0
C275 C 0.69263 0.06273 0.19413 0.0
O276 O 0.62039 0.05609 0.12849 0.0
O277 O 0.6328 0.10827 0.16013 0.0
O278 O 0.73009 0.07831 0.11577 0.0
O279 O 0.70556 0.11536 0.13018 0.0
Co280 Co 0.60846 0.67434 0.62111 0.0
O281 O 0.59736 0.67085 0.57555 0.0
O282 O 0.63553 0.65121 0.59856 0.0
C283 C 0.62056 0.73676 0.62575 0.0
O284 O 0.62714 0.67515 0.66792 0.0
Co285 Co 0.55661 0.69006 0.66943 0.0
O286 O 0.60289 0.7064 0.69763 0.0
C287 C 0.52822 0.60964 0.64368 0.0
C288 C 0.62017 0.65607 0.57218 0.0
C289 C 0.62586 0.69249 0.69414 0.0
O290 O 0.56059 0.62059 0.62825 0.0
O291 O 0.52081 0.63313 0.65974 0.0
O292 O 0.64823 0.73024 0.6159 0.0
O293 O 0.58671 0.70593 0.6301 0.0
Co294 Co 0.93142 0.60977 0.12077 0.0
O295 O 0.92424 0.59884 0.07515 0.0
O296 O 0.9817 0.6371 0.09847 0.0
C297 C 0.88089 0.6216 0.12516 0.0
O298 O 0.94886 0.62834 0.16768 0.0
Co299 Co 0.8637 0.55762 0.16881 0.0
O300 O 0.8933 0.60377 0.19722 0.0
C301 C 0.91606 0.52947 0.14328 0.0
C302 C 0.96177 0.62177 0.07198 0.0
C303 C 0.93011 0.62686 0.19386 0.0
O304 O 0.9375 0.56194 0.12796 0.0
O305 O 0.88506 0.52194 0.15916 0.0
O306 O 0.91503 0.64943 0.11547 0.0
O307 O 0.87808 0.58779 0.1295 0.0
Co308 Co 0.32003 0.93393 0.62101 0.0
O309 O 0.32352 0.92605 0.57549 0.0
O310 O 0.34314 0.98396 0.59829 0.0
C311 C 0.25767 0.88378 0.62575 0.0
O312 O 0.31923 0.95212 0.66771 0.0
Co313 Co 0.30436 0.86669 0.66968 0.0
O314 O 0.28813 0.89692 0.69772 0.0
C315 C 0.38468 0.91826 0.64377 0.0
C316 C 0.33831 0.96361 0.572 0.0
C317 C 0.30199 0.93375 0.69401 0.0
O318 O 0.37374 0.93968 0.62824 0.0
O319 O 0.36121 0.88752 0.65994 0.0
O320 O 0.26416 0.91791 0.61574 0.0
O321 O 0.2885 0.88071 0.63021 0.0
Co322 Co 0.38436 0.32074 0.12109 0.0
O323 O 0.39563 0.32445 0.07555 0.0
O324 O 0.35697 0.34352 0.09852 0.0
C325 C 0.37285 0.25851 0.12561 0.0
O326 O 0.36539 0.31961 0.16785 0.0
Co327 Co 0.43631 0.3054 0.16959 0.0
O328 O 0.38977 0.2885 0.19759 0.0
C329 C 0.46423 0.3858 0.14394 0.0
C330 C 0.37254 0.33891 0.07216 0.0
C331 C 0.36662 0.3022 0.19404 0.0
O332 O 0.4319 0.37467 0.12838 0.0
O333 O 0.47177 0.36243 0.16004 0.0
O334 O 0.34499 0.26474 0.11574 0.0
O335 O 0.40653 0.28953 0.1301 0.0
C336 C 0.36268 0.02181 0.27495 0.0
C337 C 0.34683 0.04174 0.29197 0.0
H338 H 0.38036 0.01173 0.2284 0.0
C339 C 0.32504 0.0553 0.27478 0.0
H340 H 0.38017 0.01165 0.28759 0.0
C341 C 0.32514 0.05535 0.24093 0.0
C342 C 0.34703 0.04182 0.22384 0.0
H343 H 0.31289 0.07113 0.28731 0.0
H344 H 0.31307 0.07121 0.22835 0.0
C345 C 0.36278 0.02185 0.24094 0.0
C346 C 0.26725 0.32536 0.74101 0.0
C347 C 0.30258 0.3474 0.72394 0.0
H348 H 0.2392 0.31294 0.78736 0.0
C349 C 0.33824 0.36334 0.74106 0.0
H350 H 0.23937 0.31317 0.7284 0.0
C351 C 0.33815 0.3632 0.77508 0.0
C352 C 0.3024 0.34714 0.79208 0.0
H353 H 0.36587 0.38104 0.72853 0.0
H354 H 0.36572 0.38082 0.78772 0.0
C355 C 0.26716 0.32522 0.77487 0.0
C356 C 0.93886 0.26816 0.24115 0.0
C357 C 0.95227 0.30348 0.22397 0.0
H358 H 0.92315 0.24028 0.28757 0.0
C359 C 0.97201 0.33922 0.241 0.0
H360 H 0.92315 0.24022 0.22861 0.0
C361 C 0.97202 0.33926 0.27503 0.0
C362 C 0.95229 0.30356 0.29212 0.0
H363 H 0.98202 0.36685 0.22839 0.0
H364 H 0.98203 0.36692 0.28759 0.0
C365 C 0.93887 0.2682 0.27501 0.0
C366 C 0.63021 0.97318 0.74108 0.0
C367 C 0.64615 0.95333 0.72406 0.0
H368 H 0.61251 0.98325 0.78763 0.0
C369 C 0.66797 0.93981 0.74126 0.0
H370 H 0.61267 0.98327 0.72844 0.0
C371 C 0.66788 0.93979 0.77513 0.0
C372 C 0.64598 0.9533 0.79221 0.0
H373 H 0.68017 0.92402 0.72875 0.0
H374 H 0.68001 0.92398 0.78771 0.0
C375 C 0.63013 0.97316 0.7751 0.0
C376 C 0.72562 0.6693 0.2751 0.0
C377 C 0.69027 0.64749 0.29221 0.0
H378 H 0.75358 0.68147 0.22872 0.0
C379 C 0.65461 0.63174 0.27512 0.0
H380 H 0.7535 0.68135 0.28767 0.0
C381 C 0.65465 0.63181 0.2411 0.0
C382 C 0.69035 0.64763 0.22406 0.0
H383 H 0.62697 0.61422 0.28768 0.0
H384 H 0.62703 0.61433 0.22849 0.0
C385 C 0.72566 0.66938 0.24124 0.0
C386 C 0.05543 0.7277 0.74116 0.0
C387 C 0.04215 0.69237 0.72401 0.0
H388 H 0.07105 0.75566 0.78756 0.0
C389 C 0.02263 0.65665 0.7411 0.0
H390 H 0.071 0.75563 0.72859 0.0
C391 C 0.02266 0.65666 0.77512 0.0
C392 C 0.0422 0.6924 0.79218 0.0
H393 H 0.01276 0.62903 0.72851 0.0
H394 H 0.0128 0.62905 0.78771 0.0
C395 C 0.05546 0.72771 0.77502 0.0
C396 C 0.9709 0.63071 0.24095 0.0
C397 C 0.95096 0.64654 0.22391 0.0
H398 H 0.98118 0.61324 0.28753 0.0
C399 C 0.93731 0.66828 0.2411 0.0
H400 H 0.98107 0.61322 0.22833 0.0
C401 C 0.93739 0.6683 0.27496 0.0
C402 C 0.9511 0.64659 0.29208 0.0
H403 H 0.92144 0.68037 0.22857 0.0
H404 H 0.92155 0.6804 0.28754 0.0
C405 C 0.97097 0.63074 0.27497 0.0
C406 C 0.26805 0.94207 0.7748 0.0
C407 C 0.30329 0.95519 0.79198 0.0
H408 H 0.24019 0.92647 0.72837 0.0
C409 C 0.33903 0.97468 0.77495 0.0
H410 H 0.24011 0.92656 0.78733 0.0
C411 C 0.33908 0.97463 0.74093 0.0
C412 C 0.30339 0.95508 0.72384 0.0
H413 H 0.36658 0.98446 0.78758 0.0
H414 H 0.36667 0.98438 0.72839 0.0
C415 C 0.2681 0.94202 0.74094 0.0
C416 C 0.3623 0.33902 0.27505 0.0
C417 C 0.3466 0.3033 0.2921 0.0
H418 H 0.3798 0.36671 0.22847 0.0
C419 C 0.32494 0.26794 0.27494 0.0
H420 H 0.37971 0.36667 0.28766 0.0
C421 C 0.32499 0.26796 0.24108 0.0
C422 C 0.34669 0.30334 0.22396 0.0
H423 H 0.31293 0.24001 0.28749 0.0
H424 H 0.31301 0.24004 0.22853 0.0
C425 C 0.36234 0.33904 0.24103 0.0
C426 C 0.02186 0.36539 0.74107 0.0
C427 C 0.04135 0.34912 0.72398 0.0
H428 H 0.01204 0.38316 0.78769 0.0
C429 C 0.0545 0.32692 0.7411 0.0
H430 H 0.01209 0.38324 0.72849 0.0
C431 C 0.05447 0.32687 0.77497 0.0
C432 C 0.04131 0.34902 0.79214 0.0
H433 H 0.07002 0.31448 0.72853 0.0
H434 H 0.06998 0.31439 0.7875 0.0
C435 C 0.02184 0.36534 0.77509 0.0
C436 C 0.72657 0.05513 0.27513 0.0
C437 C 0.69121 0.0417 0.29222 0.0
H438 H 0.75457 0.07082 0.22876 0.0
C439 C 0.65556 0.02187 0.27511 0.0
H440 H 0.75444 0.07089 0.28772 0.0
C441 C 0.65563 0.02182 0.24109 0.0
C442 C 0.69135 0.04162 0.22407 0.0
H443 H 0.62791 0.01184 0.28765 0.0
H444 H 0.62803 0.01177 0.22846 0.0
C445 C 0.72663 0.05508 0.24127 0.0
C446 C 0.66738 0.7264 0.74131 0.0
C447 C 0.64554 0.69109 0.72412 0.0
H448 H 0.6794 0.75427 0.78774 0.0
C449 C 0.62953 0.65534 0.74115 0.0
H450 H 0.67963 0.75435 0.72878 0.0
C451 C 0.6294 0.65529 0.77517 0.0
C452 C 0.64529 0.69099 0.79226 0.0
H453 H 0.61198 0.62774 0.72852 0.0
H454 H 0.61175 0.62764 0.78771 0.0
C455 C 0.66725 0.72635 0.77517 0.0
C456 C 0.33665 0.14957 0.11632 0.0
C457 C 0.36821 0.14742 0.13027 0.0
H458 H 0.31312 0.18707 0.10394 0.0
C459 C 0.39789 0.18048 0.14625 0.0
H460 H 0.31331 0.12439 0.10394 0.0
C461 C 0.39778 0.21583 0.14625 0.0
C462 C 0.36799 0.21907 0.13027 0.0
H463 H 0.42232 0.17967 0.15765 0.0
H464 H 0.42213 0.2411 0.15765 0.0
C465 C 0.33654 0.18533 0.11632 0.0
C466 C 0.14838 0.33688 0.61602 0.0
C467 C 0.1461 0.36819 0.6304 0.0
H468 H 0.186 0.31363 0.60329 0.0
C469 C 0.17891 0.39747 0.6469 0.0
H470 H 0.12338 0.31385 0.60323 0.0
C471 C 0.21421 0.39734 0.64694 0.0
C472 C 0.21765 0.36793 0.63047 0.0
H473 H 0.17797 0.42167 0.65865 0.0
H474 H 0.23932 0.42144 0.65871 0.0
C475 C 0.1841 0.33675 0.61605 0.0
C476 C 0.84523 0.18491 0.11596 0.0
C477 C 0.84749 0.21852 0.13026 0.0
H478 H 0.80766 0.12407 0.10333 0.0
C479 C 0.81463 0.21509 0.14667 0.0
H480 H 0.87026 0.18681 0.10325 0.0
C481 C 0.77933 0.17971 0.14672 0.0
C482 C 0.77594 0.14681 0.13036 0.0
H483 H 0.81554 0.24024 0.15836 0.0
H484 H 0.7542 0.17876 0.15844 0.0
C485 C 0.80952 0.14912 0.11601 0.0
C486 C 0.65718 0.8099 0.61625 0.0
C487 C 0.62582 0.77634 0.6305 0.0
H488 H 0.68046 0.87077 0.60359 0.0
C489 C 0.5964 0.77989 0.64681 0.0
H490 H 0.68032 0.80792 0.60362 0.0
C491 C 0.59649 0.81533 0.6468 0.0
C492 C 0.62599 0.84817 0.63047 0.0
H493 H 0.57215 0.75478 0.65846 0.0
H494 H 0.5723 0.81636 0.65844 0.0
C495 C 0.65726 0.84576 0.61624 0.0
C496 C 0.77822 0.5971 0.14619 0.0
C497 C 0.77484 0.62681 0.13018 0.0
H498 H 0.81446 0.57265 0.15748 0.0
C499 C 0.80845 0.65826 0.11608 0.0
H500 H 0.75306 0.57276 0.15771 0.0
C501 C 0.84421 0.6582 0.11596 0.0
C502 C 0.84648 0.62669 0.12993 0.0
H503 H 0.8066 0.68162 0.10367 0.0
H504 H 0.86928 0.68152 0.10346 0.0
C505 C 0.81356 0.59704 0.14606 0.0
C506 C 0.21462 0.81667 0.64699 0.0
C507 C 0.21814 0.84952 0.63048 0.0
H508 H 0.17831 0.75617 0.65869 0.0
C509 C 0.18464 0.84722 0.61596 0.0
H510 H 0.23968 0.81762 0.65885 0.0
C511 C 0.14891 0.81145 0.61587 0.0
C512 C 0.14656 0.77786 0.6303 0.0
H513 H 0.18661 0.87224 0.60315 0.0
H514 H 0.12397 0.80954 0.60301 0.0
C515 C 0.1793 0.78131 0.6469 0.0
C516 C 0.84418 0.65806 0.39987 0.0
C517 C 0.84642 0.62643 0.38613 0.0
H518 H 0.8066 0.68154 0.41202 0.0
C519 C 0.81339 0.59652 0.37029 0.0
H520 H 0.86933 0.68157 0.41214 0.0
C521 C 0.77802 0.59651 0.37021 0.0
C522 C 0.7747 0.6264 0.38599 0.0
H523 H 0.81426 0.57202 0.35905 0.0
H524 H 0.75279 0.572 0.35892 0.0
C525 C 0.80839 0.65804 0.39981 0.0
C526 C 0.17919 0.78136 0.8692 0.0
C527 C 0.14645 0.77784 0.88587 0.0
H528 H 0.2395 0.81777 0.8571 0.0
C529 C 0.14876 0.81142 0.90028 0.0
H530 H 0.17823 0.75623 0.85741 0.0
C531 C 0.18444 0.84725 0.90011 0.0
C532 C 0.21793 0.84962 0.88552 0.0
H533 H 0.12383 0.80946 0.9132 0.0
H534 H 0.18638 0.87226 0.91291 0.0
C535 C 0.21445 0.81677 0.86901 0.0
C536 C 0.39751 0.18032 0.3697 0.0
C537 C 0.36779 0.14725 0.38564 0.0
H538 H 0.42182 0.24097 0.35839 0.0
C539 C 0.33625 0.14941 0.3996 0.0
H540 H 0.42193 0.1795 0.35829 0.0
C541 C 0.33618 0.18519 0.39965 0.0
C542 C 0.36766 0.21894 0.38575 0.0
H543 H 0.31288 0.12422 0.41195 0.0
H544 H 0.31277 0.18693 0.41204 0.0
C545 C 0.39744 0.21569 0.36975 0.0
C546 C 0.18376 0.33627 0.90021 0.0
C547 C 0.21727 0.3673 0.88561 0.0
H548 H 0.12312 0.31357 0.9132 0.0
C549 C 0.21379 0.39659 0.86897 0.0
H550 H 0.18569 0.31324 0.91311 0.0
C551 C 0.17853 0.39678 0.86903 0.0
C552 C 0.14578 0.36768 0.88572 0.0
H553 H 0.23886 0.42057 0.85704 0.0
H554 H 0.17758 0.4209 0.85715 0.0
C555 C 0.14807 0.33646 0.90026 0.0
C556 C 0.80921 0.14936 0.3999 0.0
C557 C 0.77551 0.14722 0.38594 0.0
H558 H 0.8701 0.18685 0.41228 0.0
C559 C 0.77879 0.18028 0.36996 0.0
H560 H 0.80744 0.12418 0.41228 0.0
C561 C 0.81413 0.21563 0.36996 0.0
C562 C 0.84715 0.21886 0.38594 0.0
H563 H 0.75355 0.17948 0.35856 0.0
H564 H 0.81497 0.2409 0.35856 0.0
C565 C 0.84496 0.18512 0.3999 0.0
C566 C 0.59523 0.77937 0.86985 0.0
C567 C 0.62487 0.77592 0.88589 0.0
H568 H 0.57101 0.81579 0.85842 0.0
C569 C 0.6564 0.80956 0.89988 0.0
H570 H 0.57083 0.75418 0.85842 0.0
C571 C 0.65651 0.84542 0.89988 0.0
C572 C 0.62508 0.84778 0.88589 0.0
H573 H 0.67971 0.80765 0.9123 0.0
H574 H 0.67989 0.87052 0.9123 0.0
C575 C 0.59534 0.81482 0.86985 0.0
C576 C 0.36885 0.02263 0.98065 0.0
C577 C 0.34775 0.9817 0.97658 0.0
H578 H 0.39383 0.07071 0.01405 0.0
C579 C 0.33537 0.95745 1.00427 0.0
H580 H 0.37875 0.04205 0.95984 0.0
C581 C 0.34367 0.97379 0.03537 0.0
C582 C 0.36491 0.01473 0.03944 0.0
H583 H 0.31885 0.92571 1.00195 0.0
H584 H 0.3335 0.95438 0.05617 0.0
C585 C 0.37752 0.03897 0.01175 0.0
C586 C 0.3431 0.36859 0.48061 0.0
C587 C 0.36377 0.34826 0.47661 0.0
H588 H 0.31901 0.39272 0.51394 0.0
C589 C 0.37605 0.33635 0.50434 0.0
H590 H 0.33321 0.37809 0.45977 0.0
C591 C 0.36765 0.34439 0.53541 0.0
C592 C 0.34716 0.36489 0.53941 0.0
H593 H 0.39191 0.32043 0.50209 0.0
H594 H 0.37729 0.33463 0.55624 0.0
C595 C 0.33507 0.377 0.51168 0.0
C596 C 0.97262 0.34506 0.98062 0.0
C597 C 0.01356 0.36559 0.97673 0.0
H598 H 0.92435 0.32086 0.01381 0.0
C599 C 0.0376 0.37757 1.00454 0.0
H600 H 0.95336 0.33542 0.95973 0.0
C601 C 0.02105 0.36897 0.03556 0.0
C602 C 0.98012 0.34856 0.03945 0.0
H603 H 0.06933 0.39332 1.00238 0.0
H604 H 0.04032 0.37835 0.05645 0.0
C605 C 0.95608 0.33682 0.01165 0.0
C606 C 0.62586 0.97335 0.48066 0.0
C607 C 0.64605 0.01431 0.47668 0.0
H608 H 0.6018 0.92514 0.51395 0.0
C609 C 0.65776 0.03846 0.50442 0.0
H610 H 0.61652 0.954 0.45981 0.0
C611 C 0.64968 0.022 0.53549 0.0
C612 C 0.62932 0.98104 0.53947 0.0
H613 H 0.67357 0.07021 0.50219 0.0
H614 H 0.65927 0.04135 0.55634 0.0
C615 C 0.6174 0.95689 0.51172 0.0
C616 C 0.6247 0.65067 0.03559 0.0
C617 C 0.64516 0.63014 0.03958 0.0
H618 H 0.60032 0.67453 1.00228 0.0
C619 C 0.65705 0.61784 0.01184 0.0
H620 H 0.61522 0.66056 0.05643 0.0
C621 C 0.64886 0.62611 0.98077 0.0
C622 C 0.62824 0.64647 0.97679 0.0
H623 H 0.67308 0.60208 0.01408 0.0
H624 H 0.65861 0.61647 0.95993 0.0
C625 C 0.61614 0.65856 1.00452 0.0
C626 C 0.97288 0.6273 0.53553 0.0
C627 C 0.01383 0.64801 0.53934 0.0
H628 H 0.9245 0.60264 0.50245 0.0
C629 C 0.03777 0.66008 0.51148 0.0
H630 H 0.95368 0.61766 0.55646 0.0
C631 C 0.02113 0.65182 0.48048 0.0
C632 C 0.98018 0.63094 0.47668 0.0
H633 H 0.06951 0.6763 0.51357 0.0
H634 H 0.04032 0.6617 0.45955 0.0
C635 C 0.95624 0.61867 0.50454 0.0
C636 C 0.64999 0.0219 0.98075 0.0
C637 C 0.62908 0.98094 0.97676 0.0
H638 H 0.6745 0.07009 0.01406 0.0
C639 C 0.61678 0.95679 1.0045 0.0
H640 H 0.6599 0.04125 0.9599 0.0
C641 C 0.62542 0.97322 0.03557 0.0
C642 C 0.64616 0.01418 0.03956 0.0
H643 H 0.60074 0.92503 1.00226 0.0
H644 H 0.61576 0.95387 0.05642 0.0
C645 C 0.65825 0.03834 0.01182 0.0
C646 C 0.62511 0.65082 0.48071 0.0
C647 C 0.64535 0.63007 0.4767 0.0
H648 H 0.60104 0.67496 0.51403 0.0
C649 C 0.65717 0.61768 0.50443 0.0
H650 H 0.61569 0.66078 0.45987 0.0
C651 C 0.64912 0.62607 0.53551 0.0
C652 C 0.62871 0.64665 0.53951 0.0
H653 H 0.67303 0.60176 0.50218 0.0
H654 H 0.65879 0.61636 0.55634 0.0
C655 C 0.61669 0.65883 0.51178 0.0
C656 C 0.95612 0.61833 0.01152 0.0
C657 C 0.98001 0.6305 0.0394 0.0
H658 H 0.95365 0.61744 0.95959 0.0
C659 C 0.02097 0.6513 0.03564 0.0
H660 H 0.92437 0.60237 0.01357 0.0
C661 C 0.03767 0.65959 1.00466 0.0
C662 C 0.01377 0.64764 0.97678 0.0
H663 H 0.04013 0.6611 0.0566 0.0
H664 H 0.06941 0.67575 1.0026 0.0
C665 C 0.97281 0.62699 0.98054 0.0
C666 C 0.36867 0.02238 0.53522 0.0
C667 C 0.34783 0.98144 0.53929 0.0
H668 H 0.39326 0.07046 0.50182 0.0
C669 C 0.33549 0.95719 0.51161 0.0
H670 H 0.37852 0.0418 0.55602 0.0
C671 C 0.34359 0.97353 0.4805 0.0
C672 C 0.36458 0.01447 0.47643 0.0
H673 H 0.31917 0.92545 0.51392 0.0
H674 H 0.33348 0.95412 0.4597 0.0
C675 C 0.37714 0.03872 0.50412 0.0
C676 C 0.37619 0.33631 0.01175 0.0
C677 C 0.36389 0.34821 0.03948 0.0
H678 H 0.3773 0.33446 0.95984 0.0
C679 C 0.34305 0.36836 0.03547 0.0
H680 H 0.39217 0.32051 0.01401 0.0
C681 C 0.33487 0.37662 1.00439 0.0
C682 C 0.34698 0.36452 0.97667 0.0
H683 H 0.33313 0.37784 0.0563 0.0
H684 H 0.31868 0.39221 1.00214 0.0
C685 C 0.36764 0.34419 0.98068 0.0
C686 C 0.97272 0.34499 0.53548 0.0
C687 C 0.01365 0.36549 0.53938 0.0
H688 H 0.92445 0.32081 0.50229 0.0
C689 C 0.0377 0.37742 0.51158 0.0
H690 H 0.95345 0.33539 0.55637 0.0
C691 C 0.02116 0.3688 0.48055 0.0
C692 C 0.98022 0.34844 0.47666 0.0
H693 H 0.06943 0.39314 0.51374 0.0
H694 H 0.04042 0.37815 0.45966 0.0
C695 C 0.95618 0.33674 0.50446 0.0
C696 C 0.50923 0.05728 0.116 0.0
C697 C 0.49601 0.06663 0.14451 0.0
H698 H 0.55652 0.05311 0.09337 0.0
C699 C 0.51682 0.072 0.17343 0.0
H700 H 0.4936 0.0531 0.0934 0.0
C701 C 0.55221 0.07201 0.17341 0.0
C702 C 0.56764 0.06665 0.14448 0.0
H703 H 0.5069 0.07864 0.19582 0.0
H704 H 0.56877 0.07867 0.19579 0.0
C705 C 0.54508 0.05729 0.11599 0.0
C706 C 0.47656 0.55246 0.67302 0.0
C707 C 0.4973 0.56791 0.64407 0.0
H708 H 0.42477 0.50714 0.69545 0.0
C709 C 0.48409 0.54535 0.61557 0.0
H710 H 0.48647 0.56902 0.6954 0.0
C711 C 0.44833 0.50948 0.6156 0.0
C712 C 0.42584 0.49624 0.64412 0.0
H713 H 0.49967 0.5568 0.59296 0.0
H714 H 0.43689 0.49385 0.59299 0.0
C715 C 0.44127 0.51706 0.67304 0.0
C716 C 0.92163 0.44241 0.17279 0.0
C717 C 0.92707 0.42693 0.1439 0.0
H718 H 0.91488 0.48774 0.19507 0.0
C719 C 0.93641 0.44945 0.11537 0.0
H720 H 0.91498 0.42588 0.19519 0.0
C721 C 0.93635 0.4853 0.1153 0.0
C722 C 0.92696 0.49856 0.14376 0.0
H723 H 0.94064 0.43797 0.0928 0.0
H724 H 0.94052 0.50089 0.09267 0.0
C725 C 0.92159 0.47779 0.17272 0.0
C726 C 0.44183 0.92352 0.67303 0.0
C727 C 0.42635 0.92886 0.64411 0.0
H728 H 0.48711 0.91682 0.6954 0.0
C729 C 0.44882 0.93807 0.61557 0.0
H730 H 0.42534 0.91699 0.69545 0.0
C731 C 0.48462 0.93797 0.61554 0.0
C732 C 0.49788 0.92868 0.64405 0.0
H733 H 0.43734 0.94222 0.59297 0.0
H734 H 0.50017 0.94204 0.59292 0.0
C735 C 0.47716 0.92344 0.67301 0.0
C736 C 0.55099 0.4785 0.17331 0.0
C737 C 0.56652 0.49917 0.14435 0.0
H738 H 0.50568 0.42665 0.19571 0.0
C739 C 0.54411 0.48587 0.1158 0.0
H740 H 0.56745 0.48848 0.19573 0.0
C741 C 0.50831 0.45003 0.11579 0.0
C742 C 0.49501 0.42758 0.14433 0.0
H743 H 0.55564 0.50139 0.09317 0.0
H744 H 0.49282 0.43849 0.09315 0.0
C745 C 0.51565 0.44313 0.1733 0.0
C746 C 0.07254 0.51854 0.67246 0.0
C747 C 0.06704 0.49763 0.64357 0.0
H748 H 0.07937 0.57061 0.69478 0.0
C749 C 0.05772 0.51086 0.61505 0.0
H750 H 0.07918 0.50862 0.69486 0.0
C751 C 0.05783 0.54679 0.61501 0.0
C752 C 0.06726 0.56941 0.64348 0.0
H753 H 0.05346 0.49516 0.59247 0.0
H754 H 0.05363 0.55823 0.5924 0.0
C755 C 0.07265 0.55399 0.67242 0.0
C756 C 0.92295 0.47855 0.3434 0.0
C757 C 0.92784 0.49906 0.37242 0.0
H758 H 0.91663 0.42678 0.32087 0.0
C759 C 0.93679 0.48559 0.40097 0.0
H760 H 0.91657 0.48867 0.32099 0.0
C761 C 0.93684 0.44974 0.4009 0.0
C762 C 0.92792 0.42744 0.37228 0.0
H763 H 0.94057 0.50098 0.42365 0.0
H764 H 0.94066 0.43806 0.42353 0.0
C765 C 0.92298 0.44316 0.34333 0.0
C766 C 0.47713 0.92402 0.84298 0.0
C767 C 0.49774 0.92911 0.87197 0.0
H768 H 0.42537 0.91763 0.82048 0.0
C769 C 0.48438 0.93827 0.90049 0.0
H770 H 0.48716 0.9175 0.82059 0.0
C771 C 0.44858 0.93836 0.90043 0.0
C772 C 0.4262 0.92927 0.87184 0.0
H773 H 0.49985 0.94223 0.92315 0.0
H774 H 0.43702 0.9424 0.92303 0.0
C775 C 0.44179 0.92408 0.84292 0.0
C776 C 0.51541 0.44308 0.3429 0.0
C777 C 0.49481 0.42748 0.37187 0.0
H778 H 0.56718 0.48846 0.32047 0.0
C779 C 0.50816 0.44987 0.40044 0.0
H780 H 0.50539 0.42664 0.32047 0.0
C781 C 0.54396 0.48569 0.40045 0.0
C782 C 0.56634 0.49904 0.37188 0.0
H783 H 0.49269 0.43828 0.42309 0.0
H784 H 0.55553 0.50115 0.42309 0.0
C785 C 0.55075 0.47844 0.3429 0.0
C786 C 0.07324 0.51878 0.84362 0.0
C787 C 0.06742 0.49771 0.87247 0.0
H788 H 0.08028 0.57095 0.82134 0.0
C789 C 0.05781 0.51079 0.90092 0.0
H790 H 0.08009 0.50897 0.82126 0.0
C791 C 0.05791 0.54673 0.90096 0.0
C792 C 0.06763 0.5695 0.87255 0.0
H793 H 0.05327 0.49496 0.92346 0.0
H794 H 0.05345 0.55804 0.92354 0.0
C795 C 0.07334 0.55423 0.84366 0.0
C796 C 0.54461 0.05711 0.4001 0.0
C797 C 0.56716 0.06637 0.3716 0.0
H798 H 0.49315 0.05301 0.42264 0.0
C799 C 0.55169 0.0716 0.34262 0.0
H800 H 0.55608 0.05304 0.42273 0.0
C801 C 0.5163 0.07157 0.34257 0.0
C802 C 0.49551 0.06633 0.37149 0.0
H803 H 0.56824 0.07817 0.32025 0.0
H804 H 0.50636 0.07814 0.32015 0.0
C805 C 0.50876 0.05709 0.40004 0.0
C806 C 0.48366 0.54491 0.90059 0.0
C807 C 0.49688 0.56745 0.87208 0.0
H808 H 0.43646 0.49341 0.92316 0.0
C809 C 0.47618 0.55199 0.84313 0.0
H810 H 0.49922 0.55638 0.92321 0.0
C811 C 0.44089 0.51658 0.8431 0.0
C812 C 0.42545 0.49577 0.87202 0.0
H813 H 0.4861 0.56854 0.82074 0.0
H814 H 0.42441 0.50664 0.82069 0.0
C815 C 0.44791 0.50903 0.90056 0.0
loop_
_geom_bond_atom_site_label_1
_geom_bond_atom_site_label_2
_geom_bond_distance
_geom_bond_site_symmetry_2
_ccdc_geom_bond_type
Co0 O1 2.216 . S
Co0 O2 2.091 1_545 S
Co0 O4 2.004 . S
Co0 O10 2.021 . S
Co0 O12 2.137 . S
Co0 O13 2.244 . S
O1 Co0 2.216 . S
O1 C8 1.247 . S
O2 Co0 2.091 1_565 S
O2 C8 1.261 1_565 S
C3 O12 1.247 . S
C3 O13 1.272 . S
O4 Co0 2.004 . S
O4 C9 1.259 . S
Co5 O6 2.061 . S
Co5 O11 2.052 . S
Co5 O13 2.135 . S
O6 Co5 2.061 . S
O6 C9 1.235 . S
C7 O10 1.238 . S
C7 O11 1.241 . S
C8 O1 1.247 . S
C8 O2 1.261 1_545 S
C9 O4 1.259 . S
C9 O6 1.235 . S
O10 Co0 2.021 . S
O10 C7 1.238 . S
O11 Co5 2.052 . S
O11 C7 1.241 . S
O12 Co0 2.137 . S
O12 C3 1.247 . S
O13 Co0 2.244 . S
O13 C3 1.272 . S
O13 Co5 2.135 . S
Co14 O15 2.216 . S
Co14 O16 2.091 . S
Co14 O18 2.004 . S
Co14 O24 2.021 . S
Co14 O26 2.137 . S
Co14 O27 2.244 . S
O15 Co14 2.216 . S
O15 C22 1.247 . S
O16 Co14 2.091 . S
O16 C22 1.261 . S
C17 O26 1.247 . S
C17 O27 1.272 . S
O18 Co14 2.004 . S
O18 C23 1.259 . S
Co19 O20 2.061 . S
Co19 O25 2.052 . S
Co19 O27 2.135 . S
O20 Co19 2.061 . S
O20 C23 1.235 . S
C21 O24 1.238 . S
C21 O25 1.241 . S
C22 O15 1.247 . S
C22 O16 1.261 . S
C23 O18 1.259 . S
C23 O20 1.235 . S
O24 Co14 2.021 . S
O24 C21 1.238 . S
O25 Co19 2.052 . S
O25 C21 1.241 . S
O26 Co14 2.137 . S
O26 C17 1.247 . S
O27 Co14 2.244 . S
O27 C17 1.272 . S
O27 Co19 2.135 . S
Co28 O29 2.216 . S
Co28 O30 2.091 1_655 S
Co28 O32 2.004 . S
Co28 O38 2.021 . S
Co28 O40 2.137 . S
Co28 O41 2.244 . S
O29 Co28 2.216 . S
O29 C36 1.247 . S
O30 Co28 2.091 1_455 S
O30 C36 1.261 1_455 S
C31 O40 1.247 . S
C31 O41 1.272 . S
O32 Co28 2.004 . S
O32 C37 1.259 . S
Co33 O34 2.061 . S
Co33 O39 2.052 . S
Co33 O41 2.135 . S
O34 Co33 2.061 . S
O34 C37 1.235 . S
C35 O38 1.238 . S
C35 O39 1.241 . S
C36 O29 1.247 . S
C36 O30 1.261 1_655 S
C37 O32 1.259 . S
C37 O34 1.235 . S
O38 Co28 2.021 . S
O38 C35 1.238 . S
O39 Co33 2.052 . S
O39 C35 1.241 . S
O40 Co28 2.137 . S
O40 C31 1.247 . S
O41 Co28 2.244 . S
O41 C31 1.272 . S
O41 Co33 2.135 . S
Co42 O43 2.216 . S
Co42 O44 2.091 1_565 S
Co42 O46 2.004 . S
Co42 O52 2.021 . S
Co42 O54 2.137 . S
Co42 O55 2.244 . S
O43 Co42 2.216 . S
O43 C50 1.247 . S
O44 Co42 2.091 1_545 S
O44 C50 1.261 1_545 S
C45 O54 1.247 . S
C45 O55 1.272 . S
O46 Co42 2.004 . S
O46 C51 1.259 . S
Co47 O48 2.061 . S
Co47 O53 2.052 . S
Co47 O55 2.135 . S
O48 Co47 2.061 . S
O48 C51 1.235 . S
C49 O52 1.238 . S
C49 O53 1.241 . S
C50 O43 1.247 . S
C50 O44 1.261 1_565 S
C51 O46 1.259 . S
C51 O48 1.235 . S
O52 Co42 2.021 . S
O52 C49 1.238 . S
O53 Co47 2.052 . S
O53 C49 1.241 . S
O54 Co42 2.137 . S
O54 C45 1.247 . S
O55 Co42 2.244 . S
O55 C45 1.272 . S
O55 Co47 2.135 . S
Co56 O57 2.216 . S
Co56 O58 2.091 . S
Co56 O60 2.004 . S
Co56 O66 2.021 . S
Co56 O68 2.137 . S
Co56 O69 2.244 . S
O57 Co56 2.216 . S
O57 C64 1.247 . S
O58 Co56 2.091 . S
O58 C64 1.261 . S
C59 O68 1.247 . S
C59 O69 1.272 . S
O60 Co56 2.004 . S
O60 C65 1.259 . S
Co61 O62 2.061 . S
Co61 O67 2.052 . S
Co61 O69 2.135 . S
O62 Co61 2.061 . S
O62 C65 1.235 . S
C63 O66 1.238 . S
C63 O67 1.241 . S
C64 O57 1.247 . S
C64 O58 1.261 . S
C65 O60 1.259 . S
C65 O62 1.235 . S
O66 Co56 2.021 . S
O66 C63 1.238 . S
O67 Co61 2.052 . S
O67 C63 1.241 . S
O68 Co56 2.137 . S
O68 C59 1.247 . S
O69 Co56 2.244 . S
O69 C59 1.272 . S
O69 Co61 2.135 . S
Co70 O71 2.216 . S
Co70 O72 2.091 1_455 S
Co70 O74 2.004 . S
Co70 O80 2.021 . S
Co70 O82 2.137 . S
Co70 O83 2.244 . S
O71 Co70 2.216 . S
O71 C78 1.247 . S
O72 Co70 2.091 1_655 S
O72 C78 1.261 1_655 S
C73 O82 1.247 . S
C73 O83 1.272 . S
O74 Co70 2.004 . S
O74 C79 1.259 . S
Co75 O76 2.061 . S
Co75 O81 2.052 . S
Co75 O83 2.135 . S
O76 Co75 2.061 . S
O76 C79 1.235 . S
C77 O80 1.238 . S
C77 O81 1.241 . S
C78 O71 1.247 . S
C78 O72 1.261 1_455 S
C79 O74 1.259 . S
C79 O76 1.235 . S
O80 Co70 2.021 . S
O80 C77 1.238 . S
O81 Co75 2.052 . S
O81 C77 1.241 . S
O82 Co70 2.137 . S
O82 C73 1.247 . S
O83 Co70 2.244 . S
O83 C73 1.272 . S
O83 Co75 2.135 . S
Co84 O85 2.216 . S
Co84 O86 2.091 1_655 S
Co84 O88 2.004 . S
Co84 O94 2.021 . S
Co84 O96 2.137 . S
Co84 O97 2.244 . S
O85 Co84 2.216 . S
O85 C92 1.247 . S
O86 Co84 2.091 1_455 S
O86 C92 1.261 1_455 S
C87 O96 1.247 . S
C87 O97 1.272 . S
O88 Co84 2.004 . S
O88 C93 1.259 . S
Co89 O90 2.061 . S
Co89 O95 2.052 . S
Co89 O97 2.135 . S
O90 Co89 2.061 . S
O90 C93 1.235 . S
C91 O94 1.238 . S
C91 O95 1.241 . S
C92 O85 1.247 . S
C92 O86 1.261 1_655 S
C93 O88 1.259 . S
C93 O90 1.235 . S
O94 Co84 2.021 . S
O94 C91 1.238 . S
O95 Co89 2.052 . S
O95 C91 1.241 . S
O96 Co84 2.137 . S
O96 C87 1.247 . S
O97 Co84 2.244 . S
O97 C87 1.272 . S
O97 Co89 2.135 . S
Co98 O99 2.216 . S
Co98 O100 2.091 1_565 S
Co98 O102 2.004 . S
Co98 O108 2.021 . S
Co98 O110 2.137 . S
Co98 O111 2.244 . S
O99 Co98 2.216 . S
O99 C106 1.247 . S
O100 Co98 2.091 1_545 S
O100 C106 1.261 1_545 S
C101 O110 1.247 . S
C101 O111 1.272 . S
O102 Co98 2.004 . S
O102 C107 1.259 . S
Co103 O104 2.061 . S
Co103 O109 2.052 . S
Co103 O111 2.135 . S
O104 Co103 2.061 . S
O104 C107 1.235 . S
C105 O108 1.238 . S
C105 O109 1.241 . S
C106 O99 1.247 . S
C106 O100 1.261 1_565 S
C107 O102 1.259 . S
C107 O104 1.235 . S
O108 Co98 2.021 . S
O108 C105 1.238 . S
O109 Co103 2.052 . S
O109 C105 1.241 . S
O110 Co98 2.137 . S
O110 C101 1.247 . S
O111 Co98 2.244 . S
O111 C101 1.272 . S
O111 Co103 2.135 . S
Co112 O113 2.216 . S
Co112 O114 2.091 . S
Co112 O116 2.004 . S
Co112 O122 2.021 . S
Co112 O124 2.137 . S
Co112 O125 2.244 . S
O113 Co112 2.216 . S
O113 C120 1.247 . S
O114 Co112 2.091 . S
O114 C120 1.261 . S
C115 O124 1.247 . S
C115 O125 1.272 . S
O116 Co112 2.004 . S
O116 C121 1.259 . S
Co117 O118 2.061 . S
Co117 O123 2.052 . S
Co117 O125 2.135 . S
O118 Co117 2.061 . S
O118 C121 1.235 . S
C119 O122 1.238 . S
C119 O123 1.241 . S
C120 O113 1.247 . S
C120 O114 1.261 . S
C121 O116 1.259 . S
C121 O118 1.235 . S
O122 Co112 2.021 . S
O122 C119 1.238 . S
O123 Co117 2.052 . S
O123 C119 1.241 . S
O124 Co112 2.137 . S
O124 C115 1.247 . S
O125 Co112 2.244 . S
O125 C115 1.272 . S
O125 Co117 2.135 . S
Co126 O127 2.216 . S
Co126 O128 2.091 1_455 S
Co126 O130 2.004 . S
Co126 O136 2.021 . S
Co126 O138 2.137 . S
Co126 O139 2.244 . S
O127 Co126 2.216 . S
O127 C134 1.247 . S
O128 Co126 2.091 1_655 S
O128 C134 1.261 1_655 S
C129 O138 1.247 . S
C129 O139 1.272 . S
O130 Co126 2.004 . S
O130 C135 1.259 . S
Co131 O132 2.061 . S
Co131 O137 2.052 . S
Co131 O139 2.135 . S
O132 Co131 2.061 . S
O132 C135 1.235 . S
C133 O136 1.238 . S
C133 O137 1.241 . S
C134 O127 1.247 . S
C134 O128 1.261 1_455 S
C135 O130 1.259 . S
C135 O132 1.235 . S
O136 Co126 2.021 . S
O136 C133 1.238 . S
O137 Co131 2.052 . S
O137 C133 1.241 . S
O138 Co126 2.137 . S
O138 C129 1.247 . S
O139 Co126 2.244 . S
O139 C129 1.272 . S
O139 Co131 2.135 . S
Co140 O141 2.216 . S
Co140 O142 2.091 1_545 S
Co140 O144 2.004 . S
Co140 O150 2.021 . S
Co140 O152 2.137 . S
Co140 O153 2.244 . S
O141 Co140 2.216 . S
O141 C148 1.247 . S
O142 Co140 2.091 1_565 S
O142 C148 1.261 1_565 S
C143 O152 1.247 . S
C143 O153 1.272 . S
O144 Co140 2.004 . S
O144 C149 1.259 . S
Co145 O146 2.061 . S
Co145 O151 2.052 . S
Co145 O153 2.135 . S
O146 Co145 2.061 . S
O146 C149 1.235 . S
C147 O150 1.238 . S
C147 O151 1.241 . S
C148 O141 1.247 . S
C148 O142 1.261 1_545 S
C149 O144 1.259 . S
C149 O146 1.235 . S
O150 Co140 2.021 . S
O150 C147 1.238 . S
O151 Co145 2.052 . S
O151 C147 1.241 . S
O152 Co140 2.137 . S
O152 C143 1.247 . S
O153 Co140 2.244 . S
O153 C143 1.272 . S
O153 Co145 2.135 . S
Co154 O155 2.216 . S
Co154 O156 2.091 . S
Co154 O158 2.004 . S
Co154 O164 2.021 . S
Co154 O166 2.137 . S
Co154 O167 2.244 . S
O155 Co154 2.216 . S
O155 C162 1.247 . S
O156 Co154 2.091 . S
O156 C162 1.261 . S
C157 O166 1.247 . S
C157 O167 1.272 . S
O158 Co154 2.004 . S
O158 C163 1.259 . S
Co159 O160 2.061 . S
Co159 O165 2.052 . S
Co159 O167 2.135 . S
O160 Co159 2.061 . S
O160 C163 1.235 . S
C161 O164 1.238 . S
C161 O165 1.241 . S
C162 O155 1.247 . S
C162 O156 1.261 . S
C163 O158 1.259 . S
C163 O160 1.235 . S
O164 Co154 2.021 . S
O164 C161 1.238 . S
O165 Co159 2.052 . S
O165 C161 1.241 . S
O166 Co154 2.137 . S
O166 C157 1.247 . S
O167 Co154 2.244 . S
O167 C157 1.272 . S
O167 Co159 2.135 . S
Co168 O169 2.216 . S
Co168 O170 2.091 1_565 S
Co168 O172 2.004 . S
Co168 O178 2.021 . S
Co168 O180 2.137 . S
Co168 O181 2.244 . S
O169 Co168 2.216 . S
O169 C176 1.247 . S
O170 Co168 2.091 1_545 S
O170 C176 1.261 1_545 S
C171 O180 1.247 . S
C171 O181 1.272 . S
O172 Co168 2.004 . S
O172 C177 1.259 . S
Co173 O174 2.061 . S
Co173 O179 2.052 . S
Co173 O181 2.135 . S
O174 Co173 2.061 . S
O174 C177 1.235 . S
C175 O178 1.238 . S
C175 O179 1.241 . S
C176 O169 1.247 . S
C176 O170 1.261 1_565 S
C177 O172 1.259 . S
C177 O174 1.235 . S
O178 Co168 2.021 . S
O178 C175 1.238 . S
O179 Co173 2.052 . S
O179 C175 1.241 . S
O180 Co168 2.137 . S
O180 C171 1.247 . S
O181 Co168 2.244 . S
O181 C171 1.272 . S
O181 Co173 2.135 . S
Co182 O183 2.216 . S
Co182 O184 2.091 . S
Co182 O186 2.004 . S
Co182 O192 2.021 . S
Co182 O194 2.137 . S
Co182 O195 2.244 . S
O183 Co182 2.216 . S
O183 C190 1.247 . S
O184 Co182 2.091 . S
O184 C190 1.261 . S
C185 O194 1.247 . S
C185 O195 1.272 . S
O186 Co182 2.004 . S
O186 C191 1.259 . S
Co187 O188 2.061 . S
Co187 O193 2.052 . S
Co187 O195 2.135 . S
O188 Co187 2.061 . S
O188 C191 1.235 . S
C189 O192 1.238 . S
C189 O193 1.241 . S
C190 O183 1.247 . S
C190 O184 1.261 . S
C191 O186 1.259 . S
C191 O188 1.235 . S
O192 Co182 2.021 . S
O192 C189 1.238 . S
O193 Co187 2.052 . S
O193 C189 1.241 . S
O194 Co182 2.137 . S
O194 C185 1.247 . S
O195 Co182 2.244 . S
O195 C185 1.272 . S
O195 Co187 2.135 . S
Co196 O197 2.216 . S
Co196 O198 2.091 1_455 S
Co196 O200 2.004 . S
Co196 O206 2.021 . S
Co196 O208 2.137 . S
Co196 O209 2.244 . S
O197 Co196 2.216 . S
O197 C204 1.247 . S
O198 Co196 2.091 1_655 S
O198 C204 1.261 1_655 S
C199 O208 1.247 . S
C199 O209 1.272 . S
O200 Co196 2.004 . S
O200 C205 1.259 . S
Co201 O202 2.061 . S
Co201 O207 2.052 . S
Co201 O209 2.135 . S
O202 Co201 2.061 . S
O202 C205 1.235 . S
C203 O206 1.238 . S
C203 O207 1.241 . S
C204 O197 1.247 . S
C204 O198 1.261 1_455 S
C205 O200 1.259 . S
C205 O202 1.235 . S
O206 Co196 2.021 . S
O206 C203 1.238 . S
O207 Co201 2.052 . S
O207 C203 1.241 . S
O208 Co196 2.137 . S
O208 C199 1.247 . S
O209 Co196 2.244 . S
O209 C199 1.272 . S
O209 Co201 2.135 . S
Co210 O211 2.216 . S
Co210 O212 2.091 1_545 S
Co210 O214 2.004 . S
Co210 O220 2.021 . S
Co210 O222 2.137 . S
Co210 O223 2.244 . S
O211 Co210 2.216 . S
O211 C218 1.247 . S
O212 Co210 2.091 1_565 S
O212 C218 1.261 1_565 S
C213 O222 1.247 . S
C213 O223 1.272 . S
O214 Co210 2.004 . S
O214 C219 1.259 . S
Co215 O216 2.061 . S
Co215 O221 2.052 . S
Co215 O223 2.135 . S
O216 Co215 2.061 . S
O216 C219 1.235 . S
C217 O220 1.238 . S
C217 O221 1.241 . S
C218 O211 1.247 . S
C218 O212 1.261 1_545 S
C219 O214 1.259 . S
C219 O216 1.235 . S
O220 Co210 2.021 . S
O220 C217 1.238 . S
O221 Co215 2.052 . S
O221 C217 1.241 . S
O222 Co210 2.137 . S
O222 C213 1.247 . S
O223 Co210 2.244 . S
O223 C213 1.272 . S
O223 Co215 2.135 . S
Co224 O225 2.216 . S
Co224 O226 2.091 . S
Co224 O228 2.004 . S
Co224 O234 2.021 . S
Co224 O236 2.137 . S
Co224 O237 2.244 . S
O225 Co224 2.216 . S
O225 C232 1.247 . S
O226 Co224 2.091 . S
O226 C232 1.261 . S
C227 O236 1.247 . S
C227 O237 1.272 . S
O228 Co224 2.004 . S
O228 C233 1.259 . S
Co229 O230 2.061 . S
Co229 O235 2.052 . S
Co229 O237 2.135 . S
O230 Co229 2.061 . S
O230 C233 1.235 . S
C231 O234 1.238 . S
C231 O235 1.241 . S
C232 O225 1.247 . S
C232 O226 1.261 . S
C233 O228 1.259 . S
C233 O230 1.235 . S
O234 Co224 2.021 . S
O234 C231 1.238 . S
O235 Co229 2.052 . S
O235 C231 1.241 . S
O236 Co224 2.137 . S
O236 C227 1.247 . S
O237 Co224 2.244 . S
O237 C227 1.272 . S
O237 Co229 2.135 . S
Co238 O239 2.216 . S
Co238 O240 2.091 1_655 S
Co238 O242 2.004 . S
Co238 O248 2.021 . S
Co238 O250 2.137 . S
Co238 O251 2.244 . S
O239 Co238 2.216 . S
O239 C246 1.247 . S
O240 Co238 2.091 1_455 S
O240 C246 1.261 1_455 S
C241 O250 1.247 . S
C241 O251 1.272 . S
O242 Co238 2.004 . S
O242 C247 1.259 . S
Co243 O244 2.061 . S
Co243 O249 2.052 . S
Co243 O251 2.135 . S
O244 Co243 2.061 . S
O244 C247 1.235 . S
C245 O248 1.238 . S
C245 O249 1.241 . S
C246 O239 1.247 . S
C246 O240 1.261 1_655 S
C247 O242 1.259 . S
C247 O244 1.235 . S
O248 Co238 2.021 . S
O248 C245 1.238 . S
O249 Co243 2.052 . S
O249 C245 1.241 . S
O250 Co238 2.137 . S
O250 C241 1.247 . S
O251 Co238 2.244 . S
O251 C241 1.272 . S
O251 Co243 2.135 . S
Co252 O253 2.216 . S
Co252 O254 2.091 1_455 S
Co252 O256 2.004 . S
Co252 O262 2.021 . S
Co252 O264 2.137 . S
Co252 O265 2.244 . S
O253 Co252 2.216 . S
O253 C260 1.247 . S
O254 Co252 2.091 1_655 S
O254 C260 1.261 1_655 S
C255 O264 1.247 . S
C255 O265 1.272 . S
O256 Co252 2.004 . S
O256 C261 1.259 . S
Co257 O258 2.061 . S
Co257 O263 2.052 . S
Co257 O265 2.135 . S
O258 Co257 2.061 . S
O258 C261 1.235 . S
C259 O262 1.238 . S
C259 O263 1.241 . S
C260 O253 1.247 . S
C260 O254 1.261 1_455 S
C261 O256 1.259 . S
C261 O258 1.235 . S
O262 Co252 2.021 . S
O262 C259 1.238 . S
O263 Co257 2.052 . S
O263 C259 1.241 . S
O264 Co252 2.137 . S
O264 C255 1.247 . S
O265 Co252 2.244 . S
O265 C255 1.272 . S
O265 Co257 2.135 . S
Co266 O267 2.216 . S
Co266 O268 2.091 1_545 S
Co266 O270 2.004 . S
Co266 O276 2.021 . S
Co266 O278 2.137 . S
Co266 O279 2.244 . S
O267 Co266 2.216 . S
O267 C274 1.247 . S
O268 Co266 2.091 1_565 S
O268 C274 1.261 1_565 S
C269 O278 1.247 . S
C269 O279 1.272 . S
O270 Co266 2.004 . S
O270 C275 1.259 . S
Co271 O272 2.061 . S
Co271 O277 2.052 . S
Co271 O279 2.135 . S
O272 Co271 2.061 . S
O272 C275 1.235 . S
C273 O276 1.238 . S
C273 O277 1.241 . S
C274 O267 1.247 . S
C274 O268 1.261 1_545 S
C275 O270 1.259 . S
C275 O272 1.235 . S
O276 Co266 2.021 . S
O276 C273 1.238 . S
O277 Co271 2.052 . S
O277 C273 1.241 . S
O278 Co266 2.137 . S
O278 C269 1.247 . S
O279 Co266 2.244 . S
O279 C269 1.272 . S
O279 Co271 2.135 . S
Co280 O281 2.216 . S
Co280 O282 2.091 . S
Co280 O284 2.004 . S
Co280 O290 2.021 . S
Co280 O292 2.137 . S
Co280 O293 2.244 . S
O281 Co280 2.216 . S
O281 C288 1.247 . S
O282 Co280 2.091 . S
O282 C288 1.261 . S
C283 O292 1.247 . S
C283 O293 1.272 . S
O284 Co280 2.004 . S
O284 C289 1.259 . S
Co285 O286 2.061 . S
Co285 O291 2.052 . S
Co285 O293 2.135 . S
O286 Co285 2.061 . S
O286 C289 1.235 . S
C287 O290 1.238 . S
C287 O291 1.241 . S
C288 O281 1.247 . S
C288 O282 1.261 . S
C289 O284 1.259 . S
C289 O286 1.235 . S
O290 Co280 2.021 . S
O290 C287 1.238 . S
O291 Co285 2.052 . S
O291 C287 1.241 . S
O292 Co280 2.137 . S
O292 C283 1.247 . S
O293 Co280 2.244 . S
O293 C283 1.272 . S
O293 Co285 2.135 . S
Co294 O295 2.216 . S
Co294 O296 2.091 1_655 S
Co294 O298 2.004 . S
Co294 O304 2.021 . S
Co294 O306 2.137 . S
Co294 O307 2.244 . S
O295 Co294 2.216 . S
O295 C302 1.247 . S
O296 Co294 2.091 1_455 S
O296 C302 1.261 1_455 S
C297 O306 1.247 . S
C297 O307 1.272 . S
O298 Co294 2.004 . S
O298 C303 1.259 . S
Co299 O300 2.061 . S
Co299 O305 2.052 . S
Co299 O307 2.135 . S
O300 Co299 2.061 . S
O300 C303 1.235 . S
C301 O304 1.238 . S
C301 O305 1.241 . S
C302 O295 1.247 . S
C302 O296 1.261 1_655 S
C303 O298 1.259 . S
C303 O300 1.235 . S
O304 Co294 2.021 . S
O304 C301 1.238 . S
O305 Co299 2.052 . S
O305 C301 1.241 . S
O306 Co294 2.137 . S
O306 C297 1.247 . S
O307 Co294 2.244 . S
O307 C297 1.272 . S
O307 Co299 2.135 . S
Co308 O309 2.216 . S
Co308 O310 2.091 1_565 S
Co308 O312 2.004 . S
Co308 O318 2.021 . S
Co308 O320 2.137 . S
Co308 O321 2.244 . S
O309 Co308 2.216 . S
O309 C316 1.247 . S
O310 Co308 2.091 1_545 S
O310 C316 1.261 1_545 S
C311 O320 1.247 . S
C311 O321 1.272 . S
O312 Co308 2.004 . S
O312 C317 1.259 . S
Co313 O314 2.061 . S
Co313 O319 2.052 . S
Co313 O321 2.135 . S
O314 Co313 2.061 . S
O314 C317 1.235 . S
C315 O318 1.238 . S
C315 O319 1.241 . S
C316 O309 1.247 . S
C316 O310 1.261 1_565 S
C317 O312 1.259 . S
C317 O314 1.235 . S
O318 Co308 2.021 . S
O318 C315 1.238 . S
O319 Co313 2.052 . S
O319 C315 1.241 . S
O320 Co308 2.137 . S
O320 C311 1.247 . S
O321 Co308 2.244 . S
O321 C311 1.272 . S
O321 Co313 2.135 . S
Co322 O323 2.216 . S
Co322 O324 2.091 . S
Co322 O326 2.004 . S
Co322 O332 2.021 . S
Co322 O334 2.137 . S
Co322 O335 2.244 . S
O323 Co322 2.216 . S
O323 C330 1.247 . S
O324 Co322 2.091 . S
O324 C330 1.261 . S
C325 O334 1.247 . S
C325 O335 1.272 . S
O326 Co322 2.004 . S
O326 C331 1.259 . S
Co327 O328 2.061 . S
Co327 O333 2.052 . S
Co327 O335 2.135 . S
O328 Co327 2.061 . S
O328 C331 1.235 . S
C329 O332 1.238 . S
C329 O333 1.241 . S
C330 O323 1.247 . S
C330 O324 1.261 . S
C331 O326 1.259 . S
C331 O328 1.235 . S
O332 Co322 2.021 . S
O332 C329 1.238 . S
O333 Co327 2.052 . S
O333 C329 1.241 . S
O334 Co322 2.137 . S
O334 C325 1.247 . S
O335 Co322 2.244 . S
O335 C325 1.272 . S
O335 Co327 2.135 . S
C336 C337 1.387 1_565 S
C336 H340 0.950 . S
C336 C345 1.390 . S
C337 C336 1.387 1_545 S
C337 C339 1.387 . S
H338 C345 0.950 . S
C339 C337 1.387 . S
C339 C341 1.390 . S
C339 H343 0.950 . S
H340 C336 0.950 . S
C341 C339 1.390 . S
C341 C342 1.387 . S
C341 H344 0.950 . S
C342 C341 1.387 . S
C342 C345 1.387 1_545 S
H343 C339 0.950 . S
H344 C341 0.950 . S
C345 C336 1.390 . S
C345 H338 0.950 . S
C345 C342 1.387 1_565 S
C346 C347 1.387 . S
C346 H350 0.950 . S
C346 C355 1.390 . S
C347 C346 1.387 . S
C347 C349 1.387 . S
H348 C355 0.950 . S
C349 C347 1.387 . S
C349 C351 1.390 . S
C349 H353 0.950 . S
H350 C346 0.950 . S
C351 C349 1.390 . S
C351 C352 1.387 . S
C351 H354 0.950 . S
C352 C351 1.387 . S
C352 C355 1.387 . S
H353 C349 0.950 . S
H354 C351 0.950 . S
C355 C346 1.390 . S
C355 H348 0.950 . S
C355 C352 1.387 . S
C356 C357 1.387 . S
C356 H360 0.950 . S
C356 C365 1.390 . S
C357 C356 1.387 . S
C357 C359 1.387 . S
H358 C365 0.950 . S
C359 C357 1.387 . S
C359 C361 1.390 . S
C359 H363 0.950 . S
H360 C356 0.950 . S
C361 C359 1.390 . S
C361 C362 1.387 . S
C361 H364 0.950 . S
C362 C361 1.387 . S
C362 C365 1.387 . S
H363 C359 0.950 . S
H364 C361 0.950 . S
C365 C356 1.390 . S
C365 H358 0.950 . S
C365 C362 1.387 . S
C366 C367 1.387 1_545 S
C366 H370 0.950 . S
C366 C375 1.390 . S
C367 C366 1.387 1_565 S
C367 C369 1.387 . S
H368 C375 0.950 . S
C369 C367 1.387 . S
C369 C371 1.390 . S
C369 H373 0.950 . S
H370 C366 0.950 . S
C371 C369 1.390 . S
C371 C372 1.387 . S
C371 H374 0.950 . S
C372 C371 1.387 . S
C372 C375 1.387 1_565 S
H373 C369 0.950 . S
H374 C371 0.950 . S
C375 C366 1.390 . S
C375 H368 0.950 . S
C375 C372 1.387 1_545 S
C376 C377 1.387 . S
C376 H380 0.950 . S
C376 C385 1.390 . S
C377 C376 1.387 . S
C377 C379 1.387 . S
H378 C385 0.950 . S
C379 C377 1.387 . S
C379 C381 1.390 . S
C379 H383 0.950 . S
H380 C376 0.950 . S
C381 C379 1.390 . S
C381 C382 1.387 . S
C381 H384 0.950 . S
C382 C381 1.387 . S
C382 C385 1.387 . S
H383 C379 0.950 . S
H384 C381 0.950 . S
C385 C376 1.390 . S
C385 H378 0.950 . S
C385 C382 1.387 . S
C386 C387 1.387 . S
C386 H390 0.950 1_455 S
C386 C395 1.390 . S
C387 C386 1.387 . S
C387 C389 1.387 . S
H388 C395 0.950 1_655 S
C389 C387 1.387 . S
C389 C391 1.390 . S
C389 H393 0.950 . S
H390 C386 0.950 1_655 S
C391 C389 1.390 . S
C391 C392 1.387 . S
C391 H394 0.950 . S
C392 C391 1.387 . S
C392 C395 1.387 . S
H393 C389 0.950 . S
H394 C391 0.950 . S
C395 C386 1.390 . S
C395 H388 0.950 1_455 S
C395 C392 1.387 . S
C396 C397 1.387 . S
C396 H400 0.950 1_655 S
C396 C405 1.390 . S
C397 C396 1.387 . S
C397 C399 1.387 . S
H398 C405 0.950 1_455 S
C399 C397 1.387 . S
C399 C401 1.390 . S
C399 H403 0.950 . S
H400 C396 0.950 1_455 S
C401 C399 1.390 . S
C401 C402 1.387 . S
C401 H404 0.950 . S
C402 C401 1.387 . S
C402 C405 1.387 . S
H403 C399 0.950 . S
H404 C401 0.950 . S
C405 C396 1.390 . S
C405 H398 0.950 1_655 S
C405 C402 1.387 . S
C406 C407 1.387 . S
C406 H410 0.950 . S
C406 C415 1.390 . S
C407 C406 1.387 . S
C407 C409 1.387 . S
H408 C415 0.950 . S
C409 C407 1.387 . S
C409 C411 1.390 . S
C409 H413 0.950 . S
H410 C406 0.950 . S
C411 C409 1.390 . S
C411 C412 1.387 . S
C411 H414 0.950 . S
C412 C411 1.387 . S
C412 C415 1.387 . S
H413 C409 0.950 . S
H414 C411 0.950 . S
C415 C406 1.390 . S
C415 H408 0.950 . S
C415 C412 1.387 . S
C416 C417 1.387 . S
C416 H420 0.950 . S
C416 C425 1.390 . S
C417 C416 1.387 . S
C417 C419 1.387 . S
H418 C425 0.950 . S
C419 C417 1.387 . S
C419 C421 1.390 . S
C419 H423 0.950 . S
H420 C416 0.950 . S
C421 C419 1.390 . S
C421 C422 1.387 . S
C421 H424 0.950 . S
C422 C421 1.387 . S
C422 C425 1.387 . S
H423 C419 0.950 . S
H424 C421 0.950 . S
C425 C416 1.390 . S
C425 H418 0.950 . S
C425 C422 1.387 . S
C426 C427 1.387 . S
C426 H430 0.950 . S
C426 C435 1.390 . S
C427 C426 1.387 . S
C427 C429 1.387 . S
H428 C435 0.950 . S
C429 C427 1.387 . S
C429 C431 1.390 . S
C429 H433 0.950 . S
H430 C426 0.950 . S
C431 C429 1.390 . S
C431 C432 1.387 . S
C431 H434 0.950 . S
C432 C431 1.387 . S
C432 C435 1.387 . S
H433 C429 0.950 . S
H434 C431 0.950 . S
C435 C426 1.390 . S
C435 H428 0.950 . S
C435 C432 1.387 . S
C436 C437 1.387 . S
C436 H440 0.950 . S
C436 C445 1.390 . S
C437 C436 1.387 . S
C437 C439 1.387 . S
H438 C445 0.950 . S
C439 C437 1.387 . S
C439 C441 1.390 . S
C439 H443 0.950 . S
H440 C436 0.950 . S
C441 C439 1.390 . S
C441 C442 1.387 . S
C441 H444 0.950 . S
C442 C441 1.387 . S
C442 C445 1.387 . S
H443 C439 0.950 . S
H444 C441 0.950 . S
C445 C436 1.390 . S
C445 H438 0.950 . S
C445 C442 1.387 . S
C446 C447 1.387 . S
C446 H450 0.950 . S
C446 C455 1.390 . S
C447 C446 1.387 . S
C447 C449 1.387 . S
H448 C455 0.950 . S
C449 C447 1.387 . S
C449 C451 1.390 . S
C449 H453 0.950 . S
H450 C446 0.950 . S
C451 C449 1.390 . S
C451 C452 1.387 . S
C451 H454 0.950 . S
C452 C451 1.387 . S
C452 C455 1.387 . S
H453 C449 0.950 . S
H454 C451 0.950 . S
C455 C446 1.390 . S
C455 H448 0.950 . S
C455 C452 1.387 . S
C456 C457 1.387 . S
C456 H460 0.950 . S
C456 C465 1.390 . S
C457 C456 1.387 . S
C457 C459 1.387 . S
H458 C465 0.950 . S
C459 C457 1.387 . S
C459 C461 1.390 . S
C459 H463 0.950 . S
H460 C456 0.950 . S
C461 C459 1.390 . S
C461 C462 1.387 . S
C461 H464 0.950 . S
C462 C461 1.387 . S
C462 C465 1.387 . S
H463 C459 0.950 . S
H464 C461 0.950 . S
C465 C456 1.390 . S
C465 H458 0.950 . S
C465 C462 1.387 . S
C466 C467 1.387 . S
C466 H470 0.950 . S
C466 C475 1.390 . S
C467 C466 1.387 . S
C467 C469 1.387 . S
H468 C475 0.950 . S
C469 C467 1.387 . S
C469 C471 1.390 . S
C469 H473 0.950 . S
H470 C466 0.950 . S
C471 C469 1.390 . S
C471 C472 1.387 . S
C471 H474 0.950 . S
C472 C471 1.387 . S
C472 C475 1.387 . S
H473 C469 0.950 . S
H474 C471 0.950 . S
C475 C466 1.390 . S
C475 H468 0.950 . S
C475 C472 1.387 . S
C476 C477 1.387 . S
C476 H480 0.950 . S
C476 C485 1.390 . S
C477 C476 1.387 . S
C477 C479 1.387 . S
H478 C485 0.950 . S
C479 C477 1.387 . S
C479 C481 1.390 . S
C479 H483 0.950 . S
H480 C476 0.950 . S
C481 C479 1.390 . S
C481 C482 1.387 . S
C481 H484 0.950 . S
C482 C481 1.387 . S
C482 C485 1.387 . S
H483 C479 0.950 . S
H484 C481 0.950 . S
C485 C476 1.390 . S
C485 H478 0.950 . S
C485 C482 1.387 . S
C486 C487 1.387 . S
C486 H490 0.950 . S
C486 C495 1.390 . S
C487 C486 1.387 . S
C487 C489 1.387 . S
H488 C495 0.950 . S
C489 C487 1.387 . S
C489 C491 1.390 . S
C489 H493 0.950 . S
H490 C486 0.950 . S
C491 C489 1.390 . S
C491 C492 1.387 . S
C491 H494 0.950 . S
C492 C491 1.387 . S
C492 C495 1.387 . S
H493 C489 0.950 . S
H494 C491 0.950 . S
C495 C486 1.390 . S
C495 H488 0.950 . S
C495 C492 1.387 . S
C496 C497 1.387 . S
C496 H500 0.950 . S
C496 C505 1.390 . S
C497 C496 1.387 . S
C497 C499 1.387 . S
H498 C505 0.950 . S
C499 C497 1.387 . S
C499 C501 1.390 . S
C499 H503 0.950 . S
H500 C496 0.950 . S
C501 C499 1.390 . S
C501 C502 1.387 . S
C501 H504 0.950 . S
C502 C501 1.387 . S
C502 C505 1.387 . S
H503 C499 0.950 . S
H504 C501 0.950 . S
C505 C496 1.390 . S
C505 H498 0.950 . S
C505 C502 1.387 . S
C506 C507 1.387 . S
C506 H510 0.950 . S
C506 C515 1.390 . S
C507 C506 1.387 . S
C507 C509 1.387 . S
H508 C515 0.950 . S
C509 C507 1.387 . S
C509 C511 1.390 . S
C509 H513 0.950 . S
H510 C506 0.950 . S
C511 C509 1.390 . S
C511 C512 1.387 . S
C511 H514 0.950 . S
C512 C511 1.387 . S
C512 C515 1.387 . S
H513 C509 0.950 . S
H514 C511 0.950 . S
C515 C506 1.390 . S
C515 H508 0.950 . S
C515 C512 1.387 . S
C516 C517 1.387 . S
C516 H520 0.950 . S
C516 C525 1.390 . S
C517 C516 1.387 . S
C517 C519 1.387 . S
H518 C525 0.950 . S
C519 C517 1.387 . S
C519 C521 1.390 . S
C519 H523 0.950 . S
H520 C516 0.950 . S
C521 C519 1.390 . S
C521 C522 1.387 . S
C521 H524 0.950 . S
C522 C521 1.387 . S
C522 C525 1.387 . S
H523 C519 0.950 . S
H524 C521 0.950 . S
C525 C516 1.390 . S
C525 H518 0.950 . S
C525 C522 1.387 . S
C526 C527 1.387 . S
C526 H530 0.950 . S
C526 C535 1.390 . S
C527 C526 1.387 . S
C527 C529 1.387 . S
H528 C535 0.950 . S
C529 C527 1.387 . S
C529 C531 1.390 . S
C529 H533 0.950 . S
H530 C526 0.950 . S
C531 C529 1.390 . S
C531 C532 1.387 . S
C531 H534 0.950 . S
C532 C531 1.387 . S
C532 C535 1.387 . S
H533 C529 0.950 . S
H534 C531 0.950 . S
C535 C526 1.390 . S
C535 H528 0.950 . S
C535 C532 1.387 . S
C536 C537 1.387 . S
C536 H540 0.950 . S
C536 C545 1.390 . S
C537 C536 1.387 . S
C537 C539 1.387 . S
H538 C545 0.950 . S
C539 C537 1.387 . S
C539 C541 1.390 . S
C539 H543 0.950 . S
H540 C536 0.950 . S
C541 C539 1.390 . S
C541 C542 1.387 . S
C541 H544 0.950 . S
C542 C541 1.387 . S
C542 C545 1.387 . S
H543 C539 0.950 . S
H544 C541 0.950 . S
C545 C536 1.390 . S
C545 H538 0.950 . S
C545 C542 1.387 . S
C546 C547 1.387 . S
C546 H550 0.950 . S
C546 C555 1.390 . S
C547 C546 1.387 . S
C547 C549 1.387 . S
H548 C555 0.950 . S
C549 C547 1.387 . S
C549 C551 1.390 . S
C549 H553 0.950 . S
H550 C546 0.950 . S
C551 C549 1.390 . S
C551 C552 1.387 . S
C551 H554 0.950 . S
C552 C551 1.387 . S
C552 C555 1.387 . S
H553 C549 0.950 . S
H554 C551 0.950 . S
C555 C546 1.390 . S
C555 H548 0.950 . S
C555 C552 1.387 . S
C556 C557 1.387 . S
C556 H560 0.950 . S
C556 C565 1.390 . S
C557 C556 1.387 . S
C557 C559 1.387 . S
H558 C565 0.950 . S
C559 C557 1.387 . S
C559 C561 1.390 . S
C559 H563 0.950 . S
H560 C556 0.950 . S
C561 C559 1.390 . S
C561 C562 1.387 . S
C561 H564 0.950 . S
C562 C561 1.387 . S
C562 C565 1.387 . S
H563 C559 0.950 . S
H564 C561 0.950 . S
C565 C556 1.390 . S
C565 H558 0.950 . S
C565 C562 1.387 . S
C566 C567 1.387 . S
C566 H570 0.950 . S
C566 C575 1.390 . S
C567 C566 1.387 . S
C567 C569 1.387 . S
H568 C575 0.950 . S
C569 C567 1.387 . S
C569 C571 1.390 . S
C569 H573 0.950 . S
H570 C566 0.950 . S
C571 C569 1.390 . S
C571 C572 1.387 . S
C571 H574 0.950 . S
C572 C571 1.387 . S
C572 C575 1.387 . S
H573 C569 0.950 . S
H574 C571 0.950 . S
C575 C566 1.390 . S
C575 H568 0.950 . S
C575 C572 1.387 . S
C576 C577 1.387 . S
C576 H580 0.950 . S
C576 C585 1.390 1_566 S
C577 C576 1.387 . S
C577 C579 1.387 . S
H578 C585 0.950 . S
C579 C577 1.387 . S
C579 C581 1.390 1_566 S
C579 H583 0.950 . S
H580 C576 0.950 . S
C581 C579 1.390 1_544 S
C581 C582 1.387 . S
C581 H584 0.950 . S
C582 C581 1.387 . S
C582 C585 1.387 . S
H583 C579 0.950 . S
H584 C581 0.950 . S
C585 C576 1.390 1_544 S
C585 H578 0.950 . S
C585 C582 1.387 . S
C586 C587 1.387 . S
C586 H590 0.950 . S
C586 C595 1.390 . S
C587 C586 1.387 . S
C587 C589 1.387 . S
H588 C595 0.950 . S
C589 C587 1.387 . S
C589 C591 1.390 . S
C589 H593 0.950 . S
H590 C586 0.950 . S
C591 C589 1.390 . S
C591 C592 1.387 . S
C591 H594 0.950 . S
C592 C591 1.387 . S
C592 C595 1.387 . S
H593 C589 0.950 . S
H594 C591 0.950 . S
C595 C586 1.390 . S
C595 H588 0.950 . S
C595 C592 1.387 . S
C596 C597 1.387 1_655 S
C596 H600 0.950 . S
C596 C605 1.390 1_556 S
C597 C596 1.387 1_455 S
C597 C599 1.387 . S
H598 C605 0.950 . S
C599 C597 1.387 . S
C599 C601 1.390 1_556 S
C599 H603 0.950 . S
H600 C596 0.950 . S
C601 C599 1.390 1_554 S
C601 C602 1.387 1_455 S
C601 H604 0.950 . S
C602 C601 1.387 1_655 S
C602 C605 1.387 . S
H603 C599 0.950 . S
H604 C601 0.950 . S
C605 C596 1.390 1_554 S
C605 H598 0.950 . S
C605 C602 1.387 . S
C606 C607 1.374 1_565 S
C606 H610 0.962 . S
C606 C615 1.392 . S
C607 C606 1.374 1_545 S
C607 C609 1.387 . S
H608 C615 0.950 . S
C609 C607 1.387 . S
C609 C611 1.392 . S
C609 H613 0.950 . S
H610 C606 0.962 . S
C611 C609 1.392 . S
C611 C612 1.374 1_545 S
C611 H614 0.962 . S
C612 C611 1.374 1_565 S
C612 C615 1.387 . S
H613 C609 0.950 . S
H614 C611 0.962 . S
C615 C606 1.392 . S
C615 H608 0.950 . S
C615 C612 1.387 . S
C616 C617 1.387 . S
C616 H620 0.950 . S
C616 C625 1.390 1_554 S
C617 C616 1.387 . S
C617 C619 1.387 . S
H618 C625 0.950 . S
C619 C617 1.387 . S
C619 C621 1.390 1_554 S
C619 H623 0.950 . S
H620 C616 0.950 . S
C621 C619 1.390 1_556 S
C621 C622 1.387 . S
C621 H624 0.950 . S
C622 C621 1.387 . S
C622 C625 1.387 . S
H623 C619 0.950 . S
H624 C621 0.950 . S
C625 C616 1.390 1_556 S
C625 H618 0.950 . S
C625 C622 1.387 . S
C626 C627 1.387 1_655 S
C626 H630 0.950 . S
C626 C635 1.390 . S
C627 C626 1.387 1_455 S
C627 C629 1.387 . S
H628 C635 0.950 . S
C629 C627 1.387 . S
C629 C631 1.390 . S
C629 H633 0.950 . S
H630 C626 0.950 . S
C631 C629 1.390 . S
C631 C632 1.387 1_455 S
C631 H634 0.950 . S
C632 C631 1.387 1_655 S
C632 C635 1.387 . S
H633 C629 0.950 . S
H634 C631 0.950 . S
C635 C626 1.390 . S
C635 H628 0.950 . S
C635 C632 1.387 . S
C636 C637 1.387 . S
C636 H640 0.950 . S
C636 C645 1.390 1_566 S
C637 C636 1.387 . S
C637 C639 1.387 . S
H638 C645 0.950 . S
C639 C637 1.387 . S
C639 C641 1.390 1_566 S
C639 H643 0.950 . S
H640 C636 0.950 . S
C641 C639 1.390 1_544 S
C641 C642 1.387 . S
C641 H644 0.950 . S
C642 C641 1.387 . S
C642 C645 1.387 . S
H643 C639 0.950 . S
H644 C641 0.950 . S
C645 C636 1.390 1_544 S
C645 H638 0.950 . S
C645 C642 1.387 . S
C646 C647 1.387 . S
C646 H650 0.950 . S
C646 C655 1.390 . S
C647 C646 1.387 . S
C647 C649 1.387 . S
H648 C655 0.950 . S
C649 C647 1.387 . S
C649 C651 1.390 . S
C649 H653 0.950 . S
H650 C646 0.950 . S
C651 C649 1.390 . S
C651 C652 1.387 . S
C651 H654 0.950 . S
C652 C651 1.387 . S
C652 C655 1.387 . S
H653 C649 0.950 . S
H654 C651 0.950 . S
C655 C646 1.390 . S
C655 H648 0.950 . S
C655 C652 1.387 . S
C656 C657 1.387 . S
C656 H660 0.950 . S
C656 C665 1.390 1_554 S
C657 C656 1.387 . S
C657 C659 1.387 1_655 S
H658 C665 0.950 . S
C659 C657 1.387 1_455 S
C659 C661 1.390 1_554 S
C659 H663 0.950 . S
H660 C656 0.950 . S
C661 C659 1.390 1_556 S
C661 C662 1.387 . S
C661 H664 0.950 . S
C662 C661 1.387 . S
C662 C665 1.387 1_455 S
H663 C659 0.950 . S
H664 C661 0.950 . S
C665 C656 1.390 1_556 S
C665 H658 0.950 . S
C665 C662 1.387 1_655 S
C666 C667 1.387 . S
C666 H670 0.950 . S
C666 C675 1.390 1_565 S
C667 C666 1.387 . S
C667 C669 1.387 . S
H668 C675 0.950 . S
C669 C667 1.387 . S
C669 C671 1.390 1_565 S
C669 H673 0.950 . S
H670 C666 0.950 . S
C671 C669 1.390 1_545 S
C671 C672 1.387 . S
C671 H674 0.950 . S
C672 C671 1.387 . S
C672 C675 1.387 . S
H673 C669 0.950 . S
H674 C671 0.950 . S
C675 C666 1.390 1_545 S
C675 H668 0.950 . S
C675 C672 1.387 . S
C676 C677 1.387 . S
C676 H680 0.950 . S
C676 C685 1.390 1_554 S
C677 C676 1.387 . S
C677 C679 1.387 . S
H678 C685 0.950 . S
C679 C677 1.387 . S
C679 C681 1.390 1_554 S
C679 H683 0.950 . S
H680 C676 0.950 . S
C681 C679 1.390 1_556 S
C681 C682 1.387 . S
C681 H684 0.950 . S
C682 C681 1.387 . S
C682 C685 1.387 . S
H683 C679 0.950 . S
H684 C681 0.950 . S
C685 C676 1.390 1_556 S
C685 H678 0.950 . S
C685 C682 1.387 . S
C686 C687 1.387 1_655 S
C686 H690 0.950 . S
C686 C695 1.390 . S
C687 C686 1.387 1_455 S
C687 C689 1.387 . S
H688 C695 0.950 . S
C689 C687 1.387 . S
C689 C691 1.390 . S
C689 H693 0.950 . S
H690 C686 0.950 . S
C691 C689 1.390 . S
C691 C692 1.387 1_455 S
C691 H694 0.950 . S
C692 C691 1.387 1_655 S
C692 C695 1.387 . S
H693 C689 0.950 . S
H694 C691 0.950 . S
C695 C686 1.390 . S
C695 H688 0.950 . S
C695 C692 1.387 . S
C696 C697 1.387 . S
C696 H700 0.950 . S
C696 C705 1.390 . S
C697 C696 1.387 . S
C697 C699 1.387 . S
H698 C705 0.950 . S
C699 C697 1.387 . S
C699 C701 1.390 . S
C699 H703 0.950 . S
H700 C696 0.950 . S
C701 C699 1.390 . S
C701 C702 1.387 . S
C701 H704 0.950 . S
C702 C701 1.387 . S
C702 C705 1.387 . S
H703 C699 0.950 . S
H704 C701 0.950 . S
C705 C696 1.390 . S
C705 H698 0.950 . S
C705 C702 1.387 . S
C706 C707 1.387 . S
C706 H710 0.950 . S
C706 C715 1.390 . S
C707 C706 1.387 . S
C707 C709 1.387 . S
H708 C715 0.950 . S
C709 C707 1.387 . S
C709 C711 1.390 . S
C709 H713 0.950 . S
H710 C706 0.950 . S
C711 C709 1.390 . S
C711 C712 1.387 . S
C711 H714 0.950 . S
C712 C711 1.387 . S
C712 C715 1.387 . S
H713 C709 0.950 . S
H714 C711 0.950 . S
C715 C706 1.390 . S
C715 H708 0.950 . S
C715 C712 1.387 . S
C716 C717 1.387 . S
C716 H720 0.950 . S
C716 C725 1.390 . S
C717 C716 1.387 . S
C717 C719 1.387 . S
H718 C725 0.950 . S
C719 C717 1.387 . S
C719 C721 1.390 . S
C719 H723 0.950 . S
H720 C716 0.950 . S
C721 C719 1.390 . S
C721 C722 1.387 . S
C721 H724 0.950 . S
C722 C721 1.387 . S
C722 C725 1.387 . S
H723 C719 0.950 . S
H724 C721 0.950 . S
C725 C716 1.390 . S
C725 H718 0.950 . S
C725 C722 1.387 . S
C726 C727 1.387 . S
C726 H730 0.950 . S
C726 C735 1.390 . S
C727 C726 1.387 . S
C727 C729 1.387 . S
H728 C735 0.950 . S
C729 C727 1.387 . S
C729 C731 1.390 . S
C729 H733 0.950 . S
H730 C726 0.950 . S
C731 C729 1.390 . S
C731 C732 1.387 . S
C731 H734 0.950 . S
C732 C731 1.387 . S
C732 C735 1.387 . S
H733 C729 0.950 . S
H734 C731 0.950 . S
C735 C726 1.390 . S
C735 H728 0.950 . S
C735 C732 1.387 . S
C736 C737 1.387 . S
C736 H740 0.950 . S
C736 C745 1.390 . S
C737 C736 1.387 . S
C737 C739 1.387 . S
H738 C745 0.950 . S
C739 C737 1.387 . S
C739 C741 1.390 . S
C739 H743 0.950 . S
H740 C736 0.950 . S
C741 C739 1.390 . S
C741 C742 1.387 . S
C741 H744 0.950 . S
C742 C741 1.387 . S
C742 C745 1.387 . S
H743 C739 0.950 . S
H744 C741 0.950 . S
C745 C736 1.390 . S
C745 H738 0.950 . S
C745 C742 1.387 . S
C746 C747 1.387 . S
C746 H750 0.950 . S
C746 C755 1.390 . S
C747 C746 1.387 . S
C747 C749 1.387 . S
H748 C755 0.950 . S
C749 C747 1.387 . S
C749 C751 1.390 . S
C749 H753 0.950 . S
H750 C746 0.950 . S
C751 C749 1.390 . S
C751 C752 1.387 . S
C751 H754 0.950 . S
C752 C751 1.387 . S
C752 C755 1.387 . S
H753 C749 0.950 . S
H754 C751 0.950 . S
C755 C746 1.390 . S
C755 H748 0.950 . S
C755 C752 1.387 . S
C756 C757 1.387 . S
C756 H760 0.950 . S
C756 C765 1.390 . S
C757 C756 1.387 . S
C757 C759 1.387 . S
H758 C765 0.950 . S
C759 C757 1.387 . S
C759 C761 1.390 . S
C759 H763 0.950 . S
H760 C756 0.950 . S
C761 C759 1.390 . S
C761 C762 1.387 . S
C761 H764 0.950 . S
C762 C761 1.387 . S
C762 C765 1.387 . S
H763 C759 0.950 . S
H764 C761 0.950 . S
C765 C756 1.390 . S
C765 H758 0.950 . S
C765 C762 1.387 . S
C766 C767 1.387 . S
C766 H770 0.950 . S
C766 C775 1.390 . S
C767 C766 1.387 . S
C767 C769 1.387 . S
H768 C775 0.950 . S
C769 C767 1.387 . S
C769 C771 1.390 . S
C769 H773 0.950 . S
H770 C766 0.950 . S
C771 C769 1.390 . S
C771 C772 1.387 . S
C771 H774 0.950 . S
C772 C771 1.387 . S
C772 C775 1.387 . S
H773 C769 0.950 . S
H774 C771 0.950 . S
C775 C766 1.390 . S
C775 H768 0.950 . S
C775 C772 1.387 . S
C776 C777 1.387 . S
C776 H780 0.950 . S
C776 C785 1.390 . S
C777 C776 1.387 . S
C777 C779 1.387 . S
H778 C785 0.950 . S
C779 C777 1.387 . S
C779 C781 1.390 . S
C779 H783 0.950 . S
H780 C776 0.950 . S
C781 C779 1.390 . S
C781 C782 1.387 . S
C781 H784 0.950 . S
C782 C781 1.387 . S
C782 C785 1.387 . S
H783 C779 0.950 . S
H784 C781 0.950 . S
C785 C776 1.390 . S
C785 H778 0.950 . S
C785 C782 1.387 . S
C786 C787 1.387 . S
C786 H790 0.950 . S
C786 C795 1.390 . S
C787 C786 1.387 . S
C787 C789 1.387 . S
H788 C795 0.950 . S
C789 C787 1.387 . S
C789 C791 1.390 . S
C789 H793 0.950 . S
H790 C786 0.950 . S
C791 C789 1.390 . S
C791 C792 1.387 . S
C791 H794 0.950 . S
C792 C791 1.387 . S
C792 C795 1.387 . S
H793 C789 0.950 . S
H794 C791 0.950 . S
C795 C786 1.390 . S
C795 H788 0.950 . S
C795 C792 1.387 . S
C796 C797 1.387 . S
C796 H800 0.950 . S
C796 C805 1.390 . S
C797 C796 1.387 . S
C797 C799 1.387 . S
H798 C805 0.950 . S
C799 C797 1.387 . S
C799 C801 1.390 . S
C799 H803 0.950 . S
H800 C796 0.950 . S
C801 C799 1.390 . S
C801 C802 1.387 . S
C801 H804 0.950 . S
C802 C801 1.387 . S
C802 C805 1.387 . S
H803 C799 0.950 . S
H804 C801 0.950 . S
C805 C796 1.390 . S
C805 H798 0.950 . S
C805 C802 1.387 . S
C806 C807 1.387 . S
C806 H810 0.950 . S
C806 C815 1.390 . S
C807 C806 1.387 . S
C807 C809 1.387 . S
H808 C815 0.950 . S
C809 C807 1.387 . S
C809 C811 1.390 . S
C809 H813 0.950 . S
H810 C806 0.950 . S
C811 C809 1.390 . S
C811 C812 1.387 . S
C811 H814 0.950 . S
C812 C811 1.387 . S
C812 C815 1.387 . S
H813 C809 0.950 . S
H814 C811 0.950 . S
C815 C806 1.390 . S
C815 H808 0.950 . S
C815 C812 1.387 . S
C337 C219 1.339 . S
C342 C9 1.341 . S
C347 C23 1.339 . S
C352 C233 1.341 . S
C357 C37 1.338 . S
C362 C247 1.342 . S
C367 C51 1.341 . S
C372 C177 1.339 . S
C377 C191 1.341 . S
C382 C65 1.339 . S
C387 C79 1.340 . S
C392 C205 1.340 . S
C397 C303 1.340 . S
C402 C93 1.340 . S
C407 C107 1.338 . S
C412 C317 1.342 . S
C417 C121 1.342 . S
C422 C331 1.338 . S
C427 C261 1.338 . S
C432 C135 1.341 . S
C437 C149 1.339 . S
C442 C275 1.341 . S
C447 C289 1.342 . S
C452 C163 1.338 . S
C457 C3 1.572 . S
C462 C325 1.571 . S
C467 C255 1.571 . S
C472 C17 1.572 . S
C477 C31 1.572 . S
C482 C269 1.572 . S
C487 C283 1.571 . S
C492 C45 1.572 . S
C497 C59 1.572 . S
C502 C297 1.572 . S
C507 C311 1.572 . S
C512 C73 1.572 . S
C517 C87 1.572 . S
C522 C185 1.571 . S
C527 C199 1.572 . S
C532 C101 1.572 . S
C537 C213 1.572 . S
C542 C115 1.571 . S
C547 C227 1.572 . S
C552 C129 1.572 . S
C557 C143 1.572 . S
C562 C241 1.572 . S
C567 C157 1.571 . S
C572 C171 1.572 . S
C577 C106 1.400 . S
C582 C8 1.400 . S
C587 C120 1.399 . S
C592 C22 1.400 . S
C597 C134 1.402 . S
C602 C36 1.402 . S
C607 C148 1.402 . S
C612 C50 1.402 . S
C617 C64 1.401 . S
C622 C162 1.402 . S
C627 C78 1.400 . S
C632 C92 1.400 . S
C637 C176 1.400 . S
C642 C274 1.400 . S
C647 C190 1.400 . S
C652 C288 1.399 . S
C657 C302 1.402 . S
C662 C204 1.402 . S
C667 C316 1.402 . S
C672 C218 1.402 . S
C677 C330 1.400 . S
C682 C232 1.401 . S
C687 C260 1.400 . S
C692 C246 1.400 . S
C697 C7 1.546 . S
C702 C273 1.544 . S
C707 C287 1.546 . S
C712 C21 1.544 . S
C717 C35 1.544 . S
C722 C301 1.546 . S
C727 C315 1.546 . S
C732 C49 1.544 . S
C737 C63 1.544 . S
C742 C329 1.546 . S
C747 C259 1.546 . S
C752 C77 1.544 . S
C757 C91 1.544 . S
C762 C245 1.546 . S
C767 C175 1.546 . S
C772 C105 1.544 . S
C777 C119 1.544 . S
C782 C189 1.546 . S
C787 C133 1.544 . S
C792 C203 1.546 . S
C797 C147 1.546 . S
C802 C217 1.544 . S
C807 C161 1.546 . S
C812 C231 1.544 . S
