# Generated by pormake.
# Topology sra, (4)-cn, num edge types: 1
# Building blocks:
#     Node 0, Type 0, BuildingBlock: CEKHIL_clean_sbu_0, # of connection points: 4
#     Node 1, Type 0, BuildingBlock: CEKHIL_clean_sbu_0, # of connection points: 4
#     Node 2, Type 0, BuildingBlock: CEKHIL_clean_sbu_0, # of connection points: 4
#     Node 3, Type 0, BuildingBlock: CEKHIL_clean_sbu_0, # of connection points: 4
#     Node 4, Type 0, BuildingBlock: CEKHIL_clean_sbu_0, # of connection points: 4
#     Node 5, Type 0, BuildingBlock: CEKHIL_clean_sbu_0, # of connection points: 4
#     Node 6, Type 0, BuildingBlock: CEKHIL_clean_sbu_0, # of connection points: 4
#     Node 7, Type 0, BuildingBlock: CEKHIL_clean_sbu_0, # of connection points: 4
#     Edge 8, Type (0, 0), BuildingBlock: XIVTED_clean_linker_0, # of connection points: 2
#     Edge 9, Type (0, 0), BuildingBlock: XIVTED_clean_linker_0, # of connection points: 2
#     Edge 10, Type (0, 0), BuildingBlock: XIVTED_clean_linker_0, # of connection points: 2
#     Edge 11, Type (0, 0), BuildingBlock: XIVTED_clean_linker_0, # of connection points: 2
#     Edge 12, Type (0, 0), BuildingBlock: XIVTED_clean_linker_0, # of connection points: 2
#     Edge 13, Type (0, 0), BuildingBlock: XIVTED_clean_linker_0, # of connection points: 2
#     Edge 14, Type (0, 0), BuildingBlock: XIVTED_clean_linker_0, # of connection points: 2
#     Edge 15, Type (0, 0), BuildingBlock: XIVTED_clean_linker_0, # of connection points: 2
#     Edge 16, Type (0, 0), BuildingBlock: XIVTED_clean_linker_0, # of connection points: 2
#     Edge 17, Type (0, 0), BuildingBlock: XIVTED_clean_linker_0, # of connection points: 2
#     Edge 18, Type (0, 0), BuildingBlock: XIVTED_clean_linker_0, # of connection points: 2
#     Edge 19, Type (0, 0), BuildingBlock: XIVTED_clean_linker_0, # of connection points: 2
#     Edge 20, Type (0, 0), BuildingBlock: XIVTED_clean_linker_0, # of connection points: 2
#     Edge 21, Type (0, 0), BuildingBlock: XIVTED_clean_linker_0, # of connection points: 2
#     Edge 22, Type (0, 0), BuildingBlock: XIVTED_clean_linker_0, # of connection points: 2
#     Edge 23, Type (0, 0), BuildingBlock: XIVTED_clean_linker_0, # of connection points: 2
# Relax obj value: 0.033
# Max RMSD: 0.069
# Mean RMSD: 0.069
data_MOF--net-sra--node1-CEKHIL_clean_sbu_0--edge1-XIVTED_clean_linker_0
_symmetry_space_group_name_H-M    P1
_symmetry_Int_Tables_number       1
_symmetry_cell_setting            triclinic
loop_
_symmetry_equiv_pos_as_xyz
'x, y, z'
_cell_length_a     27.274445
_cell_length_b     53.084345
_cell_length_c     31.315865
_cell_angle_alpha  90.027106
_cell_angle_beta   89.992503
_cell_angle_gamma 89.999995
loop_
_atom_site_label
_atom_site_type_symbol
_atom_site_fract_x
_atom_site_fract_y
_atom_site_fract_z
_atom_type_partial_charge
Co0 Co 0.02066 0.10593 0.15319 0.0
O1 O 0.02241 0.06998 0.14555 0.0
O2 O -0.00423 0.09712 0.09718 0.0
C3 C 0.09684 0.10925 0.18049 0.0
O4 O 0.01485 0.14427 0.14924 0.0
Co5 Co 0.03022 0.12975 0.2436 0.0
O6 O 0.0438 0.16086 0.21041 0.0
C7 C 0.93755 0.10514 0.21758 0.0
C8 C 0.0046 0.07383 0.10771 0.0
C9 C 0.02952 0.1631 0.17186 0.0
O10 O 0.9531 0.10331 0.17888 0.0
O11 O 0.96413 0.11327 0.24839 0.0
O12 O 0.09056 0.10823 0.13937 0.0
O13 O 0.05786 0.10629 0.20319 0.0
Co14 Co 0.00203 0.40208 0.15309 0.0
O15 O 0.00305 0.43799 0.14477 0.0
O16 O 0.02753 0.40998 0.09693 0.0
C17 C 0.92589 0.40048 0.18078 0.0
O18 O 0.00489 0.36362 0.14976 0.0
Co19 Co 0.99033 0.3788 0.24388 0.0
O20 O 0.97471 0.34781 0.21104 0.0
C21 C 0.08445 0.40192 0.21781 0.0
C22 C 0.02057 0.4335 0.10701 0.0
C23 C 0.98891 0.34514 0.17253 0.0
O24 O 0.06965 0.40349 0.17884 0.0
O25 O 0.05696 0.39461 0.24858 0.0
O26 O 0.93183 0.40113 0.13958 0.0
O27 O 0.96523 0.40274 0.20314 0.0
Co28 Co 0.02269 0.90156 0.84847 0.0
O29 O 0.02714 0.93698 0.86011 0.0
O30 O -0.00068 0.90859 0.90586 0.0
C31 C 0.09806 0.89771 0.81948 0.0
O32 O 0.01406 0.86326 0.84747 0.0
Co33 Co 0.02785 0.88346 0.75366 0.0
O34 O 0.02505 0.84952 0.7799 0.0
C35 C 0.93866 0.90829 0.7858 0.0
C36 C 0.00917 0.93209 0.89751 0.0
C37 C 0.01695 0.84554 0.81943 0.0
O38 O 0.9547 0.90655 0.82438 0.0
O39 O 0.96457 0.90263 0.75308 0.0
O40 O 0.09273 0.89719 0.86073 0.0
O41 O 0.05899 0.90278 0.7981 0.0
Co42 Co 0.00219 0.60533 0.84992 0.0
O43 O 0.00529 0.56984 0.86121 0.0
O44 O 0.02763 0.59945 0.90702 0.0
C45 C 0.92595 0.60495 0.82218 0.0
O46 O 0.00216 0.64395 0.84928 0.0
Co47 Co 0.99053 0.62392 0.75595 0.0
O48 O 0.97303 0.65586 0.78507 0.0
C49 C 0.08561 0.60402 0.78573 0.0
C50 C 0.02207 0.57558 0.89868 0.0
C51 C 0.98548 0.66081 0.82342 0.0
O52 O 0.07024 0.60412 0.82465 0.0
O53 O 0.05811 0.60918 0.75377 0.0
O54 O 0.93197 0.60568 0.86334 0.0
O55 O 0.96542 0.60223 0.80009 0.0
Co56 Co 0.52331 0.60474 0.65002 0.0
O57 O 0.52129 0.56892 0.64113 0.0
O58 O 0.4968 0.59736 0.59403 0.0
C59 C 0.6 0.60568 0.67664 0.0
O60 O 0.5213 0.64319 0.64729 0.0
Co61 Co 0.53694 0.62752 0.74088 0.0
O62 O 0.55324 0.65849 0.70825 0.0
C63 C 0.44149 0.60553 0.71559 0.0
C64 C 0.50344 0.57375 0.60362 0.0
C65 C 0.53835 0.66142 0.67002 0.0
O66 O 0.45603 0.60361 0.67657 0.0
O67 O 0.46944 0.61275 0.74611 0.0
O68 O 0.59323 0.60532 0.63554 0.0
O69 O 0.56103 0.60358 0.69958 0.0
Co70 Co 0.50283 0.90004 0.65278 0.0
O71 O 0.50175 0.93592 0.64451 0.0
O72 O 0.52893 0.90831 0.59703 0.0
C73 C 0.42619 0.89705 0.67909 0.0
O74 O 0.50817 0.86168 0.64935 0.0
Co75 Co 0.49137 0.87654 0.74324 0.0
O76 O 0.47738 0.84546 0.71007 0.0
C77 C 0.58442 0.90121 0.71858 0.0
C78 C 0.52028 0.93169 0.60702 0.0
C79 C 0.4924 0.84303 0.67177 0.0
O80 O 0.56985 0.90268 0.67953 0.0
O81 O 0.55716 0.89318 0.74899 0.0
O82 O 0.43311 0.89792 0.63803 0.0
O83 O 0.46481 0.89998 0.70225 0.0
Co84 Co 0.52206 0.39996 0.35008 0.0
O85 O 0.52121 0.43581 0.35892 0.0
O86 O 0.49627 0.40758 0.40622 0.0
C87 C 0.59837 0.39838 0.32275 0.0
O88 O 0.5188 0.36156 0.35295 0.0
Co89 Co 0.53426 0.37688 0.2592 0.0
O90 O 0.54928 0.34573 0.2918 0.0
C91 C 0.44012 0.40017 0.28494 0.0
C92 C 0.50344 0.43113 0.39653 0.0
C93 C 0.5347 0.34307 0.33018 0.0
O94 O 0.45465 0.40163 0.324 0.0
O95 O 0.46776 0.39282 0.25428 0.0
O96 O 0.59216 0.39884 0.36393 0.0
O97 O 0.55918 0.40074 0.30021 0.0
Co98 Co 0.49966 0.10441 0.35083 0.0
O99 O 0.49877 0.06857 0.35958 0.0
O100 O 0.52534 0.09645 0.40686 0.0
C101 C 0.4232 0.10718 0.32396 0.0
O102 O 0.50481 0.14275 0.35361 0.0
Co103 Co 0.48883 0.12726 0.2598 0.0
O104 O 0.47518 0.15867 0.29223 0.0
C105 C 0.58229 0.1035 0.2859 0.0
C106 C 0.51705 0.073 0.39709 0.0
C107 C 0.48977 0.16131 0.33062 0.0
O108 O 0.56702 0.10189 0.32472 0.0
O109 O 0.5553 0.11119 0.25505 0.0
O110 O 0.42981 0.10655 0.36506 0.0
O111 O 0.46202 0.1041 0.3011 0.0
H112 H 0.06527 0.32311 0.13034 0.0
H113 H 0.94917 0.18489 0.13564 0.0
H114 H 0.92014 0.30816 0.17859 0.0
H115 H 0.09875 0.19997 0.17187 0.0
H116 H 0.93714 0.23023 0.12264 0.0
H117 H 0.07588 0.27774 0.11681 0.0
C118 C 0.03516 0.31036 0.13682 0.0
C119 C 0.99189 0.31921 0.15581 0.0
C120 C 0.97288 0.22343 0.13235 0.0
C121 C 0.0035 0.26778 0.13998 0.0
C122 C 0.97984 0.19766 0.13948 0.0
C123 C 0.02495 0.18888 0.15492 0.0
C124 C 0.01169 0.24025 0.13974 0.0
C125 C 0.0634 0.20614 0.1601 0.0
C126 C 0.04134 0.28458 0.12935 0.0
C127 C 0.95414 0.30196 0.16415 0.0
N128 N 0.0559 0.23107 0.15263 0.0
N129 N 0.96084 0.277 0.1563 0.0
H130 H 0.94703 0.81675 0.78444 0.0
H131 H 0.04602 0.68729 0.8783 0.0
H132 H 0.05999 0.8151 0.88054 0.0
H133 H 0.91877 0.69529 0.79772 0.0
H134 H 0.04818 0.73345 0.88708 0.0
H135 H 0.9323 0.77213 0.79572 0.0
C136 C 0.96838 0.80689 0.80837 0.0
C137 C 0.00482 0.81945 0.83146 0.0
C138 C 0.01932 0.72499 0.86816 0.0
C139 C 0.98912 0.76795 0.84409 0.0
C140 C 0.01794 0.69868 0.86332 0.0
C141 C 0.98263 0.68754 0.83666 0.0
C142 C 0.98502 0.74001 0.84626 0.0
C143 C 0.94719 0.70312 0.8179 0.0
C144 C 0.96001 0.78137 0.81489 0.0
C145 C 0.03145 0.80593 0.86221 0.0
N146 N 0.94962 0.72844 0.82272 0.0
N147 N 0.02365 0.78068 0.86719 0.0
H148 H 0.60789 0.698 0.67585 0.0
H149 H 0.42282 0.80641 0.6732 0.0
H150 H 0.46172 0.68401 0.62921 0.0
H151 H 0.57164 0.82094 0.63408 0.0
H152 H 0.43503 0.76151 0.65805 0.0
H153 H 0.59667 0.74306 0.6616 0.0
C154 C 0.57383 0.70442 0.66175 0.0
C155 C 0.53561 0.68742 0.65372 0.0
C156 C 0.46463 0.7746 0.65182 0.0
C157 C 0.52203 0.73877 0.63868 0.0
C158 C 0.45772 0.80014 0.66054 0.0
C159 C 0.49632 0.81723 0.65484 0.0
C160 C 0.51101 0.76606 0.63887 0.0
C161 C 0.54096 0.80827 0.63861 0.0
C162 C 0.5675 0.73005 0.65354 0.0
C163 C 0.4921 0.69659 0.63562 0.0
N164 N 0.54755 0.78313 0.63219 0.0
N165 N 0.48596 0.72179 0.62969 0.0
H166 H 0.45705 0.32163 0.37118 0.0
H167 H 0.56898 0.18266 0.3694 0.0
H168 H 0.60262 0.30562 0.32489 0.0
H169 H 0.42191 0.19881 0.3271 0.0
H170 H 0.58173 0.22794 0.38246 0.0
H171 H 0.44493 0.27635 0.38448 0.0
C172 C 0.48693 0.30866 0.36509 0.0
C173 C 0.53077 0.31717 0.3467 0.0
C174 C 0.54634 0.22138 0.37136 0.0
C175 C 0.51746 0.26588 0.36233 0.0
C176 C 0.53896 0.19567 0.36416 0.0
C177 C 0.49444 0.1872 0.34698 0.0
C178 C 0.50846 0.23847 0.36236 0.0
C179 C 0.45683 0.20474 0.34014 0.0
C180 C 0.47989 0.28294 0.37244 0.0
C181 C 0.5682 0.29966 0.33885 0.0
N182 N 0.4647 0.22962 0.34777 0.0
N183 N 0.56067 0.27477 0.3466 0.0
H184 H 0.33375 0.11276 0.36308 0.0
H185 H 0.18653 0.11379 0.14159 0.0
H186 H 0.40299 0.11136 0.23916 0.0
H187 H 0.11688 0.11364 0.26535 0.0
H188 H 0.26645 0.11698 0.17681 0.0
H189 H 0.2539 0.11707 0.32798 0.0
C190 C 0.33216 0.11352 0.32854 0.0
C191 C 0.37493 0.11146 0.30398 0.0
C192 C 0.23364 0.11641 0.19624 0.0
C193 C 0.284 0.11632 0.26363 0.0
C194 C 0.18806 0.11461 0.17613 0.0
C195 C 0.14513 0.11319 0.2006 0.0
C196 C 0.23619 0.11673 0.24111 0.0
C197 C 0.14912 0.11446 0.24525 0.0
C198 C 0.28663 0.11597 0.3085 0.0
C199 C 0.37087 0.11268 0.25935 0.0
N200 N 0.19385 0.11599 0.26407 0.0
N201 N 0.32622 0.11487 0.24062 0.0
H202 H 0.61693 0.3935 0.23788 0.0
H203 H 0.90768 0.39614 0.26581 0.0
H204 H 0.68923 0.39576 0.36042 0.0
H205 H 0.83513 0.39642 0.14331 0.0
H206 H 0.82835 0.39239 0.30086 0.0
H207 H 0.69647 0.39086 0.20296 0.0
C208 C 0.64961 0.3933 0.25752 0.0
C209 C 0.64652 0.39505 0.30216 0.0
C210 C 0.82968 0.39314 0.26633 0.0
C211 C 0.7379 0.39215 0.2622 0.0
C212 C 0.875 0.39529 0.24622 0.0
C213 C 0.87793 0.39678 0.20154 0.0
C214 C 0.78682 0.39255 0.24164 0.0
C215 C 0.83445 0.39545 0.17784 0.0
C216 C 0.69506 0.3918 0.23748 0.0
C217 C 0.69003 0.39456 0.32592 0.0
N218 N 0.79057 0.39356 0.19823 0.0
N219 N 0.73404 0.39332 0.3056 0.0
H220 H 0.11644 0.89846 0.73401 0.0
H221 H 0.40641 0.88771 0.76273 0.0
H222 H 0.18754 0.8878 0.85578 0.0
H223 H 0.33583 0.89708 0.64045 0.0
H224 H 0.32626 0.88422 0.79647 0.0
H225 H 0.19573 0.89472 0.6986 0.0
C226 C 0.14875 0.89514 0.75331 0.0
C227 C 0.1455 0.89362 0.79796 0.0
C228 C 0.32817 0.88689 0.76224 0.0
C229 C 0.23649 0.88938 0.75755 0.0
C230 C 0.37398 0.88889 0.7429 0.0
C231 C 0.37773 0.89291 0.69875 0.0
C232 C 0.28565 0.88911 0.73732 0.0
C233 C 0.33451 0.89408 0.67462 0.0
C234 C 0.19403 0.893 0.73302 0.0
C235 C 0.18848 0.88923 0.82131 0.0
N236 N 0.29017 0.89242 0.6943 0.0
N237 N 0.23229 0.88741 0.80082 0.0
H238 H 0.69012 0.60823 0.63768 0.0
H239 H 0.83601 0.61085 0.86003 0.0
H240 H 0.62023 0.60994 0.76133 0.0
H241 H 0.90648 0.6057 0.73692 0.0
H242 H 0.75653 0.61385 0.82407 0.0
H243 H 0.77016 0.6107 0.67307 0.0
C244 C 0.69163 0.60928 0.6722 0.0
C245 C 0.64859 0.6087 0.69662 0.0
C246 C 0.78943 0.61216 0.80492 0.0
C247 C 0.73964 0.61146 0.73727 0.0
C248 C 0.83475 0.61045 0.82546 0.0
C249 C 0.87777 0.60785 0.80142 0.0
C250 C 0.78724 0.61125 0.76006 0.0
C251 C 0.87414 0.60755 0.7567 0.0
C252 C 0.73725 0.61065 0.69241 0.0
C253 C 0.65253 0.61018 0.74125 0.0
N254 N 0.82966 0.60912 0.73747 0.0
N255 N 0.69722 0.61138 0.76012 0.0
H256 H 0.6576 0.91628 0.66381 0.0
H257 H 0.86407 0.91161 0.84466 0.0
H258 H 0.62808 0.90246 0.79733 0.0
H259 H 0.89424 0.91971 0.70995 0.0
H260 H 0.7765 0.91565 0.82945 0.0
H261 H 0.7433 0.92449 0.68167 0.0
C262 C 0.66896 0.91512 0.69689 0.0
C263 C 0.63561 0.90825 0.72899 0.0
C264 C 0.80238 0.91682 0.8033 0.0
C265 C 0.73373 0.91765 0.74964 0.0
C266 C 0.85243 0.91461 0.81199 0.0
C267 C 0.88657 0.91481 0.77845 0.0
C268 C 0.78644 0.91924 0.76081 0.0
C269 C 0.86926 0.91894 0.73677 0.0
C270 C 0.71793 0.91985 0.70708 0.0
C271 C 0.6525 0.90733 0.77137 0.0
N272 N 0.82042 0.9207 0.7291 0.0
N273 N 0.70041 0.91175 0.78038 0.0
H274 H 0.36613 0.59444 0.66035 0.0
H275 H 0.16139 0.59952 0.84326 0.0
H276 H 0.3982 0.60426 0.79445 0.0
H277 H 0.12949 0.59675 0.70819 0.0
H278 H 0.24863 0.59513 0.82679 0.0
H279 H 0.27955 0.58918 0.67822 0.0
C280 C 0.35512 0.59532 0.69355 0.0
C281 C 0.38953 0.60018 0.72585 0.0
C282 C 0.22243 0.59531 0.80081 0.0
C283 C 0.29043 0.5942 0.74651 0.0
C284 C 0.1726 0.59778 0.8102 0.0
C285 C 0.13803 0.59891 0.77705 0.0
C286 C 0.23775 0.59393 0.75801 0.0
C287 C 0.15478 0.59637 0.73482 0.0
C288 C 0.30564 0.59233 0.70374 0.0
C289 C 0.37301 0.6009 0.76836 0.0
N290 N 0.2034 0.59419 0.72653 0.0
N291 N 0.32465 0.59814 0.7774 0.0
H292 H 0.65694 0.09376 0.34253 0.0
H293 H 0.86327 0.09473 0.16089 0.0
H294 H 0.62622 0.09958 0.20755 0.0
H295 H 0.89363 0.101 0.29588 0.0
H296 H 0.7765 0.08867 0.17754 0.0
H297 H 0.74389 0.08854 0.32583 0.0
C298 C 0.66831 0.0937 0.30938 0.0
C299 C 0.63422 0.09756 0.27644 0.0
C300 C 0.80228 0.09118 0.20349 0.0
C301 C 0.73369 0.09163 0.25717 0.0
C302 C 0.85186 0.0946 0.19403 0.0
C303 C 0.88578 0.09882 0.22699 0.0
C304 C 0.78652 0.09191 0.2462 0.0
C305 C 0.86878 0.09824 0.26934 0.0
C306 C 0.718 0.09077 0.29989 0.0
C307 C 0.65119 0.09708 0.23407 0.0
N308 N 0.82034 0.09507 0.27769 0.0
N309 N 0.69973 0.0944 0.2257 0.0
H310 H 0.12614 0.40805 0.29653 0.0
H311 H 0.39862 0.40545 0.20593 0.0
H312 H 0.16109 0.40876 0.16199 0.0
H313 H 0.36373 0.40863 0.34041 0.0
H314 H 0.31221 0.41123 0.18925 0.0
H315 H 0.21283 0.4129 0.31299 0.0
C316 C 0.15199 0.40938 0.27037 0.0
C317 C 0.1363 0.40757 0.22776 0.0
C318 C 0.32345 0.41088 0.22241 0.0
C319 C 0.2359 0.41306 0.24655 0.0
C320 C 0.37286 0.40751 0.23203 0.0
C321 C 0.38847 0.40614 0.27471 0.0
C322 C 0.28918 0.41272 0.25565 0.0
C323 C 0.35339 0.40932 0.30706 0.0
C324 C 0.20156 0.41222 0.27986 0.0
C325 C 0.17149 0.40983 0.19529 0.0
N326 N 0.30529 0.41218 0.29684 0.0
N327 N 0.21974 0.41216 0.20539 0.0
H328 H 0.00805 0.02352 0.12544 0.0
H329 H 0.00606 0.98234 0.88125 0.0
H330 H 0.98446 0.07573 0.02189 0.0
H331 H 0.99384 0.92878 0.98429 0.0
H332 H -0.00203 0.01665 0.93249 0.0
H333 H 0.0025 0.98856 0.07488 0.0
C334 C 0.00135 0.02763 0.09207 0.0
C335 C -0.00296 0.05261 0.07779 0.0
C336 C -0.00333 0.99743 0.94397 0.0
C337 C 0.99102 0.01263 0.01968 0.0
C338 C 0.00148 0.97779 0.91473 0.0
C339 C 0.00097 0.95265 0.92858 0.0
C340 C 0.99198 0.99199 0.98761 0.0
C341 C 0.99449 0.94789 0.97229 0.0
C342 C -0.00193 0.00764 0.06325 0.0
C343 C 0.98812 0.05679 0.03427 0.0
N344 N 0.99077 0.96742 1.00036 0.0
N345 N 0.9859 0.03701 0.00668 0.0
H346 H 0.03565 0.58007 0.98549 0.0
H347 H 0.04381 0.43043 0.02188 0.0
H348 H 0.03031 0.5253 0.88375 0.0
H349 H 0.01858 0.48405 0.12316 0.0
H350 H 0.05251 0.46545 0.97156 0.0
H351 H 0.04307 0.5455 0.03721 0.0
C352 C 0.03665 0.56082 0.97402 0.0
C353 C 0.03191 0.55553 0.93033 0.0
C354 C 0.04539 0.46955 0.00486 0.0
C355 C 0.04033 0.516 0.98907 0.0
C356 C 0.04055 0.44956 0.0336 0.0
C357 C 0.03002 0.45432 0.07669 0.0
C358 C 0.03992 0.49448 0.01936 0.0
C359 C 0.02627 0.4795 0.09013 0.0
C360 C 0.04067 0.54111 0.00351 0.0
C361 C 0.03337 0.53024 0.91718 0.0
N362 N 0.03099 0.49862 0.06156 0.0
N363 N 0.03724 0.51146 0.94639 0.0
H364 H 0.48311 0.4277 0.48218 0.0
H365 H 0.48421 0.57734 0.51779 0.0
H366 H 0.50254 0.48162 0.38049 0.0
H367 H 0.5008 0.5233 0.61966 0.0
H368 H 0.47613 0.54246 0.46692 0.0
H369 H 0.47487 0.46262 0.53291 0.0
C370 C 0.48515 0.44686 0.47047 0.0
C371 C 0.49398 0.45177 0.42714 0.0
C372 C 0.48117 0.53827 0.50048 0.0
C373 C 0.48454 0.49175 0.48485 0.0
C374 C 0.4856 0.55816 0.52951 0.0
C375 C 0.49364 0.55319 0.57293 0.0
C376 C 0.48443 0.51328 0.51508 0.0
C377 C 0.49512 0.52798 0.58639 0.0
C378 C 0.48059 0.46678 0.49942 0.0
C379 C 0.49623 0.47698 0.41369 0.0
N380 N 0.49077 0.50898 0.55757 0.0
N381 N 0.49174 0.49601 0.44244 0.0
H382 H 0.52064 0.98203 0.62431 0.0
H383 H 0.51791 0.02265 0.38008 0.0
H384 H 0.53889 0.92904 0.52101 0.0
H385 H 0.53646 0.07589 0.48299 0.0
H386 H 0.52639 0.98815 0.43105 0.0
H387 H 0.5274 0.01665 0.57331 0.0
C388 C 0.52642 0.97768 0.59089 0.0
C389 C 0.52884 0.95261 0.57681 0.0
C390 C 0.52907 0.00736 0.44249 0.0
C391 C 0.53618 0.99219 0.51818 0.0
C392 C 0.52408 0.02708 0.41342 0.0
C393 C 0.52614 0.05218 0.42739 0.0
C394 C 0.53553 0.01272 0.48601 0.0
C395 C 0.53453 0.05681 0.47089 0.0
C396 C 0.5304 0.99747 0.5618 0.0
C397 C 0.5367 0.94809 0.5332 0.0
N398 N 0.53839 0.03725 0.49876 0.0
N399 N 0.53954 0.96769 0.50534 0.0
loop_
_geom_bond_atom_site_label_1
_geom_bond_atom_site_label_2
_geom_bond_distance
_geom_bond_site_symmetry_2
_ccdc_geom_bond_type
Co0 O1 2.216 . S
Co0 O2 2.091 . S
Co0 O4 2.004 . S
Co0 O10 2.021 1_455 S
Co0 O12 2.137 . S
Co0 O13 2.244 . S
O1 Co0 2.216 . S
O1 C8 1.247 . S
O2 Co0 2.091 . S
O2 C8 1.261 . S
C3 O12 1.247 . S
C3 O13 1.272 . S
O4 Co0 2.004 . S
O4 C9 1.259 . S
Co5 O6 2.061 . S
Co5 O11 2.052 1_455 S
Co5 O13 2.135 . S
O6 Co5 2.061 . S
O6 C9 1.235 . S
C7 O10 1.238 . S
C7 O11 1.241 . S
C8 O1 1.247 . S
C8 O2 1.261 . S
C9 O4 1.259 . S
C9 O6 1.235 . S
O10 Co0 2.021 1_655 S
O10 C7 1.238 . S
O11 Co5 2.052 1_655 S
O11 C7 1.241 . S
O12 Co0 2.137 . S
O12 C3 1.247 . S
O13 Co0 2.244 . S
O13 C3 1.272 . S
O13 Co5 2.135 . S
Co14 O15 2.216 . S
Co14 O16 2.091 . S
Co14 O18 2.004 . S
Co14 O24 2.021 . S
Co14 O26 2.137 1_455 S
Co14 O27 2.244 1_455 S
O15 Co14 2.216 . S
O15 C22 1.247 . S
O16 Co14 2.091 . S
O16 C22 1.261 . S
C17 O26 1.247 . S
C17 O27 1.272 . S
O18 Co14 2.004 . S
O18 C23 1.259 . S
Co19 O20 2.061 . S
Co19 O25 2.052 . S
Co19 O27 2.135 1_455 S
O20 Co19 2.061 . S
O20 C23 1.235 . S
C21 O24 1.238 . S
C21 O25 1.241 . S
C22 O15 1.247 . S
C22 O16 1.261 . S
C23 O18 1.259 . S
C23 O20 1.235 . S
O24 Co14 2.021 . S
O24 C21 1.238 . S
O25 Co19 2.052 . S
O25 C21 1.241 . S
O26 Co14 2.137 1_655 S
O26 C17 1.247 . S
O27 Co14 2.244 1_655 S
O27 C17 1.272 . S
O27 Co19 2.135 1_655 S
Co28 O29 2.216 . S
Co28 O30 2.091 . S
Co28 O32 2.004 . S
Co28 O38 2.021 1_455 S
Co28 O40 2.137 . S
Co28 O41 2.244 . S
O29 Co28 2.216 . S
O29 C36 1.247 . S
O30 Co28 2.091 . S
O30 C36 1.261 . S
C31 O40 1.247 . S
C31 O41 1.272 . S
O32 Co28 2.004 . S
O32 C37 1.259 . S
Co33 O34 2.061 . S
Co33 O39 2.052 1_455 S
Co33 O41 2.135 . S
O34 Co33 2.061 . S
O34 C37 1.235 . S
C35 O38 1.238 . S
C35 O39 1.241 . S
C36 O29 1.247 . S
C36 O30 1.261 . S
C37 O32 1.259 . S
C37 O34 1.235 . S
O38 Co28 2.021 1_655 S
O38 C35 1.238 . S
O39 Co33 2.052 1_655 S
O39 C35 1.241 . S
O40 Co28 2.137 . S
O40 C31 1.247 . S
O41 Co28 2.244 . S
O41 C31 1.272 . S
O41 Co33 2.135 . S
Co42 O43 2.216 . S
Co42 O44 2.091 . S
Co42 O46 2.004 . S
Co42 O52 2.021 . S
Co42 O54 2.137 1_455 S
Co42 O55 2.244 1_455 S
O43 Co42 2.216 . S
O43 C50 1.247 . S
O44 Co42 2.091 . S
O44 C50 1.261 . S
C45 O54 1.247 . S
C45 O55 1.272 . S
O46 Co42 2.004 . S
O46 C51 1.259 . S
Co47 O48 2.061 . S
Co47 O53 2.052 . S
Co47 O55 2.135 1_455 S
O48 Co47 2.061 . S
O48 C51 1.235 . S
C49 O52 1.238 . S
C49 O53 1.241 . S
C50 O43 1.247 . S
C50 O44 1.261 . S
C51 O46 1.259 . S
C51 O48 1.235 . S
O52 Co42 2.021 . S
O52 C49 1.238 . S
O53 Co47 2.052 . S
O53 C49 1.241 . S
O54 Co42 2.137 1_655 S
O54 C45 1.247 . S
O55 Co42 2.244 1_655 S
O55 C45 1.272 . S
O55 Co47 2.135 1_655 S
Co56 O57 2.216 . S
Co56 O58 2.091 . S
Co56 O60 2.004 . S
Co56 O66 2.021 . S
Co56 O68 2.137 . S
Co56 O69 2.244 . S
O57 Co56 2.216 . S
O57 C64 1.247 . S
O58 Co56 2.091 . S
O58 C64 1.261 . S
C59 O68 1.247 . S
C59 O69 1.272 . S
O60 Co56 2.004 . S
O60 C65 1.259 . S
Co61 O62 2.061 . S
Co61 O67 2.052 . S
Co61 O69 2.135 . S
O62 Co61 2.061 . S
O62 C65 1.235 . S
C63 O66 1.238 . S
C63 O67 1.241 . S
C64 O57 1.247 . S
C64 O58 1.261 . S
C65 O60 1.259 . S
C65 O62 1.235 . S
O66 Co56 2.021 . S
O66 C63 1.238 . S
O67 Co61 2.052 . S
O67 C63 1.241 . S
O68 Co56 2.137 . S
O68 C59 1.247 . S
O69 Co56 2.244 . S
O69 C59 1.272 . S
O69 Co61 2.135 . S
Co70 O71 2.216 . S
Co70 O72 2.091 . S
Co70 O74 2.004 . S
Co70 O80 2.021 . S
Co70 O82 2.137 . S
Co70 O83 2.244 . S
O71 Co70 2.216 . S
O71 C78 1.247 . S
O72 Co70 2.091 . S
O72 C78 1.261 . S
C73 O82 1.247 . S
C73 O83 1.272 . S
O74 Co70 2.004 . S
O74 C79 1.259 . S
Co75 O76 2.061 . S
Co75 O81 2.052 . S
Co75 O83 2.135 . S
O76 Co75 2.061 . S
O76 C79 1.235 . S
C77 O80 1.238 . S
C77 O81 1.241 . S
C78 O71 1.247 . S
C78 O72 1.261 . S
C79 O74 1.259 . S
C79 O76 1.235 . S
O80 Co70 2.021 . S
O80 C77 1.238 . S
O81 Co75 2.052 . S
O81 C77 1.241 . S
O82 Co70 2.137 . S
O82 C73 1.247 . S
O83 Co70 2.244 . S
O83 C73 1.272 . S
O83 Co75 2.135 . S
Co84 O85 2.216 . S
Co84 O86 2.091 . S
Co84 O88 2.004 . S
Co84 O94 2.021 . S
Co84 O96 2.137 . S
Co84 O97 2.244 . S
O85 Co84 2.216 . S
O85 C92 1.247 . S
O86 Co84 2.091 . S
O86 C92 1.261 . S
C87 O96 1.247 . S
C87 O97 1.272 . S
O88 Co84 2.004 . S
O88 C93 1.259 . S
Co89 O90 2.061 . S
Co89 O95 2.052 . S
Co89 O97 2.135 . S
O90 Co89 2.061 . S
O90 C93 1.235 . S
C91 O94 1.238 . S
C91 O95 1.241 . S
C92 O85 1.247 . S
C92 O86 1.261 . S
C93 O88 1.259 . S
C93 O90 1.235 . S
O94 Co84 2.021 . S
O94 C91 1.238 . S
O95 Co89 2.052 . S
O95 C91 1.241 . S
O96 Co84 2.137 . S
O96 C87 1.247 . S
O97 Co84 2.244 . S
O97 C87 1.272 . S
O97 Co89 2.135 . S
Co98 O99 2.216 . S
Co98 O100 2.091 . S
Co98 O102 2.004 . S
Co98 O108 2.021 . S
Co98 O110 2.137 . S
Co98 O111 2.244 . S
O99 Co98 2.216 . S
O99 C106 1.247 . S
O100 Co98 2.091 . S
O100 C106 1.261 . S
C101 O110 1.247 . S
C101 O111 1.272 . S
O102 Co98 2.004 . S
O102 C107 1.259 . S
Co103 O104 2.061 . S
Co103 O109 2.052 . S
Co103 O111 2.135 . S
O104 Co103 2.061 . S
O104 C107 1.235 . S
C105 O108 1.238 . S
C105 O109 1.241 . S
C106 O99 1.247 . S
C106 O100 1.261 . S
C107 O102 1.259 . S
C107 O104 1.235 . S
O108 Co98 2.021 . S
O108 C105 1.238 . S
O109 Co103 2.052 . S
O109 C105 1.241 . S
O110 Co98 2.137 . S
O110 C101 1.247 . S
O111 Co98 2.244 . S
O111 C101 1.272 . S
O111 Co103 2.135 . S
H112 C118 0.930 . S
H113 C122 0.930 . S
H114 C127 0.929 . S
H115 C125 0.929 . S
H116 C120 0.929 . S
H117 C126 0.929 . S
C118 H112 0.930 . S
C118 C119 1.367 . S
C118 C126 1.378 . S
C119 C118 1.367 . S
C119 C127 1.433 1_455 S
C120 H116 0.929 . S
C120 C122 1.378 . S
C120 C124 1.350 1_655 S
C121 C124 1.463 . S
C121 C126 1.350 . S
C121 N129 1.427 1_455 S
C122 H113 0.930 . S
C122 C120 1.378 . S
C122 C123 1.367 1_655 S
C123 C122 1.367 1_455 S
C123 C125 1.433 . S
C124 C120 1.350 1_455 S
C124 C121 1.463 . S
C124 N128 1.427 . S
C125 H115 0.929 . S
C125 C123 1.433 . S
C125 N128 1.384 . S
C126 H117 0.929 . S
C126 C118 1.378 . S
C126 C121 1.350 . S
C127 H114 0.929 . S
C127 C119 1.433 1_655 S
C127 N129 1.384 . S
N128 C124 1.427 . S
N128 C125 1.384 . S
N129 C121 1.427 1_655 S
N129 C127 1.384 . S
H130 C136 0.930 . S
H131 C140 0.930 . S
H132 C145 0.929 . S
H133 C143 0.929 . S
H134 C138 0.929 . S
H135 C144 0.929 . S
C136 H130 0.930 . S
C136 C137 1.367 . S
C136 C144 1.378 . S
C137 C136 1.367 . S
C137 C145 1.433 . S
C138 H134 0.929 . S
C138 C140 1.378 . S
C138 C142 1.350 . S
C139 C142 1.463 . S
C139 C144 1.350 . S
C139 N147 1.427 . S
C140 H131 0.930 . S
C140 C138 1.378 . S
C140 C141 1.367 . S
C141 C140 1.367 . S
C141 C143 1.433 . S
C142 C138 1.350 . S
C142 C139 1.463 . S
C142 N146 1.427 . S
C143 H133 0.929 . S
C143 C141 1.433 . S
C143 N146 1.384 . S
C144 H135 0.929 . S
C144 C136 1.378 . S
C144 C139 1.350 . S
C145 H132 0.929 . S
C145 C137 1.433 . S
C145 N147 1.384 . S
N146 C142 1.427 . S
N146 C143 1.384 . S
N147 C139 1.427 . S
N147 C145 1.384 . S
H148 C154 0.930 . S
H149 C158 0.930 . S
H150 C163 0.929 . S
H151 C161 0.929 . S
H152 C156 0.929 . S
H153 C162 0.929 . S
C154 H148 0.930 . S
C154 C155 1.367 . S
C154 C162 1.378 . S
C155 C154 1.367 . S
C155 C163 1.433 . S
C156 H152 0.929 . S
C156 C158 1.378 . S
C156 C160 1.350 . S
C157 C160 1.463 . S
C157 C162 1.350 . S
C157 N165 1.427 . S
C158 H149 0.930 . S
C158 C156 1.378 . S
C158 C159 1.367 . S
C159 C158 1.367 . S
C159 C161 1.433 . S
C160 C156 1.350 . S
C160 C157 1.463 . S
C160 N164 1.427 . S
C161 H151 0.929 . S
C161 C159 1.433 . S
C161 N164 1.384 . S
C162 H153 0.929 . S
C162 C154 1.378 . S
C162 C157 1.350 . S
C163 H150 0.929 . S
C163 C155 1.433 . S
C163 N165 1.384 . S
N164 C160 1.427 . S
N164 C161 1.384 . S
N165 C157 1.427 . S
N165 C163 1.384 . S
H166 C172 0.930 . S
H167 C176 0.930 . S
H168 C181 0.929 . S
H169 C179 0.929 . S
H170 C174 0.929 . S
H171 C180 0.929 . S
C172 H166 0.930 . S
C172 C173 1.367 . S
C172 C180 1.378 . S
C173 C172 1.367 . S
C173 C181 1.433 . S
C174 H170 0.929 . S
C174 C176 1.378 . S
C174 C178 1.350 . S
C175 C178 1.463 . S
C175 C180 1.350 . S
C175 N183 1.427 . S
C176 H167 0.930 . S
C176 C174 1.378 . S
C176 C177 1.367 . S
C177 C176 1.367 . S
C177 C179 1.433 . S
C178 C174 1.350 . S
C178 C175 1.463 . S
C178 N182 1.427 . S
C179 H169 0.929 . S
C179 C177 1.433 . S
C179 N182 1.384 . S
C180 H171 0.929 . S
C180 C172 1.378 . S
C180 C175 1.350 . S
C181 H168 0.929 . S
C181 C173 1.433 . S
C181 N183 1.384 . S
N182 C178 1.427 . S
N182 C179 1.384 . S
N183 C175 1.427 . S
N183 C181 1.384 . S
H184 C190 0.930 . S
H185 C194 0.930 . S
H186 C199 0.929 . S
H187 C197 0.929 . S
H188 C192 0.929 . S
H189 C198 0.929 . S
C190 H184 0.930 . S
C190 C191 1.367 . S
C190 C198 1.378 . S
C191 C190 1.367 . S
C191 C199 1.433 . S
C192 H188 0.929 . S
C192 C194 1.378 . S
C192 C196 1.350 . S
C193 C196 1.463 . S
C193 C198 1.350 . S
C193 N201 1.427 . S
C194 H185 0.930 . S
C194 C192 1.378 . S
C194 C195 1.367 . S
C195 C194 1.367 . S
C195 C197 1.433 . S
C196 C192 1.350 . S
C196 C193 1.463 . S
C196 N200 1.427 . S
C197 H187 0.929 . S
C197 C195 1.433 . S
C197 N200 1.384 . S
C198 H189 0.929 . S
C198 C190 1.378 . S
C198 C193 1.350 . S
C199 H186 0.929 . S
C199 C191 1.433 . S
C199 N201 1.384 . S
N200 C196 1.427 . S
N200 C197 1.384 . S
N201 C193 1.427 . S
N201 C199 1.384 . S
H202 C208 0.930 . S
H203 C212 0.930 . S
H204 C217 0.929 . S
H205 C215 0.929 . S
H206 C210 0.929 . S
H207 C216 0.929 . S
C208 H202 0.930 . S
C208 C209 1.367 . S
C208 C216 1.378 . S
C209 C208 1.367 . S
C209 C217 1.433 . S
C210 H206 0.929 . S
C210 C212 1.378 . S
C210 C214 1.350 . S
C211 C214 1.463 . S
C211 C216 1.350 . S
C211 N219 1.427 . S
C212 H203 0.930 . S
C212 C210 1.378 . S
C212 C213 1.367 . S
C213 C212 1.367 . S
C213 C215 1.433 . S
C214 C210 1.350 . S
C214 C211 1.463 . S
C214 N218 1.427 . S
C215 H205 0.929 . S
C215 C213 1.433 . S
C215 N218 1.384 . S
C216 H207 0.929 . S
C216 C208 1.378 . S
C216 C211 1.350 . S
C217 H204 0.929 . S
C217 C209 1.433 . S
C217 N219 1.384 . S
N218 C214 1.427 . S
N218 C215 1.384 . S
N219 C211 1.427 . S
N219 C217 1.384 . S
H220 C226 0.930 . S
H221 C230 0.930 . S
H222 C235 0.929 . S
H223 C233 0.929 . S
H224 C228 0.929 . S
H225 C234 0.929 . S
C226 H220 0.930 . S
C226 C227 1.367 . S
C226 C234 1.378 . S
C227 C226 1.367 . S
C227 C235 1.433 . S
C228 H224 0.929 . S
C228 C230 1.378 . S
C228 C232 1.350 . S
C229 C232 1.463 . S
C229 C234 1.350 . S
C229 N237 1.427 . S
C230 H221 0.930 . S
C230 C228 1.378 . S
C230 C231 1.367 . S
C231 C230 1.367 . S
C231 C233 1.433 . S
C232 C228 1.350 . S
C232 C229 1.463 . S
C232 N236 1.427 . S
C233 H223 0.929 . S
C233 C231 1.433 . S
C233 N236 1.384 . S
C234 H225 0.929 . S
C234 C226 1.378 . S
C234 C229 1.350 . S
C235 H222 0.929 . S
C235 C227 1.433 . S
C235 N237 1.384 . S
N236 C232 1.427 . S
N236 C233 1.384 . S
N237 C229 1.427 . S
N237 C235 1.384 . S
H238 C244 0.930 . S
H239 C248 0.930 . S
H240 C253 0.929 . S
H241 C251 0.929 . S
H242 C246 0.929 . S
H243 C252 0.929 . S
C244 H238 0.930 . S
C244 C245 1.367 . S
C244 C252 1.378 . S
C245 C244 1.367 . S
C245 C253 1.433 . S
C246 H242 0.929 . S
C246 C248 1.378 . S
C246 C250 1.350 . S
C247 C250 1.463 . S
C247 C252 1.350 . S
C247 N255 1.427 . S
C248 H239 0.930 . S
C248 C246 1.378 . S
C248 C249 1.367 . S
C249 C248 1.367 . S
C249 C251 1.433 . S
C250 C246 1.350 . S
C250 C247 1.463 . S
C250 N254 1.427 . S
C251 H241 0.929 . S
C251 C249 1.433 . S
C251 N254 1.384 . S
C252 H243 0.929 . S
C252 C244 1.378 . S
C252 C247 1.350 . S
C253 H240 0.929 . S
C253 C245 1.433 . S
C253 N255 1.384 . S
N254 C250 1.427 . S
N254 C251 1.384 . S
N255 C247 1.427 . S
N255 C253 1.384 . S
H256 C262 0.930 . S
H257 C266 0.930 . S
H258 C271 0.929 . S
H259 C269 0.929 . S
H260 C264 0.929 . S
H261 C270 0.929 . S
C262 H256 0.930 . S
C262 C263 1.367 . S
C262 C270 1.378 . S
C263 C262 1.367 . S
C263 C271 1.433 . S
C264 H260 0.929 . S
C264 C266 1.378 . S
C264 C268 1.350 . S
C265 C268 1.463 . S
C265 C270 1.350 . S
C265 N273 1.427 . S
C266 H257 0.930 . S
C266 C264 1.378 . S
C266 C267 1.367 . S
C267 C266 1.367 . S
C267 C269 1.433 . S
C268 C264 1.350 . S
C268 C265 1.463 . S
C268 N272 1.427 . S
C269 H259 0.929 . S
C269 C267 1.433 . S
C269 N272 1.384 . S
C270 H261 0.929 . S
C270 C262 1.378 . S
C270 C265 1.350 . S
C271 H258 0.929 . S
C271 C263 1.433 . S
C271 N273 1.384 . S
N272 C268 1.427 . S
N272 C269 1.384 . S
N273 C265 1.427 . S
N273 C271 1.384 . S
H274 C280 0.930 . S
H275 C284 0.930 . S
H276 C289 0.929 . S
H277 C287 0.929 . S
H278 C282 0.929 . S
H279 C288 0.929 . S
C280 H274 0.930 . S
C280 C281 1.367 . S
C280 C288 1.378 . S
C281 C280 1.367 . S
C281 C289 1.433 . S
C282 H278 0.929 . S
C282 C284 1.378 . S
C282 C286 1.350 . S
C283 C286 1.463 . S
C283 C288 1.350 . S
C283 N291 1.427 . S
C284 H275 0.930 . S
C284 C282 1.378 . S
C284 C285 1.367 . S
C285 C284 1.367 . S
C285 C287 1.433 . S
C286 C282 1.350 . S
C286 C283 1.463 . S
C286 N290 1.427 . S
C287 H277 0.929 . S
C287 C285 1.433 . S
C287 N290 1.384 . S
C288 H279 0.929 . S
C288 C280 1.378 . S
C288 C283 1.350 . S
C289 H276 0.929 . S
C289 C281 1.433 . S
C289 N291 1.384 . S
N290 C286 1.427 . S
N290 C287 1.384 . S
N291 C283 1.427 . S
N291 C289 1.384 . S
H292 C298 0.930 . S
H293 C302 0.930 . S
H294 C307 0.929 . S
H295 C305 0.929 . S
H296 C300 0.929 . S
H297 C306 0.929 . S
C298 H292 0.930 . S
C298 C299 1.367 . S
C298 C306 1.378 . S
C299 C298 1.367 . S
C299 C307 1.433 . S
C300 H296 0.929 . S
C300 C302 1.378 . S
C300 C304 1.350 . S
C301 C304 1.463 . S
C301 C306 1.350 . S
C301 N309 1.427 . S
C302 H293 0.930 . S
C302 C300 1.378 . S
C302 C303 1.367 . S
C303 C302 1.367 . S
C303 C305 1.433 . S
C304 C300 1.350 . S
C304 C301 1.463 . S
C304 N308 1.427 . S
C305 H295 0.929 . S
C305 C303 1.433 . S
C305 N308 1.384 . S
C306 H297 0.929 . S
C306 C298 1.378 . S
C306 C301 1.350 . S
C307 H294 0.929 . S
C307 C299 1.433 . S
C307 N309 1.384 . S
N308 C304 1.427 . S
N308 C305 1.384 . S
N309 C301 1.427 . S
N309 C307 1.384 . S
H310 C316 0.930 . S
H311 C320 0.930 . S
H312 C325 0.929 . S
H313 C323 0.929 . S
H314 C318 0.929 . S
H315 C324 0.929 . S
C316 H310 0.930 . S
C316 C317 1.367 . S
C316 C324 1.378 . S
C317 C316 1.367 . S
C317 C325 1.433 . S
C318 H314 0.929 . S
C318 C320 1.378 . S
C318 C322 1.350 . S
C319 C322 1.463 . S
C319 C324 1.350 . S
C319 N327 1.427 . S
C320 H311 0.930 . S
C320 C318 1.378 . S
C320 C321 1.367 . S
C321 C320 1.367 . S
C321 C323 1.433 . S
C322 C318 1.350 . S
C322 C319 1.463 . S
C322 N326 1.427 . S
C323 H313 0.929 . S
C323 C321 1.433 . S
C323 N326 1.384 . S
C324 H315 0.929 . S
C324 C316 1.378 . S
C324 C319 1.350 . S
C325 H312 0.929 . S
C325 C317 1.433 . S
C325 N327 1.384 . S
N326 C322 1.427 . S
N326 C323 1.384 . S
N327 C319 1.427 . S
N327 C325 1.384 . S
H328 C334 0.930 1_655 S
H329 C338 0.930 . S
H330 C343 0.929 . S
H331 C341 0.929 1_655 S
H332 C336 0.929 1_545 S
H333 C342 0.929 1_665 S
C334 H328 0.930 1_455 S
C334 C335 1.367 . S
C334 C342 1.378 . S
C335 C334 1.367 . S
C335 C343 1.433 . S
C336 H332 0.929 1_565 S
C336 C338 1.378 . S
C336 C340 1.350 . S
C337 C340 1.463 1_544 S
C337 C342 1.350 . S
C337 N345 1.427 1_554 S
C338 H329 0.930 . S
C338 C336 1.378 . S
C338 C339 1.367 . S
C339 C338 1.367 . S
C339 C341 1.433 . S
C340 C336 1.350 . S
C340 C337 1.463 1_566 S
C340 N344 1.427 1_556 S
C341 H331 0.929 1_455 S
C341 C339 1.433 . S
C341 N344 1.383 1_556 S
C342 H333 0.929 1_445 S
C342 C334 1.378 . S
C342 C337 1.350 . S
C343 H330 0.929 . S
C343 C335 1.433 . S
C343 N345 1.383 1_554 S
N344 C340 1.427 1_554 S
N344 C341 1.383 1_554 S
N345 C337 1.427 1_556 S
N345 C343 1.383 1_556 S
H346 C352 0.926 1_655 S
H347 C356 0.930 . S
H348 C361 0.929 . S
H349 C359 0.928 1_655 S
H350 C354 0.929 1_556 S
H351 C360 0.924 1_654 S
C352 H346 0.926 1_455 S
C352 C353 1.371 . S
C352 C360 1.378 . S
C353 C352 1.371 . S
C353 C361 1.433 . S
C354 H350 0.929 1_554 S
C354 C356 1.378 . S
C354 C358 1.350 . S
C355 C358 1.463 1_556 S
C355 C360 1.354 . S
C355 N363 1.427 . S
C356 H347 0.930 . S
C356 C354 1.378 . S
C356 C357 1.367 . S
C357 C356 1.367 . S
C357 C359 1.434 . S
C358 C354 1.350 . S
C358 C355 1.463 1_554 S
C358 N362 1.431 . S
C359 H349 0.928 1_455 S
C359 C357 1.434 . S
C359 N362 1.384 . S
C360 H351 0.924 1_456 S
C360 C352 1.378 . S
C360 C355 1.354 . S
C361 H348 0.929 . S
C361 C353 1.433 . S
C361 N363 1.384 . S
N362 C358 1.431 . S
N362 C359 1.384 . S
N363 C355 1.427 . S
N363 C361 1.384 . S
H364 C370 0.930 . S
H365 C374 0.930 . S
H366 C379 0.929 . S
H367 C377 0.929 . S
H368 C372 0.929 . S
H369 C378 0.929 . S
C370 H364 0.930 . S
C370 C371 1.367 . S
C370 C378 1.378 . S
C371 C370 1.367 . S
C371 C379 1.433 . S
C372 H368 0.929 . S
C372 C374 1.378 . S
C372 C376 1.350 . S
C373 C376 1.463 . S
C373 C378 1.350 . S
C373 N381 1.427 . S
C374 H365 0.930 . S
C374 C372 1.378 . S
C374 C375 1.367 . S
C375 C374 1.367 . S
C375 C377 1.433 . S
C376 C372 1.350 . S
C376 C373 1.463 . S
C376 N380 1.427 . S
C377 H367 0.929 . S
C377 C375 1.433 . S
C377 N380 1.384 . S
C378 H369 0.929 . S
C378 C370 1.378 . S
C378 C373 1.350 . S
C379 H366 0.929 . S
C379 C371 1.433 . S
C379 N381 1.384 . S
N380 C376 1.427 . S
N380 C377 1.384 . S
N381 C373 1.427 . S
N381 C379 1.384 . S
H382 C388 0.930 . S
H383 C392 0.930 . S
H384 C397 0.929 . S
H385 C395 0.929 . S
H386 C390 0.929 1_565 S
H387 C396 0.929 1_545 S
C388 H382 0.930 . S
C388 C389 1.367 . S
C388 C396 1.378 . S
C389 C388 1.367 . S
C389 C397 1.433 . S
C390 H386 0.929 1_545 S
C390 C392 1.378 . S
C390 C394 1.350 . S
C391 C394 1.463 1_565 S
C391 C396 1.350 . S
C391 N399 1.427 . S
C392 H383 0.930 . S
C392 C390 1.378 . S
C392 C393 1.367 . S
C393 C392 1.367 . S
C393 C395 1.433 . S
C394 C390 1.350 . S
C394 C391 1.463 1_545 S
C394 N398 1.427 . S
C395 H385 0.929 . S
C395 C393 1.433 . S
C395 N398 1.384 . S
C396 H387 0.929 1_565 S
C396 C388 1.378 . S
C396 C391 1.350 . S
C397 H384 0.929 . S
C397 C389 1.433 . S
C397 N399 1.384 . S
N398 C394 1.427 . S
N398 C395 1.384 . S
N399 C391 1.427 . S
N399 C397 1.384 . S
C119 C23 1.419 . S
C123 C9 1.412 . S
C137 C37 1.410 . S
C141 C51 1.420 . S
C155 C65 1.412 . S
C159 C79 1.417 . S
C173 C93 1.420 . S
C177 C107 1.411 . S
C191 C101 1.437 . S
C195 C3 1.440 . S
C209 C87 1.440 . S
C213 C17 1.442 . S
C227 C31 1.441 . S
C231 C73 1.438 . S
C245 C59 1.441 . S
C249 C45 1.438 . S
C263 C77 1.365 . S
C267 C35 1.370 . S
C281 C63 1.360 . S
C285 C49 1.370 . S
C299 C105 1.371 . S
C303 C7 1.363 . S
C317 C21 1.368 . S
C321 C91 1.358 . S
C335 C8 1.373 . S
C339 C36 1.373 . S
C353 C50 1.372 . S
C357 C22 1.373 . S
C371 C92 1.371 . S
C375 C64 1.373 . S
C389 C78 1.374 . S
C393 C106 1.373 . S
