# Generated by pormake.
# Topology lcy-e, (6)-cn, num edge types: 1
# Building blocks:
#     Node 0, Type 0, BuildingBlock: CUKXOW_clean_sbu_0, # of connection points: 6
#     Node 1, Type 0, BuildingBlock: CUKXOW_clean_sbu_0, # of connection points: 6
#     Node 2, Type 0, BuildingBlock: CUKXOW_clean_sbu_0, # of connection points: 6
#     Node 3, Type 0, BuildingBlock: CUKXOW_clean_sbu_0, # of connection points: 6
#     Node 4, Type 0, BuildingBlock: CUKXOW_clean_sbu_0, # of connection points: 6
#     Node 5, Type 0, BuildingBlock: CUKXOW_clean_sbu_0, # of connection points: 6
#     Node 6, Type 0, BuildingBlock: CUKXOW_clean_sbu_0, # of connection points: 6
#     Node 7, Type 0, BuildingBlock: CUKXOW_clean_sbu_0, # of connection points: 6
#     Node 8, Type 0, BuildingBlock: CUKXOW_clean_sbu_0, # of connection points: 6
#     Node 9, Type 0, BuildingBlock: CUKXOW_clean_sbu_0, # of connection points: 6
#     Node 10, Type 0, BuildingBlock: CUKXOW_clean_sbu_0, # of connection points: 6
#     Node 11, Type 0, BuildingBlock: CUKXOW_clean_sbu_0, # of connection points: 6
#     Edge 12, Type (0, 0), BuildingBlock: ZUJKAS_clean_linker_0, # of connection points: 2
#     Edge 13, Type (0, 0), BuildingBlock: ZUJKAS_clean_linker_0, # of connection points: 2
#     Edge 14, Type (0, 0), BuildingBlock: ZUJKAS_clean_linker_0, # of connection points: 2
#     Edge 15, Type (0, 0), BuildingBlock: ZUJKAS_clean_linker_0, # of connection points: 2
#     Edge 16, Type (0, 0), BuildingBlock: ZUJKAS_clean_linker_0, # of connection points: 2
#     Edge 17, Type (0, 0), BuildingBlock: ZUJKAS_clean_linker_0, # of connection points: 2
#     Edge 18, Type (0, 0), BuildingBlock: ZUJKAS_clean_linker_0, # of connection points: 2
#     Edge 19, Type (0, 0), BuildingBlock: ZUJKAS_clean_linker_0, # of connection points: 2
#     Edge 20, Type (0, 0), BuildingBlock: ZUJKAS_clean_linker_0, # of connection points: 2
#     Edge 21, Type (0, 0), BuildingBlock: ZUJKAS_clean_linker_0, # of connection points: 2
#     Edge 22, Type (0, 0), BuildingBlock: ZUJKAS_clean_linker_0, # of connection points: 2
#     Edge 23, Type (0, 0), BuildingBlock: ZUJKAS_clean_linker_0, # of connection points: 2
#     Edge 24, Type (0, 0), BuildingBlock: ZUJKAS_clean_linker_0, # of connection points: 2
#     Edge 25, Type (0, 0), BuildingBlock: ZUJKAS_clean_linker_0, # of connection points: 2
#     Edge 26, Type (0, 0), BuildingBlock: ZUJKAS_clean_linker_0, # of connection points: 2
#     Edge 27, Type (0, 0), BuildingBlock: ZUJKAS_clean_linker_0, # of connection points: 2
#     Edge 28, Type (0, 0), BuildingBlock: ZUJKAS_clean_linker_0, # of connection points: 2
#     Edge 29, Type (0, 0), BuildingBlock: ZUJKAS_clean_linker_0, # of connection points: 2
#     Edge 30, Type (0, 0), BuildingBlock: ZUJKAS_clean_linker_0, # of connection points: 2
#     Edge 31, Type (0, 0), BuildingBlock: ZUJKAS_clean_linker_0, # of connection points: 2
#     Edge 32, Type (0, 0), BuildingBlock: ZUJKAS_clean_linker_0, # of connection points: 2
#     Edge 33, Type (0, 0), BuildingBlock: ZUJKAS_clean_linker_0, # of connection points: 2
#     Edge 34, Type (0, 0), BuildingBlock: ZUJKAS_clean_linker_0, # of connection points: 2
#     Edge 35, Type (0, 0), BuildingBlock: ZUJKAS_clean_linker_0, # of connection points: 2
#     Edge 36, Type (0, 0), BuildingBlock: ZUJKAS_clean_linker_0, # of connection points: 2
#     Edge 37, Type (0, 0), BuildingBlock: ZUJKAS_clean_linker_0, # of connection points: 2
#     Edge 38, Type (0, 0), BuildingBlock: ZUJKAS_clean_linker_0, # of connection points: 2
#     Edge 39, Type (0, 0), BuildingBlock: ZUJKAS_clean_linker_0, # of connection points: 2
#     Edge 40, Type (0, 0), BuildingBlock: ZUJKAS_clean_linker_0, # of connection points: 2
#     Edge 41, Type (0, 0), BuildingBlock: ZUJKAS_clean_linker_0, # of connection points: 2
#     Edge 42, Type (0, 0), BuildingBlock: ZUJKAS_clean_linker_0, # of connection points: 2
#     Edge 43, Type (0, 0), BuildingBlock: ZUJKAS_clean_linker_0, # of connection points: 2
#     Edge 44, Type (0, 0), BuildingBlock: ZUJKAS_clean_linker_0, # of connection points: 2
#     Edge 45, Type (0, 0), BuildingBlock: ZUJKAS_clean_linker_0, # of connection points: 2
#     Edge 46, Type (0, 0), BuildingBlock: ZUJKAS_clean_linker_0, # of connection points: 2
#     Edge 47, Type (0, 0), BuildingBlock: ZUJKAS_clean_linker_0, # of connection points: 2
# Relax obj value: 0.155
# Max RMSD: 0.258
# Mean RMSD: 0.230
data_MOF--net-lcy-e--node1-CUKXOW_clean_sbu_0--edge1-ZUJKAS_clean_linker_0
_symmetry_space_group_name_H-M    P1
_symmetry_Int_Tables_number       1
_symmetry_cell_setting            triclinic
loop_
_symmetry_equiv_pos_as_xyz
'x, y, z'
_cell_length_a     45.226825
_cell_length_b     48.741353
_cell_length_c     48.780001
_cell_angle_alpha  89.994682
_cell_angle_beta   91.175609
_cell_angle_gamma 88.832898
loop_
_atom_site_label
_atom_site_type_symbol
_atom_site_fract_x
_atom_site_fract_y
_atom_site_fract_z
_atom_type_partial_charge
Tb0 Tb 0.15615 0.18412 0.4323 0.0
C1 C 0.0928 0.15565 0.4312 0.0
Tb2 Tb 0.1075 0.20534 0.47101 0.0
O3 O 0.18362 0.16958 0.46705 0.0
O4 O 0.13834 0.17202 0.47013 0.0
O5 O 0.11902 0.15782 0.41915 0.0
C6 C 0.06888 0.21088 0.51118 0.0
O7 O 0.08469 0.17123 0.45224 0.0
C8 C 0.11347 0.23228 0.42495 0.0
C9 C 0.16689 0.23564 0.47088 0.0
O10 O 0.06436 0.21934 0.48615 0.0
O11 O 0.09497 0.19959 0.51342 0.0
O12 O 0.10459 0.24399 0.44735 0.0
O13 O 0.11654 0.20705 0.42899 0.0
O14 O 0.14564 0.22683 0.48669 0.0
O15 O 0.1723 0.22428 0.44661 0.0
C16 C 0.19255 0.17361 0.39089 0.0
O17 O 0.18244 0.15538 0.40758 0.0
O18 O 0.18155 0.19756 0.39716 0.0
C19 C 0.16184 0.16757 0.48377 0.0
Tb20 Tb 0.0924 0.9112 0.7057 0.0
C21 C 0.12032 0.85152 0.70269 0.0
Tb22 Tb 0.07086 0.86795 0.74538 0.0
O23 O 0.13615 0.91138 0.72477 0.0
O24 O 0.09936 0.90202 0.74816 0.0
O25 O 0.11444 0.87457 0.68864 0.0
C26 C 0.06664 0.83405 0.78797 0.0
O27 O 0.10821 0.8464 0.72673 0.0
C28 C 0.03885 0.87464 0.70003 0.0
C29 C 0.03726 0.92422 0.74438 0.0
O30 O 0.05634 0.82932 0.7634 0.0
O31 O 0.07914 0.85772 0.78843 0.0
O32 O 0.02791 0.86631 0.72297 0.0
O33 O 0.06636 0.87617 0.70301 0.0
O34 O 0.04495 0.90271 0.75968 0.0
O35 O 0.05086 0.92982 0.72111 0.0
C36 C 0.10101 0.95195 0.67046 0.0
O37 O 0.10401 0.95341 0.69688 0.0
O38 O 0.09286 0.9274 0.66366 0.0
C39 C 0.12738 0.90246 0.74816 0.0
Tb40 Tb 0.42696 0.80632 0.95983 0.0
C41 C 0.36363 0.81936 0.93064 0.0
Tb42 Tb 0.37137 0.7797 0.98056 0.0
O43 O 0.44011 0.76882 0.93749 0.0
O44 O 0.39649 0.77733 0.94439 0.0
O45 O 0.39108 0.82823 0.93564 0.0
C46 C 0.33137 0.74196 0.99055 0.0
O47 O 0.35319 0.79769 0.94335 0.0
C48 C 0.38218 0.82873 1.00022 0.0
C49 C 0.43126 0.76854 0.01384 0.0
O50 O 0.32857 0.76783 0.99661 0.0
O51 O 0.35672 0.73741 0.97928 0.0
O52 O 0.35572 0.81884 0.99828 0.0
O53 O 0.40066 0.81014 0.99453 0.0
O54 O 0.40457 0.75954 1.00723 0.0
O55 O 0.44313 0.78917 0.99998 0.0
C56 C 0.46931 0.84148 0.94649 0.0
O57 O 0.47312 0.81535 0.95071 0.0
O58 O 0.44159 0.84784 0.94976 0.0
C59 C 0.41362 0.75922 0.93502 0.0
Tb60 Tb 0.45558 0.12915 0.15478 0.0
C61 C 0.43084 0.18981 0.15603 0.0
Tb62 Tb 0.48166 0.16885 0.19731 0.0
O63 O 0.41431 0.126 0.17686 0.0
O64 O 0.45354 0.13472 0.19795 0.0
O65 O 0.43603 0.1682 0.1399 0.0
C66 C 0.48969 0.20007 0.2422 0.0
O67 O 0.44466 0.19306 0.18009 0.0
C68 C 0.51078 0.16339 0.15112 0.0
C69 C 0.50688 0.1087 0.19687 0.0
O70 O 0.50648 0.19974 0.22088 0.0
O71 O 0.46829 0.18324 0.23791 0.0
O72 O 0.52319 0.16939 0.17459 0.0
O73 O 0.48317 0.16342 0.15392 0.0
O74 O 0.50271 0.13115 0.21173 0.0
O75 O 0.49237 0.10448 0.17325 0.0
C76 C 0.44603 0.09217 0.11495 0.0
O77 O 0.47157 0.10206 0.12184 0.0
O78 O 0.42602 0.10365 0.12999 0.0
C79 C 0.42581 0.13394 0.19992 0.0
Tb80 Tb 0.61382 0.33153 0.55366 0.0
C81 C 0.67882 0.33434 0.57795 0.0
Tb82 Tb 0.66183 0.29361 0.53007 0.0
O83 O 0.61105 0.3085 0.59166 0.0
O84 O 0.62531 0.28892 0.55624 0.0
O85 O 0.65403 0.34878 0.57231 0.0
C86 C 0.6972 0.24959 0.5223 0.0
O87 O 0.68489 0.31058 0.56571 0.0
C88 C 0.6516 0.34063 0.50389 0.0
C89 C 0.59862 0.29244 0.50248 0.0
O90 O 0.70261 0.27438 0.51403 0.0
O91 O 0.6724 0.24998 0.5351 0.0
O92 O 0.66125 0.31835 0.49202 0.0
O93 O 0.65107 0.33636 0.52929 0.0
O94 O 0.62454 0.27967 0.50584 0.0
O95 O 0.59021 0.31355 0.51805 0.0
C96 C 0.57146 0.36922 0.5638 0.0
O97 O 0.58141 0.36321 0.5397 0.0
O98 O 0.58566 0.35439 0.58191 0.0
C99 C 0.62359 0.28659 0.58205 0.0
Tb100 Tb 0.92582 0.413 0.82885 0.0
C101 C 0.89477 0.35588 0.82654 0.0
Tb102 Tb 0.94648 0.36976 0.78752 0.0
O103 O 0.88457 0.4225 0.80646 0.0
O104 O 0.92102 0.40676 0.78588 0.0
O105 O 0.90441 0.37552 0.84341 0.0
C106 C 0.95287 0.33464 0.74606 0.0
O107 O 0.90483 0.35343 0.80129 0.0
C108 C 0.97671 0.37158 0.83413 0.0
C109 C 0.97958 0.42561 0.78857 0.0
O110 O 0.95344 0.32798 0.77183 0.0
O111 O 0.94903 0.36094 0.74373 0.0
O112 O 0.98802 0.36348 0.8112 0.0
O113 O 0.94941 0.37541 0.83058 0.0
O114 O 0.97388 0.40299 0.77456 0.0
O115 O 0.96461 0.43287 0.81082 0.0
C116 C 0.92129 0.44921 0.87007 0.0
O117 O 0.94588 0.4389 0.86092 0.0
O118 O 0.89943 0.43873 0.85635 0.0
C119 C 0.89359 0.41199 0.78366 0.0
Tb120 Tb 0.85327 0.69991 0.09998 0.0
C121 C 0.91509 0.66896 0.10545 0.0
Tb122 Tb 0.90444 0.71906 0.06466 0.0
O123 O 0.85011 0.66096 0.07842 0.0
O124 O 0.86611 0.69542 0.0585 0.0
O125 O 0.88923 0.67386 0.11741 0.0
C126 C 0.94456 0.72361 0.02567 0.0
O127 O 0.92386 0.68242 0.08351 0.0
C128 C 0.89593 0.74695 0.11007 0.0
C129 C 0.84564 0.75271 0.0611 0.0
O130 O 0.94847 0.73069 0.05114 0.0
O131 O 0.91821 0.71408 0.0223 0.0
O132 O 0.9072 0.75744 0.0882 0.0
O133 O 0.89264 0.72167 0.10642 0.0
O134 O 0.86931 0.74469 0.04756 0.0
O135 O 0.8374 0.74025 0.08395 0.0
C136 C 0.80678 0.69391 0.13239 0.0
O137 O 0.80613 0.69369 0.10581 0.0
O138 O 0.83383 0.69773 0.14097 0.0
C139 C 0.86308 0.66973 0.05678 0.0
Tb140 Tb 0.5513 0.64869 0.33683 0.0
C141 C 0.55405 0.58843 0.36096 0.0
Tb142 Tb 0.50662 0.60791 0.31549 0.0
O143 O 0.53383 0.64833 0.37756 0.0
O144 O 0.50522 0.64134 0.34403 0.0
O145 O 0.56983 0.61087 0.35627 0.0
C146 C 0.46142 0.57412 0.30716 0.0
O147 O 0.52728 0.58519 0.34972 0.0
C148 C 0.55435 0.61296 0.28574 0.0
C149 C 0.50935 0.66327 0.2843 0.0
O150 O 0.48899 0.56829 0.30249 0.0
O151 O 0.45941 0.59883 0.31695 0.0
O152 O 0.52882 0.60609 0.27552 0.0
O153 O 0.55239 0.6142 0.31129 0.0
O154 O 0.49178 0.6431 0.29117 0.0
O155 O 0.53465 0.6676 0.29793 0.0
C156 C 0.58853 0.69031 0.34423 0.0
O157 O 0.55999 0.69172 0.34586 0.0
O158 O 0.59646 0.66511 0.33865 0.0
C159 C 0.50748 0.6411 0.37013 0.0
Tb160 Tb 0.17259 0.41456 0.13828 0.0
C161 C 0.14764 0.41359 0.07812 0.0
Tb162 Tb 0.19168 0.45922 0.10027 0.0
O163 O 0.12731 0.43011 0.13645 0.0
O164 O 0.16243 0.45718 0.13361 0.0
O165 O 0.15261 0.39842 0.10052 0.0
C166 C 0.19244 0.5037 0.06844 0.0
O167 O 0.1586 0.43848 0.07522 0.0
C168 C 0.2292 0.41757 0.1049 0.0
C169 C 0.22059 0.4577 0.15805 0.0
O170 O 0.20917 0.48199 0.06564 0.0
O171 O 0.17533 0.50028 0.08906 0.0
O172 O 0.237 0.44247 0.09943 0.0
O173 O 0.20137 0.41662 0.10489 0.0
O174 O 0.21207 0.47412 0.13768 0.0
O175 O 0.21086 0.43225 0.16003 0.0
C176 C 0.16649 0.37867 0.1788 0.0
O177 O 0.16027 0.40464 0.17979 0.0
O178 O 0.1761 0.37243 0.15458 0.0
C179 C 0.13459 0.45529 0.13227 0.0
Tb180 Tb 0.71281 0.08315 0.85786 0.0
C181 C 0.68858 0.09403 0.91887 0.0
Tb182 Tb 0.74052 0.05193 0.9074 0.0
O183 O 0.69098 0.04536 0.84452 0.0
O184 O 0.69974 0.05238 0.8856 0.0
O185 O 0.68961 0.10306 0.8929 0.0
C186 C 0.75316 0.00822 0.93922 0.0
O187 O 0.70391 0.07209 0.92772 0.0
C188 C 0.76194 0.10065 0.89842 0.0
C189 C 0.76872 0.04339 0.84848 0.0
O190 O 0.76143 0.03318 0.94434 0.0
O191 O 0.73809 0.00811 0.91633 0.0
O192 O 0.763 0.08871 0.92236 0.0
O193 O 0.75292 0.08374 0.88073 0.0
O194 O 0.76589 0.03408 0.87386 0.0
O195 O 0.75236 0.06447 0.83879 0.0
C196 C 0.69536 0.11771 0.81714 0.0
O197 O 0.68761 0.09243 0.8199 0.0
O198 O 0.71244 0.12395 0.83791 0.0
C199 C 0.69019 0.03488 0.86893 0.0
Tb200 Tb 0.83774 0.93748 0.40575 0.0
C201 C 0.83875 0.91107 0.34704 0.0
Tb202 Tb 0.7947 0.9603 0.36186 0.0
O203 O 0.81672 0.89797 0.40525 0.0
O204 O 0.79171 0.93348 0.39603 0.0
O205 O 0.85485 0.9154 0.36987 0.0
C206 C 0.75008 0.96864 0.32571 0.0
O207 O 0.81309 0.92406 0.34195 0.0
C208 C 0.84398 0.98777 0.36866 0.0
C209 C 0.79696 0.99057 0.41751 0.0
O210 O 0.77777 0.97309 0.32122 0.0
O211 O 0.74763 0.95929 0.35043 0.0
O212 O 0.81918 0.99885 0.35987 0.0
O213 O 0.84081 0.96229 0.37058 0.0
O214 O 0.77967 0.98422 0.39636 0.0
O215 O 0.82221 0.97699 0.42298 0.0
C216 C 0.8735 0.92825 0.44937 0.0
O217 O 0.84489 0.92754 0.449 0.0
O218 O 0.88238 0.93412 0.42484 0.0
C219 C 0.79132 0.90747 0.39646 0.0
Tb220 Tb 0.29237 0.57569 0.65489 0.0
C221 C 0.3113 0.58498 0.59184 0.0
Tb222 Tb 0.26216 0.54338 0.60779 0.0
O223 O 0.3176 0.53843 0.66701 0.0
O224 O 0.30437 0.54427 0.62704 0.0
O225 O 0.31242 0.5943 0.61781 0.0
C226 C 0.25003 0.49834 0.57832 0.0
O227 O 0.29565 0.56333 0.5843 0.0
C228 C 0.24083 0.59299 0.61639 0.0
C229 C 0.23714 0.53832 0.66798 0.0
O230 O 0.23723 0.52234 0.57482 0.0
O231 O 0.26942 0.5 0.59817 0.0
O232 O 0.23827 0.5804 0.59286 0.0
O233 O 0.25116 0.57639 0.63406 0.0
O234 O 0.23992 0.52685 0.64346 0.0
O235 O 0.25261 0.5603 0.67522 0.0
C236 C 0.31275 0.60835 0.69543 0.0
O237 O 0.31078 0.58191 0.69616 0.0
O238 O 0.30344 0.61684 0.67132 0.0
C239 C 0.31649 0.52715 0.64301 0.0
H240 H 0.19416 0.27367 0.43875 0.0
H241 H 0.2109 0.31928 0.45284 0.0
H242 H 0.18924 0.30125 0.53653 0.0
H243 H 0.1722 0.2561 0.52262 0.0
H244 H 0.16491 0.34993 0.51935 0.0
H245 H 0.28422 0.34524 0.49461 0.0
H246 H 0.25946 0.33681 0.46673 0.0
H247 H 0.26201 0.31496 0.49639 0.0
C248 C 0.1937 0.27919 0.46025 0.0
C249 C 0.1819 0.26117 0.47956 0.0
C250 C 0.20323 0.30532 0.4683 0.0
C251 C 0.20145 0.31377 0.49582 0.0
C252 C 0.19077 0.29533 0.51519 0.0
H253 H 0.276 0.44818 0.58605 0.0
H254 H 0.26382 0.40492 0.5636 0.0
C255 C 0.18112 0.26942 0.50718 0.0
C256 C 0.2088 0.34225 0.50451 0.0
H257 H 0.26507 0.3879 0.51006 0.0
C258 C 0.18679 0.35827 0.51719 0.0
C259 C 0.23738 0.35313 0.50187 0.0
C260 C 0.26226 0.33663 0.48938 0.0
C261 C 0.19262 0.38454 0.52768 0.0
C262 C 0.22117 0.39551 0.52496 0.0
C263 C 0.24311 0.37965 0.51195 0.0
C264 C 0.22927 0.42245 0.5373 0.0
C265 C 0.16844 0.39983 0.54257 0.0
C266 C 0.21427 0.44699 0.52974 0.0
C267 C 0.22112 0.47186 0.54274 0.0
C268 C 0.24324 0.47264 0.56337 0.0
C269 C 0.25874 0.44824 0.57031 0.0
C270 C 0.25187 0.42347 0.55741 0.0
H271 H 0.15033 0.38607 0.54846 0.0
H272 H 0.17732 0.40982 0.56137 0.0
H273 H 0.15878 0.41604 0.52895 0.0
H274 H 0.19714 0.44689 0.51391 0.0
H275 H 0.20895 0.49037 0.53685 0.0
H276 H 0.7923 0.06294 0.80053 0.0
H277 H 0.83619 0.04514 0.77683 0.0
H278 H 0.84601 0.98042 0.83675 0.0
H279 H 0.80237 0.99756 0.86006 0.0
H280 H 0.894 0.03917 0.79679 0.0
H281 H 0.85226 0.93776 0.76599 0.0
H282 H 0.82804 0.96523 0.77721 0.0
H283 H 0.84772 0.94387 0.80191 0.0
C284 C 0.80351 0.04463 0.80837 0.0
C285 C 0.79357 0.03167 0.83219 0.0
C286 C 0.82872 0.03456 0.79487 0.0
C287 C 0.84428 0.01115 0.80473 0.0
C288 C 0.83414 0.9981 0.8283 0.0
H289 H 1.00443 0.91817 0.79037 0.0
H290 H 0.95821 0.94145 0.80198 0.0
C291 C 0.80914 0.00811 0.84175 0.0
C292 C 0.87186 1.00079 0.79145 0.0
H293 H 0.90518 0.94213 0.76752 0.0
C294 C 0.8963 0.01809 0.78991 0.0
C295 C 0.87496 0.9733 0.78232 0.0
C296 C 0.84924 0.95406 0.78166 0.0
C297 C 0.92403 0.00822 0.78099 0.0
C298 C 0.92742 0.98038 0.77321 0.0
C299 C 0.9027 0.96342 0.77369 0.0
C300 C 0.95673 0.96781 0.76634 0.0
C301 C 0.94991 0.02725 0.78116 0.0
C302 C 0.97164 0.975 0.74243 0.0
C303 C 0.99833 0.96158 0.73559 0.0
C304 C 0.01063 0.94069 0.75253 0.0
C305 C 0.99584 0.9341 0.77674 0.0
C306 C 0.96925 0.94738 0.78345 0.0
H307 H 0.94472 0.04707 0.79143 0.0
H308 H 0.96936 0.01742 0.79172 0.0
H309 H 0.95613 0.0316 0.75973 0.0
H310 H 0.96226 0.99048 0.72871 0.0
H311 H 0.0089 0.9671 0.7167 0.0
H312 H 0.27694 0.74846 0.01323 0.0
H313 H 0.24105 0.71242 0.02186 0.0
H314 H 0.30065 0.65217 0.98717 0.0
H315 H 0.33619 0.68797 0.97818 0.0
H316 H 0.24048 0.6469 0.96992 0.0
H317 H 0.25433 0.65533 0.08344 0.0
H318 H 0.24371 0.68609 0.06511 0.0
H319 H 0.27966 0.67081 0.0602 0.0
C320 C 0.28223 0.72751 1.00741 0.0
C321 C 0.30935 0.72084 0.99531 0.0
C322 C 0.2618 0.70701 0.01235 0.0
C323 C 0.26839 0.67966 1.00536 0.0
C324 C 0.29517 0.67318 0.99267 0.0
H325 H 0.23125 0.51468 0.02828 0.0
H326 H 0.24225 0.55972 0.0095 0.0
C327 C 0.3155 0.6936 0.98769 0.0
C328 C 0.24837 0.65727 0.01234 0.0
H329 H 0.22564 0.61952 0.06651 0.0
C330 C 0.23678 0.64111 0.99103 0.0
C331 C 0.24351 0.64994 0.03989 0.0
C332 C 0.25604 0.66626 0.06356 0.0
C333 C 0.22149 0.61706 0.99658 0.0
C334 C 0.21819 0.60887 0.02411 0.0
C335 C 0.22823 0.6259 0.0454 0.0
C336 C 0.20778 0.58134 0.03149 0.0
C337 C 0.20966 0.60031 0.97294 0.0
C338 C 0.18464 0.57852 0.04994 0.0
C339 C 0.1785 0.55282 0.06086 0.0
C340 C 0.1956 0.52966 0.05361 0.0
C341 C 0.21771 0.53224 0.0341 0.0
C342 C 0.22384 0.55793 0.0232 0.0
H343 H 0.20473 0.61341 0.95471 0.0
H344 H 0.22663 0.58475 0.96708 0.0
H345 H 0.18927 0.5895 0.97855 0.0
H346 H 0.17217 0.59638 0.05675 0.0
H347 H 0.16131 0.55131 0.0759 0.0
H348 H 0.5326 0.10613 0.24779 0.0
H349 H 0.57367 0.07666 0.26335 0.0
H350 H 0.57396 0.03577 0.18501 0.0
H351 H 0.53237 0.06536 0.16905 0.0
H352 H 0.58195 1.00004 0.2336 0.0
H353 H 0.65815 0.08767 0.23328 0.0
H354 H 0.62478 0.09444 0.25165 0.0
H355 H 0.62284 0.08847 0.21529 0.0
C356 C 0.54112 0.09077 0.23382 0.0
C357 C 0.52934 0.08833 0.20702 0.0
C358 C 0.56469 0.07396 0.24278 0.0
C359 C 0.5772 0.05442 0.22517 0.0
C360 C 0.56469 0.05089 0.19884 0.0
H361 H 0.75245 0.98972 0.27399 0.0
H362 H 0.71089 1.00662 0.2452 0.0
C363 C 0.54092 0.06776 0.18979 0.0
C364 C 0.60406 0.03873 0.23428 0.0
H365 H 0.67457 0.04789 0.25823 0.0
C366 C 0.60238 0.01035 0.23864 0.0
C367 C 0.63084 0.05215 0.24037 0.0
C368 C 0.63446 0.08232 0.23467 0.0
C369 C 0.62636 0.99531 0.25033 0.0
C370 C 0.65245 0.00915 0.2582 0.0
C371 C 0.65455 0.03726 0.25245 0.0
C372 C 0.6772 0.99552 0.27386 0.0
C373 C 0.62344 0.9648 0.25426 0.0
C374 C 0.67215 0.98339 0.29942 0.0
C375 C 0.69584 0.97361 0.31579 0.0
C376 C 0.72506 0.97609 0.30705 0.0
C377 C 0.73012 0.98753 0.28119 0.0
C378 C 0.7064 0.99719 0.26475 0.0
H379 H 0.60734 0.95615 0.23926 0.0
H380 H 0.64504 0.95386 0.25212 0.0
H381 H 0.61516 0.96083 0.27512 0.0
H382 H 0.64996 0.9825 0.30727 0.0
H383 H 0.69132 0.96502 0.33572 0.0
H384 H 0.68537 0.19794 0.5387 0.0
H385 H 0.70899 0.15506 0.52428 0.0
H386 H 0.7706 0.20037 0.47643 0.0
H387 H 0.74638 0.24365 0.49045 0.0
H388 H 0.7465 0.15988 0.44701 0.0
H389 H 0.78511 0.11657 0.54634 0.0
H390 H 0.74651 0.12559 0.54693 0.0
H391 H 0.77331 0.152 0.54255 0.0
C392 C 0.70425 0.19884 0.52544 0.0
C393 C 0.71408 0.22416 0.51573 0.0
C394 C 0.71792 0.17425 0.51737 0.0
C395 C 0.74197 0.17437 0.49963 0.0
C396 C 0.75224 0.19973 0.49031 0.0
H397 H 0.83269 0.01993 0.4526 0.0
H398 H 0.82175 0.0649 0.47305 0.0
C399 C 0.73847 0.22444 0.49837 0.0
C400 C 0.75444 0.14794 0.48907 0.0
H401 H 0.77957 0.08421 0.50915 0.0
C402 C 0.75412 0.1435 0.46062 0.0
C403 C 0.76483 0.12656 0.50671 0.0
C404 C 0.76778 0.13052 0.5373 0.0
C405 C 0.76254 0.11801 0.44945 0.0
C406 C 0.77089 0.09605 0.46719 0.0
C407 C 0.77264 0.10084 0.49555 0.0
C408 C 0.777 0.06788 0.4566 0.0
C409 C 0.76231 0.11486 0.41867 0.0
C410 C 0.75517 0.0541 0.44144 0.0
C411 C 0.76133 0.02849 0.42973 0.0
C412 C 0.78941 0.01584 0.43317 0.0
C413 C 0.81081 0.02901 0.44958 0.0
C414 C 0.80464 0.05479 0.4612 0.0
H415 H 0.76439 0.13498 0.40824 0.0
H416 H 0.78058 0.101 0.41198 0.0
H417 H 0.74102 0.10595 0.41183 0.0
H418 H 0.73342 0.0634 0.43823 0.0
H419 H 0.7442 0.01888 0.41747 0.0
H420 H 0.00908 0.42043 0.74056 0.0
H421 H 0.05224 0.44485 0.72575 0.0
H422 H 0.05052 0.4939 0.79925 0.0
H423 H 0.00709 0.46899 0.81467 0.0
H424 H 0.05982 0.49962 0.71515 0.0
H425 H 0.13612 0.4644 0.79955 0.0
H426 H 0.10083 0.44878 0.79297 0.0
H427 H 0.1025 0.48157 0.80963 0.0
C428 C 0.01768 0.43642 0.75372 0.0
C429 C 1.0045 0.44257 0.77898 0.0
C430 C 0.04248 0.45044 0.74512 0.0
C431 C 0.05506 0.47098 0.76149 0.0
C432 C 0.04163 0.47777 0.78645 0.0
H433 H 0.2163 0.56065 0.71623 0.0
H434 H 0.17242 0.5469 0.74148 0.0
C435 C 0.01659 0.46369 0.79513 0.0
C436 C 0.0821 0.48492 0.75187 0.0
H437 H 0.15637 0.49152 0.76493 0.0
C438 C 0.08083 0.49809 0.72623 0.0
C439 C 0.10962 0.48304 0.76628 0.0
C440 C 0.11262 0.46854 0.79355 0.0
C441 C 0.10627 0.50863 0.71431 0.0
C442 C 0.13395 0.50573 0.72815 0.0
C443 C 0.13514 0.49368 0.75432 0.0
C444 C 0.16197 0.51304 0.71456 0.0
C445 C 0.10344 0.52236 0.68663 0.0
C446 C 0.1712 0.49811 0.69159 0.0
C447 C 0.1962 0.50575 0.67727 0.0
C448 C 0.21275 0.52863 0.68551 0.0
C449 C 0.20416 0.54296 0.70925 0.0
C450 C 0.17904 0.53516 0.72369 0.0
H451 H 0.08028 0.52914 0.68192 0.0
H452 H 0.11797 0.54041 0.68559 0.0
H453 H 0.11033 0.50759 0.67055 0.0
H454 H 0.15865 0.48073 0.68438 0.0
H455 H 0.20211 0.49401 0.65928 0.0
H456 H 0.73618 0.95613 0.92875 0.0
H457 H 0.74809 0.91466 0.95515 0.0
H458 H 0.79668 0.96266 0.0144 0.0
H459 H 0.78519 1.0044 0.98757 0.0
H460 H 0.82772 0.91763 0.99936 0.0
H461 H 0.71502 0.88635 0.0256 0.0
H462 H 0.71844 0.89145 0.98941 0.0
H463 H 0.72266 0.92005 0.01245 0.0
C464 C 0.74922 0.95792 0.94752 0.0
C465 C 0.75976 0.98351 0.95612 0.0
C466 C 0.75578 0.93419 0.96276 0.0
C467 C 0.77277 0.93551 0.98713 0.0
C468 C 0.78329 0.96113 0.99582 0.0
H469 H 0.80878 0.78787 0.08956 0.0
H470 H 0.78978 0.83317 0.07432 0.0
C471 C 0.77675 0.98495 0.98049 0.0
C472 C 0.7812 0.90984 1.00228 0.0
H473 H 0.75312 0.851 0.02875 0.0
C474 C 0.81136 0.90328 1.00613 0.0
C475 C 0.75993 0.89118 0.01156 0.0
C476 C 0.72721 0.89774 0.00982 0.0
C477 C 0.82082 0.87809 0.01766 0.0
C478 C 0.79958 0.85863 0.02512 0.0
C479 C 0.76941 0.86572 0.02265 0.0
C480 C 0.80851 0.83036 0.03392 0.0
C481 C 0.85357 0.87242 0.02146 0.0
C482 C 0.82424 0.81333 0.01595 0.0
C483 C 0.83499 0.78763 0.02452 0.0
C484 C 0.83009 0.77812 0.05126 0.0
C485 C 0.81288 0.79453 0.06883 0.0
C486 C 0.80214 0.82046 0.06019 0.0
H487 H 0.86616 0.89174 0.0226 0.0
H488 H 0.85834 0.86029 0.04036 0.0
H489 H 0.8617 0.86047 1.00367 0.0
H490 H 0.82878 0.82021 0.99536 0.0
H491 H 0.84783 0.77545 0.01029 0.0
H492 H 0.40276 0.58721 0.31048 0.0
H493 H 0.36128 0.56223 0.2903 0.0
H494 H 0.4215 0.49818 0.26397 0.0
H495 H 0.46315 0.52339 0.2837 0.0
H496 H 0.38654 0.51717 0.22243 0.0
H497 H 0.31703 0.49412 0.3113 0.0
H498 H 0.32601 0.52974 0.30929 0.0
H499 H 0.35502 0.50446 0.31511 0.0
C500 C 0.40706 0.56753 0.30088 0.0
C501 C 0.43613 0.55722 0.29859 0.0
C502 C 0.38331 0.55318 0.2895 0.0
C503 C 0.38819 0.52815 0.27588 0.0
C504 C 0.41718 0.51738 0.27449 0.0
H505 H 0.24836 0.42901 0.20009 0.0
H506 H 0.28906 0.44447 0.22989 0.0
C507 C 0.44094 0.53176 0.2858 0.0
C508 C 0.36363 0.51479 0.26062 0.0
H509 H 0.29346 0.49103 0.26678 0.0
C510 C 0.36635 0.51116 0.23222 0.0
C511 C 0.33735 0.5067 0.27339 0.0
C512 C 0.33374 0.50868 0.304 0.0
C513 C 0.34318 0.50061 0.21613 0.0
C514 C 0.31634 0.49393 0.22866 0.0
C515 C 0.31394 0.49652 0.25719 0.0
C516 C 0.29034 0.48508 0.21215 0.0
C517 C 0.34758 0.49682 0.18576 0.0
C518 C 0.2771 0.50305 0.19287 0.0
C519 C 0.25392 0.49435 0.17586 0.0
C520 C 0.24338 0.46747 0.17785 0.0
C521 C 0.25596 0.44981 0.19794 0.0
C522 C 0.27922 0.45859 0.215 0.0
H523 H 0.37142 0.49592 0.18067 0.0
H524 H 0.33706 0.47776 0.17829 0.0
H525 H 0.33718 0.51446 0.17455 0.0
H526 H 0.28503 0.52375 0.19068 0.0
H527 H 0.24466 0.50861 0.16081 0.0
H528 H 0.4535 0.20465 0.28597 0.0
H529 H 0.46474 0.22473 0.33091 0.0
H530 H 0.55124 0.24636 0.30327 0.0
H531 H 0.53961 0.22714 0.25801 0.0
H532 H 0.50466 0.20886 0.3671 0.0
H533 H 0.5282 0.31624 0.34053 0.0
H534 H 0.51112 0.29307 0.3164 0.0
H535 H 0.55072 0.29274 0.32139 0.0
C536 C 0.47471 0.21417 0.28934 0.0
C537 C 0.49564 0.21447 0.26844 0.0
C538 C 0.48116 0.22559 0.31508 0.0
C539 C 0.50872 0.23749 0.32055 0.0
C540 C 0.52951 0.23807 0.29949 0.0
H541 H 0.60482 0.2457 0.47229 0.0
H542 H 0.57919 0.2336 0.4299 0.0
C543 C 0.52293 0.2269 0.27362 0.0
C544 C 0.51653 0.24724 0.3488 0.0
H545 H 0.5468 0.3005 0.38459 0.0
C546 C 0.51349 0.22906 0.3709 0.0
C547 C 0.52755 0.27378 0.35411 0.0
C548 C 0.52928 0.29517 0.33187 0.0
C549 C 0.52236 0.23615 0.39772 0.0
C550 C 0.5354 0.26191 0.40266 0.0
C551 C 0.53715 0.28062 0.38086 0.0
C552 C 0.54939 0.26889 0.42969 0.0
C553 C 0.51771 0.21584 0.42051 0.0
C554 C 0.54154 0.29306 0.44381 0.0
C555 C 0.55645 0.30025 0.46827 0.0
C556 C 0.57971 0.28352 0.47889 0.0
C557 C 0.58699 0.2591 0.46491 0.0
C558 C 0.57216 0.25199 0.44063 0.0
H559 H 0.4988 0.20235 0.41567 0.0
H560 H 0.53779 0.20253 0.42299 0.0
H561 H 0.51356 0.22637 0.44029 0.0
H562 H 0.52417 0.30656 0.43569 0.0
H563 H 0.55046 0.31934 0.47829 0.0
H564 H 0.02349 0.24834 0.51449 0.0
H565 H 0.99721 0.26179 0.55605 0.0
H566 H 0.04357 0.19754 0.60134 0.0
H567 H 0.07076 0.18489 0.56023 0.0
H568 H 0.96167 0.23742 0.59353 0.0
H569 H 0.0692 0.26525 0.64206 0.0
H570 H 0.06563 0.2565 0.60628 0.0
H571 H 0.06737 0.22995 0.63194 0.0
C572 C 0.02769 0.2369 0.53325 0.0
C573 C 0.0494 0.21594 0.53443 0.0
C574 C 0.01269 0.24454 0.55693 0.0
C575 C 0.01904 0.2311 0.58191 0.0
C576 C 0.03898 0.20867 0.58246 0.0
H577 H 0.97195 0.2812 0.74795 0.0
H578 H 0.98419 0.25173 0.70874 0.0
C579 C 0.05435 0.20138 0.55897 0.0
C580 C 0.00673 0.24202 0.60769 0.0
H581 H 0.02695 0.27056 0.66899 0.0
C582 C 0.97591 0.24452 0.61011 0.0
C583 C 0.02542 0.25142 0.62923 0.0
C584 C 0.05872 0.25093 0.62723 0.0
C585 C 0.96329 0.25642 0.63345 0.0
C586 C 0.98202 0.266 0.65474 0.0
C587 C 0.01273 0.26285 0.65267 0.0
C588 C 0.97062 0.28185 0.67816 0.0
C589 C 0.93009 0.25898 0.63512 0.0
C590 C 0.95889 0.30836 0.67378 0.0
C591 C 0.95231 0.32524 0.69601 0.0
C592 C 0.95729 0.3158 0.72293 0.0
C593 C 0.96792 0.28887 0.72734 0.0
C594 C 0.97482 0.27206 0.70505 0.0
H595 H 0.91882 0.24494 0.62053 0.0
H596 H 0.92275 0.25452 0.65621 0.0
H597 H 0.92304 0.28034 0.62996 0.0
H598 H 0.95602 0.31642 0.65318 0.0
H599 H 0.94404 0.34593 0.69213 0.0
H600 H 0.03057 0.79016 0.79281 0.0
H601 H 0.0182 0.76641 0.83532 0.0
H602 H 0.08079 0.81561 0.88035 0.0
H603 H 0.09264 0.83982 0.83814 0.0
H604 H 0.05076 0.73683 0.87613 0.0
H605 H 1.00226 0.83404 0.91662 0.0
H606 H 0.01232 0.83003 0.88125 0.0
H607 H 0.0403 0.83603 0.90715 0.0
C608 C 0.04192 0.7956 0.81174 0.0
C609 C 0.06219 0.81703 0.81239 0.0
C610 C 0.03491 0.78203 0.83596 0.0
C611 C 0.04816 0.78968 0.86102 0.0
C612 C 0.06986 0.80984 0.86131 0.0
H613 H 0.99632 0.75143 0.02797 0.0
H614 H 0.02667 0.76445 0.98909 0.0
C615 C 0.07666 0.82357 0.83721 0.0
C616 C 0.0377 0.77808 0.88704 0.0
H617 H 1.00232 0.79565 0.9458 0.0
C618 C 0.0403 0.74966 0.89146 0.0
C619 C 0.02401 0.79491 0.90695 0.0
C620 C 0.01926 0.8254 0.90275 0.0
C621 C 0.02943 0.73761 0.91529 0.0
C622 C 0.01538 0.75443 0.93494 0.0
C623 C 0.01338 0.78287 0.93078 0.0
C624 C 1.0002 0.74299 0.95883 0.0
C625 C 0.03298 0.70703 0.91924 0.0
C626 C 0.97554 0.72639 0.95467 0.0
C627 C 0.95818 0.7191 0.97673 0.0
C628 C 0.96516 0.72837 1.00329 0.0
C629 C 0.99055 0.744 1.00767 0.0
C630 C 0.00786 0.75141 0.98553 0.0
H631 H 0.05139 0.69844 0.90695 0.0
H632 H 0.03717 0.70183 0.94116 0.0
H633 H 0.01231 0.69696 0.91241 0.0
H634 H 0.96887 0.72016 0.93418 0.0
H635 H 0.93868 0.70703 0.97284 0.0
H636 H 0.46062 0.65885 0.25015 0.0
H637 H 0.45198 0.67938 0.20501 0.0
H638 H 0.53363 0.723 0.21321 0.0
H639 H 0.54288 0.7019 0.25829 0.0
H640 H 0.44425 0.73074 0.1872 0.0
H641 H 0.54549 0.68755 0.1398 0.0
H642 H 0.53334 0.67667 0.17299 0.0
H643 H 0.55258 0.70836 0.16946 0.0
C644 C 0.47676 0.67294 0.24256 0.0
C645 C 0.50253 0.67858 0.25813 0.0
C646 C 0.47177 0.68469 0.21654 0.0
C647 C 0.49238 0.70241 0.20513 0.0
C648 C 0.51767 0.70887 0.221 0.0
H649 H 0.47914 0.78843 0.04393 0.0
H650 H 0.49624 0.77387 0.09011 0.0
C651 C 0.52275 0.69702 0.24707 0.0
C652 C 0.48698 0.71402 0.17679 0.0
H653 H 0.51554 0.71738 0.11219 0.0
C654 C 0.45997 0.72783 0.17091 0.0
C655 C 0.50736 0.71041 0.15522 0.0
C656 C 0.5362 0.69474 0.15951 0.0
C657 C 0.45272 0.73779 0.14441 0.0
C658 C 0.47282 0.73377 0.1228 0.0
C659 C 0.50015 0.72061 0.12869 0.0
C660 C 0.46465 0.7414 0.09376 0.0
C661 C 0.42339 0.75248 0.13964 0.0
C662 C 0.44191 0.72752 0.07996 0.0
C663 C 0.43232 0.73559 0.05362 0.0
C664 C 0.44509 0.75791 0.04013 0.0
C665 C 0.46879 0.77113 0.05349 0.0
C666 C 0.47853 0.76288 0.08 0.0
H667 H 0.41363 0.75968 0.15915 0.0
H668 H 0.42582 0.77039 0.12585 0.0
H669 H 0.40767 0.73822 0.12967 0.0
H670 H 0.43109 0.71065 0.08984 0.0
H671 H 0.41418 0.72466 0.04414 0.0
H672 H 0.12429 0.20757 0.37655 0.0
H673 H 0.13797 0.22905 0.33354 0.0
H674 H 0.13133 0.30884 0.37153 0.0
H675 H 0.11843 0.28723 0.41509 0.0
H676 H 0.10583 0.266 0.3024 0.0
H677 H 0.21251 0.31009 0.33641 0.0
H678 H 0.1939 0.28442 0.35597 0.0
H679 H 0.18215 0.31984 0.3577 0.0
C680 C 0.12599 0.2297 0.37579 0.0
C681 C 0.1206 0.24582 0.39909 0.0
C682 C 0.13373 0.2419 0.35122 0.0
C683 C 0.13613 0.27045 0.3495 0.0
C684 C 0.13024 0.28669 0.37265 0.0
H685 H 0.1504 0.39304 0.22971 0.0
H686 H 0.14557 0.36352 0.26958 0.0
C687 C 0.1226 0.27443 0.39737 0.0
C688 C 0.14367 0.28318 0.32314 0.0
H689 H 0.19231 0.32612 0.29345 0.0
C690 C 0.12496 0.27885 0.30029 0.0
C691 C 0.16883 0.29964 0.32047 0.0
C692 C 0.19069 0.30358 0.34386 0.0
C693 C 0.12994 0.29168 0.27514 0.0
C694 C 0.15434 0.30907 0.27286 0.0
C695 C 0.17364 0.31267 0.29539 0.0
C696 C 0.15816 0.32626 0.24838 0.0
C697 C 0.10841 0.28764 0.25152 0.0
C698 C 0.16697 0.31494 0.22328 0.0
C699 C 0.16983 0.33186 0.2003 0.0
C700 C 0.16378 0.36015 0.20233 0.0
C701 C 0.15511 0.37127 0.22755 0.0
C702 C 0.15243 0.35449 0.25037 0.0
H703 H 0.08907 0.27544 0.25746 0.0
H704 H 0.10034 0.30784 0.24352 0.0
H705 H 0.1198 0.27681 0.23461 0.0
H706 H 0.17162 0.29313 0.22153 0.0
H707 H 0.17665 0.3229 0.18106 0.0
H708 H 0.97884 0.87819 0.69151 0.0
H709 H 0.95211 0.88753 0.64798 0.0
H710 H 0.03519 0.89338 0.60673 0.0
H711 H 0.06179 0.88333 0.6498 0.0
H712 H 0.9547 0.9332 0.61372 0.0
H713 H 0.99086 0.83921 0.5585 0.0
H714 H 0.99534 0.84294 0.59516 0.0
H715 H 0.02076 0.85883 0.57248 0.0
C716 C 0.99131 0.88129 0.67308 0.0
C717 C 0.02236 0.88009 0.67402 0.0
C718 C 0.97607 0.88669 0.64827 0.0
C719 C 0.99163 0.89076 0.62397 0.0
C720 C 0.02266 0.88978 0.62503 0.0
H721 H 0.93424 0.92823 0.45449 0.0
H722 H 0.96417 0.92032 0.49665 0.0
C723 C 0.03785 0.88434 0.64975 0.0
C724 C 0.97549 0.89665 0.59765 0.0
H725 H 0.96513 0.8733 0.53209 0.0
C726 C 0.95691 0.92004 0.59591 0.0
C727 C 0.97853 0.8796 0.57431 0.0
C728 C 0.99723 0.8536 0.57517 0.0
C729 C 0.94146 0.92692 0.57149 0.0
C730 C 0.94428 0.90974 0.54825 0.0
C731 C 0.96311 0.88652 0.54986 0.0
C732 C 0.92654 0.91469 0.52264 0.0
C733 C 0.92247 0.95274 0.57067 0.0
C734 C 0.8956 0.91372 0.52319 0.0
C735 C 0.87862 0.91811 0.4993 0.0
C736 C 0.8922 0.92347 0.47425 0.0
C737 C 0.92322 0.9242 0.47354 0.0
C738 C 0.94028 0.91969 0.49757 0.0
H739 H 0.92905 0.96736 0.58706 0.0
H740 H 0.9238 0.96317 0.55051 0.0
H741 H 0.89907 0.94732 0.57387 0.0
H742 H 0.88452 0.90934 0.54214 0.0
H743 H 0.85477 0.91729 0.50049 0.0
H744 H 0.32685 0.66336 0.69682 0.0
H745 H 0.34575 0.68946 0.73653 0.0
H746 H 0.33937 0.61744 0.78727 0.0
H747 H 0.32186 0.59133 0.7478 0.0
H748 H 0.32431 0.70353 0.78466 0.0
H749 H 0.42222 0.63686 0.80542 0.0
H750 H 0.39989 0.63367 0.7746 0.0
H751 H 0.38911 0.61735 0.80593 0.0
C752 C 0.3297 0.65315 0.71645 0.0
C753 C 0.32323 0.62518 0.71905 0.0
C754 C 0.34048 0.66806 0.73918 0.0
C755 C 0.34487 0.65533 0.76496 0.0
C756 C 0.33735 0.62764 0.76759 0.0
H757 H 0.35814 0.74106 0.92248 0.0
H758 H 0.34189 0.71585 0.88169 0.0
C759 C 0.32704 0.61273 0.74494 0.0
C760 C 0.35671 0.67081 0.78931 0.0
H761 H 0.40782 0.66677 0.84201 0.0
C762 C 0.34274 0.69558 0.79704 0.0
C763 C 0.3812 0.66095 0.80538 0.0
C764 C 0.39916 0.63592 0.79722 0.0
C765 C 0.35192 0.71018 0.82061 0.0
C766 C 0.37517 0.69933 0.83767 0.0
C767 C 0.38967 0.67499 0.82945 0.0
C768 C 0.38526 0.7131 0.8637 0.0
C769 C 0.33693 0.73743 0.82652 0.0
C770 C 0.41539 0.71855 0.86843 0.0
C771 C 0.42488 0.73223 0.89227 0.0
C772 C 0.40444 0.74099 0.91196 0.0
C773 C 0.37447 0.73465 0.90775 0.0
C774 C 0.36507 0.7206 0.88411 0.0
H775 H 0.32722 0.74685 0.80755 0.0
H776 H 0.31861 0.73425 0.84089 0.0
H777 H 0.3526 0.75211 0.83594 0.0
H778 H 0.43159 0.71286 0.85329 0.0
H779 H 0.4481 0.73685 0.89476 0.0
H780 H 0.48715 0.15734 0.09925 0.0
H781 H 0.51378 0.14807 0.05662 0.0
H782 H 0.59662 0.14773 0.10188 0.0
H783 H 0.57024 0.1572 0.14439 0.0
H784 H 0.56736 0.1813 0.03405 0.0
H785 H 0.58925 0.0711 0.0579 0.0
H786 H 0.55878 0.09035 0.07239 0.0
H787 H 0.59575 0.0952 0.08523 0.0
C788 C 0.51105 0.15535 0.10007 0.0
C789 C 0.52661 0.15797 0.12519 0.0
C790 C 0.52623 0.15014 0.07569 0.0
C791 C 0.5572 0.14718 0.07605 0.0
C792 C 0.57273 0.14989 0.1011 0.0
H793 H 0.69915 0.09809 0.97335 0.0
H794 H 0.66547 0.11292 0.00892 0.0
C795 C 0.55762 0.15531 0.12539 0.0
C796 C 0.57349 0.1406 0.0505 0.0
H797 H 0.61398 0.08954 0.02015 0.0
C798 C 0.57735 0.16119 0.03079 0.0
C799 C 0.58644 0.11436 0.04627 0.0
C800 C 0.5823 0.09132 0.0664 0.0
C801 C 0.59491 0.15652 1.00756 0.0
C802 C 0.60852 0.13039 1.00366 0.0
C803 C 0.60374 0.10962 0.02304 0.0
C804 C 0.62956 0.12438 0.98099 0.0
C805 C 0.59979 0.17993 0.98806 0.0
C806 C 0.62111 0.1265 0.95305 0.0
C807 C 0.64075 0.11825 0.93236 0.0
C808 C 0.66895 0.10734 0.93934 0.0
C809 C 0.67754 0.10621 0.96721 0.0
C810 C 0.65821 0.11464 0.98766 0.0
H811 H 0.59345 0.20005 0.99714 0.0
H812 H 0.6233 0.18054 0.98202 0.0
H813 H 0.58605 0.17698 0.96923 0.0
H814 H 0.599 0.13352 0.94724 0.0
H815 H 0.63336 0.11907 0.91111 0.0
H816 H 0.58799 0.26263 0.61804 0.0
H817 H 0.60248 0.23193 0.65583 0.0
H818 H 0.69162 0.22797 0.6262 0.0
H819 H 0.67694 0.25865 0.58802 0.0
H820 H 0.67283 0.17732 0.64763 0.0
H821 H 0.6507 0.26216 0.72028 0.0
H822 H 0.61924 0.25462 0.69877 0.0
H823 H 0.65224 0.26744 0.68373 0.0
C824 C 0.61046 0.25449 0.61906 0.0
C825 C 0.63114 0.26257 0.59968 0.0
C826 C 0.61884 0.23723 0.64091 0.0
C827 C 0.64832 0.22808 0.64434 0.0
C828 C 0.66874 0.23479 0.6241 0.0
H829 H 0.71671 0.1685 0.80457 0.0
H830 H 0.70756 0.19512 0.76231 0.0
C831 C 0.66025 0.25202 0.60199 0.0
C832 C 0.65781 0.21292 0.66982 0.0
H833 H 0.6582 0.2177 0.73987 0.0
C834 C 0.6698 0.18621 0.66779 0.0
C835 C 0.65454 0.22464 0.69624 0.0
C836 C 0.64378 0.25389 0.69997 0.0
C837 C 0.67749 0.17061 0.69135 0.0
C838 C 0.67257 0.18177 0.71779 0.0
C839 C 0.66163 0.20887 0.71975 0.0
C840 C 0.67816 0.16564 0.74362 0.0
C841 C 0.69114 0.1424 0.6876 0.0
C842 C 0.66421 0.1405 0.74768 0.0
C843 C 0.66945 0.12531 0.77177 0.0
C844 C 0.68849 0.13501 0.7926 0.0
C845 C 0.70187 0.16051 0.78894 0.0
C846 C 0.69671 0.17568 0.76473 0.0
H847 H 0.70196 0.14044 0.66743 0.0
H848 H 0.7078 0.1376 0.70403 0.0
H849 H 0.67354 0.1269 0.68834 0.0
H850 H 0.64912 0.13259 0.73223 0.0
H851 H 0.65869 0.10581 0.77399 0.0
H852 H 0.14556 0.43305 0.02605 0.0
H853 H 0.11269 0.41999 0.98857 0.0
H854 H 0.075 0.35784 0.03927 0.0
H855 H 0.10835 0.37085 0.07753 0.0
H856 H 0.0879 0.34201 0.98193 0.0
H857 H 0.02253 0.43895 0.98955 0.0
H858 H 0.06167 0.4442 0.98852 0.0
H859 H 0.04645 0.4263 0.01706 0.0
C860 C 0.13039 0.41653 0.02943 0.0
C861 C 0.1293 0.40324 0.05499 0.0
C862 C 0.11158 0.40913 1.0079 0.0
C863 C 0.09104 0.38839 0.01135 0.0
C864 C 0.0906 0.3741 0.03636 0.0
H865 H 0.95245 0.38028 0.88404 0.0
H866 H 0.97783 0.38061 0.9288 0.0
C867 C 0.10965 0.3815 0.05812 0.0
C868 C 0.06985 0.38259 0.98866 0.0
H869 H 0.01847 0.41467 0.947 0.0
C870 C 0.0723 0.35764 0.9745 0.0
C871 C 0.04926 0.40288 0.97927 0.0
C872 C 0.04455 0.42949 0.99454 0.0
C873 C 0.05579 0.35307 0.95024 0.0
C874 C 0.03686 0.37425 0.93972 0.0
C875 C 0.03325 0.39856 0.9548 0.0
C876 C 0.02133 0.37221 0.91269 0.0
C877 C 0.05896 0.3257 0.93606 0.0
C878 C 0.03736 0.3677 0.88866 0.0
C879 C 0.02286 0.36738 0.86305 0.0
C880 C 0.99216 0.37193 0.86104 0.0
C881 C 0.97616 0.37668 0.88502 0.0
C882 C 0.99062 0.37681 0.9106 0.0
H883 H 0.06601 0.30929 0.95075 0.0
H884 H 0.0379 0.31972 0.92584 0.0
H885 H 0.07618 0.32704 0.92026 0.0
H886 H 0.06118 0.36496 0.88964 0.0
H887 H 0.03571 0.36388 0.84484 0.0
H888 H 0.88574 0.87353 0.34906 0.0
H889 H 0.90022 0.84094 0.31284 0.0
H890 H 0.82941 0.87262 0.26062 0.0
H891 H 0.81474 0.90442 0.29609 0.0
H892 H 0.83088 0.81625 0.26304 0.0
H893 H 0.9416 0.85754 0.24022 0.0
H894 H 0.93499 0.84824 0.27523 0.0
H895 H 0.91478 0.87657 0.25993 0.0
C896 C 0.87341 0.87356 0.3298 0.0
C897 C 0.84903 0.89159 0.32564 0.0
C898 C 0.88175 0.85502 0.30909 0.0
C899 C 0.86594 0.85444 0.28394 0.0
C900 C 0.84186 0.87257 0.27985 0.0
H901 H 0.89868 0.80188 0.11992 0.0
H902 H 0.89289 0.82554 0.16391 0.0
C903 C 0.83352 0.89083 0.30032 0.0
C904 C 0.8735 0.83497 0.26157 0.0
H905 H 0.92448 0.8216 0.21234 0.0
C906 C 0.85151 0.81712 0.25215 0.0
C907 C 0.90028 0.83641 0.24723 0.0
C908 C 0.92428 0.85581 0.25593 0.0
C909 C 0.85504 0.80147 0.22823 0.0
C910 C 0.88168 0.80315 0.21364 0.0
C911 C 0.9041 0.82031 0.22357 0.0
C912 C 0.88597 0.78849 0.18722 0.0
C913 C 0.82955 0.78442 0.21809 0.0
C914 C 0.88423 0.75979 0.18568 0.0
C915 C 0.88715 0.74632 0.16053 0.0
C916 C 0.89233 0.76126 0.13652 0.0
C917 C 0.89463 0.7899 0.13812 0.0
C918 C 0.89144 0.80339 0.16324 0.0
H919 H 0.80839 0.79075 0.22764 0.0
H920 H 0.82673 0.78599 0.19547 0.0
H921 H 0.83404 0.76257 0.2234 0.0
H922 H 0.88067 0.74778 0.20395 0.0
H923 H 0.8857 0.72418 0.15993 0.0
H924 H 0.36659 0.60836 0.59548 0.0
H925 H 0.39794 0.62109 0.55686 0.0
H926 H 0.3276 0.60091 0.49988 0.0
H927 H 0.29653 0.58841 0.53793 0.0
H928 H 0.41475 0.58412 0.51422 0.0
H929 H 0.35459 0.67467 0.47026 0.0
H930 H 0.34866 0.66255 0.50467 0.0
H931 H 0.33177 0.64555 0.47583 0.0
C932 C 0.35762 0.60738 0.57476 0.0
C933 C 0.32904 0.59742 0.56983 0.0
C934 C 0.37559 0.61446 0.55266 0.0
C935 C 0.36508 0.61222 0.52535 0.0
C936 C 0.33615 0.60332 0.52063 0.0
H937 H 0.44771 0.62838 0.36269 0.0
H938 H 0.41176 0.62012 0.39921 0.0
C939 C 0.31842 0.59603 0.54251 0.0
C940 C 0.38484 0.61682 0.50161 0.0
H941 H 0.39196 0.6543 0.44273 0.0
C942 C 0.40986 0.59963 0.49873 0.0
C943 C 0.3782 0.63663 0.48098 0.0
C944 C 0.35199 0.65608 0.48311 0.0
C945 C 0.42825 0.60156 0.47588 0.0
C946 C 0.42199 0.62173 0.45548 0.0
C947 C 0.39676 0.63874 0.45818 0.0
C948 C 0.44291 0.62692 0.43275 0.0
C949 C 0.45403 0.58159 0.47364 0.0
C950 C 0.47207 0.63401 0.43928 0.0
C951 C 0.49237 0.63846 0.4187 0.0
C952 C 0.48422 0.63636 0.39075 0.0
C953 C 0.4548 0.62989 0.38395 0.0
C954 C 0.43425 0.62528 0.40483 0.0
H955 H 0.45016 0.56238 0.48519 0.0
H956 H 0.45831 0.57623 0.45194 0.0
H957 H 0.47417 0.59104 0.48255 0.0
H958 H 0.47923 0.63617 0.46048 0.0
H959 H 0.51472 0.6436 0.42489 0.0
H960 H 0.21936 0.21148 0.35928 0.0
H961 H 0.26099 0.20395 0.32853 0.0
H962 H 0.26062 0.11733 0.34648 0.0
H963 H 0.21901 0.12475 0.3773 0.0
H964 H 0.31829 0.17901 0.34378 0.0
H965 H 0.2594 0.1221 0.26111 0.0
H966 H 0.24018 0.14308 0.28582 0.0
H967 H 0.25445 0.10973 0.29541 0.0
C968 C 0.22796 0.19079 0.35643 0.0
C969 C 0.2159 0.16867 0.37058 0.0
C970 C 0.25181 0.18655 0.33897 0.0
C971 C 0.2638 0.16008 0.33511 0.0
C972 C 0.25149 0.13788 0.34892 0.0
H973 H 0.40034 0.09415 0.22928 0.0
H974 H 0.36338 0.1003 0.265 0.0
C975 C 0.22774 0.14214 0.36651 0.0
C976 C 0.28965 0.15579 0.31719 0.0
H977 H 0.31115 0.12536 0.25761 0.0
C978 C 0.31679 0.16732 0.3249 0.0
C979 C 0.28764 0.14043 0.29267 0.0
C980 C 0.25884 0.12825 0.28303 0.0
C981 C 0.34212 0.16356 0.30893 0.0
C982 C 0.34005 0.1484 0.28422 0.0
C983 C 0.31285 0.13686 0.27659 0.0
C984 C 0.36547 0.14464 0.26552 0.0
C985 C 0.37094 0.17537 0.31902 0.0
C986 C 0.37944 0.16744 0.25424 0.0
C987 C 0.40091 0.16384 0.23419 0.0
C988 C 0.40866 0.13744 0.22501 0.0
C989 C 0.39521 0.11465 0.23661 0.0
C990 C 0.37395 0.11819 0.25682 0.0
H991 H 0.37109 0.17854 0.34158 0.0
H992 H 0.39003 0.16182 0.31376 0.0
H993 H 0.37394 0.19564 0.30921 0.0
H994 H 0.37271 0.18808 0.25989 0.0
H995 H 0.41011 0.18176 0.22473 0.0
H996 H 0.13675 0.17366 0.53368 0.0
H997 H 0.12901 0.13739 0.56742 0.0
H998 H 0.1817 0.08128 0.5194 0.0
H999 H 0.18877 0.11739 0.48535 0.0
H1000 H 0.10083 0.08755 0.55288 0.0
H1001 H 0.21287 0.06893 0.59885 0.0
H1002 H 0.20271 0.10018 0.58076 0.0
H1003 H 0.21119 0.0694 0.56201 0.0
C1004 C 0.14663 0.15363 0.53041 0.0
C1005 C 0.16279 0.14811 0.50679 0.0
C1006 C 0.14247 0.13302 0.54977 0.0
C1007 C 0.15477 0.10668 0.54586 0.0
C1008 C 0.17235 0.10157 0.52297 0.0
H1009 H 0.09556 0.95242 0.61449 0.0
H1010 H 0.10831 0.98995 0.58347 0.0
C1011 C 0.17643 0.12219 0.5036 0.0
C1012 C 0.147 0.08399 0.56431 0.0
H1013 H 0.17614 0.03658 0.60927 0.0
C1014 C 0.11725 0.07644 0.5653 0.0
C1015 C 0.16851 0.06964 0.58045 0.0
C1016 C 0.2006 0.07751 0.58074 0.0
C1017 C 0.10844 0.05471 0.58189 0.0
C1018 C 0.13001 0.04005 0.59767 0.0
C1019 C 0.15973 0.04775 0.5969 0.0
C1020 C 0.12199 0.01738 0.61603 0.0
C1021 C 0.07609 0.04785 0.5828 0.0
C1022 C 0.12571 0.0204 0.64444 0.0
C1023 C 0.11844 0.99916 0.66206 0.0
C1024 C 0.10755 0.97443 0.65153 0.0
C1025 C 0.10382 0.97135 0.62307 0.0
C1026 C 0.11101 0.99273 0.6054 0.0
H1027 H 0.06174 0.06437 0.57366 0.0
H1028 H 0.07227 0.02868 0.57109 0.0
H1029 H 0.06931 0.04434 0.60425 0.0
H1030 H 0.13417 0.03928 0.65299 0.0
H1031 H 0.1216 1.00203 0.68394 0.0
H1032 H 0.16823 0.93765 0.76708 0.0
H1033 H 0.20968 0.9276 0.79896 0.0
H1034 H 0.17632 0.84653 0.81211 0.0
H1035 H 0.13493 0.85652 0.78002 0.0
H1036 H 0.21229 0.90596 0.85714 0.0
H1037 H 0.26196 0.83747 0.7786 0.0
H1038 H 0.2336 0.86291 0.77024 0.0
H1039 H 0.22398 0.83144 0.7866 0.0
C1040 C 0.16928 0.91798 0.77747 0.0
C1041 C 0.14793 0.89812 0.77172 0.0
C1042 C 0.193 0.91225 0.79557 0.0
C1043 C 0.19616 0.88631 0.8078 0.0
C1044 C 0.17424 0.86673 0.80291 0.0
H1045 H 0.3225 0.793 0.90043 0.0
H1046 H 0.28461 0.81239 0.86994 0.0
C1047 C 0.1503 0.87258 0.78496 0.0
C1048 C 0.22353 0.87908 0.82383 0.0
H1049 H 0.28613 0.8388 0.82193 0.0
C1050 C 0.22857 0.89139 0.84948 0.0
C1051 C 0.24487 0.86037 0.81355 0.0
C1052 C 0.24112 0.84737 0.78565 0.0
C1053 C 0.25374 0.88443 0.86573 0.0
C1054 C 0.27481 0.86518 0.85571 0.0
C1055 C 0.27012 0.85363 0.82961 0.0
C1056 C 0.29981 0.85409 0.87311 0.0
C1057 C 0.25685 0.89679 0.89397 0.0
C1058 C 0.32186 0.8709 0.8846 0.0
C1059 C 0.34389 0.85972 0.90241 0.0
C1060 C 0.34404 0.83162 0.90893 0.0
C1061 C 0.32282 0.81483 0.89624 0.0
C1062 C 0.30108 0.82588 0.87864 0.0
H1063 H 0.23599 0.90697 0.90062 0.0
H1064 H 0.26342 0.88082 0.90929 0.0
H1065 H 0.27434 0.91241 0.89386 0.0
H1066 H 0.32177 0.89265 0.88014 0.0
H1067 H 0.35995 0.87313 0.91184 0.0
H1068 H 0.48729 0.05902 0.09042 0.0
H1069 H 0.47841 0.01576 0.06599 0.0
H1070 H 0.38444 0.02777 0.07545 0.0
H1071 H 0.39317 0.07085 0.09969 0.0
H1072 H 0.44979 0.97072 0.08936 0.0
H1073 H 0.3907 1.00563 0.99455 0.0
H1074 H 0.41242 0.02837 0.01572 0.0
H1075 H 0.37566 0.01963 0.02545 0.0
C1076 C 0.46474 0.05268 0.08673 0.0
C1077 C 0.4409 0.0683 0.09687 0.0
C1078 C 0.4597 0.02795 0.07288 0.0
C1079 C 0.43074 0.01865 0.06864 0.0
C1080 C 0.40692 0.03474 0.07799 0.0
H1081 H 0.34444 0.87071 0.01415 0.0
H1082 H 0.35745 0.91677 0.03011 0.0
C1083 C 0.41195 0.05933 0.09195 0.0
C1084 C 0.4254 0.99109 0.05666 0.0
H1085 H 0.38819 0.95795 1.00519 0.0
C1086 C 0.43663 0.96791 0.07077 0.0
C1087 C 0.40799 0.98745 0.03255 0.0
C1088 C 0.39619 0.01158 0.01601 0.0
C1089 C 0.43017 0.94119 0.06194 0.0
C1090 C 0.41253 0.93752 0.03794 0.0
C1091 C 0.40165 0.96073 0.0236 0.0
C1092 C 0.40474 0.90977 0.02767 0.0
C1093 C 0.44142 0.91719 0.07901 0.0
C1094 C 0.42694 0.89064 0.0206 0.0
C1095 C 0.41955 0.8643 0.01177 0.0
C1096 C 0.3898 0.85669 0.00941 0.0
C1097 C 0.36755 0.87599 0.0159 0.0
C1098 C 0.37497 0.90232 0.02492 0.0
H1099 H 0.44749 0.92352 0.10024 0.0
H1100 H 0.4246 0.90096 0.08006 0.0
H1101 H 0.46151 0.90824 0.06953 0.0
H1102 H 0.45003 0.89606 0.02194 0.0
H1103 H 0.43718 0.84987 1.00684 0.0
H1104 H 0.84377 0.44066 0.76921 0.0
H1105 H 0.8075 0.42976 0.73299 0.0
H1106 H 0.86167 0.36041 0.70886 0.0
H1107 H 0.89715 0.37077 0.7457 0.0
H1108 H 0.8127 0.42396 0.67513 0.0
H1109 H 0.78132 0.32679 0.72521 0.0
H1110 H 0.80262 0.3526 0.74274 0.0
H1111 H 0.82018 0.3295 0.7191 0.0
C1112 C 0.84809 0.42329 0.75592 0.0
C1113 C 0.87378 0.4069 0.75979 0.0
C1114 C 0.82738 0.41712 0.73524 0.0
C1115 C 0.83176 0.39417 0.71834 0.0
C1116 C 0.85774 0.37815 0.72176 0.0
H1117 H 0.73254 0.31134 0.59202 0.0
H1118 H 0.76879 0.32767 0.62543 0.0
C1119 C 0.87844 0.38439 0.74243 0.0
C1120 C 0.80865 0.38643 0.69787 0.0
H1121 H 0.76115 0.33533 0.68074 0.0
C1122 C 0.80131 0.40464 0.67636 0.0
C1123 C 0.79369 0.3613 0.69968 0.0
C1124 C 0.79959 0.34149 0.72304 0.0
C1125 C 0.78003 0.398 0.65611 0.0
C1126 C 0.76536 0.3727 0.65774 0.0
C1127 C 0.77246 0.35469 0.67948 0.0
C1128 C 0.74337 0.36387 0.63663 0.0
C1129 C 0.77409 0.41774 0.63273 0.0
C1130 C 0.71684 0.37878 0.63177 0.0
C1131 C 0.6959 0.36951 0.61247 0.0
C1132 C 0.70107 0.34506 0.59783 0.0
C1133 C 0.72772 0.33028 0.6028 0.0
C1134 C 0.74855 0.33957 0.62197 0.0
H1135 H 0.79192 0.43295 0.63098 0.0
H1136 H 0.77187 0.40659 0.61297 0.0
H1137 H 0.75302 0.42913 0.63627 0.0
H1138 H 0.71209 0.39732 0.64324 0.0
H1139 H 0.67556 0.38129 0.6093 0.0
H1140 H 0.87062 0.46976 0.89176 0.0
H1141 H 0.86508 0.50868 0.92312 0.0
H1142 H 0.95964 0.51832 0.92549 0.0
H1143 H 0.96537 0.47913 0.89412 0.0
H1144 H 0.89428 0.51521 0.9781 0.0
H1145 H 0.92222 0.59577 0.90241 0.0
H1146 H 0.91006 0.5622 0.89195 0.0
H1147 H 0.94672 0.56632 0.90581 0.0
C1148 C 0.89025 0.48005 0.8991 0.0
C1149 C 0.91842 0.47146 0.89051 0.0
C1150 C 0.88705 0.50229 0.91696 0.0
C1151 C 0.9119 0.51658 0.92634 0.0
C1152 C 0.94016 0.50777 0.9182 0.0
H1153 H 0.91634 0.66318 0.03137 0.0
H1154 H 0.93 0.62694 0.99879 0.0
C1155 C 0.9434 0.48531 0.90046 0.0
C1156 C 0.90795 0.54055 0.94477 0.0
H1157 H 0.90929 0.61066 0.9466 0.0
C1158 C 0.89771 0.53607 0.97129 0.0
C1159 C 0.9127 0.56771 0.93588 0.0
C1160 C 0.92339 0.57354 0.90742 0.0
C1161 C 0.89174 0.55804 0.9891 0.0
C1162 C 0.89525 0.58532 0.97985 0.0
C1163 C 0.90637 0.58978 0.95358 0.0
C1164 C 0.88646 0.60931 0.99693 0.0
C1165 C 0.8819 0.55175 0.01777 0.0
C1166 C 0.85723 0.61216 1.00582 0.0
C1167 C 0.84944 0.63293 0.02419 0.0
C1168 C 0.87048 0.65173 0.03351 0.0
C1169 C 0.89939 0.64976 0.02363 0.0
C1170 C 0.90731 0.62876 1.00534 0.0
H1171 H 0.88898 0.53074 0.02426 0.0
H1172 H 0.8909 0.56669 0.03281 0.0
H1173 H 0.85739 0.55295 0.01832 0.0
H1174 H 0.84061 0.59778 0.99918 0.0
H1175 H 0.82708 0.63384 0.03176 0.0
H1176 H 0.75014 0.68684 0.115 0.0
H1177 H 0.70752 0.67529 0.1424 0.0
H1178 H 0.76231 0.67659 0.2158 0.0
H1179 H 0.80513 0.68868 0.18835 0.0
H1180 H 0.70182 0.62919 0.17378 0.0
H1181 H 0.69039 0.72245 0.2384 0.0
H1182 H 0.71261 0.7215 0.20807 0.0
H1183 H 0.72653 0.70648 0.23954 0.0
C1184 C 0.75305 0.68499 0.13703 0.0
C1185 C 0.78093 0.68868 0.14958 0.0
C1186 C 0.72867 0.67834 0.15266 0.0
C1187 C 0.73157 0.67531 0.1812 0.0
C1188 C 0.75937 0.67934 0.19388 0.0
H1189 H 0.60992 0.62199 0.30549 0.0
H1190 H 0.65273 0.63735 0.28009 0.0
C1191 C 0.78384 0.68609 0.17819 0.0
C1192 C 0.7058 0.66642 0.19721 0.0
H1193 H 0.65994 0.68505 0.24915 0.0
C1194 C 0.6926 0.64147 0.19019 0.0
C1195 C 0.69384 0.68239 0.2187 0.0
C1196 C 0.70635 0.70981 0.22654 0.0
C1197 C 0.668 0.63191 0.20419 0.0
C1198 C 0.65589 0.64796 0.22552 0.0
C1199 C 0.66919 0.67282 0.23272 0.0
C1200 C 0.62963 0.63909 0.24082 0.0
C1201 C 0.65558 0.60442 0.19637 0.0
C1202 C 0.60229 0.63527 0.22726 0.0
C1203 C 0.5778 0.62647 0.24177 0.0
C1204 C 0.58021 0.6216 0.2701 0.0
C1205 C 0.60745 0.62572 0.28368 0.0
C1206 C 0.63191 0.63448 0.26919 0.0
H1207 H 0.6717 0.59172 0.18475 0.0
H1208 H 0.64912 0.59283 0.21483 0.0
H1209 H 0.63556 0.60768 0.18315 0.0
H1210 H 0.59985 0.63925 0.20548 0.0
H1211 H 0.55694 0.62379 0.23088 0.0
H1212 H 0.64607 0.3514 0.44881 0.0
H1213 H 0.63227 0.39507 0.42654 0.0
H1214 H 0.62587 0.43374 0.50579 0.0
H1215 H 0.63876 0.38994 0.52803 0.0
H1216 H 0.58087 0.4496 0.4752 0.0
H1217 H 0.68057 0.46111 0.41293 0.0
H1218 H 0.66243 0.42948 0.40573 0.0
H1219 H 0.67831 0.43537 0.43934 0.0
C1220 C 0.64188 0.36927 0.46145 0.0
C1221 C 0.64368 0.3672 0.49019 0.0
C1222 C 0.63422 0.39437 0.44869 0.0
C1223 C 0.62862 0.41815 0.46433 0.0
C1224 C 0.63023 0.41593 0.4931 0.0
H1225 H 0.60846 0.58343 0.38839 0.0
H1226 H 0.62764 0.54387 0.41527 0.0
C1227 C 0.63764 0.39082 0.50585 0.0
C1228 C 0.61989 0.44497 0.45091 0.0
H1229 H 0.63918 0.49061 0.40117 0.0
C1230 C 0.59384 0.45859 0.45918 0.0
C1231 C 0.63692 0.45734 0.43031 0.0
C1232 C 0.66627 0.44523 0.42176 0.0
C1233 C 0.58392 0.48341 0.44695 0.0
C1234 C 0.59997 0.49487 0.42519 0.0
C1235 C 0.62657 0.48183 0.41756 0.0
C1236 C 0.58861 0.51939 0.40924 0.0
C1237 C 0.55636 0.49723 0.45778 0.0
C1238 C 0.56053 0.51889 0.39652 0.0
C1239 C 0.54952 0.5414 0.38142 0.0
C1240 C 0.56637 0.56518 0.37811 0.0
C1241 C 0.59474 0.56565 0.39057 0.0
C1242 C 0.60576 0.54296 0.4059 0.0
H1243 H 0.55285 0.49165 0.47954 0.0
H1244 H 0.55744 0.51991 0.45622 0.0
H1245 H 0.53687 0.49031 0.44566 0.0
H1246 H 0.54708 0.50084 0.39797 0.0
H1247 H 0.52771 0.53987 0.37204 0.0
H1248 H 0.21588 0.36453 0.11695 0.0
H1249 H 0.25034 0.32551 0.12326 0.0
H1250 H 0.32297 0.37719 0.10262 0.0
H1251 H 0.28879 0.41652 0.09801 0.0
H1252 H 0.28648 0.29871 0.09072 0.0
H1253 H 0.35395 0.34636 0.17313 0.0
H1254 H 0.31956 0.36153 0.16078 0.0
H1255 H 0.35316 0.36639 0.14231 0.0
C1256 C 0.23925 0.36761 0.11419 0.0
C1257 C 0.24972 0.39366 0.10758 0.0
C1258 C 0.25893 0.34525 0.11754 0.0
C1259 C 0.28945 0.34845 0.11404 0.0
C1260 C 0.29973 0.3743 0.10635 0.0
H1261 H 0.41433 0.20682 0.10387 0.0
H1262 H 0.38021 0.24501 0.09157 0.0
C1263 C 0.28013 0.39675 0.1035 0.0
C1264 C 0.31044 0.32482 0.11861 0.0
H1265 H 0.37287 0.30487 0.15445 0.0
C1266 C 0.30533 0.30001 0.10474 0.0
C1267 C 0.33487 0.32633 0.13715 0.0
C1268 C 0.34056 0.35148 0.1544 0.0
C1269 C 0.32383 0.27673 0.10896 0.0
C1270 C 0.34875 0.27854 0.12689 0.0
C1271 C 0.35395 0.30344 0.14052 0.0
C1272 C 0.36872 0.25458 0.13348 0.0
C1273 C 0.3158 0.25026 0.0949 0.0
C1274 C 0.37416 0.24747 0.16104 0.0
C1275 C 0.39412 0.22632 0.16803 0.0
C1276 C 0.40894 0.21137 0.14765 0.0
C1277 C 0.40306 0.21788 0.11998 0.0
C1278 C 0.3834 0.23958 0.11296 0.0
H1279 H 0.29213 0.25025 0.08835 0.0
H1280 H 0.32929 0.24768 0.0763 0.0
H1281 H 0.32023 0.23235 0.10856 0.0
H1282 H 0.3631 0.25851 0.1773 0.0
H1283 H 0.3979 0.22164 0.18954 0.0
H1284 H 0.86372 0.31958 0.79554 0.0
H1285 H 0.83867 0.27868 0.81075 0.0
H1286 H 0.85773 0.29985 0.89498 0.0
H1287 H 0.88299 0.34123 0.87983 0.0
H1288 H 0.86756 0.23658 0.841 0.0
H1289 H 0.76973 0.27797 0.89582 0.0
H1290 H 0.79006 0.29832 0.87196 0.0
H1291 H 0.80491 0.2918 0.90579 0.0
C1292 C 0.86225 0.31588 0.81736 0.0
C1293 C 0.87555 0.3337 0.83647 0.0
C1294 C 0.84789 0.2924 0.82601 0.0
C1295 C 0.84623 0.28612 0.85399 0.0
C1296 C 0.85836 0.30443 0.87328 0.0
H1297 H 0.77972 0.13968 0.935 0.0
H1298 H 0.80039 0.1847 0.92505 0.0
C1299 C 0.8728 0.32809 0.8646 0.0
C1300 C 0.83393 0.25933 0.86244 0.0
H1301 H 0.77747 0.22984 0.89667 0.0
C1302 C 0.84785 0.23513 0.85318 0.0
C1303 C 0.80837 0.2574 0.87851 0.0
C1304 C 0.79216 0.2827 0.8885 0.0
C1305 C 0.83695 0.20912 0.85945 0.0
C1306 C 0.81093 0.20713 0.87493 0.0
C1307 C 0.79729 0.23133 0.88467 0.0
C1308 C 0.7975 0.18013 0.88096 0.0
C1309 C 0.85375 0.18398 0.84977 0.0
C1310 C 0.78854 0.16266 0.85953 0.0
C1311 C 0.77695 0.13688 0.86519 0.0
C1312 C 0.77367 0.12815 0.89239 0.0
C1313 C 0.78207 0.14582 0.91383 0.0
C1314 C 0.79378 0.17159 0.90817 0.0
H1315 H 0.87716 0.18862 0.84545 0.0
H1316 H 0.8534 0.16726 0.86521 0.0
H1317 H 0.84331 0.17646 0.83049 0.0
H1318 H 0.79062 0.16893 0.83837 0.0
H1319 H 0.77088 0.12366 0.84823 0.0
H1320 H 0.14474 0.5108 0.13402 0.0
H1321 H 0.10728 0.54815 0.13346 0.0
H1322 H 0.03805 0.4887 0.12926 0.0
H1323 H 0.07509 0.45154 0.1292 0.0
H1324 H 0.0589 0.55599 0.09071 0.0
H1325 H 0.01776 0.54031 0.19611 0.0
H1326 H 0.05389 0.52834 0.18565 0.0
H1327 H 0.0215 0.51011 0.17516 0.0
C1328 C 0.12155 0.50578 0.13268 0.0
C1329 C 0.11283 0.4783 0.13146 0.0
C1330 C 0.10021 0.52706 0.13258 0.0
C1331 C 0.06994 0.52109 0.13173 0.0
C1332 C 0.06128 0.4937 0.13038 0.0
H1333 H 0.9044 0.61627 0.12203 0.0
H1334 H 0.94213 0.57984 0.13053 0.0
C1335 C 0.0825 0.47252 0.13023 0.0
C1336 C 0.04716 0.54337 0.13122 0.0
H1337 H 0.99047 0.57164 0.16772 0.0
C1338 C 0.04409 0.55961 0.10761 0.0
C1339 C 0.02761 0.54763 0.15315 0.0
C1340 C 0.03033 0.53085 0.17909 0.0
C1341 C 0.02165 0.57982 0.10514 0.0
C1342 C 1.00231 0.58446 0.12725 0.0
C1343 C 1.00534 0.56811 0.15086 0.0
C1344 C 0.97935 0.60666 0.12619 0.0
C1345 C 0.01841 0.59554 0.07853 0.0
C1346 C 0.98777 0.63388 0.12237 0.0
C1347 C 0.96646 0.6544 0.11735 0.0
C1348 C 0.93624 0.64827 0.11666 0.0
C1349 C 0.92757 0.62148 0.12269 0.0
C1350 C 0.94908 0.60072 0.12737 0.0
H1351 H 0.02888 0.5843 0.06132 0.0
H1352 H 0.99476 0.59958 0.07307 0.0
H1353 H 0.0295 0.61554 0.08074 0.0
H1354 H 0.01094 0.63907 0.12213 0.0
H1355 H 0.97367 0.67498 0.11294 0.0
H1356 H 0.7315 0.91918 0.3881 0.0
H1357 H 0.69293 0.88615 0.37515 0.0
H1358 H 0.75949 0.82181 0.37031 0.0
H1359 H 0.79757 0.85429 0.38283 0.0
H1360 H 0.7177 0.82164 0.32627 0.0
H1361 H 0.66452 0.82577 0.4282 0.0
H1362 H 0.66848 0.85778 0.41041 0.0
H1363 H 0.70079 0.83928 0.42271 0.0
C1364 C 0.73779 0.89807 0.38393 0.0
C1365 C 0.76748 0.88928 0.38666 0.0
C1366 C 0.71578 0.87918 0.37675 0.0
C1367 C 0.72331 0.85138 0.37209 0.0
C1368 C 0.7531 0.84304 0.37387 0.0
H1369 H 0.64911 0.69133 0.34153 0.0
H1370 H 0.68081 0.73141 0.34695 0.0
C1371 C 0.77485 0.86168 0.38116 0.0
C1372 C 0.70061 0.83034 0.36628 0.0
H1373 H 0.6464 0.79376 0.39644 0.0
C1374 C 0.70187 0.81571 0.34149 0.0
C1375 C 0.68008 0.82252 0.38618 0.0
C1376 C 0.67833 0.83695 0.41348 0.0
C1377 C 0.68341 0.79335 0.33618 0.0
C1378 C 0.66357 0.78493 0.35648 0.0
C1379 C 0.66173 0.80007 0.38094 0.0
C1380 C 0.64459 0.76046 0.35288 0.0
C1381 C 0.68525 0.7791 0.30879 0.0
C1382 C 0.61378 0.76319 0.35515 0.0
C1383 C 0.59578 0.74032 0.35239 0.0
C1384 C 0.60815 0.71414 0.34739 0.0
C1385 C 0.63898 0.71127 0.34528 0.0
C1386 C 0.65706 0.73422 0.34814 0.0
H1387 H 0.69458 0.79266 0.29297 0.0
H1388 H 0.70002 0.76073 0.31085 0.0
H1389 H 0.66315 0.77233 0.30152 0.0
H1390 H 0.60361 0.78311 0.35893 0.0
H1391 H 0.57208 0.74319 0.35412 0.0
H1392 H 0.55092 0.38265 0.6139 0.0
H1393 H 0.5062 0.40916 0.62459 0.0
H1394 H 0.48917 0.42305 0.53832 0.0
H1395 H 0.53409 0.39622 0.52745 0.0
H1396 H 0.49037 0.46403 0.61103 0.0
H1397 H 0.41162 0.38955 0.5657 0.0
H1398 H 0.44993 0.3807 0.57303 0.0
H1399 H 0.44006 0.4012 0.54354 0.0
C1400 C 0.53776 0.39149 0.59719 0.0
C1401 C 0.54586 0.38732 0.56984 0.0
C1402 C 0.51221 0.4066 0.60334 0.0
C1403 C 0.49411 0.41769 0.58225 0.0
C1404 C 0.50256 0.41423 0.55488 0.0
H1405 H 0.32909 0.51247 0.59047 0.0
H1406 H 0.37138 0.48479 0.57517 0.0
C1407 C 0.52829 0.39912 0.5487 0.0
C1408 C 0.46649 0.4328 0.58928 0.0
H1409 H 0.39108 0.42998 0.58481 0.0
C1410 C 0.46866 0.45663 0.60526 0.0
C1411 C 0.4382 0.42308 0.58168 0.0
C1412 C 0.43461 0.39712 0.56521 0.0
C1413 C 0.44333 0.47104 0.61386 0.0
C1414 C 0.41502 0.46102 0.60679 0.0
C1415 C 0.41281 0.43747 0.59037 0.0
C1416 C 0.38756 0.47499 0.61612 0.0
C1417 C 0.44709 0.49711 0.63015 0.0
C1418 C 0.38192 0.47766 0.64421 0.0
C1419 C 0.35772 0.49341 0.65303 0.0
C1420 C 0.3387 0.50664 0.63387 0.0
C1421 C 0.34336 0.50252 0.60573 0.0
C1422 C 0.36756 0.48678 0.59694 0.0
H1423 H 0.46951 0.50563 0.62784 0.0
H1424 H 0.43039 0.51297 0.62371 0.0
H1425 H 0.44404 0.49268 0.65221 0.0
H1426 H 0.39675 0.46822 0.65934 0.0
H1427 H 0.35459 0.49611 0.67482 0.0
H1428 H 0.23926 0.61853 0.66604 0.0
H1429 H 0.22231 0.66539 0.676 0.0
H1430 H 0.20424 0.67917 0.58986 0.0
H1431 H 0.22067 0.63198 0.57988 0.0
H1432 H 0.24224 0.71498 0.65918 0.0
H1433 H 0.12614 0.70202 0.62281 0.0
H1434 H 0.15148 0.67332 0.62785 0.0
H1435 H 0.15348 0.69428 0.59764 0.0
C1436 C 0.23162 0.63153 0.64922 0.0
C1437 C 0.23105 0.62154 0.6222 0.0
C1438 C 0.22198 0.65834 0.65493 0.0
C1439 C 0.21151 0.67575 0.63376 0.0
C1440 C 0.21153 0.66598 0.60664 0.0
H1441 H 0.1322 0.84196 0.64836 0.0
H1442 H 0.15742 0.80141 0.62901 0.0
C1443 C 0.22106 0.63906 0.60093 0.0
C1444 C 0.20065 0.70404 0.64031 0.0
H1445 H 0.13923 0.74617 0.63792 0.0
C1446 C 0.21975 0.72182 0.6544 0.0
C1447 C 0.17131 0.71309 0.63401 0.0
C1448 C 0.14929 0.69465 0.61996 0.0
C1449 C 0.21023 0.74814 0.66267 0.0
C1450 C 0.18073 0.75689 0.65696 0.0
C1451 C 0.16189 0.7395 0.64214 0.0
C1452 C 0.16817 0.78283 0.66835 0.0
C1453 C 0.2318 0.76632 0.67763 0.0
C1454 C 0.16605 0.78595 0.69683 0.0
C1455 C 0.1516 0.80889 0.70786 0.0
C1456 C 0.13893 0.82933 0.69068 0.0
C1457 C 0.14195 0.82672 0.66215 0.0
C1458 C 0.15621 0.8035 0.65107 0.0
H1459 H 0.25508 0.76028 0.67336 0.0
H1460 H 0.22816 0.78818 0.67183 0.0
H1461 H 0.22858 0.76441 0.70003 0.0
H1462 H 0.17465 0.77011 0.71057 0.0
H1463 H 0.14974 0.81027 0.72993 0.0
H1464 H 0.52887 0.8317 0.94673 0.0
H1465 H 0.56777 0.86356 0.93475 0.0
H1466 H 0.50142 0.92603 0.91605 0.0
H1467 H 0.4626 0.89456 0.92919 0.0
H1468 H 0.5807 0.8878 0.88898 0.0
H1469 H 0.55495 0.96893 0.96457 0.0
H1470 H 0.53809 0.93576 0.96545 0.0
H1471 H 0.52375 0.96207 0.94257 0.0
C1472 C 0.52264 0.85232 0.94026 0.0
C1473 C 0.49275 0.86074 0.93908 0.0
C1474 C 0.54488 0.87052 0.93336 0.0
C1475 C 0.53771 0.89748 0.92495 0.0
C1476 C 0.50772 0.90569 0.92326 0.0
H1477 H 0.65567 1.00342 0.83526 0.0
H1478 H 0.61974 0.96931 0.84873 0.0
C1479 C 0.48549 0.88761 0.93056 0.0
C1480 C 0.56156 0.91666 0.91734 0.0
H1481 H 0.58794 0.98089 0.92917 0.0
C1482 C 0.58238 0.90809 0.89793 0.0
C1483 C 0.56423 0.94301 0.9293 0.0
C1484 C 0.54426 0.95288 0.95183 0.0
C1485 C 0.60534 0.9252 0.88985 0.0
C1486 C 0.60707 0.95207 0.90076 0.0
C1487 C 0.58655 0.96046 0.9205 0.0
C1488 C 0.62997 0.97185 0.89223 0.0
C1489 C 0.62787 0.91394 0.87018 0.0
C1490 C 0.64736 0.98528 0.91211 0.0
C1491 C 0.66742 1.00525 0.90447 0.0
C1492 C 0.67082 0.01208 0.87672 0.0
C1493 C 0.65384 0.99835 0.85677 0.0
C1494 C 0.63341 0.97866 0.86446 0.0
H1495 H 0.6293 0.89117 0.87102 0.0
H1496 H 0.62115 0.91985 0.84895 0.0
H1497 H 0.65019 0.92212 0.87465 0.0
H1498 H 0.64511 0.98059 0.93367 0.0
H1499 H 0.67979 0.01576 0.92038 0.0
H1500 H 0.89835 0.96558 0.38194 0.0
H1501 H 0.94482 0.98982 0.38951 0.0
H1502 H 0.89975 0.06687 0.37215 0.0
H1503 H 0.85318 0.04273 0.36475 0.0
H1504 H 0.95643 0.05875 0.34528 0.0
H1505 H 0.96235 0.03889 0.45765 0.0
H1506 H 0.95735 0.0095 0.43587 0.0
H1507 H 0.92861 0.03532 0.43767 0.0
C1508 C 0.89833 0.9877 0.37992 0.0
C1509 C 0.87211 1.00231 0.37302 0.0
C1510 C 0.9249 1.00151 0.38417 0.0
C1511 C 0.92572 0.03017 0.38156 0.0
C1512 C 0.89962 0.04474 0.37424 0.0
H1513 H 0.03502 0.15351 0.44512 0.0
H1514 H 0.99817 0.12085 0.43088 0.0
C1515 C 0.87304 0.03095 0.37011 0.0
C1516 C 0.95352 0.04517 0.3871 0.0
H1517 H 1.00085 0.06399 0.43888 0.0
C1518 C 0.96638 0.05971 0.36567 0.0
C1519 C 0.96636 0.04642 0.41373 0.0
C1520 C 0.95296 0.0319 0.43768 0.0
C1521 C 0.99135 0.07601 0.37033 0.0
C1522 C 1.00385 0.07767 0.39709 0.0
C1523 C 0.99142 0.0625 0.41832 0.0
C1524 C 0.02716 0.09766 0.40444 0.0
C1525 C 1.00339 0.0923 0.34692 0.0
C1526 C 0.05598 0.09574 0.39412 0.0
C1527 C 0.07753 0.11472 0.40227 0.0
C1528 C 0.07057 0.13574 0.421 0.0
C1529 C 0.04153 0.13756 0.43089 0.0
C1530 C 0.02024 0.11882 0.42276 0.0
H1531 H 0.98873 0.09171 0.32838 0.0
H1532 H 0.00632 0.11403 0.35307 0.0
H1533 H 0.02541 0.08372 0.34144 0.0
H1534 H 0.06193 0.07936 0.38015 0.0
H1535 H 0.09965 0.11265 0.39432 0.0
loop_
_geom_bond_atom_site_label_1
_geom_bond_atom_site_label_2
_geom_bond_distance
_geom_bond_site_symmetry_2
_ccdc_geom_bond_type
Tb0 O3 2.453 . S
Tb0 O4 2.596 . S
Tb0 O5 2.374 . S
Tb0 O13 2.343 . S
Tb0 O15 2.353 . S
Tb0 O17 2.427 . S
Tb0 O18 2.513 . S
C1 O5 1.251 . S
C1 O7 1.263 . S
Tb2 O4 2.343 . S
Tb2 O7 2.353 . S
Tb2 O10 2.427 . S
Tb2 O11 2.513 . S
Tb2 O12 2.453 . S
Tb2 O13 2.596 . S
Tb2 O14 2.374 . S
O3 Tb0 2.453 . S
O3 C19 1.245 . S
O4 Tb0 2.596 . S
O4 Tb2 2.343 . S
O4 C19 1.259 . S
O5 Tb0 2.374 . S
O5 C1 1.251 . S
C6 O10 1.275 . S
C6 O11 1.246 . S
O7 C1 1.263 . S
O7 Tb2 2.353 . S
C8 O12 1.245 . S
C8 O13 1.259 . S
C9 O14 1.250 . S
C9 O15 1.263 . S
O10 Tb2 2.427 . S
O10 C6 1.275 . S
O11 Tb2 2.513 . S
O11 C6 1.246 . S
O12 Tb2 2.453 . S
O12 C8 1.245 . S
O13 Tb0 2.343 . S
O13 Tb2 2.596 . S
O13 C8 1.259 . S
O14 Tb2 2.374 . S
O14 C9 1.250 . S
O15 Tb0 2.353 . S
O15 C9 1.263 . S
C16 O17 1.275 . S
C16 O18 1.246 . S
O17 Tb0 2.427 . S
O17 C16 1.275 . S
O18 Tb0 2.513 . S
O18 C16 1.246 . S
C19 O3 1.245 . S
C19 O4 1.259 . S
Tb20 O23 2.453 . S
Tb20 O24 2.596 . S
Tb20 O25 2.374 . S
Tb20 O33 2.343 . S
Tb20 O35 2.353 . S
Tb20 O37 2.427 . S
Tb20 O38 2.513 . S
C21 O25 1.251 . S
C21 O27 1.263 . S
Tb22 O24 2.343 . S
Tb22 O27 2.353 . S
Tb22 O30 2.427 . S
Tb22 O31 2.513 . S
Tb22 O32 2.453 . S
Tb22 O33 2.596 . S
Tb22 O34 2.374 . S
O23 Tb20 2.453 . S
O23 C39 1.245 . S
O24 Tb20 2.596 . S
O24 Tb22 2.343 . S
O24 C39 1.259 . S
O25 Tb20 2.374 . S
O25 C21 1.251 . S
C26 O30 1.275 . S
C26 O31 1.246 . S
O27 C21 1.263 . S
O27 Tb22 2.353 . S
C28 O32 1.245 . S
C28 O33 1.259 . S
C29 O34 1.250 . S
C29 O35 1.263 . S
O30 Tb22 2.427 . S
O30 C26 1.275 . S
O31 Tb22 2.513 . S
O31 C26 1.246 . S
O32 Tb22 2.453 . S
O32 C28 1.245 . S
O33 Tb20 2.343 . S
O33 Tb22 2.596 . S
O33 C28 1.259 . S
O34 Tb22 2.374 . S
O34 C29 1.250 . S
O35 Tb20 2.353 . S
O35 C29 1.263 . S
C36 O37 1.275 . S
C36 O38 1.246 . S
O37 Tb20 2.427 . S
O37 C36 1.275 . S
O38 Tb20 2.513 . S
O38 C36 1.246 . S
C39 O23 1.245 . S
C39 O24 1.259 . S
Tb40 O43 2.453 . S
Tb40 O44 2.596 . S
Tb40 O45 2.374 . S
Tb40 O53 2.343 . S
Tb40 O55 2.353 . S
Tb40 O57 2.427 . S
Tb40 O58 2.513 . S
C41 O45 1.251 . S
C41 O47 1.263 . S
Tb42 O44 2.343 . S
Tb42 O47 2.353 . S
Tb42 O50 2.427 . S
Tb42 O51 2.513 . S
Tb42 O52 2.453 1_556 S
Tb42 O53 2.596 . S
Tb42 O54 2.374 1_556 S
O43 Tb40 2.453 . S
O43 C59 1.245 . S
O44 Tb40 2.596 . S
O44 Tb42 2.343 . S
O44 C59 1.259 . S
O45 Tb40 2.374 . S
O45 C41 1.251 . S
C46 O50 1.275 . S
C46 O51 1.246 . S
O47 C41 1.263 . S
O47 Tb42 2.353 . S
C48 O52 1.245 1_556 S
C48 O53 1.259 . S
C49 O54 1.250 1_556 S
C49 O55 1.263 . S
O50 Tb42 2.427 . S
O50 C46 1.275 . S
O51 Tb42 2.513 . S
O51 C46 1.246 . S
O52 Tb42 2.453 1_554 S
O52 C48 1.245 1_554 S
O53 Tb40 2.343 . S
O53 Tb42 2.596 . S
O53 C48 1.259 . S
O54 Tb42 2.374 1_554 S
O54 C49 1.250 1_554 S
O55 Tb40 2.353 . S
O55 C49 1.263 . S
C56 O57 1.275 . S
C56 O58 1.246 . S
O57 Tb40 2.427 . S
O57 C56 1.275 . S
O58 Tb40 2.513 . S
O58 C56 1.246 . S
C59 O43 1.245 . S
C59 O44 1.259 . S
Tb60 O63 2.453 . S
Tb60 O64 2.596 . S
Tb60 O65 2.374 . S
Tb60 O73 2.343 . S
Tb60 O75 2.353 . S
Tb60 O77 2.427 . S
Tb60 O78 2.513 . S
C61 O65 1.251 . S
C61 O67 1.263 . S
Tb62 O64 2.343 . S
Tb62 O67 2.353 . S
Tb62 O70 2.427 . S
Tb62 O71 2.513 . S
Tb62 O72 2.453 . S
Tb62 O73 2.596 . S
Tb62 O74 2.374 . S
O63 Tb60 2.453 . S
O63 C79 1.245 . S
O64 Tb60 2.596 . S
O64 Tb62 2.343 . S
O64 C79 1.259 . S
O65 Tb60 2.374 . S
O65 C61 1.251 . S
C66 O70 1.275 . S
C66 O71 1.246 . S
O67 C61 1.263 . S
O67 Tb62 2.353 . S
C68 O72 1.245 . S
C68 O73 1.259 . S
C69 O74 1.250 . S
C69 O75 1.263 . S
O70 Tb62 2.427 . S
O70 C66 1.275 . S
O71 Tb62 2.513 . S
O71 C66 1.246 . S
O72 Tb62 2.453 . S
O72 C68 1.245 . S
O73 Tb60 2.343 . S
O73 Tb62 2.596 . S
O73 C68 1.259 . S
O74 Tb62 2.374 . S
O74 C69 1.250 . S
O75 Tb60 2.353 . S
O75 C69 1.263 . S
C76 O77 1.275 . S
C76 O78 1.246 . S
O77 Tb60 2.427 . S
O77 C76 1.275 . S
O78 Tb60 2.513 . S
O78 C76 1.246 . S
C79 O63 1.245 . S
C79 O64 1.259 . S
Tb80 O83 2.453 . S
Tb80 O84 2.596 . S
Tb80 O85 2.374 . S
Tb80 O93 2.343 . S
Tb80 O95 2.353 . S
Tb80 O97 2.427 . S
Tb80 O98 2.513 . S
C81 O85 1.251 . S
C81 O87 1.263 . S
Tb82 O84 2.343 . S
Tb82 O87 2.353 . S
Tb82 O90 2.427 . S
Tb82 O91 2.513 . S
Tb82 O92 2.453 . S
Tb82 O93 2.596 . S
Tb82 O94 2.374 . S
O83 Tb80 2.453 . S
O83 C99 1.245 . S
O84 Tb80 2.596 . S
O84 Tb82 2.343 . S
O84 C99 1.259 . S
O85 Tb80 2.374 . S
O85 C81 1.251 . S
C86 O90 1.275 . S
C86 O91 1.246 . S
O87 C81 1.263 . S
O87 Tb82 2.353 . S
C88 O92 1.245 . S
C88 O93 1.259 . S
C89 O94 1.250 . S
C89 O95 1.263 . S
O90 Tb82 2.427 . S
O90 C86 1.275 . S
O91 Tb82 2.513 . S
O91 C86 1.246 . S
O92 Tb82 2.453 . S
O92 C88 1.245 . S
O93 Tb80 2.343 . S
O93 Tb82 2.596 . S
O93 C88 1.259 . S
O94 Tb82 2.374 . S
O94 C89 1.250 . S
O95 Tb80 2.353 . S
O95 C89 1.263 . S
C96 O97 1.275 . S
C96 O98 1.246 . S
O97 Tb80 2.427 . S
O97 C96 1.275 . S
O98 Tb80 2.513 . S
O98 C96 1.246 . S
C99 O83 1.245 . S
C99 O84 1.259 . S
Tb100 O103 2.453 . S
Tb100 O104 2.596 . S
Tb100 O105 2.374 . S
Tb100 O113 2.343 . S
Tb100 O115 2.353 . S
Tb100 O117 2.427 . S
Tb100 O118 2.513 . S
C101 O105 1.251 . S
C101 O107 1.263 . S
Tb102 O104 2.343 . S
Tb102 O107 2.353 . S
Tb102 O110 2.427 . S
Tb102 O111 2.513 . S
Tb102 O112 2.453 . S
Tb102 O113 2.596 . S
Tb102 O114 2.374 . S
O103 Tb100 2.453 . S
O103 C119 1.245 . S
O104 Tb100 2.596 . S
O104 Tb102 2.343 . S
O104 C119 1.259 . S
O105 Tb100 2.374 . S
O105 C101 1.251 . S
C106 O110 1.275 . S
C106 O111 1.246 . S
O107 C101 1.263 . S
O107 Tb102 2.353 . S
C108 O112 1.245 . S
C108 O113 1.259 . S
C109 O114 1.250 . S
C109 O115 1.263 . S
O110 Tb102 2.427 . S
O110 C106 1.275 . S
O111 Tb102 2.513 . S
O111 C106 1.246 . S
O112 Tb102 2.453 . S
O112 C108 1.245 . S
O113 Tb100 2.343 . S
O113 Tb102 2.596 . S
O113 C108 1.259 . S
O114 Tb102 2.374 . S
O114 C109 1.250 . S
O115 Tb100 2.353 . S
O115 C109 1.263 . S
C116 O117 1.275 . S
C116 O118 1.246 . S
O117 Tb100 2.427 . S
O117 C116 1.275 . S
O118 Tb100 2.513 . S
O118 C116 1.246 . S
C119 O103 1.245 . S
C119 O104 1.259 . S
Tb120 O123 2.453 . S
Tb120 O124 2.596 . S
Tb120 O125 2.374 . S
Tb120 O133 2.343 . S
Tb120 O135 2.353 . S
Tb120 O137 2.427 . S
Tb120 O138 2.513 . S
C121 O125 1.251 . S
C121 O127 1.263 . S
Tb122 O124 2.343 . S
Tb122 O127 2.353 . S
Tb122 O130 2.427 . S
Tb122 O131 2.513 . S
Tb122 O132 2.453 . S
Tb122 O133 2.596 . S
Tb122 O134 2.374 . S
O123 Tb120 2.453 . S
O123 C139 1.245 . S
O124 Tb120 2.596 . S
O124 Tb122 2.343 . S
O124 C139 1.259 . S
O125 Tb120 2.374 . S
O125 C121 1.251 . S
C126 O130 1.275 . S
C126 O131 1.246 . S
O127 C121 1.263 . S
O127 Tb122 2.353 . S
C128 O132 1.245 . S
C128 O133 1.259 . S
C129 O134 1.250 . S
C129 O135 1.263 . S
O130 Tb122 2.427 . S
O130 C126 1.275 . S
O131 Tb122 2.513 . S
O131 C126 1.246 . S
O132 Tb122 2.453 . S
O132 C128 1.245 . S
O133 Tb120 2.343 . S
O133 Tb122 2.596 . S
O133 C128 1.259 . S
O134 Tb122 2.374 . S
O134 C129 1.250 . S
O135 Tb120 2.353 . S
O135 C129 1.263 . S
C136 O137 1.275 . S
C136 O138 1.246 . S
O137 Tb120 2.427 . S
O137 C136 1.275 . S
O138 Tb120 2.513 . S
O138 C136 1.246 . S
C139 O123 1.245 . S
C139 O124 1.259 . S
Tb140 O143 2.453 . S
Tb140 O144 2.596 . S
Tb140 O145 2.374 . S
Tb140 O153 2.343 . S
Tb140 O155 2.353 . S
Tb140 O157 2.427 . S
Tb140 O158 2.513 . S
C141 O145 1.251 . S
C141 O147 1.263 . S
Tb142 O144 2.343 . S
Tb142 O147 2.353 . S
Tb142 O150 2.427 . S
Tb142 O151 2.513 . S
Tb142 O152 2.453 . S
Tb142 O153 2.596 . S
Tb142 O154 2.374 . S
O143 Tb140 2.453 . S
O143 C159 1.245 . S
O144 Tb140 2.596 . S
O144 Tb142 2.343 . S
O144 C159 1.259 . S
O145 Tb140 2.374 . S
O145 C141 1.251 . S
C146 O150 1.275 . S
C146 O151 1.246 . S
O147 C141 1.263 . S
O147 Tb142 2.353 . S
C148 O152 1.245 . S
C148 O153 1.259 . S
C149 O154 1.250 . S
C149 O155 1.263 . S
O150 Tb142 2.427 . S
O150 C146 1.275 . S
O151 Tb142 2.513 . S
O151 C146 1.246 . S
O152 Tb142 2.453 . S
O152 C148 1.245 . S
O153 Tb140 2.343 . S
O153 Tb142 2.596 . S
O153 C148 1.259 . S
O154 Tb142 2.374 . S
O154 C149 1.250 . S
O155 Tb140 2.353 . S
O155 C149 1.263 . S
C156 O157 1.275 . S
C156 O158 1.246 . S
O157 Tb140 2.427 . S
O157 C156 1.275 . S
O158 Tb140 2.513 . S
O158 C156 1.246 . S
C159 O143 1.245 . S
C159 O144 1.259 . S
Tb160 O163 2.453 . S
Tb160 O164 2.596 . S
Tb160 O165 2.374 . S
Tb160 O173 2.343 . S
Tb160 O175 2.353 . S
Tb160 O177 2.427 . S
Tb160 O178 2.513 . S
C161 O165 1.251 . S
C161 O167 1.263 . S
Tb162 O164 2.343 . S
Tb162 O167 2.353 . S
Tb162 O170 2.427 . S
Tb162 O171 2.513 . S
Tb162 O172 2.453 . S
Tb162 O173 2.596 . S
Tb162 O174 2.374 . S
O163 Tb160 2.453 . S
O163 C179 1.245 . S
O164 Tb160 2.596 . S
O164 Tb162 2.343 . S
O164 C179 1.259 . S
O165 Tb160 2.374 . S
O165 C161 1.251 . S
C166 O170 1.275 . S
C166 O171 1.246 . S
O167 C161 1.263 . S
O167 Tb162 2.353 . S
C168 O172 1.245 . S
C168 O173 1.259 . S
C169 O174 1.250 . S
C169 O175 1.263 . S
O170 Tb162 2.427 . S
O170 C166 1.275 . S
O171 Tb162 2.513 . S
O171 C166 1.246 . S
O172 Tb162 2.453 . S
O172 C168 1.245 . S
O173 Tb160 2.343 . S
O173 Tb162 2.596 . S
O173 C168 1.259 . S
O174 Tb162 2.374 . S
O174 C169 1.250 . S
O175 Tb160 2.353 . S
O175 C169 1.263 . S
C176 O177 1.275 . S
C176 O178 1.246 . S
O177 Tb160 2.427 . S
O177 C176 1.275 . S
O178 Tb160 2.513 . S
O178 C176 1.246 . S
C179 O163 1.245 . S
C179 O164 1.259 . S
Tb180 O183 2.453 . S
Tb180 O184 2.596 . S
Tb180 O185 2.374 . S
Tb180 O193 2.343 . S
Tb180 O195 2.353 . S
Tb180 O197 2.427 . S
Tb180 O198 2.513 . S
C181 O185 1.251 . S
C181 O187 1.263 . S
Tb182 O184 2.343 . S
Tb182 O187 2.353 . S
Tb182 O190 2.427 . S
Tb182 O191 2.513 1_545 S
Tb182 O192 2.453 . S
Tb182 O193 2.596 . S
Tb182 O194 2.374 . S
O183 Tb180 2.453 . S
O183 C199 1.245 . S
O184 Tb180 2.596 . S
O184 Tb182 2.343 . S
O184 C199 1.259 . S
O185 Tb180 2.374 . S
O185 C181 1.251 . S
C186 O190 1.275 1_565 S
C186 O191 1.246 . S
O187 C181 1.263 . S
O187 Tb182 2.353 . S
C188 O192 1.245 . S
C188 O193 1.259 . S
C189 O194 1.250 . S
C189 O195 1.263 . S
O190 Tb182 2.427 . S
O190 C186 1.275 1_545 S
O191 Tb182 2.513 1_565 S
O191 C186 1.246 . S
O192 Tb182 2.453 . S
O192 C188 1.245 . S
O193 Tb180 2.343 . S
O193 Tb182 2.596 . S
O193 C188 1.259 . S
O194 Tb182 2.374 . S
O194 C189 1.250 . S
O195 Tb180 2.353 . S
O195 C189 1.263 . S
C196 O197 1.275 . S
C196 O198 1.246 . S
O197 Tb180 2.427 . S
O197 C196 1.275 . S
O198 Tb180 2.513 . S
O198 C196 1.246 . S
C199 O183 1.245 . S
C199 O184 1.259 . S
Tb200 O203 2.453 . S
Tb200 O204 2.596 . S
Tb200 O205 2.374 . S
Tb200 O213 2.343 . S
Tb200 O215 2.353 . S
Tb200 O217 2.427 . S
Tb200 O218 2.513 . S
C201 O205 1.251 . S
C201 O207 1.263 . S
Tb202 O204 2.343 . S
Tb202 O207 2.353 . S
Tb202 O210 2.427 . S
Tb202 O211 2.513 . S
Tb202 O212 2.453 . S
Tb202 O213 2.596 . S
Tb202 O214 2.374 . S
O203 Tb200 2.453 . S
O203 C219 1.245 . S
O204 Tb200 2.596 . S
O204 Tb202 2.343 . S
O204 C219 1.259 . S
O205 Tb200 2.374 . S
O205 C201 1.251 . S
C206 O210 1.275 . S
C206 O211 1.246 . S
O207 C201 1.263 . S
O207 Tb202 2.353 . S
C208 O212 1.245 . S
C208 O213 1.259 . S
C209 O214 1.250 . S
C209 O215 1.263 . S
O210 Tb202 2.427 . S
O210 C206 1.275 . S
O211 Tb202 2.513 . S
O211 C206 1.246 . S
O212 Tb202 2.453 . S
O212 C208 1.245 . S
O213 Tb200 2.343 . S
O213 Tb202 2.596 . S
O213 C208 1.259 . S
O214 Tb202 2.374 . S
O214 C209 1.250 . S
O215 Tb200 2.353 . S
O215 C209 1.263 . S
C216 O217 1.275 . S
C216 O218 1.246 . S
O217 Tb200 2.427 . S
O217 C216 1.275 . S
O218 Tb200 2.513 . S
O218 C216 1.246 . S
C219 O203 1.245 . S
C219 O204 1.259 . S
Tb220 O223 2.453 . S
Tb220 O224 2.596 . S
Tb220 O225 2.374 . S
Tb220 O233 2.343 . S
Tb220 O235 2.353 . S
Tb220 O237 2.427 . S
Tb220 O238 2.513 . S
C221 O225 1.251 . S
C221 O227 1.263 . S
Tb222 O224 2.343 . S
Tb222 O227 2.353 . S
Tb222 O230 2.427 . S
Tb222 O231 2.513 . S
Tb222 O232 2.453 . S
Tb222 O233 2.596 . S
Tb222 O234 2.374 . S
O223 Tb220 2.453 . S
O223 C239 1.245 . S
O224 Tb220 2.596 . S
O224 Tb222 2.343 . S
O224 C239 1.259 . S
O225 Tb220 2.374 . S
O225 C221 1.251 . S
C226 O230 1.275 . S
C226 O231 1.246 . S
O227 C221 1.263 . S
O227 Tb222 2.353 . S
C228 O232 1.245 . S
C228 O233 1.259 . S
C229 O234 1.250 . S
C229 O235 1.263 . S
O230 Tb222 2.427 . S
O230 C226 1.275 . S
O231 Tb222 2.513 . S
O231 C226 1.246 . S
O232 Tb222 2.453 . S
O232 C228 1.245 . S
O233 Tb220 2.343 . S
O233 Tb222 2.596 . S
O233 C228 1.259 . S
O234 Tb222 2.374 . S
O234 C229 1.250 . S
O235 Tb220 2.353 . S
O235 C229 1.263 . S
C236 O237 1.275 . S
C236 O238 1.246 . S
O237 Tb220 2.427 . S
O237 C236 1.275 . S
O238 Tb220 2.513 . S
O238 C236 1.246 . S
C239 O223 1.245 . S
C239 O224 1.259 . S
H240 C248 0.929 . S
H241 C250 0.930 . S
H242 C252 0.930 . S
H243 C255 0.929 . S
H244 C258 0.930 . S
H245 C260 0.960 . S
H246 C260 0.960 . S
H247 C260 0.960 . S
C248 H240 0.929 . S
C248 C249 1.377 . S
C248 C250 1.384 . S
C249 C248 1.377 . S
C249 C255 1.390 . S
C250 H241 0.930 . S
C250 C248 1.384 . S
C250 C251 1.372 . S
C251 C250 1.372 . S
C251 C252 1.400 . S
C251 C256 1.490 . S
C252 H242 0.930 . S
C252 C251 1.400 . S
C252 C255 1.386 . S
H253 C269 0.930 . S
H254 C270 0.931 . S
C255 H243 0.929 . S
C255 C249 1.390 . S
C255 C252 1.386 . S
C256 C251 1.490 . S
C256 C258 1.395 . S
C256 C259 1.403 . S
H257 C263 0.930 . S
C258 H244 0.930 . S
C258 C256 1.395 . S
C258 C261 1.403 . S
C259 C256 1.403 . S
C259 C260 1.524 . S
C259 C263 1.400 . S
C260 H245 0.960 . S
C260 H246 0.960 . S
C260 H247 0.960 . S
C260 C259 1.524 . S
C261 C258 1.403 . S
C261 C262 1.392 . S
C261 C265 1.495 . S
C262 C261 1.392 . S
C262 C263 1.385 . S
C262 C264 1.478 . S
C263 H257 0.930 . S
C263 C259 1.400 . S
C263 C262 1.385 . S
C264 C262 1.478 . S
C264 C266 1.381 . S
C264 C270 1.383 . S
C265 C261 1.495 . S
C265 H271 0.959 . S
C265 H272 0.961 . S
C265 H273 0.960 . S
C266 C264 1.381 . S
C266 C267 1.394 . S
C266 H274 0.930 . S
C267 C266 1.394 . S
C267 C268 1.383 . S
C267 H275 0.929 . S
C268 C267 1.383 . S
C268 C269 1.377 . S
C269 H253 0.930 . S
C269 C268 1.377 . S
C269 C270 1.379 . S
C270 H254 0.931 . S
C270 C264 1.383 . S
C270 C269 1.379 . S
H271 C265 0.959 . S
H272 C265 0.961 . S
H273 C265 0.960 . S
H274 C266 0.930 . S
H275 C267 0.929 . S
H276 C284 0.929 . S
H277 C286 0.930 . S
H278 C288 0.930 . S
H279 C291 0.929 . S
H280 C294 0.931 . S
H281 C296 0.960 . S
H282 C296 0.960 . S
H283 C296 0.960 . S
C284 H276 0.929 . S
C284 C285 1.377 . S
C284 C286 1.384 . S
C285 C284 1.377 . S
C285 C291 1.390 1_545 S
C286 H277 0.930 . S
C286 C284 1.384 . S
C286 C287 1.347 1_545 S
C287 C286 1.347 1_565 S
C287 C288 1.416 . S
C287 C292 1.498 . S
C288 H278 0.930 . S
C288 C287 1.416 . S
C288 C291 1.386 . S
H289 C305 0.930 . S
H290 C306 0.931 . S
C291 H279 0.929 . S
C291 C285 1.390 1_565 S
C291 C288 1.386 . S
C292 C287 1.498 . S
C292 C294 1.394 1_565 S
C292 C295 1.403 . S
H293 C299 0.930 . S
C294 H280 0.931 . S
C294 C292 1.394 1_545 S
C294 C297 1.403 1_545 S
C295 C292 1.403 . S
C295 C296 1.524 . S
C295 C299 1.400 . S
C296 H281 0.960 . S
C296 H282 0.960 . S
C296 H283 0.960 . S
C296 C295 1.524 . S
C297 C294 1.403 1_565 S
C297 C298 1.392 . S
C297 C301 1.495 1_565 S
C298 C297 1.392 . S
C298 C299 1.385 . S
C298 C300 1.478 . S
C299 H293 0.930 . S
C299 C295 1.400 . S
C299 C298 1.385 . S
C300 C298 1.478 . S
C300 C302 1.381 . S
C300 C306 1.383 . S
C301 C297 1.495 1_545 S
C301 H307 0.959 . S
C301 H308 0.961 1_545 S
C301 H309 0.960 . S
C302 C300 1.381 . S
C302 C303 1.394 . S
C302 H310 0.930 . S
C303 C302 1.394 . S
C303 C304 1.383 1_655 S
C303 H311 0.929 1_655 S
C304 C303 1.383 1_455 S
C304 C305 1.377 1_455 S
C305 H289 0.930 . S
C305 C304 1.377 1_655 S
C305 C306 1.379 . S
C306 H290 0.931 . S
C306 C300 1.383 . S
C306 C305 1.379 . S
H307 C301 0.959 . S
H308 C301 0.961 1_565 S
H309 C301 0.960 . S
H310 C302 0.930 . S
H311 C303 0.929 1_455 S
H312 C320 0.929 . S
H313 C322 0.930 . S
H314 C324 0.930 . S
H315 C327 0.929 . S
H316 C330 0.930 . S
H317 C332 0.960 . S
H318 C332 0.960 . S
H319 C332 0.960 . S
C320 H312 0.929 . S
C320 C321 1.377 . S
C320 C322 1.384 . S
C321 C320 1.377 . S
C321 C327 1.390 . S
C322 H313 0.930 . S
C322 C320 1.384 . S
C322 C323 1.372 . S
C323 C322 1.372 . S
C323 C324 1.400 . S
C323 C328 1.490 1_556 S
C324 H314 0.930 . S
C324 C323 1.400 . S
C324 C327 1.386 . S
H325 C341 0.930 . S
H326 C342 0.931 . S
C327 H315 0.929 . S
C327 C321 1.390 . S
C327 C324 1.386 . S
C328 C323 1.490 1_554 S
C328 C330 1.395 1_554 S
C328 C331 1.403 . S
H329 C335 0.930 . S
C330 H316 0.930 . S
C330 C328 1.395 1_556 S
C330 C333 1.403 . S
C331 C328 1.403 . S
C331 C332 1.524 . S
C331 C335 1.400 . S
C332 H317 0.960 . S
C332 H318 0.960 . S
C332 H319 0.960 . S
C332 C331 1.524 . S
C333 C330 1.403 . S
C333 C334 1.392 1_556 S
C333 C337 1.495 . S
C334 C333 1.392 1_554 S
C334 C335 1.385 . S
C334 C336 1.478 . S
C335 H329 0.930 . S
C335 C331 1.400 . S
C335 C334 1.385 . S
C336 C334 1.478 . S
C336 C338 1.381 . S
C336 C342 1.383 . S
C337 C333 1.495 . S
C337 H343 0.959 . S
C337 H344 0.961 . S
C337 H345 0.960 . S
C338 C336 1.381 . S
C338 C339 1.394 . S
C338 H346 0.930 . S
C339 C338 1.394 . S
C339 C340 1.383 . S
C339 H347 0.929 . S
C340 C339 1.383 . S
C340 C341 1.377 . S
C341 H325 0.930 . S
C341 C340 1.377 . S
C341 C342 1.379 . S
C342 H326 0.931 . S
C342 C336 1.383 . S
C342 C341 1.379 . S
H343 C337 0.959 . S
H344 C337 0.961 . S
H345 C337 0.960 . S
H346 C338 0.930 . S
H347 C339 0.929 . S
H348 C356 0.929 . S
H349 C358 0.930 . S
H350 C360 0.930 . S
H351 C363 0.929 . S
H352 C366 0.930 . S
H353 C368 0.960 . S
H354 C368 0.960 . S
H355 C368 0.960 . S
C356 H348 0.929 . S
C356 C357 1.377 . S
C356 C358 1.384 . S
C357 C356 1.377 . S
C357 C363 1.390 . S
C358 H349 0.930 . S
C358 C356 1.384 . S
C358 C359 1.372 . S
C359 C358 1.372 . S
C359 C360 1.400 . S
C359 C364 1.490 . S
C360 H350 0.930 . S
C360 C359 1.400 . S
C360 C363 1.386 . S
H361 C377 0.930 . S
H362 C378 0.931 . S
C363 H351 0.929 . S
C363 C357 1.390 . S
C363 C360 1.386 . S
C364 C359 1.490 . S
C364 C366 1.395 . S
C364 C367 1.403 . S
H365 C371 0.930 . S
C366 H352 0.930 . S
C366 C364 1.395 . S
C366 C369 1.403 . S
C367 C364 1.403 . S
C367 C368 1.524 . S
C367 C371 1.400 . S
C368 H353 0.960 . S
C368 H354 0.960 . S
C368 H355 0.960 . S
C368 C367 1.524 . S
C369 C366 1.403 . S
C369 C370 1.392 . S
C369 C373 1.495 1_545 S
C370 C369 1.392 . S
C370 C371 1.385 . S
C370 C372 1.478 1_545 S
C371 H365 0.930 . S
C371 C367 1.400 . S
C371 C370 1.385 . S
C372 C370 1.478 1_565 S
C372 C374 1.381 . S
C372 C378 1.383 . S
C373 C369 1.495 1_565 S
C373 H379 0.959 . S
C373 H380 0.961 . S
C373 H381 0.960 . S
C374 C372 1.381 . S
C374 C375 1.394 . S
C374 H382 0.930 1_565 S
C375 C374 1.394 . S
C375 C376 1.383 . S
C375 H383 0.929 . S
C376 C375 1.383 . S
C376 C377 1.377 . S
C377 H361 0.930 . S
C377 C376 1.377 . S
C377 C378 1.379 . S
C378 H362 0.931 . S
C378 C372 1.383 . S
C378 C377 1.379 . S
H379 C373 0.959 . S
H380 C373 0.961 . S
H381 C373 0.960 . S
H382 C374 0.930 1_545 S
H383 C375 0.929 . S
H384 C392 0.929 . S
H385 C394 0.930 . S
H386 C396 0.930 . S
H387 C399 0.929 . S
H388 C402 0.930 . S
H389 C404 0.960 . S
H390 C404 0.960 . S
H391 C404 0.960 . S
C392 H384 0.929 . S
C392 C393 1.377 . S
C392 C394 1.384 . S
C393 C392 1.377 . S
C393 C399 1.390 . S
C394 H385 0.930 . S
C394 C392 1.384 . S
C394 C395 1.372 . S
C395 C394 1.372 . S
C395 C396 1.400 . S
C395 C400 1.490 . S
C396 H386 0.930 . S
C396 C395 1.400 . S
C396 C399 1.386 . S
H397 C413 0.930 . S
H398 C414 0.931 . S
C399 H387 0.929 . S
C399 C393 1.390 . S
C399 C396 1.386 . S
C400 C395 1.490 . S
C400 C402 1.395 . S
C400 C403 1.403 . S
H401 C407 0.930 . S
C402 H388 0.930 . S
C402 C400 1.395 . S
C402 C405 1.403 . S
C403 C400 1.403 . S
C403 C404 1.524 . S
C403 C407 1.400 . S
C404 H389 0.960 . S
C404 H390 0.960 . S
C404 H391 0.960 . S
C404 C403 1.524 . S
C405 C402 1.403 . S
C405 C406 1.392 . S
C405 C409 1.495 . S
C406 C405 1.392 . S
C406 C407 1.385 . S
C406 C408 1.478 . S
C407 H401 0.930 . S
C407 C403 1.400 . S
C407 C406 1.385 . S
C408 C406 1.478 . S
C408 C410 1.381 . S
C408 C414 1.383 . S
C409 C405 1.495 . S
C409 H415 0.959 . S
C409 H416 0.961 . S
C409 H417 0.960 . S
C410 C408 1.381 . S
C410 C411 1.394 . S
C410 H418 0.930 . S
C411 C410 1.394 . S
C411 C412 1.383 . S
C411 H419 0.929 . S
C412 C411 1.383 . S
C412 C413 1.377 . S
C413 H397 0.930 . S
C413 C412 1.377 . S
C413 C414 1.379 . S
C414 H398 0.931 . S
C414 C408 1.383 . S
C414 C413 1.379 . S
H415 C409 0.959 . S
H416 C409 0.961 . S
H417 C409 0.960 . S
H418 C410 0.930 . S
H419 C411 0.929 . S
H420 C428 0.929 1_655 S
H421 C430 0.930 . S
H422 C432 0.930 . S
H423 C435 0.929 . S
H424 C438 0.930 . S
H425 C440 0.960 . S
H426 C440 0.960 . S
H427 C440 0.960 . S
C428 H420 0.929 1_455 S
C428 C429 1.377 . S
C428 C430 1.384 . S
C429 C428 1.377 . S
C429 C435 1.390 . S
C430 H421 0.930 . S
C430 C428 1.384 . S
C430 C431 1.372 . S
C431 C430 1.372 . S
C431 C432 1.400 . S
C431 C436 1.490 . S
C432 H422 0.930 . S
C432 C431 1.400 . S
C432 C435 1.386 . S
H433 C449 0.930 . S
H434 C450 0.931 . S
C435 H423 0.929 . S
C435 C429 1.390 . S
C435 C432 1.386 . S
C436 C431 1.490 . S
C436 C438 1.395 . S
C436 C439 1.403 . S
H437 C443 0.930 . S
C438 H424 0.930 . S
C438 C436 1.395 . S
C438 C441 1.403 . S
C439 C436 1.403 . S
C439 C440 1.524 . S
C439 C443 1.400 . S
C440 H425 0.960 . S
C440 H426 0.960 . S
C440 H427 0.960 . S
C440 C439 1.524 . S
C441 C438 1.403 . S
C441 C442 1.392 . S
C441 C445 1.495 . S
C442 C441 1.392 . S
C442 C443 1.385 . S
C442 C444 1.478 . S
C443 H437 0.930 . S
C443 C439 1.400 . S
C443 C442 1.385 . S
C444 C442 1.478 . S
C444 C446 1.381 . S
C444 C450 1.383 . S
C445 C441 1.495 . S
C445 H451 0.959 . S
C445 H452 0.961 . S
C445 H453 0.960 . S
C446 C444 1.381 . S
C446 C447 1.394 . S
C446 H454 0.930 . S
C447 C446 1.394 . S
C447 C448 1.383 . S
C447 H455 0.929 . S
C448 C447 1.383 . S
C448 C449 1.377 . S
C449 H433 0.930 . S
C449 C448 1.377 . S
C449 C450 1.379 . S
C450 H434 0.931 . S
C450 C444 1.383 . S
C450 C449 1.379 . S
H451 C445 0.959 . S
H452 C445 0.961 . S
H453 C445 0.960 . S
H454 C446 0.930 . S
H455 C447 0.929 . S
H456 C464 0.929 . S
H457 C466 0.930 . S
H458 C468 0.930 . S
H459 C471 0.929 . S
H460 C474 0.930 . S
H461 C476 0.960 . S
H462 C476 0.960 . S
H463 C476 0.960 . S
C464 H456 0.929 . S
C464 C465 1.377 . S
C464 C466 1.384 . S
C465 C464 1.377 . S
C465 C471 1.390 . S
C466 H457 0.930 . S
C466 C464 1.384 . S
C466 C467 1.372 . S
C467 C466 1.372 . S
C467 C468 1.400 . S
C467 C472 1.490 . S
C468 H458 0.930 . S
C468 C467 1.400 . S
C468 C471 1.386 . S
H469 C485 0.930 . S
H470 C486 0.931 . S
C471 H459 0.929 . S
C471 C465 1.390 . S
C471 C468 1.386 . S
C472 C467 1.490 . S
C472 C474 1.395 1_556 S
C472 C475 1.403 . S
H473 C479 0.930 . S
C474 H460 0.930 . S
C474 C472 1.395 1_554 S
C474 C477 1.403 . S
C475 C472 1.403 . S
C475 C476 1.524 . S
C475 C479 1.400 . S
C476 H461 0.960 . S
C476 H462 0.960 . S
C476 H463 0.960 . S
C476 C475 1.524 . S
C477 C474 1.403 . S
C477 C478 1.392 . S
C477 C481 1.495 . S
C478 C477 1.392 . S
C478 C479 1.385 1_554 S
C478 C480 1.478 . S
C479 H473 0.930 . S
C479 C475 1.400 . S
C479 C478 1.385 1_556 S
C480 C478 1.478 . S
C480 C482 1.381 . S
C480 C486 1.383 . S
C481 C477 1.495 . S
C481 H487 0.959 . S
C481 H488 0.961 . S
C481 H489 0.960 . S
C482 C480 1.381 . S
C482 C483 1.394 . S
C482 H490 0.930 . S
C483 C482 1.394 . S
C483 C484 1.383 . S
C483 H491 0.929 . S
C484 C483 1.383 . S
C484 C485 1.377 . S
C485 H469 0.930 . S
C485 C484 1.377 . S
C485 C486 1.379 . S
C486 H470 0.931 . S
C486 C480 1.383 . S
C486 C485 1.379 . S
H487 C481 0.959 . S
H488 C481 0.961 . S
H489 C481 0.960 . S
H490 C482 0.930 . S
H491 C483 0.929 . S
H492 C500 0.929 . S
H493 C502 0.930 . S
H494 C504 0.930 . S
H495 C507 0.929 . S
H496 C510 0.930 . S
H497 C512 0.960 . S
H498 C512 0.960 . S
H499 C512 0.960 . S
C500 H492 0.929 . S
C500 C501 1.377 . S
C500 C502 1.384 . S
C501 C500 1.377 . S
C501 C507 1.390 . S
C502 H493 0.930 . S
C502 C500 1.384 . S
C502 C503 1.372 . S
C503 C502 1.372 . S
C503 C504 1.400 . S
C503 C508 1.490 . S
C504 H494 0.930 . S
C504 C503 1.400 . S
C504 C507 1.386 . S
H505 C521 0.930 . S
H506 C522 0.931 . S
C507 H495 0.929 . S
C507 C501 1.390 . S
C507 C504 1.386 . S
C508 C503 1.490 . S
C508 C510 1.395 . S
C508 C511 1.403 . S
H509 C515 0.930 . S
C510 H496 0.930 . S
C510 C508 1.395 . S
C510 C513 1.403 . S
C511 C508 1.403 . S
C511 C512 1.524 . S
C511 C515 1.400 . S
C512 H497 0.960 . S
C512 H498 0.960 . S
C512 H499 0.960 . S
C512 C511 1.524 . S
C513 C510 1.403 . S
C513 C514 1.392 . S
C513 C517 1.495 . S
C514 C513 1.392 . S
C514 C515 1.385 . S
C514 C516 1.478 . S
C515 H509 0.930 . S
C515 C511 1.400 . S
C515 C514 1.385 . S
C516 C514 1.478 . S
C516 C518 1.381 . S
C516 C522 1.383 . S
C517 C513 1.495 . S
C517 H523 0.959 . S
C517 H524 0.961 . S
C517 H525 0.960 . S
C518 C516 1.381 . S
C518 C519 1.394 . S
C518 H526 0.930 . S
C519 C518 1.394 . S
C519 C520 1.383 . S
C519 H527 0.929 . S
C520 C519 1.383 . S
C520 C521 1.377 . S
C521 H505 0.930 . S
C521 C520 1.377 . S
C521 C522 1.379 . S
C522 H506 0.931 . S
C522 C516 1.383 . S
C522 C521 1.379 . S
H523 C517 0.959 . S
H524 C517 0.961 . S
H525 C517 0.960 . S
H526 C518 0.930 . S
H527 C519 0.929 . S
H528 C536 0.929 . S
H529 C538 0.930 . S
H530 C540 0.930 . S
H531 C543 0.929 . S
H532 C546 0.930 . S
H533 C548 0.960 . S
H534 C548 0.960 . S
H535 C548 0.960 . S
C536 H528 0.929 . S
C536 C537 1.377 . S
C536 C538 1.384 . S
C537 C536 1.377 . S
C537 C543 1.390 . S
C538 H529 0.930 . S
C538 C536 1.384 . S
C538 C539 1.372 . S
C539 C538 1.372 . S
C539 C540 1.400 . S
C539 C544 1.490 . S
C540 H530 0.930 . S
C540 C539 1.400 . S
C540 C543 1.386 . S
H541 C557 0.930 . S
H542 C558 0.931 . S
C543 H531 0.929 . S
C543 C537 1.390 . S
C543 C540 1.386 . S
C544 C539 1.490 . S
C544 C546 1.395 . S
C544 C547 1.403 . S
H545 C551 0.930 . S
C546 H532 0.930 . S
C546 C544 1.395 . S
C546 C549 1.403 . S
C547 C544 1.403 . S
C547 C548 1.524 . S
C547 C551 1.400 . S
C548 H533 0.960 . S
C548 H534 0.960 . S
C548 H535 0.960 . S
C548 C547 1.524 . S
C549 C546 1.403 . S
C549 C550 1.392 . S
C549 C553 1.495 . S
C550 C549 1.392 . S
C550 C551 1.385 . S
C550 C552 1.478 . S
C551 H545 0.930 . S
C551 C547 1.400 . S
C551 C550 1.385 . S
C552 C550 1.478 . S
C552 C554 1.381 . S
C552 C558 1.383 . S
C553 C549 1.495 . S
C553 H559 0.959 . S
C553 H560 0.961 . S
C553 H561 0.960 . S
C554 C552 1.381 . S
C554 C555 1.394 . S
C554 H562 0.930 . S
C555 C554 1.394 . S
C555 C556 1.383 . S
C555 H563 0.929 . S
C556 C555 1.383 . S
C556 C557 1.377 . S
C557 H541 0.930 . S
C557 C556 1.377 . S
C557 C558 1.379 . S
C558 H542 0.931 . S
C558 C552 1.383 . S
C558 C557 1.379 . S
H559 C553 0.959 . S
H560 C553 0.961 . S
H561 C553 0.960 . S
H562 C554 0.930 . S
H563 C555 0.929 . S
H564 C572 0.929 . S
H565 C574 0.930 . S
H566 C576 0.930 . S
H567 C579 0.929 . S
H568 C582 0.930 1_655 S
H569 C584 0.960 . S
H570 C584 0.960 . S
H571 C584 0.960 . S
C572 H564 0.929 . S
C572 C573 1.377 . S
C572 C574 1.384 . S
C573 C572 1.377 . S
C573 C579 1.390 . S
C574 H565 0.930 . S
C574 C572 1.384 . S
C574 C575 1.372 . S
C575 C574 1.372 . S
C575 C576 1.400 . S
C575 C580 1.490 . S
C576 H566 0.930 . S
C576 C575 1.400 . S
C576 C579 1.386 . S
H577 C593 0.930 1_455 S
H578 C594 0.931 . S
C579 H567 0.929 . S
C579 C573 1.390 . S
C579 C576 1.386 . S
C580 C575 1.490 . S
C580 C582 1.395 . S
C580 C583 1.403 . S
H581 C587 0.930 . S
C582 H568 0.930 1_455 S
C582 C580 1.395 . S
C582 C585 1.403 1_455 S
C583 C580 1.403 . S
C583 C584 1.524 . S
C583 C587 1.400 . S
C584 H569 0.960 . S
C584 H570 0.960 . S
C584 H571 0.960 . S
C584 C583 1.524 . S
C585 C582 1.403 1_655 S
C585 C586 1.396 . S
C585 C589 1.495 . S
C586 C585 1.396 . S
C586 C587 1.376 1_655 S
C586 C588 1.482 . S
C587 H581 0.930 . S
C587 C583 1.400 . S
C587 C586 1.376 1_455 S
C588 C586 1.482 . S
C588 C590 1.381 . S
C588 C594 1.383 1_655 S
C589 C585 1.495 . S
C589 H595 0.959 . S
C589 H596 0.961 . S
C589 H597 0.960 . S
C590 C588 1.381 . S
C590 C591 1.394 . S
C590 H598 0.930 . S
C591 C590 1.394 . S
C591 C592 1.383 . S
C591 H599 0.929 . S
C592 C591 1.383 . S
C592 C593 1.377 . S
C593 H577 0.930 1_655 S
C593 C592 1.377 . S
C593 C594 1.379 1_655 S
C594 H578 0.931 . S
C594 C588 1.383 1_455 S
C594 C593 1.379 1_455 S
H595 C589 0.959 . S
H596 C589 0.961 . S
H597 C589 0.960 . S
H598 C590 0.930 . S
H599 C591 0.929 . S
H600 C608 0.929 . S
H601 C610 0.930 . S
H602 C612 0.930 . S
H603 C615 0.929 . S
H604 C618 0.930 . S
H605 C620 0.960 . S
H606 C620 0.960 . S
H607 C620 0.960 . S
C608 H600 0.929 . S
C608 C609 1.377 . S
C608 C610 1.384 . S
C609 C608 1.377 . S
C609 C615 1.390 . S
C610 H601 0.930 . S
C610 C608 1.384 . S
C610 C611 1.372 . S
C611 C610 1.372 . S
C611 C612 1.400 . S
C611 C616 1.490 . S
C612 H602 0.930 . S
C612 C611 1.400 . S
C612 C615 1.386 . S
H613 C629 0.930 1_554 S
H614 C630 0.931 1_455 S
C615 H603 0.929 . S
C615 C609 1.390 . S
C615 C612 1.386 . S
C616 C611 1.490 . S
C616 C618 1.395 . S
C616 C619 1.403 1_455 S
H617 C623 0.930 . S
C618 H604 0.930 . S
C618 C616 1.395 . S
C618 C621 1.403 . S
C619 C616 1.403 1_655 S
C619 C620 1.524 . S
C619 C623 1.400 . S
C620 H605 0.960 . S
C620 H606 0.960 . S
C620 H607 0.960 . S
C620 C619 1.524 . S
C621 C618 1.403 . S
C621 C622 1.392 1_455 S
C621 C625 1.495 . S
C622 C621 1.392 1_655 S
C622 C623 1.385 . S
C622 C624 1.478 . S
C623 H617 0.930 . S
C623 C619 1.400 . S
C623 C622 1.385 . S
C624 C622 1.478 . S
C624 C626 1.381 . S
C624 C630 1.383 . S
C625 C621 1.495 . S
C625 H631 0.959 . S
C625 H632 0.961 . S
C625 H633 0.960 . S
C626 C624 1.381 . S
C626 C627 1.394 . S
C626 H634 0.930 . S
C627 C626 1.394 . S
C627 C628 1.383 . S
C627 H635 0.929 . S
C628 C627 1.383 . S
C628 C629 1.377 . S
C629 H613 0.930 1_556 S
C629 C628 1.377 . S
C629 C630 1.379 . S
C630 H614 0.931 1_655 S
C630 C624 1.383 . S
C630 C629 1.379 . S
H631 C625 0.959 . S
H632 C625 0.961 . S
H633 C625 0.960 . S
H634 C626 0.930 . S
H635 C627 0.929 . S
H636 C644 0.929 . S
H637 C646 0.930 . S
H638 C648 0.930 . S
H639 C651 0.929 . S
H640 C654 0.930 . S
H641 C656 0.960 . S
H642 C656 0.960 . S
H643 C656 0.960 . S
C644 H636 0.929 . S
C644 C645 1.377 . S
C644 C646 1.384 . S
C645 C644 1.377 . S
C645 C651 1.390 . S
C646 H637 0.930 . S
C646 C644 1.384 . S
C646 C647 1.372 . S
C647 C646 1.372 . S
C647 C648 1.400 . S
C647 C652 1.490 . S
C648 H638 0.930 . S
C648 C647 1.400 . S
C648 C651 1.386 . S
H649 C665 0.930 . S
H650 C666 0.931 . S
C651 H639 0.929 . S
C651 C645 1.390 . S
C651 C648 1.386 . S
C652 C647 1.490 . S
C652 C654 1.395 . S
C652 C655 1.403 . S
H653 C659 0.930 . S
C654 H640 0.930 . S
C654 C652 1.395 . S
C654 C657 1.403 . S
C655 C652 1.403 . S
C655 C656 1.524 . S
C655 C659 1.400 . S
C656 H641 0.960 . S
C656 H642 0.960 . S
C656 H643 0.960 . S
C656 C655 1.524 . S
C657 C654 1.403 . S
C657 C658 1.392 . S
C657 C661 1.495 . S
C658 C657 1.392 . S
C658 C659 1.385 . S
C658 C660 1.478 . S
C659 H653 0.930 . S
C659 C655 1.400 . S
C659 C658 1.385 . S
C660 C658 1.478 . S
C660 C662 1.381 . S
C660 C666 1.383 . S
C661 C657 1.495 . S
C661 H667 0.959 . S
C661 H668 0.961 . S
C661 H669 0.960 . S
C662 C660 1.381 . S
C662 C663 1.394 . S
C662 H670 0.930 . S
C663 C662 1.394 . S
C663 C664 1.383 . S
C663 H671 0.929 . S
C664 C663 1.383 . S
C664 C665 1.377 . S
C665 H649 0.930 . S
C665 C664 1.377 . S
C665 C666 1.379 . S
C666 H650 0.931 . S
C666 C660 1.383 . S
C666 C665 1.379 . S
H667 C661 0.959 . S
H668 C661 0.961 . S
H669 C661 0.960 . S
H670 C662 0.930 . S
H671 C663 0.929 . S
H672 C680 0.929 . S
H673 C682 0.930 . S
H674 C684 0.930 . S
H675 C687 0.929 . S
H676 C690 0.930 . S
H677 C692 0.960 . S
H678 C692 0.960 . S
H679 C692 0.960 . S
C680 H672 0.929 . S
C680 C681 1.377 . S
C680 C682 1.384 . S
C681 C680 1.377 . S
C681 C687 1.390 . S
C682 H673 0.930 . S
C682 C680 1.384 . S
C682 C683 1.372 . S
C683 C682 1.372 . S
C683 C684 1.400 . S
C683 C688 1.490 . S
C684 H674 0.930 . S
C684 C683 1.400 . S
C684 C687 1.386 . S
H685 C701 0.930 . S
H686 C702 0.931 . S
C687 H675 0.929 . S
C687 C681 1.390 . S
C687 C684 1.386 . S
C688 C683 1.490 . S
C688 C690 1.395 . S
C688 C691 1.403 . S
H689 C695 0.930 . S
C690 H676 0.930 . S
C690 C688 1.395 . S
C690 C693 1.403 . S
C691 C688 1.403 . S
C691 C692 1.524 . S
C691 C695 1.400 . S
C692 H677 0.960 . S
C692 H678 0.960 . S
C692 H679 0.960 . S
C692 C691 1.524 . S
C693 C690 1.403 . S
C693 C694 1.392 . S
C693 C697 1.495 . S
C694 C693 1.392 . S
C694 C695 1.385 . S
C694 C696 1.478 . S
C695 H689 0.930 . S
C695 C691 1.400 . S
C695 C694 1.385 . S
C696 C694 1.478 . S
C696 C698 1.381 . S
C696 C702 1.383 . S
C697 C693 1.495 . S
C697 H703 0.959 . S
C697 H704 0.961 . S
C697 H705 0.960 . S
C698 C696 1.381 . S
C698 C699 1.394 . S
C698 H706 0.930 . S
C699 C698 1.394 . S
C699 C700 1.383 . S
C699 H707 0.929 . S
C700 C699 1.383 . S
C700 C701 1.377 . S
C701 H685 0.930 . S
C701 C700 1.377 . S
C701 C702 1.379 . S
C702 H686 0.931 . S
C702 C696 1.383 . S
C702 C701 1.379 . S
H703 C697 0.959 . S
H704 C697 0.961 . S
H705 C697 0.960 . S
H706 C698 0.930 . S
H707 C699 0.929 . S
H708 C716 0.929 . S
H709 C718 0.930 . S
H710 C720 0.930 . S
H711 C723 0.929 . S
H712 C726 0.930 . S
H713 C728 0.960 . S
H714 C728 0.960 . S
H715 C728 0.960 . S
C716 H708 0.929 . S
C716 C717 1.377 1_655 S
C716 C718 1.384 . S
C717 C716 1.377 1_455 S
C717 C723 1.390 . S
C718 H709 0.930 . S
C718 C716 1.384 . S
C718 C719 1.372 . S
C719 C718 1.372 . S
C719 C720 1.400 1_655 S
C719 C724 1.490 . S
C720 H710 0.930 . S
C720 C719 1.400 1_455 S
C720 C723 1.386 . S
H721 C737 0.930 . S
H722 C738 0.931 . S
C723 H711 0.929 . S
C723 C717 1.390 . S
C723 C720 1.386 . S
C724 C719 1.490 . S
C724 C726 1.395 . S
C724 C727 1.403 . S
H725 C731 0.930 . S
C726 H712 0.930 . S
C726 C724 1.395 . S
C726 C729 1.403 . S
C727 C724 1.403 . S
C727 C728 1.524 1_655 S
C727 C731 1.400 . S
C728 H713 0.960 . S
C728 H714 0.960 . S
C728 H715 0.960 . S
C728 C727 1.524 1_455 S
C729 C726 1.403 . S
C729 C730 1.392 . S
C729 C733 1.495 . S
C730 C729 1.392 . S
C730 C731 1.385 . S
C730 C732 1.478 . S
C731 H725 0.930 . S
C731 C727 1.400 . S
C731 C730 1.385 . S
C732 C730 1.478 . S
C732 C734 1.381 . S
C732 C738 1.383 . S
C733 C729 1.495 . S
C733 H739 0.959 . S
C733 H740 0.961 . S
C733 H741 0.960 . S
C734 C732 1.381 . S
C734 C735 1.394 . S
C734 H742 0.930 . S
C735 C734 1.394 . S
C735 C736 1.383 . S
C735 H743 0.929 . S
C736 C735 1.383 . S
C736 C737 1.377 . S
C737 H721 0.930 . S
C737 C736 1.377 . S
C737 C738 1.379 . S
C738 H722 0.931 . S
C738 C732 1.383 . S
C738 C737 1.379 . S
H739 C733 0.959 . S
H740 C733 0.961 . S
H741 C733 0.960 . S
H742 C734 0.930 . S
H743 C735 0.929 . S
H744 C752 0.929 . S
H745 C754 0.930 . S
H746 C756 0.930 . S
H747 C759 0.929 . S
H748 C762 0.930 . S
H749 C764 0.960 . S
H750 C764 0.960 . S
H751 C764 0.960 . S
C752 H744 0.929 . S
C752 C753 1.377 . S
C752 C754 1.384 . S
C753 C752 1.377 . S
C753 C759 1.390 . S
C754 H745 0.930 . S
C754 C752 1.384 . S
C754 C755 1.372 . S
C755 C754 1.372 . S
C755 C756 1.400 . S
C755 C760 1.490 . S
C756 H746 0.930 . S
C756 C755 1.400 . S
C756 C759 1.386 . S
H757 C773 0.930 . S
H758 C774 0.931 . S
C759 H747 0.929 . S
C759 C753 1.390 . S
C759 C756 1.386 . S
C760 C755 1.490 . S
C760 C762 1.395 . S
C760 C763 1.403 . S
H761 C767 0.930 . S
C762 H748 0.930 . S
C762 C760 1.395 . S
C762 C765 1.403 . S
C763 C760 1.403 . S
C763 C764 1.524 . S
C763 C767 1.400 . S
C764 H749 0.960 . S
C764 H750 0.960 . S
C764 H751 0.960 . S
C764 C763 1.524 . S
C765 C762 1.403 . S
C765 C766 1.392 . S
C765 C769 1.495 . S
C766 C765 1.392 . S
C766 C767 1.385 . S
C766 C768 1.478 . S
C767 H761 0.930 . S
C767 C763 1.400 . S
C767 C766 1.385 . S
C768 C766 1.478 . S
C768 C770 1.381 . S
C768 C774 1.383 . S
C769 C765 1.495 . S
C769 H775 0.959 . S
C769 H776 0.961 . S
C769 H777 0.960 . S
C770 C768 1.381 . S
C770 C771 1.394 . S
C770 H778 0.930 . S
C771 C770 1.394 . S
C771 C772 1.383 . S
C771 H779 0.929 . S
C772 C771 1.383 . S
C772 C773 1.377 . S
C773 H757 0.930 . S
C773 C772 1.377 . S
C773 C774 1.379 . S
C774 H758 0.931 . S
C774 C768 1.383 . S
C774 C773 1.379 . S
H775 C769 0.959 . S
H776 C769 0.961 . S
H777 C769 0.960 . S
H778 C770 0.930 . S
H779 C771 0.929 . S
H780 C788 0.929 . S
H781 C790 0.930 . S
H782 C792 0.930 . S
H783 C795 0.929 . S
H784 C798 0.930 . S
H785 C800 0.960 . S
H786 C800 0.960 . S
H787 C800 0.960 . S
C788 H780 0.929 . S
C788 C789 1.377 . S
C788 C790 1.384 . S
C789 C788 1.377 . S
C789 C795 1.390 . S
C790 H781 0.930 . S
C790 C788 1.384 . S
C790 C791 1.372 . S
C791 C790 1.372 . S
C791 C792 1.400 . S
C791 C796 1.490 . S
C792 H782 0.930 . S
C792 C791 1.400 . S
C792 C795 1.386 . S
H793 C809 0.930 . S
H794 C810 0.931 . S
C795 H783 0.929 . S
C795 C789 1.390 . S
C795 C792 1.386 . S
C796 C791 1.490 . S
C796 C798 1.395 . S
C796 C799 1.403 . S
H797 C803 0.930 . S
C798 H784 0.930 . S
C798 C796 1.395 . S
C798 C801 1.403 1_554 S
C799 C796 1.403 . S
C799 C800 1.524 . S
C799 C803 1.400 . S
C800 H785 0.960 . S
C800 H786 0.960 . S
C800 H787 0.960 . S
C800 C799 1.524 . S
C801 C798 1.403 1_556 S
C801 C802 1.395 . S
C801 C805 1.495 . S
C802 C801 1.395 . S
C802 C803 1.352 1_556 S
C802 C804 1.508 . S
C803 H797 0.930 . S
C803 C799 1.400 . S
C803 C802 1.352 1_554 S
C804 C802 1.508 . S
C804 C806 1.381 . S
C804 C810 1.383 . S
C805 C801 1.495 . S
C805 H811 0.959 . S
C805 H812 0.961 . S
C805 H813 0.960 . S
C806 C804 1.381 . S
C806 C807 1.394 . S
C806 H814 0.930 . S
C807 C806 1.394 . S
C807 C808 1.383 . S
C807 H815 0.929 . S
C808 C807 1.383 . S
C808 C809 1.377 . S
C809 H793 0.930 . S
C809 C808 1.377 . S
C809 C810 1.379 . S
C810 H794 0.931 . S
C810 C804 1.383 . S
C810 C809 1.379 . S
H811 C805 0.959 . S
H812 C805 0.961 . S
H813 C805 0.960 . S
H814 C806 0.930 . S
H815 C807 0.929 . S
H816 C824 0.929 . S
H817 C826 0.930 . S
H818 C828 0.930 . S
H819 C831 0.929 . S
H820 C834 0.930 . S
H821 C836 0.960 . S
H822 C836 0.960 . S
H823 C836 0.960 . S
C824 H816 0.929 . S
C824 C825 1.377 . S
C824 C826 1.384 . S
C825 C824 1.377 . S
C825 C831 1.390 . S
C826 H817 0.930 . S
C826 C824 1.384 . S
C826 C827 1.372 . S
C827 C826 1.372 . S
C827 C828 1.400 . S
C827 C832 1.490 . S
C828 H818 0.930 . S
C828 C827 1.400 . S
C828 C831 1.386 . S
H829 C845 0.930 . S
H830 C846 0.931 . S
C831 H819 0.929 . S
C831 C825 1.390 . S
C831 C828 1.386 . S
C832 C827 1.490 . S
C832 C834 1.395 . S
C832 C835 1.403 . S
H833 C839 0.930 . S
C834 H820 0.930 . S
C834 C832 1.395 . S
C834 C837 1.403 . S
C835 C832 1.403 . S
C835 C836 1.524 . S
C835 C839 1.400 . S
C836 H821 0.960 . S
C836 H822 0.960 . S
C836 H823 0.960 . S
C836 C835 1.524 . S
C837 C834 1.403 . S
C837 C838 1.392 . S
C837 C841 1.495 . S
C838 C837 1.392 . S
C838 C839 1.385 . S
C838 C840 1.478 . S
C839 H833 0.930 . S
C839 C835 1.400 . S
C839 C838 1.385 . S
C840 C838 1.478 . S
C840 C842 1.381 . S
C840 C846 1.383 . S
C841 C837 1.495 . S
C841 H847 0.959 . S
C841 H848 0.961 . S
C841 H849 0.960 . S
C842 C840 1.381 . S
C842 C843 1.394 . S
C842 H850 0.930 . S
C843 C842 1.394 . S
C843 C844 1.383 . S
C843 H851 0.929 . S
C844 C843 1.383 . S
C844 C845 1.377 . S
C845 H829 0.930 . S
C845 C844 1.377 . S
C845 C846 1.379 . S
C846 H830 0.931 . S
C846 C840 1.383 . S
C846 C845 1.379 . S
H847 C841 0.959 . S
H848 C841 0.961 . S
H849 C841 0.960 . S
H850 C842 0.930 . S
H851 C843 0.929 . S
H852 C860 0.929 . S
H853 C862 0.930 1_556 S
H854 C864 0.930 . S
H855 C867 0.929 . S
H856 C870 0.930 . S
H857 C872 0.960 . S
H858 C872 0.960 . S
H859 C872 0.960 1_554 S
C860 H852 0.929 . S
C860 C861 1.377 . S
C860 C862 1.384 . S
C861 C860 1.377 . S
C861 C867 1.390 . S
C862 H853 0.930 1_554 S
C862 C860 1.384 . S
C862 C863 1.372 . S
C863 C862 1.372 . S
C863 C864 1.400 . S
C863 C868 1.490 1_554 S
C864 H854 0.930 . S
C864 C863 1.400 . S
C864 C867 1.386 . S
H865 C881 0.930 . S
H866 C882 0.931 1_655 S
C867 H855 0.929 . S
C867 C861 1.390 . S
C867 C864 1.386 . S
C868 C863 1.490 1_556 S
C868 C870 1.395 . S
C868 C871 1.403 . S
H869 C875 0.930 . S
C870 H856 0.930 . S
C870 C868 1.395 . S
C870 C873 1.403 . S
C871 C868 1.403 . S
C871 C872 1.524 . S
C871 C875 1.400 . S
C872 H857 0.960 . S
C872 H858 0.960 . S
C872 H859 0.960 1_556 S
C872 C871 1.524 . S
C873 C870 1.403 . S
C873 C874 1.392 . S
C873 C877 1.495 . S
C874 C873 1.392 . S
C874 C875 1.385 . S
C874 C876 1.478 . S
C875 H869 0.930 . S
C875 C871 1.400 . S
C875 C874 1.385 . S
C876 C874 1.478 . S
C876 C878 1.381 . S
C876 C882 1.383 . S
C877 C873 1.495 . S
C877 H883 0.959 . S
C877 H884 0.961 . S
C877 H885 0.960 . S
C878 C876 1.381 . S
C878 C879 1.394 . S
C878 H886 0.930 . S
C879 C878 1.394 . S
C879 C880 1.383 1_455 S
C879 H887 0.929 . S
C880 C879 1.383 1_655 S
C880 C881 1.377 . S
C881 H865 0.930 . S
C881 C880 1.377 . S
C881 C882 1.379 1_655 S
C882 H866 0.931 1_455 S
C882 C876 1.383 . S
C882 C881 1.379 1_455 S
H883 C877 0.959 . S
H884 C877 0.961 . S
H885 C877 0.960 . S
H886 C878 0.930 . S
H887 C879 0.929 . S
H888 C896 0.929 . S
H889 C898 0.930 . S
H890 C900 0.930 . S
H891 C903 0.929 . S
H892 C906 0.930 . S
H893 C908 0.960 . S
H894 C908 0.960 . S
H895 C908 0.960 . S
C896 H888 0.929 . S
C896 C897 1.377 . S
C896 C898 1.384 . S
C897 C896 1.377 . S
C897 C903 1.390 . S
C898 H889 0.930 . S
C898 C896 1.384 . S
C898 C899 1.372 . S
C899 C898 1.372 . S
C899 C900 1.400 . S
C899 C904 1.490 . S
C900 H890 0.930 . S
C900 C899 1.400 . S
C900 C903 1.386 . S
H901 C917 0.930 . S
H902 C918 0.931 . S
C903 H891 0.929 . S
C903 C897 1.390 . S
C903 C900 1.386 . S
C904 C899 1.490 . S
C904 C906 1.395 . S
C904 C907 1.403 . S
H905 C911 0.930 . S
C906 H892 0.930 . S
C906 C904 1.395 . S
C906 C909 1.403 . S
C907 C904 1.403 . S
C907 C908 1.524 . S
C907 C911 1.400 . S
C908 H893 0.960 . S
C908 H894 0.960 . S
C908 H895 0.960 . S
C908 C907 1.524 . S
C909 C906 1.403 . S
C909 C910 1.392 . S
C909 C913 1.495 . S
C910 C909 1.392 . S
C910 C911 1.385 . S
C910 C912 1.478 . S
C911 H905 0.930 . S
C911 C907 1.400 . S
C911 C910 1.385 . S
C912 C910 1.478 . S
C912 C914 1.381 . S
C912 C918 1.383 . S
C913 C909 1.495 . S
C913 H919 0.959 . S
C913 H920 0.961 . S
C913 H921 0.960 . S
C914 C912 1.381 . S
C914 C915 1.394 . S
C914 H922 0.930 . S
C915 C914 1.394 . S
C915 C916 1.383 . S
C915 H923 0.929 . S
C916 C915 1.383 . S
C916 C917 1.377 . S
C917 H901 0.930 . S
C917 C916 1.377 . S
C917 C918 1.379 . S
C918 H902 0.931 . S
C918 C912 1.383 . S
C918 C917 1.379 . S
H919 C913 0.959 . S
H920 C913 0.961 . S
H921 C913 0.960 . S
H922 C914 0.930 . S
H923 C915 0.929 . S
H924 C932 0.929 . S
H925 C934 0.930 . S
H926 C936 0.930 . S
H927 C939 0.929 . S
H928 C942 0.930 . S
H929 C944 0.960 . S
H930 C944 0.960 . S
H931 C944 0.960 . S
C932 H924 0.929 . S
C932 C933 1.377 . S
C932 C934 1.384 . S
C933 C932 1.377 . S
C933 C939 1.390 . S
C934 H925 0.930 . S
C934 C932 1.384 . S
C934 C935 1.372 . S
C935 C934 1.372 . S
C935 C936 1.400 . S
C935 C940 1.490 . S
C936 H926 0.930 . S
C936 C935 1.400 . S
C936 C939 1.386 . S
H937 C953 0.930 . S
H938 C954 0.931 . S
C939 H927 0.929 . S
C939 C933 1.390 . S
C939 C936 1.386 . S
C940 C935 1.490 . S
C940 C942 1.395 . S
C940 C943 1.403 . S
H941 C947 0.930 . S
C942 H928 0.930 . S
C942 C940 1.395 . S
C942 C945 1.403 . S
C943 C940 1.403 . S
C943 C944 1.524 . S
C943 C947 1.400 . S
C944 H929 0.960 . S
C944 H930 0.960 . S
C944 H931 0.960 . S
C944 C943 1.524 . S
C945 C942 1.403 . S
C945 C946 1.392 . S
C945 C949 1.495 . S
C946 C945 1.392 . S
C946 C947 1.385 . S
C946 C948 1.478 . S
C947 H941 0.930 . S
C947 C943 1.400 . S
C947 C946 1.385 . S
C948 C946 1.478 . S
C948 C950 1.381 . S
C948 C954 1.383 . S
C949 C945 1.495 . S
C949 H955 0.959 . S
C949 H956 0.961 . S
C949 H957 0.960 . S
C950 C948 1.381 . S
C950 C951 1.394 . S
C950 H958 0.930 . S
C951 C950 1.394 . S
C951 C952 1.383 . S
C951 H959 0.929 . S
C952 C951 1.383 . S
C952 C953 1.377 . S
C953 H937 0.930 . S
C953 C952 1.377 . S
C953 C954 1.379 . S
C954 H938 0.931 . S
C954 C948 1.383 . S
C954 C953 1.379 . S
H955 C949 0.959 . S
H956 C949 0.961 . S
H957 C949 0.960 . S
H958 C950 0.930 . S
H959 C951 0.929 . S
H960 C968 0.929 . S
H961 C970 0.930 . S
H962 C972 0.930 . S
H963 C975 0.929 . S
H964 C978 0.930 . S
H965 C980 0.960 . S
H966 C980 0.960 . S
H967 C980 0.960 . S
C968 H960 0.929 . S
C968 C969 1.377 . S
C968 C970 1.384 . S
C969 C968 1.377 . S
C969 C975 1.390 . S
C970 H961 0.930 . S
C970 C968 1.384 . S
C970 C971 1.372 . S
C971 C970 1.372 . S
C971 C972 1.400 . S
C971 C976 1.490 . S
C972 H962 0.930 . S
C972 C971 1.400 . S
C972 C975 1.386 . S
H973 C989 0.930 . S
H974 C990 0.931 . S
C975 H963 0.929 . S
C975 C969 1.390 . S
C975 C972 1.386 . S
C976 C971 1.490 . S
C976 C978 1.395 . S
C976 C979 1.403 . S
H977 C983 0.930 . S
C978 H964 0.930 . S
C978 C976 1.395 . S
C978 C981 1.403 . S
C979 C976 1.403 . S
C979 C980 1.524 . S
C979 C983 1.400 . S
C980 H965 0.960 . S
C980 H966 0.960 . S
C980 H967 0.960 . S
C980 C979 1.524 . S
C981 C978 1.403 . S
C981 C982 1.392 . S
C981 C985 1.495 . S
C982 C981 1.392 . S
C982 C983 1.385 . S
C982 C984 1.478 . S
C983 H977 0.930 . S
C983 C979 1.400 . S
C983 C982 1.385 . S
C984 C982 1.478 . S
C984 C986 1.381 . S
C984 C990 1.383 . S
C985 C981 1.495 . S
C985 H991 0.959 . S
C985 H992 0.961 . S
C985 H993 0.960 . S
C986 C984 1.381 . S
C986 C987 1.394 . S
C986 H994 0.930 . S
C987 C986 1.394 . S
C987 C988 1.383 . S
C987 H995 0.929 . S
C988 C987 1.383 . S
C988 C989 1.377 . S
C989 H973 0.930 . S
C989 C988 1.377 . S
C989 C990 1.379 . S
C990 H974 0.931 . S
C990 C984 1.383 . S
C990 C989 1.379 . S
H991 C985 0.959 . S
H992 C985 0.961 . S
H993 C985 0.960 . S
H994 C986 0.930 . S
H995 C987 0.929 . S
H996 C1004 0.929 . S
H997 C1006 0.930 . S
H998 C1008 0.930 . S
H999 C1011 0.929 . S
H1000 C1014 0.930 . S
H1001 C1016 0.960 . S
H1002 C1016 0.960 . S
H1003 C1016 0.960 . S
C1004 H996 0.929 . S
C1004 C1005 1.377 . S
C1004 C1006 1.384 . S
C1005 C1004 1.377 . S
C1005 C1011 1.390 . S
C1006 H997 0.930 . S
C1006 C1004 1.384 . S
C1006 C1007 1.372 . S
C1007 C1006 1.372 . S
C1007 C1008 1.400 . S
C1007 C1012 1.490 . S
C1008 H998 0.930 . S
C1008 C1007 1.400 . S
C1008 C1011 1.386 . S
H1009 C1025 0.930 . S
H1010 C1026 0.931 . S
C1011 H999 0.929 . S
C1011 C1005 1.390 . S
C1011 C1008 1.386 . S
C1012 C1007 1.490 . S
C1012 C1014 1.395 . S
C1012 C1015 1.403 . S
H1013 C1019 0.930 . S
C1014 H1000 0.930 . S
C1014 C1012 1.395 . S
C1014 C1017 1.403 . S
C1015 C1012 1.403 . S
C1015 C1016 1.524 . S
C1015 C1019 1.400 . S
C1016 H1001 0.960 . S
C1016 H1002 0.960 . S
C1016 H1003 0.960 . S
C1016 C1015 1.524 . S
C1017 C1014 1.403 . S
C1017 C1018 1.392 . S
C1017 C1021 1.495 . S
C1018 C1017 1.392 . S
C1018 C1019 1.385 . S
C1018 C1020 1.502 . S
C1019 H1013 0.930 . S
C1019 C1015 1.400 . S
C1019 C1018 1.385 . S
C1020 C1018 1.502 . S
C1020 C1022 1.384 . S
C1020 C1026 1.355 1_545 S
C1021 C1017 1.495 . S
C1021 H1027 0.959 . S
C1021 H1028 0.961 . S
C1021 H1029 0.960 . S
C1022 C1020 1.384 . S
C1022 C1023 1.394 1_545 S
C1022 H1030 0.930 . S
C1023 C1022 1.394 1_565 S
C1023 C1024 1.383 . S
C1023 H1031 0.929 . S
C1024 C1023 1.383 . S
C1024 C1025 1.377 . S
C1025 H1009 0.930 . S
C1025 C1024 1.377 . S
C1025 C1026 1.379 . S
C1026 H1010 0.931 . S
C1026 C1020 1.355 1_565 S
C1026 C1025 1.379 . S
H1027 C1021 0.959 . S
H1028 C1021 0.961 . S
H1029 C1021 0.960 . S
H1030 C1022 0.930 . S
H1031 C1023 0.929 . S
H1032 C1040 0.929 . S
H1033 C1042 0.930 . S
H1034 C1044 0.930 . S
H1035 C1047 0.929 . S
H1036 C1050 0.930 . S
H1037 C1052 0.960 . S
H1038 C1052 0.960 . S
H1039 C1052 0.960 . S
C1040 H1032 0.929 . S
C1040 C1041 1.377 . S
C1040 C1042 1.384 . S
C1041 C1040 1.377 . S
C1041 C1047 1.390 . S
C1042 H1033 0.930 . S
C1042 C1040 1.384 . S
C1042 C1043 1.372 . S
C1043 C1042 1.372 . S
C1043 C1044 1.400 . S
C1043 C1048 1.490 . S
C1044 H1034 0.930 . S
C1044 C1043 1.400 . S
C1044 C1047 1.386 . S
H1045 C1061 0.930 . S
H1046 C1062 0.931 . S
C1047 H1035 0.929 . S
C1047 C1041 1.390 . S
C1047 C1044 1.386 . S
C1048 C1043 1.490 . S
C1048 C1050 1.395 . S
C1048 C1051 1.403 . S
H1049 C1055 0.930 . S
C1050 H1036 0.930 . S
C1050 C1048 1.395 . S
C1050 C1053 1.403 . S
C1051 C1048 1.403 . S
C1051 C1052 1.524 . S
C1051 C1055 1.400 . S
C1052 H1037 0.960 . S
C1052 H1038 0.960 . S
C1052 H1039 0.960 . S
C1052 C1051 1.524 . S
C1053 C1050 1.403 . S
C1053 C1054 1.392 . S
C1053 C1057 1.495 . S
C1054 C1053 1.392 . S
C1054 C1055 1.385 . S
C1054 C1056 1.478 . S
C1055 H1049 0.930 . S
C1055 C1051 1.400 . S
C1055 C1054 1.385 . S
C1056 C1054 1.478 . S
C1056 C1058 1.381 . S
C1056 C1062 1.383 . S
C1057 C1053 1.495 . S
C1057 H1063 0.959 . S
C1057 H1064 0.961 . S
C1057 H1065 0.960 . S
C1058 C1056 1.381 . S
C1058 C1059 1.394 . S
C1058 H1066 0.930 . S
C1059 C1058 1.394 . S
C1059 C1060 1.383 . S
C1059 H1067 0.929 . S
C1060 C1059 1.383 . S
C1060 C1061 1.377 . S
C1061 H1045 0.930 . S
C1061 C1060 1.377 . S
C1061 C1062 1.379 . S
C1062 H1046 0.931 . S
C1062 C1056 1.383 . S
C1062 C1061 1.379 . S
H1063 C1057 0.959 . S
H1064 C1057 0.961 . S
H1065 C1057 0.960 . S
H1066 C1058 0.930 . S
H1067 C1059 0.929 . S
H1068 C1076 0.929 . S
H1069 C1078 0.930 . S
H1070 C1080 0.930 . S
H1071 C1083 0.929 . S
H1072 C1086 0.930 . S
H1073 C1088 0.960 1_565 S
H1074 C1088 0.960 . S
H1075 C1088 0.960 . S
C1076 H1068 0.929 . S
C1076 C1077 1.377 . S
C1076 C1078 1.384 . S
C1077 C1076 1.377 . S
C1077 C1083 1.390 . S
C1078 H1069 0.930 . S
C1078 C1076 1.384 . S
C1078 C1079 1.372 . S
C1079 C1078 1.372 . S
C1079 C1080 1.400 . S
C1079 C1084 1.490 1_545 S
C1080 H1070 0.930 . S
C1080 C1079 1.400 . S
C1080 C1083 1.386 . S
H1081 C1097 0.930 . S
H1082 C1098 0.931 . S
C1083 H1071 0.929 . S
C1083 C1077 1.390 . S
C1083 C1080 1.386 . S
C1084 C1079 1.490 1_565 S
C1084 C1086 1.395 . S
C1084 C1087 1.403 . S
H1085 C1091 0.930 . S
C1086 H1072 0.930 . S
C1086 C1084 1.395 . S
C1086 C1089 1.403 . S
C1087 C1084 1.403 . S
C1087 C1088 1.524 1_565 S
C1087 C1091 1.400 . S
C1088 H1073 0.960 1_545 S
C1088 H1074 0.960 . S
C1088 H1075 0.960 . S
C1088 C1087 1.524 1_545 S
C1089 C1086 1.403 . S
C1089 C1090 1.392 . S
C1089 C1093 1.495 . S
C1090 C1089 1.392 . S
C1090 C1091 1.385 . S
C1090 C1092 1.478 . S
C1091 H1085 0.930 . S
C1091 C1087 1.400 . S
C1091 C1090 1.385 . S
C1092 C1090 1.478 . S
C1092 C1094 1.381 . S
C1092 C1098 1.383 . S
C1093 C1089 1.495 . S
C1093 H1099 0.959 . S
C1093 H1100 0.961 . S
C1093 H1101 0.960 . S
C1094 C1092 1.381 . S
C1094 C1095 1.394 . S
C1094 H1102 0.930 . S
C1095 C1094 1.394 . S
C1095 C1096 1.383 . S
C1095 H1103 0.929 1_554 S
C1096 C1095 1.383 . S
C1096 C1097 1.377 . S
C1097 H1081 0.930 . S
C1097 C1096 1.377 . S
C1097 C1098 1.379 . S
C1098 H1082 0.931 . S
C1098 C1092 1.383 . S
C1098 C1097 1.379 . S
H1099 C1093 0.959 . S
H1100 C1093 0.961 . S
H1101 C1093 0.960 . S
H1102 C1094 0.930 . S
H1103 C1095 0.929 1_556 S
H1104 C1112 0.929 . S
H1105 C1114 0.930 . S
H1106 C1116 0.930 . S
H1107 C1119 0.929 . S
H1108 C1122 0.930 . S
H1109 C1124 0.960 . S
H1110 C1124 0.960 . S
H1111 C1124 0.960 . S
C1112 H1104 0.929 . S
C1112 C1113 1.377 . S
C1112 C1114 1.384 . S
C1113 C1112 1.377 . S
C1113 C1119 1.390 . S
C1114 H1105 0.930 . S
C1114 C1112 1.384 . S
C1114 C1115 1.372 . S
C1115 C1114 1.372 . S
C1115 C1116 1.400 . S
C1115 C1120 1.490 . S
C1116 H1106 0.930 . S
C1116 C1115 1.400 . S
C1116 C1119 1.386 . S
H1117 C1133 0.930 . S
H1118 C1134 0.931 . S
C1119 H1107 0.929 . S
C1119 C1113 1.390 . S
C1119 C1116 1.386 . S
C1120 C1115 1.490 . S
C1120 C1122 1.395 . S
C1120 C1123 1.403 . S
H1121 C1127 0.930 . S
C1122 H1108 0.930 . S
C1122 C1120 1.395 . S
C1122 C1125 1.403 . S
C1123 C1120 1.403 . S
C1123 C1124 1.524 . S
C1123 C1127 1.400 . S
C1124 H1109 0.960 . S
C1124 H1110 0.960 . S
C1124 H1111 0.960 . S
C1124 C1123 1.524 . S
C1125 C1122 1.403 . S
C1125 C1126 1.392 . S
C1125 C1129 1.495 . S
C1126 C1125 1.392 . S
C1126 C1127 1.385 . S
C1126 C1128 1.478 . S
C1127 H1121 0.930 . S
C1127 C1123 1.400 . S
C1127 C1126 1.385 . S
C1128 C1126 1.478 . S
C1128 C1130 1.381 . S
C1128 C1134 1.383 . S
C1129 C1125 1.495 . S
C1129 H1135 0.959 . S
C1129 H1136 0.961 . S
C1129 H1137 0.960 . S
C1130 C1128 1.381 . S
C1130 C1131 1.394 . S
C1130 H1138 0.930 . S
C1131 C1130 1.394 . S
C1131 C1132 1.383 . S
C1131 H1139 0.929 . S
C1132 C1131 1.383 . S
C1132 C1133 1.377 . S
C1133 H1117 0.930 . S
C1133 C1132 1.377 . S
C1133 C1134 1.379 . S
C1134 H1118 0.931 . S
C1134 C1128 1.383 . S
C1134 C1133 1.379 . S
H1135 C1129 0.959 . S
H1136 C1129 0.961 . S
H1137 C1129 0.960 . S
H1138 C1130 0.930 . S
H1139 C1131 0.929 . S
H1140 C1148 0.929 . S
H1141 C1150 0.930 . S
H1142 C1152 0.930 . S
H1143 C1155 0.929 . S
H1144 C1158 0.930 . S
H1145 C1160 0.960 . S
H1146 C1160 0.960 . S
H1147 C1160 0.960 . S
C1148 H1140 0.929 . S
C1148 C1149 1.377 . S
C1148 C1150 1.384 . S
C1149 C1148 1.377 . S
C1149 C1155 1.390 . S
C1150 H1141 0.930 . S
C1150 C1148 1.384 . S
C1150 C1151 1.372 . S
C1151 C1150 1.372 . S
C1151 C1152 1.400 . S
C1151 C1156 1.490 . S
C1152 H1142 0.930 . S
C1152 C1151 1.400 . S
C1152 C1155 1.386 . S
H1153 C1169 0.930 . S
H1154 C1170 0.931 . S
C1155 H1143 0.929 . S
C1155 C1149 1.390 . S
C1155 C1152 1.386 . S
C1156 C1151 1.490 . S
C1156 C1158 1.395 . S
C1156 C1159 1.403 . S
H1157 C1163 0.930 . S
C1158 H1144 0.930 . S
C1158 C1156 1.395 . S
C1158 C1161 1.403 . S
C1159 C1156 1.403 . S
C1159 C1160 1.524 . S
C1159 C1163 1.400 . S
C1160 H1145 0.960 . S
C1160 H1146 0.960 . S
C1160 H1147 0.960 . S
C1160 C1159 1.524 . S
C1161 C1158 1.403 . S
C1161 C1162 1.392 . S
C1161 C1165 1.495 . S
C1162 C1161 1.392 . S
C1162 C1163 1.385 . S
C1162 C1164 1.478 . S
C1163 H1157 0.930 . S
C1163 C1159 1.400 . S
C1163 C1162 1.385 . S
C1164 C1162 1.478 . S
C1164 C1166 1.381 . S
C1164 C1170 1.383 . S
C1165 C1161 1.495 . S
C1165 H1171 0.959 . S
C1165 H1172 0.961 1_556 S
C1165 H1173 0.960 . S
C1166 C1164 1.381 . S
C1166 C1167 1.373 1_556 S
C1166 H1174 0.930 . S
C1167 C1166 1.373 1_554 S
C1167 C1168 1.400 . S
C1167 H1175 0.935 . S
C1168 C1167 1.400 . S
C1168 C1169 1.377 . S
C1169 H1153 0.930 . S
C1169 C1168 1.377 . S
C1169 C1170 1.379 1_554 S
C1170 H1154 0.931 . S
C1170 C1164 1.383 . S
C1170 C1169 1.379 1_556 S
H1171 C1165 0.959 . S
H1172 C1165 0.961 1_554 S
H1173 C1165 0.960 . S
H1174 C1166 0.930 . S
H1175 C1167 0.935 . S
H1176 C1184 0.929 . S
H1177 C1186 0.930 . S
H1178 C1188 0.930 . S
H1179 C1191 0.929 . S
H1180 C1194 0.930 . S
H1181 C1196 0.960 . S
H1182 C1196 0.960 . S
H1183 C1196 0.960 . S
C1184 H1176 0.929 . S
C1184 C1185 1.377 . S
C1184 C1186 1.384 . S
C1185 C1184 1.377 . S
C1185 C1191 1.390 . S
C1186 H1177 0.930 . S
C1186 C1184 1.384 . S
C1186 C1187 1.372 . S
C1187 C1186 1.372 . S
C1187 C1188 1.400 . S
C1187 C1192 1.490 . S
C1188 H1178 0.930 . S
C1188 C1187 1.400 . S
C1188 C1191 1.386 . S
H1189 C1205 0.930 . S
H1190 C1206 0.931 . S
C1191 H1179 0.929 . S
C1191 C1185 1.390 . S
C1191 C1188 1.386 . S
C1192 C1187 1.490 . S
C1192 C1194 1.395 . S
C1192 C1195 1.403 . S
H1193 C1199 0.930 . S
C1194 H1180 0.930 . S
C1194 C1192 1.395 . S
C1194 C1197 1.403 . S
C1195 C1192 1.403 . S
C1195 C1196 1.524 . S
C1195 C1199 1.400 . S
C1196 H1181 0.960 . S
C1196 H1182 0.960 . S
C1196 H1183 0.960 . S
C1196 C1195 1.524 . S
C1197 C1194 1.403 . S
C1197 C1198 1.392 . S
C1197 C1201 1.495 . S
C1198 C1197 1.392 . S
C1198 C1199 1.385 . S
C1198 C1200 1.478 . S
C1199 H1193 0.930 . S
C1199 C1195 1.400 . S
C1199 C1198 1.385 . S
C1200 C1198 1.478 . S
C1200 C1202 1.381 . S
C1200 C1206 1.383 . S
C1201 C1197 1.495 . S
C1201 H1207 0.959 . S
C1201 H1208 0.961 . S
C1201 H1209 0.960 . S
C1202 C1200 1.381 . S
C1202 C1203 1.394 . S
C1202 H1210 0.930 . S
C1203 C1202 1.394 . S
C1203 C1204 1.383 . S
C1203 H1211 0.929 . S
C1204 C1203 1.383 . S
C1204 C1205 1.377 . S
C1205 H1189 0.930 . S
C1205 C1204 1.377 . S
C1205 C1206 1.379 . S
C1206 H1190 0.931 . S
C1206 C1200 1.383 . S
C1206 C1205 1.379 . S
H1207 C1201 0.959 . S
H1208 C1201 0.961 . S
H1209 C1201 0.960 . S
H1210 C1202 0.930 . S
H1211 C1203 0.929 . S
H1212 C1220 0.929 . S
H1213 C1222 0.930 . S
H1214 C1224 0.930 . S
H1215 C1227 0.929 . S
H1216 C1230 0.930 . S
H1217 C1232 0.960 . S
H1218 C1232 0.960 . S
H1219 C1232 0.960 . S
C1220 H1212 0.929 . S
C1220 C1221 1.377 . S
C1220 C1222 1.384 . S
C1221 C1220 1.377 . S
C1221 C1227 1.390 . S
C1222 H1213 0.930 . S
C1222 C1220 1.384 . S
C1222 C1223 1.372 . S
C1223 C1222 1.372 . S
C1223 C1224 1.400 . S
C1223 C1228 1.490 . S
C1224 H1214 0.930 . S
C1224 C1223 1.400 . S
C1224 C1227 1.386 . S
H1225 C1241 0.930 . S
H1226 C1242 0.931 . S
C1227 H1215 0.929 . S
C1227 C1221 1.390 . S
C1227 C1224 1.386 . S
C1228 C1223 1.490 . S
C1228 C1230 1.395 . S
C1228 C1231 1.403 . S
H1229 C1235 0.930 . S
C1230 H1216 0.930 . S
C1230 C1228 1.395 . S
C1230 C1233 1.403 . S
C1231 C1228 1.403 . S
C1231 C1232 1.524 . S
C1231 C1235 1.400 . S
C1232 H1217 0.960 . S
C1232 H1218 0.960 . S
C1232 H1219 0.960 . S
C1232 C1231 1.524 . S
C1233 C1230 1.403 . S
C1233 C1234 1.392 . S
C1233 C1237 1.495 . S
C1234 C1233 1.392 . S
C1234 C1235 1.385 . S
C1234 C1236 1.478 . S
C1235 H1229 0.930 . S
C1235 C1231 1.400 . S
C1235 C1234 1.385 . S
C1236 C1234 1.478 . S
C1236 C1238 1.381 . S
C1236 C1242 1.383 . S
C1237 C1233 1.495 . S
C1237 H1243 0.959 . S
C1237 H1244 0.961 . S
C1237 H1245 0.960 . S
C1238 C1236 1.381 . S
C1238 C1239 1.394 . S
C1238 H1246 0.930 . S
C1239 C1238 1.394 . S
C1239 C1240 1.383 . S
C1239 H1247 0.929 . S
C1240 C1239 1.383 . S
C1240 C1241 1.377 . S
C1241 H1225 0.930 . S
C1241 C1240 1.377 . S
C1241 C1242 1.379 . S
C1242 H1226 0.931 . S
C1242 C1236 1.383 . S
C1242 C1241 1.379 . S
H1243 C1237 0.959 . S
H1244 C1237 0.961 . S
H1245 C1237 0.960 . S
H1246 C1238 0.930 . S
H1247 C1239 0.929 . S
H1248 C1256 0.929 . S
H1249 C1258 0.930 . S
H1250 C1260 0.930 . S
H1251 C1263 0.929 . S
H1252 C1266 0.930 . S
H1253 C1268 0.960 . S
H1254 C1268 0.960 . S
H1255 C1268 0.960 . S
C1256 H1248 0.929 . S
C1256 C1257 1.377 . S
C1256 C1258 1.384 . S
C1257 C1256 1.377 . S
C1257 C1263 1.390 . S
C1258 H1249 0.930 . S
C1258 C1256 1.384 . S
C1258 C1259 1.372 . S
C1259 C1258 1.372 . S
C1259 C1260 1.400 . S
C1259 C1264 1.490 . S
C1260 H1250 0.930 . S
C1260 C1259 1.400 . S
C1260 C1263 1.386 . S
H1261 C1277 0.930 . S
H1262 C1278 0.931 . S
C1263 H1251 0.929 . S
C1263 C1257 1.390 . S
C1263 C1260 1.386 . S
C1264 C1259 1.490 . S
C1264 C1266 1.395 . S
C1264 C1267 1.403 . S
H1265 C1271 0.930 . S
C1266 H1252 0.930 . S
C1266 C1264 1.395 . S
C1266 C1269 1.403 . S
C1267 C1264 1.403 . S
C1267 C1268 1.524 . S
C1267 C1271 1.400 . S
C1268 H1253 0.960 . S
C1268 H1254 0.960 . S
C1268 H1255 0.960 . S
C1268 C1267 1.524 . S
C1269 C1266 1.403 . S
C1269 C1270 1.392 . S
C1269 C1273 1.495 . S
C1270 C1269 1.392 . S
C1270 C1271 1.385 . S
C1270 C1272 1.478 . S
C1271 H1265 0.930 . S
C1271 C1267 1.400 . S
C1271 C1270 1.385 . S
C1272 C1270 1.478 . S
C1272 C1274 1.381 . S
C1272 C1278 1.383 . S
C1273 C1269 1.495 . S
C1273 H1279 0.959 . S
C1273 H1280 0.961 . S
C1273 H1281 0.960 . S
C1274 C1272 1.381 . S
C1274 C1275 1.394 . S
C1274 H1282 0.930 . S
C1275 C1274 1.394 . S
C1275 C1276 1.383 . S
C1275 H1283 0.929 . S
C1276 C1275 1.383 . S
C1276 C1277 1.377 . S
C1277 H1261 0.930 . S
C1277 C1276 1.377 . S
C1277 C1278 1.379 . S
C1278 H1262 0.931 . S
C1278 C1272 1.383 . S
C1278 C1277 1.379 . S
H1279 C1273 0.959 . S
H1280 C1273 0.961 . S
H1281 C1273 0.960 . S
H1282 C1274 0.930 . S
H1283 C1275 0.929 . S
H1284 C1292 0.929 . S
H1285 C1294 0.930 . S
H1286 C1296 0.930 . S
H1287 C1299 0.929 . S
H1288 C1302 0.930 . S
H1289 C1304 0.960 . S
H1290 C1304 0.960 . S
H1291 C1304 0.960 . S
C1292 H1284 0.929 . S
C1292 C1293 1.377 . S
C1292 C1294 1.384 . S
C1293 C1292 1.377 . S
C1293 C1299 1.390 . S
C1294 H1285 0.930 . S
C1294 C1292 1.384 . S
C1294 C1295 1.372 . S
C1295 C1294 1.372 . S
C1295 C1296 1.400 . S
C1295 C1300 1.490 . S
C1296 H1286 0.930 . S
C1296 C1295 1.400 . S
C1296 C1299 1.386 . S
H1297 C1313 0.930 . S
H1298 C1314 0.931 . S
C1299 H1287 0.929 . S
C1299 C1293 1.390 . S
C1299 C1296 1.386 . S
C1300 C1295 1.490 . S
C1300 C1302 1.395 . S
C1300 C1303 1.403 . S
H1301 C1307 0.930 . S
C1302 H1288 0.930 . S
C1302 C1300 1.395 . S
C1302 C1305 1.403 . S
C1303 C1300 1.403 . S
C1303 C1304 1.524 . S
C1303 C1307 1.400 . S
C1304 H1289 0.960 . S
C1304 H1290 0.960 . S
C1304 H1291 0.960 . S
C1304 C1303 1.524 . S
C1305 C1302 1.403 . S
C1305 C1306 1.392 . S
C1305 C1309 1.495 . S
C1306 C1305 1.392 . S
C1306 C1307 1.385 . S
C1306 C1308 1.478 . S
C1307 H1301 0.930 . S
C1307 C1303 1.400 . S
C1307 C1306 1.385 . S
C1308 C1306 1.478 . S
C1308 C1310 1.381 . S
C1308 C1314 1.383 . S
C1309 C1305 1.495 . S
C1309 H1315 0.959 . S
C1309 H1316 0.961 . S
C1309 H1317 0.960 . S
C1310 C1308 1.381 . S
C1310 C1311 1.394 . S
C1310 H1318 0.930 . S
C1311 C1310 1.394 . S
C1311 C1312 1.383 . S
C1311 H1319 0.929 . S
C1312 C1311 1.383 . S
C1312 C1313 1.377 . S
C1313 H1297 0.930 . S
C1313 C1312 1.377 . S
C1313 C1314 1.379 . S
C1314 H1298 0.931 . S
C1314 C1308 1.383 . S
C1314 C1313 1.379 . S
H1315 C1309 0.959 . S
H1316 C1309 0.961 . S
H1317 C1309 0.960 . S
H1318 C1310 0.930 . S
H1319 C1311 0.929 . S
H1320 C1328 0.929 . S
H1321 C1330 0.930 . S
H1322 C1332 0.930 . S
H1323 C1335 0.929 . S
H1324 C1338 0.930 . S
H1325 C1340 0.960 . S
H1326 C1340 0.960 . S
H1327 C1340 0.960 . S
C1328 H1320 0.929 . S
C1328 C1329 1.377 . S
C1328 C1330 1.384 . S
C1329 C1328 1.377 . S
C1329 C1335 1.390 . S
C1330 H1321 0.930 . S
C1330 C1328 1.384 . S
C1330 C1331 1.372 . S
C1331 C1330 1.372 . S
C1331 C1332 1.400 . S
C1331 C1336 1.490 . S
C1332 H1322 0.930 . S
C1332 C1331 1.400 . S
C1332 C1335 1.386 . S
H1333 C1349 0.930 . S
H1334 C1350 0.931 . S
C1335 H1323 0.929 . S
C1335 C1329 1.390 . S
C1335 C1332 1.386 . S
C1336 C1331 1.490 . S
C1336 C1338 1.395 . S
C1336 C1339 1.403 . S
H1337 C1343 0.930 . S
C1338 H1324 0.930 . S
C1338 C1336 1.395 . S
C1338 C1341 1.403 . S
C1339 C1336 1.403 . S
C1339 C1340 1.524 . S
C1339 C1343 1.400 . S
C1340 H1325 0.960 . S
C1340 H1326 0.960 . S
C1340 H1327 0.960 . S
C1340 C1339 1.524 . S
C1341 C1338 1.403 . S
C1341 C1342 1.392 . S
C1341 C1345 1.495 . S
C1342 C1341 1.392 . S
C1342 C1343 1.385 . S
C1342 C1344 1.478 1_455 S
C1343 H1337 0.930 . S
C1343 C1339 1.400 . S
C1343 C1342 1.385 . S
C1344 C1342 1.478 1_655 S
C1344 C1346 1.381 1_655 S
C1344 C1350 1.383 . S
C1345 C1341 1.495 . S
C1345 H1351 0.959 . S
C1345 H1352 0.961 . S
C1345 H1353 0.960 . S
C1346 C1344 1.381 1_455 S
C1346 C1347 1.394 1_455 S
C1346 H1354 0.930 . S
C1347 C1346 1.394 1_655 S
C1347 C1348 1.383 . S
C1347 H1355 0.929 . S
C1348 C1347 1.383 . S
C1348 C1349 1.377 . S
C1349 H1333 0.930 . S
C1349 C1348 1.377 . S
C1349 C1350 1.379 . S
C1350 H1334 0.931 . S
C1350 C1344 1.383 . S
C1350 C1349 1.379 . S
H1351 C1345 0.959 . S
H1352 C1345 0.961 . S
H1353 C1345 0.960 . S
H1354 C1346 0.930 . S
H1355 C1347 0.929 . S
H1356 C1364 0.929 . S
H1357 C1366 0.930 . S
H1358 C1368 0.930 . S
H1359 C1371 0.929 . S
H1360 C1374 0.930 . S
H1361 C1376 0.960 . S
H1362 C1376 0.960 . S
H1363 C1376 0.960 . S
C1364 H1356 0.929 . S
C1364 C1365 1.377 . S
C1364 C1366 1.384 . S
C1365 C1364 1.377 . S
C1365 C1371 1.390 . S
C1366 H1357 0.930 . S
C1366 C1364 1.384 . S
C1366 C1367 1.372 . S
C1367 C1366 1.372 . S
C1367 C1368 1.400 . S
C1367 C1372 1.490 . S
C1368 H1358 0.930 . S
C1368 C1367 1.400 . S
C1368 C1371 1.386 . S
H1369 C1385 0.930 . S
H1370 C1386 0.931 . S
C1371 H1359 0.929 . S
C1371 C1365 1.390 . S
C1371 C1368 1.386 . S
C1372 C1367 1.490 . S
C1372 C1374 1.395 . S
C1372 C1375 1.403 . S
H1373 C1379 0.930 . S
C1374 H1360 0.930 . S
C1374 C1372 1.395 . S
C1374 C1377 1.403 . S
C1375 C1372 1.403 . S
C1375 C1376 1.524 . S
C1375 C1379 1.400 . S
C1376 H1361 0.960 . S
C1376 H1362 0.960 . S
C1376 H1363 0.960 . S
C1376 C1375 1.524 . S
C1377 C1374 1.403 . S
C1377 C1378 1.392 . S
C1377 C1381 1.495 . S
C1378 C1377 1.392 . S
C1378 C1379 1.385 . S
C1378 C1380 1.478 . S
C1379 H1373 0.930 . S
C1379 C1375 1.400 . S
C1379 C1378 1.385 . S
C1380 C1378 1.478 . S
C1380 C1382 1.381 . S
C1380 C1386 1.383 . S
C1381 C1377 1.495 . S
C1381 H1387 0.959 . S
C1381 H1388 0.961 . S
C1381 H1389 0.960 . S
C1382 C1380 1.381 . S
C1382 C1383 1.394 . S
C1382 H1390 0.930 . S
C1383 C1382 1.394 . S
C1383 C1384 1.383 . S
C1383 H1391 0.929 . S
C1384 C1383 1.383 . S
C1384 C1385 1.377 . S
C1385 H1369 0.930 . S
C1385 C1384 1.377 . S
C1385 C1386 1.379 . S
C1386 H1370 0.931 . S
C1386 C1380 1.383 . S
C1386 C1385 1.379 . S
H1387 C1381 0.959 . S
H1388 C1381 0.961 . S
H1389 C1381 0.960 . S
H1390 C1382 0.930 . S
H1391 C1383 0.929 . S
H1392 C1400 0.929 . S
H1393 C1402 0.930 . S
H1394 C1404 0.930 . S
H1395 C1407 0.929 . S
H1396 C1410 0.930 . S
H1397 C1412 0.960 . S
H1398 C1412 0.960 . S
H1399 C1412 0.960 . S
C1400 H1392 0.929 . S
C1400 C1401 1.377 . S
C1400 C1402 1.384 . S
C1401 C1400 1.377 . S
C1401 C1407 1.390 . S
C1402 H1393 0.930 . S
C1402 C1400 1.384 . S
C1402 C1403 1.372 . S
C1403 C1402 1.372 . S
C1403 C1404 1.400 . S
C1403 C1408 1.490 . S
C1404 H1394 0.930 . S
C1404 C1403 1.400 . S
C1404 C1407 1.386 . S
H1405 C1421 0.930 . S
H1406 C1422 0.931 . S
C1407 H1395 0.929 . S
C1407 C1401 1.390 . S
C1407 C1404 1.386 . S
C1408 C1403 1.490 . S
C1408 C1410 1.395 . S
C1408 C1411 1.403 . S
H1409 C1415 0.930 . S
C1410 H1396 0.930 . S
C1410 C1408 1.395 . S
C1410 C1413 1.403 . S
C1411 C1408 1.403 . S
C1411 C1412 1.524 . S
C1411 C1415 1.400 . S
C1412 H1397 0.960 . S
C1412 H1398 0.960 . S
C1412 H1399 0.960 . S
C1412 C1411 1.524 . S
C1413 C1410 1.403 . S
C1413 C1414 1.392 . S
C1413 C1417 1.495 . S
C1414 C1413 1.392 . S
C1414 C1415 1.385 . S
C1414 C1416 1.478 . S
C1415 H1409 0.930 . S
C1415 C1411 1.400 . S
C1415 C1414 1.385 . S
C1416 C1414 1.478 . S
C1416 C1418 1.381 . S
C1416 C1422 1.383 . S
C1417 C1413 1.495 . S
C1417 H1423 0.959 . S
C1417 H1424 0.961 . S
C1417 H1425 0.960 . S
C1418 C1416 1.381 . S
C1418 C1419 1.394 . S
C1418 H1426 0.930 . S
C1419 C1418 1.394 . S
C1419 C1420 1.383 . S
C1419 H1427 0.929 . S
C1420 C1419 1.383 . S
C1420 C1421 1.377 . S
C1421 H1405 0.930 . S
C1421 C1420 1.377 . S
C1421 C1422 1.379 . S
C1422 H1406 0.931 . S
C1422 C1416 1.383 . S
C1422 C1421 1.379 . S
H1423 C1417 0.959 . S
H1424 C1417 0.961 . S
H1425 C1417 0.960 . S
H1426 C1418 0.930 . S
H1427 C1419 0.929 . S
H1428 C1436 0.929 . S
H1429 C1438 0.930 . S
H1430 C1440 0.930 . S
H1431 C1443 0.929 . S
H1432 C1446 0.930 . S
H1433 C1448 0.960 . S
H1434 C1448 0.960 . S
H1435 C1448 0.960 . S
C1436 H1428 0.929 . S
C1436 C1437 1.377 . S
C1436 C1438 1.384 . S
C1437 C1436 1.377 . S
C1437 C1443 1.390 . S
C1438 H1429 0.930 . S
C1438 C1436 1.384 . S
C1438 C1439 1.372 . S
C1439 C1438 1.372 . S
C1439 C1440 1.400 . S
C1439 C1444 1.490 . S
C1440 H1430 0.930 . S
C1440 C1439 1.400 . S
C1440 C1443 1.386 . S
H1441 C1457 0.930 . S
H1442 C1458 0.931 . S
C1443 H1431 0.929 . S
C1443 C1437 1.390 . S
C1443 C1440 1.386 . S
C1444 C1439 1.490 . S
C1444 C1446 1.395 . S
C1444 C1447 1.403 . S
H1445 C1451 0.930 . S
C1446 H1432 0.930 . S
C1446 C1444 1.395 . S
C1446 C1449 1.403 . S
C1447 C1444 1.403 . S
C1447 C1448 1.524 . S
C1447 C1451 1.400 . S
C1448 H1433 0.960 . S
C1448 H1434 0.960 . S
C1448 H1435 0.960 . S
C1448 C1447 1.524 . S
C1449 C1446 1.403 . S
C1449 C1450 1.392 . S
C1449 C1453 1.495 . S
C1450 C1449 1.392 . S
C1450 C1451 1.385 . S
C1450 C1452 1.478 . S
C1451 H1445 0.930 . S
C1451 C1447 1.400 . S
C1451 C1450 1.385 . S
C1452 C1450 1.478 . S
C1452 C1454 1.381 . S
C1452 C1458 1.383 . S
C1453 C1449 1.495 . S
C1453 H1459 0.959 . S
C1453 H1460 0.961 . S
C1453 H1461 0.960 . S
C1454 C1452 1.381 . S
C1454 C1455 1.394 . S
C1454 H1462 0.930 . S
C1455 C1454 1.394 . S
C1455 C1456 1.383 . S
C1455 H1463 0.929 . S
C1456 C1455 1.383 . S
C1456 C1457 1.377 . S
C1457 H1441 0.930 . S
C1457 C1456 1.377 . S
C1457 C1458 1.379 . S
C1458 H1442 0.931 . S
C1458 C1452 1.383 . S
C1458 C1457 1.379 . S
H1459 C1453 0.959 . S
H1460 C1453 0.961 . S
H1461 C1453 0.960 . S
H1462 C1454 0.930 . S
H1463 C1455 0.929 . S
H1464 C1472 0.929 . S
H1465 C1474 0.930 . S
H1466 C1476 0.930 . S
H1467 C1479 0.929 . S
H1468 C1482 0.930 . S
H1469 C1484 0.960 . S
H1470 C1484 0.960 . S
H1471 C1484 0.960 . S
C1472 H1464 0.929 . S
C1472 C1473 1.377 . S
C1472 C1474 1.384 . S
C1473 C1472 1.377 . S
C1473 C1479 1.390 . S
C1474 H1465 0.930 . S
C1474 C1472 1.384 . S
C1474 C1475 1.372 . S
C1475 C1474 1.372 . S
C1475 C1476 1.400 . S
C1475 C1480 1.490 . S
C1476 H1466 0.930 . S
C1476 C1475 1.400 . S
C1476 C1479 1.386 . S
H1477 C1493 0.930 1_545 S
H1478 C1494 0.931 . S
C1479 H1467 0.929 . S
C1479 C1473 1.390 . S
C1479 C1476 1.386 . S
C1480 C1475 1.490 . S
C1480 C1482 1.395 . S
C1480 C1483 1.403 . S
H1481 C1487 0.930 . S
C1482 H1468 0.930 . S
C1482 C1480 1.395 . S
C1482 C1485 1.403 . S
C1483 C1480 1.403 . S
C1483 C1484 1.524 . S
C1483 C1487 1.400 . S
C1484 H1469 0.960 . S
C1484 H1470 0.960 . S
C1484 H1471 0.960 . S
C1484 C1483 1.524 . S
C1485 C1482 1.403 . S
C1485 C1486 1.392 . S
C1485 C1489 1.495 . S
C1486 C1485 1.392 . S
C1486 C1487 1.385 . S
C1486 C1488 1.478 . S
C1487 H1481 0.930 . S
C1487 C1483 1.400 . S
C1487 C1486 1.385 . S
C1488 C1486 1.478 . S
C1488 C1490 1.381 . S
C1488 C1494 1.383 . S
C1489 C1485 1.495 . S
C1489 H1495 0.959 . S
C1489 H1496 0.961 . S
C1489 H1497 0.960 . S
C1490 C1488 1.381 . S
C1490 C1491 1.394 . S
C1490 H1498 0.930 . S
C1491 C1490 1.394 . S
C1491 C1492 1.383 . S
C1491 H1499 0.929 . S
C1492 C1491 1.383 . S
C1492 C1493 1.377 . S
C1493 H1477 0.930 1_565 S
C1493 C1492 1.377 . S
C1493 C1494 1.379 . S
C1494 H1478 0.931 . S
C1494 C1488 1.383 . S
C1494 C1493 1.379 . S
H1495 C1489 0.959 . S
H1496 C1489 0.961 . S
H1497 C1489 0.960 . S
H1498 C1490 0.930 . S
H1499 C1491 0.929 . S
H1500 C1508 0.929 . S
H1501 C1510 0.930 1_565 S
H1502 C1512 0.930 . S
H1503 C1515 0.929 . S
H1504 C1518 0.930 . S
H1505 C1520 0.960 . S
H1506 C1520 0.960 . S
H1507 C1520 0.960 . S
C1508 H1500 0.929 . S
C1508 C1509 1.377 . S
C1508 C1510 1.384 1_565 S
C1509 C1508 1.377 . S
C1509 C1515 1.390 1_565 S
C1510 H1501 0.930 1_545 S
C1510 C1508 1.384 1_545 S
C1510 C1511 1.372 . S
C1511 C1510 1.372 . S
C1511 C1512 1.400 . S
C1511 C1516 1.490 . S
C1512 H1502 0.930 . S
C1512 C1511 1.400 . S
C1512 C1515 1.386 . S
H1513 C1529 0.930 . S
H1514 C1530 0.931 . S
C1515 H1503 0.929 . S
C1515 C1509 1.390 1_545 S
C1515 C1512 1.386 . S
C1516 C1511 1.490 . S
C1516 C1518 1.395 . S
C1516 C1519 1.403 . S
H1517 C1523 0.930 . S
C1518 H1504 0.930 . S
C1518 C1516 1.395 . S
C1518 C1521 1.403 1_655 S
C1519 C1516 1.403 . S
C1519 C1520 1.524 . S
C1519 C1523 1.400 . S
C1520 H1505 0.960 . S
C1520 H1506 0.960 . S
C1520 H1507 0.960 . S
C1520 C1519 1.524 . S
C1521 C1518 1.403 1_455 S
C1521 C1522 1.392 . S
C1521 C1525 1.495 . S
C1522 C1521 1.392 . S
C1522 C1523 1.385 1_455 S
C1522 C1524 1.478 . S
C1523 H1517 0.930 . S
C1523 C1519 1.400 . S
C1523 C1522 1.385 1_655 S
C1524 C1522 1.478 . S
C1524 C1526 1.381 . S
C1524 C1530 1.383 . S
C1525 C1521 1.495 . S
C1525 H1531 0.959 . S
C1525 H1532 0.961 . S
C1525 H1533 0.960 . S
C1526 C1524 1.381 . S
C1526 C1527 1.394 . S
C1526 H1534 0.930 . S
C1527 C1526 1.394 . S
C1527 C1528 1.383 . S
C1527 H1535 0.929 . S
C1528 C1527 1.383 . S
C1528 C1529 1.377 . S
C1529 H1513 0.930 . S
C1529 C1528 1.377 . S
C1529 C1530 1.379 . S
C1530 H1514 0.931 . S
C1530 C1524 1.383 . S
C1530 C1529 1.379 . S
H1531 C1525 0.959 . S
H1532 C1525 0.961 . S
H1533 C1525 0.960 . S
H1534 C1526 0.930 . S
H1535 C1527 0.929 . S
C249 C9 1.479 . S
C268 C226 1.473 . S
C285 C189 1.581 . S
C304 C29 1.569 . S
C321 C46 1.150 . S
C340 C166 1.172 . S
C357 C69 1.393 . S
C376 C206 1.381 . S
C393 C86 1.485 . S
C412 C209 1.490 1_545 S
C429 C109 1.494 1_455 S
C448 C229 1.514 . S
C465 C186 1.534 . S
C484 C129 1.542 . S
C501 C146 1.372 . S
C520 C169 1.361 . S
C537 C66 1.473 . S
C556 C89 1.488 . S
C573 C6 1.220 . S
C592 C106 1.257 . S
C609 C26 1.181 . S
C628 C126 1.201 1_556 S
C645 C149 1.807 . S
C664 C49 1.802 1_554 S
C681 C8 1.434 . S
C700 C176 1.431 . S
C717 C28 1.381 . S
C736 C216 1.360 . S
C753 C236 1.872 . S
C772 C59 1.832 . S
C789 C68 1.663 . S
C808 C181 1.707 . S
C825 C99 1.755 . S
C844 C196 1.798 . S
C861 C161 1.588 . S
C880 C108 1.505 . S
C897 C201 1.531 . S
C916 C128 1.510 . S
C933 C221 1.739 . S
C952 C159 1.619 . S
C969 C16 1.187 . S
C988 C79 1.175 . S
C1005 C19 1.323 . S
C1024 C36 1.362 . S
C1041 C39 1.079 . S
C1060 C41 1.114 . S
C1077 C76 1.352 . S
C1096 C48 1.386 1_554 S
C1113 C119 1.581 . S
C1132 C81 1.657 . S
C1149 C116 1.919 . S
C1168 C139 1.812 . S
C1185 C136 1.700 . S
C1204 C148 1.685 . S
C1221 C88 2.065 . S
C1240 C141 2.093 . S
C1257 C168 1.522 . S
C1276 C61 1.585 . S
C1293 C101 1.758 . S
C1312 C188 1.705 . S
C1329 C179 1.189 . S
C1348 C121 1.262 . S
C1365 C219 1.444 . S
C1384 C156 1.519 . S
C1401 C96 1.451 . S
C1420 C239 1.384 . S
C1437 C228 1.599 . S
C1456 C21 1.606 . S
C1473 C56 1.583 . S
C1492 C199 1.544 1_565 S
C1509 C208 1.397 . S
C1528 C1 1.441 . S
