# Generated by pormake.
# Topology upa, (4)-cn, num edge types: 1
# Building blocks:
#     Node 0, Type 0, BuildingBlock: KUFVIS_clean_sbu_0, # of connection points: 4
#     Node 1, Type 0, BuildingBlock: KUFVIS_clean_sbu_0, # of connection points: 4
#     Node 2, Type 0, BuildingBlock: KUFVIS_clean_sbu_0, # of connection points: 4
#     Node 3, Type 0, BuildingBlock: KUFVIS_clean_sbu_0, # of connection points: 4
#     Node 4, Type 0, BuildingBlock: KUFVIS_clean_sbu_0, # of connection points: 4
#     Node 5, Type 0, BuildingBlock: KUFVIS_clean_sbu_0, # of connection points: 4
#     Node 6, Type 0, BuildingBlock: KUFVIS_clean_sbu_0, # of connection points: 4
#     Node 7, Type 0, BuildingBlock: KUFVIS_clean_sbu_0, # of connection points: 4
#     Edge 8, Type (0, 0), BuildingBlock: OJICUG_clean_linker_0, # of connection points: 2
#     Edge 9, Type (0, 0), BuildingBlock: OJICUG_clean_linker_0, # of connection points: 2
#     Edge 10, Type (0, 0), BuildingBlock: OJICUG_clean_linker_0, # of connection points: 2
#     Edge 11, Type (0, 0), BuildingBlock: OJICUG_clean_linker_0, # of connection points: 2
#     Edge 12, Type (0, 0), BuildingBlock: OJICUG_clean_linker_0, # of connection points: 2
#     Edge 13, Type (0, 0), BuildingBlock: OJICUG_clean_linker_0, # of connection points: 2
#     Edge 14, Type (0, 0), BuildingBlock: OJICUG_clean_linker_0, # of connection points: 2
#     Edge 15, Type (0, 0), BuildingBlock: OJICUG_clean_linker_0, # of connection points: 2
#     Edge 16, Type (0, 0), BuildingBlock: OJICUG_clean_linker_0, # of connection points: 2
#     Edge 17, Type (0, 0), BuildingBlock: OJICUG_clean_linker_0, # of connection points: 2
#     Edge 18, Type (0, 0), BuildingBlock: OJICUG_clean_linker_0, # of connection points: 2
#     Edge 19, Type (0, 0), BuildingBlock: OJICUG_clean_linker_0, # of connection points: 2
#     Edge 20, Type (0, 0), BuildingBlock: OJICUG_clean_linker_0, # of connection points: 2
#     Edge 21, Type (0, 0), BuildingBlock: OJICUG_clean_linker_0, # of connection points: 2
#     Edge 22, Type (0, 0), BuildingBlock: OJICUG_clean_linker_0, # of connection points: 2
#     Edge 23, Type (0, 0), BuildingBlock: OJICUG_clean_linker_0, # of connection points: 2
# Relax obj value: 0.180
# Max RMSD: 0.138
# Mean RMSD: 0.138
data_MOF--net-upa--node1-KUFVIS_clean_sbu_0--edge1-OJICUG_clean_linker_0
_symmetry_space_group_name_H-M    P1
_symmetry_Int_Tables_number       1
_symmetry_cell_setting            triclinic
loop_
_symmetry_equiv_pos_as_xyz
'x, y, z'
_cell_length_a     18.398158
_cell_length_b     18.415295
_cell_length_c     32.134968
_cell_angle_alpha  89.866573
_cell_angle_beta   90.081809
_cell_angle_gamma 89.983381
loop_
_atom_site_label
_atom_site_type_symbol
_atom_site_fract_x
_atom_site_fract_y
_atom_site_fract_z
_atom_type_partial_charge
Mn0 Mn 0.19576 0.21401 0.34885 0.0
Mn1 Mn 0.28427 0.06592 0.38269 0.0
C2 C 0.13177 0.11804 0.37708 0.0
C3 C 0.12535 0.26819 0.29606 0.0
C4 C 0.26431 0.20073 0.43554 0.0
O5 O 0.29675 0.22802 0.32274 0.0
O6 O 0.35107 0.13006 0.3508 0.0
C7 C 0.30632 1.00457 0.29854 0.0
N8 N 0.27943 0.99799 0.33785 0.0
C9 C 0.22551 0.88248 0.32162 0.0
C10 C 0.25356 0.8878 0.28124 0.0
C11 C 0.29394 0.94911 0.26958 0.0
C12 C 0.23915 0.9398 0.34903 0.0
H13 H 0.33625 0.05206 0.28907 0.0
C14 C 0.35262 0.18771 0.32858 0.0
O15 O 0.15255 0.30721 0.32604 0.0
O16 O 0.14803 0.2021 0.29387 0.0
N17 N 0.22815 0.99672 0.4132 0.0
C18 C 0.214 0.99562 0.45474 0.0
C19 C 0.17673 0.93635 0.47194 0.0
C20 C 0.15549 0.87815 0.44654 0.0
C21 C 0.17457 0.87849 0.40434 0.0
C22 C 0.2127 0.9387 0.38906 0.0
H23 H 0.23135 0.03944 0.47464 0.0
O24 O 0.10416 0.18237 0.37571 0.0
O25 O 0.19637 0.11128 0.36098 0.0
O26 O 0.23539 0.24032 0.40708 0.0
O27 O 0.28475 0.13484 0.42996 0.0
C28 C 0.15958 0.82039 0.37721 0.0
C29 C 0.18488 0.82248 0.33581 0.0
H30 H 0.24427 0.84542 0.25885 0.0
H31 H 0.31521 0.95374 0.23831 0.0
H32 H 0.16499 0.93553 0.50471 0.0
H33 H 0.12649 0.83266 0.46002 0.0
H34 H 0.12971 0.77334 0.38804 0.0
H35 H 0.17393 0.77706 0.31543 0.0
Mn36 Mn 0.31309 0.691 0.84895 0.0
Mn37 Mn 0.45981 0.77994 0.88377 0.0
C38 C 0.40858 0.62698 0.8779 0.0
C39 C 0.26099 0.62102 0.7956 0.0
C40 C 0.32159 0.76325 0.93484 0.0
O41 O 0.30002 0.79222 0.8225 0.0
O42 O 0.39987 0.84612 0.84868 0.0
C43 C 0.5306 0.79769 0.80165 0.0
N44 N 0.53231 0.77206 0.84144 0.0
C45 C 0.64939 0.71724 0.83049 0.0
C46 C 0.64938 0.74435 0.78974 0.0
C47 C 0.58962 0.78441 0.77516 0.0
C48 C 0.58909 0.7324 0.85548 0.0
H49 H 0.48438 0.82749 0.79003 0.0
C50 C 0.34184 0.84745 0.82672 0.0
O51 O 0.22077 0.64801 0.8251 0.0
O52 O 0.32722 0.64358 0.79418 0.0
N53 N 0.52414 0.72333 0.91727 0.0
C54 C 0.51737 0.70531 0.95814 0.0
C55 C 0.57293 0.66589 0.97764 0.0
C56 C 0.63547 0.64633 0.95517 0.0
C57 C 0.64208 0.66735 0.91343 0.0
C58 C 0.58507 0.70718 0.89574 0.0
H59 H 0.46959 0.72014 0.97564 0.0
O60 O 0.34425 0.59932 0.87621 0.0
O61 O 0.41519 0.69187 0.86207 0.0
O62 O 0.28442 0.7303 0.90681 0.0
O63 O 0.38683 0.78569 0.92907 0.0
C64 C 0.70321 0.65094 0.88879 0.0
C65 C 0.70678 0.67572 0.84726 0.0
H66 H 0.69481 0.73457 0.76938 0.0
H67 H 0.58889 0.80475 0.74354 0.0
H68 H 0.56638 0.65004 1.0097 0.0
H69 H 0.67835 0.61565 0.97013 0.0
H70 H 0.74788 0.61961 0.90152 0.0
H71 H 0.75405 0.6629 0.82859 0.0
Mn72 Mn 0.841 0.81192 0.34957 0.0
Mn73 Mn 0.75646 0.96031 0.38569 0.0
C74 C 0.90746 0.90482 0.37855 0.0
C75 C 0.91003 0.75991 0.29569 0.0
C76 C 0.76884 0.82029 0.43551 0.0
O77 O 0.7393 0.8025 0.32349 0.0
O78 O 0.68776 0.90305 0.35045 0.0
C79 C 0.73683 0.0357 0.30495 0.0
N80 N 0.7655 0.03409 0.34406 0.0
C81 C 0.82499 0.14893 0.33336 0.0
C82 C 0.79494 0.15232 0.29333 0.0
C83 C 0.75091 0.09539 0.27899 0.0
C84 C 0.80828 0.08849 0.35804 0.0
H85 H 0.70364 0.99177 0.29356 0.0
C86 C 0.68496 0.84539 0.32823 0.0
O87 O 0.88236 0.71946 0.32497 0.0
O88 O 0.88829 0.82639 0.29472 0.0
N89 N 0.81675 0.02137 0.41928 0.0
C90 C 0.83814 1.01162 0.45951 0.0
C91 C 0.88304 0.06364 0.47841 0.0
C92 C 0.90487 0.12542 0.45587 0.0
C93 C 0.88021 0.13539 0.41498 0.0
C94 C 0.83521 0.08189 0.39788 0.0
H95 H 0.82215 0.96391 0.47682 0.0
O96 O 0.93364 0.83995 0.37673 0.0
O97 O 0.84256 0.91344 0.36304 0.0
O98 O 0.80105 0.78291 0.40734 0.0
O99 O 0.74892 0.8864 0.43028 0.0
C100 C 0.89867 0.1962 0.39048 0.0
C101 C 0.87089 0.20309 0.34972 0.0
H102 H 0.80526 0.19836 0.2734 0.0
H103 H 0.72807 0.09737 0.24796 0.0
H104 H 0.90183 0.05525 0.50998 0.0
H105 H 0.94079 0.16478 0.47009 0.0
H106 H 0.93389 0.23816 0.40276 0.0
H107 H 0.88512 0.25026 0.33125 0.0
Mn108 Mn 0.71769 0.33744 0.8486 0.0
Mn109 Mn 0.5703 0.25109 0.885 0.0
C110 C 0.62332 0.40315 0.87709 0.0
C111 C 0.77052 0.40622 0.79475 0.0
C112 C 0.70961 0.26764 0.93533 0.0
O113 O 0.72879 0.23512 0.82327 0.0
O114 O 0.62886 0.18314 0.85063 0.0
C115 C 0.49686 0.23014 0.80374 0.0
N116 N 0.49685 0.25808 0.84296 0.0
C117 C 0.37921 0.31215 0.83227 0.0
C118 C 0.37736 0.28246 0.79219 0.0
C119 C 0.43657 0.24163 0.77776 0.0
C120 C 0.44057 0.29841 0.85684 0.0
H121 H 0.54256 0.19959 0.79225 0.0
C122 C 0.68652 0.18042 0.82852 0.0
O123 O 0.81046 0.37911 0.82446 0.0
O124 O 0.70411 0.38401 0.79334 0.0
N125 N 0.50732 0.30953 0.91797 0.0
C126 C 0.51547 0.32924 0.95845 0.0
C127 C 0.4609 0.36999 0.97769 0.0
C128 C 0.39775 0.38898 0.95544 0.0
C129 C 0.38965 0.36609 0.91415 0.0
C130 C 0.44592 0.32528 0.89664 0.0
H131 H 0.56367 0.31487 0.9758 0.0
O132 O 0.6879 0.4301 0.87493 0.0
O133 O 0.6156 0.338 0.86192 0.0
O134 O 0.74668 0.29934 0.9068 0.0
O135 O 0.64401 0.2459 0.93007 0.0
C136 C 0.32769 0.38148 0.88983 0.0
C137 C 0.32248 0.35454 0.84887 0.0
H138 H 0.33079 0.29061 0.77228 0.0
H139 H 0.43578 0.21915 0.74667 0.0
H140 H 0.46879 0.38727 1.00936 0.0
H141 H 0.35557 0.42065 0.97022 0.0
H142 H 0.28353 0.41349 0.90244 0.0
H143 H 0.27445 0.36634 0.83051 0.0
Mn144 Mn 0.69462 0.31362 0.19419 0.0
Mn145 Mn 0.78272 0.46055 0.15892 0.0
C146 C 0.62987 0.40904 0.16581 0.0
C147 C 0.6257 0.26097 0.24776 0.0
C148 C 0.76514 0.32264 0.1078 0.0
O149 O 0.79639 0.30052 0.21991 0.0
O150 O 0.84974 0.40038 0.19338 0.0
C151 C 0.80274 0.53096 0.24098 0.0
N152 N 0.77586 0.53274 0.20147 0.0
C153 C 0.72128 0.64969 0.21308 0.0
C154 C 0.74965 0.64959 0.25355 0.0
C155 C 0.79027 0.58986 0.26764 0.0
C156 C 0.73578 0.58954 0.18787 0.0
H157 H 0.83301 0.48479 0.25225 0.0
C158 C 0.85157 0.34231 0.21528 0.0
O159 O 0.65229 0.22109 0.21801 0.0
O160 O 0.64824 0.32717 0.24928 0.0
N161 N 0.72523 0.52505 0.12605 0.0
C162 C 0.70592 0.51842 0.08537 0.0
C163 C 0.66555 0.57382 0.06639 0.0
C164 C 0.64652 0.63616 0.08913 0.0
C165 C 0.66892 0.64267 0.13063 0.0
C166 C 0.70949 0.58574 0.14783 0.0
H167 H 0.72026 0.47077 0.06768 0.0
O168 O 0.60227 0.34475 0.16762 0.0
O169 O 0.69509 0.41574 0.18124 0.0
O170 O 0.73291 0.28537 0.13608 0.0
O171 O 0.78746 0.38792 0.11341 0.0
C172 C 0.65308 0.70357 0.15551 0.0
C173 C 0.67916 0.70703 0.19677 0.0
H174 H 0.74047 0.69494 0.27408 0.0
H175 H 0.81168 0.58908 0.29902 0.0
H176 H 0.64841 0.56722 0.03457 0.0
H177 H 0.61505 0.67887 0.07456 0.0
H178 H 0.62123 0.74818 0.14316 0.0
H179 H 0.66684 0.75418 0.21559 0.0
Mn180 Mn 0.21187 0.19221 0.69338 0.0
Mn181 Mn 0.06243 0.28111 0.66192 0.0
C182 C 0.11472 0.12882 0.66586 0.0
C183 C 0.26726 0.12062 0.74539 0.0
C184 C 0.19488 0.2606 0.60691 0.0
O185 O 0.22718 0.29251 0.71997 0.0
O186 O 0.12911 0.34731 0.69244 0.0
C187 C 1.00693 0.30315 0.74747 0.0
N188 N 0.99745 0.27659 0.70829 0.0
C189 C 0.88282 0.22316 0.7272 0.0
C190 C 0.89131 0.25055 0.76755 0.0
C191 C 0.95361 0.29059 0.77776 0.0
C192 C 0.93842 0.2364 0.69851 0.0
H193 H 0.05514 0.33288 0.75586 0.0
C194 C 0.18723 0.34864 0.71425 0.0
O195 O 0.30561 0.14797 0.71513 0.0
O196 O 0.20134 0.1436 0.74823 0.0
N197 N 0.99029 0.22631 0.63286 0.0
C198 C 0.98415 0.21625 0.59106 0.0
C199 C 0.92295 0.18045 0.57504 0.0
C200 C 0.86747 0.15742 0.60193 0.0
C201 C 0.87202 0.17405 0.64437 0.0
C202 C 0.9342 0.21046 0.65845 0.0
H203 H 0.02476 0.23702 0.57006 0.0
O204 O 0.17916 0.10131 0.66631 0.0
O205 O 0.10848 0.19292 0.68252 0.0
O206 O 0.23634 0.2331 0.635 0.0
O207 O 0.12883 0.28029 0.61335 0.0
C208 C 0.81566 0.15945 0.67278 0.0
C209 C 0.82113 0.18391 0.71421 0.0
H210 H 0.85066 0.24103 0.79103 0.0
H211 H 0.96063 0.31151 0.80895 0.0
H212 H 0.9179 0.17214 0.54201 0.0
H213 H 0.8202 0.13006 0.58936 0.0
H214 H 0.76709 0.13109 0.66285 0.0
H215 H 0.77666 0.17398 0.73542 0.0
Mn216 Mn 0.34127 0.71929 0.19409 0.0
Mn217 Mn 0.25391 0.57161 0.15913 0.0
C218 C 0.40644 0.6243 0.16592 0.0
C219 C 0.41073 0.77278 0.24743 0.0
C220 C 0.26983 0.70987 0.10783 0.0
O221 O 0.23932 0.73107 0.21984 0.0
O222 O 0.18664 0.63084 0.19353 0.0
C223 C 0.23415 0.49982 0.24097 0.0
N224 N 0.26148 0.49901 0.2016 0.0
C225 C 0.31578 0.38171 0.21278 0.0
C226 C 0.28689 0.38077 0.25309 0.0
C227 C 0.24621 0.44018 0.26734 0.0
C228 C 0.30159 0.4425 0.18786 0.0
H229 H 0.20366 0.54566 0.2523 0.0
C230 C 0.18444 0.68884 0.21528 0.0
O231 O 0.38343 0.81229 0.21759 0.0
O232 O 0.38848 0.70646 0.24921 0.0
N233 N 0.31169 0.50798 0.12621 0.0
C234 C 0.33062 0.51529 0.08555 0.0
C235 C 0.37096 0.46033 0.06641 0.0
C236 C 0.39031 0.39765 0.08896 0.0
C237 C 0.3682 0.39039 0.13046 0.0
C238 C 0.32775 0.44702 0.14785 0.0
H239 H 0.31598 0.56313 0.06797 0.0
O240 O 0.43361 0.68879 0.16753 0.0
O241 O 0.34138 0.61709 0.18141 0.0
O242 O 0.30229 0.74729 0.1359 0.0
O243 O 0.24805 0.64446 0.11364 0.0
C244 C 0.384 0.32898 0.15512 0.0
C245 C 0.35783 0.32465 0.1963 0.0
H246 H 0.29552 0.33476 0.27331 0.0
H247 H 0.22429 0.44004 0.29857 0.0
H248 H 0.38769 0.46761 0.0346 0.0
H249 H 0.42169 0.3552 0.07423 0.0
H250 H 0.41574 0.28456 0.14262 0.0
H251 H 0.36994 0.27702 0.21492 0.0
Mn252 Mn 0.80879 0.83758 0.69436 0.0
Mn253 Mn 0.95771 0.75403 0.65805 0.0
C254 C 0.90169 0.90455 0.66583 0.0
C255 C 0.75646 0.90562 0.74858 0.0
C256 C 0.81806 0.7675 0.60793 0.0
O257 O 0.79936 0.73539 0.71978 0.0
O258 O 0.90005 0.68449 0.69252 0.0
C259 C 0.03215 0.73224 0.73889 0.0
N260 N 0.03104 0.76188 0.70001 0.0
C261 C 0.146 0.82074 0.71154 0.0
C262 C 0.14887 0.78967 0.75134 0.0
C263 C 0.09163 0.74545 0.76515 0.0
C264 C 0.08577 0.80481 0.68654 0.0
H265 H 0.98794 0.69897 0.7499 0.0
C266 C 0.84226 0.68118 0.71467 0.0
O267 O 0.71613 0.87855 0.71909 0.0
O268 O 0.82293 0.88373 0.74954 0.0
N269 N 0.01917 0.81519 0.62521 0.0
C270 C 1.00943 0.83842 0.58532 0.0
C271 C 0.06141 0.88427 0.56712 0.0
C272 C 0.12317 0.90513 0.59001 0.0
C273 C 0.13308 0.87867 0.63052 0.0
C274 C 0.07956 0.83291 0.64694 0.0
H275 H 0.96169 0.82325 0.56779 0.0
O276 O 0.83676 0.93067 0.66778 0.0
O277 O 0.91047 0.83951 0.68109 0.0
O278 O 0.78025 0.79883 0.63625 0.0
O279 O 0.88425 0.74765 0.61317 0.0
C280 C 0.19379 0.89623 0.65532 0.0
C281 C 0.20042 0.86701 0.69576 0.0
H282 H 0.19467 0.79944 0.77154 0.0
H283 H 0.09323 0.72183 0.796 0.0
H284 H 0.0529 0.90452 0.53588 0.0
H285 H 0.16254 0.9418 0.57644 0.0
H286 H 0.23584 0.93191 0.64353 0.0
H287 H 0.24755 0.88051 0.71444 0.0
C288 C 0.04468 0.03909 0.3413 0.0
C289 C 0.07983 0.05821 0.37841 0.0
H290 H 0.95836 0.97866 0.31304 0.0
C291 C 0.05374 0.03129 0.41636 0.0
H292 H 0.06222 0.06178 0.31183 0.0
C293 C 0.99734 0.98047 0.41679 0.0
C294 C 0.96052 0.96365 0.37984 0.0
H295 H 0.07676 0.04944 0.44552 0.0
H296 H 0.98158 0.9555 0.44594 0.0
C297 C 0.98459 0.99312 0.34209 0.0
C298 C 0.49158 0.54454 0.84122 0.0
C299 C 0.46869 0.57501 0.87893 0.0
H300 H 0.55503 0.4619 0.81162 0.0
C301 C 0.49222 0.54423 0.91653 0.0
H302 H 0.47171 0.56573 0.81183 0.0
C303 C 0.54337 0.48804 0.91634 0.0
C304 C 0.56365 0.45557 0.87869 0.0
H305 H 0.47148 0.56379 0.94593 0.0
H306 H 0.56636 0.46951 0.9455 0.0
C307 C 0.53766 0.4844 0.84112 0.0
C308 C 0.54623 0.49137 0.12695 0.0
C309 C 0.57791 0.46914 0.16457 0.0
H310 H 0.47119 0.56483 0.0977 0.0
C311 C 0.54846 0.49351 0.20225 0.0
H312 H 0.56508 0.46956 0.09765 0.0
C313 C 0.48844 0.5398 0.20227 0.0
C314 C 0.45874 0.5645 0.16462 0.0
H315 H 0.57034 0.47465 0.23168 0.0
H316 H 0.46671 0.55832 0.23173 0.0
C317 C 0.49025 0.54274 0.12698 0.0
C318 C 0.02445 0.05355 0.62748 0.0
C319 C 0.05495 0.07682 0.66511 0.0
H320 H 0.94673 0.98265 0.59858 0.0
C321 C 0.03955 0.03886 0.70192 0.0
H322 H 0.03968 0.0789 0.59838 0.0
C323 C 0.99358 0.97883 0.70122 0.0
C324 C 0.9606 0.95745 0.66393 0.0
H325 H 0.065 0.05431 0.73102 0.0
H326 H 0.98188 0.95055 0.73006 0.0
C327 C 0.97401 0.9968 0.62733 0.0
C328 C 0.18898 0.18918 0.49782 0.0
C329 C 0.24967 0.22116 0.47901 0.0
H330 H 0.12718 0.17456 0.55309 0.0
C331 C 0.29408 0.26796 0.50247 0.0
H332 H 0.1543 0.15253 0.48044 0.0
C333 C 0.27733 0.28204 0.54457 0.0
C334 C 0.21571 0.25 0.56296 0.0
H335 H 0.34158 0.29267 0.48851 0.0
H336 H 0.31194 0.31775 0.56255 0.0
C337 C 0.1727 0.20281 0.53924 0.0
C338 C 0.2394 0.71544 0.99111 0.0
C339 C 0.29344 0.76475 0.97838 0.0
H340 H 0.1888 0.65989 0.04203 0.0
C341 C 0.32934 0.8057 1.00916 0.0
H342 H 0.21055 0.68283 0.96846 0.0
C343 C 0.31645 0.79286 0.05155 0.0
C344 C 0.26787 0.73816 0.06427 0.0
H345 H 0.37101 0.84449 1.00062 0.0
H346 H 0.34891 0.8219 0.0742 0.0
C347 C 0.22706 0.70205 0.03349 0.0
C348 C 0.73535 0.81392 0.5516 0.0
C349 C 0.78939 0.76485 0.5646 0.0
H350 H 0.68557 0.86937 0.50034 0.0
C351 C 0.82543 0.72341 0.53412 0.0
H352 H 0.70642 0.84677 0.57406 0.0
C353 C 0.81318 0.73611 0.49169 0.0
C354 C 0.76511 0.79106 0.47871 0.0
H355 H 0.867 0.68466 0.54297 0.0
H356 H 0.84602 0.70709 0.46926 0.0
C357 C 0.72359 0.82711 0.50916 0.0
C358 C 0.79268 0.3165 0.99088 0.0
C359 C 0.73855 0.26684 0.97874 0.0
H360 H 0.84422 0.37268 0.0412 0.0
C361 C 0.70345 0.2261 1.00995 0.0
H362 H 0.82088 0.34899 0.96787 0.0
C363 C 0.7173 0.23933 0.05217 0.0
C364 C 0.76602 0.29427 0.06433 0.0
H365 H 0.66173 0.18709 1.00185 0.0
H366 H 0.6855 0.21031 0.07516 0.0
C367 C 0.80593 0.33032 0.03311 0.0
C368 C 0.51143 0.29554 0.2848 0.0
C369 C 0.55944 0.24038 0.27158 0.0
H370 H 0.40878 0.32253 0.31237 0.0
C371 C 0.53898 0.16777 0.2776 0.0
H372 H 0.52477 0.35227 0.28013 0.0
C373 C 0.47227 0.15093 0.29658 0.0
C374 C 0.42336 0.20624 0.30862 0.0
H375 H 0.57426 0.12414 0.26751 0.0
H376 H 0.45848 0.09433 0.30115 0.0
C377 C 0.44412 0.27871 0.3027 0.0
C378 C 0.37858 0.96434 0.79109 0.0
C379 C 0.32338 0.9177 0.80601 0.0
H380 H 0.40488 0.06469 0.75985 0.0
C381 C 0.25103 0.94085 0.80288 0.0
H382 H 0.43515 0.94874 0.79354 0.0
C383 C 0.2341 1.00815 0.78491 0.0
C384 C 0.2889 0.054 0.76886 0.0
H385 H 0.2074 0.90741 0.8149 0.0
H386 H 0.17734 0.02326 0.78259 0.0
C387 C 0.36148 0.03116 0.77208 0.0
C388 C 0.5921 0.75541 0.30311 0.0
C389 C 0.61396 0.8278 0.30803 0.0
H390 H 0.51064 0.68198 0.28156 0.0
C391 C 0.56591 0.88327 0.29494 0.0
H392 H 0.62678 0.71144 0.31351 0.0
C393 C 0.49887 0.86647 0.27602 0.0
C394 C 0.4773 0.79384 0.2711 0.0
H395 H 0.58066 0.9398 0.29861 0.0
H396 H 0.46425 0.91014 0.26511 0.0
C397 C 0.52463 0.73872 0.28533 0.0
C398 C 0.77576 0.08455 0.80622 0.0
C399 C 0.70383 0.10913 0.80885 0.0
H400 H 0.84808 1.00082 0.78641 0.0
C401 C 0.64785 0.06308 0.79435 0.0
H402 H 0.81995 0.11761 0.81787 0.0
C403 C 0.66379 0.99575 0.77582 0.0
C404 C 0.73599 0.97178 0.77266 0.0
H405 H 0.59155 0.07966 0.79655 0.0
H406 H 0.61981 0.96294 0.76364 0.0
C407 C 0.79155 0.01677 0.78868 0.0
C408 C 0.03648 0.3621 0.26856 0.0
C409 C 0.05882 0.28953 0.27243 0.0
H410 H 0.95426 0.43569 0.2468 0.0
C411 C 1.01238 0.23464 0.25713 0.0
H412 H 0.07048 0.40556 0.28023 0.0
C413 C 0.94492 0.25154 0.23931 0.0
C414 C 0.92223 0.32391 0.23558 0.0
H415 H 0.0271 0.1779 0.26001 0.0
H416 H 0.91095 0.20786 0.22791 0.0
C417 C 0.96951 0.37913 0.2497 0.0
C418 C 0.15091 0.46864 0.74587 0.0
C419 C 0.20612 0.41921 0.7343 0.0
H420 H 0.12421 0.57074 0.77471 0.0
C421 C 0.27867 0.43916 0.74103 0.0
H422 H 0.09425 0.45552 0.74075 0.0
C423 C 0.29562 0.5062 0.75915 0.0
C424 C 0.2405 0.55475 0.77182 0.0
H425 H 0.32247 0.40337 0.73184 0.0
H426 H 0.35237 0.51896 0.76441 0.0
C427 C 0.16784 0.53505 0.76507 0.0
C428 C 0.09014 0.77868 0.23898 0.0
C429 C 0.11354 0.70656 0.23538 0.0
H430 H 1.0073 0.85142 0.25953 0.0
C431 C 0.06662 0.6508 0.24929 0.0
H432 H 0.12386 0.82276 0.22781 0.0
C433 C 0.9994 0.66705 0.26794 0.0
C434 C 0.97644 0.73939 0.27184 0.0
H435 H 0.08236 0.5944 0.24644 0.0
H436 H 0.9658 0.62318 0.27954 0.0
C437 C 0.02246 0.79481 0.25663 0.0
C438 C 0.86388 0.4946 0.76604 0.0
C439 C 0.79126 0.4728 0.77101 0.0
H440 H 0.93699 0.57674 0.74365 0.0
C441 C 0.73592 0.52005 0.75696 0.0
H442 H 0.90772 0.46003 0.77681 0.0
C443 C 0.7524 0.58771 0.73936 0.0
C444 C 0.82479 0.60986 0.73449 0.0
H445 H 0.67917 0.50586 0.76076 0.0
H446 H 0.70828 0.62234 0.7291 0.0
C447 C 0.88045 0.56182 0.74733 0.0
loop_
_geom_bond_atom_site_label_1
_geom_bond_atom_site_label_2
_geom_bond_distance
_geom_bond_site_symmetry_2
_ccdc_geom_bond_type
Mn0 O5 2.095 . S
Mn0 O15 2.162 . S
Mn0 O16 2.297 . S
Mn0 O24 2.385 . S
Mn0 O25 2.209 . S
Mn0 O26 2.094 . S
Mn1 O6 2.121 . S
Mn1 N8 2.257 . S
Mn1 N17 2.282 . S
Mn1 O25 2.215 . S
Mn1 O27 2.117 . S
C2 O24 1.234 . S
C2 O25 1.283 . S
C3 O15 1.281 1_655 S
C3 O16 1.236 1_655 S
C4 O26 1.240 . S
C4 O27 1.264 . S
O5 Mn0 2.095 . S
O5 C14 1.250 . S
O6 Mn1 2.121 . S
O6 C14 1.258 . S
C7 N8 1.326 . S
C7 C11 1.460 1_545 S
C7 H13 0.929 . S
N8 Mn1 2.257 . S
N8 C7 1.326 . S
N8 C12 1.362 1_545 S
C9 C10 1.258 . S
C9 C12 1.431 . S
C9 C29 1.449 . S
C10 C9 1.258 . S
C10 C11 1.477 . S
C10 H30 0.931 . S
C11 C7 1.460 1_565 S
C11 C10 1.477 . S
C11 H31 0.930 . S
C12 N8 1.362 1_565 S
C12 C9 1.431 . S
C12 C22 1.476 . S
H13 C7 0.929 . S
C14 O5 1.250 . S
C14 O6 1.258 . S
O15 Mn0 2.162 . S
O15 C3 1.281 1_455 S
O16 Mn0 2.297 . S
O16 C3 1.236 1_455 S
N17 Mn1 2.282 . S
N17 C18 1.328 . S
N17 C22 1.318 1_545 S
C18 N17 1.328 . S
C18 C19 1.457 1_545 S
C18 H23 0.929 . S
C19 C18 1.457 1_565 S
C19 C20 1.291 . S
C19 H32 0.931 . S
C20 C19 1.291 . S
C20 C21 1.373 . S
C20 H33 0.929 . S
C21 C20 1.373 . S
C21 C22 1.396 . S
C21 C28 1.403 . S
C22 C12 1.476 . S
C22 N17 1.318 1_565 S
C22 C21 1.396 . S
H23 C18 0.929 . S
O24 Mn0 2.385 . S
O24 C2 1.234 . S
O25 Mn0 2.209 . S
O25 Mn1 2.215 . S
O25 C2 1.283 . S
O26 Mn0 2.094 . S
O26 C4 1.240 . S
O27 Mn1 2.117 . S
O27 C4 1.264 . S
C28 C21 1.403 . S
C28 C29 1.399 . S
C28 H34 0.929 . S
C29 C9 1.449 . S
C29 C28 1.399 . S
C29 H35 0.930 . S
H30 C10 0.931 . S
H31 C11 0.930 . S
H32 C19 0.931 . S
H33 C20 0.929 . S
H34 C28 0.929 . S
H35 C29 0.930 . S
Mn36 O41 2.095 . S
Mn36 O51 2.162 . S
Mn36 O52 2.297 . S
Mn36 O60 2.385 . S
Mn36 O61 2.209 . S
Mn36 O62 2.094 . S
Mn37 O42 2.121 . S
Mn37 N44 2.257 . S
Mn37 N53 2.282 . S
Mn37 O61 2.215 . S
Mn37 O63 2.117 . S
C38 O60 1.234 . S
C38 O61 1.283 . S
C39 O51 1.281 . S
C39 O52 1.236 . S
C40 O62 1.240 . S
C40 O63 1.264 . S
O41 Mn36 2.095 . S
O41 C50 1.250 . S
O42 Mn37 2.121 . S
O42 C50 1.258 . S
C43 N44 1.326 . S
C43 C47 1.460 . S
C43 H49 0.929 . S
N44 Mn37 2.257 . S
N44 C43 1.326 . S
N44 C48 1.362 . S
C45 C46 1.258 . S
C45 C48 1.431 . S
C45 C65 1.449 . S
C46 C45 1.258 . S
C46 C47 1.477 . S
C46 H66 0.931 . S
C47 C43 1.460 . S
C47 C46 1.477 . S
C47 H67 0.930 . S
C48 N44 1.362 . S
C48 C45 1.431 . S
C48 C58 1.476 . S
H49 C43 0.929 . S
C50 O41 1.250 . S
C50 O42 1.258 . S
O51 Mn36 2.162 . S
O51 C39 1.281 . S
O52 Mn36 2.297 . S
O52 C39 1.236 . S
N53 Mn37 2.282 . S
N53 C54 1.328 . S
N53 C58 1.318 . S
C54 N53 1.328 . S
C54 C55 1.457 . S
C54 H59 0.929 . S
C55 C54 1.457 . S
C55 C56 1.291 . S
C55 H68 0.931 . S
C56 C55 1.291 . S
C56 C57 1.373 . S
C56 H69 0.929 . S
C57 C56 1.373 . S
C57 C58 1.396 . S
C57 C64 1.403 . S
C58 C48 1.476 . S
C58 N53 1.318 . S
C58 C57 1.396 . S
H59 C54 0.929 . S
O60 Mn36 2.385 . S
O60 C38 1.234 . S
O61 Mn36 2.209 . S
O61 Mn37 2.215 . S
O61 C38 1.283 . S
O62 Mn36 2.094 . S
O62 C40 1.240 . S
O63 Mn37 2.117 . S
O63 C40 1.264 . S
C64 C57 1.403 . S
C64 C65 1.399 . S
C64 H70 0.929 . S
C65 C45 1.449 . S
C65 C64 1.399 . S
C65 H71 0.930 . S
H66 C46 0.931 . S
H67 C47 0.930 . S
H68 C55 0.931 . S
H69 C56 0.929 . S
H70 C64 0.929 . S
H71 C65 0.930 . S
Mn72 O77 2.095 . S
Mn72 O87 2.162 . S
Mn72 O88 2.297 . S
Mn72 O96 2.385 . S
Mn72 O97 2.209 . S
Mn72 O98 2.094 . S
Mn73 O78 2.121 . S
Mn73 N80 2.257 . S
Mn73 N89 2.282 . S
Mn73 O97 2.215 . S
Mn73 O99 2.117 . S
C74 O96 1.234 . S
C74 O97 1.283 . S
C75 O87 1.281 1_455 S
C75 O88 1.236 1_455 S
C76 O98 1.240 . S
C76 O99 1.264 . S
O77 Mn72 2.095 . S
O77 C86 1.250 . S
O78 Mn73 2.121 . S
O78 C86 1.258 . S
C79 N80 1.326 . S
C79 C83 1.460 1_565 S
C79 H85 0.929 . S
N80 Mn73 2.257 . S
N80 C79 1.326 . S
N80 C84 1.362 1_565 S
C81 C82 1.258 . S
C81 C84 1.431 . S
C81 C101 1.449 . S
C82 C81 1.258 . S
C82 C83 1.477 . S
C82 H102 0.931 . S
C83 C79 1.460 1_545 S
C83 C82 1.477 . S
C83 H103 0.930 . S
C84 N80 1.362 1_545 S
C84 C81 1.431 . S
C84 C94 1.476 . S
H85 C79 0.929 . S
C86 O77 1.250 . S
C86 O78 1.258 . S
O87 Mn72 2.162 . S
O87 C75 1.281 1_655 S
O88 Mn72 2.297 . S
O88 C75 1.236 1_655 S
N89 Mn73 2.282 . S
N89 C90 1.328 . S
N89 C94 1.318 1_565 S
C90 N89 1.328 . S
C90 C91 1.457 1_565 S
C90 H95 0.929 . S
C91 C90 1.457 1_545 S
C91 C92 1.291 . S
C91 H104 0.931 . S
C92 C91 1.291 . S
C92 C93 1.373 . S
C92 H105 0.929 . S
C93 C92 1.373 . S
C93 C94 1.396 . S
C93 C100 1.403 . S
C94 C84 1.476 . S
C94 N89 1.318 1_545 S
C94 C93 1.396 . S
H95 C90 0.929 . S
O96 Mn72 2.385 . S
O96 C74 1.234 . S
O97 Mn72 2.209 . S
O97 Mn73 2.215 . S
O97 C74 1.283 . S
O98 Mn72 2.094 . S
O98 C76 1.240 . S
O99 Mn73 2.117 . S
O99 C76 1.264 . S
C100 C93 1.403 . S
C100 C101 1.399 . S
C100 H106 0.929 . S
C101 C81 1.449 . S
C101 C100 1.399 . S
C101 H107 0.930 . S
H102 C82 0.931 . S
H103 C83 0.930 . S
H104 C91 0.931 . S
H105 C92 0.929 . S
H106 C100 0.929 . S
H107 C101 0.930 . S
Mn108 O113 2.095 . S
Mn108 O123 2.162 . S
Mn108 O124 2.297 . S
Mn108 O132 2.385 . S
Mn108 O133 2.209 . S
Mn108 O134 2.094 . S
Mn109 O114 2.121 . S
Mn109 N116 2.257 . S
Mn109 N125 2.282 . S
Mn109 O133 2.215 . S
Mn109 O135 2.117 . S
C110 O132 1.234 . S
C110 O133 1.283 . S
C111 O123 1.281 . S
C111 O124 1.236 . S
C112 O134 1.240 . S
C112 O135 1.264 . S
O113 Mn108 2.095 . S
O113 C122 1.250 . S
O114 Mn109 2.121 . S
O114 C122 1.258 . S
C115 N116 1.326 . S
C115 C119 1.460 . S
C115 H121 0.929 . S
N116 Mn109 2.257 . S
N116 C115 1.326 . S
N116 C120 1.362 . S
C117 C118 1.258 . S
C117 C120 1.431 . S
C117 C137 1.449 . S
C118 C117 1.258 . S
C118 C119 1.477 . S
C118 H138 0.931 . S
C119 C115 1.460 . S
C119 C118 1.477 . S
C119 H139 0.930 . S
C120 N116 1.362 . S
C120 C117 1.431 . S
C120 C130 1.476 . S
H121 C115 0.929 . S
C122 O113 1.250 . S
C122 O114 1.258 . S
O123 Mn108 2.162 . S
O123 C111 1.281 . S
O124 Mn108 2.297 . S
O124 C111 1.236 . S
N125 Mn109 2.282 . S
N125 C126 1.328 . S
N125 C130 1.318 . S
C126 N125 1.328 . S
C126 C127 1.457 . S
C126 H131 0.929 . S
C127 C126 1.457 . S
C127 C128 1.291 . S
C127 H140 0.931 . S
C128 C127 1.291 . S
C128 C129 1.373 . S
C128 H141 0.929 . S
C129 C128 1.373 . S
C129 C130 1.396 . S
C129 C136 1.403 . S
C130 C120 1.476 . S
C130 N125 1.318 . S
C130 C129 1.396 . S
H131 C126 0.929 . S
O132 Mn108 2.385 . S
O132 C110 1.234 . S
O133 Mn108 2.209 . S
O133 Mn109 2.215 . S
O133 C110 1.283 . S
O134 Mn108 2.094 . S
O134 C112 1.240 . S
O135 Mn109 2.117 . S
O135 C112 1.264 . S
C136 C129 1.403 . S
C136 C137 1.399 . S
C136 H142 0.929 . S
C137 C117 1.449 . S
C137 C136 1.399 . S
C137 H143 0.930 . S
H138 C118 0.931 . S
H139 C119 0.930 . S
H140 C127 0.931 . S
H141 C128 0.929 . S
H142 C136 0.929 . S
H143 C137 0.930 . S
Mn144 O149 2.095 . S
Mn144 O159 2.162 . S
Mn144 O160 2.297 . S
Mn144 O168 2.385 . S
Mn144 O169 2.209 . S
Mn144 O170 2.094 . S
Mn145 O150 2.121 . S
Mn145 N152 2.257 . S
Mn145 N161 2.282 . S
Mn145 O169 2.215 . S
Mn145 O171 2.117 . S
C146 O168 1.234 . S
C146 O169 1.283 . S
C147 O159 1.281 . S
C147 O160 1.236 . S
C148 O170 1.240 . S
C148 O171 1.264 . S
O149 Mn144 2.095 . S
O149 C158 1.250 . S
O150 Mn145 2.121 . S
O150 C158 1.258 . S
C151 N152 1.326 . S
C151 C155 1.460 . S
C151 H157 0.929 . S
N152 Mn145 2.257 . S
N152 C151 1.326 . S
N152 C156 1.362 . S
C153 C154 1.258 . S
C153 C156 1.431 . S
C153 C173 1.449 . S
C154 C153 1.258 . S
C154 C155 1.477 . S
C154 H174 0.931 . S
C155 C151 1.460 . S
C155 C154 1.477 . S
C155 H175 0.930 . S
C156 N152 1.362 . S
C156 C153 1.431 . S
C156 C166 1.476 . S
H157 C151 0.929 . S
C158 O149 1.250 . S
C158 O150 1.258 . S
O159 Mn144 2.162 . S
O159 C147 1.281 . S
O160 Mn144 2.297 . S
O160 C147 1.236 . S
N161 Mn145 2.282 . S
N161 C162 1.328 . S
N161 C166 1.318 . S
C162 N161 1.328 . S
C162 C163 1.457 . S
C162 H167 0.929 . S
C163 C162 1.457 . S
C163 C164 1.291 . S
C163 H176 0.931 . S
C164 C163 1.291 . S
C164 C165 1.373 . S
C164 H177 0.929 . S
C165 C164 1.373 . S
C165 C166 1.396 . S
C165 C172 1.403 . S
C166 C156 1.476 . S
C166 N161 1.318 . S
C166 C165 1.396 . S
H167 C162 0.929 . S
O168 Mn144 2.385 . S
O168 C146 1.234 . S
O169 Mn144 2.209 . S
O169 Mn145 2.215 . S
O169 C146 1.283 . S
O170 Mn144 2.094 . S
O170 C148 1.240 . S
O171 Mn145 2.117 . S
O171 C148 1.264 . S
C172 C165 1.403 . S
C172 C173 1.399 . S
C172 H178 0.929 . S
C173 C153 1.449 . S
C173 C172 1.399 . S
C173 H179 0.930 . S
H174 C154 0.931 . S
H175 C155 0.930 . S
H176 C163 0.931 . S
H177 C164 0.929 . S
H178 C172 0.929 . S
H179 C173 0.930 . S
Mn180 O185 2.095 . S
Mn180 O195 2.162 . S
Mn180 O196 2.297 . S
Mn180 O204 2.385 . S
Mn180 O205 2.209 . S
Mn180 O206 2.094 . S
Mn181 O186 2.121 . S
Mn181 N188 2.257 . S
Mn181 N197 2.282 . S
Mn181 O205 2.215 . S
Mn181 O207 2.117 . S
C182 O204 1.234 . S
C182 O205 1.283 . S
C183 O195 1.281 1_565 S
C183 O196 1.236 1_565 S
C184 O206 1.240 . S
C184 O207 1.264 . S
O185 Mn180 2.095 . S
O185 C194 1.250 . S
O186 Mn181 2.121 . S
O186 C194 1.258 . S
C187 N188 1.326 . S
C187 C191 1.460 1_455 S
C187 H193 0.929 . S
N188 Mn181 2.257 . S
N188 C187 1.326 . S
N188 C192 1.362 1_455 S
C189 C190 1.258 . S
C189 C192 1.431 . S
C189 C209 1.449 . S
C190 C189 1.258 . S
C190 C191 1.477 . S
C190 H210 0.931 . S
C191 C187 1.460 1_655 S
C191 C190 1.477 . S
C191 H211 0.930 . S
C192 N188 1.362 1_655 S
C192 C189 1.431 . S
C192 C202 1.476 . S
H193 C187 0.929 . S
C194 O185 1.250 . S
C194 O186 1.258 . S
O195 Mn180 2.162 . S
O195 C183 1.281 1_545 S
O196 Mn180 2.297 . S
O196 C183 1.236 1_545 S
N197 Mn181 2.282 . S
N197 C198 1.328 . S
N197 C202 1.318 1_455 S
C198 N197 1.328 . S
C198 C199 1.457 1_455 S
C198 H203 0.929 . S
C199 C198 1.457 1_655 S
C199 C200 1.291 . S
C199 H212 0.931 . S
C200 C199 1.291 . S
C200 C201 1.373 . S
C200 H213 0.929 . S
C201 C200 1.373 . S
C201 C202 1.396 . S
C201 C208 1.403 . S
C202 C192 1.476 . S
C202 N197 1.318 1_655 S
C202 C201 1.396 . S
H203 C198 0.929 . S
O204 Mn180 2.385 . S
O204 C182 1.234 . S
O205 Mn180 2.209 . S
O205 Mn181 2.215 . S
O205 C182 1.283 . S
O206 Mn180 2.094 . S
O206 C184 1.240 . S
O207 Mn181 2.117 . S
O207 C184 1.264 . S
C208 C201 1.403 . S
C208 C209 1.399 . S
C208 H214 0.929 . S
C209 C189 1.449 . S
C209 C208 1.399 . S
C209 H215 0.930 . S
H210 C190 0.931 . S
H211 C191 0.930 . S
H212 C199 0.931 . S
H213 C200 0.929 . S
H214 C208 0.929 . S
H215 C209 0.930 . S
Mn216 O221 2.095 . S
Mn216 O231 2.162 . S
Mn216 O232 2.297 . S
Mn216 O240 2.385 . S
Mn216 O241 2.209 . S
Mn216 O242 2.094 . S
Mn217 O222 2.121 . S
Mn217 N224 2.257 . S
Mn217 N233 2.282 . S
Mn217 O241 2.215 . S
Mn217 O243 2.117 . S
C218 O240 1.234 . S
C218 O241 1.283 . S
C219 O231 1.281 . S
C219 O232 1.236 . S
C220 O242 1.240 . S
C220 O243 1.264 . S
O221 Mn216 2.095 . S
O221 C230 1.250 . S
O222 Mn217 2.121 . S
O222 C230 1.258 . S
C223 N224 1.326 . S
C223 C227 1.460 . S
C223 H229 0.929 . S
N224 Mn217 2.257 . S
N224 C223 1.326 . S
N224 C228 1.362 . S
C225 C226 1.258 . S
C225 C228 1.431 . S
C225 C245 1.449 . S
C226 C225 1.258 . S
C226 C227 1.477 . S
C226 H246 0.931 . S
C227 C223 1.460 . S
C227 C226 1.477 . S
C227 H247 0.930 . S
C228 N224 1.362 . S
C228 C225 1.431 . S
C228 C238 1.476 . S
H229 C223 0.929 . S
C230 O221 1.250 . S
C230 O222 1.258 . S
O231 Mn216 2.162 . S
O231 C219 1.281 . S
O232 Mn216 2.297 . S
O232 C219 1.236 . S
N233 Mn217 2.282 . S
N233 C234 1.328 . S
N233 C238 1.318 . S
C234 N233 1.328 . S
C234 C235 1.457 . S
C234 H239 0.929 . S
C235 C234 1.457 . S
C235 C236 1.291 . S
C235 H248 0.931 . S
C236 C235 1.291 . S
C236 C237 1.373 . S
C236 H249 0.929 . S
C237 C236 1.373 . S
C237 C238 1.396 . S
C237 C244 1.403 . S
C238 C228 1.476 . S
C238 N233 1.318 . S
C238 C237 1.396 . S
H239 C234 0.929 . S
O240 Mn216 2.385 . S
O240 C218 1.234 . S
O241 Mn216 2.209 . S
O241 Mn217 2.215 . S
O241 C218 1.283 . S
O242 Mn216 2.094 . S
O242 C220 1.240 . S
O243 Mn217 2.117 . S
O243 C220 1.264 . S
C244 C237 1.403 . S
C244 C245 1.399 . S
C244 H250 0.929 . S
C245 C225 1.449 . S
C245 C244 1.399 . S
C245 H251 0.930 . S
H246 C226 0.931 . S
H247 C227 0.930 . S
H248 C235 0.931 . S
H249 C236 0.929 . S
H250 C244 0.929 . S
H251 C245 0.930 . S
Mn252 O257 2.095 . S
Mn252 O267 2.162 . S
Mn252 O268 2.297 . S
Mn252 O276 2.385 . S
Mn252 O277 2.209 . S
Mn252 O278 2.094 . S
Mn253 O258 2.121 . S
Mn253 N260 2.257 . S
Mn253 N269 2.282 . S
Mn253 O277 2.215 . S
Mn253 O279 2.117 . S
C254 O276 1.234 . S
C254 O277 1.283 . S
C255 O267 1.281 1_545 S
C255 O268 1.236 1_545 S
C256 O278 1.240 . S
C256 O279 1.264 . S
O257 Mn252 2.095 . S
O257 C266 1.250 . S
O258 Mn253 2.121 . S
O258 C266 1.258 . S
C259 N260 1.326 . S
C259 C263 1.460 1_655 S
C259 H265 0.929 . S
N260 Mn253 2.257 . S
N260 C259 1.326 . S
N260 C264 1.362 1_655 S
C261 C262 1.258 . S
C261 C264 1.431 . S
C261 C281 1.449 . S
C262 C261 1.258 . S
C262 C263 1.477 . S
C262 H282 0.931 . S
C263 C259 1.460 1_455 S
C263 C262 1.477 . S
C263 H283 0.930 . S
C264 N260 1.362 1_455 S
C264 C261 1.431 . S
C264 C274 1.476 . S
H265 C259 0.929 . S
C266 O257 1.250 . S
C266 O258 1.258 . S
O267 Mn252 2.162 . S
O267 C255 1.281 1_565 S
O268 Mn252 2.297 . S
O268 C255 1.236 1_565 S
N269 Mn253 2.282 . S
N269 C270 1.328 . S
N269 C274 1.318 1_655 S
C270 N269 1.328 . S
C270 C271 1.457 1_655 S
C270 H275 0.929 . S
C271 C270 1.457 1_455 S
C271 C272 1.291 . S
C271 H284 0.931 . S
C272 C271 1.291 . S
C272 C273 1.373 . S
C272 H285 0.929 . S
C273 C272 1.373 . S
C273 C274 1.396 . S
C273 C280 1.403 . S
C274 C264 1.476 . S
C274 N269 1.318 1_455 S
C274 C273 1.396 . S
H275 C270 0.929 . S
O276 Mn252 2.385 . S
O276 C254 1.234 . S
O277 Mn252 2.209 . S
O277 Mn253 2.215 . S
O277 C254 1.283 . S
O278 Mn252 2.094 . S
O278 C256 1.240 . S
O279 Mn253 2.117 . S
O279 C256 1.264 . S
C280 C273 1.403 . S
C280 C281 1.399 . S
C280 H286 0.929 . S
C281 C261 1.449 . S
C281 C280 1.399 . S
C281 H287 0.930 . S
H282 C262 0.931 . S
H283 C263 0.930 . S
H284 C271 0.931 . S
H285 C272 0.929 . S
H286 C280 0.929 . S
H287 C281 0.930 . S
C288 C289 1.387 . S
C288 H292 0.950 . S
C288 C297 1.390 1_445 S
C289 C288 1.387 . S
C289 C291 1.387 . S
H290 C297 0.950 . S
C291 C289 1.387 . S
C291 C293 1.390 1_445 S
C291 H295 0.950 . S
H292 C288 0.950 . S
C293 C291 1.390 1_665 S
C293 C294 1.387 . S
C293 H296 0.950 . S
C294 C293 1.387 . S
C294 C297 1.387 . S
H295 C291 0.950 . S
H296 C293 0.950 . S
C297 C288 1.390 1_665 S
C297 H290 0.950 . S
C297 C294 1.387 . S
C298 C299 1.387 . S
C298 H302 0.950 . S
C298 C307 1.390 . S
C299 C298 1.387 . S
C299 C301 1.387 . S
H300 C307 0.950 . S
C301 C299 1.387 . S
C301 C303 1.390 . S
C301 H305 0.950 . S
H302 C298 0.950 . S
C303 C301 1.390 . S
C303 C304 1.387 . S
C303 H306 0.950 . S
C304 C303 1.387 . S
C304 C307 1.387 . S
H305 C301 0.950 . S
H306 C303 0.950 . S
C307 C298 1.390 . S
C307 H300 0.950 . S
C307 C304 1.387 . S
C308 C309 1.387 . S
C308 H312 0.950 . S
C308 C317 1.390 . S
C309 C308 1.387 . S
C309 C311 1.387 . S
H310 C317 0.950 . S
C311 C309 1.387 . S
C311 C313 1.390 . S
C311 H315 0.950 . S
H312 C308 0.950 . S
C313 C311 1.390 . S
C313 C314 1.387 . S
C313 H316 0.950 . S
C314 C313 1.387 . S
C314 C317 1.387 . S
H315 C311 0.950 . S
H316 C313 0.950 . S
C317 C308 1.390 . S
C317 H310 0.950 . S
C317 C314 1.387 . S
C318 C319 1.387 . S
C318 H322 0.950 . S
C318 C327 1.390 1_445 S
C319 C318 1.387 . S
C319 C321 1.387 . S
H320 C327 0.950 . S
C321 C319 1.387 . S
C321 C323 1.390 1_445 S
C321 H325 0.950 . S
H322 C318 0.950 . S
C323 C321 1.390 1_665 S
C323 C324 1.387 . S
C323 H326 0.950 . S
C324 C323 1.387 . S
C324 C327 1.387 . S
H325 C321 0.950 . S
H326 C323 0.950 . S
C327 C318 1.390 1_665 S
C327 H320 0.950 . S
C327 C324 1.387 . S
C328 C329 1.387 . S
C328 H332 0.950 . S
C328 C337 1.390 . S
C329 C328 1.387 . S
C329 C331 1.387 . S
H330 C337 0.950 . S
C331 C329 1.387 . S
C331 C333 1.390 . S
C331 H335 0.950 . S
H332 C328 0.950 . S
C333 C331 1.390 . S
C333 C334 1.387 . S
C333 H336 0.950 . S
C334 C333 1.387 . S
C334 C337 1.387 . S
H335 C331 0.950 . S
H336 C333 0.950 . S
C337 C328 1.390 . S
C337 H330 0.950 . S
C337 C334 1.387 . S
C338 C339 1.387 . S
C338 H342 0.950 . S
C338 C347 1.390 1_556 S
C339 C338 1.387 . S
C339 C341 1.387 . S
H340 C347 0.950 . S
C341 C339 1.387 . S
C341 C343 1.390 1_556 S
C341 H345 0.950 . S
H342 C338 0.950 . S
C343 C341 1.390 1_554 S
C343 C344 1.387 . S
C343 H346 0.950 . S
C344 C343 1.387 . S
C344 C347 1.387 . S
H345 C341 0.950 . S
H346 C343 0.950 . S
C347 C338 1.390 1_554 S
C347 H340 0.950 . S
C347 C344 1.387 . S
C348 C349 1.387 . S
C348 H352 0.950 . S
C348 C357 1.390 . S
C349 C348 1.387 . S
C349 C351 1.387 . S
H350 C357 0.950 . S
C351 C349 1.387 . S
C351 C353 1.390 . S
C351 H355 0.950 . S
H352 C348 0.950 . S
C353 C351 1.390 . S
C353 C354 1.387 . S
C353 H356 0.950 . S
C354 C353 1.387 . S
C354 C357 1.387 . S
H355 C351 0.950 . S
H356 C353 0.950 . S
C357 C348 1.390 . S
C357 H350 0.950 . S
C357 C354 1.387 . S
C358 C359 1.387 . S
C358 H362 0.950 . S
C358 C367 1.390 1_556 S
C359 C358 1.387 . S
C359 C361 1.387 . S
H360 C367 0.950 . S
C361 C359 1.387 . S
C361 C363 1.390 1_556 S
C361 H365 0.950 . S
H362 C358 0.950 . S
C363 C361 1.390 1_554 S
C363 C364 1.387 . S
C363 H366 0.950 . S
C364 C363 1.387 . S
C364 C367 1.387 . S
H365 C361 0.950 . S
H366 C363 0.950 . S
C367 C358 1.390 1_554 S
C367 H360 0.950 . S
C367 C364 1.387 . S
C368 C369 1.387 . S
C368 H372 0.950 . S
C368 C377 1.390 . S
C369 C368 1.387 . S
C369 C371 1.387 . S
H370 C377 0.950 . S
C371 C369 1.387 . S
C371 C373 1.390 . S
C371 H375 0.950 . S
H372 C368 0.950 . S
C373 C371 1.390 . S
C373 C374 1.387 . S
C373 H376 0.950 . S
C374 C373 1.387 . S
C374 C377 1.387 . S
H375 C371 0.950 . S
H376 C373 0.950 . S
C377 C368 1.390 . S
C377 H370 0.950 . S
C377 C374 1.387 . S
C378 C379 1.387 . S
C378 H382 0.950 . S
C378 C387 1.390 . S
C379 C378 1.387 . S
C379 C381 1.387 . S
H380 C387 0.950 . S
C381 C379 1.387 . S
C381 C383 1.390 . S
C381 H385 0.950 . S
H382 C378 0.950 . S
C383 C381 1.390 . S
C383 C384 1.387 . S
C383 H386 0.950 . S
C384 C383 1.387 . S
C384 C387 1.387 . S
H385 C381 0.950 . S
H386 C383 0.950 . S
C387 C378 1.390 . S
C387 H380 0.950 . S
C387 C384 1.387 . S
C388 C389 1.387 . S
C388 H392 0.950 . S
C388 C397 1.390 . S
C389 C388 1.387 . S
C389 C391 1.387 . S
H390 C397 0.950 . S
C391 C389 1.387 . S
C391 C393 1.390 . S
C391 H395 0.950 . S
H392 C388 0.950 . S
C393 C391 1.390 . S
C393 C394 1.387 . S
C393 H396 0.950 . S
C394 C393 1.387 . S
C394 C397 1.387 . S
H395 C391 0.950 . S
H396 C393 0.950 . S
C397 C388 1.390 . S
C397 H390 0.950 . S
C397 C394 1.387 . S
C398 C399 1.387 . S
C398 H402 0.950 . S
C398 C407 1.390 . S
C399 C398 1.387 . S
C399 C401 1.387 . S
H400 C407 0.950 . S
C401 C399 1.387 . S
C401 C403 1.390 . S
C401 H405 0.950 . S
H402 C398 0.950 . S
C403 C401 1.390 . S
C403 C404 1.387 . S
C403 H406 0.950 . S
C404 C403 1.387 . S
C404 C407 1.387 . S
H405 C401 0.950 . S
H406 C403 0.950 . S
C407 C398 1.390 . S
C407 H400 0.950 . S
C407 C404 1.387 . S
C408 C409 1.387 . S
C408 H412 0.950 . S
C408 C417 1.390 . S
C409 C408 1.387 . S
C409 C411 1.387 . S
H410 C417 0.950 . S
C411 C409 1.387 . S
C411 C413 1.390 . S
C411 H415 0.950 . S
H412 C408 0.950 . S
C413 C411 1.390 . S
C413 C414 1.387 . S
C413 H416 0.950 . S
C414 C413 1.387 . S
C414 C417 1.387 . S
H415 C411 0.950 . S
H416 C413 0.950 . S
C417 C408 1.390 . S
C417 H410 0.950 . S
C417 C414 1.387 . S
C418 C419 1.387 . S
C418 H422 0.950 . S
C418 C427 1.390 . S
C419 C418 1.387 . S
C419 C421 1.387 . S
H420 C427 0.950 . S
C421 C419 1.387 . S
C421 C423 1.390 . S
C421 H425 0.950 . S
H422 C418 0.950 . S
C423 C421 1.390 . S
C423 C424 1.387 . S
C423 H426 0.950 . S
C424 C423 1.387 . S
C424 C427 1.387 . S
H425 C421 0.950 . S
H426 C423 0.950 . S
C427 C418 1.390 . S
C427 H420 0.950 . S
C427 C424 1.387 . S
C428 C429 1.387 . S
C428 H432 0.950 . S
C428 C437 1.390 . S
C429 C428 1.387 . S
C429 C431 1.387 . S
H430 C437 0.950 . S
C431 C429 1.387 . S
C431 C433 1.390 . S
C431 H435 0.950 . S
H432 C428 0.950 . S
C433 C431 1.390 . S
C433 C434 1.387 . S
C433 H436 0.950 . S
C434 C433 1.387 . S
C434 C437 1.387 . S
H435 C431 0.950 . S
H436 C433 0.950 . S
C437 C428 1.390 . S
C437 H430 0.950 . S
C437 C434 1.387 . S
C438 C439 1.387 . S
C438 H442 0.950 . S
C438 C447 1.390 . S
C439 C438 1.387 . S
C439 C441 1.387 . S
H440 C447 0.950 . S
C441 C439 1.387 . S
C441 C443 1.390 . S
C441 H445 0.950 . S
H442 C438 0.950 . S
C443 C441 1.390 . S
C443 C444 1.387 . S
C443 H446 0.950 . S
C444 C443 1.387 . S
C444 C447 1.387 . S
H445 C441 0.950 . S
H446 C443 0.950 . S
C447 C438 1.390 . S
C447 H440 0.950 . S
C447 C444 1.387 . S
C289 C2 0.772 . S
C294 C74 0.772 . S
C299 C38 0.772 . S
C304 C110 0.772 . S
C309 C146 0.777 . S
C314 C218 0.777 . S
C319 C182 0.777 . S
C324 C254 0.777 . S
C329 C4 1.499 . S
C334 C184 1.499 . S
C339 C40 1.499 . S
C344 C220 1.498 . S
C349 C256 1.499 . S
C354 C76 1.498 . S
C359 C112 1.499 . S
C364 C148 1.499 . S
C369 C147 1.716 . S
C374 C14 1.634 . S
C379 C50 1.631 . S
C384 C183 1.714 . S
C389 C86 1.633 . S
C394 C219 1.715 . S
C399 C122 1.635 . S
C404 C255 1.718 . S
C409 C3 1.716 . S
C414 C158 1.633 . S
C419 C194 1.633 . S
C424 C39 1.717 . S
C429 C230 1.635 . S
C434 C75 1.717 . S
C439 C111 1.715 . S
C444 C266 1.632 . S
