# Generated by pormake.
# Topology umm, (4)-cn, num edge types: 1
# Building blocks:
#     Node 0, Type 0, BuildingBlock: QUQFOY_clean_sbu_1, # of connection points: 4
#     Node 1, Type 0, BuildingBlock: QUQFOY_clean_sbu_1, # of connection points: 4
#     Node 2, Type 0, BuildingBlock: QUQFOY_clean_sbu_1, # of connection points: 4
#     Node 3, Type 0, BuildingBlock: QUQFOY_clean_sbu_1, # of connection points: 4
#     Node 4, Type 0, BuildingBlock: QUQFOY_clean_sbu_1, # of connection points: 4
#     Node 5, Type 0, BuildingBlock: QUQFOY_clean_sbu_1, # of connection points: 4
#     Node 6, Type 0, BuildingBlock: QUQFOY_clean_sbu_1, # of connection points: 4
#     Node 7, Type 0, BuildingBlock: QUQFOY_clean_sbu_1, # of connection points: 4
#     Node 8, Type 0, BuildingBlock: QUQFOY_clean_sbu_1, # of connection points: 4
#     Node 9, Type 0, BuildingBlock: QUQFOY_clean_sbu_1, # of connection points: 4
#     Node 10, Type 0, BuildingBlock: QUQFOY_clean_sbu_1, # of connection points: 4
#     Node 11, Type 0, BuildingBlock: QUQFOY_clean_sbu_1, # of connection points: 4
#     Edge 12, Type (0, 0), BuildingBlock: AJUNOK_clean_linker_0, # of connection points: 2
#     Edge 13, Type (0, 0), BuildingBlock: AJUNOK_clean_linker_0, # of connection points: 2
#     Edge 14, Type (0, 0), BuildingBlock: AJUNOK_clean_linker_0, # of connection points: 2
#     Edge 15, Type (0, 0), BuildingBlock: AJUNOK_clean_linker_0, # of connection points: 2
#     Edge 16, Type (0, 0), BuildingBlock: AJUNOK_clean_linker_0, # of connection points: 2
#     Edge 17, Type (0, 0), BuildingBlock: AJUNOK_clean_linker_0, # of connection points: 2
#     Edge 18, Type (0, 0), BuildingBlock: AJUNOK_clean_linker_0, # of connection points: 2
#     Edge 19, Type (0, 0), BuildingBlock: AJUNOK_clean_linker_0, # of connection points: 2
#     Edge 20, Type (0, 0), BuildingBlock: AJUNOK_clean_linker_0, # of connection points: 2
#     Edge 21, Type (0, 0), BuildingBlock: AJUNOK_clean_linker_0, # of connection points: 2
#     Edge 22, Type (0, 0), BuildingBlock: AJUNOK_clean_linker_0, # of connection points: 2
#     Edge 23, Type (0, 0), BuildingBlock: AJUNOK_clean_linker_0, # of connection points: 2
#     Edge 24, Type (0, 0), BuildingBlock: AJUNOK_clean_linker_0, # of connection points: 2
#     Edge 25, Type (0, 0), BuildingBlock: AJUNOK_clean_linker_0, # of connection points: 2
#     Edge 26, Type (0, 0), BuildingBlock: AJUNOK_clean_linker_0, # of connection points: 2
#     Edge 27, Type (0, 0), BuildingBlock: AJUNOK_clean_linker_0, # of connection points: 2
#     Edge 28, Type (0, 0), BuildingBlock: AJUNOK_clean_linker_0, # of connection points: 2
#     Edge 29, Type (0, 0), BuildingBlock: AJUNOK_clean_linker_0, # of connection points: 2
#     Edge 30, Type (0, 0), BuildingBlock: AJUNOK_clean_linker_0, # of connection points: 2
#     Edge 31, Type (0, 0), BuildingBlock: AJUNOK_clean_linker_0, # of connection points: 2
#     Edge 32, Type (0, 0), BuildingBlock: AJUNOK_clean_linker_0, # of connection points: 2
#     Edge 33, Type (0, 0), BuildingBlock: AJUNOK_clean_linker_0, # of connection points: 2
#     Edge 34, Type (0, 0), BuildingBlock: AJUNOK_clean_linker_0, # of connection points: 2
#     Edge 35, Type (0, 0), BuildingBlock: AJUNOK_clean_linker_0, # of connection points: 2
# Relax obj value: 0.041
# Max RMSD: 0.170
# Mean RMSD: 0.170
data_MOF--net-umm--node1-QUQFOY_clean_sbu_1--edge1-AJUNOK_clean_linker_0
_symmetry_space_group_name_H-M    P1
_symmetry_Int_Tables_number       1
_symmetry_cell_setting            triclinic
loop_
_symmetry_equiv_pos_as_xyz
'x, y, z'
_cell_length_a     41.75942
_cell_length_b     42.011264
_cell_length_c     21.084197
_cell_angle_alpha  90.297491
_cell_angle_beta   90.049286
_cell_angle_gamma 120.22481
loop_
_atom_site_label
_atom_site_type_symbol
_atom_site_fract_x
_atom_site_fract_y
_atom_site_fract_z
_atom_type_partial_charge
O0 O 0.49664 0.58122 0.11288 0.0
Cd1 Cd 0.46022 0.60057 0.12163 0.0
Cd2 Cd 0.41679 0.53607 0.06278 0.0
O3 O 0.45673 0.52286 0.09164 0.0
O4 O 0.48184 0.63845 0.19047 0.0
O5 O 0.4285 0.58647 0.19993 0.0
C6 C 0.45416 0.61667 0.22553 0.0
C7 C 0.35232 0.50321 0.05989 0.0
C8 C 0.48982 0.54841 0.10414 0.0
C9 C 0.44322 0.60608 0.98966 0.0
O10 O 0.43244 0.57199 0.98919 0.0
O11 O 0.45329 0.62446 0.04115 0.0
O12 O 0.37139 0.49373 0.02446 0.0
O13 O 0.36975 0.52742 0.10409 0.0
O14 O 0.95162 0.47625 0.44382 0.0
Cd15 Cd 0.89515 0.44089 0.45181 0.0
Cd16 Cd 0.91459 0.39598 0.3969 0.0
O17 O 0.96809 0.43462 0.42717 0.0
O18 O 0.87875 0.46184 0.52154 0.0
O19 O 0.87757 0.40881 0.52905 0.0
C20 C 0.87303 0.43405 0.5557 0.0
C21 C 0.88078 0.33198 0.398 0.0
C22 C 0.97692 0.46802 0.43802 0.0
C23 C 0.87259 0.42225 0.31937 0.0
O24 O 0.89601 0.41151 0.32064 0.0
O25 O 0.86391 0.43247 0.37025 0.0
O26 O 0.90958 0.34929 0.3623 0.0
O27 O 0.87467 0.35093 0.43987 0.0
O28 O 0.50119 0.9293 0.77328 0.0
Cd29 Cd 0.48399 0.87401 0.77864 0.0
Cd30 Cd 0.5501 0.89951 0.72892 0.0
O31 O 0.5611 0.94969 0.76867 0.0
O32 O 0.44379 0.85342 0.84392 0.0
O33 O 0.49853 0.85832 0.85801 0.0
C34 C 0.46672 0.85041 0.88104 0.0
C35 C 0.57172 0.85905 0.73642 0.0
C36 C 0.53437 0.95599 0.77536 0.0
C37 C 0.48704 0.85698 0.64461 0.0
O38 O 0.51946 0.88478 0.64813 0.0
O39 O 0.46749 0.84405 0.69435 0.0
O40 O 0.59164 0.89034 0.70839 0.0
O41 O 0.54357 0.85435 0.76952 0.0
O42 O 0.60273 0.48285 0.11068 0.0
Cd43 Cd 0.63757 0.46141 0.11841 0.0
Cd44 Cd 0.68366 0.52603 0.0615 0.0
O45 O 0.64468 0.54051 0.08988 0.0
O46 O 0.61587 0.42406 0.18712 0.0
O47 O 0.67008 0.4753 0.19605 0.0
C48 C 0.64422 0.44551 0.22174 0.0
C49 C 0.74809 0.55984 0.05759 0.0
C50 C 0.61125 0.51621 0.10269 0.0
C51 C 0.65523 0.45539 0.98687 0.0
O52 O 0.66772 0.48981 0.9877 0.0
O53 O 0.6438 0.43683 0.0376 0.0
O54 O 0.72827 0.56769 1.02103 0.0
O55 O 0.73149 0.53647 0.10269 0.0
O56 O 0.15757 0.58444 0.43695 0.0
Cd57 Cd 0.21342 0.62256 0.44548 0.0
Cd58 Cd 0.18931 0.66386 0.39395 0.0
O59 O 0.13718 0.62332 0.42586 0.0
O60 O 0.2321 0.60269 0.51297 0.0
O61 O 0.22914 0.65344 0.52486 0.0
C62 C 0.23573 0.62913 0.54933 0.0
C63 C 0.22158 0.72773 0.39744 0.0
C64 C 0.13067 0.59048 0.43417 0.0
C65 C 0.23436 0.64283 0.31364 0.0
O66 O 0.20828 0.64995 0.31594 0.0
O67 O 0.24517 0.63435 0.3639 0.0
O68 O 0.19225 0.71003 0.36254 0.0
O69 O 0.22895 0.7091 0.43767 0.0
O70 O 0.59752 0.1334 0.7737 0.0
Cd71 Cd 0.61707 0.18923 0.78011 0.0
Cd72 Cd 0.55131 0.16646 0.72871 0.0
O73 O 0.53816 0.11564 0.76722 0.0
O74 O 0.65626 0.20847 0.84776 0.0
O75 O 0.6024 0.20601 0.85823 0.0
C76 C 0.63348 0.21278 0.8832 0.0
C77 C 0.53053 0.20764 0.73506 0.0
C78 C 0.56378 0.10779 0.77452 0.0
C79 C 0.61589 0.20741 0.64659 0.0
O80 O 0.58274 0.18084 0.64907 0.0
O81 O 0.63545 0.21927 0.69683 0.0
O82 O 0.51078 0.17664 0.70542 0.0
O83 O 0.55755 0.21144 0.77061 0.0
O84 O 0.50408 0.58667 0.60747 0.0
Cd85 Cd 0.48528 0.62351 0.60193 0.0
Cd86 Cd 0.55093 0.66607 0.65247 0.0
O87 O 0.5635 0.62816 0.61224 0.0
O88 O 0.4458 0.60387 0.53464 0.0
O89 O 0.50017 0.65461 0.52385 0.0
C90 C 0.46882 0.6306 0.49909 0.0
C91 C 0.57174 0.72815 0.64559 0.0
C92 C 0.53775 0.59465 0.60554 0.0
C93 C 0.48746 0.64285 0.73637 0.0
O94 O 0.52045 0.64906 0.73309 0.0
O95 O 0.46802 0.63607 0.68617 0.0
O96 O 0.59194 0.71711 0.67381 0.0
O97 O 0.54359 0.70443 0.61246 0.0
O98 O 0.95105 0.48598 0.94217 0.0
Cd99 Cd 0.89465 0.4652 0.93364 0.0
Cd100 Cd 0.91483 0.53048 0.98653 0.0
O101 O 0.96788 0.54445 0.95556 0.0
O102 O 0.87787 0.42665 0.86574 0.0
O103 O 0.87726 0.47861 0.85456 0.0
C104 C 0.87244 0.44826 0.82976 0.0
C105 C 0.88169 0.56135 0.98551 0.0
C106 C 0.97648 0.51959 0.9462 0.0
C107 C 0.87237 0.46316 0.06553 0.0
O108 O 0.89637 0.49715 0.06368 0.0
O109 O 0.86349 0.44362 1.01526 0.0
O110 O 0.91112 0.5731 1.02003 0.0
O111 O 0.87473 0.53578 0.9441 0.0
O112 O 0.49802 0.92967 0.26597 0.0
Cd113 Cd 0.46277 0.87345 0.25824 0.0
Cd114 Cd 0.41754 0.89244 0.31406 0.0
O115 O 0.45573 0.94545 0.283 0.0
O116 O 0.48289 0.857 0.18766 0.0
O117 O 0.42909 0.85515 0.18227 0.0
C118 C 0.45422 0.85072 0.15461 0.0
C119 C 0.35326 0.86029 0.32047 0.0
C120 C 0.48933 0.95454 0.27171 0.0
C121 C 0.44612 0.85155 0.38975 0.0
O122 O 0.43472 0.87436 0.38881 0.0
O123 O 0.45625 0.84292 0.33884 0.0
O124 O 0.37287 0.88956 0.35426 0.0
O125 O 0.36972 0.85289 0.27568 0.0
O126 O 0.59926 0.47782 0.60516 0.0
Cd127 Cd 0.61643 0.43972 0.59841 0.0
Cd128 Cd 0.55029 0.39944 0.64984 0.0
O129 O 0.53927 0.43866 0.6112 0.0
O130 O 0.65568 0.45852 0.53117 0.0
O131 O 0.60053 0.40875 0.51949 0.0
C132 C 0.63204 0.43215 0.49509 0.0
C133 C 0.52982 0.33764 0.6421 0.0
C134 C 0.56615 0.47158 0.60416 0.0
C135 C 0.61411 0.41991 0.73215 0.0
O136 O 0.58188 0.41579 0.72954 0.0
O137 O 0.63329 0.4262 0.68195 0.0
O138 O 0.50975 0.34847 0.67162 0.0
O139 O 0.55668 0.36116 0.60703 0.0
O140 O 0.15697 0.58384 0.93636 0.0
Cd141 Cd 0.21296 0.60262 0.92749 0.0
Cd142 Cd 0.19029 0.53744 0.98376 0.0
O143 O 0.13719 0.52531 0.95575 0.0
O144 O 0.23017 0.6394 0.85748 0.0
O145 O 0.22923 0.58643 0.85019 0.0
C146 C 0.23482 0.61643 0.82342 0.0
C147 C 0.21967 0.50293 0.98555 0.0
C148 C 0.13033 0.55112 0.94396 0.0
C149 C 0.23692 0.60701 0.05859 0.0
O150 O 0.21243 0.57316 0.05798 0.0
O151 O 0.2452 0.62578 1.00796 0.0
O152 O 0.19185 0.49484 1.02212 0.0
O153 O 0.22692 0.52677 0.94116 0.0
O154 O 0.60372 0.13446 0.26625 0.0
Cd155 Cd 0.64056 0.19035 0.25967 0.0
Cd156 Cd 0.68311 0.16829 0.3159 0.0
O157 O 0.64359 0.11569 0.28384 0.0
O158 O 0.61971 0.20757 0.19165 0.0
O159 O 0.6726 0.20799 0.18189 0.0
C160 C 0.64736 0.21315 0.15661 0.0
C161 C 0.74737 0.1999 0.32136 0.0
C162 C 0.61051 0.10832 0.27212 0.0
C163 C 0.65718 0.21124 0.39239 0.0
O164 O 0.66679 0.18706 0.39114 0.0
O165 O 0.64839 0.22105 0.34142 0.0
O166 O 0.72789 0.17074 0.35485 0.0
O167 O 0.73064 0.2074 0.27725 0.0
C168 C 0.42836 0.59624 0.33476 0.0
C169 C 0.45417 0.62403 0.29472 0.0
C170 C 0.4319 0.59965 0.40104 0.0
C171 C 0.46144 0.63099 0.43009 0.0
H172 H 0.40625 0.57074 0.31491 0.0
H173 H 0.41238 0.57663 0.42949 0.0
S174 S 0.533 0.71429 0.34699 0.0
N175 N 0.50769 0.68598 0.28937 0.0
N176 N 0.51434 0.6923 0.4136 0.0
C177 C 0.48581 0.66015 0.39074 0.0
C178 C 0.48219 0.6567 0.32322 0.0
C179 C 0.86713 0.46458 0.65396 0.0
C180 C 0.86576 0.4336 0.625 0.0
C181 C 0.86694 0.46804 0.72019 0.0
C182 C 0.86537 0.44067 0.76047 0.0
H183 H 0.87014 0.48729 0.62543 0.0
H184 H 0.86986 0.49325 0.73981 0.0
S185 S 0.8557 0.35151 0.70872 0.0
N186 N 0.85857 0.37311 0.64194 0.0
N187 N 0.85815 0.37952 0.76616 0.0
C188 C 0.86133 0.40835 0.73213 0.0
C189 C 0.86154 0.40485 0.66456 0.0
C190 C 0.48627 0.84326 0.98977 0.0
C191 C 0.45897 0.84277 0.94991 0.0
C192 C 0.48323 0.84337 0.05597 0.0
C193 C 0.45279 0.84306 0.08532 0.0
H194 H 0.51118 0.84538 0.96991 0.0
H195 H 0.50596 0.84556 0.08419 0.0
S196 S 0.37088 0.83603 1.00265 0.0
N197 N 0.39828 0.83763 0.94483 0.0
N198 N 0.39266 0.83792 0.06918 0.0
C199 C 0.42393 0.83977 0.04614 0.0
C200 C 0.427 0.8396 0.97852 0.0
C201 C 0.67111 0.46615 0.3308 0.0
C202 C 0.64488 0.4383 0.29067 0.0
C203 C 0.66819 0.46286 0.39708 0.0
C204 C 0.63891 0.43159 0.42597 0.0
H205 H 0.69301 0.49161 0.3111 0.0
H206 H 0.68796 0.48595 0.4257 0.0
S207 S 0.56663 0.34809 0.34238 0.0
N208 N 0.59136 0.37631 0.28491 0.0
N209 N 0.5859 0.37022 0.40913 0.0
C210 C 0.61417 0.40234 0.38643 0.0
C211 C 0.61715 0.40567 0.31894 0.0
C212 C 0.24109 0.65519 0.6586 0.0
C213 C 0.24274 0.62911 0.61865 0.0
C214 C 0.24083 0.65206 0.72484 0.0
C215 C 0.24212 0.62265 0.75414 0.0
H216 H 0.23822 0.67736 0.6387 0.0
H217 H 0.23779 0.67198 0.75308 0.0
S218 S 0.25229 0.54999 0.67146 0.0
N219 N 0.24994 0.57512 0.61367 0.0
N220 N 0.24931 0.56922 0.73798 0.0
C221 C 0.24638 0.59781 0.71495 0.0
C222 C 0.24674 0.60105 0.64735 0.0
C223 C 0.6734 0.21847 0.0475 0.0
C224 C 0.64767 0.22073 0.08762 0.0
C225 C 0.67003 0.21841 0.98123 0.0
C226 C 0.64077 0.22057 0.95228 0.0
H227 H 0.69526 0.21476 0.06722 0.0
H228 H 0.68944 0.21465 0.95269 0.0
S229 S 0.56965 0.23324 0.03573 0.0
N230 N 0.59462 0.22989 0.09324 0.0
N231 N 0.5883 0.22969 0.96901 0.0
C232 C 0.61654 0.2257 0.99176 0.0
C233 C 0.61999 0.2258 0.05927 0.0
C234 C 0.29044 0.49586 0.08703 0.0
C235 C 0.31373 0.49295 0.04208 0.0
C236 C 0.25778 0.49522 0.06847 0.0
C237 C 0.2477 0.49281 1.00404 0.0
H238 H 0.29847 0.50059 0.13659 0.0
H239 H 0.24193 0.49965 0.10454 0.0
S240 S 0.29648 0.4803 0.86822 0.0
N241 N 0.32192 0.48336 0.93052 0.0
N242 N 0.26157 0.48407 0.89598 0.0
C243 C 0.26942 0.48768 0.95905 0.0
C244 C 0.30211 0.4872 0.97801 0.0
C245 C 0.84475 0.28281 0.3174 0.0
C246 C 0.85143 0.29375 0.38173 0.0
C247 C 0.81193 0.25102 0.29799 0.0
C248 C 0.78519 0.22823 0.34237 0.0
H249 H 0.86363 0.30041 0.28111 0.0
H250 H 0.80675 0.24511 0.24775 0.0
S251 S 0.7908 0.24286 0.51691 0.0
N252 N 0.82939 0.27819 0.48986 0.0
N253 N 0.76869 0.21767 0.45407 0.0
C254 C 0.79279 0.23746 0.40721 0.0
C255 C 0.82564 0.2704 0.42673 0.0
C256 C 0.54091 0.79366 0.70299 0.0
C257 C 0.57416 0.82642 0.71674 0.0
C258 C 0.54093 0.76302 0.67682 0.0
C259 C 0.57419 0.76334 0.6646 0.0
H260 H 0.51442 0.79188 0.7109 0.0
H261 H 0.51443 0.73841 0.66789 0.0
S262 S 0.66893 0.84218 0.69213 0.0
N263 N 0.64142 0.85784 0.71456 0.0
N264 N 0.64145 0.79907 0.66885 0.0
C265 C 0.60776 0.79572 0.67869 0.0
C266 C 0.60775 0.82758 0.70364 0.0
C267 C 0.79315 0.56544 0.97485 0.0
C268 C 0.78624 0.56988 0.03877 0.0
C269 C 0.82553 0.5654 0.95686 0.0
C270 C 0.85279 0.57088 1.0018 0.0
H271 H 0.77208 0.55907 0.93907 0.0
H272 H 0.82833 0.55917 0.90796 0.0
S273 S 0.85022 0.58922 0.1739 0.0
N274 N 0.81051 0.58306 0.14603 0.0
N275 N 0.87223 0.58486 0.11238 0.0
C276 C 0.84756 0.5785 0.06506 0.0
C277 C 0.81404 0.57743 0.08355 0.0
C278 C 0.25627 0.7767 0.31705 0.0
C279 C 0.25025 0.76609 0.38132 0.0
C280 C 0.28871 0.80859 0.29752 0.0
C281 C 0.31573 0.8318 0.34173 0.0
H282 H 0.2372 0.75874 0.28084 0.0
H283 H 0.29343 0.81425 0.24726 0.0
S284 S 0.31178 0.81813 0.51613 0.0
N285 N 0.27317 0.78239 0.48925 0.0
N286 N 0.33315 0.84311 0.45328 0.0
C287 C 0.30875 0.82289 0.40658 0.0
C288 C 0.27629 0.78986 0.42619 0.0
C289 C 0.49588 0.24011 0.70281 0.0
C290 C 0.52944 0.24081 0.71459 0.0
C291 C 0.49569 0.27124 0.67822 0.0
C292 C 0.52895 0.30328 0.66159 0.0
H293 H 0.46974 0.21557 0.71329 0.0
H294 H 0.46942 0.27017 0.67183 0.0
S295 S 0.62406 0.31822 0.68063 0.0
N296 N 0.59661 0.2761 0.70685 0.0
N297 N 0.59625 0.33343 0.65875 0.0
C298 C 0.56251 0.30378 0.67198 0.0
C299 C 0.56276 0.27286 0.69885 0.0
C300 C 0.5145 0.5047 0.11002 0.0
C301 C 0.52125 0.54096 0.10588 0.0
C302 C 0.54376 0.49724 0.11019 0.0
C303 C 0.58117 0.52562 0.10553 0.0
H304 H 0.48638 0.48182 0.11314 0.0
H305 H 0.53677 0.4687 0.11313 0.0
S306 S 0.61407 0.62553 0.09296 0.0
N307 N 0.56855 0.60581 0.0969 0.0
N308 N 0.62312 0.59161 0.09679 0.0
C309 C 0.58835 0.56205 0.10156 0.0
C310 C 0.55856 0.56971 0.10186 0.0
C311 C 1.02501 0.5354 0.44283 0.0
C312 C 1.01651 0.49833 0.44047 0.0
C313 C 0.06175 0.56485 0.44148 0.0
C314 C 0.09185 0.55871 0.43818 0.0
H315 H 1.00305 0.54196 0.44466 0.0
H316 H 0.06649 0.59268 0.44258 0.0
S317 S 0.08509 0.46689 0.43314 0.0
N318 N 1.04164 0.45728 0.43613 0.0
N319 N 0.1105 0.51226 0.43402 0.0
C320 C 0.08383 0.52173 0.43704 0.0
C321 C 1.04633 0.49172 0.43805 0.0
C322 C 0.58437 0.06097 0.77629 0.0
C323 C 0.55529 0.06887 0.77994 0.0
C324 C 0.57751 1.02465 0.77664 0.0
C325 C 0.54129 0.99444 0.78092 0.0
H326 H 0.6128 0.083 0.77157 0.0
H327 H 0.60089 1.0203 0.7721 0.0
S328 S 0.45539 0.99996 0.7969 0.0
N329 N 0.48892 0.04328 0.7916 0.0
N330 N 0.47588 0.97515 0.79284 0.0
C331 C 0.51196 1.00195 0.78691 0.0
C332 C 0.51901 0.03903 0.78623 0.0
C333 C 0.51675 0.52712 0.60182 0.0
C334 C 0.54603 0.56406 0.59982 0.0
C335 C 0.52336 0.49748 0.60157 0.0
C336 C 0.55957 0.50332 0.599 0.0
H337 H 0.48826 0.52083 0.60512 0.0
H338 H 0.49983 0.46981 0.60466 0.0
S339 S 0.6461 0.59463 0.58835 0.0
N340 N 0.61265 0.60461 0.59192 0.0
N341 N 0.62527 0.54927 0.59091 0.0
C342 C 0.58913 0.54013 0.59478 0.0
C343 C 0.58235 0.57033 0.59534 0.0
C344 C 0.06126 0.50755 0.94396 0.0
C345 C 0.09136 0.54382 0.94165 0.0
C346 C 1.02449 0.50019 0.94427 0.0
C347 C 1.016 0.52877 0.9428 0.0
H348 H 0.06602 0.48448 0.94595 0.0
H349 H 1.00255 0.47171 0.94668 0.0
S350 S 0.0845 0.62879 0.93516 0.0
N351 N 0.10995 0.60889 0.93659 0.0
N352 N 1.04105 0.59489 0.93765 0.0
C353 C 1.04577 0.56517 0.93981 0.0
C354 C 0.0833 0.57273 0.93907 0.0
C355 C 0.55686 1.00312 0.26945 0.0
C356 C 0.51937 0.99401 0.26846 0.0
C357 C 0.58603 0.03988 0.26974 0.0
C358 C 0.57912 0.06938 0.2685 0.0
H359 H 0.56398 0.98163 0.2712 0.0
H360 H 0.61419 0.04515 0.27151 0.0
S361 S 0.48591 0.06074 0.26307 0.0
N362 N 0.47709 1.0178 0.26454 0.0
N363 N 0.53149 0.08671 0.26453 0.0
C364 C 0.54171 0.06068 0.26616 0.0
C365 C 0.512 1.02317 0.26633 0.0
C366 C 0.49597 0.6613 0.85001 0.0
C367 C 0.47182 0.64103 0.79979 0.0
C368 C 0.48476 0.65317 0.91326 0.0
C369 C 0.44926 0.62419 0.92796 0.0
H370 H 0.52455 0.68182 0.84051 0.0
H371 H 0.50517 0.667 0.95045 0.0
S372 S 0.37332 0.56832 0.81441 0.0
N373 N 0.40897 0.59529 0.76912 0.0
N374 N 0.38813 0.57935 0.88834 0.0
C375 C 0.42363 0.60662 0.87841 0.0
C376 C 0.43486 0.61526 0.81402 0.0
C377 C 0.85838 0.40362 0.20626 0.0
C378 C 0.85956 0.42642 0.25663 0.0
C379 C 0.85799 0.41341 0.143 0.0
C380 C 0.85927 0.44654 0.12837 0.0
H381 H 0.86068 0.37951 0.21572 0.0
H382 H 0.86042 0.39686 0.10581 0.0
S383 S 0.8543 0.51144 0.24242 0.0
N384 N 0.85546 0.48001 0.2875 0.0
N385 N 0.85512 0.49874 0.16844 0.0
C386 C 0.85602 0.46724 0.17809 0.0
C387 C 0.856 0.45704 0.24246 0.0
C388 C 0.4366 0.83691 0.56508 0.0
C389 C 0.4717 0.84271 0.58129 0.0
C390 C 0.42657 0.83549 0.50134 0.0
C391 C 0.45115 0.83932 0.45228 0.0
H392 H 0.41836 0.83717 0.60135 0.0
H393 H 0.40072 0.83452 0.49043 0.0
S394 S 0.54249 0.84601 0.47124 0.0
N395 N 0.52826 0.84562 0.54447 0.0
N396 N 0.50913 0.84251 0.42436 0.0
C397 C 0.48419 0.84021 0.46812 0.0
C398 C 0.4946 0.84213 0.53297 0.0
C399 C 0.66485 0.44959 0.8115 0.0
C400 C 0.62956 0.4206 0.79509 0.0
C401 C 0.67495 0.45816 0.87532 0.0
C402 C 0.65019 0.43773 0.92429 0.0
H403 H 0.6832 0.46795 0.77538 0.0
H404 H 0.70098 0.48289 0.88639 0.0
S405 S 0.55835 0.3536 0.90458 0.0
N406 N 0.5727 0.36728 0.83148 0.0
N407 N 0.59187 0.38331 0.95171 0.0
C408 C 0.61697 0.40574 0.90815 0.0
C409 C 0.60653 0.39725 0.84322 0.0
C410 C 0.24903 0.65547 0.13799 0.0
C411 C 0.2511 0.62429 0.1209 0.0
C412 C 0.24764 0.66374 0.20199 0.0
C413 C 0.2487 0.6413 0.25053 0.0
H414 H 0.2444 0.67114 0.10217 0.0
H415 H 0.24259 0.68602 0.21339 0.0
S416 S 0.26316 0.56188 0.22938 0.0
N417 N 0.26097 0.57494 0.15652 0.0
N418 N 0.25874 0.59077 0.27705 0.0
C419 C 0.25583 0.61312 0.23393 0.0
C420 C 0.25689 0.6045 0.1688 0.0
C421 C 0.66634 0.22538 0.56823 0.0
C422 C 0.63185 0.22131 0.58376 0.0
C423 C 0.67645 0.22639 0.50469 0.0
C424 C 0.65261 0.22389 0.45511 0.0
H425 H 0.68388 0.22408 0.60481 0.0
H426 H 0.70167 0.22602 0.49426 0.0
S427 S 0.56342 0.22194 0.47236 0.0
N428 N 0.57693 0.22148 0.54585 0.0
N429 N 0.59623 0.22377 0.42613 0.0
C430 C 0.62038 0.22472 0.47037 0.0
C431 C 0.60986 0.22323 0.53502 0.0
loop_
_geom_bond_atom_site_label_1
_geom_bond_atom_site_label_2
_geom_bond_distance
_geom_bond_site_symmetry_2
_ccdc_geom_bond_type
O0 Cd1 2.223 . S
O0 C8 1.315 . S
Cd1 O0 2.223 . S
Cd1 O4 2.297 . S
Cd1 O5 2.439 . S
Cd1 O11 2.224 1_554 S
Cd2 O3 2.240 . S
Cd2 O10 2.223 1_554 S
Cd2 O12 2.297 1_554 S
Cd2 O13 2.439 . S
O3 Cd2 2.240 . S
O3 C8 1.279 . S
O4 Cd1 2.297 . S
O4 C6 1.247 . S
O5 Cd1 2.439 . S
O5 C6 1.208 . S
C6 O4 1.247 . S
C6 O5 1.208 . S
C7 O12 1.247 1_554 S
C7 O13 1.208 . S
C8 O0 1.315 . S
C8 O3 1.279 . S
C9 O10 1.315 . S
C9 O11 1.296 . S
O10 Cd2 2.223 1_556 S
O10 C9 1.315 . S
O11 Cd1 2.224 1_556 S
O11 C9 1.296 . S
O12 Cd2 2.297 1_556 S
O12 C7 1.247 1_556 S
O13 Cd2 2.439 . S
O13 C7 1.208 . S
O14 Cd15 2.223 . S
O14 C22 1.315 . S
Cd15 O14 2.223 . S
Cd15 O18 2.297 . S
Cd15 O19 2.439 . S
Cd15 O25 2.240 . S
Cd16 O17 2.240 . S
Cd16 O24 2.223 . S
Cd16 O26 2.297 . S
Cd16 O27 2.439 . S
O17 Cd16 2.240 . S
O17 C22 1.279 . S
O18 Cd15 2.297 . S
O18 C20 1.247 . S
O19 Cd15 2.439 . S
O19 C20 1.208 . S
C20 O18 1.247 . S
C20 O19 1.208 . S
C21 O26 1.247 . S
C21 O27 1.208 . S
C22 O14 1.315 . S
C22 O17 1.279 . S
C23 O24 1.315 . S
C23 O25 1.279 . S
O24 Cd16 2.223 . S
O24 C23 1.315 . S
O25 Cd15 2.240 . S
O25 C23 1.279 . S
O26 Cd16 2.297 . S
O26 C21 1.247 . S
O27 Cd16 2.439 . S
O27 C21 1.208 . S
O28 Cd29 2.223 . S
O28 C36 1.315 . S
Cd29 O28 2.223 . S
Cd29 O32 2.297 . S
Cd29 O33 2.439 . S
Cd29 O39 2.240 . S
Cd30 O31 2.240 . S
Cd30 O38 2.223 . S
Cd30 O40 2.297 . S
Cd30 O41 2.439 . S
O31 Cd30 2.240 . S
O31 C36 1.279 . S
O32 Cd29 2.297 . S
O32 C34 1.247 . S
O33 Cd29 2.439 . S
O33 C34 1.208 . S
C34 O32 1.247 . S
C34 O33 1.208 . S
C35 O40 1.247 . S
C35 O41 1.208 . S
C36 O28 1.315 . S
C36 O31 1.279 . S
C37 O38 1.315 . S
C37 O39 1.279 . S
O38 Cd30 2.223 . S
O38 C37 1.315 . S
O39 Cd29 2.240 . S
O39 C37 1.279 . S
O40 Cd30 2.297 . S
O40 C35 1.247 . S
O41 Cd30 2.439 . S
O41 C35 1.208 . S
O42 Cd43 2.223 . S
O42 C50 1.315 . S
Cd43 O42 2.223 . S
Cd43 O46 2.297 . S
Cd43 O47 2.439 . S
Cd43 O53 2.224 1_554 S
Cd44 O45 2.240 . S
Cd44 O52 2.223 1_554 S
Cd44 O54 2.297 1_554 S
Cd44 O55 2.439 . S
O45 Cd44 2.240 . S
O45 C50 1.279 . S
O46 Cd43 2.297 . S
O46 C48 1.247 . S
O47 Cd43 2.439 . S
O47 C48 1.208 . S
C48 O46 1.247 . S
C48 O47 1.208 . S
C49 O54 1.247 1_554 S
C49 O55 1.208 . S
C50 O42 1.315 . S
C50 O45 1.279 . S
C51 O52 1.315 . S
C51 O53 1.296 . S
O52 Cd44 2.223 1_556 S
O52 C51 1.315 . S
O53 Cd43 2.224 1_556 S
O53 C51 1.296 . S
O54 Cd44 2.297 1_556 S
O54 C49 1.247 1_556 S
O55 Cd44 2.439 . S
O55 C49 1.208 . S
O56 Cd57 2.223 . S
O56 C64 1.315 . S
Cd57 O56 2.223 . S
Cd57 O60 2.297 . S
Cd57 O61 2.439 . S
Cd57 O67 2.240 . S
Cd58 O59 2.240 . S
Cd58 O66 2.223 . S
Cd58 O68 2.297 . S
Cd58 O69 2.439 . S
O59 Cd58 2.240 . S
O59 C64 1.279 . S
O60 Cd57 2.297 . S
O60 C62 1.247 . S
O61 Cd57 2.439 . S
O61 C62 1.208 . S
C62 O60 1.247 . S
C62 O61 1.208 . S
C63 O68 1.247 . S
C63 O69 1.208 . S
C64 O56 1.315 . S
C64 O59 1.279 . S
C65 O66 1.315 . S
C65 O67 1.279 . S
O66 Cd58 2.223 . S
O66 C65 1.315 . S
O67 Cd57 2.240 . S
O67 C65 1.279 . S
O68 Cd58 2.297 . S
O68 C63 1.247 . S
O69 Cd58 2.439 . S
O69 C63 1.208 . S
O70 Cd71 2.223 . S
O70 C78 1.315 . S
Cd71 O70 2.223 . S
Cd71 O74 2.297 . S
Cd71 O75 2.439 . S
Cd71 O81 2.240 . S
Cd72 O73 2.240 . S
Cd72 O80 2.223 . S
Cd72 O82 2.297 . S
Cd72 O83 2.439 . S
O73 Cd72 2.240 . S
O73 C78 1.279 . S
O74 Cd71 2.297 . S
O74 C76 1.247 . S
O75 Cd71 2.439 . S
O75 C76 1.208 . S
C76 O74 1.247 . S
C76 O75 1.208 . S
C77 O82 1.247 . S
C77 O83 1.208 . S
C78 O70 1.315 . S
C78 O73 1.279 . S
C79 O80 1.315 . S
C79 O81 1.279 . S
O80 Cd72 2.223 . S
O80 C79 1.315 . S
O81 Cd71 2.240 . S
O81 C79 1.279 . S
O82 Cd72 2.297 . S
O82 C77 1.247 . S
O83 Cd72 2.439 . S
O83 C77 1.208 . S
O84 Cd85 2.223 . S
O84 C92 1.315 . S
Cd85 O84 2.223 . S
Cd85 O88 2.297 . S
Cd85 O89 2.439 . S
Cd85 O95 2.240 . S
Cd86 O87 2.240 . S
Cd86 O94 2.223 . S
Cd86 O96 2.297 . S
Cd86 O97 2.439 . S
O87 Cd86 2.240 . S
O87 C92 1.279 . S
O88 Cd85 2.297 . S
O88 C90 1.247 . S
O89 Cd85 2.439 . S
O89 C90 1.208 . S
C90 O88 1.247 . S
C90 O89 1.208 . S
C91 O96 1.247 . S
C91 O97 1.208 . S
C92 O84 1.315 . S
C92 O87 1.279 . S
C93 O94 1.315 . S
C93 O95 1.279 . S
O94 Cd86 2.223 . S
O94 C93 1.315 . S
O95 Cd85 2.240 . S
O95 C93 1.279 . S
O96 Cd86 2.297 . S
O96 C91 1.247 . S
O97 Cd86 2.439 . S
O97 C91 1.208 . S
O98 Cd99 2.223 . S
O98 C106 1.315 . S
Cd99 O98 2.223 . S
Cd99 O102 2.297 . S
Cd99 O103 2.439 . S
Cd99 O109 2.224 1_556 S
Cd100 O101 2.240 . S
Cd100 O108 2.223 1_556 S
Cd100 O110 2.297 1_556 S
Cd100 O111 2.439 . S
O101 Cd100 2.240 . S
O101 C106 1.279 . S
O102 Cd99 2.297 . S
O102 C104 1.247 . S
O103 Cd99 2.439 . S
O103 C104 1.208 . S
C104 O102 1.247 . S
C104 O103 1.208 . S
C105 O110 1.247 1_556 S
C105 O111 1.208 . S
C106 O98 1.315 . S
C106 O101 1.279 . S
C107 O108 1.315 . S
C107 O109 1.296 . S
O108 Cd100 2.223 1_554 S
O108 C107 1.315 . S
O109 Cd99 2.224 1_554 S
O109 C107 1.296 . S
O110 Cd100 2.297 1_554 S
O110 C105 1.247 1_554 S
O111 Cd100 2.439 . S
O111 C105 1.208 . S
O112 Cd113 2.223 . S
O112 C120 1.315 . S
Cd113 O112 2.223 . S
Cd113 O116 2.297 . S
Cd113 O117 2.439 . S
Cd113 O123 2.240 . S
Cd114 O115 2.240 . S
Cd114 O122 2.223 . S
Cd114 O124 2.297 . S
Cd114 O125 2.439 . S
O115 Cd114 2.240 . S
O115 C120 1.279 . S
O116 Cd113 2.297 . S
O116 C118 1.247 . S
O117 Cd113 2.439 . S
O117 C118 1.208 . S
C118 O116 1.247 . S
C118 O117 1.208 . S
C119 O124 1.247 . S
C119 O125 1.208 . S
C120 O112 1.315 . S
C120 O115 1.279 . S
C121 O122 1.315 . S
C121 O123 1.279 . S
O122 Cd114 2.223 . S
O122 C121 1.315 . S
O123 Cd113 2.240 . S
O123 C121 1.279 . S
O124 Cd114 2.297 . S
O124 C119 1.247 . S
O125 Cd114 2.439 . S
O125 C119 1.208 . S
O126 Cd127 2.223 . S
O126 C134 1.315 . S
Cd127 O126 2.223 . S
Cd127 O130 2.297 . S
Cd127 O131 2.439 . S
Cd127 O137 2.240 . S
Cd128 O129 2.240 . S
Cd128 O136 2.223 . S
Cd128 O138 2.297 . S
Cd128 O139 2.439 . S
O129 Cd128 2.240 . S
O129 C134 1.279 . S
O130 Cd127 2.297 . S
O130 C132 1.247 . S
O131 Cd127 2.439 . S
O131 C132 1.208 . S
C132 O130 1.247 . S
C132 O131 1.208 . S
C133 O138 1.247 . S
C133 O139 1.208 . S
C134 O126 1.315 . S
C134 O129 1.279 . S
C135 O136 1.315 . S
C135 O137 1.279 . S
O136 Cd128 2.223 . S
O136 C135 1.315 . S
O137 Cd127 2.240 . S
O137 C135 1.279 . S
O138 Cd128 2.297 . S
O138 C133 1.247 . S
O139 Cd128 2.439 . S
O139 C133 1.208 . S
O140 Cd141 2.223 . S
O140 C148 1.315 . S
Cd141 O140 2.223 . S
Cd141 O144 2.297 . S
Cd141 O145 2.439 . S
Cd141 O151 2.224 1_556 S
Cd142 O143 2.240 . S
Cd142 O150 2.223 1_556 S
Cd142 O152 2.297 1_556 S
Cd142 O153 2.439 . S
O143 Cd142 2.240 . S
O143 C148 1.279 . S
O144 Cd141 2.297 . S
O144 C146 1.247 . S
O145 Cd141 2.439 . S
O145 C146 1.208 . S
C146 O144 1.247 . S
C146 O145 1.208 . S
C147 O152 1.247 1_556 S
C147 O153 1.208 . S
C148 O140 1.315 . S
C148 O143 1.279 . S
C149 O150 1.315 . S
C149 O151 1.296 . S
O150 Cd142 2.223 1_554 S
O150 C149 1.315 . S
O151 Cd141 2.224 1_554 S
O151 C149 1.296 . S
O152 Cd142 2.297 1_554 S
O152 C147 1.247 1_554 S
O153 Cd142 2.439 . S
O153 C147 1.208 . S
O154 Cd155 2.223 . S
O154 C162 1.315 . S
Cd155 O154 2.223 . S
Cd155 O158 2.297 . S
Cd155 O159 2.439 . S
Cd155 O165 2.240 . S
Cd156 O157 2.240 . S
Cd156 O164 2.223 . S
Cd156 O166 2.297 . S
Cd156 O167 2.439 . S
O157 Cd156 2.240 . S
O157 C162 1.279 . S
O158 Cd155 2.297 . S
O158 C160 1.247 . S
O159 Cd155 2.439 . S
O159 C160 1.208 . S
C160 O158 1.247 . S
C160 O159 1.208 . S
C161 O166 1.247 . S
C161 O167 1.208 . S
C162 O154 1.315 . S
C162 O157 1.279 . S
C163 O164 1.315 . S
C163 O165 1.279 . S
O164 Cd156 2.223 . S
O164 C163 1.315 . S
O165 Cd155 2.240 . S
O165 C163 1.279 . S
O166 Cd156 2.297 . S
O166 C161 1.247 . S
O167 Cd156 2.439 . S
O167 C161 1.208 . S
C168 C169 1.369 . S
C168 C170 1.419 . S
C168 H172 0.930 . S
C169 C168 1.369 . S
C169 C178 1.429 . S
C170 C168 1.419 . S
C170 C171 1.363 . S
C170 H173 0.929 . S
C171 C170 1.363 . S
C171 C177 1.428 . S
H172 C168 0.930 . S
H173 C170 0.929 . S
S174 N175 1.613 . S
S174 N176 1.610 . S
N175 S174 1.613 . S
N175 C178 1.350 . S
N176 S174 1.610 . S
N176 C177 1.351 . S
C177 C171 1.428 . S
C177 N176 1.351 . S
C177 C178 1.434 . S
C178 C169 1.429 . S
C178 N175 1.350 . S
C178 C177 1.434 . S
C179 C180 1.369 . S
C179 C181 1.419 . S
C179 H183 0.930 . S
C180 C179 1.369 . S
C180 C189 1.429 . S
C181 C179 1.419 . S
C181 C182 1.363 . S
C181 H184 0.929 . S
C182 C181 1.363 . S
C182 C188 1.428 . S
H183 C179 0.930 . S
H184 C181 0.929 . S
S185 N186 1.613 . S
S185 N187 1.610 . S
N186 S185 1.613 . S
N186 C189 1.350 . S
N187 S185 1.610 . S
N187 C188 1.351 . S
C188 C182 1.428 . S
C188 N187 1.351 . S
C188 C189 1.434 . S
C189 C180 1.429 . S
C189 N186 1.350 . S
C189 C188 1.434 . S
C190 C191 1.369 . S
C190 C192 1.419 1_556 S
C190 H194 0.930 . S
C191 C190 1.369 . S
C191 C200 1.429 . S
C192 C190 1.419 1_554 S
C192 C193 1.363 . S
C192 H195 0.929 . S
C193 C192 1.363 . S
C193 C199 1.428 . S
H194 C190 0.930 . S
H195 C192 0.929 . S
S196 N197 1.613 . S
S196 N198 1.610 1_556 S
N197 S196 1.613 . S
N197 C200 1.350 . S
N198 S196 1.610 1_554 S
N198 C199 1.351 . S
C199 C193 1.428 . S
C199 N198 1.351 . S
C199 C200 1.434 1_554 S
C200 C191 1.429 . S
C200 N197 1.350 . S
C200 C199 1.434 1_556 S
C201 C202 1.369 . S
C201 C203 1.419 . S
C201 H205 0.930 . S
C202 C201 1.369 . S
C202 C211 1.429 . S
C203 C201 1.419 . S
C203 C204 1.363 . S
C203 H206 0.929 . S
C204 C203 1.363 . S
C204 C210 1.428 . S
H205 C201 0.930 . S
H206 C203 0.929 . S
S207 N208 1.613 . S
S207 N209 1.610 . S
N208 S207 1.613 . S
N208 C211 1.350 . S
N209 S207 1.610 . S
N209 C210 1.351 . S
C210 C204 1.428 . S
C210 N209 1.351 . S
C210 C211 1.434 . S
C211 C202 1.429 . S
C211 N208 1.350 . S
C211 C210 1.434 . S
C212 C213 1.369 . S
C212 C214 1.419 . S
C212 H216 0.930 . S
C213 C212 1.369 . S
C213 C222 1.429 . S
C214 C212 1.419 . S
C214 C215 1.363 . S
C214 H217 0.929 . S
C215 C214 1.363 . S
C215 C221 1.428 . S
H216 C212 0.930 . S
H217 C214 0.929 . S
S218 N219 1.613 . S
S218 N220 1.610 . S
N219 S218 1.613 . S
N219 C222 1.350 . S
N220 S218 1.610 . S
N220 C221 1.351 . S
C221 C215 1.428 . S
C221 N220 1.351 . S
C221 C222 1.434 . S
C222 C213 1.429 . S
C222 N219 1.350 . S
C222 C221 1.434 . S
C223 C224 1.369 . S
C223 C225 1.419 1_554 S
C223 H227 0.930 . S
C224 C223 1.369 . S
C224 C233 1.429 . S
C225 C223 1.419 1_556 S
C225 C226 1.363 . S
C225 H228 0.929 . S
C226 C225 1.363 . S
C226 C232 1.428 . S
H227 C223 0.930 . S
H228 C225 0.929 . S
S229 N230 1.613 . S
S229 N231 1.610 1_554 S
N230 S229 1.613 . S
N230 C233 1.350 . S
N231 S229 1.610 1_556 S
N231 C232 1.351 . S
C232 C226 1.428 . S
C232 N231 1.351 . S
C232 C233 1.434 1_556 S
C233 C224 1.429 . S
C233 N230 1.350 . S
C233 C232 1.434 1_554 S
C234 C235 1.369 . S
C234 C236 1.419 . S
C234 H238 0.930 . S
C235 C234 1.369 . S
C235 C244 1.429 1_554 S
C236 C234 1.419 . S
C236 C237 1.363 1_554 S
C236 H239 0.929 . S
C237 C236 1.363 1_556 S
C237 C243 1.428 . S
H238 C234 0.930 . S
H239 C236 0.929 . S
S240 N241 1.613 . S
S240 N242 1.610 . S
N241 S240 1.613 . S
N241 C244 1.350 . S
N242 S240 1.610 . S
N242 C243 1.351 . S
C243 C237 1.428 . S
C243 N242 1.351 . S
C243 C244 1.434 . S
C244 C235 1.429 1_556 S
C244 N241 1.350 . S
C244 C243 1.434 . S
C245 C246 1.369 . S
C245 C247 1.419 . S
C245 H249 0.930 . S
C246 C245 1.369 . S
C246 C255 1.429 . S
C247 C245 1.419 . S
C247 C248 1.363 . S
C247 H250 0.929 . S
C248 C247 1.363 . S
C248 C254 1.428 . S
H249 C245 0.930 . S
H250 C247 0.929 . S
S251 N252 1.613 . S
S251 N253 1.610 . S
N252 S251 1.613 . S
N252 C255 1.350 . S
N253 S251 1.610 . S
N253 C254 1.351 . S
C254 C248 1.428 . S
C254 N253 1.351 . S
C254 C255 1.434 . S
C255 C246 1.429 . S
C255 N252 1.350 . S
C255 C254 1.434 . S
C256 C257 1.369 . S
C256 C258 1.419 . S
C256 H260 0.930 . S
C257 C256 1.369 . S
C257 C266 1.429 . S
C258 C256 1.419 . S
C258 C259 1.363 . S
C258 H261 0.929 . S
C259 C258 1.363 . S
C259 C265 1.428 . S
H260 C256 0.930 . S
H261 C258 0.929 . S
S262 N263 1.613 . S
S262 N264 1.610 . S
N263 S262 1.613 . S
N263 C266 1.350 . S
N264 S262 1.610 . S
N264 C265 1.351 . S
C265 C259 1.428 . S
C265 N264 1.351 . S
C265 C266 1.434 . S
C266 C257 1.429 . S
C266 N263 1.350 . S
C266 C265 1.434 . S
C267 C268 1.369 1_556 S
C267 C269 1.419 . S
C267 H271 0.930 . S
C268 C267 1.369 1_554 S
C268 C277 1.429 . S
C269 C267 1.419 . S
C269 C270 1.363 . S
C269 H272 0.929 . S
C270 C269 1.363 . S
C270 C276 1.428 1_556 S
H271 C267 0.930 . S
H272 C269 0.929 . S
S273 N274 1.613 . S
S273 N275 1.610 . S
N274 S273 1.613 . S
N274 C277 1.350 . S
N275 S273 1.610 . S
N275 C276 1.351 . S
C276 C270 1.428 1_554 S
C276 N275 1.351 . S
C276 C277 1.434 . S
C277 C268 1.429 . S
C277 N274 1.350 . S
C277 C276 1.434 . S
C278 C279 1.369 . S
C278 C280 1.419 . S
C278 H282 0.930 . S
C279 C278 1.369 . S
C279 C288 1.429 . S
C280 C278 1.419 . S
C280 C281 1.363 . S
C280 H283 0.929 . S
C281 C280 1.363 . S
C281 C287 1.428 . S
H282 C278 0.930 . S
H283 C280 0.929 . S
S284 N285 1.613 . S
S284 N286 1.610 . S
N285 S284 1.613 . S
N285 C288 1.350 . S
N286 S284 1.610 . S
N286 C287 1.351 . S
C287 C281 1.428 . S
C287 N286 1.351 . S
C287 C288 1.434 . S
C288 C279 1.429 . S
C288 N285 1.350 . S
C288 C287 1.434 . S
C289 C290 1.369 . S
C289 C291 1.419 . S
C289 H293 0.930 . S
C290 C289 1.369 . S
C290 C299 1.429 . S
C291 C289 1.419 . S
C291 C292 1.363 . S
C291 H294 0.929 . S
C292 C291 1.363 . S
C292 C298 1.428 . S
H293 C289 0.930 . S
H294 C291 0.929 . S
S295 N296 1.613 . S
S295 N297 1.610 . S
N296 S295 1.613 . S
N296 C299 1.350 . S
N297 S295 1.610 . S
N297 C298 1.351 . S
C298 C292 1.428 . S
C298 N297 1.351 . S
C298 C299 1.434 . S
C299 C290 1.429 . S
C299 N296 1.350 . S
C299 C298 1.434 . S
C300 C301 1.369 . S
C300 C302 1.419 . S
C300 H304 0.930 . S
C301 C300 1.369 . S
C301 C310 1.429 1_554 S
C302 C300 1.419 . S
C302 C303 1.363 . S
C302 H305 0.929 . S
C303 C302 1.363 . S
C303 C309 1.428 1_554 S
H304 C300 0.930 . S
H305 C302 0.929 . S
S306 N307 1.613 . S
S306 N308 1.610 . S
N307 S306 1.613 . S
N307 C310 1.350 . S
N308 S306 1.610 . S
N308 C309 1.351 . S
C309 C303 1.428 1_556 S
C309 N308 1.351 . S
C309 C310 1.434 . S
C310 C301 1.429 1_556 S
C310 N307 1.350 . S
C310 C309 1.434 . S
C311 C312 1.369 . S
C311 C313 1.419 . S
C311 H315 0.930 . S
C312 C311 1.369 . S
C312 C321 1.429 1_655 S
C313 C311 1.419 . S
C313 C314 1.363 1_655 S
C313 H316 0.929 . S
C314 C313 1.363 1_455 S
C314 C320 1.428 . S
H315 C311 0.930 . S
H316 C313 0.929 . S
S317 N318 1.613 . S
S317 N319 1.610 . S
N318 S317 1.613 . S
N318 C321 1.350 . S
N319 S317 1.610 . S
N319 C320 1.351 . S
C320 C314 1.428 . S
C320 N319 1.351 . S
C320 C321 1.434 . S
C321 C312 1.429 1_455 S
C321 N318 1.350 . S
C321 C320 1.434 . S
C322 C323 1.369 . S
C322 C324 1.419 . S
C322 H326 0.930 . S
C323 C322 1.369 . S
C323 C332 1.429 1_545 S
C324 C322 1.419 . S
C324 C325 1.363 1_545 S
C324 H327 0.929 . S
C325 C324 1.363 1_565 S
C325 C331 1.428 . S
H326 C322 0.930 . S
H327 C324 0.929 . S
S328 N329 1.613 . S
S328 N330 1.610 . S
N329 S328 1.613 . S
N329 C332 1.350 . S
N330 S328 1.610 . S
N330 C331 1.351 . S
C331 C325 1.428 . S
C331 N330 1.351 . S
C331 C332 1.434 . S
C332 C323 1.429 1_565 S
C332 N329 1.350 . S
C332 C331 1.434 . S
C333 C334 1.369 . S
C333 C335 1.419 . S
C333 H337 0.930 . S
C334 C333 1.369 . S
C334 C343 1.429 . S
C335 C333 1.419 . S
C335 C336 1.363 . S
C335 H338 0.929 . S
C336 C335 1.363 . S
C336 C342 1.428 . S
H337 C333 0.930 . S
H338 C335 0.929 . S
S339 N340 1.613 . S
S339 N341 1.610 . S
N340 S339 1.613 . S
N340 C343 1.350 . S
N341 S339 1.610 . S
N341 C342 1.351 . S
C342 C336 1.428 . S
C342 N341 1.351 . S
C342 C343 1.434 . S
C343 C334 1.429 . S
C343 N340 1.350 . S
C343 C342 1.434 . S
C344 C345 1.369 1_655 S
C344 C346 1.419 . S
C344 H348 0.930 . S
C345 C344 1.369 1_455 S
C345 C354 1.429 . S
C346 C344 1.419 . S
C346 C347 1.363 . S
C346 H349 0.929 . S
C347 C346 1.363 . S
C347 C353 1.428 1_655 S
H348 C344 0.930 . S
H349 C346 0.929 . S
S350 N351 1.613 . S
S350 N352 1.610 . S
N351 S350 1.613 . S
N351 C354 1.350 . S
N352 S350 1.610 . S
N352 C353 1.351 . S
C353 C347 1.428 1_455 S
C353 N352 1.351 . S
C353 C354 1.434 . S
C354 C345 1.429 . S
C354 N351 1.350 . S
C354 C353 1.434 . S
C355 C356 1.369 . S
C355 C357 1.419 . S
C355 H359 0.930 . S
C356 C355 1.369 . S
C356 C365 1.429 1_565 S
C357 C355 1.419 . S
C357 C358 1.363 1_565 S
C357 H360 0.929 . S
C358 C357 1.363 1_545 S
C358 C364 1.428 . S
H359 C355 0.930 . S
H360 C357 0.929 . S
S361 N362 1.613 . S
S361 N363 1.610 . S
N362 S361 1.613 . S
N362 C365 1.350 . S
N363 S361 1.610 . S
N363 C364 1.351 . S
C364 C358 1.428 . S
C364 N363 1.351 . S
C364 C365 1.434 . S
C365 C356 1.429 1_545 S
C365 N362 1.350 . S
C365 C364 1.434 . S
C366 C367 1.369 . S
C366 C368 1.419 . S
C366 H370 0.930 . S
C367 C366 1.369 . S
C367 C376 1.429 . S
C368 C366 1.419 . S
C368 C369 1.363 . S
C368 H371 0.929 . S
C369 C368 1.363 . S
C369 C375 1.428 . S
H370 C366 0.930 . S
H371 C368 0.929 . S
S372 N373 1.613 . S
S372 N374 1.610 . S
N373 S372 1.613 . S
N373 C376 1.350 . S
N374 S372 1.610 . S
N374 C375 1.351 . S
C375 C369 1.428 . S
C375 N374 1.351 . S
C375 C376 1.434 . S
C376 C367 1.429 . S
C376 N373 1.350 . S
C376 C375 1.434 . S
C377 C378 1.369 . S
C377 C379 1.419 . S
C377 H381 0.930 . S
C378 C377 1.369 . S
C378 C387 1.429 . S
C379 C377 1.419 . S
C379 C380 1.363 . S
C379 H382 0.929 . S
C380 C379 1.363 . S
C380 C386 1.428 . S
H381 C377 0.930 . S
H382 C379 0.929 . S
S383 N384 1.613 . S
S383 N385 1.610 . S
N384 S383 1.613 . S
N384 C387 1.350 . S
N385 S383 1.610 . S
N385 C386 1.351 . S
C386 C380 1.428 . S
C386 N385 1.351 . S
C386 C387 1.434 . S
C387 C378 1.429 . S
C387 N384 1.350 . S
C387 C386 1.434 . S
C388 C389 1.369 . S
C388 C390 1.419 . S
C388 H392 0.930 . S
C389 C388 1.369 . S
C389 C398 1.429 . S
C390 C388 1.419 . S
C390 C391 1.363 . S
C390 H393 0.929 . S
C391 C390 1.363 . S
C391 C397 1.428 . S
H392 C388 0.930 . S
H393 C390 0.929 . S
S394 N395 1.613 . S
S394 N396 1.610 . S
N395 S394 1.613 . S
N395 C398 1.350 . S
N396 S394 1.610 . S
N396 C397 1.351 . S
C397 C391 1.428 . S
C397 N396 1.351 . S
C397 C398 1.434 . S
C398 C389 1.429 . S
C398 N395 1.350 . S
C398 C397 1.434 . S
C399 C400 1.369 . S
C399 C401 1.419 . S
C399 H403 0.930 . S
C400 C399 1.369 . S
C400 C409 1.429 . S
C401 C399 1.419 . S
C401 C402 1.363 . S
C401 H404 0.929 . S
C402 C401 1.363 . S
C402 C408 1.428 . S
H403 C399 0.930 . S
H404 C401 0.929 . S
S405 N406 1.613 . S
S405 N407 1.610 . S
N406 S405 1.613 . S
N406 C409 1.350 . S
N407 S405 1.610 . S
N407 C408 1.351 . S
C408 C402 1.428 . S
C408 N407 1.351 . S
C408 C409 1.434 . S
C409 C400 1.429 . S
C409 N406 1.350 . S
C409 C408 1.434 . S
C410 C411 1.369 . S
C410 C412 1.419 . S
C410 H414 0.930 . S
C411 C410 1.369 . S
C411 C420 1.429 . S
C412 C410 1.419 . S
C412 C413 1.363 . S
C412 H415 0.929 . S
C413 C412 1.363 . S
C413 C419 1.428 . S
H414 C410 0.930 . S
H415 C412 0.929 . S
S416 N417 1.613 . S
S416 N418 1.610 . S
N417 S416 1.613 . S
N417 C420 1.350 . S
N418 S416 1.610 . S
N418 C419 1.351 . S
C419 C413 1.428 . S
C419 N418 1.351 . S
C419 C420 1.434 . S
C420 C411 1.429 . S
C420 N417 1.350 . S
C420 C419 1.434 . S
C421 C422 1.369 . S
C421 C423 1.419 . S
C421 H425 0.930 . S
C422 C421 1.369 . S
C422 C431 1.429 . S
C423 C421 1.419 . S
C423 C424 1.363 . S
C423 H426 0.929 . S
C424 C423 1.363 . S
C424 C430 1.428 . S
H425 C421 0.930 . S
H426 C423 0.929 . S
S427 N428 1.613 . S
S427 N429 1.610 . S
N428 S427 1.613 . S
N428 C431 1.350 . S
N429 S427 1.610 . S
N429 C430 1.351 . S
C430 C424 1.428 . S
C430 N429 1.351 . S
C430 C431 1.434 . S
C431 C422 1.429 . S
C431 N428 1.350 . S
C431 C430 1.434 . S
C169 C6 1.466 . S
C171 C90 1.469 . S
C180 C20 1.469 . S
C182 C104 1.466 . S
C191 C34 1.467 . S
C193 C118 1.467 . S
C202 C48 1.466 . S
C204 C132 1.469 . S
C213 C62 1.466 . S
C215 C146 1.469 . S
C224 C160 1.466 . S
C226 C76 1.467 . S
C235 C7 1.462 . S
C237 C147 1.465 . S
C246 C21 1.465 . S
C248 C161 1.463 . S
C257 C35 1.462 . S
C259 C91 1.465 . S
C268 C49 1.465 . S
C270 C105 1.462 . S
C279 C63 1.467 . S
C281 C119 1.463 . S
C290 C77 1.465 . S
C292 C133 1.464 . S
C301 C8 1.338 . S
C303 C50 1.334 . S
C312 C22 1.342 . S
C314 C64 1.329 . S
C323 C78 1.340 . S
C325 C36 1.329 . S
C334 C92 1.340 . S
C336 C134 1.329 . S
C345 C148 1.325 . S
C347 C106 1.340 . S
C356 C120 1.338 . S
C358 C162 1.329 . S
C367 C93 1.337 . S
C369 C9 1.328 . S
C378 C23 1.337 . S
C380 C107 1.328 . S
C389 C37 1.327 . S
C391 C121 1.335 . S
C400 C135 1.327 . S
C402 C51 1.335 . S
C411 C149 1.327 . S
C413 C65 1.335 . S
C422 C79 1.327 . S
C424 C163 1.335 . S
