# Generated by pormake.
# Topology umn, (4)-cn, num edge types: 1
# Building blocks:
#     Node 0, Type 0, BuildingBlock: TATPOV_clean_sbu_0, # of connection points: 4
#     Node 1, Type 0, BuildingBlock: TATPOV_clean_sbu_0, # of connection points: 4
#     Node 2, Type 0, BuildingBlock: TATPOV_clean_sbu_0, # of connection points: 4
#     Node 3, Type 0, BuildingBlock: TATPOV_clean_sbu_0, # of connection points: 4
#     Node 4, Type 0, BuildingBlock: TATPOV_clean_sbu_0, # of connection points: 4
#     Node 5, Type 0, BuildingBlock: TATPOV_clean_sbu_0, # of connection points: 4
#     Node 6, Type 0, BuildingBlock: TATPOV_clean_sbu_0, # of connection points: 4
#     Node 7, Type 0, BuildingBlock: TATPOV_clean_sbu_0, # of connection points: 4
#     Node 8, Type 0, BuildingBlock: TATPOV_clean_sbu_0, # of connection points: 4
#     Node 9, Type 0, BuildingBlock: TATPOV_clean_sbu_0, # of connection points: 4
#     Node 10, Type 0, BuildingBlock: TATPOV_clean_sbu_0, # of connection points: 4
#     Node 11, Type 0, BuildingBlock: TATPOV_clean_sbu_0, # of connection points: 4
#     Node 12, Type 0, BuildingBlock: TATPOV_clean_sbu_0, # of connection points: 4
#     Node 13, Type 0, BuildingBlock: TATPOV_clean_sbu_0, # of connection points: 4
#     Node 14, Type 0, BuildingBlock: TATPOV_clean_sbu_0, # of connection points: 4
#     Node 15, Type 0, BuildingBlock: TATPOV_clean_sbu_0, # of connection points: 4
#     Node 16, Type 0, BuildingBlock: TATPOV_clean_sbu_0, # of connection points: 4
#     Node 17, Type 0, BuildingBlock: TATPOV_clean_sbu_0, # of connection points: 4
#     Node 18, Type 0, BuildingBlock: TATPOV_clean_sbu_0, # of connection points: 4
#     Node 19, Type 0, BuildingBlock: TATPOV_clean_sbu_0, # of connection points: 4
#     Node 20, Type 0, BuildingBlock: TATPOV_clean_sbu_0, # of connection points: 4
#     Node 21, Type 0, BuildingBlock: TATPOV_clean_sbu_0, # of connection points: 4
#     Node 22, Type 0, BuildingBlock: TATPOV_clean_sbu_0, # of connection points: 4
#     Node 23, Type 0, BuildingBlock: TATPOV_clean_sbu_0, # of connection points: 4
#     Node 24, Type 0, BuildingBlock: TATPOV_clean_sbu_0, # of connection points: 4
#     Node 25, Type 0, BuildingBlock: TATPOV_clean_sbu_0, # of connection points: 4
#     Node 26, Type 0, BuildingBlock: TATPOV_clean_sbu_0, # of connection points: 4
#     Node 27, Type 0, BuildingBlock: TATPOV_clean_sbu_0, # of connection points: 4
#     Node 28, Type 0, BuildingBlock: TATPOV_clean_sbu_0, # of connection points: 4
#     Node 29, Type 0, BuildingBlock: TATPOV_clean_sbu_0, # of connection points: 4
#     Node 30, Type 0, BuildingBlock: TATPOV_clean_sbu_0, # of connection points: 4
#     Node 31, Type 0, BuildingBlock: TATPOV_clean_sbu_0, # of connection points: 4
#     Node 32, Type 0, BuildingBlock: TATPOV_clean_sbu_0, # of connection points: 4
#     Node 33, Type 0, BuildingBlock: TATPOV_clean_sbu_0, # of connection points: 4
#     Node 34, Type 0, BuildingBlock: TATPOV_clean_sbu_0, # of connection points: 4
#     Node 35, Type 0, BuildingBlock: TATPOV_clean_sbu_0, # of connection points: 4
#     Edge 36, Type (0, 0), BuildingBlock: UVAHIK_clean_linker_0, # of connection points: 2
#     Edge 37, Type (0, 0), BuildingBlock: UVAHIK_clean_linker_0, # of connection points: 2
#     Edge 38, Type (0, 0), BuildingBlock: UVAHIK_clean_linker_0, # of connection points: 2
#     Edge 39, Type (0, 0), BuildingBlock: UVAHIK_clean_linker_0, # of connection points: 2
#     Edge 40, Type (0, 0), BuildingBlock: UVAHIK_clean_linker_0, # of connection points: 2
#     Edge 41, Type (0, 0), BuildingBlock: UVAHIK_clean_linker_0, # of connection points: 2
#     Edge 42, Type (0, 0), BuildingBlock: UVAHIK_clean_linker_0, # of connection points: 2
#     Edge 43, Type (0, 0), BuildingBlock: UVAHIK_clean_linker_0, # of connection points: 2
#     Edge 44, Type (0, 0), BuildingBlock: UVAHIK_clean_linker_0, # of connection points: 2
#     Edge 45, Type (0, 0), BuildingBlock: UVAHIK_clean_linker_0, # of connection points: 2
#     Edge 46, Type (0, 0), BuildingBlock: UVAHIK_clean_linker_0, # of connection points: 2
#     Edge 47, Type (0, 0), BuildingBlock: UVAHIK_clean_linker_0, # of connection points: 2
#     Edge 48, Type (0, 0), BuildingBlock: UVAHIK_clean_linker_0, # of connection points: 2
#     Edge 49, Type (0, 0), BuildingBlock: UVAHIK_clean_linker_0, # of connection points: 2
#     Edge 50, Type (0, 0), BuildingBlock: UVAHIK_clean_linker_0, # of connection points: 2
#     Edge 51, Type (0, 0), BuildingBlock: UVAHIK_clean_linker_0, # of connection points: 2
#     Edge 52, Type (0, 0), BuildingBlock: UVAHIK_clean_linker_0, # of connection points: 2
#     Edge 53, Type (0, 0), BuildingBlock: UVAHIK_clean_linker_0, # of connection points: 2
#     Edge 54, Type (0, 0), BuildingBlock: UVAHIK_clean_linker_0, # of connection points: 2
#     Edge 55, Type (0, 0), BuildingBlock: UVAHIK_clean_linker_0, # of connection points: 2
#     Edge 56, Type (0, 0), BuildingBlock: UVAHIK_clean_linker_0, # of connection points: 2
#     Edge 57, Type (0, 0), BuildingBlock: UVAHIK_clean_linker_0, # of connection points: 2
#     Edge 58, Type (0, 0), BuildingBlock: UVAHIK_clean_linker_0, # of connection points: 2
#     Edge 59, Type (0, 0), BuildingBlock: UVAHIK_clean_linker_0, # of connection points: 2
#     Edge 60, Type (0, 0), BuildingBlock: UVAHIK_clean_linker_0, # of connection points: 2
#     Edge 61, Type (0, 0), BuildingBlock: UVAHIK_clean_linker_0, # of connection points: 2
#     Edge 62, Type (0, 0), BuildingBlock: UVAHIK_clean_linker_0, # of connection points: 2
#     Edge 63, Type (0, 0), BuildingBlock: UVAHIK_clean_linker_0, # of connection points: 2
#     Edge 64, Type (0, 0), BuildingBlock: UVAHIK_clean_linker_0, # of connection points: 2
#     Edge 65, Type (0, 0), BuildingBlock: UVAHIK_clean_linker_0, # of connection points: 2
#     Edge 66, Type (0, 0), BuildingBlock: UVAHIK_clean_linker_0, # of connection points: 2
#     Edge 67, Type (0, 0), BuildingBlock: UVAHIK_clean_linker_0, # of connection points: 2
#     Edge 68, Type (0, 0), BuildingBlock: UVAHIK_clean_linker_0, # of connection points: 2
#     Edge 69, Type (0, 0), BuildingBlock: UVAHIK_clean_linker_0, # of connection points: 2
#     Edge 70, Type (0, 0), BuildingBlock: UVAHIK_clean_linker_0, # of connection points: 2
#     Edge 71, Type (0, 0), BuildingBlock: UVAHIK_clean_linker_0, # of connection points: 2
#     Edge 72, Type (0, 0), BuildingBlock: UVAHIK_clean_linker_0, # of connection points: 2
#     Edge 73, Type (0, 0), BuildingBlock: UVAHIK_clean_linker_0, # of connection points: 2
#     Edge 74, Type (0, 0), BuildingBlock: UVAHIK_clean_linker_0, # of connection points: 2
#     Edge 75, Type (0, 0), BuildingBlock: UVAHIK_clean_linker_0, # of connection points: 2
#     Edge 76, Type (0, 0), BuildingBlock: UVAHIK_clean_linker_0, # of connection points: 2
#     Edge 77, Type (0, 0), BuildingBlock: UVAHIK_clean_linker_0, # of connection points: 2
#     Edge 78, Type (0, 0), BuildingBlock: UVAHIK_clean_linker_0, # of connection points: 2
#     Edge 79, Type (0, 0), BuildingBlock: UVAHIK_clean_linker_0, # of connection points: 2
#     Edge 80, Type (0, 0), BuildingBlock: UVAHIK_clean_linker_0, # of connection points: 2
#     Edge 81, Type (0, 0), BuildingBlock: UVAHIK_clean_linker_0, # of connection points: 2
#     Edge 82, Type (0, 0), BuildingBlock: UVAHIK_clean_linker_0, # of connection points: 2
#     Edge 83, Type (0, 0), BuildingBlock: UVAHIK_clean_linker_0, # of connection points: 2
#     Edge 84, Type (0, 0), BuildingBlock: UVAHIK_clean_linker_0, # of connection points: 2
#     Edge 85, Type (0, 0), BuildingBlock: UVAHIK_clean_linker_0, # of connection points: 2
#     Edge 86, Type (0, 0), BuildingBlock: UVAHIK_clean_linker_0, # of connection points: 2
#     Edge 87, Type (0, 0), BuildingBlock: UVAHIK_clean_linker_0, # of connection points: 2
#     Edge 88, Type (0, 0), BuildingBlock: UVAHIK_clean_linker_0, # of connection points: 2
#     Edge 89, Type (0, 0), BuildingBlock: UVAHIK_clean_linker_0, # of connection points: 2
#     Edge 90, Type (0, 0), BuildingBlock: UVAHIK_clean_linker_0, # of connection points: 2
#     Edge 91, Type (0, 0), BuildingBlock: UVAHIK_clean_linker_0, # of connection points: 2
#     Edge 92, Type (0, 0), BuildingBlock: UVAHIK_clean_linker_0, # of connection points: 2
#     Edge 93, Type (0, 0), BuildingBlock: UVAHIK_clean_linker_0, # of connection points: 2
#     Edge 94, Type (0, 0), BuildingBlock: UVAHIK_clean_linker_0, # of connection points: 2
#     Edge 95, Type (0, 0), BuildingBlock: UVAHIK_clean_linker_0, # of connection points: 2
#     Edge 96, Type (0, 0), BuildingBlock: UVAHIK_clean_linker_0, # of connection points: 2
#     Edge 97, Type (0, 0), BuildingBlock: UVAHIK_clean_linker_0, # of connection points: 2
#     Edge 98, Type (0, 0), BuildingBlock: UVAHIK_clean_linker_0, # of connection points: 2
#     Edge 99, Type (0, 0), BuildingBlock: UVAHIK_clean_linker_0, # of connection points: 2
#     Edge 100, Type (0, 0), BuildingBlock: UVAHIK_clean_linker_0, # of connection points: 2
#     Edge 101, Type (0, 0), BuildingBlock: UVAHIK_clean_linker_0, # of connection points: 2
#     Edge 102, Type (0, 0), BuildingBlock: UVAHIK_clean_linker_0, # of connection points: 2
#     Edge 103, Type (0, 0), BuildingBlock: UVAHIK_clean_linker_0, # of connection points: 2
#     Edge 104, Type (0, 0), BuildingBlock: UVAHIK_clean_linker_0, # of connection points: 2
#     Edge 105, Type (0, 0), BuildingBlock: UVAHIK_clean_linker_0, # of connection points: 2
#     Edge 106, Type (0, 0), BuildingBlock: UVAHIK_clean_linker_0, # of connection points: 2
#     Edge 107, Type (0, 0), BuildingBlock: UVAHIK_clean_linker_0, # of connection points: 2
# Relax obj value: 0.249
# Max RMSD: 0.290
# Mean RMSD: 0.290
data_MOF--net-umn--node1-TATPOV_clean_sbu_0--edge1-UVAHIK_clean_linker_0
_symmetry_space_group_name_H-M    P1
_symmetry_Int_Tables_number       1
_symmetry_cell_setting            triclinic
loop_
_symmetry_equiv_pos_as_xyz
'x, y, z'
_cell_length_a     106.49221
_cell_length_b     106.5141
_cell_length_c     47.112938
_cell_angle_alpha  89.998559
_cell_angle_beta   89.957475
_cell_angle_gamma 120.01473
loop_
_atom_site_label
_atom_site_type_symbol
_atom_site_fract_x
_atom_site_fract_y
_atom_site_fract_z
_atom_type_partial_charge
Zn0 Zn 0.3857 0.0897 0.25041 0.0
Zn1 Zn 0.37329 0.1036 0.22843 0.0
O2 O 0.39069 0.10783 0.20247 0.0
O3 O 0.40317 0.09945 0.22453 0.0
O4 O 0.36664 0.11712 0.21444 0.0
O5 O 0.38512 0.09644 0.29045 0.0
O6 O 0.37487 0.10782 0.27112 0.0
C7 C 0.40161 0.10594 0.2035 0.0
C8 C 0.35642 0.07142 0.22655 0.0
O9 O 0.35645 0.08325 0.22261 0.0
O10 O 0.36754 0.07147 0.23639 0.0
C11 C 0.35743 0.11442 0.19488 0.0
O12 O 0.35177 0.10197 0.1814 0.0
C13 C 0.3791 0.10406 0.29314 0.0
Zn14 Zn 0.91659 0.28983 0.24589 0.0
Zn15 Zn 0.89964 0.26437 0.22162 0.0
O16 O 0.89705 0.27925 0.19734 0.0
O17 O 0.90967 0.30006 0.21958 0.0
O18 O 0.88473 0.24499 0.20623 0.0
O19 O 0.90829 0.28211 0.28518 0.0
O20 O 0.89476 0.2612 0.26408 0.0
C21 C 0.90164 0.29283 0.19904 0.0
C22 C 0.93178 0.27593 0.22124 0.0
O23 O 0.91916 0.26546 0.21577 0.0
O24 O 0.93344 0.28744 0.23271 0.0
C25 C 0.88709 0.23764 0.18794 0.0
O26 O 0.90005 0.24307 0.17662 0.0
C27 C 0.8991 0.2687 0.28673 0.0
Zn28 Zn 0.71225 0.61549 0.27511 0.0
Zn29 Zn 0.73484 0.62902 0.24144 0.0
O30 O 0.72059 0.61054 0.21913 0.0
O31 O 0.70161 0.59897 0.24693 0.0
O32 O 0.75338 0.63729 0.21919 0.0
O33 O 0.72365 0.61529 0.3094 0.0
O34 O 0.74214 0.62946 0.28231 0.0
C35 C 0.70781 0.59996 0.22338 0.0
C36 C 0.7186 0.64419 0.25391 0.0
O37 O 0.72844 0.64396 0.23898 0.0
O38 O 0.71083 0.63378 0.27058 0.0
C39 C 0.7606 0.63075 0.22065 0.0
O40 O 0.75532 0.6187 0.23545 0.0
C41 C 0.73713 0.62397 0.30662 0.0
Zn42 Zn 0.08325 0.37368 0.26306 0.0
Zn43 Zn 0.09859 0.36282 0.28524 0.0
O44 O 0.10271 0.38042 0.31066 0.0
O45 O 0.09183 0.39083 0.28976 0.0
O46 O 0.1114 0.35585 0.30151 0.0
O47 O 0.09116 0.37372 0.22369 0.0
O48 O 0.10385 0.36483 0.24288 0.0
C49 C 0.0995 0.39046 0.30992 0.0
C50 C 0.06604 0.34437 0.28536 0.0
O51 O 0.07831 0.34546 0.28998 0.0
O52 O 0.06524 0.35503 0.2755 0.0
C53 C 0.12512 0.36369 0.30057 0.0
O54 O 0.13095 0.37674 0.28951 0.0
C55 C 0.09966 0.36869 0.22093 0.0
Zn56 Zn 0.60786 0.7046 0.24164 0.0
Zn57 Zn 0.62251 0.7279 0.27272 0.0
O58 O 0.60508 0.71409 0.29803 0.0
O59 O 0.59276 0.69432 0.27265 0.0
O60 O 0.63128 0.74704 0.29286 0.0
O61 O 0.60569 0.71488 0.2074 0.0
O62 O 0.62135 0.73393 0.23149 0.0
C63 C 0.59454 0.70112 0.29574 0.0
C64 C 0.63778 0.71228 0.25739 0.0
O65 O 0.63787 0.72202 0.27311 0.0
O66 O 0.62681 0.70415 0.2423 0.0
C67 C 0.6244 0.75393 0.29203 0.0
O68 O 0.61172 0.74795 0.27933 0.0
C69 C 0.61476 0.72834 0.20829 0.0
Zn70 Zn 0.28538 0.90569 0.2381 0.0
Zn71 Zn 0.26131 0.89516 0.26869 0.0
O72 O 0.27495 0.88979 0.29021 0.0
O73 O 0.29379 0.89612 0.26249 0.0
O74 O 0.24252 0.88461 0.29003 0.0
O75 O 0.27418 0.89711 0.20161 0.0
O76 O 0.25455 0.88889 0.22775 0.0
C77 C 0.28716 0.89063 0.28551 0.0
C78 C 0.27943 0.92734 0.26374 0.0
O79 O 0.26767 0.91652 0.27235 0.0
O80 O 0.2887 0.92552 0.25018 0.0
C81 C 0.23578 0.87084 0.28952 0.0
O82 O 0.24168 0.86422 0.27625 0.0
C83 C 0.26048 0.89066 0.20349 0.0
Zn84 Zn 0.60693 0.90157 0.73095 0.0
Zn85 Zn 0.62354 0.89545 0.76331 0.0
O86 O 0.60588 0.89108 0.78828 0.0
O87 O 0.59142 0.8952 0.76156 0.0
O88 O 0.63379 0.8872 0.78557 0.0
O89 O 0.60673 0.88915 0.69805 0.0
O90 O 0.62221 0.88637 0.72416 0.0
C91 C 0.59426 0.89163 0.78533 0.0
C92 C 0.63581 0.92621 0.74587 0.0
O93 O 0.63746 0.91707 0.76041 0.0
O94 O 0.62413 0.92223 0.73221 0.0
C95 C 0.62714 0.87346 0.78726 0.0
O96 O 0.61417 0.86601 0.77592 0.0
C97 C 0.61566 0.88465 0.70064 0.0
Zn98 Zn 0.07959 0.70474 0.75873 0.0
Zn99 Zn 0.09606 0.73059 0.78107 0.0
O100 O 0.09945 0.71626 0.80558 0.0
O101 O 0.08805 0.69533 0.78341 0.0
O102 O 0.11072 0.75022 0.79602 0.0
O103 O 0.08652 0.71223 0.71879 0.0
O104 O 0.1003 0.73355 0.73823 0.0
C105 C 0.09587 0.70291 0.80387 0.0
C106 C 0.06377 0.71787 0.7837 0.0
O107 O 0.07631 0.72881 0.78754 0.0
O108 O 0.06238 0.70621 0.77349 0.0
C109 C 0.10797 0.75752 0.81373 0.0
O110 O 0.09483 0.75195 0.82431 0.0
C111 C 0.09539 0.72568 0.71613 0.0
Zn112 Zn 0.2892 0.37971 0.75364 0.0
Zn113 Zn 0.26417 0.36662 0.78057 0.0
O114 O 0.2779 0.38456 0.80514 0.0
O115 O 0.2977 0.39699 0.77981 0.0
O116 O 0.24469 0.35858 0.79934 0.0
O117 O 0.27964 0.37883 0.71591 0.0
O118 O 0.25899 0.36797 0.73907 0.0
C119 C 0.29057 0.39557 0.80226 0.0
C120 C 0.28088 0.35096 0.77597 0.0
O121 O 0.26917 0.35054 0.78321 0.0
O122 O 0.29111 0.36223 0.76454 0.0
C123 C 0.23458 0.34613 0.79182 0.0
O124 O 0.23741 0.3387 0.77318 0.0
C125 C 0.26592 0.37244 0.71578 0.0
Zn126 Zn 0.91536 0.62207 0.74453 0.0
Zn127 Zn 0.89824 0.63075 0.72252 0.0
O128 O 0.89502 0.61294 0.69856 0.0
O129 O 0.90732 0.60418 0.71993 0.0
O130 O 0.8835 0.63542 0.70691 0.0
O131 O 0.90842 0.62256 0.78454 0.0
O132 O 0.89415 0.62959 0.76542 0.0
C133 C 0.89906 0.60352 0.69996 0.0
C134 C 0.93039 0.65092 0.71904 0.0
O135 O 0.9177 0.64897 0.71531 0.0
O136 O 0.93215 0.64093 0.72946 0.0
C137 C 0.88245 0.64575 0.71788 0.0
O138 O 0.89134 0.65336 0.73847 0.0
C139 C 0.89934 0.62687 0.78739 0.0
Zn140 Zn 0.38267 0.29214 0.75193 0.0
Zn141 Zn 0.37003 0.26566 0.73075 0.0
O142 O 0.38798 0.2783 0.70549 0.0
O143 O 0.4005 0.29927 0.72717 0.0
O144 O 0.36315 0.24535 0.71734 0.0
O145 O 0.38132 0.28497 0.79239 0.0
O146 O 0.37093 0.26317 0.77378 0.0
C147 C 0.3991 0.29097 0.7067 0.0
C148 C 0.35377 0.28158 0.72657 0.0
O149 O 0.35359 0.26963 0.72336 0.0
O150 O 0.36493 0.2926 0.73648 0.0
C151 C 0.35454 0.2391 0.69678 0.0
O152 O 0.34965 0.24623 0.68204 0.0
C153 C 0.37501 0.27134 0.79555 0.0
Zn154 Zn 0.7043 0.10065 0.76847 0.0
Zn155 Zn 0.72765 0.10861 0.73796 0.0
O156 O 0.71463 0.11418 0.71465 0.0
O157 O 0.69544 0.10853 0.74078 0.0
O158 O 0.74669 0.11864 0.71713 0.0
O159 O 0.71495 0.11071 0.8044 0.0
O160 O 0.73395 0.11447 0.7796 0.0
C161 C 0.70236 0.11341 0.71779 0.0
C162 C 0.70907 0.07712 0.74748 0.0
O163 O 0.7202 0.08704 0.73488 0.0
O164 O 0.70107 0.0803 0.76226 0.0
C165 C 0.75752 0.11786 0.72617 0.0
O166 O 0.75591 0.10976 0.74846 0.0
C167 C 0.72832 0.11473 0.80331 0.0
Zn168 Zn 0.05378 0.4306 0.61269 0.0
Zn169 Zn 0.0402 0.43941 0.57713 0.0
O170 O 0.05834 0.44279 0.55521 0.0
O171 O 0.07007 0.43599 0.58397 0.0
O172 O 0.03209 0.4493 0.55333 0.0
O173 O 0.05405 0.44332 0.64518 0.0
O174 O 0.04085 0.44811 0.61631 0.0
C175 C 0.06894 0.44071 0.55996 0.0
C176 C 0.02466 0.4082 0.59312 0.0
O177 O 0.02491 0.41812 0.57764 0.0
O178 O 0.03526 0.41092 0.60927 0.0
C179 C 0.02074 0.44922 0.56198 0.0
O180 O 0.01421 0.44184 0.58498 0.0
C181 C 0.04619 0.44895 0.64087 0.0
Zn182 Zn 0.5675 0.62002 0.60699 0.0
Zn183 Zn 0.5589 0.5963 0.57742 0.0
O184 O 0.55451 0.60977 0.55272 0.0
O185 O 0.56093 0.6295 0.57758 0.0
O186 O 0.54834 0.57724 0.55692 0.0
O187 O 0.55681 0.60979 0.64301 0.0
O188 O 0.55241 0.59036 0.61905 0.0
C189 C 0.55604 0.62241 0.55476 0.0
C190 C 0.59033 0.61363 0.58836 0.0
O191 O 0.5803 0.60273 0.57542 0.0
O192 O 0.58744 0.62204 0.60243 0.0
C193 C 0.54788 0.56595 0.56701 0.0
O194 O 0.55506 0.56701 0.59039 0.0
C195 C 0.55225 0.59629 0.64244 0.0
Zn196 Zn 0.37058 0.94965 0.5774 0.0
Zn197 Zn 0.39622 0.96088 0.55256 0.0
O198 O 0.38219 0.94282 0.52864 0.0
O199 O 0.36153 0.93217 0.55191 0.0
O200 O 0.41577 0.96746 0.53498 0.0
O201 O 0.37912 0.95008 0.61606 0.0
O202 O 0.40026 0.95952 0.59475 0.0
C203 C 0.36908 0.93254 0.53082 0.0
C204 C 0.38148 0.97863 0.55363 0.0
O205 O 0.3928 0.97797 0.5478 0.0
O206 O 0.37052 0.96789 0.56476 0.0
C207 C 0.42684 0.97837 0.5455 0.0
O208 O 0.42508 0.98533 0.56676 0.0
C209 C 0.39276 0.95561 0.61745 0.0
Zn210 Zn 0.76338 0.72172 0.57604 0.0
Zn211 Zn 0.77054 0.70559 0.60769 0.0
O212 O 0.77416 0.72298 0.63281 0.0
O213 O 0.77019 0.73759 0.60625 0.0
O214 O 0.77949 0.69593 0.62972 0.0
O215 O 0.7751 0.72165 0.54189 0.0
O216 O 0.77925 0.70707 0.56802 0.0
C217 C 0.7736 0.7346 0.63004 0.0
C218 C 0.73955 0.6924 0.59187 0.0
O219 O 0.74916 0.69103 0.60533 0.0
O220 O 0.74292 0.70412 0.57887 0.0
C221 C 0.77855 0.68434 0.62009 0.0
O222 O 0.77096 0.67853 0.59694 0.0
C223 C 0.78013 0.71314 0.54424 0.0
Zn224 Zn 0.28358 0.03746 0.5798 0.0
Zn225 Zn 0.29445 0.0634 0.60284 0.0
O226 O 0.27602 0.04979 0.62627 0.0
O227 O 0.26541 0.02898 0.60357 0.0
O228 O 0.30028 0.08327 0.6175 0.0
O229 O 0.28503 0.04525 0.53989 0.0
O230 O 0.29412 0.06663 0.55997 0.0
C231 C 0.26557 0.03676 0.62403 0.0
C232 C 0.31207 0.04873 0.60676 0.0
O233 O 0.31144 0.06021 0.6108 0.0
O234 O 0.30149 0.03763 0.59561 0.0
C235 C 0.30851 0.08945 0.63859 0.0
O236 O 0.31366 0.0825 0.65315 0.0
C237 C 0.29072 0.05887 0.53765 0.0
Zn238 Zn 0.9538 0.23804 0.5736 0.0
Zn239 Zn 0.92992 0.22753 0.60434 0.0
O240 O 0.94389 0.22353 0.62801 0.0
O241 O 0.96411 0.23267 0.60342 0.0
O242 O 0.91077 0.21598 0.62429 0.0
O243 O 0.94399 0.22636 0.53835 0.0
O244 O 0.92443 0.22136 0.56256 0.0
C245 C 0.95703 0.2265 0.6257 0.0
C246 C 0.94509 0.25898 0.5933 0.0
O247 O 0.93529 0.24861 0.60773 0.0
O248 O 0.95356 0.25701 0.57737 0.0
C249 C 0.89962 0.21601 0.61476 0.0
O250 O 0.901 0.22418 0.59273 0.0
C251 C 0.93041 0.22129 0.53915 0.0
Zn252 Zn 0.28429 0.24512 0.09069 0.0
Zn253 Zn 0.29525 0.22956 0.11114 0.0
O254 O 0.2778 0.22551 0.13689 0.0
O255 O 0.26649 0.23544 0.11579 0.0
O256 O 0.30094 0.21517 0.12422 0.0
O257 O 0.2849 0.239 0.0501 0.0
O258 O 0.29382 0.22611 0.0681 0.0
C259 C 0.26733 0.2281 0.13607 0.0
C260 C 0.31354 0.26167 0.11544 0.0
O261 O 0.31271 0.24941 0.11829 0.0
O262 O 0.30283 0.26253 0.10597 0.0
C263 C 0.30948 0.21716 0.14472 0.0
O264 O 0.31491 0.22926 0.15938 0.0
C265 C 0.29021 0.23081 0.04656 0.0
Zn266 Zn 0.74495 0.0374 0.0851 0.0
Zn267 Zn 0.76286 0.0627 0.10798 0.0
O268 O 0.76509 0.04741 0.13165 0.0
O269 O 0.75245 0.0268 0.10888 0.0
O270 O 0.77851 0.08185 0.1229 0.0
O271 O 0.75192 0.04486 0.04517 0.0
O272 O 0.76688 0.06572 0.0651 0.0
C273 C 0.76061 0.03387 0.1294 0.0
C274 C 0.73099 0.05204 0.11182 0.0
O275 O 0.74387 0.0624 0.11555 0.0
O276 O 0.7287 0.04018 0.10095 0.0
C277 C 0.77673 0.08916 0.14218 0.0
O278 O 0.76403 0.08384 0.15462 0.0
C279 C 0.76147 0.05813 0.04282 0.0
Zn280 Zn 0.95879 0.72258 0.07109 0.0
Zn281 Zn 0.93459 0.70536 0.09893 0.0
O282 O 0.9465 0.72306 0.1249 0.0
O283 O 0.96588 0.73846 0.10102 0.0
O284 O 0.91506 0.69486 0.11772 0.0
O285 O 0.94851 0.72216 0.03454 0.0
O286 O 0.92907 0.70617 0.05735 0.0
C287 C 0.9584 0.73509 0.12357 0.0
C288 C 0.9545 0.69398 0.08934 0.0
O289 O 0.94271 0.69185 0.1005 0.0
O290 O 0.96276 0.7058 0.07655 0.0
C291 C 0.9072 0.70069 0.11572 0.0
O292 O 0.91242 0.7132 0.10256 0.0
C293 C 0.93514 0.71274 0.03439 0.0
Zn294 Zn 0.58318 0.96004 0.08355 0.0
Zn295 Zn 0.56585 0.96889 0.06296 0.0
O296 O 0.56213 0.95123 0.03806 0.0
O297 O 0.57466 0.94237 0.05821 0.0
O298 O 0.55097 0.97398 0.05042 0.0
O299 O 0.5767 0.96024 0.12414 0.0
O300 O 0.56238 0.96743 0.10596 0.0
C301 C 0.5662 0.9418 0.03874 0.0
C302 C 0.59791 0.98898 0.05804 0.0
O303 O 0.58521 0.98706 0.05498 0.0
O304 O 0.59976 0.97899 0.06818 0.0
C305 C 0.54615 0.97309 0.02542 0.0
O306 O 0.5511 0.96848 0.00473 0.0
C307 C 0.56763 0.96451 0.12757 0.0
Zn308 Zn 0.05662 0.62098 0.11094 0.0
Zn309 Zn 0.0407 0.59795 0.07866 0.0
O310 O 0.05853 0.61144 0.05439 0.0
O311 O 0.0723 0.6305 0.08064 0.0
O312 O 0.03115 0.57952 0.05615 0.0
O313 O 0.05675 0.609 0.14445 0.0
O314 O 0.04169 0.59051 0.11832 0.0
C315 C 0.06984 0.62387 0.05717 0.0
C316 C 0.02768 0.61599 0.09426 0.0
O317 O 0.02645 0.6053 0.07994 0.0
O318 O 0.03909 0.62381 0.10857 0.0
C319 C 0.01987 0.56845 0.06564 0.0
O320 O 0.01404 0.56954 0.08944 0.0
C321 C 0.04793 0.59552 0.14202 0.0
Zn322 Zn 0.37553 0.41881 0.09641 0.0
Zn323 Zn 0.40072 0.43343 0.07017 0.0
O324 O 0.38605 0.43693 0.04724 0.0
O325 O 0.36583 0.42702 0.07194 0.0
O326 O 0.41997 0.44651 0.05177 0.0
O327 O 0.38475 0.42686 0.1348 0.0
O328 O 0.40548 0.43892 0.11218 0.0
C329 C 0.37294 0.43399 0.05027 0.0
C330 C 0.38633 0.40104 0.07069 0.0
O331 O 0.39756 0.41308 0.06477 0.0
O332 O 0.37548 0.40068 0.08262 0.0
C333 C 0.42359 0.45933 0.04416 0.0
O334 O 0.41428 0.46392 0.04721 0.0
C335 C 0.39838 0.43515 0.13538 0.0
Zn336 Zn 0.71532 0.76221 0.92656 0.0
Zn337 Zn 0.69982 0.77166 0.90105 0.0
O338 O 0.71788 0.77708 0.87595 0.0
O339 O 0.7328 0.77276 0.90061 0.0
O340 O 0.69078 0.78224 0.88294 0.0
O341 O 0.71295 0.76908 0.96549 0.0
O342 O 0.69993 0.77673 0.94332 0.0
C343 C 0.72987 0.77715 0.87794 0.0
C344 C 0.68739 0.73996 0.90207 0.0
O345 O 0.68527 0.7504 0.89619 0.0
O346 O 0.69916 0.74232 0.91351 0.0
C347 C 0.69735 0.79597 0.88501 0.0
O348 O 0.70994 0.80265 0.89801 0.0
C349 C 0.70489 0.77468 0.96637 0.0
Zn350 Zn 0.23534 0.95985 0.92457 0.0
Zn351 Zn 0.22204 0.93423 0.89809 0.0
O352 O 0.21766 0.94794 0.87441 0.0
O353 O 0.22645 0.96833 0.89833 0.0
O354 O 0.2091 0.91456 0.88118 0.0
O355 O 0.22707 0.95056 0.963 0.0
O356 O 0.21662 0.92988 0.93999 0.0
C357 C 0.21989 0.96083 0.87673 0.0
C358 C 0.25441 0.95023 0.89924 0.0
O359 O 0.2428 0.93863 0.8929 0.0
O360 O 0.25397 0.96063 0.9114 0.0
C361 C 0.21306 0.90717 0.86641 0.0
O362 O 0.2268 0.9127 0.85974 0.0
C363 C 0.21947 0.93685 0.96325 0.0
Zn364 Zn 0.0387 0.28044 0.93378 0.0
Zn365 Zn 0.06297 0.29393 0.90467 0.0
O366 O 0.04907 0.27631 0.87984 0.0
O367 O 0.02886 0.2646 0.90427 0.0
O368 O 0.08244 0.30185 0.88584 0.0
O369 O 0.04798 0.27859 0.96971 0.0
O370 O 0.06806 0.29282 0.94661 0.0
C371 C 0.03603 0.26589 0.88191 0.0
C372 C 0.04751 0.31016 0.91451 0.0
O373 O 0.05783 0.3098 0.90161 0.0
O374 O 0.0385 0.29941 0.92922 0.0
C375 C 0.08669 0.29319 0.87781 0.0
O376 O 0.07796 0.27917 0.88081 0.0
C377 C 0.06162 0.28674 0.96968 0.0
Zn378 Zn 0.42216 0.04935 0.90391 0.0
Zn379 Zn 0.43241 0.03364 0.92782 0.0
O380 O 0.43838 0.05124 0.95427 0.0
O381 O 0.4328 0.06588 0.93175 0.0
O382 O 0.44277 0.02374 0.94311 0.0
O383 O 0.43003 0.04841 0.8651 0.0
O384 O 0.43831 0.0356 0.88601 0.0
C385 C 0.43814 0.06308 0.95321 0.0
C386 C 0.40029 0.02051 0.92521 0.0
O387 O 0.41104 0.01887 0.93107 0.0
O388 O 0.40226 0.03241 0.91505 0.0
C389 C 0.44578 0.02306 0.96894 0.0
O390 O 0.44166 0.029 0.98858 0.0
C391 C 0.4364 0.04107 0.86356 0.0
Zn392 Zn 0.94651 0.37794 0.89094 0.0
Zn393 Zn 0.95837 0.39982 0.92723 0.0
O394 O 0.9402 0.38454 0.94852 0.0
O395 O 0.93114 0.36557 0.92026 0.0
O396 O 0.9657 0.41774 0.95109 0.0
O397 O 0.94428 0.38959 0.85925 0.0
O398 O 0.95769 0.40768 0.88775 0.0
C399 C 0.93093 0.37129 0.94371 0.0
C400 C 0.97602 0.38659 0.9101 0.0
O401 O 0.97445 0.39479 0.92763 0.0
O402 O 0.96615 0.37907 0.89229 0.0
C403 C 0.977 0.42913 0.94273 0.0
O404 O 0.98378 0.42848 0.91995 0.0
C405 C 0.95211 0.40311 0.86337 0.0
Zn406 Zn 0.62306 0.56699 0.91665 0.0
Zn407 Zn 0.59993 0.56106 0.94622 0.0
O408 O 0.61276 0.55637 0.97241 0.0
O409 O 0.63157 0.55993 0.94705 0.0
O410 O 0.58088 0.55232 0.96672 0.0
O411 O 0.61196 0.55594 0.88148 0.0
O412 O 0.59317 0.55316 0.90577 0.0
C413 C 0.6248 0.55655 0.97046 0.0
C414 C 0.61913 0.59186 0.93137 0.0
O415 O 0.60768 0.58272 0.94434 0.0
O416 O 0.62709 0.58775 0.91911 0.0
C417 C 0.57122 0.55532 0.95926 0.0
O418 O 0.57424 0.56505 0.93931 0.0
C419 C 0.5986 0.55199 0.8825 0.0
Zn420 Zn 0.9409 0.56106 0.39727 0.0
Zn421 Zn 0.95712 0.55497 0.43049 0.0
O422 O 0.93895 0.55025 0.45412 0.0
O423 O 0.92471 0.55425 0.42651 0.0
O424 O 0.96685 0.54643 0.4535 0.0
O425 O 0.94152 0.54935 0.36385 0.0
O426 O 0.95686 0.54678 0.3908 0.0
C427 C 0.92729 0.55065 0.4505 0.0
C428 C 0.96927 0.58581 0.41476 0.0
O429 O 0.97087 0.57666 0.42937 0.0
O430 O 0.95788 0.58177 0.40012 0.0
C431 C 0.97834 0.547 0.44427 0.0
O432 O 0.98423 0.55413 0.42069 0.0
C433 C 0.95078 0.54529 0.36681 0.0
Zn434 Zn 0.43777 0.37249 0.40561 0.0
Zn435 Zn 0.44365 0.39586 0.43577 0.0
O436 O 0.44921 0.38344 0.4604 0.0
O437 O 0.44622 0.36482 0.43514 0.0
O438 O 0.45217 0.41462 0.45731 0.0
O439 O 0.44826 0.38404 0.37048 0.0
O440 O 0.45089 0.40268 0.39513 0.0
C441 C 0.44969 0.37176 0.45833 0.0
C442 C 0.41267 0.37561 0.42376 0.0
O443 O 0.4219 0.38723 0.43608 0.0
O444 O 0.41678 0.36794 0.41034 0.0
C445 C 0.45186 0.42555 0.44739 0.0
O446 O 0.44504 0.42426 0.42338 0.0
C447 C 0.45199 0.39734 0.3717 0.0
Zn448 Zn 0.6254 0.05953 0.40976 0.0
Zn449 Zn 0.6013 0.04387 0.43868 0.0
O450 O 0.61379 0.06215 0.46313 0.0
O451 O 0.63374 0.07565 0.43889 0.0
O452 O 0.58189 0.03442 0.45819 0.0
O453 O 0.6152 0.0596 0.37354 0.0
O454 O 0.59567 0.04429 0.39698 0.0
C455 C 0.62625 0.07352 0.46112 0.0
C456 C 0.61984 0.03077 0.42915 0.0
O457 O 0.60861 0.02959 0.44127 0.0
O458 O 0.62822 0.04214 0.4152 0.0
C459 C 0.57136 0.02284 0.4482 0.0
O460 O 0.57357 0.01675 0.42596 0.0
C461 C 0.60174 0.0505 0.37377 0.0
Zn462 Zn 0.23346 0.27399 0.44148 0.0
Zn463 Zn 0.22898 0.29273 0.41198 0.0
O464 O 0.22311 0.27518 0.38587 0.0
O465 O 0.22493 0.25863 0.4104 0.0
O466 O 0.22141 0.30414 0.39164 0.0
O467 O 0.22247 0.27479 0.47608 0.0
O468 O 0.22087 0.29157 0.45203 0.0
C469 C 0.22202 0.26273 0.38732 0.0
C470 C 0.2595 0.30209 0.426 0.0
O471 O 0.25079 0.30516 0.41347 0.0
O472 O 0.25477 0.28999 0.43855 0.0
C473 C 0.20771 0.29743 0.38883 0.0
O474 O 0.20021 0.28399 0.39796 0.0
C475 C 0.219 0.28456 0.47501 0.0
Zn476 Zn 0.71657 0.95189 0.43679 0.0
Zn477 Zn 0.69918 0.92882 0.40606 0.0
O478 O 0.71674 0.94135 0.38018 0.0
O479 O 0.73167 0.96039 0.40537 0.0
O480 O 0.68844 0.90986 0.38533 0.0
O481 O 0.71704 0.9402 0.47041 0.0
O482 O 0.70066 0.92179 0.44586 0.0
C483 C 0.72849 0.95348 0.38215 0.0
C484 C 0.68775 0.9481 0.42267 0.0
O485 O 0.68566 0.93706 0.40839 0.0
O486 O 0.69959 0.95566 0.4359 0.0
C487 C 0.69493 0.90259 0.38437 0.0
O488 O 0.708 0.90823 0.39533 0.0
C489 C 0.70762 0.92686 0.4689 0.0
Zn490 Zn 0.03663 0.76191 0.43176 0.0
Zn491 Zn 0.06081 0.76865 0.40415 0.0
O492 O 0.04895 0.77435 0.37782 0.0
O493 O 0.02962 0.77062 0.40154 0.0
O494 O 0.0804 0.77769 0.38559 0.0
O495 O 0.04687 0.7719 0.46826 0.0
O496 O 0.06628 0.77515 0.44566 0.0
C497 C 0.03709 0.77456 0.37898 0.0
C498 C 0.04086 0.73744 0.41427 0.0
O499 O 0.05268 0.74701 0.40303 0.0
O500 O 0.03262 0.74112 0.42677 0.0
C501 C 0.08781 0.79145 0.38625 0.0
O502 O 0.08206 0.79865 0.39778 0.0
C503 C 0.06022 0.77578 0.46851 0.0
C504 C 0.27068 0.94505 0.26044 0.0
C505 C 0.28186 0.94211 0.26674 0.0
C506 C 0.27378 0.95939 0.25736 0.0
C507 C 0.29757 0.9968 0.27382 0.0
H508 H 0.30293 0.00645 0.19361 0.0
C509 C 0.3298 0.0557 0.2335 0.0
C510 C 0.34297 0.05747 0.22315 0.0
C511 C 0.31775 0.0418 0.23644 0.0
C512 C 0.30108 0.00388 0.21602 0.0
H513 H 0.30466 0.95158 0.27677 0.0
H514 H 0.30992 0.97666 0.27268 0.0
H515 H 0.2894 0.98097 0.20842 0.0
H516 H 0.35367 0.04648 0.2056 0.0
H517 H 0.33241 0.02224 0.20951 0.0
H518 H 0.30996 0.01967 0.28145 0.0
C519 C 0.29887 0.96791 0.26974 0.0
C520 C 0.29336 0.98938 0.22447 0.0
C521 C 0.29589 0.95363 0.27199 0.0
C522 C 0.3436 0.04534 0.21357 0.0
C523 C 0.33146 0.03153 0.2157 0.0
C524 C 0.305 0.01131 0.26539 0.0
C525 C 0.28796 0.97086 0.26149 0.0
C526 C 0.29213 0.98577 0.25337 0.0
C527 C 0.31865 0.02962 0.22816 0.0
C528 C 0.30737 0.0149 0.23644 0.0
H529 H 0.25982 0.9363 0.25597 0.0
H530 H 0.26529 0.96152 0.25069 0.0
H531 H 0.29687 0.99417 0.29619 0.0
H532 H 0.32914 0.06492 0.2413 0.0
H533 H 0.30798 0.0405 0.24631 0.0
C534 C 0.03957 0.32941 0.29453 0.0
C535 C 0.0527 0.33017 0.28728 0.0
C536 C 0.02645 0.31664 0.29015 0.0
C537 C 0.01106 0.29055 0.23674 0.0
H538 H 0.97681 0.27495 0.28438 0.0
C539 C 0.95756 0.28583 0.20822 0.0
C540 C 0.94455 0.27421 0.21836 0.0
C541 C 0.97065 0.28617 0.21292 0.0
C542 C 0.98627 0.2788 0.27089 0.0
H543 H 0.0626 0.31807 0.27132 0.0
H544 H 0.03948 0.29581 0.26242 0.0
H545 H 0.00084 0.28797 0.30608 0.0
H546 H 0.93471 0.25338 0.23955 0.0
H547 H 0.95782 0.2543 0.24896 0.0
H548 H 0.99647 0.28285 0.20134 0.0
C549 C 0.03941 0.30499 0.27217 0.0
C550 C -1e-05 0.28629 0.28332 0.0
C551 C 0.05258 0.31768 0.27732 0.0
C552 C 0.94464 0.26237 0.23126 0.0
C553 C 0.95782 0.2629 0.23671 0.0
C554 C 0.99733 0.28329 0.22427 0.0
C555 C 0.02625 0.30454 0.27776 0.0
C556 C 0.01245 0.29283 0.26622 0.0
C557 C 0.97095 0.27509 0.22856 0.0
C558 C 0.98485 0.27802 0.24119 0.0
H559 H 0.03941 0.33893 0.30218 0.0
H560 H 0.01643 0.31661 0.2943 0.0
H561 H 0.02052 0.29561 0.22311 0.0
H562 H 0.95771 0.2951 0.1984 0.0
H563 H 0.98063 0.29578 0.20673 0.0
C564 C 0.71046 0.66008 0.27595 0.0
C565 C 0.71613 0.65657 0.25231 0.0
C566 C 0.7069 0.67098 0.27413 0.0
C567 C 0.69157 0.68423 0.22446 0.0
H568 H 0.69826 0.71299 0.28193 0.0
C569 C 0.65537 0.70939 0.22786 0.0
C570 C 0.65077 0.71093 0.25485 0.0
C571 C 0.6671 0.70712 0.22494 0.0
C572 C 0.69621 0.70496 0.26577 0.0
H573 H 0.72316 0.66204 0.20862 0.0
H574 H 0.71629 0.68082 0.20506 0.0
H575 H 0.71283 0.70111 0.28186 0.0
H576 H 0.65497 0.71193 0.29992 0.0
H577 H 0.67486 0.70689 0.2952 0.0
H578 H 0.67418 0.68687 0.20975 0.0
C579 C 0.71489 0.67527 0.22509 0.0
C580 C 0.70467 0.69831 0.26559 0.0
C581 C 0.71876 0.66455 0.22711 0.0
C582 C 0.65837 0.71072 0.27891 0.0
C583 C 0.66985 0.70798 0.27608 0.0
C584 C 0.68294 0.69063 0.22497 0.0
C585 C 0.7087 0.67837 0.24847 0.0
C586 C 0.70214 0.68763 0.24536 0.0
C587 C 0.67416 0.70582 0.24904 0.0
C588 C 0.68486 0.70079 0.24611 0.0
H589 H 0.70849 0.65419 0.29574 0.0
H590 H 0.70198 0.67306 0.29232 0.0
H591 H 0.68927 0.67585 0.20893 0.0
H592 H 0.64981 0.70985 0.20897 0.0
H593 H 0.67037 0.70602 0.20375 0.0
C594 C 0.66008 0.9467 0.76099 0.0
C595 C 0.64754 0.9415 0.74421 0.0
C596 C 0.6709 0.9613 0.75966 0.0
C597 C 0.68441 0.99392 0.76808 0.0
H598 H 0.69316 0.01595 0.69807 0.0
C599 C 0.69504 0.05161 0.76453 0.0
C600 C 0.70565 0.06187 0.74628 0.0
C601 C 0.69178 0.03724 0.76415 0.0
C602 C 0.69111 0.00996 0.71774 0.0
H603 H 0.63677 0.94741 0.71215 0.0
H604 H 0.65545 0.97274 0.71014 0.0
H605 H 0.68069 0.98951 0.69628 0.0
H606 H 0.72127 0.0651 0.7134 0.0
H607 H 0.71529 0.03967 0.71238 0.0
H608 H 0.69433 0.01434 0.78958 0.0
C609 C 0.65705 0.96557 0.72408 0.0
C610 C 0.68385 0.99484 0.71674 0.0
C611 C 0.64624 0.95107 0.72551 0.0
C612 C 0.713 0.05742 0.72765 0.0
C613 C 0.70961 0.04291 0.72708 0.0
C614 C 0.69164 0.00903 0.76907 0.0
C615 C 0.66942 0.9709 0.74134 0.0
C616 C 0.67988 0.98667 0.74196 0.0
C617 C 0.69898 0.03272 0.74541 0.0
C618 C 0.69447 0.01715 0.74398 0.0
H619 H 0.66143 0.93957 0.77548 0.0
H620 H 0.68035 0.96512 0.77315 0.0
H621 H 0.68149 0.98794 0.78787 0.0
H622 H 0.6892 0.05466 0.77923 0.0
H623 H 0.68332 0.02957 0.7781 0.0
C624 C 0.03763 0.7072 0.79503 0.0
C625 C 0.05075 0.71922 0.78647 0.0
C626 C 0.02456 0.70694 0.7905 0.0
C627 C 0.00936 0.71649 0.73473 0.0
H628 H 0.97485 0.69823 0.7817 0.0
C629 C 0.95632 0.66686 0.70673 0.0
C630 C 0.94317 0.66545 0.71603 0.0
C631 C 0.96931 0.67973 0.71138 0.0
C632 C 0.98438 0.70372 0.76835 0.0
H633 H 0.06074 0.74079 0.7683 0.0
H634 H 0.0377 0.74005 0.75921 0.0
H635 H -0.00125 0.70995 0.80403 0.0
H636 H 0.93302 0.67655 0.73558 0.0
H637 H 0.95593 0.69897 0.74484 0.0
H638 H 0.99499 0.70879 0.699 0.0
C639 C 0.0376 0.73103 0.77004 0.0
C640 C -0.00196 0.71037 0.78114 0.0
C641 C 0.05073 0.73145 0.77532 0.0
C642 C 0.94305 0.67748 0.72796 0.0
C643 C 0.95612 0.69025 0.73335 0.0
C644 C 0.99571 0.70961 0.72193 0.0
C645 C 0.0244 0.71854 0.77665 0.0
C646 C 0.01061 0.71614 0.76438 0.0
C647 C 0.96937 0.69124 0.72609 0.0
C648 C 0.98314 0.70253 0.73864 0.0
H649 H 0.03741 0.69765 0.80357 0.0
H650 H 0.01452 0.69711 0.7955 0.0
H651 H 0.0189 0.72076 0.72134 0.0
H652 H 0.95665 0.65769 0.69761 0.0
H653 H 0.97939 0.68015 0.70586 0.0
C654 C 0.34125 0.29523 0.71411 0.0
C655 C 0.34042 0.28225 0.7229 0.0
C656 C 0.32924 0.29709 0.71676 0.0
C657 C 0.30282 0.29007 0.76757 0.0
H658 H 0.28838 0.3075 0.71403 0.0
C659 C 0.29541 0.33904 0.78495 0.0
C660 C 0.28213 0.33786 0.77749 0.0
C661 C 0.29768 0.32736 0.78086 0.0
C662 C 0.29201 0.30231 0.72911 0.0
H663 H 0.32628 0.26076 0.7399 0.0
H664 H 0.30537 0.26432 0.74574 0.0
H665 H 0.30138 0.29546 0.69656 0.0
H666 H 0.26059 0.32356 0.76096 0.0
H667 H 0.26486 0.30321 0.75248 0.0
H668 H 0.29489 0.29835 0.80023 0.0
C669 C 0.31521 0.27284 0.73614 0.0
C670 C 0.29944 0.29548 0.71914 0.0
C671 C 0.32712 0.27082 0.73271 0.0
C672 C 0.27086 0.3246 0.76719 0.0
C673 C 0.27329 0.31303 0.76227 0.0
C674 C 0.29569 0.29719 0.77756 0.0
C675 C 0.31634 0.28615 0.72893 0.0
C676 C 0.30533 0.28976 0.73837 0.0
C677 C 0.28683 0.31448 0.76852 0.0
C678 C 0.29068 0.30377 0.7584 0.0
H679 H 0.35141 0.3042 0.70656 0.0
H680 H 0.3304 0.30751 0.71136 0.0
H681 H 0.30746 0.28589 0.78278 0.0
H682 H 0.30425 0.3492 0.79277 0.0
H683 H 0.30826 0.32873 0.7855 0.0
C684 C 0.00228 0.38854 0.56981 0.0
C685 C 0.01191 0.39347 0.5929 0.0
C686 C 0.99072 0.37427 0.56921 0.0
C687 C 0.96841 0.34199 0.61309 0.0
H688 H 0.97061 0.32042 0.54895 0.0
C689 C 0.94987 0.28136 0.619 0.0
C690 C 0.94646 0.27335 0.59382 0.0
C691 C 0.95378 0.29599 0.61819 0.0
C692 C 0.96942 0.3262 0.5667 0.0
H693 H 0.01656 0.38766 0.63414 0.0
H694 H 0.99634 0.36285 0.63316 0.0
H695 H 0.98476 0.34664 0.54865 0.0
H696 H 0.94306 0.27357 0.54861 0.0
H697 H 0.94894 0.2988 0.54729 0.0
H698 H 0.95323 0.32155 0.63141 0.0
C699 C 0.99774 0.36997 0.61553 0.0
C700 C 0.97763 0.34128 0.56649 0.0
C701 C 0.0094 0.38411 0.61591 0.0
C702 C 0.94585 0.27971 0.56822 0.0
C703 C 0.94934 0.29417 0.5675 0.0
C704 C 0.95998 0.32687 0.61312 0.0
C705 C 0.98846 0.36484 0.59197 0.0
C706 C 0.97758 0.34927 0.59007 0.0
C707 C 0.95402 0.30271 0.59223 0.0
C708 C 0.96079 0.31875 0.59034 0.0
H709 H 0.00394 0.39556 0.55184 0.0
H710 H 0.9837 0.37051 0.55079 0.0
H711 H 0.96813 0.34798 0.63144 0.0
H712 H 0.95045 0.27659 0.63892 0.0
H713 H 0.95745 0.30219 0.63765 0.0
C714 C 0.61518 0.62575 0.60862 0.0
C715 C 0.60536 0.61642 0.58817 0.0
C716 C 0.62953 0.62894 0.60848 0.0
C717 C 0.65747 0.63336 0.55997 0.0
H718 H 0.67924 0.64081 0.62998 0.0
C719 C 0.71431 0.68127 0.57319 0.0
C720 C 0.72455 0.6801 0.59007 0.0
C721 C 0.70021 0.66967 0.57083 0.0
C722 C 0.67336 0.63851 0.61014 0.0
H723 H 0.60275 0.60275 0.55197 0.0
H724 H 0.6282 0.60867 0.55131 0.0
H725 H 0.65288 0.62604 0.6309 0.0
H726 H 0.72807 0.66573 0.61736 0.0
H727 H 0.70324 0.64543 0.61346 0.0
H728 H 0.67791 0.64637 0.5394 0.0
C729 C 0.62463 0.61338 0.56755 0.0
C730 C 0.65827 0.63014 0.61071 0.0
C731 C 0.61012 0.61003 0.56791 0.0
C732 C 0.7204 0.667 0.60434 0.0
C733 C 0.70622 0.65537 0.60206 0.0
C734 C 0.67257 0.64173 0.5594 0.0
C735 C 0.63447 0.62296 0.58775 0.0
C736 C 0.65017 0.62813 0.58588 0.0
C737 C 0.69598 0.65662 0.58531 0.0
C738 C 0.68059 0.64499 0.58471 0.0
H739 H 0.61183 0.63075 0.6247 0.0
H740 H 0.6369 0.63657 0.62398 0.0
H741 H 0.6515 0.63198 0.54051 0.0
H742 H 0.71715 0.69118 0.56183 0.0
H743 H 0.6925 0.67109 0.55827 0.0
C744 C 0.33875 0.06033 0.60008 0.0
C745 C 0.32577 0.04877 0.61072 0.0
C746 C 0.35088 0.05869 0.59617 0.0
C747 C 0.36738 0.03639 0.61181 0.0
H748 H 0.37067 0.03355 0.5303 0.0
C749 C 0.39311 0.0051 0.56301 0.0
C750 C 0.38156 0.99242 0.55141 0.0
C751 C 0.39156 0.0172 0.56805 0.0
C752 C 0.37024 0.0347 0.55307 0.0
H753 H 0.31558 0.02706 0.62812 0.0
H754 H 0.33695 0.02443 0.62252 0.0
H755 H 0.35859 0.04618 0.54924 0.0
H756 H 0.35994 0.98272 0.53376 0.0
H757 H 0.3575 0.0041 0.54125 0.0
H758 H 0.37823 0.02411 0.61557 0.0
C759 C 0.33773 0.03466 0.61686 0.0
C760 C 0.36339 0.04194 0.56392 0.0
C761 C 0.32551 0.03613 0.62 0.0
C762 C 0.369 0.99243 0.54256 0.0
C763 C 0.36763 0.00465 0.54679 0.0
C764 C 0.37452 0.02943 0.60097 0.0
C765 C 0.35027 0.04564 0.60369 0.0
C766 C 0.36127 0.04219 0.59331 0.0
C767 C 0.37863 0.01688 0.56067 0.0
C768 C 0.37534 0.02791 0.57152 0.0
H769 H 0.33912 0.07011 0.59247 0.0
H770 H 0.36041 0.06724 0.5858 0.0
H771 H 0.36578 0.03639 0.63452 0.0
H772 H 0.40281 0.00523 0.57035 0.0
H773 H 0.4001 0.0265 0.57899 0.0
C774 C 0.39777 0.38591 0.07856 0.0
C775 C 0.38637 0.38737 0.06721 0.0
C776 C 0.3961 0.37213 0.08231 0.0
C777 C 0.37852 0.34238 0.11309 0.0
H778 H 0.36195 0.31053 0.05941 0.0
C779 C 0.32779 0.28771 0.12861 0.0
C780 C 0.32751 0.2751 0.11911 0.0
C781 C 0.34042 0.30114 0.12607 0.0
C782 C 0.36692 0.31932 0.07462 0.0
H783 H 0.36494 0.37599 0.04863 0.0
H784 H 0.36228 0.35196 0.05392 0.0
H785 H 0.37499 0.33553 0.04196 0.0
H786 H 0.34027 0.26639 0.10099 0.0
H787 H 0.36228 0.29011 0.09532 0.0
H788 H 0.36898 0.32622 0.14566 0.0
C789 C 0.3724 0.36137 0.06021 0.0
C790 C 0.37433 0.33357 0.06463 0.0
C791 C 0.37388 0.37507 0.05726 0.0
C792 C 0.3403 0.27598 0.10871 0.0
C793 C 0.35285 0.28949 0.1054 0.0
C794 C 0.37084 0.32814 0.12306 0.0
C795 C 0.38321 0.35975 0.0739 0.0
C796 C 0.37963 0.34519 0.08379 0.0
C797 C 0.35284 0.30219 0.1133 0.0
C798 C 0.36446 0.31655 0.10385 0.0
H799 H 0.40742 0.39528 0.0867 0.0
H800 H 0.40449 0.37107 0.09314 0.0
H801 H 0.38238 0.3512 0.12823 0.0
H802 H 0.31804 0.28727 0.13663 0.0
H803 H 0.34012 0.31081 0.13199 0.0
C804 C 0.61093 0.0156 0.06631 0.0
C805 C 0.6107 0.00343 0.05423 0.0
C806 C 0.62414 0.02838 0.07065 0.0
C807 C 0.66351 0.04721 0.05612 0.0
H808 H 0.66806 0.04799 0.13791 0.0
C809 C 0.71913 0.06685 0.10491 0.0
C810 C 0.71859 0.05432 0.11583 0.0
C811 C 0.7063 0.06724 0.10089 0.0
C812 C 0.66695 0.04831 0.1151 0.0
H813 H 0.62365 0.99539 0.0345 0.0
H814 H 0.64663 0.01782 0.04096 0.0
H815 H 0.64378 0.03675 0.11737 0.0
H816 H 0.7047 0.03307 0.13383 0.0
H817 H 0.68241 0.03395 0.12796 0.0
H818 H 0.68665 0.05768 0.05382 0.0
C819 C 0.63671 0.01753 0.04737 0.0
C820 C 0.65307 0.04194 0.10332 0.0
C821 C 0.62359 0.00467 0.04376 0.0
C822 C 0.70535 0.04285 0.12545 0.0
C823 C 0.69262 0.0434 0.12219 0.0
C824 C 0.6774 0.05381 0.06792 0.0
C825 C 0.63719 0.02921 0.0622 0.0
C826 C 0.65125 0.04051 0.07373 0.0
C827 C 0.6929 0.05527 0.10855 0.0
C828 C 0.67916 0.05355 0.09743 0.0
H829 H 0.6011 0.01481 0.0748 0.0
H830 H 0.62427 0.03722 0.08225 0.0
H831 H 0.66235 0.04622 0.03325 0.0
H832 H 0.72924 0.07578 0.09708 0.0
H833 H 0.70675 0.07646 0.09019 0.0
C834 C 0.97017 0.68401 0.0739 0.0
C835 C 0.95834 0.68244 0.08991 0.0
C836 C 0.97368 0.67305 0.07356 0.0
C837 C 0.97452 0.64544 0.0651 0.0
H838 H 0.9801 0.6321 0.13804 0.0
C839 C 0.00432 0.613 0.07522 0.0
C840 C 0.01584 0.61938 0.09471 0.0
C841 C 0.99359 0.61692 0.07509 0.0
C842 C 0.97843 0.63559 0.1175 0.0
H843 H 0.94086 0.6681 0.11807 0.0
H844 H 0.9472 0.64895 0.11777 0.0
H845 H 0.96812 0.64653 0.13578 0.0
H846 H 0.02477 0.63433 0.13015 0.0
H847 H 0.00622 0.64118 0.12976 0.0
H848 H 0.98563 0.63529 0.04698 0.0
C849 C 0.95367 0.65869 0.10542 0.0
C850 C 0.97148 0.64375 0.11618 0.0
C851 C 0.95007 0.66964 0.1056 0.0
C852 C 0.01612 0.6293 0.11469 0.0
C853 C 0.00537 0.6331 0.11472 0.0
C854 C 0.98143 0.63725 0.0664 0.0
C855 C 0.96549 0.6603 0.08931 0.0
C856 C 0.97003 0.64925 0.09009 0.0
C857 C 0.99412 0.62713 0.09468 0.0
C858 C 0.98398 0.63278 0.09274 0.0
H859 H 0.97675 0.6937 0.06151 0.0
H860 H 0.98304 0.67472 0.06141 0.0
H861 H 0.97332 0.64937 0.04465 0.0
H862 H 0.00379 0.60526 0.05966 0.0
H863 H 0.98501 0.61215 0.05945 0.0
C864 C 0.61284 0.61159 0.93617 0.0
C865 C 0.62266 0.60706 0.92796 0.0
C866 C 0.61568 0.62561 0.92969 0.0
C867 C 0.6373 0.65558 0.88013 0.0
H868 H 0.63781 0.68118 0.93917 0.0
C869 C 0.6799 0.71456 0.88973 0.0
C870 C 0.67599 0.72493 0.89683 0.0
C871 C 0.66938 0.69998 0.88796 0.0
C872 C 0.63732 0.67406 0.92224 0.0
H873 H 0.64341 0.61386 0.90764 0.0
H874 H 0.64835 0.63812 0.89674 0.0
H875 H 0.62658 0.65515 0.94856 0.0
H876 H 0.65809 0.7284 0.90687 0.0
H877 H 0.63958 0.70253 0.90483 0.0
H878 H 0.64903 0.6746 0.8546 0.0
C879 C 0.63831 0.6308 0.90752 0.0
C880 C 0.63094 0.6592 0.92763 0.0
C881 C 0.63554 0.61692 0.91405 0.0
C882 C 0.66131 0.72055 0.90119 0.0
C883 C 0.65077 0.70584 0.90011 0.0
C884 C 0.64373 0.67039 0.87483 0.0
C885 C 0.62831 0.6352 0.91474 0.0
C886 C 0.63158 0.64999 0.90709 0.0
C887 C 0.6548 0.69546 0.89381 0.0
C888 C 0.64441 0.67981 0.89631 0.0
H889 H 0.6028 0.60421 0.94687 0.0
H890 H 0.60788 0.62882 0.93571 0.0
H891 H 0.63763 0.64862 0.86371 0.0
H892 H 0.69116 0.71771 0.88622 0.0
H893 H 0.67277 0.69214 0.88343 0.0
C894 C 0.3824 0.99406 0.92122 0.0
C895 C 0.38542 0.0082 0.9276 0.0
C896 C 0.36804 0.9828 0.9186 0.0
C897 C 0.33118 0.96846 0.93786 0.0
H898 H 0.31923 0.96463 0.85901 0.0
C899 C 0.27108 0.94026 0.90369 0.0
C900 C 0.26859 0.95141 0.8947 0.0
C901 C 0.28524 0.94266 0.90501 0.0
C902 C 0.32246 0.96524 0.88101 0.0
H903 H 0.37598 0.02152 0.93812 0.0
H904 H 0.35088 0.00168 0.93462 0.0
H905 H 0.34512 0.97727 0.87092 0.0
H906 H 0.27852 0.97326 0.87808 0.0
H907 H 0.30319 0.97721 0.87912 0.0
H908 H 0.30853 0.95717 0.94807 0.0
C909 C 0.35962 -0.00059 0.93126 0.0
C910 C 0.33719 0.97242 0.88779 0.0
C911 C 0.37392 0.01071 0.93316 0.0
C912 C 0.28023 0.96452 0.885 0.0
C913 C 0.29428 0.96675 0.88549 0.0
C914 C 0.31644 0.961 0.93105 0.0
C915 C 0.35661 0.98551 0.9232 0.0
C916 C 0.34159 0.97459 0.91628 0.0
C917 C 0.29694 0.95604 0.89644 0.0
C918 C 0.31201 0.95992 0.90265 0.0
H919 H 0.39111 0.9919 0.91658 0.0
H920 H 0.36586 0.97213 0.9121 0.0
H921 H 0.33442 0.97022 0.95996 0.0
H922 H 0.26222 0.93012 0.91155 0.0
H923 H 0.28713 0.93434 0.91374 0.0
C924 C 0.03928 0.3262 0.93562 0.0
C925 C 0.04608 0.3232 0.91321 0.0
C926 C 0.03711 0.33804 0.93414 0.0
C927 C 0.02828 0.35687 0.88333 0.0
H928 H 0.03313 0.38258 0.9459 0.0
C929 C 0.99585 0.38598 0.88385 0.0
C930 C 0.98935 0.38576 0.90985 0.0
C931 C 0.00736 0.38327 0.8828 0.0
C932 C 0.03164 0.37545 0.92826 0.0
H933 H 0.05643 0.33045 0.87215 0.0
H934 H 0.05204 0.35096 0.86905 0.0
H935 H 0.04535 0.36834 0.9471 0.0
H936 H 0.99005 0.38334 0.95528 0.0
H937 H 0.00952 0.3776 0.95353 0.0
H938 H 0.01361 0.36273 0.86552 0.0
C939 C 0.04865 0.34424 0.88791 0.0
C940 C 0.03876 0.36744 0.92885 0.0
C941 C 0.05111 0.33253 0.88965 0.0
C942 C 0.99496 0.38355 0.93501 0.0
C943 C 0.00621 0.38039 0.93392 0.0
C944 C 0.02096 0.36464 0.88296 0.0
C945 C 0.04148 0.34696 0.91003 0.0
C946 C 0.03676 0.35776 0.90679 0.0
C947 C 0.01224 0.37975 0.90766 0.0
C948 C 0.02215 0.37368 0.90586 0.0
H949 H 0.03544 0.31927 0.95418 0.0
H950 H 0.03137 0.33979 0.95129 0.0
H951 H 0.02643 0.34932 0.86624 0.0
H952 H 0.9918 0.38792 0.86422 0.0
H953 H 0.01202 0.38337 0.86231 0.0
C954 C 0.02509 0.71191 0.43033 0.0
C955 C 0.03698 0.72205 0.41425 0.0
C956 C 0.02159 0.69746 0.43132 0.0
C957 C 0.02088 0.66916 0.4415 0.0
H958 H 0.01565 0.64947 0.36957 0.0
C959 C 0.9922 0.6068 0.43385 0.0
C960 C 0.98073 0.60122 0.41421 0.0
C961 C 0.00262 0.62156 0.43365 0.0
C962 C 0.01722 0.65486 0.38984 0.0
H963 H 0.05455 0.72495 0.3866 0.0
H964 H 0.04822 0.69947 0.38803 0.0
H965 H 0.02737 0.67588 0.37062 0.0
H966 H 0.97152 0.60659 0.37829 0.0
H967 H 0.98954 0.63217 0.3781 0.0
H968 H 0.00996 0.64811 0.46053 0.0
C969 C 0.0417 0.70283 0.39994 0.0
C970 C 0.02402 0.66996 0.39046 0.0
C971 C 0.04529 0.71738 0.39911 0.0
C972 C 0.98015 0.61055 0.39385 0.0
C973 C 0.99059 0.6252 0.3935 0.0
C974 C 0.01413 0.65407 0.44089 0.0
C975 C 0.02984 0.69276 0.41617 0.0
C976 C 0.02537 0.67719 0.41617 0.0
C977 C 0.00182 0.6309 0.41359 0.0
C978 C 0.01172 0.64676 0.41491 0.0
H979 H 0.01848 0.71513 0.44231 0.0
H980 H 0.01221 0.68988 0.44354 0.0
H981 H 0.022 0.67452 0.46166 0.0
H982 H 0.99295 0.59984 0.44971 0.0
H983 H 0.01119 0.6257 0.44936 0.0
C984 C 0.28439 0.31036 0.44445 0.0
C985 C 0.27519 0.31271 0.42662 0.0
C986 C 0.29922 0.32023 0.44512 0.0
C987 C 0.3292 0.34632 0.45239 0.0
H988 H 0.34894 0.35628 0.37968 0.0
C989 C 0.39181 0.37796 0.44212 0.0
C990 C 0.39712 0.37111 0.42418 0.0
C991 C 0.37703 0.37352 0.44233 0.0
C992 C 0.34355 0.35369 0.40013 0.0
H993 H 0.27432 0.32739 0.39577 0.0
H994 H 0.30042 0.3446 0.39669 0.0
H995 H 0.32248 0.34352 0.38119 0.0
H996 H 0.39116 0.35448 0.39201 0.0
H997 H 0.3655 0.34679 0.39244 0.0
H998 H 0.35028 0.35589 0.47129 0.0
C999 C 0.29605 0.3351 0.41017 0.0
C1000 C 0.32844 0.34651 0.401 0.0
C1001 C 0.28114 0.32526 0.40967 0.0
C1002 C 0.38742 0.35994 0.40618 0.0
C1003 C 0.37274 0.35562 0.40619 0.0
C1004 C 0.34433 0.35358 0.45153 0.0
C1005 C 0.30522 0.33263 0.42785 0.0
C1006 C 0.32112 0.34234 0.42712 0.0
C1007 C 0.36738 0.36231 0.42433 0.0
C1008 C 0.35161 0.3569 0.42536 0.0
H1009 H 0.28015 0.30084 0.45788 0.0
H1010 H 0.30606 0.31793 0.45861 0.0
H1011 H 0.32381 0.34337 0.47282 0.0
H1012 H 0.39902 0.38663 0.45618 0.0
H1013 H 0.37314 0.37885 0.4565 0.0
C1014 C 0.66401 0.94558 0.40717 0.0
C1015 C 0.67634 0.95208 0.4247 0.0
C1016 C 0.65357 0.94986 0.40887 0.0
C1017 C 0.64108 0.97014 0.45395 0.0
H1018 H 0.63302 0.98259 0.38234 0.0
C1019 C 0.61467 0.00631 0.44658 0.0
C1020 C 0.62283 0.01864 0.42958 0.0
C1021 C 0.61746 0.99478 0.44601 0.0
C1022 C 0.63503 0.97901 0.40248 0.0
H1023 H 0.68707 0.96773 0.4585 0.0
H1024 H 0.66904 0.97522 0.46122 0.0
H1025 H 0.64467 0.96787 0.38243 0.0
H1026 H 0.64018 0.02845 0.39845 0.0
H1027 H 0.64501 0.00852 0.3976 0.0
H1028 H 0.6323 0.98211 0.47399 0.0
C1029 C 0.66732 0.96674 0.44636 0.0
C1030 C 0.64157 0.97047 0.40253 0.0
C1031 C 0.67777 0.96257 0.44452 0.0
C1032 C 0.63371 0.01916 0.41191 0.0
C1033 C 0.63638 0.00764 0.41113 0.0
C1034 C 0.63451 0.97865 0.45389 0.0
C1035 C 0.6552 0.96058 0.42836 0.0
C1036 C 0.64525 0.96651 0.42829 0.0
C1037 C 0.6283 0.99534 0.42812 0.0
C1038 C 0.63204 0.98371 0.42816 0.0
H1039 H 0.66257 0.9374 0.39179 0.0
H1040 H 0.64431 0.94493 0.39475 0.0
H1041 H 0.64362 0.96703 0.47411 0.0
H1042 H 0.60618 0.00558 0.46035 0.0
H1043 H 0.61113 0.98542 0.4594 0.0
C1044 C 0.29435 0.0575 0.4854 0.0
C1045 C 0.29645 0.06595 0.50976 0.0
C1046 C 0.30286 0.06365 0.46119 0.0
C1047 C 0.33007 0.09837 0.42697 0.0
H1048 H 0.34477 0.07424 0.3973 0.0
C1049 C 0.37633 0.09931 0.34555 0.0
C1050 C 0.37385 0.10555 0.32146 0.0
C1051 C 0.3681 0.09691 0.37019 0.0
C1052 C 0.34096 0.08124 0.40555 0.0
H1053 H 0.30818 0.08783 0.52667 0.0
H1054 H 0.32306 0.09847 0.48464 0.0
H1055 H 0.3266 0.06493 0.43451 0.0
H1056 H 0.36179 0.11555 0.30554 0.0
H1057 H 0.3474 0.11124 0.34828 0.0
H1058 H 0.34474 0.11479 0.39818 0.0
C1059 C 0.31486 0.08709 0.48417 0.0
C1060 C 0.33029 0.07577 0.42656 0.0
C1061 C 0.30629 0.08096 0.50835 0.0
C1062 C 0.36396 0.11064 0.32361 0.0
C1063 C 0.35568 0.10817 0.34821 0.0
C1064 C 0.34079 0.10386 0.40585 0.0
C1065 C 0.3137 0.07838 0.4608 0.0
C1066 C 0.32464 0.08421 0.4375 0.0
C1067 C 0.35716 0.10065 0.37129 0.0
C1068 C 0.34639 0.09535 0.3949 0.0
H1069 H 0.28678 0.04594 0.4856 0.0
H1070 H 0.3014 0.0567 0.44322 0.0
H1071 H 0.32595 0.10517 0.43488 0.0
H1072 H 0.38395 0.09539 0.34479 0.0
H1073 H 0.36982 0.09147 0.38792 0.0
C1074 C 0.92929 0.22125 0.4859 0.0
C1075 C 0.92222 0.21887 0.51224 0.0
C1076 C 0.92306 0.22309 0.46123 0.0
C1077 C 0.9055 0.2232 0.40986 0.0
H1078 H 0.89261 0.25105 0.42159 0.0
C1079 C 0.88855 0.24591 0.31576 0.0
C1080 C 0.8958 0.26117 0.31464 0.0
C1081 C 0.88851 0.23876 0.3407 0.0
C1082 C 0.89609 0.24321 0.41798 0.0
H1083 H 0.90234 0.21513 0.53264 0.0
H1084 H 0.89152 0.2183 0.48965 0.0
H1085 H 0.89862 0.24094 0.46243 0.0
H1086 H 0.90763 0.28075 0.3397 0.0
H1087 H 0.90735 0.26825 0.38325 0.0
H1088 H 0.90345 0.22586 0.36535 0.0
C1089 C 0.90201 0.219 0.4882 0.0
C1090 C 0.89941 0.23731 0.44137 0.0
C1091 C 0.90818 0.21706 0.51281 0.0
C1092 C 0.90195 0.26901 0.33974 0.0
C1093 C 0.90179 0.26183 0.36476 0.0
C1094 C 0.90204 0.229 0.38646 0.0
C1095 C 0.90964 0.22264 0.46237 0.0
C1096 C 0.90442 0.22744 0.43758 0.0
C1097 C 0.89555 0.24666 0.3652 0.0
C1098 C 0.89757 0.23929 0.39022 0.0
H1099 H 0.9401 0.2227 0.4846 0.0
H1100 H 0.92923 0.22588 0.44168 0.0
H1101 H 0.90927 0.21559 0.40623 0.0
H1102 H 0.88365 0.23949 0.29691 0.0
H1103 H 0.88339 0.22704 0.34051 0.0
C1104 C 0.7876 0.69671 0.52087 0.0
C1105 C 0.78358 0.70741 0.51838 0.0
C1106 C 0.78687 0.68828 0.49743 0.0
C1107 C 0.78092 0.68412 0.41883 0.0
H1108 H 0.76128 0.64307 0.43661 0.0
C1109 C 0.74005 0.62737 0.35943 0.0
C1110 C 0.74634 0.63041 0.33222 0.0
C1111 C 0.74757 0.63614 0.38263 0.0
C1112 C 0.76678 0.65448 0.43122 0.0
H1113 H 0.77688 0.71843 0.48853 0.0
H1114 H 0.77554 0.70376 0.44787 0.0
H1115 H 0.76956 0.66075 0.4749 0.0
H1116 H 0.76607 0.6443 0.30877 0.0
H1117 H 0.77927 0.65934 0.34931 0.0
H1118 H 0.7774 0.67781 0.37515 0.0
C1119 C 0.7793 0.70186 0.46788 0.0
C1120 C 0.77172 0.66467 0.45324 0.0
C1121 C 0.78008 0.71032 0.49131 0.0
C1122 C 0.76082 0.64167 0.32935 0.0
C1123 C 0.76835 0.65042 0.35257 0.0
C1124 C 0.77596 0.67392 0.39681 0.0
C1125 C 0.78209 0.69032 0.4709 0.0
C1126 C 0.77859 0.67964 0.44738 0.0
C1127 C 0.76161 0.64814 0.37927 0.0
C1128 C 0.76854 0.65894 0.40269 0.0
H1129 H 0.79045 0.69421 0.54133 0.0
H1130 H 0.78946 0.67975 0.50042 0.0
H1131 H 0.7863 0.69553 0.41345 0.0
H1132 H 0.72893 0.61882 0.36252 0.0
H1133 H 0.74197 0.63404 0.40278 0.0
C1134 C 0.09523 0.36624 0.16845 0.0
C1135 C 0.10194 0.36425 0.19235 0.0
C1136 C 0.09376 0.35864 0.14333 0.0
C1137 C 0.08044 0.33156 0.10733 0.0
H1138 H 0.10837 0.32319 0.07209 0.0
C1139 C 0.0617 0.28753 0.02286 0.0
C1140 C 0.0694 0.2921 0.99712 0.0
C1141 C 0.06755 0.29549 0.04776 0.0
C1142 C 0.10046 0.32542 0.08177 0.0
H1143 H 0.11372 0.3538 0.20746 0.0
H1144 H 0.1112 0.34062 0.16354 0.0
H1145 H 0.11597 0.34072 0.11124 0.0
H1146 H 0.08999 0.3077 0.97823 0.0
H1147 H 0.10016 0.32151 0.02171 0.0
H1148 H 0.06494 0.31645 0.07807 0.0
C1149 C 0.10698 0.34799 0.16433 0.0
C1150 C 0.1048 0.33542 0.10419 0.0
C1151 C 0.10842 0.35557 0.18954 0.0
C1152 C 0.0837 0.3039 0.9976 0.0
C1153 C 0.08956 0.31185 0.02257 0.0
C1154 C 0.07609 0.32152 0.08524 0.0
C1155 C 0.09903 0.34891 0.14143 0.0
C1156 C 0.09484 0.33868 0.11707 0.0
C1157 C 0.08125 0.30815 0.04757 0.0
C1158 C 0.08601 0.31831 0.07214 0.0
H1159 H 0.09022 0.37292 0.16969 0.0
H1160 H 0.08788 0.35986 0.12579 0.0
H1161 H 0.07241 0.3336 0.11708 0.0
H1162 H 0.05073 0.27843 0.02341 0.0
H1163 H 0.06102 0.29215 0.06688 0.0
C1164 C 0.63204 0.75108 0.18209 0.0
C1165 C 0.62058 0.7366 0.1814 0.0
C1166 C 0.64053 0.75754 0.1579 0.0
C1167 C 0.65298 0.74605 0.09642 0.0
H1168 H 0.67022 0.78593 0.07099 0.0
C1169 C 0.68848 0.78056 0.99479 0.0
C1170 C 0.69863 0.77575 0.99392 0.0
C1171 C 0.67978 0.77811 0.01884 0.0
C1172 C 0.66548 0.77478 0.0779 0.0
H1173 H 0.60822 0.71813 0.15375 0.0
H1174 H 0.62296 0.72942 0.11172 0.0
H1175 H 0.65178 0.77696 0.10869 0.0
H1176 H 0.70837 0.76569 0.01877 0.0
H1177 H 0.69325 0.76147 0.06054 0.0
H1178 H 0.66666 0.7438 0.06604 0.0
C1179 C 0.62552 0.73568 0.13113 0.0
C1180 C 0.65496 0.76965 0.09948 0.0
C1181 C 0.61698 0.72926 0.15522 0.0
C1182 C 0.70066 0.7695 0.01854 0.0
C1183 C 0.69189 0.76695 0.04244 0.0
C1184 C 0.66359 0.75121 0.07525 0.0
C1185 C 0.63779 0.74964 0.13254 0.0
C1186 C 0.64853 0.75519 0.10887 0.0
C1187 C 0.68097 0.7707 0.04246 0.0
C1188 C 0.67001 0.76562 0.06572 0.0
H1189 H 0.63512 0.75709 0.20183 0.0
H1190 H 0.64986 0.76833 0.15968 0.0
H1191 H 0.64844 0.73493 0.10344 0.0
H1192 H 0.68662 0.78543 0.97626 0.0
H1193 H 0.67149 0.78116 0.01819 0.0
C1194 C 0.23707 0.88475 0.17991 0.0
C1195 C 0.25163 0.88817 0.17753 0.0
C1196 C 0.22981 0.88625 0.15659 0.0
C1197 C 0.23133 0.89192 0.07869 0.0
H1198 H 0.21497 0.91639 0.09629 0.0
C1199 C 0.22224 0.9362 0.01609 0.0
C1200 C 0.21656 0.92877 0.99041 0.0
C1201 C 0.22282 0.9288 0.04015 0.0
C1202 C 0.2194 0.90948 0.09106 0.0
H1203 H 0.26944 0.89447 0.148 0.0
H1204 H 0.25671 0.89691 0.10732 0.0
H1205 H 0.22313 0.90681 0.13471 0.0
H1206 H 0.20577 0.90746 0.97079 0.0
H1207 H 0.20676 0.89462 0.01275 0.0
H1208 H 0.22813 0.89506 0.03501 0.0
C1209 C 0.25095 0.89318 0.12728 0.0
C1210 C 0.22396 0.90387 0.11306 0.0
C1211 C 0.25826 0.89179 0.15065 0.0
C1212 C 0.21034 0.91358 0.9901 0.0
C1213 C 0.211 0.90621 0.01409 0.0
C1214 C 0.22666 0.89742 0.05671 0.0
C1215 C 0.23687 0.89104 0.13031 0.0
C1216 C 0.23027 0.89529 0.1071 0.0
C1217 C 0.21776 0.91382 0.03903 0.0
C1218 C 0.22092 0.90652 0.06261 0.0
H1219 H 0.23157 0.88185 0.20023 0.0
H1220 H 0.21887 0.88427 0.15945 0.0
H1221 H 0.23609 0.88529 0.07343 0.0
H1222 H 0.22711 0.94788 0.01713 0.0
H1223 H 0.22812 0.93499 0.05903 0.0
C1224 C 0.61845 0.88454 0.64791 0.0
C1225 C 0.62133 0.88102 0.67499 0.0
C1226 C 0.62726 0.88581 0.6248 0.0
C1227 C 0.65642 0.90239 0.59516 0.0
H1228 H 0.67083 0.87744 0.56866 0.0
C1229 C 0.70526 0.92513 0.5218 0.0
C1230 C 0.70194 0.91815 0.49527 0.0
C1231 C 0.69648 0.91832 0.54539 0.0
C1232 C 0.66692 0.88451 0.57603 0.0
H1233 H 0.63456 0.87424 0.69812 0.0
H1234 H 0.64974 0.87621 0.65754 0.0
H1235 H 0.65138 0.86845 0.60456 0.0
H1236 H 0.68792 0.89784 0.4737 0.0
H1237 H 0.67277 0.88592 0.51511 0.0
H1238 H 0.67194 0.91851 0.56726 0.0
C1239 C 0.64082 0.87821 0.65437 0.0
C1240 C 0.65581 0.87937 0.59644 0.0
C1241 C 0.6321 0.87709 0.67762 0.0
C1242 C 0.69073 0.90358 0.49376 0.0
C1243 C 0.68203 0.89672 0.51748 0.0
C1244 C 0.66763 0.90759 0.57533 0.0
C1245 C 0.63897 0.88336 0.62817 0.0
C1246 C 0.65037 0.88825 0.60596 0.0
C1247 C 0.68434 0.90434 0.54305 0.0
C1248 C 0.67301 0.89873 0.56548 0.0
H1249 H 0.61022 0.88757 0.645 0.0
H1250 H 0.62547 0.88958 0.60467 0.0
H1251 H 0.6526 0.90956 0.60242 0.0
H1252 H 0.71384 0.9363 0.52385 0.0
H1253 H 0.69862 0.92435 0.56502 0.0
C1254 C 0.05997 0.77433 0.52167 0.0
C1255 C 0.06774 0.77741 0.49602 0.0
C1256 C 0.0654 0.7715 0.5464 0.0
C1257 C 0.07258 0.75275 0.58338 0.0
H1258 H 0.11256 0.77113 0.60856 0.0
C1259 C 0.0899 0.72431 0.6641 0.0
C1260 C 0.09743 0.73268 0.68787 0.0
C1261 C 0.08852 0.73094 0.63959 0.0
C1262 C 0.10135 0.7659 0.60176 0.0
H1263 H 0.08806 0.78152 0.47717 0.0
H1264 H 0.09749 0.77663 0.52028 0.0
H1265 H 0.10576 0.7822 0.57029 0.0
H1266 H 0.11059 0.75471 0.70335 0.0
H1267 H 0.10822 0.76622 0.66053 0.0
H1268 H 0.06808 0.7365 0.61464 0.0
C1269 C 0.08716 0.77628 0.52125 0.0
C1270 C 0.09747 0.77221 0.57982 0.0
C1271 C 0.08172 0.77909 0.49647 0.0
C1272 C 0.10467 0.7479 0.68551 0.0
C1273 C 0.10331 0.75453 0.66093 0.0
C1274 C 0.07646 0.74641 0.60503 0.0
C1275 C 0.07874 0.77175 0.54612 0.0
C1276 C 0.083 0.76571 0.57042 0.0
C1277 C 0.09468 0.74609 0.63819 0.0
C1278 C 0.0909 0.75284 0.61445 0.0
H1279 H 0.04923 0.77305 0.52224 0.0
H1280 H 0.0588 0.76839 0.56543 0.0
H1281 H 0.06139 0.7473 0.57638 0.0
H1282 H 0.08427 0.71258 0.665 0.0
H1283 H 0.08209 0.72414 0.62215 0.0
C1284 C 0.21387 0.30213 0.50072 0.0
C1285 C 0.21628 0.29028 0.50165 0.0
C1286 C 0.21575 0.31045 0.52505 0.0
C1287 C 0.23911 0.32163 0.58666 0.0
H1288 H 0.2181 0.34063 0.61192 0.0
C1289 C 0.24288 0.3576 0.68835 0.0
C1290 C 0.25798 0.36715 0.68849 0.0
C1291 C 0.23598 0.3493 0.66425 0.0
C1292 C 0.22406 0.3354 0.605 0.0
H1293 H 0.22088 0.27692 0.52969 0.0
H1294 H 0.22411 0.2914 0.57199 0.0
H1295 H 0.2078 0.32208 0.57446 0.0
H1296 H 0.27735 0.37656 0.66228 0.0
H1297 H 0.26532 0.3621 0.62043 0.0
H1298 H 0.25543 0.33494 0.61665 0.0
C1299 C 0.22102 0.29439 0.55231 0.0
C1300 C 0.21818 0.32481 0.58364 0.0
C1301 C 0.21906 0.28603 0.52808 0.0
C1302 C 0.26574 0.36924 0.66309 0.0
C1303 C 0.25887 0.36088 0.63913 0.0
C1304 C 0.24506 0.33231 0.60755 0.0
C1305 C 0.22011 0.3071 0.55072 0.0
C1306 C 0.22564 0.31777 0.57436 0.0
C1307 C 0.24407 0.35034 0.6399 0.0
C1308 C 0.23765 0.33936 0.61693 0.0
H1309 H 0.21163 0.30567 0.48077 0.0
H1310 H 0.21492 0.32014 0.52317 0.0
H1311 H 0.24525 0.31659 0.57966 0.0
H1312 H 0.23653 0.35574 0.70749 0.0
H1313 H 0.22455 0.34129 0.66542 0.0
C1314 C 0.9136 0.69446 0.00663 0.0
C1315 C 0.9276 0.70676 0.00695 0.0
C1316 C 0.90811 0.68615 0.98194 0.0
C1317 C 0.92255 0.67705 0.91975 0.0
H1318 H 0.8825 0.6554 0.89499 0.0
C1319 C 0.89012 0.63983 0.81808 0.0
C1320 C 0.89737 0.63186 0.81567 0.0
C1321 C 0.89156 0.64788 0.84261 0.0
C1322 C 0.89372 0.66139 0.90166 0.0
H1323 H 0.94607 0.72082 0.98057 0.0
H1324 H 0.93641 0.70648 0.93752 0.0
H1325 H 0.88941 0.67335 0.93312 0.0
H1326 H 0.91066 0.62504 0.8384 0.0
H1327 H 0.91297 0.63888 0.88116 0.0
H1328 H 0.92696 0.66523 0.88849 0.0
C1329 C 0.92984 0.70304 0.95659 0.0
C1330 C 0.89767 0.67163 0.92353 0.0
C1331 C 0.93532 0.71136 0.98125 0.0
C1332 C 0.90501 0.63112 0.83935 0.0
C1333 C 0.90647 0.63919 0.8638 0.0
C1334 C 0.9186 0.66678 0.89817 0.0
C1335 C 0.91649 0.68997 0.95701 0.0
C1336 C 0.91216 0.67961 0.93278 0.0
C1337 C 0.90029 0.64816 0.86524 0.0
C1338 C 0.90414 0.65876 0.8889 0.0
H1339 H 0.90729 0.69061 0.02597 0.0
H1340 H 0.89778 0.67618 0.98301 0.0
H1341 H 0.93375 0.68279 0.92663 0.0
H1342 H 0.88412 0.64065 0.80032 0.0
H1343 H 0.88663 0.65465 0.84304 0.0
C1344 C 0.29304 0.23617 0.99433 0.0
C1345 C 0.29529 0.22946 0.01793 0.0
C1346 C 0.30097 0.23836 0.96933 0.0
C1347 C 0.3275 0.25278 0.93192 0.0
H1348 H 0.34032 0.22727 0.90138 0.0
C1349 C 0.37229 0.27384 0.84783 0.0
C1350 C 0.36948 0.26489 0.82399 0.0
C1351 C 0.36414 0.26835 0.8727 0.0
C1352 C 0.33681 0.23451 0.9096 0.0
H1353 H 0.30672 0.21859 0.03267 0.0
H1354 H 0.3206 0.22254 0.98933 0.0
H1355 H 0.32233 0.21869 0.93951 0.0
H1356 H 0.35675 0.24278 0.80862 0.0
H1357 H 0.34252 0.23329 0.85173 0.0
H1358 H 0.34163 0.26847 0.90175 0.0
C1359 C 0.3127 0.22611 0.99003 0.0
C1360 C 0.32656 0.22962 0.93158 0.0
C1361 C 0.3047 0.22384 0.01499 0.0
C1362 C 0.35921 0.25003 0.82651 0.0
C1363 C 0.35101 0.24456 0.85133 0.0
C1364 C 0.3377 0.25765 0.91001 0.0
C1365 C 0.31139 0.23395 0.96734 0.0
C1366 C 0.32175 0.2387 0.943 0.0
C1367 C 0.35295 0.25378 0.8743 0.0
C1368 C 0.34255 0.24862 0.89857 0.0
H1369 H 0.28579 0.24053 0.99571 0.0
H1370 H 0.29937 0.24408 0.95195 0.0
H1371 H 0.3243 0.26021 0.94048 0.0
H1372 H 0.38019 0.28531 0.84678 0.0
H1373 H 0.36622 0.27568 0.89029 0.0
C1374 C 0.7291 0.11314 0.8563 0.0
C1375 C 0.73627 0.11591 0.83001 0.0
C1376 C 0.73457 0.10966 0.88014 0.0
C1377 C 0.74053 0.08922 0.91426 0.0
H1378 H 0.78062 0.10498 0.93707 0.0
C1379 C 0.75585 0.05762 0.99102 0.0
C1380 C 0.76386 0.06548 0.01488 0.0
C1381 C 0.75487 0.06484 0.96706 0.0
C1382 C 0.76938 0.10047 0.93091 0.0
H1383 H 0.75575 0.11883 0.80916 0.0
H1384 H 0.76525 0.11278 0.85076 0.0
H1385 H 0.77443 0.1174 0.90051 0.0
H1386 H 0.77831 0.08714 0.03096 0.0
H1387 H 0.77662 0.09967 0.98909 0.0
H1388 H 0.73539 0.07237 0.94446 0.0
C1389 C 0.75534 0.11319 0.85288 0.0
C1390 C 0.76584 0.10756 0.90997 0.0
C1391 C 0.74986 0.11667 0.82899 0.0
C1392 C 0.77198 0.08071 0.01305 0.0
C1393 C 0.77102 0.08793 0.98901 0.0
C1394 C 0.74406 0.08211 0.9349 0.0
C1395 C 0.74736 0.10891 0.87831 0.0
C1396 C 0.75134 0.10203 0.90149 0.0
C1397 C 0.76191 0.08007 0.96631 0.0
C1398 C 0.75852 0.08759 0.94346 0.0
H1399 H 0.71869 0.11259 0.85802 0.0
H1400 H 0.72835 0.10678 0.89966 0.0
H1401 H 0.72929 0.0845 0.90792 0.0
H1402 H 0.74954 0.04589 0.99151 0.0
H1403 H 0.74803 0.05847 0.9496 0.0
C1404 C 0.0301 0.45776 0.66051 0.0
C1405 C 0.04017 0.4531 0.66527 0.0
C1406 C 0.02107 0.45744 0.68243 0.0
C1407 C 0.99568 0.44218 0.72295 0.0
H1408 H 0.00558 0.44688 0.80284 0.0
C1409 C 0.95596 0.40761 0.81102 0.0
C1410 C 0.958 0.41315 0.83877 0.0
C1411 C 0.96503 0.41611 0.78893 0.0
C1412 C 0.00258 0.44574 0.78064 0.0
H1413 H 0.04966 0.44591 0.69762 0.0
H1414 H 0.03395 0.4453 0.73565 0.0
H1415 H 0.02481 0.45647 0.76744 0.0
H1416 H 0.97004 0.43257 0.86424 0.0
H1417 H 0.98559 0.44744 0.82562 0.0
H1418 H 0.97345 0.43121 0.73616 0.0
C1419 C 0.03297 0.44921 0.71502 0.0
C1420 C 0.01365 0.45111 0.7603 0.0
C1421 C 0.04202 0.44955 0.69312 0.0
C1422 C 0.96825 0.42788 0.84321 0.0
C1423 C 0.9773 0.43638 0.82111 0.0
C1424 C 0.98461 0.43683 0.74328 0.0
C1425 C 0.02191 0.45248 0.70963 0.0
C1426 C 0.01035 0.44903 0.7312 0.0
C1427 C 0.97629 0.43038 0.79404 0.0
C1428 C 0.9879 0.43817 0.7724 0.0
H1429 H 0.02846 0.4607 0.63939 0.0
H1430 H 0.01293 0.46039 0.67769 0.0
H1431 H 0.99268 0.44023 0.70076 0.0
H1432 H 0.94818 0.39634 0.80675 0.0
H1433 H 0.96391 0.41108 0.76841 0.0
C1434 C 0.57572 0.54641 0.85669 0.0
C1435 C 0.59029 0.5497 0.85574 0.0
C1436 C 0.5691 0.54838 0.8327 0.0
C1437 C 0.5569 0.55032 0.77376 0.0
H1438 H 0.58155 0.58882 0.74287 0.0
C1439 C 0.54669 0.57359 0.66904 0.0
C1440 C 0.5504 0.58828 0.66947 0.0
C1441 C 0.54894 0.56714 0.69299 0.0
C1442 C 0.57449 0.57807 0.75136 0.0
H1443 H 0.60881 0.55638 0.8279 0.0
H1444 H 0.59727 0.55983 0.78627 0.0
H1445 H 0.59082 0.57972 0.78002 0.0
H1446 H 0.55814 0.60724 0.69646 0.0
H1447 H 0.56207 0.596 0.73798 0.0
H1448 H 0.54061 0.54872 0.74461 0.0
C1449 C 0.59105 0.55588 0.80569 0.0
C1450 C 0.57987 0.57278 0.77239 0.0
C1451 C 0.59761 0.55376 0.82953 0.0
C1452 C 0.55519 0.59594 0.69521 0.0
C1453 C 0.55758 0.58954 0.71899 0.0
C1454 C 0.55158 0.55554 0.75223 0.0
C1455 C 0.57694 0.5538 0.80734 0.0
C1456 C 0.57116 0.55887 0.78392 0.0
C1457 C 0.55505 0.57527 0.71778 0.0
C1458 C 0.5603 0.56954 0.74099 0.0
H1459 H 0.56973 0.54326 0.87648 0.0
H1460 H 0.55822 0.54666 0.83463 0.0
H1461 H 0.54993 0.53957 0.78229 0.0
H1462 H 0.54296 0.56734 0.64963 0.0
H1463 H 0.54685 0.55611 0.69142 0.0
C1464 C 0.44315 0.02575 0.83406 0.0
C1465 C 0.43853 0.03603 0.83553 0.0
C1466 C 0.44118 0.01776 0.80923 0.0
C1467 C 0.43801 0.00374 0.75069 0.0
H1468 H 0.39939 0.99009 0.72085 0.0
C1469 C 0.41513 0.97064 0.64638 0.0
C1470 C 0.40013 0.9607 0.64527 0.0
C1471 C 0.42141 0.97884 0.67089 0.0
C1472 C 0.41014 0.99365 0.7291 0.0
H1473 H 0.4298 0.04713 0.81094 0.0
H1474 H 0.42661 0.03339 0.76757 0.0
H1475 H 0.40855 0.00806 0.75845 0.0
H1476 H 0.38035 0.95038 0.67022 0.0
H1477 H 0.39135 0.96445 0.71301 0.0
H1478 H 0.43943 0.98908 0.72128 0.0
C1479 C 0.43137 0.03122 0.7859 0.0
C1480 C 0.41551 0.00418 0.75033 0.0
C1481 C 0.43333 0.0392 0.8107 0.0
C1482 C 0.39189 0.95805 0.67017 0.0
C1483 C 0.39817 0.96623 0.69464 0.0
C1484 C 0.43265 0.99322 0.72919 0.0
C1485 C 0.43459 0.01992 0.78534 0.0
C1486 C 0.4295 0.00937 0.76143 0.0
C1487 C 0.41282 0.97723 0.69479 0.0
C1488 C 0.41859 0.98799 0.71831 0.0
H1489 H 0.44729 0.02307 0.85271 0.0
H1490 H 0.44382 0.00918 0.80952 0.0
H1491 H 0.44883 0.00751 0.7588 0.0
H1492 H 0.42184 0.97294 0.62765 0.0
H1493 H 0.43274 0.98718 0.67033 0.0
C1494 C 0.55766 0.97641 0.15921 0.0
C1495 C 0.56563 0.9692 0.15613 0.0
C1496 C 0.55889 0.98428 0.18389 0.0
C1497 C 0.58611 0.00421 0.2386 0.0
H1498 H 0.5561 0.00933 0.27407 0.0
C1499 C 0.58028 0.03173 0.3466 0.0
C1500 C 0.59408 0.04431 0.34653 0.0
C1501 C 0.5749 0.0232 0.32214 0.0
C1502 C 0.56459 0.00802 0.26435 0.0
H1503 H 0.58 0.96345 0.17786 0.0
H1504 H 0.58193 0.97693 0.22097 0.0
H1505 H 0.54968 0.99126 0.23638 0.0
H1506 H 0.61221 0.05865 0.31968 0.0
H1507 H 0.60269 0.04396 0.27702 0.0
H1508 H 0.60101 0.02074 0.26655 0.0
C1509 C 0.57502 0.97682 0.20398 0.0
C1510 C 0.56092 0.9977 0.24273 0.0
C1511 C 0.57379 0.96895 0.17934 0.0
C1512 C 0.60163 0.04897 0.32065 0.0
C1513 C 0.59624 0.04045 0.29623 0.0
C1514 C 0.58978 0.01454 0.25999 0.0
C1515 C 0.5681 0.9851 0.20603 0.0
C1516 C 0.57165 0.99562 0.22972 0.0
C1517 C 0.58317 0.0271 0.29707 0.0
C1518 C 0.57909 0.0166 0.27317 0.0
H1519 H 0.55122 0.97682 0.14183 0.0
H1520 H 0.55338 0.9905 0.18476 0.0
H1521 H 0.5947 0.00311 0.22873 0.0
H1522 H 0.57411 0.02782 0.36608 0.0
H1523 H 0.56477 0.01303 0.32354 0.0
C1524 C 0.95482 0.54649 0.31429 0.0
C1525 C 0.95739 0.54265 0.34135 0.0
C1526 C 0.96432 0.54874 0.29181 0.0
C1527 C 0.99387 0.567 0.26436 0.0
H1528 H 0.01066 0.5441 0.23799 0.0
C1529 C 0.04426 0.59299 0.19466 0.0
C1530 C 0.04189 0.5864 0.16783 0.0
C1531 C 0.03506 0.58558 0.21742 0.0
C1532 C 0.00609 0.5506 0.24532 0.0
H1533 H 0.97093 0.53643 0.36495 0.0
H1534 H 0.9873 0.5401 0.32545 0.0
H1535 H 0.99055 0.53368 0.27246 0.0
H1536 H 0.02912 0.56621 0.14494 0.0
H1537 H 0.01328 0.55323 0.18491 0.0
H1538 H 0.00939 0.58398 0.23783 0.0
C1539 C 0.97808 0.54158 0.32183 0.0
C1540 C 0.9946 0.54465 0.26493 0.0
C1541 C 0.96867 0.53947 0.34445 0.0
C1542 C 0.03121 0.57166 0.16526 0.0
C1543 C 0.0221 0.5642 0.18815 0.0
C1544 C 0.00546 0.57301 0.24532 0.0
C1545 C 0.97643 0.54699 0.29577 0.0
C1546 C 0.9883 0.55277 0.2744 0.0
C1547 C 0.02345 0.57136 0.21397 0.0
C1548 C 0.0117 0.56491 0.23553 0.0
H1549 H 0.94624 0.54898 0.311 0.0
H1550 H 0.96268 0.5527 0.27177 0.0
H1551 H 0.98939 0.57361 0.2716 0.0
H1552 H 0.05239 0.60429 0.19753 0.0
H1553 H 0.03647 0.59128 0.23726 0.0
C1554 C 0.39868 0.43074 0.18755 0.0
C1555 C 0.40631 0.43761 0.16263 0.0
C1556 C 0.40595 0.42941 0.21104 0.0
C1557 C 0.42177 0.41644 0.24154 0.0
H1558 H 0.45859 0.44505 0.27391 0.0
C1559 C 0.45082 0.39847 0.3187 0.0
C1560 C 0.4539 0.4056 0.34507 0.0
C1561 C 0.44795 0.40447 0.29489 0.0
C1562 C 0.44833 0.43696 0.26497 0.0
H1563 H 0.42782 0.44985 0.14412 0.0
H1564 H 0.44048 0.44762 0.18527 0.0
H1565 H 0.44691 0.45241 0.23777 0.0
H1566 H 0.45813 0.42548 0.36608 0.0
H1567 H 0.45321 0.43594 0.32448 0.0
H1568 H 0.42303 0.40099 0.26849 0.0
C1569 C 0.42885 0.44314 0.18648 0.0
C1570 C 0.44166 0.44116 0.24431 0.0
C1571 C 0.42156 0.44441 0.16288 0.0
C1572 C 0.45567 0.41962 0.34619 0.0
C1573 C 0.45286 0.42564 0.32231 0.0
C1574 C 0.42848 0.41223 0.2618 0.0
C1575 C 0.42103 0.43502 0.21025 0.0
C1576 C 0.42822 0.43095 0.2326 0.0
C1577 C 0.4482 0.41777 0.29684 0.0
C1578 C 0.44182 0.42241 0.27385 0.0
H1579 H 0.38696 0.42547 0.18828 0.0
H1580 H 0.39967 0.42336 0.22933 0.0
H1581 H 0.41155 0.40826 0.2326 0.0
H1582 H 0.44948 0.38773 0.31691 0.0
H1583 H 0.44472 0.3983 0.27533 0.0
C1584 C 0.3079 0.19331 0.13501 0.0
C1585 C 0.31375 0.20619 0.15093 0.0
C1586 C 0.31232 0.18318 0.13992 0.0
C1587 C 0.32992 0.17159 0.19305 0.0
H1588 H 0.33727 0.15373 0.1282 0.0
C1589 C 0.35837 0.13799 0.2041 0.0
C1590 C 0.35264 0.12499 0.18863 0.0
C1591 C 0.35349 0.14776 0.19923 0.0
C1592 C 0.33511 0.1585 0.14652 0.0
H1593 H 0.32873 0.21843 0.18474 0.0
H1594 H 0.33655 0.20078 0.19315 0.0
H1595 H 0.3289 0.17101 0.12068 0.0
H1596 H 0.33742 0.11215 0.1556 0.0
H1597 H 0.32885 0.12925 0.14714 0.0
H1598 H 0.3362 0.15913 0.21888 0.0
C1599 C 0.32841 0.19846 0.17706 0.0
C1600 C 0.33031 0.1684 0.14224 0.0
C1601 C 0.32398 0.20861 0.17216 0.0
C1602 C 0.34207 0.12208 0.16785 0.0
C1603 C 0.3372 0.13189 0.16293 0.0
C1604 C 0.33474 0.16171 0.19734 0.0
C1605 C 0.3227 0.18568 0.16085 0.0
C1606 C 0.32769 0.17507 0.16545 0.0
C1607 C 0.34278 0.14479 0.17874 0.0
C1608 C 0.33743 0.15509 0.17412 0.0
H1609 H 0.29994 0.19107 0.11857 0.0
H1610 H 0.30754 0.17334 0.12738 0.0
H1611 H 0.32778 0.17637 0.21139 0.0
H1612 H 0.36657 0.14062 0.2202 0.0
H1613 H 0.35818 0.15771 0.21143 0.0
C1614 C 0.7863 0.11287 0.16764 0.0
C1615 C 0.78855 0.104 0.14871 0.0
C1616 C 0.79718 0.12723 0.1722 0.0
C1617 C 0.82983 0.15684 0.13829 0.0
H1618 H 0.83727 0.17409 0.21326 0.0
C1619 C 0.87827 0.21387 0.16304 0.0
C1620 C 0.87559 0.22264 0.18146 0.0
C1621 C 0.86767 0.19939 0.15855 0.0
C1622 C 0.83521 0.16947 0.19214 0.0
H1623 H 0.80417 0.1031 0.12035 0.0
H1624 H 0.82317 0.12804 0.1286 0.0
H1625 H 0.81892 0.14866 0.20723 0.0
H1626 H 0.85952 0.2232 0.20899 0.0
H1627 H 0.84104 0.19806 0.20092 0.0
H1628 H 0.84613 0.17766 0.12323 0.0
C1629 C 0.81291 0.124 0.13953 0.0
C1630 C 0.82471 0.1549 0.1887 0.0
C1631 C 0.80204 0.10967 0.13496 0.0
C1632 C 0.86198 0.21673 0.19477 0.0
C1633 C 0.85141 0.20229 0.19032 0.0
C1634 C 0.84035 0.17141 0.14175 0.0
C1635 C 0.81054 0.13299 0.15793 0.0
C1636 C 0.82187 0.14842 0.16172 0.0
C1637 C 0.85419 0.19341 0.17243 0.0
C1638 C 0.84312 0.17789 0.16869 0.0
H1639 H 0.77603 0.10885 0.17852 0.0
H1640 H 0.79497 0.13392 0.18632 0.0
H1641 H 0.82774 0.15223 0.11715 0.0
H1642 H 0.88865 0.21808 0.15249 0.0
H1643 H 0.87016 0.19279 0.14478 0.0
C1644 C 0.78126 0.65047 0.19331 0.0
C1645 C 0.77516 0.63711 0.20761 0.0
C1646 C 0.79535 0.65685 0.18246 0.0
C1647 C 0.82974 0.65691 0.19175 0.0
H1648 H 0.83949 0.67659 0.119 0.0
C1649 C 0.8863 0.67964 0.14001 0.0
C1650 C 0.89219 0.69328 0.12684 0.0
C1651 C 0.87195 0.6725 0.14964 0.0
C1652 C 0.83697 0.67126 0.13949 0.0
H1653 H 0.77895 0.6198 0.22112 0.0
H1654 H 0.80345 0.63087 0.20193 0.0
H1655 H 0.81443 0.66445 0.13553 0.0
H1656 H 0.88769 0.71018 0.11377 0.0
H1657 H 0.86276 0.69778 0.13081 0.0
H1658 H 0.85229 0.66378 0.19576 0.0
C1659 C 0.79743 0.63652 0.19949 0.0
C1660 C 0.82261 0.6643 0.14895 0.0
C1661 C 0.78334 0.63013 0.21032 0.0
C1662 C 0.88348 0.69966 0.12374 0.0
C1663 C 0.86915 0.69252 0.13333 0.0
C1664 C 0.8441 0.66387 0.18228 0.0
C1665 C 0.80364 0.65001 0.18567 0.0
C1666 C 0.81884 0.65709 0.17523 0.0
C1667 C 0.86319 0.67882 0.14626 0.0
C1668 C 0.84789 0.67118 0.15611 0.0
H1669 H 0.77526 0.65614 0.1909 0.0
H1670 H 0.79987 0.66732 0.17218 0.0
H1671 H 0.82724 0.65165 0.2123 0.0
H1672 H 0.89271 0.67441 0.14266 0.0
H1673 H 0.86764 0.66189 0.15928 0.0
C1674 C 0.14955 0.36649 0.31039 0.0
C1675 C 0.13435 0.35786 0.31066 0.0
C1676 C 0.1582 0.36077 0.31921 0.0
C1677 C 0.15676 0.3306 0.36082 0.0
H1678 H 0.19099 0.3387 0.31748 0.0
C1679 C 0.18493 0.29724 0.37563 0.0
C1680 C 0.20012 0.30482 0.37766 0.0
C1681 C 0.17754 0.30433 0.36713 0.0
C1682 C 0.18155 0.33647 0.32995 0.0
H1683 H 0.11632 0.33647 0.32038 0.0
H1684 H 0.13136 0.32647 0.33531 0.0
H1685 H 0.1769 0.35015 0.30397 0.0
H1686 H 0.21954 0.32572 0.37151 0.0
H1687 H 0.20656 0.33814 0.3566 0.0
H1688 H 0.16126 0.31679 0.38656 0.0
C1689 C 0.13663 0.33772 0.32878 0.0
C1690 C 0.17349 0.34304 0.32227 0.0
C1691 C 0.12799 0.34344 0.32006 0.0
C1692 C 0.20782 0.31958 0.37017 0.0
C1693 C 0.2004 0.32668 0.36156 0.0
C1694 C 0.16476 0.32401 0.36841 0.0
C1695 C 0.15183 0.3463 0.32844 0.0
C1696 C 0.16091 0.34003 0.33743 0.0
C1697 C 0.18517 0.31916 0.3604 0.0
C1698 C 0.17713 0.32673 0.35287 0.0
H1699 H 0.15477 0.37766 0.30333 0.0
H1700 H 0.16988 0.3677 0.31899 0.0
H1701 H 0.1473 0.32829 0.37333 0.0
H1702 H 0.17866 0.28584 0.38104 0.0
H1703 H 0.16581 0.29818 0.36591 0.0
C1704 C 0.67328 0.88105 0.36301 0.0
C1705 C 0.68759 0.8876 0.37321 0.0
C1706 C 0.66613 0.86658 0.35416 0.0
C1707 C 0.66686 0.8326 0.36355 0.0
H1708 H 0.64328 0.82032 0.29548 0.0
C1709 C 0.64503 0.77575 0.31484 0.0
C1710 C 0.63097 0.76884 0.30339 0.0
C1711 C 0.65153 0.79012 0.32408 0.0
C1712 C 0.64966 0.82354 0.31476 0.0
H1713 H 0.70571 0.88419 0.38145 0.0
H1714 H 0.69329 0.85905 0.36583 0.0
H1715 H 0.65548 0.84578 0.3095 0.0
H1716 H 0.61257 0.77152 0.29327 0.0
H1717 H 0.62384 0.79652 0.30975 0.0
H1718 H 0.66107 0.8104 0.36886 0.0
C1719 C 0.68752 0.86502 0.36507 0.0
C1720 C 0.65667 0.83813 0.32275 0.0
C1721 C 0.69467 0.87947 0.37384 0.0
C1722 C 0.62344 0.77654 0.30188 0.0
C1723 C 0.62994 0.7909 0.31114 0.0
C1724 C 0.65984 0.81802 0.3556 0.0
C1725 C 0.67313 0.85836 0.35542 0.0
C1726 C 0.66542 0.84283 0.34714 0.0
C1727 C 0.6441 0.7979 0.32213 0.0
C1728 C 0.65122 0.81333 0.33103 0.0
H1729 H 0.66751 0.88702 0.3623 0.0
H1730 H 0.655 0.86172 0.347 0.0
H1731 H 0.67332 0.83584 0.38275 0.0
H1732 H 0.65115 0.77014 0.31623 0.0
H1733 H 0.66252 0.79523 0.33213 0.0
C1734 C 0.11102 0.81448 0.37693 0.0
C1735 C 0.10292 0.79927 0.37567 0.0
C1736 C 0.12548 0.82191 0.36813 0.0
C1737 C 0.1522 0.81826 0.32439 0.0
H1738 H 0.18015 0.85065 0.36966 0.0
C1739 C 0.21356 0.84716 0.30078 0.0
C1740 C 0.22108 0.86239 0.30186 0.0
C1741 C 0.19934 0.83918 0.31087 0.0
C1742 C 0.17246 0.84171 0.35666 0.0
H1743 H 0.10359 0.77993 0.36387 0.0
H1744 H 0.1289 0.79293 0.34862 0.0
H1745 H 0.15484 0.83723 0.38456 0.0
H1746 H 0.21964 0.88118 0.31487 0.0
H1747 H 0.19481 0.86726 0.33222 0.0
H1748 H 0.1698 0.82279 0.29639 0.0
C1749 C 0.12401 0.7991 0.35621 0.0
C1750 C 0.15796 0.83403 0.36517 0.0
C1751 C 0.10953 0.79166 0.36504 0.0
C1752 C 0.21417 0.86946 0.31378 0.0
C1753 C 0.19995 0.86147 0.32386 0.0
C1754 C 0.16671 0.82595 0.31586 0.0
C1755 C 0.13218 0.81431 0.35785 0.0
C1756 C 0.14765 0.82227 0.34906 0.0
C1757 C 0.19232 0.84625 0.32226 0.0
C1758 C 0.17699 0.83781 0.33182 0.0
H1759 H 0.10625 0.82069 0.3849 0.0
H1760 H 0.1314 0.83364 0.36922 0.0
H1761 H 0.14449 0.80936 0.31132 0.0
H1762 H 0.21859 0.84138 0.29184 0.0
H1763 H 0.19385 0.82746 0.30974 0.0
C1764 C 0.64843 0.87364 0.81049 0.0
C1765 C 0.63427 0.86585 0.7996 0.0
C1766 C 0.65543 0.86635 0.82036 0.0
C1767 C 0.65489 0.83174 0.81231 0.0
H1768 H 0.67759 0.84308 0.88155 0.0
C1769 C 0.67664 0.79701 0.86231 0.0
C1770 C 0.69061 0.80425 0.87417 0.0
C1771 C 0.67006 0.80479 0.85303 0.0
C1772 C 0.67144 0.8399 0.86197 0.0
H1773 H 0.6162 0.84428 0.79127 0.0
H1774 H 0.62838 0.83161 0.80861 0.0
H1775 H 0.66543 0.85623 0.8664 0.0
H1776 H 0.70872 0.82535 0.88524 0.0
H1777 H 0.69731 0.83894 0.86866 0.0
H1778 H 0.66091 0.81548 0.80775 0.0
C1779 C 0.63415 0.84335 0.80916 0.0
C1780 C 0.66447 0.84742 0.85334 0.0
C1781 C 0.62714 0.85062 0.79939 0.0
C1782 C 0.69792 0.81944 0.87628 0.0
C1783 C 0.69135 0.82723 0.86695 0.0
C1784 C 0.66189 0.82426 0.82089 0.0
C1785 C 0.64843 0.85113 0.81943 0.0
C1786 C 0.65604 0.84335 0.82851 0.0
C1787 C 0.67731 0.81999 0.85534 0.0
C1788 C 0.67018 0.8282 0.8459 0.0
H1789 H 0.65422 0.88538 0.81093 0.0
H1790 H 0.66647 0.87264 0.828 0.0
H1791 H 0.6487 0.82853 0.79279 0.0
H1792 H 0.67068 0.78531 0.86049 0.0
H1793 H 0.65916 0.79886 0.84455 0.0
C1794 C 0.11592 0.78137 0.83758 0.0
C1795 C 0.11925 0.77254 0.82073 0.0
C1796 C 0.12637 0.79582 0.84273 0.0
C1797 C 0.16053 0.82566 0.81357 0.0
H1798 H 0.16339 0.84314 0.8872 0.0
C1799 C 0.20649 0.88337 0.84355 0.0
C1800 C 0.20235 0.892 0.85901 0.0
C1801 C 0.1965 0.86876 0.8383 0.0
C1802 C 0.16263 0.83844 0.86644 0.0
H1803 H 0.1363 0.77185 0.79669 0.0
H1804 H 0.15456 0.79696 0.80606 0.0
H1805 H 0.14583 0.81756 0.88003 0.0
H1806 H 0.18436 0.89215 0.88046 0.0
H1807 H 0.16701 0.86678 0.87118 0.0
H1808 H 0.17739 0.84659 0.80007 0.0
C1809 C 0.14379 0.79281 0.81485 0.0
C1810 C 0.15257 0.82379 0.86233 0.0
C1811 C 0.13334 0.77838 0.80964 0.0
C1812 C 0.18795 0.8858 0.86858 0.0
C1813 C 0.17801 0.87123 0.86344 0.0
C1814 C 0.17063 0.84032 0.81772 0.0
C1815 C 0.14039 0.80174 0.83121 0.0
C1816 C 0.15134 0.81724 0.8358 0.0
C1817 C 0.18221 0.86251 0.84853 0.0
C1818 C 0.17172 0.84688 0.84416 0.0
H1819 H 0.10515 0.77721 0.84637 0.0
H1820 H 0.12334 0.80244 0.85517 0.0
H1821 H 0.15972 0.82101 0.79274 0.0
H1822 H 0.2175 0.88781 0.8359 0.0
H1823 H 0.20006 0.86228 0.82686 0.0
C1824 C 0.11202 0.31361 0.86976 0.0
C1825 C 0.10164 0.29883 0.86717 0.0
C1826 C 0.12637 0.31876 0.86141 0.0
C1827 C 0.1525 0.30611 0.84724 0.0
H1828 H 0.17511 0.34399 0.81246 0.0
C1829 C 0.20879 0.32618 0.79624 0.0
C1830 C 0.2196 0.34049 0.80229 0.0
C1831 C 0.19447 0.32105 0.8048 0.0
C1832 C 0.16896 0.33345 0.8224 0.0
H1833 H 0.09807 0.27794 0.85293 0.0
H1834 H 0.12299 0.28696 0.83763 0.0
H1835 H 0.1498 0.33513 0.82483 0.0
H1836 H 0.22391 0.36059 0.82236 0.0
H1837 H 0.19885 0.35162 0.83716 0.0
H1838 H 0.17165 0.30438 0.84429 0.0
C1839 C 0.12016 0.29453 0.84682 0.0
C1840 C 0.15446 0.32836 0.82953 0.0
C1841 C 0.10584 0.28937 0.8554 0.0
C1842 C 0.21583 0.34951 0.81739 0.0
C1843 C 0.20148 0.34441 0.8257 0.0
C1844 C 0.16696 0.31114 0.83987 0.0
C1845 C 0.13065 0.30926 0.85004 0.0
C1846 C 0.14605 0.31463 0.84208 0.0
C1847 C 0.19064 0.33016 0.81935 0.0
C1848 C 0.17534 0.32487 0.82743 0.0
H1849 H 0.10915 0.32118 0.8789 0.0
H1850 H 0.13418 0.33013 0.86456 0.0
H1851 H 0.14646 0.29561 0.85737 0.0
H1852 H 0.21134 0.31896 0.78465 0.0
H1853 H 0.18632 0.31004 0.79944 0.0
C1854 C 0.86136 0.64061 0.68666 0.0
C1855 C 0.87107 0.64888 0.70831 0.0
C1856 C 0.85045 0.64341 0.67803 0.0
C1857 C 0.8297 0.66085 0.70153 0.0
H1858 H 0.82207 0.66125 0.62118 0.0
C1859 C 0.79622 0.68529 0.65631 0.0
C1860 C 0.78715 0.67839 0.63294 0.0
C1861 C 0.80538 0.68051 0.66674 0.0
C1862 C 0.8239 0.66096 0.64372 0.0
H1863 H 0.87696 0.66661 0.73781 0.0
H1864 H 0.85804 0.6716 0.72251 0.0
H1865 H 0.84034 0.65536 0.63663 0.0
H1866 H 0.78017 0.66068 0.60293 0.0
H1867 H 0.79605 0.65224 0.62136 0.0
H1868 H 0.81335 0.66661 0.70858 0.0
C1869 C 0.85873 0.66282 0.71248 0.0
C1870 C 0.83439 0.6576 0.65257 0.0
C1871 C 0.86965 0.66002 0.7211 0.0
C1872 C 0.78708 0.66629 0.62087 0.0
C1873 C 0.79624 0.66151 0.6313 0.0
C1874 C 0.8192 0.6642 0.69268 0.0
C1875 C 0.849 0.65454 0.69087 0.0
C1876 C 0.83749 0.65762 0.68156 0.0
C1877 C 0.80567 0.66871 0.65404 0.0
C1878 C 0.81625 0.66439 0.66365 0.0
H1879 H 0.86212 0.6319 0.67645 0.0
H1880 H 0.84302 0.63674 0.66153 0.0
H1881 H 0.83167 0.66072 0.72405 0.0
H1882 H 0.79654 0.69465 0.6661 0.0
H1883 H 0.8126 0.68638 0.68412 0.0
C1884 C 0.33989 0.21643 0.66828 0.0
C1885 C 0.3498 0.22377 0.69027 0.0
C1886 C 0.33523 0.20184 0.66276 0.0
C1887 C 0.3321 0.16901 0.69622 0.0
H1888 H 0.32856 0.15547 0.61866 0.0
C1889 C 0.32238 0.11196 0.66794 0.0
C1890 C 0.31267 0.10458 0.6457 0.0
C1891 C 0.32667 0.12643 0.67378 0.0
C1892 C 0.32934 0.15905 0.64044 0.0
H1893 H 0.36269 0.22158 0.72352 0.0
H1894 H 0.35468 0.19627 0.71369 0.0
H1895 H 0.33649 0.1809 0.62774 0.0
H1896 H 0.29962 0.10654 0.61248 0.0
H1897 H 0.30697 0.13165 0.62287 0.0
H1898 H 0.32498 0.14716 0.70891 0.0
C1899 C 0.35034 0.20169 0.70097 0.0
C1900 C 0.33387 0.17362 0.64563 0.0
C1901 C 0.35501 0.21625 0.70647 0.0
C1902 C 0.30718 0.11191 0.6297 0.0
C1903 C 0.31146 0.12635 0.63551 0.0
C1904 C 0.32757 0.15444 0.69102 0.0
C1905 C 0.34036 0.1943 0.67914 0.0
C1906 C 0.33533 0.17877 0.67358 0.0
C1907 C 0.32133 0.13382 0.65748 0.0
C1908 C 0.32614 0.14929 0.66307 0.0
H1909 H 0.33565 0.2219 0.65546 0.0
H1910 H 0.32741 0.1964 0.64596 0.0
H1911 H 0.3329 0.17259 0.71799 0.0
H1912 H 0.32683 0.10663 0.68063 0.0
H1913 H 0.33439 0.13193 0.69068 0.0
C1914 C 0.8835 0.19696 0.64972 0.0
C1915 C 0.88513 0.20626 0.62708 0.0
C1916 C 0.86974 0.18724 0.66038 0.0
C1917 C 0.83102 0.16837 0.64058 0.0
H1918 H 0.82469 0.16187 0.7216 0.0
C1919 C 0.77387 0.13607 0.69022 0.0
C1920 C 0.772 0.12688 0.7132 0.0
C1921 C 0.78768 0.1453 0.67918 0.0
C1922 C 0.82632 0.16342 0.69889 0.0
H1923 H 0.87358 0.21281 0.59824 0.0
H1924 H 0.8496 0.19598 0.61708 0.0
H1925 H 0.84878 0.1792 0.70389 0.0
H1926 H 0.78316 0.11991 0.74216 0.0
H1927 H 0.80724 0.13591 0.72269 0.0
H1928 H 0.80854 0.15263 0.6356 0.0
C1929 C 0.85895 0.19605 0.6263 0.0
C1930 C 0.84012 0.17337 0.68875 0.0
C1931 C 0.87271 0.20577 0.61564 0.0
C1932 C 0.78422 0.12689 0.7245 0.0
C1933 C 0.79804 0.13613 0.71348 0.0
C1934 C 0.81721 0.15843 0.65073 0.0
C1935 C 0.85729 0.18659 0.64865 0.0
C1936 C 0.84263 0.17599 0.65947 0.0
C1937 C 0.79995 0.14555 0.69089 0.0
C1938 C 0.81469 0.15586 0.68001 0.0
H1939 H 0.89284 0.19702 0.65897 0.0
H1940 H 0.86883 0.18 0.67742 0.0
H1941 H 0.83263 0.16995 0.61787 0.0
H1942 H 0.76469 0.13636 0.68103 0.0
H1943 H 0.78879 0.15252 0.66196 0.0
C1944 C 0.02341 0.46721 0.52476 0.0
C1945 C 0.01587 0.45853 0.54822 0.0
C1946 C 0.01953 0.47689 0.51328 0.0
C1947 C 0.00116 0.4972 0.53249 0.0
H1948 H 0.00031 0.5024 0.45119 0.0
C1949 C 0.97705 0.52988 0.4821 0.0
C1950 C 0.98402 0.53839 0.45811 0.0
C1951 C 0.98158 0.52072 0.49362 0.0
C1952 C 0.0007 0.50122 0.47396 0.0
H1953 H -0.00193 0.45289 0.57747 0.0
H1954 H 0.99122 0.46966 0.55723 0.0
H1955 H 0.00646 0.48473 0.46951 0.0
H1956 H 0.00154 0.54432 0.428 0.0
H1957 H 0.00955 0.52845 0.44836 0.0
H1958 H 0.99539 0.51367 0.53696 0.0
C1959 C 0.00028 0.46915 0.54801 0.0
C1960 C 0.00419 0.49107 0.48444 0.0
C1961 C 0.00414 0.45946 0.55946 0.0
C1962 C 0.9959 0.53787 0.44642 0.0
C1963 C 0.00042 0.52869 0.45795 0.0
C1964 C 0.99769 0.50736 0.52201 0.0
C1965 C 0.00805 0.4781 0.52504 0.0
C1966 C 0.00439 0.4889 0.51382 0.0
C1967 C 0.99318 0.51986 0.48143 0.0
C1968 C 0.99737 0.50945 0.49263 0.0
H1969 H 0.03252 0.46677 0.51562 0.0
H1970 H 0.0258 0.48372 0.49572 0.0
H1971 H 0.00149 0.49598 0.55525 0.0
H1972 H 0.96785 0.53001 0.4916 0.0
H1973 H 0.97567 0.51396 0.51155 0.0
C1974 C 0.53703 0.53897 0.56613 0.0
C1975 C 0.53844 0.55163 0.55383 0.0
C1976 C 0.52745 0.52537 0.55466 0.0
C1977 C 0.50716 0.50731 0.48949 0.0
H1978 H 0.4832 0.47586 0.54093 0.0
C1979 C 0.4612 0.45231 0.44892 0.0
C1980 C 0.46031 0.43987 0.46124 0.0
C1981 C 0.47016 0.46599 0.46075 0.0
C1982 C 0.4899 0.4845 0.52629 0.0
H1983 H 0.53108 0.55996 0.51953 0.0
H1984 H 0.51433 0.53625 0.49965 0.0
H1985 H 0.50044 0.49965 0.56002 0.0
H1986 H 0.46782 0.43201 0.49611 0.0
H1987 H 0.48348 0.45585 0.51658 0.0
H1988 H 0.49668 0.49215 0.45577 0.0
C1989 C 0.52071 0.53683 0.51802 0.0
C1990 C 0.49979 0.49812 0.53723 0.0
C1991 C 0.53027 0.55042 0.5295 0.0
C1992 C 0.46824 0.44137 0.48609 0.0
C1993 C 0.47718 0.45504 0.49792 0.0
C1994 C 0.49727 0.49369 0.47855 0.0
C1995 C 0.51909 0.52414 0.53062 0.0
C1996 C 0.50857 0.50967 0.51896 0.0
C1997 C 0.47839 0.46753 0.48517 0.0
C1998 C 0.48855 0.48212 0.49683 0.0
H1999 H 0.54318 0.53952 0.58484 0.0
H2000 H 0.52661 0.51581 0.5646 0.0
H2001 H 0.5139 0.51593 0.47486 0.0
H2002 H 0.4552 0.45154 0.42982 0.0
H2003 H 0.47068 0.47539 0.45068 0.0
C2004 C 0.55406 0.02398 0.48278 0.0
C2005 C 0.55658 0.01701 0.45997 0.0
C2006 C 0.53997 0.01908 0.4926 0.0
C2007 C 0.50188 0.99844 0.46937 0.0
H2008 H 0.49364 0.998 0.54966 0.0
C2009 C 0.44359 0.97499 0.51299 0.0
C2010 C 0.44157 0.98272 0.535 0.0
C2011 C 0.45755 0.97881 0.50386 0.0
C2012 C 0.49579 0.9982 0.52715 0.0
H2013 H 0.5463 -0.00082 0.4301 0.0
H2014 H 0.52174 0.99055 0.44746 0.0
H2015 H 0.51814 0.00494 0.53426 0.0
H2016 H 0.45264 0.00065 0.56443 0.0
H2017 H 0.47695 0.0074 0.54828 0.0
H2018 H 0.47956 0.99179 0.46225 0.0
C2019 C 0.53064 -6e-05 0.45746 0.0
C2020 C 0.50983 0.00217 0.51833 0.0
C2021 C 0.54473 0.00483 0.44765 0.0
C2022 C 0.45381 0.99444 0.54747 0.0
C2023 C 0.46776 0.99825 0.53836 0.0
C2024 C 0.48784 0.99448 0.47819 0.0
C2025 C 0.52808 0.00711 0.47984 0.0
C2026 C 0.51305 0.0024 0.48933 0.0
C2027 C 0.4698 0.99043 0.51655 0.0
C2028 C 0.48465 0.99439 0.50717 0.0
H2029 H 0.56294 0.03341 0.49273 0.0
H2030 H 0.53837 0.02494 0.50968 0.0
H2031 H 0.50405 -0.00127 0.44685 0.0
H2032 H 0.43439 0.96588 0.50299 0.0
H2033 H 0.45875 0.97248 0.4872 0.0
C2034 C 0.45916 0.01647 0.0043 0.0
C2035 C 0.45461 0.01634 0.97627 0.0
C2036 C 0.46819 0.01082 0.01065 0.0
C2037 C 0.48137 0.98698 0.98243 0.0
H2038 H 0.51415 0.00947 0.03204 0.0
C2039 C 0.52951 0.9765 0.99263 0.0
C2040 C 0.53506 0.97729 0.02003 0.0
C2041 C 0.51913 0.98065 0.98782 0.0
C2042 C 0.50495 0.00297 0.01841 0.0
H2043 H 0.45572 0.00989 0.93302 0.0
H2044 H 0.47152 0.00023 0.94406 0.0
H2045 H 0.49668 0.01746 0.02342 0.0
H2046 H 0.53392 0.98289 0.06393 0.0
H2047 H 0.51581 0.98997 0.05553 0.0
H2048 H 0.48976 0.97257 0.97722 0.0
C2049 C 0.46801 0.00453 0.96121 0.0
C2050 C 0.49493 0.00754 0.01352 0.0
C2051 C 0.45901 0.01017 0.95487 0.0
C2052 C 0.52994 0.98221 0.04251 0.0
C2053 C 0.5196 0.98635 0.0377 0.0
C2054 C 0.49141 0.98242 0.9873 0.0
C2055 C 0.47283 0.00491 0.98911 0.0
C2056 C 0.48306 -0.00036 0.99537 0.0
C2057 C 0.51412 0.98568 0.01031 0.0
C2058 C 0.50335 0.9904 0.00526 0.0
H2059 H 0.45592 0.0211 0.02128 0.0
H2060 H 0.47158 0.0111 0.03243 0.0
H2061 H 0.47224 0.98055 0.96863 0.0
H2062 H 0.53323 0.97277 0.97487 0.0
H2063 H 0.51521 0.98015 0.96641 0.0
C2064 C 0.00262 0.54168 0.06336 0.0
C2065 C 0.01434 0.55421 0.05167 0.0
C2066 C -0.00179 0.52806 0.05153 0.0
C2067 C 0.01219 0.50898 0.00832 0.0
H2068 H 0.97163 0.47989 0.9997 0.0
C2069 C 0.99357 0.45594 0.9462 0.0
C2070 C 0.98178 0.44318 0.95697 0.0
C2071 C 0.99756 0.46935 0.95848 0.0
C2072 C 0.98301 0.48784 1.00232 0.0
H2073 H 0.03031 0.56233 0.0178 0.0
H2074 H 0.02253 0.53861 0.99707 0.0
H2075 H 0.97819 0.50368 0.01894 0.0
H2076 H 0.96511 0.43444 0.9895 0.0
H2077 H 0.97221 0.45786 0.01118 0.0
H2078 H 0.01704 0.49317 0.99181 0.0
C2079 C 0.0169 0.53928 0.01564 0.0
C2080 C 0.98676 0.50146 0.01328 0.0
C2081 C 0.02129 0.55289 0.02742 0.0
C2082 C 0.97422 0.44408 0.98064 0.0
C2083 C 0.97822 0.45751 0.99294 0.0
C2084 C 0.00845 0.49536 0.99743 0.0
C2085 C 0.00545 0.5267 0.02781 0.0
C2086 C 0.00139 0.5122 0.01626 0.0
C2087 C 0.98986 0.47031 0.98184 0.0
C2088 C 0.99382 0.48465 0.99419 0.0
H2089 H 0.99705 0.54232 0.08206 0.0
H2090 H 0.98942 0.51856 0.0615 0.0
H2091 H 0.02357 0.51693 0.01087 0.0
H2092 H -0.00041 0.45564 0.92793 0.0
H2093 H 0.00647 0.47902 0.94921 0.0
C2094 C 0.44928 0.46548 0.03644 0.0
C2095 C 0.43846 0.46928 0.03385 0.0
C2096 C 0.46351 0.47513 0.02812 0.0
C2097 C 0.48866 0.5141 0.01333 0.0
H2098 H 0.512 0.49942 0.97955 0.0
C2099 C 0.54566 0.55035 0.96344 0.0
C2100 C 0.55628 0.54672 0.97044 0.0
C2101 C 0.53125 0.54143 0.97189 0.0
C2102 C 0.50563 0.50366 0.98917 0.0
H2103 H 0.43401 0.48606 0.0199 0.0
H2104 H 0.45879 0.50278 0.00458 0.0
H2105 H 0.48673 0.48266 0.9913 0.0
H2106 H 0.5602 0.53111 0.99253 0.0
H2107 H 0.53506 0.51553 0.00703 0.0
H2108 H 0.50763 0.53518 0.01057 0.0
C2109 C 0.45636 0.49247 0.0137 0.0
C2110 C 0.49116 0.49406 0.99598 0.0
C2111 C 0.44213 0.48285 0.02229 0.0
C2112 C 0.55228 0.53421 0.98673 0.0
C2113 C 0.53787 0.52523 0.99489 0.0
C2114 C 0.50312 0.52373 0.00622 0.0
C2115 C 0.46726 0.48877 0.01671 0.0
C2116 C 0.48251 0.49912 0.0084 0.0
C2117 C 0.52718 0.52864 0.98722 0.0
C2118 C 0.51178 0.51857 0.99433 0.0
H2119 H 0.44684 0.45514 0.04547 0.0
H2120 H 0.47165 0.472 0.03124 0.0
H2121 H 0.4824 0.51837 0.02324 0.0
H2122 H 0.5484 0.55992 0.95095 0.0
H2123 H 0.5232 0.54427 0.96563 0.0
C2124 C 0.44422 0.08657 0.97687 0.0
C2125 C 0.44166 0.07232 0.97883 0.0
C2126 C 0.44469 0.09426 1.00134 0.0
C2127 C 0.44325 0.09188 0.08141 0.0
H2128 H 0.42478 0.11506 0.07277 0.0
C2129 C 0.4244 0.10957 0.18026 0.0
C2130 C 0.41088 0.1088 0.17811 0.0
C2131 C 0.43175 0.10923 0.15588 0.0
C2132 C 0.42983 0.10852 0.07574 0.0
H2133 H 0.43828 0.05522 0.00812 0.0
H2134 H 0.43836 0.06816 0.05037 0.0
H2135 H 0.43092 0.10605 0.03106 0.0
H2136 H 0.39481 0.10782 0.14859 0.0
H2137 H 0.4071 0.10651 0.10646 0.0
H2138 H 0.44089 0.09315 0.12607 0.0
C2139 C 0.4405 0.07376 0.03024 0.0
C2140 C 0.43367 0.10354 0.05159 0.0
C2141 C 0.44039 0.06623 0.00585 0.0
C2142 C 0.40528 0.10855 0.15101 0.0
C2143 C 0.41243 0.10785 0.12669 0.0
C2144 C 0.43908 0.09653 0.10556 0.0
C2145 C 0.44223 0.08775 0.02836 0.0
C2146 C 0.4401 0.09481 0.05401 0.0
C2147 C 0.42558 0.10772 0.12874 0.0
C2148 C 0.43194 0.10461 0.10313 0.0
H2149 H 0.44537 0.09161 0.95633 0.0
H2150 H 0.44652 0.10516 0.99889 0.0
H2151 H 0.44856 0.08557 0.08439 0.0
H2152 H 0.42905 0.10989 0.20088 0.0
H2153 H 0.44205 0.10964 0.15848 0.0
C2154 C 0.9092 0.3155 0.17135 0.0
C2155 C 0.89947 0.30062 0.17508 0.0
C2156 C 0.90884 0.32266 0.1468 0.0
C2157 C 0.89497 0.31505 0.07214 0.0
H2158 H 0.91325 0.35691 0.07147 0.0
C2159 C 0.91774 0.36795 0.98982 0.0
C2160 C 0.9217 0.36204 0.96726 0.0
C2161 C 0.9112 0.35973 0.01427 0.0
C2162 C 0.90779 0.3452 0.07095 0.0
H2163 H 0.88113 0.28176 0.15659 0.0
H2164 H 0.87982 0.29441 0.11447 0.0
H2165 H 0.90798 0.3443 0.11613 0.0
H2166 H 0.92156 0.34274 0.95229 0.0
H2167 H 0.91117 0.32882 0.99505 0.0
H2168 H 0.89389 0.31588 0.02702 0.0
C2169 C 0.88821 0.30049 0.12993 0.0
C2170 C 0.90505 0.3379 0.0969 0.0
C2171 C 0.88883 0.29323 0.15429 0.0
C2172 C 0.91848 0.34757 0.96918 0.0
C2173 C 0.91238 0.33952 0.9939 0.0
C2174 C 0.89728 0.32232 0.0462 0.0
C2175 C 0.89847 0.31526 0.12541 0.0
C2176 C 0.89915 0.32275 0.09794 0.0
C2177 C 0.90894 0.34555 0.01722 0.0
C2178 C 0.90427 0.33758 0.04504 0.0
H2179 H 0.91767 0.32154 0.18674 0.0
H2180 H 0.91719 0.33387 0.14424 0.0
H2181 H 0.89042 0.30342 0.07166 0.0
H2182 H 0.92002 0.37906 0.98886 0.0
H2183 H 0.90831 0.36473 0.03109 0.0
C2184 C 0.6246 0.55133 0.02264 0.0
C2185 C 0.63198 0.55523 0.99652 0.0
C2186 C 0.63206 0.55267 0.04799 0.0
C2187 C 0.66801 0.56026 0.07769 0.0
H2188 H 0.65662 0.57585 0.14058 0.0
C2189 C 0.70566 0.5921 0.17231 0.0
C2190 C 0.69935 0.59032 0.19936 0.0
C2191 C 0.69706 0.58505 0.14856 0.0
C2192 C 0.65984 0.57128 0.12343 0.0
H2193 H 0.65295 0.5629 0.97659 0.0
H2194 H 0.66596 0.56555 0.02054 0.0
H2195 H 0.64217 0.5685 0.09754 0.0
H2196 H 0.67911 0.57891 0.22274 0.0
H2197 H 0.66422 0.56665 0.18143 0.0
H2198 H 0.68608 0.56371 0.1035 0.0
C2199 C 0.65435 0.56122 0.02162 0.0
C2200 C 0.65149 0.567 0.09864 0.0
C2201 C 0.64686 0.55973 0.99626 0.0
C2202 C 0.68437 0.58062 0.20228 0.0
C2203 C 0.67578 0.57366 0.17853 0.0
C2204 C 0.67645 0.56469 0.10246 0.0
C2205 C 0.64715 0.5581 0.04797 0.0
C2206 C 0.6555 0.56154 0.07523 0.0
C2207 C 0.68194 0.57611 0.15125 0.0
C2208 C 0.67253 0.57037 0.12557 0.0
H2209 H 0.61313 0.54773 0.02367 0.0
H2210 H 0.62602 0.54977 0.0677 0.0
H2211 H 0.67137 0.5559 0.0604 0.0
H2212 H 0.71714 0.59949 0.1692 0.0
H2213 H 0.70217 0.58724 0.12786 0.0
C2214 C 0.09798 0.4105 0.33477 0.0
C2215 C 0.10288 0.40044 0.33445 0.0
C2216 C 0.09873 0.41807 0.35955 0.0
C2217 C 0.09916 0.41387 0.4371 0.0
H2218 H 0.1026 0.45188 0.4378 0.0
C2219 C 0.08818 0.43629 0.53934 0.0
C2220 C 0.07843 0.44148 0.53603 0.0
C2221 C 0.09485 0.43415 0.51567 0.0
C2222 C 0.10162 0.44125 0.43797 0.0
H2223 H 0.11339 0.39128 0.35959 0.0
H2224 H 0.11495 0.40469 0.4027 0.0
H2225 H 0.10795 0.44293 0.39432 0.0
H2226 H 0.06896 0.44951 0.50531 0.0
H2227 H 0.08054 0.44575 0.4642 0.0
H2228 H 0.09246 0.412 0.48043 0.0
C2229 C 0.1102 0.40647 0.3839 0.0
C2230 C 0.10466 0.43611 0.41303 0.0
C2231 C 0.10942 0.39886 0.35908 0.0
C2232 C 0.07637 0.44546 0.5087 0.0
C2233 C 0.08306 0.44335 0.48506 0.0
C2234 C 0.09617 0.41903 0.46202 0.0
C2235 C 0.10445 0.41584 0.38472 0.0
C2236 C 0.10315 0.4222 0.41207 0.0
C2237 C 0.09199 0.43719 0.48814 0.0
C2238 C 0.09705 0.43265 0.46263 0.0
H2239 H 0.09289 0.41204 0.31622 0.0
H2240 H 0.09407 0.42507 0.35932 0.0
H2241 H 0.09763 0.40303 0.43716 0.0
H2242 H 0.09009 0.43317 0.56005 0.0
H2243 H 0.10187 0.42963 0.51886 0.0
C2244 C 0.56015 0.64475 0.52864 0.0
C2245 C 0.55447 0.62965 0.52904 0.0
C2246 C 0.5613 0.65203 0.50313 0.0
C2247 C 0.56387 0.64734 0.42565 0.0
H2248 H 0.563 0.68323 0.42064 0.0
C2249 C 0.57568 0.67837 0.31987 0.0
C2250 C 0.5858 0.69331 0.3212 0.0
C2251 C 0.56935 0.6704 0.34463 0.0
C2252 C 0.56332 0.67324 0.42171 0.0
H2253 H 0.54454 0.61026 0.50305 0.0
H2254 H 0.54609 0.62283 0.45884 0.0
H2255 H 0.55602 0.66942 0.46492 0.0
H2256 H 0.59645 0.71169 0.34972 0.0
H2257 H 0.58538 0.6978 0.39283 0.0
H2258 H 0.5713 0.65122 0.38263 0.0
C2259 C 0.55012 0.62916 0.47809 0.0
C2260 C 0.55934 0.66531 0.44715 0.0
C2261 C 0.54908 0.6219 0.50356 0.0
C2262 C 0.58872 0.70022 0.34782 0.0
C2263 C 0.58233 0.69224 0.3726 0.0
C2264 C 0.56774 0.6552 0.40024 0.0
C2265 C 0.5567 0.64439 0.47731 0.0
C2266 C 0.55973 0.65232 0.44961 0.0
C2267 C 0.5729 0.67715 0.3714 0.0
C2268 C 0.56768 0.66834 0.39798 0.0
H2269 H 0.56447 0.65111 0.54779 0.0
H2270 H 0.56653 0.66374 0.50352 0.0
H2271 H 0.56465 0.6376 0.42673 0.0
H2272 H 0.5731 0.67266 0.29979 0.0
H2273 H 0.56193 0.65885 0.34285 0.0
C2274 C 0.34684 0.91281 0.5073 0.0
C2275 C 0.36192 0.92234 0.50686 0.0
C2276 C 0.3395 0.90531 0.48285 0.0
C2277 C 0.34372 0.90939 0.40517 0.0
H2278 H 0.30679 0.8735 0.40549 0.0
C2279 C 0.30903 0.89044 0.30464 0.0
C2280 C 0.29477 0.88766 0.3087 0.0
C2281 C 0.3175 0.89098 0.32778 0.0
C2282 C 0.31711 0.88351 0.40505 0.0
H2283 H 0.38127 0.93041 0.48094 0.0
H2284 H 0.36854 0.91698 0.43848 0.0
H2285 H 0.32175 0.88109 0.44829 0.0
H2286 H 0.27783 0.88196 0.34008 0.0
H2287 H 0.29261 0.8829 0.3804 0.0
H2288 H 0.33898 0.91199 0.36224 0.0
C2289 C 0.3623 0.91567 0.45752 0.0
C2290 C 0.32568 0.8879 0.4296 0.0
C2291 C 0.36964 0.92328 0.48197 0.0
C2292 C 0.28879 0.88419 0.33616 0.0
C2293 C 0.29726 0.88469 0.35932 0.0
C2294 C 0.33523 0.90495 0.38064 0.0
C2295 C 0.34706 0.90702 0.45733 0.0
C2296 C 0.33894 0.9011 0.43022 0.0
C2297 C 0.3119 0.88868 0.35551 0.0
C2298 C 0.32167 0.89214 0.38046 0.0
H2299 H 0.34052 0.91176 0.52609 0.0
H2300 H 0.32779 0.89888 0.48362 0.0
H2301 H 0.35369 0.91974 0.40482 0.0
H2302 H 0.31397 0.89304 0.28378 0.0
H2303 H 0.32865 0.89382 0.32409 0.0
C2304 C 0.5893 0.88788 0.83771 0.0
C2305 C 0.58546 0.89053 0.81073 0.0
C2306 C 0.58304 0.88979 0.86228 0.0
C2307 C 0.56757 0.91181 0.88681 0.0
H2308 H 0.56009 0.88964 0.95623 0.0
C2309 C 0.55523 0.93201 0.99078 0.0
C2310 C 0.56286 0.93154 0.01473 0.0
C2311 C 0.55439 0.92421 0.9662 0.0
C2312 C 0.56218 0.896 0.93706 0.0
H2313 H 0.57116 0.89623 0.78849 0.0
H2314 H 0.56021 0.89946 0.83131 0.0
H2315 H 0.56516 0.88076 0.91236 0.0
H2316 H 0.57479 0.92171 0.03208 0.0
H2317 H 0.57356 0.90842 0.98939 0.0
H2318 H 0.56526 0.92736 0.91149 0.0
C2319 C 0.56825 0.89612 0.83346 0.0
C2320 C 0.56506 0.89087 0.91189 0.0
C2321 C 0.57446 0.89415 0.80888 0.0
C2322 C 0.56884 0.92238 0.01407 0.0
C2323 C 0.56806 0.91465 0.9895 0.0
C2324 C 0.56478 0.91697 0.91195 0.0
C2325 C 0.57281 0.89444 0.86048 0.0
C2326 C 0.56805 0.89886 0.88656 0.0
C2327 C 0.5612 0.91579 0.96492 0.0
C2328 C 0.56233 0.90929 0.93758 0.0
H2329 H 0.59771 0.88505 0.83998 0.0
H2330 H 0.58687 0.88845 0.88273 0.0
H2331 H 0.57005 0.91838 0.86783 0.0
H2332 H 0.55042 0.93888 0.99055 0.0
H2333 H 0.54875 0.92512 0.9479 0.0
C2334 C 0.07617 0.62406 0.00579 0.0
C2335 C 0.07843 0.63154 0.03157 0.0
C2336 C 0.08165 0.63164 0.98032 0.0
C2337 C 0.10559 0.66853 0.94893 0.0
H2338 H 0.0771 0.65325 0.88854 0.0
C2339 C 0.10414 0.70267 0.85384 0.0
C2340 C 0.09902 0.69567 0.82756 0.0
C2341 C 0.10449 0.69493 0.87763 0.0
C2342 C 0.08533 0.65758 0.90491 0.0
H2343 H 0.08916 0.65288 0.05094 0.0
H2344 H 0.09844 0.66607 0.00662 0.0
H2345 H 0.07276 0.63946 0.93192 0.0
H2346 H 0.09135 0.67529 0.80527 0.0
H2347 H 0.09217 0.66194 0.84648 0.0
H2348 H 0.11788 0.68697 0.92195 0.0
C2349 C 0.09258 0.65434 0.00598 0.0
C2350 C 0.08285 0.64962 0.9299 0.0
C2351 C 0.08722 0.64674 0.03151 0.0
C2352 C 0.09521 0.68102 0.82522 0.0
C2353 C 0.09559 0.67331 0.84892 0.0
C2354 C 0.10804 0.67656 0.92387 0.0
C2355 C 0.0894 0.64691 0.97991 0.0
C2356 C 0.09287 0.655 0.95241 0.0
C2357 C 0.09975 0.68003 0.87565 0.0
C2358 C 0.09787 0.67123 0.90163 0.0
H2359 H 0.06957 0.61236 0.00506 0.0
H2360 H 0.07932 0.62551 0.9608 0.0
H2361 H 0.11363 0.67297 0.96563 0.0
H2362 H 0.10715 0.71394 0.85645 0.0
H2363 H 0.10771 0.70045 0.89789 0.0
C2364 C 0.29176 0.40196 0.85397 0.0
C2365 C 0.29799 0.40533 0.82671 0.0
C2366 C 0.30002 0.40922 0.87791 0.0
C2367 C 0.33794 0.42687 0.90048 0.0
H2368 H 0.32381 0.43567 0.96917 0.0
C2369 C 0.3727 0.4435 1.00151 0.0
C2370 C 0.36529 0.43656 0.02656 0.0
C2371 C 0.36503 0.44337 0.97726 0.0
C2372 C 0.32792 0.43321 0.95021 0.0
H2373 H 0.31744 0.41989 0.80312 0.0
H2374 H 0.33172 0.43255 0.84473 0.0
H2375 H 0.30893 0.42857 0.92626 0.0
H2376 H 0.34402 0.42491 0.04621 0.0
H2377 H 0.33073 0.42439 0.00404 0.0
H2378 H 0.35655 0.43077 0.92441 0.0
C2379 C 0.32055 0.42411 0.84767 0.0
C2380 C 0.31938 0.42918 0.92559 0.0
C2381 C 0.3123 0.41689 0.82378 0.0
C2382 C 0.35012 0.43036 0.02731 0.0
C2383 C 0.34246 0.43012 0.00303 0.0
C2384 C 0.3464 0.43078 0.92506 0.0
C2385 C 0.31469 0.41999 0.87509 0.0
C2386 C 0.32421 0.42576 0.90054 0.0
C2387 C 0.34976 0.43619 0.97737 0.0
C2388 C 0.34142 0.43377 0.95044 0.0
H2389 H 0.28077 0.39314 0.85705 0.0
H2390 H 0.29517 0.40575 0.89872 0.0
H2391 H 0.3419 0.42406 0.88174 0.0
H2392 H 0.38439 0.44849 1.00023 0.0
H2393 H 0.37108 0.44849 0.95812 0.0
C2394 C 0.90189 0.58395 0.67635 0.0
C2395 C 0.89586 0.59307 0.67633 0.0
C2396 C 0.90112 0.57595 0.65222 0.0
C2397 C 0.89771 0.57724 0.57447 0.0
H2398 H 0.89785 0.54093 0.57711 0.0
C2399 C 0.9073 0.55323 0.47305 0.0
C2400 C 0.91825 0.54956 0.4755 0.0
C2401 C 0.90104 0.55543 0.4973 0.0
C2402 C 0.89781 0.55107 0.57601 0.0
H2403 H 0.88338 0.60009 0.65138 0.0
H2404 H 0.88174 0.58587 0.60949 0.0
H2405 H 0.89297 0.55046 0.62031 0.0
H2406 H 0.93029 0.54418 0.50549 0.0
H2407 H 0.91937 0.54799 0.54763 0.0
H2408 H 0.90287 0.57805 0.5304 0.0
C2409 C 0.8874 0.58519 0.62798 0.0
C2410 C 0.89505 0.55656 0.60079 0.0
C2411 C 0.88823 0.59326 0.65213 0.0
C2412 C 0.92193 0.54704 0.50275 0.0
C2413 C 0.91562 0.54919 0.52698 0.0
C2414 C 0.90039 0.57172 0.54971 0.0
C2415 C 0.89422 0.57676 0.6274 0.0
C2416 C 0.89527 0.5699 0.6005 0.0
C2417 C 0.90549 0.55394 0.52458 0.0
C2418 C 0.90078 0.55872 0.55025 0.0
H2419 H 0.90785 0.5835 0.69457 0.0
H2420 H 0.90662 0.56972 0.65261 0.0
H2421 H 0.89824 0.58765 0.57338 0.0
H2422 H 0.90413 0.55521 0.45244 0.0
H2423 H 0.89307 0.55883 0.49468 0.0
C2424 C 0.42311 0.30882 0.68538 0.0
C2425 C 0.40907 0.29691 0.68211 0.0
C2426 C 0.43152 0.31611 0.6616 0.0
C2427 C 0.43165 0.31516 0.58129 0.0
H2428 H 0.4545 0.35681 0.5906 0.0
C2429 C 0.45253 0.35232 0.48296 0.0
C2430 C 0.45157 0.365 0.48439 0.0
C2431 C 0.45131 0.34441 0.50762 0.0
C2432 C 0.44806 0.34521 0.58743 0.0
H2433 H 0.39305 0.28293 0.65135 0.0
H2434 H 0.40719 0.29594 0.61016 0.0
H2435 H 0.44421 0.34159 0.63184 0.0
H2436 H 0.44939 0.37971 0.51316 0.0
H2437 H 0.44666 0.3658 0.55544 0.0
H2438 H 0.43434 0.31892 0.53663 0.0
C2439 C 0.41211 0.2995 0.63084 0.0
C2440 C 0.44235 0.33635 0.61136 0.0
C2441 C 0.40389 0.292 0.65459 0.0
C2442 C 0.45025 0.37003 0.51118 0.0
C2443 C 0.44875 0.362 0.53567 0.0
C2444 C 0.43705 0.32405 0.55728 0.0
C2445 C 0.42592 0.31194 0.63392 0.0
C2446 C 0.43372 0.32119 0.60868 0.0
C2447 C 0.44883 0.34883 0.53425 0.0
C2448 C 0.44501 0.33926 0.55991 0.0
H2449 H 0.42744 0.31279 0.70636 0.0
H2450 H 0.44224 0.32529 0.66509 0.0
H2451 H 0.42548 0.30355 0.57815 0.0
H2452 H 0.45365 0.34819 0.46268 0.0
H2453 H 0.45186 0.33457 0.50558 0.0
C2454 C 0.64792 0.09271 0.48716 0.0
C2455 C 0.63289 0.08292 0.48638 0.0
C2456 C 0.65477 0.09943 0.51258 0.0
C2457 C 0.64918 0.09318 0.59004 0.0
H2458 H 0.68535 0.12976 0.59418 0.0
C2459 C 0.68049 0.11218 0.69493 0.0
C2460 C 0.6951 0.11574 0.69303 0.0
C2461 C 0.67261 0.11124 0.67049 0.0
C2462 C 0.67524 0.11953 0.59335 0.0
H2463 H 0.61313 0.0735 0.51132 0.0
H2464 H 0.62497 0.08563 0.55537 0.0
H2465 H 0.67158 0.12265 0.54987 0.0
H2466 H 0.71315 0.12225 0.66402 0.0
H2467 H 0.69942 0.1207 0.62144 0.0
H2468 H 0.65291 0.08999 0.63334 0.0
C2469 C 0.63157 0.08773 0.53656 0.0
C2470 C 0.66735 0.11541 0.56792 0.0
C2471 C 0.62474 0.08086 0.51119 0.0
C2472 C 0.70192 0.11944 0.66631 0.0
C2473 C 0.69405 0.11859 0.64186 0.0
C2474 C 0.65697 0.09737 0.61546 0.0
C2475 C 0.64676 0.09668 0.53787 0.0
C2476 C 0.65434 0.10202 0.56573 0.0
C2477 C 0.67916 0.11394 0.64356 0.0
C2478 C 0.67022 0.11046 0.61732 0.0
H2479 H 0.65457 0.09455 0.4685 0.0
H2480 H 0.66647 0.10613 0.51261 0.0
H2481 H 0.63941 0.08267 0.58921 0.0
H2482 H 0.67488 0.10933 0.71513 0.0
H2483 H 0.66123 0.10787 0.67256 0.0
C2484 C 0.77296 0.73726 0.68281 0.0
C2485 C 0.77468 0.74332 0.65558 0.0
C2486 C 0.7714 0.7442 0.70665 0.0
C2487 C 0.76115 0.77195 0.72605 0.0
H2488 H 0.76952 0.76378 0.80158 0.0
C2489 C 0.73264 0.77786 0.82506 0.0
C2490 C 0.73882 0.77941 0.85212 0.0
C2491 C 0.73957 0.77662 0.80086 0.0
C2492 C 0.76733 0.7665 0.78074 0.0
H2493 H 0.77704 0.76195 0.63241 0.0
H2494 H 0.77512 0.77447 0.6741 0.0
H2495 H 0.77793 0.75633 0.76072 0.0
H2496 H 0.75775 0.78211 0.87456 0.0
H2497 H 0.77027 0.78084 0.83227 0.0
H2498 H 0.75109 0.78268 0.74608 0.0
C2499 C 0.77437 0.76403 0.67702 0.0
C2500 C 0.77194 0.76192 0.75708 0.0
C2501 C 0.77565 0.75693 0.65304 0.0
C2502 C 0.75264 0.78082 0.85407 0.0
C2503 C 0.75973 0.77987 0.82975 0.0
C2504 C 0.7568 0.7768 0.74972 0.0
C2505 C 0.77179 0.75758 0.70414 0.0
C2506 C 0.76855 0.76416 0.72932 0.0
C2507 C 0.75305 0.77718 0.80285 0.0
C2508 C 0.75943 0.77379 0.77752 0.0
H2509 H 0.77202 0.72673 0.68561 0.0
H2510 H 0.7692 0.73865 0.72683 0.0
H2511 H 0.75817 0.77387 0.70522 0.0
H2512 H 0.72195 0.77661 0.8227 0.0
H2513 H 0.73387 0.77438 0.78085 0.0
C2514 C 0.2434 0.01559 0.64471 0.0
C2515 C 0.25489 0.02994 0.6474 0.0
C2516 C 0.23515 0.008 0.66834 0.0
C2517 C 0.22734 0.01124 0.74433 0.0
H2518 H 0.22502 0.97385 0.75054 0.0
C2519 C 0.22353 0.98306 0.8512 0.0
C2520 C 0.21728 0.96789 0.85203 0.0
C2521 C 0.22414 0.99013 0.82577 0.0
C2522 C 0.22519 0.98408 0.74907 0.0
H2523 H 0.26591 0.04793 0.6767 0.0
H2524 H 0.25158 0.03464 0.71797 0.0
H2525 H 0.23325 0.98737 0.70661 0.0
H2526 H 0.20545 0.94818 0.82737 0.0
H2527 H 0.2061 0.96046 0.78329 0.0
H2528 H 0.2196 0.00804 0.78723 0.0
C2529 C 0.24891 0.02926 0.69755 0.0
C2530 C 0.22997 0.99188 0.72375 0.0
C2531 C 0.25716 0.03688 0.67385 0.0
C2532 C 0.2105 0.95988 0.82744 0.0
C2533 C 0.211 0.96695 0.80206 0.0
C2534 C 0.22246 0.00337 0.76971 0.0
C2535 C 0.23818 0.01455 0.69528 0.0
C2536 C 0.23138 0.00569 0.7212 0.0
C2537 C 0.2184 0.9822 0.80058 0.0
C2538 C 0.22161 0.9898 0.77261 0.0
H2539 H 0.24122 0.00994 0.6246 0.0
H2540 H 0.22675 0.99678 0.66573 0.0
H2541 H 0.22815 0.02177 0.74296 0.0
H2542 H 0.22884 0.9896 0.86972 0.0
H2543 H 0.23 0.00187 0.82556 0.0
C2544 C 0.97983 0.23141 0.65091 0.0
C2545 C 0.96462 0.22485 0.65069 0.0
C2546 C 0.98725 0.23233 0.67606 0.0
C2547 C 0.98225 0.2329 0.75359 0.0
H2548 H 0.01927 0.23422 0.75701 0.0
C2549 C 0.01381 0.24598 0.85841 0.0
C2550 C 0.02854 0.25672 0.85677 0.0
C2551 C 0.00594 0.23924 0.83383 0.0
C2552 C 0.00895 0.23391 0.75639 0.0
H2553 H 0.94525 0.21311 0.67641 0.0
H2554 H 0.95813 0.21436 0.72 0.0
H2555 H 0.00538 0.22719 0.71283 0.0
H2556 H 0.04674 0.26805 0.82801 0.0
H2557 H 0.033 0.25634 0.78518 0.0
H2558 H 0.98589 0.23987 0.79683 0.0
C2559 C 0.96438 0.21919 0.70092 0.0
C2560 C 0.00098 0.2299 0.73104 0.0
C2561 C 0.95697 0.21835 0.67581 0.0
C2562 C 0.03542 0.25984 0.83011 0.0
C2563 C 0.02754 0.25308 0.8055 0.0
C2564 C 0.99016 0.23684 0.77888 0.0
C2565 C 0.97965 0.22663 0.70163 0.0
C2566 C 0.9876 0.22953 0.72918 0.0
C2567 C 0.01258 0.24305 0.80696 0.0
C2568 C 0.00371 0.23759 0.78056 0.0
H2569 H 0.98611 0.23656 0.63201 0.0
H2570 H -0.00101 0.23823 0.6757 0.0
H2571 H 0.97217 0.23307 0.75294 0.0
H2572 H 0.00815 0.2432 0.87857 0.0
H2573 H 0.99451 0.23134 0.83581 0.0
C2574 C 0.26269 0.22445 0.18823 0.0
C2575 C 0.25761 0.22475 0.1609 0.0
C2576 C 0.25496 0.22443 0.21226 0.0
C2577 C 0.2271 0.23427 0.23295 0.0
H2578 H 0.23392 0.22319 0.30712 0.0
C2579 C 0.22193 0.2611 0.33438 0.0
C2580 C 0.21989 0.25429 0.36088 0.0
C2581 C 0.22292 0.25444 0.30961 0.0
C2582 C 0.23156 0.22612 0.28663 0.0
H2583 H 0.23982 0.22398 0.13724 0.0
H2584 H 0.2258 0.22291 0.17897 0.0
H2585 H 0.24158 0.21576 0.26512 0.0
H2586 H 0.2161 0.23458 0.38179 0.0
H2587 H 0.21701 0.22257 0.33839 0.0
H2588 H 0.21647 0.24404 0.25435 0.0
C2589 C 0.23613 0.22347 0.18211 0.0
C2590 C 0.23626 0.22207 0.26235 0.0
C2591 C 0.24407 0.22388 0.15807 0.0
C2592 C 0.2178 0.24018 0.36173 0.0
C2593 C 0.2185 0.23336 0.3368 0.0
C2594 C 0.22207 0.23799 0.25716 0.0
C2595 C 0.24173 0.22435 0.20962 0.0
C2596 C 0.23461 0.22655 0.23516 0.0
C2597 C 0.2216 0.24061 0.31046 0.0
C2598 C 0.22472 0.23448 0.28448 0.0
H2599 H 0.27316 0.22526 0.19115 0.0
H2600 H 0.25987 0.22533 0.23281 0.0
H2601 H 0.22561 0.23809 0.21264 0.0
H2602 H 0.22368 0.27201 0.33286 0.0
H2603 H 0.22554 0.26059 0.29008 0.0
C2604 C 0.75793 0.01095 0.15 0.0
C2605 C 0.76301 0.02589 0.1527 0.0
C2606 C 0.75752 0.00272 0.17348 0.0
C2607 C 0.76965 0.00442 0.24821 0.0
H2608 H 0.73225 0.96948 0.25632 0.0
C2609 C 0.74703 0.97553 0.35588 0.0
C2610 C 0.73703 0.96055 0.35612 0.0
C2611 C 0.75278 0.98286 0.33026 0.0
C2612 C 0.7429 0.979 0.25428 0.0
H2613 H 0.77261 0.04404 0.18193 0.0
H2614 H 0.77183 0.02965 0.22295 0.0
H2615 H 0.73788 0.98358 0.21303 0.0
H2616 H 0.72624 0.94134 0.32977 0.0
H2617 H 0.73662 0.95399 0.28528 0.0
H2618 H 0.77454 -9e-05 0.28983 0.0
C2619 C 0.7682 0.02431 0.2026 0.0
C2620 C 0.74612 0.98714 0.22934 0.0
C2621 C 0.76862 0.03257 0.17905 0.0
C2622 C 0.7338 0.9529 0.33036 0.0
C2623 C 0.73966 0.9602 0.30478 0.0
C2624 C 0.76645 0.9962 0.27319 0.0
C2625 C 0.76217 0.0092 0.2003 0.0
C2626 C 0.75946 5e-05 0.22608 0.0
C2627 C 0.74877 0.97537 0.30424 0.0
C2628 C 0.75294 0.98346 0.27673 0.0
H2629 H 0.75366 0.00544 0.12999 0.0
H2630 H 0.7531 0.99117 0.17081 0.0
H2631 H 0.78008 0.01424 0.24628 0.0
H2632 H 0.74976 0.9818 0.37529 0.0
H2633 H 0.75968 0.99453 0.33082 0.0
C2634 C 0.03598 0.77553 0.32598 0.0
C2635 C 0.03086 0.77692 0.35264 0.0
C2636 C 0.02842 0.77477 0.30117 0.0
C2637 C 0.99132 0.7656 0.27786 0.0
H2638 H 0.00979 0.77415 0.20403 0.0
C2639 C 0.9595 0.73743 0.17652 0.0
C2640 C 0.96469 0.74378 0.14978 0.0
C2641 C 0.9671 0.74427 0.20127 0.0
C2642 C 0.00436 0.77192 0.22436 0.0
H2643 H 0.01438 0.77974 0.37384 0.0
H2644 H 0.00163 0.77921 0.3305 0.0
H2645 H 0.0246 0.78221 0.24638 0.0
H2646 H 0.98135 0.76288 0.12832 0.0
H2647 H 0.99419 0.7752 0.17154 0.0
H2648 H 0.97108 0.75581 0.25584 0.0
C2649 C 0.01114 0.77807 0.32875 0.0
C2650 C 0.01293 0.77634 0.24888 0.0
C2651 C 0.01857 0.77856 0.35367 0.0
C2652 C 0.9771 0.75763 0.14857 0.0
C2653 C 0.98458 0.76462 0.17342 0.0
C2654 C 0.98275 0.76145 0.25335 0.0
C2655 C 0.01565 0.77564 0.30218 0.0
C2656 C 0.00657 0.77284 0.27606 0.0
C2657 C 0.97999 0.75781 0.2001 0.0
C2658 C 0.9891 0.76411 0.22618 0.0
H2659 H 0.04535 0.77413 0.32434 0.0
H2660 H 0.03224 0.77269 0.28141 0.0
H2661 H 0.98588 0.76255 0.29821 0.0
H2662 H 0.95003 0.72673 0.1783 0.0
H2663 H 0.96321 0.73848 0.22112 0.0
loop_
_geom_bond_atom_site_label_1
_geom_bond_atom_site_label_2
_geom_bond_distance
_geom_bond_site_symmetry_2
_ccdc_geom_bond_type
Zn0 O3 2.031 . S
Zn0 O5 2.049 . S
Zn0 O10 2.067 . S
Zn1 O2 1.962 . S
Zn1 O4 1.986 . S
Zn1 O6 1.996 . S
Zn1 O9 1.943 . S
O2 Zn1 1.962 . S
O2 C7 1.254 . S
O3 Zn0 2.031 . S
O3 C7 1.269 . S
O4 Zn1 1.986 . S
O4 C11 1.262 . S
O5 Zn0 2.049 . S
O5 C13 1.260 . S
O6 Zn1 1.996 . S
O6 C13 1.257 . S
C7 O2 1.254 . S
C7 O3 1.269 . S
C8 O9 1.249 . S
C8 O10 1.270 . S
O9 Zn1 1.943 . S
O9 C8 1.249 . S
O10 Zn0 2.067 . S
O10 C8 1.270 . S
C11 O4 1.262 . S
C11 O12 1.232 . S
O12 C11 1.232 . S
C13 O5 1.260 . S
C13 O6 1.257 . S
Zn14 O17 2.031 . S
Zn14 O19 2.049 . S
Zn14 O24 2.067 . S
Zn15 O16 1.962 . S
Zn15 O18 1.986 . S
Zn15 O20 1.996 . S
Zn15 O23 1.943 . S
O16 Zn15 1.962 . S
O16 C21 1.254 . S
O17 Zn14 2.031 . S
O17 C21 1.269 . S
O18 Zn15 1.986 . S
O18 C25 1.262 . S
O19 Zn14 2.049 . S
O19 C27 1.260 . S
O20 Zn15 1.996 . S
O20 C27 1.257 . S
C21 O16 1.254 . S
C21 O17 1.269 . S
C22 O23 1.249 . S
C22 O24 1.270 . S
O23 Zn15 1.943 . S
O23 C22 1.249 . S
O24 Zn14 2.067 . S
O24 C22 1.270 . S
C25 O18 1.262 . S
C25 O26 1.232 . S
O26 C25 1.232 . S
C27 O19 1.260 . S
C27 O20 1.257 . S
Zn28 O31 2.031 . S
Zn28 O33 2.049 . S
Zn28 O38 2.067 . S
Zn29 O30 1.962 . S
Zn29 O32 1.986 . S
Zn29 O34 1.996 . S
Zn29 O37 1.943 . S
O30 Zn29 1.962 . S
O30 C35 1.254 . S
O31 Zn28 2.031 . S
O31 C35 1.269 . S
O32 Zn29 1.986 . S
O32 C39 1.262 . S
O33 Zn28 2.049 . S
O33 C41 1.260 . S
O34 Zn29 1.996 . S
O34 C41 1.257 . S
C35 O30 1.254 . S
C35 O31 1.269 . S
C36 O37 1.249 . S
C36 O38 1.270 . S
O37 Zn29 1.943 . S
O37 C36 1.249 . S
O38 Zn28 2.067 . S
O38 C36 1.270 . S
C39 O32 1.262 . S
C39 O40 1.232 . S
O40 C39 1.232 . S
C41 O33 1.260 . S
C41 O34 1.257 . S
Zn42 O45 2.031 . S
Zn42 O47 2.049 . S
Zn42 O52 2.067 . S
Zn43 O44 1.962 . S
Zn43 O46 1.986 . S
Zn43 O48 1.996 . S
Zn43 O51 1.943 . S
O44 Zn43 1.962 . S
O44 C49 1.254 . S
O45 Zn42 2.031 . S
O45 C49 1.269 . S
O46 Zn43 1.986 . S
O46 C53 1.262 . S
O47 Zn42 2.049 . S
O47 C55 1.260 . S
O48 Zn43 1.996 . S
O48 C55 1.257 . S
C49 O44 1.254 . S
C49 O45 1.269 . S
C50 O51 1.249 . S
C50 O52 1.270 . S
O51 Zn43 1.943 . S
O51 C50 1.249 . S
O52 Zn42 2.067 . S
O52 C50 1.270 . S
C53 O46 1.262 . S
C53 O54 1.232 . S
O54 C53 1.232 . S
C55 O47 1.260 . S
C55 O48 1.257 . S
Zn56 O59 2.031 . S
Zn56 O61 2.049 . S
Zn56 O66 2.067 . S
Zn57 O58 1.962 . S
Zn57 O60 1.986 . S
Zn57 O62 1.996 . S
Zn57 O65 1.943 . S
O58 Zn57 1.962 . S
O58 C63 1.254 . S
O59 Zn56 2.031 . S
O59 C63 1.269 . S
O60 Zn57 1.986 . S
O60 C67 1.262 . S
O61 Zn56 2.049 . S
O61 C69 1.260 . S
O62 Zn57 1.996 . S
O62 C69 1.257 . S
C63 O58 1.254 . S
C63 O59 1.269 . S
C64 O65 1.249 . S
C64 O66 1.270 . S
O65 Zn57 1.943 . S
O65 C64 1.249 . S
O66 Zn56 2.067 . S
O66 C64 1.270 . S
C67 O60 1.262 . S
C67 O68 1.232 . S
O68 C67 1.232 . S
C69 O61 1.260 . S
C69 O62 1.257 . S
Zn70 O73 2.031 . S
Zn70 O75 2.049 . S
Zn70 O80 2.067 . S
Zn71 O72 1.962 . S
Zn71 O74 1.986 . S
Zn71 O76 1.996 . S
Zn71 O79 1.943 . S
O72 Zn71 1.962 . S
O72 C77 1.254 . S
O73 Zn70 2.031 . S
O73 C77 1.269 . S
O74 Zn71 1.986 . S
O74 C81 1.262 . S
O75 Zn70 2.049 . S
O75 C83 1.260 . S
O76 Zn71 1.996 . S
O76 C83 1.257 . S
C77 O72 1.254 . S
C77 O73 1.269 . S
C78 O79 1.249 . S
C78 O80 1.270 . S
O79 Zn71 1.943 . S
O79 C78 1.249 . S
O80 Zn70 2.067 . S
O80 C78 1.270 . S
C81 O74 1.262 . S
C81 O82 1.232 . S
O82 C81 1.232 . S
C83 O75 1.260 . S
C83 O76 1.257 . S
Zn84 O87 2.031 . S
Zn84 O89 2.049 . S
Zn84 O94 2.067 . S
Zn85 O86 1.962 . S
Zn85 O88 1.986 . S
Zn85 O90 1.996 . S
Zn85 O93 1.943 . S
O86 Zn85 1.962 . S
O86 C91 1.254 . S
O87 Zn84 2.031 . S
O87 C91 1.269 . S
O88 Zn85 1.986 . S
O88 C95 1.262 . S
O89 Zn84 2.049 . S
O89 C97 1.260 . S
O90 Zn85 1.996 . S
O90 C97 1.257 . S
C91 O86 1.254 . S
C91 O87 1.269 . S
C92 O93 1.249 . S
C92 O94 1.270 . S
O93 Zn85 1.943 . S
O93 C92 1.249 . S
O94 Zn84 2.067 . S
O94 C92 1.270 . S
C95 O88 1.262 . S
C95 O96 1.232 . S
O96 C95 1.232 . S
C97 O89 1.260 . S
C97 O90 1.257 . S
Zn98 O101 2.031 . S
Zn98 O103 2.049 . S
Zn98 O108 2.067 . S
Zn99 O100 1.962 . S
Zn99 O102 1.986 . S
Zn99 O104 1.996 . S
Zn99 O107 1.943 . S
O100 Zn99 1.962 . S
O100 C105 1.254 . S
O101 Zn98 2.031 . S
O101 C105 1.269 . S
O102 Zn99 1.986 . S
O102 C109 1.262 . S
O103 Zn98 2.049 . S
O103 C111 1.260 . S
O104 Zn99 1.996 . S
O104 C111 1.257 . S
C105 O100 1.254 . S
C105 O101 1.269 . S
C106 O107 1.249 . S
C106 O108 1.270 . S
O107 Zn99 1.943 . S
O107 C106 1.249 . S
O108 Zn98 2.067 . S
O108 C106 1.270 . S
C109 O102 1.262 . S
C109 O110 1.232 . S
O110 C109 1.232 . S
C111 O103 1.260 . S
C111 O104 1.257 . S
Zn112 O115 2.031 . S
Zn112 O117 2.049 . S
Zn112 O122 2.067 . S
Zn113 O114 1.962 . S
Zn113 O116 1.986 . S
Zn113 O118 1.996 . S
Zn113 O121 1.943 . S
O114 Zn113 1.962 . S
O114 C119 1.254 . S
O115 Zn112 2.031 . S
O115 C119 1.269 . S
O116 Zn113 1.986 . S
O116 C123 1.262 . S
O117 Zn112 2.049 . S
O117 C125 1.260 . S
O118 Zn113 1.996 . S
O118 C125 1.257 . S
C119 O114 1.254 . S
C119 O115 1.269 . S
C120 O121 1.249 . S
C120 O122 1.270 . S
O121 Zn113 1.943 . S
O121 C120 1.249 . S
O122 Zn112 2.067 . S
O122 C120 1.270 . S
C123 O116 1.262 . S
C123 O124 1.232 . S
O124 C123 1.232 . S
C125 O117 1.260 . S
C125 O118 1.257 . S
Zn126 O129 2.031 . S
Zn126 O131 2.049 . S
Zn126 O136 2.067 . S
Zn127 O128 1.962 . S
Zn127 O130 1.986 . S
Zn127 O132 1.996 . S
Zn127 O135 1.943 . S
O128 Zn127 1.962 . S
O128 C133 1.254 . S
O129 Zn126 2.031 . S
O129 C133 1.269 . S
O130 Zn127 1.986 . S
O130 C137 1.262 . S
O131 Zn126 2.049 . S
O131 C139 1.260 . S
O132 Zn127 1.996 . S
O132 C139 1.257 . S
C133 O128 1.254 . S
C133 O129 1.269 . S
C134 O135 1.249 . S
C134 O136 1.270 . S
O135 Zn127 1.943 . S
O135 C134 1.249 . S
O136 Zn126 2.067 . S
O136 C134 1.270 . S
C137 O130 1.262 . S
C137 O138 1.232 . S
O138 C137 1.232 . S
C139 O131 1.260 . S
C139 O132 1.257 . S
Zn140 O143 2.031 . S
Zn140 O145 2.049 . S
Zn140 O150 2.067 . S
Zn141 O142 1.962 . S
Zn141 O144 1.986 . S
Zn141 O146 1.996 . S
Zn141 O149 1.943 . S
O142 Zn141 1.962 . S
O142 C147 1.254 . S
O143 Zn140 2.031 . S
O143 C147 1.269 . S
O144 Zn141 1.986 . S
O144 C151 1.262 . S
O145 Zn140 2.049 . S
O145 C153 1.260 . S
O146 Zn141 1.996 . S
O146 C153 1.257 . S
C147 O142 1.254 . S
C147 O143 1.269 . S
C148 O149 1.249 . S
C148 O150 1.270 . S
O149 Zn141 1.943 . S
O149 C148 1.249 . S
O150 Zn140 2.067 . S
O150 C148 1.270 . S
C151 O144 1.262 . S
C151 O152 1.232 . S
O152 C151 1.232 . S
C153 O145 1.260 . S
C153 O146 1.257 . S
Zn154 O157 2.031 . S
Zn154 O159 2.049 . S
Zn154 O164 2.067 . S
Zn155 O156 1.962 . S
Zn155 O158 1.986 . S
Zn155 O160 1.996 . S
Zn155 O163 1.943 . S
O156 Zn155 1.962 . S
O156 C161 1.254 . S
O157 Zn154 2.031 . S
O157 C161 1.269 . S
O158 Zn155 1.986 . S
O158 C165 1.262 . S
O159 Zn154 2.049 . S
O159 C167 1.260 . S
O160 Zn155 1.996 . S
O160 C167 1.257 . S
C161 O156 1.254 . S
C161 O157 1.269 . S
C162 O163 1.249 . S
C162 O164 1.270 . S
O163 Zn155 1.943 . S
O163 C162 1.249 . S
O164 Zn154 2.067 . S
O164 C162 1.270 . S
C165 O158 1.262 . S
C165 O166 1.232 . S
O166 C165 1.232 . S
C167 O159 1.260 . S
C167 O160 1.257 . S
Zn168 O171 2.031 . S
Zn168 O173 2.049 . S
Zn168 O178 2.055 1_455 S
Zn169 O170 1.962 . S
Zn169 O172 1.986 . S
Zn169 O174 1.996 . S
Zn169 O177 1.943 1_455 S
O170 Zn169 1.962 . S
O170 C175 1.254 . S
O171 Zn168 2.031 . S
O171 C175 1.269 . S
O172 Zn169 1.986 . S
O172 C179 1.262 . S
O173 Zn168 2.049 . S
O173 C181 1.260 . S
O174 Zn169 1.996 . S
O174 C181 1.257 . S
C175 O170 1.254 . S
C175 O171 1.269 . S
C176 O177 1.249 . S
C176 O178 1.280 . S
O177 Zn169 1.943 1_655 S
O177 C176 1.249 . S
O178 Zn168 2.055 1_655 S
O178 C176 1.280 . S
C179 O172 1.262 . S
C179 O180 1.232 . S
O180 C179 1.232 . S
C181 O173 1.260 . S
C181 O174 1.257 . S
Zn182 O185 2.031 . S
Zn182 O187 2.049 . S
Zn182 O192 2.067 . S
Zn183 O184 1.962 . S
Zn183 O186 1.986 . S
Zn183 O188 1.996 . S
Zn183 O191 1.943 . S
O184 Zn183 1.962 . S
O184 C189 1.254 . S
O185 Zn182 2.031 . S
O185 C189 1.269 . S
O186 Zn183 1.986 . S
O186 C193 1.262 . S
O187 Zn182 2.049 . S
O187 C195 1.260 . S
O188 Zn183 1.996 . S
O188 C195 1.257 . S
C189 O184 1.254 . S
C189 O185 1.269 . S
C190 O191 1.249 . S
C190 O192 1.270 . S
O191 Zn183 1.943 . S
O191 C190 1.249 . S
O192 Zn182 2.067 . S
O192 C190 1.270 . S
C193 O186 1.262 . S
C193 O194 1.232 . S
O194 C193 1.232 . S
C195 O187 1.260 . S
C195 O188 1.257 . S
Zn196 O199 2.031 . S
Zn196 O201 2.049 . S
Zn196 O206 2.055 1_565 S
Zn197 O198 1.962 . S
Zn197 O200 1.986 . S
Zn197 O202 1.996 . S
Zn197 O205 1.943 1_565 S
O198 Zn197 1.962 . S
O198 C203 1.254 . S
O199 Zn196 2.031 . S
O199 C203 1.269 . S
O200 Zn197 1.986 . S
O200 C207 1.262 . S
O201 Zn196 2.049 . S
O201 C209 1.260 . S
O202 Zn197 1.996 . S
O202 C209 1.257 . S
C203 O198 1.254 . S
C203 O199 1.269 . S
C204 O205 1.249 . S
C204 O206 1.273 . S
O205 Zn197 1.943 1_545 S
O205 C204 1.249 . S
O206 Zn196 2.055 1_545 S
O206 C204 1.273 . S
C207 O200 1.262 . S
C207 O208 1.232 . S
O208 C207 1.232 . S
C209 O201 1.260 . S
C209 O202 1.257 . S
Zn210 O213 2.031 . S
Zn210 O215 2.049 . S
Zn210 O220 2.067 . S
Zn211 O212 1.962 . S
Zn211 O214 1.986 . S
Zn211 O216 1.996 . S
Zn211 O219 1.943 . S
O212 Zn211 1.962 . S
O212 C217 1.254 . S
O213 Zn210 2.031 . S
O213 C217 1.269 . S
O214 Zn211 1.986 . S
O214 C221 1.262 . S
O215 Zn210 2.049 . S
O215 C223 1.260 . S
O216 Zn211 1.996 . S
O216 C223 1.257 . S
C217 O212 1.254 . S
C217 O213 1.269 . S
C218 O219 1.249 . S
C218 O220 1.270 . S
O219 Zn211 1.943 . S
O219 C218 1.249 . S
O220 Zn210 2.067 . S
O220 C218 1.270 . S
C221 O214 1.262 . S
C221 O222 1.232 . S
O222 C221 1.232 . S
C223 O215 1.260 . S
C223 O216 1.257 . S
Zn224 O227 2.031 . S
Zn224 O229 2.049 . S
Zn224 O234 2.067 . S
Zn225 O226 1.962 . S
Zn225 O228 1.986 . S
Zn225 O230 1.996 . S
Zn225 O233 1.943 . S
O226 Zn225 1.962 . S
O226 C231 1.254 . S
O227 Zn224 2.031 . S
O227 C231 1.269 . S
O228 Zn225 1.986 . S
O228 C235 1.262 . S
O229 Zn224 2.049 . S
O229 C237 1.260 . S
O230 Zn225 1.996 . S
O230 C237 1.257 . S
C231 O226 1.254 . S
C231 O227 1.269 . S
C232 O233 1.249 . S
C232 O234 1.270 . S
O233 Zn225 1.943 . S
O233 C232 1.249 . S
O234 Zn224 2.067 . S
O234 C232 1.270 . S
C235 O228 1.262 . S
C235 O236 1.232 . S
O236 C235 1.232 . S
C237 O229 1.260 . S
C237 O230 1.257 . S
Zn238 O241 2.031 . S
Zn238 O243 2.049 . S
Zn238 O248 2.067 . S
Zn239 O240 1.962 . S
Zn239 O242 1.986 . S
Zn239 O244 1.996 . S
Zn239 O247 1.943 . S
O240 Zn239 1.962 . S
O240 C245 1.254 . S
O241 Zn238 2.031 . S
O241 C245 1.269 . S
O242 Zn239 1.986 . S
O242 C249 1.262 . S
O243 Zn238 2.049 . S
O243 C251 1.260 . S
O244 Zn239 1.996 . S
O244 C251 1.257 . S
C245 O240 1.254 . S
C245 O241 1.269 . S
C246 O247 1.249 . S
C246 O248 1.270 . S
O247 Zn239 1.943 . S
O247 C246 1.249 . S
O248 Zn238 2.067 . S
O248 C246 1.270 . S
C249 O242 1.262 . S
C249 O250 1.232 . S
O250 C249 1.232 . S
C251 O243 1.260 . S
C251 O244 1.257 . S
Zn252 O255 2.031 . S
Zn252 O257 2.049 . S
Zn252 O262 2.067 . S
Zn253 O254 1.962 . S
Zn253 O256 1.986 . S
Zn253 O258 1.996 . S
Zn253 O261 1.943 . S
O254 Zn253 1.962 . S
O254 C259 1.254 . S
O255 Zn252 2.031 . S
O255 C259 1.269 . S
O256 Zn253 1.986 . S
O256 C263 1.262 . S
O257 Zn252 2.049 . S
O257 C265 1.260 . S
O258 Zn253 1.996 . S
O258 C265 1.257 . S
C259 O254 1.254 . S
C259 O255 1.269 . S
C260 O261 1.249 . S
C260 O262 1.270 . S
O261 Zn253 1.943 . S
O261 C260 1.249 . S
O262 Zn252 2.067 . S
O262 C260 1.270 . S
C263 O256 1.262 . S
C263 O264 1.232 . S
O264 C263 1.232 . S
C265 O257 1.260 . S
C265 O258 1.257 . S
Zn266 O269 2.031 . S
Zn266 O271 2.049 . S
Zn266 O276 2.067 . S
Zn267 O268 1.962 . S
Zn267 O270 1.986 . S
Zn267 O272 1.996 . S
Zn267 O275 1.943 . S
O268 Zn267 1.962 . S
O268 C273 1.254 . S
O269 Zn266 2.031 . S
O269 C273 1.269 . S
O270 Zn267 1.986 . S
O270 C277 1.262 . S
O271 Zn266 2.049 . S
O271 C279 1.260 . S
O272 Zn267 1.996 . S
O272 C279 1.257 . S
C273 O268 1.254 . S
C273 O269 1.269 . S
C274 O275 1.249 . S
C274 O276 1.270 . S
O275 Zn267 1.943 . S
O275 C274 1.249 . S
O276 Zn266 2.067 . S
O276 C274 1.270 . S
C277 O270 1.262 . S
C277 O278 1.232 . S
O278 C277 1.232 . S
C279 O271 1.260 . S
C279 O272 1.257 . S
Zn280 O283 2.031 . S
Zn280 O285 2.049 . S
Zn280 O290 2.067 . S
Zn281 O282 1.962 . S
Zn281 O284 1.986 . S
Zn281 O286 1.996 . S
Zn281 O289 1.943 . S
O282 Zn281 1.962 . S
O282 C287 1.254 . S
O283 Zn280 2.031 . S
O283 C287 1.269 . S
O284 Zn281 1.986 . S
O284 C291 1.262 . S
O285 Zn280 2.049 . S
O285 C293 1.260 . S
O286 Zn281 1.996 . S
O286 C293 1.257 . S
C287 O282 1.254 . S
C287 O283 1.269 . S
C288 O289 1.249 . S
C288 O290 1.270 . S
O289 Zn281 1.943 . S
O289 C288 1.249 . S
O290 Zn280 2.067 . S
O290 C288 1.270 . S
C291 O284 1.262 . S
C291 O292 1.232 . S
O292 C291 1.232 . S
C293 O285 1.260 . S
C293 O286 1.257 . S
Zn294 O297 2.031 . S
Zn294 O299 2.049 . S
Zn294 O304 2.054 1_565 S
Zn295 O296 1.962 . S
Zn295 O298 1.986 . S
Zn295 O300 1.996 . S
Zn295 O303 1.943 1_565 S
O296 Zn295 1.962 . S
O296 C301 1.254 . S
O297 Zn294 2.031 . S
O297 C301 1.269 . S
O298 Zn295 1.986 . S
O298 C305 1.262 . S
O299 Zn294 2.049 . S
O299 C307 1.260 . S
O300 Zn295 1.996 . S
O300 C307 1.257 . S
C301 O296 1.254 . S
C301 O297 1.269 . S
C302 O303 1.249 . S
C302 O304 1.281 . S
O303 Zn295 1.943 1_545 S
O303 C302 1.249 . S
O304 Zn294 2.054 1_545 S
O304 C302 1.281 . S
C305 O298 1.262 . S
C305 O306 1.232 . S
O306 C305 1.232 . S
C307 O299 1.260 . S
C307 O300 1.257 . S
Zn308 O311 2.031 . S
Zn308 O313 2.049 . S
Zn308 O318 2.055 1_455 S
Zn309 O310 1.962 . S
Zn309 O312 1.986 . S
Zn309 O314 1.996 . S
Zn309 O317 1.943 1_455 S
O310 Zn309 1.962 . S
O310 C315 1.254 . S
O311 Zn308 2.031 . S
O311 C315 1.269 . S
O312 Zn309 1.986 . S
O312 C319 1.262 . S
O313 Zn308 2.049 . S
O313 C321 1.260 . S
O314 Zn309 1.996 . S
O314 C321 1.257 . S
C315 O310 1.254 . S
C315 O311 1.269 . S
C316 O317 1.249 . S
C316 O318 1.273 . S
O317 Zn309 1.943 1_655 S
O317 C316 1.249 . S
O318 Zn308 2.055 1_655 S
O318 C316 1.273 . S
C319 O312 1.262 . S
C319 O320 1.232 . S
O320 C319 1.232 . S
C321 O313 1.260 . S
C321 O314 1.257 . S
Zn322 O325 2.031 . S
Zn322 O327 2.049 . S
Zn322 O332 2.067 . S
Zn323 O324 1.962 . S
Zn323 O326 1.986 . S
Zn323 O328 1.996 . S
Zn323 O331 1.943 . S
O324 Zn323 1.962 . S
O324 C329 1.254 . S
O325 Zn322 2.031 . S
O325 C329 1.269 . S
O326 Zn323 1.986 . S
O326 C333 1.262 . S
O327 Zn322 2.049 . S
O327 C335 1.260 . S
O328 Zn323 1.996 . S
O328 C335 1.257 . S
C329 O324 1.254 . S
C329 O325 1.269 . S
C330 O331 1.249 . S
C330 O332 1.270 . S
O331 Zn323 1.943 . S
O331 C330 1.249 . S
O332 Zn322 2.067 . S
O332 C330 1.270 . S
C333 O326 1.262 . S
C333 O334 1.232 . S
O334 C333 1.232 . S
C335 O327 1.260 . S
C335 O328 1.257 . S
Zn336 O339 2.031 . S
Zn336 O341 2.049 . S
Zn336 O346 2.067 . S
Zn337 O338 1.962 . S
Zn337 O340 1.986 . S
Zn337 O342 1.996 . S
Zn337 O345 1.943 . S
O338 Zn337 1.962 . S
O338 C343 1.254 . S
O339 Zn336 2.031 . S
O339 C343 1.269 . S
O340 Zn337 1.986 . S
O340 C347 1.262 . S
O341 Zn336 2.049 . S
O341 C349 1.260 . S
O342 Zn337 1.996 . S
O342 C349 1.257 . S
C343 O338 1.254 . S
C343 O339 1.269 . S
C344 O345 1.249 . S
C344 O346 1.270 . S
O345 Zn337 1.943 . S
O345 C344 1.249 . S
O346 Zn336 2.067 . S
O346 C344 1.270 . S
C347 O340 1.262 . S
C347 O348 1.232 . S
O348 C347 1.232 . S
C349 O341 1.260 . S
C349 O342 1.257 . S
Zn350 O353 2.031 . S
Zn350 O355 2.049 . S
Zn350 O360 2.067 . S
Zn351 O352 1.962 . S
Zn351 O354 1.986 . S
Zn351 O356 1.996 . S
Zn351 O359 1.943 . S
O352 Zn351 1.962 . S
O352 C357 1.254 . S
O353 Zn350 2.031 . S
O353 C357 1.269 . S
O354 Zn351 1.986 . S
O354 C361 1.262 . S
O355 Zn350 2.049 . S
O355 C363 1.260 . S
O356 Zn351 1.996 . S
O356 C363 1.257 . S
C357 O352 1.254 . S
C357 O353 1.269 . S
C358 O359 1.249 . S
C358 O360 1.270 . S
O359 Zn351 1.943 . S
O359 C358 1.249 . S
O360 Zn350 2.067 . S
O360 C358 1.270 . S
C361 O354 1.262 . S
C361 O362 1.232 . S
O362 C361 1.232 . S
C363 O355 1.260 . S
C363 O356 1.257 . S
Zn364 O367 2.031 . S
Zn364 O369 2.049 . S
Zn364 O374 2.067 . S
Zn365 O366 1.962 . S
Zn365 O368 1.986 . S
Zn365 O370 1.996 . S
Zn365 O373 1.943 . S
O366 Zn365 1.962 . S
O366 C371 1.254 . S
O367 Zn364 2.031 . S
O367 C371 1.269 . S
O368 Zn365 1.986 . S
O368 C375 1.262 . S
O369 Zn364 2.049 . S
O369 C377 1.260 . S
O370 Zn365 1.996 . S
O370 C377 1.257 . S
C371 O366 1.254 . S
C371 O367 1.269 . S
C372 O373 1.249 . S
C372 O374 1.270 . S
O373 Zn365 1.943 . S
O373 C372 1.249 . S
O374 Zn364 2.067 . S
O374 C372 1.270 . S
C375 O368 1.262 . S
C375 O376 1.232 . S
O376 C375 1.232 . S
C377 O369 1.260 . S
C377 O370 1.257 . S
Zn378 O381 2.031 . S
Zn378 O383 2.049 . S
Zn378 O388 2.055 1_545 S
Zn379 O380 1.962 . S
Zn379 O382 1.986 . S
Zn379 O384 1.996 . S
Zn379 O387 1.943 1_545 S
O380 Zn379 1.962 . S
O380 C385 1.254 . S
O381 Zn378 2.031 . S
O381 C385 1.269 . S
O382 Zn379 1.986 . S
O382 C389 1.262 . S
O383 Zn378 2.049 . S
O383 C391 1.260 . S
O384 Zn379 1.996 . S
O384 C391 1.257 . S
C385 O380 1.254 . S
C385 O381 1.269 . S
C386 O387 1.249 . S
C386 O388 1.281 . S
O387 Zn379 1.943 1_565 S
O387 C386 1.249 . S
O388 Zn378 2.055 1_565 S
O388 C386 1.281 . S
C389 O382 1.262 . S
C389 O390 1.232 . S
O390 C389 1.232 . S
C391 O383 1.260 . S
C391 O384 1.257 . S
Zn392 O395 2.031 . S
Zn392 O397 2.049 . S
Zn392 O402 2.055 1_655 S
Zn393 O394 1.962 . S
Zn393 O396 1.986 . S
Zn393 O398 1.996 . S
Zn393 O401 1.943 1_655 S
O394 Zn393 1.962 . S
O394 C399 1.254 . S
O395 Zn392 2.031 . S
O395 C399 1.269 . S
O396 Zn393 1.986 . S
O396 C403 1.262 . S
O397 Zn392 2.049 . S
O397 C405 1.260 . S
O398 Zn393 1.996 . S
O398 C405 1.257 . S
C399 O394 1.254 . S
C399 O395 1.269 . S
C400 O401 1.249 . S
C400 O402 1.273 . S
O401 Zn393 1.943 1_455 S
O401 C400 1.249 . S
O402 Zn392 2.055 1_455 S
O402 C400 1.273 . S
C403 O396 1.262 . S
C403 O404 1.232 . S
O404 C403 1.232 . S
C405 O397 1.260 . S
C405 O398 1.257 . S
Zn406 O409 2.031 . S
Zn406 O411 2.049 . S
Zn406 O416 2.067 . S
Zn407 O408 1.962 . S
Zn407 O410 1.986 . S
Zn407 O412 1.996 . S
Zn407 O415 1.943 . S
O408 Zn407 1.962 . S
O408 C413 1.254 . S
O409 Zn406 2.031 . S
O409 C413 1.269 . S
O410 Zn407 1.986 . S
O410 C417 1.262 . S
O411 Zn406 2.049 . S
O411 C419 1.260 . S
O412 Zn407 1.996 . S
O412 C419 1.257 . S
C413 O408 1.254 . S
C413 O409 1.269 . S
C414 O415 1.249 . S
C414 O416 1.270 . S
O415 Zn407 1.943 . S
O415 C414 1.249 . S
O416 Zn406 2.067 . S
O416 C414 1.270 . S
C417 O410 1.262 . S
C417 O418 1.232 . S
O418 C417 1.232 . S
C419 O411 1.260 . S
C419 O412 1.257 . S
Zn420 O423 2.031 . S
Zn420 O425 2.049 . S
Zn420 O430 2.055 1_655 S
Zn421 O422 1.962 . S
Zn421 O424 1.986 . S
Zn421 O426 1.996 . S
Zn421 O429 1.943 1_655 S
O422 Zn421 1.962 . S
O422 C427 1.254 . S
O423 Zn420 2.031 . S
O423 C427 1.269 . S
O424 Zn421 1.986 . S
O424 C431 1.262 . S
O425 Zn420 2.049 . S
O425 C433 1.260 . S
O426 Zn421 1.996 . S
O426 C433 1.257 . S
C427 O422 1.254 . S
C427 O423 1.269 . S
C428 O429 1.249 . S
C428 O430 1.280 . S
O429 Zn421 1.943 1_455 S
O429 C428 1.249 . S
O430 Zn420 2.055 1_455 S
O430 C428 1.280 . S
C431 O424 1.262 . S
C431 O432 1.232 . S
O432 C431 1.232 . S
C433 O425 1.260 . S
C433 O426 1.257 . S
Zn434 O437 2.031 . S
Zn434 O439 2.049 . S
Zn434 O444 2.067 . S
Zn435 O436 1.962 . S
Zn435 O438 1.986 . S
Zn435 O440 1.996 . S
Zn435 O443 1.943 . S
O436 Zn435 1.962 . S
O436 C441 1.254 . S
O437 Zn434 2.031 . S
O437 C441 1.269 . S
O438 Zn435 1.986 . S
O438 C445 1.262 . S
O439 Zn434 2.049 . S
O439 C447 1.260 . S
O440 Zn435 1.996 . S
O440 C447 1.257 . S
C441 O436 1.254 . S
C441 O437 1.269 . S
C442 O443 1.249 . S
C442 O444 1.270 . S
O443 Zn435 1.943 . S
O443 C442 1.249 . S
O444 Zn434 2.067 . S
O444 C442 1.270 . S
C445 O438 1.262 . S
C445 O446 1.232 . S
O446 C445 1.232 . S
C447 O439 1.260 . S
C447 O440 1.257 . S
Zn448 O451 2.031 . S
Zn448 O453 2.049 . S
Zn448 O458 2.056 1_545 S
Zn449 O450 1.962 . S
Zn449 O452 1.986 . S
Zn449 O454 1.996 . S
Zn449 O457 1.943 1_545 S
O450 Zn449 1.962 . S
O450 C455 1.254 . S
O451 Zn448 2.031 . S
O451 C455 1.269 . S
O452 Zn449 1.986 . S
O452 C459 1.262 . S
O453 Zn448 2.049 . S
O453 C461 1.260 . S
O454 Zn449 1.996 . S
O454 C461 1.257 . S
C455 O450 1.254 . S
C455 O451 1.269 . S
C456 O457 1.249 . S
C456 O458 1.273 . S
O457 Zn449 1.943 1_565 S
O457 C456 1.249 . S
O458 Zn448 2.056 1_565 S
O458 C456 1.273 . S
C459 O452 1.262 . S
C459 O460 1.232 . S
O460 C459 1.232 . S
C461 O453 1.260 . S
C461 O454 1.257 . S
Zn462 O465 2.031 . S
Zn462 O467 2.049 . S
Zn462 O472 2.067 . S
Zn463 O464 1.962 . S
Zn463 O466 1.986 . S
Zn463 O468 1.996 . S
Zn463 O471 1.943 . S
O464 Zn463 1.962 . S
O464 C469 1.254 . S
O465 Zn462 2.031 . S
O465 C469 1.269 . S
O466 Zn463 1.986 . S
O466 C473 1.262 . S
O467 Zn462 2.049 . S
O467 C475 1.260 . S
O468 Zn463 1.996 . S
O468 C475 1.257 . S
C469 O464 1.254 . S
C469 O465 1.269 . S
C470 O471 1.249 . S
C470 O472 1.270 . S
O471 Zn463 1.943 . S
O471 C470 1.249 . S
O472 Zn462 2.067 . S
O472 C470 1.270 . S
C473 O466 1.262 . S
C473 O474 1.232 . S
O474 C473 1.232 . S
C475 O467 1.260 . S
C475 O468 1.257 . S
Zn476 O479 2.031 . S
Zn476 O481 2.049 . S
Zn476 O486 2.067 . S
Zn477 O478 1.962 . S
Zn477 O480 1.986 . S
Zn477 O482 1.996 . S
Zn477 O485 1.943 . S
O478 Zn477 1.962 . S
O478 C483 1.254 . S
O479 Zn476 2.031 . S
O479 C483 1.269 . S
O480 Zn477 1.986 . S
O480 C487 1.262 . S
O481 Zn476 2.049 . S
O481 C489 1.260 . S
O482 Zn477 1.996 . S
O482 C489 1.257 . S
C483 O478 1.254 . S
C483 O479 1.269 . S
C484 O485 1.249 . S
C484 O486 1.270 . S
O485 Zn477 1.943 . S
O485 C484 1.249 . S
O486 Zn476 2.067 . S
O486 C484 1.270 . S
C487 O480 1.262 . S
C487 O488 1.232 . S
O488 C487 1.232 . S
C489 O481 1.260 . S
C489 O482 1.257 . S
Zn490 O493 2.031 . S
Zn490 O495 2.049 . S
Zn490 O500 2.067 . S
Zn491 O492 1.962 . S
Zn491 O494 1.986 . S
Zn491 O496 1.996 . S
Zn491 O499 1.943 . S
O492 Zn491 1.962 . S
O492 C497 1.254 . S
O493 Zn490 2.031 . S
O493 C497 1.269 . S
O494 Zn491 1.986 . S
O494 C501 1.262 . S
O495 Zn490 2.049 . S
O495 C503 1.260 . S
O496 Zn491 1.996 . S
O496 C503 1.257 . S
C497 O492 1.254 . S
C497 O493 1.269 . S
C498 O499 1.249 . S
C498 O500 1.270 . S
O499 Zn491 1.943 . S
O499 C498 1.249 . S
O500 Zn490 2.067 . S
O500 C498 1.270 . S
C501 O494 1.262 . S
C501 O502 1.232 . S
O502 C501 1.232 . S
C503 O495 1.260 . S
C503 O496 1.257 . S
C504 C505 1.349 . S
C504 C506 1.327 . S
C504 H529 0.950 . S
C505 C504 1.349 . S
C505 C521 1.349 . S
C506 C504 1.327 . S
C506 C525 1.429 . S
C506 H530 0.950 . S
C507 C524 1.574 1_565 S
C507 C526 1.368 . S
C507 H531 0.949 . S
H508 C512 0.949 . S
C509 C510 1.349 . S
C509 C511 1.327 . S
C509 H532 0.950 . S
C510 C509 1.349 . S
C510 C522 1.349 . S
C511 C509 1.327 . S
C511 C527 1.429 . S
C511 H533 0.950 . S
C512 H508 0.949 . S
C512 C520 1.574 1_545 S
C512 C528 1.368 . S
H513 C521 0.950 . S
H514 C519 0.950 . S
H515 C520 0.949 . S
H516 C522 0.950 . S
H517 C523 0.950 . S
H518 C524 0.949 . S
C519 H514 0.950 . S
C519 C521 1.327 . S
C519 C525 1.429 . S
C520 C512 1.574 1_565 S
C520 H515 0.949 . S
C520 C526 1.368 . S
C521 C505 1.349 . S
C521 H513 0.950 . S
C521 C519 1.327 . S
C522 C510 1.349 . S
C522 H516 0.950 . S
C522 C523 1.327 . S
C523 H517 0.950 . S
C523 C522 1.327 . S
C523 C527 1.429 . S
C524 C507 1.574 1_545 S
C524 H518 0.949 . S
C524 C528 1.368 . S
C525 C506 1.429 . S
C525 C519 1.429 . S
C525 C526 1.523 . S
C526 C507 1.368 . S
C526 C520 1.368 . S
C526 C525 1.523 . S
C527 C511 1.429 . S
C527 C523 1.429 . S
C527 C528 1.523 . S
C528 C512 1.368 . S
C528 C524 1.368 . S
C528 C527 1.523 . S
H529 C504 0.950 . S
H530 C506 0.950 . S
H531 C507 0.949 . S
H532 C509 0.950 . S
H533 C511 0.950 . S
C534 C535 1.349 . S
C534 C536 1.327 . S
C534 H559 0.950 . S
C535 C534 1.349 . S
C535 C551 1.349 . S
C536 C534 1.327 . S
C536 C555 1.429 . S
C536 H560 0.950 . S
C537 C554 1.574 1_455 S
C537 C556 1.368 . S
C537 H561 0.949 . S
H538 C542 0.949 . S
C539 C540 1.349 . S
C539 C541 1.327 . S
C539 H562 0.950 . S
C540 C539 1.349 . S
C540 C552 1.349 . S
C541 C539 1.327 . S
C541 C557 1.429 . S
C541 H563 0.950 . S
C542 H538 0.949 . S
C542 C550 1.574 1_655 S
C542 C558 1.368 . S
H543 C551 0.950 . S
H544 C549 0.950 . S
H545 C550 0.949 . S
H546 C552 0.950 . S
H547 C553 0.950 . S
H548 C554 0.949 . S
C549 H544 0.950 . S
C549 C551 1.327 . S
C549 C555 1.429 . S
C550 C542 1.574 1_455 S
C550 H545 0.949 . S
C550 C556 1.368 . S
C551 C535 1.349 . S
C551 H543 0.950 . S
C551 C549 1.327 . S
C552 C540 1.349 . S
C552 H546 0.950 . S
C552 C553 1.327 . S
C553 H547 0.950 . S
C553 C552 1.327 . S
C553 C557 1.429 . S
C554 C537 1.574 1_655 S
C554 H548 0.949 . S
C554 C558 1.368 . S
C555 C536 1.429 . S
C555 C549 1.429 . S
C555 C556 1.523 . S
C556 C537 1.368 . S
C556 C550 1.368 . S
C556 C555 1.523 . S
C557 C541 1.429 . S
C557 C553 1.429 . S
C557 C558 1.523 . S
C558 C542 1.368 . S
C558 C554 1.368 . S
C558 C557 1.523 . S
H559 C534 0.950 . S
H560 C536 0.950 . S
H561 C537 0.949 . S
H562 C539 0.950 . S
H563 C541 0.950 . S
C564 C565 1.349 . S
C564 C566 1.327 . S
C564 H589 0.950 . S
C565 C564 1.349 . S
C565 C581 1.349 . S
C566 C564 1.327 . S
C566 C585 1.429 . S
C566 H590 0.950 . S
C567 C584 1.574 . S
C567 C586 1.368 . S
C567 H591 0.949 . S
H568 C572 0.949 . S
C569 C570 1.349 . S
C569 C571 1.327 . S
C569 H592 0.950 . S
C570 C569 1.349 . S
C570 C582 1.349 . S
C571 C569 1.327 . S
C571 C587 1.429 . S
C571 H593 0.950 . S
C572 H568 0.949 . S
C572 C580 1.574 . S
C572 C588 1.368 . S
H573 C581 0.950 . S
H574 C579 0.950 . S
H575 C580 0.949 . S
H576 C582 0.950 . S
H577 C583 0.950 . S
H578 C584 0.949 . S
C579 H574 0.950 . S
C579 C581 1.327 . S
C579 C585 1.429 . S
C580 C572 1.574 . S
C580 H575 0.949 . S
C580 C586 1.368 . S
C581 C565 1.349 . S
C581 H573 0.950 . S
C581 C579 1.327 . S
C582 C570 1.349 . S
C582 H576 0.950 . S
C582 C583 1.327 . S
C583 H577 0.950 . S
C583 C582 1.327 . S
C583 C587 1.429 . S
C584 C567 1.574 . S
C584 H578 0.949 . S
C584 C588 1.368 . S
C585 C566 1.429 . S
C585 C579 1.429 . S
C585 C586 1.523 . S
C586 C567 1.368 . S
C586 C580 1.368 . S
C586 C585 1.523 . S
C587 C571 1.429 . S
C587 C583 1.429 . S
C587 C588 1.523 . S
C588 C572 1.368 . S
C588 C584 1.368 . S
C588 C587 1.523 . S
H589 C564 0.950 . S
H590 C566 0.950 . S
H591 C567 0.949 . S
H592 C569 0.950 . S
H593 C571 0.950 . S
C594 C595 1.349 . S
C594 C596 1.327 . S
C594 H619 0.950 . S
C595 C594 1.349 . S
C595 C611 1.349 . S
C596 C594 1.327 . S
C596 C615 1.429 . S
C596 H620 0.950 . S
C597 C614 1.574 1_565 S
C597 C616 1.368 . S
C597 H621 0.949 . S
H598 C602 0.949 . S
C599 C600 1.349 . S
C599 C601 1.327 . S
C599 H622 0.950 . S
C600 C599 1.349 . S
C600 C612 1.349 . S
C601 C599 1.327 . S
C601 C617 1.429 . S
C601 H623 0.950 . S
C602 H598 0.949 . S
C602 C610 1.574 1_545 S
C602 C618 1.368 . S
H603 C611 0.950 . S
H604 C609 0.950 . S
H605 C610 0.949 . S
H606 C612 0.950 . S
H607 C613 0.950 . S
H608 C614 0.949 . S
C609 H604 0.950 . S
C609 C611 1.327 . S
C609 C615 1.429 . S
C610 C602 1.574 1_565 S
C610 H605 0.949 . S
C610 C616 1.368 . S
C611 C595 1.349 . S
C611 H603 0.950 . S
C611 C609 1.327 . S
C612 C600 1.349 . S
C612 H606 0.950 . S
C612 C613 1.327 . S
C613 H607 0.950 . S
C613 C612 1.327 . S
C613 C617 1.429 . S
C614 C597 1.574 1_545 S
C614 H608 0.949 . S
C614 C618 1.368 . S
C615 C596 1.429 . S
C615 C609 1.429 . S
C615 C616 1.523 . S
C616 C597 1.368 . S
C616 C610 1.368 . S
C616 C615 1.523 . S
C617 C601 1.429 . S
C617 C613 1.429 . S
C617 C618 1.523 . S
C618 C602 1.368 . S
C618 C614 1.368 . S
C618 C617 1.523 . S
H619 C594 0.950 . S
H620 C596 0.950 . S
H621 C597 0.949 . S
H622 C599 0.950 . S
H623 C601 0.950 . S
C624 C625 1.349 . S
C624 C626 1.327 . S
C624 H649 0.950 . S
C625 C624 1.349 . S
C625 C641 1.349 . S
C626 C624 1.327 . S
C626 C645 1.429 . S
C626 H650 0.950 . S
C627 C644 1.574 1_455 S
C627 C646 1.368 . S
C627 H651 0.949 . S
H628 C632 0.949 . S
C629 C630 1.349 . S
C629 C631 1.327 . S
C629 H652 0.950 . S
C630 C629 1.349 . S
C630 C642 1.349 . S
C631 C629 1.327 . S
C631 C647 1.429 . S
C631 H653 0.950 . S
C632 H628 0.949 . S
C632 C640 1.574 1_655 S
C632 C648 1.368 . S
H633 C641 0.950 . S
H634 C639 0.950 . S
H635 C640 0.949 . S
H636 C642 0.950 . S
H637 C643 0.950 . S
H638 C644 0.949 . S
C639 H634 0.950 . S
C639 C641 1.327 . S
C639 C645 1.429 . S
C640 C632 1.574 1_455 S
C640 H635 0.949 . S
C640 C646 1.368 . S
C641 C625 1.349 . S
C641 H633 0.950 . S
C641 C639 1.327 . S
C642 C630 1.349 . S
C642 H636 0.950 . S
C642 C643 1.327 . S
C643 H637 0.950 . S
C643 C642 1.327 . S
C643 C647 1.429 . S
C644 C627 1.574 1_655 S
C644 H638 0.949 . S
C644 C648 1.368 . S
C645 C626 1.429 . S
C645 C639 1.429 . S
C645 C646 1.523 . S
C646 C627 1.368 . S
C646 C640 1.368 . S
C646 C645 1.523 . S
C647 C631 1.429 . S
C647 C643 1.429 . S
C647 C648 1.523 . S
C648 C632 1.368 . S
C648 C644 1.368 . S
C648 C647 1.523 . S
H649 C624 0.950 . S
H650 C626 0.950 . S
H651 C627 0.949 . S
H652 C629 0.950 . S
H653 C631 0.950 . S
C654 C655 1.349 . S
C654 C656 1.327 . S
C654 H679 0.950 . S
C655 C654 1.349 . S
C655 C671 1.349 . S
C656 C654 1.327 . S
C656 C675 1.429 . S
C656 H680 0.950 . S
C657 C674 1.574 . S
C657 C676 1.368 . S
C657 H681 0.949 . S
H658 C662 0.949 . S
C659 C660 1.349 . S
C659 C661 1.327 . S
C659 H682 0.950 . S
C660 C659 1.349 . S
C660 C672 1.349 . S
C661 C659 1.327 . S
C661 C677 1.429 . S
C661 H683 0.950 . S
C662 H658 0.949 . S
C662 C670 1.574 . S
C662 C678 1.368 . S
H663 C671 0.950 . S
H664 C669 0.950 . S
H665 C670 0.949 . S
H666 C672 0.950 . S
H667 C673 0.950 . S
H668 C674 0.949 . S
C669 H664 0.950 . S
C669 C671 1.327 . S
C669 C675 1.429 . S
C670 C662 1.574 . S
C670 H665 0.949 . S
C670 C676 1.368 . S
C671 C655 1.349 . S
C671 H663 0.950 . S
C671 C669 1.327 . S
C672 C660 1.349 . S
C672 H666 0.950 . S
C672 C673 1.327 . S
C673 H667 0.950 . S
C673 C672 1.327 . S
C673 C677 1.429 . S
C674 C657 1.574 . S
C674 H668 0.949 . S
C674 C678 1.368 . S
C675 C656 1.429 . S
C675 C669 1.429 . S
C675 C676 1.523 . S
C676 C657 1.368 . S
C676 C670 1.368 . S
C676 C675 1.523 . S
C677 C661 1.429 . S
C677 C673 1.429 . S
C677 C678 1.523 . S
C678 C662 1.368 . S
C678 C674 1.368 . S
C678 C677 1.523 . S
H679 C654 0.950 . S
H680 C656 0.950 . S
H681 C657 0.949 . S
H682 C659 0.950 . S
H683 C661 0.950 . S
C684 C685 1.349 . S
C684 C686 1.327 . S
C684 H709 0.950 . S
C685 C684 1.349 . S
C685 C701 1.349 . S
C686 C684 1.327 . S
C686 C705 1.429 . S
C686 H710 0.950 . S
C687 C704 1.574 . S
C687 C706 1.368 . S
C687 H711 0.949 . S
H688 C692 0.949 . S
C689 C690 1.349 . S
C689 C691 1.327 . S
C689 H712 0.950 . S
C690 C689 1.349 . S
C690 C702 1.349 . S
C691 C689 1.327 . S
C691 C707 1.429 . S
C691 H713 0.950 . S
C692 H688 0.949 . S
C692 C700 1.574 . S
C692 C708 1.368 . S
H693 C701 0.950 . S
H694 C699 0.950 . S
H695 C700 0.949 . S
H696 C702 0.950 . S
H697 C703 0.950 . S
H698 C704 0.949 . S
C699 H694 0.950 . S
C699 C701 1.327 . S
C699 C705 1.429 . S
C700 C692 1.574 . S
C700 H695 0.949 . S
C700 C706 1.368 . S
C701 C685 1.349 . S
C701 H693 0.950 . S
C701 C699 1.327 . S
C702 C690 1.349 . S
C702 H696 0.950 . S
C702 C703 1.327 . S
C703 H697 0.950 . S
C703 C702 1.327 . S
C703 C707 1.429 . S
C704 C687 1.574 . S
C704 H698 0.949 . S
C704 C708 1.368 . S
C705 C686 1.429 . S
C705 C699 1.429 . S
C705 C706 1.523 . S
C706 C687 1.368 . S
C706 C700 1.368 . S
C706 C705 1.523 . S
C707 C691 1.429 . S
C707 C703 1.429 . S
C707 C708 1.523 . S
C708 C692 1.368 . S
C708 C704 1.368 . S
C708 C707 1.523 . S
H709 C684 0.950 . S
H710 C686 0.950 . S
H711 C687 0.949 . S
H712 C689 0.950 . S
H713 C691 0.950 . S
C714 C715 1.349 . S
C714 C716 1.327 . S
C714 H739 0.950 . S
C715 C714 1.349 . S
C715 C731 1.349 . S
C716 C714 1.327 . S
C716 C735 1.429 . S
C716 H740 0.950 . S
C717 C734 1.574 . S
C717 C736 1.368 . S
C717 H741 0.949 . S
H718 C722 0.949 . S
C719 C720 1.349 . S
C719 C721 1.327 . S
C719 H742 0.950 . S
C720 C719 1.349 . S
C720 C732 1.349 . S
C721 C719 1.327 . S
C721 C737 1.429 . S
C721 H743 0.950 . S
C722 H718 0.949 . S
C722 C730 1.574 . S
C722 C738 1.368 . S
H723 C731 0.950 . S
H724 C729 0.950 . S
H725 C730 0.949 . S
H726 C732 0.950 . S
H727 C733 0.950 . S
H728 C734 0.949 . S
C729 H724 0.950 . S
C729 C731 1.327 . S
C729 C735 1.429 . S
C730 C722 1.574 . S
C730 H725 0.949 . S
C730 C736 1.368 . S
C731 C715 1.349 . S
C731 H723 0.950 . S
C731 C729 1.327 . S
C732 C720 1.349 . S
C732 H726 0.950 . S
C732 C733 1.327 . S
C733 H727 0.950 . S
C733 C732 1.327 . S
C733 C737 1.429 . S
C734 C717 1.574 . S
C734 H728 0.949 . S
C734 C738 1.368 . S
C735 C716 1.429 . S
C735 C729 1.429 . S
C735 C736 1.523 . S
C736 C717 1.368 . S
C736 C730 1.368 . S
C736 C735 1.523 . S
C737 C721 1.429 . S
C737 C733 1.429 . S
C737 C738 1.523 . S
C738 C722 1.368 . S
C738 C734 1.368 . S
C738 C737 1.523 . S
H739 C714 0.950 . S
H740 C716 0.950 . S
H741 C717 0.949 . S
H742 C719 0.950 . S
H743 C721 0.950 . S
C744 C745 1.349 . S
C744 C746 1.327 . S
C744 H769 0.950 . S
C745 C744 1.349 . S
C745 C761 1.349 . S
C746 C744 1.327 . S
C746 C765 1.429 . S
C746 H770 0.950 . S
C747 C764 1.574 . S
C747 C766 1.368 . S
C747 H771 0.949 . S
H748 C752 0.949 . S
C749 C750 1.349 . S
C749 C751 1.327 . S
C749 H772 0.950 . S
C750 C749 1.349 . S
C750 C762 1.349 . S
C751 C749 1.327 . S
C751 C767 1.429 . S
C751 H773 0.950 . S
C752 H748 0.949 . S
C752 C760 1.574 . S
C752 C768 1.368 . S
H753 C761 0.950 . S
H754 C759 0.950 . S
H755 C760 0.949 . S
H756 C762 0.950 . S
H757 C763 0.950 . S
H758 C764 0.949 . S
C759 H754 0.950 . S
C759 C761 1.327 . S
C759 C765 1.429 . S
C760 C752 1.574 . S
C760 H755 0.949 . S
C760 C766 1.368 . S
C761 C745 1.349 . S
C761 H753 0.950 . S
C761 C759 1.327 . S
C762 C750 1.349 . S
C762 H756 0.950 . S
C762 C763 1.327 . S
C763 H757 0.950 . S
C763 C762 1.327 . S
C763 C767 1.429 . S
C764 C747 1.574 . S
C764 H758 0.949 . S
C764 C768 1.368 . S
C765 C746 1.429 . S
C765 C759 1.429 . S
C765 C766 1.523 . S
C766 C747 1.368 . S
C766 C760 1.368 . S
C766 C765 1.523 . S
C767 C751 1.429 . S
C767 C763 1.429 . S
C767 C768 1.523 . S
C768 C752 1.368 . S
C768 C764 1.368 . S
C768 C767 1.523 . S
H769 C744 0.950 . S
H770 C746 0.950 . S
H771 C747 0.949 . S
H772 C749 0.950 . S
H773 C751 0.950 . S
C774 C775 1.349 . S
C774 C776 1.327 . S
C774 H799 0.950 . S
C775 C774 1.349 . S
C775 C791 1.349 . S
C776 C774 1.327 . S
C776 C795 1.429 . S
C776 H800 0.950 . S
C777 C794 1.574 . S
C777 C796 1.368 . S
C777 H801 0.949 . S
H778 C782 0.949 . S
C779 C780 1.349 . S
C779 C781 1.327 . S
C779 H802 0.950 . S
C780 C779 1.349 . S
C780 C792 1.349 . S
C781 C779 1.327 . S
C781 C797 1.429 . S
C781 H803 0.950 . S
C782 H778 0.949 . S
C782 C790 1.574 . S
C782 C798 1.368 . S
H783 C791 0.950 . S
H784 C789 0.950 . S
H785 C790 0.949 . S
H786 C792 0.950 . S
H787 C793 0.950 . S
H788 C794 0.949 . S
C789 H784 0.950 . S
C789 C791 1.327 . S
C789 C795 1.429 . S
C790 C782 1.574 . S
C790 H785 0.949 . S
C790 C796 1.368 . S
C791 C775 1.349 . S
C791 H783 0.950 . S
C791 C789 1.327 . S
C792 C780 1.349 . S
C792 H786 0.950 . S
C792 C793 1.327 . S
C793 H787 0.950 . S
C793 C792 1.327 . S
C793 C797 1.429 . S
C794 C777 1.574 . S
C794 H788 0.949 . S
C794 C798 1.368 . S
C795 C776 1.429 . S
C795 C789 1.429 . S
C795 C796 1.523 . S
C796 C777 1.368 . S
C796 C790 1.368 . S
C796 C795 1.523 . S
C797 C781 1.429 . S
C797 C793 1.429 . S
C797 C798 1.523 . S
C798 C782 1.368 . S
C798 C794 1.368 . S
C798 C797 1.523 . S
H799 C774 0.950 . S
H800 C776 0.950 . S
H801 C777 0.949 . S
H802 C779 0.950 . S
H803 C781 0.950 . S
C804 C805 1.349 . S
C804 C806 1.327 . S
C804 H829 0.950 . S
C805 C804 1.349 . S
C805 C821 1.349 . S
C806 C804 1.327 . S
C806 C825 1.429 . S
C806 H830 0.950 . S
C807 C824 1.574 . S
C807 C826 1.368 . S
C807 H831 0.949 . S
H808 C812 0.949 . S
C809 C810 1.349 . S
C809 C811 1.327 . S
C809 H832 0.950 . S
C810 C809 1.349 . S
C810 C822 1.349 . S
C811 C809 1.327 . S
C811 C827 1.429 . S
C811 H833 0.950 . S
C812 H808 0.949 . S
C812 C820 1.574 . S
C812 C828 1.368 . S
H813 C821 0.950 . S
H814 C819 0.950 . S
H815 C820 0.949 . S
H816 C822 0.950 . S
H817 C823 0.950 . S
H818 C824 0.949 . S
C819 H814 0.950 . S
C819 C821 1.327 . S
C819 C825 1.429 . S
C820 C812 1.574 . S
C820 H815 0.949 . S
C820 C826 1.368 . S
C821 C805 1.349 . S
C821 H813 0.950 . S
C821 C819 1.327 . S
C822 C810 1.349 . S
C822 H816 0.950 . S
C822 C823 1.327 . S
C823 H817 0.950 . S
C823 C822 1.327 . S
C823 C827 1.429 . S
C824 C807 1.574 . S
C824 H818 0.949 . S
C824 C828 1.368 . S
C825 C806 1.429 . S
C825 C819 1.429 . S
C825 C826 1.523 . S
C826 C807 1.368 . S
C826 C820 1.368 . S
C826 C825 1.523 . S
C827 C811 1.429 . S
C827 C823 1.429 . S
C827 C828 1.523 . S
C828 C812 1.368 . S
C828 C824 1.368 . S
C828 C827 1.523 . S
H829 C804 0.950 . S
H830 C806 0.950 . S
H831 C807 0.949 . S
H832 C809 0.950 . S
H833 C811 0.950 . S
C834 C835 1.349 . S
C834 C836 1.327 . S
C834 H859 0.950 . S
C835 C834 1.349 . S
C835 C851 1.349 . S
C836 C834 1.327 . S
C836 C855 1.429 . S
C836 H860 0.950 . S
C837 C854 1.574 . S
C837 C856 1.368 . S
C837 H861 0.949 . S
H838 C842 0.949 . S
C839 C840 1.349 . S
C839 C841 1.327 . S
C839 H862 0.950 . S
C840 C839 1.349 . S
C840 C852 1.349 . S
C841 C839 1.327 . S
C841 C857 1.429 . S
C841 H863 0.950 . S
C842 H838 0.949 . S
C842 C850 1.574 . S
C842 C858 1.368 . S
H843 C851 0.950 . S
H844 C849 0.950 . S
H845 C850 0.949 . S
H846 C852 0.950 . S
H847 C853 0.950 . S
H848 C854 0.949 . S
C849 H844 0.950 . S
C849 C851 1.327 . S
C849 C855 1.429 . S
C850 C842 1.574 . S
C850 H845 0.949 . S
C850 C856 1.368 . S
C851 C835 1.349 . S
C851 H843 0.950 . S
C851 C849 1.327 . S
C852 C840 1.349 . S
C852 H846 0.950 . S
C852 C853 1.327 . S
C853 H847 0.950 . S
C853 C852 1.327 . S
C853 C857 1.429 . S
C854 C837 1.574 . S
C854 H848 0.949 . S
C854 C858 1.368 . S
C855 C836 1.429 . S
C855 C849 1.429 . S
C855 C856 1.523 . S
C856 C837 1.368 . S
C856 C850 1.368 . S
C856 C855 1.523 . S
C857 C841 1.429 . S
C857 C853 1.429 . S
C857 C858 1.523 . S
C858 C842 1.368 . S
C858 C854 1.368 . S
C858 C857 1.523 . S
H859 C834 0.950 . S
H860 C836 0.950 . S
H861 C837 0.949 . S
H862 C839 0.950 . S
H863 C841 0.950 . S
C864 C865 1.349 . S
C864 C866 1.327 . S
C864 H889 0.950 . S
C865 C864 1.349 . S
C865 C881 1.349 . S
C866 C864 1.327 . S
C866 C885 1.429 . S
C866 H890 0.950 . S
C867 C884 1.574 . S
C867 C886 1.368 . S
C867 H891 0.949 . S
H868 C872 0.949 . S
C869 C870 1.349 . S
C869 C871 1.327 . S
C869 H892 0.950 . S
C870 C869 1.349 . S
C870 C882 1.349 . S
C871 C869 1.327 . S
C871 C887 1.429 . S
C871 H893 0.950 . S
C872 H868 0.949 . S
C872 C880 1.574 . S
C872 C888 1.368 . S
H873 C881 0.950 . S
H874 C879 0.950 . S
H875 C880 0.949 . S
H876 C882 0.950 . S
H877 C883 0.950 . S
H878 C884 0.949 . S
C879 H874 0.950 . S
C879 C881 1.327 . S
C879 C885 1.429 . S
C880 C872 1.574 . S
C880 H875 0.949 . S
C880 C886 1.368 . S
C881 C865 1.349 . S
C881 H873 0.950 . S
C881 C879 1.327 . S
C882 C870 1.349 . S
C882 H876 0.950 . S
C882 C883 1.327 . S
C883 H877 0.950 . S
C883 C882 1.327 . S
C883 C887 1.429 . S
C884 C867 1.574 . S
C884 H878 0.949 . S
C884 C888 1.368 . S
C885 C866 1.429 . S
C885 C879 1.429 . S
C885 C886 1.523 . S
C886 C867 1.368 . S
C886 C880 1.368 . S
C886 C885 1.523 . S
C887 C871 1.429 . S
C887 C883 1.429 . S
C887 C888 1.523 . S
C888 C872 1.368 . S
C888 C884 1.368 . S
C888 C887 1.523 . S
H889 C864 0.950 . S
H890 C866 0.950 . S
H891 C867 0.949 . S
H892 C869 0.950 . S
H893 C871 0.950 . S
C894 C895 1.349 . S
C894 C896 1.327 . S
C894 H919 0.950 . S
C895 C894 1.349 . S
C895 C911 1.349 . S
C896 C894 1.327 . S
C896 C915 1.429 . S
C896 H920 0.950 . S
C897 C914 1.574 . S
C897 C916 1.368 . S
C897 H921 0.949 . S
H898 C902 0.949 . S
C899 C900 1.349 . S
C899 C901 1.327 . S
C899 H922 0.950 . S
C900 C899 1.349 . S
C900 C912 1.349 . S
C901 C899 1.327 . S
C901 C917 1.429 . S
C901 H923 0.950 . S
C902 H898 0.949 . S
C902 C910 1.574 . S
C902 C918 1.368 . S
H903 C911 0.950 . S
H904 C909 0.950 . S
H905 C910 0.949 . S
H906 C912 0.950 . S
H907 C913 0.950 . S
H908 C914 0.949 . S
C909 H904 0.950 . S
C909 C911 1.327 . S
C909 C915 1.429 . S
C910 C902 1.574 . S
C910 H905 0.949 . S
C910 C916 1.368 . S
C911 C895 1.349 . S
C911 H903 0.950 . S
C911 C909 1.327 . S
C912 C900 1.349 . S
C912 H906 0.950 . S
C912 C913 1.327 . S
C913 H907 0.950 . S
C913 C912 1.327 . S
C913 C917 1.429 . S
C914 C897 1.574 . S
C914 H908 0.949 . S
C914 C918 1.368 . S
C915 C896 1.429 . S
C915 C909 1.429 . S
C915 C916 1.523 . S
C916 C897 1.368 . S
C916 C910 1.368 . S
C916 C915 1.523 . S
C917 C901 1.429 . S
C917 C913 1.429 . S
C917 C918 1.523 . S
C918 C902 1.368 . S
C918 C914 1.368 . S
C918 C917 1.523 . S
H919 C894 0.950 . S
H920 C896 0.950 . S
H921 C897 0.949 . S
H922 C899 0.950 . S
H923 C901 0.950 . S
C924 C925 1.349 . S
C924 C926 1.327 . S
C924 H949 0.950 . S
C925 C924 1.349 . S
C925 C941 1.349 . S
C926 C924 1.327 . S
C926 C945 1.429 . S
C926 H950 0.950 . S
C927 C944 1.574 . S
C927 C946 1.368 . S
C927 H951 0.949 . S
H928 C932 0.949 . S
C929 C930 1.349 . S
C929 C931 1.327 . S
C929 H952 0.950 . S
C930 C929 1.349 . S
C930 C942 1.349 . S
C931 C929 1.327 . S
C931 C947 1.429 . S
C931 H953 0.950 . S
C932 H928 0.949 . S
C932 C940 1.574 . S
C932 C948 1.368 . S
H933 C941 0.950 . S
H934 C939 0.950 . S
H935 C940 0.949 . S
H936 C942 0.950 . S
H937 C943 0.950 . S
H938 C944 0.949 . S
C939 H934 0.950 . S
C939 C941 1.327 . S
C939 C945 1.429 . S
C940 C932 1.574 . S
C940 H935 0.949 . S
C940 C946 1.368 . S
C941 C925 1.349 . S
C941 H933 0.950 . S
C941 C939 1.327 . S
C942 C930 1.349 . S
C942 H936 0.950 . S
C942 C943 1.327 . S
C943 H937 0.950 . S
C943 C942 1.327 . S
C943 C947 1.429 . S
C944 C927 1.574 . S
C944 H938 0.949 . S
C944 C948 1.368 . S
C945 C926 1.429 . S
C945 C939 1.429 . S
C945 C946 1.523 . S
C946 C927 1.368 . S
C946 C940 1.368 . S
C946 C945 1.523 . S
C947 C931 1.429 . S
C947 C943 1.429 . S
C947 C948 1.523 . S
C948 C932 1.368 . S
C948 C944 1.368 . S
C948 C947 1.523 . S
H949 C924 0.950 . S
H950 C926 0.950 . S
H951 C927 0.949 . S
H952 C929 0.950 . S
H953 C931 0.950 . S
C954 C955 1.349 . S
C954 C956 1.327 . S
C954 H979 0.950 . S
C955 C954 1.349 . S
C955 C971 1.349 . S
C956 C954 1.327 . S
C956 C975 1.429 . S
C956 H980 0.950 . S
C957 C974 1.574 . S
C957 C976 1.368 . S
C957 H981 0.949 . S
H958 C962 0.949 . S
C959 C960 1.349 . S
C959 C961 1.327 . S
C959 H982 0.950 . S
C960 C959 1.349 . S
C960 C972 1.349 . S
C961 C959 1.327 . S
C961 C977 1.429 . S
C961 H983 0.950 . S
C962 H958 0.949 . S
C962 C970 1.574 . S
C962 C978 1.368 . S
H963 C971 0.950 . S
H964 C969 0.950 . S
H965 C970 0.949 . S
H966 C972 0.950 . S
H967 C973 0.950 . S
H968 C974 0.949 . S
C969 H964 0.950 . S
C969 C971 1.327 . S
C969 C975 1.429 . S
C970 C962 1.574 . S
C970 H965 0.949 . S
C970 C976 1.368 . S
C971 C955 1.349 . S
C971 H963 0.950 . S
C971 C969 1.327 . S
C972 C960 1.349 . S
C972 H966 0.950 . S
C972 C973 1.327 . S
C973 H967 0.950 . S
C973 C972 1.327 . S
C973 C977 1.429 . S
C974 C957 1.574 . S
C974 H968 0.949 . S
C974 C978 1.368 . S
C975 C956 1.429 . S
C975 C969 1.429 . S
C975 C976 1.523 . S
C976 C957 1.368 . S
C976 C970 1.368 . S
C976 C975 1.523 . S
C977 C961 1.429 . S
C977 C973 1.429 . S
C977 C978 1.523 . S
C978 C962 1.368 . S
C978 C974 1.368 . S
C978 C977 1.523 . S
H979 C954 0.950 . S
H980 C956 0.950 . S
H981 C957 0.949 . S
H982 C959 0.950 . S
H983 C961 0.950 . S
C984 C985 1.349 . S
C984 C986 1.327 . S
C984 H1009 0.950 . S
C985 C984 1.349 . S
C985 C1001 1.349 . S
C986 C984 1.327 . S
C986 C1005 1.429 . S
C986 H1010 0.950 . S
C987 C1004 1.574 . S
C987 C1006 1.368 . S
C987 H1011 0.949 . S
H988 C992 0.949 . S
C989 C990 1.349 . S
C989 C991 1.327 . S
C989 H1012 0.950 . S
C990 C989 1.349 . S
C990 C1002 1.349 . S
C991 C989 1.327 . S
C991 C1007 1.429 . S
C991 H1013 0.950 . S
C992 H988 0.949 . S
C992 C1000 1.574 . S
C992 C1008 1.368 . S
H993 C1001 0.950 . S
H994 C999 0.950 . S
H995 C1000 0.949 . S
H996 C1002 0.950 . S
H997 C1003 0.950 . S
H998 C1004 0.949 . S
C999 H994 0.950 . S
C999 C1001 1.327 . S
C999 C1005 1.429 . S
C1000 C992 1.574 . S
C1000 H995 0.949 . S
C1000 C1006 1.368 . S
C1001 C985 1.349 . S
C1001 H993 0.950 . S
C1001 C999 1.327 . S
C1002 C990 1.349 . S
C1002 H996 0.950 . S
C1002 C1003 1.327 . S
C1003 H997 0.950 . S
C1003 C1002 1.327 . S
C1003 C1007 1.429 . S
C1004 C987 1.574 . S
C1004 H998 0.949 . S
C1004 C1008 1.368 . S
C1005 C986 1.429 . S
C1005 C999 1.429 . S
C1005 C1006 1.523 . S
C1006 C987 1.368 . S
C1006 C1000 1.368 . S
C1006 C1005 1.523 . S
C1007 C991 1.429 . S
C1007 C1003 1.429 . S
C1007 C1008 1.523 . S
C1008 C992 1.368 . S
C1008 C1004 1.368 . S
C1008 C1007 1.523 . S
H1009 C984 0.950 . S
H1010 C986 0.950 . S
H1011 C987 0.949 . S
H1012 C989 0.950 . S
H1013 C991 0.950 . S
C1014 C1015 1.349 . S
C1014 C1016 1.327 . S
C1014 H1039 0.950 . S
C1015 C1014 1.349 . S
C1015 C1031 1.349 . S
C1016 C1014 1.327 . S
C1016 C1035 1.429 . S
C1016 H1040 0.950 . S
C1017 C1034 1.574 . S
C1017 C1036 1.368 . S
C1017 H1041 0.949 . S
H1018 C1022 0.949 . S
C1019 C1020 1.349 . S
C1019 C1021 1.327 . S
C1019 H1042 0.950 . S
C1020 C1019 1.349 . S
C1020 C1032 1.349 . S
C1021 C1019 1.327 . S
C1021 C1037 1.429 . S
C1021 H1043 0.950 . S
C1022 H1018 0.949 . S
C1022 C1030 1.574 . S
C1022 C1038 1.368 . S
H1023 C1031 0.950 . S
H1024 C1029 0.950 . S
H1025 C1030 0.949 . S
H1026 C1032 0.950 1_545 S
H1027 C1033 0.950 . S
H1028 C1034 0.949 . S
C1029 H1024 0.950 . S
C1029 C1031 1.327 . S
C1029 C1035 1.429 . S
C1030 C1022 1.574 . S
C1030 H1025 0.949 . S
C1030 C1036 1.368 . S
C1031 C1015 1.349 . S
C1031 H1023 0.950 . S
C1031 C1029 1.327 . S
C1032 C1020 1.349 . S
C1032 H1026 0.950 1_565 S
C1032 C1033 1.327 . S
C1033 H1027 0.950 . S
C1033 C1032 1.327 . S
C1033 C1037 1.429 . S
C1034 C1017 1.574 . S
C1034 H1028 0.949 . S
C1034 C1038 1.368 . S
C1035 C1016 1.429 . S
C1035 C1029 1.429 . S
C1035 C1036 1.523 . S
C1036 C1017 1.368 . S
C1036 C1030 1.368 . S
C1036 C1035 1.523 . S
C1037 C1021 1.429 . S
C1037 C1033 1.429 . S
C1037 C1038 1.523 . S
C1038 C1022 1.368 . S
C1038 C1034 1.368 . S
C1038 C1037 1.523 . S
H1039 C1014 0.950 . S
H1040 C1016 0.950 . S
H1041 C1017 0.949 . S
H1042 C1019 0.950 . S
H1043 C1021 0.950 . S
C1044 C1045 1.349 . S
C1044 C1046 1.327 . S
C1044 H1069 0.950 . S
C1045 C1044 1.349 . S
C1045 C1061 1.349 . S
C1046 C1044 1.327 . S
C1046 C1065 1.429 . S
C1046 H1070 0.950 . S
C1047 C1064 1.574 . S
C1047 C1066 1.368 . S
C1047 H1071 0.949 . S
H1048 C1052 0.949 . S
C1049 C1050 1.349 . S
C1049 C1051 1.327 . S
C1049 H1072 0.950 . S
C1050 C1049 1.349 . S
C1050 C1062 1.349 . S
C1051 C1049 1.327 . S
C1051 C1067 1.429 . S
C1051 H1073 0.950 . S
C1052 H1048 0.949 . S
C1052 C1060 1.574 . S
C1052 C1068 1.368 . S
H1053 C1061 0.950 . S
H1054 C1059 0.950 . S
H1055 C1060 0.949 . S
H1056 C1062 0.950 . S
H1057 C1063 0.950 . S
H1058 C1064 0.949 . S
C1059 H1054 0.950 . S
C1059 C1061 1.327 . S
C1059 C1065 1.429 . S
C1060 C1052 1.574 . S
C1060 H1055 0.949 . S
C1060 C1066 1.368 . S
C1061 C1045 1.349 . S
C1061 H1053 0.950 . S
C1061 C1059 1.327 . S
C1062 C1050 1.349 . S
C1062 H1056 0.950 . S
C1062 C1063 1.327 . S
C1063 H1057 0.950 . S
C1063 C1062 1.327 . S
C1063 C1067 1.429 . S
C1064 C1047 1.574 . S
C1064 H1058 0.949 . S
C1064 C1068 1.368 . S
C1065 C1046 1.429 . S
C1065 C1059 1.429 . S
C1065 C1066 1.523 . S
C1066 C1047 1.368 . S
C1066 C1060 1.368 . S
C1066 C1065 1.523 . S
C1067 C1051 1.429 . S
C1067 C1063 1.429 . S
C1067 C1068 1.523 . S
C1068 C1052 1.368 . S
C1068 C1064 1.368 . S
C1068 C1067 1.523 . S
H1069 C1044 0.950 . S
H1070 C1046 0.950 . S
H1071 C1047 0.949 . S
H1072 C1049 0.950 . S
H1073 C1051 0.950 . S
C1074 C1075 1.349 . S
C1074 C1076 1.327 . S
C1074 H1099 0.950 . S
C1075 C1074 1.349 . S
C1075 C1091 1.349 . S
C1076 C1074 1.327 . S
C1076 C1095 1.429 . S
C1076 H1100 0.950 . S
C1077 C1094 1.574 . S
C1077 C1096 1.368 . S
C1077 H1101 0.949 . S
H1078 C1082 0.949 . S
C1079 C1080 1.349 . S
C1079 C1081 1.327 . S
C1079 H1102 0.950 . S
C1080 C1079 1.349 . S
C1080 C1092 1.349 . S
C1081 C1079 1.327 . S
C1081 C1097 1.429 . S
C1081 H1103 0.950 . S
C1082 H1078 0.949 . S
C1082 C1090 1.574 . S
C1082 C1098 1.368 . S
H1083 C1091 0.950 . S
H1084 C1089 0.950 . S
H1085 C1090 0.949 . S
H1086 C1092 0.950 . S
H1087 C1093 0.950 . S
H1088 C1094 0.949 . S
C1089 H1084 0.950 . S
C1089 C1091 1.327 . S
C1089 C1095 1.429 . S
C1090 C1082 1.574 . S
C1090 H1085 0.949 . S
C1090 C1096 1.368 . S
C1091 C1075 1.349 . S
C1091 H1083 0.950 . S
C1091 C1089 1.327 . S
C1092 C1080 1.349 . S
C1092 H1086 0.950 . S
C1092 C1093 1.327 . S
C1093 H1087 0.950 . S
C1093 C1092 1.327 . S
C1093 C1097 1.429 . S
C1094 C1077 1.574 . S
C1094 H1088 0.949 . S
C1094 C1098 1.368 . S
C1095 C1076 1.429 . S
C1095 C1089 1.429 . S
C1095 C1096 1.523 . S
C1096 C1077 1.368 . S
C1096 C1090 1.368 . S
C1096 C1095 1.523 . S
C1097 C1081 1.429 . S
C1097 C1093 1.429 . S
C1097 C1098 1.523 . S
C1098 C1082 1.368 . S
C1098 C1094 1.368 . S
C1098 C1097 1.523 . S
H1099 C1074 0.950 . S
H1100 C1076 0.950 . S
H1101 C1077 0.949 . S
H1102 C1079 0.950 . S
H1103 C1081 0.950 . S
C1104 C1105 1.349 . S
C1104 C1106 1.327 . S
C1104 H1129 0.950 . S
C1105 C1104 1.349 . S
C1105 C1121 1.349 . S
C1106 C1104 1.327 . S
C1106 C1125 1.429 . S
C1106 H1130 0.950 . S
C1107 C1124 1.574 . S
C1107 C1126 1.368 . S
C1107 H1131 0.949 . S
H1108 C1112 0.949 . S
C1109 C1110 1.349 . S
C1109 C1111 1.327 . S
C1109 H1132 0.950 . S
C1110 C1109 1.349 . S
C1110 C1122 1.349 . S
C1111 C1109 1.327 . S
C1111 C1127 1.429 . S
C1111 H1133 0.950 . S
C1112 H1108 0.949 . S
C1112 C1120 1.574 . S
C1112 C1128 1.368 . S
H1113 C1121 0.950 . S
H1114 C1119 0.950 . S
H1115 C1120 0.949 . S
H1116 C1122 0.950 . S
H1117 C1123 0.950 . S
H1118 C1124 0.949 . S
C1119 H1114 0.950 . S
C1119 C1121 1.327 . S
C1119 C1125 1.429 . S
C1120 C1112 1.574 . S
C1120 H1115 0.949 . S
C1120 C1126 1.368 . S
C1121 C1105 1.349 . S
C1121 H1113 0.950 . S
C1121 C1119 1.327 . S
C1122 C1110 1.349 . S
C1122 H1116 0.950 . S
C1122 C1123 1.327 . S
C1123 H1117 0.950 . S
C1123 C1122 1.327 . S
C1123 C1127 1.429 . S
C1124 C1107 1.574 . S
C1124 H1118 0.949 . S
C1124 C1128 1.368 . S
C1125 C1106 1.429 . S
C1125 C1119 1.429 . S
C1125 C1126 1.523 . S
C1126 C1107 1.368 . S
C1126 C1120 1.368 . S
C1126 C1125 1.523 . S
C1127 C1111 1.429 . S
C1127 C1123 1.429 . S
C1127 C1128 1.523 . S
C1128 C1112 1.368 . S
C1128 C1124 1.368 . S
C1128 C1127 1.523 . S
H1129 C1104 0.950 . S
H1130 C1106 0.950 . S
H1131 C1107 0.949 . S
H1132 C1109 0.950 . S
H1133 C1111 0.950 . S
C1134 C1135 1.349 . S
C1134 C1136 1.327 . S
C1134 H1159 0.950 . S
C1135 C1134 1.349 . S
C1135 C1151 1.349 . S
C1136 C1134 1.327 . S
C1136 C1155 1.429 . S
C1136 H1160 0.950 . S
C1137 C1154 1.574 . S
C1137 C1156 1.368 . S
C1137 H1161 0.949 . S
H1138 C1142 0.949 . S
C1139 C1140 1.349 . S
C1139 C1141 1.327 1_556 S
C1139 H1162 0.950 . S
C1140 C1139 1.349 . S
C1140 C1152 1.349 . S
C1141 C1139 1.327 1_554 S
C1141 C1157 1.429 . S
C1141 H1163 0.950 . S
C1142 H1138 0.949 . S
C1142 C1150 1.574 . S
C1142 C1158 1.368 . S
H1143 C1151 0.950 . S
H1144 C1149 0.950 . S
H1145 C1150 0.949 . S
H1146 C1152 0.950 . S
H1147 C1153 0.950 . S
H1148 C1154 0.949 . S
C1149 H1144 0.950 . S
C1149 C1151 1.327 . S
C1149 C1155 1.429 . S
C1150 C1142 1.574 . S
C1150 H1145 0.949 . S
C1150 C1156 1.368 . S
C1151 C1135 1.349 . S
C1151 H1143 0.950 . S
C1151 C1149 1.327 . S
C1152 C1140 1.349 . S
C1152 H1146 0.950 . S
C1152 C1153 1.327 1_556 S
C1153 H1147 0.950 . S
C1153 C1152 1.327 1_554 S
C1153 C1157 1.429 . S
C1154 C1137 1.574 . S
C1154 H1148 0.949 . S
C1154 C1158 1.368 . S
C1155 C1136 1.429 . S
C1155 C1149 1.429 . S
C1155 C1156 1.523 . S
C1156 C1137 1.368 . S
C1156 C1150 1.368 . S
C1156 C1155 1.523 . S
C1157 C1141 1.429 . S
C1157 C1153 1.429 . S
C1157 C1158 1.523 . S
C1158 C1142 1.368 . S
C1158 C1154 1.368 . S
C1158 C1157 1.523 . S
H1159 C1134 0.950 . S
H1160 C1136 0.950 . S
H1161 C1137 0.949 . S
H1162 C1139 0.950 . S
H1163 C1141 0.950 . S
C1164 C1165 1.349 . S
C1164 C1166 1.327 . S
C1164 H1189 0.950 . S
C1165 C1164 1.349 . S
C1165 C1181 1.349 . S
C1166 C1164 1.327 . S
C1166 C1185 1.429 . S
C1166 H1190 0.950 . S
C1167 C1184 1.574 . S
C1167 C1186 1.368 . S
C1167 H1191 0.949 . S
H1168 C1172 0.949 . S
C1169 C1170 1.349 . S
C1169 C1171 1.327 1_556 S
C1169 H1192 0.950 . S
C1170 C1169 1.349 . S
C1170 C1182 1.349 . S
C1171 C1169 1.327 1_554 S
C1171 C1187 1.429 . S
C1171 H1193 0.950 . S
C1172 H1168 0.949 . S
C1172 C1180 1.574 . S
C1172 C1188 1.368 . S
H1173 C1181 0.950 . S
H1174 C1179 0.950 . S
H1175 C1180 0.949 . S
H1176 C1182 0.950 . S
H1177 C1183 0.950 . S
H1178 C1184 0.949 . S
C1179 H1174 0.950 . S
C1179 C1181 1.327 . S
C1179 C1185 1.429 . S
C1180 C1172 1.574 . S
C1180 H1175 0.949 . S
C1180 C1186 1.368 . S
C1181 C1165 1.349 . S
C1181 H1173 0.950 . S
C1181 C1179 1.327 . S
C1182 C1170 1.349 . S
C1182 H1176 0.950 . S
C1182 C1183 1.327 1_556 S
C1183 H1177 0.950 . S
C1183 C1182 1.327 1_554 S
C1183 C1187 1.429 . S
C1184 C1167 1.574 . S
C1184 H1178 0.949 . S
C1184 C1188 1.368 . S
C1185 C1166 1.429 . S
C1185 C1179 1.429 . S
C1185 C1186 1.523 . S
C1186 C1167 1.368 . S
C1186 C1180 1.368 . S
C1186 C1185 1.523 . S
C1187 C1171 1.429 . S
C1187 C1183 1.429 . S
C1187 C1188 1.523 . S
C1188 C1172 1.368 . S
C1188 C1184 1.368 . S
C1188 C1187 1.523 . S
H1189 C1164 0.950 . S
H1190 C1166 0.950 . S
H1191 C1167 0.949 . S
H1192 C1169 0.950 . S
H1193 C1171 0.950 . S
C1194 C1195 1.349 . S
C1194 C1196 1.327 . S
C1194 H1219 0.950 . S
C1195 C1194 1.349 . S
C1195 C1211 1.349 . S
C1196 C1194 1.327 . S
C1196 C1215 1.429 . S
C1196 H1220 0.950 . S
C1197 C1214 1.574 . S
C1197 C1216 1.368 . S
C1197 H1221 0.949 . S
H1198 C1202 0.949 . S
C1199 C1200 1.349 . S
C1199 C1201 1.327 1_556 S
C1199 H1222 0.950 . S
C1200 C1199 1.349 . S
C1200 C1212 1.349 . S
C1201 C1199 1.327 1_554 S
C1201 C1217 1.429 . S
C1201 H1223 0.950 . S
C1202 H1198 0.949 . S
C1202 C1210 1.574 . S
C1202 C1218 1.368 . S
H1203 C1211 0.950 . S
H1204 C1209 0.950 . S
H1205 C1210 0.949 . S
H1206 C1212 0.950 . S
H1207 C1213 0.950 . S
H1208 C1214 0.949 . S
C1209 H1204 0.950 . S
C1209 C1211 1.327 . S
C1209 C1215 1.429 . S
C1210 C1202 1.574 . S
C1210 H1205 0.949 . S
C1210 C1216 1.368 . S
C1211 C1195 1.349 . S
C1211 H1203 0.950 . S
C1211 C1209 1.327 . S
C1212 C1200 1.349 . S
C1212 H1206 0.950 . S
C1212 C1213 1.327 1_556 S
C1213 H1207 0.950 . S
C1213 C1212 1.327 1_554 S
C1213 C1217 1.429 . S
C1214 C1197 1.574 . S
C1214 H1208 0.949 . S
C1214 C1218 1.368 . S
C1215 C1196 1.429 . S
C1215 C1209 1.429 . S
C1215 C1216 1.523 . S
C1216 C1197 1.368 . S
C1216 C1210 1.368 . S
C1216 C1215 1.523 . S
C1217 C1201 1.429 . S
C1217 C1213 1.429 . S
C1217 C1218 1.523 . S
C1218 C1202 1.368 . S
C1218 C1214 1.368 . S
C1218 C1217 1.523 . S
H1219 C1194 0.950 . S
H1220 C1196 0.950 . S
H1221 C1197 0.949 . S
H1222 C1199 0.950 . S
H1223 C1201 0.950 . S
C1224 C1225 1.349 . S
C1224 C1226 1.327 . S
C1224 H1249 0.950 . S
C1225 C1224 1.349 . S
C1225 C1241 1.349 . S
C1226 C1224 1.327 . S
C1226 C1245 1.429 . S
C1226 H1250 0.950 . S
C1227 C1244 1.574 . S
C1227 C1246 1.368 . S
C1227 H1251 0.949 . S
H1228 C1232 0.949 . S
C1229 C1230 1.349 . S
C1229 C1231 1.327 . S
C1229 H1252 0.950 . S
C1230 C1229 1.349 . S
C1230 C1242 1.349 . S
C1231 C1229 1.327 . S
C1231 C1247 1.429 . S
C1231 H1253 0.950 . S
C1232 H1228 0.949 . S
C1232 C1240 1.574 . S
C1232 C1248 1.368 . S
H1233 C1241 0.950 . S
H1234 C1239 0.950 . S
H1235 C1240 0.949 . S
H1236 C1242 0.950 . S
H1237 C1243 0.950 . S
H1238 C1244 0.949 . S
C1239 H1234 0.950 . S
C1239 C1241 1.327 . S
C1239 C1245 1.429 . S
C1240 C1232 1.574 . S
C1240 H1235 0.949 . S
C1240 C1246 1.368 . S
C1241 C1225 1.349 . S
C1241 H1233 0.950 . S
C1241 C1239 1.327 . S
C1242 C1230 1.349 . S
C1242 H1236 0.950 . S
C1242 C1243 1.327 . S
C1243 H1237 0.950 . S
C1243 C1242 1.327 . S
C1243 C1247 1.429 . S
C1244 C1227 1.574 . S
C1244 H1238 0.949 . S
C1244 C1248 1.368 . S
C1245 C1226 1.429 . S
C1245 C1239 1.429 . S
C1245 C1246 1.523 . S
C1246 C1227 1.368 . S
C1246 C1240 1.368 . S
C1246 C1245 1.523 . S
C1247 C1231 1.429 . S
C1247 C1243 1.429 . S
C1247 C1248 1.523 . S
C1248 C1232 1.368 . S
C1248 C1244 1.368 . S
C1248 C1247 1.523 . S
H1249 C1224 0.950 . S
H1250 C1226 0.950 . S
H1251 C1227 0.949 . S
H1252 C1229 0.950 . S
H1253 C1231 0.950 . S
C1254 C1255 1.349 . S
C1254 C1256 1.327 . S
C1254 H1279 0.950 . S
C1255 C1254 1.349 . S
C1255 C1271 1.349 . S
C1256 C1254 1.327 . S
C1256 C1275 1.429 . S
C1256 H1280 0.950 . S
C1257 C1274 1.574 . S
C1257 C1276 1.368 . S
C1257 H1281 0.949 . S
H1258 C1262 0.949 . S
C1259 C1260 1.349 . S
C1259 C1261 1.327 . S
C1259 H1282 0.950 . S
C1260 C1259 1.349 . S
C1260 C1272 1.349 . S
C1261 C1259 1.327 . S
C1261 C1277 1.429 . S
C1261 H1283 0.950 . S
C1262 H1258 0.949 . S
C1262 C1270 1.574 . S
C1262 C1278 1.368 . S
H1263 C1271 0.950 . S
H1264 C1269 0.950 . S
H1265 C1270 0.949 . S
H1266 C1272 0.950 . S
H1267 C1273 0.950 . S
H1268 C1274 0.949 . S
C1269 H1264 0.950 . S
C1269 C1271 1.327 . S
C1269 C1275 1.429 . S
C1270 C1262 1.574 . S
C1270 H1265 0.949 . S
C1270 C1276 1.368 . S
C1271 C1255 1.349 . S
C1271 H1263 0.950 . S
C1271 C1269 1.327 . S
C1272 C1260 1.349 . S
C1272 H1266 0.950 . S
C1272 C1273 1.327 . S
C1273 H1267 0.950 . S
C1273 C1272 1.327 . S
C1273 C1277 1.429 . S
C1274 C1257 1.574 . S
C1274 H1268 0.949 . S
C1274 C1278 1.368 . S
C1275 C1256 1.429 . S
C1275 C1269 1.429 . S
C1275 C1276 1.523 . S
C1276 C1257 1.368 . S
C1276 C1270 1.368 . S
C1276 C1275 1.523 . S
C1277 C1261 1.429 . S
C1277 C1273 1.429 . S
C1277 C1278 1.523 . S
C1278 C1262 1.368 . S
C1278 C1274 1.368 . S
C1278 C1277 1.523 . S
H1279 C1254 0.950 . S
H1280 C1256 0.950 . S
H1281 C1257 0.949 . S
H1282 C1259 0.950 . S
H1283 C1261 0.950 . S
C1284 C1285 1.349 . S
C1284 C1286 1.327 . S
C1284 H1309 0.950 . S
C1285 C1284 1.349 . S
C1285 C1301 1.349 . S
C1286 C1284 1.327 . S
C1286 C1305 1.429 . S
C1286 H1310 0.950 . S
C1287 C1304 1.574 . S
C1287 C1306 1.368 . S
C1287 H1311 0.949 . S
H1288 C1292 0.949 . S
C1289 C1290 1.349 . S
C1289 C1291 1.327 . S
C1289 H1312 0.950 . S
C1290 C1289 1.349 . S
C1290 C1302 1.349 . S
C1291 C1289 1.327 . S
C1291 C1307 1.429 . S
C1291 H1313 0.950 . S
C1292 H1288 0.949 . S
C1292 C1300 1.574 . S
C1292 C1308 1.368 . S
H1293 C1301 0.950 . S
H1294 C1299 0.950 . S
H1295 C1300 0.949 . S
H1296 C1302 0.950 . S
H1297 C1303 0.950 . S
H1298 C1304 0.949 . S
C1299 H1294 0.950 . S
C1299 C1301 1.327 . S
C1299 C1305 1.429 . S
C1300 C1292 1.574 . S
C1300 H1295 0.949 . S
C1300 C1306 1.368 . S
C1301 C1285 1.349 . S
C1301 H1293 0.950 . S
C1301 C1299 1.327 . S
C1302 C1290 1.349 . S
C1302 H1296 0.950 . S
C1302 C1303 1.327 . S
C1303 H1297 0.950 . S
C1303 C1302 1.327 . S
C1303 C1307 1.429 . S
C1304 C1287 1.574 . S
C1304 H1298 0.949 . S
C1304 C1308 1.368 . S
C1305 C1286 1.429 . S
C1305 C1299 1.429 . S
C1305 C1306 1.523 . S
C1306 C1287 1.368 . S
C1306 C1300 1.368 . S
C1306 C1305 1.523 . S
C1307 C1291 1.429 . S
C1307 C1303 1.429 . S
C1307 C1308 1.523 . S
C1308 C1292 1.368 . S
C1308 C1304 1.368 . S
C1308 C1307 1.523 . S
H1309 C1284 0.950 . S
H1310 C1286 0.950 . S
H1311 C1287 0.949 . S
H1312 C1289 0.950 . S
H1313 C1291 0.950 . S
C1314 C1315 1.349 . S
C1314 C1316 1.327 1_554 S
C1314 H1339 0.950 . S
C1315 C1314 1.349 . S
C1315 C1331 1.349 . S
C1316 C1314 1.327 1_556 S
C1316 C1335 1.429 . S
C1316 H1340 0.950 . S
C1317 C1334 1.574 . S
C1317 C1336 1.368 . S
C1317 H1341 0.949 . S
H1318 C1322 0.949 . S
C1319 C1320 1.349 . S
C1319 C1321 1.327 . S
C1319 H1342 0.950 . S
C1320 C1319 1.349 . S
C1320 C1332 1.349 . S
C1321 C1319 1.327 . S
C1321 C1337 1.429 . S
C1321 H1343 0.950 . S
C1322 H1318 0.949 . S
C1322 C1330 1.574 . S
C1322 C1338 1.368 . S
H1323 C1331 0.950 . S
H1324 C1329 0.950 . S
H1325 C1330 0.949 . S
H1326 C1332 0.950 . S
H1327 C1333 0.950 . S
H1328 C1334 0.949 . S
C1329 H1324 0.950 . S
C1329 C1331 1.327 1_556 S
C1329 C1335 1.429 . S
C1330 C1322 1.574 . S
C1330 H1325 0.949 . S
C1330 C1336 1.368 . S
C1331 C1315 1.349 . S
C1331 H1323 0.950 . S
C1331 C1329 1.327 1_554 S
C1332 C1320 1.349 . S
C1332 H1326 0.950 . S
C1332 C1333 1.327 . S
C1333 H1327 0.950 . S
C1333 C1332 1.327 . S
C1333 C1337 1.429 . S
C1334 C1317 1.574 . S
C1334 H1328 0.949 . S
C1334 C1338 1.368 . S
C1335 C1316 1.429 . S
C1335 C1329 1.429 . S
C1335 C1336 1.523 . S
C1336 C1317 1.368 . S
C1336 C1330 1.368 . S
C1336 C1335 1.523 . S
C1337 C1321 1.429 . S
C1337 C1333 1.429 . S
C1337 C1338 1.523 . S
C1338 C1322 1.368 . S
C1338 C1334 1.368 . S
C1338 C1337 1.523 . S
H1339 C1314 0.950 . S
H1340 C1316 0.950 . S
H1341 C1317 0.949 . S
H1342 C1319 0.950 . S
H1343 C1321 0.950 . S
C1344 C1345 1.349 . S
C1344 C1346 1.327 1_554 S
C1344 H1369 0.950 . S
C1345 C1344 1.349 . S
C1345 C1361 1.349 . S
C1346 C1344 1.327 1_556 S
C1346 C1365 1.429 . S
C1346 H1370 0.950 . S
C1347 C1364 1.574 . S
C1347 C1366 1.368 . S
C1347 H1371 0.949 . S
H1348 C1352 0.949 . S
C1349 C1350 1.349 . S
C1349 C1351 1.327 . S
C1349 H1372 0.950 . S
C1350 C1349 1.349 . S
C1350 C1362 1.349 . S
C1351 C1349 1.327 . S
C1351 C1367 1.429 . S
C1351 H1373 0.950 . S
C1352 H1348 0.949 . S
C1352 C1360 1.574 . S
C1352 C1368 1.368 . S
H1353 C1361 0.950 . S
H1354 C1359 0.950 . S
H1355 C1360 0.949 . S
H1356 C1362 0.950 . S
H1357 C1363 0.950 . S
H1358 C1364 0.949 . S
C1359 H1354 0.950 . S
C1359 C1361 1.327 1_556 S
C1359 C1365 1.429 . S
C1360 C1352 1.574 . S
C1360 H1355 0.949 . S
C1360 C1366 1.368 . S
C1361 C1345 1.349 . S
C1361 H1353 0.950 . S
C1361 C1359 1.327 1_554 S
C1362 C1350 1.349 . S
C1362 H1356 0.950 . S
C1362 C1363 1.327 . S
C1363 H1357 0.950 . S
C1363 C1362 1.327 . S
C1363 C1367 1.429 . S
C1364 C1347 1.574 . S
C1364 H1358 0.949 . S
C1364 C1368 1.368 . S
C1365 C1346 1.429 . S
C1365 C1359 1.429 . S
C1365 C1366 1.523 . S
C1366 C1347 1.368 . S
C1366 C1360 1.368 . S
C1366 C1365 1.523 . S
C1367 C1351 1.429 . S
C1367 C1363 1.429 . S
C1367 C1368 1.523 . S
C1368 C1352 1.368 . S
C1368 C1364 1.368 . S
C1368 C1367 1.523 . S
H1369 C1344 0.950 . S
H1370 C1346 0.950 . S
H1371 C1347 0.949 . S
H1372 C1349 0.950 . S
H1373 C1351 0.950 . S
C1374 C1375 1.349 . S
C1374 C1376 1.327 . S
C1374 H1399 0.950 . S
C1375 C1374 1.349 . S
C1375 C1391 1.349 . S
C1376 C1374 1.327 . S
C1376 C1395 1.429 . S
C1376 H1400 0.950 . S
C1377 C1394 1.574 . S
C1377 C1396 1.368 . S
C1377 H1401 0.949 . S
H1378 C1382 0.949 . S
C1379 C1380 1.349 . S
C1379 C1381 1.327 1_554 S
C1379 H1402 0.950 . S
C1380 C1379 1.349 . S
C1380 C1392 1.349 . S
C1381 C1379 1.327 1_556 S
C1381 C1397 1.429 . S
C1381 H1403 0.950 . S
C1382 H1378 0.949 . S
C1382 C1390 1.574 . S
C1382 C1398 1.368 . S
H1383 C1391 0.950 . S
H1384 C1389 0.950 . S
H1385 C1390 0.949 . S
H1386 C1392 0.950 . S
H1387 C1393 0.950 . S
H1388 C1394 0.949 . S
C1389 H1384 0.950 . S
C1389 C1391 1.327 . S
C1389 C1395 1.429 . S
C1390 C1382 1.574 . S
C1390 H1385 0.949 . S
C1390 C1396 1.368 . S
C1391 C1375 1.349 . S
C1391 H1383 0.950 . S
C1391 C1389 1.327 . S
C1392 C1380 1.349 . S
C1392 H1386 0.950 . S
C1392 C1393 1.327 1_554 S
C1393 H1387 0.950 . S
C1393 C1392 1.327 1_556 S
C1393 C1397 1.429 . S
C1394 C1377 1.574 . S
C1394 H1388 0.949 . S
C1394 C1398 1.368 . S
C1395 C1376 1.429 . S
C1395 C1389 1.429 . S
C1395 C1396 1.523 . S
C1396 C1377 1.368 . S
C1396 C1390 1.368 . S
C1396 C1395 1.523 . S
C1397 C1381 1.429 . S
C1397 C1393 1.429 . S
C1397 C1398 1.523 . S
C1398 C1382 1.368 . S
C1398 C1394 1.368 . S
C1398 C1397 1.523 . S
H1399 C1374 0.950 . S
H1400 C1376 0.950 . S
H1401 C1377 0.949 . S
H1402 C1379 0.950 . S
H1403 C1381 0.950 . S
C1404 C1405 1.349 . S
C1404 C1406 1.327 . S
C1404 H1429 0.950 . S
C1405 C1404 1.349 . S
C1405 C1421 1.349 . S
C1406 C1404 1.327 . S
C1406 C1425 1.429 . S
C1406 H1430 0.950 . S
C1407 C1424 1.572 . S
C1407 C1426 1.368 . S
C1407 H1431 0.949 . S
H1408 C1412 0.949 . S
C1409 C1410 1.349 . S
C1409 C1411 1.327 . S
C1409 H1432 0.950 . S
C1410 C1409 1.349 . S
C1410 C1422 1.349 . S
C1411 C1409 1.327 . S
C1411 C1427 1.429 . S
C1411 H1433 0.950 . S
C1412 H1408 0.949 . S
C1412 C1420 1.572 . S
C1412 C1428 1.368 . S
H1413 C1421 0.950 . S
H1414 C1419 0.950 . S
H1415 C1420 0.944 1_455 S
H1416 C1422 0.950 . S
H1417 C1423 0.950 . S
H1418 C1424 0.944 1_655 S
C1419 H1414 0.950 . S
C1419 C1421 1.327 . S
C1419 C1425 1.429 . S
C1420 C1412 1.572 . S
C1420 H1415 0.944 1_655 S
C1420 C1426 1.373 1_655 S
C1421 C1405 1.349 . S
C1421 H1413 0.950 . S
C1421 C1419 1.327 . S
C1422 C1410 1.349 . S
C1422 H1416 0.950 . S
C1422 C1423 1.327 . S
C1423 H1417 0.950 . S
C1423 C1422 1.327 . S
C1423 C1427 1.429 . S
C1424 C1407 1.572 . S
C1424 H1418 0.944 1_455 S
C1424 C1428 1.373 1_455 S
C1425 C1406 1.429 . S
C1425 C1419 1.429 . S
C1425 C1426 1.523 . S
C1426 C1407 1.368 . S
C1426 C1420 1.373 1_455 S
C1426 C1425 1.523 . S
C1427 C1411 1.429 . S
C1427 C1423 1.429 . S
C1427 C1428 1.523 . S
C1428 C1412 1.368 . S
C1428 C1424 1.373 1_655 S
C1428 C1427 1.523 . S
H1429 C1404 0.950 . S
H1430 C1406 0.950 . S
H1431 C1407 0.949 . S
H1432 C1409 0.950 . S
H1433 C1411 0.950 . S
C1434 C1435 1.349 . S
C1434 C1436 1.327 . S
C1434 H1459 0.950 . S
C1435 C1434 1.349 . S
C1435 C1451 1.349 . S
C1436 C1434 1.327 . S
C1436 C1455 1.429 . S
C1436 H1460 0.950 . S
C1437 C1454 1.574 . S
C1437 C1456 1.368 . S
C1437 H1461 0.949 . S
H1438 C1442 0.949 . S
C1439 C1440 1.349 . S
C1439 C1441 1.327 . S
C1439 H1462 0.950 . S
C1440 C1439 1.349 . S
C1440 C1452 1.349 . S
C1441 C1439 1.327 . S
C1441 C1457 1.429 . S
C1441 H1463 0.950 . S
C1442 H1438 0.949 . S
C1442 C1450 1.574 . S
C1442 C1458 1.368 . S
H1443 C1451 0.950 . S
H1444 C1449 0.950 . S
H1445 C1450 0.949 . S
H1446 C1452 0.950 . S
H1447 C1453 0.950 . S
H1448 C1454 0.949 . S
C1449 H1444 0.950 . S
C1449 C1451 1.327 . S
C1449 C1455 1.429 . S
C1450 C1442 1.574 . S
C1450 H1445 0.949 . S
C1450 C1456 1.368 . S
C1451 C1435 1.349 . S
C1451 H1443 0.950 . S
C1451 C1449 1.327 . S
C1452 C1440 1.349 . S
C1452 H1446 0.950 . S
C1452 C1453 1.327 . S
C1453 H1447 0.950 . S
C1453 C1452 1.327 . S
C1453 C1457 1.429 . S
C1454 C1437 1.574 . S
C1454 H1448 0.949 . S
C1454 C1458 1.368 . S
C1455 C1436 1.429 . S
C1455 C1449 1.429 . S
C1455 C1456 1.523 . S
C1456 C1437 1.368 . S
C1456 C1450 1.368 . S
C1456 C1455 1.523 . S
C1457 C1441 1.429 . S
C1457 C1453 1.429 . S
C1457 C1458 1.523 . S
C1458 C1442 1.368 . S
C1458 C1454 1.368 . S
C1458 C1457 1.523 . S
H1459 C1434 0.950 . S
H1460 C1436 0.950 . S
H1461 C1437 0.949 . S
H1462 C1439 0.950 . S
H1463 C1441 0.950 . S
C1464 C1465 1.349 . S
C1464 C1466 1.327 . S
C1464 H1489 0.950 . S
C1465 C1464 1.349 . S
C1465 C1481 1.349 . S
C1466 C1464 1.327 . S
C1466 C1485 1.429 . S
C1466 H1490 0.950 1_545 S
C1467 C1484 1.574 . S
C1467 C1486 1.368 . S
C1467 H1491 0.949 . S
H1468 C1472 0.949 . S
C1469 C1470 1.349 . S
C1469 C1471 1.327 . S
C1469 H1492 0.950 . S
C1470 C1469 1.349 . S
C1470 C1482 1.349 . S
C1471 C1469 1.327 . S
C1471 C1487 1.429 . S
C1471 H1493 0.950 1_565 S
C1472 H1468 0.949 . S
C1472 C1480 1.574 . S
C1472 C1488 1.368 . S
H1473 C1481 0.950 . S
H1474 C1479 0.950 . S
H1475 C1480 0.949 . S
H1476 C1482 0.950 . S
H1477 C1483 0.950 . S
H1478 C1484 0.949 . S
C1479 H1474 0.950 . S
C1479 C1481 1.327 . S
C1479 C1485 1.429 . S
C1480 C1472 1.574 . S
C1480 H1475 0.949 . S
C1480 C1486 1.368 1_565 S
C1481 C1465 1.349 . S
C1481 H1473 0.950 . S
C1481 C1479 1.327 . S
C1482 C1470 1.349 . S
C1482 H1476 0.950 . S
C1482 C1483 1.327 . S
C1483 H1477 0.950 . S
C1483 C1482 1.327 . S
C1483 C1487 1.429 . S
C1484 C1467 1.574 . S
C1484 H1478 0.949 . S
C1484 C1488 1.368 1_545 S
C1485 C1466 1.429 . S
C1485 C1479 1.429 . S
C1485 C1486 1.523 . S
C1486 C1467 1.368 . S
C1486 C1480 1.368 1_545 S
C1486 C1485 1.523 . S
C1487 C1471 1.429 . S
C1487 C1483 1.429 . S
C1487 C1488 1.523 . S
C1488 C1472 1.368 . S
C1488 C1484 1.368 1_565 S
C1488 C1487 1.523 . S
H1489 C1464 0.950 . S
H1490 C1466 0.950 1_565 S
H1491 C1467 0.949 . S
H1492 C1469 0.950 . S
H1493 C1471 0.950 1_545 S
C1494 C1495 1.349 . S
C1494 C1496 1.327 . S
C1494 H1519 0.981 . S
C1495 C1494 1.349 . S
C1495 C1511 1.349 . S
C1496 C1494 1.327 . S
C1496 C1515 1.429 . S
C1496 H1520 0.950 1_565 S
C1497 C1514 1.574 . S
C1497 C1516 1.368 . S
C1497 H1521 0.949 . S
H1498 C1502 0.949 . S
C1499 C1500 1.349 . S
C1499 C1501 1.327 . S
C1499 H1522 0.983 . S
C1500 C1499 1.349 . S
C1500 C1512 1.349 . S
C1501 C1499 1.327 . S
C1501 C1517 1.429 . S
C1501 H1523 0.950 1_545 S
C1502 H1498 0.949 . S
C1502 C1510 1.574 . S
C1502 C1518 1.368 . S
H1503 C1511 0.950 . S
H1504 C1509 0.950 . S
H1505 C1510 0.949 . S
H1506 C1512 0.950 . S
H1507 C1513 0.950 . S
H1508 C1514 0.949 . S
C1509 H1504 0.950 . S
C1509 C1511 1.327 . S
C1509 C1515 1.429 . S
C1510 C1502 1.574 . S
C1510 H1505 0.949 . S
C1510 C1516 1.368 1_545 S
C1511 C1495 1.349 . S
C1511 H1503 0.950 . S
C1511 C1509 1.327 . S
C1512 C1500 1.349 . S
C1512 H1506 0.950 . S
C1512 C1513 1.327 . S
C1513 H1507 0.950 . S
C1513 C1512 1.327 . S
C1513 C1517 1.429 . S
C1514 C1497 1.574 . S
C1514 H1508 0.949 . S
C1514 C1518 1.368 1_565 S
C1515 C1496 1.429 . S
C1515 C1509 1.429 . S
C1515 C1516 1.523 . S
C1516 C1497 1.368 . S
C1516 C1510 1.368 1_565 S
C1516 C1515 1.523 . S
C1517 C1501 1.429 . S
C1517 C1513 1.429 . S
C1517 C1518 1.523 . S
C1518 C1502 1.368 . S
C1518 C1514 1.368 1_545 S
C1518 C1517 1.523 . S
H1519 C1494 0.981 . S
H1520 C1496 0.950 1_545 S
H1521 C1497 0.949 . S
H1522 C1499 0.983 . S
H1523 C1501 0.950 1_565 S
C1524 C1525 1.349 . S
C1524 C1526 1.327 . S
C1524 H1549 0.950 . S
C1525 C1524 1.349 . S
C1525 C1541 1.349 . S
C1526 C1524 1.327 . S
C1526 C1545 1.429 . S
C1526 H1550 0.950 . S
C1527 C1544 1.574 . S
C1527 C1546 1.368 1_455 S
C1527 H1551 0.949 . S
H1528 C1532 0.949 . S
C1529 C1530 1.349 . S
C1529 C1531 1.327 . S
C1529 H1552 0.950 . S
C1530 C1529 1.349 . S
C1530 C1542 1.349 . S
C1531 C1529 1.327 . S
C1531 C1547 1.429 . S
C1531 H1553 0.950 . S
C1532 H1528 0.949 . S
C1532 C1540 1.574 . S
C1532 C1548 1.368 1_655 S
H1533 C1541 0.927 1_455 S
H1534 C1539 0.908 1_455 S
H1535 C1540 0.949 . S
H1536 C1542 0.928 1_655 S
H1537 C1543 0.908 1_655 S
H1538 C1544 0.949 . S
C1539 H1534 0.908 1_655 S
C1539 C1541 1.347 . S
C1539 C1545 1.453 . S
C1540 C1532 1.574 . S
C1540 H1535 0.949 . S
C1540 C1546 1.368 . S
C1541 C1525 1.349 . S
C1541 H1533 0.927 1_655 S
C1541 C1539 1.347 . S
C1542 C1530 1.349 . S
C1542 H1536 0.928 1_455 S
C1542 C1543 1.347 . S
C1543 H1537 0.908 1_455 S
C1543 C1542 1.347 . S
C1543 C1547 1.453 . S
C1544 C1527 1.574 . S
C1544 H1538 0.949 . S
C1544 C1548 1.368 . S
C1545 C1526 1.429 . S
C1545 C1539 1.453 . S
C1545 C1546 1.523 . S
C1546 C1527 1.368 1_655 S
C1546 C1540 1.368 . S
C1546 C1545 1.523 . S
C1547 C1531 1.429 . S
C1547 C1543 1.453 . S
C1547 C1548 1.523 . S
C1548 C1532 1.368 1_455 S
C1548 C1544 1.368 . S
C1548 C1547 1.523 . S
H1549 C1524 0.950 . S
H1550 C1526 0.950 . S
H1551 C1527 0.949 . S
H1552 C1529 0.950 . S
H1553 C1531 0.950 . S
C1554 C1555 1.349 . S
C1554 C1556 1.327 . S
C1554 H1579 0.950 . S
C1555 C1554 1.349 . S
C1555 C1571 1.349 . S
C1556 C1554 1.327 . S
C1556 C1575 1.429 . S
C1556 H1580 0.950 . S
C1557 C1574 1.574 . S
C1557 C1576 1.368 . S
C1557 H1581 0.949 . S
H1558 C1562 0.949 . S
C1559 C1560 1.349 . S
C1559 C1561 1.327 . S
C1559 H1582 0.950 . S
C1560 C1559 1.349 . S
C1560 C1572 1.349 . S
C1561 C1559 1.327 . S
C1561 C1577 1.429 . S
C1561 H1583 0.950 . S
C1562 H1558 0.949 . S
C1562 C1570 1.574 . S
C1562 C1578 1.368 . S
H1563 C1571 0.950 . S
H1564 C1569 0.950 . S
H1565 C1570 0.949 . S
H1566 C1572 0.950 . S
H1567 C1573 0.950 . S
H1568 C1574 0.949 . S
C1569 H1564 0.950 . S
C1569 C1571 1.327 . S
C1569 C1575 1.429 . S
C1570 C1562 1.574 . S
C1570 H1565 0.949 . S
C1570 C1576 1.368 . S
C1571 C1555 1.349 . S
C1571 H1563 0.950 . S
C1571 C1569 1.327 . S
C1572 C1560 1.349 . S
C1572 H1566 0.950 . S
C1572 C1573 1.327 . S
C1573 H1567 0.950 . S
C1573 C1572 1.327 . S
C1573 C1577 1.429 . S
C1574 C1557 1.574 . S
C1574 H1568 0.949 . S
C1574 C1578 1.368 . S
C1575 C1556 1.429 . S
C1575 C1569 1.429 . S
C1575 C1576 1.523 . S
C1576 C1557 1.368 . S
C1576 C1570 1.368 . S
C1576 C1575 1.523 . S
C1577 C1561 1.429 . S
C1577 C1573 1.429 . S
C1577 C1578 1.523 . S
C1578 C1562 1.368 . S
C1578 C1574 1.368 . S
C1578 C1577 1.523 . S
H1579 C1554 0.950 . S
H1580 C1556 0.950 . S
H1581 C1557 0.949 . S
H1582 C1559 0.950 . S
H1583 C1561 0.950 . S
C1584 C1585 1.349 . S
C1584 C1586 1.327 . S
C1584 H1609 0.950 . S
C1585 C1584 1.349 . S
C1585 C1601 1.349 . S
C1586 C1584 1.327 . S
C1586 C1605 1.429 . S
C1586 H1610 0.950 . S
C1587 C1604 1.574 . S
C1587 C1606 1.368 . S
C1587 H1611 0.949 . S
H1588 C1592 0.949 . S
C1589 C1590 1.349 . S
C1589 C1591 1.327 . S
C1589 H1612 0.950 . S
C1590 C1589 1.349 . S
C1590 C1602 1.349 . S
C1591 C1589 1.327 . S
C1591 C1607 1.429 . S
C1591 H1613 0.950 . S
C1592 H1588 0.949 . S
C1592 C1600 1.574 . S
C1592 C1608 1.368 . S
H1593 C1601 0.950 . S
H1594 C1599 0.950 . S
H1595 C1600 0.949 . S
H1596 C1602 0.950 . S
H1597 C1603 0.950 . S
H1598 C1604 0.949 . S
C1599 H1594 0.950 . S
C1599 C1601 1.327 . S
C1599 C1605 1.429 . S
C1600 C1592 1.574 . S
C1600 H1595 0.949 . S
C1600 C1606 1.368 . S
C1601 C1585 1.349 . S
C1601 H1593 0.950 . S
C1601 C1599 1.327 . S
C1602 C1590 1.349 . S
C1602 H1596 0.950 . S
C1602 C1603 1.327 . S
C1603 H1597 0.950 . S
C1603 C1602 1.327 . S
C1603 C1607 1.429 . S
C1604 C1587 1.574 . S
C1604 H1598 0.949 . S
C1604 C1608 1.368 . S
C1605 C1586 1.429 . S
C1605 C1599 1.429 . S
C1605 C1606 1.523 . S
C1606 C1587 1.368 . S
C1606 C1600 1.368 . S
C1606 C1605 1.523 . S
C1607 C1591 1.429 . S
C1607 C1603 1.429 . S
C1607 C1608 1.523 . S
C1608 C1592 1.368 . S
C1608 C1604 1.368 . S
C1608 C1607 1.523 . S
H1609 C1584 0.950 . S
H1610 C1586 0.950 . S
H1611 C1587 0.949 . S
H1612 C1589 0.950 . S
H1613 C1591 0.950 . S
C1614 C1615 1.349 . S
C1614 C1616 1.327 . S
C1614 H1639 0.950 . S
C1615 C1614 1.349 . S
C1615 C1631 1.349 . S
C1616 C1614 1.327 . S
C1616 C1635 1.429 . S
C1616 H1640 0.950 . S
C1617 C1634 1.574 . S
C1617 C1636 1.368 . S
C1617 H1641 0.949 . S
H1618 C1622 0.949 . S
C1619 C1620 1.349 . S
C1619 C1621 1.327 . S
C1619 H1642 0.950 . S
C1620 C1619 1.349 . S
C1620 C1632 1.349 . S
C1621 C1619 1.327 . S
C1621 C1637 1.429 . S
C1621 H1643 0.950 . S
C1622 H1618 0.949 . S
C1622 C1630 1.574 . S
C1622 C1638 1.368 . S
H1623 C1631 0.950 . S
H1624 C1629 0.950 . S
H1625 C1630 0.949 . S
H1626 C1632 0.950 . S
H1627 C1633 0.950 . S
H1628 C1634 0.949 . S
C1629 H1624 0.950 . S
C1629 C1631 1.327 . S
C1629 C1635 1.429 . S
C1630 C1622 1.574 . S
C1630 H1625 0.949 . S
C1630 C1636 1.368 . S
C1631 C1615 1.349 . S
C1631 H1623 0.950 . S
C1631 C1629 1.327 . S
C1632 C1620 1.349 . S
C1632 H1626 0.950 . S
C1632 C1633 1.327 . S
C1633 H1627 0.950 . S
C1633 C1632 1.327 . S
C1633 C1637 1.429 . S
C1634 C1617 1.574 . S
C1634 H1628 0.949 . S
C1634 C1638 1.368 . S
C1635 C1616 1.429 . S
C1635 C1629 1.429 . S
C1635 C1636 1.523 . S
C1636 C1617 1.368 . S
C1636 C1630 1.368 . S
C1636 C1635 1.523 . S
C1637 C1621 1.429 . S
C1637 C1633 1.429 . S
C1637 C1638 1.523 . S
C1638 C1622 1.368 . S
C1638 C1634 1.368 . S
C1638 C1637 1.523 . S
H1639 C1614 0.950 . S
H1640 C1616 0.950 . S
H1641 C1617 0.949 . S
H1642 C1619 0.950 . S
H1643 C1621 0.950 . S
C1644 C1645 1.349 . S
C1644 C1646 1.327 . S
C1644 H1669 0.950 . S
C1645 C1644 1.349 . S
C1645 C1661 1.349 . S
C1646 C1644 1.327 . S
C1646 C1665 1.429 . S
C1646 H1670 0.950 . S
C1647 C1664 1.574 . S
C1647 C1666 1.368 . S
C1647 H1671 0.949 . S
H1648 C1652 0.949 . S
C1649 C1650 1.349 . S
C1649 C1651 1.327 . S
C1649 H1672 0.950 . S
C1650 C1649 1.349 . S
C1650 C1662 1.349 . S
C1651 C1649 1.327 . S
C1651 C1667 1.429 . S
C1651 H1673 0.950 . S
C1652 H1648 0.949 . S
C1652 C1660 1.574 . S
C1652 C1668 1.368 . S
H1653 C1661 0.950 . S
H1654 C1659 0.950 . S
H1655 C1660 0.949 . S
H1656 C1662 0.950 . S
H1657 C1663 0.950 . S
H1658 C1664 0.949 . S
C1659 H1654 0.950 . S
C1659 C1661 1.327 . S
C1659 C1665 1.429 . S
C1660 C1652 1.574 . S
C1660 H1655 0.949 . S
C1660 C1666 1.368 . S
C1661 C1645 1.349 . S
C1661 H1653 0.950 . S
C1661 C1659 1.327 . S
C1662 C1650 1.349 . S
C1662 H1656 0.950 . S
C1662 C1663 1.327 . S
C1663 H1657 0.950 . S
C1663 C1662 1.327 . S
C1663 C1667 1.429 . S
C1664 C1647 1.574 . S
C1664 H1658 0.949 . S
C1664 C1668 1.368 . S
C1665 C1646 1.429 . S
C1665 C1659 1.429 . S
C1665 C1666 1.523 . S
C1666 C1647 1.368 . S
C1666 C1660 1.368 . S
C1666 C1665 1.523 . S
C1667 C1651 1.429 . S
C1667 C1663 1.429 . S
C1667 C1668 1.523 . S
C1668 C1652 1.368 . S
C1668 C1664 1.368 . S
C1668 C1667 1.523 . S
H1669 C1644 0.950 . S
H1670 C1646 0.950 . S
H1671 C1647 0.949 . S
H1672 C1649 0.950 . S
H1673 C1651 0.950 . S
C1674 C1675 1.349 . S
C1674 C1676 1.327 . S
C1674 H1699 0.950 . S
C1675 C1674 1.349 . S
C1675 C1691 1.349 . S
C1676 C1674 1.327 . S
C1676 C1695 1.429 . S
C1676 H1700 0.950 . S
C1677 C1694 1.574 . S
C1677 C1696 1.368 . S
C1677 H1701 0.949 . S
H1678 C1682 0.949 . S
C1679 C1680 1.349 . S
C1679 C1681 1.327 . S
C1679 H1702 0.950 . S
C1680 C1679 1.349 . S
C1680 C1692 1.349 . S
C1681 C1679 1.327 . S
C1681 C1697 1.429 . S
C1681 H1703 0.950 . S
C1682 H1678 0.949 . S
C1682 C1690 1.574 . S
C1682 C1698 1.368 . S
H1683 C1691 0.950 . S
H1684 C1689 0.950 . S
H1685 C1690 0.949 . S
H1686 C1692 0.950 . S
H1687 C1693 0.950 . S
H1688 C1694 0.949 . S
C1689 H1684 0.950 . S
C1689 C1691 1.327 . S
C1689 C1695 1.429 . S
C1690 C1682 1.574 . S
C1690 H1685 0.949 . S
C1690 C1696 1.368 . S
C1691 C1675 1.349 . S
C1691 H1683 0.950 . S
C1691 C1689 1.327 . S
C1692 C1680 1.349 . S
C1692 H1686 0.950 . S
C1692 C1693 1.327 . S
C1693 H1687 0.950 . S
C1693 C1692 1.327 . S
C1693 C1697 1.429 . S
C1694 C1677 1.574 . S
C1694 H1688 0.949 . S
C1694 C1698 1.368 . S
C1695 C1676 1.429 . S
C1695 C1689 1.429 . S
C1695 C1696 1.523 . S
C1696 C1677 1.368 . S
C1696 C1690 1.368 . S
C1696 C1695 1.523 . S
C1697 C1681 1.429 . S
C1697 C1693 1.429 . S
C1697 C1698 1.523 . S
C1698 C1682 1.368 . S
C1698 C1694 1.368 . S
C1698 C1697 1.523 . S
H1699 C1674 0.950 . S
H1700 C1676 0.950 . S
H1701 C1677 0.949 . S
H1702 C1679 0.950 . S
H1703 C1681 0.950 . S
C1704 C1705 1.349 . S
C1704 C1706 1.327 . S
C1704 H1729 0.950 . S
C1705 C1704 1.349 . S
C1705 C1721 1.349 . S
C1706 C1704 1.327 . S
C1706 C1725 1.429 . S
C1706 H1730 0.950 . S
C1707 C1724 1.574 . S
C1707 C1726 1.368 . S
C1707 H1731 0.949 . S
H1708 C1712 0.949 . S
C1709 C1710 1.349 . S
C1709 C1711 1.327 . S
C1709 H1732 0.950 . S
C1710 C1709 1.349 . S
C1710 C1722 1.349 . S
C1711 C1709 1.327 . S
C1711 C1727 1.429 . S
C1711 H1733 0.950 . S
C1712 H1708 0.949 . S
C1712 C1720 1.574 . S
C1712 C1728 1.368 . S
H1713 C1721 0.950 . S
H1714 C1719 0.950 . S
H1715 C1720 0.949 . S
H1716 C1722 0.950 . S
H1717 C1723 0.950 . S
H1718 C1724 0.949 . S
C1719 H1714 0.950 . S
C1719 C1721 1.327 . S
C1719 C1725 1.429 . S
C1720 C1712 1.574 . S
C1720 H1715 0.949 . S
C1720 C1726 1.368 . S
C1721 C1705 1.349 . S
C1721 H1713 0.950 . S
C1721 C1719 1.327 . S
C1722 C1710 1.349 . S
C1722 H1716 0.950 . S
C1722 C1723 1.327 . S
C1723 H1717 0.950 . S
C1723 C1722 1.327 . S
C1723 C1727 1.429 . S
C1724 C1707 1.574 . S
C1724 H1718 0.949 . S
C1724 C1728 1.368 . S
C1725 C1706 1.429 . S
C1725 C1719 1.429 . S
C1725 C1726 1.523 . S
C1726 C1707 1.368 . S
C1726 C1720 1.368 . S
C1726 C1725 1.523 . S
C1727 C1711 1.429 . S
C1727 C1723 1.429 . S
C1727 C1728 1.523 . S
C1728 C1712 1.368 . S
C1728 C1724 1.368 . S
C1728 C1727 1.523 . S
H1729 C1704 0.950 . S
H1730 C1706 0.950 . S
H1731 C1707 0.949 . S
H1732 C1709 0.950 . S
H1733 C1711 0.950 . S
C1734 C1735 1.349 . S
C1734 C1736 1.327 . S
C1734 H1759 0.950 . S
C1735 C1734 1.349 . S
C1735 C1751 1.349 . S
C1736 C1734 1.327 . S
C1736 C1755 1.429 . S
C1736 H1760 0.950 . S
C1737 C1754 1.574 . S
C1737 C1756 1.368 . S
C1737 H1761 0.949 . S
H1738 C1742 0.949 . S
C1739 C1740 1.349 . S
C1739 C1741 1.327 . S
C1739 H1762 0.950 . S
C1740 C1739 1.349 . S
C1740 C1752 1.349 . S
C1741 C1739 1.327 . S
C1741 C1757 1.429 . S
C1741 H1763 0.950 . S
C1742 H1738 0.949 . S
C1742 C1750 1.574 . S
C1742 C1758 1.368 . S
H1743 C1751 0.950 . S
H1744 C1749 0.950 . S
H1745 C1750 0.949 . S
H1746 C1752 0.950 . S
H1747 C1753 0.950 . S
H1748 C1754 0.949 . S
C1749 H1744 0.950 . S
C1749 C1751 1.327 . S
C1749 C1755 1.429 . S
C1750 C1742 1.574 . S
C1750 H1745 0.949 . S
C1750 C1756 1.368 . S
C1751 C1735 1.349 . S
C1751 H1743 0.950 . S
C1751 C1749 1.327 . S
C1752 C1740 1.349 . S
C1752 H1746 0.950 . S
C1752 C1753 1.327 . S
C1753 H1747 0.950 . S
C1753 C1752 1.327 . S
C1753 C1757 1.429 . S
C1754 C1737 1.574 . S
C1754 H1748 0.949 . S
C1754 C1758 1.368 . S
C1755 C1736 1.429 . S
C1755 C1749 1.429 . S
C1755 C1756 1.523 . S
C1756 C1737 1.368 . S
C1756 C1750 1.368 . S
C1756 C1755 1.523 . S
C1757 C1741 1.429 . S
C1757 C1753 1.429 . S
C1757 C1758 1.523 . S
C1758 C1742 1.368 . S
C1758 C1754 1.368 . S
C1758 C1757 1.523 . S
H1759 C1734 0.950 . S
H1760 C1736 0.950 . S
H1761 C1737 0.949 . S
H1762 C1739 0.950 . S
H1763 C1741 0.950 . S
C1764 C1765 1.349 . S
C1764 C1766 1.327 . S
C1764 H1789 0.950 . S
C1765 C1764 1.349 . S
C1765 C1781 1.349 . S
C1766 C1764 1.327 . S
C1766 C1785 1.429 . S
C1766 H1790 0.950 . S
C1767 C1784 1.574 . S
C1767 C1786 1.368 . S
C1767 H1791 0.949 . S
H1768 C1772 0.949 . S
C1769 C1770 1.349 . S
C1769 C1771 1.327 . S
C1769 H1792 0.950 . S
C1770 C1769 1.349 . S
C1770 C1782 1.349 . S
C1771 C1769 1.327 . S
C1771 C1787 1.429 . S
C1771 H1793 0.950 . S
C1772 H1768 0.949 . S
C1772 C1780 1.574 . S
C1772 C1788 1.368 . S
H1773 C1781 0.950 . S
H1774 C1779 0.950 . S
H1775 C1780 0.949 . S
H1776 C1782 0.950 . S
H1777 C1783 0.950 . S
H1778 C1784 0.949 . S
C1779 H1774 0.950 . S
C1779 C1781 1.327 . S
C1779 C1785 1.429 . S
C1780 C1772 1.574 . S
C1780 H1775 0.949 . S
C1780 C1786 1.368 . S
C1781 C1765 1.349 . S
C1781 H1773 0.950 . S
C1781 C1779 1.327 . S
C1782 C1770 1.349 . S
C1782 H1776 0.950 . S
C1782 C1783 1.327 . S
C1783 H1777 0.950 . S
C1783 C1782 1.327 . S
C1783 C1787 1.429 . S
C1784 C1767 1.574 . S
C1784 H1778 0.949 . S
C1784 C1788 1.368 . S
C1785 C1766 1.429 . S
C1785 C1779 1.429 . S
C1785 C1786 1.523 . S
C1786 C1767 1.368 . S
C1786 C1780 1.368 . S
C1786 C1785 1.523 . S
C1787 C1771 1.429 . S
C1787 C1783 1.429 . S
C1787 C1788 1.523 . S
C1788 C1772 1.368 . S
C1788 C1784 1.368 . S
C1788 C1787 1.523 . S
H1789 C1764 0.950 . S
H1790 C1766 0.950 . S
H1791 C1767 0.949 . S
H1792 C1769 0.950 . S
H1793 C1771 0.950 . S
C1794 C1795 1.349 . S
C1794 C1796 1.327 . S
C1794 H1819 0.950 . S
C1795 C1794 1.349 . S
C1795 C1811 1.349 . S
C1796 C1794 1.327 . S
C1796 C1815 1.429 . S
C1796 H1820 0.950 . S
C1797 C1814 1.574 . S
C1797 C1816 1.368 . S
C1797 H1821 0.949 . S
H1798 C1802 0.949 . S
C1799 C1800 1.349 . S
C1799 C1801 1.327 . S
C1799 H1822 0.950 . S
C1800 C1799 1.349 . S
C1800 C1812 1.349 . S
C1801 C1799 1.327 . S
C1801 C1817 1.429 . S
C1801 H1823 0.950 . S
C1802 H1798 0.949 . S
C1802 C1810 1.574 . S
C1802 C1818 1.368 . S
H1803 C1811 0.950 . S
H1804 C1809 0.950 . S
H1805 C1810 0.949 . S
H1806 C1812 0.950 . S
H1807 C1813 0.950 . S
H1808 C1814 0.949 . S
C1809 H1804 0.950 . S
C1809 C1811 1.327 . S
C1809 C1815 1.429 . S
C1810 C1802 1.574 . S
C1810 H1805 0.949 . S
C1810 C1816 1.368 . S
C1811 C1795 1.349 . S
C1811 H1803 0.950 . S
C1811 C1809 1.327 . S
C1812 C1800 1.349 . S
C1812 H1806 0.950 . S
C1812 C1813 1.327 . S
C1813 H1807 0.950 . S
C1813 C1812 1.327 . S
C1813 C1817 1.429 . S
C1814 C1797 1.574 . S
C1814 H1808 0.949 . S
C1814 C1818 1.368 . S
C1815 C1796 1.429 . S
C1815 C1809 1.429 . S
C1815 C1816 1.523 . S
C1816 C1797 1.368 . S
C1816 C1810 1.368 . S
C1816 C1815 1.523 . S
C1817 C1801 1.429 . S
C1817 C1813 1.429 . S
C1817 C1818 1.523 . S
C1818 C1802 1.368 . S
C1818 C1814 1.368 . S
C1818 C1817 1.523 . S
H1819 C1794 0.950 . S
H1820 C1796 0.950 . S
H1821 C1797 0.949 . S
H1822 C1799 0.950 . S
H1823 C1801 0.950 . S
C1824 C1825 1.349 . S
C1824 C1826 1.327 . S
C1824 H1849 0.950 . S
C1825 C1824 1.349 . S
C1825 C1841 1.349 . S
C1826 C1824 1.327 . S
C1826 C1845 1.429 . S
C1826 H1850 0.950 . S
C1827 C1844 1.574 . S
C1827 C1846 1.368 . S
C1827 H1851 0.949 . S
H1828 C1832 0.949 . S
C1829 C1830 1.349 . S
C1829 C1831 1.327 . S
C1829 H1852 0.950 . S
C1830 C1829 1.349 . S
C1830 C1842 1.349 . S
C1831 C1829 1.327 . S
C1831 C1847 1.429 . S
C1831 H1853 0.950 . S
C1832 H1828 0.949 . S
C1832 C1840 1.574 . S
C1832 C1848 1.368 . S
H1833 C1841 0.950 . S
H1834 C1839 0.950 . S
H1835 C1840 0.949 . S
H1836 C1842 0.950 . S
H1837 C1843 0.950 . S
H1838 C1844 0.949 . S
C1839 H1834 0.950 . S
C1839 C1841 1.327 . S
C1839 C1845 1.429 . S
C1840 C1832 1.574 . S
C1840 H1835 0.949 . S
C1840 C1846 1.368 . S
C1841 C1825 1.349 . S
C1841 H1833 0.950 . S
C1841 C1839 1.327 . S
C1842 C1830 1.349 . S
C1842 H1836 0.950 . S
C1842 C1843 1.327 . S
C1843 H1837 0.950 . S
C1843 C1842 1.327 . S
C1843 C1847 1.429 . S
C1844 C1827 1.574 . S
C1844 H1838 0.949 . S
C1844 C1848 1.368 . S
C1845 C1826 1.429 . S
C1845 C1839 1.429 . S
C1845 C1846 1.523 . S
C1846 C1827 1.368 . S
C1846 C1840 1.368 . S
C1846 C1845 1.523 . S
C1847 C1831 1.429 . S
C1847 C1843 1.429 . S
C1847 C1848 1.523 . S
C1848 C1832 1.368 . S
C1848 C1844 1.368 . S
C1848 C1847 1.523 . S
H1849 C1824 0.950 . S
H1850 C1826 0.950 . S
H1851 C1827 0.949 . S
H1852 C1829 0.950 . S
H1853 C1831 0.950 . S
C1854 C1855 1.349 . S
C1854 C1856 1.327 . S
C1854 H1879 0.950 . S
C1855 C1854 1.349 . S
C1855 C1871 1.349 . S
C1856 C1854 1.327 . S
C1856 C1875 1.429 . S
C1856 H1880 0.950 . S
C1857 C1874 1.574 . S
C1857 C1876 1.368 . S
C1857 H1881 0.949 . S
H1858 C1862 0.949 . S
C1859 C1860 1.349 . S
C1859 C1861 1.327 . S
C1859 H1882 0.950 . S
C1860 C1859 1.349 . S
C1860 C1872 1.349 . S
C1861 C1859 1.327 . S
C1861 C1877 1.429 . S
C1861 H1883 0.950 . S
C1862 H1858 0.949 . S
C1862 C1870 1.574 . S
C1862 C1878 1.368 . S
H1863 C1871 0.950 . S
H1864 C1869 0.950 . S
H1865 C1870 0.949 . S
H1866 C1872 0.950 . S
H1867 C1873 0.950 . S
H1868 C1874 0.949 . S
C1869 H1864 0.950 . S
C1869 C1871 1.327 . S
C1869 C1875 1.429 . S
C1870 C1862 1.574 . S
C1870 H1865 0.949 . S
C1870 C1876 1.368 . S
C1871 C1855 1.349 . S
C1871 H1863 0.950 . S
C1871 C1869 1.327 . S
C1872 C1860 1.349 . S
C1872 H1866 0.950 . S
C1872 C1873 1.327 . S
C1873 H1867 0.950 . S
C1873 C1872 1.327 . S
C1873 C1877 1.429 . S
C1874 C1857 1.574 . S
C1874 H1868 0.949 . S
C1874 C1878 1.368 . S
C1875 C1856 1.429 . S
C1875 C1869 1.429 . S
C1875 C1876 1.523 . S
C1876 C1857 1.368 . S
C1876 C1870 1.368 . S
C1876 C1875 1.523 . S
C1877 C1861 1.429 . S
C1877 C1873 1.429 . S
C1877 C1878 1.523 . S
C1878 C1862 1.368 . S
C1878 C1874 1.368 . S
C1878 C1877 1.523 . S
H1879 C1854 0.950 . S
H1880 C1856 0.950 . S
H1881 C1857 0.949 . S
H1882 C1859 0.950 . S
H1883 C1861 0.950 . S
C1884 C1885 1.349 . S
C1884 C1886 1.327 . S
C1884 H1909 0.950 . S
C1885 C1884 1.349 . S
C1885 C1901 1.349 . S
C1886 C1884 1.327 . S
C1886 C1905 1.429 . S
C1886 H1910 0.950 . S
C1887 C1904 1.574 . S
C1887 C1906 1.368 . S
C1887 H1911 0.949 . S
H1888 C1892 0.949 . S
C1889 C1890 1.349 . S
C1889 C1891 1.327 . S
C1889 H1912 0.950 . S
C1890 C1889 1.349 . S
C1890 C1902 1.349 . S
C1891 C1889 1.327 . S
C1891 C1907 1.429 . S
C1891 H1913 0.950 . S
C1892 H1888 0.949 . S
C1892 C1900 1.574 . S
C1892 C1908 1.368 . S
H1893 C1901 0.950 . S
H1894 C1899 0.950 . S
H1895 C1900 0.949 . S
H1896 C1902 0.950 . S
H1897 C1903 0.950 . S
H1898 C1904 0.949 . S
C1899 H1894 0.950 . S
C1899 C1901 1.327 . S
C1899 C1905 1.429 . S
C1900 C1892 1.574 . S
C1900 H1895 0.949 . S
C1900 C1906 1.368 . S
C1901 C1885 1.349 . S
C1901 H1893 0.950 . S
C1901 C1899 1.327 . S
C1902 C1890 1.349 . S
C1902 H1896 0.950 . S
C1902 C1903 1.327 . S
C1903 H1897 0.950 . S
C1903 C1902 1.327 . S
C1903 C1907 1.429 . S
C1904 C1887 1.574 . S
C1904 H1898 0.949 . S
C1904 C1908 1.368 . S
C1905 C1886 1.429 . S
C1905 C1899 1.429 . S
C1905 C1906 1.523 . S
C1906 C1887 1.368 . S
C1906 C1900 1.368 . S
C1906 C1905 1.523 . S
C1907 C1891 1.429 . S
C1907 C1903 1.429 . S
C1907 C1908 1.523 . S
C1908 C1892 1.368 . S
C1908 C1904 1.368 . S
C1908 C1907 1.523 . S
H1909 C1884 0.950 . S
H1910 C1886 0.950 . S
H1911 C1887 0.949 . S
H1912 C1889 0.950 . S
H1913 C1891 0.950 . S
C1914 C1915 1.349 . S
C1914 C1916 1.327 . S
C1914 H1939 0.950 . S
C1915 C1914 1.349 . S
C1915 C1931 1.349 . S
C1916 C1914 1.327 . S
C1916 C1935 1.429 . S
C1916 H1940 0.950 . S
C1917 C1934 1.574 . S
C1917 C1936 1.368 . S
C1917 H1941 0.949 . S
H1918 C1922 0.949 . S
C1919 C1920 1.349 . S
C1919 C1921 1.327 . S
C1919 H1942 0.950 . S
C1920 C1919 1.349 . S
C1920 C1932 1.349 . S
C1921 C1919 1.327 . S
C1921 C1937 1.429 . S
C1921 H1943 0.950 . S
C1922 H1918 0.949 . S
C1922 C1930 1.574 . S
C1922 C1938 1.368 . S
H1923 C1931 0.950 . S
H1924 C1929 0.950 . S
H1925 C1930 0.949 . S
H1926 C1932 0.950 . S
H1927 C1933 0.950 . S
H1928 C1934 0.949 . S
C1929 H1924 0.950 . S
C1929 C1931 1.327 . S
C1929 C1935 1.429 . S
C1930 C1922 1.574 . S
C1930 H1925 0.949 . S
C1930 C1936 1.368 . S
C1931 C1915 1.349 . S
C1931 H1923 0.950 . S
C1931 C1929 1.327 . S
C1932 C1920 1.349 . S
C1932 H1926 0.950 . S
C1932 C1933 1.327 . S
C1933 H1927 0.950 . S
C1933 C1932 1.327 . S
C1933 C1937 1.429 . S
C1934 C1917 1.574 . S
C1934 H1928 0.949 . S
C1934 C1938 1.368 . S
C1935 C1916 1.429 . S
C1935 C1929 1.429 . S
C1935 C1936 1.523 . S
C1936 C1917 1.368 . S
C1936 C1930 1.368 . S
C1936 C1935 1.523 . S
C1937 C1921 1.429 . S
C1937 C1933 1.429 . S
C1937 C1938 1.523 . S
C1938 C1922 1.368 . S
C1938 C1934 1.368 . S
C1938 C1937 1.523 . S
H1939 C1914 0.950 . S
H1940 C1916 0.950 . S
H1941 C1917 0.949 . S
H1942 C1919 0.950 . S
H1943 C1921 0.950 . S
C1944 C1945 1.349 . S
C1944 C1946 1.327 . S
C1944 H1969 0.950 . S
C1945 C1944 1.349 . S
C1945 C1961 1.349 1_455 S
C1946 C1944 1.327 . S
C1946 C1965 1.473 . S
C1946 H1970 0.950 . S
C1947 C1964 1.574 . S
C1947 C1966 1.353 1_655 S
C1947 H1971 0.949 . S
H1948 C1952 0.949 . S
C1949 C1950 1.349 . S
C1949 C1951 1.327 . S
C1949 H1972 0.950 . S
C1950 C1949 1.349 . S
C1950 C1962 1.349 1_655 S
C1951 C1949 1.327 . S
C1951 C1967 1.472 . S
C1951 H1973 0.950 . S
C1952 H1948 0.949 . S
C1952 C1960 1.574 . S
C1952 C1968 1.354 1_455 S
H1953 C1961 0.950 . S
H1954 C1959 0.950 . S
H1955 C1960 0.949 . S
H1956 C1962 0.950 . S
H1957 C1963 0.950 . S
H1958 C1964 0.949 . S
C1959 H1954 0.950 . S
C1959 C1961 1.327 . S
C1959 C1965 1.413 1_655 S
C1960 C1952 1.574 . S
C1960 H1955 0.949 . S
C1960 C1966 1.377 . S
C1961 C1945 1.349 1_655 S
C1961 H1953 0.950 . S
C1961 C1959 1.327 . S
C1962 C1950 1.349 1_455 S
C1962 H1956 0.950 . S
C1962 C1963 1.327 . S
C1963 H1957 0.950 . S
C1963 C1962 1.327 . S
C1963 C1967 1.413 1_455 S
C1964 C1947 1.574 . S
C1964 H1958 0.949 . S
C1964 C1968 1.376 . S
C1965 C1946 1.473 . S
C1965 C1959 1.413 1_455 S
C1965 C1966 1.507 . S
C1966 C1947 1.353 1_455 S
C1966 C1960 1.377 . S
C1966 C1965 1.507 . S
C1967 C1951 1.472 . S
C1967 C1963 1.413 1_655 S
C1967 C1968 1.507 . S
C1968 C1952 1.354 1_655 S
C1968 C1964 1.376 . S
C1968 C1967 1.507 . S
H1969 C1944 0.950 . S
H1970 C1946 0.950 . S
H1971 C1947 0.949 . S
H1972 C1949 0.950 . S
H1973 C1951 0.950 . S
C1974 C1975 1.349 . S
C1974 C1976 1.327 . S
C1974 H1999 0.950 . S
C1975 C1974 1.349 . S
C1975 C1991 1.349 . S
C1976 C1974 1.327 . S
C1976 C1995 1.429 . S
C1976 H2000 0.950 . S
C1977 C1994 1.574 . S
C1977 C1996 1.368 . S
C1977 H2001 0.949 . S
H1978 C1982 0.949 . S
C1979 C1980 1.349 . S
C1979 C1981 1.327 . S
C1979 H2002 0.950 . S
C1980 C1979 1.349 . S
C1980 C1992 1.349 . S
C1981 C1979 1.327 . S
C1981 C1997 1.429 . S
C1981 H2003 0.950 . S
C1982 H1978 0.949 . S
C1982 C1990 1.574 . S
C1982 C1998 1.368 . S
H1983 C1991 0.950 . S
H1984 C1989 0.950 . S
H1985 C1990 0.949 . S
H1986 C1992 0.950 . S
H1987 C1993 0.950 . S
H1988 C1994 0.949 . S
C1989 H1984 0.950 . S
C1989 C1991 1.327 . S
C1989 C1995 1.429 . S
C1990 C1982 1.574 . S
C1990 H1985 0.949 . S
C1990 C1996 1.368 . S
C1991 C1975 1.349 . S
C1991 H1983 0.950 . S
C1991 C1989 1.327 . S
C1992 C1980 1.349 . S
C1992 H1986 0.950 . S
C1992 C1993 1.327 . S
C1993 H1987 0.950 . S
C1993 C1992 1.327 . S
C1993 C1997 1.429 . S
C1994 C1977 1.574 . S
C1994 H1988 0.949 . S
C1994 C1998 1.368 . S
C1995 C1976 1.429 . S
C1995 C1989 1.429 . S
C1995 C1996 1.523 . S
C1996 C1977 1.368 . S
C1996 C1990 1.368 . S
C1996 C1995 1.523 . S
C1997 C1981 1.429 . S
C1997 C1993 1.429 . S
C1997 C1998 1.523 . S
C1998 C1982 1.368 . S
C1998 C1994 1.368 . S
C1998 C1997 1.523 . S
H1999 C1974 0.950 . S
H2000 C1976 0.950 . S
H2001 C1977 0.949 . S
H2002 C1979 0.950 . S
H2003 C1981 0.950 . S
C2004 C2005 1.349 . S
C2004 C2006 1.327 . S
C2004 H2029 0.950 . S
C2005 C2004 1.349 . S
C2005 C2021 1.349 1_545 S
C2006 C2004 1.327 . S
C2006 C2025 1.448 . S
C2006 H2030 0.950 . S
C2007 C2024 1.574 . S
C2007 C2026 1.359 1_565 S
C2007 H2031 0.949 . S
H2008 C2012 0.949 . S
C2009 C2010 1.349 . S
C2009 C2011 1.327 . S
C2009 H2032 0.950 . S
C2010 C2009 1.349 . S
C2010 C2022 1.349 1_565 S
C2011 C2009 1.327 . S
C2011 C2027 1.448 . S
C2011 H2033 0.950 . S
C2012 H2008 0.949 . S
C2012 C2020 1.574 . S
C2012 C2028 1.360 1_545 S
H2013 C2021 0.950 . S
H2014 C2019 0.950 . S
H2015 C2020 0.949 . S
H2016 C2022 0.950 . S
H2017 C2023 0.950 . S
H2018 C2024 0.949 . S
C2019 H2014 0.950 . S
C2019 C2021 1.327 . S
C2019 C2025 1.384 1_565 S
C2020 C2012 1.574 . S
C2020 H2015 0.949 . S
C2020 C2026 1.384 . S
C2021 C2005 1.349 1_565 S
C2021 H2013 0.950 . S
C2021 C2019 1.327 . S
C2022 C2010 1.349 1_545 S
C2022 H2016 0.950 . S
C2022 C2023 1.327 . S
C2023 H2017 0.950 . S
C2023 C2022 1.327 . S
C2023 C2027 1.385 1_545 S
C2024 C2007 1.574 . S
C2024 H2018 0.949 . S
C2024 C2028 1.383 . S
C2025 C2006 1.448 . S
C2025 C2019 1.384 1_545 S
C2025 C2026 1.539 . S
C2026 C2007 1.359 1_545 S
C2026 C2020 1.384 . S
C2026 C2025 1.539 . S
C2027 C2011 1.448 . S
C2027 C2023 1.385 1_565 S
C2027 C2028 1.539 . S
C2028 C2012 1.360 1_565 S
C2028 C2024 1.383 . S
C2028 C2027 1.539 . S
H2029 C2004 0.950 . S
H2030 C2006 0.950 . S
H2031 C2007 0.949 . S
H2032 C2009 0.950 . S
H2033 C2011 0.950 . S
C2034 C2035 1.349 . S
C2034 C2036 1.327 . S
C2034 H2059 0.950 . S
C2035 C2034 1.349 . S
C2035 C2051 1.349 1_545 S
C2036 C2034 1.327 . S
C2036 C2055 1.475 . S
C2036 H2060 0.950 1_556 S
C2037 C2054 1.574 . S
C2037 C2056 1.352 1_565 S
C2037 H2061 0.949 . S
H2038 C2042 0.949 . S
C2039 C2040 1.349 . S
C2039 C2041 1.327 . S
C2039 H2062 0.950 . S
C2040 C2039 1.349 . S
C2040 C2052 1.349 1_565 S
C2041 C2039 1.327 . S
C2041 C2057 1.474 . S
C2041 H2063 0.950 1_554 S
C2042 H2038 0.949 . S
C2042 C2050 1.574 . S
C2042 C2058 1.353 1_545 S
H2043 C2051 0.950 . S
H2044 C2049 0.950 . S
H2045 C2050 0.949 . S
H2046 C2052 0.950 . S
H2047 C2053 0.950 . S
H2048 C2054 0.949 . S
C2049 H2044 0.950 . S
C2049 C2051 1.327 . S
C2049 C2055 1.411 1_565 S
C2050 C2042 1.574 . S
C2050 H2045 0.949 . S
C2050 C2056 1.378 1_554 S
C2051 C2035 1.349 1_565 S
C2051 H2043 0.950 . S
C2051 C2049 1.327 . S
C2052 C2040 1.349 1_545 S
C2052 H2046 0.950 . S
C2052 C2053 1.327 . S
C2053 H2047 0.950 . S
C2053 C2052 1.327 . S
C2053 C2057 1.411 1_545 S
C2054 C2037 1.574 . S
C2054 H2048 0.949 . S
C2054 C2058 1.377 1_556 S
C2055 C2036 1.475 . S
C2055 C2049 1.411 1_545 S
C2055 C2056 1.507 . S
C2056 C2037 1.352 1_545 S
C2056 C2050 1.378 1_556 S
C2056 C2055 1.507 . S
C2057 C2041 1.474 . S
C2057 C2053 1.411 1_565 S
C2057 C2058 1.507 . S
C2058 C2042 1.353 1_565 S
C2058 C2054 1.377 1_554 S
C2058 C2057 1.507 . S
H2059 C2034 0.950 . S
H2060 C2036 0.950 1_554 S
H2061 C2037 0.949 . S
H2062 C2039 0.950 . S
H2063 C2041 0.950 1_556 S
C2064 C2065 1.349 . S
C2064 C2066 1.321 1_554 S
C2064 H2089 0.950 1_554 S
C2065 C2064 1.349 . S
C2065 C2081 1.349 1_455 S
C2066 C2064 1.321 1_556 S
C2066 C2085 1.422 1_556 S
C2066 H2090 0.968 . S
C2067 C2084 1.574 . S
C2067 C2086 1.365 1_655 S
C2067 H2091 0.949 . S
H2068 C2072 0.949 . S
C2069 C2070 1.349 . S
C2069 C2071 1.321 1_556 S
C2069 H2092 0.950 1_556 S
C2070 C2069 1.349 . S
C2070 C2082 1.349 1_655 S
C2071 C2069 1.321 1_554 S
C2071 C2087 1.422 1_554 S
C2071 H2093 0.968 . S
C2072 H2068 0.949 . S
C2072 C2080 1.574 . S
C2072 C2088 1.365 1_455 S
H2073 C2081 0.950 . S
H2074 C2079 0.950 . S
H2075 C2080 0.949 . S
H2076 C2082 0.950 . S
H2077 C2083 0.950 . S
H2078 C2084 0.949 . S
C2079 H2074 0.950 . S
C2079 C2081 1.327 . S
C2079 C2085 1.399 1_655 S
C2080 C2072 1.574 . S
C2080 H2075 0.949 . S
C2080 C2086 1.378 1_556 S
C2081 C2065 1.349 1_655 S
C2081 H2073 0.950 . S
C2081 C2079 1.327 . S
C2082 C2070 1.349 1_455 S
C2082 H2076 0.950 . S
C2082 C2083 1.327 . S
C2083 H2077 0.950 . S
C2083 C2082 1.327 . S
C2083 C2087 1.399 1_455 S
C2084 C2067 1.574 . S
C2084 H2078 0.949 . S
C2084 C2088 1.378 1_554 S
C2085 C2066 1.422 1_554 S
C2085 C2079 1.399 1_455 S
C2085 C2086 1.538 . S
C2086 C2067 1.365 1_455 S
C2086 C2080 1.378 1_554 S
C2086 C2085 1.538 . S
C2087 C2071 1.422 1_556 S
C2087 C2083 1.399 1_655 S
C2087 C2088 1.538 . S
C2088 C2072 1.365 1_655 S
C2088 C2084 1.378 1_556 S
C2088 C2087 1.538 . S
H2089 C2064 0.950 1_556 S
H2090 C2066 0.968 . S
H2091 C2067 0.949 . S
H2092 C2069 0.950 1_554 S
H2093 C2071 0.968 . S
C2094 C2095 1.349 . S
C2094 C2096 1.327 . S
C2094 H2119 0.950 . S
C2095 C2094 1.349 . S
C2095 C2111 1.349 . S
C2096 C2094 1.327 . S
C2096 C2115 1.429 . S
C2096 H2120 0.950 . S
C2097 C2114 1.574 . S
C2097 C2116 1.368 1_556 S
C2097 H2121 0.949 . S
H2098 C2102 0.949 . S
C2099 C2100 1.349 . S
C2099 C2101 1.327 . S
C2099 H2122 0.950 . S
C2100 C2099 1.349 . S
C2100 C2112 1.349 . S
C2101 C2099 1.327 . S
C2101 C2117 1.429 . S
C2101 H2123 0.950 . S
C2102 H2098 0.949 . S
C2102 C2110 1.574 . S
C2102 C2118 1.368 1_554 S
H2103 C2111 0.952 . S
H2104 C2109 0.950 1_556 S
H2105 C2110 0.949 . S
H2106 C2112 0.952 . S
H2107 C2113 0.950 1_554 S
H2108 C2114 0.949 . S
C2109 H2104 0.950 1_554 S
C2109 C2111 1.327 . S
C2109 C2115 1.429 . S
C2110 C2102 1.574 . S
C2110 H2105 0.949 . S
C2110 C2116 1.368 . S
C2111 C2095 1.349 . S
C2111 H2103 0.952 . S
C2111 C2109 1.327 . S
C2112 C2100 1.349 . S
C2112 H2106 0.952 . S
C2112 C2113 1.327 . S
C2113 H2107 0.950 1_556 S
C2113 C2112 1.327 . S
C2113 C2117 1.429 . S
C2114 C2097 1.574 . S
C2114 H2108 0.949 . S
C2114 C2118 1.368 . S
C2115 C2096 1.429 . S
C2115 C2109 1.429 . S
C2115 C2116 1.523 . S
C2116 C2097 1.368 1_554 S
C2116 C2110 1.368 . S
C2116 C2115 1.523 . S
C2117 C2101 1.429 . S
C2117 C2113 1.429 . S
C2117 C2118 1.523 . S
C2118 C2102 1.368 1_556 S
C2118 C2114 1.368 . S
C2118 C2117 1.523 . S
H2119 C2094 0.950 . S
H2120 C2096 0.950 . S
H2121 C2097 0.949 . S
H2122 C2099 0.950 . S
H2123 C2101 0.950 . S
C2124 C2125 1.349 . S
C2124 C2126 1.327 1_556 S
C2124 H2149 0.950 . S
C2125 C2124 1.349 . S
C2125 C2141 1.349 1_556 S
C2126 C2124 1.327 1_554 S
C2126 C2145 1.429 . S
C2126 H2150 0.950 . S
C2127 C2144 1.574 . S
C2127 C2146 1.368 . S
C2127 H2151 0.949 . S
H2128 C2132 0.949 . S
C2129 C2130 1.349 . S
C2129 C2131 1.327 . S
C2129 H2152 0.950 . S
C2130 C2129 1.349 . S
C2130 C2142 1.349 . S
C2131 C2129 1.327 . S
C2131 C2147 1.429 . S
C2131 H2153 0.950 . S
C2132 H2128 0.949 . S
C2132 C2140 1.574 . S
C2132 C2148 1.368 . S
H2133 C2141 0.950 . S
H2134 C2139 0.950 . S
H2135 C2140 0.949 . S
H2136 C2142 0.950 . S
H2137 C2143 0.950 . S
H2138 C2144 0.949 . S
C2139 H2134 0.950 . S
C2139 C2141 1.327 . S
C2139 C2145 1.429 . S
C2140 C2132 1.574 . S
C2140 H2135 0.949 . S
C2140 C2146 1.368 . S
C2141 C2125 1.349 1_554 S
C2141 H2133 0.950 . S
C2141 C2139 1.327 . S
C2142 C2130 1.349 . S
C2142 H2136 0.950 . S
C2142 C2143 1.327 . S
C2143 H2137 0.950 . S
C2143 C2142 1.327 . S
C2143 C2147 1.429 . S
C2144 C2127 1.574 . S
C2144 H2138 0.949 . S
C2144 C2148 1.368 . S
C2145 C2126 1.429 . S
C2145 C2139 1.429 . S
C2145 C2146 1.523 . S
C2146 C2127 1.368 . S
C2146 C2140 1.368 . S
C2146 C2145 1.523 . S
C2147 C2131 1.429 . S
C2147 C2143 1.429 . S
C2147 C2148 1.523 . S
C2148 C2132 1.368 . S
C2148 C2144 1.368 . S
C2148 C2147 1.523 . S
H2149 C2124 0.950 . S
H2150 C2126 0.950 . S
H2151 C2127 0.949 . S
H2152 C2129 0.950 . S
H2153 C2131 0.950 . S
C2154 C2155 1.349 . S
C2154 C2156 1.327 . S
C2154 H2179 0.950 . S
C2155 C2154 1.349 . S
C2155 C2171 1.349 . S
C2156 C2154 1.327 . S
C2156 C2175 1.429 . S
C2156 H2180 0.950 . S
C2157 C2174 1.574 . S
C2157 C2176 1.368 . S
C2157 H2181 0.949 . S
H2158 C2162 0.949 . S
C2159 C2160 1.349 . S
C2159 C2161 1.327 1_556 S
C2159 H2182 0.950 . S
C2160 C2159 1.349 . S
C2160 C2172 1.349 1_556 S
C2161 C2159 1.327 1_554 S
C2161 C2177 1.429 . S
C2161 H2183 0.950 . S
C2162 H2158 0.949 . S
C2162 C2170 1.574 . S
C2162 C2178 1.368 . S
H2163 C2171 0.950 . S
H2164 C2169 0.950 . S
H2165 C2170 0.949 . S
H2166 C2172 0.950 . S
H2167 C2173 0.950 . S
H2168 C2174 0.949 . S
C2169 H2164 0.950 . S
C2169 C2171 1.327 . S
C2169 C2175 1.429 . S
C2170 C2162 1.574 . S
C2170 H2165 0.949 . S
C2170 C2176 1.368 . S
C2171 C2155 1.349 . S
C2171 H2163 0.950 . S
C2171 C2169 1.327 . S
C2172 C2160 1.349 1_554 S
C2172 H2166 0.950 . S
C2172 C2173 1.327 . S
C2173 H2167 0.950 . S
C2173 C2172 1.327 . S
C2173 C2177 1.429 . S
C2174 C2157 1.574 . S
C2174 H2168 0.949 . S
C2174 C2178 1.368 . S
C2175 C2156 1.429 . S
C2175 C2169 1.429 . S
C2175 C2176 1.523 . S
C2176 C2157 1.368 . S
C2176 C2170 1.368 . S
C2176 C2175 1.523 . S
C2177 C2161 1.429 . S
C2177 C2173 1.429 . S
C2177 C2178 1.523 . S
C2178 C2162 1.368 . S
C2178 C2174 1.368 . S
C2178 C2177 1.523 . S
H2179 C2154 0.950 . S
H2180 C2156 0.950 . S
H2181 C2157 0.949 . S
H2182 C2159 0.950 . S
H2183 C2161 0.950 . S
C2184 C2185 1.349 1_554 S
C2184 C2186 1.327 . S
C2184 H2209 0.950 . S
C2185 C2184 1.349 1_556 S
C2185 C2201 1.349 . S
C2186 C2184 1.327 . S
C2186 C2205 1.429 . S
C2186 H2210 0.950 . S
C2187 C2204 1.574 . S
C2187 C2206 1.368 . S
C2187 H2211 0.949 . S
H2188 C2192 0.949 . S
C2189 C2190 1.349 . S
C2189 C2191 1.327 . S
C2189 H2212 0.950 . S
C2190 C2189 1.349 . S
C2190 C2202 1.349 . S
C2191 C2189 1.327 . S
C2191 C2207 1.429 . S
C2191 H2213 0.950 . S
C2192 H2188 0.949 . S
C2192 C2200 1.574 . S
C2192 C2208 1.368 . S
H2193 C2201 0.950 . S
H2194 C2199 0.950 . S
H2195 C2200 0.949 . S
H2196 C2202 0.950 . S
H2197 C2203 0.950 . S
H2198 C2204 0.949 . S
C2199 H2194 0.950 . S
C2199 C2201 1.327 1_554 S
C2199 C2205 1.429 . S
C2200 C2192 1.574 . S
C2200 H2195 0.949 . S
C2200 C2206 1.368 . S
C2201 C2185 1.349 . S
C2201 H2193 0.950 . S
C2201 C2199 1.327 1_556 S
C2202 C2190 1.349 . S
C2202 H2196 0.950 . S
C2202 C2203 1.327 . S
C2203 H2197 0.950 . S
C2203 C2202 1.327 . S
C2203 C2207 1.429 . S
C2204 C2187 1.574 . S
C2204 H2198 0.949 . S
C2204 C2208 1.368 . S
C2205 C2186 1.429 . S
C2205 C2199 1.429 . S
C2205 C2206 1.523 . S
C2206 C2187 1.368 . S
C2206 C2200 1.368 . S
C2206 C2205 1.523 . S
C2207 C2191 1.429 . S
C2207 C2203 1.429 . S
C2207 C2208 1.523 . S
C2208 C2192 1.368 . S
C2208 C2204 1.368 . S
C2208 C2207 1.523 . S
H2209 C2184 0.950 . S
H2210 C2186 0.950 . S
H2211 C2187 0.949 . S
H2212 C2189 0.950 . S
H2213 C2191 0.950 . S
C2214 C2215 1.349 . S
C2214 C2216 1.327 . S
C2214 H2239 0.950 . S
C2215 C2214 1.349 . S
C2215 C2231 1.349 . S
C2216 C2214 1.327 . S
C2216 C2235 1.429 . S
C2216 H2240 0.950 . S
C2217 C2234 1.574 . S
C2217 C2236 1.368 . S
C2217 H2241 0.949 . S
H2218 C2222 0.949 . S
C2219 C2220 1.349 . S
C2219 C2221 1.327 . S
C2219 H2242 0.950 . S
C2220 C2219 1.349 . S
C2220 C2232 1.349 . S
C2221 C2219 1.327 . S
C2221 C2237 1.429 . S
C2221 H2243 0.950 . S
C2222 H2218 0.949 . S
C2222 C2230 1.574 . S
C2222 C2238 1.368 . S
H2223 C2231 0.950 . S
H2224 C2229 0.950 . S
H2225 C2230 0.949 . S
H2226 C2232 0.950 . S
H2227 C2233 0.950 . S
H2228 C2234 0.949 . S
C2229 H2224 0.950 . S
C2229 C2231 1.327 . S
C2229 C2235 1.429 . S
C2230 C2222 1.574 . S
C2230 H2225 0.949 . S
C2230 C2236 1.368 . S
C2231 C2215 1.349 . S
C2231 H2223 0.950 . S
C2231 C2229 1.327 . S
C2232 C2220 1.349 . S
C2232 H2226 0.950 . S
C2232 C2233 1.327 . S
C2233 H2227 0.950 . S
C2233 C2232 1.327 . S
C2233 C2237 1.429 . S
C2234 C2217 1.574 . S
C2234 H2228 0.949 . S
C2234 C2238 1.368 . S
C2235 C2216 1.429 . S
C2235 C2229 1.429 . S
C2235 C2236 1.523 . S
C2236 C2217 1.368 . S
C2236 C2230 1.368 . S
C2236 C2235 1.523 . S
C2237 C2221 1.429 . S
C2237 C2233 1.429 . S
C2237 C2238 1.523 . S
C2238 C2222 1.368 . S
C2238 C2234 1.368 . S
C2238 C2237 1.523 . S
H2239 C2214 0.950 . S
H2240 C2216 0.950 . S
H2241 C2217 0.949 . S
H2242 C2219 0.950 . S
H2243 C2221 0.950 . S
C2244 C2245 1.349 . S
C2244 C2246 1.327 . S
C2244 H2269 0.950 . S
C2245 C2244 1.349 . S
C2245 C2261 1.349 . S
C2246 C2244 1.327 . S
C2246 C2265 1.429 . S
C2246 H2270 0.950 . S
C2247 C2264 1.574 . S
C2247 C2266 1.368 . S
C2247 H2271 0.949 . S
H2248 C2252 0.949 . S
C2249 C2250 1.349 . S
C2249 C2251 1.327 . S
C2249 H2272 0.950 . S
C2250 C2249 1.349 . S
C2250 C2262 1.349 . S
C2251 C2249 1.327 . S
C2251 C2267 1.429 . S
C2251 H2273 0.950 . S
C2252 H2248 0.949 . S
C2252 C2260 1.574 . S
C2252 C2268 1.368 . S
H2253 C2261 0.950 . S
H2254 C2259 0.950 . S
H2255 C2260 0.949 . S
H2256 C2262 0.950 . S
H2257 C2263 0.950 . S
H2258 C2264 0.949 . S
C2259 H2254 0.950 . S
C2259 C2261 1.327 . S
C2259 C2265 1.429 . S
C2260 C2252 1.574 . S
C2260 H2255 0.949 . S
C2260 C2266 1.368 . S
C2261 C2245 1.349 . S
C2261 H2253 0.950 . S
C2261 C2259 1.327 . S
C2262 C2250 1.349 . S
C2262 H2256 0.950 . S
C2262 C2263 1.327 . S
C2263 H2257 0.950 . S
C2263 C2262 1.327 . S
C2263 C2267 1.429 . S
C2264 C2247 1.574 . S
C2264 H2258 0.949 . S
C2264 C2268 1.368 . S
C2265 C2246 1.429 . S
C2265 C2259 1.429 . S
C2265 C2266 1.523 . S
C2266 C2247 1.368 . S
C2266 C2260 1.368 . S
C2266 C2265 1.523 . S
C2267 C2251 1.429 . S
C2267 C2263 1.429 . S
C2267 C2268 1.523 . S
C2268 C2252 1.368 . S
C2268 C2264 1.368 . S
C2268 C2267 1.523 . S
H2269 C2244 0.950 . S
H2270 C2246 0.950 . S
H2271 C2247 0.949 . S
H2272 C2249 0.950 . S
H2273 C2251 0.950 . S
C2274 C2275 1.349 . S
C2274 C2276 1.327 . S
C2274 H2299 0.950 . S
C2275 C2274 1.349 . S
C2275 C2291 1.349 . S
C2276 C2274 1.327 . S
C2276 C2295 1.429 . S
C2276 H2300 0.950 . S
C2277 C2294 1.574 . S
C2277 C2296 1.368 . S
C2277 H2301 0.949 . S
H2278 C2282 0.949 . S
C2279 C2280 1.349 . S
C2279 C2281 1.327 . S
C2279 H2302 0.950 . S
C2280 C2279 1.349 . S
C2280 C2292 1.349 . S
C2281 C2279 1.327 . S
C2281 C2297 1.429 . S
C2281 H2303 0.950 . S
C2282 H2278 0.949 . S
C2282 C2290 1.574 . S
C2282 C2298 1.368 . S
H2283 C2291 0.950 . S
H2284 C2289 0.950 . S
H2285 C2290 0.949 . S
H2286 C2292 0.950 . S
H2287 C2293 0.950 . S
H2288 C2294 0.949 . S
C2289 H2284 0.950 . S
C2289 C2291 1.327 . S
C2289 C2295 1.429 . S
C2290 C2282 1.574 . S
C2290 H2285 0.949 . S
C2290 C2296 1.368 . S
C2291 C2275 1.349 . S
C2291 H2283 0.950 . S
C2291 C2289 1.327 . S
C2292 C2280 1.349 . S
C2292 H2286 0.950 . S
C2292 C2293 1.327 . S
C2293 H2287 0.950 . S
C2293 C2292 1.327 . S
C2293 C2297 1.429 . S
C2294 C2277 1.574 . S
C2294 H2288 0.949 . S
C2294 C2298 1.368 . S
C2295 C2276 1.429 . S
C2295 C2289 1.429 . S
C2295 C2296 1.523 . S
C2296 C2277 1.368 . S
C2296 C2290 1.368 . S
C2296 C2295 1.523 . S
C2297 C2281 1.429 . S
C2297 C2293 1.429 . S
C2297 C2298 1.523 . S
C2298 C2282 1.368 . S
C2298 C2294 1.368 . S
C2298 C2297 1.523 . S
H2299 C2274 0.950 . S
H2300 C2276 0.950 . S
H2301 C2277 0.949 . S
H2302 C2279 0.950 . S
H2303 C2281 0.950 . S
C2304 C2305 1.349 . S
C2304 C2306 1.327 . S
C2304 H2329 0.950 . S
C2305 C2304 1.349 . S
C2305 C2321 1.349 . S
C2306 C2304 1.327 . S
C2306 C2325 1.429 . S
C2306 H2330 0.950 . S
C2307 C2324 1.574 . S
C2307 C2326 1.368 . S
C2307 H2331 0.949 . S
H2308 C2312 0.949 . S
C2309 C2310 1.349 1_556 S
C2309 C2311 1.327 . S
C2309 H2332 0.950 . S
C2310 C2309 1.349 1_554 S
C2310 C2322 1.349 . S
C2311 C2309 1.327 . S
C2311 C2327 1.429 . S
C2311 H2333 0.950 . S
C2312 H2308 0.949 . S
C2312 C2320 1.574 . S
C2312 C2328 1.368 . S
H2313 C2321 0.950 . S
H2314 C2319 0.950 . S
H2315 C2320 0.949 . S
H2316 C2322 0.950 . S
H2317 C2323 0.950 . S
H2318 C2324 0.949 . S
C2319 H2314 0.950 . S
C2319 C2321 1.327 . S
C2319 C2325 1.429 . S
C2320 C2312 1.574 . S
C2320 H2315 0.949 . S
C2320 C2326 1.368 . S
C2321 C2305 1.349 . S
C2321 H2313 0.950 . S
C2321 C2319 1.327 . S
C2322 C2310 1.349 . S
C2322 H2316 0.950 . S
C2322 C2323 1.327 1_554 S
C2323 H2317 0.950 . S
C2323 C2322 1.327 1_556 S
C2323 C2327 1.429 . S
C2324 C2307 1.574 . S
C2324 H2318 0.949 . S
C2324 C2328 1.368 . S
C2325 C2306 1.429 . S
C2325 C2319 1.429 . S
C2325 C2326 1.523 . S
C2326 C2307 1.368 . S
C2326 C2320 1.368 . S
C2326 C2325 1.523 . S
C2327 C2311 1.429 . S
C2327 C2323 1.429 . S
C2327 C2328 1.523 . S
C2328 C2312 1.368 . S
C2328 C2324 1.368 . S
C2328 C2327 1.523 . S
H2329 C2304 0.950 . S
H2330 C2306 0.950 . S
H2331 C2307 0.949 . S
H2332 C2309 0.950 . S
H2333 C2311 0.950 . S
C2334 C2335 1.349 1_556 S
C2334 C2336 1.327 . S
C2334 H2359 0.950 . S
C2335 C2334 1.349 1_554 S
C2335 C2351 1.349 . S
C2336 C2334 1.327 . S
C2336 C2355 1.429 . S
C2336 H2360 0.950 . S
C2337 C2354 1.574 . S
C2337 C2356 1.368 . S
C2337 H2361 0.949 . S
H2338 C2342 0.949 . S
C2339 C2340 1.349 . S
C2339 C2341 1.327 . S
C2339 H2362 0.950 . S
C2340 C2339 1.349 . S
C2340 C2352 1.349 . S
C2341 C2339 1.327 . S
C2341 C2357 1.429 . S
C2341 H2363 0.950 . S
C2342 H2338 0.949 . S
C2342 C2350 1.574 . S
C2342 C2358 1.368 . S
H2343 C2351 0.950 . S
H2344 C2349 0.950 . S
H2345 C2350 0.949 . S
H2346 C2352 0.950 . S
H2347 C2353 0.950 . S
H2348 C2354 0.949 . S
C2349 H2344 0.950 . S
C2349 C2351 1.327 1_556 S
C2349 C2355 1.429 . S
C2350 C2342 1.574 . S
C2350 H2345 0.949 . S
C2350 C2356 1.368 . S
C2351 C2335 1.349 . S
C2351 H2343 0.950 . S
C2351 C2349 1.327 1_554 S
C2352 C2340 1.349 . S
C2352 H2346 0.950 . S
C2352 C2353 1.327 . S
C2353 H2347 0.950 . S
C2353 C2352 1.327 . S
C2353 C2357 1.429 . S
C2354 C2337 1.574 . S
C2354 H2348 0.949 . S
C2354 C2358 1.368 . S
C2355 C2336 1.429 . S
C2355 C2349 1.429 . S
C2355 C2356 1.523 . S
C2356 C2337 1.368 . S
C2356 C2350 1.368 . S
C2356 C2355 1.523 . S
C2357 C2341 1.429 . S
C2357 C2353 1.429 . S
C2357 C2358 1.523 . S
C2358 C2342 1.368 . S
C2358 C2354 1.368 . S
C2358 C2357 1.523 . S
H2359 C2334 0.950 . S
H2360 C2336 0.950 . S
H2361 C2337 0.949 . S
H2362 C2339 0.950 . S
H2363 C2341 0.950 . S
C2364 C2365 1.349 . S
C2364 C2366 1.327 . S
C2364 H2389 0.950 . S
C2365 C2364 1.349 . S
C2365 C2381 1.349 . S
C2366 C2364 1.327 . S
C2366 C2385 1.429 . S
C2366 H2390 0.950 . S
C2367 C2384 1.574 . S
C2367 C2386 1.368 . S
C2367 H2391 0.949 . S
H2368 C2372 0.949 . S
C2369 C2370 1.349 1_556 S
C2369 C2371 1.327 . S
C2369 H2392 0.950 . S
C2370 C2369 1.349 1_554 S
C2370 C2382 1.349 1_554 S
C2371 C2369 1.327 . S
C2371 C2387 1.429 . S
C2371 H2393 0.950 . S
C2372 H2368 0.949 . S
C2372 C2380 1.574 . S
C2372 C2388 1.368 . S
H2373 C2381 0.950 . S
H2374 C2379 0.950 . S
H2375 C2380 0.949 . S
H2376 C2382 0.950 1_554 S
H2377 C2383 0.950 . S
H2378 C2384 0.949 . S
C2379 H2374 0.950 . S
C2379 C2381 1.327 . S
C2379 C2385 1.429 . S
C2380 C2372 1.574 . S
C2380 H2375 0.949 . S
C2380 C2386 1.368 . S
C2381 C2365 1.349 . S
C2381 H2373 0.950 . S
C2381 C2379 1.327 . S
C2382 C2370 1.349 1_556 S
C2382 H2376 0.950 1_556 S
C2382 C2383 1.327 . S
C2383 H2377 0.950 . S
C2383 C2382 1.327 . S
C2383 C2387 1.429 . S
C2384 C2367 1.574 . S
C2384 H2378 0.949 . S
C2384 C2388 1.368 . S
C2385 C2366 1.429 . S
C2385 C2379 1.429 . S
C2385 C2386 1.523 . S
C2386 C2367 1.368 . S
C2386 C2380 1.368 . S
C2386 C2385 1.523 . S
C2387 C2371 1.429 . S
C2387 C2383 1.429 . S
C2387 C2388 1.523 . S
C2388 C2372 1.368 . S
C2388 C2384 1.368 . S
C2388 C2387 1.523 . S
H2389 C2364 0.950 . S
H2390 C2366 0.950 . S
H2391 C2367 0.949 . S
H2392 C2369 0.950 . S
H2393 C2371 0.950 . S
C2394 C2395 1.349 . S
C2394 C2396 1.327 . S
C2394 H2419 0.950 . S
C2395 C2394 1.349 . S
C2395 C2411 1.349 . S
C2396 C2394 1.327 . S
C2396 C2415 1.429 . S
C2396 H2420 0.950 . S
C2397 C2414 1.574 . S
C2397 C2416 1.368 . S
C2397 H2421 0.949 . S
H2398 C2402 0.949 . S
C2399 C2400 1.349 . S
C2399 C2401 1.327 . S
C2399 H2422 0.950 . S
C2400 C2399 1.349 . S
C2400 C2412 1.349 . S
C2401 C2399 1.327 . S
C2401 C2417 1.429 . S
C2401 H2423 0.950 . S
C2402 H2398 0.949 . S
C2402 C2410 1.574 . S
C2402 C2418 1.368 . S
H2403 C2411 0.950 . S
H2404 C2409 0.950 . S
H2405 C2410 0.949 . S
H2406 C2412 0.950 . S
H2407 C2413 0.950 . S
H2408 C2414 0.949 . S
C2409 H2404 0.950 . S
C2409 C2411 1.327 . S
C2409 C2415 1.429 . S
C2410 C2402 1.574 . S
C2410 H2405 0.949 . S
C2410 C2416 1.368 . S
C2411 C2395 1.349 . S
C2411 H2403 0.950 . S
C2411 C2409 1.327 . S
C2412 C2400 1.349 . S
C2412 H2406 0.950 . S
C2412 C2413 1.327 . S
C2413 H2407 0.950 . S
C2413 C2412 1.327 . S
C2413 C2417 1.429 . S
C2414 C2397 1.574 . S
C2414 H2408 0.949 . S
C2414 C2418 1.368 . S
C2415 C2396 1.429 . S
C2415 C2409 1.429 . S
C2415 C2416 1.523 . S
C2416 C2397 1.368 . S
C2416 C2410 1.368 . S
C2416 C2415 1.523 . S
C2417 C2401 1.429 . S
C2417 C2413 1.429 . S
C2417 C2418 1.523 . S
C2418 C2402 1.368 . S
C2418 C2414 1.368 . S
C2418 C2417 1.523 . S
H2419 C2394 0.950 . S
H2420 C2396 0.950 . S
H2421 C2397 0.949 . S
H2422 C2399 0.950 . S
H2423 C2401 0.950 . S
C2424 C2425 1.349 . S
C2424 C2426 1.327 . S
C2424 H2449 0.950 . S
C2425 C2424 1.349 . S
C2425 C2441 1.349 . S
C2426 C2424 1.327 . S
C2426 C2445 1.429 . S
C2426 H2450 0.950 . S
C2427 C2444 1.574 . S
C2427 C2446 1.368 . S
C2427 H2451 0.949 . S
H2428 C2432 0.949 . S
C2429 C2430 1.349 . S
C2429 C2431 1.327 . S
C2429 H2452 0.950 . S
C2430 C2429 1.349 . S
C2430 C2442 1.349 . S
C2431 C2429 1.327 . S
C2431 C2447 1.429 . S
C2431 H2453 0.950 . S
C2432 H2428 0.949 . S
C2432 C2440 1.574 . S
C2432 C2448 1.368 . S
H2433 C2441 0.950 . S
H2434 C2439 0.950 . S
H2435 C2440 0.949 . S
H2436 C2442 0.950 . S
H2437 C2443 0.950 . S
H2438 C2444 0.949 . S
C2439 H2434 0.950 . S
C2439 C2441 1.327 . S
C2439 C2445 1.429 . S
C2440 C2432 1.574 . S
C2440 H2435 0.949 . S
C2440 C2446 1.368 . S
C2441 C2425 1.349 . S
C2441 H2433 0.950 . S
C2441 C2439 1.327 . S
C2442 C2430 1.349 . S
C2442 H2436 0.950 . S
C2442 C2443 1.327 . S
C2443 H2437 0.950 . S
C2443 C2442 1.327 . S
C2443 C2447 1.429 . S
C2444 C2427 1.574 . S
C2444 H2438 0.949 . S
C2444 C2448 1.368 . S
C2445 C2426 1.429 . S
C2445 C2439 1.429 . S
C2445 C2446 1.523 . S
C2446 C2427 1.368 . S
C2446 C2440 1.368 . S
C2446 C2445 1.523 . S
C2447 C2431 1.429 . S
C2447 C2443 1.429 . S
C2447 C2448 1.523 . S
C2448 C2432 1.368 . S
C2448 C2444 1.368 . S
C2448 C2447 1.523 . S
H2449 C2424 0.950 . S
H2450 C2426 0.950 . S
H2451 C2427 0.949 . S
H2452 C2429 0.950 . S
H2453 C2431 0.950 . S
C2454 C2455 1.349 . S
C2454 C2456 1.327 . S
C2454 H2479 0.950 . S
C2455 C2454 1.349 . S
C2455 C2471 1.349 . S
C2456 C2454 1.327 . S
C2456 C2475 1.429 . S
C2456 H2480 0.950 . S
C2457 C2474 1.574 . S
C2457 C2476 1.368 . S
C2457 H2481 0.949 . S
H2458 C2462 0.949 . S
C2459 C2460 1.349 . S
C2459 C2461 1.327 . S
C2459 H2482 0.950 . S
C2460 C2459 1.349 . S
C2460 C2472 1.349 . S
C2461 C2459 1.327 . S
C2461 C2477 1.429 . S
C2461 H2483 0.950 . S
C2462 H2458 0.949 . S
C2462 C2470 1.574 . S
C2462 C2478 1.368 . S
H2463 C2471 0.950 . S
H2464 C2469 0.950 . S
H2465 C2470 0.949 . S
H2466 C2472 0.950 . S
H2467 C2473 0.950 . S
H2468 C2474 0.949 . S
C2469 H2464 0.950 . S
C2469 C2471 1.327 . S
C2469 C2475 1.429 . S
C2470 C2462 1.574 . S
C2470 H2465 0.949 . S
C2470 C2476 1.368 . S
C2471 C2455 1.349 . S
C2471 H2463 0.950 . S
C2471 C2469 1.327 . S
C2472 C2460 1.349 . S
C2472 H2466 0.950 . S
C2472 C2473 1.327 . S
C2473 H2467 0.950 . S
C2473 C2472 1.327 . S
C2473 C2477 1.429 . S
C2474 C2457 1.574 . S
C2474 H2468 0.949 . S
C2474 C2478 1.368 . S
C2475 C2456 1.429 . S
C2475 C2469 1.429 . S
C2475 C2476 1.523 . S
C2476 C2457 1.368 . S
C2476 C2470 1.368 . S
C2476 C2475 1.523 . S
C2477 C2461 1.429 . S
C2477 C2473 1.429 . S
C2477 C2478 1.523 . S
C2478 C2462 1.368 . S
C2478 C2474 1.368 . S
C2478 C2477 1.523 . S
H2479 C2454 0.950 . S
H2480 C2456 0.950 . S
H2481 C2457 0.949 . S
H2482 C2459 0.950 . S
H2483 C2461 0.950 . S
C2484 C2485 1.349 . S
C2484 C2486 1.327 . S
C2484 H2509 0.950 . S
C2485 C2484 1.349 . S
C2485 C2501 1.349 . S
C2486 C2484 1.327 . S
C2486 C2505 1.429 . S
C2486 H2510 0.950 . S
C2487 C2504 1.574 . S
C2487 C2506 1.368 . S
C2487 H2511 0.949 . S
H2488 C2492 0.949 . S
C2489 C2490 1.349 . S
C2489 C2491 1.327 . S
C2489 H2512 0.950 . S
C2490 C2489 1.349 . S
C2490 C2502 1.349 . S
C2491 C2489 1.327 . S
C2491 C2507 1.429 . S
C2491 H2513 0.950 . S
C2492 H2488 0.949 . S
C2492 C2500 1.574 . S
C2492 C2508 1.368 . S
H2493 C2501 0.950 . S
H2494 C2499 0.950 . S
H2495 C2500 0.949 . S
H2496 C2502 0.950 . S
H2497 C2503 0.950 . S
H2498 C2504 0.949 . S
C2499 H2494 0.950 . S
C2499 C2501 1.327 . S
C2499 C2505 1.429 . S
C2500 C2492 1.574 . S
C2500 H2495 0.949 . S
C2500 C2506 1.368 . S
C2501 C2485 1.349 . S
C2501 H2493 0.950 . S
C2501 C2499 1.327 . S
C2502 C2490 1.349 . S
C2502 H2496 0.950 . S
C2502 C2503 1.327 . S
C2503 H2497 0.950 . S
C2503 C2502 1.327 . S
C2503 C2507 1.429 . S
C2504 C2487 1.574 . S
C2504 H2498 0.949 . S
C2504 C2508 1.368 . S
C2505 C2486 1.429 . S
C2505 C2499 1.429 . S
C2505 C2506 1.523 . S
C2506 C2487 1.368 . S
C2506 C2500 1.368 . S
C2506 C2505 1.523 . S
C2507 C2491 1.429 . S
C2507 C2503 1.429 . S
C2507 C2508 1.523 . S
C2508 C2492 1.368 . S
C2508 C2504 1.368 . S
C2508 C2507 1.523 . S
H2509 C2484 0.950 . S
H2510 C2486 0.950 . S
H2511 C2487 0.949 . S
H2512 C2489 0.950 . S
H2513 C2491 0.950 . S
C2514 C2515 1.349 . S
C2514 C2516 1.327 . S
C2514 H2539 0.950 . S
C2515 C2514 1.349 . S
C2515 C2531 1.349 . S
C2516 C2514 1.327 . S
C2516 C2535 1.429 . S
C2516 H2540 0.950 . S
C2517 C2534 1.574 . S
C2517 C2536 1.368 . S
C2517 H2541 0.949 . S
H2518 C2522 0.949 . S
C2519 C2520 1.349 . S
C2519 C2521 1.327 . S
C2519 H2542 0.950 . S
C2520 C2519 1.349 . S
C2520 C2532 1.349 . S
C2521 C2519 1.327 . S
C2521 C2537 1.429 . S
C2521 H2543 0.950 . S
C2522 H2518 0.949 . S
C2522 C2530 1.574 . S
C2522 C2538 1.368 . S
H2523 C2531 0.950 . S
H2524 C2529 0.950 . S
H2525 C2530 0.949 . S
H2526 C2532 0.950 . S
H2527 C2533 0.950 . S
H2528 C2534 0.949 . S
C2529 H2524 0.950 . S
C2529 C2531 1.327 . S
C2529 C2535 1.429 . S
C2530 C2522 1.574 . S
C2530 H2525 0.949 . S
C2530 C2536 1.368 1_565 S
C2531 C2515 1.349 . S
C2531 H2523 0.950 . S
C2531 C2529 1.327 . S
C2532 C2520 1.349 . S
C2532 H2526 0.950 . S
C2532 C2533 1.327 . S
C2533 H2527 0.950 . S
C2533 C2532 1.327 . S
C2533 C2537 1.429 . S
C2534 C2517 1.574 . S
C2534 H2528 0.949 . S
C2534 C2538 1.368 1_545 S
C2535 C2516 1.429 . S
C2535 C2529 1.429 . S
C2535 C2536 1.523 . S
C2536 C2517 1.368 . S
C2536 C2530 1.368 1_545 S
C2536 C2535 1.523 . S
C2537 C2521 1.429 . S
C2537 C2533 1.429 . S
C2537 C2538 1.523 . S
C2538 C2522 1.368 . S
C2538 C2534 1.368 1_565 S
C2538 C2537 1.523 . S
H2539 C2514 0.950 . S
H2540 C2516 0.950 . S
H2541 C2517 0.949 . S
H2542 C2519 0.950 . S
H2543 C2521 0.950 . S
C2544 C2545 1.349 . S
C2544 C2546 1.327 . S
C2544 H2569 0.950 . S
C2545 C2544 1.349 . S
C2545 C2561 1.349 . S
C2546 C2544 1.327 . S
C2546 C2565 1.429 . S
C2546 H2570 0.950 . S
C2547 C2564 1.574 1_655 S
C2547 C2566 1.368 . S
C2547 H2571 0.949 . S
H2548 C2552 0.949 . S
C2549 C2550 1.349 . S
C2549 C2551 1.327 . S
C2549 H2572 0.950 . S
C2550 C2549 1.349 . S
C2550 C2562 1.349 . S
C2551 C2549 1.327 . S
C2551 C2567 1.429 . S
C2551 H2573 0.950 . S
C2552 H2548 0.949 . S
C2552 C2560 1.574 1_455 S
C2552 C2568 1.368 . S
H2553 C2561 0.950 . S
H2554 C2559 0.950 . S
H2555 C2560 0.949 . S
H2556 C2562 0.950 . S
H2557 C2563 0.950 . S
H2558 C2564 0.949 . S
C2559 H2554 0.950 . S
C2559 C2561 1.327 . S
C2559 C2565 1.429 . S
C2560 C2552 1.574 1_655 S
C2560 H2555 0.949 . S
C2560 C2566 1.368 . S
C2561 C2545 1.349 . S
C2561 H2553 0.950 . S
C2561 C2559 1.327 . S
C2562 C2550 1.349 . S
C2562 H2556 0.950 . S
C2562 C2563 1.327 . S
C2563 H2557 0.950 . S
C2563 C2562 1.327 . S
C2563 C2567 1.429 . S
C2564 C2547 1.574 1_455 S
C2564 H2558 0.949 . S
C2564 C2568 1.368 . S
C2565 C2546 1.429 . S
C2565 C2559 1.429 . S
C2565 C2566 1.523 . S
C2566 C2547 1.368 . S
C2566 C2560 1.368 . S
C2566 C2565 1.523 . S
C2567 C2551 1.429 . S
C2567 C2563 1.429 . S
C2567 C2568 1.523 . S
C2568 C2552 1.368 . S
C2568 C2564 1.368 . S
C2568 C2567 1.523 . S
H2569 C2544 0.950 . S
H2570 C2546 0.950 . S
H2571 C2547 0.949 . S
H2572 C2549 0.950 . S
H2573 C2551 0.950 . S
C2574 C2575 1.349 . S
C2574 C2576 1.327 . S
C2574 H2599 0.950 . S
C2575 C2574 1.349 . S
C2575 C2591 1.349 . S
C2576 C2574 1.327 . S
C2576 C2595 1.429 . S
C2576 H2600 0.950 . S
C2577 C2594 1.574 . S
C2577 C2596 1.368 . S
C2577 H2601 0.949 . S
H2578 C2582 0.949 . S
C2579 C2580 1.349 . S
C2579 C2581 1.327 . S
C2579 H2602 0.950 . S
C2580 C2579 1.349 . S
C2580 C2592 1.349 . S
C2581 C2579 1.327 . S
C2581 C2597 1.429 . S
C2581 H2603 0.950 . S
C2582 H2578 0.949 . S
C2582 C2590 1.574 . S
C2582 C2598 1.368 . S
H2583 C2591 0.950 . S
H2584 C2589 0.950 . S
H2585 C2590 0.949 . S
H2586 C2592 0.950 . S
H2587 C2593 0.950 . S
H2588 C2594 0.949 . S
C2589 H2584 0.950 . S
C2589 C2591 1.327 . S
C2589 C2595 1.429 . S
C2590 C2582 1.574 . S
C2590 H2585 0.949 . S
C2590 C2596 1.368 . S
C2591 C2575 1.349 . S
C2591 H2583 0.950 . S
C2591 C2589 1.327 . S
C2592 C2580 1.349 . S
C2592 H2586 0.950 . S
C2592 C2593 1.327 . S
C2593 H2587 0.950 . S
C2593 C2592 1.327 . S
C2593 C2597 1.429 . S
C2594 C2577 1.574 . S
C2594 H2588 0.949 . S
C2594 C2598 1.368 . S
C2595 C2576 1.429 . S
C2595 C2589 1.429 . S
C2595 C2596 1.523 . S
C2596 C2577 1.368 . S
C2596 C2590 1.368 . S
C2596 C2595 1.523 . S
C2597 C2581 1.429 . S
C2597 C2593 1.429 . S
C2597 C2598 1.523 . S
C2598 C2582 1.368 . S
C2598 C2594 1.368 . S
C2598 C2597 1.523 . S
H2599 C2574 0.950 . S
H2600 C2576 0.950 . S
H2601 C2577 0.949 . S
H2602 C2579 0.950 . S
H2603 C2581 0.950 . S
C2604 C2605 1.349 . S
C2604 C2606 1.327 . S
C2604 H2629 0.950 . S
C2605 C2604 1.349 . S
C2605 C2621 1.349 . S
C2606 C2604 1.327 . S
C2606 C2625 1.429 . S
C2606 H2630 0.950 . S
C2607 C2624 1.576 1_545 S
C2607 C2626 1.368 . S
C2607 H2631 0.949 . S
H2608 C2612 0.949 . S
C2609 C2610 1.349 . S
C2609 C2611 1.327 . S
C2609 H2632 0.950 . S
C2610 C2609 1.349 . S
C2610 C2622 1.349 . S
C2611 C2609 1.327 . S
C2611 C2627 1.429 . S
C2611 H2633 0.950 . S
C2612 H2608 0.949 . S
C2612 C2620 1.574 1_565 S
C2612 C2628 1.368 . S
H2613 C2621 0.950 . S
H2614 C2619 0.950 . S
H2615 C2620 0.959 . S
H2616 C2622 0.950 . S
H2617 C2623 0.950 . S
H2618 C2624 0.959 . S
C2619 H2614 0.950 . S
C2619 C2621 1.327 . S
C2619 C2625 1.429 . S
C2620 C2612 1.574 1_545 S
C2620 H2615 0.959 . S
C2620 C2626 1.367 . S
C2621 C2605 1.349 . S
C2621 H2613 0.950 . S
C2621 C2619 1.327 . S
C2622 C2610 1.349 . S
C2622 H2616 0.950 . S
C2622 C2623 1.327 . S
C2623 H2617 0.950 . S
C2623 C2622 1.327 . S
C2623 C2627 1.429 . S
C2624 C2607 1.576 1_565 S
C2624 H2618 0.959 . S
C2624 C2628 1.364 . S
C2625 C2606 1.429 . S
C2625 C2619 1.429 . S
C2625 C2626 1.523 . S
C2626 C2607 1.368 . S
C2626 C2620 1.367 . S
C2626 C2625 1.523 . S
C2627 C2611 1.429 . S
C2627 C2623 1.429 . S
C2627 C2628 1.523 . S
C2628 C2612 1.368 . S
C2628 C2624 1.364 . S
C2628 C2627 1.523 . S
H2629 C2604 0.950 . S
H2630 C2606 0.950 . S
H2631 C2607 0.949 . S
H2632 C2609 0.950 . S
H2633 C2611 0.950 . S
C2634 C2635 1.349 . S
C2634 C2636 1.327 . S
C2634 H2659 0.950 . S
C2635 C2634 1.349 . S
C2635 C2651 1.349 . S
C2636 C2634 1.327 . S
C2636 C2655 1.429 . S
C2636 H2660 0.950 . S
C2637 C2654 1.574 . S
C2637 C2656 1.368 1_655 S
C2637 H2661 0.949 . S
H2638 C2642 0.949 . S
C2639 C2640 1.349 . S
C2639 C2641 1.327 . S
C2639 H2662 0.950 . S
C2640 C2639 1.349 . S
C2640 C2652 1.349 . S
C2641 C2639 1.327 . S
C2641 C2657 1.429 . S
C2641 H2663 0.950 . S
C2642 H2638 0.949 . S
C2642 C2650 1.574 . S
C2642 C2658 1.368 1_455 S
H2643 C2651 0.950 . S
H2644 C2649 0.950 . S
H2645 C2650 0.949 . S
H2646 C2652 0.950 . S
H2647 C2653 0.950 . S
H2648 C2654 0.949 . S
C2649 H2644 0.950 . S
C2649 C2651 1.327 . S
C2649 C2655 1.429 . S
C2650 C2642 1.574 . S
C2650 H2645 0.949 . S
C2650 C2656 1.368 . S
C2651 C2635 1.349 . S
C2651 H2643 0.950 . S
C2651 C2649 1.327 . S
C2652 C2640 1.349 . S
C2652 H2646 0.950 . S
C2652 C2653 1.327 . S
C2653 H2647 0.950 . S
C2653 C2652 1.327 . S
C2653 C2657 1.429 . S
C2654 C2637 1.574 . S
C2654 H2648 0.949 . S
C2654 C2658 1.368 . S
C2655 C2636 1.429 . S
C2655 C2649 1.429 . S
C2655 C2656 1.523 . S
C2656 C2637 1.368 1_455 S
C2656 C2650 1.368 . S
C2656 C2655 1.523 . S
C2657 C2641 1.429 . S
C2657 C2653 1.429 . S
C2657 C2658 1.523 . S
C2658 C2642 1.368 1_655 S
C2658 C2654 1.368 . S
C2658 C2657 1.523 . S
H2659 C2634 0.950 . S
H2660 C2636 0.950 . S
H2661 C2637 0.949 . S
H2662 C2639 0.950 . S
H2663 C2641 0.950 . S
C505 C78 0.552 . S
C510 C8 0.552 . S
C535 C50 0.552 . S
C540 C22 0.552 . S
C565 C36 0.552 . S
C570 C64 0.552 . S
C595 C92 0.552 . S
C600 C162 0.552 . S
C625 C106 0.552 . S
C630 C134 0.552 . S
C655 C148 0.552 . S
C660 C120 0.552 . S
C685 C176 0.552 . S
C690 C246 0.552 . S
C715 C190 0.552 . S
C720 C218 0.552 . S
C745 C232 0.552 . S
C750 C204 0.552 . S
C775 C330 0.552 . S
C780 C260 0.552 . S
C805 C302 0.552 . S
C810 C274 0.552 . S
C835 C288 0.552 . S
C840 C316 0.552 . S
C865 C414 0.552 . S
C870 C344 0.552 . S
C895 C386 0.552 . S
C900 C358 0.552 . S
C925 C372 0.552 . S
C930 C400 0.552 . S
C955 C498 0.552 . S
C960 C428 0.552 . S
C985 C470 0.552 . S
C990 C442 0.552 . S
C1015 C484 0.552 . S
C1020 C456 0.552 . S
C1045 C237 1.019 . S
C1050 C13 1.019 . S
C1075 C251 1.019 . S
C1080 C27 1.019 . S
C1105 C223 1.019 . S
C1110 C41 1.019 . S
C1135 C55 1.019 . S
C1140 C377 1.019 . S
C1165 C69 1.019 . S
C1170 C349 1.019 . S
C1195 C83 1.019 . S
C1200 C363 1.019 . S
C1225 C97 1.019 . S
C1230 C489 1.019 . S
C1255 C503 1.019 . S
C1260 C111 1.019 . S
C1285 C475 1.019 . S
C1290 C125 1.019 . S
C1315 C293 1.019 . S
C1320 C139 1.019 . S
C1345 C265 1.019 . S
C1350 C153 1.019 . S
C1375 C167 1.019 . S
C1380 C279 1.019 . S
C1405 C181 1.019 . S
C1410 C405 1.019 . S
C1435 C419 1.019 . S
C1440 C195 1.019 . S
C1465 C391 1.019 . S
C1470 C209 1.019 . S
C1495 C307 1.019 . S
C1500 C461 1.019 . S
C1525 C433 1.019 . S
C1530 C321 1.019 . S
C1555 C335 1.019 . S
C1560 C447 1.019 . S
C1585 C263 1.149 . S
C1590 C11 1.149 . S
C1615 C277 1.149 . S
C1620 C25 1.149 . S
C1645 C39 1.149 . S
C1650 C291 1.149 . S
C1675 C53 1.149 . S
C1680 C473 1.149 . S
C1705 C487 1.149 . S
C1710 C67 1.149 . S
C1735 C501 1.149 . S
C1740 C81 1.149 . S
C1765 C95 1.149 . S
C1770 C347 1.149 . S
C1795 C109 1.149 . S
C1800 C361 1.149 . S
C1825 C375 1.149 . S
C1830 C123 1.149 . S
C1855 C137 1.149 . S
C1860 C221 1.149 . S
C1885 C151 1.149 . S
C1890 C235 1.149 . S
C1915 C249 1.149 . S
C1920 C165 1.149 . S
C1945 C179 1.149 . S
C1950 C431 1.149 . S
C1975 C193 1.149 . S
C1980 C445 1.149 . S
C2005 C459 1.149 . S
C2010 C207 1.149 . S
C2035 C389 1.149 . S
C2040 C305 1.149 . S
C2065 C319 1.149 . S
C2070 C403 1.149 . S
C2095 C333 1.149 . S
C2100 C417 1.149 . S
C2125 C385 1.600 . S
C2130 C7 1.600 . S
C2155 C21 1.599 . S
C2160 C399 1.599 . S
C2185 C413 1.600 . S
C2190 C35 1.600 . S
C2215 C49 1.600 . S
C2220 C175 1.600 . S
C2245 C189 1.600 . S
C2250 C63 1.600 . S
C2275 C203 1.599 . S
C2280 C77 1.599 . S
C2305 C91 1.600 . S
C2310 C301 1.600 . S
C2335 C315 1.599 . S
C2340 C105 1.599 . S
C2365 C119 1.600 . S
C2370 C329 1.600 . S
C2395 C133 1.600 . S
C2400 C427 1.600 . S
C2425 C147 1.600 . S
C2430 C441 1.600 . S
C2455 C455 1.599 . S
C2460 C161 1.599 . S
C2485 C217 1.600 . S
C2490 C343 1.600 . S
C2515 C231 1.599 . S
C2520 C357 1.599 . S
C2545 C245 1.600 . S
C2550 C371 1.599 . S
C2575 C259 1.600 . S
C2580 C469 1.600 . S
C2605 C273 1.599 . S
C2610 C483 1.599 . S
C2635 C497 1.600 . S
C2640 C287 1.599 . S
