# Generated by pormake.
# Topology ukh, (4)-cn, num edge types: 1
# Building blocks:
#     Node 0, Type 0, BuildingBlock: NAHDIM_clean_sbu_0, # of connection points: 4
#     Node 1, Type 0, BuildingBlock: NAHDIM_clean_sbu_0, # of connection points: 4
#     Node 2, Type 0, BuildingBlock: NAHDIM_clean_sbu_0, # of connection points: 4
#     Node 3, Type 0, BuildingBlock: NAHDIM_clean_sbu_0, # of connection points: 4
#     Node 4, Type 0, BuildingBlock: NAHDIM_clean_sbu_0, # of connection points: 4
#     Node 5, Type 0, BuildingBlock: NAHDIM_clean_sbu_0, # of connection points: 4
#     Node 6, Type 0, BuildingBlock: NAHDIM_clean_sbu_0, # of connection points: 4
#     Node 7, Type 0, BuildingBlock: NAHDIM_clean_sbu_0, # of connection points: 4
#     Node 8, Type 0, BuildingBlock: NAHDIM_clean_sbu_0, # of connection points: 4
#     Node 9, Type 0, BuildingBlock: NAHDIM_clean_sbu_0, # of connection points: 4
#     Node 10, Type 0, BuildingBlock: NAHDIM_clean_sbu_0, # of connection points: 4
#     Node 11, Type 0, BuildingBlock: NAHDIM_clean_sbu_0, # of connection points: 4
#     Edge 12, Type (0, 0), BuildingBlock: XUDNAN_clean_linker_2, # of connection points: 2
#     Edge 13, Type (0, 0), BuildingBlock: XUDNAN_clean_linker_2, # of connection points: 2
#     Edge 14, Type (0, 0), BuildingBlock: XUDNAN_clean_linker_2, # of connection points: 2
#     Edge 15, Type (0, 0), BuildingBlock: XUDNAN_clean_linker_2, # of connection points: 2
#     Edge 16, Type (0, 0), BuildingBlock: XUDNAN_clean_linker_2, # of connection points: 2
#     Edge 17, Type (0, 0), BuildingBlock: XUDNAN_clean_linker_2, # of connection points: 2
#     Edge 18, Type (0, 0), BuildingBlock: XUDNAN_clean_linker_2, # of connection points: 2
#     Edge 19, Type (0, 0), BuildingBlock: XUDNAN_clean_linker_2, # of connection points: 2
#     Edge 20, Type (0, 0), BuildingBlock: XUDNAN_clean_linker_2, # of connection points: 2
#     Edge 21, Type (0, 0), BuildingBlock: XUDNAN_clean_linker_2, # of connection points: 2
#     Edge 22, Type (0, 0), BuildingBlock: XUDNAN_clean_linker_2, # of connection points: 2
#     Edge 23, Type (0, 0), BuildingBlock: XUDNAN_clean_linker_2, # of connection points: 2
#     Edge 24, Type (0, 0), BuildingBlock: XUDNAN_clean_linker_2, # of connection points: 2
#     Edge 25, Type (0, 0), BuildingBlock: XUDNAN_clean_linker_2, # of connection points: 2
#     Edge 26, Type (0, 0), BuildingBlock: XUDNAN_clean_linker_2, # of connection points: 2
#     Edge 27, Type (0, 0), BuildingBlock: XUDNAN_clean_linker_2, # of connection points: 2
#     Edge 28, Type (0, 0), BuildingBlock: XUDNAN_clean_linker_2, # of connection points: 2
#     Edge 29, Type (0, 0), BuildingBlock: XUDNAN_clean_linker_2, # of connection points: 2
#     Edge 30, Type (0, 0), BuildingBlock: XUDNAN_clean_linker_2, # of connection points: 2
#     Edge 31, Type (0, 0), BuildingBlock: XUDNAN_clean_linker_2, # of connection points: 2
#     Edge 32, Type (0, 0), BuildingBlock: XUDNAN_clean_linker_2, # of connection points: 2
#     Edge 33, Type (0, 0), BuildingBlock: XUDNAN_clean_linker_2, # of connection points: 2
#     Edge 34, Type (0, 0), BuildingBlock: XUDNAN_clean_linker_2, # of connection points: 2
#     Edge 35, Type (0, 0), BuildingBlock: XUDNAN_clean_linker_2, # of connection points: 2
# Relax obj value: 0.181
# Max RMSD: 0.212
# Mean RMSD: 0.212
data_MOF--net-ukh--node1-NAHDIM_clean_sbu_0--edge1-XUDNAN_clean_linker_2
_symmetry_space_group_name_H-M    P1
_symmetry_Int_Tables_number       1
_symmetry_cell_setting            triclinic
loop_
_symmetry_equiv_pos_as_xyz
'x, y, z'
_cell_length_a     32.172826
_cell_length_b     32.152724
_cell_length_c     59.533836
_cell_angle_alpha  90.027753
_cell_angle_beta   90.026404
_cell_angle_gamma 120.15076
loop_
_atom_site_label
_atom_site_type_symbol
_atom_site_fract_x
_atom_site_fract_y
_atom_site_fract_z
_atom_type_partial_charge
C0 C 0.34772 0.33242 0.03394 0.0
O1 O 0.30142 0.31557 0.03652 0.0
O2 O 0.25161 0.21813 0.0253 0.0
Zn3 Zn 0.31432 0.23335 0.03975 0.0
O4 O 0.30161 0.22134 0.07293 0.0
C5 C 0.32299 0.16965 0.00814 0.0
O6 O 0.30403 0.18703 0.99409 0.0
O7 O 0.36354 0.30325 0.03451 0.0
C8 C 0.31123 0.19285 0.08351 0.0
O9 O 0.33162 0.17206 0.0728 0.0
C10 C 0.21601 0.17549 0.0248 0.0
O11 O 0.22054 0.1404 0.03347 0.0
O12 O 0.33418 0.1873 0.02777 0.0
C13 C 0.10039 0.41841 0.3963 0.0
O14 O 0.11583 0.42019 0.4169 0.0
O15 O 0.05762 0.27445 0.38605 0.0
Zn16 Zn 0.11655 0.33813 0.39255 0.0
O17 O 0.13533 0.34591 0.42522 0.0
C18 C 0.1799 0.30716 0.38343 0.0
O19 O 0.15558 0.28193 0.40099 0.0
O20 O 0.1011 0.38864 0.38248 0.0
C21 C 0.11171 0.31635 0.44077 0.0
O22 O 0.07004 0.27821 0.43614 0.0
C23 C 0.01568 0.26739 0.38973 0.0
O24 O 0.01076 0.30109 0.39975 0.0
O25 O 0.17033 0.33806 0.37541 0.0
C26 C 0.67382 0.10404 0.70462 0.0
O27 O 0.68426 0.08956 0.72332 0.0
O28 O 0.79336 0.10919 0.68897 0.0
Zn29 Zn 0.77599 0.15655 0.70164 0.0
O30 O 0.78569 0.16068 0.73508 0.0
C31 C 0.84239 0.2233 0.67023 0.0
O32 O 0.82187 0.18503 0.65727 0.0
O33 O 0.70787 0.13537 0.69266 0.0
C34 C 0.82835 0.17367 0.74124 0.0
O35 O 0.86055 0.18101 0.72582 0.0
C36 C 0.77753 0.0668 0.69632 0.0
O37 O 0.74801 0.05172 0.71352 0.0
O38 O 0.82446 0.2213 0.68946 0.0
C39 C 0.60819 0.66934 0.03428 0.0
O40 O 0.64945 0.67179 0.03853 0.0
O41 O 0.72292 0.77768 0.02096 0.0
Zn42 Zn 0.66591 0.7723 0.03809 0.0
O43 O 0.68157 0.7837 0.07097 0.0
C44 C 0.63483 0.82958 0.01112 0.0
O45 O 0.61514 0.79348 0.99689 0.0
O46 O 0.60661 0.70799 0.03314 0.0
C47 C 0.71643 0.82472 0.07646 0.0
O48 O 0.74202 0.85513 0.06054 0.0
C49 C 0.75076 0.81601 0.01024 0.0
O50 O 0.74181 0.85161 0.01027 0.0
O51 O 0.65489 0.82589 0.02876 0.0
C52 C 0.91819 0.58759 0.39642 0.0
O53 O 0.93714 0.62244 0.41132 0.0
O54 O 0.92853 0.69687 0.38043 0.0
Zn55 Zn 0.86783 0.63568 0.38823 0.0
O56 O 0.84901 0.63942 0.42004 0.0
C57 C 0.82354 0.63961 0.34711 0.0
O58 O 0.8654 0.64993 0.33869 0.0
O59 O 0.88364 0.5832 0.38432 0.0
C60 C 0.82665 0.66198 0.42375 0.0
O61 O 0.81684 0.6818 0.40681 0.0
C62 C 0.93176 0.73553 0.37311 0.0
O63 O 0.89275 0.73863 0.37101 0.0
O64 O 0.81516 0.62828 0.3677 0.0
C65 C 0.32637 0.90951 0.67844 0.0
O66 O 0.29905 0.91261 0.66291 0.0
O67 O 0.21767 0.90877 0.69827 0.0
Zn68 Zn 0.23674 0.85844 0.70304 0.0
O69 O 0.22316 0.83645 0.73505 0.0
C70 C 0.17411 0.80789 0.66663 0.0
O71 O 0.19287 0.85181 0.65869 0.0
O72 O 0.30704 0.88601 0.69628 0.0
C73 C 0.232 0.86514 0.75138 0.0
O74 O 0.253 0.91156 0.74749 0.0
C75 C 0.2463 0.95393 0.6989 0.0
O76 O 0.29185 0.9706 0.70368 0.0
O77 O 0.19186 0.80116 0.68437 0.0
C78 C 0.68445 0.60369 0.63728 0.0
O79 O 0.70235 0.59264 0.61998 0.0
O80 O 0.77438 0.76179 0.64084 0.0
Zn81 Zn 0.76679 0.69885 0.63071 0.0
O82 O 0.75985 0.69478 0.59697 0.0
C83 C 0.83262 0.66451 0.64608 0.0
O84 O 0.79469 0.62306 0.6512 0.0
O85 O 0.70716 0.64607 0.64521 0.0
C86 C 0.77698 0.6733 0.58565 0.0
O87 O 0.7975 0.65251 0.59625 0.0
C88 C 0.80644 0.80111 0.63227 0.0
O89 O 0.83469 0.8001 0.61661 0.0
O90 O 0.82732 0.69849 0.63849 0.0
C91 C 0.04473 0.67578 0.97932 0.0
O92 O 0.02064 0.69508 0.98782 0.0
O93 O 0.02964 0.76811 0.95682 0.0
Zn94 Zn 0.08839 0.76198 0.95213 0.0
O95 O 0.10092 0.76185 0.91898 0.0
C96 C 0.17774 0.82929 0.97908 0.0
O97 O 0.17952 0.79338 0.98861 0.0
O98 O 0.07749 0.69937 0.96495 0.0
C99 C 0.12874 0.80078 0.90871 0.0
O100 O 0.14863 0.84159 0.91982 0.0
C101 C 0.03245 0.80816 0.95252 0.0
O102 O 0.07285 0.84347 0.94451 0.0
O103 O 0.1443 0.82102 0.96532 0.0
C104 C 0.37448 0.03853 0.26522 0.0
O105 O 0.35734 0.03564 0.24488 0.0
O106 O 0.24679 0.00849 0.29242 0.0
Zn107 Zn 0.3037 0.06501 0.2781 0.0
O108 O 0.2911 0.0733 0.24576 0.0
C109 C 0.31171 0.1272 0.31507 0.0
O110 O 0.29913 0.08866 0.3273 0.0
O111 O 0.35848 0.05234 0.28135 0.0
C112 C 0.2693 0.09631 0.24173 0.0
O113 O 0.25374 0.11098 0.25865 0.0
C114 C 0.20635 0.00415 0.29731 0.0
O115 O 0.19752 0.03862 0.29203 0.0
O116 O 0.31794 0.12559 0.29412 0.0
C117 C 0.34258 0.36814 0.64404 0.0
O118 O 0.33362 0.33198 0.6307 0.0
O119 O 0.23611 0.25548 0.64946 0.0
Zn120 Zn 0.24387 0.3191 0.64008 0.0
O121 O 0.24368 0.32354 0.60647 0.0
C122 C 0.1841 0.35934 0.65752 0.0
O123 O 0.2233 0.40043 0.66174 0.0
O124 O 0.30746 0.37173 0.65144 0.0
C125 C 0.2041 0.29912 0.59608 0.0
O126 O 0.16549 0.2694 0.60747 0.0
C127 C 0.19552 0.21844 0.65334 0.0
O128 O 0.15623 0.22094 0.65103 0.0
O129 O 0.18707 0.32389 0.65011 0.0
C130 C 0.94405 0.33696 0.95877 0.0
O131 O 0.97571 0.33292 0.94644 0.0
O132 O 0.94233 0.22213 0.96335 0.0
Zn133 Zn 0.89305 0.23661 0.95054 0.0
O134 O 0.90034 0.23996 0.91697 0.0
C135 C 0.81588 0.16532 0.97769 0.0
O136 O 0.84693 0.1867 0.99405 0.0
O137 O 0.90402 0.29948 0.96297 0.0
C138 C 0.86441 0.22808 0.90421 0.0
O139 O 0.8225 0.21576 0.9132 0.0
C140 C 0.93556 0.17966 0.96236 0.0
O141 O 0.89599 0.14554 0.95306 0.0
O142 O 0.82717 0.18198 0.95792 0.0
C143 C 0.61296 0.93396 0.26619 0.0
O144 O 0.63884 0.95074 0.24786 0.0
O145 O 0.73591 0.97473 0.29859 0.0
Zn146 Zn 0.69047 0.91861 0.2794 0.0
O147 O 0.71209 0.92585 0.24716 0.0
C148 C 0.71966 0.84986 0.2853 0.0
O149 O 0.75354 0.88055 0.27184 0.0
O150 O 0.62678 0.91612 0.28153 0.0
C151 C 0.68762 0.88929 0.23475 0.0
O152 O 0.65006 0.8515 0.24339 0.0
C153 C 0.78142 0.99476 0.29933 0.0
O154 O 0.80355 0.97953 0.28602 0.0
O155 O 0.6867 0.85819 0.2915 0.0
H156 H 0.59839 0.57948 0.03684 0.0
H157 H 0.51736 0.65244 0.02585 0.0
H158 H 0.4427 0.57396 0.02283 0.0
H159 H 0.52878 0.47921 -0.00142 0.0
H160 H 0.53244 0.43598 0.0165 0.0
H161 H 0.58003 0.49791 0.01674 0.0
H162 H 0.56991 0.50169 0.05974 0.0
H163 H 0.5223 0.43985 0.05964 0.0
H164 H 0.51173 0.48571 0.07098 0.0
H165 H 0.37655 0.4883 0.02294 0.0
H166 H 0.32292 0.40059 0.02578 0.0
H167 H 0.44663 0.38266 0.03623 0.0
C168 C 0.56503 0.579 0.0336 0.0
C169 C 0.56377 0.62217 0.03157 0.0
C170 C 0.51929 0.6199 0.02745 0.0
C171 C 0.47666 0.57548 0.02568 0.0
C172 C 0.47912 0.53367 0.02795 0.0
C173 C 0.52212 0.53495 0.03174 0.0
C174 C 0.51455 0.48468 0.03417 0.0
C175 C 0.54049 0.47382 0.01538 0.0
C176 C 0.53056 0.47758 0.05752 0.0
C177 C 0.46047 0.45498 0.03149 0.0
C178 C 0.44084 0.48401 0.02784 0.0
C179 C 0.3915 0.46515 0.02562 0.0
C180 C 0.36134 0.41526 0.02732 0.0
C181 C 0.38056 0.38473 0.03117 0.0
C182 C 0.43088 0.40499 0.03307 0.0
H183 H 0.09521 0.48739 0.42111 0.0
H184 H 0.04599 0.40666 0.35882 0.0
H185 H 0.99419 0.4416 0.35183 0.0
H186 H 0.98459 0.47351 0.43783 0.0
H187 H 0.0091 0.53322 0.44927 0.0
H188 H 0.04514 0.50487 0.44864 0.0
H189 H 0.1115 0.57694 0.42638 0.0
H190 H 0.07598 0.6059 0.42724 0.0
H191 H 0.09608 0.59561 0.40066 0.0
H192 H 0.9426 0.48013 0.3533 0.0
H193 H 0.90117 0.52572 0.36128 0.0
H194 H 0.98553 0.58203 0.42222 0.0
C195 C 0.07418 0.47765 0.4058 0.0
C196 C 0.07469 0.4443 0.39052 0.0
C197 C 0.04645 0.43237 0.37072 0.0
C198 C 0.01672 0.45184 0.36665 0.0
C199 C 0.01602 0.48352 0.38241 0.0
C200 C 0.04459 0.49694 0.40141 0.0
C201 C 0.0366 0.53096 0.41591 0.0
C202 C 0.01773 0.50932 0.43929 0.0
C203 C 0.08278 0.58028 0.41764 0.0
C204 C -0.00155 0.53391 0.4023 0.0
C205 C 0.98694 0.50623 0.38306 0.0
C206 C 0.95164 0.50231 0.36821 0.0
C207 C 0.92811 0.52807 0.37295 0.0
C208 C 0.94019 0.5575 0.39234 0.0
C209 C 0.97561 0.56004 0.40721 0.0
H210 H 0.39272 0.91709 0.70947 0.0
H211 H 0.37979 0.97009 0.64428 0.0
H212 H 0.46759 0.02578 0.64371 0.0
H213 H 0.48011 0.02903 0.73165 0.0
H214 H 0.51243 0.00548 0.74672 0.0
H215 H 0.44911 0.96764 0.74139 0.0
H216 H 0.46489 0.90482 0.72184 0.0
H217 H 0.52823 0.9422 0.72735 0.0
H218 H 0.50737 0.92346 0.69903 0.0
H219 H 0.55654 0.07864 0.65125 0.0
H220 H 0.6401 0.12128 0.66539 0.0
H221 H 0.59372 0.03351 0.72568 0.0
C222 C 0.40833 0.93987 0.6949 0.0
C223 C 0.37934 0.93912 0.67689 0.0
C224 C 0.40127 0.96986 0.65824 0.0
C225 C 0.45109 0.00173 0.65779 0.0
C226 C 0.47843 0.00228 0.67608 0.0
C227 C 0.45784 0.97185 0.69419 0.0
C228 C 0.49489 0.98019 0.71196 0.0
C229 C 0.48344 0.99657 0.73424 0.0
C230 C 0.49909 0.93498 0.71522 0.0
C231 C 0.53953 0.02038 0.70111 0.0
C232 C 0.52937 0.03265 0.68042 0.0
C233 C 0.56494 0.06917 0.66739 0.0
C234 C 0.61226 0.09331 0.6756 0.0
C235 C 0.62349 0.08079 0.69665 0.0
C236 C 0.5864 0.04403 0.70955 0.0
H237 H 0.62351 0.51247 0.62201 0.0
H238 H 0.63376 0.61863 0.6702 0.0
H239 H 0.54816 0.56627 0.67978 0.0
H240 H 0.51233 0.48273 0.60074 0.0
H241 H 0.49097 0.41946 0.59722 0.0
H242 H 0.55439 0.46197 0.59637 0.0
H243 H 0.56902 0.416 0.6283 0.0
H244 H 0.50555 0.37297 0.62912 0.0
H245 H 0.53636 0.40453 0.65431 0.0
H246 H 0.45914 0.50704 0.68057 0.0
H247 H 0.37482 0.44357 0.67377 0.0
H248 H 0.42386 0.37623 0.62556 0.0
C249 C 0.60813 0.52426 0.63497 0.0
C250 C 0.63537 0.56963 0.64535 0.0
C251 C 0.61366 0.58392 0.66205 0.0
C252 C 0.56504 0.55443 0.66763 0.0
C253 C 0.5388 0.51056 0.65654 0.0
C254 C 0.55976 0.49526 0.64077 0.0
C255 C 0.52309 0.44813 0.63019 0.0
C256 C 0.52003 0.45343 0.60462 0.0
C257 C 0.53417 0.40804 0.63583 0.0
C258 C 0.47798 0.44013 0.64191 0.0
C259 C 0.48772 0.47627 0.65719 0.0
C260 C 0.45116 0.47809 0.66894 0.0
C261 C 0.40341 0.44204 0.6649 0.0
C262 C 0.3928 0.40484 0.64924 0.0
C263 C 0.43077 0.40382 0.63785 0.0
H264 H 0.02067 0.42486 0.94792 0.0
H265 H 0.89118 0.35679 0.98853 0.0
H266 H 0.90791 0.43674 0.00157 0.0
H267 H 0.09412 0.5244 0.98652 0.0
H268 H 0.12231 0.56684 0.96396 0.0
H269 H 0.10266 0.50416 0.95958 0.0
H270 H 0.05117 0.50197 0.9256 0.0
H271 H 0.07081 0.56456 0.9298 0.0
H272 H 0.00749 0.52086 0.92933 0.0
H273 H 0.93592 0.52433 0.00812 0.0
H274 H 0.9704 0.61231 0.00605 0.0
H275 H 0.08113 0.62257 0.9609 0.0
C276 C 0.99615 0.42665 0.95981 0.0
C277 C 0.95472 0.38456 0.96729 0.0
C278 C 0.9232 0.38856 0.9826 0.0
C279 C 0.93252 0.43379 0.99019 0.0
C280 C 0.97354 0.4746 0.98234 0.0
C281 C 0.00479 0.47142 0.96746 0.0
C282 C 0.04443 0.52072 0.96032 0.0
C283 C 0.0938 0.52954 0.96807 0.0
C284 C 0.04337 0.5274 0.93475 0.0
C285 C 0.02997 0.55218 0.97308 0.0
C286 C 0.9894 0.52498 0.98594 0.0
C287 C 0.96798 0.54603 -0.00171 0.0
C288 C 0.98787 0.59607 0.99702 0.0
C289 C 0.02853 0.62442 0.98335 0.0
C290 C 0.05033 0.60207 0.97167 0.0
H291 H 0.42793 0.02111 0.23472 0.0
H292 H 0.39795 0.01721 0.30604 0.0
H293 H 0.45176 0.98495 0.31369 0.0
H294 H 0.43517 0.91259 0.2327 0.0
H295 H 0.48421 0.93666 0.21294 0.0
H296 H 0.44194 0.95788 0.21283 0.0
H297 H 0.51174 0.04559 0.21779 0.0
H298 H 0.5542 0.02469 0.21769 0.0
H299 H 0.55303 0.0601 0.24091 0.0
H300 H 0.5078 0.95215 0.31361 0.0
H301 H 0.56926 0.92939 0.30626 0.0
H302 H 0.56536 0.95774 0.23522 0.0
C303 C 0.43265 0.01342 0.25194 0.0
C304 C 0.40863 0.02152 0.26977 0.0
C305 C 0.41608 0.01141 0.29211 0.0
C306 C 0.44632 0.99279 0.29662 0.0
C307 C 0.4691 0.98479 0.27865 0.0
C308 C 0.46314 0.99531 0.25678 0.0
C309 C 0.49353 0.98541 0.24065 0.0
C310 C 0.46181 0.94577 0.22379 0.0
C311 C 0.53031 0.03171 0.22856 0.0
C312 C 0.51783 0.96811 0.2569 0.0
C313 C 0.50264 0.9673 0.27868 0.0
C314 C 0.52005 0.95269 0.29663 0.0
C315 C 0.55478 0.93962 0.29227 0.0
C316 C 0.57216 0.94191 0.27018 0.0
C317 C 0.55283 0.9557 0.25228 0.0
H318 H 0.30284 0.07716 0.20296 0.0
H319 H 0.22864 0.14912 0.22824 0.0
H320 H 0.22895 0.17957 0.1902 0.0
H321 H 0.38012 0.16853 0.16592 0.0
H322 H 0.37784 0.12844 0.14416 0.0
H323 H 0.36869 0.10918 0.17301 0.0
H324 H 0.28659 0.03493 0.16266 0.0
H325 H 0.29565 0.05377 0.13371 0.0
H326 H 0.24215 0.04346 0.14823 0.0
H327 H 0.24203 0.20661 0.15005 0.0
H328 H 0.26405 0.22553 0.1101 0.0
H329 H 0.32925 0.13555 0.11109 0.0
C330 C 0.28603 0.09874 0.20045 0.0
C331 C 0.2657 0.11073 0.21858 0.0
C332 C 0.24437 0.13936 0.21461 0.0
C333 C 0.24437 0.15687 0.19306 0.0
C334 C 0.26556 0.14518 0.17566 0.0
C335 C 0.28563 0.11644 0.17906 0.0
C336 C 0.30739 0.11044 0.15763 0.0
C337 C 0.36173 0.13035 0.16036 0.0
C338 C 0.28138 0.0575 0.15012 0.0
C339 C 0.29725 0.14107 0.14179 0.0
C340 C 0.27293 0.16063 0.15248 0.0
C341 C 0.26073 0.1912 0.14142 0.0
C342 C 0.27354 0.20185 0.11877 0.0
C343 C 0.29833 0.182 0.10746 0.0
C344 C 0.3102 0.1512 0.11921 0.0
H345 H 0.07025 0.26304 0.47877 0.0
H346 H 0.20283 0.38355 0.45355 0.0
H347 H 0.24132 0.39104 0.49029 0.0
H348 H 0.07934 0.31082 0.53488 0.0
H349 H 0.05446 0.25281 0.54816 0.0
H350 H 0.03716 0.2573 0.51989 0.0
H351 H 0.06361 0.1974 0.50643 0.0
H352 H 0.08137 0.19303 0.53462 0.0
H353 H 0.12404 0.2103 0.51197 0.0
H354 H 0.26635 0.38392 0.52926 0.0
H355 H 0.2744 0.36622 0.56884 0.0
H356 H 0.1252 0.25138 0.56886 0.0
C357 C 0.10728 0.29118 0.481 0.0
C358 C 0.13352 0.32263 0.46326 0.0
C359 C 0.18192 0.35906 0.4669 0.0
C360 C 0.2042 0.36353 0.48768 0.0
C361 C 0.17754 0.33153 0.5047 0.0
C362 C 0.13002 0.29638 0.50169 0.0
C363 C 0.10937 0.26688 0.52282 0.0
C364 C 0.06762 0.2723 0.53198 0.0
C365 C 0.09369 0.21376 0.5187 0.0
C366 C 0.1528 0.29082 0.53811 0.0
C367 C 0.1918 0.32786 0.5273 0.0
C368 C 0.23602 0.3551 0.53795 0.0
C369 C 0.24027 0.34466 0.56041 0.0
C370 C 0.20044 0.30745 0.57195 0.0
C371 C 0.15633 0.28004 0.56052 0.0
H372 H 0.77173 0.16517 0.77754 0.0
H373 H 0.91742 0.20417 0.75895 0.0
H374 H 0.94263 0.22347 0.79849 0.0
H375 H 0.80369 0.25749 0.81881 0.0
H376 H 0.75549 0.21996 0.83771 0.0
H377 H 0.74843 0.2084 0.80794 0.0
H378 H 0.72856 0.1207 0.81484 0.0
H379 H 0.73527 0.1319 0.84463 0.0
H380 H 0.77004 0.10985 0.8306 0.0
H381 H 0.95249 0.23969 0.83982 0.0
H382 H 0.94559 0.24895 0.88056 0.0
H383 H 0.79356 0.19937 0.87232 0.0
C384 C 0.80888 0.17756 0.78179 0.0
C385 C 0.8426 0.18317 0.76514 0.0
C386 C 0.8909 0.19955 0.7714 0.0
C387 C 0.90563 0.21071 0.79382 0.0
C388 C 0.87164 0.20524 0.80977 0.0
C389 C 0.82423 0.18885 0.8041 0.0
C390 C 0.79494 0.18612 0.82453 0.0
C391 C 0.77445 0.22002 0.82209 0.0
C392 C 0.75484 0.13405 0.82891 0.0
C393 C 0.83333 0.20359 0.84255 0.0
C394 C 0.87732 0.21452 0.83366 0.0
C395 C 0.91822 0.23122 0.847 0.0
C396 C 0.91394 0.23643 0.87012 0.0
C397 C 0.86905 0.22492 0.87965 0.0
C398 C 0.8284 0.2086 0.86557 0.0
H399 H 0.66134 0.77629 0.11297 0.0
H400 H 0.78869 0.90946 0.09346 0.0
H401 H 0.79719 0.93956 0.1323 0.0
H402 H 0.61318 0.82851 0.14836 0.0
H403 H 0.59022 0.78112 0.169 0.0
H404 H 0.59656 0.76808 0.14022 0.0
H405 H 0.64985 0.73287 0.15268 0.0
H406 H 0.64328 0.74537 0.18155 0.0
H407 H 0.7024 0.76889 0.16964 0.0
H408 H 0.78854 0.95738 0.17267 0.0
H409 H 0.76473 0.96024 0.21186 0.0
H410 H 0.64283 0.81567 0.20459 0.0
C411 C 0.69155 0.81142 0.11693 0.0
C412 C 0.72444 0.84045 0.10019 0.0
C413 C 0.76311 0.88649 0.10602 0.0
C414 C 0.76825 0.90394 0.12804 0.0
C415 C 0.73453 0.87486 0.14402 0.0
C416 C 0.69714 0.82944 0.13878 0.0
C417 C 0.66454 0.80624 0.15877 0.0
C418 C 0.6131 0.79537 0.15378 0.0
C419 C 0.66508 0.76065 0.16609 0.0
C420 C 0.68898 0.84601 0.17595 0.0
C421 C 0.72942 0.88521 0.16718 0.0
C422 C 0.75714 0.92675 0.17978 0.0
C423 C 0.74325 0.9281 0.20199 0.0
C424 C 0.70195 0.88821 0.21129 0.0
C425 C 0.67465 0.84675 0.19801 0.0
H426 H 0.81494 0.63468 0.55693 0.0
H427 H 0.73749 0.71301 0.55826 0.0
H428 H 0.73956 0.71644 0.51678 0.0
H429 H 0.89344 0.6999 0.51229 0.0
H430 H 0.89321 0.64844 0.50012 0.0
H431 H 0.88338 0.64995 0.5298 0.0
H432 H 0.80281 0.56937 0.52665 0.0
H433 H 0.81246 0.56751 0.49695 0.0
H434 H 0.75793 0.56413 0.50689 0.0
H435 H 0.753 0.71406 0.47528 0.0
H436 H 0.77603 0.70543 0.43677 0.0
H437 H 0.84478 0.62873 0.46286 0.0
C438 C 0.79799 0.6522 0.54854 0.0
C439 C 0.77597 0.67351 0.56084 0.0
C440 C 0.7545 0.69635 0.54918 0.0
C441 C 0.75547 0.69846 0.52564 0.0
C442 C 0.77795 0.6775 0.51406 0.0
C443 C 0.79868 0.65468 0.52511 0.0
C444 C 0.82172 0.63616 0.5088 0.0
C445 C 0.87616 0.66006 0.51301 0.0
C446 C 0.79726 0.58102 0.50989 0.0
C447 C 0.81114 0.65254 0.48682 0.0
C448 C 0.78573 0.67618 0.4902 0.0
C449 C 0.77268 0.6954 0.47242 0.0
C450 C 0.786 0.69037 0.45062 0.0
C451 C 0.81216 0.66635 0.44679 0.0
C452 C 0.82465 0.64712 0.4652 0.0
H453 H 0.17968 0.87828 0.8812 0.0
H454 H 0.10295 0.72209 0.88193 0.0
H455 H 0.12327 0.72166 0.84195 0.0
H456 H 0.14296 0.89071 0.82594 0.0
H457 H 0.19978 0.94313 0.8192 0.0
H458 H 0.17982 0.93093 0.84794 0.0
H459 H 0.25892 0.93349 0.85917 0.0
H460 H 0.27905 0.94547 0.83044 0.0
H461 H 0.27599 0.89481 0.84495 0.0
H462 H 0.15206 0.73835 0.80201 0.0
H463 H 0.18423 0.77073 0.76442 0.0
H464 H 0.24141 0.91605 0.78989 0.0
C465 C 0.16717 0.84394 0.87299 0.0
C466 C 0.13984 0.8002 0.88469 0.0
C467 C 0.12392 0.75605 0.87329 0.0
C468 C 0.13538 0.75543 0.85061 0.0
C469 C 0.16261 0.79924 0.83963 0.0
C470 C 0.17807 0.84266 0.85039 0.0
C471 C 0.20599 0.88465 0.83467 0.0
C472 C 0.18061 0.91407 0.83176 0.0
C473 C 0.25808 0.91647 0.84279 0.0
C474 C 0.20384 0.85807 0.81334 0.0
C475 C 0.17883 0.80885 0.81658 0.0
C476 C 0.17172 0.77683 0.79926 0.0
C477 C 0.19022 0.79561 0.77798 0.0
C478 C 0.21537 0.84595 0.77421 0.0
C479 C 0.2225 0.87743 0.79223 0.0
H480 H 0.18895 0.90899 0.95765 0.0
H481 H 0.24652 0.86433 0.01253 0.0
H482 H 0.30061 0.94986 0.02266 0.0
H483 H 0.30173 0.0208 0.943 0.0
H484 H 0.26976 0.05218 0.93695 0.0
H485 H 0.24117 0.98824 0.93227 0.0
H486 H 0.17017 0.97477 0.95782 0.0
H487 H 0.19838 0.03845 0.96249 0.0
H488 H 0.18235 0.99814 0.98608 0.0
H489 H 0.34008 0.03954 0.02959 0.0
H490 H 0.35982 0.12405 0.03325 0.0
H491 H 0.27678 0.10862 0.97319 0.0
C492 C 0.21352 0.917 0.97157 0.0
C493 C 0.21351 0.87994 0.98433 0.0
C494 C 0.24607 0.89215 0.00247 0.0
C495 C 0.277 0.94061 0.00828 0.0
C496 C 0.27529 0.97622 0.99556 0.0
C497 C 0.24452 0.96483 0.97748 0.0
C498 C 0.24615 0.00897 0.96764 0.0
C499 C 0.26589 0.01808 0.94354 0.0
C500 C 0.19633 0.00482 0.96858 0.0
C501 C 0.28125 0.04703 0.98358 0.0
C502 C 0.29828 0.02768 -0.00062 0.0
C503 C 0.3277 0.05521 0.01705 0.0
C504 C 0.33872 0.10321 0.01899 0.0
C505 C 0.3201 0.12308 0.00341 0.0
C506 C 0.29236 0.09489 0.98512 0.0
H507 H 0.20317 0.24034 0.39646 0.0
H508 H 0.23274 0.34731 0.34503 0.0
H509 H 0.28223 0.32062 0.3246 0.0
H510 H 0.32111 0.24405 0.39377 0.0
H511 H 0.29248 0.17997 0.39795 0.0
H512 H 0.26717 0.21343 0.41042 0.0
H513 H 0.18569 0.15708 0.39094 0.0
H514 H 0.21065 0.12363 0.37843 0.0
H515 H 0.18394 0.14959 0.36087 0.0
H516 H 0.3181 0.27452 0.3073 0.0
H517 H 0.33533 0.21205 0.29405 0.0
H518 H 0.28152 0.13518 0.35694 0.0
C519 C 0.22103 0.25911 0.3812 0.0
C520 C 0.21424 0.29602 0.37236 0.0
C521 C 0.23767 0.31911 0.35217 0.0
C522 C 0.26599 0.30431 0.34051 0.0
C523 C 0.27077 0.26679 0.34942 0.0
C524 C 0.24911 0.24472 0.3694 0.0
C525 C 0.25508 0.20182 0.3742 0.0
C526 C 0.2858 0.21035 0.39534 0.0
C527 C 0.20593 0.15532 0.37621 0.0
C528 C 0.28161 0.20172 0.35329 0.0
C529 C 0.29122 0.24001 0.3394 0.0
C530 C 0.3116 0.24496 0.31823 0.0
C531 C 0.32118 0.2092 0.31084 0.0
C532 C 0.30991 0.16878 0.32451 0.0
C533 C 0.29125 0.16596 0.34624 0.0
H534 H 0.9038 0.22098 0.63954 0.0
H535 H 0.89496 0.30966 0.69211 0.0
H536 H 0.98321 0.36255 0.69085 0.0
H537 H 0.99762 0.21728 0.66149 0.0
H538 H 0.0266 0.21823 0.63543 0.0
H539 H 0.96288 0.19499 0.63604 0.0
H540 H 0.97074 0.25542 0.6052 0.0
H541 H 0.03462 0.27833 0.60414 0.0
H542 H 0.0121 0.31876 0.60913 0.0
H543 H 0.0734 0.39777 0.68809 0.0
H544 H 0.15611 0.41138 0.68394 0.0
H545 H 0.10371 0.2959 0.63501 0.0
C546 C 0.92007 0.25271 0.6501 0.0
C547 C 0.89245 0.26146 0.66576 0.0
C548 C 0.91542 0.30255 0.67981 0.0
C549 C 0.96554 0.33281 0.67921 0.0
C550 C 0.99206 0.32151 0.66444 0.0
C551 C 0.96993 0.28263 0.64996 0.0
C552 C 0.00625 0.27379 0.63803 0.0
C553 C 0.99782 0.2231 0.64307 0.0
C554 C 0.00591 0.28209 0.61262 0.0
C555 C 0.05206 0.31233 0.64876 0.0
C556 C 0.04355 0.34035 0.66355 0.0
C557 C 0.08054 0.3765 0.6763 0.0
C558 C 0.12729 0.38389 0.67392 0.0
C559 C 0.1361 0.35445 0.65931 0.0
C560 C 0.09801 0.31881 0.64643 0.0
H561 H 0.68288 0.91237 0.03535 0.0
H562 H 0.60682 0.85575 0.97246 0.0
H563 H 0.63391 0.93862 0.95964 0.0
H564 H 0.66827 0.02164 0.03909 0.0
H565 H 0.72823 0.05726 0.0502 0.0
H566 H 0.69354 0.99388 0.05641 0.0
H567 H 0.76235 0.98246 0.04081 0.0
H568 H 0.797 0.04542 0.0344 0.0
H569 H 0.78348 0.00156 0.01256 0.0
H570 H 0.68118 0.02678 0.9511 0.0
H571 H 0.74462 0.11179 0.94734 0.0
H572 H 0.79072 0.1103 0.0157 0.0
C573 C 0.6704 0.91714 0.01918 0.0
C574 C 0.64254 0.87752 0.00493 0.0
C575 C 0.62786 0.88551 0.98373 0.0
C576 C 0.64299 0.93248 0.97635 0.0
C577 C 0.67234 0.97088 0.99045 0.0
C578 C 0.68549 0.96359 0.01154 0.0
C579 C 0.7225 0.01043 0.02226 0.0
C580 C 0.70188 0.02145 0.04323 0.0
C581 C 0.76905 0.00991 0.02781 0.0
C582 C 0.73011 0.0451 0.00344 0.0
C583 C 0.7001 0.02183 0.98543 0.0
C584 C 0.70406 0.04556 0.96527 0.0
C585 C 0.74034 0.09385 0.96328 0.0
C586 C 0.77254 0.11775 0.98128 0.0
C587 C 0.76621 0.09332 0.00179 0.0
H588 H 0.78942 0.82726 0.27722 0.0
H589 H 0.654 0.77677 0.31213 0.0
H590 H 0.66 0.70843 0.32735 0.0
H591 H 0.77434 0.70789 0.26423 0.0
H592 H 0.83705 0.72864 0.26918 0.0
H593 H 0.81885 0.7697 0.25871 0.0
H594 H 0.86235 0.82749 0.29206 0.0
H595 H 0.88087 0.78685 0.30245 0.0
H596 H 0.84761 0.80492 0.32038 0.0
H597 H 0.68575 0.65184 0.34228 0.0
H598 H 0.73051 0.61372 0.35684 0.0
H599 H 0.84809 0.70056 0.31143 0.0
C600 C 0.76048 0.80137 0.28771 0.0
C601 C 0.72112 0.80722 0.29343 0.0
C602 C 0.68442 0.7729 0.30748 0.0
C603 C 0.6874 0.73385 0.3161 0.0
C604 C 0.72708 0.72952 0.31034 0.0
C605 C 0.76294 0.76238 0.29643 0.0
C606 C 0.80398 0.75237 0.29442 0.0
C607 C 0.80881 0.73883 0.27019 0.0
C608 C 0.85146 0.79545 0.30284 0.0
C609 C 0.78639 0.70963 0.30996 0.0
C610 C 0.74168 0.69655 0.31875 0.0
C611 C 0.72029 0.66109 0.33517 0.0
C612 C 0.74596 0.63962 0.34332 0.0
C613 C 0.7925 0.6538 0.33507 0.0
C614 C 0.81209 0.68805 0.31765 0.0
H615 H 0.11501 0.81883 0.63747 0.0
H616 H 0.12205 0.71391 0.68067 0.0
H617 H 0.03468 0.65957 0.67596 0.0
H618 H 0.01572 0.80943 0.66036 0.0
H619 H 0.9895 0.81663 0.63495 0.0
H620 H 0.05343 0.84195 0.63686 0.0
H621 H 0.05283 0.79503 0.60133 0.0
H622 H 0.98877 0.77018 0.59898 0.0
H623 H 0.01342 0.73077 0.60014 0.0
H624 H 0.94476 0.62329 0.67194 0.0
H625 H 0.86143 0.60751 0.66774 0.0
H626 H 0.91471 0.73817 0.62846 0.0
C627 C 0.09867 0.78363 0.6452 0.0
C628 C 0.12544 0.77059 0.65937 0.0
C629 C 0.10232 0.72458 0.66961 0.0
C630 C 0.05266 0.69345 0.66703 0.0
C631 C 0.02679 0.70872 0.65403 0.0
C632 C 0.04922 0.75251 0.643 0.0
C633 C 0.01307 0.7635 0.63243 0.0
C634 C 0.01826 0.81064 0.64172 0.0
C635 C 0.01727 0.76493 0.60669 0.0
C636 C 0.96682 0.72025 0.64013 0.0
C637 C 0.97521 0.68848 0.65218 0.0
C638 C 0.93775 0.64749 0.66218 0.0
C639 C 0.8906 0.63893 0.65981 0.0
C640 C 0.88162 0.67169 0.64787 0.0
C641 C 0.92032 0.71242 0.63773 0.0
H642 H 0.0268 0.24385 0.97669 0.0
H643 H 0.92672 0.0911 0.96825 0.0
H644 H 0.98771 0.07313 0.98311 0.0
H645 H 0.1326 0.24075 0.96006 0.0
H646 H 0.171 0.28559 0.98019 0.0
H647 H 0.11925 0.28629 0.96912 0.0
H648 H 0.08796 0.28306 0.00957 0.0
H649 H 0.13965 0.28244 0.02076 0.0
H650 H 0.08003 0.23538 0.02817 0.0
H651 H 0.05951 0.07195 -0.00055 0.0
H652 H 0.13713 0.08782 0.01536 0.0
H653 H 0.19032 0.24137 0.01214 0.0
C654 C 0.01761 0.2066 0.97801 0.0
C655 C 0.97196 0.16886 0.97135 0.0
C656 C 0.9615 0.12061 0.97322 0.0
C657 C 0.99588 0.11003 0.98165 0.0
C658 C 0.04058 0.14812 0.98802 0.0
C659 C 0.05155 0.19543 0.98622 0.0
C660 C 0.10234 0.22977 0.99401 0.0
C661 C 0.1331 0.26252 0.97469 0.0
C662 C 0.10247 0.25939 0.01434 0.0
C663 C 0.11817 0.19439 0.00057 0.0
C664 C 0.08204 0.14746 0.99705 0.0
C665 C 0.08811 0.10856 0.00222 0.0
C666 C 0.13228 0.11793 0.01127 0.0
C667 C 0.1698 0.1658 0.01494 0.0
C668 C 0.16248 0.20437 0.00941 0.0
H669 H 0.87897 0.04402 0.30688 0.0
H670 H 0.74565 0.03494 0.32841 0.0
H671 H 0.79067 0.10061 0.35546 0.0
H672 H 0.9357 0.06975 0.36183 0.0
H673 H 0.99465 0.11109 0.351 0.0
H674 H 0.95184 0.06218 0.33375 0.0
H675 H 0.9608 0.1226 0.30268 0.0
H676 H 0.00378 0.17161 0.31978 0.0
H677 H 0.95105 0.17165 0.30958 0.0
H678 H 0.85025 0.16934 0.37912 0.0
H679 H 0.92075 0.23731 0.39726 0.0
H680 H 0.01489 0.20064 0.36083 0.0
C681 C 0.85919 0.05569 0.31733 0.0
C682 C 0.80876 0.03427 0.3155 0.0
C683 C 0.78429 0.05073 0.32948 0.0
C684 C 0.80951 0.08796 0.34496 0.0
C685 C 0.85915 0.10825 0.34635 0.0
C686 C 0.88378 0.09275 0.33293 0.0
C687 C 0.93733 0.12153 0.33736 0.0
C688 C 0.95596 0.0892 0.34654 0.0
C689 C 0.96484 0.14845 0.31609 0.0
C690 C 0.93897 0.15598 0.35516 0.0
C691 C 0.89349 0.1476 0.36017 0.0
C692 C 0.88605 0.17605 0.37547 0.0
C693 C 0.92629 0.21455 0.38569 0.0
C694 C 0.97328 0.22415 0.38057 0.0
C695 C 0.97943 0.19393 0.36532 0.0
H696 H 0.75652 0.81555 0.66574 0.0
H697 H 0.86713 0.89106 0.61545 0.0
H698 H 0.87369 0.9678 0.62723 0.0
H699 H 0.69788 0.8835 0.6593 0.0
H700 H 0.68503 0.88321 0.68878 0.0
H701 H 0.69029 0.83456 0.6769 0.0
H702 H 0.75604 0.84925 0.70614 0.0
H703 H 0.75098 0.89799 0.71812 0.0
H704 H 0.80852 0.90823 0.70854 0.0
H705 H 0.86593 0.03575 0.64352 0.0
H706 H 0.84514 0.09019 0.66343 0.0
H707 H 0.74038 0.97018 0.7034 0.0
C708 C 0.7823 0.84821 0.65724 0.0
C709 C 0.81131 0.84729 0.63965 0.0
C710 C 0.84457 0.89087 0.62898 0.0
C711 C 0.84858 0.93465 0.63556 0.0
C712 C 0.81926 0.9342 0.65289 0.0
C713 C 0.78689 0.89216 0.66364 0.0
C714 C 0.75903 0.90135 0.68153 0.0
C715 C 0.70486 0.87404 0.6763 0.0
C716 C 0.76928 0.88845 0.70497 0.0
C717 C 0.78036 0.95509 0.67899 0.0
C718 C 0.81511 0.97338 0.66242 0.0
C719 C 0.83898 0.02189 0.65662 0.0
C720 C 0.82685 0.0525 0.66801 0.0
C721 C 0.79119 0.03446 0.68501 0.0
C722 C 0.768 0.98514 0.69061 0.0
H723 H 0.784 0.75207 0.00853 0.0
H724 H 0.81512 0.89303 0.98548 0.0
H725 H 0.88849 0.90451 0.96688 0.0
H726 H 0.9047 0.78453 0.02079 0.0
H727 H 0.89864 0.72849 0.01132 0.0
H728 H 0.84705 0.73004 0.02194 0.0
H729 H 0.8011 0.69186 0.98494 0.0
H730 H 0.85259 0.69017 0.9742 0.0
H731 H 0.82737 0.72017 0.95849 0.0
H732 H 0.96004 0.90261 0.95222 0.0
H733 H 0.02548 0.88721 0.94228 0.0
H734 H 0.94819 0.74732 0.9745 0.0
C735 C 0.80602 0.78517 -0.00059 0.0
C736 C 0.79372 0.82161 -0.00155 0.0
C737 C 0.82369 0.86454 0.98645 0.0
C738 C 0.86546 0.87142 0.97579 0.0
C739 C 0.87672 0.83499 0.97719 0.0
C740 C 0.84791 0.79266 0.98863 0.0
C741 C 0.86911 0.7599 0.98809 0.0
C742 C 0.88056 0.75019 0.01195 0.0
C743 C 0.83554 0.71274 0.97569 0.0
C744 C 0.91458 0.79074 0.97478 0.0
C745 C 0.91812 0.83382 0.9686 0.0
C746 C 0.95755 0.86887 0.9568 0.0
C747 C 0.99457 0.85978 0.95126 0.0
C748 C 0.9919 0.816 0.95752 0.0
C749 C 0.95111 0.78096 0.9693 0.0
H750 H 0.9509 0.81835 0.35079 0.0
H751 H 0.01864 0.74042 0.37665 0.0
H752 H 0.09594 0.80157 0.36062 0.0
H753 H 0.01351 0.8527 0.2991 0.0
H754 H 0.01988 0.91167 0.29829 0.0
H755 H 0.96988 0.86345 0.31287 0.0
H756 H 0.99355 0.91435 0.34927 0.0
H757 H 0.0434 0.96304 0.3348 0.0
H758 H 0.05364 0.93919 0.36026 0.0
H759 H 0.16428 0.86743 0.34019 0.0
H760 H 0.22173 0.93751 0.31805 0.0
H761 H 0.11122 0.97471 0.30572 0.0
C762 C 0.98214 0.81452 0.35336 0.0
C763 C 0.97868 0.77458 0.36501 0.0
C764 C 0.02033 0.77065 0.3678 0.0
C765 C 0.06445 0.8052 0.35875 0.0
C766 C 0.06646 0.8436 0.34705 0.0
C767 C 0.02665 0.84882 0.34446 0.0
C768 C 0.03868 0.89312 0.33066 0.0
C769 C 0.00871 0.87939 0.30894 0.0
C770 C 0.03193 0.92958 0.34458 0.0
C771 C 0.09134 0.91157 0.32574 0.0
C772 C 0.10645 0.88231 0.33535 0.0
C773 C 0.15307 0.89089 0.33271 0.0
C774 C 0.18537 0.93072 0.32001 0.0
C775 C 0.17103 0.96169 0.31018 0.0
C776 C 0.12332 0.95188 0.31313 0.0
H777 H 0.29984 0.05111 0.69164 0.0
H778 H 0.15294 0.93168 0.693 0.0
H779 H 0.12367 0.98663 0.68219 0.0
H780 H 0.27525 0.14165 0.71353 0.0
H781 H 0.31854 0.18834 0.6955 0.0
H782 H 0.32765 0.13987 0.70422 0.0
H783 H 0.33404 0.12032 0.66255 0.0
H784 H 0.3248 0.16862 0.6537 0.0
H785 H 0.28586 0.10847 0.64341 0.0
H786 H 0.11052 0.05452 0.67073 0.0
H787 H 0.11469 0.13016 0.65885 0.0
H788 H 0.27032 0.20437 0.6642 0.0
C789 C 0.26148 0.03655 0.68988 0.0
C790 C 0.22867 0.98715 0.69328 0.0
C791 C 0.17877 0.96944 0.69053 0.0
C792 C 0.16177 0.00036 0.68441 0.0
C793 C 0.19513 0.0488 0.68103 0.0
C794 C 0.24393 0.06679 0.68363 0.0
C795 C 0.27233 0.11999 0.67835 0.0
C796 C 0.30007 0.14917 0.69914 0.0
C797 C 0.30625 0.12991 0.65831 0.0
C798 C 0.2319 0.12907 0.67231 0.0
C799 C 0.18762 0.08765 0.67406 0.0
C800 C 0.14499 0.08722 0.66931 0.0
C801 C 0.14773 0.13034 0.66258 0.0
C802 C 0.1928 0.17315 0.66056 0.0
C803 C 0.2353 0.17226 0.66551 0.0
loop_
_geom_bond_atom_site_label_1
_geom_bond_atom_site_label_2
_geom_bond_distance
_geom_bond_site_symmetry_2
_ccdc_geom_bond_type
C0 O1 1.160 . S
C0 O7 1.185 . S
O1 C0 1.160 . S
O2 Zn3 1.899 . S
O2 C10 1.284 . S
Zn3 O2 1.899 . S
Zn3 O4 2.032 . S
Zn3 O7 2.086 . S
Zn3 O12 1.977 . S
O4 Zn3 2.032 . S
O4 C8 1.278 . S
C5 O6 1.203 . S
C5 O12 1.267 . S
O6 C5 1.203 . S
O7 C0 1.185 . S
O7 Zn3 2.086 . S
C8 O4 1.278 . S
C8 O9 1.211 . S
O9 C8 1.211 . S
C10 O2 1.284 . S
C10 O11 1.273 . S
O11 C10 1.273 . S
O12 Zn3 1.977 . S
O12 C5 1.267 . S
C13 O14 1.160 . S
C13 O20 1.185 . S
O14 C13 1.160 . S
O15 Zn16 1.899 . S
O15 C23 1.284 . S
Zn16 O15 1.899 . S
Zn16 O17 2.032 . S
Zn16 O20 2.086 . S
Zn16 O25 1.977 . S
O17 Zn16 2.032 . S
O17 C21 1.278 . S
C18 O19 1.203 . S
C18 O25 1.267 . S
O19 C18 1.203 . S
O20 C13 1.185 . S
O20 Zn16 2.086 . S
C21 O17 1.278 . S
C21 O22 1.211 . S
O22 C21 1.211 . S
C23 O15 1.284 . S
C23 O24 1.273 . S
O24 C23 1.273 . S
O25 Zn16 1.977 . S
O25 C18 1.267 . S
C26 O27 1.160 . S
C26 O33 1.185 . S
O27 C26 1.160 . S
O28 Zn29 1.899 . S
O28 C36 1.284 . S
Zn29 O28 1.899 . S
Zn29 O30 2.032 . S
Zn29 O33 2.086 . S
Zn29 O38 1.977 . S
O30 Zn29 2.032 . S
O30 C34 1.278 . S
C31 O32 1.203 . S
C31 O38 1.267 . S
O32 C31 1.203 . S
O33 C26 1.185 . S
O33 Zn29 2.086 . S
C34 O30 1.278 . S
C34 O35 1.211 . S
O35 C34 1.211 . S
C36 O28 1.284 . S
C36 O37 1.273 . S
O37 C36 1.273 . S
O38 Zn29 1.977 . S
O38 C31 1.267 . S
C39 O40 1.160 . S
C39 O46 1.185 . S
O40 C39 1.160 . S
O41 Zn42 1.899 . S
O41 C49 1.284 . S
Zn42 O41 1.899 . S
Zn42 O43 2.032 . S
Zn42 O46 2.086 . S
Zn42 O51 1.977 . S
O43 Zn42 2.032 . S
O43 C47 1.278 . S
C44 O45 1.203 . S
C44 O51 1.267 . S
O45 C44 1.203 . S
O46 C39 1.185 . S
O46 Zn42 2.086 . S
C47 O43 1.278 . S
C47 O48 1.211 . S
O48 C47 1.211 . S
C49 O41 1.284 . S
C49 O50 1.273 . S
O50 C49 1.273 . S
O51 Zn42 1.977 . S
O51 C44 1.267 . S
C52 O53 1.160 . S
C52 O59 1.185 . S
O53 C52 1.160 . S
O54 Zn55 1.899 . S
O54 C62 1.284 . S
Zn55 O54 1.899 . S
Zn55 O56 2.032 . S
Zn55 O59 2.086 . S
Zn55 O64 1.977 . S
O56 Zn55 2.032 . S
O56 C60 1.278 . S
C57 O58 1.203 . S
C57 O64 1.267 . S
O58 C57 1.203 . S
O59 C52 1.185 . S
O59 Zn55 2.086 . S
C60 O56 1.278 . S
C60 O61 1.211 . S
O61 C60 1.211 . S
C62 O54 1.284 . S
C62 O63 1.273 . S
O63 C62 1.273 . S
O64 Zn55 1.977 . S
O64 C57 1.267 . S
C65 O66 1.160 . S
C65 O72 1.185 . S
O66 C65 1.160 . S
O67 Zn68 1.899 . S
O67 C75 1.284 . S
Zn68 O67 1.899 . S
Zn68 O69 2.032 . S
Zn68 O72 2.086 . S
Zn68 O77 1.977 . S
O69 Zn68 2.032 . S
O69 C73 1.278 . S
C70 O71 1.203 . S
C70 O77 1.267 . S
O71 C70 1.203 . S
O72 C65 1.185 . S
O72 Zn68 2.086 . S
C73 O69 1.278 . S
C73 O74 1.211 . S
O74 C73 1.211 . S
C75 O67 1.284 . S
C75 O76 1.273 . S
O76 C75 1.273 . S
O77 Zn68 1.977 . S
O77 C70 1.267 . S
C78 O79 1.160 . S
C78 O85 1.185 . S
O79 C78 1.160 . S
O80 Zn81 1.899 . S
O80 C88 1.284 . S
Zn81 O80 1.899 . S
Zn81 O82 2.032 . S
Zn81 O85 2.086 . S
Zn81 O90 1.977 . S
O82 Zn81 2.032 . S
O82 C86 1.278 . S
C83 O84 1.203 . S
C83 O90 1.267 . S
O84 C83 1.203 . S
O85 C78 1.185 . S
O85 Zn81 2.086 . S
C86 O82 1.278 . S
C86 O87 1.211 . S
O87 C86 1.211 . S
C88 O80 1.284 . S
C88 O89 1.273 . S
O89 C88 1.273 . S
O90 Zn81 1.977 . S
O90 C83 1.267 . S
C91 O92 1.160 . S
C91 O98 1.185 . S
O92 C91 1.160 . S
O93 Zn94 1.899 . S
O93 C101 1.284 . S
Zn94 O93 1.899 . S
Zn94 O95 2.032 . S
Zn94 O98 2.086 . S
Zn94 O103 1.977 . S
O95 Zn94 2.032 . S
O95 C99 1.278 . S
C96 O97 1.203 . S
C96 O103 1.267 . S
O97 C96 1.203 . S
O98 C91 1.185 . S
O98 Zn94 2.086 . S
C99 O95 1.278 . S
C99 O100 1.211 . S
O100 C99 1.211 . S
C101 O93 1.284 . S
C101 O102 1.273 . S
O102 C101 1.273 . S
O103 Zn94 1.977 . S
O103 C96 1.267 . S
C104 O105 1.160 . S
C104 O111 1.185 . S
O105 C104 1.160 . S
O106 Zn107 1.899 . S
O106 C114 1.284 . S
Zn107 O106 1.899 . S
Zn107 O108 2.032 . S
Zn107 O111 2.086 . S
Zn107 O116 1.977 . S
O108 Zn107 2.032 . S
O108 C112 1.278 . S
C109 O110 1.203 . S
C109 O116 1.267 . S
O110 C109 1.203 . S
O111 C104 1.185 . S
O111 Zn107 2.086 . S
C112 O108 1.278 . S
C112 O113 1.211 . S
O113 C112 1.211 . S
C114 O106 1.284 . S
C114 O115 1.273 . S
O115 C114 1.273 . S
O116 Zn107 1.977 . S
O116 C109 1.267 . S
C117 O118 1.160 . S
C117 O124 1.185 . S
O118 C117 1.160 . S
O119 Zn120 1.899 . S
O119 C127 1.284 . S
Zn120 O119 1.899 . S
Zn120 O121 2.032 . S
Zn120 O124 2.086 . S
Zn120 O129 1.977 . S
O121 Zn120 2.032 . S
O121 C125 1.278 . S
C122 O123 1.203 . S
C122 O129 1.267 . S
O123 C122 1.203 . S
O124 C117 1.185 . S
O124 Zn120 2.086 . S
C125 O121 1.278 . S
C125 O126 1.211 . S
O126 C125 1.211 . S
C127 O119 1.284 . S
C127 O128 1.273 . S
O128 C127 1.273 . S
O129 Zn120 1.977 . S
O129 C122 1.267 . S
C130 O131 1.160 . S
C130 O137 1.185 . S
O131 C130 1.160 . S
O132 Zn133 1.899 . S
O132 C140 1.284 . S
Zn133 O132 1.899 . S
Zn133 O134 2.032 . S
Zn133 O137 2.086 . S
Zn133 O142 1.977 . S
O134 Zn133 2.032 . S
O134 C138 1.278 . S
C135 O136 1.203 . S
C135 O142 1.267 . S
O136 C135 1.203 . S
O137 C130 1.185 . S
O137 Zn133 2.086 . S
C138 O134 1.278 . S
C138 O139 1.211 . S
O139 C138 1.211 . S
C140 O132 1.284 . S
C140 O141 1.273 . S
O141 C140 1.273 . S
O142 Zn133 1.977 . S
O142 C135 1.267 . S
C143 O144 1.160 . S
C143 O150 1.185 . S
O144 C143 1.160 . S
O145 Zn146 1.899 . S
O145 C153 1.284 . S
Zn146 O145 1.899 . S
Zn146 O147 2.032 . S
Zn146 O150 2.086 . S
Zn146 O155 1.977 . S
O147 Zn146 2.032 . S
O147 C151 1.278 . S
C148 O149 1.203 . S
C148 O155 1.267 . S
O149 C148 1.203 . S
O150 C143 1.185 . S
O150 Zn146 2.086 . S
C151 O147 1.278 . S
C151 O152 1.211 . S
O152 C151 1.211 . S
C153 O145 1.284 . S
C153 O154 1.273 . S
O154 C153 1.273 . S
O155 Zn146 1.977 . S
O155 C148 1.267 . S
H156 C168 0.930 . S
H157 C170 0.930 . S
H158 C171 0.930 . S
H159 C175 0.959 . S
H160 C175 0.959 1_556 S
H161 C175 0.961 1_556 S
H162 C176 0.960 . S
H163 C176 0.961 . S
H164 C176 0.959 . S
H165 C179 0.929 . S
H166 C180 0.931 . S
H167 C182 0.930 . S
C168 H156 0.930 . S
C168 C169 1.399 . S
C168 C173 1.399 . S
C169 C168 1.399 . S
C169 C170 1.376 . S
C170 H157 0.930 . S
C170 C169 1.376 . S
C170 C171 1.388 . S
C171 H158 0.930 . S
C171 C170 1.388 . S
C171 C172 1.390 . S
C172 C171 1.390 . S
C172 C173 1.394 . S
C172 C178 1.465 . S
C173 C168 1.399 . S
C173 C172 1.394 . S
C173 C174 1.516 . S
C174 C173 1.516 . S
C174 C175 1.502 . S
C174 C176 1.561 1_554 S
C174 C177 1.526 . S
C175 H159 0.959 . S
C175 H160 0.959 1_554 S
C175 H161 0.961 1_554 S
C175 C174 1.502 . S
C176 H162 0.960 . S
C176 H163 0.961 . S
C176 H164 0.959 . S
C176 C174 1.561 1_556 S
C177 C174 1.526 . S
C177 C178 1.396 . S
C177 C182 1.390 . S
C178 C172 1.465 . S
C178 C177 1.396 . S
C178 C179 1.399 . S
C179 H165 0.929 . S
C179 C178 1.399 . S
C179 C180 1.385 . S
C180 H166 0.931 . S
C180 C179 1.385 . S
C180 C181 1.389 . S
C181 C180 1.389 . S
C181 C182 1.387 . S
C182 H167 0.930 . S
C182 C177 1.390 . S
C182 C181 1.387 . S
H183 C195 0.930 . S
H184 C197 0.930 . S
H185 C198 0.930 1_655 S
H186 C202 0.959 1_655 S
H187 C202 0.959 . S
H188 C202 0.961 . S
H189 C203 0.960 . S
H190 C203 0.961 . S
H191 C203 0.959 . S
H192 C206 0.929 . S
H193 C207 0.931 . S
H194 C209 0.930 . S
C195 H183 0.930 . S
C195 C196 1.399 . S
C195 C200 1.399 . S
C196 C195 1.399 . S
C196 C197 1.376 . S
C197 H184 0.930 . S
C197 C196 1.376 . S
C197 C198 1.388 . S
C198 H185 0.930 1_455 S
C198 C197 1.388 . S
C198 C199 1.390 . S
C199 C198 1.390 . S
C199 C200 1.394 . S
C199 C205 1.465 1_455 S
C200 C195 1.399 . S
C200 C199 1.394 . S
C200 C201 1.516 . S
C201 C200 1.516 . S
C201 C202 1.502 . S
C201 C203 1.561 . S
C201 C204 1.526 1_455 S
C202 H186 0.959 1_455 S
C202 H187 0.959 . S
C202 H188 0.961 . S
C202 C201 1.502 . S
C203 H189 0.960 . S
C203 H190 0.961 . S
C203 H191 0.959 . S
C203 C201 1.561 . S
C204 C201 1.526 1_655 S
C204 C205 1.396 . S
C204 C209 1.390 . S
C205 C199 1.465 1_655 S
C205 C204 1.396 . S
C205 C206 1.399 . S
C206 H192 0.929 . S
C206 C205 1.399 . S
C206 C207 1.385 . S
C207 H193 0.931 . S
C207 C206 1.385 . S
C207 C208 1.389 . S
C208 C207 1.389 . S
C208 C209 1.387 . S
C209 H194 0.930 . S
C209 C204 1.390 . S
C209 C208 1.387 . S
H210 C222 0.930 . S
H211 C224 0.930 . S
H212 C225 0.930 . S
H213 C229 0.959 . S
H214 C229 0.959 . S
H215 C229 0.961 . S
H216 C230 0.960 . S
H217 C230 0.961 . S
H218 C230 0.959 . S
H219 C233 0.929 . S
H220 C234 0.931 . S
H221 C236 0.930 . S
C222 H210 0.930 . S
C222 C223 1.399 . S
C222 C227 1.399 . S
C223 C222 1.399 . S
C223 C224 1.376 . S
C224 H211 0.930 . S
C224 C223 1.376 . S
C224 C225 1.388 1_565 S
C225 H212 0.930 . S
C225 C224 1.388 1_545 S
C225 C226 1.390 . S
C226 C225 1.390 . S
C226 C227 1.394 1_545 S
C226 C232 1.465 . S
C227 C222 1.399 . S
C227 C226 1.394 1_565 S
C227 C228 1.516 . S
C228 C227 1.516 . S
C228 C229 1.502 . S
C228 C230 1.561 . S
C228 C231 1.526 1_565 S
C229 H213 0.959 . S
C229 H214 0.959 . S
C229 H215 0.961 . S
C229 C228 1.502 . S
C230 H216 0.960 . S
C230 H217 0.961 . S
C230 H218 0.959 . S
C230 C228 1.561 . S
C231 C228 1.526 1_545 S
C231 C232 1.396 . S
C231 C236 1.390 . S
C232 C226 1.465 . S
C232 C231 1.396 . S
C232 C233 1.399 . S
C233 H219 0.929 . S
C233 C232 1.399 . S
C233 C234 1.385 . S
C234 H220 0.931 . S
C234 C233 1.385 . S
C234 C235 1.389 . S
C235 C234 1.389 . S
C235 C236 1.387 . S
C236 H221 0.930 . S
C236 C231 1.390 . S
C236 C235 1.387 . S
H237 C249 0.930 . S
H238 C251 0.930 . S
H239 C252 0.930 . S
H240 C256 0.959 . S
H241 C256 0.959 . S
H242 C256 0.961 . S
H243 C257 0.960 . S
H244 C257 0.961 . S
H245 C257 0.959 . S
H246 C260 0.929 . S
H247 C261 0.931 . S
H248 C263 0.930 . S
C249 H237 0.930 . S
C249 C250 1.399 . S
C249 C254 1.399 . S
C250 C249 1.399 . S
C250 C251 1.376 . S
C251 H238 0.930 . S
C251 C250 1.376 . S
C251 C252 1.388 . S
C252 H239 0.930 . S
C252 C251 1.388 . S
C252 C253 1.390 . S
C253 C252 1.390 . S
C253 C254 1.394 . S
C253 C259 1.465 . S
C254 C249 1.399 . S
C254 C253 1.394 . S
C254 C255 1.516 . S
C255 C254 1.516 . S
C255 C256 1.502 . S
C255 C257 1.561 . S
C255 C258 1.526 . S
C256 H240 0.959 . S
C256 H241 0.959 . S
C256 H242 0.961 . S
C256 C255 1.502 . S
C257 H243 0.960 . S
C257 H244 0.961 . S
C257 H245 0.959 . S
C257 C255 1.561 . S
C258 C255 1.526 . S
C258 C259 1.396 . S
C258 C263 1.390 . S
C259 C253 1.465 . S
C259 C258 1.396 . S
C259 C260 1.399 . S
C260 H246 0.929 . S
C260 C259 1.399 . S
C260 C261 1.385 . S
C261 H247 0.931 . S
C261 C260 1.385 . S
C261 C262 1.389 . S
C262 C261 1.389 . S
C262 C263 1.387 . S
C263 H248 0.930 . S
C263 C258 1.390 . S
C263 C262 1.387 . S
H264 C276 0.930 . S
H265 C278 0.930 . S
H266 C279 0.930 1_455 S
H267 C283 0.959 . S
H268 C283 0.959 1_554 S
H269 C283 0.961 1_554 S
H270 C284 0.958 1_655 S
H271 C284 0.961 . S
H272 C284 0.959 . S
H273 C287 0.929 . S
H274 C288 0.931 . S
H275 C290 0.930 . S
C276 H264 0.930 . S
C276 C277 1.399 . S
C276 C281 1.399 . S
C277 C276 1.399 . S
C277 C278 1.376 . S
C278 H265 0.930 . S
C278 C277 1.376 . S
C278 C279 1.388 . S
C279 H266 0.930 1_655 S
C279 C278 1.388 . S
C279 C280 1.390 . S
C280 C279 1.390 . S
C280 C281 1.394 . S
C280 C286 1.465 1_655 S
C281 C276 1.399 . S
C281 C280 1.394 . S
C281 C282 1.516 . S
C282 C281 1.516 . S
C282 C283 1.502 . S
C282 C284 1.561 1_656 S
C282 C285 1.526 1_655 S
C283 H267 0.959 . S
C283 H268 0.959 1_556 S
C283 H269 0.961 1_556 S
C283 C282 1.502 . S
C284 H270 0.958 1_455 S
C284 H271 0.961 . S
C284 H272 0.959 . S
C284 C282 1.561 1_454 S
C285 C282 1.526 1_455 S
C285 C286 1.396 . S
C285 C290 1.390 . S
C286 C280 1.465 1_455 S
C286 C285 1.396 . S
C286 C287 1.399 . S
C287 H273 0.929 . S
C287 C286 1.399 . S
C287 C288 1.385 . S
C288 H274 0.931 . S
C288 C287 1.385 . S
C288 C289 1.389 . S
C289 C288 1.389 . S
C289 C290 1.387 . S
C290 H275 0.930 . S
C290 C285 1.390 . S
C290 C289 1.387 . S
H291 C303 0.930 . S
H292 C305 0.930 . S
H293 C306 0.930 . S
H294 C310 0.959 . S
H295 C310 0.959 . S
H296 C310 0.961 . S
H297 C311 0.960 . S
H298 C311 0.961 1_565 S
H299 C311 0.959 . S
H300 C314 0.929 1_545 S
H301 C315 0.931 . S
H302 C317 0.930 . S
C303 H291 0.930 . S
C303 C304 1.399 . S
C303 C308 1.399 . S
C304 C303 1.399 . S
C304 C305 1.376 . S
C305 H292 0.930 . S
C305 C304 1.376 . S
C305 C306 1.388 . S
C306 H293 0.930 . S
C306 C305 1.388 . S
C306 C307 1.390 . S
C307 C306 1.390 . S
C307 C308 1.394 . S
C307 C313 1.465 1_545 S
C308 C303 1.399 . S
C308 C307 1.394 . S
C308 C309 1.516 1_545 S
C309 C308 1.516 1_565 S
C309 C310 1.502 . S
C309 C311 1.561 1_565 S
C309 C312 1.526 . S
C310 H294 0.959 . S
C310 H295 0.959 . S
C310 H296 0.961 . S
C310 C309 1.502 . S
C311 H297 0.960 . S
C311 H298 0.961 1_545 S
C311 H299 0.959 . S
C311 C309 1.561 1_545 S
C312 C309 1.526 . S
C312 C313 1.396 . S
C312 C317 1.390 . S
C313 C307 1.465 1_565 S
C313 C312 1.396 . S
C313 C314 1.399 . S
C314 H300 0.929 1_565 S
C314 C313 1.399 . S
C314 C315 1.385 . S
C315 H301 0.931 . S
C315 C314 1.385 . S
C315 C316 1.389 . S
C316 C315 1.389 . S
C316 C317 1.387 . S
C317 H302 0.930 . S
C317 C312 1.390 . S
C317 C316 1.387 . S
H318 C330 0.930 . S
H319 C332 0.930 . S
H320 C333 0.930 . S
H321 C337 0.959 . S
H322 C337 0.959 . S
H323 C337 0.961 . S
H324 C338 0.960 . S
H325 C338 0.961 . S
H326 C338 0.959 . S
H327 C341 0.929 . S
H328 C342 0.931 . S
H329 C344 0.930 . S
C330 H318 0.930 . S
C330 C331 1.399 . S
C330 C335 1.399 . S
C331 C330 1.399 . S
C331 C332 1.376 . S
C332 H319 0.930 . S
C332 C331 1.376 . S
C332 C333 1.388 . S
C333 H320 0.930 . S
C333 C332 1.388 . S
C333 C334 1.390 . S
C334 C333 1.390 . S
C334 C335 1.394 . S
C334 C340 1.465 . S
C335 C330 1.399 . S
C335 C334 1.394 . S
C335 C336 1.516 . S
C336 C335 1.516 . S
C336 C337 1.502 . S
C336 C338 1.561 . S
C336 C339 1.526 . S
C337 H321 0.959 . S
C337 H322 0.959 . S
C337 H323 0.961 . S
C337 C336 1.502 . S
C338 H324 0.960 . S
C338 H325 0.961 . S
C338 H326 0.959 . S
C338 C336 1.561 . S
C339 C336 1.526 . S
C339 C340 1.396 . S
C339 C344 1.390 . S
C340 C334 1.465 . S
C340 C339 1.396 . S
C340 C341 1.399 . S
C341 H327 0.929 . S
C341 C340 1.399 . S
C341 C342 1.385 . S
C342 H328 0.931 . S
C342 C341 1.385 . S
C342 C343 1.389 . S
C343 C342 1.389 . S
C343 C344 1.387 . S
C344 H329 0.930 . S
C344 C339 1.390 . S
C344 C343 1.387 . S
H345 C357 0.930 . S
H346 C359 0.930 . S
H347 C360 0.930 . S
H348 C364 0.959 . S
H349 C364 0.959 . S
H350 C364 0.961 . S
H351 C365 0.960 . S
H352 C365 0.961 . S
H353 C365 0.959 . S
H354 C368 0.929 . S
H355 C369 0.931 . S
H356 C371 0.930 . S
C357 H345 0.930 . S
C357 C358 1.399 . S
C357 C362 1.399 . S
C358 C357 1.399 . S
C358 C359 1.376 . S
C359 H346 0.930 . S
C359 C358 1.376 . S
C359 C360 1.388 . S
C360 H347 0.930 . S
C360 C359 1.388 . S
C360 C361 1.390 . S
C361 C360 1.390 . S
C361 C362 1.394 . S
C361 C367 1.465 . S
C362 C357 1.399 . S
C362 C361 1.394 . S
C362 C363 1.516 . S
C363 C362 1.516 . S
C363 C364 1.502 . S
C363 C365 1.561 . S
C363 C366 1.526 . S
C364 H348 0.959 . S
C364 H349 0.959 . S
C364 H350 0.961 . S
C364 C363 1.502 . S
C365 H351 0.960 . S
C365 H352 0.961 . S
C365 H353 0.959 . S
C365 C363 1.561 . S
C366 C363 1.526 . S
C366 C367 1.396 . S
C366 C371 1.390 . S
C367 C361 1.465 . S
C367 C366 1.396 . S
C367 C368 1.399 . S
C368 H354 0.929 . S
C368 C367 1.399 . S
C368 C369 1.385 . S
C369 H355 0.931 . S
C369 C368 1.385 . S
C369 C370 1.389 . S
C370 C369 1.389 . S
C370 C371 1.387 . S
C371 H356 0.930 . S
C371 C366 1.390 . S
C371 C370 1.387 . S
H372 C384 0.930 . S
H373 C386 0.930 . S
H374 C387 0.930 . S
H375 C391 0.959 . S
H376 C391 0.959 . S
H377 C391 0.961 . S
H378 C392 0.960 . S
H379 C392 0.961 . S
H380 C392 0.959 . S
H381 C395 0.929 . S
H382 C396 0.931 . S
H383 C398 0.930 . S
C384 H372 0.930 . S
C384 C385 1.399 . S
C384 C389 1.399 . S
C385 C384 1.399 . S
C385 C386 1.376 . S
C386 H373 0.930 . S
C386 C385 1.376 . S
C386 C387 1.388 . S
C387 H374 0.930 . S
C387 C386 1.388 . S
C387 C388 1.390 . S
C388 C387 1.390 . S
C388 C389 1.394 . S
C388 C394 1.465 . S
C389 C384 1.399 . S
C389 C388 1.394 . S
C389 C390 1.516 . S
C390 C389 1.516 . S
C390 C391 1.502 . S
C390 C392 1.561 . S
C390 C393 1.526 . S
C391 H375 0.959 . S
C391 H376 0.959 . S
C391 H377 0.961 . S
C391 C390 1.502 . S
C392 H378 0.960 . S
C392 H379 0.961 . S
C392 H380 0.959 . S
C392 C390 1.561 . S
C393 C390 1.526 . S
C393 C394 1.396 . S
C393 C398 1.390 . S
C394 C388 1.465 . S
C394 C393 1.396 . S
C394 C395 1.399 . S
C395 H381 0.929 . S
C395 C394 1.399 . S
C395 C396 1.385 . S
C396 H382 0.931 . S
C396 C395 1.385 . S
C396 C397 1.389 . S
C397 C396 1.389 . S
C397 C398 1.387 . S
C398 H383 0.930 . S
C398 C393 1.390 . S
C398 C397 1.387 . S
H399 C411 0.930 . S
H400 C413 0.930 . S
H401 C414 0.930 . S
H402 C418 0.959 . S
H403 C418 0.959 . S
H404 C418 0.961 . S
H405 C419 0.960 . S
H406 C419 0.961 . S
H407 C419 0.959 . S
H408 C422 0.929 . S
H409 C423 0.931 . S
H410 C425 0.930 . S
C411 H399 0.930 . S
C411 C412 1.399 . S
C411 C416 1.399 . S
C412 C411 1.399 . S
C412 C413 1.376 . S
C413 H400 0.930 . S
C413 C412 1.376 . S
C413 C414 1.388 . S
C414 H401 0.930 . S
C414 C413 1.388 . S
C414 C415 1.390 . S
C415 C414 1.390 . S
C415 C416 1.394 . S
C415 C421 1.465 . S
C416 C411 1.399 . S
C416 C415 1.394 . S
C416 C417 1.516 . S
C417 C416 1.516 . S
C417 C418 1.502 . S
C417 C419 1.561 . S
C417 C420 1.526 . S
C418 H402 0.959 . S
C418 H403 0.959 . S
C418 H404 0.961 . S
C418 C417 1.502 . S
C419 H405 0.960 . S
C419 H406 0.961 . S
C419 H407 0.959 . S
C419 C417 1.561 . S
C420 C417 1.526 . S
C420 C421 1.396 . S
C420 C425 1.390 . S
C421 C415 1.465 . S
C421 C420 1.396 . S
C421 C422 1.399 . S
C422 H408 0.929 . S
C422 C421 1.399 . S
C422 C423 1.385 . S
C423 H409 0.931 . S
C423 C422 1.385 . S
C423 C424 1.389 . S
C424 C423 1.389 . S
C424 C425 1.387 . S
C425 H410 0.930 . S
C425 C420 1.390 . S
C425 C424 1.387 . S
H426 C438 0.930 . S
H427 C440 0.930 . S
H428 C441 0.930 . S
H429 C445 0.959 . S
H430 C445 0.959 . S
H431 C445 0.961 . S
H432 C446 0.960 . S
H433 C446 0.961 . S
H434 C446 0.959 . S
H435 C449 0.929 . S
H436 C450 0.931 . S
H437 C452 0.930 . S
C438 H426 0.930 . S
C438 C439 1.399 . S
C438 C443 1.399 . S
C439 C438 1.399 . S
C439 C440 1.376 . S
C440 H427 0.930 . S
C440 C439 1.376 . S
C440 C441 1.388 . S
C441 H428 0.930 . S
C441 C440 1.388 . S
C441 C442 1.390 . S
C442 C441 1.390 . S
C442 C443 1.394 . S
C442 C448 1.465 . S
C443 C438 1.399 . S
C443 C442 1.394 . S
C443 C444 1.516 . S
C444 C443 1.516 . S
C444 C445 1.502 . S
C444 C446 1.561 . S
C444 C447 1.526 . S
C445 H429 0.959 . S
C445 H430 0.959 . S
C445 H431 0.961 . S
C445 C444 1.502 . S
C446 H432 0.960 . S
C446 H433 0.961 . S
C446 H434 0.959 . S
C446 C444 1.561 . S
C447 C444 1.526 . S
C447 C448 1.396 . S
C447 C452 1.390 . S
C448 C442 1.465 . S
C448 C447 1.396 . S
C448 C449 1.399 . S
C449 H435 0.929 . S
C449 C448 1.399 . S
C449 C450 1.385 . S
C450 H436 0.931 . S
C450 C449 1.385 . S
C450 C451 1.389 . S
C451 C450 1.389 . S
C451 C452 1.387 . S
C452 H437 0.930 . S
C452 C447 1.390 . S
C452 C451 1.387 . S
H453 C465 0.930 . S
H454 C467 0.930 . S
H455 C468 0.930 . S
H456 C472 0.959 . S
H457 C472 0.959 . S
H458 C472 0.961 . S
H459 C473 0.960 . S
H460 C473 0.961 . S
H461 C473 0.959 . S
H462 C476 0.929 . S
H463 C477 0.931 . S
H464 C479 0.930 . S
C465 H453 0.930 . S
C465 C466 1.399 . S
C465 C470 1.399 . S
C466 C465 1.399 . S
C466 C467 1.376 . S
C467 H454 0.930 . S
C467 C466 1.376 . S
C467 C468 1.388 . S
C468 H455 0.930 . S
C468 C467 1.388 . S
C468 C469 1.390 . S
C469 C468 1.390 . S
C469 C470 1.394 . S
C469 C475 1.465 . S
C470 C465 1.399 . S
C470 C469 1.394 . S
C470 C471 1.516 . S
C471 C470 1.516 . S
C471 C472 1.502 . S
C471 C473 1.561 . S
C471 C474 1.526 . S
C472 H456 0.959 . S
C472 H457 0.959 . S
C472 H458 0.961 . S
C472 C471 1.502 . S
C473 H459 0.960 . S
C473 H460 0.961 . S
C473 H461 0.959 . S
C473 C471 1.561 . S
C474 C471 1.526 . S
C474 C475 1.396 . S
C474 C479 1.390 . S
C475 C469 1.465 . S
C475 C474 1.396 . S
C475 C476 1.399 . S
C476 H462 0.929 . S
C476 C475 1.399 . S
C476 C477 1.385 . S
C477 H463 0.931 . S
C477 C476 1.385 . S
C477 C478 1.389 . S
C478 C477 1.389 . S
C478 C479 1.387 . S
C479 H464 0.930 . S
C479 C474 1.390 . S
C479 C478 1.387 . S
H480 C492 0.930 . S
H481 C494 0.930 . S
H482 C495 0.930 . S
H483 C499 0.959 . S
H484 C499 0.959 . S
H485 C499 0.961 1_565 S
H486 C500 0.962 1_565 S
H487 C500 0.961 . S
H488 C500 0.959 . S
H489 C503 0.929 . S
H490 C504 0.931 . S
H491 C506 0.930 . S
C492 H480 0.930 . S
C492 C493 1.399 . S
C492 C497 1.399 . S
C493 C492 1.399 . S
C493 C494 1.376 1_556 S
C494 H481 0.930 . S
C494 C493 1.376 1_554 S
C494 C495 1.388 . S
C495 H482 0.930 . S
C495 C494 1.388 . S
C495 C496 1.390 . S
C496 C495 1.390 . S
C496 C497 1.394 1_554 S
C496 C502 1.465 1_565 S
C497 C492 1.399 . S
C497 C496 1.394 1_556 S
C497 C498 1.516 1_565 S
C498 C497 1.516 1_545 S
C498 C499 1.502 . S
C498 C500 1.561 . S
C498 C501 1.526 . S
C499 H483 0.959 . S
C499 H484 0.959 . S
C499 H485 0.961 1_545 S
C499 C498 1.502 . S
C500 H486 0.962 1_545 S
C500 H487 0.961 . S
C500 H488 0.959 . S
C500 C498 1.561 . S
C501 C498 1.526 . S
C501 C502 1.396 1_556 S
C501 C506 1.390 . S
C502 C496 1.465 1_545 S
C502 C501 1.396 1_554 S
C502 C503 1.399 . S
C503 H489 0.929 . S
C503 C502 1.399 . S
C503 C504 1.385 . S
C504 H490 0.931 . S
C504 C503 1.385 . S
C504 C505 1.389 . S
C505 C504 1.389 . S
C505 C506 1.387 1_554 S
C506 H491 0.930 . S
C506 C501 1.390 . S
C506 C505 1.387 1_556 S
H507 C519 0.930 . S
H508 C521 0.930 . S
H509 C522 0.930 . S
H510 C526 0.959 . S
H511 C526 0.959 . S
H512 C526 0.961 . S
H513 C527 0.960 . S
H514 C527 0.961 . S
H515 C527 0.959 . S
H516 C530 0.929 . S
H517 C531 0.931 . S
H518 C533 0.930 . S
C519 H507 0.930 . S
C519 C520 1.399 . S
C519 C524 1.399 . S
C520 C519 1.399 . S
C520 C521 1.376 . S
C521 H508 0.930 . S
C521 C520 1.376 . S
C521 C522 1.388 . S
C522 H509 0.930 . S
C522 C521 1.388 . S
C522 C523 1.390 . S
C523 C522 1.390 . S
C523 C524 1.394 . S
C523 C529 1.465 . S
C524 C519 1.399 . S
C524 C523 1.394 . S
C524 C525 1.516 . S
C525 C524 1.516 . S
C525 C526 1.502 . S
C525 C527 1.561 . S
C525 C528 1.526 . S
C526 H510 0.959 . S
C526 H511 0.959 . S
C526 H512 0.961 . S
C526 C525 1.502 . S
C527 H513 0.960 . S
C527 H514 0.961 . S
C527 H515 0.959 . S
C527 C525 1.561 . S
C528 C525 1.526 . S
C528 C529 1.396 . S
C528 C533 1.390 . S
C529 C523 1.465 . S
C529 C528 1.396 . S
C529 C530 1.399 . S
C530 H516 0.929 . S
C530 C529 1.399 . S
C530 C531 1.385 . S
C531 H517 0.931 . S
C531 C530 1.385 . S
C531 C532 1.389 . S
C532 C531 1.389 . S
C532 C533 1.387 . S
C533 H518 0.930 . S
C533 C528 1.390 . S
C533 C532 1.387 . S
H534 C546 0.930 . S
H535 C548 0.930 . S
H536 C549 0.930 . S
H537 C553 0.959 . S
H538 C553 0.959 1_455 S
H539 C553 0.961 . S
H540 C554 0.960 . S
H541 C554 0.961 . S
H542 C554 0.959 . S
H543 C557 0.929 . S
H544 C558 0.931 . S
H545 C560 0.930 . S
C546 H534 0.930 . S
C546 C547 1.399 . S
C546 C551 1.399 . S
C547 C546 1.399 . S
C547 C548 1.376 . S
C548 H535 0.930 . S
C548 C547 1.376 . S
C548 C549 1.388 . S
C549 H536 0.930 . S
C549 C548 1.388 . S
C549 C550 1.390 . S
C550 C549 1.390 . S
C550 C551 1.394 . S
C550 C556 1.465 1_655 S
C551 C546 1.399 . S
C551 C550 1.394 . S
C551 C552 1.516 . S
C552 C551 1.516 . S
C552 C553 1.502 . S
C552 C554 1.561 . S
C552 C555 1.526 1_655 S
C553 H537 0.959 . S
C553 H538 0.959 1_655 S
C553 H539 0.961 . S
C553 C552 1.502 . S
C554 H540 0.960 . S
C554 H541 0.961 . S
C554 H542 0.959 . S
C554 C552 1.561 . S
C555 C552 1.526 1_455 S
C555 C556 1.396 . S
C555 C560 1.390 . S
C556 C550 1.465 1_455 S
C556 C555 1.396 . S
C556 C557 1.399 . S
C557 H543 0.929 . S
C557 C556 1.399 . S
C557 C558 1.385 . S
C558 H544 0.931 . S
C558 C557 1.385 . S
C558 C559 1.389 . S
C559 C558 1.389 . S
C559 C560 1.387 . S
C560 H545 0.930 . S
C560 C555 1.390 . S
C560 C559 1.387 . S
H561 C573 0.930 . S
H562 C575 0.930 . S
H563 C576 0.930 . S
H564 C580 0.959 . S
H565 C580 0.959 . S
H566 C580 0.961 1_565 S
H567 C581 0.948 1_565 S
H568 C581 0.961 . S
H569 C581 0.959 . S
H570 C584 0.929 . S
H571 C585 0.931 . S
H572 C587 0.930 . S
C573 H561 0.930 . S
C573 C574 1.399 . S
C573 C578 1.399 . S
C574 C573 1.399 . S
C574 C575 1.376 1_554 S
C575 H562 0.930 . S
C575 C574 1.376 1_556 S
C575 C576 1.388 . S
C576 H563 0.930 . S
C576 C575 1.388 . S
C576 C577 1.390 . S
C577 C576 1.390 . S
C577 C578 1.394 1_556 S
C577 C583 1.465 1_565 S
C578 C573 1.399 . S
C578 C577 1.394 1_554 S
C578 C579 1.516 1_565 S
C579 C578 1.516 1_545 S
C579 C580 1.502 . S
C579 C581 1.561 . S
C579 C582 1.526 . S
C580 H564 0.959 . S
C580 H565 0.959 . S
C580 H566 0.961 1_545 S
C580 C579 1.502 . S
C581 H567 0.948 1_545 S
C581 H568 0.961 . S
C581 H569 0.959 . S
C581 C579 1.561 . S
C582 C579 1.526 . S
C582 C583 1.396 1_554 S
C582 C587 1.390 . S
C583 C577 1.465 1_545 S
C583 C582 1.396 1_556 S
C583 C584 1.399 . S
C584 H570 0.929 . S
C584 C583 1.399 . S
C584 C585 1.385 . S
C585 H571 0.931 . S
C585 C584 1.385 . S
C585 C586 1.389 . S
C586 C585 1.389 . S
C586 C587 1.387 1_556 S
C587 H572 0.930 . S
C587 C582 1.390 . S
C587 C586 1.387 1_554 S
H588 C600 0.930 . S
H589 C602 0.930 . S
H590 C603 0.930 . S
H591 C607 0.959 . S
H592 C607 0.959 . S
H593 C607 0.961 . S
H594 C608 0.960 . S
H595 C608 0.961 . S
H596 C608 0.959 . S
H597 C611 0.929 . S
H598 C612 0.931 . S
H599 C614 0.930 . S
C600 H588 0.930 . S
C600 C601 1.399 . S
C600 C605 1.399 . S
C601 C600 1.399 . S
C601 C602 1.376 . S
C602 H589 0.930 . S
C602 C601 1.376 . S
C602 C603 1.388 . S
C603 H590 0.930 . S
C603 C602 1.388 . S
C603 C604 1.390 . S
C604 C603 1.390 . S
C604 C605 1.394 . S
C604 C610 1.465 . S
C605 C600 1.399 . S
C605 C604 1.394 . S
C605 C606 1.516 . S
C606 C605 1.516 . S
C606 C607 1.502 . S
C606 C608 1.561 . S
C606 C609 1.526 . S
C607 H591 0.959 . S
C607 H592 0.959 . S
C607 H593 0.961 . S
C607 C606 1.502 . S
C608 H594 0.960 . S
C608 H595 0.961 . S
C608 H596 0.959 . S
C608 C606 1.561 . S
C609 C606 1.526 . S
C609 C610 1.396 . S
C609 C614 1.390 . S
C610 C604 1.465 . S
C610 C609 1.396 . S
C610 C611 1.399 . S
C611 H597 0.929 . S
C611 C610 1.399 . S
C611 C612 1.385 . S
C612 H598 0.931 . S
C612 C611 1.385 . S
C612 C613 1.389 . S
C613 C612 1.389 . S
C613 C614 1.387 . S
C614 H599 0.930 . S
C614 C609 1.390 . S
C614 C613 1.387 . S
H615 C627 0.930 . S
H616 C629 0.930 . S
H617 C630 0.930 . S
H618 C634 0.959 1_655 S
H619 C634 0.959 1_655 S
H620 C634 0.961 . S
H621 C635 0.960 . S
H622 C635 0.960 . S
H623 C635 0.959 . S
H624 C638 0.929 . S
H625 C639 0.931 . S
H626 C641 0.930 . S
C627 H615 0.930 . S
C627 C628 1.399 . S
C627 C632 1.399 . S
C628 C627 1.399 . S
C628 C629 1.376 . S
C629 H616 0.930 . S
C629 C628 1.376 . S
C629 C630 1.388 . S
C630 H617 0.930 . S
C630 C629 1.388 . S
C630 C631 1.390 . S
C631 C630 1.390 . S
C631 C632 1.394 . S
C631 C637 1.465 1_455 S
C632 C627 1.399 . S
C632 C631 1.394 . S
C632 C633 1.516 . S
C633 C632 1.516 . S
C633 C634 1.502 . S
C633 C635 1.561 . S
C633 C636 1.526 1_455 S
C634 H618 0.959 1_455 S
C634 H619 0.959 1_455 S
C634 H620 0.961 . S
C634 C633 1.502 . S
C635 H621 0.960 . S
C635 H622 0.960 . S
C635 H623 0.959 . S
C635 C633 1.561 . S
C636 C633 1.526 1_655 S
C636 C637 1.396 . S
C636 C641 1.390 . S
C637 C631 1.465 1_655 S
C637 C636 1.396 . S
C637 C638 1.399 . S
C638 H624 0.929 . S
C638 C637 1.399 . S
C638 C639 1.385 . S
C639 H625 0.931 . S
C639 C638 1.385 . S
C639 C640 1.389 . S
C640 C639 1.389 . S
C640 C641 1.387 . S
C641 H626 0.930 . S
C641 C636 1.390 . S
C641 C640 1.387 . S
H642 C654 0.930 . S
H643 C656 0.930 1_655 S
H644 C657 0.930 . S
H645 C661 0.959 . S
H646 C661 0.959 . S
H647 C661 0.961 . S
H648 C662 0.960 . S
H649 C662 0.961 . S
H650 C662 0.959 . S
H651 C665 0.929 . S
H652 C666 0.931 . S
H653 C668 0.930 . S
C654 H642 0.930 . S
C654 C655 1.399 . S
C654 C659 1.399 . S
C655 C654 1.399 . S
C655 C656 1.376 . S
C656 H643 0.930 1_455 S
C656 C655 1.376 . S
C656 C657 1.388 . S
C657 H644 0.930 . S
C657 C656 1.388 . S
C657 C658 1.390 . S
C658 C657 1.390 . S
C658 C659 1.394 . S
C658 C664 1.465 1_556 S
C659 C654 1.399 . S
C659 C658 1.394 . S
C659 C660 1.526 . S
C660 C659 1.526 . S
C660 C661 1.523 . S
C660 C662 1.540 1_556 S
C660 C663 1.514 1_556 S
C661 H645 0.959 . S
C661 H646 0.959 . S
C661 H647 0.961 . S
C661 C660 1.523 . S
C662 H648 0.960 . S
C662 H649 0.961 . S
C662 H650 0.959 . S
C662 C660 1.540 1_554 S
C663 C660 1.514 1_554 S
C663 C664 1.396 . S
C663 C668 1.390 . S
C664 C658 1.465 1_554 S
C664 C663 1.396 . S
C664 C665 1.399 . S
C665 H651 0.929 . S
C665 C664 1.399 . S
C665 C666 1.385 . S
C666 H652 0.931 . S
C666 C665 1.385 . S
C666 C667 1.389 . S
C667 C666 1.389 . S
C667 C668 1.387 . S
C668 H653 0.930 . S
C668 C663 1.390 . S
C668 C667 1.387 . S
H669 C681 0.930 . S
H670 C683 0.930 1_565 S
H671 C684 0.930 . S
H672 C688 0.959 . S
H673 C688 0.959 . S
H674 C688 0.961 . S
H675 C689 0.960 . S
H676 C689 0.961 . S
H677 C689 0.959 . S
H678 C692 0.929 . S
H679 C693 0.931 . S
H680 C695 0.930 . S
C681 H669 0.930 . S
C681 C682 1.399 . S
C681 C686 1.399 . S
C682 C681 1.399 . S
C682 C683 1.376 . S
C683 H670 0.930 1_545 S
C683 C682 1.376 . S
C683 C684 1.388 . S
C684 H671 0.930 . S
C684 C683 1.388 . S
C684 C685 1.390 . S
C685 C684 1.390 . S
C685 C686 1.394 . S
C685 C691 1.465 . S
C686 C681 1.399 . S
C686 C685 1.394 . S
C686 C687 1.516 . S
C687 C686 1.516 . S
C687 C688 1.502 . S
C687 C689 1.561 . S
C687 C690 1.526 . S
C688 H672 0.959 . S
C688 H673 0.959 . S
C688 H674 0.961 . S
C688 C687 1.502 . S
C689 H675 0.960 . S
C689 H676 0.961 . S
C689 H677 0.959 . S
C689 C687 1.561 . S
C690 C687 1.526 . S
C690 C691 1.396 . S
C690 C695 1.390 . S
C691 C685 1.465 . S
C691 C690 1.396 . S
C691 C692 1.399 . S
C692 H678 0.929 . S
C692 C691 1.399 . S
C692 C693 1.385 . S
C693 H679 0.931 . S
C693 C692 1.385 . S
C693 C694 1.389 . S
C694 C693 1.389 . S
C694 C695 1.387 . S
C695 H680 0.930 . S
C695 C690 1.390 . S
C695 C694 1.387 . S
H696 C708 0.930 . S
H697 C710 0.930 . S
H698 C711 0.930 . S
H699 C715 0.959 . S
H700 C715 0.959 . S
H701 C715 0.961 . S
H702 C716 0.960 . S
H703 C716 0.961 . S
H704 C716 0.959 . S
H705 C719 0.929 . S
H706 C720 0.931 1_545 S
H707 C722 0.930 . S
C708 H696 0.930 . S
C708 C709 1.399 . S
C708 C713 1.399 . S
C709 C708 1.399 . S
C709 C710 1.376 . S
C710 H697 0.930 . S
C710 C709 1.376 . S
C710 C711 1.388 . S
C711 H698 0.930 . S
C711 C710 1.388 . S
C711 C712 1.390 . S
C712 C711 1.390 . S
C712 C713 1.394 . S
C712 C718 1.465 . S
C713 C708 1.399 . S
C713 C712 1.394 . S
C713 C714 1.516 . S
C714 C713 1.516 . S
C714 C715 1.502 . S
C714 C716 1.561 . S
C714 C717 1.526 . S
C715 H699 0.959 . S
C715 H700 0.959 . S
C715 H701 0.961 . S
C715 C714 1.502 . S
C716 H702 0.960 . S
C716 H703 0.961 . S
C716 H704 0.959 . S
C716 C714 1.561 . S
C717 C714 1.526 . S
C717 C718 1.396 . S
C717 C722 1.390 . S
C718 C712 1.465 . S
C718 C717 1.396 . S
C718 C719 1.399 . S
C719 H705 0.929 . S
C719 C718 1.399 . S
C719 C720 1.385 . S
C720 H706 0.931 1_565 S
C720 C719 1.385 . S
C720 C721 1.389 . S
C721 C720 1.389 . S
C721 C722 1.387 . S
C722 H707 0.930 . S
C722 C717 1.390 . S
C722 C721 1.387 . S
H723 C735 0.930 . S
H724 C737 0.930 . S
H725 C738 0.930 1_556 S
H726 C742 0.959 . S
H727 C742 0.959 . S
H728 C742 0.961 . S
H729 C743 0.960 . S
H730 C743 0.961 . S
H731 C743 0.959 . S
H732 C746 0.929 . S
H733 C747 0.931 1_455 S
H734 C749 0.930 . S
C735 H723 0.930 . S
C735 C736 1.399 . S
C735 C740 1.399 . S
C736 C735 1.399 . S
C736 C737 1.376 . S
C737 H724 0.930 . S
C737 C736 1.376 . S
C737 C738 1.388 . S
C738 H725 0.930 1_554 S
C738 C737 1.388 . S
C738 C739 1.392 . S
C739 C738 1.392 . S
C739 C740 1.402 . S
C739 C745 1.457 1_554 S
C740 C735 1.399 . S
C740 C739 1.402 . S
C740 C741 1.516 . S
C741 C740 1.516 . S
C741 C742 1.502 . S
C741 C743 1.561 1_554 S
C741 C744 1.526 1_554 S
C742 H726 0.959 . S
C742 H727 0.959 . S
C742 H728 0.961 . S
C742 C741 1.502 . S
C743 H729 0.960 . S
C743 H730 0.961 . S
C743 H731 0.959 . S
C743 C741 1.561 1_556 S
C744 C741 1.526 1_556 S
C744 C745 1.396 . S
C744 C749 1.390 . S
C745 C739 1.457 1_556 S
C745 C744 1.396 . S
C745 C746 1.399 . S
C746 H732 0.929 . S
C746 C745 1.399 . S
C746 C747 1.385 . S
C747 H733 0.931 1_655 S
C747 C746 1.385 . S
C747 C748 1.389 . S
C748 C747 1.389 . S
C748 C749 1.387 . S
C749 H734 0.930 . S
C749 C744 1.390 . S
C749 C748 1.387 . S
H750 C762 0.930 . S
H751 C764 0.930 . S
H752 C765 0.930 . S
H753 C769 0.959 . S
H754 C769 0.959 . S
H755 C769 0.961 . S
H756 C770 0.960 . S
H757 C770 0.961 . S
H758 C770 0.959 . S
H759 C773 0.929 . S
H760 C774 0.931 . S
H761 C776 0.930 1_545 S
C762 H750 0.930 . S
C762 C763 1.399 . S
C762 C767 1.399 . S
C763 C762 1.399 . S
C763 C764 1.376 . S
C764 H751 0.930 . S
C764 C763 1.376 . S
C764 C765 1.388 . S
C765 H752 0.930 . S
C765 C764 1.388 . S
C765 C766 1.390 . S
C766 C765 1.390 . S
C766 C767 1.394 . S
C766 C772 1.465 . S
C767 C762 1.399 . S
C767 C766 1.394 . S
C767 C768 1.516 . S
C768 C767 1.516 . S
C768 C769 1.502 . S
C768 C770 1.561 . S
C768 C771 1.526 . S
C769 H753 0.959 . S
C769 H754 0.959 . S
C769 H755 0.961 . S
C769 C768 1.502 . S
C770 H756 0.960 . S
C770 H757 0.961 . S
C770 H758 0.959 . S
C770 C768 1.561 . S
C771 C768 1.526 . S
C771 C772 1.396 . S
C771 C776 1.390 . S
C772 C766 1.465 . S
C772 C771 1.396 . S
C772 C773 1.399 . S
C773 H759 0.929 . S
C773 C772 1.399 . S
C773 C774 1.385 . S
C774 H760 0.931 . S
C774 C773 1.385 . S
C774 C775 1.389 . S
C775 C774 1.389 . S
C775 C776 1.387 . S
C776 H761 0.930 1_565 S
C776 C771 1.390 . S
C776 C775 1.387 . S
H777 C789 0.930 . S
H778 C791 0.930 1_565 S
H779 C792 0.930 . S
H780 C796 0.959 . S
H781 C796 0.959 . S
H782 C796 0.961 . S
H783 C797 0.960 . S
H784 C797 0.961 . S
H785 C797 0.959 . S
H786 C800 0.929 . S
H787 C801 0.931 . S
H788 C803 0.930 . S
C789 H777 0.930 . S
C789 C790 1.399 . S
C789 C794 1.399 . S
C790 C789 1.399 . S
C790 C791 1.376 . S
C791 H778 0.930 1_545 S
C791 C790 1.376 . S
C791 C792 1.388 . S
C792 H779 0.930 . S
C792 C791 1.388 . S
C792 C793 1.390 . S
C793 C792 1.390 . S
C793 C794 1.394 . S
C793 C799 1.465 . S
C794 C789 1.399 . S
C794 C793 1.394 . S
C794 C795 1.516 . S
C795 C794 1.516 . S
C795 C796 1.502 . S
C795 C797 1.561 . S
C795 C798 1.526 . S
C796 H780 0.959 . S
C796 H781 0.959 . S
C796 H782 0.961 . S
C796 C795 1.502 . S
C797 H783 0.960 . S
C797 H784 0.961 . S
C797 H785 0.959 . S
C797 C795 1.561 . S
C798 C795 1.526 . S
C798 C799 1.396 . S
C798 C803 1.390 . S
C799 C793 1.465 . S
C799 C798 1.396 . S
C799 C800 1.399 . S
C800 H786 0.929 . S
C800 C799 1.399 . S
C800 C801 1.385 . S
C801 H787 0.931 . S
C801 C800 1.385 . S
C801 C802 1.389 . S
C802 C801 1.389 . S
C802 C803 1.387 . S
C803 H788 0.930 . S
C803 C798 1.390 . S
C803 C802 1.387 . S
C169 C39 1.355 . S
C181 C0 1.430 . S
C196 C13 1.389 . S
C208 C52 1.427 . S
C223 C65 1.357 . S
C235 C26 1.451 . S
C250 C78 1.342 . S
C262 C117 1.446 . S
C277 C130 1.356 . S
C289 C91 1.429 . S
C304 C104 1.449 . S
C316 C143 1.363 . S
C331 C112 1.465 . S
C343 C8 1.531 . S
C358 C21 1.476 . S
C370 C125 1.522 . S
C385 C34 1.466 . S
C397 C138 1.530 . S
C412 C47 1.480 . S
C424 C151 1.514 . S
C439 C86 1.518 . S
C451 C60 1.477 . S
C466 C99 1.508 . S
C478 C73 1.492 . S
C493 C96 0.882 . S
C505 C5 0.837 . S
C520 C18 0.991 . S
C532 C109 0.952 . S
C547 C31 0.944 . S
C559 C122 0.986 . S
C574 C44 0.894 . S
C586 C135 0.844 . S
C601 C148 0.997 . S
C613 C57 0.968 . S
C628 C70 0.981 . S
C640 C83 0.998 . S
C655 C140 1.276 1_455 S
C667 C10 1.274 . S
C682 C153 1.286 1_545 S
C694 C23 1.280 1_655 S
C709 C88 1.275 . S
C721 C36 1.281 1_565 S
C736 C49 1.278 . S
C748 C101 1.274 1_655 S
C763 C62 1.291 1_455 S
C775 C114 1.290 1_565 S
C790 C75 1.283 1_545 S
C802 C127 1.277 . S
