# Generated by pormake.
# Topology wje, (4)-cn, num edge types: 1
# Building blocks:
#     Node 0, Type 0, BuildingBlock: UXUYUI_clean_sbu_0, # of connection points: 4
#     Node 1, Type 0, BuildingBlock: UXUYUI_clean_sbu_0, # of connection points: 4
#     Node 2, Type 0, BuildingBlock: UXUYUI_clean_sbu_0, # of connection points: 4
#     Node 3, Type 0, BuildingBlock: UXUYUI_clean_sbu_0, # of connection points: 4
#     Node 4, Type 0, BuildingBlock: UXUYUI_clean_sbu_0, # of connection points: 4
#     Node 5, Type 0, BuildingBlock: UXUYUI_clean_sbu_0, # of connection points: 4
#     Node 6, Type 0, BuildingBlock: UXUYUI_clean_sbu_0, # of connection points: 4
#     Node 7, Type 0, BuildingBlock: UXUYUI_clean_sbu_0, # of connection points: 4
#     Node 8, Type 0, BuildingBlock: UXUYUI_clean_sbu_0, # of connection points: 4
#     Node 9, Type 0, BuildingBlock: UXUYUI_clean_sbu_0, # of connection points: 4
#     Node 10, Type 0, BuildingBlock: UXUYUI_clean_sbu_0, # of connection points: 4
#     Node 11, Type 0, BuildingBlock: UXUYUI_clean_sbu_0, # of connection points: 4
#     Edge 12, Type (0, 0), BuildingBlock: XUDNAN_clean_linker_2, # of connection points: 2
#     Edge 13, Type (0, 0), BuildingBlock: XUDNAN_clean_linker_2, # of connection points: 2
#     Edge 14, Type (0, 0), BuildingBlock: XUDNAN_clean_linker_2, # of connection points: 2
#     Edge 15, Type (0, 0), BuildingBlock: XUDNAN_clean_linker_2, # of connection points: 2
#     Edge 16, Type (0, 0), BuildingBlock: XUDNAN_clean_linker_2, # of connection points: 2
#     Edge 17, Type (0, 0), BuildingBlock: XUDNAN_clean_linker_2, # of connection points: 2
#     Edge 18, Type (0, 0), BuildingBlock: XUDNAN_clean_linker_2, # of connection points: 2
#     Edge 19, Type (0, 0), BuildingBlock: XUDNAN_clean_linker_2, # of connection points: 2
#     Edge 20, Type (0, 0), BuildingBlock: XUDNAN_clean_linker_2, # of connection points: 2
#     Edge 21, Type (0, 0), BuildingBlock: XUDNAN_clean_linker_2, # of connection points: 2
#     Edge 22, Type (0, 0), BuildingBlock: XUDNAN_clean_linker_2, # of connection points: 2
#     Edge 23, Type (0, 0), BuildingBlock: XUDNAN_clean_linker_2, # of connection points: 2
#     Edge 24, Type (0, 0), BuildingBlock: XUDNAN_clean_linker_2, # of connection points: 2
#     Edge 25, Type (0, 0), BuildingBlock: XUDNAN_clean_linker_2, # of connection points: 2
#     Edge 26, Type (0, 0), BuildingBlock: XUDNAN_clean_linker_2, # of connection points: 2
#     Edge 27, Type (0, 0), BuildingBlock: XUDNAN_clean_linker_2, # of connection points: 2
#     Edge 28, Type (0, 0), BuildingBlock: XUDNAN_clean_linker_2, # of connection points: 2
#     Edge 29, Type (0, 0), BuildingBlock: XUDNAN_clean_linker_2, # of connection points: 2
#     Edge 30, Type (0, 0), BuildingBlock: XUDNAN_clean_linker_2, # of connection points: 2
#     Edge 31, Type (0, 0), BuildingBlock: XUDNAN_clean_linker_2, # of connection points: 2
#     Edge 32, Type (0, 0), BuildingBlock: XUDNAN_clean_linker_2, # of connection points: 2
#     Edge 33, Type (0, 0), BuildingBlock: XUDNAN_clean_linker_2, # of connection points: 2
#     Edge 34, Type (0, 0), BuildingBlock: XUDNAN_clean_linker_2, # of connection points: 2
#     Edge 35, Type (0, 0), BuildingBlock: XUDNAN_clean_linker_2, # of connection points: 2
# Relax obj value: 0.245
# Max RMSD: 0.179
# Mean RMSD: 0.178
data_MOF--net-wje--node1-UXUYUI_clean_sbu_0--edge1-XUDNAN_clean_linker_2
_symmetry_space_group_name_H-M    P1
_symmetry_Int_Tables_number       1
_symmetry_cell_setting            triclinic
loop_
_symmetry_equiv_pos_as_xyz
'x, y, z'
_cell_length_a     62.133829
_cell_length_b     62.163489
_cell_length_c     48.604634
_cell_angle_alpha  89.99676
_cell_angle_beta   90.002553
_cell_angle_gamma 119.9966
loop_
_atom_site_label
_atom_site_type_symbol
_atom_site_fract_x
_atom_site_fract_y
_atom_site_fract_z
_atom_type_partial_charge
Li0 Li 0.35342 0.00385 0.2643 0.0
Li1 Li 0.3381 0.01412 0.30679 0.0
Li2 Li 0.30983 0.98474 0.27515 0.0
Li3 Li 0.33051 0.02748 0.26211 0.0
C4 C 0.32783 0.9576 0.29624 0.0
N5 N 0.30999 0.90697 0.29626 0.0
C6 C 0.31733 0.94364 0.32008 0.0
C7 C 0.32936 0.94577 0.27246 0.0
C8 C 0.30834 0.91807 0.31965 0.0
C9 C 0.32028 0.92019 0.2729 0.0
C10 C 0.38718 0.04838 0.2898 0.0
C11 C 0.42904 0.08304 0.29203 0.0
N12 N 0.43551 0.06958 0.30864 0.0
C13 C 0.39423 0.03491 0.30695 0.0
C14 C 0.4047 0.07265 0.28228 0.0
C15 C 0.41875 0.04594 0.31624 0.0
C16 C 0.3928 0.01329 0.22686 0.0
N17 N 0.38104 0.00154 0.25046 0.0
C18 C 0.41151 0.98961 0.25907 0.0
C19 C 0.38989 0.98971 0.26642 0.0
C20 C 0.42452 0.00212 0.23522 0.0
C21 C 0.41468 0.01377 0.21876 0.0
H22 H 0.38559 0.02292 0.21479 0.0
H23 H 0.38053 0.9809 0.28536 0.0
C24 C 0.32454 0.99994 0.35965 0.0
N25 N 0.34243 0.01942 0.34535 0.0
C26 C 0.32612 0.9988 0.38811 0.0
C27 C 0.36351 0.03901 0.38704 0.0
C28 C 0.36136 0.03919 0.35838 0.0
C29 C 0.34606 0.01829 0.40227 0.0
H30 H 0.30932 0.98489 0.34871 0.0
H31 H 0.37501 0.05483 0.34659 0.0
C32 C 0.30885 0.98349 0.22074 0.0
N33 N 0.27312 0.95136 0.18429 0.0
C34 C 0.28613 0.98289 0.2187 0.0
C35 C 0.31355 0.96798 0.20408 0.0
C36 C 0.26825 0.96644 0.20021 0.0
C37 C 0.29521 0.95182 0.1858 0.0
C38 C 0.30355 0.02942 0.30568 0.0
C39 C 0.27958 0.02424 0.31257 0.0
C40 C 0.32384 0.05289 0.31145 0.0
C41 C 0.2763 0.04262 0.3251 0.0
C42 C 0.31977 0.07076 0.32401 0.0
N43 N 0.29629 0.06531 0.33051 0.0
C44 C 0.26536 0.95335 0.30025 0.0
C45 C 0.27207 0.93316 0.26266 0.0
C46 C 0.24487 0.93115 0.30879 0.0
N47 N 0.27875 0.95398 0.27784 0.0
C48 C 0.25174 0.9104 0.27065 0.0
C49 C 0.23817 0.90915 0.29435 0.0
H50 H 0.27143 0.96988 0.31253 0.0
H51 H 0.28324 0.93382 0.24533 0.0
C52 C 0.34868 0.07283 0.23233 0.0
N53 N 0.32806 0.05329 0.24341 0.0
C54 C 0.34731 0.09264 0.22045 0.0
C55 C 0.30349 0.07162 0.23126 0.0
C56 C 0.30564 0.05213 0.24259 0.0
C57 C 0.32456 0.09238 0.2203 0.0
H58 H 0.36627 0.07324 0.23317 0.0
H59 H 0.28946 0.03628 0.25127 0.0
O60 O 0.33616 0.9826 0.29593 0.0
O61 O 0.3634 0.03785 0.27996 0.0
O62 O 0.32656 0.99942 0.23871 0.0
O63 O 0.30686 0.01156 0.29312 0.0
H64 H 0.3161 0.95236 0.33876 0.0
H65 H 0.33709 0.95616 0.25371 0.0
H66 H 0.30005 0.90704 0.33791 0.0
H67 H 0.32123 0.91081 0.25458 0.0
H68 H 0.44281 0.1018 0.28635 0.0
H69 H 0.38092 0.01617 0.31313 0.0
H70 H 0.39956 0.08334 0.26902 0.0
H71 H 0.42445 0.03571 0.32949 0.0
H72 H 0.41811 0.98004 0.2722 0.0
H73 H 0.42421 0.02386 0.20037 0.0
H74 H 0.31229 0.9823 0.39865 0.0
H75 H 0.37884 0.05478 0.39706 0.0
H76 H 0.28227 0.99482 0.23148 0.0
H77 H 0.33116 0.9684 0.2053 0.0
H78 H 0.2505 0.96563 0.19853 0.0
H79 H 0.29852 0.93962 0.17285 0.0
H80 H 0.26366 0.00623 0.30813 0.0
H81 H 0.34253 0.05739 0.30628 0.0
H82 H 0.25784 0.03886 0.33049 0.0
H83 H 0.3353 0.08899 0.32855 0.0
H84 H 0.23528 0.93101 0.32745 0.0
H85 H 0.24715 0.89385 0.2589 0.0
H86 H 0.364 0.10836 0.21232 0.0
H87 H 0.28554 0.07053 0.23123 0.0
Li88 Li 0.34923 0.35295 0.59651 0.0
Li89 Li 0.32411 0.33952 0.63971 0.0
Li90 Li 0.32314 0.3087 0.60819 0.0
Li91 Li 0.30201 0.33114 0.59647 0.0
C92 C 0.36405 0.32331 0.63803 0.0
N93 N 0.38627 0.29717 0.65696 0.0
C94 C 0.36128 0.31572 0.66551 0.0
C95 C 0.37831 0.31779 0.62024 0.0
C96 C 0.37263 0.3025 0.67467 0.0
C97 C 0.38933 0.30449 0.63018 0.0
C98 C 0.32907 0.38318 0.62829 0.0
C99 C 0.31187 0.4004 0.66003 0.0
N100 N 0.33469 0.42096 0.66278 0.0
C101 C 0.35233 0.40453 0.6313 0.0
C102 C 0.30863 0.38112 0.64263 0.0
C103 C 0.3548 0.42341 0.64888 0.0
C104 C 0.37955 0.3948 0.56273 0.0
N105 N 0.37957 0.37923 0.58236 0.0
C106 C 0.42342 0.40483 0.58848 0.0
C107 C 0.40092 0.38367 0.59498 0.0
C108 C 0.42396 0.42182 0.56902 0.0
C109 C 0.40169 0.41631 0.55564 0.0
H110 H 0.36219 0.39104 0.55344 0.0
H111 H 0.40037 0.37125 0.61086 0.0
C112 C 0.30784 0.33065 0.69485 0.0
N113 N 0.32591 0.34695 0.67767 0.0
C114 C 0.31129 0.33318 0.7233 0.0
C115 C 0.35142 0.36973 0.71575 0.0
C116 C 0.34733 0.36634 0.68747 0.0
C117 C 0.33352 0.35266 0.73401 0.0
H118 H 0.29134 0.31498 0.68647 0.0
H119 H 0.36179 0.37837 0.67332 0.0
C120 C 0.32996 0.31398 0.55144 0.0
N121 N 0.34031 0.29116 0.5088 0.0
C122 C 0.31059 0.29501 0.53639 0.0
C123 C 0.35458 0.32152 0.54462 0.0
C124 C 0.31621 0.28366 0.51495 0.0
C125 C 0.35943 0.3097 0.52305 0.0
C126 C 0.27018 0.29363 0.62841 0.0
C127 C 0.2589 0.26975 0.61716 0.0
C128 C 0.25546 0.30249 0.63988 0.0
C129 C 0.233 0.25521 0.61728 0.0
C130 C 0.22962 0.28741 0.63954 0.0
N131 N 0.21902 0.26428 0.62834 0.0
C132 C 0.31405 0.26673 0.63614 0.0
C133 C 0.32571 0.26466 0.59022 0.0
C134 C 0.31202 0.24389 0.64227 0.0
N135 N 0.32087 0.27673 0.61053 0.0
C136 C 0.32324 0.24136 0.59528 0.0
C137 C 0.31643 0.23088 0.62163 0.0
H138 H 0.31029 0.27666 0.65193 0.0
H139 H 0.33153 0.27294 0.57017 0.0
C140 C 0.27015 0.34911 0.57815 0.0
N141 N 0.27356 0.32912 0.57846 0.0
C142 C 0.2486 0.34719 0.56661 0.0
C143 C 0.23467 0.30428 0.55567 0.0
C144 C 0.25662 0.30716 0.56693 0.0
C145 C 0.23034 0.32438 0.55567 0.0
H146 H 0.28399 0.36646 0.58721 0.0
H147 H 0.2599 0.29167 0.56701 0.0
O148 O 0.3525 0.33568 0.62846 0.0
O149 O 0.32634 0.36434 0.61148 0.0
O150 O 0.32483 0.32555 0.57221 0.0
O151 O 0.29548 0.30828 0.62819 0.0
H152 H 0.35023 0.3197 0.67956 0.0
H153 H 0.38059 0.32345 0.59891 0.0
H154 H 0.37051 0.29637 0.69583 0.0
H155 H 0.40026 0.29994 0.61659 0.0
H156 H 0.29623 0.39901 0.67136 0.0
H157 H 0.36836 0.40642 0.6204 0.0
H158 H 0.2905 0.36476 0.64045 0.0
H159 H 0.37271 0.43999 0.65153 0.0
H160 H 0.44014 0.40809 0.59903 0.0
H161 H 0.40116 0.429 0.54077 0.0
H162 H 0.29704 0.31968 0.73676 0.0
H163 H 0.36899 0.38472 0.72318 0.0
H164 H 0.29144 0.28904 0.54129 0.0
H165 H 0.3698 0.33633 0.55584 0.0
H166 H 0.30142 0.26888 0.50321 0.0
H167 H 0.3784 0.31528 0.51762 0.0
H168 H 0.26998 0.26263 0.60807 0.0
H169 H 0.2639 0.32088 0.64878 0.0
H170 H 0.22401 0.23676 0.60848 0.0
H171 H 0.218 0.29408 0.64818 0.0
H172 H 0.30652 0.2362 0.66276 0.0
H173 H 0.3268 0.23172 0.57891 0.0
H174 H 0.24589 0.36309 0.56702 0.0
H175 H 0.22115 0.28648 0.54712 0.0
Li176 Li 1.00017 0.3461 0.92986 0.0
Li177 Li 0.99253 0.31871 0.9692 0.0
Li178 Li 0.02035 0.32089 0.93242 0.0
Li179 Li 0.97511 0.29982 0.9238 0.0
C180 C 0.03113 0.36843 0.9732 0.0
N181 N 0.04486 0.41065 0.00413 0.0
C182 C 0.01304 0.37206 0.98598 0.0
C183 C 0.05621 0.3864 0.97597 0.0
C184 C 0.02035 0.39348 0.00158 0.0
C185 C 0.06278 0.40758 0.99175 0.0
C186 C 0.94618 0.3126 0.96279 0.0
C187 C 0.91109 0.27777 0.98439 0.0
N188 N 0.90377 0.2934 0.9948 0.0
C189 C 0.93831 0.32833 0.97376 0.0
C190 C 0.93248 0.28713 0.9682 0.0
C191 C 0.91682 0.31826 0.98987 0.0
C192 C 0.98577 0.38265 0.92325 0.0
N193 N 0.00468 0.37782 0.92011 0.0
C194 C 0.03316 0.42057 0.91055 0.0
C195 C 0.02794 0.39607 0.91336 0.0
C196 C 0.01437 0.4265 0.91527 0.0
C197 C 0.99023 0.40698 0.92104 0.0
H198 H 0.96744 0.36778 0.92858 0.0
H199 H 0.04271 0.39177 0.9113 0.0
C200 C 0.00838 0.30868 0.01646 0.0
N201 N 0.99135 0.31488 0.00805 0.0
C202 C 0.01174 0.30612 0.0443 0.0
C203 C 0.9801 0.31671 0.05468 0.0
C204 C 0.97725 0.31896 0.02642 0.0
C205 C 0.99754 0.31017 0.06387 0.0
H206 H 0.01965 0.30604 0.00136 0.0
H207 H 0.96415 0.32433 0.01932 0.0
C208 C 0.01665 0.32416 0.87895 0.0
N209 N 0.04558 0.32223 0.83695 0.0
C210 C 0.00743 0.30319 0.86209 0.0
C211 C 0.04051 0.3442 0.87439 0.0
C212 C 0.02236 0.30257 0.84096 0.0
C213 C 0.05488 0.34285 0.85308 0.0
C214 C 0.98624 0.26726 0.95578 0.0
C215 C 0.99551 0.25477 0.94024 0.0
C216 C 0.96974 0.25492 0.97737 0.0
C217 C 0.9878 0.22998 0.94627 0.0
C218 C 0.96248 0.23013 0.98277 0.0
N219 N 0.97157 0.21827 0.96722 0.0
C220 C 0.06562 0.33071 0.95244 0.0
C221 C 0.05553 0.30608 0.91218 0.0
C222 C 0.08636 0.32818 0.95708 0.0
N223 N 0.05053 0.31958 0.93048 0.0
C224 C 0.07613 0.30293 0.91614 0.0
C225 C 0.0916 0.3137 0.93918 0.0
H226 H 0.06083 0.34052 0.96731 0.0
H227 H 0.04296 0.29679 0.89528 0.0
C228 C 0.92715 0.27673 0.90084 0.0
N229 N 0.94687 0.27334 0.90521 0.0
C230 C 0.9051 0.25769 0.8897 0.0
C231 C 0.9244 0.23238 0.88603 0.0
C232 C 0.94606 0.25188 0.89753 0.0
C233 C 0.90336 0.23498 0.88254 0.0
H234 H 0.92836 0.2941 0.90663 0.0
H235 H 0.96208 0.24974 0.90059 0.0
O236 O 0.02436 0.34794 0.95712 0.0
O237 O 0.96732 0.32215 0.94716 0.0
O238 O 0.00232 0.32512 0.89971 0.0
O239 O 0.99383 0.29163 0.95038 0.0
H240 H 0.99355 0.35863 0.98366 0.0
H241 H 0.07045 0.38413 0.96583 0.0
H242 H 0.00652 0.3965 0.01156 0.0
H243 H 0.08212 0.42164 0.99407 0.0
H244 H 0.90033 0.25809 0.98868 0.0
H245 H 0.94882 0.34813 0.9702 0.0
H246 H 0.93825 0.27468 0.95995 0.0
H247 H 0.91057 0.33022 0.99853 0.0
H248 H 0.05193 0.43478 0.90545 0.0
H249 H 0.97515 0.41052 0.92513 0.0
H250 H 0.02573 0.30155 0.05045 0.0
H251 H 0.96878 0.31997 0.06915 0.0
H252 H 0.98897 0.28756 0.86529 0.0
H253 H 0.04795 0.36051 0.88735 0.0
H254 H 0.0155 0.28644 0.82777 0.0
H255 H 0.07344 0.35816 0.84941 0.0
H256 H 0.00826 0.26401 0.92346 0.0
H257 H 0.9627 0.26438 0.98997 0.0
H258 H 0.9947 0.22005 0.93426 0.0
H259 H 0.94968 0.22035 0.99937 0.0
H260 H 0.09733 0.33634 0.97545 0.0
H261 H 0.0795 0.29161 0.90179 0.0
H262 H 0.88948 0.26065 0.88691 0.0
H263 H 0.92386 0.21519 0.88076 0.0
Li264 Li 0.65196 0.99845 0.26342 0.0
Li265 Li 0.66173 0.98151 0.30585 0.0
Li266 Li 0.69469 0.01433 0.27934 0.0
Li267 Li 0.67354 0.97271 0.26093 0.0
C268 C 0.67816 0.03817 0.30949 0.0
N269 N 0.70346 0.08551 0.33135 0.0
C270 C 0.68472 0.04162 0.33732 0.0
C271 C 0.68433 0.05879 0.29283 0.0
C272 C 0.69755 0.06571 0.34797 0.0
C273 C 0.69715 0.08257 0.30426 0.0
C274 C 0.61852 0.94417 0.28638 0.0
C275 C 0.59678 0.90415 0.30852 0.0
N276 N 0.57645 0.90681 0.31134 0.0
C277 C 0.59737 0.94646 0.28932 0.0
C278 C 0.6182 0.9228 0.29587 0.0
C279 C 0.5763 0.92738 0.30206 0.0
C280 C 0.61274 0.99016 0.22698 0.0
N281 N 0.62698 0.00419 0.24833 0.0
C282 C 0.60133 0.02243 0.25402 0.0
C283 C 0.62183 0.02031 0.26165 0.0
C284 C 0.5856 0.00747 0.23278 0.0
C285 C 0.59185 0.99153 0.21879 0.0
H286 H 0.61697 0.97709 0.21715 0.0
H287 H 0.63305 0.03084 0.27894 0.0
C288 C 0.67204 0.97647 0.36005 0.0
N289 N 0.65308 0.97299 0.34328 0.0
C290 C 0.67025 0.9785 0.38841 0.0
C291 C 0.62866 0.97149 0.38198 0.0
C292 C 0.63144 0.97002 0.35363 0.0
C293 C 0.64865 0.97688 0.39973 0.0
H294 H 0.68945 0.97989 0.35128 0.0
H295 H 0.61705 0.96836 0.33987 0.0
C296 C 0.69789 0.02354 0.22509 0.0
N297 N 0.73106 0.06246 0.19249 0.0
C298 C 0.72067 0.02567 0.218 0.0
C299 C 0.69189 0.04108 0.21551 0.0
C300 C 0.73722 0.04552 0.20153 0.0
C301 C 0.70893 0.06066 0.19907 0.0
C302 C 0.70591 0.97209 0.29825 0.0
C303 C 0.73111 0.98338 0.29145 0.0
C304 C 0.69369 0.9479 0.30866 0.0
C305 C 0.74359 0.97009 0.29483 0.0
C306 C 0.70682 0.93523 0.31173 0.0
N307 N 0.73129 0.94649 0.30479 0.0
C308 C 0.73465 0.03975 0.31264 0.0
C309 C 0.73891 0.06496 0.27417 0.0
C310 C 0.75658 0.05846 0.32401 0.0
N311 N 0.72635 0.04302 0.28799 0.0
C312 C 0.76115 0.08437 0.28489 0.0
C313 C 0.77034 0.08108 0.31005 0.0
H314 H 0.72388 0.02263 0.32388 0.0
H315 H 0.73155 0.06769 0.25522 0.0
C316 C 0.65621 0.92675 0.23229 0.0
N317 N 0.67673 0.94835 0.23978 0.0
C318 C 0.65857 0.90883 0.21721 0.0
C319 C 0.70312 0.9356 0.21816 0.0
C320 C 0.69985 0.95315 0.23265 0.0
C321 C 0.68233 0.91303 0.20999 0.0
H322 H 0.63797 0.92348 0.23787 0.0
H323 H 0.71588 0.97058 0.23835 0.0
O324 O 0.66626 0.01478 0.29848 0.0
O325 O 0.63934 0.96266 0.27401 0.0
O326 O 0.68127 0.00404 0.24078 0.0
O327 O 0.69336 0.98478 0.29499 0.0
H328 H 0.68014 0.02591 0.35052 0.0
H329 H 0.67959 0.05645 0.27119 0.0
H330 H 0.70285 0.06866 0.36943 0.0
H331 H 0.7022 0.09869 0.29155 0.0
H332 H 0.59629 0.88753 0.31604 0.0
H333 H 0.59729 0.96287 0.28208 0.0
H334 H 0.6343 0.92061 0.29341 0.0
H335 H 0.55984 0.92894 0.30462 0.0
H336 H 0.59752 0.03525 0.26514 0.0
H337 H 0.58014 0.9794 0.20256 0.0
H338 H 0.6864 0.98318 0.40094 0.0
H339 H 0.6115 0.96971 0.3897 0.0
H340 H 0.72558 0.01224 0.22527 0.0
H341 H 0.67423 0.03957 0.2207 0.0
H342 H 0.75497 0.04748 0.19596 0.0
H343 H 0.70457 0.07441 0.19154 0.0
H344 H 0.74083 0.00208 0.2833 0.0
H345 H 0.6743 0.93906 0.31439 0.0
H346 H 0.76305 0.97852 0.28948 0.0
H347 H 0.69758 0.91646 0.31968 0.0
H348 H 0.7625 0.05534 0.34383 0.0
H349 H 0.77111 0.10162 0.27356 0.0
H350 H 0.6419 0.89206 0.21102 0.0
H351 H 0.72187 0.93973 0.21373 0.0
Li352 Li 0.6849 0.67489 0.63968 0.0
Li353 Li 0.65549 0.65314 0.60111 0.0
Li354 Li 0.70133 0.67486 0.59395 0.0
Li355 Li 0.68067 0.69774 0.60363 0.0
C356 C 0.66845 0.62399 0.63338 0.0
N357 N 0.64355 0.5804 0.66318 0.0
C358 C 0.64937 0.62027 0.65142 0.0
C359 C 0.67492 0.60556 0.63058 0.0
C360 C 0.63698 0.59811 0.66626 0.0
C361 C 0.66211 0.58365 0.64581 0.0
C362 C 0.63741 0.68305 0.62957 0.0
C363 C 0.60368 0.6857 0.60837 0.0
N364 N 0.60405 0.70023 0.62948 0.0
C365 C 0.63731 0.69787 0.65117 0.0
C366 C 0.62041 0.67687 0.60802 0.0
C367 C 0.62038 0.70645 0.65068 0.0
C368 C 0.69214 0.70017 0.68617 0.0
N369 N 0.68984 0.6782 0.67831 0.0
C370 C 0.69196 0.66765 0.72517 0.0
C371 C 0.69019 0.66208 0.69699 0.0
C372 C 0.69335 0.68994 0.73392 0.0
C373 C 0.69359 0.7063 0.71383 0.0
H374 H 0.69219 0.71271 0.67075 0.0
H375 H 0.68879 0.64487 0.69019 0.0
C376 C 0.62396 0.61253 0.56719 0.0
N377 N 0.62492 0.62439 0.59104 0.0
C378 C 0.60217 0.59089 0.55964 0.0
C379 C 0.58277 0.59418 0.6013 0.0
C380 C 0.60492 0.6157 0.60804 0.0
C381 C 0.58119 0.58136 0.57687 0.0
H382 H 0.64024 0.61977 0.55418 0.0
H383 H 0.60617 0.62545 0.62693 0.0
C384 C 0.73462 0.70807 0.63021 0.0
N385 N 0.78013 0.71831 0.65122 0.0
C386 C 0.75464 0.7324 0.63022 0.0
C387 C 0.73778 0.68893 0.64089 0.0
C388 C 0.77748 0.7372 0.64093 0.0
C389 C 0.76092 0.69449 0.65142 0.0
C390 C 0.67468 0.69056 0.55053 0.0
C391 C 0.69622 0.71259 0.54349 0.0
C392 C 0.65249 0.68361 0.5366 0.0
C393 C 0.6951 0.72757 0.52276 0.0
C394 C 0.65215 0.69908 0.51595 0.0
N395 N 0.67327 0.72057 0.50954 0.0
C396 C 0.72227 0.64964 0.5676 0.0
C397 C 0.74792 0.69341 0.56585 0.0
C398 C 0.73968 0.64653 0.55259 0.0
N399 N 0.72662 0.67277 0.57386 0.0
C400 C 0.7659 0.69116 0.55077 0.0
C401 C 0.76181 0.66744 0.54376 0.0
H402 H 0.70513 0.63357 0.57413 0.0
H403 H 0.75085 0.71161 0.57094 0.0
C404 C 0.69675 0.7459 0.61953 0.0
N405 N 0.68088 0.72878 0.60121 0.0
C406 C 0.6946 0.76653 0.6263 0.0
C407 C 0.66057 0.75245 0.59414 0.0
C408 C 0.66353 0.73211 0.58776 0.0
C409 C 0.67573 0.76954 0.61434 0.0
H410 H 0.70997 0.74265 0.63048 0.0
H411 H 0.65077 0.71812 0.57366 0.0
O412 O 0.6807 0.6454 0.61831 0.0
O413 O 0.65423 0.67491 0.6293 0.0
O414 O 0.71226 0.70322 0.61946 0.0
O415 O 0.67538 0.67572 0.57082 0.0
H416 H 0.64423 0.63437 0.65412 0.0
H417 H 0.6897 0.60814 0.61679 0.0
H418 H 0.62218 0.59501 0.68028 0.0
H419 H 0.66691 0.56923 0.64383 0.0
H420 H 0.59055 0.68118 0.59171 0.0
H421 H 0.65015 0.70278 0.66813 0.0
H422 H 0.62044 0.66582 0.59088 0.0
H423 H 0.62024 0.71807 0.66717 0.0
H424 H 0.69212 0.65464 0.73985 0.0
H425 H 0.69411 0.72343 0.71928 0.0
H426 H 0.60195 0.58148 0.54081 0.0
H427 H 0.56701 0.58778 0.61502 0.0
H428 H 0.75257 0.74742 0.62189 0.0
H429 H 0.72264 0.66998 0.6411 0.0
H430 H 0.79313 0.75595 0.64102 0.0
H431 H 0.76361 0.67987 0.65974 0.0
H432 H 0.71354 0.71816 0.55411 0.0
H433 H 0.63571 0.6665 0.54173 0.0
H434 H 0.71158 0.74478 0.51719 0.0
H435 H 0.63509 0.69402 0.50504 0.0
H436 H 0.73585 0.62789 0.54805 0.0
H437 H 0.78254 0.70779 0.54416 0.0
H438 H 0.70648 0.77898 0.64225 0.0
H439 H 0.64586 0.75417 0.5843 0.0
Li440 Li 0.00895 0.65636 0.93835 0.0
Li441 Li 0.01404 0.6854 0.97501 0.0
Li442 Li 0.98188 0.67382 0.93805 0.0
Li443 Li 0.0267 0.70121 0.92712 0.0
C444 C 0.97502 0.62905 0.97539 0.0
N445 N 0.95634 0.58049 0.99224 0.0
C446 C 0.98368 0.62388 -0.00038 0.0
C447 C 0.95668 0.60959 0.95988 0.0
C448 C 0.97403 0.59918 0.00776 0.0
C449 C 0.94753 0.58515 0.9687 0.0
C450 C 0.06332 0.69951 0.96433 0.0
C451 C 0.09637 0.73931 0.97977 0.0
N452 N 0.10915 0.72824 0.98896 0.0
C453 C 0.07686 0.68856 0.97376 0.0
C454 C 0.07322 0.72511 0.96724 0.0
C455 C 0.09996 0.70338 0.98622 0.0
C456 C 0.00345 0.61327 0.90927 0.0
N457 N 0.01175 0.62751 0.93234 0.0
C458 C 0.0264 0.60159 0.95088 0.0
C459 C 0.02288 0.62196 0.953 0.0
C460 C 0.01851 0.58672 0.92714 0.0
C461 C 0.0066 0.59257 0.90626 0.0
H462 H 0.9946 0.61808 0.89315 0.0
H463 H 0.02895 0.6334 0.97126 0.0
C464 C 0.99953 0.69719 0.02248 0.0
N465 N 0.01731 0.69242 0.01309 0.0
C466 C 0.99812 0.70153 0.05029 0.0
C467 C 0.03296 0.69523 0.05865 0.0
C468 C 0.03391 0.6913 0.03041 0.0
C469 C 0.01488 0.70048 0.06879 0.0
H470 H 0.9862 0.69731 0.00826 0.0
H471 H 0.0475 0.6869 0.02246 0.0
C472 C 0.98564 0.66857 0.88491 0.0
N473 N 0.95363 0.66297 0.84253 0.0
C474 C 0.99125 0.6884 0.86721 0.0
C475 C 0.96387 0.64583 0.88096 0.0
C476 C 0.97481 0.68521 0.8459 0.0
C477 C 0.94788 0.64339 0.85946 0.0
C478 C 0.00916 0.7301 0.95831 0.0
C479 C 0.9951 0.73852 0.94435 0.0
C480 C 0.02637 0.74533 0.97815 0.0
C481 C 0.99872 0.76211 0.95016 0.0
C482 C 0.02944 0.7688 0.9834 0.0
N483 N 0.01568 0.77665 0.9694 0.0
C484 C 0.93426 0.65706 0.95768 0.0
C485 C 0.94239 0.68126 0.9173 0.0
C486 C 0.91279 0.65826 0.96282 0.0
N487 N 0.94899 0.66913 0.93575 0.0
C488 C 0.9211 0.68308 0.92176 0.0
C489 C 0.90654 0.6723 0.9454 0.0
H490 H 0.94012 0.64804 0.97245 0.0
H491 H 0.95457 0.69117 0.90034 0.0
C492 C 0.07243 0.72942 0.89863 0.0
N493 N 0.0511 0.72899 0.90609 0.0
C494 C 0.09186 0.75059 0.88628 0.0
C495 C 0.06663 0.77008 0.88852 0.0
C496 C 0.04767 0.7485 0.90056 0.0
C497 C 0.08929 0.77151 0.88174 0.0
H498 H 0.0747 0.71363 0.90316 0.0
H499 H 0.0304 0.74757 0.90594 0.0
O500 O 0.98457 0.65306 0.9668 0.0
O501 O 0.04057 0.68519 0.95228 0.0
O502 O 1.00146 0.67134 0.9059 0.0
O503 O 0.0056 0.70686 0.95309 0.0
H504 H 0.99787 0.63875 0.01185 0.0
H505 H 0.94971 0.61333 0.94117 0.0
H506 H 0.98067 0.59488 0.02637 0.0
H507 H 0.93344 0.56988 0.95682 0.0
H508 H 0.10421 0.75915 0.98213 0.0
H509 H 0.06967 0.66882 0.9715 0.0
H510 H 0.06326 0.73399 0.95969 0.0
H511 H 0.11059 0.69512 0.99368 0.0
H512 H 0.03515 0.59749 0.96776 0.0
H513 H 1.00031 0.58165 0.88758 0.0
H514 H 0.98359 0.70499 0.05736 0.0
H515 H 0.04613 0.69418 0.07237 0.0
H516 H 0.00808 0.70609 0.86992 0.0
H517 H 0.95935 0.63028 0.89442 0.0
H518 H 0.97886 0.70042 0.83209 0.0
H519 H 0.9309 0.62594 0.85623 0.0
H520 H 0.98183 0.72718 0.92885 0.0
H521 H 0.03711 0.73909 0.98965 0.0
H522 H 0.98807 0.76888 0.93934 0.0
H523 H 0.0427 0.78073 0.99869 0.0
H524 H 0.90235 0.64992 0.98145 0.0
H525 H 0.91683 0.69393 0.90768 0.0
H526 H 0.10906 0.75097 0.88145 0.0
H527 H 0.06373 0.78563 0.88489 0.0
Li528 Li 0.01818 0.69796 0.39763 0.0
Li529 Li 0.97514 0.67567 0.40992 0.0
Li530 Li 0.99945 0.65356 0.40051 0.0
Li531 Li 0.98968 0.67539 0.36273 0.0
C532 C 0.01954 0.69066 0.45088 0.0
N533 N 0.05302 0.71954 0.49099 0.0
C534 C 0.02057 0.71257 0.45958 0.0
C535 C 0.03531 0.68326 0.46271 0.0
C536 C 0.03772 0.72699 0.47983 0.0
C537 C 0.05215 0.69816 0.48296 0.0
C538 C 0.9738 0.70876 0.37449 0.0
C539 C 0.93295 0.69521 0.35599 0.0
N540 N 0.9378 0.7191 0.35622 0.0
C541 C 0.97837 0.73318 0.37452 0.0
C542 C 0.95089 0.6896 0.36513 0.0
C543 C 0.95994 0.73803 0.36521 0.0
C544 C 0.05038 0.74625 0.38152 0.0
N545 N 0.04927 0.72887 0.39936 0.0
C546 C 0.09345 0.75176 0.40494 0.0
C547 C 0.07014 0.73171 0.41186 0.0
C548 C 0.09521 0.76902 0.38508 0.0
C549 C 0.07319 0.76659 0.37416 0.0
H550 H 0.03372 0.74334 0.37126 0.0
H551 H 0.06906 0.71743 0.42536 0.0
C552 C 0.92881 0.65011 0.43595 0.0
N553 N 0.94784 0.67333 0.4305 0.0
C554 C 0.90687 0.64676 0.4478 0.0
C555 C 0.92488 0.69135 0.44941 0.0
C556 C 0.94653 0.69384 0.43748 0.0
C557 C 0.90445 0.66752 0.45415 0.0
H558 H 0.93045 0.63414 0.43042 0.0
H559 H 0.96197 0.71212 0.43296 0.0
C560 C 0.04532 0.68603 0.3653 0.0
N561 N 0.09575 0.70905 0.35481 0.0
C562 C 0.05545 0.702 0.34279 0.0
C563 C 0.06085 0.68169 0.38241 0.0
C564 C 0.08099 0.71355 0.3379 0.0
C565 C 0.08628 0.69347 0.37672 0.0
C566 C 0.95227 0.62491 0.3711 0.0
C567 C 0.96401 0.61399 0.35706 0.0
C568 C 0.92639 0.61369 0.37035 0.0
C569 C 0.9496 0.59186 0.34267 0.0
C570 C 0.91264 0.5916 0.35567 0.0
N571 N 0.92443 0.58121 0.34228 0.0
C572 C 0.98882 0.61085 0.43152 0.0
C573 C 0.01568 0.61844 0.39364 0.0
C574 C 0.9891 0.58904 0.43788 0.0
N575 N 1.00191 0.62495 0.40965 0.0
C576 C 0.0166 0.59691 0.39931 0.0
C577 C 0.00303 0.58171 0.42156 0.0
H578 H 0.97781 0.61634 0.44374 0.0
H579 H 0.0256 0.62973 0.37608 0.0
C580 C 0.9982 0.70165 0.31515 0.0
N581 N 0.9851 0.67783 0.32427 0.0
C582 C 0.99924 0.70697 0.28721 0.0
C583 C 0.97284 0.66312 0.27827 0.0
C584 C 0.97216 0.65864 0.30657 0.0
C585 C 0.98677 0.68755 0.26832 0.0
H586 H 0.00858 0.71653 0.3296 0.0
H587 H 0.96171 0.63988 0.31411 0.0
O588 O 0.00291 0.67629 0.43115 0.0
O589 O 0.9917 0.70386 0.38388 0.0
O590 O 0.02038 0.67481 0.37067 0.0
O591 O 0.96595 0.64629 0.38581 0.0
H592 H 0.00838 0.71844 0.45063 0.0
H593 H 0.03461 0.66626 0.45619 0.0
H594 H 0.03886 0.74409 0.48668 0.0
H595 H 0.06456 0.69275 0.49223 0.0
H596 H 0.91515 0.68055 0.34872 0.0
H597 H 0.99595 0.74823 0.38181 0.0
H598 H 0.94691 0.6706 0.36489 0.0
H599 H 0.96324 0.75684 0.36517 0.0
H600 H 0.10997 0.75303 0.41398 0.0
H601 H 0.07363 0.7792 0.35851 0.0
H602 H 0.89181 0.62807 0.45157 0.0
H603 H 0.9238 0.70786 0.45383 0.0
H604 H 0.04377 0.70561 0.32933 0.0
H605 H 0.05345 0.66978 0.40023 0.0
H606 H 0.0891 0.7261 0.32068 0.0
H607 H 0.09853 0.6904 0.3899 0.0
H608 H 0.98402 0.6228 0.35673 0.0
H609 H 0.91701 0.62198 0.38096 0.0
H610 H 0.95845 0.58324 0.33166 0.0
H611 H 0.89259 0.58271 0.35493 0.0
H612 H 0.97805 0.57778 0.45498 0.0
H613 H 0.02786 0.59225 0.38635 0.0
H614 H 0.01048 0.72603 0.28041 0.0
H615 H 0.96277 0.64765 0.26434 0.0
Li616 Li 0.32044 0.01268 0.72047 0.0
Li617 Li 0.30032 0.97078 0.73788 0.0
Li618 Li 0.34751 0.99666 0.73583 0.0
Li619 Li 0.32106 0.98026 0.69337 0.0
C620 C 0.32822 0.02134 0.77554 0.0
N621 N 0.33756 0.06002 0.81064 0.0
C622 C 0.30854 0.02363 0.78614 0.0
C623 C 0.35262 0.03859 0.78296 0.0
C624 C 0.31366 0.04333 0.80384 0.0
C625 C 0.35696 0.05807 0.80065 0.0
C626 C 0.26717 0.97216 0.70355 0.0
C627 C 0.22699 0.93702 0.69306 0.0
N628 N 0.21597 0.94968 0.70282 0.0
C629 C 0.25549 0.9849 0.71329 0.0
C630 C 0.25286 0.94811 0.69316 0.0
C631 C 0.22957 0.97318 0.71281 0.0
C632 C 0.30844 0.0393 0.68635 0.0
N633 N 0.31725 0.04127 0.71236 0.0
C634 C 0.32026 0.08103 0.71743 0.0
C635 C 0.3235 0.06179 0.72789 0.0
C636 C 0.31097 0.0793 0.69057 0.0
C637 C 0.3054 0.05812 0.67497 0.0
H638 H 0.30424 0.02314 0.6741 0.0
H639 H 0.33126 0.06351 0.74816 0.0
C640 C 0.26992 0.92328 0.76318 0.0
N641 N 0.27279 0.9462 0.7589 0.0
C642 C 0.24999 0.90562 0.77891 0.0
C643 C 0.23624 0.93539 0.7852 0.0
C644 C 0.25649 0.95247 0.76965 0.0
C645 C 0.23283 0.91162 0.79033 0.0
H646 H 0.28326 0.91878 0.75466 0.0
H647 H 0.25917 0.97078 0.76614 0.0
C648 C 0.36114 0.03686 0.69 0.0
N649 N 0.38343 0.08404 0.66766 0.0
C650 C 0.35883 0.04008 0.6619 0.0
C651 C 0.37498 0.05763 0.70668 0.0
C652 C 0.3702 0.06408 0.65101 0.0
C653 C 0.38605 0.08133 0.69501 0.0
C654 C 0.32684 0.94301 0.71098 0.0
C655 C 0.34992 0.94432 0.70924 0.0
C656 C 0.30604 0.92323 0.69866 0.0
C657 C 0.35183 0.92586 0.69493 0.0
C658 C 0.30873 0.90516 0.68451 0.0
N659 N 0.33138 0.90684 0.68294 0.0
C660 C 0.37878 0.98834 0.77174 0.0
C661 C 0.39947 0.01842 0.73688 0.0
C662 C 0.40109 0.9896 0.77944 0.0
N663 N 0.37836 0.00238 0.75051 0.0
C664 C 0.42214 0.02038 0.74398 0.0
C665 C 0.42311 0.00541 0.76507 0.0
H666 H 0.36159 0.97535 0.78183 0.0
H667 H 0.39859 0.02901 0.71975 0.0
C668 C 0.30584 0.97494 0.63894 0.0
N669 N 0.32172 0.97227 0.6559 0.0
C670 C 0.31007 0.97743 0.61063 0.0
C671 C 0.34577 0.97232 0.61755 0.0
C672 C 0.34114 0.97044 0.64581 0.0
C673 C 0.33081 0.97703 0.59961 0.0
H674 H 0.29114 0.97734 0.64758 0.0
H675 H 0.35411 0.96938 0.65976 0.0
O676 O 0.32359 0.00189 0.75867 0.0
O677 O 0.29251 0.98323 0.70402 0.0
O678 O 0.34951 0.01354 0.70123 0.0
O679 O 0.3246 0.96097 0.72475 0.0
H680 H 0.28956 0.01046 0.78064 0.0
H681 H 0.36804 0.03692 0.77522 0.0
H682 H 0.29862 0.0454 0.8121 0.0
H683 H 0.37576 0.0716 0.8065 0.0
H684 H 0.21566 0.91836 0.6852 0.0
H685 H 0.26629 0.00351 0.72148 0.0
H686 H 0.26165 0.93811 0.6853 0.0
H687 H 0.22026 0.98275 0.72045 0.0
H688 H 0.32486 0.09695 0.73032 0.0
H689 H 0.29911 0.05613 0.65387 0.0
H690 H 0.24838 0.8877 0.78256 0.0
H691 H 0.22333 0.94083 0.79303 0.0
H692 H 0.34821 0.02426 0.64866 0.0
H693 H 0.37692 0.05549 0.72845 0.0
H694 H 0.36844 0.06684 0.62933 0.0
H695 H 0.39666 0.09757 0.70772 0.0
H696 H 0.36622 0.95951 0.71864 0.0
H697 H 0.28804 0.9219 0.69997 0.0
H698 H 0.36959 0.92668 0.69331 0.0
H699 H 0.2928 0.88979 0.67477 0.0
H700 H 0.40085 0.97748 0.79559 0.0
H701 H 0.43865 0.03309 0.73259 0.0
H702 H 0.29822 0.98148 0.59793 0.0
H703 H 0.3617 0.97141 0.61007 0.0
Li704 Li 0.31003 0.31487 0.04669 0.0
Li705 Li 0.33285 0.29709 0.06601 0.0
Li706 Li 0.35289 0.34392 0.06233 0.0
Li707 Li 0.34409 0.31626 0.02118 0.0
C708 C 0.30783 0.32533 0.09951 0.0
N709 N 0.27612 0.33583 0.12888 0.0
C710 C 0.28408 0.30625 0.10663 0.0
C711 C 0.31549 0.34973 0.1074 0.0
C712 C 0.26832 0.31194 0.12147 0.0
C713 C 0.29917 0.35467 0.12221 0.0
C714 C 0.3006 0.26177 0.03419 0.0
C715 C 0.2986 0.22242 0.02716 0.0
N716 N 0.27621 0.21077 0.04013 0.0
C717 C 0.27749 0.24941 0.04727 0.0
C718 C 0.31118 0.2482 0.02386 0.0
C719 C 0.26547 0.22361 0.05013 0.0
C720 C 0.26676 0.29508 0.01641 0.0
N721 N 0.27776 0.31077 0.03797 0.0
C722 C 0.24509 0.32067 0.03866 0.0
C723 C 0.26751 0.32372 0.04903 0.0
C724 C 0.23327 0.30435 0.01653 0.0
C725 C 0.24451 0.29153 0.00545 0.0
H726 H 0.27568 0.28583 0.00702 0.0
H727 H 0.27699 0.33696 0.0653 0.0
C728 C 0.34997 0.2661 0.09 0.0
N729 N 0.33089 0.27089 0.08887 0.0
C730 C 0.34839 0.24713 0.10694 0.0
C731 C 0.30748 0.23824 0.12099 0.0
C732 C 0.30996 0.25747 0.10404 0.0
C733 C 0.32694 0.23292 0.12288 0.0
H734 H 0.36656 0.27718 0.07799 0.0
H735 H 0.29507 0.26161 0.1029 0.0
C736 C 0.32538 0.35458 0.01532 0.0
N737 N 0.29909 0.3749 0.99181 0.0
C738 C 0.31583 0.34776 0.98871 0.0
C739 C 0.32165 0.37181 0.02994 0.0
C740 C 0.30255 0.35821 0.9772 0.0
C741 C 0.30831 0.38188 0.01769 0.0
C742 C 0.38762 0.32476 0.03981 0.0
C743 C 0.40925 0.34803 0.03937 0.0
C744 C 0.38728 0.30466 0.02654 0.0
C745 C 0.43015 0.35082 0.02539 0.0
C746 C 0.40855 0.30822 0.01276 0.0
N747 N 0.42936 0.33103 0.01247 0.0
C748 C 0.39022 0.37729 0.0993 0.0
C749 C 0.38438 0.39564 0.05938 0.0
C750 C 0.41119 0.39983 0.10658 0.0
N751 N 0.37754 0.37558 0.07585 0.0
C752 C 0.40501 0.41853 0.06599 0.0
C753 C 0.41917 0.42078 0.08952 0.0
H754 H 0.38474 0.36088 0.11166 0.0
H755 H 0.37443 0.39365 0.04046 0.0
C756 C 0.33738 0.30112 0.96615 0.0
N757 N 0.35419 0.31764 0.98423 0.0
C758 C 0.33987 0.30648 0.93803 0.0
C759 C 0.37807 0.3446 0.94762 0.0
C760 C 0.3746 0.33875 0.97555 0.0
C761 C 0.35987 0.32904 0.92857 0.0
H762 H 0.3208 0.285 0.97375 0.0
H763 H 0.38708 0.35208 0.9904 0.0
O764 O 0.32371 0.32013 0.08535 0.0
O765 O 0.31285 0.28706 0.03161 0.0
O766 O 0.33777 0.34398 0.02727 0.0
O767 O 0.36689 0.32168 0.05319 0.0
H768 H 0.27774 0.2873 0.10047 0.0
H769 H 0.33382 0.36472 0.10214 0.0
H770 H 0.24984 0.29739 0.127 0.0
H771 H 0.30483 0.37348 0.12841 0.0
H772 H 0.30662 0.21168 0.01938 0.0
H773 H 0.26907 0.25966 0.05546 0.0
H774 H 0.32893 0.25747 0.01343 0.0
H775 H 0.24767 0.21381 0.06039 0.0
H776 H 0.23718 0.33106 0.04779 0.0
H777 H 0.2366 0.27936 0.98786 0.0
H778 H 0.36403 0.24401 0.10793 0.0
H779 H 0.29037 0.22757 0.13238 0.0
H780 H 0.31837 0.33432 0.97718 0.0
H781 H 0.32867 0.37708 0.05068 0.0
H782 H 0.29493 0.35299 0.95669 0.0
H783 H 0.30516 0.39512 0.02882 0.0
H784 H 0.40989 0.3638 0.04954 0.0
H785 H 0.37073 0.28654 0.02674 0.0
H786 H 0.44698 0.36874 0.02478 0.0
H787 H 0.40851 0.29284 0.00229 0.0
H788 H 0.42165 0.40049 0.12469 0.0
H789 H 0.41011 0.43415 0.05241 0.0
H790 H 0.32516 0.29406 0.92429 0.0
H791 H 0.39402 0.36196 0.94128 0.0
Li792 Li 0.03133 0.33019 0.40554 0.0
Li793 Li 0.9892 0.30803 0.39022 0.0
Li794 Li 0.01946 0.33325 0.35788 0.0
Li795 Li 0.00728 0.35209 0.39608 0.0
C796 C 0.03594 0.30034 0.36838 0.0
N797 N 0.07396 0.2926 0.35115 0.0
C798 C 0.0325 0.27633 0.36775 0.0
C799 C 0.05882 0.32043 0.36033 0.0
C800 C 0.05192 0.2728 0.35896 0.0
C801 C 0.07777 0.31612 0.35165 0.0
C802 C 0.98361 0.3132 0.44319 0.0
C803 C 0.94831 0.30566 0.47084 0.0
N804 N 0.94629 0.28398 0.47975 0.0
C805 C 0.98136 0.29097 0.45278 0.0
C806 C 0.96709 0.32072 0.45237 0.0
C807 C 0.96229 0.2764 0.47119 0.0
C808 C 0.07612 0.34969 0.43763 0.0
N809 N 0.05558 0.32886 0.42851 0.0
C810 C 0.06825 0.30307 0.4516 0.0
C811 C 0.05137 0.30587 0.43523 0.0
C812 C 0.08961 0.32416 0.46164 0.0
C813 C 0.09346 0.34776 0.45435 0.0
H814 H 0.07896 0.36777 0.43205 0.0
H815 H 0.03488 0.28961 0.42772 0.0
C816 C 0.96128 0.25893 0.37484 0.0
N817 N 0.95912 0.27599 0.39028 0.0
C818 C 0.94091 0.23542 0.37049 0.0
C819 C 0.91577 0.24725 0.39732 0.0
C820 C 0.93691 0.27055 0.40167 0.0
C821 C 0.91779 0.2294 0.3816 0.0
H822 H 0.97872 0.26377 0.36515 0.0
H823 H 0.93534 0.28443 0.41345 0.0
C824 C 0.05368 0.38378 0.37059 0.0
N825 N 0.07708 0.43003 0.34596 0.0
C826 C 0.04017 0.39121 0.35403 0.0
C827 C 0.07909 0.39985 0.3746 0.0
C828 C 0.05232 0.41468 0.3418 0.0
C829 C 0.09059 0.42315 0.36194 0.0
C830 C 0.96274 0.32054 0.35897 0.0
C831 C 0.95312 0.30498 0.33606 0.0
C832 C 0.94671 0.32388 0.37633 0.0
C833 C 0.92757 0.29287 0.33102 0.0
C834 C 0.92128 0.31155 0.3705 0.0
N835 N 0.91231 0.29638 0.34819 0.0
C836 C 0.0124 0.30926 0.30936 0.0
C837 C 0.04029 0.35226 0.30285 0.0
C838 C 0.01252 0.30477 0.28136 0.0
N839 N 0.02585 0.33268 0.31954 0.0
C840 C 0.04075 0.34863 0.27445 0.0
C841 C 0.02655 0.32462 0.26344 0.0
H842 H 1.00097 0.29406 0.32305 0.0
H843 H 0.05114 0.37068 0.3113 0.0
C844 C 0.01656 0.39339 0.42887 0.0
N845 N 0.00408 0.38003 0.40633 0.0
C846 C 0.0162 0.41504 0.43583 0.0
C847 C 0.98985 0.40853 0.39649 0.0
C848 C 0.99087 0.38715 0.39019 0.0
C849 C 0.00283 0.423 0.41943 0.0
H850 H 0.02723 0.38749 0.44109 0.0
H851 H 0.98151 0.3765 0.37206 0.0
O852 O 0.01704 0.30397 0.37727 0.0
O853 O 1.00216 0.32775 0.42525 0.0
O854 O 0.0421 0.36117 0.38342 0.0
O855 O 0.98767 0.33228 0.36451 0.0
H856 H 0.01508 0.26056 0.3742 0.0
H857 H 0.06203 0.33917 0.36068 0.0
H858 H 0.04949 0.25432 0.35841 0.0
H859 H 0.09552 0.3315 0.34533 0.0
H860 H 0.93531 0.31118 0.47805 0.0
H861 H 0.99406 0.28495 0.44588 0.0
H862 H 0.96874 0.33799 0.44524 0.0
H863 H 0.96019 0.25906 0.47865 0.0
H864 H 0.06463 0.2845 0.45608 0.0
H865 H 0.10946 0.36455 0.46181 0.0
H866 H 0.94308 0.22225 0.35787 0.0
H867 H 0.89812 0.2432 0.40613 0.0
H868 H 0.02057 0.37889 0.35038 0.0
H869 H 0.08981 0.39438 0.3874 0.0
H870 H 0.04209 0.42065 0.32891 0.0
H871 H 0.11026 0.43579 0.36486 0.0
H872 H 0.96519 0.30216 0.32238 0.0
H873 H 0.95372 0.33549 0.39441 0.0
H874 H 0.91986 0.28067 0.31346 0.0
H875 H 0.90866 0.31386 0.38386 0.0
H876 H 1.00104 0.28603 0.27372 0.0
H877 H 0.052 0.36437 0.26126 0.0
H878 H 0.02683 0.42575 0.45344 0.0
H879 H 0.97902 0.41366 0.38342 0.0
Li880 Li 0.69961 0.02917 0.73744 0.0
Li881 Li 0.67944 0.98654 0.72377 0.0
Li882 Li 0.68102 0.0158 0.69182 0.0
Li883 Li 0.65333 0.00432 0.73273 0.0
C884 C 0.73133 0.03291 0.69634 0.0
N885 N 0.7751 0.07029 0.67416 0.0
C886 C 0.75114 0.02885 0.69122 0.0
C887 C 0.73379 0.05602 0.69018 0.0
C888 C 0.77312 0.04797 0.68 0.0
C889 C 0.75606 0.07466 0.67897 0.0
C890 C 0.67757 0.98526 0.77821 0.0
C891 C 0.66026 0.9537 0.81332 0.0
N892 N 0.68255 0.9547 0.81574 0.0
C893 C 0.70036 0.98613 0.78115 0.0
C894 C 0.65737 0.96905 0.79448 0.0
C895 C 0.70248 0.97045 0.80018 0.0
C896 C 0.72019 0.07282 0.76855 0.0
N897 N 0.72536 0.05557 0.75834 0.0
C898 C 0.76574 0.07647 0.77909 0.0
C899 C 0.74764 0.05704 0.76317 0.0
C900 C 0.76082 0.0945 0.79017 0.0
C901 C 0.73771 0.09254 0.78442 0.0
H902 H 0.7023 0.07113 0.76448 0.0
H903 H 0.75127 0.04302 0.7549 0.0
C904 C 0.69387 0.95575 0.69971 0.0
N905 N 0.68048 0.95617 0.72162 0.0
C906 C 0.69197 0.93351 0.69095 0.0
C907 C 0.66317 0.91241 0.72808 0.0
C908 C 0.6658 0.93519 0.73631 0.0
C909 C 0.67588 0.91131 0.70466 0.0
H910 H 0.70484 0.97246 0.68786 0.0
H911 H 0.65483 0.93572 0.75324 0.0
C912 C 0.66379 0.04848 0.70646 0.0
N913 N 0.63666 0.06843 0.68423 0.0
C914 C 0.64362 0.03417 0.68914 0.0
C915 C 0.6702 0.07297 0.71237 0.0
C916 C 0.63012 0.04458 0.67814 0.0
C917 C 0.65625 0.08272 0.70094 0.0
C918 C 0.63505 0.95866 0.70062 0.0
C919 C 0.63266 0.9449 0.6769 0.0
C920 C 0.62093 0.94656 0.7239 0.0
C921 C 0.61635 0.91926 0.67696 0.0
C922 C 0.60472 0.92092 0.72308 0.0
N923 N 0.60283 0.9079 0.69985 0.0
C924 C 0.68205 0.00208 0.63905 0.0
C925 C 0.68343 0.04084 0.64015 0.0
C926 C 0.67915 1.00073 0.6106 0.0
N927 N 0.6831 0.02136 0.65327 0.0
C928 C 0.68088 0.04044 0.61152 0.0
C929 C 0.6779 0.01978 0.59641 0.0
H930 H 0.68253 0.98723 0.65008 0.0
H931 H 0.68492 0.05631 0.65187 0.0
C932 C 0.62236 0.01282 0.76892 0.0
N933 N 0.62269 1.0011 0.74544 0.0
C934 C 0.60071 0.01281 0.7769 0.0
C935 C 0.58009 0.9883 0.73665 0.0
C936 C 0.60209 0.98887 0.72943 0.0
C937 C 0.57924 1.00069 0.76046 0.0
H938 H 0.63914 0.02275 0.78103 0.0
H939 H 0.60289 0.98005 0.7106 0.0
O940 O 0.70983 0.0143 0.70756 0.0
O941 O 0.67509 1.00035 0.75962 0.0
O942 O 0.67711 0.03862 0.71783 0.0
O943 O 0.65147 0.98371 0.70134 0.0
H944 H 0.74957 0.0111 0.69597 0.0
H945 H 0.71878 0.05965 0.69398 0.0
H946 H 0.7886 0.04507 0.67597 0.0
H947 H 0.75822 0.09261 0.67411 0.0
H948 H 0.64477 0.94098 0.826 0.0
H949 H 0.71614 0.99859 0.76864 0.0
H950 H 0.63964 0.96829 0.7925 0.0
H951 H 0.71996 0.97079 0.80258 0.0
H952 H 0.78315 0.07704 0.78317 0.0
H953 H 0.73316 0.10615 0.79203 0.0
H954 H 0.70182 0.93351 0.67257 0.0
H955 H 0.65064 0.89572 0.73931 0.0
H956 H 0.63851 0.01528 0.68406 0.0
H957 H 0.68581 0.08435 0.72564 0.0
H958 H 0.61447 0.0337 0.66473 0.0
H959 H 0.661 0.10164 0.70538 0.0
H960 H 0.64325 0.95382 0.65861 0.0
H961 H 0.62281 0.95677 0.7426 0.0
H962 H 0.61444 0.90839 0.65879 0.0
H963 H 0.59382 0.91134 0.74102 0.0
H964 H 0.67678 0.98431 0.60015 0.0
H965 H 0.68073 0.0559 0.60145 0.0
H966 H 0.60105 0.02288 0.79522 0.0
H967 H 0.56396 0.97841 0.72353 0.0
Li968 Li 0.67181 0.70016 0.07319 0.0
Li969 Li 0.69354 0.68065 0.05397 0.0
Li970 Li 0.66506 0.68637 0.02577 0.0
Li971 Li 0.64905 0.65404 0.06323 0.0
C972 C 0.71055 0.73648 0.04856 0.0
N973 N 0.73991 0.78617 0.06161 0.0
C974 C 0.73327 0.74484 0.06199 0.0
C975 C 0.70286 0.75342 0.04159 0.0
C976 C 0.74784 0.77004 0.0684 0.0
C977 C 0.71792 0.77844 0.04846 0.0
C978 C 0.68996 0.66606 0.10594 0.0
C979 C 0.69518 0.63388 0.12711 0.0
N980 N 0.7175 0.65149 0.13735 0.0
C981 C 0.71291 0.68385 0.11671 0.0
C982 C 0.68096 0.64088 0.11119 0.0
C983 C 0.72657 0.6761 0.13252 0.0
C984 C 0.65482 0.73119 0.09587 0.0
N985 N 0.6734 0.72566 0.097 0.0
C986 C 0.69765 0.76099 0.12563 0.0
C987 C 0.69414 0.73953 0.11236 0.0
C988 C 0.67929 0.76779 0.12371 0.0
C989 C 0.65731 0.75221 0.10935 0.0
H990 H 0.63845 0.71983 0.08365 0.0
H991 H 0.70856 0.73468 0.11318 0.0
C992 C 0.73709 0.69793 0.02604 0.0
N993 N 0.72509 0.68237 0.0474 0.0
C994 C 0.75909 0.70041 0.01574 0.0
C995 C 0.7563 0.67044 0.04921 0.0
C996 C 0.7341 0.66848 0.05894 0.0
C997 C 0.76913 0.68669 0.02732 0.0
H998 H 0.72911 0.70792 0.01625 0.0
H999 H 0.7238 0.65534 0.07501 0.0
C1000 C 0.62116 0.67906 0.03761 0.0
N1001 N 0.58536 0.67771 0.00279 0.0
C1002 C 0.6002 0.65637 0.03097 0.0
C1003 C 0.62388 0.70107 0.02665 0.0
C1004 C 0.5823 0.65608 0.01332 0.0
C1005 C 0.6056 0.7 0.00904 0.0
C1006 C 0.67861 0.6446 0.01729 0.0
C1007 C 0.68978 0.65264 0.99151 0.0
C1008 C 0.68029 0.62574 0.03101 0.0
C1009 C 0.70267 0.64179 0.97999 0.0
C1010 C 0.69332 0.61534 0.01877 0.0
N1011 N 0.70418 0.62353 0.99375 0.0
C1012 C 0.68223 0.71364 0.97802 0.0
C1013 C 0.64343 0.67695 0.97165 0.0
C1014 C 0.68482 0.71791 0.94982 0.0
N1015 N 0.66198 0.6933 0.98835 0.0
C1016 C 0.64512 0.68069 0.94313 0.0
C1017 C 0.66636 0.70114 0.9318 0.0
H1018 H 0.69721 0.7258 0.99149 0.0
H1019 H 0.62794 0.66044 0.98028 0.0
C1020 C 0.60825 0.62175 0.09615 0.0
N1021 N 0.6219 0.62264 0.0739 0.0
C1022 C 0.58681 0.59961 0.10326 0.0
C1023 C 0.59419 0.57958 0.06474 0.0
C1024 C 0.61538 0.60215 0.05826 0.0
C1025 C 0.57934 0.57811 0.08734 0.0
H1026 H 0.61369 0.63846 0.10794 0.0
H1027 H 0.62631 0.60345 0.04039 0.0
O1028 O 0.69577 0.71181 0.04251 0.0
O1029 O 0.67613 0.67327 0.09077 0.0
O1030 O 0.63903 0.67972 0.05459 0.0
O1031 O 0.66659 0.65555 0.0293 0.0
H1032 H 0.73942 0.73199 0.06779 0.0
H1033 H 0.68533 0.74725 0.03122 0.0
H1034 H 0.76539 0.77675 0.07894 0.0
H1035 H 0.71211 0.79172 0.04339 0.0
H1036 H 0.68847 0.61446 0.13132 0.0
H1037 H 0.72018 0.70339 0.11273 0.0
H1038 H 0.66319 0.62689 0.10308 0.0
H1039 H 0.74441 0.68964 0.14091 0.0
H1040 H 0.7148 0.77252 0.13667 0.0
H1041 H 0.6428 0.75694 0.10737 0.0
H1042 H 0.76775 0.71252 0.99827 0.0
H1043 H 0.76326 0.65933 0.05862 0.0
H1044 H 0.5978 0.63915 0.03921 0.0
H1045 H 0.64004 0.71877 0.0315 0.0
H1046 H 0.56601 0.63865 0.00794 0.0
H1047 H 0.60752 0.71687 0.0003 0.0
H1048 H 0.68877 0.66732 0.98068 0.0
H1049 H 0.67196 0.61948 0.0511 0.0
H1050 H 0.71156 0.64794 0.96015 0.0
H1051 H 0.69493 0.60085 0.02925 0.0
H1052 H 0.70188 0.73352 0.94226 0.0
H1053 H 0.63033 0.66731 0.93012 0.0
H1054 H 0.57582 0.5996 0.12055 0.0
H1055 H 0.58945 0.5635 0.05205 0.0
H1056 H 0.34356 0.11864 0.17213 0.0
H1057 H 0.30183 0.11499 0.24528 0.0
H1058 H 0.29864 0.15083 0.22868 0.0
H1059 H 0.37818 0.18569 0.16608 0.0
H1060 H 0.37658 0.18558 0.12905 0.0
H1061 H 0.37611 0.15992 0.14685 0.0
H1062 H 0.33476 0.12935 0.12264 0.0
H1063 H 0.33514 0.15491 0.10474 0.0
H1064 H 0.30859 0.13426 0.12528 0.0
H1065 H 0.30035 0.18719 0.2047 0.0
H1066 H 0.30522 0.22078 0.17395 0.0
H1067 H 0.34427 0.20005 0.115 0.0
C1068 C 0.3339 0.12553 0.1847 0.0
C1069 C 0.3229 0.11402 0.21 0.0
C1070 C 0.31016 0.12336 0.22572 0.0
C1071 C 0.30837 0.14378 0.21654 0.0
C1072 C 0.31931 0.15464 0.1915 0.0
C1073 C 0.33172 0.1458 0.17569 0.0
C1074 C 0.34119 0.16051 0.14918 0.0
C1075 C 0.36971 0.17371 0.14772 0.0
C1076 C 0.3292 0.14376 0.12398 0.0
C1077 C 0.33221 0.179 0.15264 0.0
C1078 C 0.31976 0.17533 0.17728 0.0
C1079 C 0.30988 0.19012 0.18523 0.0
C1080 C 0.31259 0.20907 0.16746 0.0
C1081 C 0.32489 0.21303 0.14178 0.0
C1082 C 0.33493 0.19776 0.13449 0.0
H1083 H 0.223 0.35363 0.51864 0.0
H1084 H 0.18382 0.28765 0.56924 0.0
H1085 H 0.14369 0.28143 0.55198 0.0
H1086 H 0.17873 0.37533 0.52558 0.0
H1087 H 0.1819 0.38559 0.49036 0.0
H1088 H 0.2076 0.38557 0.50753 0.0
H1089 H 0.20979 0.35808 0.46882 0.0
H1090 H 0.18416 0.35807 0.45151 0.0
H1091 H 0.18239 0.32907 0.46034 0.0
H1092 H 0.108 0.2824 0.52959 0.0
H1093 H 0.0788 0.28891 0.5015 0.0
H1094 H 0.14094 0.353 0.46309 0.0
C1095 C 0.20592 0.33802 0.52622 0.0
C1096 C 0.20643 0.32112 0.54532 0.0
C1097 C 0.18378 0.3007 0.55449 0.0
C1098 C 0.16093 0.2971 0.54492 0.0
C1099 C 0.16104 0.31399 0.52601 0.0
C1100 C 0.1829 0.33396 0.51657 0.0
C1101 C 0.17774 0.34869 0.49531 0.0
C1102 C 0.18705 0.37538 0.5053 0.0
C1103 C 0.1892 0.34845 0.46734 0.0
C1104 C 0.14957 0.33387 0.49429 0.0
C1105 C 0.14037 0.31407 0.51235 0.0
C1106 C 0.11499 0.29772 0.51521 0.0
C1107 C 0.09854 0.30149 0.49894 0.0
C1108 C 0.10745 0.3213 0.47972 0.0
C1109 C 0.1334 0.3378 0.47767 0.0
H1110 H 0.81207 0.12147 0.78495 0.0
H1111 H 0.75139 0.11371 0.83636 0.0
H1112 H 0.78121 0.14839 0.86525 0.0
H1113 H 0.85627 0.13584 0.84095 0.0
H1114 H 0.88255 0.15783 0.82094 0.0
H1115 H 0.85647 0.13221 0.80416 0.0
H1116 H 0.85185 0.16301 0.77221 0.0
H1117 H 0.87785 0.18872 0.78893 0.0
H1118 H 0.84835 0.18764 0.78714 0.0
H1119 H 0.8171 0.18451 0.8879 0.0
H1120 H 0.85723 0.2191 0.90389 0.0
H1121 H 0.89525 0.20313 0.83907 0.0
C1122 C 0.80505 0.12685 0.80246 0.0
C1123 C 0.77924 0.1149 0.80812 0.0
C1124 C 0.77094 0.1228 0.83114 0.0
C1125 C 0.78777 0.1424 0.84785 0.0
C1126 C 0.81296 0.1539 0.84151 0.0
C1127 C 0.82165 0.14637 0.8195 0.0
C1128 C 0.84974 0.16206 0.81724 0.0
C1129 C 0.86197 0.14602 0.82105 0.0
C1130 C 0.85739 0.17619 0.78975 0.0
C1131 C 0.85539 0.17966 0.8413 0.0
C1132 C 0.83385 0.17461 0.85495 0.0
C1133 C 0.83411 0.18861 0.87744 0.0
C1134 C 0.85698 0.20833 0.88626 0.0
C1135 C 0.87937 0.21389 0.8727 0.0
C1136 C 0.87848 0.1992 0.84999 0.0
H1137 H 0.65051 0.77699 0.15953 0.0
H1138 H 0.71862 0.81317 0.11195 0.0
H1139 H 0.72633 0.85416 0.12808 0.0
H1140 H 0.63199 0.82275 0.14944 0.0
H1141 H 0.62064 0.82069 0.18403 0.0
H1142 H 0.62014 0.79415 0.16847 0.0
H1143 H 0.6457 0.79162 0.2092 0.0
H1144 H 0.64613 0.81805 0.22496 0.0
H1145 H 0.6749 0.81857 0.21818 0.0
H1146 H 0.72556 0.89106 0.14742 0.0
H1147 H 0.71877 0.92164 0.17205 0.0
H1148 H 0.65304 0.86158 0.21081 0.0
C1149 C 0.66703 0.7936 0.15259 0.0
C1150 C 0.68402 0.79205 0.13452 0.0
C1151 C 0.70553 0.81406 0.12596 0.0
C1152 C 0.70997 0.83737 0.13489 0.0
C1153 C 0.69287 0.83834 0.15265 0.0
C1154 C 0.672 0.81706 0.16174 0.0
C1155 C 0.65708 0.82335 0.18156 0.0
C1156 C 0.63091 0.81472 0.17018 0.0
C1157 C 0.65589 0.81224 0.21017 0.0
C1158 C 0.67272 0.85147 0.18198 0.0
C1159 C 0.69312 0.85968 0.16493 0.0
C1160 C 0.70989 0.88485 0.16122 0.0
C1161 C 0.70594 0.90212 0.17558 0.0
C1162 C 0.68558 0.89428 0.19396 0.0
C1163 C 0.66872 0.86846 0.19692 0.0
H1164 H 0.89629 0.6938 0.49478 0.0
H1165 H 0.85793 0.63381 0.43602 0.0
H1166 H 0.8177 0.62771 0.45229 0.0
H1167 H 0.85183 0.66614 0.54952 0.0
H1168 H 0.85455 0.69502 0.56081 0.0
H1169 H 0.88052 0.69493 0.54447 0.0
H1170 H 0.88245 0.72636 0.50815 0.0
H1171 H 0.85645 0.72652 0.52436 0.0
H1172 H 0.85509 0.71905 0.48834 0.0
H1173 H 0.78166 0.62797 0.47456 0.0
H1174 H 0.75189 0.6342 0.50201 0.0
H1175 H 0.81313 0.69381 0.54686 0.0
C1176 C 0.87943 0.67949 0.48522 0.0
C1177 C 0.88032 0.66416 0.46423 0.0
C1178 C 0.85777 0.6455 0.45245 0.0
C1179 C 0.83481 0.642 0.46141 0.0
C1180 C 0.83459 0.65731 0.48217 0.0
C1181 C 0.85626 0.67568 0.49399 0.0
C1182 C 0.85068 0.68935 0.51621 0.0
C1183 C 0.85994 0.68616 0.54442 0.0
C1184 C 0.86183 0.71696 0.50881 0.0
C1185 C 0.82251 0.67576 0.51501 0.0
C1186 C 0.81367 0.65739 0.49518 0.0
C1187 C 0.78835 0.64223 0.49024 0.0
C1188 C 0.77156 0.64582 0.5061 0.0
C1189 C 0.78008 0.66437 0.52679 0.0
C1190 C 0.80598 0.67961 0.53109 0.0
H1191 H 0.20424 0.86051 0.78469 0.0
H1192 H 0.21391 0.92177 0.83636 0.0
H1193 H 0.1783 0.8927 0.86461 0.0
H1194 H 0.13791 0.82597 0.78611 0.0
H1195 H 0.13581 0.79601 0.78802 0.0
H1196 H 0.16212 0.82157 0.77151 0.0
H1197 H 0.19197 0.81579 0.80387 0.0
H1198 H 0.16576 0.79014 0.82042 0.0
H1199 H 0.18809 0.81607 0.8406 0.0
H1200 H 0.14111 0.85752 0.88664 0.0
H1201 H 0.10574 0.81785 0.90254 0.0
H1202 H 0.12088 0.77871 0.83832 0.0
C1203 C 0.19909 0.86782 0.80212 0.0
C1204 C 0.21183 0.89361 0.80797 0.0
C1205 C 0.20419 0.90228 0.8309 0.0
C1206 C 0.18406 0.88586 0.84727 0.0
C1207 C 0.1718 0.8607 0.84073 0.0
C1208 C 0.1791 0.85163 0.81888 0.0
C1209 C 0.16274 0.82364 0.81653 0.0
C1210 C 0.14882 0.81638 0.7889 0.0
C1211 C 0.17806 0.81065 0.8206 0.0
C1212 C 0.14506 0.81848 0.84039 0.0
C1213 C 0.15059 0.84018 0.85395 0.0
C1214 C 0.13663 0.84038 0.87625 0.0
C1215 C 0.11648 0.81778 0.88502 0.0
C1216 C 0.11052 0.79522 0.87163 0.0
C1217 C 0.12512 0.79564 0.84907 0.0
H1218 H 0.46151 0.00867 0.27087 0.0
H1219 H 0.44223 0.99913 0.18415 0.0
H1220 H 0.482 1.00078 0.17349 0.0
H1221 H 0.52705 0.05049 0.26284 0.0
H1222 H 0.53538 0.03703 0.29081 0.0
H1223 H 0.50594 0.03609 0.29123 0.0
H1224 H 0.48305 0.98819 0.29656 0.0
H1225 H 0.51241 0.98899 0.29626 0.0
H1226 H 0.4886 0.96986 0.27187 0.0
H1227 H 0.52385 0.0023 0.17284 0.0
H1228 H 0.56372 0.00376 0.18223 0.0
H1229 H 0.55378 0.01049 0.26959 0.0
C1230 C 0.46547 0.00673 0.24961 0.0
C1231 C 0.44862 0.00365 0.22836 0.0
C1232 C 0.45491 0.00174 0.20078 0.0
C1233 C 0.47741 0.00254 0.19454 0.0
C1234 C 0.49342 0.00531 0.2161 0.0
C1235 C 0.48768 0.00739 0.24307 0.0
C1236 C 0.50768 0.00975 0.26263 0.0
C1237 C 0.51972 0.03483 0.27776 0.0
C1238 C 0.49731 0.98789 0.28302 0.0
C1239 C 0.52558 0.0085 0.24251 0.0
C1240 C 0.51716 0.00604 0.21575 0.0
C1241 C 0.5306 0.00425 0.19374 0.0
C1242 C 0.55316 0.00496 0.19929 0.0
C1243 C 0.56206 0.0074 0.22663 0.0
C1244 C 0.5479 0.00916 0.24839 0.0
H1245 H 0.54993 0.54372 0.61159 0.0
H1246 H 0.55967 0.56616 0.52582 0.0
H1247 H 0.52097 0.52748 0.51408 0.0
H1248 H 0.52516 0.47859 0.60012 0.0
H1249 H 0.50336 0.46929 0.6282 0.0
H1250 H 0.53204 0.49851 0.62967 0.0
H1251 H 0.50745 0.52157 0.63736 0.0
H1252 H 0.47871 0.49242 0.63603 0.0
H1253 H 0.48365 0.5173 0.61313 0.0
H1254 H 0.48055 0.48627 0.51196 0.0
H1255 H 0.44208 0.4461 0.51971 0.0
H1256 H 0.45862 0.45186 0.60707 0.0
C1257 C 0.54387 0.54067 0.59035 0.0
C1258 C 0.55791 0.55806 0.56964 0.0
C1259 C 0.54945 0.55302 0.54202 0.0
C1260 C 0.5274 0.53115 0.53516 0.0
C1261 C 0.51401 0.51448 0.55614 0.0
C1262 C 0.52195 0.51902 0.58317 0.0
C1263 C 0.50413 0.49829 0.60192 0.0
C1264 C 0.51694 0.48541 0.61579 0.0
C1265 C 0.49281 0.50798 0.62337 0.0
C1266 C 0.48488 0.48137 0.58124 0.0
C1267 C 0.49087 0.49096 0.55493 0.0
C1268 C 0.47568 0.4786 0.5325 0.0
C1269 C 0.45381 0.45586 0.53712 0.0
C1270 C 0.44733 0.4457 0.56397 0.0
C1271 C 0.46319 0.4588 0.58621 0.0
H1272 H 0.987 0.53956 0.90709 0.0
H1273 H 0.06082 0.58615 0.94097 0.0
H1274 H 0.06822 0.55076 0.93961 0.0
H1275 H 0.97305 0.48497 0.94365 0.0
H1276 H 0.95685 0.46389 0.91576 0.0
H1277 H 0.95763 0.49319 0.91777 0.0
H1278 H 0.97619 0.50437 0.86865 0.0
H1279 H 0.97534 0.47502 0.86642 0.0
H1280 H 0.00414 0.50356 0.86085 0.0
H1281 H 0.06676 0.51011 0.93777 0.0
H1282 H 0.05707 0.46676 0.93439 0.0
H1283 H 0.98497 0.4463 0.89925 0.0
C1284 C 0.00487 0.54241 0.91377 0.0
C1285 C 0.02327 0.56562 0.92432 0.0
C1286 C 0.04628 0.56847 0.93322 0.0
C1287 C 0.05074 0.54852 0.93236 0.0
C1288 C 0.0321 0.52582 0.92234 0.0
C1289 C 0.00968 0.52263 0.913 0.0
C1290 C 0.99255 0.49598 0.90405 0.0
C1291 C 0.96861 0.48379 0.92135 0.0
C1292 C 0.98672 0.49466 0.87315 0.0
C1293 C 0.00873 0.48467 0.91027 0.0
C1294 C 0.03148 0.50228 0.92071 0.0
C1295 C 0.04919 0.49622 0.92914 0.0
C1296 C 0.04353 0.47147 0.9269 0.0
C1297 C 0.02037 0.45294 0.91613 0.0
C1298 C 0.00284 0.45985 0.9076 0.0
H1299 H 0.00272 0.5484 0.38408 0.0
H1300 H 0.00329 0.56151 0.47191 0.0
H1301 H 0.00288 0.52222 0.48109 0.0
H1302 H 0.96281 0.48263 0.38576 0.0
H1303 H 0.97942 0.47667 0.35923 0.0
H1304 H 0.97944 0.50564 0.35962 0.0
H1305 H 0.02761 0.52986 0.36014 0.0
H1306 H 0.02774 0.50096 0.35962 0.0
H1307 H 0.0439 0.52326 0.38652 0.0
H1308 H 0.00221 0.48113 0.48054 0.0
H1309 H 1.00177 0.442 0.47031 0.0
H1310 H 0.00397 0.45737 0.38287 0.0
C1311 C 0.00305 0.54324 0.40528 0.0
C1312 C 0.00302 0.55815 0.42726 0.0
C1313 C 0.00296 0.5503 0.45468 0.0
C1314 C 0.00288 0.52807 0.46012 0.0
C1315 C 0.00295 0.5139 0.43794 0.0
C1316 C 0.00312 0.52123 0.41107 0.0
C1317 C 0.00332 0.50279 0.39089 0.0
C1318 C 0.97985 0.49125 0.37282 0.0
C1319 C 0.02706 0.51494 0.37326 0.0
C1320 C 0.0032 0.48388 0.41058 0.0
C1321 C 0.00293 0.49055 0.43763 0.0
C1322 C 0.00256 0.4758 0.45943 0.0
C1323 C 0.00247 0.45366 0.45339 0.0
C1324 C 0.00285 0.44648 0.42577 0.0
C1325 C 0.00329 0.46199 0.4042 0.0
H1326 H 0.5478 0.00593 0.72495 0.0
H1327 H 0.55881 0.99764 0.81166 0.0
H1328 H 0.52065 0.99901 0.82273 0.0
H1329 H 0.52401 0.04751 0.73283 0.0
H1330 H 0.50175 0.03368 0.70534 0.0
H1331 H 0.53021 0.03269 0.70448 0.0
H1332 H 0.50507 0.98472 0.70003 0.0
H1333 H 0.47654 0.98558 0.70074 0.0
H1334 H 0.48157 0.96677 0.72525 0.0
H1335 H 0.48044 1.00054 0.82397 0.0
H1336 H 0.44202 0.00213 0.81525 0.0
H1337 H 0.45722 0.00776 0.72757 0.0
C1338 C 0.54214 0.00415 0.74628 0.0
C1339 C 0.55635 0.0016 0.76742 0.0
C1340 C 0.54843 0.99988 0.7951 0.0
C1341 C 0.5267 1.00051 0.80158 0.0
C1342 C 0.51309 0.00289 0.78017 0.0
C1343 C 0.52054 0.00467 0.75308 0.0
C1344 C 0.50258 0.00678 0.73378 0.0
C1345 C 0.51541 0.03165 0.7182 0.0
C1346 C 0.49074 0.98464 0.71378 0.0
C1347 C 0.48377 0.00584 0.7542 0.0
C1348 C 0.49011 0.00365 0.78087 0.0
C1349 C 0.47531 0.00224 0.80315 0.0
C1350 C 0.45345 0.00304 0.79798 0.0
C1351 C 0.44658 0.00521 0.77074 0.0
C1352 C 0.46208 0.0066 0.74869 0.0
H1353 H 0.45363 0.45274 0.05218 0.0
H1354 H 0.43843 0.44235 0.13987 0.0
H1355 H 0.47809 0.48088 0.14906 0.0
H1356 H 0.51906 0.47727 0.05583 0.0
H1357 H 0.52608 0.49941 0.0285 0.0
H1358 H 0.4967 0.47086 0.02888 0.0
H1359 H 0.47342 0.4957 0.02702 0.0
H1360 H 0.50273 0.52432 0.02641 0.0
H1361 H 0.48007 0.51928 0.05252 0.0
H1362 H 0.51989 0.52069 0.1485 0.0
H1363 H 0.55952 0.55883 0.13825 0.0
H1364 H 0.54566 0.54401 0.05079 0.0
C1365 C 0.45835 0.45865 0.07335 0.0
C1366 C 0.44274 0.44438 0.09529 0.0
C1367 C 0.45012 0.45269 0.12268 0.0
C1368 C 0.47258 0.47465 0.12811 0.0
C1369 C 0.48745 0.48818 0.10595 0.0
C1370 C 0.48054 0.48055 0.07912 0.0
C1371 C 0.49964 0.4985 0.05892 0.0
C1372 C 0.51104 0.48574 0.04205 0.0
C1373 C 0.48828 0.51014 0.04012 0.0
C1374 C 0.51844 0.51748 0.07857 0.0
C1375 C 0.51116 0.51118 0.10561 0.0
C1376 C 0.52567 0.52586 0.12738 0.0
C1377 C 0.54812 0.54761 0.12132 0.0
C1378 C 0.55584 0.55461 0.09369 0.0
C1379 C 0.54065 0.53916 0.07215 0.0
H1380 H 0.11116 0.81776 0.37173 0.0
H1381 H 0.13407 0.76226 0.37097 0.0
H1382 H 0.17282 0.79176 0.34706 0.0
H1383 H 0.13351 0.84204 0.30492 0.0
H1384 H 0.14373 0.87381 0.31414 0.0
H1385 H 0.11832 0.8488 0.33241 0.0
H1386 H 0.14143 0.86593 0.37865 0.0
H1387 H 0.1668 0.89114 0.36055 0.0
H1388 H 0.17258 0.87125 0.3826 0.0
H1389 H 0.20827 0.82675 0.32121 0.0
H1390 H 0.23927 0.86579 0.29881 0.0
H1391 H 0.19287 0.89812 0.31585 0.0
C1392 C 0.12441 0.81187 0.36671 0.0
C1393 C 0.11963 0.78773 0.3734 0.0
C1394 C 0.1375 0.78079 0.36653 0.0
C1395 C 0.15947 0.79733 0.3527 0.0
C1396 C 0.16336 0.8208 0.34594 0.0
C1397 C 0.14645 0.82816 0.35297 0.0
C1398 C 0.15501 0.85436 0.34322 0.0
C1399 C 0.13654 0.85476 0.32244 0.0
C1400 C 0.15921 0.87169 0.36772 0.0
C1401 C 0.17931 0.86055 0.32948 0.0
C1402 C 0.18375 0.84092 0.33114 0.0
C1403 C 0.20499 0.84225 0.3198 0.0
C1404 C 0.22238 0.86441 0.30688 0.0
C1405 C 0.21846 0.88497 0.30547 0.0
C1406 C 0.19646 0.88279 0.31673 0.0
H1407 H 0.34153 0.21864 0.65896 0.0
H1408 H 0.28296 0.18732 0.59782 0.0
H1409 H 0.27431 0.14504 0.61 0.0
H1410 H 0.36407 0.17555 0.64598 0.0
H1411 H 0.37144 0.17419 0.68158 0.0
H1412 H 0.37268 0.20182 0.66824 0.0
H1413 H 0.34214 0.19899 0.70627 0.0
H1414 H 0.3406 0.17119 0.71954 0.0
H1415 H 0.3125 0.17094 0.70972 0.0
H1416 H 0.2703 0.10647 0.63093 0.0
H1417 H 0.27445 0.07382 0.65456 0.0
H1418 H 0.33861 0.13023 0.69916 0.0
C1419 C 0.32701 0.2028 0.6481 0.0
C1420 C 0.3128 0.20599 0.62751 0.0
C1421 C 0.29404 0.18507 0.61353 0.0
C1422 C 0.28894 0.16107 0.62044 0.0
C1423 C 0.30307 0.15846 0.64106 0.0
C1424 C 0.32203 0.17874 0.65435 0.0
C1425 C 0.33498 0.17077 0.67502 0.0
C1426 C 0.36242 0.1812 0.66723 0.0
C1427 C 0.33239 0.17843 0.70438 0.0
C1428 C 0.32016 0.14281 0.67147 0.0
C1429 C 0.30167 0.13616 0.65204 0.0
C1430 C 0.28503 0.11145 0.64578 0.0
C1431 C 0.28771 0.09302 0.65924 0.0
C1432 C 0.30724 0.09927 0.67838 0.0
C1433 C 0.32344 0.12462 0.68477 0.0
H1434 H 0.21974 0.33985 0.00725 0.0
H1435 H 0.19344 0.26104 0.99814 0.0
H1436 H 0.15574 0.25549 0.97493 0.0
H1437 H 0.15948 0.33286 0.02222 0.0
H1438 H 0.16572 0.36053 0.00376 0.0
H1439 H 0.1909 0.35836 0.01923 0.0
H1440 H 0.21314 0.36781 0.972 0.0
H1441 H 0.18789 0.36974 0.95631 0.0
H1442 H 0.19708 0.34854 0.94279 0.0
H1443 H 0.12094 0.25835 0.95243 0.0
H1444 H 0.08986 0.26889 0.93563 0.0
H1445 H 0.13826 0.34565 0.95981 0.0
C1446 C 0.20594 0.32136 0.00069 0.0
C1447 C 0.20975 0.30092 0.00435 0.0
C1448 C 0.19124 0.2771 0.99514 0.0
C1449 C 0.16969 0.27372 0.982 0.0
C1450 C 0.16675 0.2943 0.97829 0.0
C1451 C 0.18421 0.31761 0.9876 0.0
C1452 C 0.17621 0.33651 0.9815 0.0
C1453 C 0.17287 0.34772 0.00827 0.0
C1454 C 0.19468 0.35685 0.96199 0.0
C1455 C 0.15149 0.32013 0.96743 0.0
C1456 C 0.1465 0.29589 0.96558 0.0
C1457 C 0.12467 0.27729 0.95368 0.0
C1458 C 0.10722 0.28351 0.94394 0.0
C1459 C 0.11161 0.30811 0.94626 0.0
C1460 C 0.13428 0.32666 0.95783 0.0
H1461 H 0.87317 0.21829 0.35811 0.0
H1462 H 0.91431 0.18486 0.39155 0.0
H1463 H 0.88073 0.1434 0.37728 0.0
H1464 H 0.81052 0.16722 0.37579 0.0
H1465 H 0.79694 0.17023 0.34429 0.0
H1466 H 0.82324 0.19704 0.35914 0.0
H1467 H 0.84718 0.2047 0.31325 0.0
H1468 H 0.82111 0.17772 0.29837 0.0
H1469 H 0.85131 0.18029 0.2988 0.0
H1470 H 0.84466 0.10639 0.35706 0.0
H1471 H 0.80654 0.07491 0.33404 0.0
H1472 H 0.78795 0.13163 0.31321 0.0
C1473 C 0.87472 0.2021 0.36296 0.0
C1474 C 0.89613 0.20459 0.37611 0.0
C1475 C 0.89795 0.18319 0.38156 0.0
C1476 C 0.87902 0.15964 0.37352 0.0
C1477 C 0.85845 0.15782 0.35994 0.0
C1478 C 0.85601 0.17838 0.35482 0.0
C1479 C 0.8324 0.1712 0.33878 0.0
C1480 C 0.81473 0.17675 0.35551 0.0
C1481 C 0.83837 0.18425 0.31063 0.0
C1482 C 0.82207 0.14346 0.33561 0.0
C1483 C 0.83746 0.13624 0.34801 0.0
C1484 C 0.83229 0.11173 0.34754 0.0
C1485 C 0.81055 0.09398 0.33445 0.0
C1486 C 0.79411 0.10072 0.32204 0.0
C1487 C 0.80018 0.12591 0.32239 0.0
H1488 H 0.70925 0.81801 0.62783 0.0
H1489 H 0.63032 0.76424 0.6266 0.0
H1490 H 0.62171 0.79451 0.64976 0.0
H1491 H 0.7105 0.84206 0.69429 0.0
H1492 H 0.733 0.8737 0.68568 0.0
H1493 H 0.73292 0.84845 0.66742 0.0
H1494 H 0.72867 0.86656 0.62102 0.0
H1495 H 0.72903 0.89203 0.63911 0.0
H1496 H 0.70363 0.87296 0.61636 0.0
H1497 H 0.62196 0.82991 0.67554 0.0
H1498 H 0.63078 0.86895 0.69851 0.0
H1499 H 0.70959 0.89926 0.68357 0.0
C1500 C 0.69013 0.81268 0.6322 0.0
C1501 C 0.67044 0.78879 0.62521 0.0
C1502 C 0.64567 0.78258 0.63125 0.0
C1503 C 0.64061 0.79957 0.64466 0.0
C1504 C 0.66051 0.82273 0.65181 0.0
C1505 C 0.68475 0.8294 0.64552 0.0
C1506 C 0.7028 0.85533 0.65576 0.0
C1507 C 0.72086 0.85484 0.67705 0.0
C1508 C 0.71686 0.87275 0.63162 0.0
C1509 C 0.68495 0.86215 0.66899 0.0
C1510 C 0.66065 0.84307 0.6666 0.0
C1511 C 0.64092 0.84498 0.67749 0.0
C1512 C 0.64613 0.86714 0.69076 0.0
C1513 C 0.67088 0.88713 0.69297 0.0
C1514 C 0.69048 0.88439 0.68208 0.0
H1515 H 0.78101 0.64988 0.01807 0.0
H1516 H 0.8103 0.72935 0.01034 0.0
H1517 H 0.84727 0.73362 0.98673 0.0
H1518 H 0.84102 0.65446 0.03182 0.0
H1519 H 0.83345 0.62664 0.01286 0.0
H1520 H 0.80917 0.62976 0.02929 0.0
H1521 H 0.78618 0.62136 0.98263 0.0
H1522 H 0.81056 0.61854 0.96597 0.0
H1523 H 0.80215 0.64062 0.95338 0.0
H1524 H 0.88027 0.72941 0.96254 0.0
H1525 H 0.90969 0.71764 0.94354 0.0
H1526 H 0.86026 0.64111 0.9679 0.0
C1527 C 0.79537 0.66823 0.01181 0.0
C1528 C 0.79252 0.68924 0.01579 0.0
C1529 C 0.81174 0.71288 0.00704 0.0
C1530 C 0.83289 0.71554 0.99367 0.0
C1531 C 0.83479 0.69443 0.9894 0.0
C1532 C 0.8168 0.67128 0.99855 0.0
C1533 C 0.82377 0.65173 0.99163 0.0
C1534 C 0.82705 0.63996 0.01797 0.0
C1535 C 0.80451 0.63189 0.97225 0.0
C1536 C 0.84841 0.66755 0.9771 0.0
C1537 C 0.85425 0.69208 0.97587 0.0
C1538 C 0.87593 0.71026 0.96337 0.0
C1539 C 0.89241 0.70332 0.95236 0.0
C1540 C 0.88724 0.67842 0.954 0.0
C1541 C 0.86476 0.66029 0.96634 0.0
H1542 H 0.30936 0.99608 0.44164 0.0
H1543 H 0.3896 0.03516 0.43137 0.0
H1544 H 0.39441 0.02892 0.48056 0.0
H1545 H 0.30763 0.01711 0.5101 0.0
H1546 H 0.28214 0.98755 0.52085 0.0
H1547 H 0.28512 0.99668 0.48526 0.0
H1548 H 0.28455 0.95619 0.47109 0.0
H1549 H 0.28171 0.947 0.50664 0.0
H1550 H 0.30681 0.94907 0.48606 0.0
H1551 H 0.39043 0.01791 0.53084 0.0
H1552 H 0.37812 0.00351 0.57839 0.0
H1553 H 0.30036 0.96767 0.55437 0.0
C1554 C 0.328 0.00328 0.44956 0.0
C1555 C 0.34909 0.01621 0.43241 0.0
C1556 C 0.37311 0.02564 0.44402 0.0
C1557 C 0.37605 0.02198 0.47194 0.0
C1558 C 0.35483 0.00865 0.48797 0.0
C1559 C 0.33128 0.99944 0.4772 0.0
C1560 C 0.31148 0.98507 0.49859 0.0
C1561 C 0.29567 0.99734 0.50402 0.0
C1562 C 0.29518 0.95771 0.49008 0.0
C1563 C 0.32759 0.98765 0.52312 0.0
C1564 C 0.35253 0.00143 0.51661 0.0
C1565 C 0.37095 0.00687 0.53611 0.0
C1566 C 0.3637 0.99829 0.56308 0.0
C1567 C 0.33819 0.98411 0.57034 0.0
C1568 C 0.32001 0.97856 0.54979 0.0
H1569 H 0.34455 0.3013 0.88071 0.0
H1570 H 0.37435 0.37647 0.91175 0.0
H1571 H 0.37161 0.3907 0.86541 0.0
H1572 H 0.37373 0.31766 0.81335 0.0
H1573 H 0.34696 0.29334 0.79601 0.0
H1574 H 0.35307 0.28934 0.83131 0.0
H1575 H 0.30903 0.28047 0.84487 0.0
H1576 H 0.30286 0.28466 0.80966 0.0
H1577 H 0.29971 0.3029 0.83652 0.0
H1578 H 0.36428 0.39676 0.81609 0.0
H1579 H 0.35325 0.39399 0.76681 0.0
H1580 H 0.3265 0.31478 0.76832 0.0
C1581 C 0.35062 0.32077 0.8778 0.0
C1582 C 0.36002 0.33775 0.89999 0.0
C1583 C 0.36777 0.36312 0.8951 0.0
C1584 C 0.36603 0.37141 0.86884 0.0
C1585 C 0.35635 0.35412 0.84763 0.0
C1586 C 0.3488 0.32935 0.85176 0.0
C1587 C 0.33827 0.31447 0.82561 0.0
C1588 C 0.35395 0.30303 0.81601 0.0
C1589 C 0.31084 0.29444 0.82941 0.0
C1590 C 0.34093 0.33474 0.80624 0.0
C1591 C 0.35151 0.3575 0.81931 0.0
C1592 C 0.35601 0.37905 0.8056 0.0
C1593 C 0.34972 0.37731 0.77766 0.0
C1594 C 0.3389 0.35417 0.76386 0.0
C1595 C 0.33437 0.33265 0.77846 0.0
H1596 H 0.02022 0.3511 0.22214 0.0
H1597 H 0.0294 0.28732 0.23711 0.0
H1598 H 0.02269 0.27667 0.18775 0.0
H1599 H 0.97184 0.32235 0.17321 0.0
H1600 H 0.98252 0.34934 0.15156 0.0
H1601 H 0.98948 0.35303 0.1878 0.0
H1602 H 0.03653 0.37961 0.17714 0.0
H1603 H 0.02969 0.3763 0.14085 0.0
H1604 H 0.05094 0.36733 0.15477 0.0
H1605 H 0.01307 0.27173 0.13761 0.0
H1606 H 0.00339 0.27407 0.08888 0.0
H1607 H 1.00087 0.34133 0.10596 0.0
C1608 C 0.02133 0.3352 0.2149 0.0
C1609 C 0.02534 0.32002 0.23341 0.0
C1610 C 0.02618 0.29909 0.22327 0.0
C1611 C 0.02243 0.29291 0.1953 0.0
C1612 C 0.0179 0.30789 0.17772 0.0
C1613 C 0.01754 0.32872 0.187 0.0
C1614 C 0.01169 0.34129 0.1638 0.0
C1615 C 0.98744 0.3415 0.16944 0.0
C1616 C 0.03352 0.3677 0.15885 0.0
C1617 C 0.00866 0.32415 0.14011 0.0
C1618 C 0.01233 0.30503 0.14864 0.0
C1619 C 0.01036 0.28674 0.13061 0.0
C1620 C 0.0049 0.28825 0.10298 0.0
C1621 C 1.0015 0.30794 0.09359 0.0
C1622 C 0.00315 0.32594 0.11255 0.0
H1623 H 0.67084 0.96821 0.44435 0.0
H1624 H 0.62641 0.0017 0.4218 0.0
H1625 H 0.62887 0.01609 0.46944 0.0
H1626 H 0.64726 0.94945 0.5133 0.0
H1627 H 0.6772 0.95744 0.52732 0.0
H1628 H 0.67019 0.94798 0.4919 0.0
H1629 H 0.70919 0.98882 0.4766 0.0
H1630 H 0.71623 0.99849 0.51195 0.0
H1631 H 0.71278 0.01821 0.48728 0.0
H1632 H 0.63702 0.02782 0.51948 0.0
H1633 H 0.64949 0.03509 0.56824 0.0
H1634 H 0.69225 0.99784 0.55656 0.0
C1635 C 0.66157 0.97855 0.4493 0.0
C1636 C 0.64822 0.98353 0.42912 0.0
C1637 C 0.63622 0.99696 0.43683 0.0
C1638 C 0.63774 0.00552 0.46385 0.0
C1639 C 0.65153 1.00076 0.48294 0.0
C1640 C 0.66324 0.98759 0.47602 0.0
C1641 C 0.67768 0.98577 0.50012 0.0
C1642 C 0.66746 0.95854 0.50866 0.0
C1643 C 0.70563 0.99859 0.49359 0.0
C1644 C 0.67224 0.99997 0.52168 0.0
C1645 C 0.65704 0.00836 0.51142 0.0
C1646 C 0.64908 0.02148 0.52771 0.0
C1647 C 0.65652 0.02576 0.55536 0.0
C1648 C 0.67199 0.01716 0.56645 0.0
C1649 C 0.68018 0.00443 0.54904 0.0
H1650 H 0.65266 0.66452 0.8923 0.0
H1651 H 0.68971 0.74469 0.90238 0.0
H1652 H 0.70229 0.75008 0.85376 0.0
H1653 H 0.69508 0.66193 0.84639 0.0
H1654 H 0.67199 0.63765 0.82503 0.0
H1655 H 0.66545 0.63958 0.86076 0.0
H1656 H 0.62607 0.64148 0.84737 0.0
H1657 H 0.63219 0.63902 0.81163 0.0
H1658 H 0.62865 0.66463 0.82317 0.0
H1659 H 0.71412 0.74701 0.80566 0.0
H1660 H 0.71824 0.73596 0.75821 0.0
H1661 H 0.66925 0.65789 0.7773 0.0
C1662 C 0.66292 0.68324 0.88425 0.0
C1663 C 0.67056 0.70418 0.90152 0.0
C1664 C 0.6842 0.72831 0.88993 0.0
C1665 C 0.69138 0.7316 0.86226 0.0
C1666 C 0.68432 0.71061 0.84619 0.0
C1667 C 0.66984 0.6869 0.85648 0.0
C1668 C 0.6642 0.66754 0.83439 0.0
C1669 C 0.67482 0.65068 0.84212 0.0
C1670 C 0.63611 0.65227 0.82881 0.0
C1671 C 0.67804 0.68414 0.81021 0.0
C1672 C 0.68978 0.70888 0.81767 0.0
C1673 C 0.70452 0.72773 0.79935 0.0
C1674 C 0.70662 0.72122 0.77235 0.0
C1675 C 0.69359 0.69606 0.76361 0.0
C1676 C 0.67951 0.67728 0.78312 0.0
H1677 H 0.9957 0.66251 0.22754 0.0
H1678 H 0.98423 0.72499 0.24173 0.0
H1679 H 0.99183 0.736 0.19248 0.0
H1680 H 0.04489 0.69255 0.17868 0.0
H1681 H 0.03483 0.66541 0.15743 0.0
H1682 H 0.02801 0.66199 0.19371 0.0
H1683 H 0.98104 0.63418 0.18329 0.0
H1684 H 0.98775 0.63724 0.14699 0.0
H1685 H 0.96592 0.64555 0.16069 0.0
H1686 H 1.00088 0.74039 0.14207 0.0
H1687 H 0.00909 0.73685 0.09303 0.0
H1688 H 0.01476 0.67157 0.11149 0.0
C1689 C 0.99443 0.67828 0.22019 0.0
C1690 C 0.98937 0.69291 0.23842 0.0
C1691 C 0.98828 0.71366 0.22813 0.0
C1692 C 0.99254 0.72004 0.20022 0.0
C1693 C 0.99791 0.70549 0.1829 0.0
C1694 C 0.99874 0.68497 0.1924 0.0
C1695 C 0.00498 0.67253 0.16944 0.0
C1696 C 0.02964 0.67317 0.17517 0.0
C1697 C 0.98365 0.64579 0.16483 0.0
C1698 C 0.00745 0.68922 0.14553 0.0
C1699 C 0.00334 0.70815 0.15378 0.0
C1700 C 0.00412 0.72565 0.13533 0.0
C1701 C 0.00877 0.72349 0.10757 0.0
C1702 C 0.01259 0.70398 0.09855 0.0
C1703 C 0.01227 0.68687 0.1179 0.0
loop_
_geom_bond_atom_site_label_1
_geom_bond_atom_site_label_2
_geom_bond_distance
_geom_bond_site_symmetry_2
_ccdc_geom_bond_type
Li0 N17 1.990 . S
Li0 O60 1.956 . S
Li0 O61 1.970 1_565 S
Li0 O62 1.961 . S
Li1 N25 1.990 . S
Li1 O60 1.970 1_545 S
Li1 O61 1.956 . S
Li1 O63 1.961 . S
Li2 N47 1.990 . S
Li2 O60 1.961 . S
Li2 O62 1.956 . S
Li2 O63 1.970 1_565 S
Li3 N53 1.990 . S
Li3 O61 1.961 . S
Li3 O62 1.970 1_545 S
Li3 O63 1.956 . S
C4 C6 1.348 . S
C4 C7 1.356 . S
C4 O60 1.325 . S
N5 C8 1.314 . S
N5 C9 1.279 . S
C6 C4 1.348 . S
C6 C8 1.353 . S
C6 H64 0.929 . S
C7 C4 1.356 . S
C7 C9 1.358 . S
C7 H65 0.930 . S
C8 N5 1.314 . S
C8 C6 1.353 . S
C8 H66 0.930 . S
C9 N5 1.279 . S
C9 C7 1.358 . S
C9 H67 0.930 . S
C10 C13 1.348 . S
C10 C14 1.356 . S
C10 O61 1.325 . S
C11 N12 1.279 . S
C11 C14 1.358 . S
C11 H68 0.930 . S
N12 C11 1.279 . S
N12 C15 1.314 . S
C13 C10 1.348 . S
C13 C15 1.353 . S
C13 H69 0.929 . S
C14 C10 1.356 . S
C14 C11 1.358 . S
C14 H70 0.930 . S
C15 N12 1.314 . S
C15 C13 1.353 . S
C15 H71 0.930 . S
C16 N17 1.314 1_545 S
C16 C21 1.353 . S
C16 H22 0.930 . S
N17 Li0 1.990 . S
N17 C16 1.314 1_565 S
N17 C19 1.279 . S
C18 C19 1.358 . S
C18 C20 1.356 . S
C18 H72 0.930 . S
C19 N17 1.279 . S
C19 C18 1.358 . S
C19 H23 0.930 . S
C20 C18 1.356 . S
C20 C21 1.348 1_565 S
C21 C16 1.353 . S
C21 C20 1.348 1_545 S
C21 H73 0.929 . S
H22 C16 0.930 . S
H23 C19 0.930 . S
C24 N25 1.314 . S
C24 C26 1.353 . S
C24 H30 0.930 1_545 S
N25 Li1 1.990 . S
N25 C24 1.314 . S
N25 C28 1.279 . S
C26 C24 1.353 . S
C26 C29 1.348 . S
C26 H74 0.929 . S
C27 C28 1.358 . S
C27 C29 1.356 . S
C27 H75 0.930 . S
C28 N25 1.279 . S
C28 C27 1.358 . S
C28 H31 0.930 . S
C29 C26 1.348 . S
C29 C27 1.356 . S
H30 C24 0.930 1_565 S
H31 C28 0.930 . S
C32 C34 1.348 . S
C32 C35 1.356 . S
C32 O62 1.325 . S
N33 C36 1.314 . S
N33 C37 1.279 . S
C34 C32 1.348 . S
C34 C36 1.353 . S
C34 H76 0.929 1_565 S
C35 C32 1.356 . S
C35 C37 1.358 . S
C35 H77 0.930 . S
C36 N33 1.314 . S
C36 C34 1.353 . S
C36 H78 0.930 . S
C37 N33 1.279 . S
C37 C35 1.358 . S
C37 H79 0.930 . S
C38 C39 1.348 1_545 S
C38 C40 1.356 . S
C38 O63 1.325 . S
C39 C38 1.348 1_565 S
C39 C41 1.353 . S
C39 H80 0.929 . S
C40 C38 1.356 . S
C40 C42 1.358 . S
C40 H81 0.930 . S
C41 C39 1.353 . S
C41 N43 1.314 1_565 S
C41 H82 0.930 . S
C42 C40 1.358 . S
C42 N43 1.279 . S
C42 H83 0.930 . S
N43 C41 1.314 1_545 S
N43 C42 1.279 . S
C44 C46 1.353 . S
C44 N47 1.314 . S
C44 H50 0.930 . S
C45 N47 1.279 . S
C45 C48 1.358 . S
C45 H51 0.930 . S
C46 C44 1.353 . S
C46 C49 1.348 . S
C46 H84 0.929 . S
N47 Li2 1.990 . S
N47 C44 1.314 . S
N47 C45 1.279 . S
C48 C45 1.358 . S
C48 C49 1.356 . S
C48 H85 0.930 . S
C49 C46 1.348 . S
C49 C48 1.356 . S
H50 C44 0.930 . S
H51 C45 0.930 . S
C52 N53 1.314 . S
C52 C54 1.353 . S
C52 H58 0.930 . S
N53 Li3 1.990 . S
N53 C52 1.314 . S
N53 C56 1.279 . S
C54 C52 1.353 . S
C54 C57 1.348 . S
C54 H86 0.929 . S
C55 C56 1.358 . S
C55 C57 1.356 . S
C55 H87 0.930 . S
C56 N53 1.279 . S
C56 C55 1.358 . S
C56 H59 0.930 . S
C57 C54 1.348 . S
C57 C55 1.356 . S
H58 C52 0.930 . S
H59 C56 0.930 . S
O60 Li0 1.956 . S
O60 Li1 1.970 1_565 S
O60 Li2 1.961 . S
O60 C4 1.325 . S
O61 Li0 1.970 1_545 S
O61 Li1 1.956 . S
O61 Li3 1.961 . S
O61 C10 1.325 . S
O62 Li0 1.961 . S
O62 Li2 1.956 . S
O62 Li3 1.970 1_565 S
O62 C32 1.325 . S
O63 Li1 1.961 . S
O63 Li2 1.970 1_545 S
O63 Li3 1.956 . S
O63 C38 1.325 . S
H64 C6 0.929 . S
H65 C7 0.930 . S
H66 C8 0.930 . S
H67 C9 0.930 . S
H68 C11 0.930 . S
H69 C13 0.929 . S
H70 C14 0.930 . S
H71 C15 0.930 . S
H72 C18 0.930 . S
H73 C21 0.929 . S
H74 C26 0.929 . S
H75 C27 0.930 . S
H76 C34 0.929 1_545 S
H77 C35 0.930 . S
H78 C36 0.930 . S
H79 C37 0.930 . S
H80 C39 0.929 . S
H81 C40 0.930 . S
H82 C41 0.930 . S
H83 C42 0.930 . S
H84 C46 0.929 . S
H85 C48 0.930 . S
H86 C54 0.929 . S
H87 C55 0.930 . S
Li88 N105 1.990 . S
Li88 O148 1.956 . S
Li88 O149 1.970 . S
Li88 O150 1.961 . S
Li89 N113 1.990 . S
Li89 O148 1.970 . S
Li89 O149 1.956 . S
Li89 O151 1.961 . S
Li90 N135 1.990 . S
Li90 O148 1.961 . S
Li90 O150 1.956 . S
Li90 O151 1.970 . S
Li91 N141 1.990 . S
Li91 O149 1.961 . S
Li91 O150 1.970 . S
Li91 O151 1.956 . S
C92 C94 1.348 . S
C92 C95 1.356 . S
C92 O148 1.325 . S
N93 C96 1.314 . S
N93 C97 1.279 . S
C94 C92 1.348 . S
C94 C96 1.353 . S
C94 H152 0.929 . S
C95 C92 1.356 . S
C95 C97 1.358 . S
C95 H153 0.930 . S
C96 N93 1.314 . S
C96 C94 1.353 . S
C96 H154 0.930 . S
C97 N93 1.279 . S
C97 C95 1.358 . S
C97 H155 0.930 . S
C98 C101 1.348 . S
C98 C102 1.356 . S
C98 O149 1.325 . S
C99 N100 1.279 . S
C99 C102 1.358 . S
C99 H156 0.930 . S
N100 C99 1.279 . S
N100 C103 1.314 . S
C101 C98 1.348 . S
C101 C103 1.353 . S
C101 H157 0.929 . S
C102 C98 1.356 . S
C102 C99 1.358 . S
C102 H158 0.930 . S
C103 N100 1.314 . S
C103 C101 1.353 . S
C103 H159 0.930 . S
C104 N105 1.314 . S
C104 C109 1.353 . S
C104 H110 0.930 . S
N105 Li88 1.990 . S
N105 C104 1.314 . S
N105 C107 1.279 . S
C106 C107 1.358 . S
C106 C108 1.356 . S
C106 H160 0.930 . S
C107 N105 1.279 . S
C107 C106 1.358 . S
C107 H111 0.930 . S
C108 C106 1.356 . S
C108 C109 1.348 . S
C109 C104 1.353 . S
C109 C108 1.348 . S
C109 H161 0.929 . S
H110 C104 0.930 . S
H111 C107 0.930 . S
C112 N113 1.314 . S
C112 C114 1.353 . S
C112 H118 0.930 . S
N113 Li89 1.990 . S
N113 C112 1.314 . S
N113 C116 1.279 . S
C114 C112 1.353 . S
C114 C117 1.348 . S
C114 H162 0.929 . S
C115 C116 1.358 . S
C115 C117 1.356 . S
C115 H163 0.930 . S
C116 N113 1.279 . S
C116 C115 1.358 . S
C116 H119 0.930 . S
C117 C114 1.348 . S
C117 C115 1.356 . S
H118 C112 0.930 . S
H119 C116 0.930 . S
C120 C122 1.348 . S
C120 C123 1.356 . S
C120 O150 1.325 . S
N121 C124 1.314 . S
N121 C125 1.279 . S
C122 C120 1.348 . S
C122 C124 1.353 . S
C122 H164 0.929 . S
C123 C120 1.356 . S
C123 C125 1.358 . S
C123 H165 0.930 . S
C124 N121 1.314 . S
C124 C122 1.353 . S
C124 H166 0.930 . S
C125 N121 1.279 . S
C125 C123 1.358 . S
C125 H167 0.930 . S
C126 C127 1.348 . S
C126 C128 1.356 . S
C126 O151 1.325 . S
C127 C126 1.348 . S
C127 C129 1.353 . S
C127 H168 0.929 . S
C128 C126 1.356 . S
C128 C130 1.358 . S
C128 H169 0.930 . S
C129 C127 1.353 . S
C129 N131 1.314 . S
C129 H170 0.930 . S
C130 C128 1.358 . S
C130 N131 1.279 . S
C130 H171 0.930 . S
N131 C129 1.314 . S
N131 C130 1.279 . S
C132 C134 1.353 . S
C132 N135 1.314 . S
C132 H138 0.930 . S
C133 N135 1.279 . S
C133 C136 1.358 . S
C133 H139 0.930 . S
C134 C132 1.353 . S
C134 C137 1.348 . S
C134 H172 0.929 . S
N135 Li90 1.990 . S
N135 C132 1.314 . S
N135 C133 1.279 . S
C136 C133 1.358 . S
C136 C137 1.356 . S
C136 H173 0.930 . S
C137 C134 1.348 . S
C137 C136 1.356 . S
H138 C132 0.930 . S
H139 C133 0.930 . S
C140 N141 1.314 . S
C140 C142 1.353 . S
C140 H146 0.930 . S
N141 Li91 1.990 . S
N141 C140 1.314 . S
N141 C144 1.279 . S
C142 C140 1.353 . S
C142 C145 1.348 . S
C142 H174 0.929 . S
C143 C144 1.358 . S
C143 C145 1.356 . S
C143 H175 0.930 . S
C144 N141 1.279 . S
C144 C143 1.358 . S
C144 H147 0.930 . S
C145 C142 1.348 . S
C145 C143 1.356 . S
H146 C140 0.930 . S
H147 C144 0.930 . S
O148 Li88 1.956 . S
O148 Li89 1.970 . S
O148 Li90 1.961 . S
O148 C92 1.325 . S
O149 Li88 1.970 . S
O149 Li89 1.956 . S
O149 Li91 1.961 . S
O149 C98 1.325 . S
O150 Li88 1.961 . S
O150 Li90 1.956 . S
O150 Li91 1.970 . S
O150 C120 1.325 . S
O151 Li89 1.961 . S
O151 Li90 1.970 . S
O151 Li91 1.956 . S
O151 C126 1.325 . S
H152 C94 0.929 . S
H153 C95 0.930 . S
H154 C96 0.930 . S
H155 C97 0.930 . S
H156 C99 0.930 . S
H157 C101 0.929 . S
H158 C102 0.930 . S
H159 C103 0.930 . S
H160 C106 0.930 . S
H161 C109 0.929 . S
H162 C114 0.929 . S
H163 C115 0.930 . S
H164 C122 0.929 . S
H165 C123 0.930 . S
H166 C124 0.930 . S
H167 C125 0.930 . S
H168 C127 0.929 . S
H169 C128 0.930 . S
H170 C129 0.930 . S
H171 C130 0.930 . S
H172 C134 0.929 . S
H173 C136 0.930 . S
H174 C142 0.929 . S
H175 C143 0.930 . S
Li176 N193 1.990 . S
Li176 O236 1.956 . S
Li176 O237 1.970 1_455 S
Li176 O238 1.961 . S
Li177 N201 1.990 1_556 S
Li177 O236 1.970 1_655 S
Li177 O237 1.956 . S
Li177 O239 1.961 . S
Li178 N223 1.990 . S
Li178 O236 1.961 . S
Li178 O238 1.956 . S
Li178 O239 1.970 1_455 S
Li179 N229 1.990 . S
Li179 O237 1.961 . S
Li179 O238 1.970 1_655 S
Li179 O239 1.956 . S
C180 C182 1.348 1_556 S
C180 C183 1.356 . S
C180 O236 1.325 . S
N181 C184 1.314 . S
N181 C185 1.279 1_554 S
C182 C180 1.348 1_554 S
C182 C184 1.353 . S
C182 H240 0.929 . S
C183 C180 1.356 . S
C183 C185 1.358 . S
C183 H241 0.930 . S
C184 N181 1.314 . S
C184 C182 1.353 . S
C184 H242 0.930 . S
C185 N181 1.279 1_556 S
C185 C183 1.358 . S
C185 H243 0.930 . S
C186 C189 1.348 . S
C186 C190 1.356 . S
C186 O237 1.325 . S
C187 N188 1.279 . S
C187 C190 1.358 . S
C187 H244 0.930 . S
N188 C187 1.279 . S
N188 C191 1.314 . S
C189 C186 1.348 . S
C189 C191 1.353 . S
C189 H245 0.929 . S
C190 C186 1.356 . S
C190 C187 1.358 . S
C190 H246 0.930 . S
C191 N188 1.314 . S
C191 C189 1.353 . S
C191 H247 0.930 . S
C192 N193 1.314 1_655 S
C192 C197 1.353 . S
C192 H198 0.930 . S
N193 Li176 1.990 . S
N193 C192 1.314 1_455 S
N193 C195 1.279 . S
C194 C195 1.358 . S
C194 C196 1.356 . S
C194 H248 0.930 . S
C195 N193 1.279 . S
C195 C194 1.358 . S
C195 H199 0.930 . S
C196 C194 1.356 . S
C196 C197 1.348 1_455 S
C197 C192 1.353 . S
C197 C196 1.348 1_655 S
C197 H249 0.929 . S
H198 C192 0.930 . S
H199 C195 0.930 . S
C200 N201 1.314 . S
C200 C202 1.353 . S
C200 H206 0.930 1_655 S
N201 Li177 1.990 1_554 S
N201 C200 1.314 . S
N201 C204 1.279 . S
C202 C200 1.353 . S
C202 C205 1.348 . S
C202 H250 0.929 . S
C203 C204 1.358 . S
C203 C205 1.356 . S
C203 H251 0.930 . S
C204 N201 1.279 . S
C204 C203 1.358 . S
C204 H207 0.930 . S
C205 C202 1.348 . S
C205 C203 1.356 . S
H206 C200 0.930 1_455 S
H207 C204 0.930 . S
C208 C210 1.348 . S
C208 C211 1.356 . S
C208 O238 1.325 . S
N209 C212 1.314 . S
N209 C213 1.279 . S
C210 C208 1.348 . S
C210 C212 1.353 . S
C210 H252 0.929 1_455 S
C211 C208 1.356 . S
C211 C213 1.358 . S
C211 H253 0.930 . S
C212 N209 1.314 . S
C212 C210 1.353 . S
C212 H254 0.930 . S
C213 N209 1.279 . S
C213 C211 1.358 . S
C213 H255 0.930 . S
C214 C215 1.348 1_655 S
C214 C216 1.356 . S
C214 O239 1.325 . S
C215 C214 1.348 1_455 S
C215 C217 1.353 . S
C215 H256 0.929 . S
C216 C214 1.356 . S
C216 C218 1.358 . S
C216 H257 0.930 . S
C217 C215 1.353 . S
C217 N219 1.314 1_455 S
C217 H258 0.930 . S
C218 C216 1.358 . S
C218 N219 1.279 . S
C218 H259 0.930 1_556 S
N219 C217 1.314 1_655 S
N219 C218 1.279 . S
C220 C222 1.353 . S
C220 N223 1.314 . S
C220 H226 0.930 . S
C221 N223 1.279 . S
C221 C224 1.358 . S
C221 H227 0.930 . S
C222 C220 1.353 . S
C222 C225 1.348 . S
C222 H260 0.929 . S
N223 Li178 1.990 . S
N223 C220 1.314 . S
N223 C221 1.279 . S
C224 C221 1.358 . S
C224 C225 1.356 . S
C224 H261 0.930 . S
C225 C222 1.348 . S
C225 C224 1.356 . S
H226 C220 0.930 . S
H227 C221 0.930 . S
C228 N229 1.314 . S
C228 C230 1.353 . S
C228 H234 0.930 . S
N229 Li179 1.990 . S
N229 C228 1.314 . S
N229 C232 1.279 . S
C230 C228 1.353 . S
C230 C233 1.348 . S
C230 H262 0.929 . S
C231 C232 1.358 . S
C231 C233 1.356 . S
C231 H263 0.930 . S
C232 N229 1.279 . S
C232 C231 1.358 . S
C232 H235 0.930 . S
C233 C230 1.348 . S
C233 C231 1.356 . S
H234 C228 0.930 . S
H235 C232 0.930 . S
O236 Li176 1.956 . S
O236 Li177 1.970 1_455 S
O236 Li178 1.961 . S
O236 C180 1.325 . S
O237 Li176 1.970 1_655 S
O237 Li177 1.956 . S
O237 Li179 1.961 . S
O237 C186 1.325 . S
O238 Li176 1.961 . S
O238 Li178 1.956 . S
O238 Li179 1.970 1_455 S
O238 C208 1.325 . S
O239 Li177 1.961 . S
O239 Li178 1.970 1_655 S
O239 Li179 1.956 . S
O239 C214 1.325 . S
H240 C182 0.929 . S
H241 C183 0.930 . S
H242 C184 0.930 . S
H243 C185 0.930 . S
H244 C187 0.930 . S
H245 C189 0.929 . S
H246 C190 0.930 . S
H247 C191 0.930 . S
H248 C194 0.930 . S
H249 C197 0.929 . S
H250 C202 0.929 . S
H251 C203 0.930 . S
H252 C210 0.929 1_655 S
H253 C211 0.930 . S
H254 C212 0.930 . S
H255 C213 0.930 . S
H256 C215 0.929 . S
H257 C216 0.930 . S
H258 C217 0.930 . S
H259 C218 0.930 1_554 S
H260 C222 0.929 . S
H261 C224 0.930 . S
H262 C230 0.929 . S
H263 C231 0.930 . S
Li264 N281 1.990 . S
Li264 O324 1.956 . S
Li264 O325 1.970 1_545 S
Li264 O326 1.961 . S
Li265 N289 1.990 . S
Li265 O324 1.970 1_565 S
Li265 O325 1.956 . S
Li265 O327 1.961 . S
Li266 N311 1.990 . S
Li266 O324 1.961 . S
Li266 O326 1.956 . S
Li266 O327 1.970 1_545 S
Li267 N317 1.990 . S
Li267 O325 1.961 . S
Li267 O326 1.970 1_565 S
Li267 O327 1.956 . S
C268 C270 1.348 . S
C268 C271 1.356 . S
C268 O324 1.325 . S
N269 C272 1.314 . S
N269 C273 1.279 . S
C270 C268 1.348 . S
C270 C272 1.353 . S
C270 H328 0.929 . S
C271 C268 1.356 . S
C271 C273 1.358 . S
C271 H329 0.930 . S
C272 N269 1.314 . S
C272 C270 1.353 . S
C272 H330 0.930 . S
C273 N269 1.279 . S
C273 C271 1.358 . S
C273 H331 0.930 . S
C274 C277 1.348 . S
C274 C278 1.356 . S
C274 O325 1.325 . S
C275 N276 1.279 . S
C275 C278 1.358 . S
C275 H332 0.930 . S
N276 C275 1.279 . S
N276 C279 1.314 . S
C277 C274 1.348 . S
C277 C279 1.353 . S
C277 H333 0.929 . S
C278 C274 1.356 . S
C278 C275 1.358 . S
C278 H334 0.930 . S
C279 N276 1.314 . S
C279 C277 1.353 . S
C279 H335 0.930 . S
C280 N281 1.314 1_565 S
C280 C285 1.353 . S
C280 H286 0.930 . S
N281 Li264 1.990 . S
N281 C280 1.314 1_545 S
N281 C283 1.279 . S
C282 C283 1.358 . S
C282 C284 1.356 . S
C282 H336 0.930 . S
C283 N281 1.279 . S
C283 C282 1.358 . S
C283 H287 0.930 . S
C284 C282 1.356 . S
C284 C285 1.348 1_545 S
C285 C280 1.353 . S
C285 C284 1.348 1_565 S
C285 H337 0.929 . S
H286 C280 0.930 . S
H287 C283 0.930 . S
C288 N289 1.314 . S
C288 C290 1.353 . S
C288 H294 0.930 1_565 S
N289 Li265 1.990 . S
N289 C288 1.314 . S
N289 C292 1.279 . S
C290 C288 1.353 . S
C290 C293 1.348 . S
C290 H338 0.929 . S
C291 C292 1.358 . S
C291 C293 1.356 . S
C291 H339 0.930 . S
C292 N289 1.279 . S
C292 C291 1.358 . S
C292 H295 0.930 . S
C293 C290 1.348 . S
C293 C291 1.356 . S
H294 C288 0.930 1_545 S
H295 C292 0.930 . S
C296 C298 1.348 . S
C296 C299 1.356 . S
C296 O326 1.325 . S
N297 C300 1.314 . S
N297 C301 1.279 . S
C298 C296 1.348 . S
C298 C300 1.353 . S
C298 H340 0.929 1_545 S
C299 C296 1.356 . S
C299 C301 1.358 . S
C299 H341 0.930 . S
C300 N297 1.314 . S
C300 C298 1.353 . S
C300 H342 0.930 . S
C301 N297 1.279 . S
C301 C299 1.358 . S
C301 H343 0.930 . S
C302 C303 1.348 1_565 S
C302 C304 1.356 . S
C302 O327 1.325 . S
C303 C302 1.348 1_545 S
C303 C305 1.353 . S
C303 H344 0.929 . S
C304 C302 1.356 . S
C304 C306 1.358 . S
C304 H345 0.930 . S
C305 C303 1.353 . S
C305 N307 1.314 1_545 S
C305 H346 0.930 . S
C306 C304 1.358 . S
C306 N307 1.279 . S
C306 H347 0.930 . S
N307 C305 1.314 1_565 S
N307 C306 1.279 . S
C308 C310 1.353 . S
C308 N311 1.314 . S
C308 H314 0.930 . S
C309 N311 1.279 . S
C309 C312 1.358 . S
C309 H315 0.930 . S
C310 C308 1.353 . S
C310 C313 1.348 . S
C310 H348 0.929 . S
N311 Li266 1.990 . S
N311 C308 1.314 . S
N311 C309 1.279 . S
C312 C309 1.358 . S
C312 C313 1.356 . S
C312 H349 0.930 . S
C313 C310 1.348 . S
C313 C312 1.356 . S
H314 C308 0.930 . S
H315 C309 0.930 . S
C316 N317 1.314 . S
C316 C318 1.353 . S
C316 H322 0.930 . S
N317 Li267 1.990 . S
N317 C316 1.314 . S
N317 C320 1.279 . S
C318 C316 1.353 . S
C318 C321 1.348 . S
C318 H350 0.929 . S
C319 C320 1.358 . S
C319 C321 1.356 . S
C319 H351 0.930 . S
C320 N317 1.279 . S
C320 C319 1.358 . S
C320 H323 0.930 . S
C321 C318 1.348 . S
C321 C319 1.356 . S
H322 C316 0.930 . S
H323 C320 0.930 . S
O324 Li264 1.956 . S
O324 Li265 1.970 1_545 S
O324 Li266 1.961 . S
O324 C268 1.325 . S
O325 Li264 1.970 1_565 S
O325 Li265 1.956 . S
O325 Li267 1.961 . S
O325 C274 1.325 . S
O326 Li264 1.961 . S
O326 Li266 1.956 . S
O326 Li267 1.970 1_545 S
O326 C296 1.325 . S
O327 Li265 1.961 . S
O327 Li266 1.970 1_565 S
O327 Li267 1.956 . S
O327 C302 1.325 . S
H328 C270 0.929 . S
H329 C271 0.930 . S
H330 C272 0.930 . S
H331 C273 0.930 . S
H332 C275 0.930 . S
H333 C277 0.929 . S
H334 C278 0.930 . S
H335 C279 0.930 . S
H336 C282 0.930 . S
H337 C285 0.929 . S
H338 C290 0.929 . S
H339 C291 0.930 . S
H340 C298 0.929 1_565 S
H341 C299 0.930 . S
H342 C300 0.930 . S
H343 C301 0.930 . S
H344 C303 0.929 . S
H345 C304 0.930 . S
H346 C305 0.930 . S
H347 C306 0.930 . S
H348 C310 0.929 . S
H349 C312 0.930 . S
H350 C318 0.929 . S
H351 C319 0.930 . S
Li352 N369 1.990 . S
Li352 O412 1.956 . S
Li352 O413 1.970 . S
Li352 O414 1.961 . S
Li353 N377 1.990 . S
Li353 O412 1.970 . S
Li353 O413 1.956 . S
Li353 O415 1.961 . S
Li354 N399 1.990 . S
Li354 O412 1.961 . S
Li354 O414 1.956 . S
Li354 O415 1.970 . S
Li355 N405 1.990 . S
Li355 O413 1.961 . S
Li355 O414 1.970 . S
Li355 O415 1.956 . S
C356 C358 1.348 . S
C356 C359 1.356 . S
C356 O412 1.325 . S
N357 C360 1.314 . S
N357 C361 1.279 . S
C358 C356 1.348 . S
C358 C360 1.353 . S
C358 H416 0.929 . S
C359 C356 1.356 . S
C359 C361 1.358 . S
C359 H417 0.930 . S
C360 N357 1.314 . S
C360 C358 1.353 . S
C360 H418 0.930 . S
C361 N357 1.279 . S
C361 C359 1.358 . S
C361 H419 0.930 . S
C362 C365 1.348 . S
C362 C366 1.356 . S
C362 O413 1.325 . S
C363 N364 1.279 . S
C363 C366 1.358 . S
C363 H420 0.930 . S
N364 C363 1.279 . S
N364 C367 1.314 . S
C365 C362 1.348 . S
C365 C367 1.353 . S
C365 H421 0.929 . S
C366 C362 1.356 . S
C366 C363 1.358 . S
C366 H422 0.930 . S
C367 N364 1.314 . S
C367 C365 1.353 . S
C367 H423 0.930 . S
C368 N369 1.314 . S
C368 C373 1.353 . S
C368 H374 0.930 . S
N369 Li352 1.990 . S
N369 C368 1.314 . S
N369 C371 1.279 . S
C370 C371 1.358 . S
C370 C372 1.356 . S
C370 H424 0.930 . S
C371 N369 1.279 . S
C371 C370 1.358 . S
C371 H375 0.930 . S
C372 C370 1.356 . S
C372 C373 1.348 . S
C373 C368 1.353 . S
C373 C372 1.348 . S
C373 H425 0.929 . S
H374 C368 0.930 . S
H375 C371 0.930 . S
C376 N377 1.314 . S
C376 C378 1.353 . S
C376 H382 0.930 . S
N377 Li353 1.990 . S
N377 C376 1.314 . S
N377 C380 1.279 . S
C378 C376 1.353 . S
C378 C381 1.348 . S
C378 H426 0.929 . S
C379 C380 1.358 . S
C379 C381 1.356 . S
C379 H427 0.930 . S
C380 N377 1.279 . S
C380 C379 1.358 . S
C380 H383 0.930 . S
C381 C378 1.348 . S
C381 C379 1.356 . S
H382 C376 0.930 . S
H383 C380 0.930 . S
C384 C386 1.348 . S
C384 C387 1.356 . S
C384 O414 1.325 . S
N385 C388 1.314 . S
N385 C389 1.279 . S
C386 C384 1.348 . S
C386 C388 1.353 . S
C386 H428 0.929 . S
C387 C384 1.356 . S
C387 C389 1.358 . S
C387 H429 0.930 . S
C388 N385 1.314 . S
C388 C386 1.353 . S
C388 H430 0.930 . S
C389 N385 1.279 . S
C389 C387 1.358 . S
C389 H431 0.930 . S
C390 C391 1.348 . S
C390 C392 1.356 . S
C390 O415 1.325 . S
C391 C390 1.348 . S
C391 C393 1.353 . S
C391 H432 0.929 . S
C392 C390 1.356 . S
C392 C394 1.358 . S
C392 H433 0.930 . S
C393 C391 1.353 . S
C393 N395 1.314 . S
C393 H434 0.930 . S
C394 C392 1.358 . S
C394 N395 1.279 . S
C394 H435 0.930 . S
N395 C393 1.314 . S
N395 C394 1.279 . S
C396 C398 1.353 . S
C396 N399 1.314 . S
C396 H402 0.930 . S
C397 N399 1.279 . S
C397 C400 1.358 . S
C397 H403 0.930 . S
C398 C396 1.353 . S
C398 C401 1.348 . S
C398 H436 0.929 . S
N399 Li354 1.990 . S
N399 C396 1.314 . S
N399 C397 1.279 . S
C400 C397 1.358 . S
C400 C401 1.356 . S
C400 H437 0.930 . S
C401 C398 1.348 . S
C401 C400 1.356 . S
H402 C396 0.930 . S
H403 C397 0.930 . S
C404 N405 1.314 . S
C404 C406 1.353 . S
C404 H410 0.930 . S
N405 Li355 1.990 . S
N405 C404 1.314 . S
N405 C408 1.279 . S
C406 C404 1.353 . S
C406 C409 1.348 . S
C406 H438 0.929 . S
C407 C408 1.358 . S
C407 C409 1.356 . S
C407 H439 0.930 . S
C408 N405 1.279 . S
C408 C407 1.358 . S
C408 H411 0.930 . S
C409 C406 1.348 . S
C409 C407 1.356 . S
H410 C404 0.930 . S
H411 C408 0.930 . S
O412 Li352 1.956 . S
O412 Li353 1.970 . S
O412 Li354 1.961 . S
O412 C356 1.325 . S
O413 Li352 1.970 . S
O413 Li353 1.956 . S
O413 Li355 1.961 . S
O413 C362 1.325 . S
O414 Li352 1.961 . S
O414 Li354 1.956 . S
O414 Li355 1.970 . S
O414 C384 1.325 . S
O415 Li353 1.961 . S
O415 Li354 1.970 . S
O415 Li355 1.956 . S
O415 C390 1.325 . S
H416 C358 0.929 . S
H417 C359 0.930 . S
H418 C360 0.930 . S
H419 C361 0.930 . S
H420 C363 0.930 . S
H421 C365 0.929 . S
H422 C366 0.930 . S
H423 C367 0.930 . S
H424 C370 0.930 . S
H425 C373 0.929 . S
H426 C378 0.929 . S
H427 C379 0.930 . S
H428 C386 0.929 . S
H429 C387 0.930 . S
H430 C388 0.930 . S
H431 C389 0.930 . S
H432 C391 0.929 . S
H433 C392 0.930 . S
H434 C393 0.930 . S
H435 C394 0.930 . S
H436 C398 0.929 . S
H437 C400 0.930 . S
H438 C406 0.929 . S
H439 C407 0.930 . S
Li440 N457 1.990 . S
Li440 O500 1.956 . S
Li440 O501 1.970 1_655 S
Li440 O502 1.961 . S
Li441 N465 1.990 1_556 S
Li441 O500 1.970 1_455 S
Li441 O501 1.956 . S
Li441 O503 1.961 . S
Li442 N487 1.990 . S
Li442 O500 1.961 . S
Li442 O502 1.956 . S
Li442 O503 1.970 1_655 S
Li443 N493 1.990 . S
Li443 O501 1.961 . S
Li443 O502 1.970 1_455 S
Li443 O503 1.956 . S
C444 C446 1.348 1_556 S
C444 C447 1.356 . S
C444 O500 1.325 . S
N445 C448 1.314 . S
N445 C449 1.279 1_554 S
C446 C444 1.348 1_554 S
C446 C448 1.353 . S
C446 H504 0.929 . S
C447 C444 1.356 . S
C447 C449 1.358 . S
C447 H505 0.930 . S
C448 N445 1.314 . S
C448 C446 1.353 . S
C448 H506 0.930 . S
C449 N445 1.279 1_556 S
C449 C447 1.358 . S
C449 H507 0.930 . S
C450 C453 1.348 . S
C450 C454 1.356 . S
C450 O501 1.325 . S
C451 N452 1.279 . S
C451 C454 1.358 . S
C451 H508 0.930 . S
N452 C451 1.279 . S
N452 C455 1.314 . S
C453 C450 1.348 . S
C453 C455 1.353 . S
C453 H509 0.929 . S
C454 C450 1.356 . S
C454 C451 1.358 . S
C454 H510 0.930 . S
C455 N452 1.314 . S
C455 C453 1.353 . S
C455 H511 0.930 . S
C456 N457 1.314 1_455 S
C456 C461 1.353 . S
C456 H462 0.930 . S
N457 Li440 1.990 . S
N457 C456 1.314 1_655 S
N457 C459 1.279 . S
C458 C459 1.358 . S
C458 C460 1.356 . S
C458 H512 0.930 . S
C459 N457 1.279 . S
C459 C458 1.358 . S
C459 H463 0.930 . S
C460 C458 1.356 . S
C460 C461 1.348 1_655 S
C461 C456 1.353 . S
C461 C460 1.348 1_455 S
C461 H513 0.929 . S
H462 C456 0.930 . S
H463 C459 0.930 . S
C464 N465 1.314 . S
C464 C466 1.353 . S
C464 H470 0.930 1_455 S
N465 Li441 1.990 1_554 S
N465 C464 1.314 . S
N465 C468 1.279 . S
C466 C464 1.353 . S
C466 C469 1.348 . S
C466 H514 0.929 . S
C467 C468 1.358 . S
C467 C469 1.356 . S
C467 H515 0.930 . S
C468 N465 1.279 . S
C468 C467 1.358 . S
C468 H471 0.930 . S
C469 C466 1.348 . S
C469 C467 1.356 . S
H470 C464 0.930 1_655 S
H471 C468 0.930 . S
C472 C474 1.348 . S
C472 C475 1.356 . S
C472 O502 1.325 . S
N473 C476 1.314 . S
N473 C477 1.279 . S
C474 C472 1.348 . S
C474 C476 1.353 . S
C474 H516 0.929 1_655 S
C475 C472 1.356 . S
C475 C477 1.358 . S
C475 H517 0.930 . S
C476 N473 1.314 . S
C476 C474 1.353 . S
C476 H518 0.930 . S
C477 N473 1.279 . S
C477 C475 1.358 . S
C477 H519 0.930 . S
C478 C479 1.348 1_455 S
C478 C480 1.356 . S
C478 O503 1.325 . S
C479 C478 1.348 1_655 S
C479 C481 1.353 . S
C479 H520 0.929 . S
C480 C478 1.356 . S
C480 C482 1.358 . S
C480 H521 0.930 . S
C481 C479 1.353 . S
C481 N483 1.314 1_655 S
C481 H522 0.930 . S
C482 C480 1.358 . S
C482 N483 1.279 . S
C482 H523 0.930 1_556 S
N483 C481 1.314 1_455 S
N483 C482 1.279 . S
C484 C486 1.353 . S
C484 N487 1.314 . S
C484 H490 0.930 . S
C485 N487 1.279 . S
C485 C488 1.358 . S
C485 H491 0.930 . S
C486 C484 1.353 . S
C486 C489 1.348 . S
C486 H524 0.929 . S
N487 Li442 1.990 . S
N487 C484 1.314 . S
N487 C485 1.279 . S
C488 C485 1.358 . S
C488 C489 1.356 . S
C488 H525 0.930 . S
C489 C486 1.348 . S
C489 C488 1.356 . S
H490 C484 0.930 . S
H491 C485 0.930 . S
C492 N493 1.314 . S
C492 C494 1.353 . S
C492 H498 0.930 . S
N493 Li443 1.990 . S
N493 C492 1.314 . S
N493 C496 1.279 . S
C494 C492 1.353 . S
C494 C497 1.348 . S
C494 H526 0.929 . S
C495 C496 1.358 . S
C495 C497 1.356 . S
C495 H527 0.930 . S
C496 N493 1.279 . S
C496 C495 1.358 . S
C496 H499 0.930 . S
C497 C494 1.348 . S
C497 C495 1.356 . S
H498 C492 0.930 . S
H499 C496 0.930 . S
O500 Li440 1.956 . S
O500 Li441 1.970 1_655 S
O500 Li442 1.961 . S
O500 C444 1.325 . S
O501 Li440 1.970 1_455 S
O501 Li441 1.956 . S
O501 Li443 1.961 . S
O501 C450 1.325 . S
O502 Li440 1.961 . S
O502 Li442 1.956 . S
O502 Li443 1.970 1_655 S
O502 C472 1.325 . S
O503 Li441 1.961 . S
O503 Li442 1.970 1_455 S
O503 Li443 1.956 . S
O503 C478 1.325 . S
H504 C446 0.929 . S
H505 C447 0.930 . S
H506 C448 0.930 . S
H507 C449 0.930 . S
H508 C451 0.930 . S
H509 C453 0.929 . S
H510 C454 0.930 . S
H511 C455 0.930 . S
H512 C458 0.930 . S
H513 C461 0.929 . S
H514 C466 0.929 . S
H515 C467 0.930 . S
H516 C474 0.929 1_455 S
H517 C475 0.930 . S
H518 C476 0.930 . S
H519 C477 0.930 . S
H520 C479 0.929 . S
H521 C480 0.930 . S
H522 C481 0.930 . S
H523 C482 0.930 1_554 S
H524 C486 0.929 . S
H525 C488 0.930 . S
H526 C494 0.929 . S
H527 C495 0.930 . S
Li528 N545 1.990 . S
Li528 O588 1.956 . S
Li528 O589 1.970 1_455 S
Li528 O590 1.961 . S
Li529 N553 1.990 . S
Li529 O588 1.970 1_655 S
Li529 O589 1.956 . S
Li529 O591 1.961 . S
Li530 N575 1.990 . S
Li530 O588 1.961 . S
Li530 O590 1.956 . S
Li530 O591 1.970 1_455 S
Li531 N581 1.990 . S
Li531 O589 1.961 . S
Li531 O590 1.970 1_655 S
Li531 O591 1.956 . S
C532 C534 1.348 . S
C532 C535 1.356 . S
C532 O588 1.325 . S
N533 C536 1.314 . S
N533 C537 1.279 . S
C534 C532 1.348 . S
C534 C536 1.353 . S
C534 H592 0.929 1_455 S
C535 C532 1.356 . S
C535 C537 1.358 . S
C535 H593 0.930 . S
C536 N533 1.314 . S
C536 C534 1.353 . S
C536 H594 0.930 . S
C537 N533 1.279 . S
C537 C535 1.358 . S
C537 H595 0.930 . S
C538 C541 1.348 1_655 S
C538 C542 1.356 . S
C538 O589 1.325 . S
C539 N540 1.279 . S
C539 C542 1.358 . S
C539 H596 0.930 . S
N540 C539 1.279 . S
N540 C543 1.314 1_655 S
C541 C538 1.348 1_455 S
C541 C543 1.353 . S
C541 H597 0.929 . S
C542 C538 1.356 . S
C542 C539 1.358 . S
C542 H598 0.930 . S
C543 N540 1.314 1_455 S
C543 C541 1.353 . S
C543 H599 0.930 . S
C544 N545 1.314 . S
C544 C549 1.353 . S
C544 H550 0.930 . S
N545 Li528 1.990 . S
N545 C544 1.314 . S
N545 C547 1.279 . S
C546 C547 1.358 . S
C546 C548 1.356 . S
C546 H600 0.930 . S
C547 N545 1.279 . S
C547 C546 1.358 . S
C547 H551 0.930 . S
C548 C546 1.356 . S
C548 C549 1.348 . S
C549 C544 1.353 . S
C549 C548 1.348 . S
C549 H601 0.929 . S
H550 C544 0.930 . S
H551 C547 0.930 . S
C552 N553 1.314 . S
C552 C554 1.353 . S
C552 H558 0.930 . S
N553 Li529 1.990 . S
N553 C552 1.314 . S
N553 C556 1.279 . S
C554 C552 1.353 . S
C554 C557 1.348 . S
C554 H602 0.929 . S
C555 C556 1.358 . S
C555 C557 1.356 . S
C555 H603 0.930 . S
C556 N553 1.279 . S
C556 C555 1.358 . S
C556 H559 0.930 . S
C557 C554 1.348 . S
C557 C555 1.356 . S
H558 C552 0.930 . S
H559 C556 0.930 . S
C560 C562 1.348 . S
C560 C563 1.356 . S
C560 O590 1.325 . S
N561 C564 1.314 . S
N561 C565 1.279 . S
C562 C560 1.348 . S
C562 C564 1.353 . S
C562 H604 0.929 . S
C563 C560 1.356 . S
C563 C565 1.358 . S
C563 H605 0.930 . S
C564 N561 1.314 . S
C564 C562 1.353 . S
C564 H606 0.930 . S
C565 N561 1.279 . S
C565 C563 1.358 . S
C565 H607 0.930 . S
C566 C567 1.348 . S
C566 C568 1.356 . S
C566 O591 1.325 . S
C567 C566 1.348 . S
C567 C569 1.353 . S
C567 H608 0.929 . S
C568 C566 1.356 . S
C568 C570 1.358 . S
C568 H609 0.930 . S
C569 C567 1.353 . S
C569 N571 1.314 . S
C569 H610 0.930 . S
C570 C568 1.358 . S
C570 N571 1.279 . S
C570 H611 0.930 . S
N571 C569 1.314 . S
N571 C570 1.279 . S
C572 C574 1.353 . S
C572 N575 1.314 1_655 S
C572 H578 0.930 . S
C573 N575 1.279 . S
C573 C576 1.358 . S
C573 H579 0.930 . S
C574 C572 1.353 . S
C574 C577 1.348 1_655 S
C574 H612 0.929 . S
N575 Li530 1.990 . S
N575 C572 1.314 1_455 S
N575 C573 1.279 . S
C576 C573 1.358 . S
C576 C577 1.356 . S
C576 H613 0.930 . S
C577 C574 1.348 1_455 S
C577 C576 1.356 . S
H578 C572 0.930 . S
H579 C573 0.930 . S
C580 N581 1.314 . S
C580 C582 1.353 . S
C580 H586 0.930 1_655 S
N581 Li531 1.990 . S
N581 C580 1.314 . S
N581 C584 1.279 . S
C582 C580 1.353 . S
C582 C585 1.348 . S
C582 H614 0.929 . S
C583 C584 1.358 . S
C583 C585 1.356 . S
C583 H615 0.930 . S
C584 N581 1.279 . S
C584 C583 1.358 . S
C584 H587 0.930 . S
C585 C582 1.348 . S
C585 C583 1.356 . S
H586 C580 0.930 1_455 S
H587 C584 0.930 . S
O588 Li528 1.956 . S
O588 Li529 1.970 1_455 S
O588 Li530 1.961 . S
O588 C532 1.325 . S
O589 Li528 1.970 1_655 S
O589 Li529 1.956 . S
O589 Li531 1.961 . S
O589 C538 1.325 . S
O590 Li528 1.961 . S
O590 Li530 1.956 . S
O590 Li531 1.970 1_455 S
O590 C560 1.325 . S
O591 Li529 1.961 . S
O591 Li530 1.970 1_655 S
O591 Li531 1.956 . S
O591 C566 1.325 . S
H592 C534 0.929 1_655 S
H593 C535 0.930 . S
H594 C536 0.930 . S
H595 C537 0.930 . S
H596 C539 0.930 . S
H597 C541 0.929 . S
H598 C542 0.930 . S
H599 C543 0.930 . S
H600 C546 0.930 . S
H601 C549 0.929 . S
H602 C554 0.929 . S
H603 C555 0.930 . S
H604 C562 0.929 . S
H605 C563 0.930 . S
H606 C564 0.930 . S
H607 C565 0.930 . S
H608 C567 0.929 . S
H609 C568 0.930 . S
H610 C569 0.930 . S
H611 C570 0.930 . S
H612 C574 0.929 . S
H613 C576 0.930 . S
H614 C582 0.929 . S
H615 C583 0.930 . S
Li616 N633 1.990 . S
Li616 O676 1.956 . S
Li616 O677 1.970 1_545 S
Li616 O678 1.961 . S
Li617 N641 1.990 . S
Li617 O676 1.970 1_565 S
Li617 O677 1.956 . S
Li617 O679 1.961 . S
Li618 N663 1.990 . S
Li618 O676 1.961 . S
Li618 O678 1.956 . S
Li618 O679 1.970 1_545 S
Li619 N669 1.990 . S
Li619 O677 1.961 . S
Li619 O678 1.970 1_565 S
Li619 O679 1.956 . S
C620 C622 1.348 . S
C620 C623 1.356 . S
C620 O676 1.325 . S
N621 C624 1.314 . S
N621 C625 1.279 . S
C622 C620 1.348 . S
C622 C624 1.353 . S
C622 H680 0.929 1_545 S
C623 C620 1.356 . S
C623 C625 1.358 . S
C623 H681 0.930 . S
C624 N621 1.314 . S
C624 C622 1.353 . S
C624 H682 0.930 . S
C625 N621 1.279 . S
C625 C623 1.358 . S
C625 H683 0.930 . S
C626 C629 1.348 1_565 S
C626 C630 1.356 . S
C626 O677 1.325 . S
C627 N628 1.279 . S
C627 C630 1.358 . S
C627 H684 0.930 . S
N628 C627 1.279 . S
N628 C631 1.314 1_565 S
C629 C626 1.348 1_545 S
C629 C631 1.353 . S
C629 H685 0.929 . S
C630 C626 1.356 . S
C630 C627 1.358 . S
C630 H686 0.930 . S
C631 N628 1.314 1_545 S
C631 C629 1.353 . S
C631 H687 0.930 . S
C632 N633 1.314 . S
C632 C637 1.353 . S
C632 H638 0.930 . S
N633 Li616 1.990 . S
N633 C632 1.314 . S
N633 C635 1.279 . S
C634 C635 1.358 . S
C634 C636 1.356 . S
C634 H688 0.930 . S
C635 N633 1.279 . S
C635 C634 1.358 . S
C635 H639 0.930 . S
C636 C634 1.356 . S
C636 C637 1.348 . S
C637 C632 1.353 . S
C637 C636 1.348 . S
C637 H689 0.929 . S
H638 C632 0.930 . S
H639 C635 0.930 . S
C640 N641 1.314 . S
C640 C642 1.353 . S
C640 H646 0.930 . S
N641 Li617 1.990 . S
N641 C640 1.314 . S
N641 C644 1.279 . S
C642 C640 1.353 . S
C642 C645 1.348 . S
C642 H690 0.929 . S
C643 C644 1.358 . S
C643 C645 1.356 . S
C643 H691 0.930 . S
C644 N641 1.279 . S
C644 C643 1.358 . S
C644 H647 0.930 . S
C645 C642 1.348 . S
C645 C643 1.356 . S
H646 C640 0.930 . S
H647 C644 0.930 . S
C648 C650 1.348 . S
C648 C651 1.356 . S
C648 O678 1.325 . S
N649 C652 1.314 . S
N649 C653 1.279 . S
C650 C648 1.348 . S
C650 C652 1.353 . S
C650 H692 0.929 . S
C651 C648 1.356 . S
C651 C653 1.358 . S
C651 H693 0.930 . S
C652 N649 1.314 . S
C652 C650 1.353 . S
C652 H694 0.930 . S
C653 N649 1.279 . S
C653 C651 1.358 . S
C653 H695 0.930 . S
C654 C655 1.348 . S
C654 C656 1.356 . S
C654 O679 1.325 . S
C655 C654 1.348 . S
C655 C657 1.353 . S
C655 H696 0.929 . S
C656 C654 1.356 . S
C656 C658 1.358 . S
C656 H697 0.930 . S
C657 C655 1.353 . S
C657 N659 1.314 . S
C657 H698 0.930 . S
C658 C656 1.358 . S
C658 N659 1.279 . S
C658 H699 0.930 . S
N659 C657 1.314 . S
N659 C658 1.279 . S
C660 C662 1.353 . S
C660 N663 1.314 1_565 S
C660 H666 0.930 . S
C661 N663 1.279 . S
C661 C664 1.358 . S
C661 H667 0.930 . S
C662 C660 1.353 . S
C662 C665 1.348 1_565 S
C662 H700 0.929 . S
N663 Li618 1.990 . S
N663 C660 1.314 1_545 S
N663 C661 1.279 . S
C664 C661 1.358 . S
C664 C665 1.356 . S
C664 H701 0.930 . S
C665 C662 1.348 1_545 S
C665 C664 1.356 . S
H666 C660 0.930 . S
H667 C661 0.930 . S
C668 N669 1.314 . S
C668 C670 1.353 . S
C668 H674 0.930 1_565 S
N669 Li619 1.990 . S
N669 C668 1.314 . S
N669 C672 1.279 . S
C670 C668 1.353 . S
C670 C673 1.348 . S
C670 H702 0.929 . S
C671 C672 1.358 . S
C671 C673 1.356 . S
C671 H703 0.930 . S
C672 N669 1.279 . S
C672 C671 1.358 . S
C672 H675 0.930 . S
C673 C670 1.348 . S
C673 C671 1.356 . S
H674 C668 0.930 1_545 S
H675 C672 0.930 . S
O676 Li616 1.956 . S
O676 Li617 1.970 1_545 S
O676 Li618 1.961 . S
O676 C620 1.325 . S
O677 Li616 1.970 1_565 S
O677 Li617 1.956 . S
O677 Li619 1.961 . S
O677 C626 1.325 . S
O678 Li616 1.961 . S
O678 Li618 1.956 . S
O678 Li619 1.970 1_545 S
O678 C648 1.325 . S
O679 Li617 1.961 . S
O679 Li618 1.970 1_565 S
O679 Li619 1.956 . S
O679 C654 1.325 . S
H680 C622 0.929 1_565 S
H681 C623 0.930 . S
H682 C624 0.930 . S
H683 C625 0.930 . S
H684 C627 0.930 . S
H685 C629 0.929 . S
H686 C630 0.930 . S
H687 C631 0.930 . S
H688 C634 0.930 . S
H689 C637 0.929 . S
H690 C642 0.929 . S
H691 C643 0.930 . S
H692 C650 0.929 . S
H693 C651 0.930 . S
H694 C652 0.930 . S
H695 C653 0.930 . S
H696 C655 0.929 . S
H697 C656 0.930 . S
H698 C657 0.930 . S
H699 C658 0.930 . S
H700 C662 0.929 . S
H701 C664 0.930 . S
H702 C670 0.929 . S
H703 C671 0.930 . S
Li704 N721 1.990 . S
Li704 O764 1.956 . S
Li704 O765 1.970 . S
Li704 O766 1.961 . S
Li705 N729 1.990 . S
Li705 O764 1.970 . S
Li705 O765 1.956 . S
Li705 O767 1.961 . S
Li706 N751 1.990 . S
Li706 O764 1.961 . S
Li706 O766 1.956 . S
Li706 O767 1.970 . S
Li707 N757 1.990 1_554 S
Li707 O765 1.961 . S
Li707 O766 1.970 . S
Li707 O767 1.956 . S
C708 C710 1.348 . S
C708 C711 1.356 . S
C708 O764 1.325 . S
N709 C712 1.314 . S
N709 C713 1.279 . S
C710 C708 1.348 . S
C710 C712 1.353 . S
C710 H768 0.929 . S
C711 C708 1.356 . S
C711 C713 1.358 . S
C711 H769 0.930 . S
C712 N709 1.314 . S
C712 C710 1.353 . S
C712 H770 0.930 . S
C713 N709 1.279 . S
C713 C711 1.358 . S
C713 H771 0.930 . S
C714 C717 1.348 . S
C714 C718 1.356 . S
C714 O765 1.325 . S
C715 N716 1.279 . S
C715 C718 1.358 . S
C715 H772 0.930 1_554 S
N716 C715 1.279 . S
N716 C719 1.314 . S
C717 C714 1.348 . S
C717 C719 1.353 . S
C717 H773 0.929 . S
C718 C714 1.356 . S
C718 C715 1.358 . S
C718 H774 0.930 . S
C719 N716 1.314 . S
C719 C717 1.353 . S
C719 H775 0.930 . S
C720 N721 1.314 . S
C720 C725 1.353 . S
C720 H726 0.930 . S
N721 Li704 1.990 . S
N721 C720 1.314 . S
N721 C723 1.279 . S
C722 C723 1.358 . S
C722 C724 1.356 . S
C722 H776 0.930 . S
C723 N721 1.279 . S
C723 C722 1.358 . S
C723 H727 0.930 . S
C724 C722 1.356 . S
C724 C725 1.348 . S
C725 C720 1.353 . S
C725 C724 1.348 . S
C725 H777 0.929 . S
H726 C720 0.930 . S
H727 C723 0.930 . S
C728 N729 1.314 . S
C728 C730 1.353 . S
C728 H734 0.930 . S
N729 Li705 1.990 . S
N729 C728 1.314 . S
N729 C732 1.279 . S
C730 C728 1.353 . S
C730 C733 1.348 . S
C730 H778 0.929 . S
C731 C732 1.358 . S
C731 C733 1.356 . S
C731 H779 0.930 . S
C732 N729 1.279 . S
C732 C731 1.358 . S
C732 H735 0.930 . S
C733 C730 1.348 . S
C733 C731 1.356 . S
H734 C728 0.930 . S
H735 C732 0.930 . S
C736 C738 1.348 1_554 S
C736 C739 1.356 . S
C736 O766 1.325 . S
N737 C740 1.314 . S
N737 C741 1.279 1_556 S
C738 C736 1.348 1_556 S
C738 C740 1.353 . S
C738 H780 0.929 . S
C739 C736 1.356 . S
C739 C741 1.358 . S
C739 H781 0.930 . S
C740 N737 1.314 . S
C740 C738 1.353 . S
C740 H782 0.930 . S
C741 N737 1.279 1_554 S
C741 C739 1.358 . S
C741 H783 0.930 . S
C742 C743 1.348 . S
C742 C744 1.356 . S
C742 O767 1.325 . S
C743 C742 1.348 . S
C743 C745 1.353 . S
C743 H784 0.929 . S
C744 C742 1.356 . S
C744 C746 1.358 . S
C744 H785 0.930 . S
C745 C743 1.353 . S
C745 N747 1.314 . S
C745 H786 0.930 . S
C746 C744 1.358 . S
C746 N747 1.279 . S
C746 H787 0.930 . S
N747 C745 1.314 . S
N747 C746 1.279 . S
C748 C750 1.353 . S
C748 N751 1.314 . S
C748 H754 0.930 . S
C749 N751 1.279 . S
C749 C752 1.358 . S
C749 H755 0.930 . S
C750 C748 1.353 . S
C750 C753 1.348 . S
C750 H788 0.929 . S
N751 Li706 1.990 . S
N751 C748 1.314 . S
N751 C749 1.279 . S
C752 C749 1.358 . S
C752 C753 1.356 . S
C752 H789 0.930 . S
C753 C750 1.348 . S
C753 C752 1.356 . S
H754 C748 0.930 . S
H755 C749 0.930 . S
C756 N757 1.314 . S
C756 C758 1.353 . S
C756 H762 0.930 . S
N757 Li707 1.990 1_556 S
N757 C756 1.314 . S
N757 C760 1.279 . S
C758 C756 1.353 . S
C758 C761 1.348 . S
C758 H790 0.929 . S
C759 C760 1.358 . S
C759 C761 1.356 . S
C759 H791 0.930 . S
C760 N757 1.279 . S
C760 C759 1.358 . S
C760 H763 0.930 . S
C761 C758 1.348 . S
C761 C759 1.356 . S
H762 C756 0.930 . S
H763 C760 0.930 . S
O764 Li704 1.956 . S
O764 Li705 1.970 . S
O764 Li706 1.961 . S
O764 C708 1.325 . S
O765 Li704 1.970 . S
O765 Li705 1.956 . S
O765 Li707 1.961 . S
O765 C714 1.325 . S
O766 Li704 1.961 . S
O766 Li706 1.956 . S
O766 Li707 1.970 . S
O766 C736 1.325 . S
O767 Li705 1.961 . S
O767 Li706 1.970 . S
O767 Li707 1.956 . S
O767 C742 1.325 . S
H768 C710 0.929 . S
H769 C711 0.930 . S
H770 C712 0.930 . S
H771 C713 0.930 . S
H772 C715 0.930 1_556 S
H773 C717 0.929 . S
H774 C718 0.930 . S
H775 C719 0.930 . S
H776 C722 0.930 . S
H777 C725 0.929 . S
H778 C730 0.929 . S
H779 C731 0.930 . S
H780 C738 0.929 . S
H781 C739 0.930 . S
H782 C740 0.930 . S
H783 C741 0.930 . S
H784 C743 0.929 . S
H785 C744 0.930 . S
H786 C745 0.930 . S
H787 C746 0.930 . S
H788 C750 0.929 . S
H789 C752 0.930 . S
H790 C758 0.929 . S
H791 C759 0.930 . S
Li792 N809 1.990 . S
Li792 O852 1.956 . S
Li792 O853 1.970 1_455 S
Li792 O854 1.961 . S
Li793 N817 1.990 . S
Li793 O852 1.970 1_655 S
Li793 O853 1.956 . S
Li793 O855 1.961 . S
Li794 N839 1.990 . S
Li794 O852 1.961 . S
Li794 O854 1.956 . S
Li794 O855 1.970 1_455 S
Li795 N845 1.990 . S
Li795 O853 1.961 . S
Li795 O854 1.970 1_655 S
Li795 O855 1.956 . S
C796 C798 1.348 1_455 S
C796 C799 1.356 . S
C796 O852 1.325 . S
N797 C800 1.314 1_455 S
N797 C801 1.279 . S
C798 C796 1.348 1_655 S
C798 C800 1.353 . S
C798 H856 0.929 . S
C799 C796 1.356 . S
C799 C801 1.358 . S
C799 H857 0.930 . S
C800 N797 1.314 1_655 S
C800 C798 1.353 . S
C800 H858 0.930 . S
C801 N797 1.279 . S
C801 C799 1.358 . S
C801 H859 0.930 . S
C802 C805 1.348 . S
C802 C806 1.356 . S
C802 O853 1.325 . S
C803 N804 1.279 . S
C803 C806 1.358 . S
C803 H860 0.930 . S
N804 C803 1.279 . S
N804 C807 1.314 . S
C805 C802 1.348 . S
C805 C807 1.353 . S
C805 H861 0.929 1_655 S
C806 C802 1.356 . S
C806 C803 1.358 . S
C806 H862 0.930 . S
C807 N804 1.314 . S
C807 C805 1.353 . S
C807 H863 0.930 . S
C808 N809 1.314 . S
C808 C813 1.353 . S
C808 H814 0.930 . S
N809 Li792 1.990 . S
N809 C808 1.314 . S
N809 C811 1.279 . S
C810 C811 1.358 . S
C810 C812 1.356 . S
C810 H864 0.930 . S
C811 N809 1.279 . S
C811 C810 1.358 . S
C811 H815 0.930 . S
C812 C810 1.356 . S
C812 C813 1.348 . S
C813 C808 1.353 . S
C813 C812 1.348 . S
C813 H865 0.929 . S
H814 C808 0.930 . S
H815 C811 0.930 . S
C816 N817 1.314 . S
C816 C818 1.353 . S
C816 H822 0.930 . S
N817 Li793 1.990 . S
N817 C816 1.314 . S
N817 C820 1.279 . S
C818 C816 1.353 . S
C818 C821 1.348 . S
C818 H866 0.929 . S
C819 C820 1.358 . S
C819 C821 1.356 . S
C819 H867 0.930 . S
C820 N817 1.279 . S
C820 C819 1.358 . S
C820 H823 0.930 . S
C821 C818 1.348 . S
C821 C819 1.356 . S
H822 C816 0.930 . S
H823 C820 0.930 . S
C824 C826 1.348 . S
C824 C827 1.356 . S
C824 O854 1.325 . S
N825 C828 1.314 . S
N825 C829 1.279 . S
C826 C824 1.348 . S
C826 C828 1.353 . S
C826 H868 0.929 . S
C827 C824 1.356 . S
C827 C829 1.358 . S
C827 H869 0.930 . S
C828 N825 1.314 . S
C828 C826 1.353 . S
C828 H870 0.930 . S
C829 N825 1.279 . S
C829 C827 1.358 . S
C829 H871 0.930 . S
C830 C831 1.348 . S
C830 C832 1.356 . S
C830 O855 1.325 . S
C831 C830 1.348 . S
C831 C833 1.353 . S
C831 H872 0.929 . S
C832 C830 1.356 . S
C832 C834 1.358 . S
C832 H873 0.930 . S
C833 C831 1.353 . S
C833 N835 1.314 . S
C833 H874 0.930 . S
C834 C832 1.358 . S
C834 N835 1.279 . S
C834 H875 0.930 . S
N835 C833 1.314 . S
N835 C834 1.279 . S
C836 C838 1.353 . S
C836 N839 1.314 . S
C836 H842 0.930 1_455 S
C837 N839 1.279 . S
C837 C840 1.358 . S
C837 H843 0.930 . S
C838 C836 1.353 . S
C838 C841 1.348 . S
C838 H876 0.929 . S
N839 Li794 1.990 . S
N839 C836 1.314 . S
N839 C837 1.279 . S
C840 C837 1.358 . S
C840 C841 1.356 . S
C840 H877 0.930 . S
C841 C838 1.348 . S
C841 C840 1.356 . S
H842 C836 0.930 1_655 S
H843 C837 0.930 . S
C844 N845 1.314 1_455 S
C844 C846 1.353 . S
C844 H850 0.930 . S
N845 Li795 1.990 . S
N845 C844 1.314 1_655 S
N845 C848 1.279 . S
C846 C844 1.353 . S
C846 C849 1.348 1_455 S
C846 H878 0.929 . S
C847 C848 1.358 . S
C847 C849 1.356 . S
C847 H879 0.930 . S
C848 N845 1.279 . S
C848 C847 1.358 . S
C848 H851 0.930 . S
C849 C846 1.348 1_655 S
C849 C847 1.356 . S
H850 C844 0.930 . S
H851 C848 0.930 . S
O852 Li792 1.956 . S
O852 Li793 1.970 1_455 S
O852 Li794 1.961 . S
O852 C796 1.325 . S
O853 Li792 1.970 1_655 S
O853 Li793 1.956 . S
O853 Li795 1.961 . S
O853 C802 1.325 . S
O854 Li792 1.961 . S
O854 Li794 1.956 . S
O854 Li795 1.970 1_455 S
O854 C824 1.325 . S
O855 Li793 1.961 . S
O855 Li794 1.970 1_655 S
O855 Li795 1.956 . S
O855 C830 1.325 . S
H856 C798 0.929 . S
H857 C799 0.930 . S
H858 C800 0.930 . S
H859 C801 0.930 . S
H860 C803 0.930 . S
H861 C805 0.929 1_455 S
H862 C806 0.930 . S
H863 C807 0.930 . S
H864 C810 0.930 . S
H865 C813 0.929 . S
H866 C818 0.929 . S
H867 C819 0.930 . S
H868 C826 0.929 . S
H869 C827 0.930 . S
H870 C828 0.930 . S
H871 C829 0.930 . S
H872 C831 0.929 . S
H873 C832 0.930 . S
H874 C833 0.930 . S
H875 C834 0.930 . S
H876 C838 0.929 . S
H877 C840 0.930 . S
H878 C846 0.929 . S
H879 C847 0.930 . S
Li880 N897 1.990 . S
Li880 O940 1.956 . S
Li880 O941 1.970 1_545 S
Li880 O942 1.961 . S
Li881 N905 1.990 . S
Li881 O940 1.970 1_565 S
Li881 O941 1.956 . S
Li881 O943 1.961 . S
Li882 N927 1.990 . S
Li882 O940 1.961 . S
Li882 O942 1.956 . S
Li882 O943 1.970 1_545 S
Li883 N933 1.990 . S
Li883 O941 1.961 . S
Li883 O942 1.970 1_565 S
Li883 O943 1.956 . S
C884 C886 1.348 1_545 S
C884 C887 1.356 . S
C884 O940 1.325 . S
N885 C888 1.314 1_545 S
N885 C889 1.279 . S
C886 C884 1.348 1_565 S
C886 C888 1.353 . S
C886 H944 0.929 . S
C887 C884 1.356 . S
C887 C889 1.358 . S
C887 H945 0.930 . S
C888 N885 1.314 1_565 S
C888 C886 1.353 . S
C888 H946 0.930 . S
C889 N885 1.279 . S
C889 C887 1.358 . S
C889 H947 0.930 . S
C890 C893 1.348 . S
C890 C894 1.356 . S
C890 O941 1.325 . S
C891 N892 1.279 . S
C891 C894 1.358 . S
C891 H948 0.930 . S
N892 C891 1.279 . S
N892 C895 1.314 . S
C893 C890 1.348 . S
C893 C895 1.353 . S
C893 H949 0.929 1_565 S
C894 C890 1.356 . S
C894 C891 1.358 . S
C894 H950 0.930 . S
C895 N892 1.314 . S
C895 C893 1.353 . S
C895 H951 0.930 . S
C896 N897 1.314 . S
C896 C901 1.353 . S
C896 H902 0.930 . S
N897 Li880 1.990 . S
N897 C896 1.314 . S
N897 C899 1.279 . S
C898 C899 1.358 . S
C898 C900 1.356 . S
C898 H952 0.930 . S
C899 N897 1.279 . S
C899 C898 1.358 . S
C899 H903 0.930 . S
C900 C898 1.356 . S
C900 C901 1.348 . S
C901 C896 1.353 . S
C901 C900 1.348 . S
C901 H953 0.929 . S
H902 C896 0.930 . S
H903 C899 0.930 . S
C904 N905 1.314 . S
C904 C906 1.353 . S
C904 H910 0.930 . S
N905 Li881 1.990 . S
N905 C904 1.314 . S
N905 C908 1.279 . S
C906 C904 1.353 . S
C906 C909 1.348 . S
C906 H954 0.929 . S
C907 C908 1.358 . S
C907 C909 1.356 . S
C907 H955 0.930 . S
C908 N905 1.279 . S
C908 C907 1.358 . S
C908 H911 0.930 . S
C909 C906 1.348 . S
C909 C907 1.356 . S
H910 C904 0.930 . S
H911 C908 0.930 . S
C912 C914 1.348 . S
C912 C915 1.356 . S
C912 O942 1.325 . S
N913 C916 1.314 . S
N913 C917 1.279 . S
C914 C912 1.348 . S
C914 C916 1.353 . S
C914 H956 0.929 . S
C915 C912 1.356 . S
C915 C917 1.358 . S
C915 H957 0.930 . S
C916 N913 1.314 . S
C916 C914 1.353 . S
C916 H958 0.930 . S
C917 N913 1.279 . S
C917 C915 1.358 . S
C917 H959 0.930 . S
C918 C919 1.348 . S
C918 C920 1.356 . S
C918 O943 1.325 . S
C919 C918 1.348 . S
C919 C921 1.353 . S
C919 H960 0.929 . S
C920 C918 1.356 . S
C920 C922 1.358 . S
C920 H961 0.930 . S
C921 C919 1.353 . S
C921 N923 1.314 . S
C921 H962 0.930 . S
C922 C920 1.358 . S
C922 N923 1.279 . S
C922 H963 0.930 . S
N923 C921 1.314 . S
N923 C922 1.279 . S
C924 C926 1.353 . S
C924 N927 1.314 . S
C924 H930 0.930 1_545 S
C925 N927 1.279 . S
C925 C928 1.358 . S
C925 H931 0.930 . S
C926 C924 1.353 . S
C926 C929 1.348 . S
C926 H964 0.929 . S
N927 Li882 1.990 . S
N927 C924 1.314 . S
N927 C925 1.279 . S
C928 C925 1.358 . S
C928 C929 1.356 . S
C928 H965 0.930 . S
C929 C926 1.348 . S
C929 C928 1.356 . S
H930 C924 0.930 1_565 S
H931 C925 0.930 . S
C932 N933 1.314 1_545 S
C932 C934 1.353 . S
C932 H938 0.930 . S
N933 Li883 1.990 . S
N933 C932 1.314 1_565 S
N933 C936 1.279 . S
C934 C932 1.353 . S
C934 C937 1.348 1_545 S
C934 H966 0.929 . S
C935 C936 1.358 . S
C935 C937 1.356 . S
C935 H967 0.930 . S
C936 N933 1.279 . S
C936 C935 1.358 . S
C936 H939 0.930 . S
C937 C934 1.348 1_565 S
C937 C935 1.356 . S
H938 C932 0.930 . S
H939 C936 0.930 . S
O940 Li880 1.956 . S
O940 Li881 1.970 1_545 S
O940 Li882 1.961 . S
O940 C884 1.325 . S
O941 Li880 1.970 1_565 S
O941 Li881 1.956 . S
O941 Li883 1.961 . S
O941 C890 1.325 . S
O942 Li880 1.961 . S
O942 Li882 1.956 . S
O942 Li883 1.970 1_545 S
O942 C912 1.325 . S
O943 Li881 1.961 . S
O943 Li882 1.970 1_565 S
O943 Li883 1.956 . S
O943 C918 1.325 . S
H944 C886 0.929 . S
H945 C887 0.930 . S
H946 C888 0.930 . S
H947 C889 0.930 . S
H948 C891 0.930 . S
H949 C893 0.929 1_545 S
H950 C894 0.930 . S
H951 C895 0.930 . S
H952 C898 0.930 . S
H953 C901 0.929 . S
H954 C906 0.929 . S
H955 C907 0.930 . S
H956 C914 0.929 . S
H957 C915 0.930 . S
H958 C916 0.930 . S
H959 C917 0.930 . S
H960 C919 0.929 . S
H961 C920 0.930 . S
H962 C921 0.930 . S
H963 C922 0.930 . S
H964 C926 0.929 . S
H965 C928 0.930 . S
H966 C934 0.929 . S
H967 C935 0.930 . S
Li968 N985 1.990 . S
Li968 O1028 1.956 . S
Li968 O1029 1.970 . S
Li968 O1030 1.961 . S
Li969 N993 1.990 . S
Li969 O1028 1.970 . S
Li969 O1029 1.956 . S
Li969 O1031 1.961 . S
Li970 N1015 1.990 1_554 S
Li970 O1028 1.961 . S
Li970 O1030 1.956 . S
Li970 O1031 1.970 . S
Li971 N1021 1.990 . S
Li971 O1029 1.961 . S
Li971 O1030 1.970 . S
Li971 O1031 1.956 . S
C972 C974 1.348 . S
C972 C975 1.356 . S
C972 O1028 1.325 . S
N973 C976 1.314 . S
N973 C977 1.279 . S
C974 C972 1.348 . S
C974 C976 1.353 . S
C974 H1032 0.929 . S
C975 C972 1.356 . S
C975 C977 1.358 . S
C975 H1033 0.930 . S
C976 N973 1.314 . S
C976 C974 1.353 . S
C976 H1034 0.930 . S
C977 N973 1.279 . S
C977 C975 1.358 . S
C977 H1035 0.930 1_554 S
C978 C981 1.348 . S
C978 C982 1.356 . S
C978 O1029 1.325 . S
C979 N980 1.279 . S
C979 C982 1.358 . S
C979 H1036 0.930 . S
N980 C979 1.279 . S
N980 C983 1.314 . S
C981 C978 1.348 . S
C981 C983 1.353 . S
C981 H1037 0.929 . S
C982 C978 1.356 . S
C982 C979 1.358 . S
C982 H1038 0.930 . S
C983 N980 1.314 . S
C983 C981 1.353 . S
C983 H1039 0.930 . S
C984 N985 1.314 . S
C984 C989 1.353 . S
C984 H990 0.930 . S
N985 Li968 1.990 . S
N985 C984 1.314 . S
N985 C987 1.279 . S
C986 C987 1.358 . S
C986 C988 1.356 . S
C986 H1040 0.930 . S
C987 N985 1.279 . S
C987 C986 1.358 . S
C987 H991 0.930 . S
C988 C986 1.356 . S
C988 C989 1.348 . S
C989 C984 1.353 . S
C989 C988 1.348 . S
C989 H1041 0.929 . S
H990 C984 0.930 . S
H991 C987 0.930 . S
C992 N993 1.314 . S
C992 C994 1.353 . S
C992 H998 0.930 . S
N993 Li969 1.990 . S
N993 C992 1.314 . S
N993 C996 1.279 . S
C994 C992 1.353 . S
C994 C997 1.348 . S
C994 H1042 0.929 . S
C995 C996 1.358 . S
C995 C997 1.356 . S
C995 H1043 0.930 . S
C996 N993 1.279 . S
C996 C995 1.358 . S
C996 H999 0.930 . S
C997 C994 1.348 . S
C997 C995 1.356 . S
H998 C992 0.930 . S
H999 C996 0.930 . S
C1000 C1002 1.348 . S
C1000 C1003 1.356 . S
C1000 O1030 1.325 . S
N1001 C1004 1.314 . S
N1001 C1005 1.279 . S
C1002 C1000 1.348 . S
C1002 C1004 1.353 . S
C1002 H1044 0.929 . S
C1003 C1000 1.356 . S
C1003 C1005 1.358 . S
C1003 H1045 0.930 . S
C1004 N1001 1.314 . S
C1004 C1002 1.353 . S
C1004 H1046 0.930 . S
C1005 N1001 1.279 . S
C1005 C1003 1.358 . S
C1005 H1047 0.930 . S
C1006 C1007 1.348 1_554 S
C1006 C1008 1.356 . S
C1006 O1031 1.325 . S
C1007 C1006 1.348 1_556 S
C1007 C1009 1.353 . S
C1007 H1048 0.929 . S
C1008 C1006 1.356 . S
C1008 C1010 1.358 . S
C1008 H1049 0.930 . S
C1009 C1007 1.353 . S
C1009 N1011 1.314 . S
C1009 H1050 0.930 . S
C1010 C1008 1.358 . S
C1010 N1011 1.279 1_554 S
C1010 H1051 0.930 . S
N1011 C1009 1.314 . S
N1011 C1010 1.279 1_556 S
C1012 C1014 1.353 . S
C1012 N1015 1.314 . S
C1012 H1018 0.930 . S
C1013 N1015 1.279 . S
C1013 C1016 1.358 . S
C1013 H1019 0.930 . S
C1014 C1012 1.353 . S
C1014 C1017 1.348 . S
C1014 H1052 0.929 . S
N1015 Li970 1.990 1_556 S
N1015 C1012 1.314 . S
N1015 C1013 1.279 . S
C1016 C1013 1.358 . S
C1016 C1017 1.356 . S
C1016 H1053 0.930 . S
C1017 C1014 1.348 . S
C1017 C1016 1.356 . S
H1018 C1012 0.930 . S
H1019 C1013 0.930 . S
C1020 N1021 1.314 . S
C1020 C1022 1.353 . S
C1020 H1026 0.930 . S
N1021 Li971 1.990 . S
N1021 C1020 1.314 . S
N1021 C1024 1.279 . S
C1022 C1020 1.353 . S
C1022 C1025 1.348 . S
C1022 H1054 0.929 . S
C1023 C1024 1.358 . S
C1023 C1025 1.356 . S
C1023 H1055 0.930 . S
C1024 N1021 1.279 . S
C1024 C1023 1.358 . S
C1024 H1027 0.930 . S
C1025 C1022 1.348 . S
C1025 C1023 1.356 . S
H1026 C1020 0.930 . S
H1027 C1024 0.930 . S
O1028 Li968 1.956 . S
O1028 Li969 1.970 . S
O1028 Li970 1.961 . S
O1028 C972 1.325 . S
O1029 Li968 1.970 . S
O1029 Li969 1.956 . S
O1029 Li971 1.961 . S
O1029 C978 1.325 . S
O1030 Li968 1.961 . S
O1030 Li970 1.956 . S
O1030 Li971 1.970 . S
O1030 C1000 1.325 . S
O1031 Li969 1.961 . S
O1031 Li970 1.970 . S
O1031 Li971 1.956 . S
O1031 C1006 1.325 . S
H1032 C974 0.929 . S
H1033 C975 0.930 . S
H1034 C976 0.930 . S
H1035 C977 0.930 1_556 S
H1036 C979 0.930 . S
H1037 C981 0.929 . S
H1038 C982 0.930 . S
H1039 C983 0.930 . S
H1040 C986 0.930 . S
H1041 C989 0.929 . S
H1042 C994 0.929 . S
H1043 C995 0.930 . S
H1044 C1002 0.929 . S
H1045 C1003 0.930 . S
H1046 C1004 0.930 . S
H1047 C1005 0.930 . S
H1048 C1007 0.929 . S
H1049 C1008 0.930 . S
H1050 C1009 0.930 . S
H1051 C1010 0.930 . S
H1052 C1014 0.929 . S
H1053 C1016 0.930 . S
H1054 C1022 0.929 . S
H1055 C1023 0.930 . S
H1056 C1068 0.930 . S
H1057 C1070 0.930 . S
H1058 C1071 0.930 . S
H1059 C1075 0.959 . S
H1060 C1075 0.959 . S
H1061 C1075 0.961 . S
H1062 C1076 0.960 . S
H1063 C1076 0.961 . S
H1064 C1076 0.959 . S
H1065 C1079 0.929 . S
H1066 C1080 0.931 . S
H1067 C1082 0.930 . S
C1068 H1056 0.930 . S
C1068 C1069 1.399 . S
C1068 C1073 1.399 . S
C1069 C1068 1.399 . S
C1069 C1070 1.376 . S
C1070 H1057 0.930 . S
C1070 C1069 1.376 . S
C1070 C1071 1.388 . S
C1071 H1058 0.930 . S
C1071 C1070 1.388 . S
C1071 C1072 1.390 . S
C1072 C1071 1.390 . S
C1072 C1073 1.394 . S
C1072 C1078 1.465 . S
C1073 C1068 1.399 . S
C1073 C1072 1.394 . S
C1073 C1074 1.516 . S
C1074 C1073 1.516 . S
C1074 C1075 1.502 . S
C1074 C1076 1.561 . S
C1074 C1077 1.526 . S
C1075 H1059 0.959 . S
C1075 H1060 0.959 . S
C1075 H1061 0.961 . S
C1075 C1074 1.502 . S
C1076 H1062 0.960 . S
C1076 H1063 0.961 . S
C1076 H1064 0.959 . S
C1076 C1074 1.561 . S
C1077 C1074 1.526 . S
C1077 C1078 1.396 . S
C1077 C1082 1.390 . S
C1078 C1072 1.465 . S
C1078 C1077 1.396 . S
C1078 C1079 1.399 . S
C1079 H1065 0.929 . S
C1079 C1078 1.399 . S
C1079 C1080 1.385 . S
C1080 H1066 0.931 . S
C1080 C1079 1.385 . S
C1080 C1081 1.389 . S
C1081 C1080 1.389 . S
C1081 C1082 1.387 . S
C1082 H1067 0.930 . S
C1082 C1077 1.390 . S
C1082 C1081 1.387 . S
H1083 C1095 0.930 . S
H1084 C1097 0.930 . S
H1085 C1098 0.930 . S
H1086 C1102 0.959 . S
H1087 C1102 0.959 . S
H1088 C1102 0.961 . S
H1089 C1103 0.960 . S
H1090 C1103 0.961 . S
H1091 C1103 0.959 . S
H1092 C1106 0.929 . S
H1093 C1107 0.931 . S
H1094 C1109 0.930 . S
C1095 H1083 0.930 . S
C1095 C1096 1.399 . S
C1095 C1100 1.399 . S
C1096 C1095 1.399 . S
C1096 C1097 1.376 . S
C1097 H1084 0.930 . S
C1097 C1096 1.376 . S
C1097 C1098 1.388 . S
C1098 H1085 0.930 . S
C1098 C1097 1.388 . S
C1098 C1099 1.390 . S
C1099 C1098 1.390 . S
C1099 C1100 1.394 . S
C1099 C1105 1.465 . S
C1100 C1095 1.399 . S
C1100 C1099 1.394 . S
C1100 C1101 1.516 . S
C1101 C1100 1.516 . S
C1101 C1102 1.502 . S
C1101 C1103 1.561 . S
C1101 C1104 1.526 . S
C1102 H1086 0.959 . S
C1102 H1087 0.959 . S
C1102 H1088 0.961 . S
C1102 C1101 1.502 . S
C1103 H1089 0.960 . S
C1103 H1090 0.961 . S
C1103 H1091 0.959 . S
C1103 C1101 1.561 . S
C1104 C1101 1.526 . S
C1104 C1105 1.396 . S
C1104 C1109 1.390 . S
C1105 C1099 1.465 . S
C1105 C1104 1.396 . S
C1105 C1106 1.399 . S
C1106 H1092 0.929 . S
C1106 C1105 1.399 . S
C1106 C1107 1.385 . S
C1107 H1093 0.931 . S
C1107 C1106 1.385 . S
C1107 C1108 1.389 . S
C1108 C1107 1.389 . S
C1108 C1109 1.387 . S
C1109 H1094 0.930 . S
C1109 C1104 1.390 . S
C1109 C1108 1.387 . S
H1110 C1122 0.930 . S
H1111 C1124 0.930 . S
H1112 C1125 0.930 . S
H1113 C1129 0.959 . S
H1114 C1129 0.959 . S
H1115 C1129 0.961 . S
H1116 C1130 0.960 . S
H1117 C1130 0.961 . S
H1118 C1130 0.959 . S
H1119 C1133 0.929 . S
H1120 C1134 0.931 . S
H1121 C1136 0.930 . S
C1122 H1110 0.930 . S
C1122 C1123 1.399 . S
C1122 C1127 1.399 . S
C1123 C1122 1.399 . S
C1123 C1124 1.376 . S
C1124 H1111 0.930 . S
C1124 C1123 1.376 . S
C1124 C1125 1.388 . S
C1125 H1112 0.930 . S
C1125 C1124 1.388 . S
C1125 C1126 1.390 . S
C1126 C1125 1.390 . S
C1126 C1127 1.394 . S
C1126 C1132 1.465 . S
C1127 C1122 1.399 . S
C1127 C1126 1.394 . S
C1127 C1128 1.516 . S
C1128 C1127 1.516 . S
C1128 C1129 1.502 . S
C1128 C1130 1.561 . S
C1128 C1131 1.526 . S
C1129 H1113 0.959 . S
C1129 H1114 0.959 . S
C1129 H1115 0.961 . S
C1129 C1128 1.502 . S
C1130 H1116 0.960 . S
C1130 H1117 0.961 . S
C1130 H1118 0.959 . S
C1130 C1128 1.561 . S
C1131 C1128 1.526 . S
C1131 C1132 1.396 . S
C1131 C1136 1.390 . S
C1132 C1126 1.465 . S
C1132 C1131 1.396 . S
C1132 C1133 1.399 . S
C1133 H1119 0.929 . S
C1133 C1132 1.399 . S
C1133 C1134 1.385 . S
C1134 H1120 0.931 . S
C1134 C1133 1.385 . S
C1134 C1135 1.389 . S
C1135 C1134 1.389 . S
C1135 C1136 1.387 . S
C1136 H1121 0.930 . S
C1136 C1131 1.390 . S
C1136 C1135 1.387 . S
H1137 C1149 0.930 . S
H1138 C1151 0.930 . S
H1139 C1152 0.930 . S
H1140 C1156 0.959 . S
H1141 C1156 0.959 . S
H1142 C1156 0.961 . S
H1143 C1157 0.960 . S
H1144 C1157 0.961 . S
H1145 C1157 0.959 . S
H1146 C1160 0.929 . S
H1147 C1161 0.931 . S
H1148 C1163 0.930 . S
C1149 H1137 0.930 . S
C1149 C1150 1.399 . S
C1149 C1154 1.399 . S
C1150 C1149 1.399 . S
C1150 C1151 1.376 . S
C1151 H1138 0.930 . S
C1151 C1150 1.376 . S
C1151 C1152 1.388 . S
C1152 H1139 0.930 . S
C1152 C1151 1.388 . S
C1152 C1153 1.390 . S
C1153 C1152 1.390 . S
C1153 C1154 1.394 . S
C1153 C1159 1.465 . S
C1154 C1149 1.399 . S
C1154 C1153 1.394 . S
C1154 C1155 1.516 . S
C1155 C1154 1.516 . S
C1155 C1156 1.502 . S
C1155 C1157 1.561 . S
C1155 C1158 1.526 . S
C1156 H1140 0.959 . S
C1156 H1141 0.959 . S
C1156 H1142 0.961 . S
C1156 C1155 1.502 . S
C1157 H1143 0.960 . S
C1157 H1144 0.961 . S
C1157 H1145 0.959 . S
C1157 C1155 1.561 . S
C1158 C1155 1.526 . S
C1158 C1159 1.396 . S
C1158 C1163 1.390 . S
C1159 C1153 1.465 . S
C1159 C1158 1.396 . S
C1159 C1160 1.399 . S
C1160 H1146 0.929 . S
C1160 C1159 1.399 . S
C1160 C1161 1.385 . S
C1161 H1147 0.931 . S
C1161 C1160 1.385 . S
C1161 C1162 1.389 . S
C1162 C1161 1.389 . S
C1162 C1163 1.387 . S
C1163 H1148 0.930 . S
C1163 C1158 1.390 . S
C1163 C1162 1.387 . S
H1164 C1176 0.930 . S
H1165 C1178 0.930 . S
H1166 C1179 0.930 . S
H1167 C1183 0.959 . S
H1168 C1183 0.959 . S
H1169 C1183 0.961 . S
H1170 C1184 0.960 . S
H1171 C1184 0.961 . S
H1172 C1184 0.959 . S
H1173 C1187 0.929 . S
H1174 C1188 0.931 . S
H1175 C1190 0.930 . S
C1176 H1164 0.930 . S
C1176 C1177 1.399 . S
C1176 C1181 1.399 . S
C1177 C1176 1.399 . S
C1177 C1178 1.376 . S
C1178 H1165 0.930 . S
C1178 C1177 1.376 . S
C1178 C1179 1.388 . S
C1179 H1166 0.930 . S
C1179 C1178 1.388 . S
C1179 C1180 1.390 . S
C1180 C1179 1.390 . S
C1180 C1181 1.394 . S
C1180 C1186 1.465 . S
C1181 C1176 1.399 . S
C1181 C1180 1.394 . S
C1181 C1182 1.516 . S
C1182 C1181 1.516 . S
C1182 C1183 1.502 . S
C1182 C1184 1.561 . S
C1182 C1185 1.526 . S
C1183 H1167 0.959 . S
C1183 H1168 0.959 . S
C1183 H1169 0.961 . S
C1183 C1182 1.502 . S
C1184 H1170 0.960 . S
C1184 H1171 0.961 . S
C1184 H1172 0.959 . S
C1184 C1182 1.561 . S
C1185 C1182 1.526 . S
C1185 C1186 1.396 . S
C1185 C1190 1.390 . S
C1186 C1180 1.465 . S
C1186 C1185 1.396 . S
C1186 C1187 1.399 . S
C1187 H1173 0.929 . S
C1187 C1186 1.399 . S
C1187 C1188 1.385 . S
C1188 H1174 0.931 . S
C1188 C1187 1.385 . S
C1188 C1189 1.389 . S
C1189 C1188 1.389 . S
C1189 C1190 1.387 . S
C1190 H1175 0.930 . S
C1190 C1185 1.390 . S
C1190 C1189 1.387 . S
H1191 C1203 0.930 . S
H1192 C1205 0.930 . S
H1193 C1206 0.930 . S
H1194 C1210 0.959 . S
H1195 C1210 0.959 . S
H1196 C1210 0.961 . S
H1197 C1211 0.960 . S
H1198 C1211 0.961 . S
H1199 C1211 0.959 . S
H1200 C1214 0.929 . S
H1201 C1215 0.931 . S
H1202 C1217 0.930 . S
C1203 H1191 0.930 . S
C1203 C1204 1.399 . S
C1203 C1208 1.399 . S
C1204 C1203 1.399 . S
C1204 C1205 1.376 . S
C1205 H1192 0.930 . S
C1205 C1204 1.376 . S
C1205 C1206 1.388 . S
C1206 H1193 0.930 . S
C1206 C1205 1.388 . S
C1206 C1207 1.390 . S
C1207 C1206 1.390 . S
C1207 C1208 1.394 . S
C1207 C1213 1.465 . S
C1208 C1203 1.399 . S
C1208 C1207 1.394 . S
C1208 C1209 1.516 . S
C1209 C1208 1.516 . S
C1209 C1210 1.502 . S
C1209 C1211 1.561 . S
C1209 C1212 1.526 . S
C1210 H1194 0.959 . S
C1210 H1195 0.959 . S
C1210 H1196 0.961 . S
C1210 C1209 1.502 . S
C1211 H1197 0.960 . S
C1211 H1198 0.961 . S
C1211 H1199 0.959 . S
C1211 C1209 1.561 . S
C1212 C1209 1.526 . S
C1212 C1213 1.396 . S
C1212 C1217 1.390 . S
C1213 C1207 1.465 . S
C1213 C1212 1.396 . S
C1213 C1214 1.399 . S
C1214 H1200 0.929 . S
C1214 C1213 1.399 . S
C1214 C1215 1.385 . S
C1215 H1201 0.931 . S
C1215 C1214 1.385 . S
C1215 C1216 1.389 . S
C1216 C1215 1.389 . S
C1216 C1217 1.387 . S
C1217 H1202 0.930 . S
C1217 C1212 1.390 . S
C1217 C1216 1.387 . S
H1218 C1230 0.932 1_545 S
H1219 C1232 0.930 . S
H1220 C1233 0.930 . S
H1221 C1237 0.959 . S
H1222 C1237 0.959 . S
H1223 C1237 0.961 . S
H1224 C1238 0.960 . S
H1225 C1238 0.961 . S
H1226 C1238 0.959 . S
H1227 C1241 0.929 . S
H1228 C1242 0.931 . S
H1229 C1244 0.930 . S
C1230 H1218 0.932 1_565 S
C1230 C1231 1.399 . S
C1230 C1235 1.393 . S
C1231 C1230 1.399 . S
C1231 C1232 1.376 . S
C1232 H1219 0.930 . S
C1232 C1231 1.376 . S
C1232 C1233 1.388 . S
C1233 H1220 0.930 . S
C1233 C1232 1.388 . S
C1233 C1234 1.390 . S
C1234 C1233 1.390 . S
C1234 C1235 1.397 . S
C1234 C1240 1.465 . S
C1235 C1230 1.393 . S
C1235 C1234 1.397 . S
C1235 C1236 1.517 1_565 S
C1236 C1235 1.517 1_545 S
C1236 C1237 1.502 . S
C1236 C1238 1.561 1_545 S
C1236 C1239 1.526 . S
C1237 H1221 0.959 . S
C1237 H1222 0.959 . S
C1237 H1223 0.961 . S
C1237 C1236 1.502 . S
C1238 H1224 0.960 . S
C1238 H1225 0.961 . S
C1238 H1226 0.959 . S
C1238 C1236 1.561 1_565 S
C1239 C1236 1.526 . S
C1239 C1240 1.396 1_545 S
C1239 C1244 1.390 . S
C1240 C1234 1.465 . S
C1240 C1239 1.396 1_565 S
C1240 C1241 1.399 . S
C1241 H1227 0.929 . S
C1241 C1240 1.399 . S
C1241 C1242 1.385 . S
C1242 H1228 0.931 . S
C1242 C1241 1.385 . S
C1242 C1243 1.389 1_565 S
C1243 C1242 1.389 1_545 S
C1243 C1244 1.387 . S
C1244 H1229 0.930 . S
C1244 C1239 1.390 . S
C1244 C1243 1.387 . S
H1245 C1257 0.930 . S
H1246 C1259 0.930 . S
H1247 C1260 0.930 . S
H1248 C1264 0.959 . S
H1249 C1264 0.959 . S
H1250 C1264 0.961 . S
H1251 C1265 0.960 . S
H1252 C1265 0.961 . S
H1253 C1265 0.959 . S
H1254 C1268 0.929 . S
H1255 C1269 0.931 . S
H1256 C1271 0.930 . S
C1257 H1245 0.930 . S
C1257 C1258 1.399 . S
C1257 C1262 1.399 . S
C1258 C1257 1.399 . S
C1258 C1259 1.376 . S
C1259 H1246 0.930 . S
C1259 C1258 1.376 . S
C1259 C1260 1.388 . S
C1260 H1247 0.930 . S
C1260 C1259 1.388 . S
C1260 C1261 1.390 . S
C1261 C1260 1.390 . S
C1261 C1262 1.394 . S
C1261 C1267 1.465 . S
C1262 C1257 1.399 . S
C1262 C1261 1.394 . S
C1262 C1263 1.516 . S
C1263 C1262 1.516 . S
C1263 C1264 1.502 . S
C1263 C1265 1.561 . S
C1263 C1266 1.526 . S
C1264 H1248 0.959 . S
C1264 H1249 0.959 . S
C1264 H1250 0.961 . S
C1264 C1263 1.502 . S
C1265 H1251 0.960 . S
C1265 H1252 0.961 . S
C1265 H1253 0.959 . S
C1265 C1263 1.561 . S
C1266 C1263 1.526 . S
C1266 C1267 1.396 . S
C1266 C1271 1.390 . S
C1267 C1261 1.465 . S
C1267 C1266 1.396 . S
C1267 C1268 1.399 . S
C1268 H1254 0.929 . S
C1268 C1267 1.399 . S
C1268 C1269 1.385 . S
C1269 H1255 0.931 . S
C1269 C1268 1.385 . S
C1269 C1270 1.389 . S
C1270 C1269 1.389 . S
C1270 C1271 1.387 . S
C1271 H1256 0.930 . S
C1271 C1266 1.390 . S
C1271 C1270 1.387 . S
H1272 C1284 0.930 . S
H1273 C1286 0.930 . S
H1274 C1287 0.930 . S
H1275 C1291 0.959 . S
H1276 C1291 0.959 . S
H1277 C1291 0.961 . S
H1278 C1292 0.960 . S
H1279 C1292 0.961 . S
H1280 C1292 0.959 . S
H1281 C1295 0.929 . S
H1282 C1296 0.931 . S
H1283 C1298 0.930 . S
C1284 H1272 0.930 . S
C1284 C1285 1.399 . S
C1284 C1289 1.399 . S
C1285 C1284 1.399 . S
C1285 C1286 1.376 1_655 S
C1286 H1273 0.930 . S
C1286 C1285 1.376 1_455 S
C1286 C1287 1.388 . S
C1287 H1274 0.930 . S
C1287 C1286 1.388 . S
C1287 C1288 1.390 . S
C1288 C1287 1.390 . S
C1288 C1289 1.394 1_455 S
C1288 C1294 1.465 . S
C1289 C1284 1.399 . S
C1289 C1288 1.394 1_655 S
C1289 C1290 1.516 . S
C1290 C1289 1.516 . S
C1290 C1291 1.502 . S
C1290 C1292 1.561 1_655 S
C1290 C1293 1.553 . S
C1291 H1275 0.959 . S
C1291 H1276 0.959 . S
C1291 H1277 0.961 . S
C1291 C1290 1.502 . S
C1292 H1278 0.960 . S
C1292 H1279 0.961 . S
C1292 H1280 0.959 . S
C1292 C1290 1.561 1_455 S
C1293 C1290 1.553 . S
C1293 C1294 1.391 1_655 S
C1293 C1298 1.370 . S
C1294 C1288 1.465 . S
C1294 C1293 1.391 1_455 S
C1294 C1295 1.399 . S
C1295 H1281 0.929 . S
C1295 C1294 1.399 . S
C1295 C1296 1.385 . S
C1296 H1282 0.931 . S
C1296 C1295 1.385 . S
C1296 C1297 1.389 . S
C1297 C1296 1.389 . S
C1297 C1298 1.387 1_455 S
C1298 H1283 0.930 . S
C1298 C1293 1.370 . S
C1298 C1297 1.387 1_655 S
H1299 C1311 0.930 . S
H1300 C1313 0.930 . S
H1301 C1314 0.930 . S
H1302 C1318 0.959 . S
H1303 C1318 0.959 . S
H1304 C1318 0.961 . S
H1305 C1319 0.960 . S
H1306 C1319 0.961 . S
H1307 C1319 0.959 . S
H1308 C1322 0.929 . S
H1309 C1323 0.931 . S
H1310 C1325 0.930 . S
C1311 H1299 0.930 . S
C1311 C1312 1.399 1_655 S
C1311 C1316 1.399 . S
C1312 C1311 1.399 1_455 S
C1312 C1313 1.376 . S
C1313 H1300 0.930 . S
C1313 C1312 1.376 . S
C1313 C1314 1.388 . S
C1314 H1301 0.930 . S
C1314 C1313 1.388 . S
C1314 C1315 1.390 . S
C1315 C1314 1.390 . S
C1315 C1316 1.394 1_455 S
C1315 C1321 1.465 . S
C1316 C1311 1.399 . S
C1316 C1315 1.394 1_655 S
C1316 C1317 1.516 . S
C1317 C1316 1.516 . S
C1317 C1318 1.502 . S
C1317 C1319 1.561 1_655 S
C1317 C1320 1.526 . S
C1318 H1302 0.959 . S
C1318 H1303 0.959 . S
C1318 H1304 0.961 . S
C1318 C1317 1.502 . S
C1319 H1305 0.960 . S
C1319 H1306 0.961 . S
C1319 H1307 0.959 . S
C1319 C1317 1.561 1_455 S
C1320 C1317 1.526 . S
C1320 C1321 1.396 1_655 S
C1320 C1325 1.390 . S
C1321 C1315 1.465 . S
C1321 C1320 1.396 1_455 S
C1321 C1322 1.399 . S
C1322 H1308 0.929 . S
C1322 C1321 1.399 . S
C1322 C1323 1.385 . S
C1323 H1309 0.931 . S
C1323 C1322 1.385 . S
C1323 C1324 1.389 1_455 S
C1324 C1323 1.389 1_655 S
C1324 C1325 1.387 . S
C1325 H1310 0.930 . S
C1325 C1320 1.390 . S
C1325 C1324 1.387 . S
H1326 C1338 0.937 . S
H1327 C1340 0.930 . S
H1328 C1341 0.930 . S
H1329 C1345 0.959 . S
H1330 C1345 0.959 . S
H1331 C1345 0.961 . S
H1332 C1346 0.960 . S
H1333 C1346 0.961 . S
H1334 C1346 0.959 . S
H1335 C1349 0.929 . S
H1336 C1350 0.931 . S
H1337 C1352 0.930 . S
C1338 H1326 0.937 . S
C1338 C1339 1.371 1_545 S
C1338 C1343 1.412 . S
C1339 C1338 1.371 1_565 S
C1339 C1340 1.376 . S
C1340 H1327 0.930 . S
C1340 C1339 1.376 . S
C1340 C1341 1.388 . S
C1341 H1328 0.930 . S
C1341 C1340 1.388 . S
C1341 C1342 1.390 . S
C1342 C1341 1.390 . S
C1342 C1343 1.391 1_565 S
C1342 C1348 1.465 . S
C1343 C1338 1.412 . S
C1343 C1342 1.391 1_545 S
C1343 C1344 1.529 . S
C1344 C1343 1.529 . S
C1344 C1345 1.502 . S
C1344 C1346 1.561 1_545 S
C1344 C1347 1.526 . S
C1345 H1329 0.959 . S
C1345 H1330 0.959 . S
C1345 H1331 0.961 . S
C1345 C1344 1.502 . S
C1346 H1332 0.960 . S
C1346 H1333 0.961 . S
C1346 H1334 0.959 . S
C1346 C1344 1.561 1_565 S
C1347 C1344 1.526 . S
C1347 C1348 1.396 1_545 S
C1347 C1352 1.390 . S
C1348 C1342 1.465 . S
C1348 C1347 1.396 1_565 S
C1348 C1349 1.399 . S
C1349 H1335 0.929 . S
C1349 C1348 1.399 . S
C1349 C1350 1.385 . S
C1350 H1336 0.931 . S
C1350 C1349 1.385 . S
C1350 C1351 1.389 1_565 S
C1351 C1350 1.389 1_545 S
C1351 C1352 1.387 . S
C1352 H1337 0.930 . S
C1352 C1347 1.390 . S
C1352 C1351 1.387 . S
H1353 C1365 0.930 . S
H1354 C1367 0.930 . S
H1355 C1368 0.930 . S
H1356 C1372 0.959 . S
H1357 C1372 0.959 . S
H1358 C1372 0.961 . S
H1359 C1373 0.960 . S
H1360 C1373 0.961 . S
H1361 C1373 0.959 . S
H1362 C1376 0.929 . S
H1363 C1377 0.931 . S
H1364 C1379 0.930 . S
C1365 H1353 0.930 . S
C1365 C1366 1.399 . S
C1365 C1370 1.399 . S
C1366 C1365 1.399 . S
C1366 C1367 1.376 . S
C1367 H1354 0.930 . S
C1367 C1366 1.376 . S
C1367 C1368 1.388 . S
C1368 H1355 0.930 . S
C1368 C1367 1.388 . S
C1368 C1369 1.390 . S
C1369 C1368 1.390 . S
C1369 C1370 1.394 . S
C1369 C1375 1.465 . S
C1370 C1365 1.399 . S
C1370 C1369 1.394 . S
C1370 C1371 1.516 . S
C1371 C1370 1.516 . S
C1371 C1372 1.502 . S
C1371 C1373 1.561 . S
C1371 C1374 1.526 . S
C1372 H1356 0.959 . S
C1372 H1357 0.959 . S
C1372 H1358 0.961 . S
C1372 C1371 1.502 . S
C1373 H1359 0.960 . S
C1373 H1360 0.961 . S
C1373 H1361 0.959 . S
C1373 C1371 1.561 . S
C1374 C1371 1.526 . S
C1374 C1375 1.396 . S
C1374 C1379 1.390 . S
C1375 C1369 1.465 . S
C1375 C1374 1.396 . S
C1375 C1376 1.399 . S
C1376 H1362 0.929 . S
C1376 C1375 1.399 . S
C1376 C1377 1.385 . S
C1377 H1363 0.931 . S
C1377 C1376 1.385 . S
C1377 C1378 1.389 . S
C1378 C1377 1.389 . S
C1378 C1379 1.387 . S
C1379 H1364 0.930 . S
C1379 C1374 1.390 . S
C1379 C1378 1.387 . S
H1380 C1392 0.930 . S
H1381 C1394 0.930 . S
H1382 C1395 0.930 . S
H1383 C1399 0.959 . S
H1384 C1399 0.959 . S
H1385 C1399 0.961 . S
H1386 C1400 0.960 . S
H1387 C1400 0.961 . S
H1388 C1400 0.959 . S
H1389 C1403 0.929 . S
H1390 C1404 0.931 . S
H1391 C1406 0.930 . S
C1392 H1380 0.930 . S
C1392 C1393 1.399 . S
C1392 C1397 1.399 . S
C1393 C1392 1.399 . S
C1393 C1394 1.376 . S
C1394 H1381 0.930 . S
C1394 C1393 1.376 . S
C1394 C1395 1.388 . S
C1395 H1382 0.930 . S
C1395 C1394 1.388 . S
C1395 C1396 1.390 . S
C1396 C1395 1.390 . S
C1396 C1397 1.394 . S
C1396 C1402 1.465 . S
C1397 C1392 1.399 . S
C1397 C1396 1.394 . S
C1397 C1398 1.516 . S
C1398 C1397 1.516 . S
C1398 C1399 1.502 . S
C1398 C1400 1.561 . S
C1398 C1401 1.526 . S
C1399 H1383 0.959 . S
C1399 H1384 0.959 . S
C1399 H1385 0.961 . S
C1399 C1398 1.502 . S
C1400 H1386 0.960 . S
C1400 H1387 0.961 . S
C1400 H1388 0.959 . S
C1400 C1398 1.561 . S
C1401 C1398 1.526 . S
C1401 C1402 1.396 . S
C1401 C1406 1.390 . S
C1402 C1396 1.465 . S
C1402 C1401 1.396 . S
C1402 C1403 1.399 . S
C1403 H1389 0.929 . S
C1403 C1402 1.399 . S
C1403 C1404 1.385 . S
C1404 H1390 0.931 . S
C1404 C1403 1.385 . S
C1404 C1405 1.389 . S
C1405 C1404 1.389 . S
C1405 C1406 1.387 . S
C1406 H1391 0.930 . S
C1406 C1401 1.390 . S
C1406 C1405 1.387 . S
H1407 C1419 0.930 . S
H1408 C1421 0.930 . S
H1409 C1422 0.930 . S
H1410 C1426 0.959 . S
H1411 C1426 0.959 . S
H1412 C1426 0.961 . S
H1413 C1427 0.960 . S
H1414 C1427 0.961 . S
H1415 C1427 0.959 . S
H1416 C1430 0.929 . S
H1417 C1431 0.931 . S
H1418 C1433 0.930 . S
C1419 H1407 0.930 . S
C1419 C1420 1.399 . S
C1419 C1424 1.399 . S
C1420 C1419 1.399 . S
C1420 C1421 1.376 . S
C1421 H1408 0.930 . S
C1421 C1420 1.376 . S
C1421 C1422 1.388 . S
C1422 H1409 0.930 . S
C1422 C1421 1.388 . S
C1422 C1423 1.390 . S
C1423 C1422 1.390 . S
C1423 C1424 1.394 . S
C1423 C1429 1.465 . S
C1424 C1419 1.399 . S
C1424 C1423 1.394 . S
C1424 C1425 1.516 . S
C1425 C1424 1.516 . S
C1425 C1426 1.502 . S
C1425 C1427 1.561 . S
C1425 C1428 1.526 . S
C1426 H1410 0.959 . S
C1426 H1411 0.959 . S
C1426 H1412 0.961 . S
C1426 C1425 1.502 . S
C1427 H1413 0.960 . S
C1427 H1414 0.961 . S
C1427 H1415 0.959 . S
C1427 C1425 1.561 . S
C1428 C1425 1.526 . S
C1428 C1429 1.396 . S
C1428 C1433 1.390 . S
C1429 C1423 1.465 . S
C1429 C1428 1.396 . S
C1429 C1430 1.399 . S
C1430 H1416 0.929 . S
C1430 C1429 1.399 . S
C1430 C1431 1.385 . S
C1431 H1417 0.931 . S
C1431 C1430 1.385 . S
C1431 C1432 1.389 . S
C1432 C1431 1.389 . S
C1432 C1433 1.387 . S
C1433 H1418 0.930 . S
C1433 C1428 1.390 . S
C1433 C1432 1.387 . S
H1434 C1446 0.930 . S
H1435 C1448 0.930 . S
H1436 C1449 0.930 . S
H1437 C1453 0.959 . S
H1438 C1453 0.959 . S
H1439 C1453 0.961 . S
H1440 C1454 0.960 1_554 S
H1441 C1454 0.961 . S
H1442 C1454 0.959 . S
H1443 C1457 0.929 . S
H1444 C1458 0.931 . S
H1445 C1460 0.930 . S
C1446 H1434 0.930 . S
C1446 C1447 1.399 . S
C1446 C1451 1.399 . S
C1447 C1446 1.399 . S
C1447 C1448 1.376 . S
C1448 H1435 0.930 . S
C1448 C1447 1.376 . S
C1448 C1449 1.388 . S
C1449 H1436 0.930 . S
C1449 C1448 1.388 . S
C1449 C1450 1.390 . S
C1450 C1449 1.390 . S
C1450 C1451 1.394 . S
C1450 C1456 1.465 1_554 S
C1451 C1446 1.399 . S
C1451 C1450 1.394 . S
C1451 C1452 1.516 . S
C1452 C1451 1.516 . S
C1452 C1453 1.502 . S
C1452 C1454 1.561 1_554 S
C1452 C1455 1.526 1_554 S
C1453 H1437 0.959 . S
C1453 H1438 0.959 . S
C1453 H1439 0.961 . S
C1453 C1452 1.502 . S
C1454 H1440 0.960 1_556 S
C1454 H1441 0.961 . S
C1454 H1442 0.959 . S
C1454 C1452 1.561 1_556 S
C1455 C1452 1.526 1_556 S
C1455 C1456 1.396 . S
C1455 C1460 1.390 . S
C1456 C1450 1.465 1_556 S
C1456 C1455 1.396 . S
C1456 C1457 1.399 . S
C1457 H1443 0.929 . S
C1457 C1456 1.399 . S
C1457 C1458 1.385 . S
C1458 H1444 0.931 . S
C1458 C1457 1.385 . S
C1458 C1459 1.389 . S
C1459 C1458 1.389 . S
C1459 C1460 1.387 . S
C1460 H1445 0.930 . S
C1460 C1455 1.390 . S
C1460 C1459 1.387 . S
H1461 C1473 0.930 . S
H1462 C1475 0.930 . S
H1463 C1476 0.930 . S
H1464 C1480 0.959 . S
H1465 C1480 0.959 . S
H1466 C1480 0.961 . S
H1467 C1481 0.960 . S
H1468 C1481 0.961 . S
H1469 C1481 0.959 . S
H1470 C1484 0.929 . S
H1471 C1485 0.931 . S
H1472 C1487 0.930 . S
C1473 H1461 0.930 . S
C1473 C1474 1.399 . S
C1473 C1478 1.399 . S
C1474 C1473 1.399 . S
C1474 C1475 1.376 . S
C1475 H1462 0.930 . S
C1475 C1474 1.376 . S
C1475 C1476 1.388 . S
C1476 H1463 0.930 . S
C1476 C1475 1.388 . S
C1476 C1477 1.390 . S
C1477 C1476 1.390 . S
C1477 C1478 1.394 . S
C1477 C1483 1.465 . S
C1478 C1473 1.399 . S
C1478 C1477 1.394 . S
C1478 C1479 1.516 . S
C1479 C1478 1.516 . S
C1479 C1480 1.502 . S
C1479 C1481 1.561 . S
C1479 C1482 1.526 . S
C1480 H1464 0.959 . S
C1480 H1465 0.959 . S
C1480 H1466 0.961 . S
C1480 C1479 1.502 . S
C1481 H1467 0.960 . S
C1481 H1468 0.961 . S
C1481 H1469 0.959 . S
C1481 C1479 1.561 . S
C1482 C1479 1.526 . S
C1482 C1483 1.396 . S
C1482 C1487 1.390 . S
C1483 C1477 1.465 . S
C1483 C1482 1.396 . S
C1483 C1484 1.399 . S
C1484 H1470 0.929 . S
C1484 C1483 1.399 . S
C1484 C1485 1.385 . S
C1485 H1471 0.931 . S
C1485 C1484 1.385 . S
C1485 C1486 1.389 . S
C1486 C1485 1.389 . S
C1486 C1487 1.387 . S
C1487 H1472 0.930 . S
C1487 C1482 1.390 . S
C1487 C1486 1.387 . S
H1488 C1500 0.930 . S
H1489 C1502 0.930 . S
H1490 C1503 0.930 . S
H1491 C1507 0.959 . S
H1492 C1507 0.959 . S
H1493 C1507 0.961 . S
H1494 C1508 0.960 . S
H1495 C1508 0.961 . S
H1496 C1508 0.959 . S
H1497 C1511 0.929 . S
H1498 C1512 0.931 . S
H1499 C1514 0.930 . S
C1500 H1488 0.930 . S
C1500 C1501 1.399 . S
C1500 C1505 1.399 . S
C1501 C1500 1.399 . S
C1501 C1502 1.376 . S
C1502 H1489 0.930 . S
C1502 C1501 1.376 . S
C1502 C1503 1.388 . S
C1503 H1490 0.930 . S
C1503 C1502 1.388 . S
C1503 C1504 1.390 . S
C1504 C1503 1.390 . S
C1504 C1505 1.394 . S
C1504 C1510 1.465 . S
C1505 C1500 1.399 . S
C1505 C1504 1.394 . S
C1505 C1506 1.516 . S
C1506 C1505 1.516 . S
C1506 C1507 1.502 . S
C1506 C1508 1.561 . S
C1506 C1509 1.526 . S
C1507 H1491 0.959 . S
C1507 H1492 0.959 . S
C1507 H1493 0.961 . S
C1507 C1506 1.502 . S
C1508 H1494 0.960 . S
C1508 H1495 0.961 . S
C1508 H1496 0.959 . S
C1508 C1506 1.561 . S
C1509 C1506 1.526 . S
C1509 C1510 1.396 . S
C1509 C1514 1.390 . S
C1510 C1504 1.465 . S
C1510 C1509 1.396 . S
C1510 C1511 1.399 . S
C1511 H1497 0.929 . S
C1511 C1510 1.399 . S
C1511 C1512 1.385 . S
C1512 H1498 0.931 . S
C1512 C1511 1.385 . S
C1512 C1513 1.389 . S
C1513 C1512 1.389 . S
C1513 C1514 1.387 . S
C1514 H1499 0.930 . S
C1514 C1509 1.390 . S
C1514 C1513 1.387 . S
H1515 C1527 0.930 . S
H1516 C1529 0.930 . S
H1517 C1530 0.930 . S
H1518 C1534 0.959 . S
H1519 C1534 0.959 . S
H1520 C1534 0.961 . S
H1521 C1535 0.960 1_554 S
H1522 C1535 0.961 . S
H1523 C1535 0.959 . S
H1524 C1538 0.929 . S
H1525 C1539 0.931 . S
H1526 C1541 0.930 . S
C1527 H1515 0.930 . S
C1527 C1528 1.399 . S
C1527 C1532 1.399 . S
C1528 C1527 1.399 . S
C1528 C1529 1.376 . S
C1529 H1516 0.930 . S
C1529 C1528 1.376 . S
C1529 C1530 1.388 . S
C1530 H1517 0.930 . S
C1530 C1529 1.388 . S
C1530 C1531 1.390 . S
C1531 C1530 1.390 . S
C1531 C1532 1.394 . S
C1531 C1537 1.465 1_554 S
C1532 C1527 1.399 . S
C1532 C1531 1.394 . S
C1532 C1533 1.516 . S
C1533 C1532 1.516 . S
C1533 C1534 1.502 . S
C1533 C1535 1.561 1_554 S
C1533 C1536 1.526 1_554 S
C1534 H1518 0.959 . S
C1534 H1519 0.959 . S
C1534 H1520 0.961 . S
C1534 C1533 1.502 . S
C1535 H1521 0.960 1_556 S
C1535 H1522 0.961 . S
C1535 H1523 0.959 . S
C1535 C1533 1.561 1_556 S
C1536 C1533 1.526 1_556 S
C1536 C1537 1.396 . S
C1536 C1541 1.390 . S
C1537 C1531 1.465 1_556 S
C1537 C1536 1.396 . S
C1537 C1538 1.399 . S
C1538 H1524 0.929 . S
C1538 C1537 1.399 . S
C1538 C1539 1.385 . S
C1539 H1525 0.931 . S
C1539 C1538 1.385 . S
C1539 C1540 1.389 . S
C1540 C1539 1.389 . S
C1540 C1541 1.387 . S
C1541 H1526 0.930 . S
C1541 C1536 1.390 . S
C1541 C1540 1.387 . S
H1542 C1554 0.930 . S
H1543 C1556 0.930 . S
H1544 C1557 0.930 . S
H1545 C1561 0.959 1_545 S
H1546 C1561 0.959 . S
H1547 C1561 0.974 . S
H1548 C1562 0.960 . S
H1549 C1562 0.961 . S
H1550 C1562 0.959 . S
H1551 C1565 0.929 1_545 S
H1552 C1566 0.931 . S
H1553 C1568 0.930 . S
C1554 H1542 0.930 . S
C1554 C1555 1.399 . S
C1554 C1559 1.399 . S
C1555 C1554 1.399 . S
C1555 C1556 1.376 . S
C1556 H1543 0.930 . S
C1556 C1555 1.376 . S
C1556 C1557 1.388 . S
C1557 H1544 0.930 . S
C1557 C1556 1.388 . S
C1557 C1558 1.390 . S
C1558 C1557 1.390 . S
C1558 C1559 1.394 . S
C1558 C1564 1.465 1_545 S
C1559 C1554 1.399 . S
C1559 C1558 1.394 . S
C1559 C1560 1.516 1_545 S
C1560 C1559 1.516 1_565 S
C1560 C1561 1.502 . S
C1560 C1562 1.561 . S
C1560 C1563 1.526 . S
C1561 H1545 0.959 1_565 S
C1561 H1546 0.959 . S
C1561 H1547 0.974 . S
C1561 C1560 1.502 . S
C1562 H1548 0.960 . S
C1562 H1549 0.961 . S
C1562 H1550 0.959 . S
C1562 C1560 1.561 . S
C1563 C1560 1.526 . S
C1563 C1564 1.396 . S
C1563 C1568 1.390 . S
C1564 C1558 1.465 1_565 S
C1564 C1563 1.396 . S
C1564 C1565 1.399 . S
C1565 H1551 0.929 1_565 S
C1565 C1564 1.399 . S
C1565 C1566 1.385 . S
C1566 H1552 0.931 . S
C1566 C1565 1.385 . S
C1566 C1567 1.389 . S
C1567 C1566 1.389 . S
C1567 C1568 1.387 . S
C1568 H1553 0.930 . S
C1568 C1563 1.390 . S
C1568 C1567 1.387 . S
H1569 C1581 0.930 . S
H1570 C1583 0.930 . S
H1571 C1584 0.930 . S
H1572 C1588 0.959 . S
H1573 C1588 0.959 . S
H1574 C1588 0.961 . S
H1575 C1589 0.960 . S
H1576 C1589 0.961 . S
H1577 C1589 0.959 . S
H1578 C1592 0.929 . S
H1579 C1593 0.931 . S
H1580 C1595 0.930 . S
C1581 H1569 0.930 . S
C1581 C1582 1.399 . S
C1581 C1586 1.399 . S
C1582 C1581 1.399 . S
C1582 C1583 1.376 . S
C1583 H1570 0.930 . S
C1583 C1582 1.376 . S
C1583 C1584 1.388 . S
C1584 H1571 0.930 . S
C1584 C1583 1.388 . S
C1584 C1585 1.390 . S
C1585 C1584 1.390 . S
C1585 C1586 1.394 . S
C1585 C1591 1.465 . S
C1586 C1581 1.399 . S
C1586 C1585 1.394 . S
C1586 C1587 1.516 . S
C1587 C1586 1.516 . S
C1587 C1588 1.502 . S
C1587 C1589 1.561 . S
C1587 C1590 1.526 . S
C1588 H1572 0.959 . S
C1588 H1573 0.959 . S
C1588 H1574 0.961 . S
C1588 C1587 1.502 . S
C1589 H1575 0.960 . S
C1589 H1576 0.961 . S
C1589 H1577 0.959 . S
C1589 C1587 1.561 . S
C1590 C1587 1.526 . S
C1590 C1591 1.396 . S
C1590 C1595 1.390 . S
C1591 C1585 1.465 . S
C1591 C1590 1.396 . S
C1591 C1592 1.399 . S
C1592 H1578 0.929 . S
C1592 C1591 1.399 . S
C1592 C1593 1.385 . S
C1593 H1579 0.931 . S
C1593 C1592 1.385 . S
C1593 C1594 1.389 . S
C1594 C1593 1.389 . S
C1594 C1595 1.387 . S
C1595 H1580 0.930 . S
C1595 C1590 1.390 . S
C1595 C1594 1.387 . S
H1596 C1608 0.930 . S
H1597 C1610 0.930 . S
H1598 C1611 0.930 . S
H1599 C1615 0.959 . S
H1600 C1615 0.959 . S
H1601 C1615 0.961 . S
H1602 C1616 0.960 . S
H1603 C1616 0.961 . S
H1604 C1616 0.959 . S
H1605 C1619 0.929 . S
H1606 C1620 0.931 . S
H1607 C1622 0.930 . S
C1608 H1596 0.930 . S
C1608 C1609 1.399 . S
C1608 C1613 1.399 . S
C1609 C1608 1.399 . S
C1609 C1610 1.376 . S
C1610 H1597 0.930 . S
C1610 C1609 1.376 . S
C1610 C1611 1.388 1_455 S
C1611 H1598 0.930 . S
C1611 C1610 1.388 1_655 S
C1611 C1612 1.394 1_655 S
C1612 C1611 1.394 1_455 S
C1612 C1613 1.400 . S
C1612 C1618 1.456 1_455 S
C1613 C1608 1.399 . S
C1613 C1612 1.400 . S
C1613 C1614 1.516 . S
C1614 C1613 1.516 . S
C1614 C1615 1.502 . S
C1614 C1616 1.561 . S
C1614 C1617 1.526 1_455 S
C1615 H1599 0.959 . S
C1615 H1600 0.959 . S
C1615 H1601 0.961 . S
C1615 C1614 1.502 . S
C1616 H1602 0.960 . S
C1616 H1603 0.961 . S
C1616 H1604 0.959 . S
C1616 C1614 1.561 . S
C1617 C1614 1.526 1_655 S
C1617 C1618 1.396 . S
C1617 C1622 1.390 . S
C1618 C1612 1.456 1_655 S
C1618 C1617 1.396 . S
C1618 C1619 1.399 . S
C1619 H1605 0.929 . S
C1619 C1618 1.399 . S
C1619 C1620 1.385 . S
C1620 H1606 0.931 . S
C1620 C1619 1.385 . S
C1620 C1621 1.389 . S
C1621 C1620 1.389 . S
C1621 C1622 1.387 . S
C1622 H1607 0.930 . S
C1622 C1617 1.390 . S
C1622 C1621 1.387 . S
H1623 C1635 0.930 . S
H1624 C1637 0.930 . S
H1625 C1638 0.930 . S
H1626 C1642 0.959 . S
H1627 C1642 0.959 . S
H1628 C1642 0.961 . S
H1629 C1643 0.960 . S
H1630 C1643 0.961 . S
H1631 C1643 0.959 . S
H1632 C1646 0.929 . S
H1633 C1647 0.931 . S
H1634 C1649 0.930 . S
C1635 H1623 0.930 . S
C1635 C1636 1.399 . S
C1635 C1640 1.399 . S
C1636 C1635 1.399 . S
C1636 C1637 1.376 . S
C1637 H1624 0.930 . S
C1637 C1636 1.376 . S
C1637 C1638 1.388 . S
C1638 H1625 0.930 . S
C1638 C1637 1.388 . S
C1638 C1639 1.390 . S
C1639 C1638 1.390 . S
C1639 C1640 1.394 . S
C1639 C1645 1.465 1_565 S
C1640 C1635 1.399 . S
C1640 C1639 1.394 . S
C1640 C1641 1.516 1_565 S
C1641 C1640 1.516 1_545 S
C1641 C1642 1.502 1_545 S
C1641 C1643 1.561 . S
C1641 C1644 1.526 . S
C1642 H1626 0.959 . S
C1642 H1627 0.959 . S
C1642 H1628 0.961 . S
C1642 C1641 1.502 1_565 S
C1643 H1629 0.960 . S
C1643 H1630 0.961 . S
C1643 H1631 0.959 . S
C1643 C1641 1.561 . S
C1644 C1641 1.526 . S
C1644 C1645 1.396 . S
C1644 C1649 1.390 . S
C1645 C1639 1.465 1_545 S
C1645 C1644 1.396 . S
C1645 C1646 1.399 . S
C1646 H1632 0.929 . S
C1646 C1645 1.399 . S
C1646 C1647 1.385 . S
C1647 H1633 0.931 . S
C1647 C1646 1.385 . S
C1647 C1648 1.389 . S
C1648 C1647 1.389 . S
C1648 C1649 1.387 . S
C1649 H1634 0.930 . S
C1649 C1644 1.390 . S
C1649 C1648 1.387 . S
H1650 C1662 0.930 . S
H1651 C1664 0.930 . S
H1652 C1665 0.930 . S
H1653 C1669 0.959 . S
H1654 C1669 0.959 . S
H1655 C1669 0.961 . S
H1656 C1670 0.960 . S
H1657 C1670 0.961 . S
H1658 C1670 0.959 . S
H1659 C1673 0.929 . S
H1660 C1674 0.931 . S
H1661 C1676 0.930 . S
C1662 H1650 0.930 . S
C1662 C1663 1.399 . S
C1662 C1667 1.399 . S
C1663 C1662 1.399 . S
C1663 C1664 1.376 . S
C1664 H1651 0.930 . S
C1664 C1663 1.376 . S
C1664 C1665 1.388 . S
C1665 H1652 0.930 . S
C1665 C1664 1.388 . S
C1665 C1666 1.390 . S
C1666 C1665 1.390 . S
C1666 C1667 1.394 . S
C1666 C1672 1.465 . S
C1667 C1662 1.399 . S
C1667 C1666 1.394 . S
C1667 C1668 1.516 . S
C1668 C1667 1.516 . S
C1668 C1669 1.502 . S
C1668 C1670 1.561 . S
C1668 C1671 1.526 . S
C1669 H1653 0.959 . S
C1669 H1654 0.959 . S
C1669 H1655 0.961 . S
C1669 C1668 1.502 . S
C1670 H1656 0.960 . S
C1670 H1657 0.961 . S
C1670 H1658 0.959 . S
C1670 C1668 1.561 . S
C1671 C1668 1.526 . S
C1671 C1672 1.396 . S
C1671 C1676 1.390 . S
C1672 C1666 1.465 . S
C1672 C1671 1.396 . S
C1672 C1673 1.399 . S
C1673 H1659 0.929 . S
C1673 C1672 1.399 . S
C1673 C1674 1.385 . S
C1674 H1660 0.931 . S
C1674 C1673 1.385 . S
C1674 C1675 1.389 . S
C1675 C1674 1.389 . S
C1675 C1676 1.387 . S
C1676 H1661 0.930 . S
C1676 C1671 1.390 . S
C1676 C1675 1.387 . S
H1677 C1689 0.930 . S
H1678 C1691 0.930 . S
H1679 C1692 0.930 . S
H1680 C1696 0.990 . S
H1681 C1696 0.976 . S
H1682 C1696 0.952 1_655 S
H1683 C1697 0.960 . S
H1684 C1697 0.961 . S
H1685 C1697 0.959 . S
H1686 C1700 0.929 . S
H1687 C1701 0.931 . S
H1688 C1703 0.930 . S
C1689 H1677 0.930 . S
C1689 C1690 1.399 . S
C1689 C1694 1.399 . S
C1690 C1689 1.399 . S
C1690 C1691 1.376 . S
C1691 H1678 0.930 . S
C1691 C1690 1.376 . S
C1691 C1692 1.388 . S
C1692 H1679 0.930 . S
C1692 C1691 1.388 . S
C1692 C1693 1.390 . S
C1693 C1692 1.390 . S
C1693 C1694 1.394 . S
C1693 C1699 1.465 1_655 S
C1694 C1689 1.399 . S
C1694 C1693 1.394 . S
C1694 C1695 1.516 . S
C1695 C1694 1.516 . S
C1695 C1696 1.467 1_655 S
C1695 C1697 1.561 . S
C1695 C1698 1.526 1_655 S
C1696 H1680 0.990 . S
C1696 H1681 0.976 . S
C1696 H1682 0.952 1_455 S
C1696 C1695 1.467 1_455 S
C1697 H1683 0.960 . S
C1697 H1684 0.961 . S
C1697 H1685 0.959 . S
C1697 C1695 1.561 . S
C1698 C1695 1.526 1_455 S
C1698 C1699 1.396 . S
C1698 C1703 1.390 . S
C1699 C1693 1.465 1_455 S
C1699 C1698 1.396 . S
C1699 C1700 1.399 . S
C1700 H1686 0.929 . S
C1700 C1699 1.399 . S
C1700 C1701 1.385 . S
C1701 H1687 0.931 . S
C1701 C1700 1.385 . S
C1701 C1702 1.389 . S
C1702 C1701 1.389 . S
C1702 C1703 1.387 . S
C1703 H1688 0.930 . S
C1703 C1698 1.390 . S
C1703 C1702 1.387 . S
C1069 C57 1.920 . S
C1081 C733 1.928 . S
C1096 C145 1.920 . S
C1108 C812 1.927 . S
C1123 C900 1.869 . S
C1135 C233 1.860 . S
C1150 C988 1.919 . S
C1162 C321 1.928 . S
C1177 C557 1.920 . S
C1189 C401 1.922 . S
C1204 C645 1.877 . S
C1216 C497 1.857 . S
C1231 C20 1.548 . S
C1243 C284 1.546 . S
C1258 C381 1.539 . S
C1270 C108 1.526 . S
C1285 C460 1.453 . S
C1297 C196 1.456 . S
C1312 C577 1.547 . S
C1324 C849 1.544 . S
C1339 C937 1.492 . S
C1351 C665 1.477 . S
C1366 C753 1.540 . S
C1378 C1025 1.530 . S
C1393 C548 1.485 . S
C1405 C49 1.459 . S
C1420 C137 1.408 . S
C1432 C636 1.418 . S
C1447 C724 1.370 . S
C1459 C225 1.460 . S
C1474 C821 1.488 . S
C1486 C313 1.418 . S
C1501 C409 1.368 . S
C1513 C909 1.487 . S
C1528 C997 1.372 . S
C1540 C489 1.457 . S
C1555 C29 0.798 . S
C1567 C673 0.776 . S
C1582 C761 0.703 . S
C1594 C117 0.847 . S
C1609 C841 0.793 . S
C1621 C205 0.862 . S
C1636 C293 0.761 . S
C1648 C929 0.812 . S
C1663 C1017 0.864 . S
C1675 C372 0.727 . S
C1690 C585 0.829 . S
C1702 C469 0.833 . S
