# Generated by pormake.
# Topology zff, (5)-cn, num edge types: 1
# Building blocks:
#     Node 0, Type 0, BuildingBlock: XOMCOT_clean_sbu_0, # of connection points: 5
#     Node 1, Type 0, BuildingBlock: XOMCOT_clean_sbu_0, # of connection points: 5
#     Node 2, Type 0, BuildingBlock: XOMCOT_clean_sbu_0, # of connection points: 5
#     Node 3, Type 0, BuildingBlock: XOMCOT_clean_sbu_0, # of connection points: 5
#     Node 4, Type 0, BuildingBlock: XOMCOT_clean_sbu_0, # of connection points: 5
#     Node 5, Type 0, BuildingBlock: XOMCOT_clean_sbu_0, # of connection points: 5
#     Node 6, Type 0, BuildingBlock: XOMCOT_clean_sbu_0, # of connection points: 5
#     Node 7, Type 0, BuildingBlock: XOMCOT_clean_sbu_0, # of connection points: 5
#     Node 8, Type 0, BuildingBlock: XOMCOT_clean_sbu_0, # of connection points: 5
#     Node 9, Type 0, BuildingBlock: XOMCOT_clean_sbu_0, # of connection points: 5
#     Node 10, Type 0, BuildingBlock: XOMCOT_clean_sbu_0, # of connection points: 5
#     Node 11, Type 0, BuildingBlock: XOMCOT_clean_sbu_0, # of connection points: 5
#     Node 12, Type 0, BuildingBlock: XOMCOT_clean_sbu_0, # of connection points: 5
#     Node 13, Type 0, BuildingBlock: XOMCOT_clean_sbu_0, # of connection points: 5
#     Node 14, Type 0, BuildingBlock: XOMCOT_clean_sbu_0, # of connection points: 5
#     Node 15, Type 0, BuildingBlock: XOMCOT_clean_sbu_0, # of connection points: 5
#     Edge 16, Type (0, 0), BuildingBlock: AJUNOK_clean_linker_0, # of connection points: 2
#     Edge 17, Type (0, 0), BuildingBlock: AJUNOK_clean_linker_0, # of connection points: 2
#     Edge 18, Type (0, 0), BuildingBlock: AJUNOK_clean_linker_0, # of connection points: 2
#     Edge 19, Type (0, 0), BuildingBlock: AJUNOK_clean_linker_0, # of connection points: 2
#     Edge 20, Type (0, 0), BuildingBlock: AJUNOK_clean_linker_0, # of connection points: 2
#     Edge 21, Type (0, 0), BuildingBlock: AJUNOK_clean_linker_0, # of connection points: 2
#     Edge 22, Type (0, 0), BuildingBlock: AJUNOK_clean_linker_0, # of connection points: 2
#     Edge 23, Type (0, 0), BuildingBlock: AJUNOK_clean_linker_0, # of connection points: 2
#     Edge 24, Type (0, 0), BuildingBlock: AJUNOK_clean_linker_0, # of connection points: 2
#     Edge 25, Type (0, 0), BuildingBlock: AJUNOK_clean_linker_0, # of connection points: 2
#     Edge 26, Type (0, 0), BuildingBlock: AJUNOK_clean_linker_0, # of connection points: 2
#     Edge 27, Type (0, 0), BuildingBlock: AJUNOK_clean_linker_0, # of connection points: 2
#     Edge 28, Type (0, 0), BuildingBlock: AJUNOK_clean_linker_0, # of connection points: 2
#     Edge 29, Type (0, 0), BuildingBlock: AJUNOK_clean_linker_0, # of connection points: 2
#     Edge 30, Type (0, 0), BuildingBlock: AJUNOK_clean_linker_0, # of connection points: 2
#     Edge 31, Type (0, 0), BuildingBlock: AJUNOK_clean_linker_0, # of connection points: 2
#     Edge 32, Type (0, 0), BuildingBlock: AJUNOK_clean_linker_0, # of connection points: 2
#     Edge 33, Type (0, 0), BuildingBlock: AJUNOK_clean_linker_0, # of connection points: 2
#     Edge 34, Type (0, 0), BuildingBlock: AJUNOK_clean_linker_0, # of connection points: 2
#     Edge 35, Type (0, 0), BuildingBlock: AJUNOK_clean_linker_0, # of connection points: 2
#     Edge 36, Type (0, 0), BuildingBlock: AJUNOK_clean_linker_0, # of connection points: 2
#     Edge 37, Type (0, 0), BuildingBlock: AJUNOK_clean_linker_0, # of connection points: 2
#     Edge 38, Type (0, 0), BuildingBlock: AJUNOK_clean_linker_0, # of connection points: 2
#     Edge 39, Type (0, 0), BuildingBlock: AJUNOK_clean_linker_0, # of connection points: 2
#     Edge 40, Type (0, 0), BuildingBlock: AJUNOK_clean_linker_0, # of connection points: 2
#     Edge 41, Type (0, 0), BuildingBlock: AJUNOK_clean_linker_0, # of connection points: 2
#     Edge 42, Type (0, 0), BuildingBlock: AJUNOK_clean_linker_0, # of connection points: 2
#     Edge 43, Type (0, 0), BuildingBlock: AJUNOK_clean_linker_0, # of connection points: 2
#     Edge 44, Type (0, 0), BuildingBlock: AJUNOK_clean_linker_0, # of connection points: 2
#     Edge 45, Type (0, 0), BuildingBlock: AJUNOK_clean_linker_0, # of connection points: 2
#     Edge 46, Type (0, 0), BuildingBlock: AJUNOK_clean_linker_0, # of connection points: 2
#     Edge 47, Type (0, 0), BuildingBlock: AJUNOK_clean_linker_0, # of connection points: 2
#     Edge 48, Type (0, 0), BuildingBlock: AJUNOK_clean_linker_0, # of connection points: 2
#     Edge 49, Type (0, 0), BuildingBlock: AJUNOK_clean_linker_0, # of connection points: 2
#     Edge 50, Type (0, 0), BuildingBlock: AJUNOK_clean_linker_0, # of connection points: 2
#     Edge 51, Type (0, 0), BuildingBlock: AJUNOK_clean_linker_0, # of connection points: 2
#     Edge 52, Type (0, 0), BuildingBlock: AJUNOK_clean_linker_0, # of connection points: 2
#     Edge 53, Type (0, 0), BuildingBlock: AJUNOK_clean_linker_0, # of connection points: 2
#     Edge 54, Type (0, 0), BuildingBlock: AJUNOK_clean_linker_0, # of connection points: 2
#     Edge 55, Type (0, 0), BuildingBlock: AJUNOK_clean_linker_0, # of connection points: 2
# Relax obj value: 0.150
# Max RMSD: 0.220
# Mean RMSD: 0.220
data_MOF--net-zff--node1-XOMCOT_clean_sbu_0--edge1-AJUNOK_clean_linker_0
_symmetry_space_group_name_H-M    P1
_symmetry_Int_Tables_number       1
_symmetry_cell_setting            triclinic
loop_
_symmetry_equiv_pos_as_xyz
'x, y, z'
_cell_length_a     28.64672
_cell_length_b     28.747581
_cell_length_c     51.276494
_cell_angle_alpha  90.511648
_cell_angle_beta   90.015917
_cell_angle_gamma 89.913105
loop_
_atom_site_label
_atom_site_type_symbol
_atom_site_fract_x
_atom_site_fract_y
_atom_site_fract_z
_atom_type_partial_charge
Co0 Co 0.01146 0.30593 0.40156 0.0
C1 C 0.03665 0.34863 0.35158 0.0
C2 C 0.9639 0.33102 0.35222 0.0
C3 C 0.97411 0.35177 0.32872 0.0
N4 N 0.00325 0.32888 0.36643 0.0
N5 N 0.01999 0.36303 0.3283 0.0
H6 H 0.07252 0.35251 0.35783 0.0
H7 H 0.92998 0.31942 0.3587 0.0
C8 C 0.95543 0.21773 0.40496 0.0
O9 O 0.98665 0.19969 0.42057 0.0
N10 N 0.02216 0.28349 0.43745 0.0
C11 C 0.05434 0.2518 0.44506 0.0
C12 C 0.05469 0.2486 0.47162 0.0
C13 C 0.00312 0.29878 0.46028 0.0
N14 N 0.02215 0.2776 0.48142 0.0
C15 C 0.10687 0.27603 0.39483 0.0
C16 C 0.08466 0.19525 0.36783 0.0
C17 C 0.12939 0.19995 0.37851 0.0
C18 C 0.14142 0.24229 0.39061 0.0
C19 C 0.05145 0.22969 0.37248 0.0
N20 N 0.06161 0.26691 0.38817 0.0
H21 H 0.11533 0.30704 0.40591 0.0
H22 H 0.01695 0.22504 0.36447 0.0
H23 H 0.07549 0.23024 0.43253 0.0
H24 H 0.976 0.32491 0.46151 0.0
O25 O 0.04484 0.36269 0.41004 0.0
O26 O 0.96846 0.35185 0.41399 0.0
O27 O 0.96195 0.25747 0.39479 0.0
C28 C 0.00368 0.37993 0.4155 0.0
H29 H 0.94892 0.35943 0.31367 0.0
H30 H 0.0782 0.22703 0.48275 0.0
H31 H 0.0744 0.16389 0.35748 0.0
H32 H 0.17628 0.24802 0.39815 0.0
Co33 Co 0.66548 -0.00057 0.39823 0.0
C34 C 0.63322 0.02748 0.34559 0.0
C35 C 0.63492 0.95337 0.34909 0.0
C36 C 0.61438 0.96453 0.32557 0.0
N37 N 0.64768 0.99289 0.36154 0.0
N38 N 0.61294 0.01129 0.32351 0.0
H39 H 0.63344 0.06381 0.35084 0.0
H40 H 0.63814 0.91884 0.35711 0.0
C41 C 0.73312 0.92855 0.37691 0.0
O42 O 0.73546 0.95172 0.35498 0.0
N43 N 0.68098 0.00924 0.43489 0.0
C44 C 0.6891 0.05188 0.44511 0.0
C45 C 0.69319 0.04888 0.47158 0.0
C46 C 0.67908 0.98067 0.45577 0.0
N47 N 0.6867 0.00434 0.4785 0.0
C48 C 0.70688 0.08837 0.38327 0.0
C49 C 0.79711 0.06062 0.39441 0.0
C50 C 0.78895 0.10717 0.38864 0.0
C51 C 0.74334 0.12111 0.38242 0.0
C52 C 0.76018 0.02986 0.39573 0.0
N53 N 0.71556 0.04307 0.38976 0.0
H54 H 0.67148 0.10058 0.38123 0.0
H55 H 0.76786 -0.00341 0.40406 0.0
H56 H 0.68956 0.08387 0.43429 0.0
H57 H 0.67121 0.94393 0.45438 0.0
O58 O 0.61104 0.03955 0.40324 0.0
O59 O 0.61328 0.96296 0.40771 0.0
O60 O 0.70872 0.94423 0.3959 0.0
C61 C 0.58914 0.00083 0.40871 0.0
H62 H 0.6003 0.94 0.31152 0.0
H63 H 0.69796 0.07788 0.48493 0.0
H64 H 0.83165 0.04858 0.39978 0.0
H65 H 0.73547 0.15731 0.37872 0.0
Co66 Co 0.97087 0.65591 0.40666 0.0
C67 C 0.95792 0.60924 0.35518 0.0
C68 C 0.99325 0.67443 0.35128 0.0
C69 C 0.98113 0.65819 0.32673 0.0
N70 N 0.97859 0.64378 0.36927 0.0
N71 N 0.95887 0.61718 0.32924 0.0
H72 H 0.93858 0.5809 0.36364 0.0
H73 H 0.00826 0.70808 0.35565 0.0
C74 C 0.06343 0.69988 0.41242 0.0
O75 O 0.07659 0.65991 0.42209 0.0
N76 N 0.95905 0.66711 0.44359 0.0
C77 C 0.91516 0.66766 0.45314 0.0
C78 C 0.91657 0.6716 0.47972 0.0
C79 C 0.98698 0.67021 0.46488 0.0
N80 N 0.96153 0.67315 0.48723 0.0
C81 C 0.88539 0.69145 0.38404 0.0
C82 C 0.89565 0.78001 0.40501 0.0
C83 C 0.8562 0.76996 0.39 0.0
C84 C 0.85126 0.72531 0.3791 0.0
C85 C 0.92891 0.74568 0.40918 0.0
N86 N 0.92364 0.70209 0.39881 0.0
H87 H 0.88094 0.65666 0.37631 0.0
H88 H 0.95837 0.75389 0.42152 0.0
H89 H 0.8839 0.6642 0.44145 0.0
H90 H 0.02466 0.66852 0.46422 0.0
O91 O 0.9342 0.59874 0.40998 0.0
O92 O 0.01048 0.60471 0.41461 0.0
O93 O 0.02095 0.70558 0.40534 0.0
C94 C 0.97407 0.57856 0.41507 0.0
H95 H 0.98616 0.67636 0.30854 0.0
H96 H 0.8867 0.67283 0.49264 0.0
H97 H 0.90057 0.81419 0.41367 0.0
H98 H 0.82092 0.71648 0.36748 0.0
Co99 Co 0.31244 0.96919 0.40454 0.0
C100 C 0.3454 0.938 0.3523 0.0
C101 C 0.33199 0.01121 0.35277 0.0
C102 C 0.35163 -0.00079 0.32901 0.0
N103 N 0.32675 0.97249 0.36723 0.0
N104 N 0.36041 0.95317 0.32893 0.0
H105 H 0.35078 0.90293 0.35875 0.0
H106 H 0.32438 0.04616 0.3595 0.0
C107 C 0.23642 0.02807 0.38249 0.0
O108 O 0.23328 -0.00133 0.36279 0.0
N109 N 0.30108 0.96323 0.44188 0.0
C110 C 0.29586 0.92142 0.45331 0.0
C111 C 0.29699 0.92671 0.47976 0.0
C112 C 0.30626 -0.00623 0.46206 0.0
N113 N 0.30428 0.97185 0.48543 0.0
C114 C 0.28008 0.87556 0.39212 0.0
C115 C 0.18771 0.8922 0.40497 0.0
C116 C 0.20109 0.84704 0.39808 0.0
C117 C 0.24789 0.8389 0.39132 0.0
C118 C 0.22088 0.9276 0.40571 0.0
N119 N 0.26637 0.9197 0.39868 0.0
H120 H 0.31651 0.86743 0.38962 0.0
H121 H 0.21008 0.96058 0.4138 0.0
H122 H 0.29385 0.88839 0.44325 0.0
H123 H 0.31368 0.03041 0.45973 0.0
O124 O 0.37015 0.93452 0.40919 0.0
O125 O 0.36241 0.01135 0.41109 0.0
O126 O 0.2638 0.01946 0.40151 0.0
C127 C 0.38955 0.97546 0.41203 0.0
H128 H 0.3613 0.02288 0.31362 0.0
H129 H 0.29372 0.8991 0.49386 0.0
H130 H 0.15239 0.8996 0.41135 0.0
H131 H 0.25991 0.80413 0.3865 0.0
Co132 Co 0.01101 0.66588 0.67514 0.0
C133 C 0.03676 0.63124 0.72729 0.0
C134 C 0.96509 0.65195 0.72726 0.0
C135 C 0.97561 0.63265 0.75124 0.0
N136 N 0.0041 0.65275 0.71246 0.0
N137 N 0.02082 0.61958 0.75108 0.0
H138 H 0.0709 0.62128 0.72039 0.0
H139 H 0.93076 0.66242 0.72078 0.0
C140 C 0.9472 0.74239 0.69295 0.0
O141 O 0.97417 0.74892 0.71339 0.0
N142 N 0.02186 0.67575 0.63815 0.0
C143 C 0.06553 0.67615 0.62837 0.0
C144 C 0.06358 0.68039 0.60188 0.0
C145 C 0.99345 0.67897 0.61711 0.0
N146 N 0.01847 0.68261 0.59464 0.0
C147 C 0.09664 0.7101 0.6955 0.0
C148 C 0.07409 0.79582 0.67486 0.0
C149 C 0.11363 0.79211 0.69055 0.0
C150 C 0.12597 0.74834 0.7003 0.0
C151 C 0.04628 0.75728 0.67057 0.0
N152 N 0.0559 0.71554 0.68197 0.0
H153 H 0.10757 0.67643 0.70202 0.0
H154 H 0.01683 0.76114 0.65763 0.0
H155 H 0.09696 0.67213 0.63983 0.0
H156 H 0.95573 0.67784 0.61811 0.0
O157 O 0.04957 0.61029 0.6723 0.0
O158 O 0.97262 0.61415 0.66753 0.0
O159 O 0.95785 0.71181 0.67573 0.0
C160 C 0.0099 0.58889 0.66805 0.0
H161 H 0.95129 0.62647 0.76698 0.0
H162 H 0.09324 0.67954 0.58881 0.0
H163 H 0.06498 0.82833 0.66558 0.0
H164 H 0.15777 0.74381 0.71142 0.0
Co165 Co 0.31066 0.01014 0.67415 0.0
C166 C 0.35513 0.04006 0.72356 0.0
C167 C 0.33283 0.96889 0.72539 0.0
C168 C 0.35458 0.98051 0.74859 0.0
N169 N 0.33303 0.00637 0.70982 0.0
N170 N 0.36884 0.02515 0.74733 0.0
H171 H 0.36087 0.07479 0.71626 0.0
H172 H 0.31873 0.93523 0.7201 0.0
C173 C 0.21588 0.96299 0.683 0.0
O174 O 0.19125 -0.00029 0.67687 0.0
N175 N 0.28857 0.01428 0.63777 0.0
C176 C 0.24653 0.02973 0.62955 0.0
C177 C 0.24539 0.03016 0.60282 0.0
C178 C 0.31252 0.00596 0.61531 0.0
N179 N 0.28687 0.01529 0.59367 0.0
C180 C 0.27469 0.10301 0.66924 0.0
C181 C 0.20782 0.09396 0.70774 0.0
C182 C 0.20319 0.12991 0.68958 0.0
C183 C 0.23944 0.13649 0.67152 0.0
C184 C 0.2441 0.0619 0.70502 0.0
N185 N 0.27332 0.0639 0.68406 0.0
H186 H 0.30042 0.10613 0.65392 0.0
H187 H 0.2454 0.03256 0.71804 0.0
H188 H 0.21887 0.04272 0.64175 0.0
H189 H 0.34846 -0.00523 0.61477 0.0
O190 O 0.3686 0.04032 0.66493 0.0
O191 O 0.35559 0.96416 0.66434 0.0
O192 O 0.26036 0.96364 0.68257 0.0
C193 C 0.38495 -0.0019 0.66182 0.0
H194 H 0.3606 0.95751 0.76485 0.0
H195 H 0.21595 0.04078 0.59105 0.0
H196 H 0.18165 0.0882 0.7226 0.0
H197 H 0.23912 0.16559 0.65827 0.0
Co198 Co 0.97295 0.31262 0.66998 0.0
C199 C 0.9483 0.34643 0.72309 0.0
C200 C 0.01649 0.31626 0.72311 0.0
C201 C 0.00819 0.33609 0.74735 0.0
N202 N 0.97811 0.32105 0.708 0.0
N203 N 0.96525 0.35522 0.7472 0.0
H204 H 0.91612 0.36147 0.71612 0.0
H205 H 0.04958 0.30236 0.71656 0.0
C206 C 0.0259 0.22865 0.68616 0.0
O207 O -0.00477 0.22282 0.70489 0.0
N208 N 0.96524 0.30842 0.63236 0.0
C209 C 0.92429 0.3191 0.62086 0.0
C210 C 0.9298 0.31835 0.59435 0.0
C211 C -0.0045 0.30087 0.61246 0.0
N212 N 0.97433 0.30698 0.58903 0.0
C213 C 0.88298 0.27388 0.6875 0.0
C214 C 0.89447 0.19169 0.65963 0.0
C215 C 0.85498 0.19703 0.67526 0.0
C216 C 0.84911 0.23873 0.68933 0.0
C217 C 0.92749 0.22696 0.65872 0.0
N218 N 0.92256 0.26704 0.67309 0.0
H219 H 0.87674 0.30637 0.69737 0.0
H220 H 0.95748 0.22179 0.64627 0.0
H221 H 0.8925 0.32769 0.63122 0.0
H222 H 0.03199 0.29219 0.61499 0.0
O223 O 0.94018 0.37169 0.66876 0.0
O224 O 0.01679 0.36139 0.66584 0.0
O225 O 0.02096 0.26148 0.6698 0.0
C226 C 0.98185 0.38982 0.66626 0.0
H227 H 0.033 0.33903 0.7632 0.0
H228 H 0.90306 0.32525 0.57996 0.0
H229 H 0.90026 0.16002 0.64847 0.0
H230 H 0.81842 0.24427 0.70129 0.0
Co231 Co 0.66225 0.96851 0.66675 0.0
C232 C 0.62635 0.95134 0.72009 0.0
C233 C 0.64969 0.02163 0.71692 0.0
C234 C 0.63006 0.01575 0.74133 0.0
N235 N 0.64912 0.98059 0.70382 0.0
N236 N 0.61507 0.97155 0.74309 0.0
H237 H 0.61529 0.91671 0.71479 0.0
H238 H 0.66126 0.05432 0.70895 0.0
C239 C 0.74045 0.03103 0.68282 0.0
O240 O 0.74633 0.00454 0.70332 0.0
N241 N 0.67201 0.95357 0.63006 0.0
C242 C 0.67126 0.90924 0.6212 0.0
C243 C 0.67296 0.90897 0.59453 0.0
C244 C 0.67384 0.98007 0.60836 0.0
N245 N 0.67414 0.95329 0.58637 0.0
C246 C 0.70324 0.88409 0.68919 0.0
C247 C 0.78957 0.89768 0.66628 0.0
C248 C 0.7829 0.85873 0.68182 0.0
C249 C 0.73924 0.85186 0.69347 0.0
C250 C 0.75322 0.92899 0.6628 0.0
N251 N 0.71098 0.9231 0.67478 0.0
H252 H 0.6691 0.87643 0.69658 0.0
H253 H 0.75888 0.9576 0.64968 0.0
H254 H 0.66835 0.87892 0.63342 0.0
H255 H 0.6732 0.01772 0.60857 0.0
O256 O 0.60617 0.93056 0.66533 0.0
O257 O 0.6102 0.0064 0.65806 0.0
O258 O 0.70964 0.02049 0.66572 0.0
C259 C 0.58471 0.96941 0.6597 0.0
H260 H 0.6248 0.04249 0.75604 0.0
H261 H 0.67303 0.87844 0.58201 0.0
H262 H 0.82264 0.90368 0.65662 0.0
H263 H 0.73263 0.82119 0.70501 0.0
Co264 Co 0.51967 0.82737 0.90297 0.0
C265 C 0.54054 0.86312 0.84943 0.0
C266 C 0.46716 0.85852 0.85669 0.0
C267 C 0.4738 0.87962 0.83292 0.0
N268 N 0.50901 0.8471 0.86694 0.0
N269 N 0.52004 0.88249 0.82834 0.0
H270 H 0.57772 0.86297 0.85238 0.0
H271 H 0.43404 0.85401 0.86647 0.0
C272 C 0.45343 0.75776 0.88041 0.0
O273 O 0.47899 0.7573 0.85914 0.0
N274 N 0.53186 0.81025 0.93903 0.0
C275 C 0.5752 0.80535 0.94894 0.0
C276 C 0.57242 0.80001 0.97541 0.0
C277 C 0.50304 0.80841 0.95995 0.0
N278 N 0.52722 0.80206 0.98248 0.0
C279 C 0.60986 0.79442 0.88508 0.0
C280 C 0.59351 0.70185 0.89613 0.0
C281 C 0.63863 0.71536 0.88927 0.0
C282 C 0.64641 0.76214 0.883 0.0
C283 C 0.55816 0.73505 0.89805 0.0
N284 N 0.56613 0.78085 0.89241 0.0
H285 H 0.618 0.8308 0.88311 0.0
H286 H 0.52559 0.724 0.90641 0.0
H287 H 0.60717 0.80766 0.93788 0.0
H288 H 0.46573 0.81409 0.9589 0.0
O289 O 0.55818 0.88231 0.90812 0.0
O290 O 0.48181 0.87808 0.9146 0.0
O291 O 0.46674 0.78122 0.90039 0.0
C292 C 0.51931 0.90316 0.91478 0.0
H293 H 0.4467 0.89426 0.82077 0.0
H294 H 0.60165 0.79606 0.98861 0.0
H295 H 0.58632 0.66644 0.90198 0.0
H296 H 0.68101 0.77417 0.87792 0.0
Co297 Co 0.18113 0.51917 0.90512 0.0
C298 C 0.12965 0.52744 0.85501 0.0
C299 C 0.20034 0.506 0.84865 0.0
C300 C 0.18046 0.51724 0.82491 0.0
N301 N 0.1685 0.51262 0.86769 0.0
N302 N 0.13612 0.53152 0.829 0.0
H303 H 0.0976 0.53707 0.86463 0.0
H304 H 0.23663 0.4974 0.85192 0.0
C305 C 0.25702 0.44941 0.91886 0.0
O306 O 0.25753 0.46531 0.94283 0.0
N307 N 0.19092 0.53051 0.94243 0.0
C308 C 0.19901 0.57331 0.95264 0.0
C309 C 0.19639 0.57173 0.97928 0.0
C310 C 0.18057 0.504 0.96341 0.0
N311 N 0.18533 0.52814 0.98608 0.0
C312 C 0.2135 0.60652 0.88329 0.0
C313 C 0.3031 0.59887 0.90311 0.0
C314 C 0.29143 0.63822 0.88885 0.0
C315 C 0.24617 0.64196 0.87852 0.0
C316 C 0.2701 0.56448 0.90706 0.0
N317 N 0.22583 0.56832 0.89743 0.0
H318 H 0.17832 0.6098 0.87588 0.0
H319 H 0.28003 0.53582 0.91902 0.0
H320 H 0.20466 0.60454 0.94152 0.0
H321 H 0.1698 0.46797 0.96213 0.0
O322 O 0.12308 0.55331 0.9096 0.0
O323 O 0.13175 0.47678 0.91264 0.0
O324 O 0.23181 0.46939 0.90159 0.0
C325 C 0.10426 0.51251 0.91372 0.0
H326 H 0.19841 0.51804 0.80635 0.0
H327 H 0.20229 0.60042 0.9927 0.0
H328 H 0.33768 0.59479 0.91139 0.0
H329 H 0.23601 0.67219 0.86741 0.0
Co330 Co 0.48908 0.17701 0.90163 0.0
C331 C 0.45669 0.13696 0.85117 0.0
C332 C 0.53057 0.14948 0.85147 0.0
C333 C 0.5187 0.12928 0.82793 0.0
N334 N 0.4917 0.15443 0.86596 0.0
N335 N 0.47218 0.12169 0.82763 0.0
H336 H 0.42077 0.13503 0.85762 0.0
H337 H 0.56536 0.15858 0.85791 0.0
C338 C 0.57521 0.22899 0.90368 0.0
O339 O 0.58531 0.20009 0.92256 0.0
N340 N 0.48607 0.20101 0.93742 0.0
C341 C 0.4791 0.24621 0.94345 0.0
C342 C 0.47542 0.2512 0.96999 0.0
C343 C 0.48733 0.17912 0.96075 0.0
N344 N 0.48066 0.20913 0.98111 0.0
C345 C 0.39611 0.21027 0.90634 0.0
C346 C 0.40818 0.28914 0.87647 0.0
C347 C 0.36917 0.28597 0.89284 0.0
C348 C 0.36184 0.2447 0.90659 0.0
C349 C 0.44157 0.25352 0.87661 0.0
N350 N 0.4366 0.2165 0.89289 0.0
H351 H 0.39212 0.18056 0.91891 0.0
H352 H 0.47278 0.25732 0.86502 0.0
H353 H 0.47615 0.27387 0.92939 0.0
H354 H 0.494 0.14237 0.96273 0.0
O355 O 0.45634 0.12083 0.91136 0.0
O356 O 0.53311 0.12953 0.91117 0.0
O357 O 0.53515 0.22697 0.89285 0.0
C358 C 0.49756 0.10247 0.91456 0.0
H359 H 0.5429 0.11922 0.81269 0.0
H360 H 0.46887 0.28361 0.98024 0.0
H361 H 0.41463 0.32031 0.86532 0.0
H362 H 0.33162 0.24075 0.91908 0.0
Co363 Co 0.82753 0.484 0.90197 0.0
C364 C 0.87886 0.46827 0.85242 0.0
C365 C 0.81511 0.5053 0.84603 0.0
C366 C 0.83261 0.49057 0.82222 0.0
N367 N 0.84402 0.49116 0.86515 0.0
N368 N 0.87237 0.46643 0.82626 0.0
H369 H 0.90729 0.45102 0.86216 0.0
H370 H 0.78139 0.52134 0.84915 0.0
C371 C 0.7847 0.57721 0.90689 0.0
O372 O 0.82308 0.5889 0.91921 0.0
N373 N 0.81148 0.47201 0.93834 0.0
C374 C 0.80515 0.42812 0.94678 0.0
C375 C 0.79834 0.4284 0.97313 0.0
C376 C 0.80975 0.49867 0.96031 0.0
N377 N 0.80086 0.47259 0.98181 0.0
C378 C 0.79451 0.39711 0.88025 0.0
C379 C 0.70214 0.4117 0.89418 0.0
C380 C 0.715 0.3688 0.88336 0.0
C381 C 0.76174 0.36166 0.87604 0.0
C382 C 0.73578 0.44566 0.89838 0.0
N383 N 0.78136 0.43806 0.89175 0.0
H384 H 0.83076 0.39099 0.87547 0.0
H385 H 0.72533 0.47687 0.90865 0.0
H386 H 0.80745 0.39722 0.9347 0.0
H387 H 0.81605 0.53574 0.96079 0.0
O388 O 0.88371 0.44623 0.90733 0.0
O389 O 0.87865 0.52233 0.91221 0.0
O390 O 0.77938 0.53529 0.89885 0.0
C391 C 0.90429 0.48557 0.91311 0.0
H392 H 0.81528 0.49414 0.80358 0.0
H393 H 0.79456 0.39797 0.98523 0.0
H394 H 0.66687 0.41795 0.901 0.0
H395 H 0.77302 0.32855 0.86799 0.0
Co396 Co 0.51161 0.16593 0.17088 0.0
C397 C 0.53745 0.1392 0.22415 0.0
C398 C 0.46414 0.15431 0.22174 0.0
C399 C 0.47346 0.13451 0.24566 0.0
N400 N 0.5043 0.157 0.20822 0.0
N401 N 0.51952 0.12466 0.24701 0.0
H402 H 0.57316 0.13296 0.21814 0.0
H403 H 0.43004 0.1627 0.21403 0.0
C404 C 0.45965 0.25389 0.16061 0.0
O405 O 0.49477 0.26922 0.14664 0.0
N406 N 0.52066 0.17099 0.13286 0.0
C407 C 0.55559 0.14874 0.11998 0.0
C408 C 0.54855 0.15104 0.09367 0.0
C409 C 0.49149 0.18508 0.11347 0.0
N410 N 0.50844 0.17374 0.08952 0.0
C411 C 0.60098 0.21404 0.16548 0.0
C412 C 0.57714 0.28528 0.19952 0.0
C413 C 0.61697 0.29027 0.184 0.0
C414 C 0.62986 0.25308 0.16758 0.0
C415 C 0.54867 0.24652 0.19621 0.0
N416 N 0.55928 0.21262 0.17829 0.0
H417 H 0.61207 0.18582 0.15316 0.0
H418 H 0.51671 0.24489 0.20734 0.0
H419 H 0.58363 0.12945 0.12891 0.0
H420 H 0.4578 0.20115 0.1166 0.0
O421 O 0.54716 0.10878 0.17037 0.0
O422 O 0.47034 0.11579 0.16444 0.0
O423 O 0.46163 0.21444 0.1715 0.0
C424 C 0.5066 0.08919 0.16626 0.0
H425 H 0.44788 0.12554 0.26031 0.0
H426 H 0.57077 0.13637 0.07861 0.0
H427 H 0.56723 0.31164 0.21369 0.0
H428 H 0.66121 0.2546 0.15583 0.0
Co429 Co 0.81291 0.51084 0.17212 0.0
C430 C 0.84755 0.53377 0.22503 0.0
C431 C 0.81568 0.46668 0.22522 0.0
C432 C 0.83493 0.47546 0.24957 0.0
N433 N 0.82233 0.50404 0.20991 0.0
N434 N 0.85528 0.51782 0.24936 0.0
H435 H 0.86361 0.56505 0.21788 0.0
H436 H 0.79982 0.43435 0.21899 0.0
C437 C 0.72723 0.45945 0.18765 0.0
O438 O 0.71985 0.49062 0.20609 0.0
N439 N 0.80729 0.52184 0.13475 0.0
C440 C 0.81328 0.56516 0.12541 0.0
C441 C 0.81278 0.56393 0.09882 0.0
C442 C 0.8037 0.49422 0.11323 0.0
N443 N 0.80697 0.51959 0.09096 0.0
C444 C 0.77947 0.60208 0.19012 0.0
C445 C 0.69358 0.59291 0.16585 0.0
C446 C 0.70337 0.63374 0.17962 0.0
C447 C 0.74695 0.63843 0.19186 0.0
C448 C 0.72683 0.55796 0.16447 0.0
N449 N 0.76863 0.56175 0.17724 0.0
H450 H 0.81371 0.60757 0.19804 0.0
H451 H 0.71934 0.52814 0.15224 0.0
H452 H 0.81899 0.59586 0.13731 0.0
H453 H 0.80063 0.45673 0.11381 0.0
O454 O 0.87253 0.54229 0.17064 0.0
O455 O 0.86067 0.46629 0.16622 0.0
O456 O 0.76134 0.46353 0.17185 0.0
C457 C 0.88979 0.50046 0.16722 0.0
H458 H 0.8343 0.452 0.26593 0.0
H459 H 0.81688 0.59352 0.0861 0.0
H460 H 0.66111 0.58876 0.15522 0.0
H461 H 0.75616 0.6702 0.20212 0.0
Co462 Co 0.46902 0.81613 0.17011 0.0
C463 C 0.44231 0.84171 0.22393 0.0
C464 C 0.51507 0.82502 0.22197 0.0
C465 C 0.505 0.84223 0.24664 0.0
N466 N 0.47556 0.8245 0.20773 0.0
N467 N 0.45902 0.85266 0.24786 0.0
H468 H 0.40698 0.84877 0.21796 0.0
H469 H 0.54941 0.81667 0.21454 0.0
C470 C 0.56254 0.7757 0.16395 0.0
O471 O 0.57394 0.81556 0.15352 0.0
N472 N 0.45896 0.80905 0.13262 0.0
C473 C 0.41608 0.81376 0.12209 0.0
C474 C 0.41877 0.80911 0.09556 0.0
C475 C 0.48767 0.802 0.11187 0.0
N476 N 0.46359 0.80134 0.08898 0.0
C477 C 0.37688 0.78357 0.18149 0.0
C478 C 0.3948 0.69057 0.17156 0.0
C479 C 0.34921 0.7047 0.17719 0.0
C480 C 0.34045 0.75164 0.18271 0.0
C481 C 0.43024 0.72353 0.17058 0.0
N482 N 0.42117 0.76949 0.17551 0.0
H483 H 0.36881 0.81995 0.18399 0.0
H484 H 0.46425 0.7117 0.16456 0.0
H485 H 0.38471 0.82168 0.13294 0.0
H486 H 0.52505 0.79789 0.11324 0.0
O487 O 0.43164 0.8729 0.16928 0.0
O488 O 0.50849 0.86809 0.16509 0.0
O489 O 0.52019 0.76804 0.17055 0.0
C490 C 0.47174 0.89367 0.16675 0.0
H491 H 0.53039 0.84953 0.26173 0.0
H492 H 0.39008 0.81332 0.08204 0.0
H493 H 0.40262 0.65462 0.16672 0.0
H494 H 0.30549 0.76378 0.18714 0.0
Co495 Co 0.16719 0.47144 0.17306 0.0
C496 C 0.137 0.44339 0.22531 0.0
C497 C 0.16284 0.51324 0.22655 0.0
C498 C 0.1432 0.50289 0.2505 0.0
N499 N 0.15896 0.47571 0.21073 0.0
N500 N 0.12628 0.45913 0.24947 0.0
H501 H 0.127 0.40952 0.21798 0.0
H502 H 0.17631 0.54669 0.22075 0.0
C503 C 0.20337 0.56642 0.16694 0.0
O504 O 0.1624 0.57712 0.15725 0.0
N505 N 0.17379 0.46278 0.1356 0.0
C506 C 0.1701 0.41981 0.12505 0.0
C507 C 0.17418 0.42229 0.0986 0.0
C508 C 0.17996 0.49136 0.115 0.0
N509 N 0.1809 0.46703 0.09215 0.0
C510 C 0.21202 0.38282 0.18465 0.0
C511 C 0.29839 0.41073 0.16633 0.0
C512 C 0.29217 0.36435 0.17303 0.0
C513 C 0.24874 0.35036 0.18299 0.0
C514 C 0.26126 0.44131 0.16779 0.0
N515 N 0.21858 0.42771 0.17694 0.0
H516 H 0.17791 0.37128 0.19071 0.0
H517 H 0.26698 0.4752 0.15971 0.0
H518 H 0.16374 0.38845 0.13596 0.0
H519 H 0.18355 0.52869 0.11645 0.0
O520 O 0.11171 0.43154 0.17114 0.0
O521 O 0.1133 0.50812 0.16858 0.0
O522 O 0.2119 0.52499 0.1743 0.0
C523 C 0.08894 0.47068 0.1685 0.0
H524 H 0.13918 0.52665 0.26685 0.0
H525 H 0.17071 0.39341 0.08506 0.0
H526 H 0.33154 0.42311 0.15895 0.0
H527 H 0.24275 0.31451 0.18834 0.0
C528 C 0.94374 0.49711 0.41275 0.0
C529 C 0.97981 0.52805 0.41917 0.0
C530 C 0.95135 0.44895 0.41293 0.0
C531 C -0.00461 0.43014 0.41931 0.0
H532 H 0.91007 0.51009 0.40649 0.0
H533 H 0.92303 0.42646 0.40679 0.0
S534 S 0.09942 0.49594 0.44112 0.0
N535 N 0.05982 0.53618 0.43504 0.0
N536 N 0.07395 0.44572 0.4346 0.0
C537 C 0.03095 0.46049 0.42708 0.0
C538 C 0.02315 0.50946 0.42725 0.0
C539 C 0.50803 0.03157 0.40417 0.0
C540 C 0.53851 -0.00255 0.41354 0.0
C541 C 0.45969 0.02432 0.4044 0.0
C542 C 0.44032 0.98259 0.41381 0.0
H543 H 0.52157 0.06304 0.39552 0.0
H544 H 0.43745 0.05098 0.39621 0.0
S545 S 0.50477 0.88535 0.44397 0.0
N546 N 0.54563 0.92261 0.43534 0.0
N547 N 0.45477 0.90892 0.43498 0.0
C548 C 0.47018 0.94922 0.42435 0.0
C549 C 0.51931 0.95677 0.42449 0.0
C550 C 0.95235 0.47102 0.66615 0.0
C551 C 0.9902 0.44028 0.66516 0.0
C552 C 0.95953 0.51896 0.66649 0.0
C553 C 0.00487 0.53808 0.666 0.0
H554 H 0.91689 0.45809 0.66703 0.0
H555 H 0.92896 0.5411 0.66766 0.0
S556 S 0.11595 0.47253 0.66223 0.0
N557 N 0.07505 0.43216 0.6627 0.0
N558 N 0.08806 0.52276 0.66364 0.0
C559 C 0.04309 0.50787 0.66455 0.0
C560 C 0.03587 0.45883 0.66403 0.0
C561 C 0.51408 0.01812 0.65295 0.0
C562 C 0.53354 0.97374 0.65724 0.0
C563 C 0.46588 0.02539 0.65345 0.0
C564 C 0.43514 0.9885 0.658 0.0
H565 H 0.53623 0.04811 0.64998 0.0
H566 H 0.45278 0.06044 0.65093 0.0
S567 S 0.46796 0.86472 0.66827 0.0
N568 N 0.51824 0.89188 0.66472 0.0
N569 N 0.42731 0.9051 0.66535 0.0
C570 C 0.45392 0.94341 0.6611 0.0
C571 C 0.50321 0.93613 0.66079 0.0
C572 C 0.55298 0.98307 0.9123 0.0
C573 C 0.516 0.95387 0.91944 0.0
C574 C 0.54735 0.03148 0.91217 0.0
C575 C 0.50446 0.05231 0.91901 0.0
H576 H 0.58575 0.96848 0.90553 0.0
H577 H 0.57617 0.05249 0.90536 0.0
S578 S 0.39929 0.99179 0.94333 0.0
N579 N 0.43684 0.94967 0.93678 0.0
N580 N 0.42635 0.04062 0.93603 0.0
C581 C 0.46826 0.02378 0.92783 0.0
C582 C 0.47404 0.97454 0.9282 0.0
C583 C 0.98573 0.45445 0.9104 0.0
C584 C 0.95513 0.49062 0.91729 0.0
C585 C 0.0341 0.46165 0.91017 0.0
C586 C 0.05353 0.50538 0.91657 0.0
H587 H 0.97226 0.421 0.90409 0.0
H588 H 0.05628 0.43313 0.9039 0.0
S589 S 0.98893 0.60968 0.93927 0.0
N590 N 0.94809 0.57051 0.93342 0.0
N591 N 0.03892 0.58387 0.93222 0.0
C592 C 0.02356 0.54112 0.92467 0.0
C593 C 0.97437 0.53373 0.92527 0.0
C594 C 0.45204 0.97302 0.15208 0.0
C595 C 0.47774 0.94372 0.16827 0.0
C596 C 0.46295 0.02028 0.1509 0.0
C597 C 0.49982 0.03906 0.16581 0.0
H598 H 0.42449 0.95918 0.1398 0.0
H599 H 0.44251 0.04229 0.13818 0.0
S600 S 0.57317 0.97694 0.21365 0.0
N601 N 0.53874 0.93656 0.20106 0.0
N602 N 0.55905 0.02573 0.19882 0.0
C603 C 0.52485 0.01019 0.18256 0.0
C604 C 0.51369 0.96227 0.18384 0.0
C605 C 0.9712 0.52833 0.1648 0.0
C606 C 0.94014 0.49105 0.16606 0.0
C607 C 0.0191 0.52065 0.16499 0.0
C608 C 0.03799 0.47536 0.16668 0.0
H609 H 0.95854 0.56382 0.16388 0.0
H610 H 0.04141 0.551 0.16421 0.0
S611 S 0.97136 0.36543 0.1694 0.0
N612 N 0.93118 0.40659 0.1682 0.0
N613 N 0.02206 0.39264 0.16879 0.0
C614 C 0.00746 0.43755 0.16745 0.0
C615 C 0.9583 0.44529 0.1671 0.0
C616 C 0.08411 0.41595 0.31476 0.0
C617 C 0.04571 0.38742 0.30815 0.0
C618 C 0.10978 0.43969 0.29562 0.0
C619 C 0.09846 0.43574 0.26899 0.0
H620 H 0.09427 0.42039 0.33495 0.0
H621 H 0.13922 0.46078 0.30165 0.0
S622 S -0.00036 0.36815 0.24117 0.0
N623 N -0.00271 0.3578 0.27274 0.0
N624 N 0.04426 0.40359 0.23715 0.0
C625 C 0.05958 0.40828 0.26211 0.0
C626 C 0.03354 0.38395 0.28156 0.0
C627 C 0.58603 0.10929 0.27686 0.0
C628 C 0.54284 0.09595 0.26608 0.0
C629 C 0.60872 0.08156 0.2956 0.0
C630 C 0.58965 0.03886 0.30378 0.0
H631 H 0.60195 0.1417 0.27102 0.0
H632 H 0.64164 0.09338 0.30361 0.0
S633 S 0.47846 0.98775 0.28033 0.0
N634 N 0.48285 0.03682 0.26415 0.0
N635 N 0.52495 0.98489 0.29923 0.0
C636 C 0.54685 0.02496 0.29271 0.0
C637 C 0.52363 0.05343 0.27394 0.0
C638 C 0.88267 0.5908 0.27075 0.0
C639 C 0.88146 0.54168 0.26984 0.0
C640 C 0.90842 0.61512 0.28986 0.0
C641 C 0.93387 0.59154 0.30915 0.0
H642 H 0.86303 0.61081 0.25673 0.0
H643 H 0.9076 0.65277 0.28984 0.0
S644 S 0.94546 0.4638 0.31491 0.0
N645 N 0.91073 0.47065 0.28953 0.0
N646 N 0.95793 0.51657 0.32566 0.0
C647 C 0.93333 0.54265 0.3085 0.0
C648 C 0.90746 0.51772 0.28887 0.0
C649 C 0.39652 0.90681 0.26291 0.0
C650 C 0.43381 0.87635 0.26871 0.0
C651 C 0.37272 0.93157 0.28263 0.0
C652 C 0.38473 0.92664 0.30903 0.0
H653 H 0.3864 0.91281 0.2429 0.0
H654 H 0.34477 0.95497 0.27721 0.0
S655 S 0.47892 0.85151 0.3351 0.0
N656 N 0.48063 0.84233 0.30327 0.0
N657 N 0.43644 0.88944 0.34007 0.0
C658 C 0.42141 0.89605 0.31525 0.0
C659 C 0.44583 0.8709 0.29518 0.0
C660 C 0.10613 0.53815 0.78368 0.0
C661 C 0.10483 0.55246 0.81004 0.0
C662 C 0.07794 0.55943 0.76468 0.0
C663 C 0.04689 0.59578 0.7712 0.0
H664 H 0.12929 0.51029 0.77765 0.0
H665 H 0.08051 0.54738 0.74467 0.0
S666 S 0.0315 0.64866 0.8368 0.0
N667 N 0.07088 0.60748 0.84117 0.0
N668 N 0.01734 0.64605 0.80561 0.0
C669 C 0.04477 0.61022 0.79741 0.0
C670 C 0.07383 0.589 0.81676 0.0
C671 C 0.40864 0.06876 0.81333 0.0
C672 C 0.44551 0.09907 0.80715 0.0
C673 C 0.38381 0.0448 0.79372 0.0
C674 C 0.39438 0.05068 0.76713 0.0
H675 H 0.39957 0.0627 0.8335 0.0
H676 H 0.35591 0.02164 0.7994 0.0
S677 S 0.48744 0.12615 0.74044 0.0
N678 N 0.49072 0.13411 0.77232 0.0
N679 N 0.44471 0.08855 0.73571 0.0
C680 C 0.43091 0.08108 0.76066 0.0
C681 C 0.45631 0.10532 0.78059 0.0
C682 C 0.89953 0.45307 0.78071 0.0
C683 C 0.89788 0.4389 0.80697 0.0
C684 C 0.92174 0.42587 0.76135 0.0
C685 C 0.94378 0.38351 0.76743 0.0
H686 H 0.88343 0.48552 0.77502 0.0
H687 H 0.92196 0.43822 0.74146 0.0
S688 S 0.94729 0.32837 0.83241 0.0
N689 N 0.91845 0.37741 0.83737 0.0
N690 N 0.96137 0.3278 0.80119 0.0
C691 C 0.94272 0.36891 0.79347 0.0
C692 C 0.91954 0.39615 0.81317 0.0
C693 C 0.58386 0.93174 0.81083 0.0
C694 C 0.54287 0.90553 0.80674 0.0
C695 C 0.60657 0.95423 0.79009 0.0
C696 C 0.58971 0.95071 0.76439 0.0
H697 H 0.59829 0.93527 0.83026 0.0
H698 H 0.63814 0.97371 0.79406 0.0
S699 S 0.48297 0.88817 0.74315 0.0
N700 N 0.48587 0.8787 0.77484 0.0
N701 N 0.5286 0.92077 0.73611 0.0
C702 C 0.54854 0.92522 0.76004 0.0
C703 C 0.5251 0.90278 0.78114 0.0
C704 C 0.16702 0.1308 0.35706 0.0
C705 C 0.16068 0.1588 0.37941 0.0
C706 C 0.19134 0.08853 0.35829 0.0
C707 C 0.21024 0.07258 0.38194 0.0
H708 H 0.15255 0.14138 0.33851 0.0
H709 H 0.19533 0.06828 0.34052 0.0
S710 S 0.20182 0.13231 0.4463 0.0
N711 N 0.17418 0.16712 0.42603 0.0
N712 N 0.22048 0.08813 0.42835 0.0
C713 C 0.20453 0.10052 0.40441 0.0
C714 C 0.17968 0.14352 0.40314 0.0
C715 C 0.89428 0.16321 0.41984 0.0
C716 C 0.91121 0.19267 0.40034 0.0
C717 C 0.85317 0.13802 0.41627 0.0
C718 C 0.82764 0.14053 0.39286 0.0
H719 H 0.91297 0.15945 0.43808 0.0
H720 H 0.84185 0.11532 0.4318 0.0
S721 S 0.85601 0.2139 0.33604 0.0
N722 N 0.89828 0.22475 0.35716 0.0
N723 N 0.82112 0.17601 0.35022 0.0
C724 C 0.84314 0.171 0.37348 0.0
C725 C 0.885 0.1973 0.37725 0.0
C726 C 0.81133 0.82461 0.36171 0.0
C727 C 0.82044 0.80648 0.38653 0.0
C728 C 0.78257 0.86381 0.35872 0.0
C729 C 0.76163 0.88589 0.38043 0.0
H730 H 0.82793 0.80948 0.34465 0.0
H731 H 0.77723 0.87721 0.33926 0.0
S732 S 0.77256 0.84908 0.4495 0.0
N733 N 0.80493 0.81151 0.43298 0.0
N734 N 0.75068 0.88474 0.42759 0.0
C735 C 0.7693 0.86675 0.40529 0.0
C736 C 0.79878 0.82717 0.40827 0.0
C737 C 0.0888 0.77643 0.39364 0.0
C738 C 0.09873 0.73731 0.40904 0.0
C739 C 0.12235 0.81133 0.38971 0.0
C740 C 0.16716 0.80831 0.40088 0.0
H741 H 0.05498 0.78009 0.38443 0.0
H742 H 0.11318 0.84093 0.37782 0.0
S743 S 0.20986 0.71523 0.44446 0.0
N744 N 0.15638 0.69912 0.43658 0.0
N745 N 0.21881 0.76463 0.42913 0.0
C746 C 0.17739 0.76978 0.41651 0.0
C747 C 0.14335 0.73437 0.42062 0.0
C748 C 0.21377 0.87616 0.68401 0.0
C749 C 0.19189 0.91915 0.68932 0.0
C750 C 0.18937 0.83419 0.68648 0.0
C751 C 0.14257 0.83402 0.69458 0.0
H752 H 0.2491 0.87502 0.6765 0.0
H753 H 0.20623 0.80211 0.68042 0.0
S754 S 0.07257 0.93618 0.71576 0.0
N755 N 0.12295 0.95833 0.70642 0.0
N756 N 0.07744 0.87939 0.71149 0.0
C757 C 0.12174 0.87636 0.7021 0.0
C758 C 0.14629 0.919 0.69931 0.0
C759 C 0.13576 0.17092 0.71118 0.0
C760 C 0.15891 0.15707 0.68814 0.0
C761 C 0.09206 0.19286 0.71037 0.0
C762 C 0.07018 0.20249 0.68649 0.0
H763 H 0.15151 0.16482 0.73005 0.0
H764 H 0.07579 0.20332 0.72858 0.0
S765 S 0.11394 0.17148 0.62062 0.0
N766 N 0.15467 0.1524 0.64068 0.0
N767 N 0.07374 0.19588 0.63934 0.0
C768 C 0.09272 0.18918 0.66332 0.0
C769 C 0.13679 0.16599 0.66409 0.0
C770 C 0.78777 0.09527 0.70282 0.0
C771 C 0.76766 0.07465 0.68045 0.0
C772 C 0.81393 0.13638 0.70121 0.0
C773 C 0.82143 0.15803 0.67714 0.0
H774 H 0.78341 0.07948 0.72176 0.0
H775 H 0.82979 0.15041 0.71878 0.0
S776 S 0.77544 0.11942 0.61291 0.0
N777 N 0.75601 0.08019 0.63356 0.0
N778 N 0.8057 0.15704 0.63059 0.0
C779 C 0.80088 0.13841 0.65471 0.0
C780 C 0.77384 0.09687 0.65635 0.0
C781 C 0.88337 0.79205 0.71174 0.0
C782 C 0.90401 0.77022 0.68989 0.0
C783 C 0.84264 0.81889 0.70927 0.0
C784 C 0.8216 0.82521 0.68482 0.0
H785 H 0.89881 0.78852 0.73091 0.0
H786 H 0.82839 0.83603 0.72641 0.0
S787 S 0.8607 0.77503 0.62167 0.0
N788 N 0.89927 0.75611 0.64304 0.0
N789 N 0.82316 0.80688 0.63853 0.0
C790 C 0.84129 0.80306 0.66293 0.0
C791 C 0.88238 0.77545 0.66542 0.0
C792 C 0.67462 0.63653 0.88155 0.0
C793 C 0.67784 0.68177 0.89216 0.0
C794 C 0.70927 0.60297 0.88628 0.0
C795 C 0.74837 0.61323 0.90197 0.0
H796 H 0.64484 0.62691 0.86966 0.0
H797 H 0.70517 0.56867 0.87767 0.0
S798 S 0.77185 0.72624 0.9354 0.0
N799 N 0.72229 0.73461 0.91973 0.0
N800 N 0.78746 0.67224 0.92852 0.0
C801 C 0.7519 0.65852 0.91267 0.0
C802 C 0.7167 0.69258 0.90778 0.0
C803 C 0.38853 0.72188 0.9059 0.0
C804 C 0.40955 0.73037 0.88159 0.0
C805 C 0.3485 0.69423 0.90785 0.0
C806 C 0.32748 0.6745 0.88557 0.0
H807 H 0.40387 0.73544 0.92371 0.0
H808 H 0.33467 0.68693 0.92705 0.0
S809 S 0.366 0.68871 0.81721 0.0
N810 N 0.40427 0.71887 0.83452 0.0
N811 N 0.32887 0.66686 0.83846 0.0
C812 C 0.34666 0.68425 0.86109 0.0
C813 C 0.38778 0.71211 0.85903 0.0
C814 C 0.31729 0.35278 0.87971 0.0
C815 C 0.34081 0.32774 0.89915 0.0
C816 C 0.29036 0.3923 0.88609 0.0
C817 C 0.28669 0.40846 0.91208 0.0
H818 H 0.31923 0.34137 0.85955 0.0
H819 H 0.27227 0.41017 0.87056 0.0
S820 S 0.34518 0.35632 0.96977 0.0
N821 N 0.36105 0.32293 0.945 0.0
N822 N 0.31095 0.39649 0.95718 0.0
C823 C 0.31118 0.38396 0.93154 0.0
C824 C 0.33812 0.34384 0.92502 0.0
C825 C 0.69193 0.28963 0.89751 0.0
C826 C 0.68088 0.33019 0.88377 0.0
C827 C 0.6576 0.25671 0.90322 0.0
C828 C 0.61092 0.2629 0.89528 0.0
H829 H 0.72679 0.28449 0.90517 0.0
H830 H 0.66767 0.22669 0.91454 0.0
S831 S 0.5653 0.36109 0.85624 0.0
N832 N 0.62115 0.37323 0.86047 0.0
N833 N 0.55639 0.31117 0.87111 0.0
C834 C 0.59997 0.3021 0.88023 0.0
C835 C 0.635 0.33581 0.87453 0.0
C836 C 0.69354 0.33263 0.18414 0.0
C837 C 0.64442 0.33417 0.18473 0.0
C838 C 0.72004 0.37352 0.18469 0.0
C839 C 0.69842 0.41732 0.18639 0.0
H840 H 0.71176 0.2996 0.18358 0.0
H841 H 0.75778 0.37082 0.18433 0.0
S842 S 0.57155 0.44136 0.1861 0.0
N843 N 0.57544 0.38406 0.18478 0.0
N844 N 0.62579 0.46059 0.1874 0.0
C845 C 0.64965 0.41969 0.18683 0.0
C846 C 0.62251 0.37819 0.18561 0.0
C847 C 0.58774 0.69743 0.1797 0.0
C848 C 0.59949 0.74089 0.16917 0.0
C849 C 0.62199 0.66368 0.18426 0.0
C850 C 0.66925 0.67224 0.17865 0.0
H851 H 0.55176 0.68901 0.18407 0.0
H852 H 0.61132 0.63017 0.1917 0.0
S853 S 0.719 0.78047 0.15165 0.0
N854 N 0.66251 0.79099 0.15405 0.0
N855 N 0.72639 0.72709 0.16246 0.0
C856 C 0.68178 0.71581 0.16883 0.0
C857 C 0.647 0.7502 0.16408 0.0
C858 C 0.27892 0.59452 0.18539 0.0
C859 C 0.2396 0.60257 0.16959 0.0
C860 C 0.31387 0.62812 0.18817 0.0
C861 C 0.31067 0.67091 0.17529 0.0
H862 H 0.28278 0.56207 0.19577 0.0
H863 H 0.34366 0.62057 0.20047 0.0
S864 S 0.21654 0.70827 0.13044 0.0
N865 N 0.20041 0.65616 0.1402 0.0
N866 N 0.2665 0.719 0.14533 0.0
C867 C 0.27178 0.67942 0.15935 0.0
C868 C 0.23614 0.6453 0.15652 0.0
C869 C 0.3486 0.30465 0.18917 0.0
C870 C 0.3314 0.33169 0.16863 0.0
C871 C 0.39023 0.27937 0.18635 0.0
C872 C 0.41619 0.2809 0.16303 0.0
H873 H 0.33074 0.3044 0.20779 0.0
H874 H 0.40282 0.25943 0.20276 0.0
S875 S 0.38243 0.34104 0.1023 0.0
N876 N 0.34054 0.35415 0.12324 0.0
N877 N 0.41949 0.30781 0.11833 0.0
C878 C 0.39841 0.30627 0.14205 0.0
C879 C 0.35573 0.33126 0.14474 0.0
C880 C -0.00368 0.32861 0.51799 0.0
C881 C 0.01182 0.28492 0.50886 0.0
C882 C 0.98645 0.33629 0.54454 0.0
C883 C 0.99251 0.30094 0.56307 0.0
H884 H 0.99164 0.35705 0.50455 0.0
H885 H 0.97313 0.36993 0.55067 0.0
S886 S 0.02889 0.1797 0.5497 0.0
N887 N 0.0298 0.20485 0.52088 0.0
N888 N 0.01318 0.22069 0.57069 0.0
C889 C 0.00837 0.25746 0.55444 0.0
C890 C 0.01752 0.2491 0.52738 0.0
C891 C 0.70853 -0.00041 0.55094 0.0
C892 C 0.6754 0.96725 0.55944 0.0
C893 C 0.71305 0.01004 0.52435 0.0
C894 C 0.68434 0.9889 0.50523 0.0
H895 H 0.73177 0.01603 0.56489 0.0
H896 H 0.73933 0.03499 0.51867 0.0
S897 S 0.58937 0.90467 0.51792 0.0
N898 N 0.6119 0.91564 0.54698 0.0
N899 N 0.61984 0.93599 0.49714 0.0
C900 C 0.65065 0.95691 0.51359 0.0
C901 C 0.64624 0.94606 0.54065 0.0
C902 C 0.96481 0.65524 0.55997 0.0
C903 C 0.00242 0.68321 0.56793 0.0
C904 C 0.95235 0.65149 0.53354 0.0
C905 C 0.97704 0.6755 0.51401 0.0
H906 H 0.94577 0.63509 0.57417 0.0
H907 H 0.92343 0.6291 0.52827 0.0
S908 S 0.0752 0.757 0.52487 0.0
N909 N 0.06207 0.73813 0.5543 0.0
N910 N 0.03881 0.73044 0.50471 0.0
C911 C 0.01408 0.70426 0.52174 0.0
C912 C 0.02661 0.70837 0.54865 0.0
C913 C 0.27627 0.03682 0.54715 0.0
C914 C 0.29899 0.00976 0.5663 0.0
C915 C 0.28116 0.02705 0.52033 0.0
C916 C 0.30916 0.99 0.51163 0.0
H917 H 0.25302 0.06476 0.55291 0.0
H918 H 0.26059 0.04655 0.50647 0.0
S919 S 0.38208 0.91319 0.55281 0.0
N920 N 0.35445 0.94709 0.57389 0.0
N921 N 0.36489 0.93028 0.5237 0.0
C922 C 0.33521 0.96539 0.53029 0.0
C923 C 0.32991 0.97488 0.55755 0.0
C924 C 0.53664 0.82276 1.02922 0.0
C925 C 0.51046 0.8014 1.00909 0.0
C926 C 0.52219 0.82123 0.0554 0.0
C927 C 0.48095 0.79825 0.06253 0.0
H928 H 0.56828 0.84153 1.02463 0.0
H929 H 0.54266 0.83934 0.07004 0.0
S930 S 0.40256 0.73248 1.01777 0.0
N931 N 0.44312 0.75392 0.99843 0.0
N932 N 0.41601 0.75052 0.04751 0.0
C933 C 0.45514 0.77565 0.04268 0.0
C934 C 0.46977 0.77745 1.01602 0.0
C935 C 0.16149 0.5246 0.05822 0.0
C936 C 0.18462 0.48375 0.06579 0.0
C937 C 0.16093 0.53836 1.03199 0.0
C938 C 0.18305 0.51153 1.01244 0.0
H939 H 0.14285 0.54538 0.07253 0.0
H940 H 0.14278 0.57005 1.02685 0.0
S941 S 0.25316 0.40494 1.02254 0.0
N942 N 0.23392 0.41908 0.05192 0.0
N943 N 0.23165 0.44451 1.00272 0.0
C944 C 0.20707 0.47128 1.01984 0.0
C945 C 0.20824 0.45758 0.04649 0.0
C946 C 0.49817 0.22849 0.0536 0.0
C947 C 0.49081 0.18423 0.06399 0.0
C948 C 0.49381 0.2364 1.02671 0.0
C949 C 0.48164 0.20032 1.00902 0.0
H950 H 0.51034 0.25643 0.06616 0.0
H951 H 0.50229 0.27073 1.01973 0.0
S952 S 0.45382 0.07877 1.02758 0.0
N953 N 0.4684 0.10443 0.05536 0.0
N954 N 0.45774 0.11922 1.00501 0.0
C955 C 0.47172 0.15629 1.01961 0.0
C956 C 0.47687 0.14831 0.047 0.0
C957 C 0.83338 0.5174 1.01896 0.0
C958 C 0.80028 0.48598 1.00904 0.0
C959 C 0.83638 0.52672 0.04585 0.0
C960 C 0.80641 0.50505 0.06392 0.0
H961 H 0.85784 0.534 1.00592 0.0
H962 H 0.86253 0.55116 0.05262 0.0
S963 S 0.71135 0.42269 0.04773 0.0
N964 N 0.73525 0.43489 1.01928 0.0
N965 N 0.74127 0.45251 0.06975 0.0
C966 C 0.77295 0.47389 0.05425 0.0
C967 C 0.76971 0.46448 1.02685 0.0
loop_
_geom_bond_atom_site_label_1
_geom_bond_atom_site_label_2
_geom_bond_distance
_geom_bond_site_symmetry_2
_ccdc_geom_bond_type
Co0 N4 2.148 . S
Co0 N10 2.128 . S
Co0 N20 2.194 . S
Co0 O25 2.351 . S
Co0 O26 2.155 . S
Co0 O27 2.096 1_455 S
C1 N4 1.301 . S
C1 N5 1.328 . S
C1 H6 0.930 . S
C2 C3 1.333 1_655 S
C2 N4 1.317 1_655 S
C2 H7 0.930 . S
C3 C2 1.333 1_455 S
C3 N5 1.350 . S
C3 H29 0.931 1_455 S
N4 Co0 2.148 . S
N4 C1 1.301 . S
N4 C2 1.317 1_455 S
N5 C1 1.328 . S
N5 C3 1.350 . S
H6 C1 0.930 . S
H7 C2 0.930 . S
C8 O9 1.224 . S
C8 O27 1.247 . S
O9 C8 1.224 . S
N10 Co0 2.128 . S
N10 C11 1.355 . S
N10 C13 1.311 1_455 S
C11 N10 1.355 . S
C11 C12 1.363 . S
C11 H23 0.929 . S
C12 C11 1.363 . S
C12 N14 1.375 . S
C12 H30 0.931 . S
C13 N10 1.311 1_655 S
C13 N14 1.347 1_655 S
C13 H24 0.929 . S
N14 C12 1.375 . S
N14 C13 1.347 1_455 S
C15 C18 1.365 . S
C15 N20 1.328 . S
C15 H21 0.929 . S
C16 C17 1.362 . S
C16 C19 1.378 . S
C16 H31 0.929 . S
C17 C16 1.362 . S
C17 C18 1.366 . S
C18 C15 1.365 . S
C18 C17 1.366 . S
C18 H32 0.930 . S
C19 C16 1.378 . S
C19 N20 1.315 . S
C19 H22 0.930 . S
N20 Co0 2.194 . S
N20 C15 1.328 . S
N20 C19 1.315 . S
H21 C15 0.929 . S
H22 C19 0.930 . S
H23 C11 0.929 . S
H24 C13 0.929 . S
O25 Co0 2.351 . S
O25 C28 1.244 . S
O26 Co0 2.155 . S
O26 C28 1.240 . S
O27 Co0 2.096 1_655 S
O27 C8 1.247 . S
C28 O25 1.244 . S
C28 O26 1.240 . S
H29 C3 0.931 1_655 S
H30 C12 0.931 . S
H31 C16 0.929 . S
H32 C18 0.930 . S
Co33 N37 2.148 . S
Co33 N43 2.128 . S
Co33 N53 2.194 . S
Co33 O58 2.351 . S
Co33 O59 2.155 . S
Co33 O60 2.096 1_545 S
C34 N37 1.301 . S
C34 N38 1.328 . S
C34 H39 0.930 . S
C35 C36 1.333 1_565 S
C35 N37 1.317 1_565 S
C35 H40 0.930 . S
C36 C35 1.333 1_545 S
C36 N38 1.350 . S
C36 H62 0.931 1_545 S
N37 Co33 2.148 . S
N37 C34 1.301 . S
N37 C35 1.317 1_545 S
N38 C34 1.328 . S
N38 C36 1.350 . S
H39 C34 0.930 . S
H40 C35 0.930 . S
C41 O42 1.224 . S
C41 O60 1.247 . S
O42 C41 1.224 . S
N43 Co33 2.128 . S
N43 C44 1.355 . S
N43 C46 1.311 1_545 S
C44 N43 1.355 . S
C44 C45 1.363 . S
C44 H56 0.929 . S
C45 C44 1.363 . S
C45 N47 1.375 . S
C45 H63 0.931 . S
C46 N43 1.311 1_565 S
C46 N47 1.347 1_565 S
C46 H57 0.929 . S
N47 C45 1.375 . S
N47 C46 1.347 1_545 S
C48 C51 1.365 . S
C48 N53 1.328 . S
C48 H54 0.929 . S
C49 C50 1.362 . S
C49 C52 1.378 . S
C49 H64 0.929 . S
C50 C49 1.362 . S
C50 C51 1.366 . S
C51 C48 1.365 . S
C51 C50 1.366 . S
C51 H65 0.930 . S
C52 C49 1.378 . S
C52 N53 1.315 . S
C52 H55 0.930 . S
N53 Co33 2.194 . S
N53 C48 1.328 . S
N53 C52 1.315 . S
H54 C48 0.929 . S
H55 C52 0.930 . S
H56 C44 0.929 . S
H57 C46 0.929 . S
O58 Co33 2.351 . S
O58 C61 1.244 . S
O59 Co33 2.155 . S
O59 C61 1.240 . S
O60 Co33 2.096 1_565 S
O60 C41 1.247 . S
C61 O58 1.244 . S
C61 O59 1.240 . S
H62 C36 0.931 1_565 S
H63 C45 0.931 . S
H64 C49 0.929 . S
H65 C51 0.930 . S
Co66 N70 2.148 . S
Co66 N76 2.128 . S
Co66 N86 2.194 . S
Co66 O91 2.351 . S
Co66 O92 2.155 . S
Co66 O93 2.096 1_655 S
C67 N70 1.301 . S
C67 N71 1.328 . S
C67 H72 0.930 . S
C68 C69 1.333 1_455 S
C68 N70 1.317 1_455 S
C68 H73 0.930 . S
C69 C68 1.333 1_655 S
C69 N71 1.350 . S
C69 H95 0.931 1_655 S
N70 Co66 2.148 . S
N70 C67 1.301 . S
N70 C68 1.317 1_655 S
N71 C67 1.328 . S
N71 C69 1.350 . S
H72 C67 0.930 . S
H73 C68 0.930 . S
C74 O75 1.224 . S
C74 O93 1.247 . S
O75 C74 1.224 . S
N76 Co66 2.128 . S
N76 C77 1.355 . S
N76 C79 1.311 1_655 S
C77 N76 1.355 . S
C77 C78 1.363 . S
C77 H89 0.929 . S
C78 C77 1.363 . S
C78 N80 1.375 . S
C78 H96 0.931 . S
C79 N76 1.311 1_455 S
C79 N80 1.347 1_455 S
C79 H90 0.929 . S
N80 C78 1.375 . S
N80 C79 1.347 1_655 S
C81 C84 1.365 . S
C81 N86 1.328 . S
C81 H87 0.929 . S
C82 C83 1.362 . S
C82 C85 1.378 . S
C82 H97 0.929 . S
C83 C82 1.362 . S
C83 C84 1.366 . S
C84 C81 1.365 . S
C84 C83 1.366 . S
C84 H98 0.930 . S
C85 C82 1.378 . S
C85 N86 1.315 . S
C85 H88 0.930 . S
N86 Co66 2.194 . S
N86 C81 1.328 . S
N86 C85 1.315 . S
H87 C81 0.929 . S
H88 C85 0.930 . S
H89 C77 0.929 . S
H90 C79 0.929 . S
O91 Co66 2.351 . S
O91 C94 1.244 . S
O92 Co66 2.155 . S
O92 C94 1.240 . S
O93 Co66 2.096 1_455 S
O93 C74 1.247 . S
C94 O91 1.244 . S
C94 O92 1.240 . S
H95 C69 0.931 1_455 S
H96 C78 0.931 . S
H97 C82 0.929 . S
H98 C84 0.930 . S
Co99 N103 2.148 . S
Co99 N109 2.128 . S
Co99 N119 2.194 . S
Co99 O124 2.351 . S
Co99 O125 2.155 . S
Co99 O126 2.096 1_565 S
C100 N103 1.301 . S
C100 N104 1.328 . S
C100 H105 0.930 . S
C101 C102 1.333 1_545 S
C101 N103 1.317 1_545 S
C101 H106 0.930 . S
C102 C101 1.333 1_565 S
C102 N104 1.350 . S
C102 H128 0.931 1_565 S
N103 Co99 2.148 . S
N103 C100 1.301 . S
N103 C101 1.317 1_565 S
N104 C100 1.328 . S
N104 C102 1.350 . S
H105 C100 0.930 . S
H106 C101 0.930 . S
C107 O108 1.224 . S
C107 O126 1.247 . S
O108 C107 1.224 . S
N109 Co99 2.128 . S
N109 C110 1.355 . S
N109 C112 1.311 1_565 S
C110 N109 1.355 . S
C110 C111 1.363 . S
C110 H122 0.929 . S
C111 C110 1.363 . S
C111 N113 1.375 . S
C111 H129 0.931 . S
C112 N109 1.311 1_545 S
C112 N113 1.347 1_545 S
C112 H123 0.929 . S
N113 C111 1.375 . S
N113 C112 1.347 1_565 S
C114 C117 1.365 . S
C114 N119 1.328 . S
C114 H120 0.929 . S
C115 C116 1.362 . S
C115 C118 1.378 . S
C115 H130 0.929 . S
C116 C115 1.362 . S
C116 C117 1.366 . S
C117 C114 1.365 . S
C117 C116 1.366 . S
C117 H131 0.930 . S
C118 C115 1.378 . S
C118 N119 1.315 . S
C118 H121 0.930 . S
N119 Co99 2.194 . S
N119 C114 1.328 . S
N119 C118 1.315 . S
H120 C114 0.929 . S
H121 C118 0.930 . S
H122 C110 0.929 . S
H123 C112 0.929 . S
O124 Co99 2.351 . S
O124 C127 1.244 . S
O125 Co99 2.155 . S
O125 C127 1.240 . S
O126 Co99 2.096 1_545 S
O126 C107 1.247 . S
C127 O124 1.244 . S
C127 O125 1.240 . S
H128 C102 0.931 1_545 S
H129 C111 0.931 . S
H130 C115 0.929 . S
H131 C117 0.930 . S
Co132 N136 2.148 . S
Co132 N142 2.128 . S
Co132 N152 2.194 . S
Co132 O157 2.351 . S
Co132 O158 2.155 . S
Co132 O159 2.096 1_455 S
C133 N136 1.301 . S
C133 N137 1.328 . S
C133 H138 0.930 . S
C134 C135 1.333 1_655 S
C134 N136 1.317 1_655 S
C134 H139 0.930 . S
C135 C134 1.333 1_455 S
C135 N137 1.350 . S
C135 H161 0.931 1_455 S
N136 Co132 2.148 . S
N136 C133 1.301 . S
N136 C134 1.317 1_455 S
N137 C133 1.328 . S
N137 C135 1.350 . S
H138 C133 0.930 . S
H139 C134 0.930 . S
C140 O141 1.224 . S
C140 O159 1.247 . S
O141 C140 1.224 . S
N142 Co132 2.128 . S
N142 C143 1.355 . S
N142 C145 1.311 1_455 S
C143 N142 1.355 . S
C143 C144 1.363 . S
C143 H155 0.929 . S
C144 C143 1.363 . S
C144 N146 1.375 . S
C144 H162 0.931 . S
C145 N142 1.311 1_655 S
C145 N146 1.347 1_655 S
C145 H156 0.929 . S
N146 C144 1.375 . S
N146 C145 1.347 1_455 S
C147 C150 1.365 . S
C147 N152 1.328 . S
C147 H153 0.929 . S
C148 C149 1.362 . S
C148 C151 1.378 . S
C148 H163 0.929 . S
C149 C148 1.362 . S
C149 C150 1.366 . S
C150 C147 1.365 . S
C150 C149 1.366 . S
C150 H164 0.930 . S
C151 C148 1.378 . S
C151 N152 1.315 . S
C151 H154 0.930 . S
N152 Co132 2.194 . S
N152 C147 1.328 . S
N152 C151 1.315 . S
H153 C147 0.929 . S
H154 C151 0.930 . S
H155 C143 0.929 . S
H156 C145 0.929 . S
O157 Co132 2.351 . S
O157 C160 1.244 . S
O158 Co132 2.155 . S
O158 C160 1.240 . S
O159 Co132 2.096 1_655 S
O159 C140 1.247 . S
C160 O157 1.244 . S
C160 O158 1.240 . S
H161 C135 0.931 1_655 S
H162 C144 0.931 . S
H163 C148 0.929 . S
H164 C150 0.930 . S
Co165 N169 2.148 . S
Co165 N175 2.128 . S
Co165 N185 2.194 . S
Co165 O190 2.351 . S
Co165 O191 2.155 . S
Co165 O192 2.096 1_545 S
C166 N169 1.301 . S
C166 N170 1.328 . S
C166 H171 0.930 . S
C167 C168 1.333 1_565 S
C167 N169 1.317 1_565 S
C167 H172 0.930 . S
C168 C167 1.333 1_545 S
C168 N170 1.350 . S
C168 H194 0.931 1_545 S
N169 Co165 2.148 . S
N169 C166 1.301 . S
N169 C167 1.317 1_545 S
N170 C166 1.328 . S
N170 C168 1.350 . S
H171 C166 0.930 . S
H172 C167 0.930 . S
C173 O174 1.224 . S
C173 O192 1.247 . S
O174 C173 1.224 . S
N175 Co165 2.128 . S
N175 C176 1.355 . S
N175 C178 1.311 1_545 S
C176 N175 1.355 . S
C176 C177 1.363 . S
C176 H188 0.929 . S
C177 C176 1.363 . S
C177 N179 1.375 . S
C177 H195 0.931 . S
C178 N175 1.311 1_565 S
C178 N179 1.347 1_565 S
C178 H189 0.929 . S
N179 C177 1.375 . S
N179 C178 1.347 1_545 S
C180 C183 1.365 . S
C180 N185 1.328 . S
C180 H186 0.929 . S
C181 C182 1.362 . S
C181 C184 1.378 . S
C181 H196 0.929 . S
C182 C181 1.362 . S
C182 C183 1.366 . S
C183 C180 1.365 . S
C183 C182 1.366 . S
C183 H197 0.930 . S
C184 C181 1.378 . S
C184 N185 1.315 . S
C184 H187 0.930 . S
N185 Co165 2.194 . S
N185 C180 1.328 . S
N185 C184 1.315 . S
H186 C180 0.929 . S
H187 C184 0.930 . S
H188 C176 0.929 . S
H189 C178 0.929 . S
O190 Co165 2.351 . S
O190 C193 1.244 . S
O191 Co165 2.155 . S
O191 C193 1.240 . S
O192 Co165 2.096 1_565 S
O192 C173 1.247 . S
C193 O190 1.244 . S
C193 O191 1.240 . S
H194 C168 0.931 1_565 S
H195 C177 0.931 . S
H196 C181 0.929 . S
H197 C183 0.930 . S
Co198 N202 2.148 . S
Co198 N208 2.128 . S
Co198 N218 2.194 . S
Co198 O223 2.351 . S
Co198 O224 2.155 . S
Co198 O225 2.096 1_655 S
C199 N202 1.301 . S
C199 N203 1.328 . S
C199 H204 0.930 . S
C200 C201 1.333 1_455 S
C200 N202 1.317 1_455 S
C200 H205 0.930 . S
C201 C200 1.333 1_655 S
C201 N203 1.350 . S
C201 H227 0.931 1_655 S
N202 Co198 2.148 . S
N202 C199 1.301 . S
N202 C200 1.317 1_655 S
N203 C199 1.328 . S
N203 C201 1.350 . S
H204 C199 0.930 . S
H205 C200 0.930 . S
C206 O207 1.224 . S
C206 O225 1.247 . S
O207 C206 1.224 . S
N208 Co198 2.128 . S
N208 C209 1.355 . S
N208 C211 1.311 1_655 S
C209 N208 1.355 . S
C209 C210 1.363 . S
C209 H221 0.929 . S
C210 C209 1.363 . S
C210 N212 1.375 . S
C210 H228 0.931 . S
C211 N208 1.311 1_455 S
C211 N212 1.347 1_455 S
C211 H222 0.929 . S
N212 C210 1.375 . S
N212 C211 1.347 1_655 S
C213 C216 1.365 . S
C213 N218 1.328 . S
C213 H219 0.929 . S
C214 C215 1.362 . S
C214 C217 1.378 . S
C214 H229 0.929 . S
C215 C214 1.362 . S
C215 C216 1.366 . S
C216 C213 1.365 . S
C216 C215 1.366 . S
C216 H230 0.930 . S
C217 C214 1.378 . S
C217 N218 1.315 . S
C217 H220 0.930 . S
N218 Co198 2.194 . S
N218 C213 1.328 . S
N218 C217 1.315 . S
H219 C213 0.929 . S
H220 C217 0.930 . S
H221 C209 0.929 . S
H222 C211 0.929 . S
O223 Co198 2.351 . S
O223 C226 1.244 . S
O224 Co198 2.155 . S
O224 C226 1.240 . S
O225 Co198 2.096 1_455 S
O225 C206 1.247 . S
C226 O223 1.244 . S
C226 O224 1.240 . S
H227 C201 0.931 1_455 S
H228 C210 0.931 . S
H229 C214 0.929 . S
H230 C216 0.930 . S
Co231 N235 2.148 . S
Co231 N241 2.128 . S
Co231 N251 2.194 . S
Co231 O256 2.351 . S
Co231 O257 2.155 . S
Co231 O258 2.096 1_565 S
C232 N235 1.301 . S
C232 N236 1.328 . S
C232 H237 0.930 . S
C233 C234 1.333 1_545 S
C233 N235 1.317 1_545 S
C233 H238 0.930 . S
C234 C233 1.333 1_565 S
C234 N236 1.350 . S
C234 H260 0.931 1_565 S
N235 Co231 2.148 . S
N235 C232 1.301 . S
N235 C233 1.317 1_565 S
N236 C232 1.328 . S
N236 C234 1.350 . S
H237 C232 0.930 . S
H238 C233 0.930 . S
C239 O240 1.224 . S
C239 O258 1.247 . S
O240 C239 1.224 . S
N241 Co231 2.128 . S
N241 C242 1.355 . S
N241 C244 1.311 1_565 S
C242 N241 1.355 . S
C242 C243 1.363 . S
C242 H254 0.929 . S
C243 C242 1.363 . S
C243 N245 1.375 . S
C243 H261 0.931 . S
C244 N241 1.311 1_545 S
C244 N245 1.347 1_545 S
C244 H255 0.929 . S
N245 C243 1.375 . S
N245 C244 1.347 1_565 S
C246 C249 1.365 . S
C246 N251 1.328 . S
C246 H252 0.929 . S
C247 C248 1.362 . S
C247 C250 1.378 . S
C247 H262 0.929 . S
C248 C247 1.362 . S
C248 C249 1.366 . S
C249 C246 1.365 . S
C249 C248 1.366 . S
C249 H263 0.930 . S
C250 C247 1.378 . S
C250 N251 1.315 . S
C250 H253 0.930 . S
N251 Co231 2.194 . S
N251 C246 1.328 . S
N251 C250 1.315 . S
H252 C246 0.929 . S
H253 C250 0.930 . S
H254 C242 0.929 . S
H255 C244 0.929 . S
O256 Co231 2.351 . S
O256 C259 1.244 . S
O257 Co231 2.155 . S
O257 C259 1.240 . S
O258 Co231 2.096 1_545 S
O258 C239 1.247 . S
C259 O256 1.244 . S
C259 O257 1.240 . S
H260 C234 0.931 1_545 S
H261 C243 0.931 . S
H262 C247 0.929 . S
H263 C249 0.930 . S
Co264 N268 2.148 . S
Co264 N274 2.128 . S
Co264 N284 2.194 . S
Co264 O289 2.351 . S
Co264 O290 2.155 . S
Co264 O291 2.096 . S
C265 N268 1.301 . S
C265 N269 1.328 . S
C265 H270 0.930 . S
C266 C267 1.333 . S
C266 N268 1.317 . S
C266 H271 0.930 . S
C267 C266 1.333 . S
C267 N269 1.350 . S
C267 H293 0.931 . S
N268 Co264 2.148 . S
N268 C265 1.301 . S
N268 C266 1.317 . S
N269 C265 1.328 . S
N269 C267 1.350 . S
H270 C265 0.930 . S
H271 C266 0.930 . S
C272 O273 1.224 . S
C272 O291 1.247 . S
O273 C272 1.224 . S
N274 Co264 2.128 . S
N274 C275 1.355 . S
N274 C277 1.311 . S
C275 N274 1.355 . S
C275 C276 1.363 . S
C275 H287 0.929 . S
C276 C275 1.363 . S
C276 N278 1.375 . S
C276 H294 0.931 . S
C277 N274 1.311 . S
C277 N278 1.347 . S
C277 H288 0.929 . S
N278 C276 1.375 . S
N278 C277 1.347 . S
C279 C282 1.365 . S
C279 N284 1.328 . S
C279 H285 0.929 . S
C280 C281 1.362 . S
C280 C283 1.378 . S
C280 H295 0.929 . S
C281 C280 1.362 . S
C281 C282 1.366 . S
C282 C279 1.365 . S
C282 C281 1.366 . S
C282 H296 0.930 . S
C283 C280 1.378 . S
C283 N284 1.315 . S
C283 H286 0.930 . S
N284 Co264 2.194 . S
N284 C279 1.328 . S
N284 C283 1.315 . S
H285 C279 0.929 . S
H286 C283 0.930 . S
H287 C275 0.929 . S
H288 C277 0.929 . S
O289 Co264 2.351 . S
O289 C292 1.244 . S
O290 Co264 2.155 . S
O290 C292 1.240 . S
O291 Co264 2.096 . S
O291 C272 1.247 . S
C292 O289 1.244 . S
C292 O290 1.240 . S
H293 C267 0.931 . S
H294 C276 0.931 . S
H295 C280 0.929 . S
H296 C282 0.930 . S
Co297 N301 2.148 . S
Co297 N307 2.128 . S
Co297 N317 2.194 . S
Co297 O322 2.351 . S
Co297 O323 2.155 . S
Co297 O324 2.096 . S
C298 N301 1.301 . S
C298 N302 1.328 . S
C298 H303 0.930 . S
C299 C300 1.333 . S
C299 N301 1.317 . S
C299 H304 0.930 . S
C300 C299 1.333 . S
C300 N302 1.350 . S
C300 H326 0.931 . S
N301 Co297 2.148 . S
N301 C298 1.301 . S
N301 C299 1.317 . S
N302 C298 1.328 . S
N302 C300 1.350 . S
H303 C298 0.930 . S
H304 C299 0.930 . S
C305 O306 1.224 . S
C305 O324 1.247 . S
O306 C305 1.224 . S
N307 Co297 2.128 . S
N307 C308 1.355 . S
N307 C310 1.311 . S
C308 N307 1.355 . S
C308 C309 1.363 . S
C308 H320 0.929 . S
C309 C308 1.363 . S
C309 N311 1.375 . S
C309 H327 0.931 . S
C310 N307 1.311 . S
C310 N311 1.347 . S
C310 H321 0.929 . S
N311 C309 1.375 . S
N311 C310 1.347 . S
C312 C315 1.365 . S
C312 N317 1.328 . S
C312 H318 0.929 . S
C313 C314 1.362 . S
C313 C316 1.378 . S
C313 H328 0.929 . S
C314 C313 1.362 . S
C314 C315 1.366 . S
C315 C312 1.365 . S
C315 C314 1.366 . S
C315 H329 0.930 . S
C316 C313 1.378 . S
C316 N317 1.315 . S
C316 H319 0.930 . S
N317 Co297 2.194 . S
N317 C312 1.328 . S
N317 C316 1.315 . S
H318 C312 0.929 . S
H319 C316 0.930 . S
H320 C308 0.929 . S
H321 C310 0.929 . S
O322 Co297 2.351 . S
O322 C325 1.244 . S
O323 Co297 2.155 . S
O323 C325 1.240 . S
O324 Co297 2.096 . S
O324 C305 1.247 . S
C325 O322 1.244 . S
C325 O323 1.240 . S
H326 C300 0.931 . S
H327 C309 0.931 . S
H328 C313 0.929 . S
H329 C315 0.930 . S
Co330 N334 2.148 . S
Co330 N340 2.128 . S
Co330 N350 2.194 . S
Co330 O355 2.351 . S
Co330 O356 2.155 . S
Co330 O357 2.096 . S
C331 N334 1.301 . S
C331 N335 1.328 . S
C331 H336 0.930 . S
C332 C333 1.333 . S
C332 N334 1.317 . S
C332 H337 0.930 . S
C333 C332 1.333 . S
C333 N335 1.350 . S
C333 H359 0.931 . S
N334 Co330 2.148 . S
N334 C331 1.301 . S
N334 C332 1.317 . S
N335 C331 1.328 . S
N335 C333 1.350 . S
H336 C331 0.930 . S
H337 C332 0.930 . S
C338 O339 1.224 . S
C338 O357 1.247 . S
O339 C338 1.224 . S
N340 Co330 2.128 . S
N340 C341 1.355 . S
N340 C343 1.311 . S
C341 N340 1.355 . S
C341 C342 1.363 . S
C341 H353 0.929 . S
C342 C341 1.363 . S
C342 N344 1.375 . S
C342 H360 0.931 . S
C343 N340 1.311 . S
C343 N344 1.347 . S
C343 H354 0.929 . S
N344 C342 1.375 . S
N344 C343 1.347 . S
C345 C348 1.365 . S
C345 N350 1.328 . S
C345 H351 0.929 . S
C346 C347 1.362 . S
C346 C349 1.378 . S
C346 H361 0.929 . S
C347 C346 1.362 . S
C347 C348 1.366 . S
C348 C345 1.365 . S
C348 C347 1.366 . S
C348 H362 0.930 . S
C349 C346 1.378 . S
C349 N350 1.315 . S
C349 H352 0.930 . S
N350 Co330 2.194 . S
N350 C345 1.328 . S
N350 C349 1.315 . S
H351 C345 0.929 . S
H352 C349 0.930 . S
H353 C341 0.929 . S
H354 C343 0.929 . S
O355 Co330 2.351 . S
O355 C358 1.244 . S
O356 Co330 2.155 . S
O356 C358 1.240 . S
O357 Co330 2.096 . S
O357 C338 1.247 . S
C358 O355 1.244 . S
C358 O356 1.240 . S
H359 C333 0.931 . S
H360 C342 0.931 . S
H361 C346 0.929 . S
H362 C348 0.930 . S
Co363 N367 2.148 . S
Co363 N373 2.128 . S
Co363 N383 2.194 . S
Co363 O388 2.351 . S
Co363 O389 2.155 . S
Co363 O390 2.096 . S
C364 N367 1.301 . S
C364 N368 1.328 . S
C364 H369 0.930 . S
C365 C366 1.333 . S
C365 N367 1.317 . S
C365 H370 0.930 . S
C366 C365 1.333 . S
C366 N368 1.350 . S
C366 H392 0.931 . S
N367 Co363 2.148 . S
N367 C364 1.301 . S
N367 C365 1.317 . S
N368 C364 1.328 . S
N368 C366 1.350 . S
H369 C364 0.930 . S
H370 C365 0.930 . S
C371 O372 1.224 . S
C371 O390 1.247 . S
O372 C371 1.224 . S
N373 Co363 2.128 . S
N373 C374 1.355 . S
N373 C376 1.311 . S
C374 N373 1.355 . S
C374 C375 1.363 . S
C374 H386 0.929 . S
C375 C374 1.363 . S
C375 N377 1.375 . S
C375 H393 0.931 . S
C376 N373 1.311 . S
C376 N377 1.347 . S
C376 H387 0.929 . S
N377 C375 1.375 . S
N377 C376 1.347 . S
C378 C381 1.365 . S
C378 N383 1.328 . S
C378 H384 0.929 . S
C379 C380 1.362 . S
C379 C382 1.378 . S
C379 H394 0.929 . S
C380 C379 1.362 . S
C380 C381 1.366 . S
C381 C378 1.365 . S
C381 C380 1.366 . S
C381 H395 0.930 . S
C382 C379 1.378 . S
C382 N383 1.315 . S
C382 H385 0.930 . S
N383 Co363 2.194 . S
N383 C378 1.328 . S
N383 C382 1.315 . S
H384 C378 0.929 . S
H385 C382 0.930 . S
H386 C374 0.929 . S
H387 C376 0.929 . S
O388 Co363 2.351 . S
O388 C391 1.244 . S
O389 Co363 2.155 . S
O389 C391 1.240 . S
O390 Co363 2.096 . S
O390 C371 1.247 . S
C391 O388 1.244 . S
C391 O389 1.240 . S
H392 C366 0.931 . S
H393 C375 0.931 . S
H394 C379 0.929 . S
H395 C381 0.930 . S
Co396 N400 2.148 . S
Co396 N406 2.128 . S
Co396 N416 2.194 . S
Co396 O421 2.351 . S
Co396 O422 2.155 . S
Co396 O423 2.096 . S
C397 N400 1.301 . S
C397 N401 1.328 . S
C397 H402 0.930 . S
C398 C399 1.333 . S
C398 N400 1.317 . S
C398 H403 0.930 . S
C399 C398 1.333 . S
C399 N401 1.350 . S
C399 H425 0.931 . S
N400 Co396 2.148 . S
N400 C397 1.301 . S
N400 C398 1.317 . S
N401 C397 1.328 . S
N401 C399 1.350 . S
H402 C397 0.930 . S
H403 C398 0.930 . S
C404 O405 1.224 . S
C404 O423 1.247 . S
O405 C404 1.224 . S
N406 Co396 2.128 . S
N406 C407 1.355 . S
N406 C409 1.311 . S
C407 N406 1.355 . S
C407 C408 1.363 . S
C407 H419 0.929 . S
C408 C407 1.363 . S
C408 N410 1.375 . S
C408 H426 0.931 . S
C409 N406 1.311 . S
C409 N410 1.347 . S
C409 H420 0.929 . S
N410 C408 1.375 . S
N410 C409 1.347 . S
C411 C414 1.365 . S
C411 N416 1.328 . S
C411 H417 0.929 . S
C412 C413 1.362 . S
C412 C415 1.378 . S
C412 H427 0.929 . S
C413 C412 1.362 . S
C413 C414 1.366 . S
C414 C411 1.365 . S
C414 C413 1.366 . S
C414 H428 0.930 . S
C415 C412 1.378 . S
C415 N416 1.315 . S
C415 H418 0.930 . S
N416 Co396 2.194 . S
N416 C411 1.328 . S
N416 C415 1.315 . S
H417 C411 0.929 . S
H418 C415 0.930 . S
H419 C407 0.929 . S
H420 C409 0.929 . S
O421 Co396 2.351 . S
O421 C424 1.244 . S
O422 Co396 2.155 . S
O422 C424 1.240 . S
O423 Co396 2.096 . S
O423 C404 1.247 . S
C424 O421 1.244 . S
C424 O422 1.240 . S
H425 C399 0.931 . S
H426 C408 0.931 . S
H427 C412 0.929 . S
H428 C414 0.930 . S
Co429 N433 2.148 . S
Co429 N439 2.128 . S
Co429 N449 2.194 . S
Co429 O454 2.351 . S
Co429 O455 2.155 . S
Co429 O456 2.096 . S
C430 N433 1.301 . S
C430 N434 1.328 . S
C430 H435 0.930 . S
C431 C432 1.333 . S
C431 N433 1.317 . S
C431 H436 0.930 . S
C432 C431 1.333 . S
C432 N434 1.350 . S
C432 H458 0.931 . S
N433 Co429 2.148 . S
N433 C430 1.301 . S
N433 C431 1.317 . S
N434 C430 1.328 . S
N434 C432 1.350 . S
H435 C430 0.930 . S
H436 C431 0.930 . S
C437 O438 1.224 . S
C437 O456 1.247 . S
O438 C437 1.224 . S
N439 Co429 2.128 . S
N439 C440 1.355 . S
N439 C442 1.311 . S
C440 N439 1.355 . S
C440 C441 1.363 . S
C440 H452 0.929 . S
C441 C440 1.363 . S
C441 N443 1.375 . S
C441 H459 0.931 . S
C442 N439 1.311 . S
C442 N443 1.347 . S
C442 H453 0.929 . S
N443 C441 1.375 . S
N443 C442 1.347 . S
C444 C447 1.365 . S
C444 N449 1.328 . S
C444 H450 0.929 . S
C445 C446 1.362 . S
C445 C448 1.378 . S
C445 H460 0.929 . S
C446 C445 1.362 . S
C446 C447 1.366 . S
C447 C444 1.365 . S
C447 C446 1.366 . S
C447 H461 0.930 . S
C448 C445 1.378 . S
C448 N449 1.315 . S
C448 H451 0.930 . S
N449 Co429 2.194 . S
N449 C444 1.328 . S
N449 C448 1.315 . S
H450 C444 0.929 . S
H451 C448 0.930 . S
H452 C440 0.929 . S
H453 C442 0.929 . S
O454 Co429 2.351 . S
O454 C457 1.244 . S
O455 Co429 2.155 . S
O455 C457 1.240 . S
O456 Co429 2.096 . S
O456 C437 1.247 . S
C457 O454 1.244 . S
C457 O455 1.240 . S
H458 C432 0.931 . S
H459 C441 0.931 . S
H460 C445 0.929 . S
H461 C447 0.930 . S
Co462 N466 2.148 . S
Co462 N472 2.128 . S
Co462 N482 2.194 . S
Co462 O487 2.351 . S
Co462 O488 2.155 . S
Co462 O489 2.096 . S
C463 N466 1.301 . S
C463 N467 1.328 . S
C463 H468 0.930 . S
C464 C465 1.333 . S
C464 N466 1.317 . S
C464 H469 0.930 . S
C465 C464 1.333 . S
C465 N467 1.350 . S
C465 H491 0.931 . S
N466 Co462 2.148 . S
N466 C463 1.301 . S
N466 C464 1.317 . S
N467 C463 1.328 . S
N467 C465 1.350 . S
H468 C463 0.930 . S
H469 C464 0.930 . S
C470 O471 1.224 . S
C470 O489 1.247 . S
O471 C470 1.224 . S
N472 Co462 2.128 . S
N472 C473 1.355 . S
N472 C475 1.311 . S
C473 N472 1.355 . S
C473 C474 1.363 . S
C473 H485 0.929 . S
C474 C473 1.363 . S
C474 N476 1.375 . S
C474 H492 0.931 . S
C475 N472 1.311 . S
C475 N476 1.347 . S
C475 H486 0.929 . S
N476 C474 1.375 . S
N476 C475 1.347 . S
C477 C480 1.365 . S
C477 N482 1.328 . S
C477 H483 0.929 . S
C478 C479 1.362 . S
C478 C481 1.378 . S
C478 H493 0.929 . S
C479 C478 1.362 . S
C479 C480 1.366 . S
C480 C477 1.365 . S
C480 C479 1.366 . S
C480 H494 0.930 . S
C481 C478 1.378 . S
C481 N482 1.315 . S
C481 H484 0.930 . S
N482 Co462 2.194 . S
N482 C477 1.328 . S
N482 C481 1.315 . S
H483 C477 0.929 . S
H484 C481 0.930 . S
H485 C473 0.929 . S
H486 C475 0.929 . S
O487 Co462 2.351 . S
O487 C490 1.244 . S
O488 Co462 2.155 . S
O488 C490 1.240 . S
O489 Co462 2.096 . S
O489 C470 1.247 . S
C490 O487 1.244 . S
C490 O488 1.240 . S
H491 C465 0.931 . S
H492 C474 0.931 . S
H493 C478 0.929 . S
H494 C480 0.930 . S
Co495 N499 2.148 . S
Co495 N505 2.128 . S
Co495 N515 2.194 . S
Co495 O520 2.351 . S
Co495 O521 2.155 . S
Co495 O522 2.096 . S
C496 N499 1.301 . S
C496 N500 1.328 . S
C496 H501 0.930 . S
C497 C498 1.333 . S
C497 N499 1.317 . S
C497 H502 0.930 . S
C498 C497 1.333 . S
C498 N500 1.350 . S
C498 H524 0.931 . S
N499 Co495 2.148 . S
N499 C496 1.301 . S
N499 C497 1.317 . S
N500 C496 1.328 . S
N500 C498 1.350 . S
H501 C496 0.930 . S
H502 C497 0.930 . S
C503 O504 1.224 . S
C503 O522 1.247 . S
O504 C503 1.224 . S
N505 Co495 2.128 . S
N505 C506 1.355 . S
N505 C508 1.311 . S
C506 N505 1.355 . S
C506 C507 1.363 . S
C506 H518 0.929 . S
C507 C506 1.363 . S
C507 N509 1.375 . S
C507 H525 0.931 . S
C508 N505 1.311 . S
C508 N509 1.347 . S
C508 H519 0.929 . S
N509 C507 1.375 . S
N509 C508 1.347 . S
C510 C513 1.365 . S
C510 N515 1.328 . S
C510 H516 0.929 . S
C511 C512 1.362 . S
C511 C514 1.378 . S
C511 H526 0.929 . S
C512 C511 1.362 . S
C512 C513 1.366 . S
C513 C510 1.365 . S
C513 C512 1.366 . S
C513 H527 0.930 . S
C514 C511 1.378 . S
C514 N515 1.315 . S
C514 H517 0.930 . S
N515 Co495 2.194 . S
N515 C510 1.328 . S
N515 C514 1.315 . S
H516 C510 0.929 . S
H517 C514 0.930 . S
H518 C506 0.929 . S
H519 C508 0.929 . S
O520 Co495 2.351 . S
O520 C523 1.244 . S
O521 Co495 2.155 . S
O521 C523 1.240 . S
O522 Co495 2.096 . S
O522 C503 1.247 . S
C523 O520 1.244 . S
C523 O521 1.240 . S
H524 C498 0.931 . S
H525 C507 0.931 . S
H526 C511 0.929 . S
H527 C513 0.930 . S
C528 C529 1.369 . S
C528 C530 1.419 . S
C528 H532 0.930 . S
C529 C528 1.369 . S
C529 C538 1.429 1_655 S
C530 C528 1.419 . S
C530 C531 1.363 1_655 S
C530 H533 0.929 . S
C531 C530 1.363 1_455 S
C531 C537 1.428 . S
H532 C528 0.930 . S
H533 C530 0.929 . S
S534 N535 1.613 . S
S534 N536 1.610 . S
N535 S534 1.613 . S
N535 C538 1.350 . S
N536 S534 1.610 . S
N536 C537 1.351 . S
C537 C531 1.428 . S
C537 N536 1.351 . S
C537 C538 1.434 . S
C538 C529 1.429 1_455 S
C538 N535 1.350 . S
C538 C537 1.434 . S
C539 C540 1.369 . S
C539 C541 1.419 . S
C539 H543 0.930 . S
C540 C539 1.369 . S
C540 C549 1.429 1_545 S
C541 C539 1.419 . S
C541 C542 1.363 1_545 S
C541 H544 0.929 . S
C542 C541 1.363 1_565 S
C542 C548 1.428 . S
H543 C539 0.930 . S
H544 C541 0.929 . S
S545 N546 1.613 . S
S545 N547 1.610 . S
N546 S545 1.613 . S
N546 C549 1.350 . S
N547 S545 1.610 . S
N547 C548 1.351 . S
C548 C542 1.428 . S
C548 N547 1.351 . S
C548 C549 1.434 . S
C549 C540 1.429 1_565 S
C549 N546 1.350 . S
C549 C548 1.434 . S
C550 C551 1.369 . S
C550 C552 1.419 . S
C550 H554 0.930 . S
C551 C550 1.369 . S
C551 C560 1.429 1_655 S
C552 C550 1.419 . S
C552 C553 1.363 1_655 S
C552 H555 0.929 . S
C553 C552 1.363 1_455 S
C553 C559 1.428 . S
H554 C550 0.930 . S
H555 C552 0.929 . S
S556 N557 1.613 . S
S556 N558 1.610 . S
N557 S556 1.613 . S
N557 C560 1.350 . S
N558 S556 1.610 . S
N558 C559 1.351 . S
C559 C553 1.428 . S
C559 N558 1.351 . S
C559 C560 1.434 . S
C560 C551 1.429 1_455 S
C560 N557 1.350 . S
C560 C559 1.434 . S
C561 C562 1.369 1_545 S
C561 C563 1.419 . S
C561 H565 0.930 . S
C562 C561 1.369 1_565 S
C562 C571 1.429 . S
C563 C561 1.419 . S
C563 C564 1.363 . S
C563 H566 0.929 . S
C564 C563 1.363 . S
C564 C570 1.428 1_545 S
H565 C561 0.930 . S
H566 C563 0.929 . S
S567 N568 1.613 . S
S567 N569 1.610 . S
N568 S567 1.613 . S
N568 C571 1.350 . S
N569 S567 1.610 . S
N569 C570 1.351 . S
C570 C564 1.428 1_565 S
C570 N569 1.351 . S
C570 C571 1.434 . S
C571 C562 1.429 . S
C571 N568 1.350 . S
C571 C570 1.434 . S
C572 C573 1.369 . S
C572 C574 1.419 1_565 S
C572 H576 0.930 . S
C573 C572 1.369 . S
C573 C582 1.429 . S
C574 C572 1.419 1_545 S
C574 C575 1.363 . S
C574 H577 0.929 . S
C575 C574 1.363 . S
C575 C581 1.428 . S
H576 C572 0.930 . S
H577 C574 0.929 . S
S578 N579 1.613 . S
S578 N580 1.610 . S
N579 S578 1.613 . S
N579 C582 1.350 . S
N580 S578 1.610 . S
N580 C581 1.351 1_565 S
C581 C575 1.428 . S
C581 N580 1.351 1_545 S
C581 C582 1.434 1_545 S
C582 C573 1.429 . S
C582 N579 1.350 . S
C582 C581 1.434 1_565 S
C583 C584 1.369 . S
C583 C585 1.419 1_655 S
C583 H587 0.930 . S
C584 C583 1.369 . S
C584 C593 1.429 . S
C585 C583 1.419 1_455 S
C585 C586 1.363 . S
C585 H588 0.929 . S
C586 C585 1.363 . S
C586 C592 1.428 . S
H587 C583 0.930 . S
H588 C585 0.929 . S
S589 N590 1.613 . S
S589 N591 1.610 1_655 S
N590 S589 1.613 . S
N590 C593 1.350 . S
N591 S589 1.610 1_455 S
N591 C592 1.351 . S
C592 C586 1.428 . S
C592 N591 1.351 . S
C592 C593 1.434 1_455 S
C593 C584 1.429 . S
C593 N590 1.350 . S
C593 C592 1.434 1_655 S
C594 C595 1.369 . S
C594 C596 1.419 1_565 S
C594 H598 0.930 . S
C595 C594 1.369 . S
C595 C604 1.429 . S
C596 C594 1.419 1_545 S
C596 C597 1.363 . S
C596 H599 0.929 . S
C597 C596 1.363 . S
C597 C603 1.447 . S
H598 C594 0.930 . S
H599 C596 0.929 . S
S600 N601 1.613 . S
S600 N602 1.610 . S
N601 S600 1.613 . S
N601 C604 1.350 . S
N602 S600 1.610 . S
N602 C603 1.350 1_565 S
C603 C597 1.447 . S
C603 N602 1.350 1_545 S
C603 C604 1.415 1_545 S
C604 C595 1.429 . S
C604 N601 1.350 . S
C604 C603 1.415 1_565 S
C605 C606 1.369 1_455 S
C605 C607 1.419 . S
C605 H609 0.930 . S
C606 C605 1.369 1_655 S
C606 C615 1.429 . S
C607 C605 1.419 . S
C607 C608 1.363 . S
C607 H610 0.929 . S
C608 C607 1.363 . S
C608 C614 1.428 1_455 S
H609 C605 0.930 . S
H610 C607 0.929 . S
S611 N612 1.613 . S
S611 N613 1.610 . S
N612 S611 1.613 . S
N612 C615 1.350 . S
N613 S611 1.610 . S
N613 C614 1.351 . S
C614 C608 1.428 1_655 S
C614 N613 1.351 . S
C614 C615 1.434 . S
C615 C606 1.429 . S
C615 N612 1.350 . S
C615 C614 1.434 . S
C616 C617 1.369 . S
C616 C618 1.419 . S
C616 H620 0.930 . S
C617 C616 1.369 . S
C617 C626 1.429 . S
C618 C616 1.419 . S
C618 C619 1.363 . S
C618 H621 0.929 . S
C619 C618 1.363 . S
C619 C625 1.428 . S
H620 C616 0.930 . S
H621 C618 0.929 . S
S622 N623 1.613 . S
S622 N624 1.610 . S
N623 S622 1.613 . S
N623 C626 1.350 . S
N624 S622 1.610 . S
N624 C625 1.351 . S
C625 C619 1.428 . S
C625 N624 1.351 . S
C625 C626 1.434 . S
C626 C617 1.429 . S
C626 N623 1.350 . S
C626 C625 1.434 . S
C627 C628 1.369 . S
C627 C629 1.419 . S
C627 H631 0.930 . S
C628 C627 1.369 . S
C628 C637 1.429 . S
C629 C627 1.419 . S
C629 C630 1.363 . S
C629 H632 0.929 . S
C630 C629 1.363 . S
C630 C636 1.428 . S
H631 C627 0.930 . S
H632 C629 0.929 . S
S633 N634 1.613 . S
S633 N635 1.610 . S
N634 S633 1.613 . S
N634 C637 1.350 . S
N635 S633 1.610 . S
N635 C636 1.351 . S
C636 C630 1.428 . S
C636 N635 1.351 . S
C636 C637 1.434 . S
C637 C628 1.429 . S
C637 N634 1.350 . S
C637 C636 1.434 . S
C638 C639 1.369 . S
C638 C640 1.419 . S
C638 H642 0.930 . S
C639 C638 1.369 . S
C639 C648 1.429 . S
C640 C638 1.419 . S
C640 C641 1.363 . S
C640 H643 0.929 . S
C641 C640 1.363 . S
C641 C647 1.428 . S
H642 C638 0.930 . S
H643 C640 0.929 . S
S644 N645 1.613 . S
S644 N646 1.610 . S
N645 S644 1.613 . S
N645 C648 1.350 . S
N646 S644 1.610 . S
N646 C647 1.351 . S
C647 C641 1.428 . S
C647 N646 1.351 . S
C647 C648 1.434 . S
C648 C639 1.429 . S
C648 N645 1.350 . S
C648 C647 1.434 . S
C649 C650 1.369 . S
C649 C651 1.419 . S
C649 H653 0.930 . S
C650 C649 1.369 . S
C650 C659 1.429 . S
C651 C649 1.419 . S
C651 C652 1.363 . S
C651 H654 0.929 . S
C652 C651 1.363 . S
C652 C658 1.428 . S
H653 C649 0.930 . S
H654 C651 0.929 . S
S655 N656 1.613 . S
S655 N657 1.610 . S
N656 S655 1.613 . S
N656 C659 1.350 . S
N657 S655 1.610 . S
N657 C658 1.351 . S
C658 C652 1.428 . S
C658 N657 1.351 . S
C658 C659 1.434 . S
C659 C650 1.429 . S
C659 N656 1.350 . S
C659 C658 1.434 . S
C660 C661 1.369 . S
C660 C662 1.419 . S
C660 H664 0.930 . S
C661 C660 1.369 . S
C661 C670 1.429 . S
C662 C660 1.419 . S
C662 C663 1.363 . S
C662 H665 0.929 . S
C663 C662 1.363 . S
C663 C669 1.428 . S
H664 C660 0.930 . S
H665 C662 0.929 . S
S666 N667 1.613 . S
S666 N668 1.610 . S
N667 S666 1.613 . S
N667 C670 1.350 . S
N668 S666 1.610 . S
N668 C669 1.351 . S
C669 C663 1.428 . S
C669 N668 1.351 . S
C669 C670 1.434 . S
C670 C661 1.429 . S
C670 N667 1.350 . S
C670 C669 1.434 . S
C671 C672 1.369 . S
C671 C673 1.419 . S
C671 H675 0.930 . S
C672 C671 1.369 . S
C672 C681 1.429 . S
C673 C671 1.419 . S
C673 C674 1.363 . S
C673 H676 0.929 . S
C674 C673 1.363 . S
C674 C680 1.428 . S
H675 C671 0.930 . S
H676 C673 0.929 . S
S677 N678 1.613 . S
S677 N679 1.610 . S
N678 S677 1.613 . S
N678 C681 1.350 . S
N679 S677 1.610 . S
N679 C680 1.351 . S
C680 C674 1.428 . S
C680 N679 1.351 . S
C680 C681 1.434 . S
C681 C672 1.429 . S
C681 N678 1.350 . S
C681 C680 1.434 . S
C682 C683 1.369 . S
C682 C684 1.419 . S
C682 H686 0.930 . S
C683 C682 1.369 . S
C683 C692 1.429 . S
C684 C682 1.419 . S
C684 C685 1.363 . S
C684 H687 0.929 . S
C685 C684 1.363 . S
C685 C691 1.428 . S
H686 C682 0.930 . S
H687 C684 0.929 . S
S688 N689 1.613 . S
S688 N690 1.610 . S
N689 S688 1.613 . S
N689 C692 1.350 . S
N690 S688 1.610 . S
N690 C691 1.351 . S
C691 C685 1.428 . S
C691 N690 1.351 . S
C691 C692 1.434 . S
C692 C683 1.429 . S
C692 N689 1.350 . S
C692 C691 1.434 . S
C693 C694 1.369 . S
C693 C695 1.419 . S
C693 H697 0.930 . S
C694 C693 1.369 . S
C694 C703 1.429 . S
C695 C693 1.419 . S
C695 C696 1.363 . S
C695 H698 0.929 . S
C696 C695 1.363 . S
C696 C702 1.428 . S
H697 C693 0.930 . S
H698 C695 0.929 . S
S699 N700 1.613 . S
S699 N701 1.610 . S
N700 S699 1.613 . S
N700 C703 1.350 . S
N701 S699 1.610 . S
N701 C702 1.351 . S
C702 C696 1.428 . S
C702 N701 1.351 . S
C702 C703 1.434 . S
C703 C694 1.429 . S
C703 N700 1.350 . S
C703 C702 1.434 . S
C704 C705 1.369 . S
C704 C706 1.419 . S
C704 H708 0.930 . S
C705 C704 1.369 . S
C705 C714 1.429 . S
C706 C704 1.419 . S
C706 C707 1.363 . S
C706 H709 0.929 . S
C707 C706 1.363 . S
C707 C713 1.428 . S
H708 C704 0.930 . S
H709 C706 0.929 . S
S710 N711 1.613 . S
S710 N712 1.610 . S
N711 S710 1.613 . S
N711 C714 1.350 . S
N712 S710 1.610 . S
N712 C713 1.351 . S
C713 C707 1.428 . S
C713 N712 1.351 . S
C713 C714 1.434 . S
C714 C705 1.429 . S
C714 N711 1.350 . S
C714 C713 1.434 . S
C715 C716 1.369 . S
C715 C717 1.419 . S
C715 H719 0.930 . S
C716 C715 1.369 . S
C716 C725 1.429 . S
C717 C715 1.419 . S
C717 C718 1.363 . S
C717 H720 0.929 . S
C718 C717 1.363 . S
C718 C724 1.428 . S
H719 C715 0.930 . S
H720 C717 0.929 . S
S721 N722 1.613 . S
S721 N723 1.610 . S
N722 S721 1.613 . S
N722 C725 1.350 . S
N723 S721 1.610 . S
N723 C724 1.351 . S
C724 C718 1.428 . S
C724 N723 1.351 . S
C724 C725 1.434 . S
C725 C716 1.429 . S
C725 N722 1.350 . S
C725 C724 1.434 . S
C726 C727 1.369 . S
C726 C728 1.419 . S
C726 H730 0.930 . S
C727 C726 1.369 . S
C727 C736 1.429 . S
C728 C726 1.419 . S
C728 C729 1.363 . S
C728 H731 0.929 . S
C729 C728 1.363 . S
C729 C735 1.428 . S
H730 C726 0.930 . S
H731 C728 0.929 . S
S732 N733 1.613 . S
S732 N734 1.610 . S
N733 S732 1.613 . S
N733 C736 1.350 . S
N734 S732 1.610 . S
N734 C735 1.351 . S
C735 C729 1.428 . S
C735 N734 1.351 . S
C735 C736 1.434 . S
C736 C727 1.429 . S
C736 N733 1.350 . S
C736 C735 1.434 . S
C737 C738 1.369 . S
C737 C739 1.419 . S
C737 H741 0.930 . S
C738 C737 1.369 . S
C738 C747 1.429 . S
C739 C737 1.419 . S
C739 C740 1.363 . S
C739 H742 0.929 . S
C740 C739 1.363 . S
C740 C746 1.428 . S
H741 C737 0.930 . S
H742 C739 0.929 . S
S743 N744 1.613 . S
S743 N745 1.610 . S
N744 S743 1.613 . S
N744 C747 1.350 . S
N745 S743 1.610 . S
N745 C746 1.351 . S
C746 C740 1.428 . S
C746 N745 1.351 . S
C746 C747 1.434 . S
C747 C738 1.429 . S
C747 N744 1.350 . S
C747 C746 1.434 . S
C748 C749 1.369 . S
C748 C750 1.419 . S
C748 H752 0.930 . S
C749 C748 1.369 . S
C749 C758 1.429 . S
C750 C748 1.419 . S
C750 C751 1.363 . S
C750 H753 0.929 . S
C751 C750 1.363 . S
C751 C757 1.428 . S
H752 C748 0.930 . S
H753 C750 0.929 . S
S754 N755 1.613 . S
S754 N756 1.610 . S
N755 S754 1.613 . S
N755 C758 1.350 . S
N756 S754 1.610 . S
N756 C757 1.351 . S
C757 C751 1.428 . S
C757 N756 1.351 . S
C757 C758 1.434 . S
C758 C749 1.429 . S
C758 N755 1.350 . S
C758 C757 1.434 . S
C759 C760 1.369 . S
C759 C761 1.419 . S
C759 H763 0.930 . S
C760 C759 1.369 . S
C760 C769 1.429 . S
C761 C759 1.419 . S
C761 C762 1.363 . S
C761 H764 0.929 . S
C762 C761 1.363 . S
C762 C768 1.428 . S
H763 C759 0.930 . S
H764 C761 0.929 . S
S765 N766 1.613 . S
S765 N767 1.610 . S
N766 S765 1.613 . S
N766 C769 1.350 . S
N767 S765 1.610 . S
N767 C768 1.351 . S
C768 C762 1.428 . S
C768 N767 1.351 . S
C768 C769 1.434 . S
C769 C760 1.429 . S
C769 N766 1.350 . S
C769 C768 1.434 . S
C770 C771 1.369 . S
C770 C772 1.419 . S
C770 H774 0.930 . S
C771 C770 1.369 . S
C771 C780 1.429 . S
C772 C770 1.419 . S
C772 C773 1.363 . S
C772 H775 0.929 . S
C773 C772 1.363 . S
C773 C779 1.428 . S
H774 C770 0.930 . S
H775 C772 0.929 . S
S776 N777 1.613 . S
S776 N778 1.610 . S
N777 S776 1.613 . S
N777 C780 1.350 . S
N778 S776 1.610 . S
N778 C779 1.351 . S
C779 C773 1.428 . S
C779 N778 1.351 . S
C779 C780 1.434 . S
C780 C771 1.429 . S
C780 N777 1.350 . S
C780 C779 1.434 . S
C781 C782 1.369 . S
C781 C783 1.419 . S
C781 H785 0.930 . S
C782 C781 1.369 . S
C782 C791 1.429 . S
C783 C781 1.419 . S
C783 C784 1.363 . S
C783 H786 0.929 . S
C784 C783 1.363 . S
C784 C790 1.428 . S
H785 C781 0.930 . S
H786 C783 0.929 . S
S787 N788 1.613 . S
S787 N789 1.610 . S
N788 S787 1.613 . S
N788 C791 1.350 . S
N789 S787 1.610 . S
N789 C790 1.351 . S
C790 C784 1.428 . S
C790 N789 1.351 . S
C790 C791 1.434 . S
C791 C782 1.429 . S
C791 N788 1.350 . S
C791 C790 1.434 . S
C792 C793 1.369 . S
C792 C794 1.419 . S
C792 H796 0.930 . S
C793 C792 1.369 . S
C793 C802 1.429 . S
C794 C792 1.419 . S
C794 C795 1.363 . S
C794 H797 0.929 . S
C795 C794 1.363 . S
C795 C801 1.428 . S
H796 C792 0.930 . S
H797 C794 0.929 . S
S798 N799 1.613 . S
S798 N800 1.610 . S
N799 S798 1.613 . S
N799 C802 1.350 . S
N800 S798 1.610 . S
N800 C801 1.351 . S
C801 C795 1.428 . S
C801 N800 1.351 . S
C801 C802 1.434 . S
C802 C793 1.429 . S
C802 N799 1.350 . S
C802 C801 1.434 . S
C803 C804 1.369 . S
C803 C805 1.419 . S
C803 H807 0.930 . S
C804 C803 1.369 . S
C804 C813 1.429 . S
C805 C803 1.419 . S
C805 C806 1.363 . S
C805 H808 0.929 . S
C806 C805 1.363 . S
C806 C812 1.428 . S
H807 C803 0.930 . S
H808 C805 0.929 . S
S809 N810 1.613 . S
S809 N811 1.610 . S
N810 S809 1.613 . S
N810 C813 1.350 . S
N811 S809 1.610 . S
N811 C812 1.351 . S
C812 C806 1.428 . S
C812 N811 1.351 . S
C812 C813 1.434 . S
C813 C804 1.429 . S
C813 N810 1.350 . S
C813 C812 1.434 . S
C814 C815 1.369 . S
C814 C816 1.419 . S
C814 H818 0.930 . S
C815 C814 1.369 . S
C815 C824 1.429 . S
C816 C814 1.419 . S
C816 C817 1.363 . S
C816 H819 0.929 . S
C817 C816 1.363 . S
C817 C823 1.428 . S
H818 C814 0.930 . S
H819 C816 0.929 . S
S820 N821 1.613 . S
S820 N822 1.610 . S
N821 S820 1.613 . S
N821 C824 1.350 . S
N822 S820 1.610 . S
N822 C823 1.351 . S
C823 C817 1.428 . S
C823 N822 1.351 . S
C823 C824 1.434 . S
C824 C815 1.429 . S
C824 N821 1.350 . S
C824 C823 1.434 . S
C825 C826 1.369 . S
C825 C827 1.419 . S
C825 H829 0.930 . S
C826 C825 1.369 . S
C826 C835 1.429 . S
C827 C825 1.419 . S
C827 C828 1.363 . S
C827 H830 0.929 . S
C828 C827 1.363 . S
C828 C834 1.428 . S
H829 C825 0.930 . S
H830 C827 0.929 . S
S831 N832 1.613 . S
S831 N833 1.610 . S
N832 S831 1.613 . S
N832 C835 1.350 . S
N833 S831 1.610 . S
N833 C834 1.351 . S
C834 C828 1.428 . S
C834 N833 1.351 . S
C834 C835 1.434 . S
C835 C826 1.429 . S
C835 N832 1.350 . S
C835 C834 1.434 . S
C836 C837 1.369 . S
C836 C838 1.419 . S
C836 H840 0.930 . S
C837 C836 1.369 . S
C837 C846 1.429 . S
C838 C836 1.419 . S
C838 C839 1.363 . S
C838 H841 0.929 . S
C839 C838 1.363 . S
C839 C845 1.428 . S
H840 C836 0.930 . S
H841 C838 0.929 . S
S842 N843 1.613 . S
S842 N844 1.610 . S
N843 S842 1.613 . S
N843 C846 1.350 . S
N844 S842 1.610 . S
N844 C845 1.351 . S
C845 C839 1.428 . S
C845 N844 1.351 . S
C845 C846 1.434 . S
C846 C837 1.429 . S
C846 N843 1.350 . S
C846 C845 1.434 . S
C847 C848 1.369 . S
C847 C849 1.419 . S
C847 H851 0.930 . S
C848 C847 1.369 . S
C848 C857 1.429 . S
C849 C847 1.419 . S
C849 C850 1.363 . S
C849 H852 0.929 . S
C850 C849 1.363 . S
C850 C856 1.428 . S
H851 C847 0.930 . S
H852 C849 0.929 . S
S853 N854 1.613 . S
S853 N855 1.610 . S
N854 S853 1.613 . S
N854 C857 1.350 . S
N855 S853 1.610 . S
N855 C856 1.351 . S
C856 C850 1.428 . S
C856 N855 1.351 . S
C856 C857 1.434 . S
C857 C848 1.429 . S
C857 N854 1.350 . S
C857 C856 1.434 . S
C858 C859 1.369 . S
C858 C860 1.419 . S
C858 H862 0.930 . S
C859 C858 1.369 . S
C859 C868 1.429 . S
C860 C858 1.419 . S
C860 C861 1.363 . S
C860 H863 0.929 . S
C861 C860 1.363 . S
C861 C867 1.428 . S
H862 C858 0.930 . S
H863 C860 0.929 . S
S864 N865 1.613 . S
S864 N866 1.610 . S
N865 S864 1.613 . S
N865 C868 1.350 . S
N866 S864 1.610 . S
N866 C867 1.351 . S
C867 C861 1.428 . S
C867 N866 1.351 . S
C867 C868 1.434 . S
C868 C859 1.429 . S
C868 N865 1.350 . S
C868 C867 1.434 . S
C869 C870 1.369 . S
C869 C871 1.419 . S
C869 H873 0.930 . S
C870 C869 1.369 . S
C870 C879 1.429 . S
C871 C869 1.419 . S
C871 C872 1.363 . S
C871 H874 0.929 . S
C872 C871 1.363 . S
C872 C878 1.428 . S
H873 C869 0.930 . S
H874 C871 0.929 . S
S875 N876 1.613 . S
S875 N877 1.610 . S
N876 S875 1.613 . S
N876 C879 1.350 . S
N877 S875 1.610 . S
N877 C878 1.351 . S
C878 C872 1.428 . S
C878 N877 1.351 . S
C878 C879 1.434 . S
C879 C870 1.429 . S
C879 N876 1.350 . S
C879 C878 1.434 . S
C880 C881 1.369 . S
C880 C882 1.419 . S
C880 H884 0.930 . S
C881 C880 1.369 . S
C881 C890 1.429 1_655 S
C882 C880 1.419 . S
C882 C883 1.363 1_655 S
C882 H885 0.929 . S
C883 C882 1.363 1_455 S
C883 C889 1.428 . S
H884 C880 0.930 . S
H885 C882 0.929 . S
S886 N887 1.613 . S
S886 N888 1.610 . S
N887 S886 1.613 . S
N887 C890 1.350 . S
N888 S886 1.610 . S
N888 C889 1.351 . S
C889 C883 1.428 . S
C889 N888 1.351 . S
C889 C890 1.434 . S
C890 C881 1.429 1_455 S
C890 N887 1.350 . S
C890 C889 1.434 . S
C891 C892 1.369 . S
C891 C893 1.419 . S
C891 H895 0.930 . S
C892 C891 1.369 . S
C892 C901 1.429 1_545 S
C893 C891 1.419 . S
C893 C894 1.363 1_545 S
C893 H896 0.929 . S
C894 C893 1.363 1_565 S
C894 C900 1.428 . S
H895 C891 0.930 . S
H896 C893 0.929 . S
S897 N898 1.613 . S
S897 N899 1.610 . S
N898 S897 1.613 . S
N898 C901 1.350 . S
N899 S897 1.610 . S
N899 C900 1.351 . S
C900 C894 1.428 . S
C900 N899 1.351 . S
C900 C901 1.434 . S
C901 C892 1.429 1_565 S
C901 N898 1.350 . S
C901 C900 1.434 . S
C902 C903 1.369 . S
C902 C904 1.419 . S
C902 H906 0.930 . S
C903 C902 1.369 . S
C903 C912 1.429 1_655 S
C904 C902 1.419 . S
C904 C905 1.363 1_655 S
C904 H907 0.929 . S
C905 C904 1.363 1_455 S
C905 C911 1.428 . S
H906 C902 0.930 . S
H907 C904 0.929 . S
S908 N909 1.613 . S
S908 N910 1.610 . S
N909 S908 1.613 . S
N909 C912 1.350 . S
N910 S908 1.610 . S
N910 C911 1.351 . S
C911 C905 1.428 . S
C911 N910 1.351 . S
C911 C912 1.434 . S
C912 C903 1.429 1_455 S
C912 N909 1.350 . S
C912 C911 1.434 . S
C913 C914 1.369 . S
C913 C915 1.419 1_565 S
C913 H917 0.930 . S
C914 C913 1.369 . S
C914 C923 1.429 1_565 S
C915 C913 1.419 1_545 S
C915 C916 1.363 . S
C915 H918 0.929 . S
C916 C915 1.363 . S
C916 C922 1.428 . S
H917 C913 0.930 . S
H918 C915 0.929 . S
S919 N920 1.613 . S
S919 N921 1.610 . S
N920 S919 1.613 . S
N920 C923 1.350 . S
N921 S919 1.610 . S
N921 C922 1.351 . S
C922 C916 1.428 . S
C922 N921 1.351 . S
C922 C923 1.434 . S
C923 C914 1.429 1_545 S
C923 N920 1.350 . S
C923 C922 1.434 . S
C924 C925 1.369 . S
C924 C926 1.419 1_556 S
C924 H928 0.930 . S
C925 C924 1.369 . S
C925 C934 1.429 . S
C926 C924 1.419 1_554 S
C926 C927 1.363 . S
C926 H929 0.929 . S
C927 C926 1.363 . S
C927 C933 1.428 . S
H928 C924 0.930 . S
H929 C926 0.929 . S
S930 N931 1.613 1_554 S
S930 N932 1.610 . S
N931 S930 1.613 1_556 S
N931 C934 1.350 . S
N932 S930 1.610 . S
N932 C933 1.351 . S
C933 C927 1.428 . S
C933 N932 1.351 . S
C933 C934 1.434 1_554 S
C934 C925 1.429 . S
C934 N931 1.350 . S
C934 C933 1.434 1_556 S
C935 C936 1.369 . S
C935 C937 1.419 1_554 S
C935 H939 0.930 . S
C936 C935 1.369 . S
C936 C945 1.429 . S
C937 C935 1.419 1_556 S
C937 C938 1.363 . S
C937 H940 0.929 . S
C938 C937 1.363 . S
C938 C944 1.428 . S
H939 C935 0.930 . S
H940 C937 0.929 . S
S941 N942 1.613 . S
S941 N943 1.610 1_554 S
N942 S941 1.613 . S
N942 C945 1.350 . S
N943 S941 1.610 1_556 S
N943 C944 1.351 . S
C944 C938 1.428 . S
C944 N943 1.351 . S
C944 C945 1.434 1_556 S
C945 C936 1.429 . S
C945 N942 1.350 . S
C945 C944 1.434 1_554 S
C946 C947 1.369 . S
C946 C948 1.419 1_554 S
C946 H950 0.930 . S
C947 C946 1.369 . S
C947 C956 1.429 . S
C948 C946 1.419 1_556 S
C948 C949 1.363 . S
C948 H951 0.929 . S
C949 C948 1.363 . S
C949 C955 1.428 . S
H950 C946 0.930 . S
H951 C948 0.929 . S
S952 N953 1.613 . S
S952 N954 1.610 1_554 S
N953 S952 1.613 . S
N953 C956 1.350 . S
N954 S952 1.610 1_556 S
N954 C955 1.351 . S
C955 C949 1.428 . S
C955 N954 1.351 . S
C955 C956 1.434 1_556 S
C956 C947 1.429 . S
C956 N953 1.350 . S
C956 C955 1.434 1_554 S
C957 C958 1.369 . S
C957 C959 1.419 1_556 S
C957 H961 0.930 . S
C958 C957 1.369 . S
C958 C967 1.429 . S
C959 C957 1.419 1_554 S
C959 C960 1.363 . S
C959 H962 0.929 . S
C960 C959 1.363 . S
C960 C966 1.428 . S
H961 C957 0.930 . S
H962 C959 0.929 . S
S963 N964 1.617 . S
S963 N965 1.606 1_556 S
N964 S963 1.617 . S
N964 C967 1.350 . S
N965 S963 1.606 1_554 S
N965 C966 1.351 . S
C966 C960 1.428 . S
C966 N965 1.351 . S
C966 C967 1.434 1_554 S
C967 C958 1.429 . S
C967 N964 1.350 . S
C967 C966 1.434 1_556 S
C529 C94 1.091 . S
C531 C28 1.107 . S
C540 C61 1.091 . S
C542 C127 1.107 . S
C551 C226 1.091 . S
C553 C160 1.107 . S
C562 C259 1.104 . S
C564 C193 1.096 . S
C573 C292 1.098 . S
C575 C358 1.103 . S
C584 C391 1.093 . S
C586 C325 1.104 . S
C595 C490 1.098 . S
C597 C424 1.103 . S
C606 C457 1.094 . S
C608 C523 1.106 . S
C617 N5 1.763 . S
C619 N500 1.762 . S
C628 N401 1.761 . S
C630 N38 1.761 . S
C639 N434 1.763 . S
C641 N71 1.761 . S
C650 N467 1.763 . S
C652 N104 1.762 . S
C661 N302 1.761 . S
C663 N137 1.763 . S
C672 N335 1.763 . S
C674 N170 1.761 . S
C683 N368 1.761 . S
C685 N203 1.763 . S
C694 N269 1.763 . S
C696 N236 1.761 . S
C705 C17 1.519 . S
C707 C107 1.586 . S
C716 C8 1.588 . S
C718 C50 1.516 . S
C727 C83 1.524 . S
C729 C41 1.586 . S
C738 C74 1.586 . S
C740 C116 1.520 . S
C749 C173 1.587 . S
C751 C149 1.515 . S
C760 C182 1.518 . S
C762 C206 1.586 . S
C771 C239 1.587 . S
C773 C215 1.517 . S
C782 C140 1.587 . S
C784 C248 1.516 . S
C793 C281 1.524 . S
C795 C371 1.586 . S
C804 C272 1.587 . S
C806 C314 1.521 . S
C815 C347 1.524 . S
C817 C305 1.586 . S
C826 C380 1.515 . S
C828 C338 1.587 . S
C837 C413 1.517 . S
C839 C437 1.587 . S
C848 C470 1.586 . S
C850 C446 1.523 . S
C859 C503 1.586 . S
C861 C479 1.521 . S
C870 C512 1.524 . S
C872 C404 1.586 . S
C881 N14 1.540 1_655 S
C883 N212 1.541 1_455 S
C892 N245 1.533 1_545 S
C894 N47 1.541 1_565 S
C903 N146 1.538 1_655 S
C905 N80 1.542 1_455 S
C914 N179 1.534 1_565 S
C916 N113 1.538 1_545 S
C925 N278 1.544 . S
C927 N476 1.538 . S
C936 N509 1.534 . S
C938 N311 1.542 . S
C947 N410 1.533 . S
C949 N344 1.540 . S
C958 N377 1.542 . S
C960 N443 1.539 . S
