# Generated by pormake.
# Topology unh, (4)-cn, num edge types: 1
# Building blocks:
#     Node 0, Type 0, BuildingBlock: QUQFOY_clean_sbu_3, # of connection points: 4
#     Node 1, Type 0, BuildingBlock: QUQFOY_clean_sbu_3, # of connection points: 4
#     Node 2, Type 0, BuildingBlock: QUQFOY_clean_sbu_3, # of connection points: 4
#     Node 3, Type 0, BuildingBlock: QUQFOY_clean_sbu_3, # of connection points: 4
#     Node 4, Type 0, BuildingBlock: QUQFOY_clean_sbu_3, # of connection points: 4
#     Node 5, Type 0, BuildingBlock: QUQFOY_clean_sbu_3, # of connection points: 4
#     Edge 6, Type (0, 0), BuildingBlock: FUNLAD_clean_linker_1, # of connection points: 2
#     Edge 7, Type (0, 0), BuildingBlock: FUNLAD_clean_linker_1, # of connection points: 2
#     Edge 8, Type (0, 0), BuildingBlock: FUNLAD_clean_linker_1, # of connection points: 2
#     Edge 9, Type (0, 0), BuildingBlock: FUNLAD_clean_linker_1, # of connection points: 2
#     Edge 10, Type (0, 0), BuildingBlock: FUNLAD_clean_linker_1, # of connection points: 2
#     Edge 11, Type (0, 0), BuildingBlock: FUNLAD_clean_linker_1, # of connection points: 2
#     Edge 12, Type (0, 0), BuildingBlock: FUNLAD_clean_linker_1, # of connection points: 2
#     Edge 13, Type (0, 0), BuildingBlock: FUNLAD_clean_linker_1, # of connection points: 2
#     Edge 14, Type (0, 0), BuildingBlock: FUNLAD_clean_linker_1, # of connection points: 2
#     Edge 15, Type (0, 0), BuildingBlock: FUNLAD_clean_linker_1, # of connection points: 2
#     Edge 16, Type (0, 0), BuildingBlock: FUNLAD_clean_linker_1, # of connection points: 2
#     Edge 17, Type (0, 0), BuildingBlock: FUNLAD_clean_linker_1, # of connection points: 2
# Relax obj value: 0.079
# Max RMSD: 0.192
# Mean RMSD: 0.192
data_MOF--net-unh--node1-QUQFOY_clean_sbu_3--edge1-FUNLAD_clean_linker_1
_symmetry_space_group_name_H-M    P1
_symmetry_Int_Tables_number       1
_symmetry_cell_setting            triclinic
loop_
_symmetry_equiv_pos_as_xyz
'x, y, z'
_cell_length_a     44.847637
_cell_length_b     44.392465
_cell_length_c     24.132986
_cell_angle_alpha  89.9359
_cell_angle_beta   89.821957
_cell_angle_gamma 119.79766
loop_
_atom_site_label
_atom_site_type_symbol
_atom_site_fract_x
_atom_site_fract_y
_atom_site_fract_z
_atom_type_partial_charge
C0 C 0.18289 0.53315 0.13396 0.0
O1 O 0.18114 0.52081 0.08586 0.0
Cd2 Cd 0.14251 0.51821 0.01503 0.0
O3 O 0.16284 0.54435 0.14842 0.0
Cd4 Cd 0.11574 0.5506 0.10659 0.0
C5 C 0.16977 0.60521 0.00898 0.0
O6 O 0.08658 0.49569 0.05536 0.0
O7 O 0.07164 0.53383 0.03616 0.0
O8 O 0.08435 0.53391 0.19376 0.0
C9 C 0.0667 0.50337 0.02953 0.0
O10 O 0.1667 0.57837 0.98462 0.0
C11 C 0.08049 0.56033 0.19705 0.0
O12 O 0.15578 0.60293 0.05588 0.0
O13 O 0.09387 0.58293 0.15891 0.0
C14 C 0.64584 0.17416 0.26146 0.0
O15 O 0.65807 0.16628 0.22014 0.0
Cd16 Cd 0.61849 0.13554 0.14628 0.0
O17 O 0.61359 0.16146 0.26653 0.0
Cd18 Cd 0.56034 0.11635 0.22251 0.0
C19 C 0.57025 0.17597 0.13089 0.0
O20 O 0.57487 0.07716 0.17056 0.0
O21 O 0.53028 0.08033 0.14458 0.0
O22 O 0.54799 0.08466 0.30835 0.0
C23 C 0.54804 0.06539 0.14086 0.0
O24 O 0.59419 0.17114 0.11253 0.0
C25 C 0.51913 0.08252 0.31705 0.0
O26 O 0.5533 0.16023 0.1741 0.0
O27 O 0.50867 0.09623 0.28137 0.0
C28 C 0.49122 0.66986 0.43101 0.0
O29 O 0.50864 0.6777 0.3865 0.0
Cd30 Cd 0.50412 0.63516 0.32051 0.0
O31 O 0.47234 0.63826 0.44562 0.0
Cd32 Cd 0.45838 0.57965 0.41331 0.0
C33 C 0.41619 0.58897 0.30493 0.0
O34 O 0.5134 0.59393 0.37016 0.0
O35 O 0.47028 0.54359 0.35129 0.0
O36 O 0.46526 0.56301 0.50635 0.0
C37 C 0.50219 0.56482 0.34661 0.0
O38 O 0.44548 0.60906 0.28337 0.0
C39 C 0.43576 0.53598 0.50871 0.0
O40 O 0.41352 0.57614 0.3531 0.0
O41 O 0.41632 0.52956 0.46708 0.0
C42 C 0.79943 0.45391 0.6222 0.0
O43 O 0.80149 0.46458 0.57276 0.0
Cd44 Cd 0.8385 0.4594 0.50529 0.0
O45 O 0.81854 0.44211 0.63865 0.0
Cd46 Cd 0.86558 0.43337 0.60489 0.0
C47 C 0.81172 0.37195 0.51649 0.0
O48 O 0.8959 0.48205 0.53934 0.0
O49 O 0.90778 0.4403 0.5371 0.0
O50 O 0.89691 0.46392 0.68625 0.0
C51 C 0.91389 0.4697 0.51949 0.0
O52 O 0.81365 0.39742 0.48907 0.0
C53 C 0.90226 0.44021 0.7043 0.0
O54 O 0.82672 0.37663 0.56306 0.0
O55 O 0.88987 0.4122 0.67662 0.0
C56 C 0.31285 0.80389 0.73304 0.0
O57 O 0.30258 0.80584 0.68496 0.0
Cd58 Cd 0.3401 0.84457 0.6153 0.0
O59 O 0.34401 0.82366 0.74726 0.0
Cd60 Cd 0.39834 0.87168 0.70873 0.0
C61 C 0.39974 0.81695 0.61323 0.0
O62 O 0.37189 0.90049 0.65796 0.0
O63 O 0.42545 0.91851 0.64162 0.0
O64 O 0.40675 0.89256 0.80417 0.0
C65 C 0.39943 0.92199 0.63361 0.0
O66 O 0.37543 0.8189 0.58958 0.0
C67 C 0.43908 0.90505 0.80393 0.0
O68 O 0.41226 0.83237 0.6589 0.0
O69 O 0.45257 0.90173 0.75979 0.0
C70 C 0.49285 0.32498 0.91049 0.0
O71 O 0.47607 0.31977 0.86591 0.0
Cd72 Cd 0.48524 0.3682 0.80784 0.0
O73 O 0.51162 0.35562 0.92873 0.0
Cd74 Cd 0.52781 0.41627 0.91058 0.0
C75 C 0.57428 0.41316 0.80322 0.0
O76 O 0.47731 0.40939 0.8604 0.0
O77 O 0.52332 0.45998 0.8582 0.0
O78 O 0.50881 0.41648 0.00401 0.0
C79 C 0.49219 0.4409 0.84458 0.0
O80 O 0.54547 0.3949 0.77938 0.0
C81 C 0.53606 0.44321 0.01963 0.0
O82 O 0.57605 0.42351 0.85304 0.0
O83 O 0.56054 0.45756 0.98469 0.0
H84 H 0.04085 0.45483 0.98082 0.0
C85 C 0.0422 0.47963 -0.01179 0.0
H86 H 0.02502 0.51412 0.96383 0.0
H87 H -0.00983 0.4598 0.71977 0.0
H88 H 0.04901 0.50607 0.70533 0.0
H89 H 0.08697 0.53516 0.78487 0.0
H90 H 0.06643 0.51807 0.87922 0.0
C91 C 0.02304 0.48892 0.9579 0.0
C92 C 0.00195 0.46772 0.9108 0.0
C93 C 0.01448 0.47794 0.85609 0.0
C94 C -0.00746 0.4615 0.81036 0.0
C95 C 0.00566 0.47201 0.75601 0.0
C96 C 0.03939 0.49836 0.74716 0.0
C97 C 0.06077 0.51472 0.79194 0.0
C98 C 0.04862 0.50473 0.84587 0.0
H99 H 0.93352 0.47183 0.77355 0.0
C100 C 0.92358 0.44664 0.75375 0.0
H101 H 0.92342 0.3988 0.75494 0.0
H102 H 0.97129 0.43951 0.01032 0.0
H103 H 0.91313 0.39176 0.02428 0.0
H104 H 0.87507 0.36325 0.94459 0.0
H105 H 0.89495 0.38236 0.85031 0.0
C106 C 0.93306 0.42433 0.77314 0.0
C107 C 0.95797 0.43537 0.81956 0.0
C108 C 0.94633 0.4232 0.87398 0.0
C109 C 0.96834 0.43953 0.91985 0.0
C110 C 0.95569 0.42783 0.97402 0.0
C111 C 0.92237 0.40049 0.98257 0.0
C112 C 0.90092 0.38444 0.93769 0.0
C113 C 0.91259 0.39565 0.88389 0.0
H114 H 0.48566 0.9475 0.84131 0.0
C115 C 0.46042 0.92561 0.85066 0.0
H116 H 0.42342 0.89712 0.91147 0.0
H117 H 0.5713 0.02488 0.0239 0.0
H118 H 0.60024 -0.00287 0.98088 0.0
H119 H 0.56782 0.94365 0.92609 0.0
H120 H 0.50638 0.91846 0.91228 0.0
C121 C 0.4485 0.91946 0.90298 0.0
C122 C 0.46634 0.94523 0.94805 0.0
C123 C 0.50161 0.95783 0.95973 0.0
C124 C 0.51977 0.98701 -0.0049 0.0
C125 C 0.55575 0.00146 0.00061 0.0
C126 C 0.57278 0.98595 0.97566 0.0
C127 C 0.55458 0.95596 0.94456 0.0
C128 C 0.51941 0.94196 0.93652 0.0
H129 H 0.54299 0.01526 0.11452 0.0
C130 C 0.53759 0.03576 0.1032 0.0
H131 H 0.51519 0.05455 0.04663 0.0
H132 H 0.39797 0.92624 0.93832 0.0
H133 H 0.36774 0.94921 -0.00967 0.0
H134 H 0.39778 -0.0049 0.0599 0.0
H135 H 0.4585 0.01873 0.07684 0.0
C136 C 0.52004 0.03349 0.05687 0.0
C137 C 0.50182 0.00139 0.02293 0.0
C138 C 0.46581 0.98643 0.01558 0.0
C139 C 0.4482 0.95894 0.9772 0.0
C140 C 0.41269 0.94631 0.96811 0.0
C141 C 0.39489 0.95938 -0.00237 0.0
C142 C 0.4118 0.98526 0.03665 0.0
C143 C 0.44679 -0.00126 0.04568 0.0
H144 H 0.55044 0.57891 0.30158 0.0
C145 C 0.52398 0.55853 0.30793 0.0
H146 H 0.48479 0.50865 0.28434 0.0
H147 H 0.56733 0.54447 0.04971 0.0
H148 H 0.55314 0.59027 0.04006 0.0
H149 H 0.52818 0.60611 0.11826 0.0
H150 H 0.51748 0.57651 0.20648 0.0
C151 C 0.51099 0.52946 0.2775 0.0
C152 C 0.53108 0.52429 0.23323 0.0
C153 C 0.53743 0.54227 0.18201 0.0
C154 C 0.55126 0.53275 0.13657 0.0
C155 C 0.55674 0.55055 0.0855 0.0
C156 C 0.54872 0.5769 0.07937 0.0
C157 C 0.53471 0.58586 0.12342 0.0
C158 C 0.52888 0.56871 0.17408 0.0
H159 H 0.51491 0.44348 0.1014 0.0
C160 C 0.53736 0.45764 0.07492 0.0
H161 H 0.58468 0.50406 0.06448 0.0
H162 H 0.52622 0.488 0.32765 0.0
H163 H 0.54217 0.44335 0.33776 0.0
H164 H 0.56628 0.42704 0.25879 0.0
H165 H 0.57447 0.45526 0.16909 0.0
C166 C 0.56278 0.48871 0.09138 0.0
C167 C 0.55773 0.50472 0.14209 0.0
C168 C 0.55407 0.48879 0.19448 0.0
C169 C 0.5405 0.49843 0.24004 0.0
C170 C 0.53629 0.48151 0.29161 0.0
C171 C 0.54546 0.45595 0.298 0.0
C172 C 0.55901 0.44676 0.25352 0.0
C173 C 0.56337 0.46294 0.20226 0.0
H174 H 0.95115 0.47237 0.45827 0.0
C175 C 0.93863 0.48626 0.47407 0.0
H176 H 0.93385 0.53121 0.46481 0.0
H177 H 0.08285 0.58878 0.34532 0.0
H178 H 0.10003 0.62322 0.42945 0.0
H179 H 0.05723 0.615 0.50112 0.0
H180 H -0.00317 0.57209 0.48905 0.0
C181 C 0.94534 0.51621 0.44989 0.0
C182 C 0.96879 0.52848 0.40119 0.0
C183 C 0.00355 0.55445 0.40787 0.0
C184 C 0.02812 0.55941 0.36625 0.0
C185 C 0.06303 0.58429 0.37521 0.0
C186 C 0.07324 0.60416 0.42338 0.0
C187 C 0.04914 0.59951 0.46379 0.0
C188 C 0.01465 0.57483 0.45646 0.0
H189 H 0.05627 0.58638 0.24122 0.0
C190 C 0.05968 0.56379 0.2413 0.0
H191 H 0.04527 0.51521 0.27767 0.0
H192 H 0.90295 0.48206 0.3712 0.0
H193 H 0.88492 0.44937 0.28521 0.0
H194 H 0.92742 0.45758 0.21296 0.0
H195 H -0.01189 0.49847 0.22618 0.0
C196 C 0.04315 0.53855 0.27894 0.0
C197 C 0.01752 0.5386 0.31789 0.0
C198 C 0.98219 0.51499 0.30901 0.0
C199 C 0.95775 0.51012 0.3506 0.0
C200 C 0.92259 0.48624 0.34106 0.0
C201 C 0.91191 0.46751 0.29185 0.0
C202 C 0.93584 0.47214 0.25118 0.0
C203 C 0.9706 0.49559 0.25938 0.0
H204 H 0.51156 0.05528 0.39591 0.0
C205 C 0.49933 0.06446 0.36679 0.0
H206 H 0.45353 0.06501 0.34756 0.0
H207 H 0.38657 0.92275 0.48978 0.0
H208 H 0.36365 0.90122 0.39845 0.0
H209 H 0.37878 0.94129 0.31896 0.0
H210 H 0.41725 0.00329 0.33053 0.0
C211 C 0.46711 0.05759 0.37685 0.0
C212 C 0.44887 0.03619 0.42619 0.0
C213 C 0.42497 0.00048 0.4194 0.0
C214 C 0.41586 0.97752 0.46547 0.0
C215 C 0.39388 0.94154 0.45667 0.0
C216 C 0.3806 0.92879 0.40432 0.0
C217 C 0.38915 0.95134 0.35954 0.0
C218 C 0.41124 0.98679 0.36668 0.0
H219 H 0.37656 0.9475 0.5842 0.0
C220 C 0.40001 0.94678 0.59233 0.0
H221 H 0.45231 0.96692 0.57192 0.0
H222 H 0.48854 0.10426 0.45448 0.0
H223 H 0.50912 0.12682 0.54695 0.0
H224 H 0.49325 0.08721 0.62727 0.0
H225 H 0.4567 0.02486 0.61571 0.0
C226 C 0.4286 0.96696 0.56293 0.0
C227 C 0.43017 0.99074 0.51831 0.0
C228 C 0.45084 0.02701 0.52606 0.0
C229 C 0.46009 0.0498 0.47991 0.0
C230 C 0.48124 0.0859 0.48838 0.0
C231 C 0.49303 0.09912 0.54113 0.0
C232 C 0.48408 0.07681 0.58635 0.0
C233 C 0.46324 0.04113 0.57916 0.0
H234 H 0.49161 0.48177 0.7947 0.0
C235 C 0.4764 0.45449 0.80608 0.0
H236 H 0.4315 0.40687 0.7891 0.0
H237 H 0.4269 0.54358 0.67414 0.0
H238 H 0.41621 0.55607 0.76789 0.0
H239 H 0.41391 0.51929 0.84646 0.0
H240 H 0.42245 0.46983 0.8317 0.0
C241 C 0.44636 0.43453 0.78053 0.0
C242 C 0.43676 0.44951 0.73329 0.0
C243 C 0.43066 0.47751 0.74229 0.0
C244 C 0.43167 0.49845 0.697 0.0
C245 C 0.42651 0.52693 0.70727 0.0
C246 C 0.42024 0.53428 0.76077 0.0
C247 C 0.41897 0.51358 0.80502 0.0
C248 C 0.4241 0.48547 0.79612 0.0
H249 H 0.4002 0.48831 0.55487 0.0
C250 C 0.42516 0.5118 0.55604 0.0
H251 H 0.47149 0.54058 0.60007 0.0
H252 H 0.4425 0.3935 0.70116 0.0
H253 H 0.45056 0.3793 0.60725 0.0
H254 H 0.45339 0.41614 0.52853 0.0
H255 H 0.44804 0.46722 0.54313 0.0
C256 C 0.44669 0.51695 0.59803 0.0
C257 C 0.43828 0.49097 0.64283 0.0
C258 C 0.44092 0.46085 0.63312 0.0
C259 C 0.43974 0.43983 0.67853 0.0
C260 C 0.44334 0.41041 0.66815 0.0
C261 C 0.44795 0.40195 0.61445 0.0
C262 C 0.44951 0.42267 0.57014 0.0
C263 C 0.44626 0.4519 0.57912 0.0
H264 H 0.21023 0.54687 0.21392 0.0
C265 C 0.21 0.53709 0.17254 0.0
H266 H 0.23588 0.52183 0.11552 0.0
H267 H 0.35919 0.62344 0.29058 0.0
H268 H 0.351 0.66994 0.25525 0.0
H269 H 0.30459 0.6578 0.18901 0.0
H270 H 0.26565 0.59909 0.15892 0.0
C271 C 0.23585 0.53196 0.15648 0.0
C272 C 0.26521 0.53986 0.19366 0.0
C273 C 0.28878 0.57468 0.20861 0.0
C274 C 0.31676 0.58195 0.24417 0.0
C275 C 0.33854 0.61663 0.26147 0.0
C276 C 0.33397 0.64357 0.24185 0.0
C277 C 0.30776 0.63672 0.20477 0.0
C278 C 0.28538 0.60277 0.18815 0.0
H279 H 0.38828 0.59123 0.2314 0.0
C280 C 0.38508 0.58102 0.27332 0.0
H281 H 0.34958 0.55132 0.33624 0.0
H282 H 0.22438 0.47038 0.17391 0.0
H283 H 0.2338 0.4241 0.20672 0.0
H284 H 0.28399 0.43702 0.26462 0.0
H285 H 0.32492 0.49624 0.29039 0.0
C286 C 0.35332 0.56239 0.29489 0.0
C287 C 0.32237 0.55468 0.26188 0.0
C288 C 0.29878 0.51991 0.24706 0.0
C289 C 0.27011 0.51249 0.21304 0.0
C290 C 0.2468 0.47751 0.19916 0.0
C291 C 0.25187 0.45069 0.21778 0.0
C292 C 0.28011 0.45796 0.25042 0.0
C293 C 0.30339 0.49209 0.26497 0.0
H294 H 0.65726 0.2109 0.32971 0.0
C295 C 0.66846 0.19939 0.303 0.0
H296 H 0.7133 0.19778 0.28191 0.0
H297 H 0.8132 0.35148 0.36179 0.0
H298 H 0.83007 0.35289 0.26587 0.0
H299 H 0.79851 0.30182 0.20568 0.0
H300 H 0.75024 0.24897 0.24115 0.0
C301 C 0.70182 0.20899 0.30856 0.0
C302 C 0.7242 0.23767 0.34705 0.0
C303 C 0.75241 0.26836 0.32544 0.0
C304 C 0.77007 0.29808 0.35974 0.0
C305 C 0.79834 0.32837 0.33725 0.0
C306 C 0.80842 0.32951 0.2823 0.0
C307 C 0.79069 0.30074 0.24846 0.0
C308 C 0.76297 0.2705 0.26947 0.0
H309 H 0.79634 0.31623 0.51076 0.0
C310 C 0.7932 0.3368 0.49227 0.0
H311 H 0.77147 0.35139 0.42754 0.0
H312 H 0.67828 0.18024 0.40544 0.0
H313 H 0.66096 0.17871 0.50136 0.0
H314 H 0.68711 0.23188 0.55809 0.0
H315 H 0.73133 0.28651 0.51997 0.0
C316 C 0.7739 0.33051 0.44655 0.0
C317 C 0.75911 0.29734 0.41521 0.0
C318 C 0.7323 0.266 0.43785 0.0
C319 C 0.71567 0.23581 0.40417 0.0
C320 C 0.69042 0.20429 0.42848 0.0
C321 C 0.68047 0.203 0.48355 0.0
C322 C 0.6953 0.2329 0.51555 0.0
C323 C 0.72086 0.26411 0.49318 0.0
H324 H 0.39754 0.77888 0.55298 0.0
C325 C 0.41236 0.79539 0.58724 0.0
H326 H 0.4559 0.81148 0.63811 0.0
H327 H 0.46583 0.67583 0.5976 0.0
H328 H 0.45905 0.6755 0.69737 0.0
H329 H 0.44825 0.71886 0.74306 0.0
H330 H 0.44463 0.76309 0.68942 0.0
C331 C 0.44106 0.7955 0.60348 0.0
C332 C 0.45162 0.77195 0.57672 0.0
C333 C 0.45346 0.74614 0.60878 0.0
C334 C 0.4589 0.72064 0.58229 0.0
C335 C 0.46111 0.69544 0.6154 0.0
C336 C 0.45736 0.69499 0.67276 0.0
C337 C 0.45132 0.71943 0.69849 0.0
C338 C 0.44932 0.74473 0.66712 0.0
H339 H 0.51162 0.72435 0.45639 0.0
C340 C 0.49116 0.69785 0.46363 0.0
H341 H 0.44384 0.66547 0.50359 0.0
H342 H 0.45901 0.82311 0.50499 0.0
H343 H 0.46276 0.8221 0.40474 0.0
H344 H 0.46306 0.77303 0.35737 0.0
H345 H 0.46107 0.72565 0.4098 0.0
C346 C 0.46448 0.69189 0.4964 0.0
C347 C 0.46174 0.72051 0.52374 0.0
C348 C 0.46036 0.74669 0.49172 0.0
C349 C 0.45711 0.7734 0.5186 0.0
C350 C 0.45913 0.80103 0.48629 0.0
C351 C 0.46159 0.80093 0.42879 0.0
C352 C 0.46197 0.77343 0.40217 0.0
C353 C 0.46125 0.74652 0.43298 0.0
H354 H 0.60226 0.41103 0.72988 0.0
C355 C 0.60556 0.42112 0.77184 0.0
H356 H 0.64163 0.45028 0.83399 0.0
H357 H 0.7161 0.39244 0.65392 0.0
H358 H 0.67727 0.3357 0.69226 0.0
H359 H 0.63469 0.32828 0.76377 0.0
H360 H 0.63022 0.37758 0.79621 0.0
C361 C 0.63737 0.43903 0.79283 0.0
C362 C 0.66747 0.44464 0.75882 0.0
C363 C 0.67115 0.41591 0.74283 0.0
C364 C 0.69705 0.42054 0.70412 0.0
C365 C 0.69819 0.39086 0.68544 0.0
C366 C 0.67581 0.358 0.70675 0.0
C367 C 0.65175 0.3538 0.7468 0.0
C368 C 0.6493 0.3823 0.76475 0.0
H369 H 0.77374 0.44469 0.70333 0.0
C370 C 0.77366 0.45315 0.66104 0.0
H371 H 0.74825 0.46847 0.60343 0.0
H372 H 0.66853 0.50532 0.78332 0.0
H373 H 0.70935 0.56276 0.7488 0.0
H374 H 0.75605 0.57128 0.68506 0.0
H375 H 0.76209 0.5224 0.65506 0.0
C376 C 0.74864 0.45952 0.6452 0.0
C377 C 0.72071 0.45432 0.68429 0.0
C378 C 0.7178 0.48321 0.7019 0.0
C379 C 0.69111 0.47836 0.73916 0.0
C380 C 0.68845 0.50758 0.75536 0.0
C381 C 0.71171 0.54069 0.73588 0.0
C382 C 0.738 0.54549 0.69996 0.0
C383 C 0.74115 0.5172 0.68303 0.0
H384 H 0.26399 0.75722 0.75448 0.0
C385 C 0.28867 0.77666 0.77101 0.0
H386 H 0.32161 0.79281 0.84029 0.0
H387 H 0.16295 0.66786 0.9186 0.0
H388 H 0.14432 0.70912 0.89609 0.0
H389 H 0.18521 0.76696 0.85841 0.0
H390 H 0.24484 0.78348 0.8418 0.0
C391 C 0.29676 0.77395 0.82363 0.0
C392 C 0.27404 0.74268 0.85735 0.0
C393 C 0.23981 0.73424 0.86984 0.0
C394 C 0.21673 0.70165 0.89439 0.0
C395 C 0.18201 0.69283 0.90239 0.0
C396 C 0.17089 0.71621 0.88929 0.0
C397 C 0.19387 0.74872 0.86787 0.0
C398 C 0.22795 0.75777 0.85815 0.0
H399 H 0.19543 0.66249 0.00721 0.0
C400 C 0.19074 0.63973 0.98354 0.0
H401 H 0.20089 0.62112 0.9095 0.0
H402 H 0.33881 0.75186 0.84274 0.0
H403 H 0.35856 0.71251 0.87157 0.0
H404 H 0.31943 0.65748 0.9191 0.0
H405 H 0.26016 0.64134 0.9375 0.0
C406 C 0.20461 0.64365 0.93281 0.0
C407 C 0.22856 0.67846 0.9093 0.0
C408 C 0.26337 0.68789 0.90004 0.0
C409 C 0.2861 0.71994 0.87372 0.0
C410 C 0.32046 0.72813 0.86335 0.0
C411 C 0.33219 0.70573 0.87963 0.0
C412 C 0.31015 0.67473 0.9063 0.0
C413 C 0.27613 0.66576 0.91646 0.0
H414 H 0.47221 0.2692 0.92933 0.0
C415 C 0.4916 0.29542 0.94062 0.0
H416 H 0.53435 0.32675 -0.00905 0.0
H417 H 0.51783 0.22805 0.18434 0.0
H418 H 0.50576 0.26934 0.2303 0.0
H419 H 0.49707 0.31155 0.17629 0.0
H420 H 0.50075 0.31292 0.07599 0.0
C421 C 0.51514 0.30051 0.97939 0.0
C422 C 0.51544 0.27163 0.0103 0.0
C423 C 0.51218 0.27046 0.06888 0.0
C424 C 0.51643 0.24563 0.09996 0.0
C425 C 0.51432 0.24596 0.15854 0.0
C426 C 0.50743 0.26958 0.18552 0.0
C427 C 0.50259 0.29337 0.15513 0.0
C428 C 0.50491 0.29394 0.09754 0.0
H429 H 0.58063 0.21725 0.07041 0.0
C430 C 0.56189 0.1995 0.10026 0.0
H431 H 0.51239 0.18041 0.13487 0.0
H432 H 0.52644 0.26814 0.8987 0.0
H433 H 0.5332 0.22356 0.85254 0.0
H434 H 0.53295 0.17597 0.9058 0.0
H435 H 0.52713 0.17354 0.00588 0.0
C436 C 0.53137 0.19811 0.10531 0.0
C437 C 0.52331 0.22156 0.07234 0.0
C438 C 0.52394 0.22102 0.01352 0.0
C439 C 0.52147 0.24695 0.98252 0.0
C440 C 0.52594 0.24791 0.92425 0.0
C441 C 0.53017 0.22259 0.89714 0.0
C442 C 0.53022 0.19592 0.92713 0.0
C443 C 0.52717 0.19501 0.98462 0.0
loop_
_geom_bond_atom_site_label_1
_geom_bond_atom_site_label_2
_geom_bond_distance
_geom_bond_site_symmetry_2
_ccdc_geom_bond_type
C0 O1 1.306 . S
C0 O3 1.160 . S
O1 C0 1.306 . S
O1 Cd2 2.228 1_554 S
Cd2 O1 2.228 1_556 S
Cd2 O6 2.273 1_556 S
Cd2 O10 2.277 1_556 S
O3 C0 1.160 . S
O3 Cd4 2.203 . S
Cd4 O3 2.203 . S
Cd4 O6 2.411 . S
Cd4 O7 2.333 . S
Cd4 O8 2.352 . S
Cd4 O12 2.277 . S
Cd4 O13 2.356 . S
C5 O10 1.209 . S
C5 O12 1.226 . S
O6 Cd2 2.273 1_554 S
O6 Cd4 2.411 . S
O6 C9 1.327 . S
O7 Cd4 2.333 . S
O7 C9 1.223 . S
O8 Cd4 2.352 . S
O8 C11 1.258 . S
C9 O6 1.327 . S
C9 O7 1.223 . S
O10 Cd2 2.277 1_554 S
O10 C5 1.209 . S
C11 O8 1.258 . S
C11 O13 1.282 . S
O12 Cd4 2.277 . S
O12 C5 1.226 . S
O13 Cd4 2.356 . S
O13 C11 1.282 . S
C14 O15 1.306 . S
C14 O17 1.160 . S
O15 C14 1.306 . S
O15 Cd16 2.228 . S
Cd16 O15 2.228 . S
Cd16 O20 2.273 . S
Cd16 O24 2.277 . S
O17 C14 1.160 . S
O17 Cd18 2.203 . S
Cd18 O17 2.203 . S
Cd18 O20 2.411 . S
Cd18 O21 2.333 . S
Cd18 O22 2.352 . S
Cd18 O26 2.277 . S
Cd18 O27 2.356 . S
C19 O24 1.209 . S
C19 O26 1.226 . S
O20 Cd16 2.273 . S
O20 Cd18 2.411 . S
O20 C23 1.320 . S
O21 Cd18 2.333 . S
O21 C23 1.214 . S
O22 Cd18 2.352 . S
O22 C25 1.258 . S
C23 O20 1.320 . S
C23 O21 1.214 . S
O24 Cd16 2.277 . S
O24 C19 1.209 . S
C25 O22 1.258 . S
C25 O27 1.282 . S
O26 Cd18 2.277 . S
O26 C19 1.226 . S
O27 Cd18 2.356 . S
O27 C25 1.282 . S
C28 O29 1.306 . S
C28 O31 1.160 . S
O29 C28 1.306 . S
O29 Cd30 2.228 . S
Cd30 O29 2.228 . S
Cd30 O34 2.273 . S
Cd30 O38 2.277 . S
O31 C28 1.160 . S
O31 Cd32 2.203 . S
Cd32 O31 2.203 . S
Cd32 O34 2.411 . S
Cd32 O35 2.333 . S
Cd32 O36 2.352 . S
Cd32 O40 2.277 . S
Cd32 O41 2.356 . S
C33 O38 1.209 . S
C33 O40 1.226 . S
O34 Cd30 2.273 . S
O34 Cd32 2.411 . S
O34 C37 1.320 . S
O35 Cd32 2.333 . S
O35 C37 1.214 . S
O36 Cd32 2.352 . S
O36 C39 1.258 . S
C37 O34 1.320 . S
C37 O35 1.214 . S
O38 Cd30 2.277 . S
O38 C33 1.209 . S
C39 O36 1.258 . S
C39 O41 1.282 . S
O40 Cd32 2.277 . S
O40 C33 1.226 . S
O41 Cd32 2.356 . S
O41 C39 1.282 . S
C42 O43 1.306 . S
C42 O45 1.160 . S
O43 C42 1.306 . S
O43 Cd44 2.228 . S
Cd44 O43 2.228 . S
Cd44 O48 2.273 . S
Cd44 O52 2.277 . S
O45 C42 1.160 . S
O45 Cd46 2.203 . S
Cd46 O45 2.203 . S
Cd46 O48 2.411 . S
Cd46 O49 2.333 . S
Cd46 O50 2.352 . S
Cd46 O54 2.277 . S
Cd46 O55 2.356 . S
C47 O52 1.209 . S
C47 O54 1.226 . S
O48 Cd44 2.273 . S
O48 Cd46 2.411 . S
O48 C51 1.320 . S
O49 Cd46 2.333 . S
O49 C51 1.214 . S
O50 Cd46 2.352 . S
O50 C53 1.258 . S
C51 O48 1.320 . S
C51 O49 1.214 . S
O52 Cd44 2.277 . S
O52 C47 1.209 . S
C53 O50 1.258 . S
C53 O55 1.282 . S
O54 Cd46 2.277 . S
O54 C47 1.226 . S
O55 Cd46 2.356 . S
O55 C53 1.282 . S
C56 O57 1.306 . S
C56 O59 1.160 . S
O57 C56 1.306 . S
O57 Cd58 2.228 . S
Cd58 O57 2.228 . S
Cd58 O62 2.273 . S
Cd58 O66 2.277 . S
O59 C56 1.160 . S
O59 Cd60 2.203 . S
Cd60 O59 2.203 . S
Cd60 O62 2.411 . S
Cd60 O63 2.333 . S
Cd60 O64 2.352 . S
Cd60 O68 2.277 . S
Cd60 O69 2.356 . S
C61 O66 1.209 . S
C61 O68 1.226 . S
O62 Cd58 2.273 . S
O62 Cd60 2.411 . S
O62 C65 1.320 . S
O63 Cd60 2.333 . S
O63 C65 1.214 . S
O64 Cd60 2.352 . S
O64 C67 1.258 . S
C65 O62 1.320 . S
C65 O63 1.214 . S
O66 Cd58 2.277 . S
O66 C61 1.209 . S
C67 O64 1.258 . S
C67 O69 1.282 . S
O68 Cd60 2.277 . S
O68 C61 1.226 . S
O69 Cd60 2.356 . S
O69 C67 1.282 . S
C70 O71 1.306 . S
C70 O73 1.160 . S
O71 C70 1.306 . S
O71 Cd72 2.228 . S
Cd72 O71 2.228 . S
Cd72 O76 2.273 . S
Cd72 O80 2.277 . S
O73 C70 1.160 . S
O73 Cd74 2.203 . S
Cd74 O73 2.203 . S
Cd74 O76 2.411 . S
Cd74 O77 2.333 . S
Cd74 O78 2.352 . S
Cd74 O82 2.277 . S
Cd74 O83 2.356 . S
C75 O80 1.209 . S
C75 O82 1.226 . S
O76 Cd72 2.273 . S
O76 Cd74 2.411 . S
O76 C79 1.320 . S
O77 Cd74 2.333 . S
O77 C79 1.214 . S
O78 Cd74 2.352 . S
O78 C81 1.258 1_556 S
C79 O76 1.320 . S
C79 O77 1.214 . S
O80 Cd72 2.277 . S
O80 C75 1.209 . S
C81 O78 1.258 1_554 S
C81 O83 1.282 1_554 S
O82 Cd74 2.277 . S
O82 C75 1.226 . S
O83 Cd74 2.356 . S
O83 C81 1.282 1_556 S
H84 C85 0.951 . S
C85 H84 0.951 . S
C85 C91 1.265 . S
H86 C91 0.950 . S
H87 C95 0.949 1_655 S
H88 C96 0.950 . S
H89 C97 0.951 . S
H90 C98 0.951 . S
C91 C85 1.265 . S
C91 H86 0.950 . S
C91 C92 1.478 . S
C92 C91 1.478 . S
C92 C93 1.397 . S
C92 C109 1.394 . S
C93 C92 1.397 . S
C93 C94 1.438 . S
C93 C98 1.429 . S
C94 C93 1.438 . S
C94 C95 1.428 . S
C94 C107 1.394 1_455 S
C95 H87 0.949 1_455 S
C95 C94 1.428 . S
C95 C96 1.345 . S
C96 H88 0.950 . S
C96 C95 1.345 . S
C96 C97 1.424 . S
C97 H89 0.951 . S
C97 C96 1.424 . S
C97 C98 1.347 . S
C98 H90 0.951 . S
C98 C93 1.429 . S
C98 C97 1.347 . S
H99 C100 0.951 . S
C100 H99 0.951 . S
C100 C106 1.265 . S
H101 C106 0.950 . S
H102 C110 0.949 . S
H103 C111 0.950 . S
H104 C112 0.951 . S
H105 C113 0.951 . S
C106 C100 1.265 . S
C106 H101 0.950 . S
C106 C107 1.478 . S
C107 C94 1.394 1_655 S
C107 C106 1.478 . S
C107 C108 1.397 . S
C108 C107 1.397 . S
C108 C109 1.438 1_655 S
C108 C113 1.429 . S
C109 C92 1.394 . S
C109 C108 1.438 1_455 S
C109 C110 1.428 . S
C110 H102 0.949 . S
C110 C109 1.428 . S
C110 C111 1.345 1_455 S
C111 H103 0.950 . S
C111 C110 1.345 1_655 S
C111 C112 1.424 . S
C112 H104 0.951 . S
C112 C111 1.424 . S
C112 C113 1.347 . S
C113 H105 0.951 . S
C113 C108 1.429 . S
C113 C112 1.347 . S
H114 C115 0.951 . S
C115 H114 0.951 . S
C115 C121 1.265 . S
H116 C121 0.950 . S
H117 C125 0.949 . S
H118 C126 0.950 . S
H119 C127 0.951 . S
H120 C128 0.951 . S
C121 C115 1.265 . S
C121 H116 0.950 . S
C121 C122 1.478 . S
C122 C121 1.478 . S
C122 C123 1.397 . S
C122 C139 1.394 . S
C123 C122 1.397 . S
C123 C124 1.438 1_566 S
C123 C128 1.429 . S
C124 C123 1.438 1_544 S
C124 C125 1.428 . S
C124 C137 1.394 . S
C125 H117 0.949 . S
C125 C124 1.428 . S
C125 C126 1.345 . S
C126 H118 0.950 . S
C126 C125 1.345 . S
C126 C127 1.424 1_545 S
C127 H119 0.951 . S
C127 C126 1.424 1_565 S
C127 C128 1.347 1_554 S
C128 H120 0.951 . S
C128 C123 1.429 . S
C128 C127 1.347 1_556 S
H129 C130 0.951 . S
C130 H129 0.951 . S
C130 C136 1.265 . S
H131 C136 0.950 . S
H132 C140 0.949 . S
H133 C141 0.955 1_565 S
H134 C142 0.951 . S
H135 C143 0.951 . S
C136 C130 1.265 . S
C136 H131 0.950 . S
C136 C137 1.478 . S
C137 C124 1.394 . S
C137 C136 1.478 . S
C137 C138 1.397 . S
C138 C137 1.397 . S
C138 C139 1.438 1_544 S
C138 C143 1.429 . S
C139 C122 1.394 . S
C139 C138 1.438 1_566 S
C139 C140 1.428 . S
C140 H132 0.949 . S
C140 C139 1.428 . S
C140 C141 1.345 1_565 S
C141 H133 0.955 1_545 S
C141 C140 1.345 1_545 S
C141 C142 1.424 . S
C142 H134 0.951 . S
C142 C141 1.424 . S
C142 C143 1.347 1_556 S
C143 H135 0.951 . S
C143 C138 1.429 . S
C143 C142 1.347 1_554 S
H144 C145 0.951 . S
C145 H144 0.951 . S
C145 C151 1.265 . S
H146 C151 0.950 . S
H147 C155 0.949 . S
H148 C156 0.950 . S
H149 C157 0.951 . S
H150 C158 0.951 . S
C151 C145 1.265 . S
C151 H146 0.950 . S
C151 C152 1.478 . S
C152 C151 1.478 . S
C152 C153 1.397 . S
C152 C169 1.394 . S
C153 C152 1.397 . S
C153 C154 1.438 . S
C153 C158 1.429 . S
C154 C153 1.438 . S
C154 C155 1.428 . S
C154 C167 1.394 . S
C155 H147 0.949 . S
C155 C154 1.428 . S
C155 C156 1.345 . S
C156 H148 0.950 . S
C156 C155 1.345 . S
C156 C157 1.424 . S
C157 H149 0.951 . S
C157 C156 1.424 . S
C157 C158 1.347 . S
C158 H150 0.951 . S
C158 C153 1.429 . S
C158 C157 1.347 . S
H159 C160 0.951 . S
C160 H159 0.951 . S
C160 C166 1.265 . S
H161 C166 0.950 . S
H162 C170 0.949 . S
H163 C171 0.950 . S
H164 C172 0.951 . S
H165 C173 0.951 . S
C166 C160 1.265 . S
C166 H161 0.950 . S
C166 C167 1.478 . S
C167 C154 1.394 . S
C167 C166 1.478 . S
C167 C168 1.397 . S
C168 C167 1.397 . S
C168 C169 1.438 . S
C168 C173 1.429 . S
C169 C152 1.394 . S
C169 C168 1.438 . S
C169 C170 1.428 . S
C170 H162 0.949 . S
C170 C169 1.428 . S
C170 C171 1.345 . S
C171 H163 0.950 . S
C171 C170 1.345 . S
C171 C172 1.424 . S
C172 H164 0.951 . S
C172 C171 1.424 . S
C172 C173 1.347 . S
C173 H165 0.951 . S
C173 C168 1.429 . S
C173 C172 1.347 . S
H174 C175 0.951 . S
C175 H174 0.951 . S
C175 C181 1.265 . S
H176 C181 0.950 . S
H177 C185 0.949 . S
H178 C186 0.950 . S
H179 C187 0.951 . S
H180 C188 0.951 . S
C181 C175 1.265 . S
C181 H176 0.950 . S
C181 C182 1.478 . S
C182 C181 1.478 . S
C182 C183 1.397 . S
C182 C199 1.394 . S
C183 C182 1.397 . S
C183 C184 1.438 1_655 S
C183 C188 1.429 . S
C184 C183 1.438 1_455 S
C184 C185 1.428 . S
C184 C197 1.394 . S
C185 H177 0.949 . S
C185 C184 1.428 . S
C185 C186 1.345 . S
C186 H178 0.950 . S
C186 C185 1.345 . S
C186 C187 1.424 1_455 S
C187 H179 0.951 . S
C187 C186 1.424 1_655 S
C187 C188 1.347 . S
C188 H180 0.951 . S
C188 C183 1.429 . S
C188 C187 1.347 . S
H189 C190 0.951 . S
C190 H189 0.951 . S
C190 C196 1.265 . S
H191 C196 0.950 . S
H192 C200 0.949 . S
H193 C201 0.950 . S
H194 C202 0.951 . S
H195 C203 0.951 . S
C196 C190 1.265 . S
C196 H191 0.950 . S
C196 C197 1.478 . S
C197 C184 1.394 . S
C197 C196 1.478 . S
C197 C198 1.397 . S
C198 C197 1.397 . S
C198 C199 1.438 1_455 S
C198 C203 1.429 . S
C199 C182 1.394 . S
C199 C198 1.438 1_655 S
C199 C200 1.428 . S
C200 H192 0.949 . S
C200 C199 1.428 . S
C200 C201 1.345 . S
C201 H193 0.950 . S
C201 C200 1.345 . S
C201 C202 1.424 . S
C202 H194 0.951 . S
C202 C201 1.424 . S
C202 C203 1.347 1_655 S
C203 H195 0.951 . S
C203 C198 1.429 . S
C203 C202 1.347 1_455 S
H204 C205 0.951 . S
C205 H204 0.951 . S
C205 C211 1.265 . S
H206 C211 0.950 . S
H207 C215 0.949 . S
H208 C216 0.950 . S
H209 C217 0.951 . S
H210 C218 0.951 . S
C211 C205 1.265 . S
C211 H206 0.950 . S
C211 C212 1.478 . S
C212 C211 1.478 . S
C212 C213 1.397 1_545 S
C212 C229 1.394 . S
C213 C212 1.397 1_565 S
C213 C214 1.438 . S
C213 C218 1.429 . S
C214 C213 1.438 . S
C214 C215 1.428 . S
C214 C227 1.394 . S
C215 H207 0.949 . S
C215 C214 1.428 . S
C215 C216 1.345 . S
C216 H208 0.950 . S
C216 C215 1.345 . S
C216 C217 1.424 . S
C217 H209 0.951 . S
C217 C216 1.424 . S
C217 C218 1.347 . S
C218 H210 0.951 . S
C218 C213 1.429 . S
C218 C217 1.347 . S
H219 C220 0.951 . S
C220 H219 0.951 . S
C220 C226 1.265 . S
H221 C226 0.950 . S
H222 C230 0.949 . S
H223 C231 0.950 . S
H224 C232 0.951 . S
H225 C233 0.951 . S
C226 C220 1.265 . S
C226 H221 0.950 . S
C226 C227 1.478 . S
C227 C214 1.394 . S
C227 C226 1.478 . S
C227 C228 1.397 1_565 S
C228 C227 1.397 1_545 S
C228 C229 1.438 . S
C228 C233 1.429 . S
C229 C212 1.394 . S
C229 C228 1.438 . S
C229 C230 1.428 . S
C230 H222 0.949 . S
C230 C229 1.428 . S
C230 C231 1.345 . S
C231 H223 0.950 . S
C231 C230 1.345 . S
C231 C232 1.424 . S
C232 H224 0.951 . S
C232 C231 1.424 . S
C232 C233 1.347 . S
C233 H225 0.951 . S
C233 C228 1.429 . S
C233 C232 1.347 . S
H234 C235 0.951 . S
C235 H234 0.951 . S
C235 C241 1.265 . S
H236 C241 0.950 . S
H237 C245 0.949 . S
H238 C246 0.950 . S
H239 C247 0.951 . S
H240 C248 0.951 . S
C241 C235 1.265 . S
C241 H236 0.950 . S
C241 C242 1.478 . S
C242 C241 1.478 . S
C242 C243 1.397 . S
C242 C259 1.394 . S
C243 C242 1.397 . S
C243 C244 1.438 . S
C243 C248 1.429 . S
C244 C243 1.438 . S
C244 C245 1.428 . S
C244 C257 1.394 . S
C245 H237 0.949 . S
C245 C244 1.428 . S
C245 C246 1.345 . S
C246 H238 0.950 . S
C246 C245 1.345 . S
C246 C247 1.424 . S
C247 H239 0.951 . S
C247 C246 1.424 . S
C247 C248 1.347 . S
C248 H240 0.951 . S
C248 C243 1.429 . S
C248 C247 1.347 . S
H249 C250 0.951 . S
C250 H249 0.951 . S
C250 C256 1.265 . S
H251 C256 0.950 . S
H252 C260 0.949 . S
H253 C261 0.950 . S
H254 C262 0.951 . S
H255 C263 0.951 . S
C256 C250 1.265 . S
C256 H251 0.950 . S
C256 C257 1.478 . S
C257 C244 1.394 . S
C257 C256 1.478 . S
C257 C258 1.397 . S
C258 C257 1.397 . S
C258 C259 1.438 . S
C258 C263 1.429 . S
C259 C242 1.394 . S
C259 C258 1.438 . S
C259 C260 1.428 . S
C260 H252 0.949 . S
C260 C259 1.428 . S
C260 C261 1.345 . S
C261 H253 0.950 . S
C261 C260 1.345 . S
C261 C262 1.424 . S
C262 H254 0.951 . S
C262 C261 1.424 . S
C262 C263 1.347 . S
C263 H255 0.951 . S
C263 C258 1.429 . S
C263 C262 1.347 . S
H264 C265 0.951 . S
C265 H264 0.951 . S
C265 C271 1.265 . S
H266 C271 0.950 . S
H267 C275 0.949 . S
H268 C276 0.950 . S
H269 C277 0.951 . S
H270 C278 0.951 . S
C271 C265 1.265 . S
C271 H266 0.950 . S
C271 C272 1.478 . S
C272 C271 1.478 . S
C272 C273 1.397 . S
C272 C289 1.394 . S
C273 C272 1.397 . S
C273 C274 1.438 . S
C273 C278 1.429 . S
C274 C273 1.438 . S
C274 C275 1.428 . S
C274 C287 1.394 . S
C275 H267 0.949 . S
C275 C274 1.428 . S
C275 C276 1.345 . S
C276 H268 0.950 . S
C276 C275 1.345 . S
C276 C277 1.424 . S
C277 H269 0.951 . S
C277 C276 1.424 . S
C277 C278 1.347 . S
C278 H270 0.951 . S
C278 C273 1.429 . S
C278 C277 1.347 . S
H279 C280 0.951 . S
C280 H279 0.951 . S
C280 C286 1.265 . S
H281 C286 0.950 . S
H282 C290 0.949 . S
H283 C291 0.950 . S
H284 C292 0.951 . S
H285 C293 0.951 . S
C286 C280 1.265 . S
C286 H281 0.950 . S
C286 C287 1.478 . S
C287 C274 1.394 . S
C287 C286 1.478 . S
C287 C288 1.397 . S
C288 C287 1.397 . S
C288 C289 1.438 . S
C288 C293 1.429 . S
C289 C272 1.394 . S
C289 C288 1.438 . S
C289 C290 1.428 . S
C290 H282 0.949 . S
C290 C289 1.428 . S
C290 C291 1.345 . S
C291 H283 0.950 . S
C291 C290 1.345 . S
C291 C292 1.424 . S
C292 H284 0.951 . S
C292 C291 1.424 . S
C292 C293 1.347 . S
C293 H285 0.951 . S
C293 C288 1.429 . S
C293 C292 1.347 . S
H294 C295 0.951 . S
C295 H294 0.951 . S
C295 C301 1.265 . S
H296 C301 0.950 . S
H297 C305 0.949 . S
H298 C306 0.950 . S
H299 C307 0.951 . S
H300 C308 0.951 . S
C301 C295 1.265 . S
C301 H296 0.950 . S
C301 C302 1.478 . S
C302 C301 1.478 . S
C302 C303 1.397 . S
C302 C319 1.394 . S
C303 C302 1.397 . S
C303 C304 1.438 . S
C303 C308 1.429 . S
C304 C303 1.438 . S
C304 C305 1.428 . S
C304 C317 1.394 . S
C305 H297 0.949 . S
C305 C304 1.428 . S
C305 C306 1.345 . S
C306 H298 0.950 . S
C306 C305 1.345 . S
C306 C307 1.424 . S
C307 H299 0.951 . S
C307 C306 1.424 . S
C307 C308 1.347 . S
C308 H300 0.951 . S
C308 C303 1.429 . S
C308 C307 1.347 . S
H309 C310 0.951 . S
C310 H309 0.951 . S
C310 C316 1.265 . S
H311 C316 0.950 . S
H312 C320 0.949 . S
H313 C321 0.950 . S
H314 C322 0.951 . S
H315 C323 0.951 . S
C316 C310 1.265 . S
C316 H311 0.950 . S
C316 C317 1.478 . S
C317 C304 1.394 . S
C317 C316 1.478 . S
C317 C318 1.397 . S
C318 C317 1.397 . S
C318 C319 1.438 . S
C318 C323 1.429 . S
C319 C302 1.394 . S
C319 C318 1.438 . S
C319 C320 1.428 . S
C320 H312 0.949 . S
C320 C319 1.428 . S
C320 C321 1.345 . S
C321 H313 0.950 . S
C321 C320 1.345 . S
C321 C322 1.424 . S
C322 H314 0.951 . S
C322 C321 1.424 . S
C322 C323 1.347 . S
C323 H315 0.951 . S
C323 C318 1.429 . S
C323 C322 1.347 . S
H324 C325 0.951 . S
C325 H324 0.951 . S
C325 C331 1.265 . S
H326 C331 0.950 . S
H327 C335 0.949 . S
H328 C336 0.950 . S
H329 C337 0.951 . S
H330 C338 0.951 . S
C331 C325 1.265 . S
C331 H326 0.950 . S
C331 C332 1.478 . S
C332 C331 1.478 . S
C332 C333 1.397 . S
C332 C349 1.394 . S
C333 C332 1.397 . S
C333 C334 1.438 . S
C333 C338 1.429 . S
C334 C333 1.438 . S
C334 C335 1.428 . S
C334 C347 1.394 . S
C335 H327 0.949 . S
C335 C334 1.428 . S
C335 C336 1.345 . S
C336 H328 0.950 . S
C336 C335 1.345 . S
C336 C337 1.424 . S
C337 H329 0.951 . S
C337 C336 1.424 . S
C337 C338 1.347 . S
C338 H330 0.951 . S
C338 C333 1.429 . S
C338 C337 1.347 . S
H339 C340 0.951 . S
C340 H339 0.951 . S
C340 C346 1.265 . S
H341 C346 0.950 . S
H342 C350 0.949 . S
H343 C351 0.950 . S
H344 C352 0.951 . S
H345 C353 0.951 . S
C346 C340 1.265 . S
C346 H341 0.950 . S
C346 C347 1.478 . S
C347 C334 1.394 . S
C347 C346 1.478 . S
C347 C348 1.397 . S
C348 C347 1.397 . S
C348 C349 1.438 . S
C348 C353 1.429 . S
C349 C332 1.394 . S
C349 C348 1.438 . S
C349 C350 1.428 . S
C350 H342 0.949 . S
C350 C349 1.428 . S
C350 C351 1.345 . S
C351 H343 0.950 . S
C351 C350 1.345 . S
C351 C352 1.424 . S
C352 H344 0.951 . S
C352 C351 1.424 . S
C352 C353 1.347 . S
C353 H345 0.951 . S
C353 C348 1.429 . S
C353 C352 1.347 . S
H354 C355 0.951 . S
C355 H354 0.951 . S
C355 C361 1.265 . S
H356 C361 0.950 . S
H357 C365 0.949 . S
H358 C366 0.950 . S
H359 C367 0.951 . S
H360 C368 0.951 . S
C361 C355 1.265 . S
C361 H356 0.950 . S
C361 C362 1.478 . S
C362 C361 1.478 . S
C362 C363 1.397 . S
C362 C379 1.394 . S
C363 C362 1.397 . S
C363 C364 1.438 . S
C363 C368 1.429 . S
C364 C363 1.438 . S
C364 C365 1.428 . S
C364 C377 1.394 . S
C365 H357 0.949 . S
C365 C364 1.428 . S
C365 C366 1.345 . S
C366 H358 0.950 . S
C366 C365 1.345 . S
C366 C367 1.424 . S
C367 H359 0.951 . S
C367 C366 1.424 . S
C367 C368 1.347 . S
C368 H360 0.951 . S
C368 C363 1.429 . S
C368 C367 1.347 . S
H369 C370 0.951 . S
C370 H369 0.951 . S
C370 C376 1.265 . S
H371 C376 0.950 . S
H372 C380 0.949 . S
H373 C381 0.950 . S
H374 C382 0.951 . S
H375 C383 0.951 . S
C376 C370 1.265 . S
C376 H371 0.950 . S
C376 C377 1.478 . S
C377 C364 1.394 . S
C377 C376 1.478 . S
C377 C378 1.397 . S
C378 C377 1.397 . S
C378 C379 1.438 . S
C378 C383 1.429 . S
C379 C362 1.394 . S
C379 C378 1.438 . S
C379 C380 1.428 . S
C380 H372 0.949 . S
C380 C379 1.428 . S
C380 C381 1.345 . S
C381 H373 0.950 . S
C381 C380 1.345 . S
C381 C382 1.424 . S
C382 H374 0.951 . S
C382 C381 1.424 . S
C382 C383 1.347 . S
C383 H375 0.951 . S
C383 C378 1.429 . S
C383 C382 1.347 . S
H384 C385 0.951 . S
C385 H384 0.951 . S
C385 C391 1.265 . S
H386 C391 0.950 . S
H387 C395 0.949 . S
H388 C396 0.950 . S
H389 C397 0.951 . S
H390 C398 0.951 . S
C391 C385 1.265 . S
C391 H386 0.950 . S
C391 C392 1.478 . S
C392 C391 1.478 . S
C392 C393 1.397 . S
C392 C409 1.394 . S
C393 C392 1.397 . S
C393 C394 1.438 . S
C393 C398 1.429 . S
C394 C393 1.438 . S
C394 C395 1.428 . S
C394 C407 1.394 . S
C395 H387 0.949 . S
C395 C394 1.428 . S
C395 C396 1.345 . S
C396 H388 0.950 . S
C396 C395 1.345 . S
C396 C397 1.424 . S
C397 H389 0.951 . S
C397 C396 1.424 . S
C397 C398 1.347 . S
C398 H390 0.951 . S
C398 C393 1.429 . S
C398 C397 1.347 . S
H399 C400 0.951 . S
C400 H399 0.951 . S
C400 C406 1.265 1_554 S
H401 C406 0.950 . S
H402 C410 0.949 . S
H403 C411 0.950 . S
H404 C412 0.951 . S
H405 C413 0.951 . S
C406 C400 1.265 1_556 S
C406 H401 0.950 . S
C406 C407 1.478 . S
C407 C394 1.394 . S
C407 C406 1.478 . S
C407 C408 1.397 . S
C408 C407 1.397 . S
C408 C409 1.438 . S
C408 C413 1.429 . S
C409 C392 1.394 . S
C409 C408 1.438 . S
C409 C410 1.428 . S
C410 H402 0.949 . S
C410 C409 1.428 . S
C410 C411 1.345 . S
C411 H403 0.950 . S
C411 C410 1.345 . S
C411 C412 1.424 . S
C412 H404 0.951 . S
C412 C411 1.424 . S
C412 C413 1.347 . S
C413 H405 0.951 . S
C413 C408 1.429 . S
C413 C412 1.347 . S
H414 C415 0.951 . S
C415 H414 0.951 . S
C415 C421 1.265 1_556 S
H416 C421 0.950 . S
H417 C425 0.949 . S
H418 C426 0.950 . S
H419 C427 0.951 . S
H420 C428 0.951 . S
C421 C415 1.265 1_554 S
C421 H416 0.950 . S
C421 C422 1.478 . S
C422 C421 1.478 . S
C422 C423 1.397 . S
C422 C439 1.394 . S
C423 C422 1.397 . S
C423 C424 1.438 . S
C423 C428 1.429 . S
C424 C423 1.438 . S
C424 C425 1.428 . S
C424 C437 1.394 . S
C425 H417 0.949 . S
C425 C424 1.428 . S
C425 C426 1.345 . S
C426 H418 0.950 . S
C426 C425 1.345 . S
C426 C427 1.424 . S
C427 H419 0.951 . S
C427 C426 1.424 . S
C427 C428 1.347 . S
C428 H420 0.951 . S
C428 C423 1.429 . S
C428 C427 1.347 . S
H429 C430 0.951 . S
C430 H429 0.951 . S
C430 C436 1.265 . S
H431 C436 0.950 . S
H432 C440 0.949 . S
H433 C441 0.950 . S
H434 C442 0.951 . S
H435 C443 0.951 . S
C436 C430 1.265 . S
C436 H431 0.950 . S
C436 C437 1.478 . S
C437 C424 1.394 . S
C437 C436 1.478 . S
C437 C438 1.397 . S
C438 C437 1.397 . S
C438 C439 1.438 . S
C438 C443 1.429 . S
C439 C422 1.394 . S
C439 C438 1.438 . S
C439 C440 1.428 1_554 S
C440 H432 0.949 . S
C440 C439 1.428 1_556 S
C440 C441 1.345 . S
C441 H433 0.950 . S
C441 C440 1.345 . S
C441 C442 1.424 . S
C442 H434 0.951 . S
C442 C441 1.424 . S
C442 C443 1.347 1_556 S
C443 H435 0.951 . S
C443 C438 1.429 . S
C443 C442 1.347 1_554 S
C85 C9 1.285 1_556 S
C100 C53 1.285 . S
C115 C67 1.282 . S
C130 C23 1.257 . S
C145 C37 1.279 . S
C160 C81 1.280 . S
C175 C51 1.239 . S
C190 C11 1.285 . S
C205 C25 1.282 . S
C220 C65 1.301 . S
C235 C79 1.254 . S
C250 C39 1.291 . S
C265 C0 1.242 . S
C280 C33 1.228 . S
C295 C14 1.214 . S
C310 C47 1.262 . S
C325 C61 1.216 . S
C340 C28 1.266 . S
C355 C75 1.228 . S
C370 C42 1.242 . S
C385 C56 1.218 . S
C400 C5 1.266 . S
C415 C70 1.259 . S
C430 C19 1.232 . S
