# Generated by pormake.
# Topology uoq, (4)-cn, num edge types: 1
# Building blocks:
#     Node 0, Type 0, BuildingBlock: GALJAG_clean_sbu_0, # of connection points: 4
#     Node 1, Type 0, BuildingBlock: GALJAG_clean_sbu_0, # of connection points: 4
#     Node 2, Type 0, BuildingBlock: GALJAG_clean_sbu_0, # of connection points: 4
#     Node 3, Type 0, BuildingBlock: GALJAG_clean_sbu_0, # of connection points: 4
#     Node 4, Type 0, BuildingBlock: GALJAG_clean_sbu_0, # of connection points: 4
#     Node 5, Type 0, BuildingBlock: GALJAG_clean_sbu_0, # of connection points: 4
#     Node 6, Type 0, BuildingBlock: GALJAG_clean_sbu_0, # of connection points: 4
#     Node 7, Type 0, BuildingBlock: GALJAG_clean_sbu_0, # of connection points: 4
#     Node 8, Type 0, BuildingBlock: GALJAG_clean_sbu_0, # of connection points: 4
#     Node 9, Type 0, BuildingBlock: GALJAG_clean_sbu_0, # of connection points: 4
#     Node 10, Type 0, BuildingBlock: GALJAG_clean_sbu_0, # of connection points: 4
#     Node 11, Type 0, BuildingBlock: GALJAG_clean_sbu_0, # of connection points: 4
#     Edge 12, Type (0, 0), BuildingBlock: AJUNOK_clean_linker_0, # of connection points: 2
#     Edge 13, Type (0, 0), BuildingBlock: AJUNOK_clean_linker_0, # of connection points: 2
#     Edge 14, Type (0, 0), BuildingBlock: AJUNOK_clean_linker_0, # of connection points: 2
#     Edge 15, Type (0, 0), BuildingBlock: AJUNOK_clean_linker_0, # of connection points: 2
#     Edge 16, Type (0, 0), BuildingBlock: AJUNOK_clean_linker_0, # of connection points: 2
#     Edge 17, Type (0, 0), BuildingBlock: AJUNOK_clean_linker_0, # of connection points: 2
#     Edge 18, Type (0, 0), BuildingBlock: AJUNOK_clean_linker_0, # of connection points: 2
#     Edge 19, Type (0, 0), BuildingBlock: AJUNOK_clean_linker_0, # of connection points: 2
#     Edge 20, Type (0, 0), BuildingBlock: AJUNOK_clean_linker_0, # of connection points: 2
#     Edge 21, Type (0, 0), BuildingBlock: AJUNOK_clean_linker_0, # of connection points: 2
#     Edge 22, Type (0, 0), BuildingBlock: AJUNOK_clean_linker_0, # of connection points: 2
#     Edge 23, Type (0, 0), BuildingBlock: AJUNOK_clean_linker_0, # of connection points: 2
#     Edge 24, Type (0, 0), BuildingBlock: AJUNOK_clean_linker_0, # of connection points: 2
#     Edge 25, Type (0, 0), BuildingBlock: AJUNOK_clean_linker_0, # of connection points: 2
#     Edge 26, Type (0, 0), BuildingBlock: AJUNOK_clean_linker_0, # of connection points: 2
#     Edge 27, Type (0, 0), BuildingBlock: AJUNOK_clean_linker_0, # of connection points: 2
#     Edge 28, Type (0, 0), BuildingBlock: AJUNOK_clean_linker_0, # of connection points: 2
#     Edge 29, Type (0, 0), BuildingBlock: AJUNOK_clean_linker_0, # of connection points: 2
#     Edge 30, Type (0, 0), BuildingBlock: AJUNOK_clean_linker_0, # of connection points: 2
#     Edge 31, Type (0, 0), BuildingBlock: AJUNOK_clean_linker_0, # of connection points: 2
#     Edge 32, Type (0, 0), BuildingBlock: AJUNOK_clean_linker_0, # of connection points: 2
#     Edge 33, Type (0, 0), BuildingBlock: AJUNOK_clean_linker_0, # of connection points: 2
#     Edge 34, Type (0, 0), BuildingBlock: AJUNOK_clean_linker_0, # of connection points: 2
#     Edge 35, Type (0, 0), BuildingBlock: AJUNOK_clean_linker_0, # of connection points: 2
# Relax obj value: 0.135
# Max RMSD: 0.151
# Mean RMSD: 0.151
data_MOF--net-uoq--node1-GALJAG_clean_sbu_0--edge1-AJUNOK_clean_linker_0
_symmetry_space_group_name_H-M    P1
_symmetry_Int_Tables_number       1
_symmetry_cell_setting            triclinic
loop_
_symmetry_equiv_pos_as_xyz
'x, y, z'
_cell_length_a     46.109613
_cell_length_b     46.087336
_cell_length_c     14.965926
_cell_angle_alpha  89.95802
_cell_angle_beta   90.058041
_cell_angle_gamma 120.0544
loop_
_atom_site_label
_atom_site_type_symbol
_atom_site_fract_x
_atom_site_fract_y
_atom_site_fract_z
_atom_type_partial_charge
In0 In 0.31578 0.44875 0.2519 0.0
O1 O 0.27053 0.41929 0.34085 0.0
O2 O 0.29478 0.47263 0.34195 0.0
C3 C 0.33576 0.40376 0.28614 0.0
C4 C 0.27693 0.4457 0.11097 0.0
C5 C 0.37509 0.5051 0.28074 0.0
O6 O 0.32245 0.41346 0.34317 0.0
O7 O 0.33799 0.41583 0.2087 0.0
O8 O 0.36709 0.49116 0.20477 0.0
O9 O 0.35322 0.49061 0.3404 0.0
C10 C 0.27138 0.44521 0.3714 0.0
O11 O 0.30087 0.47278 0.14033 0.0
O12 O 0.27468 0.41985 0.14675 0.0
In13 In 0.86536 0.31437 0.59418 0.0
O14 O 0.85142 0.26874 0.67992 0.0
O15 O 0.81895 0.28926 0.67865 0.0
C16 C 0.9307 0.33513 0.62459 0.0
C17 C 0.8289 0.27785 0.45101 0.0
C18 C 0.86849 0.37296 0.63464 0.0
O19 O 0.90799 0.32104 0.68219 0.0
O20 O 0.92033 0.33746 0.54791 0.0
O21 O 0.87375 0.36631 0.55628 0.0
O22 O 0.86111 0.34991 0.69077 0.0
C23 C 0.82459 0.26678 0.70701 0.0
O24 O 0.82737 0.30249 0.48195 0.0
O25 O 0.8517 0.27395 0.48572 0.0
In26 In 0.55282 0.86835 0.90409 0.0
O27 O 0.57966 0.85783 0.01573 0.0
O28 O 0.52915 0.82127 0.98724 0.0
C29 C 0.59621 0.93496 0.91802 0.0
C30 C 0.55695 0.8334 0.7621 0.0
C31 C 0.4964 0.86917 0.94582 0.0
O32 O 0.60249 0.91324 0.94856 0.0
O33 O 0.56925 0.92322 0.87422 0.0
O34 O 0.50579 0.87009 0.86586 0.0
O35 O 0.51569 0.86817 0.00418 0.0
C36 C 0.55495 0.82943 0.0334 0.0
O37 O 0.52985 0.83063 0.78909 0.0
O38 O 0.58246 0.85644 0.80036 0.0
In39 In 0.68828 0.5535 0.2546 0.0
O40 O 0.73293 0.58042 0.34724 0.0
O41 O 0.70579 0.52701 0.3469 0.0
C42 C 0.6692 0.59941 0.28244 0.0
C43 C 0.72811 0.55701 0.11574 0.0
C44 C 0.62846 0.49866 0.28976 0.0
O45 O 0.68578 0.59303 0.33783 0.0
O46 O 0.66369 0.58394 0.20888 0.0
O47 O 0.63732 0.50912 0.21054 0.0
O48 O 0.64969 0.51577 0.34868 0.0
C49 C 0.72968 0.55354 0.37877 0.0
O50 O 0.70437 0.52976 0.14496 0.0
O51 O 0.72968 0.58269 0.15057 0.0
In52 In 0.1369 0.68974 0.59785 0.0
O53 O 0.16899 0.7024 0.4726 0.0
O54 O 0.15249 0.73621 0.50862 0.0
C55 C 0.13727 0.63193 0.62982 0.0
C56 C 0.17848 0.73018 0.72394 0.0
C57 C 0.07141 0.67199 0.60847 0.0
O58 O 0.13399 0.64076 0.55239 0.0
O59 O 0.14039 0.65218 0.69041 0.0
O60 O 0.09353 0.6929 0.66015 0.0
O61 O 0.08263 0.66178 0.54651 0.0
C62 C 0.1705 0.73005 0.45717 0.0
O63 O 0.1474 0.71227 0.73711 0.0
O64 O 0.18854 0.72735 0.64805 0.0
In65 In 0.4518 0.13503 0.91178 0.0
O66 O 0.42452 0.15534 0.99406 0.0
O67 O 0.47554 0.17197 0.02398 0.0
C68 C 0.40824 0.07141 0.96303 0.0
C69 C 0.44689 0.1678 0.7655 0.0
C70 C 0.51028 0.13547 0.92662 0.0
O71 O 0.42286 0.0956 0.01644 0.0
O72 O 0.4147 0.07931 0.88132 0.0
O73 O 0.50733 0.1607 0.94296 0.0
O74 O 0.48412 0.11035 0.89638 0.0
C75 C 0.44977 0.1737 0.04155 0.0
O76 O 0.47237 0.16533 0.78209 0.0
O77 O 0.42258 0.15058 0.8168 0.0
In78 In 0.55251 0.68934 0.40032 0.0
O79 O 0.58172 0.73579 0.31514 0.0
O80 O 0.52839 0.70991 0.30918 0.0
C81 C 0.59791 0.66954 0.37356 0.0
C82 C 0.55554 0.72802 0.54111 0.0
C83 C 0.49734 0.62977 0.36516 0.0
O84 O 0.58941 0.6832 0.3142 0.0
O85 O 0.58444 0.66695 0.44906 0.0
O86 O 0.50828 0.63838 0.44411 0.0
O87 O 0.51393 0.6513 0.30631 0.0
C88 C 0.55573 0.73442 0.28328 0.0
O89 O 0.52832 0.70464 0.51041 0.0
O90 O 0.58129 0.72958 0.50691 0.0
In91 In 0.86669 0.55286 0.75081 0.0
O92 O 0.84888 0.57955 0.65799 0.0
O93 O 0.81901 0.52652 0.67146 0.0
C94 C 0.93088 0.59787 0.70846 0.0
C95 C 0.83312 0.55825 0.89344 0.0
C96 C 0.86978 0.49658 0.72316 0.0
O97 O 0.9072 0.5857 0.65299 0.0
O98 O 0.92216 0.58842 0.78836 0.0
O99 O 0.87676 0.51114 0.7984 0.0
O100 O 0.86125 0.51036 0.66418 0.0
C101 C 0.82256 0.55293 0.63613 0.0
O102 O 0.83158 0.53111 0.87127 0.0
O103 O 0.85441 0.58337 0.84977 0.0
In104 In 0.3162 0.8663 0.09516 0.0
O105 O 0.30281 0.83238 0.21693 0.0
O106 O 0.27281 0.85449 0.19265 0.0
C107 C 0.37339 0.8666 0.05042 0.0
C108 C 0.2717 0.82341 0.97881 0.0
C109 C 0.33539 0.9318 0.07512 0.0
O110 O 0.36831 0.87339 0.12861 0.0
O111 O 0.34969 0.85941 0.99702 0.0
O112 O 0.31584 0.90922 0.02212 0.0
O113 O 0.3437 0.92113 0.14281 0.0
C114 C 0.27685 0.8335 0.23735 0.0
O115 O 0.28431 0.85469 0.97062 0.0
O116 O 0.28201 0.81389 0.04425 0.0
In117 In 0.4519 0.3136 0.40707 0.0
O118 O 0.47663 0.29887 0.51646 0.0
O119 O 0.42365 0.27174 0.51126 0.0
C120 C 0.50672 0.37396 0.37678 0.0
C121 C 0.45067 0.26979 0.28954 0.0
C122 C 0.40578 0.3324 0.37939 0.0
O123 O 0.49402 0.36508 0.45394 0.0
O124 O 0.49182 0.35238 0.31664 0.0
O125 O 0.41542 0.31996 0.31952 0.0
O126 O 0.41834 0.33406 0.45584 0.0
C127 C 0.44991 0.27424 0.54507 0.0
O128 O 0.42416 0.2691 0.31431 0.0
O129 O 0.47744 0.29326 0.32164 0.0
In130 In 0.13821 0.45127 0.74613 0.0
O131 O 0.17664 0.47443 0.85958 0.0
O132 O 0.15041 0.42161 0.84829 0.0
C133 C 0.13789 0.50873 0.71306 0.0
C134 C 0.17802 0.44627 0.62593 0.0
C135 C 0.07244 0.40768 0.71657 0.0
O136 O 0.13117 0.49537 0.78992 0.0
O137 O 0.14479 0.49319 0.6556 0.0
O138 O 0.09454 0.41723 0.65686 0.0
O139 O 0.08354 0.41941 0.79352 0.0
C140 C 0.17364 0.4471 0.88635 0.0
O141 O 0.15274 0.4207 0.65735 0.0
O142 O 0.18272 0.47397 0.65489 0.0
In143 In 0.68766 0.13647 0.08471 0.0
O144 O 0.70254 0.17903 0.18567 0.0
O145 O 0.72336 0.14798 0.20539 0.0
C146 C 0.6308 0.13754 0.0499 0.0
C147 C 0.72988 0.16846 0.95056 0.0
C148 C 0.66582 0.07079 0.05541 0.0
O149 O 0.63129 0.11598 0.10125 0.0
O150 O 0.65911 0.15946 0.02092 0.0
O151 O 0.68998 0.0939 0.01333 0.0
O152 O 0.65395 0.08066 0.1166 0.0
C153 C 0.72317 0.17417 0.22863 0.0
O154 O 0.70007 0.16253 0.95147 0.0
O155 O 0.73812 0.15707 0.01643 0.0
C156 C 0.36346 0.37073 0.24496 0.0
C157 C 0.3502 0.38241 0.31103 0.0
C158 C 0.3801 0.35329 0.26788 0.0
C159 C 0.38452 0.34721 0.35784 0.0
H160 H 0.36166 0.3757 0.17503 0.0
H161 H 0.39062 0.34558 0.21451 0.0
S162 S 0.35249 0.37045 0.55622 0.0
N163 N 0.34084 0.3848 0.47049 0.0
N164 N 0.3726 0.35257 0.513 0.0
C165 C 0.37042 0.35774 0.42444 0.0
C166 C 0.35313 0.37518 0.40116 0.0
C167 C 0.99154 0.36573 0.58262 0.0
C168 C 0.96672 0.35057 0.64862 0.0
C169 C 0.02566 0.3832 0.6053 0.0
C170 C 0.03633 0.38659 0.69495 0.0
H171 H 0.98459 0.36469 0.51304 0.0
H172 H 0.04379 0.39501 0.55209 0.0
S173 S 0.98156 0.34986 0.89281 0.0
N174 N 0.95538 0.33859 0.80755 0.0
N175 N 0.01943 0.37191 0.84956 0.0
C176 C 0.01187 0.37082 0.76138 0.0
C177 C 0.97712 0.35268 0.73834 0.0
C178 C 0.59729 0.98596 0.97649 0.0
C179 C 0.61504 0.97023 0.9476 0.0
C180 C 0.61393 0.01797 0.01513 0.0
C181 C 0.649 0.03575 0.0239 0.0
H182 H 0.5702 0.97304 0.97152 0.0
H183 H 0.5993 0.02922 0.03624 0.0
S184 S 0.70705 0.00602 0.95685 0.0
N185 N 0.66948 0.97458 0.93135 0.0
N186 N 0.70102 0.03571 -0.00089 0.0
C187 C 0.66711 0.0206 0.99383 0.0
C188 C 0.65005 0.98754 0.95708 0.0
C189 C 0.64021 0.63111 0.24014 0.0
C190 C 0.65434 0.62041 0.30647 0.0
C191 C 0.62322 0.64821 0.26259 0.0
C192 C 0.61915 0.65474 0.35235 0.0
H193 H 0.64176 0.62573 0.17042 0.0
H194 H 0.61215 0.65531 0.20912 0.0
S195 S 0.6527 0.63337 0.55124 0.0
N196 N 0.66445 0.619 0.4659 0.0
N197 N 0.63188 0.65046 0.5076 0.0
C198 C 0.63385 0.64495 0.4192 0.0
C199 C 0.65162 0.62799 0.39636 0.0
C200 C 0.99108 0.63931 0.74189 0.0
C201 C 0.96619 0.61928 0.67973 0.0
C202 C 0.02491 0.65788 0.71666 0.0
C203 C 0.0352 0.65655 0.62878 0.0
H204 H 0.98447 0.64029 0.81081 0.0
H205 H 0.04328 0.67224 0.76756 0.0
S206 S 0.97971 0.60894 0.43972 0.0
N207 N 0.95403 0.60043 0.52509 0.0
N208 N 0.01762 0.63461 0.47885 0.0
C209 C 0.01048 0.63732 0.56549 0.0
C210 C 0.97599 0.61888 0.59068 0.0
C211 C 0.34921 0.9771 0.96283 0.0
C212 C 0.35094 0.96785 0.05169 0.0
C213 C 0.36724 0.01066 0.93493 0.0
C214 C 0.38731 0.03638 0.99508 0.0
H215 H 0.33479 0.95814 0.91329 0.0
H216 H 0.36585 0.01639 0.86538 0.0
S217 S 0.39856 0.02577 0.23668 0.0
N218 N 0.37319 0.98733 0.2005 0.0
N219 N 0.40656 0.05042 0.14907 0.0
C220 C 0.38818 0.02762 0.08503 0.0
C221 C 0.37015 0.99338 0.11309 0.0
C222 C 0.22732 0.47557 0.97345 0.0
C223 C 0.19859 0.44565 0.94695 0.0
C224 C 0.25287 0.47521 0.02374 0.0
C225 C 0.25089 0.44492 0.05012 0.0
H226 H 0.23038 0.49962 0.95435 0.0
H227 H 0.27422 0.49901 0.04291 0.0
S228 S 0.18091 0.35944 -0.00149 0.0
N229 N 0.16975 0.38472 0.95098 0.0
N230 N 0.21756 0.38406 0.04599 0.0
C231 C 0.2223 0.41476 0.02419 0.0
C232 C 0.19624 0.41512 0.9727 0.0
C233 C 0.80239 0.22263 0.36938 0.0
C234 C 0.80261 0.25253 0.39059 0.0
C235 C 0.77609 0.19694 0.31983 0.0
C236 C 0.74879 0.19999 0.28943 0.0
H237 H 0.82256 0.21882 0.39197 0.0
H238 H 0.77744 0.1747 0.30423 0.0
S239 S 0.73686 0.27297 0.32788 0.0
N240 N 0.77275 0.28341 0.37757 0.0
N241 N 0.72358 0.23538 0.28515 0.0
C242 C 0.74862 0.22969 0.31055 0.0
C243 C 0.77541 0.25585 0.36072 0.0
C244 C 0.52765 0.78076 0.67114 0.0
C245 C 0.55789 0.80807 0.70203 0.0
C246 C 0.52715 0.75458 0.62194 0.0
C247 C 0.55689 0.75449 0.60112 0.0
H248 H 0.50396 0.77929 0.68588 0.0
H249 H 0.50317 0.73442 0.59912 0.0
S250 S 0.64288 0.81993 0.66657 0.0
N251 N 0.61849 0.83322 0.70863 0.0
N252 N 0.61759 0.78422 0.61566 0.0
C253 C 0.58737 0.78164 0.63152 0.0
C254 C 0.58787 0.80834 0.68186 0.0
C255 C 0.755 0.52863 0.03635 0.0
C256 C 0.75467 0.55835 0.05612 0.0
C257 C 0.78108 0.52909 0.9868 0.0
C258 C 0.80802 0.55927 0.95427 0.0
H259 H 0.73508 0.50469 0.06017 0.0
H260 H 0.77977 0.50541 0.97279 0.0
S261 S 0.81928 0.6442 0.98715 0.0
N262 N 0.78389 0.61897 0.0394 0.0
N263 N 0.83265 0.61981 0.94555 0.0
C264 C 0.80808 0.58923 0.97357 0.0
C265 C 0.78152 0.58877 0.02446 0.0
C266 C 0.20045 0.7881 0.38975 0.0
C267 C 0.19581 0.75546 0.3951 0.0
C268 C 0.22681 0.81345 0.33934 0.0
C269 C 0.24998 0.80735 0.29414 0.0
H270 H 0.18392 0.79428 0.42582 0.0
H271 H 0.22933 0.8381 0.33675 0.0
S272 S 0.24731 0.72559 0.27958 0.0
N273 N 0.21548 0.7181 0.34485 0.0
N274 N 0.26504 0.76561 0.25265 0.0
C275 C 0.24517 0.77469 0.29737 0.0
C276 C 0.21811 0.74882 0.34708 0.0
C277 C 0.41896 0.19698 0.694 0.0
C278 C 0.44743 0.19334 0.70304 0.0
C279 C 0.42 0.22339 0.64406 0.0
C280 C 0.44969 0.24761 0.60227 0.0
H281 H 0.39572 0.17955 0.72684 0.0
H282 H 0.3974 0.22497 0.63874 0.0
S283 S 0.5308 0.24862 0.60098 0.0
N284 N 0.50585 0.21565 0.66228 0.0
N285 N 0.50793 0.26526 0.56997 0.0
C286 C 0.47821 0.24401 0.60974 0.0
C287 C 0.47703 0.2169 0.65951 0.0
C288 C 0.22542 0.47434 0.52058 0.0
C289 C 0.20076 0.44453 0.56043 0.0
C290 C 0.24803 0.47412 0.45947 0.0
C291 C 0.24687 0.44406 0.43592 0.0
H292 H 0.22736 0.49818 0.53656 0.0
H293 H 0.26656 0.49778 0.43052 0.0
S294 S 0.18728 0.35912 0.52219 0.0
N295 N 0.17644 0.38408 0.57288 0.0
N296 N 0.21923 0.38363 0.45721 0.0
C297 C 0.22229 0.41396 0.47497 0.0
C298 C 0.19913 0.41419 0.53746 0.0
C299 C 0.76738 0.23224 0.76674 0.0
C300 C 0.80088 0.23985 0.76547 0.0
C301 C 0.74424 0.20782 0.82404 0.0
C302 C 0.75392 0.19046 0.88301 0.0
H303 H 0.75895 0.24547 0.72364 0.0
H304 H 0.71884 0.20337 0.82398 0.0
S305 S 0.83853 0.20009 0.90234 0.0
N306 N 0.84253 0.22728 0.82452 0.0
N307 N 0.79894 0.18142 0.93411 0.0
C308 C 0.78717 0.19709 0.88064 0.0
C309 C 0.81072 0.22181 0.82129 0.0
C310 C 0.52681 0.77608 0.11768 0.0
C311 C 0.55612 0.80664 0.10004 0.0
C312 C 0.52708 0.75298 0.17724 0.0
C313 C 0.55669 0.7595 0.221 0.0
H314 H 0.50342 0.76974 0.08485 0.0
H315 H 0.50388 0.72969 0.18833 0.0
S316 S 0.63999 0.8363 0.20023 0.0
N317 N 0.61546 0.8427 0.13248 0.0
N318 N 0.61596 0.79896 0.24487 0.0
C319 C 0.58618 0.79009 0.20486 0.0
C320 C 0.58587 0.81378 0.14431 0.0
C321 C 0.78258 0.58243 0.4659 0.0
C322 C 0.7523 0.55302 0.44688 0.0
C323 C 0.80511 0.58224 0.528 0.0
C324 C 0.798 0.55265 0.57313 0.0
H325 H 0.78922 0.60566 0.43165 0.0
H326 H 0.82839 0.60536 0.53984 0.0
S327 S 0.72083 0.46954 0.55174 0.0
N328 N 0.71547 0.49394 0.48103 0.0
N329 N 0.75783 0.49356 0.598 0.0
C330 C 0.76742 0.52322 0.55621 0.0
C331 C 0.74454 0.52342 0.49291 0.0
C332 C 0.2289 0.78398 0.76221 0.0
C333 C 0.2014 0.75357 0.79063 0.0
C334 C 0.25124 0.80698 0.8241 0.0
C335 C 0.24721 0.79967 0.91571 0.0
H336 H 0.23295 0.79019 0.69177 0.0
H337 H 0.27217 0.83025 0.80007 0.0
S338 S 0.17944 0.72351 0.0239 0.0
N339 N 0.17095 0.71752 0.91595 0.0
N340 N 0.21397 0.76038 0.03258 0.0
C341 C 0.21998 0.76932 0.94506 0.0
C342 C 0.19671 0.74631 0.88225 0.0
C343 C 0.42164 0.20075 0.11831 0.0
C344 C 0.44982 0.19682 0.10901 0.0
C345 C 0.42195 0.22426 0.17774 0.0
C346 C 0.45051 0.24468 0.22922 0.0
H347 H 0.39937 0.18598 0.07839 0.0
H348 H 0.3999 0.22684 0.18216 0.0
S349 S 0.52973 0.24221 0.23513 0.0
N350 N 0.5063 0.21384 0.16012 0.0
N351 N 0.5069 0.25815 0.2716 0.0
C352 C 0.47853 0.2404 0.22235 0.0
C353 C 0.47817 0.21639 0.16227 0.0
C354 C 0.41544 0.54746 0.38892 0.0
C355 C 0.40714 0.53622 0.29997 0.0
C356 C 0.44493 0.57736 0.40974 0.0
C357 C 0.46715 0.59739 0.34233 0.0
H358 H 0.39892 0.53315 0.44324 0.0
H359 H 0.45001 0.58509 0.47902 0.0
S360 S 0.45779 0.57866 0.09901 0.0
N361 N 0.42415 0.54703 0.14427 0.0
N362 N 0.4794 0.6033 0.18289 0.0
C363 C 0.45943 0.58621 0.25315 0.0
C364 C 0.42951 0.55562 0.23208 0.0
C365 C 0.8687 0.45509 0.61409 0.0
C366 C 0.87101 0.46569 0.70347 0.0
C367 C 0.86856 0.42546 0.59232 0.0
C368 C 0.87027 0.40496 0.65912 0.0
H369 H 0.86684 0.46976 0.56011 0.0
H370 H 0.86645 0.41827 0.52267 0.0
S371 S 0.87798 0.42191 0.90321 0.0
N372 N 0.87622 0.45383 0.85902 0.0
N373 N 0.87551 0.39785 0.81845 0.0
C374 C 0.87305 0.41543 0.74876 0.0
C375 C 0.87358 0.44586 0.77086 0.0
C376 C 0.45918 0.87376 0.05984 0.0
C377 C 0.46509 0.86887 0.97027 0.0
C378 C 0.42958 0.87314 0.08531 0.0
C379 C 0.4046 0.8673 0.02227 0.0
H380 H 0.47762 0.87823 0.11092 0.0
H381 H 0.42623 0.87711 0.15497 0.0
S382 S 0.40761 0.85255 0.77911 0.0
N383 N 0.44339 0.85786 0.81849 0.0
N384 N 0.38775 0.85639 0.86594 0.0
C385 C 0.41018 0.8623 0.93242 0.0
C386 C 0.44041 0.86317 0.90647 0.0
C387 C 0.57672 0.44541 0.24599 0.0
C388 C 0.59649 0.46806 0.31299 0.0
C389 C 0.54759 0.41527 0.26749 0.0
C390 C 0.53693 0.40669 0.35676 0.0
H391 H 0.58413 0.45062 0.17652 0.0
H392 H 0.5335 0.39843 0.21346 0.0
S393 S 0.57883 0.4583 0.55689 0.0
N394 N 0.60263 0.48046 0.47241 0.0
N395 N 0.54787 0.42397 0.51229 0.0
C396 C 0.556 0.42951 0.42425 0.0
C397 C 0.58577 0.46012 0.40245 0.0
C398 C 0.13228 0.58795 0.73705 0.0
C399 C 0.13737 0.60045 0.64906 0.0
C400 C 0.13227 0.5582 0.75736 0.0
C401 C 0.13773 0.54003 0.69057 0.0
H402 H 0.12802 0.60112 0.79076 0.0
H403 H 0.12811 0.5495 0.82593 0.0
S404 S 0.1534 0.56275 0.44988 0.0
N405 N 0.14851 0.59269 0.49496 0.0
N406 N 0.14891 0.53714 0.53261 0.0
C407 C 0.14311 0.55246 0.60232 0.0
C408 C 0.1428 0.58255 0.58166 0.0
C409 C 0.60053 0.16554 0.98975 0.0
C410 C 0.59956 0.13614 0.01971 0.0
C411 C 0.57165 0.1649 0.95764 0.0
C412 C 0.54091 0.13469 0.95189 0.0
H413 H 0.62372 0.18936 0.99221 0.0
H414 H 0.5734 0.1883 0.93742 0.0
S415 S 0.52529 0.05051 0.01867 0.0
N416 N 0.56544 0.07585 0.04026 0.0
N417 N 0.51128 0.07451 0.97778 0.0
C418 C 0.53972 0.10497 0.9798 0.0
C419 C 0.569 0.10574 0.01442 0.0
loop_
_geom_bond_atom_site_label_1
_geom_bond_atom_site_label_2
_geom_bond_distance
_geom_bond_site_symmetry_2
_ccdc_geom_bond_type
In0 O1 2.294 . S
In0 O2 2.326 . S
In0 O6 2.266 . S
In0 O7 2.326 . S
In0 O8 2.266 . S
In0 O9 2.326 . S
In0 O11 2.294 . S
In0 O12 2.326 . S
O1 In0 2.294 . S
O1 C10 1.240 . S
O2 In0 2.326 . S
O2 C10 1.252 . S
C3 O6 1.252 . S
C3 O7 1.260 . S
C4 O11 1.240 . S
C4 O12 1.252 . S
C5 O8 1.252 . S
C5 O9 1.260 . S
O6 In0 2.266 . S
O6 C3 1.252 . S
O7 In0 2.326 . S
O7 C3 1.260 . S
O8 In0 2.266 . S
O8 C5 1.252 . S
O9 In0 2.326 . S
O9 C5 1.260 . S
C10 O1 1.240 . S
C10 O2 1.252 . S
O11 In0 2.294 . S
O11 C4 1.240 . S
O12 In0 2.326 . S
O12 C4 1.252 . S
In13 O14 2.294 . S
In13 O15 2.326 . S
In13 O19 2.266 . S
In13 O20 2.326 . S
In13 O21 2.266 . S
In13 O22 2.326 . S
In13 O24 2.294 . S
In13 O25 2.326 . S
O14 In13 2.294 . S
O14 C23 1.240 . S
O15 In13 2.326 . S
O15 C23 1.252 . S
C16 O19 1.252 . S
C16 O20 1.260 . S
C17 O24 1.240 . S
C17 O25 1.252 . S
C18 O21 1.252 . S
C18 O22 1.260 . S
O19 In13 2.266 . S
O19 C16 1.252 . S
O20 In13 2.326 . S
O20 C16 1.260 . S
O21 In13 2.266 . S
O21 C18 1.252 . S
O22 In13 2.326 . S
O22 C18 1.260 . S
C23 O14 1.240 . S
C23 O15 1.252 . S
O24 In13 2.294 . S
O24 C17 1.240 . S
O25 In13 2.326 . S
O25 C17 1.252 . S
In26 O27 2.294 1_556 S
In26 O28 2.326 . S
In26 O32 2.266 . S
In26 O33 2.326 . S
In26 O34 2.266 . S
In26 O35 2.326 1_556 S
In26 O37 2.294 . S
In26 O38 2.326 . S
O27 In26 2.294 1_554 S
O27 C36 1.240 . S
O28 In26 2.326 . S
O28 C36 1.252 1_556 S
C29 O32 1.252 . S
C29 O33 1.260 . S
C30 O37 1.240 . S
C30 O38 1.252 . S
C31 O34 1.252 . S
C31 O35 1.260 1_556 S
O32 In26 2.266 . S
O32 C29 1.252 . S
O33 In26 2.326 . S
O33 C29 1.260 . S
O34 In26 2.266 . S
O34 C31 1.252 . S
O35 In26 2.326 1_554 S
O35 C31 1.260 1_554 S
C36 O27 1.240 . S
C36 O28 1.252 1_554 S
O37 In26 2.294 . S
O37 C30 1.240 . S
O38 In26 2.326 . S
O38 C30 1.252 . S
In39 O40 2.294 . S
In39 O41 2.326 . S
In39 O45 2.266 . S
In39 O46 2.326 . S
In39 O47 2.266 . S
In39 O48 2.326 . S
In39 O50 2.294 . S
In39 O51 2.326 . S
O40 In39 2.294 . S
O40 C49 1.240 . S
O41 In39 2.326 . S
O41 C49 1.252 . S
C42 O45 1.252 . S
C42 O46 1.260 . S
C43 O50 1.240 . S
C43 O51 1.252 . S
C44 O47 1.252 . S
C44 O48 1.260 . S
O45 In39 2.266 . S
O45 C42 1.252 . S
O46 In39 2.326 . S
O46 C42 1.260 . S
O47 In39 2.266 . S
O47 C44 1.252 . S
O48 In39 2.326 . S
O48 C44 1.260 . S
C49 O40 1.240 . S
C49 O41 1.252 . S
O50 In39 2.294 . S
O50 C43 1.240 . S
O51 In39 2.326 . S
O51 C43 1.252 . S
In52 O53 2.294 . S
In52 O54 2.326 . S
In52 O58 2.266 . S
In52 O59 2.326 . S
In52 O60 2.266 . S
In52 O61 2.326 . S
In52 O63 2.294 . S
In52 O64 2.326 . S
O53 In52 2.294 . S
O53 C62 1.240 . S
O54 In52 2.326 . S
O54 C62 1.252 . S
C55 O58 1.252 . S
C55 O59 1.260 . S
C56 O63 1.240 . S
C56 O64 1.252 . S
C57 O60 1.252 . S
C57 O61 1.260 . S
O58 In52 2.266 . S
O58 C55 1.252 . S
O59 In52 2.326 . S
O59 C55 1.260 . S
O60 In52 2.266 . S
O60 C57 1.252 . S
O61 In52 2.326 . S
O61 C57 1.260 . S
C62 O53 1.240 . S
C62 O54 1.252 . S
O63 In52 2.294 . S
O63 C56 1.240 . S
O64 In52 2.326 . S
O64 C56 1.252 . S
In65 O66 2.294 1_556 S
In65 O67 2.326 . S
In65 O71 2.266 . S
In65 O72 2.326 . S
In65 O73 2.266 . S
In65 O74 2.326 1_556 S
In65 O76 2.294 . S
In65 O77 2.326 . S
O66 In65 2.294 1_554 S
O66 C75 1.240 . S
O67 In65 2.326 . S
O67 C75 1.252 1_556 S
C68 O71 1.252 . S
C68 O72 1.260 . S
C69 O76 1.240 . S
C69 O77 1.252 . S
C70 O73 1.252 . S
C70 O74 1.260 1_556 S
O71 In65 2.266 . S
O71 C68 1.252 . S
O72 In65 2.326 . S
O72 C68 1.260 . S
O73 In65 2.266 . S
O73 C70 1.252 . S
O74 In65 2.326 1_554 S
O74 C70 1.260 1_554 S
C75 O66 1.240 . S
C75 O67 1.252 1_554 S
O76 In65 2.294 . S
O76 C69 1.240 . S
O77 In65 2.326 . S
O77 C69 1.252 . S
In78 O79 2.294 . S
In78 O80 2.326 . S
In78 O84 2.266 . S
In78 O85 2.326 . S
In78 O86 2.266 . S
In78 O87 2.326 . S
In78 O89 2.294 . S
In78 O90 2.326 . S
O79 In78 2.294 . S
O79 C88 1.240 . S
O80 In78 2.326 . S
O80 C88 1.252 . S
C81 O84 1.252 . S
C81 O85 1.260 . S
C82 O89 1.240 . S
C82 O90 1.252 . S
C83 O86 1.252 . S
C83 O87 1.260 . S
O84 In78 2.266 . S
O84 C81 1.252 . S
O85 In78 2.326 . S
O85 C81 1.260 . S
O86 In78 2.266 . S
O86 C83 1.252 . S
O87 In78 2.326 . S
O87 C83 1.260 . S
C88 O79 1.240 . S
C88 O80 1.252 . S
O89 In78 2.294 . S
O89 C82 1.240 . S
O90 In78 2.326 . S
O90 C82 1.252 . S
In91 O92 2.294 . S
In91 O93 2.326 . S
In91 O97 2.266 . S
In91 O98 2.326 . S
In91 O99 2.266 . S
In91 O100 2.326 . S
In91 O102 2.294 . S
In91 O103 2.326 . S
O92 In91 2.294 . S
O92 C101 1.240 . S
O93 In91 2.326 . S
O93 C101 1.252 . S
C94 O97 1.252 . S
C94 O98 1.260 . S
C95 O102 1.240 . S
C95 O103 1.252 . S
C96 O99 1.252 . S
C96 O100 1.260 . S
O97 In91 2.266 . S
O97 C94 1.252 . S
O98 In91 2.326 . S
O98 C94 1.260 . S
O99 In91 2.266 . S
O99 C96 1.252 . S
O100 In91 2.326 . S
O100 C96 1.260 . S
C101 O92 1.240 . S
C101 O93 1.252 . S
O102 In91 2.294 . S
O102 C95 1.240 . S
O103 In91 2.326 . S
O103 C95 1.252 . S
In104 O105 2.294 . S
In104 O106 2.326 . S
In104 O110 2.266 . S
In104 O111 2.326 1_554 S
In104 O112 2.266 . S
In104 O113 2.326 . S
In104 O115 2.294 1_554 S
In104 O116 2.326 . S
O105 In104 2.294 . S
O105 C114 1.240 . S
O106 In104 2.326 . S
O106 C114 1.252 . S
C107 O110 1.252 . S
C107 O111 1.260 1_554 S
C108 O115 1.240 . S
C108 O116 1.252 1_556 S
C109 O112 1.252 . S
C109 O113 1.260 . S
O110 In104 2.266 . S
O110 C107 1.252 . S
O111 In104 2.326 1_556 S
O111 C107 1.260 1_556 S
O112 In104 2.266 . S
O112 C109 1.252 . S
O113 In104 2.326 . S
O113 C109 1.260 . S
C114 O105 1.240 . S
C114 O106 1.252 . S
O115 In104 2.294 1_556 S
O115 C108 1.240 . S
O116 In104 2.326 . S
O116 C108 1.252 1_554 S
In117 O118 2.294 . S
In117 O119 2.326 . S
In117 O123 2.266 . S
In117 O124 2.326 . S
In117 O125 2.266 . S
In117 O126 2.326 . S
In117 O128 2.294 . S
In117 O129 2.326 . S
O118 In117 2.294 . S
O118 C127 1.240 . S
O119 In117 2.326 . S
O119 C127 1.252 . S
C120 O123 1.252 . S
C120 O124 1.260 . S
C121 O128 1.240 . S
C121 O129 1.252 . S
C122 O125 1.252 . S
C122 O126 1.260 . S
O123 In117 2.266 . S
O123 C120 1.252 . S
O124 In117 2.326 . S
O124 C120 1.260 . S
O125 In117 2.266 . S
O125 C122 1.252 . S
O126 In117 2.326 . S
O126 C122 1.260 . S
C127 O118 1.240 . S
C127 O119 1.252 . S
O128 In117 2.294 . S
O128 C121 1.240 . S
O129 In117 2.326 . S
O129 C121 1.252 . S
In130 O131 2.294 . S
In130 O132 2.326 . S
In130 O136 2.266 . S
In130 O137 2.326 . S
In130 O138 2.266 . S
In130 O139 2.326 . S
In130 O141 2.294 . S
In130 O142 2.326 . S
O131 In130 2.294 . S
O131 C140 1.240 . S
O132 In130 2.326 . S
O132 C140 1.252 . S
C133 O136 1.252 . S
C133 O137 1.260 . S
C134 O141 1.240 . S
C134 O142 1.252 . S
C135 O138 1.252 . S
C135 O139 1.260 . S
O136 In130 2.266 . S
O136 C133 1.252 . S
O137 In130 2.326 . S
O137 C133 1.260 . S
O138 In130 2.266 . S
O138 C135 1.252 . S
O139 In130 2.326 . S
O139 C135 1.260 . S
C140 O131 1.240 . S
C140 O132 1.252 . S
O141 In130 2.294 . S
O141 C134 1.240 . S
O142 In130 2.326 . S
O142 C134 1.252 . S
In143 O144 2.294 . S
In143 O145 2.326 . S
In143 O149 2.266 . S
In143 O150 2.326 1_554 S
In143 O151 2.266 . S
In143 O152 2.326 . S
In143 O154 2.294 1_554 S
In143 O155 2.326 . S
O144 In143 2.294 . S
O144 C153 1.240 . S
O145 In143 2.326 . S
O145 C153 1.252 . S
C146 O149 1.252 . S
C146 O150 1.260 1_554 S
C147 O154 1.240 . S
C147 O155 1.252 1_556 S
C148 O151 1.252 . S
C148 O152 1.260 . S
O149 In143 2.266 . S
O149 C146 1.252 . S
O150 In143 2.326 1_556 S
O150 C146 1.260 1_556 S
O151 In143 2.266 . S
O151 C148 1.252 . S
O152 In143 2.326 . S
O152 C148 1.260 . S
C153 O144 1.240 . S
C153 O145 1.252 . S
O154 In143 2.294 1_556 S
O154 C147 1.240 . S
O155 In143 2.326 . S
O155 C147 1.252 1_554 S
C156 C157 1.369 . S
C156 C158 1.419 . S
C156 H160 0.930 . S
C157 C156 1.369 . S
C157 C166 1.429 . S
C158 C156 1.419 . S
C158 C159 1.363 . S
C158 H161 0.929 . S
C159 C158 1.363 . S
C159 C165 1.428 . S
H160 C156 0.930 . S
H161 C158 0.929 . S
S162 N163 1.613 . S
S162 N164 1.610 . S
N163 S162 1.613 . S
N163 C166 1.350 . S
N164 S162 1.610 . S
N164 C165 1.351 . S
C165 C159 1.428 . S
C165 N164 1.351 . S
C165 C166 1.434 . S
C166 C157 1.429 . S
C166 N163 1.350 . S
C166 C165 1.434 . S
C167 C168 1.369 . S
C167 C169 1.419 1_655 S
C167 H171 0.930 . S
C168 C167 1.369 . S
C168 C177 1.429 . S
C169 C167 1.419 1_455 S
C169 C170 1.363 . S
C169 H172 0.929 . S
C170 C169 1.363 . S
C170 C176 1.428 . S
H171 C167 0.930 . S
H172 C169 0.929 . S
S173 N174 1.613 . S
S173 N175 1.610 . S
N174 S173 1.613 . S
N174 C177 1.350 . S
N175 S173 1.610 . S
N175 C176 1.351 1_655 S
C176 C170 1.428 . S
C176 N175 1.351 1_455 S
C176 C177 1.434 1_455 S
C177 C168 1.429 . S
C177 N174 1.350 . S
C177 C176 1.434 1_655 S
C178 C179 1.369 . S
C178 C180 1.419 1_566 S
C178 H182 0.930 . S
C179 C178 1.369 . S
C179 C188 1.429 . S
C180 C178 1.419 1_544 S
C180 C181 1.363 . S
C180 H183 0.929 . S
C181 C180 1.363 . S
C181 C187 1.428 . S
H182 C178 0.930 . S
H183 C180 0.929 . S
S184 N185 1.610 1_545 S
S184 N186 1.621 1_556 S
N185 S184 1.610 1_565 S
N185 C188 1.350 . S
N186 S184 1.621 1_554 S
N186 C187 1.351 . S
C187 C181 1.428 . S
C187 N186 1.351 . S
C187 C188 1.434 1_544 S
C188 C179 1.429 . S
C188 N185 1.350 . S
C188 C187 1.434 1_566 S
C189 C190 1.369 . S
C189 C191 1.419 . S
C189 H193 0.930 . S
C190 C189 1.369 . S
C190 C199 1.429 . S
C191 C189 1.419 . S
C191 C192 1.363 . S
C191 H194 0.929 . S
C192 C191 1.363 . S
C192 C198 1.428 . S
H193 C189 0.930 . S
H194 C191 0.929 . S
S195 N196 1.613 . S
S195 N197 1.610 . S
N196 S195 1.613 . S
N196 C199 1.350 . S
N197 S195 1.610 . S
N197 C198 1.351 . S
C198 C192 1.428 . S
C198 N197 1.351 . S
C198 C199 1.434 . S
C199 C190 1.429 . S
C199 N196 1.350 . S
C199 C198 1.434 . S
C200 C201 1.369 . S
C200 C202 1.419 1_655 S
C200 H204 0.930 . S
C201 C200 1.369 . S
C201 C210 1.429 . S
C202 C200 1.419 1_455 S
C202 C203 1.363 . S
C202 H205 0.929 . S
C203 C202 1.363 . S
C203 C209 1.428 . S
H204 C200 0.930 . S
H205 C202 0.929 . S
S206 N207 1.613 . S
S206 N208 1.610 1_655 S
N207 S206 1.613 . S
N207 C210 1.350 . S
N208 S206 1.610 1_455 S
N208 C209 1.351 . S
C209 C203 1.428 . S
C209 N208 1.351 . S
C209 C210 1.434 1_455 S
C210 C201 1.429 . S
C210 N207 1.350 . S
C210 C209 1.434 1_655 S
C211 C212 1.369 1_556 S
C211 C213 1.419 1_565 S
C211 H215 0.930 . S
C212 C211 1.369 1_554 S
C212 C221 1.429 . S
C213 C211 1.419 1_545 S
C213 C214 1.363 . S
C213 H216 0.929 . S
C214 C213 1.363 . S
C214 C220 1.428 1_556 S
H215 C211 0.930 . S
H216 C213 0.929 . S
S217 N218 1.613 . S
S217 N219 1.610 . S
N218 S217 1.613 . S
N218 C221 1.350 1_545 S
N219 S217 1.610 . S
N219 C220 1.351 . S
C220 C214 1.428 1_554 S
C220 N219 1.351 . S
C220 C221 1.434 1_545 S
C221 C212 1.429 . S
C221 N218 1.350 1_565 S
C221 C220 1.434 1_565 S
C222 C223 1.369 . S
C222 C224 1.419 1_556 S
C222 H226 0.930 . S
C223 C222 1.369 . S
C223 C232 1.429 . S
C224 C222 1.419 1_554 S
C224 C225 1.363 . S
C224 H227 0.929 . S
C225 C224 1.363 . S
C225 C231 1.428 . S
H226 C222 0.930 . S
H227 C224 0.929 . S
S228 N229 1.613 1_554 S
S228 N230 1.610 . S
N229 S228 1.613 1_556 S
N229 C232 1.350 . S
N230 S228 1.610 . S
N230 C231 1.351 . S
C231 C225 1.428 . S
C231 N230 1.351 . S
C231 C232 1.434 1_554 S
C232 C223 1.429 . S
C232 N229 1.350 . S
C232 C231 1.434 1_556 S
C233 C234 1.369 . S
C233 C235 1.419 . S
C233 H237 0.930 . S
C234 C233 1.369 . S
C234 C243 1.429 . S
C235 C233 1.419 . S
C235 C236 1.363 . S
C235 H238 0.929 . S
C236 C235 1.363 . S
C236 C242 1.428 . S
H237 C233 0.930 . S
H238 C235 0.929 . S
S239 N240 1.613 . S
S239 N241 1.610 . S
N240 S239 1.613 . S
N240 C243 1.350 . S
N241 S239 1.610 . S
N241 C242 1.351 . S
C242 C236 1.428 . S
C242 N241 1.351 . S
C242 C243 1.434 . S
C243 C234 1.429 . S
C243 N240 1.350 . S
C243 C242 1.434 . S
C244 C245 1.369 . S
C244 C246 1.419 . S
C244 H248 0.930 . S
C245 C244 1.369 . S
C245 C254 1.429 . S
C246 C244 1.419 . S
C246 C247 1.363 . S
C246 H249 0.929 . S
C247 C246 1.363 . S
C247 C253 1.428 . S
H248 C244 0.930 . S
H249 C246 0.929 . S
S250 N251 1.613 . S
S250 N252 1.610 . S
N251 S250 1.613 . S
N251 C254 1.350 . S
N252 S250 1.610 . S
N252 C253 1.351 . S
C253 C247 1.428 . S
C253 N252 1.351 . S
C253 C254 1.434 . S
C254 C245 1.429 . S
C254 N251 1.350 . S
C254 C253 1.434 . S
C255 C256 1.369 . S
C255 C257 1.419 1_554 S
C255 H259 0.930 . S
C256 C255 1.369 . S
C256 C265 1.432 . S
C257 C255 1.419 1_556 S
C257 C258 1.363 . S
C257 H260 0.929 . S
C258 C257 1.363 . S
C258 C264 1.428 . S
H259 C255 0.930 . S
H260 C257 0.929 . S
S261 N262 1.613 . S
S261 N263 1.610 . S
N262 S261 1.613 . S
N262 C265 1.349 1_556 S
N263 S261 1.610 . S
N263 C264 1.351 . S
C264 C258 1.428 . S
C264 N263 1.351 . S
C264 C265 1.431 1_556 S
C265 C256 1.432 . S
C265 N262 1.349 1_554 S
C265 C264 1.431 1_554 S
C266 C267 1.369 . S
C266 C268 1.419 . S
C266 H270 0.930 . S
C267 C266 1.369 . S
C267 C276 1.429 . S
C268 C266 1.419 . S
C268 C269 1.363 . S
C268 H271 0.929 . S
C269 C268 1.363 . S
C269 C275 1.428 . S
H270 C266 0.930 . S
H271 C268 0.929 . S
S272 N273 1.613 . S
S272 N274 1.610 . S
N273 S272 1.613 . S
N273 C276 1.350 . S
N274 S272 1.610 . S
N274 C275 1.351 . S
C275 C269 1.428 . S
C275 N274 1.351 . S
C275 C276 1.434 . S
C276 C267 1.429 . S
C276 N273 1.350 . S
C276 C275 1.434 . S
C277 C278 1.369 . S
C277 C279 1.419 . S
C277 H281 0.930 . S
C278 C277 1.369 . S
C278 C287 1.429 . S
C279 C277 1.419 . S
C279 C280 1.363 . S
C279 H282 0.929 . S
C280 C279 1.363 . S
C280 C286 1.428 . S
H281 C277 0.930 . S
H282 C279 0.929 . S
S283 N284 1.613 . S
S283 N285 1.610 . S
N284 S283 1.613 . S
N284 C287 1.350 . S
N285 S283 1.610 . S
N285 C286 1.351 . S
C286 C280 1.428 . S
C286 N285 1.351 . S
C286 C287 1.434 . S
C287 C278 1.429 . S
C287 N284 1.350 . S
C287 C286 1.434 . S
C288 C289 1.369 . S
C288 C290 1.419 . S
C288 H292 0.930 . S
C289 C288 1.369 . S
C289 C298 1.429 . S
C290 C288 1.419 . S
C290 C291 1.363 . S
C290 H293 0.929 . S
C291 C290 1.363 . S
C291 C297 1.428 . S
H292 C288 0.930 . S
H293 C290 0.929 . S
S294 N295 1.613 . S
S294 N296 1.610 . S
N295 S294 1.613 . S
N295 C298 1.350 . S
N296 S294 1.610 . S
N296 C297 1.351 . S
C297 C291 1.428 . S
C297 N296 1.351 . S
C297 C298 1.434 . S
C298 C289 1.429 . S
C298 N295 1.350 . S
C298 C297 1.434 . S
C299 C300 1.369 . S
C299 C301 1.419 . S
C299 H303 0.930 . S
C300 C299 1.369 . S
C300 C309 1.429 . S
C301 C299 1.419 . S
C301 C302 1.363 . S
C301 H304 0.929 . S
C302 C301 1.363 . S
C302 C308 1.428 . S
H303 C299 0.930 . S
H304 C301 0.929 . S
S305 N306 1.613 . S
S305 N307 1.610 1_556 S
N306 S305 1.613 . S
N306 C309 1.350 . S
N307 S305 1.610 1_554 S
N307 C308 1.351 1_554 S
C308 C302 1.428 . S
C308 N307 1.351 1_556 S
C308 C309 1.434 . S
C309 C300 1.429 . S
C309 N306 1.350 . S
C309 C308 1.434 . S
C310 C311 1.369 . S
C310 C312 1.419 . S
C310 H314 0.930 . S
C311 C310 1.369 . S
C311 C320 1.429 . S
C312 C310 1.419 . S
C312 C313 1.363 . S
C312 H315 0.929 . S
C313 C312 1.363 . S
C313 C319 1.428 . S
H314 C310 0.930 . S
H315 C312 0.929 . S
S316 N317 1.613 . S
S316 N318 1.610 . S
N317 S316 1.613 . S
N317 C320 1.350 . S
N318 S316 1.610 . S
N318 C319 1.351 . S
C319 C313 1.428 . S
C319 N318 1.351 . S
C319 C320 1.434 . S
C320 C311 1.429 . S
C320 N317 1.350 . S
C320 C319 1.434 . S
C321 C322 1.369 . S
C321 C323 1.419 . S
C321 H325 0.930 . S
C322 C321 1.369 . S
C322 C331 1.429 . S
C323 C321 1.419 . S
C323 C324 1.363 . S
C323 H326 0.929 . S
C324 C323 1.363 . S
C324 C330 1.428 . S
H325 C321 0.930 . S
H326 C323 0.929 . S
S327 N328 1.613 . S
S327 N329 1.610 . S
N328 S327 1.613 . S
N328 C331 1.350 . S
N329 S327 1.610 . S
N329 C330 1.351 . S
C330 C324 1.428 . S
C330 N329 1.351 . S
C330 C331 1.434 . S
C331 C322 1.429 . S
C331 N328 1.350 . S
C331 C330 1.434 . S
C332 C333 1.369 . S
C332 C334 1.419 . S
C332 H336 0.930 . S
C333 C332 1.369 . S
C333 C342 1.429 . S
C334 C332 1.419 . S
C334 C335 1.363 . S
C334 H337 0.929 . S
C335 C334 1.363 . S
C335 C341 1.428 . S
H336 C332 0.930 . S
H337 C334 0.929 . S
S338 N339 1.609 1_554 S
S338 N340 1.611 . S
N339 S338 1.609 1_556 S
N339 C342 1.350 . S
N340 S338 1.611 . S
N340 C341 1.351 1_554 S
C341 C335 1.428 . S
C341 N340 1.351 1_556 S
C341 C342 1.434 . S
C342 C333 1.429 . S
C342 N339 1.350 . S
C342 C341 1.434 . S
C343 C344 1.369 . S
C343 C345 1.419 . S
C343 H347 0.930 . S
C344 C343 1.369 . S
C344 C353 1.429 . S
C345 C343 1.419 . S
C345 C346 1.363 . S
C345 H348 0.929 . S
C346 C345 1.363 . S
C346 C352 1.428 . S
H347 C343 0.930 . S
H348 C345 0.929 . S
S349 N350 1.613 . S
S349 N351 1.610 . S
N350 S349 1.613 . S
N350 C353 1.350 . S
N351 S349 1.610 . S
N351 C352 1.351 . S
C352 C346 1.428 . S
C352 N351 1.351 . S
C352 C353 1.434 . S
C353 C344 1.429 . S
C353 N350 1.350 . S
C353 C352 1.434 . S
C354 C355 1.369 . S
C354 C356 1.419 . S
C354 H358 0.930 . S
C355 C354 1.369 . S
C355 C364 1.429 . S
C356 C354 1.419 . S
C356 C357 1.363 . S
C356 H359 0.929 . S
C357 C356 1.363 . S
C357 C363 1.428 . S
H358 C354 0.930 . S
H359 C356 0.929 . S
S360 N361 1.613 . S
S360 N362 1.610 . S
N361 S360 1.613 . S
N361 C364 1.350 . S
N362 S360 1.610 . S
N362 C363 1.351 . S
C363 C357 1.428 . S
C363 N362 1.351 . S
C363 C364 1.434 . S
C364 C355 1.429 . S
C364 N361 1.350 . S
C364 C363 1.434 . S
C365 C366 1.369 . S
C365 C367 1.419 . S
C365 H369 0.930 . S
C366 C365 1.369 . S
C366 C375 1.429 . S
C367 C365 1.419 . S
C367 C368 1.363 . S
C367 H370 0.929 . S
C368 C367 1.363 . S
C368 C374 1.428 . S
H369 C365 0.930 . S
H370 C367 0.929 . S
S371 N372 1.613 . S
S371 N373 1.610 . S
N372 S371 1.613 . S
N372 C375 1.350 . S
N373 S371 1.610 . S
N373 C374 1.351 . S
C374 C368 1.428 . S
C374 N373 1.351 . S
C374 C375 1.434 . S
C375 C366 1.429 . S
C375 N372 1.350 . S
C375 C374 1.434 . S
C376 C377 1.369 1_554 S
C376 C378 1.419 . S
C376 H380 0.930 . S
C377 C376 1.369 1_556 S
C377 C386 1.429 . S
C378 C376 1.419 . S
C378 C379 1.363 . S
C378 H381 0.929 . S
C379 C378 1.363 . S
C379 C385 1.428 1_554 S
H380 C376 0.930 . S
H381 C378 0.929 . S
S382 N383 1.613 . S
S382 N384 1.610 . S
N383 S382 1.613 . S
N383 C386 1.350 . S
N384 S382 1.610 . S
N384 C385 1.351 . S
C385 C379 1.428 1_556 S
C385 N384 1.351 . S
C385 C386 1.434 . S
C386 C377 1.429 . S
C386 N383 1.350 . S
C386 C385 1.434 . S
C387 C388 1.369 . S
C387 C389 1.419 . S
C387 H391 0.930 . S
C388 C387 1.369 . S
C388 C397 1.429 . S
C389 C387 1.419 . S
C389 C390 1.363 . S
C389 H392 0.929 . S
C390 C389 1.363 . S
C390 C396 1.428 . S
H391 C387 0.930 . S
H392 C389 0.929 . S
S393 N394 1.613 . S
S393 N395 1.610 . S
N394 S393 1.613 . S
N394 C397 1.350 . S
N395 S393 1.610 . S
N395 C396 1.351 . S
C396 C390 1.428 . S
C396 N395 1.351 . S
C396 C397 1.434 . S
C397 C388 1.429 . S
C397 N394 1.350 . S
C397 C396 1.434 . S
C398 C399 1.369 . S
C398 C400 1.419 . S
C398 H402 0.930 . S
C399 C398 1.369 . S
C399 C408 1.429 . S
C400 C398 1.419 . S
C400 C401 1.363 . S
C400 H403 0.929 . S
C401 C400 1.363 . S
C401 C407 1.428 . S
H402 C398 0.930 . S
H403 C400 0.929 . S
S404 N405 1.613 . S
S404 N406 1.610 . S
N405 S404 1.613 . S
N405 C408 1.350 . S
N406 S404 1.610 . S
N406 C407 1.351 . S
C407 C401 1.428 . S
C407 N406 1.351 . S
C407 C408 1.434 . S
C408 C399 1.429 . S
C408 N405 1.350 . S
C408 C407 1.434 . S
C409 C410 1.369 1_556 S
C409 C411 1.419 . S
C409 H413 0.930 . S
C410 C409 1.369 1_554 S
C410 C419 1.429 . S
C411 C409 1.419 . S
C411 C412 1.363 . S
C411 H414 0.929 . S
C412 C411 1.363 . S
C412 C418 1.428 1_556 S
H413 C409 0.930 . S
H414 C411 0.929 . S
S415 N416 1.613 1_556 S
S415 N417 1.610 . S
N416 S415 1.613 1_554 S
N416 C419 1.350 . S
N417 S415 1.610 . S
N417 C418 1.351 1_556 S
C418 C412 1.428 1_554 S
C418 N417 1.351 1_554 S
C418 C419 1.434 . S
C419 C410 1.429 . S
C419 N416 1.350 . S
C419 C418 1.434 . S
C157 C3 1.482 . S
C159 C122 1.491 . S
C168 C16 1.482 . S
C170 C135 1.490 . S
C179 C29 1.486 . S
C181 C148 1.488 . S
C190 C42 1.483 . S
C192 C81 1.490 . S
C201 C94 1.485 . S
C203 C57 1.487 . S
C212 C109 1.491 . S
C214 C68 1.483 . S
C223 C140 1.798 . S
C225 C4 1.795 . S
C234 C17 1.792 . S
C236 C153 1.795 . S
C245 C30 1.797 . S
C247 C82 1.796 . S
C256 C43 1.798 . S
C258 C95 1.795 . S
C267 C62 1.794 . S
C269 C114 1.793 . S
C278 C69 1.795 . S
C280 C127 1.793 . S
C289 C134 1.129 . S
C291 C10 1.128 . S
C300 C23 1.128 . S
C302 C147 1.129 . S
C311 C36 1.128 . S
C313 C88 1.129 . S
C322 C49 1.128 . S
C324 C101 1.129 . S
C333 C56 1.128 . S
C335 C108 1.129 . S
C344 C75 1.128 . S
C346 C121 1.129 . S
C355 C5 1.681 . S
C357 C83 1.683 . S
C366 C96 1.683 . S
C368 C18 1.682 . S
C377 C31 1.681 . S
C379 C107 1.682 . S
C388 C44 1.683 . S
C390 C120 1.681 . S
C399 C55 1.681 . S
C401 C133 1.682 . S
C410 C146 1.683 . S
C412 C70 1.682 . S
