# Generated by pormake.
# Topology neb, (4)-cn, num edge types: 1
# Building blocks:
#     Node 0, Type 0, BuildingBlock: GALJAG_clean_sbu_0, # of connection points: 4
#     Node 1, Type 0, BuildingBlock: GALJAG_clean_sbu_0, # of connection points: 4
#     Node 2, Type 0, BuildingBlock: GALJAG_clean_sbu_0, # of connection points: 4
#     Node 3, Type 0, BuildingBlock: GALJAG_clean_sbu_0, # of connection points: 4
#     Node 4, Type 0, BuildingBlock: GALJAG_clean_sbu_0, # of connection points: 4
#     Node 5, Type 0, BuildingBlock: GALJAG_clean_sbu_0, # of connection points: 4
#     Node 6, Type 0, BuildingBlock: GALJAG_clean_sbu_0, # of connection points: 4
#     Node 7, Type 0, BuildingBlock: GALJAG_clean_sbu_0, # of connection points: 4
#     Node 8, Type 0, BuildingBlock: GALJAG_clean_sbu_0, # of connection points: 4
#     Node 9, Type 0, BuildingBlock: GALJAG_clean_sbu_0, # of connection points: 4
#     Node 10, Type 0, BuildingBlock: GALJAG_clean_sbu_0, # of connection points: 4
#     Node 11, Type 0, BuildingBlock: GALJAG_clean_sbu_0, # of connection points: 4
#     Node 12, Type 0, BuildingBlock: GALJAG_clean_sbu_0, # of connection points: 4
#     Node 13, Type 0, BuildingBlock: GALJAG_clean_sbu_0, # of connection points: 4
#     Node 14, Type 0, BuildingBlock: GALJAG_clean_sbu_0, # of connection points: 4
#     Node 15, Type 0, BuildingBlock: GALJAG_clean_sbu_0, # of connection points: 4
#     Edge 16, Type (0, 0), BuildingBlock: XIVTED_clean_linker_0, # of connection points: 2
#     Edge 17, Type (0, 0), BuildingBlock: XIVTED_clean_linker_0, # of connection points: 2
#     Edge 18, Type (0, 0), BuildingBlock: XIVTED_clean_linker_0, # of connection points: 2
#     Edge 19, Type (0, 0), BuildingBlock: XIVTED_clean_linker_0, # of connection points: 2
#     Edge 20, Type (0, 0), BuildingBlock: XIVTED_clean_linker_0, # of connection points: 2
#     Edge 21, Type (0, 0), BuildingBlock: XIVTED_clean_linker_0, # of connection points: 2
#     Edge 22, Type (0, 0), BuildingBlock: XIVTED_clean_linker_0, # of connection points: 2
#     Edge 23, Type (0, 0), BuildingBlock: XIVTED_clean_linker_0, # of connection points: 2
#     Edge 24, Type (0, 0), BuildingBlock: XIVTED_clean_linker_0, # of connection points: 2
#     Edge 25, Type (0, 0), BuildingBlock: XIVTED_clean_linker_0, # of connection points: 2
#     Edge 26, Type (0, 0), BuildingBlock: XIVTED_clean_linker_0, # of connection points: 2
#     Edge 27, Type (0, 0), BuildingBlock: XIVTED_clean_linker_0, # of connection points: 2
#     Edge 28, Type (0, 0), BuildingBlock: XIVTED_clean_linker_0, # of connection points: 2
#     Edge 29, Type (0, 0), BuildingBlock: XIVTED_clean_linker_0, # of connection points: 2
#     Edge 30, Type (0, 0), BuildingBlock: XIVTED_clean_linker_0, # of connection points: 2
#     Edge 31, Type (0, 0), BuildingBlock: XIVTED_clean_linker_0, # of connection points: 2
#     Edge 32, Type (0, 0), BuildingBlock: XIVTED_clean_linker_0, # of connection points: 2
#     Edge 33, Type (0, 0), BuildingBlock: XIVTED_clean_linker_0, # of connection points: 2
#     Edge 34, Type (0, 0), BuildingBlock: XIVTED_clean_linker_0, # of connection points: 2
#     Edge 35, Type (0, 0), BuildingBlock: XIVTED_clean_linker_0, # of connection points: 2
#     Edge 36, Type (0, 0), BuildingBlock: XIVTED_clean_linker_0, # of connection points: 2
#     Edge 37, Type (0, 0), BuildingBlock: XIVTED_clean_linker_0, # of connection points: 2
#     Edge 38, Type (0, 0), BuildingBlock: XIVTED_clean_linker_0, # of connection points: 2
#     Edge 39, Type (0, 0), BuildingBlock: XIVTED_clean_linker_0, # of connection points: 2
#     Edge 40, Type (0, 0), BuildingBlock: XIVTED_clean_linker_0, # of connection points: 2
#     Edge 41, Type (0, 0), BuildingBlock: XIVTED_clean_linker_0, # of connection points: 2
#     Edge 42, Type (0, 0), BuildingBlock: XIVTED_clean_linker_0, # of connection points: 2
#     Edge 43, Type (0, 0), BuildingBlock: XIVTED_clean_linker_0, # of connection points: 2
#     Edge 44, Type (0, 0), BuildingBlock: XIVTED_clean_linker_0, # of connection points: 2
#     Edge 45, Type (0, 0), BuildingBlock: XIVTED_clean_linker_0, # of connection points: 2
#     Edge 46, Type (0, 0), BuildingBlock: XIVTED_clean_linker_0, # of connection points: 2
#     Edge 47, Type (0, 0), BuildingBlock: XIVTED_clean_linker_0, # of connection points: 2
# Relax obj value: 0.003
# Max RMSD: 0.033
# Mean RMSD: 0.033
data_MOF--net-neb--node1-GALJAG_clean_sbu_0--edge1-XIVTED_clean_linker_0
_symmetry_space_group_name_H-M    P1
_symmetry_Int_Tables_number       1
_symmetry_cell_setting            triclinic
loop_
_symmetry_equiv_pos_as_xyz
'x, y, z'
_cell_length_a     42.617122
_cell_length_b     25.238767
_cell_length_c     71.502806
_cell_angle_alpha  89.946769
_cell_angle_beta   90.421138
_cell_angle_gamma 90.002237
loop_
_atom_site_label
_atom_site_type_symbol
_atom_site_fract_x
_atom_site_fract_y
_atom_site_fract_z
_atom_type_partial_charge
In0 In 0.12002 0.12488 0.43083 0.0
O1 O 0.14795 0.05767 0.41734 0.0
O2 O 0.10048 0.06859 0.4089 0.0
C3 C 0.16275 0.16405 0.45502 0.0
C4 C 0.07753 0.08482 0.45468 0.0
C5 C 0.11508 0.20896 0.40768 0.0
O6 O 0.16885 0.1262 0.44409 0.0
O7 O 0.13505 0.18148 0.45389 0.0
O8 O 0.09231 0.19293 0.41736 0.0
O9 O 0.13981 0.18195 0.4094 0.0
C10 C 0.12531 0.0419 0.40731 0.0
O11 O 0.071 0.122 0.44347 0.0
O12 O 0.10548 0.06854 0.45398 0.0
In13 In 0.1225 0.11797 0.80978 0.0
O14 O 0.09521 0.04823 0.82223 0.0
O15 O 0.14205 0.06199 0.83163 0.0
C16 C 0.07555 0.15355 0.78753 0.0
C17 C 0.16662 0.07587 0.78748 0.0
C18 C 0.13286 0.20514 0.83091 0.0
O19 O 0.07023 0.12803 0.80238 0.0
O20 O 0.10418 0.16005 0.78396 0.0
O21 O 0.14346 0.20028 0.8146 0.0
O22 O 0.11733 0.16597 0.83665 0.0
C23 C 0.11775 0.03359 0.83262 0.0
O24 O 0.1728 0.11128 0.79942 0.0
O25 O 0.13817 0.06216 0.78669 0.0
In26 In 0.87622 0.86391 0.55943 0.0
O27 O 0.84768 0.93033 0.57297 0.0
O28 O 0.89588 0.92206 0.58054 0.0
C29 C 0.83103 0.82817 0.53599 0.0
C30 C 0.91959 0.9079 0.53703 0.0
C31 C 0.88529 0.77777 0.58137 0.0
O32 O 0.82497 0.8585 0.54954 0.0
O33 O 0.85957 0.81631 0.53438 0.0
O34 O 0.89849 0.78328 0.56578 0.0
O35 O 0.86789 0.81582 0.58602 0.0
C36 C 0.87064 0.94758 0.58248 0.0
O37 O 0.92646 0.87296 0.54904 0.0
O38 O 0.8909 0.92012 0.53625 0.0
In39 In 0.86784 0.88077 0.18295 0.0
O40 O 0.81899 0.88193 0.19578 0.0
O41 O 0.85394 0.93182 0.20778 0.0
C42 C 0.86245 0.79917 0.15875 0.0
C43 C 0.87164 0.96696 0.16065 0.0
C44 C 0.91189 0.83834 0.20562 0.0
O45 O 0.84027 0.81288 0.1693 0.0
O46 O 0.88678 0.82735 0.16011 0.0
O47 O 0.91745 0.87767 0.1952 0.0
O48 O 0.88409 0.82127 0.20479 0.0
C49 C 0.82587 0.91599 0.20807 0.0
O50 O 0.89461 0.95091 0.17035 0.0
O51 O 0.84718 0.93919 0.16202 0.0
In52 In 0.12401 0.61579 0.93168 0.0
O53 O 0.14814 0.53762 0.92459 0.0
O54 O 0.11617 0.56928 0.90463 0.0
C55 C 0.16648 0.65829 0.95545 0.0
C56 C 0.07828 0.57555 0.95345 0.0
C57 C 0.11844 0.70066 0.90906 0.0
O58 O 0.17384 0.62526 0.94298 0.0
O59 O 0.13762 0.66924 0.95611 0.0
O60 O 0.09519 0.68159 0.91766 0.0
O61 O 0.14398 0.67634 0.91167 0.0
C62 C 0.13467 0.53225 0.90896 0.0
O63 O 0.0729 0.61129 0.94147 0.0
O64 O 0.10648 0.56088 0.95446 0.0
In65 In 0.12164 0.6252 0.30795 0.0
O66 O 0.09469 0.55577 0.3208 0.0
O67 O 0.14109 0.57078 0.33052 0.0
C68 C 0.07866 0.66414 0.28379 0.0
C69 C 0.16538 0.58631 0.28469 0.0
C70 C 0.12548 0.70901 0.33123 0.0
O71 O 0.0726 0.62666 0.29491 0.0
O72 O 0.10649 0.68105 0.28462 0.0
O73 O 0.14837 0.69425 0.32141 0.0
O74 O 0.10118 0.68089 0.32957 0.0
C75 C 0.11696 0.54204 0.33149 0.0
O76 O 0.17087 0.62453 0.29562 0.0
O77 O 0.13776 0.56846 0.2853 0.0
In78 In 0.86962 0.38156 0.05972 0.0
O79 O 0.84246 0.45067 0.07264 0.0
O80 O 0.88983 0.4389 0.08111 0.0
C81 C 0.82652 0.34153 0.03588 0.0
C82 C 0.91244 0.41876 0.03546 0.0
C83 C 0.87425 0.29897 0.08365 0.0
O84 O 0.82043 0.37935 0.04683 0.0
O85 O 0.85434 0.32462 0.03682 0.0
O86 O 0.897 0.31392 0.07374 0.0
O87 O 0.84967 0.32628 0.08174 0.0
C88 C 0.86529 0.46644 0.08251 0.0
O89 O 0.91846 0.38175 0.04684 0.0
O90 O 0.88479 0.43647 0.03621 0.0
In91 In 0.86987 0.36497 0.68152 0.0
O92 O 0.81799 0.37433 0.68952 0.0
O93 O 0.85262 0.41371 0.70589 0.0
C94 C 0.86503 0.27965 0.65911 0.0
C95 C 0.88071 0.45027 0.65957 0.0
C96 C 0.91286 0.32282 0.70503 0.0
O97 O 0.84218 0.29571 0.66878 0.0
O98 O 0.88965 0.30713 0.66058 0.0
O99 O 0.9199 0.3556 0.69239 0.0
O100 O 0.88404 0.31169 0.70595 0.0
C101 C 0.8239 0.40452 0.70319 0.0
O102 O 0.89318 0.44463 0.67548 0.0
O103 O 0.86308 0.41269 0.65459 0.0
In104 In 0.6232 0.11974 0.93101 0.0
O105 O 0.64533 0.0386 0.92579 0.0
O106 O 0.61767 0.07206 0.90401 0.0
C107 C 0.66654 0.16349 0.9539 0.0
C108 C 0.57693 0.08171 0.95286 0.0
C109 C 0.61735 0.20411 0.90818 0.0
O110 O 0.67338 0.12889 0.94185 0.0
O111 O 0.63783 0.17543 0.95454 0.0
O112 O 0.59479 0.18774 0.91803 0.0
O113 O 0.64226 0.17732 0.90966 0.0
C114 C 0.63403 0.03348 0.90957 0.0
O115 O 0.57124 0.11062 0.93881 0.0
O116 O 0.60561 0.07302 0.95588 0.0
In117 In 0.62199 0.12708 0.31352 0.0
O118 O 0.67354 0.10867 0.307 0.0
O119 O 0.63838 0.07704 0.28907 0.0
C120 C 0.6363 0.2104 0.3355 0.0
C121 C 0.60712 0.04264 0.3348 0.0
C122 C 0.5773 0.17461 0.29234 0.0
O123 O 0.64914 0.20314 0.31985 0.0
O124 O 0.61661 0.1755 0.34009 0.0
O125 O 0.57061 0.14469 0.30589 0.0
O126 O 0.60623 0.18011 0.28952 0.0
C127 C 0.66721 0.08102 0.29276 0.0
O128 O 0.59565 0.04956 0.31865 0.0
O129 O 0.62576 0.07837 0.34022 0.0
In130 In 0.37275 0.87547 0.05933 0.0
O131 O 0.42175 0.8781 0.04678 0.0
O132 O 0.38721 0.93031 0.03557 0.0
C133 C 0.37841 0.79169 0.08264 0.0
C134 C 0.36814 0.95956 0.08248 0.0
C135 C 0.32951 0.83458 0.03577 0.0
O136 O 0.40078 0.80741 0.07258 0.0
O137 O 0.35368 0.81886 0.08121 0.0
O138 O 0.3231 0.87129 0.04712 0.0
O139 O 0.35771 0.81939 0.03613 0.0
C140 C 0.41523 0.91423 0.03515 0.0
O141 O 0.34565 0.94489 0.07213 0.0
O142 O 0.39245 0.93134 0.08136 0.0
In143 In 0.37231 0.87576 0.68104 0.0
O144 O 0.32282 0.87613 0.693 0.0
O145 O 0.35676 0.92781 0.70514 0.0
C146 C 0.3679 0.79597 0.65605 0.0
C147 C 0.37752 0.96299 0.6594 0.0
C148 C 0.41445 0.83371 0.70511 0.0
O149 O 0.3454 0.80868 0.66652 0.0
O150 O 0.39215 0.82409 0.65797 0.0
O151 O 0.42065 0.87332 0.69497 0.0
O152 O 0.38699 0.81578 0.70321 0.0
C153 C 0.32882 0.91127 0.70508 0.0
O154 O 0.40053 0.94434 0.66848 0.0
O155 O 0.35238 0.93712 0.66099 0.0
In156 In 0.62039 0.62675 0.43105 0.0
O157 O 0.64636 0.54868 0.42638 0.0
O158 O 0.61796 0.57865 0.40419 0.0
C159 C 0.66552 0.67332 0.45209 0.0
C160 C 0.5752 0.57978 0.45155 0.0
C161 C 0.60544 0.71064 0.40942 0.0
O162 O 0.67187 0.64481 0.43814 0.0
O163 O 0.63667 0.67814 0.45534 0.0
O164 O 0.59372 0.70382 0.42541 0.0
O165 O 0.62428 0.67503 0.40433 0.0
C166 C 0.63585 0.54229 0.40999 0.0
O167 O 0.56886 0.60659 0.4371 0.0
O168 O 0.60395 0.57731 0.45559 0.0
In169 In 0.62317 0.62212 0.80908 0.0
O170 O 0.67263 0.61238 0.79779 0.0
O171 O 0.63597 0.5694 0.78435 0.0
C172 C 0.63406 0.70564 0.83184 0.0
C173 C 0.61856 0.53721 0.83174 0.0
C174 C 0.57771 0.66414 0.78718 0.0
O175 O 0.64816 0.69932 0.81657 0.0
O176 O 0.61482 0.66947 0.83582 0.0
O177 O 0.57201 0.62792 0.79889 0.0
O178 O 0.60603 0.67823 0.78651 0.0
C179 C 0.66487 0.58008 0.7851 0.0
O180 O 0.59517 0.55495 0.82271 0.0
O181 O 0.64368 0.56283 0.82951 0.0
In182 In 0.37163 0.37587 0.55838 0.0
O183 O 0.34409 0.44523 0.5708 0.0
O184 O 0.39239 0.43776 0.5779 0.0
C185 C 0.32772 0.33227 0.53595 0.0
C186 C 0.41341 0.41062 0.53308 0.0
C187 C 0.37749 0.29643 0.58348 0.0
O188 O 0.32232 0.37281 0.54577 0.0
O189 O 0.35528 0.31433 0.53731 0.0
O190 O 0.39894 0.30764 0.57205 0.0
O191 O 0.35369 0.32597 0.58249 0.0
C192 C 0.36738 0.46393 0.57958 0.0
O193 O 0.42078 0.37866 0.546 0.0
O194 O 0.38496 0.42439 0.53282 0.0
In195 In 0.37392 0.37566 0.18258 0.0
O196 O 0.32462 0.37613 0.19483 0.0
O197 O 0.35712 0.43434 0.20438 0.0
C198 C 0.37049 0.2906 0.15977 0.0
C199 C 0.37868 0.4582 0.15872 0.0
C200 C 0.41582 0.33952 0.20798 0.0
O201 O 0.34721 0.30679 0.16896 0.0
O202 O 0.3951 0.3177 0.16189 0.0
O203 O 0.42273 0.37435 0.19599 0.0
O204 O 0.38781 0.32345 0.20722 0.0
C205 C 0.3297 0.41568 0.20525 0.0
O206 O 0.401 0.44464 0.1694 0.0
O207 O 0.35456 0.42948 0.15982 0.0
H208 H 0.33432 0.24544 0.51361 0.0
H209 H 0.15519 0.24705 0.47902 0.0
H210 H 0.2663 0.36136 0.53131 0.0
H211 H 0.22413 0.13488 0.45969 0.0
H212 H 0.19517 0.28784 0.49899 0.0
H213 H 0.29397 0.20315 0.49432 0.0
C214 C 0.31087 0.26204 0.51341 0.0
C215 C 0.30362 0.30701 0.52404 0.0
C216 C 0.20157 0.25425 0.49042 0.0
C217 C 0.2573 0.25873 0.50205 0.0
C218 C 0.17874 0.23088 0.47904 0.0
C219 C 0.18641 0.18758 0.46768 0.0
C220 C 0.2323 0.23415 0.49043 0.0
C221 C 0.21725 0.16825 0.46823 0.0
C222 C 0.28784 0.23784 0.50241 0.0
C223 C 0.27289 0.32679 0.52329 0.0
N224 N 0.23909 0.19174 0.4794 0.0
N225 N 0.25084 0.3025 0.51248 0.0
H226 H 0.98266 0.88818 0.53576 0.0
H227 H 0.01522 0.1093 0.45772 0.0
H228 H 0.91028 0.98605 0.51116 0.0
H229 H 0.08669 0.00551 0.48011 0.0
H230 H 0.97665 0.06658 0.47794 0.0
H231 H 0.02143 0.93226 0.51606 0.0
C232 C 0.97494 0.9189 0.52619 0.0
C233 C 0.94324 0.93346 0.52506 0.0
C234 C 0.00078 0.0532 0.47845 0.0
C235 C 0.9874 0.98418 0.50253 0.0
C236 C 0.0228 0.07765 0.46694 0.0
C237 C 0.05416 0.06086 0.46724 0.0
C238 C 0.01023 0.01171 0.49035 0.0
C239 C 0.06273 0.01965 0.47944 0.0
C240 C 0.99707 0.94408 0.51495 0.0
C241 C 0.9345 0.97355 0.51245 0.0
N242 N 0.04088 0.99645 0.49049 0.0
N243 N 0.95646 0.99754 0.50169 0.0
H244 H 0.26663 0.88495 0.70696 0.0
H245 H 0.22933 0.09832 0.78671 0.0
H246 H 0.33647 0.98726 0.73184 0.0
H247 H 0.15896 0.99809 0.76129 0.0
H248 H 0.26912 0.05687 0.76709 0.0
H249 H 0.22698 0.92426 0.72727 0.0
C250 C 0.27362 0.91553 0.71675 0.0
C251 C 0.30483 0.93295 0.71772 0.0
C252 C 0.24498 0.04392 0.76579 0.0
C253 C 0.25967 0.97822 0.74093 0.0
C254 C 0.22227 0.06761 0.77697 0.0
C255 C 0.19083 0.05165 0.77558 0.0
C256 C 0.23618 0.00393 0.75313 0.0
C257 C 0.18295 0.01163 0.76278 0.0
C258 C 0.25099 0.93803 0.72832 0.0
C259 C 0.31264 0.97271 0.73064 0.0
N260 N 0.20549 0.98914 0.75204 0.0
N261 N 0.2902 0.99407 0.74171 0.0
H262 H 0.01161 0.14626 0.79164 0.0
H263 H 0.97635 0.33548 0.70393 0.0
H264 H 0.08295 0.21253 0.75605 0.0
H265 H 0.90345 0.2544 0.73423 0.0
H266 H 0.01557 0.29327 0.724 0.0
H267 H 0.97127 0.18736 0.77169 0.0
C268 C 0.01875 0.16926 0.77961 0.0
C269 C 0.05063 0.17604 0.77548 0.0
C270 C 0.99101 0.28463 0.72629 0.0
C271 C 0.00484 0.22328 0.75275 0.0
C272 C 0.9686 0.30886 0.71485 0.0
C273 C 0.93663 0.29839 0.71742 0.0
C274 C 0.98141 0.24976 0.74047 0.0
C275 C 0.9279 0.2635 0.73178 0.0
C276 C 0.99577 0.19271 0.76825 0.0
C277 C 0.05864 0.20627 0.75975 0.0
N278 N 0.95019 0.24042 0.7428 0.0
N279 N 0.03593 0.22885 0.74901 0.0
H280 H 0.83971 0.76443 0.50574 0.0
H281 H 0.65662 0.739 0.48186 0.0
H282 H 0.76743 0.84445 0.53684 0.0
H283 H 0.72939 0.66504 0.44935 0.0
H284 H 0.69679 0.77886 0.50191 0.0
H285 H 0.79963 0.72853 0.48476 0.0
C286 C 0.81536 0.77454 0.50813 0.0
C287 C 0.80684 0.80738 0.52307 0.0
C288 C 0.70401 0.75403 0.49038 0.0
C289 C 0.76079 0.76631 0.4991 0.0
C290 C 0.68109 0.73122 0.47893 0.0
C291 C 0.68972 0.69855 0.46396 0.0
C292 C 0.73583 0.74396 0.48688 0.0
C293 C 0.72174 0.68993 0.46076 0.0
C294 C 0.79249 0.75403 0.49613 0.0
C295 C 0.77498 0.81922 0.52549 0.0
N296 N 0.74364 0.71239 0.47217 0.0
N297 N 0.75308 0.79856 0.51365 0.0
H298 H 0.73122 0.08881 0.29598 0.0
H299 H 0.76316 0.89403 0.20969 0.0
H300 H 0.65804 0.0144 0.26327 0.0
H301 H 0.83584 0.986 0.23667 0.0
H302 H 0.72477 0.93224 0.23103 0.0
H303 H 0.77047 0.04627 0.2761 0.0
C304 C 0.72344 0.06346 0.28464 0.0
C305 C 0.69137 0.05524 0.28121 0.0
C306 C 0.74912 0.94401 0.23232 0.0
C307 C 0.73599 0.00642 0.2585 0.0
C308 C 0.77105 0.9221 0.22017 0.0
C309 C 0.80268 0.93703 0.22138 0.0
C310 C 0.75891 0.98099 0.24584 0.0
C311 C 0.81163 0.97355 0.23522 0.0
C312 C 0.74582 0.03925 0.2733 0.0
C313 C 0.68254 0.02198 0.26637 0.0
N314 N 0.78985 0.99435 0.24691 0.0
N315 N 0.70471 -0.00119 0.25557 0.0
H316 H 0.90501 0.75361 0.22896 0.0
H317 H 0.08618 0.74633 0.25938 0.0
H318 H 0.97402 0.86465 0.20886 0.0
H319 H 0.01668 0.63742 0.28029 0.0
H320 H 0.04571 0.78896 0.24023 0.0
H321 H 0.94574 0.70991 0.24758 0.0
C322 C 0.92875 0.76889 0.22851 0.0
C323 C 0.93618 0.81285 0.21737 0.0
C324 C 0.0393 0.75566 0.24896 0.0
C325 C 0.98295 0.76287 0.23858 0.0
C326 C 0.06241 0.73123 0.25986 0.0
C327 C 0.05474 0.68831 0.27144 0.0
C328 C 0.00826 0.73708 0.24965 0.0
C329 C 0.02359 0.6704 0.27155 0.0
C330 C 0.952 0.74386 0.23912 0.0
C331 C 0.96729 0.83092 0.21729 0.0
N332 N 0.00147 0.69495 0.26085 0.0
N333 N 0.98957 0.8058 0.22772 0.0
H334 H 0.33852 0.75666 0.00995 0.0
H335 H 0.1566 0.73363 0.98223 0.0
H336 H 0.26648 0.85537 0.03379 0.0
H337 H 0.22977 0.64121 0.95657 0.0
H338 H 0.19619 0.77751 0.00172 0.0
H339 H 0.29879 0.7133 0.99055 0.0
C340 C 0.31432 0.76934 0.01105 0.0
C341 C 0.30576 0.80969 0.02349 0.0
C342 C 0.20359 0.7476 0.99185 0.0
C343 C 0.26008 0.76001 0.00138 0.0
C344 C 0.181 0.72245 0.98075 0.0
C345 C 0.18995 0.68373 0.96778 0.0
C346 C 0.23535 0.73387 0.98996 0.0
C347 C 0.22186 0.67083 0.96641 0.0
C348 C 0.29163 0.74452 -2e-05 0.0
C349 C 0.27407 0.82448 0.02435 0.0
N350 N 0.2434 0.69587 0.97735 0.0
N351 N 0.25235 0.79955 0.01347 0.0
H352 H 0.08498 0.49607 0.97896 0.0
H353 H 0.90479 0.49826 0.00984 0.0
H354 H 0.01575 0.60109 0.95485 0.0
H355 H 0.97393 0.38973 0.03199 0.0
H356 H 0.94477 0.53627 0.98945 0.0
H357 H 0.04441 0.45677 -0.00156 0.0
C358 C 0.0612 0.51091 0.97778 0.0
C359 C 0.05371 0.55198 0.96529 0.0
C360 C 0.95119 0.50406 -0.00127 0.0
C361 C 0.00705 0.50706 0.98758 0.0
C362 C 0.92838 0.48232 0.01036 0.0
C363 C 0.9361 0.44082 0.02263 0.0
C364 C 0.98197 0.48422 -0.00059 0.0
C365 C 0.96699 0.4217 0.02275 0.0
C366 C 0.03802 0.48838 0.9889 0.0
C367 C 0.02251 0.56953 0.96432 0.0
N368 N 0.9888 0.44363 0.01135 0.0
N369 N 0.0003 0.54701 0.97534 0.0
H370 H 0.2685 0.3848 0.20895 0.0
H371 H 0.22668 0.6166 0.28116 0.0
H372 H 0.33539 0.50103 0.22844 0.0
H373 H 0.15928 0.50221 0.26093 0.0
H374 H 0.26687 0.57484 0.2619 0.0
H375 H 0.22818 0.4268 0.22809 0.0
C376 C 0.2747 0.41907 0.2173 0.0
C377 C 0.3053 0.43949 0.21712 0.0
C378 C 0.24328 0.55892 0.26164 0.0
C379 C 0.25935 0.48786 0.23898 0.0
C380 C 0.22033 0.58281 0.27261 0.0
C381 C 0.18964 0.56283 0.27263 0.0
C382 C 0.23547 0.51467 0.25063 0.0
C383 C 0.18268 0.51891 0.26131 0.0
C384 C 0.25169 0.44309 0.22819 0.0
C385 C 0.31208 0.484 0.22818 0.0
N386 N 0.20543 0.49624 0.25079 0.0
N387 N 0.28928 0.50672 0.23865 0.0
H388 H 0.72957 0.14368 0.95541 0.0
H389 H 0.76424 0.36673 0.03258 0.0
H390 H 0.65768 0.24191 0.97965 0.0
H391 H 0.83483 0.26127 0.01086 0.0
H392 H 0.72507 0.3237 0.01251 0.0
H393 H 0.76874 0.18805 0.97503 0.0
C394 C 0.72204 0.17453 0.9649 0.0
C395 C 0.69036 0.18911 0.96594 0.0
C396 C 0.74914 0.31003 0.01212 0.0
C397 C 0.73502 0.24023 0.98837 0.0
C398 C 0.7715 0.33466 0.02353 0.0
C399 C 0.80279 0.31748 0.02338 0.0
C400 C 0.75818 0.26799 0.00046 0.0
C401 C 0.81094 0.27572 0.01142 0.0
C402 C 0.7444 0.19989 0.97608 0.0
C403 C 0.68188 0.22939 0.97844 0.0
N404 N 0.78877 0.25238 0.00045 0.0
N405 N 0.70409 0.25359 0.98916 0.0
H406 H 0.72825 0.59464 0.78505 0.0
H407 H 0.75984 0.39296 0.70068 0.0
H408 H 0.65417 0.50924 0.75674 0.0
H409 H 0.83258 0.47168 0.73246 0.0
H410 H 0.72034 0.4362 0.7203 0.0
H411 H 0.76653 0.55159 0.76494 0.0
C412 C 0.72004 0.5669 0.77454 0.0
C413 C 0.68802 0.55544 0.77256 0.0
C414 C 0.74496 0.44387 0.72296 0.0
C415 C 0.73174 0.50575 0.74949 0.0
C416 C 0.76747 0.41919 0.7118 0.0
C417 C 0.79949 0.42875 0.71497 0.0
C418 C 0.75465 0.47837 0.73732 0.0
C419 C 0.80815 0.46313 0.72952 0.0
C420 C 0.74191 0.54221 0.76308 0.0
C421 C 0.67868 0.51915 0.75873 0.0
N422 N 0.78588 0.48669 0.74011 0.0
N423 N 0.70046 0.49551 0.74771 0.0
H424 H 0.51309 0.09571 0.95039 0.0
H425 H 0.47779 0.89155 0.03356 0.0
H426 H 0.58474 0.01382 0.9821 0.0
H427 H 0.40631 0.98932 0.00799 0.0
H428 H 0.51684 0.93225 0.01326 0.0
H429 H 0.47303 0.05405 0.97002 0.0
C430 C 0.52037 0.06908 0.96149 0.0
C431 C 0.55225 0.05824 0.96465 0.0
C432 C 0.49261 0.94482 0.01206 0.0
C433 C 0.50672 0.01033 0.98701 0.0
C434 C 0.47031 0.92147 0.02361 0.0
C435 C 0.43881 0.93717 0.02247 0.0
C436 C 0.48337 0.98407 -0.0008 0.0
C437 C 0.4304 0.97615 0.00933 0.0
C438 C 0.49753 0.04533 0.97267 0.0
C439 C 0.56042 0.02339 0.97919 0.0
N440 N 0.45256 0.99831 -0.0018 0.0
N441 N 0.53783 0.00064 0.98979 0.0
H442 H 0.40556 0.26767 0.23587 0.0
H443 H 0.587 0.24551 0.2642 0.0
H444 H 0.47854 0.36163 0.21065 0.0
H445 H 0.51332 0.16411 0.2937 0.0
H446 H 0.54751 0.28811 0.2444 0.0
H447 H 0.44448 0.2292 0.25719 0.0
C448 C 0.42978 0.28036 0.23487 0.0
C449 C 0.43888 0.31779 0.22145 0.0
C450 C 0.53992 0.26107 0.25523 0.0
C451 C 0.48355 0.27376 0.24573 0.0
C452 C 0.56247 0.23664 0.26652 0.0
C453 C 0.5534 0.2011 0.28058 0.0
C454 C 0.50802 0.2497 0.25792 0.0
C455 C 0.5213 0.19121 0.28301 0.0
C456 C 0.45198 0.25839 0.24705 0.0
C457 C 0.47053 0.33285 0.22078 0.0
N458 N 0.49974 0.21525 0.27173 0.0
N459 N 0.49175 0.3106 0.2327 0.0
H460 H 0.40599 0.74973 0.72872 0.0
H461 H 0.58536 0.74531 0.76258 0.0
H462 H 0.47579 0.8619 0.71043 0.0
H463 H 0.51493 0.64014 0.78473 0.0
H464 H 0.54541 0.7873 0.74304 0.0
H465 H 0.44531 0.70821 0.74909 0.0
C466 C 0.42958 0.7657 0.72904 0.0
C467 C 0.43769 0.80929 0.71787 0.0
C468 C 0.5386 0.75509 0.75217 0.0
C469 C 0.48276 0.76189 0.74106 0.0
C470 C 0.56143 0.73099 0.76331 0.0
C471 C 0.55343 0.68912 0.77528 0.0
C472 C 0.50746 0.73716 0.75291 0.0
C473 C 0.52207 0.6723 0.77568 0.0
C474 C 0.452 0.74198 0.74066 0.0
C475 C 0.46855 0.82837 0.71881 0.0
N476 N 0.50019 0.69636 0.76462 0.0
N477 N 0.48997 0.80447 0.73017 0.0
H478 H 0.40254 0.47619 0.50328 0.0
H479 H 0.58482 0.51568 0.48167 0.0
H480 H 0.47683 0.39473 0.53288 0.0
H481 H 0.51114 0.5825 0.4473 0.0
H482 H 0.54532 0.47175 0.50068 0.0
H483 H 0.44159 0.51567 0.48259 0.0
C484 C 0.42707 0.46642 0.50536 0.0
C485 C 0.43652 0.43227 0.51984 0.0
C486 C 0.53772 0.49586 0.48895 0.0
C487 C 0.48128 0.47753 0.49632 0.0
C488 C 0.56027 0.52108 0.47812 0.0
C489 C 0.55121 0.5529 0.46292 0.0
C490 C 0.50578 0.50265 0.48466 0.0
C491 C 0.5191 0.55837 0.45892 0.0
C492 C 0.44933 0.48896 0.49354 0.0
C493 C 0.46855 0.42089 0.52189 0.0
N494 N 0.49749 0.53361 0.46978 0.0
N495 N 0.48979 0.44369 0.51032 0.0
H496 H 0.07631 0.75633 0.34857 0.0
H497 H 0.17713 0.98272 0.39843 0.0
H498 H 0.17618 0.77106 0.34046 0.0
H499 H 0.07703 0.99218 0.38946 0.0
H500 H 0.17815 0.90086 0.3799 0.0
H501 H 0.07698 0.83793 0.36681 0.0
C502 C 0.09844 0.77663 0.35072 0.0
C503 C 0.12624 0.757 0.34299 0.0
C504 C 0.15604 0.9211 0.38194 0.0
C505 C 0.12717 0.85051 0.36385 0.0
C506 C 0.15543 0.96769 0.3925 0.0
C507 C 0.12695 0.99418 0.39546 0.0
C508 C 0.1279 0.90067 0.37457 0.0
C509 C 0.09951 0.97308 0.38749 0.0
C510 C 0.09878 0.82337 0.36105 0.0
C511 C 0.15422 0.785 0.34617 0.0
N512 N 0.10065 0.92741 0.37752 0.0
N513 N 0.15402 0.83039 0.35643 0.0
H514 H 0.06339 0.26784 0.39777 0.0
H515 H 0.16517 0.49691 0.35091 0.0
H516 H 0.16389 0.26019 0.39135 0.0
H517 H 0.06626 0.47878 0.33921 0.0
H518 H 0.16394 0.41572 0.36943 0.0
H519 H 0.06279 0.3502 0.37941 0.0
C520 C 0.08527 0.2834 0.39245 0.0
C521 C 0.11373 0.25721 0.39604 0.0
C522 C 0.14248 0.42947 0.36282 0.0
C523 C 0.11326 0.35126 0.37537 0.0
C524 C 0.14313 0.47597 0.35233 0.0
C525 C 0.11579 0.49447 0.34348 0.0
C526 C 0.11422 0.40146 0.36466 0.0
C527 C 0.08788 0.4657 0.34578 0.0
C528 C 0.0849 0.33025 0.38199 0.0
C529 C 0.14142 0.27899 0.38886 0.0
N530 N 0.08777 0.42055 0.3562 0.0
N531 N 0.14051 0.32489 0.37898 0.0
H532 H 0.14624 0.30477 0.81842 0.0
H533 H 0.15665 0.43523 0.91959 0.0
H534 H 0.12893 0.21547 0.86878 0.0
H535 H 0.12171 0.52163 0.87169 0.0
H536 H 0.15942 0.355 0.90033 0.0
H537 H 0.14994 0.38592 0.83724 0.0
C538 C 0.14356 0.30223 0.83345 0.0
C539 C 0.13713 0.25358 0.84211 0.0
C540 C 0.15136 0.39168 0.89406 0.0
C541 C 0.14176 0.34556 0.86357 0.0
C542 C 0.14992 0.43741 0.90497 0.0
C543 C 0.13877 0.4849 0.89719 0.0
C544 C 0.14223 0.39387 0.87519 0.0
C545 C 0.13023 0.48563 0.87821 0.0
C546 C 0.14553 0.34843 0.84412 0.0
C547 C 0.13371 0.25234 0.86159 0.0
N548 N 0.13222 0.44073 0.8678 0.0
N549 N 0.1362 0.29771 0.87171 0.0
H550 H 0.06589 0.75541 0.89764 0.0
H551 H 0.16583 0.98984 0.85243 0.0
H552 H 0.16695 0.75607 0.89424 0.0
H553 H 0.06751 0.96826 0.83971 0.0
H554 H 0.16507 0.90892 0.87099 0.0
H555 H 0.06446 0.8375 0.8791 0.0
C556 C 0.08772 0.77275 0.89296 0.0
C557 C 0.11658 0.74897 0.89745 0.0
C558 C 0.14362 0.92177 0.86415 0.0
C559 C 0.11513 0.84265 0.87655 0.0
C560 C 0.144 0.96814 0.85361 0.0
C561 C 0.1167 0.9857 0.84447 0.0
C562 C 0.11567 0.89275 0.86574 0.0
C563 C 0.08909 0.95595 0.8465 0.0
C564 C 0.08688 0.81944 0.88239 0.0
C565 C 0.14417 0.77297 0.89106 0.0
N566 N 0.08924 0.91083 0.85697 0.0
N567 N 0.14276 0.81856 0.88104 0.0
H568 H 0.81407 0.21706 0.65044 0.0
H569 H 0.91893 -0.00146 0.59977 0.0
H570 H 0.91376 0.23182 0.64162 0.0
H571 H 0.81845 0.00521 0.59217 0.0
H572 H 0.91659 0.07916 0.61841 0.0
H573 H 0.81425 0.13501 0.6319 0.0
C574 C 0.83592 0.20313 0.64457 0.0
C575 C 0.86394 0.23123 0.64755 0.0
C576 C 0.89501 0.06308 0.61268 0.0
C577 C 0.86437 0.13765 0.62663 0.0
C578 C 0.89631 0.01689 0.6021 0.0
C579 C 0.86884 0.99525 0.59438 0.0
C580 C 0.86599 0.08778 0.61575 0.0
C581 C 0.84019 0.02077 0.59785 0.0
C582 C 0.836 0.15646 0.634 0.0
C583 C 0.8916 0.21151 0.63965 0.0
N584 N 0.83947 0.06577 0.60834 0.0
N585 N 0.89113 0.16588 0.62966 0.0
H586 H 0.89911 0.54835 0.67127 0.0
H587 H 0.90276 0.67891 0.57002 0.0
H588 H 0.87226 0.46095 0.62186 0.0
H589 H 0.87507 0.76726 0.61881 0.0
H590 H 0.90449 0.59795 0.58909 0.0
H591 H 0.90321 0.62896 0.65221 0.0
C592 C 0.89441 0.54607 0.65638 0.0
C593 C 0.8852 0.49815 0.64808 0.0
C594 C 0.89824 0.63521 0.59558 0.0
C595 C 0.89026 0.58956 0.62632 0.0
C596 C 0.8974 0.68131 0.58478 0.0
C597 C 0.88862 0.72961 0.59289 0.0
C598 C 0.89098 0.63785 0.61466 0.0
C599 C 0.88176 0.73065 0.61204 0.0
C600 C 0.89661 0.59199 0.64558 0.0
C601 C 0.87924 0.49728 0.62877 0.0
N602 N 0.88321 0.68542 0.62233 0.0
N603 N 0.88202 0.54235 0.61849 0.0
H604 H 0.91421 0.51643 0.09963 0.0
H605 H 0.8114 0.73715 0.15019 0.0
H606 H 0.81391 0.52647 0.09165 0.0
H607 H 0.91069 0.75292 0.14014 0.0
H608 H 0.81111 0.65552 0.13149 0.0
H609 H 0.91273 0.5982 0.11777 0.0
C610 C 0.89182 0.53575 0.10178 0.0
C611 C 0.86414 0.51473 0.09411 0.0
C612 C 0.83287 0.67713 0.13332 0.0
C613 C 0.86227 0.60839 0.11489 0.0
C614 C 0.83306 0.72358 0.14397 0.0
C615 C 0.86111 0.75177 0.14669 0.0
C616 C 0.86102 0.6585 0.12563 0.0
C617 C 0.88852 0.7325 0.13836 0.0
C618 C 0.89102 0.58258 0.11205 0.0
C619 C 0.8358 0.5415 0.0973 0.0
N620 N 0.88783 0.68689 0.12833 0.0
N621 N 0.83555 0.58696 0.10753 0.0
H622 H 0.82263 0.01644 0.14337 0.0
H623 H 0.92551 0.23866 0.09329 0.0
H624 H 0.92278 0.02792 0.15175 0.0
H625 H 0.82551 0.25098 0.10129 0.0
H626 H 0.92578 0.15744 0.11224 0.0
H627 H 0.82395 0.09795 0.12503 0.0
C628 C 0.84495 0.03606 0.14129 0.0
C629 C 0.87265 0.01546 0.1491 0.0
C630 C 0.90386 0.17817 0.1099 0.0
C631 C 0.87433 0.10886 0.12808 0.0
C632 C 0.90368 0.2244 0.09909 0.0
C633 C 0.87544 0.25153 0.09573 0.0
C634 C 0.87554 0.15871 0.11713 0.0
C635 C 0.84782 0.23138 0.10356 0.0
C636 C 0.84566 0.08274 0.13088 0.0
C637 C 0.90089 0.0426 0.14598 0.0
N638 N 0.84853 0.18605 0.11378 0.0
N639 N 0.90105 0.08791 0.13564 0.0
H640 H 0.65649 0.80218 0.82122 0.0
H641 H 0.64829 0.93412 0.92203 0.0
H642 H 0.62093 0.71713 0.86895 0.0
H643 H 0.62888 0.02294 0.87169 0.0
H644 H 0.65141 0.85283 0.90328 0.0
H645 H 0.65964 0.88273 0.84035 0.0
C646 C 0.64971 0.80036 0.83578 0.0
C647 C 0.6383 0.75316 0.84355 0.0
C648 C 0.64668 0.89026 0.89639 0.0
C649 C 0.64223 0.8445 0.86541 0.0
C650 C 0.64506 0.93654 0.90701 0.0
C651 C 0.63819 0.98509 0.89835 0.0
C652 C 0.64215 0.89294 0.87696 0.0
C653 C 0.63403 0.98615 0.87888 0.0
C654 C 0.65137 0.84626 0.84661 0.0
C655 C 0.62967 0.7529 0.86244 0.0
N656 N 0.63622 0.9407 0.86879 0.0
N657 N 0.63193 0.79792 0.87279 0.0
H658 H 0.56573 0.26539 0.89979 0.0
H659 H 0.66768 0.48616 0.84813 0.0
H660 H 0.66526 0.25265 0.89006 0.0
H661 H 0.56698 0.47846 0.84189 0.0
H662 H 0.66642 0.40501 0.86655 0.0
H663 H 0.56482 0.34734 0.88116 0.0
C664 C 0.58732 0.27972 0.89369 0.0
C665 C 0.61562 0.25225 0.89646 0.0
C666 C 0.64456 0.42094 0.86116 0.0
C667 C 0.6148 0.34576 0.87543 0.0
C668 C 0.64524 0.46745 0.85071 0.0
C669 C 0.61739 0.48901 0.84344 0.0
C670 C 0.61578 0.3958 0.86457 0.0
C671 C 0.589 0.463 0.84722 0.0
C672 C 0.58677 0.32635 0.88307 0.0
C673 C 0.64291 0.27248 0.88827 0.0
N674 N 0.58888 0.41769 0.85758 0.0
N675 N 0.64184 0.31808 0.87823 0.0
H676 H 0.6263 0.22174 0.37288 0.0
H677 H 0.6328 0.53187 0.37209 0.0
H678 H 0.65936 0.3063 0.32441 0.0
H679 H 0.65271 0.44414 0.4226 0.0
H680 H 0.63855 0.45003 0.354 0.0
H681 H 0.63184 0.30293 0.3914 0.0
C682 C 0.63497 0.25734 0.3662 0.0
C683 C 0.64229 0.25756 0.34712 0.0
C684 C 0.64204 0.4489 0.36901 0.0
C685 C 0.64812 0.35035 0.36804 0.0
C686 C 0.63864 0.49541 0.37933 0.0
C687 C 0.64221 0.49451 0.39883 0.0
C688 C 0.64819 0.40105 0.37835 0.0
C689 C 0.64986 0.44639 0.40756 0.0
C690 C 0.63824 0.30346 0.37676 0.0
C691 C 0.65352 0.30458 0.33911 0.0
N692 N 0.65209 0.40127 0.39728 0.0
N693 N 0.65561 0.34945 0.34956 0.0
H694 H 0.61215 0.72133 0.37175 0.0
H695 H 0.61316 0.03165 0.37256 0.0
H696 H 0.58545 0.80786 0.42113 0.0
H697 H 0.58715 0.94562 0.32271 0.0
H698 H 0.60697 0.95016 0.39085 0.0
H699 H 0.60689 0.80288 0.35335 0.0
C700 C 0.60491 0.75745 0.37866 0.0
C701 C 0.59932 0.75811 0.39796 0.0
C702 C 0.60225 0.94935 0.37594 0.0
C703 C 0.59387 0.85129 0.37715 0.0
C704 C 0.60591 0.99565 0.36551 0.0
C705 C 0.60075 0.99511 0.34613 0.0
C706 C 0.5942 0.90202 0.36682 0.0
C707 C 0.59129 0.94758 0.33765 0.0
C708 C 0.6018 0.80379 0.36817 0.0
C709 C 0.58992 0.8058 0.40626 0.0
N710 N 0.5888 0.9026 0.34801 0.0
N711 N 0.58799 0.85082 0.39586 0.0
H712 H 0.41982 0.24043 0.14354 0.0
H713 H 0.31715 0.02165 0.09063 0.0
H714 H 0.31923 0.23149 0.1493 0.0
H715 H 0.41661 0.00657 0.10108 0.0
H716 H 0.31685 0.10297 0.10948 0.0
H717 H 0.41859 0.15949 0.12491 0.0
C718 C 0.39743 0.22151 0.14081 0.0
C719 C 0.36958 0.24261 0.14799 0.0
C720 C 0.33867 0.08164 0.10768 0.0
C721 C 0.368 0.14991 0.12664 0.0
C722 C 0.33886 0.03536 0.09693 0.0
C723 C 0.36694 0.00739 0.09432 0.0
C724 C 0.36683 0.10028 0.1156 0.0
C725 C 0.39442 0.02683 0.10277 0.0
C726 C 0.39676 0.17517 0.13025 0.0
C727 C 0.34124 0.21639 0.14405 0.0
N728 N 0.3937 0.0722 0.11293 0.0
N729 N 0.34114 0.17139 0.13358 0.0
H730 H 0.33008 0.50346 0.13973 0.0
H731 H 0.43037 0.73259 0.09186 0.0
H732 H 0.42924 0.52153 0.1506 0.0
H733 H 0.3302 0.74088 0.09978 0.0
H734 H 0.43156 0.65024 0.11023 0.0
H735 H 0.33083 0.58486 0.12132 0.0
C736 C 0.35208 0.52441 0.13813 0.0
C737 C 0.37964 0.50582 0.14673 0.0
C738 C 0.4094 0.67034 0.10799 0.0
C739 C 0.38064 0.59913 0.12567 0.0
C740 C 0.40869 0.71719 0.09752 0.0
C741 C 0.38014 0.74354 0.09433 0.0
C742 C 0.38129 0.64946 0.115 0.0
C743 C 0.35273 0.72194 0.10194 0.0
C744 C 0.35245 0.57105 0.12771 0.0
C745 C 0.40747 0.53466 0.14423 0.0
N746 N 0.35396 0.67602 0.11181 0.0
N747 N 0.4073 0.57994 0.13386 0.0
H748 H 0.41602 0.75434 0.636 0.0
H749 H 0.31537 0.52099 0.58965 0.0
H750 H 0.31759 0.73241 0.64746 0.0
H751 H 0.41641 0.51977 0.59412 0.0
H752 H 0.31442 0.60413 0.60746 0.0
H753 H 0.41517 0.67455 0.61675 0.0
C754 C 0.39415 0.7329 0.63435 0.0
C755 C 0.36685 0.74983 0.6434 0.0
C756 C 0.33675 0.58551 0.60454 0.0
C757 C 0.36573 0.65838 0.62141 0.0
C758 C 0.33731 0.53821 0.59438 0.0
C759 C 0.36601 0.51347 0.59049 0.0
C760 C 0.36511 0.6084 0.61058 0.0
C761 C 0.39376 0.5374 0.5969 0.0
C762 C 0.39372 0.68722 0.62344 0.0
C763 C 0.33917 0.72053 0.64078 0.0
N764 N 0.39262 0.5836 0.60656 0.0
N765 N 0.3393 0.67611 0.63 0.0
H766 H 0.33065 0.25737 0.60517 0.0
H767 H 0.42993 0.01853 0.64886 0.0
H768 H 0.42728 0.22992 0.59036 0.0
H769 H 0.32882 0.02025 0.64522 0.0
H770 H 0.43128 0.10198 0.63111 0.0
H771 H 0.33162 0.17708 0.62419 0.0
C772 C 0.35218 0.23464 0.60604 0.0
C773 C 0.37889 0.25015 0.59611 0.0
C774 C 0.40886 0.08389 0.6342 0.0
C775 C 0.38013 0.15811 0.61785 0.0
C776 C 0.40807 0.03644 0.64431 0.0
C777 C 0.37922 0.01246 0.64843 0.0
C778 C 0.38059 0.10774 0.62849 0.0
C779 C 0.35158 0.03725 0.64226 0.0
C780 C 0.35265 0.18866 0.61682 0.0
C781 C 0.40614 0.21917 0.59775 0.0
N782 N 0.35294 0.08362 0.63269 0.0
N783 N 0.40608 0.17449 0.60843 0.0
loop_
_geom_bond_atom_site_label_1
_geom_bond_atom_site_label_2
_geom_bond_distance
_geom_bond_site_symmetry_2
_ccdc_geom_bond_type
In0 O1 2.294 . S
In0 O2 2.326 . S
In0 O6 2.266 . S
In0 O7 2.326 . S
In0 O8 2.266 . S
In0 O9 2.326 . S
In0 O11 2.294 . S
In0 O12 2.326 . S
O1 In0 2.294 . S
O1 C10 1.240 . S
O2 In0 2.326 . S
O2 C10 1.252 . S
C3 O6 1.252 . S
C3 O7 1.260 . S
C4 O11 1.240 . S
C4 O12 1.252 . S
C5 O8 1.252 . S
C5 O9 1.260 . S
O6 In0 2.266 . S
O6 C3 1.252 . S
O7 In0 2.326 . S
O7 C3 1.260 . S
O8 In0 2.266 . S
O8 C5 1.252 . S
O9 In0 2.326 . S
O9 C5 1.260 . S
C10 O1 1.240 . S
C10 O2 1.252 . S
O11 In0 2.294 . S
O11 C4 1.240 . S
O12 In0 2.326 . S
O12 C4 1.252 . S
In13 O14 2.294 . S
In13 O15 2.326 . S
In13 O19 2.266 . S
In13 O20 2.326 . S
In13 O21 2.266 . S
In13 O22 2.326 . S
In13 O24 2.294 . S
In13 O25 2.326 . S
O14 In13 2.294 . S
O14 C23 1.240 . S
O15 In13 2.326 . S
O15 C23 1.252 . S
C16 O19 1.252 . S
C16 O20 1.260 . S
C17 O24 1.240 . S
C17 O25 1.252 . S
C18 O21 1.252 . S
C18 O22 1.260 . S
O19 In13 2.266 . S
O19 C16 1.252 . S
O20 In13 2.326 . S
O20 C16 1.260 . S
O21 In13 2.266 . S
O21 C18 1.252 . S
O22 In13 2.326 . S
O22 C18 1.260 . S
C23 O14 1.240 . S
C23 O15 1.252 . S
O24 In13 2.294 . S
O24 C17 1.240 . S
O25 In13 2.326 . S
O25 C17 1.252 . S
In26 O27 2.294 . S
In26 O28 2.326 . S
In26 O32 2.266 . S
In26 O33 2.326 . S
In26 O34 2.266 . S
In26 O35 2.326 . S
In26 O37 2.294 . S
In26 O38 2.326 . S
O27 In26 2.294 . S
O27 C36 1.240 . S
O28 In26 2.326 . S
O28 C36 1.252 . S
C29 O32 1.252 . S
C29 O33 1.260 . S
C30 O37 1.240 . S
C30 O38 1.252 . S
C31 O34 1.252 . S
C31 O35 1.260 . S
O32 In26 2.266 . S
O32 C29 1.252 . S
O33 In26 2.326 . S
O33 C29 1.260 . S
O34 In26 2.266 . S
O34 C31 1.252 . S
O35 In26 2.326 . S
O35 C31 1.260 . S
C36 O27 1.240 . S
C36 O28 1.252 . S
O37 In26 2.294 . S
O37 C30 1.240 . S
O38 In26 2.326 . S
O38 C30 1.252 . S
In39 O40 2.294 . S
In39 O41 2.326 . S
In39 O45 2.266 . S
In39 O46 2.326 . S
In39 O47 2.266 . S
In39 O48 2.326 . S
In39 O50 2.294 . S
In39 O51 2.326 . S
O40 In39 2.294 . S
O40 C49 1.240 . S
O41 In39 2.326 . S
O41 C49 1.252 . S
C42 O45 1.252 . S
C42 O46 1.260 . S
C43 O50 1.240 . S
C43 O51 1.252 . S
C44 O47 1.252 . S
C44 O48 1.260 . S
O45 In39 2.266 . S
O45 C42 1.252 . S
O46 In39 2.326 . S
O46 C42 1.260 . S
O47 In39 2.266 . S
O47 C44 1.252 . S
O48 In39 2.326 . S
O48 C44 1.260 . S
C49 O40 1.240 . S
C49 O41 1.252 . S
O50 In39 2.294 . S
O50 C43 1.240 . S
O51 In39 2.326 . S
O51 C43 1.252 . S
In52 O53 2.294 . S
In52 O54 2.326 . S
In52 O58 2.266 . S
In52 O59 2.326 . S
In52 O60 2.266 . S
In52 O61 2.326 . S
In52 O63 2.294 . S
In52 O64 2.326 . S
O53 In52 2.294 . S
O53 C62 1.240 . S
O54 In52 2.326 . S
O54 C62 1.252 . S
C55 O58 1.252 . S
C55 O59 1.260 . S
C56 O63 1.240 . S
C56 O64 1.252 . S
C57 O60 1.252 . S
C57 O61 1.260 . S
O58 In52 2.266 . S
O58 C55 1.252 . S
O59 In52 2.326 . S
O59 C55 1.260 . S
O60 In52 2.266 . S
O60 C57 1.252 . S
O61 In52 2.326 . S
O61 C57 1.260 . S
C62 O53 1.240 . S
C62 O54 1.252 . S
O63 In52 2.294 . S
O63 C56 1.240 . S
O64 In52 2.326 . S
O64 C56 1.252 . S
In65 O66 2.294 . S
In65 O67 2.326 . S
In65 O71 2.266 . S
In65 O72 2.326 . S
In65 O73 2.266 . S
In65 O74 2.326 . S
In65 O76 2.294 . S
In65 O77 2.326 . S
O66 In65 2.294 . S
O66 C75 1.240 . S
O67 In65 2.326 . S
O67 C75 1.252 . S
C68 O71 1.252 . S
C68 O72 1.260 . S
C69 O76 1.240 . S
C69 O77 1.252 . S
C70 O73 1.252 . S
C70 O74 1.260 . S
O71 In65 2.266 . S
O71 C68 1.252 . S
O72 In65 2.326 . S
O72 C68 1.260 . S
O73 In65 2.266 . S
O73 C70 1.252 . S
O74 In65 2.326 . S
O74 C70 1.260 . S
C75 O66 1.240 . S
C75 O67 1.252 . S
O76 In65 2.294 . S
O76 C69 1.240 . S
O77 In65 2.326 . S
O77 C69 1.252 . S
In78 O79 2.294 . S
In78 O80 2.326 . S
In78 O84 2.266 . S
In78 O85 2.326 . S
In78 O86 2.266 . S
In78 O87 2.326 . S
In78 O89 2.294 . S
In78 O90 2.326 . S
O79 In78 2.294 . S
O79 C88 1.240 . S
O80 In78 2.326 . S
O80 C88 1.252 . S
C81 O84 1.252 . S
C81 O85 1.260 . S
C82 O89 1.240 . S
C82 O90 1.252 . S
C83 O86 1.252 . S
C83 O87 1.260 . S
O84 In78 2.266 . S
O84 C81 1.252 . S
O85 In78 2.326 . S
O85 C81 1.260 . S
O86 In78 2.266 . S
O86 C83 1.252 . S
O87 In78 2.326 . S
O87 C83 1.260 . S
C88 O79 1.240 . S
C88 O80 1.252 . S
O89 In78 2.294 . S
O89 C82 1.240 . S
O90 In78 2.326 . S
O90 C82 1.252 . S
In91 O92 2.294 . S
In91 O93 2.326 . S
In91 O97 2.266 . S
In91 O98 2.326 . S
In91 O99 2.266 . S
In91 O100 2.326 . S
In91 O102 2.294 . S
In91 O103 2.326 . S
O92 In91 2.294 . S
O92 C101 1.240 . S
O93 In91 2.326 . S
O93 C101 1.252 . S
C94 O97 1.252 . S
C94 O98 1.260 . S
C95 O102 1.240 . S
C95 O103 1.252 . S
C96 O99 1.252 . S
C96 O100 1.260 . S
O97 In91 2.266 . S
O97 C94 1.252 . S
O98 In91 2.326 . S
O98 C94 1.260 . S
O99 In91 2.266 . S
O99 C96 1.252 . S
O100 In91 2.326 . S
O100 C96 1.260 . S
C101 O92 1.240 . S
C101 O93 1.252 . S
O102 In91 2.294 . S
O102 C95 1.240 . S
O103 In91 2.326 . S
O103 C95 1.252 . S
In104 O105 2.294 . S
In104 O106 2.326 . S
In104 O110 2.266 . S
In104 O111 2.326 . S
In104 O112 2.266 . S
In104 O113 2.326 . S
In104 O115 2.294 . S
In104 O116 2.326 . S
O105 In104 2.294 . S
O105 C114 1.240 . S
O106 In104 2.326 . S
O106 C114 1.252 . S
C107 O110 1.252 . S
C107 O111 1.260 . S
C108 O115 1.240 . S
C108 O116 1.252 . S
C109 O112 1.252 . S
C109 O113 1.260 . S
O110 In104 2.266 . S
O110 C107 1.252 . S
O111 In104 2.326 . S
O111 C107 1.260 . S
O112 In104 2.266 . S
O112 C109 1.252 . S
O113 In104 2.326 . S
O113 C109 1.260 . S
C114 O105 1.240 . S
C114 O106 1.252 . S
O115 In104 2.294 . S
O115 C108 1.240 . S
O116 In104 2.326 . S
O116 C108 1.252 . S
In117 O118 2.294 . S
In117 O119 2.326 . S
In117 O123 2.266 . S
In117 O124 2.326 . S
In117 O125 2.266 . S
In117 O126 2.326 . S
In117 O128 2.294 . S
In117 O129 2.326 . S
O118 In117 2.294 . S
O118 C127 1.240 . S
O119 In117 2.326 . S
O119 C127 1.252 . S
C120 O123 1.252 . S
C120 O124 1.260 . S
C121 O128 1.240 . S
C121 O129 1.252 . S
C122 O125 1.252 . S
C122 O126 1.260 . S
O123 In117 2.266 . S
O123 C120 1.252 . S
O124 In117 2.326 . S
O124 C120 1.260 . S
O125 In117 2.266 . S
O125 C122 1.252 . S
O126 In117 2.326 . S
O126 C122 1.260 . S
C127 O118 1.240 . S
C127 O119 1.252 . S
O128 In117 2.294 . S
O128 C121 1.240 . S
O129 In117 2.326 . S
O129 C121 1.252 . S
In130 O131 2.294 . S
In130 O132 2.326 . S
In130 O136 2.266 . S
In130 O137 2.326 . S
In130 O138 2.266 . S
In130 O139 2.326 . S
In130 O141 2.294 . S
In130 O142 2.326 . S
O131 In130 2.294 . S
O131 C140 1.240 . S
O132 In130 2.326 . S
O132 C140 1.252 . S
C133 O136 1.252 . S
C133 O137 1.260 . S
C134 O141 1.240 . S
C134 O142 1.252 . S
C135 O138 1.252 . S
C135 O139 1.260 . S
O136 In130 2.266 . S
O136 C133 1.252 . S
O137 In130 2.326 . S
O137 C133 1.260 . S
O138 In130 2.266 . S
O138 C135 1.252 . S
O139 In130 2.326 . S
O139 C135 1.260 . S
C140 O131 1.240 . S
C140 O132 1.252 . S
O141 In130 2.294 . S
O141 C134 1.240 . S
O142 In130 2.326 . S
O142 C134 1.252 . S
In143 O144 2.294 . S
In143 O145 2.326 . S
In143 O149 2.266 . S
In143 O150 2.326 . S
In143 O151 2.266 . S
In143 O152 2.326 . S
In143 O154 2.294 . S
In143 O155 2.326 . S
O144 In143 2.294 . S
O144 C153 1.240 . S
O145 In143 2.326 . S
O145 C153 1.252 . S
C146 O149 1.252 . S
C146 O150 1.260 . S
C147 O154 1.240 . S
C147 O155 1.252 . S
C148 O151 1.252 . S
C148 O152 1.260 . S
O149 In143 2.266 . S
O149 C146 1.252 . S
O150 In143 2.326 . S
O150 C146 1.260 . S
O151 In143 2.266 . S
O151 C148 1.252 . S
O152 In143 2.326 . S
O152 C148 1.260 . S
C153 O144 1.240 . S
C153 O145 1.252 . S
O154 In143 2.294 . S
O154 C147 1.240 . S
O155 In143 2.326 . S
O155 C147 1.252 . S
In156 O157 2.294 . S
In156 O158 2.326 . S
In156 O162 2.266 . S
In156 O163 2.326 . S
In156 O164 2.266 . S
In156 O165 2.326 . S
In156 O167 2.294 . S
In156 O168 2.326 . S
O157 In156 2.294 . S
O157 C166 1.240 . S
O158 In156 2.326 . S
O158 C166 1.252 . S
C159 O162 1.252 . S
C159 O163 1.260 . S
C160 O167 1.240 . S
C160 O168 1.252 . S
C161 O164 1.252 . S
C161 O165 1.260 . S
O162 In156 2.266 . S
O162 C159 1.252 . S
O163 In156 2.326 . S
O163 C159 1.260 . S
O164 In156 2.266 . S
O164 C161 1.252 . S
O165 In156 2.326 . S
O165 C161 1.260 . S
C166 O157 1.240 . S
C166 O158 1.252 . S
O167 In156 2.294 . S
O167 C160 1.240 . S
O168 In156 2.326 . S
O168 C160 1.252 . S
In169 O170 2.294 . S
In169 O171 2.326 . S
In169 O175 2.266 . S
In169 O176 2.326 . S
In169 O177 2.266 . S
In169 O178 2.326 . S
In169 O180 2.294 . S
In169 O181 2.326 . S
O170 In169 2.294 . S
O170 C179 1.240 . S
O171 In169 2.326 . S
O171 C179 1.252 . S
C172 O175 1.252 . S
C172 O176 1.260 . S
C173 O180 1.240 . S
C173 O181 1.252 . S
C174 O177 1.252 . S
C174 O178 1.260 . S
O175 In169 2.266 . S
O175 C172 1.252 . S
O176 In169 2.326 . S
O176 C172 1.260 . S
O177 In169 2.266 . S
O177 C174 1.252 . S
O178 In169 2.326 . S
O178 C174 1.260 . S
C179 O170 1.240 . S
C179 O171 1.252 . S
O180 In169 2.294 . S
O180 C173 1.240 . S
O181 In169 2.326 . S
O181 C173 1.252 . S
In182 O183 2.294 . S
In182 O184 2.326 . S
In182 O188 2.266 . S
In182 O189 2.326 . S
In182 O190 2.266 . S
In182 O191 2.326 . S
In182 O193 2.294 . S
In182 O194 2.326 . S
O183 In182 2.294 . S
O183 C192 1.240 . S
O184 In182 2.326 . S
O184 C192 1.252 . S
C185 O188 1.252 . S
C185 O189 1.260 . S
C186 O193 1.240 . S
C186 O194 1.252 . S
C187 O190 1.252 . S
C187 O191 1.260 . S
O188 In182 2.266 . S
O188 C185 1.252 . S
O189 In182 2.326 . S
O189 C185 1.260 . S
O190 In182 2.266 . S
O190 C187 1.252 . S
O191 In182 2.326 . S
O191 C187 1.260 . S
C192 O183 1.240 . S
C192 O184 1.252 . S
O193 In182 2.294 . S
O193 C186 1.240 . S
O194 In182 2.326 . S
O194 C186 1.252 . S
In195 O196 2.294 . S
In195 O197 2.326 . S
In195 O201 2.266 . S
In195 O202 2.326 . S
In195 O203 2.266 . S
In195 O204 2.326 . S
In195 O206 2.294 . S
In195 O207 2.326 . S
O196 In195 2.294 . S
O196 C205 1.240 . S
O197 In195 2.326 . S
O197 C205 1.252 . S
C198 O201 1.252 . S
C198 O202 1.260 . S
C199 O206 1.240 . S
C199 O207 1.252 . S
C200 O203 1.252 . S
C200 O204 1.260 . S
O201 In195 2.266 . S
O201 C198 1.252 . S
O202 In195 2.326 . S
O202 C198 1.260 . S
O203 In195 2.266 . S
O203 C200 1.252 . S
O204 In195 2.326 . S
O204 C200 1.260 . S
C205 O196 1.240 . S
C205 O197 1.252 . S
O206 In195 2.294 . S
O206 C199 1.240 . S
O207 In195 2.326 . S
O207 C199 1.252 . S
H208 C214 0.930 . S
H209 C218 0.930 . S
H210 C223 0.929 . S
H211 C221 0.929 . S
H212 C216 0.929 . S
H213 C222 0.929 . S
C214 H208 0.930 . S
C214 C215 1.367 . S
C214 C222 1.378 . S
C215 C214 1.367 . S
C215 C223 1.433 . S
C216 H212 0.929 . S
C216 C218 1.378 . S
C216 C220 1.350 . S
C217 C220 1.463 . S
C217 C222 1.350 . S
C217 N225 1.427 . S
C218 H209 0.930 . S
C218 C216 1.378 . S
C218 C219 1.367 . S
C219 C218 1.367 . S
C219 C221 1.433 . S
C220 C216 1.350 . S
C220 C217 1.463 . S
C220 N224 1.427 . S
C221 H211 0.929 . S
C221 C219 1.433 . S
C221 N224 1.384 . S
C222 H213 0.929 . S
C222 C214 1.378 . S
C222 C217 1.350 . S
C223 H210 0.929 . S
C223 C215 1.433 . S
C223 N225 1.384 . S
N224 C220 1.427 . S
N224 C221 1.384 . S
N225 C217 1.427 . S
N225 C223 1.384 . S
H226 C232 0.930 . S
H227 C236 0.930 . S
H228 C241 0.929 . S
H229 C239 0.929 . S
H230 C234 0.929 1_655 S
H231 C240 0.929 1_455 S
C232 H226 0.930 . S
C232 C233 1.367 . S
C232 C240 1.378 . S
C233 C232 1.367 . S
C233 C241 1.433 . S
C234 H230 0.929 1_455 S
C234 C236 1.378 . S
C234 C238 1.350 . S
C235 C238 1.463 1_665 S
C235 C240 1.350 . S
C235 N243 1.427 . S
C236 H227 0.930 . S
C236 C234 1.378 . S
C236 C237 1.367 . S
C237 C236 1.367 . S
C237 C239 1.433 . S
C238 C234 1.350 . S
C238 C235 1.463 1_445 S
C238 N242 1.427 . S
C239 H229 0.929 . S
C239 C237 1.433 . S
C239 N242 1.384 . S
C240 H231 0.929 1_655 S
C240 C232 1.378 . S
C240 C235 1.350 . S
C241 H228 0.929 . S
C241 C233 1.433 . S
C241 N243 1.384 . S
N242 C238 1.427 . S
N242 C239 1.384 . S
N243 C235 1.427 . S
N243 C241 1.384 . S
H244 C250 0.930 . S
H245 C254 0.930 . S
H246 C259 0.929 1_545 S
H247 C257 0.929 1_565 S
H248 C252 0.929 . S
H249 C258 0.929 . S
C250 H244 0.930 . S
C250 C251 1.367 . S
C250 C258 1.378 . S
C251 C250 1.367 . S
C251 C259 1.433 . S
C252 H248 0.929 . S
C252 C254 1.378 . S
C252 C256 1.350 . S
C253 C256 1.463 1_565 S
C253 C258 1.350 . S
C253 N261 1.427 1_565 S
C254 H245 0.930 . S
C254 C252 1.378 . S
C254 C255 1.367 . S
C255 C254 1.367 . S
C255 C257 1.433 . S
C256 C252 1.350 . S
C256 C253 1.463 1_545 S
C256 N260 1.427 1_545 S
C257 H247 0.929 1_545 S
C257 C255 1.433 . S
C257 N260 1.384 1_545 S
C258 H249 0.929 . S
C258 C250 1.378 . S
C258 C253 1.350 . S
C259 H246 0.929 1_565 S
C259 C251 1.433 . S
C259 N261 1.384 1_565 S
N260 C256 1.427 1_565 S
N260 C257 1.384 1_565 S
N261 C253 1.427 1_545 S
N261 C259 1.384 1_545 S
H262 C268 0.930 . S
H263 C272 0.930 . S
H264 C277 0.929 . S
H265 C275 0.929 . S
H266 C270 0.929 . S
H267 C276 0.929 . S
C268 H262 0.930 . S
C268 C269 1.367 . S
C268 C276 1.378 . S
C269 C268 1.367 . S
C269 C277 1.433 . S
C270 H266 0.929 . S
C270 C272 1.378 . S
C270 C274 1.350 . S
C271 C274 1.463 1_455 S
C271 C276 1.350 . S
C271 N279 1.427 . S
C272 H263 0.930 . S
C272 C270 1.378 . S
C272 C273 1.367 . S
C273 C272 1.367 . S
C273 C275 1.433 . S
C274 C270 1.350 . S
C274 C271 1.463 1_655 S
C274 N278 1.427 . S
C275 H265 0.929 . S
C275 C273 1.433 . S
C275 N278 1.384 . S
C276 H267 0.929 . S
C276 C268 1.378 . S
C276 C271 1.350 . S
C277 H264 0.929 . S
C277 C269 1.433 . S
C277 N279 1.384 . S
N278 C274 1.427 . S
N278 C275 1.384 . S
N279 C271 1.427 . S
N279 C277 1.384 . S
H280 C286 0.930 . S
H281 C290 0.930 . S
H282 C295 0.929 . S
H283 C293 0.929 . S
H284 C288 0.929 . S
H285 C294 0.929 . S
C286 H280 0.930 . S
C286 C287 1.367 . S
C286 C294 1.378 . S
C287 C286 1.367 . S
C287 C295 1.433 . S
C288 H284 0.929 . S
C288 C290 1.378 . S
C288 C292 1.350 . S
C289 C292 1.463 . S
C289 C294 1.350 . S
C289 N297 1.427 . S
C290 H281 0.930 . S
C290 C288 1.378 . S
C290 C291 1.367 . S
C291 C290 1.367 . S
C291 C293 1.433 . S
C292 C288 1.350 . S
C292 C289 1.463 . S
C292 N296 1.427 . S
C293 H283 0.929 . S
C293 C291 1.433 . S
C293 N296 1.384 . S
C294 H285 0.929 . S
C294 C286 1.378 . S
C294 C289 1.350 . S
C295 H282 0.929 . S
C295 C287 1.433 . S
C295 N297 1.384 . S
N296 C292 1.427 . S
N296 C293 1.384 . S
N297 C289 1.427 . S
N297 C295 1.384 . S
H298 C304 0.930 . S
H299 C308 0.930 . S
H300 C313 0.929 . S
H301 C311 0.929 . S
H302 C306 0.929 . S
H303 C312 0.929 . S
C304 H298 0.930 . S
C304 C305 1.367 . S
C304 C312 1.378 . S
C305 C304 1.367 . S
C305 C313 1.433 . S
C306 H302 0.929 . S
C306 C308 1.378 . S
C306 C310 1.350 . S
C307 C310 1.463 1_545 S
C307 C312 1.350 . S
C307 N315 1.427 . S
C308 H299 0.930 . S
C308 C306 1.378 . S
C308 C309 1.367 . S
C309 C308 1.367 . S
C309 C311 1.433 . S
C310 C306 1.350 . S
C310 C307 1.463 1_565 S
C310 N314 1.427 . S
C311 H301 0.929 . S
C311 C309 1.433 . S
C311 N314 1.384 . S
C312 H303 0.929 . S
C312 C304 1.378 . S
C312 C307 1.350 . S
C313 H300 0.929 . S
C313 C305 1.433 . S
C313 N315 1.384 . S
N314 C310 1.427 . S
N314 C311 1.384 . S
N315 C307 1.427 . S
N315 C313 1.384 . S
H316 C322 0.930 . S
H317 C326 0.930 . S
H318 C331 0.929 . S
H319 C329 0.929 . S
H320 C324 0.929 . S
H321 C330 0.929 . S
C322 H316 0.930 . S
C322 C323 1.367 . S
C322 C330 1.378 . S
C323 C322 1.367 . S
C323 C331 1.433 . S
C324 H320 0.929 . S
C324 C326 1.378 . S
C324 C328 1.350 . S
C325 C328 1.463 1_655 S
C325 C330 1.350 . S
C325 N333 1.427 . S
C326 H317 0.930 . S
C326 C324 1.378 . S
C326 C327 1.367 . S
C327 C326 1.367 . S
C327 C329 1.433 . S
C328 C324 1.350 . S
C328 C325 1.463 1_455 S
C328 N332 1.427 . S
C329 H319 0.929 . S
C329 C327 1.433 . S
C329 N332 1.384 . S
C330 H321 0.929 . S
C330 C322 1.378 . S
C330 C325 1.350 . S
C331 H318 0.929 . S
C331 C323 1.433 . S
C331 N333 1.384 . S
N332 C328 1.427 . S
N332 C329 1.384 . S
N333 C325 1.427 . S
N333 C331 1.384 . S
H334 C340 0.930 . S
H335 C344 0.930 . S
H336 C349 0.929 . S
H337 C347 0.929 . S
H338 C342 0.929 . S
H339 C348 0.929 . S
C340 H334 0.930 . S
C340 C341 1.367 . S
C340 C348 1.378 1_554 S
C341 C340 1.367 . S
C341 C349 1.433 . S
C342 H338 0.929 . S
C342 C344 1.378 1_554 S
C342 C346 1.350 1_554 S
C343 C346 1.463 1_554 S
C343 C348 1.350 1_554 S
C343 N351 1.427 . S
C344 H335 0.930 . S
C344 C342 1.378 1_556 S
C344 C345 1.367 . S
C345 C344 1.367 . S
C345 C347 1.433 . S
C346 C342 1.350 1_556 S
C346 C343 1.463 1_556 S
C346 N350 1.427 . S
C347 H337 0.929 . S
C347 C345 1.433 . S
C347 N350 1.384 . S
C348 H339 0.929 . S
C348 C340 1.378 1_556 S
C348 C343 1.350 1_556 S
C349 H336 0.929 . S
C349 C341 1.433 . S
C349 N351 1.384 . S
N350 C346 1.427 . S
N350 C347 1.384 . S
N351 C343 1.427 . S
N351 C349 1.384 . S
H352 C358 0.930 . S
H353 C362 0.930 . S
H354 C367 0.929 . S
H355 C365 0.929 . S
H356 C360 0.929 . S
H357 C366 0.929 . S
C358 H352 0.930 . S
C358 C359 1.367 . S
C358 C366 1.378 . S
C359 C358 1.367 . S
C359 C367 1.433 . S
C360 H356 0.929 . S
C360 C362 1.378 . S
C360 C364 1.350 . S
C361 C364 1.463 1_456 S
C361 C366 1.350 . S
C361 N369 1.427 . S
C362 H353 0.930 . S
C362 C360 1.378 . S
C362 C363 1.367 . S
C363 C362 1.367 . S
C363 C365 1.433 . S
C364 C360 1.350 . S
C364 C361 1.463 1_654 S
C364 N368 1.427 . S
C365 H355 0.929 . S
C365 C363 1.433 . S
C365 N368 1.384 . S
C366 H357 0.929 . S
C366 C358 1.378 . S
C366 C361 1.350 . S
C367 H354 0.929 . S
C367 C359 1.433 . S
C367 N369 1.384 . S
N368 C364 1.427 . S
N368 C365 1.384 . S
N369 C361 1.427 . S
N369 C367 1.384 . S
H370 C376 0.930 . S
H371 C380 0.930 . S
H372 C385 0.929 . S
H373 C383 0.929 . S
H374 C378 0.929 . S
H375 C384 0.929 . S
C376 H370 0.930 . S
C376 C377 1.367 . S
C376 C384 1.378 . S
C377 C376 1.367 . S
C377 C385 1.433 . S
C378 H374 0.929 . S
C378 C380 1.378 . S
C378 C382 1.350 . S
C379 C382 1.463 . S
C379 C384 1.350 . S
C379 N387 1.427 . S
C380 H371 0.930 . S
C380 C378 1.378 . S
C380 C381 1.367 . S
C381 C380 1.367 . S
C381 C383 1.433 . S
C382 C378 1.350 . S
C382 C379 1.463 . S
C382 N386 1.427 . S
C383 H373 0.929 . S
C383 C381 1.433 . S
C383 N386 1.384 . S
C384 H375 0.929 . S
C384 C376 1.378 . S
C384 C379 1.350 . S
C385 H372 0.929 . S
C385 C377 1.433 . S
C385 N387 1.384 . S
N386 C382 1.427 . S
N386 C383 1.384 . S
N387 C379 1.427 . S
N387 C385 1.384 . S
H388 C394 0.930 . S
H389 C398 0.930 . S
H390 C403 0.929 . S
H391 C401 0.929 . S
H392 C396 0.929 1_556 S
H393 C402 0.929 1_554 S
C394 H388 0.930 . S
C394 C395 1.367 . S
C394 C402 1.378 . S
C395 C394 1.367 . S
C395 C403 1.433 . S
C396 H392 0.929 1_554 S
C396 C398 1.378 . S
C396 C400 1.350 . S
C397 C400 1.463 1_556 S
C397 C402 1.350 . S
C397 N405 1.427 . S
C398 H389 0.930 . S
C398 C396 1.378 . S
C398 C399 1.367 . S
C399 C398 1.367 . S
C399 C401 1.433 . S
C400 C396 1.350 . S
C400 C397 1.463 1_554 S
C400 N404 1.427 . S
C401 H391 0.929 . S
C401 C399 1.433 . S
C401 N404 1.384 . S
C402 H393 0.929 1_556 S
C402 C394 1.378 . S
C402 C397 1.350 . S
C403 H390 0.929 . S
C403 C395 1.433 . S
C403 N405 1.384 . S
N404 C400 1.427 . S
N404 C401 1.384 . S
N405 C397 1.427 . S
N405 C403 1.384 . S
H406 C412 0.930 . S
H407 C416 0.930 . S
H408 C421 0.929 . S
H409 C419 0.929 . S
H410 C414 0.929 . S
H411 C420 0.929 . S
C412 H406 0.930 . S
C412 C413 1.367 . S
C412 C420 1.378 . S
C413 C412 1.367 . S
C413 C421 1.433 . S
C414 H410 0.929 . S
C414 C416 1.378 . S
C414 C418 1.350 . S
C415 C418 1.463 . S
C415 C420 1.350 . S
C415 N423 1.427 . S
C416 H407 0.930 . S
C416 C414 1.378 . S
C416 C417 1.367 . S
C417 C416 1.367 . S
C417 C419 1.433 . S
C418 C414 1.350 . S
C418 C415 1.463 . S
C418 N422 1.427 . S
C419 H409 0.929 . S
C419 C417 1.433 . S
C419 N422 1.384 . S
C420 H411 0.929 . S
C420 C412 1.378 . S
C420 C415 1.350 . S
C421 H408 0.929 . S
C421 C413 1.433 . S
C421 N423 1.384 . S
N422 C418 1.427 . S
N422 C419 1.384 . S
N423 C415 1.427 . S
N423 C421 1.384 . S
H424 C430 0.930 . S
H425 C434 0.930 . S
H426 C439 0.929 . S
H427 C437 0.929 . S
H428 C432 0.926 1_545 S
H429 C438 0.926 1_565 S
C430 H424 0.930 . S
C430 C431 1.367 . S
C430 C438 1.380 . S
C431 C430 1.367 . S
C431 C439 1.433 . S
C432 H428 0.926 1_565 S
C432 C434 1.380 . S
C432 C436 1.351 . S
C433 C436 1.463 1_546 S
C433 C438 1.351 . S
C433 N441 1.427 1_556 S
C434 H425 0.930 . S
C434 C432 1.380 . S
C434 C435 1.367 . S
C435 C434 1.367 . S
C435 C437 1.433 . S
C436 C432 1.351 . S
C436 C433 1.463 1_564 S
C436 N440 1.427 1_554 S
C437 H427 0.929 . S
C437 C435 1.433 . S
C437 N440 1.384 1_554 S
C438 H429 0.926 1_545 S
C438 C430 1.380 . S
C438 C433 1.351 . S
C439 H426 0.929 . S
C439 C431 1.433 . S
C439 N441 1.384 1_556 S
N440 C436 1.427 1_556 S
N440 C437 1.384 1_556 S
N441 C433 1.427 1_554 S
N441 C439 1.384 1_554 S
H442 C448 0.930 . S
H443 C452 0.930 . S
H444 C457 0.929 . S
H445 C455 0.929 . S
H446 C450 0.929 . S
H447 C456 0.929 . S
C448 H442 0.930 . S
C448 C449 1.367 . S
C448 C456 1.378 . S
C449 C448 1.367 . S
C449 C457 1.433 . S
C450 H446 0.929 . S
C450 C452 1.378 . S
C450 C454 1.350 . S
C451 C454 1.463 . S
C451 C456 1.350 . S
C451 N459 1.427 . S
C452 H443 0.930 . S
C452 C450 1.378 . S
C452 C453 1.367 . S
C453 C452 1.367 . S
C453 C455 1.433 . S
C454 C450 1.350 . S
C454 C451 1.463 . S
C454 N458 1.427 . S
C455 H445 0.929 . S
C455 C453 1.433 . S
C455 N458 1.384 . S
C456 H447 0.929 . S
C456 C448 1.378 . S
C456 C451 1.350 . S
C457 H444 0.929 . S
C457 C449 1.433 . S
C457 N459 1.384 . S
N458 C454 1.427 . S
N458 C455 1.384 . S
N459 C451 1.427 . S
N459 C457 1.384 . S
H460 C466 0.930 . S
H461 C470 0.930 . S
H462 C475 0.929 . S
H463 C473 0.929 . S
H464 C468 0.929 . S
H465 C474 0.929 . S
C466 H460 0.930 . S
C466 C467 1.367 . S
C466 C474 1.378 . S
C467 C466 1.367 . S
C467 C475 1.433 . S
C468 H464 0.929 . S
C468 C470 1.378 . S
C468 C472 1.350 . S
C469 C472 1.463 . S
C469 C474 1.350 . S
C469 N477 1.427 . S
C470 H461 0.930 . S
C470 C468 1.378 . S
C470 C471 1.367 . S
C471 C470 1.367 . S
C471 C473 1.433 . S
C472 C468 1.350 . S
C472 C469 1.463 . S
C472 N476 1.427 . S
C473 H463 0.929 . S
C473 C471 1.433 . S
C473 N476 1.384 . S
C474 H465 0.929 . S
C474 C466 1.378 . S
C474 C469 1.350 . S
C475 H462 0.929 . S
C475 C467 1.433 . S
C475 N477 1.384 . S
N476 C472 1.427 . S
N476 C473 1.384 . S
N477 C469 1.427 . S
N477 C475 1.384 . S
H478 C484 0.930 . S
H479 C488 0.930 . S
H480 C493 0.929 . S
H481 C491 0.929 . S
H482 C486 0.929 . S
H483 C492 0.929 . S
C484 H478 0.930 . S
C484 C485 1.367 . S
C484 C492 1.378 . S
C485 C484 1.367 . S
C485 C493 1.433 . S
C486 H482 0.929 . S
C486 C488 1.378 . S
C486 C490 1.350 . S
C487 C490 1.463 . S
C487 C492 1.350 . S
C487 N495 1.427 . S
C488 H479 0.930 . S
C488 C486 1.378 . S
C488 C489 1.367 . S
C489 C488 1.367 . S
C489 C491 1.433 . S
C490 C486 1.350 . S
C490 C487 1.463 . S
C490 N494 1.427 . S
C491 H481 0.929 . S
C491 C489 1.433 . S
C491 N494 1.384 . S
C492 H483 0.929 . S
C492 C484 1.378 . S
C492 C487 1.350 . S
C493 H480 0.929 . S
C493 C485 1.433 . S
C493 N495 1.384 . S
N494 C490 1.427 . S
N494 C491 1.384 . S
N495 C487 1.427 . S
N495 C493 1.384 . S
H496 C502 0.930 . S
H497 C506 0.930 . S
H498 C511 0.929 . S
H499 C509 0.929 1_545 S
H500 C504 0.929 . S
H501 C510 0.929 . S
C502 H496 0.930 . S
C502 C503 1.367 . S
C502 C510 1.378 . S
C503 C502 1.367 . S
C503 C511 1.433 . S
C504 H500 0.929 . S
C504 C506 1.378 . S
C504 C508 1.350 . S
C505 C508 1.463 . S
C505 C510 1.350 . S
C505 N513 1.427 . S
C506 H497 0.930 . S
C506 C504 1.378 . S
C506 C507 1.367 . S
C507 C506 1.367 . S
C507 C509 1.433 . S
C508 C504 1.350 . S
C508 C505 1.463 . S
C508 N512 1.427 . S
C509 H499 0.929 1_565 S
C509 C507 1.433 . S
C509 N512 1.384 . S
C510 H501 0.929 . S
C510 C502 1.378 . S
C510 C505 1.350 . S
C511 H498 0.929 . S
C511 C503 1.433 . S
C511 N513 1.384 . S
N512 C508 1.427 . S
N512 C509 1.384 . S
N513 C505 1.427 . S
N513 C511 1.384 . S
H514 C520 0.930 . S
H515 C524 0.930 . S
H516 C529 0.929 . S
H517 C527 0.929 . S
H518 C522 0.929 . S
H519 C528 0.929 . S
C520 H514 0.930 . S
C520 C521 1.367 . S
C520 C528 1.378 . S
C521 C520 1.367 . S
C521 C529 1.433 . S
C522 H518 0.929 . S
C522 C524 1.378 . S
C522 C526 1.350 . S
C523 C526 1.463 . S
C523 C528 1.350 . S
C523 N531 1.427 . S
C524 H515 0.930 . S
C524 C522 1.378 . S
C524 C525 1.367 . S
C525 C524 1.367 . S
C525 C527 1.433 . S
C526 C522 1.350 . S
C526 C523 1.463 . S
C526 N530 1.427 . S
C527 H517 0.929 . S
C527 C525 1.433 . S
C527 N530 1.384 . S
C528 H519 0.929 . S
C528 C520 1.378 . S
C528 C523 1.350 . S
C529 H516 0.929 . S
C529 C521 1.433 . S
C529 N531 1.384 . S
N530 C526 1.427 . S
N530 C527 1.384 . S
N531 C523 1.427 . S
N531 C529 1.384 . S
H532 C538 0.930 . S
H533 C542 0.930 . S
H534 C547 0.929 . S
H535 C545 0.929 . S
H536 C540 0.929 . S
H537 C546 0.929 . S
C538 H532 0.930 . S
C538 C539 1.367 . S
C538 C546 1.378 . S
C539 C538 1.367 . S
C539 C547 1.433 . S
C540 H536 0.929 . S
C540 C542 1.378 . S
C540 C544 1.350 . S
C541 C544 1.463 . S
C541 C546 1.350 . S
C541 N549 1.427 . S
C542 H533 0.930 . S
C542 C540 1.378 . S
C542 C543 1.367 . S
C543 C542 1.367 . S
C543 C545 1.433 . S
C544 C540 1.350 . S
C544 C541 1.463 . S
C544 N548 1.427 . S
C545 H535 0.929 . S
C545 C543 1.433 . S
C545 N548 1.384 . S
C546 H537 0.929 . S
C546 C538 1.378 . S
C546 C541 1.350 . S
C547 H534 0.929 . S
C547 C539 1.433 . S
C547 N549 1.384 . S
N548 C544 1.427 . S
N548 C545 1.384 . S
N549 C541 1.427 . S
N549 C547 1.384 . S
H550 C556 0.930 . S
H551 C560 0.930 1_545 S
H552 C565 0.929 . S
H553 C563 0.929 . S
H554 C558 0.929 . S
H555 C564 0.929 . S
C556 H550 0.930 . S
C556 C557 1.367 . S
C556 C564 1.378 . S
C557 C556 1.367 . S
C557 C565 1.433 . S
C558 H554 0.929 . S
C558 C560 1.378 . S
C558 C562 1.350 . S
C559 C562 1.463 . S
C559 C564 1.350 . S
C559 N567 1.427 . S
C560 H551 0.930 1_565 S
C560 C558 1.378 . S
C560 C561 1.367 . S
C561 C560 1.367 . S
C561 C563 1.433 . S
C562 C558 1.350 . S
C562 C559 1.463 . S
C562 N566 1.427 . S
C563 H553 0.929 . S
C563 C561 1.433 . S
C563 N566 1.384 . S
C564 H555 0.929 . S
C564 C556 1.378 . S
C564 C559 1.350 . S
C565 H552 0.929 . S
C565 C557 1.433 . S
C565 N567 1.384 . S
N566 C562 1.427 . S
N566 C563 1.384 . S
N567 C559 1.427 . S
N567 C565 1.384 . S
H568 C574 0.930 . S
H569 C578 0.930 . S
H570 C583 0.929 . S
H571 C581 0.929 1_565 S
H572 C576 0.929 . S
H573 C582 0.929 . S
C574 H568 0.930 . S
C574 C575 1.367 . S
C574 C582 1.378 . S
C575 C574 1.367 . S
C575 C583 1.433 . S
C576 H572 0.929 . S
C576 C578 1.378 . S
C576 C580 1.350 . S
C577 C580 1.463 . S
C577 C582 1.350 . S
C577 N585 1.427 . S
C578 H569 0.930 . S
C578 C576 1.378 . S
C578 C579 1.367 . S
C579 C578 1.367 . S
C579 C581 1.433 . S
C580 C576 1.350 . S
C580 C577 1.463 . S
C580 N584 1.427 . S
C581 H571 0.929 1_545 S
C581 C579 1.433 . S
C581 N584 1.384 . S
C582 H573 0.929 . S
C582 C574 1.378 . S
C582 C577 1.350 . S
C583 H570 0.929 . S
C583 C575 1.433 . S
C583 N585 1.384 . S
N584 C580 1.427 . S
N584 C581 1.384 . S
N585 C577 1.427 . S
N585 C583 1.384 . S
H586 C592 0.930 . S
H587 C596 0.930 . S
H588 C601 0.929 . S
H589 C599 0.929 . S
H590 C594 0.929 . S
H591 C600 0.929 . S
C592 H586 0.930 . S
C592 C593 1.367 . S
C592 C600 1.378 . S
C593 C592 1.367 . S
C593 C601 1.433 . S
C594 H590 0.929 . S
C594 C596 1.378 . S
C594 C598 1.350 . S
C595 C598 1.463 . S
C595 C600 1.350 . S
C595 N603 1.427 . S
C596 H587 0.930 . S
C596 C594 1.378 . S
C596 C597 1.367 . S
C597 C596 1.367 . S
C597 C599 1.433 . S
C598 C594 1.350 . S
C598 C595 1.463 . S
C598 N602 1.427 . S
C599 H589 0.929 . S
C599 C597 1.433 . S
C599 N602 1.384 . S
C600 H591 0.929 . S
C600 C592 1.378 . S
C600 C595 1.350 . S
C601 H588 0.929 . S
C601 C593 1.433 . S
C601 N603 1.384 . S
N602 C598 1.427 . S
N602 C599 1.384 . S
N603 C595 1.427 . S
N603 C601 1.384 . S
H604 C610 0.930 . S
H605 C614 0.930 . S
H606 C619 0.929 . S
H607 C617 0.929 . S
H608 C612 0.929 . S
H609 C618 0.929 . S
C610 H604 0.930 . S
C610 C611 1.367 . S
C610 C618 1.378 . S
C611 C610 1.367 . S
C611 C619 1.433 . S
C612 H608 0.929 . S
C612 C614 1.378 . S
C612 C616 1.350 . S
C613 C616 1.463 . S
C613 C618 1.350 . S
C613 N621 1.427 . S
C614 H605 0.930 . S
C614 C612 1.378 . S
C614 C615 1.367 . S
C615 C614 1.367 . S
C615 C617 1.433 . S
C616 C612 1.350 . S
C616 C613 1.463 . S
C616 N620 1.427 . S
C617 H607 0.929 . S
C617 C615 1.433 . S
C617 N620 1.384 . S
C618 H609 0.929 . S
C618 C610 1.378 . S
C618 C613 1.350 . S
C619 H606 0.929 . S
C619 C611 1.433 . S
C619 N621 1.384 . S
N620 C616 1.427 . S
N620 C617 1.384 . S
N621 C613 1.427 . S
N621 C619 1.384 . S
H622 C628 0.930 1_565 S
H623 C632 0.930 . S
H624 C637 0.929 . S
H625 C635 0.929 . S
H626 C630 0.929 . S
H627 C636 0.929 . S
C628 H622 0.930 1_545 S
C628 C629 1.367 . S
C628 C636 1.378 . S
C629 C628 1.367 . S
C629 C637 1.433 . S
C630 H626 0.929 . S
C630 C632 1.378 . S
C630 C634 1.350 . S
C631 C634 1.463 . S
C631 C636 1.350 . S
C631 N639 1.427 . S
C632 H623 0.930 . S
C632 C630 1.378 . S
C632 C633 1.367 . S
C633 C632 1.367 . S
C633 C635 1.433 . S
C634 C630 1.350 . S
C634 C631 1.463 . S
C634 N638 1.427 . S
C635 H625 0.929 . S
C635 C633 1.433 . S
C635 N638 1.384 . S
C636 H627 0.929 . S
C636 C628 1.378 . S
C636 C631 1.350 . S
C637 H624 0.929 . S
C637 C629 1.433 . S
C637 N639 1.384 . S
N638 C634 1.427 . S
N638 C635 1.384 . S
N639 C631 1.427 . S
N639 C637 1.384 . S
H640 C646 0.930 . S
H641 C650 0.930 . S
H642 C655 0.929 . S
H643 C653 0.929 1_545 S
H644 C648 0.929 . S
H645 C654 0.929 . S
C646 H640 0.930 . S
C646 C647 1.367 . S
C646 C654 1.378 . S
C647 C646 1.367 . S
C647 C655 1.433 . S
C648 H644 0.929 . S
C648 C650 1.378 . S
C648 C652 1.350 . S
C649 C652 1.463 . S
C649 C654 1.350 . S
C649 N657 1.427 . S
C650 H641 0.930 . S
C650 C648 1.378 . S
C650 C651 1.367 . S
C651 C650 1.367 . S
C651 C653 1.433 . S
C652 C648 1.350 . S
C652 C649 1.463 . S
C652 N656 1.427 . S
C653 H643 0.929 1_565 S
C653 C651 1.433 . S
C653 N656 1.384 . S
C654 H645 0.929 . S
C654 C646 1.378 . S
C654 C649 1.350 . S
C655 H642 0.929 . S
C655 C647 1.433 . S
C655 N657 1.384 . S
N656 C652 1.427 . S
N656 C653 1.384 . S
N657 C649 1.427 . S
N657 C655 1.384 . S
H658 C664 0.930 . S
H659 C668 0.930 . S
H660 C673 0.929 . S
H661 C671 0.929 . S
H662 C666 0.929 . S
H663 C672 0.929 . S
C664 H658 0.930 . S
C664 C665 1.367 . S
C664 C672 1.378 . S
C665 C664 1.367 . S
C665 C673 1.433 . S
C666 H662 0.929 . S
C666 C668 1.378 . S
C666 C670 1.350 . S
C667 C670 1.463 . S
C667 C672 1.350 . S
C667 N675 1.427 . S
C668 H659 0.930 . S
C668 C666 1.378 . S
C668 C669 1.367 . S
C669 C668 1.367 . S
C669 C671 1.433 . S
C670 C666 1.350 . S
C670 C667 1.463 . S
C670 N674 1.427 . S
C671 H661 0.929 . S
C671 C669 1.433 . S
C671 N674 1.384 . S
C672 H663 0.929 . S
C672 C664 1.378 . S
C672 C667 1.350 . S
C673 H660 0.929 . S
C673 C665 1.433 . S
C673 N675 1.384 . S
N674 C670 1.427 . S
N674 C671 1.384 . S
N675 C667 1.427 . S
N675 C673 1.384 . S
H676 C682 0.930 . S
H677 C686 0.930 . S
H678 C691 0.929 . S
H679 C689 0.929 . S
H680 C684 0.929 . S
H681 C690 0.929 . S
C682 H676 0.930 . S
C682 C683 1.367 . S
C682 C690 1.378 . S
C683 C682 1.367 . S
C683 C691 1.433 . S
C684 H680 0.929 . S
C684 C686 1.378 . S
C684 C688 1.350 . S
C685 C688 1.463 . S
C685 C690 1.350 . S
C685 N693 1.427 . S
C686 H677 0.930 . S
C686 C684 1.378 . S
C686 C687 1.367 . S
C687 C686 1.367 . S
C687 C689 1.433 . S
C688 C684 1.350 . S
C688 C685 1.463 . S
C688 N692 1.427 . S
C689 H679 0.929 . S
C689 C687 1.433 . S
C689 N692 1.384 . S
C690 H681 0.929 . S
C690 C682 1.378 . S
C690 C685 1.350 . S
C691 H678 0.929 . S
C691 C683 1.433 . S
C691 N693 1.384 . S
N692 C688 1.427 . S
N692 C689 1.384 . S
N693 C685 1.427 . S
N693 C691 1.384 . S
H694 C700 0.930 . S
H695 C704 0.930 1_545 S
H696 C709 0.929 . S
H697 C707 0.929 . S
H698 C702 0.929 . S
H699 C708 0.929 . S
C700 H694 0.930 . S
C700 C701 1.367 . S
C700 C708 1.378 . S
C701 C700 1.367 . S
C701 C709 1.433 . S
C702 H698 0.929 . S
C702 C704 1.378 . S
C702 C706 1.350 . S
C703 C706 1.463 . S
C703 C708 1.350 . S
C703 N711 1.427 . S
C704 H695 0.930 1_565 S
C704 C702 1.378 . S
C704 C705 1.367 . S
C705 C704 1.367 . S
C705 C707 1.433 . S
C706 C702 1.350 . S
C706 C703 1.463 . S
C706 N710 1.427 . S
C707 H697 0.929 . S
C707 C705 1.433 . S
C707 N710 1.384 . S
C708 H699 0.929 . S
C708 C700 1.378 . S
C708 C703 1.350 . S
C709 H696 0.929 . S
C709 C701 1.433 . S
C709 N711 1.384 . S
N710 C706 1.427 . S
N710 C707 1.384 . S
N711 C703 1.427 . S
N711 C709 1.384 . S
H712 C718 0.930 . S
H713 C722 0.930 . S
H714 C727 0.929 . S
H715 C725 0.929 1_565 S
H716 C720 0.929 . S
H717 C726 0.929 . S
C718 H712 0.930 . S
C718 C719 1.367 . S
C718 C726 1.378 . S
C719 C718 1.367 . S
C719 C727 1.433 . S
C720 H716 0.929 . S
C720 C722 1.378 . S
C720 C724 1.350 . S
C721 C724 1.463 . S
C721 C726 1.350 . S
C721 N729 1.427 . S
C722 H713 0.930 . S
C722 C720 1.378 . S
C722 C723 1.367 . S
C723 C722 1.367 . S
C723 C725 1.433 . S
C724 C720 1.350 . S
C724 C721 1.463 . S
C724 N728 1.427 . S
C725 H715 0.929 1_545 S
C725 C723 1.433 . S
C725 N728 1.384 . S
C726 H717 0.929 . S
C726 C718 1.378 . S
C726 C721 1.350 . S
C727 H714 0.929 . S
C727 C719 1.433 . S
C727 N729 1.384 . S
N728 C724 1.427 . S
N728 C725 1.384 . S
N729 C721 1.427 . S
N729 C727 1.384 . S
H730 C736 0.930 . S
H731 C740 0.930 . S
H732 C745 0.929 . S
H733 C743 0.929 . S
H734 C738 0.929 . S
H735 C744 0.929 . S
C736 H730 0.930 . S
C736 C737 1.367 . S
C736 C744 1.378 . S
C737 C736 1.367 . S
C737 C745 1.433 . S
C738 H734 0.929 . S
C738 C740 1.378 . S
C738 C742 1.350 . S
C739 C742 1.463 . S
C739 C744 1.350 . S
C739 N747 1.427 . S
C740 H731 0.930 . S
C740 C738 1.378 . S
C740 C741 1.367 . S
C741 C740 1.367 . S
C741 C743 1.433 . S
C742 C738 1.350 . S
C742 C739 1.463 . S
C742 N746 1.427 . S
C743 H733 0.929 . S
C743 C741 1.433 . S
C743 N746 1.384 . S
C744 H735 0.929 . S
C744 C736 1.378 . S
C744 C739 1.350 . S
C745 H732 0.929 . S
C745 C737 1.433 . S
C745 N747 1.384 . S
N746 C742 1.427 . S
N746 C743 1.384 . S
N747 C739 1.427 . S
N747 C745 1.384 . S
H748 C754 0.930 . S
H749 C758 0.930 . S
H750 C763 0.929 . S
H751 C761 0.929 . S
H752 C756 0.929 . S
H753 C762 0.929 . S
C754 H748 0.930 . S
C754 C755 1.367 . S
C754 C762 1.378 . S
C755 C754 1.367 . S
C755 C763 1.433 . S
C756 H752 0.929 . S
C756 C758 1.378 . S
C756 C760 1.350 . S
C757 C760 1.463 . S
C757 C762 1.350 . S
C757 N765 1.427 . S
C758 H749 0.930 . S
C758 C756 1.378 . S
C758 C759 1.367 . S
C759 C758 1.367 . S
C759 C761 1.433 . S
C760 C756 1.350 . S
C760 C757 1.463 . S
C760 N764 1.427 . S
C761 H751 0.929 . S
C761 C759 1.433 . S
C761 N764 1.384 . S
C762 H753 0.929 . S
C762 C754 1.378 . S
C762 C757 1.350 . S
C763 H750 0.929 . S
C763 C755 1.433 . S
C763 N765 1.384 . S
N764 C760 1.427 . S
N764 C761 1.384 . S
N765 C757 1.427 . S
N765 C763 1.384 . S
H766 C772 0.930 . S
H767 C776 0.930 . S
H768 C781 0.929 . S
H769 C779 0.929 . S
H770 C774 0.929 . S
H771 C780 0.929 . S
C772 H766 0.930 . S
C772 C773 1.367 . S
C772 C780 1.378 . S
C773 C772 1.367 . S
C773 C781 1.433 . S
C774 H770 0.929 . S
C774 C776 1.378 . S
C774 C778 1.350 . S
C775 C778 1.463 . S
C775 C780 1.350 . S
C775 N783 1.427 . S
C776 H767 0.930 . S
C776 C774 1.378 . S
C776 C777 1.367 . S
C777 C776 1.367 . S
C777 C779 1.433 . S
C778 C774 1.350 . S
C778 C775 1.463 . S
C778 N782 1.427 . S
C779 H769 0.929 . S
C779 C777 1.433 . S
C779 N782 1.384 . S
C780 H771 0.929 . S
C780 C772 1.378 . S
C780 C775 1.350 . S
C781 H768 0.929 . S
C781 C773 1.433 . S
C781 N783 1.384 . S
N782 C778 1.427 . S
N782 C779 1.384 . S
N783 C775 1.427 . S
N783 C781 1.384 . S
C215 C185 1.507 . S
C219 C3 1.507 . S
C233 C30 1.507 . S
C237 C4 1.507 . S
C251 C153 1.507 . S
C255 C17 1.507 . S
C269 C16 1.508 . S
C273 C96 1.508 . S
C287 C29 1.507 . S
C291 C159 1.507 . S
C305 C127 1.507 . S
C309 C49 1.507 . S
C323 C44 1.508 . S
C327 C68 1.508 . S
C341 C135 1.508 . S
C345 C55 1.508 . S
C359 C56 1.508 . S
C363 C82 1.508 . S
C377 C205 1.508 . S
C381 C69 1.508 . S
C395 C107 1.508 . S
C399 C81 1.508 . S
C413 C179 1.506 . S
C417 C101 1.506 . S
C431 C108 1.507 . S
C435 C140 1.507 . S
C449 C200 1.508 . S
C453 C122 1.508 . S
C467 C148 1.508 . S
C471 C174 1.508 . S
C485 C186 1.508 . S
C489 C160 1.508 . S
C503 C70 1.575 . S
C507 C10 1.574 1_565 S
C521 C5 1.576 . S
C525 C75 1.576 . S
C539 C18 1.575 . S
C543 C62 1.574 . S
C557 C57 1.576 . S
C561 C23 1.575 1_565 S
C575 C94 1.575 . S
C579 C36 1.574 1_545 S
C593 C95 1.574 . S
C597 C31 1.575 . S
C611 C88 1.575 . S
C615 C42 1.576 . S
C629 C43 1.575 1_545 S
C633 C83 1.576 . S
C647 C172 1.575 . S
C651 C114 1.574 1_565 S
C665 C109 1.576 . S
C669 C173 1.575 . S
C683 C120 1.576 . S
C687 C166 1.576 . S
C701 C161 1.576 . S
C705 C121 1.576 1_565 S
C719 C198 1.575 . S
C723 C134 1.574 1_545 S
C737 C199 1.574 . S
C741 C133 1.575 . S
C755 C146 1.576 . S
C759 C192 1.576 . S
C773 C187 1.576 . S
C777 C147 1.575 1_545 S
