# Generated by pormake.
# Topology wme, (6)-cn, num edge types: 1
# Building blocks:
#     Node 0, Type 0, BuildingBlock: FUNLAD_clean_sbu_0, # of connection points: 6
#     Node 1, Type 0, BuildingBlock: FUNLAD_clean_sbu_0, # of connection points: 6
#     Node 2, Type 0, BuildingBlock: FUNLAD_clean_sbu_0, # of connection points: 6
#     Node 3, Type 0, BuildingBlock: FUNLAD_clean_sbu_0, # of connection points: 6
#     Node 4, Type 0, BuildingBlock: FUNLAD_clean_sbu_0, # of connection points: 6
#     Node 5, Type 0, BuildingBlock: FUNLAD_clean_sbu_0, # of connection points: 6
#     Node 6, Type 0, BuildingBlock: FUNLAD_clean_sbu_0, # of connection points: 6
#     Node 7, Type 0, BuildingBlock: FUNLAD_clean_sbu_0, # of connection points: 6
#     Node 8, Type 0, BuildingBlock: FUNLAD_clean_sbu_0, # of connection points: 6
#     Node 9, Type 0, BuildingBlock: FUNLAD_clean_sbu_0, # of connection points: 6
#     Node 10, Type 0, BuildingBlock: FUNLAD_clean_sbu_0, # of connection points: 6
#     Node 11, Type 0, BuildingBlock: FUNLAD_clean_sbu_0, # of connection points: 6
#     Edge 12, Type (0, 0), BuildingBlock: XIVTED_clean_linker_0, # of connection points: 2
#     Edge 13, Type (0, 0), BuildingBlock: XIVTED_clean_linker_0, # of connection points: 2
#     Edge 14, Type (0, 0), BuildingBlock: XIVTED_clean_linker_0, # of connection points: 2
#     Edge 15, Type (0, 0), BuildingBlock: XIVTED_clean_linker_0, # of connection points: 2
#     Edge 16, Type (0, 0), BuildingBlock: XIVTED_clean_linker_0, # of connection points: 2
#     Edge 17, Type (0, 0), BuildingBlock: XIVTED_clean_linker_0, # of connection points: 2
#     Edge 18, Type (0, 0), BuildingBlock: XIVTED_clean_linker_0, # of connection points: 2
#     Edge 19, Type (0, 0), BuildingBlock: XIVTED_clean_linker_0, # of connection points: 2
#     Edge 20, Type (0, 0), BuildingBlock: XIVTED_clean_linker_0, # of connection points: 2
#     Edge 21, Type (0, 0), BuildingBlock: XIVTED_clean_linker_0, # of connection points: 2
#     Edge 22, Type (0, 0), BuildingBlock: XIVTED_clean_linker_0, # of connection points: 2
#     Edge 23, Type (0, 0), BuildingBlock: XIVTED_clean_linker_0, # of connection points: 2
#     Edge 24, Type (0, 0), BuildingBlock: XIVTED_clean_linker_0, # of connection points: 2
#     Edge 25, Type (0, 0), BuildingBlock: XIVTED_clean_linker_0, # of connection points: 2
#     Edge 26, Type (0, 0), BuildingBlock: XIVTED_clean_linker_0, # of connection points: 2
#     Edge 27, Type (0, 0), BuildingBlock: XIVTED_clean_linker_0, # of connection points: 2
#     Edge 28, Type (0, 0), BuildingBlock: XIVTED_clean_linker_0, # of connection points: 2
#     Edge 29, Type (0, 0), BuildingBlock: XIVTED_clean_linker_0, # of connection points: 2
#     Edge 30, Type (0, 0), BuildingBlock: XIVTED_clean_linker_0, # of connection points: 2
#     Edge 31, Type (0, 0), BuildingBlock: XIVTED_clean_linker_0, # of connection points: 2
#     Edge 32, Type (0, 0), BuildingBlock: XIVTED_clean_linker_0, # of connection points: 2
#     Edge 33, Type (0, 0), BuildingBlock: XIVTED_clean_linker_0, # of connection points: 2
#     Edge 34, Type (0, 0), BuildingBlock: XIVTED_clean_linker_0, # of connection points: 2
#     Edge 35, Type (0, 0), BuildingBlock: XIVTED_clean_linker_0, # of connection points: 2
#     Edge 36, Type (0, 0), BuildingBlock: XIVTED_clean_linker_0, # of connection points: 2
#     Edge 37, Type (0, 0), BuildingBlock: XIVTED_clean_linker_0, # of connection points: 2
#     Edge 38, Type (0, 0), BuildingBlock: XIVTED_clean_linker_0, # of connection points: 2
#     Edge 39, Type (0, 0), BuildingBlock: XIVTED_clean_linker_0, # of connection points: 2
#     Edge 40, Type (0, 0), BuildingBlock: XIVTED_clean_linker_0, # of connection points: 2
#     Edge 41, Type (0, 0), BuildingBlock: XIVTED_clean_linker_0, # of connection points: 2
#     Edge 42, Type (0, 0), BuildingBlock: XIVTED_clean_linker_0, # of connection points: 2
#     Edge 43, Type (0, 0), BuildingBlock: XIVTED_clean_linker_0, # of connection points: 2
#     Edge 44, Type (0, 0), BuildingBlock: XIVTED_clean_linker_0, # of connection points: 2
#     Edge 45, Type (0, 0), BuildingBlock: XIVTED_clean_linker_0, # of connection points: 2
#     Edge 46, Type (0, 0), BuildingBlock: XIVTED_clean_linker_0, # of connection points: 2
#     Edge 47, Type (0, 0), BuildingBlock: XIVTED_clean_linker_0, # of connection points: 2
# Relax obj value: 0.156
# Max RMSD: 0.205
# Mean RMSD: 0.205
data_MOF--net-wme--node1-FUNLAD_clean_sbu_0--edge1-XIVTED_clean_linker_0
_symmetry_space_group_name_H-M    P1
_symmetry_Int_Tables_number       1
_symmetry_cell_setting            triclinic
loop_
_symmetry_equiv_pos_as_xyz
'x, y, z'
_cell_length_a     28.211125
_cell_length_b     28.199865
_cell_length_c     85.724713
_cell_angle_alpha  89.976792
_cell_angle_beta   90.005276
_cell_angle_gamma 120.08143
loop_
_atom_site_label
_atom_site_type_symbol
_atom_site_fract_x
_atom_site_fract_y
_atom_site_fract_z
_atom_type_partial_charge
C0 C 0.26715 0.24405 0.14116 0.0
N1 N 0.25003 0.32232 0.10183 0.0
C2 C 0.29132 0.31529 0.09629 0.0
C3 C 0.29684 0.31008 0.08032 0.0
C4 C 0.26023 0.31323 0.0699 0.0
C5 C 0.21888 0.322 0.07583 0.0
C6 C 0.21415 0.32594 0.09196 0.0
Zn7 Zn 0.2422 0.32501 0.12554 0.0
C8 C 0.13327 0.24892 0.13706 0.0
N9 N 0.23103 0.32765 0.17525 0.0
C10 C 0.26574 0.32654 0.18609 0.0
C11 C 0.18515 0.32863 0.17965 0.0
C12 C 0.17228 0.328 0.19532 0.0
C13 C 0.20661 0.32602 0.20681 0.0
C14 C 0.25429 0.32583 0.20205 0.0
Zn15 Zn 0.24193 0.326 0.15158 0.0
O16 O 0.26194 0.26283 0.1282 0.0
C17 C 0.34937 0.40615 0.14009 0.0
O18 O 0.26237 0.26475 0.1538 0.0
H19 H 0.15786 0.32954 0.17096 0.0
H20 H 0.31985 0.31318 0.10428 0.0
H21 H 0.30193 0.32566 0.18238 0.0
O22 O 0.32496 0.38589 0.12726 0.0
O23 O 0.32417 0.38708 0.1529 0.0
H24 H 0.18147 0.33127 0.0966 0.0
O25 O 0.22014 0.38628 0.14898 0.0
O26 O 0.21995 0.38572 0.1234 0.0
O27 O 0.15932 0.26593 0.14978 0.0
O28 O 0.15866 0.26572 0.12421 0.0
C29 C 0.21154 0.40314 0.13616 0.0
H30 H 0.32962 0.30396 0.07613 0.0
H31 H 0.18978 0.32443 0.06811 0.0
H32 H 0.13576 0.3294 0.1984 0.0
H33 H 0.28182 0.3241 0.21054 0.0
C34 C 0.01329 0.27121 0.64099 0.0
N35 N 0.91767 0.24992 0.6015 0.0
C36 C 0.96113 0.29671 0.59591 0.0
C37 C 0.97172 0.30368 0.57994 0.0
C38 C 0.93767 0.26186 0.56958 0.0
C39 C 0.89313 0.21386 0.57562 0.0
C40 C 0.88362 0.20884 0.59172 0.0
Zn41 Zn 0.90673 0.24266 0.62517 0.0
C42 C 0.87641 0.13511 0.63728 0.0
N43 N 0.89199 0.23373 0.67486 0.0
C44 C 0.92698 0.26994 0.68559 0.0
C45 C 0.84578 0.18726 0.67939 0.0
C46 C 0.83341 0.17534 0.6951 0.0
C47 C 0.86884 0.21134 0.70648 0.0
C48 C 0.91602 0.25955 0.70158 0.0
Zn49 Zn 0.90476 0.2436 0.65118 0.0
O50 O -0.0104 0.26571 0.62796 0.0
C51 C 0.92901 0.34958 0.63926 0.0
O52 O -0.01276 0.26603 0.65356 0.0
H53 H 0.81817 0.15886 0.67078 0.0
H54 H -0.01188 0.32862 0.60387 0.0
H55 H 0.96351 0.3066 0.68177 0.0
O56 O 0.92529 0.32475 0.62655 0.0
O57 O 0.924 0.32532 0.65218 0.0
H58 H 0.84927 0.172 0.5964 0.0
O59 O 0.82181 0.21933 0.64832 0.0
O60 O 0.82312 0.21705 0.62276 0.0
O61 O 0.88412 0.1617 0.64983 0.0
O62 O 0.88537 0.15972 0.62428 0.0
C63 C 0.79662 0.20878 0.6354 0.0
H64 H 0.00693 0.34099 0.57577 0.0
H65 H 0.86573 0.18082 0.56798 0.0
H66 H 0.79603 0.13831 0.69829 0.0
H67 H 0.94456 0.28835 0.70999 0.0
C68 C 0.73341 0.01775 0.1419 0.0
N69 N 0.65788 0.92656 0.10181 0.0
C70 C 0.66661 0.97574 0.09642 0.0
C71 C 0.67364 0.98765 0.08052 0.0
C72 C 0.67051 0.94818 0.06999 0.0
C73 C 0.66015 0.89725 0.07574 0.0
C74 C 0.65446 0.88741 0.09182 0.0
Zn75 Zn 0.65178 0.91409 0.12546 0.0
C76 C 0.7228 0.87601 0.13783 0.0
N77 N 0.6425 0.89674 0.17519 0.0
C78 C 0.65342 0.93634 0.18598 0.0
C79 C 0.63203 0.84606 0.17966 0.0
C80 C 0.63201 0.8334 0.19533 0.0
C81 C 0.64494 0.87368 0.20678 0.0
C82 C 0.65521 0.92576 0.2019 0.0
Zn83 Zn 0.64702 0.91076 0.15148 0.0
O84 O 0.71485 -0.00474 0.12877 0.0
C85 C 0.57097 0.94233 0.1393 0.0
O86 O 0.71136 -0.00866 0.15433 0.0
H87 H 0.62487 0.81522 0.17105 0.0
H88 H 0.6685 0.00609 0.10449 0.0
H89 H 0.66223 0.97659 0.18224 0.0
O90 O 0.59165 0.93746 0.12664 0.0
O91 O 0.58895 0.93597 0.15228 0.0
H92 H 0.64774 0.84869 0.09633 0.0
O93 O 0.58379 0.82996 0.14806 0.0
O94 O 0.59036 0.8321 0.12257 0.0
O95 O 0.7036 0.88379 0.15031 0.0
O96 O 0.70991 0.88788 0.12479 0.0
C97 C 0.56934 0.80553 0.13504 0.0
H98 H 0.68093 0.02714 0.07646 0.0
H99 H 0.65764 0.86591 0.06792 0.0
H100 H 0.62229 0.79223 0.19835 0.0
H101 H 0.666 0.95855 0.21019 0.0
C102 C 0.70014 0.73592 0.64179 0.0
N103 N 0.71778 0.65902 0.6023 0.0
C104 C 0.67611 0.66567 0.59688 0.0
C105 C 0.6704 0.67131 0.58095 0.0
C106 C 0.70724 0.66903 0.57044 0.0
C107 C 0.74903 0.66068 0.57623 0.0
C108 C 0.75391 0.65625 0.59234 0.0
Zn109 Zn 0.72563 0.65566 0.62595 0.0
C110 C 0.83458 0.73207 0.6375 0.0
N111 N 0.7366 0.65186 0.6756 0.0
C112 C 0.70055 0.6506 0.68638 0.0
C113 C 0.7831 0.65219 0.68006 0.0
C114 C 0.79527 0.65191 0.69576 0.0
C115 C 0.7594 0.65126 0.70717 0.0
C116 C 0.71113 0.65008 0.70235 0.0
Zn117 Zn 0.72612 0.65432 0.65196 0.0
O118 O 0.70551 0.71751 0.6288 0.0
C119 C 0.61872 0.5738 0.64038 0.0
O120 O 0.705 0.71502 0.65439 0.0
H121 H 0.81127 0.65284 0.6714 0.0
H122 H 0.64741 0.66711 0.60494 0.0
H123 H 0.66383 0.65034 0.6826 0.0
O124 O 0.64303 0.59449 0.62757 0.0
O125 O 0.64397 0.59263 0.65319 0.0
H126 H 0.78687 0.65119 0.59688 0.0
O127 O 0.74871 0.5947 0.64921 0.0
O128 O 0.74826 0.5953 0.62363 0.0
O129 O 0.80867 0.71499 0.65024 0.0
O130 O 0.80905 0.71523 0.62467 0.0
C131 C 0.75719 0.57801 0.63635 0.0
H132 H 0.63727 0.67705 0.57686 0.0
H133 H 0.7783 0.65891 0.56843 0.0
H134 H 0.83233 0.65168 0.69891 0.0
H135 H 0.68244 0.64972 0.71081 0.0
C136 C 0.95531 0.70963 0.14156 0.0
N137 N 0.04929 0.72826 0.10182 0.0
C138 C 0.00114 0.68594 0.09654 0.0
C139 C -0.01039 0.67918 0.08062 0.0
C140 C 0.02841 0.71562 0.06987 0.0
C141 C 0.07829 0.75851 0.07566 0.0
C142 C 0.08775 0.76431 0.09175 0.0
Zn143 Zn 0.06117 0.73633 0.12545 0.0
C144 C 0.0929 0.84473 0.13719 0.0
N145 N 0.0773 0.74715 0.17507 0.0
C146 C 0.04301 0.71074 0.18589 0.0
C147 C 0.1233 0.79401 0.17948 0.0
C148 C 0.1361 0.80616 0.19517 0.0
C149 C 0.10141 0.76992 0.20663 0.0
C150 C 0.05447 0.7213 0.20185 0.0
Zn151 Zn 0.06374 0.73662 0.15145 0.0
O152 O 0.97895 0.71541 0.12852 0.0
C153 C 0.03793 0.62971 0.13977 0.0
O154 O 0.98132 0.7143 0.1541 0.0
H155 H 0.15042 0.82249 0.1708 0.0
H156 H 0.97116 0.65747 0.1047 0.0
H157 H 0.00666 0.67374 0.18215 0.0
O158 O 0.04057 0.65376 0.12699 0.0
O159 O 0.04451 0.65491 0.15259 0.0
H160 H 0.1258 0.79767 0.09618 0.0
O161 O 0.14668 0.76088 0.14842 0.0
O162 O 0.14429 0.75995 0.12286 0.0
O163 O 0.08431 0.81843 0.14984 0.0
O164 O 0.08443 0.81974 0.12427 0.0
C165 C 0.17131 0.76968 0.13545 0.0
H166 H 0.95016 0.64613 0.07687 0.0
H167 H 0.10995 0.78717 0.06788 0.0
H168 H 0.17327 0.84353 0.19828 0.0
H169 H 0.02651 0.69231 0.21033 0.0
C170 C 0.23459 0.96078 0.64184 0.0
N171 N 0.31205 0.05272 0.60185 0.0
C172 C 0.30465 0.00397 0.59659 0.0
C173 C 0.29994 -0.00751 0.58066 0.0
C174 C 0.30392 0.0319 0.56987 0.0
C175 C 0.31238 0.08231 0.57565 0.0
C176 C 0.31596 0.09173 0.59175 0.0
Zn177 Zn 0.3162 0.06507 0.6255 0.0
C178 C 0.24237 0.10099 0.63705 0.0
N179 N 0.32259 0.08268 0.67513 0.0
C180 C 0.32212 0.04723 0.68599 0.0
C181 C 0.32539 0.13047 0.67947 0.0
C182 C 0.3281 0.14439 0.69514 0.0
C183 C 0.32784 0.10892 0.70664 0.0
C184 C 0.32454 0.05954 0.70193 0.0
Zn185 Zn 0.31866 0.06837 0.65152 0.0
O186 O 0.25326 0.98356 0.62873 0.0
C187 C 0.39719 0.0387 0.63996 0.0
O188 O 0.25617 0.98713 0.65432 0.0
H189 H 0.32526 0.1581 0.67075 0.0
H190 H 0.30193 0.97353 0.60477 0.0
H191 H 0.31984 0.00945 0.68231 0.0
O192 O 0.37657 0.04236 0.62715 0.0
O193 O 0.37875 0.04573 0.65276 0.0
H194 H 0.32185 0.13026 0.59616 0.0
O195 O 0.37989 0.14985 0.64836 0.0
O196 O 0.37745 0.14752 0.6228 0.0
O197 O 0.25982 0.09268 0.6498 0.0
O198 O 0.25773 0.09047 0.62423 0.0
C199 C 0.39604 0.17429 0.63538 0.0
H200 H 0.29239 0.95264 0.57692 0.0
H201 H 0.31667 0.11444 0.56787 0.0
H202 H 0.32944 0.1823 0.6982 0.0
H203 H 0.32444 0.0311 0.71044 0.0
C204 C 0.73375 0.71873 0.38475 0.0
N205 N 0.65093 0.72624 0.42434 0.0
C206 C 0.65949 0.68563 0.4296 0.0
C207 C 0.66465 0.67921 0.44552 0.0
C208 C 0.65992 0.7142 0.4563 0.0
C209 C 0.64992 0.75513 0.45052 0.0
C210 C 0.64596 0.7607 0.43444 0.0
Zn211 Zn 0.64787 0.73513 0.40073 0.0
C212 C 0.71735 0.84663 0.38972 0.0
N213 N 0.64386 0.74861 0.35108 0.0
C214 C 0.65632 0.7213 0.34024 0.0
C215 C 0.63241 0.78822 0.34671 0.0
C216 C 0.63269 0.80143 0.33107 0.0
C217 C 0.64684 0.77525 0.31957 0.0
C218 C 0.65842 0.73428 0.32436 0.0
Zn219 Zn 0.64599 0.73687 0.37473 0.0
O220 O 0.71294 0.71945 0.39783 0.0
C221 C 0.57052 0.62674 0.38568 0.0
O222 O 0.71273 0.72431 0.37228 0.0
H223 H 0.62384 0.81069 0.35538 0.0
H224 H 0.66309 0.65846 0.42141 0.0
H225 H 0.66584 0.69031 0.34391 0.0
O226 O 0.58891 0.65108 0.39864 0.0
O227 O 0.59022 0.65276 0.373 0.0
H228 H 0.63918 0.79275 0.43002 0.0
O229 O 0.58049 0.75052 0.37767 0.0
O230 O 0.58486 0.75376 0.4032 0.0
O231 O 0.6999 0.8214 0.37688 0.0
O232 O 0.70442 0.81969 0.4024 0.0
C233 C 0.56441 0.75916 0.3906 0.0
H234 H 0.67338 0.64771 0.44926 0.0
H235 H 0.64498 0.78256 0.4583 0.0
H236 H 0.62198 0.8322 0.32812 0.0
H237 H 0.67024 0.71326 0.31604 0.0
C238 C 0.01052 0.73838 0.88364 0.0
N239 N 0.91915 0.66184 0.92366 0.0
C240 C 0.96828 0.67028 0.92896 0.0
C241 C 0.98031 0.67699 0.94485 0.0
C242 C 0.94101 0.67384 0.95544 0.0
C243 C 0.89008 0.66368 0.94977 0.0
C244 C 0.88012 0.6583 0.9337 0.0
Zn245 Zn 0.90671 0.65666 0.90004 0.0
C246 C 0.86969 0.72951 0.88826 0.0
N247 N 0.88895 0.6489 0.85046 0.0
C248 C 0.92506 0.65023 0.8397 0.0
C249 C 0.84091 0.64526 0.846 0.0
C250 C 0.82753 0.64283 0.8303 0.0
C251 C 0.8638 0.64423 0.81889 0.0
C252 C 0.91329 0.64808 0.82374 0.0
Zn253 Zn 0.90312 0.65356 0.87406 0.0
O254 O -0.01205 0.71962 0.89676 0.0
C255 C 0.93389 0.576 0.88589 0.0
O256 O 0.98405 0.71676 0.87119 0.0
H257 H 0.81277 0.64474 0.85464 0.0
H258 H -0.00147 0.67227 0.92083 0.0
H259 H 0.96303 0.65319 0.84348 0.0
O260 O 0.92976 0.59653 0.89866 0.0
O261 O 0.92687 0.59421 0.87305 0.0
H262 H 0.84143 0.65181 0.92925 0.0
O263 O 0.82202 0.59164 0.87728 0.0
O264 O 0.82447 0.59527 0.90283 0.0
O265 O 0.87762 0.71162 0.87553 0.0
O266 O 0.88108 0.71497 0.90109 0.0
C267 C 0.79771 0.57592 0.89029 0.0
H268 H 0.0198 0.68414 0.94884 0.0
H269 H 0.85888 0.66118 0.95765 0.0
H270 H 0.78948 0.64103 0.82713 0.0
H271 H 0.94234 0.64903 0.81531 0.0
C272 C 0.26554 0.01883 0.38329 0.0
N273 N 0.25196 0.92738 0.42323 0.0
C274 C 0.29211 0.97675 0.42861 0.0
C275 C 0.29736 0.98831 0.44454 0.0
C276 C 0.26167 0.94833 0.45509 0.0
C277 C 0.22145 0.89721 0.44933 0.0
C278 C 0.21695 0.8877 0.43323 0.0
Zn279 Zn 0.24468 0.91538 0.39956 0.0
C280 C 0.13454 0.87748 0.38788 0.0
N281 N 0.23469 0.89868 0.34992 0.0
C282 C 0.26912 0.93523 0.33915 0.0
C283 C 0.19055 0.85036 0.34545 0.0
C284 C 0.17949 0.83712 0.32974 0.0
C285 C 0.214 0.87384 0.31833 0.0
C286 C 0.25939 0.92362 0.32319 0.0
Zn287 Zn 0.2443 0.91252 0.37353 0.0
O288 O 0.26166 -0.00387 0.39639 0.0
C289 C 0.35295 0.94523 0.38528 0.0
O290 O 0.26105 -0.0073 0.37081 0.0
H291 H 0.16322 0.82187 0.35409 0.0
H292 H 0.32 0.00755 0.42052 0.0
H293 H 0.30394 0.97343 0.34294 0.0
O294 O 0.32809 0.94033 0.39806 0.0
O295 O 0.32753 0.93771 0.37244 0.0
H296 H 0.18517 0.84882 0.42872 0.0
O297 O 0.22669 0.83211 0.37656 0.0
O298 O 0.22547 0.83339 0.40214 0.0
O299 O 0.16037 0.88591 0.37513 0.0
O300 O 0.16046 0.88831 0.4007 0.0
C301 C 0.21907 0.80747 0.38948 0.0
H302 H 0.3293 0.02798 0.44858 0.0
H303 H 0.19307 0.86547 0.45715 0.0
H304 H 0.14345 0.79883 0.32657 0.0
H305 H 0.28721 0.95301 0.31476 0.0
C306 C 0.23668 0.27289 0.88341 0.0
N307 N 0.31204 0.25612 0.92346 0.0
C308 C 0.30502 0.29764 0.92877 0.0
C309 C 0.29987 0.30399 0.9447 0.0
C310 C 0.30306 0.26797 0.95544 0.0
C311 C 0.3114 0.22604 0.94961 0.0
C312 C 0.31536 0.22058 0.93352 0.0
Zn313 Zn 0.31603 0.2477 0.89982 0.0
C314 C 0.23974 0.13837 0.88837 0.0
N315 N 0.32135 0.23473 0.85021 0.0
C316 C 0.32258 0.27033 0.83927 0.0
C317 C 0.32081 0.18793 0.84596 0.0
C318 C 0.32072 0.17494 0.83032 0.0
C319 C 0.3212 0.21026 0.81873 0.0
C320 C 0.32273 0.25891 0.82334 0.0
Zn321 Zn 0.3184 0.24601 0.87381 0.0
O322 O 0.25437 0.26769 0.89656 0.0
C323 C 0.39856 0.35387 0.88525 0.0
O324 O 0.25816 0.26772 0.87098 0.0
H325 H 0.32007 0.16006 0.85475 0.0
H326 H 0.30278 0.32572 0.92062 0.0
H327 H 0.32294 0.30727 0.84287 0.0
O328 O 0.37716 0.33031 0.8981 0.0
O329 O 0.38045 0.32789 0.87251 0.0
H330 H 0.32094 0.18782 0.92907 0.0
O331 O 0.37748 0.22257 0.87703 0.0
O332 O 0.37631 0.22535 0.90258 0.0
O333 O 0.25733 0.16399 0.87561 0.0
O334 O 0.25637 0.16408 0.90118 0.0
C335 C 0.39372 0.21508 0.89011 0.0
H336 H 0.29247 0.33632 0.94848 0.0
H337 H 0.31517 0.19778 0.95735 0.0
H338 H 0.32066 0.13759 0.82733 0.0
H339 H 0.32295 0.28721 0.81476 0.0
C340 C 0.95071 0.24381 0.3849 0.0
N341 N 0.0517 0.31708 0.42362 0.0
C342 C 0.0102 0.32336 0.42937 0.0
C343 C -0.00028 0.31942 0.44535 0.0
C344 C 0.0318 0.30827 0.45555 0.0
C345 C 0.07466 0.30237 0.44936 0.0
C346 C 0.08415 0.30726 0.43327 0.0
Zn347 Zn 0.06091 0.31842 0.39991 0.0
C348 C 0.08116 0.23318 0.38847 0.0
N349 N 0.0713 0.31702 0.35016 0.0
C350 C 0.03963 0.32414 0.3395 0.0
C351 C 0.11438 0.31131 0.34556 0.0
C352 C 0.12766 0.31347 0.32986 0.0
C353 C 0.09646 0.32157 0.31859 0.0
C354 C 0.05143 0.32632 0.32352 0.0
Zn355 Zn 0.06014 0.31661 0.37388 0.0
O356 O 0.97634 0.26206 0.39769 0.0
C357 C 0.04537 0.40567 0.3853 0.0
O358 O 0.97597 0.26202 0.37206 0.0
H359 H 0.13917 0.30549 0.35411 0.0
H360 H -0.01562 0.33041 0.42151 0.0
H361 H 0.00565 0.32871 0.34338 0.0
O362 O 0.0475 0.38468 0.3982 0.0
O363 O 0.04856 0.38432 0.37257 0.0
H364 H 0.11692 0.30239 0.42847 0.0
O365 O 0.14472 0.36946 0.37612 0.0
O366 O 0.14658 0.37324 0.40168 0.0
O367 O 0.07302 0.25027 0.37564 0.0
O368 O 0.07657 0.25352 0.40118 0.0
C369 C 0.17179 0.38601 0.38871 0.0
H370 H 0.96584 0.32355 0.44963 0.0
H371 H 0.10059 0.29416 0.45687 0.0
H372 H 0.162 0.30848 0.3266 0.0
H373 H 0.02638 0.33275 0.31518 0.0
C374 C 0.70195 0.96043 0.88338 0.0
N375 N 0.72277 0.05438 0.92334 0.0
C376 C 0.68056 0.0063 0.92872 0.0
C377 C 0.67428 -0.00514 0.94465 0.0
C378 C 0.71109 0.03367 0.95534 0.0
C379 C 0.75394 0.08342 0.94945 0.0
C380 C 0.75925 0.09279 0.93334 0.0
Zn381 Zn 0.7298 0.06638 0.89967 0.0
C382 C 0.83767 0.0978 0.88742 0.0
N383 N 0.7386 0.08294 0.85001 0.0
C384 C 0.70216 0.04814 0.83929 0.0
C385 C 0.78467 0.12955 0.84548 0.0
C386 C 0.79561 0.14284 0.82976 0.0
C387 C 0.75898 0.10797 0.81841 0.0
C388 C 0.71171 0.05986 0.82331 0.0
Zn389 Zn 0.72918 0.06914 0.87365 0.0
O390 O 0.70802 0.98399 0.89645 0.0
C391 C 0.62287 0.04385 0.88584 0.0
O392 O 0.70674 0.98662 0.87086 0.0
H393 H 0.81359 0.15664 0.85407 0.0
H394 H 0.65172 0.97635 0.92063 0.0
H395 H 0.66583 0.0113 0.84312 0.0
O396 O 0.64743 0.04635 0.89851 0.0
O397 O 0.64738 0.05019 0.8729 0.0
H398 H 0.79254 0.13079 0.92884 0.0
O399 O 0.75361 0.152 0.87681 0.0
O400 O 0.75414 0.14967 0.90237 0.0
O401 O 0.81101 0.08963 0.87485 0.0
O402 O 0.8131 0.08908 0.90043 0.0
C403 C 0.76323 0.17668 0.8898 0.0
H404 H 0.64124 0.95548 0.94847 0.0
H405 H 0.7829 0.1151 0.95716 0.0
H406 H 0.8331 0.17971 0.82655 0.0
H407 H 0.68226 0.03193 0.81492 0.0
H408 H 0.11449 0.9084 0.16299 0.0
H409 H 0.27618 0.18849 0.11632 0.0
H410 H 0.13813 0.91771 0.11304 0.0
H411 H 0.25122 0.17769 0.1662 0.0
H412 H 0.24003 0.0899 0.11543 0.0
H413 H 0.17307 0.00718 0.16463 0.0
C414 C 0.13147 0.93134 0.15232 0.0
C415 C 0.12106 0.90485 0.13782 0.0
C416 C 0.24342 0.10924 0.12661 0.0
C417 C 0.18913 0.01805 0.13968 0.0
C418 C 0.26455 0.16563 0.12716 0.0
C419 C 0.26511 0.19096 0.1413 0.0
C420 C 0.2227 0.07831 0.14029 0.0
C421 C 0.25051 0.15962 0.155 0.0
C422 C 0.16547 0.98774 0.1533 0.0
C423 C 0.14459 0.9366 0.12443 0.0
N424 N 0.22868 0.10457 0.1541 0.0
N425 N 0.17759 -0.00829 0.12568 0.0
H426 H 0.21331 0.14272 0.61234 0.0
H427 H 0.06527 0.25909 0.66635 0.0
H428 H 0.2031 0.12783 0.66255 0.0
H429 H 0.07704 0.27725 0.61624 0.0
H430 H 0.12908 0.2247 0.66549 0.0
H431 H 0.17131 0.20024 0.61365 0.0
C432 C 0.20165 0.151 0.62361 0.0
C433 C 0.21118 0.13001 0.63733 0.0
C434 C 0.11847 0.23713 0.65471 0.0
C435 C 0.16441 0.1967 0.63896 0.0
C436 C 0.08249 0.2574 0.65521 0.0
C437 C 0.06466 0.26961 0.64131 0.0
C438 C 0.13635 0.22888 0.64019 0.0
C439 C 0.08877 0.26713 0.62723 0.0
C440 C 0.17834 0.18439 0.62437 0.0
C441 C 0.19611 0.14277 0.65165 0.0
N442 N 0.1225 0.24585 0.62699 0.0
N443 N 0.17339 0.1752 0.65208 0.0
H444 H 0.79908 0.06537 0.16731 0.0
H445 H 0.06146 0.22162 0.11269 0.0
H446 H 0.79073 0.08399 0.11753 0.0
H447 H 0.06841 0.20535 0.16264 0.0
H448 H 0.96185 0.1783 0.11447 0.0
H449 H 0.89747 0.12912 0.16634 0.0
C450 C 0.81765 0.08404 0.15625 0.0
C451 C 0.78704 0.0683 0.14242 0.0
C452 C -0.01475 0.18426 0.12503 0.0
C453 C 0.89949 0.13987 0.14116 0.0
C454 C 0.04199 0.20831 0.12399 0.0
C455 C 0.07314 0.21662 0.13751 0.0
C456 C 0.95966 0.16836 0.13968 0.0
C457 C 0.04594 0.19941 0.15189 0.0
C458 C 0.87396 0.11998 0.15567 0.0
C459 C 0.8131 0.09413 0.12843 0.0
N460 N -0.00926 0.17603 0.15259 0.0
N461 N 0.86814 0.12784 0.12811 0.0
H462 H 0.68968 0.7912 0.61711 0.0
H463 H 0.85474 0.07211 0.66325 0.0
H464 H 0.7176 0.80258 0.66685 0.0
H465 H 0.83124 0.06155 0.6133 0.0
H466 H 0.79556 0.9734 0.66511 0.0
H467 H 0.72653 0.88991 0.61615 0.0
C468 C 0.7021 0.81423 0.62791 0.0
C469 C 0.70219 0.78901 0.64202 0.0
C470 C 0.80335 -0.00744 0.65373 0.0
C471 C 0.74544 0.90176 0.64092 0.0
C472 C 0.83769 0.0489 0.65263 0.0
C473 C 0.84828 0.07501 0.63806 0.0
C474 C 0.7795 0.96197 0.64018 0.0
C475 C 0.82466 0.04295 0.62473 0.0
C476 C 0.72365 0.87067 0.62732 0.0
C477 C 0.71778 0.82056 0.65567 0.0
N478 N 0.79128 0.98794 0.62611 0.0
N479 N 0.74002 0.87566 0.65473 0.0
H480 H 0.88865 0.69808 0.11703 0.0
H481 H 0.75886 0.84896 0.16396 0.0
H482 H 0.90593 0.72641 0.16674 0.0
H483 H 0.75495 0.83448 0.11374 0.0
H484 H 0.80137 0.79244 0.16558 0.0
H485 H 0.82383 0.73126 0.1163 0.0
C486 C 0.87768 0.70987 0.12787 0.0
C487 C 0.90378 0.71086 0.14192 0.0
C488 C 0.79124 0.80158 0.1542 0.0
C489 C 0.83067 0.74988 0.14108 0.0
C490 C 0.7674 0.83429 0.15324 0.0
C491 C 0.75388 0.84695 0.13866 0.0
C492 C 0.80175 0.78133 0.14049 0.0
C493 C 0.76536 0.8263 0.1252 0.0
C494 C 0.84105 0.7293 0.12741 0.0
C495 C 0.88741 0.72575 0.15562 0.0
N496 N 0.78878 0.79451 0.12644 0.0
N497 N 0.85267 0.74579 0.15481 0.0
H498 H 0.90584 0.75982 0.61297 0.0
H499 H 0.16949 0.91179 0.66727 0.0
H500 H 0.90008 0.77467 0.66301 0.0
H501 H 0.17668 0.89567 0.61734 0.0
H502 H 0.07099 0.84867 0.66639 0.0
H503 H 0.00538 0.80225 0.61454 0.0
C504 C 0.92556 0.77266 0.62425 0.0
C505 C 0.89474 0.76417 0.63786 0.0
C506 C 0.09426 0.85821 0.65565 0.0
C507 C 0.00818 0.8114 0.63979 0.0
C508 C 0.15065 0.89378 0.65618 0.0
C509 C 0.181 0.91013 0.6423 0.0
C510 C 0.06837 0.83927 0.64115 0.0
C511 C 0.15455 0.88507 0.62829 0.0
C512 C 0.98227 0.79619 0.62517 0.0
C513 C 0.92229 0.78078 0.6522 0.0
N514 N 0.09944 0.85173 0.62802 0.0
N515 N 0.97746 0.80364 0.65278 0.0
H516 H 0.06395 0.84002 0.41271 0.0
H517 H 0.79849 0.7333 0.35935 0.0
H518 H 0.06812 0.85007 0.3624 0.0
H519 H 0.79303 0.71533 0.40947 0.0
H520 H 0.89635 0.76517 0.35998 0.0
H521 H 0.96397 0.78765 0.41166 0.0
C522 C 0.04384 0.83161 0.40146 0.0
C523 C 0.07433 0.84988 0.38764 0.0
C524 C 0.87357 0.75345 0.37082 0.0
C525 C 0.96022 0.78929 0.38632 0.0
C526 C 0.81757 0.73479 0.37045 0.0
C527 C 0.78784 0.72278 0.38441 0.0
C528 C 0.89986 0.76039 0.38525 0.0
C529 C 0.8146 0.72507 0.39844 0.0
C530 C -0.01319 0.80125 0.40085 0.0
C531 C 0.04621 0.83718 0.37336 0.0
N532 N 0.86936 0.74457 0.39853 0.0
N533 N -0.00927 0.8078 0.37308 0.0
H534 H 0.05882 0.80401 0.85827 0.0
H535 H 0.21257 0.06688 0.91284 0.0
H536 H 0.07609 0.79578 0.90811 0.0
H537 H 0.19559 0.07319 0.86291 0.0
H538 H 0.16977 0.96723 0.91115 0.0
H539 H 0.12186 0.90253 0.85927 0.0
C540 C 0.07706 0.82264 0.86936 0.0
C541 C 0.06108 0.792 0.88319 0.0
C542 C 0.17545 -0.00949 0.90058 0.0
C543 C 0.13181 0.90462 0.88448 0.0
C544 C 0.19917 0.04726 0.90157 0.0
C545 C 0.20722 0.07824 0.88802 0.0
C546 C 0.15967 0.96478 0.88594 0.0
C547 C 0.1899 0.05085 0.87368 0.0
C548 C 0.11258 0.87903 0.86996 0.0
C549 C 0.08641 0.81816 0.8972 0.0
N550 N 0.16693 -0.00432 0.87302 0.0
N551 N 0.11968 0.87329 0.89755 0.0
H552 H 0.12702 0.20822 0.41289 0.0
H553 H 0.24638 0.06553 0.35792 0.0
H554 H 0.09772 0.18461 0.36326 0.0
H555 H 0.27267 0.08394 0.40773 0.0
H556 H 0.20543 0.12363 0.35909 0.0
H557 H 0.1873 0.16971 0.41101 0.0
C558 C 0.13241 0.19396 0.40166 0.0
C559 C 0.10728 0.19947 0.38822 0.0
C560 C 0.22102 0.11572 0.36973 0.0
C561 C 0.17729 0.15708 0.38591 0.0
C562 C 0.24509 0.08315 0.36903 0.0
C563 C 0.26121 0.06851 0.38283 0.0
C564 C 0.21312 0.13338 0.38431 0.0
C565 C 0.25935 0.09311 0.39686 0.0
C566 C 0.1675 0.17283 0.40055 0.0
C567 C 0.11622 0.18099 0.37393 0.0
N568 N 0.23435 0.1234 0.39731 0.0
N569 N 0.15071 0.16079 0.37315 0.0
H570 H 0.18132 0.28587 0.9076 0.0
H571 H 0.9006 0.11808 0.86149 0.0
H572 H 0.17034 0.25318 0.85813 0.0
H573 H 0.91126 0.14424 0.91133 0.0
H574 H -0.00064 0.17689 0.85958 0.0
H575 H 0.08269 0.24935 0.90834 0.0
C576 C 0.15839 0.27248 0.8968 0.0
C577 C 0.1837 0.27099 0.88286 0.0
C578 C 0.98019 0.16976 0.87095 0.0
C579 C 0.07101 0.22809 0.88371 0.0
C580 C 0.92383 0.13565 0.87208 0.0
C581 C 0.89774 0.1259 0.88663 0.0
C582 C 0.01081 0.19425 0.88445 0.0
C583 C 0.92983 0.15015 0.89992 0.0
C584 C 0.10199 0.2511 0.89727 0.0
C585 C 0.15229 0.25414 0.86918 0.0
N586 N -0.01516 0.18331 0.8985 0.0
N587 N 0.09721 0.23211 0.87002 0.0
H588 H 0.88251 0.19687 0.40986 0.0
H589 H 0.7562 0.91584 0.41488 0.0
H590 H 0.89841 0.17311 0.36081 0.0
H591 H 0.74301 0.91471 0.36467 0.0
H592 H 0.79869 0.01518 0.41458 0.0
H593 H 0.81476 0.10004 0.41224 0.0
C594 C 0.87091 0.17141 0.39952 0.0
C595 C 0.89741 0.19267 0.38522 0.0
C596 C 0.78556 -0.00657 0.40362 0.0
C597 C 0.8223 0.08119 0.38802 0.0
C598 C 0.7622 0.93657 0.4038 0.0
C599 C 0.74654 0.90699 0.38979 0.0
C600 C 0.79292 0.02081 0.38931 0.0
C601 C 0.75491 0.93586 0.37576 0.0
C602 C 0.83298 0.11572 0.40095 0.0
C603 C 0.87983 0.15824 0.37214 0.0
N604 N 0.77773 -0.00889 0.3759 0.0
N605 N 0.84424 0.10387 0.37393 0.0
H606 H 0.83728 0.76739 0.91312 0.0
H607 H 0.67734 0.88706 0.90706 0.0
H608 H 0.83382 0.76039 0.86277 0.0
H609 H 0.73126 0.9177 0.85912 0.0
H610 H 0.70926 0.82153 0.90907 0.0
H611 H 0.78152 0.81086 0.91231 0.0
C612 C 0.82474 0.77502 0.9019 0.0
C613 C 0.84047 0.76052 0.88801 0.0
C614 C 0.71438 0.84258 0.89811 0.0
C615 C 0.77417 0.80787 0.88693 0.0
C616 C 0.69503 0.87917 0.89686 0.0
C617 C 0.70304 0.90887 0.88303 0.0
C618 C 0.7427 0.83656 0.8855 0.0
C619 C 0.72502 0.89626 0.87008 0.0
C620 C 0.79181 0.79887 0.90142 0.0
C621 C 0.82291 0.77117 0.87379 0.0
N622 N 0.74517 0.86182 0.87174 0.0
N623 N 0.79086 0.79435 0.87363 0.0
H624 H 0.03492 0.57011 0.11423 0.0
H625 H 0.18987 0.44648 0.16163 0.0
H626 H 0.05031 0.5754 0.16443 0.0
H627 H 0.16767 0.43101 0.11165 0.0
H628 H 0.13259 0.48796 0.16282 0.0
H629 H 0.07167 0.50823 0.11319 0.0
C630 C 0.04457 0.55707 0.12508 0.0
C631 C 0.04102 0.57915 0.13942 0.0
C632 C 0.14017 0.47558 0.15157 0.0
C633 C 0.08409 0.50948 0.13825 0.0
C634 C 0.17345 0.45241 0.15085 0.0
C635 C 0.18387 0.43558 0.13649 0.0
C636 C 0.11725 0.48235 0.13783 0.0
C637 C 0.16112 0.44394 0.12294 0.0
C638 C 0.06605 0.52213 0.12445 0.0
C639 C 0.05335 0.56022 0.15309 0.0
N640 N 0.12882 0.46686 0.12394 0.0
N641 N 0.07545 0.52732 0.15214 0.0
H642 H 0.72648 0.16501 0.61054 0.0
H643 H 0.46155 0.04618 0.66479 0.0
H644 H 0.72962 0.18374 0.66061 0.0
H645 H 0.45447 0.03678 0.61447 0.0
H646 H 0.55964 0.08012 0.66353 0.0
H647 H 0.62668 0.10722 0.61172 0.0
C648 C 0.70617 0.15752 0.62174 0.0
C649 C 0.73633 0.17966 0.63547 0.0
C650 C 0.53648 0.06979 0.65277 0.0
C651 C 0.62274 0.11265 0.63695 0.0
C652 C 0.48029 0.04979 0.65349 0.0
C653 C 0.4501 0.04015 0.6397 0.0
C654 C 0.56244 0.08037 0.63816 0.0
C655 C 0.47645 0.04486 0.6254 0.0
C656 C 0.64935 0.12402 0.62243 0.0
C657 C 0.70804 0.16792 0.6497 0.0
N658 N 0.53147 0.06585 0.62498 0.0
N659 N 0.65288 0.13526 0.65006 0.0
H660 H 0.54833 0.73606 0.11032 0.0
H661 H 0.40434 0.47167 0.16491 0.0
H662 H 0.51963 0.7382 0.15976 0.0
H663 H 0.40922 0.46333 0.11466 0.0
H664 H 0.46523 0.57042 0.16346 0.0
H665 H 0.50889 0.63661 0.11174 0.0
C666 C 0.53293 0.71556 0.1214 0.0
C667 C 0.53697 0.74536 0.13492 0.0
C668 C 0.45368 0.54685 0.15276 0.0
C669 C 0.49368 0.63238 0.13672 0.0
C670 C 0.41946 0.49033 0.15359 0.0
C671 C 0.40029 0.45955 0.13985 0.0
C672 C 0.46853 0.57244 0.1381 0.0
C673 C 0.42195 0.4858 0.12553 0.0
C674 C 0.51121 0.65899 0.12225 0.0
C675 C 0.51718 0.71687 0.14902 0.0
N676 N 0.45399 0.54109 0.12499 0.0
N677 N 0.49657 0.66201 0.14955 0.0
H678 H 0.78131 0.53636 0.66175 0.0
H679 H 0.92969 0.40756 0.61359 0.0
H680 H 0.79896 0.54873 0.61161 0.0
H681 H 0.91889 0.40542 0.66388 0.0
H682 H 0.89373 0.47012 0.61267 0.0
H683 H 0.83815 0.49438 0.66265 0.0
C684 C 0.79665 0.52967 0.65088 0.0
C685 C 0.78502 0.54571 0.63656 0.0
C686 C 0.90018 0.45675 0.62391 0.0
C687 C 0.8511 0.49829 0.63755 0.0
C688 C 0.92119 0.4214 0.62447 0.0
C689 C 0.92585 0.40008 0.63883 0.0
C690 C 0.88371 0.47057 0.6378 0.0
C691 C 0.91498 0.42001 0.65254 0.0
C692 C 0.82967 0.5062 0.65143 0.0
C693 C 0.80645 0.53642 0.62289 0.0
N694 N 0.89332 0.45333 0.65166 0.0
N695 N 0.83848 0.51316 0.62372 0.0
H696 H 0.50743 0.93915 0.16384 0.0
H697 H 0.2404 0.81008 0.11024 0.0
H698 H 0.51282 0.93995 0.11348 0.0
H699 H 0.23943 0.79833 0.16051 0.0
H700 H 0.3402 0.86857 0.11098 0.0
H701 H 0.40918 0.90435 0.16261 0.0
C702 C 0.48828 0.93349 0.15252 0.0
C703 C 0.51808 0.94094 0.13875 0.0
C704 C 0.318 0.85313 0.12183 0.0
C705 C 0.40553 0.89968 0.13727 0.0
C706 C 0.26118 0.81923 0.1214 0.0
C707 C 0.23162 0.79886 0.13531 0.0
C708 C 0.3452 0.86673 0.13628 0.0
C709 C 0.26053 0.81272 0.14947 0.0
C710 C 0.432 0.91298 0.15182 0.0
C711 C 0.49119 0.93364 0.12441 0.0
N712 N 0.31565 0.84576 0.14957 0.0
N713 N 0.43609 0.91217 0.12403 0.0
H714 H 0.56304 0.50833 0.66515 0.0
H715 H 0.41988 0.24406 0.61055 0.0
H716 H 0.55954 0.51665 0.61487 0.0
H717 H 0.44257 0.24129 0.66032 0.0
H718 H 0.4602 0.34368 0.61188 0.0
H719 H 0.50127 0.40973 0.66371 0.0
C720 C 0.54809 0.4897 0.65383 0.0
C721 C 0.56779 0.52041 0.64008 0.0
C722 C 0.45634 0.32112 0.62248 0.0
C723 C 0.49854 0.40766 0.63834 0.0
C724 C 0.4341 0.26446 0.62169 0.0
C725 C 0.42823 0.23446 0.63532 0.0
C726 C 0.47258 0.34762 0.637 0.0
C727 C 0.44649 0.26279 0.6495 0.0
C728 C 0.51333 0.43326 0.653 0.0
C729 C 0.54636 0.49423 0.62575 0.0
N730 N 0.46772 0.31773 0.64996 0.0
N731 N 0.51379 0.43899 0.62522 0.0
H732 H 0.41475 0.95276 0.41075 0.0
H733 H 0.51189 0.77171 0.36579 0.0
H734 H 0.40705 0.93217 0.36072 0.0
H735 H 0.54603 0.81201 0.41464 0.0
H736 H 0.47614 0.83384 0.36391 0.0
H737 H 0.47295 0.9119 0.41229 0.0
C738 C 0.42676 0.94133 0.40003 0.0
C739 C 0.40435 0.94389 0.38563 0.0
C740 C 0.49135 0.82915 0.37507 0.0
C741 C 0.46956 0.8961 0.38738 0.0
C742 C 0.51101 0.79299 0.37621 0.0
C743 C 0.53183 0.78658 0.39042 0.0
C744 C 0.49201 0.85891 0.38825 0.0
C745 C 0.52987 0.81538 0.4035 0.0
C746 C 0.45951 0.91744 0.40094 0.0
C747 C 0.4222 0.9296 0.37211 0.0
N748 N 0.51035 0.85049 0.4021 0.0
N749 N 0.45265 0.9049 0.37335 0.0
H750 H 0.72814 0.55336 0.91509 0.0
H751 H 0.46407 0.40924 0.86047 0.0
H752 H 0.73063 0.52774 0.86547 0.0
H753 H 0.45555 0.41343 0.91073 0.0
H754 H 0.56264 0.47084 0.86192 0.0
H755 H 0.6286 0.51329 0.91371 0.0
C756 C 0.7077 0.53852 0.90397 0.0
C757 C 0.73759 0.54355 0.89039 0.0
C758 C 0.53908 0.45896 0.87263 0.0
C759 C 0.62456 0.49954 0.88866 0.0
C760 C 0.48266 0.42431 0.87179 0.0
C761 C 0.4519 0.40481 0.88553 0.0
C762 C 0.5646 0.47386 0.8873 0.0
C763 C 0.47801 0.42644 0.89985 0.0
C764 C 0.65109 0.51644 0.90316 0.0
C765 C 0.70921 0.5245 0.87625 0.0
N766 N 0.53324 0.45889 0.90041 0.0
N767 N 0.65433 0.50349 0.87576 0.0
H768 H 0.2095 0.74376 0.36461 0.0
H769 H 0.03974 0.46253 0.41033 0.0
H770 H 0.17046 0.73514 0.41363 0.0
H771 H 0.06782 0.47484 0.36058 0.0
H772 H 0.07906 0.5616 0.41154 0.0
H773 H 0.15484 0.64466 0.36303 0.0
C774 C 0.18996 0.72089 0.37512 0.0
C775 C 0.19455 0.74766 0.3893 0.0
C776 C 0.07576 0.54251 0.40033 0.0
C777 C 0.13095 0.63404 0.38748 0.0
C778 C 0.05288 0.48591 0.39959 0.0
C779 C 0.05176 0.46066 0.38537 0.0
C780 C 0.09772 0.57379 0.38676 0.0
C781 C 0.06863 0.49273 0.37182 0.0
C782 C 0.15821 0.66428 0.37415 0.0
C783 C 0.16829 0.716 0.40251 0.0
N784 N 0.09194 0.54789 0.3729 0.0
N785 N 0.13737 0.66064 0.40127 0.0
H786 H 0.55871 0.03011 0.91129 0.0
H787 H 0.42897 0.18323 0.91577 0.0
H788 H 0.57338 0.06718 0.86206 0.0
H789 H 0.42945 0.18099 0.86539 0.0
H790 H 0.47295 0.12792 0.91592 0.0
H791 H 0.49547 0.06441 0.91384 0.0
C792 C 0.54784 0.04466 0.90095 0.0
C793 C 0.57251 0.04721 0.88652 0.0
C794 C 0.46284 0.13859 0.9048 0.0
C795 C 0.50231 0.08936 0.88946 0.0
C796 C 0.43855 0.1712 0.90474 0.0
C797 C 0.42581 0.187 0.89056 0.0
C798 C 0.47398 0.12134 0.89054 0.0
C799 C 0.43878 0.17004 0.87662 0.0
C800 C 0.51241 0.06535 0.90247 0.0
C801 C 0.55608 0.06529 0.87347 0.0
N802 N 0.4621 0.13819 0.87698 0.0
N803 N 0.52281 0.08668 0.87533 0.0
H804 H 0.23344 0.39132 0.36378 0.0
H805 H 0.51169 0.56859 0.36025 0.0
H806 H 0.24732 0.44203 0.41186 0.0
H807 H 0.50912 0.56662 0.41061 0.0
H808 H 0.41517 0.50151 0.36005 0.0
H809 H 0.33178 0.43333 0.36229 0.0
C810 C 0.25741 0.41239 0.37399 0.0
C811 C 0.23209 0.41431 0.38788 0.0
C812 C 0.43548 0.51389 0.37122 0.0
C813 C 0.34614 0.46449 0.38612 0.0
C814 C 0.49117 0.55253 0.3713 0.0
C815 C 0.5184 0.57408 0.38545 0.0
C816 C 0.40677 0.49643 0.38543 0.0
C817 C 0.48961 0.55167 0.3994 0.0
C818 C 0.31404 0.43672 0.3731 0.0
C819 C 0.26524 0.44046 0.40085 0.0
N820 N 0.43508 0.5149 0.39903 0.0
N821 N 0.32068 0.46501 0.3996 0.0
H822 H 0.92889 0.51248 0.86113 0.0
H823 H 0.80577 0.24598 0.91489 0.0
H824 H 0.93435 0.5183 0.91148 0.0
H825 H 0.78996 0.24455 0.86474 0.0
H826 H 0.86414 0.34582 0.91398 0.0
H827 H 0.89509 0.41436 0.8623 0.0
C828 C 0.92444 0.49345 0.87243 0.0
C829 C 0.93287 0.52327 0.88623 0.0
C830 C 0.84785 0.3235 0.9032 0.0
C831 C 0.89278 0.41091 0.88766 0.0
C832 C 0.81401 0.26667 0.90373 0.0
C833 C 0.79251 0.23699 0.88989 0.0
C834 C 0.86021 0.35058 0.88873 0.0
C835 C 0.80524 0.26575 0.87572 0.0
C836 C 0.90453 0.43726 0.8731 0.0
C837 C 0.92718 0.49659 0.90054 0.0
N838 N 0.83821 0.32089 0.87552 0.0
N839 N 0.90623 0.44155 0.9009 0.0
H840 H 0.02848 0.27428 0.29342 0.0
H841 H 0.27449 0.37993 0.23158 0.0
H842 H 0.19891 0.37595 0.30566 0.0
H843 H 0.10508 0.268 0.22021 0.0
H844 H 0.24773 0.3803 0.25873 0.0
H845 H 0.05547 0.27503 0.26623 0.0
C846 C 0.07151 0.29718 0.29036 0.0
C847 C 0.11148 0.32477 0.30185 0.0
C848 C 0.21644 0.35562 0.25029 0.0
C849 C 0.14281 0.32532 0.27081 0.0
C850 C 0.23178 0.35508 0.23481 0.0
C851 C 0.19198 0.32421 0.22355 0.0
C852 C 0.16089 0.32505 0.25456 0.0
C853 C 0.13709 0.29325 0.22841 0.0
C854 C 0.08697 0.29724 0.27487 0.0
C855 C 0.16674 0.35336 0.29724 0.0
N856 N 0.1232 0.2946 0.2435 0.0
N857 N 0.18075 0.3528 0.28211 0.0
H858 H 0.8787 0.28029 0.73052 0.0
H859 H 0.74677 0.03925 0.79413 0.0
H860 H 0.82874 0.11151 0.72069 0.0
H861 H 0.80023 0.2085 0.80446 0.0
H862 H 0.77427 0.06466 0.76695 0.0
H863 H 0.85068 0.25515 0.75771 0.0
C864 C 0.86232 0.23808 0.7341 0.0
C865 C 0.85573 0.19792 0.72327 0.0
C866 C 0.77989 0.09624 0.77516 0.0
C867 C 0.82284 0.16866 0.75431 0.0
C868 C 0.76373 0.08164 0.79065 0.0
C869 C 0.77143 0.1218 0.80162 0.0
C870 C 0.80382 0.15142 0.77057 0.0
C871 C 0.79431 0.17627 0.79647 0.0
C872 C 0.84591 0.22364 0.7496 0.0
C873 C 0.83369 0.1437 0.72856 0.0
N874 N 0.80979 0.18947 0.78135 0.0
N875 N 0.81794 0.13068 0.74365 0.0
H876 H 0.67733 0.8038 0.21894 0.0
H877 H 0.67616 0.87707 0.30748 0.0
H878 H 0.62196 0.91514 0.23316 0.0
H879 H 0.62554 0.71132 0.29315 0.0
H880 H 0.67564 0.90158 0.28027 0.0
H881 H 0.67778 0.77945 0.24616 0.0
C882 C 0.66474 0.82292 0.22767 0.0
C883 C 0.64852 0.86106 0.22353 0.0
C884 C 0.66462 0.85989 0.28316 0.0
C885 C 0.65151 0.83466 0.2549 0.0
C886 C 0.66444 0.8455 0.29872 0.0
C887 C 0.6499 0.79149 0.30284 0.0
C888 C 0.65174 0.82062 0.27149 0.0
C889 C 0.63751 0.75349 0.29069 0.0
C890 C 0.6655 0.80914 0.24325 0.0
C891 C 0.63514 0.88592 0.23565 0.0
N892 N 0.63894 0.76885 0.27557 0.0
N893 N 0.63714 0.87244 0.25079 0.0
H894 H 0.691 0.59087 0.73116 0.0
H895 H 0.93159 0.70488 0.79488 0.0
H896 H 0.85902 0.71221 0.72133 0.0
H897 H 0.7643 0.58143 0.8047 0.0
H898 H 0.90595 0.7072 0.76776 0.0
H899 H 0.71649 0.58792 0.7583 0.0
C900 C 0.73311 0.61725 0.73474 0.0
C901 C 0.77297 0.65157 0.72393 0.0
C902 C 0.87486 0.67949 0.77584 0.0
C903 C 0.80264 0.64794 0.7549 0.0
C904 C 0.88961 0.67783 0.7913 0.0
C905 C 0.85002 0.64312 0.80211 0.0
C906 C 0.8201 0.64616 0.77113 0.0
C907 C 0.79603 0.60949 0.79683 0.0
C908 C 0.74776 0.61524 0.7502 0.0
C909 C 0.82708 0.68446 0.7292 0.0
N910 N 0.78265 0.61196 0.78175 0.0
N911 N 0.84031 0.68173 0.74427 0.0
H912 H 0.09453 0.70162 0.2305 0.0
H913 H 0.22018 0.9416 0.29443 0.0
H914 H 0.13972 0.86934 0.22089 0.0
H915 H 0.17798 0.77466 0.304 0.0
H916 H 0.19207 0.9161 0.26731 0.0
H917 H 0.12331 0.72703 0.25762 0.0
C918 C 0.11002 0.74364 0.23412 0.0
C919 C 0.11502 0.78344 0.22338 0.0
C920 C 0.18908 0.88506 0.27534 0.0
C921 C 0.14871 0.81303 0.25433 0.0
C922 C 0.20558 0.89974 0.2908 0.0
C923 C 0.2012 0.86019 0.30154 0.0
C924 C 0.16807 0.83043 0.27056 0.0
C925 C 0.18125 0.80634 0.29619 0.0
C926 C 0.12687 0.75825 0.24957 0.0
C927 C 0.13596 0.83745 0.2287 0.0
N928 N 0.1653 0.79304 0.28111 0.0
N929 N 0.1521 0.85064 0.24376 0.0
H930 H 0.25936 0.10979 0.80509 0.0
H931 H 0.39112 0.20929 0.72029 0.0
H932 H 0.3805 0.27709 0.79433 0.0
H933 H 0.26907 0.04236 0.73111 0.0
H934 H 0.38866 0.23469 0.74737 0.0
H935 H 0.2625 0.08449 0.77806 0.0
C936 C 0.28673 0.14125 0.79703 0.0
C937 C 0.32007 0.19563 0.80203 0.0
C938 C 0.36249 0.19247 0.74385 0.0
C939 C 0.32364 0.16686 0.77096 0.0
C940 C 0.36376 0.17792 0.72837 0.0
C941 C 0.32994 0.12362 0.72338 0.0
C942 C 0.32712 0.1525 0.75449 0.0
C943 C 0.29613 0.08458 0.73445 0.0
C944 C 0.28838 0.12676 0.78158 0.0
C945 C 0.35386 0.23479 0.79098 0.0
N946 N 0.29539 0.09984 0.74946 0.0
N947 N 0.35497 0.21959 0.77598 0.0
H948 H 0.25669 0.18676 0.97777 0.0
H949 H 0.2651 0.38064 0.04625 0.0
H950 H 0.33511 0.36257 0.97233 0.0
H951 H 0.26624 0.23073 0.05517 0.0
H952 H 0.27571 0.36972 0.01825 0.0
H953 H 0.24633 0.19755 1.00559 0.0
C954 C 0.2722 0.22767 0.98235 0.0
C955 C 0.29694 0.2738 0.97252 0.0
C956 C 0.27363 0.33928 0.02636 0.0
C957 C 0.28338 0.28597 1.00438 0.0
C958 C 0.26726 0.34532 0.04227 0.0
C959 C 0.26499 0.30659 0.05296 0.0
C960 C 0.27658 0.29364 0.02114 0.0
C961 C 0.26827 0.26167 0.04727 0.0
C962 C 0.26583 0.23365 0.99825 0.0
C963 C 0.31478 0.32558 0.97926 0.0
N964 N 0.27357 0.2562 0.03172 0.0
N965 N 0.30734 0.3302 0.99472 0.0
H966 H 0.02565 0.22841 0.47506 0.0
H967 H 0.96391 0.3513 0.55137 0.0
H968 H 0.00933 0.37255 0.47452 0.0
H969 H 0.93881 0.18743 0.54926 0.0
H970 H -0.01241 0.36303 0.52365 0.0
H971 H 0.0017 0.21627 0.50281 0.0
C972 C 0.01745 0.25773 0.48082 0.0
C973 C 0.01947 0.30156 0.47249 0.0
C974 C 0.97671 0.32442 0.52923 0.0
C975 C -0.00821 0.28778 0.50416 0.0
C976 C 0.9634 0.31779 0.54505 0.0
C977 C 0.94945 0.26834 0.55261 0.0
C978 C 0.97667 0.28151 0.52091 0.0
C979 C 0.94888 0.22604 0.54384 0.0
C980 C 0.00336 0.25053 0.49661 0.0
C981 C 0.00777 0.33794 0.48048 0.0
N982 N 0.96265 0.23371 0.52847 0.0
N983 N -0.00539 0.33034 0.49587 0.0
H984 H 0.75499 0.03663 0.0557 0.0
H985 H 0.61587 0.97373 0.97218 0.0
H986 H 0.60323 0.88808 0.04603 0.0
H987 H 0.7918 0.06657 0.97778 0.0
H988 H 0.60682 0.95139 0.99988 0.0
H989 H 0.76567 0.05805 0.02772 0.0
C990 C 0.72398 0.00859 0.04765 0.0
C991 C 0.67821 0.96053 0.0531 0.0
C992 C 0.64734 0.97657 0.99499 0.0
C993 C 0.68973 0.98504 0.02127 0.0
C994 C 0.65272 0.98921 0.97912 0.0
C995 C 0.70483 0.02182 0.97243 0.0
C996 C 0.69421 -0.0025 1.00439 0.0
C997 C 0.75072 0.04196 0.98232 0.0
C998 C 0.73018 0.02069 0.03174 0.0
C999 C 0.63926 0.92535 0.04224 0.0
N1000 N 0.74432 0.02965 0.9978 0.0
N1001 N 0.64562 0.93855 0.02683 0.0
H1002 H 0.70338 0.60281 0.5466 0.0
H1003 H 0.70462 0.7953 0.47867 0.0
H1004 H 0.6993 0.75093 0.55599 0.0
H1005 H 0.63031 0.61992 0.47307 0.0
H1006 H 0.71625 0.78469 0.50643 0.0
H1007 H 0.6916 0.61383 0.51868 0.0
C1008 C 0.70036 0.63779 0.54274 0.0
C1009 C 0.7021 0.67595 0.55353 0.0
C1010 C 0.69736 0.74864 0.49907 0.0
C1011 C 0.6891 0.68899 0.52181 0.0
C1012 C 0.69027 0.75451 0.48321 0.0
C1013 C 0.66638 0.70845 0.47335 0.0
C1014 C 0.68137 0.69654 0.50512 0.0
C1015 C 0.64997 0.65687 0.48002 0.0
C1016 C 0.69331 0.64387 0.52688 0.0
C1017 C 0.69769 0.72043 0.54801 0.0
N1018 N 0.6581 0.65238 0.49544 0.0
N1019 N 0.6917 0.72594 0.5325 0.0
H1020 H 0.02954 0.75848 0.96957 0.0
H1021 H 0.9683 0.62008 0.0532 0.0
H1022 H 0.88142 0.60652 0.97946 0.0
H1023 H 0.06093 0.796 0.04736 0.0
H1024 H 0.94547 0.61061 0.02552 0.0
H1025 H 0.05147 0.76934 0.99751 0.0
C1026 C 0.00171 0.72746 0.97766 0.0
C1027 C 0.95363 0.68158 0.97229 0.0
C1028 C 0.97073 0.65122 0.03036 0.0
C1029 C 0.97869 0.69331 1.00406 0.0
C1030 C 0.98364 0.65683 0.0462 0.0
C1031 C 0.01635 0.70907 0.05281 0.0
C1032 C -0.00855 0.69799 0.02091 0.0
C1033 C 0.03628 0.75484 0.04287 0.0
C1034 C 0.0141 0.73376 0.99355 0.0
C1035 C 0.9187 0.64261 0.9832 0.0
N1036 N 0.02368 0.74821 0.02742 0.0
N1037 N 0.93218 0.64909 0.99858 0.0
H1038 H 0.26608 0.03672 0.46948 0.0
H1039 H 0.33715 0.96981 0.55331 0.0
H1040 H 0.26839 0.88774 0.47902 0.0
H1041 H 0.25892 0.06687 0.54719 0.0
H1042 H 0.32482 0.948 0.52556 0.0
H1043 H 0.27635 0.05755 0.49747 0.0
C1044 C 0.26882 0.00848 0.4775 0.0
C1045 C 0.26638 0.96046 0.472 0.0
C1046 C 0.31033 0.974 0.53035 0.0
C1047 C 0.2787 0.98425 0.50388 0.0
C1048 C 0.31705 0.98634 0.54624 0.0
C1049 C 0.29871 0.02005 0.55279 0.0
C1050 C 0.28604 -0.00375 0.5208 0.0
C1051 C 0.27451 0.04141 0.54275 0.0
C1052 C 0.27442 0.02024 0.49343 0.0
C1053 C 0.26976 0.925 0.48284 0.0
N1054 N 0.26909 0.02933 0.52727 0.0
N1055 N 0.27623 0.93783 0.49828 0.0
loop_
_geom_bond_atom_site_label_1
_geom_bond_atom_site_label_2
_geom_bond_distance
_geom_bond_site_symmetry_2
_ccdc_geom_bond_type
C0 O16 1.251 . S
C0 O18 1.254 . S
N1 C2 1.333 . S
N1 C6 1.307 . S
N1 Zn7 2.020 . S
C2 N1 1.333 . S
C2 C3 1.379 . S
C2 H20 0.952 . S
C3 C2 1.379 . S
C3 C4 1.390 . S
C3 H30 0.949 . S
C4 C3 1.390 . S
C4 C5 1.357 . S
C5 C4 1.357 . S
C5 C6 1.370 . S
C5 H31 0.950 . S
C6 N1 1.307 . S
C6 C5 1.370 . S
C6 H24 0.948 . S
Zn7 N1 2.020 . S
Zn7 O16 2.039 . S
Zn7 O22 2.034 . S
Zn7 O26 2.025 . S
Zn7 O28 2.024 . S
C8 O27 1.246 . S
C8 O28 1.249 . S
N9 C10 1.307 . S
N9 C11 1.333 . S
N9 Zn15 2.020 . S
C10 N9 1.307 . S
C10 C14 1.370 . S
C10 H21 0.948 . S
C11 N9 1.333 . S
C11 C12 1.379 . S
C11 H19 0.952 . S
C12 C11 1.379 . S
C12 C13 1.390 . S
C12 H32 0.949 . S
C13 C12 1.390 . S
C13 C14 1.357 . S
C14 C10 1.370 . S
C14 C13 1.357 . S
C14 H33 0.950 . S
Zn15 N9 2.020 . S
Zn15 O18 2.025 . S
Zn15 O23 2.024 . S
Zn15 O25 2.039 . S
Zn15 O27 2.034 . S
O16 C0 1.251 . S
O16 Zn7 2.039 . S
C17 O22 1.246 . S
C17 O23 1.249 . S
O18 C0 1.254 . S
O18 Zn15 2.025 . S
H19 C11 0.952 . S
H20 C2 0.952 . S
H21 C10 0.948 . S
O22 Zn7 2.034 . S
O22 C17 1.246 . S
O23 Zn15 2.024 . S
O23 C17 1.249 . S
H24 C6 0.948 . S
O25 Zn15 2.039 . S
O25 C29 1.251 . S
O26 Zn7 2.025 . S
O26 C29 1.254 . S
O27 C8 1.246 . S
O27 Zn15 2.034 . S
O28 Zn7 2.024 . S
O28 C8 1.249 . S
C29 O25 1.251 . S
C29 O26 1.254 . S
H30 C3 0.949 . S
H31 C5 0.950 . S
H32 C12 0.949 . S
H33 C14 0.950 . S
C34 O50 1.251 . S
C34 O52 1.254 . S
N35 C36 1.333 . S
N35 C40 1.307 . S
N35 Zn41 2.020 . S
C36 N35 1.333 . S
C36 C37 1.379 . S
C36 H54 0.952 . S
C37 C36 1.379 . S
C37 C38 1.390 . S
C37 H64 0.949 . S
C38 C37 1.390 . S
C38 C39 1.357 . S
C39 C38 1.357 . S
C39 C40 1.370 . S
C39 H65 0.950 . S
C40 N35 1.307 . S
C40 C39 1.370 . S
C40 H58 0.948 . S
Zn41 N35 2.020 . S
Zn41 O50 2.039 . S
Zn41 O56 2.034 . S
Zn41 O60 2.025 . S
Zn41 O62 2.024 . S
C42 O61 1.246 . S
C42 O62 1.249 . S
N43 C44 1.307 . S
N43 C45 1.333 . S
N43 Zn49 2.020 . S
C44 N43 1.307 . S
C44 C48 1.370 . S
C44 H55 0.948 . S
C45 N43 1.333 . S
C45 C46 1.379 . S
C45 H53 0.952 . S
C46 C45 1.379 . S
C46 C47 1.390 . S
C46 H66 0.949 . S
C47 C46 1.390 . S
C47 C48 1.357 . S
C48 C44 1.370 . S
C48 C47 1.357 . S
C48 H67 0.950 . S
Zn49 N43 2.020 . S
Zn49 O52 2.025 . S
Zn49 O57 2.024 . S
Zn49 O59 2.039 . S
Zn49 O61 2.034 . S
O50 C34 1.251 . S
O50 Zn41 2.039 . S
C51 O56 1.246 . S
C51 O57 1.249 . S
O52 C34 1.254 . S
O52 Zn49 2.025 . S
H53 C45 0.952 . S
H54 C36 0.952 . S
H55 C44 0.948 . S
O56 Zn41 2.034 . S
O56 C51 1.246 . S
O57 Zn49 2.024 . S
O57 C51 1.249 . S
H58 C40 0.948 . S
O59 Zn49 2.039 . S
O59 C63 1.251 . S
O60 Zn41 2.025 . S
O60 C63 1.254 . S
O61 C42 1.246 . S
O61 Zn49 2.034 . S
O62 Zn41 2.024 . S
O62 C42 1.249 . S
C63 O59 1.251 . S
C63 O60 1.254 . S
H64 C37 0.949 . S
H65 C39 0.950 . S
H66 C46 0.949 . S
H67 C48 0.950 . S
C68 O84 1.251 . S
C68 O86 1.254 . S
N69 C70 1.333 . S
N69 C74 1.307 . S
N69 Zn75 2.020 . S
C70 N69 1.333 . S
C70 C71 1.379 . S
C70 H88 0.952 . S
C71 C70 1.379 . S
C71 C72 1.390 . S
C71 H98 0.949 . S
C72 C71 1.390 . S
C72 C73 1.357 . S
C73 C72 1.357 . S
C73 C74 1.370 . S
C73 H99 0.950 . S
C74 N69 1.307 . S
C74 C73 1.370 . S
C74 H92 0.948 . S
Zn75 N69 2.020 . S
Zn75 O84 2.039 . S
Zn75 O90 2.034 . S
Zn75 O94 2.025 . S
Zn75 O96 2.024 . S
C76 O95 1.246 . S
C76 O96 1.249 . S
N77 C78 1.307 . S
N77 C79 1.333 . S
N77 Zn83 2.020 . S
C78 N77 1.307 . S
C78 C82 1.370 . S
C78 H89 0.948 . S
C79 N77 1.333 . S
C79 C80 1.379 . S
C79 H87 0.952 . S
C80 C79 1.379 . S
C80 C81 1.390 . S
C80 H100 0.949 . S
C81 C80 1.390 . S
C81 C82 1.357 . S
C82 C78 1.370 . S
C82 C81 1.357 . S
C82 H101 0.950 . S
Zn83 N77 2.020 . S
Zn83 O86 2.025 . S
Zn83 O91 2.024 . S
Zn83 O93 2.039 . S
Zn83 O95 2.034 . S
O84 C68 1.251 . S
O84 Zn75 2.039 . S
C85 O90 1.246 . S
C85 O91 1.249 . S
O86 C68 1.254 . S
O86 Zn83 2.025 . S
H87 C79 0.952 . S
H88 C70 0.952 . S
H89 C78 0.948 . S
O90 Zn75 2.034 . S
O90 C85 1.246 . S
O91 Zn83 2.024 . S
O91 C85 1.249 . S
H92 C74 0.948 . S
O93 Zn83 2.039 . S
O93 C97 1.251 . S
O94 Zn75 2.025 . S
O94 C97 1.254 . S
O95 C76 1.246 . S
O95 Zn83 2.034 . S
O96 Zn75 2.024 . S
O96 C76 1.249 . S
C97 O93 1.251 . S
C97 O94 1.254 . S
H98 C71 0.949 . S
H99 C73 0.950 . S
H100 C80 0.949 . S
H101 C82 0.950 . S
C102 O118 1.251 . S
C102 O120 1.254 . S
N103 C104 1.333 . S
N103 C108 1.307 . S
N103 Zn109 2.020 . S
C104 N103 1.333 . S
C104 C105 1.379 . S
C104 H122 0.952 . S
C105 C104 1.379 . S
C105 C106 1.390 . S
C105 H132 0.949 . S
C106 C105 1.390 . S
C106 C107 1.357 . S
C107 C106 1.357 . S
C107 C108 1.370 . S
C107 H133 0.950 . S
C108 N103 1.307 . S
C108 C107 1.370 . S
C108 H126 0.948 . S
Zn109 N103 2.020 . S
Zn109 O118 2.039 . S
Zn109 O124 2.034 . S
Zn109 O128 2.025 . S
Zn109 O130 2.024 . S
C110 O129 1.246 . S
C110 O130 1.249 . S
N111 C112 1.307 . S
N111 C113 1.333 . S
N111 Zn117 2.020 . S
C112 N111 1.307 . S
C112 C116 1.370 . S
C112 H123 0.948 . S
C113 N111 1.333 . S
C113 C114 1.379 . S
C113 H121 0.952 . S
C114 C113 1.379 . S
C114 C115 1.390 . S
C114 H134 0.949 . S
C115 C114 1.390 . S
C115 C116 1.357 . S
C116 C112 1.370 . S
C116 C115 1.357 . S
C116 H135 0.950 . S
Zn117 N111 2.020 . S
Zn117 O120 2.025 . S
Zn117 O125 2.024 . S
Zn117 O127 2.039 . S
Zn117 O129 2.034 . S
O118 C102 1.251 . S
O118 Zn109 2.039 . S
C119 O124 1.246 . S
C119 O125 1.249 . S
O120 C102 1.254 . S
O120 Zn117 2.025 . S
H121 C113 0.952 . S
H122 C104 0.952 . S
H123 C112 0.948 . S
O124 Zn109 2.034 . S
O124 C119 1.246 . S
O125 Zn117 2.024 . S
O125 C119 1.249 . S
H126 C108 0.948 . S
O127 Zn117 2.039 . S
O127 C131 1.251 . S
O128 Zn109 2.025 . S
O128 C131 1.254 . S
O129 C110 1.246 . S
O129 Zn117 2.034 . S
O130 Zn109 2.024 . S
O130 C110 1.249 . S
C131 O127 1.251 . S
C131 O128 1.254 . S
H132 C105 0.949 . S
H133 C107 0.950 . S
H134 C114 0.949 . S
H135 C116 0.950 . S
C136 O152 1.251 . S
C136 O154 1.254 . S
N137 C138 1.333 . S
N137 C142 1.307 . S
N137 Zn143 2.020 . S
C138 N137 1.333 . S
C138 C139 1.379 . S
C138 H156 0.952 . S
C139 C138 1.379 . S
C139 C140 1.390 . S
C139 H166 0.949 . S
C140 C139 1.390 . S
C140 C141 1.357 . S
C141 C140 1.357 . S
C141 C142 1.370 . S
C141 H167 0.950 . S
C142 N137 1.307 . S
C142 C141 1.370 . S
C142 H160 0.948 . S
Zn143 N137 2.020 . S
Zn143 O152 2.039 . S
Zn143 O158 2.034 . S
Zn143 O162 2.025 . S
Zn143 O164 2.024 . S
C144 O163 1.246 . S
C144 O164 1.249 . S
N145 C146 1.307 . S
N145 C147 1.333 . S
N145 Zn151 2.020 . S
C146 N145 1.307 . S
C146 C150 1.370 . S
C146 H157 0.948 . S
C147 N145 1.333 . S
C147 C148 1.379 . S
C147 H155 0.952 . S
C148 C147 1.379 . S
C148 C149 1.390 . S
C148 H168 0.949 . S
C149 C148 1.390 . S
C149 C150 1.357 . S
C150 C146 1.370 . S
C150 C149 1.357 . S
C150 H169 0.950 . S
Zn151 N145 2.020 . S
Zn151 O154 2.025 . S
Zn151 O159 2.024 . S
Zn151 O161 2.039 . S
Zn151 O163 2.034 . S
O152 C136 1.251 . S
O152 Zn143 2.039 . S
C153 O158 1.246 . S
C153 O159 1.249 . S
O154 C136 1.254 . S
O154 Zn151 2.025 . S
H155 C147 0.952 . S
H156 C138 0.952 . S
H157 C146 0.948 . S
O158 Zn143 2.034 . S
O158 C153 1.246 . S
O159 Zn151 2.024 . S
O159 C153 1.249 . S
H160 C142 0.948 . S
O161 Zn151 2.039 . S
O161 C165 1.251 . S
O162 Zn143 2.025 . S
O162 C165 1.254 . S
O163 C144 1.246 . S
O163 Zn151 2.034 . S
O164 Zn143 2.024 . S
O164 C144 1.249 . S
C165 O161 1.251 . S
C165 O162 1.254 . S
H166 C139 0.949 . S
H167 C141 0.950 . S
H168 C148 0.949 . S
H169 C150 0.950 . S
C170 O186 1.251 . S
C170 O188 1.254 . S
N171 C172 1.333 . S
N171 C176 1.307 . S
N171 Zn177 2.020 . S
C172 N171 1.333 . S
C172 C173 1.379 . S
C172 H190 0.952 . S
C173 C172 1.379 . S
C173 C174 1.390 . S
C173 H200 0.949 . S
C174 C173 1.390 . S
C174 C175 1.357 . S
C175 C174 1.357 . S
C175 C176 1.370 . S
C175 H201 0.950 . S
C176 N171 1.307 . S
C176 C175 1.370 . S
C176 H194 0.948 . S
Zn177 N171 2.020 . S
Zn177 O186 2.039 . S
Zn177 O192 2.034 . S
Zn177 O196 2.025 . S
Zn177 O198 2.024 . S
C178 O197 1.246 . S
C178 O198 1.249 . S
N179 C180 1.307 . S
N179 C181 1.333 . S
N179 Zn185 2.020 . S
C180 N179 1.307 . S
C180 C184 1.370 . S
C180 H191 0.948 . S
C181 N179 1.333 . S
C181 C182 1.379 . S
C181 H189 0.952 . S
C182 C181 1.379 . S
C182 C183 1.390 . S
C182 H202 0.949 . S
C183 C182 1.390 . S
C183 C184 1.357 . S
C184 C180 1.370 . S
C184 C183 1.357 . S
C184 H203 0.950 . S
Zn185 N179 2.020 . S
Zn185 O188 2.025 . S
Zn185 O193 2.024 . S
Zn185 O195 2.039 . S
Zn185 O197 2.034 . S
O186 C170 1.251 . S
O186 Zn177 2.039 . S
C187 O192 1.246 . S
C187 O193 1.249 . S
O188 C170 1.254 . S
O188 Zn185 2.025 . S
H189 C181 0.952 . S
H190 C172 0.952 . S
H191 C180 0.948 . S
O192 Zn177 2.034 . S
O192 C187 1.246 . S
O193 Zn185 2.024 . S
O193 C187 1.249 . S
H194 C176 0.948 . S
O195 Zn185 2.039 . S
O195 C199 1.251 . S
O196 Zn177 2.025 . S
O196 C199 1.254 . S
O197 C178 1.246 . S
O197 Zn185 2.034 . S
O198 Zn177 2.024 . S
O198 C178 1.249 . S
C199 O195 1.251 . S
C199 O196 1.254 . S
H200 C173 0.949 . S
H201 C175 0.950 . S
H202 C182 0.949 . S
H203 C184 0.950 . S
C204 O220 1.251 . S
C204 O222 1.254 . S
N205 C206 1.333 . S
N205 C210 1.307 . S
N205 Zn211 2.020 . S
C206 N205 1.333 . S
C206 C207 1.379 . S
C206 H224 0.952 . S
C207 C206 1.379 . S
C207 C208 1.390 . S
C207 H234 0.949 . S
C208 C207 1.390 . S
C208 C209 1.357 . S
C209 C208 1.357 . S
C209 C210 1.370 . S
C209 H235 0.950 . S
C210 N205 1.307 . S
C210 C209 1.370 . S
C210 H228 0.948 . S
Zn211 N205 2.020 . S
Zn211 O220 2.039 . S
Zn211 O226 2.034 . S
Zn211 O230 2.025 . S
Zn211 O232 2.024 . S
C212 O231 1.246 . S
C212 O232 1.249 . S
N213 C214 1.307 . S
N213 C215 1.333 . S
N213 Zn219 2.020 . S
C214 N213 1.307 . S
C214 C218 1.370 . S
C214 H225 0.948 . S
C215 N213 1.333 . S
C215 C216 1.379 . S
C215 H223 0.952 . S
C216 C215 1.379 . S
C216 C217 1.390 . S
C216 H236 0.949 . S
C217 C216 1.390 . S
C217 C218 1.357 . S
C218 C214 1.370 . S
C218 C217 1.357 . S
C218 H237 0.950 . S
Zn219 N213 2.020 . S
Zn219 O222 2.025 . S
Zn219 O227 2.024 . S
Zn219 O229 2.039 . S
Zn219 O231 2.034 . S
O220 C204 1.251 . S
O220 Zn211 2.039 . S
C221 O226 1.246 . S
C221 O227 1.249 . S
O222 C204 1.254 . S
O222 Zn219 2.025 . S
H223 C215 0.952 . S
H224 C206 0.952 . S
H225 C214 0.948 . S
O226 Zn211 2.034 . S
O226 C221 1.246 . S
O227 Zn219 2.024 . S
O227 C221 1.249 . S
H228 C210 0.948 . S
O229 Zn219 2.039 . S
O229 C233 1.251 . S
O230 Zn211 2.025 . S
O230 C233 1.254 . S
O231 C212 1.246 . S
O231 Zn219 2.034 . S
O232 Zn211 2.024 . S
O232 C212 1.249 . S
C233 O229 1.251 . S
C233 O230 1.254 . S
H234 C207 0.949 . S
H235 C209 0.950 . S
H236 C216 0.949 . S
H237 C218 0.950 . S
C238 O254 1.251 . S
C238 O256 1.254 . S
N239 C240 1.333 . S
N239 C244 1.307 . S
N239 Zn245 2.020 . S
C240 N239 1.333 . S
C240 C241 1.379 . S
C240 H258 0.952 . S
C241 C240 1.379 . S
C241 C242 1.390 . S
C241 H268 0.949 . S
C242 C241 1.390 . S
C242 C243 1.357 . S
C243 C242 1.357 . S
C243 C244 1.370 . S
C243 H269 0.950 . S
C244 N239 1.307 . S
C244 C243 1.370 . S
C244 H262 0.948 . S
Zn245 N239 2.020 . S
Zn245 O254 2.039 . S
Zn245 O260 2.034 . S
Zn245 O264 2.025 . S
Zn245 O266 2.024 . S
C246 O265 1.246 . S
C246 O266 1.249 . S
N247 C248 1.307 . S
N247 C249 1.333 . S
N247 Zn253 2.020 . S
C248 N247 1.307 . S
C248 C252 1.370 . S
C248 H259 0.948 . S
C249 N247 1.333 . S
C249 C250 1.379 . S
C249 H257 0.952 . S
C250 C249 1.379 . S
C250 C251 1.390 . S
C250 H270 0.949 . S
C251 C250 1.390 . S
C251 C252 1.357 . S
C252 C248 1.370 . S
C252 C251 1.357 . S
C252 H271 0.950 . S
Zn253 N247 2.020 . S
Zn253 O256 2.025 . S
Zn253 O261 2.024 . S
Zn253 O263 2.039 . S
Zn253 O265 2.034 . S
O254 C238 1.251 . S
O254 Zn245 2.039 . S
C255 O260 1.246 . S
C255 O261 1.249 . S
O256 C238 1.254 . S
O256 Zn253 2.025 . S
H257 C249 0.952 . S
H258 C240 0.952 . S
H259 C248 0.948 . S
O260 Zn245 2.034 . S
O260 C255 1.246 . S
O261 Zn253 2.024 . S
O261 C255 1.249 . S
H262 C244 0.948 . S
O263 Zn253 2.039 . S
O263 C267 1.251 . S
O264 Zn245 2.025 . S
O264 C267 1.254 . S
O265 C246 1.246 . S
O265 Zn253 2.034 . S
O266 Zn245 2.024 . S
O266 C246 1.249 . S
C267 O263 1.251 . S
C267 O264 1.254 . S
H268 C241 0.949 . S
H269 C243 0.950 . S
H270 C250 0.949 . S
H271 C252 0.950 . S
C272 O288 1.251 . S
C272 O290 1.254 . S
N273 C274 1.333 . S
N273 C278 1.307 . S
N273 Zn279 2.020 . S
C274 N273 1.333 . S
C274 C275 1.379 . S
C274 H292 0.952 . S
C275 C274 1.379 . S
C275 C276 1.390 . S
C275 H302 0.949 . S
C276 C275 1.390 . S
C276 C277 1.357 . S
C277 C276 1.357 . S
C277 C278 1.370 . S
C277 H303 0.950 . S
C278 N273 1.307 . S
C278 C277 1.370 . S
C278 H296 0.948 . S
Zn279 N273 2.020 . S
Zn279 O288 2.039 . S
Zn279 O294 2.034 . S
Zn279 O298 2.025 . S
Zn279 O300 2.024 . S
C280 O299 1.246 . S
C280 O300 1.249 . S
N281 C282 1.307 . S
N281 C283 1.333 . S
N281 Zn287 2.020 . S
C282 N281 1.307 . S
C282 C286 1.370 . S
C282 H293 0.948 . S
C283 N281 1.333 . S
C283 C284 1.379 . S
C283 H291 0.952 . S
C284 C283 1.379 . S
C284 C285 1.390 . S
C284 H304 0.949 . S
C285 C284 1.390 . S
C285 C286 1.357 . S
C286 C282 1.370 . S
C286 C285 1.357 . S
C286 H305 0.950 . S
Zn287 N281 2.020 . S
Zn287 O290 2.025 . S
Zn287 O295 2.024 . S
Zn287 O297 2.039 . S
Zn287 O299 2.034 . S
O288 C272 1.251 . S
O288 Zn279 2.039 . S
C289 O294 1.246 . S
C289 O295 1.249 . S
O290 C272 1.254 . S
O290 Zn287 2.025 . S
H291 C283 0.952 . S
H292 C274 0.952 . S
H293 C282 0.948 . S
O294 Zn279 2.034 . S
O294 C289 1.246 . S
O295 Zn287 2.024 . S
O295 C289 1.249 . S
H296 C278 0.948 . S
O297 Zn287 2.039 . S
O297 C301 1.251 . S
O298 Zn279 2.025 . S
O298 C301 1.254 . S
O299 C280 1.246 . S
O299 Zn287 2.034 . S
O300 Zn279 2.024 . S
O300 C280 1.249 . S
C301 O297 1.251 . S
C301 O298 1.254 . S
H302 C275 0.949 . S
H303 C277 0.950 . S
H304 C284 0.949 . S
H305 C286 0.950 . S
C306 O322 1.251 . S
C306 O324 1.254 . S
N307 C308 1.333 . S
N307 C312 1.307 . S
N307 Zn313 2.020 . S
C308 N307 1.333 . S
C308 C309 1.379 . S
C308 H326 0.952 . S
C309 C308 1.379 . S
C309 C310 1.390 . S
C309 H336 0.949 . S
C310 C309 1.390 . S
C310 C311 1.357 . S
C311 C310 1.357 . S
C311 C312 1.370 . S
C311 H337 0.950 . S
C312 N307 1.307 . S
C312 C311 1.370 . S
C312 H330 0.948 . S
Zn313 N307 2.020 . S
Zn313 O322 2.039 . S
Zn313 O328 2.034 . S
Zn313 O332 2.025 . S
Zn313 O334 2.024 . S
C314 O333 1.246 . S
C314 O334 1.249 . S
N315 C316 1.307 . S
N315 C317 1.333 . S
N315 Zn321 2.020 . S
C316 N315 1.307 . S
C316 C320 1.370 . S
C316 H327 0.948 . S
C317 N315 1.333 . S
C317 C318 1.379 . S
C317 H325 0.952 . S
C318 C317 1.379 . S
C318 C319 1.390 . S
C318 H338 0.949 . S
C319 C318 1.390 . S
C319 C320 1.357 . S
C320 C316 1.370 . S
C320 C319 1.357 . S
C320 H339 0.950 . S
Zn321 N315 2.020 . S
Zn321 O324 2.025 . S
Zn321 O329 2.024 . S
Zn321 O331 2.039 . S
Zn321 O333 2.034 . S
O322 C306 1.251 . S
O322 Zn313 2.039 . S
C323 O328 1.246 . S
C323 O329 1.249 . S
O324 C306 1.254 . S
O324 Zn321 2.025 . S
H325 C317 0.952 . S
H326 C308 0.952 . S
H327 C316 0.948 . S
O328 Zn313 2.034 . S
O328 C323 1.246 . S
O329 Zn321 2.024 . S
O329 C323 1.249 . S
H330 C312 0.948 . S
O331 Zn321 2.039 . S
O331 C335 1.251 . S
O332 Zn313 2.025 . S
O332 C335 1.254 . S
O333 C314 1.246 . S
O333 Zn321 2.034 . S
O334 Zn313 2.024 . S
O334 C314 1.249 . S
C335 O331 1.251 . S
C335 O332 1.254 . S
H336 C309 0.949 . S
H337 C311 0.950 . S
H338 C318 0.949 . S
H339 C320 0.950 . S
C340 O356 1.251 . S
C340 O358 1.254 . S
N341 C342 1.333 . S
N341 C346 1.307 . S
N341 Zn347 2.020 . S
C342 N341 1.333 . S
C342 C343 1.379 . S
C342 H360 0.952 . S
C343 C342 1.379 . S
C343 C344 1.390 . S
C343 H370 0.949 . S
C344 C343 1.390 . S
C344 C345 1.357 . S
C345 C344 1.357 . S
C345 C346 1.370 . S
C345 H371 0.950 . S
C346 N341 1.307 . S
C346 C345 1.370 . S
C346 H364 0.948 . S
Zn347 N341 2.020 . S
Zn347 O356 2.039 . S
Zn347 O362 2.034 . S
Zn347 O366 2.025 . S
Zn347 O368 2.024 . S
C348 O367 1.246 . S
C348 O368 1.249 . S
N349 C350 1.307 . S
N349 C351 1.333 . S
N349 Zn355 2.020 . S
C350 N349 1.307 . S
C350 C354 1.370 . S
C350 H361 0.948 . S
C351 N349 1.333 . S
C351 C352 1.379 . S
C351 H359 0.952 . S
C352 C351 1.379 . S
C352 C353 1.390 . S
C352 H372 0.949 . S
C353 C352 1.390 . S
C353 C354 1.357 . S
C354 C350 1.370 . S
C354 C353 1.357 . S
C354 H373 0.950 . S
Zn355 N349 2.020 . S
Zn355 O358 2.025 . S
Zn355 O363 2.024 . S
Zn355 O365 2.039 . S
Zn355 O367 2.034 . S
O356 C340 1.251 . S
O356 Zn347 2.039 . S
C357 O362 1.246 . S
C357 O363 1.249 . S
O358 C340 1.254 . S
O358 Zn355 2.025 . S
H359 C351 0.952 . S
H360 C342 0.952 . S
H361 C350 0.948 . S
O362 Zn347 2.034 . S
O362 C357 1.246 . S
O363 Zn355 2.024 . S
O363 C357 1.249 . S
H364 C346 0.948 . S
O365 Zn355 2.039 . S
O365 C369 1.251 . S
O366 Zn347 2.025 . S
O366 C369 1.254 . S
O367 C348 1.246 . S
O367 Zn355 2.034 . S
O368 Zn347 2.024 . S
O368 C348 1.249 . S
C369 O365 1.251 . S
C369 O366 1.254 . S
H370 C343 0.949 . S
H371 C345 0.950 . S
H372 C352 0.949 . S
H373 C354 0.950 . S
C374 O390 1.251 . S
C374 O392 1.254 . S
N375 C376 1.333 . S
N375 C380 1.307 . S
N375 Zn381 2.020 . S
C376 N375 1.333 . S
C376 C377 1.379 . S
C376 H394 0.952 . S
C377 C376 1.379 . S
C377 C378 1.390 . S
C377 H404 0.949 . S
C378 C377 1.390 . S
C378 C379 1.357 . S
C379 C378 1.357 . S
C379 C380 1.370 . S
C379 H405 0.950 . S
C380 N375 1.307 . S
C380 C379 1.370 . S
C380 H398 0.948 . S
Zn381 N375 2.020 . S
Zn381 O390 2.039 . S
Zn381 O396 2.034 . S
Zn381 O400 2.025 . S
Zn381 O402 2.024 . S
C382 O401 1.246 . S
C382 O402 1.249 . S
N383 C384 1.307 . S
N383 C385 1.333 . S
N383 Zn389 2.020 . S
C384 N383 1.307 . S
C384 C388 1.370 . S
C384 H395 0.948 . S
C385 N383 1.333 . S
C385 C386 1.379 . S
C385 H393 0.952 . S
C386 C385 1.379 . S
C386 C387 1.390 . S
C386 H406 0.949 . S
C387 C386 1.390 . S
C387 C388 1.357 . S
C388 C384 1.370 . S
C388 C387 1.357 . S
C388 H407 0.950 . S
Zn389 N383 2.020 . S
Zn389 O392 2.025 . S
Zn389 O397 2.024 . S
Zn389 O399 2.039 . S
Zn389 O401 2.034 . S
O390 C374 1.251 . S
O390 Zn381 2.039 . S
C391 O396 1.246 . S
C391 O397 1.249 . S
O392 C374 1.254 . S
O392 Zn389 2.025 . S
H393 C385 0.952 . S
H394 C376 0.952 . S
H395 C384 0.948 . S
O396 Zn381 2.034 . S
O396 C391 1.246 . S
O397 Zn389 2.024 . S
O397 C391 1.249 . S
H398 C380 0.948 . S
O399 Zn389 2.039 . S
O399 C403 1.251 . S
O400 Zn381 2.025 . S
O400 C403 1.254 . S
O401 C382 1.246 . S
O401 Zn389 2.034 . S
O402 Zn381 2.024 . S
O402 C382 1.249 . S
C403 O399 1.251 . S
C403 O400 1.254 . S
H404 C377 0.949 . S
H405 C379 0.950 . S
H406 C386 0.949 . S
H407 C388 0.950 . S
H408 C414 0.930 . S
H409 C418 0.930 . S
H410 C423 0.929 . S
H411 C421 0.929 . S
H412 C416 0.929 . S
H413 C422 0.929 . S
C414 H408 0.930 . S
C414 C415 1.367 . S
C414 C422 1.378 1_565 S
C415 C414 1.367 . S
C415 C423 1.433 . S
C416 H412 0.929 . S
C416 C418 1.378 . S
C416 C420 1.350 . S
C417 C420 1.463 . S
C417 C422 1.350 . S
C417 N425 1.427 . S
C418 H409 0.930 . S
C418 C416 1.378 . S
C418 C419 1.367 . S
C419 C418 1.367 . S
C419 C421 1.433 . S
C420 C416 1.350 . S
C420 C417 1.463 . S
C420 N424 1.427 . S
C421 H411 0.929 . S
C421 C419 1.433 . S
C421 N424 1.384 . S
C422 H413 0.929 . S
C422 C414 1.378 1_545 S
C422 C417 1.350 . S
C423 H410 0.929 . S
C423 C415 1.433 . S
C423 N425 1.384 1_565 S
N424 C420 1.427 . S
N424 C421 1.384 . S
N425 C417 1.427 . S
N425 C423 1.384 1_545 S
H426 C432 0.930 . S
H427 C436 0.930 . S
H428 C441 0.929 . S
H429 C439 0.929 . S
H430 C434 0.929 . S
H431 C440 0.929 . S
C432 H426 0.930 . S
C432 C433 1.367 . S
C432 C440 1.378 . S
C433 C432 1.367 . S
C433 C441 1.433 . S
C434 H430 0.929 . S
C434 C436 1.378 . S
C434 C438 1.350 . S
C435 C438 1.463 . S
C435 C440 1.350 . S
C435 N443 1.427 . S
C436 H427 0.930 . S
C436 C434 1.378 . S
C436 C437 1.367 . S
C437 C436 1.367 . S
C437 C439 1.433 1_455 S
C438 C434 1.350 . S
C438 C435 1.463 . S
C438 N442 1.427 . S
C439 H429 0.929 . S
C439 C437 1.433 1_655 S
C439 N442 1.384 1_655 S
C440 H431 0.929 . S
C440 C432 1.378 . S
C440 C435 1.350 . S
C441 H428 0.929 . S
C441 C433 1.433 . S
C441 N443 1.384 . S
N442 C438 1.427 . S
N442 C439 1.384 1_455 S
N443 C435 1.427 . S
N443 C441 1.384 . S
H444 C450 0.916 1_565 S
H445 C454 0.930 . S
H446 C459 0.929 . S
H447 C457 0.929 . S
H448 C452 0.929 . S
H449 C458 0.929 . S
C450 H444 0.916 1_545 S
C450 C451 1.375 . S
C450 C458 1.384 . S
C451 C450 1.375 . S
C451 C459 1.433 . S
C452 H448 0.929 . S
C452 C454 1.378 1_655 S
C452 C456 1.350 . S
C453 C456 1.463 . S
C453 C458 1.350 . S
C453 N461 1.427 . S
C454 H445 0.930 . S
C454 C452 1.378 1_455 S
C454 C455 1.367 . S
C455 C454 1.367 . S
C455 C457 1.433 . S
C456 C452 1.350 . S
C456 C453 1.463 . S
C456 N460 1.427 . S
C457 H447 0.929 . S
C457 C455 1.433 . S
C457 N460 1.384 1_455 S
C458 H449 0.929 . S
C458 C450 1.384 . S
C458 C453 1.350 . S
C459 H446 0.929 . S
C459 C451 1.433 . S
C459 N461 1.384 . S
N460 C456 1.427 . S
N460 C457 1.384 1_655 S
N461 C453 1.427 . S
N461 C459 1.384 . S
H462 C468 0.930 . S
H463 C472 0.930 . S
H464 C477 0.929 . S
H465 C475 0.929 . S
H466 C470 0.929 . S
H467 C476 0.929 . S
C468 H462 0.930 . S
C468 C469 1.367 . S
C468 C476 1.378 . S
C469 C468 1.367 . S
C469 C477 1.433 . S
C470 H466 0.929 . S
C470 C472 1.378 1_565 S
C470 C474 1.350 . S
C471 C474 1.463 . S
C471 C476 1.350 . S
C471 N479 1.427 . S
C472 H463 0.930 . S
C472 C470 1.378 1_545 S
C472 C473 1.367 . S
C473 C472 1.367 . S
C473 C475 1.433 . S
C474 C470 1.350 . S
C474 C471 1.463 . S
C474 N478 1.427 . S
C475 H465 0.929 . S
C475 C473 1.433 . S
C475 N478 1.384 1_545 S
C476 H467 0.929 . S
C476 C468 1.378 . S
C476 C471 1.350 . S
C477 H464 0.929 . S
C477 C469 1.433 . S
C477 N479 1.384 . S
N478 C474 1.427 . S
N478 C475 1.384 1_565 S
N479 C471 1.427 . S
N479 C477 1.384 . S
H480 C486 0.930 1_455 S
H481 C490 0.930 . S
H482 C495 0.929 . S
H483 C493 0.929 . S
H484 C488 0.929 . S
H485 C494 0.929 . S
C486 H480 0.930 1_655 S
C486 C487 1.367 . S
C486 C494 1.378 . S
C487 C486 1.367 . S
C487 C495 1.433 . S
C488 H484 0.929 . S
C488 C490 1.378 . S
C488 C492 1.350 . S
C489 C492 1.463 . S
C489 C494 1.350 . S
C489 N497 1.427 . S
C490 H481 0.930 . S
C490 C488 1.378 . S
C490 C491 1.367 . S
C491 C490 1.367 . S
C491 C493 1.433 . S
C492 C488 1.350 . S
C492 C489 1.463 . S
C492 N496 1.427 . S
C493 H483 0.929 . S
C493 C491 1.433 . S
C493 N496 1.384 . S
C494 H485 0.929 . S
C494 C486 1.378 . S
C494 C489 1.350 . S
C495 H482 0.929 . S
C495 C487 1.433 . S
C495 N497 1.384 . S
N496 C492 1.427 . S
N496 C493 1.384 . S
N497 C489 1.427 . S
N497 C495 1.384 . S
H498 C504 0.930 . S
H499 C508 0.930 1_545 S
H500 C513 0.929 . S
H501 C511 0.929 . S
H502 C506 0.929 . S
H503 C512 0.929 . S
C504 H498 0.930 . S
C504 C505 1.367 . S
C504 C512 1.378 1_655 S
C505 C504 1.367 . S
C505 C513 1.433 . S
C506 H502 0.929 . S
C506 C508 1.378 . S
C506 C510 1.350 . S
C507 C510 1.463 . S
C507 C512 1.350 . S
C507 N515 1.427 . S
C508 H499 0.930 1_565 S
C508 C506 1.378 . S
C508 C509 1.367 . S
C509 C508 1.367 . S
C509 C511 1.433 . S
C510 C506 1.350 . S
C510 C507 1.463 . S
C510 N514 1.427 . S
C511 H501 0.929 . S
C511 C509 1.433 . S
C511 N514 1.384 . S
C512 H503 0.929 . S
C512 C504 1.378 1_455 S
C512 C507 1.350 . S
C513 H500 0.929 . S
C513 C505 1.433 . S
C513 N515 1.384 1_655 S
N514 C510 1.427 . S
N514 C511 1.384 . S
N515 C507 1.427 . S
N515 C513 1.384 1_455 S
H516 C522 0.930 . S
H517 C526 0.930 . S
H518 C531 0.929 . S
H519 C529 0.929 . S
H520 C524 0.929 . S
H521 C530 0.929 . S
C522 H516 0.930 . S
C522 C523 1.367 . S
C522 C530 1.378 1_455 S
C523 C522 1.367 . S
C523 C531 1.433 . S
C524 H520 0.929 . S
C524 C526 1.378 . S
C524 C528 1.350 . S
C525 C528 1.463 . S
C525 C530 1.350 . S
C525 N533 1.427 . S
C526 H517 0.930 . S
C526 C524 1.378 . S
C526 C527 1.367 . S
C527 C526 1.367 . S
C527 C529 1.433 . S
C528 C524 1.350 . S
C528 C525 1.463 . S
C528 N532 1.427 . S
C529 H519 0.929 . S
C529 C527 1.433 . S
C529 N532 1.384 . S
C530 H521 0.929 . S
C530 C522 1.378 1_655 S
C530 C525 1.350 . S
C531 H518 0.929 . S
C531 C523 1.433 . S
C531 N533 1.384 1_455 S
N532 C528 1.427 . S
N532 C529 1.384 . S
N533 C525 1.427 . S
N533 C531 1.384 1_655 S
H534 C540 0.932 . S
H535 C544 0.930 . S
H536 C549 0.929 . S
H537 C547 0.929 . S
H538 C542 0.929 . S
H539 C548 0.929 . S
C540 H534 0.932 . S
C540 C541 1.367 . S
C540 C548 1.378 . S
C541 C540 1.367 . S
C541 C549 1.433 . S
C542 H538 0.929 . S
C542 C544 1.378 1_565 S
C542 C546 1.350 . S
C543 C546 1.463 . S
C543 C548 1.350 . S
C543 N551 1.427 . S
C544 H535 0.930 . S
C544 C542 1.378 1_545 S
C544 C545 1.367 . S
C545 C544 1.367 . S
C545 C547 1.433 . S
C546 C542 1.350 . S
C546 C543 1.463 . S
C546 N550 1.427 . S
C547 H537 0.929 . S
C547 C545 1.433 . S
C547 N550 1.384 1_545 S
C548 H539 0.929 . S
C548 C540 1.378 . S
C548 C543 1.350 . S
C549 H536 0.929 . S
C549 C541 1.433 . S
C549 N551 1.384 . S
N550 C546 1.427 . S
N550 C547 1.384 1_565 S
N551 C543 1.427 . S
N551 C549 1.384 . S
H552 C558 0.930 . S
H553 C562 0.930 . S
H554 C567 0.929 . S
H555 C565 0.929 . S
H556 C560 0.929 . S
H557 C566 0.929 . S
C558 H552 0.930 . S
C558 C559 1.367 . S
C558 C566 1.378 . S
C559 C558 1.367 . S
C559 C567 1.433 . S
C560 H556 0.929 . S
C560 C562 1.378 . S
C560 C564 1.350 . S
C561 C564 1.463 . S
C561 C566 1.350 . S
C561 N569 1.427 . S
C562 H553 0.930 . S
C562 C560 1.378 . S
C562 C563 1.367 . S
C563 C562 1.367 . S
C563 C565 1.433 . S
C564 C560 1.350 . S
C564 C561 1.463 . S
C564 N568 1.427 . S
C565 H555 0.929 . S
C565 C563 1.433 . S
C565 N568 1.384 . S
C566 H557 0.929 . S
C566 C558 1.378 . S
C566 C561 1.350 . S
C567 H554 0.929 . S
C567 C559 1.433 . S
C567 N569 1.384 . S
N568 C564 1.427 . S
N568 C565 1.384 . S
N569 C561 1.427 . S
N569 C567 1.384 . S
H570 C576 0.930 . S
H571 C580 0.930 . S
H572 C585 0.929 . S
H573 C583 0.929 . S
H574 C578 0.929 . S
H575 C584 0.929 . S
C576 H570 0.930 . S
C576 C577 1.367 . S
C576 C584 1.378 . S
C577 C576 1.367 . S
C577 C585 1.433 . S
C578 H574 0.929 . S
C578 C580 1.378 1_455 S
C578 C582 1.350 . S
C579 C582 1.463 . S
C579 C584 1.350 . S
C579 N587 1.427 . S
C580 H571 0.930 . S
C580 C578 1.378 1_655 S
C580 C581 1.367 . S
C581 C580 1.367 . S
C581 C583 1.433 . S
C582 C578 1.350 . S
C582 C579 1.463 . S
C582 N586 1.427 . S
C583 H573 0.929 . S
C583 C581 1.433 . S
C583 N586 1.384 1_655 S
C584 H575 0.929 . S
C584 C576 1.378 . S
C584 C579 1.350 . S
C585 H572 0.929 . S
C585 C577 1.433 . S
C585 N587 1.384 . S
N586 C582 1.427 . S
N586 C583 1.384 1_455 S
N587 C579 1.427 . S
N587 C585 1.384 . S
H588 C594 0.930 . S
H589 C598 0.930 . S
H590 C603 0.929 . S
H591 C601 0.929 . S
H592 C596 0.929 . S
H593 C602 0.929 . S
C594 H588 0.930 . S
C594 C595 1.367 . S
C594 C602 1.378 . S
C595 C594 1.367 . S
C595 C603 1.433 1_655 S
C596 H592 0.929 . S
C596 C598 1.378 1_545 S
C596 C600 1.350 . S
C597 C600 1.463 . S
C597 C602 1.350 . S
C597 N605 1.427 . S
C598 H589 0.930 . S
C598 C596 1.378 1_565 S
C598 C599 1.367 . S
C599 C598 1.367 . S
C599 C601 1.433 . S
C600 C596 1.350 . S
C600 C597 1.463 . S
C600 N604 1.427 . S
C601 H591 0.929 . S
C601 C599 1.433 . S
C601 N604 1.384 1_565 S
C602 H593 0.929 . S
C602 C594 1.378 . S
C602 C597 1.350 . S
C603 H590 0.929 . S
C603 C595 1.433 1_455 S
C603 N605 1.384 1_455 S
N604 C600 1.427 . S
N604 C601 1.384 1_545 S
N605 C597 1.427 . S
N605 C603 1.384 1_655 S
H606 C612 0.930 . S
H607 C616 0.930 . S
H608 C621 0.929 . S
H609 C619 0.929 . S
H610 C614 0.929 . S
H611 C620 0.929 . S
C612 H606 0.930 . S
C612 C613 1.367 . S
C612 C620 1.378 . S
C613 C612 1.367 . S
C613 C621 1.433 . S
C614 H610 0.929 . S
C614 C616 1.378 . S
C614 C618 1.350 . S
C615 C618 1.463 . S
C615 C620 1.350 . S
C615 N623 1.427 . S
C616 H607 0.930 . S
C616 C614 1.378 . S
C616 C617 1.367 . S
C617 C616 1.367 . S
C617 C619 1.433 1_565 S
C618 C614 1.350 . S
C618 C615 1.463 . S
C618 N622 1.427 . S
C619 H609 0.929 . S
C619 C617 1.433 1_545 S
C619 N622 1.384 1_545 S
C620 H611 0.929 . S
C620 C612 1.378 . S
C620 C615 1.350 . S
C621 H608 0.929 . S
C621 C613 1.433 . S
C621 N623 1.384 . S
N622 C618 1.427 . S
N622 C619 1.384 1_565 S
N623 C615 1.427 . S
N623 C621 1.384 . S
H624 C630 0.930 . S
H625 C634 0.930 . S
H626 C639 0.929 . S
H627 C637 0.929 . S
H628 C632 0.929 . S
H629 C638 0.929 . S
C630 H624 0.930 . S
C630 C631 1.367 . S
C630 C638 1.378 . S
C631 C630 1.367 . S
C631 C639 1.433 . S
C632 H628 0.929 . S
C632 C634 1.378 . S
C632 C636 1.350 . S
C633 C636 1.463 . S
C633 C638 1.350 . S
C633 N641 1.427 . S
C634 H625 0.930 . S
C634 C632 1.378 . S
C634 C635 1.367 . S
C635 C634 1.367 . S
C635 C637 1.433 . S
C636 C632 1.350 . S
C636 C633 1.463 . S
C636 N640 1.427 . S
C637 H627 0.929 . S
C637 C635 1.433 . S
C637 N640 1.384 . S
C638 H629 0.929 . S
C638 C630 1.378 . S
C638 C633 1.350 . S
C639 H626 0.929 . S
C639 C631 1.433 . S
C639 N641 1.384 . S
N640 C636 1.427 . S
N640 C637 1.384 . S
N641 C633 1.427 . S
N641 C639 1.384 . S
H642 C648 0.930 . S
H643 C652 0.930 . S
H644 C657 0.929 . S
H645 C655 0.929 . S
H646 C650 0.929 . S
H647 C656 0.929 . S
C648 H642 0.930 . S
C648 C649 1.367 . S
C648 C656 1.378 . S
C649 C648 1.367 . S
C649 C657 1.433 . S
C650 H646 0.929 . S
C650 C652 1.378 . S
C650 C654 1.350 . S
C651 C654 1.463 . S
C651 C656 1.350 . S
C651 N659 1.427 . S
C652 H643 0.930 . S
C652 C650 1.378 . S
C652 C653 1.367 . S
C653 C652 1.367 . S
C653 C655 1.433 . S
C654 C650 1.350 . S
C654 C651 1.463 . S
C654 N658 1.427 . S
C655 H645 0.929 . S
C655 C653 1.433 . S
C655 N658 1.384 . S
C656 H647 0.929 . S
C656 C648 1.378 . S
C656 C651 1.350 . S
C657 H644 0.929 . S
C657 C649 1.433 . S
C657 N659 1.384 . S
N658 C654 1.427 . S
N658 C655 1.384 . S
N659 C651 1.427 . S
N659 C657 1.384 . S
H660 C666 0.930 . S
H661 C670 0.930 . S
H662 C675 0.929 . S
H663 C673 0.929 . S
H664 C668 0.929 . S
H665 C674 0.929 . S
C666 H660 0.930 . S
C666 C667 1.367 . S
C666 C674 1.378 . S
C667 C666 1.367 . S
C667 C675 1.433 . S
C668 H664 0.929 . S
C668 C670 1.378 . S
C668 C672 1.350 . S
C669 C672 1.463 . S
C669 C674 1.350 . S
C669 N677 1.427 . S
C670 H661 0.930 . S
C670 C668 1.378 . S
C670 C671 1.367 . S
C671 C670 1.367 . S
C671 C673 1.433 . S
C672 C668 1.350 . S
C672 C669 1.463 . S
C672 N676 1.427 . S
C673 H663 0.929 . S
C673 C671 1.433 . S
C673 N676 1.384 . S
C674 H665 0.929 . S
C674 C666 1.378 . S
C674 C669 1.350 . S
C675 H662 0.929 . S
C675 C667 1.433 . S
C675 N677 1.384 . S
N676 C672 1.427 . S
N676 C673 1.384 . S
N677 C669 1.427 . S
N677 C675 1.384 . S
H678 C684 0.930 . S
H679 C688 0.930 . S
H680 C693 0.929 . S
H681 C691 0.929 . S
H682 C686 0.929 . S
H683 C692 0.929 . S
C684 H678 0.930 . S
C684 C685 1.367 . S
C684 C692 1.378 . S
C685 C684 1.367 . S
C685 C693 1.433 . S
C686 H682 0.929 . S
C686 C688 1.378 . S
C686 C690 1.350 . S
C687 C690 1.463 . S
C687 C692 1.350 . S
C687 N695 1.427 . S
C688 H679 0.930 . S
C688 C686 1.378 . S
C688 C689 1.367 . S
C689 C688 1.367 . S
C689 C691 1.433 . S
C690 C686 1.350 . S
C690 C687 1.463 . S
C690 N694 1.427 . S
C691 H681 0.929 . S
C691 C689 1.433 . S
C691 N694 1.384 . S
C692 H683 0.929 . S
C692 C684 1.378 . S
C692 C687 1.350 . S
C693 H680 0.929 . S
C693 C685 1.433 . S
C693 N695 1.384 . S
N694 C690 1.427 . S
N694 C691 1.384 . S
N695 C687 1.427 . S
N695 C693 1.384 . S
H696 C702 0.930 . S
H697 C706 0.930 . S
H698 C711 0.929 . S
H699 C709 0.929 . S
H700 C704 0.929 . S
H701 C710 0.929 . S
C702 H696 0.930 . S
C702 C703 1.367 . S
C702 C710 1.378 . S
C703 C702 1.367 . S
C703 C711 1.433 . S
C704 H700 0.929 . S
C704 C706 1.378 . S
C704 C708 1.350 . S
C705 C708 1.463 . S
C705 C710 1.350 . S
C705 N713 1.427 . S
C706 H697 0.930 . S
C706 C704 1.378 . S
C706 C707 1.367 . S
C707 C706 1.367 . S
C707 C709 1.433 . S
C708 C704 1.350 . S
C708 C705 1.463 . S
C708 N712 1.427 . S
C709 H699 0.929 . S
C709 C707 1.433 . S
C709 N712 1.384 . S
C710 H701 0.929 . S
C710 C702 1.378 . S
C710 C705 1.350 . S
C711 H698 0.929 . S
C711 C703 1.433 . S
C711 N713 1.384 . S
N712 C708 1.427 . S
N712 C709 1.384 . S
N713 C705 1.427 . S
N713 C711 1.384 . S
H714 C720 0.930 . S
H715 C724 0.930 . S
H716 C729 0.929 . S
H717 C727 0.929 . S
H718 C722 0.929 . S
H719 C728 0.929 . S
C720 H714 0.930 . S
C720 C721 1.367 . S
C720 C728 1.378 . S
C721 C720 1.367 . S
C721 C729 1.433 . S
C722 H718 0.929 . S
C722 C724 1.378 . S
C722 C726 1.350 . S
C723 C726 1.463 . S
C723 C728 1.350 . S
C723 N731 1.427 . S
C724 H715 0.930 . S
C724 C722 1.378 . S
C724 C725 1.367 . S
C725 C724 1.367 . S
C725 C727 1.433 . S
C726 C722 1.350 . S
C726 C723 1.463 . S
C726 N730 1.427 . S
C727 H717 0.929 . S
C727 C725 1.433 . S
C727 N730 1.384 . S
C728 H719 0.929 . S
C728 C720 1.378 . S
C728 C723 1.350 . S
C729 H716 0.929 . S
C729 C721 1.433 . S
C729 N731 1.384 . S
N730 C726 1.427 . S
N730 C727 1.384 . S
N731 C723 1.427 . S
N731 C729 1.384 . S
H732 C738 0.930 . S
H733 C742 0.930 . S
H734 C747 0.929 . S
H735 C745 0.929 . S
H736 C740 0.929 . S
H737 C746 0.929 . S
C738 H732 0.930 . S
C738 C739 1.367 . S
C738 C746 1.378 . S
C739 C738 1.367 . S
C739 C747 1.433 . S
C740 H736 0.929 . S
C740 C742 1.378 . S
C740 C744 1.350 . S
C741 C744 1.463 . S
C741 C746 1.350 . S
C741 N749 1.427 . S
C742 H733 0.930 . S
C742 C740 1.378 . S
C742 C743 1.367 . S
C743 C742 1.367 . S
C743 C745 1.433 . S
C744 C740 1.350 . S
C744 C741 1.463 . S
C744 N748 1.427 . S
C745 H735 0.929 . S
C745 C743 1.433 . S
C745 N748 1.384 . S
C746 H737 0.929 . S
C746 C738 1.378 . S
C746 C741 1.350 . S
C747 H734 0.929 . S
C747 C739 1.433 . S
C747 N749 1.384 . S
N748 C744 1.427 . S
N748 C745 1.384 . S
N749 C741 1.427 . S
N749 C747 1.384 . S
H750 C756 0.930 . S
H751 C760 0.930 . S
H752 C765 0.929 . S
H753 C763 0.929 . S
H754 C758 0.929 . S
H755 C764 0.929 . S
C756 H750 0.930 . S
C756 C757 1.367 . S
C756 C764 1.378 . S
C757 C756 1.367 . S
C757 C765 1.433 . S
C758 H754 0.929 . S
C758 C760 1.378 . S
C758 C762 1.350 . S
C759 C762 1.463 . S
C759 C764 1.350 . S
C759 N767 1.427 . S
C760 H751 0.930 . S
C760 C758 1.378 . S
C760 C761 1.367 . S
C761 C760 1.367 . S
C761 C763 1.433 . S
C762 C758 1.350 . S
C762 C759 1.463 . S
C762 N766 1.427 . S
C763 H753 0.929 . S
C763 C761 1.433 . S
C763 N766 1.384 . S
C764 H755 0.929 . S
C764 C756 1.378 . S
C764 C759 1.350 . S
C765 H752 0.929 . S
C765 C757 1.433 . S
C765 N767 1.384 . S
N766 C762 1.427 . S
N766 C763 1.384 . S
N767 C759 1.427 . S
N767 C765 1.384 . S
H768 C774 0.930 . S
H769 C778 0.930 . S
H770 C783 0.929 . S
H771 C781 0.929 . S
H772 C776 0.929 . S
H773 C782 0.929 . S
C774 H768 0.930 . S
C774 C775 1.367 . S
C774 C782 1.378 . S
C775 C774 1.367 . S
C775 C783 1.433 . S
C776 H772 0.929 . S
C776 C778 1.378 . S
C776 C780 1.350 . S
C777 C780 1.463 . S
C777 C782 1.350 . S
C777 N785 1.427 . S
C778 H769 0.930 . S
C778 C776 1.378 . S
C778 C779 1.367 . S
C779 C778 1.367 . S
C779 C781 1.433 . S
C780 C776 1.350 . S
C780 C777 1.463 . S
C780 N784 1.427 . S
C781 H771 0.929 . S
C781 C779 1.433 . S
C781 N784 1.384 . S
C782 H773 0.929 . S
C782 C774 1.378 . S
C782 C777 1.350 . S
C783 H770 0.929 . S
C783 C775 1.433 . S
C783 N785 1.384 . S
N784 C780 1.427 . S
N784 C781 1.384 . S
N785 C777 1.427 . S
N785 C783 1.384 . S
H786 C792 0.930 . S
H787 C796 0.930 . S
H788 C801 0.929 . S
H789 C799 0.929 . S
H790 C794 0.929 . S
H791 C800 0.929 . S
C792 H786 0.930 . S
C792 C793 1.367 . S
C792 C800 1.378 . S
C793 C792 1.367 . S
C793 C801 1.433 . S
C794 H790 0.929 . S
C794 C796 1.378 . S
C794 C798 1.350 . S
C795 C798 1.463 . S
C795 C800 1.350 . S
C795 N803 1.427 . S
C796 H787 0.930 . S
C796 C794 1.378 . S
C796 C797 1.367 . S
C797 C796 1.367 . S
C797 C799 1.433 . S
C798 C794 1.350 . S
C798 C795 1.463 . S
C798 N802 1.427 . S
C799 H789 0.929 . S
C799 C797 1.433 . S
C799 N802 1.384 . S
C800 H791 0.929 . S
C800 C792 1.378 . S
C800 C795 1.350 . S
C801 H788 0.929 . S
C801 C793 1.433 . S
C801 N803 1.384 . S
N802 C798 1.427 . S
N802 C799 1.384 . S
N803 C795 1.427 . S
N803 C801 1.384 . S
H804 C810 0.930 . S
H805 C814 0.930 . S
H806 C819 0.929 . S
H807 C817 0.929 . S
H808 C812 0.929 . S
H809 C818 0.929 . S
C810 H804 0.930 . S
C810 C811 1.367 . S
C810 C818 1.378 . S
C811 C810 1.367 . S
C811 C819 1.433 . S
C812 H808 0.929 . S
C812 C814 1.378 . S
C812 C816 1.350 . S
C813 C816 1.463 . S
C813 C818 1.350 . S
C813 N821 1.427 . S
C814 H805 0.930 . S
C814 C812 1.378 . S
C814 C815 1.367 . S
C815 C814 1.367 . S
C815 C817 1.433 . S
C816 C812 1.350 . S
C816 C813 1.463 . S
C816 N820 1.427 . S
C817 H807 0.929 . S
C817 C815 1.433 . S
C817 N820 1.384 . S
C818 H809 0.929 . S
C818 C810 1.378 . S
C818 C813 1.350 . S
C819 H806 0.929 . S
C819 C811 1.433 . S
C819 N821 1.384 . S
N820 C816 1.427 . S
N820 C817 1.384 . S
N821 C813 1.427 . S
N821 C819 1.384 . S
H822 C828 0.930 . S
H823 C832 0.930 . S
H824 C837 0.929 . S
H825 C835 0.929 . S
H826 C830 0.929 . S
H827 C836 0.929 . S
C828 H822 0.930 . S
C828 C829 1.367 . S
C828 C836 1.378 . S
C829 C828 1.367 . S
C829 C837 1.433 . S
C830 H826 0.929 . S
C830 C832 1.378 . S
C830 C834 1.350 . S
C831 C834 1.463 . S
C831 C836 1.350 . S
C831 N839 1.427 . S
C832 H823 0.930 . S
C832 C830 1.378 . S
C832 C833 1.367 . S
C833 C832 1.367 . S
C833 C835 1.433 . S
C834 C830 1.350 . S
C834 C831 1.463 . S
C834 N838 1.427 . S
C835 H825 0.929 . S
C835 C833 1.433 . S
C835 N838 1.384 . S
C836 H827 0.929 . S
C836 C828 1.378 . S
C836 C831 1.350 . S
C837 H824 0.929 . S
C837 C829 1.433 . S
C837 N839 1.384 . S
N838 C834 1.427 . S
N838 C835 1.384 . S
N839 C831 1.427 . S
N839 C837 1.384 . S
H840 C846 0.930 . S
H841 C850 0.930 . S
H842 C855 0.929 . S
H843 C853 0.929 . S
H844 C848 0.929 . S
H845 C854 0.929 . S
C846 H840 0.930 . S
C846 C847 1.367 . S
C846 C854 1.378 . S
C847 C846 1.367 . S
C847 C855 1.433 . S
C848 H844 0.929 . S
C848 C850 1.378 . S
C848 C852 1.350 . S
C849 C852 1.463 . S
C849 C854 1.350 . S
C849 N857 1.427 . S
C850 H841 0.930 . S
C850 C848 1.378 . S
C850 C851 1.367 . S
C851 C850 1.367 . S
C851 C853 1.433 . S
C852 C848 1.350 . S
C852 C849 1.463 . S
C852 N856 1.427 . S
C853 H843 0.929 . S
C853 C851 1.433 . S
C853 N856 1.384 . S
C854 H845 0.929 . S
C854 C846 1.378 . S
C854 C849 1.350 . S
C855 H842 0.929 . S
C855 C847 1.433 . S
C855 N857 1.384 . S
N856 C852 1.427 . S
N856 C853 1.384 . S
N857 C849 1.427 . S
N857 C855 1.384 . S
H858 C864 0.930 . S
H859 C868 0.930 . S
H860 C873 0.929 . S
H861 C871 0.929 . S
H862 C866 0.929 . S
H863 C872 0.929 . S
C864 H858 0.930 . S
C864 C865 1.367 . S
C864 C872 1.378 . S
C865 C864 1.367 . S
C865 C873 1.433 . S
C866 H862 0.929 . S
C866 C868 1.378 . S
C866 C870 1.350 . S
C867 C870 1.463 . S
C867 C872 1.350 . S
C867 N875 1.427 . S
C868 H859 0.930 . S
C868 C866 1.378 . S
C868 C869 1.367 . S
C869 C868 1.367 . S
C869 C871 1.433 . S
C870 C866 1.350 . S
C870 C867 1.463 . S
C870 N874 1.427 . S
C871 H861 0.929 . S
C871 C869 1.433 . S
C871 N874 1.384 . S
C872 H863 0.929 . S
C872 C864 1.378 . S
C872 C867 1.350 . S
C873 H860 0.929 . S
C873 C865 1.433 . S
C873 N875 1.384 . S
N874 C870 1.427 . S
N874 C871 1.384 . S
N875 C867 1.427 . S
N875 C873 1.384 . S
H876 C882 0.930 . S
H877 C886 0.930 . S
H878 C891 0.929 . S
H879 C889 0.929 . S
H880 C884 0.929 . S
H881 C890 0.929 . S
C882 H876 0.930 . S
C882 C883 1.367 . S
C882 C890 1.378 . S
C883 C882 1.367 . S
C883 C891 1.433 . S
C884 H880 0.929 . S
C884 C886 1.378 . S
C884 C888 1.350 . S
C885 C888 1.463 . S
C885 C890 1.350 . S
C885 N893 1.427 . S
C886 H877 0.930 . S
C886 C884 1.378 . S
C886 C887 1.367 . S
C887 C886 1.367 . S
C887 C889 1.433 . S
C888 C884 1.350 . S
C888 C885 1.463 . S
C888 N892 1.427 . S
C889 H879 0.929 . S
C889 C887 1.433 . S
C889 N892 1.384 . S
C890 H881 0.929 . S
C890 C882 1.378 . S
C890 C885 1.350 . S
C891 H878 0.929 . S
C891 C883 1.433 . S
C891 N893 1.384 . S
N892 C888 1.427 . S
N892 C889 1.384 . S
N893 C885 1.427 . S
N893 C891 1.384 . S
H894 C900 0.930 . S
H895 C904 0.930 . S
H896 C909 0.929 . S
H897 C907 0.929 . S
H898 C902 0.929 . S
H899 C908 0.929 . S
C900 H894 0.930 . S
C900 C901 1.367 . S
C900 C908 1.378 . S
C901 C900 1.367 . S
C901 C909 1.433 . S
C902 H898 0.929 . S
C902 C904 1.378 . S
C902 C906 1.350 . S
C903 C906 1.463 . S
C903 C908 1.350 . S
C903 N911 1.427 . S
C904 H895 0.930 . S
C904 C902 1.378 . S
C904 C905 1.367 . S
C905 C904 1.367 . S
C905 C907 1.433 . S
C906 C902 1.350 . S
C906 C903 1.463 . S
C906 N910 1.427 . S
C907 H897 0.929 . S
C907 C905 1.433 . S
C907 N910 1.384 . S
C908 H899 0.929 . S
C908 C900 1.378 . S
C908 C903 1.350 . S
C909 H896 0.929 . S
C909 C901 1.433 . S
C909 N911 1.384 . S
N910 C906 1.427 . S
N910 C907 1.384 . S
N911 C903 1.427 . S
N911 C909 1.384 . S
H912 C918 0.930 . S
H913 C922 0.930 . S
H914 C927 0.929 . S
H915 C925 0.929 . S
H916 C920 0.929 . S
H917 C926 0.929 . S
C918 H912 0.930 . S
C918 C919 1.367 . S
C918 C926 1.378 . S
C919 C918 1.367 . S
C919 C927 1.433 . S
C920 H916 0.929 . S
C920 C922 1.378 . S
C920 C924 1.350 . S
C921 C924 1.463 . S
C921 C926 1.350 . S
C921 N929 1.427 . S
C922 H913 0.930 . S
C922 C920 1.378 . S
C922 C923 1.367 . S
C923 C922 1.367 . S
C923 C925 1.433 . S
C924 C920 1.350 . S
C924 C921 1.463 . S
C924 N928 1.427 . S
C925 H915 0.929 . S
C925 C923 1.433 . S
C925 N928 1.384 . S
C926 H917 0.929 . S
C926 C918 1.378 . S
C926 C921 1.350 . S
C927 H914 0.929 . S
C927 C919 1.433 . S
C927 N929 1.384 . S
N928 C924 1.427 . S
N928 C925 1.384 . S
N929 C921 1.427 . S
N929 C927 1.384 . S
H930 C936 0.930 . S
H931 C940 0.930 . S
H932 C945 0.929 . S
H933 C943 0.929 . S
H934 C938 0.929 . S
H935 C944 0.929 . S
C936 H930 0.930 . S
C936 C937 1.367 . S
C936 C944 1.378 . S
C937 C936 1.367 . S
C937 C945 1.433 . S
C938 H934 0.929 . S
C938 C940 1.378 . S
C938 C942 1.350 . S
C939 C942 1.463 . S
C939 C944 1.350 . S
C939 N947 1.427 . S
C940 H931 0.930 . S
C940 C938 1.378 . S
C940 C941 1.367 . S
C941 C940 1.367 . S
C941 C943 1.433 . S
C942 C938 1.350 . S
C942 C939 1.463 . S
C942 N946 1.427 . S
C943 H933 0.929 . S
C943 C941 1.433 . S
C943 N946 1.384 . S
C944 H935 0.929 . S
C944 C936 1.378 . S
C944 C939 1.350 . S
C945 H932 0.929 . S
C945 C937 1.433 . S
C945 N947 1.384 . S
N946 C942 1.427 . S
N946 C943 1.384 . S
N947 C939 1.427 . S
N947 C945 1.384 . S
H948 C954 0.930 . S
H949 C958 0.930 . S
H950 C963 0.929 . S
H951 C961 0.929 . S
H952 C956 0.929 1_556 S
H953 C962 0.929 1_554 S
C954 H948 0.930 . S
C954 C955 1.367 . S
C954 C962 1.378 . S
C955 C954 1.367 . S
C955 C963 1.433 . S
C956 H952 0.929 1_554 S
C956 C958 1.378 . S
C956 C960 1.350 . S
C957 C960 1.463 1_556 S
C957 C962 1.350 . S
C957 N965 1.427 . S
C958 H949 0.930 . S
C958 C956 1.378 . S
C958 C959 1.367 . S
C959 C958 1.367 . S
C959 C961 1.433 . S
C960 C956 1.350 . S
C960 C957 1.463 1_554 S
C960 N964 1.427 . S
C961 H951 0.929 . S
C961 C959 1.433 . S
C961 N964 1.384 . S
C962 H953 0.929 1_556 S
C962 C954 1.378 . S
C962 C957 1.350 . S
C963 H950 0.929 . S
C963 C955 1.433 . S
C963 N965 1.384 . S
N964 C960 1.427 . S
N964 C961 1.384 . S
N965 C957 1.427 . S
N965 C963 1.384 . S
H966 C972 0.930 . S
H967 C976 0.930 . S
H968 C981 0.929 . S
H969 C979 0.929 . S
H970 C974 0.929 . S
H971 C980 0.929 . S
C972 H966 0.930 . S
C972 C973 1.367 . S
C972 C980 1.378 . S
C973 C972 1.367 . S
C973 C981 1.433 . S
C974 H970 0.929 . S
C974 C976 1.378 . S
C974 C978 1.350 . S
C975 C978 1.463 1_455 S
C975 C980 1.350 . S
C975 N983 1.427 . S
C976 H967 0.930 . S
C976 C974 1.378 . S
C976 C977 1.367 . S
C977 C976 1.367 . S
C977 C979 1.433 . S
C978 C974 1.350 . S
C978 C975 1.463 1_655 S
C978 N982 1.427 . S
C979 H969 0.929 . S
C979 C977 1.433 . S
C979 N982 1.384 . S
C980 H971 0.929 . S
C980 C972 1.378 . S
C980 C975 1.350 . S
C981 H968 0.929 . S
C981 C973 1.433 . S
C981 N983 1.384 . S
N982 C978 1.427 . S
N982 C979 1.384 . S
N983 C975 1.427 . S
N983 C981 1.384 . S
H984 C990 0.930 . S
H985 C994 0.930 . S
H986 C999 0.929 . S
H987 C997 0.929 . S
H988 C992 0.929 1_565 S
H989 C998 0.929 1_545 S
C990 H984 0.930 . S
C990 C991 1.367 . S
C990 C998 1.378 . S
C991 C990 1.367 . S
C991 C999 1.433 . S
C992 H988 0.929 1_545 S
C992 C994 1.378 . S
C992 C996 1.350 . S
C993 C996 1.463 1_564 S
C993 C998 1.350 . S
C993 N1001 1.427 . S
C994 H985 0.930 . S
C994 C992 1.378 . S
C994 C995 1.367 . S
C995 C994 1.367 . S
C995 C997 1.433 . S
C996 C992 1.350 . S
C996 C993 1.463 1_546 S
C996 N1000 1.427 . S
C997 H987 0.929 . S
C997 C995 1.433 . S
C997 N1000 1.384 . S
C998 H989 0.929 1_565 S
C998 C990 1.378 . S
C998 C993 1.350 . S
C999 H986 0.929 . S
C999 C991 1.433 . S
C999 N1001 1.384 . S
N1000 C996 1.427 . S
N1000 C997 1.384 . S
N1001 C993 1.427 . S
N1001 C999 1.384 . S
H1002 C1008 0.930 . S
H1003 C1012 0.930 . S
H1004 C1017 0.929 . S
H1005 C1015 0.929 . S
H1006 C1010 0.929 . S
H1007 C1016 0.929 . S
C1008 H1002 0.930 . S
C1008 C1009 1.367 . S
C1008 C1016 1.378 . S
C1009 C1008 1.367 . S
C1009 C1017 1.433 . S
C1010 H1006 0.929 . S
C1010 C1012 1.378 . S
C1010 C1014 1.350 . S
C1011 C1014 1.463 . S
C1011 C1016 1.350 . S
C1011 N1019 1.427 . S
C1012 H1003 0.930 . S
C1012 C1010 1.378 . S
C1012 C1013 1.367 . S
C1013 C1012 1.367 . S
C1013 C1015 1.433 . S
C1014 C1010 1.350 . S
C1014 C1011 1.463 . S
C1014 N1018 1.427 . S
C1015 H1005 0.929 . S
C1015 C1013 1.433 . S
C1015 N1018 1.384 . S
C1016 H1007 0.929 . S
C1016 C1008 1.378 . S
C1016 C1011 1.350 . S
C1017 H1004 0.929 . S
C1017 C1009 1.433 . S
C1017 N1019 1.384 . S
N1018 C1014 1.427 . S
N1018 C1015 1.384 . S
N1019 C1011 1.427 . S
N1019 C1017 1.384 . S
H1020 C1026 0.930 . S
H1021 C1030 0.930 . S
H1022 C1035 0.929 . S
H1023 C1033 0.929 . S
H1024 C1028 0.929 1_655 S
H1025 C1034 0.929 1_455 S
C1026 H1020 0.930 . S
C1026 C1027 1.367 . S
C1026 C1034 1.378 . S
C1027 C1026 1.367 . S
C1027 C1035 1.433 . S
C1028 H1024 0.929 1_455 S
C1028 C1030 1.378 . S
C1028 C1032 1.350 . S
C1029 C1032 1.463 1_656 S
C1029 C1034 1.350 . S
C1029 N1037 1.427 . S
C1030 H1021 0.930 . S
C1030 C1028 1.378 . S
C1030 C1031 1.367 . S
C1031 C1030 1.367 . S
C1031 C1033 1.433 . S
C1032 C1028 1.350 . S
C1032 C1029 1.463 1_454 S
C1032 N1036 1.427 . S
C1033 H1023 0.929 . S
C1033 C1031 1.433 . S
C1033 N1036 1.384 . S
C1034 H1025 0.929 1_655 S
C1034 C1026 1.378 . S
C1034 C1029 1.350 . S
C1035 H1022 0.929 . S
C1035 C1027 1.433 . S
C1035 N1037 1.384 . S
N1036 C1032 1.427 . S
N1036 C1033 1.384 . S
N1037 C1029 1.427 . S
N1037 C1035 1.384 . S
H1038 C1044 0.930 . S
H1039 C1048 0.930 . S
H1040 C1053 0.929 . S
H1041 C1051 0.929 . S
H1042 C1046 0.929 . S
H1043 C1052 0.929 . S
C1044 H1038 0.930 . S
C1044 C1045 1.367 . S
C1044 C1052 1.378 1_565 S
C1045 C1044 1.367 . S
C1045 C1053 1.433 . S
C1046 H1042 0.929 . S
C1046 C1048 1.378 1_565 S
C1046 C1050 1.350 1_565 S
C1047 C1050 1.463 1_565 S
C1047 C1052 1.350 1_565 S
C1047 N1055 1.427 . S
C1048 H1039 0.930 . S
C1048 C1046 1.378 1_545 S
C1048 C1049 1.367 . S
C1049 C1048 1.367 . S
C1049 C1051 1.433 . S
C1050 C1046 1.350 1_545 S
C1050 C1047 1.463 1_545 S
C1050 N1054 1.427 . S
C1051 H1041 0.929 . S
C1051 C1049 1.433 . S
C1051 N1054 1.384 . S
C1052 H1043 0.929 . S
C1052 C1044 1.378 1_545 S
C1052 C1047 1.350 1_545 S
C1053 H1040 0.929 . S
C1053 C1045 1.433 . S
C1053 N1055 1.384 . S
N1054 C1050 1.427 . S
N1054 C1051 1.384 . S
N1055 C1047 1.427 . S
N1055 C1053 1.384 . S
C415 C144 0.920 . S
C419 C0 0.905 . S
C433 C178 0.923 . S
C437 C34 0.920 1_455 S
C451 C68 0.907 1_545 S
C455 C8 0.920 . S
C469 C102 0.917 . S
C473 C42 0.923 . S
C487 C136 0.907 1_655 S
C491 C76 0.921 . S
C505 C110 0.920 . S
C509 C170 0.908 1_565 S
C523 C280 0.923 . S
C527 C204 0.917 . S
C541 C238 0.912 1_455 S
C545 C314 0.921 . S
C559 C348 0.922 . S
C563 C272 0.914 1_545 S
C577 C306 0.912 . S
C581 C382 0.922 . S
C595 C340 0.920 1_655 S
C599 C212 0.923 . S
C613 C246 0.923 . S
C617 C374 0.921 1_565 S
C631 C153 1.133 . S
C635 C29 1.148 . S
C649 C63 1.149 . S
C653 C187 1.134 . S
C667 C97 1.150 . S
C671 C17 1.136 . S
C685 C131 1.147 . S
C689 C51 1.140 . S
C703 C85 1.133 . S
C707 C165 1.149 . S
C721 C119 1.141 . S
C725 C199 1.150 . S
C739 C289 1.139 . S
C743 C233 1.147 . S
C757 C267 1.150 . S
C761 C323 1.137 . S
C775 C301 1.147 . S
C779 C357 1.138 . S
C793 C391 1.143 . S
C797 C335 1.149 . S
C811 C369 1.148 . S
C815 C221 1.134 . S
C829 C255 1.143 . S
C833 C403 1.149 . S
C847 C353 1.568 . S
C851 C13 1.571 . S
C865 C47 1.572 . S
C869 C387 1.568 . S
C883 C81 1.573 . S
C887 C217 1.574 . S
C901 C115 1.571 . S
C905 C251 1.568 . S
C919 C149 1.571 . S
C923 C285 1.568 . S
C937 C319 1.570 . S
C941 C183 1.574 . S
C955 C310 1.772 . S
C959 C4 1.772 . S
C973 C344 1.769 . S
C977 C38 1.769 . S
C991 C72 1.766 . S
C995 C378 1.766 . S
C1009 C106 1.769 . S
C1013 C208 1.770 . S
C1027 C242 1.767 . S
C1031 C140 1.767 . S
C1045 C276 1.765 . S
C1049 C174 1.765 . S
