# Generated by pormake.
# Topology wjs, (5)-cn, num edge types: 1
# Building blocks:
#     Node 0, Type 0, BuildingBlock: XOMCOT_clean_sbu_1, # of connection points: 5
#     Node 1, Type 0, BuildingBlock: XOMCOT_clean_sbu_1, # of connection points: 5
#     Node 2, Type 0, BuildingBlock: XOMCOT_clean_sbu_1, # of connection points: 5
#     Node 3, Type 0, BuildingBlock: XOMCOT_clean_sbu_1, # of connection points: 5
#     Node 4, Type 0, BuildingBlock: XOMCOT_clean_sbu_1, # of connection points: 5
#     Node 5, Type 0, BuildingBlock: XOMCOT_clean_sbu_1, # of connection points: 5
#     Node 6, Type 0, BuildingBlock: XOMCOT_clean_sbu_1, # of connection points: 5
#     Node 7, Type 0, BuildingBlock: XOMCOT_clean_sbu_1, # of connection points: 5
#     Node 8, Type 0, BuildingBlock: XOMCOT_clean_sbu_1, # of connection points: 5
#     Node 9, Type 0, BuildingBlock: XOMCOT_clean_sbu_1, # of connection points: 5
#     Node 10, Type 0, BuildingBlock: XOMCOT_clean_sbu_1, # of connection points: 5
#     Node 11, Type 0, BuildingBlock: XOMCOT_clean_sbu_1, # of connection points: 5
#     Edge 12, Type (0, 0), BuildingBlock: OJICUG_clean_linker_0, # of connection points: 2
#     Edge 13, Type (0, 0), BuildingBlock: OJICUG_clean_linker_0, # of connection points: 2
#     Edge 14, Type (0, 0), BuildingBlock: OJICUG_clean_linker_0, # of connection points: 2
#     Edge 15, Type (0, 0), BuildingBlock: OJICUG_clean_linker_0, # of connection points: 2
#     Edge 16, Type (0, 0), BuildingBlock: OJICUG_clean_linker_0, # of connection points: 2
#     Edge 17, Type (0, 0), BuildingBlock: OJICUG_clean_linker_0, # of connection points: 2
#     Edge 18, Type (0, 0), BuildingBlock: OJICUG_clean_linker_0, # of connection points: 2
#     Edge 19, Type (0, 0), BuildingBlock: OJICUG_clean_linker_0, # of connection points: 2
#     Edge 20, Type (0, 0), BuildingBlock: OJICUG_clean_linker_0, # of connection points: 2
#     Edge 21, Type (0, 0), BuildingBlock: OJICUG_clean_linker_0, # of connection points: 2
#     Edge 22, Type (0, 0), BuildingBlock: OJICUG_clean_linker_0, # of connection points: 2
#     Edge 23, Type (0, 0), BuildingBlock: OJICUG_clean_linker_0, # of connection points: 2
#     Edge 24, Type (0, 0), BuildingBlock: OJICUG_clean_linker_0, # of connection points: 2
#     Edge 25, Type (0, 0), BuildingBlock: OJICUG_clean_linker_0, # of connection points: 2
#     Edge 26, Type (0, 0), BuildingBlock: OJICUG_clean_linker_0, # of connection points: 2
#     Edge 27, Type (0, 0), BuildingBlock: OJICUG_clean_linker_0, # of connection points: 2
#     Edge 28, Type (0, 0), BuildingBlock: OJICUG_clean_linker_0, # of connection points: 2
#     Edge 29, Type (0, 0), BuildingBlock: OJICUG_clean_linker_0, # of connection points: 2
#     Edge 30, Type (0, 0), BuildingBlock: OJICUG_clean_linker_0, # of connection points: 2
#     Edge 31, Type (0, 0), BuildingBlock: OJICUG_clean_linker_0, # of connection points: 2
#     Edge 32, Type (0, 0), BuildingBlock: OJICUG_clean_linker_0, # of connection points: 2
#     Edge 33, Type (0, 0), BuildingBlock: OJICUG_clean_linker_0, # of connection points: 2
#     Edge 34, Type (0, 0), BuildingBlock: OJICUG_clean_linker_0, # of connection points: 2
#     Edge 35, Type (0, 0), BuildingBlock: OJICUG_clean_linker_0, # of connection points: 2
#     Edge 36, Type (0, 0), BuildingBlock: OJICUG_clean_linker_0, # of connection points: 2
#     Edge 37, Type (0, 0), BuildingBlock: OJICUG_clean_linker_0, # of connection points: 2
#     Edge 38, Type (0, 0), BuildingBlock: OJICUG_clean_linker_0, # of connection points: 2
#     Edge 39, Type (0, 0), BuildingBlock: OJICUG_clean_linker_0, # of connection points: 2
#     Edge 40, Type (0, 0), BuildingBlock: OJICUG_clean_linker_0, # of connection points: 2
#     Edge 41, Type (0, 0), BuildingBlock: OJICUG_clean_linker_0, # of connection points: 2
# Relax obj value: 0.374
# Max RMSD: 0.270
# Mean RMSD: 0.270
data_MOF--net-wjs--node1-XOMCOT_clean_sbu_1--edge1-OJICUG_clean_linker_0
_symmetry_space_group_name_H-M    P1
_symmetry_Int_Tables_number       1
_symmetry_cell_setting            triclinic
loop_
_symmetry_equiv_pos_as_xyz
'x, y, z'
_cell_length_a     24.001361
_cell_length_b     24.003049
_cell_length_c     48.68441
_cell_angle_alpha  89.985856
_cell_angle_beta   90.015242
_cell_angle_gamma 120.03031
loop_
_atom_site_label
_atom_site_type_symbol
_atom_site_fract_x
_atom_site_fract_y
_atom_site_fract_z
_atom_type_partial_charge
C0 C 0.29668 0.34792 0.06568 0.0
C1 C 0.31547 0.30921 0.07864 0.0
N2 N 0.27307 0.24778 0.07211 0.0
N3 N 0.24337 0.31102 0.05065 0.0
C4 C 0.22982 0.25009 0.05518 0.0
H5 H 0.31954 0.3996 0.06767 0.0
Co6 Co 0.19655 0.34036 0.03123 0.0
C7 C 0.14995 0.22619 0.99167 0.0
O8 O 0.10168 0.18199 1.00601 0.0
N9 N 0.14955 0.37031 1.0123 0.0
C10 C 0.10558 0.40086 0.97983 0.0
C11 C 0.14954 0.38132 0.98516 0.0
C12 C 0.10586 0.3839 0.02308 0.0
N13 N 0.07785 0.40225 1.00374 0.0
O14 O 0.1191 0.27675 0.0495 0.0
H15 H 0.17959 0.3756 0.9702 0.0
H16 H 0.09426 0.37946 0.04471 0.0
O17 O 0.18377 0.28289 1.00115 0.0
C18 C 0.11814 0.29002 0.07481 0.0
O19 O 0.16555 0.34451 0.08428 0.0
N20 N 0.27406 0.40377 1.01491 0.0
C21 C 0.40468 0.49182 1.00702 0.0
C22 C 0.37623 0.43039 0.99528 0.0
C23 C 0.31134 0.38694 0.99972 0.0
C24 C 0.29926 0.46515 0.02443 0.0
C25 C 0.36483 0.51002 0.02088 0.0
H26 H 0.29382 0.338 0.99333 0.0
H27 H 0.26991 0.47757 0.037 0.0
H28 H 0.18844 0.20819 0.0467 0.0
H29 H 0.35572 0.32476 0.09258 0.0
H30 H 0.09585 0.41417 0.95992 0.0
H31 H 0.40503 0.41352 0.98499 0.0
H32 H 0.38483 0.55712 0.03022 0.0
C33 C 0.94975 0.29355 0.23373 0.0
C34 C 0.00725 0.31211 0.24678 0.0
N35 N 0.02627 0.26979 0.2401 0.0
N36 N 0.93347 0.24046 0.21859 0.0
C37 C 0.98079 0.22687 0.22309 0.0
H38 H 0.9213 0.31681 0.23554 0.0
Co39 Co 0.86028 0.19409 0.19736 0.0
C40 C 0.91016 0.14576 0.15055 0.0
O41 O 0.8567 0.09238 0.14466 0.0
N42 N 0.78594 0.14747 0.17641 0.0
C43 C 0.71296 0.10932 0.14306 0.0
C44 C 0.77576 0.1536 0.14961 0.0
C45 C 0.72868 0.10018 0.18577 0.0
N46 N 0.68334 0.07565 0.1659 0.0
O47 O 0.84349 0.11655 0.21649 0.0
H48 H 0.81159 0.18821 0.13575 0.0
H49 H 0.72034 0.08415 0.20689 0.0
O50 O 0.91159 0.18174 0.17011 0.0
C51 C 0.82515 0.11567 0.24117 0.0
O52 O 0.81646 0.16302 0.24928 0.0
N53 N 0.877 0.27183 0.18037 0.0
C54 C 0.92232 0.4029 0.17237 0.0
C55 C 0.95238 0.3726 0.15958 0.0
C56 C 0.92939 0.3073 0.16397 0.0
C57 C 0.84311 0.29877 0.19067 0.0
C58 C 0.86523 0.36455 0.18709 0.0
H59 H 0.95786 0.28781 0.15603 0.0
H60 H 0.80232 0.27059 0.20394 0.0
H61 H 0.98176 0.18613 0.21409 0.0
H62 H 0.03225 0.35242 0.26066 0.0
H63 H 0.69047 0.10382 0.12321 0.0
H64 H 0.99688 0.40009 0.14829 0.0
H65 H 0.84005 0.38583 0.1971 0.0
C66 C 0.65244 0.93783 0.40691 0.0
C67 C 0.69091 0.99458 0.4205 0.0
N68 N 0.75142 0.01863 0.41119 0.0
N69 N 0.6885 0.92699 0.38877 0.0
C70 C 0.74878 0.97679 0.39208 0.0
H71 H 0.60186 0.90572 0.41071 0.0
Co72 Co 0.66169 0.85554 0.36646 0.0
C73 C 0.75687 0.90937 0.31902 0.0
O74 O 0.76095 0.85774 0.31407 0.0
N75 N 0.63364 0.78245 0.34471 0.0
C76 C 0.59631 0.71002 0.31118 0.0
C77 C 0.61664 0.77309 0.31799 0.0
C78 C 0.62243 0.72454 0.35376 0.0
N79 N 0.59996 0.67941 0.33377 0.0
O80 O 0.72693 0.84165 0.38267 0.0
H81 H 0.61811 0.80949 0.30443 0.0
H82 H 0.6302 0.71563 0.37477 0.0
O83 O 0.72161 0.90963 0.33854 0.0
C84 C 0.71478 0.81998 0.40713 0.0
O85 O 0.65913 0.80512 0.41818 0.0
N86 N 0.59663 0.86985 0.35196 0.0
C87 C 0.5094 0.91412 0.34653 0.0
C88 C 0.56523 0.93996 0.33043 0.0
C89 C 0.60826 0.91743 0.33348 0.0
C90 C 0.5392 0.83906 0.36547 0.0
C91 C 0.4951 0.86101 0.36335 0.0
H92 H 0.65263 0.9422 0.32221 0.0
H93 H 0.53042 0.80151 0.38005 0.0
H94 H 0.7901 0.98181 0.38096 0.0
H95 H 0.67612 0.01533 0.43668 0.0
H96 H 0.57824 0.6881 0.29133 0.0
H97 H 0.57856 0.98101 0.31719 0.0
H98 H 0.452 0.83891 0.37585 0.0
C99 C 0.70672 0.65486 0.56653 0.0
C100 C 0.68855 0.69406 0.57948 0.0
N101 N 0.73132 0.75533 0.57286 0.0
N102 N 0.75999 0.69133 0.55141 0.0
C103 C 0.77416 0.75245 0.55588 0.0
H104 H 0.68338 0.60313 0.5685 0.0
Co105 Co 0.80592 0.66134 0.53181 0.0
C106 C 0.85226 0.77485 0.49156 0.0
O107 O 0.90169 0.81975 0.50512 0.0
N108 N 0.85212 0.63078 0.51268 0.0
C109 C 0.89532 0.60002 0.47997 0.0
C110 C 0.85163 0.61977 0.48551 0.0
C111 C 0.89583 0.61696 0.52325 0.0
N112 N 0.92338 0.59849 0.50376 0.0
O113 O 0.88377 0.72447 0.5499 0.0
H114 H 0.82147 0.62569 0.47068 0.0
H115 H 0.90785 0.62136 0.54485 0.0
O116 O 0.81877 0.71885 0.50177 0.0
C117 C 0.88487 0.71058 0.57512 0.0
O118 O 0.83746 0.65589 0.58443 0.0
N119 N 0.72797 0.59847 0.51563 0.0
C120 C 0.5976 0.51054 0.50709 0.0
C121 C 0.62587 0.57279 0.49622 0.0
C122 C 0.69057 0.61617 0.50104 0.0
C123 C 0.70286 0.53656 0.52447 0.0
C124 C 0.63739 0.49172 0.52058 0.0
H125 H 0.70788 0.66559 0.49548 0.0
H126 H 0.73225 0.52347 0.53666 0.0
H127 H 0.81562 0.79407 0.54726 0.0
H128 H 0.6484 0.67896 0.59344 0.0
H129 H 0.90471 0.58671 0.46 0.0
H130 H 0.59698 0.59013 0.48635 0.0
H131 H 0.61742 0.44403 0.52934 0.0
C132 C 0.0602 0.71601 0.73666 0.0
C133 C 0.00303 0.69751 0.74998 0.0
N134 N 0.98156 0.73709 0.74198 0.0
N135 N 0.07375 0.7662 0.72 0.0
C136 C 0.02527 0.77832 0.72393 0.0
H137 H 0.09036 0.69487 0.73939 0.0
Co138 Co 0.14534 0.81135 0.69791 0.0
C139 C 0.09256 0.85581 0.651 0.0
O140 O 0.1451 0.91019 0.64526 0.0
N141 N 0.21862 0.85708 0.67619 0.0
C142 C 0.29063 0.89397 0.64243 0.0
C143 C 0.22788 0.85019 0.64936 0.0
C144 C 0.27637 0.90428 0.68516 0.0
N145 N 0.32114 0.92804 0.66507 0.0
O146 O 0.16089 0.88987 0.71551 0.0
H147 H 0.19151 0.8153 0.63576 0.0
H148 H 0.28558 0.92073 0.70618 0.0
O149 O 0.09209 0.82033 0.67058 0.0
C150 C 0.1854 0.89831 0.73943 0.0
O151 O 0.20171 0.85714 0.7488 0.0
N152 N 0.12919 0.73239 0.68213 0.0
C153 C 0.0838 0.60089 0.67506 0.0
C154 C 0.05578 0.63145 0.66085 0.0
C155 C 0.07881 0.69691 0.66473 0.0
C156 C 0.16147 0.70518 0.69386 0.0
C157 C 0.13918 0.63919 0.69083 0.0
H158 H 0.05204 0.71663 0.65524 0.0
H159 H 0.2009 0.7334 0.70776 0.0
H160 H 0.02222 0.81691 0.71383 0.0
H161 H 0.98002 0.6593 0.76498 0.0
H162 H 0.31248 0.89877 0.62249 0.0
H163 H 0.01277 0.60415 0.64861 0.0
H164 H 0.16292 0.6178 0.70192 0.0
C165 C 0.34735 0.05862 0.90549 0.0
C166 C 0.30804 1.00105 0.91826 0.0
N167 N 0.2476 0.9792 0.90927 0.0
N168 N 0.31194 0.07233 0.88817 0.0
C169 C 0.2511 0.02333 0.89112 0.0
H170 H 0.39837 0.08925 0.90902 0.0
Co171 Co 0.34398 0.14722 0.86776 0.0
C172 C 0.23586 0.0814 0.82506 0.0
O173 O 0.19203 0.09131 0.8365 0.0
N174 N 0.37696 0.22345 0.84792 0.0
C175 C 0.41228 0.29666 0.81474 0.0
C176 C 0.391 0.23315 0.82093 0.0
C177 C 0.39045 0.28153 0.85774 0.0
N178 N 0.41173 0.32717 0.83794 0.0
O179 O 0.27843 0.16198 0.88307 0.0
H180 H 0.38613 0.19643 0.80667 0.0
H181 H 0.38383 0.28979 0.87902 0.0
O182 O 0.29006 0.10127 0.83674 0.0
C183 C 0.28695 0.17796 0.90834 0.0
O184 O 0.33903 0.1861 0.9208 0.0
N185 N 0.40884 0.1317 0.85419 0.0
C186 C 0.49779 0.08972 0.84817 0.0
C187 C 0.43622 0.05487 0.83677 0.0
C188 C 0.39226 0.0758 0.84045 0.0
C189 C 0.46997 0.16882 0.86391 0.0
C190 C 0.51525 0.14827 0.86139 0.0
H191 H 0.34321 0.04302 0.83458 0.0
H192 H 0.48206 0.21173 0.87561 0.0
H193 H 0.21015 0.02049 0.88051 0.0
H194 H 0.32232 0.97811 0.93367 0.0
H195 H 0.42801 0.31872 0.79475 0.0
H196 H 0.41997 0.0085 0.82718 0.0
H197 H 0.5623 0.17632 0.8707 0.0
C198 C 0.65829 0.71604 0.78524 0.0
C199 C 0.69693 0.69749 0.77195 0.0
N200 N 0.75802 0.73712 0.77992 0.0
N201 N 0.69498 0.7663 0.80185 0.0
C202 C 0.75561 0.77844 0.79793 0.0
H203 H 0.60696 0.69487 0.78252 0.0
Co204 Co 0.66856 0.81151 0.82389 0.0
C205 C 0.7659 0.85628 0.87079 0.0
O206 O 0.76775 0.91069 0.87643 0.0
N207 N 0.64099 0.85729 0.84554 0.0
C208 C 0.60583 0.89425 0.87924 0.0
C209 C 0.62488 0.85053 0.87237 0.0
C210 C 0.63036 0.90437 0.8365 0.0
N211 N 0.60933 0.92817 0.85656 0.0
O212 O 0.73153 0.88997 0.8062 0.0
H213 H 0.6264 0.81574 0.88602 0.0
H214 H 0.63756 0.92072 0.81547 0.0
O215 O 0.73086 0.82067 0.85124 0.0
C216 C 0.71529 0.89824 0.78229 0.0
O217 O 0.6577 0.85696 0.77301 0.0
N218 N 0.60573 0.7326 0.83973 0.0
C219 C 0.5196 0.60108 0.8468 0.0
C220 C 0.57823 0.63166 0.86098 0.0
C221 C 0.62068 0.69713 0.8571 0.0
C222 C 0.54618 0.70536 0.82803 0.0
C223 C 0.50246 0.63936 0.83107 0.0
H224 H 0.66723 0.71688 0.86655 0.0
H225 H 0.53493 0.73356 0.81415 0.0
H226 H 0.79728 0.81707 0.80799 0.0
H227 H 0.68169 0.65922 0.75699 0.0
H228 H 0.5888 0.89912 0.89917 0.0
H229 H 0.59399 0.60437 0.87319 0.0
H230 H 0.45727 0.61795 0.82 0.0
C231 C 0.95095 0.65542 0.95637 0.0
C232 C 0.00821 0.69425 0.94323 0.0
N233 N 0.02667 0.75572 0.94939 0.0
N234 N 0.93414 0.69231 0.97115 0.0
C235 C 0.98103 0.75331 0.96628 0.0
H236 H 0.92257 0.60365 0.95465 0.0
Co237 Co 0.85804 0.66309 0.99067 0.0
C238 C 0.92619 0.77814 0.02961 0.0
O239 O 0.92204 0.82179 1.01489 0.0
N240 N 0.78121 0.63335 1.00969 0.0
C241 C 0.70693 0.60327 0.04224 0.0
C242 C 0.7704 0.62272 0.03686 0.0
C243 C 0.72384 0.61965 0.99896 0.0
N244 N 0.67761 0.60158 0.01834 0.0
O245 O 0.84396 0.72629 0.97222 0.0
H246 H 0.80631 0.62864 0.0518 0.0
H247 H 0.71651 0.62381 0.97731 0.0
O248 O 0.90308 0.72106 0.02057 0.0
C249 C 0.82908 0.7122 0.94701 0.0
O250 O 0.82171 0.6574 0.93783 0.0
N251 N 0.87225 0.59996 1.00715 0.0
C252 C 0.91481 0.51201 1.01514 0.0
C253 C 0.94766 0.57339 0.02695 0.0
C254 C 0.92619 0.61679 0.02248 0.0
C255 C 0.83612 0.5386 0.9976 0.0
C256 C 0.85681 0.49378 1.00121 0.0
H257 H 0.95744 0.66568 0.029 0.0
H258 H 0.79444 0.52617 0.98495 0.0
H259 H 0.98115 0.7952 0.97449 0.0
H260 H 0.03314 0.67871 0.92942 0.0
H261 H 0.68404 0.59025 0.06218 0.0
H262 H 0.99326 0.59026 0.03733 0.0
H263 H 0.82976 0.4467 0.99183 0.0
C264 C 0.29382 0.94685 0.11657 0.0
C265 C 0.31201 0.00439 0.1038 0.0
N266 N 0.27242 0.02541 0.11232 0.0
N267 N 0.24373 0.93234 0.13342 0.0
C268 C 0.23132 0.98085 0.1302 0.0
H269 H 0.31486 0.91672 0.11331 0.0
Co270 Co 0.20006 0.85696 0.15348 0.0
C271 C 0.15697 0.92259 0.19589 0.0
O272 O 0.10409 0.9139 0.18399 0.0
N273 N 0.15613 0.78045 0.17296 0.0
C274 C 0.11657 0.70646 0.20579 0.0
C275 C 0.15901 0.77016 0.2 0.0
C276 C 0.11227 0.72258 0.16269 0.0
N277 N 0.08693 0.6765 0.18228 0.0
O278 O 0.1201 0.8424 0.13772 0.0
H279 H 0.18999 0.80658 0.21457 0.0
H280 H 0.09857 0.7148 0.14127 0.0
O281 O 0.19118 0.9023 0.18448 0.0
C282 C 0.11373 0.82869 0.1122 0.0
O283 O 0.15875 0.8228 0.09949 0.0
N284 N 0.27989 0.87207 0.16755 0.0
C285 C 0.41048 0.91335 0.17441 0.0
C286 C 0.38365 0.9482 0.18568 0.0
C287 C 0.31892 0.92759 0.1816 0.0
C288 C 0.30391 0.83486 0.15802 0.0
C289 C 0.36956 0.85503 0.16098 0.0
H290 H 0.30263 0.96036 0.18742 0.0
H291 H 0.2733 0.79219 0.14613 0.0
H292 H 0.19235 0.98296 0.14039 0.0
H293 H 0.34983 0.02781 0.08867 0.0
H294 H 0.1091 0.68388 0.22573 0.0
H295 H 0.41364 0.9944 0.19544 0.0
H296 H 0.38863 0.82697 0.15178 0.0
C297 C 0.34829 0.2867 0.28204 0.0
C298 C 0.30956 0.30522 0.26882 0.0
N299 N 0.24896 0.26754 0.27783 0.0
N300 N 0.31225 0.23842 0.29963 0.0
C301 C 0.25179 0.22735 0.29637 0.0
H302 H 0.39919 0.3064 0.27856 0.0
Co303 Co 0.33964 0.19428 0.32186 0.0
C304 C 0.24468 0.1516 0.36955 0.0
O305 O 0.24312 0.09731 0.37516 0.0
N306 N 0.36838 0.14971 0.34366 0.0
C307 C 0.40709 0.11618 0.37728 0.0
C308 C 0.38662 0.15868 0.37024 0.0
C309 C 0.37901 0.10241 0.33494 0.0
N310 N 0.40228 0.08068 0.35497 0.0
O311 O 0.27565 0.11499 0.30516 0.0
H312 H 0.38584 0.19434 0.38357 0.0
H313 H 0.37031 0.08458 0.31412 0.0
O314 O 0.27876 0.1868 0.34969 0.0
C315 C 0.29074 0.10566 0.2812 0.0
O316 O 0.34786 0.14648 0.27136 0.0
N317 N 0.40346 0.27388 0.33667 0.0
C318 C 0.4905 0.40544 0.34249 0.0
C319 C 0.433 0.37568 0.3575 0.0
C320 C 0.39003 0.31014 0.35422 0.0
C321 C 0.46203 0.30042 0.32411 0.0
C322 C 0.50613 0.36647 0.32648 0.0
H323 H 0.3443 0.29085 0.36438 0.0
H324 H 0.47203 0.27152 0.31011 0.0
H325 H 0.21053 0.19023 0.30724 0.0
H326 H 0.32433 0.34202 0.25318 0.0
H327 H 0.42598 0.1133 0.39708 0.0
H328 H 0.41851 0.40362 0.36998 0.0
H329 H 0.5504 0.38733 0.31476 0.0
C330 C 0.04962 0.34379 0.45544 0.0
C331 C 0.99131 0.30421 0.44318 0.0
N332 N 0.9734 0.24312 0.44986 0.0
N333 N 0.06759 0.30773 0.47018 0.0
C334 C 0.02041 0.24648 0.46613 0.0
H335 H 0.07765 0.39551 0.45334 0.0
Co336 Co 0.14413 0.33816 0.48947 0.0
C337 C 0.07781 0.22439 0.52959 0.0
O338 O 0.0821 0.17978 0.51571 0.0
N339 N 0.22132 0.36902 0.50838 0.0
C340 C 0.29545 0.39975 0.54104 0.0
C341 C 0.23206 0.38032 0.53552 0.0
C342 C 0.27872 0.38241 0.49779 0.0
N343 N 0.3248 0.4008 0.51726 0.0
O344 O 0.1591 0.27547 0.47105 0.0
H345 H 0.19612 0.37472 0.55036 0.0
H346 H 0.28621 0.37769 0.47622 0.0
O347 O 0.10011 0.28055 0.5196 0.0
C348 C 0.17456 0.29049 0.44593 0.0
O349 O 0.18103 0.34512 0.43701 0.0
N350 N 0.12911 0.40081 0.50583 0.0
C351 C 0.08619 0.48834 0.51417 0.0
C352 C 0.05301 0.42652 0.52553 0.0
C353 C 0.07463 0.38332 0.52086 0.0
C354 C 0.1653 0.46245 0.4966 0.0
C355 C 0.14445 0.50708 0.50039 0.0
H356 H 0.04315 0.33411 0.52692 0.0
H357 H 0.20735 0.47536 0.48412 0.0
H358 H 0.02085 0.20508 0.47464 0.0
H359 H 0.96514 0.31891 0.42969 0.0
H360 H 0.31828 0.41313 0.561 0.0
H361 H 0.00712 0.40924 0.53571 0.0
H362 H 0.17167 0.55448 0.49131 0.0
C363 C 0.71414 0.05894 0.61579 0.0
C364 C 0.69589 1.00141 0.603 0.0
N365 N 0.73428 0.97945 0.61209 0.0
N366 N 0.76301 0.07245 0.63323 0.0
C367 C 0.77476 0.02342 0.63032 0.0
H368 H 0.69387 0.08964 0.61222 0.0
Co369 Co 0.80579 0.14711 0.65373 0.0
C370 C 0.8478 0.08122 0.69652 0.0
O371 O 0.90188 0.0916 0.68524 0.0
N372 N 0.849 0.2232 0.67367 0.0
C373 C 0.88671 0.29622 0.70692 0.0
C374 C 0.84454 0.23271 0.70067 0.0
C375 C 0.8936 0.28136 0.66391 0.0
N376 N 0.91785 0.3269 0.68375 0.0
O377 O 0.88615 0.16182 0.63851 0.0
H378 H 0.81263 0.19589 0.71489 0.0
H379 H 0.90854 0.28979 0.64264 0.0
O380 O 0.81345 0.10092 0.68475 0.0
C381 C 0.89411 0.17876 0.61336 0.0
O382 O 0.85076 0.18807 0.60105 0.0
N383 N 0.7253 0.13154 0.66722 0.0
C384 C 0.59435 0.08963 0.67323 0.0
C385 C 0.62095 0.05461 0.68455 0.0
C386 C 0.68585 0.07551 0.68086 0.0
C387 C 0.7014 0.16877 0.65755 0.0
C388 C 0.63555 0.14825 0.66006 0.0
H389 H 0.70201 0.04262 0.68666 0.0
H390 H 0.73232 0.21177 0.64591 0.0
H391 H 0.81267 0.02043 0.64104 0.0
H392 H 0.6588 0.97856 0.58752 0.0
H393 H 0.89293 0.31815 0.72693 0.0
H394 H 0.59073 0.00818 0.69408 0.0
H395 H 0.61662 0.17639 0.65081 0.0
C396 C 0.33074 0.1924 0.08685 0.0
C397 C 0.27257 0.1915 0.08232 0.0
H398 H 0.37603 0.13957 0.10002 0.0
C399 C 0.21416 0.13542 0.08827 0.0
H400 H 0.3763 0.23502 0.08227 0.0
C401 C 0.21403 0.08113 0.09867 0.0
C402 C 0.27227 0.08187 0.10284 0.0
H403 H 0.16874 0.1339 0.08522 0.0
H404 H 0.16848 0.03821 0.10293 0.0
C405 C 0.33057 0.13789 0.09682 0.0
C406 C 0.13428 0.21021 0.26526 0.0
C407 C 0.19256 0.26814 0.2686 0.0
H408 H 0.0353 0.16551 0.25323 0.0
C409 C 0.19532 0.32663 0.26254 0.0
H410 H 0.13127 0.16454 0.2696 0.0
C411 C 0.14048 0.32723 0.25345 0.0
C412 C 0.08241 0.26927 0.24979 0.0
H413 H 0.23974 0.37184 0.26513 0.0
H414 H 0.14359 0.37284 0.24885 0.0
C415 C 0.07976 0.21074 0.25569 0.0
C416 C 0.92053 0.131 0.43362 0.0
C417 C 0.91727 0.18615 0.44037 0.0
H418 H 0.86974 0.03412 0.41862 0.0
C419 C 0.85878 0.18544 0.43731 0.0
H420 H 0.96534 0.13075 0.43559 0.0
C421 C 0.80421 0.13024 0.42787 0.0
C422 C 0.80761 0.07533 0.42084 0.0
H423 H 0.8552 0.22738 0.44254 0.0
H424 H 0.75951 0.13062 0.42569 0.0
C425 C 0.86623 0.07618 0.42369 0.0
C426 C 0.67452 0.8119 0.58707 0.0
C427 C 0.73238 0.81197 0.58291 0.0
H428 H 0.63006 0.86591 0.59967 0.0
C429 C 0.79105 0.86763 0.589 0.0
H430 H 0.6288 0.76959 0.58239 0.0
C431 C 0.79173 0.92236 0.59917 0.0
C432 C 0.73382 0.92249 0.60292 0.0
H433 H 0.83621 0.86846 0.58621 0.0
H434 H 0.83745 0.96495 0.60355 0.0
C435 C 0.67526 0.86688 0.59678 0.0
C436 C 0.92631 0.79537 0.75612 0.0
C437 C 0.92508 0.73704 0.75153 0.0
H438 H 0.87353 0.8409 0.76912 0.0
C439 C 0.86816 0.67873 0.75644 0.0
H440 H 0.96989 0.84088 0.75266 0.0
C441 C 0.81303 0.67873 0.76554 0.0
C442 C 0.81446 0.73706 0.77038 0.0
H443 H 0.86619 0.63325 0.75287 0.0
H444 H 0.76951 0.63327 0.76917 0.0
C445 C 0.87158 0.79538 0.76572 0.0
C446 C 0.13308 0.92225 0.92237 0.0
C447 C 0.19107 0.92231 0.91853 0.0
H448 H 0.03485 0.86862 0.9356 0.0
C449 C 0.19397 0.86674 0.92477 0.0
H450 H 0.12997 0.9648 0.91792 0.0
C451 C 0.13982 0.81194 0.9347 0.0
C452 C 0.08211 0.81211 0.93898 0.0
H453 H 0.23814 0.86569 0.92181 0.0
H454 H 0.14328 0.76973 0.9395 0.0
C455 C 0.0791 0.86768 0.93274 0.0
C456 C 0.58038 0.55824 0.98885 0.0
C457 C 0.61055 0.58208 1.01436 0.0
H458 H 0.49197 0.51286 0.96622 0.0
C459 C 0.57325 0.58383 0.0363 0.0
H460 H 0.60724 0.55607 0.97145 0.0
C461 C 0.50693 0.5587 0.03331 0.0
C462 C 0.47618 0.5312 1.00829 0.0
H463 H 0.59492 0.60314 0.05606 0.0
H464 H 0.47927 0.5575 0.05111 0.0
C465 C 0.51407 0.53318 0.98585 0.0
C466 C 0.99055 0.51196 0.15072 0.0
C467 C 0.95611 0.47454 0.17354 0.0
H468 H 0.05946 0.60508 0.13559 0.0
C469 C 0.96138 0.50579 0.19863 0.0
H470 H 0.98722 0.48951 0.13103 0.0
C471 C 0.00265 0.57217 0.20124 0.0
C472 C 0.03978 0.60912 0.17883 0.0
H473 H 0.93621 0.47853 0.21672 0.0
H474 H 0.0064 0.59424 0.22103 0.0
C475 C 0.03182 0.57841 0.15333 0.0
C476 C 0.42874 0.00239 0.37591 0.0
C477 C 0.4221 0.03298 0.35249 0.0
H478 H 0.46087 0.94058 0.3924 0.0
C479 C 0.43758 0.01786 0.32668 0.0
H480 H 0.4162 0.0117 0.39606 0.0
C481 C 0.46209 0.97604 0.32454 0.0
C482 C 0.47197 0.94825 0.34812 0.0
H483 H 0.43339 0.04021 0.30812 0.0
H484 H 0.47533 0.96711 0.30444 0.0
C485 C 0.45337 0.9606 0.37376 0.0
C486 C 0.42252 0.4445 0.48813 0.0
C487 C 0.39179 0.41996 0.51348 0.0
H488 H 0.51153 0.49071 0.46595 0.0
C489 C 0.42847 0.41732 0.53548 0.0
H490 H 0.39605 0.44732 0.47071 0.0
C491 C 0.49483 0.44239 0.53275 0.0
C492 C 0.52616 0.47077 0.50794 0.0
H493 H 0.40626 0.39745 0.5551 0.0
H494 H 0.52207 0.44299 0.55059 0.0
C495 C 0.48888 0.4696 0.48541 0.0
C496 C 0.97601 0.42551 0.65523 0.0
C497 C 0.9653 0.39442 0.68081 0.0
H498 H 0.02315 0.5146 0.63312 0.0
C499 C 1.00009 0.43115 0.70372 0.0
H500 H 0.95033 0.39915 0.63709 0.0
C501 C 0.04165 0.4976 0.70146 0.0
C502 C 0.04966 0.52918 0.6762 0.0
H503 H 0.99432 0.40889 0.72363 0.0
H504 H 0.06493 0.52462 0.71986 0.0
C505 C 0.01764 0.49198 0.65296 0.0
C506 C 0.58792 0.01069 0.8767 0.0
C507 C 0.58979 0.97596 0.85375 0.0
H508 H 0.55852 0.07521 0.89279 0.0
C509 C 0.56932 0.98659 0.82818 0.0
H510 H 0.60438 0.00468 0.89658 0.0
C511 C 0.54394 0.02761 0.82597 0.0
C512 C 0.53849 0.05923 0.84922 0.0
H513 H 0.56971 0.96082 0.81004 0.0
H514 H 0.52573 0.03231 0.80626 0.0
C515 C 0.56267 0.052 0.87444 0.0
C516 C 0.43357 0.43142 0.81806 0.0
C517 C 0.43172 0.39465 0.84094 0.0
H518 H 0.4621 0.52491 0.80199 0.0
C519 C 0.45212 0.42565 0.86653 0.0
H520 H 0.41705 0.40922 0.79815 0.0
C521 C 0.47692 0.4921 0.86884 0.0
C522 C 0.48203 0.52936 0.84563 0.0
H523 H 0.45149 0.39924 0.88464 0.0
H524 H 0.49407 0.51467 0.88869 0.0
C525 C 0.45841 0.49784 0.82037 0.0
C526 C 0.98296 0.47075 0.03628 0.0
C527 C 0.947 0.47273 1.01385 0.0
H528 H 0.0532 0.44775 0.05065 0.0
C529 C 0.95014 0.44521 0.98883 0.0
H530 H 0.98125 0.49106 0.05592 0.0
C531 C 0.99125 0.42004 0.98583 0.0
C532 C 0.03034 0.42176 1.00775 0.0
H533 H 0.92366 0.44642 0.97104 0.0
H534 H 0.99354 0.40072 0.96606 0.0
C535 C 0.02412 0.44562 0.03327 0.0
C536 C 0.51319 0.95038 0.14838 0.0
C537 C 0.48172 0.94383 0.17352 0.0
H538 H 0.6022 0.99734 0.12625 0.0
C539 C 0.51877 0.97613 0.1967 0.0
H540 H 0.4859 0.92663 0.13009 0.0
C541 C 0.58519 0.01731 0.19445 0.0
C542 C 0.61623 0.02737 0.16891 0.0
H543 H 0.49583 0.97191 0.21636 0.0
H544 H 0.61142 0.04375 0.21248 0.0
C545 C 0.57971 0.9918 0.14609 0.0
C546 C 0.5618 0.58106 0.36223 0.0
C547 C 0.57967 0.61181 0.33648 0.0
H548 H 0.52141 0.49227 0.38447 0.0
C549 C 0.5748 0.57466 0.31328 0.0
H550 H 0.56459 0.60762 0.38061 0.0
C551 C 0.54957 0.50813 0.31552 0.0
C552 C 0.52854 0.47703 0.34104 0.0
H553 H 0.5892 0.59667 0.29321 0.0
H554 H 0.54352 0.48068 0.297 0.0
C555 C 0.53661 0.5146 0.36446 0.0
C556 C 0.00992 0.58108 0.48553 0.0
C557 C 0.97085 0.57886 0.50754 0.0
H558 H 0.07753 0.55503 0.47045 0.0
C559 C 0.97702 0.55441 0.53292 0.0
H560 H 0.00761 0.60085 0.46588 0.0
C561 C 0.01814 0.52917 0.53569 0.0
C562 C 0.05411 0.52773 0.51317 0.0
H563 H 0.94793 0.55189 0.55036 0.0
H564 H 0.0198 0.50834 0.55521 0.0
C565 C 0.05102 0.55584 0.4883 0.0
C566 C 0.42504 0.01055 0.64483 0.0
C567 C 0.3885 0.97591 0.66782 0.0
H568 H 0.51895 0.07503 0.62866 0.0
C569 C 0.41971 0.98668 0.69337 0.0
H570 H 0.40248 0.00443 0.62496 0.0
C571 C 0.48615 0.02774 0.69552 0.0
C572 C 0.52315 0.05924 0.67223 0.0
H573 H 0.3936 0.96098 0.71154 0.0
H574 H 0.50915 0.03251 0.71522 0.0
C575 C 0.49164 0.0519 0.64703 0.0
C576 C 0.24645 0.2468 0.92728 0.0
C577 C 0.23936 0.18558 0.92439 0.0
H578 H 0.22212 0.30717 0.95052 0.0
C579 C 0.19582 0.1353 0.94142 0.0
H580 H 0.28065 0.28644 0.91466 0.0
C581 C 0.16233 0.14701 0.96213 0.0
C582 C 0.17295 0.20952 0.96637 0.0
H583 H 0.19071 0.08793 0.93978 0.0
H584 H 0.13183 0.10829 0.97597 0.0
C585 C 0.21333 0.25861 0.94799 0.0
C586 C 0.00776 0.19458 0.0845 0.0
C587 C 0.06645 0.24614 0.09388 0.0
H588 H 0.91165 0.12124 0.09524 0.0
C589 C 0.07533 0.25786 0.12228 0.0
H590 H 0.99969 0.18404 0.06275 0.0
C591 C 0.02575 0.22179 0.14073 0.0
C592 C 0.96559 0.17308 0.13135 0.0
H593 H 0.12027 0.29632 0.13035 0.0
H594 H 0.03374 0.23406 0.16234 0.0
C595 C 0.9576 0.15832 0.10312 0.0
C596 C 0.79726 0.95742 0.27197 0.0
C597 C 0.78348 0.96424 0.29948 0.0
H598 H 0.82101 0.99991 0.23163 0.0
C599 C 0.78848 0.02263 0.30771 0.0
H600 H 0.7936 0.91289 0.26496 0.0
C601 C 0.80341 0.07165 0.28877 0.0
C602 C 0.81413 0.06406 0.26098 0.0
H603 H 0.77882 0.02985 0.32876 0.0
H604 H 0.80527 0.11526 0.29596 0.0
C605 C 0.81251 0.00701 0.25285 0.0
C606 C 0.75115 0.74998 0.4283 0.0
C607 C 0.76152 0.81196 0.42365 0.0
H608 H 0.77389 0.6902 0.45273 0.0
C609 C 0.80843 0.86366 0.43908 0.0
H610 H 0.71461 0.7094 0.41683 0.0
C611 C 0.84187 0.85272 0.46012 0.0
C612 C 0.82829 0.78979 0.46606 0.0
H613 H 0.81617 0.91176 0.43607 0.0
H614 H 0.87504 0.89275 0.4728 0.0
C615 C 0.78471 0.7391 0.44907 0.0
C616 C 0.99448 0.80695 0.58503 0.0
C617 C 0.93654 0.7541 0.59427 0.0
H618 H 0.08987 0.88169 0.59591 0.0
C619 C 0.92826 0.74102 0.62259 0.0
H620 H 1.00206 0.81855 0.56336 0.0
C621 C 0.97769 0.77723 0.64107 0.0
C622 C 0.03712 0.82749 0.63181 0.0
H623 H 0.8839 0.7015 0.63057 0.0
H624 H 0.97016 0.76404 0.6626 0.0
C625 C 0.04449 0.84339 0.60369 0.0
C626 C 0.26063 0.9977 0.76438 0.0
C627 C 0.19736 0.95345 0.75675 0.0
H628 H 0.32235 0.07508 0.79082 0.0
C629 C 0.14624 0.95613 0.76949 0.0
H630 H 0.30072 0.99627 0.75486 0.0
C631 C 0.15838 1.00011 0.79089 0.0
C632 C 0.22186 0.04201 0.79969 0.0
H633 H 0.09693 0.92162 0.76412 0.0
H634 H 0.11807 0.99891 0.80144 0.0
C635 C 0.2728 0.04217 0.78528 0.0
C636 C 0.80194 0.84449 0.91812 0.0
C637 C 0.79313 0.82819 0.89004 0.0
H638 H 0.81997 0.82029 0.95849 0.0
C639 C 0.80224 0.77784 0.8809 0.0
H640 H 0.79494 0.88288 0.92581 0.0
C641 C 0.8157 0.74196 0.89946 0.0
C642 C 0.8208 0.75545 0.92774 0.0
H643 H 0.79637 0.76435 0.85941 0.0
H644 H 0.82049 0.70236 0.89157 0.0
C645 C 0.81575 0.80837 0.93685 0.0
C646 C 0.02003 0.85806 0.05787 0.0
C647 C 0.96673 0.79593 0.05467 0.0
H648 H 0.10914 0.91715 0.07917 0.0
C649 C 0.95747 0.74798 0.0738 0.0
H650 H 0.02872 0.89586 0.0434 0.0
C651 C 0.00297 0.76043 0.09436 0.0
C652 C 0.05842 0.82106 0.0962 0.0
H653 H 0.91671 0.69972 0.07199 0.0
H654 H 0.99691 0.72153 0.10764 0.0
C655 C 0.06593 0.8703 0.07833 0.0
C656 C 0.23159 0.9602 0.23623 0.0
C657 C 0.18201 0.96168 0.22135 0.0
H658 H 0.30492 0.00515 0.26694 0.0
C659 C 0.16175 0.0049 0.22967 0.0
H660 H 0.24724 0.92637 0.231 0.0
C661 C 0.19389 0.04894 0.25101 0.0
C662 C 0.24661 0.05028 0.26421 0.0
H663 H 0.12363 0.00716 0.21873 0.0
H664 H 0.18033 0.08457 0.25595 0.0
C665 C 0.26416 0.00466 0.2571 0.0
C666 C 0.1902 0.19577 0.43543 0.0
C667 C 0.18535 0.24899 0.42657 0.0
H668 H 0.21229 0.12225 0.42421 0.0
C669 C 0.1931 0.26455 0.39846 0.0
H670 H 0.18404 0.1823 0.45692 0.0
C671 C 0.20857 0.23022 0.37988 0.0
C672 C 0.21699 0.17929 0.38881 0.0
H673 H 0.1887 0.3045 0.39073 0.0
H674 H 0.2161 0.24515 0.35856 0.0
C675 C 0.20592 0.16116 0.41667 0.0
C676 C 0.9428 0.13508 0.5809 0.0
C677 C 0.94918 0.18616 0.59726 0.0
H678 H 0.97955 0.10673 0.54669 0.0
C679 C 0.0026 0.24758 0.59361 0.0
H680 H 0.90104 0.0875 0.58311 0.0
C681 C 0.04716 0.2587 0.57283 0.0
C682 C 0.0387 0.20873 0.55505 0.0
H683 H 0.00775 0.2878 0.60571 0.0
H684 H 0.0864 0.30734 0.56976 0.0
C685 C 0.98757 0.14615 0.56005 0.0
C686 C 0.77114 0.04156 0.73615 0.0
C687 C 0.82229 0.04179 0.72187 0.0
H688 H 0.69714 0.99543 0.76649 0.0
C689 C 0.84422 1.00032 0.73085 0.0
H690 H 0.75425 0.07417 0.73049 0.0
C691 C 0.81244 0.95641 0.75229 0.0
C692 C 0.75832 0.95335 0.76489 0.0
H693 H 0.88362 0.99944 0.72042 0.0
H694 H 0.82756 0.92225 0.7578 0.0
C695 C 0.73889 0.99715 0.75707 0.0
loop_
_geom_bond_atom_site_label_1
_geom_bond_atom_site_label_2
_geom_bond_distance
_geom_bond_site_symmetry_2
_ccdc_geom_bond_type
C0 C1 1.351 . S
C0 N3 1.368 . S
C0 H5 0.931 . S
C1 C0 1.351 . S
C1 N2 1.373 . S
C1 H29 0.930 . S
N2 C1 1.373 . S
N2 C4 1.340 . S
N3 C0 1.368 . S
N3 C4 1.321 . S
N3 Co6 2.135 . S
C4 N2 1.340 . S
C4 N3 1.321 . S
C4 H28 0.930 . S
H5 C0 0.931 . S
Co6 N3 2.135 . S
Co6 N9 2.121 1_554 S
Co6 O14 2.055 . S
Co6 O17 2.039 1_554 S
Co6 N20 2.140 . S
C7 O8 1.227 . S
C7 O17 1.265 . S
O8 C7 1.227 . S
N9 Co6 2.121 1_556 S
N9 C11 1.375 . S
N9 C12 1.313 . S
C10 C11 1.338 . S
C10 N13 1.377 . S
C10 H30 0.930 . S
C11 N9 1.375 . S
C11 C10 1.338 . S
C11 H15 0.931 . S
C12 N9 1.313 . S
C12 N13 1.344 . S
C12 H16 0.930 1_556 S
N13 C10 1.377 . S
N13 C12 1.344 . S
O14 Co6 2.055 . S
O14 C18 1.253 . S
H15 C11 0.931 . S
H16 C12 0.930 1_554 S
O17 Co6 2.039 1_556 S
O17 C7 1.265 . S
C18 O14 1.253 . S
C18 O19 1.227 . S
O19 C18 1.227 . S
N20 Co6 2.140 . S
N20 C23 1.346 . S
N20 C24 1.345 . S
C21 C22 1.387 . S
C21 C25 1.391 . S
C22 C21 1.387 . S
C22 C23 1.369 . S
C22 H31 0.929 . S
C23 N20 1.346 . S
C23 C22 1.369 . S
C23 H26 0.928 . S
C24 N20 1.345 . S
C24 C25 1.371 . S
C24 H27 0.931 . S
C25 C21 1.391 . S
C25 C24 1.371 . S
C25 H32 0.930 . S
H26 C23 0.928 . S
H27 C24 0.931 . S
H28 C4 0.930 . S
H29 C1 0.930 . S
H30 C10 0.930 . S
H31 C22 0.929 . S
H32 C25 0.930 . S
C33 C34 1.351 1_655 S
C33 N36 1.368 . S
C33 H38 0.931 . S
C34 C33 1.351 1_455 S
C34 N35 1.373 . S
C34 H62 0.930 . S
N35 C34 1.373 . S
N35 C37 1.340 . S
N36 C33 1.368 . S
N36 C37 1.321 1_655 S
N36 Co39 2.135 . S
C37 N35 1.340 . S
C37 N36 1.321 1_455 S
C37 H61 0.930 . S
H38 C33 0.931 . S
Co39 N36 2.135 . S
Co39 N42 2.121 . S
Co39 O47 2.055 . S
Co39 O50 2.039 . S
Co39 N53 2.140 . S
C40 O41 1.227 . S
C40 O50 1.265 . S
O41 C40 1.227 . S
N42 Co39 2.121 . S
N42 C44 1.375 . S
N42 C45 1.313 . S
C43 C44 1.338 . S
C43 N46 1.377 . S
C43 H63 0.930 . S
C44 N42 1.375 . S
C44 C43 1.338 . S
C44 H48 0.931 . S
C45 N42 1.313 . S
C45 N46 1.344 . S
C45 H49 0.930 . S
N46 C43 1.377 . S
N46 C45 1.344 . S
O47 Co39 2.055 . S
O47 C51 1.253 . S
H48 C44 0.931 . S
H49 C45 0.930 . S
O50 Co39 2.039 . S
O50 C40 1.265 . S
C51 O47 1.253 . S
C51 O52 1.227 . S
O52 C51 1.227 . S
N53 Co39 2.140 . S
N53 C56 1.346 . S
N53 C57 1.345 . S
C54 C55 1.387 . S
C54 C58 1.391 . S
C55 C54 1.387 . S
C55 C56 1.369 . S
C55 H64 0.929 1_655 S
C56 N53 1.346 . S
C56 C55 1.369 . S
C56 H59 0.928 1_655 S
C57 N53 1.345 . S
C57 C58 1.371 . S
C57 H60 0.931 . S
C58 C54 1.391 . S
C58 C57 1.371 . S
C58 H65 0.930 . S
H59 C56 0.928 1_455 S
H60 C57 0.931 . S
H61 C37 0.930 . S
H62 C34 0.930 . S
H63 C43 0.930 . S
H64 C55 0.929 1_455 S
H65 C58 0.930 . S
C66 C67 1.351 1_565 S
C66 N69 1.368 . S
C66 H71 0.931 . S
C67 C66 1.351 1_545 S
C67 N68 1.373 . S
C67 H95 0.930 . S
N68 C67 1.373 . S
N68 C70 1.340 . S
N69 C66 1.368 . S
N69 C70 1.321 1_565 S
N69 Co72 2.135 . S
C70 N68 1.340 . S
C70 N69 1.321 1_545 S
C70 H94 0.930 . S
H71 C66 0.931 . S
Co72 N69 2.135 . S
Co72 N75 2.121 . S
Co72 O80 2.055 . S
Co72 O83 2.039 . S
Co72 N86 2.140 . S
C73 O74 1.227 . S
C73 O83 1.265 . S
O74 C73 1.227 . S
N75 Co72 2.121 . S
N75 C77 1.375 . S
N75 C78 1.313 . S
C76 C77 1.338 . S
C76 N79 1.377 . S
C76 H96 0.930 . S
C77 N75 1.375 . S
C77 C76 1.338 . S
C77 H81 0.931 . S
C78 N75 1.313 . S
C78 N79 1.344 . S
C78 H82 0.930 . S
N79 C76 1.377 . S
N79 C78 1.344 . S
O80 Co72 2.055 . S
O80 C84 1.253 . S
H81 C77 0.931 . S
H82 C78 0.930 . S
O83 Co72 2.039 . S
O83 C73 1.265 . S
C84 O80 1.253 . S
C84 O85 1.227 . S
O85 C84 1.227 . S
N86 Co72 2.140 . S
N86 C89 1.346 . S
N86 C90 1.345 . S
C87 C88 1.387 . S
C87 C91 1.391 . S
C88 C87 1.387 . S
C88 C89 1.369 . S
C88 H97 0.929 1_565 S
C89 N86 1.346 . S
C89 C88 1.369 . S
C89 H92 0.928 1_565 S
C90 N86 1.345 . S
C90 C91 1.371 . S
C90 H93 0.931 . S
C91 C87 1.391 . S
C91 C90 1.371 . S
C91 H98 0.930 . S
H92 C89 0.928 1_545 S
H93 C90 0.931 . S
H94 C70 0.930 . S
H95 C67 0.930 . S
H96 C76 0.930 . S
H97 C88 0.929 1_545 S
H98 C91 0.930 . S
C99 C100 1.351 . S
C99 N102 1.368 . S
C99 H104 0.931 . S
C100 C99 1.351 . S
C100 N101 1.373 . S
C100 H128 0.930 . S
N101 C100 1.373 . S
N101 C103 1.340 . S
N102 C99 1.368 . S
N102 C103 1.321 . S
N102 Co105 2.135 . S
C103 N101 1.340 . S
C103 N102 1.321 . S
C103 H127 0.930 . S
H104 C99 0.931 . S
Co105 N102 2.135 . S
Co105 N108 2.121 . S
Co105 O113 2.055 . S
Co105 O116 2.039 . S
Co105 N119 2.140 . S
C106 O107 1.227 . S
C106 O116 1.265 . S
O107 C106 1.227 . S
N108 Co105 2.121 . S
N108 C110 1.375 . S
N108 C111 1.313 . S
C109 C110 1.338 . S
C109 N112 1.377 . S
C109 H129 0.930 . S
C110 N108 1.375 . S
C110 C109 1.338 . S
C110 H114 0.931 . S
C111 N108 1.313 . S
C111 N112 1.344 . S
C111 H115 0.930 . S
N112 C109 1.377 . S
N112 C111 1.344 . S
O113 Co105 2.055 . S
O113 C117 1.253 . S
H114 C110 0.931 . S
H115 C111 0.930 . S
O116 Co105 2.039 . S
O116 C106 1.265 . S
C117 O113 1.253 . S
C117 O118 1.227 . S
O118 C117 1.227 . S
N119 Co105 2.140 . S
N119 C122 1.346 . S
N119 C123 1.345 . S
C120 C121 1.387 . S
C120 C124 1.391 . S
C121 C120 1.387 . S
C121 C122 1.369 . S
C121 H130 0.929 . S
C122 N119 1.346 . S
C122 C121 1.369 . S
C122 H125 0.928 . S
C123 N119 1.345 . S
C123 C124 1.371 . S
C123 H126 0.931 . S
C124 C120 1.391 . S
C124 C123 1.371 . S
C124 H131 0.930 . S
H125 C122 0.928 . S
H126 C123 0.931 . S
H127 C103 0.930 . S
H128 C100 0.930 . S
H129 C109 0.930 . S
H130 C121 0.929 . S
H131 C124 0.930 . S
C132 C133 1.351 1_455 S
C132 N135 1.368 . S
C132 H137 0.931 . S
C133 C132 1.351 1_655 S
C133 N134 1.373 . S
C133 H161 0.930 . S
N134 C133 1.373 . S
N134 C136 1.340 . S
N135 C132 1.368 . S
N135 C136 1.321 1_455 S
N135 Co138 2.135 . S
C136 N134 1.340 . S
C136 N135 1.321 1_655 S
C136 H160 0.930 . S
H137 C132 0.931 . S
Co138 N135 2.135 . S
Co138 N141 2.121 . S
Co138 O146 2.055 . S
Co138 O149 2.039 . S
Co138 N152 2.140 . S
C139 O140 1.227 . S
C139 O149 1.265 . S
O140 C139 1.227 . S
N141 Co138 2.121 . S
N141 C143 1.375 . S
N141 C144 1.313 . S
C142 C143 1.338 . S
C142 N145 1.377 . S
C142 H162 0.930 . S
C143 N141 1.375 . S
C143 C142 1.338 . S
C143 H147 0.931 . S
C144 N141 1.313 . S
C144 N145 1.344 . S
C144 H148 0.930 . S
N145 C142 1.377 . S
N145 C144 1.344 . S
O146 Co138 2.055 . S
O146 C150 1.253 . S
H147 C143 0.931 . S
H148 C144 0.930 . S
O149 Co138 2.039 . S
O149 C139 1.265 . S
C150 O146 1.253 . S
C150 O151 1.227 . S
O151 C150 1.227 . S
N152 Co138 2.140 . S
N152 C155 1.346 . S
N152 C156 1.345 . S
C153 C154 1.387 . S
C153 C157 1.391 . S
C154 C153 1.387 . S
C154 C155 1.369 . S
C154 H163 0.929 1_455 S
C155 N152 1.346 . S
C155 C154 1.369 . S
C155 H158 0.928 1_455 S
C156 N152 1.345 . S
C156 C157 1.371 . S
C156 H159 0.931 . S
C157 C153 1.391 . S
C157 C156 1.371 . S
C157 H164 0.930 . S
H158 C155 0.928 1_655 S
H159 C156 0.931 . S
H160 C136 0.930 . S
H161 C133 0.930 . S
H162 C142 0.930 . S
H163 C154 0.929 1_655 S
H164 C157 0.930 . S
C165 C166 1.351 1_545 S
C165 N168 1.368 . S
C165 H170 0.931 . S
C166 C165 1.351 1_565 S
C166 N167 1.373 . S
C166 H194 0.930 . S
N167 C166 1.373 . S
N167 C169 1.340 . S
N168 C165 1.368 . S
N168 C169 1.321 1_545 S
N168 Co171 2.135 . S
C169 N167 1.340 . S
C169 N168 1.321 1_565 S
C169 H193 0.930 . S
H170 C165 0.931 . S
Co171 N168 2.135 . S
Co171 N174 2.121 . S
Co171 O179 2.055 . S
Co171 O182 2.039 . S
Co171 N185 2.140 . S
C172 O173 1.227 . S
C172 O182 1.265 . S
O173 C172 1.227 . S
N174 Co171 2.121 . S
N174 C176 1.375 . S
N174 C177 1.313 . S
C175 C176 1.338 . S
C175 N178 1.377 . S
C175 H195 0.930 . S
C176 N174 1.375 . S
C176 C175 1.338 . S
C176 H180 0.931 . S
C177 N174 1.313 . S
C177 N178 1.344 . S
C177 H181 0.930 . S
N178 C175 1.377 . S
N178 C177 1.344 . S
O179 Co171 2.055 . S
O179 C183 1.253 . S
H180 C176 0.931 . S
H181 C177 0.930 . S
O182 Co171 2.039 . S
O182 C172 1.265 . S
C183 O179 1.253 . S
C183 O184 1.227 . S
O184 C183 1.227 . S
N185 Co171 2.140 . S
N185 C188 1.346 . S
N185 C189 1.345 . S
C186 C187 1.387 . S
C186 C190 1.391 . S
C187 C186 1.387 . S
C187 C188 1.369 . S
C187 H196 0.929 1_545 S
C188 N185 1.346 . S
C188 C187 1.369 . S
C188 H191 0.928 1_545 S
C189 N185 1.345 . S
C189 C190 1.371 . S
C189 H192 0.931 . S
C190 C186 1.391 . S
C190 C189 1.371 . S
C190 H197 0.930 . S
H191 C188 0.928 1_565 S
H192 C189 0.931 . S
H193 C169 0.930 . S
H194 C166 0.930 . S
H195 C175 0.930 . S
H196 C187 0.929 1_565 S
H197 C190 0.930 . S
C198 C199 1.351 . S
C198 N201 1.368 . S
C198 H203 0.931 . S
C199 C198 1.351 . S
C199 N200 1.373 . S
C199 H227 0.930 . S
N200 C199 1.373 . S
N200 C202 1.340 . S
N201 C198 1.368 . S
N201 C202 1.321 . S
N201 Co204 2.135 . S
C202 N200 1.340 . S
C202 N201 1.321 . S
C202 H226 0.930 . S
H203 C198 0.931 . S
Co204 N201 2.135 . S
Co204 N207 2.121 . S
Co204 O212 2.055 . S
Co204 O215 2.039 . S
Co204 N218 2.140 . S
C205 O206 1.227 . S
C205 O215 1.265 . S
O206 C205 1.227 . S
N207 Co204 2.121 . S
N207 C209 1.375 . S
N207 C210 1.313 . S
C208 C209 1.338 . S
C208 N211 1.377 . S
C208 H228 0.930 . S
C209 N207 1.375 . S
C209 C208 1.338 . S
C209 H213 0.931 . S
C210 N207 1.313 . S
C210 N211 1.344 . S
C210 H214 0.930 . S
N211 C208 1.377 . S
N211 C210 1.344 . S
O212 Co204 2.055 . S
O212 C216 1.253 . S
H213 C209 0.931 . S
H214 C210 0.930 . S
O215 Co204 2.039 . S
O215 C205 1.265 . S
C216 O212 1.253 . S
C216 O217 1.227 . S
O217 C216 1.227 . S
N218 Co204 2.140 . S
N218 C221 1.346 . S
N218 C222 1.345 . S
C219 C220 1.387 . S
C219 C223 1.391 . S
C220 C219 1.387 . S
C220 C221 1.369 . S
C220 H229 0.929 . S
C221 N218 1.346 . S
C221 C220 1.369 . S
C221 H224 0.928 . S
C222 N218 1.345 . S
C222 C223 1.371 . S
C222 H225 0.931 . S
C223 C219 1.391 . S
C223 C222 1.371 . S
C223 H230 0.930 . S
H224 C221 0.928 . S
H225 C222 0.931 . S
H226 C202 0.930 . S
H227 C199 0.930 . S
H228 C208 0.930 . S
H229 C220 0.929 . S
H230 C223 0.930 . S
C231 C232 1.351 1_655 S
C231 N234 1.368 . S
C231 H236 0.931 . S
C232 C231 1.351 1_455 S
C232 N233 1.373 . S
C232 H260 0.930 . S
N233 C232 1.373 . S
N233 C235 1.340 . S
N234 C231 1.368 . S
N234 C235 1.321 1_655 S
N234 Co237 2.135 . S
C235 N233 1.340 . S
C235 N234 1.321 1_455 S
C235 H259 0.930 . S
H236 C231 0.931 . S
Co237 N234 2.135 . S
Co237 N240 2.121 1_556 S
Co237 O245 2.055 . S
Co237 O248 2.039 1_556 S
Co237 N251 2.140 . S
C238 O239 1.227 . S
C238 O248 1.265 . S
O239 C238 1.227 . S
N240 Co237 2.121 1_554 S
N240 C242 1.375 . S
N240 C243 1.313 1_554 S
C241 C242 1.338 . S
C241 N244 1.377 . S
C241 H261 0.930 . S
C242 N240 1.375 . S
C242 C241 1.338 . S
C242 H246 0.931 . S
C243 N240 1.313 1_556 S
C243 N244 1.344 1_556 S
C243 H247 0.930 . S
N244 C241 1.377 . S
N244 C243 1.344 1_554 S
O245 Co237 2.055 . S
O245 C249 1.253 . S
H246 C242 0.931 . S
H247 C243 0.930 . S
O248 Co237 2.039 1_554 S
O248 C238 1.265 . S
C249 O245 1.253 . S
C249 O250 1.227 . S
O250 C249 1.227 . S
N251 Co237 2.140 . S
N251 C254 1.346 . S
N251 C255 1.345 . S
C252 C253 1.387 . S
C252 C256 1.391 . S
C253 C252 1.387 . S
C253 C254 1.369 . S
C253 H262 0.929 1_655 S
C254 N251 1.346 . S
C254 C253 1.369 . S
C254 H257 0.928 1_655 S
C255 N251 1.345 . S
C255 C256 1.371 . S
C255 H258 0.931 . S
C256 C252 1.391 . S
C256 C255 1.371 . S
C256 H263 0.930 . S
H257 C254 0.928 1_455 S
H258 C255 0.931 . S
H259 C235 0.930 . S
H260 C232 0.930 . S
H261 C241 0.930 . S
H262 C253 0.929 1_455 S
H263 C256 0.930 . S
C264 C265 1.351 1_565 S
C264 N267 1.368 . S
C264 H269 0.931 . S
C265 C264 1.351 1_545 S
C265 N266 1.373 . S
C265 H293 0.930 . S
N266 C265 1.373 . S
N266 C268 1.340 . S
N267 C264 1.368 . S
N267 C268 1.321 1_565 S
N267 Co270 2.135 . S
C268 N266 1.340 . S
C268 N267 1.321 1_545 S
C268 H292 0.930 . S
H269 C264 0.931 . S
Co270 N267 2.135 . S
Co270 N273 2.121 . S
Co270 O278 2.055 . S
Co270 O281 2.039 . S
Co270 N284 2.140 . S
C271 O272 1.227 . S
C271 O281 1.265 . S
O272 C271 1.227 . S
N273 Co270 2.121 . S
N273 C275 1.375 . S
N273 C276 1.313 . S
C274 C275 1.338 . S
C274 N277 1.377 . S
C274 H294 0.930 . S
C275 N273 1.375 . S
C275 C274 1.338 . S
C275 H279 0.931 . S
C276 N273 1.313 . S
C276 N277 1.344 . S
C276 H280 0.930 . S
N277 C274 1.377 . S
N277 C276 1.344 . S
O278 Co270 2.055 . S
O278 C282 1.253 . S
H279 C275 0.931 . S
H280 C276 0.930 . S
O281 Co270 2.039 . S
O281 C271 1.265 . S
C282 O278 1.253 . S
C282 O283 1.227 . S
O283 C282 1.227 . S
N284 Co270 2.140 . S
N284 C287 1.346 . S
N284 C288 1.345 . S
C285 C286 1.387 . S
C285 C289 1.391 . S
C286 C285 1.387 . S
C286 C287 1.369 . S
C286 H295 0.929 1_565 S
C287 N284 1.346 . S
C287 C286 1.369 . S
C287 H290 0.928 1_565 S
C288 N284 1.345 . S
C288 C289 1.371 . S
C288 H291 0.931 . S
C289 C285 1.391 . S
C289 C288 1.371 . S
C289 H296 0.930 . S
H290 C287 0.928 1_545 S
H291 C288 0.931 . S
H292 C268 0.930 . S
H293 C265 0.930 . S
H294 C274 0.930 . S
H295 C286 0.929 1_545 S
H296 C289 0.930 . S
C297 C298 1.351 . S
C297 N300 1.368 . S
C297 H302 0.931 . S
C298 C297 1.351 . S
C298 N299 1.373 . S
C298 H326 0.930 . S
N299 C298 1.373 . S
N299 C301 1.340 . S
N300 C297 1.368 . S
N300 C301 1.321 . S
N300 Co303 2.135 . S
C301 N299 1.340 . S
C301 N300 1.321 . S
C301 H325 0.930 . S
H302 C297 0.931 . S
Co303 N300 2.135 . S
Co303 N306 2.121 . S
Co303 O311 2.055 . S
Co303 O314 2.039 . S
Co303 N317 2.140 . S
C304 O305 1.227 . S
C304 O314 1.265 . S
O305 C304 1.227 . S
N306 Co303 2.121 . S
N306 C308 1.375 . S
N306 C309 1.313 . S
C307 C308 1.338 . S
C307 N310 1.377 . S
C307 H327 0.930 . S
C308 N306 1.375 . S
C308 C307 1.338 . S
C308 H312 0.931 . S
C309 N306 1.313 . S
C309 N310 1.344 . S
C309 H313 0.930 . S
N310 C307 1.377 . S
N310 C309 1.344 . S
O311 Co303 2.055 . S
O311 C315 1.253 . S
H312 C308 0.931 . S
H313 C309 0.930 . S
O314 Co303 2.039 . S
O314 C304 1.265 . S
C315 O311 1.253 . S
C315 O316 1.227 . S
O316 C315 1.227 . S
N317 Co303 2.140 . S
N317 C320 1.346 . S
N317 C321 1.345 . S
C318 C319 1.387 . S
C318 C322 1.391 . S
C319 C318 1.387 . S
C319 C320 1.369 . S
C319 H328 0.929 . S
C320 N317 1.346 . S
C320 C319 1.369 . S
C320 H323 0.928 . S
C321 N317 1.345 . S
C321 C322 1.371 . S
C321 H324 0.931 . S
C322 C318 1.391 . S
C322 C321 1.371 . S
C322 H329 0.930 . S
H323 C320 0.928 . S
H324 C321 0.931 . S
H325 C301 0.930 . S
H326 C298 0.930 . S
H327 C307 0.930 . S
H328 C319 0.929 . S
H329 C322 0.930 . S
C330 C331 1.351 1_455 S
C330 N333 1.368 . S
C330 H335 0.931 . S
C331 C330 1.351 1_655 S
C331 N332 1.373 . S
C331 H359 0.930 . S
N332 C331 1.373 . S
N332 C334 1.340 . S
N333 C330 1.368 . S
N333 C334 1.321 1_455 S
N333 Co336 2.135 . S
C334 N332 1.340 . S
C334 N333 1.321 1_655 S
C334 H358 0.930 . S
H335 C330 0.931 . S
Co336 N333 2.135 . S
Co336 N339 2.121 . S
Co336 O344 2.055 . S
Co336 O347 2.039 . S
Co336 N350 2.140 . S
C337 O338 1.227 . S
C337 O347 1.265 . S
O338 C337 1.227 . S
N339 Co336 2.121 . S
N339 C341 1.375 . S
N339 C342 1.313 . S
C340 C341 1.338 . S
C340 N343 1.377 . S
C340 H360 0.930 . S
C341 N339 1.375 . S
C341 C340 1.338 . S
C341 H345 0.931 . S
C342 N339 1.313 . S
C342 N343 1.344 . S
C342 H346 0.930 . S
N343 C340 1.377 . S
N343 C342 1.344 . S
O344 Co336 2.055 . S
O344 C348 1.253 . S
H345 C341 0.931 . S
H346 C342 0.930 . S
O347 Co336 2.039 . S
O347 C337 1.265 . S
C348 O344 1.253 . S
C348 O349 1.227 . S
O349 C348 1.227 . S
N350 Co336 2.140 . S
N350 C353 1.346 . S
N350 C354 1.345 . S
C351 C352 1.387 . S
C351 C355 1.391 . S
C352 C351 1.387 . S
C352 C353 1.369 . S
C352 H361 0.929 1_455 S
C353 N350 1.346 . S
C353 C352 1.369 . S
C353 H356 0.928 1_455 S
C354 N350 1.345 . S
C354 C355 1.371 . S
C354 H357 0.931 . S
C355 C351 1.391 . S
C355 C354 1.371 . S
C355 H362 0.930 . S
H356 C353 0.928 1_655 S
H357 C354 0.931 . S
H358 C334 0.930 . S
H359 C331 0.930 . S
H360 C340 0.930 . S
H361 C352 0.929 1_655 S
H362 C355 0.930 . S
C363 C364 1.351 1_545 S
C363 N366 1.368 . S
C363 H368 0.931 . S
C364 C363 1.351 1_565 S
C364 N365 1.373 . S
C364 H392 0.930 . S
N365 C364 1.373 . S
N365 C367 1.340 . S
N366 C363 1.368 . S
N366 C367 1.321 1_545 S
N366 Co369 2.135 . S
C367 N365 1.340 . S
C367 N366 1.321 1_565 S
C367 H391 0.930 . S
H368 C363 0.931 . S
Co369 N366 2.135 . S
Co369 N372 2.121 . S
Co369 O377 2.055 . S
Co369 O380 2.039 . S
Co369 N383 2.140 . S
C370 O371 1.227 . S
C370 O380 1.265 . S
O371 C370 1.227 . S
N372 Co369 2.121 . S
N372 C374 1.375 . S
N372 C375 1.313 . S
C373 C374 1.338 . S
C373 N376 1.377 . S
C373 H393 0.930 . S
C374 N372 1.375 . S
C374 C373 1.338 . S
C374 H378 0.931 . S
C375 N372 1.313 . S
C375 N376 1.344 . S
C375 H379 0.930 . S
N376 C373 1.377 . S
N376 C375 1.344 . S
O377 Co369 2.055 . S
O377 C381 1.253 . S
H378 C374 0.931 . S
H379 C375 0.930 . S
O380 Co369 2.039 . S
O380 C370 1.265 . S
C381 O377 1.253 . S
C381 O382 1.227 . S
O382 C381 1.227 . S
N383 Co369 2.140 . S
N383 C386 1.346 . S
N383 C387 1.345 . S
C384 C385 1.387 . S
C384 C388 1.391 . S
C385 C384 1.387 . S
C385 C386 1.369 . S
C385 H394 0.929 1_545 S
C386 N383 1.346 . S
C386 C385 1.369 . S
C386 H389 0.928 1_545 S
C387 N383 1.345 . S
C387 C388 1.371 . S
C387 H390 0.931 . S
C388 C384 1.391 . S
C388 C387 1.371 . S
C388 H395 0.930 . S
H389 C386 0.928 1_565 S
H390 C387 0.931 . S
H391 C367 0.930 . S
H392 C364 0.930 . S
H393 C373 0.930 . S
H394 C385 0.929 1_565 S
H395 C388 0.930 . S
C396 C397 1.387 . S
C396 H400 0.950 . S
C396 C405 1.390 . S
C397 C396 1.387 . S
C397 C399 1.387 . S
H398 C405 0.950 . S
C399 C397 1.387 . S
C399 C401 1.390 . S
C399 H403 0.950 . S
H400 C396 0.950 . S
C401 C399 1.390 . S
C401 C402 1.387 . S
C401 H404 0.950 . S
C402 C401 1.387 . S
C402 C405 1.387 . S
H403 C399 0.950 . S
H404 C401 0.950 . S
C405 C396 1.390 . S
C405 H398 0.950 . S
C405 C402 1.387 . S
C406 C407 1.387 . S
C406 H410 0.950 . S
C406 C415 1.390 . S
C407 C406 1.387 . S
C407 C409 1.387 . S
H408 C415 0.950 . S
C409 C407 1.387 . S
C409 C411 1.390 . S
C409 H413 0.950 . S
H410 C406 0.950 . S
C411 C409 1.390 . S
C411 C412 1.387 . S
C411 H414 0.950 . S
C412 C411 1.387 . S
C412 C415 1.387 . S
H413 C409 0.950 . S
H414 C411 0.950 . S
C415 C406 1.390 . S
C415 H408 0.950 . S
C415 C412 1.387 . S
C416 C417 1.387 . S
C416 H420 0.950 . S
C416 C425 1.390 . S
C417 C416 1.387 . S
C417 C419 1.387 . S
H418 C425 0.950 . S
C419 C417 1.387 . S
C419 C421 1.390 . S
C419 H423 0.950 . S
H420 C416 0.950 . S
C421 C419 1.390 . S
C421 C422 1.387 . S
C421 H424 0.950 . S
C422 C421 1.387 . S
C422 C425 1.387 . S
H423 C419 0.950 . S
H424 C421 0.950 . S
C425 C416 1.390 . S
C425 H418 0.950 . S
C425 C422 1.387 . S
C426 C427 1.387 . S
C426 H430 0.950 . S
C426 C435 1.390 . S
C427 C426 1.387 . S
C427 C429 1.387 . S
H428 C435 0.950 . S
C429 C427 1.387 . S
C429 C431 1.390 . S
C429 H433 0.950 . S
H430 C426 0.950 . S
C431 C429 1.390 . S
C431 C432 1.387 . S
C431 H434 0.950 . S
C432 C431 1.387 . S
C432 C435 1.387 . S
H433 C429 0.950 . S
H434 C431 0.950 . S
C435 C426 1.390 . S
C435 H428 0.950 . S
C435 C432 1.387 . S
C436 C437 1.387 . S
C436 H440 0.950 . S
C436 C445 1.390 . S
C437 C436 1.387 . S
C437 C439 1.387 . S
H438 C445 0.950 . S
C439 C437 1.387 . S
C439 C441 1.390 . S
C439 H443 0.950 . S
H440 C436 0.950 . S
C441 C439 1.390 . S
C441 C442 1.387 . S
C441 H444 0.950 . S
C442 C441 1.387 . S
C442 C445 1.387 . S
H443 C439 0.950 . S
H444 C441 0.950 . S
C445 C436 1.390 . S
C445 H438 0.950 . S
C445 C442 1.387 . S
C446 C447 1.387 . S
C446 H450 0.950 . S
C446 C455 1.390 . S
C447 C446 1.387 . S
C447 C449 1.387 . S
H448 C455 0.950 . S
C449 C447 1.387 . S
C449 C451 1.390 . S
C449 H453 0.950 . S
H450 C446 0.950 . S
C451 C449 1.390 . S
C451 C452 1.387 . S
C451 H454 0.950 . S
C452 C451 1.387 . S
C452 C455 1.387 . S
H453 C449 0.950 . S
H454 C451 0.950 . S
C455 C446 1.390 . S
C455 H448 0.950 . S
C455 C452 1.387 . S
C456 C457 1.387 1_556 S
C456 H460 0.950 . S
C456 C465 1.390 . S
C457 C456 1.387 1_554 S
C457 C459 1.387 . S
H458 C465 0.950 . S
C459 C457 1.387 . S
C459 C461 1.390 . S
C459 H463 0.950 . S
H460 C456 0.950 . S
C461 C459 1.390 . S
C461 C462 1.387 . S
C461 H464 0.950 . S
C462 C461 1.387 . S
C462 C465 1.387 1_554 S
H463 C459 0.950 . S
H464 C461 0.950 . S
C465 C456 1.390 . S
C465 H458 0.950 . S
C465 C462 1.387 1_556 S
C466 C467 1.387 1_455 S
C466 H470 0.950 . S
C466 C475 1.390 . S
C467 C466 1.387 1_655 S
C467 C469 1.387 1_655 S
H468 C475 0.950 . S
C469 C467 1.387 1_455 S
C469 C471 1.390 . S
C469 H473 0.950 . S
H470 C466 0.950 . S
C471 C469 1.390 . S
C471 C472 1.387 . S
C471 H474 0.950 . S
C472 C471 1.387 . S
C472 C475 1.387 . S
H473 C469 0.950 . S
H474 C471 0.950 . S
C475 C466 1.390 . S
C475 H468 0.950 . S
C475 C472 1.387 . S
C476 C477 1.387 . S
C476 H480 0.950 . S
C476 C485 1.390 . S
C477 C476 1.387 . S
C477 C479 1.387 . S
H478 C485 0.950 . S
C479 C477 1.387 . S
C479 C481 1.390 . S
C479 H483 0.950 . S
H480 C476 0.950 . S
C481 C479 1.390 . S
C481 C482 1.387 1_545 S
C481 H484 0.954 . S
C482 C481 1.387 1_565 S
C482 C485 1.387 1_565 S
H483 C479 0.950 . S
H484 C481 0.954 . S
C485 C476 1.390 . S
C485 H478 0.950 . S
C485 C482 1.387 1_545 S
C486 C487 1.387 . S
C486 H490 0.950 . S
C486 C495 1.390 . S
C487 C486 1.387 . S
C487 C489 1.387 . S
H488 C495 0.950 . S
C489 C487 1.387 . S
C489 C491 1.390 . S
C489 H493 0.950 . S
H490 C486 0.950 . S
C491 C489 1.390 . S
C491 C492 1.387 . S
C491 H494 0.950 . S
C492 C491 1.387 . S
C492 C495 1.387 . S
H493 C489 0.950 . S
H494 C491 0.950 . S
C495 C486 1.390 . S
C495 H488 0.950 . S
C495 C492 1.387 . S
C496 C497 1.387 . S
C496 H500 0.950 . S
C496 C505 1.390 . S
C497 C496 1.387 . S
C497 C499 1.387 . S
H498 C505 0.950 . S
C499 C497 1.387 . S
C499 C501 1.390 . S
C499 H503 0.950 . S
H500 C496 0.950 . S
C501 C499 1.390 . S
C501 C502 1.387 1_655 S
C501 H504 0.950 . S
C502 C501 1.387 1_455 S
C502 C505 1.387 1_455 S
H503 C499 0.950 . S
H504 C501 0.950 . S
C505 C496 1.390 . S
C505 H498 0.950 . S
C505 C502 1.387 1_655 S
C506 C507 1.387 . S
C506 H510 0.950 . S
C506 C515 1.390 . S
C507 C506 1.387 . S
C507 C509 1.387 . S
H508 C515 0.950 . S
C509 C507 1.387 . S
C509 C511 1.390 . S
C509 H513 0.950 . S
H510 C506 0.950 . S
C511 C509 1.390 . S
C511 C512 1.387 1_565 S
C511 H514 0.950 . S
C512 C511 1.387 1_545 S
C512 C515 1.387 1_545 S
H513 C509 0.950 . S
H514 C511 0.950 . S
C515 C506 1.390 . S
C515 H508 0.950 . S
C515 C512 1.387 1_565 S
C516 C517 1.387 . S
C516 H520 0.950 . S
C516 C525 1.390 . S
C517 C516 1.387 . S
C517 C519 1.387 . S
H518 C525 0.950 . S
C519 C517 1.387 . S
C519 C521 1.390 . S
C519 H523 0.950 . S
H520 C516 0.950 . S
C521 C519 1.390 . S
C521 C522 1.387 . S
C521 H524 0.950 . S
C522 C521 1.387 . S
C522 C525 1.387 . S
H523 C519 0.950 . S
H524 C521 0.950 . S
C525 C516 1.390 . S
C525 H518 0.950 . S
C525 C522 1.387 . S
C526 C527 1.387 1_455 S
C526 H530 0.950 1_556 S
C526 C535 1.390 . S
C527 C526 1.387 1_655 S
C527 C529 1.387 1_655 S
H528 C535 0.950 1_554 S
C529 C527 1.387 1_455 S
C529 C531 1.390 . S
C529 H533 0.950 . S
H530 C526 0.950 1_554 S
C531 C529 1.390 . S
C531 C532 1.387 . S
C531 H534 0.950 . S
C532 C531 1.387 . S
C532 C535 1.387 . S
H533 C529 0.950 . S
H534 C531 0.950 . S
C535 C526 1.390 . S
C535 H528 0.950 1_556 S
C535 C532 1.387 . S
C536 C537 1.387 1_545 S
C536 H540 0.950 . S
C536 C545 1.390 . S
C537 C536 1.387 1_565 S
C537 C539 1.387 1_565 S
H538 C545 0.950 . S
C539 C537 1.387 1_545 S
C539 C541 1.390 . S
C539 H543 0.950 . S
H540 C536 0.950 . S
C541 C539 1.390 . S
C541 C542 1.387 . S
C541 H544 0.950 . S
C542 C541 1.387 . S
C542 C545 1.387 . S
H543 C539 0.950 . S
H544 C541 0.950 . S
C545 C536 1.390 . S
C545 H538 0.950 . S
C545 C542 1.387 . S
C546 C547 1.387 . S
C546 H550 0.950 . S
C546 C555 1.390 . S
C547 C546 1.387 . S
C547 C549 1.387 . S
H548 C555 0.950 . S
C549 C547 1.387 . S
C549 C551 1.390 . S
C549 H553 0.950 . S
H550 C546 0.950 . S
C551 C549 1.390 . S
C551 C552 1.387 . S
C551 H554 0.950 . S
C552 C551 1.387 . S
C552 C555 1.387 . S
H553 C549 0.950 . S
H554 C551 0.950 . S
C555 C546 1.390 . S
C555 H548 0.950 . S
C555 C552 1.387 . S
C556 C557 1.387 . S
C556 H560 0.950 . S
C556 C565 1.390 . S
C557 C556 1.387 . S
C557 C559 1.387 . S
H558 C565 0.952 . S
C559 C557 1.387 . S
C559 C561 1.390 . S
C559 H563 0.950 . S
H560 C556 0.950 . S
C561 C559 1.390 . S
C561 C562 1.387 1_655 S
C561 H564 0.950 . S
C562 C561 1.387 1_455 S
C562 C565 1.387 1_455 S
H563 C559 0.950 . S
H564 C561 0.950 . S
C565 C556 1.390 . S
C565 H558 0.952 . S
C565 C562 1.387 1_655 S
C566 C567 1.387 . S
C566 H570 0.950 . S
C566 C575 1.390 . S
C567 C566 1.387 . S
C567 C569 1.387 . S
H568 C575 0.950 . S
C569 C567 1.387 . S
C569 C571 1.390 . S
C569 H573 0.950 . S
H570 C566 0.950 . S
C571 C569 1.390 . S
C571 C572 1.387 1_565 S
C571 H574 0.952 . S
C572 C571 1.387 1_545 S
C572 C575 1.387 1_545 S
H573 C569 0.950 . S
H574 C571 0.952 . S
C575 C566 1.390 . S
C575 H568 0.950 . S
C575 C572 1.387 1_565 S
C576 C577 1.387 . S
C576 H580 0.950 . S
C576 C585 1.390 . S
C577 C576 1.387 . S
C577 C579 1.387 . S
H578 C585 0.950 . S
C579 C577 1.387 . S
C579 C581 1.390 . S
C579 H583 0.950 . S
H580 C576 0.950 . S
C581 C579 1.390 . S
C581 C582 1.387 . S
C581 H584 0.950 . S
C582 C581 1.387 . S
C582 C585 1.387 . S
H583 C579 0.950 . S
H584 C581 0.950 . S
C585 C576 1.390 . S
C585 H578 0.950 . S
C585 C582 1.387 . S
C586 C587 1.387 . S
C586 H590 0.950 . S
C586 C595 1.390 1_455 S
C587 C586 1.387 . S
C587 C589 1.387 . S
H588 C595 0.950 . S
C589 C587 1.387 . S
C589 C591 1.390 . S
C589 H593 0.950 . S
H590 C586 0.950 . S
C591 C589 1.390 . S
C591 C592 1.387 1_455 S
C591 H594 0.950 . S
C592 C591 1.387 1_655 S
C592 C595 1.387 . S
H593 C589 0.950 . S
H594 C591 0.950 . S
C595 C586 1.390 1_655 S
C595 H588 0.950 . S
C595 C592 1.387 . S
C596 C597 1.387 . S
C596 H600 0.950 . S
C596 C605 1.390 1_565 S
C597 C596 1.387 . S
C597 C599 1.387 1_565 S
H598 C605 0.950 . S
C599 C597 1.387 1_545 S
C599 C601 1.390 . S
C599 H603 0.950 . S
H600 C596 0.950 . S
C601 C599 1.390 . S
C601 C602 1.387 . S
C601 H604 0.950 . S
C602 C601 1.387 . S
C602 C605 1.387 . S
H603 C599 0.950 . S
H604 C601 0.950 . S
C605 C596 1.390 1_545 S
C605 H598 0.950 . S
C605 C602 1.387 . S
C606 C607 1.387 . S
C606 H610 0.950 . S
C606 C615 1.390 . S
C607 C606 1.387 . S
C607 C609 1.387 . S
H608 C615 0.950 . S
C609 C607 1.387 . S
C609 C611 1.390 . S
C609 H613 0.950 . S
H610 C606 0.950 . S
C611 C609 1.390 . S
C611 C612 1.387 . S
C611 H614 0.950 . S
C612 C611 1.387 . S
C612 C615 1.387 . S
H613 C609 0.950 . S
H614 C611 0.950 . S
C615 C606 1.390 . S
C615 H608 0.950 . S
C615 C612 1.387 . S
C616 C617 1.387 . S
C616 H620 0.950 . S
C616 C625 1.390 1_655 S
C617 C616 1.387 . S
C617 C619 1.387 . S
H618 C625 0.950 . S
C619 C617 1.387 . S
C619 C621 1.390 . S
C619 H623 0.950 . S
H620 C616 0.950 . S
C621 C619 1.390 . S
C621 C622 1.387 1_655 S
C621 H624 0.950 . S
C622 C621 1.387 1_455 S
C622 C625 1.387 . S
H623 C619 0.950 . S
H624 C621 0.950 . S
C625 C616 1.390 1_455 S
C625 H618 0.950 . S
C625 C622 1.387 . S
C626 C627 1.387 . S
C626 H630 0.950 . S
C626 C635 1.390 1_565 S
C627 C626 1.387 . S
C627 C629 1.387 . S
H628 C635 0.950 . S
C629 C627 1.387 . S
C629 C631 1.390 . S
C629 H633 0.950 . S
H630 C626 0.950 . S
C631 C629 1.390 . S
C631 C632 1.387 1_565 S
C631 H634 0.950 . S
C632 C631 1.387 1_545 S
C632 C635 1.387 . S
H633 C629 0.950 . S
H634 C631 0.950 . S
C635 C626 1.390 1_545 S
C635 H628 0.950 . S
C635 C632 1.387 . S
C636 C637 1.387 . S
C636 H640 0.950 . S
C636 C645 1.390 . S
C637 C636 1.387 . S
C637 C639 1.387 . S
H638 C645 0.950 . S
C639 C637 1.387 . S
C639 C641 1.390 . S
C639 H643 0.950 . S
H640 C636 0.950 . S
C641 C639 1.390 . S
C641 C642 1.387 . S
C641 H644 0.950 . S
C642 C641 1.387 . S
C642 C645 1.387 . S
H643 C639 0.950 . S
H644 C641 0.950 . S
C645 C636 1.390 . S
C645 H638 0.950 . S
C645 C642 1.387 . S
C646 C647 1.387 1_455 S
C646 H650 0.950 . S
C646 C655 1.390 . S
C647 C646 1.387 1_655 S
C647 C649 1.387 . S
H648 C655 0.950 . S
C649 C647 1.387 . S
C649 C651 1.390 1_655 S
C649 H653 0.950 . S
H650 C646 0.950 . S
C651 C649 1.390 1_455 S
C651 C652 1.387 . S
C651 H654 0.950 . S
C652 C651 1.387 . S
C652 C655 1.387 . S
H653 C649 0.950 . S
H654 C651 0.950 . S
C655 C646 1.390 . S
C655 H648 0.950 . S
C655 C652 1.387 . S
C656 C657 1.387 . S
C656 H660 0.950 . S
C656 C665 1.390 1_565 S
C657 C656 1.387 . S
C657 C659 1.387 1_565 S
H658 C665 0.947 1_565 S
C659 C657 1.387 1_545 S
C659 C661 1.390 . S
C659 H663 0.950 . S
H660 C656 0.950 . S
C661 C659 1.390 . S
C661 C662 1.387 . S
C661 H664 0.950 . S
C662 C661 1.387 . S
C662 C665 1.387 . S
H663 C659 0.950 . S
H664 C661 0.950 . S
C665 C656 1.390 1_545 S
C665 H658 0.947 1_545 S
C665 C662 1.387 . S
C666 C667 1.387 . S
C666 H670 0.950 . S
C666 C675 1.390 . S
C667 C666 1.387 . S
C667 C669 1.387 . S
H668 C675 0.950 . S
C669 C667 1.387 . S
C669 C671 1.390 . S
C669 H673 0.950 . S
H670 C666 0.950 . S
C671 C669 1.390 . S
C671 C672 1.387 . S
C671 H674 0.950 . S
C672 C671 1.387 . S
C672 C675 1.387 . S
H673 C669 0.950 . S
H674 C671 0.950 . S
C675 C666 1.390 . S
C675 H668 0.950 . S
C675 C672 1.387 . S
C676 C677 1.387 . S
C676 H680 0.950 . S
C676 C685 1.390 . S
C677 C676 1.387 . S
C677 C679 1.387 . S
H678 C685 0.950 . S
C679 C677 1.387 . S
C679 C681 1.390 1_655 S
C679 H683 0.950 . S
H680 C676 0.950 . S
C681 C679 1.390 1_455 S
C681 C682 1.387 . S
C681 H684 0.950 . S
C682 C681 1.387 . S
C682 C685 1.387 1_455 S
H683 C679 0.950 . S
H684 C681 0.950 . S
C685 C676 1.390 . S
C685 H678 0.950 . S
C685 C682 1.387 1_655 S
C686 C687 1.387 . S
C686 H690 0.950 . S
C686 C695 1.390 1_545 S
C687 C686 1.387 . S
C687 C689 1.387 1_545 S
H688 C695 0.950 . S
C689 C687 1.387 1_565 S
C689 C691 1.390 . S
C689 H693 0.950 . S
H690 C686 0.950 . S
C691 C689 1.390 . S
C691 C692 1.387 . S
C691 H694 0.950 . S
C692 C691 1.387 . S
C692 C695 1.387 . S
H693 C689 0.950 . S
H694 C691 0.950 . S
C695 C686 1.390 1_565 S
C695 H688 0.950 . S
C695 C692 1.387 . S
C397 N2 0.904 . S
C402 N266 0.904 . S
C407 N299 0.895 . S
C412 N35 0.895 . S
C417 N332 0.895 . S
C422 N68 0.895 . S
C427 N101 0.899 . S
C432 N365 0.902 . S
C437 N134 0.895 . S
C442 N200 0.895 . S
C447 N167 0.897 . S
C452 N233 0.895 . S
C457 N244 1.856 . S
C462 C21 1.830 . S
C467 C54 1.830 . S
C472 N277 1.856 . S
C477 N310 1.858 . S
C482 C87 1.832 . S
C487 N343 1.856 . S
C492 C120 1.830 . S
C497 N376 1.856 . S
C502 C153 1.830 . S
C507 N211 1.858 . S
C512 C186 1.832 . S
C517 N178 1.858 . S
C522 C219 1.832 . S
C527 C252 1.830 . S
C532 N13 1.856 . S
C537 C285 1.832 . S
C542 N46 1.858 . S
C547 N79 1.856 . S
C552 C318 1.830 . S
C557 N112 1.858 . S
C562 C351 1.832 . S
C567 N145 1.858 . S
C572 C384 1.832 . S
C577 C183 1.319 . S
C582 C7 1.206 . S
C587 C18 1.319 . S
C592 C40 1.203 . S
C597 C73 1.204 . S
C602 C51 1.320 . S
C607 C84 1.319 . S
C612 C106 1.206 . S
C617 C117 1.319 . S
C622 C139 1.203 . S
C627 C150 1.319 . S
C632 C172 1.206 . S
C637 C205 1.206 . S
C642 C249 1.320 . S
C647 C238 1.201 . S
C652 C282 1.318 . S
C657 C271 1.206 . S
C662 C315 1.319 . S
C667 C348 1.320 . S
C672 C304 1.206 . S
C677 C381 1.318 . S
C682 C337 1.201 . S
C687 C370 1.206 . S
C692 C216 1.319 . S
