# Generated by pormake.
# Topology uov, (4)-cn, num edge types: 1
# Building blocks:
#     Node 0, Type 0, BuildingBlock: NAHDIM_clean_sbu_0, # of connection points: 4
#     Node 1, Type 0, BuildingBlock: NAHDIM_clean_sbu_0, # of connection points: 4
#     Node 2, Type 0, BuildingBlock: NAHDIM_clean_sbu_0, # of connection points: 4
#     Node 3, Type 0, BuildingBlock: NAHDIM_clean_sbu_0, # of connection points: 4
#     Node 4, Type 0, BuildingBlock: NAHDIM_clean_sbu_0, # of connection points: 4
#     Node 5, Type 0, BuildingBlock: NAHDIM_clean_sbu_0, # of connection points: 4
#     Node 6, Type 0, BuildingBlock: NAHDIM_clean_sbu_0, # of connection points: 4
#     Node 7, Type 0, BuildingBlock: NAHDIM_clean_sbu_0, # of connection points: 4
#     Edge 8, Type (0, 0), BuildingBlock: KIFKEQ_clean_linker_1, # of connection points: 2
#     Edge 9, Type (0, 0), BuildingBlock: KIFKEQ_clean_linker_1, # of connection points: 2
#     Edge 10, Type (0, 0), BuildingBlock: KIFKEQ_clean_linker_1, # of connection points: 2
#     Edge 11, Type (0, 0), BuildingBlock: KIFKEQ_clean_linker_1, # of connection points: 2
#     Edge 12, Type (0, 0), BuildingBlock: KIFKEQ_clean_linker_1, # of connection points: 2
#     Edge 13, Type (0, 0), BuildingBlock: KIFKEQ_clean_linker_1, # of connection points: 2
#     Edge 14, Type (0, 0), BuildingBlock: KIFKEQ_clean_linker_1, # of connection points: 2
#     Edge 15, Type (0, 0), BuildingBlock: KIFKEQ_clean_linker_1, # of connection points: 2
#     Edge 16, Type (0, 0), BuildingBlock: KIFKEQ_clean_linker_1, # of connection points: 2
#     Edge 17, Type (0, 0), BuildingBlock: KIFKEQ_clean_linker_1, # of connection points: 2
#     Edge 18, Type (0, 0), BuildingBlock: KIFKEQ_clean_linker_1, # of connection points: 2
#     Edge 19, Type (0, 0), BuildingBlock: KIFKEQ_clean_linker_1, # of connection points: 2
#     Edge 20, Type (0, 0), BuildingBlock: KIFKEQ_clean_linker_1, # of connection points: 2
#     Edge 21, Type (0, 0), BuildingBlock: KIFKEQ_clean_linker_1, # of connection points: 2
#     Edge 22, Type (0, 0), BuildingBlock: KIFKEQ_clean_linker_1, # of connection points: 2
#     Edge 23, Type (0, 0), BuildingBlock: KIFKEQ_clean_linker_1, # of connection points: 2
# Relax obj value: 0.256
# Max RMSD: 0.233
# Mean RMSD: 0.233
data_MOF--net-uov--node1-NAHDIM_clean_sbu_0--edge1-KIFKEQ_clean_linker_1
_symmetry_space_group_name_H-M    P1
_symmetry_Int_Tables_number       1
_symmetry_cell_setting            triclinic
loop_
_symmetry_equiv_pos_as_xyz
'x, y, z'
_cell_length_a     30.831539
_cell_length_b     30.772849
_cell_length_c     42.002557
_cell_angle_alpha  89.933958
_cell_angle_beta   90.09331
_cell_angle_gamma 90.162378
loop_
_atom_site_label
_atom_site_type_symbol
_atom_site_fract_x
_atom_site_fract_y
_atom_site_fract_z
_atom_type_partial_charge
C0 C 0.02302 0.33453 0.63436 0.0
O1 O 0.01302 0.30987 0.65884 0.0
O2 O 0.98333 0.23004 0.58417 0.0
Zn3 Zn 0.03859 0.25219 0.60354 0.0
O4 O 0.05288 0.22298 0.64513 0.0
C5 C 0.07999 0.24402 0.54298 0.0
O6 O 0.04477 0.2643 0.53355 0.0
O7 O 0.03515 0.31685 0.60856 0.0
C8 C 0.03431 0.18896 0.65566 0.0
O9 O 0.00204 0.17175 0.63953 0.0
C10 C 0.94468 0.23529 0.59381 0.0
O11 O 0.93747 0.25629 0.62049 0.0
O12 O 0.08551 0.2369 0.57252 0.0
C13 C 0.31812 0.98464 0.34822 0.0
O14 O 0.29465 0.01623 0.33619 0.0
O15 O 0.21429 0.01276 0.38684 0.0
Zn16 Zn 0.23553 0.95402 0.37253 0.0
O17 O 0.20225 0.93334 0.33424 0.0
C18 C 0.2363 0.91545 0.43605 0.0
O19 O 0.26112 0.94866 0.44352 0.0
O20 O 0.2996 0.95466 0.36401 0.0
C21 C 0.19536 0.95478 0.30887 0.0
O22 O 0.21119 0.99427 0.30605 0.0
C23 C 0.23822 0.03885 0.40251 0.0
O24 O 0.27878 0.02839 0.40814 0.0
O25 O 0.22287 0.91134 0.40758 0.0
C26 C 0.99013 0.66026 0.63945 0.0
O27 O 0.00813 0.6841 0.66182 0.0
O28 O 0.03051 0.76675 0.60231 0.0
Zn29 Zn 0.97076 0.74368 0.61154 0.0
O30 O 0.9447 0.77164 0.65024 0.0
C31 C 0.89353 0.75926 0.57343 0.0
O32 O 0.87271 0.74574 0.59887 0.0
O33 O 0.97176 0.67888 0.61606 0.0
C34 C 0.96615 0.79417 0.67015 0.0
O35 O 0.00816 0.799 0.66626 0.0
C36 C 0.05622 0.74433 0.5854 0.0
O37 O 0.04453 0.70491 0.57692 0.0
O38 O 0.93471 0.75998 0.57363 0.0
C39 C 0.64176 0.00416 0.3705 0.0
O40 O 0.66798 0.97307 0.36123 0.0
O41 O 0.73609 0.981 0.42021 0.0
Zn42 Zn 0.72042 0.03578 0.39686 0.0
O43 O 0.75489 0.04258 0.35663 0.0
C44 C 0.72941 0.08321 0.45549 0.0
O45 O 0.70886 0.04929 0.46715 0.0
O46 O 0.65704 0.03563 0.38657 0.0
C47 C 0.79472 0.05309 0.35826 0.0
O48 O 0.81301 0.05719 0.38639 0.0
C49 C 0.75701 0.94908 0.40888 0.0
O50 O 0.76915 0.94984 0.37892 0.0
O51 O 0.73584 0.08549 0.42566 0.0
C52 C 0.98783 0.32478 0.14419 0.0
O53 O 0.01398 0.3015 0.16206 0.0
O54 O 0.02333 0.22515 0.10415 0.0
Zn55 Zn 0.96411 0.24107 0.12005 0.0
O56 O 0.94885 0.21075 0.16106 0.0
C57 C 0.92762 0.23638 0.05756 0.0
O58 O 0.9599 0.26305 0.05139 0.0
O59 O 0.9623 0.30559 0.12503 0.0
C60 C 0.93272 0.17269 0.16008 0.0
O61 O 0.92769 0.15361 0.13235 0.0
C62 C 0.04397 0.19084 0.11129 0.0
O63 O 0.02746 0.16369 0.13219 0.0
O64 O 0.92196 0.22335 0.08598 0.0
C65 C 0.32673 0.01162 0.85788 0.0
O66 O 0.30349 0.98199 0.84309 0.0
O67 O 0.23394 0.97128 0.90595 0.0
Zn68 Zn 0.24505 0.02974 0.88642 0.0
O69 O 0.21138 0.04004 0.84622 0.0
C70 C 0.24068 0.06903 0.94747 0.0
O71 O 0.26897 0.03832 0.95375 0.0
O72 O 0.30838 0.03652 0.87778 0.0
C73 C 0.17047 0.04491 0.84632 0.0
O74 O 0.14917 0.04035 0.8732 0.0
C75 C 0.2183 0.93704 0.89353 0.0
O76 O 0.20765 0.9369 0.86324 0.0
O77 O 0.22663 0.07315 0.91916 0.0
C78 C 0.03226 0.64619 0.11575 0.0
O79 O 0.07041 0.66401 0.12084 0.0
O80 O 0.95523 0.75575 0.07564 0.0
Zn81 Zn 0.01123 0.73118 0.09154 0.0
O82 O 0.03457 0.76446 0.12893 0.0
C83 C 0.09299 0.74281 0.05723 0.0
O84 O 0.11117 0.741 0.08551 0.0
O85 O 0.00231 0.66877 0.10324 0.0
C86 C 0.0368 0.8057 0.12896 0.0
O87 O 0.02192 0.82745 0.10434 0.0
C88 C 0.92439 0.77352 0.09076 0.0
O89 O 0.92671 0.77731 0.12187 0.0
O90 O 0.05226 0.73751 0.05474 0.0
C91 C 0.65152 0.01288 0.85864 0.0
O92 O 0.67504 0.04815 0.85477 0.0
O93 O 0.75147 0.03511 0.8982 0.0
Zn94 Zn 0.73201 0.9769 0.88147 0.0
O95 O 0.76797 0.95699 0.84429 0.0
C96 C 0.73729 0.94551 0.94605 0.0
O97 O 0.72751 0.98598 0.95281 0.0
O98 O 0.66929 0.97868 0.86938 0.0
C99 C 0.80439 0.93896 0.84943 0.0
O100 O 0.8184 0.93532 0.87887 0.0
C101 C 0.78684 0.05393 0.89097 0.0
O102 O 0.81197 0.03671 0.86918 0.0
O103 O 0.73958 0.93384 0.91707 0.0
H104 H 0.02698 0.60935 0.68565 0.0
H105 H 0.96038 0.60272 0.59511 0.0
H106 H 0.03512 0.53037 0.68537 0.0
H107 H 0.96811 0.52407 0.5951 0.0
H108 H 0.00017 0.3835 0.68607 0.0
H109 H 0.99129 0.46232 0.68843 0.0
H110 H 0.02822 0.47221 0.58953 0.0
H111 H 0.03662 0.39371 0.58698 0.0
C112 C 0.01384 0.59107 0.66582 0.0
C113 C 0.99323 0.61233 0.64033 0.0
C114 C 0.01834 0.54585 0.66574 0.0
C115 C 0.00252 0.52111 0.6401 0.0
C116 C 0.98125 0.54234 0.61494 0.0
C117 C 0.97661 0.58741 0.61506 0.0
C118 C 0.00647 0.40252 0.66486 0.0
C119 C 0.01894 0.38232 0.63631 0.0
C120 C 0.00157 0.44765 0.66627 0.0
C121 C 0.00881 0.47338 0.63911 0.0
C122 C 0.02175 0.45318 0.61071 0.0
C123 C 0.02681 0.40819 0.60933 0.0
H124 H 0.59727 0.93703 0.34303 0.0
H125 H 0.5803 0.06607 0.38157 0.0
H126 H 0.51933 0.93199 0.33333 0.0
H127 H 0.50245 0.06078 0.37205 0.0
H128 H 0.36909 0.05112 0.32637 0.0
H129 H 0.44815 0.05588 0.32798 0.0
H130 H 0.45415 0.92676 0.36812 0.0
H131 H 0.37532 0.92176 0.36635 0.0
C132 C 0.57698 0.9644 0.34927 0.0
C133 C 0.5949 0.00186 0.36323 0.0
C134 C 0.53237 0.96141 0.34381 0.0
C135 C 0.50486 -0.00404 0.35197 0.0
C136 C 0.52293 0.03383 0.36519 0.0
C137 C 0.56747 0.03671 0.37086 0.0
C138 C 0.3873 0.02356 0.33519 0.0
C139 C 0.36595 0.98617 0.34641 0.0
C140 C 0.43252 0.0264 0.33626 0.0
C141 C 0.45724 0.99178 0.34831 0.0
C142 C 0.43596 0.95381 0.35845 0.0
C143 C 0.39079 0.95108 0.3576 0.0
H144 H 0.94525 0.38114 0.10506 0.0
H145 H 0.03771 0.37681 0.18246 0.0
H146 H 0.95497 0.45924 0.10111 0.0
H147 H 0.0465 0.45555 0.17913 0.0
H148 H 0.09165 0.5849 0.1335 0.0
H149 H 0.07872 0.50789 0.14345 0.0
H150 H 0.9416 0.5268 0.1271 0.0
H151 H 0.95472 0.60336 0.11616 0.0
C152 C 0.96718 0.39695 0.12159 0.0
C153 C 0.99089 0.37272 0.14397 0.0
C154 C 0.97258 0.44186 0.11944 0.0
C155 C 0.00159 0.4637 0.13977 0.0
C156 C 0.02439 0.43962 0.1628 0.0
C157 C 0.01914 0.39456 0.16485 0.0
C158 C 0.05873 0.57262 0.13219 0.0
C159 C 0.02428 0.6001 0.12372 0.0
C160 C 0.05126 0.52853 0.13812 0.0
C161 C 0.00914 0.5111 0.13591 0.0
C162 C 0.97455 0.53898 0.12842 0.0
C163 C 0.98205 0.58292 0.12226 0.0
H164 H 0.37777 0.95767 0.82243 0.0
H165 H 0.38273 0.07202 0.88206 0.0
H166 H 0.45665 0.95956 0.81746 0.0
H167 H 0.46141 0.07353 0.87732 0.0
H168 H 0.60066 0.08295 0.84423 0.0
H169 H 0.52174 0.08445 0.83909 0.0
H170 H 0.51686 0.94586 0.85521 0.0
H171 H 0.59549 0.94418 0.86002 0.0
C172 C 0.39562 0.98338 0.83426 0.0
C173 C 0.37406 0.01448 0.85285 0.0
C174 C 0.44076 0.98436 0.83149 0.0
C175 C 0.46515 0.0166 0.84709 0.0
C176 C 0.44345 0.04856 0.86475 0.0
C177 C 0.39838 0.04747 0.86765 0.0
C178 C 0.58277 0.05275 0.84631 0.0
C179 C 0.60427 0.01351 0.85279 0.0
C180 C 0.53761 0.05365 0.8435 0.0
C181 C 0.51317 0.0153 0.84688 0.0
C182 C 0.53484 0.97587 0.85216 0.0
C183 C 0.57989 0.97498 0.85515 0.0
H184 H 0.15439 0.06713 0.39886 0.0
H185 H 0.27875 0.09821 0.44083 0.0
H186 H 0.12081 0.12463 0.42985 0.0
H187 H 0.24517 0.15637 0.47144 0.0
H188 H 0.15399 0.19803 0.55462 0.0
H189 H 0.19593 0.15581 0.51676 0.0
H190 H 0.11495 0.20248 0.44002 0.0
H191 H 0.07233 0.24426 0.47806 0.0
C192 C 0.17473 0.08676 0.41424 0.0
C193 C 0.21913 0.07769 0.4177 0.0
C194 C 0.15551 0.11997 0.43187 0.0
C195 C 0.18027 0.14486 0.45331 0.0
C196 C 0.22512 0.13731 0.45547 0.0
C197 C 0.24437 0.10409 0.43783 0.0
C198 C 0.1455 0.19988 0.52962 0.0
C199 C 0.10946 0.22407 0.51942 0.0
C200 C 0.16977 0.17586 0.50785 0.0
C201 C 0.15855 0.1755 0.47539 0.0
C202 C 0.12398 0.2016 0.46495 0.0
C203 C 0.09972 0.2257 0.48674 0.0
H204 H 0.19067 0.84036 0.42765 0.0
H205 H 0.24581 0.92253 0.50073 0.0
H206 H 0.15691 0.79545 0.46826 0.0
H207 H 0.21228 0.87693 0.54161 0.0
H208 H 0.0836 0.82859 0.5914 0.0
H209 H 0.13658 0.86607 0.55832 0.0
H210 H 0.16841 0.74484 0.51229 0.0
H211 H 0.11481 0.70737 0.54498 0.0
C212 C 0.19617 0.84845 0.45242 0.0
C213 C 0.22051 0.88531 0.46094 0.0
C214 C 0.17712 0.82242 0.47576 0.0
C215 C 0.18185 0.83267 0.50819 0.0
C216 C 0.20775 0.86846 0.5168 0.0
C217 C 0.22706 0.89445 0.49339 0.0
C218 C 0.10253 0.80972 0.57471 0.0
C219 C 0.09437 0.76514 0.57038 0.0
C220 C 0.13312 0.8312 0.55585 0.0
C221 C 0.15621 0.80852 0.53233 0.0
C222 C 0.15049 0.76333 0.52979 0.0
C223 C 0.11989 0.74185 0.54863 0.0
H224 H 0.80915 0.87965 0.39494 0.0
H225 H 0.73648 0.93833 0.47152 0.0
H226 H 0.83781 0.82572 0.4321 0.0
H227 H 0.76567 0.88524 0.50854 0.0
H228 H 0.80587 0.77094 0.56713 0.0
H229 H 0.76799 0.80935 0.52451 0.0
H230 H 0.88976 0.8291 0.47574 0.0
H231 H 0.92738 0.79009 0.5178 0.0
C232 C 0.79894 0.88079 0.41958 0.0
C233 C 0.77088 0.91354 0.43032 0.0
C234 C 0.81549 0.85002 0.44089 0.0
C235 C 0.80422 0.85133 0.47332 0.0
C236 C 0.77464 0.88293 0.48368 0.0
C237 C 0.75816 0.91364 0.46245 0.0
C238 C 0.82443 0.7829 0.54706 0.0
C239 C 0.8697 0.77789 0.54605 0.0
C240 C 0.80276 0.80506 0.52272 0.0
C241 C 0.8259 0.82259 0.49686 0.0
C242 C 0.87086 0.81566 0.49512 0.0
C243 C 0.8925 0.79356 0.51942 0.0
H244 H 0.77725 0.15451 0.43895 0.0
H245 H 0.73226 0.08181 0.52067 0.0
H246 H 0.82422 0.1975 0.47338 0.0
H247 H 0.77983 0.12466 0.55505 0.0
H248 H 0.85844 0.2285 0.60977 0.0
H249 H 0.79961 0.1986 0.57695 0.0
H250 H 0.89095 0.17399 0.50128 0.0
H251 H 0.94912 0.20368 0.53356 0.0
C252 C 0.7768 0.14815 0.46432 0.0
C253 C 0.75154 0.11424 0.477 0.0
C254 C 0.80386 0.17269 0.48401 0.0
C255 C 0.80622 0.16392 0.5168 0.0
C256 C 0.77861 0.13221 0.52987 0.0
C257 C 0.75151 0.10755 0.51013 0.0
C258 C 0.86577 0.2169 0.58605 0.0
C259 C 0.90844 0.21831 0.57432 0.0
C260 C 0.83217 0.19975 0.56734 0.0
C261 C 0.84064 0.18432 0.53647 0.0
C262 C 0.88321 0.18634 0.52473 0.0
C263 C 0.91667 0.20299 0.54341 0.0
H264 H 0.86653 0.09314 0.88942 0.0
H265 H 0.74281 0.09711 0.93757 0.0
H266 H 0.89615 0.14438 0.92792 0.0
H267 H 0.77219 0.14914 0.97563 0.0
H268 H 0.8613 0.17778 0.06215 0.0
H269 H 0.82339 0.14136 0.01896 0.0
H270 H 0.89555 0.21723 0.95038 0.0
H271 H 0.93429 0.25321 0.99374 0.0
C272 C 0.84536 0.10569 0.90777 0.0
C273 C 0.80252 0.09055 0.9107 0.0
C274 C 0.86229 0.13527 0.92978 0.0
C275 C 0.83667 0.15043 0.95509 0.0
C276 C 0.79301 0.1374 0.95677 0.0
C277 C 0.77612 0.10776 0.93484 0.0
C278 C 0.86875 0.18714 0.03789 0.0
C279 C 0.90111 0.21811 0.03139 0.0
C280 C 0.84675 0.16645 0.01309 0.0
C281 C 0.85653 0.17629 0.98119 0.0
C282 C 0.88767 0.20855 0.9747 0.0
C283 C 0.90971 0.22928 -0.00045 0.0
H284 H 0.25683 0.06225 0.01136 0.0
H285 H 0.17962 0.13274 0.94268 0.0
H286 H 0.21741 0.09728 0.0546 0.0
H287 H 0.13988 0.16699 0.98575 0.0
H288 H 0.08687 0.24039 0.06745 0.0
H289 H 0.14281 0.21678 0.0305 0.0
H290 H 0.14346 0.09003 0.07485 0.0
H291 H 0.08815 0.11387 0.11225 0.0
C292 C 0.23187 0.08562 0.00547 0.0
C293 C 0.22105 0.0944 0.97358 0.0
C294 C 0.20916 0.1055 0.03026 0.0
C295 C 0.17534 0.13468 0.02363 0.0
C296 C 0.16608 0.14506 0.99173 0.0
C297 C 0.18869 0.12517 0.96699 0.0
C298 C 0.09948 0.20771 0.0697 0.0
C299 C 0.08261 0.17877 0.09249 0.0
C300 C 0.13141 0.19416 0.04842 0.0
C301 C 0.14712 0.15137 0.04944 0.0
C302 C 0.13226 0.12331 0.07355 0.0
C303 C 0.10036 0.1369 0.09491 0.0
H304 H 0.06242 0.76004 0.9975 0.0
H305 H 0.17985 0.76125 0.05383 0.0
H306 H 0.09958 0.79859 0.95511 0.0
H307 H 0.21762 0.79868 0.01076 0.0
H308 H 0.23736 0.92834 0.9565 0.0
H309 H 0.21329 0.87201 0.99266 0.0
H310 H 0.15369 0.80315 0.91425 0.0
H311 H 0.1769 0.86075 0.87786 0.0
C312 C 0.09652 0.76756 0.00054 0.0
C313 C 0.11794 0.75834 0.02934 0.0
C314 C 0.11798 0.78943 0.97604 0.0
C315 C 0.16147 0.80235 0.97966 0.0
C316 C 0.18383 0.79005 0.00748 0.0
C317 C 0.16225 0.76839 0.03211 0.0
C318 C 0.21958 0.90097 0.94678 0.0
C319 C 0.20849 0.8994 0.91432 0.0
C320 C 0.20613 0.8683 0.96756 0.0
C321 C 0.18137 0.83301 0.95645 0.0
C322 C 0.17222 0.8302 0.92366 0.0
C323 C 0.18565 0.86309 0.90278 0.0
H324 H 0.76148 0.96607 0.00677 0.0
H325 H 0.74681 0.85756 0.94244 0.0
H326 H 0.79855 0.91928 0.04478 0.0
H327 H 0.78228 0.81029 0.98098 0.0
H328 H 0.91058 0.76815 0.02701 0.0
H329 H 0.85641 0.80519 0.99559 0.0
H330 H 0.80035 0.85866 0.08125 0.0
H331 H 0.85609 0.82216 0.11302 0.0
C332 C 0.76511 0.93193 0.00112 0.0
C333 C 0.75203 0.91565 0.97137 0.0
C334 C 0.78615 0.905 0.02303 0.0
C335 C 0.7941 0.86116 0.01571 0.0
C336 C 0.77769 0.84417 0.98702 0.0
C337 C 0.75719 0.8712 0.96498 0.0
C338 C 0.88652 0.78741 0.03932 0.0
C339 C 0.88799 0.79256 0.07254 0.0
C340 C 0.85502 0.80836 0.02124 0.0
C341 C 0.82386 0.83491 0.03584 0.0
C342 C 0.82417 0.83878 0.06924 0.0
C343 C 0.85595 0.81774 0.08745 0.0
H344 H 4e-05 0.11902 0.68754 0.0
H345 H 0.10754 0.20953 0.68889 0.0
H346 H 0.03128 0.08085 0.73329 0.0
H347 H 0.1384 0.17152 0.73436 0.0
H348 H 0.20683 0.06514 0.789 0.0
H349 H 0.17176 0.09828 0.74309 0.0
H350 H 0.04864 0.09417 0.79184 0.0
H351 H 0.0837 0.06072 0.83803 0.0
C352 C 0.03015 0.13089 0.69766 0.0
C353 C 0.0514 0.16719 0.68448 0.0
C354 C 0.04792 0.10911 0.72387 0.0
C355 C 0.08747 0.12297 0.73712 0.0
C356 C 0.10824 0.15968 0.72429 0.0
C357 C 0.09035 0.18163 0.69837 0.0
C358 C 0.17221 0.07086 0.78991 0.0
C359 C 0.14813 0.06063 0.81731 0.0
C360 C 0.15219 0.09009 0.76366 0.0
C361 C 0.10761 0.09929 0.76408 0.0
C362 C 0.08307 0.08735 0.79087 0.0
C363 C 0.10318 0.06833 0.81732 0.0
H364 H 0.08287 0.76994 0.17779 0.0
H365 H 0.039 0.89323 0.14059 0.0
H366 H 0.12009 0.80724 0.22084 0.0
H367 H 0.07516 0.93068 0.18449 0.0
H368 H 0.18561 0.98405 0.24763 0.0
H369 H 0.14604 0.9489 0.2043 0.0
H370 H 0.1067 0.8462 0.26845 0.0
H371 H 0.14733 0.88041 0.31124 0.0
C372 C 0.08075 0.80503 0.17901 0.0
C373 C 0.05793 0.82862 0.15578 0.0
C374 C 0.10194 0.82646 0.20384 0.0
C375 C 0.10051 0.87202 0.20628 0.0
C376 C 0.07741 0.89562 0.18312 0.0
C377 C 0.05645 0.87415 0.15808 0.0
C378 C 0.16842 0.95401 0.25243 0.0
C379 C 0.16992 0.93484 0.28279 0.0
C380 C 0.14551 0.93398 0.22765 0.0
C381 C 0.12338 0.89453 0.23279 0.0
C382 C 0.12411 0.87604 0.26341 0.0
C383 C 0.14726 0.89581 0.28804 0.0
H384 H 0.87941 0.79324 0.68305 0.0
H385 H 0.00152 0.84454 0.7173 0.0
H386 H 0.84168 0.82992 0.72613 0.0
H387 H 0.96349 0.88184 0.76023 0.0
H388 H 0.88321 0.89877 0.85247 0.0
H389 H 0.92311 0.8647 0.80915 0.0
H390 H 0.82327 0.90382 0.74286 0.0
H391 H 0.78298 0.93735 0.78622 0.0
C392 C 0.89823 0.8124 0.69974 0.0
C393 C 0.94351 0.81595 0.69673 0.0
C394 C 0.87653 0.83369 0.7243 0.0
C395 C 0.89956 0.85898 0.74648 0.0
C396 C 0.94488 0.86231 0.74365 0.0
C397 C 0.96663 0.84106 0.71899 0.0
C398 C 0.86985 0.90031 0.82864 0.0
C399 C 0.82979 0.92058 0.82283 0.0
C400 C 0.89285 0.88096 0.80379 0.0
C401 C 0.87624 0.88137 0.77262 0.0
C402 C 0.8366 0.9024 0.76672 0.0
C403 C 0.81365 0.92183 0.79154 0.0
H404 H 0.87769 0.08412 0.35377 0.0
H405 H 0.76645 0.04831 0.29667 0.0
H406 H 0.91523 0.10894 0.30596 0.0
H407 H 0.80372 0.07373 0.24907 0.0
H408 H 0.89428 0.09296 0.1657 0.0
H409 H 0.86501 0.05935 0.21369 0.0
H410 H 0.90694 0.17014 0.26893 0.0
H411 H 0.93684 0.2035 0.22108 0.0
C412 C 0.86137 0.08122 0.33101 0.0
C413 C 0.81897 0.0645 0.32905 0.0
C414 C 0.8828 0.09568 0.30367 0.0
C415 C 0.86235 0.09355 0.27377 0.0
C416 C 0.82054 0.07543 0.27169 0.0
C417 C 0.79908 0.06109 0.29902 0.0
C418 C 0.8976 0.11001 0.18812 0.0
C419 C 0.91763 0.15106 0.18954 0.0
C420 C 0.88065 0.09081 0.21558 0.0
C421 C 0.88345 0.11217 0.24507 0.0
C422 C 0.90466 0.15262 0.24664 0.0
C423 C 0.92155 0.17188 0.21917 0.0
loop_
_geom_bond_atom_site_label_1
_geom_bond_atom_site_label_2
_geom_bond_distance
_geom_bond_site_symmetry_2
_ccdc_geom_bond_type
C0 O1 1.160 . S
C0 O7 1.185 . S
O1 C0 1.160 . S
O2 Zn3 1.883 1_655 S
O2 C10 1.294 . S
Zn3 O2 1.883 1_455 S
Zn3 O4 2.032 . S
Zn3 O7 2.086 . S
Zn3 O12 1.977 . S
O4 Zn3 2.032 . S
O4 C8 1.278 . S
C5 O6 1.203 . S
C5 O12 1.267 . S
O6 C5 1.203 . S
O7 C0 1.185 . S
O7 Zn3 2.086 . S
C8 O4 1.278 . S
C8 O9 1.211 . S
O9 C8 1.211 . S
C10 O2 1.294 . S
C10 O11 1.273 . S
O11 C10 1.273 . S
O12 Zn3 1.977 . S
O12 C5 1.267 . S
C13 O14 1.160 . S
C13 O20 1.185 . S
O14 C13 1.160 . S
O15 Zn16 1.883 1_545 S
O15 C23 1.294 . S
Zn16 O15 1.883 1_565 S
Zn16 O17 2.032 . S
Zn16 O20 2.086 . S
Zn16 O25 1.977 . S
O17 Zn16 2.032 . S
O17 C21 1.278 . S
C18 O19 1.203 . S
C18 O25 1.267 . S
O19 C18 1.203 . S
O20 C13 1.185 . S
O20 Zn16 2.086 . S
C21 O17 1.278 . S
C21 O22 1.211 . S
O22 C21 1.211 . S
C23 O15 1.294 . S
C23 O24 1.273 . S
O24 C23 1.273 . S
O25 Zn16 1.977 . S
O25 C18 1.267 . S
C26 O27 1.160 . S
C26 O33 1.185 . S
O27 C26 1.160 . S
O28 Zn29 1.883 1_455 S
O28 C36 1.294 . S
Zn29 O28 1.883 1_655 S
Zn29 O30 2.032 . S
Zn29 O33 2.086 . S
Zn29 O38 1.977 . S
O30 Zn29 2.032 . S
O30 C34 1.278 . S
C31 O32 1.203 . S
C31 O38 1.267 . S
O32 C31 1.203 . S
O33 C26 1.185 . S
O33 Zn29 2.086 . S
C34 O30 1.278 . S
C34 O35 1.211 . S
O35 C34 1.211 . S
C36 O28 1.294 . S
C36 O37 1.273 . S
O37 C36 1.273 . S
O38 Zn29 1.977 . S
O38 C31 1.267 . S
C39 O40 1.160 . S
C39 O46 1.185 . S
O40 C39 1.160 . S
O41 Zn42 1.883 1_565 S
O41 C49 1.294 . S
Zn42 O41 1.883 1_545 S
Zn42 O43 2.032 . S
Zn42 O46 2.086 . S
Zn42 O51 1.977 . S
O43 Zn42 2.032 . S
O43 C47 1.278 . S
C44 O45 1.203 . S
C44 O51 1.267 . S
O45 C44 1.203 . S
O46 C39 1.185 . S
O46 Zn42 2.086 . S
C47 O43 1.278 . S
C47 O48 1.211 . S
O48 C47 1.211 . S
C49 O41 1.294 . S
C49 O50 1.273 . S
O50 C49 1.273 . S
O51 Zn42 1.977 . S
O51 C44 1.267 . S
C52 O53 1.160 . S
C52 O59 1.185 . S
O53 C52 1.160 . S
O54 Zn55 1.883 1_455 S
O54 C62 1.294 . S
Zn55 O54 1.883 1_655 S
Zn55 O56 2.032 . S
Zn55 O59 2.086 . S
Zn55 O64 1.977 . S
O56 Zn55 2.032 . S
O56 C60 1.278 . S
C57 O58 1.203 . S
C57 O64 1.267 . S
O58 C57 1.203 . S
O59 C52 1.185 . S
O59 Zn55 2.086 . S
C60 O56 1.278 . S
C60 O61 1.211 . S
O61 C60 1.211 . S
C62 O54 1.294 . S
C62 O63 1.273 . S
O63 C62 1.273 . S
O64 Zn55 1.977 . S
O64 C57 1.267 . S
C65 O66 1.160 . S
C65 O72 1.185 . S
O66 C65 1.160 . S
O67 Zn68 1.883 1_565 S
O67 C75 1.294 . S
Zn68 O67 1.883 1_545 S
Zn68 O69 2.032 . S
Zn68 O72 2.086 . S
Zn68 O77 1.977 . S
O69 Zn68 2.032 . S
O69 C73 1.278 . S
C70 O71 1.203 . S
C70 O77 1.267 . S
O71 C70 1.203 . S
O72 C65 1.185 . S
O72 Zn68 2.086 . S
C73 O69 1.278 . S
C73 O74 1.211 . S
O74 C73 1.211 . S
C75 O67 1.294 . S
C75 O76 1.273 . S
O76 C75 1.273 . S
O77 Zn68 1.977 . S
O77 C70 1.267 . S
C78 O79 1.160 . S
C78 O85 1.185 . S
O79 C78 1.160 . S
O80 Zn81 1.883 1_655 S
O80 C88 1.294 . S
Zn81 O80 1.883 1_455 S
Zn81 O82 2.032 . S
Zn81 O85 2.086 . S
Zn81 O90 1.977 . S
O82 Zn81 2.032 . S
O82 C86 1.278 . S
C83 O84 1.203 . S
C83 O90 1.267 . S
O84 C83 1.203 . S
O85 C78 1.185 . S
O85 Zn81 2.086 . S
C86 O82 1.278 . S
C86 O87 1.211 . S
O87 C86 1.211 . S
C88 O80 1.294 . S
C88 O89 1.273 . S
O89 C88 1.273 . S
O90 Zn81 1.977 . S
O90 C83 1.267 . S
C91 O92 1.160 . S
C91 O98 1.185 . S
O92 C91 1.160 . S
O93 Zn94 1.883 1_545 S
O93 C101 1.294 . S
Zn94 O93 1.883 1_565 S
Zn94 O95 2.032 . S
Zn94 O98 2.086 . S
Zn94 O103 1.977 . S
O95 Zn94 2.032 . S
O95 C99 1.278 . S
C96 O97 1.203 . S
C96 O103 1.267 . S
O97 C96 1.203 . S
O98 C91 1.185 . S
O98 Zn94 2.086 . S
C99 O95 1.278 . S
C99 O100 1.211 . S
O100 C99 1.211 . S
C101 O93 1.294 . S
C101 O102 1.273 . S
O102 C101 1.273 . S
O103 Zn94 1.977 . S
O103 C96 1.267 . S
H104 C112 0.950 1_455 S
H105 C117 0.950 . S
H106 C114 0.950 . S
H107 C116 0.950 . S
H108 C118 0.950 1_655 S
H109 C120 0.950 . S
H110 C122 0.950 . S
H111 C123 0.950 . S
C112 H104 0.950 1_655 S
C112 C113 1.386 . S
C112 C114 1.391 1_655 S
C113 C112 1.386 . S
C113 C117 1.393 . S
C114 H106 0.950 . S
C114 C112 1.391 1_455 S
C114 C115 1.400 1_455 S
C115 C114 1.400 1_655 S
C115 C116 1.398 . S
C115 C121 1.491 1_655 S
C116 H107 0.950 . S
C116 C115 1.398 . S
C116 C117 1.391 . S
C117 H105 0.950 . S
C117 C113 1.393 . S
C117 C116 1.391 . S
C118 H108 0.950 1_455 S
C118 C119 1.386 . S
C118 C120 1.391 1_455 S
C119 C118 1.386 . S
C119 C123 1.393 . S
C120 H109 0.950 . S
C120 C118 1.391 1_655 S
C120 C121 1.400 1_655 S
C121 C115 1.491 1_455 S
C121 C120 1.400 1_455 S
C121 C122 1.398 . S
C122 H110 0.950 . S
C122 C121 1.398 . S
C122 C123 1.391 . S
C123 H111 0.950 . S
C123 C119 1.393 . S
C123 C122 1.391 . S
H124 C132 0.950 1_565 S
H125 C137 0.950 . S
H126 C134 0.950 . S
H127 C136 0.950 . S
H128 C138 0.950 1_545 S
H129 C140 0.950 . S
H130 C142 0.950 . S
H131 C143 0.950 . S
C132 H124 0.950 1_545 S
C132 C133 1.386 . S
C132 C134 1.391 1_545 S
C133 C132 1.386 . S
C133 C137 1.393 . S
C134 H126 0.950 . S
C134 C132 1.391 1_565 S
C134 C135 1.400 1_565 S
C135 C134 1.400 1_545 S
C135 C136 1.398 . S
C135 C141 1.491 1_545 S
C136 H127 0.950 . S
C136 C135 1.398 . S
C136 C137 1.391 . S
C137 H125 0.950 . S
C137 C133 1.393 . S
C137 C136 1.391 . S
C138 H128 0.950 1_565 S
C138 C139 1.386 . S
C138 C140 1.391 1_565 S
C139 C138 1.386 . S
C139 C143 1.393 . S
C140 H129 0.950 . S
C140 C138 1.391 1_545 S
C140 C141 1.400 1_545 S
C141 C135 1.491 1_565 S
C141 C140 1.400 1_565 S
C141 C142 1.398 . S
C142 H130 0.950 . S
C142 C141 1.398 . S
C142 C143 1.391 . S
C143 H131 0.950 . S
C143 C139 1.393 . S
C143 C142 1.391 . S
H144 C152 0.950 . S
H145 C157 0.950 . S
H146 C154 0.954 . S
H147 C156 0.950 . S
H148 C158 0.950 . S
H149 C160 0.954 . S
H150 C162 0.950 . S
H151 C163 0.950 . S
C152 H144 0.950 . S
C152 C153 1.386 . S
C152 C154 1.391 . S
C153 C152 1.386 . S
C153 C157 1.393 . S
C154 H146 0.954 . S
C154 C152 1.391 . S
C154 C155 1.400 . S
C155 C154 1.400 . S
C155 C156 1.398 . S
C155 C161 1.491 1_655 S
C156 H147 0.950 . S
C156 C155 1.398 . S
C156 C157 1.391 . S
C157 H145 0.950 . S
C157 C153 1.393 . S
C157 C156 1.391 . S
C158 H148 0.950 . S
C158 C159 1.386 . S
C158 C160 1.391 . S
C159 C158 1.386 . S
C159 C163 1.393 . S
C160 H149 0.954 . S
C160 C158 1.391 . S
C160 C161 1.400 . S
C161 C155 1.491 1_455 S
C161 C160 1.400 . S
C161 C162 1.398 . S
C162 H150 0.950 . S
C162 C161 1.398 . S
C162 C163 1.391 . S
C163 H151 0.950 . S
C163 C159 1.393 . S
C163 C162 1.391 . S
H164 C172 0.950 . S
H165 C177 0.950 . S
H166 C174 0.950 . S
H167 C176 0.950 . S
H168 C178 0.950 . S
H169 C180 0.950 . S
H170 C182 0.950 . S
H171 C183 0.950 . S
C172 H164 0.950 . S
C172 C173 1.386 1_565 S
C172 C174 1.391 . S
C173 C172 1.386 1_545 S
C173 C177 1.393 . S
C174 H166 0.950 . S
C174 C172 1.391 . S
C174 C175 1.400 1_565 S
C175 C174 1.400 1_545 S
C175 C176 1.398 . S
C175 C181 1.491 1_545 S
C176 H167 0.950 . S
C176 C175 1.398 . S
C176 C177 1.391 . S
C177 H165 0.950 . S
C177 C173 1.393 . S
C177 C176 1.391 . S
C178 H168 0.950 . S
C178 C179 1.386 1_545 S
C178 C180 1.391 . S
C179 C178 1.386 1_565 S
C179 C183 1.393 . S
C180 H169 0.950 . S
C180 C178 1.391 . S
C180 C181 1.400 1_545 S
C181 C175 1.491 1_565 S
C181 C180 1.400 1_565 S
C181 C182 1.398 . S
C182 H170 0.950 . S
C182 C181 1.398 . S
C182 C183 1.391 . S
C183 H171 0.950 . S
C183 C179 1.393 . S
C183 C182 1.391 . S
H184 C192 0.950 . S
H185 C197 0.950 . S
H186 C194 0.950 . S
H187 C196 0.950 . S
H188 C198 0.950 . S
H189 C200 0.950 . S
H190 C202 0.950 . S
H191 C203 0.950 . S
C192 H184 0.950 . S
C192 C193 1.386 . S
C192 C194 1.391 . S
C193 C192 1.386 . S
C193 C197 1.393 . S
C194 H186 0.950 . S
C194 C192 1.391 . S
C194 C195 1.400 . S
C195 C194 1.400 . S
C195 C196 1.398 . S
C195 C201 1.491 . S
C196 H187 0.950 . S
C196 C195 1.398 . S
C196 C197 1.391 . S
C197 H185 0.950 . S
C197 C193 1.393 . S
C197 C196 1.391 . S
C198 H188 0.950 . S
C198 C199 1.386 . S
C198 C200 1.391 . S
C199 C198 1.386 . S
C199 C203 1.393 . S
C200 H189 0.950 . S
C200 C198 1.391 . S
C200 C201 1.400 . S
C201 C195 1.491 . S
C201 C200 1.400 . S
C201 C202 1.398 . S
C202 H190 0.950 . S
C202 C201 1.398 . S
C202 C203 1.391 . S
C203 H191 0.950 . S
C203 C199 1.393 . S
C203 C202 1.391 . S
H204 C212 0.950 . S
H205 C217 0.950 . S
H206 C214 0.950 . S
H207 C216 0.950 . S
H208 C218 0.950 . S
H209 C220 0.950 . S
H210 C222 0.950 . S
H211 C223 0.950 . S
C212 H204 0.950 . S
C212 C213 1.386 . S
C212 C214 1.391 . S
C213 C212 1.386 . S
C213 C217 1.393 . S
C214 H206 0.950 . S
C214 C212 1.391 . S
C214 C215 1.400 . S
C215 C214 1.400 . S
C215 C216 1.398 . S
C215 C221 1.491 . S
C216 H207 0.950 . S
C216 C215 1.398 . S
C216 C217 1.391 . S
C217 H205 0.950 . S
C217 C213 1.393 . S
C217 C216 1.391 . S
C218 H208 0.950 . S
C218 C219 1.386 . S
C218 C220 1.391 . S
C219 C218 1.386 . S
C219 C223 1.393 . S
C220 H209 0.950 . S
C220 C218 1.391 . S
C220 C221 1.400 . S
C221 C215 1.491 . S
C221 C220 1.400 . S
C221 C222 1.398 . S
C222 H210 0.950 . S
C222 C221 1.398 . S
C222 C223 1.391 . S
C223 H211 0.950 . S
C223 C219 1.393 . S
C223 C222 1.391 . S
H224 C232 0.950 . S
H225 C237 0.950 . S
H226 C234 0.950 . S
H227 C236 0.950 . S
H228 C238 0.950 . S
H229 C240 0.950 . S
H230 C242 0.950 . S
H231 C243 0.950 . S
C232 H224 0.950 . S
C232 C233 1.386 . S
C232 C234 1.391 . S
C233 C232 1.386 . S
C233 C237 1.393 . S
C234 H226 0.950 . S
C234 C232 1.391 . S
C234 C235 1.400 . S
C235 C234 1.400 . S
C235 C236 1.398 . S
C235 C241 1.491 . S
C236 H227 0.950 . S
C236 C235 1.398 . S
C236 C237 1.391 . S
C237 H225 0.950 . S
C237 C233 1.393 . S
C237 C236 1.391 . S
C238 H228 0.950 . S
C238 C239 1.386 . S
C238 C240 1.391 . S
C239 C238 1.386 . S
C239 C243 1.393 . S
C240 H229 0.950 . S
C240 C238 1.391 . S
C240 C241 1.400 . S
C241 C235 1.491 . S
C241 C240 1.400 . S
C241 C242 1.398 . S
C242 H230 0.950 . S
C242 C241 1.398 . S
C242 C243 1.391 . S
C243 H231 0.950 . S
C243 C239 1.393 . S
C243 C242 1.391 . S
H244 C252 0.950 . S
H245 C257 0.950 . S
H246 C254 0.950 . S
H247 C256 0.950 . S
H248 C258 0.950 . S
H249 C260 0.950 . S
H250 C262 0.950 . S
H251 C263 0.950 . S
C252 H244 0.950 . S
C252 C253 1.386 . S
C252 C254 1.391 . S
C253 C252 1.386 . S
C253 C257 1.393 . S
C254 H246 0.950 . S
C254 C252 1.391 . S
C254 C255 1.400 . S
C255 C254 1.400 . S
C255 C256 1.398 . S
C255 C261 1.491 . S
C256 H247 0.950 . S
C256 C255 1.398 . S
C256 C257 1.391 . S
C257 H245 0.950 . S
C257 C253 1.393 . S
C257 C256 1.391 . S
C258 H248 0.950 . S
C258 C259 1.386 . S
C258 C260 1.391 . S
C259 C258 1.386 . S
C259 C263 1.393 . S
C260 H249 0.950 . S
C260 C258 1.391 . S
C260 C261 1.400 . S
C261 C255 1.491 . S
C261 C260 1.400 . S
C261 C262 1.398 . S
C262 H250 0.950 . S
C262 C261 1.398 . S
C262 C263 1.391 . S
C263 H251 0.950 . S
C263 C259 1.393 . S
C263 C262 1.391 . S
H264 C272 0.950 . S
H265 C277 0.950 . S
H266 C274 0.950 . S
H267 C276 0.960 . S
H268 C278 0.950 . S
H269 C280 0.950 . S
H270 C282 0.950 . S
H271 C283 0.950 . S
C272 H264 0.950 . S
C272 C273 1.386 . S
C272 C274 1.391 . S
C273 C272 1.386 . S
C273 C277 1.393 . S
C274 H266 0.950 . S
C274 C272 1.391 . S
C274 C275 1.400 . S
C275 C274 1.400 . S
C275 C276 1.398 . S
C275 C281 1.491 . S
C276 H267 0.960 . S
C276 C275 1.398 . S
C276 C277 1.391 . S
C277 H265 0.950 . S
C277 C273 1.393 . S
C277 C276 1.391 . S
C278 H268 0.950 . S
C278 C279 1.386 . S
C278 C280 1.391 . S
C279 C278 1.386 . S
C279 C283 1.393 . S
C280 H269 0.950 . S
C280 C278 1.391 . S
C280 C281 1.400 1_554 S
C281 C275 1.491 . S
C281 C280 1.400 1_556 S
C281 C282 1.398 . S
C282 H270 0.950 . S
C282 C281 1.398 . S
C282 C283 1.391 1_556 S
C283 H271 0.950 . S
C283 C279 1.393 . S
C283 C282 1.391 1_554 S
H284 C292 0.950 . S
H285 C297 0.950 . S
H286 C294 0.957 . S
H287 C296 0.950 . S
H288 C298 0.950 . S
H289 C300 0.950 . S
H290 C302 0.950 . S
H291 C303 0.950 . S
C292 H284 0.950 . S
C292 C293 1.386 . S
C292 C294 1.384 1_556 S
C293 C292 1.386 . S
C293 C297 1.393 . S
C294 H286 0.957 . S
C294 C292 1.384 1_554 S
C294 C295 1.401 . S
C295 C294 1.401 . S
C295 C296 1.398 1_554 S
C295 C301 1.491 . S
C296 H287 0.950 . S
C296 C295 1.398 1_556 S
C296 C297 1.391 . S
C297 H285 0.950 . S
C297 C293 1.393 . S
C297 C296 1.391 . S
C298 H288 0.950 . S
C298 C299 1.386 . S
C298 C300 1.391 . S
C299 C298 1.386 . S
C299 C303 1.393 . S
C300 H289 0.950 . S
C300 C298 1.391 . S
C300 C301 1.400 . S
C301 C295 1.491 . S
C301 C300 1.400 . S
C301 C302 1.398 . S
C302 H290 0.950 . S
C302 C301 1.398 . S
C302 C303 1.391 . S
C303 H291 0.950 . S
C303 C299 1.393 . S
C303 C302 1.391 . S
H304 C312 0.950 . S
H305 C317 0.950 . S
H306 C314 0.950 . S
H307 C316 0.950 . S
H308 C318 0.950 . S
H309 C320 0.950 1_554 S
H310 C322 0.950 . S
H311 C323 0.950 . S
C312 H304 0.950 . S
C312 C313 1.386 . S
C312 C314 1.391 1_554 S
C313 C312 1.386 . S
C313 C317 1.393 . S
C314 H306 0.950 . S
C314 C312 1.391 1_556 S
C314 C315 1.400 . S
C315 C314 1.400 . S
C315 C316 1.398 1_556 S
C315 C321 1.491 . S
C316 H307 0.950 . S
C316 C315 1.398 1_554 S
C316 C317 1.391 . S
C317 H305 0.950 . S
C317 C313 1.393 . S
C317 C316 1.391 . S
C318 H308 0.950 . S
C318 C319 1.386 . S
C318 C320 1.391 . S
C319 C318 1.386 . S
C319 C323 1.393 . S
C320 H309 0.950 1_556 S
C320 C318 1.391 . S
C320 C321 1.400 . S
C321 C315 1.491 . S
C321 C320 1.400 . S
C321 C322 1.398 . S
C322 H310 0.950 . S
C322 C321 1.398 . S
C322 C323 1.391 . S
C323 H311 0.950 . S
C323 C319 1.393 . S
C323 C322 1.391 . S
H324 C332 0.950 . S
H325 C337 0.950 . S
H326 C334 0.950 . S
H327 C336 0.950 . S
H328 C338 0.959 . S
H329 C340 0.950 1_556 S
H330 C342 0.950 . S
H331 C343 0.950 . S
C332 H324 0.950 . S
C332 C333 1.386 . S
C332 C334 1.391 1_556 S
C333 C332 1.386 . S
C333 C337 1.393 . S
C334 H326 0.950 . S
C334 C332 1.391 1_554 S
C334 C335 1.408 . S
C335 C334 1.408 . S
C335 C336 1.364 1_554 S
C335 C341 1.516 . S
C336 H327 0.950 . S
C336 C335 1.364 1_556 S
C336 C337 1.391 . S
C337 H325 0.950 . S
C337 C333 1.393 . S
C337 C336 1.391 . S
C338 H328 0.959 . S
C338 C339 1.386 . S
C338 C340 1.391 . S
C339 C338 1.386 . S
C339 C343 1.393 . S
C340 H329 0.950 1_554 S
C340 C338 1.391 . S
C340 C341 1.400 . S
C341 C335 1.516 . S
C341 C340 1.400 . S
C341 C342 1.398 . S
C342 H330 0.950 . S
C342 C341 1.398 . S
C342 C343 1.391 . S
C343 H331 0.950 . S
C343 C339 1.393 . S
C343 C342 1.391 . S
H344 C352 0.950 . S
H345 C357 0.950 . S
H346 C354 0.950 . S
H347 C356 0.950 . S
H348 C358 0.950 . S
H349 C360 0.950 . S
H350 C362 0.950 . S
H351 C363 0.950 . S
C352 H344 0.950 . S
C352 C353 1.386 . S
C352 C354 1.391 . S
C353 C352 1.386 . S
C353 C357 1.393 . S
C354 H346 0.950 . S
C354 C352 1.391 . S
C354 C355 1.400 . S
C355 C354 1.400 . S
C355 C356 1.398 . S
C355 C361 1.491 . S
C356 H347 0.950 . S
C356 C355 1.398 . S
C356 C357 1.391 . S
C357 H345 0.950 . S
C357 C353 1.393 . S
C357 C356 1.391 . S
C358 H348 0.950 . S
C358 C359 1.386 . S
C358 C360 1.391 . S
C359 C358 1.386 . S
C359 C363 1.393 . S
C360 H349 0.950 . S
C360 C358 1.391 . S
C360 C361 1.400 . S
C361 C355 1.491 . S
C361 C360 1.400 . S
C361 C362 1.398 . S
C362 H350 0.950 . S
C362 C361 1.398 . S
C362 C363 1.391 . S
C363 H351 0.950 . S
C363 C359 1.393 . S
C363 C362 1.391 . S
H364 C372 0.950 . S
H365 C377 0.950 . S
H366 C374 0.950 . S
H367 C376 0.950 . S
H368 C378 0.950 . S
H369 C380 0.950 . S
H370 C382 0.950 . S
H371 C383 0.950 . S
C372 H364 0.950 . S
C372 C373 1.386 . S
C372 C374 1.391 . S
C373 C372 1.386 . S
C373 C377 1.393 . S
C374 H366 0.950 . S
C374 C372 1.391 . S
C374 C375 1.400 . S
C375 C374 1.400 . S
C375 C376 1.398 . S
C375 C381 1.491 . S
C376 H367 0.950 . S
C376 C375 1.398 . S
C376 C377 1.391 . S
C377 H365 0.950 . S
C377 C373 1.393 . S
C377 C376 1.391 . S
C378 H368 0.950 . S
C378 C379 1.386 . S
C378 C380 1.391 . S
C379 C378 1.386 . S
C379 C383 1.393 . S
C380 H369 0.950 . S
C380 C378 1.391 . S
C380 C381 1.400 . S
C381 C375 1.491 . S
C381 C380 1.400 . S
C381 C382 1.398 . S
C382 H370 0.950 . S
C382 C381 1.398 . S
C382 C383 1.391 . S
C383 H371 0.950 . S
C383 C379 1.393 . S
C383 C382 1.391 . S
H384 C392 0.950 . S
H385 C397 0.950 . S
H386 C394 0.950 . S
H387 C396 0.950 . S
H388 C398 0.950 . S
H389 C400 0.950 . S
H390 C402 0.950 . S
H391 C403 0.950 . S
C392 H384 0.950 . S
C392 C393 1.386 . S
C392 C394 1.391 . S
C393 C392 1.386 . S
C393 C397 1.393 . S
C394 H386 0.950 . S
C394 C392 1.391 . S
C394 C395 1.400 . S
C395 C394 1.400 . S
C395 C396 1.398 . S
C395 C401 1.491 . S
C396 H387 0.950 . S
C396 C395 1.398 . S
C396 C397 1.391 . S
C397 H385 0.950 . S
C397 C393 1.393 . S
C397 C396 1.391 . S
C398 H388 0.950 . S
C398 C399 1.386 . S
C398 C400 1.391 . S
C399 C398 1.386 . S
C399 C403 1.393 . S
C400 H389 0.950 . S
C400 C398 1.391 . S
C400 C401 1.400 . S
C401 C395 1.491 . S
C401 C400 1.400 . S
C401 C402 1.398 . S
C402 H390 0.950 . S
C402 C401 1.398 . S
C402 C403 1.391 . S
C403 H391 0.950 . S
C403 C399 1.393 . S
C403 C402 1.391 . S
H404 C412 0.950 . S
H405 C417 0.950 . S
H406 C414 0.950 . S
H407 C416 0.950 . S
H408 C418 0.950 . S
H409 C420 0.950 . S
H410 C422 0.950 . S
H411 C423 0.950 . S
C412 H404 0.950 . S
C412 C413 1.386 . S
C412 C414 1.391 . S
C413 C412 1.386 . S
C413 C417 1.393 . S
C414 H406 0.950 . S
C414 C412 1.391 . S
C414 C415 1.400 . S
C415 C414 1.400 . S
C415 C416 1.398 . S
C415 C421 1.491 . S
C416 H407 0.950 . S
C416 C415 1.398 . S
C416 C417 1.391 . S
C417 H405 0.950 . S
C417 C413 1.393 . S
C417 C416 1.391 . S
C418 H408 0.950 . S
C418 C419 1.386 . S
C418 C420 1.391 . S
C419 C418 1.386 . S
C419 C423 1.393 . S
C420 H409 0.950 . S
C420 C418 1.391 . S
C420 C421 1.400 . S
C421 C415 1.491 . S
C421 C420 1.400 . S
C421 C422 1.398 . S
C422 H410 0.950 . S
C422 C421 1.398 . S
C422 C423 1.391 . S
C423 H411 0.950 . S
C423 C419 1.393 . S
C423 C422 1.391 . S
C113 C26 1.251 . S
C119 C0 1.243 . S
C133 C39 1.268 . S
C139 C13 1.274 . S
C153 C52 1.274 . S
C159 C78 1.275 . S
C173 C65 1.262 . S
C179 C91 1.252 . S
C193 C23 0.831 . S
C199 C5 0.818 . S
C213 C18 0.812 . S
C219 C36 0.833 . S
C233 C49 0.833 . S
C239 C31 0.848 . S
C253 C44 0.848 . S
C259 C10 0.830 . S
C273 C101 0.848 . S
C279 C57 0.786 . S
C293 C70 0.839 . S
C299 C62 0.828 . S
C313 C83 0.785 . S
C319 C75 0.844 . S
C333 C96 0.841 . S
C339 C88 0.838 . S
C353 C8 1.629 . S
C359 C73 1.627 . S
C373 C86 1.619 . S
C379 C21 1.622 . S
C393 C34 1.646 . S
C399 C99 1.646 . S
C413 C47 1.644 . S
C419 C60 1.643 . S
