# Generated by pormake.
# Topology ums, (4)-cn, num edge types: 1
# Building blocks:
#     Node 0, Type 0, BuildingBlock: GALJAG_clean_sbu_0, # of connection points: 4
#     Node 1, Type 0, BuildingBlock: GALJAG_clean_sbu_0, # of connection points: 4
#     Node 2, Type 0, BuildingBlock: GALJAG_clean_sbu_0, # of connection points: 4
#     Node 3, Type 0, BuildingBlock: GALJAG_clean_sbu_0, # of connection points: 4
#     Node 4, Type 0, BuildingBlock: GALJAG_clean_sbu_0, # of connection points: 4
#     Node 5, Type 0, BuildingBlock: GALJAG_clean_sbu_0, # of connection points: 4
#     Node 6, Type 0, BuildingBlock: GALJAG_clean_sbu_0, # of connection points: 4
#     Node 7, Type 0, BuildingBlock: GALJAG_clean_sbu_0, # of connection points: 4
#     Node 8, Type 0, BuildingBlock: GALJAG_clean_sbu_0, # of connection points: 4
#     Node 9, Type 0, BuildingBlock: GALJAG_clean_sbu_0, # of connection points: 4
#     Node 10, Type 0, BuildingBlock: GALJAG_clean_sbu_0, # of connection points: 4
#     Node 11, Type 0, BuildingBlock: GALJAG_clean_sbu_0, # of connection points: 4
#     Node 12, Type 0, BuildingBlock: GALJAG_clean_sbu_0, # of connection points: 4
#     Node 13, Type 0, BuildingBlock: GALJAG_clean_sbu_0, # of connection points: 4
#     Node 14, Type 0, BuildingBlock: GALJAG_clean_sbu_0, # of connection points: 4
#     Node 15, Type 0, BuildingBlock: GALJAG_clean_sbu_0, # of connection points: 4
#     Node 16, Type 0, BuildingBlock: GALJAG_clean_sbu_0, # of connection points: 4
#     Node 17, Type 0, BuildingBlock: GALJAG_clean_sbu_0, # of connection points: 4
#     Node 18, Type 0, BuildingBlock: GALJAG_clean_sbu_0, # of connection points: 4
#     Node 19, Type 0, BuildingBlock: GALJAG_clean_sbu_0, # of connection points: 4
#     Node 20, Type 0, BuildingBlock: GALJAG_clean_sbu_0, # of connection points: 4
#     Node 21, Type 0, BuildingBlock: GALJAG_clean_sbu_0, # of connection points: 4
#     Node 22, Type 0, BuildingBlock: GALJAG_clean_sbu_0, # of connection points: 4
#     Node 23, Type 0, BuildingBlock: GALJAG_clean_sbu_0, # of connection points: 4
#     Node 24, Type 0, BuildingBlock: GALJAG_clean_sbu_0, # of connection points: 4
#     Node 25, Type 0, BuildingBlock: GALJAG_clean_sbu_0, # of connection points: 4
#     Node 26, Type 0, BuildingBlock: GALJAG_clean_sbu_0, # of connection points: 4
#     Node 27, Type 0, BuildingBlock: GALJAG_clean_sbu_0, # of connection points: 4
#     Node 28, Type 0, BuildingBlock: GALJAG_clean_sbu_0, # of connection points: 4
#     Node 29, Type 0, BuildingBlock: GALJAG_clean_sbu_0, # of connection points: 4
#     Node 30, Type 0, BuildingBlock: GALJAG_clean_sbu_0, # of connection points: 4
#     Node 31, Type 0, BuildingBlock: GALJAG_clean_sbu_0, # of connection points: 4
#     Node 32, Type 0, BuildingBlock: GALJAG_clean_sbu_0, # of connection points: 4
#     Node 33, Type 0, BuildingBlock: GALJAG_clean_sbu_0, # of connection points: 4
#     Node 34, Type 0, BuildingBlock: GALJAG_clean_sbu_0, # of connection points: 4
#     Node 35, Type 0, BuildingBlock: GALJAG_clean_sbu_0, # of connection points: 4
#     Edge 36, Type (0, 0), BuildingBlock: EZIPEK_clean_linker_0, # of connection points: 2
#     Edge 37, Type (0, 0), BuildingBlock: EZIPEK_clean_linker_0, # of connection points: 2
#     Edge 38, Type (0, 0), BuildingBlock: EZIPEK_clean_linker_0, # of connection points: 2
#     Edge 39, Type (0, 0), BuildingBlock: EZIPEK_clean_linker_0, # of connection points: 2
#     Edge 40, Type (0, 0), BuildingBlock: EZIPEK_clean_linker_0, # of connection points: 2
#     Edge 41, Type (0, 0), BuildingBlock: EZIPEK_clean_linker_0, # of connection points: 2
#     Edge 42, Type (0, 0), BuildingBlock: EZIPEK_clean_linker_0, # of connection points: 2
#     Edge 43, Type (0, 0), BuildingBlock: EZIPEK_clean_linker_0, # of connection points: 2
#     Edge 44, Type (0, 0), BuildingBlock: EZIPEK_clean_linker_0, # of connection points: 2
#     Edge 45, Type (0, 0), BuildingBlock: EZIPEK_clean_linker_0, # of connection points: 2
#     Edge 46, Type (0, 0), BuildingBlock: EZIPEK_clean_linker_0, # of connection points: 2
#     Edge 47, Type (0, 0), BuildingBlock: EZIPEK_clean_linker_0, # of connection points: 2
#     Edge 48, Type (0, 0), BuildingBlock: EZIPEK_clean_linker_0, # of connection points: 2
#     Edge 49, Type (0, 0), BuildingBlock: EZIPEK_clean_linker_0, # of connection points: 2
#     Edge 50, Type (0, 0), BuildingBlock: EZIPEK_clean_linker_0, # of connection points: 2
#     Edge 51, Type (0, 0), BuildingBlock: EZIPEK_clean_linker_0, # of connection points: 2
#     Edge 52, Type (0, 0), BuildingBlock: EZIPEK_clean_linker_0, # of connection points: 2
#     Edge 53, Type (0, 0), BuildingBlock: EZIPEK_clean_linker_0, # of connection points: 2
#     Edge 54, Type (0, 0), BuildingBlock: EZIPEK_clean_linker_0, # of connection points: 2
#     Edge 55, Type (0, 0), BuildingBlock: EZIPEK_clean_linker_0, # of connection points: 2
#     Edge 56, Type (0, 0), BuildingBlock: EZIPEK_clean_linker_0, # of connection points: 2
#     Edge 57, Type (0, 0), BuildingBlock: EZIPEK_clean_linker_0, # of connection points: 2
#     Edge 58, Type (0, 0), BuildingBlock: EZIPEK_clean_linker_0, # of connection points: 2
#     Edge 59, Type (0, 0), BuildingBlock: EZIPEK_clean_linker_0, # of connection points: 2
#     Edge 60, Type (0, 0), BuildingBlock: EZIPEK_clean_linker_0, # of connection points: 2
#     Edge 61, Type (0, 0), BuildingBlock: EZIPEK_clean_linker_0, # of connection points: 2
#     Edge 62, Type (0, 0), BuildingBlock: EZIPEK_clean_linker_0, # of connection points: 2
#     Edge 63, Type (0, 0), BuildingBlock: EZIPEK_clean_linker_0, # of connection points: 2
#     Edge 64, Type (0, 0), BuildingBlock: EZIPEK_clean_linker_0, # of connection points: 2
#     Edge 65, Type (0, 0), BuildingBlock: EZIPEK_clean_linker_0, # of connection points: 2
#     Edge 66, Type (0, 0), BuildingBlock: EZIPEK_clean_linker_0, # of connection points: 2
#     Edge 67, Type (0, 0), BuildingBlock: EZIPEK_clean_linker_0, # of connection points: 2
#     Edge 68, Type (0, 0), BuildingBlock: EZIPEK_clean_linker_0, # of connection points: 2
#     Edge 69, Type (0, 0), BuildingBlock: EZIPEK_clean_linker_0, # of connection points: 2
#     Edge 70, Type (0, 0), BuildingBlock: EZIPEK_clean_linker_0, # of connection points: 2
#     Edge 71, Type (0, 0), BuildingBlock: EZIPEK_clean_linker_0, # of connection points: 2
#     Edge 72, Type (0, 0), BuildingBlock: EZIPEK_clean_linker_0, # of connection points: 2
#     Edge 73, Type (0, 0), BuildingBlock: EZIPEK_clean_linker_0, # of connection points: 2
#     Edge 74, Type (0, 0), BuildingBlock: EZIPEK_clean_linker_0, # of connection points: 2
#     Edge 75, Type (0, 0), BuildingBlock: EZIPEK_clean_linker_0, # of connection points: 2
#     Edge 76, Type (0, 0), BuildingBlock: EZIPEK_clean_linker_0, # of connection points: 2
#     Edge 77, Type (0, 0), BuildingBlock: EZIPEK_clean_linker_0, # of connection points: 2
#     Edge 78, Type (0, 0), BuildingBlock: EZIPEK_clean_linker_0, # of connection points: 2
#     Edge 79, Type (0, 0), BuildingBlock: EZIPEK_clean_linker_0, # of connection points: 2
#     Edge 80, Type (0, 0), BuildingBlock: EZIPEK_clean_linker_0, # of connection points: 2
#     Edge 81, Type (0, 0), BuildingBlock: EZIPEK_clean_linker_0, # of connection points: 2
#     Edge 82, Type (0, 0), BuildingBlock: EZIPEK_clean_linker_0, # of connection points: 2
#     Edge 83, Type (0, 0), BuildingBlock: EZIPEK_clean_linker_0, # of connection points: 2
#     Edge 84, Type (0, 0), BuildingBlock: EZIPEK_clean_linker_0, # of connection points: 2
#     Edge 85, Type (0, 0), BuildingBlock: EZIPEK_clean_linker_0, # of connection points: 2
#     Edge 86, Type (0, 0), BuildingBlock: EZIPEK_clean_linker_0, # of connection points: 2
#     Edge 87, Type (0, 0), BuildingBlock: EZIPEK_clean_linker_0, # of connection points: 2
#     Edge 88, Type (0, 0), BuildingBlock: EZIPEK_clean_linker_0, # of connection points: 2
#     Edge 89, Type (0, 0), BuildingBlock: EZIPEK_clean_linker_0, # of connection points: 2
#     Edge 90, Type (0, 0), BuildingBlock: EZIPEK_clean_linker_0, # of connection points: 2
#     Edge 91, Type (0, 0), BuildingBlock: EZIPEK_clean_linker_0, # of connection points: 2
#     Edge 92, Type (0, 0), BuildingBlock: EZIPEK_clean_linker_0, # of connection points: 2
#     Edge 93, Type (0, 0), BuildingBlock: EZIPEK_clean_linker_0, # of connection points: 2
#     Edge 94, Type (0, 0), BuildingBlock: EZIPEK_clean_linker_0, # of connection points: 2
#     Edge 95, Type (0, 0), BuildingBlock: EZIPEK_clean_linker_0, # of connection points: 2
#     Edge 96, Type (0, 0), BuildingBlock: EZIPEK_clean_linker_0, # of connection points: 2
#     Edge 97, Type (0, 0), BuildingBlock: EZIPEK_clean_linker_0, # of connection points: 2
#     Edge 98, Type (0, 0), BuildingBlock: EZIPEK_clean_linker_0, # of connection points: 2
#     Edge 99, Type (0, 0), BuildingBlock: EZIPEK_clean_linker_0, # of connection points: 2
#     Edge 100, Type (0, 0), BuildingBlock: EZIPEK_clean_linker_0, # of connection points: 2
#     Edge 101, Type (0, 0), BuildingBlock: EZIPEK_clean_linker_0, # of connection points: 2
#     Edge 102, Type (0, 0), BuildingBlock: EZIPEK_clean_linker_0, # of connection points: 2
#     Edge 103, Type (0, 0), BuildingBlock: EZIPEK_clean_linker_0, # of connection points: 2
#     Edge 104, Type (0, 0), BuildingBlock: EZIPEK_clean_linker_0, # of connection points: 2
#     Edge 105, Type (0, 0), BuildingBlock: EZIPEK_clean_linker_0, # of connection points: 2
#     Edge 106, Type (0, 0), BuildingBlock: EZIPEK_clean_linker_0, # of connection points: 2
#     Edge 107, Type (0, 0), BuildingBlock: EZIPEK_clean_linker_0, # of connection points: 2
# Relax obj value: 0.176
# Max RMSD: 0.175
# Mean RMSD: 0.174
data_MOF--net-ums--node1-GALJAG_clean_sbu_0--edge1-EZIPEK_clean_linker_0
_symmetry_space_group_name_H-M    P1
_symmetry_Int_Tables_number       1
_symmetry_cell_setting            triclinic
loop_
_symmetry_equiv_pos_as_xyz
'x, y, z'
_cell_length_a     71.063649
_cell_length_b     71.050226
_cell_length_c     19.103056
_cell_angle_alpha  90.04024
_cell_angle_beta   89.969954
_cell_angle_gamma 119.9857
loop_
_atom_site_label
_atom_site_type_symbol
_atom_site_fract_x
_atom_site_fract_y
_atom_site_fract_z
_atom_type_partial_charge
In0 In 0.16413 0.24864 0.14459 0.0
O1 O 0.16875 0.21943 0.15745 0.0
O2 O 0.19275 0.24966 0.20093 0.0
C3 C 0.14411 0.23687 0.01985 0.0
C4 C 0.13884 0.24071 0.25763 0.0
C5 C 0.18845 0.29081 0.11064 0.0
O6 O 0.1612 0.23628 0.03277 0.0
O7 O 0.1364 0.24209 0.07082 0.0
O8 O 0.17077 0.28333 0.14358 0.0
O9 O 0.19429 0.27714 0.09629 0.0
C10 C 0.18612 0.22973 0.19193 0.0
O11 O 0.15643 0.25827 0.24886 0.0
O12 O 0.13354 0.22704 0.20861 0.0
In13 In 0.75321 0.91477 0.13812 0.0
O14 O 0.74337 0.89843 0.24403 0.0
O15 O 0.7724 0.90205 0.19871 0.0
C16 C 0.7114 0.90005 0.10532 0.0
C17 C 0.77486 0.95571 0.18621 0.0
C18 C 0.76389 0.90625 0.01176 0.0
O19 O 0.71776 0.88835 0.1347 0.0
O20 O 0.72599 0.91939 0.09329 0.0
O21 O 0.76767 0.92499 0.02853 0.0
O22 O 0.75597 0.89222 0.05968 0.0
C23 C 0.75942 0.89556 0.24989 0.0
O24 O 0.78421 0.94725 0.1534 0.0
O25 O 0.75463 0.94372 0.19374 0.0
In26 In 0.08404 0.83509 0.15039 0.0
O27 O 0.04895 0.82742 0.14173 0.0
O28 O 0.05727 0.81294 0.22492 0.0
C29 C 0.09409 0.85419 0.02375 0.0
C30 C 0.10166 0.86299 0.25726 0.0
C31 C 0.09855 0.80705 0.1301 0.0
O32 O 0.07907 0.83488 0.03255 0.0
O33 O 0.10353 0.86421 0.07882 0.0
O34 O 0.11105 0.82681 0.14468 0.0
O35 O 0.07862 0.80114 0.12839 0.0
C36 C 0.04278 0.81535 0.19518 0.0
O37 O 0.10594 0.84805 0.24545 0.0
O38 O 0.08899 0.8644 0.21406 0.0
In39 In 0.24163 0.15906 0.36005 0.0
O40 O 0.25156 0.14475 0.27117 0.0
O41 O 0.21794 0.13416 0.28072 0.0
C42 C 0.28307 0.18664 0.39591 0.0
C43 C 0.22608 0.18397 0.3117 0.0
C44 C 0.2288 0.13615 0.48025 0.0
O45 O 0.27785 0.17221 0.3497 0.0
O46 O 0.26746 0.18775 0.42304 0.0
O47 O 0.2233 0.1499 0.46409 0.0
O48 O 0.23937 0.1328 0.43377 0.0
C49 C 0.23277 0.13359 0.24606 0.0
O50 O 0.21532 0.16818 0.35238 0.0
O51 O 0.24488 0.18759 0.29659 0.0
In52 In 0.84019 0.08442 0.33954 0.0
O53 O 0.84925 0.1045 0.24042 0.0
O54 O 0.86873 0.09068 0.26753 0.0
C55 C 0.80937 0.09394 0.37604 0.0
C56 C 0.81897 0.04269 0.29846 0.0
C57 C 0.86407 0.0998 0.45732 0.0
O58 O 0.82438 0.10518 0.33342 0.0
O59 O 0.80926 0.07722 0.39896 0.0
O60 O 0.85452 0.07992 0.44136 0.0
O61 O 0.86279 0.11194 0.4119 0.0
C62 C 0.86483 0.10168 0.22411 0.0
O63 O 0.83364 0.04957 0.34455 0.0
O64 O 0.8147 0.05663 0.27427 0.0
In65 In 0.91394 0.75628 0.349 0.0
O66 O 0.89652 0.74913 0.24522 0.0
O67 O 0.90569 0.77973 0.29262 0.0
C68 C 0.89656 0.71353 0.37553 0.0
C69 C 0.9554 0.77552 0.3047 0.0
C70 C 0.90357 0.7656 0.47473 0.0
O71 O 0.88752 0.72101 0.3367 0.0
O72 O 0.91486 0.72753 0.39901 0.0
O73 O 0.92121 0.7659 0.46375 0.0
O74 O 0.89156 0.76161 0.42179 0.0
C75 C 0.89696 0.76705 0.2413 0.0
O76 O 0.94905 0.78415 0.34959 0.0
O77 O 0.94097 0.75715 0.28314 0.0
In78 In 0.84034 0.75793 0.85415 0.0
O79 O 0.83771 0.78828 0.83873 0.0
O80 O 0.81285 0.75845 0.79539 0.0
C81 C 0.85995 0.76975 0.97976 0.0
C82 C 0.86538 0.76391 0.74141 0.0
C83 C 0.81331 0.71644 0.89072 0.0
O84 O 0.84532 0.77387 0.96164 0.0
O85 O 0.86562 0.76101 0.9332 0.0
O86 O 0.83152 0.72261 0.86259 0.0
O87 O 0.8084 0.73105 0.89976 0.0
C88 C 0.82038 0.77857 0.80368 0.0
O89 O 0.84704 0.74725 0.74998 0.0
O90 O 0.87165 0.77756 0.79072 0.0
In91 In 0.23544 0.07984 0.85763 0.0
O92 O 0.24643 0.1062 0.77486 0.0
O93 O 0.21294 0.08186 0.77649 0.0
C94 C 0.27786 0.09425 0.88152 0.0
C95 C 0.21476 0.03766 0.821 0.0
C96 C 0.22606 0.09391 0.97636 0.0
O97 O 0.27074 0.09526 0.82201 0.0
O98 O 0.26354 0.08501 0.92798 0.0
O99 O 0.22709 0.07672 0.97379 0.0
O100 O 0.22824 0.10319 0.9182 0.0
C101 C 0.22797 0.09841 0.74676 0.0
O102 O 0.20562 0.0458 0.85632 0.0
O103 O 0.23444 0.05041 0.80675 0.0
In104 In 0.9182 0.16261 0.84151 0.0
O105 O 0.95274 0.16836 0.85174 0.0
O106 O 0.94707 0.18794 0.78011 0.0
C107 C 0.90584 0.13884 0.9598 0.0
C108 C 0.90117 0.14044 0.72223 0.0
C109 C 0.90126 0.18767 0.87723 0.0
O110 O 0.9193 0.15893 0.95959 0.0
O111 O 0.8998 0.1304 0.89997 0.0
O112 O 0.88989 0.16857 0.8542 0.0
O113 O 0.92141 0.19455 0.88041 0.0
C114 C 0.96042 0.18319 0.80625 0.0
O115 O 0.90007 0.15706 0.73858 0.0
O116 O 0.91049 0.13465 0.76641 0.0
In117 In 0.754 0.83965 0.6405 0.0
O118 O 0.74466 0.84854 0.74368 0.0
O119 O 0.77517 0.87144 0.69952 0.0
C120 C 0.71152 0.81216 0.61718 0.0
C121 C 0.77644 0.82084 0.6859 0.0
C122 C 0.76279 0.85788 0.51244 0.0
O123 O 0.71906 0.83207 0.6301 0.0
O124 O 0.72526 0.80588 0.61785 0.0
O125 O 0.7601 0.83917 0.52322 0.0
O126 O 0.76203 0.86772 0.56629 0.0
C127 C 0.76195 0.86656 0.74959 0.0
O128 O 0.78411 0.83579 0.64064 0.0
O129 O 0.75757 0.81526 0.70688 0.0
In130 In 0.15656 0.91199 0.64503 0.0
O131 O 0.15491 0.94187 0.67807 0.0
O132 O 0.18543 0.94311 0.68527 0.0
C133 C 0.13687 0.90382 0.51948 0.0
C134 C 0.13306 0.89228 0.7592 0.0
C135 C 0.18338 0.89691 0.61374 0.0
O136 O 0.15154 0.92263 0.53684 0.0
O137 O 0.13125 0.88964 0.56666 0.0
O138 O 0.16583 0.88577 0.64649 0.0
O139 O 0.18774 0.91586 0.59727 0.0
C140 C 0.17464 0.95255 0.69569 0.0
O141 O 0.15281 0.89772 0.75314 0.0
O142 O 0.12482 0.89639 0.70698 0.0
In143 In 0.08833 0.24669 0.64707 0.0
O144 O 0.05523 0.2164 0.6609 0.0
O145 O 0.05967 0.24624 0.70178 0.0
C146 C 0.09876 0.23705 0.52191 0.0
C147 C 0.10651 0.23864 0.75721 0.0
C148 C 0.10485 0.28907 0.61783 0.0
O149 O 0.08068 0.23579 0.53322 0.0
O150 O 0.11111 0.24204 0.57433 0.0
O151 O 0.11398 0.28216 0.65874 0.0
O152 O 0.08679 0.27466 0.59378 0.0
C153 C 0.04722 0.22609 0.69403 0.0
O154 O 0.10632 0.25617 0.74998 0.0
O155 O 0.0979 0.22506 0.70808 0.0
In156 In 0.82631 0.58071 0.48972 0.0
O157 O 0.8197 0.58999 0.59608 0.0
O158 O 0.79461 0.56064 0.5511 0.0
C159 C 0.85181 0.62313 0.45917 0.0
C160 C 0.84715 0.55992 0.53194 0.0
C161 C 0.80564 0.57083 0.36551 0.0
O162 O 0.83698 0.61633 0.5046 0.0
O163 O 0.8545 0.60858 0.43097 0.0
O164 O 0.82153 0.56806 0.37757 0.0
O165 O 0.79934 0.57735 0.41708 0.0
C166 C 0.80098 0.57367 0.60225 0.0
O167 O 0.82889 0.5502 0.50223 0.0
O168 O 0.85513 0.58012 0.53927 0.0
In169 In 0.41513 0.24339 0.49894 0.0
O170 O 0.44452 0.27756 0.48937 0.0
O171 O 0.41931 0.27237 0.56086 0.0
C172 C 0.42358 0.22872 0.37968 0.0
C173 C 0.42138 0.22675 0.61677 0.0
C174 C 0.37316 0.22973 0.47293 0.0
O175 O 0.41928 0.2439 0.3805 0.0
O176 O 0.42515 0.22197 0.43918 0.0
O177 O 0.37953 0.21743 0.49772 0.0
O178 O 0.38784 0.24916 0.46279 0.0
C179 C 0.43757 0.28545 0.53503 0.0
O180 O 0.40297 0.22345 0.59784 0.0
O181 O 0.43681 0.23814 0.5754 0.0
In182 In 0.74836 0.16472 0.4819 0.0
O183 O 0.76079 0.1705 0.59369 0.0
O184 O 0.76377 0.19769 0.53702 0.0
C185 C 0.76218 0.13651 0.45561 0.0
C186 C 0.70725 0.14677 0.52642 0.0
C187 C 0.75823 0.18394 0.35531 0.0
O188 O 0.77325 0.15373 0.49027 0.0
O189 O 0.74374 0.13304 0.4361 0.0
O190 O 0.73882 0.17173 0.37442 0.0
O191 O 0.77233 0.18712 0.40088 0.0
C192 C 0.76668 0.19043 0.59372 0.0
O193 O 0.71758 0.16596 0.50348 0.0
O194 O 0.71732 0.13635 0.52435 0.0
In195 In 0.90823 0.49138 0.67512 0.0
O196 O 0.88 0.49796 0.67466 0.0
O197 O 0.90865 0.51969 0.61821 0.0
C198 C 0.89803 0.46869 0.79572 0.0
C199 C 0.89964 0.46747 0.55788 0.0
C200 C 0.95066 0.51688 0.70455 0.0
O201 O 0.89799 0.48631 0.7897 0.0
O202 O 0.90171 0.46164 0.73986 0.0
O203 O 0.94353 0.50066 0.66448 0.0
O204 O 0.93647 0.52098 0.72788 0.0
C205 C 0.88957 0.5145 0.63602 0.0
O206 O 0.91859 0.48103 0.57771 0.0
O207 O 0.88465 0.46527 0.59861 0.0
In208 In 0.50359 0.41563 0.67582 0.0
O209 O 0.50815 0.43247 0.57108 0.0
O210 O 0.53246 0.42507 0.60307 0.0
C211 C 0.48007 0.43419 0.71266 0.0
C212 C 0.48211 0.37351 0.63794 0.0
C213 C 0.52749 0.42754 0.79418 0.0
O214 O 0.49791 0.44435 0.68031 0.0
O215 O 0.47372 0.41444 0.72485 0.0
O216 O 0.50721 0.41496 0.79427 0.0
O217 O 0.53592 0.4328 0.73417 0.0
C218 C 0.52572 0.43296 0.55685 0.0
O219 O 0.49921 0.38152 0.67414 0.0
O220 O 0.47542 0.38643 0.62325 0.0
In221 In 0.57894 0.08483 0.67521 0.0
O222 O 0.56126 0.07313 0.57165 0.0
O223 O 0.57145 0.10572 0.60261 0.0
C224 C 0.56355 0.04286 0.7069 0.0
C225 C 0.62095 0.10687 0.6397 0.0
C226 C 0.56579 0.09476 0.7946 0.0
O227 O 0.55156 0.04989 0.68425 0.0
O228 O 0.58344 0.05682 0.71241 0.0
O229 O 0.5809 0.09035 0.79304 0.0
O230 O 0.55839 0.09571 0.73553 0.0
C231 C 0.56233 0.09095 0.5572 0.0
O232 O 0.61317 0.11407 0.68476 0.0
O233 O 0.60782 0.08863 0.61397 0.0
In234 In 0.50016 0.08147 0.17581 0.0
O235 O 0.49309 0.10931 0.17234 0.0
O236 O 0.47187 0.08038 0.11639 0.0
C237 C 0.52451 0.09235 0.29284 0.0
C238 C 0.52494 0.08899 0.06094 0.0
C239 C 0.47102 0.0409 0.21524 0.0
O240 O 0.51295 0.10062 0.27758 0.0
O241 O 0.52497 0.07984 0.24696 0.0
O242 O 0.48402 0.04492 0.16512 0.0
O243 O 0.47197 0.05733 0.24421 0.0
C244 C 0.47672 0.09945 0.13313 0.0
O245 O 0.51164 0.07022 0.0826 0.0
O246 O 0.52657 0.10428 0.09883 0.0
In247 In 0.90525 0.41225 0.17585 0.0
O248 O 0.91809 0.43115 0.07492 0.0
O249 O 0.88491 0.41983 0.1011 0.0
C250 C 0.94664 0.42721 0.21388 0.0
C251 C 0.88502 0.37061 0.13323 0.0
C252 C 0.89465 0.4263 0.29249 0.0
O253 O 0.94133 0.43694 0.16975 0.0
O254 O 0.93124 0.4097 0.2377 0.0
O255 O 0.89624 0.40941 0.29177 0.0
O256 O 0.89668 0.43503 0.23351 0.0
C257 C 0.90026 0.42974 0.05803 0.0
O258 O 0.87499 0.37892 0.16259 0.0
O259 O 0.90523 0.38301 0.12789 0.0
In260 In 0.5797 0.49343 0.17223 0.0
O261 O 0.61456 0.50004 0.17532 0.0
O262 O 0.60763 0.52043 0.1118 0.0
C263 C 0.56623 0.47104 0.29297 0.0
C264 C 0.56441 0.46837 0.05759 0.0
C265 C 0.56449 0.5204 0.20208 0.0
O266 O 0.58458 0.48786 0.28652 0.0
O267 O 0.55504 0.46473 0.23775 0.0
O268 O 0.55492 0.5045 0.16086 0.0
O269 O 0.58224 0.52327 0.22626 0.0
C270 C 0.62159 0.51576 0.13302 0.0
O271 O 0.56171 0.48432 0.06949 0.0
O272 O 0.57454 0.46451 0.1046 0.0
In273 In 0.41038 0.16349 0.99662 0.0
O274 O 0.39838 0.17175 0.09564 0.0
O275 O 0.43245 0.18906 0.07609 0.0
C276 C 0.36819 0.13876 0.96319 0.0
C277 C 0.43011 0.14106 0.03176 0.0
C278 C 0.42246 0.18805 0.88006 0.0
O279 O 0.37593 0.15742 0.99005 0.0
O280 O 0.3816 0.13221 0.95475 0.0
O281 O 0.41561 0.16793 0.87887 0.0
O282 O 0.42468 0.1961 0.94035 0.0
C283 C 0.41704 0.18591 0.11629 0.0
O284 O 0.43839 0.15663 0.98888 0.0
O285 O 0.41167 0.13635 0.05498 0.0
In286 In 0.82352 0.24169 0.98215 0.0
O287 O 0.82518 0.27449 0.99003 0.0
O288 O 0.8517 0.27195 0.03094 0.0
C289 C 0.80298 0.23057 0.85771 0.0
C290 C 0.79572 0.22092 0.08828 0.0
C291 C 0.85394 0.23014 0.96225 0.0
O292 O 0.81787 0.24965 0.87118 0.0
O293 O 0.79752 0.21742 0.90822 0.0
O294 O 0.84663 0.23044 0.0222 0.0
O295 O 0.84691 0.23686 0.91351 0.0
C296 C 0.84322 0.28363 0.02112 0.0
O297 O 0.8062 0.21327 0.0582 0.0
O298 O 0.79835 0.23843 0.06288 0.0
In299 In 0.75177 0.58351 0.99052 0.0
O300 O 0.71659 0.55635 0.97951 0.0
O301 O 0.72453 0.57894 0.06306 0.0
C302 C 0.76102 0.57327 0.86422 0.0
C303 C 0.76937 0.57468 0.10115 0.0
C304 C 0.76759 0.62623 0.96756 0.0
O305 O 0.74564 0.57704 0.87356 0.0
O306 O 0.77105 0.57354 0.919 0.0
O307 O 0.77958 0.61801 0.9752 0.0
O308 O 0.7475 0.61306 0.97327 0.0
C309 C 0.71012 0.56223 0.0323 0.0
O310 O 0.77284 0.5935 0.08758 0.0
O311 O 0.75753 0.56016 0.05767 0.0
In312 In 0.48937 0.91119 0.818 0.0
O313 O 0.4962 0.88306 0.8154 0.0
O314 O 0.5139 0.90895 0.88751 0.0
C315 C 0.46852 0.89972 0.69426 0.0
C316 C 0.46463 0.90441 0.93217 0.0
C317 C 0.51733 0.95313 0.78754 0.0
O318 O 0.48682 0.90128 0.70342 0.0
O319 O 0.46011 0.90259 0.74839 0.0
O320 O 0.49745 0.94599 0.79949 0.0
O321 O 0.52337 0.93925 0.79244 0.0
C322 C 0.51027 0.89091 0.8635 0.0
O323 O 0.47931 0.92301 0.91309 0.0
O324 O 0.46177 0.88902 0.8923 0.0
In325 In 0.08324 0.5751 0.81626 0.0
O326 O 0.08571 0.60669 0.8527 0.0
O327 O 0.1151 0.60582 0.84159 0.0
C328 C 0.09332 0.56413 0.69292 0.0
C329 C 0.08815 0.55585 0.92986 0.0
C330 C 0.04095 0.5598 0.78756 0.0
O331 O 0.09859 0.58348 0.70749 0.0
O332 O 0.08412 0.55061 0.74169 0.0
O333 O 0.04734 0.55253 0.83663 0.0
O334 O 0.0559 0.57547 0.75426 0.0
C335 C 0.10608 0.61653 0.85882 0.0
O336 O 0.07443 0.56212 0.92622 0.0
O337 O 0.09949 0.55899 0.87551 0.0
In338 In 0.42386 0.50938 0.83501 0.0
O339 O 0.4484 0.52426 0.92314 0.0
O340 O 0.42601 0.53563 0.90949 0.0
C341 C 0.4372 0.48072 0.80678 0.0
C342 C 0.38189 0.48759 0.87359 0.0
C343 C 0.43798 0.53267 0.71605 0.0
O344 O 0.44123 0.49083 0.86408 0.0
O345 O 0.42535 0.48403 0.76543 0.0
O346 O 0.41905 0.51671 0.72245 0.0
O347 O 0.44957 0.53756 0.77038 0.0
C348 C 0.44136 0.53635 0.94478 0.0
O349 O 0.38946 0.50396 0.83408 0.0
O350 O 0.39523 0.48177 0.89214 0.0
In351 In 0.57753 0.82955 0.01862 0.0
O352 O 0.54965 0.83668 0.02706 0.0
O353 O 0.57313 0.85232 0.94647 0.0
C354 C 0.56896 0.81306 0.14901 0.0
C355 C 0.56739 0.80185 0.91073 0.0
C356 C 0.62053 0.85591 0.03672 0.0
O357 O 0.57254 0.83194 0.13539 0.0
O358 O 0.56855 0.80205 0.09656 0.0
O359 O 0.61181 0.83553 0.03247 0.0
O360 O 0.60768 0.8632 0.02994 0.0
C361 C 0.55587 0.84934 0.97508 0.0
O362 O 0.58603 0.81811 0.91916 0.0
O363 O 0.55382 0.7988 0.95832 0.0
In364 In 0.16742 0.74365 0.02153 0.0
O365 O 0.17246 0.76005 0.91631 0.0
O366 O 0.19793 0.75528 0.95518 0.0
C367 C 0.14145 0.75967 0.05444 0.0
C368 C 0.14836 0.70212 0.9793 0.0
C369 C 0.18956 0.75622 0.14245 0.0
O370 O 0.1588 0.77043 0.02025 0.0
O371 O 0.1368 0.74063 0.07084 0.0
O372 O 0.17044 0.74038 0.13914 0.0
O373 O 0.198 0.76457 0.08434 0.0
C374 C 0.19102 0.76223 0.9065 0.0
O375 O 0.16566 0.71073 0.01463 0.0
O376 O 0.1404 0.71413 0.96729 0.0
In377 In 0.2509 0.42411 0.00431 0.0
O378 O 0.24439 0.42078 0.88755 0.0
O379 O 0.23159 0.43728 0.94679 0.0
C380 C 0.23344 0.38128 0.0299 0.0
C381 C 0.2934 0.44439 0.97315 0.0
C382 C 0.24105 0.43722 0.12419 0.0
O383 O 0.22974 0.38846 0.97444 0.0
O384 O 0.2465 0.39565 0.07147 0.0
O385 O 0.26042 0.44485 0.10382 0.0
O386 O 0.22678 0.42415 0.08225 0.0
C387 C 0.23375 0.4306 0.88767 0.0
O388 O 0.28255 0.45402 0.9728 0.0
O389 O 0.28308 0.42477 0.99205 0.0
In390 In 0.17517 0.42139 0.49844 0.0
O391 O 0.16552 0.44747 0.5026 0.0
O392 O 0.14722 0.42017 0.43669 0.0
C393 C 0.19689 0.43129 0.62047 0.0
C394 C 0.20252 0.43382 0.38845 0.0
C395 C 0.14964 0.37905 0.52985 0.0
O396 O 0.1841 0.43813 0.60491 0.0
O397 O 0.19975 0.42061 0.57301 0.0
O398 O 0.16408 0.38568 0.48309 0.0
O399 O 0.1474 0.39372 0.55919 0.0
C400 C 0.15026 0.43816 0.45905 0.0
O401 O 0.18551 0.41557 0.39228 0.0
O402 O 0.20626 0.44606 0.44074 0.0
In403 In 0.57952 0.75753 0.52247 0.0
O404 O 0.5895 0.7767 0.42172 0.0
O405 O 0.55904 0.76954 0.46549 0.0
C406 C 0.62111 0.76941 0.54904 0.0
C407 C 0.56077 0.71621 0.47722 0.0
C408 C 0.5665 0.76664 0.64384 0.0
O409 O 0.61548 0.78249 0.52631 0.0
O410 O 0.60593 0.75012 0.55727 0.0
O411 O 0.5539 0.75024 0.60774 0.0
O412 O 0.58504 0.77852 0.61797 0.0
C413 C 0.57251 0.77799 0.41598 0.0
O414 O 0.56263 0.72095 0.54147 0.0
O415 O 0.56836 0.73221 0.4362 0.0
In416 In 0.24199 0.82254 0.52134 0.0
O417 O 0.21904 0.81082 0.42927 0.0
O418 O 0.23809 0.79573 0.44627 0.0
C419 C 0.22744 0.85036 0.54452 0.0
C420 C 0.28323 0.84322 0.47679 0.0
C421 C 0.23199 0.80221 0.64581 0.0
O422 O 0.21494 0.83046 0.53207 0.0
O423 O 0.24743 0.85649 0.54395 0.0
O424 O 0.24713 0.82154 0.63848 0.0
O425 O 0.22268 0.79266 0.58995 0.0
C426 C 0.22437 0.79728 0.40846 0.0
O427 O 0.27707 0.82986 0.52698 0.0
O428 O 0.26877 0.84638 0.45058 0.0
In429 In 0.0791 0.49712 0.31874 0.0
O430 O 0.06962 0.50863 0.41617 0.0
O431 O 0.10297 0.52588 0.3857 0.0
C432 C 0.03636 0.4706 0.29695 0.0
C433 C 0.1006 0.47679 0.35826 0.0
C434 C 0.08864 0.51682 0.19295 0.0
O435 O 0.04441 0.49048 0.31126 0.0
O436 O 0.04967 0.46374 0.2964 0.0
O437 O 0.08306 0.4971 0.20058 0.0
O438 O 0.09029 0.52696 0.24887 0.0
C439 C 0.08866 0.52367 0.4293 0.0
O440 O 0.10638 0.48941 0.30626 0.0
O441 O 0.08372 0.47401 0.38916 0.0
In442 In 0.49941 0.58672 0.3311 0.0
O443 O 0.50015 0.61856 0.35174 0.0
O444 O 0.52951 0.6178 0.36568 0.0
C445 C 0.47734 0.57625 0.20969 0.0
C446 C 0.47665 0.56945 0.4491 0.0
C447 C 0.52404 0.56914 0.29653 0.0
O448 O 0.49155 0.59554 0.22434 0.0
O449 O 0.47318 0.56265 0.25806 0.0
O450 O 0.51028 0.56192 0.34535 0.0
O451 O 0.52626 0.58601 0.26705 0.0
C452 C 0.51988 0.62862 0.36953 0.0
O453 O 0.49677 0.57647 0.44418 0.0
O454 O 0.46765 0.57091 0.39395 0.0
In455 In 0.41157 0.90885 0.32066 0.0
O456 O 0.37656 0.88087 0.31218 0.0
O457 O 0.38435 0.90461 0.39189 0.0
C458 C 0.42372 0.89956 0.19781 0.0
C459 C 0.42997 0.90167 0.43212 0.0
C460 C 0.42626 0.95116 0.296 0.0
O461 O 0.40962 0.90531 0.20166 0.0
O462 O 0.43061 0.8971 0.25592 0.0
O463 O 0.4385 0.9441 0.31595 0.0
O464 O 0.40644 0.93701 0.29018 0.0
C465 C 0.3701 0.88731 0.36361 0.0
O466 O 0.43232 0.92008 0.41805 0.0
O467 O 0.41871 0.88677 0.38891 0.0
C468 C 0.21295 0.19537 0.20764 0.0
C469 C 0.21679 0.19651 0.2808 0.0
C470 C 0.19957 0.21864 0.29615 0.0
C471 C 0.19733 0.21895 0.22237 0.0
N472 N 0.20544 0.21122 0.10685 0.0
N473 N 0.21741 0.2121 0.39348 0.0
C474 C 0.20505 0.20835 0.17772 0.0
C475 C 0.21116 0.20899 0.32479 0.0
N476 N 0.21588 0.18113 0.16723 0.0
N477 N 0.18977 0.22662 0.33902 0.0
H478 H 0.22597 0.20528 0.41625 0.0
H479 H 0.21584 0.22296 0.42624 0.0
H480 H 0.18097 0.23372 0.32037 0.0
H481 H 0.18873 0.22454 0.39312 0.0
H482 H 0.21111 0.1779 0.11503 0.0
H483 H 0.22127 0.17102 0.18737 0.0
H484 H 0.213 0.20576 0.07219 0.0
H485 H 0.19997 0.22082 0.08303 0.0
C486 C 0.81154 0.01686 0.19978 0.0
C487 C 0.80852 0.02029 0.27106 0.0
C488 C 0.78603 0.98104 0.28857 0.0
C489 C 0.78681 0.97789 0.21546 0.0
N490 N 0.79756 0.99297 0.09941 0.0
N491 N 0.79082 0.00616 0.38197 0.0
C492 C 0.79888 0.99584 0.1704 0.0
C493 C 0.79525 0.00252 0.31529 0.0
N494 N 0.82712 0.03353 0.16089 0.0
N495 N 0.77725 0.96356 0.33277 0.0
H496 H 0.79734 0.02168 0.40347 0.0
H497 H 0.77931 0.99397 0.41396 0.0
H498 H 0.77076 0.94758 0.31539 0.0
H499 H 0.77827 0.96499 0.38708 0.0
H500 H 0.83153 0.03148 0.11066 0.0
H501 H 0.83726 0.04898 0.18146 0.0
H502 H 0.80413 0.00582 0.06395 0.0
H503 H 0.78823 0.97785 0.07563 0.0
C504 C 0.9886 0.80802 0.25576 0.0
C505 C 0.97802 0.78606 0.27863 0.0
C506 C 0.00889 0.78272 0.23809 0.0
C507 C 0.02039 0.80525 0.22268 0.0
N508 N 0.02301 0.8404 0.23298 0.0
N509 N 0.98044 0.75418 0.30707 0.0
C510 C 0.01079 0.81825 0.23602 0.0
C511 C 0.98882 0.77385 0.27422 0.0
N512 N 0.97736 0.8189 0.24972 0.0
N513 N 0.01666 0.76958 0.21597 0.0
H514 H 0.96631 0.74753 0.33717 0.0
H515 H 0.98879 0.74564 0.31097 0.0
H516 H 0.03095 0.77528 0.18711 0.0
H517 H 0.00776 0.7527 0.21985 0.0
H518 H 0.98384 0.83411 0.22611 0.0
H519 H 0.96091 0.81197 0.26157 0.0
H520 H 0.01726 0.85059 0.24946 0.0
H521 H 0.03955 0.84869 0.22118 0.0
C522 C 0.80152 0.80005 0.81803 0.0
C523 C 0.80982 0.79002 0.77325 0.0
C524 C 0.79577 0.79971 0.67062 0.0
C525 C 0.7888 0.81104 0.71505 0.0
N526 N 0.78847 0.82553 0.82915 0.0
N527 N 0.81844 0.78341 0.65685 0.0
C528 C 0.79266 0.81223 0.78828 0.0
C529 C 0.80798 0.79073 0.69944 0.0
N530 N 0.80122 0.79715 0.88889 0.0
N531 N 0.78983 0.79661 0.60163 0.0
H532 H 0.82741 0.77654 0.67591 0.0
H533 H 0.81979 0.78578 0.60289 0.0
H534 H 0.78077 0.8028 0.57854 0.0
H535 H 0.79231 0.78638 0.56858 0.0
H536 H 0.79313 0.80197 0.92363 0.0
H537 H 0.80745 0.78823 0.91279 0.0
H538 H 0.79325 0.82899 0.88129 0.0
H539 H 0.78193 0.8347 0.80948 0.0
C540 C 0.18922 0.01074 0.73422 0.0
C541 C 0.20299 0.01534 0.79316 0.0
C542 C 0.19545 0.9778 0.79403 0.0
C543 C 0.18418 0.9741 0.7295 0.0
N544 N 0.17355 0.98823 0.6317 0.0
N545 N 0.22121 0.00423 0.87568 0.0
C546 C 0.18178 0.99084 0.69795 0.0
C547 C 0.20677 -0.00083 0.82191 0.0
N548 N 0.1832 0.02533 0.71289 0.0
N549 N 0.19438 0.96074 0.83061 0.0
H550 H 0.22895 0.01942 0.89994 0.0
H551 H 0.22656 0.99381 0.89314 0.0
H552 H 0.1854 0.94466 0.81381 0.0
H553 H 0.20049 0.96222 0.8811 0.0
H554 H 0.17144 0.02185 0.67472 0.0
H555 H 0.18844 0.04019 0.73765 0.0
H556 H 0.17363 0.00078 0.60328 0.0
H557 H 0.16863 0.9742 0.60211 0.0
C558 C 0.02204 0.21591 0.79668 0.0
C559 C 0.0251 0.21454 0.72373 0.0
C560 C 0.98626 0.18917 0.70952 0.0
C561 C 0.98285 0.19293 0.78001 0.0
N562 N 0.99692 0.21155 0.88961 0.0
N563 N 0.00979 0.20262 0.60837 0.0
C564 C 0.00059 0.2067 0.82354 0.0
C565 C 0.00713 0.20185 0.67941 0.0
N566 N 0.03955 0.22518 0.84069 0.0
N567 N 0.96972 0.17289 0.67216 0.0
H568 H 0.02476 0.21213 0.58393 0.0
H569 H 0.99683 0.19548 0.57339 0.0
H570 H 0.95446 0.16264 0.69379 0.0
H571 H 0.9718 0.16806 0.62262 0.0
H572 H 0.03816 0.22457 0.89503 0.0
H573 H 0.05553 0.23169 0.8234 0.0
H574 H 0.00906 0.22343 0.92085 0.0
H575 H 0.98142 0.20484 0.91136 0.0
C576 C 0.86095 0.5475 0.63177 0.0
C577 C 0.85806 0.54836 0.55858 0.0
C578 C 0.8739 0.52523 0.53726 0.0
C579 C 0.87869 0.52612 0.60968 0.0
N580 N 0.87971 0.54041 0.725 0.0
N581 N 0.86457 0.54104 0.44044 0.0
C582 C 0.873 0.53787 0.65683 0.0
C583 C 0.86529 0.53803 0.51089 0.0
N584 N 0.85143 0.5551 0.6774 0.0
N585 N 0.87672 0.51143 0.49424 0.0
H586 H 0.85836 0.55033 0.41912 0.0
H587 H 0.8718 0.53591 0.40341 0.0
H588 H 0.88258 0.50145 0.51195 0.0
H589 H 0.87139 0.50837 0.44253 0.0
H590 H 0.85093 0.55275 0.73131 0.0
H591 H 0.84233 0.56213 0.6611 0.0
H592 H 0.87814 0.55078 0.76 0.0
H593 H 0.88849 0.53349 0.74527 0.0
C594 C 0.45615 0.31207 0.63146 0.0
C595 C 0.45023 0.30808 0.55981 0.0
C596 C 0.46782 0.34716 0.53801 0.0
C597 C 0.47133 0.35099 0.61118 0.0
N598 N 0.4657 0.33694 0.72904 0.0
N599 N 0.44758 0.32137 0.4462 0.0
C600 C 0.46473 0.33341 0.65842 0.0
C601 C 0.45536 0.3255 0.51325 0.0
N602 N 0.45424 0.29557 0.67323 0.0
N603 N 0.47707 0.36413 0.49189 0.0
H604 H 0.43841 0.3057 0.42597 0.0
H605 H 0.44867 0.33338 0.41245 0.0
H606 H 0.48651 0.38028 0.50749 0.0
H607 H 0.47709 0.36207 0.43791 0.0
H608 H 0.46031 0.29797 0.72406 0.0
H609 H 0.44857 0.27982 0.65481 0.0
H610 H 0.45892 0.32443 0.76569 0.0
H611 H 0.47143 0.35229 0.75104 0.0
C612 C 0.66836 0.13731 0.51775 0.0
C613 C 0.68537 0.13755 0.55724 0.0
C614 C 0.66015 0.1184 0.65344 0.0
C615 C 0.64353 0.11922 0.61528 0.0
N616 N 0.63254 0.13357 0.51947 0.0
N617 N 0.69877 0.13275 0.66833 0.0
C618 C 0.64788 0.13 0.54998 0.0
C619 C 0.68167 0.12934 0.62679 0.0
N620 N 0.67137 0.14296 0.44852 0.0
N621 N 0.65526 0.10665 0.71407 0.0
H622 H 0.71486 0.14094 0.65138 0.0
H623 H 0.69726 0.12924 0.72164 0.0
H624 H 0.63978 0.09905 0.73639 0.0
H625 H 0.66614 0.10325 0.73977 0.0
H626 H 0.65883 0.14086 0.41538 0.0
H627 H 0.68596 0.14784 0.42227 0.0
H628 H 0.63549 0.14314 0.47507 0.0
H629 H 0.61748 0.12868 0.54253 0.0
C630 C 0.46278 0.11207 0.03391 0.0
C631 C 0.46453 0.10979 0.10705 0.0
C632 C 0.44583 0.13015 0.13017 0.0
C633 C 0.44189 0.13022 0.05734 0.0
N634 N 0.44328 0.11799 0.94056 0.0
N635 N 0.45431 0.11306 0.225 0.0
C636 C 0.44942 0.12026 0.00927 0.0
C637 C 0.45508 0.1178 0.15534 0.0
N638 N 0.47469 0.10743 0.98811 0.0
N639 N 0.44178 0.14274 0.17496 0.0
H640 H 0.46064 0.10377 0.24546 0.0
H641 H 0.44557 0.11656 0.26143 0.0
H642 H 0.43586 0.15278 0.15835 0.0
H643 H 0.44641 0.14498 0.2274 0.0
H644 H 0.47572 0.11086 0.93478 0.0
H645 H 0.48534 0.10221 0.00432 0.0
H646 H 0.44644 0.10884 0.90482 0.0
H647 H 0.43328 0.12356 0.92066 0.0
C648 C 0.86963 0.32334 0.00879 0.0
C649 C 0.85313 0.30603 0.0478 0.0
C650 C 0.85865 0.33069 0.14497 0.0
C651 C 0.87386 0.34839 0.10376 0.0
N652 N 0.88974 0.36218 0.9899 0.0
N653 N 0.82829 0.29391 0.14548 0.0
C654 C 0.8783 0.34492 0.03378 0.0
C655 C 0.84646 0.30992 0.11354 0.0
N656 N 0.87705 0.31917 0.94803 0.0
N657 N 0.85659 0.33339 0.21489 0.0
H658 H 0.81871 0.27862 0.1232 0.0
H659 H 0.82152 0.29648 0.1903 0.0
H660 H 0.86585 0.34814 0.24081 0.0
H661 H 0.84735 0.32049 0.24864 0.0
H662 H 0.89075 0.33088 0.9216 0.0
H663 H 0.87045 0.30361 0.92666 0.0
H664 H 0.89154 0.36045 0.93656 0.0
H665 H 0.89546 0.37826 0.00471 0.0
C666 C 0.65439 0.5159 0.08344 0.0
C667 C 0.64437 0.52758 0.10843 0.0
C668 C 0.67639 0.56174 0.07384 0.0
C669 C 0.6874 0.55025 0.05743 0.0
N670 N 0.68834 0.51672 0.06316 0.0
N671 N 0.64786 0.56201 0.14195 0.0
C672 C 0.67684 0.5274 0.06686 0.0
C673 C 0.65593 0.55064 0.1078 0.0
N674 N 0.64239 0.49399 0.07223 0.0
N675 N 0.68497 0.58299 0.05449 0.0
H676 H 0.63337 0.55454 0.17024 0.0
H677 H 0.65671 0.57881 0.1486 0.0
H678 H 0.69947 0.59151 0.02667 0.0
H679 H 0.67652 0.5914 0.05929 0.0
H680 H 0.64866 0.48521 0.04757 0.0
H681 H 0.62566 0.48498 0.08026 0.0
H682 H 0.68171 0.50039 0.07654 0.0
H683 H 0.70505 0.52458 0.05432 0.0
C684 C 0.50985 0.85795 0.91297 0.0
C685 C 0.52175 0.87991 0.8906 0.0
C686 C 0.55529 0.88249 0.93441 0.0
C687 C 0.54385 0.85986 0.94853 0.0
N688 N 0.5109 0.82509 0.93683 0.0
N689 N 0.55652 0.9116 0.86566 0.0
C690 C 0.52129 0.84727 0.9339 0.0
C691 C 0.5447 0.89179 0.89723 0.0
N692 N 0.48769 0.84752 0.9174 0.0
N693 N 0.57596 0.89529 0.95887 0.0
H694 H 0.54949 0.91864 0.83521 0.0
H695 H 0.57343 0.91993 0.86331 0.0
H696 H 0.58402 0.88929 0.98911 0.0
H697 H 0.58418 0.91219 0.95574 0.0
H698 H 0.4785 0.83226 0.94028 0.0
H699 H 0.47863 0.85492 0.90502 0.0
H700 H 0.49502 0.8152 0.91936 0.0
H701 H 0.5187 0.81646 0.9499 0.0
C702 C 0.13012 0.6566 0.84618 0.0
C703 C 0.11821 0.63834 0.89002 0.0
C704 C 0.1287 0.66177 0.99377 0.0
C705 C 0.13889 0.68015 0.94922 0.0
N706 N 0.14886 0.6958 0.83356 0.0
N707 N 0.10515 0.62272 0.00414 0.0
C708 C 0.13953 0.67777 0.8755 0.0
C709 C 0.1173 0.64068 0.96356 0.0
N710 N 0.1326 0.6536 0.77674 0.0
N711 N 0.13002 0.66454 0.06486 0.0
H712 H 0.09759 0.6069 0.9845 0.0
H713 H 0.10161 0.62334 0.05664 0.0
H714 H 0.13732 0.67977 0.08877 0.0
H715 H 0.12505 0.6519 0.10063 0.0
H716 H 0.14299 0.66599 0.74316 0.0
H717 H 0.1253 0.63831 0.75316 0.0
H718 H 0.14765 0.69529 0.77925 0.0
H719 H 0.15706 0.71162 0.85308 0.0
C720 C 0.32224 0.44547 0.89467 0.0
C721 C 0.3162 0.45505 0.94909 0.0
C722 C 0.35261 0.48707 0.94772 0.0
C723 C 0.35923 0.47651 0.89865 0.0
N724 N 0.35141 0.44456 0.83188 0.0
N725 N 0.32665 0.48287 0.0372 0.0
C726 C 0.3444 0.45528 0.87454 0.0
C727 C 0.33165 0.47532 0.97827 0.0
N728 N 0.30668 0.42781 0.85907 0.0
N729 N 0.36623 0.50836 0.96489 0.0
H730 H 0.31167 0.47438 0.06251 0.0
H731 H 0.33801 0.49641 0.06511 0.0
H732 H 0.38193 0.51748 0.94509 0.0
H733 H 0.36137 0.51753 0.99434 0.0
H734 H 0.30992 0.4216 0.81416 0.0
H735 H 0.29013 0.4206 0.86981 0.0
H736 H 0.34193 0.42813 0.81964 0.0
H737 H 0.36721 0.45166 0.81239 0.0
C738 C 0.13596 0.47999 0.3945 0.0
C739 C 0.11327 0.46681 0.38347 0.0
C740 C 0.11447 0.43548 0.43136 0.0
C741 C 0.13749 0.44803 0.4337 0.0
N742 N 0.17035 0.48095 0.40081 0.0
N743 N 0.08161 0.43093 0.3779 0.0
C744 C 0.14834 0.46994 0.4106 0.0
C745 C 0.10267 0.44422 0.3981 0.0
N746 N 0.14563 0.50214 0.39294 0.0
N747 N 0.10379 0.41564 0.46334 0.0
H748 H 0.07259 0.43654 0.35113 0.0
H749 H 0.07386 0.41405 0.38118 0.0
H750 H 0.11175 0.40899 0.49083 0.0
H751 H 0.08695 0.40683 0.46894 0.0
H752 H 0.16175 0.51237 0.40761 0.0
H753 H 0.13707 0.51032 0.38467 0.0
H754 H 0.17859 0.49622 0.37736 0.0
H755 H 0.18007 0.47399 0.40873 0.0
C756 C 0.55047 0.66721 0.36869 0.0
C757 C 0.53053 0.65098 0.39756 0.0
C758 C 0.52958 0.67792 0.47505 0.0
C759 C 0.55057 0.69362 0.45134 0.0
N760 N 0.58312 0.70181 0.3872 0.0
N761 N 0.50394 0.63969 0.49044 0.0
C762 C 0.56166 0.6879 0.40137 0.0
C763 C 0.52085 0.65596 0.45425 0.0
N764 N 0.55835 0.66321 0.30862 0.0
N765 N 0.51753 0.68402 0.51483 0.0
H766 H 0.49769 0.62328 0.47915 0.0
H767 H 0.49773 0.64237 0.53642 0.0
H768 H 0.52294 0.70007 0.52943 0.0
H769 H 0.50128 0.67348 0.52724 0.0
H770 H 0.57165 0.67524 0.28148 0.0
H771 H 0.55038 0.64842 0.28205 0.0
H772 H 0.59249 0.69752 0.35638 0.0
H773 H 0.5922 0.71679 0.41208 0.0
C774 C 0.33643 0.8872 0.40146 0.0
C775 C 0.34758 0.87558 0.38999 0.0
C776 C 0.31567 0.84211 0.42976 0.0
C777 C 0.30566 0.85432 0.44939 0.0
N778 N 0.30866 0.88936 0.46802 0.0
N779 N 0.34954 0.84289 0.4074 0.0
C780 C 0.31663 0.87714 0.43922 0.0
C781 C 0.33771 0.85326 0.40797 0.0
N782 N 0.3443 0.90755 0.37409 0.0
N783 N 0.30398 0.81991 0.42875 0.0
H784 H 0.36593 0.85056 0.39377 0.0
H785 H 0.34365 0.82728 0.42723 0.0
H786 H 0.28756 0.81101 0.44194 0.0
H787 H 0.30999 0.81041 0.40791 0.0
H788 H 0.33564 0.91583 0.37522 0.0
H789 H 0.35834 0.91521 0.34363 0.0
H790 H 0.3172 0.9063 0.46782 0.0
H791 H 0.29466 0.88275 0.49874 0.0
C792 C 0.10362 0.21984 0.87106 0.0
C793 C 0.11669 0.23487 0.81873 0.0
C794 C 0.14827 0.24995 0.8961 0.0
C795 C 0.13537 0.23467 0.94833 0.0
N796 N 0.10242 0.2022 0.98114 0.0
N797 N 0.15215 0.26009 0.77362 0.0
C798 C 0.11353 0.21866 0.93433 0.0
C799 C 0.13928 0.24856 0.8288 0.0
N800 N 0.08165 0.20751 0.86177 0.0
N801 N 0.16855 0.26672 0.9119 0.0
H802 H 0.14598 0.2593 0.72343 0.0
H803 H 0.16905 0.26867 0.77585 0.0
H804 H 0.17585 0.26875 0.96069 0.0
H805 H 0.1775 0.27979 0.87843 0.0
H806 H 0.07092 0.19823 0.90128 0.0
H807 H 0.07391 0.20757 0.81547 0.0
H808 H 0.08715 0.18887 0.97117 0.0
H809 H 0.10935 0.20089 0.02773 0.0
C810 C 0.75224 0.89951 0.88636 0.0
C811 C 0.76656 0.90035 0.93971 0.0
C812 C 0.78219 0.88484 0.85946 0.0
C813 C 0.76572 0.88102 0.81014 0.0
N814 N 0.73563 0.88524 0.77318 0.0
N815 N 0.7953 0.89431 0.97894 0.0
C816 C 0.75106 0.88875 0.82235 0.0
C817 C 0.78174 0.89335 0.92652 0.0
N818 N 0.73964 0.90882 0.89712 0.0
N819 N 0.7982 0.88032 0.84225 0.0
H820 H 0.79638 0.90175 0.02705 0.0
H821 H 0.80482 0.88698 0.97631 0.0
H822 H 0.7989 0.87381 0.79413 0.0
H823 H 0.81179 0.88454 0.87317 0.0
H824 H 0.73058 0.91082 0.85813 0.0
H825 H 0.73913 0.9159 0.94431 0.0
H826 H 0.72253 0.88763 0.78199 0.0
H827 H 0.73548 0.87911 0.72339 0.0
C828 C 0.10072 0.88096 0.9282 0.0
C829 C 0.10243 0.86315 0.95367 0.0
C830 C 0.11981 0.86193 0.84464 0.0
C831 C 0.12063 0.88137 0.82285 0.0
N832 N 0.1143 0.91113 0.84686 0.0
N833 N 0.11724 0.83922 0.94236 0.0
C834 C 0.11156 0.89131 0.86505 0.0
C835 C 0.11285 0.8542 0.91346 0.0
N836 N 0.08848 0.88773 0.96384 0.0
N837 N 0.12524 0.85058 0.79898 0.0
H838 H 0.11321 0.83374 0.99374 0.0
H839 H 0.12681 0.83385 0.91791 0.0
H840 H 0.13001 0.85554 0.74745 0.0
H841 H 0.12289 0.83518 0.80985 0.0
H842 H 0.08475 0.89915 0.94426 0.0
H843 H 0.08053 0.88059 0.01063 0.0
H844 H 0.1102 0.92027 0.8795 0.0
H845 H 0.12225 0.91932 0.8013 0.0
C846 C 0.21859 0.09427 0.61902 0.0
C847 C 0.2248 0.1072 0.68059 0.0
C848 C 0.23217 0.13918 0.61174 0.0
C849 C 0.22499 0.12602 0.55043 0.0
N850 N 0.20596 0.09025 0.49924 0.0
N851 N 0.23229 0.14031 0.73862 0.0
C852 C 0.21643 0.10328 0.55529 0.0
C853 C 0.22988 0.12914 0.67787 0.0
N854 N 0.21614 0.07393 0.62015 0.0
N855 N 0.24253 0.16134 0.60693 0.0
H856 H 0.23063 0.13335 0.78797 0.0
H857 H 0.23379 0.15566 0.74008 0.0
H858 H 0.24504 0.16971 0.56005 0.0
H859 H 0.25042 0.17162 0.64903 0.0
H860 H 0.21389 0.06474 0.57517 0.0
H861 H 0.2184 0.06697 0.66504 0.0
H862 H 0.1976 0.07334 0.50185 0.0
H863 H 0.20369 0.09632 0.4522 0.0
C864 C 0.86316 0.09919 0.58944 0.0
C865 C 0.87466 0.10836 0.52603 0.0
C866 C 0.90334 0.13885 0.59166 0.0
C867 C 0.89258 0.12894 0.65513 0.0
N868 N 0.86446 0.09785 0.71606 0.0
N869 N 0.90806 0.13383 0.46876 0.0
C870 C 0.87331 0.10841 0.65451 0.0
C871 C 0.89548 0.1273 0.52776 0.0
N872 N 0.84199 0.08276 0.58789 0.0
N873 N 0.92084 0.15945 0.59208 0.0
H874 H 0.90313 0.12529 0.42163 0.0
H875 H 0.92421 0.14629 0.46841 0.0
H876 H 0.92741 0.16834 0.63784 0.0
H877 H 0.92781 0.16836 0.54671 0.0
H878 H 0.83212 0.07734 0.63214 0.0
H879 H 0.83344 0.07579 0.54197 0.0
H880 H 0.8519 0.08176 0.7184 0.0
H881 H 0.87071 0.10456 0.76502 0.0
C882 C 0.8844 0.75096 0.6627 0.0
C883 C 0.87838 0.76674 0.6779 0.0
C884 C 0.89287 0.78426 0.56455 0.0
C885 C 0.89614 0.76678 0.54597 0.0
N886 N 0.89235 0.73183 0.57336 0.0
N887 N 0.87528 0.79769 0.64258 0.0
C888 C 0.8914 0.74976 0.59416 0.0
C889 C 0.88241 0.78339 0.629 0.0
N890 N 0.88382 0.73737 0.7144 0.0
N891 N 0.90015 0.80182 0.52113 0.0
H892 H 0.86803 0.79793 0.68975 0.0
H893 H 0.87528 0.80843 0.60555 0.0
H894 H 0.90778 0.80285 0.47344 0.0
H895 H 0.90027 0.81607 0.53474 0.0
H896 H 0.8901 0.72699 0.70852 0.0
H897 H 0.87902 0.73803 0.76557 0.0
H898 H 0.88655 0.71782 0.60356 0.0
H899 H 0.89717 0.73008 0.52343 0.0
C900 C 0.85478 0.76027 0.10732 0.0
C901 C 0.86865 0.77303 0.05187 0.0
C902 C 0.90029 0.787 0.1298 0.0
C903 C 0.8869 0.77194 0.18153 0.0
N904 N 0.85163 0.74507 0.22357 0.0
N905 N 0.90406 0.79943 0.00929 0.0
C906 C 0.86413 0.75907 0.17178 0.0
C907 C 0.89125 0.78687 0.06316 0.0
N908 N 0.83273 0.74904 0.09802 0.0
N909 N 0.92166 0.80119 0.14439 0.0
H910 H 0.89769 0.8008 0.96158 0.0
H911 H 0.92094 0.80804 0.01049 0.0
H912 H 0.92877 0.80132 0.19218 0.0
H913 H 0.93209 0.81381 0.1116 0.0
H914 H 0.82159 0.74132 0.13815 0.0
H915 H 0.82518 0.74831 0.05063 0.0
H916 H 0.83548 0.73305 0.21737 0.0
H917 H 0.85772 0.74498 0.27321 0.0
C918 C 0.24302 0.12594 0.05707 0.0
C919 C 0.22626 0.10431 0.04378 0.0
C920 C 0.21362 0.10126 0.1651 0.0
C921 C 0.22922 0.12348 0.17591 0.0
N922 N 0.25413 0.15843 0.12503 0.0
N923 N 0.19304 0.07269 0.08067 0.0
C924 C 0.24247 0.13628 0.11967 0.0
C925 C 0.21075 0.09233 0.09651 0.0
N926 N 0.26033 0.13626 0.01254 0.0
N927 N 0.20229 0.08845 0.22056 0.0
H928 H 0.19029 0.06587 0.0307 0.0
H929 H 0.18013 0.06417 0.11506 0.0
H930 H 0.20415 0.09434 0.2716 0.0
H931 H 0.19243 0.07165 0.21698 0.0
H932 H 0.27396 0.15119 0.02427 0.0
H933 H 0.2624 0.12903 0.96801 0.0
H934 H 0.2623 0.16849 0.08273 0.0
H935 H 0.25367 0.16687 0.16904 0.0
C936 C 0.89887 0.1216 0.15073 0.0
C937 C 0.87589 0.10894 0.15551 0.0
C938 C 0.87258 0.11565 0.03181 0.0
C939 C 0.89557 0.12702 0.0254 0.0
N940 N 0.93046 0.13661 0.0748 0.0
N941 N 0.8415 0.08855 0.09559 0.0
C942 C 0.90869 0.12868 0.08372 0.0
C943 C 0.86296 0.10424 0.09442 0.0
N944 N 0.91126 0.12788 0.21008 0.0
N945 N 0.8598 0.11689 0.98054 0.0
H946 H 0.83381 0.07936 0.13994 0.0
H947 H 0.83199 0.08303 0.05053 0.0
H948 H 0.86588 0.12598 0.93496 0.0
H949 H 0.84318 0.11083 0.98687 0.0
H950 H 0.92785 0.13907 0.20999 0.0
H951 H 0.90471 0.12339 0.2602 0.0
H952 H 0.94048 0.13629 0.11398 0.0
H953 H 0.93806 0.1415 0.02615 0.0
C954 C 0.74519 0.86378 0.33 0.0
C955 C 0.76217 0.88481 0.31203 0.0
C956 C 0.78171 0.88597 0.41919 0.0
C957 C 0.76333 0.86636 0.44139 0.0
N958 N 0.72594 0.83849 0.42339 0.0
N959 N 0.7957 0.91724 0.34223 0.0
C960 C 0.74467 0.85562 0.39805 0.0
C961 C 0.78036 0.89623 0.35692 0.0
N962 N 0.72971 0.85146 0.28157 0.0
N963 N 0.8005 0.89461 0.4572 0.0
H964 H 0.79527 0.92537 0.29737 0.0
H965 H 0.80795 0.92719 0.37702 0.0
H966 H 0.80193 0.88746 0.5031 0.0
H967 H 0.81513 0.90769 0.44016 0.0
H968 H 0.71816 0.83519 0.28955 0.0
H969 H 0.72979 0.85682 0.23066 0.0
H970 H 0.71118 0.83159 0.39676 0.0
H971 H 0.72453 0.83252 0.47404 0.0
C972 C 0.13308 0.89117 0.32491 0.0
C973 C 0.11036 0.87719 0.31919 0.0
C974 C 0.10536 0.88705 0.43776 0.0
C975 C 0.12817 0.89791 0.44758 0.0
N976 N 0.1641 0.90939 0.40182 0.0
N977 N 0.07451 0.86073 0.37016 0.0
C978 C 0.14221 0.90011 0.39119 0.0
C979 C 0.09631 0.87508 0.37518 0.0
N980 N 0.14585 0.89602 0.26663 0.0
N981 N 0.09244 0.88842 0.48818 0.0
H982 H 0.06719 0.85178 0.32505 0.0
H983 H 0.06383 0.85656 0.4122 0.0
H984 H 0.09874 0.89735 0.53415 0.0
H985 H 0.07589 0.88257 0.48165 0.0
H986 H 0.16225 0.90783 0.26576 0.0
H987 H 0.13955 0.8897 0.21728 0.0
H988 H 0.17465 0.90882 0.36519 0.0
H989 H 0.1717 0.9163 0.4491 0.0
C990 C 0.10967 0.25223 0.40111 0.0
C991 C 0.10628 0.23595 0.45075 0.0
C992 C 0.12266 0.2212 0.37062 0.0
C993 C 0.12534 0.23707 0.32038 0.0
N994 N 0.11664 0.26393 0.28016 0.0
N995 N 0.10551 0.20253 0.4788 0.0
C996 C 0.1173 0.25138 0.33328 0.0
C997 C 0.11152 0.21965 0.43421 0.0
N998 N 0.10694 0.26929 0.41992 0.0
N999 N 0.13168 0.20839 0.35915 0.0
H1000 H 0.09734 0.201 0.52576 0.0
H1001 H 0.10692 0.189 0.46671 0.0
H1002 H 0.13955 0.20874 0.31269 0.0
H1003 H 0.1326 0.19841 0.39722 0.0
H1004 H 0.11174 0.28294 0.38862 0.0
H1005 H 0.10164 0.27083 0.46928 0.0
H1006 H 0.10892 0.27307 0.28444 0.0
H1007 H 0.12191 0.26352 0.22947 0.0
C1008 C 0.81034 0.58282 0.24005 0.0
C1009 C 0.79666 0.56916 0.29441 0.0
C1010 C 0.76476 0.55719 0.21903 0.0
C1011 C 0.77859 0.57032 0.16425 0.0
N1012 N 0.81458 0.59097 0.11599 0.0
N1013 N 0.76183 0.53987 0.33116 0.0
C1014 C 0.80141 0.58161 0.17272 0.0
C1015 C 0.77414 0.55522 0.28242 0.0
N1016 N 0.83149 0.598 0.2536 0.0
N1017 N 0.7427 0.54758 0.2121 0.0
H1018 H 0.7683 0.53795 0.37786 0.0
H1019 H 0.74579 0.52781 0.32262 0.0
H1020 H 0.73516 0.5485 0.16646 0.0
H1021 H 0.73189 0.53997 0.25321 0.0
H1022 H 0.84135 0.61006 0.21813 0.0
H1023 H 0.83877 0.59993 0.30233 0.0
H1024 H 0.83136 0.59754 0.11746 0.0
H1025 H 0.8085 0.59018 0.06568 0.0
C1026 C 0.43286 0.22004 0.18935 0.0
C1027 C 0.4205 0.19703 0.1846 0.0
C1028 C 0.40973 0.1949 0.30718 0.0
C1029 C 0.42364 0.21771 0.3139 0.0
N1030 N 0.45196 0.25135 0.26536 0.0
N1031 N 0.40233 0.16243 0.2443 0.0
C1032 C 0.43631 0.23011 0.25614 0.0
C1033 C 0.41054 0.18441 0.24517 0.0
N1034 N 0.44032 0.23238 0.13006 0.0
N1035 N 0.39469 0.18333 0.35767 0.0
H1036 H 0.40316 0.15408 0.20056 0.0
H1037 H 0.39688 0.15287 0.28926 0.0
H1038 H 0.39244 0.19033 0.4025 0.0
H1039 H 0.38274 0.16711 0.35125 0.0
H1040 H 0.44741 0.24924 0.13017 0.0
H1041 H 0.43762 0.22575 0.0799 0.0
H1042 H 0.46311 0.26056 0.22663 0.0
H1043 H 0.45521 0.2591 0.31388 0.0
C1044 C 0.76596 0.19061 0.15717 0.0
C1045 C 0.78409 0.21193 0.15487 0.0
C1046 C 0.78029 0.21619 0.28016 0.0
C1047 C 0.76455 0.19384 0.28481 0.0
N1048 N 0.74377 0.15885 0.22799 0.0
N1049 N 0.81134 0.24351 0.21686 0.0
C1050 C 0.75748 0.18078 0.2233 0.0
C1051 C 0.79194 0.22444 0.21695 0.0
N1052 N 0.75671 0.17989 0.09621 0.0
N1053 N 0.78391 0.22962 0.33602 0.0
H1054 H 0.82121 0.24948 0.17268 0.0
H1055 H 0.81878 0.25216 0.26231 0.0
H1056 H 0.77514 0.2242 0.38262 0.0
H1057 H 0.79382 0.24644 0.33327 0.0
H1058 H 0.7421 0.1652 0.09437 0.0
H1059 H 0.76263 0.18665 0.04702 0.0
H1060 H 0.74031 0.1483 0.18588 0.0
H1061 H 0.73708 0.15082 0.27486 0.0
C1062 C 0.88159 0.43687 0.87798 0.0
C1063 C 0.89728 0.45888 0.8647 0.0
C1064 C 0.91174 0.4624 0.98332 0.0
C1065 C 0.89796 0.43979 0.99337 0.0
N1066 N 0.87142 0.4047 0.94786 0.0
N1067 N 0.93011 0.49151 0.90002 0.0
C1068 C 0.88318 0.42677 0.94027 0.0
C1069 C 0.91306 0.47143 0.9162 0.0
N1070 N 0.86488 0.42581 0.83195 0.0
N1071 N 0.92318 0.47537 0.03847 0.0
H1072 H 0.93228 0.49869 0.85096 0.0
H1073 H 0.94334 0.50018 0.93314 0.0
H1074 H 0.92234 0.46938 0.08894 0.0
H1075 H 0.93171 0.49228 0.03582 0.0
H1076 H 0.8517 0.41044 0.84214 0.0
H1077 H 0.86318 0.43278 0.78606 0.0
H1078 H 0.8623 0.39417 0.90766 0.0
H1079 H 0.87207 0.39668 0.99268 0.0
C1080 C 0.54357 0.43408 0.98602 0.0
C1081 C 0.55799 0.45682 0.98968 0.0
C1082 C 0.55346 0.46033 0.86452 0.0
C1083 C 0.53976 0.43741 0.85956 0.0
N1084 N 0.5265 0.40209 0.91191 0.0
N1085 N 0.58222 0.49003 0.9291 0.0
C1086 C 0.53631 0.42414 0.91925 0.0
C1087 C 0.56477 0.46941 0.92773 0.0
N1088 N 0.53593 0.42216 0.04599 0.0
N1089 N 0.55453 0.47374 0.81143 0.0
H1090 H 0.59134 0.49699 0.9743 0.0
H1091 H 0.58906 0.49917 0.88396 0.0
H1092 H 0.54563 0.46831 0.76528 0.0
H1093 H 0.56249 0.49059 0.8165 0.0
H1094 H 0.5235 0.406 0.04646 0.0
H1095 H 0.54084 0.42883 0.09581 0.0
H1096 H 0.5253 0.39176 0.95247 0.0
H1097 H 0.52159 0.39436 0.86344 0.0
C1098 C 0.53263 0.08079 0.86996 0.0
C1099 C 0.55527 0.09514 0.86101 0.0
C1100 C 0.55845 0.10558 0.98478 0.0
C1101 C 0.53558 0.09248 0.99182 0.0
N1102 N 0.50045 0.0726 0.93579 0.0
N1103 N 0.589 0.12441 0.90557 0.0
C1104 C 0.52254 0.08165 0.93275 0.0
C1105 C 0.56799 0.10854 0.91719 0.0
N1106 N 0.52087 0.06529 0.82082 0.0
N1107 N 0.57116 0.1143 0.04277 0.0
H1108 H 0.59635 0.12722 0.85644 0.0
H1109 H 0.59843 0.13605 0.94281 0.0
H1110 H 0.56483 0.11224 0.09323 0.0
H1111 H 0.58806 0.12201 0.04159 0.0
H1112 H 0.50494 0.05291 0.82921 0.0
H1113 H 0.5275 0.06314 0.77495 0.0
H1114 H 0.4905 0.0666 0.89182 0.0
H1115 H 0.49226 0.07315 0.9803 0.0
C1116 C 0.5571 0.10018 0.3642 0.0
C1117 C 0.53515 0.09526 0.36177 0.0
C1118 C 0.53316 0.09266 0.48992 0.0
C1119 C 0.55381 0.09424 0.49086 0.0
N1120 N 0.58495 0.09753 0.42919 0.0
N1121 N 0.50101 0.08341 0.42215 0.0
C1122 C 0.5657 0.09751 0.42808 0.0
C1123 C 0.52286 0.09089 0.42461 0.0
N1124 N 0.56987 0.10802 0.30589 0.0
N1125 N 0.52324 0.09252 0.55141 0.0
H1126 H 0.49236 0.08101 0.37592 0.0
H1127 H 0.49093 0.07753 0.46582 0.0
H1128 H 0.52995 0.09299 0.60037 0.0
H1129 H 0.50928 0.09382 0.55378 0.0
H1130 H 0.58654 0.11382 0.30612 0.0
H1131 H 0.56424 0.1108 0.25879 0.0
H1132 H 0.59314 0.09742 0.38413 0.0
H1133 H 0.592 0.09609 0.47523 0.0
C1134 C 0.90896 0.45935 0.36896 0.0
C1135 C 0.89401 0.4369 0.35861 0.0
C1136 C 0.88214 0.43396 0.48079 0.0
C1137 C 0.89573 0.45677 0.48854 0.0
N1138 N 0.91648 0.49174 0.43219 0.0
N1139 N 0.8629 0.40394 0.40003 0.0
C1140 C 0.90732 0.46964 0.43009 0.0
C1141 C 0.87949 0.42451 0.41314 0.0
N1142 N 0.92579 0.47068 0.32344 0.0
N1143 N 0.87269 0.42114 0.53806 0.0
H1144 H 0.86014 0.39674 0.35067 0.0
H1145 H 0.85064 0.39493 0.4361 0.0
H1146 H 0.87458 0.42729 0.5887 0.0
H1147 H 0.86455 0.40423 0.53609 0.0
H1148 H 0.93822 0.4865 0.33335 0.0
H1149 H 0.92898 0.4637 0.28044 0.0
H1150 H 0.92335 0.50155 0.38832 0.0
H1151 H 0.91497 0.49999 0.47506 0.0
C1152 C 0.54146 0.43028 0.44173 0.0
C1153 C 0.53791 0.44298 0.49182 0.0
C1154 C 0.55259 0.47377 0.41093 0.0
C1155 C 0.55716 0.46151 0.36209 0.0
N1156 N 0.55936 0.42962 0.33411 0.0
N1157 N 0.54459 0.47805 0.53117 0.0
C1158 C 0.55259 0.44017 0.3784 0.0
C1159 C 0.5448 0.4651 0.47846 0.0
N1160 N 0.53343 0.4086 0.45337 0.0
N1161 N 0.5547 0.49328 0.39181 0.0
H1162 H 0.53939 0.47238 0.58188 0.0
H1163 H 0.55158 0.49483 0.52666 0.0
H1164 H 0.56037 0.50034 0.34292 0.0
H1165 H 0.54905 0.50162 0.42213 0.0
H1166 H 0.53313 0.39792 0.41547 0.0
H1167 H 0.52571 0.40088 0.49972 0.0
H1168 H 0.55861 0.41498 0.34628 0.0
H1169 H 0.56739 0.43638 0.28709 0.0
C1170 C 0.43462 0.20634 0.69087 0.0
C1171 C 0.42458 0.21924 0.68552 0.0
C1172 C 0.4137 0.21228 0.80837 0.0
C1173 C 0.42487 0.20046 0.81526 0.0
N1174 N 0.45028 0.19068 0.76783 0.0
N1175 N 0.41061 0.23985 0.74402 0.0
C1176 C 0.43672 0.19889 0.75791 0.0
C1177 C 0.41607 0.22393 0.74587 0.0
N1178 N 0.4411 0.20022 0.63194 0.0
N1179 N 0.39958 0.21125 0.85897 0.0
H1180 H 0.41263 0.24921 0.6996 0.0
H1181 H 0.40637 0.24535 0.78862 0.0
H1182 H 0.39627 0.20211 0.90458 0.0
H1183 H 0.38932 0.21763 0.85215 0.0
H1184 H 0.44631 0.18887 0.63231 0.0
H1185 H 0.43957 0.20503 0.58173 0.0
H1186 H 0.46087 0.19103 0.72946 0.0
H1187 H 0.45255 0.18554 0.81666 0.0
C1188 C 0.79843 0.21781 0.66245 0.0
C1189 C 0.77572 0.20393 0.6569 0.0
C1190 C 0.77091 0.2124 0.7777 0.0
C1191 C 0.79379 0.22349 0.78663 0.0
N1192 N 0.82958 0.23512 0.73904 0.0
N1193 N 0.73986 0.18785 0.70692 0.0
C1194 C 0.80768 0.22613 0.72916 0.0
C1195 C 0.76179 0.20126 0.71384 0.0
N1196 N 0.81119 0.22287 0.60402 0.0
N1197 N 0.75802 0.21315 0.82954 0.0
H1198 H 0.73254 0.18087 0.65923 0.0
H1199 H 0.72902 0.18291 0.74869 0.0
H1200 H 0.7643 0.22166 0.8762 0.0
H1201 H 0.7414 0.2071 0.82412 0.0
H1202 H 0.82753 0.23482 0.60315 0.0
H1203 H 0.80501 0.21649 0.55466 0.0
H1204 H 0.84003 0.23485 0.70137 0.0
H1205 H 0.8373 0.24139 0.78658 0.0
C1206 C 0.77074 0.55349 0.77517 0.0
C1207 C 0.76873 0.57177 0.79359 0.0
C1208 C 0.78234 0.58769 0.67807 0.0
C1209 C 0.78735 0.57114 0.66385 0.0
N1210 N 0.78819 0.53909 0.70042 0.0
N1211 N 0.7763 0.60821 0.7671 0.0
C1212 C 0.78185 0.55407 0.71245 0.0
C1213 C 0.77529 0.58932 0.74602 0.0
N1214 N 0.76165 0.53547 0.81692 0.0
N1215 N 0.78416 0.60178 0.62624 0.0
H1216 H 0.77242 0.61069 0.81755 0.0
H1217 H 0.78317 0.62229 0.73683 0.0
H1218 H 0.78908 0.60087 0.57545 0.0
H1219 H 0.77868 0.61284 0.6316 0.0
H1220 H 0.76073 0.52086 0.80295 0.0
H1221 H 0.75328 0.5345 0.86289 0.0
H1222 H 0.78694 0.52782 0.73764 0.0
H1223 H 0.79612 0.53885 0.65476 0.0
C1224 C 0.42728 0.88324 0.54729 0.0
C1225 C 0.44016 0.89831 0.49461 0.0
C1226 C 0.47159 0.914 0.57245 0.0
C1227 C 0.4592 0.89813 0.62384 0.0
N1228 N 0.42678 0.86485 0.65489 0.0
N1229 N 0.4757 0.92366 0.4498 0.0
C1230 C 0.43749 0.88182 0.60954 0.0
C1231 C 0.46271 0.91224 0.50488 0.0
N1232 N 0.40522 0.8712 0.53988 0.0
N1233 N 0.49114 0.9317 0.58934 0.0
H1234 H 0.46975 0.9224 0.39904 0.0
H1235 H 0.4926 0.93248 0.45303 0.0
H1236 H 0.4977 0.93455 0.6395 0.0
H1237 H 0.49969 0.9448 0.55562 0.0
H1238 H 0.39484 0.86183 0.58002 0.0
H1239 H 0.39703 0.87186 0.49555 0.0
H1240 H 0.41168 0.85137 0.64397 0.0
H1241 H 0.4339 0.86329 0.70064 0.0
C1242 C 0.1071 0.54584 0.61292 0.0
C1243 C 0.09552 0.55714 0.62191 0.0
C1244 C 0.085 0.55136 0.49819 0.0
C1245 C 0.0936 0.53728 0.49246 0.0
N1246 N 0.11199 0.5199 0.54406 0.0
N1247 N 0.07148 0.56895 0.57505 0.0
C1248 C 0.1047 0.53438 0.54944 0.0
C1249 C 0.0842 0.55977 0.56484 0.0
N1250 N 0.12063 0.5464 0.66474 0.0
N1251 N 0.07778 0.55685 0.43958 0.0
H1252 H 0.07014 0.57522 0.62286 0.0
H1253 H 0.06081 0.56882 0.53745 0.0
H1254 H 0.0782 0.55093 0.38992 0.0
H1255 H 0.07339 0.56881 0.43899 0.0
H1256 H 0.1311 0.54023 0.65899 0.0
H1257 H 0.12286 0.55486 0.71152 0.0
H1258 H 0.11786 0.51511 0.58634 0.0
H1259 H 0.11091 0.51151 0.49803 0.0
C1260 C 0.44264 0.5573 0.61527 0.0
C1261 C 0.44716 0.54194 0.64687 0.0
C1262 C 0.46666 0.5415 0.54187 0.0
C1263 C 0.46463 0.55887 0.51393 0.0
N1264 N 0.45246 0.58492 0.52592 0.0
N1265 N 0.46545 0.52098 0.64435 0.0
C1266 C 0.4529 0.56711 0.55073 0.0
C1267 C 0.45978 0.53452 0.61141 0.0
N1268 N 0.42851 0.56242 0.64684 0.0
N1269 N 0.47428 0.53099 0.50066 0.0
H1270 H 0.4602 0.51482 0.69448 0.0
H1271 H 0.47675 0.51716 0.62417 0.0
H1272 H 0.47866 0.53508 0.44837 0.0
H1273 H 0.47407 0.5168 0.51565 0.0
H1274 H 0.42269 0.57167 0.62294 0.0
H1275 H 0.42139 0.55613 0.69537 0.0
H1276 H 0.44639 0.59323 0.55437 0.0
H1277 H 0.45953 0.59241 0.47861 0.0
C1278 C 0.58618 0.81712 0.26671 0.0
C1279 C 0.56812 0.80536 0.22152 0.0
C1280 C 0.55131 0.776 0.30781 0.0
C1281 C 0.56895 0.78829 0.35404 0.0
N1282 N 0.59986 0.82272 0.38542 0.0
N1283 N 0.53141 0.77615 0.2048 0.0
C1284 C 0.58527 0.80961 0.336 0.0
C1285 C 0.54998 0.78559 0.24398 0.0
N1286 N 0.60484 0.83456 0.2422 0.0
N1287 N 0.53659 0.75479 0.32252 0.0
H1288 H 0.52992 0.78286 0.15801 0.0
H1289 H 0.51692 0.76288 0.22182 0.0
H1290 H 0.53693 0.74705 0.36842 0.0
H1291 H 0.52498 0.74434 0.28682 0.0
H1292 H 0.61923 0.84222 0.27084 0.0
H1293 H 0.60674 0.84003 0.19075 0.0
H1294 H 0.61086 0.83914 0.37709 0.0
H1295 H 0.59939 0.81776 0.43713 0.0
C1296 C 0.20748 0.76358 0.33302 0.0
C1297 C 0.21717 0.78646 0.33975 0.0
C1298 C 0.20776 0.78915 0.21884 0.0
C1299 C 0.19982 0.76657 0.20965 0.0
N1300 N 0.19601 0.73305 0.2539 0.0
N1301 N 0.23246 0.82143 0.28275 0.0
C1302 C 0.20083 0.75396 0.26558 0.0
C1303 C 0.21916 0.79938 0.2807 0.0
N1304 N 0.20373 0.75096 0.39107 0.0
N1305 N 0.20332 0.8007 0.1709 0.0
H1306 H 0.24201 0.82959 0.32607 0.0
H1307 H 0.23594 0.83126 0.23865 0.0
H1308 H 0.19384 0.79383 0.12645 0.0
H1309 H 0.20691 0.81664 0.17962 0.0
H1310 H 0.19465 0.73406 0.39004 0.0
H1311 H 0.20811 0.75738 0.44141 0.0
H1312 H 0.1985 0.72378 0.29103 0.0
H1313 H 0.19149 0.72565 0.20484 0.0
C1314 C 0.24234 0.43542 0.25564 0.0
C1315 C 0.23515 0.44145 0.19452 0.0
C1316 C 0.20924 0.4467 0.26455 0.0
C1317 C 0.2162 0.44035 0.32505 0.0
N1318 N 0.24281 0.43437 0.38272 0.0
N1319 N 0.21619 0.45815 0.14299 0.0
C1320 C 0.23406 0.43679 0.32205 0.0
C1321 C 0.22 0.44883 0.1998 0.0
N1322 N 0.25566 0.42674 0.25005 0.0
N1323 N 0.19187 0.44996 0.26871 0.0
H1324 H 0.22417 0.46023 0.09529 0.0
H1325 H 0.20677 0.46559 0.14476 0.0
H1326 H 0.18434 0.44958 0.31604 0.0
H1327 H 0.18426 0.45202 0.22522 0.0
H1328 H 0.25922 0.41963 0.2918 0.0
H1329 H 0.26191 0.425 0.20274 0.0
H1330 H 0.25719 0.43384 0.38457 0.0
H1331 H 0.23677 0.43496 0.43199 0.0
C1332 C 0.20123 0.42121 0.81347 0.0
C1333 C 0.22405 0.43332 0.82285 0.0
C1334 C 0.22905 0.44545 0.70061 0.0
C1335 C 0.20618 0.43361 0.69138 0.0
N1336 N 0.17011 0.41285 0.74066 0.0
N1337 N 0.25949 0.4601 0.78159 0.0
C1338 C 0.19214 0.42251 0.74857 0.0
C1339 C 0.23792 0.44638 0.76814 0.0
N1340 N 0.18835 0.40737 0.86499 0.0
N1341 N 0.24226 0.45555 0.64452 0.0
H1342 H 0.2664 0.46126 0.83072 0.0
H1343 H 0.27021 0.47161 0.74624 0.0
H1344 H 0.23632 0.45646 0.59546 0.0
H1345 H 0.25904 0.46218 0.64539 0.0
H1346 H 0.17199 0.39598 0.85832 0.0
H1347 H 0.19431 0.40607 0.91354 0.0
H1348 H 0.15921 0.40698 0.7823 0.0
H1349 H 0.16255 0.41183 0.69302 0.0
C1350 C 0.54984 0.79037 0.79309 0.0
C1351 C 0.56206 0.78804 0.84779 0.0
C1352 C 0.57041 0.76528 0.7725 0.0
C1353 C 0.56132 0.7706 0.71515 0.0
N1354 N 0.54173 0.78723 0.66846 0.0
N1355 N 0.58335 0.77293 0.89249 0.0
C1356 C 0.55044 0.78251 0.725 0.0
C1357 C 0.57193 0.77512 0.83857 0.0
N1358 N 0.53811 0.80047 0.8061 0.0
N1359 N 0.57747 0.75071 0.76336 0.0
H1360 H 0.58361 0.77882 0.94275 0.0
H1361 H 0.5932 0.76604 0.88719 0.0
H1362 H 0.57638 0.74318 0.71539 0.0
H1363 H 0.58271 0.74469 0.80391 0.0
H1364 H 0.52735 0.80109 0.77054 0.0
H1365 H 0.53794 0.80704 0.85472 0.0
H1366 H 0.53574 0.79792 0.66981 0.0
H1367 H 0.54126 0.78097 0.61864 0.0
C1368 C 0.21086 0.76225 0.79727 0.0
C1369 C 0.20399 0.77325 0.84375 0.0
C1370 C 0.21528 0.80295 0.76008 0.0
C1371 C 0.2234 0.79269 0.71526 0.0
N1372 N 0.23269 0.7648 0.69604 0.0
N1373 N 0.20499 0.80643 0.87794 0.0
C1374 C 0.22234 0.77298 0.73535 0.0
C1375 C 0.20789 0.79436 0.82779 0.0
N1376 N 0.20555 0.74126 0.81039 0.0
N1377 N 0.21332 0.82008 0.73663 0.0
H1378 H 0.20009 0.80086 0.92894 0.0
H1379 H 0.20966 0.82274 0.87119 0.0
H1380 H 0.21756 0.82634 0.68617 0.0
H1381 H 0.20537 0.82662 0.76472 0.0
H1382 H 0.20784 0.73158 0.77434 0.0
H1383 H 0.19738 0.73288 0.85541 0.0
H1384 H 0.2344 0.7517 0.71169 0.0
H1385 H 0.24126 0.77233 0.65048 0.0
C1386 C 0.10887 0.55382 0.03359 0.0
C1387 C 0.08962 0.54458 0.99264 0.0
C1388 C 0.06983 0.51799 0.08436 0.0
C1389 C 0.08934 0.52619 0.12344 0.0
N1390 N 0.12815 0.54937 0.13134 0.0
N1391 N 0.05347 0.51482 0.97082 0.0
C1392 C 0.10913 0.54335 0.09682 0.0
C1393 C 0.07063 0.52568 0.01551 0.0
N1394 N 0.12646 0.57311 0.01403 0.0
N1395 N 0.05033 0.5038 0.11439 0.0
H1396 H 0.05366 0.51975 0.91924 0.0
H1397 H 0.04003 0.49975 0.98245 0.0
H1398 H 0.04888 0.49844 0.1659 0.0
H1399 H 0.03541 0.49907 0.09079 0.0
H1400 H 0.14004 0.58187 0.04571 0.0
H1401 H 0.1269 0.58124 0.9681 0.0
H1402 H 0.14338 0.56023 0.11092 0.0
H1403 H 0.12879 0.54214 0.17813 0.0
C1404 C 0.43621 0.54443 0.06903 0.0
C1405 C 0.44982 0.54934 0.00943 0.0
C1406 C 0.48161 0.57343 0.0799 0.0
C1407 C 0.46786 0.56935 0.1389 0.0
N1408 N 0.43175 0.55547 0.18508 0.0
N1409 N 0.48423 0.57238 0.95359 0.0
C1410 C 0.44502 0.55631 0.13187 0.0
C1411 C 0.47213 0.56515 0.01345 0.0
N1412 N 0.41531 0.5275 0.06724 0.0
N1413 N 0.50368 0.58378 0.08773 0.0
H1414 H 0.47769 0.56667 0.90398 0.0
H1415 H 0.50005 0.58548 0.95255 0.0
H1416 H 0.51157 0.58968 0.13536 0.0
H1417 H 0.51417 0.58479 0.04793 0.0
H1418 H 0.40541 0.52176 0.11136 0.0
H1419 H 0.40846 0.51783 0.02311 0.0
H1420 H 0.41492 0.54786 0.18042 0.0
H1421 H 0.43774 0.56427 0.23141 0.0
C1422 C 0.43066 0.88976 0.00588 0.0
C1423 C 0.45366 0.90099 0.00066 0.0
C1424 C 0.4568 0.91191 0.12328 0.0
C1425 C 0.43389 0.89917 0.13061 0.0
N1426 N 0.39928 0.87255 0.08262 0.0
N1427 N 0.48834 0.91701 0.05966 0.0
C1428 C 0.42086 0.88704 0.07296 0.0
C1429 C 0.46664 0.91028 0.06101 0.0
N1430 N 0.41819 0.88259 0.94681 0.0
N1431 N 0.46916 0.92664 0.17359 0.0
H1432 H 0.49609 0.91524 0.01586 0.0
H1433 H 0.49804 0.92199 0.10438 0.0
H1434 H 0.46269 0.92954 0.21856 0.0
H1435 H 0.48561 0.9378 0.16679 0.0
H1436 H 0.40145 0.87639 0.94688 0.0
H1437 H 0.42475 0.88448 0.89676 0.0
H1438 H 0.38944 0.86173 0.04408 0.0
H1439 H 0.39169 0.86992 0.13126 0.0
C1440 C 0.19936 0.34503 0.03954 0.0
C1441 C 0.22225 0.35783 0.04711 0.0
C1442 C 0.22302 0.32685 0.10042 0.0
C1443 C 0.2005 0.31361 0.08639 0.0
N1444 N 0.16877 0.30886 0.0243 0.0
N1445 N 0.25648 0.35944 0.06957 0.0
C1446 C 0.18911 0.32231 0.05037 0.0
C1447 C 0.2343 0.34832 0.07313 0.0
N1448 N 0.18712 0.35456 0.02599 0.0
N1449 N 0.23346 0.31938 0.14226 0.0
H1450 H 0.26533 0.37488 0.04752 0.0
H1451 H 0.26593 0.35244 0.08162 0.0
H1452 H 0.2257 0.30396 0.16483 0.0
H1453 H 0.24932 0.32923 0.16 0.0
H1454 H 0.17019 0.34599 0.02694 0.0
H1455 H 0.19363 0.3713 0.02168 0.0
H1456 H 0.16074 0.31432 0.9917 0.0
H1457 H 0.16095 0.29198 0.02847 0.0
C1458 C 0.67466 0.89618 0.12062 0.0
C1459 C 0.68868 0.89113 0.08252 0.0
C1460 C 0.65881 0.86752 0.00433 0.0
C1461 C 0.64415 0.86994 0.04869 0.0
N1462 N 0.63763 0.88523 0.15284 0.0
N1463 N 0.69444 0.87134 0.99022 0.0
C1464 C 0.65193 0.88418 0.10731 0.0
C1465 C 0.68087 0.87665 0.0248 0.0
N1466 N 0.68305 0.91229 0.16991 0.0
N1467 N 0.65176 0.85716 0.94134 0.0
H1468 H 0.71097 0.87847 0.00139 0.0
H1469 H 0.68911 0.85894 0.95327 0.0
H1470 H 0.63585 0.85091 0.92366 0.0
H1471 H 0.66207 0.85667 0.90354 0.0
H1472 H 0.67405 0.9184 0.19394 0.0
H1473 H 0.6995 0.92082 0.18296 0.0
H1474 H 0.64218 0.89312 0.20101 0.0
H1475 H 0.62087 0.87689 0.14541 0.0
C1476 C 0.11328 0.7699 0.02961 0.0
C1477 C 0.12825 0.76926 0.077 0.0
C1478 C 0.11973 0.78914 0.16439 0.0
C1479 C 0.10696 0.79226 0.11377 0.0
N1480 N 0.09239 0.78692 0.99642 0.0
N1481 N 0.14682 0.77873 0.1881 0.0
C1482 C 0.10368 0.78275 0.04612 0.0
C1483 C 0.13167 0.77887 0.14429 0.0
N1484 N 0.10808 0.75797 0.96923 0.0
N1485 N 0.11984 0.7954 0.2322 0.0
H1486 H 0.15513 0.77047 0.17651 0.0
H1487 H 0.15211 0.78778 0.23406 0.0
H1488 H 0.11093 0.8026 0.24887 0.0
H1489 H 0.1271 0.79172 0.2732 0.0
H1490 H 0.09559 0.75584 0.93583 0.0
H1491 H 0.1151 0.74865 0.95528 0.0
H1492 H 0.09188 0.78285 0.94383 0.0
H1493 H 0.08466 0.79582 0.0063 0.0
C1494 C 0.31196 0.19883 0.48803 0.0
C1495 C 0.30584 0.20034 0.41845 0.0
C1496 C 0.34407 0.22216 0.38469 0.0
C1497 C 0.35014 0.22152 0.45506 0.0
N1498 N 0.3401 0.21392 0.57664 0.0
N1499 N 0.31547 0.21739 0.30501 0.0
C1500 C 0.33413 0.21134 0.50772 0.0
C1501 C 0.32174 0.2133 0.36817 0.0
N1502 N 0.2969 0.18445 0.53407 0.0
N1503 N 0.35941 0.22999 0.33291 0.0
H1504 H 0.2992 0.21129 0.29159 0.0
H1505 H 0.32634 0.22847 0.26887 0.0
H1506 H 0.37594 0.23635 0.34226 0.0
H1507 H 0.35558 0.22849 0.27983 0.0
H1508 H 0.30092 0.18096 0.5829 0.0
H1509 H 0.28059 0.17449 0.52128 0.0
H1510 H 0.32897 0.20867 0.6177 0.0
H1511 H 0.35622 0.22324 0.59291 0.0
C1512 C 0.77293 0.11815 0.36442 0.0
C1513 C 0.77095 0.12225 0.43605 0.0
C1514 C 0.79259 0.10564 0.47009 0.0
C1515 C 0.7938 0.10078 0.39867 0.0
N1516 N 0.78032 0.097 0.28083 0.0
N1517 N 0.77389 0.11496 0.55756 0.0
C1518 C 0.78234 0.10525 0.34682 0.0
C1519 C 0.77916 0.11436 0.4891 0.0
N1520 N 0.7673 0.12778 0.31295 0.0
N1521 N 0.80529 0.10333 0.51914 0.0
H1522 H 0.76379 0.12096 0.57309 0.0
H1523 H 0.77768 0.10755 0.59785 0.0
H1524 H 0.81568 0.09739 0.50758 0.0
H1525 H 0.8069 0.10903 0.57029 0.0
H1526 H 0.77071 0.12726 0.26017 0.0
H1527 H 0.7611 0.13804 0.32308 0.0
H1528 H 0.7704 0.098 0.24262 0.0
H1529 H 0.78677 0.08718 0.26666 0.0
C1530 C 0.89685 0.67865 0.3976 0.0
C1531 C 0.88553 0.69042 0.39704 0.0
C1532 C 0.85185 0.65719 0.4258 0.0
C1533 C 0.86363 0.64615 0.43644 0.0
N1534 N 0.89844 0.64798 0.44582 0.0
N1535 N 0.85345 0.69181 0.43155 0.0
C1536 C 0.88647 0.65729 0.42603 0.0
C1537 C 0.86337 0.67999 0.41719 0.0
N1538 N 0.9171 0.68742 0.36873 0.0
N1539 N 0.8297 0.64593 0.4205 0.0
H1540 H 0.86161 0.70875 0.43115 0.0
H1541 H 0.83782 0.68484 0.45236 0.0
H1542 H 0.82054 0.62901 0.42099 0.0
H1543 H 0.82074 0.65334 0.40676 0.0
H1544 H 0.9251 0.67862 0.36192 0.0
H1545 H 0.92496 0.70266 0.34493 0.0
H1546 H 0.91537 0.65635 0.44547 0.0
H1547 H 0.89164 0.63276 0.46949 0.0
C1548 C 0.80566 0.68697 0.97649 0.0
C1549 C 0.79953 0.69393 0.91546 0.0
C1550 C 0.77085 0.65661 0.8912 0.0
C1551 C 0.77676 0.64967 0.95299 0.0
N1552 N 0.7957 0.65868 0.06338 0.0
N1553 N 0.77385 0.68678 0.82277 0.0
C1554 C 0.79298 0.66501 0.99836 0.0
C1555 C 0.78121 0.6792 0.87568 0.0
N1556 N 0.82385 0.70125 0.01283 0.0
N1557 N 0.7564 0.64165 0.84505 0.0
H1558 H 0.78151 0.70314 0.80853 0.0
H1559 H 0.75921 0.67723 0.79675 0.0
H1560 H 0.74834 0.62496 0.85402 0.0
H1561 H 0.75354 0.6456 0.79522 0.0
H1562 H 0.83065 0.6966 0.05271 0.0
H1563 H 0.833 0.71772 0.00039 0.0
H1564 H 0.80579 0.66945 0.10158 0.0
H1565 H 0.78621 0.64282 0.08185 0.0
C1566 C 0.33772 0.13694 0.89298 0.0
C1567 C 0.34548 0.12646 0.93801 0.0
C1568 C 0.30983 0.09334 0.93374 0.0
C1569 C 0.30135 0.10496 0.89777 0.0
N1570 N 0.30659 0.13948 0.85648 0.0
N1571 N 0.33821 0.0955 0.00933 0.0
C1572 C 0.31511 0.1272 0.88063 0.0
C1573 C 0.3314 0.1048 0.96037 0.0
N1574 N 0.35199 0.15587 0.86005 0.0
N1575 N 0.29753 0.07128 0.9407 0.0
H1576 H 0.35375 0.10346 0.03102 0.0
H1577 H 0.32786 0.08063 0.033 0.0
H1578 H 0.28186 0.06228 0.92032 0.0
H1579 H 0.30361 0.06172 0.9604 0.0
H1580 H 0.34725 0.16305 0.82159 0.0
H1581 H 0.3688 0.16304 0.86517 0.0
H1582 H 0.31584 0.15628 0.85027 0.0
H1583 H 0.29 0.13348 0.84989 0.0
C1584 C 0.87469 0.19011 0.95644 0.0
C1585 C 0.8912 0.20001 0.90509 0.0
C1586 C 0.88671 0.23202 0.90594 0.0
C1587 C 0.86786 0.22053 0.94807 0.0
N1588 N 0.84156 0.18667 0.00271 0.0
N1589 N 0.91172 0.22962 0.82505 0.0
C1590 C 0.86127 0.1991 0.97108 0.0
C1591 C 0.89707 0.22088 0.87857 0.0
N1592 N 0.87215 0.17237 0.99257 0.0
N1593 N 0.89498 0.25369 0.89344 0.0
H1594 H 0.91953 0.2219 0.80319 0.0
H1595 H 0.91478 0.24367 0.79848 0.0
H1596 H 0.88809 0.26245 0.91416 0.0
H1597 H 0.90982 0.26338 0.86862 0.0
H1598 H 0.86169 0.16578 0.03518 0.0
H1599 H 0.88222 0.16578 0.98516 0.0
H1600 H 0.83515 0.1702 0.01331 0.0
H1601 H 0.83051 0.19198 0.01185 0.0
C1602 C 0.67279 0.79472 0.65575 0.0
C1603 C 0.68814 0.79745 0.60339 0.0
C1604 C 0.65896 0.77898 0.51731 0.0
C1605 C 0.64374 0.77673 0.56919 0.0
N1606 N 0.63486 0.77807 0.69012 0.0
N1607 N 0.69576 0.78774 0.48987 0.0
C1608 C 0.65026 0.78316 0.63936 0.0
C1609 C 0.68119 0.78804 0.53597 0.0
N1610 N 0.67985 0.80351 0.7208 0.0
N1611 N 0.65223 0.77319 0.44965 0.0
H1612 H 0.71226 0.79458 0.50072 0.0
H1613 H 0.69134 0.77923 0.44278 0.0
H1614 H 0.63592 0.7656 0.43489 0.0
H1615 H 0.66278 0.77695 0.40746 0.0
H1616 H 0.66993 0.80461 0.75872 0.0
H1617 H 0.69603 0.81046 0.73647 0.0
H1618 H 0.63827 0.7804 0.7434 0.0
H1619 H 0.61825 0.76993 0.67947 0.0
C1620 C 0.19199 0.87575 0.52843 0.0
C1621 C 0.1969 0.88765 0.59181 0.0
C1622 C 0.22348 0.87672 0.62248 0.0
C1623 C 0.21893 0.86519 0.55813 0.0
N1624 N 0.20338 0.85841 0.44236 0.0
N1625 N 0.22002 0.90342 0.69221 0.0
C1626 C 0.20454 0.86614 0.50874 0.0
C1627 C 0.21362 0.88949 0.63648 0.0
N1628 N 0.17489 0.87304 0.48821 0.0
N1629 N 0.23612 0.87446 0.67195 0.0
H1630 H 0.21276 0.91266 0.70455 0.0
H1631 H 0.23362 0.90721 0.72261 0.0
H1632 H 0.24378 0.8654 0.66406 0.0
H1633 H 0.23777 0.88027 0.72294 0.0
H1634 H 0.16897 0.8625 0.44562 0.0
H1635 H 0.16555 0.88018 0.50033 0.0
H1636 H 0.19476 0.86051 0.40198 0.0
H1637 H 0.21283 0.8518 0.42562 0.0
C1638 C 0.11493 0.34504 0.56327 0.0
C1639 C 0.13777 0.35606 0.55278 0.0
C1640 C 0.1379 0.32223 0.57383 0.0
C1641 C 0.11576 0.31198 0.59419 0.0
N1642 N 0.08413 0.31503 0.62046 0.0
N1643 N 0.17165 0.35617 0.56831 0.0
C1644 C 0.10446 0.32374 0.59227 0.0
C1645 C 0.14948 0.34497 0.56384 0.0
N1646 N 0.10308 0.35444 0.54311 0.0
N1647 N 0.14773 0.31024 0.56071 0.0
H1648 H 0.18089 0.37307 0.56633 0.0
H1649 H 0.1806 0.3488 0.58264 0.0
H1650 H 0.1395 0.29331 0.5624 0.0
H1651 H 0.16332 0.317 0.53974 0.0
H1652 H 0.08616 0.3462 0.54338 0.0
H1653 H 0.11 0.36967 0.51939 0.0
H1654 H 0.0761 0.32383 0.6265 0.0
H1655 H 0.07616 0.29979 0.64421 0.0
C1656 C 0.00777 0.56187 0.7527 0.0
C1657 C 0.0178 0.54927 0.76678 0.0
C1658 C 0.98283 0.51601 0.75249 0.0
C1659 C 0.97351 0.52841 0.72847 0.0
N1660 N 0.97814 0.56324 0.69485 0.0
N1661 N 0.0157 0.51421 0.76105 0.0
C1662 C 0.98623 0.55141 0.72566 0.0
C1663 C 0.00558 0.52629 0.76144 0.0
N1664 N 0.01839 0.58358 0.76762 0.0
N1665 N 0.96997 0.49457 0.76942 0.0
H1666 H 0.03253 0.52103 0.76228 0.0
H1667 H 0.00748 0.49757 0.75083 0.0
H1668 H 0.95305 0.48653 0.76723 0.0
H1669 H 0.97601 0.48551 0.79351 0.0
H1670 H 0.01099 0.59304 0.76469 0.0
H1671 H 0.03387 0.59171 0.7897 0.0
H1672 H 0.98756 0.57984 0.68498 0.0
H1673 H 0.96261 0.55617 0.67321 0.0
C1674 C 0.47062 0.47757 0.79257 0.0
C1675 C 0.44775 0.46809 0.78589 0.0
C1676 C 0.44606 0.43671 0.72614 0.0
C1677 C 0.46853 0.44524 0.73961 0.0
N1678 N 0.50053 0.47077 0.80379 0.0
N1679 N 0.41307 0.43664 0.75902 0.0
C1680 C 0.48033 0.46478 0.77826 0.0
C1681 C 0.43524 0.44705 0.75635 0.0
N1682 N 0.48335 0.4991 0.80863 0.0
N1683 N 0.43523 0.41937 0.68215 0.0
H1684 H 0.40459 0.44347 0.78235 0.0
H1685 H 0.40319 0.42046 0.74446 0.0
H1686 H 0.44266 0.41166 0.65762 0.0
H1687 H 0.41944 0.41394 0.66485 0.0
H1688 H 0.50026 0.50709 0.80706 0.0
H1689 H 0.47726 0.50962 0.81562 0.0
H1690 H 0.5089 0.48385 0.83783 0.0
H1691 H 0.50782 0.46127 0.79782 0.0
C1692 C 0.54432 0.98256 0.70795 0.0
C1693 C 0.53232 0.97631 0.77158 0.0
C1694 C 0.54276 0.01415 0.79575 0.0
C1695 C 0.55447 0.02034 0.73184 0.0
N1696 N 0.57051 0.01191 0.63445 0.0
N1697 N 0.52504 0.98638 0.88459 0.0
C1698 C 0.55667 0.005 0.69047 0.0
C1699 C 0.53299 0.99221 0.81805 0.0
N1700 N 0.54297 0.96708 0.66241 0.0
N1701 N 0.54078 0.02922 0.83474 0.0
H1702 H 0.5185 0.97055 0.90344 0.0
H1703 H 0.52684 0.99747 0.92333 0.0
H1704 H 0.54911 0.04577 0.82306 0.0
H1705 H 0.53011 0.02527 0.87673 0.0
H1706 H 0.54891 0.97042 0.61142 0.0
H1707 H 0.53475 0.95054 0.67375 0.0
H1708 H 0.57468 0.00193 0.60659 0.0
H1709 H 0.5792 0.02814 0.61888 0.0
C1710 C 0.45969 0.01237 0.30834 0.0
C1711 C 0.45679 0.01847 0.24018 0.0
C1712 C 0.43269 0.98032 0.20933 0.0
C1713 C 0.43489 0.97427 0.27837 0.0
N1714 N 0.4459 0.98456 0.39813 0.0
N1715 N 0.43671 0.00915 0.13203 0.0
C1716 C 0.44694 0.99034 0.32938 0.0
C1717 C 0.44202 0.00269 0.19268 0.0
N1718 N 0.47552 0.02723 0.3514 0.0
N1719 N 0.42291 0.96485 0.15849 0.0
H1720 H 0.44313 0.02548 0.11873 0.0
H1721 H 0.42443 0.99849 0.0985 0.0
H1722 H 0.41614 0.94826 0.16781 0.0
H1723 H 0.42313 0.96854 0.10564 0.0
H1724 H 0.47998 0.02308 0.39833 0.0
H1725 H 0.48557 0.04346 0.33778 0.0
H1726 H 0.45261 0.99582 0.43866 0.0
H1727 H 0.43647 0.96856 0.41542 0.0
C1728 C 0.00717 0.44791 0.21021 0.0
C1729 C 0.01317 0.45684 0.27863 0.0
C1730 C 0.97526 0.4455 0.30555 0.0
C1731 C 0.96924 0.43617 0.23783 0.0
N1732 N 0.97816 0.4244 0.13095 0.0
N1733 N 0.00285 0.46013 0.39616 0.0
C1734 C 0.98482 0.43612 0.19174 0.0
C1735 C 0.99716 0.45442 0.32777 0.0
N1736 N 0.02282 0.45163 0.16169 0.0
N1737 N 0.96024 0.44662 0.3475 0.0
H1738 H 0.01873 0.46641 0.4143 0.0
H1739 H 0.99165 0.4568 0.4361 0.0
H1740 H 0.94392 0.43983 0.33377 0.0
H1741 H 0.96416 0.45554 0.39376 0.0
H1742 H 0.01957 0.44804 0.10871 0.0
H1743 H 0.03938 0.45978 0.17296 0.0
H1744 H 0.9884 0.42174 0.09862 0.0
H1745 H 0.96189 0.41571 0.11565 0.0
C1746 C 0.53244 0.52226 0.2474 0.0
C1747 C 0.55449 0.53324 0.22576 0.0
C1748 C 0.55743 0.56804 0.25785 0.0
C1749 C 0.53473 0.55714 0.27084 0.0
N1750 N 0.49979 0.52443 0.25748 0.0
N1751 N 0.58692 0.56705 0.19756 0.0
C1752 C 0.52196 0.53441 0.2597 0.0
C1753 C 0.56675 0.5563 0.22737 0.0
N1754 N 0.52167 0.50037 0.25958 0.0
N1755 N 0.57024 0.58928 0.27699 0.0
H1756 H 0.59405 0.55908 0.17274 0.0
H1757 H 0.59563 0.58386 0.19128 0.0
H1758 H 0.56414 0.59827 0.30124 0.0
H1759 H 0.58715 0.59731 0.27505 0.0
H1760 H 0.50622 0.49217 0.28194 0.0
H1761 H 0.52896 0.49082 0.25541 0.0
H1762 H 0.49001 0.5082 0.24307 0.0
H1763 H 0.4913 0.53284 0.26149 0.0
loop_
_geom_bond_atom_site_label_1
_geom_bond_atom_site_label_2
_geom_bond_distance
_geom_bond_site_symmetry_2
_ccdc_geom_bond_type
In0 O1 2.294 . S
In0 O2 2.326 . S
In0 O6 2.266 . S
In0 O7 2.326 . S
In0 O8 2.266 . S
In0 O9 2.326 . S
In0 O11 2.294 . S
In0 O12 2.326 . S
O1 In0 2.294 . S
O1 C10 1.240 . S
O2 In0 2.326 . S
O2 C10 1.252 . S
C3 O6 1.252 . S
C3 O7 1.260 . S
C4 O11 1.240 . S
C4 O12 1.252 . S
C5 O8 1.252 . S
C5 O9 1.260 . S
O6 In0 2.266 . S
O6 C3 1.252 . S
O7 In0 2.326 . S
O7 C3 1.260 . S
O8 In0 2.266 . S
O8 C5 1.252 . S
O9 In0 2.326 . S
O9 C5 1.260 . S
C10 O1 1.240 . S
C10 O2 1.252 . S
O11 In0 2.294 . S
O11 C4 1.240 . S
O12 In0 2.326 . S
O12 C4 1.252 . S
In13 O14 2.294 . S
In13 O15 2.326 . S
In13 O19 2.266 . S
In13 O20 2.326 . S
In13 O21 2.266 . S
In13 O22 2.326 . S
In13 O24 2.294 . S
In13 O25 2.326 . S
O14 In13 2.294 . S
O14 C23 1.240 . S
O15 In13 2.326 . S
O15 C23 1.252 . S
C16 O19 1.252 . S
C16 O20 1.260 . S
C17 O24 1.240 . S
C17 O25 1.252 . S
C18 O21 1.252 . S
C18 O22 1.260 . S
O19 In13 2.266 . S
O19 C16 1.252 . S
O20 In13 2.326 . S
O20 C16 1.260 . S
O21 In13 2.266 . S
O21 C18 1.252 . S
O22 In13 2.326 . S
O22 C18 1.260 . S
C23 O14 1.240 . S
C23 O15 1.252 . S
O24 In13 2.294 . S
O24 C17 1.240 . S
O25 In13 2.326 . S
O25 C17 1.252 . S
In26 O27 2.294 . S
In26 O28 2.326 . S
In26 O32 2.266 . S
In26 O33 2.326 . S
In26 O34 2.266 . S
In26 O35 2.326 . S
In26 O37 2.294 . S
In26 O38 2.326 . S
O27 In26 2.294 . S
O27 C36 1.240 . S
O28 In26 2.326 . S
O28 C36 1.252 . S
C29 O32 1.252 . S
C29 O33 1.260 . S
C30 O37 1.240 . S
C30 O38 1.252 . S
C31 O34 1.252 . S
C31 O35 1.260 . S
O32 In26 2.266 . S
O32 C29 1.252 . S
O33 In26 2.326 . S
O33 C29 1.260 . S
O34 In26 2.266 . S
O34 C31 1.252 . S
O35 In26 2.326 . S
O35 C31 1.260 . S
C36 O27 1.240 . S
C36 O28 1.252 . S
O37 In26 2.294 . S
O37 C30 1.240 . S
O38 In26 2.326 . S
O38 C30 1.252 . S
In39 O40 2.294 . S
In39 O41 2.326 . S
In39 O45 2.266 . S
In39 O46 2.326 . S
In39 O47 2.266 . S
In39 O48 2.326 . S
In39 O50 2.294 . S
In39 O51 2.326 . S
O40 In39 2.294 . S
O40 C49 1.240 . S
O41 In39 2.326 . S
O41 C49 1.252 . S
C42 O45 1.252 . S
C42 O46 1.260 . S
C43 O50 1.240 . S
C43 O51 1.252 . S
C44 O47 1.252 . S
C44 O48 1.260 . S
O45 In39 2.266 . S
O45 C42 1.252 . S
O46 In39 2.326 . S
O46 C42 1.260 . S
O47 In39 2.266 . S
O47 C44 1.252 . S
O48 In39 2.326 . S
O48 C44 1.260 . S
C49 O40 1.240 . S
C49 O41 1.252 . S
O50 In39 2.294 . S
O50 C43 1.240 . S
O51 In39 2.326 . S
O51 C43 1.252 . S
In52 O53 2.294 . S
In52 O54 2.326 . S
In52 O58 2.266 . S
In52 O59 2.326 . S
In52 O60 2.266 . S
In52 O61 2.326 . S
In52 O63 2.294 . S
In52 O64 2.326 . S
O53 In52 2.294 . S
O53 C62 1.240 . S
O54 In52 2.326 . S
O54 C62 1.252 . S
C55 O58 1.252 . S
C55 O59 1.260 . S
C56 O63 1.240 . S
C56 O64 1.252 . S
C57 O60 1.252 . S
C57 O61 1.260 . S
O58 In52 2.266 . S
O58 C55 1.252 . S
O59 In52 2.326 . S
O59 C55 1.260 . S
O60 In52 2.266 . S
O60 C57 1.252 . S
O61 In52 2.326 . S
O61 C57 1.260 . S
C62 O53 1.240 . S
C62 O54 1.252 . S
O63 In52 2.294 . S
O63 C56 1.240 . S
O64 In52 2.326 . S
O64 C56 1.252 . S
In65 O66 2.294 . S
In65 O67 2.326 . S
In65 O71 2.266 . S
In65 O72 2.326 . S
In65 O73 2.266 . S
In65 O74 2.326 . S
In65 O76 2.294 . S
In65 O77 2.326 . S
O66 In65 2.294 . S
O66 C75 1.240 . S
O67 In65 2.326 . S
O67 C75 1.252 . S
C68 O71 1.252 . S
C68 O72 1.260 . S
C69 O76 1.240 . S
C69 O77 1.252 . S
C70 O73 1.252 . S
C70 O74 1.260 . S
O71 In65 2.266 . S
O71 C68 1.252 . S
O72 In65 2.326 . S
O72 C68 1.260 . S
O73 In65 2.266 . S
O73 C70 1.252 . S
O74 In65 2.326 . S
O74 C70 1.260 . S
C75 O66 1.240 . S
C75 O67 1.252 . S
O76 In65 2.294 . S
O76 C69 1.240 . S
O77 In65 2.326 . S
O77 C69 1.252 . S
In78 O79 2.294 . S
In78 O80 2.326 . S
In78 O84 2.266 . S
In78 O85 2.326 . S
In78 O86 2.266 . S
In78 O87 2.326 . S
In78 O89 2.294 . S
In78 O90 2.326 . S
O79 In78 2.294 . S
O79 C88 1.240 . S
O80 In78 2.326 . S
O80 C88 1.252 . S
C81 O84 1.252 . S
C81 O85 1.260 . S
C82 O89 1.240 . S
C82 O90 1.252 . S
C83 O86 1.252 . S
C83 O87 1.260 . S
O84 In78 2.266 . S
O84 C81 1.252 . S
O85 In78 2.326 . S
O85 C81 1.260 . S
O86 In78 2.266 . S
O86 C83 1.252 . S
O87 In78 2.326 . S
O87 C83 1.260 . S
C88 O79 1.240 . S
C88 O80 1.252 . S
O89 In78 2.294 . S
O89 C82 1.240 . S
O90 In78 2.326 . S
O90 C82 1.252 . S
In91 O92 2.294 . S
In91 O93 2.326 . S
In91 O97 2.266 . S
In91 O98 2.326 . S
In91 O99 2.266 . S
In91 O100 2.326 . S
In91 O102 2.294 . S
In91 O103 2.326 . S
O92 In91 2.294 . S
O92 C101 1.240 . S
O93 In91 2.326 . S
O93 C101 1.252 . S
C94 O97 1.252 . S
C94 O98 1.260 . S
C95 O102 1.240 . S
C95 O103 1.252 . S
C96 O99 1.252 . S
C96 O100 1.260 . S
O97 In91 2.266 . S
O97 C94 1.252 . S
O98 In91 2.326 . S
O98 C94 1.260 . S
O99 In91 2.266 . S
O99 C96 1.252 . S
O100 In91 2.326 . S
O100 C96 1.260 . S
C101 O92 1.240 . S
C101 O93 1.252 . S
O102 In91 2.294 . S
O102 C95 1.240 . S
O103 In91 2.326 . S
O103 C95 1.252 . S
In104 O105 2.294 . S
In104 O106 2.326 . S
In104 O110 2.266 . S
In104 O111 2.326 . S
In104 O112 2.266 . S
In104 O113 2.326 . S
In104 O115 2.294 . S
In104 O116 2.326 . S
O105 In104 2.294 . S
O105 C114 1.240 . S
O106 In104 2.326 . S
O106 C114 1.252 . S
C107 O110 1.252 . S
C107 O111 1.260 . S
C108 O115 1.240 . S
C108 O116 1.252 . S
C109 O112 1.252 . S
C109 O113 1.260 . S
O110 In104 2.266 . S
O110 C107 1.252 . S
O111 In104 2.326 . S
O111 C107 1.260 . S
O112 In104 2.266 . S
O112 C109 1.252 . S
O113 In104 2.326 . S
O113 C109 1.260 . S
C114 O105 1.240 . S
C114 O106 1.252 . S
O115 In104 2.294 . S
O115 C108 1.240 . S
O116 In104 2.326 . S
O116 C108 1.252 . S
In117 O118 2.294 . S
In117 O119 2.326 . S
In117 O123 2.266 . S
In117 O124 2.326 . S
In117 O125 2.266 . S
In117 O126 2.326 . S
In117 O128 2.294 . S
In117 O129 2.326 . S
O118 In117 2.294 . S
O118 C127 1.240 . S
O119 In117 2.326 . S
O119 C127 1.252 . S
C120 O123 1.252 . S
C120 O124 1.260 . S
C121 O128 1.240 . S
C121 O129 1.252 . S
C122 O125 1.252 . S
C122 O126 1.260 . S
O123 In117 2.266 . S
O123 C120 1.252 . S
O124 In117 2.326 . S
O124 C120 1.260 . S
O125 In117 2.266 . S
O125 C122 1.252 . S
O126 In117 2.326 . S
O126 C122 1.260 . S
C127 O118 1.240 . S
C127 O119 1.252 . S
O128 In117 2.294 . S
O128 C121 1.240 . S
O129 In117 2.326 . S
O129 C121 1.252 . S
In130 O131 2.294 . S
In130 O132 2.326 . S
In130 O136 2.266 . S
In130 O137 2.326 . S
In130 O138 2.266 . S
In130 O139 2.326 . S
In130 O141 2.294 . S
In130 O142 2.326 . S
O131 In130 2.294 . S
O131 C140 1.240 . S
O132 In130 2.326 . S
O132 C140 1.252 . S
C133 O136 1.252 . S
C133 O137 1.260 . S
C134 O141 1.240 . S
C134 O142 1.252 . S
C135 O138 1.252 . S
C135 O139 1.260 . S
O136 In130 2.266 . S
O136 C133 1.252 . S
O137 In130 2.326 . S
O137 C133 1.260 . S
O138 In130 2.266 . S
O138 C135 1.252 . S
O139 In130 2.326 . S
O139 C135 1.260 . S
C140 O131 1.240 . S
C140 O132 1.252 . S
O141 In130 2.294 . S
O141 C134 1.240 . S
O142 In130 2.326 . S
O142 C134 1.252 . S
In143 O144 2.294 . S
In143 O145 2.326 . S
In143 O149 2.266 . S
In143 O150 2.326 . S
In143 O151 2.266 . S
In143 O152 2.326 . S
In143 O154 2.294 . S
In143 O155 2.326 . S
O144 In143 2.294 . S
O144 C153 1.240 . S
O145 In143 2.326 . S
O145 C153 1.252 . S
C146 O149 1.252 . S
C146 O150 1.260 . S
C147 O154 1.240 . S
C147 O155 1.252 . S
C148 O151 1.252 . S
C148 O152 1.260 . S
O149 In143 2.266 . S
O149 C146 1.252 . S
O150 In143 2.326 . S
O150 C146 1.260 . S
O151 In143 2.266 . S
O151 C148 1.252 . S
O152 In143 2.326 . S
O152 C148 1.260 . S
C153 O144 1.240 . S
C153 O145 1.252 . S
O154 In143 2.294 . S
O154 C147 1.240 . S
O155 In143 2.326 . S
O155 C147 1.252 . S
In156 O157 2.294 . S
In156 O158 2.326 . S
In156 O162 2.266 . S
In156 O163 2.326 . S
In156 O164 2.266 . S
In156 O165 2.326 . S
In156 O167 2.294 . S
In156 O168 2.326 . S
O157 In156 2.294 . S
O157 C166 1.240 . S
O158 In156 2.326 . S
O158 C166 1.252 . S
C159 O162 1.252 . S
C159 O163 1.260 . S
C160 O167 1.240 . S
C160 O168 1.252 . S
C161 O164 1.252 . S
C161 O165 1.260 . S
O162 In156 2.266 . S
O162 C159 1.252 . S
O163 In156 2.326 . S
O163 C159 1.260 . S
O164 In156 2.266 . S
O164 C161 1.252 . S
O165 In156 2.326 . S
O165 C161 1.260 . S
C166 O157 1.240 . S
C166 O158 1.252 . S
O167 In156 2.294 . S
O167 C160 1.240 . S
O168 In156 2.326 . S
O168 C160 1.252 . S
In169 O170 2.294 . S
In169 O171 2.326 . S
In169 O175 2.266 . S
In169 O176 2.326 . S
In169 O177 2.266 . S
In169 O178 2.326 . S
In169 O180 2.294 . S
In169 O181 2.326 . S
O170 In169 2.294 . S
O170 C179 1.240 . S
O171 In169 2.326 . S
O171 C179 1.252 . S
C172 O175 1.252 . S
C172 O176 1.260 . S
C173 O180 1.240 . S
C173 O181 1.252 . S
C174 O177 1.252 . S
C174 O178 1.260 . S
O175 In169 2.266 . S
O175 C172 1.252 . S
O176 In169 2.326 . S
O176 C172 1.260 . S
O177 In169 2.266 . S
O177 C174 1.252 . S
O178 In169 2.326 . S
O178 C174 1.260 . S
C179 O170 1.240 . S
C179 O171 1.252 . S
O180 In169 2.294 . S
O180 C173 1.240 . S
O181 In169 2.326 . S
O181 C173 1.252 . S
In182 O183 2.294 . S
In182 O184 2.326 . S
In182 O188 2.266 . S
In182 O189 2.326 . S
In182 O190 2.266 . S
In182 O191 2.326 . S
In182 O193 2.294 . S
In182 O194 2.326 . S
O183 In182 2.294 . S
O183 C192 1.240 . S
O184 In182 2.326 . S
O184 C192 1.252 . S
C185 O188 1.252 . S
C185 O189 1.260 . S
C186 O193 1.240 . S
C186 O194 1.252 . S
C187 O190 1.252 . S
C187 O191 1.260 . S
O188 In182 2.266 . S
O188 C185 1.252 . S
O189 In182 2.326 . S
O189 C185 1.260 . S
O190 In182 2.266 . S
O190 C187 1.252 . S
O191 In182 2.326 . S
O191 C187 1.260 . S
C192 O183 1.240 . S
C192 O184 1.252 . S
O193 In182 2.294 . S
O193 C186 1.240 . S
O194 In182 2.326 . S
O194 C186 1.252 . S
In195 O196 2.294 . S
In195 O197 2.326 . S
In195 O201 2.266 . S
In195 O202 2.326 . S
In195 O203 2.266 . S
In195 O204 2.326 . S
In195 O206 2.294 . S
In195 O207 2.326 . S
O196 In195 2.294 . S
O196 C205 1.240 . S
O197 In195 2.326 . S
O197 C205 1.252 . S
C198 O201 1.252 . S
C198 O202 1.260 . S
C199 O206 1.240 . S
C199 O207 1.252 . S
C200 O203 1.252 . S
C200 O204 1.260 . S
O201 In195 2.266 . S
O201 C198 1.252 . S
O202 In195 2.326 . S
O202 C198 1.260 . S
O203 In195 2.266 . S
O203 C200 1.252 . S
O204 In195 2.326 . S
O204 C200 1.260 . S
C205 O196 1.240 . S
C205 O197 1.252 . S
O206 In195 2.294 . S
O206 C199 1.240 . S
O207 In195 2.326 . S
O207 C199 1.252 . S
In208 O209 2.294 . S
In208 O210 2.326 . S
In208 O214 2.266 . S
In208 O215 2.326 . S
In208 O216 2.266 . S
In208 O217 2.326 . S
In208 O219 2.294 . S
In208 O220 2.326 . S
O209 In208 2.294 . S
O209 C218 1.240 . S
O210 In208 2.326 . S
O210 C218 1.252 . S
C211 O214 1.252 . S
C211 O215 1.260 . S
C212 O219 1.240 . S
C212 O220 1.252 . S
C213 O216 1.252 . S
C213 O217 1.260 . S
O214 In208 2.266 . S
O214 C211 1.252 . S
O215 In208 2.326 . S
O215 C211 1.260 . S
O216 In208 2.266 . S
O216 C213 1.252 . S
O217 In208 2.326 . S
O217 C213 1.260 . S
C218 O209 1.240 . S
C218 O210 1.252 . S
O219 In208 2.294 . S
O219 C212 1.240 . S
O220 In208 2.326 . S
O220 C212 1.252 . S
In221 O222 2.294 . S
In221 O223 2.326 . S
In221 O227 2.266 . S
In221 O228 2.326 . S
In221 O229 2.266 . S
In221 O230 2.326 . S
In221 O232 2.294 . S
In221 O233 2.326 . S
O222 In221 2.294 . S
O222 C231 1.240 . S
O223 In221 2.326 . S
O223 C231 1.252 . S
C224 O227 1.252 . S
C224 O228 1.260 . S
C225 O232 1.240 . S
C225 O233 1.252 . S
C226 O229 1.252 . S
C226 O230 1.260 . S
O227 In221 2.266 . S
O227 C224 1.252 . S
O228 In221 2.326 . S
O228 C224 1.260 . S
O229 In221 2.266 . S
O229 C226 1.252 . S
O230 In221 2.326 . S
O230 C226 1.260 . S
C231 O222 1.240 . S
C231 O223 1.252 . S
O232 In221 2.294 . S
O232 C225 1.240 . S
O233 In221 2.326 . S
O233 C225 1.252 . S
In234 O235 2.294 . S
In234 O236 2.326 . S
In234 O240 2.266 . S
In234 O241 2.326 . S
In234 O242 2.266 . S
In234 O243 2.326 . S
In234 O245 2.294 . S
In234 O246 2.326 . S
O235 In234 2.294 . S
O235 C244 1.240 . S
O236 In234 2.326 . S
O236 C244 1.252 . S
C237 O240 1.252 . S
C237 O241 1.260 . S
C238 O245 1.240 . S
C238 O246 1.252 . S
C239 O242 1.252 . S
C239 O243 1.260 . S
O240 In234 2.266 . S
O240 C237 1.252 . S
O241 In234 2.326 . S
O241 C237 1.260 . S
O242 In234 2.266 . S
O242 C239 1.252 . S
O243 In234 2.326 . S
O243 C239 1.260 . S
C244 O235 1.240 . S
C244 O236 1.252 . S
O245 In234 2.294 . S
O245 C238 1.240 . S
O246 In234 2.326 . S
O246 C238 1.252 . S
In247 O248 2.294 . S
In247 O249 2.326 . S
In247 O253 2.266 . S
In247 O254 2.326 . S
In247 O255 2.266 . S
In247 O256 2.326 . S
In247 O258 2.294 . S
In247 O259 2.326 . S
O248 In247 2.294 . S
O248 C257 1.240 . S
O249 In247 2.326 . S
O249 C257 1.252 . S
C250 O253 1.252 . S
C250 O254 1.260 . S
C251 O258 1.240 . S
C251 O259 1.252 . S
C252 O255 1.252 . S
C252 O256 1.260 . S
O253 In247 2.266 . S
O253 C250 1.252 . S
O254 In247 2.326 . S
O254 C250 1.260 . S
O255 In247 2.266 . S
O255 C252 1.252 . S
O256 In247 2.326 . S
O256 C252 1.260 . S
C257 O248 1.240 . S
C257 O249 1.252 . S
O258 In247 2.294 . S
O258 C251 1.240 . S
O259 In247 2.326 . S
O259 C251 1.252 . S
In260 O261 2.294 . S
In260 O262 2.326 . S
In260 O266 2.266 . S
In260 O267 2.326 . S
In260 O268 2.266 . S
In260 O269 2.326 . S
In260 O271 2.294 . S
In260 O272 2.326 . S
O261 In260 2.294 . S
O261 C270 1.240 . S
O262 In260 2.326 . S
O262 C270 1.252 . S
C263 O266 1.252 . S
C263 O267 1.260 . S
C264 O271 1.240 . S
C264 O272 1.252 . S
C265 O268 1.252 . S
C265 O269 1.260 . S
O266 In260 2.266 . S
O266 C263 1.252 . S
O267 In260 2.326 . S
O267 C263 1.260 . S
O268 In260 2.266 . S
O268 C265 1.252 . S
O269 In260 2.326 . S
O269 C265 1.260 . S
C270 O261 1.240 . S
C270 O262 1.252 . S
O271 In260 2.294 . S
O271 C264 1.240 . S
O272 In260 2.326 . S
O272 C264 1.252 . S
In273 O274 2.297 . S
In273 O275 2.328 . S
In273 O279 2.266 1_554 S
In273 O280 2.323 1_554 S
In273 O281 2.263 1_554 S
In273 O282 2.324 1_554 S
In273 O284 2.294 . S
In273 O285 2.329 . S
O274 In273 2.297 . S
O274 C283 1.240 . S
O275 In273 2.328 . S
O275 C283 1.252 . S
C276 O279 1.252 . S
C276 O280 1.260 . S
C277 O284 1.240 . S
C277 O285 1.252 . S
C278 O281 1.252 . S
C278 O282 1.260 . S
O279 In273 2.266 1_556 S
O279 C276 1.252 . S
O280 In273 2.323 1_556 S
O280 C276 1.260 . S
O281 In273 2.263 1_556 S
O281 C278 1.252 . S
O282 In273 2.324 1_556 S
O282 C278 1.260 . S
C283 O274 1.240 . S
C283 O275 1.252 . S
O284 In273 2.294 . S
O284 C277 1.240 . S
O285 In273 2.329 . S
O285 C277 1.252 . S
In286 O287 2.294 . S
In286 O288 2.329 . S
In286 O292 2.263 1_554 S
In286 O293 2.324 1_554 S
In286 O294 2.266 1_554 S
In286 O295 2.323 1_554 S
In286 O297 2.297 . S
In286 O298 2.328 . S
O287 In286 2.294 . S
O287 C296 1.240 . S
O288 In286 2.329 . S
O288 C296 1.252 . S
C289 O292 1.252 . S
C289 O293 1.260 . S
C290 O297 1.240 . S
C290 O298 1.252 . S
C291 O294 1.252 . S
C291 O295 1.260 . S
O292 In286 2.263 1_556 S
O292 C289 1.252 . S
O293 In286 2.324 1_556 S
O293 C289 1.260 . S
O294 In286 2.266 1_556 S
O294 C291 1.252 . S
O295 In286 2.323 1_556 S
O295 C291 1.260 . S
C296 O287 1.240 . S
C296 O288 1.252 . S
O297 In286 2.297 . S
O297 C290 1.240 . S
O298 In286 2.328 . S
O298 C290 1.252 . S
In299 O300 2.294 . S
In299 O301 2.329 . S
In299 O305 2.263 1_554 S
In299 O306 2.324 1_554 S
In299 O307 2.266 1_554 S
In299 O308 2.323 1_554 S
In299 O310 2.297 . S
In299 O311 2.328 . S
O300 In299 2.294 . S
O300 C309 1.240 . S
O301 In299 2.329 . S
O301 C309 1.252 . S
C302 O305 1.252 . S
C302 O306 1.260 . S
C303 O310 1.240 . S
C303 O311 1.252 . S
C304 O307 1.252 . S
C304 O308 1.260 . S
O305 In299 2.263 1_556 S
O305 C302 1.252 . S
O306 In299 2.324 1_556 S
O306 C302 1.260 . S
O307 In299 2.266 1_556 S
O307 C304 1.252 . S
O308 In299 2.323 1_556 S
O308 C304 1.260 . S
C309 O300 1.240 . S
C309 O301 1.252 . S
O310 In299 2.297 . S
O310 C303 1.240 . S
O311 In299 2.328 . S
O311 C303 1.252 . S
In312 O313 2.294 . S
In312 O314 2.326 . S
In312 O318 2.266 . S
In312 O319 2.326 . S
In312 O320 2.266 . S
In312 O321 2.326 . S
In312 O323 2.294 . S
In312 O324 2.326 . S
O313 In312 2.294 . S
O313 C322 1.240 . S
O314 In312 2.326 . S
O314 C322 1.252 . S
C315 O318 1.252 . S
C315 O319 1.260 . S
C316 O323 1.240 . S
C316 O324 1.252 . S
C317 O320 1.252 . S
C317 O321 1.260 . S
O318 In312 2.266 . S
O318 C315 1.252 . S
O319 In312 2.326 . S
O319 C315 1.260 . S
O320 In312 2.266 . S
O320 C317 1.252 . S
O321 In312 2.326 . S
O321 C317 1.260 . S
C322 O313 1.240 . S
C322 O314 1.252 . S
O323 In312 2.294 . S
O323 C316 1.240 . S
O324 In312 2.326 . S
O324 C316 1.252 . S
In325 O326 2.294 . S
In325 O327 2.326 . S
In325 O331 2.266 . S
In325 O332 2.326 . S
In325 O333 2.266 . S
In325 O334 2.326 . S
In325 O336 2.294 . S
In325 O337 2.326 . S
O326 In325 2.294 . S
O326 C335 1.240 . S
O327 In325 2.326 . S
O327 C335 1.252 . S
C328 O331 1.252 . S
C328 O332 1.260 . S
C329 O336 1.240 . S
C329 O337 1.252 . S
C330 O333 1.252 . S
C330 O334 1.260 . S
O331 In325 2.266 . S
O331 C328 1.252 . S
O332 In325 2.326 . S
O332 C328 1.260 . S
O333 In325 2.266 . S
O333 C330 1.252 . S
O334 In325 2.326 . S
O334 C330 1.260 . S
C335 O326 1.240 . S
C335 O327 1.252 . S
O336 In325 2.294 . S
O336 C329 1.240 . S
O337 In325 2.326 . S
O337 C329 1.252 . S
In338 O339 2.294 . S
In338 O340 2.326 . S
In338 O344 2.266 . S
In338 O345 2.326 . S
In338 O346 2.266 . S
In338 O347 2.326 . S
In338 O349 2.294 . S
In338 O350 2.326 . S
O339 In338 2.294 . S
O339 C348 1.240 . S
O340 In338 2.326 . S
O340 C348 1.252 . S
C341 O344 1.252 . S
C341 O345 1.260 . S
C342 O349 1.240 . S
C342 O350 1.252 . S
C343 O346 1.252 . S
C343 O347 1.260 . S
O344 In338 2.266 . S
O344 C341 1.252 . S
O345 In338 2.326 . S
O345 C341 1.260 . S
O346 In338 2.266 . S
O346 C343 1.252 . S
O347 In338 2.326 . S
O347 C343 1.260 . S
C348 O339 1.240 . S
C348 O340 1.252 . S
O349 In338 2.294 . S
O349 C342 1.240 . S
O350 In338 2.326 . S
O350 C342 1.252 . S
In351 O352 2.294 . S
In351 O353 2.329 . S
In351 O357 2.263 1_556 S
In351 O358 2.324 1_556 S
In351 O359 2.266 1_556 S
In351 O360 2.323 1_556 S
In351 O362 2.297 . S
In351 O363 2.328 . S
O352 In351 2.294 . S
O352 C361 1.240 . S
O353 In351 2.329 . S
O353 C361 1.252 . S
C354 O357 1.252 . S
C354 O358 1.260 . S
C355 O362 1.240 . S
C355 O363 1.252 . S
C356 O359 1.252 . S
C356 O360 1.260 . S
O357 In351 2.263 1_554 S
O357 C354 1.252 . S
O358 In351 2.324 1_554 S
O358 C354 1.260 . S
O359 In351 2.266 1_554 S
O359 C356 1.252 . S
O360 In351 2.323 1_554 S
O360 C356 1.260 . S
C361 O352 1.240 . S
C361 O353 1.252 . S
O362 In351 2.297 . S
O362 C355 1.240 . S
O363 In351 2.328 . S
O363 C355 1.252 . S
In364 O365 2.297 . S
In364 O366 2.328 . S
In364 O370 2.266 1_556 S
In364 O371 2.323 1_556 S
In364 O372 2.263 1_556 S
In364 O373 2.324 1_556 S
In364 O375 2.294 . S
In364 O376 2.329 . S
O365 In364 2.297 . S
O365 C374 1.240 . S
O366 In364 2.328 . S
O366 C374 1.252 . S
C367 O370 1.252 . S
C367 O371 1.260 . S
C368 O375 1.240 . S
C368 O376 1.252 . S
C369 O372 1.252 . S
C369 O373 1.260 . S
O370 In364 2.266 1_554 S
O370 C367 1.252 . S
O371 In364 2.323 1_554 S
O371 C367 1.260 . S
O372 In364 2.263 1_554 S
O372 C369 1.252 . S
O373 In364 2.324 1_554 S
O373 C369 1.260 . S
C374 O365 1.240 . S
C374 O366 1.252 . S
O375 In364 2.294 . S
O375 C368 1.240 . S
O376 In364 2.329 . S
O376 C368 1.252 . S
In377 O378 2.297 . S
In377 O379 2.328 . S
In377 O383 2.266 1_556 S
In377 O384 2.323 1_556 S
In377 O385 2.263 1_556 S
In377 O386 2.324 1_556 S
In377 O388 2.294 . S
In377 O389 2.329 . S
O378 In377 2.297 . S
O378 C387 1.240 . S
O379 In377 2.328 . S
O379 C387 1.252 . S
C380 O383 1.252 . S
C380 O384 1.260 . S
C381 O388 1.240 . S
C381 O389 1.252 . S
C382 O385 1.252 . S
C382 O386 1.260 . S
O383 In377 2.266 1_554 S
O383 C380 1.252 . S
O384 In377 2.323 1_554 S
O384 C380 1.260 . S
O385 In377 2.263 1_554 S
O385 C382 1.252 . S
O386 In377 2.324 1_554 S
O386 C382 1.260 . S
C387 O378 1.240 . S
C387 O379 1.252 . S
O388 In377 2.294 . S
O388 C381 1.240 . S
O389 In377 2.329 . S
O389 C381 1.252 . S
In390 O391 2.294 . S
In390 O392 2.326 . S
In390 O396 2.266 . S
In390 O397 2.326 . S
In390 O398 2.266 . S
In390 O399 2.326 . S
In390 O401 2.294 . S
In390 O402 2.326 . S
O391 In390 2.294 . S
O391 C400 1.240 . S
O392 In390 2.326 . S
O392 C400 1.252 . S
C393 O396 1.252 . S
C393 O397 1.260 . S
C394 O401 1.240 . S
C394 O402 1.252 . S
C395 O398 1.252 . S
C395 O399 1.260 . S
O396 In390 2.266 . S
O396 C393 1.252 . S
O397 In390 2.326 . S
O397 C393 1.260 . S
O398 In390 2.266 . S
O398 C395 1.252 . S
O399 In390 2.326 . S
O399 C395 1.260 . S
C400 O391 1.240 . S
C400 O392 1.252 . S
O401 In390 2.294 . S
O401 C394 1.240 . S
O402 In390 2.326 . S
O402 C394 1.252 . S
In403 O404 2.294 . S
In403 O405 2.326 . S
In403 O409 2.266 . S
In403 O410 2.326 . S
In403 O411 2.266 . S
In403 O412 2.326 . S
In403 O414 2.294 . S
In403 O415 2.326 . S
O404 In403 2.294 . S
O404 C413 1.240 . S
O405 In403 2.326 . S
O405 C413 1.252 . S
C406 O409 1.252 . S
C406 O410 1.260 . S
C407 O414 1.240 . S
C407 O415 1.252 . S
C408 O411 1.252 . S
C408 O412 1.260 . S
O409 In403 2.266 . S
O409 C406 1.252 . S
O410 In403 2.326 . S
O410 C406 1.260 . S
O411 In403 2.266 . S
O411 C408 1.252 . S
O412 In403 2.326 . S
O412 C408 1.260 . S
C413 O404 1.240 . S
C413 O405 1.252 . S
O414 In403 2.294 . S
O414 C407 1.240 . S
O415 In403 2.326 . S
O415 C407 1.252 . S
In416 O417 2.294 . S
In416 O418 2.326 . S
In416 O422 2.266 . S
In416 O423 2.326 . S
In416 O424 2.266 . S
In416 O425 2.326 . S
In416 O427 2.294 . S
In416 O428 2.326 . S
O417 In416 2.294 . S
O417 C426 1.240 . S
O418 In416 2.326 . S
O418 C426 1.252 . S
C419 O422 1.252 . S
C419 O423 1.260 . S
C420 O427 1.240 . S
C420 O428 1.252 . S
C421 O424 1.252 . S
C421 O425 1.260 . S
O422 In416 2.266 . S
O422 C419 1.252 . S
O423 In416 2.326 . S
O423 C419 1.260 . S
O424 In416 2.266 . S
O424 C421 1.252 . S
O425 In416 2.326 . S
O425 C421 1.260 . S
C426 O417 1.240 . S
C426 O418 1.252 . S
O427 In416 2.294 . S
O427 C420 1.240 . S
O428 In416 2.326 . S
O428 C420 1.252 . S
In429 O430 2.294 . S
In429 O431 2.326 . S
In429 O435 2.266 . S
In429 O436 2.326 . S
In429 O437 2.266 . S
In429 O438 2.326 . S
In429 O440 2.294 . S
In429 O441 2.326 . S
O430 In429 2.294 . S
O430 C439 1.240 . S
O431 In429 2.326 . S
O431 C439 1.252 . S
C432 O435 1.252 . S
C432 O436 1.260 . S
C433 O440 1.240 . S
C433 O441 1.252 . S
C434 O437 1.252 . S
C434 O438 1.260 . S
O435 In429 2.266 . S
O435 C432 1.252 . S
O436 In429 2.326 . S
O436 C432 1.260 . S
O437 In429 2.266 . S
O437 C434 1.252 . S
O438 In429 2.326 . S
O438 C434 1.260 . S
C439 O430 1.240 . S
C439 O431 1.252 . S
O440 In429 2.294 . S
O440 C433 1.240 . S
O441 In429 2.326 . S
O441 C433 1.252 . S
In442 O443 2.294 . S
In442 O444 2.326 . S
In442 O448 2.266 . S
In442 O449 2.326 . S
In442 O450 2.266 . S
In442 O451 2.326 . S
In442 O453 2.294 . S
In442 O454 2.326 . S
O443 In442 2.294 . S
O443 C452 1.240 . S
O444 In442 2.326 . S
O444 C452 1.252 . S
C445 O448 1.252 . S
C445 O449 1.260 . S
C446 O453 1.240 . S
C446 O454 1.252 . S
C447 O450 1.252 . S
C447 O451 1.260 . S
O448 In442 2.266 . S
O448 C445 1.252 . S
O449 In442 2.326 . S
O449 C445 1.260 . S
O450 In442 2.266 . S
O450 C447 1.252 . S
O451 In442 2.326 . S
O451 C447 1.260 . S
C452 O443 1.240 . S
C452 O444 1.252 . S
O453 In442 2.294 . S
O453 C446 1.240 . S
O454 In442 2.326 . S
O454 C446 1.252 . S
In455 O456 2.294 . S
In455 O457 2.326 . S
In455 O461 2.266 . S
In455 O462 2.326 . S
In455 O463 2.266 . S
In455 O464 2.326 . S
In455 O466 2.294 . S
In455 O467 2.326 . S
O456 In455 2.294 . S
O456 C465 1.240 . S
O457 In455 2.326 . S
O457 C465 1.252 . S
C458 O461 1.252 . S
C458 O462 1.260 . S
C459 O466 1.240 . S
C459 O467 1.252 . S
C460 O463 1.252 . S
C460 O464 1.260 . S
O461 In455 2.266 . S
O461 C458 1.252 . S
O462 In455 2.326 . S
O462 C458 1.260 . S
O463 In455 2.266 . S
O463 C460 1.252 . S
O464 In455 2.326 . S
O464 C460 1.260 . S
C465 O456 1.240 . S
C465 O457 1.252 . S
O466 In455 2.294 . S
O466 C459 1.240 . S
O467 In455 2.326 . S
O467 C459 1.252 . S
C468 C469 1.363 . S
C468 C474 1.379 . S
C468 N476 1.356 . S
C469 C468 1.363 . S
C469 C475 1.363 . S
C470 C471 1.363 . S
C470 C475 1.379 . S
C470 N477 1.356 . S
C471 C470 1.363 . S
C471 C474 1.363 . S
N472 C474 1.356 . S
N472 H484 0.984 . S
N472 H485 0.985 . S
N473 C475 1.356 . S
N473 H478 0.984 . S
N473 H479 0.985 . S
C474 C468 1.379 . S
C474 C471 1.363 . S
C474 N472 1.356 . S
C475 C469 1.363 . S
C475 C470 1.379 . S
C475 N473 1.356 . S
N476 C468 1.356 . S
N476 H482 0.984 . S
N476 H483 0.984 . S
N477 C470 1.356 . S
N477 H480 0.984 . S
N477 H481 0.985 . S
H478 N473 0.984 . S
H479 N473 0.985 . S
H480 N477 0.984 . S
H481 N477 0.985 . S
H482 N476 0.984 . S
H483 N476 0.984 . S
H484 N472 0.984 . S
H485 N472 0.985 . S
C486 C487 1.363 . S
C486 C492 1.379 1_545 S
C486 N494 1.356 . S
C487 C486 1.363 . S
C487 C493 1.363 . S
C488 C489 1.363 . S
C488 C493 1.379 1_565 S
C488 N495 1.356 . S
C489 C488 1.363 . S
C489 C492 1.363 . S
N490 C492 1.356 . S
N490 H502 0.984 . S
N490 H503 0.985 . S
N491 C493 1.356 . S
N491 H496 0.984 . S
N491 H497 0.985 . S
C492 C486 1.379 1_565 S
C492 C489 1.363 . S
C492 N490 1.356 . S
C493 C487 1.363 . S
C493 C488 1.379 1_545 S
C493 N491 1.356 . S
N494 C486 1.356 . S
N494 H500 0.984 . S
N494 H501 0.984 . S
N495 C488 1.356 . S
N495 H498 0.984 . S
N495 H499 0.985 . S
H496 N491 0.984 . S
H497 N491 0.985 . S
H498 N495 0.984 . S
H499 N495 0.985 . S
H500 N494 0.984 . S
H501 N494 0.984 . S
H502 N490 0.984 . S
H503 N490 0.985 . S
C504 C505 1.363 . S
C504 C510 1.379 1_655 S
C504 N512 1.356 . S
C505 C504 1.363 . S
C505 C511 1.363 . S
C506 C507 1.363 . S
C506 C511 1.379 1_455 S
C506 N513 1.356 . S
C507 C506 1.363 . S
C507 C510 1.363 . S
N508 C510 1.356 . S
N508 H520 0.984 . S
N508 H521 0.985 . S
N509 C511 1.356 . S
N509 H514 0.984 . S
N509 H515 0.985 . S
C510 C504 1.379 1_455 S
C510 C507 1.363 . S
C510 N508 1.356 . S
C511 C505 1.363 . S
C511 C506 1.379 1_655 S
C511 N509 1.356 . S
N512 C504 1.356 . S
N512 H518 0.984 . S
N512 H519 0.984 . S
N513 C506 1.356 . S
N513 H516 0.984 . S
N513 H517 0.985 . S
H514 N509 0.984 . S
H515 N509 0.985 . S
H516 N513 0.984 . S
H517 N513 0.985 . S
H518 N512 0.984 . S
H519 N512 0.984 . S
H520 N508 0.984 . S
H521 N508 0.985 . S
C522 C523 1.363 . S
C522 C528 1.379 . S
C522 N530 1.356 . S
C523 C522 1.363 . S
C523 C529 1.363 . S
C524 C525 1.363 . S
C524 C529 1.379 . S
C524 N531 1.356 . S
C525 C524 1.363 . S
C525 C528 1.363 . S
N526 C528 1.356 . S
N526 H538 0.984 . S
N526 H539 0.985 . S
N527 C529 1.356 . S
N527 H532 0.984 . S
N527 H533 0.985 . S
C528 C522 1.379 . S
C528 C525 1.363 . S
C528 N526 1.356 . S
C529 C523 1.363 . S
C529 C524 1.379 . S
C529 N527 1.356 . S
N530 C522 1.356 . S
N530 H536 0.984 . S
N530 H537 0.984 . S
N531 C524 1.356 . S
N531 H534 0.984 . S
N531 H535 0.985 . S
H532 N527 0.984 . S
H533 N527 0.985 . S
H534 N531 0.984 . S
H535 N531 0.985 . S
H536 N530 0.984 . S
H537 N530 0.984 . S
H538 N526 0.984 . S
H539 N526 0.985 . S
C540 C541 1.363 . S
C540 C546 1.379 1_545 S
C540 N548 1.356 . S
C541 C540 1.363 . S
C541 C547 1.363 . S
C542 C543 1.363 . S
C542 C547 1.379 1_565 S
C542 N549 1.356 . S
C543 C542 1.363 . S
C543 C546 1.363 . S
N544 C546 1.356 . S
N544 H556 0.984 . S
N544 H557 0.985 . S
N545 C547 1.356 . S
N545 H550 0.984 . S
N545 H551 0.985 . S
C546 C540 1.379 1_565 S
C546 C543 1.363 . S
C546 N544 1.356 . S
C547 C541 1.363 . S
C547 C542 1.379 1_545 S
C547 N545 1.356 . S
N548 C540 1.356 . S
N548 H554 0.984 . S
N548 H555 0.984 . S
N549 C542 1.356 . S
N549 H552 0.984 . S
N549 H553 0.985 . S
H550 N545 0.984 . S
H551 N545 0.985 . S
H552 N549 0.984 . S
H553 N549 0.985 . S
H554 N548 0.984 . S
H555 N548 0.984 . S
H556 N544 0.984 . S
H557 N544 0.985 . S
C558 C559 1.363 . S
C558 C564 1.379 1_455 S
C558 N566 1.356 . S
C559 C558 1.363 . S
C559 C565 1.363 . S
C560 C561 1.363 . S
C560 C565 1.379 1_655 S
C560 N567 1.356 . S
C561 C560 1.363 . S
C561 C564 1.363 . S
N562 C564 1.356 . S
N562 H574 0.984 . S
N562 H575 0.985 . S
N563 C565 1.356 . S
N563 H568 0.984 . S
N563 H569 0.985 . S
C564 C558 1.379 1_655 S
C564 C561 1.363 . S
C564 N562 1.356 . S
C565 C559 1.363 . S
C565 C560 1.379 1_455 S
C565 N563 1.356 . S
N566 C558 1.356 . S
N566 H572 0.984 . S
N566 H573 0.984 . S
N567 C560 1.356 . S
N567 H570 0.984 . S
N567 H571 0.985 . S
H568 N563 0.984 . S
H569 N563 0.985 . S
H570 N567 0.984 . S
H571 N567 0.985 . S
H572 N566 0.984 . S
H573 N566 0.984 . S
H574 N562 0.984 . S
H575 N562 0.985 . S
C576 C577 1.363 . S
C576 C582 1.379 . S
C576 N584 1.356 . S
C577 C576 1.363 . S
C577 C583 1.363 . S
C578 C579 1.363 . S
C578 C583 1.379 . S
C578 N585 1.356 . S
C579 C578 1.363 . S
C579 C582 1.363 . S
N580 C582 1.356 . S
N580 H592 0.984 . S
N580 H593 0.985 . S
N581 C583 1.356 . S
N581 H586 0.984 . S
N581 H587 0.985 . S
C582 C576 1.379 . S
C582 C579 1.363 . S
C582 N580 1.356 . S
C583 C577 1.363 . S
C583 C578 1.379 . S
C583 N581 1.356 . S
N584 C576 1.356 . S
N584 H590 0.984 . S
N584 H591 0.984 . S
N585 C578 1.356 . S
N585 H588 0.984 . S
N585 H589 0.985 . S
H586 N581 0.984 . S
H587 N581 0.985 . S
H588 N585 0.984 . S
H589 N585 0.985 . S
H590 N584 0.984 . S
H591 N584 0.984 . S
H592 N580 0.984 . S
H593 N580 0.985 . S
C594 C595 1.363 . S
C594 C600 1.379 . S
C594 N602 1.356 . S
C595 C594 1.363 . S
C595 C601 1.363 . S
C596 C597 1.363 . S
C596 C601 1.379 . S
C596 N603 1.356 . S
C597 C596 1.363 . S
C597 C600 1.363 . S
N598 C600 1.356 . S
N598 H610 0.984 . S
N598 H611 0.985 . S
N599 C601 1.356 . S
N599 H604 0.984 . S
N599 H605 0.985 . S
C600 C594 1.379 . S
C600 C597 1.363 . S
C600 N598 1.356 . S
C601 C595 1.363 . S
C601 C596 1.379 . S
C601 N599 1.356 . S
N602 C594 1.356 . S
N602 H608 0.984 . S
N602 H609 0.984 . S
N603 C596 1.356 . S
N603 H606 0.984 . S
N603 H607 0.985 . S
H604 N599 0.984 . S
H605 N599 0.985 . S
H606 N603 0.984 . S
H607 N603 0.985 . S
H608 N602 0.984 . S
H609 N602 0.984 . S
H610 N598 0.984 . S
H611 N598 0.985 . S
C612 C613 1.363 . S
C612 C618 1.379 . S
C612 N620 1.356 . S
C613 C612 1.363 . S
C613 C619 1.363 . S
C614 C615 1.363 . S
C614 C619 1.379 . S
C614 N621 1.356 . S
C615 C614 1.363 . S
C615 C618 1.363 . S
N616 C618 1.356 . S
N616 H628 0.984 . S
N616 H629 0.985 . S
N617 C619 1.356 . S
N617 H622 0.984 . S
N617 H623 0.985 . S
C618 C612 1.379 . S
C618 C615 1.363 . S
C618 N616 1.356 . S
C619 C613 1.363 . S
C619 C614 1.379 . S
C619 N617 1.356 . S
N620 C612 1.356 . S
N620 H626 0.984 . S
N620 H627 0.984 . S
N621 C614 1.356 . S
N621 H624 0.984 . S
N621 H625 0.985 . S
H622 N617 0.984 . S
H623 N617 0.985 . S
H624 N621 0.984 . S
H625 N621 0.985 . S
H626 N620 0.984 . S
H627 N620 0.984 . S
H628 N616 0.984 . S
H629 N616 0.985 . S
C630 C631 1.363 . S
C630 C636 1.379 . S
C630 N638 1.356 . S
C631 C630 1.363 . S
C631 C637 1.363 . S
C632 C633 1.363 . S
C632 C637 1.379 . S
C632 N639 1.356 . S
C633 C632 1.363 . S
C633 C636 1.363 . S
N634 C636 1.356 1_556 S
N634 H646 0.984 . S
N634 H647 0.985 . S
N635 C637 1.356 . S
N635 H640 0.984 . S
N635 H641 0.985 . S
C636 C630 1.379 . S
C636 C633 1.363 . S
C636 N634 1.356 1_554 S
C637 C631 1.363 . S
C637 C632 1.379 . S
C637 N635 1.356 . S
N638 C630 1.356 . S
N638 H644 0.984 1_554 S
N638 H645 0.984 . S
N639 C632 1.356 . S
N639 H642 0.984 . S
N639 H643 0.985 . S
H640 N635 0.984 . S
H641 N635 0.985 . S
H642 N639 0.984 . S
H643 N639 0.985 . S
H644 N638 0.984 1_556 S
H645 N638 0.984 . S
H646 N634 0.984 . S
H647 N634 0.985 . S
C648 C649 1.363 . S
C648 C654 1.379 . S
C648 N656 1.356 1_554 S
C649 C648 1.363 . S
C649 C655 1.363 . S
C650 C651 1.363 . S
C650 C655 1.379 . S
C650 N657 1.356 . S
C651 C650 1.363 . S
C651 C654 1.363 . S
N652 C654 1.356 . S
N652 H664 0.984 1_554 S
N652 H665 0.985 . S
N653 C655 1.356 . S
N653 H658 0.984 . S
N653 H659 0.985 . S
C654 C648 1.379 . S
C654 C651 1.363 . S
C654 N652 1.356 . S
C655 C649 1.363 . S
C655 C650 1.379 . S
C655 N653 1.356 . S
N656 C648 1.356 1_556 S
N656 H662 0.984 . S
N656 H663 0.984 . S
N657 C650 1.356 . S
N657 H660 0.984 . S
N657 H661 0.985 . S
H658 N653 0.984 . S
H659 N653 0.985 . S
H660 N657 0.984 . S
H661 N657 0.985 . S
H662 N656 0.984 . S
H663 N656 0.984 . S
H664 N652 0.984 1_556 S
H665 N652 0.985 . S
C666 C667 1.363 . S
C666 C672 1.379 . S
C666 N674 1.356 . S
C667 C666 1.363 . S
C667 C673 1.363 . S
C668 C669 1.363 . S
C668 C673 1.379 . S
C668 N675 1.356 . S
C669 C668 1.363 . S
C669 C672 1.363 . S
N670 C672 1.356 . S
N670 H682 0.984 . S
N670 H683 0.985 . S
N671 C673 1.356 . S
N671 H676 0.984 . S
N671 H677 0.985 . S
C672 C666 1.379 . S
C672 C669 1.363 . S
C672 N670 1.356 . S
C673 C667 1.363 . S
C673 C668 1.379 . S
C673 N671 1.356 . S
N674 C666 1.356 . S
N674 H680 0.984 . S
N674 H681 0.984 . S
N675 C668 1.356 . S
N675 H678 0.984 . S
N675 H679 0.985 . S
H676 N671 0.984 . S
H677 N671 0.985 . S
H678 N675 0.984 . S
H679 N675 0.985 . S
H680 N674 0.984 . S
H681 N674 0.984 . S
H682 N670 0.984 . S
H683 N670 0.985 . S
C684 C685 1.363 . S
C684 C690 1.379 . S
C684 N692 1.356 . S
C685 C684 1.363 . S
C685 C691 1.363 . S
C686 C687 1.363 . S
C686 C691 1.379 . S
C686 N693 1.356 1_556 S
C687 C686 1.363 . S
C687 C690 1.363 . S
N688 C690 1.356 . S
N688 H700 0.984 . S
N688 H701 0.985 . S
N689 C691 1.356 . S
N689 H694 0.984 . S
N689 H695 0.985 1_556 S
C690 C684 1.379 . S
C690 C687 1.363 . S
C690 N688 1.356 . S
C691 C685 1.363 . S
C691 C686 1.379 . S
C691 N689 1.356 . S
N692 C684 1.356 . S
N692 H698 0.984 . S
N692 H699 0.984 . S
N693 C686 1.356 1_554 S
N693 H696 0.984 . S
N693 H697 0.985 . S
H694 N689 0.984 . S
H695 N689 0.985 1_554 S
H696 N693 0.984 . S
H697 N693 0.985 . S
H698 N692 0.984 . S
H699 N692 0.984 . S
H700 N688 0.984 . S
H701 N688 0.985 . S
C702 C703 1.363 . S
C702 C708 1.379 . S
C702 N710 1.356 . S
C703 C702 1.363 . S
C703 C709 1.363 . S
C704 C705 1.363 . S
C704 C709 1.379 . S
C704 N711 1.356 1_556 S
C705 C704 1.363 . S
C705 C708 1.363 . S
N706 C708 1.356 . S
N706 H718 0.984 . S
N706 H719 0.985 . S
N707 C709 1.356 . S
N707 H712 0.984 . S
N707 H713 0.985 1_556 S
C708 C702 1.379 . S
C708 C705 1.363 . S
C708 N706 1.356 . S
C709 C703 1.363 . S
C709 C704 1.379 . S
C709 N707 1.356 . S
N710 C702 1.356 . S
N710 H716 0.984 . S
N710 H717 0.984 . S
N711 C704 1.356 1_554 S
N711 H714 0.984 . S
N711 H715 0.985 . S
H712 N707 0.984 . S
H713 N707 0.985 1_554 S
H714 N711 0.984 . S
H715 N711 0.985 . S
H716 N710 0.984 . S
H717 N710 0.984 . S
H718 N706 0.984 . S
H719 N706 0.985 . S
C720 C721 1.363 . S
C720 C726 1.379 . S
C720 N728 1.356 . S
C721 C720 1.363 . S
C721 C727 1.363 . S
C722 C723 1.363 . S
C722 C727 1.379 . S
C722 N729 1.356 . S
C723 C722 1.363 . S
C723 C726 1.363 . S
N724 C726 1.356 . S
N724 H736 0.984 . S
N724 H737 0.985 . S
N725 C727 1.356 1_554 S
N725 H730 0.984 . S
N725 H731 0.985 . S
C726 C720 1.379 . S
C726 C723 1.363 . S
C726 N724 1.356 . S
C727 C721 1.363 . S
C727 C722 1.379 . S
C727 N725 1.356 1_556 S
N728 C720 1.356 . S
N728 H734 0.984 . S
N728 H735 0.984 . S
N729 C722 1.356 . S
N729 H732 0.984 . S
N729 H733 0.985 1_556 S
H730 N725 0.984 . S
H731 N725 0.985 . S
H732 N729 0.984 . S
H733 N729 0.985 1_554 S
H734 N728 0.984 . S
H735 N728 0.984 . S
H736 N724 0.984 . S
H737 N724 0.985 . S
C738 C739 1.363 . S
C738 C744 1.379 . S
C738 N746 1.356 . S
C739 C738 1.363 . S
C739 C745 1.363 . S
C740 C741 1.363 . S
C740 C745 1.379 . S
C740 N747 1.356 . S
C741 C740 1.363 . S
C741 C744 1.363 . S
N742 C744 1.356 . S
N742 H754 0.984 . S
N742 H755 0.985 . S
N743 C745 1.356 . S
N743 H748 0.984 . S
N743 H749 0.985 . S
C744 C738 1.379 . S
C744 C741 1.363 . S
C744 N742 1.356 . S
C745 C739 1.363 . S
C745 C740 1.379 . S
C745 N743 1.356 . S
N746 C738 1.356 . S
N746 H752 0.984 . S
N746 H753 0.984 . S
N747 C740 1.356 . S
N747 H750 0.984 . S
N747 H751 0.985 . S
H748 N743 0.984 . S
H749 N743 0.985 . S
H750 N747 0.984 . S
H751 N747 0.985 . S
H752 N746 0.984 . S
H753 N746 0.984 . S
H754 N742 0.984 . S
H755 N742 0.985 . S
C756 C757 1.363 . S
C756 C762 1.379 . S
C756 N764 1.356 . S
C757 C756 1.363 . S
C757 C763 1.363 . S
C758 C759 1.363 . S
C758 C763 1.379 . S
C758 N765 1.356 . S
C759 C758 1.363 . S
C759 C762 1.363 . S
N760 C762 1.356 . S
N760 H772 0.984 . S
N760 H773 0.985 . S
N761 C763 1.356 . S
N761 H766 0.984 . S
N761 H767 0.985 . S
C762 C756 1.379 . S
C762 C759 1.363 . S
C762 N760 1.356 . S
C763 C757 1.363 . S
C763 C758 1.379 . S
C763 N761 1.356 . S
N764 C756 1.356 . S
N764 H770 0.984 . S
N764 H771 0.984 . S
N765 C758 1.356 . S
N765 H768 0.984 . S
N765 H769 0.985 . S
H766 N761 0.984 . S
H767 N761 0.985 . S
H768 N765 0.984 . S
H769 N765 0.985 . S
H770 N764 0.984 . S
H771 N764 0.984 . S
H772 N760 0.984 . S
H773 N760 0.985 . S
C774 C775 1.363 . S
C774 C780 1.379 . S
C774 N782 1.356 . S
C775 C774 1.363 . S
C775 C781 1.363 . S
C776 C777 1.363 . S
C776 C781 1.379 . S
C776 N783 1.356 . S
C777 C776 1.363 . S
C777 C780 1.363 . S
N778 C780 1.356 . S
N778 H790 0.984 . S
N778 H791 0.985 . S
N779 C781 1.356 . S
N779 H784 0.984 . S
N779 H785 0.985 . S
C780 C774 1.379 . S
C780 C777 1.363 . S
C780 N778 1.356 . S
C781 C775 1.363 . S
C781 C776 1.379 . S
C781 N779 1.356 . S
N782 C774 1.356 . S
N782 H788 0.984 . S
N782 H789 0.984 . S
N783 C776 1.356 . S
N783 H786 0.984 . S
N783 H787 0.985 . S
H784 N779 0.984 . S
H785 N779 0.985 . S
H786 N783 0.984 . S
H787 N783 0.985 . S
H788 N782 0.984 . S
H789 N782 0.984 . S
H790 N778 0.984 . S
H791 N778 0.985 . S
C792 C793 1.363 . S
C792 C798 1.379 . S
C792 N800 1.356 . S
C793 C792 1.363 . S
C793 C799 1.363 . S
C794 C795 1.363 . S
C794 C799 1.379 . S
C794 N801 1.356 . S
C795 C794 1.363 . S
C795 C798 1.363 . S
N796 C798 1.356 1_554 S
N796 H808 0.984 . S
N796 H809 0.985 . S
N797 C799 1.356 . S
N797 H802 0.984 . S
N797 H803 0.985 . S
C798 C792 1.379 . S
C798 C795 1.363 . S
C798 N796 1.356 1_556 S
C799 C793 1.363 . S
C799 C794 1.379 . S
C799 N797 1.356 . S
N800 C792 1.356 . S
N800 H806 0.984 . S
N800 H807 0.984 . S
N801 C794 1.356 . S
N801 H804 0.984 1_556 S
N801 H805 0.985 . S
H802 N797 0.984 . S
H803 N797 0.985 . S
H804 N801 0.984 1_554 S
H805 N801 0.985 . S
H806 N800 0.984 . S
H807 N800 0.984 . S
H808 N796 0.984 . S
H809 N796 0.985 . S
C810 C811 1.363 . S
C810 C816 1.379 . S
C810 N818 1.356 . S
C811 C810 1.363 . S
C811 C817 1.363 . S
C812 C813 1.363 . S
C812 C817 1.379 . S
C812 N819 1.356 . S
C813 C812 1.363 . S
C813 C816 1.363 . S
N814 C816 1.356 . S
N814 H826 0.984 . S
N814 H827 0.985 . S
N815 C817 1.356 1_554 S
N815 H820 0.984 . S
N815 H821 0.985 . S
C816 C810 1.379 . S
C816 C813 1.363 . S
C816 N814 1.356 . S
C817 C811 1.363 . S
C817 C812 1.379 . S
C817 N815 1.356 1_556 S
N818 C810 1.356 . S
N818 H824 0.984 . S
N818 H825 0.984 . S
N819 C812 1.356 . S
N819 H822 0.984 . S
N819 H823 0.985 . S
H820 N815 0.984 . S
H821 N815 0.985 . S
H822 N819 0.984 . S
H823 N819 0.985 . S
H824 N818 0.984 . S
H825 N818 0.984 . S
H826 N814 0.984 . S
H827 N814 0.985 . S
C828 C829 1.363 . S
C828 C834 1.379 . S
C828 N836 1.356 1_556 S
C829 C828 1.363 . S
C829 C835 1.363 . S
C830 C831 1.363 . S
C830 C835 1.379 . S
C830 N837 1.356 . S
C831 C830 1.363 . S
C831 C834 1.363 . S
N832 C834 1.356 . S
N832 H844 0.984 . S
N832 H845 0.985 . S
N833 C835 1.356 . S
N833 H838 0.984 1_556 S
N833 H839 0.985 . S
C834 C828 1.379 . S
C834 C831 1.363 . S
C834 N832 1.356 . S
C835 C829 1.363 . S
C835 C830 1.379 . S
C835 N833 1.356 . S
N836 C828 1.356 1_554 S
N836 H842 0.984 1_554 S
N836 H843 0.984 . S
N837 C830 1.356 . S
N837 H840 0.984 . S
N837 H841 0.985 . S
H838 N833 0.984 1_554 S
H839 N833 0.985 . S
H840 N837 0.984 . S
H841 N837 0.985 . S
H842 N836 0.984 1_556 S
H843 N836 0.984 . S
H844 N832 0.984 . S
H845 N832 0.985 . S
C846 C847 1.363 . S
C846 C852 1.379 . S
C846 N854 1.356 . S
C847 C846 1.363 . S
C847 C853 1.363 . S
C848 C849 1.363 . S
C848 C853 1.379 . S
C848 N855 1.356 . S
C849 C848 1.363 . S
C849 C852 1.363 . S
N850 C852 1.356 . S
N850 H862 0.984 . S
N850 H863 0.985 . S
N851 C853 1.356 . S
N851 H856 0.984 . S
N851 H857 0.985 . S
C852 C846 1.379 . S
C852 C849 1.363 . S
C852 N850 1.356 . S
C853 C847 1.363 . S
C853 C848 1.379 . S
C853 N851 1.356 . S
N854 C846 1.356 . S
N854 H860 0.984 . S
N854 H861 0.984 . S
N855 C848 1.356 . S
N855 H858 0.984 . S
N855 H859 0.985 . S
H856 N851 0.984 . S
H857 N851 0.985 . S
H858 N855 0.984 . S
H859 N855 0.985 . S
H860 N854 0.984 . S
H861 N854 0.984 . S
H862 N850 0.984 . S
H863 N850 0.985 . S
C864 C865 1.363 . S
C864 C870 1.379 . S
C864 N872 1.356 . S
C865 C864 1.363 . S
C865 C871 1.363 . S
C866 C867 1.363 . S
C866 C871 1.379 . S
C866 N873 1.356 . S
C867 C866 1.363 . S
C867 C870 1.363 . S
N868 C870 1.356 . S
N868 H880 0.984 . S
N868 H881 0.985 . S
N869 C871 1.356 . S
N869 H874 0.984 . S
N869 H875 0.985 . S
C870 C864 1.379 . S
C870 C867 1.363 . S
C870 N868 1.356 . S
C871 C865 1.363 . S
C871 C866 1.379 . S
C871 N869 1.356 . S
N872 C864 1.356 . S
N872 H878 0.984 . S
N872 H879 0.984 . S
N873 C866 1.356 . S
N873 H876 0.984 . S
N873 H877 0.985 . S
H874 N869 0.984 . S
H875 N869 0.985 . S
H876 N873 0.984 . S
H877 N873 0.985 . S
H878 N872 0.984 . S
H879 N872 0.984 . S
H880 N868 0.984 . S
H881 N868 0.985 . S
C882 C883 1.363 . S
C882 C888 1.379 . S
C882 N890 1.356 . S
C883 C882 1.363 . S
C883 C889 1.363 . S
C884 C885 1.363 . S
C884 C889 1.379 . S
C884 N891 1.356 . S
C885 C884 1.363 . S
C885 C888 1.363 . S
N886 C888 1.356 . S
N886 H898 0.984 . S
N886 H899 0.985 . S
N887 C889 1.356 . S
N887 H892 0.984 . S
N887 H893 0.985 . S
C888 C882 1.379 . S
C888 C885 1.363 . S
C888 N886 1.356 . S
C889 C883 1.363 . S
C889 C884 1.379 . S
C889 N887 1.356 . S
N890 C882 1.356 . S
N890 H896 0.984 . S
N890 H897 0.984 . S
N891 C884 1.356 . S
N891 H894 0.984 . S
N891 H895 0.985 . S
H892 N887 0.984 . S
H893 N887 0.985 . S
H894 N891 0.984 . S
H895 N891 0.985 . S
H896 N890 0.984 . S
H897 N890 0.984 . S
H898 N886 0.984 . S
H899 N886 0.985 . S
C900 C901 1.363 . S
C900 C906 1.379 . S
C900 N908 1.356 . S
C901 C900 1.363 . S
C901 C907 1.363 . S
C902 C903 1.363 . S
C902 C907 1.379 . S
C902 N909 1.356 . S
C903 C902 1.363 . S
C903 C906 1.363 . S
N904 C906 1.356 . S
N904 H916 0.984 . S
N904 H917 0.985 . S
N905 C907 1.356 1_556 S
N905 H910 0.984 . S
N905 H911 0.985 . S
C906 C900 1.379 . S
C906 C903 1.363 . S
C906 N904 1.356 . S
C907 C901 1.363 . S
C907 C902 1.379 . S
C907 N905 1.356 1_554 S
N908 C900 1.356 . S
N908 H914 0.984 . S
N908 H915 0.991 . S
N909 C902 1.356 . S
N909 H912 0.984 . S
N909 H913 0.985 . S
H910 N905 0.984 . S
H911 N905 0.985 . S
H912 N909 0.984 . S
H913 N909 0.985 . S
H914 N908 0.984 . S
H915 N908 0.991 . S
H916 N904 0.984 . S
H917 N904 0.985 . S
C918 C919 1.363 . S
C918 C924 1.379 . S
C918 N926 1.356 1_554 S
C919 C918 1.363 . S
C919 C925 1.363 . S
C920 C921 1.363 . S
C920 C925 1.379 . S
C920 N927 1.356 . S
C921 C920 1.363 . S
C921 C924 1.363 . S
N922 C924 1.356 . S
N922 H934 0.984 . S
N922 H935 0.985 . S
N923 C925 1.356 . S
N923 H928 0.984 1_554 S
N923 H929 0.985 . S
C924 C918 1.379 . S
C924 C921 1.363 . S
C924 N922 1.356 . S
C925 C919 1.363 . S
C925 C920 1.379 . S
C925 N923 1.356 . S
N926 C918 1.356 1_556 S
N926 H932 0.985 . S
N926 H933 0.984 . S
N927 C920 1.356 . S
N927 H930 0.984 . S
N927 H931 0.985 . S
H928 N923 0.984 1_556 S
H929 N923 0.985 . S
H930 N927 0.984 . S
H931 N927 0.985 . S
H932 N926 0.985 . S
H933 N926 0.984 . S
H934 N922 0.984 . S
H935 N922 0.985 . S
C936 C937 1.363 . S
C936 C942 1.379 . S
C936 N944 1.356 . S
C937 C936 1.363 . S
C937 C943 1.363 . S
C938 C939 1.363 . S
C938 C943 1.379 . S
C938 N945 1.356 1_554 S
C939 C938 1.363 . S
C939 C942 1.363 . S
N940 C942 1.356 . S
N940 H952 0.984 . S
N940 H953 0.985 1_554 S
N941 C943 1.356 . S
N941 H946 0.984 . S
N941 H947 0.985 . S
C942 C936 1.379 . S
C942 C939 1.363 . S
C942 N940 1.356 . S
C943 C937 1.363 . S
C943 C938 1.379 . S
C943 N941 1.356 . S
N944 C936 1.356 . S
N944 H950 0.984 . S
N944 H951 0.984 . S
N945 C938 1.356 1_556 S
N945 H948 0.984 . S
N945 H949 0.985 . S
H946 N941 0.984 . S
H947 N941 0.985 . S
H948 N945 0.984 . S
H949 N945 0.985 . S
H950 N944 0.984 . S
H951 N944 0.984 . S
H952 N940 0.984 . S
H953 N940 0.985 1_556 S
C954 C955 1.363 . S
C954 C960 1.379 . S
C954 N962 1.356 . S
C955 C954 1.363 . S
C955 C961 1.363 . S
C956 C957 1.363 . S
C956 C961 1.379 . S
C956 N963 1.356 . S
C957 C956 1.363 . S
C957 C960 1.363 . S
N958 C960 1.356 . S
N958 H970 0.984 . S
N958 H971 0.985 . S
N959 C961 1.356 . S
N959 H964 0.984 . S
N959 H965 0.985 . S
C960 C954 1.379 . S
C960 C957 1.363 . S
C960 N958 1.356 . S
C961 C955 1.363 . S
C961 C956 1.379 . S
C961 N959 1.356 . S
N962 C954 1.356 . S
N962 H968 0.984 . S
N962 H969 0.984 . S
N963 C956 1.356 . S
N963 H966 0.984 . S
N963 H967 0.985 . S
H964 N959 0.984 . S
H965 N959 0.985 . S
H966 N963 0.984 . S
H967 N963 0.985 . S
H968 N962 0.984 . S
H969 N962 0.984 . S
H970 N958 0.984 . S
H971 N958 0.985 . S
C972 C973 1.363 . S
C972 C978 1.379 . S
C972 N980 1.356 . S
C973 C972 1.363 . S
C973 C979 1.363 . S
C974 C975 1.363 . S
C974 C979 1.379 . S
C974 N981 1.356 . S
C975 C974 1.363 . S
C975 C978 1.363 . S
N976 C978 1.356 . S
N976 H988 0.984 . S
N976 H989 0.985 . S
N977 C979 1.356 . S
N977 H982 0.984 . S
N977 H983 0.985 . S
C978 C972 1.379 . S
C978 C975 1.363 . S
C978 N976 1.356 . S
C979 C973 1.363 . S
C979 C974 1.379 . S
C979 N977 1.356 . S
N980 C972 1.356 . S
N980 H986 0.984 . S
N980 H987 0.984 . S
N981 C974 1.356 . S
N981 H984 0.984 . S
N981 H985 0.985 . S
H982 N977 0.984 . S
H983 N977 0.985 . S
H984 N981 0.984 . S
H985 N981 0.985 . S
H986 N980 0.984 . S
H987 N980 0.984 . S
H988 N976 0.984 . S
H989 N976 0.985 . S
C990 C991 1.363 . S
C990 C996 1.379 . S
C990 N998 1.356 . S
C991 C990 1.363 . S
C991 C997 1.363 . S
C992 C993 1.363 . S
C992 C997 1.379 . S
C992 N999 1.356 . S
C993 C992 1.363 . S
C993 C996 1.363 . S
N994 C996 1.356 . S
N994 H1006 0.984 . S
N994 H1007 0.985 . S
N995 C997 1.356 . S
N995 H1000 0.984 . S
N995 H1001 0.985 . S
C996 C990 1.379 . S
C996 C993 1.363 . S
C996 N994 1.356 . S
C997 C991 1.363 . S
C997 C992 1.379 . S
C997 N995 1.356 . S
N998 C990 1.356 . S
N998 H1004 0.984 . S
N998 H1005 0.984 . S
N999 C992 1.356 . S
N999 H1002 0.984 . S
N999 H1003 0.985 . S
H1000 N995 0.984 . S
H1001 N995 0.985 . S
H1002 N999 0.984 . S
H1003 N999 0.985 . S
H1004 N998 0.984 . S
H1005 N998 0.984 . S
H1006 N994 0.984 . S
H1007 N994 0.985 . S
C1008 C1009 1.363 . S
C1008 C1014 1.379 . S
C1008 N1016 1.356 . S
C1009 C1008 1.363 . S
C1009 C1015 1.363 . S
C1010 C1011 1.363 . S
C1010 C1015 1.379 . S
C1010 N1017 1.356 . S
C1011 C1010 1.363 . S
C1011 C1014 1.363 . S
N1012 C1014 1.356 . S
N1012 H1024 0.984 . S
N1012 H1025 0.985 . S
N1013 C1015 1.356 . S
N1013 H1018 0.984 . S
N1013 H1019 0.985 . S
C1014 C1008 1.379 . S
C1014 C1011 1.363 . S
C1014 N1012 1.356 . S
C1015 C1009 1.363 . S
C1015 C1010 1.379 . S
C1015 N1013 1.356 . S
N1016 C1008 1.356 . S
N1016 H1022 0.984 . S
N1016 H1023 0.984 . S
N1017 C1010 1.356 . S
N1017 H1020 0.984 . S
N1017 H1021 0.985 . S
H1018 N1013 0.984 . S
H1019 N1013 0.985 . S
H1020 N1017 0.984 . S
H1021 N1017 0.985 . S
H1022 N1016 0.984 . S
H1023 N1016 0.984 . S
H1024 N1012 0.984 . S
H1025 N1012 0.985 . S
C1026 C1027 1.363 . S
C1026 C1032 1.379 . S
C1026 N1034 1.356 . S
C1027 C1026 1.363 . S
C1027 C1033 1.363 . S
C1028 C1029 1.363 . S
C1028 C1033 1.379 . S
C1028 N1035 1.356 . S
C1029 C1028 1.363 . S
C1029 C1032 1.363 . S
N1030 C1032 1.356 . S
N1030 H1042 0.984 . S
N1030 H1043 0.985 . S
N1031 C1033 1.356 . S
N1031 H1036 0.984 . S
N1031 H1037 0.985 . S
C1032 C1026 1.379 . S
C1032 C1029 1.363 . S
C1032 N1030 1.356 . S
C1033 C1027 1.363 . S
C1033 C1028 1.379 . S
C1033 N1031 1.356 . S
N1034 C1026 1.356 . S
N1034 H1040 0.984 . S
N1034 H1041 0.984 . S
N1035 C1028 1.356 . S
N1035 H1038 0.984 . S
N1035 H1039 0.985 . S
H1036 N1031 0.984 . S
H1037 N1031 0.985 . S
H1038 N1035 0.984 . S
H1039 N1035 0.985 . S
H1040 N1034 0.984 . S
H1041 N1034 0.984 . S
H1042 N1030 0.984 . S
H1043 N1030 0.985 . S
C1044 C1045 1.363 . S
C1044 C1050 1.379 . S
C1044 N1052 1.356 . S
C1045 C1044 1.363 . S
C1045 C1051 1.363 . S
C1046 C1047 1.363 . S
C1046 C1051 1.379 . S
C1046 N1053 1.356 . S
C1047 C1046 1.363 . S
C1047 C1050 1.363 . S
N1048 C1050 1.356 . S
N1048 H1060 0.984 . S
N1048 H1061 0.985 . S
N1049 C1051 1.356 . S
N1049 H1054 0.984 . S
N1049 H1055 0.985 . S
C1050 C1044 1.379 . S
C1050 C1047 1.363 . S
C1050 N1048 1.356 . S
C1051 C1045 1.363 . S
C1051 C1046 1.379 . S
C1051 N1049 1.356 . S
N1052 C1044 1.356 . S
N1052 H1058 0.984 . S
N1052 H1059 0.984 . S
N1053 C1046 1.356 . S
N1053 H1056 0.984 . S
N1053 H1057 0.985 . S
H1054 N1049 0.984 . S
H1055 N1049 0.985 . S
H1056 N1053 0.984 . S
H1057 N1053 0.985 . S
H1058 N1052 0.984 . S
H1059 N1052 0.984 . S
H1060 N1048 0.984 . S
H1061 N1048 0.985 . S
C1062 C1063 1.363 . S
C1062 C1068 1.379 . S
C1062 N1070 1.356 . S
C1063 C1062 1.363 . S
C1063 C1069 1.363 . S
C1064 C1065 1.363 . S
C1064 C1069 1.379 . S
C1064 N1071 1.356 1_556 S
C1065 C1064 1.363 . S
C1065 C1068 1.363 . S
N1066 C1068 1.356 . S
N1066 H1078 0.984 . S
N1066 H1079 0.985 . S
N1067 C1069 1.356 . S
N1067 H1072 0.984 . S
N1067 H1073 0.985 . S
C1068 C1062 1.379 . S
C1068 C1065 1.363 . S
C1068 N1066 1.356 . S
C1069 C1063 1.363 . S
C1069 C1064 1.379 . S
C1069 N1067 1.356 . S
N1070 C1062 1.356 . S
N1070 H1076 0.984 . S
N1070 H1077 0.984 . S
N1071 C1064 1.356 1_554 S
N1071 H1074 0.984 . S
N1071 H1075 0.985 . S
H1072 N1067 0.984 . S
H1073 N1067 0.985 . S
H1074 N1071 0.984 . S
H1075 N1071 0.985 . S
H1076 N1070 0.984 . S
H1077 N1070 0.984 . S
H1078 N1066 0.984 . S
H1079 N1066 0.985 . S
C1080 C1081 1.363 . S
C1080 C1086 1.379 . S
C1080 N1088 1.356 . S
C1081 C1080 1.363 . S
C1081 C1087 1.363 . S
C1082 C1083 1.363 . S
C1082 C1087 1.379 . S
C1082 N1089 1.356 . S
C1083 C1082 1.363 . S
C1083 C1086 1.363 . S
N1084 C1086 1.356 . S
N1084 H1096 0.984 . S
N1084 H1097 0.985 . S
N1085 C1087 1.356 . S
N1085 H1090 0.984 1_556 S
N1085 H1091 0.985 . S
C1086 C1080 1.379 . S
C1086 C1083 1.363 . S
C1086 N1084 1.356 . S
C1087 C1081 1.363 . S
C1087 C1082 1.379 . S
C1087 N1085 1.356 . S
N1088 C1080 1.356 . S
N1088 H1094 0.984 . S
N1088 H1095 0.984 1_556 S
N1089 C1082 1.356 . S
N1089 H1092 0.984 . S
N1089 H1093 0.985 . S
H1090 N1085 0.984 1_554 S
H1091 N1085 0.985 . S
H1092 N1089 0.984 . S
H1093 N1089 0.985 . S
H1094 N1088 0.984 . S
H1095 N1088 0.984 1_554 S
H1096 N1084 0.984 . S
H1097 N1084 0.985 . S
C1098 C1099 1.363 . S
C1098 C1104 1.379 . S
C1098 N1106 1.356 . S
C1099 C1098 1.363 . S
C1099 C1105 1.363 . S
C1100 C1101 1.363 . S
C1100 C1105 1.379 . S
C1100 N1107 1.356 1_556 S
C1101 C1100 1.363 . S
C1101 C1104 1.363 . S
N1102 C1104 1.356 . S
N1102 H1114 0.984 . S
N1102 H1115 0.985 1_556 S
N1103 C1105 1.356 . S
N1103 H1108 0.984 . S
N1103 H1109 0.985 . S
C1104 C1098 1.379 . S
C1104 C1101 1.363 . S
C1104 N1102 1.356 . S
C1105 C1099 1.363 . S
C1105 C1100 1.379 . S
C1105 N1103 1.356 . S
N1106 C1098 1.356 . S
N1106 H1112 0.984 . S
N1106 H1113 0.984 . S
N1107 C1100 1.356 1_554 S
N1107 H1110 0.984 . S
N1107 H1111 0.985 . S
H1108 N1103 0.984 . S
H1109 N1103 0.985 . S
H1110 N1107 0.984 . S
H1111 N1107 0.985 . S
H1112 N1106 0.984 . S
H1113 N1106 0.984 . S
H1114 N1102 0.984 . S
H1115 N1102 0.985 1_554 S
C1116 C1117 1.363 . S
C1116 C1122 1.379 . S
C1116 N1124 1.356 . S
C1117 C1116 1.363 . S
C1117 C1123 1.363 . S
C1118 C1119 1.363 . S
C1118 C1123 1.379 . S
C1118 N1125 1.356 . S
C1119 C1118 1.363 . S
C1119 C1122 1.363 . S
N1120 C1122 1.356 . S
N1120 H1132 0.984 . S
N1120 H1133 0.985 . S
N1121 C1123 1.356 . S
N1121 H1126 0.984 . S
N1121 H1127 0.985 . S
C1122 C1116 1.379 . S
C1122 C1119 1.363 . S
C1122 N1120 1.356 . S
C1123 C1117 1.363 . S
C1123 C1118 1.379 . S
C1123 N1121 1.356 . S
N1124 C1116 1.356 . S
N1124 H1130 0.984 . S
N1124 H1131 0.984 . S
N1125 C1118 1.356 . S
N1125 H1128 0.984 . S
N1125 H1129 0.985 . S
H1126 N1121 0.984 . S
H1127 N1121 0.985 . S
H1128 N1125 0.984 . S
H1129 N1125 0.985 . S
H1130 N1124 0.984 . S
H1131 N1124 0.984 . S
H1132 N1120 0.984 . S
H1133 N1120 0.985 . S
C1134 C1135 1.363 . S
C1134 C1140 1.379 . S
C1134 N1142 1.356 . S
C1135 C1134 1.363 . S
C1135 C1141 1.363 . S
C1136 C1137 1.363 . S
C1136 C1141 1.379 . S
C1136 N1143 1.356 . S
C1137 C1136 1.363 . S
C1137 C1140 1.363 . S
N1138 C1140 1.356 . S
N1138 H1150 0.984 . S
N1138 H1151 0.985 . S
N1139 C1141 1.356 . S
N1139 H1144 0.984 . S
N1139 H1145 0.985 . S
C1140 C1134 1.379 . S
C1140 C1137 1.363 . S
C1140 N1138 1.356 . S
C1141 C1135 1.363 . S
C1141 C1136 1.379 . S
C1141 N1139 1.356 . S
N1142 C1134 1.356 . S
N1142 H1148 0.984 . S
N1142 H1149 0.984 . S
N1143 C1136 1.356 . S
N1143 H1146 0.984 . S
N1143 H1147 0.985 . S
H1144 N1139 0.984 . S
H1145 N1139 0.985 . S
H1146 N1143 0.984 . S
H1147 N1143 0.985 . S
H1148 N1142 0.984 . S
H1149 N1142 0.984 . S
H1150 N1138 0.984 . S
H1151 N1138 0.985 . S
C1152 C1153 1.363 . S
C1152 C1158 1.379 . S
C1152 N1160 1.356 . S
C1153 C1152 1.363 . S
C1153 C1159 1.363 . S
C1154 C1155 1.363 . S
C1154 C1159 1.379 . S
C1154 N1161 1.356 . S
C1155 C1154 1.363 . S
C1155 C1158 1.363 . S
N1156 C1158 1.356 . S
N1156 H1168 0.984 . S
N1156 H1169 0.985 . S
N1157 C1159 1.356 . S
N1157 H1162 0.984 . S
N1157 H1163 0.985 . S
C1158 C1152 1.379 . S
C1158 C1155 1.363 . S
C1158 N1156 1.356 . S
C1159 C1153 1.363 . S
C1159 C1154 1.379 . S
C1159 N1157 1.356 . S
N1160 C1152 1.356 . S
N1160 H1166 0.984 . S
N1160 H1167 0.984 . S
N1161 C1154 1.356 . S
N1161 H1164 0.984 . S
N1161 H1165 0.985 . S
H1162 N1157 0.984 . S
H1163 N1157 0.985 . S
H1164 N1161 0.984 . S
H1165 N1161 0.985 . S
H1166 N1160 0.984 . S
H1167 N1160 0.984 . S
H1168 N1156 0.984 . S
H1169 N1156 0.985 . S
C1170 C1171 1.363 . S
C1170 C1176 1.379 . S
C1170 N1178 1.356 . S
C1171 C1170 1.363 . S
C1171 C1177 1.363 . S
C1172 C1173 1.363 . S
C1172 C1177 1.379 . S
C1172 N1179 1.356 . S
C1173 C1172 1.363 . S
C1173 C1176 1.363 . S
N1174 C1176 1.356 . S
N1174 H1186 0.984 . S
N1174 H1187 0.985 . S
N1175 C1177 1.356 . S
N1175 H1180 0.984 . S
N1175 H1181 0.985 . S
C1176 C1170 1.379 . S
C1176 C1173 1.363 . S
C1176 N1174 1.356 . S
C1177 C1171 1.363 . S
C1177 C1172 1.379 . S
C1177 N1175 1.356 . S
N1178 C1170 1.356 . S
N1178 H1184 0.984 . S
N1178 H1185 0.984 . S
N1179 C1172 1.356 . S
N1179 H1182 0.984 . S
N1179 H1183 0.985 . S
H1180 N1175 0.984 . S
H1181 N1175 0.985 . S
H1182 N1179 0.984 . S
H1183 N1179 0.985 . S
H1184 N1178 0.984 . S
H1185 N1178 0.984 . S
H1186 N1174 0.984 . S
H1187 N1174 0.985 . S
C1188 C1189 1.363 . S
C1188 C1194 1.379 . S
C1188 N1196 1.356 . S
C1189 C1188 1.363 . S
C1189 C1195 1.363 . S
C1190 C1191 1.363 . S
C1190 C1195 1.379 . S
C1190 N1197 1.356 . S
C1191 C1190 1.363 . S
C1191 C1194 1.363 . S
N1192 C1194 1.356 . S
N1192 H1204 0.984 . S
N1192 H1205 0.985 . S
N1193 C1195 1.356 . S
N1193 H1198 0.984 . S
N1193 H1199 0.985 . S
C1194 C1188 1.379 . S
C1194 C1191 1.363 . S
C1194 N1192 1.356 . S
C1195 C1189 1.363 . S
C1195 C1190 1.379 . S
C1195 N1193 1.356 . S
N1196 C1188 1.356 . S
N1196 H1202 0.984 . S
N1196 H1203 0.984 . S
N1197 C1190 1.356 . S
N1197 H1200 0.984 . S
N1197 H1201 0.985 . S
H1198 N1193 0.984 . S
H1199 N1193 0.985 . S
H1200 N1197 0.984 . S
H1201 N1197 0.985 . S
H1202 N1196 0.984 . S
H1203 N1196 0.984 . S
H1204 N1192 0.984 . S
H1205 N1192 0.985 . S
C1206 C1207 1.363 . S
C1206 C1212 1.379 . S
C1206 N1214 1.356 . S
C1207 C1206 1.363 . S
C1207 C1213 1.363 . S
C1208 C1209 1.363 . S
C1208 C1213 1.379 . S
C1208 N1215 1.356 . S
C1209 C1208 1.363 . S
C1209 C1212 1.363 . S
N1210 C1212 1.356 . S
N1210 H1222 0.984 . S
N1210 H1223 0.985 . S
N1211 C1213 1.356 . S
N1211 H1216 0.984 . S
N1211 H1217 0.985 . S
C1212 C1206 1.379 . S
C1212 C1209 1.363 . S
C1212 N1210 1.356 . S
C1213 C1207 1.363 . S
C1213 C1208 1.379 . S
C1213 N1211 1.356 . S
N1214 C1206 1.356 . S
N1214 H1220 0.984 . S
N1214 H1221 0.984 . S
N1215 C1208 1.356 . S
N1215 H1218 0.984 . S
N1215 H1219 0.985 . S
H1216 N1211 0.984 . S
H1217 N1211 0.985 . S
H1218 N1215 0.984 . S
H1219 N1215 0.985 . S
H1220 N1214 0.984 . S
H1221 N1214 0.984 . S
H1222 N1210 0.984 . S
H1223 N1210 0.985 . S
C1224 C1225 1.363 . S
C1224 C1230 1.379 . S
C1224 N1232 1.356 . S
C1225 C1224 1.363 . S
C1225 C1231 1.363 . S
C1226 C1227 1.363 . S
C1226 C1231 1.379 . S
C1226 N1233 1.356 . S
C1227 C1226 1.363 . S
C1227 C1230 1.363 . S
N1228 C1230 1.356 . S
N1228 H1240 0.984 . S
N1228 H1241 0.985 . S
N1229 C1231 1.356 . S
N1229 H1234 0.984 . S
N1229 H1235 0.985 . S
C1230 C1224 1.379 . S
C1230 C1227 1.363 . S
C1230 N1228 1.356 . S
C1231 C1225 1.363 . S
C1231 C1226 1.379 . S
C1231 N1229 1.356 . S
N1232 C1224 1.356 . S
N1232 H1238 0.984 . S
N1232 H1239 0.984 . S
N1233 C1226 1.356 . S
N1233 H1236 0.984 . S
N1233 H1237 0.985 . S
H1234 N1229 0.984 . S
H1235 N1229 0.985 . S
H1236 N1233 0.984 . S
H1237 N1233 0.985 . S
H1238 N1232 0.984 . S
H1239 N1232 0.984 . S
H1240 N1228 0.984 . S
H1241 N1228 0.985 . S
C1242 C1243 1.363 . S
C1242 C1248 1.379 . S
C1242 N1250 1.356 . S
C1243 C1242 1.363 . S
C1243 C1249 1.363 . S
C1244 C1245 1.363 . S
C1244 C1249 1.379 . S
C1244 N1251 1.356 . S
C1245 C1244 1.363 . S
C1245 C1248 1.363 . S
N1246 C1248 1.356 . S
N1246 H1258 0.984 . S
N1246 H1259 0.985 . S
N1247 C1249 1.356 . S
N1247 H1252 0.984 . S
N1247 H1253 0.985 . S
C1248 C1242 1.379 . S
C1248 C1245 1.363 . S
C1248 N1246 1.356 . S
C1249 C1243 1.363 . S
C1249 C1244 1.379 . S
C1249 N1247 1.356 . S
N1250 C1242 1.356 . S
N1250 H1256 0.984 . S
N1250 H1257 0.984 . S
N1251 C1244 1.356 . S
N1251 H1254 0.984 . S
N1251 H1255 0.985 . S
H1252 N1247 0.984 . S
H1253 N1247 0.985 . S
H1254 N1251 0.984 . S
H1255 N1251 0.985 . S
H1256 N1250 0.984 . S
H1257 N1250 0.984 . S
H1258 N1246 0.984 . S
H1259 N1246 0.985 . S
C1260 C1261 1.363 . S
C1260 C1266 1.379 . S
C1260 N1268 1.356 . S
C1261 C1260 1.363 . S
C1261 C1267 1.363 . S
C1262 C1263 1.363 . S
C1262 C1267 1.379 . S
C1262 N1269 1.356 . S
C1263 C1262 1.363 . S
C1263 C1266 1.363 . S
N1264 C1266 1.356 . S
N1264 H1276 0.984 . S
N1264 H1277 0.985 . S
N1265 C1267 1.356 . S
N1265 H1270 0.984 . S
N1265 H1271 0.985 . S
C1266 C1260 1.379 . S
C1266 C1263 1.363 . S
C1266 N1264 1.356 . S
C1267 C1261 1.363 . S
C1267 C1262 1.379 . S
C1267 N1265 1.356 . S
N1268 C1260 1.356 . S
N1268 H1274 0.984 . S
N1268 H1275 0.984 . S
N1269 C1262 1.356 . S
N1269 H1272 0.984 . S
N1269 H1273 0.985 . S
H1270 N1265 0.984 . S
H1271 N1265 0.985 . S
H1272 N1269 0.984 . S
H1273 N1269 0.985 . S
H1274 N1268 0.984 . S
H1275 N1268 0.984 . S
H1276 N1264 0.984 . S
H1277 N1264 0.985 . S
C1278 C1279 1.363 . S
C1278 C1284 1.379 . S
C1278 N1286 1.356 . S
C1279 C1278 1.363 . S
C1279 C1285 1.363 . S
C1280 C1281 1.363 . S
C1280 C1285 1.379 . S
C1280 N1287 1.356 . S
C1281 C1280 1.363 . S
C1281 C1284 1.363 . S
N1282 C1284 1.356 . S
N1282 H1294 0.984 . S
N1282 H1295 0.985 . S
N1283 C1285 1.356 . S
N1283 H1288 0.984 . S
N1283 H1289 0.985 . S
C1284 C1278 1.379 . S
C1284 C1281 1.363 . S
C1284 N1282 1.356 . S
C1285 C1279 1.363 . S
C1285 C1280 1.379 . S
C1285 N1283 1.356 . S
N1286 C1278 1.356 . S
N1286 H1292 0.984 . S
N1286 H1293 0.984 . S
N1287 C1280 1.356 . S
N1287 H1290 0.984 . S
N1287 H1291 0.985 . S
H1288 N1283 0.984 . S
H1289 N1283 0.985 . S
H1290 N1287 0.984 . S
H1291 N1287 0.985 . S
H1292 N1286 0.984 . S
H1293 N1286 0.984 . S
H1294 N1282 0.984 . S
H1295 N1282 0.985 . S
C1296 C1297 1.363 . S
C1296 C1302 1.379 . S
C1296 N1304 1.356 . S
C1297 C1296 1.363 . S
C1297 C1303 1.363 . S
C1298 C1299 1.363 . S
C1298 C1303 1.379 . S
C1298 N1305 1.356 . S
C1299 C1298 1.363 . S
C1299 C1302 1.363 . S
N1300 C1302 1.356 . S
N1300 H1312 0.984 . S
N1300 H1313 0.985 . S
N1301 C1303 1.356 . S
N1301 H1306 0.984 . S
N1301 H1307 0.985 . S
C1302 C1296 1.379 . S
C1302 C1299 1.363 . S
C1302 N1300 1.356 . S
C1303 C1297 1.363 . S
C1303 C1298 1.379 . S
C1303 N1301 1.356 . S
N1304 C1296 1.356 . S
N1304 H1310 0.984 . S
N1304 H1311 0.984 . S
N1305 C1298 1.356 . S
N1305 H1308 0.984 . S
N1305 H1309 0.985 . S
H1306 N1301 0.984 . S
H1307 N1301 0.985 . S
H1308 N1305 0.984 . S
H1309 N1305 0.985 . S
H1310 N1304 0.984 . S
H1311 N1304 0.984 . S
H1312 N1300 0.984 . S
H1313 N1300 0.985 . S
C1314 C1315 1.363 . S
C1314 C1320 1.379 . S
C1314 N1322 1.356 . S
C1315 C1314 1.363 . S
C1315 C1321 1.363 . S
C1316 C1317 1.363 . S
C1316 C1321 1.379 . S
C1316 N1323 1.356 . S
C1317 C1316 1.363 . S
C1317 C1320 1.363 . S
N1318 C1320 1.356 . S
N1318 H1330 0.984 . S
N1318 H1331 0.985 . S
N1319 C1321 1.356 . S
N1319 H1324 0.984 . S
N1319 H1325 0.985 . S
C1320 C1314 1.379 . S
C1320 C1317 1.363 . S
C1320 N1318 1.356 . S
C1321 C1315 1.363 . S
C1321 C1316 1.379 . S
C1321 N1319 1.356 . S
N1322 C1314 1.356 . S
N1322 H1328 0.984 . S
N1322 H1329 0.984 . S
N1323 C1316 1.356 . S
N1323 H1326 0.984 . S
N1323 H1327 0.985 . S
H1324 N1319 0.984 . S
H1325 N1319 0.985 . S
H1326 N1323 0.984 . S
H1327 N1323 0.985 . S
H1328 N1322 0.984 . S
H1329 N1322 0.984 . S
H1330 N1318 0.984 . S
H1331 N1318 0.985 . S
C1332 C1333 1.363 . S
C1332 C1338 1.379 . S
C1332 N1340 1.356 . S
C1333 C1332 1.363 . S
C1333 C1339 1.363 . S
C1334 C1335 1.363 . S
C1334 C1339 1.379 . S
C1334 N1341 1.356 . S
C1335 C1334 1.363 . S
C1335 C1338 1.363 . S
N1336 C1338 1.356 . S
N1336 H1348 0.984 . S
N1336 H1349 0.985 . S
N1337 C1339 1.356 . S
N1337 H1342 0.984 . S
N1337 H1343 0.985 . S
C1338 C1332 1.379 . S
C1338 C1335 1.363 . S
C1338 N1336 1.356 . S
C1339 C1333 1.363 . S
C1339 C1334 1.379 . S
C1339 N1337 1.356 . S
N1340 C1332 1.356 . S
N1340 H1346 0.984 . S
N1340 H1347 0.984 . S
N1341 C1334 1.356 . S
N1341 H1344 0.984 . S
N1341 H1345 0.985 . S
H1342 N1337 0.984 . S
H1343 N1337 0.985 . S
H1344 N1341 0.984 . S
H1345 N1341 0.985 . S
H1346 N1340 0.984 . S
H1347 N1340 0.984 . S
H1348 N1336 0.984 . S
H1349 N1336 0.985 . S
C1350 C1351 1.363 . S
C1350 C1356 1.379 . S
C1350 N1358 1.356 . S
C1351 C1350 1.363 . S
C1351 C1357 1.363 . S
C1352 C1353 1.363 . S
C1352 C1357 1.379 . S
C1352 N1359 1.356 . S
C1353 C1352 1.363 . S
C1353 C1356 1.363 . S
N1354 C1356 1.356 . S
N1354 H1366 0.984 . S
N1354 H1367 0.985 . S
N1355 C1357 1.356 . S
N1355 H1360 0.984 . S
N1355 H1361 0.985 . S
C1356 C1350 1.379 . S
C1356 C1353 1.363 . S
C1356 N1354 1.356 . S
C1357 C1351 1.363 . S
C1357 C1352 1.379 . S
C1357 N1355 1.356 . S
N1358 C1350 1.356 . S
N1358 H1364 0.984 . S
N1358 H1365 0.984 . S
N1359 C1352 1.356 . S
N1359 H1362 0.984 . S
N1359 H1363 0.985 . S
H1360 N1355 0.984 . S
H1361 N1355 0.985 . S
H1362 N1359 0.984 . S
H1363 N1359 0.985 . S
H1364 N1358 0.984 . S
H1365 N1358 0.984 . S
H1366 N1354 0.984 . S
H1367 N1354 0.985 . S
C1368 C1369 1.363 . S
C1368 C1374 1.379 . S
C1368 N1376 1.356 . S
C1369 C1368 1.363 . S
C1369 C1375 1.363 . S
C1370 C1371 1.363 . S
C1370 C1375 1.379 . S
C1370 N1377 1.356 . S
C1371 C1370 1.363 . S
C1371 C1374 1.363 . S
N1372 C1374 1.356 . S
N1372 H1384 0.984 . S
N1372 H1385 0.985 . S
N1373 C1375 1.356 . S
N1373 H1378 0.984 . S
N1373 H1379 0.985 . S
C1374 C1368 1.379 . S
C1374 C1371 1.363 . S
C1374 N1372 1.356 . S
C1375 C1369 1.363 . S
C1375 C1370 1.379 . S
C1375 N1373 1.356 . S
N1376 C1368 1.356 . S
N1376 H1382 0.984 . S
N1376 H1383 0.984 . S
N1377 C1370 1.356 . S
N1377 H1380 0.984 . S
N1377 H1381 0.985 . S
H1378 N1373 0.984 . S
H1379 N1373 0.985 . S
H1380 N1377 0.984 . S
H1381 N1377 0.985 . S
H1382 N1376 0.984 . S
H1383 N1376 0.984 . S
H1384 N1372 0.984 . S
H1385 N1372 0.985 . S
C1386 C1387 1.363 . S
C1386 C1392 1.379 . S
C1386 N1394 1.356 . S
C1387 C1386 1.363 . S
C1387 C1393 1.363 . S
C1388 C1389 1.363 . S
C1388 C1393 1.379 . S
C1388 N1395 1.356 . S
C1389 C1388 1.363 . S
C1389 C1392 1.363 . S
N1390 C1392 1.356 . S
N1390 H1402 0.984 . S
N1390 H1403 0.985 . S
N1391 C1393 1.356 1_556 S
N1391 H1396 0.984 . S
N1391 H1397 0.985 . S
C1392 C1386 1.379 . S
C1392 C1389 1.363 . S
C1392 N1390 1.356 . S
C1393 C1387 1.363 . S
C1393 C1388 1.379 . S
C1393 N1391 1.356 1_554 S
N1394 C1386 1.356 . S
N1394 H1400 0.984 . S
N1394 H1401 0.984 1_554 S
N1395 C1388 1.356 . S
N1395 H1398 0.984 . S
N1395 H1399 0.985 . S
H1396 N1391 0.984 . S
H1397 N1391 0.985 . S
H1398 N1395 0.984 . S
H1399 N1395 0.985 . S
H1400 N1394 0.984 . S
H1401 N1394 0.984 1_556 S
H1402 N1390 0.984 . S
H1403 N1390 0.985 . S
C1404 C1405 1.363 . S
C1404 C1410 1.379 . S
C1404 N1412 1.356 . S
C1405 C1404 1.363 . S
C1405 C1411 1.363 . S
C1406 C1407 1.363 . S
C1406 C1411 1.379 . S
C1406 N1413 1.356 . S
C1407 C1406 1.363 . S
C1407 C1410 1.363 . S
N1408 C1410 1.356 . S
N1408 H1420 0.984 . S
N1408 H1421 0.985 . S
N1409 C1411 1.356 1_556 S
N1409 H1414 0.984 . S
N1409 H1415 0.985 . S
C1410 C1404 1.379 . S
C1410 C1407 1.363 . S
C1410 N1408 1.356 . S
C1411 C1405 1.363 . S
C1411 C1406 1.379 . S
C1411 N1409 1.356 1_554 S
N1412 C1404 1.356 . S
N1412 H1418 0.984 . S
N1412 H1419 0.984 . S
N1413 C1406 1.356 . S
N1413 H1416 0.984 . S
N1413 H1417 0.985 . S
H1414 N1409 0.984 . S
H1415 N1409 0.985 . S
H1416 N1413 0.984 . S
H1417 N1413 0.985 . S
H1418 N1412 0.984 . S
H1419 N1412 0.984 . S
H1420 N1408 0.984 . S
H1421 N1408 0.985 . S
C1422 C1423 1.363 . S
C1422 C1428 1.379 . S
C1422 N1430 1.363 . S
C1423 C1422 1.363 . S
C1423 C1429 1.363 . S
C1424 C1425 1.363 . S
C1424 C1429 1.379 . S
C1424 N1431 1.356 . S
C1425 C1424 1.363 . S
C1425 C1428 1.363 . S
N1426 C1428 1.356 . S
N1426 H1438 0.984 . S
N1426 H1439 0.985 . S
N1427 C1429 1.356 . S
N1427 H1432 0.984 1_554 S
N1427 H1433 0.985 . S
C1428 C1422 1.379 . S
C1428 C1425 1.363 . S
C1428 N1426 1.356 . S
C1429 C1423 1.363 . S
C1429 C1424 1.379 . S
C1429 N1427 1.356 . S
N1430 C1422 1.363 . S
N1430 H1436 0.986 . S
N1430 H1437 0.977 1_554 S
N1431 C1424 1.356 . S
N1431 H1434 0.984 . S
N1431 H1435 0.985 . S
H1432 N1427 0.984 1_556 S
H1433 N1427 0.985 . S
H1434 N1431 0.984 . S
H1435 N1431 0.985 . S
H1436 N1430 0.986 . S
H1437 N1430 0.977 1_556 S
H1438 N1426 0.984 . S
H1439 N1426 0.985 . S
C1440 C1441 1.363 . S
C1440 C1446 1.379 . S
C1440 N1448 1.356 1_554 S
C1441 C1440 1.363 . S
C1441 C1447 1.363 . S
C1442 C1443 1.363 . S
C1442 C1447 1.379 . S
C1442 N1449 1.356 . S
C1443 C1442 1.363 . S
C1443 C1446 1.363 . S
N1444 C1446 1.356 . S
N1444 H1456 0.984 1_554 S
N1444 H1457 0.985 . S
N1445 C1447 1.356 . S
N1445 H1450 0.984 . S
N1445 H1451 0.985 . S
C1446 C1440 1.379 . S
C1446 C1443 1.363 . S
C1446 N1444 1.356 . S
C1447 C1441 1.363 . S
C1447 C1442 1.379 . S
C1447 N1445 1.356 . S
N1448 C1440 1.356 1_556 S
N1448 H1454 0.984 . S
N1448 H1455 0.984 . S
N1449 C1442 1.356 . S
N1449 H1452 0.984 . S
N1449 H1453 0.985 . S
H1450 N1445 0.984 . S
H1451 N1445 0.985 . S
H1452 N1449 0.984 . S
H1453 N1449 0.985 . S
H1454 N1448 0.984 . S
H1455 N1448 0.984 . S
H1456 N1444 0.984 1_556 S
H1457 N1444 0.985 . S
C1458 C1459 1.363 . S
C1458 C1464 1.379 . S
C1458 N1466 1.356 . S
C1459 C1458 1.363 . S
C1459 C1465 1.363 . S
C1460 C1461 1.363 . S
C1460 C1465 1.379 . S
C1460 N1467 1.356 1_554 S
C1461 C1460 1.363 . S
C1461 C1464 1.363 . S
N1462 C1464 1.356 . S
N1462 H1474 0.984 . S
N1462 H1475 0.985 . S
N1463 C1465 1.356 1_556 S
N1463 H1468 0.984 1_556 S
N1463 H1469 0.985 . S
C1464 C1458 1.379 . S
C1464 C1461 1.363 . S
C1464 N1462 1.356 . S
C1465 C1459 1.363 . S
C1465 C1460 1.379 . S
C1465 N1463 1.356 1_554 S
N1466 C1458 1.356 . S
N1466 H1472 0.984 . S
N1466 H1473 0.984 . S
N1467 C1460 1.356 1_556 S
N1467 H1470 0.984 . S
N1467 H1471 0.985 . S
H1468 N1463 0.984 1_554 S
H1469 N1463 0.985 . S
H1470 N1467 0.984 . S
H1471 N1467 0.985 . S
H1472 N1466 0.984 . S
H1473 N1466 0.984 . S
H1474 N1462 0.984 . S
H1475 N1462 0.985 . S
C1476 C1477 1.363 . S
C1476 C1482 1.379 . S
C1476 N1484 1.356 1_554 S
C1477 C1476 1.363 . S
C1477 C1483 1.363 . S
C1478 C1479 1.363 . S
C1478 C1483 1.379 . S
C1478 N1485 1.356 . S
C1479 C1478 1.363 . S
C1479 C1482 1.363 . S
N1480 C1482 1.356 1_556 S
N1480 H1492 0.984 . S
N1480 H1493 0.985 1_556 S
N1481 C1483 1.356 . S
N1481 H1486 0.984 . S
N1481 H1487 0.985 . S
C1482 C1476 1.379 . S
C1482 C1479 1.363 . S
C1482 N1480 1.356 1_554 S
C1483 C1477 1.363 . S
C1483 C1478 1.379 . S
C1483 N1481 1.356 . S
N1484 C1476 1.356 1_556 S
N1484 H1490 0.984 . S
N1484 H1491 0.984 . S
N1485 C1478 1.356 . S
N1485 H1488 0.984 . S
N1485 H1489 0.985 . S
H1486 N1481 0.984 . S
H1487 N1481 0.985 . S
H1488 N1485 0.984 . S
H1489 N1485 0.985 . S
H1490 N1484 0.984 . S
H1491 N1484 0.984 . S
H1492 N1480 0.984 . S
H1493 N1480 0.985 1_554 S
C1494 C1495 1.363 . S
C1494 C1500 1.379 . S
C1494 N1502 1.356 . S
C1495 C1494 1.363 . S
C1495 C1501 1.363 . S
C1496 C1497 1.363 . S
C1496 C1501 1.379 . S
C1496 N1503 1.356 . S
C1497 C1496 1.363 . S
C1497 C1500 1.363 . S
N1498 C1500 1.356 . S
N1498 H1510 0.984 . S
N1498 H1511 0.985 . S
N1499 C1501 1.356 . S
N1499 H1504 0.984 . S
N1499 H1505 0.985 . S
C1500 C1494 1.379 . S
C1500 C1497 1.363 . S
C1500 N1498 1.356 . S
C1501 C1495 1.363 . S
C1501 C1496 1.379 . S
C1501 N1499 1.356 . S
N1502 C1494 1.356 . S
N1502 H1508 0.984 . S
N1502 H1509 0.984 . S
N1503 C1496 1.356 . S
N1503 H1506 0.984 . S
N1503 H1507 0.985 . S
H1504 N1499 0.984 . S
H1505 N1499 0.985 . S
H1506 N1503 0.984 . S
H1507 N1503 0.985 . S
H1508 N1502 0.984 . S
H1509 N1502 0.984 . S
H1510 N1498 0.984 . S
H1511 N1498 0.985 . S
C1512 C1513 1.363 . S
C1512 C1518 1.379 . S
C1512 N1520 1.356 . S
C1513 C1512 1.363 . S
C1513 C1519 1.363 . S
C1514 C1515 1.363 . S
C1514 C1519 1.379 . S
C1514 N1521 1.356 . S
C1515 C1514 1.363 . S
C1515 C1518 1.363 . S
N1516 C1518 1.356 . S
N1516 H1528 0.984 . S
N1516 H1529 0.985 . S
N1517 C1519 1.356 . S
N1517 H1522 0.984 . S
N1517 H1523 0.985 . S
C1518 C1512 1.379 . S
C1518 C1515 1.363 . S
C1518 N1516 1.356 . S
C1519 C1513 1.363 . S
C1519 C1514 1.379 . S
C1519 N1517 1.356 . S
N1520 C1512 1.356 . S
N1520 H1526 0.984 . S
N1520 H1527 0.984 . S
N1521 C1514 1.356 . S
N1521 H1524 0.984 . S
N1521 H1525 0.985 . S
H1522 N1517 0.984 . S
H1523 N1517 0.985 . S
H1524 N1521 0.984 . S
H1525 N1521 0.985 . S
H1526 N1520 0.984 . S
H1527 N1520 0.984 . S
H1528 N1516 0.984 . S
H1529 N1516 0.985 . S
C1530 C1531 1.363 . S
C1530 C1536 1.379 . S
C1530 N1538 1.356 . S
C1531 C1530 1.363 . S
C1531 C1537 1.363 . S
C1532 C1533 1.363 . S
C1532 C1537 1.379 . S
C1532 N1539 1.356 . S
C1533 C1532 1.363 . S
C1533 C1536 1.363 . S
N1534 C1536 1.356 . S
N1534 H1546 0.984 . S
N1534 H1547 0.985 . S
N1535 C1537 1.356 . S
N1535 H1540 0.984 . S
N1535 H1541 0.985 . S
C1536 C1530 1.379 . S
C1536 C1533 1.363 . S
C1536 N1534 1.356 . S
C1537 C1531 1.363 . S
C1537 C1532 1.379 . S
C1537 N1535 1.356 . S
N1538 C1530 1.356 . S
N1538 H1544 0.984 . S
N1538 H1545 0.984 . S
N1539 C1532 1.356 . S
N1539 H1542 0.984 . S
N1539 H1543 0.985 . S
H1540 N1535 0.984 . S
H1541 N1535 0.985 . S
H1542 N1539 0.984 . S
H1543 N1539 0.985 . S
H1544 N1538 0.984 . S
H1545 N1538 0.984 . S
H1546 N1534 0.984 . S
H1547 N1534 0.985 . S
C1548 C1549 1.363 . S
C1548 C1554 1.379 . S
C1548 N1556 1.356 . S
C1549 C1548 1.363 . S
C1549 C1555 1.363 . S
C1550 C1551 1.363 . S
C1550 C1555 1.379 . S
C1550 N1557 1.356 . S
C1551 C1550 1.363 . S
C1551 C1554 1.363 . S
N1552 C1554 1.356 1_554 S
N1552 H1564 0.984 . S
N1552 H1565 0.985 . S
N1553 C1555 1.356 . S
N1553 H1558 0.984 . S
N1553 H1559 0.985 . S
C1554 C1548 1.379 . S
C1554 C1551 1.363 . S
C1554 N1552 1.356 1_556 S
C1555 C1549 1.363 . S
C1555 C1550 1.379 . S
C1555 N1553 1.356 . S
N1556 C1548 1.356 . S
N1556 H1562 0.984 1_556 S
N1556 H1563 0.984 . S
N1557 C1550 1.356 . S
N1557 H1560 0.984 . S
N1557 H1561 0.985 . S
H1558 N1553 0.984 . S
H1559 N1553 0.985 . S
H1560 N1557 0.984 . S
H1561 N1557 0.985 . S
H1562 N1556 0.984 1_554 S
H1563 N1556 0.984 . S
H1564 N1552 0.984 . S
H1565 N1552 0.985 . S
C1566 C1567 1.363 . S
C1566 C1572 1.379 . S
C1566 N1574 1.356 . S
C1567 C1566 1.363 . S
C1567 C1573 1.363 . S
C1568 C1569 1.363 . S
C1568 C1573 1.379 . S
C1568 N1575 1.356 . S
C1569 C1568 1.363 . S
C1569 C1572 1.363 . S
N1570 C1572 1.356 . S
N1570 H1582 0.984 . S
N1570 H1583 0.985 . S
N1571 C1573 1.356 1_554 S
N1571 H1576 0.984 . S
N1571 H1577 0.985 . S
C1572 C1566 1.379 . S
C1572 C1569 1.363 . S
C1572 N1570 1.356 . S
C1573 C1567 1.363 . S
C1573 C1568 1.379 . S
C1573 N1571 1.356 1_556 S
N1574 C1566 1.356 . S
N1574 H1580 0.984 . S
N1574 H1581 0.984 . S
N1575 C1568 1.356 . S
N1575 H1578 0.984 . S
N1575 H1579 0.985 1_556 S
H1576 N1571 0.984 . S
H1577 N1571 0.985 . S
H1578 N1575 0.984 . S
H1579 N1575 0.985 1_554 S
H1580 N1574 0.984 . S
H1581 N1574 0.984 . S
H1582 N1570 0.984 . S
H1583 N1570 0.985 . S
C1584 C1585 1.363 . S
C1584 C1590 1.379 . S
C1584 N1592 1.356 . S
C1585 C1584 1.363 . S
C1585 C1591 1.363 . S
C1586 C1587 1.363 . S
C1586 C1591 1.379 . S
C1586 N1593 1.356 . S
C1587 C1586 1.363 . S
C1587 C1590 1.363 . S
N1588 C1590 1.357 . S
N1588 H1600 0.983 1_556 S
N1588 H1601 0.985 . S
N1589 C1591 1.356 . S
N1589 H1594 0.984 . S
N1589 H1595 0.985 . S
C1590 C1584 1.379 . S
C1590 C1587 1.363 . S
C1590 N1588 1.357 . S
C1591 C1585 1.363 . S
C1591 C1586 1.379 . S
C1591 N1589 1.356 . S
N1592 C1584 1.356 . S
N1592 H1598 0.984 1_556 S
N1592 H1599 0.984 . S
N1593 C1586 1.356 . S
N1593 H1596 0.984 . S
N1593 H1597 0.985 . S
H1594 N1589 0.984 . S
H1595 N1589 0.985 . S
H1596 N1593 0.984 . S
H1597 N1593 0.985 . S
H1598 N1592 0.984 1_554 S
H1599 N1592 0.984 . S
H1600 N1588 0.983 1_554 S
H1601 N1588 0.985 . S
C1602 C1603 1.363 . S
C1602 C1608 1.379 . S
C1602 N1610 1.356 . S
C1603 C1602 1.363 . S
C1603 C1609 1.363 . S
C1604 C1605 1.363 . S
C1604 C1609 1.379 . S
C1604 N1611 1.356 . S
C1605 C1604 1.363 . S
C1605 C1608 1.363 . S
N1606 C1608 1.356 . S
N1606 H1618 0.984 . S
N1606 H1619 0.985 . S
N1607 C1609 1.356 . S
N1607 H1612 0.984 . S
N1607 H1613 0.985 . S
C1608 C1602 1.379 . S
C1608 C1605 1.363 . S
C1608 N1606 1.356 . S
C1609 C1603 1.363 . S
C1609 C1604 1.379 . S
C1609 N1607 1.356 . S
N1610 C1602 1.356 . S
N1610 H1616 0.984 . S
N1610 H1617 0.984 . S
N1611 C1604 1.356 . S
N1611 H1614 0.984 . S
N1611 H1615 0.985 . S
H1612 N1607 0.984 . S
H1613 N1607 0.985 . S
H1614 N1611 0.984 . S
H1615 N1611 0.985 . S
H1616 N1610 0.984 . S
H1617 N1610 0.984 . S
H1618 N1606 0.984 . S
H1619 N1606 0.985 . S
C1620 C1621 1.363 . S
C1620 C1626 1.379 . S
C1620 N1628 1.356 . S
C1621 C1620 1.363 . S
C1621 C1627 1.363 . S
C1622 C1623 1.363 . S
C1622 C1627 1.379 . S
C1622 N1629 1.356 . S
C1623 C1622 1.363 . S
C1623 C1626 1.363 . S
N1624 C1626 1.356 . S
N1624 H1636 0.984 . S
N1624 H1637 0.985 . S
N1625 C1627 1.356 . S
N1625 H1630 0.984 . S
N1625 H1631 0.985 . S
C1626 C1620 1.379 . S
C1626 C1623 1.363 . S
C1626 N1624 1.356 . S
C1627 C1621 1.363 . S
C1627 C1622 1.379 . S
C1627 N1625 1.356 . S
N1628 C1620 1.356 . S
N1628 H1634 0.984 . S
N1628 H1635 0.984 . S
N1629 C1622 1.356 . S
N1629 H1632 0.984 . S
N1629 H1633 0.985 . S
H1630 N1625 0.984 . S
H1631 N1625 0.985 . S
H1632 N1629 0.984 . S
H1633 N1629 0.985 . S
H1634 N1628 0.984 . S
H1635 N1628 0.984 . S
H1636 N1624 0.984 . S
H1637 N1624 0.985 . S
C1638 C1639 1.363 . S
C1638 C1644 1.379 . S
C1638 N1646 1.356 . S
C1639 C1638 1.363 . S
C1639 C1645 1.363 . S
C1640 C1641 1.363 . S
C1640 C1645 1.379 . S
C1640 N1647 1.356 . S
C1641 C1640 1.363 . S
C1641 C1644 1.363 . S
N1642 C1644 1.356 . S
N1642 H1654 0.984 . S
N1642 H1655 0.985 . S
N1643 C1645 1.356 . S
N1643 H1648 0.984 . S
N1643 H1649 0.985 . S
C1644 C1638 1.379 . S
C1644 C1641 1.363 . S
C1644 N1642 1.356 . S
C1645 C1639 1.363 . S
C1645 C1640 1.379 . S
C1645 N1643 1.356 . S
N1646 C1638 1.356 . S
N1646 H1652 0.984 . S
N1646 H1653 0.984 . S
N1647 C1640 1.356 . S
N1647 H1650 0.984 . S
N1647 H1651 0.985 . S
H1648 N1643 0.984 . S
H1649 N1643 0.985 . S
H1650 N1647 0.984 . S
H1651 N1647 0.985 . S
H1652 N1646 0.984 . S
H1653 N1646 0.984 . S
H1654 N1642 0.984 . S
H1655 N1642 0.985 . S
C1656 C1657 1.363 . S
C1656 C1662 1.379 1_455 S
C1656 N1664 1.356 . S
C1657 C1656 1.363 . S
C1657 C1663 1.363 . S
C1658 C1659 1.363 . S
C1658 C1663 1.379 1_655 S
C1658 N1665 1.356 . S
C1659 C1658 1.363 . S
C1659 C1662 1.363 . S
N1660 C1662 1.356 . S
N1660 H1672 0.984 . S
N1660 H1673 0.985 . S
N1661 C1663 1.356 . S
N1661 H1666 0.984 . S
N1661 H1667 0.985 . S
C1662 C1656 1.379 1_655 S
C1662 C1659 1.363 . S
C1662 N1660 1.356 . S
C1663 C1657 1.363 . S
C1663 C1658 1.379 1_455 S
C1663 N1661 1.356 . S
N1664 C1656 1.356 . S
N1664 H1670 0.984 . S
N1664 H1671 0.984 . S
N1665 C1658 1.356 . S
N1665 H1668 0.984 . S
N1665 H1669 0.985 . S
H1666 N1661 0.984 . S
H1667 N1661 0.985 . S
H1668 N1665 0.984 . S
H1669 N1665 0.985 . S
H1670 N1664 0.984 . S
H1671 N1664 0.984 . S
H1672 N1660 0.984 . S
H1673 N1660 0.985 . S
C1674 C1675 1.363 . S
C1674 C1680 1.379 . S
C1674 N1682 1.356 . S
C1675 C1674 1.363 . S
C1675 C1681 1.363 . S
C1676 C1677 1.363 . S
C1676 C1681 1.379 . S
C1676 N1683 1.356 . S
C1677 C1676 1.363 . S
C1677 C1680 1.363 . S
N1678 C1680 1.356 . S
N1678 H1690 0.984 . S
N1678 H1691 0.985 . S
N1679 C1681 1.356 . S
N1679 H1684 0.984 . S
N1679 H1685 0.985 . S
C1680 C1674 1.379 . S
C1680 C1677 1.363 . S
C1680 N1678 1.356 . S
C1681 C1675 1.363 . S
C1681 C1676 1.379 . S
C1681 N1679 1.356 . S
N1682 C1674 1.356 . S
N1682 H1688 0.984 . S
N1682 H1689 0.984 . S
N1683 C1676 1.356 . S
N1683 H1686 0.984 . S
N1683 H1687 0.985 . S
H1684 N1679 0.984 . S
H1685 N1679 0.985 . S
H1686 N1683 0.984 . S
H1687 N1683 0.985 . S
H1688 N1682 0.984 . S
H1689 N1682 0.984 . S
H1690 N1678 0.984 . S
H1691 N1678 0.985 . S
C1692 C1693 1.363 . S
C1692 C1698 1.379 1_565 S
C1692 N1700 1.356 . S
C1693 C1692 1.363 . S
C1693 C1699 1.363 . S
C1694 C1695 1.363 . S
C1694 C1699 1.379 1_545 S
C1694 N1701 1.356 . S
C1695 C1694 1.363 . S
C1695 C1698 1.363 . S
N1696 C1698 1.356 . S
N1696 H1708 0.984 . S
N1696 H1709 0.985 . S
N1697 C1699 1.356 . S
N1697 H1702 0.984 . S
N1697 H1703 0.985 . S
C1698 C1692 1.379 1_545 S
C1698 C1695 1.363 . S
C1698 N1696 1.356 . S
C1699 C1693 1.363 . S
C1699 C1694 1.379 1_565 S
C1699 N1697 1.356 . S
N1700 C1692 1.356 . S
N1700 H1706 0.984 . S
N1700 H1707 0.984 . S
N1701 C1694 1.356 . S
N1701 H1704 0.984 . S
N1701 H1705 0.985 . S
H1702 N1697 0.984 . S
H1703 N1697 0.985 . S
H1704 N1701 0.984 . S
H1705 N1701 0.985 . S
H1706 N1700 0.984 . S
H1707 N1700 0.984 . S
H1708 N1696 0.984 . S
H1709 N1696 0.985 . S
C1710 C1711 1.363 . S
C1710 C1716 1.379 1_545 S
C1710 N1718 1.356 . S
C1711 C1710 1.363 . S
C1711 C1717 1.363 . S
C1712 C1713 1.363 . S
C1712 C1717 1.379 1_565 S
C1712 N1719 1.356 . S
C1713 C1712 1.363 . S
C1713 C1716 1.363 . S
N1714 C1716 1.356 . S
N1714 H1726 0.984 . S
N1714 H1727 0.985 . S
N1715 C1717 1.356 . S
N1715 H1720 0.984 . S
N1715 H1721 0.985 . S
C1716 C1710 1.379 1_565 S
C1716 C1713 1.363 . S
C1716 N1714 1.356 . S
C1717 C1711 1.363 . S
C1717 C1712 1.379 1_545 S
C1717 N1715 1.356 . S
N1718 C1710 1.356 . S
N1718 H1724 0.984 . S
N1718 H1725 0.984 . S
N1719 C1712 1.356 . S
N1719 H1722 0.984 . S
N1719 H1723 0.985 . S
H1720 N1715 0.984 . S
H1721 N1715 0.985 . S
H1722 N1719 0.984 . S
H1723 N1719 0.985 . S
H1724 N1718 0.984 . S
H1725 N1718 0.984 . S
H1726 N1714 0.984 . S
H1727 N1714 0.985 . S
C1728 C1729 1.363 . S
C1728 C1734 1.379 1_455 S
C1728 N1736 1.356 . S
C1729 C1728 1.363 . S
C1729 C1735 1.363 . S
C1730 C1731 1.363 . S
C1730 C1735 1.379 1_655 S
C1730 N1737 1.356 . S
C1731 C1730 1.363 . S
C1731 C1734 1.363 . S
N1732 C1734 1.356 . S
N1732 H1744 0.984 . S
N1732 H1745 0.985 . S
N1733 C1735 1.356 . S
N1733 H1738 0.984 . S
N1733 H1739 0.985 . S
C1734 C1728 1.379 1_655 S
C1734 C1731 1.363 . S
C1734 N1732 1.356 . S
C1735 C1729 1.363 . S
C1735 C1730 1.379 1_455 S
C1735 N1733 1.356 . S
N1736 C1728 1.356 . S
N1736 H1742 0.984 . S
N1736 H1743 0.984 . S
N1737 C1730 1.356 . S
N1737 H1740 0.984 . S
N1737 H1741 0.985 . S
H1738 N1733 0.984 . S
H1739 N1733 0.985 . S
H1740 N1737 0.984 . S
H1741 N1737 0.985 . S
H1742 N1736 0.984 . S
H1743 N1736 0.984 . S
H1744 N1732 0.984 . S
H1745 N1732 0.985 . S
C1746 C1747 1.363 . S
C1746 C1752 1.379 . S
C1746 N1754 1.356 . S
C1747 C1746 1.363 . S
C1747 C1753 1.363 . S
C1748 C1749 1.363 . S
C1748 C1753 1.379 . S
C1748 N1755 1.356 . S
C1749 C1748 1.363 . S
C1749 C1752 1.363 . S
N1750 C1752 1.356 . S
N1750 H1762 0.984 . S
N1750 H1763 0.985 . S
N1751 C1753 1.356 . S
N1751 H1756 0.984 . S
N1751 H1757 0.985 . S
C1752 C1746 1.379 . S
C1752 C1749 1.363 . S
C1752 N1750 1.356 . S
C1753 C1747 1.363 . S
C1753 C1748 1.379 . S
C1753 N1751 1.356 . S
N1754 C1746 1.356 . S
N1754 H1760 0.984 . S
N1754 H1761 0.984 . S
N1755 C1748 1.356 . S
N1755 H1758 0.984 . S
N1755 H1759 0.985 . S
H1756 N1751 0.984 . S
H1757 N1751 0.985 . S
H1758 N1755 0.984 . S
H1759 N1755 0.985 . S
H1760 N1754 0.984 . S
H1761 N1754 0.984 . S
H1762 N1750 0.984 . S
H1763 N1750 0.985 . S
C469 C43 1.272 . S
C471 C10 1.272 . S
C487 C56 1.273 . S
C489 C17 1.273 . S
C505 C69 1.273 . S
C507 C36 1.273 . S
C523 C88 1.272 . S
C525 C121 1.272 . S
C541 C95 1.273 . S
C543 C140 1.273 . S
C559 C153 1.272 . S
C561 C114 1.272 . S
C577 C160 1.272 . S
C579 C205 1.272 . S
C595 C179 1.273 . S
C597 C212 1.273 . S
C613 C186 1.272 . S
C615 C225 1.273 . S
C631 C244 1.272 . S
C633 C277 1.272 . S
C649 C296 1.273 . S
C651 C251 1.272 . S
C667 C270 1.273 . S
C669 C309 1.272 . S
C685 C322 1.272 . S
C687 C361 1.272 . S
C703 C335 1.273 . S
C705 C368 1.272 . S
C721 C381 1.273 . S
C723 C342 1.272 . S
C739 C433 1.272 . S
C741 C400 1.272 . S
C757 C452 1.273 . S
C759 C407 1.273 . S
C775 C465 1.273 . S
C777 C420 1.272 . S
C793 C147 1.636 . S
C795 C3 1.672 1_556 S
C811 C18 1.672 1_556 S
C813 C127 1.636 . S
C829 C29 1.672 1_556 S
C831 C134 1.636 . S
C847 C101 1.638 . S
C849 C44 1.673 . S
C865 C57 1.673 . S
C867 C108 1.638 . S
C883 C82 1.637 . S
C885 C70 1.673 . S
C901 C81 1.672 1_554 S
C903 C75 1.636 . S
C919 C96 1.672 1_554 S
C921 C49 1.636 . S
C937 C62 1.636 . S
C939 C107 1.672 1_554 S
C955 C23 1.638 . S
C957 C122 1.673 . S
C973 C30 1.638 . S
C975 C133 1.673 . S
C991 C146 1.673 . S
C993 C4 1.638 . S
C1009 C161 1.668 . S
C1011 C303 1.631 . S
C1027 C283 1.633 . S
C1029 C172 1.667 . S
C1045 C290 1.633 . S
C1047 C187 1.667 . S
C1063 C198 1.673 . S
C1065 C257 1.637 1_556 S
C1081 C264 1.637 1_556 S
C1083 C213 1.673 . S
C1099 C226 1.673 . S
C1101 C238 1.637 1_556 S
C1117 C237 1.673 . S
C1119 C231 1.637 . S
C1135 C252 1.672 . S
C1137 C199 1.636 . S
C1153 C218 1.636 . S
C1155 C263 1.672 . S
C1171 C173 1.640 . S
C1173 C278 1.677 . S
C1189 C192 1.640 . S
C1191 C289 1.677 . S
C1207 C302 1.675 . S
C1209 C166 1.642 . S
C1225 C459 1.636 . S
C1227 C315 1.673 . S
C1243 C328 1.672 . S
C1245 C439 1.636 . S
C1261 C343 1.672 . S
C1263 C446 1.636 . S
C1279 C354 1.676 . S
C1281 C413 1.642 . S
C1297 C426 1.640 . S
C1299 C369 1.677 . S
C1315 C382 1.675 . S
C1317 C394 1.641 . S
C1333 C387 1.633 . S
C1335 C393 1.667 . S
C1351 C355 1.633 . S
C1353 C408 1.667 . S
C1369 C374 1.633 . S
C1371 C421 1.667 . S
C1387 C329 1.637 1_554 S
C1389 C434 1.673 . S
C1405 C348 1.637 1_554 S
C1407 C445 1.673 . S
C1423 C316 1.637 1_554 S
C1425 C458 1.673 . S
C1441 C380 1.519 . S
C1443 C5 1.519 . S
C1459 C16 1.519 . S
C1461 C356 1.519 . S
C1477 C367 1.519 . S
C1479 C31 1.519 . S
C1495 C42 1.519 . S
C1497 C174 1.519 . S
C1513 C185 1.519 . S
C1515 C55 1.519 . S
C1531 C68 1.519 . S
C1533 C159 1.519 . S
C1549 C83 1.519 . S
C1551 C304 1.519 . S
C1567 C276 1.519 . S
C1569 C94 1.519 . S
C1585 C109 1.519 . S
C1587 C291 1.519 . S
C1603 C120 1.519 . S
C1605 C406 1.519 . S
C1621 C135 1.519 . S
C1623 C419 1.519 . S
C1639 C395 1.519 . S
C1641 C148 1.519 . S
C1657 C330 1.520 . S
C1659 C200 1.520 . S
C1675 C341 1.520 . S
C1677 C211 1.520 . S
C1693 C317 1.520 . S
C1695 C224 1.520 . S
C1711 C239 1.520 . S
C1713 C460 1.520 . S
C1729 C432 1.520 . S
C1731 C250 1.520 . S
C1747 C265 1.520 . S
C1749 C447 1.520 . S
