# Generated by pormake.
# Topology rac, (4)-cn, num edge types: 1
# Building blocks:
#     Node 0, Type 0, BuildingBlock: NAHDIM_clean_sbu_0, # of connection points: 4
#     Node 1, Type 0, BuildingBlock: NAHDIM_clean_sbu_0, # of connection points: 4
#     Node 2, Type 0, BuildingBlock: NAHDIM_clean_sbu_0, # of connection points: 4
#     Node 3, Type 0, BuildingBlock: NAHDIM_clean_sbu_0, # of connection points: 4
#     Node 4, Type 0, BuildingBlock: NAHDIM_clean_sbu_0, # of connection points: 4
#     Node 5, Type 0, BuildingBlock: NAHDIM_clean_sbu_0, # of connection points: 4
#     Node 6, Type 0, BuildingBlock: NAHDIM_clean_sbu_0, # of connection points: 4
#     Node 7, Type 0, BuildingBlock: NAHDIM_clean_sbu_0, # of connection points: 4
#     Edge 8, Type (0, 0), BuildingBlock: TEMPAE_clean_linker_10, # of connection points: 2
#     Edge 9, Type (0, 0), BuildingBlock: TEMPAE_clean_linker_10, # of connection points: 2
#     Edge 10, Type (0, 0), BuildingBlock: TEMPAE_clean_linker_10, # of connection points: 2
#     Edge 11, Type (0, 0), BuildingBlock: TEMPAE_clean_linker_10, # of connection points: 2
#     Edge 12, Type (0, 0), BuildingBlock: TEMPAE_clean_linker_10, # of connection points: 2
#     Edge 13, Type (0, 0), BuildingBlock: TEMPAE_clean_linker_10, # of connection points: 2
#     Edge 14, Type (0, 0), BuildingBlock: TEMPAE_clean_linker_10, # of connection points: 2
#     Edge 15, Type (0, 0), BuildingBlock: TEMPAE_clean_linker_10, # of connection points: 2
#     Edge 16, Type (0, 0), BuildingBlock: TEMPAE_clean_linker_10, # of connection points: 2
#     Edge 17, Type (0, 0), BuildingBlock: TEMPAE_clean_linker_10, # of connection points: 2
#     Edge 18, Type (0, 0), BuildingBlock: TEMPAE_clean_linker_10, # of connection points: 2
#     Edge 19, Type (0, 0), BuildingBlock: TEMPAE_clean_linker_10, # of connection points: 2
#     Edge 20, Type (0, 0), BuildingBlock: TEMPAE_clean_linker_10, # of connection points: 2
#     Edge 21, Type (0, 0), BuildingBlock: TEMPAE_clean_linker_10, # of connection points: 2
#     Edge 22, Type (0, 0), BuildingBlock: TEMPAE_clean_linker_10, # of connection points: 2
#     Edge 23, Type (0, 0), BuildingBlock: TEMPAE_clean_linker_10, # of connection points: 2
# Relax obj value: 0.227
# Max RMSD: 0.117
# Mean RMSD: 0.117
data_MOF--net-rac--node1-NAHDIM_clean_sbu_0--edge1-TEMPAE_clean_linker_10
_symmetry_space_group_name_H-M    P1
_symmetry_Int_Tables_number       1
_symmetry_cell_setting            triclinic
loop_
_symmetry_equiv_pos_as_xyz
'x, y, z'
_cell_length_a     40.178923
_cell_length_b     20.983606
_cell_length_c     42.092949
_cell_angle_alpha  90.005365
_cell_angle_beta   89.964698
_cell_angle_gamma 90.001461
loop_
_atom_site_label
_atom_site_type_symbol
_atom_site_fract_x
_atom_site_fract_y
_atom_site_fract_z
_atom_type_partial_charge
C0 C 0.43431 0.31991 0.05994 0.0
O1 O 0.43459 0.32054 0.09115 0.0
O2 O 0.40018 0.20969 0.11481 0.0
Zn3 Zn 0.38106 0.23395 0.07212 0.0
O4 O 0.3444 0.29613 0.08168 0.0
C5 C 0.35696 0.10453 0.06012 0.0
O6 O 0.37508 0.08919 0.08494 0.0
O7 O 0.41421 0.28288 0.04563 0.0
C8 C 0.31381 0.28078 0.0807 0.0
O9 O 0.30538 0.22231 0.07303 0.0
C10 C 0.37957 0.19479 0.1365 0.0
O11 O 0.34794 0.18938 0.12914 0.0
O12 O 0.3592 0.16057 0.04886 0.0
C13 C 0.05407 0.67359 0.05207 0.0
O14 O 0.05037 0.67934 0.08294 0.0
O15 O 0.09782 0.76353 0.10958 0.0
Zn16 Zn 0.11376 0.74211 0.06549 0.0
O17 O 0.14656 0.67184 0.07087 0.0
C18 C 0.1415 0.8698 0.05507 0.0
O19 O 0.12053 0.88774 0.07729 0.0
O20 O 0.07807 0.70222 0.03845 0.0
C21 C 0.14402 0.62931 0.0922 0.0
O22 O 0.11909 0.63135 0.11238 0.0
C23 C 0.11958 0.77964 0.12994 0.0
O24 O 0.15042 0.78863 0.12055 0.0
O25 O 0.14032 0.8128 0.04491 0.0
C26 C 0.4557 0.22193 0.44864 0.0
O27 O 0.46471 0.2455 0.42105 0.0
O28 O 0.40612 0.27576 0.38488 0.0
Zn29 Zn 0.39073 0.26858 0.43055 0.0
O30 O 0.35721 0.19854 0.43004 0.0
C31 C 0.3512 0.38137 0.42553 0.0
O32 O 0.35868 0.37321 0.39542 0.0
O33 O 0.4269 0.23468 0.45945 0.0
C34 C 0.33675 0.19208 0.40729 0.0
O35 O 0.3368 0.23357 0.38392 0.0
C36 C 0.41383 0.22396 0.37093 0.0
O37 O 0.41426 0.17085 0.38749 0.0
O38 O 0.36476 0.34536 0.44611 0.0
C39 C 0.07334 0.85984 0.438 0.0
O40 O 0.08502 0.86865 0.40916 0.0
O41 O 0.09933 0.73952 0.38419 0.0
Zn42 Zn 0.11667 0.76162 0.42775 0.0
O43 O 0.15125 0.82796 0.42011 0.0
C44 C 0.1404 0.6317 0.44297 0.0
O45 O 0.1169 0.61127 0.42381 0.0
O46 O 0.08183 0.80954 0.45292 0.0
C47 C 0.18165 0.81729 0.41395 0.0
O48 O 0.19244 0.7583 0.41213 0.0
C49 C 0.11759 0.71115 0.364 0.0
O50 O 0.14656 0.68856 0.37301 0.0
O51 O 0.14161 0.69061 0.44989 0.0
C52 C 0.56924 0.64842 0.94121 0.0
O53 O 0.58572 0.62987 0.91587 0.0
O54 O 0.59038 0.76886 0.88094 0.0
Zn55 Zn 0.6077 0.7529 0.9254 0.0
O56 O 0.64586 0.69146 0.92259 0.0
C57 C 0.63287 0.88218 0.93109 0.0
O58 O 0.62124 0.88753 0.90206 0.0
O59 O 0.5729 0.70549 0.95093 0.0
C60 C 0.67651 0.7063 0.92263 0.0
O61 O 0.68525 0.7666 0.92337 0.0
C62 C 0.61098 0.7708 0.85803 0.0
O63 O 0.64291 0.76591 0.86419 0.0
O64 O 0.62684 0.83153 0.94667 0.0
C65 C 0.92663 0.32393 0.9417 0.0
O66 O 0.91581 0.33511 0.91278 0.0
O67 O 0.89595 0.21396 0.88717 0.0
Zn68 Zn 0.87825 0.23676 0.93031 0.0
O69 O 0.84588 0.30888 0.92375 0.0
C70 C 0.82793 0.17038 0.96722 0.0
O71 O 0.82377 0.22692 0.97995 0.0
O72 O 0.91559 0.27516 0.95638 0.0
C73 C 0.84182 0.35041 0.94541 0.0
O74 O 0.85789 0.34431 0.97242 0.0
C75 C 0.87516 0.1997 0.8656 0.0
O76 O 0.84341 0.19646 0.87296 0.0
O77 O 0.85205 0.16183 0.94805 0.0
C78 C 0.54414 0.81 0.53676 0.0
O79 O 0.52614 0.78616 0.55994 0.0
O80 O 0.57672 0.74071 0.60993 0.0
Zn81 Zn 0.60117 0.75202 0.56862 0.0
O82 O 0.63555 0.81837 0.57749 0.0
C83 C 0.6496 0.66272 0.57881 0.0
O84 O 0.64915 0.69818 0.60455 0.0
O85 O 0.57447 0.79379 0.53407 0.0
C86 C 0.66103 0.82242 0.55979 0.0
O87 O 0.66443 0.78299 0.53575 0.0
C88 C 0.56934 0.79087 0.62535 0.0
O89 O 0.57355 0.84649 0.61157 0.0
O90 O 0.62772 0.67281 0.5575 0.0
C91 C 0.94744 0.21438 0.54692 0.0
O92 O 0.96078 0.24136 0.57203 0.0
O93 O 0.90241 0.25762 0.61863 0.0
Zn94 Zn 0.88306 0.25086 0.57459 0.0
O95 O 0.84838 0.182 0.57497 0.0
C96 C 0.83344 0.33888 0.58296 0.0
O97 O 0.83166 0.30106 0.60777 0.0
O98 O 0.91629 0.21947 0.54232 0.0
C99 C 0.83656 0.1532 0.59901 0.0
O100 O 0.84716 0.16735 0.62764 0.0
C101 C 0.91639 0.21014 0.63184 0.0
O102 O 0.92103 0.15788 0.6152 0.0
O103 O 0.85712 0.33059 0.56327 0.0
C104 C 0.30583 0.08459 0.02742 0.0
C105 C 0.32829 0.06396 0.05084 0.0
C106 C 0.27521 0.05356 0.02283 0.0
C107 C 0.26681 0.00081 0.04218 0.0
C108 C 0.29026 0.97728 0.06439 0.0
C109 C 0.32075 0.00896 0.06835 0.0
C110 C 0.25111 0.07959 0.99858 0.0
C111 C 0.28236 0.92091 0.0854 0.0
C112 C 0.17722 0.96561 0.06469 0.0
C113 C 0.17087 0.90985 0.04733 0.0
C114 C 0.20783 0.99747 0.06204 0.0
C115 C 0.23263 0.97331 0.04135 0.0
C116 C 0.22552 0.91971 0.02211 0.0
C117 C 0.19477 0.8885 0.02539 0.0
C118 C 0.21434 0.05477 0.08286 0.0
C119 C 0.25105 0.89319 -0.00064 0.0
H120 H 0.31144 0.12685 0.01361 0.0
H121 H 0.33792 0.99242 0.08641 0.0
H122 H 0.24029 0.04044 0.9842 0.0
H123 H 0.23026 0.10378 0.01097 0.0
H124 H 0.26313 0.11445 0.98237 0.0
H125 H 0.30412 0.90567 0.09978 0.0
H126 H 0.26173 0.9335 0.10179 0.0
H127 H 0.27389 0.87995 0.07084 0.0
H128 H 0.15893 0.98269 0.0816 0.0
H129 H 0.19004 0.84574 0.01166 0.0
H130 H 0.22369 0.09516 0.06839 0.0
H131 H 0.23388 0.04299 0.10053 0.0
H132 H 0.19168 0.07051 0.09581 0.0
H133 H 0.26215 0.93193 0.98487 0.0
H134 H 0.24023 0.8569 0.98316 0.0
H135 H 0.27154 0.87065 0.01298 0.0
C136 C 0.19832 0.61755 0.4639 0.0
C137 C 0.16984 0.59103 0.44972 0.0
C138 C 0.22861 0.58417 0.46463 0.0
C139 C 0.23048 0.52254 0.45109 0.0
C140 C 0.20126 0.49368 0.4389 0.0
C141 C 0.17132 0.5283 0.4383 0.0
C142 C 0.2591 0.61668 0.47791 0.0
C143 C 0.20207 0.42769 0.42462 0.0
C144 C 0.31066 0.46737 0.41204 0.0
C145 C 0.32305 0.42367 0.43428 0.0
C146 C 0.28119 0.50137 0.41778 0.0
C147 C 0.26343 0.49114 0.44641 0.0
C148 C 0.27648 0.44905 0.46957 0.0
C149 C 0.30624 0.41598 0.46329 0.0
C150 C 0.26843 0.54654 0.39264 0.0
C151 C 0.25828 0.43685 0.50035 0.0
H152 H 0.19751 0.66589 0.47294 0.0
H153 H 0.14947 0.50717 0.4275 0.0
H154 H 0.27296 0.58405 0.49386 0.0
H155 H 0.27605 0.62978 0.45814 0.0
H156 H 0.25272 0.66066 0.49129 0.0
H157 H 0.17672 0.40925 0.41948 0.0
H158 H 0.21642 0.42872 0.40209 0.0
H159 H 0.21482 0.39397 0.44086 0.0
H160 H 0.32357 0.47386 0.38965 0.0
H161 H 0.31552 0.38203 0.48055 0.0
H162 H 0.26374 0.59423 0.4031 0.0
H163 H 0.24441 0.52875 0.38314 0.0
H164 H 0.28615 0.55194 0.37254 0.0
H165 H 0.25192 0.48253 0.51215 0.0
H166 H 0.27312 0.40734 0.51705 0.0
H167 H 0.23453 0.41179 0.49535 0.0
C168 C 0.66628 0.98189 0.92453 0.0
C169 C 0.65836 0.92787 0.94265 0.0
C170 C 0.69368 0.02037 0.93225 0.0
C171 C 0.71374 0.00457 0.95877 0.0
C172 C 0.70502 0.95185 0.97804 0.0
C173 C 0.67741 0.91415 0.96978 0.0
C174 C 0.70193 0.07654 0.91123 0.0
C175 C 0.72568 0.93362 0.00656 0.0
C176 C 0.80258 0.06523 0.95233 0.0
C177 C 0.80091 0.12227 0.96966 0.0
C178 C 0.77483 0.02475 0.94995 0.0
C179 C 0.74465 0.04173 0.96518 0.0
C180 C 0.74342 0.09721 0.98426 0.0
C181 C 0.77156 0.1367 0.98633 0.0
C182 C 0.77729 0.96559 0.92965 0.0
C183 C 0.71179 0.11688 0.00099 0.0
H184 H 0.6517 0.99305 0.90361 0.0
H185 H 0.67158 0.87244 0.98391 0.0
H186 H 0.70416 0.12053 0.92569 0.0
H187 H 0.72632 0.06856 0.89949 0.0
H188 H 0.68285 0.08447 0.89256 0.0
H189 H 0.71393 0.89501 0.02072 0.0
H190 H 0.75056 0.91715 0.9986 0.0
H191 H 0.72962 0.97555 0.02217 0.0
H192 H 0.82514 0.05345 0.93948 0.0
H193 H 0.76998 0.18049 -9e-05 0.0
H194 H 0.76152 0.97131 0.9082 0.0
H195 H 0.76787 0.92353 0.94284 0.0
H196 H 0.80324 0.95587 0.9219 0.0
H197 H 0.69301 0.13171 0.98314 0.0
H198 H 0.71591 0.15714 0.01768 0.0
H199 H 0.70114 0.07618 0.01439 0.0
C200 C 0.67503 0.56687 0.55223 0.0
C201 C 0.67725 0.61708 0.57408 0.0
C202 C 0.70097 0.52208 0.54937 0.0
C203 C 0.72984 0.52846 0.56848 0.0
C204 C 0.73277 0.58094 0.58938 0.0
C205 C 0.7064 0.62421 0.59207 0.0
C206 C 0.69689 0.46648 0.52697 0.0
C207 C 0.76321 0.59005 0.60995 0.0
C208 C 0.77793 0.38401 0.59645 0.0
C209 C 0.80678 0.38656 0.57767 0.0
C210 C 0.7522 0.42829 0.59264 0.0
C211 C 0.75536 0.47704 0.56964 0.0
C212 C 0.78405 0.47929 0.55005 0.0
C213 C 0.80944 0.43373 0.5542 0.0
C214 C 0.72199 0.42389 0.61395 0.0
C215 C 0.78836 0.5309 0.52543 0.0
H216 H 0.65264 0.56144 0.53813 0.0
H217 H 0.70861 0.66365 0.60858 0.0
H218 H 0.71935 0.461 0.51188 0.0
H219 H 0.69408 0.4219 0.54089 0.0
H220 H 0.67477 0.47194 0.51138 0.0
H221 H 0.76303 0.6366 0.62253 0.0
H222 H 0.76444 0.5515 0.62795 0.0
H223 H 0.78616 0.58704 0.59536 0.0
H224 H 0.77539 0.34729 0.6144 0.0
H225 H 0.83157 0.43577 0.5395 0.0
H226 H 0.6989 0.42379 0.59952 0.0
H227 H 0.72096 0.46616 0.62976 0.0
H228 H 0.72226 0.38038 0.62899 0.0
H229 H 0.76608 0.53352 0.50994 0.0
H230 H 0.81068 0.52299 0.51034 0.0
H231 H 0.79087 0.57777 0.53739 0.0
C232 C 0.42228 0.20935 0.17935 0.0
C233 C 0.39 0.19161 0.17017 0.0
C234 C 0.43096 0.2137 0.21161 0.0
C235 C 0.40677 0.20005 0.2351 0.0
C236 C 0.37459 0.1797 0.22594 0.0
C237 C 0.36663 0.17565 0.19361 0.0
C238 C 0.46559 0.235 0.22055 0.0
C239 C 0.34813 0.16432 0.25029 0.0
C240 C 0.42681 0.16426 0.32115 0.0
C241 C 0.41743 0.2214 0.33599 0.0
C242 C 0.42543 0.15775 0.28802 0.0
C243 C 0.41423 0.20951 0.26935 0.0
C244 C 0.40666 0.26851 0.28403 0.0
C245 C 0.40845 0.27381 0.31722 0.0
C246 C 0.43404 0.0943 0.27322 0.0
C247 C 0.39466 0.32486 0.2649 0.0
H248 H 0.44049 0.22175 0.16137 0.0
H249 H 0.3417 0.16155 0.18675 0.0
H250 H 0.46438 0.28238 0.23219 0.0
H251 H 0.47671 0.2014 0.2379 0.0
H252 H 0.48229 0.2385 0.19958 0.0
H253 H 0.32476 0.14676 0.23923 0.0
H254 H 0.35734 0.12755 0.26705 0.0
H255 H 0.34228 0.20754 0.26443 0.0
H256 H 0.4341 0.1237 0.3355 0.0
H257 H 0.40124 0.31816 0.3285 0.0
H258 H 0.45056 0.10099 0.25236 0.0
H259 H 0.41096 0.07089 0.26466 0.0
H260 H 0.44649 0.06183 0.29035 0.0
H261 H 0.41153 0.33377 0.24451 0.0
H262 H 0.39302 0.36897 0.27942 0.0
H263 H 0.36962 0.31437 0.25508 0.0
C264 C 0.1268 0.67657 0.308 0.0
C265 C 0.10954 0.71472 0.32979 0.0
C266 C 0.12365 0.68662 0.27521 0.0
C267 C 0.10316 0.73673 0.26401 0.0
C268 C 0.08427 0.77317 0.28581 0.0
C269 C 0.08749 0.76138 0.31849 0.0
C270 C 0.14367 0.64581 0.25264 0.0
C271 C 0.06236 0.82728 0.27481 0.0
C272 C 0.13321 0.80621 0.18609 0.0
C273 C 0.11199 0.77662 0.16422 0.0
C274 C 0.12942 0.79617 0.21881 0.0
C275 C 0.10418 0.75455 0.22985 0.0
C276 C 0.08175 0.7267 0.20797 0.0
C277 C 0.08576 0.73851 0.17536 0.0
C278 C 0.15342 0.82786 0.24146 0.0
C279 C 0.05478 0.68157 0.2188 0.0
H280 H 0.14366 0.64011 0.31661 0.0
H281 H 0.07414 0.79125 0.33522 0.0
H282 H 0.12761 0.62758 0.23323 0.0
H283 H 0.16355 0.675 0.24155 0.0
H284 H 0.15547 0.60465 0.26483 0.0
H285 H 0.04639 0.846 0.29424 0.0
H286 H 0.07818 0.86674 0.26585 0.0
H287 H 0.0462 0.81177 0.2549 0.0
H288 H 0.15337 0.83601 0.17755 0.0
H289 H 0.06943 0.71512 0.15851 0.0
H290 H 0.16954 0.79125 0.25263 0.0
H291 H 0.13962 0.85219 0.26081 0.0
H292 H 0.16958 0.86331 0.22936 0.0
H293 H 0.06628 0.63689 0.22763 0.0
H294 H 0.03725 0.66937 0.19932 0.0
H295 H 0.04046 0.70254 0.23877 0.0
C296 C 0.62284 0.78022 0.80009 0.0
C297 C 0.59945 0.77612 0.82473 0.0
C298 C 0.6128 0.78278 0.76827 0.0
C299 C 0.57846 0.78113 0.76079 0.0
C300 C 0.55462 0.7776 0.7855 0.0
C301 C 0.5654 0.7752 0.81725 0.0
C302 C 0.63905 0.78673 0.74261 0.0
C303 C 0.51782 0.77568 0.77836 0.0
C304 C 0.56204 0.84374 0.67807 0.0
C305 C 0.56373 0.7875 0.6601 0.0
C306 C 0.56425 0.84212 0.71131 0.0
C307 C 0.56806 0.78283 0.72691 0.0
C308 C 0.56673 0.72563 0.70912 0.0
C309 C 0.5646 0.72863 0.67588 0.0
C310 C 0.56536 0.90419 0.72943 0.0
C311 C 0.5703 0.66139 0.7249 0.0
H312 H 0.64918 0.78104 0.80561 0.0
H313 H 0.54717 0.77188 0.83617 0.0
H314 H 0.63706 0.74491 0.72659 0.0
H315 H 0.63509 0.83 0.72795 0.0
H316 H 0.66468 0.78825 0.75246 0.0
H317 H 0.50245 0.77422 0.80029 0.0
H318 H 0.51057 0.81811 0.76425 0.0
H319 H 0.51199 0.73308 0.76377 0.0
H320 H 0.56101 0.88946 0.66613 0.0
H321 H 0.56556 0.68488 0.66221 0.0
H322 H 0.59125 0.91344 0.73737 0.0
H323 H 0.54951 0.90166 0.75098 0.0
H324 H 0.55706 0.94509 0.71467 0.0
H325 H 0.59649 0.65472 0.73257 0.0
H326 H 0.56359 0.62172 0.70864 0.0
H327 H 0.55443 0.65847 0.74642 0.0
C328 C 0.91244 0.26335 0.68479 0.0
C329 C 0.91988 0.20886 0.66684 0.0
C330 C 0.90945 0.26008 0.71793 0.0
C331 C 0.91399 0.2009 0.73348 0.0
C332 C 0.92376 0.14672 0.71575 0.0
C333 C 0.92665 0.15138 0.6826 0.0
C334 C 0.89931 0.31911 0.73605 0.0
C335 C 0.92904 0.0829 0.73151 0.0
C336 C 0.91926 0.20538 0.82355 0.0
C337 C 0.88603 0.19374 0.83212 0.0
C338 C 0.92908 0.20593 0.79153 0.0
C339 C 0.90509 0.19457 0.7676 0.0
C340 C 0.87181 0.18046 0.77617 0.0
C341 C 0.86269 0.1802 0.80832 0.0
C342 C 0.96481 0.22083 0.78326 0.0
C343 C 0.84551 0.16775 0.75131 0.0
H344 H 0.90745 0.3081 0.67284 0.0
H345 H 0.93256 0.10906 0.66894 0.0
H346 H 0.87358 0.31316 0.74518 0.0
H347 H 0.91581 0.32635 0.75686 0.0
H348 H 0.90011 0.36259 0.72101 0.0
H349 H 0.94078 0.04783 0.71521 0.0
H350 H 0.94488 0.088 0.75293 0.0
H351 H 0.9047 0.06353 0.73938 0.0
H352 H 0.93748 0.21577 0.84181 0.0
H353 H 0.83702 0.17085 0.81472 0.0
H354 H 0.96609 0.26736 0.7708 0.0
H355 H 0.9749 0.18429 0.76683 0.0
H356 H 0.98096 0.22313 0.80465 0.0
H357 H 0.84188 0.21095 0.73651 0.0
H358 H 0.82119 0.15437 0.76197 0.0
H359 H 0.85367 0.12883 0.73526 0.0
C360 C 0.44582 0.38432 0.01113 0.0
C361 C 0.45475 0.36631 0.04205 0.0
C362 C 0.46358 0.43185 0.99485 0.0
C363 C 0.49135 0.46103 0.0096 0.0
C364 C 0.50083 0.44218 0.0406 0.0
C365 C 0.4822 0.39552 0.05657 0.0
C366 C 0.45243 0.45131 0.962 0.0
C367 C 0.53076 0.47105 0.05682 0.0
C368 C 0.55587 0.5363 0.95555 0.0
C369 C 0.54901 0.60151 0.95896 0.0
C370 C 0.53754 0.49029 0.97217 0.0
C371 C 0.51116 0.50978 0.9922 0.0
C372 C 0.50389 0.57556 0.99559 0.0
C373 C 0.52321 0.62081 0.9792 0.0
C374 C 0.54662 0.4208 0.96847 0.0
C375 C 0.47554 0.59802 0.0163 0.0
H376 H 0.4244 0.36242 -8e-05 0.0
H377 H 0.48924 0.38166 0.08045 0.0
H378 H 0.44737 0.50329 0.96142 0.0
H379 H 0.47252 0.44174 0.94455 0.0
H380 H 0.42965 0.42557 0.95431 0.0
H381 H 0.53502 0.45067 0.08084 0.0
H382 H 0.55337 0.46299 0.04221 0.0
H383 H 0.5275 0.52332 0.05915 0.0
H384 H 0.57605 0.5211 0.94021 0.0
H385 H 0.51779 0.67115 0.98179 0.0
H386 H 0.52522 0.39394 0.9586 0.0
H387 H 0.55242 0.39986 0.99203 0.0
H388 H 0.56841 0.41374 0.9526 0.0
H389 H 0.4519 0.57594 0.00826 0.0
H390 H 0.47266 0.65066 0.01586 0.0
H391 H 0.47968 0.58269 0.0412 0.0
C392 C 0.04798 0.59463 0.00809 0.0
C393 C 0.03439 0.6254 0.03468 0.0
C394 C 0.03132 0.54364 0.99352 0.0
C395 C -6e-05 0.52404 0.00533 0.0
C396 C 0.98574 0.55598 0.0317 0.0
C397 C 0.00335 0.60577 0.04632 0.0
C398 C 0.04751 0.5101 0.96578 0.0
C399 C 0.95191 0.53765 0.04441 0.0
C400 C 0.94357 0.43704 0.94773 0.0
C401 C 0.94615 0.37369 0.95813 0.0
C402 C 0.96057 0.48632 0.96317 0.0
C403 C 0.98138 0.47185 0.98925 0.0
C404 C 0.98444 0.40787 -0.00026 0.0
C405 C 0.96635 0.35949 0.98428 0.0
C406 C 0.95595 0.55401 0.95173 0.0
C407 C 0.00696 0.39057 0.02709 0.0
H408 H 0.07223 0.60894 -0.00068 0.0
H409 H 0.99283 0.62939 0.06691 0.0
H410 H 0.04997 0.45847 0.97098 0.0
H411 H 0.03167 0.51469 0.94433 0.0
H412 H 0.07257 0.5296 0.96026 0.0
H413 H 0.94414 0.56793 0.06475 0.0
H414 H 0.93298 0.54186 0.02533 0.0
H415 H 0.95211 0.48719 0.05224 0.0
H416 H 0.92755 0.44851 0.92782 0.0
H417 H 0.96836 0.31058 0.99235 0.0
H418 H 0.98015 0.57395 0.94385 0.0
H419 H 0.94683 0.58436 0.9715 0.0
H420 H 0.93804 0.55737 0.93171 0.0
H421 H 0.03276 0.40642 0.02195 0.0
H422 H 0.00721 0.33849 0.03183 0.0
H423 H 0.99878 0.41561 0.04895 0.0
C424 C 0.49881 0.87714 0.51342 0.0
C425 C 0.53259 0.86795 0.52015 0.0
C426 C 0.48746 0.93515 0.50069 0.0
C427 C 0.51028 0.98581 0.49584 0.0
C428 C 0.54443 0.97656 0.50256 0.0
C429 C 0.55524 0.91742 0.51411 0.0
C430 C 0.45102 0.94251 0.49279 0.0
C431 C 0.56938 0.02986 0.49868 0.0
C432 C 0.48714 0.12136 0.44031 0.0
C433 C 0.47342 0.16591 0.46143 0.0
C434 C 0.49912 0.06248 0.45117 0.0
C435 C 0.49841 0.04874 0.48408 0.0
C436 C 0.48598 0.09484 0.50567 0.0
C437 C 0.47298 0.15245 0.494 0.0
C438 C 0.5112 0.01396 0.42729 0.0
C439 C 0.48589 0.08285 0.54104 0.0
H440 H 0.48129 0.83903 0.51821 0.0
H441 H 0.58132 0.91097 0.5199 0.0
H442 H 0.43964 0.97902 0.50844 0.0
H443 H 0.44809 0.95926 0.46794 0.0
H444 H 0.43704 0.8972 0.4957 0.0
H445 H 0.59504 0.01491 0.50509 0.0
H446 H 0.5695 0.04708 0.47377 0.0
H447 H 0.56218 0.07074 0.51393 0.0
H448 H 0.48686 0.13105 0.41501 0.0
H449 H 0.46218 0.18675 0.51028 0.0
H450 H 0.49566 0.97033 0.42885 0.0
H451 H 0.53717 -0.00021 0.43269 0.0
H452 H 0.51021 0.03219 0.40253 0.0
H453 H 0.46879 0.04295 0.5467 0.0
H454 H 0.47791 0.12546 0.55473 0.0
H455 H 0.51112 0.06866 0.54908 0.0
C456 C 0.00087 0.15868 0.53356 0.0
C457 C 0.96674 0.16739 0.52809 0.0
C458 C 0.01844 0.10898 0.51872 0.0
C459 C 0.0014 0.06665 0.49817 0.0
C460 C 0.96714 0.07606 0.49199 0.0
C461 C 0.9503 0.12649 0.50684 0.0
C462 C 0.05512 0.1011 0.52545 0.0
C463 C 0.94807 0.03189 0.47028 0.0
C464 C 0.05092 0.97063 0.4382 0.0
C465 C 0.05374 0.91121 0.45333 0.0
C466 C 0.03417 0.02157 0.45262 0.0
C467 C 0.01944 0.01287 0.48281 0.0
C468 C 0.02174 0.95283 0.4981 0.0
C469 C 0.03906 0.90272 0.48325 0.0
C470 C 0.03254 0.08493 0.43564 0.0
C471 C 0.00596 0.94163 0.53017 0.0
H472 H 0.01378 0.18996 0.54992 0.0
H473 H 0.92389 0.13251 0.50253 0.0
H474 H 0.05965 0.05428 0.5369 0.0
H475 H 0.06941 0.10165 0.50289 0.0
H476 H 0.06493 0.13918 0.54121 0.0
H477 H 0.92154 0.04596 0.46781 0.0
H478 H 0.95963 0.03136 0.44634 0.0
H479 H 0.94915 0.9825 0.47963 0.0
H480 H 0.06234 0.97792 0.41515 0.0
H481 H 0.04115 0.85702 0.49508 0.0
H482 H 0.04392 0.12261 0.4506 0.0
H483 H 0.00621 0.09862 0.43158 0.0
H484 H 0.04558 0.084 0.41236 0.0
H485 H 0.01677 0.97477 0.54792 0.0
H486 H 0.00955 0.89199 0.53868 0.0
H487 H 0.97888 0.95167 0.52896 0.0
C488 C 0.17065 0.53736 0.1201 0.0
C489 C 0.16849 0.57708 0.09341 0.0
C490 C 0.1939 0.4875 0.12117 0.0
C491 C 0.21498 0.47693 0.09474 0.0
C492 C 0.21279 0.5168 0.06773 0.0
C493 C 0.18971 0.56665 0.06749 0.0
C494 C 0.19597 0.44628 0.15049 0.0
C495 C 0.23466 0.50655 0.03896 0.0
C496 C 0.29655 0.38798 0.10029 0.0
C497 C 0.28794 0.3289 0.08709 0.0
C498 C 0.27257 0.43567 0.10451 0.0
C499 C 0.23938 0.42409 0.09491 0.0
C500 C 0.23029 0.36376 0.08267 0.0
C501 C 0.2547 0.31666 0.07906 0.0
C502 C 0.28302 0.49926 0.11804 0.0
C503 C 0.19515 0.34997 0.07193 0.0
H504 H 0.15439 0.54553 0.14025 0.0
H505 H 0.18802 0.59702 0.04671 0.0
H506 H 0.19064 0.39595 0.14425 0.0
H507 H 0.22156 0.44781 0.16035 0.0
H508 H 0.17822 0.4616 0.16925 0.0
H509 H 0.22952 0.54147 0.01974 0.0
H510 H 0.26125 0.51058 0.04577 0.0
H511 H 0.23083 0.45781 0.0294 0.0
H512 H 0.32216 0.39737 0.1069 0.0
H513 H 0.24791 0.27097 0.06894 0.0
H514 H 0.26594 0.51377 0.13746 0.0
H515 H 0.28153 0.5363 0.09929 0.0
H516 H 0.30886 0.49829 0.12742 0.0
H517 H 0.17715 0.36235 0.09093 0.0
H518 H 0.19159 0.29915 0.06535 0.0
H519 H 0.18911 0.37992 0.05099 0.0
C520 C 0.29722 0.12048 0.37869 0.0
C521 C 0.31428 0.13661 0.40659 0.0
C522 C 0.2763 0.06705 0.3777 0.0
C523 C 0.27217 0.02962 0.40538 0.0
C524 C 0.28941 0.04558 0.43356 0.0
C525 C 0.3104 0.09877 0.43378 0.0
C526 C 0.25846 0.0509 0.34718 0.0
C527 C 0.28528 0.00707 0.46364 0.0
C528 C 0.19342 0.93366 0.41604 0.0
C529 C 0.20467 0.87149 0.41011 0.0
C530 C 0.21505 0.9857 0.41395 0.0
C531 C 0.24866 0.97534 0.40546 0.0
C532 C 0.26004 0.91299 0.39863 0.0
C533 C 0.23788 0.86159 0.40118 0.0
C534 C 0.20211 0.05154 0.42167 0.0
C535 C 0.29572 0.90051 0.38923 0.0
H536 H 0.3004 0.14929 0.35753 0.0
H537 H 0.32353 0.11108 0.45542 0.0
H538 H 0.26402 0.00106 0.34014 0.0
H539 H 0.23117 0.05431 0.35078 0.0
H540 H 0.26562 0.08309 0.32736 0.0
H541 H 0.30105 0.02515 0.48335 0.0
H542 H 0.25889 0.00825 0.47139 0.0
H543 H 0.29181 0.95649 0.45917 0.0
H544 H 0.16776 0.94173 0.42294 0.0
H545 H 0.24664 0.81368 0.39639 0.0
H546 H 0.20694 0.08443 0.40156 0.0
H547 H 0.21545 0.07078 0.44266 0.0
H548 H 0.17499 0.05164 0.42683 0.0
H549 H 0.30271 0.93087 0.36871 0.0
H550 H 0.30008 0.84982 0.38284 0.0
H551 H 0.31251 0.91326 0.40916 0.0
C552 C 0.73577 0.67008 0.92012 0.0
C553 C 0.70188 0.65547 0.92323 0.0
C554 C 0.75999 0.62206 0.92198 0.0
C555 C 0.74996 0.55832 0.9274 0.0
C556 C 0.71578 0.54321 0.93011 0.0
C557 C 0.69214 0.59194 0.92782 0.0
C558 C 0.79627 0.63959 0.91864 0.0
C559 C 0.70418 0.4758 0.93621 0.0
C560 C 0.80716 0.41907 0.91004 0.0
C561 C 0.81922 0.40483 0.94047 0.0
C562 C 0.78536 0.47033 0.90522 0.0
C563 C 0.77513 0.50743 0.93154 0.0
C564 C 0.78756 0.49376 0.96223 0.0
C565 C 0.80964 0.4428 0.96629 0.0
C566 C 0.77288 0.48418 0.8721 0.0
C567 C 0.77687 0.53192 0.99092 0.0
H568 H 0.74341 0.71906 0.91642 0.0
H569 H 0.66598 0.58027 0.93029 0.0
H570 H 0.80958 0.62915 0.94113 0.0
H571 H 0.80806 0.61037 0.89977 0.0
H572 H 0.7998 0.69078 0.9128 0.0
H573 H 0.67662 0.47193 0.93705 0.0
H574 H 0.71362 0.44356 0.91736 0.0
H575 H 0.7144 0.45859 0.95914 0.0
H576 H 0.81477 0.39021 0.88995 0.0
H577 H 0.8189 0.43199 0.98987 0.0
H578 H 0.77759 0.53478 0.86592 0.0
H579 H 0.74558 0.47657 0.87105 0.0
H580 H 0.78489 0.4534 0.85393 0.0
H581 H 0.78204 0.58326 0.98707 0.0
H582 H 0.78973 0.51643 0.01297 0.0
H583 H 0.74963 0.52687 0.99448 0.0
C584 C 0.67888 0.92465 0.58434 0.0
C585 C 0.68679 0.87022 0.5666 0.0
C586 C 0.70302 0.97108 0.59064 0.0
C587 C 0.73587 0.96195 0.57944 0.0
C588 C 0.74414 0.90643 0.56205 0.0
C589 C 0.71933 0.86142 0.55553 0.0
C590 C 0.69322 0.03038 0.60872 0.0
C591 C 0.77911 0.89478 0.55022 0.0
C592 C 0.79115 0.10545 0.56682 0.0
C593 C 0.81048 0.10489 0.59451 0.0
C594 C 0.76638 0.05967 0.56188 0.0
C595 C 0.76137 0.01158 0.58492 0.0
C596 C 0.78083 0.01068 0.61293 0.0
C597 C 0.80501 0.05792 0.61756 0.0
C598 C 0.7456 0.06278 0.53201 0.0
C599 C 0.77641 0.95937 0.63773 0.0
H600 H 0.65364 0.93158 0.59278 0.0
H601 H 0.72551 0.81896 0.54209 0.0
H602 H 0.70889 0.03552 0.63026 0.0
H603 H 0.69759 0.07309 0.59375 0.0
H604 H 0.66666 0.02975 0.61606 0.0
H605 H 0.78175 0.84766 0.53844 0.0
H606 H 0.78623 0.93243 0.53301 0.0
H607 H 0.79695 0.89728 0.57029 0.0
H608 H 0.79514 0.14217 0.5491 0.0
H609 H 0.82009 0.05732 0.63891 0.0
H610 H 0.71879 0.0653 0.53825 0.0
H611 H 0.74929 0.01889 0.51775 0.0
H612 H 0.75195 0.10461 0.517 0.0
H613 H 0.75049 0.95975 0.64681 0.0
H614 H 0.79368 0.96538 0.65812 0.0
H615 H 0.78078 0.91185 0.62693 0.0
loop_
_geom_bond_atom_site_label_1
_geom_bond_atom_site_label_2
_geom_bond_distance
_geom_bond_site_symmetry_2
_ccdc_geom_bond_type
C0 O1 1.160 . S
C0 O7 1.185 . S
O1 C0 1.160 . S
O2 Zn3 1.899 . S
O2 C10 1.284 . S
Zn3 O2 1.899 . S
Zn3 O4 2.032 . S
Zn3 O7 2.086 . S
Zn3 O12 1.977 . S
O4 Zn3 2.032 . S
O4 C8 1.278 . S
C5 O6 1.203 . S
C5 O12 1.267 . S
O6 C5 1.203 . S
O7 C0 1.185 . S
O7 Zn3 2.086 . S
C8 O4 1.278 . S
C8 O9 1.211 . S
O9 C8 1.211 . S
C10 O2 1.284 . S
C10 O11 1.273 . S
O11 C10 1.273 . S
O12 Zn3 1.977 . S
O12 C5 1.267 . S
C13 O14 1.160 . S
C13 O20 1.185 . S
O14 C13 1.160 . S
O15 Zn16 1.899 . S
O15 C23 1.284 . S
Zn16 O15 1.899 . S
Zn16 O17 2.032 . S
Zn16 O20 2.086 . S
Zn16 O25 1.977 . S
O17 Zn16 2.032 . S
O17 C21 1.278 . S
C18 O19 1.203 . S
C18 O25 1.267 . S
O19 C18 1.203 . S
O20 C13 1.185 . S
O20 Zn16 2.086 . S
C21 O17 1.278 . S
C21 O22 1.211 . S
O22 C21 1.211 . S
C23 O15 1.284 . S
C23 O24 1.273 . S
O24 C23 1.273 . S
O25 Zn16 1.977 . S
O25 C18 1.267 . S
C26 O27 1.160 . S
C26 O33 1.185 . S
O27 C26 1.160 . S
O28 Zn29 1.899 . S
O28 C36 1.284 . S
Zn29 O28 1.899 . S
Zn29 O30 2.032 . S
Zn29 O33 2.086 . S
Zn29 O38 1.977 . S
O30 Zn29 2.032 . S
O30 C34 1.278 . S
C31 O32 1.203 . S
C31 O38 1.267 . S
O32 C31 1.203 . S
O33 C26 1.185 . S
O33 Zn29 2.086 . S
C34 O30 1.278 . S
C34 O35 1.211 . S
O35 C34 1.211 . S
C36 O28 1.284 . S
C36 O37 1.273 . S
O37 C36 1.273 . S
O38 Zn29 1.977 . S
O38 C31 1.267 . S
C39 O40 1.160 . S
C39 O46 1.185 . S
O40 C39 1.160 . S
O41 Zn42 1.899 . S
O41 C49 1.284 . S
Zn42 O41 1.899 . S
Zn42 O43 2.032 . S
Zn42 O46 2.086 . S
Zn42 O51 1.977 . S
O43 Zn42 2.032 . S
O43 C47 1.278 . S
C44 O45 1.203 . S
C44 O51 1.267 . S
O45 C44 1.203 . S
O46 C39 1.185 . S
O46 Zn42 2.086 . S
C47 O43 1.278 . S
C47 O48 1.211 . S
O48 C47 1.211 . S
C49 O41 1.284 . S
C49 O50 1.273 . S
O50 C49 1.273 . S
O51 Zn42 1.977 . S
O51 C44 1.267 . S
C52 O53 1.160 . S
C52 O59 1.185 . S
O53 C52 1.160 . S
O54 Zn55 1.899 . S
O54 C62 1.284 . S
Zn55 O54 1.899 . S
Zn55 O56 2.032 . S
Zn55 O59 2.086 . S
Zn55 O64 1.977 . S
O56 Zn55 2.032 . S
O56 C60 1.278 . S
C57 O58 1.203 . S
C57 O64 1.267 . S
O58 C57 1.203 . S
O59 C52 1.185 . S
O59 Zn55 2.086 . S
C60 O56 1.278 . S
C60 O61 1.211 . S
O61 C60 1.211 . S
C62 O54 1.284 . S
C62 O63 1.273 . S
O63 C62 1.273 . S
O64 Zn55 1.977 . S
O64 C57 1.267 . S
C65 O66 1.160 . S
C65 O72 1.185 . S
O66 C65 1.160 . S
O67 Zn68 1.899 . S
O67 C75 1.284 . S
Zn68 O67 1.899 . S
Zn68 O69 2.032 . S
Zn68 O72 2.086 . S
Zn68 O77 1.977 . S
O69 Zn68 2.032 . S
O69 C73 1.278 . S
C70 O71 1.203 . S
C70 O77 1.267 . S
O71 C70 1.203 . S
O72 C65 1.185 . S
O72 Zn68 2.086 . S
C73 O69 1.278 . S
C73 O74 1.211 . S
O74 C73 1.211 . S
C75 O67 1.284 . S
C75 O76 1.273 . S
O76 C75 1.273 . S
O77 Zn68 1.977 . S
O77 C70 1.267 . S
C78 O79 1.160 . S
C78 O85 1.185 . S
O79 C78 1.160 . S
O80 Zn81 1.899 . S
O80 C88 1.284 . S
Zn81 O80 1.899 . S
Zn81 O82 2.032 . S
Zn81 O85 2.086 . S
Zn81 O90 1.977 . S
O82 Zn81 2.032 . S
O82 C86 1.278 . S
C83 O84 1.203 . S
C83 O90 1.267 . S
O84 C83 1.203 . S
O85 C78 1.185 . S
O85 Zn81 2.086 . S
C86 O82 1.278 . S
C86 O87 1.211 . S
O87 C86 1.211 . S
C88 O80 1.284 . S
C88 O89 1.273 . S
O89 C88 1.273 . S
O90 Zn81 1.977 . S
O90 C83 1.267 . S
C91 O92 1.160 . S
C91 O98 1.185 . S
O92 C91 1.160 . S
O93 Zn94 1.899 . S
O93 C101 1.284 . S
Zn94 O93 1.899 . S
Zn94 O95 2.032 . S
Zn94 O98 2.086 . S
Zn94 O103 1.977 . S
O95 Zn94 2.032 . S
O95 C99 1.278 . S
C96 O97 1.203 . S
C96 O103 1.267 . S
O97 C96 1.203 . S
O98 C91 1.185 . S
O98 Zn94 2.086 . S
C99 O95 1.278 . S
C99 O100 1.211 . S
O100 C99 1.211 . S
C101 O93 1.284 . S
C101 O102 1.273 . S
O102 C101 1.273 . S
O103 Zn94 1.977 . S
O103 C96 1.267 . S
C104 C105 1.391 . S
C104 C106 1.394 . S
C104 H120 0.931 . S
C105 C104 1.391 . S
C105 C109 1.376 . S
C106 C104 1.394 . S
C106 C107 1.369 . S
C106 C110 1.531 . S
C107 C106 1.369 . S
C107 C108 1.410 1_545 S
C107 C115 1.503 1_545 S
C108 C107 1.410 1_565 S
C108 C109 1.392 1_565 S
C108 C111 1.511 . S
C109 C105 1.376 . S
C109 C108 1.392 1_545 S
C109 H121 0.929 . S
C110 C106 1.531 . S
C110 H122 0.960 . S
C110 H123 0.962 . S
C110 H124 0.943 1_554 S
C111 C108 1.511 . S
C111 H125 0.961 . S
C111 H126 0.961 . S
C111 H127 0.961 . S
C112 C113 1.370 . S
C112 C114 1.363 . S
C112 H128 0.931 . S
C113 C112 1.370 . S
C113 C117 1.408 . S
C114 C112 1.363 . S
C114 C115 1.370 . S
C114 C118 1.524 1_565 S
C115 C107 1.503 1_565 S
C115 C114 1.370 . S
C115 C116 1.403 . S
C116 C115 1.403 . S
C116 C117 1.404 . S
C116 C119 1.539 1_554 S
C117 C113 1.408 . S
C117 C116 1.404 . S
C117 H129 0.930 . S
C118 C114 1.524 1_545 S
C118 H130 0.956 . S
C118 H131 0.961 . S
C118 H132 0.961 . S
C119 C116 1.539 1_556 S
C119 H133 0.958 . S
C119 H134 0.961 . S
C119 H135 0.960 . S
H120 C104 0.931 . S
H121 C109 0.929 . S
H122 C110 0.960 . S
H123 C110 0.962 . S
H124 C110 0.943 1_556 S
H125 C111 0.961 . S
H126 C111 0.961 . S
H127 C111 0.961 . S
H128 C112 0.931 . S
H129 C117 0.930 . S
H130 C118 0.956 . S
H131 C118 0.961 . S
H132 C118 0.961 . S
H133 C119 0.958 . S
H134 C119 0.961 . S
H135 C119 0.960 . S
C136 C137 1.391 . S
C136 C138 1.394 . S
C136 H152 0.931 . S
C137 C136 1.391 . S
C137 C141 1.376 . S
C138 C136 1.394 . S
C138 C139 1.369 . S
C138 C142 1.531 . S
C139 C138 1.369 . S
C139 C140 1.410 . S
C139 C147 1.503 . S
C140 C139 1.410 . S
C140 C141 1.392 . S
C140 C143 1.511 . S
C141 C137 1.376 . S
C141 C140 1.392 . S
C141 H153 0.929 . S
C142 C138 1.531 . S
C142 H154 0.960 . S
C142 H155 0.962 . S
C142 H156 0.960 . S
C143 C140 1.511 . S
C143 H157 0.961 . S
C143 H158 0.961 . S
C143 H159 0.961 . S
C144 C145 1.370 . S
C144 C146 1.363 . S
C144 H160 0.931 . S
C145 C144 1.370 . S
C145 C149 1.408 . S
C146 C144 1.363 . S
C146 C147 1.370 . S
C146 C150 1.524 . S
C147 C139 1.503 . S
C147 C146 1.370 . S
C147 C148 1.403 . S
C148 C147 1.403 . S
C148 C149 1.404 . S
C148 C151 1.539 . S
C149 C145 1.408 . S
C149 C148 1.404 . S
C149 H161 0.930 . S
C150 C146 1.524 . S
C150 H162 0.956 . S
C150 H163 0.961 . S
C150 H164 0.961 . S
C151 C148 1.539 . S
C151 H165 0.958 . S
C151 H166 0.961 . S
C151 H167 0.960 . S
H152 C136 0.931 . S
H153 C141 0.929 . S
H154 C142 0.960 . S
H155 C142 0.962 . S
H156 C142 0.960 . S
H157 C143 0.961 . S
H158 C143 0.961 . S
H159 C143 0.961 . S
H160 C144 0.931 . S
H161 C149 0.930 . S
H162 C150 0.956 . S
H163 C150 0.961 . S
H164 C150 0.961 . S
H165 C151 0.958 . S
H166 C151 0.961 . S
H167 C151 0.960 . S
C168 C169 1.391 . S
C168 C170 1.394 . S
C168 H184 0.931 . S
C169 C168 1.391 . S
C169 C173 1.376 . S
C170 C168 1.394 . S
C170 C171 1.369 . S
C170 C174 1.531 . S
C171 C170 1.369 . S
C171 C172 1.410 . S
C171 C179 1.503 1_565 S
C172 C171 1.410 . S
C172 C173 1.392 . S
C172 C175 1.523 1_565 S
C173 C169 1.376 . S
C173 C172 1.392 . S
C173 H185 0.929 . S
C174 C170 1.531 . S
C174 H186 0.960 . S
C174 H187 0.962 . S
C174 H188 0.960 . S
C175 C172 1.523 1_545 S
C175 H189 0.948 1_556 S
C175 H190 0.959 1_556 S
C175 H191 0.964 . S
C176 C177 1.370 . S
C176 C178 1.363 . S
C176 H192 0.931 . S
C177 C176 1.370 . S
C177 C181 1.408 . S
C178 C176 1.363 . S
C178 C179 1.370 . S
C178 C182 1.524 1_545 S
C179 C171 1.503 1_545 S
C179 C178 1.370 . S
C179 C180 1.403 . S
C180 C179 1.403 . S
C180 C181 1.404 . S
C180 C183 1.539 . S
C181 C177 1.408 . S
C181 C180 1.404 . S
C181 H193 0.930 . S
C182 C178 1.524 1_565 S
C182 H194 0.956 . S
C182 H195 0.961 . S
C182 H196 0.961 . S
C183 C180 1.539 . S
C183 H197 0.958 . S
C183 H198 0.961 . S
C183 H199 0.960 . S
H184 C168 0.931 . S
H185 C173 0.929 . S
H186 C174 0.960 . S
H187 C174 0.962 . S
H188 C174 0.960 . S
H189 C175 0.948 1_554 S
H190 C175 0.959 1_554 S
H191 C175 0.964 . S
H192 C176 0.931 . S
H193 C181 0.930 . S
H194 C182 0.956 . S
H195 C182 0.961 . S
H196 C182 0.961 . S
H197 C183 0.958 . S
H198 C183 0.961 . S
H199 C183 0.960 . S
C200 C201 1.391 . S
C200 C202 1.394 . S
C200 H216 0.931 . S
C201 C200 1.391 . S
C201 C205 1.376 . S
C202 C200 1.394 . S
C202 C203 1.369 . S
C202 C206 1.531 . S
C203 C202 1.369 . S
C203 C204 1.410 . S
C203 C211 1.503 . S
C204 C203 1.410 . S
C204 C205 1.392 . S
C204 C207 1.511 . S
C205 C201 1.376 . S
C205 C204 1.392 . S
C205 H217 0.929 . S
C206 C202 1.531 . S
C206 H218 0.960 . S
C206 H219 0.962 . S
C206 H220 0.960 . S
C207 C204 1.511 . S
C207 H221 0.961 . S
C207 H222 0.961 . S
C207 H223 0.961 . S
C208 C209 1.370 . S
C208 C210 1.363 . S
C208 H224 0.931 . S
C209 C208 1.370 . S
C209 C213 1.408 . S
C210 C208 1.363 . S
C210 C211 1.370 . S
C210 C214 1.524 . S
C211 C203 1.503 . S
C211 C210 1.370 . S
C211 C212 1.403 . S
C212 C211 1.403 . S
C212 C213 1.404 . S
C212 C215 1.539 . S
C213 C209 1.408 . S
C213 C212 1.404 . S
C213 H225 0.930 . S
C214 C210 1.524 . S
C214 H226 0.956 . S
C214 H227 0.961 . S
C214 H228 0.961 . S
C215 C212 1.539 . S
C215 H229 0.958 . S
C215 H230 0.961 . S
C215 H231 0.960 . S
H216 C200 0.931 . S
H217 C205 0.929 . S
H218 C206 0.960 . S
H219 C206 0.962 . S
H220 C206 0.960 . S
H221 C207 0.961 . S
H222 C207 0.961 . S
H223 C207 0.961 . S
H224 C208 0.931 . S
H225 C213 0.930 . S
H226 C214 0.956 . S
H227 C214 0.961 . S
H228 C214 0.961 . S
H229 C215 0.958 . S
H230 C215 0.961 . S
H231 C215 0.960 . S
C232 C233 1.391 . S
C232 C234 1.394 . S
C232 H248 0.931 . S
C233 C232 1.391 . S
C233 C237 1.376 . S
C234 C232 1.394 . S
C234 C235 1.369 . S
C234 C238 1.531 . S
C235 C234 1.369 . S
C235 C236 1.410 . S
C235 C243 1.503 . S
C236 C235 1.410 . S
C236 C237 1.392 . S
C236 C239 1.511 . S
C237 C233 1.376 . S
C237 C236 1.392 . S
C237 H249 0.929 . S
C238 C234 1.531 . S
C238 H250 0.960 . S
C238 H251 0.962 . S
C238 H252 0.960 . S
C239 C236 1.511 . S
C239 H253 0.961 . S
C239 H254 0.961 . S
C239 H255 0.961 . S
C240 C241 1.370 . S
C240 C242 1.363 . S
C240 H256 0.931 . S
C241 C240 1.370 . S
C241 C245 1.408 . S
C242 C240 1.363 . S
C242 C243 1.370 . S
C242 C246 1.524 . S
C243 C235 1.503 . S
C243 C242 1.370 . S
C243 C244 1.403 . S
C244 C243 1.403 . S
C244 C245 1.404 . S
C244 C247 1.539 . S
C245 C241 1.408 . S
C245 C244 1.404 . S
C245 H257 0.930 . S
C246 C242 1.524 . S
C246 H258 0.956 . S
C246 H259 0.961 . S
C246 H260 0.961 . S
C247 C244 1.539 . S
C247 H261 0.958 . S
C247 H262 0.961 . S
C247 H263 0.960 . S
H248 C232 0.931 . S
H249 C237 0.929 . S
H250 C238 0.960 . S
H251 C238 0.962 . S
H252 C238 0.960 . S
H253 C239 0.961 . S
H254 C239 0.961 . S
H255 C239 0.961 . S
H256 C240 0.931 . S
H257 C245 0.930 . S
H258 C246 0.956 . S
H259 C246 0.961 . S
H260 C246 0.961 . S
H261 C247 0.958 . S
H262 C247 0.961 . S
H263 C247 0.960 . S
C264 C265 1.391 . S
C264 C266 1.394 . S
C264 H280 0.931 . S
C265 C264 1.391 . S
C265 C269 1.376 . S
C266 C264 1.394 . S
C266 C267 1.369 . S
C266 C270 1.531 . S
C267 C266 1.369 . S
C267 C268 1.410 . S
C267 C275 1.503 . S
C268 C267 1.410 . S
C268 C269 1.392 . S
C268 C271 1.511 . S
C269 C265 1.376 . S
C269 C268 1.392 . S
C269 H281 0.929 . S
C270 C266 1.531 . S
C270 H282 0.960 . S
C270 H283 0.962 . S
C270 H284 0.960 . S
C271 C268 1.511 . S
C271 H285 0.961 . S
C271 H286 0.961 . S
C271 H287 0.961 . S
C272 C273 1.370 . S
C272 C274 1.363 . S
C272 H288 0.931 . S
C273 C272 1.370 . S
C273 C277 1.408 . S
C274 C272 1.363 . S
C274 C275 1.370 . S
C274 C278 1.524 . S
C275 C267 1.503 . S
C275 C274 1.370 . S
C275 C276 1.403 . S
C276 C275 1.403 . S
C276 C277 1.404 . S
C276 C279 1.539 . S
C277 C273 1.408 . S
C277 C276 1.404 . S
C277 H289 0.930 . S
C278 C274 1.524 . S
C278 H290 0.956 . S
C278 H291 0.961 . S
C278 H292 0.961 . S
C279 C276 1.539 . S
C279 H293 0.958 . S
C279 H294 0.961 . S
C279 H295 0.960 . S
H280 C264 0.931 . S
H281 C269 0.929 . S
H282 C270 0.960 . S
H283 C270 0.962 . S
H284 C270 0.960 . S
H285 C271 0.961 . S
H286 C271 0.961 . S
H287 C271 0.961 . S
H288 C272 0.931 . S
H289 C277 0.930 . S
H290 C278 0.956 . S
H291 C278 0.961 . S
H292 C278 0.961 . S
H293 C279 0.958 . S
H294 C279 0.961 . S
H295 C279 0.960 . S
C296 C297 1.391 . S
C296 C298 1.394 . S
C296 H312 0.931 . S
C297 C296 1.391 . S
C297 C301 1.376 . S
C298 C296 1.394 . S
C298 C299 1.369 . S
C298 C302 1.531 . S
C299 C298 1.369 . S
C299 C300 1.410 . S
C299 C307 1.503 . S
C300 C299 1.410 . S
C300 C301 1.392 . S
C300 C303 1.511 . S
C301 C297 1.376 . S
C301 C300 1.392 . S
C301 H313 0.929 . S
C302 C298 1.531 . S
C302 H314 0.960 . S
C302 H315 0.962 . S
C302 H316 0.960 . S
C303 C300 1.511 . S
C303 H317 0.961 . S
C303 H318 0.961 . S
C303 H319 0.961 . S
C304 C305 1.370 . S
C304 C306 1.363 . S
C304 H320 0.931 . S
C305 C304 1.370 . S
C305 C309 1.408 . S
C306 C304 1.363 . S
C306 C307 1.370 . S
C306 C310 1.524 . S
C307 C299 1.503 . S
C307 C306 1.370 . S
C307 C308 1.403 . S
C308 C307 1.403 . S
C308 C309 1.404 . S
C308 C311 1.539 . S
C309 C305 1.408 . S
C309 C308 1.404 . S
C309 H321 0.930 . S
C310 C306 1.524 . S
C310 H322 0.956 . S
C310 H323 0.961 . S
C310 H324 0.961 . S
C311 C308 1.539 . S
C311 H325 0.958 . S
C311 H326 0.961 . S
C311 H327 0.960 . S
H312 C296 0.931 . S
H313 C301 0.929 . S
H314 C302 0.960 . S
H315 C302 0.962 . S
H316 C302 0.960 . S
H317 C303 0.961 . S
H318 C303 0.961 . S
H319 C303 0.961 . S
H320 C304 0.931 . S
H321 C309 0.930 . S
H322 C310 0.956 . S
H323 C310 0.961 . S
H324 C310 0.961 . S
H325 C311 0.958 . S
H326 C311 0.961 . S
H327 C311 0.960 . S
C328 C329 1.391 . S
C328 C330 1.394 . S
C328 H344 0.931 . S
C329 C328 1.391 . S
C329 C333 1.376 . S
C330 C328 1.394 . S
C330 C331 1.369 . S
C330 C334 1.531 . S
C331 C330 1.369 . S
C331 C332 1.410 . S
C331 C339 1.503 . S
C332 C331 1.410 . S
C332 C333 1.392 . S
C332 C335 1.511 . S
C333 C329 1.376 . S
C333 C332 1.392 . S
C333 H345 0.929 . S
C334 C330 1.531 . S
C334 H346 0.960 . S
C334 H347 0.962 . S
C334 H348 0.960 . S
C335 C332 1.511 . S
C335 H349 0.961 . S
C335 H350 0.961 . S
C335 H351 0.961 . S
C336 C337 1.370 . S
C336 C338 1.363 . S
C336 H352 0.931 . S
C337 C336 1.370 . S
C337 C341 1.408 . S
C338 C336 1.363 . S
C338 C339 1.370 . S
C338 C342 1.524 . S
C339 C331 1.503 . S
C339 C338 1.370 . S
C339 C340 1.403 . S
C340 C339 1.403 . S
C340 C341 1.404 . S
C340 C343 1.539 . S
C341 C337 1.408 . S
C341 C340 1.404 . S
C341 H353 0.930 . S
C342 C338 1.524 . S
C342 H354 0.956 . S
C342 H355 0.961 . S
C342 H356 0.961 . S
C343 C340 1.539 . S
C343 H357 0.958 . S
C343 H358 0.961 . S
C343 H359 0.960 . S
H344 C328 0.931 . S
H345 C333 0.929 . S
H346 C334 0.960 . S
H347 C334 0.962 . S
H348 C334 0.960 . S
H349 C335 0.961 . S
H350 C335 0.961 . S
H351 C335 0.961 . S
H352 C336 0.931 . S
H353 C341 0.930 . S
H354 C342 0.956 . S
H355 C342 0.961 . S
H356 C342 0.961 . S
H357 C343 0.958 . S
H358 C343 0.961 . S
H359 C343 0.960 . S
C360 C361 1.391 . S
C360 C362 1.394 . S
C360 H376 0.931 . S
C361 C360 1.391 . S
C361 C365 1.376 . S
C362 C360 1.394 . S
C362 C363 1.369 . S
C362 C366 1.531 1_554 S
C363 C362 1.369 . S
C363 C364 1.410 . S
C363 C371 1.504 1_554 S
C364 C363 1.410 . S
C364 C365 1.392 . S
C364 C367 1.511 . S
C365 C361 1.376 . S
C365 C364 1.392 . S
C365 H377 0.929 . S
C366 C362 1.531 1_556 S
C366 H378 0.960 . S
C366 H379 0.962 . S
C366 H380 0.960 . S
C367 C364 1.511 . S
C367 H381 0.961 . S
C367 H382 0.961 . S
C367 H383 0.961 . S
C368 C369 1.370 . S
C368 C370 1.363 . S
C368 H384 0.931 . S
C369 C368 1.370 . S
C369 C373 1.408 1_556 S
C370 C368 1.363 . S
C370 C371 1.368 . S
C370 C374 1.524 . S
C371 C363 1.504 1_556 S
C371 C370 1.368 . S
C371 C372 1.404 1_556 S
C372 C371 1.404 1_554 S
C372 C373 1.404 . S
C372 C375 1.539 . S
C373 C369 1.408 1_554 S
C373 C372 1.404 . S
C373 H385 0.930 . S
C374 C370 1.524 . S
C374 H386 0.956 . S
C374 H387 0.961 . S
C374 H388 0.961 . S
C375 C372 1.539 . S
C375 H389 0.958 . S
C375 H390 0.961 . S
C375 H391 0.960 . S
H376 C360 0.931 . S
H377 C365 0.929 . S
H378 C366 0.960 . S
H379 C366 0.962 . S
H380 C366 0.960 . S
H381 C367 0.961 . S
H382 C367 0.961 . S
H383 C367 0.961 . S
H384 C368 0.931 . S
H385 C373 0.930 . S
H386 C374 0.956 . S
H387 C374 0.961 . S
H388 C374 0.961 . S
H389 C375 0.958 . S
H390 C375 0.961 . S
H391 C375 0.960 . S
C392 C393 1.391 . S
C392 C394 1.394 1_554 S
C392 H408 0.931 1_554 S
C393 C392 1.391 . S
C393 C397 1.376 . S
C394 C392 1.394 1_556 S
C394 C395 1.369 1_556 S
C394 C398 1.531 . S
C395 C394 1.369 1_554 S
C395 C396 1.397 1_455 S
C395 C403 1.496 1_454 S
C396 C395 1.397 1_655 S
C396 C397 1.376 1_655 S
C396 C399 1.540 . S
C397 C393 1.376 . S
C397 C396 1.376 1_455 S
C397 H409 0.929 . S
C398 C394 1.531 . S
C398 H410 0.960 . S
C398 H411 0.962 . S
C398 H412 0.960 . S
C399 C396 1.540 . S
C399 H413 0.961 . S
C399 H414 0.961 . S
C399 H415 0.961 . S
C400 C401 1.370 . S
C400 C402 1.363 . S
C400 H416 0.931 . S
C401 C400 1.370 . S
C401 C405 1.408 1_556 S
C402 C400 1.363 . S
C402 C403 1.391 . S
C402 C406 1.524 . S
C403 C395 1.496 1_656 S
C403 C402 1.391 . S
C403 C404 1.390 1_556 S
C404 C403 1.390 1_554 S
C404 C405 1.404 . S
C404 C407 1.539 1_655 S
C405 C401 1.408 1_554 S
C405 C404 1.404 . S
C405 H417 0.930 . S
C406 C402 1.524 . S
C406 H418 0.956 . S
C406 H419 0.961 . S
C406 H420 0.961 . S
C407 C404 1.539 1_455 S
C407 H421 0.958 . S
C407 H422 0.961 . S
C407 H423 0.960 . S
H408 C392 0.931 1_556 S
H409 C397 0.929 . S
H410 C398 0.960 . S
H411 C398 0.962 . S
H412 C398 0.960 . S
H413 C399 0.961 . S
H414 C399 0.961 . S
H415 C399 0.961 . S
H416 C400 0.931 . S
H417 C405 0.930 . S
H418 C406 0.956 . S
H419 C406 0.961 . S
H420 C406 0.961 . S
H421 C407 0.958 . S
H422 C407 0.961 . S
H423 C407 0.960 . S
C424 C425 1.391 . S
C424 C426 1.394 . S
C424 H440 0.931 . S
C425 C424 1.391 . S
C425 C429 1.376 . S
C426 C424 1.394 . S
C426 C427 1.369 . S
C426 C430 1.531 . S
C427 C426 1.369 . S
C427 C428 1.410 . S
C427 C435 1.503 1_565 S
C428 C427 1.410 . S
C428 C429 1.392 . S
C428 C431 1.511 1_565 S
C429 C425 1.376 . S
C429 C428 1.392 . S
C429 H441 0.929 . S
C430 C426 1.531 . S
C430 H442 0.960 . S
C430 H443 0.962 . S
C430 H444 0.960 . S
C431 C428 1.511 1_545 S
C431 H445 0.961 . S
C431 H446 0.961 . S
C431 H447 0.961 . S
C432 C433 1.370 . S
C432 C434 1.363 . S
C432 H448 0.931 . S
C433 C432 1.370 . S
C433 C437 1.408 . S
C434 C432 1.363 . S
C434 C435 1.370 . S
C434 C438 1.524 1_545 S
C435 C427 1.503 1_545 S
C435 C434 1.370 . S
C435 C436 1.403 . S
C436 C435 1.403 . S
C436 C437 1.404 . S
C436 C439 1.539 . S
C437 C433 1.408 . S
C437 C436 1.404 . S
C437 H449 0.930 . S
C438 C434 1.524 1_565 S
C438 H450 0.956 . S
C438 H451 0.961 . S
C438 H452 0.961 . S
C439 C436 1.539 . S
C439 H453 0.958 . S
C439 H454 0.961 . S
C439 H455 0.960 . S
H440 C424 0.931 . S
H441 C429 0.929 . S
H442 C430 0.960 . S
H443 C430 0.962 . S
H444 C430 0.960 . S
H445 C431 0.961 . S
H446 C431 0.961 . S
H447 C431 0.961 . S
H448 C432 0.931 . S
H449 C437 0.930 . S
H450 C438 0.956 . S
H451 C438 0.961 . S
H452 C438 0.961 . S
H453 C439 0.958 . S
H454 C439 0.961 . S
H455 C439 0.960 . S
C456 C457 1.391 . S
C456 C458 1.394 1_655 S
C456 H472 0.931 . S
C457 C456 1.391 . S
C457 C461 1.376 . S
C458 C456 1.394 1_455 S
C458 C459 1.369 1_455 S
C458 C462 1.531 . S
C459 C458 1.369 1_655 S
C459 C460 1.410 . S
C459 C467 1.503 1_645 S
C460 C459 1.410 . S
C460 C461 1.392 . S
C460 C463 1.511 1_545 S
C461 C457 1.376 . S
C461 C460 1.392 . S
C461 H473 0.929 . S
C462 C458 1.531 . S
C462 H474 0.960 . S
C462 H475 0.962 . S
C462 H476 0.960 . S
C463 C460 1.511 1_565 S
C463 H477 0.961 . S
C463 H478 0.961 . S
C463 H479 0.961 . S
C464 C465 1.370 . S
C464 C466 1.363 . S
C464 H480 0.931 . S
C465 C464 1.370 . S
C465 C469 1.408 . S
C466 C464 1.363 . S
C466 C467 1.370 . S
C466 C470 1.524 1_565 S
C467 C459 1.503 1_465 S
C467 C466 1.370 . S
C467 C468 1.403 . S
C468 C467 1.403 . S
C468 C469 1.404 . S
C468 C471 1.539 1_455 S
C469 C465 1.408 . S
C469 C468 1.404 . S
C469 H481 0.930 . S
C470 C466 1.524 1_545 S
C470 H482 0.956 . S
C470 H483 0.961 . S
C470 H484 0.961 . S
C471 C468 1.539 1_655 S
C471 H485 0.958 . S
C471 H486 0.961 . S
C471 H487 0.960 . S
H472 C456 0.931 . S
H473 C461 0.929 . S
H474 C462 0.960 . S
H475 C462 0.962 . S
H476 C462 0.960 . S
H477 C463 0.961 . S
H478 C463 0.961 . S
H479 C463 0.961 . S
H480 C464 0.931 . S
H481 C469 0.930 . S
H482 C470 0.956 . S
H483 C470 0.961 . S
H484 C470 0.961 . S
H485 C471 0.958 . S
H486 C471 0.961 . S
H487 C471 0.960 . S
C488 C489 1.391 . S
C488 C490 1.394 . S
C488 H504 0.931 . S
C489 C488 1.391 . S
C489 C493 1.376 . S
C490 C488 1.394 . S
C490 C491 1.369 . S
C490 C494 1.531 . S
C491 C490 1.369 . S
C491 C492 1.410 . S
C491 C499 1.503 . S
C492 C491 1.410 . S
C492 C493 1.392 . S
C492 C495 1.511 . S
C493 C489 1.376 . S
C493 C492 1.392 . S
C493 H505 0.929 . S
C494 C490 1.531 . S
C494 H506 0.960 . S
C494 H507 0.962 . S
C494 H508 0.960 . S
C495 C492 1.511 . S
C495 H509 0.961 . S
C495 H510 0.961 . S
C495 H511 0.961 . S
C496 C497 1.370 . S
C496 C498 1.363 . S
C496 H512 0.931 . S
C497 C496 1.370 . S
C497 C501 1.408 . S
C498 C496 1.363 . S
C498 C499 1.370 . S
C498 C502 1.524 . S
C499 C491 1.503 . S
C499 C498 1.370 . S
C499 C500 1.403 . S
C500 C499 1.403 . S
C500 C501 1.404 . S
C500 C503 1.539 . S
C501 C497 1.408 . S
C501 C500 1.404 . S
C501 H513 0.930 . S
C502 C498 1.524 . S
C502 H514 0.956 . S
C502 H515 0.961 . S
C502 H516 0.961 . S
C503 C500 1.539 . S
C503 H517 0.958 . S
C503 H518 0.961 . S
C503 H519 0.960 . S
H504 C488 0.931 . S
H505 C493 0.929 . S
H506 C494 0.960 . S
H507 C494 0.962 . S
H508 C494 0.960 . S
H509 C495 0.961 . S
H510 C495 0.961 . S
H511 C495 0.961 . S
H512 C496 0.931 . S
H513 C501 0.930 . S
H514 C502 0.956 . S
H515 C502 0.961 . S
H516 C502 0.961 . S
H517 C503 0.958 . S
H518 C503 0.961 . S
H519 C503 0.960 . S
C520 C521 1.391 . S
C520 C522 1.394 . S
C520 H536 0.931 . S
C521 C520 1.391 . S
C521 C525 1.376 . S
C522 C520 1.394 . S
C522 C523 1.369 . S
C522 C526 1.531 . S
C523 C522 1.369 . S
C523 C524 1.410 . S
C523 C531 1.503 1_545 S
C524 C523 1.410 . S
C524 C525 1.392 . S
C524 C527 1.511 1_545 S
C525 C521 1.376 . S
C525 C524 1.392 . S
C525 H537 0.929 . S
C526 C522 1.531 . S
C526 H538 0.960 . S
C526 H539 0.962 . S
C526 H540 0.960 . S
C527 C524 1.511 1_565 S
C527 H541 0.961 . S
C527 H542 0.961 . S
C527 H543 0.961 . S
C528 C529 1.370 . S
C528 C530 1.363 . S
C528 H544 0.931 . S
C529 C528 1.370 . S
C529 C533 1.408 . S
C530 C528 1.363 . S
C530 C531 1.370 . S
C530 C534 1.524 1_565 S
C531 C523 1.503 1_565 S
C531 C530 1.370 . S
C531 C532 1.403 . S
C532 C531 1.403 . S
C532 C533 1.404 . S
C532 C535 1.539 . S
C533 C529 1.408 . S
C533 C532 1.404 . S
C533 H545 0.930 . S
C534 C530 1.524 1_545 S
C534 H546 0.956 . S
C534 H547 0.961 . S
C534 H548 0.961 . S
C535 C532 1.539 . S
C535 H549 0.958 . S
C535 H550 0.961 . S
C535 H551 0.960 . S
H536 C520 0.931 . S
H537 C525 0.929 . S
H538 C526 0.960 . S
H539 C526 0.962 . S
H540 C526 0.960 . S
H541 C527 0.961 . S
H542 C527 0.961 . S
H543 C527 0.961 . S
H544 C528 0.931 . S
H545 C533 0.930 . S
H546 C534 0.956 . S
H547 C534 0.961 . S
H548 C534 0.961 . S
H549 C535 0.958 . S
H550 C535 0.961 . S
H551 C535 0.960 . S
C552 C553 1.391 . S
C552 C554 1.394 . S
C552 H568 0.931 . S
C553 C552 1.391 . S
C553 C557 1.376 . S
C554 C552 1.394 . S
C554 C555 1.369 . S
C554 C558 1.531 . S
C555 C554 1.369 . S
C555 C556 1.410 . S
C555 C563 1.503 . S
C556 C555 1.410 . S
C556 C557 1.392 . S
C556 C559 1.511 . S
C557 C553 1.376 . S
C557 C556 1.392 . S
C557 H569 0.929 . S
C558 C554 1.531 . S
C558 H570 0.960 . S
C558 H571 0.962 . S
C558 H572 0.960 . S
C559 C556 1.511 . S
C559 H573 0.961 . S
C559 H574 0.961 . S
C559 H575 0.961 . S
C560 C561 1.370 . S
C560 C562 1.363 . S
C560 H576 0.931 . S
C561 C560 1.370 . S
C561 C565 1.408 . S
C562 C560 1.363 . S
C562 C563 1.370 . S
C562 C566 1.524 . S
C563 C555 1.503 . S
C563 C562 1.370 . S
C563 C564 1.403 . S
C564 C563 1.403 . S
C564 C565 1.404 . S
C564 C567 1.539 1_556 S
C565 C561 1.408 . S
C565 C564 1.404 . S
C565 H577 0.930 . S
C566 C562 1.524 . S
C566 H578 0.956 . S
C566 H579 0.961 . S
C566 H580 0.961 . S
C567 C564 1.539 1_554 S
C567 H581 0.958 . S
C567 H582 0.961 . S
C567 H583 0.960 1_554 S
H568 C552 0.931 . S
H569 C557 0.929 . S
H570 C558 0.960 . S
H571 C558 0.962 . S
H572 C558 0.960 . S
H573 C559 0.961 . S
H574 C559 0.961 . S
H575 C559 0.961 . S
H576 C560 0.931 . S
H577 C565 0.930 . S
H578 C566 0.956 . S
H579 C566 0.961 . S
H580 C566 0.961 . S
H581 C567 0.958 . S
H582 C567 0.961 . S
H583 C567 0.960 1_556 S
C584 C585 1.391 . S
C584 C586 1.394 . S
C584 H600 0.931 . S
C585 C584 1.391 . S
C585 C589 1.376 . S
C586 C584 1.394 . S
C586 C587 1.369 . S
C586 C590 1.531 1_565 S
C587 C586 1.369 . S
C587 C588 1.410 . S
C587 C595 1.503 1_565 S
C588 C587 1.410 . S
C588 C589 1.392 . S
C588 C591 1.511 . S
C589 C585 1.376 . S
C589 C588 1.392 . S
C589 H601 0.929 . S
C590 C586 1.531 1_545 S
C590 H602 0.960 . S
C590 H603 0.962 . S
C590 H604 0.960 . S
C591 C588 1.511 . S
C591 H605 0.961 . S
C591 H606 0.961 . S
C591 H607 0.961 . S
C592 C593 1.370 . S
C592 C594 1.363 . S
C592 H608 0.931 . S
C593 C592 1.370 . S
C593 C597 1.408 . S
C594 C592 1.363 . S
C594 C595 1.370 . S
C594 C598 1.524 . S
C595 C587 1.503 1_545 S
C595 C594 1.370 . S
C595 C596 1.403 . S
C596 C595 1.403 . S
C596 C597 1.404 . S
C596 C599 1.539 . S
C597 C593 1.408 . S
C597 C596 1.404 . S
C597 H609 0.930 . S
C598 C594 1.524 . S
C598 H610 0.956 . S
C598 H611 0.961 1_545 S
C598 H612 0.961 . S
C599 C596 1.539 . S
C599 H613 0.958 . S
C599 H614 0.961 . S
C599 H615 0.947 1_545 S
H600 C584 0.931 . S
H601 C589 0.929 . S
H602 C590 0.960 . S
H603 C590 0.962 . S
H604 C590 0.960 . S
H605 C591 0.961 . S
H606 C591 0.961 . S
H607 C591 0.961 . S
H608 C592 0.931 . S
H609 C597 0.930 . S
H610 C598 0.956 . S
H611 C598 0.961 1_565 S
H612 C598 0.961 . S
H613 C599 0.958 . S
H614 C599 0.961 . S
H615 C599 0.947 1_565 S
C105 C5 1.371 . S
C113 C18 1.332 . S
C137 C44 1.366 . S
C145 C31 1.318 . S
C169 C57 1.332 . S
C177 C70 1.309 . S
C201 C83 1.353 . S
C209 C96 1.346 . S
C233 C10 1.455 . S
C241 C36 1.482 . S
C265 C49 1.509 . S
C273 C23 1.489 . S
C297 C62 1.471 . S
C305 C88 1.495 . S
C329 C101 1.486 . S
C337 C75 1.475 . S
C361 C0 1.447 . S
C369 C52 1.506 . S
C393 C13 1.447 . S
C401 C65 1.506 . S
C425 C78 1.448 . S
C433 C26 1.506 . S
C457 C91 1.447 . S
C465 C39 1.506 . S
C489 C21 0.704 . S
C497 C8 0.651 . S
C521 C34 0.710 . S
C529 C47 0.650 . S
C553 C60 0.698 . S
C561 C73 0.664 . S
C585 C86 0.672 . S
C593 C99 0.667 . S
