# Generated by pormake.
# Topology sxc, (6)-cn, num edge types: 1
# Building blocks:
#     Node 0, Type 0, BuildingBlock: BETDEL_clean_sbu_0, # of connection points: 6
#     Node 1, Type 0, BuildingBlock: BETDEL_clean_sbu_0, # of connection points: 6
#     Node 2, Type 0, BuildingBlock: BETDEL_clean_sbu_0, # of connection points: 6
#     Edge 3, Type (0, 0), BuildingBlock: MIFKUJ_clean_linker_0, # of connection points: 2
#     Edge 4, Type (0, 0), BuildingBlock: MIFKUJ_clean_linker_0, # of connection points: 2
#     Edge 5, Type (0, 0), BuildingBlock: MIFKUJ_clean_linker_0, # of connection points: 2
#     Edge 6, Type (0, 0), BuildingBlock: MIFKUJ_clean_linker_0, # of connection points: 2
#     Edge 7, Type (0, 0), BuildingBlock: MIFKUJ_clean_linker_0, # of connection points: 2
#     Edge 8, Type (0, 0), BuildingBlock: MIFKUJ_clean_linker_0, # of connection points: 2
#     Edge 9, Type (0, 0), BuildingBlock: MIFKUJ_clean_linker_0, # of connection points: 2
#     Edge 10, Type (0, 0), BuildingBlock: MIFKUJ_clean_linker_0, # of connection points: 2
#     Edge 11, Type (0, 0), BuildingBlock: MIFKUJ_clean_linker_0, # of connection points: 2
# Relax obj value: 0.029
# Max RMSD: 0.040
# Mean RMSD: 0.032
data_MOF--net-sxc--node1-BETDEL_clean_sbu_0--edge1-MIFKUJ_clean_linker_0
_symmetry_space_group_name_H-M    P1
_symmetry_Int_Tables_number       1
_symmetry_cell_setting            triclinic
loop_
_symmetry_equiv_pos_as_xyz
'x, y, z'
_cell_length_a     20.409663
_cell_length_b     19.989508
_cell_length_c     56.616259
_cell_angle_alpha  91.079599
_cell_angle_beta   94.26595
_cell_angle_gamma 115.00892
loop_
_atom_site_label
_atom_site_type_symbol
_atom_site_fract_x
_atom_site_fract_y
_atom_site_fract_z
_atom_type_partial_charge
Dy0 Dy 0.138 0.06086 0.01324 0.0
C1 C 0.84323 0.88682 0.02692 0.0
C2 C 0.27108 0.16027 1.00173 0.0
Dy3 Dy 0.97701 0.98581 0.01585 0.0
O4 O 0.26011 0.11836 0.01964 0.0
O5 O 0.20958 0.14493 0.98954 0.0
O6 O 0.15792 0.03245 0.05035 0.0
O7 O 0.06716 0.05357 0.04137 0.0
C8 C 0.0989 0.03234 0.05749 0.0
C9 C 1.01682 0.01593 0.97178 0.0
O10 O 0.98949 0.10071 0.02417 0.0
O11 O 0.10429 0.1544 0.01106 0.0
O12 O 0.85513 0.9278 1.00877 0.0
O13 O 0.90416 0.90279 0.03955 0.0
O14 O 0.95889 0.01789 0.97912 0.0
O15 O 0.04761 0.99285 0.98765 0.0
O16 O 0.12579 0.94598 1.00518 0.0
O17 O 1.01064 0.89222 0.01803 0.0
C18 C 0.04572 0.15941 0.01788 0.0
C19 C 0.06941 0.88729 0.01138 0.0
Dy20 Dy 0.96442 0.01334 0.35221 0.0
C21 C 0.26676 0.13101 0.33131 0.0
C22 C 0.83904 0.95937 0.37337 0.0
Dy23 Dy 0.13063 0.08878 0.34491 0.0
O24 O 0.85164 0.9281 0.35501 0.0
O25 O 0.89539 0.0206 0.38011 0.0
O26 O 0.91963 1.00192 0.31355 0.0
O27 O 1.03007 0.04869 0.32311 0.0
C28 C 0.98341 0.0307 0.30562 0.0
C29 C 0.09583 0.08876 0.38979 0.0
O30 O 0.09753 0.17827 0.33524 0.0
O31 O 0.99262 0.13506 0.35512 0.0
O32 O 0.25026 0.15872 0.34961 0.0
O33 O 0.2081 0.08118 0.32009 0.0
O34 O 0.15222 0.14058 0.38192 0.0
O35 O 0.06509 0.03726 0.37401 0.0
O36 O 0.9897 0.91519 0.35371 0.0
O37 O 0.10987 0.96889 0.3442 0.0
C38 C 0.04454 0.18832 0.34467 0.0
C39 C 0.04998 0.91046 0.34855 0.0
Dy40 Dy 1.01502 0.96752 0.68442 0.0
C41 C 0.1939 0.2773 0.66788 0.0
C42 C 0.92377 0.8377 0.70194 0.0
Dy43 Dy 0.09308 0.14048 0.67824 0.0
O44 O 0.96775 0.84339 0.68574 0.0
O45 O 0.93434 0.90346 0.70968 0.0
O46 O 0.98463 0.93153 0.64526 0.0
O47 O 0.03549 0.04167 0.65611 0.0
C48 C 1.01006 0.99834 0.63805 0.0
C49 C 0.06911 0.0978 0.7227 0.0
O50 O 0.97571 0.12118 0.66928 0.0
O51 O 0.92815 1.00916 0.68757 0.0
O52 O 0.15335 0.26405 0.68541 0.0
O53 O 0.17545 0.21634 0.65512 0.0
O54 O 0.07019 0.15917 0.71521 0.0
O55 O 0.08686 0.06536 0.70674 0.0
O56 O 0.13209 0.98145 0.68788 0.0
O57 O 0.18427 0.10394 0.67685 0.0
C58 C 0.92027 0.06608 0.67806 0.0
C59 C 0.18921 0.04131 0.68203 0.0
H60 H 0.1606 0.29186 0.0137 0.0
H61 H 0.16131 0.4139 0.0131 0.0
H62 H 0.93354 0.31959 0.02314 0.0
H63 H 0.93133 0.19553 0.02351 0.0
H64 H 0.99486 0.42592 0.98267 0.0
H65 H 1.01951 0.39535 0.0656 0.0
H66 H 0.07099 0.3708 0.10333 0.0
H67 H 0.27169 0.56051 0.09699 0.0
H68 H 0.22238 0.58491 0.05878 0.0
H69 H 0.95434 0.75468 0.01515 0.0
H70 H 0.95377 0.6327 0.01586 0.0
H71 H 0.18219 0.7275 1.00679 0.0
H72 H 0.18424 0.85146 1.0063 0.0
H73 H 0.12068 0.62098 0.04683 0.0
H74 H 0.0964 0.65155 0.96395 0.0
H75 H 0.04523 0.67629 0.92619 0.0
H76 H 0.84423 0.48685 0.93241 0.0
H77 H 0.89323 0.46226 0.97065 0.0
C78 C 0.11044 0.29656 0.01598 0.0
C79 C 0.04575 0.23362 0.01875 0.0
C80 C 0.11143 0.36671 0.01588 0.0
C81 C 0.04822 0.37586 0.01869 0.0
C82 C 0.98319 0.31348 0.02126 0.0
C83 C 0.98208 0.24283 0.02153 0.0
C84 C 0.05033 0.45069 0.0177 0.0
C85 C 1.0212 0.46841 0.99683 0.0
C86 C 0.08733 0.50634 0.03597 0.0
C87 C 0.11769 0.49075 0.05883 0.0
C88 C 0.07522 0.43085 0.07187 0.0
C89 C 0.10392 0.4172 0.09347 0.0
C90 C 0.17474 0.46376 0.10248 0.0
C91 C 0.21689 0.52432 0.08997 0.0
C92 C 0.18859 0.53795 0.06829 0.0
C93 C 1.00467 0.75009 0.01311 0.0
C94 C 0.06949 0.81313 1.01058 0.0
C95 C 1.00378 0.68 0.01329 0.0
C96 C 0.06724 0.671 0.0108 0.0
C97 C 0.13238 0.73348 1.00845 0.0
C98 C 0.13339 0.80408 1.00811 0.0
C99 C 0.06517 0.59619 0.0118 0.0
C100 C 0.09433 0.57849 0.03267 0.0
C101 C 1.02823 0.54057 0.99353 0.0
C102 C 0.99806 0.55623 0.97065 0.0
C103 C 0.0407 0.61613 0.95764 0.0
C104 C 1.01217 0.6299 0.93602 0.0
C105 C 0.94136 0.58346 0.92697 0.0
C106 C 0.89903 0.52293 0.93947 0.0
C107 C 0.92716 0.50918 0.96116 0.0
H108 H 0.91942 0.59417 0.91022 0.0
H109 H 0.19681 0.45315 0.11923 0.0
H110 H 0.38937 0.21356 0.35933 0.0
H111 H 0.48926 0.17922 0.36788 0.0
H112 H 0.40613 0.01651 0.30903 0.0
H113 H 0.30448 0.04941 0.30081 0.0
H114 H 0.41342 0.95366 0.34922 0.0
H115 H 0.57264 0.16326 0.31108 0.0
H116 H 0.63328 0.29406 0.30166 0.0
H117 H 0.72915 0.35291 0.37346 0.0
H118 H 0.66745 0.22265 0.38354 0.0
H119 H 0.71229 0.86255 0.35025 0.0
H120 H 0.60246 0.88173 0.34773 0.0
H121 H 0.68937 0.03967 0.40783 0.0
H122 H 0.80154 0.02326 0.40959 0.0
H123 H 0.67722 0.1037 0.36871 0.0
H124 H 0.52288 0.88398 0.40461 0.0
H125 H 0.47063 0.75012 0.41024 0.0
H126 H 0.36977 0.70613 0.3389 0.0
H127 H 0.42355 0.83952 0.33248 0.0
C128 C 0.39407 0.17268 0.34759 0.0
C129 C 0.3387 0.13286 0.32978 0.0
C130 C 0.45116 0.15298 0.35252 0.0
C131 C 0.45416 0.09441 0.33933 0.0
C132 C 0.40391 0.06115 0.31959 0.0
C133 C 0.34642 0.08052 0.31476 0.0
C134 C 0.50276 0.0613 0.34826 0.0
C135 C 0.4714 0.98605 0.35318 0.0
C136 C 0.57768 0.10443 0.35411 0.0
C137 C 0.61465 0.18309 0.34813 0.0
C138 C 0.60594 0.20413 0.32496 0.0
C139 C 0.64059 0.27822 0.31949 0.0
C140 C 0.68492 0.33179 0.33696 0.0
C141 C 0.69468 0.31137 0.35995 0.0
C142 C 0.65979 0.2374 0.36556 0.0
C143 C 0.70662 0.89862 0.36367 0.0
C144 C 0.76589 0.94366 0.37953 0.0
C145 C 0.64344 0.90934 0.36229 0.0
C146 C 0.63856 0.96343 0.37727 0.0
C147 C 0.69283 0.99852 0.39589 0.0
C148 C 0.75668 0.98892 0.39695 0.0
C149 C 0.58809 0.99593 0.36982 0.0
C150 C 0.61911 0.07128 0.36507 0.0
C151 C 0.51321 0.95244 0.36378 0.0
C152 C 0.47796 0.87211 0.368 0.0
C153 C 0.49013 0.84585 0.39003 0.0
C154 C 0.46051 0.76994 0.39332 0.0
C155 C 0.41737 0.71963 0.37488 0.0
C156 C 0.40349 0.74515 0.35313 0.0
C157 C 0.43363 0.82096 0.34965 0.0
H158 H 0.39415 0.66091 0.37751 0.0
H159 H 0.71185 0.3891 0.33267 0.0
H160 H 0.88165 0.69829 0.68193 0.0
H161 H 0.75804 0.59932 0.67758 0.0
H162 H 0.68663 0.73055 0.72116 0.0
H163 H 0.81025 0.82801 0.72627 0.0
H164 H 0.61344 0.59019 0.72881 0.0
H165 H 0.68346 0.73177 0.66005 0.0
H166 H 0.75321 0.78252 0.62595 0.0
H167 H 0.69192 0.56286 0.59627 0.0
H168 H 0.62197 0.51052 0.63035 0.0
H169 H 0.23885 0.41208 0.69149 0.0
H170 H 0.36324 0.50929 0.69744 0.0
H171 H 0.43455 0.38264 0.65181 0.0
H172 H 0.30996 0.28769 0.64488 0.0
H173 H 0.50812 0.521 0.64534 0.0
H174 H 0.43878 0.37941 0.71422 0.0
H175 H 0.36897 0.32857 0.74834 0.0
H176 H 0.42915 0.54827 0.77779 0.0
H177 H 0.49914 0.60055 0.7437 0.0
C178 C 0.84005 0.70491 0.69121 0.0
C179 C 0.85558 0.77111 0.7043 0.0
C180 C 0.76919 0.64866 0.6885 0.0
C181 C 0.71236 0.65827 0.69845 0.0
C182 C 0.72918 0.72187 0.71313 0.0
C183 C 0.80009 0.77761 0.71609 0.0
C184 C 0.63495 0.60538 0.6922 0.0
C185 C 0.59023 0.57561 0.71055 0.0
C186 C 0.60473 0.58535 0.66833 0.0
C187 C 0.64739 0.61709 0.64788 0.0
C188 C 0.68471 0.69411 0.64631 0.0
C189 C 0.72445 0.72323 0.62697 0.0
C190 C 0.72705 0.67596 0.60895 0.0
C191 C 0.68986 0.59943 0.61024 0.0
C192 C 0.65008 0.57001 0.62957 0.0
C193 C 0.28081 0.40615 0.68222 0.0
C194 C 0.26467 0.3424 0.6677 0.0
C195 C 0.3521 0.46129 0.68584 0.0
C196 C 0.40901 0.4526 0.67561 0.0
C197 C 0.39199 0.3908 0.66002 0.0
C198 C 0.32053 0.33652 0.65599 0.0
C199 C 0.48651 0.50541 0.68195 0.0
C200 C 0.53129 0.53536 0.66361 0.0
C201 C 0.51678 0.52559 0.70583 0.0
C202 C 0.47423 0.49396 0.7263 0.0
C203 C 0.43728 0.41697 0.72793 0.0
C204 C 0.39752 0.38785 0.74727 0.0
C205 C 0.39458 0.43515 0.76522 0.0
C206 C 0.43147 0.51168 0.76387 0.0
C207 C 0.47126 0.54107 0.74454 0.0
H208 H 0.36375 0.41251 0.78019 0.0
H209 H 0.75785 0.69861 0.59398 0.0
H210 H 0.80951 0.9843 0.70461 0.0
H211 H 0.6889 0.98025 0.70506 0.0
H212 H 0.73788 0.14101 0.6516 0.0
H213 H 0.86116 0.1477 0.6519 0.0
H214 H 0.66366 0.17261 0.68015 0.0
H215 H 0.61784 0.93551 0.64258 0.0
H216 H 0.61812 0.81247 0.63846 0.0
H217 H 0.51101 0.75012 0.70229 0.0
H218 H 0.51053 0.87287 0.70689 0.0
H219 H 0.30002 0.12741 0.65625 0.0
H220 H 0.42025 0.13083 0.65473 0.0
H221 H 0.36987 0.96132 0.70534 0.0
H222 H 0.24685 0.95457 0.70566 0.0
H223 H 0.4451 0.93413 0.6778 0.0
H224 H 0.49371 0.16819 0.71704 0.0
H225 H 0.49188 0.28998 0.7226 0.0
H226 H 0.59331 0.35779 0.658 0.0
H227 H 0.5958 0.23624 0.65207 0.0
C228 C 0.7951 0.01898 0.69282 0.0
C229 C 0.8461 0.06617 0.6781 0.0
C230 C 0.72494 0.01596 0.69293 0.0
C231 C 0.70173 0.05857 0.67787 0.0
C232 C 0.753 0.10678 0.66336 0.0
C233 C 0.82402 0.1107 0.66352 0.0
C234 C 0.62536 0.05434 0.67783 0.0
C235 C 0.61599 0.12019 0.67924 0.0
C236 C 0.56185 0.98642 0.67752 0.0
C237 C 0.56459 0.9136 0.67515 0.0
C238 C 0.59497 0.89581 0.65585 0.0
C239 C 0.59497 0.82603 0.6534 0.0
C240 C 0.56447 0.77352 0.6701 0.0
C241 C 0.53447 0.79082 0.68936 0.0
C242 C 0.53424 0.86042 0.69187 0.0
C243 C 0.3142 0.09062 0.66711 0.0
C244 C 0.26292 0.04086 0.68119 0.0
C245 C 0.38412 0.0933 0.66645 0.0
C246 C 0.40693 0.04815 0.68048 0.0
C247 C 0.35521 0.99749 0.69434 0.0
C248 C 0.28432 0.99354 0.69456 0.0
C249 C 0.48333 0.0524 0.68021 0.0
C250 C 0.49273 0.98659 0.67872 0.0
C251 C 0.54694 0.12032 0.68071 0.0
C252 C 0.54434 0.19291 0.68402 0.0
C253 C 0.51514 0.20889 0.70394 0.0
C254 C 0.51413 0.27796 0.70717 0.0
C255 C 0.54228 0.33156 0.69061 0.0
C256 C 0.57151 0.3162 0.67079 0.0
C257 C 0.57291 0.24732 0.66753 0.0
H258 H 0.54188 0.38515 0.69315 0.0
H259 H 0.56362 0.71923 0.66808 0.0
H260 H 0.82846 0.7709 0.05379 0.0
H261 H 0.72911 0.64656 0.04941 0.0
H262 H 0.60928 0.72225 0.99929 0.0
H263 H 0.70982 0.84656 1.00295 0.0
H264 H 0.52624 0.61348 0.03636 0.0
H265 H 0.68698 0.65376 0.97454 0.0
H266 H 0.80764 0.69414 0.95972 0.0
H267 H 0.84397 0.52922 0.99894 0.0
H268 H 0.72472 0.48974 0.01464 0.0
H269 H 0.28481 0.27674 0.97527 0.0
H270 H 0.38413 0.40106 0.9796 0.0
H271 H 0.5057 0.32467 0.0288 0.0
H272 H 0.40523 0.20031 0.02517 0.0
H273 H 0.58803 0.43377 0.99225 0.0
H274 H 0.42778 0.39326 0.05403 0.0
H275 H 0.30747 0.35289 0.06912 0.0
H276 H 0.27055 0.51805 0.03022 0.0
H277 H 0.38947 0.55758 0.01428 0.0
C278 C 0.7802 0.7616 0.04229 0.0
C279 C 0.77687 0.8182 0.0286 0.0
C280 C 0.72367 0.69049 0.03976 0.0
C281 C 0.66238 0.6753 0.02387 0.0
C282 C 0.65628 0.73308 0.01163 0.0
C283 C 0.71358 0.80394 0.01375 0.0
C284 C 0.60839 0.59793 0.01838 0.0
C285 C 0.5394 0.5744 0.02651 0.0
C286 C 0.62617 0.5468 1.00584 0.0
C287 C 0.69746 0.56968 0.9961 0.0
C288 C 0.72118 0.62686 0.98028 0.0
C289 C 0.78931 0.64957 0.97168 0.0
C290 C 0.83373 0.61471 0.9785 0.0
C291 C 0.80981 0.5566 0.99375 0.0
C292 C 0.74202 0.53415 1.00257 0.0
C293 C 0.33342 0.28588 0.98655 0.0
C294 C 0.33729 0.22903 0.99999 0.0
C295 C 0.38995 0.35699 0.98906 0.0
C296 C 0.45176 0.37198 1.00468 0.0
C297 C 0.45832 0.31399 0.01667 0.0
C298 C 0.40105 0.2431 0.01455 0.0
C299 C 0.50582 0.44934 1.0102 0.0
C300 C 0.57485 0.47286 1.00209 0.0
C301 C 0.4881 0.50045 0.02277 0.0
C302 C 0.41698 0.47751 0.03263 0.0
C303 C 0.39353 0.42024 0.04843 0.0
C304 C 0.3256 0.39753 0.05717 0.0
C305 C 0.28112 0.43246 0.05053 0.0
C306 C 0.30477 0.49064 0.03529 0.0
C307 C 0.37236 0.51311 0.02633 0.0
H308 H 0.22834 0.41429 0.05719 0.0
H309 H 0.88666 0.63288 0.97195 0.0
H310 H 0.93413 0.22616 0.3536 0.0
H311 H 0.93613 0.34947 0.35363 0.0
H312 H 0.15722 0.44144 0.33518 0.0
H313 H 0.15569 0.31844 0.3349 0.0
H314 H 0.13243 0.52182 0.37295 0.0
H315 H 1.0313 0.41853 0.29396 0.0
H316 H 0.94539 0.32481 0.26427 0.0
H317 H 0.76782 0.35371 0.29153 0.0
H318 H 0.85241 0.44615 0.32187 0.0
H319 H 0.1639 0.87554 0.34177 0.0
H320 H 0.16264 0.75265 0.34042 0.0
H321 H 0.93562 0.65497 0.35233 0.0
H322 H 0.936 0.77715 0.35356 0.0
H323 H 0.96402 0.5776 0.3176 0.0
H324 H 0.05401 0.6675 0.39752 0.0
H325 H 0.13247 0.76117 0.42856 0.0
H326 H 0.32134 0.75711 0.40138 0.0
H327 H 0.24405 0.66327 0.37 0.0
C328 C 0.98315 0.27254 0.34949 0.0
C329 C 0.04466 0.26239 0.34415 0.0
C330 C 0.98415 0.34291 0.3495 0.0
C331 C 0.04679 0.4044 0.34436 0.0
C332 C 0.10843 0.39462 0.33922 0.0
C333 C 0.10722 0.3242 0.33893 0.0
C334 C 0.04784 0.47892 0.34417 0.0
C335 C 0.09637 0.53433 0.36062 0.0
C336 C 0.99925 0.49448 0.32855 0.0
C337 C 0.94817 0.4387 0.31037 0.0
C338 C 0.97383 0.40426 0.29383 0.0
C339 C 0.92535 0.35136 0.27688 0.0
C340 C 0.85111 0.33299 0.27612 0.0
C341 C 0.82524 0.36762 0.29227 0.0
C342 C 0.87343 0.42025 0.30935 0.0
C343 C 0.11368 0.828 0.34412 0.0
C344 C 0.05016 0.8364 0.3479 0.0
C345 C 0.1131 0.7578 0.34338 0.0
C346 C 0.0491 0.69478 0.34641 0.0
C347 C 0.98551 0.70287 0.3499 0.0
C348 C 0.98604 0.77294 0.35073 0.0
C349 C 0.04866 0.62043 0.34631 0.0
C350 C 1.00024 0.56508 0.32986 0.0
C351 C 0.09637 0.60447 0.36217 0.0
C352 C 0.14332 0.65878 0.38136 0.0
C353 C 0.11235 0.68664 0.39813 0.0
C354 C 0.15659 0.73965 0.41577 0.0
C355 C 0.23191 0.76502 0.41689 0.0
C356 C 0.26306 0.7371 0.40044 0.0
C357 C 0.21908 0.68388 0.38277 0.0
H358 H 0.26617 0.80627 0.4305 0.0
H359 H 0.81366 0.29216 0.26294 0.0
H360 H 0.10531 0.04235 0.2857 0.0
H361 H 0.12373 0.04307 0.24348 0.0
H362 H 0.91029 0.03391 0.22627 0.0
H363 H 0.89081 0.02944 0.26846 0.0
H364 H 0.9269 0.94598 0.19692 0.0
H365 H 0.07691 0.19747 0.22368 0.0
H366 H 0.17187 0.29847 0.24918 0.0
H367 H 0.33196 0.22816 0.22833 0.0
H368 H 0.23776 0.12612 0.20293 0.0
H369 H 0.98511 0.04493 0.07661 0.0
H370 H 0.96444 0.04641 0.11873 0.0
H371 H 0.15862 0.01612 0.13725 0.0
H372 H 0.17953 0.01471 0.09528 0.0
H373 H 0.15058 0.12647 0.16527 0.0
H374 H 0.99543 0.87419 0.13795 0.0
H375 H 0.89888 0.77896 0.11115 0.0
H376 H 0.74539 0.85827 0.13222 0.0
H377 H 0.84136 0.95484 0.15886 0.0
C378 C 0.06287 0.04141 0.27289 0.0
C379 C 0.99704 0.03659 0.28032 0.0
C380 C 0.07334 0.04195 0.24872 0.0
C381 C 1.01889 0.03983 0.23152 0.0
C382 C 0.95322 0.03558 0.23906 0.0
C383 C 0.94224 0.03344 0.26319 0.0
C384 C 1.02953 0.04025 0.20569 0.0
C385 C 0.97543 0.98627 0.19003 0.0
C386 C 0.09322 0.09191 0.19652 0.0
C387 C 0.15015 0.15378 0.21156 0.0
C388 C 0.1323 0.20331 0.22463 0.0
C389 C 0.18599 0.26076 0.23906 0.0
C390 C 0.25787 0.26962 0.24042 0.0
C391 C 0.27625 0.22119 0.22728 0.0
C392 C 0.22275 0.16359 0.21284 0.0
C393 C 1.02311 0.03823 0.08968 0.0
C394 C 0.08393 0.02973 0.08269 0.0
C395 C 1.01125 0.03902 0.11372 0.0
C396 C 0.05994 0.0312 0.13115 0.0
C397 C 0.12052 0.02249 0.12413 0.0
C398 C 0.13219 0.02134 0.10014 0.0
C399 C 0.04817 0.03237 0.15673 0.0
C400 C 0.10206 0.08654 0.17227 0.0
C401 C 0.98395 0.9816 0.16572 0.0
C402 C 0.92575 0.92218 0.15024 0.0
C403 C 0.94118 0.87158 0.13677 0.0
C404 C 0.88656 0.81736 0.12161 0.0
C405 C 0.8161 0.8127 0.11993 0.0
C406 C 0.80003 0.86202 0.13351 0.0
C407 C 0.8545 0.91647 0.14866 0.0
H408 H 0.77394 0.7708 0.10814 0.0
H409 H 0.29935 0.3141 0.25161 0.0
H410 H 0.16105 0.19605 0.42498 0.0
H411 H 0.14121 0.18872 0.46707 0.0
H412 H 0.97516 0.96601 0.45363 0.0
H413 H 0.99411 0.97368 0.41125 0.0
H414 H 0.93544 0.04091 0.48522 0.0
H415 H 0.14649 0.9987 0.47616 0.0
H416 H 0.26764 0.02541 0.46345 0.0
H417 H 0.35953 0.22764 0.50691 0.0
H418 H 0.23864 0.20261 0.51962 0.0
H419 H 0.94148 0.90496 0.59992 0.0
H420 H 0.95095 0.93046 0.55799 0.0
H421 H 0.09715 0.15788 0.57706 0.0
H422 H 0.08682 0.13254 0.61934 0.0
H423 H 0.14715 0.08867 0.54318 0.0
H424 H 0.93289 0.12215 0.55455 0.0
H425 H 0.81097 0.0887 0.56765 0.0
H426 H 0.72405 0.89513 0.52018 0.0
H427 H 0.84574 0.92678 0.50706 0.0
C428 C 0.11997 0.14566 0.43096 0.0
C429 C 0.07958 0.08517 0.41489 0.0
C430 C 0.10885 0.14144 0.45506 0.0
C431 C 0.05761 0.07634 0.46365 0.0
C432 C 1.01523 0.01672 0.44746 0.0
C433 C 1.02618 0.02104 0.42327 0.0
C434 C 0.05012 0.06987 0.48959 0.0
C435 C 0.9816 0.05066 0.49786 0.0
C436 C 0.11059 0.08401 0.50621 0.0
C437 C 0.18338 0.09919 0.49864 0.0
C438 C 0.19243 0.04917 0.48286 0.0
C439 C 0.26106 0.06395 0.47568 0.0
C440 C 0.32121 0.12829 0.48431 0.0
C441 C 0.31286 0.17789 0.5002 0.0
C442 C 0.24431 0.16342 0.50741 0.0
C443 C 0.97521 0.96062 0.59521 0.0
C444 C 1.01372 0.01682 0.61288 0.0
C445 C 0.98036 0.97514 0.57122 0.0
C446 C 1.02445 0.04613 0.56436 0.0
C447 C 0.06271 0.10271 0.58198 0.0
C448 C 0.05677 0.08831 0.60608 0.0
C449 C 1.03255 0.05962 0.53877 0.0
C450 C 0.10117 0.07978 0.53056 0.0
C451 C 0.97205 0.04554 0.52222 0.0
C452 C 0.89863 0.02655 0.52996 0.0
C453 C 0.88792 0.07212 0.54704 0.0
C454 C 0.81881 0.05354 0.55445 0.0
C455 C 0.75983 0.98975 0.54479 0.0
C456 C 0.7698 0.9445 0.52766 0.0
C457 C 0.83883 0.96278 0.52021 0.0
H458 H 0.70636 0.97545 0.55056 0.0
H459 H 0.37431 0.13963 0.47874 0.0
H460 H 0.08907 0.98466 0.74421 0.0
H461 H 0.08921 0.96222 0.7868 0.0
H462 H 0.03923 0.14799 0.80024 0.0
H463 H 0.03983 0.17085 0.7581 0.0
H464 H 0.14594 0.15322 0.83139 0.0
H465 H 0.91067 0.97058 0.79987 0.0
H466 H 0.82734 0.86529 0.77316 0.0
H467 H 0.92586 0.72951 0.80239 0.0
H468 H 1.01061 0.83447 0.82905 0.0
H469 H 0.97387 0.08786 0.93847 0.0
H470 H 0.99297 0.09248 0.89621 0.0
H471 H 0.10913 0.95667 0.90565 0.0
H472 H 0.09206 0.95373 0.94831 0.0
H473 H 0.98304 0.91731 0.86378 0.0
H474 H 0.21224 0.10328 0.8984 0.0
H475 H 0.28843 0.21053 0.92556 0.0
H476 H 0.19445 0.34192 0.89035 0.0
H477 H 0.11647 0.23489 0.86331 0.0
C478 C 0.07774 0.02026 0.7563 0.0
C479 C 0.06467 0.07961 0.74789 0.0
C480 C 0.07782 1.00747 0.7806 0.0
C481 C 0.0644 0.05359 0.79676 0.0
C482 C 0.05036 0.11208 0.78819 0.0
C483 C 0.05033 0.12483 0.76406 0.0
C484 C 0.06494 0.04198 0.82265 0.0
C485 C 0.11028 0.10156 0.83841 0.0
C486 C 1.01942 0.97421 0.8319 0.0
C487 C 0.96758 0.91063 0.81624 0.0
C488 C 0.91492 0.91842 0.80048 0.0
C489 C 0.8674 0.8588 0.78536 0.0
C490 C 0.87151 0.79084 0.78599 0.0
C491 C 0.92289 0.78226 0.80186 0.0
C492 C 0.97066 0.84179 0.817 0.0
C493 C 1.00382 0.05932 0.93156 0.0
C494 C 1.03169 0.02066 0.9466 0.0
C495 C 1.01445 0.06179 0.90746 0.0
C496 C 0.05203 0.02456 0.89786 0.0
C497 C 0.07968 0.98542 0.91277 0.0
C498 C 0.07039 0.98427 0.93708 0.0
C499 C 0.06329 0.02878 0.87227 0.0
C500 C 1.01987 0.9682 0.85664 0.0
C501 C 0.11006 0.09578 0.86308 0.0
C502 C 0.15799 0.1608 0.87896 0.0
C503 C 0.20732 0.15483 0.89658 0.0
C504 C 0.25091 0.21561 0.91194 0.0
C505 C 0.24617 0.28295 0.90972 0.0
C506 C 0.198 0.28969 0.89207 0.0
C507 C 0.1541 0.22898 0.87672 0.0
H508 H 0.27993 0.32992 0.92164 0.0
H509 H 0.83475 0.74479 0.77424 0.0
loop_
_geom_bond_atom_site_label_1
_geom_bond_atom_site_label_2
_geom_bond_distance
_geom_bond_site_symmetry_2
_ccdc_geom_bond_type
Dy0 O4 2.398 . S
Dy0 O5 2.491 1_554 S
Dy0 O6 2.403 . S
Dy0 O7 2.663 1_545 S
Dy0 O11 2.326 . S
Dy0 O15 2.310 1_554 S
Dy0 O16 2.351 1_545 S
C1 O12 1.185 1_554 S
C1 O13 1.355 . S
C2 O4 1.185 . S
C2 O5 1.355 1_554 S
Dy3 O7 2.307 1_655 S
Dy3 O10 2.351 1_565 S
Dy3 O12 2.399 1_554 S
Dy3 O13 2.490 . S
Dy3 O14 2.406 1_554 S
Dy3 O15 2.665 1_664 S
Dy3 O17 2.327 1_554 S
O4 Dy0 2.398 . S
O4 C2 1.185 . S
O5 Dy0 2.491 1_556 S
O5 C2 1.355 1_556 S
O6 Dy0 2.403 . S
O6 C8 1.254 . S
O7 Dy0 2.663 1_565 S
O7 Dy3 2.307 1_455 S
O7 C8 1.267 1_565 S
C8 O6 1.254 . S
C8 O7 1.267 1_545 S
C9 O14 1.254 1_445 S
C9 O15 1.268 . S
O10 Dy3 2.351 1_545 S
O10 C18 1.249 1_655 S
O11 Dy0 2.326 . S
O11 C18 1.267 . S
O12 C1 1.185 1_556 S
O12 Dy3 2.399 1_556 S
O13 C1 1.355 . S
O13 Dy3 2.490 . S
O14 Dy3 2.406 1_556 S
O14 C9 1.254 1_665 S
O15 Dy0 2.310 1_556 S
O15 Dy3 2.665 1_446 S
O15 C9 1.268 . S
O16 Dy0 2.351 1_565 S
O16 C19 1.249 . S
O17 Dy3 2.327 1_556 S
O17 C19 1.267 1_656 S
C18 O10 1.249 1_455 S
C18 O11 1.267 . S
C19 O16 1.249 . S
C19 O17 1.267 1_454 S
Dy20 O24 2.398 . S
Dy20 O25 2.491 1_565 S
Dy20 O26 2.403 . S
Dy20 O27 2.664 1_665 S
Dy20 O31 2.326 1_565 S
Dy20 O35 2.310 1_565 S
Dy20 O36 2.351 . S
C21 O32 1.185 . S
C21 O33 1.355 . S
C22 O24 1.185 1_545 S
C22 O25 1.355 . S
Dy23 O27 2.310 . S
Dy23 O30 2.351 . S
Dy23 O32 2.398 . S
Dy23 O33 2.491 . S
Dy23 O34 2.403 . S
Dy23 O35 2.664 1_455 S
Dy23 O37 2.326 1_545 S
O24 Dy20 2.398 . S
O24 C22 1.185 1_565 S
O25 Dy20 2.491 1_545 S
O25 C22 1.355 . S
O26 Dy20 2.403 . S
O26 C28 1.254 1_565 S
O27 Dy20 2.664 1_445 S
O27 Dy23 2.310 . S
O27 C28 1.268 1_455 S
C28 O26 1.254 1_545 S
C28 O27 1.268 1_655 S
C29 O34 1.254 . S
C29 O35 1.268 1_455 S
O30 Dy23 2.351 . S
O30 C38 1.249 . S
O31 Dy20 2.326 1_545 S
O31 C38 1.267 1_655 S
O32 C21 1.185 . S
O32 Dy23 2.398 . S
O33 C21 1.355 . S
O33 Dy23 2.491 . S
O34 Dy23 2.403 . S
O34 C29 1.254 . S
O35 Dy20 2.310 1_545 S
O35 Dy23 2.664 1_655 S
O35 C29 1.268 1_655 S
O36 Dy20 2.351 . S
O36 C39 1.249 1_655 S
O37 Dy23 2.326 1_565 S
O37 C39 1.267 . S
C38 O30 1.249 . S
C38 O31 1.267 1_455 S
C39 O36 1.249 1_455 S
C39 O37 1.267 . S
Dy40 O44 2.398 . S
Dy40 O45 2.491 . S
Dy40 O46 2.403 . S
Dy40 O47 2.664 1_665 S
Dy40 O51 2.326 1_565 S
Dy40 O55 2.310 1_565 S
Dy40 O56 2.351 1_655 S
C41 O52 1.185 . S
C41 O53 1.355 . S
C42 O44 1.185 . S
C42 O45 1.355 . S
Dy43 O47 2.310 . S
Dy43 O50 2.351 1_455 S
Dy43 O52 2.398 . S
Dy43 O53 2.491 . S
Dy43 O54 2.403 . S
Dy43 O55 2.664 1_455 S
Dy43 O57 2.326 . S
O44 Dy40 2.398 . S
O44 C42 1.185 . S
O45 Dy40 2.491 . S
O45 C42 1.355 . S
O46 Dy40 2.403 . S
O46 C48 1.254 1_665 S
O47 Dy40 2.664 1_445 S
O47 Dy43 2.310 . S
O47 C48 1.268 . S
C48 O46 1.254 1_445 S
C48 O47 1.268 . S
C49 O54 1.254 . S
C49 O55 1.268 1_455 S
O50 Dy43 2.351 1_655 S
O50 C58 1.249 . S
O51 Dy40 2.326 1_545 S
O51 C58 1.268 . S
O52 C41 1.185 . S
O52 Dy43 2.398 . S
O53 C41 1.355 . S
O53 Dy43 2.491 . S
O54 Dy43 2.403 . S
O54 C49 1.254 . S
O55 Dy40 2.310 1_545 S
O55 Dy43 2.664 1_655 S
O55 C49 1.268 1_655 S
O56 Dy40 2.351 1_455 S
O56 C59 1.249 1_565 S
O57 Dy43 2.326 . S
O57 C59 1.267 . S
C58 O50 1.249 . S
C58 O51 1.268 . S
C59 O56 1.249 1_545 S
C59 O57 1.267 . S
H60 C78 0.951 . S
H61 C80 0.951 . S
H62 C82 0.952 . S
H63 C83 0.956 . S
H64 C85 0.950 . S
H65 C88 0.950 1_655 S
H66 C89 0.950 . S
H67 C91 0.950 . S
H68 C92 0.950 . S
H69 C93 0.948 1_556 S
H70 C95 0.952 . S
H71 C97 0.950 . S
H72 C98 0.950 . S
H73 C100 0.950 . S
H74 C103 0.950 . S
H75 C104 0.950 1_455 S
H76 C106 0.950 . S
H77 C107 0.950 . S
C78 H60 0.951 . S
C78 C79 1.366 . S
C78 C80 1.388 . S
C79 C78 1.366 . S
C79 C83 1.380 1_454 S
C80 H61 0.951 . S
C80 C78 1.388 . S
C80 C81 1.366 . S
C81 C80 1.366 . S
C81 C82 1.412 1_454 S
C81 C84 1.499 . S
C82 H62 0.952 . S
C82 C81 1.412 1_656 S
C82 C83 1.374 . S
C83 H63 0.956 . S
C83 C79 1.380 1_656 S
C83 C82 1.374 . S
C84 C81 1.499 . S
C84 C85 1.373 1_454 S
C84 C86 1.389 . S
C85 H64 0.950 . S
C85 C84 1.373 1_656 S
C85 C101 1.377 . S
C86 C84 1.389 . S
C86 C87 1.524 . S
C86 C100 1.377 . S
C87 C86 1.524 . S
C87 C88 1.397 . S
C87 C92 1.363 . S
C88 H65 0.950 1_455 S
C88 C87 1.397 . S
C88 C89 1.334 . S
C89 H66 0.950 . S
C89 C88 1.334 . S
C89 C90 1.287 . S
C90 C89 1.287 . S
C90 C91 1.524 . S
C90 H109 0.913 . S
C91 H67 0.950 . S
C91 C90 1.524 . S
C91 C92 1.415 . S
C92 H68 0.950 . S
C92 C87 1.363 . S
C92 C91 1.415 . S
C93 H69 0.948 1_554 S
C93 C94 1.369 1_655 S
C93 C95 1.387 1_554 S
C94 C93 1.369 1_455 S
C94 C98 1.385 . S
C95 H70 0.952 . S
C95 C93 1.387 1_556 S
C95 C96 1.364 1_656 S
C96 C95 1.364 1_454 S
C96 C97 1.414 . S
C96 C99 1.499 . S
C97 H71 0.950 . S
C97 C96 1.414 . S
C97 C98 1.374 . S
C98 H72 0.950 . S
C98 C94 1.385 . S
C98 C97 1.374 . S
C99 C96 1.499 . S
C99 C100 1.373 . S
C99 C101 1.389 1_454 S
C100 H73 0.950 . S
C100 C86 1.377 . S
C100 C99 1.373 . S
C101 C85 1.377 . S
C101 C99 1.389 1_656 S
C101 C102 1.524 . S
C102 C101 1.524 . S
C102 C103 1.397 1_655 S
C102 C107 1.363 . S
C103 H74 0.950 . S
C103 C102 1.397 1_455 S
C103 C104 1.334 1_455 S
C104 H75 0.950 1_655 S
C104 C103 1.334 1_655 S
C104 C105 1.287 . S
C105 C104 1.287 . S
C105 C106 1.524 . S
C105 H108 0.999 . S
C106 H76 0.950 . S
C106 C105 1.524 . S
C106 C107 1.415 . S
C107 H77 0.950 . S
C107 C102 1.363 . S
C107 C106 1.415 . S
H108 C105 0.999 . S
H109 C90 0.913 . S
H110 C128 0.951 . S
H111 C130 0.951 . S
H112 C132 0.950 . S
H113 C133 0.950 . S
H114 C135 0.950 . S
H115 C138 0.950 . S
H116 C139 0.950 . S
H117 C141 0.950 . S
H118 C142 0.950 . S
H119 C143 0.951 . S
H120 C145 0.951 . S
H121 C147 0.950 . S
H122 C148 0.950 . S
H123 C150 0.950 . S
H124 C153 0.950 . S
H125 C154 0.950 . S
H126 C156 0.950 . S
H127 C157 0.950 . S
C128 H110 0.951 . S
C128 C129 1.366 . S
C128 C130 1.388 . S
C129 C128 1.366 . S
C129 C133 1.385 1_545 S
C130 H111 0.951 . S
C130 C128 1.388 . S
C130 C131 1.366 . S
C131 C130 1.366 . S
C131 C132 1.414 1_545 S
C131 C134 1.499 . S
C132 H112 0.950 . S
C132 C131 1.414 1_565 S
C132 C133 1.374 . S
C133 H113 0.950 . S
C133 C129 1.385 1_565 S
C133 C132 1.374 . S
C134 C131 1.499 . S
C134 C135 1.373 1_545 S
C134 C136 1.389 . S
C135 H114 0.950 . S
C135 C134 1.373 1_565 S
C135 C151 1.377 . S
C136 C134 1.389 . S
C136 C137 1.524 . S
C136 C150 1.377 . S
C137 C136 1.524 . S
C137 C138 1.397 . S
C137 C142 1.363 . S
C138 H115 0.950 . S
C138 C137 1.397 . S
C138 C139 1.334 . S
C139 H116 0.950 . S
C139 C138 1.334 . S
C139 C140 1.287 . S
C140 C139 1.287 . S
C140 C141 1.524 . S
C140 H159 0.913 . S
C141 H117 0.950 . S
C141 C140 1.524 . S
C141 C142 1.415 . S
C142 H118 0.950 . S
C142 C137 1.363 . S
C142 C141 1.415 . S
C143 H119 0.951 . S
C143 C144 1.366 1_565 S
C143 C145 1.388 . S
C144 C143 1.366 1_545 S
C144 C148 1.385 . S
C145 H120 0.951 . S
C145 C143 1.388 . S
C145 C146 1.366 1_565 S
C146 C145 1.366 1_545 S
C146 C147 1.414 . S
C146 C149 1.499 . S
C147 H121 0.950 . S
C147 C146 1.414 . S
C147 C148 1.374 . S
C148 H122 0.950 . S
C148 C144 1.385 . S
C148 C147 1.374 . S
C149 C146 1.499 . S
C149 C150 1.373 . S
C149 C151 1.389 1_545 S
C150 H123 0.950 . S
C150 C136 1.377 . S
C150 C149 1.373 . S
C151 C135 1.377 . S
C151 C149 1.389 1_565 S
C151 C152 1.524 . S
C152 C151 1.524 . S
C152 C153 1.397 . S
C152 C157 1.363 . S
C153 H124 0.950 . S
C153 C152 1.397 . S
C153 C154 1.334 . S
C154 H125 0.950 . S
C154 C153 1.334 . S
C154 C155 1.287 . S
C155 C154 1.287 . S
C155 C156 1.524 . S
C155 H158 0.999 . S
C156 H126 0.950 . S
C156 C155 1.524 . S
C156 C157 1.415 . S
C157 H127 0.950 . S
C157 C152 1.363 . S
C157 C156 1.415 . S
H158 C155 0.999 . S
H159 C140 0.913 . S
H160 C178 0.951 . S
H161 C180 0.951 . S
H162 C182 0.950 . S
H163 C183 0.950 . S
H164 C185 0.950 . S
H165 C188 0.950 . S
H166 C189 0.950 . S
H167 C191 0.950 . S
H168 C192 0.950 . S
H169 C193 0.951 . S
H170 C195 0.951 . S
H171 C197 0.950 . S
H172 C198 0.950 . S
H173 C200 0.950 . S
H174 C203 0.950 . S
H175 C204 0.950 . S
H176 C206 0.950 . S
H177 C207 0.950 . S
C178 H160 0.951 . S
C178 C179 1.366 . S
C178 C180 1.388 . S
C179 C178 1.366 . S
C179 C183 1.385 . S
C180 H161 0.951 . S
C180 C178 1.388 . S
C180 C181 1.366 . S
C181 C180 1.366 . S
C181 C182 1.414 . S
C181 C184 1.499 . S
C182 H162 0.950 . S
C182 C181 1.414 . S
C182 C183 1.374 . S
C183 H163 0.950 . S
C183 C179 1.385 . S
C183 C182 1.374 . S
C184 C181 1.499 . S
C184 C185 1.373 . S
C184 C186 1.389 . S
C185 H164 0.950 . S
C185 C184 1.373 . S
C185 C201 1.377 . S
C186 C184 1.389 . S
C186 C187 1.524 . S
C186 C200 1.377 . S
C187 C186 1.524 . S
C187 C188 1.397 . S
C187 C192 1.363 . S
C188 H165 0.950 . S
C188 C187 1.397 . S
C188 C189 1.334 . S
C189 H166 0.950 . S
C189 C188 1.334 . S
C189 C190 1.287 . S
C190 C189 1.287 . S
C190 C191 1.524 . S
C190 H209 0.913 . S
C191 H167 0.950 . S
C191 C190 1.524 . S
C191 C192 1.415 . S
C192 H168 0.950 . S
C192 C187 1.363 . S
C192 C191 1.415 . S
C193 H169 0.951 . S
C193 C194 1.366 . S
C193 C195 1.388 . S
C194 C193 1.366 . S
C194 C198 1.385 . S
C195 H170 0.951 . S
C195 C193 1.388 . S
C195 C196 1.366 . S
C196 C195 1.366 . S
C196 C197 1.414 . S
C196 C199 1.499 . S
C197 H171 0.950 . S
C197 C196 1.414 . S
C197 C198 1.374 . S
C198 H172 0.950 . S
C198 C194 1.385 . S
C198 C197 1.374 . S
C199 C196 1.499 . S
C199 C200 1.373 . S
C199 C201 1.389 . S
C200 H173 0.950 . S
C200 C186 1.377 . S
C200 C199 1.373 . S
C201 C185 1.377 . S
C201 C199 1.389 . S
C201 C202 1.524 . S
C202 C201 1.524 . S
C202 C203 1.397 . S
C202 C207 1.363 . S
C203 H174 0.950 . S
C203 C202 1.397 . S
C203 C204 1.334 . S
C204 H175 0.950 . S
C204 C203 1.334 . S
C204 C205 1.287 . S
C205 C204 1.287 . S
C205 C206 1.524 . S
C205 H208 0.999 . S
C206 H176 0.950 . S
C206 C205 1.524 . S
C206 C207 1.415 . S
C207 H177 0.950 . S
C207 C202 1.363 . S
C207 C206 1.415 . S
H208 C205 0.999 . S
H209 C190 0.913 . S
H210 C228 0.951 1_565 S
H211 C230 0.951 1_565 S
H212 C232 0.950 . S
H213 C233 0.950 . S
H214 C235 0.950 . S
H215 C238 0.950 . S
H216 C239 0.950 . S
H217 C241 0.950 . S
H218 C242 0.950 . S
H219 C243 0.951 . S
H220 C245 0.951 . S
H221 C247 0.949 1_565 S
H222 C248 0.950 . S
H223 C250 0.950 . S
H224 C253 0.950 . S
H225 C254 0.950 . S
H226 C256 0.950 . S
H227 C257 0.950 . S
C228 H210 0.951 1_545 S
C228 C229 1.366 . S
C228 C230 1.388 . S
C229 C228 1.366 . S
C229 C233 1.385 . S
C230 H211 0.951 1_545 S
C230 C228 1.388 . S
C230 C231 1.366 . S
C231 C230 1.366 . S
C231 C232 1.414 . S
C231 C234 1.499 . S
C232 H212 0.950 . S
C232 C231 1.414 . S
C232 C233 1.374 . S
C233 H213 0.950 . S
C233 C229 1.385 . S
C233 C232 1.374 . S
C234 C231 1.499 . S
C234 C235 1.373 . S
C234 C236 1.389 1_545 S
C235 H214 0.950 . S
C235 C234 1.373 . S
C235 C251 1.377 . S
C236 C234 1.389 1_565 S
C236 C237 1.524 . S
C236 C250 1.377 . S
C237 C236 1.524 . S
C237 C238 1.397 . S
C237 C242 1.363 . S
C238 H215 0.950 . S
C238 C237 1.397 . S
C238 C239 1.334 . S
C239 H216 0.950 . S
C239 C238 1.334 . S
C239 C240 1.287 . S
C240 C239 1.287 . S
C240 C241 1.524 . S
C240 H259 0.913 . S
C241 H217 0.950 . S
C241 C240 1.524 . S
C241 C242 1.415 . S
C242 H218 0.950 . S
C242 C237 1.363 . S
C242 C241 1.415 . S
C243 H219 0.951 . S
C243 C244 1.366 . S
C243 C245 1.388 . S
C244 C243 1.366 . S
C244 C248 1.385 1_545 S
C245 H220 0.951 . S
C245 C243 1.388 . S
C245 C246 1.366 . S
C246 C245 1.366 . S
C246 C247 1.415 . S
C246 C249 1.499 . S
C247 H221 0.949 1_545 S
C247 C246 1.415 . S
C247 C248 1.374 1_545 S
C248 H222 0.950 . S
C248 C244 1.385 1_565 S
C248 C247 1.374 1_565 S
C249 C246 1.499 . S
C249 C250 1.373 1_545 S
C249 C251 1.389 . S
C250 H223 0.950 . S
C250 C236 1.377 . S
C250 C249 1.373 1_565 S
C251 C235 1.377 . S
C251 C249 1.389 . S
C251 C252 1.524 . S
C252 C251 1.524 . S
C252 C253 1.397 . S
C252 C257 1.363 . S
C253 H224 0.950 . S
C253 C252 1.397 . S
C253 C254 1.334 . S
C254 H225 0.950 . S
C254 C253 1.334 . S
C254 C255 1.287 . S
C255 C254 1.287 . S
C255 C256 1.524 . S
C255 H258 0.999 . S
C256 H226 0.950 . S
C256 C255 1.524 . S
C256 C257 1.415 . S
C257 H227 0.950 . S
C257 C252 1.363 . S
C257 C256 1.415 . S
H258 C255 0.999 . S
H259 C240 0.913 . S
H260 C278 0.951 1_556 S
H261 C280 0.947 1_556 S
H262 C282 0.950 . S
H263 C283 0.950 . S
H264 C285 0.950 . S
H265 C288 0.950 . S
H266 C289 0.950 . S
H267 C291 0.950 . S
H268 C292 0.950 . S
H269 C293 0.951 . S
H270 C295 0.951 . S
H271 C297 0.951 1_556 S
H272 C298 0.950 . S
H273 C300 0.950 . S
H274 C303 0.950 . S
H275 C304 0.950 . S
H276 C306 0.950 . S
H277 C307 0.950 . S
C278 H260 0.951 1_554 S
C278 C279 1.366 . S
C278 C280 1.386 . S
C279 C278 1.366 . S
C279 C283 1.385 . S
C280 H261 0.947 1_554 S
C280 C278 1.386 . S
C280 C281 1.372 . S
C281 C280 1.372 . S
C281 C282 1.414 . S
C281 C284 1.499 . S
C282 H262 0.950 . S
C282 C281 1.414 . S
C282 C283 1.374 . S
C283 H263 0.950 . S
C283 C279 1.385 . S
C283 C282 1.374 . S
C284 C281 1.499 . S
C284 C285 1.373 . S
C284 C286 1.389 1_554 S
C285 H264 0.950 . S
C285 C284 1.373 . S
C285 C301 1.377 . S
C286 C284 1.389 1_556 S
C286 C287 1.524 . S
C286 C300 1.377 . S
C287 C286 1.524 . S
C287 C288 1.397 . S
C287 C292 1.363 . S
C288 H265 0.950 . S
C288 C287 1.397 . S
C288 C289 1.334 . S
C289 H266 0.950 . S
C289 C288 1.334 . S
C289 C290 1.287 . S
C290 C289 1.287 . S
C290 C291 1.524 . S
C290 H309 0.913 . S
C291 H267 0.950 . S
C291 C290 1.524 . S
C291 C292 1.415 . S
C292 H268 0.950 . S
C292 C287 1.363 . S
C292 C291 1.415 . S
C293 H269 0.951 . S
C293 C294 1.366 . S
C293 C295 1.388 . S
C294 C293 1.366 . S
C294 C298 1.385 . S
C295 H270 0.951 . S
C295 C293 1.388 . S
C295 C296 1.366 . S
C296 C295 1.366 . S
C296 C297 1.414 . S
C296 C299 1.499 . S
C297 H271 0.951 1_554 S
C297 C296 1.414 . S
C297 C298 1.374 . S
C298 H272 0.950 . S
C298 C294 1.385 . S
C298 C297 1.374 . S
C299 C296 1.499 . S
C299 C300 1.373 1_554 S
C299 C301 1.389 . S
C300 H273 0.950 . S
C300 C286 1.377 . S
C300 C299 1.373 1_556 S
C301 C285 1.377 . S
C301 C299 1.389 . S
C301 C302 1.524 . S
C302 C301 1.524 . S
C302 C303 1.397 . S
C302 C307 1.363 . S
C303 H274 0.950 . S
C303 C302 1.397 . S
C303 C304 1.334 . S
C304 H275 0.950 . S
C304 C303 1.334 . S
C304 C305 1.287 . S
C305 C304 1.287 . S
C305 C306 1.524 . S
C305 H308 0.999 . S
C306 H276 0.950 . S
C306 C305 1.524 . S
C306 C307 1.415 . S
C307 H277 0.950 . S
C307 C302 1.363 . S
C307 C306 1.415 . S
H308 C305 0.999 . S
H309 C290 0.913 . S
H310 C328 0.951 . S
H311 C330 0.951 . S
H312 C332 0.950 . S
H313 C333 0.950 . S
H314 C335 0.950 . S
H315 C338 0.950 . S
H316 C339 0.950 . S
H317 C341 0.950 . S
H318 C342 0.950 . S
H319 C343 0.951 . S
H320 C345 0.951 . S
H321 C347 0.950 . S
H322 C348 0.950 . S
H323 C350 0.950 . S
H324 C353 0.950 . S
H325 C354 0.950 . S
H326 C356 0.950 . S
H327 C357 0.950 . S
C328 H310 0.951 . S
C328 C329 1.366 1_655 S
C328 C330 1.388 . S
C329 C328 1.366 1_455 S
C329 C333 1.385 . S
C330 H311 0.951 . S
C330 C328 1.388 . S
C330 C331 1.366 1_655 S
C331 C330 1.366 1_455 S
C331 C332 1.414 . S
C331 C334 1.499 . S
C332 H312 0.950 . S
C332 C331 1.414 . S
C332 C333 1.374 . S
C333 H313 0.950 . S
C333 C329 1.385 . S
C333 C332 1.374 . S
C334 C331 1.499 . S
C334 C335 1.373 . S
C334 C336 1.389 1_455 S
C335 H314 0.950 . S
C335 C334 1.373 . S
C335 C351 1.377 . S
C336 C334 1.389 1_655 S
C336 C337 1.524 . S
C336 C350 1.377 . S
C337 C336 1.524 . S
C337 C338 1.397 . S
C337 C342 1.363 . S
C338 H315 0.950 . S
C338 C337 1.397 . S
C338 C339 1.334 . S
C339 H316 0.950 . S
C339 C338 1.334 . S
C339 C340 1.287 . S
C340 C339 1.287 . S
C340 C341 1.524 . S
C340 H359 0.913 . S
C341 H317 0.950 . S
C341 C340 1.524 . S
C341 C342 1.415 . S
C342 H318 0.950 . S
C342 C337 1.363 . S
C342 C341 1.415 . S
C343 H319 0.951 . S
C343 C344 1.366 . S
C343 C345 1.388 . S
C344 C343 1.366 . S
C344 C348 1.385 1_455 S
C345 H320 0.951 . S
C345 C343 1.388 . S
C345 C346 1.366 . S
C346 C345 1.366 . S
C346 C347 1.414 1_455 S
C346 C349 1.499 . S
C347 H321 0.950 . S
C347 C346 1.414 1_655 S
C347 C348 1.374 . S
C348 H322 0.950 . S
C348 C344 1.385 1_655 S
C348 C347 1.374 . S
C349 C346 1.499 . S
C349 C350 1.373 1_455 S
C349 C351 1.389 . S
C350 H323 0.950 . S
C350 C336 1.377 . S
C350 C349 1.373 1_655 S
C351 C335 1.377 . S
C351 C349 1.389 . S
C351 C352 1.524 . S
C352 C351 1.524 . S
C352 C353 1.397 . S
C352 C357 1.363 . S
C353 H324 0.950 . S
C353 C352 1.397 . S
C353 C354 1.334 . S
C354 H325 0.950 . S
C354 C353 1.334 . S
C354 C355 1.287 . S
C355 C354 1.287 . S
C355 C356 1.524 . S
C355 H358 0.999 . S
C356 H326 0.950 . S
C356 C355 1.524 . S
C356 C357 1.415 . S
C357 H327 0.950 . S
C357 C352 1.363 . S
C357 C356 1.415 . S
H358 C355 0.999 . S
H359 C340 0.913 . S
H360 C378 0.951 1_565 S
H361 C380 0.951 1_565 S
H362 C382 0.950 . S
H363 C383 0.950 . S
H364 C385 0.950 . S
H365 C388 0.950 . S
H366 C389 0.950 . S
H367 C391 0.950 . S
H368 C392 0.950 . S
H369 C393 0.951 . S
H370 C395 0.951 . S
H371 C397 0.951 . S
H372 C398 0.950 1_565 S
H373 C400 0.950 . S
H374 C403 0.950 . S
H375 C404 0.950 . S
H376 C406 0.950 . S
H377 C407 0.950 . S
C378 H360 0.951 1_545 S
C378 C379 1.366 . S
C378 C380 1.388 . S
C379 C378 1.366 . S
C379 C383 1.385 1_455 S
C380 H361 0.951 1_545 S
C380 C378 1.388 . S
C380 C381 1.366 . S
C381 C380 1.366 . S
C381 C382 1.414 1_455 S
C381 C384 1.499 . S
C382 H362 0.950 . S
C382 C381 1.414 1_655 S
C382 C383 1.374 . S
C383 H363 0.950 . S
C383 C379 1.385 1_655 S
C383 C382 1.374 . S
C384 C381 1.499 . S
C384 C385 1.373 1_445 S
C384 C386 1.389 . S
C385 H364 0.950 . S
C385 C384 1.373 1_665 S
C385 C401 1.377 . S
C386 C384 1.389 . S
C386 C387 1.524 . S
C386 C400 1.377 . S
C387 C386 1.524 . S
C387 C388 1.397 . S
C387 C392 1.363 . S
C388 H365 0.950 . S
C388 C387 1.397 . S
C388 C389 1.334 . S
C389 H366 0.950 . S
C389 C388 1.334 . S
C389 C390 1.287 . S
C390 C389 1.287 . S
C390 C391 1.524 . S
C390 H409 0.913 . S
C391 H367 0.950 . S
C391 C390 1.524 . S
C391 C392 1.415 . S
C392 H368 0.950 . S
C392 C387 1.363 . S
C392 C391 1.415 . S
C393 H369 0.951 . S
C393 C394 1.366 1_655 S
C393 C395 1.388 . S
C394 C393 1.366 1_455 S
C394 C398 1.385 . S
C395 H370 0.951 . S
C395 C393 1.388 . S
C395 C396 1.366 1_655 S
C396 C395 1.366 1_455 S
C396 C397 1.413 1_545 S
C396 C399 1.499 . S
C397 H371 0.951 . S
C397 C396 1.413 1_565 S
C397 C398 1.374 1_565 S
C398 H372 0.950 1_545 S
C398 C394 1.385 . S
C398 C397 1.374 1_545 S
C399 C396 1.499 . S
C399 C400 1.373 . S
C399 C401 1.389 1_445 S
C400 H373 0.950 . S
C400 C386 1.377 . S
C400 C399 1.373 . S
C401 C385 1.377 . S
C401 C399 1.389 1_665 S
C401 C402 1.524 . S
C402 C401 1.524 . S
C402 C403 1.397 . S
C402 C407 1.363 . S
C403 H374 0.950 . S
C403 C402 1.397 . S
C403 C404 1.334 . S
C404 H375 0.950 . S
C404 C403 1.334 . S
C404 C405 1.287 . S
C405 C404 1.287 . S
C405 C406 1.524 . S
C405 H408 0.999 . S
C406 H376 0.950 . S
C406 C405 1.524 . S
C406 C407 1.415 . S
C407 H377 0.950 . S
C407 C402 1.363 . S
C407 C406 1.415 . S
H408 C405 0.999 . S
H409 C390 0.913 . S
H410 C428 0.951 . S
H411 C430 0.951 . S
H412 C432 0.950 . S
H413 C433 0.950 . S
H414 C435 0.950 . S
H415 C438 0.950 . S
H416 C439 0.950 . S
H417 C441 0.950 . S
H418 C442 0.950 . S
H419 C443 0.951 . S
H420 C445 0.951 . S
H421 C447 0.950 . S
H422 C448 0.950 . S
H423 C450 0.950 . S
H424 C453 0.950 . S
H425 C454 0.950 . S
H426 C456 0.950 . S
H427 C457 0.950 . S
C428 H410 0.951 . S
C428 C429 1.366 . S
C428 C430 1.388 . S
C429 C428 1.366 . S
C429 C433 1.385 1_445 S
C430 H411 0.951 . S
C430 C428 1.388 . S
C430 C431 1.366 . S
C431 C430 1.366 . S
C431 C432 1.414 1_445 S
C431 C434 1.499 . S
C432 H412 0.950 . S
C432 C431 1.414 1_665 S
C432 C433 1.374 . S
C433 H413 0.950 . S
C433 C429 1.385 1_665 S
C433 C432 1.374 . S
C434 C431 1.499 . S
C434 C435 1.373 1_455 S
C434 C436 1.389 . S
C435 H414 0.950 . S
C435 C434 1.373 1_655 S
C435 C451 1.377 . S
C436 C434 1.389 . S
C436 C437 1.524 . S
C436 C450 1.377 . S
C437 C436 1.524 . S
C437 C438 1.397 1_545 S
C437 C442 1.363 . S
C438 H415 0.950 . S
C438 C437 1.397 1_565 S
C438 C439 1.334 . S
C439 H416 0.950 . S
C439 C438 1.334 . S
C439 C440 1.287 1_565 S
C440 C439 1.287 1_545 S
C440 C441 1.524 . S
C440 H459 0.913 . S
C441 H417 0.950 . S
C441 C440 1.524 . S
C441 C442 1.415 . S
C442 H418 0.950 . S
C442 C437 1.363 . S
C442 C441 1.415 . S
C443 H419 0.951 . S
C443 C444 1.366 1_665 S
C443 C445 1.388 . S
C444 C443 1.366 1_445 S
C444 C448 1.385 . S
C445 H420 0.951 . S
C445 C443 1.388 . S
C445 C446 1.366 1_665 S
C446 C445 1.366 1_445 S
C446 C447 1.414 . S
C446 C449 1.499 . S
C447 H421 0.950 . S
C447 C446 1.414 . S
C447 C448 1.374 . S
C448 H422 0.950 . S
C448 C444 1.385 . S
C448 C447 1.374 . S
C449 C446 1.499 . S
C449 C450 1.373 . S
C449 C451 1.389 1_455 S
C450 H423 0.950 . S
C450 C436 1.377 . S
C450 C449 1.373 . S
C451 C435 1.377 . S
C451 C449 1.389 1_655 S
C451 C452 1.524 . S
C452 C451 1.524 . S
C452 C453 1.397 . S
C452 C457 1.363 1_545 S
C453 H424 0.950 . S
C453 C452 1.397 . S
C453 C454 1.334 . S
C454 H425 0.950 . S
C454 C453 1.334 . S
C454 C455 1.287 . S
C455 C454 1.287 . S
C455 C456 1.524 1_545 S
C455 H458 0.999 . S
C456 H426 0.950 . S
C456 C455 1.524 1_565 S
C456 C457 1.415 . S
C457 H427 0.950 . S
C457 C452 1.363 1_565 S
C457 C456 1.415 . S
H458 C455 0.999 . S
H459 C440 0.913 . S
H460 C478 0.951 . S
H461 C480 0.951 . S
H462 C482 0.950 . S
H463 C483 0.950 . S
H464 C485 0.950 . S
H465 C488 0.950 1_545 S
H466 C489 0.950 . S
H467 C491 0.950 . S
H468 C492 0.950 . S
H469 C493 0.951 . S
H470 C495 0.951 . S
H471 C497 0.950 1_655 S
H472 C498 0.950 1_655 S
H473 C500 0.950 . S
H474 C503 0.950 . S
H475 C504 0.950 . S
H476 C506 0.950 . S
H477 C507 0.950 . S
C478 H460 0.951 . S
C478 C479 1.366 1_665 S
C478 C480 1.388 . S
C479 C478 1.366 1_445 S
C479 C483 1.385 . S
C480 H461 0.951 . S
C480 C478 1.388 . S
C480 C481 1.366 1_665 S
C481 C480 1.366 1_445 S
C481 C482 1.414 . S
C481 C484 1.499 . S
C482 H462 0.950 . S
C482 C481 1.414 . S
C482 C483 1.374 . S
C483 H463 0.950 . S
C483 C479 1.385 . S
C483 C482 1.374 . S
C484 C481 1.499 . S
C484 C485 1.373 . S
C484 C486 1.389 1_445 S
C485 H464 0.950 . S
C485 C484 1.373 . S
C485 C501 1.377 . S
C486 C484 1.389 1_665 S
C486 C487 1.524 . S
C486 C500 1.377 . S
C487 C486 1.524 . S
C487 C488 1.397 . S
C487 C492 1.363 . S
C488 H465 0.950 1_565 S
C488 C487 1.397 . S
C488 C489 1.334 . S
C489 H466 0.950 . S
C489 C488 1.334 . S
C489 C490 1.287 . S
C490 C489 1.287 . S
C490 C491 1.524 . S
C490 H509 0.913 . S
C491 H467 0.950 . S
C491 C490 1.524 . S
C491 C492 1.415 . S
C492 H468 0.950 . S
C492 C487 1.363 . S
C492 C491 1.415 . S
C493 H469 0.951 . S
C493 C494 1.366 . S
C493 C495 1.388 . S
C494 C493 1.366 . S
C494 C498 1.385 1_545 S
C495 H470 0.951 . S
C495 C493 1.388 . S
C495 C496 1.366 . S
C496 C495 1.366 . S
C496 C497 1.414 1_545 S
C496 C499 1.499 . S
C497 H471 0.950 1_455 S
C497 C496 1.414 1_565 S
C497 C498 1.374 . S
C498 H472 0.950 1_455 S
C498 C494 1.385 1_565 S
C498 C497 1.374 . S
C499 C496 1.499 . S
C499 C500 1.373 1_445 S
C499 C501 1.389 . S
C500 H473 0.950 . S
C500 C486 1.377 . S
C500 C499 1.373 1_665 S
C501 C485 1.377 . S
C501 C499 1.389 . S
C501 C502 1.524 . S
C502 C501 1.524 . S
C502 C503 1.397 . S
C502 C507 1.363 . S
C503 H474 0.950 . S
C503 C502 1.397 . S
C503 C504 1.334 . S
C504 H475 0.950 . S
C504 C503 1.334 . S
C504 C505 1.287 . S
C505 C504 1.287 . S
C505 C506 1.524 . S
C505 H508 0.999 . S
C506 H476 0.950 . S
C506 C505 1.524 . S
C506 C507 1.415 . S
C507 H477 0.950 . S
C507 C502 1.363 . S
C507 C506 1.415 . S
H508 C505 0.999 . S
H509 C490 0.913 . S
C79 C18 1.860 . S
C94 C19 1.860 . S
C129 C21 0.654 . S
C144 C22 0.654 . S
C179 C42 1.157 . S
C194 C41 1.157 . S
C229 C58 2.415 . S
C244 C59 2.415 . S
C279 C1 1.144 . S
C294 C2 1.144 . S
C329 C38 1.861 . S
C344 C39 1.861 . S
C379 C28 1.464 1_455 S
C394 C8 1.464 . S
C429 C29 1.461 . S
C444 C48 1.453 . S
C479 C49 1.467 . S
C494 C9 1.459 . S
