# Generated by pormake.
# Topology wjd, (6)-cn, num edge types: 1
# Building blocks:
#     Node 0, Type 0, BuildingBlock: HISSIN_clean_sbu_0, # of connection points: 6
#     Node 1, Type 0, BuildingBlock: HISSIN_clean_sbu_0, # of connection points: 6
#     Node 2, Type 0, BuildingBlock: HISSIN_clean_sbu_0, # of connection points: 6
#     Node 3, Type 0, BuildingBlock: HISSIN_clean_sbu_0, # of connection points: 6
#     Node 4, Type 0, BuildingBlock: HISSIN_clean_sbu_0, # of connection points: 6
#     Node 5, Type 0, BuildingBlock: HISSIN_clean_sbu_0, # of connection points: 6
#     Node 6, Type 0, BuildingBlock: HISSIN_clean_sbu_0, # of connection points: 6
#     Node 7, Type 0, BuildingBlock: HISSIN_clean_sbu_0, # of connection points: 6
#     Node 8, Type 0, BuildingBlock: HISSIN_clean_sbu_0, # of connection points: 6
#     Node 9, Type 0, BuildingBlock: HISSIN_clean_sbu_0, # of connection points: 6
#     Node 10, Type 0, BuildingBlock: HISSIN_clean_sbu_0, # of connection points: 6
#     Node 11, Type 0, BuildingBlock: HISSIN_clean_sbu_0, # of connection points: 6
#     Edge 12, Type (0, 0), BuildingBlock: TEMPAE_clean_linker_10, # of connection points: 2
#     Edge 13, Type (0, 0), BuildingBlock: TEMPAE_clean_linker_10, # of connection points: 2
#     Edge 14, Type (0, 0), BuildingBlock: TEMPAE_clean_linker_10, # of connection points: 2
#     Edge 15, Type (0, 0), BuildingBlock: TEMPAE_clean_linker_10, # of connection points: 2
#     Edge 16, Type (0, 0), BuildingBlock: TEMPAE_clean_linker_10, # of connection points: 2
#     Edge 17, Type (0, 0), BuildingBlock: TEMPAE_clean_linker_10, # of connection points: 2
#     Edge 18, Type (0, 0), BuildingBlock: TEMPAE_clean_linker_10, # of connection points: 2
#     Edge 19, Type (0, 0), BuildingBlock: TEMPAE_clean_linker_10, # of connection points: 2
#     Edge 20, Type (0, 0), BuildingBlock: TEMPAE_clean_linker_10, # of connection points: 2
#     Edge 21, Type (0, 0), BuildingBlock: TEMPAE_clean_linker_10, # of connection points: 2
#     Edge 22, Type (0, 0), BuildingBlock: TEMPAE_clean_linker_10, # of connection points: 2
#     Edge 23, Type (0, 0), BuildingBlock: TEMPAE_clean_linker_10, # of connection points: 2
#     Edge 24, Type (0, 0), BuildingBlock: TEMPAE_clean_linker_10, # of connection points: 2
#     Edge 25, Type (0, 0), BuildingBlock: TEMPAE_clean_linker_10, # of connection points: 2
#     Edge 26, Type (0, 0), BuildingBlock: TEMPAE_clean_linker_10, # of connection points: 2
#     Edge 27, Type (0, 0), BuildingBlock: TEMPAE_clean_linker_10, # of connection points: 2
#     Edge 28, Type (0, 0), BuildingBlock: TEMPAE_clean_linker_10, # of connection points: 2
#     Edge 29, Type (0, 0), BuildingBlock: TEMPAE_clean_linker_10, # of connection points: 2
#     Edge 30, Type (0, 0), BuildingBlock: TEMPAE_clean_linker_10, # of connection points: 2
#     Edge 31, Type (0, 0), BuildingBlock: TEMPAE_clean_linker_10, # of connection points: 2
#     Edge 32, Type (0, 0), BuildingBlock: TEMPAE_clean_linker_10, # of connection points: 2
#     Edge 33, Type (0, 0), BuildingBlock: TEMPAE_clean_linker_10, # of connection points: 2
#     Edge 34, Type (0, 0), BuildingBlock: TEMPAE_clean_linker_10, # of connection points: 2
#     Edge 35, Type (0, 0), BuildingBlock: TEMPAE_clean_linker_10, # of connection points: 2
#     Edge 36, Type (0, 0), BuildingBlock: TEMPAE_clean_linker_10, # of connection points: 2
#     Edge 37, Type (0, 0), BuildingBlock: TEMPAE_clean_linker_10, # of connection points: 2
#     Edge 38, Type (0, 0), BuildingBlock: TEMPAE_clean_linker_10, # of connection points: 2
#     Edge 39, Type (0, 0), BuildingBlock: TEMPAE_clean_linker_10, # of connection points: 2
#     Edge 40, Type (0, 0), BuildingBlock: TEMPAE_clean_linker_10, # of connection points: 2
#     Edge 41, Type (0, 0), BuildingBlock: TEMPAE_clean_linker_10, # of connection points: 2
#     Edge 42, Type (0, 0), BuildingBlock: TEMPAE_clean_linker_10, # of connection points: 2
#     Edge 43, Type (0, 0), BuildingBlock: TEMPAE_clean_linker_10, # of connection points: 2
#     Edge 44, Type (0, 0), BuildingBlock: TEMPAE_clean_linker_10, # of connection points: 2
#     Edge 45, Type (0, 0), BuildingBlock: TEMPAE_clean_linker_10, # of connection points: 2
#     Edge 46, Type (0, 0), BuildingBlock: TEMPAE_clean_linker_10, # of connection points: 2
#     Edge 47, Type (0, 0), BuildingBlock: TEMPAE_clean_linker_10, # of connection points: 2
# Relax obj value: 0.092
# Max RMSD: 0.205
# Mean RMSD: 0.205
data_MOF--net-wjd--node1-HISSIN_clean_sbu_0--edge1-TEMPAE_clean_linker_10
_symmetry_space_group_name_H-M    P1
_symmetry_Int_Tables_number       1
_symmetry_cell_setting            triclinic
loop_
_symmetry_equiv_pos_as_xyz
'x, y, z'
_cell_length_a     40.552058
_cell_length_b     40.571459
_cell_length_c     54.567712
_cell_angle_alpha  89.869575
_cell_angle_beta   90.057037
_cell_angle_gamma 120.05212
loop_
_atom_site_label
_atom_site_type_symbol
_atom_site_fract_x
_atom_site_fract_y
_atom_site_fract_z
_atom_type_partial_charge
Eu0 Eu 0.38218 0.18507 0.11082 0.0
Eu1 Eu 0.33565 0.1014 0.1387 0.0
C2 C 0.38828 0.17564 0.16961 0.0
C3 C 0.45193 0.2903 0.09392 0.0
C4 C 0.47463 0.29837 0.11495 0.0
C5 C 0.4916 0.35594 0.08053 0.0
C6 C 0.5057 0.33508 0.11874 0.0
C7 C 0.46062 0.31932 0.07679 0.0
C8 C 0.51464 0.36437 0.10153 0.0
C9 C 0.41863 0.25221 0.08969 0.0
O10 O 0.30252 0.13203 0.14491 0.0
O11 O 0.32022 0.16789 0.10996 0.0
C12 C 0.29712 0.15288 0.12868 0.0
O13 O 0.36394 0.13881 0.08156 0.0
O14 O 0.30037 0.06498 0.1687 0.0
O15 O 0.31376 0.04016 0.13789 0.0
O16 O 0.31049 0.09535 0.10156 0.0
C17 C 0.33129 0.10644 0.08177 0.0
O18 O 0.42743 0.17299 0.12396 0.0
O19 O 0.39198 0.10771 0.1255 0.0
O20 O 0.3781 0.13978 0.16631 0.0
O21 O 0.42535 0.22456 0.08508 0.0
O22 O 0.38989 0.24167 0.10454 0.0
O23 O 0.38526 0.19632 0.15198 0.0
C24 C 0.25196 1.005 0.1548 0.0
C25 C 0.23167 1.00435 0.13375 0.0
C26 C 0.19389 0.95195 0.17141 0.0
C27 C 0.1929 0.97754 0.13146 0.0
C28 C 0.23278 0.97869 0.17362 0.0
C29 C 0.17341 0.95098 0.15028 0.0
C30 C 0.29275 0.03361 0.15742 0.0
C31 C 0.42521 0.13959 0.12443 0.0
H32 H 0.46831 0.2763 0.12841 0.0
H33 H 0.49722 0.3778 0.06707 0.0
H34 H 0.52303 0.34037 0.13496 0.0
H35 H 0.44327 0.3137 0.06053 0.0
H36 H 0.24581 0.02458 0.11905 0.0
H37 H 0.17978 0.93237 0.18642 0.0
H38 H 0.17833 0.97739 0.11479 0.0
H39 H 0.24783 0.97895 0.1901 0.0
Eu40 Eu 0.80953 0.71664 0.3813 0.0
Eu41 Eu 0.8465 0.66765 0.40485 0.0
C42 C 0.80763 0.70355 0.43741 0.0
C43 C 0.8067 0.80596 0.3669 0.0
C44 C 0.84119 0.82715 0.37959 0.0
C45 C 0.80689 0.86463 0.35756 0.0
C46 C 0.85817 0.86668 0.38156 0.0
C47 C 0.78987 0.82498 0.35566 0.0
C48 C 0.84098 0.88588 0.37085 0.0
C49 C 0.78751 0.76406 0.3666 0.0
O50 O 0.78368 0.62646 0.40191 0.0
O51 O 0.76295 0.65552 0.37441 0.0
C52 C 0.75752 0.6254 0.38711 0.0
O53 O 0.83993 0.70618 0.35066 0.0
O54 O 0.84241 0.62228 0.42883 0.0
O55 O 0.89536 0.6598 0.41034 0.0
O56 O 0.83783 0.65175 0.36458 0.0
C57 C 0.84199 0.67536 0.34668 0.0
O58 O 0.86792 0.75842 0.39643 0.0
O59 O 0.89476 0.72172 0.38984 0.0
O60 O 0.83948 0.70261 0.43518 0.0
O61 O 0.80172 0.74903 0.35193 0.0
O62 O 0.77976 0.74794 0.38811 0.0
O63 O 0.7853 0.69557 0.41849 0.0
C64 C 0.88122 0.59638 0.41723 0.0
C65 C 0.88515 0.58813 0.39277 0.0
C66 C 0.88864 0.54318 0.43044 0.0
C67 C 0.89121 0.55784 0.38721 0.0
C68 C 0.88276 0.57351 0.43596 0.0
C69 C 0.89332 0.53509 0.40601 0.0
C70 C 0.8767 0.62926 0.42368 0.0
C71 C 0.89812 0.75528 0.39242 0.0
H72 H 0.85463 0.81305 0.38844 0.0
H73 H 0.7927 0.87851 0.34932 0.0
H74 H 0.8846 0.88218 0.39167 0.0
H75 H 0.76317 0.80911 0.34588 0.0
H76 H 0.88397 0.60536 0.37796 0.0
H77 H 0.88922 0.52585 0.44538 0.0
H78 H 0.89491 0.55269 0.36823 0.0
H79 H 0.87963 0.57926 0.45494 0.0
Eu80 Eu 0.86082 0.2017 0.11144 0.0
Eu81 Eu 0.94538 0.2398 0.13803 0.0
C82 C 0.87221 0.21861 0.1699 0.0
C83 C 0.75495 0.16597 0.09592 0.0
C84 C 0.74751 0.1815 0.11672 0.0
C85 C 0.68902 0.13981 0.08315 0.0
C86 C 0.71096 0.17621 0.12069 0.0
C87 C 0.72546 0.14509 0.07924 0.0
C88 C 0.68122 0.15533 0.10391 0.0
C89 C 0.79287 0.17048 0.09144 0.0
O90 O 0.91558 0.17601 0.14453 0.0
O91 O 0.87826 0.15722 0.11023 0.0
C92 C 0.89424 0.14954 0.12859 0.0
O93 O 0.90592 0.22852 0.08125 0.0
O94 O 0.98191 0.24402 0.16863 0.0
O95 O 1.00709 0.27742 0.13578 0.0
O96 O 0.95103 0.22055 0.10086 0.0
C97 C 0.93859 0.22883 0.08106 0.0
O98 O 0.8736 0.25956 0.1238 0.0
O99 O 0.93894 0.28943 0.1242 0.0
O100 O 0.90767 0.24477 0.16572 0.0
O101 O 0.8205 0.2046 0.08609 0.0
O102 O 0.80376 0.15278 0.1065 0.0
O103 O 0.85113 0.19408 0.15281 0.0
C104 C 0.04102 0.25179 0.15552 0.0
C105 C 1.02867 0.21282 0.15326 0.0
C106 C 0.10668 0.26567 0.15397 0.0
C107 C 0.05513 0.20036 0.15151 0.0
C108 C 0.08018 0.27808 0.15587 0.0
C109 C 0.09453 0.22663 0.15172 0.0
C110 C 1.01334 0.2653 0.15648 0.0
C111 C 0.90706 0.29076 0.12347 0.0
H112 H 0.76994 0.1977 0.12985 0.0
H113 H 0.6668 0.12313 0.07003 0.0
H114 H 0.70616 0.18894 0.13672 0.0
H115 H 0.73058 0.13267 0.06316 0.0
H116 H 0.99854 0.19197 0.15273 0.0
H117 H 0.13671 0.2868 0.15376 0.0
H118 H 0.04465 0.17008 0.1501 0.0
H119 H 0.09028 0.30829 0.15732 0.0
Eu120 Eu 0.33706 0.10429 0.38553 0.0
Eu121 Eu 0.38366 0.19191 0.40652 0.0
C122 C 0.34954 0.11968 0.44113 0.0
C123 C 0.25101 1.00825 0.3727 0.0
C124 C 0.22706 0.02325 0.36776 0.0
C125 C 0.19537 0.94708 0.38198 0.0
C126 C 0.18745 1.00021 0.36987 0.0
C127 C 0.23484 0.96996 0.37961 0.0
C128 C 0.17129 0.96204 0.37739 0.0
C129 C 0.29272 0.03299 0.37357 0.0
O130 O 0.42676 0.17255 0.4047 0.0
O131 O 0.39869 0.121 0.37859 0.0
C132 C 0.42859 0.14713 0.39071 0.0
O133 O 0.34446 0.14242 0.3537 0.0
O134 O 0.42724 0.2351 0.43056 0.0
O135 O 0.39112 0.24884 0.40881 0.0
O136 O 0.39837 0.19665 0.36609 0.0
C137 C 0.37443 0.17564 0.34878 0.0
O138 O 0.29267 0.11892 0.39822 0.0
O139 O 0.32817 0.183 0.39202 0.0
O140 O 0.34884 0.15139 0.43758 0.0
O141 O 0.30838 0.06049 0.35749 0.0
O142 O 0.30658 0.04419 0.39546 0.0
O143 O 0.35954 0.10564 0.42307 0.0
C144 C 0.45399 0.29891 0.41634 0.0
C145 C 0.46303 0.30992 0.3917 0.0
C146 C 0.50681 0.36026 0.42885 0.0
C147 C 0.49348 0.34605 0.3857 0.0
C148 C 0.47629 0.32426 0.43481 0.0
C149 C 0.51563 0.37187 0.40422 0.0
C150 C 0.42068 0.26189 0.42319 0.0
C151 C 0.29502 0.15198 0.39426 0.0
H152 H 0.23899 0.05298 0.36288 0.0
H153 H 0.18364 0.91765 0.38755 0.0
H154 H 0.16956 1.01251 0.36639 0.0
H155 H 0.25285 0.95801 0.3838 0.0
H156 H 0.44627 0.2908 0.37708 0.0
H157 H 0.52366 0.37893 0.44361 0.0
H158 H 0.49919 0.35399 0.36656 0.0
H159 H 0.46992 0.31631 0.45393 0.0
Eu160 Eu 0.84379 0.66286 0.10931 0.0
Eu161 Eu 0.80667 0.70978 0.13579 0.0
C162 C 0.82708 0.65713 0.16782 0.0
C163 C 0.87943 0.59296 0.09345 0.0
C164 C 0.86449 0.57026 0.11448 0.0
C165 C 0.90559 0.55336 0.08056 0.0
C166 C 0.87007 0.53922 0.11851 0.0
C167 C 0.90001 0.58431 0.07658 0.0
C168 C 0.89068 0.53032 0.10156 0.0
C169 C 0.8747 0.62622 0.08895 0.0
O170 O 0.87027 0.74252 0.14288 0.0
O171 O 0.88878 0.72488 0.10821 0.0
C172 C 0.89673 0.74804 0.12683 0.0
O173 O 0.81585 0.68042 0.07954 0.0
O174 O 0.80267 0.74237 0.16621 0.0
O175 O 0.76997 0.73483 0.13316 0.0
O176 O 0.82675 0.73465 0.09856 0.0
C177 C 0.81738 0.71362 0.07888 0.0
O178 O 0.78605 0.61787 0.12209 0.0
O179 O 0.75653 0.65361 0.1225 0.0
O180 O 0.80147 0.66722 0.16381 0.0
O181 O 0.8404 0.61951 0.08399 0.0
O182 O 0.8927 0.65497 0.10379 0.0
O183 O 0.85118 0.65996 0.15058 0.0
C184 C 0.79587 0.79425 0.15305 0.0
C185 C 0.77004 0.80757 0.15459 0.0
C186 C 0.8477 0.85962 0.14848 0.0
C187 C 0.78287 0.84661 0.15303 0.0
C188 C 0.8348 0.82056 0.1499 0.0
C189 C 0.8219 0.87322 0.14994 0.0
C190 C 0.78188 0.75295 0.15392 0.0
C191 C 0.75495 0.62028 0.12192 0.0
H192 H 0.84854 0.57654 0.12775 0.0
H193 H 0.92204 0.54779 0.0673 0.0
H194 H 0.8578 0.52188 0.13472 0.0
H195 H 0.91198 0.60167 0.06033 0.0
H196 H 0.73985 0.78771 0.15676 0.0
H197 H 0.87796 0.87917 0.14639 0.0
H198 H 0.76206 0.85586 0.15378 0.0
H199 H 0.85527 0.8109 0.14848 0.0
Eu200 Eu 0.95023 0.24555 0.38593 0.0
Eu201 Eu 0.86288 0.20572 0.40761 0.0
C202 C 0.93574 0.24378 0.44167 0.0
C203 C 0.04494 0.25328 0.37239 0.0
C204 C 0.08183 0.27285 0.38218 0.0
C205 C 0.05175 0.19742 0.36672 0.0
C206 C 0.10327 0.25476 0.38462 0.0
C207 C 1.03006 0.21542 0.36455 0.0
C208 C 0.08832 0.21674 0.37718 0.0
C209 C 1.02108 0.27123 0.37334 0.0
O210 O 0.88321 0.26835 0.40526 0.0
O211 O 0.93391 0.29061 0.37846 0.0
C212 C 0.90836 0.29505 0.39075 0.0
O213 O 0.91132 0.21333 0.35477 0.0
O214 O 0.82089 0.20709 0.43234 0.0
O215 O 0.80522 0.15739 0.41001 0.0
O216 O 0.85781 0.2144 0.367 0.0
C217 C 0.87831 0.21045 0.34979 0.0
O218 O 0.93554 0.18663 0.39904 0.0
O219 O 0.87084 0.1577 0.39522 0.0
O220 O 0.90378 0.2115 0.43837 0.0
O221 O 0.9934 0.26002 0.35746 0.0
O222 O 1.01052 0.27449 0.39529 0.0
O223 O 0.95022 0.26756 0.42344 0.0
C224 C 0.75662 0.17187 0.41858 0.0
C225 C 0.74432 0.16866 0.39415 0.0
C226 C 0.69689 0.16632 0.43206 0.0
C227 C 0.70833 0.16378 0.38876 0.0
C228 C 0.73274 0.17099 0.43742 0.0
C229 C 0.68394 0.16217 0.40767 0.0
C230 C 0.79326 0.17429 0.42485 0.0
C231 C 0.902 0.15573 0.3969 0.0
H232 H 0.09367 0.30186 0.3886 0.0
H233 H 0.03953 0.16807 0.36093 0.0
H234 H 0.13156 0.27047 0.39248 0.0
H235 H 1.00136 0.19944 0.35736 0.0
H236 H 0.76225 0.16933 0.37923 0.0
H237 H 0.67935 0.1661 0.44708 0.0
H238 H 0.69933 0.16043 0.3698 0.0
H239 H 0.74168 0.17353 0.45637 0.0
Eu240 Eu 0.11576 0.33334 0.64122 0.0
Eu241 Eu 0.19851 0.38648 0.61297 0.0
C242 C 0.11971 0.33473 0.58338 0.0
C243 C 1.02388 0.24236 0.65481 0.0
C244 C 0.03348 0.22297 0.63751 0.0
C245 C 0.96505 0.1835 0.66341 0.0
C246 C 1.00914 0.18404 0.63329 0.0
C247 C 0.98948 0.22241 0.66765 0.0
C248 C 0.97463 0.1637 0.64627 0.0
C249 C 0.05021 0.28297 0.66 0.0
O250 O 0.16378 0.41555 0.60946 0.0
O251 O 0.12661 0.39395 0.64394 0.0
C252 C 0.14356 0.41985 0.62664 0.0
O253 O 0.15569 0.36217 0.67221 0.0
O254 O 0.24076 0.44199 0.59874 0.0
O255 O 0.2498 0.39419 0.59418 0.0
O256 O 0.21149 0.40566 0.65268 0.0
C257 C 0.19081 0.39076 0.67257 0.0
O258 O 0.13918 0.29601 0.62826 0.0
O259 O 0.2021 0.33934 0.63217 0.0
O260 O 0.15652 0.34614 0.5839 0.0
O261 O 0.08308 0.29089 0.66916 0.0
O262 O 0.05372 0.30702 0.64287 0.0
O263 O 0.10292 0.33914 0.60245 0.0
C264 C 0.3045 0.45573 0.59947 0.0
C265 C 0.31424 0.46506 0.62421 0.0
C266 C 0.37046 0.49952 0.58821 0.0
C267 C 0.35173 0.49188 0.63087 0.0
C268 C 0.33301 0.47278 0.5816 0.0
C269 C 0.3803 0.50992 0.61291 0.0
C270 C 0.26443 0.43094 0.59184 0.0
C271 C 0.17444 0.30388 0.63159 0.0
H272 H 0.06002 0.2379 0.62743 0.0
H273 H 0.93844 0.16901 0.67342 0.0
H274 H 1.01769 0.16976 0.62016 0.0
H275 H 0.98156 0.2369 0.68104 0.0
H276 H 0.29265 0.45229 0.63833 0.0
H277 H 0.39138 0.5131 0.5738 0.0
H278 H 0.35825 0.49879 0.65007 0.0
H279 H 0.32607 0.46625 0.56239 0.0
Eu280 Eu 0.20877 0.84239 0.91053 0.0
Eu281 Eu 0.2478 0.92959 0.88887 0.0
C282 C 0.21458 0.8578 0.85281 0.0
C283 C 0.17422 0.73655 0.92271 0.0
C284 C 0.20221 0.73475 0.90861 0.0
C285 C 0.1388 0.66747 0.92502 0.0
C286 C 0.19859 0.69942 0.90288 0.0
C287 C 0.14253 0.70272 0.93079 0.0
C288 C 0.16681 0.6653 0.91104 0.0
C289 C 0.17648 0.7731 0.92831 0.0
O290 O 0.18893 0.91437 0.90238 0.0
O291 O 0.16077 0.85005 0.89746 0.0
C292 C 0.15825 0.88081 0.8997 0.0
O293 O 0.21586 0.88346 0.94125 0.0
O294 O 0.26173 0.97274 0.86041 0.0
O295 O 0.27648 0.9898 0.89822 0.0
O296 O 0.27162 0.92955 0.92584 0.0
C297 C 0.24863 0.91486 0.9444 0.0
O298 O 0.27091 0.86119 0.90651 0.0
O299 O 0.29337 0.91404 0.88131 0.0
O300 O 0.21645 0.89042 0.85754 0.0
O301 O 0.2091 0.80087 0.93602 0.0
O302 O 0.16032 0.7846 0.91249 0.0
O303 O 0.2186 0.83756 0.87019 0.0
C304 C 0.25637 0.02512 0.87511 0.0
C305 C 0.2776 0.06268 0.88353 0.0
C306 C 0.20139 0.03361 0.87 0.0
C307 C 0.26081 0.08537 0.88554 0.0
C308 C 0.21812 1.01071 0.86826 0.0
C309 C 0.22245 0.07099 0.87904 0.0
C310 C 0.27344 1.00048 0.87622 0.0
C311 C 0.29752 0.88737 0.89241 0.0
H312 H 0.22677 0.76061 0.90202 0.0
H313 H 0.11367 0.64186 0.93126 0.0
H314 H 0.2209 0.69886 0.89232 0.0
H315 H 0.12041 0.70355 0.94143 0.0
H316 H 0.30698 0.0742 0.88915 0.0
H317 H 0.17173 0.02178 0.86499 0.0
H318 H 0.27783 0.11421 0.89229 0.0
H319 H 0.20095 0.98153 0.86213 0.0
Eu320 Eu 0.72766 0.80248 0.63474 0.0
Eu321 Eu 0.67853 0.83798 0.6087 0.0
C322 C 0.71665 0.7991 0.57836 0.0
C323 C 0.81486 0.79497 0.6516 0.0
C324 C 0.83965 0.8335 0.65735 0.0
C325 C 0.86972 0.78774 0.64299 0.0
C326 C 0.87925 0.84894 0.656 0.0
C327 C 0.83029 0.77225 0.64462 0.0
C328 C 0.89466 0.82631 0.64846 0.0
C329 C 0.77312 0.77865 0.65052 0.0
O330 O 0.63802 0.775 0.61178 0.0
O331 O 0.66591 0.75639 0.64151 0.0
C332 C 0.63639 0.74974 0.62765 0.0
O333 O 0.71792 0.83559 0.66374 0.0
O334 O 0.63291 0.83305 0.58475 0.0
O335 O 0.67049 0.88669 0.60231 0.0
O336 O 0.66254 0.83051 0.64908 0.0
C337 C 0.6865 0.83673 0.66718 0.0
O338 O 0.77097 0.86068 0.61992 0.0
O339 O 0.73324 0.88749 0.62192 0.0
O340 O 0.71389 0.83008 0.57894 0.0
O341 O 0.75776 0.79299 0.66486 0.0
O342 O 0.75887 0.77246 0.62851 0.0
O343 O 0.70709 0.77754 0.59777 0.0
C344 C 0.60733 0.87269 0.59541 0.0
C345 C 0.57869 0.84808 0.6117 0.0
C346 C 0.57548 0.90976 0.59135 0.0
C347 C 0.54847 0.85416 0.61763 0.0
C348 C 0.60552 0.90359 0.58539 0.0
C349 C 0.54639 0.88507 0.60748 0.0
C350 C 0.63993 0.86756 0.58914 0.0
C351 C 0.76708 0.89093 0.62101 0.0
H352 H 0.82845 0.85182 0.66238 0.0
H353 H 0.88076 0.76951 0.63738 0.0
H354 H 0.89779 0.87881 0.66015 0.0
H355 H 0.81173 0.7426 0.63989 0.0
H356 H 0.57967 0.82418 0.61981 0.0
H357 H 0.5753 0.93421 0.58349 0.0
H358 H 0.52646 0.83429 0.62989 0.0
H359 H 0.62754 0.92316 0.573 0.0
Eu360 Eu 0.19885 0.36788 0.90689 0.0
Eu361 Eu 0.11376 0.32212 0.88107 0.0
C362 C 0.19038 0.36797 0.84871 0.0
C363 C 0.30403 0.43671 0.92336 0.0
C364 C 0.31155 0.45926 0.90227 0.0
C365 C 0.36956 0.47749 0.93652 0.0
C366 C 0.34796 0.49069 0.8983 0.0
C367 C 0.33321 0.4461 0.94044 0.0
C368 C 0.3775 0.50015 0.91535 0.0
C369 C 0.26653 0.40246 0.92734 0.0
O370 O 0.12682 0.27776 0.89594 0.0
O371 O 0.19098 0.31357 0.89083 0.0
C372 C 0.16006 0.28024 0.89272 0.0
O373 O 0.15552 0.33137 0.93615 0.0
O374 O 0.07716 0.28658 0.8513 0.0
O375 O 0.05235 0.2998 0.88201 0.0
O376 O 0.10627 0.33575 0.91964 0.0
C377 C 0.12215 0.32917 0.93839 0.0
O378 O 0.17875 0.41031 0.90494 0.0
O379 O 0.13109 0.38414 0.87577 0.0
O380 O 0.157 0.33698 0.8511 0.0
O381 O 0.23862 0.4077 0.93403 0.0
O382 O 0.25586 0.37578 0.91092 0.0
O383 O 0.20895 0.38905 0.86769 0.0
C384 C 1.01708 0.23839 0.86485 0.0
C385 C 1.01752 0.21714 0.88506 0.0
C386 C 0.96281 0.18145 0.84835 0.0
C387 C 0.99058 0.17836 0.887 0.0
C388 C 0.98966 0.22029 0.8465 0.0
C389 C 0.96283 0.15997 0.86867 0.0
C390 C 0.04578 0.27905 0.86245 0.0
C391 C 0.15524 0.41297 0.88949 0.0
H392 H 0.28935 0.45241 0.88884 0.0
H393 H 0.39164 0.48359 0.94989 0.0
H394 H 0.35289 0.50777 0.88197 0.0
H395 H 0.32801 0.42886 0.95674 0.0
H396 H 0.03868 0.23055 0.89936 0.0
H397 H 0.94232 0.16817 0.83369 0.0
H398 H 0.99124 0.16294 0.90304 0.0
H399 H 0.98915 0.23615 0.83064 0.0
Eu400 Eu 0.25961 0.94625 0.6406 0.0
Eu401 Eu 0.21969 0.85998 0.61544 0.0
C402 C 0.25606 0.93715 0.58422 0.0
C403 C 0.26979 0.04375 0.65312 0.0
C404 C 0.23601 0.03778 0.6644 0.0
C405 C 0.27894 0.1036 0.63646 0.0
C406 C 0.22395 0.06449 0.66179 0.0
C407 C 0.29111 0.07701 0.63918 0.0
C408 C 0.24525 0.09775 0.64778 0.0
C409 C 0.28315 1.01581 0.65569 0.0
O410 O 0.28223 0.87966 0.6183 0.0
O411 O 0.30709 0.93225 0.64385 0.0
C412 C 0.31009 0.90569 0.63173 0.0
O413 O 0.24519 0.90719 0.67277 0.0
O414 O 0.2233 0.81857 0.59161 0.0
O415 O 0.16928 0.80483 0.60763 0.0
O416 O 0.22732 0.84857 0.65515 0.0
C417 C 0.23566 0.87114 0.67431 0.0
O418 O 0.19909 0.92836 0.62902 0.0
O419 O 0.1737 0.86477 0.63495 0.0
O420 O 0.2252 0.90336 0.58616 0.0
O421 O 0.26258 0.98553 0.669 0.0
O422 O 0.29567 1.00785 0.63587 0.0
O423 O 0.27994 0.94999 0.60241 0.0
C424 C 0.18079 0.75374 0.60133 0.0
C425 C 0.19464 0.74676 0.62317 0.0
C426 C 0.15254 0.68668 0.59079 0.0
C427 C 0.18758 0.70996 0.62874 0.0
C428 C 0.15966 0.72342 0.58525 0.0
C429 C 0.16641 0.67936 0.6126 0.0
C430 C 0.18793 0.79224 0.59502 0.0
C431 C 0.16961 0.89469 0.63371 0.0
H432 H 0.21874 1.01243 0.67521 0.0
H433 H 0.29628 0.1291 0.6258 0.0
H434 H 0.19767 0.05888 0.67054 0.0
H435 H 0.31732 0.08249 0.63037 0.0
H436 H 0.21091 0.76976 0.6359 0.0
H437 H 0.13672 0.66413 0.57771 0.0
H438 H 0.19841 0.70542 0.64579 0.0
H439 H 0.14877 0.72819 0.56828 0.0
Eu440 Eu 0.67272 0.82949 0.90441 0.0
Eu441 Eu 0.72141 0.79403 0.87887 0.0
C442 C 0.66937 0.81369 0.84575 0.0
C443 C 0.60144 0.86398 0.91758 0.0
C444 C 0.57191 0.83822 0.90228 0.0
C445 C 0.56892 0.90027 0.92198 0.0
C446 C 0.54085 0.84329 0.89707 0.0
C447 C 0.5998 0.89511 0.92722 0.0
C448 C 0.53884 0.87429 0.90698 0.0
C449 C 0.63445 0.85943 0.92351 0.0
O450 O 0.75319 0.8576 0.8719 0.0
O451 O 0.73442 0.87505 0.90648 0.0
C452 C 0.75819 0.88357 0.88813 0.0
O453 O 0.68994 0.80199 0.93472 0.0
O454 O 0.75729 0.79268 0.84954 0.0
O455 O 0.74664 0.75766 0.88185 0.0
O456 O 0.74505 0.81437 0.91626 0.0
C457 C 0.72354 0.80441 0.93574 0.0
O458 O 0.62882 0.77169 0.89124 0.0
O459 O 0.66539 0.74312 0.89164 0.0
O460 O 0.68002 0.78854 0.84994 0.0
O461 O 0.62772 0.82513 0.92853 0.0
O462 O 0.66448 0.87823 0.90974 0.0
O463 O 0.67092 0.83711 0.86306 0.0
C464 C 0.80862 0.78804 0.86558 0.0
C465 C 0.82894 0.81986 0.88078 0.0
C466 C 0.86725 0.78761 0.85736 0.0
C467 C 0.8681 0.83535 0.88436 0.0
C468 C 0.828 0.77208 0.85383 0.0
C469 C 0.88777 0.81937 0.87274 0.0
C470 C 0.76733 0.77175 0.86215 0.0
C471 C 0.63178 0.74095 0.8918 0.0
H472 H 0.57274 0.81409 0.89451 0.0
H473 H 0.56872 0.9248 0.9296 0.0
H474 H 0.51808 0.82251 0.88565 0.0
H475 H 0.6225 0.91552 0.93886 0.0
H476 H 0.81445 0.83271 0.88992 0.0
H477 H 0.88139 0.77428 0.84839 0.0
H478 H 0.88303 0.86001 0.89609 0.0
H479 H 0.81277 0.7475 0.84206 0.0
C480 C 0.11605 0.18375 0.1331 0.0
C481 C 0.12282 0.21347 0.14921 0.0
C482 C 0.14285 0.17174 0.13009 0.0
C483 C 0.17753 0.19006 0.14333 0.0
C484 C 0.1844 0.21974 0.15982 0.0
C485 C 0.15696 0.23096 0.16263 0.0
C486 C 0.13435 0.1399 0.11239 0.0
C487 C 0.22104 0.24009 0.17423 0.0
C488 C 0.23777 0.14247 0.15015 0.0
C489 C 0.26549 0.16102 0.13193 0.0
C490 C 0.20862 0.15118 0.15385 0.0
C491 C 0.20735 0.17936 0.13915 0.0
C492 C 0.23507 0.19792 0.12061 0.0
C493 C 0.26363 0.18844 0.11717 0.0
C494 C 0.17937 0.13046 0.17363 0.0
C495 C 0.23493 0.2283 0.10463 0.0
H496 H 0.09008 0.17035 0.12237 0.0
H497 H 0.16226 0.25346 0.17544 0.0
H498 H 0.15521 0.15085 0.09712 0.0
H499 H 0.13733 0.1172 0.12171 0.0
H500 H 0.1052 0.12712 0.10457 0.0
H501 H 0.22168 0.26199 0.18672 0.0
H502 H 0.22498 0.21933 0.18527 0.0
H503 H 0.24559 0.25416 0.16148 0.0
H504 H 0.23886 0.12118 0.1616 0.0
H505 H 0.28494 0.20309 0.1031 0.0
H506 H 0.1503 0.11653 0.16567 0.0
H507 H 0.18088 0.15106 0.18755 0.0
H508 H 0.18356 0.10846 0.18296 0.0
H509 H 0.2073 0.21663 0.09489 0.0
H510 H 0.2582 0.23973 0.09083 0.0
H511 H 0.23812 0.25221 0.11618 0.0
C512 C 0.11511 0.91586 0.40218 0.0
C513 C 0.12951 0.93772 0.38081 0.0
C514 C 0.07602 0.89005 0.40488 0.0
C515 C 0.05072 0.88556 0.38559 0.0
C516 C 0.06487 0.9089 0.36445 0.0
C517 C 0.10413 0.9349 0.36237 0.0
C518 C 0.06211 0.86617 0.42788 0.0
C519 C 0.03892 0.9048 0.3434 0.0
C520 C 0.96617 0.78575 0.37982 0.0
C521 C 0.93648 0.78946 0.39007 0.0
C522 C 1.00305 0.81705 0.37769 0.0
C523 C 1.01078 0.85312 0.38625 0.0
C524 C 0.98086 0.85736 0.39625 0.0
C525 C 0.94392 0.82545 0.39794 0.0
C526 C 0.03393 0.81128 0.36658 0.0
C527 C 0.98805 0.89531 0.40572 0.0
H528 H 0.13462 0.9185 0.41666 0.0
H529 H 0.11519 0.95177 0.34583 0.0
H530 H 0.03687 0.86654 0.43537 0.0
H531 H 0.05318 0.83615 0.42348 0.0
H532 H 0.08445 0.87623 0.44228 0.0
H533 H 0.05331 0.92805 0.32971 0.0
H534 H 1.02943 0.87721 0.33407 0.0
H535 H 1.01305 0.90462 0.35016 0.0
H536 H 0.96065 0.75818 0.37338 0.0
H537 H 0.92113 0.82854 0.40586 0.0
H538 H 0.05618 0.8172 0.38049 0.0
H539 H 0.04786 0.8315 0.35119 0.0
H540 H 1.02277 0.78185 0.35965 0.0
H541 H 1.00692 0.90351 0.42201 0.0
H542 H 0.96126 0.89465 0.41098 0.0
H543 H 1.00294 0.91779 0.39167 0.0
C544 C 0.85846 0.08036 0.11754 0.0
C545 C 0.88665 0.10991 0.13171 0.0
C546 C 0.8495 0.04244 0.12084 0.0
C547 C 0.86939 0.03365 0.13862 0.0
C548 C 0.89839 0.06337 0.15271 0.0
C549 C 0.90654 0.10112 0.14918 0.0
C550 C 0.81822 1.01164 0.10554 0.0
C551 C 0.92055 0.05525 0.17164 0.0
C552 C 0.81905 0.93155 0.16227 0.0
C553 C 0.83546 0.91484 0.1479 0.0
C554 C 0.83039 0.97031 0.15981 0.0
C555 C 0.85912 0.99318 0.14269 0.0
C556 C 0.8765 0.9768 0.12857 0.0
C557 C 0.86437 0.93788 0.13124 0.0
C558 C 0.81104 0.9866 0.17519 0.0
C559 C 0.90732 1.0002 0.11018 0.0
H560 H 0.84278 0.08672 0.10406 0.0
H561 H 0.92846 0.12372 0.16015 0.0
H562 H 0.82943 0.9958 0.09524 0.0
H563 H 0.79512 0.99088 0.11764 0.0
H564 H 0.8058 0.02323 0.09227 0.0
H565 H 0.94322 0.08164 0.18038 0.0
H566 H 0.90098 0.03638 0.18613 0.0
H567 H 0.93388 0.03999 0.16308 0.0
H568 H 0.79722 0.9143 0.17551 0.0
H569 H 0.87696 0.9253 0.1198 0.0
H570 H 0.79597 0.99682 0.16311 0.0
H571 H 0.83254 1.01148 0.18573 0.0
H572 H 0.79011 0.96539 0.18823 0.0
H573 H 0.89543 1.00983 0.09531 0.0
H574 H 0.91982 0.98394 0.10187 0.0
H575 H 0.93044 0.02607 0.11906 0.0
C576 C 0.22377 0.12435 0.39653 0.0
C577 C 0.26026 0.15513 0.39159 0.0
C578 C 0.19125 0.12828 0.39434 0.0
C579 C 0.19545 0.16371 0.38692 0.0
C580 C 0.23213 0.19447 0.38139 0.0
C581 C 0.26393 0.18985 0.38387 0.0
C582 C 0.15262 0.09487 0.40047 0.0
C583 C 0.23799 0.23266 0.37317 0.0
C584 C 0.11712 0.17891 0.36107 0.0
C585 C 0.1111 0.19764 0.38062 0.0
C586 C 0.14266 0.16515 0.36334 0.0
C587 C 0.16222 0.16991 0.38576 0.0
C588 C 0.15403 0.18631 0.40606 0.0
C589 C 0.12878 0.20021 0.40318 0.0
C590 C 0.15069 0.148 0.34123 0.0
C591 C 0.17377 0.19144 0.43039 0.0
H592 H 0.22064 0.09738 0.40239 0.0
H593 H 0.29187 0.21376 0.37973 0.0
H594 H 0.14147 0.10131 0.41725 0.0
H595 H 0.1321 0.08979 0.38549 0.0
H596 H 0.15368 0.06836 0.40364 0.0
H597 H 0.26819 0.25314 0.36855 0.0
H598 H 0.22019 0.22907 0.35683 0.0
H599 H 0.22891 0.24522 0.38789 0.0
H600 H 0.10343 0.17684 0.34361 0.0
H601 H 0.12359 0.21405 0.41847 0.0
H602 H 0.15099 0.12168 0.34633 0.0
H603 H 0.1793 0.16847 0.33385 0.0
H604 H 0.12935 0.14117 0.32646 0.0
H605 H 0.17324 0.16483 0.43588 0.0
H606 H 0.16045 0.19966 0.44515 0.0
H607 H 0.20408 0.21405 0.4287 0.0
C608 C 0.11763 0.88469 0.1559 0.0
C609 C 0.132 0.9223 0.14774 0.0
C610 C 0.07893 0.85719 0.1531 0.0
C611 C 0.05385 0.86734 0.14171 0.0
C612 C 0.06802 0.90529 0.13366 0.0
C613 C 0.1068 0.93228 0.13684 0.0
C614 C 0.065 0.81707 0.16199 0.0
C615 C 0.04228 0.9173 0.12141 0.0
C616 C 0.96433 0.78719 0.11242 0.0
C617 C 0.93645 0.7799 0.13019 0.0
C618 C 1.00242 0.81591 0.11578 0.0
C619 C 1.01311 0.8379 0.13751 0.0
C620 C 0.98504 0.83112 0.15536 0.0
C621 C 0.94706 0.80231 0.15146 0.0
C622 C 0.03134 0.82239 0.09619 0.0
C623 C 0.99527 0.85384 0.1788 0.0
H624 H 0.13682 0.87645 0.16404 0.0
H625 H 0.11736 0.96136 0.13085 0.0
H626 H 0.04082 0.80824 0.17486 0.0
H627 H 0.05436 0.79711 0.14626 0.0
H628 H 0.08771 0.81413 0.17139 0.0
H629 H 0.0575 0.94807 0.11663 0.0
H630 H 1.03016 0.90058 0.10439 0.0
H631 H 1.01803 0.91126 0.13362 0.0
H632 H 0.95651 0.7702 0.09587 0.0
H633 H 0.92581 0.79695 0.16532 0.0
H634 H 0.05354 0.81691 0.10378 0.0
H635 H 0.04585 0.8525 0.09001 0.0
H636 H 1.01825 0.80371 0.08001 0.0
H637 H 1.01602 0.84925 0.18938 0.0
H638 H 0.96997 0.84586 0.19053 0.0
H639 H 1.00917 0.8847 0.17458 0.0
C640 C 0.85885 0.95104 0.35522 0.0
C641 C 0.85741 0.92755 0.37458 0.0
C642 C 0.87127 0.98976 0.35906 0.0
C643 C 0.88227 1.00535 0.38288 0.0
C644 C 0.88249 0.9822 0.40225 0.0
C645 C 0.87009 0.94362 0.39787 0.0
C646 C 0.87089 1.01354 0.33786 0.0
C647 C 0.89379 0.9976 0.42793 0.0
C648 C 0.92994 0.11327 0.39 0.0
C649 C 0.89846 0.11759 0.39529 0.0
C650 C 0.92543 0.07686 0.38631 0.0
C651 C 0.88864 0.04418 0.38809 0.0
C652 C 0.85709 0.04844 0.39422 0.0
C653 C 0.86238 0.08496 0.3977 0.0
C654 C 0.95976 0.07346 0.37982 0.0
C655 C 0.81743 1.01441 0.39656 0.0
H656 H 0.84969 0.93897 0.3371 0.0
H657 H 0.86879 0.92562 0.41299 0.0
H658 H 0.84822 0.02083 0.34078 0.0
H659 H 0.89841 0.04068 0.33674 0.0
H660 H 0.86558 0.99842 0.32007 0.0
H661 H 0.89685 0.97742 0.44022 0.0
H662 H 0.92107 0.02505 0.42772 0.0
H663 H 0.87179 1.00317 0.43572 0.0
H664 H 0.95789 0.13832 0.38804 0.0
H665 H 0.83789 0.0879 0.40202 0.0
H666 H 0.95692 0.06291 0.36076 0.0
H667 H 0.96154 0.05243 0.39197 0.0
H668 H 0.98676 0.10113 0.3813 0.0
H669 H 0.80826 0.99941 0.37873 0.0
H670 H 0.79619 0.02253 0.40234 0.0
H671 H 0.81726 0.99392 0.41013 0.0
C672 C 0.21914 0.13724 0.66557 0.0
C673 C 0.23265 0.12645 0.6452 0.0
C674 C 0.20827 0.16508 0.66356 0.0
C675 C 0.21074 0.18252 0.64058 0.0
C676 C 0.22374 0.17129 0.61986 0.0
C677 C 0.23463 0.14354 0.62243 0.0
C678 C 0.19487 0.17639 0.68615 0.0
C679 C 0.22651 0.18888 0.59499 0.0
C680 C 0.15498 0.23442 0.63092 0.0
C681 C 0.18341 0.27264 0.63402 0.0
C682 C 0.16341 0.2048 0.63296 0.0
C683 C 0.20111 0.21351 0.6384 0.0
C684 C 0.22983 0.25199 0.64172 0.0
C685 C 0.22068 0.28101 0.63943 0.0
C686 C 0.13199 0.1642 0.62918 0.0
C687 C 0.27032 0.26256 0.64771 0.0
H688 H 0.21789 0.12452 0.68328 0.0
H689 H 0.24452 0.13501 0.60652 0.0
H690 H 0.21455 0.20692 0.69023 0.0
H691 H 0.16627 0.17288 0.68292 0.0
H692 H 0.19338 0.15928 0.70247 0.0
H693 H 0.23582 0.17606 0.58053 0.0
H694 H 0.19849 0.18533 0.5897 0.0
H695 H 0.2471 0.21991 0.59571 0.0
H696 H 0.1261 0.22758 0.62673 0.0
H697 H 0.24287 0.31037 0.64197 0.0
H698 H 0.12882 0.14702 0.64578 0.0
H699 H 0.13941 0.15131 0.61378 0.0
H700 H 0.10415 0.16213 0.62515 0.0
H701 H 0.27094 0.24809 0.66484 0.0
H702 H 0.28923 0.29375 0.65004 0.0
H703 H 0.28203 0.25274 0.63289 0.0
C704 C 0.11505 0.90828 0.89389 0.0
C705 C 0.11985 0.8768 0.89809 0.0
C706 C 0.07846 0.90347 0.89032 0.0
C707 C 0.04605 0.86638 0.89109 0.0
C708 C 0.05079 0.83476 0.89606 0.0
C709 C 0.08748 0.84035 0.89946 0.0
C710 C 0.07454 0.93789 0.88511 0.0
C711 C 1.01711 0.79473 0.8972 0.0
C712 C 0.9446 0.84561 0.90075 0.0
C713 C 0.92932 0.83515 0.87707 0.0
C714 C 0.98316 0.85794 0.90539 0.0
C715 C 1.00708 0.85981 0.88591 0.0
C716 C 0.99223 0.85086 0.8618 0.0
C717 C 0.95357 0.83862 0.85768 0.0
C718 C 0.99779 0.86711 0.93137 0.0
C719 C 1.01676 0.85258 0.84048 0.0
H720 H 0.13989 0.93652 0.89275 0.0
H721 H 0.09076 0.81582 0.90291 0.0
H722 H 0.06316 0.93586 0.86634 0.0
H723 H 0.05393 0.93887 0.89801 0.0
H724 H 0.10218 0.96494 0.88661 0.0
H725 H 1.02555 0.77339 0.9021 0.0
H726 H 0.99615 0.79308 0.91091 0.0
H727 H 1.0025 0.78688 0.87917 0.0
H728 H 0.92606 0.84276 0.91589 0.0
H729 H 0.9422 0.83131 0.83926 0.0
H730 H 1.02498 0.89462 0.93203 0.0
H731 H 1.00366 0.8448 0.93826 0.0
H732 H 0.97702 0.86865 0.9439 0.0
H733 H 0.04365 0.88039 0.84014 0.0
H734 H 1.00204 0.84841 0.82261 0.0
H735 H 1.02452 0.8301 0.84261 0.0
C736 C 0.79568 0.96162 0.62172 0.0
C737 C 0.80088 0.9299 0.62252 0.0
C738 C 0.82629 0.99873 0.6248 0.0
C739 C 0.86336 1.00466 0.62874 0.0
C740 C 0.86915 0.97295 0.62898 0.0
C741 C 0.83782 0.93589 0.62588 0.0
C742 C 0.81868 0.0316 0.6244 0.0
C743 C 0.90828 0.97811 0.633 0.0
C744 C 0.9422 0.10704 0.6181 0.0
C745 C 0.94855 0.12212 0.64191 0.0
C746 C 0.91601 0.06837 0.61365 0.0
C747 C 0.89541 0.04411 0.63345 0.0
C748 C 0.90269 0.05881 0.6576 0.0
C749 C 0.92916 0.0975 0.66153 0.0
C750 C 0.90919 0.05389 0.58763 0.0
C751 C 0.88137 0.03401 0.67925 0.0
H752 H 0.76739 0.95751 0.619 0.0
H753 H 0.84217 0.91164 0.62657 0.0
H754 H 0.8263 0.04629 0.64239 0.0
H755 H 0.8367 0.05274 0.61033 0.0
H756 H 0.78837 0.02227 0.62047 0.0
H757 H 0.90832 0.9508 0.63171 0.0
H758 H 0.92852 0.99831 0.61928 0.0
H759 H 0.919 0.99061 0.65136 0.0
H760 H 0.95674 0.12575 0.60276 0.0
H761 H 0.93441 0.10858 0.68005 0.0
H762 H 0.88032 0.04721 0.58169 0.0
H763 H 0.91031 0.02718 0.58643 0.0
H764 H 0.93038 0.07505 0.57467 0.0
H765 H 0.85076 0.02529 0.67785 0.0
H766 H 0.89246 0.04887 0.697 0.0
H767 H 0.88323 1.00765 0.67924 0.0
C768 C 0.19773 0.24916 0.88187 0.0
C769 C 0.16344 0.24562 0.89036 0.0
C770 C 0.20257 0.21744 0.87984 0.0
C771 C 0.1725 0.18104 0.88668 0.0
C772 C 0.1375 0.17699 0.89492 0.0
C773 C 0.13329 0.20937 0.89656 0.0
C774 C 0.24024 0.22309 0.87071 0.0
C775 C 0.10489 0.13868 0.90252 0.0
C776 C 0.18505 0.10017 0.86258 0.0
C777 C 0.2048 0.09518 0.88199 0.0
C778 C 0.17223 0.12652 0.86432 0.0
C779 C 0.17896 0.14796 0.88609 0.0
C780 C 0.19672 0.14114 0.90628 0.0
C781 C 0.20964 0.11504 0.90393 0.0
C782 C 0.15368 0.13312 0.84231 0.0
C783 C 0.20401 0.16295 0.92995 0.0
H784 H 0.22109 0.27693 0.87675 0.0
H785 H 0.10669 0.20638 0.9031 0.0
H786 H 0.25415 0.21531 0.88534 0.0
H787 H 0.23558 0.20416 0.85486 0.0
H788 H 0.26007 0.25296 0.86503 0.0
H789 H 0.07872 0.13983 0.90687 0.0
H790 H 0.09824 0.1175 0.88776 0.0
H791 H 0.11318 0.12833 0.91894 0.0
H792 H 0.18129 0.08486 0.84559 0.0
H793 H 0.22432 0.11072 0.91912 0.0
H794 H 0.17356 0.1613 0.83413 0.0
H795 H 0.12758 0.13357 0.8478 0.0
H796 H 0.14606 0.11095 0.82805 0.0
H797 H 0.22631 0.19308 0.92696 0.0
H798 H 0.21366 0.15099 0.94482 0.0
H799 H 0.17785 0.16279 0.93608 0.0
C800 C 0.12242 0.91766 0.62987 0.0
C801 C 0.13092 0.88951 0.63707 0.0
C802 C 0.08508 0.91149 0.63184 0.0
C803 C 0.05573 0.87657 0.64151 0.0
C804 C 0.06453 0.84865 0.64952 0.0
C805 C 0.10183 0.85537 0.64708 0.0
C806 C 0.0768 0.94185 0.62293 0.0
C807 C 0.03432 0.81123 0.66025 0.0
C808 C 0.96145 0.8639 0.66485 0.0
C809 C 0.93654 0.8426 0.64588 0.0
C810 C 1.00066 0.87647 0.66335 0.0
C811 C 1.01534 0.86798 0.64222 0.0
C812 C 0.9905 0.84804 0.62255 0.0
C813 C 0.95144 0.8354 0.62469 0.0
C814 C 1.02604 0.89727 0.68483 0.0
C815 C 1.00495 0.83882 0.59956 0.0
H816 H 0.14471 0.94413 0.62213 0.0
H817 H 0.10813 0.83357 0.65297 0.0
H818 H 0.05715 0.93097 0.60702 0.0
H819 H 0.06233 0.94899 0.63747 0.0
H820 H 0.10307 0.96829 0.6173 0.0
H821 H 0.04625 0.79346 0.66693 0.0
H822 H 1.01977 0.81638 0.67573 0.0
H823 H 1.01238 0.79485 0.64618 0.0
H824 H 0.95003 0.86941 0.68129 0.0
H825 H 0.93236 0.81945 0.60982 0.0
H826 H 0.05162 0.92377 0.67858 0.0
H827 H 0.0361 0.87913 0.69351 0.0
H828 H 1.01107 0.90469 0.69891 0.0
H829 H 1.02988 0.86488 0.59216 0.0
H830 H 0.98275 0.82631 0.58509 0.0
H831 H 1.01455 0.81823 0.60392 0.0
C832 C 0.94397 0.09262 0.88017 0.0
C833 C 0.93388 0.11867 0.87084 0.0
C834 C 0.91674 0.05383 0.88286 0.0
C835 C 0.87849 0.04059 0.87587 0.0
C836 C 0.86821 0.06657 0.86611 0.0
C837 C 0.89593 0.10524 0.86382 0.0
C838 C 0.92882 0.02707 0.89341 0.0
C839 C 0.82777 0.05361 0.85837 0.0
C840 C 0.81195 0.93494 0.86378 0.0
C841 C 0.79024 0.92322 0.88538 0.0
C842 C 0.84105 0.97294 0.86052 0.0
C843 C 0.8489 0.9998 0.8794 0.0
C844 C 0.82768 0.98793 0.90145 0.0
C845 C 0.79855 0.94989 0.90413 0.0
C846 C 0.86286 0.98452 0.83668 0.0
C847 C 0.8354 1.01557 0.92212 0.0
H848 H 0.97329 0.10251 0.88528 0.0
H849 H 0.88765 0.12512 0.85693 0.0
H850 H 0.91267 1.01389 0.91048 0.0
H851 H 0.9221 1.00363 0.88033 0.0
H852 H 0.95977 0.04173 0.89764 0.0
H853 H 0.82472 0.07706 0.85021 0.0
H854 H 0.81809 0.03028 0.84477 0.0
H855 H 0.80851 0.04211 0.87443 0.0
H856 H 0.80573 0.9146 0.84917 0.0
H857 H 0.78212 0.94111 0.92094 0.0
H858 H 0.89386 0.99779 0.84026 0.0
H859 H 0.85825 1.00617 0.82729 0.0
H860 H 0.8541 0.96001 0.82411 0.0
H861 H 0.86578 0.02937 0.92764 0.0
H862 H 0.81739 1.00152 0.93845 0.0
H863 H 0.82993 0.03844 0.91588 0.0
C864 C 0.35239 0.16806 0.30549 0.0
C865 C 0.38126 0.18809 0.32277 0.0
C866 C 0.35901 0.17532 0.28038 0.0
C867 C 0.39547 0.2036 0.27214 0.0
C868 C 0.42402 0.2259 0.28951 0.0
C869 C 0.41663 0.21779 0.31471 0.0
C870 C 0.32756 0.15087 0.2626 0.0
C871 C 0.46298 0.25683 0.28152 0.0
C872 C 0.4133 0.17341 0.21076 0.0
C873 C 0.39968 0.19093 0.19472 0.0
C874 C 0.41575 0.18035 0.236 0.0
C875 C 0.4043 0.20551 0.2455 0.0
C876 C 0.39441 0.22637 0.22914 0.0
C877 C 0.39216 0.2188 0.20382 0.0
C878 C 0.42688 0.15772 0.25265 0.0
C879 C 0.38297 0.25416 0.23848 0.0
H880 H 0.32469 0.14555 0.31151 0.0
H881 H 0.43901 0.23367 0.32793 0.0
H882 H 0.32311 0.16898 0.2493 0.0
H883 H 0.33575 0.13273 0.25204 0.0
H884 H 0.30009 0.13205 0.27201 0.0
H885 H 0.47853 0.27695 0.29668 0.0
H886 H 0.47999 0.24378 0.27552 0.0
H887 H 0.46092 0.27305 0.26576 0.0
H888 H 0.41995 0.15242 0.20374 0.0
H889 H 0.38188 0.23266 0.19148 0.0
H890 H 0.40121 0.13566 0.26238 0.0
H891 H 0.4475 0.1764 0.26671 0.0
H892 H 0.4397 0.14331 0.24235 0.0
H893 H 0.35315 0.23824 0.24519 0.0
H894 H 0.38466 0.27404 0.22384 0.0
H895 H 0.40127 0.27093 0.25405 0.0
C896 C 0.85862 0.69614 0.30332 0.0
C897 C 0.84765 0.66732 0.32099 0.0
C898 C 0.85878 0.6886 0.27834 0.0
C899 C 0.84803 0.65126 0.27064 0.0
C900 C 0.83981 0.62262 0.28843 0.0
C901 C 0.83956 0.63095 0.31349 0.0
C902 C 0.86792 0.72018 0.26012 0.0
C903 C 0.82914 0.58271 0.28102 0.0
C904 C 0.79969 0.63463 0.20933 0.0
C905 C 0.83046 0.64609 0.1932 0.0
C906 C 0.80418 0.63248 0.23463 0.0
C907 C 0.84036 0.6419 0.24409 0.0
C908 C 0.87047 0.64949 0.22769 0.0
C909 C 0.8652 0.65161 0.20233 0.0
C910 C 0.77111 0.62389 0.25132 0.0
C911 C 0.90914 0.65857 0.23701 0.0
H912 H 0.86573 0.72457 0.30892 0.0
H913 H 0.83141 0.60858 0.32702 0.0
H914 H 0.88987 0.72271 0.24694 0.0
H915 H 0.84197 0.71345 0.24946 0.0
H916 H 0.8784 0.7482 0.26915 0.0
H917 H 0.83287 0.56689 0.29641 0.0
H918 H 0.79879 0.56701 0.27538 0.0
H919 H 0.84646 0.583 0.2652 0.0
H920 H 0.77247 0.62946 0.20234 0.0
H921 H 0.88902 0.66011 0.18995 0.0
H922 H 0.77672 0.65037 0.26082 0.0
H923 H 0.76775 0.60291 0.26556 0.0
H924 H 0.74386 0.61257 0.2411 0.0
H925 H 0.92493 0.68858 0.2433 0.0
H926 H 0.92622 0.65496 0.22246 0.0
H927 H 0.90645 0.64018 0.25285 0.0
C928 C 0.87595 0.24703 0.21081 0.0
C929 C 0.85812 0.21526 0.19534 0.0
C930 C 0.87026 0.24337 0.2362 0.0
C931 C 0.84605 0.20697 0.24647 0.0
C932 C 0.82495 0.17546 0.23074 0.0
C933 C 0.83126 0.17996 0.20525 0.0
C934 C 0.89314 0.27789 0.25215 0.0
C935 C 0.79819 0.13637 0.24092 0.0
C936 C 0.88572 0.19557 0.30655 0.0
C937 C 0.86556 0.20422 0.32382 0.0
C938 C 0.87791 0.19412 0.28146 0.0
C939 C 0.84895 0.20125 0.27323 0.0
C940 C 0.82669 0.20748 0.29062 0.0
C941 C 0.83534 0.20903 0.31577 0.0
C942 C 0.90239 0.18724 0.26367 0.0
C943 C 0.79509 0.21449 0.28264 0.0
H944 H 0.8962 0.27458 0.20319 0.0
H945 H 0.8172 0.15532 0.19338 0.0
H946 H 0.87482 0.27998 0.26641 0.0
H947 H 0.91586 0.27515 0.26166 0.0
H948 H 0.90675 0.30475 0.24135 0.0
H949 H 0.77806 0.11725 0.22673 0.0
H950 H 0.81495 0.12346 0.24775 0.0
H951 H 0.78165 0.13805 0.25657 0.0
H952 H 0.9087 0.19111 0.31253 0.0
H953 H 0.81937 0.2154 0.32898 0.0
H954 H 0.91988 0.21337 0.25267 0.0
H955 H 0.88428 0.16409 0.25076 0.0
H956 H 0.92185 0.17948 0.2731 0.0
H957 H 0.80757 0.24409 0.27573 0.0
H958 H 0.77555 0.21067 0.29802 0.0
H959 H 0.77834 0.19507 0.26749 0.0
C960 C 0.18341 0.41103 0.71374 0.0
C961 C 0.2065 0.40575 0.69702 0.0
C962 C 0.19104 0.41385 0.73891 0.0
C963 C 0.22237 0.41086 0.74758 0.0
C964 C 0.24823 0.40987 0.73052 0.0
C965 C 0.23995 0.40728 0.70526 0.0
C966 C 0.16294 0.41553 0.75627 0.0
C967 C 0.28249 0.40767 0.73896 0.0
C968 C 0.23 0.41751 0.81712 0.0
C969 C 0.20569 0.37926 0.82354 0.0
C970 C 0.23859 0.42837 0.79234 0.0
C971 C 0.22243 0.40028 0.77377 0.0
C972 C 0.20058 0.36138 0.78045 0.0
C973 C 0.19251 0.35143 0.80518 0.0
C974 C 0.26268 0.47004 0.78606 0.0
C975 C 0.18304 0.33028 0.76139 0.0
H976 H 0.15769 0.41018 0.70726 0.0
H977 H 0.2578 0.40315 0.69229 0.0
H978 H 0.14546 0.3873 0.76511 0.0
H979 H 0.17802 0.43664 0.77098 0.0
H980 H 0.14346 0.42314 0.7467 0.0
H981 H 0.30429 0.41669 0.72426 0.0
H982 H 0.2956 0.42567 0.75537 0.0
H983 H 0.27347 0.37784 0.74404 0.0
H984 H 0.24049 0.43915 0.83126 0.0
H985 H 0.17437 0.32172 0.81006 0.0
H986 H 0.24382 0.48161 0.78133 0.0
H987 H 0.28113 0.47431 0.76998 0.0
H988 H 0.28084 0.48663 0.80177 0.0
H989 H 0.16065 0.33271 0.7512 0.0
H990 H 0.1699 0.30137 0.76965 0.0
H991 H 0.20484 0.33325 0.74793 0.0
C992 C 0.19384 0.85959 0.8102 0.0
C993 C 0.21014 0.84558 0.8269 0.0
C994 C 0.19511 0.85435 0.78494 0.0
C995 C 0.21348 0.83487 0.77607 0.0
C996 C 0.22733 0.81801 0.79292 0.0
C997 C 0.2254 0.82349 0.81824 0.0
C998 C 0.17943 0.87238 0.76772 0.0
C999 C 0.24672 0.7967 0.78423 0.0
C1000 C 0.20305 0.82173 0.70702 0.0
C1001 C 0.23409 0.85631 0.69924 0.0
C1002 C 0.19733 0.81239 0.73214 0.0
C1003 C 0.22345 0.83817 0.74956 0.0
C1004 C 0.25673 0.87122 0.74137 0.0
C1005 C 0.26145 0.87998 0.71635 0.0
C1006 C 0.16177 0.77666 0.74008 0.0
C1007 C 0.28573 0.89925 0.75917 0.0
H1008 H 0.18137 0.87609 0.81683 0.0
H1009 H 0.23793 0.81247 0.8311 0.0
H1010 H 0.20335 0.89704 0.75831 0.0
H1011 H 0.16144 0.85181 0.75342 0.0
H1012 H 0.16219 0.88257 0.77748 0.0
H1013 H 0.24825 0.77857 0.79897 0.0
H1014 H 0.23166 0.77855 0.76821 0.0
H1015 H 0.2762 0.81742 0.77837 0.0
H1016 H 0.18187 0.80341 0.69376 0.0
H1017 H 0.28575 0.9065 0.71025 0.0
H1018 H 0.14031 0.78412 0.74635 0.0
H1019 H 0.16779 0.76282 0.75565 0.0
H1020 H 0.14917 0.75593 0.72481 0.0
H1021 H 0.27334 0.91438 0.76906 0.0
H1022 H 0.31215 0.92079 0.74979 0.0
H1023 H 0.29344 0.88423 0.77303 0.0
C1024 C 0.64011 0.82816 0.70067 0.0
C1025 C 0.6777 0.84243 0.69264 0.0
C1026 C 0.63183 0.82687 0.72586 0.0
C1027 C 0.66183 0.8399 0.74321 0.0
C1028 C 0.7 0.85742 0.73491 0.0
C1029 C 0.70741 0.85856 0.7098 0.0
C1030 C 0.59085 0.80905 0.7339 0.0
C1031 C 0.73302 0.87197 0.75263 0.0
C1032 C 0.65852 0.85008 0.81222 0.0
C1033 C 0.65905 0.81743 0.82019 0.0
C1034 C 0.65577 0.85641 0.78708 0.0
C1035 C 0.65396 0.82968 0.76966 0.0
C1036 C 0.65115 0.79524 0.77786 0.0
C1037 C 0.65352 0.78949 0.80295 0.0
C1038 C 0.65756 0.8929 0.77915 0.0
C1039 C 0.64904 0.76577 0.76004 0.0
H1040 H 0.61701 0.81593 0.68749 0.0
H1041 H 0.73663 0.87044 0.70369 0.0
H1042 H 0.58024 0.779 0.73928 0.0
H1043 H 0.58806 0.82407 0.75004 0.0
H1044 H 0.57241 0.8093 0.71891 0.0
H1045 H 0.76101 0.88797 0.74323 0.0
H1046 H 0.73106 0.89087 0.76648 0.0
H1047 H 0.73205 0.84759 0.76256 0.0
H1048 H 0.6623 0.87164 0.8254 0.0
H1049 H 0.65301 0.76374 0.80893 0.0
H1050 H 0.63857 0.88798 0.76324 0.0
H1051 H 0.68707 0.91374 0.77342 0.0
H1052 H 0.64946 0.90572 0.79428 0.0
H1053 H 0.62632 0.75874 0.74629 0.0
H1054 H 0.64337 0.73907 0.76936 0.0
H1055 H 0.67644 0.77743 0.74999 0.0
C1056 C 0.29519 0.9555 0.9761 0.0
C1057 C 0.25797 0.93806 0.96687 0.0
C1058 C 0.30705 0.98279 0.99483 0.0
C1059 C 0.28148 0.99405 1.00392 0.0
C1060 C 0.24368 0.97629 0.99472 0.0
C1061 C 0.2322 0.94806 0.97652 0.0
C1062 C 0.3471 0.99987 1.00469 0.0
C1063 C 0.2158 0.98805 1.0035 0.0
C1064 C 0.29999 0.03974 0.06686 0.0
C1065 C 0.31927 0.07881 0.06128 0.0
C1066 C 0.28777 1.01208 0.04843 0.0
C1067 C 0.29405 0.02353 0.02359 0.0
C1068 C 0.3132 0.06298 0.01773 0.0
C1069 C 0.32619 0.09026 0.03671 0.0
C1070 C 0.26868 0.97055 0.05565 0.0
C1071 C 0.31962 0.07631 0.99142 0.0
H1072 H 0.31524 0.94807 0.96838 0.0
H1073 H 0.20373 0.93532 0.96889 0.0
H1074 H 0.3632 0.03088 1.00084 0.0
H1075 H 0.34641 0.99627 0.02488 0.0
H1076 H 0.3628 0.98667 0.99651 0.0
H1077 H 0.18769 0.97193 0.99428 0.0
H1078 H 0.21148 0.98356 0.02356 0.0
H1079 H 0.22752 1.0189 1.00001 0.0
H1080 H 0.29504 0.03064 0.08585 0.0
H1081 H 0.34094 0.12038 0.03233 0.0
H1082 H 0.28512 0.95764 0.04829 0.0
H1083 H 0.23971 0.95478 0.0476 0.0
H1084 H 0.26623 0.96644 0.07584 0.0
H1085 H 0.33807 0.06722 0.98214 0.0
H1086 H 0.33319 0.10775 0.98989 0.0
H1087 H 0.29206 0.06299 0.98146 0.0
C1088 C 0.82536 0.74515 0.47498 0.0
C1089 C 0.79749 0.71741 0.45972 0.0
C1090 C 0.81517 0.76204 0.49391 0.0
C1091 C 0.77623 0.75055 0.49778 0.0
C1092 C 0.7481 0.72199 0.48267 0.0
C1093 C 0.75907 0.70598 0.46387 0.0
C1094 C 0.846 0.79244 0.50959 0.0
C1095 C 0.70624 0.70816 0.48639 0.0
C1096 C 0.73982 0.75798 0.56028 0.0
C1097 C 0.73297 0.78853 0.55734 0.0
C1098 C 0.75529 0.74656 0.54143 0.0
C1099 C 0.76416 0.76586 0.51871 0.0
C1100 C 0.75815 0.79726 0.51559 0.0
C1101 C 0.74271 0.80834 0.535 0.0
C1102 C 0.76107 0.71296 0.5457 0.0
C1103 C 0.76728 0.81856 0.49159 0.0
H1104 H 0.85512 0.75459 0.47158 0.0
H1105 H 0.73735 0.68454 0.45214 0.0
H1106 H 0.84452 0.81899 0.50853 0.0
H1107 H 0.84158 0.78327 0.52906 0.0
H1108 H 0.87494 0.79888 0.50392 0.0
H1109 H 0.68801 0.68644 0.47266 0.0
H1110 H 0.69734 0.69555 0.50495 0.0
H1111 H 0.70097 0.73244 0.48519 0.0
H1112 H 0.73294 0.74253 0.57748 0.0
H1113 H 0.7379 0.83212 0.53258 0.0
H1114 H 0.79073 0.72068 0.54113 0.0
H1115 H 0.74191 0.68914 0.53348 0.0
H1116 H 0.75517 0.70265 0.56495 0.0
H1117 H 0.79696 0.82775 0.48602 0.0
H1118 H 0.76378 0.84399 0.49261 0.0
H1119 H 0.74822 0.79943 0.47704 0.0
C1120 C 0.09032 0.28123 0.97183 0.0
C1121 C 0.09976 0.31637 0.96129 0.0
C1122 C 0.06312 0.2656 0.99079 0.0
C1123 C 0.04583 0.28614 0.99982 0.0
C1124 C 0.05647 0.32232 0.98971 0.0
C1125 C 0.08271 0.3366 0.97028 0.0
C1126 C 0.05198 0.22659 1.00064 0.0
C1127 C 0.03993 0.34587 0.99928 0.0
C1128 C 0.95182 0.23682 0.03548 0.0
C1129 C 0.96488 0.24307 0.05973 0.0
C1130 C 0.97782 0.2498 0.01571 0.0
C1131 C 1.01765 0.27057 0.02038 0.0
C1132 C 0.03074 0.27752 0.04488 0.0
C1133 C 1.00432 0.26328 0.06414 0.0
C1134 C 0.96274 0.24102 0.98984 0.0
C1135 C 0.07272 0.30057 0.05083 0.0
H1136 H 0.10275 0.26513 0.96442 0.0
H1137 H 0.0897 0.36358 0.96187 0.0
H1138 H 0.05799 0.22821 0.02057 0.0
H1139 H 1.02088 0.20724 0.99825 0.0
H1140 H 0.06737 0.21395 0.99133 0.0
H1141 H 0.05247 0.37413 0.99018 0.0
H1142 H 1.00867 0.33056 0.99636 0.0
H1143 H 0.04493 0.35029 0.01931 0.0
H1144 H 0.92143 0.22111 0.03199 0.0
H1145 H 1.01468 0.2687 0.08286 0.0
H1146 H 0.97545 0.22616 0.97998 0.0
H1147 H 0.97112 0.26786 0.97979 0.0
H1148 H 0.93122 0.22296 0.98927 0.0
H1149 H 0.08795 0.28672 0.04299 0.0
H1150 H 0.07817 0.30396 0.07088 0.0
H1151 H 0.08513 0.32927 0.0424 0.0
C1152 C 0.34779 0.07091 0.46956 0.0
C1153 C 0.33477 0.09613 0.46363 0.0
C1154 C 0.33133 0.04432 0.48862 0.0
C1155 C 0.30059 0.04235 0.5021 0.0
C1156 C 0.28734 0.06789 0.49634 0.0
C1157 C 0.30479 0.09472 0.47725 0.0
C1158 C 0.34711 1.01843 0.49442 0.0
C1159 C 0.2545 0.06656 0.51017 0.0
C1160 C 0.24556 0.9514 0.54039 0.0
C1161 C 0.26406 0.96345 0.56306 0.0
C1162 C 0.2558 0.97717 0.52051 0.0
C1163 C 0.28498 1.01575 0.5235 0.0
C1164 C 0.30237 0.02821 0.54666 0.0
C1165 C 0.29178 1.00209 0.56598 0.0
C1166 C 0.23636 0.96288 0.49611 0.0
C1167 C 0.33356 0.06888 0.55085 0.0
H1168 H 0.3709 0.07177 0.45906 0.0
H1169 H 0.2941 0.1136 0.47243 0.0
H1170 H 0.35823 0.02351 0.51345 0.0
H1171 H 0.32417 0.98822 0.49326 0.0
H1172 H 0.37048 0.0229 0.48179 0.0
H1173 H 0.24675 0.08744 0.50301 0.0
H1174 H 0.22919 0.03758 0.50898 0.0
H1175 H 0.26187 0.07255 0.52986 0.0
H1176 H 0.22392 0.9218 0.538 0.0
H1177 H 0.30591 1.0122 0.58348 0.0
H1178 H 0.25695 0.963 0.48269 0.0
H1179 H 0.22648 0.98204 0.48886 0.0
H1180 H 0.21161 0.9335 0.49738 0.0
H1181 H 0.3591 0.07482 0.54 0.0
H1182 H 0.34194 0.07478 0.57044 0.0
H1183 H 0.32432 0.089 0.54455 0.0
C1184 C 0.80918 0.7633 0.05704 0.0
C1185 C 0.80518 0.7268 0.05698 0.0
C1186 C 0.79494 0.77572 0.03787 0.0
C1187 C 0.77621 0.75122 0.0179 0.0
C1188 C 0.77244 0.7145 0.01747 0.0
C1189 C 0.78697 0.70271 0.03701 0.0
C1190 C 0.79991 0.81517 0.03907 0.0
C1191 C 0.75286 0.68761 0.99642 0.0
C1192 C 0.71267 0.77375 0.97758 0.0
C1193 C 0.73695 0.79281 0.95781 0.0
C1194 C 0.72487 0.75974 0.99721 0.0
C1195 C 0.76219 0.76491 0.99704 0.0
C1196 C 0.78688 0.78455 0.97728 0.0
C1197 C 0.77405 0.79826 0.95805 0.0
C1198 C 0.69777 0.73913 0.01803 0.0
C1199 C 0.82694 0.791 0.97634 0.0
H1200 H 0.82317 0.7823 0.07232 0.0
H1201 H 0.78344 0.67441 0.03685 0.0
H1202 H 0.81688 0.83232 0.02315 0.0
H1203 H 0.77174 0.81339 0.03803 0.0
H1204 H 0.81441 0.83044 0.05614 0.0
H1205 H 0.7518 0.65991 0.9989 0.0
H1206 H 0.72332 0.68222 0.99448 0.0
H1207 H 0.76797 0.70074 0.97903 0.0
H1208 H 0.68392 0.76911 0.9775 0.0
H1209 H 0.79322 0.81296 0.94293 0.0
H1210 H 0.71025 0.75402 0.03556 0.0
H1211 H 0.69325 0.7099 0.01978 0.0
H1212 H 0.66969 0.73721 0.01542 0.0
H1213 H 0.8434 0.80798 0.99242 0.0
H1214 H 0.84232 0.80614 0.95941 0.0
H1215 H 0.82622 0.76333 0.97726 0.0
C1216 C 0.05507 0.29455 0.56568 0.0
C1217 C 0.0947 0.31577 0.56181 0.0
C1218 C 1.02926 0.27958 0.54619 0.0
C1219 C 0.04308 0.28525 0.5219 0.0
C1220 C 0.08309 0.3046 0.51777 0.0
C1221 C 0.10854 0.31977 0.53782 0.0
C1222 C 0.98704 0.25945 0.55165 0.0
C1223 C 0.09894 0.31046 0.49214 0.0
C1224 C 0.9687 0.22577 0.47339 0.0
C1225 C 0.95933 0.25222 0.46399 0.0
C1226 C 0.99689 0.23637 0.49165 0.0
C1227 C 1.01536 0.27399 0.50112 0.0
C1228 C 1.00513 0.30039 0.49201 0.0
C1229 C 0.97778 0.28936 0.47332 0.0
C1230 C 1.00752 0.20762 0.50044 0.0
C1231 C 1.02301 0.34037 0.50204 0.0
H1232 H 0.04383 0.2903 0.58416 0.0
H1233 H 0.13901 0.33577 0.53463 0.0
H1234 H 0.97465 0.27632 0.54416 0.0
H1235 H 0.97228 0.23118 0.54265 0.0
H1236 H 0.98094 0.25534 0.57162 0.0
H1237 H 0.13016 0.32156 0.49209 0.0
H1238 H 0.08463 0.2833 0.48179 0.0
H1239 H 0.09327 0.33105 0.48227 0.0
H1240 H 0.9553 0.19738 0.46564 0.0
H1241 H 0.97095 0.30998 0.46578 0.0
H1242 H 1.00215 0.20267 0.5204 0.0
H1243 H 0.03842 0.21886 0.4975 0.0
H1244 H 0.9913 0.17991 0.49081 0.0
H1245 H 1.01746 0.33937 0.52202 0.0
H1246 H 1.01186 0.35739 0.49301 0.0
H1247 H 0.05435 0.35525 0.49951 0.0
C1248 C 0.62166 0.15269 0.08794 0.0
C1249 C 0.64233 0.15003 0.10777 0.0
C1250 C 0.58528 0.14829 0.09122 0.0
C1251 C 0.56894 0.14112 0.11494 0.0
C1252 C 0.58935 0.13785 0.13501 0.0
C1253 C 0.62574 0.14238 0.1312 0.0
C1254 C 0.56472 0.15229 0.06933 0.0
C1255 C 0.57299 0.1302 0.16059 0.0
C1256 C 0.49645 0.17291 0.12591 0.0
C1257 C 0.46154 0.13878 0.12348 0.0
C1258 C 0.53137 0.17379 0.12372 0.0
C1259 C 0.53174 0.13972 0.11891 0.0
C1260 C 0.49668 0.10497 0.11696 0.0
C1261 C 0.46198 0.10487 0.11932 0.0
C1262 C 0.56795 0.21148 0.12607 0.0
C1263 C 0.49584 0.06803 0.11182 0.0
H1264 H 0.63432 0.15909 0.06982 0.0
H1265 H 0.64115 0.13971 0.14659 0.0
H1266 H 0.53584 0.12693 0.06778 0.0
H1267 H 0.5611 0.17744 0.07176 0.0
H1268 H 0.5803 0.15572 0.05191 0.0
H1269 H 0.5915 0.12648 0.17401 0.0
H1270 H 0.56929 0.15422 0.16669 0.0
H1271 H 0.54442 0.10421 0.16075 0.0
H1272 H 0.49665 0.19931 0.12932 0.0
H1273 H 0.43526 0.07838 0.11739 0.0
H1274 H 0.584 0.21851 0.10857 0.0
H1275 H 0.58633 0.2096 0.14043 0.0
H1276 H 0.56282 0.23517 0.13075 0.0
H1277 H 0.50861 0.06953 0.09359 0.0
H1278 H 0.46644 0.04319 0.11207 0.0
H1279 H 0.51322 0.0633 0.12558 0.0
C1280 C 0.71623 0.55739 0.39957 0.0
C1281 C 0.72053 0.58885 0.38603 0.0
C1282 C 0.68156 0.52297 0.40027 0.0
C1283 C 0.65 0.51936 0.38694 0.0
C1284 C 0.65414 0.55054 0.37271 0.0
C1285 C 0.68937 0.585 0.37245 0.0
C1286 C 0.67857 0.49063 0.41576 0.0
C1287 C 0.62121 0.54763 0.35807 0.0
C1288 C 0.57232 0.41608 0.37825 0.0
C1289 C 0.54795 0.41064 0.39805 0.0
C1290 C 0.6044 0.45195 0.37344 0.0
C1291 C 0.61262 0.48317 0.38889 0.0
C1292 C 0.58727 0.47827 0.40823 0.0
C1293 C 0.55526 0.44222 0.41248 0.0
C1294 C 0.63053 0.45592 0.35256 0.0
C1295 C 0.59495 0.51067 0.42522 0.0
H1296 H 0.73997 0.55963 0.41006 0.0
H1297 H 0.69231 0.60897 0.36188 0.0
H1298 H 0.6568 0.48325 0.43026 0.0
H1299 H 0.66924 0.46489 0.40432 0.0
H1300 H 0.70601 0.49778 0.42465 0.0
H1301 H 0.62954 0.57352 0.34686 0.0
H1302 H 0.60966 0.52255 0.34576 0.0
H1303 H 0.59788 0.54332 0.37063 0.0
H1304 H 0.5672 0.39197 0.36703 0.0
H1305 H 0.53619 0.43867 0.42744 0.0
H1306 H 0.65757 0.45942 0.36 0.0
H1307 H 0.63777 0.48167 0.34151 0.0
H1308 H 0.61766 0.43068 0.34032 0.0
H1309 H 0.62076 0.51833 0.43631 0.0
H1310 H 0.57079 0.50326 0.4379 0.0
H1311 H 0.60064 0.53628 0.41455 0.0
C1312 C 0.87387 0.32873 0.12481 0.0
C1313 C 0.90792 0.32788 0.12214 0.0
C1314 C 0.87301 0.36272 0.12238 0.0
C1315 C 0.90702 0.39707 0.11706 0.0
C1316 C 0.9417 0.39672 0.11485 0.0
C1317 C 0.94177 0.36215 0.11746 0.0
C1318 C 0.83541 0.36168 0.12502 0.0
C1319 C 0.97857 0.43273 0.10918 0.0
C1320 C 0.89326 0.47338 0.08581 0.0
C1321 C 0.89631 0.49697 0.10551 0.0
C1322 C 0.89784 0.44154 0.08921 0.0
C1323 C 0.90561 0.43281 0.11291 0.0
C1324 C 0.90934 0.4568 0.13283 0.0
C1325 C 0.90461 0.48851 0.12891 0.0
C1326 C 0.89336 0.41664 0.06748 0.0
C1327 C 0.91763 0.44857 0.15838 0.0
H1328 H 0.84751 0.30259 0.12862 0.0
H1329 H 0.9682 0.36187 0.11535 0.0
H1330 H 0.83764 0.38217 0.13926 0.0
H1331 H 0.82803 0.37044 0.10753 0.0
H1332 H 0.81176 0.33293 0.13004 0.0
H1333 H 1.00338 0.42815 0.10923 0.0
H1334 H 0.97665 0.44369 0.0909 0.0
H1335 H 0.98369 0.4551 0.12277 0.0
H1336 H 0.88637 0.47928 0.06773 0.0
H1337 H 0.9076 0.50683 0.14419 0.0
H1338 H 0.86821 0.38789 0.07025 0.0
H1339 H 0.91865 0.41306 0.06577 0.0
H1340 H 0.8896 0.42852 0.05002 0.0
H1341 H 0.89371 0.42098 0.16487 0.0
H1342 H 0.92179 0.47109 0.17163 0.0
H1343 H 0.94357 0.44594 0.15831 0.0
C1344 C 0.46988 0.11994 0.37735 0.0
C1345 C 0.46567 0.14781 0.38986 0.0
C1346 C 0.50472 0.12002 0.37787 0.0
C1347 C 0.53595 0.14852 0.39129 0.0
C1348 C 0.53202 0.17707 0.4035 0.0
C1349 C 0.49717 0.17643 0.40258 0.0
C1350 C 0.50793 0.08929 0.36444 0.0
C1351 C 0.56445 0.20798 0.41807 0.0
C1352 C 0.61421 0.13326 0.41753 0.0
C1353 C 0.64516 0.15614 0.40214 0.0
C1354 C 0.57811 0.12919 0.41356 0.0
C1355 C 0.5725 0.14815 0.39356 0.0
C1356 C 0.60312 0.16995 0.37733 0.0
C1357 C 0.63907 0.17382 0.38186 0.0
C1358 C 0.54634 0.10578 0.43138 0.0
C1359 C 0.59835 0.19051 0.35573 0.0
H1360 H 0.44587 0.09777 0.36743 0.0
H1361 H 0.49459 0.19834 0.41224 0.0
H1362 H 0.53273 0.10225 0.35183 0.0
H1363 H 0.5129 0.07153 0.37775 0.0
H1364 H 0.48189 0.07052 0.35369 0.0
H1365 H 0.55708 0.22865 0.42602 0.0
H1366 H 0.57242 0.19505 0.43324 0.0
H1367 H 0.58993 0.22375 0.40625 0.0
H1368 H 0.61826 0.11871 0.43291 0.0
H1369 H 0.66272 0.19177 0.36992 0.0
H1370 H 0.52054 0.08459 0.4214 0.0
H1371 H 0.5386 0.12463 0.44151 0.0
H1372 H 0.55442 0.09053 0.44489 0.0
H1373 H 0.57255 0.17095 0.34509 0.0
H1374 H 0.62341 0.20255 0.34329 0.0
H1375 H 0.59441 0.21413 0.36238 0.0
C1376 C 0.55649 0.42048 0.1285 0.0
C1377 C 0.54803 0.40342 0.10524 0.0
C1378 C 0.58828 0.45695 0.1322 0.0
C1379 C 0.61236 0.47695 0.1122 0.0
C1380 C 0.60362 0.46017 0.08861 0.0
C1381 C 0.57169 0.42372 0.08543 0.0
C1382 C 0.59653 0.47379 0.15763 0.0
C1383 C 0.62861 0.48031 0.0668 0.0
C1384 C 0.68353 0.5838 0.11605 0.0
C1385 C 0.71769 0.5841 0.12085 0.0
C1386 C 0.64882 0.54919 0.11362 0.0
C1387 C 0.64824 0.51409 0.11615 0.0
C1388 C 0.68248 0.51432 0.1216 0.0
C1389 C 0.71661 0.54915 0.12385 0.0
C1390 C 0.61294 0.55015 0.1078 0.0
C1391 C 0.68326 0.47768 0.12458 0.0
H1392 H 0.53812 0.40535 0.14385 0.0
H1393 H 0.56578 0.4107 0.06745 0.0
H1394 H 0.62404 0.4774 0.16421 0.0
H1395 H 0.59936 0.50244 0.1573 0.0
H1396 H 0.57391 0.45565 0.17095 0.0
H1397 H 0.61668 0.46449 0.04943 0.0
H1398 H 0.63237 0.50922 0.06485 0.0
H1399 H 0.6573 0.48381 0.06963 0.0
H1400 H 0.684 0.61056 0.11368 0.0
H1401 H 0.74267 0.54885 0.12776 0.0
H1402 H 0.59048 0.53308 0.12144 0.0
H1403 H 0.60199 0.53712 0.08958 0.0
H1404 H 0.6177 0.57961 0.10762 0.0
H1405 H 0.66268 0.45963 0.13891 0.0
H1406 H 0.71196 0.48273 0.12967 0.0
H1407 H 0.67447 0.46135 0.10721 0.0
C1408 C 0.88247 0.47904 0.38014 0.0
C1409 C 0.90006 0.50289 0.40035 0.0
C1410 C 0.88651 0.44707 0.37572 0.0
C1411 C 0.90843 0.43847 0.39199 0.0
C1412 C 0.9275 0.46327 0.41183 0.0
C1413 C 0.92323 0.49516 0.41569 0.0
C1414 C 0.86585 0.42151 0.35429 0.0
C1415 C 0.95106 0.45518 0.42968 0.0
C1416 C 0.87958 0.33487 0.40212 0.0
C1417 C 0.90799 0.33158 0.38948 0.0
C1418 C 0.87918 0.3692 0.40265 0.0
C1419 C 0.90779 0.4014 0.3901 0.0
C1420 C 0.93607 0.39823 0.37675 0.0
C1421 C 0.9359 0.36335 0.37662 0.0
C1422 C 0.84848 0.37117 0.41716 0.0
C1423 C 0.96685 0.43186 0.36297 0.0
H1424 H 0.86433 0.48449 0.36822 0.0
H1425 H 0.93772 0.51384 0.43101 0.0
H1426 H 0.88525 0.41491 0.34382 0.0
H1427 H 0.84201 0.39412 0.36112 0.0
H1428 H 0.85404 0.43453 0.34166 0.0
H1429 H 0.96666 0.47884 0.44288 0.0
H1430 H 0.93223 0.42887 0.44017 0.0
H1431 H 0.97197 0.45018 0.41971 0.0
H1432 H 0.85762 0.31062 0.41202 0.0
H1433 H 0.95791 0.36118 0.36675 0.0
H1434 H 0.83274 0.38074 0.4052 0.0
H1435 H 0.86161 0.39235 0.4321 0.0
H1436 H 0.82772 0.34329 0.42539 0.0
H1437 H 0.95394 0.44363 0.35027 0.0
H1438 H 0.98538 0.42424 0.35229 0.0
H1439 H 0.98488 0.45479 0.37606 0.0
C1440 C 0.1243 0.60781 0.61248 0.0
C1441 C 0.15949 0.64016 0.61805 0.0
C1442 C 0.11832 0.57077 0.61579 0.0
C1443 C 0.14822 0.56569 0.62491 0.0
C1444 C 0.18332 0.59815 0.63142 0.0
C1445 C 0.18852 0.63487 0.62792 0.0
C1446 C 0.08042 0.53708 0.60868 0.0
C1447 C 0.21604 0.59418 0.64112 0.0
C1448 C 0.12936 0.46773 0.6465 0.0
C1449 C 0.14109 0.45532 0.62603 0.0
C1450 C 0.13084 0.50328 0.64637 0.0
C1451 C 0.14423 0.5269 0.62525 0.0
C1452 C 0.15499 0.51391 0.60435 0.0
C1453 C 0.15332 0.47851 0.60501 0.0
C1454 C 0.11904 0.51601 0.66902 0.0
C1455 C 0.1692 0.53784 0.58136 0.0
H1456 H 0.1014 0.61143 0.60529 0.0
H1457 H 0.21593 0.65951 0.63209 0.0
H1458 H 0.08422 0.52268 0.59256 0.0
H1459 H 0.06907 0.51598 0.62382 0.0
H1460 H 0.05901 0.54553 0.604 0.0
H1461 H 0.24019 0.6218 0.6474 0.0
H1462 H 0.20641 0.5737 0.65662 0.0
H1463 H 0.22649 0.58269 0.62652 0.0
H1464 H 0.12007 0.4502 0.66287 0.0
H1465 H 0.16223 0.46927 0.58897 0.0
H1466 H 0.09732 0.52398 0.6643 0.0
H1467 H 0.14399 0.54174 0.67667 0.0
H1468 H 0.10725 0.49359 0.6834 0.0
H1469 H 0.14775 0.54509 0.57469 0.0
H1470 H 0.17536 0.52317 0.56641 0.0
H1471 H 0.19563 0.56502 0.58545 0.0
C1472 C 0.33417 0.8532 0.89599 0.0
C1473 C 0.33368 0.88666 0.89005 0.0
C1474 C 0.36827 0.85229 0.89645 0.0
C1475 C 0.40305 0.88572 0.89095 0.0
C1476 C 0.4027 0.91925 0.88398 0.0
C1477 C 0.36795 0.91929 0.88351 0.0
C1478 C 0.36716 0.81579 0.90373 0.0
C1479 C 0.43917 0.95547 0.87799 0.0
C1480 C 0.48982 0.89057 0.9213 0.0
C1481 C 0.50517 0.87909 0.90231 0.0
C1482 C 0.45749 0.89416 0.91756 0.0
C1483 C 0.43973 0.88591 0.89426 0.0
C1484 C 0.45543 0.87503 0.87485 0.0
C1485 C 0.48792 0.87174 0.8791 0.0
C1486 C 0.44163 0.90568 0.93881 0.0
C1487 C 0.43738 0.86599 0.84974 0.0
H1488 H 0.30779 0.82763 0.90074 0.0
H1489 H 0.36785 0.94525 0.87891 0.0
H1490 H 0.38202 0.80801 0.88984 0.0
H1491 H 0.38232 0.81992 0.92139 0.0
H1492 H 0.33758 0.79164 0.90582 0.0
H1493 H 0.43384 0.97803 0.87081 0.0
H1494 H 0.45696 0.96631 0.89473 0.0
H1495 H 0.45588 0.94986 0.86423 0.0
H1496 H 0.50249 0.8958 0.93939 0.0
H1497 H 0.49984 0.86341 0.8642 0.0
H1498 H 0.41303 0.88178 0.94375 0.0
H1499 H 0.43812 0.93018 0.93356 0.0
H1500 H 0.46019 0.91361 0.95527 0.0
H1501 H 0.40853 0.84046 0.85081 0.0
H1502 H 0.45446 0.86047 0.83619 0.0
H1503 H 0.43389 0.88988 0.843 0.0
C1504 C 0.5703 0.70588 0.61242 0.0
C1505 C 0.59995 0.71244 0.62867 0.0
C1506 C 0.53577 0.67124 0.61216 0.0
C1507 C 0.5301 0.6419 0.62865 0.0
C1508 C 0.5596 0.64817 0.64531 0.0
C1509 C 0.59424 0.68333 0.64509 0.0
C1510 C 0.50535 0.66602 0.594 0.0
C1511 C 0.55457 0.61769 0.66328 0.0
C1512 C 0.42494 0.56875 0.63691 0.0
C1513 C 0.4196 0.54098 0.61954 0.0
C1514 C 0.46123 0.6005 0.64129 0.0
C1515 C 0.49316 0.60487 0.62795 0.0
C1516 C 0.48831 0.57593 0.61137 0.0
C1517 C 0.45173 0.54444 0.60739 0.0
C1518 C 0.46494 0.63055 0.65913 0.0
C1519 C 0.52144 0.57924 0.59677 0.0
H1520 H 0.57401 0.72788 0.59957 0.0
H1521 H 0.61677 0.68796 0.65774 0.0
H1522 H 0.49848 0.64155 0.58181 0.0
H1523 H 0.47882 0.65948 0.60383 0.0
H1524 H 0.51417 0.69167 0.58243 0.0
H1525 H 0.57985 0.62708 0.67529 0.0
H1526 H 0.52923 0.60957 0.67495 0.0
H1527 H 0.54939 0.59177 0.65325 0.0
H1528 H 0.40044 0.5667 0.6463 0.0
H1529 H 0.44817 0.52285 0.59429 0.0
H1530 H 0.47014 0.65638 0.64888 0.0
H1531 H 0.48962 0.63896 0.67149 0.0
H1532 H 0.43888 0.62068 0.67044 0.0
H1533 H 0.53055 0.60249 0.58309 0.0
H1534 H 0.51405 0.55248 0.58691 0.0
H1535 H 0.54614 0.58669 0.60892 0.0
C1536 C 0.17305 0.62022 0.88224 0.0
C1537 C 0.16299 0.62757 0.90537 0.0
C1538 C 0.17032 0.58499 0.87701 0.0
C1539 C 0.15715 0.55637 0.89531 0.0
C1540 C 0.14622 0.56333 0.9185 0.0
C1541 C 0.1494 0.59879 0.92326 0.0
C1542 C 0.18232 0.57871 0.85208 0.0
C1543 C 0.13218 0.53366 0.93857 0.0
C1544 C 0.12472 0.45262 0.88058 0.0
C1545 C 0.15636 0.45005 0.88828 0.0
C1546 C 0.12486 0.48737 0.88201 0.0
C1547 C 0.15755 0.52026 0.89107 0.0
C1548 C 0.19013 0.51809 0.89773 0.0
C1549 C 0.18907 0.48309 0.89635 0.0
C1550 C 0.08954 0.48854 0.87478 0.0
C1551 C 0.22576 0.55248 0.9072 0.0
H1552 H 0.18302 0.64202 0.86818 0.0
H1553 H 0.14206 0.60429 0.94129 0.0
H1554 H 0.2075 0.57498 0.85398 0.0
H1555 H 0.15918 0.55227 0.84377 0.0
H1556 H 0.18969 0.60287 0.83938 0.0
H1557 H 0.12237 0.54252 0.95498 0.0
H1558 H 0.1083 0.50633 0.93177 0.0
H1559 H 0.15539 0.52832 0.9442 0.0
H1560 H 0.09936 0.42722 0.87435 0.0
H1561 H 0.2139 0.48152 0.90199 0.0
H1562 H 0.09688 0.51234 0.86182 0.0
H1563 H 0.07685 0.4938 0.89126 0.0
H1564 H 0.06777 0.46154 0.86615 0.0
H1565 H 0.23526 0.57667 0.89424 0.0
H1566 H 0.24953 0.54667 0.90995 0.0
H1567 H 0.21961 0.56156 0.92495 0.0
C1568 C 0.38138 0.93683 0.63759 0.0
C1569 C 0.34619 0.90448 0.63226 0.0
C1570 C 0.41566 0.93599 0.63552 0.0
C1571 C 0.41464 0.90193 0.62819 0.0
C1572 C 0.37903 0.86888 0.62381 0.0
C1573 C 0.34544 0.87059 0.62583 0.0
C1574 C 0.45304 0.97185 0.64032 0.0
C1575 C 0.37639 0.83183 0.61621 0.0
C1576 C 0.4977 0.9031 0.5949 0.0
C1577 C 0.51381 0.89127 0.61328 0.0
C1578 C 0.46646 0.90813 0.59978 0.0
C1579 C 0.45053 0.90096 0.62363 0.0
C1580 C 0.46705 0.88974 0.64241 0.0
C1581 C 0.49843 0.88506 0.63703 0.0
C1582 C 0.44972 0.91996 0.57915 0.0
C1583 C 0.45095 0.88173 0.66806 0.0
H1584 H 0.38227 0.96312 0.64253 0.0
H1585 H 0.31841 0.84522 0.622 0.0
H1586 H 0.47038 0.96609 0.65352 0.0
H1587 H 0.46956 0.98181 0.62303 0.0
H1588 H 0.44898 0.99509 0.64767 0.0
H1589 H 0.34644 0.80816 0.61488 0.0
H1590 H 0.39024 0.83541 0.59811 0.0
H1591 H 0.39173 0.82365 0.62953 0.0
H1592 H 0.50886 0.90748 0.5764 0.0
H1593 H 0.51095 0.87653 0.65149 0.0
H1594 H 0.44731 0.94496 0.58468 0.0
H1595 H 0.42055 0.89646 0.57497 0.0
H1596 H 0.46709 0.92724 0.56216 0.0
H1597 H 0.44879 0.90625 0.67501 0.0
H1598 H 0.46858 0.87588 0.681 0.0
H1599 H 0.42172 0.8567 0.66787 0.0
C1600 C 0.59612 0.66972 0.8984 0.0
C1601 C 0.5959 0.70347 0.89311 0.0
C1602 C 0.56176 0.6349 0.9013 0.0
C1603 C 0.52641 0.63382 0.89878 0.0
C1604 C 0.52612 0.66762 0.8928 0.0
C1605 C 0.5607 0.70186 0.89006 0.0
C1606 C 0.56326 0.59946 0.90765 0.0
C1607 C 0.48918 0.66786 0.88983 0.0
C1608 C 0.43309 0.54136 0.88782 0.0
C1609 C 0.41638 0.53355 0.91121 0.0
C1610 C 0.4694 0.57315 0.88365 0.0
C1611 C 0.48956 0.59791 0.9033 0.0
C1612 C 0.47315 0.58981 0.92702 0.0
C1613 C 0.43685 0.55783 0.93067 0.0
C1614 C 0.48587 0.58069 0.8581 0.0
C1615 C 0.49348 0.61557 0.94845 0.0
H1616 H 0.62309 0.67061 0.90082 0.0
H1617 H 0.56 0.72761 0.88578 0.0
H1618 H 0.5507 0.58911 0.92607 0.0
H1619 H 0.54603 0.57645 0.89441 0.0
H1620 H 0.59284 0.60452 0.90765 0.0
H1621 H 0.49383 0.69625 0.88431 0.0
H1622 H 0.47104 0.64672 0.87582 0.0
H1623 H 0.47312 0.6595 0.90734 0.0
H1624 H 0.41781 0.52247 0.87274 0.0
H1625 H 0.42408 0.55237 0.94874 0.0
H1626 H 0.51469 0.58391 0.85838 0.0
H1627 H 0.48902 0.60781 0.85108 0.0
H1628 H 0.46771 0.55753 0.84513 0.0
H1629 H 0.52254 0.61967 0.95032 0.0
H1630 H 0.47797 0.6041 0.96599 0.0
H1631 H 0.49665 0.64403 0.9452 0.0
loop_
_geom_bond_atom_site_label_1
_geom_bond_atom_site_label_2
_geom_bond_distance
_geom_bond_site_symmetry_2
_ccdc_geom_bond_type
Eu0 C9 2.828 . S
Eu0 O11 2.392 . S
Eu0 O13 2.418 . S
Eu0 O18 2.373 . S
Eu0 O21 2.488 . S
Eu0 O22 2.471 . S
Eu0 O23 2.349 . S
Eu1 O10 2.373 . S
Eu1 O14 2.488 . S
Eu1 O15 2.471 . S
Eu1 O16 2.349 . S
Eu1 O19 2.392 . S
Eu1 O20 2.418 . S
Eu1 C30 2.828 . S
C2 O20 1.244 . S
C2 O23 1.265 . S
C3 C4 1.379 . S
C3 C7 1.373 . S
C3 C9 1.505 . S
C4 C3 1.379 . S
C4 C6 1.369 . S
C4 H32 0.930 . S
C5 C7 1.383 . S
C5 C8 1.382 . S
C5 H33 0.930 . S
C6 C4 1.369 . S
C6 C8 1.392 . S
C6 H34 0.930 . S
C7 C3 1.373 . S
C7 C5 1.383 . S
C7 H35 0.931 . S
C8 C5 1.382 . S
C8 C6 1.392 . S
C9 Eu0 2.828 . S
C9 C3 1.505 . S
C9 O21 1.249 . S
C9 O22 1.244 . S
O10 Eu1 2.373 . S
O10 C12 1.258 . S
O11 Eu0 2.392 . S
O11 C12 1.242 . S
C12 O10 1.258 . S
C12 O11 1.242 . S
O13 Eu0 2.418 . S
O13 C17 1.244 . S
O14 Eu1 2.488 . S
O14 C30 1.249 . S
O15 Eu1 2.471 . S
O15 C30 1.244 . S
O16 Eu1 2.349 . S
O16 C17 1.265 . S
C17 O13 1.244 . S
C17 O16 1.265 . S
O18 Eu0 2.373 . S
O18 C31 1.258 . S
O19 Eu1 2.392 . S
O19 C31 1.242 . S
O20 Eu1 2.418 . S
O20 C2 1.244 . S
O21 Eu0 2.488 . S
O21 C9 1.249 . S
O22 Eu0 2.471 . S
O22 C9 1.244 . S
O23 Eu0 2.349 . S
O23 C2 1.265 . S
C24 C25 1.379 . S
C24 C28 1.373 . S
C24 C30 1.505 1_565 S
C25 C24 1.379 . S
C25 C27 1.369 . S
C25 H36 0.927 1_565 S
C26 C28 1.383 . S
C26 C29 1.382 . S
C26 H37 0.930 . S
C27 C25 1.369 . S
C27 C29 1.392 . S
C27 H38 0.930 . S
C28 C24 1.373 . S
C28 C26 1.383 . S
C28 H39 0.931 . S
C29 C26 1.382 . S
C29 C27 1.392 . S
C30 Eu1 2.828 . S
C30 O14 1.249 . S
C30 O15 1.244 . S
C30 C24 1.505 1_545 S
C31 O18 1.258 . S
C31 O19 1.242 . S
H32 C4 0.930 . S
H33 C5 0.930 . S
H34 C6 0.930 . S
H35 C7 0.931 . S
H36 C25 0.927 1_545 S
H37 C26 0.930 . S
H38 C27 0.930 . S
H39 C28 0.931 . S
Eu40 C49 2.828 . S
Eu40 O51 2.392 . S
Eu40 O53 2.418 . S
Eu40 O58 2.373 . S
Eu40 O61 2.488 . S
Eu40 O62 2.471 . S
Eu40 O63 2.349 . S
Eu41 O50 2.373 . S
Eu41 O54 2.488 . S
Eu41 O55 2.471 . S
Eu41 O56 2.349 . S
Eu41 O59 2.392 . S
Eu41 O60 2.418 . S
Eu41 C70 2.828 . S
C42 O60 1.244 . S
C42 O63 1.265 . S
C43 C44 1.379 . S
C43 C47 1.373 . S
C43 C49 1.505 . S
C44 C43 1.379 . S
C44 C46 1.369 . S
C44 H72 0.930 . S
C45 C47 1.383 . S
C45 C48 1.382 . S
C45 H73 0.930 . S
C46 C44 1.369 . S
C46 C48 1.392 . S
C46 H74 0.930 . S
C47 C43 1.373 . S
C47 C45 1.383 . S
C47 H75 0.931 . S
C48 C45 1.382 . S
C48 C46 1.392 . S
C49 Eu40 2.828 . S
C49 C43 1.505 . S
C49 O61 1.249 . S
C49 O62 1.244 . S
O50 Eu41 2.373 . S
O50 C52 1.258 . S
O51 Eu40 2.392 . S
O51 C52 1.242 . S
C52 O50 1.258 . S
C52 O51 1.242 . S
O53 Eu40 2.418 . S
O53 C57 1.244 . S
O54 Eu41 2.488 . S
O54 C70 1.249 . S
O55 Eu41 2.471 . S
O55 C70 1.244 . S
O56 Eu41 2.349 . S
O56 C57 1.265 . S
C57 O53 1.244 . S
C57 O56 1.265 . S
O58 Eu40 2.373 . S
O58 C71 1.258 . S
O59 Eu41 2.392 . S
O59 C71 1.242 . S
O60 Eu41 2.418 . S
O60 C42 1.244 . S
O61 Eu40 2.488 . S
O61 C49 1.249 . S
O62 Eu40 2.471 . S
O62 C49 1.244 . S
O63 Eu40 2.349 . S
O63 C42 1.265 . S
C64 C65 1.379 . S
C64 C68 1.373 . S
C64 C70 1.505 . S
C65 C64 1.379 . S
C65 C67 1.369 . S
C65 H76 0.930 . S
C66 C68 1.383 . S
C66 C69 1.382 . S
C66 H77 0.930 . S
C67 C65 1.369 . S
C67 C69 1.392 . S
C67 H78 0.930 . S
C68 C64 1.373 . S
C68 C66 1.383 . S
C68 H79 0.931 . S
C69 C66 1.382 . S
C69 C67 1.392 . S
C70 Eu41 2.828 . S
C70 O54 1.249 . S
C70 O55 1.244 . S
C70 C64 1.505 . S
C71 O58 1.258 . S
C71 O59 1.242 . S
H72 C44 0.930 . S
H73 C45 0.930 . S
H74 C46 0.930 . S
H75 C47 0.931 . S
H76 C65 0.930 . S
H77 C66 0.930 . S
H78 C67 0.930 . S
H79 C68 0.931 . S
Eu80 C89 2.828 . S
Eu80 O91 2.392 . S
Eu80 O93 2.418 . S
Eu80 O98 2.373 . S
Eu80 O101 2.488 . S
Eu80 O102 2.471 . S
Eu80 O103 2.349 . S
Eu81 O90 2.373 . S
Eu81 O94 2.488 . S
Eu81 O95 2.471 . S
Eu81 O96 2.349 . S
Eu81 O99 2.392 . S
Eu81 O100 2.418 . S
Eu81 C110 2.828 . S
C82 O100 1.244 . S
C82 O103 1.265 . S
C83 C84 1.379 . S
C83 C87 1.373 . S
C83 C89 1.505 . S
C84 C83 1.379 . S
C84 C86 1.369 . S
C84 H112 0.930 . S
C85 C87 1.383 . S
C85 C88 1.382 . S
C85 H113 0.930 . S
C86 C84 1.369 . S
C86 C88 1.392 . S
C86 H114 0.930 . S
C87 C83 1.373 . S
C87 C85 1.383 . S
C87 H115 0.931 . S
C88 C85 1.382 . S
C88 C86 1.392 . S
C89 Eu80 2.828 . S
C89 C83 1.505 . S
C89 O101 1.249 . S
C89 O102 1.244 . S
O90 Eu81 2.373 . S
O90 C92 1.258 . S
O91 Eu80 2.392 . S
O91 C92 1.242 . S
C92 O90 1.258 . S
C92 O91 1.242 . S
O93 Eu80 2.418 . S
O93 C97 1.244 . S
O94 Eu81 2.488 . S
O94 C110 1.249 . S
O95 Eu81 2.471 . S
O95 C110 1.244 . S
O96 Eu81 2.349 . S
O96 C97 1.265 . S
C97 O93 1.244 . S
C97 O96 1.265 . S
O98 Eu80 2.373 . S
O98 C111 1.258 . S
O99 Eu81 2.392 . S
O99 C111 1.242 . S
O100 Eu81 2.418 . S
O100 C82 1.244 . S
O101 Eu80 2.488 . S
O101 C89 1.249 . S
O102 Eu80 2.471 . S
O102 C89 1.244 . S
O103 Eu80 2.349 . S
O103 C82 1.265 . S
C104 C105 1.379 . S
C104 C108 1.373 . S
C104 C110 1.505 1_455 S
C105 C104 1.379 . S
C105 C107 1.369 . S
C105 H116 0.926 1_455 S
C106 C108 1.383 . S
C106 C109 1.382 . S
C106 H117 0.930 . S
C107 C105 1.369 . S
C107 C109 1.392 . S
C107 H118 0.930 . S
C108 C104 1.373 . S
C108 C106 1.383 . S
C108 H119 0.931 . S
C109 C106 1.382 . S
C109 C107 1.392 . S
C110 Eu81 2.828 . S
C110 O94 1.249 . S
C110 O95 1.244 . S
C110 C104 1.505 1_655 S
C111 O98 1.258 . S
C111 O99 1.242 . S
H112 C84 0.930 . S
H113 C85 0.930 . S
H114 C86 0.930 . S
H115 C87 0.931 . S
H116 C105 0.926 1_655 S
H117 C106 0.930 . S
H118 C107 0.930 . S
H119 C108 0.931 . S
Eu120 C129 2.828 . S
Eu120 O131 2.392 . S
Eu120 O133 2.418 . S
Eu120 O138 2.373 . S
Eu120 O141 2.488 . S
Eu120 O142 2.471 . S
Eu120 O143 2.349 . S
Eu121 O130 2.373 . S
Eu121 O134 2.488 . S
Eu121 O135 2.471 . S
Eu121 O136 2.349 . S
Eu121 O139 2.392 . S
Eu121 O140 2.418 . S
Eu121 C150 2.828 . S
C122 O140 1.244 . S
C122 O143 1.265 . S
C123 C124 1.379 . S
C123 C127 1.373 . S
C123 C129 1.505 1_565 S
C124 C123 1.379 . S
C124 C126 1.369 . S
C124 H152 0.927 1_565 S
C125 C127 1.383 . S
C125 C128 1.382 . S
C125 H153 0.930 . S
C126 C124 1.369 . S
C126 C128 1.392 . S
C126 H154 0.930 . S
C127 C123 1.373 . S
C127 C125 1.383 . S
C127 H155 0.931 . S
C128 C125 1.382 . S
C128 C126 1.392 . S
C129 Eu120 2.828 . S
C129 C123 1.505 1_545 S
C129 O141 1.249 . S
C129 O142 1.244 . S
O130 Eu121 2.373 . S
O130 C132 1.258 . S
O131 Eu120 2.392 . S
O131 C132 1.242 . S
C132 O130 1.258 . S
C132 O131 1.242 . S
O133 Eu120 2.418 . S
O133 C137 1.244 . S
O134 Eu121 2.488 . S
O134 C150 1.249 . S
O135 Eu121 2.471 . S
O135 C150 1.244 . S
O136 Eu121 2.349 . S
O136 C137 1.265 . S
C137 O133 1.244 . S
C137 O136 1.265 . S
O138 Eu120 2.373 . S
O138 C151 1.258 . S
O139 Eu121 2.392 . S
O139 C151 1.242 . S
O140 Eu121 2.418 . S
O140 C122 1.244 . S
O141 Eu120 2.488 . S
O141 C129 1.249 . S
O142 Eu120 2.471 . S
O142 C129 1.244 . S
O143 Eu120 2.349 . S
O143 C122 1.265 . S
C144 C145 1.379 . S
C144 C148 1.373 . S
C144 C150 1.505 . S
C145 C144 1.379 . S
C145 C147 1.369 . S
C145 H156 0.930 . S
C146 C148 1.383 . S
C146 C149 1.382 . S
C146 H157 0.930 . S
C147 C145 1.369 . S
C147 C149 1.392 . S
C147 H158 0.930 . S
C148 C144 1.373 . S
C148 C146 1.383 . S
C148 H159 0.931 . S
C149 C146 1.382 . S
C149 C147 1.392 . S
C150 Eu121 2.828 . S
C150 O134 1.249 . S
C150 O135 1.244 . S
C150 C144 1.505 . S
C151 O138 1.258 . S
C151 O139 1.242 . S
H152 C124 0.927 1_545 S
H153 C125 0.930 . S
H154 C126 0.930 . S
H155 C127 0.931 . S
H156 C145 0.930 . S
H157 C146 0.930 . S
H158 C147 0.930 . S
H159 C148 0.931 . S
Eu160 C169 2.828 . S
Eu160 O171 2.392 . S
Eu160 O173 2.418 . S
Eu160 O178 2.373 . S
Eu160 O181 2.488 . S
Eu160 O182 2.471 . S
Eu160 O183 2.349 . S
Eu161 O170 2.373 . S
Eu161 O174 2.488 . S
Eu161 O175 2.471 . S
Eu161 O176 2.349 . S
Eu161 O179 2.392 . S
Eu161 O180 2.418 . S
Eu161 C190 2.828 . S
C162 O180 1.244 . S
C162 O183 1.265 . S
C163 C164 1.379 . S
C163 C167 1.373 . S
C163 C169 1.505 . S
C164 C163 1.379 . S
C164 C166 1.369 . S
C164 H192 0.930 . S
C165 C167 1.383 . S
C165 C168 1.382 . S
C165 H193 0.930 . S
C166 C164 1.369 . S
C166 C168 1.392 . S
C166 H194 0.930 . S
C167 C163 1.373 . S
C167 C165 1.383 . S
C167 H195 0.931 . S
C168 C165 1.382 . S
C168 C166 1.392 . S
C169 Eu160 2.828 . S
C169 C163 1.505 . S
C169 O181 1.249 . S
C169 O182 1.244 . S
O170 Eu161 2.373 . S
O170 C172 1.258 . S
O171 Eu160 2.392 . S
O171 C172 1.242 . S
C172 O170 1.258 . S
C172 O171 1.242 . S
O173 Eu160 2.418 . S
O173 C177 1.244 . S
O174 Eu161 2.488 . S
O174 C190 1.249 . S
O175 Eu161 2.471 . S
O175 C190 1.244 . S
O176 Eu161 2.349 . S
O176 C177 1.265 . S
C177 O173 1.244 . S
C177 O176 1.265 . S
O178 Eu160 2.373 . S
O178 C191 1.258 . S
O179 Eu161 2.392 . S
O179 C191 1.242 . S
O180 Eu161 2.418 . S
O180 C162 1.244 . S
O181 Eu160 2.488 . S
O181 C169 1.249 . S
O182 Eu160 2.471 . S
O182 C169 1.244 . S
O183 Eu160 2.349 . S
O183 C162 1.265 . S
C184 C185 1.379 . S
C184 C188 1.373 . S
C184 C190 1.505 . S
C185 C184 1.379 . S
C185 C187 1.369 . S
C185 H196 0.930 . S
C186 C188 1.383 . S
C186 C189 1.382 . S
C186 H197 0.930 . S
C187 C185 1.369 . S
C187 C189 1.392 . S
C187 H198 0.930 . S
C188 C184 1.373 . S
C188 C186 1.383 . S
C188 H199 0.931 . S
C189 C186 1.382 . S
C189 C187 1.392 . S
C190 Eu161 2.828 . S
C190 O174 1.249 . S
C190 O175 1.244 . S
C190 C184 1.505 . S
C191 O178 1.258 . S
C191 O179 1.242 . S
H192 C164 0.930 . S
H193 C165 0.930 . S
H194 C166 0.930 . S
H195 C167 0.931 . S
H196 C185 0.930 . S
H197 C186 0.930 . S
H198 C187 0.930 . S
H199 C188 0.931 . S
Eu200 C209 2.828 . S
Eu200 O211 2.392 . S
Eu200 O213 2.418 . S
Eu200 O218 2.373 . S
Eu200 O221 2.488 . S
Eu200 O222 2.471 . S
Eu200 O223 2.349 . S
Eu201 O210 2.373 . S
Eu201 O214 2.488 . S
Eu201 O215 2.471 . S
Eu201 O216 2.349 . S
Eu201 O219 2.392 . S
Eu201 O220 2.418 . S
Eu201 C230 2.828 . S
C202 O220 1.244 . S
C202 O223 1.265 . S
C203 C204 1.379 . S
C203 C207 1.373 . S
C203 C209 1.505 1_455 S
C204 C203 1.379 . S
C204 C206 1.369 . S
C204 H232 0.926 1_455 S
C205 C207 1.383 . S
C205 C208 1.382 . S
C205 H233 0.930 . S
C206 C204 1.369 . S
C206 C208 1.392 . S
C206 H234 0.930 . S
C207 C203 1.373 . S
C207 C205 1.383 . S
C207 H235 0.931 . S
C208 C205 1.382 . S
C208 C206 1.392 . S
C209 Eu200 2.828 . S
C209 C203 1.505 1_655 S
C209 O221 1.249 . S
C209 O222 1.244 . S
O210 Eu201 2.373 . S
O210 C212 1.258 . S
O211 Eu200 2.392 . S
O211 C212 1.242 . S
C212 O210 1.258 . S
C212 O211 1.242 . S
O213 Eu200 2.418 . S
O213 C217 1.244 . S
O214 Eu201 2.488 . S
O214 C230 1.249 . S
O215 Eu201 2.471 . S
O215 C230 1.244 . S
O216 Eu201 2.349 . S
O216 C217 1.265 . S
C217 O213 1.244 . S
C217 O216 1.265 . S
O218 Eu200 2.373 . S
O218 C231 1.258 . S
O219 Eu201 2.392 . S
O219 C231 1.242 . S
O220 Eu201 2.418 . S
O220 C202 1.244 . S
O221 Eu200 2.488 . S
O221 C209 1.249 . S
O222 Eu200 2.471 . S
O222 C209 1.244 . S
O223 Eu200 2.349 . S
O223 C202 1.265 . S
C224 C225 1.379 . S
C224 C228 1.373 . S
C224 C230 1.505 . S
C225 C224 1.379 . S
C225 C227 1.369 . S
C225 H236 0.930 . S
C226 C228 1.383 . S
C226 C229 1.382 . S
C226 H237 0.930 . S
C227 C225 1.369 . S
C227 C229 1.392 . S
C227 H238 0.930 . S
C228 C224 1.373 . S
C228 C226 1.383 . S
C228 H239 0.931 . S
C229 C226 1.382 . S
C229 C227 1.392 . S
C230 Eu201 2.828 . S
C230 O214 1.249 . S
C230 O215 1.244 . S
C230 C224 1.505 . S
C231 O218 1.258 . S
C231 O219 1.242 . S
H232 C204 0.926 1_655 S
H233 C205 0.930 . S
H234 C206 0.930 . S
H235 C207 0.931 . S
H236 C225 0.930 . S
H237 C226 0.930 . S
H238 C227 0.930 . S
H239 C228 0.931 . S
Eu240 C249 2.828 . S
Eu240 O251 2.392 . S
Eu240 O253 2.418 . S
Eu240 O258 2.373 . S
Eu240 O261 2.488 . S
Eu240 O262 2.471 . S
Eu240 O263 2.349 . S
Eu241 O250 2.373 . S
Eu241 O254 2.488 . S
Eu241 O255 2.471 . S
Eu241 O256 2.349 . S
Eu241 O259 2.392 . S
Eu241 O260 2.418 . S
Eu241 C270 2.828 . S
C242 O260 1.244 . S
C242 O263 1.265 . S
C243 C244 1.379 . S
C243 C247 1.373 . S
C243 C249 1.505 1_655 S
C244 C243 1.379 . S
C244 C246 1.369 . S
C244 H272 0.927 1_655 S
C245 C247 1.383 . S
C245 C248 1.382 . S
C245 H273 0.930 . S
C246 C244 1.369 . S
C246 C248 1.392 . S
C246 H274 0.930 . S
C247 C243 1.373 . S
C247 C245 1.383 . S
C247 H275 0.931 . S
C248 C245 1.382 . S
C248 C246 1.392 . S
C249 Eu240 2.828 . S
C249 C243 1.505 1_455 S
C249 O261 1.249 . S
C249 O262 1.244 . S
O250 Eu241 2.373 . S
O250 C252 1.258 . S
O251 Eu240 2.392 . S
O251 C252 1.242 . S
C252 O250 1.258 . S
C252 O251 1.242 . S
O253 Eu240 2.418 . S
O253 C257 1.244 . S
O254 Eu241 2.488 . S
O254 C270 1.249 . S
O255 Eu241 2.471 . S
O255 C270 1.244 . S
O256 Eu241 2.349 . S
O256 C257 1.265 . S
C257 O253 1.244 . S
C257 O256 1.265 . S
O258 Eu240 2.373 . S
O258 C271 1.258 . S
O259 Eu241 2.392 . S
O259 C271 1.242 . S
O260 Eu241 2.418 . S
O260 C242 1.244 . S
O261 Eu240 2.488 . S
O261 C249 1.249 . S
O262 Eu240 2.471 . S
O262 C249 1.244 . S
O263 Eu240 2.349 . S
O263 C242 1.265 . S
C264 C265 1.379 . S
C264 C268 1.373 . S
C264 C270 1.505 . S
C265 C264 1.379 . S
C265 C267 1.369 . S
C265 H276 0.930 . S
C266 C268 1.383 . S
C266 C269 1.382 . S
C266 H277 0.930 . S
C267 C265 1.369 . S
C267 C269 1.392 . S
C267 H278 0.930 . S
C268 C264 1.373 . S
C268 C266 1.383 . S
C268 H279 0.931 . S
C269 C266 1.382 . S
C269 C267 1.392 . S
C270 Eu241 2.828 . S
C270 O254 1.249 . S
C270 O255 1.244 . S
C270 C264 1.505 . S
C271 O258 1.258 . S
C271 O259 1.242 . S
H272 C244 0.927 1_455 S
H273 C245 0.930 . S
H274 C246 0.930 . S
H275 C247 0.931 . S
H276 C265 0.930 . S
H277 C266 0.930 . S
H278 C267 0.930 . S
H279 C268 0.931 . S
Eu280 C289 2.828 . S
Eu280 O291 2.392 . S
Eu280 O293 2.418 . S
Eu280 O298 2.373 . S
Eu280 O301 2.488 . S
Eu280 O302 2.471 . S
Eu280 O303 2.349 . S
Eu281 O290 2.373 . S
Eu281 O294 2.488 . S
Eu281 O295 2.471 . S
Eu281 O296 2.349 . S
Eu281 O299 2.392 . S
Eu281 O300 2.418 . S
Eu281 C310 2.828 . S
C282 O300 1.244 . S
C282 O303 1.265 . S
C283 C284 1.379 . S
C283 C287 1.373 . S
C283 C289 1.505 . S
C284 C283 1.379 . S
C284 C286 1.369 . S
C284 H312 0.930 . S
C285 C287 1.383 . S
C285 C288 1.382 . S
C285 H313 0.930 . S
C286 C284 1.369 . S
C286 C288 1.392 . S
C286 H314 0.930 . S
C287 C283 1.373 . S
C287 C285 1.383 . S
C287 H315 0.931 . S
C288 C285 1.382 . S
C288 C286 1.392 . S
C289 Eu280 2.828 . S
C289 C283 1.505 . S
C289 O301 1.249 . S
C289 O302 1.244 . S
O290 Eu281 2.373 . S
O290 C292 1.258 . S
O291 Eu280 2.392 . S
O291 C292 1.242 . S
C292 O290 1.258 . S
C292 O291 1.242 . S
O293 Eu280 2.418 . S
O293 C297 1.244 . S
O294 Eu281 2.488 . S
O294 C310 1.249 . S
O295 Eu281 2.471 . S
O295 C310 1.244 . S
O296 Eu281 2.349 . S
O296 C297 1.265 . S
C297 O293 1.244 . S
C297 O296 1.265 . S
O298 Eu280 2.373 . S
O298 C311 1.258 . S
O299 Eu281 2.392 . S
O299 C311 1.242 . S
O300 Eu281 2.418 . S
O300 C282 1.244 . S
O301 Eu280 2.488 . S
O301 C289 1.249 . S
O302 Eu280 2.471 . S
O302 C289 1.244 . S
O303 Eu280 2.349 . S
O303 C282 1.265 . S
C304 C305 1.379 . S
C304 C308 1.373 . S
C304 C310 1.505 1_545 S
C305 C304 1.379 . S
C305 C307 1.369 . S
C305 H316 0.926 1_545 S
C306 C308 1.383 . S
C306 C309 1.382 . S
C306 H317 0.930 . S
C307 C305 1.369 . S
C307 C309 1.392 . S
C307 H318 0.930 . S
C308 C304 1.373 . S
C308 C306 1.383 . S
C308 H319 0.931 . S
C309 C306 1.382 . S
C309 C307 1.392 . S
C310 Eu281 2.828 . S
C310 O294 1.249 . S
C310 O295 1.244 . S
C310 C304 1.505 1_565 S
C311 O298 1.258 . S
C311 O299 1.242 . S
H312 C284 0.930 . S
H313 C285 0.930 . S
H314 C286 0.930 . S
H315 C287 0.931 . S
H316 C305 0.926 1_565 S
H317 C306 0.930 . S
H318 C307 0.930 . S
H319 C308 0.931 . S
Eu320 C329 2.828 . S
Eu320 O331 2.392 . S
Eu320 O333 2.418 . S
Eu320 O338 2.373 . S
Eu320 O341 2.488 . S
Eu320 O342 2.471 . S
Eu320 O343 2.349 . S
Eu321 O330 2.373 . S
Eu321 O334 2.488 . S
Eu321 O335 2.471 . S
Eu321 O336 2.349 . S
Eu321 O339 2.392 . S
Eu321 O340 2.418 . S
Eu321 C350 2.828 . S
C322 O340 1.244 . S
C322 O343 1.265 . S
C323 C324 1.379 . S
C323 C327 1.373 . S
C323 C329 1.505 . S
C324 C323 1.379 . S
C324 C326 1.369 . S
C324 H352 0.930 . S
C325 C327 1.383 . S
C325 C328 1.382 . S
C325 H353 0.930 . S
C326 C324 1.369 . S
C326 C328 1.392 . S
C326 H354 0.930 . S
C327 C323 1.373 . S
C327 C325 1.383 . S
C327 H355 0.931 . S
C328 C325 1.382 . S
C328 C326 1.392 . S
C329 Eu320 2.828 . S
C329 C323 1.505 . S
C329 O341 1.249 . S
C329 O342 1.244 . S
O330 Eu321 2.373 . S
O330 C332 1.258 . S
O331 Eu320 2.392 . S
O331 C332 1.242 . S
C332 O330 1.258 . S
C332 O331 1.242 . S
O333 Eu320 2.418 . S
O333 C337 1.244 . S
O334 Eu321 2.488 . S
O334 C350 1.249 . S
O335 Eu321 2.471 . S
O335 C350 1.244 . S
O336 Eu321 2.349 . S
O336 C337 1.265 . S
C337 O333 1.244 . S
C337 O336 1.265 . S
O338 Eu320 2.373 . S
O338 C351 1.258 . S
O339 Eu321 2.392 . S
O339 C351 1.242 . S
O340 Eu321 2.418 . S
O340 C322 1.244 . S
O341 Eu320 2.488 . S
O341 C329 1.249 . S
O342 Eu320 2.471 . S
O342 C329 1.244 . S
O343 Eu320 2.349 . S
O343 C322 1.265 . S
C344 C345 1.379 . S
C344 C348 1.373 . S
C344 C350 1.505 . S
C345 C344 1.379 . S
C345 C347 1.369 . S
C345 H356 0.930 . S
C346 C348 1.383 . S
C346 C349 1.382 . S
C346 H357 0.930 . S
C347 C345 1.369 . S
C347 C349 1.392 . S
C347 H358 0.930 . S
C348 C344 1.373 . S
C348 C346 1.383 . S
C348 H359 0.931 . S
C349 C346 1.382 . S
C349 C347 1.392 . S
C350 Eu321 2.828 . S
C350 O334 1.249 . S
C350 O335 1.244 . S
C350 C344 1.505 . S
C351 O338 1.258 . S
C351 O339 1.242 . S
H352 C324 0.930 . S
H353 C325 0.930 . S
H354 C326 0.930 . S
H355 C327 0.931 . S
H356 C345 0.930 . S
H357 C346 0.930 . S
H358 C347 0.930 . S
H359 C348 0.931 . S
Eu360 C369 2.828 . S
Eu360 O371 2.392 . S
Eu360 O373 2.418 . S
Eu360 O378 2.373 . S
Eu360 O381 2.488 . S
Eu360 O382 2.471 . S
Eu360 O383 2.349 . S
Eu361 O370 2.373 . S
Eu361 O374 2.488 . S
Eu361 O375 2.471 . S
Eu361 O376 2.349 . S
Eu361 O379 2.392 . S
Eu361 O380 2.418 . S
Eu361 C390 2.828 . S
C362 O380 1.244 . S
C362 O383 1.265 . S
C363 C364 1.379 . S
C363 C367 1.373 . S
C363 C369 1.505 . S
C364 C363 1.379 . S
C364 C366 1.369 . S
C364 H392 0.930 . S
C365 C367 1.383 . S
C365 C368 1.382 . S
C365 H393 0.930 . S
C366 C364 1.369 . S
C366 C368 1.392 . S
C366 H394 0.930 . S
C367 C363 1.373 . S
C367 C365 1.383 . S
C367 H395 0.931 . S
C368 C365 1.382 . S
C368 C366 1.392 . S
C369 Eu360 2.828 . S
C369 C363 1.505 . S
C369 O381 1.249 . S
C369 O382 1.244 . S
O370 Eu361 2.373 . S
O370 C372 1.258 . S
O371 Eu360 2.392 . S
O371 C372 1.242 . S
C372 O370 1.258 . S
C372 O371 1.242 . S
O373 Eu360 2.418 . S
O373 C377 1.244 . S
O374 Eu361 2.488 . S
O374 C390 1.249 . S
O375 Eu361 2.471 . S
O375 C390 1.244 . S
O376 Eu361 2.349 . S
O376 C377 1.265 . S
C377 O373 1.244 . S
C377 O376 1.265 . S
O378 Eu360 2.373 . S
O378 C391 1.258 . S
O379 Eu361 2.392 . S
O379 C391 1.242 . S
O380 Eu361 2.418 . S
O380 C362 1.244 . S
O381 Eu360 2.488 . S
O381 C369 1.249 . S
O382 Eu360 2.471 . S
O382 C369 1.244 . S
O383 Eu360 2.349 . S
O383 C362 1.265 . S
C384 C385 1.379 . S
C384 C388 1.373 . S
C384 C390 1.505 1_655 S
C385 C384 1.379 . S
C385 C387 1.369 . S
C385 H396 0.927 1_655 S
C386 C388 1.383 . S
C386 C389 1.382 . S
C386 H397 0.930 . S
C387 C385 1.369 . S
C387 C389 1.392 . S
C387 H398 0.930 . S
C388 C384 1.373 . S
C388 C386 1.383 . S
C388 H399 0.931 . S
C389 C386 1.382 . S
C389 C387 1.392 . S
C390 Eu361 2.828 . S
C390 O374 1.249 . S
C390 O375 1.244 . S
C390 C384 1.505 1_455 S
C391 O378 1.258 . S
C391 O379 1.242 . S
H392 C364 0.930 . S
H393 C365 0.930 . S
H394 C366 0.930 . S
H395 C367 0.931 . S
H396 C385 0.927 1_455 S
H397 C386 0.930 . S
H398 C387 0.930 . S
H399 C388 0.931 . S
Eu400 C409 2.828 . S
Eu400 O411 2.392 . S
Eu400 O413 2.418 . S
Eu400 O418 2.373 . S
Eu400 O421 2.488 . S
Eu400 O422 2.471 . S
Eu400 O423 2.349 . S
Eu401 O410 2.373 . S
Eu401 O414 2.488 . S
Eu401 O415 2.471 . S
Eu401 O416 2.349 . S
Eu401 O419 2.392 . S
Eu401 O420 2.418 . S
Eu401 C430 2.828 . S
C402 O420 1.244 . S
C402 O423 1.265 . S
C403 C404 1.379 . S
C403 C407 1.373 . S
C403 C409 1.505 1_545 S
C404 C403 1.379 . S
C404 C406 1.369 . S
C404 H432 0.926 1_545 S
C405 C407 1.383 . S
C405 C408 1.382 . S
C405 H433 0.930 . S
C406 C404 1.369 . S
C406 C408 1.392 . S
C406 H434 0.930 . S
C407 C403 1.373 . S
C407 C405 1.383 . S
C407 H435 0.931 . S
C408 C405 1.382 . S
C408 C406 1.392 . S
C409 Eu400 2.828 . S
C409 C403 1.505 1_565 S
C409 O421 1.249 . S
C409 O422 1.244 . S
O410 Eu401 2.373 . S
O410 C412 1.258 . S
O411 Eu400 2.392 . S
O411 C412 1.242 . S
C412 O410 1.258 . S
C412 O411 1.242 . S
O413 Eu400 2.418 . S
O413 C417 1.244 . S
O414 Eu401 2.488 . S
O414 C430 1.249 . S
O415 Eu401 2.471 . S
O415 C430 1.244 . S
O416 Eu401 2.349 . S
O416 C417 1.265 . S
C417 O413 1.244 . S
C417 O416 1.265 . S
O418 Eu400 2.373 . S
O418 C431 1.258 . S
O419 Eu401 2.392 . S
O419 C431 1.242 . S
O420 Eu401 2.418 . S
O420 C402 1.244 . S
O421 Eu400 2.488 . S
O421 C409 1.249 . S
O422 Eu400 2.471 . S
O422 C409 1.244 . S
O423 Eu400 2.349 . S
O423 C402 1.265 . S
C424 C425 1.379 . S
C424 C428 1.373 . S
C424 C430 1.505 . S
C425 C424 1.379 . S
C425 C427 1.369 . S
C425 H436 0.930 . S
C426 C428 1.383 . S
C426 C429 1.382 . S
C426 H437 0.930 . S
C427 C425 1.369 . S
C427 C429 1.392 . S
C427 H438 0.930 . S
C428 C424 1.373 . S
C428 C426 1.383 . S
C428 H439 0.931 . S
C429 C426 1.382 . S
C429 C427 1.392 . S
C430 Eu401 2.828 . S
C430 O414 1.249 . S
C430 O415 1.244 . S
C430 C424 1.505 . S
C431 O418 1.258 . S
C431 O419 1.242 . S
H432 C404 0.926 1_565 S
H433 C405 0.930 . S
H434 C406 0.930 . S
H435 C407 0.931 . S
H436 C425 0.930 . S
H437 C426 0.930 . S
H438 C427 0.930 . S
H439 C428 0.931 . S
Eu440 C449 2.828 . S
Eu440 O451 2.392 . S
Eu440 O453 2.418 . S
Eu440 O458 2.373 . S
Eu440 O461 2.488 . S
Eu440 O462 2.471 . S
Eu440 O463 2.349 . S
Eu441 O450 2.373 . S
Eu441 O454 2.488 . S
Eu441 O455 2.471 . S
Eu441 O456 2.349 . S
Eu441 O459 2.392 . S
Eu441 O460 2.418 . S
Eu441 C470 2.828 . S
C442 O460 1.244 . S
C442 O463 1.265 . S
C443 C444 1.379 . S
C443 C447 1.373 . S
C443 C449 1.505 . S
C444 C443 1.379 . S
C444 C446 1.369 . S
C444 H472 0.930 . S
C445 C447 1.383 . S
C445 C448 1.382 . S
C445 H473 0.930 . S
C446 C444 1.369 . S
C446 C448 1.392 . S
C446 H474 0.930 . S
C447 C443 1.373 . S
C447 C445 1.383 . S
C447 H475 0.931 . S
C448 C445 1.382 . S
C448 C446 1.392 . S
C449 Eu440 2.828 . S
C449 C443 1.505 . S
C449 O461 1.249 . S
C449 O462 1.244 . S
O450 Eu441 2.373 . S
O450 C452 1.258 . S
O451 Eu440 2.392 . S
O451 C452 1.242 . S
C452 O450 1.258 . S
C452 O451 1.242 . S
O453 Eu440 2.418 . S
O453 C457 1.244 . S
O454 Eu441 2.488 . S
O454 C470 1.249 . S
O455 Eu441 2.471 . S
O455 C470 1.244 . S
O456 Eu441 2.349 . S
O456 C457 1.265 . S
C457 O453 1.244 . S
C457 O456 1.265 . S
O458 Eu440 2.373 . S
O458 C471 1.258 . S
O459 Eu441 2.392 . S
O459 C471 1.242 . S
O460 Eu441 2.418 . S
O460 C442 1.244 . S
O461 Eu440 2.488 . S
O461 C449 1.249 . S
O462 Eu440 2.471 . S
O462 C449 1.244 . S
O463 Eu440 2.349 . S
O463 C442 1.265 . S
C464 C465 1.379 . S
C464 C468 1.373 . S
C464 C470 1.505 . S
C465 C464 1.379 . S
C465 C467 1.369 . S
C465 H476 0.930 . S
C466 C468 1.383 . S
C466 C469 1.382 . S
C466 H477 0.930 . S
C467 C465 1.369 . S
C467 C469 1.392 . S
C467 H478 0.930 . S
C468 C464 1.373 . S
C468 C466 1.383 . S
C468 H479 0.931 . S
C469 C466 1.382 . S
C469 C467 1.392 . S
C470 Eu441 2.828 . S
C470 O454 1.249 . S
C470 O455 1.244 . S
C470 C464 1.505 . S
C471 O458 1.258 . S
C471 O459 1.242 . S
H472 C444 0.930 . S
H473 C445 0.930 . S
H474 C446 0.930 . S
H475 C447 0.931 . S
H476 C465 0.930 . S
H477 C466 0.930 . S
H478 C467 0.930 . S
H479 C468 0.931 . S
C480 C481 1.391 . S
C480 C482 1.394 . S
C480 H496 0.931 . S
C481 C480 1.391 . S
C481 C485 1.376 . S
C482 C480 1.394 . S
C482 C483 1.369 . S
C482 C486 1.531 . S
C483 C482 1.369 . S
C483 C484 1.410 . S
C483 C491 1.503 . S
C484 C483 1.410 . S
C484 C485 1.392 . S
C484 C487 1.511 . S
C485 C481 1.376 . S
C485 C484 1.392 . S
C485 H497 0.929 . S
C486 C482 1.531 . S
C486 H498 0.960 . S
C486 H499 0.962 . S
C486 H500 0.960 . S
C487 C484 1.511 . S
C487 H501 0.961 . S
C487 H502 0.961 . S
C487 H503 0.961 . S
C488 C489 1.370 . S
C488 C490 1.363 . S
C488 H504 0.931 . S
C489 C488 1.370 . S
C489 C493 1.408 . S
C490 C488 1.363 . S
C490 C491 1.370 . S
C490 C494 1.524 . S
C491 C483 1.503 . S
C491 C490 1.370 . S
C491 C492 1.403 . S
C492 C491 1.403 . S
C492 C493 1.404 . S
C492 C495 1.539 . S
C493 C489 1.408 . S
C493 C492 1.404 . S
C493 H505 0.930 . S
C494 C490 1.524 . S
C494 H506 0.956 . S
C494 H507 0.961 . S
C494 H508 0.961 . S
C495 C492 1.539 . S
C495 H509 0.958 . S
C495 H510 0.961 . S
C495 H511 0.960 . S
H496 C480 0.931 . S
H497 C485 0.929 . S
H498 C486 0.960 . S
H499 C486 0.962 . S
H500 C486 0.960 . S
H501 C487 0.961 . S
H502 C487 0.961 . S
H503 C487 0.961 . S
H504 C488 0.931 . S
H505 C493 0.930 . S
H506 C494 0.956 . S
H507 C494 0.961 . S
H508 C494 0.961 . S
H509 C495 0.958 . S
H510 C495 0.961 . S
H511 C495 0.960 . S
C512 C513 1.391 . S
C512 C514 1.394 . S
C512 H528 0.931 . S
C513 C512 1.391 . S
C513 C517 1.376 . S
C514 C512 1.394 . S
C514 C515 1.369 . S
C514 C518 1.531 . S
C515 C514 1.369 . S
C515 C516 1.410 . S
C515 C523 1.503 1_455 S
C516 C515 1.410 . S
C516 C517 1.392 . S
C516 C519 1.511 1_455 S
C517 C513 1.376 . S
C517 C516 1.392 . S
C517 H529 0.929 . S
C518 C514 1.531 . S
C518 H530 0.960 . S
C518 H531 0.962 . S
C518 H532 0.960 . S
C519 C516 1.511 1_655 S
C519 H533 0.961 . S
C519 H534 0.961 . S
C519 H535 0.961 . S
C520 C521 1.370 . S
C520 C522 1.363 . S
C520 H536 0.931 . S
C521 C520 1.370 . S
C521 C525 1.408 . S
C522 C520 1.363 . S
C522 C523 1.370 . S
C522 C526 1.524 . S
C523 C515 1.503 1_655 S
C523 C522 1.370 . S
C523 C524 1.403 . S
C524 C523 1.403 . S
C524 C525 1.404 . S
C524 C527 1.539 . S
C525 C521 1.408 . S
C525 C524 1.404 . S
C525 H537 0.930 . S
C526 C522 1.524 . S
C526 H538 0.956 . S
C526 H539 0.961 . S
C526 H540 0.961 . S
C527 C524 1.539 . S
C527 H541 0.958 . S
C527 H542 0.961 . S
C527 H543 0.960 . S
H528 C512 0.931 . S
H529 C517 0.929 . S
H530 C518 0.960 . S
H531 C518 0.962 . S
H532 C518 0.960 . S
H533 C519 0.961 . S
H534 C519 0.961 . S
H535 C519 0.961 . S
H536 C520 0.931 . S
H537 C525 0.930 . S
H538 C526 0.956 . S
H539 C526 0.961 . S
H540 C526 0.961 . S
H541 C527 0.958 . S
H542 C527 0.961 . S
H543 C527 0.960 . S
C544 C545 1.391 . S
C544 C546 1.394 . S
C544 H560 0.931 . S
C545 C544 1.391 . S
C545 C549 1.376 . S
C546 C544 1.394 . S
C546 C547 1.369 . S
C546 C550 1.531 . S
C547 C546 1.369 . S
C547 C548 1.410 . S
C547 C555 1.503 1_545 S
C548 C547 1.410 . S
C548 C549 1.392 . S
C548 C551 1.511 . S
C549 C545 1.376 . S
C549 C548 1.392 . S
C549 H561 0.929 . S
C550 C546 1.531 . S
C550 H562 0.960 . S
C550 H563 0.962 . S
C550 H564 0.960 . S
C551 C548 1.511 . S
C551 H565 0.961 . S
C551 H566 0.961 1_545 S
C551 H567 0.961 . S
C552 C553 1.370 . S
C552 C554 1.363 . S
C552 H568 0.931 . S
C553 C552 1.370 . S
C553 C557 1.408 . S
C554 C552 1.363 . S
C554 C555 1.370 . S
C554 C558 1.524 . S
C555 C547 1.503 1_565 S
C555 C554 1.370 . S
C555 C556 1.403 . S
C556 C555 1.403 . S
C556 C557 1.404 . S
C556 C559 1.539 1_565 S
C557 C553 1.408 . S
C557 C556 1.404 . S
C557 H569 0.930 . S
C558 C554 1.524 . S
C558 H570 0.956 . S
C558 H571 0.961 . S
C558 H572 0.961 . S
C559 C556 1.539 1_545 S
C559 H573 0.958 . S
C559 H574 0.961 1_545 S
C559 H575 0.960 . S
H560 C544 0.931 . S
H561 C549 0.929 . S
H562 C550 0.960 . S
H563 C550 0.962 . S
H564 C550 0.960 . S
H565 C551 0.961 . S
H566 C551 0.961 1_565 S
H567 C551 0.961 . S
H568 C552 0.931 . S
H569 C557 0.930 . S
H570 C558 0.956 . S
H571 C558 0.961 . S
H572 C558 0.961 . S
H573 C559 0.958 . S
H574 C559 0.961 1_565 S
H575 C559 0.960 . S
C576 C577 1.391 . S
C576 C578 1.394 . S
C576 H592 0.931 . S
C577 C576 1.391 . S
C577 C581 1.376 . S
C578 C576 1.394 . S
C578 C579 1.369 . S
C578 C582 1.531 . S
C579 C578 1.369 . S
C579 C580 1.410 . S
C579 C587 1.503 . S
C580 C579 1.410 . S
C580 C581 1.392 . S
C580 C583 1.511 . S
C581 C577 1.376 . S
C581 C580 1.392 . S
C581 H593 0.929 . S
C582 C578 1.531 . S
C582 H594 0.960 . S
C582 H595 0.962 . S
C582 H596 0.960 . S
C583 C580 1.511 . S
C583 H597 0.961 . S
C583 H598 0.961 . S
C583 H599 0.961 . S
C584 C585 1.370 . S
C584 C586 1.363 . S
C584 H600 0.931 . S
C585 C584 1.370 . S
C585 C589 1.408 . S
C586 C584 1.363 . S
C586 C587 1.370 . S
C586 C590 1.524 . S
C587 C579 1.503 . S
C587 C586 1.370 . S
C587 C588 1.403 . S
C588 C587 1.403 . S
C588 C589 1.404 . S
C588 C591 1.539 . S
C589 C585 1.408 . S
C589 C588 1.404 . S
C589 H601 0.930 . S
C590 C586 1.524 . S
C590 H602 0.956 . S
C590 H603 0.961 . S
C590 H604 0.961 . S
C591 C588 1.539 . S
C591 H605 0.958 . S
C591 H606 0.961 . S
C591 H607 0.960 . S
H592 C576 0.931 . S
H593 C581 0.929 . S
H594 C582 0.960 . S
H595 C582 0.962 . S
H596 C582 0.960 . S
H597 C583 0.961 . S
H598 C583 0.961 . S
H599 C583 0.961 . S
H600 C584 0.931 . S
H601 C589 0.930 . S
H602 C590 0.956 . S
H603 C590 0.961 . S
H604 C590 0.961 . S
H605 C591 0.958 . S
H606 C591 0.961 . S
H607 C591 0.960 . S
C608 C609 1.391 . S
C608 C610 1.394 . S
C608 H624 0.931 . S
C609 C608 1.391 . S
C609 C613 1.376 . S
C610 C608 1.394 . S
C610 C611 1.369 . S
C610 C614 1.531 . S
C611 C610 1.369 . S
C611 C612 1.410 . S
C611 C619 1.503 1_455 S
C612 C611 1.410 . S
C612 C613 1.392 . S
C612 C615 1.511 1_455 S
C613 C609 1.376 . S
C613 C612 1.392 . S
C613 H625 0.929 . S
C614 C610 1.531 . S
C614 H626 0.960 . S
C614 H627 0.962 . S
C614 H628 0.960 . S
C615 C612 1.511 1_655 S
C615 H629 0.961 . S
C615 H630 0.961 . S
C615 H631 0.961 . S
C616 C617 1.370 . S
C616 C618 1.363 . S
C616 H632 0.931 . S
C617 C616 1.370 . S
C617 C621 1.408 . S
C618 C616 1.363 . S
C618 C619 1.370 . S
C618 C622 1.524 . S
C619 C611 1.503 1_655 S
C619 C618 1.370 . S
C619 C620 1.403 . S
C620 C619 1.403 . S
C620 C621 1.404 . S
C620 C623 1.539 . S
C621 C617 1.408 . S
C621 C620 1.404 . S
C621 H633 0.930 . S
C622 C618 1.524 . S
C622 H634 0.956 1_655 S
C622 H635 0.961 . S
C622 H636 0.961 . S
C623 C620 1.539 . S
C623 H637 0.958 . S
C623 H638 0.961 . S
C623 H639 0.960 . S
H624 C608 0.931 . S
H625 C613 0.929 . S
H626 C614 0.960 . S
H627 C614 0.962 . S
H628 C614 0.960 . S
H629 C615 0.961 . S
H630 C615 0.961 . S
H631 C615 0.961 . S
H632 C616 0.931 . S
H633 C621 0.930 . S
H634 C622 0.956 1_455 S
H635 C622 0.961 . S
H636 C622 0.961 . S
H637 C623 0.958 . S
H638 C623 0.961 . S
H639 C623 0.960 . S
C640 C641 1.391 . S
C640 C642 1.394 . S
C640 H656 0.931 . S
C641 C640 1.391 . S
C641 C645 1.376 . S
C642 C640 1.394 . S
C642 C643 1.369 . S
C642 C646 1.531 1_565 S
C643 C642 1.369 . S
C643 C644 1.410 . S
C643 C651 1.503 1_565 S
C644 C643 1.410 . S
C644 C645 1.392 . S
C644 C647 1.511 . S
C645 C641 1.376 . S
C645 C644 1.392 . S
C645 H657 0.929 . S
C646 C642 1.531 1_545 S
C646 H658 0.960 . S
C646 H659 0.962 . S
C646 H660 0.953 1_545 S
C647 C644 1.511 . S
C647 H661 0.961 . S
C647 H662 0.961 . S
C647 H663 0.961 . S
C648 C649 1.370 . S
C648 C650 1.363 . S
C648 H664 0.931 . S
C649 C648 1.370 . S
C649 C653 1.408 . S
C650 C648 1.363 . S
C650 C651 1.370 . S
C650 C654 1.524 . S
C651 C643 1.503 1_545 S
C651 C650 1.370 . S
C651 C652 1.403 . S
C652 C651 1.403 . S
C652 C653 1.404 . S
C652 C655 1.539 . S
C653 C649 1.408 . S
C653 C652 1.404 . S
C653 H665 0.930 . S
C654 C650 1.524 . S
C654 H666 0.956 . S
C654 H667 0.965 . S
C654 H668 0.961 . S
C655 C652 1.539 . S
C655 H669 0.958 . S
C655 H670 0.961 . S
C655 H671 0.960 1_545 S
H656 C640 0.931 . S
H657 C645 0.929 . S
H658 C646 0.960 . S
H659 C646 0.962 . S
H660 C646 0.953 1_565 S
H661 C647 0.961 . S
H662 C647 0.961 . S
H663 C647 0.961 . S
H664 C648 0.931 . S
H665 C653 0.930 . S
H666 C654 0.956 . S
H667 C654 0.965 . S
H668 C654 0.961 . S
H669 C655 0.958 . S
H670 C655 0.961 . S
H671 C655 0.960 1_565 S
C672 C673 1.391 . S
C672 C674 1.394 . S
C672 H688 0.931 . S
C673 C672 1.391 . S
C673 C677 1.376 . S
C674 C672 1.394 . S
C674 C675 1.369 . S
C674 C678 1.531 . S
C675 C674 1.369 . S
C675 C676 1.410 . S
C675 C683 1.503 . S
C676 C675 1.410 . S
C676 C677 1.392 . S
C676 C679 1.511 . S
C677 C673 1.376 . S
C677 C676 1.392 . S
C677 H689 0.929 . S
C678 C674 1.531 . S
C678 H690 0.960 . S
C678 H691 0.962 . S
C678 H692 0.960 . S
C679 C676 1.511 . S
C679 H693 0.961 . S
C679 H694 0.961 . S
C679 H695 0.961 . S
C680 C681 1.370 . S
C680 C682 1.363 . S
C680 H696 0.931 . S
C681 C680 1.370 . S
C681 C685 1.408 . S
C682 C680 1.363 . S
C682 C683 1.370 . S
C682 C686 1.524 . S
C683 C675 1.503 . S
C683 C682 1.370 . S
C683 C684 1.403 . S
C684 C683 1.403 . S
C684 C685 1.404 . S
C684 C687 1.539 . S
C685 C681 1.408 . S
C685 C684 1.404 . S
C685 H697 0.930 . S
C686 C682 1.524 . S
C686 H698 0.956 . S
C686 H699 0.961 . S
C686 H700 0.961 . S
C687 C684 1.539 . S
C687 H701 0.958 . S
C687 H702 0.961 . S
C687 H703 0.960 . S
H688 C672 0.931 . S
H689 C677 0.929 . S
H690 C678 0.960 . S
H691 C678 0.962 . S
H692 C678 0.960 . S
H693 C679 0.961 . S
H694 C679 0.961 . S
H695 C679 0.961 . S
H696 C680 0.931 . S
H697 C685 0.930 . S
H698 C686 0.956 . S
H699 C686 0.961 . S
H700 C686 0.961 . S
H701 C687 0.958 . S
H702 C687 0.961 . S
H703 C687 0.960 . S
C704 C705 1.391 . S
C704 C706 1.394 . S
C704 H720 0.931 . S
C705 C704 1.391 . S
C705 C709 1.376 . S
C706 C704 1.394 . S
C706 C707 1.369 . S
C706 C710 1.531 . S
C707 C706 1.369 . S
C707 C708 1.410 . S
C707 C715 1.503 1_455 S
C708 C707 1.410 . S
C708 C709 1.392 . S
C708 C711 1.511 . S
C709 C705 1.376 . S
C709 C708 1.392 . S
C709 H721 0.929 . S
C710 C706 1.531 . S
C710 H722 0.960 . S
C710 H723 0.962 . S
C710 H724 0.960 . S
C711 C708 1.511 . S
C711 H725 0.961 . S
C711 H726 0.961 1_455 S
C711 H727 0.961 . S
C712 C713 1.370 . S
C712 C714 1.363 . S
C712 H728 0.931 . S
C713 C712 1.370 . S
C713 C717 1.408 . S
C714 C712 1.363 . S
C714 C715 1.370 . S
C714 C718 1.524 . S
C715 C707 1.503 1_655 S
C715 C714 1.370 . S
C715 C716 1.403 . S
C716 C715 1.403 . S
C716 C717 1.404 . S
C716 C719 1.539 . S
C717 C713 1.408 . S
C717 C716 1.404 . S
C717 H729 0.930 . S
C718 C714 1.524 . S
C718 H730 0.956 . S
C718 H731 0.961 . S
C718 H732 0.961 . S
C719 C716 1.539 . S
C719 H733 0.958 1_655 S
C719 H734 0.961 . S
C719 H735 0.960 1_655 S
H720 C704 0.931 . S
H721 C709 0.929 . S
H722 C710 0.960 . S
H723 C710 0.962 . S
H724 C710 0.960 . S
H725 C711 0.961 . S
H726 C711 0.961 1_655 S
H727 C711 0.961 . S
H728 C712 0.931 . S
H729 C717 0.930 . S
H730 C718 0.956 . S
H731 C718 0.961 . S
H732 C718 0.961 . S
H733 C719 0.958 1_455 S
H734 C719 0.961 . S
H735 C719 0.960 1_455 S
C736 C737 1.391 . S
C736 C738 1.394 . S
C736 H752 0.931 . S
C737 C736 1.391 . S
C737 C741 1.376 . S
C738 C736 1.394 . S
C738 C739 1.369 . S
C738 C742 1.531 . S
C739 C738 1.369 . S
C739 C740 1.410 . S
C739 C747 1.503 1_565 S
C740 C739 1.410 . S
C740 C741 1.392 . S
C740 C743 1.511 . S
C741 C737 1.376 . S
C741 C740 1.392 . S
C741 H753 0.929 . S
C742 C738 1.531 . S
C742 H754 0.960 1_565 S
C742 H755 0.962 1_565 S
C742 H756 0.960 . S
C743 C740 1.511 . S
C743 H757 0.961 . S
C743 H758 0.961 . S
C743 H759 0.961 . S
C744 C745 1.370 . S
C744 C746 1.363 . S
C744 H760 0.931 . S
C745 C744 1.370 . S
C745 C749 1.408 . S
C746 C744 1.363 . S
C746 C747 1.370 . S
C746 C750 1.524 . S
C747 C739 1.503 1_545 S
C747 C746 1.370 . S
C747 C748 1.403 . S
C748 C747 1.403 . S
C748 C749 1.404 . S
C748 C751 1.539 . S
C749 C745 1.408 . S
C749 C748 1.404 . S
C749 H761 0.930 . S
C750 C746 1.524 . S
C750 H762 0.956 . S
C750 H763 0.987 . S
C750 H764 0.961 . S
C751 C748 1.539 . S
C751 H765 0.958 . S
C751 H766 0.961 . S
C751 H767 0.960 1_545 S
H752 C736 0.931 . S
H753 C741 0.929 . S
H754 C742 0.960 1_545 S
H755 C742 0.962 1_545 S
H756 C742 0.960 . S
H757 C743 0.961 . S
H758 C743 0.961 . S
H759 C743 0.961 . S
H760 C744 0.931 . S
H761 C749 0.930 . S
H762 C750 0.956 . S
H763 C750 0.987 . S
H764 C750 0.961 . S
H765 C751 0.958 . S
H766 C751 0.961 . S
H767 C751 0.960 1_565 S
C768 C769 1.391 . S
C768 C770 1.394 . S
C768 H784 0.931 . S
C769 C768 1.391 . S
C769 C773 1.376 . S
C770 C768 1.394 . S
C770 C771 1.369 . S
C770 C774 1.531 . S
C771 C770 1.369 . S
C771 C772 1.410 . S
C771 C779 1.503 . S
C772 C771 1.410 . S
C772 C773 1.392 . S
C772 C775 1.511 . S
C773 C769 1.376 . S
C773 C772 1.392 . S
C773 H785 0.929 . S
C774 C770 1.531 . S
C774 H786 0.960 . S
C774 H787 0.962 . S
C774 H788 0.960 . S
C775 C772 1.511 . S
C775 H789 0.961 . S
C775 H790 0.961 . S
C775 H791 0.961 . S
C776 C777 1.370 . S
C776 C778 1.363 . S
C776 H792 0.931 . S
C777 C776 1.370 . S
C777 C781 1.408 . S
C778 C776 1.363 . S
C778 C779 1.370 . S
C778 C782 1.524 . S
C779 C771 1.503 . S
C779 C778 1.370 . S
C779 C780 1.403 . S
C780 C779 1.403 . S
C780 C781 1.404 . S
C780 C783 1.539 . S
C781 C777 1.408 . S
C781 C780 1.404 . S
C781 H793 0.930 . S
C782 C778 1.524 . S
C782 H794 0.956 . S
C782 H795 0.961 . S
C782 H796 0.961 . S
C783 C780 1.539 . S
C783 H797 0.958 . S
C783 H798 0.961 . S
C783 H799 0.960 . S
H784 C768 0.931 . S
H785 C773 0.929 . S
H786 C774 0.960 . S
H787 C774 0.962 . S
H788 C774 0.960 . S
H789 C775 0.961 . S
H790 C775 0.961 . S
H791 C775 0.961 . S
H792 C776 0.931 . S
H793 C781 0.930 . S
H794 C782 0.956 . S
H795 C782 0.961 . S
H796 C782 0.961 . S
H797 C783 0.958 . S
H798 C783 0.961 . S
H799 C783 0.960 . S
C800 C801 1.391 . S
C800 C802 1.394 . S
C800 H816 0.931 . S
C801 C800 1.391 . S
C801 C805 1.376 . S
C802 C800 1.394 . S
C802 C803 1.369 . S
C802 C806 1.531 . S
C803 C802 1.369 . S
C803 C804 1.410 . S
C803 C811 1.503 1_455 S
C804 C803 1.410 . S
C804 C805 1.392 . S
C804 C807 1.511 . S
C805 C801 1.376 . S
C805 C804 1.392 . S
C805 H817 0.929 . S
C806 C802 1.531 . S
C806 H818 0.960 1_455 S
C806 H819 0.962 . S
C806 H820 0.960 . S
C807 C804 1.511 . S
C807 H821 0.961 . S
C807 H822 0.930 1_455 S
C807 H823 0.961 . S
C808 C809 1.370 . S
C808 C810 1.363 . S
C808 H824 0.931 . S
C809 C808 1.370 . S
C809 C813 1.408 . S
C810 C808 1.363 . S
C810 C811 1.370 . S
C810 C814 1.524 1_655 S
C811 C803 1.503 1_655 S
C811 C810 1.370 . S
C811 C812 1.403 . S
C812 C811 1.403 . S
C812 C813 1.404 . S
C812 C815 1.539 . S
C813 C809 1.408 . S
C813 C812 1.404 . S
C813 H825 0.930 . S
C814 C810 1.524 1_455 S
C814 H826 0.956 . S
C814 H827 0.961 . S
C814 H828 0.961 . S
C815 C812 1.539 . S
C815 H829 0.958 . S
C815 H830 0.961 . S
C815 H831 0.960 . S
H816 C800 0.931 . S
H817 C805 0.929 . S
H818 C806 0.960 1_655 S
H819 C806 0.962 . S
H820 C806 0.960 . S
H821 C807 0.961 . S
H822 C807 0.930 1_655 S
H823 C807 0.961 . S
H824 C808 0.931 . S
H825 C813 0.930 . S
H826 C814 0.956 . S
H827 C814 0.961 . S
H828 C814 0.961 . S
H829 C815 0.958 . S
H830 C815 0.961 . S
H831 C815 0.960 . S
C832 C833 1.391 . S
C832 C834 1.394 . S
C832 H848 0.931 . S
C833 C832 1.391 . S
C833 C837 1.376 . S
C834 C832 1.394 . S
C834 C835 1.369 . S
C834 C838 1.531 1_545 S
C835 C834 1.369 . S
C835 C836 1.410 . S
C835 C843 1.503 1_545 S
C836 C835 1.410 . S
C836 C837 1.392 . S
C836 C839 1.511 . S
C837 C833 1.376 . S
C837 C836 1.392 . S
C837 H849 0.929 . S
C838 C834 1.531 1_565 S
C838 H850 0.960 . S
C838 H851 0.962 . S
C838 H852 0.960 1_565 S
C839 C836 1.511 . S
C839 H853 0.961 . S
C839 H854 0.961 . S
C839 H855 0.961 . S
C840 C841 1.370 . S
C840 C842 1.363 . S
C840 H856 0.931 . S
C841 C840 1.370 . S
C841 C845 1.408 . S
C842 C840 1.363 . S
C842 C843 1.370 . S
C842 C846 1.524 . S
C843 C835 1.503 1_565 S
C843 C842 1.370 . S
C843 C844 1.403 . S
C844 C843 1.403 . S
C844 C845 1.404 . S
C844 C847 1.539 . S
C845 C841 1.408 . S
C845 C844 1.404 . S
C845 H857 0.930 . S
C846 C842 1.524 . S
C846 H858 0.956 . S
C846 H859 0.961 . S
C846 H860 0.961 . S
C847 C844 1.539 . S
C847 H861 0.958 . S
C847 H862 0.961 . S
C847 H863 0.960 1_565 S
H848 C832 0.931 . S
H849 C837 0.929 . S
H850 C838 0.960 . S
H851 C838 0.962 . S
H852 C838 0.960 1_545 S
H853 C839 0.961 . S
H854 C839 0.961 . S
H855 C839 0.961 . S
H856 C840 0.931 . S
H857 C845 0.930 . S
H858 C846 0.956 . S
H859 C846 0.961 . S
H860 C846 0.961 . S
H861 C847 0.958 . S
H862 C847 0.961 . S
H863 C847 0.960 1_545 S
C864 C865 1.391 . S
C864 C866 1.394 . S
C864 H880 0.931 . S
C865 C864 1.391 . S
C865 C869 1.376 . S
C866 C864 1.394 . S
C866 C867 1.369 . S
C866 C870 1.531 . S
C867 C866 1.369 . S
C867 C868 1.410 . S
C867 C875 1.503 . S
C868 C867 1.410 . S
C868 C869 1.392 . S
C868 C871 1.511 . S
C869 C865 1.376 . S
C869 C868 1.392 . S
C869 H881 0.929 . S
C870 C866 1.531 . S
C870 H882 0.960 . S
C870 H883 0.962 . S
C870 H884 0.960 . S
C871 C868 1.511 . S
C871 H885 0.961 . S
C871 H886 0.961 . S
C871 H887 0.961 . S
C872 C873 1.370 . S
C872 C874 1.363 . S
C872 H888 0.931 . S
C873 C872 1.370 . S
C873 C877 1.408 . S
C874 C872 1.363 . S
C874 C875 1.370 . S
C874 C878 1.524 . S
C875 C867 1.503 . S
C875 C874 1.370 . S
C875 C876 1.403 . S
C876 C875 1.403 . S
C876 C877 1.404 . S
C876 C879 1.539 . S
C877 C873 1.408 . S
C877 C876 1.404 . S
C877 H889 0.930 . S
C878 C874 1.524 . S
C878 H890 0.956 . S
C878 H891 0.961 . S
C878 H892 0.961 . S
C879 C876 1.539 . S
C879 H893 0.958 . S
C879 H894 0.961 . S
C879 H895 0.960 . S
H880 C864 0.931 . S
H881 C869 0.929 . S
H882 C870 0.960 . S
H883 C870 0.962 . S
H884 C870 0.960 . S
H885 C871 0.961 . S
H886 C871 0.961 . S
H887 C871 0.961 . S
H888 C872 0.931 . S
H889 C877 0.930 . S
H890 C878 0.956 . S
H891 C878 0.961 . S
H892 C878 0.961 . S
H893 C879 0.958 . S
H894 C879 0.961 . S
H895 C879 0.960 . S
C896 C897 1.391 . S
C896 C898 1.394 . S
C896 H912 0.931 . S
C897 C896 1.391 . S
C897 C901 1.376 . S
C898 C896 1.394 . S
C898 C899 1.369 . S
C898 C902 1.531 . S
C899 C898 1.369 . S
C899 C900 1.410 . S
C899 C907 1.503 . S
C900 C899 1.410 . S
C900 C901 1.392 . S
C900 C903 1.511 . S
C901 C897 1.376 . S
C901 C900 1.392 . S
C901 H913 0.929 . S
C902 C898 1.531 . S
C902 H914 0.960 . S
C902 H915 0.962 . S
C902 H916 0.960 . S
C903 C900 1.511 . S
C903 H917 0.961 . S
C903 H918 0.961 . S
C903 H919 0.961 . S
C904 C905 1.370 . S
C904 C906 1.363 . S
C904 H920 0.931 . S
C905 C904 1.370 . S
C905 C909 1.408 . S
C906 C904 1.363 . S
C906 C907 1.370 . S
C906 C910 1.524 . S
C907 C899 1.503 . S
C907 C906 1.370 . S
C907 C908 1.403 . S
C908 C907 1.403 . S
C908 C909 1.404 . S
C908 C911 1.539 . S
C909 C905 1.408 . S
C909 C908 1.404 . S
C909 H921 0.930 . S
C910 C906 1.524 . S
C910 H922 0.956 . S
C910 H923 0.961 . S
C910 H924 0.961 . S
C911 C908 1.539 . S
C911 H925 0.958 . S
C911 H926 0.961 . S
C911 H927 0.960 . S
H912 C896 0.931 . S
H913 C901 0.929 . S
H914 C902 0.960 . S
H915 C902 0.962 . S
H916 C902 0.960 . S
H917 C903 0.961 . S
H918 C903 0.961 . S
H919 C903 0.961 . S
H920 C904 0.931 . S
H921 C909 0.930 . S
H922 C910 0.956 . S
H923 C910 0.961 . S
H924 C910 0.961 . S
H925 C911 0.958 . S
H926 C911 0.961 . S
H927 C911 0.960 . S
C928 C929 1.391 . S
C928 C930 1.394 . S
C928 H944 0.931 . S
C929 C928 1.391 . S
C929 C933 1.376 . S
C930 C928 1.394 . S
C930 C931 1.369 . S
C930 C934 1.531 . S
C931 C930 1.369 . S
C931 C932 1.410 . S
C931 C939 1.503 . S
C932 C931 1.410 . S
C932 C933 1.392 . S
C932 C935 1.511 . S
C933 C929 1.376 . S
C933 C932 1.392 . S
C933 H945 0.929 . S
C934 C930 1.531 . S
C934 H946 0.960 . S
C934 H947 0.962 . S
C934 H948 0.960 . S
C935 C932 1.511 . S
C935 H949 0.961 . S
C935 H950 0.961 . S
C935 H951 0.961 . S
C936 C937 1.370 . S
C936 C938 1.363 . S
C936 H952 0.931 . S
C937 C936 1.370 . S
C937 C941 1.408 . S
C938 C936 1.363 . S
C938 C939 1.370 . S
C938 C942 1.524 . S
C939 C931 1.503 . S
C939 C938 1.370 . S
C939 C940 1.403 . S
C940 C939 1.403 . S
C940 C941 1.404 . S
C940 C943 1.539 . S
C941 C937 1.408 . S
C941 C940 1.404 . S
C941 H953 0.930 . S
C942 C938 1.524 . S
C942 H954 0.956 . S
C942 H955 0.961 . S
C942 H956 0.961 . S
C943 C940 1.539 . S
C943 H957 0.958 . S
C943 H958 0.961 . S
C943 H959 0.960 . S
H944 C928 0.931 . S
H945 C933 0.929 . S
H946 C934 0.960 . S
H947 C934 0.962 . S
H948 C934 0.960 . S
H949 C935 0.961 . S
H950 C935 0.961 . S
H951 C935 0.961 . S
H952 C936 0.931 . S
H953 C941 0.930 . S
H954 C942 0.956 . S
H955 C942 0.961 . S
H956 C942 0.961 . S
H957 C943 0.958 . S
H958 C943 0.961 . S
H959 C943 0.960 . S
C960 C961 1.391 . S
C960 C962 1.394 . S
C960 H976 0.931 . S
C961 C960 1.391 . S
C961 C965 1.376 . S
C962 C960 1.394 . S
C962 C963 1.369 . S
C962 C966 1.531 . S
C963 C962 1.369 . S
C963 C964 1.410 . S
C963 C971 1.503 . S
C964 C963 1.410 . S
C964 C965 1.392 . S
C964 C967 1.511 . S
C965 C961 1.376 . S
C965 C964 1.392 . S
C965 H977 0.929 . S
C966 C962 1.531 . S
C966 H978 0.960 . S
C966 H979 0.962 . S
C966 H980 0.960 . S
C967 C964 1.511 . S
C967 H981 0.961 . S
C967 H982 0.961 . S
C967 H983 0.961 . S
C968 C969 1.370 . S
C968 C970 1.363 . S
C968 H984 0.931 . S
C969 C968 1.370 . S
C969 C973 1.408 . S
C970 C968 1.363 . S
C970 C971 1.370 . S
C970 C974 1.524 . S
C971 C963 1.503 . S
C971 C970 1.370 . S
C971 C972 1.403 . S
C972 C971 1.403 . S
C972 C973 1.404 . S
C972 C975 1.539 . S
C973 C969 1.408 . S
C973 C972 1.404 . S
C973 H985 0.930 . S
C974 C970 1.524 . S
C974 H986 0.956 . S
C974 H987 0.961 . S
C974 H988 0.961 . S
C975 C972 1.539 . S
C975 H989 0.958 . S
C975 H990 0.961 . S
C975 H991 0.960 . S
H976 C960 0.931 . S
H977 C965 0.929 . S
H978 C966 0.960 . S
H979 C966 0.962 . S
H980 C966 0.960 . S
H981 C967 0.961 . S
H982 C967 0.961 . S
H983 C967 0.961 . S
H984 C968 0.931 . S
H985 C973 0.930 . S
H986 C974 0.956 . S
H987 C974 0.961 . S
H988 C974 0.961 . S
H989 C975 0.958 . S
H990 C975 0.961 . S
H991 C975 0.960 . S
C992 C993 1.391 . S
C992 C994 1.394 . S
C992 H1008 0.931 . S
C993 C992 1.391 . S
C993 C997 1.376 . S
C994 C992 1.394 . S
C994 C995 1.369 . S
C994 C998 1.531 . S
C995 C994 1.369 . S
C995 C996 1.410 . S
C995 C1003 1.503 . S
C996 C995 1.410 . S
C996 C997 1.392 . S
C996 C999 1.511 . S
C997 C993 1.376 . S
C997 C996 1.392 . S
C997 H1009 0.929 . S
C998 C994 1.531 . S
C998 H1010 0.960 . S
C998 H1011 0.962 . S
C998 H1012 0.960 . S
C999 C996 1.511 . S
C999 H1013 0.961 . S
C999 H1014 0.961 . S
C999 H1015 0.961 . S
C1000 C1001 1.370 . S
C1000 C1002 1.363 . S
C1000 H1016 0.931 . S
C1001 C1000 1.370 . S
C1001 C1005 1.408 . S
C1002 C1000 1.363 . S
C1002 C1003 1.370 . S
C1002 C1006 1.524 . S
C1003 C995 1.503 . S
C1003 C1002 1.370 . S
C1003 C1004 1.403 . S
C1004 C1003 1.403 . S
C1004 C1005 1.404 . S
C1004 C1007 1.539 . S
C1005 C1001 1.408 . S
C1005 C1004 1.404 . S
C1005 H1017 0.930 . S
C1006 C1002 1.524 . S
C1006 H1018 0.956 . S
C1006 H1019 0.961 . S
C1006 H1020 0.961 . S
C1007 C1004 1.539 . S
C1007 H1021 0.958 . S
C1007 H1022 0.961 . S
C1007 H1023 0.960 . S
H1008 C992 0.931 . S
H1009 C997 0.929 . S
H1010 C998 0.960 . S
H1011 C998 0.962 . S
H1012 C998 0.960 . S
H1013 C999 0.961 . S
H1014 C999 0.961 . S
H1015 C999 0.961 . S
H1016 C1000 0.931 . S
H1017 C1005 0.930 . S
H1018 C1006 0.956 . S
H1019 C1006 0.961 . S
H1020 C1006 0.961 . S
H1021 C1007 0.958 . S
H1022 C1007 0.961 . S
H1023 C1007 0.960 . S
C1024 C1025 1.391 . S
C1024 C1026 1.394 . S
C1024 H1040 0.931 . S
C1025 C1024 1.391 . S
C1025 C1029 1.376 . S
C1026 C1024 1.394 . S
C1026 C1027 1.369 . S
C1026 C1030 1.531 . S
C1027 C1026 1.369 . S
C1027 C1028 1.410 . S
C1027 C1035 1.503 . S
C1028 C1027 1.410 . S
C1028 C1029 1.392 . S
C1028 C1031 1.511 . S
C1029 C1025 1.376 . S
C1029 C1028 1.392 . S
C1029 H1041 0.929 . S
C1030 C1026 1.531 . S
C1030 H1042 0.960 . S
C1030 H1043 0.962 . S
C1030 H1044 0.960 . S
C1031 C1028 1.511 . S
C1031 H1045 0.961 . S
C1031 H1046 0.961 . S
C1031 H1047 0.961 . S
C1032 C1033 1.370 . S
C1032 C1034 1.363 . S
C1032 H1048 0.931 . S
C1033 C1032 1.370 . S
C1033 C1037 1.408 . S
C1034 C1032 1.363 . S
C1034 C1035 1.370 . S
C1034 C1038 1.524 . S
C1035 C1027 1.503 . S
C1035 C1034 1.370 . S
C1035 C1036 1.403 . S
C1036 C1035 1.403 . S
C1036 C1037 1.404 . S
C1036 C1039 1.539 . S
C1037 C1033 1.408 . S
C1037 C1036 1.404 . S
C1037 H1049 0.930 . S
C1038 C1034 1.524 . S
C1038 H1050 0.956 . S
C1038 H1051 0.961 . S
C1038 H1052 0.961 . S
C1039 C1036 1.539 . S
C1039 H1053 0.958 . S
C1039 H1054 0.961 . S
C1039 H1055 0.960 . S
H1040 C1024 0.931 . S
H1041 C1029 0.929 . S
H1042 C1030 0.960 . S
H1043 C1030 0.962 . S
H1044 C1030 0.960 . S
H1045 C1031 0.961 . S
H1046 C1031 0.961 . S
H1047 C1031 0.961 . S
H1048 C1032 0.931 . S
H1049 C1037 0.930 . S
H1050 C1038 0.956 . S
H1051 C1038 0.961 . S
H1052 C1038 0.961 . S
H1053 C1039 0.958 . S
H1054 C1039 0.961 . S
H1055 C1039 0.960 . S
C1056 C1057 1.391 . S
C1056 C1058 1.394 . S
C1056 H1072 0.931 . S
C1057 C1056 1.391 . S
C1057 C1061 1.376 . S
C1058 C1056 1.394 . S
C1058 C1059 1.369 . S
C1058 C1062 1.530 1_565 S
C1059 C1058 1.369 . S
C1059 C1060 1.410 . S
C1059 C1067 1.503 1_566 S
C1060 C1059 1.410 . S
C1060 C1061 1.392 . S
C1060 C1063 1.511 . S
C1061 C1057 1.376 . S
C1061 C1060 1.392 . S
C1061 H1073 0.929 . S
C1062 C1058 1.530 1_545 S
C1062 H1074 0.970 . S
C1062 H1075 0.956 1_545 S
C1062 H1076 0.957 1_545 S
C1063 C1060 1.511 . S
C1063 H1077 0.958 1_556 S
C1063 H1078 0.961 1_556 S
C1063 H1079 0.961 . S
C1064 C1065 1.370 . S
C1064 C1066 1.363 . S
C1064 H1080 0.931 . S
C1065 C1064 1.370 . S
C1065 C1069 1.408 . S
C1066 C1064 1.363 . S
C1066 C1067 1.370 . S
C1066 C1070 1.524 1_545 S
C1067 C1059 1.503 1_544 S
C1067 C1066 1.370 . S
C1067 C1068 1.403 1_554 S
C1068 C1067 1.403 1_556 S
C1068 C1069 1.404 1_556 S
C1068 C1071 1.539 . S
C1069 C1065 1.408 . S
C1069 C1068 1.404 1_554 S
C1069 H1081 0.930 . S
C1070 C1066 1.524 1_565 S
C1070 H1082 0.956 . S
C1070 H1083 0.961 . S
C1070 H1084 0.961 . S
C1071 C1068 1.539 . S
C1071 H1085 0.958 . S
C1071 H1086 0.961 . S
C1071 H1087 0.960 . S
H1072 C1056 0.931 . S
H1073 C1061 0.929 . S
H1074 C1062 0.970 . S
H1075 C1062 0.956 1_565 S
H1076 C1062 0.957 1_565 S
H1077 C1063 0.958 1_554 S
H1078 C1063 0.961 1_554 S
H1079 C1063 0.961 . S
H1080 C1064 0.931 . S
H1081 C1069 0.930 . S
H1082 C1070 0.956 . S
H1083 C1070 0.961 . S
H1084 C1070 0.961 . S
H1085 C1071 0.958 . S
H1086 C1071 0.961 . S
H1087 C1071 0.960 . S
C1088 C1089 1.391 . S
C1088 C1090 1.394 . S
C1088 H1104 0.931 . S
C1089 C1088 1.391 . S
C1089 C1093 1.376 . S
C1090 C1088 1.394 . S
C1090 C1091 1.369 . S
C1090 C1094 1.531 . S
C1091 C1090 1.369 . S
C1091 C1092 1.410 . S
C1091 C1099 1.503 . S
C1092 C1091 1.410 . S
C1092 C1093 1.392 . S
C1092 C1095 1.511 . S
C1093 C1089 1.376 . S
C1093 C1092 1.392 . S
C1093 H1105 0.929 . S
C1094 C1090 1.531 . S
C1094 H1106 0.960 . S
C1094 H1107 0.962 . S
C1094 H1108 0.960 . S
C1095 C1092 1.511 . S
C1095 H1109 0.961 . S
C1095 H1110 0.961 . S
C1095 H1111 0.961 . S
C1096 C1097 1.370 . S
C1096 C1098 1.363 . S
C1096 H1112 0.931 . S
C1097 C1096 1.370 . S
C1097 C1101 1.408 . S
C1098 C1096 1.363 . S
C1098 C1099 1.370 . S
C1098 C1102 1.524 . S
C1099 C1091 1.503 . S
C1099 C1098 1.370 . S
C1099 C1100 1.403 . S
C1100 C1099 1.403 . S
C1100 C1101 1.404 . S
C1100 C1103 1.539 . S
C1101 C1097 1.408 . S
C1101 C1100 1.404 . S
C1101 H1113 0.930 . S
C1102 C1098 1.524 . S
C1102 H1114 0.956 . S
C1102 H1115 0.961 . S
C1102 H1116 0.961 . S
C1103 C1100 1.539 . S
C1103 H1117 0.958 . S
C1103 H1118 0.961 . S
C1103 H1119 0.960 . S
H1104 C1088 0.931 . S
H1105 C1093 0.929 . S
H1106 C1094 0.960 . S
H1107 C1094 0.962 . S
H1108 C1094 0.960 . S
H1109 C1095 0.961 . S
H1110 C1095 0.961 . S
H1111 C1095 0.961 . S
H1112 C1096 0.931 . S
H1113 C1101 0.930 . S
H1114 C1102 0.956 . S
H1115 C1102 0.961 . S
H1116 C1102 0.961 . S
H1117 C1103 0.958 . S
H1118 C1103 0.961 . S
H1119 C1103 0.960 . S
C1120 C1121 1.391 . S
C1120 C1122 1.394 . S
C1120 H1136 0.931 . S
C1121 C1120 1.391 . S
C1121 C1125 1.376 . S
C1122 C1120 1.394 . S
C1122 C1123 1.369 . S
C1122 C1126 1.531 . S
C1123 C1122 1.369 . S
C1123 C1124 1.410 . S
C1123 C1131 1.503 1_456 S
C1124 C1123 1.410 . S
C1124 C1125 1.392 . S
C1124 C1127 1.522 . S
C1125 C1121 1.376 . S
C1125 C1124 1.392 . S
C1125 H1137 0.929 . S
C1126 C1122 1.531 . S
C1126 H1138 0.960 1_556 S
C1126 H1139 0.966 . S
C1126 H1140 0.960 . S
C1127 C1124 1.522 . S
C1127 H1141 0.981 . S
C1127 H1142 0.957 1_456 S
C1127 H1143 0.934 1_556 S
C1128 C1129 1.370 . S
C1128 C1130 1.358 1_554 S
C1128 H1144 0.931 . S
C1129 C1128 1.370 . S
C1129 C1133 1.408 . S
C1130 C1128 1.358 1_556 S
C1130 C1131 1.366 1_556 S
C1130 C1134 1.534 . S
C1131 C1123 1.503 1_654 S
C1131 C1130 1.366 1_554 S
C1131 C1132 1.403 . S
C1132 C1131 1.403 . S
C1132 C1133 1.404 . S
C1132 C1135 1.539 1_655 S
C1133 C1129 1.408 . S
C1133 C1132 1.404 . S
C1133 H1145 0.930 . S
C1134 C1130 1.534 . S
C1134 H1146 0.956 . S
C1134 H1147 0.961 . S
C1134 H1148 0.961 . S
C1135 C1132 1.539 1_455 S
C1135 H1149 0.958 . S
C1135 H1150 0.961 . S
C1135 H1151 0.960 . S
H1136 C1120 0.931 . S
H1137 C1125 0.929 . S
H1138 C1126 0.960 1_554 S
H1139 C1126 0.966 . S
H1140 C1126 0.960 . S
H1141 C1127 0.981 . S
H1142 C1127 0.957 1_654 S
H1143 C1127 0.934 1_554 S
H1144 C1128 0.931 . S
H1145 C1133 0.930 . S
H1146 C1134 0.956 . S
H1147 C1134 0.961 . S
H1148 C1134 0.961 . S
H1149 C1135 0.958 . S
H1150 C1135 0.961 . S
H1151 C1135 0.960 . S
C1152 C1153 1.391 . S
C1152 C1154 1.394 . S
C1152 H1168 0.931 . S
C1153 C1152 1.391 . S
C1153 C1157 1.376 . S
C1154 C1152 1.394 . S
C1154 C1155 1.369 . S
C1154 C1158 1.531 . S
C1155 C1154 1.369 . S
C1155 C1156 1.410 . S
C1155 C1163 1.503 1_545 S
C1156 C1155 1.410 . S
C1156 C1157 1.392 . S
C1156 C1159 1.511 . S
C1157 C1153 1.376 . S
C1157 C1156 1.392 . S
C1157 H1169 0.929 . S
C1158 C1154 1.531 . S
C1158 H1170 0.960 . S
C1158 H1171 0.962 . S
C1158 H1172 0.960 . S
C1159 C1156 1.511 . S
C1159 H1173 0.961 . S
C1159 H1174 0.961 1_545 S
C1159 H1175 0.961 . S
C1160 C1161 1.370 . S
C1160 C1162 1.363 . S
C1160 H1176 0.931 . S
C1161 C1160 1.370 . S
C1161 C1165 1.408 . S
C1162 C1160 1.363 . S
C1162 C1163 1.370 . S
C1162 C1166 1.524 . S
C1163 C1155 1.503 1_565 S
C1163 C1162 1.370 . S
C1163 C1164 1.403 . S
C1164 C1163 1.403 . S
C1164 C1165 1.404 . S
C1164 C1167 1.539 1_565 S
C1165 C1161 1.408 . S
C1165 C1164 1.404 . S
C1165 H1177 0.930 . S
C1166 C1162 1.524 . S
C1166 H1178 0.956 . S
C1166 H1179 0.961 . S
C1166 H1180 0.961 . S
C1167 C1164 1.539 1_545 S
C1167 H1181 0.958 . S
C1167 H1182 0.961 . S
C1167 H1183 0.960 . S
H1168 C1152 0.931 . S
H1169 C1157 0.929 . S
H1170 C1158 0.960 . S
H1171 C1158 0.962 . S
H1172 C1158 0.960 . S
H1173 C1159 0.961 . S
H1174 C1159 0.961 1_565 S
H1175 C1159 0.961 . S
H1176 C1160 0.931 . S
H1177 C1165 0.930 . S
H1178 C1166 0.956 . S
H1179 C1166 0.961 . S
H1180 C1166 0.961 . S
H1181 C1167 0.958 . S
H1182 C1167 0.961 . S
H1183 C1167 0.960 . S
C1184 C1185 1.391 . S
C1184 C1186 1.395 . S
C1184 H1200 0.931 . S
C1185 C1184 1.391 . S
C1185 C1189 1.376 . S
C1186 C1184 1.395 . S
C1186 C1187 1.369 . S
C1186 C1190 1.529 1_554 S
C1187 C1186 1.369 . S
C1187 C1188 1.410 . S
C1187 C1195 1.503 1_554 S
C1188 C1187 1.410 . S
C1188 C1189 1.392 . S
C1188 C1191 1.511 . S
C1189 C1185 1.376 . S
C1189 C1188 1.392 . S
C1189 H1201 0.929 . S
C1190 C1186 1.529 1_556 S
C1190 H1202 0.960 . S
C1190 H1203 0.962 . S
C1190 H1204 0.960 . S
C1191 C1188 1.511 . S
C1191 H1205 0.961 . S
C1191 H1206 0.961 . S
C1191 H1207 0.961 . S
C1192 C1193 1.370 . S
C1192 C1194 1.363 . S
C1192 H1208 0.931 . S
C1193 C1192 1.370 . S
C1193 C1197 1.408 . S
C1194 C1192 1.363 . S
C1194 C1195 1.370 . S
C1194 C1198 1.524 1_556 S
C1195 C1187 1.503 1_556 S
C1195 C1194 1.370 . S
C1195 C1196 1.403 . S
C1196 C1195 1.403 . S
C1196 C1197 1.404 . S
C1196 C1199 1.539 . S
C1197 C1193 1.408 . S
C1197 C1196 1.404 . S
C1197 H1209 0.930 . S
C1198 C1194 1.524 1_554 S
C1198 H1210 0.956 . S
C1198 H1211 0.961 . S
C1198 H1212 0.961 . S
C1199 C1196 1.539 . S
C1199 H1213 0.958 . S
C1199 H1214 0.961 . S
C1199 H1215 0.960 . S
H1200 C1184 0.931 . S
H1201 C1189 0.929 . S
H1202 C1190 0.960 . S
H1203 C1190 0.962 . S
H1204 C1190 0.960 . S
H1205 C1191 0.961 . S
H1206 C1191 0.961 . S
H1207 C1191 0.961 . S
H1208 C1192 0.931 . S
H1209 C1197 0.930 . S
H1210 C1198 0.956 . S
H1211 C1198 0.961 . S
H1212 C1198 0.961 . S
H1213 C1199 0.958 . S
H1214 C1199 0.961 . S
H1215 C1199 0.960 . S
C1216 C1217 1.391 . S
C1216 C1218 1.394 . S
C1216 H1232 0.931 . S
C1217 C1216 1.391 . S
C1217 C1221 1.376 . S
C1218 C1216 1.394 . S
C1218 C1219 1.369 . S
C1218 C1222 1.531 1_455 S
C1219 C1218 1.369 . S
C1219 C1220 1.410 . S
C1219 C1227 1.503 1_455 S
C1220 C1219 1.410 . S
C1220 C1221 1.392 . S
C1220 C1223 1.511 . S
C1221 C1217 1.376 . S
C1221 C1220 1.392 . S
C1221 H1233 0.929 . S
C1222 C1218 1.531 1_655 S
C1222 H1234 0.960 . S
C1222 H1235 0.962 . S
C1222 H1236 0.960 . S
C1223 C1220 1.511 . S
C1223 H1237 0.961 . S
C1223 H1238 0.961 . S
C1223 H1239 0.961 . S
C1224 C1225 1.370 . S
C1224 C1226 1.363 . S
C1224 H1240 0.931 . S
C1225 C1224 1.370 . S
C1225 C1229 1.408 . S
C1226 C1224 1.363 . S
C1226 C1227 1.370 . S
C1226 C1230 1.524 1_655 S
C1227 C1219 1.503 1_655 S
C1227 C1226 1.370 . S
C1227 C1228 1.403 . S
C1228 C1227 1.403 . S
C1228 C1229 1.404 . S
C1228 C1231 1.539 . S
C1229 C1225 1.408 . S
C1229 C1228 1.404 . S
C1229 H1241 0.930 . S
C1230 C1226 1.524 1_455 S
C1230 H1242 0.956 . S
C1230 H1243 0.961 . S
C1230 H1244 0.961 1_455 S
C1231 C1228 1.539 . S
C1231 H1245 0.958 . S
C1231 H1246 0.961 . S
C1231 H1247 0.960 . S
H1232 C1216 0.931 . S
H1233 C1221 0.929 . S
H1234 C1222 0.960 . S
H1235 C1222 0.962 . S
H1236 C1222 0.960 . S
H1237 C1223 0.961 . S
H1238 C1223 0.961 . S
H1239 C1223 0.961 . S
H1240 C1224 0.931 . S
H1241 C1229 0.930 . S
H1242 C1230 0.956 . S
H1243 C1230 0.961 . S
H1244 C1230 0.961 1_655 S
H1245 C1231 0.958 . S
H1246 C1231 0.961 . S
H1247 C1231 0.960 . S
C1248 C1249 1.391 . S
C1248 C1250 1.394 . S
C1248 H1264 0.931 . S
C1249 C1248 1.391 . S
C1249 C1253 1.376 . S
C1250 C1248 1.394 . S
C1250 C1251 1.369 . S
C1250 C1254 1.531 . S
C1251 C1250 1.369 . S
C1251 C1252 1.410 . S
C1251 C1259 1.503 . S
C1252 C1251 1.410 . S
C1252 C1253 1.392 . S
C1252 C1255 1.511 . S
C1253 C1249 1.376 . S
C1253 C1252 1.392 . S
C1253 H1265 0.929 . S
C1254 C1250 1.531 . S
C1254 H1266 0.960 . S
C1254 H1267 0.962 . S
C1254 H1268 0.960 . S
C1255 C1252 1.511 . S
C1255 H1269 0.961 . S
C1255 H1270 0.961 . S
C1255 H1271 0.961 . S
C1256 C1257 1.370 . S
C1256 C1258 1.363 . S
C1256 H1272 0.931 . S
C1257 C1256 1.370 . S
C1257 C1261 1.408 . S
C1258 C1256 1.363 . S
C1258 C1259 1.370 . S
C1258 C1262 1.524 . S
C1259 C1251 1.503 . S
C1259 C1258 1.370 . S
C1259 C1260 1.403 . S
C1260 C1259 1.403 . S
C1260 C1261 1.404 . S
C1260 C1263 1.539 . S
C1261 C1257 1.408 . S
C1261 C1260 1.404 . S
C1261 H1273 0.930 . S
C1262 C1258 1.524 . S
C1262 H1274 0.956 . S
C1262 H1275 0.961 . S
C1262 H1276 0.961 . S
C1263 C1260 1.539 . S
C1263 H1277 0.958 . S
C1263 H1278 0.961 . S
C1263 H1279 0.960 . S
H1264 C1248 0.931 . S
H1265 C1253 0.929 . S
H1266 C1254 0.960 . S
H1267 C1254 0.962 . S
H1268 C1254 0.960 . S
H1269 C1255 0.961 . S
H1270 C1255 0.961 . S
H1271 C1255 0.961 . S
H1272 C1256 0.931 . S
H1273 C1261 0.930 . S
H1274 C1262 0.956 . S
H1275 C1262 0.961 . S
H1276 C1262 0.961 . S
H1277 C1263 0.958 . S
H1278 C1263 0.961 . S
H1279 C1263 0.960 . S
C1280 C1281 1.391 . S
C1280 C1282 1.394 . S
C1280 H1296 0.931 . S
C1281 C1280 1.391 . S
C1281 C1285 1.376 . S
C1282 C1280 1.394 . S
C1282 C1283 1.369 . S
C1282 C1286 1.531 . S
C1283 C1282 1.369 . S
C1283 C1284 1.410 . S
C1283 C1291 1.503 . S
C1284 C1283 1.410 . S
C1284 C1285 1.392 . S
C1284 C1287 1.511 . S
C1285 C1281 1.376 . S
C1285 C1284 1.392 . S
C1285 H1297 0.929 . S
C1286 C1282 1.531 . S
C1286 H1298 0.960 . S
C1286 H1299 0.962 . S
C1286 H1300 0.960 . S
C1287 C1284 1.511 . S
C1287 H1301 0.961 . S
C1287 H1302 0.961 . S
C1287 H1303 0.961 . S
C1288 C1289 1.370 . S
C1288 C1290 1.363 . S
C1288 H1304 0.931 . S
C1289 C1288 1.370 . S
C1289 C1293 1.408 . S
C1290 C1288 1.363 . S
C1290 C1291 1.370 . S
C1290 C1294 1.524 . S
C1291 C1283 1.503 . S
C1291 C1290 1.370 . S
C1291 C1292 1.403 . S
C1292 C1291 1.403 . S
C1292 C1293 1.404 . S
C1292 C1295 1.539 . S
C1293 C1289 1.408 . S
C1293 C1292 1.404 . S
C1293 H1305 0.930 . S
C1294 C1290 1.524 . S
C1294 H1306 0.956 . S
C1294 H1307 0.961 . S
C1294 H1308 0.961 . S
C1295 C1292 1.539 . S
C1295 H1309 0.958 . S
C1295 H1310 0.961 . S
C1295 H1311 0.960 . S
H1296 C1280 0.931 . S
H1297 C1285 0.929 . S
H1298 C1286 0.960 . S
H1299 C1286 0.962 . S
H1300 C1286 0.960 . S
H1301 C1287 0.961 . S
H1302 C1287 0.961 . S
H1303 C1287 0.961 . S
H1304 C1288 0.931 . S
H1305 C1293 0.930 . S
H1306 C1294 0.956 . S
H1307 C1294 0.961 . S
H1308 C1294 0.961 . S
H1309 C1295 0.958 . S
H1310 C1295 0.961 . S
H1311 C1295 0.960 . S
C1312 C1313 1.391 . S
C1312 C1314 1.394 . S
C1312 H1328 0.931 . S
C1313 C1312 1.391 . S
C1313 C1317 1.376 . S
C1314 C1312 1.394 . S
C1314 C1315 1.369 . S
C1314 C1318 1.531 . S
C1315 C1314 1.369 . S
C1315 C1316 1.410 . S
C1315 C1323 1.503 . S
C1316 C1315 1.410 . S
C1316 C1317 1.392 . S
C1316 C1319 1.511 . S
C1317 C1313 1.376 . S
C1317 C1316 1.392 . S
C1317 H1329 0.929 . S
C1318 C1314 1.531 . S
C1318 H1330 0.960 . S
C1318 H1331 0.962 . S
C1318 H1332 0.960 . S
C1319 C1316 1.511 . S
C1319 H1333 0.961 . S
C1319 H1334 0.961 . S
C1319 H1335 0.961 . S
C1320 C1321 1.370 . S
C1320 C1322 1.363 . S
C1320 H1336 0.931 . S
C1321 C1320 1.370 . S
C1321 C1325 1.408 . S
C1322 C1320 1.363 . S
C1322 C1323 1.370 . S
C1322 C1326 1.524 . S
C1323 C1315 1.503 . S
C1323 C1322 1.370 . S
C1323 C1324 1.403 . S
C1324 C1323 1.403 . S
C1324 C1325 1.404 . S
C1324 C1327 1.539 . S
C1325 C1321 1.408 . S
C1325 C1324 1.404 . S
C1325 H1337 0.930 . S
C1326 C1322 1.524 . S
C1326 H1338 0.956 . S
C1326 H1339 0.961 . S
C1326 H1340 0.961 . S
C1327 C1324 1.539 . S
C1327 H1341 0.958 . S
C1327 H1342 0.961 . S
C1327 H1343 0.960 . S
H1328 C1312 0.931 . S
H1329 C1317 0.929 . S
H1330 C1318 0.960 . S
H1331 C1318 0.962 . S
H1332 C1318 0.960 . S
H1333 C1319 0.961 . S
H1334 C1319 0.961 . S
H1335 C1319 0.961 . S
H1336 C1320 0.931 . S
H1337 C1325 0.930 . S
H1338 C1326 0.956 . S
H1339 C1326 0.961 . S
H1340 C1326 0.961 . S
H1341 C1327 0.958 . S
H1342 C1327 0.961 . S
H1343 C1327 0.960 . S
C1344 C1345 1.391 . S
C1344 C1346 1.394 . S
C1344 H1360 0.931 . S
C1345 C1344 1.391 . S
C1345 C1349 1.376 . S
C1346 C1344 1.394 . S
C1346 C1347 1.369 . S
C1346 C1350 1.531 . S
C1347 C1346 1.369 . S
C1347 C1348 1.410 . S
C1347 C1355 1.503 . S
C1348 C1347 1.410 . S
C1348 C1349 1.392 . S
C1348 C1351 1.511 . S
C1349 C1345 1.376 . S
C1349 C1348 1.392 . S
C1349 H1361 0.929 . S
C1350 C1346 1.531 . S
C1350 H1362 0.960 . S
C1350 H1363 0.962 . S
C1350 H1364 0.960 . S
C1351 C1348 1.511 . S
C1351 H1365 0.961 . S
C1351 H1366 0.961 . S
C1351 H1367 0.961 . S
C1352 C1353 1.370 . S
C1352 C1354 1.363 . S
C1352 H1368 0.931 . S
C1353 C1352 1.370 . S
C1353 C1357 1.408 . S
C1354 C1352 1.363 . S
C1354 C1355 1.370 . S
C1354 C1358 1.524 . S
C1355 C1347 1.503 . S
C1355 C1354 1.370 . S
C1355 C1356 1.403 . S
C1356 C1355 1.403 . S
C1356 C1357 1.404 . S
C1356 C1359 1.539 . S
C1357 C1353 1.408 . S
C1357 C1356 1.404 . S
C1357 H1369 0.930 . S
C1358 C1354 1.524 . S
C1358 H1370 0.956 . S
C1358 H1371 0.961 . S
C1358 H1372 0.961 . S
C1359 C1356 1.539 . S
C1359 H1373 0.958 . S
C1359 H1374 0.961 . S
C1359 H1375 0.960 . S
H1360 C1344 0.931 . S
H1361 C1349 0.929 . S
H1362 C1350 0.960 . S
H1363 C1350 0.962 . S
H1364 C1350 0.960 . S
H1365 C1351 0.961 . S
H1366 C1351 0.961 . S
H1367 C1351 0.961 . S
H1368 C1352 0.931 . S
H1369 C1357 0.930 . S
H1370 C1358 0.956 . S
H1371 C1358 0.961 . S
H1372 C1358 0.961 . S
H1373 C1359 0.958 . S
H1374 C1359 0.961 . S
H1375 C1359 0.960 . S
C1376 C1377 1.391 . S
C1376 C1378 1.394 . S
C1376 H1392 0.931 . S
C1377 C1376 1.391 . S
C1377 C1381 1.376 . S
C1378 C1376 1.394 . S
C1378 C1379 1.369 . S
C1378 C1382 1.531 . S
C1379 C1378 1.369 . S
C1379 C1380 1.410 . S
C1379 C1387 1.503 . S
C1380 C1379 1.410 . S
C1380 C1381 1.392 . S
C1380 C1383 1.511 . S
C1381 C1377 1.376 . S
C1381 C1380 1.392 . S
C1381 H1393 0.929 . S
C1382 C1378 1.531 . S
C1382 H1394 0.960 . S
C1382 H1395 0.962 . S
C1382 H1396 0.960 . S
C1383 C1380 1.511 . S
C1383 H1397 0.961 . S
C1383 H1398 0.961 . S
C1383 H1399 0.961 . S
C1384 C1385 1.370 . S
C1384 C1386 1.363 . S
C1384 H1400 0.931 . S
C1385 C1384 1.370 . S
C1385 C1389 1.408 . S
C1386 C1384 1.363 . S
C1386 C1387 1.370 . S
C1386 C1390 1.524 . S
C1387 C1379 1.503 . S
C1387 C1386 1.370 . S
C1387 C1388 1.403 . S
C1388 C1387 1.403 . S
C1388 C1389 1.404 . S
C1388 C1391 1.539 . S
C1389 C1385 1.408 . S
C1389 C1388 1.404 . S
C1389 H1401 0.930 . S
C1390 C1386 1.524 . S
C1390 H1402 0.956 . S
C1390 H1403 0.961 . S
C1390 H1404 0.961 . S
C1391 C1388 1.539 . S
C1391 H1405 0.958 . S
C1391 H1406 0.961 . S
C1391 H1407 0.960 . S
H1392 C1376 0.931 . S
H1393 C1381 0.929 . S
H1394 C1382 0.960 . S
H1395 C1382 0.962 . S
H1396 C1382 0.960 . S
H1397 C1383 0.961 . S
H1398 C1383 0.961 . S
H1399 C1383 0.961 . S
H1400 C1384 0.931 . S
H1401 C1389 0.930 . S
H1402 C1390 0.956 . S
H1403 C1390 0.961 . S
H1404 C1390 0.961 . S
H1405 C1391 0.958 . S
H1406 C1391 0.961 . S
H1407 C1391 0.960 . S
C1408 C1409 1.391 . S
C1408 C1410 1.394 . S
C1408 H1424 0.931 . S
C1409 C1408 1.391 . S
C1409 C1413 1.376 . S
C1410 C1408 1.394 . S
C1410 C1411 1.369 . S
C1410 C1414 1.531 . S
C1411 C1410 1.369 . S
C1411 C1412 1.410 . S
C1411 C1419 1.503 . S
C1412 C1411 1.410 . S
C1412 C1413 1.392 . S
C1412 C1415 1.511 . S
C1413 C1409 1.376 . S
C1413 C1412 1.392 . S
C1413 H1425 0.929 . S
C1414 C1410 1.531 . S
C1414 H1426 0.960 . S
C1414 H1427 0.962 . S
C1414 H1428 0.960 . S
C1415 C1412 1.511 . S
C1415 H1429 0.961 . S
C1415 H1430 0.961 . S
C1415 H1431 0.961 . S
C1416 C1417 1.370 . S
C1416 C1418 1.363 . S
C1416 H1432 0.931 . S
C1417 C1416 1.370 . S
C1417 C1421 1.408 . S
C1418 C1416 1.363 . S
C1418 C1419 1.370 . S
C1418 C1422 1.524 . S
C1419 C1411 1.503 . S
C1419 C1418 1.370 . S
C1419 C1420 1.403 . S
C1420 C1419 1.403 . S
C1420 C1421 1.404 . S
C1420 C1423 1.539 . S
C1421 C1417 1.408 . S
C1421 C1420 1.404 . S
C1421 H1433 0.930 . S
C1422 C1418 1.524 . S
C1422 H1434 0.956 . S
C1422 H1435 0.961 . S
C1422 H1436 0.961 . S
C1423 C1420 1.539 . S
C1423 H1437 0.958 . S
C1423 H1438 0.961 . S
C1423 H1439 0.960 . S
H1424 C1408 0.931 . S
H1425 C1413 0.929 . S
H1426 C1414 0.960 . S
H1427 C1414 0.962 . S
H1428 C1414 0.960 . S
H1429 C1415 0.961 . S
H1430 C1415 0.961 . S
H1431 C1415 0.961 . S
H1432 C1416 0.931 . S
H1433 C1421 0.930 . S
H1434 C1422 0.956 . S
H1435 C1422 0.961 . S
H1436 C1422 0.961 . S
H1437 C1423 0.958 . S
H1438 C1423 0.961 . S
H1439 C1423 0.960 . S
C1440 C1441 1.391 . S
C1440 C1442 1.394 . S
C1440 H1456 0.931 . S
C1441 C1440 1.391 . S
C1441 C1445 1.376 . S
C1442 C1440 1.394 . S
C1442 C1443 1.369 . S
C1442 C1446 1.531 . S
C1443 C1442 1.369 . S
C1443 C1444 1.410 . S
C1443 C1451 1.503 . S
C1444 C1443 1.410 . S
C1444 C1445 1.392 . S
C1444 C1447 1.511 . S
C1445 C1441 1.376 . S
C1445 C1444 1.392 . S
C1445 H1457 0.929 . S
C1446 C1442 1.531 . S
C1446 H1458 0.960 . S
C1446 H1459 0.962 . S
C1446 H1460 0.960 . S
C1447 C1444 1.511 . S
C1447 H1461 0.961 . S
C1447 H1462 0.961 . S
C1447 H1463 0.961 . S
C1448 C1449 1.370 . S
C1448 C1450 1.363 . S
C1448 H1464 0.931 . S
C1449 C1448 1.370 . S
C1449 C1453 1.408 . S
C1450 C1448 1.363 . S
C1450 C1451 1.370 . S
C1450 C1454 1.524 . S
C1451 C1443 1.503 . S
C1451 C1450 1.370 . S
C1451 C1452 1.403 . S
C1452 C1451 1.403 . S
C1452 C1453 1.404 . S
C1452 C1455 1.539 . S
C1453 C1449 1.408 . S
C1453 C1452 1.404 . S
C1453 H1465 0.930 . S
C1454 C1450 1.524 . S
C1454 H1466 0.956 . S
C1454 H1467 0.961 . S
C1454 H1468 0.961 . S
C1455 C1452 1.539 . S
C1455 H1469 0.958 . S
C1455 H1470 0.961 . S
C1455 H1471 0.960 . S
H1456 C1440 0.931 . S
H1457 C1445 0.929 . S
H1458 C1446 0.960 . S
H1459 C1446 0.962 . S
H1460 C1446 0.960 . S
H1461 C1447 0.961 . S
H1462 C1447 0.961 . S
H1463 C1447 0.961 . S
H1464 C1448 0.931 . S
H1465 C1453 0.930 . S
H1466 C1454 0.956 . S
H1467 C1454 0.961 . S
H1468 C1454 0.961 . S
H1469 C1455 0.958 . S
H1470 C1455 0.961 . S
H1471 C1455 0.960 . S
C1472 C1473 1.391 . S
C1472 C1474 1.394 . S
C1472 H1488 0.931 . S
C1473 C1472 1.391 . S
C1473 C1477 1.376 . S
C1474 C1472 1.394 . S
C1474 C1475 1.369 . S
C1474 C1478 1.531 . S
C1475 C1474 1.369 . S
C1475 C1476 1.410 . S
C1475 C1483 1.503 . S
C1476 C1475 1.410 . S
C1476 C1477 1.392 . S
C1476 C1479 1.511 . S
C1477 C1473 1.376 . S
C1477 C1476 1.392 . S
C1477 H1489 0.929 . S
C1478 C1474 1.531 . S
C1478 H1490 0.960 . S
C1478 H1491 0.962 . S
C1478 H1492 0.960 . S
C1479 C1476 1.511 . S
C1479 H1493 0.961 . S
C1479 H1494 0.961 . S
C1479 H1495 0.961 . S
C1480 C1481 1.370 . S
C1480 C1482 1.363 . S
C1480 H1496 0.931 . S
C1481 C1480 1.370 . S
C1481 C1485 1.408 . S
C1482 C1480 1.363 . S
C1482 C1483 1.370 . S
C1482 C1486 1.524 . S
C1483 C1475 1.503 . S
C1483 C1482 1.370 . S
C1483 C1484 1.403 . S
C1484 C1483 1.403 . S
C1484 C1485 1.404 . S
C1484 C1487 1.539 . S
C1485 C1481 1.408 . S
C1485 C1484 1.404 . S
C1485 H1497 0.930 . S
C1486 C1482 1.524 . S
C1486 H1498 0.956 . S
C1486 H1499 0.961 . S
C1486 H1500 0.961 . S
C1487 C1484 1.539 . S
C1487 H1501 0.958 . S
C1487 H1502 0.961 . S
C1487 H1503 0.960 . S
H1488 C1472 0.931 . S
H1489 C1477 0.929 . S
H1490 C1478 0.960 . S
H1491 C1478 0.962 . S
H1492 C1478 0.960 . S
H1493 C1479 0.961 . S
H1494 C1479 0.961 . S
H1495 C1479 0.961 . S
H1496 C1480 0.931 . S
H1497 C1485 0.930 . S
H1498 C1486 0.956 . S
H1499 C1486 0.961 . S
H1500 C1486 0.961 . S
H1501 C1487 0.958 . S
H1502 C1487 0.961 . S
H1503 C1487 0.960 . S
C1504 C1505 1.391 . S
C1504 C1506 1.394 . S
C1504 H1520 0.931 . S
C1505 C1504 1.391 . S
C1505 C1509 1.376 . S
C1506 C1504 1.394 . S
C1506 C1507 1.369 . S
C1506 C1510 1.531 . S
C1507 C1506 1.369 . S
C1507 C1508 1.410 . S
C1507 C1515 1.503 . S
C1508 C1507 1.410 . S
C1508 C1509 1.392 . S
C1508 C1511 1.511 . S
C1509 C1505 1.376 . S
C1509 C1508 1.392 . S
C1509 H1521 0.929 . S
C1510 C1506 1.531 . S
C1510 H1522 0.960 . S
C1510 H1523 0.962 . S
C1510 H1524 0.960 . S
C1511 C1508 1.511 . S
C1511 H1525 0.961 . S
C1511 H1526 0.961 . S
C1511 H1527 0.961 . S
C1512 C1513 1.370 . S
C1512 C1514 1.363 . S
C1512 H1528 0.931 . S
C1513 C1512 1.370 . S
C1513 C1517 1.408 . S
C1514 C1512 1.363 . S
C1514 C1515 1.370 . S
C1514 C1518 1.524 . S
C1515 C1507 1.503 . S
C1515 C1514 1.370 . S
C1515 C1516 1.403 . S
C1516 C1515 1.403 . S
C1516 C1517 1.404 . S
C1516 C1519 1.539 . S
C1517 C1513 1.408 . S
C1517 C1516 1.404 . S
C1517 H1529 0.930 . S
C1518 C1514 1.524 . S
C1518 H1530 0.956 . S
C1518 H1531 0.961 . S
C1518 H1532 0.961 . S
C1519 C1516 1.539 . S
C1519 H1533 0.958 . S
C1519 H1534 0.961 . S
C1519 H1535 0.960 . S
H1520 C1504 0.931 . S
H1521 C1509 0.929 . S
H1522 C1510 0.960 . S
H1523 C1510 0.962 . S
H1524 C1510 0.960 . S
H1525 C1511 0.961 . S
H1526 C1511 0.961 . S
H1527 C1511 0.961 . S
H1528 C1512 0.931 . S
H1529 C1517 0.930 . S
H1530 C1518 0.956 . S
H1531 C1518 0.961 . S
H1532 C1518 0.961 . S
H1533 C1519 0.958 . S
H1534 C1519 0.961 . S
H1535 C1519 0.960 . S
C1536 C1537 1.391 . S
C1536 C1538 1.394 . S
C1536 H1552 0.931 . S
C1537 C1536 1.391 . S
C1537 C1541 1.376 . S
C1538 C1536 1.394 . S
C1538 C1539 1.369 . S
C1538 C1542 1.531 . S
C1539 C1538 1.369 . S
C1539 C1540 1.410 . S
C1539 C1547 1.503 . S
C1540 C1539 1.410 . S
C1540 C1541 1.392 . S
C1540 C1543 1.511 . S
C1541 C1537 1.376 . S
C1541 C1540 1.392 . S
C1541 H1553 0.929 . S
C1542 C1538 1.531 . S
C1542 H1554 0.960 . S
C1542 H1555 0.962 . S
C1542 H1556 0.960 . S
C1543 C1540 1.511 . S
C1543 H1557 0.961 . S
C1543 H1558 0.961 . S
C1543 H1559 0.961 . S
C1544 C1545 1.370 . S
C1544 C1546 1.363 . S
C1544 H1560 0.931 . S
C1545 C1544 1.370 . S
C1545 C1549 1.408 . S
C1546 C1544 1.363 . S
C1546 C1547 1.370 . S
C1546 C1550 1.524 . S
C1547 C1539 1.503 . S
C1547 C1546 1.370 . S
C1547 C1548 1.403 . S
C1548 C1547 1.403 . S
C1548 C1549 1.404 . S
C1548 C1551 1.539 . S
C1549 C1545 1.408 . S
C1549 C1548 1.404 . S
C1549 H1561 0.930 . S
C1550 C1546 1.524 . S
C1550 H1562 0.956 . S
C1550 H1563 0.961 . S
C1550 H1564 0.961 . S
C1551 C1548 1.539 . S
C1551 H1565 0.958 . S
C1551 H1566 0.961 . S
C1551 H1567 0.960 . S
H1552 C1536 0.931 . S
H1553 C1541 0.929 . S
H1554 C1542 0.960 . S
H1555 C1542 0.962 . S
H1556 C1542 0.960 . S
H1557 C1543 0.961 . S
H1558 C1543 0.961 . S
H1559 C1543 0.961 . S
H1560 C1544 0.931 . S
H1561 C1549 0.930 . S
H1562 C1550 0.956 . S
H1563 C1550 0.961 . S
H1564 C1550 0.961 . S
H1565 C1551 0.958 . S
H1566 C1551 0.961 . S
H1567 C1551 0.960 . S
C1568 C1569 1.391 . S
C1568 C1570 1.394 . S
C1568 H1584 0.931 . S
C1569 C1568 1.391 . S
C1569 C1573 1.376 . S
C1570 C1568 1.394 . S
C1570 C1571 1.369 . S
C1570 C1574 1.531 . S
C1571 C1570 1.369 . S
C1571 C1572 1.410 . S
C1571 C1579 1.503 . S
C1572 C1571 1.410 . S
C1572 C1573 1.392 . S
C1572 C1575 1.511 . S
C1573 C1569 1.376 . S
C1573 C1572 1.392 . S
C1573 H1585 0.929 . S
C1574 C1570 1.531 . S
C1574 H1586 0.960 . S
C1574 H1587 0.962 . S
C1574 H1588 0.960 . S
C1575 C1572 1.511 . S
C1575 H1589 0.961 . S
C1575 H1590 0.961 . S
C1575 H1591 0.961 . S
C1576 C1577 1.370 . S
C1576 C1578 1.363 . S
C1576 H1592 0.931 . S
C1577 C1576 1.370 . S
C1577 C1581 1.408 . S
C1578 C1576 1.363 . S
C1578 C1579 1.370 . S
C1578 C1582 1.524 . S
C1579 C1571 1.503 . S
C1579 C1578 1.370 . S
C1579 C1580 1.403 . S
C1580 C1579 1.403 . S
C1580 C1581 1.404 . S
C1580 C1583 1.539 . S
C1581 C1577 1.408 . S
C1581 C1580 1.404 . S
C1581 H1593 0.930 . S
C1582 C1578 1.524 . S
C1582 H1594 0.956 . S
C1582 H1595 0.961 . S
C1582 H1596 0.961 . S
C1583 C1580 1.539 . S
C1583 H1597 0.958 . S
C1583 H1598 0.961 . S
C1583 H1599 0.960 . S
H1584 C1568 0.931 . S
H1585 C1573 0.929 . S
H1586 C1574 0.960 . S
H1587 C1574 0.962 . S
H1588 C1574 0.960 . S
H1589 C1575 0.961 . S
H1590 C1575 0.961 . S
H1591 C1575 0.961 . S
H1592 C1576 0.931 . S
H1593 C1581 0.930 . S
H1594 C1582 0.956 . S
H1595 C1582 0.961 . S
H1596 C1582 0.961 . S
H1597 C1583 0.958 . S
H1598 C1583 0.961 . S
H1599 C1583 0.960 . S
C1600 C1601 1.391 . S
C1600 C1602 1.394 . S
C1600 H1616 0.931 . S
C1601 C1600 1.391 . S
C1601 C1605 1.376 . S
C1602 C1600 1.394 . S
C1602 C1603 1.369 . S
C1602 C1606 1.531 . S
C1603 C1602 1.369 . S
C1603 C1604 1.410 . S
C1603 C1611 1.503 . S
C1604 C1603 1.410 . S
C1604 C1605 1.392 . S
C1604 C1607 1.511 . S
C1605 C1601 1.376 . S
C1605 C1604 1.392 . S
C1605 H1617 0.929 . S
C1606 C1602 1.531 . S
C1606 H1618 0.960 . S
C1606 H1619 0.962 . S
C1606 H1620 0.960 . S
C1607 C1604 1.511 . S
C1607 H1621 0.961 . S
C1607 H1622 0.961 . S
C1607 H1623 0.961 . S
C1608 C1609 1.370 . S
C1608 C1610 1.363 . S
C1608 H1624 0.931 . S
C1609 C1608 1.370 . S
C1609 C1613 1.408 . S
C1610 C1608 1.363 . S
C1610 C1611 1.370 . S
C1610 C1614 1.524 . S
C1611 C1603 1.503 . S
C1611 C1610 1.370 . S
C1611 C1612 1.403 . S
C1612 C1611 1.403 . S
C1612 C1613 1.404 . S
C1612 C1615 1.539 . S
C1613 C1609 1.408 . S
C1613 C1612 1.404 . S
C1613 H1625 0.930 . S
C1614 C1610 1.524 . S
C1614 H1626 0.956 . S
C1614 H1627 0.961 . S
C1614 H1628 0.961 . S
C1615 C1612 1.539 . S
C1615 H1629 0.958 . S
C1615 H1630 0.961 . S
C1615 H1631 0.960 . S
H1616 C1600 0.931 . S
H1617 C1605 0.929 . S
H1618 C1606 0.960 . S
H1619 C1606 0.962 . S
H1620 C1606 0.960 . S
H1621 C1607 0.961 . S
H1622 C1607 0.961 . S
H1623 C1607 0.961 . S
H1624 C1608 0.931 . S
H1625 C1613 0.930 . S
H1626 C1614 0.956 . S
H1627 C1614 0.961 . S
H1628 C1614 0.961 . S
H1629 C1615 0.958 . S
H1630 C1615 0.961 . S
H1631 C1615 0.960 . S
C481 C109 1.262 . S
C489 C12 1.250 . S
C513 C128 1.261 . S
C521 C71 1.261 . S
C545 C92 1.270 . S
C553 C189 1.270 . S
C577 C151 1.271 . S
C585 C208 1.267 . S
C609 C29 1.270 . S
C617 C172 1.255 . S
C641 C48 1.269 . S
C649 C231 1.251 . S
C673 C408 1.270 . S
C681 C271 1.254 . S
C705 C292 1.255 . S
C713 C469 1.271 . S
C737 C351 1.257 . S
C745 C248 1.271 . S
C769 C372 1.266 . S
C777 C309 1.267 . S
C801 C431 1.239 . S
C809 C328 1.267 . S
C833 C389 1.260 . S
C841 C452 1.258 . S
C865 C137 1.736 . S
C873 C2 1.749 . S
C897 C57 1.768 . S
C905 C162 1.761 . S
C929 C82 1.768 . S
C937 C217 1.761 . S
C961 C257 1.742 . S
C969 C362 1.751 . S
C993 C282 1.727 . S
C1001 C417 1.745 . S
C1025 C337 1.714 . S
C1033 C442 1.738 . S
C1057 C297 2.300 . S
C1065 C17 2.318 . S
C1089 C42 2.300 . S
C1097 C322 2.318 . S
C1121 C377 2.319 . S
C1129 C97 2.311 . S
C1153 C122 2.319 . S
C1161 C402 2.311 . S
C1185 C177 2.316 . S
C1193 C457 2.312 . S
C1217 C242 2.306 . S
C1225 C202 2.316 . S
C1249 C88 1.661 . S
C1257 C31 1.716 . S
C1281 C52 1.713 . S
C1289 C149 1.668 . S
C1313 C111 1.717 . S
C1321 C168 1.669 . S
C1345 C132 1.712 . S
C1353 C229 1.677 . S
C1377 C8 1.679 . S
C1385 C191 1.714 . S
C1409 C69 1.645 . S
C1417 C212 1.720 . S
C1441 C429 1.670 . S
C1449 C252 1.713 . S
C1473 C311 1.717 . S
C1481 C448 1.668 . S
C1505 C332 1.717 . S
C1513 C269 1.664 . S
C1537 C288 1.683 . S
C1545 C391 1.713 . S
C1569 C412 1.718 . S
C1577 C349 1.671 . S
C1601 C471 1.707 . S
C1609 C368 1.677 . S
