# Generated by pormake.
# Topology unu, (4)-cn, num edge types: 1
# Building blocks:
#     Node 0, Type 0, BuildingBlock: GALJAG_clean_sbu_0, # of connection points: 4
#     Node 1, Type 0, BuildingBlock: GALJAG_clean_sbu_0, # of connection points: 4
#     Node 2, Type 0, BuildingBlock: GALJAG_clean_sbu_0, # of connection points: 4
#     Node 3, Type 0, BuildingBlock: GALJAG_clean_sbu_0, # of connection points: 4
#     Node 4, Type 0, BuildingBlock: GALJAG_clean_sbu_0, # of connection points: 4
#     Node 5, Type 0, BuildingBlock: GALJAG_clean_sbu_0, # of connection points: 4
#     Node 6, Type 0, BuildingBlock: GALJAG_clean_sbu_0, # of connection points: 4
#     Node 7, Type 0, BuildingBlock: GALJAG_clean_sbu_0, # of connection points: 4
#     Node 8, Type 0, BuildingBlock: GALJAG_clean_sbu_0, # of connection points: 4
#     Node 9, Type 0, BuildingBlock: GALJAG_clean_sbu_0, # of connection points: 4
#     Node 10, Type 0, BuildingBlock: GALJAG_clean_sbu_0, # of connection points: 4
#     Node 11, Type 0, BuildingBlock: GALJAG_clean_sbu_0, # of connection points: 4
#     Node 12, Type 0, BuildingBlock: GALJAG_clean_sbu_0, # of connection points: 4
#     Node 13, Type 0, BuildingBlock: GALJAG_clean_sbu_0, # of connection points: 4
#     Node 14, Type 0, BuildingBlock: GALJAG_clean_sbu_0, # of connection points: 4
#     Node 15, Type 0, BuildingBlock: GALJAG_clean_sbu_0, # of connection points: 4
#     Node 16, Type 0, BuildingBlock: GALJAG_clean_sbu_0, # of connection points: 4
#     Node 17, Type 0, BuildingBlock: GALJAG_clean_sbu_0, # of connection points: 4
#     Node 18, Type 0, BuildingBlock: GALJAG_clean_sbu_0, # of connection points: 4
#     Node 19, Type 0, BuildingBlock: GALJAG_clean_sbu_0, # of connection points: 4
#     Node 20, Type 0, BuildingBlock: GALJAG_clean_sbu_0, # of connection points: 4
#     Node 21, Type 0, BuildingBlock: GALJAG_clean_sbu_0, # of connection points: 4
#     Node 22, Type 0, BuildingBlock: GALJAG_clean_sbu_0, # of connection points: 4
#     Node 23, Type 0, BuildingBlock: GALJAG_clean_sbu_0, # of connection points: 4
#     Node 24, Type 0, BuildingBlock: GALJAG_clean_sbu_0, # of connection points: 4
#     Node 25, Type 0, BuildingBlock: GALJAG_clean_sbu_0, # of connection points: 4
#     Node 26, Type 0, BuildingBlock: GALJAG_clean_sbu_0, # of connection points: 4
#     Node 27, Type 0, BuildingBlock: GALJAG_clean_sbu_0, # of connection points: 4
#     Node 28, Type 0, BuildingBlock: GALJAG_clean_sbu_0, # of connection points: 4
#     Node 29, Type 0, BuildingBlock: GALJAG_clean_sbu_0, # of connection points: 4
#     Node 30, Type 0, BuildingBlock: GALJAG_clean_sbu_0, # of connection points: 4
#     Node 31, Type 0, BuildingBlock: GALJAG_clean_sbu_0, # of connection points: 4
#     Node 32, Type 0, BuildingBlock: GALJAG_clean_sbu_0, # of connection points: 4
#     Node 33, Type 0, BuildingBlock: GALJAG_clean_sbu_0, # of connection points: 4
#     Node 34, Type 0, BuildingBlock: GALJAG_clean_sbu_0, # of connection points: 4
#     Node 35, Type 0, BuildingBlock: GALJAG_clean_sbu_0, # of connection points: 4
#     Edge 36, Type (0, 0), BuildingBlock: XUDNAN_clean_linker_2, # of connection points: 2
#     Edge 37, Type (0, 0), BuildingBlock: XUDNAN_clean_linker_2, # of connection points: 2
#     Edge 38, Type (0, 0), BuildingBlock: XUDNAN_clean_linker_2, # of connection points: 2
#     Edge 39, Type (0, 0), BuildingBlock: XUDNAN_clean_linker_2, # of connection points: 2
#     Edge 40, Type (0, 0), BuildingBlock: XUDNAN_clean_linker_2, # of connection points: 2
#     Edge 41, Type (0, 0), BuildingBlock: XUDNAN_clean_linker_2, # of connection points: 2
#     Edge 42, Type (0, 0), BuildingBlock: XUDNAN_clean_linker_2, # of connection points: 2
#     Edge 43, Type (0, 0), BuildingBlock: XUDNAN_clean_linker_2, # of connection points: 2
#     Edge 44, Type (0, 0), BuildingBlock: XUDNAN_clean_linker_2, # of connection points: 2
#     Edge 45, Type (0, 0), BuildingBlock: XUDNAN_clean_linker_2, # of connection points: 2
#     Edge 46, Type (0, 0), BuildingBlock: XUDNAN_clean_linker_2, # of connection points: 2
#     Edge 47, Type (0, 0), BuildingBlock: XUDNAN_clean_linker_2, # of connection points: 2
#     Edge 48, Type (0, 0), BuildingBlock: XUDNAN_clean_linker_2, # of connection points: 2
#     Edge 49, Type (0, 0), BuildingBlock: XUDNAN_clean_linker_2, # of connection points: 2
#     Edge 50, Type (0, 0), BuildingBlock: XUDNAN_clean_linker_2, # of connection points: 2
#     Edge 51, Type (0, 0), BuildingBlock: XUDNAN_clean_linker_2, # of connection points: 2
#     Edge 52, Type (0, 0), BuildingBlock: XUDNAN_clean_linker_2, # of connection points: 2
#     Edge 53, Type (0, 0), BuildingBlock: XUDNAN_clean_linker_2, # of connection points: 2
#     Edge 54, Type (0, 0), BuildingBlock: XUDNAN_clean_linker_2, # of connection points: 2
#     Edge 55, Type (0, 0), BuildingBlock: XUDNAN_clean_linker_2, # of connection points: 2
#     Edge 56, Type (0, 0), BuildingBlock: XUDNAN_clean_linker_2, # of connection points: 2
#     Edge 57, Type (0, 0), BuildingBlock: XUDNAN_clean_linker_2, # of connection points: 2
#     Edge 58, Type (0, 0), BuildingBlock: XUDNAN_clean_linker_2, # of connection points: 2
#     Edge 59, Type (0, 0), BuildingBlock: XUDNAN_clean_linker_2, # of connection points: 2
#     Edge 60, Type (0, 0), BuildingBlock: XUDNAN_clean_linker_2, # of connection points: 2
#     Edge 61, Type (0, 0), BuildingBlock: XUDNAN_clean_linker_2, # of connection points: 2
#     Edge 62, Type (0, 0), BuildingBlock: XUDNAN_clean_linker_2, # of connection points: 2
#     Edge 63, Type (0, 0), BuildingBlock: XUDNAN_clean_linker_2, # of connection points: 2
#     Edge 64, Type (0, 0), BuildingBlock: XUDNAN_clean_linker_2, # of connection points: 2
#     Edge 65, Type (0, 0), BuildingBlock: XUDNAN_clean_linker_2, # of connection points: 2
#     Edge 66, Type (0, 0), BuildingBlock: XUDNAN_clean_linker_2, # of connection points: 2
#     Edge 67, Type (0, 0), BuildingBlock: XUDNAN_clean_linker_2, # of connection points: 2
#     Edge 68, Type (0, 0), BuildingBlock: XUDNAN_clean_linker_2, # of connection points: 2
#     Edge 69, Type (0, 0), BuildingBlock: XUDNAN_clean_linker_2, # of connection points: 2
#     Edge 70, Type (0, 0), BuildingBlock: XUDNAN_clean_linker_2, # of connection points: 2
#     Edge 71, Type (0, 0), BuildingBlock: XUDNAN_clean_linker_2, # of connection points: 2
#     Edge 72, Type (0, 0), BuildingBlock: XUDNAN_clean_linker_2, # of connection points: 2
#     Edge 73, Type (0, 0), BuildingBlock: XUDNAN_clean_linker_2, # of connection points: 2
#     Edge 74, Type (0, 0), BuildingBlock: XUDNAN_clean_linker_2, # of connection points: 2
#     Edge 75, Type (0, 0), BuildingBlock: XUDNAN_clean_linker_2, # of connection points: 2
#     Edge 76, Type (0, 0), BuildingBlock: XUDNAN_clean_linker_2, # of connection points: 2
#     Edge 77, Type (0, 0), BuildingBlock: XUDNAN_clean_linker_2, # of connection points: 2
#     Edge 78, Type (0, 0), BuildingBlock: XUDNAN_clean_linker_2, # of connection points: 2
#     Edge 79, Type (0, 0), BuildingBlock: XUDNAN_clean_linker_2, # of connection points: 2
#     Edge 80, Type (0, 0), BuildingBlock: XUDNAN_clean_linker_2, # of connection points: 2
#     Edge 81, Type (0, 0), BuildingBlock: XUDNAN_clean_linker_2, # of connection points: 2
#     Edge 82, Type (0, 0), BuildingBlock: XUDNAN_clean_linker_2, # of connection points: 2
#     Edge 83, Type (0, 0), BuildingBlock: XUDNAN_clean_linker_2, # of connection points: 2
#     Edge 84, Type (0, 0), BuildingBlock: XUDNAN_clean_linker_2, # of connection points: 2
#     Edge 85, Type (0, 0), BuildingBlock: XUDNAN_clean_linker_2, # of connection points: 2
#     Edge 86, Type (0, 0), BuildingBlock: XUDNAN_clean_linker_2, # of connection points: 2
#     Edge 87, Type (0, 0), BuildingBlock: XUDNAN_clean_linker_2, # of connection points: 2
#     Edge 88, Type (0, 0), BuildingBlock: XUDNAN_clean_linker_2, # of connection points: 2
#     Edge 89, Type (0, 0), BuildingBlock: XUDNAN_clean_linker_2, # of connection points: 2
#     Edge 90, Type (0, 0), BuildingBlock: XUDNAN_clean_linker_2, # of connection points: 2
#     Edge 91, Type (0, 0), BuildingBlock: XUDNAN_clean_linker_2, # of connection points: 2
#     Edge 92, Type (0, 0), BuildingBlock: XUDNAN_clean_linker_2, # of connection points: 2
#     Edge 93, Type (0, 0), BuildingBlock: XUDNAN_clean_linker_2, # of connection points: 2
#     Edge 94, Type (0, 0), BuildingBlock: XUDNAN_clean_linker_2, # of connection points: 2
#     Edge 95, Type (0, 0), BuildingBlock: XUDNAN_clean_linker_2, # of connection points: 2
#     Edge 96, Type (0, 0), BuildingBlock: XUDNAN_clean_linker_2, # of connection points: 2
#     Edge 97, Type (0, 0), BuildingBlock: XUDNAN_clean_linker_2, # of connection points: 2
#     Edge 98, Type (0, 0), BuildingBlock: XUDNAN_clean_linker_2, # of connection points: 2
#     Edge 99, Type (0, 0), BuildingBlock: XUDNAN_clean_linker_2, # of connection points: 2
#     Edge 100, Type (0, 0), BuildingBlock: XUDNAN_clean_linker_2, # of connection points: 2
#     Edge 101, Type (0, 0), BuildingBlock: XUDNAN_clean_linker_2, # of connection points: 2
#     Edge 102, Type (0, 0), BuildingBlock: XUDNAN_clean_linker_2, # of connection points: 2
#     Edge 103, Type (0, 0), BuildingBlock: XUDNAN_clean_linker_2, # of connection points: 2
#     Edge 104, Type (0, 0), BuildingBlock: XUDNAN_clean_linker_2, # of connection points: 2
#     Edge 105, Type (0, 0), BuildingBlock: XUDNAN_clean_linker_2, # of connection points: 2
#     Edge 106, Type (0, 0), BuildingBlock: XUDNAN_clean_linker_2, # of connection points: 2
#     Edge 107, Type (0, 0), BuildingBlock: XUDNAN_clean_linker_2, # of connection points: 2
# Relax obj value: 0.103
# Max RMSD: 0.228
# Mean RMSD: 0.228
data_MOF--net-unu--node1-GALJAG_clean_sbu_0--edge1-XUDNAN_clean_linker_2
_symmetry_space_group_name_H-M    P1
_symmetry_Int_Tables_number       1
_symmetry_cell_setting            triclinic
loop_
_symmetry_equiv_pos_as_xyz
'x, y, z'
_cell_length_a     45.98322
_cell_length_b     45.944706
_cell_length_c     70.161671
_cell_angle_alpha  90.030273
_cell_angle_beta   89.948364
_cell_angle_gamma 119.90401
loop_
_atom_site_label
_atom_site_type_symbol
_atom_site_fract_x
_atom_site_fract_y
_atom_site_fract_z
_atom_type_partial_charge
In0 In 0.16442 0.99643 0.11684 0.0
O1 O 0.18901 0.99206 0.08955 0.0
O2 O 0.19129 0.96677 0.11462 0.0
C3 C 0.13954 0.0378 0.11191 0.0
C4 C 0.21649 0.03711 0.13876 0.0
C5 C 0.10462 0.94029 0.12024 0.0
O6 O 0.15166 0.0295 0.09806 0.0
O7 O 0.14054 0.02552 0.12781 0.0
O8 O 0.12204 0.9557 0.1347 0.0
O9 O 0.11808 0.95251 0.10436 0.0
C10 C 0.19944 0.97403 0.09734 0.0
O11 O 0.19237 0.01 0.14525 0.0
O12 O 0.21376 0.04336 0.12153 0.0
In13 In 0.94568 0.14765 0.13496 0.0
O14 O 0.93892 0.1725 0.10848 0.0
O15 O 0.97815 0.2025 0.12814 0.0
C16 C 0.89735 0.08289 0.13615 0.0
C17 C 0.92451 0.1697 0.16429 0.0
C18 C 0.99704 0.13792 0.12592 0.0
O19 O 0.89895 0.10207 0.12271 0.0
O20 O 0.91987 0.09659 0.14868 0.0
O21 O 0.99267 0.1448 0.14283 0.0
O22 O 0.97587 0.13638 0.11395 0.0
C23 C 0.96318 0.20122 0.11279 0.0
O24 O 0.95137 0.16835 0.1653 0.0
O25 O 0.90888 0.15985 0.14869 0.0
In26 In 0.79946 0.78674 0.15341 0.0
O27 O 0.76832 0.75351 0.12869 0.0
O28 O 0.74379 0.74879 0.15525 0.0
C29 C 0.86271 0.81233 0.14051 0.0
C30 C 0.80489 0.75218 0.18268 0.0
C31 C 0.7947 0.84279 0.15136 0.0
O32 O 0.83783 0.7899 0.13141 0.0
O33 O 0.8554 0.82204 0.15567 0.0
O34 O 0.80162 0.83335 0.16679 0.0
O35 O 0.78913 0.82341 0.13743 0.0
C36 C 0.74131 0.73923 0.13815 0.0
O37 O 0.79178 0.77051 0.18499 0.0
O38 O 0.8142 0.75116 0.16591 0.0
In39 In 0.04865 0.18107 0.38359 0.0
O40 O 0.05335 0.22008 0.40548 0.0
O41 O 0.00913 0.19548 0.38823 0.0
C42 C 0.09952 0.16873 0.38469 0.0
C43 C 0.07439 0.22398 0.35446 0.0
C44 C -0.0001 0.11819 0.39114 0.0
O45 O 0.09117 0.17871 0.39951 0.0
O46 O 0.08213 0.1648 0.37001 0.0
O47 O 0.00374 0.13101 0.37465 0.0
O48 O 0.02034 0.13734 0.40362 0.0
C49 C 0.02544 0.21733 0.40078 0.0
O50 O 0.04892 0.19498 0.35215 0.0
O51 O 0.08573 0.23072 0.37126 0.0
In52 In 0.81194 0.81224 0.37838 0.0
O53 O 0.77864 0.81308 0.35469 0.0
O54 O 0.76439 0.81334 0.38378 0.0
C55 C 0.86902 0.81669 0.36622 0.0
C56 C 0.77848 0.74708 0.38765 0.0
C57 C 0.84365 0.87602 0.39027 0.0
O58 O 0.84726 0.81569 0.35468 0.0
O59 O 0.86113 0.81416 0.38367 0.0
O60 O 0.83336 0.85193 0.40215 0.0
O61 O 0.83719 0.86738 0.37299 0.0
C62 C 0.75768 0.81356 0.36631 0.0
O63 O 0.78934 0.76972 0.40045 0.0
O64 O 0.78539 0.75771 0.37071 0.0
In65 In 0.17729 0.96066 0.35118 0.0
O66 O 0.18756 0.95829 0.31958 0.0
O67 O 0.17702 0.91636 0.3375 0.0
C68 C 0.18171 0.01988 0.35914 0.0
C69 C 0.23282 0.96905 0.36838 0.0
C70 C 0.11057 0.92088 0.35147 0.0
O71 O 0.18978 0.01374 0.34298 0.0
O72 O 0.17173 0.99628 0.37109 0.0
O73 O 0.12649 0.94138 0.33827 0.0
O74 O 0.12834 0.92071 0.36527 0.0
C75 C 0.18375 0.92902 0.32096 0.0
O76 O 0.20441 0.95253 0.37643 0.0
O77 O 0.23272 0.98133 0.35233 0.0
In78 In 0.82211 0.99369 0.84947 0.0
O79 O 0.80856 0.00864 0.87741 0.0
O80 O 0.79264 0.02164 0.8519 0.0
C81 C 0.84642 0.95827 0.86734 0.0
C82 C 0.77062 0.94854 0.82805 0.0
C83 C 0.88066 0.04629 0.83758 0.0
O84 O 0.82643 0.96586 0.87523 0.0
O85 O 0.85377 0.96808 0.85034 0.0
O86 O 0.86503 0.01987 0.82776 0.0
O87 O 0.8659 0.04652 0.85266 0.0
C88 C 0.79332 0.02222 0.86992 0.0
O89 O 0.79246 0.97658 0.8214 0.0
O90 O 0.77517 0.94353 0.84514 0.0
In91 In 0.04952 0.88422 0.93532 0.0
O92 O 0.03119 0.84728 0.96065 0.0
O93 O 0.01909 0.82869 0.93212 0.0
C94 C 0.08743 0.94841 0.94622 0.0
C95 C 0.09726 0.87683 0.91787 0.0
C96 C 0.99644 0.88841 0.92289 0.0
O97 O 0.07078 0.92568 0.9584 0.0
O98 O 0.08506 0.93827 0.9293 0.0
O99 O 0.01774 0.88835 0.91149 0.0
O100 O 0.00205 0.88628 0.94028 0.0
C101 C 0.01663 0.82202 0.94969 0.0
O102 O 0.07407 0.87808 0.90883 0.0
O103 O 0.09631 0.87932 0.93581 0.0
In104 In 0.16781 0.22426 0.88936 0.0
O105 O 0.1849 0.27882 0.88425 0.0
O106 O 0.15397 0.25634 0.90852 0.0
C107 C 0.16062 0.17488 0.91309 0.0
C108 C 0.23184 0.25058 0.87792 0.0
C109 C 0.11271 0.19402 0.8669 0.0
O110 O 0.16568 0.17496 0.89543 0.0
O111 O 0.15906 0.19999 0.91909 0.0
O112 O 0.11327 0.20672 0.88288 0.0
O113 O 0.14025 0.19651 0.86195 0.0
C114 C 0.17001 0.28231 0.89838 0.0
O115 O 0.22316 0.24576 0.89526 0.0
O116 O 0.208 0.24165 0.86618 0.0
In117 In 0.9278 0.80373 0.58039 0.0
O118 O 0.93776 0.7776 0.55504 0.0
O119 O 0.94503 0.76603 0.58332 0.0
C120 C 0.89507 0.83358 0.56548 0.0
C121 C 0.88675 0.77136 0.6098 0.0
C122 C 0.98988 0.85489 0.58628 0.0
O123 O 0.92108 0.84852 0.57551 0.0
O124 O 0.88534 0.80296 0.56229 0.0
O125 O 0.97205 0.83567 0.59958 0.0
O126 O 0.97639 0.84824 0.56998 0.0
C127 C 0.94694 0.76153 0.5658 0.0
O128 O 0.91354 0.7991 0.61173 0.0
O129 O 0.88027 0.76036 0.59294 0.0
In130 In 0.18421 0.14468 0.62531 0.0
O131 O 0.1984 0.17964 0.59975 0.0
O132 O 0.20827 0.20092 0.62777 0.0
C133 C 0.16003 0.08129 0.6137 0.0
C134 C 0.24285 0.15329 0.63756 0.0
C135 C 0.12602 0.13641 0.63899 0.0
O136 O 0.16474 0.10428 0.602 0.0
O137 O 0.1675 0.0906 0.63078 0.0
O138 O 0.14789 0.13659 0.65006 0.0
O139 O 0.13419 0.14113 0.62162 0.0
C140 C 0.21012 0.20587 0.60998 0.0
O141 O 0.22145 0.15329 0.64903 0.0
O142 O 0.2345 0.14934 0.62019 0.0
In143 In 0.82737 0.03693 0.61594 0.0
O144 O 0.82841 0.08393 0.626 0.0
O145 O 0.83371 0.07944 0.59601 0.0
C146 C 0.82181 0.98763 0.59259 0.0
C147 C 0.76482 0.0096 0.62965 0.0
C148 C 0.8881 0.05807 0.63182 0.0
O149 O 0.81203 0.9826 0.60967 0.0
O150 O 0.8341 0.0176 0.58697 0.0
O151 O 0.88359 0.06499 0.61513 0.0
O152 O 0.86143 0.0397 0.64105 0.0
C153 C 0.83213 0.09669 0.60964 0.0
O154 O 0.77277 0.02075 0.61285 0.0
O155 O 0.78858 0.01145 0.63973 0.0
In156 In 0.8657 0.35261 0.45149 0.0
O157 O 0.90299 0.36045 0.42773 0.0
O158 O 0.8843 0.31689 0.44572 0.0
C159 C 0.84203 0.39507 0.45414 0.0
C160 C 0.9129 0.38323 0.47772 0.0
C161 C 0.80668 0.29839 0.4446 0.0
O162 O 0.8532 0.39095 0.43837 0.0
O163 O 0.84312 0.37805 0.46795 0.0
O164 O 0.82037 0.30381 0.46094 0.0
O165 O 0.823 0.32028 0.43201 0.0
C166 C 0.9034 0.33382 0.43217 0.0
O167 O 0.88578 0.35639 0.48166 0.0
O168 O 0.91558 0.3937 0.46078 0.0
In169 In 0.61522 0.46215 0.45857 0.0
O170 O 0.59569 0.47919 0.48355 0.0
O171 O 0.56984 0.4683 0.45671 0.0
C172 C 0.67226 0.46079 0.46253 0.0
C173 C 0.64419 0.5174 0.43717 0.0
C174 C 0.57551 0.39552 0.46105 0.0
O175 O 0.66047 0.47016 0.47612 0.0
O176 O 0.65503 0.45213 0.44739 0.0
O177 O 0.58248 0.41037 0.44499 0.0
O178 O 0.58817 0.41443 0.47538 0.0
C179 C 0.5717 0.47786 0.47383 0.0
O180 O 0.62469 0.48875 0.42985 0.0
O181 O 0.64851 0.51756 0.45499 0.0
In182 In 0.50362 0.09995 0.45313 0.0
O183 O 0.47712 0.07421 0.4257 0.0
O184 O 0.44687 0.06973 0.4498 0.0
C185 C 0.56901 0.1325 0.44436 0.0
C186 C 0.50505 0.052 0.47441 0.0
C187 C 0.50055 0.15619 0.4596 0.0
O188 O 0.54663 0.11857 0.43168 0.0
O189 O 0.55818 0.12969 0.46118 0.0
O190 O 0.49582 0.13547 0.47282 0.0
O191 O 0.50558 0.14775 0.44336 0.0
C192 C 0.44794 0.06241 0.43255 0.0
O193 O 0.49778 0.07288 0.48163 0.0
O194 O 0.51051 0.05507 0.4567 0.0
In195 In 0.71568 0.54439 0.72469 0.0
O196 O 0.72678 0.57164 0.69625 0.0
O197 O 0.75807 0.5966 0.72052 0.0
C198 C 0.66399 0.48354 0.7311 0.0
C199 C 0.68509 0.57328 0.7417 0.0
C200 C 0.75914 0.52223 0.72307 0.0
O201 O 0.66994 0.4964 0.71447 0.0
O202 O 0.68411 0.50158 0.74407 0.0
O203 O 0.75739 0.53765 0.73774 0.0
O204 O 0.73945 0.51887 0.70955 0.0
C205 C 0.7516 0.59803 0.70309 0.0
O206 O 0.70777 0.57006 0.75028 0.0
O207 O 0.67843 0.56193 0.72482 0.0
In208 In 0.48348 0.17588 0.7294 0.0
O209 O 0.46345 0.16734 0.69876 0.0
O210 O 0.43553 0.17388 0.72096 0.0
C211 C 0.54099 0.17477 0.72653 0.0
C212 C 0.4436 0.12063 0.74977 0.0
C213 C 0.51142 0.24188 0.7362 0.0
O214 O 0.51962 0.16437 0.71318 0.0
O215 O 0.53289 0.1849 0.74127 0.0
O216 O 0.49942 0.22048 0.74954 0.0
O217 O 0.50889 0.22975 0.71975 0.0
C218 C 0.43769 0.16894 0.70349 0.0
O219 O 0.4467 0.14886 0.75381 0.0
O220 O 0.46176 0.12083 0.73625 0.0
In221 In 0.83975 0.30869 0.69732 0.0
O222 O 0.85846 0.29039 0.72228 0.0
O223 O 0.89426 0.32378 0.70231 0.0
C224 C 0.77912 0.26302 0.71101 0.0
C225 C 0.84119 0.28832 0.66128 0.0
C226 C 0.84468 0.36966 0.70137 0.0
O227 O 0.79803 0.25467 0.70247 0.0
O228 O 0.79144 0.29421 0.71336 0.0
O229 O 0.83264 0.35209 0.68654 0.0
O230 O 0.85507 0.35699 0.71358 0.0
C231 C 0.88892 0.30714 0.71746 0.0
O232 O 0.86755 0.30852 0.67009 0.0
O233 O 0.81448 0.28056 0.67013 0.0
In234 In 0.477 0.28085 0.20098 0.0
O235 O 0.45597 0.3073 0.21928 0.0
O236 O 0.45108 0.30734 0.18896 0.0
C237 C 0.50815 0.25661 0.22236 0.0
C238 C 0.42322 0.22244 0.19135 0.0
C239 C 0.5353 0.32781 0.18601 0.0
O240 O 0.49376 0.2712 0.22997 0.0
O241 O 0.50583 0.25392 0.20445 0.0
O242 O 0.51644 0.30076 0.17714 0.0
O243 O 0.52367 0.33138 0.20161 0.0
C244 C 0.44535 0.31614 0.20496 0.0
O245 O 0.44324 0.24224 0.17883 0.0
O246 O 0.43064 0.23228 0.20837 0.0
In247 In 0.72993 0.19689 0.27301 0.0
O248 O 0.7592 0.20698 0.24533 0.0
O249 O 0.78308 0.20628 0.27134 0.0
C250 C 0.67174 0.1949 0.26627 0.0
C251 C 0.70684 0.13107 0.27679 0.0
C252 C 0.75622 0.25556 0.29116 0.0
O253 O 0.69312 0.201 0.25321 0.0
O254 O 0.67931 0.1885 0.28246 0.0
O255 O 0.75364 0.22989 0.2996 0.0
O256 O 0.74637 0.25126 0.27409 0.0
C257 C 0.78492 0.20921 0.25339 0.0
O258 O 0.71301 0.14953 0.29144 0.0
O259 O 0.71181 0.14584 0.26098 0.0
In260 In 0.82426 0.51441 0.23212 0.0
O261 O 0.83087 0.5629 0.22069 0.0
O262 O 0.81725 0.55278 0.24998 0.0
C263 C 0.82247 0.47361 0.26051 0.0
C264 C 0.88767 0.54479 0.21937 0.0
C265 C 0.76886 0.47549 0.21105 0.0
O266 O 0.84107 0.48056 0.2461 0.0
O267 O 0.80452 0.48725 0.26082 0.0
O268 O 0.7699 0.49422 0.22441 0.0
O269 O 0.79616 0.47588 0.20809 0.0
C270 C 0.82433 0.57268 0.23604 0.0
O271 O 0.87992 0.54692 0.23641 0.0
O272 O 0.86318 0.52636 0.2086 0.0
In273 In 0.63028 0.14881 0.93782 0.0
O274 O 0.59917 0.11369 0.9619 0.0
O275 O 0.5829 0.09881 0.93331 0.0
C276 C 0.67412 0.20648 0.95511 0.0
C277 C 0.66963 0.12384 0.927 0.0
C278 C 0.60109 0.17801 0.91865 0.0
O279 O 0.64836 0.18418 0.96365 0.0
O280 O 0.67821 0.19876 0.93845 0.0
O281 O 0.6183 0.16737 0.91017 0.0
O282 O 0.59769 0.17247 0.93633 0.0
C283 C 0.57782 0.09173 0.95081 0.0
O284 O 0.65451 0.13208 0.91497 0.0
O285 O 0.66494 0.12848 0.9442 0.0
In286 In 0.85484 0.51252 0.94958 0.0
O287 O 0.89004 0.51811 0.97276 0.0
O288 O 0.90387 0.51214 0.94432 0.0
C289 C 0.81707 0.51167 0.92053 0.0
C290 C 0.88037 0.57765 0.95649 0.0
C291 C 0.81491 0.44906 0.96044 0.0
O292 O 0.81138 0.51546 0.93775 0.0
O293 O 0.84238 0.50797 0.9177 0.0
O294 O 0.83469 0.4575 0.94636 0.0
O295 O 0.81496 0.47316 0.96941 0.0
C296 C 0.91137 0.51675 0.96195 0.0
O297 O 0.88776 0.56625 0.94195 0.0
O298 O 0.85887 0.55571 0.96774 0.0
In299 In 0.54117 0.40745 0.8837 0.0
O300 O 0.53773 0.42765 0.91275 0.0
O301 O 0.53671 0.45381 0.88768 0.0
C302 C 0.54843 0.35332 0.88625 0.0
C303 C 0.47694 0.37526 0.87296 0.0
C304 C 0.60489 0.4482 0.87369 0.0
O305 O 0.54562 0.36778 0.90099 0.0
O306 O 0.54735 0.3662 0.87054 0.0
O307 O 0.58217 0.43531 0.86102 0.0
O308 O 0.59498 0.44081 0.89071 0.0
C309 C 0.53598 0.45221 0.90572 0.0
O310 O 0.49972 0.39512 0.86153 0.0
O311 O 0.48711 0.3722 0.88914 0.0
In312 In 0.50664 0.69931 0.77577 0.0
O313 O 0.53278 0.67766 0.75859 0.0
O314 O 0.5327 0.67472 0.7894 0.0
C315 C 0.4724 0.73082 0.77152 0.0
C316 C 0.56208 0.75686 0.78154 0.0
C317 C 0.44861 0.64317 0.77833 0.0
O318 O 0.48364 0.72251 0.75708 0.0
O319 O 0.47932 0.72364 0.7878 0.0
O320 O 0.46396 0.66007 0.7931 0.0
O321 O 0.46356 0.65415 0.76245 0.0
C322 C 0.5422 0.66878 0.77354 0.0
O323 O 0.54462 0.73827 0.79536 0.0
O324 O 0.55103 0.74618 0.76484 0.0
In325 In 0.2649 0.82519 0.7985 0.0
O326 O 0.26554 0.83533 0.83055 0.0
O327 O 0.22907 0.8378 0.81273 0.0
C328 C 0.31245 0.81096 0.7882 0.0
C329 C 0.29259 0.88658 0.78353 0.0
C330 C 0.21413 0.76251 0.79393 0.0
O331 O 0.30826 0.81621 0.80551 0.0
O332 O 0.29279 0.81309 0.77643 0.0
O333 O 0.22126 0.78452 0.78107 0.0
O334 O 0.23231 0.77262 0.80865 0.0
C335 C 0.2408 0.84031 0.8293 0.0
O336 O 0.26353 0.8638 0.77851 0.0
O337 O 0.30723 0.87802 0.79563 0.0
In338 In 0.14213 0.47608 0.80674 0.0
O339 O 0.12928 0.46319 0.83845 0.0
O340 O 0.16386 0.45153 0.82507 0.0
C341 C 0.1296 0.52697 0.8011 0.0
C342 C 0.08976 0.42135 0.79127 0.0
C343 C 0.20636 0.5045 0.79509 0.0
O344 O 0.13575 0.51965 0.81739 0.0
O345 O 0.12879 0.50802 0.78789 0.0
O346 O 0.18321 0.4784 0.78726 0.0
O347 O 0.19688 0.51629 0.80843 0.0
C348 C 0.14856 0.45109 0.84008 0.0
O349 O 0.1163 0.43973 0.78203 0.0
O350 O 0.08981 0.43047 0.80821 0.0
In351 In 0.37192 0.84785 0.04598 0.0
O352 O 0.38496 0.86567 0.01541 0.0
O353 O 0.41473 0.8985 0.03812 0.0
C354 C 0.32213 0.78512 0.05125 0.0
C355 C 0.33844 0.87965 0.05457 0.0
C356 C 0.41947 0.83256 0.05332 0.0
O357 O 0.33193 0.79724 0.03468 0.0
O358 O 0.33694 0.80507 0.06492 0.0
O359 O 0.4045 0.82697 0.03751 0.0
O360 O 0.41066 0.8464 0.06606 0.0
C361 C 0.40952 0.89394 0.02033 0.0
O362 O 0.35878 0.87855 0.06647 0.0
O363 O 0.33498 0.86427 0.03904 0.0
In364 In 0.13422 0.47837 0.03584 0.0
O365 O 0.10543 0.44258 0.06006 0.0
O366 O 0.09453 0.42438 0.03133 0.0
C367 C 0.17362 0.54143 0.04768 0.0
C368 C 0.09201 0.49386 0.01867 0.0
C369 C 0.18558 0.46789 0.02929 0.0
O370 O 0.15481 0.5185 0.05932 0.0
O371 O 0.17256 0.53195 0.03067 0.0
O372 O 0.17226 0.47576 0.01589 0.0
O373 O 0.17182 0.46382 0.0454 0.0
C374 C 0.08824 0.41819 0.0489 0.0
O375 O 0.1074 0.48215 0.00912 0.0
O376 O 0.09745 0.49644 0.0364 0.0
In377 In 0.49237 0.61372 0.03433 0.0
O378 O 0.50787 0.61709 0.00306 0.0
O379 O 0.5022 0.57557 0.01942 0.0
C380 C 0.49254 0.67204 0.03977 0.0
C381 C 0.53992 0.62379 0.06013 0.0
C382 C 0.42627 0.56862 0.0336 0.0
O383 O 0.50758 0.66769 0.02591 0.0
O384 O 0.4774 0.64703 0.05064 0.0
O385 O 0.4458 0.56714 0.04577 0.0
O386 O 0.44013 0.59283 0.02207 0.0
C387 C 0.50891 0.59009 0.00345 0.0
O388 O 0.50903 0.6047 0.06345 0.0
O389 O 0.54655 0.63704 0.04381 0.0
In390 In 0.1315 0.63696 0.55518 0.0
O391 O 0.0965 0.65266 0.56879 0.0
O392 O 0.10486 0.658 0.53847 0.0
C393 C 0.16885 0.61513 0.57147 0.0
C394 C 0.08592 0.57568 0.54468 0.0
C395 C 0.18831 0.69397 0.55016 0.0
O396 O 0.15407 0.62696 0.58161 0.0
O397 O 0.16356 0.61353 0.55369 0.0
O398 O 0.17447 0.67337 0.53645 0.0
O399 O 0.17192 0.68649 0.56565 0.0
C400 C 0.08995 0.66131 0.55281 0.0
O401 O 0.1071 0.59668 0.53291 0.0
O402 O 0.08784 0.58606 0.56167 0.0
In403 In 0.37164 0.51358 0.57625 0.0
O404 O 0.35013 0.46515 0.59412 0.0
O405 O 0.3351 0.46214 0.56516 0.0
C406 C 0.41077 0.55632 0.60377 0.0
C407 C 0.41308 0.51468 0.54884 0.0
C408 C 0.33343 0.54207 0.57017 0.0
O409 O 0.37919 0.53999 0.60513 0.0
O410 O 0.42217 0.54807 0.58976 0.0
O411 O 0.36424 0.55681 0.56595 0.0
O412 O 0.32168 0.51247 0.57617 0.0
C413 C 0.33287 0.44669 0.5804 0.0
O414 O 0.39107 0.52292 0.54541 0.0
O415 O 0.41392 0.50629 0.56586 0.0
In416 In 0.48743 0.84535 0.59324 0.0
O417 O 0.51209 0.86741 0.56467 0.0
O418 O 0.49337 0.89352 0.5815 0.0
C419 C 0.48607 0.78809 0.6022 0.0
C420 C 0.53289 0.88443 0.61878 0.0
C421 C 0.42466 0.81924 0.58079 0.0
O422 O 0.50415 0.80678 0.58873 0.0
O423 O 0.46874 0.79829 0.61092 0.0
O424 O 0.43305 0.83322 0.59709 0.0
O425 O 0.4475 0.81764 0.57164 0.0
C426 C 0.50713 0.89218 0.56614 0.0
O427 O 0.50203 0.8746 0.62155 0.0
O428 O 0.53987 0.87437 0.60363 0.0
In429 In 0.28703 0.45846 0.25548 0.0
O430 O 0.3042 0.44096 0.22961 0.0
O431 O 0.31929 0.43378 0.25708 0.0
C432 C 0.25561 0.4887 0.23983 0.0
C433 C 0.2354 0.40429 0.27185 0.0
C434 C 0.33715 0.51535 0.2706 0.0
O435 O 0.26905 0.47582 0.22971 0.0
O436 O 0.25727 0.4853 0.25755 0.0
O437 O 0.31412 0.49303 0.28078 0.0
O438 O 0.33549 0.50816 0.25314 0.0
C439 C 0.32011 0.43025 0.23928 0.0
O440 O 0.25985 0.42627 0.28137 0.0
O441 O 0.2372 0.40959 0.25413 0.0
In442 In 0.5274 0.82203 0.27945 0.0
O443 O 0.57043 0.86484 0.26453 0.0
O444 O 0.54774 0.87552 0.28867 0.0
C445 C 0.48819 0.75676 0.28394 0.0
C446 C 0.57075 0.81898 0.30247 0.0
C447 C 0.48254 0.82466 0.25722 0.0
O448 O 0.50916 0.76892 0.27022 0.0
O449 O 0.48708 0.77793 0.29525 0.0
O450 O 0.48315 0.8292 0.2752 0.0
O451 O 0.50527 0.81934 0.25052 0.0
C452 C 0.5704 0.88664 0.27581 0.0
O453 O 0.54762 0.8242 0.30868 0.0
O454 O 0.57154 0.81509 0.28449 0.0
In455 In 0.19526 0.71913 0.21476 0.0
O456 O 0.15246 0.70281 0.19326 0.0
O457 O 0.14205 0.68746 0.22271 0.0
C458 C 0.26114 0.75743 0.21226 0.0
C459 C 0.19086 0.76792 0.23222 0.0
C460 C 0.19927 0.6635 0.21477 0.0
O461 O 0.243 0.75075 0.19734 0.0
O462 O 0.24568 0.74463 0.2277 0.0
O463 O 0.1961 0.67635 0.23016 0.0
O464 O 0.20017 0.67885 0.19954 0.0
C465 C 0.13065 0.68668 0.20616 0.0
O466 O 0.19002 0.74353 0.24132 0.0
O467 O 0.19354 0.76723 0.2142 0.0
H468 H 0.27237 0.0931 0.1262 0.0
H469 H 0.22742 0.0331 0.1769 0.0
H470 H 0.27707 0.07293 0.1957 0.0
H471 H 0.35827 0.1157 0.13682 0.0
H472 H 0.37536 0.15743 0.12718 0.0
H473 H 0.33687 0.12359 0.11774 0.0
H474 H 0.30677 0.15749 0.12459 0.0
H475 H 0.34512 0.19142 0.13403 0.0
H476 H 0.30759 0.17276 0.14838 0.0
H477 H 0.33029 0.12078 0.20904 0.0
H478 H 0.38335 0.17273 0.21609 0.0
H479 H 0.39376 0.20057 0.15633 0.0
C480 C 0.27298 0.0882 0.14125 0.0
C481 C 0.24608 0.06008 0.15015 0.0
C482 C 0.24783 0.05452 0.16984 0.0
C483 C 0.27589 0.07695 0.18059 0.0
C484 C 0.30194 0.10454 0.17135 0.0
C485 C 0.30075 0.11014 0.15211 0.0
C486 C 0.33163 0.14198 0.14563 0.0
C487 C 0.35172 0.13419 0.13098 0.0
C488 C 0.3222 0.16741 0.1377 0.0
C489 C 0.35027 0.15379 0.16431 0.0
C490 C 0.33276 0.1318 0.17896 0.0
C491 C 0.34434 0.13801 0.19766 0.0
C492 C 0.37446 0.1676 0.20151 0.0
C493 C 0.39268 0.19054 0.18672 0.0
C494 C 0.38054 0.1833 0.16786 0.0
H495 H 0.78909 0.20247 0.21494 0.0
H496 H 0.84458 0.21922 0.26761 0.0
H497 H 0.88925 0.21547 0.25008 0.0
H498 H 0.80456 0.14107 0.19716 0.0
H499 H 0.80829 0.15381 0.17257 0.0
H500 H 0.78307 0.16236 0.18872 0.0
H501 H 0.81746 0.22574 0.1805 0.0
H502 H 0.84266 0.21734 0.16416 0.0
H503 H 0.86246 0.24763 0.183 0.0
H504 H 0.92535 0.20458 0.22712 0.0
H505 H 0.94967 0.18785 0.20062 0.0
H506 H 0.86961 0.17744 0.16349 0.0
C507 C 0.81105 0.20623 0.2227 0.0
C508 C 0.81353 0.2114 0.24259 0.0
C509 C 0.8423 0.21544 0.25233 0.0
C510 C 0.86781 0.21337 0.24249 0.0
C511 C 0.86417 0.20733 0.22293 0.0
C512 C 0.83657 0.20402 0.21314 0.0
C513 C 0.83732 0.19514 0.19246 0.0
C514 C 0.80649 0.16107 0.18745 0.0
C515 C 0.84015 0.22314 0.17925 0.0
C516 C 0.86918 0.19318 0.19224 0.0
C517 C 0.88458 0.20063 0.20986 0.0
C518 C 0.9137 0.19906 0.2132 0.0
C519 C 0.9273 0.18949 0.19811 0.0
C520 C 0.91155 0.18139 0.18004 0.0
C521 C 0.88232 0.1836 0.17713 0.0
H522 H 0.86325 0.62768 0.21536 0.0
H523 H 0.78366 0.58838 0.25736 0.0
H524 H 0.77596 0.63765 0.25229 0.0
H525 H 0.89575 0.72015 0.22502 0.0
H526 H 0.90391 0.7294 0.19998 0.0
H527 H 0.90799 0.69575 0.21041 0.0
H528 H 0.86646 0.65457 0.18533 0.0
H529 H 0.86195 0.68777 0.17499 0.0
H530 H 0.82536 0.65012 0.18317 0.0
H531 H 0.77017 0.68564 0.23763 0.0
H532 H 0.76759 0.7266 0.21555 0.0
H533 H 0.85113 0.73278 0.18362 0.0
C534 C 0.84502 0.6301 0.224 0.0
C535 C 0.82411 0.60456 0.23676 0.0
C536 C 0.80022 0.60812 0.24769 0.0
C537 C 0.7957 0.63596 0.24487 0.0
C538 C 0.8158 0.66011 0.23139 0.0
C539 C 0.84046 0.6576 0.22142 0.0
C540 C 0.85611 0.68407 0.20613 0.0
C541 C 0.89314 0.70881 0.21066 0.0
C542 C 0.85219 0.66816 0.18625 0.0
C543 C 0.83503 0.70063 0.20812 0.0
C544 C 0.8124 0.68723 0.22301 0.0
C545 C 0.78832 0.6968 0.22624 0.0
C546 C 0.78698 0.72002 0.21367 0.0
C547 C 0.80916 0.73266 0.19796 0.0
C548 C 0.83396 0.72353 0.19559 0.0
H549 H 0.12973 0.2856 0.3575 0.0
H550 H 0.05882 0.21638 0.31615 0.0
H551 H 0.09143 0.25606 0.29019 0.0
H552 H 0.1458 0.36283 0.33437 0.0
H553 H 0.18958 0.38444 0.34079 0.0
H554 H 0.15929 0.3515 0.35585 0.0
H555 H 0.19315 0.32035 0.35338 0.0
H556 H 0.22341 0.35304 0.33822 0.0
H557 H 0.20245 0.31004 0.33022 0.0
H558 H 0.13385 0.3029 0.2688 0.0
H559 H 0.18167 0.35247 0.25388 0.0
H560 H 0.22444 0.38948 0.3098 0.0
C561 C 0.12071 0.27884 0.34301 0.0
C562 C 0.09167 0.24798 0.3388 0.0
C563 C 0.08093 0.24001 0.31966 0.0
C564 C 0.09931 0.26236 0.30486 0.0
C565 C 0.12821 0.29241 0.30955 0.0
C566 C 0.1387 0.30063 0.3282 0.0
C567 C 0.17116 0.33372 0.32958 0.0
C568 C 0.16614 0.35965 0.34081 0.0
C569 C 0.19919 0.32898 0.33837 0.0
C570 C 0.17764 0.34287 0.30874 0.0
C571 C 0.15256 0.31889 0.29738 0.0
C572 C 0.15351 0.32185 0.27759 0.0
C573 C 0.18078 0.35005 0.26926 0.0
C574 C 0.20674 0.37476 0.28071 0.0
C575 C 0.20499 0.37101 0.30069 0.0
H576 H 0.73528 0.81139 0.32976 0.0
H577 H 0.71194 0.81787 0.38905 0.0
H578 H 0.6614 0.8196 0.37915 0.0
H579 H 0.70865 0.86724 0.31114 0.0
H580 H 0.69123 0.84337 0.28962 0.0
H581 H 0.72564 0.84256 0.30134 0.0
H582 H 0.69077 0.77762 0.30324 0.0
H583 H 0.65624 0.77824 0.29153 0.0
H584 H 0.64998 0.75793 0.31435 0.0
H585 H 0.61386 0.82124 0.36296 0.0
H586 H 0.57193 0.82212 0.34137 0.0
H587 H 0.62568 0.81387 0.29265 0.0
C588 C 0.71952 0.81317 0.34064 0.0
C589 C 0.7275 0.81451 0.36016 0.0
C590 C 0.70626 0.81679 0.374 0.0
C591 C 0.67751 0.8178 0.36854 0.0
C592 C 0.67032 0.81643 0.34919 0.0
C593 C 0.69063 0.81411 0.33544 0.0
C594 C 0.67711 0.81297 0.31562 0.0
C595 C 0.70215 0.84335 0.30373 0.0
C596 C 0.66798 0.77971 0.3056 0.0
C597 C 0.64609 0.81505 0.3204 0.0
C598 C 0.64268 0.81708 0.33984 0.0
C599 C 0.61619 0.81959 0.34771 0.0
C600 C 0.59252 0.82008 0.33534 0.0
C601 C 0.59553 0.81798 0.31537 0.0
C602 C 0.62265 0.81537 0.30787 0.0
H603 H 0.1799 0.86802 0.32177 0.0
H604 H 0.19313 0.94757 0.28322 0.0
H605 H 0.19582 0.91468 0.25594 0.0
H606 H 0.23614 0.84712 0.29797 0.0
H607 H 0.21058 0.80279 0.30261 0.0
H608 H 0.20973 0.83274 0.31883 0.0
H609 H 0.14518 0.80412 0.31493 0.0
H610 H 0.14583 0.77415 0.29864 0.0
H611 H 0.12749 0.79912 0.29143 0.0
H612 H 0.19635 0.87227 0.23295 0.0
H613 H 0.19639 0.82485 0.21625 0.0
H614 H 0.1832 0.77399 0.27036 0.0
C615 C 0.18341 0.87862 0.3076 0.0
C616 C 0.18628 0.91031 0.30456 0.0
C617 C 0.19092 0.92332 0.28582 0.0
C618 C 0.19242 0.90481 0.27028 0.0
C619 C 0.18931 0.87349 0.2738 0.0
C620 C 0.18504 0.86061 0.29203 0.0
C621 C 0.18253 0.82653 0.29212 0.0
C622 C 0.21147 0.82737 0.30356 0.0
C623 C 0.14821 0.79939 0.29973 0.0
C624 C 0.18602 0.82211 0.27106 0.0
C625 C 0.18982 0.84938 0.26069 0.0
C626 C 0.19343 0.85083 0.24094 0.0
C627 C 0.19337 0.82378 0.23159 0.0
C628 C 0.1898 0.79579 0.24202 0.0
C629 C 0.18598 0.79503 0.26199 0.0
H630 H 0.59619 0.78025 0.81501 0.0
H631 H 0.59969 0.80471 0.75502 0.0
H632 H 0.65354 0.85715 0.76019 0.0
H633 H 0.63137 0.86444 0.83316 0.0
H634 H 0.6549 0.85817 0.85164 0.0
H635 H 0.61631 0.82322 0.84315 0.0
H636 H 0.64748 0.79066 0.8354 0.0
H637 H 0.68619 0.82553 0.84381 0.0
H638 H 0.68375 0.80958 0.82004 0.0
H639 H 0.70741 0.90719 0.7722 0.0
H640 H 0.75709 0.94979 0.78998 0.0
H641 H 0.71805 0.89086 0.84162 0.0
C642 C 0.60815 0.79674 0.80298 0.0
C643 C 0.59376 0.78856 0.78465 0.0
C644 C 0.61033 0.81059 0.76921 0.0
C645 C 0.64089 0.8404 0.77201 0.0
C646 C 0.65452 0.84765 0.79028 0.0
C647 C 0.63869 0.82636 0.80548 0.0
C648 C 0.65883 0.83939 0.82361 0.0
C649 C 0.63918 0.84675 0.83878 0.0
C650 C 0.66971 0.81483 0.83115 0.0
C651 C 0.68847 0.87137 0.81627 0.0
C652 C 0.68557 0.87587 0.79705 0.0
C653 C 0.70997 0.90389 0.78726 0.0
C654 C 0.73805 0.92792 0.79744 0.0
C655 C 0.74141 0.92352 0.81712 0.0
C656 C 0.71626 0.89484 0.82655 0.0
H657 H 0.10446 0.87197 0.87962 0.0
H658 H 0.14902 0.87213 0.93413 0.0
H659 H 0.19222 0.86432 0.91755 0.0
H660 H 0.11593 0.80859 0.85772 0.0
H661 H 0.12513 0.82812 0.83455 0.0
H662 H 0.09861 0.83462 0.85081 0.0
H663 H 0.13781 0.89906 0.84819 0.0
H664 H 0.16448 0.89274 0.83193 0.0
H665 H 0.18189 0.91704 0.85332 0.0
H666 H 0.22997 0.85506 0.89454 0.0
H667 H 0.25826 0.845 0.86725 0.0
H668 H 0.18822 0.85153 0.82851 0.0
C669 C 0.12336 0.87049 0.88809 0.0
C670 C 0.12344 0.87265 0.90814 0.0
C671 C 0.14856 0.87054 0.91872 0.0
C672 C 0.17319 0.86614 0.90944 0.0
C673 C 0.17233 0.86401 0.8896 0.0
C674 C 0.14803 0.86617 0.87909 0.0
C675 C 0.15211 0.86265 0.858 0.0
C676 C 0.12111 0.83165 0.8498 0.0
C677 C 0.15952 0.89479 0.84723 0.0
C678 C 0.18234 0.85792 0.85825 0.0
C679 C 0.19382 0.85884 0.87654 0.0
C680 C 0.22125 0.85443 0.88014 0.0
C681 C 0.23716 0.84876 0.8646 0.0
C682 C 0.22546 0.84754 0.8458 0.0
C683 C 0.19785 0.8524 0.84271 0.0
H684 H 0.21513 0.34396 0.88595 0.0
H685 H 0.11932 0.289 0.91458 0.0
H686 H 0.10917 0.33642 0.90917 0.0
H687 H 0.23282 0.43352 0.89903 0.0
H688 H 0.25102 0.4481 0.87578 0.0
H689 H 0.25558 0.41577 0.88763 0.0
H690 H 0.2302 0.37734 0.85812 0.0
H691 H 0.22513 0.40906 0.84635 0.0
H692 H 0.18931 0.36778 0.84971 0.0
H693 H 0.10297 0.38186 0.89303 0.0
H694 H 0.10187 0.42002 0.86845 0.0
H695 H 0.20144 0.44453 0.85014 0.0
C696 C 0.1928 0.34271 0.89191 0.0
C697 C 0.16808 0.31314 0.90073 0.0
C698 C 0.1388 0.3118 0.90806 0.0
C699 C 0.13286 0.33863 0.90502 0.0
C700 C 0.1568 0.36671 0.895 0.0
C701 C 0.18662 0.36915 0.88893 0.0
C702 C 0.20568 0.39864 0.87568 0.0
C703 C 0.23819 0.42561 0.8851 0.0
C704 C 0.21294 0.3875 0.85634 0.0
C705 C 0.18059 0.41055 0.87376 0.0
C706 C 0.15307 0.39276 0.8855 0.0
C707 C 0.12484 0.39664 0.88424 0.0
C708 C 0.12436 0.41831 0.87025 0.0
C709 C 0.15163 0.43508 0.85753 0.0
C710 C 0.18045 0.43214 0.85987 0.0
H711 H 0.7533 0.60572 0.66412 0.0
H712 H 0.79585 0.65984 0.71684 0.0
H713 H 0.8315 0.71141 0.69861 0.0
H714 H 0.82921 0.64376 0.63815 0.0
H715 H 0.81063 0.64543 0.61586 0.0
H716 H 0.78606 0.61341 0.63306 0.0
H717 H 0.74154 0.63232 0.63291 0.0
H718 H 0.76606 0.6645 0.61572 0.0
H719 H 0.75423 0.67554 0.6379 0.0
H720 H 0.86487 0.75606 0.67497 0.0
H721 H 0.89554 0.79061 0.64712 0.0
H722 H 0.83218 0.70788 0.60955 0.0
C723 C 0.76979 0.62857 0.67179 0.0
C724 C 0.77175 0.62886 0.69187 0.0
C725 C 0.79398 0.65906 0.70144 0.0
C726 C 0.81422 0.68854 0.69123 0.0
C727 C 0.81197 0.68741 0.67145 0.0
C728 C 0.79043 0.65826 0.66178 0.0
C729 C 0.79459 0.66347 0.64041 0.0
C730 C 0.8058 0.64014 0.63134 0.0
C731 C 0.76217 0.65867 0.6312 0.0
C732 C 0.82224 0.69987 0.63964 0.0
C733 C 0.8316 0.71328 0.65771 0.0
C734 C 0.85758 0.746 0.66072 0.0
C735 C 0.87485 0.76541 0.64483 0.0
C736 C 0.86613 0.75196 0.62621 0.0
C737 C 0.83914 0.71894 0.62362 0.0
H738 H 0.37995 0.16859 0.71202 0.0
H739 H 0.43723 0.16259 0.66449 0.0
H740 H 0.39368 0.1588 0.64218 0.0
H741 H 0.29859 0.11014 0.69393 0.0
H742 H 0.27929 0.1331 0.70314 0.0
H743 H 0.31504 0.13546 0.71508 0.0
H744 H 0.34645 0.20035 0.71218 0.0
H745 H 0.31085 0.19821 0.70016 0.0
H746 H 0.35161 0.21937 0.68904 0.0
H747 H 0.34386 0.15601 0.62533 0.0
H748 H 0.29104 0.15285 0.61508 0.0
H749 H 0.26685 0.16054 0.67402 0.0
C750 C 0.38341 0.16647 0.69691 0.0
C751 C 0.41193 0.16592 0.68991 0.0
C752 C 0.4155 0.16302 0.67009 0.0
C753 C 0.39096 0.16093 0.65736 0.0
C754 C 0.3632 0.16173 0.66478 0.0
C755 C 0.3593 0.16432 0.6841 0.0
C756 C 0.32714 0.16439 0.68855 0.0
C757 C 0.30363 0.13396 0.7009 0.0
C758 C 0.33447 0.19756 0.69804 0.0
C759 C 0.3134 0.16141 0.66867 0.0
C760 C 0.33459 0.15999 0.65515 0.0
C761 C 0.32711 0.1571 0.63579 0.0
C762 C 0.29707 0.15536 0.63013 0.0
C763 C 0.27491 0.15647 0.64379 0.0
C764 C 0.28334 0.1597 0.66328 0.0
H765 H 0.79033 0.22879 0.64914 0.0
H766 H 0.89375 0.30274 0.63711 0.0
H767 H 0.89768 0.26285 0.61502 0.0
H768 H 0.805 0.16654 0.65586 0.0
H769 H 0.76642 0.1332 0.64614 0.0
H770 H 0.76774 0.1702 0.65537 0.0
H771 H 0.74657 0.17982 0.62306 0.0
H772 H 0.74488 0.14243 0.61371 0.0
H773 H 0.76867 0.18189 0.60142 0.0
H774 H 0.89404 0.21162 0.59984 0.0
H775 H 0.88478 0.15402 0.59547 0.0
H776 H 0.78578 0.11292 0.6201 0.0
C777 C 0.81326 0.23723 0.64109 0.0
C778 C 0.84155 0.26902 0.64453 0.0
C779 C 0.87161 0.27866 0.6344 0.0
C780 C 0.874 0.25616 0.62179 0.0
C781 C 0.84615 0.22411 0.61958 0.0
C782 C 0.81626 0.21475 0.62896 0.0
C783 C 0.79237 0.17732 0.6275 0.0
C784 C 0.78235 0.16089 0.64739 0.0
C785 C 0.76129 0.16994 0.61572 0.0
C786 C 0.81421 0.1667 0.61693 0.0
C787 C 0.84462 0.19409 0.61174 0.0
C788 C 0.87002 0.19009 0.6034 0.0
C789 C 0.86459 0.15739 0.60091 0.0
C790 C 0.83441 0.12944 0.60721 0.0
C791 C 0.8087 0.13411 0.6148 0.0
H792 H 0.07553 0.54816 0.50916 0.0
H793 H 0.03843 0.52624 0.56726 0.0
H794 H 0.99356 0.47008 0.55717 0.0
H795 H 0.99811 0.51266 0.48733 0.0
H796 H 0.00955 0.49634 0.46707 0.0
H797 H 0.04115 0.53258 0.47946 0.0
H798 H 0.0754 0.50237 0.48483 0.0
H799 H 0.04371 0.46588 0.47248 0.0
H800 H 0.05584 0.46191 0.49633 0.0
H801 H 0.9492 0.41872 0.53994 0.0
H802 H 0.90831 0.37814 0.51681 0.0
H803 H 0.97542 0.43433 0.47046 0.0
C804 C 0.05835 0.53132 0.51983 0.0
C805 C 0.06043 0.54144 0.53897 0.0
C806 C 0.03727 0.51889 0.5525 0.0
C807 C 0.01183 0.48689 0.54692 0.0
C808 C 0.01016 0.47782 0.52784 0.0
C809 C 0.03292 0.49941 0.51452 0.0
C810 C 0.02411 0.48501 0.49465 0.0
C811 C 0.01784 0.50801 0.48136 0.0
C812 C 0.05139 0.4784 0.48661 0.0
C813 C 0.99214 0.45255 0.49874 0.0
C814 C 0.98471 0.44844 0.51797 0.0
C815 C 0.95503 0.42138 0.52487 0.0
C816 C 0.93201 0.39845 0.51168 0.0
C817 C 0.93883 0.40317 0.49192 0.0
C818 C 0.96966 0.43001 0.48551 0.0
H819 H 0.46714 0.50664 0.55481 0.0
H820 H 0.40998 0.5202 0.51001 0.0
H821 H 0.44613 0.51457 0.48578 0.0
H822 H 0.54891 0.55263 0.53152 0.0
H823 H 0.56245 0.52446 0.54031 0.0
H824 H 0.53316 0.53131 0.55394 0.0
H825 H 0.49139 0.46724 0.55417 0.0
H826 H 0.52043 0.46019 0.54049 0.0
H827 H 0.47833 0.44481 0.53189 0.0
H828 H 0.4859 0.50319 0.46664 0.0
H829 H 0.52792 0.48982 0.45387 0.0
H830 H 0.56011 0.48552 0.51141 0.0
C831 C 0.46239 0.50876 0.5399 0.0
C832 C 0.43575 0.51381 0.53423 0.0
C833 C 0.43035 0.51645 0.51462 0.0
C834 C 0.45071 0.51325 0.5008 0.0
C835 C 0.47649 0.50779 0.5069 0.0
C836 C 0.48258 0.50592 0.526 0.0
C837 C 0.51136 0.49922 0.52887 0.0
C838 C 0.54071 0.52867 0.53927 0.0
C839 C 0.49966 0.46589 0.53948 0.0
C840 C 0.52022 0.49698 0.50836 0.0
C841 C 0.49982 0.502 0.49591 0.0
C842 C 0.50224 0.49961 0.47625 0.0
C843 C 0.52611 0.49189 0.46915 0.0
C844 C 0.54735 0.48681 0.48166 0.0
C845 C 0.54446 0.48965 0.50151 0.0
H846 H 0.49272 0.03751 0.51268 0.0
H847 H 0.52572 0.00949 0.46138 0.0
H848 H 0.53333 0.96803 0.47969 0.0
H849 H 0.54922 0.02907 0.54538 0.0
H850 H 0.51868 0.01167 0.56429 0.0
H851 H 0.51684 0.04015 0.54733 0.0
H852 H 0.45541 0.99586 0.53912 0.0
H853 H 0.45701 0.9674 0.55614 0.0
H854 H 0.44579 0.95441 0.53173 0.0
H855 H 0.53633 0.92872 0.50331 0.0
H856 H 0.53148 0.89222 0.53046 0.0
H857 H 0.49642 0.94554 0.56629 0.0
C858 C 0.5016 0.02269 0.50534 0.0
C859 C 0.50865 0.02675 0.48562 0.0
C860 C 0.52011 0.00679 0.47649 0.0
C861 C 0.52466 0.98325 0.48676 0.0
C862 C 0.51764 0.97991 0.50619 0.0
C863 C 0.5062 0.99892 0.51539 0.0
C864 C 0.4994 0.98951 0.53625 0.0
C865 C 0.52242 0.01938 0.54907 0.0
C866 C 0.46219 0.97598 0.54109 0.0
C867 C 0.50849 0.96206 0.53725 0.0
C868 C 0.51922 0.95709 0.5198 0.0
C869 C 0.52812 0.93246 0.51709 0.0
C870 C 0.52538 0.91192 0.53258 0.0
C871 C 0.51371 0.91612 0.55047 0.0
C872 C 0.50566 0.94187 0.55282 0.0
H873 H 0.46423 0.95486 0.02797 0.0
H874 H 0.40313 0.89189 0.98141 0.0
H875 H 0.43934 0.93609 0.9584 0.0
H876 H 0.47944 0.0335 0.00863 0.0
H877 H 0.52197 0.05647 0.01727 0.0
H878 H 0.49116 0.01993 0.02994 0.0
H879 H 0.52913 0.99325 0.02724 0.0
H880 H 0.56008 0.02971 0.01458 0.0
H881 H 0.54341 0.98863 0.00409 0.0
H882 H 0.48247 0.98728 0.94062 0.0
H883 H 0.52949 0.04122 0.92929 0.0
H884 H 0.56209 0.07017 0.98772 0.0
C885 C 0.45839 0.95033 0.01294 0.0
C886 C 0.43087 0.92 0.00643 0.0
C887 C 0.42412 0.91499 0.98666 0.0
C888 C 0.44451 0.93993 0.97351 0.0
C889 C 0.47146 0.96959 0.98043 0.0
C890 C 0.47844 0.97484 -0.00032 0.0
C891 C 0.509 0.00874 0.00347 0.0
C892 C 0.49983 0.03097 0.01554 0.0
C893 C 0.53706 0.00483 0.0129 0.0
C894 C 0.5182 0.02183 0.98332 0.0
C895 C 0.49624 0.99892 0.97024 0.0
C896 C 0.49978 0.00541 0.95073 0.0
C897 C 0.52654 0.0361 0.94446 0.0
C898 C 0.54937 0.05984 0.95765 0.0
C899 C 0.545 0.05254 0.97732 0.0
H900 H 0.94947 0.48832 0.9508 0.0
H901 H 0.94435 0.55684 0.99146 0.0
H902 H 0.99417 0.56278 0.00789 0.0
H903 H 0.96952 0.44475 0.98399 0.0
H904 H 0.9982 0.43887 0.96914 0.0
H905 H 0.96527 0.44362 0.95841 0.0
H906 H 0.00914 0.49363 0.93834 0.0
H907 H 0.04227 0.48892 0.94894 0.0
H908 H 0.04358 0.52876 0.95013 0.0
H909 H 0.03891 0.55679 0.02216 0.0
H910 H 0.0781 0.5393 0.03389 0.0
H911 H 0.05632 0.47409 0.98478 0.0
C912 C 0.95956 0.50524 0.96283 0.0
C913 C 0.94335 0.52233 0.96985 0.0
C914 C 0.9565 0.54357 0.98591 0.0
C915 C 0.98486 0.54725 0.99528 0.0
C916 C -0.00017 0.52947 0.98843 0.0
C917 C 0.9879 0.50894 0.97258 0.0
C918 C 0.00718 0.4904 0.96948 0.0
C919 C 0.98363 0.45215 0.97031 0.0
C920 C 0.02671 0.50107 0.9506 0.0
C921 C 0.03083 0.50291 0.98645 0.0
C922 C 0.02626 0.52577 0.99695 0.0
C923 C 0.04318 0.53933 0.01393 0.0
C924 C 0.06523 0.52906 0.02053 0.0
C925 C 0.07026 0.50545 0.0102 0.0
C926 C 0.05326 0.49258 0.99276 0.0
H927 H 0.52816 0.45188 0.94457 0.0
H928 H 0.53843 0.50983 0.89363 0.0
H929 H 0.53454 0.55244 0.91319 0.0
H930 H 0.46767 0.46729 0.96772 0.0
H931 H 0.48447 0.46995 0.99127 0.0
H932 H 0.48914 0.44455 0.97332 0.0
H933 H 0.55357 0.47729 0.97825 0.0
H934 H 0.5491 0.50286 0.99619 0.0
H935 H 0.57615 0.52238 0.97598 0.0
H936 H 0.52894 0.58853 0.93824 0.0
H937 H 0.52018 0.61449 0.96696 0.0
H938 H 0.5129 0.5327 0.00144 0.0
C939 C 0.52972 0.4736 0.93755 0.0
C940 C 0.53367 0.47759 0.91759 0.0
C941 C 0.5354 0.50625 0.90891 0.0
C942 C 0.53329 0.53064 0.9199 0.0
C943 C 0.52938 0.52597 0.93954 0.0
C944 C 0.5275 0.49812 0.9483 0.0
C945 C 0.5224 0.49872 0.9696 0.0
C946 C 0.48893 0.46833 0.97584 0.0
C947 C 0.55208 0.50042 0.98065 0.0
C948 C 0.5216 0.53116 0.97142 0.0
C949 C 0.52584 0.5466 0.95394 0.0
C950 C 0.52565 0.57671 0.95202 0.0
C951 C 0.52071 0.59129 0.96839 0.0
C952 C 0.51591 0.57565 0.9864 0.0
C953 C 0.51659 0.54531 0.98787 0.0
H954 H 0.23458 0.94662 0.11319 0.0
H955 H 0.2123 0.9769 0.05907 0.0
H956 H 0.24768 0.95818 0.04254 0.0
H957 H 0.32155 0.97279 0.1024 0.0
H958 H 0.32054 0.93803 0.11489 0.0
H959 H 0.29387 0.95419 0.12249 0.0
H960 H 0.24171 0.89491 0.11914 0.0
H961 H 0.2682 0.87854 0.11159 0.0
H962 H 0.23378 0.87292 0.09676 0.0
H963 H 0.2826 0.93349 0.03187 0.0
H964 H 0.31637 0.9059 0.02754 0.0
H965 H 0.31861 0.89405 0.08877 0.0
C966 C 0.23715 0.94932 0.09785 0.0
C967 C 0.22056 0.96301 0.08734 0.0
C968 C 0.22475 0.96641 0.06734 0.0
C969 C 0.24481 0.9559 0.05786 0.0
C970 C 0.26078 0.94247 0.06865 0.0
C971 C 0.25738 0.93935 0.08821 0.0
C972 C 0.27715 0.92395 0.09643 0.0
C973 C 0.30493 0.94873 0.10984 0.0
C974 C 0.25381 0.8906 0.10657 0.0
C975 C 0.29176 0.91832 0.07837 0.0
C976 C 0.28192 0.92919 0.06253 0.0
C977 C 0.29074 0.92522 0.04416 0.0
C978 C 0.30984 0.90944 0.04186 0.0
C979 C 0.32021 0.89806 0.05784 0.0
C980 C 0.31143 0.90299 0.07635 0.0
H981 H 0.081 0.39296 0.08502 0.0
H982 H 0.03955 0.36722 0.02795 0.0
H983 H -0.00046 0.30964 0.03875 0.0
H984 H 0.07914 0.31687 0.09392 0.0
H985 H 0.06843 0.3148 0.11879 0.0
H986 H 0.09123 0.3549 0.10713 0.0
H987 H 0.04564 0.36927 0.11732 0.0
H988 H 0.02269 0.32917 0.12906 0.0
H989 H 0.0024 0.34102 0.11119 0.0
H990 H 0.96607 0.254 0.05534 0.0
H991 H 0.94362 0.20397 0.07624 0.0
H992 H 0.00843 0.26593 0.12197 0.0
C993 C 0.0631 0.37536 0.0749 0.0
C994 C 0.06315 0.38451 0.05571 0.0
C995 C 0.03983 0.36065 0.04276 0.0
C996 C 0.01694 0.32796 0.04876 0.0
C997 C 0.01781 0.31954 0.06773 0.0
C998 C 0.04034 0.34252 0.0806 0.0
C999 C 0.03778 0.32647 0.09981 0.0
C1000 C 0.07112 0.32837 0.10522 0.0
C1001 C 0.02645 0.34244 0.11525 0.0
C1002 C 0.01075 0.29077 0.09562 0.0
C1003 C -0.00082 0.28733 0.07713 0.0
C1004 C 0.97478 0.25641 0.06989 0.0
C1005 C 0.96216 0.22817 0.08183 0.0
C1006 C 0.97433 0.23113 0.10066 0.0
C1007 C -0.00136 0.26292 0.10763 0.0
H1008 H 0.60763 0.66041 0.0548 0.0
H1009 H 0.53183 0.6071 0.09803 0.0
H1010 H 0.57618 0.6269 0.12265 0.0
H1011 H 0.67339 0.64624 0.07601 0.0
H1012 H 0.70642 0.68739 0.06915 0.0
H1013 H 0.66906 0.66593 0.05482 0.0
H1014 H 0.6598 0.71694 0.05797 0.0
H1015 H 0.69694 0.73844 0.07238 0.0
H1016 H 0.65737 0.73186 0.08136 0.0
H1017 H 0.62802 0.65816 0.14285 0.0
H1018 H 0.68359 0.69623 0.15695 0.0
H1019 H 0.72558 0.72755 0.1003 0.0
C1020 C 0.6004 0.65233 0.06939 0.0
C1021 C 0.56633 0.63218 0.07454 0.0
C1022 C 0.55783 0.62237 0.09379 0.0
C1023 C 0.58283 0.6335 0.10784 0.0
C1024 C 0.61617 0.65402 0.10234 0.0
C1025 C 0.625 0.663 0.08353 0.0
C1026 C 0.66235 0.68676 0.08145 0.0
C1027 C 0.67877 0.6706 0.06966 0.0
C1028 C 0.66951 0.72049 0.07279 0.0
C1029 C 0.67306 0.69066 0.10211 0.0
C1030 C 0.6461 0.67144 0.11394 0.0
C1031 C 0.6494 0.67283 0.13371 0.0
C1032 C 0.681 0.69459 0.14158 0.0
C1033 C 0.70886 0.71455 0.12969 0.0
C1034 C 0.70484 0.71212 0.10971 0.0
H1035 H 0.88938 0.27133 0.42216 0.0
H1036 H 0.97019 0.37451 0.42506 0.0
H1037 H 0.01138 0.35586 0.41827 0.0
H1038 H 0.92956 0.23359 0.44424 0.0
H1039 H 0.91275 0.19719 0.429 0.0
H1040 H 0.88959 0.21877 0.43271 0.0
H1041 H 0.88762 0.22717 0.3963 0.0
H1042 H 0.90995 0.20474 0.39242 0.0
H1043 H 0.92612 0.24637 0.38279 0.0
H1044 H 0.04376 0.32425 0.41516 0.0
H1045 H 0.06396 0.28398 0.4094 0.0
H1046 H 0.96109 0.20254 0.40624 0.0
C1047 C 0.91569 0.29003 0.42083 0.0
C1048 C 0.92682 0.32428 0.42394 0.0
C1049 C 0.96133 0.34819 0.42234 0.0
C1050 C 0.98483 0.33776 0.41873 0.0
C1051 C 0.97312 0.3035 0.41639 0.0
C1052 C 0.93924 0.28015 0.4168 0.0
C1053 C 0.93293 0.24491 0.41366 0.0
C1054 C 0.91516 0.2223 0.43093 0.0
C1055 C 0.91299 0.22993 0.39519 0.0
C1056 C 0.96857 0.25187 0.41185 0.0
C1057 C 0.9915 0.28571 0.41373 0.0
C1058 C 0.02601 0.29778 0.41339 0.0
C1059 C 0.03726 0.27475 0.41036 0.0
C1060 C 0.014 0.24032 0.40743 0.0
C1061 C 0.97933 0.2288 0.40842 0.0
H1062 H 0.6811 0.58114 0.45096 0.0
H1063 H 0.64657 0.5246 0.39824 0.0
H1064 H 0.67767 0.57747 0.37991 0.0
H1065 H 0.67558 0.65305 0.43524 0.0
H1066 H 0.71258 0.6827 0.44806 0.0
H1067 H 0.68744 0.64049 0.45688 0.0
H1068 H 0.73982 0.63321 0.4569 0.0
H1069 H 0.7651 0.67533 0.44799 0.0
H1070 H 0.76362 0.64055 0.43524 0.0
H1071 H 0.71366 0.63613 0.36753 0.0
H1072 H 0.74982 0.69666 0.36162 0.0
H1073 H 0.76018 0.71526 0.42259 0.0
C1074 C 0.67997 0.57983 0.43555 0.0
C1075 C 0.66148 0.54877 0.42598 0.0
C1076 C 0.66054 0.54814 0.40583 0.0
C1077 C 0.67817 0.57801 0.39533 0.0
C1078 C 0.69638 0.60817 0.40524 0.0
C1079 C 0.69721 0.60932 0.4249 0.0
C1080 C 0.71851 0.64497 0.43212 0.0
C1081 C 0.69725 0.65594 0.44376 0.0
C1082 C 0.74854 0.64872 0.44375 0.0
C1083 C 0.72977 0.6638 0.41343 0.0
C1084 C 0.71678 0.64204 0.39812 0.0
C1085 C 0.72386 0.65338 0.37939 0.0
C1086 C 0.74452 0.68785 0.37622 0.0
C1087 C 0.75785 0.71072 0.39166 0.0
C1088 C 0.75038 0.69842 0.41052 0.0
H1089 H 0.38259 0.04036 0.44278 0.0
H1090 H 0.44459 0.03941 0.39636 0.0
H1091 H 0.39418 0.00844 0.37638 0.0
H1092 H 0.3083 0.95663 0.43289 0.0
H1093 H 0.27914 0.97063 0.43891 0.0
H1094 H 0.31947 0.98913 0.45048 0.0
H1095 H 0.33198 0.04825 0.43979 0.0
H1096 H 0.29176 0.02998 0.42825 0.0
H1097 H 0.32941 0.05616 0.41486 0.0
H1098 H 0.3393 0.98406 0.36035 0.0
H1099 H 0.28258 0.96788 0.34887 0.0
H1100 H 0.25462 0.98273 0.40554 0.0
C1101 C 0.38543 0.03305 0.42853 0.0
C1102 C 0.41745 0.04214 0.42111 0.0
C1103 C 0.42029 0.03264 0.40232 0.0
C1104 C 0.39179 0.01489 0.39091 0.0
C1105 C 0.36064 0.00669 0.39854 0.0
C1106 C 0.35718 0.01532 0.41692 0.0
C1107 C 0.3211 0.00576 0.42106 0.0
C1108 C 0.30612 0.97894 0.43677 0.0
C1109 C 0.31842 0.03689 0.42629 0.0
C1110 C 0.30507 0.99147 0.40191 0.0
C1111 C 0.32839 0.99194 0.38923 0.0
C1112 C 0.32064 0.98291 0.37021 0.0
C1113 C 0.28844 0.97384 0.36382 0.0
C1114 C 0.26433 0.97366 0.37643 0.0
C1115 C 0.27243 0.9818 0.39581 0.0
H1116 H 0.75518 0.04948 0.85763 0.0
H1117 H 0.79601 0.02937 0.90848 0.0
H1118 H 0.76969 0.05422 0.9283 0.0
H1119 H 0.76504 0.12913 0.87322 0.0
H1120 H 0.72621 0.12184 0.86272 0.0
H1121 H 0.74879 0.10306 0.85233 0.0
H1122 H 0.69588 0.04421 0.85525 0.0
H1123 H 0.67314 0.0628 0.86564 0.0
H1124 H 0.67594 0.03004 0.87816 0.0
H1125 H 0.73879 0.08026 0.94267 0.0
H1126 H 0.70429 0.10569 0.95096 0.0
H1127 H 0.68272 0.10901 0.89101 0.0
C1128 C 0.75866 0.05046 0.87292 0.0
C1129 C 0.77768 0.03756 0.88153 0.0
C1130 C 0.78155 0.03911 0.90159 0.0
C1131 C 0.76674 0.0532 0.91297 0.0
C1132 C 0.7481 0.06561 0.90408 0.0
C1133 C 0.74393 0.06439 0.88454 0.0
C1134 C 0.72211 0.07905 0.87872 0.0
C1135 C 0.74172 0.11012 0.86599 0.0
C1136 C 0.68986 0.05243 0.86886 0.0
C1137 C 0.71463 0.08857 0.89806 0.0
C1138 C 0.72999 0.08063 0.91245 0.0
C1139 C 0.72667 0.08667 0.93154 0.0
C1140 C 0.70701 0.10112 0.9361 0.0
C1141 C 0.69085 0.10935 0.92164 0.0
C1142 C 0.69485 0.10306 0.90236 0.0
H1143 H 0.92064 0.62665 0.93198 0.0
H1144 H 0.87905 0.61109 0.98901 0.0
H1145 H 0.91148 0.6727 0.99469 0.0
H1146 H 0.00289 0.69221 0.94341 0.0
H1147 H 0.00775 0.71448 0.92143 0.0
H1148 H 0.98119 0.66956 0.92225 0.0
H1149 H 0.93112 0.67496 0.90951 0.0
H1150 H 0.95762 0.71984 0.90844 0.0
H1151 H 0.91901 0.70174 0.92181 0.0
H1152 H 0.95056 0.73751 0.99361 0.0
H1153 H 0.98786 0.79757 0.98501 0.0
H1154 H 0.00161 0.76721 0.92876 0.0
C1155 C 0.91817 0.63606 0.94569 0.0
C1156 C 0.89739 0.61416 0.96007 0.0
C1157 C 0.8948 0.62755 0.97777 0.0
C1158 C 0.91325 0.66243 0.98113 0.0
C1159 C 0.93397 0.68331 0.96662 0.0
C1160 C 0.93617 0.67041 0.94921 0.0
C1161 C 0.95952 0.69753 0.9357 0.0
C1162 C 0.98962 0.69317 0.9304 0.0
C1163 C 0.94068 0.69858 0.91782 0.0
C1164 C 0.97013 0.72798 0.94808 0.0
C1165 C 0.95556 0.71961 0.96595 0.0
C1166 C 0.96201 0.74423 0.97964 0.0
C1167 C 0.98331 0.77819 0.97471 0.0
C1168 C 0.99742 0.78689 0.95622 0.0
C1169 C 0.99103 0.76134 0.94298 0.0
H1170 H 0.4267 0.33647 0.89722 0.0
H1171 H 0.44524 0.37293 0.83895 0.0
H1172 H 0.38375 0.34215 0.83291 0.0
H1173 H 0.35672 0.25409 0.88782 0.0
H1174 H 0.33522 0.25365 0.9094 0.0
H1175 H 0.38036 0.2771 0.90845 0.0
H1176 H 0.37972 0.33103 0.91871 0.0
H1177 H 0.33464 0.30776 0.91974 0.0
H1178 H 0.35559 0.34482 0.90509 0.0
H1179 H 0.31913 0.30764 0.83409 0.0
H1180 H 0.25875 0.27554 0.84261 0.0
H1181 H 0.28523 0.26396 0.9003 0.0
C1182 C 0.41802 0.33789 0.88309 0.0
C1183 C 0.44071 0.35697 0.86851 0.0
C1184 C 0.4282 0.35835 0.85031 0.0
C1185 C 0.3934 0.34091 0.84677 0.0
C1186 C 0.37172 0.32237 0.8616 0.0
C1187 C 0.38374 0.32094 0.8794 0.0
C1188 C 0.35575 0.30063 0.89329 0.0
C1189 C 0.3571 0.26952 0.90013 0.0
C1190 C 0.35648 0.32237 0.9102 0.0
C1191 C 0.3258 0.29094 0.88065 0.0
C1192 C 0.33529 0.30334 0.86236 0.0
C1193 C 0.31153 0.29778 0.84835 0.0
C1194 C 0.27734 0.27948 0.8533 0.0
C1195 C 0.26741 0.26732 0.87211 0.0
C1196 C 0.29205 0.27292 0.88581 0.0
H1197 H 0.96794 0.72677 0.58761 0.0
H1198 H 0.96238 0.75338 0.52894 0.0
H1199 H 0.9957 0.72707 0.51888 0.0
H1200 H 0.05109 0.74649 0.58641 0.0
H1201 H 0.04578 0.71269 0.60173 0.0
H1202 H 0.01797 0.72947 0.60392 0.0
H1203 H 0.96658 0.6702 0.59875 0.0
H1204 H 0.99421 0.65309 0.59677 0.0
H1205 H 0.96488 0.64637 0.57794 0.0
H1206 H 0.03405 0.70261 0.51592 0.0
H1207 H 0.07281 0.68055 0.51987 0.0
H1208 H 0.0538 0.67112 0.58079 0.0
C1209 C 0.97304 0.72644 0.57256 0.0
C1210 C 0.96242 0.74194 0.559 0.0
C1211 C 0.97002 0.74136 0.53951 0.0
C1212 C 0.98897 0.72656 0.53371 0.0
C1213 C -0.0001 0.7124 0.54759 0.0
C1214 C 0.99193 0.71199 0.5666 0.0
C1215 C 0.00843 0.69726 0.57891 0.0
C1216 C 0.03223 0.72302 0.5936 0.0
C1217 C 0.98194 0.6648 0.58866 0.0
C1218 C 0.02764 0.69006 0.56393 0.0
C1219 C 0.02218 0.6987 0.54594 0.0
C1220 C 0.0382 0.69546 0.52991 0.0
C1221 C 0.06028 0.68301 0.53233 0.0
C1222 C 0.06631 0.6741 0.55066 0.0
C1223 C 0.04961 0.6776 0.56662 0.0
H1224 H 0.24586 0.2653 0.62898 0.0
H1225 H 0.20963 0.22342 0.57277 0.0
H1226 H 0.23627 0.2808 0.55933 0.0
H1227 H 0.23552 0.33786 0.62426 0.0
H1228 H 0.27336 0.36522 0.63717 0.0
H1229 H 0.25062 0.32095 0.64243 0.0
H1230 H 0.30429 0.31735 0.63615 0.0
H1231 H 0.3272 0.36158 0.63087 0.0
H1232 H 0.32585 0.33175 0.61368 0.0
H1233 H 0.26666 0.34223 0.55212 0.0
H1234 H 0.30049 0.40392 0.55113 0.0
H1235 H 0.31853 0.40607 0.61199 0.0
C1236 C 0.24335 0.2682 0.61385 0.0
C1237 C 0.22556 0.23999 0.60188 0.0
C1238 C 0.22312 0.24475 0.58215 0.0
C1239 C 0.23811 0.27719 0.57442 0.0
C1240 C 0.25555 0.30447 0.58662 0.0
C1241 C 0.25838 0.30034 0.6059 0.0
C1242 C 0.2793 0.33381 0.61579 0.0
C1243 C 0.25845 0.3398 0.6308 0.0
C1244 C 0.31104 0.33626 0.62464 0.0
C1245 C 0.28785 0.35748 0.59905 0.0
C1246 C 0.2737 0.33997 0.5824 0.0
C1247 C 0.27788 0.35621 0.56505 0.0
C1248 C 0.29713 0.39127 0.56466 0.0
C1249 C 0.31216 0.40977 0.5815 0.0
C1250 C 0.30739 0.39258 0.59891 0.0
H1251 H 0.71656 0.01984 0.61464 0.0
H1252 H 0.73448 0.9662 0.65964 0.0
H1253 H 0.67383 0.93626 0.66752 0.0
H1254 H 0.64439 0.02366 0.63884 0.0
H1255 H 0.62352 0.01782 0.61625 0.0
H1256 H 0.66872 0.04026 0.61737 0.0
H1257 H 0.67071 -0.00047 0.59245 0.0
H1258 H 0.62585 0.97745 0.59115 0.0
H1259 H 0.6475 0.95496 0.59693 0.0
H1260 H 0.61072 0.90376 0.66538 0.0
H1261 H 0.55281 0.8715 0.65276 0.0
H1262 H 0.57652 0.94802 0.6102 0.0
C1263 C 0.70784 0.00249 0.62653 0.0
C1264 C 0.73 0.99518 0.63652 0.0
C1265 C 0.71781 0.97224 0.6519 0.0
C1266 C 0.68345 0.95529 0.65651 0.0
C1267 C 0.66194 0.96226 0.64589 0.0
C1268 C 0.67389 0.98574 0.63136 0.0
C1269 C 0.64565 0.98575 0.62037 0.0
C1270 C 0.64557 0.01884 0.6234 0.0
C1271 C 0.64754 0.97898 0.59899 0.0
C1272 C 0.6158 0.95683 0.62997 0.0
C1273 C 0.62549 0.94411 0.64504 0.0
C1274 C 0.60268 0.91424 0.65412 0.0
C1275 C 0.56975 0.89617 0.64701 0.0
C1276 C 0.56025 0.90812 0.63101 0.0
C1277 C 0.58304 0.9394 0.62301 0.0
H1278 H 0.64484 0.59224 0.72374 0.0
H1279 H 0.68412 0.58899 0.77943 0.0
H1280 H 0.65107 0.61259 0.79386 0.0
H1281 H 0.64608 0.67053 0.73065 0.0
H1282 H 0.60801 0.65732 0.71733 0.0
H1283 H 0.6348 0.64033 0.71166 0.0
H1284 H 0.58471 0.58005 0.71628 0.0
H1285 H 0.55779 0.59684 0.72208 0.0
H1286 H 0.56194 0.56895 0.7385 0.0
H1287 H 0.6121 0.63483 0.80207 0.0
H1288 H 0.57325 0.65728 0.80337 0.0
H1289 H 0.56109 0.64709 0.74195 0.0
C1290 C 0.64658 0.59653 0.73899 0.0
C1291 C 0.6669 0.58871 0.75053 0.0
C1292 C 0.66871 0.5949 0.77037 0.0
C1293 C 0.64997 0.60817 0.77866 0.0
C1294 C 0.62989 0.61528 0.76685 0.0
C1295 C 0.62837 0.60994 0.74741 0.0
C1296 C 0.60528 0.62 0.73777 0.0
C1297 C 0.62471 0.64876 0.72351 0.0
C1298 C 0.57568 0.58965 0.72809 0.0
C1299 C 0.5938 0.63173 0.75483 0.0
C1300 C 0.60811 0.62864 0.77149 0.0
C1301 C 0.60088 0.63748 0.78912 0.0
C1302 C 0.5787 0.65009 0.7897 0.0
C1303 C 0.56421 0.65394 0.77274 0.0
C1304 C 0.57184 0.6445 0.75513 0.0
H1305 H 0.44695 0.06402 0.75589 0.0
H1306 H 0.38087 0.10555 0.76104 0.0
H1307 H 0.33353 0.04906 0.76893 0.0
H1308 H 0.39015 0.98726 0.73477 0.0
H1309 H 0.40388 0.9625 0.74782 0.0
H1310 H 0.43274 0.00623 0.74328 0.0
H1311 H 0.4446 0.01733 0.77946 0.0
H1312 H 0.41641 0.97346 0.78407 0.0
H1313 H 0.41001 0.00478 0.79574 0.0
H1314 H 0.29236 0.98653 0.77286 0.0
H1315 H 0.26311 0.92511 0.77899 0.0
H1316 H 0.35766 0.92643 0.77386 0.0
C1317 C 0.42264 0.06126 0.75907 0.0
C1318 C 0.41737 0.08889 0.75796 0.0
C1319 C 0.38533 0.08457 0.76211 0.0
C1320 C 0.35831 0.0526 0.76638 0.0
C1321 C 0.36409 0.02555 0.76679 0.0
C1322 C 0.39571 0.02979 0.7638 0.0
C1323 C 0.39562 0.99697 0.76556 0.0
C1324 C 0.40622 0.98771 0.74673 0.0
C1325 C 0.41797 0.99821 0.7822 0.0
C1326 C 0.35892 0.97345 0.76974 0.0
C1327 C 0.34094 0.9902 0.77005 0.0
C1328 C 0.30627 0.97324 0.77289 0.0
C1329 C 0.28982 0.93843 0.77614 0.0
C1330 C 0.3083 0.92142 0.77686 0.0
C1331 C 0.34311 0.93908 0.7734 0.0
H1332 H 0.95585 0.34261 0.70977 0.0
H1333 H 0.88423 0.28143 0.75323 0.0
H1334 H 0.93069 0.29699 0.77595 0.0
H1335 H 0.0269 0.32868 0.72612 0.0
H1336 H 0.05755 0.37147 0.7204 0.0
H1337 H 0.01965 0.3496 0.70651 0.0
H1338 H 0.00657 0.39735 0.71328 0.0
H1339 H 0.04405 0.41913 0.7273 0.0
H1340 H 0.00406 0.40854 0.73762 0.0
H1341 H 0.9826 0.32817 0.79538 0.0
H1342 H 0.0364 0.37037 0.80964 0.0
H1343 H 0.07483 0.41019 0.75343 0.0
C1344 C 0.95006 0.33151 0.72386 0.0
C1345 C 0.91652 0.31076 0.72976 0.0
C1346 C 0.9098 0.29718 0.74839 0.0
C1347 C 0.93605 0.30584 0.76138 0.0
C1348 C 0.96881 0.32763 0.75537 0.0
C1349 C 0.97595 0.33983 0.73693 0.0
C1350 C 0.01267 0.36585 0.73464 0.0
C1351 C 0.03023 0.35313 0.72112 0.0
C1352 C 0.01706 0.3997 0.72782 0.0
C1353 C 0.02465 0.36794 0.75493 0.0
C1354 C -0.00088 0.34528 0.76661 0.0
C1355 C 0.00304 0.34532 0.78631 0.0
C1356 C 0.0336 0.36947 0.79428 0.0
C1357 C 0.05977 0.39318 0.78257 0.0
C1358 C 0.05549 0.39177 0.76263 0.0
H1359 H 0.42748 0.33688 0.23756 0.0
H1360 H 0.42155 0.33742 0.17581 0.0
H1361 H 0.38962 0.36731 0.1779 0.0
H1362 H 0.34476 0.32263 0.24665 0.0
H1363 H 0.35673 0.34962 0.26725 0.0
H1364 H 0.37997 0.32898 0.26099 0.0
H1365 H 0.43495 0.38649 0.25999 0.0
H1366 H 0.41187 0.4073 0.26629 0.0
H1367 H 0.43728 0.41948 0.24503 0.0
H1368 H 0.35731 0.39591 0.18652 0.0
H1369 H 0.32714 0.42208 0.2013 0.0
H1370 H 0.35405 0.40332 0.25741 0.0
C1371 C 0.4196 0.34345 0.2245 0.0
C1372 C 0.42702 0.33486 0.20653 0.0
C1373 C 0.41618 0.34378 0.18975 0.0
C1374 C 0.39802 0.36076 0.19077 0.0
C1375 C 0.39093 0.36871 0.20868 0.0
C1376 C 0.40141 0.36046 0.22525 0.0
C1377 C 0.39007 0.37165 0.24267 0.0
C1378 C 0.36648 0.34141 0.25512 0.0
C1379 C 0.42035 0.39779 0.25417 0.0
C1380 C 0.37146 0.38727 0.23328 0.0
C1381 C 0.3723 0.38533 0.21366 0.0
C1382 C 0.35655 0.39769 0.20188 0.0
C1383 C 0.33946 0.41247 0.21039 0.0
C1384 C 0.3383 0.41475 0.23047 0.0
C1385 C 0.35458 0.402 0.24201 0.0
H1386 H 0.57638 0.93882 0.29794 0.0
H1387 H 0.62242 0.91558 0.25067 0.0
H1388 H 0.66583 0.97526 0.2484 0.0
H1389 H 0.58847 0.01585 0.27947 0.0
H1390 H 0.59735 0.03689 0.3022 0.0
H1391 H 0.57116 0.99197 0.30102 0.0
H1392 H 0.6105 0.98525 0.3248 0.0
H1393 H 0.63701 0.03022 0.32592 0.0
H1394 H 0.65461 0.00423 0.31944 0.0
H1395 H 0.70153 0.03688 0.24959 0.0
H1396 H 0.72669 0.09807 0.25335 0.0
H1397 H 0.65926 0.08274 0.30037 0.0
C1398 C 0.59574 0.94629 0.2872 0.0
C1399 C 0.59606 0.92256 0.27447 0.0
C1400 C 0.62167 0.93331 0.26055 0.0
C1401 C 0.64654 0.96712 0.25922 0.0
C1402 C 0.64558 0.98985 0.27198 0.0
C1403 C 0.62086 0.98004 0.28568 0.0
C1404 C 0.62477 0.01 0.29695 0.0
C1405 C 0.59359 0.0139 0.29477 0.0
C1406 C 0.63217 0.00725 0.31803 0.0
C1407 C 0.65509 0.03827 0.28711 0.0
C1408 C 0.66677 0.02587 0.27287 0.0
C1409 C 0.69297 0.04689 0.26086 0.0
C1410 C 0.70708 0.08156 0.26311 0.0
C1411 C 0.69516 0.0949 0.2773 0.0
C1412 C 0.66936 0.07305 0.28977 0.0
H1413 H 0.94279 0.58201 0.24104 0.0
H1414 H 0.91167 0.55153 0.18263 0.0
H1415 H 0.97073 0.58671 0.17195 0.0
H1416 H 0.00437 0.66713 0.23121 0.0
H1417 H 0.03257 0.66856 0.24949 0.0
H1418 H 0.98804 0.64115 0.25214 0.0
H1419 H 0.99703 0.59009 0.25642 0.0
H1420 H 0.04159 0.61738 0.25398 0.0
H1421 H 0.01991 0.58149 0.23853 0.0
H1422 H 0.03475 0.62666 0.16814 0.0
H1423 H 0.09641 0.66365 0.17202 0.0
H1424 H 0.08248 0.66597 0.23303 0.0
C1425 C 0.94828 0.58259 0.22598 0.0
C1426 C 0.92272 0.56408 0.21265 0.0
C1427 C 0.931 0.5655 0.19309 0.0
C1428 C 0.96441 0.58551 0.1869 0.0
C1429 C 0.98903 0.60379 0.20049 0.0
C1430 C 0.98119 0.60222 0.21964 0.0
C1431 C 0.01181 0.6235 0.23161 0.0
C1432 C 0.00902 0.65176 0.2417 0.0
C1433 C 0.01794 0.60181 0.24597 0.0
C1434 C 0.03833 0.63726 0.21628 0.0
C1435 C 0.025 0.626 0.19836 0.0
C1436 C 0.04537 0.63557 0.18213 0.0
C1437 C 0.08026 0.65666 0.18442 0.0
C1438 C 0.09413 0.6675 0.20281 0.0
C1439 C 0.07268 0.65796 0.21878 0.0
H1440 H 0.03305 0.11943 0.14916 0.0
H1441 H 0.01951 0.13768 0.09007 0.0
H1442 H 0.05908 0.119 0.08006 0.0
H1443 H 0.1227 0.14314 0.14563 0.0
H1444 H 0.11733 0.10998 0.1615 0.0
H1445 H 0.09143 0.12895 0.16418 0.0
H1446 H 0.03812 0.07028 0.16145 0.0
H1447 H 0.06381 0.0512 0.15868 0.0
H1448 H 0.03284 0.04452 0.14089 0.0
H1449 H 0.09625 0.09358 0.07622 0.0
H1450 H 0.12724 0.06248 0.07905 0.0
H1451 H 0.11539 0.05993 0.1405 0.0
C1452 C 0.03912 0.1203 0.13418 0.0
C1453 C 0.02351 0.13027 0.1204 0.0
C1454 C 0.03136 0.13025 0.10087 0.0
C1455 C 0.05386 0.11978 0.09504 0.0
C1456 C 0.06829 0.10934 0.10892 0.0
C1457 C 0.06129 0.10957 0.1281 0.0
C1458 C 0.07788 0.09445 0.13999 0.0
C1459 C 0.10388 0.1207 0.15363 0.0
C1460 C 0.05159 0.06327 0.15089 0.0
C1461 C 0.09464 0.08505 0.12449 0.0
C1462 C 0.0892 0.09419 0.10668 0.0
C1463 C 0.10101 0.08664 0.09012 0.0
C1464 C 0.11855 0.06898 0.09184 0.0
C1465 C 0.12378 0.05889 0.10996 0.0
C1466 C 0.11198 0.06749 0.12644 0.0
H1467 H 0.88994 0.039 0.1643 0.0
H1468 H 0.84903 0.04505 0.10971 0.0
H1469 H 0.81121 0.98342 0.11013 0.0
H1470 H 0.89412 0.96793 0.15461 0.0
H1471 H 0.88309 0.95036 0.17824 0.0
H1472 H 0.90282 0.99501 0.17497 0.0
H1473 H 0.85349 0.99547 0.19263 0.0
H1474 H 0.83352 0.95066 0.19593 0.0
H1475 H 0.81113 0.96868 0.18442 0.0
H1476 H 0.78397 0.92098 0.11447 0.0
H1477 H 0.76997 0.86294 0.12207 0.0
H1478 H 0.82796 0.89794 0.17418 0.0
C1479 C 0.87249 0.02749 0.15262 0.0
C1480 C 0.87228 0.04675 0.13699 0.0
C1481 C 0.84943 0.03073 0.12187 0.0
C1482 C 0.82781 0.9958 0.12203 0.0
C1483 C 0.82917 0.97744 0.13751 0.0
C1484 C 0.85081 0.99281 0.15259 0.0
C1485 C 0.84974 0.96733 0.16667 0.0
C1486 C 0.88449 0.97034 0.16872 0.0
C1487 C 0.83615 0.97074 0.18606 0.0
C1488 C 0.82511 0.93507 0.15679 0.0
C1489 C 0.81315 0.94141 0.14013 0.0
C1490 C 0.79258 0.91569 0.12767 0.0
C1491 C 0.7848 0.88282 0.1321 0.0
C1492 C 0.79757 0.87599 0.14883 0.0
C1493 C 0.81715 0.90234 0.16156 0.0
H1494 H 0.91907 0.85499 0.16033 0.0
H1495 H 0.88575 0.79938 0.10727 0.0
H1496 H 0.94498 0.8221 0.09753 0.0
H1497 H 0.98719 0.92837 0.14134 0.0
H1498 H 0.01409 0.93612 0.16163 0.0
H1499 H 0.96928 0.91391 0.16466 0.0
H1500 H 0.97233 0.86427 0.18015 0.0
H1501 H 0.01721 0.88627 0.17702 0.0
H1502 H 0.99202 0.84464 0.16737 0.0
H1503 H 0.00763 0.85435 0.09271 0.0
H1504 H 0.06873 0.89402 0.09293 0.0
H1505 H 0.06088 0.92652 0.14978 0.0
C1506 C 0.92419 0.84741 0.1467 0.0
C1507 C 0.89787 0.82549 0.13451 0.0
C1508 C 0.90559 0.81617 0.1168 0.0
C1509 C 0.93911 0.82884 0.1112 0.0
C1510 C 0.96448 0.85045 0.12358 0.0
C1511 C 0.95738 0.85957 0.14099 0.0
C1512 C 0.9891 0.88412 0.15139 0.0
C1513 C 0.98996 0.91761 0.15495 0.0
C1514 C 0.99288 0.8689 0.17009 0.0
C1515 C 0.01525 0.88803 0.13694 0.0
C1516 C 0.00056 0.86828 0.12103 0.0
C1517 C 0.01944 0.8695 0.1052 0.0
C1518 C 0.05409 0.89205 0.10546 0.0
C1519 C 0.06949 0.91289 0.12148 0.0
C1520 C 0.04988 0.91024 0.13756 0.0
H1521 H 0.10554 0.12283 0.40624 0.0
H1522 H 0.15097 0.19346 0.35989 0.0
H1523 H 0.18591 0.16832 0.3518 0.0
H1524 H 0.18169 0.11184 0.41774 0.0
H1525 H 0.15431 0.06763 0.42196 0.0
H1526 H 0.14048 0.09709 0.42765 0.0
H1527 H 0.08803 0.06323 0.40649 0.0
H1528 H 0.10188 0.03413 0.40043 0.0
H1529 H 0.0934 0.0559 0.38181 0.0
H1530 H 0.20532 0.12837 0.34404 0.0
H1531 H 0.21029 0.07796 0.33829 0.0
H1532 H 0.15216 0.03219 0.3894 0.0
C1533 C 0.12438 0.13413 0.39518 0.0
C1534 C 0.12652 0.16059 0.38401 0.0
C1535 C 0.14981 0.1737 0.36885 0.0
C1536 C 0.16967 0.15954 0.36415 0.0
C1537 C 0.16578 0.13218 0.37473 0.0
C1538 C 0.14406 0.11984 0.39014 0.0
C1539 C 0.14059 0.08706 0.39716 0.0
C1540 C 0.15515 0.09116 0.41733 0.0
C1541 C 0.10381 0.05842 0.39641 0.0
C1542 C 0.16205 0.08196 0.38263 0.0
C1543 C 0.17688 0.10858 0.37005 0.0
C1544 C 0.19468 0.10782 0.35411 0.0
C1545 C 0.19718 0.07902 0.35088 0.0
C1546 C 0.18187 0.05139 0.36349 0.0
C1547 C 0.1647 0.05325 0.37975 0.0
H1548 H 0.95619 0.07 0.3664 0.0
H1549 H 0.98667 0.08674 0.42574 0.0
H1550 H 0.94679 0.02712 0.43283 0.0
H1551 H 0.86736 0.00918 0.37483 0.0
H1552 H 0.86467 0.98429 0.35433 0.0
H1553 H 0.89365 0.02885 0.35436 0.0
H1554 H 0.94264 0.0179 0.34694 0.0
H1555 H 0.91384 0.97339 0.34689 0.0
H1556 H 0.94986 0.99081 0.36241 0.0
H1557 H 0.90589 0.9642 0.4329 0.0
H1558 H 0.86818 0.90384 0.42562 0.0
H1559 H 0.86501 0.92937 0.36642 0.0
C1560 C 0.95412 0.06125 0.38094 0.0
C1561 C 0.97442 0.08303 0.39552 0.0
C1562 C 0.97126 0.0705 0.41433 0.0
C1563 C 0.94863 0.03668 0.41852 0.0
C1564 C 0.92925 0.01572 0.40375 0.0
C1565 C 0.93171 0.02759 0.38535 0.0
C1566 C 0.90939 -0.00034 0.37185 0.0
C1567 C 0.88215 0.00587 0.36335 0.0
C1568 C 0.93018 0.99518 0.3561 0.0
C1569 C 0.89446 0.97014 0.38542 0.0
C1570 C 0.90593 0.9798 0.4038 0.0
C1571 C 0.89648 0.9564 0.41858 0.0
C1572 C 0.87507 0.92222 0.41435 0.0
C1573 C 0.86358 0.91193 0.3955 0.0
C1574 C 0.87316 0.9364 0.38101 0.0
H1575 H 0.06491 0.89198 0.38071 0.0
H1576 H 0.0737 0.90101 0.31916 0.0
H1577 H 0.01219 0.86858 0.31616 0.0
H1578 H 0.98866 0.8067 0.38229 0.0
H1579 H 0.97112 0.81757 0.4022 0.0
H1580 H 0.016 0.83714 0.39955 0.0
H1581 H 0.02096 0.89584 0.40067 0.0
H1582 H 0.97621 0.87648 0.4033 0.0
H1583 H 0.99709 0.90556 0.38407 0.0
H1584 H 0.95039 0.84104 0.31966 0.0
H1585 H 0.89197 0.82129 0.32973 0.0
H1586 H 0.92251 0.83023 0.38896 0.0
C1587 C 0.0538 0.88631 0.36664 0.0
C1588 C 0.07394 0.89873 0.35017 0.0
C1589 C 0.05863 0.89166 0.33196 0.0
C1590 C 0.02373 0.8731 0.33009 0.0
C1591 C 0.00442 0.8618 0.34657 0.0
C1592 C 0.01881 0.86806 0.36451 0.0
C1593 C 0.99217 0.85595 0.37991 0.0
C1594 C 0.99198 0.82765 0.39168 0.0
C1595 C 0.9969 0.8852 0.39273 0.0
C1596 C 0.96082 0.84284 0.3678 0.0
C1597 C 0.96843 0.84602 0.34861 0.0
C1598 C 0.94397 0.83787 0.33465 0.0
C1599 C 0.91089 0.82672 0.34049 0.0
C1600 C 0.9027 0.82398 0.36008 0.0
C1601 C 0.92792 0.83153 0.37385 0.0
H1602 H 0.89747 0.9484 0.85523 0.0
H1603 H 0.82998 0.9301 0.90275 0.0
H1604 H 0.85824 0.90542 0.92103 0.0
H1605 H 0.90526 0.87257 0.86148 0.0
H1606 H 0.94911 0.89451 0.85519 0.0
H1607 H 0.92125 0.90731 0.84503 0.0
H1608 H 0.9597 0.9678 0.85749 0.0
H1609 H 0.98757 0.9552 0.86773 0.0
H1610 H 0.96976 0.97445 0.88251 0.0
H1611 H 0.89667 0.88783 0.93517 0.0
H1612 H 0.94283 0.87804 0.94435 0.0
H1613 H 0.98563 0.90746 0.8877 0.0
C1614 C 0.88822 0.93856 0.86933 0.0
C1615 C 0.86144 0.94095 0.87757 0.0
C1616 C 0.8504 0.92838 0.89617 0.0
C1617 C 0.86622 0.91425 0.90664 0.0
C1618 C 0.89295 0.91281 0.89825 0.0
C1619 C 0.90382 0.92448 0.88 0.0
C1620 C 0.93457 0.92207 0.87484 0.0
C1621 C 0.92709 0.89765 0.85815 0.0
C1622 C 0.96467 0.95695 0.87039 0.0
C1623 C 0.93976 0.908 0.89322 0.0
C1624 C 0.91527 0.90258 0.90646 0.0
C1625 C 0.91573 0.89152 0.92486 0.0
C1626 C 0.94211 0.88615 0.92995 0.0
C1627 C 0.96766 0.89184 0.91669 0.0
C1628 C 0.96617 0.90246 0.89802 0.0
H1629 H 0.13824 0.99599 0.92571 0.0
H1630 H 0.07555 0.98239 0.97478 0.0
H1631 H 0.09609 0.04364 0.97522 0.0
H1632 H 0.20877 0.08401 0.93747 0.0
H1633 H 0.21324 0.09515 0.91258 0.0
H1634 H 0.2007 0.05273 0.91955 0.0
H1635 H 0.14802 0.03088 0.89812 0.0
H1636 H 0.15993 0.07299 0.89135 0.0
H1637 H 0.11932 0.04636 0.90187 0.0
H1638 H 0.11484 0.10417 0.96588 0.0
H1639 H 0.13019 0.15675 0.94828 0.0
H1640 H 0.17867 0.12856 0.90491 0.0
C1641 C 0.12993 0.00613 0.93706 0.0
C1642 C 0.10558 0.98471 0.95029 0.0
C1643 C 0.09471 0.99859 0.96473 0.0
C1644 C 0.10617 0.03332 0.96501 0.0
C1645 C 0.1288 0.05358 0.95094 0.0
C1646 C 0.14097 0.0404 0.93743 0.0
C1647 C 0.16116 0.06581 0.92223 0.0
C1648 C 0.19817 0.07497 0.92301 0.0
C1649 C 0.14619 0.05325 0.90223 0.0
C1650 C 0.15689 0.09484 0.92856 0.0
C1651 C 0.13892 0.08785 0.94539 0.0
C1652 C 0.12955 0.11012 0.95294 0.0
C1653 C 0.1383 0.13987 0.94287 0.0
C1654 C 0.15558 0.14657 0.92528 0.0
C1655 C 0.16559 0.12411 0.91838 0.0
H1656 H 0.05308 0.19019 0.87461 0.0
H1657 H 0.10159 0.15637 0.83438 0.0
H1658 H 0.04698 0.12093 0.81837 0.0
H1659 H 0.98349 0.11425 0.88181 0.0
H1660 H 0.95448 0.1297 0.88401 0.0
H1661 H 0.99793 0.15662 0.88977 0.0
H1662 H 0.00125 0.20082 0.86555 0.0
H1663 H 0.95763 0.17387 0.85968 0.0
H1664 H 0.98895 0.1887 0.84114 0.0
H1665 H 0.98561 0.08291 0.81008 0.0
H1666 H 0.92405 0.04523 0.811 0.0
H1667 H 0.91683 0.10507 0.85658 0.0
C1668 C 0.05242 0.17602 0.86212 0.0
C1669 C 0.0815 0.17605 0.85567 0.0
C1670 C 0.07957 0.15684 0.83945 0.0
C1671 C 0.0487 0.13675 0.83025 0.0
C1672 C 0.02023 0.1366 0.83732 0.0
C1673 C 0.02199 0.15602 0.85283 0.0
C1674 C 0.9876 0.14893 0.85906 0.0
C1675 C 0.98047 0.13663 0.87988 0.0
C1676 C 0.98363 0.17993 0.85618 0.0
C1677 C 0.96596 0.12129 0.84525 0.0
C1678 C 0.98511 0.11489 0.83255 0.0
C1679 C 0.9704 0.0882 0.81968 0.0
C1680 C 0.9354 0.06696 0.82026 0.0
C1681 C 0.91572 0.0724 0.83378 0.0
C1682 C 0.93119 0.10058 0.8459 0.0
H1683 H 0.87542 0.99205 0.57399 0.0
H1684 H 0.77147 0.92324 0.58774 0.0
H1685 H 0.77657 0.87615 0.5743 0.0
H1686 H 0.88335 0.94612 0.53066 0.0
H1687 H 0.92454 0.95521 0.53813 0.0
H1688 H 0.91028 0.98453 0.54326 0.0
H1689 H 0.92234 0.98236 0.57916 0.0
H1690 H 0.93656 0.95321 0.57414 0.0
H1691 H 0.90329 0.94234 0.59116 0.0
H1692 H 0.79523 0.83563 0.56444 0.0
H1693 H 0.82688 0.8051 0.56314 0.0
H1694 H 0.91982 0.89979 0.55862 0.0
C1695 C 0.8534 0.9673 0.57322 0.0
C1696 C 0.82278 0.9612 0.58124 0.0
C1697 C 0.79487 0.92831 0.58117 0.0
C1698 C 0.79756 0.90152 0.57351 0.0
C1699 C 0.82851 0.90801 0.56627 0.0
C1700 C 0.85604 0.94016 0.56619 0.0
C1701 C 0.88788 0.93968 0.56129 0.0
C1702 C 0.90235 0.95744 0.54219 0.0
C1703 C 0.91402 0.95529 0.5774 0.0
C1704 C 0.8743 0.90223 0.55961 0.0
C1705 C 0.83983 0.8844 0.56177 0.0
C1706 C 0.82212 0.84933 0.56235 0.0
C1707 C 0.84024 0.83215 0.56151 0.0
C1708 C 0.87566 0.85018 0.56062 0.0
C1709 C 0.89266 0.88549 0.55898 0.0
H1710 H 0.12012 0.04892 0.58289 0.0
H1711 H 0.1644 0.03319 0.63361 0.0
H1712 H 0.13128 0.97207 0.62881 0.0
H1713 H 0.04073 0.98678 0.59155 0.0
H1714 H 0.02896 0.97283 0.56732 0.0
H1715 H 0.0612 0.01528 0.57201 0.0
H1716 H 0.10274 0.00726 0.55071 0.0
H1717 H 0.07042 0.96472 0.54577 0.0
H1718 H 0.11015 0.97292 0.55538 0.0
H1719 H 0.08626 0.91425 0.62275 0.0
H1720 H 0.03379 0.86249 0.61438 0.0
H1721 H 0.01909 0.91411 0.56689 0.0
C1722 C 0.12375 0.03255 0.59249 0.0
C1723 C 0.14487 0.04561 0.60853 0.0
C1724 C 0.14834 0.02357 0.6212 0.0
C1725 C 0.12977 0.98883 0.61855 0.0
C1726 C 0.10802 0.97654 0.60308 0.0
C1727 C 0.10518 0.99765 0.59008 0.0
C1728 C 0.07706 0.97785 0.57605 0.0
C1729 C 0.05043 0.98884 0.57679 0.0
C1730 C 0.09093 0.98086 0.55578 0.0
C1731 C 0.06353 0.94267 0.58384 0.0
C1732 C 0.08205 0.94247 0.59929 0.0
C1733 C 0.07211 0.9138 0.61033 0.0
C1734 C 0.04224 0.88462 0.60557 0.0
C1735 C 0.02292 0.88438 0.58986 0.0
C1736 C 0.03406 0.91351 0.57864 0.0
H1737 H 0.08416 0.15082 0.61963 0.0
H1738 H 0.09097 0.10295 0.6713 0.0
H1739 H 0.0304 0.08152 0.67748 0.0
H1740 H 0.02118 0.17285 0.63691 0.0
H1741 H 0.00123 0.16411 0.61388 0.0
H1742 H 0.04566 0.17954 0.61559 0.0
H1743 H 0.03823 0.12827 0.59611 0.0
H1744 H 0.99386 0.1125 0.59452 0.0
H1745 H 0.00919 0.08648 0.60439 0.0
H1746 H 0.96653 0.05913 0.67512 0.0
H1747 H 0.90791 0.04029 0.66505 0.0
H1748 H 0.94581 0.10379 0.61502 0.0
C1749 C 0.07317 0.13658 0.63254 0.0
C1750 C 0.09213 0.1286 0.64503 0.0
C1751 C 0.07685 0.10965 0.66167 0.0
C1752 C 0.04248 0.09732 0.66524 0.0
C1753 C 0.02413 0.10465 0.65214 0.0
C1754 C 0.03928 0.12432 0.63627 0.0
C1755 C 0.01419 0.12665 0.62346 0.0
C1756 C 0.02097 0.16294 0.62241 0.0
C1757 C 0.01386 0.11263 0.60345 0.0
C1758 C 0.98225 0.10433 0.63419 0.0
C1759 C 0.98818 0.09201 0.65081 0.0
C1760 C 0.96175 0.06912 0.66228 0.0
C1761 C 0.92858 0.05851 0.65648 0.0
C1762 C 0.92237 0.0706 0.63928 0.0
C1763 C 0.94968 0.09414 0.62829 0.0
H1764 H 0.70024 0.44057 0.435 0.0
H1765 H 0.71468 0.47717 0.49321 0.0
H1766 H 0.76542 0.47164 0.49563 0.0
H1767 H 0.72104 0.37857 0.44279 0.0
H1768 H 0.74188 0.38369 0.42024 0.0
H1769 H 0.70944 0.39447 0.42242 0.0
H1770 H 0.75047 0.45446 0.4101 0.0
H1771 H 0.78318 0.44387 0.40797 0.0
H1772 H 0.79002 0.47959 0.42203 0.0
H1773 H 0.81011 0.456 0.4929 0.0
H1774 H 0.84475 0.43014 0.48567 0.0
H1775 H 0.80234 0.40501 0.42887 0.0
C1776 C 0.71438 0.44798 0.44817 0.0
C1777 C 0.70362 0.45941 0.46393 0.0
C1778 C 0.72256 0.46847 0.48097 0.0
C1779 C 0.75147 0.46555 0.48242 0.0
C1780 C 0.76116 0.45385 0.46665 0.0
C1781 C 0.74322 0.44529 0.44983 0.0
C1782 C 0.75732 0.43085 0.4355 0.0
C1783 C 0.73085 0.39476 0.42992 0.0
C1784 C 0.77107 0.45356 0.41786 0.0
C1785 C 0.7854 0.43153 0.4471 0.0
C1786 C 0.78741 0.44529 0.46495 0.0
C1787 C 0.80924 0.44584 0.47886 0.0
C1788 C 0.82879 0.43111 0.47462 0.0
C1789 C 0.82654 0.41619 0.45662 0.0
C1790 C 0.80527 0.41723 0.44251 0.0
H1791 H 0.51818 0.20656 0.43368 0.0
H1792 H 0.49023 0.18098 0.49297 0.0
H1793 H 0.50057 0.23851 0.49882 0.0
H1794 H 0.58549 0.28638 0.44199 0.0
H1795 H 0.57903 0.30564 0.42128 0.0
H1796 H 0.56517 0.26148 0.42117 0.0
H1797 H 0.50487 0.24807 0.41279 0.0
H1798 H 0.51857 0.2923 0.41281 0.0
H1799 H 0.48405 0.264 0.42774 0.0
H1800 H 0.51962 0.30002 0.49892 0.0
H1801 H 0.54623 0.36103 0.49352 0.0
H1802 H 0.56188 0.34684 0.43404 0.0
C1803 C 0.51346 0.21279 0.44781 0.0
C1804 C 0.50312 0.18922 0.46287 0.0
C1805 C 0.49789 0.19856 0.48122 0.0
C1806 C 0.50365 0.23115 0.48464 0.0
C1807 C 0.51449 0.25398 0.46955 0.0
C1808 C 0.51921 0.24517 0.45147 0.0
C1809 C 0.53353 0.27506 0.43807 0.0
C1810 C 0.56783 0.28257 0.43018 0.0
C1811 C 0.50877 0.26952 0.4219 0.0
C1812 C 0.537 0.30236 0.45156 0.0
C1813 C 0.52554 0.28955 0.4696 0.0
C1814 C 0.52819 0.31021 0.4848 0.0
C1815 C 0.54341 0.34485 0.48159 0.0
C1816 C 0.55586 0.35861 0.46332 0.0
C1817 C 0.552 0.33695 0.44805 0.0
H1818 H 0.75947 0.25669 0.47026 0.0
H1819 H 0.7784 0.27576 0.40969 0.0
H1820 H 0.72066 0.23073 0.40272 0.0
H1821 H 0.70263 0.16465 0.46698 0.0
H1822 H 0.67594 0.16479 0.48576 0.0
H1823 H 0.72008 0.19533 0.48582 0.0
H1824 H 0.70597 0.24334 0.48736 0.0
H1825 H 0.66189 0.21302 0.48725 0.0
H1826 H 0.6791 0.24561 0.46943 0.0
H1827 H 0.65946 0.18726 0.4025 0.0
H1828 H 0.59906 0.14974 0.40921 0.0
H1829 H 0.62027 0.16024 0.46987 0.0
C1830 C 0.75168 0.25081 0.45553 0.0
C1831 C 0.77336 0.26944 0.44051 0.0
C1832 C 0.76213 0.26163 0.42141 0.0
C1833 C 0.72945 0.23603 0.41731 0.0
C1834 C 0.70839 0.21854 0.43246 0.0
C1835 C 0.71906 0.22555 0.4512 0.0
C1836 C 0.6907 0.2052 0.46492 0.0
C1837 C 0.69776 0.18105 0.47655 0.0
C1838 C 0.68403 0.22817 0.478 0.0
C1839 C 0.66226 0.18633 0.451 0.0
C1840 C 0.673 0.19394 0.43234 0.0
C1841 C 0.65079 0.18077 0.41705 0.0
C1842 C 0.6166 0.15954 0.42097 0.0
C1843 C 0.60511 0.15212 0.44003 0.0
C1844 C 0.62837 0.16534 0.45515 0.0
H1845 H 0.7613 0.4838 0.69423 0.0
H1846 H 0.80533 0.52565 0.74925 0.0
H1847 H 0.83802 0.49613 0.74768 0.0
H1848 H 0.74912 0.40419 0.70254 0.0
H1849 H 0.75822 0.39728 0.67851 0.0
H1850 H 0.74214 0.42521 0.68287 0.0
H1851 H 0.79326 0.47304 0.66529 0.0
H1852 H 0.80956 0.44519 0.66088 0.0
H1853 H 0.83512 0.48463 0.67287 0.0
H1854 H 0.86139 0.45764 0.74137 0.0
H1855 H 0.8719 0.41204 0.73165 0.0
H1856 H 0.81184 0.39523 0.68085 0.0
C1857 C 0.77834 0.48738 0.7058 0.0
C1858 C 0.781 0.50721 0.72182 0.0
C1859 C 0.80311 0.51074 0.7368 0.0
C1860 C 0.82181 0.49415 0.73598 0.0
C1861 C 0.81815 0.47433 0.72007 0.0
C1862 C 0.79695 0.47096 0.70524 0.0
C1863 C 0.79512 0.44598 0.69053 0.0
C1864 C 0.75902 0.41643 0.68851 0.0
C1865 C 0.80911 0.46325 0.67125 0.0
C1866 C 0.81791 0.43502 0.69961 0.0
C1867 C 0.83134 0.452 0.7165 0.0
C1868 C 0.8514 0.44456 0.72804 0.0
C1869 C 0.85722 0.41861 0.7224 0.0
C1870 C 0.84286 0.40027 0.70543 0.0
C1871 C 0.82361 0.40919 0.69371 0.0
H1872 H 0.53899 0.29094 0.70925 0.0
H1873 H 0.52404 0.27534 0.77029 0.0
H1874 H 0.55755 0.33676 0.77536 0.0
H1875 H 0.62268 0.35413 0.71117 0.0
H1876 H 0.62026 0.37802 0.69148 0.0
H1877 H 0.59215 0.33342 0.69256 0.0
H1878 H 0.54113 0.34276 0.69022 0.0
H1879 H 0.56912 0.38748 0.68907 0.0
H1880 H 0.53691 0.37004 0.70709 0.0
H1881 H 0.597 0.39887 0.77386 0.0
H1882 H 0.63912 0.45736 0.76605 0.0
H1883 H 0.62773 0.43241 0.70585 0.0
C1884 C 0.54224 0.30045 0.72368 0.0
C1885 C 0.52885 0.27847 0.7394 0.0
C1886 C 0.53396 0.29182 0.75806 0.0
C1887 C 0.55289 0.32662 0.76106 0.0
C1888 C 0.56623 0.34756 0.74523 0.0
C1889 C 0.56097 0.33498 0.7269 0.0
C1890 C 0.57974 0.36256 0.7124 0.0
C1891 C 0.60521 0.35667 0.70126 0.0
C1892 C 0.55526 0.36591 0.6989 0.0
C1893 C 0.59713 0.39262 0.72547 0.0
C1894 C 0.58879 0.38344 0.74434 0.0
C1895 C 0.60333 0.40643 0.75913 0.0
C1896 C 0.62729 0.43955 0.75455 0.0
C1897 C 0.63646 0.44938 0.73534 0.0
C1898 C 0.62076 0.42569 0.72063 0.0
H1899 H 0.73819 0.27189 0.73548 0.0
H1900 H 0.73986 0.20112 0.69522 0.0
H1901 H 0.67809 0.1665 0.69733 0.0
H1902 H 0.66589 0.2077 0.76482 0.0
H1903 H 0.6502 0.23622 0.76859 0.0
H1904 H 0.69465 0.25228 0.76604 0.0
H1905 H 0.69638 0.29064 0.73846 0.0
H1906 H 0.652 0.27443 0.74073 0.0
H1907 H 0.66938 0.27211 0.71812 0.0
H1908 H 0.61602 0.14616 0.69911 0.0
H1909 H 0.55886 0.13785 0.70363 0.0
H1910 H 0.59817 0.21948 0.74448 0.0
C1911 C 0.72561 0.24852 0.7276 0.0
C1912 C 0.74365 0.23904 0.71525 0.0
C1913 C 0.72644 0.20857 0.70495 0.0
C1914 C 0.69137 0.18883 0.70601 0.0
C1915 C 0.67412 0.19958 0.71777 0.0
C1916 C 0.69077 0.2283 0.72876 0.0
C1917 C 0.66643 0.2356 0.73933 0.0
C1918 C 0.66947 0.23276 0.76098 0.0
C1919 C 0.67135 0.27023 0.73382 0.0
C1920 C 0.63351 0.20743 0.73191 0.0
C1921 C 0.63836 0.18685 0.71949 0.0
C1922 C 0.61181 0.16146 0.70924 0.0
C1923 C 0.57954 0.15703 0.71179 0.0
C1924 C 0.57421 0.17764 0.72464 0.0
C1925 C 0.60147 0.20277 0.73497 0.0
H1926 H 0.64782 0.20448 0.23263 0.0
H1927 H 0.62921 0.19483 0.29356 0.0
H1928 H 0.58342 0.20764 0.28917 0.0
H1929 H 0.63558 0.27311 0.22548 0.0
H1930 H 0.61518 0.25907 0.2027 0.0
H1931 H 0.64478 0.2468 0.21051 0.0
H1932 H 0.59995 0.18405 0.20622 0.0
H1933 H 0.57026 0.19614 0.19822 0.0
H1934 H 0.55994 0.16762 0.218 0.0
H1935 H 0.54294 0.22686 0.2782 0.0
H1936 H 0.5085 0.24635 0.26107 0.0
H1937 H 0.553 0.24096 0.20759 0.0
C1938 C 0.63374 0.20449 0.24501 0.0
C1939 C 0.64196 0.19859 0.26341 0.0
C1940 C 0.62314 0.19907 0.27929 0.0
C1941 C 0.59717 0.20643 0.27696 0.0
C1942 C 0.59015 0.21286 0.25864 0.0
C1943 C 0.60764 0.2115 0.24292 0.0
C1944 C 0.59589 0.22019 0.22482 0.0
C1945 C 0.62457 0.25166 0.21533 0.0
C1946 C 0.58059 0.19021 0.211 0.0
C1947 C 0.56942 0.22711 0.23281 0.0
C1948 C 0.56645 0.22294 0.25234 0.0
C1949 C 0.5447 0.22973 0.26286 0.0
C1950 C 0.52536 0.24087 0.25308 0.0
C1951 C 0.52786 0.24476 0.23304 0.0
C1952 C 0.55013 0.23769 0.2229 0.0
H1953 H 0.72457 0.29068 0.29547 0.0
H1954 H 0.82045 0.29623 0.30289 0.0
H1955 H 0.84842 0.35821 0.3036 0.0
H1956 H 0.74638 0.34682 0.26332 0.0
H1957 H 0.72262 0.36655 0.27044 0.0
H1958 H 0.70883 0.32417 0.27745 0.0
H1959 H 0.70984 0.33971 0.31298 0.0
H1960 H 0.72294 0.38233 0.3061 0.0
H1961 H 0.74736 0.37403 0.32304 0.0
H1962 H 0.86649 0.41583 0.29245 0.0
H1963 H 0.87271 0.46489 0.27452 0.0
H1964 H 0.76523 0.42401 0.27621 0.0
C1965 C 0.75115 0.30511 0.2986 0.0
C1966 C 0.77041 0.28906 0.29963 0.0
C1967 C 0.8053 0.30825 0.30275 0.0
C1968 C 0.82133 0.34347 0.30302 0.0
C1969 C 0.80189 0.35882 0.30056 0.0
C1970 C 0.7673 0.34017 0.29905 0.0
C1971 C 0.75259 0.36203 0.29342 0.0
C1972 C 0.73141 0.34912 0.27507 0.0
C1973 C 0.73197 0.36469 0.30987 0.0
C1974 C 0.7844 0.39518 0.29016 0.0
C1975 C 0.81258 0.39303 0.29472 0.0
C1976 C 0.84471 0.41836 0.28966 0.0
C1977 C 0.84804 0.44605 0.2794 0.0
C1978 C 0.81947 0.44841 0.2745 0.0
C1979 C 0.78747 0.42329 0.28054 0.0
H1980 H 0.71076 0.47661 0.21414 0.0
H1981 H 0.75573 0.4259 0.1846 0.0
H1982 H 0.70066 0.38716 0.16983 0.0
H1983 H 0.63839 0.40624 0.22691 0.0
H1984 H 0.61164 0.42426 0.22422 0.0
H1985 H 0.65535 0.45088 0.22946 0.0
H1986 H 0.66182 0.48668 0.19948 0.0
H1987 H 0.61797 0.45991 0.19409 0.0
H1988 H 0.64933 0.4666 0.17651 0.0
H1989 H 0.63858 0.34942 0.16195 0.0
H1990 H 0.57656 0.31528 0.16333 0.0
H1991 H 0.57385 0.39176 0.19818 0.0
C1992 C 0.7093 0.45786 0.20422 0.0
C1993 C 0.73747 0.45426 0.20045 0.0
C1994 C 0.73443 0.42918 0.18757 0.0
C1995 C 0.70329 0.40719 0.17907 0.0
C1996 C 0.67573 0.41102 0.18347 0.0
C1997 C 0.67865 0.43594 0.1957 0.0
C1998 C 0.64503 0.43293 0.19987 0.0
C1999 C 0.63716 0.42828 0.22138 0.0
C2000 C 0.64345 0.46334 0.19201 0.0
C2001 C 0.62233 0.40148 0.18877 0.0
C2002 C 0.64037 0.38947 0.17903 0.0
C2003 C 0.6243 0.35899 0.1692 0.0
C2004 C 0.58906 0.33984 0.16996 0.0
C2005 C 0.57052 0.3511 0.18074 0.0
C2006 C 0.5874 0.38281 0.18962 0.0
H2007 H 0.57616 0.21368 0.93614 0.0
H2008 H 0.60016 0.19038 0.8804 0.0
H2009 H 0.58523 0.23022 0.86568 0.0
H2010 H 0.50639 0.2261 0.92156 0.0
H2011 H 0.51846 0.2605 0.93792 0.0
H2012 H 0.52716 0.22734 0.94358 0.0
H2013 H 0.5901 0.2713 0.94786 0.0
H2014 H 0.58171 0.30455 0.94207 0.0
H2015 H 0.61251 0.2998 0.92863 0.0
H2016 H 0.57135 0.27535 0.85752 0.0
H2017 H 0.56061 0.32286 0.8564 0.0
H2018 H 0.54791 0.31782 0.91784 0.0
C2019 C 0.57755 0.21633 0.92078 0.0
C2020 C 0.58894 0.19871 0.90934 0.0
C2021 C 0.5912 0.20347 0.88936 0.0
C2022 C 0.58277 0.22599 0.88091 0.0
C2023 C 0.5723 0.24352 0.89269 0.0
C2024 C 0.56965 0.23889 0.91219 0.0
C2025 C 0.56031 0.26255 0.92188 0.0
C2026 C 0.52604 0.24294 0.93182 0.0
C2027 C 0.5878 0.28593 0.93593 0.0
C2028 C 0.55858 0.28167 0.90481 0.0
C2029 C 0.5652 0.27007 0.88808 0.0
C2030 C 0.5659 0.28445 0.87051 0.0
C2031 C 0.55981 0.31145 0.87003 0.0
C2032 C 0.55342 0.32399 0.88704 0.0
C2033 C 0.55264 0.30871 0.90461 0.0
H2034 H 0.81293 0.39587 0.94257 0.0
H2035 H 0.76758 0.42132 0.98915 0.0
H2036 H 0.72988 0.36058 0.99561 0.0
H2037 H 0.73903 0.32913 0.925 0.0
H2038 H 0.75782 0.30436 0.91821 0.0
H2039 H 0.78294 0.34936 0.91893 0.0
H2040 H 0.82438 0.34474 0.94212 0.0
H2041 H 0.79921 0.29961 0.94154 0.0
H2042 H 0.80884 0.3215 0.96402 0.0
H2043 H 0.69419 0.29621 0.99493 0.0
H2044 H 0.66281 0.23584 0.9863 0.0
H2045 H 0.73289 0.25485 0.94018 0.0
C2046 C 0.79543 0.38883 0.95434 0.0
C2047 C 0.79322 0.41328 0.96542 0.0
C2048 C 0.76973 0.40292 0.98054 0.0
C2049 C 0.74835 0.36853 0.98433 0.0
C2050 C 0.75105 0.34504 0.97292 0.0
C2051 C 0.77411 0.35493 0.95824 0.0
C2052 C 0.77078 0.32531 0.94709 0.0
C2053 C 0.76211 0.32716 0.92608 0.0
C2054 C 0.8027 0.32264 0.94881 0.0
C2055 C 0.74171 0.297 0.95747 0.0
C2056 C 0.73078 0.30862 0.97249 0.0
C2057 C 0.70286 0.28688 0.98337 0.0
C2058 C 0.68527 0.25263 0.97842 0.0
C2059 C 0.69558 0.24071 0.96265 0.0
C2060 C 0.72461 0.26315 0.95243 0.0
H2061 H 0.77619 0.53791 0.92194 0.0
H2062 H 0.80528 0.48073 0.88544 0.0
H2063 H 0.75848 0.46937 0.86351 0.0
H2064 H 0.69469 0.4847 0.92148 0.0
H2065 H 0.68101 0.51528 0.92172 0.0
H2066 H 0.72132 0.52608 0.93114 0.0
H2067 H 0.74945 0.57698 0.90814 0.0
H2068 H 0.7089 0.56609 0.89853 0.0
H2069 H 0.74197 0.57054 0.88287 0.0
H2070 H 0.70139 0.45384 0.84999 0.0
H2071 H 0.64062 0.43439 0.84752 0.0
H2072 H 0.65004 0.5025 0.89274 0.0
C2073 C 0.77343 0.52401 0.90896 0.0
C2074 C 0.79423 0.51022 0.90531 0.0
C2075 C 0.78976 0.49183 0.88835 0.0
C2076 C 0.76329 0.48535 0.87581 0.0
C2077 C 0.74214 0.49811 0.8803 0.0
C2078 C 0.7474 0.51754 0.8964 0.0
C2079 C 0.71883 0.52426 0.89982 0.0
C2080 C 0.70304 0.5118 0.91969 0.0
C2081 C 0.7305 0.56169 0.89717 0.0
C2082 C 0.69533 0.50347 0.88402 0.0
C2083 C 0.70945 0.48937 0.87246 0.0
C2084 C 0.6905 0.46559 0.85855 0.0
C2085 C 0.65605 0.45482 0.85711 0.0
C2086 C 0.64108 0.46749 0.86975 0.0
C2087 C 0.6613 0.4932 0.88262 0.0
H2088 H 0.35129 0.79471 0.81054 0.0
H2089 H 0.33068 0.80728 0.75169 0.0
H2090 H 0.37152 0.79081 0.74085 0.0
H2091 H 0.44054 0.82506 0.80478 0.0
H2092 H 0.4403 0.7945 0.82098 0.0
H2093 H 0.41076 0.80905 0.82412 0.0
H2094 H 0.36155 0.74759 0.82288 0.0
H2095 H 0.39095 0.7329 0.81976 0.0
H2096 H 0.35776 0.72165 0.80268 0.0
H2097 H 0.4131 0.77076 0.73637 0.0
H2098 H 0.45162 0.74783 0.73878 0.0
H2099 H 0.44447 0.74819 0.80046 0.0
C2100 C 0.35567 0.79436 0.79538 0.0
C2101 C 0.33796 0.80241 0.78196 0.0
C2102 C 0.34403 0.80124 0.76223 0.0
C2103 C 0.36722 0.79198 0.75593 0.0
C2104 C 0.38409 0.78391 0.76952 0.0
C2105 C 0.37858 0.78496 0.78884 0.0
C2106 C 0.39892 0.77375 0.80046 0.0
C2107 C 0.42413 0.8023 0.81334 0.0
C2108 C 0.37592 0.7421 0.81212 0.0
C2109 C 0.41657 0.76611 0.78469 0.0
C2110 C 0.40783 0.77222 0.76693 0.0
C2111 C 0.42032 0.76607 0.7502 0.0
C2112 C 0.44216 0.75309 0.7517 0.0
C2113 C 0.45113 0.74638 0.76978 0.0
C2114 C 0.43829 0.75327 0.78642 0.0
H2115 H 0.19014 0.71566 0.8218 0.0
H2116 H 0.18257 0.72847 0.76114 0.0
H2117 H 0.14917 0.66668 0.75734 0.0
H2118 H 0.20718 0.65323 0.81843 0.0
H2119 H 0.18419 0.63012 0.83921 0.0
H2120 H 0.19976 0.67446 0.83784 0.0
H2121 H 0.13977 0.66468 0.8433 0.0
H2122 H 0.12393 0.62009 0.84484 0.0
H2123 H 0.10606 0.63631 0.82794 0.0
H2124 H 0.12688 0.60441 0.75942 0.0
H2125 H 0.11785 0.548 0.76697 0.0
H2126 H 0.14047 0.57648 0.82635 0.0
C2127 C 0.18046 0.70552 0.80779 0.0
C2128 C 0.18876 0.72672 0.79175 0.0
C2129 C 0.17612 0.71261 0.77363 0.0
C2130 C 0.15713 0.67756 0.77138 0.0
C2131 C 0.15068 0.65724 0.78744 0.0
C2132 C 0.16165 0.67083 0.80536 0.0
C2133 C 0.15558 0.64412 0.81992 0.0
C2134 C 0.18864 0.65089 0.82938 0.0
C2135 C 0.12979 0.64113 0.83488 0.0
C2136 C 0.14131 0.6135 0.80725 0.0
C2137 C 0.13791 0.62135 0.78864 0.0
C2138 C 0.12864 0.59783 0.77401 0.0
C2139 C 0.12365 0.56586 0.77843 0.0
C2140 C 0.12828 0.55788 0.79728 0.0
C2141 C 0.13614 0.58169 0.8119 0.0
H2142 H 0.4021 0.63114 0.80582 0.0
H2143 H 0.4163 0.59328 0.75206 0.0
H2144 H 0.35585 0.55088 0.75132 0.0
H2145 H 0.33604 0.55067 0.82551 0.0
H2146 H 0.31367 0.56979 0.83578 0.0
H2147 H 0.35861 0.59383 0.83322 0.0
H2148 H 0.35279 0.63897 0.81412 0.0
H2149 H 0.30787 0.61492 0.81641 0.0
H2150 H 0.32678 0.62673 0.79312 0.0
H2151 H 0.29304 0.51508 0.75553 0.0
H2152 H 0.23296 0.4894 0.76417 0.0
H2153 H 0.26025 0.55329 0.81418 0.0
C2154 C 0.39265 0.61326 0.79419 0.0
C2155 C 0.41383 0.61501 0.77915 0.0
C2156 C 0.40043 0.59202 0.76382 0.0
C2157 C 0.36618 0.5679 0.76328 0.0
C2158 C 0.34573 0.56741 0.7781 0.0
C2159 C 0.3585 0.58949 0.79327 0.0
C2160 C 0.3309 0.58578 0.80654 0.0
C2161 C 0.33506 0.57433 0.82644 0.0
C2162 C 0.32952 0.61854 0.8076 0.0
C2163 C 0.30058 0.55841 0.79638 0.0
C2164 C 0.3096 0.54783 0.78012 0.0
C2165 C 0.2857 0.52305 0.76829 0.0
C2166 C 0.25169 0.50868 0.77326 0.0
C2167 C 0.24203 0.51948 0.78977 0.0
C2168 C 0.26688 0.54462 0.80142 0.0
H2169 H 0.41127 0.77968 0.07448 0.0
H2170 H 0.47969 0.85758 0.03618 0.0
H2171 H 0.51165 0.82788 0.03201 0.0
H2172 H 0.47426 0.7562 0.0951 0.0
H2173 H 0.44267 0.71237 0.09526 0.0
H2174 H 0.43093 0.74394 0.09919 0.0
H2175 H 0.38827 0.7189 0.07148 0.0
H2176 H 0.40035 0.68785 0.06712 0.0
H2177 H 0.40273 0.7154 0.04815 0.0
H2178 H 0.52833 0.78462 0.0266 0.0
H2179 H 0.53134 0.73276 0.02235 0.0
H2180 H 0.45183 0.68219 0.06397 0.0
C2181 C 0.43424 0.79138 0.06623 0.0
C2182 C 0.444 0.82146 0.05623 0.0
C2183 C 0.47276 0.83514 0.04446 0.0
C2184 C 0.49087 0.81832 0.04193 0.0
C2185 C 0.47971 0.78774 0.05122 0.0
C2186 C 0.45237 0.7746 0.06341 0.0
C2187 C 0.44271 0.73925 0.06951 0.0
C2188 C 0.44797 0.73787 0.09105 0.0
C2189 C 0.40638 0.71388 0.06371 0.0
C2190 C 0.46779 0.73403 0.05816 0.0
C2191 C 0.48918 0.76242 0.04789 0.0
C2192 C 0.51232 0.76253 0.03496 0.0
C2193 C 0.51369 0.73291 0.03252 0.0
C2194 C 0.49203 0.7036 0.04293 0.0
C2195 C 0.46911 0.70441 0.05606 0.0
H2196 H 0.21091 0.5929 0.02361 0.0
H2197 H 0.18273 0.5708 0.08313 0.0
H2198 H 0.21667 0.63159 0.09065 0.0
H2199 H 0.29539 0.65806 0.03106 0.0
H2200 H 0.29514 0.68257 0.01108 0.0
H2201 H 0.26884 0.6376 0.01082 0.0
H2202 H 0.21671 0.64417 0.00491 0.0
H2203 H 0.24283 0.68918 0.0053 0.0
H2204 H 0.20748 0.6688 0.02124 0.0
H2205 H 0.25466 0.69514 0.09127 0.0
H2206 H 0.29355 0.75545 0.08522 0.0
H2207 H 0.29472 0.73451 0.02501 0.0
C2208 C 0.21187 0.6007 0.03828 0.0
C2209 C 0.19429 0.57718 0.05284 0.0
C2210 C 0.19612 0.58848 0.0718 0.0
C2211 C 0.21523 0.62289 0.07616 0.0
C2212 C 0.23208 0.64542 0.06135 0.0
C2213 C 0.2305 0.63468 0.0428 0.0
C2214 C 0.25073 0.66361 0.02939 0.0
C2215 C 0.27921 0.66025 0.02005 0.0
C2216 C 0.22807 0.66661 0.01433 0.0
C2217 C 0.26421 0.69254 0.04327 0.0
C2218 C 0.25324 0.68164 0.06164 0.0
C2219 C 0.26322 0.70391 0.07693 0.0
C2220 C 0.28527 0.73809 0.07335 0.0
C2221 C 0.29693 0.74961 0.05462 0.0
C2222 C 0.28593 0.72649 0.03942 0.0
H2223 H 0.37966 0.57078 0.01049 0.0
H2224 H 0.39065 0.51247 0.05562 0.0
H2225 H 0.32926 0.47399 0.05558 0.0
H2226 H 0.30796 0.56782 0.02855 0.0
H2227 H 0.28887 0.56517 0.00571 0.0
H2228 H 0.33373 0.58507 0.00762 0.0
H2229 H 0.3341 0.54469 0.98189 0.0
H2230 H 0.28906 0.52442 0.98006 0.0
H2231 H 0.30886 0.49995 0.9853 0.0
H2232 H 0.26681 0.44644 0.0534 0.0
H2233 H 0.20802 0.43339 0.05026 0.0
H2234 H 0.23749 0.50857 0.00594 0.0
C2235 C 0.36923 0.54953 0.02011 0.0
C2236 C 0.38988 0.54445 0.033 0.0
C2237 C 0.37526 0.51672 0.04559 0.0
C2238 C 0.34047 0.49465 0.04558 0.0
C2239 C 0.32075 0.50057 0.03281 0.0
C2240 C 0.33462 0.52735 0.0203 0.0
C2241 C 0.30775 0.53005 0.00927 0.0
C2242 C 0.3097 0.56402 0.01302 0.0
C2243 C 0.31009 0.52443 0.98786 0.0
C2244 C 0.2765 0.50124 0.01795 0.0
C2245 C 0.28456 0.48427 0.03133 0.0
C2246 C 0.26014 0.45899 0.04266 0.0
C2247 C 0.22683 0.45168 0.04075 0.0
C2248 C 0.21826 0.46949 0.02757 0.0
C2249 C 0.24323 0.49375 0.01561 0.0
H2250 H 0.16762 0.55569 0.5707 0.0
H2251 H 0.22925 0.66039 0.586 0.0
H2252 H 0.27909 0.65314 0.58785 0.0
H2253 H 0.21356 0.52408 0.60151 0.0
H2254 H 0.2075 0.49276 0.58405 0.0
H2255 H 0.17661 0.5057 0.5867 0.0
H2256 H 0.1822 0.52 0.5507 0.0
H2257 H 0.21391 0.50826 0.54803 0.0
H2258 H 0.22273 0.54964 0.54107 0.0
H2259 H 0.32327 0.63638 0.58221 0.0
H2260 H 0.35691 0.60878 0.57604 0.0
H2261 H 0.26557 0.51405 0.56681 0.0
C2262 C 0.19134 0.57656 0.57538 0.0
C2263 C 0.1947 0.60831 0.57875 0.0
C2264 C 0.22619 0.63561 0.58405 0.0
C2265 C 0.25463 0.63179 0.58487 0.0
C2266 C 0.2508 0.60037 0.58067 0.0
C2267 C 0.21971 0.57294 0.57666 0.0
C2268 C 0.22245 0.54222 0.57199 0.0
C2269 C 0.20394 0.51456 0.58696 0.0
C2270 C 0.20956 0.52929 0.55175 0.0
C2271 C 0.26002 0.55687 0.57329 0.0
C2272 C 0.27602 0.59051 0.57813 0.0
C2273 C 0.31093 0.60989 0.57882 0.0
C2274 C 0.32983 0.59415 0.57508 0.0
C2275 C 0.31375 0.55938 0.57102 0.0
C2276 C 0.27844 0.54066 0.56999 0.0
H2277 H 0.38879 0.59428 0.62187 0.0
H2278 H 0.47894 0.59369 0.60449 0.0
H2279 H 0.51135 0.65521 0.6077 0.0
H2280 H 0.39963 0.65748 0.59544 0.0
H2281 H 0.38421 0.67708 0.61167 0.0
H2282 H 0.37011 0.63313 0.6139 0.0
H2283 H 0.39023 0.64185 0.64905 0.0
H2284 H 0.40393 0.68596 0.64695 0.0
H2285 H 0.43296 0.67278 0.65466 0.0
H2286 H 0.52943 0.7154 0.60311 0.0
H2287 H 0.53412 0.7705 0.59653 0.0
H2288 H 0.43337 0.73317 0.61817 0.0
C2289 C 0.41573 0.6069 0.61994 0.0
C2290 C 0.43141 0.58924 0.61304 0.0
C2291 C 0.46651 0.60672 0.60997 0.0
C2292 C 0.48512 0.64174 0.61168 0.0
C2293 C 0.46836 0.65881 0.61684 0.0
C2294 C 0.43462 0.64193 0.62154 0.0
C2295 C 0.42157 0.66619 0.62408 0.0
C2296 C 0.39216 0.65795 0.61046 0.0
C2297 C 0.4116 0.66673 0.64493 0.0
C2298 C 0.45251 0.6989 0.61871 0.0
C2299 C 0.47936 0.6942 0.61477 0.0
C2300 C 0.50905 0.71971 0.60686 0.0
C2301 C 0.51139 0.75077 0.60298 0.0
C2302 C 0.4843 0.75607 0.60713 0.0
C2303 C 0.45479 0.72997 0.61537 0.0
H2304 H 0.36508 0.802 0.59896 0.0
H2305 H 0.40878 0.80721 0.54334 0.0
H2306 H 0.35296 0.78312 0.52857 0.0
H2307 H 0.29419 0.72315 0.59178 0.0
H2308 H 0.26572 0.73204 0.6048 0.0
H2309 H 0.30962 0.75391 0.61064 0.0
H2310 H 0.31174 0.81088 0.60543 0.0
H2311 H 0.26779 0.78903 0.5994 0.0
H2312 H 0.29807 0.81908 0.583 0.0
H2313 H 0.29227 0.75285 0.52019 0.0
H2314 H 0.23064 0.71613 0.51931 0.0
H2315 H 0.22615 0.73107 0.58009 0.0
C2316 C 0.36288 0.7987 0.58364 0.0
C2317 C 0.39117 0.80657 0.57228 0.0
C2318 C 0.38735 0.80127 0.55232 0.0
C2319 C 0.35579 0.78783 0.54376 0.0
C2320 C 0.32824 0.77983 0.55533 0.0
C2321 C 0.3314 0.78496 0.57484 0.0
C2322 C 0.29739 0.77105 0.58422 0.0
C2323 C 0.29139 0.7434 0.5987 0.0
C2324 C 0.29353 0.7992 0.59356 0.0
C2325 C 0.27475 0.75671 0.567 0.0
C2326 C 0.29301 0.76236 0.55044 0.0
C2327 C 0.2776 0.74879 0.533 0.0
C2328 C 0.24261 0.72804 0.53261 0.0
C2329 C 0.22361 0.72112 0.54955 0.0
C2330 C 0.2399 0.73652 0.5668 0.0
H2331 H 0.23373 0.52499 0.25969 0.0
H2332 H 0.24748 0.49918 0.20217 0.0
H2333 H 0.22971 0.53807 0.18932 0.0
H2334 H 0.16108 0.53607 0.24996 0.0
H2335 H 0.17574 0.57114 0.2661 0.0
H2336 H 0.18557 0.53837 0.27054 0.0
H2337 H 0.24889 0.58272 0.27156 0.0
H2338 H 0.23932 0.61556 0.267 0.0
H2339 H 0.26779 0.61047 0.25153 0.0
H2340 H 0.21528 0.58334 0.18299 0.0
H2341 H 0.20544 0.63148 0.18353 0.0
H2342 H 0.20213 0.62799 0.24535 0.0
C2343 C 0.23229 0.52692 0.24437 0.0
C2344 C 0.2417 0.50891 0.23189 0.0
C2345 C 0.24013 0.5126 0.21196 0.0
C2346 C 0.23005 0.53458 0.20455 0.0
C2347 C 0.22163 0.55253 0.2173 0.0
C2348 C 0.22254 0.54881 0.23679 0.0
C2349 C 0.21475 0.57273 0.24749 0.0
C2350 C 0.18235 0.55342 0.25921 0.0
C2351 C 0.24446 0.59679 0.26013 0.0
C2352 C 0.20998 0.59106 0.23097 0.0
C2353 C 0.21372 0.57883 0.21368 0.0
C2354 C 0.21193 0.59285 0.19644 0.0
C2355 C 0.20641 0.62022 0.1969 0.0
C2356 C 0.20293 0.63337 0.21449 0.0
C2357 C 0.20441 0.6183 0.23169 0.0
H2358 H 0.47623 0.70692 0.25846 0.0
H2359 H 0.45041 0.72415 0.31522 0.0
H2360 H 0.41282 0.66303 0.31932 0.0
H2361 H 0.39468 0.64381 0.24589 0.0
H2362 H 0.40824 0.61948 0.23224 0.0
H2363 H 0.43533 0.6641 0.23461 0.0
H2364 H 0.48234 0.65437 0.24802 0.0
H2365 H 0.45526 0.60963 0.24579 0.0
H2366 H 0.47388 0.62761 0.26849 0.0
H2367 H 0.37584 0.60013 0.31652 0.0
H2368 H 0.33972 0.54123 0.30619 0.0
H2369 H 0.38918 0.56579 0.25108 0.0
C2370 C 0.46302 0.6978 0.27185 0.0
C2371 C 0.46636 0.72019 0.28658 0.0
C2372 C 0.44822 0.70736 0.30376 0.0
C2373 C 0.42696 0.6727 0.30626 0.0
C2374 C 0.42408 0.65126 0.2914 0.0
C2375 C 0.4415 0.66336 0.2745 0.0
C2376 C 0.43223 0.63536 0.26024 0.0
C2377 C 0.41669 0.64103 0.24219 0.0
C2378 C 0.46275 0.63152 0.25535 0.0
C2379 C 0.40649 0.60569 0.27164 0.0
C2380 C 0.40243 0.61525 0.28968 0.0
C2381 C 0.379 0.59231 0.30248 0.0
C2382 C 0.35868 0.55891 0.29653 0.0
C2383 C 0.36176 0.54895 0.27789 0.0
C2384 C 0.38644 0.57259 0.26549 0.0
H2385 H 0.42942 0.83106 0.26868 0.0
H2386 H 0.47385 0.81331 0.21866 0.0
H2387 H 0.42456 0.80347 0.19955 0.0
H2388 H 0.35028 0.76684 0.26114 0.0
H2389 H 0.32898 0.78815 0.26988 0.0
H2390 H 0.37024 0.80014 0.27841 0.0
H2391 H 0.39126 0.86161 0.26793 0.0
H2392 H 0.34987 0.8497 0.25931 0.0
H2393 H 0.38553 0.87031 0.2436 0.0
H2394 H 0.36647 0.78744 0.18716 0.0
H2395 H 0.30514 0.76462 0.18349 0.0
H2396 H 0.29997 0.79294 0.24176 0.0
C2397 C 0.42927 0.82608 0.25358 0.0
C2398 C 0.45551 0.82314 0.24513 0.0
C2399 C 0.45407 0.81591 0.22541 0.0
C2400 C 0.42624 0.81041 0.21442 0.0
C2401 C 0.40025 0.81256 0.22334 0.0
C2402 C 0.40174 0.82045 0.2425 0.0
C2403 C 0.36921 0.81742 0.24936 0.0
C2404 C 0.35378 0.7916 0.26564 0.0
C2405 C 0.37428 0.85182 0.2554 0.0
C2406 C 0.34859 0.80508 0.23135 0.0
C2407 C 0.36697 0.8031 0.21632 0.0
C2408 C 0.35204 0.78954 0.19873 0.0
C2409 C 0.31728 0.77675 0.19671 0.0
C2410 C 0.29806 0.77721 0.21233 0.0
C2411 C 0.31421 0.79256 0.22955 0.0
loop_
_geom_bond_atom_site_label_1
_geom_bond_atom_site_label_2
_geom_bond_distance
_geom_bond_site_symmetry_2
_ccdc_geom_bond_type
In0 O1 2.294 . S
In0 O2 2.326 . S
In0 O6 2.266 . S
In0 O7 2.326 . S
In0 O8 2.266 . S
In0 O9 2.326 . S
In0 O11 2.294 . S
In0 O12 2.326 . S
O1 In0 2.294 . S
O1 C10 1.240 . S
O2 In0 2.326 . S
O2 C10 1.252 . S
C3 O6 1.252 . S
C3 O7 1.260 . S
C4 O11 1.240 . S
C4 O12 1.252 . S
C5 O8 1.252 1_565 S
C5 O9 1.260 1_565 S
O6 In0 2.266 . S
O6 C3 1.252 . S
O7 In0 2.326 . S
O7 C3 1.260 . S
O8 In0 2.266 . S
O8 C5 1.252 1_545 S
O9 In0 2.326 . S
O9 C5 1.260 1_545 S
C10 O1 1.240 . S
C10 O2 1.252 . S
O11 In0 2.294 . S
O11 C4 1.240 . S
O12 In0 2.326 . S
O12 C4 1.252 . S
In13 O14 2.294 . S
In13 O15 2.326 . S
In13 O19 2.266 . S
In13 O20 2.326 . S
In13 O21 2.266 . S
In13 O22 2.326 . S
In13 O24 2.294 . S
In13 O25 2.326 . S
O14 In13 2.294 . S
O14 C23 1.240 . S
O15 In13 2.326 . S
O15 C23 1.252 . S
C16 O19 1.252 . S
C16 O20 1.260 . S
C17 O24 1.240 . S
C17 O25 1.252 . S
C18 O21 1.252 1_455 S
C18 O22 1.260 1_455 S
O19 In13 2.266 . S
O19 C16 1.252 . S
O20 In13 2.326 . S
O20 C16 1.260 . S
O21 In13 2.266 . S
O21 C18 1.252 1_655 S
O22 In13 2.326 . S
O22 C18 1.260 1_655 S
C23 O14 1.240 . S
C23 O15 1.252 . S
O24 In13 2.294 . S
O24 C17 1.240 . S
O25 In13 2.326 . S
O25 C17 1.252 . S
In26 O27 2.294 . S
In26 O28 2.326 . S
In26 O32 2.266 . S
In26 O33 2.326 . S
In26 O34 2.266 . S
In26 O35 2.326 . S
In26 O37 2.294 . S
In26 O38 2.326 . S
O27 In26 2.294 . S
O27 C36 1.240 . S
O28 In26 2.326 . S
O28 C36 1.252 . S
C29 O32 1.252 . S
C29 O33 1.260 . S
C30 O37 1.240 . S
C30 O38 1.252 . S
C31 O34 1.252 . S
C31 O35 1.260 . S
O32 In26 2.266 . S
O32 C29 1.252 . S
O33 In26 2.326 . S
O33 C29 1.260 . S
O34 In26 2.266 . S
O34 C31 1.252 . S
O35 In26 2.326 . S
O35 C31 1.260 . S
C36 O27 1.240 . S
C36 O28 1.252 . S
O37 In26 2.294 . S
O37 C30 1.240 . S
O38 In26 2.326 . S
O38 C30 1.252 . S
In39 O40 2.294 . S
In39 O41 2.326 . S
In39 O45 2.266 . S
In39 O46 2.326 . S
In39 O47 2.266 . S
In39 O48 2.326 . S
In39 O50 2.294 . S
In39 O51 2.326 . S
O40 In39 2.294 . S
O40 C49 1.240 . S
O41 In39 2.326 . S
O41 C49 1.252 . S
C42 O45 1.252 . S
C42 O46 1.260 . S
C43 O50 1.240 . S
C43 O51 1.252 . S
C44 O47 1.252 1_655 S
C44 O48 1.260 1_655 S
O45 In39 2.266 . S
O45 C42 1.252 . S
O46 In39 2.326 . S
O46 C42 1.260 . S
O47 In39 2.266 . S
O47 C44 1.252 1_455 S
O48 In39 2.326 . S
O48 C44 1.260 1_455 S
C49 O40 1.240 . S
C49 O41 1.252 . S
O50 In39 2.294 . S
O50 C43 1.240 . S
O51 In39 2.326 . S
O51 C43 1.252 . S
In52 O53 2.294 . S
In52 O54 2.326 . S
In52 O58 2.266 . S
In52 O59 2.326 . S
In52 O60 2.266 . S
In52 O61 2.326 . S
In52 O63 2.294 . S
In52 O64 2.326 . S
O53 In52 2.294 . S
O53 C62 1.240 . S
O54 In52 2.326 . S
O54 C62 1.252 . S
C55 O58 1.252 . S
C55 O59 1.260 . S
C56 O63 1.240 . S
C56 O64 1.252 . S
C57 O60 1.252 . S
C57 O61 1.260 . S
O58 In52 2.266 . S
O58 C55 1.252 . S
O59 In52 2.326 . S
O59 C55 1.260 . S
O60 In52 2.266 . S
O60 C57 1.252 . S
O61 In52 2.326 . S
O61 C57 1.260 . S
C62 O53 1.240 . S
C62 O54 1.252 . S
O63 In52 2.294 . S
O63 C56 1.240 . S
O64 In52 2.326 . S
O64 C56 1.252 . S
In65 O66 2.294 . S
In65 O67 2.326 . S
In65 O71 2.266 . S
In65 O72 2.326 . S
In65 O73 2.266 . S
In65 O74 2.326 . S
In65 O76 2.294 . S
In65 O77 2.326 . S
O66 In65 2.294 . S
O66 C75 1.240 . S
O67 In65 2.326 . S
O67 C75 1.252 . S
C68 O71 1.252 1_545 S
C68 O72 1.260 1_545 S
C69 O76 1.240 . S
C69 O77 1.252 . S
C70 O73 1.252 . S
C70 O74 1.260 . S
O71 In65 2.266 . S
O71 C68 1.252 1_565 S
O72 In65 2.326 . S
O72 C68 1.260 1_565 S
O73 In65 2.266 . S
O73 C70 1.252 . S
O74 In65 2.326 . S
O74 C70 1.260 . S
C75 O66 1.240 . S
C75 O67 1.252 . S
O76 In65 2.294 . S
O76 C69 1.240 . S
O77 In65 2.326 . S
O77 C69 1.252 . S
In78 O79 2.294 . S
In78 O80 2.326 . S
In78 O84 2.266 . S
In78 O85 2.326 . S
In78 O86 2.266 . S
In78 O87 2.326 . S
In78 O89 2.294 . S
In78 O90 2.326 . S
O79 In78 2.294 . S
O79 C88 1.240 . S
O80 In78 2.326 . S
O80 C88 1.252 . S
C81 O84 1.252 . S
C81 O85 1.260 . S
C82 O89 1.240 . S
C82 O90 1.252 . S
C83 O86 1.252 1_545 S
C83 O87 1.260 1_545 S
O84 In78 2.266 . S
O84 C81 1.252 . S
O85 In78 2.326 . S
O85 C81 1.260 . S
O86 In78 2.266 . S
O86 C83 1.252 1_565 S
O87 In78 2.326 . S
O87 C83 1.260 1_565 S
C88 O79 1.240 . S
C88 O80 1.252 . S
O89 In78 2.294 . S
O89 C82 1.240 . S
O90 In78 2.326 . S
O90 C82 1.252 . S
In91 O92 2.294 . S
In91 O93 2.326 . S
In91 O97 2.266 . S
In91 O98 2.326 . S
In91 O99 2.266 . S
In91 O100 2.326 . S
In91 O102 2.294 . S
In91 O103 2.326 . S
O92 In91 2.294 . S
O92 C101 1.240 . S
O93 In91 2.326 . S
O93 C101 1.252 . S
C94 O97 1.252 . S
C94 O98 1.260 . S
C95 O102 1.240 . S
C95 O103 1.252 . S
C96 O99 1.252 1_655 S
C96 O100 1.260 1_655 S
O97 In91 2.266 . S
O97 C94 1.252 . S
O98 In91 2.326 . S
O98 C94 1.260 . S
O99 In91 2.266 . S
O99 C96 1.252 1_455 S
O100 In91 2.326 . S
O100 C96 1.260 1_455 S
C101 O92 1.240 . S
C101 O93 1.252 . S
O102 In91 2.294 . S
O102 C95 1.240 . S
O103 In91 2.326 . S
O103 C95 1.252 . S
In104 O105 2.294 . S
In104 O106 2.326 . S
In104 O110 2.266 . S
In104 O111 2.326 . S
In104 O112 2.266 . S
In104 O113 2.326 . S
In104 O115 2.294 . S
In104 O116 2.326 . S
O105 In104 2.294 . S
O105 C114 1.240 . S
O106 In104 2.326 . S
O106 C114 1.252 . S
C107 O110 1.252 . S
C107 O111 1.260 . S
C108 O115 1.240 . S
C108 O116 1.252 . S
C109 O112 1.252 . S
C109 O113 1.260 . S
O110 In104 2.266 . S
O110 C107 1.252 . S
O111 In104 2.326 . S
O111 C107 1.260 . S
O112 In104 2.266 . S
O112 C109 1.252 . S
O113 In104 2.326 . S
O113 C109 1.260 . S
C114 O105 1.240 . S
C114 O106 1.252 . S
O115 In104 2.294 . S
O115 C108 1.240 . S
O116 In104 2.326 . S
O116 C108 1.252 . S
In117 O118 2.294 . S
In117 O119 2.326 . S
In117 O123 2.266 . S
In117 O124 2.326 . S
In117 O125 2.266 . S
In117 O126 2.326 . S
In117 O128 2.294 . S
In117 O129 2.326 . S
O118 In117 2.294 . S
O118 C127 1.240 . S
O119 In117 2.326 . S
O119 C127 1.252 . S
C120 O123 1.252 . S
C120 O124 1.260 . S
C121 O128 1.240 . S
C121 O129 1.252 . S
C122 O125 1.252 1_455 S
C122 O126 1.260 1_455 S
O123 In117 2.266 . S
O123 C120 1.252 . S
O124 In117 2.326 . S
O124 C120 1.260 . S
O125 In117 2.266 . S
O125 C122 1.252 1_655 S
O126 In117 2.326 . S
O126 C122 1.260 1_655 S
C127 O118 1.240 . S
C127 O119 1.252 . S
O128 In117 2.294 . S
O128 C121 1.240 . S
O129 In117 2.326 . S
O129 C121 1.252 . S
In130 O131 2.294 . S
In130 O132 2.326 . S
In130 O136 2.266 . S
In130 O137 2.326 . S
In130 O138 2.266 . S
In130 O139 2.326 . S
In130 O141 2.294 . S
In130 O142 2.326 . S
O131 In130 2.294 . S
O131 C140 1.240 . S
O132 In130 2.326 . S
O132 C140 1.252 . S
C133 O136 1.252 . S
C133 O137 1.260 . S
C134 O141 1.240 . S
C134 O142 1.252 . S
C135 O138 1.252 . S
C135 O139 1.260 . S
O136 In130 2.266 . S
O136 C133 1.252 . S
O137 In130 2.326 . S
O137 C133 1.260 . S
O138 In130 2.266 . S
O138 C135 1.252 . S
O139 In130 2.326 . S
O139 C135 1.260 . S
C140 O131 1.240 . S
C140 O132 1.252 . S
O141 In130 2.294 . S
O141 C134 1.240 . S
O142 In130 2.326 . S
O142 C134 1.252 . S
In143 O144 2.294 . S
In143 O145 2.326 . S
In143 O149 2.266 . S
In143 O150 2.326 . S
In143 O151 2.266 . S
In143 O152 2.326 . S
In143 O154 2.294 . S
In143 O155 2.326 . S
O144 In143 2.294 . S
O144 C153 1.240 . S
O145 In143 2.326 . S
O145 C153 1.252 . S
C146 O149 1.252 1_565 S
C146 O150 1.260 1_565 S
C147 O154 1.240 . S
C147 O155 1.252 . S
C148 O151 1.252 . S
C148 O152 1.260 . S
O149 In143 2.266 . S
O149 C146 1.252 1_545 S
O150 In143 2.326 . S
O150 C146 1.260 1_545 S
O151 In143 2.266 . S
O151 C148 1.252 . S
O152 In143 2.326 . S
O152 C148 1.260 . S
C153 O144 1.240 . S
C153 O145 1.252 . S
O154 In143 2.294 . S
O154 C147 1.240 . S
O155 In143 2.326 . S
O155 C147 1.252 . S
In156 O157 2.294 . S
In156 O158 2.326 . S
In156 O162 2.266 . S
In156 O163 2.326 . S
In156 O164 2.266 . S
In156 O165 2.326 . S
In156 O167 2.294 . S
In156 O168 2.326 . S
O157 In156 2.294 . S
O157 C166 1.240 . S
O158 In156 2.326 . S
O158 C166 1.252 . S
C159 O162 1.252 . S
C159 O163 1.260 . S
C160 O167 1.240 . S
C160 O168 1.252 . S
C161 O164 1.252 . S
C161 O165 1.260 . S
O162 In156 2.266 . S
O162 C159 1.252 . S
O163 In156 2.326 . S
O163 C159 1.260 . S
O164 In156 2.266 . S
O164 C161 1.252 . S
O165 In156 2.326 . S
O165 C161 1.260 . S
C166 O157 1.240 . S
C166 O158 1.252 . S
O167 In156 2.294 . S
O167 C160 1.240 . S
O168 In156 2.326 . S
O168 C160 1.252 . S
In169 O170 2.294 . S
In169 O171 2.326 . S
In169 O175 2.266 . S
In169 O176 2.326 . S
In169 O177 2.266 . S
In169 O178 2.326 . S
In169 O180 2.294 . S
In169 O181 2.326 . S
O170 In169 2.294 . S
O170 C179 1.240 . S
O171 In169 2.326 . S
O171 C179 1.252 . S
C172 O175 1.252 . S
C172 O176 1.260 . S
C173 O180 1.240 . S
C173 O181 1.252 . S
C174 O177 1.252 . S
C174 O178 1.260 . S
O175 In169 2.266 . S
O175 C172 1.252 . S
O176 In169 2.326 . S
O176 C172 1.260 . S
O177 In169 2.266 . S
O177 C174 1.252 . S
O178 In169 2.326 . S
O178 C174 1.260 . S
C179 O170 1.240 . S
C179 O171 1.252 . S
O180 In169 2.294 . S
O180 C173 1.240 . S
O181 In169 2.326 . S
O181 C173 1.252 . S
In182 O183 2.294 . S
In182 O184 2.326 . S
In182 O188 2.266 . S
In182 O189 2.326 . S
In182 O190 2.266 . S
In182 O191 2.326 . S
In182 O193 2.294 . S
In182 O194 2.326 . S
O183 In182 2.294 . S
O183 C192 1.240 . S
O184 In182 2.326 . S
O184 C192 1.252 . S
C185 O188 1.252 . S
C185 O189 1.260 . S
C186 O193 1.240 . S
C186 O194 1.252 . S
C187 O190 1.252 . S
C187 O191 1.260 . S
O188 In182 2.266 . S
O188 C185 1.252 . S
O189 In182 2.326 . S
O189 C185 1.260 . S
O190 In182 2.266 . S
O190 C187 1.252 . S
O191 In182 2.326 . S
O191 C187 1.260 . S
C192 O183 1.240 . S
C192 O184 1.252 . S
O193 In182 2.294 . S
O193 C186 1.240 . S
O194 In182 2.326 . S
O194 C186 1.252 . S
In195 O196 2.294 . S
In195 O197 2.326 . S
In195 O201 2.266 . S
In195 O202 2.326 . S
In195 O203 2.266 . S
In195 O204 2.326 . S
In195 O206 2.294 . S
In195 O207 2.326 . S
O196 In195 2.294 . S
O196 C205 1.240 . S
O197 In195 2.326 . S
O197 C205 1.252 . S
C198 O201 1.252 . S
C198 O202 1.260 . S
C199 O206 1.240 . S
C199 O207 1.252 . S
C200 O203 1.252 . S
C200 O204 1.260 . S
O201 In195 2.266 . S
O201 C198 1.252 . S
O202 In195 2.326 . S
O202 C198 1.260 . S
O203 In195 2.266 . S
O203 C200 1.252 . S
O204 In195 2.326 . S
O204 C200 1.260 . S
C205 O196 1.240 . S
C205 O197 1.252 . S
O206 In195 2.294 . S
O206 C199 1.240 . S
O207 In195 2.326 . S
O207 C199 1.252 . S
In208 O209 2.294 . S
In208 O210 2.326 . S
In208 O214 2.266 . S
In208 O215 2.326 . S
In208 O216 2.266 . S
In208 O217 2.326 . S
In208 O219 2.294 . S
In208 O220 2.326 . S
O209 In208 2.294 . S
O209 C218 1.240 . S
O210 In208 2.326 . S
O210 C218 1.252 . S
C211 O214 1.252 . S
C211 O215 1.260 . S
C212 O219 1.240 . S
C212 O220 1.252 . S
C213 O216 1.252 . S
C213 O217 1.260 . S
O214 In208 2.266 . S
O214 C211 1.252 . S
O215 In208 2.326 . S
O215 C211 1.260 . S
O216 In208 2.266 . S
O216 C213 1.252 . S
O217 In208 2.326 . S
O217 C213 1.260 . S
C218 O209 1.240 . S
C218 O210 1.252 . S
O219 In208 2.294 . S
O219 C212 1.240 . S
O220 In208 2.326 . S
O220 C212 1.252 . S
In221 O222 2.294 . S
In221 O223 2.326 . S
In221 O227 2.266 . S
In221 O228 2.326 . S
In221 O229 2.266 . S
In221 O230 2.326 . S
In221 O232 2.294 . S
In221 O233 2.326 . S
O222 In221 2.294 . S
O222 C231 1.240 . S
O223 In221 2.326 . S
O223 C231 1.252 . S
C224 O227 1.252 . S
C224 O228 1.260 . S
C225 O232 1.240 . S
C225 O233 1.252 . S
C226 O229 1.252 . S
C226 O230 1.260 . S
O227 In221 2.266 . S
O227 C224 1.252 . S
O228 In221 2.326 . S
O228 C224 1.260 . S
O229 In221 2.266 . S
O229 C226 1.252 . S
O230 In221 2.326 . S
O230 C226 1.260 . S
C231 O222 1.240 . S
C231 O223 1.252 . S
O232 In221 2.294 . S
O232 C225 1.240 . S
O233 In221 2.326 . S
O233 C225 1.252 . S
In234 O235 2.294 . S
In234 O236 2.326 . S
In234 O240 2.266 . S
In234 O241 2.326 . S
In234 O242 2.266 . S
In234 O243 2.326 . S
In234 O245 2.294 . S
In234 O246 2.326 . S
O235 In234 2.294 . S
O235 C244 1.240 . S
O236 In234 2.326 . S
O236 C244 1.252 . S
C237 O240 1.252 . S
C237 O241 1.260 . S
C238 O245 1.240 . S
C238 O246 1.252 . S
C239 O242 1.252 . S
C239 O243 1.260 . S
O240 In234 2.266 . S
O240 C237 1.252 . S
O241 In234 2.326 . S
O241 C237 1.260 . S
O242 In234 2.266 . S
O242 C239 1.252 . S
O243 In234 2.326 . S
O243 C239 1.260 . S
C244 O235 1.240 . S
C244 O236 1.252 . S
O245 In234 2.294 . S
O245 C238 1.240 . S
O246 In234 2.326 . S
O246 C238 1.252 . S
In247 O248 2.294 . S
In247 O249 2.326 . S
In247 O253 2.266 . S
In247 O254 2.326 . S
In247 O255 2.266 . S
In247 O256 2.326 . S
In247 O258 2.294 . S
In247 O259 2.326 . S
O248 In247 2.294 . S
O248 C257 1.240 . S
O249 In247 2.326 . S
O249 C257 1.252 . S
C250 O253 1.252 . S
C250 O254 1.260 . S
C251 O258 1.240 . S
C251 O259 1.252 . S
C252 O255 1.252 . S
C252 O256 1.260 . S
O253 In247 2.266 . S
O253 C250 1.252 . S
O254 In247 2.326 . S
O254 C250 1.260 . S
O255 In247 2.266 . S
O255 C252 1.252 . S
O256 In247 2.326 . S
O256 C252 1.260 . S
C257 O248 1.240 . S
C257 O249 1.252 . S
O258 In247 2.294 . S
O258 C251 1.240 . S
O259 In247 2.326 . S
O259 C251 1.252 . S
In260 O261 2.294 . S
In260 O262 2.326 . S
In260 O266 2.266 . S
In260 O267 2.326 . S
In260 O268 2.266 . S
In260 O269 2.326 . S
In260 O271 2.294 . S
In260 O272 2.326 . S
O261 In260 2.294 . S
O261 C270 1.240 . S
O262 In260 2.326 . S
O262 C270 1.252 . S
C263 O266 1.252 . S
C263 O267 1.260 . S
C264 O271 1.240 . S
C264 O272 1.252 . S
C265 O268 1.252 . S
C265 O269 1.260 . S
O266 In260 2.266 . S
O266 C263 1.252 . S
O267 In260 2.326 . S
O267 C263 1.260 . S
O268 In260 2.266 . S
O268 C265 1.252 . S
O269 In260 2.326 . S
O269 C265 1.260 . S
C270 O261 1.240 . S
C270 O262 1.252 . S
O271 In260 2.294 . S
O271 C264 1.240 . S
O272 In260 2.326 . S
O272 C264 1.252 . S
In273 O274 2.294 . S
In273 O275 2.326 . S
In273 O279 2.266 . S
In273 O280 2.326 . S
In273 O281 2.266 . S
In273 O282 2.326 . S
In273 O284 2.294 . S
In273 O285 2.326 . S
O274 In273 2.294 . S
O274 C283 1.240 . S
O275 In273 2.326 . S
O275 C283 1.252 . S
C276 O279 1.252 . S
C276 O280 1.260 . S
C277 O284 1.240 . S
C277 O285 1.252 . S
C278 O281 1.252 . S
C278 O282 1.260 . S
O279 In273 2.266 . S
O279 C276 1.252 . S
O280 In273 2.326 . S
O280 C276 1.260 . S
O281 In273 2.266 . S
O281 C278 1.252 . S
O282 In273 2.326 . S
O282 C278 1.260 . S
C283 O274 1.240 . S
C283 O275 1.252 . S
O284 In273 2.294 . S
O284 C277 1.240 . S
O285 In273 2.326 . S
O285 C277 1.252 . S
In286 O287 2.294 . S
In286 O288 2.326 . S
In286 O292 2.266 . S
In286 O293 2.326 . S
In286 O294 2.266 . S
In286 O295 2.326 . S
In286 O297 2.294 . S
In286 O298 2.326 . S
O287 In286 2.294 . S
O287 C296 1.240 . S
O288 In286 2.326 . S
O288 C296 1.252 . S
C289 O292 1.252 . S
C289 O293 1.260 . S
C290 O297 1.240 . S
C290 O298 1.252 . S
C291 O294 1.252 . S
C291 O295 1.260 . S
O292 In286 2.266 . S
O292 C289 1.252 . S
O293 In286 2.326 . S
O293 C289 1.260 . S
O294 In286 2.266 . S
O294 C291 1.252 . S
O295 In286 2.326 . S
O295 C291 1.260 . S
C296 O287 1.240 . S
C296 O288 1.252 . S
O297 In286 2.294 . S
O297 C290 1.240 . S
O298 In286 2.326 . S
O298 C290 1.252 . S
In299 O300 2.294 . S
In299 O301 2.326 . S
In299 O305 2.266 . S
In299 O306 2.326 . S
In299 O307 2.266 . S
In299 O308 2.326 . S
In299 O310 2.294 . S
In299 O311 2.326 . S
O300 In299 2.294 . S
O300 C309 1.240 . S
O301 In299 2.326 . S
O301 C309 1.252 . S
C302 O305 1.252 . S
C302 O306 1.260 . S
C303 O310 1.240 . S
C303 O311 1.252 . S
C304 O307 1.252 . S
C304 O308 1.260 . S
O305 In299 2.266 . S
O305 C302 1.252 . S
O306 In299 2.326 . S
O306 C302 1.260 . S
O307 In299 2.266 . S
O307 C304 1.252 . S
O308 In299 2.326 . S
O308 C304 1.260 . S
C309 O300 1.240 . S
C309 O301 1.252 . S
O310 In299 2.294 . S
O310 C303 1.240 . S
O311 In299 2.326 . S
O311 C303 1.252 . S
In312 O313 2.294 . S
In312 O314 2.326 . S
In312 O318 2.266 . S
In312 O319 2.326 . S
In312 O320 2.266 . S
In312 O321 2.326 . S
In312 O323 2.294 . S
In312 O324 2.326 . S
O313 In312 2.294 . S
O313 C322 1.240 . S
O314 In312 2.326 . S
O314 C322 1.252 . S
C315 O318 1.252 . S
C315 O319 1.260 . S
C316 O323 1.240 . S
C316 O324 1.252 . S
C317 O320 1.252 . S
C317 O321 1.260 . S
O318 In312 2.266 . S
O318 C315 1.252 . S
O319 In312 2.326 . S
O319 C315 1.260 . S
O320 In312 2.266 . S
O320 C317 1.252 . S
O321 In312 2.326 . S
O321 C317 1.260 . S
C322 O313 1.240 . S
C322 O314 1.252 . S
O323 In312 2.294 . S
O323 C316 1.240 . S
O324 In312 2.326 . S
O324 C316 1.252 . S
In325 O326 2.294 . S
In325 O327 2.326 . S
In325 O331 2.266 . S
In325 O332 2.326 . S
In325 O333 2.266 . S
In325 O334 2.326 . S
In325 O336 2.294 . S
In325 O337 2.326 . S
O326 In325 2.294 . S
O326 C335 1.240 . S
O327 In325 2.326 . S
O327 C335 1.252 . S
C328 O331 1.252 . S
C328 O332 1.260 . S
C329 O336 1.240 . S
C329 O337 1.252 . S
C330 O333 1.252 . S
C330 O334 1.260 . S
O331 In325 2.266 . S
O331 C328 1.252 . S
O332 In325 2.326 . S
O332 C328 1.260 . S
O333 In325 2.266 . S
O333 C330 1.252 . S
O334 In325 2.326 . S
O334 C330 1.260 . S
C335 O326 1.240 . S
C335 O327 1.252 . S
O336 In325 2.294 . S
O336 C329 1.240 . S
O337 In325 2.326 . S
O337 C329 1.252 . S
In338 O339 2.294 . S
In338 O340 2.326 . S
In338 O344 2.266 . S
In338 O345 2.326 . S
In338 O346 2.266 . S
In338 O347 2.326 . S
In338 O349 2.294 . S
In338 O350 2.326 . S
O339 In338 2.294 . S
O339 C348 1.240 . S
O340 In338 2.326 . S
O340 C348 1.252 . S
C341 O344 1.252 . S
C341 O345 1.260 . S
C342 O349 1.240 . S
C342 O350 1.252 . S
C343 O346 1.252 . S
C343 O347 1.260 . S
O344 In338 2.266 . S
O344 C341 1.252 . S
O345 In338 2.326 . S
O345 C341 1.260 . S
O346 In338 2.266 . S
O346 C343 1.252 . S
O347 In338 2.326 . S
O347 C343 1.260 . S
C348 O339 1.240 . S
C348 O340 1.252 . S
O349 In338 2.294 . S
O349 C342 1.240 . S
O350 In338 2.326 . S
O350 C342 1.252 . S
In351 O352 2.294 . S
In351 O353 2.326 . S
In351 O357 2.266 . S
In351 O358 2.326 . S
In351 O359 2.266 . S
In351 O360 2.326 . S
In351 O362 2.294 . S
In351 O363 2.326 . S
O352 In351 2.294 . S
O352 C361 1.240 . S
O353 In351 2.326 . S
O353 C361 1.252 . S
C354 O357 1.252 . S
C354 O358 1.260 . S
C355 O362 1.240 . S
C355 O363 1.252 . S
C356 O359 1.252 . S
C356 O360 1.260 . S
O357 In351 2.266 . S
O357 C354 1.252 . S
O358 In351 2.326 . S
O358 C354 1.260 . S
O359 In351 2.266 . S
O359 C356 1.252 . S
O360 In351 2.326 . S
O360 C356 1.260 . S
C361 O352 1.240 . S
C361 O353 1.252 . S
O362 In351 2.294 . S
O362 C355 1.240 . S
O363 In351 2.326 . S
O363 C355 1.252 . S
In364 O365 2.294 . S
In364 O366 2.326 . S
In364 O370 2.266 . S
In364 O371 2.326 . S
In364 O372 2.266 . S
In364 O373 2.326 . S
In364 O375 2.294 . S
In364 O376 2.326 . S
O365 In364 2.294 . S
O365 C374 1.240 . S
O366 In364 2.326 . S
O366 C374 1.252 . S
C367 O370 1.252 . S
C367 O371 1.260 . S
C368 O375 1.240 . S
C368 O376 1.252 . S
C369 O372 1.252 . S
C369 O373 1.260 . S
O370 In364 2.266 . S
O370 C367 1.252 . S
O371 In364 2.326 . S
O371 C367 1.260 . S
O372 In364 2.266 . S
O372 C369 1.252 . S
O373 In364 2.326 . S
O373 C369 1.260 . S
C374 O365 1.240 . S
C374 O366 1.252 . S
O375 In364 2.294 . S
O375 C368 1.240 . S
O376 In364 2.326 . S
O376 C368 1.252 . S
In377 O378 2.294 . S
In377 O379 2.326 . S
In377 O383 2.266 . S
In377 O384 2.326 . S
In377 O385 2.266 . S
In377 O386 2.326 . S
In377 O388 2.294 . S
In377 O389 2.326 . S
O378 In377 2.294 . S
O378 C387 1.240 . S
O379 In377 2.326 . S
O379 C387 1.252 . S
C380 O383 1.252 . S
C380 O384 1.260 . S
C381 O388 1.240 . S
C381 O389 1.252 . S
C382 O385 1.252 . S
C382 O386 1.260 . S
O383 In377 2.266 . S
O383 C380 1.252 . S
O384 In377 2.326 . S
O384 C380 1.260 . S
O385 In377 2.266 . S
O385 C382 1.252 . S
O386 In377 2.326 . S
O386 C382 1.260 . S
C387 O378 1.240 . S
C387 O379 1.252 . S
O388 In377 2.294 . S
O388 C381 1.240 . S
O389 In377 2.326 . S
O389 C381 1.252 . S
In390 O391 2.294 . S
In390 O392 2.326 . S
In390 O396 2.266 . S
In390 O397 2.326 . S
In390 O398 2.266 . S
In390 O399 2.326 . S
In390 O401 2.294 . S
In390 O402 2.326 . S
O391 In390 2.294 . S
O391 C400 1.240 . S
O392 In390 2.326 . S
O392 C400 1.252 . S
C393 O396 1.252 . S
C393 O397 1.260 . S
C394 O401 1.240 . S
C394 O402 1.252 . S
C395 O398 1.252 . S
C395 O399 1.260 . S
O396 In390 2.266 . S
O396 C393 1.252 . S
O397 In390 2.326 . S
O397 C393 1.260 . S
O398 In390 2.266 . S
O398 C395 1.252 . S
O399 In390 2.326 . S
O399 C395 1.260 . S
C400 O391 1.240 . S
C400 O392 1.252 . S
O401 In390 2.294 . S
O401 C394 1.240 . S
O402 In390 2.326 . S
O402 C394 1.252 . S
In403 O404 2.294 . S
In403 O405 2.326 . S
In403 O409 2.266 . S
In403 O410 2.326 . S
In403 O411 2.266 . S
In403 O412 2.326 . S
In403 O414 2.294 . S
In403 O415 2.326 . S
O404 In403 2.294 . S
O404 C413 1.240 . S
O405 In403 2.326 . S
O405 C413 1.252 . S
C406 O409 1.252 . S
C406 O410 1.260 . S
C407 O414 1.240 . S
C407 O415 1.252 . S
C408 O411 1.252 . S
C408 O412 1.260 . S
O409 In403 2.266 . S
O409 C406 1.252 . S
O410 In403 2.326 . S
O410 C406 1.260 . S
O411 In403 2.266 . S
O411 C408 1.252 . S
O412 In403 2.326 . S
O412 C408 1.260 . S
C413 O404 1.240 . S
C413 O405 1.252 . S
O414 In403 2.294 . S
O414 C407 1.240 . S
O415 In403 2.326 . S
O415 C407 1.252 . S
In416 O417 2.294 . S
In416 O418 2.326 . S
In416 O422 2.266 . S
In416 O423 2.326 . S
In416 O424 2.266 . S
In416 O425 2.326 . S
In416 O427 2.294 . S
In416 O428 2.326 . S
O417 In416 2.294 . S
O417 C426 1.240 . S
O418 In416 2.326 . S
O418 C426 1.252 . S
C419 O422 1.252 . S
C419 O423 1.260 . S
C420 O427 1.240 . S
C420 O428 1.252 . S
C421 O424 1.252 . S
C421 O425 1.260 . S
O422 In416 2.266 . S
O422 C419 1.252 . S
O423 In416 2.326 . S
O423 C419 1.260 . S
O424 In416 2.266 . S
O424 C421 1.252 . S
O425 In416 2.326 . S
O425 C421 1.260 . S
C426 O417 1.240 . S
C426 O418 1.252 . S
O427 In416 2.294 . S
O427 C420 1.240 . S
O428 In416 2.326 . S
O428 C420 1.252 . S
In429 O430 2.294 . S
In429 O431 2.326 . S
In429 O435 2.266 . S
In429 O436 2.326 . S
In429 O437 2.266 . S
In429 O438 2.326 . S
In429 O440 2.294 . S
In429 O441 2.326 . S
O430 In429 2.294 . S
O430 C439 1.240 . S
O431 In429 2.326 . S
O431 C439 1.252 . S
C432 O435 1.252 . S
C432 O436 1.260 . S
C433 O440 1.240 . S
C433 O441 1.252 . S
C434 O437 1.252 . S
C434 O438 1.260 . S
O435 In429 2.266 . S
O435 C432 1.252 . S
O436 In429 2.326 . S
O436 C432 1.260 . S
O437 In429 2.266 . S
O437 C434 1.252 . S
O438 In429 2.326 . S
O438 C434 1.260 . S
C439 O430 1.240 . S
C439 O431 1.252 . S
O440 In429 2.294 . S
O440 C433 1.240 . S
O441 In429 2.326 . S
O441 C433 1.252 . S
In442 O443 2.294 . S
In442 O444 2.326 . S
In442 O448 2.266 . S
In442 O449 2.326 . S
In442 O450 2.266 . S
In442 O451 2.326 . S
In442 O453 2.294 . S
In442 O454 2.326 . S
O443 In442 2.294 . S
O443 C452 1.240 . S
O444 In442 2.326 . S
O444 C452 1.252 . S
C445 O448 1.252 . S
C445 O449 1.260 . S
C446 O453 1.240 . S
C446 O454 1.252 . S
C447 O450 1.252 . S
C447 O451 1.260 . S
O448 In442 2.266 . S
O448 C445 1.252 . S
O449 In442 2.326 . S
O449 C445 1.260 . S
O450 In442 2.266 . S
O450 C447 1.252 . S
O451 In442 2.326 . S
O451 C447 1.260 . S
C452 O443 1.240 . S
C452 O444 1.252 . S
O453 In442 2.294 . S
O453 C446 1.240 . S
O454 In442 2.326 . S
O454 C446 1.252 . S
In455 O456 2.294 . S
In455 O457 2.326 . S
In455 O461 2.266 . S
In455 O462 2.326 . S
In455 O463 2.266 . S
In455 O464 2.326 . S
In455 O466 2.294 . S
In455 O467 2.326 . S
O456 In455 2.294 . S
O456 C465 1.240 . S
O457 In455 2.326 . S
O457 C465 1.252 . S
C458 O461 1.252 . S
C458 O462 1.260 . S
C459 O466 1.240 . S
C459 O467 1.252 . S
C460 O463 1.252 . S
C460 O464 1.260 . S
O461 In455 2.266 . S
O461 C458 1.252 . S
O462 In455 2.326 . S
O462 C458 1.260 . S
O463 In455 2.266 . S
O463 C460 1.252 . S
O464 In455 2.326 . S
O464 C460 1.260 . S
C465 O456 1.240 . S
C465 O457 1.252 . S
O466 In455 2.294 . S
O466 C459 1.240 . S
O467 In455 2.326 . S
O467 C459 1.252 . S
H468 C480 0.930 . S
H469 C482 0.930 . S
H470 C483 0.930 . S
H471 C487 0.959 . S
H472 C487 0.959 . S
H473 C487 0.961 . S
H474 C488 0.960 . S
H475 C488 0.961 . S
H476 C488 0.959 . S
H477 C491 0.929 . S
H478 C492 0.931 . S
H479 C494 0.930 . S
C480 H468 0.930 . S
C480 C481 1.399 . S
C480 C485 1.399 . S
C481 C480 1.399 . S
C481 C482 1.376 . S
C482 H469 0.930 . S
C482 C481 1.376 . S
C482 C483 1.388 . S
C483 H470 0.930 . S
C483 C482 1.388 . S
C483 C484 1.390 . S
C484 C483 1.390 . S
C484 C485 1.394 . S
C484 C490 1.465 . S
C485 C480 1.399 . S
C485 C484 1.394 . S
C485 C486 1.516 . S
C486 C485 1.516 . S
C486 C487 1.502 . S
C486 C488 1.561 . S
C486 C489 1.526 . S
C487 H471 0.959 . S
C487 H472 0.959 . S
C487 H473 0.961 . S
C487 C486 1.502 . S
C488 H474 0.960 . S
C488 H475 0.961 . S
C488 H476 0.959 . S
C488 C486 1.561 . S
C489 C486 1.526 . S
C489 C490 1.396 . S
C489 C494 1.390 . S
C490 C484 1.465 . S
C490 C489 1.396 . S
C490 C491 1.399 . S
C491 H477 0.929 . S
C491 C490 1.399 . S
C491 C492 1.385 . S
C492 H478 0.931 . S
C492 C491 1.385 . S
C492 C493 1.389 . S
C493 C492 1.389 . S
C493 C494 1.387 . S
C494 H479 0.930 . S
C494 C489 1.390 . S
C494 C493 1.387 . S
H495 C507 0.930 . S
H496 C509 0.930 . S
H497 C510 0.930 . S
H498 C514 0.959 . S
H499 C514 0.959 . S
H500 C514 0.961 . S
H501 C515 0.960 . S
H502 C515 0.961 . S
H503 C515 0.959 . S
H504 C518 0.929 . S
H505 C519 0.931 . S
H506 C521 0.930 . S
C507 H495 0.930 . S
C507 C508 1.399 . S
C507 C512 1.399 . S
C508 C507 1.399 . S
C508 C509 1.376 . S
C509 H496 0.930 . S
C509 C508 1.376 . S
C509 C510 1.388 . S
C510 H497 0.930 . S
C510 C509 1.388 . S
C510 C511 1.390 . S
C511 C510 1.390 . S
C511 C512 1.394 . S
C511 C517 1.465 . S
C512 C507 1.399 . S
C512 C511 1.394 . S
C512 C513 1.516 . S
C513 C512 1.516 . S
C513 C514 1.502 . S
C513 C515 1.561 . S
C513 C516 1.526 . S
C514 H498 0.959 . S
C514 H499 0.959 . S
C514 H500 0.961 . S
C514 C513 1.502 . S
C515 H501 0.960 . S
C515 H502 0.961 . S
C515 H503 0.959 . S
C515 C513 1.561 . S
C516 C513 1.526 . S
C516 C517 1.396 . S
C516 C521 1.390 . S
C517 C511 1.465 . S
C517 C516 1.396 . S
C517 C518 1.399 . S
C518 H504 0.929 . S
C518 C517 1.399 . S
C518 C519 1.385 . S
C519 H505 0.931 . S
C519 C518 1.385 . S
C519 C520 1.389 . S
C520 C519 1.389 . S
C520 C521 1.387 . S
C521 H506 0.930 . S
C521 C516 1.390 . S
C521 C520 1.387 . S
H522 C534 0.930 . S
H523 C536 0.930 . S
H524 C537 0.930 . S
H525 C541 0.959 . S
H526 C541 0.959 . S
H527 C541 0.961 . S
H528 C542 0.960 . S
H529 C542 0.961 . S
H530 C542 0.959 . S
H531 C545 0.929 . S
H532 C546 0.931 . S
H533 C548 0.930 . S
C534 H522 0.930 . S
C534 C535 1.399 . S
C534 C539 1.399 . S
C535 C534 1.399 . S
C535 C536 1.376 . S
C536 H523 0.930 . S
C536 C535 1.376 . S
C536 C537 1.388 . S
C537 H524 0.930 . S
C537 C536 1.388 . S
C537 C538 1.390 . S
C538 C537 1.390 . S
C538 C539 1.394 . S
C538 C544 1.465 . S
C539 C534 1.399 . S
C539 C538 1.394 . S
C539 C540 1.516 . S
C540 C539 1.516 . S
C540 C541 1.502 . S
C540 C542 1.561 . S
C540 C543 1.526 . S
C541 H525 0.959 . S
C541 H526 0.959 . S
C541 H527 0.961 . S
C541 C540 1.502 . S
C542 H528 0.960 . S
C542 H529 0.961 . S
C542 H530 0.959 . S
C542 C540 1.561 . S
C543 C540 1.526 . S
C543 C544 1.396 . S
C543 C548 1.390 . S
C544 C538 1.465 . S
C544 C543 1.396 . S
C544 C545 1.399 . S
C545 H531 0.929 . S
C545 C544 1.399 . S
C545 C546 1.385 . S
C546 H532 0.931 . S
C546 C545 1.385 . S
C546 C547 1.389 . S
C547 C546 1.389 . S
C547 C548 1.387 . S
C548 H533 0.930 . S
C548 C543 1.390 . S
C548 C547 1.387 . S
H549 C561 0.930 . S
H550 C563 0.930 . S
H551 C564 0.930 . S
H552 C568 0.959 . S
H553 C568 0.959 . S
H554 C568 0.961 . S
H555 C569 0.960 . S
H556 C569 0.961 . S
H557 C569 0.959 . S
H558 C572 0.929 . S
H559 C573 0.931 . S
H560 C575 0.930 . S
C561 H549 0.930 . S
C561 C562 1.399 . S
C561 C566 1.399 . S
C562 C561 1.399 . S
C562 C563 1.376 . S
C563 H550 0.930 . S
C563 C562 1.376 . S
C563 C564 1.388 . S
C564 H551 0.930 . S
C564 C563 1.388 . S
C564 C565 1.390 . S
C565 C564 1.390 . S
C565 C566 1.394 . S
C565 C571 1.465 . S
C566 C561 1.399 . S
C566 C565 1.394 . S
C566 C567 1.516 . S
C567 C566 1.516 . S
C567 C568 1.502 . S
C567 C569 1.561 . S
C567 C570 1.526 . S
C568 H552 0.959 . S
C568 H553 0.959 . S
C568 H554 0.961 . S
C568 C567 1.502 . S
C569 H555 0.960 . S
C569 H556 0.961 . S
C569 H557 0.959 . S
C569 C567 1.561 . S
C570 C567 1.526 . S
C570 C571 1.396 . S
C570 C575 1.390 . S
C571 C565 1.465 . S
C571 C570 1.396 . S
C571 C572 1.399 . S
C572 H558 0.929 . S
C572 C571 1.399 . S
C572 C573 1.385 . S
C573 H559 0.931 . S
C573 C572 1.385 . S
C573 C574 1.389 . S
C574 C573 1.389 . S
C574 C575 1.387 . S
C575 H560 0.930 . S
C575 C570 1.390 . S
C575 C574 1.387 . S
H576 C588 0.930 . S
H577 C590 0.930 . S
H578 C591 0.930 . S
H579 C595 0.959 . S
H580 C595 0.959 . S
H581 C595 0.961 . S
H582 C596 0.960 . S
H583 C596 0.961 . S
H584 C596 0.959 . S
H585 C599 0.929 . S
H586 C600 0.931 . S
H587 C602 0.930 . S
C588 H576 0.930 . S
C588 C589 1.399 . S
C588 C593 1.399 . S
C589 C588 1.399 . S
C589 C590 1.376 . S
C590 H577 0.930 . S
C590 C589 1.376 . S
C590 C591 1.388 . S
C591 H578 0.930 . S
C591 C590 1.388 . S
C591 C592 1.390 . S
C592 C591 1.390 . S
C592 C593 1.394 . S
C592 C598 1.465 . S
C593 C588 1.399 . S
C593 C592 1.394 . S
C593 C594 1.516 . S
C594 C593 1.516 . S
C594 C595 1.502 . S
C594 C596 1.561 . S
C594 C597 1.526 . S
C595 H579 0.959 . S
C595 H580 0.959 . S
C595 H581 0.961 . S
C595 C594 1.502 . S
C596 H582 0.960 . S
C596 H583 0.961 . S
C596 H584 0.959 . S
C596 C594 1.561 . S
C597 C594 1.526 . S
C597 C598 1.396 . S
C597 C602 1.390 . S
C598 C592 1.465 . S
C598 C597 1.396 . S
C598 C599 1.399 . S
C599 H585 0.929 . S
C599 C598 1.399 . S
C599 C600 1.385 . S
C600 H586 0.931 . S
C600 C599 1.385 . S
C600 C601 1.389 . S
C601 C600 1.389 . S
C601 C602 1.387 . S
C602 H587 0.930 . S
C602 C597 1.390 . S
C602 C601 1.387 . S
H603 C615 0.930 . S
H604 C617 0.930 . S
H605 C618 0.930 . S
H606 C622 0.959 . S
H607 C622 0.959 . S
H608 C622 0.961 . S
H609 C623 0.960 . S
H610 C623 0.961 . S
H611 C623 0.959 . S
H612 C626 0.929 . S
H613 C627 0.931 . S
H614 C629 0.930 . S
C615 H603 0.930 . S
C615 C616 1.399 . S
C615 C620 1.399 . S
C616 C615 1.399 . S
C616 C617 1.376 . S
C617 H604 0.930 . S
C617 C616 1.376 . S
C617 C618 1.388 . S
C618 H605 0.930 . S
C618 C617 1.388 . S
C618 C619 1.390 . S
C619 C618 1.390 . S
C619 C620 1.394 . S
C619 C625 1.465 . S
C620 C615 1.399 . S
C620 C619 1.394 . S
C620 C621 1.516 . S
C621 C620 1.516 . S
C621 C622 1.502 . S
C621 C623 1.561 . S
C621 C624 1.526 . S
C622 H606 0.959 . S
C622 H607 0.959 . S
C622 H608 0.961 . S
C622 C621 1.502 . S
C623 H609 0.960 . S
C623 H610 0.961 . S
C623 H611 0.959 . S
C623 C621 1.561 . S
C624 C621 1.526 . S
C624 C625 1.396 . S
C624 C629 1.390 . S
C625 C619 1.465 . S
C625 C624 1.396 . S
C625 C626 1.399 . S
C626 H612 0.929 . S
C626 C625 1.399 . S
C626 C627 1.385 . S
C627 H613 0.931 . S
C627 C626 1.385 . S
C627 C628 1.389 . S
C628 C627 1.389 . S
C628 C629 1.387 . S
C629 H614 0.930 . S
C629 C624 1.390 . S
C629 C628 1.387 . S
H630 C642 0.930 . S
H631 C644 0.930 . S
H632 C645 0.930 . S
H633 C649 0.959 . S
H634 C649 0.959 . S
H635 C649 0.961 . S
H636 C650 0.960 . S
H637 C650 0.961 . S
H638 C650 0.959 . S
H639 C653 0.929 . S
H640 C654 0.931 . S
H641 C656 0.930 . S
C642 H630 0.930 . S
C642 C643 1.399 . S
C642 C647 1.399 . S
C643 C642 1.399 . S
C643 C644 1.376 . S
C644 H631 0.930 . S
C644 C643 1.376 . S
C644 C645 1.388 . S
C645 H632 0.930 . S
C645 C644 1.388 . S
C645 C646 1.390 . S
C646 C645 1.390 . S
C646 C647 1.394 . S
C646 C652 1.465 . S
C647 C642 1.399 . S
C647 C646 1.394 . S
C647 C648 1.516 . S
C648 C647 1.516 . S
C648 C649 1.502 . S
C648 C650 1.561 . S
C648 C651 1.526 . S
C649 H633 0.959 . S
C649 H634 0.959 . S
C649 H635 0.961 . S
C649 C648 1.502 . S
C650 H636 0.960 . S
C650 H637 0.961 . S
C650 H638 0.959 . S
C650 C648 1.561 . S
C651 C648 1.526 . S
C651 C652 1.396 . S
C651 C656 1.390 . S
C652 C646 1.465 . S
C652 C651 1.396 . S
C652 C653 1.399 . S
C653 H639 0.929 . S
C653 C652 1.399 . S
C653 C654 1.385 . S
C654 H640 0.931 . S
C654 C653 1.385 . S
C654 C655 1.389 . S
C655 C654 1.389 . S
C655 C656 1.387 . S
C656 H641 0.930 . S
C656 C651 1.390 . S
C656 C655 1.387 . S
H657 C669 0.930 . S
H658 C671 0.930 . S
H659 C672 0.930 . S
H660 C676 0.959 . S
H661 C676 0.959 . S
H662 C676 0.961 . S
H663 C677 0.960 . S
H664 C677 0.961 . S
H665 C677 0.959 . S
H666 C680 0.929 . S
H667 C681 0.931 . S
H668 C683 0.930 . S
C669 H657 0.930 . S
C669 C670 1.399 . S
C669 C674 1.399 . S
C670 C669 1.399 . S
C670 C671 1.376 . S
C671 H658 0.930 . S
C671 C670 1.376 . S
C671 C672 1.388 . S
C672 H659 0.930 . S
C672 C671 1.388 . S
C672 C673 1.390 . S
C673 C672 1.390 . S
C673 C674 1.394 . S
C673 C679 1.465 . S
C674 C669 1.399 . S
C674 C673 1.394 . S
C674 C675 1.516 . S
C675 C674 1.516 . S
C675 C676 1.502 . S
C675 C677 1.561 . S
C675 C678 1.526 . S
C676 H660 0.959 . S
C676 H661 0.959 . S
C676 H662 0.961 . S
C676 C675 1.502 . S
C677 H663 0.960 . S
C677 H664 0.961 . S
C677 H665 0.959 . S
C677 C675 1.561 . S
C678 C675 1.526 . S
C678 C679 1.396 . S
C678 C683 1.390 . S
C679 C673 1.465 . S
C679 C678 1.396 . S
C679 C680 1.399 . S
C680 H666 0.929 . S
C680 C679 1.399 . S
C680 C681 1.385 . S
C681 H667 0.931 . S
C681 C680 1.385 . S
C681 C682 1.389 . S
C682 C681 1.389 . S
C682 C683 1.387 . S
C683 H668 0.930 . S
C683 C678 1.390 . S
C683 C682 1.387 . S
H684 C696 0.930 . S
H685 C698 0.930 . S
H686 C699 0.930 . S
H687 C703 0.959 . S
H688 C703 0.959 . S
H689 C703 0.961 . S
H690 C704 0.960 . S
H691 C704 0.961 . S
H692 C704 0.959 . S
H693 C707 0.929 . S
H694 C708 0.931 . S
H695 C710 0.930 . S
C696 H684 0.930 . S
C696 C697 1.399 . S
C696 C701 1.399 . S
C697 C696 1.399 . S
C697 C698 1.376 . S
C698 H685 0.930 . S
C698 C697 1.376 . S
C698 C699 1.388 . S
C699 H686 0.930 . S
C699 C698 1.388 . S
C699 C700 1.390 . S
C700 C699 1.390 . S
C700 C701 1.394 . S
C700 C706 1.465 . S
C701 C696 1.399 . S
C701 C700 1.394 . S
C701 C702 1.516 . S
C702 C701 1.516 . S
C702 C703 1.502 . S
C702 C704 1.561 . S
C702 C705 1.526 . S
C703 H687 0.959 . S
C703 H688 0.959 . S
C703 H689 0.961 . S
C703 C702 1.502 . S
C704 H690 0.960 . S
C704 H691 0.961 . S
C704 H692 0.959 . S
C704 C702 1.561 . S
C705 C702 1.526 . S
C705 C706 1.396 . S
C705 C710 1.390 . S
C706 C700 1.465 . S
C706 C705 1.396 . S
C706 C707 1.399 . S
C707 H693 0.929 . S
C707 C706 1.399 . S
C707 C708 1.385 . S
C708 H694 0.931 . S
C708 C707 1.385 . S
C708 C709 1.389 . S
C709 C708 1.389 . S
C709 C710 1.387 . S
C710 H695 0.930 . S
C710 C705 1.390 . S
C710 C709 1.387 . S
H711 C723 0.930 . S
H712 C725 0.930 . S
H713 C726 0.930 . S
H714 C730 0.959 . S
H715 C730 0.959 . S
H716 C730 0.961 . S
H717 C731 0.960 . S
H718 C731 0.961 . S
H719 C731 0.959 . S
H720 C734 0.929 . S
H721 C735 0.931 . S
H722 C737 0.930 . S
C723 H711 0.930 . S
C723 C724 1.399 . S
C723 C728 1.399 . S
C724 C723 1.399 . S
C724 C725 1.376 . S
C725 H712 0.930 . S
C725 C724 1.376 . S
C725 C726 1.388 . S
C726 H713 0.930 . S
C726 C725 1.388 . S
C726 C727 1.390 . S
C727 C726 1.390 . S
C727 C728 1.394 . S
C727 C733 1.465 . S
C728 C723 1.399 . S
C728 C727 1.394 . S
C728 C729 1.516 . S
C729 C728 1.516 . S
C729 C730 1.502 . S
C729 C731 1.561 . S
C729 C732 1.526 . S
C730 H714 0.959 . S
C730 H715 0.959 . S
C730 H716 0.961 . S
C730 C729 1.502 . S
C731 H717 0.960 . S
C731 H718 0.961 . S
C731 H719 0.959 . S
C731 C729 1.561 . S
C732 C729 1.526 . S
C732 C733 1.396 . S
C732 C737 1.390 . S
C733 C727 1.465 . S
C733 C732 1.396 . S
C733 C734 1.399 . S
C734 H720 0.929 . S
C734 C733 1.399 . S
C734 C735 1.385 . S
C735 H721 0.931 . S
C735 C734 1.385 . S
C735 C736 1.389 . S
C736 C735 1.389 . S
C736 C737 1.387 . S
C737 H722 0.930 . S
C737 C732 1.390 . S
C737 C736 1.387 . S
H738 C750 0.930 . S
H739 C752 0.930 . S
H740 C753 0.930 . S
H741 C757 0.959 . S
H742 C757 0.959 . S
H743 C757 0.961 . S
H744 C758 0.960 . S
H745 C758 0.961 . S
H746 C758 0.959 . S
H747 C761 0.929 . S
H748 C762 0.931 . S
H749 C764 0.930 . S
C750 H738 0.930 . S
C750 C751 1.399 . S
C750 C755 1.399 . S
C751 C750 1.399 . S
C751 C752 1.376 . S
C752 H739 0.930 . S
C752 C751 1.376 . S
C752 C753 1.388 . S
C753 H740 0.930 . S
C753 C752 1.388 . S
C753 C754 1.390 . S
C754 C753 1.390 . S
C754 C755 1.394 . S
C754 C760 1.465 . S
C755 C750 1.399 . S
C755 C754 1.394 . S
C755 C756 1.516 . S
C756 C755 1.516 . S
C756 C757 1.502 . S
C756 C758 1.561 . S
C756 C759 1.526 . S
C757 H741 0.959 . S
C757 H742 0.959 . S
C757 H743 0.961 . S
C757 C756 1.502 . S
C758 H744 0.960 . S
C758 H745 0.961 . S
C758 H746 0.959 . S
C758 C756 1.561 . S
C759 C756 1.526 . S
C759 C760 1.396 . S
C759 C764 1.390 . S
C760 C754 1.465 . S
C760 C759 1.396 . S
C760 C761 1.399 . S
C761 H747 0.929 . S
C761 C760 1.399 . S
C761 C762 1.385 . S
C762 H748 0.931 . S
C762 C761 1.385 . S
C762 C763 1.389 . S
C763 C762 1.389 . S
C763 C764 1.387 . S
C764 H749 0.930 . S
C764 C759 1.390 . S
C764 C763 1.387 . S
H765 C777 0.930 . S
H766 C779 0.930 . S
H767 C780 0.930 . S
H768 C784 0.959 . S
H769 C784 0.959 . S
H770 C784 0.961 . S
H771 C785 0.960 . S
H772 C785 0.961 . S
H773 C785 0.959 . S
H774 C788 0.929 . S
H775 C789 0.931 . S
H776 C791 0.930 . S
C777 H765 0.930 . S
C777 C778 1.399 . S
C777 C782 1.399 . S
C778 C777 1.399 . S
C778 C779 1.376 . S
C779 H766 0.930 . S
C779 C778 1.376 . S
C779 C780 1.388 . S
C780 H767 0.930 . S
C780 C779 1.388 . S
C780 C781 1.390 . S
C781 C780 1.390 . S
C781 C782 1.394 . S
C781 C787 1.465 . S
C782 C777 1.399 . S
C782 C781 1.394 . S
C782 C783 1.516 . S
C783 C782 1.516 . S
C783 C784 1.502 . S
C783 C785 1.561 . S
C783 C786 1.526 . S
C784 H768 0.959 . S
C784 H769 0.959 . S
C784 H770 0.961 . S
C784 C783 1.502 . S
C785 H771 0.960 . S
C785 H772 0.961 . S
C785 H773 0.959 . S
C785 C783 1.561 . S
C786 C783 1.526 . S
C786 C787 1.396 . S
C786 C791 1.390 . S
C787 C781 1.465 . S
C787 C786 1.396 . S
C787 C788 1.399 . S
C788 H774 0.929 . S
C788 C787 1.399 . S
C788 C789 1.385 . S
C789 H775 0.931 . S
C789 C788 1.385 . S
C789 C790 1.389 . S
C790 C789 1.389 . S
C790 C791 1.387 . S
C791 H776 0.930 . S
C791 C786 1.390 . S
C791 C790 1.387 . S
H792 C804 0.930 . S
H793 C806 0.930 . S
H794 C807 0.930 . S
H795 C811 0.959 1_655 S
H796 C811 0.959 1_655 S
H797 C811 0.961 . S
H798 C812 0.960 . S
H799 C812 0.961 . S
H800 C812 0.959 . S
H801 C815 0.929 . S
H802 C816 0.931 . S
H803 C818 0.930 . S
C804 H792 0.930 . S
C804 C805 1.399 . S
C804 C809 1.399 . S
C805 C804 1.399 . S
C805 C806 1.376 . S
C806 H793 0.930 . S
C806 C805 1.376 . S
C806 C807 1.388 . S
C807 H794 0.930 . S
C807 C806 1.388 . S
C807 C808 1.390 . S
C808 C807 1.390 . S
C808 C809 1.394 . S
C808 C814 1.465 1_455 S
C809 C804 1.399 . S
C809 C808 1.394 . S
C809 C810 1.516 . S
C810 C809 1.516 . S
C810 C811 1.502 . S
C810 C812 1.561 . S
C810 C813 1.526 1_455 S
C811 H795 0.959 1_455 S
C811 H796 0.959 1_455 S
C811 H797 0.961 . S
C811 C810 1.502 . S
C812 H798 0.960 . S
C812 H799 0.961 . S
C812 H800 0.959 . S
C812 C810 1.561 . S
C813 C810 1.526 1_655 S
C813 C814 1.396 . S
C813 C818 1.390 . S
C814 C808 1.465 1_655 S
C814 C813 1.396 . S
C814 C815 1.399 . S
C815 H801 0.929 . S
C815 C814 1.399 . S
C815 C816 1.385 . S
C816 H802 0.931 . S
C816 C815 1.385 . S
C816 C817 1.389 . S
C817 C816 1.389 . S
C817 C818 1.387 . S
C818 H803 0.930 . S
C818 C813 1.390 . S
C818 C817 1.387 . S
H819 C831 0.930 . S
H820 C833 0.930 . S
H821 C834 0.930 . S
H822 C838 0.959 . S
H823 C838 0.959 . S
H824 C838 0.961 . S
H825 C839 0.960 . S
H826 C839 0.961 . S
H827 C839 0.959 . S
H828 C842 0.929 . S
H829 C843 0.931 . S
H830 C845 0.930 . S
C831 H819 0.930 . S
C831 C832 1.399 . S
C831 C836 1.399 . S
C832 C831 1.399 . S
C832 C833 1.376 . S
C833 H820 0.930 . S
C833 C832 1.376 . S
C833 C834 1.388 . S
C834 H821 0.930 . S
C834 C833 1.388 . S
C834 C835 1.390 . S
C835 C834 1.390 . S
C835 C836 1.394 . S
C835 C841 1.465 . S
C836 C831 1.399 . S
C836 C835 1.394 . S
C836 C837 1.516 . S
C837 C836 1.516 . S
C837 C838 1.502 . S
C837 C839 1.561 . S
C837 C840 1.526 . S
C838 H822 0.959 . S
C838 H823 0.959 . S
C838 H824 0.961 . S
C838 C837 1.502 . S
C839 H825 0.960 . S
C839 H826 0.961 . S
C839 H827 0.959 . S
C839 C837 1.561 . S
C840 C837 1.526 . S
C840 C841 1.396 . S
C840 C845 1.390 . S
C841 C835 1.465 . S
C841 C840 1.396 . S
C841 C842 1.399 . S
C842 H828 0.929 . S
C842 C841 1.399 . S
C842 C843 1.385 . S
C843 H829 0.931 . S
C843 C842 1.385 . S
C843 C844 1.389 . S
C844 C843 1.389 . S
C844 C845 1.387 . S
C845 H830 0.930 . S
C845 C840 1.390 . S
C845 C844 1.387 . S
H846 C858 0.930 . S
H847 C860 0.930 . S
H848 C861 0.930 1_565 S
H849 C865 0.959 . S
H850 C865 0.959 . S
H851 C865 0.961 . S
H852 C866 0.960 . S
H853 C866 0.961 . S
H854 C866 0.959 . S
H855 C869 0.929 . S
H856 C870 0.931 . S
H857 C872 0.930 . S
C858 H846 0.930 . S
C858 C859 1.399 . S
C858 C863 1.399 . S
C859 C858 1.399 . S
C859 C860 1.376 . S
C860 H847 0.930 . S
C860 C859 1.376 . S
C860 C861 1.388 . S
C861 H848 0.930 1_545 S
C861 C860 1.388 . S
C861 C862 1.390 . S
C862 C861 1.390 . S
C862 C863 1.394 . S
C862 C868 1.465 1_545 S
C863 C858 1.399 . S
C863 C862 1.394 . S
C863 C864 1.516 . S
C864 C863 1.516 . S
C864 C865 1.502 . S
C864 C866 1.561 . S
C864 C867 1.526 1_545 S
C865 H849 0.959 . S
C865 H850 0.959 . S
C865 H851 0.961 . S
C865 C864 1.502 . S
C866 H852 0.960 . S
C866 H853 0.961 . S
C866 H854 0.959 . S
C866 C864 1.561 . S
C867 C864 1.526 1_565 S
C867 C868 1.396 . S
C867 C872 1.390 . S
C868 C862 1.465 1_565 S
C868 C867 1.396 . S
C868 C869 1.399 . S
C869 H855 0.929 . S
C869 C868 1.399 . S
C869 C870 1.385 . S
C870 H856 0.931 . S
C870 C869 1.385 . S
C870 C871 1.389 . S
C871 C870 1.389 . S
C871 C872 1.387 . S
C872 H857 0.930 . S
C872 C867 1.390 . S
C872 C871 1.387 . S
H873 C885 0.930 . S
H874 C887 0.930 . S
H875 C888 0.930 . S
H876 C892 0.959 . S
H877 C892 0.959 . S
H878 C892 0.961 . S
H879 C893 0.960 . S
H880 C893 0.961 1_545 S
H881 C893 0.959 . S
H882 C896 0.926 1_565 S
H883 C897 0.931 . S
H884 C899 0.930 . S
C885 H873 0.930 . S
C885 C886 1.399 . S
C885 C890 1.399 . S
C886 C885 1.399 . S
C886 C887 1.376 . S
C887 H874 0.930 . S
C887 C886 1.376 . S
C887 C888 1.388 1_554 S
C888 H875 0.930 . S
C888 C887 1.388 1_556 S
C888 C889 1.395 . S
C889 C888 1.395 . S
C889 C890 1.355 1_556 S
C889 C895 1.494 1_565 S
C890 C885 1.399 . S
C890 C889 1.355 1_554 S
C890 C891 1.516 1_565 S
C891 C890 1.516 1_545 S
C891 C892 1.502 . S
C891 C893 1.561 1_545 S
C891 C894 1.526 1_554 S
C892 H876 0.959 . S
C892 H877 0.959 . S
C892 H878 0.961 . S
C892 C891 1.502 . S
C893 H879 0.960 . S
C893 H880 0.961 1_565 S
C893 H881 0.959 . S
C893 C891 1.561 1_565 S
C894 C891 1.526 1_556 S
C894 C895 1.396 . S
C894 C899 1.390 . S
C895 C889 1.494 1_545 S
C895 C894 1.396 . S
C895 C896 1.399 . S
C896 H882 0.926 1_545 S
C896 C895 1.399 . S
C896 C897 1.385 . S
C897 H883 0.931 . S
C897 C896 1.385 . S
C897 C898 1.389 . S
C898 C897 1.389 . S
C898 C899 1.387 . S
C899 H884 0.930 . S
C899 C894 1.390 . S
C899 C898 1.387 . S
H900 C912 0.930 . S
H901 C914 0.930 . S
H902 C915 0.930 1_554 S
H903 C919 0.959 . S
H904 C919 0.959 . S
H905 C919 0.961 . S
H906 C920 0.960 1_556 S
H907 C920 0.961 . S
H908 C920 0.959 . S
H909 C923 0.940 . S
H910 C924 0.931 . S
H911 C926 0.930 . S
C912 H900 0.930 . S
C912 C913 1.399 . S
C912 C917 1.399 . S
C913 C912 1.399 . S
C913 C914 1.376 . S
C914 H901 0.930 . S
C914 C913 1.376 . S
C914 C915 1.388 . S
C915 H902 0.930 1_556 S
C915 C914 1.388 . S
C915 C916 1.390 . S
C916 C915 1.390 . S
C916 C917 1.394 . S
C916 C922 1.449 1_656 S
C917 C912 1.399 . S
C917 C916 1.394 . S
C917 C918 1.516 1_655 S
C918 C917 1.516 1_455 S
C918 C919 1.502 . S
C918 C920 1.561 1_556 S
C918 C921 1.526 1_556 S
C919 H903 0.959 . S
C919 H904 0.959 . S
C919 H905 0.961 . S
C919 C918 1.502 . S
C920 H906 0.960 1_554 S
C920 H907 0.961 . S
C920 H908 0.959 . S
C920 C918 1.561 1_554 S
C921 C918 1.526 1_554 S
C921 C922 1.406 . S
C921 C926 1.390 . S
C922 C916 1.449 1_454 S
C922 C921 1.406 . S
C922 C923 1.414 1_455 S
C923 H909 0.940 . S
C923 C922 1.414 1_655 S
C923 C924 1.368 1_655 S
C924 H910 0.931 . S
C924 C923 1.368 1_455 S
C924 C925 1.389 . S
C925 C924 1.389 . S
C925 C926 1.387 . S
C926 H911 0.930 . S
C926 C921 1.390 . S
C926 C925 1.387 . S
H927 C939 0.930 . S
H928 C941 0.930 . S
H929 C942 0.930 . S
H930 C946 0.959 1_556 S
H931 C946 0.959 . S
H932 C946 0.950 1_556 S
H933 C947 0.960 . S
H934 C947 0.961 . S
H935 C947 0.959 . S
H936 C950 0.929 . S
H937 C951 0.931 . S
H938 C953 0.930 . S
C939 H927 0.930 . S
C939 C940 1.399 . S
C939 C944 1.399 . S
C940 C939 1.399 . S
C940 C941 1.376 . S
C941 H928 0.930 . S
C941 C940 1.376 . S
C941 C942 1.388 . S
C942 H929 0.930 . S
C942 C941 1.388 . S
C942 C943 1.390 . S
C943 C942 1.390 . S
C943 C944 1.394 . S
C943 C949 1.465 1_556 S
C944 C939 1.399 . S
C944 C943 1.394 . S
C944 C945 1.516 1_556 S
C945 C944 1.516 1_554 S
C945 C946 1.502 . S
C945 C947 1.561 . S
C945 C948 1.526 . S
C946 H930 0.959 1_554 S
C946 H931 0.959 . S
C946 H932 0.950 1_554 S
C946 C945 1.502 . S
C947 H933 0.960 . S
C947 H934 0.961 . S
C947 H935 0.959 . S
C947 C945 1.561 . S
C948 C945 1.526 . S
C948 C949 1.396 . S
C948 C953 1.390 . S
C949 C943 1.465 1_554 S
C949 C948 1.396 . S
C949 C950 1.399 . S
C950 H936 0.929 . S
C950 C949 1.399 . S
C950 C951 1.385 . S
C951 H937 0.931 . S
C951 C950 1.385 . S
C951 C952 1.389 . S
C952 C951 1.389 . S
C952 C953 1.387 . S
C953 H938 0.930 . S
C953 C948 1.390 . S
C953 C952 1.387 . S
H954 C966 0.930 . S
H955 C968 0.930 . S
H956 C969 0.930 . S
H957 C973 0.959 . S
H958 C973 0.959 . S
H959 C973 0.961 . S
H960 C974 0.960 1_545 S
H961 C974 0.961 . S
H962 C974 0.959 . S
H963 C977 0.929 . S
H964 C978 0.931 . S
H965 C980 0.930 . S
C966 H954 0.930 . S
C966 C967 1.399 . S
C966 C971 1.399 1_545 S
C967 C966 1.399 . S
C967 C968 1.376 1_545 S
C968 H955 0.930 . S
C968 C967 1.376 1_565 S
C968 C969 1.388 . S
C969 H956 0.930 . S
C969 C968 1.388 . S
C969 C970 1.390 . S
C970 C969 1.390 . S
C970 C971 1.394 . S
C970 C976 1.465 . S
C971 C966 1.399 1_565 S
C971 C970 1.394 . S
C971 C972 1.516 . S
C972 C971 1.516 . S
C972 C973 1.502 1_565 S
C972 C974 1.561 . S
C972 C975 1.526 . S
C973 H957 0.959 . S
C973 H958 0.959 . S
C973 H959 0.961 . S
C973 C972 1.502 1_545 S
C974 H960 0.960 1_565 S
C974 H961 0.961 . S
C974 H962 0.959 . S
C974 C972 1.561 . S
C975 C972 1.526 . S
C975 C976 1.396 . S
C975 C980 1.390 . S
C976 C970 1.465 . S
C976 C975 1.396 . S
C976 C977 1.399 . S
C977 H963 0.929 . S
C977 C976 1.399 . S
C977 C978 1.385 . S
C978 H964 0.931 . S
C978 C977 1.385 . S
C978 C979 1.389 . S
C979 C978 1.389 . S
C979 C980 1.387 . S
C980 H965 0.930 . S
C980 C975 1.390 . S
C980 C979 1.387 . S
H981 C993 0.930 . S
H982 C995 0.930 . S
H983 C996 0.930 . S
H984 C1000 0.959 1_455 S
H985 C1000 0.959 . S
H986 C1000 0.961 . S
H987 C1001 0.960 . S
H988 C1001 0.961 . S
H989 C1001 0.959 . S
H990 C1004 0.929 . S
H991 C1005 0.931 . S
H992 C1007 0.930 . S
C993 H981 0.930 . S
C993 C994 1.399 . S
C993 C998 1.399 . S
C994 C993 1.399 . S
C994 C995 1.376 . S
C995 H982 0.930 . S
C995 C994 1.376 . S
C995 C996 1.388 . S
C996 H983 0.930 . S
C996 C995 1.388 . S
C996 C997 1.390 . S
C997 C996 1.390 . S
C997 C998 1.394 . S
C997 C1003 1.465 . S
C998 C993 1.399 . S
C998 C997 1.394 . S
C998 C999 1.517 1_455 S
C999 C998 1.517 1_655 S
C999 C1000 1.502 . S
C999 C1001 1.560 . S
C999 C1002 1.527 1_655 S
C1000 H984 0.959 1_655 S
C1000 H985 0.959 . S
C1000 H986 0.961 . S
C1000 C999 1.502 . S
C1001 H987 0.960 . S
C1001 H988 0.961 . S
C1001 H989 0.959 . S
C1001 C999 1.560 . S
C1002 C999 1.527 1_455 S
C1002 C1003 1.396 . S
C1002 C1007 1.390 1_455 S
C1003 C997 1.465 . S
C1003 C1002 1.396 . S
C1003 C1004 1.399 . S
C1004 H990 0.929 . S
C1004 C1003 1.399 . S
C1004 C1005 1.385 . S
C1005 H991 0.931 . S
C1005 C1004 1.385 . S
C1005 C1006 1.389 1_455 S
C1006 C1005 1.389 1_655 S
C1006 C1007 1.387 . S
C1007 H992 0.930 . S
C1007 C1002 1.390 1_655 S
C1007 C1006 1.387 . S
H1008 C1020 0.930 . S
H1009 C1022 0.930 . S
H1010 C1023 0.930 . S
H1011 C1027 0.959 . S
H1012 C1027 0.959 . S
H1013 C1027 0.961 . S
H1014 C1028 0.960 . S
H1015 C1028 0.961 . S
H1016 C1028 0.959 . S
H1017 C1031 0.929 . S
H1018 C1032 0.931 . S
H1019 C1034 0.930 . S
C1020 H1008 0.930 . S
C1020 C1021 1.399 . S
C1020 C1025 1.399 . S
C1021 C1020 1.399 . S
C1021 C1022 1.376 . S
C1022 H1009 0.930 . S
C1022 C1021 1.376 . S
C1022 C1023 1.388 . S
C1023 H1010 0.930 . S
C1023 C1022 1.388 . S
C1023 C1024 1.390 . S
C1024 C1023 1.390 . S
C1024 C1025 1.394 . S
C1024 C1030 1.465 . S
C1025 C1020 1.399 . S
C1025 C1024 1.394 . S
C1025 C1026 1.516 . S
C1026 C1025 1.516 . S
C1026 C1027 1.502 . S
C1026 C1028 1.561 . S
C1026 C1029 1.526 . S
C1027 H1011 0.959 . S
C1027 H1012 0.959 . S
C1027 H1013 0.961 . S
C1027 C1026 1.502 . S
C1028 H1014 0.960 . S
C1028 H1015 0.961 . S
C1028 H1016 0.959 . S
C1028 C1026 1.561 . S
C1029 C1026 1.526 . S
C1029 C1030 1.396 . S
C1029 C1034 1.390 . S
C1030 C1024 1.465 . S
C1030 C1029 1.396 . S
C1030 C1031 1.399 . S
C1031 H1017 0.929 . S
C1031 C1030 1.399 . S
C1031 C1032 1.385 . S
C1032 H1018 0.931 . S
C1032 C1031 1.385 . S
C1032 C1033 1.389 . S
C1033 C1032 1.389 . S
C1033 C1034 1.387 . S
C1034 H1019 0.930 . S
C1034 C1029 1.390 . S
C1034 C1033 1.387 . S
H1035 C1047 0.930 . S
H1036 C1049 0.930 . S
H1037 C1050 0.930 1_455 S
H1038 C1054 0.959 . S
H1039 C1054 0.959 . S
H1040 C1054 0.961 . S
H1041 C1055 0.960 . S
H1042 C1055 0.961 . S
H1043 C1055 0.959 . S
H1044 C1058 0.929 . S
H1045 C1059 0.931 . S
H1046 C1061 0.930 . S
C1047 H1035 0.930 . S
C1047 C1048 1.399 . S
C1047 C1052 1.399 . S
C1048 C1047 1.399 . S
C1048 C1049 1.376 . S
C1049 H1036 0.930 . S
C1049 C1048 1.376 . S
C1049 C1050 1.388 . S
C1050 H1037 0.930 1_655 S
C1050 C1049 1.388 . S
C1050 C1051 1.390 . S
C1051 C1050 1.390 . S
C1051 C1052 1.394 . S
C1051 C1057 1.465 . S
C1052 C1047 1.399 . S
C1052 C1051 1.394 . S
C1052 C1053 1.516 . S
C1053 C1052 1.516 . S
C1053 C1054 1.502 . S
C1053 C1055 1.561 . S
C1053 C1056 1.526 . S
C1054 H1038 0.959 . S
C1054 H1039 0.959 . S
C1054 H1040 0.961 . S
C1054 C1053 1.502 . S
C1055 H1041 0.960 . S
C1055 H1042 0.961 . S
C1055 H1043 0.959 . S
C1055 C1053 1.561 . S
C1056 C1053 1.526 . S
C1056 C1057 1.396 . S
C1056 C1061 1.390 . S
C1057 C1051 1.465 . S
C1057 C1056 1.396 . S
C1057 C1058 1.399 1_655 S
C1058 H1044 0.929 . S
C1058 C1057 1.399 1_455 S
C1058 C1059 1.385 . S
C1059 H1045 0.931 . S
C1059 C1058 1.385 . S
C1059 C1060 1.389 . S
C1060 C1059 1.389 . S
C1060 C1061 1.387 1_455 S
C1061 H1046 0.930 . S
C1061 C1056 1.390 . S
C1061 C1060 1.387 1_655 S
H1062 C1074 0.930 . S
H1063 C1076 0.930 . S
H1064 C1077 0.930 . S
H1065 C1081 0.959 . S
H1066 C1081 0.959 . S
H1067 C1081 0.961 . S
H1068 C1082 0.960 . S
H1069 C1082 0.961 . S
H1070 C1082 0.959 . S
H1071 C1085 0.929 . S
H1072 C1086 0.931 . S
H1073 C1088 0.930 . S
C1074 H1062 0.930 . S
C1074 C1075 1.399 . S
C1074 C1079 1.399 . S
C1075 C1074 1.399 . S
C1075 C1076 1.376 . S
C1076 H1063 0.930 . S
C1076 C1075 1.376 . S
C1076 C1077 1.388 . S
C1077 H1064 0.930 . S
C1077 C1076 1.388 . S
C1077 C1078 1.390 . S
C1078 C1077 1.390 . S
C1078 C1079 1.394 . S
C1078 C1084 1.465 . S
C1079 C1074 1.399 . S
C1079 C1078 1.394 . S
C1079 C1080 1.516 . S
C1080 C1079 1.516 . S
C1080 C1081 1.502 . S
C1080 C1082 1.561 . S
C1080 C1083 1.526 . S
C1081 H1065 0.959 . S
C1081 H1066 0.959 . S
C1081 H1067 0.961 . S
C1081 C1080 1.502 . S
C1082 H1068 0.960 . S
C1082 H1069 0.961 . S
C1082 H1070 0.959 . S
C1082 C1080 1.561 . S
C1083 C1080 1.526 . S
C1083 C1084 1.396 . S
C1083 C1088 1.390 . S
C1084 C1078 1.465 . S
C1084 C1083 1.396 . S
C1084 C1085 1.399 . S
C1085 H1071 0.929 . S
C1085 C1084 1.399 . S
C1085 C1086 1.385 . S
C1086 H1072 0.931 . S
C1086 C1085 1.385 . S
C1086 C1087 1.389 . S
C1087 C1086 1.389 . S
C1087 C1088 1.387 . S
C1088 H1073 0.930 . S
C1088 C1083 1.390 . S
C1088 C1087 1.387 . S
H1089 C1101 0.930 . S
H1090 C1103 0.930 . S
H1091 C1104 0.930 . S
H1092 C1108 0.959 . S
H1093 C1108 0.959 . S
H1094 C1108 0.961 . S
H1095 C1109 0.960 . S
H1096 C1109 0.961 . S
H1097 C1109 0.959 . S
H1098 C1112 0.929 . S
H1099 C1113 0.931 . S
H1100 C1115 0.930 . S
C1101 H1089 0.930 . S
C1101 C1102 1.399 . S
C1101 C1106 1.399 . S
C1102 C1101 1.399 . S
C1102 C1103 1.376 . S
C1103 H1090 0.930 . S
C1103 C1102 1.376 . S
C1103 C1104 1.388 . S
C1104 H1091 0.930 . S
C1104 C1103 1.388 . S
C1104 C1105 1.390 . S
C1105 C1104 1.390 . S
C1105 C1106 1.394 . S
C1105 C1111 1.465 . S
C1106 C1101 1.399 . S
C1106 C1105 1.394 . S
C1106 C1107 1.516 . S
C1107 C1106 1.516 . S
C1107 C1108 1.502 1_545 S
C1107 C1109 1.561 . S
C1107 C1110 1.526 . S
C1108 H1092 0.959 . S
C1108 H1093 0.959 . S
C1108 H1094 0.961 . S
C1108 C1107 1.502 1_565 S
C1109 H1095 0.960 . S
C1109 H1096 0.961 . S
C1109 H1097 0.959 . S
C1109 C1107 1.561 . S
C1110 C1107 1.526 . S
C1110 C1111 1.396 . S
C1110 C1115 1.390 1_545 S
C1111 C1105 1.465 . S
C1111 C1110 1.396 . S
C1111 C1112 1.399 . S
C1112 H1098 0.929 . S
C1112 C1111 1.399 . S
C1112 C1113 1.385 . S
C1113 H1099 0.931 . S
C1113 C1112 1.385 . S
C1113 C1114 1.389 1_545 S
C1114 C1113 1.389 1_565 S
C1114 C1115 1.387 . S
C1115 H1100 0.930 . S
C1115 C1110 1.390 1_565 S
C1115 C1114 1.387 . S
H1116 C1128 0.930 . S
H1117 C1130 0.930 . S
H1118 C1131 0.930 . S
H1119 C1135 0.959 . S
H1120 C1135 0.959 . S
H1121 C1135 0.961 . S
H1122 C1136 0.960 . S
H1123 C1136 0.961 . S
H1124 C1136 0.959 . S
H1125 C1139 0.929 . S
H1126 C1140 0.931 . S
H1127 C1142 0.930 . S
C1128 H1116 0.930 . S
C1128 C1129 1.399 1_545 S
C1128 C1133 1.399 . S
C1129 C1128 1.399 1_565 S
C1129 C1130 1.376 . S
C1130 H1117 0.930 . S
C1130 C1129 1.376 . S
C1130 C1131 1.388 . S
C1131 H1118 0.930 . S
C1131 C1130 1.388 . S
C1131 C1132 1.390 1_565 S
C1132 C1131 1.390 1_545 S
C1132 C1133 1.394 . S
C1132 C1138 1.465 . S
C1133 C1128 1.399 . S
C1133 C1132 1.394 . S
C1133 C1134 1.516 . S
C1134 C1133 1.516 . S
C1134 C1135 1.502 . S
C1134 C1136 1.561 . S
C1134 C1137 1.526 . S
C1135 H1119 0.959 . S
C1135 H1120 0.959 . S
C1135 H1121 0.961 . S
C1135 C1134 1.502 . S
C1136 H1122 0.960 . S
C1136 H1123 0.961 . S
C1136 H1124 0.959 . S
C1136 C1134 1.561 . S
C1137 C1134 1.526 . S
C1137 C1138 1.396 . S
C1137 C1142 1.390 . S
C1138 C1132 1.465 . S
C1138 C1137 1.396 . S
C1138 C1139 1.399 . S
C1139 H1125 0.929 . S
C1139 C1138 1.399 . S
C1139 C1140 1.385 . S
C1140 H1126 0.931 . S
C1140 C1139 1.385 . S
C1140 C1141 1.389 . S
C1141 C1140 1.389 . S
C1141 C1142 1.387 . S
C1142 H1127 0.930 . S
C1142 C1137 1.390 . S
C1142 C1141 1.387 . S
H1143 C1155 0.930 . S
H1144 C1157 0.930 . S
H1145 C1158 0.930 . S
H1146 C1162 0.959 . S
H1147 C1162 0.959 . S
H1148 C1162 0.961 . S
H1149 C1163 0.960 . S
H1150 C1163 0.961 . S
H1151 C1163 0.959 . S
H1152 C1166 0.929 . S
H1153 C1167 0.931 . S
H1154 C1169 0.930 . S
C1155 H1143 0.930 . S
C1155 C1156 1.399 . S
C1155 C1160 1.399 . S
C1156 C1155 1.399 . S
C1156 C1157 1.376 . S
C1157 H1144 0.930 . S
C1157 C1156 1.376 . S
C1157 C1158 1.388 . S
C1158 H1145 0.930 . S
C1158 C1157 1.388 . S
C1158 C1159 1.390 . S
C1159 C1158 1.390 . S
C1159 C1160 1.394 . S
C1159 C1165 1.465 . S
C1160 C1155 1.399 . S
C1160 C1159 1.394 . S
C1160 C1161 1.516 . S
C1161 C1160 1.516 . S
C1161 C1162 1.502 1_655 S
C1161 C1163 1.561 . S
C1161 C1164 1.526 . S
C1162 H1146 0.959 . S
C1162 H1147 0.959 . S
C1162 H1148 0.961 . S
C1162 C1161 1.502 1_455 S
C1163 H1149 0.960 . S
C1163 H1150 0.961 . S
C1163 H1151 0.959 . S
C1163 C1161 1.561 . S
C1164 C1161 1.526 . S
C1164 C1165 1.396 . S
C1164 C1169 1.390 1_655 S
C1165 C1159 1.465 . S
C1165 C1164 1.396 . S
C1165 C1166 1.399 . S
C1166 H1152 0.929 . S
C1166 C1165 1.399 . S
C1166 C1167 1.385 . S
C1167 H1153 0.931 . S
C1167 C1166 1.385 . S
C1167 C1168 1.389 1_655 S
C1168 C1167 1.389 1_455 S
C1168 C1169 1.387 . S
C1169 H1154 0.930 . S
C1169 C1164 1.390 1_455 S
C1169 C1168 1.387 . S
H1170 C1182 0.930 . S
H1171 C1184 0.930 . S
H1172 C1185 0.930 . S
H1173 C1189 0.959 . S
H1174 C1189 0.959 . S
H1175 C1189 0.961 . S
H1176 C1190 0.960 . S
H1177 C1190 0.961 . S
H1178 C1190 0.959 . S
H1179 C1193 0.929 . S
H1180 C1194 0.931 . S
H1181 C1196 0.930 . S
C1182 H1170 0.930 . S
C1182 C1183 1.399 . S
C1182 C1187 1.399 . S
C1183 C1182 1.399 . S
C1183 C1184 1.376 . S
C1184 H1171 0.930 . S
C1184 C1183 1.376 . S
C1184 C1185 1.388 . S
C1185 H1172 0.930 . S
C1185 C1184 1.388 . S
C1185 C1186 1.390 . S
C1186 C1185 1.390 . S
C1186 C1187 1.394 . S
C1186 C1192 1.465 . S
C1187 C1182 1.399 . S
C1187 C1186 1.394 . S
C1187 C1188 1.516 . S
C1188 C1187 1.516 . S
C1188 C1189 1.502 . S
C1188 C1190 1.561 . S
C1188 C1191 1.526 . S
C1189 H1173 0.959 . S
C1189 H1174 0.959 . S
C1189 H1175 0.961 . S
C1189 C1188 1.502 . S
C1190 H1176 0.960 . S
C1190 H1177 0.961 . S
C1190 H1178 0.959 . S
C1190 C1188 1.561 . S
C1191 C1188 1.526 . S
C1191 C1192 1.396 . S
C1191 C1196 1.390 . S
C1192 C1186 1.465 . S
C1192 C1191 1.396 . S
C1192 C1193 1.399 . S
C1193 H1179 0.929 . S
C1193 C1192 1.399 . S
C1193 C1194 1.385 . S
C1194 H1180 0.931 . S
C1194 C1193 1.385 . S
C1194 C1195 1.389 . S
C1195 C1194 1.389 . S
C1195 C1196 1.387 . S
C1196 H1181 0.930 . S
C1196 C1191 1.390 . S
C1196 C1195 1.387 . S
H1197 C1209 0.930 . S
H1198 C1211 0.930 . S
H1199 C1212 0.930 . S
H1200 C1216 0.959 . S
H1201 C1216 0.959 . S
H1202 C1216 0.961 . S
H1203 C1217 0.973 . S
H1204 C1217 0.961 . S
H1205 C1217 0.959 1_655 S
H1206 C1220 0.929 . S
H1207 C1221 0.931 . S
H1208 C1223 0.930 . S
C1209 H1197 0.930 . S
C1209 C1210 1.399 1_455 S
C1209 C1214 1.399 . S
C1210 C1209 1.399 1_655 S
C1210 C1211 1.376 . S
C1211 H1198 0.930 . S
C1211 C1210 1.376 . S
C1211 C1212 1.388 . S
C1212 H1199 0.930 . S
C1212 C1211 1.388 . S
C1212 C1213 1.390 1_655 S
C1213 C1212 1.390 1_455 S
C1213 C1214 1.394 . S
C1213 C1219 1.465 . S
C1214 C1209 1.399 . S
C1214 C1213 1.394 . S
C1214 C1215 1.516 . S
C1215 C1214 1.516 . S
C1215 C1216 1.502 . S
C1215 C1217 1.561 . S
C1215 C1218 1.526 . S
C1216 H1200 0.959 . S
C1216 H1201 0.959 . S
C1216 H1202 0.961 . S
C1216 C1215 1.502 . S
C1217 H1203 0.973 . S
C1217 H1204 0.961 . S
C1217 H1205 0.959 1_455 S
C1217 C1215 1.561 . S
C1218 C1215 1.526 . S
C1218 C1219 1.396 . S
C1218 C1223 1.390 . S
C1219 C1213 1.465 . S
C1219 C1218 1.396 . S
C1219 C1220 1.399 . S
C1220 H1206 0.929 . S
C1220 C1219 1.399 . S
C1220 C1221 1.385 . S
C1221 H1207 0.931 . S
C1221 C1220 1.385 . S
C1221 C1222 1.389 . S
C1222 C1221 1.389 . S
C1222 C1223 1.387 . S
C1223 H1208 0.930 . S
C1223 C1218 1.390 . S
C1223 C1222 1.387 . S
H1224 C1236 0.930 . S
H1225 C1238 0.930 . S
H1226 C1239 0.930 . S
H1227 C1243 0.959 . S
H1228 C1243 0.959 . S
H1229 C1243 0.961 . S
H1230 C1244 0.960 . S
H1231 C1244 0.961 . S
H1232 C1244 0.959 . S
H1233 C1247 0.929 . S
H1234 C1248 0.931 . S
H1235 C1250 0.930 . S
C1236 H1224 0.930 . S
C1236 C1237 1.399 . S
C1236 C1241 1.399 . S
C1237 C1236 1.399 . S
C1237 C1238 1.376 . S
C1238 H1225 0.930 . S
C1238 C1237 1.376 . S
C1238 C1239 1.388 . S
C1239 H1226 0.930 . S
C1239 C1238 1.388 . S
C1239 C1240 1.390 . S
C1240 C1239 1.390 . S
C1240 C1241 1.394 . S
C1240 C1246 1.465 . S
C1241 C1236 1.399 . S
C1241 C1240 1.394 . S
C1241 C1242 1.516 . S
C1242 C1241 1.516 . S
C1242 C1243 1.502 . S
C1242 C1244 1.561 . S
C1242 C1245 1.526 . S
C1243 H1227 0.959 . S
C1243 H1228 0.959 . S
C1243 H1229 0.961 . S
C1243 C1242 1.502 . S
C1244 H1230 0.960 . S
C1244 H1231 0.961 . S
C1244 H1232 0.959 . S
C1244 C1242 1.561 . S
C1245 C1242 1.526 . S
C1245 C1246 1.396 . S
C1245 C1250 1.390 . S
C1246 C1240 1.465 . S
C1246 C1245 1.396 . S
C1246 C1247 1.399 . S
C1247 H1233 0.929 . S
C1247 C1246 1.399 . S
C1247 C1248 1.385 . S
C1248 H1234 0.931 . S
C1248 C1247 1.385 . S
C1248 C1249 1.389 . S
C1249 C1248 1.389 . S
C1249 C1250 1.387 . S
C1250 H1235 0.930 . S
C1250 C1245 1.390 . S
C1250 C1249 1.387 . S
H1251 C1263 0.930 . S
H1252 C1265 0.930 . S
H1253 C1266 0.930 . S
H1254 C1270 0.959 . S
H1255 C1270 0.959 1_565 S
H1256 C1270 0.961 . S
H1257 C1271 0.960 . S
H1258 C1271 0.961 . S
H1259 C1271 0.959 . S
H1260 C1274 0.929 . S
H1261 C1275 0.931 . S
H1262 C1277 0.930 . S
C1263 H1251 0.930 . S
C1263 C1264 1.399 . S
C1263 C1268 1.399 1_545 S
C1264 C1263 1.399 . S
C1264 C1265 1.376 1_545 S
C1265 H1252 0.930 . S
C1265 C1264 1.376 1_565 S
C1265 C1266 1.388 . S
C1266 H1253 0.930 . S
C1266 C1265 1.388 . S
C1266 C1267 1.390 . S
C1267 C1266 1.390 . S
C1267 C1268 1.394 . S
C1267 C1273 1.465 . S
C1268 C1263 1.399 1_565 S
C1268 C1267 1.394 . S
C1268 C1269 1.516 . S
C1269 C1268 1.516 . S
C1269 C1270 1.502 1_565 S
C1269 C1271 1.561 . S
C1269 C1272 1.526 . S
C1270 H1254 0.959 . S
C1270 H1255 0.959 1_545 S
C1270 H1256 0.961 . S
C1270 C1269 1.502 1_545 S
C1271 H1257 0.960 . S
C1271 H1258 0.961 . S
C1271 H1259 0.959 . S
C1271 C1269 1.561 . S
C1272 C1269 1.526 . S
C1272 C1273 1.396 . S
C1272 C1277 1.390 . S
C1273 C1267 1.465 . S
C1273 C1272 1.396 . S
C1273 C1274 1.399 . S
C1274 H1260 0.929 . S
C1274 C1273 1.399 . S
C1274 C1275 1.385 . S
C1275 H1261 0.931 . S
C1275 C1274 1.385 . S
C1275 C1276 1.389 . S
C1276 C1275 1.389 . S
C1276 C1277 1.387 . S
C1277 H1262 0.930 . S
C1277 C1272 1.390 . S
C1277 C1276 1.387 . S
H1278 C1290 0.930 . S
H1279 C1292 0.930 . S
H1280 C1293 0.930 . S
H1281 C1297 0.959 . S
H1282 C1297 0.959 . S
H1283 C1297 0.961 . S
H1284 C1298 0.960 . S
H1285 C1298 0.961 . S
H1286 C1298 0.959 . S
H1287 C1301 0.929 . S
H1288 C1302 0.931 . S
H1289 C1304 0.930 . S
C1290 H1278 0.930 . S
C1290 C1291 1.399 . S
C1290 C1295 1.399 . S
C1291 C1290 1.399 . S
C1291 C1292 1.376 . S
C1292 H1279 0.930 . S
C1292 C1291 1.376 . S
C1292 C1293 1.388 . S
C1293 H1280 0.930 . S
C1293 C1292 1.388 . S
C1293 C1294 1.390 . S
C1294 C1293 1.390 . S
C1294 C1295 1.394 . S
C1294 C1300 1.465 . S
C1295 C1290 1.399 . S
C1295 C1294 1.394 . S
C1295 C1296 1.516 . S
C1296 C1295 1.516 . S
C1296 C1297 1.502 . S
C1296 C1298 1.561 . S
C1296 C1299 1.526 . S
C1297 H1281 0.959 . S
C1297 H1282 0.959 . S
C1297 H1283 0.961 . S
C1297 C1296 1.502 . S
C1298 H1284 0.960 . S
C1298 H1285 0.961 . S
C1298 H1286 0.959 . S
C1298 C1296 1.561 . S
C1299 C1296 1.526 . S
C1299 C1300 1.396 . S
C1299 C1304 1.390 . S
C1300 C1294 1.465 . S
C1300 C1299 1.396 . S
C1300 C1301 1.399 . S
C1301 H1287 0.929 . S
C1301 C1300 1.399 . S
C1301 C1302 1.385 . S
C1302 H1288 0.931 . S
C1302 C1301 1.385 . S
C1302 C1303 1.389 . S
C1303 C1302 1.389 . S
C1303 C1304 1.387 . S
C1304 H1289 0.930 . S
C1304 C1299 1.390 . S
C1304 C1303 1.387 . S
H1305 C1317 0.930 . S
H1306 C1319 0.930 . S
H1307 C1320 0.930 . S
H1308 C1324 0.959 . S
H1309 C1324 0.959 . S
H1310 C1324 0.961 1_545 S
H1311 C1325 0.960 1_545 S
H1312 C1325 0.961 . S
H1313 C1325 0.959 . S
H1314 C1328 0.929 . S
H1315 C1329 0.931 . S
H1316 C1331 0.930 . S
C1317 H1305 0.930 . S
C1317 C1318 1.399 . S
C1317 C1322 1.399 . S
C1318 C1317 1.399 . S
C1318 C1319 1.376 . S
C1319 H1306 0.930 . S
C1319 C1318 1.376 . S
C1319 C1320 1.388 . S
C1320 H1307 0.930 . S
C1320 C1319 1.388 . S
C1320 C1321 1.390 . S
C1321 C1320 1.390 . S
C1321 C1322 1.394 . S
C1321 C1327 1.465 1_545 S
C1322 C1317 1.399 . S
C1322 C1321 1.394 . S
C1322 C1323 1.516 1_545 S
C1323 C1322 1.516 1_565 S
C1323 C1324 1.502 . S
C1323 C1325 1.561 . S
C1323 C1326 1.526 . S
C1324 H1308 0.959 . S
C1324 H1309 0.959 . S
C1324 H1310 0.961 1_565 S
C1324 C1323 1.502 . S
C1325 H1311 0.960 1_565 S
C1325 H1312 0.961 . S
C1325 H1313 0.959 . S
C1325 C1323 1.561 . S
C1326 C1323 1.526 . S
C1326 C1327 1.396 . S
C1326 C1331 1.390 . S
C1327 C1321 1.465 1_565 S
C1327 C1326 1.396 . S
C1327 C1328 1.399 . S
C1328 H1314 0.929 . S
C1328 C1327 1.399 . S
C1328 C1329 1.385 . S
C1329 H1315 0.931 . S
C1329 C1328 1.385 . S
C1329 C1330 1.389 . S
C1330 C1329 1.389 . S
C1330 C1331 1.387 . S
C1331 H1316 0.930 . S
C1331 C1326 1.390 . S
C1331 C1330 1.387 . S
H1332 C1344 0.930 . S
H1333 C1346 0.930 . S
H1334 C1347 0.930 . S
H1335 C1351 0.959 1_455 S
H1336 C1351 0.959 1_455 S
H1337 C1351 0.961 . S
H1338 C1352 0.960 . S
H1339 C1352 0.961 1_455 S
H1340 C1352 0.959 . S
H1341 C1355 0.929 . S
H1342 C1356 0.931 . S
H1343 C1358 0.930 . S
C1344 H1332 0.930 . S
C1344 C1345 1.399 . S
C1344 C1349 1.399 . S
C1345 C1344 1.399 . S
C1345 C1346 1.376 . S
C1346 H1333 0.930 . S
C1346 C1345 1.376 . S
C1346 C1347 1.388 . S
C1347 H1334 0.930 . S
C1347 C1346 1.388 . S
C1347 C1348 1.390 . S
C1348 C1347 1.390 . S
C1348 C1349 1.394 . S
C1348 C1354 1.465 1_655 S
C1349 C1344 1.399 . S
C1349 C1348 1.394 . S
C1349 C1350 1.516 . S
C1350 C1349 1.516 . S
C1350 C1351 1.502 . S
C1350 C1352 1.561 . S
C1350 C1353 1.526 1_655 S
C1351 H1335 0.959 1_655 S
C1351 H1336 0.959 1_655 S
C1351 H1337 0.961 . S
C1351 C1350 1.502 . S
C1352 H1338 0.960 . S
C1352 H1339 0.961 1_655 S
C1352 H1340 0.959 . S
C1352 C1350 1.561 . S
C1353 C1350 1.526 1_455 S
C1353 C1354 1.396 . S
C1353 C1358 1.390 . S
C1354 C1348 1.465 1_455 S
C1354 C1353 1.396 . S
C1354 C1355 1.399 . S
C1355 H1341 0.929 . S
C1355 C1354 1.399 . S
C1355 C1356 1.385 . S
C1356 H1342 0.931 . S
C1356 C1355 1.385 . S
C1356 C1357 1.389 . S
C1357 C1356 1.389 . S
C1357 C1358 1.387 . S
C1358 H1343 0.930 . S
C1358 C1353 1.390 . S
C1358 C1357 1.387 . S
H1359 C1371 0.930 . S
H1360 C1373 0.930 . S
H1361 C1374 0.930 . S
H1362 C1378 0.959 . S
H1363 C1378 0.959 . S
H1364 C1378 0.961 . S
H1365 C1379 0.960 . S
H1366 C1379 0.961 . S
H1367 C1379 0.959 . S
H1368 C1382 0.929 . S
H1369 C1383 0.931 . S
H1370 C1385 0.930 . S
C1371 H1359 0.930 . S
C1371 C1372 1.399 . S
C1371 C1376 1.399 . S
C1372 C1371 1.399 . S
C1372 C1373 1.376 . S
C1373 H1360 0.930 . S
C1373 C1372 1.376 . S
C1373 C1374 1.388 . S
C1374 H1361 0.930 . S
C1374 C1373 1.388 . S
C1374 C1375 1.390 . S
C1375 C1374 1.390 . S
C1375 C1376 1.394 . S
C1375 C1381 1.465 . S
C1376 C1371 1.399 . S
C1376 C1375 1.394 . S
C1376 C1377 1.516 . S
C1377 C1376 1.516 . S
C1377 C1378 1.502 . S
C1377 C1379 1.561 . S
C1377 C1380 1.526 . S
C1378 H1362 0.959 . S
C1378 H1363 0.959 . S
C1378 H1364 0.961 . S
C1378 C1377 1.502 . S
C1379 H1365 0.960 . S
C1379 H1366 0.961 . S
C1379 H1367 0.959 . S
C1379 C1377 1.561 . S
C1380 C1377 1.526 . S
C1380 C1381 1.396 . S
C1380 C1385 1.390 . S
C1381 C1375 1.465 . S
C1381 C1380 1.396 . S
C1381 C1382 1.399 . S
C1382 H1368 0.929 . S
C1382 C1381 1.399 . S
C1382 C1383 1.385 . S
C1383 H1369 0.931 . S
C1383 C1382 1.385 . S
C1383 C1384 1.389 . S
C1384 C1383 1.389 . S
C1384 C1385 1.387 . S
C1385 H1370 0.930 . S
C1385 C1380 1.390 . S
C1385 C1384 1.387 . S
H1386 C1398 0.930 . S
H1387 C1400 0.930 . S
H1388 C1401 0.930 . S
H1389 C1405 0.959 . S
H1390 C1405 0.959 1_545 S
H1391 C1405 0.961 . S
H1392 C1406 0.960 . S
H1393 C1406 0.961 1_545 S
H1394 C1406 0.959 1_545 S
H1395 C1409 0.929 . S
H1396 C1410 0.931 . S
H1397 C1412 0.930 . S
C1398 H1386 0.930 . S
C1398 C1399 1.399 . S
C1398 C1403 1.399 . S
C1399 C1398 1.399 . S
C1399 C1400 1.376 . S
C1400 H1387 0.930 . S
C1400 C1399 1.376 . S
C1400 C1401 1.388 . S
C1401 H1388 0.930 . S
C1401 C1400 1.388 . S
C1401 C1402 1.390 . S
C1402 C1401 1.390 . S
C1402 C1403 1.394 . S
C1402 C1408 1.465 1_565 S
C1403 C1398 1.399 . S
C1403 C1402 1.394 . S
C1403 C1404 1.516 . S
C1404 C1403 1.516 . S
C1404 C1405 1.502 . S
C1404 C1406 1.561 . S
C1404 C1407 1.526 1_565 S
C1405 H1389 0.959 . S
C1405 H1390 0.959 1_565 S
C1405 H1391 0.961 . S
C1405 C1404 1.502 . S
C1406 H1392 0.960 . S
C1406 H1393 0.961 1_565 S
C1406 H1394 0.959 1_565 S
C1406 C1404 1.561 . S
C1407 C1404 1.526 1_545 S
C1407 C1408 1.396 . S
C1407 C1412 1.390 . S
C1408 C1402 1.465 1_545 S
C1408 C1407 1.396 . S
C1408 C1409 1.399 . S
C1409 H1395 0.929 . S
C1409 C1408 1.399 . S
C1409 C1410 1.385 . S
C1410 H1396 0.931 . S
C1410 C1409 1.385 . S
C1410 C1411 1.389 . S
C1411 C1410 1.389 . S
C1411 C1412 1.387 . S
C1412 H1397 0.930 . S
C1412 C1407 1.390 . S
C1412 C1411 1.387 . S
H1413 C1425 0.930 . S
H1414 C1427 0.930 . S
H1415 C1428 0.930 . S
H1416 C1432 0.959 . S
H1417 C1432 0.959 . S
H1418 C1432 0.961 1_655 S
H1419 C1433 0.960 1_655 S
H1420 C1433 0.961 . S
H1421 C1433 0.959 . S
H1422 C1436 0.929 . S
H1423 C1437 0.931 . S
H1424 C1439 0.930 . S
C1425 H1413 0.930 . S
C1425 C1426 1.399 . S
C1425 C1430 1.399 . S
C1426 C1425 1.399 . S
C1426 C1427 1.376 . S
C1427 H1414 0.930 . S
C1427 C1426 1.376 . S
C1427 C1428 1.388 . S
C1428 H1415 0.930 . S
C1428 C1427 1.388 . S
C1428 C1429 1.390 . S
C1429 C1428 1.390 . S
C1429 C1430 1.394 . S
C1429 C1435 1.465 1_655 S
C1430 C1425 1.399 . S
C1430 C1429 1.394 . S
C1430 C1431 1.516 1_655 S
C1431 C1430 1.516 1_455 S
C1431 C1432 1.502 . S
C1431 C1433 1.561 . S
C1431 C1434 1.526 . S
C1432 H1416 0.959 . S
C1432 H1417 0.959 . S
C1432 H1418 0.961 1_455 S
C1432 C1431 1.502 . S
C1433 H1419 0.960 1_455 S
C1433 H1420 0.961 . S
C1433 H1421 0.959 . S
C1433 C1431 1.561 . S
C1434 C1431 1.526 . S
C1434 C1435 1.396 . S
C1434 C1439 1.390 . S
C1435 C1429 1.465 1_455 S
C1435 C1434 1.396 . S
C1435 C1436 1.399 . S
C1436 H1422 0.929 . S
C1436 C1435 1.399 . S
C1436 C1437 1.385 . S
C1437 H1423 0.931 . S
C1437 C1436 1.385 . S
C1437 C1438 1.389 . S
C1438 C1437 1.389 . S
C1438 C1439 1.387 . S
C1439 H1424 0.930 . S
C1439 C1434 1.390 . S
C1439 C1438 1.387 . S
H1440 C1452 0.930 . S
H1441 C1454 0.930 1_655 S
H1442 C1455 0.930 . S
H1443 C1459 0.959 . S
H1444 C1459 0.959 . S
H1445 C1459 0.961 . S
H1446 C1460 0.960 . S
H1447 C1460 0.961 . S
H1448 C1460 0.959 . S
H1449 C1463 0.929 . S
H1450 C1464 0.931 . S
H1451 C1466 0.930 . S
C1452 H1440 0.930 . S
C1452 C1453 1.399 . S
C1452 C1457 1.399 . S
C1453 C1452 1.399 . S
C1453 C1454 1.376 . S
C1454 H1441 0.930 1_455 S
C1454 C1453 1.376 . S
C1454 C1455 1.388 . S
C1455 H1442 0.930 . S
C1455 C1454 1.388 . S
C1455 C1456 1.390 . S
C1456 C1455 1.390 . S
C1456 C1457 1.394 . S
C1456 C1462 1.465 . S
C1457 C1452 1.399 . S
C1457 C1456 1.394 . S
C1457 C1458 1.516 . S
C1458 C1457 1.516 . S
C1458 C1459 1.502 . S
C1458 C1460 1.561 . S
C1458 C1461 1.526 . S
C1459 H1443 0.959 . S
C1459 H1444 0.959 . S
C1459 H1445 0.961 . S
C1459 C1458 1.502 . S
C1460 H1446 0.960 . S
C1460 H1447 0.961 . S
C1460 H1448 0.959 . S
C1460 C1458 1.561 . S
C1461 C1458 1.526 . S
C1461 C1462 1.396 . S
C1461 C1466 1.390 . S
C1462 C1456 1.465 . S
C1462 C1461 1.396 . S
C1462 C1463 1.399 . S
C1463 H1449 0.929 . S
C1463 C1462 1.399 . S
C1463 C1464 1.385 . S
C1464 H1450 0.931 . S
C1464 C1463 1.385 . S
C1464 C1465 1.389 . S
C1465 C1464 1.389 . S
C1465 C1466 1.387 . S
C1466 H1451 0.930 . S
C1466 C1461 1.390 . S
C1466 C1465 1.387 . S
H1467 C1479 0.930 . S
H1468 C1481 0.930 . S
H1469 C1482 0.930 1_565 S
H1470 C1486 0.959 . S
H1471 C1486 0.959 . S
H1472 C1486 0.961 1_545 S
H1473 C1487 0.960 . S
H1474 C1487 0.961 . S
H1475 C1487 0.959 . S
H1476 C1490 0.929 . S
H1477 C1491 0.931 . S
H1478 C1493 0.930 . S
C1479 H1467 0.930 . S
C1479 C1480 1.399 . S
C1479 C1484 1.399 . S
C1480 C1479 1.399 . S
C1480 C1481 1.376 . S
C1481 H1468 0.930 . S
C1481 C1480 1.376 . S
C1481 C1482 1.388 . S
C1482 H1469 0.930 1_545 S
C1482 C1481 1.388 . S
C1482 C1483 1.390 1_545 S
C1483 C1482 1.390 1_565 S
C1483 C1484 1.394 1_565 S
C1483 C1489 1.465 . S
C1484 C1479 1.399 . S
C1484 C1483 1.394 1_545 S
C1484 C1485 1.516 1_545 S
C1485 C1484 1.516 1_565 S
C1485 C1486 1.502 . S
C1485 C1487 1.561 . S
C1485 C1488 1.526 . S
C1486 H1470 0.959 . S
C1486 H1471 0.959 . S
C1486 H1472 0.961 1_565 S
C1486 C1485 1.502 . S
C1487 H1473 0.960 . S
C1487 H1474 0.961 . S
C1487 H1475 0.959 . S
C1487 C1485 1.561 . S
C1488 C1485 1.526 . S
C1488 C1489 1.396 . S
C1488 C1493 1.390 . S
C1489 C1483 1.465 . S
C1489 C1488 1.396 . S
C1489 C1490 1.399 . S
C1490 H1476 0.929 . S
C1490 C1489 1.399 . S
C1490 C1491 1.385 . S
C1491 H1477 0.931 . S
C1491 C1490 1.385 . S
C1491 C1492 1.389 . S
C1492 C1491 1.389 . S
C1492 C1493 1.387 . S
C1493 H1478 0.930 . S
C1493 C1488 1.390 . S
C1493 C1492 1.387 . S
H1494 C1506 0.930 . S
H1495 C1508 0.930 . S
H1496 C1509 0.930 1_455 S
H1497 C1513 0.959 . S
H1498 C1513 0.959 . S
H1499 C1513 0.961 1_655 S
H1500 C1514 0.960 . S
H1501 C1514 0.961 . S
H1502 C1514 0.959 . S
H1503 C1517 0.929 . S
H1504 C1518 0.931 . S
H1505 C1520 0.930 . S
C1506 H1494 0.930 . S
C1506 C1507 1.399 . S
C1506 C1511 1.399 . S
C1507 C1506 1.399 . S
C1507 C1508 1.376 . S
C1508 H1495 0.930 . S
C1508 C1507 1.376 . S
C1508 C1509 1.388 . S
C1509 H1496 0.930 1_655 S
C1509 C1508 1.388 . S
C1509 C1510 1.390 1_655 S
C1510 C1509 1.390 1_455 S
C1510 C1511 1.394 1_455 S
C1510 C1516 1.465 . S
C1511 C1506 1.399 . S
C1511 C1510 1.394 1_655 S
C1511 C1512 1.516 1_655 S
C1512 C1511 1.516 1_455 S
C1512 C1513 1.502 . S
C1512 C1514 1.561 . S
C1512 C1515 1.526 . S
C1513 H1497 0.959 . S
C1513 H1498 0.959 . S
C1513 H1499 0.961 1_455 S
C1513 C1512 1.502 . S
C1514 H1500 0.960 . S
C1514 H1501 0.961 . S
C1514 H1502 0.959 . S
C1514 C1512 1.561 . S
C1515 C1512 1.526 . S
C1515 C1516 1.396 . S
C1515 C1520 1.390 . S
C1516 C1510 1.465 . S
C1516 C1515 1.396 . S
C1516 C1517 1.399 . S
C1517 H1503 0.929 . S
C1517 C1516 1.399 . S
C1517 C1518 1.385 . S
C1518 H1504 0.931 . S
C1518 C1517 1.385 . S
C1518 C1519 1.389 . S
C1519 C1518 1.389 . S
C1519 C1520 1.387 . S
C1520 H1505 0.930 . S
C1520 C1515 1.390 . S
C1520 C1519 1.387 . S
H1521 C1533 0.930 . S
H1522 C1535 0.930 . S
H1523 C1536 0.930 . S
H1524 C1540 0.959 . S
H1525 C1540 0.959 . S
H1526 C1540 0.961 . S
H1527 C1541 0.960 . S
H1528 C1541 0.961 . S
H1529 C1541 0.959 . S
H1530 C1544 0.929 . S
H1531 C1545 0.931 . S
H1532 C1547 0.930 . S
C1533 H1521 0.930 . S
C1533 C1534 1.399 . S
C1533 C1538 1.399 . S
C1534 C1533 1.399 . S
C1534 C1535 1.376 . S
C1535 H1522 0.930 . S
C1535 C1534 1.376 . S
C1535 C1536 1.388 . S
C1536 H1523 0.930 . S
C1536 C1535 1.388 . S
C1536 C1537 1.390 . S
C1537 C1536 1.390 . S
C1537 C1538 1.394 . S
C1537 C1543 1.465 . S
C1538 C1533 1.399 . S
C1538 C1537 1.394 . S
C1538 C1539 1.516 . S
C1539 C1538 1.516 . S
C1539 C1540 1.502 . S
C1539 C1541 1.561 . S
C1539 C1542 1.526 . S
C1540 H1524 0.959 . S
C1540 H1525 0.959 . S
C1540 H1526 0.961 . S
C1540 C1539 1.502 . S
C1541 H1527 0.960 . S
C1541 H1528 0.961 . S
C1541 H1529 0.959 . S
C1541 C1539 1.561 . S
C1542 C1539 1.526 . S
C1542 C1543 1.396 . S
C1542 C1547 1.390 . S
C1543 C1537 1.465 . S
C1543 C1542 1.396 . S
C1543 C1544 1.399 . S
C1544 H1530 0.929 . S
C1544 C1543 1.399 . S
C1544 C1545 1.385 . S
C1545 H1531 0.931 . S
C1545 C1544 1.385 . S
C1545 C1546 1.389 . S
C1546 C1545 1.389 . S
C1546 C1547 1.387 . S
C1547 H1532 0.930 . S
C1547 C1542 1.390 . S
C1547 C1546 1.387 . S
H1548 C1560 0.930 . S
H1549 C1562 0.930 . S
H1550 C1563 0.930 . S
H1551 C1567 0.959 . S
H1552 C1567 0.959 . S
H1553 C1567 0.961 . S
H1554 C1568 0.960 . S
H1555 C1568 0.961 1_565 S
H1556 C1568 0.964 . S
H1557 C1571 0.929 1_545 S
H1558 C1572 0.931 . S
H1559 C1574 0.930 . S
C1560 H1548 0.930 . S
C1560 C1561 1.399 . S
C1560 C1565 1.399 . S
C1561 C1560 1.399 . S
C1561 C1562 1.376 . S
C1562 H1549 0.930 . S
C1562 C1561 1.376 . S
C1562 C1563 1.388 . S
C1563 H1550 0.930 . S
C1563 C1562 1.388 . S
C1563 C1564 1.390 . S
C1564 C1563 1.390 . S
C1564 C1565 1.394 . S
C1564 C1570 1.465 . S
C1565 C1560 1.399 . S
C1565 C1564 1.394 . S
C1565 C1566 1.516 . S
C1566 C1565 1.516 . S
C1566 C1567 1.502 . S
C1566 C1568 1.561 . S
C1566 C1569 1.526 1_545 S
C1567 H1551 0.959 . S
C1567 H1552 0.959 . S
C1567 H1553 0.961 . S
C1567 C1566 1.502 . S
C1568 H1554 0.960 . S
C1568 H1555 0.961 1_545 S
C1568 H1556 0.964 . S
C1568 C1566 1.561 . S
C1569 C1566 1.526 1_565 S
C1569 C1570 1.396 1_565 S
C1569 C1574 1.390 . S
C1570 C1564 1.465 . S
C1570 C1569 1.396 1_545 S
C1570 C1571 1.399 1_545 S
C1571 H1557 0.929 1_565 S
C1571 C1570 1.399 1_565 S
C1571 C1572 1.385 . S
C1572 H1558 0.931 . S
C1572 C1571 1.385 . S
C1572 C1573 1.389 . S
C1573 C1572 1.389 . S
C1573 C1574 1.387 . S
C1574 H1559 0.930 . S
C1574 C1569 1.390 . S
C1574 C1573 1.387 . S
H1575 C1587 0.930 . S
H1576 C1589 0.930 . S
H1577 C1590 0.930 . S
H1578 C1594 0.959 . S
H1579 C1594 0.959 . S
H1580 C1594 0.961 . S
H1581 C1595 0.960 . S
H1582 C1595 0.961 . S
H1583 C1595 0.959 . S
H1584 C1598 0.929 . S
H1585 C1599 0.931 . S
H1586 C1601 0.930 . S
C1587 H1575 0.930 . S
C1587 C1588 1.399 . S
C1587 C1592 1.399 1_455 S
C1588 C1587 1.399 . S
C1588 C1589 1.376 . S
C1589 H1576 0.930 . S
C1589 C1588 1.376 . S
C1589 C1590 1.388 . S
C1590 H1577 0.930 . S
C1590 C1589 1.388 . S
C1590 C1591 1.390 1_455 S
C1591 C1590 1.390 1_655 S
C1591 C1592 1.394 . S
C1591 C1597 1.465 . S
C1592 C1587 1.399 1_655 S
C1592 C1591 1.394 . S
C1592 C1593 1.516 . S
C1593 C1592 1.516 . S
C1593 C1594 1.502 . S
C1593 C1595 1.561 . S
C1593 C1596 1.526 . S
C1594 H1578 0.959 . S
C1594 H1579 0.959 . S
C1594 H1580 0.961 . S
C1594 C1593 1.502 . S
C1595 H1581 0.960 . S
C1595 H1582 0.961 . S
C1595 H1583 0.959 . S
C1595 C1593 1.561 . S
C1596 C1593 1.526 . S
C1596 C1597 1.396 . S
C1596 C1601 1.390 . S
C1597 C1591 1.465 . S
C1597 C1596 1.396 . S
C1597 C1598 1.399 . S
C1598 H1584 0.929 . S
C1598 C1597 1.399 . S
C1598 C1599 1.385 . S
C1599 H1585 0.931 . S
C1599 C1598 1.385 . S
C1599 C1600 1.389 . S
C1600 C1599 1.389 . S
C1600 C1601 1.387 . S
C1601 H1586 0.930 . S
C1601 C1596 1.390 . S
C1601 C1600 1.387 . S
H1602 C1614 0.930 . S
H1603 C1616 0.930 . S
H1604 C1617 0.930 . S
H1605 C1621 0.959 . S
H1606 C1621 0.959 . S
H1607 C1621 0.961 . S
H1608 C1622 0.960 . S
H1609 C1622 0.961 . S
H1610 C1622 0.959 . S
H1611 C1625 0.929 . S
H1612 C1626 0.931 . S
H1613 C1628 0.930 . S
C1614 H1602 0.930 . S
C1614 C1615 1.399 . S
C1614 C1619 1.399 . S
C1615 C1614 1.399 . S
C1615 C1616 1.376 . S
C1616 H1603 0.930 . S
C1616 C1615 1.376 . S
C1616 C1617 1.388 . S
C1617 H1604 0.930 . S
C1617 C1616 1.388 . S
C1617 C1618 1.390 . S
C1618 C1617 1.390 . S
C1618 C1619 1.394 . S
C1618 C1624 1.465 . S
C1619 C1614 1.399 . S
C1619 C1618 1.394 . S
C1619 C1620 1.516 . S
C1620 C1619 1.516 . S
C1620 C1621 1.502 . S
C1620 C1622 1.561 . S
C1620 C1623 1.526 . S
C1621 H1605 0.959 . S
C1621 H1606 0.959 . S
C1621 H1607 0.961 . S
C1621 C1620 1.502 . S
C1622 H1608 0.960 . S
C1622 H1609 0.961 . S
C1622 H1610 0.959 . S
C1622 C1620 1.561 . S
C1623 C1620 1.526 . S
C1623 C1624 1.396 . S
C1623 C1628 1.390 . S
C1624 C1618 1.465 . S
C1624 C1623 1.396 . S
C1624 C1625 1.399 . S
C1625 H1611 0.929 . S
C1625 C1624 1.399 . S
C1625 C1626 1.385 . S
C1626 H1612 0.931 . S
C1626 C1625 1.385 . S
C1626 C1627 1.389 . S
C1627 C1626 1.389 . S
C1627 C1628 1.387 . S
C1628 H1613 0.930 . S
C1628 C1623 1.390 . S
C1628 C1627 1.387 . S
H1629 C1641 0.930 . S
H1630 C1643 0.930 . S
H1631 C1644 0.946 . S
H1632 C1648 0.959 . S
H1633 C1648 0.959 . S
H1634 C1648 0.961 . S
H1635 C1649 0.960 1_565 S
H1636 C1649 0.961 . S
H1637 C1649 0.959 . S
H1638 C1652 0.929 . S
H1639 C1653 0.931 . S
H1640 C1655 0.930 . S
C1641 H1629 0.930 . S
C1641 C1642 1.399 . S
C1641 C1646 1.399 . S
C1642 C1641 1.399 . S
C1642 C1643 1.376 . S
C1643 H1630 0.930 . S
C1643 C1642 1.376 . S
C1643 C1644 1.388 . S
C1644 H1631 0.946 . S
C1644 C1643 1.388 . S
C1644 C1645 1.390 1_565 S
C1645 C1644 1.390 1_545 S
C1645 C1646 1.394 1_545 S
C1645 C1651 1.465 . S
C1646 C1641 1.399 . S
C1646 C1645 1.394 1_565 S
C1646 C1647 1.516 1_565 S
C1647 C1646 1.516 1_545 S
C1647 C1648 1.502 . S
C1647 C1649 1.561 . S
C1647 C1650 1.526 . S
C1648 H1632 0.959 . S
C1648 H1633 0.959 . S
C1648 H1634 0.961 . S
C1648 C1647 1.502 . S
C1649 H1635 0.960 1_545 S
C1649 H1636 0.961 . S
C1649 H1637 0.959 . S
C1649 C1647 1.561 . S
C1650 C1647 1.526 . S
C1650 C1651 1.396 . S
C1650 C1655 1.390 . S
C1651 C1645 1.465 . S
C1651 C1650 1.396 . S
C1651 C1652 1.399 . S
C1652 H1638 0.929 . S
C1652 C1651 1.399 . S
C1652 C1653 1.385 . S
C1653 H1639 0.931 . S
C1653 C1652 1.385 . S
C1653 C1654 1.389 . S
C1654 C1653 1.389 . S
C1654 C1655 1.387 . S
C1655 H1640 0.930 . S
C1655 C1650 1.390 . S
C1655 C1654 1.387 . S
H1656 C1668 0.930 . S
H1657 C1670 0.930 . S
H1658 C1671 0.921 1_655 S
H1659 C1675 0.959 . S
H1660 C1675 0.959 . S
H1661 C1675 0.961 1_455 S
H1662 C1676 0.960 . S
H1663 C1676 0.961 . S
H1664 C1676 0.959 . S
H1665 C1679 0.929 . S
H1666 C1680 0.931 . S
H1667 C1682 0.930 . S
C1668 H1656 0.930 . S
C1668 C1669 1.399 . S
C1668 C1673 1.399 . S
C1669 C1668 1.399 . S
C1669 C1670 1.376 . S
C1670 H1657 0.930 . S
C1670 C1669 1.376 . S
C1670 C1671 1.388 . S
C1671 H1658 0.921 1_455 S
C1671 C1670 1.388 . S
C1671 C1672 1.390 1_455 S
C1672 C1671 1.390 1_655 S
C1672 C1673 1.394 1_655 S
C1672 C1678 1.465 . S
C1673 C1668 1.399 . S
C1673 C1672 1.394 1_455 S
C1673 C1674 1.516 1_455 S
C1674 C1673 1.516 1_655 S
C1674 C1675 1.502 . S
C1674 C1676 1.561 . S
C1674 C1677 1.526 . S
C1675 H1659 0.959 . S
C1675 H1660 0.959 . S
C1675 H1661 0.961 1_655 S
C1675 C1674 1.502 . S
C1676 H1662 0.960 . S
C1676 H1663 0.961 . S
C1676 H1664 0.959 . S
C1676 C1674 1.561 . S
C1677 C1674 1.526 . S
C1677 C1678 1.396 . S
C1677 C1682 1.390 . S
C1678 C1672 1.465 . S
C1678 C1677 1.396 . S
C1678 C1679 1.399 . S
C1679 H1665 0.929 . S
C1679 C1678 1.399 . S
C1679 C1680 1.385 . S
C1680 H1666 0.931 . S
C1680 C1679 1.385 . S
C1680 C1681 1.389 . S
C1681 C1680 1.389 . S
C1681 C1682 1.387 . S
C1682 H1667 0.930 . S
C1682 C1677 1.390 . S
C1682 C1681 1.387 . S
H1683 C1695 0.930 . S
H1684 C1697 0.930 . S
H1685 C1698 0.930 . S
H1686 C1702 0.959 . S
H1687 C1702 0.959 . S
H1688 C1702 0.961 . S
H1689 C1703 0.960 . S
H1690 C1703 0.961 . S
H1691 C1703 0.959 . S
H1692 C1706 0.929 . S
H1693 C1707 0.931 . S
H1694 C1709 0.930 . S
C1695 H1683 0.930 . S
C1695 C1696 1.399 . S
C1695 C1700 1.399 . S
C1696 C1695 1.399 . S
C1696 C1697 1.376 . S
C1697 H1684 0.930 . S
C1697 C1696 1.376 . S
C1697 C1698 1.388 . S
C1698 H1685 0.930 . S
C1698 C1697 1.388 . S
C1698 C1699 1.390 . S
C1699 C1698 1.390 . S
C1699 C1700 1.394 . S
C1699 C1705 1.465 . S
C1700 C1695 1.399 . S
C1700 C1699 1.394 . S
C1700 C1701 1.516 . S
C1701 C1700 1.516 . S
C1701 C1702 1.502 . S
C1701 C1703 1.561 . S
C1701 C1704 1.526 . S
C1702 H1686 0.959 . S
C1702 H1687 0.959 . S
C1702 H1688 0.961 . S
C1702 C1701 1.502 . S
C1703 H1689 0.960 . S
C1703 H1690 0.961 . S
C1703 H1691 0.959 . S
C1703 C1701 1.561 . S
C1704 C1701 1.526 . S
C1704 C1705 1.396 . S
C1704 C1709 1.390 . S
C1705 C1699 1.465 . S
C1705 C1704 1.396 . S
C1705 C1706 1.399 . S
C1706 H1692 0.929 . S
C1706 C1705 1.399 . S
C1706 C1707 1.385 . S
C1707 H1693 0.931 . S
C1707 C1706 1.385 . S
C1707 C1708 1.389 . S
C1708 C1707 1.389 . S
C1708 C1709 1.387 . S
C1709 H1694 0.930 . S
C1709 C1704 1.390 . S
C1709 C1708 1.387 . S
H1710 C1722 0.930 . S
H1711 C1724 0.930 . S
H1712 C1725 0.930 . S
H1713 C1729 0.959 . S
H1714 C1729 0.959 . S
H1715 C1729 0.961 . S
H1716 C1730 0.960 . S
H1717 C1730 0.961 . S
H1718 C1730 0.959 . S
H1719 C1733 0.929 . S
H1720 C1734 0.931 . S
H1721 C1736 0.930 . S
C1722 H1710 0.930 . S
C1722 C1723 1.399 . S
C1722 C1727 1.399 1_545 S
C1723 C1722 1.399 . S
C1723 C1724 1.376 . S
C1724 H1711 0.930 . S
C1724 C1723 1.376 . S
C1724 C1725 1.388 . S
C1725 H1712 0.930 . S
C1725 C1724 1.388 . S
C1725 C1726 1.390 1_545 S
C1726 C1725 1.390 1_565 S
C1726 C1727 1.394 . S
C1726 C1732 1.465 . S
C1727 C1722 1.399 1_565 S
C1727 C1726 1.394 . S
C1727 C1728 1.516 . S
C1728 C1727 1.516 . S
C1728 C1729 1.502 . S
C1728 C1730 1.561 . S
C1728 C1731 1.526 . S
C1729 H1713 0.959 . S
C1729 H1714 0.959 . S
C1729 H1715 0.961 . S
C1729 C1728 1.502 . S
C1730 H1716 0.960 . S
C1730 H1717 0.961 . S
C1730 H1718 0.959 . S
C1730 C1728 1.561 . S
C1731 C1728 1.526 . S
C1731 C1732 1.396 . S
C1731 C1736 1.390 . S
C1732 C1726 1.465 . S
C1732 C1731 1.396 . S
C1732 C1733 1.399 . S
C1733 H1719 0.929 . S
C1733 C1732 1.399 . S
C1733 C1734 1.385 . S
C1734 H1720 0.931 . S
C1734 C1733 1.385 . S
C1734 C1735 1.389 . S
C1735 C1734 1.389 . S
C1735 C1736 1.387 . S
C1736 H1721 0.930 . S
C1736 C1731 1.390 . S
C1736 C1735 1.387 . S
H1737 C1749 0.930 . S
H1738 C1751 0.930 . S
H1739 C1752 0.930 . S
H1740 C1756 0.959 . S
H1741 C1756 0.959 . S
H1742 C1756 0.961 . S
H1743 C1757 0.960 . S
H1744 C1757 0.961 . S
H1745 C1757 0.959 . S
H1746 C1760 0.929 . S
H1747 C1761 0.931 . S
H1748 C1763 0.930 . S
C1749 H1737 0.930 . S
C1749 C1750 1.399 . S
C1749 C1754 1.399 . S
C1750 C1749 1.399 . S
C1750 C1751 1.376 . S
C1751 H1738 0.930 . S
C1751 C1750 1.376 . S
C1751 C1752 1.388 . S
C1752 H1739 0.930 . S
C1752 C1751 1.388 . S
C1752 C1753 1.390 . S
C1753 C1752 1.390 . S
C1753 C1754 1.394 . S
C1753 C1759 1.465 . S
C1754 C1749 1.399 . S
C1754 C1753 1.394 . S
C1754 C1755 1.516 . S
C1755 C1754 1.516 . S
C1755 C1756 1.502 . S
C1755 C1757 1.561 . S
C1755 C1758 1.526 . S
C1756 H1740 0.959 . S
C1756 H1741 0.959 . S
C1756 H1742 0.961 . S
C1756 C1755 1.502 . S
C1757 H1743 0.960 . S
C1757 H1744 0.961 . S
C1757 H1745 0.959 . S
C1757 C1755 1.561 . S
C1758 C1755 1.526 . S
C1758 C1759 1.396 . S
C1758 C1763 1.390 1_455 S
C1759 C1753 1.465 . S
C1759 C1758 1.396 . S
C1759 C1760 1.399 1_455 S
C1760 H1746 0.929 . S
C1760 C1759 1.399 1_655 S
C1760 C1761 1.385 . S
C1761 H1747 0.931 . S
C1761 C1760 1.385 . S
C1761 C1762 1.389 . S
C1762 C1761 1.389 . S
C1762 C1763 1.387 . S
C1763 H1748 0.930 . S
C1763 C1758 1.390 1_655 S
C1763 C1762 1.387 . S
H1764 C1776 0.930 . S
H1765 C1778 0.930 . S
H1766 C1779 0.930 . S
H1767 C1783 0.959 . S
H1768 C1783 0.959 . S
H1769 C1783 0.961 . S
H1770 C1784 0.960 . S
H1771 C1784 0.961 . S
H1772 C1784 0.959 . S
H1773 C1787 0.929 . S
H1774 C1788 0.931 . S
H1775 C1790 0.930 . S
C1776 H1764 0.930 . S
C1776 C1777 1.399 . S
C1776 C1781 1.399 . S
C1777 C1776 1.399 . S
C1777 C1778 1.376 . S
C1778 H1765 0.930 . S
C1778 C1777 1.376 . S
C1778 C1779 1.388 . S
C1779 H1766 0.930 . S
C1779 C1778 1.388 . S
C1779 C1780 1.390 . S
C1780 C1779 1.390 . S
C1780 C1781 1.394 . S
C1780 C1786 1.465 . S
C1781 C1776 1.399 . S
C1781 C1780 1.394 . S
C1781 C1782 1.516 . S
C1782 C1781 1.516 . S
C1782 C1783 1.502 . S
C1782 C1784 1.561 . S
C1782 C1785 1.526 . S
C1783 H1767 0.959 . S
C1783 H1768 0.959 . S
C1783 H1769 0.961 . S
C1783 C1782 1.502 . S
C1784 H1770 0.960 . S
C1784 H1771 0.961 . S
C1784 H1772 0.959 . S
C1784 C1782 1.561 . S
C1785 C1782 1.526 . S
C1785 C1786 1.396 . S
C1785 C1790 1.390 . S
C1786 C1780 1.465 . S
C1786 C1785 1.396 . S
C1786 C1787 1.399 . S
C1787 H1773 0.929 . S
C1787 C1786 1.399 . S
C1787 C1788 1.385 . S
C1788 H1774 0.931 . S
C1788 C1787 1.385 . S
C1788 C1789 1.389 . S
C1789 C1788 1.389 . S
C1789 C1790 1.387 . S
C1790 H1775 0.930 . S
C1790 C1785 1.390 . S
C1790 C1789 1.387 . S
H1791 C1803 0.930 . S
H1792 C1805 0.930 . S
H1793 C1806 0.930 . S
H1794 C1810 0.959 . S
H1795 C1810 0.959 . S
H1796 C1810 0.961 . S
H1797 C1811 0.960 . S
H1798 C1811 0.961 . S
H1799 C1811 0.959 . S
H1800 C1814 0.929 . S
H1801 C1815 0.931 . S
H1802 C1817 0.930 . S
C1803 H1791 0.930 . S
C1803 C1804 1.399 . S
C1803 C1808 1.399 . S
C1804 C1803 1.399 . S
C1804 C1805 1.376 . S
C1805 H1792 0.930 . S
C1805 C1804 1.376 . S
C1805 C1806 1.388 . S
C1806 H1793 0.930 . S
C1806 C1805 1.388 . S
C1806 C1807 1.390 . S
C1807 C1806 1.390 . S
C1807 C1808 1.394 . S
C1807 C1813 1.465 . S
C1808 C1803 1.399 . S
C1808 C1807 1.394 . S
C1808 C1809 1.516 . S
C1809 C1808 1.516 . S
C1809 C1810 1.502 . S
C1809 C1811 1.561 . S
C1809 C1812 1.526 . S
C1810 H1794 0.959 . S
C1810 H1795 0.959 . S
C1810 H1796 0.961 . S
C1810 C1809 1.502 . S
C1811 H1797 0.960 . S
C1811 H1798 0.961 . S
C1811 H1799 0.959 . S
C1811 C1809 1.561 . S
C1812 C1809 1.526 . S
C1812 C1813 1.396 . S
C1812 C1817 1.390 . S
C1813 C1807 1.465 . S
C1813 C1812 1.396 . S
C1813 C1814 1.399 . S
C1814 H1800 0.929 . S
C1814 C1813 1.399 . S
C1814 C1815 1.385 . S
C1815 H1801 0.931 . S
C1815 C1814 1.385 . S
C1815 C1816 1.389 . S
C1816 C1815 1.389 . S
C1816 C1817 1.387 . S
C1817 H1802 0.930 . S
C1817 C1812 1.390 . S
C1817 C1816 1.387 . S
H1818 C1830 0.930 . S
H1819 C1832 0.930 . S
H1820 C1833 0.930 . S
H1821 C1837 0.959 . S
H1822 C1837 0.959 . S
H1823 C1837 0.961 . S
H1824 C1838 0.960 . S
H1825 C1838 0.961 . S
H1826 C1838 0.959 . S
H1827 C1841 0.929 . S
H1828 C1842 0.931 . S
H1829 C1844 0.930 . S
C1830 H1818 0.930 . S
C1830 C1831 1.399 . S
C1830 C1835 1.399 . S
C1831 C1830 1.399 . S
C1831 C1832 1.376 . S
C1832 H1819 0.930 . S
C1832 C1831 1.376 . S
C1832 C1833 1.388 . S
C1833 H1820 0.930 . S
C1833 C1832 1.388 . S
C1833 C1834 1.390 . S
C1834 C1833 1.390 . S
C1834 C1835 1.394 . S
C1834 C1840 1.465 . S
C1835 C1830 1.399 . S
C1835 C1834 1.394 . S
C1835 C1836 1.516 . S
C1836 C1835 1.516 . S
C1836 C1837 1.502 . S
C1836 C1838 1.561 . S
C1836 C1839 1.526 . S
C1837 H1821 0.959 . S
C1837 H1822 0.959 . S
C1837 H1823 0.961 . S
C1837 C1836 1.502 . S
C1838 H1824 0.960 . S
C1838 H1825 0.961 . S
C1838 H1826 0.959 . S
C1838 C1836 1.561 . S
C1839 C1836 1.526 . S
C1839 C1840 1.396 . S
C1839 C1844 1.390 . S
C1840 C1834 1.465 . S
C1840 C1839 1.396 . S
C1840 C1841 1.399 . S
C1841 H1827 0.929 . S
C1841 C1840 1.399 . S
C1841 C1842 1.385 . S
C1842 H1828 0.931 . S
C1842 C1841 1.385 . S
C1842 C1843 1.389 . S
C1843 C1842 1.389 . S
C1843 C1844 1.387 . S
C1844 H1829 0.930 . S
C1844 C1839 1.390 . S
C1844 C1843 1.387 . S
H1845 C1857 0.930 . S
H1846 C1859 0.930 . S
H1847 C1860 0.930 . S
H1848 C1864 0.959 . S
H1849 C1864 0.959 . S
H1850 C1864 0.961 . S
H1851 C1865 0.960 . S
H1852 C1865 0.961 . S
H1853 C1865 0.959 . S
H1854 C1868 0.929 . S
H1855 C1869 0.931 . S
H1856 C1871 0.930 . S
C1857 H1845 0.930 . S
C1857 C1858 1.399 . S
C1857 C1862 1.399 . S
C1858 C1857 1.399 . S
C1858 C1859 1.376 . S
C1859 H1846 0.930 . S
C1859 C1858 1.376 . S
C1859 C1860 1.388 . S
C1860 H1847 0.930 . S
C1860 C1859 1.388 . S
C1860 C1861 1.390 . S
C1861 C1860 1.390 . S
C1861 C1862 1.394 . S
C1861 C1867 1.465 . S
C1862 C1857 1.399 . S
C1862 C1861 1.394 . S
C1862 C1863 1.516 . S
C1863 C1862 1.516 . S
C1863 C1864 1.502 . S
C1863 C1865 1.561 . S
C1863 C1866 1.526 . S
C1864 H1848 0.959 . S
C1864 H1849 0.959 . S
C1864 H1850 0.961 . S
C1864 C1863 1.502 . S
C1865 H1851 0.960 . S
C1865 H1852 0.961 . S
C1865 H1853 0.959 . S
C1865 C1863 1.561 . S
C1866 C1863 1.526 . S
C1866 C1867 1.396 . S
C1866 C1871 1.390 . S
C1867 C1861 1.465 . S
C1867 C1866 1.396 . S
C1867 C1868 1.399 . S
C1868 H1854 0.929 . S
C1868 C1867 1.399 . S
C1868 C1869 1.385 . S
C1869 H1855 0.931 . S
C1869 C1868 1.385 . S
C1869 C1870 1.389 . S
C1870 C1869 1.389 . S
C1870 C1871 1.387 . S
C1871 H1856 0.930 . S
C1871 C1866 1.390 . S
C1871 C1870 1.387 . S
H1872 C1884 0.930 . S
H1873 C1886 0.930 . S
H1874 C1887 0.930 . S
H1875 C1891 0.959 . S
H1876 C1891 0.959 . S
H1877 C1891 0.961 . S
H1878 C1892 0.960 . S
H1879 C1892 0.961 . S
H1880 C1892 0.959 . S
H1881 C1895 0.929 . S
H1882 C1896 0.931 . S
H1883 C1898 0.930 . S
C1884 H1872 0.930 . S
C1884 C1885 1.399 . S
C1884 C1889 1.399 . S
C1885 C1884 1.399 . S
C1885 C1886 1.376 . S
C1886 H1873 0.930 . S
C1886 C1885 1.376 . S
C1886 C1887 1.388 . S
C1887 H1874 0.930 . S
C1887 C1886 1.388 . S
C1887 C1888 1.390 . S
C1888 C1887 1.390 . S
C1888 C1889 1.394 . S
C1888 C1894 1.465 . S
C1889 C1884 1.399 . S
C1889 C1888 1.394 . S
C1889 C1890 1.516 . S
C1890 C1889 1.516 . S
C1890 C1891 1.502 . S
C1890 C1892 1.561 . S
C1890 C1893 1.526 . S
C1891 H1875 0.959 . S
C1891 H1876 0.959 . S
C1891 H1877 0.961 . S
C1891 C1890 1.502 . S
C1892 H1878 0.960 . S
C1892 H1879 0.961 . S
C1892 H1880 0.959 . S
C1892 C1890 1.561 . S
C1893 C1890 1.526 . S
C1893 C1894 1.396 . S
C1893 C1898 1.390 . S
C1894 C1888 1.465 . S
C1894 C1893 1.396 . S
C1894 C1895 1.399 . S
C1895 H1881 0.929 . S
C1895 C1894 1.399 . S
C1895 C1896 1.385 . S
C1896 H1882 0.931 . S
C1896 C1895 1.385 . S
C1896 C1897 1.389 . S
C1897 C1896 1.389 . S
C1897 C1898 1.387 . S
C1898 H1883 0.930 . S
C1898 C1893 1.390 . S
C1898 C1897 1.387 . S
H1899 C1911 0.930 . S
H1900 C1913 0.930 . S
H1901 C1914 0.930 . S
H1902 C1918 0.959 . S
H1903 C1918 0.959 . S
H1904 C1918 0.961 . S
H1905 C1919 0.960 . S
H1906 C1919 0.961 . S
H1907 C1919 0.959 . S
H1908 C1922 0.929 . S
H1909 C1923 0.931 . S
H1910 C1925 0.930 . S
C1911 H1899 0.930 . S
C1911 C1912 1.399 . S
C1911 C1916 1.399 . S
C1912 C1911 1.399 . S
C1912 C1913 1.376 . S
C1913 H1900 0.930 . S
C1913 C1912 1.376 . S
C1913 C1914 1.388 . S
C1914 H1901 0.930 . S
C1914 C1913 1.388 . S
C1914 C1915 1.390 . S
C1915 C1914 1.390 . S
C1915 C1916 1.394 . S
C1915 C1921 1.465 . S
C1916 C1911 1.399 . S
C1916 C1915 1.394 . S
C1916 C1917 1.516 . S
C1917 C1916 1.516 . S
C1917 C1918 1.502 . S
C1917 C1919 1.561 . S
C1917 C1920 1.526 . S
C1918 H1902 0.959 . S
C1918 H1903 0.959 . S
C1918 H1904 0.961 . S
C1918 C1917 1.502 . S
C1919 H1905 0.960 . S
C1919 H1906 0.961 . S
C1919 H1907 0.959 . S
C1919 C1917 1.561 . S
C1920 C1917 1.526 . S
C1920 C1921 1.396 . S
C1920 C1925 1.390 . S
C1921 C1915 1.465 . S
C1921 C1920 1.396 . S
C1921 C1922 1.399 . S
C1922 H1908 0.929 . S
C1922 C1921 1.399 . S
C1922 C1923 1.385 . S
C1923 H1909 0.931 . S
C1923 C1922 1.385 . S
C1923 C1924 1.389 . S
C1924 C1923 1.389 . S
C1924 C1925 1.387 . S
C1925 H1910 0.930 . S
C1925 C1920 1.390 . S
C1925 C1924 1.387 . S
H1926 C1938 0.930 . S
H1927 C1940 0.930 . S
H1928 C1941 0.930 . S
H1929 C1945 0.959 . S
H1930 C1945 0.959 . S
H1931 C1945 0.961 . S
H1932 C1946 0.960 . S
H1933 C1946 0.961 . S
H1934 C1946 0.959 . S
H1935 C1949 0.929 . S
H1936 C1950 0.931 . S
H1937 C1952 0.930 . S
C1938 H1926 0.930 . S
C1938 C1939 1.399 . S
C1938 C1943 1.399 . S
C1939 C1938 1.399 . S
C1939 C1940 1.376 . S
C1940 H1927 0.930 . S
C1940 C1939 1.376 . S
C1940 C1941 1.388 . S
C1941 H1928 0.930 . S
C1941 C1940 1.388 . S
C1941 C1942 1.390 . S
C1942 C1941 1.390 . S
C1942 C1943 1.394 . S
C1942 C1948 1.465 . S
C1943 C1938 1.399 . S
C1943 C1942 1.394 . S
C1943 C1944 1.516 . S
C1944 C1943 1.516 . S
C1944 C1945 1.502 . S
C1944 C1946 1.561 . S
C1944 C1947 1.526 . S
C1945 H1929 0.959 . S
C1945 H1930 0.959 . S
C1945 H1931 0.961 . S
C1945 C1944 1.502 . S
C1946 H1932 0.960 . S
C1946 H1933 0.961 . S
C1946 H1934 0.959 . S
C1946 C1944 1.561 . S
C1947 C1944 1.526 . S
C1947 C1948 1.396 . S
C1947 C1952 1.390 . S
C1948 C1942 1.465 . S
C1948 C1947 1.396 . S
C1948 C1949 1.399 . S
C1949 H1935 0.929 . S
C1949 C1948 1.399 . S
C1949 C1950 1.385 . S
C1950 H1936 0.931 . S
C1950 C1949 1.385 . S
C1950 C1951 1.389 . S
C1951 C1950 1.389 . S
C1951 C1952 1.387 . S
C1952 H1937 0.930 . S
C1952 C1947 1.390 . S
C1952 C1951 1.387 . S
H1953 C1965 0.930 . S
H1954 C1967 0.930 . S
H1955 C1968 0.930 . S
H1956 C1972 0.959 . S
H1957 C1972 0.959 . S
H1958 C1972 0.961 . S
H1959 C1973 0.960 . S
H1960 C1973 0.961 . S
H1961 C1973 0.959 . S
H1962 C1976 0.929 . S
H1963 C1977 0.931 . S
H1964 C1979 0.930 . S
C1965 H1953 0.930 . S
C1965 C1966 1.399 . S
C1965 C1970 1.399 . S
C1966 C1965 1.399 . S
C1966 C1967 1.376 . S
C1967 H1954 0.930 . S
C1967 C1966 1.376 . S
C1967 C1968 1.388 . S
C1968 H1955 0.930 . S
C1968 C1967 1.388 . S
C1968 C1969 1.390 . S
C1969 C1968 1.390 . S
C1969 C1970 1.394 . S
C1969 C1975 1.465 . S
C1970 C1965 1.399 . S
C1970 C1969 1.394 . S
C1970 C1971 1.516 . S
C1971 C1970 1.516 . S
C1971 C1972 1.502 . S
C1971 C1973 1.561 . S
C1971 C1974 1.526 . S
C1972 H1956 0.959 . S
C1972 H1957 0.959 . S
C1972 H1958 0.961 . S
C1972 C1971 1.502 . S
C1973 H1959 0.960 . S
C1973 H1960 0.961 . S
C1973 H1961 0.959 . S
C1973 C1971 1.561 . S
C1974 C1971 1.526 . S
C1974 C1975 1.396 . S
C1974 C1979 1.390 . S
C1975 C1969 1.465 . S
C1975 C1974 1.396 . S
C1975 C1976 1.399 . S
C1976 H1962 0.929 . S
C1976 C1975 1.399 . S
C1976 C1977 1.385 . S
C1977 H1963 0.931 . S
C1977 C1976 1.385 . S
C1977 C1978 1.389 . S
C1978 C1977 1.389 . S
C1978 C1979 1.387 . S
C1979 H1964 0.930 . S
C1979 C1974 1.390 . S
C1979 C1978 1.387 . S
H1980 C1992 0.930 . S
H1981 C1994 0.930 . S
H1982 C1995 0.930 . S
H1983 C1999 0.959 . S
H1984 C1999 0.959 . S
H1985 C1999 0.961 . S
H1986 C2000 0.960 . S
H1987 C2000 0.961 . S
H1988 C2000 0.959 . S
H1989 C2003 0.929 . S
H1990 C2004 0.931 . S
H1991 C2006 0.930 . S
C1992 H1980 0.930 . S
C1992 C1993 1.399 . S
C1992 C1997 1.399 . S
C1993 C1992 1.399 . S
C1993 C1994 1.376 . S
C1994 H1981 0.930 . S
C1994 C1993 1.376 . S
C1994 C1995 1.388 . S
C1995 H1982 0.930 . S
C1995 C1994 1.388 . S
C1995 C1996 1.390 . S
C1996 C1995 1.390 . S
C1996 C1997 1.394 . S
C1996 C2002 1.465 . S
C1997 C1992 1.399 . S
C1997 C1996 1.394 . S
C1997 C1998 1.516 . S
C1998 C1997 1.516 . S
C1998 C1999 1.502 . S
C1998 C2000 1.561 . S
C1998 C2001 1.526 . S
C1999 H1983 0.959 . S
C1999 H1984 0.959 . S
C1999 H1985 0.961 . S
C1999 C1998 1.502 . S
C2000 H1986 0.960 . S
C2000 H1987 0.961 . S
C2000 H1988 0.959 . S
C2000 C1998 1.561 . S
C2001 C1998 1.526 . S
C2001 C2002 1.396 . S
C2001 C2006 1.390 . S
C2002 C1996 1.465 . S
C2002 C2001 1.396 . S
C2002 C2003 1.399 . S
C2003 H1989 0.929 . S
C2003 C2002 1.399 . S
C2003 C2004 1.385 . S
C2004 H1990 0.931 . S
C2004 C2003 1.385 . S
C2004 C2005 1.389 . S
C2005 C2004 1.389 . S
C2005 C2006 1.387 . S
C2006 H1991 0.930 . S
C2006 C2001 1.390 . S
C2006 C2005 1.387 . S
H2007 C2019 0.930 . S
H2008 C2021 0.930 . S
H2009 C2022 0.930 . S
H2010 C2026 0.959 . S
H2011 C2026 0.959 . S
H2012 C2026 0.961 . S
H2013 C2027 0.960 . S
H2014 C2027 0.961 . S
H2015 C2027 0.959 . S
H2016 C2030 0.929 . S
H2017 C2031 0.931 . S
H2018 C2033 0.930 . S
C2019 H2007 0.930 . S
C2019 C2020 1.399 . S
C2019 C2024 1.399 . S
C2020 C2019 1.399 . S
C2020 C2021 1.376 . S
C2021 H2008 0.930 . S
C2021 C2020 1.376 . S
C2021 C2022 1.388 . S
C2022 H2009 0.930 . S
C2022 C2021 1.388 . S
C2022 C2023 1.390 . S
C2023 C2022 1.390 . S
C2023 C2024 1.394 . S
C2023 C2029 1.465 . S
C2024 C2019 1.399 . S
C2024 C2023 1.394 . S
C2024 C2025 1.516 . S
C2025 C2024 1.516 . S
C2025 C2026 1.502 . S
C2025 C2027 1.561 . S
C2025 C2028 1.526 . S
C2026 H2010 0.959 . S
C2026 H2011 0.959 . S
C2026 H2012 0.961 . S
C2026 C2025 1.502 . S
C2027 H2013 0.960 . S
C2027 H2014 0.961 . S
C2027 H2015 0.959 . S
C2027 C2025 1.561 . S
C2028 C2025 1.526 . S
C2028 C2029 1.396 . S
C2028 C2033 1.390 . S
C2029 C2023 1.465 . S
C2029 C2028 1.396 . S
C2029 C2030 1.399 . S
C2030 H2016 0.929 . S
C2030 C2029 1.399 . S
C2030 C2031 1.385 . S
C2031 H2017 0.931 . S
C2031 C2030 1.385 . S
C2031 C2032 1.389 . S
C2032 C2031 1.389 . S
C2032 C2033 1.387 . S
C2033 H2018 0.930 . S
C2033 C2028 1.390 . S
C2033 C2032 1.387 . S
H2034 C2046 0.930 . S
H2035 C2048 0.930 . S
H2036 C2049 0.930 . S
H2037 C2053 0.959 . S
H2038 C2053 0.959 . S
H2039 C2053 0.961 . S
H2040 C2054 0.960 . S
H2041 C2054 0.961 . S
H2042 C2054 0.959 . S
H2043 C2057 0.929 . S
H2044 C2058 0.931 . S
H2045 C2060 0.930 . S
C2046 H2034 0.930 . S
C2046 C2047 1.399 . S
C2046 C2051 1.399 . S
C2047 C2046 1.399 . S
C2047 C2048 1.376 . S
C2048 H2035 0.930 . S
C2048 C2047 1.376 . S
C2048 C2049 1.388 . S
C2049 H2036 0.930 . S
C2049 C2048 1.388 . S
C2049 C2050 1.390 . S
C2050 C2049 1.390 . S
C2050 C2051 1.394 . S
C2050 C2056 1.465 . S
C2051 C2046 1.399 . S
C2051 C2050 1.394 . S
C2051 C2052 1.516 . S
C2052 C2051 1.516 . S
C2052 C2053 1.502 . S
C2052 C2054 1.561 . S
C2052 C2055 1.526 . S
C2053 H2037 0.959 . S
C2053 H2038 0.959 . S
C2053 H2039 0.961 . S
C2053 C2052 1.502 . S
C2054 H2040 0.960 . S
C2054 H2041 0.961 . S
C2054 H2042 0.959 . S
C2054 C2052 1.561 . S
C2055 C2052 1.526 . S
C2055 C2056 1.396 . S
C2055 C2060 1.390 . S
C2056 C2050 1.465 . S
C2056 C2055 1.396 . S
C2056 C2057 1.399 . S
C2057 H2043 0.929 . S
C2057 C2056 1.399 . S
C2057 C2058 1.385 . S
C2058 H2044 0.931 . S
C2058 C2057 1.385 . S
C2058 C2059 1.389 . S
C2059 C2058 1.389 . S
C2059 C2060 1.387 . S
C2060 H2045 0.930 . S
C2060 C2055 1.390 . S
C2060 C2059 1.387 . S
H2061 C2073 0.930 . S
H2062 C2075 0.930 . S
H2063 C2076 0.930 . S
H2064 C2080 0.959 . S
H2065 C2080 0.959 . S
H2066 C2080 0.961 . S
H2067 C2081 0.960 . S
H2068 C2081 0.961 . S
H2069 C2081 0.959 . S
H2070 C2084 0.929 . S
H2071 C2085 0.931 . S
H2072 C2087 0.930 . S
C2073 H2061 0.930 . S
C2073 C2074 1.399 . S
C2073 C2078 1.399 . S
C2074 C2073 1.399 . S
C2074 C2075 1.376 . S
C2075 H2062 0.930 . S
C2075 C2074 1.376 . S
C2075 C2076 1.388 . S
C2076 H2063 0.930 . S
C2076 C2075 1.388 . S
C2076 C2077 1.390 . S
C2077 C2076 1.390 . S
C2077 C2078 1.394 . S
C2077 C2083 1.465 . S
C2078 C2073 1.399 . S
C2078 C2077 1.394 . S
C2078 C2079 1.516 . S
C2079 C2078 1.516 . S
C2079 C2080 1.502 . S
C2079 C2081 1.561 . S
C2079 C2082 1.526 . S
C2080 H2064 0.959 . S
C2080 H2065 0.959 . S
C2080 H2066 0.961 . S
C2080 C2079 1.502 . S
C2081 H2067 0.960 . S
C2081 H2068 0.961 . S
C2081 H2069 0.959 . S
C2081 C2079 1.561 . S
C2082 C2079 1.526 . S
C2082 C2083 1.396 . S
C2082 C2087 1.390 . S
C2083 C2077 1.465 . S
C2083 C2082 1.396 . S
C2083 C2084 1.399 . S
C2084 H2070 0.929 . S
C2084 C2083 1.399 . S
C2084 C2085 1.385 . S
C2085 H2071 0.931 . S
C2085 C2084 1.385 . S
C2085 C2086 1.389 . S
C2086 C2085 1.389 . S
C2086 C2087 1.387 . S
C2087 H2072 0.930 . S
C2087 C2082 1.390 . S
C2087 C2086 1.387 . S
H2088 C2100 0.930 . S
H2089 C2102 0.930 . S
H2090 C2103 0.930 . S
H2091 C2107 0.959 . S
H2092 C2107 0.959 . S
H2093 C2107 0.961 . S
H2094 C2108 0.960 . S
H2095 C2108 0.961 . S
H2096 C2108 0.959 . S
H2097 C2111 0.929 . S
H2098 C2112 0.931 . S
H2099 C2114 0.930 . S
C2100 H2088 0.930 . S
C2100 C2101 1.399 . S
C2100 C2105 1.399 . S
C2101 C2100 1.399 . S
C2101 C2102 1.376 . S
C2102 H2089 0.930 . S
C2102 C2101 1.376 . S
C2102 C2103 1.388 . S
C2103 H2090 0.930 . S
C2103 C2102 1.388 . S
C2103 C2104 1.390 . S
C2104 C2103 1.390 . S
C2104 C2105 1.394 . S
C2104 C2110 1.465 . S
C2105 C2100 1.399 . S
C2105 C2104 1.394 . S
C2105 C2106 1.516 . S
C2106 C2105 1.516 . S
C2106 C2107 1.502 . S
C2106 C2108 1.561 . S
C2106 C2109 1.526 . S
C2107 H2091 0.959 . S
C2107 H2092 0.959 . S
C2107 H2093 0.961 . S
C2107 C2106 1.502 . S
C2108 H2094 0.960 . S
C2108 H2095 0.961 . S
C2108 H2096 0.959 . S
C2108 C2106 1.561 . S
C2109 C2106 1.526 . S
C2109 C2110 1.396 . S
C2109 C2114 1.390 . S
C2110 C2104 1.465 . S
C2110 C2109 1.396 . S
C2110 C2111 1.399 . S
C2111 H2097 0.929 . S
C2111 C2110 1.399 . S
C2111 C2112 1.385 . S
C2112 H2098 0.931 . S
C2112 C2111 1.385 . S
C2112 C2113 1.389 . S
C2113 C2112 1.389 . S
C2113 C2114 1.387 . S
C2114 H2099 0.930 . S
C2114 C2109 1.390 . S
C2114 C2113 1.387 . S
H2115 C2127 0.930 . S
H2116 C2129 0.930 . S
H2117 C2130 0.930 . S
H2118 C2134 0.959 . S
H2119 C2134 0.959 . S
H2120 C2134 0.961 . S
H2121 C2135 0.960 . S
H2122 C2135 0.961 . S
H2123 C2135 0.959 . S
H2124 C2138 0.929 . S
H2125 C2139 0.931 . S
H2126 C2141 0.930 . S
C2127 H2115 0.930 . S
C2127 C2128 1.399 . S
C2127 C2132 1.399 . S
C2128 C2127 1.399 . S
C2128 C2129 1.376 . S
C2129 H2116 0.930 . S
C2129 C2128 1.376 . S
C2129 C2130 1.388 . S
C2130 H2117 0.930 . S
C2130 C2129 1.388 . S
C2130 C2131 1.390 . S
C2131 C2130 1.390 . S
C2131 C2132 1.394 . S
C2131 C2137 1.465 . S
C2132 C2127 1.399 . S
C2132 C2131 1.394 . S
C2132 C2133 1.516 . S
C2133 C2132 1.516 . S
C2133 C2134 1.502 . S
C2133 C2135 1.561 . S
C2133 C2136 1.526 . S
C2134 H2118 0.959 . S
C2134 H2119 0.959 . S
C2134 H2120 0.961 . S
C2134 C2133 1.502 . S
C2135 H2121 0.960 . S
C2135 H2122 0.961 . S
C2135 H2123 0.959 . S
C2135 C2133 1.561 . S
C2136 C2133 1.526 . S
C2136 C2137 1.396 . S
C2136 C2141 1.390 . S
C2137 C2131 1.465 . S
C2137 C2136 1.396 . S
C2137 C2138 1.399 . S
C2138 H2124 0.929 . S
C2138 C2137 1.399 . S
C2138 C2139 1.385 . S
C2139 H2125 0.931 . S
C2139 C2138 1.385 . S
C2139 C2140 1.389 . S
C2140 C2139 1.389 . S
C2140 C2141 1.387 . S
C2141 H2126 0.930 . S
C2141 C2136 1.390 . S
C2141 C2140 1.387 . S
H2142 C2154 0.930 . S
H2143 C2156 0.930 . S
H2144 C2157 0.930 . S
H2145 C2161 0.959 . S
H2146 C2161 0.959 . S
H2147 C2161 0.961 . S
H2148 C2162 0.960 . S
H2149 C2162 0.961 . S
H2150 C2162 0.959 . S
H2151 C2165 0.929 . S
H2152 C2166 0.931 . S
H2153 C2168 0.930 . S
C2154 H2142 0.930 . S
C2154 C2155 1.399 . S
C2154 C2159 1.399 . S
C2155 C2154 1.399 . S
C2155 C2156 1.376 . S
C2156 H2143 0.930 . S
C2156 C2155 1.376 . S
C2156 C2157 1.388 . S
C2157 H2144 0.930 . S
C2157 C2156 1.388 . S
C2157 C2158 1.390 . S
C2158 C2157 1.390 . S
C2158 C2159 1.394 . S
C2158 C2164 1.465 . S
C2159 C2154 1.399 . S
C2159 C2158 1.394 . S
C2159 C2160 1.516 . S
C2160 C2159 1.516 . S
C2160 C2161 1.502 . S
C2160 C2162 1.561 . S
C2160 C2163 1.526 . S
C2161 H2145 0.959 . S
C2161 H2146 0.959 . S
C2161 H2147 0.961 . S
C2161 C2160 1.502 . S
C2162 H2148 0.960 . S
C2162 H2149 0.961 . S
C2162 H2150 0.959 . S
C2162 C2160 1.561 . S
C2163 C2160 1.526 . S
C2163 C2164 1.396 . S
C2163 C2168 1.390 . S
C2164 C2158 1.465 . S
C2164 C2163 1.396 . S
C2164 C2165 1.399 . S
C2165 H2151 0.929 . S
C2165 C2164 1.399 . S
C2165 C2166 1.385 . S
C2166 H2152 0.931 . S
C2166 C2165 1.385 . S
C2166 C2167 1.389 . S
C2167 C2166 1.389 . S
C2167 C2168 1.387 . S
C2168 H2153 0.930 . S
C2168 C2163 1.390 . S
C2168 C2167 1.387 . S
H2169 C2181 0.930 . S
H2170 C2183 0.930 . S
H2171 C2184 0.930 . S
H2172 C2188 0.959 . S
H2173 C2188 0.959 . S
H2174 C2188 0.961 . S
H2175 C2189 0.960 . S
H2176 C2189 0.961 . S
H2177 C2189 0.959 . S
H2178 C2192 0.929 . S
H2179 C2193 0.931 . S
H2180 C2195 0.930 . S
C2181 H2169 0.930 . S
C2181 C2182 1.399 . S
C2181 C2186 1.399 . S
C2182 C2181 1.399 . S
C2182 C2183 1.376 . S
C2183 H2170 0.930 . S
C2183 C2182 1.376 . S
C2183 C2184 1.388 . S
C2184 H2171 0.930 . S
C2184 C2183 1.388 . S
C2184 C2185 1.390 . S
C2185 C2184 1.390 . S
C2185 C2186 1.394 . S
C2185 C2191 1.465 . S
C2186 C2181 1.399 . S
C2186 C2185 1.394 . S
C2186 C2187 1.516 . S
C2187 C2186 1.516 . S
C2187 C2188 1.502 . S
C2187 C2189 1.561 . S
C2187 C2190 1.526 . S
C2188 H2172 0.959 . S
C2188 H2173 0.959 . S
C2188 H2174 0.961 . S
C2188 C2187 1.502 . S
C2189 H2175 0.960 . S
C2189 H2176 0.961 . S
C2189 H2177 0.959 . S
C2189 C2187 1.561 . S
C2190 C2187 1.526 . S
C2190 C2191 1.396 . S
C2190 C2195 1.390 . S
C2191 C2185 1.465 . S
C2191 C2190 1.396 . S
C2191 C2192 1.399 . S
C2192 H2178 0.929 . S
C2192 C2191 1.399 . S
C2192 C2193 1.385 . S
C2193 H2179 0.931 . S
C2193 C2192 1.385 . S
C2193 C2194 1.389 . S
C2194 C2193 1.389 . S
C2194 C2195 1.387 . S
C2195 H2180 0.930 . S
C2195 C2190 1.390 . S
C2195 C2194 1.387 . S
H2196 C2208 0.930 . S
H2197 C2210 0.930 . S
H2198 C2211 0.930 . S
H2199 C2215 0.959 . S
H2200 C2215 0.959 . S
H2201 C2215 0.961 . S
H2202 C2216 0.960 . S
H2203 C2216 0.961 . S
H2204 C2216 0.959 . S
H2205 C2219 0.929 . S
H2206 C2220 0.931 . S
H2207 C2222 0.930 . S
C2208 H2196 0.930 . S
C2208 C2209 1.399 . S
C2208 C2213 1.399 . S
C2209 C2208 1.399 . S
C2209 C2210 1.376 . S
C2210 H2197 0.930 . S
C2210 C2209 1.376 . S
C2210 C2211 1.388 . S
C2211 H2198 0.930 . S
C2211 C2210 1.388 . S
C2211 C2212 1.390 . S
C2212 C2211 1.390 . S
C2212 C2213 1.394 . S
C2212 C2218 1.465 . S
C2213 C2208 1.399 . S
C2213 C2212 1.394 . S
C2213 C2214 1.516 . S
C2214 C2213 1.516 . S
C2214 C2215 1.502 . S
C2214 C2216 1.561 . S
C2214 C2217 1.526 . S
C2215 H2199 0.959 . S
C2215 H2200 0.959 . S
C2215 H2201 0.961 . S
C2215 C2214 1.502 . S
C2216 H2202 0.960 . S
C2216 H2203 0.961 . S
C2216 H2204 0.959 . S
C2216 C2214 1.561 . S
C2217 C2214 1.526 . S
C2217 C2218 1.396 . S
C2217 C2222 1.390 . S
C2218 C2212 1.465 . S
C2218 C2217 1.396 . S
C2218 C2219 1.399 . S
C2219 H2205 0.929 . S
C2219 C2218 1.399 . S
C2219 C2220 1.385 . S
C2220 H2206 0.931 . S
C2220 C2219 1.385 . S
C2220 C2221 1.389 . S
C2221 C2220 1.389 . S
C2221 C2222 1.387 . S
C2222 H2207 0.930 . S
C2222 C2217 1.390 . S
C2222 C2221 1.387 . S
H2223 C2235 0.930 . S
H2224 C2237 0.930 . S
H2225 C2238 0.930 . S
H2226 C2242 0.959 . S
H2227 C2242 0.959 . S
H2228 C2242 0.961 . S
H2229 C2243 0.960 . S
H2230 C2243 0.961 . S
H2231 C2243 0.959 . S
H2232 C2246 0.929 . S
H2233 C2247 0.931 . S
H2234 C2249 0.930 . S
C2235 H2223 0.930 . S
C2235 C2236 1.399 . S
C2235 C2240 1.399 . S
C2236 C2235 1.399 . S
C2236 C2237 1.376 . S
C2237 H2224 0.930 . S
C2237 C2236 1.376 . S
C2237 C2238 1.388 . S
C2238 H2225 0.930 . S
C2238 C2237 1.388 . S
C2238 C2239 1.390 . S
C2239 C2238 1.390 . S
C2239 C2240 1.394 . S
C2239 C2245 1.465 . S
C2240 C2235 1.399 . S
C2240 C2239 1.394 . S
C2240 C2241 1.516 . S
C2241 C2240 1.516 . S
C2241 C2242 1.502 . S
C2241 C2243 1.561 . S
C2241 C2244 1.526 . S
C2242 H2226 0.959 . S
C2242 H2227 0.959 . S
C2242 H2228 0.961 . S
C2242 C2241 1.502 . S
C2243 H2229 0.960 . S
C2243 H2230 0.961 . S
C2243 H2231 0.959 . S
C2243 C2241 1.561 . S
C2244 C2241 1.526 . S
C2244 C2245 1.396 . S
C2244 C2249 1.390 . S
C2245 C2239 1.465 . S
C2245 C2244 1.396 . S
C2245 C2246 1.399 . S
C2246 H2232 0.929 . S
C2246 C2245 1.399 . S
C2246 C2247 1.385 . S
C2247 H2233 0.931 . S
C2247 C2246 1.385 . S
C2247 C2248 1.389 . S
C2248 C2247 1.389 . S
C2248 C2249 1.387 . S
C2249 H2234 0.930 . S
C2249 C2244 1.390 . S
C2249 C2248 1.387 . S
H2250 C2262 0.930 . S
H2251 C2264 0.930 . S
H2252 C2265 0.930 . S
H2253 C2269 0.959 . S
H2254 C2269 0.959 . S
H2255 C2269 0.961 . S
H2256 C2270 0.960 . S
H2257 C2270 0.961 . S
H2258 C2270 0.959 . S
H2259 C2273 0.929 . S
H2260 C2274 0.931 . S
H2261 C2276 0.930 . S
C2262 H2250 0.930 . S
C2262 C2263 1.399 . S
C2262 C2267 1.399 . S
C2263 C2262 1.399 . S
C2263 C2264 1.376 . S
C2264 H2251 0.930 . S
C2264 C2263 1.376 . S
C2264 C2265 1.388 . S
C2265 H2252 0.930 . S
C2265 C2264 1.388 . S
C2265 C2266 1.390 . S
C2266 C2265 1.390 . S
C2266 C2267 1.394 . S
C2266 C2272 1.465 . S
C2267 C2262 1.399 . S
C2267 C2266 1.394 . S
C2267 C2268 1.516 . S
C2268 C2267 1.516 . S
C2268 C2269 1.502 . S
C2268 C2270 1.561 . S
C2268 C2271 1.526 . S
C2269 H2253 0.959 . S
C2269 H2254 0.959 . S
C2269 H2255 0.961 . S
C2269 C2268 1.502 . S
C2270 H2256 0.960 . S
C2270 H2257 0.961 . S
C2270 H2258 0.959 . S
C2270 C2268 1.561 . S
C2271 C2268 1.526 . S
C2271 C2272 1.396 . S
C2271 C2276 1.390 . S
C2272 C2266 1.465 . S
C2272 C2271 1.396 . S
C2272 C2273 1.399 . S
C2273 H2259 0.929 . S
C2273 C2272 1.399 . S
C2273 C2274 1.385 . S
C2274 H2260 0.931 . S
C2274 C2273 1.385 . S
C2274 C2275 1.389 . S
C2275 C2274 1.389 . S
C2275 C2276 1.387 . S
C2276 H2261 0.930 . S
C2276 C2271 1.390 . S
C2276 C2275 1.387 . S
H2277 C2289 0.930 . S
H2278 C2291 0.930 . S
H2279 C2292 0.930 . S
H2280 C2296 0.959 . S
H2281 C2296 0.959 . S
H2282 C2296 0.961 . S
H2283 C2297 0.960 . S
H2284 C2297 0.961 . S
H2285 C2297 0.959 . S
H2286 C2300 0.929 . S
H2287 C2301 0.931 . S
H2288 C2303 0.930 . S
C2289 H2277 0.930 . S
C2289 C2290 1.399 . S
C2289 C2294 1.399 . S
C2290 C2289 1.399 . S
C2290 C2291 1.376 . S
C2291 H2278 0.930 . S
C2291 C2290 1.376 . S
C2291 C2292 1.388 . S
C2292 H2279 0.930 . S
C2292 C2291 1.388 . S
C2292 C2293 1.390 . S
C2293 C2292 1.390 . S
C2293 C2294 1.394 . S
C2293 C2299 1.465 . S
C2294 C2289 1.399 . S
C2294 C2293 1.394 . S
C2294 C2295 1.516 . S
C2295 C2294 1.516 . S
C2295 C2296 1.502 . S
C2295 C2297 1.561 . S
C2295 C2298 1.526 . S
C2296 H2280 0.959 . S
C2296 H2281 0.959 . S
C2296 H2282 0.961 . S
C2296 C2295 1.502 . S
C2297 H2283 0.960 . S
C2297 H2284 0.961 . S
C2297 H2285 0.959 . S
C2297 C2295 1.561 . S
C2298 C2295 1.526 . S
C2298 C2299 1.396 . S
C2298 C2303 1.390 . S
C2299 C2293 1.465 . S
C2299 C2298 1.396 . S
C2299 C2300 1.399 . S
C2300 H2286 0.929 . S
C2300 C2299 1.399 . S
C2300 C2301 1.385 . S
C2301 H2287 0.931 . S
C2301 C2300 1.385 . S
C2301 C2302 1.389 . S
C2302 C2301 1.389 . S
C2302 C2303 1.387 . S
C2303 H2288 0.930 . S
C2303 C2298 1.390 . S
C2303 C2302 1.387 . S
H2304 C2316 0.930 . S
H2305 C2318 0.930 . S
H2306 C2319 0.930 . S
H2307 C2323 0.959 . S
H2308 C2323 0.959 . S
H2309 C2323 0.961 . S
H2310 C2324 0.960 . S
H2311 C2324 0.961 . S
H2312 C2324 0.959 . S
H2313 C2327 0.929 . S
H2314 C2328 0.931 . S
H2315 C2330 0.930 . S
C2316 H2304 0.930 . S
C2316 C2317 1.399 . S
C2316 C2321 1.399 . S
C2317 C2316 1.399 . S
C2317 C2318 1.376 . S
C2318 H2305 0.930 . S
C2318 C2317 1.376 . S
C2318 C2319 1.388 . S
C2319 H2306 0.930 . S
C2319 C2318 1.388 . S
C2319 C2320 1.390 . S
C2320 C2319 1.390 . S
C2320 C2321 1.394 . S
C2320 C2326 1.465 . S
C2321 C2316 1.399 . S
C2321 C2320 1.394 . S
C2321 C2322 1.516 . S
C2322 C2321 1.516 . S
C2322 C2323 1.502 . S
C2322 C2324 1.561 . S
C2322 C2325 1.526 . S
C2323 H2307 0.959 . S
C2323 H2308 0.959 . S
C2323 H2309 0.961 . S
C2323 C2322 1.502 . S
C2324 H2310 0.960 . S
C2324 H2311 0.961 . S
C2324 H2312 0.959 . S
C2324 C2322 1.561 . S
C2325 C2322 1.526 . S
C2325 C2326 1.396 . S
C2325 C2330 1.390 . S
C2326 C2320 1.465 . S
C2326 C2325 1.396 . S
C2326 C2327 1.399 . S
C2327 H2313 0.929 . S
C2327 C2326 1.399 . S
C2327 C2328 1.385 . S
C2328 H2314 0.931 . S
C2328 C2327 1.385 . S
C2328 C2329 1.389 . S
C2329 C2328 1.389 . S
C2329 C2330 1.387 . S
C2330 H2315 0.930 . S
C2330 C2325 1.390 . S
C2330 C2329 1.387 . S
H2331 C2343 0.930 . S
H2332 C2345 0.930 . S
H2333 C2346 0.930 . S
H2334 C2350 0.959 . S
H2335 C2350 0.959 . S
H2336 C2350 0.961 . S
H2337 C2351 0.960 . S
H2338 C2351 0.961 . S
H2339 C2351 0.959 . S
H2340 C2354 0.929 . S
H2341 C2355 0.931 . S
H2342 C2357 0.930 . S
C2343 H2331 0.930 . S
C2343 C2344 1.399 . S
C2343 C2348 1.399 . S
C2344 C2343 1.399 . S
C2344 C2345 1.376 . S
C2345 H2332 0.930 . S
C2345 C2344 1.376 . S
C2345 C2346 1.388 . S
C2346 H2333 0.930 . S
C2346 C2345 1.388 . S
C2346 C2347 1.390 . S
C2347 C2346 1.390 . S
C2347 C2348 1.394 . S
C2347 C2353 1.465 . S
C2348 C2343 1.399 . S
C2348 C2347 1.394 . S
C2348 C2349 1.516 . S
C2349 C2348 1.516 . S
C2349 C2350 1.502 . S
C2349 C2351 1.561 . S
C2349 C2352 1.526 . S
C2350 H2334 0.959 . S
C2350 H2335 0.959 . S
C2350 H2336 0.961 . S
C2350 C2349 1.502 . S
C2351 H2337 0.960 . S
C2351 H2338 0.961 . S
C2351 H2339 0.959 . S
C2351 C2349 1.561 . S
C2352 C2349 1.526 . S
C2352 C2353 1.396 . S
C2352 C2357 1.390 . S
C2353 C2347 1.465 . S
C2353 C2352 1.396 . S
C2353 C2354 1.399 . S
C2354 H2340 0.929 . S
C2354 C2353 1.399 . S
C2354 C2355 1.385 . S
C2355 H2341 0.931 . S
C2355 C2354 1.385 . S
C2355 C2356 1.389 . S
C2356 C2355 1.389 . S
C2356 C2357 1.387 . S
C2357 H2342 0.930 . S
C2357 C2352 1.390 . S
C2357 C2356 1.387 . S
H2358 C2370 0.930 . S
H2359 C2372 0.930 . S
H2360 C2373 0.930 . S
H2361 C2377 0.959 . S
H2362 C2377 0.959 . S
H2363 C2377 0.961 . S
H2364 C2378 0.960 . S
H2365 C2378 0.961 . S
H2366 C2378 0.959 . S
H2367 C2381 0.929 . S
H2368 C2382 0.931 . S
H2369 C2384 0.930 . S
C2370 H2358 0.930 . S
C2370 C2371 1.399 . S
C2370 C2375 1.399 . S
C2371 C2370 1.399 . S
C2371 C2372 1.376 . S
C2372 H2359 0.930 . S
C2372 C2371 1.376 . S
C2372 C2373 1.388 . S
C2373 H2360 0.930 . S
C2373 C2372 1.388 . S
C2373 C2374 1.390 . S
C2374 C2373 1.390 . S
C2374 C2375 1.394 . S
C2374 C2380 1.465 . S
C2375 C2370 1.399 . S
C2375 C2374 1.394 . S
C2375 C2376 1.516 . S
C2376 C2375 1.516 . S
C2376 C2377 1.502 . S
C2376 C2378 1.561 . S
C2376 C2379 1.526 . S
C2377 H2361 0.959 . S
C2377 H2362 0.959 . S
C2377 H2363 0.961 . S
C2377 C2376 1.502 . S
C2378 H2364 0.960 . S
C2378 H2365 0.961 . S
C2378 H2366 0.959 . S
C2378 C2376 1.561 . S
C2379 C2376 1.526 . S
C2379 C2380 1.396 . S
C2379 C2384 1.390 . S
C2380 C2374 1.465 . S
C2380 C2379 1.396 . S
C2380 C2381 1.399 . S
C2381 H2367 0.929 . S
C2381 C2380 1.399 . S
C2381 C2382 1.385 . S
C2382 H2368 0.931 . S
C2382 C2381 1.385 . S
C2382 C2383 1.389 . S
C2383 C2382 1.389 . S
C2383 C2384 1.387 . S
C2384 H2369 0.930 . S
C2384 C2379 1.390 . S
C2384 C2383 1.387 . S
H2385 C2397 0.930 . S
H2386 C2399 0.930 . S
H2387 C2400 0.930 . S
H2388 C2404 0.959 . S
H2389 C2404 0.959 . S
H2390 C2404 0.961 . S
H2391 C2405 0.960 . S
H2392 C2405 0.961 . S
H2393 C2405 0.959 . S
H2394 C2408 0.929 . S
H2395 C2409 0.931 . S
H2396 C2411 0.930 . S
C2397 H2385 0.930 . S
C2397 C2398 1.399 . S
C2397 C2402 1.399 . S
C2398 C2397 1.399 . S
C2398 C2399 1.376 . S
C2399 H2386 0.930 . S
C2399 C2398 1.376 . S
C2399 C2400 1.388 . S
C2400 H2387 0.930 . S
C2400 C2399 1.388 . S
C2400 C2401 1.390 . S
C2401 C2400 1.390 . S
C2401 C2402 1.394 . S
C2401 C2407 1.465 . S
C2402 C2397 1.399 . S
C2402 C2401 1.394 . S
C2402 C2403 1.516 . S
C2403 C2402 1.516 . S
C2403 C2404 1.502 . S
C2403 C2405 1.561 . S
C2403 C2406 1.526 . S
C2404 H2388 0.959 . S
C2404 H2389 0.959 . S
C2404 H2390 0.961 . S
C2404 C2403 1.502 . S
C2405 H2391 0.960 . S
C2405 H2392 0.961 . S
C2405 H2393 0.959 . S
C2405 C2403 1.561 . S
C2406 C2403 1.526 . S
C2406 C2407 1.396 . S
C2406 C2411 1.390 . S
C2407 C2401 1.465 . S
C2407 C2406 1.396 . S
C2407 C2408 1.399 . S
C2408 H2394 0.929 . S
C2408 C2407 1.399 . S
C2408 C2409 1.385 . S
C2409 H2395 0.931 . S
C2409 C2408 1.385 . S
C2409 C2410 1.389 . S
C2410 C2409 1.389 . S
C2410 C2411 1.387 . S
C2411 H2396 0.930 . S
C2411 C2406 1.390 . S
C2411 C2410 1.387 . S
C481 C4 1.499 . S
C493 C238 1.493 . S
C508 C257 1.495 . S
C520 C17 1.497 . S
C535 C270 1.493 . S
C547 C30 1.500 . S
C562 C43 1.493 . S
C574 C433 1.500 . S
C589 C62 1.493 . S
C601 C446 1.500 . S
C616 C75 1.496 . S
C628 C459 1.496 . S
C643 C316 1.495 . S
C655 C82 1.500 . S
C670 C95 1.494 . S
C682 C335 1.499 . S
C697 C114 1.493 . S
C709 C348 1.499 . S
C724 C205 1.499 . S
C736 C121 1.496 . S
C751 C218 1.500 . S
C763 C134 1.493 . S
C778 C225 1.498 . S
C790 C153 1.494 . S
C805 C394 1.493 . S
C817 C160 1.500 . S
C832 C407 1.496 . S
C844 C179 1.499 . S
C859 C186 1.500 . S
C871 C426 1.494 . S
C886 C361 1.498 . S
C898 C283 1.494 . S
C913 C296 1.495 . S
C925 C368 1.499 . S
C940 C309 1.493 . S
C952 C387 1.500 . S
C967 C10 1.565 . S
C979 C355 1.536 . S
C994 C374 1.527 . S
C1006 C23 1.581 . S
C1021 C381 1.587 . S
C1033 C36 1.528 . S
C1048 C166 1.572 . S
C1060 C49 1.580 . S
C1075 C173 1.582 . S
C1087 C56 1.528 . S
C1102 C192 1.566 . S
C1114 C69 1.535 . S
C1129 C88 1.579 . S
C1141 C277 1.552 . S
C1156 C290 1.537 . S
C1168 C101 1.581 . S
C1183 C303 1.596 . S
C1195 C108 1.530 . S
C1210 C127 1.593 . S
C1222 C400 1.535 . S
C1237 C140 1.593 . S
C1249 C413 1.535 . S
C1264 C147 1.532 . S
C1276 C420 1.588 . S
C1291 C199 1.594 . S
C1303 C322 1.530 . S
C1318 C212 1.547 . S
C1330 C329 1.595 . S
C1345 C231 1.572 . S
C1357 C342 1.532 . S
C1372 C244 1.528 . S
C1384 C439 1.593 . S
C1399 C452 1.594 . S
C1411 C251 1.529 . S
C1426 C264 1.538 . S
C1438 C465 1.581 . S
C1453 C18 1.211 . S
C1465 C3 1.126 . S
C1480 C16 1.219 . S
C1492 C31 1.188 . S
C1507 C29 1.220 . S
C1519 C5 1.190 . S
C1534 C42 1.102 . S
C1546 C68 1.233 . S
C1561 C44 1.184 . S
C1573 C57 1.199 . S
C1588 C70 1.108 . S
C1600 C55 1.223 . S
C1615 C81 1.215 . S
C1627 C96 1.194 . S
C1642 C94 1.181 . S
C1654 C107 1.184 . S
C1669 C109 1.175 . S
C1681 C83 1.235 . S
C1696 C146 1.225 . S
C1708 C120 1.105 . S
C1723 C133 1.112 . S
C1735 C122 1.232 . S
C1750 C135 1.225 . S
C1762 C148 1.105 . S
C1777 C172 1.238 . S
C1789 C159 1.109 . S
C1804 C187 1.232 . S
C1816 C174 1.151 . S
C1831 C161 1.188 . S
C1843 C185 1.180 . S
C1858 C200 1.203 . S
C1870 C226 1.184 . S
C1885 C213 1.218 . S
C1897 C198 1.194 . S
C1912 C224 1.163 . S
C1924 C211 1.228 . S
C1939 C250 1.198 . S
C1951 C237 1.121 . S
C1966 C252 1.171 . S
C1978 C263 1.236 . S
C1993 C265 1.180 . S
C2005 C239 1.234 . S
C2020 C278 1.201 . S
C2032 C302 1.187 . S
C2047 C291 1.138 . S
C2059 C276 1.238 . S
C2074 C289 1.194 . S
C2086 C304 1.214 . S
C2101 C328 1.207 . S
C2113 C315 1.133 . S
C2128 C330 1.212 . S
C2140 C341 1.201 . S
C2155 C317 1.216 . S
C2167 C343 1.119 . S
C2182 C356 1.107 . S
C2194 C380 1.225 . S
C2209 C367 1.218 . S
C2221 C354 1.194 . S
C2236 C382 1.193 . S
C2248 C369 1.214 . S
C2263 C393 1.105 . S
C2275 C408 1.226 . S
C2290 C406 1.156 . S
C2302 C419 1.238 . S
C2317 C421 1.130 . S
C2329 C395 1.237 . S
C2344 C432 1.166 . S
C2356 C460 1.184 . S
C2371 C445 1.137 . S
C2383 C434 1.238 . S
C2398 C447 1.183 . S
C2410 C458 1.169 . S
