# Generated by pormake.
# Topology qtz-e, (6)-cn, num edge types: 1
# Building blocks:
#     Node 0, Type 0, BuildingBlock: KUMBOL_clean_sbu_1, # of connection points: 6
#     Node 1, Type 0, BuildingBlock: KUMBOL_clean_sbu_1, # of connection points: 6
#     Node 2, Type 0, BuildingBlock: KUMBOL_clean_sbu_1, # of connection points: 6
#     Node 3, Type 0, BuildingBlock: KUMBOL_clean_sbu_1, # of connection points: 6
#     Node 4, Type 0, BuildingBlock: KUMBOL_clean_sbu_1, # of connection points: 6
#     Node 5, Type 0, BuildingBlock: KUMBOL_clean_sbu_1, # of connection points: 6
#     Edge 6, Type (0, 0), BuildingBlock: AJUNOK_clean_linker_0, # of connection points: 2
#     Edge 7, Type (0, 0), BuildingBlock: AJUNOK_clean_linker_0, # of connection points: 2
#     Edge 8, Type (0, 0), BuildingBlock: AJUNOK_clean_linker_0, # of connection points: 2
#     Edge 9, Type (0, 0), BuildingBlock: AJUNOK_clean_linker_0, # of connection points: 2
#     Edge 10, Type (0, 0), BuildingBlock: AJUNOK_clean_linker_0, # of connection points: 2
#     Edge 11, Type (0, 0), BuildingBlock: AJUNOK_clean_linker_0, # of connection points: 2
#     Edge 12, Type (0, 0), BuildingBlock: AJUNOK_clean_linker_0, # of connection points: 2
#     Edge 13, Type (0, 0), BuildingBlock: AJUNOK_clean_linker_0, # of connection points: 2
#     Edge 14, Type (0, 0), BuildingBlock: AJUNOK_clean_linker_0, # of connection points: 2
#     Edge 15, Type (0, 0), BuildingBlock: AJUNOK_clean_linker_0, # of connection points: 2
#     Edge 16, Type (0, 0), BuildingBlock: AJUNOK_clean_linker_0, # of connection points: 2
#     Edge 17, Type (0, 0), BuildingBlock: AJUNOK_clean_linker_0, # of connection points: 2
#     Edge 18, Type (0, 0), BuildingBlock: AJUNOK_clean_linker_0, # of connection points: 2
#     Edge 19, Type (0, 0), BuildingBlock: AJUNOK_clean_linker_0, # of connection points: 2
#     Edge 20, Type (0, 0), BuildingBlock: AJUNOK_clean_linker_0, # of connection points: 2
#     Edge 21, Type (0, 0), BuildingBlock: AJUNOK_clean_linker_0, # of connection points: 2
#     Edge 22, Type (0, 0), BuildingBlock: AJUNOK_clean_linker_0, # of connection points: 2
#     Edge 23, Type (0, 0), BuildingBlock: AJUNOK_clean_linker_0, # of connection points: 2
# Relax obj value: 0.149
# Max RMSD: 0.216
# Mean RMSD: 0.216
data_MOF--net-qtz-e--node1-KUMBOL_clean_sbu_1--edge1-AJUNOK_clean_linker_0
_symmetry_space_group_name_H-M    P1
_symmetry_Int_Tables_number       1
_symmetry_cell_setting            triclinic
loop_
_symmetry_equiv_pos_as_xyz
'x, y, z'
_cell_length_a     21.15897
_cell_length_b     21.102459
_cell_length_c     39.919
_cell_angle_alpha  90.020209
_cell_angle_beta   89.740866
_cell_angle_gamma 119.79827
loop_
_atom_site_label
_atom_site_type_symbol
_atom_site_fract_x
_atom_site_fract_y
_atom_site_fract_z
_atom_type_partial_charge
C0 C 0.42337 0.69118 0.04373 0.0
C1 C 0.38906 0.75915 0.00593 0.0
C2 C 0.37093 0.69517 0.0244 0.0
C3 C 0.46021 0.81866 0.00711 0.0
C4 C 0.49475 0.75143 0.04523 0.0
C5 C 0.51286 0.81484 0.02671 0.0
N6 N 0.40535 0.62807 0.06033 0.0
C7 C 0.45549 0.62276 0.07986 0.0
C8 C 0.54629 0.74597 0.06498 0.0
C9 C 0.5264 0.6816 0.08257 0.0
Gd10 Gd 0.17762 0.33899 0.9893 0.0
Gd11 Gd 0.28642 0.53051 0.05179 0.0
N12 N 0.30324 0.63537 0.0224 0.0
C13 C 0.33548 0.76119 0.98633 0.0
C14 C 0.25073 0.63799 0.00362 0.0
C15 C 0.26586 0.70049 0.98542 0.0
H16 H 0.19739 0.59223 0.00174 0.0
H17 H 0.22386 0.70143 0.97038 0.0
H18 H 0.27674 0.2828 0.03344 0.0
H19 H 0.44155 0.57203 0.09242 0.0
H20 H 0.25438 0.19124 0.07699 0.0
H21 H 0.34733 0.80921 0.97177 0.0
H22 H 0.47515 0.86783 0.99282 0.0
H23 H 0.01567 0.30296 0.96129 0.0
H24 H 0.60166 0.791 0.06668 0.0
H25 H 0.56606 0.67674 0.09773 0.0
H26 H 0.99402 0.06088 0.09004 0.0
H27 H 0.56762 0.86123 0.02728 0.0
H28 H 0.85286 0.11834 0.01552 0.0
H29 H 0.88595 0.21582 0.97325 0.0
N30 N 0.05463 0.2515 0.99443 0.0
C31 C 0.03781 0.19634 0.01647 0.0
C32 C 1.00147 0.25869 0.97872 0.0
C33 C 0.90966 0.1546 0.00935 0.0
C34 C 0.9281 0.20977 0.98559 0.0
C35 C 0.96483 0.14809 0.0255 0.0
H36 H 0.89397 0.06239 0.05983 0.0
N37 N 0.16433 0.24418 0.02477 0.0
C38 C 0.09439 0.19271 0.03231 0.0
C39 C 0.13756 0.14157 0.07447 0.0
C40 C 0.07917 0.14208 0.05835 0.0
C41 C 0.22145 0.24308 0.03986 0.0
C42 C 0.20893 0.19137 0.06472 0.0
O43 O 0.33586 0.56033 -0.00051 0.0
O44 O 0.24133 0.45565 0.99636 0.0
O45 O 0.22301 0.2938 0.95226 0.0
O46 O 0.13856 0.31957 0.9382 0.0
O47 O 0.16668 0.48706 0.03758 0.0
O48 O 0.12885 0.41665 0.98781 0.0
O49 O 0.13024 0.33254 0.0411 0.0
O50 O 0.23924 0.41008 0.06307 0.0
O51 O 0.22832 0.55914 0.08824 0.0
O52 O 0.31278 0.53498 0.10384 0.0
O53 O 0.302 0.38621 0.99634 0.0
O54 O 0.32883 0.45039 0.04656 0.0
C55 C 0.29472 0.50724 0.97995 0.0
C56 C 0.12088 0.45675 0.01201 0.0
C57 C 0.17741 0.26684 0.89373 0.0
C58 C 0.22482 0.22795 0.84587 0.0
C59 C 0.10392 0.21498 0.8438 0.0
C60 C 0.11287 0.24467 0.87571 0.0
C61 C 0.15903 0.20671 0.82906 0.0
C62 C 0.23427 0.25877 0.87851 0.0
C63 C 0.18067 0.29401 0.9287 0.0
C64 C 0.00663 0.09642 0.06854 0.0
C65 C 0.94957 0.09813 0.05167 0.0
H66 H 0.12819 0.10337 0.09458 0.0
C67 C 0.16904 0.36623 0.06745 0.0
C68 C 0.34966 0.43013 0.01915 0.0
C69 C 0.29408 0.61505 0.13752 0.0
C70 C 0.26455 0.66934 0.18342 0.0
C71 C 0.39068 0.70565 0.17228 0.0
C72 C 0.36833 0.65633 0.14591 0.0
C73 C 0.33896 0.71211 0.19113 0.0
C74 C 0.24234 0.62218 0.15626 0.0
C75 C 0.26765 0.5568 0.11286 0.0
H76 H 0.05361 0.19788 0.83041 0.0
H77 H 0.06822 0.24916 0.88655 0.0
H78 H 0.15024 0.18367 0.80409 0.0
H79 H 0.28439 0.27514 0.89195 0.0
H80 H 0.44763 0.73625 0.17906 0.0
H81 H 0.40899 0.64877 0.13337 0.0
H82 H 0.35654 0.747 0.21304 0.0
H83 H 0.18467 0.58734 0.15132 0.0
C84 C 0.74141 0.41579 0.36314 0.0
C85 C 0.63367 0.37359 0.32874 0.0
C86 C 0.68029 0.35893 0.34835 0.0
C87 C 0.65008 0.44609 0.32381 0.0
C88 C 0.75736 0.48862 0.35873 0.0
C89 C 0.7118 0.50346 0.33873 0.0
N90 N 0.78497 0.39984 0.38205 0.0
C91 C 0.84222 0.45362 0.39906 0.0
C92 C 0.8183 0.54438 0.37481 0.0
C93 C 0.86028 0.52665 0.39546 0.0
Gd94 Gd 0.83508 0.17445 0.32353 0.0
Gd95 Gd 0.75402 0.27637 0.38468 0.0
N96 N 0.66697 0.28936 0.35287 0.0
C97 C 0.5717 0.31492 0.31478 0.0
C98 C 0.60497 0.23208 0.34038 0.0
C99 C 0.55689 0.24382 0.32098 0.0
H100 H 0.5913 0.17716 0.34549 0.0
H101 H 0.5082 0.19788 0.31095 0.0
H102 H 0.99184 0.27775 0.36642 0.0
H103 H 0.87293 0.43992 0.41611 0.0
H104 H 0.0654 0.25739 0.40794 0.0
H105 H 0.53444 0.32386 0.29965 0.0
H106 H 0.61509 0.45834 0.30867 0.0
H107 H 0.71634 0.01105 0.29326 0.0
H108 H 0.83247 0.60102 0.37203 0.0
H109 H 0.90625 0.56914 0.40881 0.0
H110 H 0.94881 0.99607 0.41693 0.0
H111 H 0.72345 0.55908 0.33491 0.0
H112 H 0.75255 0.8518 0.34255 0.0
H113 H 0.68249 0.88213 0.30252 0.0
N114 N 0.80773 0.05287 0.32563 0.0
C115 C 0.84817 0.03771 0.34702 0.0
C116 C 0.74884 0.99828 0.30976 0.0
C117 C 0.76911 0.90847 0.33767 0.0
C118 C 0.72929 0.92533 0.31513 0.0
C119 C 0.82869 0.96486 0.3543 0.0
H120 H 0.85103 0.89488 0.38587 0.0
N121 N 0.92061 0.16469 0.35736 0.0
C122 C 0.90633 0.09523 0.3634 0.0
C123 C 1.00282 0.14011 0.40425 0.0
C124 C 0.94519 0.08097 0.38799 0.0
C125 C 0.97833 0.22267 0.3722 0.0
C126 C 0.02038 0.21128 0.3958 0.0
O127 O 0.78217 0.31946 0.33197 0.0
O128 O 0.75469 0.20928 0.31471 0.0
O129 O 0.91877 0.23753 0.28577 0.0
O130 O 0.82954 0.13125 0.27342 0.0
O131 O 0.67925 0.15375 0.37569 0.0
O132 O 0.70827 0.11627 0.32546 0.0
O133 O 0.80206 0.13036 0.3768 0.0
O134 O 0.82937 0.23654 0.40244 0.0
O135 O 0.66636 0.22392 0.42089 0.0
O136 O 0.76862 0.32059 0.43434 0.0
O137 O 0.90742 0.29981 0.33153 0.0
O138 O 0.87459 0.31682 0.38405 0.0
C139 C 0.77593 0.27619 0.30749 0.0
C140 C 0.66203 0.10638 0.35073 0.0
C141 C 0.93703 0.17576 0.23929 0.0
C142 C 0.02061 0.21434 0.19058 0.0
C143 C 0.97885 0.0958 0.21683 0.0
C144 C 0.93789 0.10969 0.24018 0.0
C145 C 0.01996 0.14755 0.19238 0.0
C146 C 0.97831 0.22802 0.21411 0.0
C147 C 0.88884 0.18796 0.26262 0.0
C148 C 0.92347 0.00834 0.39643 0.0
C149 C 0.86665 0.95053 0.37913 0.0
H150 H 0.03419 0.13146 0.42325 0.0
C151 C 0.8093 0.16716 0.40439 0.0
C152 C 0.91537 0.34333 0.35712 0.0
C153 C 0.66335 0.30156 0.46222 0.0
C154 C 0.59083 0.28654 0.51125 0.0
C155 C 0.64764 0.40189 0.48115 0.0
C156 C 0.67779 0.37377 0.45857 0.0
C157 C 0.60492 0.35877 0.50769 0.0
C158 C 0.61767 0.25739 0.48764 0.0
C159 C 0.7027 0.27337 0.44346 0.0
H160 H 0.97816 0.04417 0.21747 0.0
H161 H 0.90598 0.0682 0.25864 0.0
H162 H 0.05026 0.13471 0.17428 0.0
H163 H 0.97698 0.27863 0.21264 0.0
H164 H 0.66001 0.45803 0.47897 0.0
H165 H 0.71394 0.40898 0.43916 0.0
H166 H 0.58613 0.38298 0.52637 0.0
H167 H 0.60781 0.20205 0.49066 0.0
C168 C 0.31675 0.73059 0.6928 0.0
C169 C 0.2546 0.62139 0.65886 0.0
C170 C 0.31385 0.66861 0.67921 0.0
C171 C 0.19949 0.63815 0.65194 0.0
C172 C 0.26032 0.74632 0.68683 0.0
C173 C 0.20227 0.70037 0.66594 0.0
N174 N 0.37393 0.77457 0.71259 0.0
C175 C 0.37427 0.83029 0.72993 0.0
C176 C 0.26315 0.8069 0.70267 0.0
C177 C 0.31978 0.8483 0.72481 0.0
Gd178 Gd 0.67271 0.83979 0.66081 0.0
Gd179 Gd 0.46459 0.74302 0.71892 0.0
N180 N 0.36817 0.6539 0.68641 0.0
C181 C 0.25184 0.55809 0.64646 0.0
C182 C 0.36368 0.59039 0.67554 0.0
C183 C 0.30619 0.54218 0.65517 0.0
H184 H 0.40299 0.57515 0.68273 0.0
H185 H 0.3036 0.49239 0.64642 0.0
H186 H 0.74746 0.00675 0.69468 0.0
H187 H 0.41562 0.85977 0.74831 0.0
H188 H 0.84657 0.08035 0.73457 0.0
H189 H 0.20724 0.52041 0.63077 0.0
H190 H 0.1538 0.60264 0.63623 0.0
H191 H 0.70115 0.70581 0.63216 0.0
H192 H 0.2208 0.82077 0.69881 0.0
H193 H 0.32101 0.89348 0.73824 0.0
H194 H 0.95914 0.93333 0.75355 0.0
H195 H 0.15866 0.71181 0.66088 0.0
H196 H 0.88553 0.72275 0.68419 0.0
H197 H 0.7852 0.65895 0.64362 0.0
N198 N 0.75632 0.79759 0.6643 0.0
C199 C 0.81514 0.83707 0.68418 0.0
C200 C 0.74616 0.7353 0.64911 0.0
C201 C 0.85057 0.74509 0.67824 0.0
C202 C 0.7936 0.70857 0.65555 0.0
C203 C 0.86145 0.80982 0.69314 0.0
H204 H 0.94841 0.82407 0.72625 0.0
N205 N 0.77703 0.92451 0.68996 0.0
C206 C 0.82666 0.90315 0.69712 0.0
C207 C 0.88677 1.00434 0.73536 0.0
C208 C 0.88017 0.94013 0.72157 0.0
C209 C 0.78575 0.98922 0.70153 0.0
C210 C 0.84116 0.03038 0.72435 0.0
O211 O 0.45839 0.78305 0.66774 0.0
O212 O 0.55233 0.76832 0.65412 0.0
O213 O 0.69563 0.92567 0.62351 0.0
O214 O 0.71354 0.83631 0.61135 0.0
O215 O 0.51087 0.66902 0.706 0.0
O216 O 0.60144 0.71096 0.66291 0.0
O217 O 0.69557 0.84225 0.71679 0.0
O218 O 0.58103 0.78198 0.71834 0.0
O219 O 0.41329 0.65886 0.75735 0.0
O220 O 0.45741 0.77561 0.76904 0.0
O221 O 0.62034 0.91097 0.67295 0.0
O222 O 0.55084 0.86334 0.7215 0.0
C223 C 0.50684 0.79024 0.64543 0.0
C224 C 0.55264 0.65906 0.68385 0.0
C225 C 0.77687 0.94299 0.57716 0.0
C226 C 0.82046 0.02138 0.52685 0.0
C227 C 0.8949 0.97676 0.55269 0.0
C228 C 0.84192 0.94041 0.57731 0.0
C229 C 0.88458 0.01713 0.52782 0.0
C230 C 0.76612 0.98344 0.55157 0.0
C231 C 0.71668 0.89606 0.60065 0.0
C232 C 0.9218 0.9093 0.73286 0.0
C233 C 0.91448 0.84597 0.71782 0.0
H234 H 0.92638 0.034 0.75467 0.0
C235 C 0.64006 0.80771 0.73616 0.0
C236 C 0.57506 0.91072 0.69642 0.0
C237 C 0.39932 0.69154 0.81422 0.0
C238 C 0.3574 0.60797 0.86083 0.0
C239 C 0.36758 0.72725 0.86656 0.0
C240 C 0.39221 0.74326 0.83364 0.0
C241 C 0.35016 0.65991 0.88015 0.0
C242 C 0.38209 0.6237 0.82788 0.0
C243 C 0.42294 0.70832 0.77955 0.0
H244 H 0.9437 0.97244 0.5525 0.0
H245 H 0.85103 0.90853 0.59595 0.0
H246 H 0.92621 0.04385 0.50873 0.0
H247 H 0.71539 0.98435 0.55056 0.0
H248 H 0.3622 0.76705 0.88157 0.0
H249 H 0.40506 0.79582 0.82331 0.0
H250 H 0.33213 0.64858 0.90603 0.0
H251 H 0.38841 0.58386 0.81325 0.0
C252 C 0.59448 0.31871 0.03305 0.0
C253 C 0.63056 0.24178 0.00274 0.0
C254 C 0.64848 0.30915 0.01767 0.0
C255 C 0.55838 0.18387 0.00414 0.0
C256 C 0.52235 0.2601 0.03515 0.0
C257 C 0.50461 0.19283 0.02049 0.0
N258 N 0.61232 0.38504 0.04598 0.0
C259 C 0.56209 0.39567 0.06286 0.0
C260 C 0.47003 0.27096 0.0518 0.0
C261 C 0.49013 0.33896 0.06586 0.0
Gd262 Gd 0.83722 0.67307 0.99053 0.0
Gd263 Gd 0.73573 0.47145 0.04401 0.0
N264 N 0.71822 0.36584 0.01695 0.0
C265 C 0.68577 0.23453 0.98684 0.0
C266 C 0.77235 0.35898 0.00174 0.0
C267 C 0.7569 0.29342 0.98631 0.0
H268 H 0.82737 0.40366 0.00123 0.0
H269 H 0.79994 0.28829 0.97412 0.0
H270 H 0.74389 0.75079 0.01834 0.0
H271 H 0.57735 0.44802 0.07398 0.0
H272 H 0.76668 0.85949 0.0517 0.0
H273 H 0.67409 0.1837 0.97497 0.0
H274 H 0.54366 0.1317 0.99281 0.0
H275 H 1.00336 0.70362 0.96553 0.0
H276 H 0.41404 0.22728 0.05392 0.0
H277 H 0.4502 0.3478 0.07889 0.0
H278 H 0.02311 0.9755 0.07694 0.0
H279 H 0.44934 0.14741 0.02158 0.0
H280 H 0.16368 0.88866 0.01936 0.0
H281 H 0.13168 0.78757 0.97943 0.0
N282 N 0.96204 0.75312 -0.00085 0.0
C283 C 0.97872 0.81094 0.01938 0.0
C284 C 0.01607 0.74592 0.98385 0.0
C285 C 0.10699 0.85119 0.01374 0.0
C286 C 0.08916 0.79413 0.99126 0.0
C287 C 0.05159 0.8609 0.02768 0.0
H288 H 0.12228 0.95777 0.0563 0.0
N289 N 0.85378 0.77476 0.02079 0.0
C290 C 0.92302 0.82264 0.03021 0.0
C291 C 0.88108 0.8966 0.05796 0.0
C292 C 0.93835 0.88386 0.04989 0.0
C293 C 0.79819 0.7883 0.02715 0.0
C294 C 0.81097 0.84943 0.04598 0.0
O295 O 0.70298 0.45174 0.98885 0.0
O296 O 0.79284 0.55829 0.99133 0.0
O297 O 0.77767 0.69922 0.95194 0.0
O298 O 0.88578 0.71505 0.94217 0.0
O299 O 0.85583 0.51233 0.03329 0.0
O300 O 0.89899 0.60403 0.99085 0.0
O301 O 0.82453 0.67834 0.04741 0.0
O302 O 0.835 0.57858 0.05914 0.0
O303 O 0.74686 0.40405 0.08262 0.0
O304 O 0.70255 0.47761 0.09381 0.0
O305 O 0.71134 0.61501 0.99296 0.0
O306 O 0.69117 0.54811 0.04052 0.0
C307 C 0.74586 0.50955 0.97195 0.0
C308 C 0.90482 0.55449 0.01041 0.0
C309 C 0.8355 0.75304 0.89671 0.0
C310 C 0.78743 0.79375 0.84982 0.0
C311 C 0.9121 0.81608 0.84853 0.0
C312 C 0.90234 0.7824 0.87948 0.0
C313 C 0.85567 0.82164 0.83388 0.0
C314 C 0.77716 0.75841 0.88156 0.0
C315 C 0.83205 0.72238 0.93104 0.0
C316 C 0.01022 0.9305 0.06036 0.0
C317 C 0.06683 0.91967 0.04896 0.0
H318 H 0.89028 0.9427 0.07323 0.0
C319 C 0.83406 0.63725 0.06956 0.0
C320 C 0.66599 0.56132 0.01312 0.0
C321 C 0.70055 0.40321 0.13866 0.0
C322 C 0.73045 0.36196 0.18878 0.0
C323 C 0.62305 0.37512 0.18764 0.0
C324 C 0.63917 0.399 0.15459 0.0
C325 C 0.66846 0.35635 0.20473 0.0
C326 C 0.74616 0.38441 0.1557 0.0
C327 C 0.71782 0.42842 0.10447 0.0
H328 H 0.96407 0.83825 0.83574 0.0
H329 H 0.94826 0.78025 0.89011 0.0
H330 H 0.86548 0.84736 0.80946 0.0
H331 H 0.7254 0.73684 0.89449 0.0
H332 H 0.57592 0.37173 0.20008 0.0
H333 H 0.60372 0.41389 0.14148 0.0
H334 H 0.65624 0.33874 0.23064 0.0
H335 H 0.79434 0.3889 0.14367 0.0
C336 C 0.27784 0.58936 0.35808 0.0
C337 C 0.38843 0.63864 0.32465 0.0
C338 C 0.33959 0.64944 0.3448 0.0
C339 C 0.37327 0.56738 0.31719 0.0
C340 C 0.26385 0.51781 0.35149 0.0
C341 C 0.31122 0.50719 0.33058 0.0
N342 N 0.23214 0.60092 0.37793 0.0
C343 C 0.17636 0.54418 0.39458 0.0
C344 C 0.20339 0.45899 0.36667 0.0
C345 C 0.16025 0.47239 0.38881 0.0
Gd346 Gd 0.17441 0.8286 0.32491 0.0
Gd347 Gd 0.26204 0.72312 0.38489 0.0
N348 N 0.35299 0.71813 0.35239 0.0
C349 C 0.45213 0.6998 0.31325 0.0
C350 C 0.41767 0.77733 0.3434 0.0
C351 C 0.46737 0.76935 0.32316 0.0
H352 H 0.43295 0.83053 0.35268 0.0
H353 H 0.5181 0.81684 0.31574 0.0
H354 H 0.01176 0.73552 0.36348 0.0
H355 H 0.14525 0.55412 0.41307 0.0
H356 H 0.93312 0.76203 0.39992 0.0
H357 H 0.49107 0.69378 0.29782 0.0
H358 H 0.41004 0.55823 0.30162 0.0
H359 H 0.31352 0.99178 0.30083 0.0
H360 H 0.19089 0.40327 0.3623 0.0
H361 H 0.11511 0.42754 0.40175 0.0
H362 H 0.06302 0.02421 0.40891 0.0
H363 H 0.30104 0.45262 0.32509 0.0
H364 H 0.28273 0.15849 0.34587 0.0
H365 H 0.35543 0.12212 0.31037 0.0
N366 N 0.21782 0.95434 0.33072 0.0
C367 C 0.17523 0.97324 0.34893 0.0
C368 C 0.28134 0.00677 0.31653 0.0
C369 C 0.2636 0.1011 0.3415 0.0
C370 C 0.30502 0.08078 0.32162 0.0
C371 C 0.19808 0.04716 0.35556 0.0
H372 H 0.17372 0.12123 0.3829 0.0
N373 N 0.09121 0.84735 0.35662 0.0
C374 C 0.10976 0.91831 0.36209 0.0
C375 C 1.00354 0.87875 0.39731 0.0
C376 C 0.06755 0.93582 0.38345 0.0
C377 C 0.0274 0.79151 0.36888 0.0
C378 C 0.98284 0.8064 0.38956 0.0
O379 O 0.22124 0.67301 0.3345 0.0
O380 O 0.24768 0.78317 0.31876 0.0
O381 O 0.08881 0.77381 0.28549 0.0
O382 O 0.18249 0.88177 0.27791 0.0
O383 O 0.33503 0.84539 0.37498 0.0
O384 O 0.30075 0.87965 0.32516 0.0
O385 O 0.17718 0.84886 0.38084 0.0
O386 O 0.23774 0.80185 0.41235 0.0
O387 O 0.34826 0.74393 0.41983 0.0
O388 O 0.23252 0.67315 0.43398 0.0
O389 O 0.09912 0.7058 0.33375 0.0
O390 O 0.14224 0.69237 0.38441 0.0
C391 C 0.22367 0.7158 0.31077 0.0
C392 C 0.34817 0.89168 0.3499 0.0
C393 C 0.0974 0.83959 0.23155 0.0
C394 C 0.01558 0.79982 0.18227 0.0
C395 C 0.11871 0.92329 0.18518 0.0
C396 C 0.13798 0.9086 0.21625 0.0
C397 C 0.05834 0.86984 0.16844 0.0
C398 C 0.03574 0.78424 0.21409 0.0
C399 C 0.12185 0.83024 0.26567 0.0
C400 C 0.09201 0.00934 0.39121 0.0
C401 C 0.15614 0.06484 0.3768 0.0
H402 H 0.96978 0.88983 0.41404 0.0
C403 C 0.20469 0.84031 0.40889 0.0
C404 C 0.09686 0.66394 0.359 0.0
C405 C 0.32252 0.69237 0.47535 0.0
C406 C 0.39056 0.74263 0.526 0.0
C407 C 0.29887 0.61412 0.52355 0.0
C408 C 0.28394 0.62351 0.49061 0.0
C409 C 0.35153 0.67348 0.54131 0.0
C410 C 0.3767 0.75205 0.49287 0.0
C411 C 0.30068 0.70358 0.4426 0.0
H412 H 0.15104 0.9767 0.17391 0.0
H413 H 0.18529 0.95231 0.22836 0.0
H414 H 0.04567 0.88308 0.14404 0.0
H415 H 1.00375 0.73047 0.22509 0.0
H416 H 0.26929 0.56106 0.53541 0.0
H417 H 0.24173 0.57736 0.47715 0.0
H418 H 0.36267 0.66548 0.56698 0.0
H419 H 0.40642 0.8055 0.4812 0.0
C420 C 0.70243 0.2764 0.70228 0.0
C421 C 0.77642 0.39159 0.67343 0.0
C422 C 0.71234 0.343 0.69088 0.0
C423 C 0.83 0.37207 0.66742 0.0
C424 C 0.75687 0.25744 0.6971 0.0
C425 C 0.82029 0.30523 0.67925 0.0
N426 N 0.63939 0.23014 0.71842 0.0
C427 C 0.63086 0.16848 0.73336 0.0
C428 C 0.74606 0.19125 0.71028 0.0
C429 C 0.68341 0.14731 0.72911 0.0
Gd430 Gd 0.34806 0.16959 0.65702 0.0
Gd431 Gd 0.5508 0.26543 0.7207 0.0
N432 N 0.65804 0.35895 0.69597 0.0
C433 C 0.78443 0.4581 0.6623 0.0
C434 C 0.66671 0.4248 0.68617 0.0
C435 C 0.7297 0.47505 0.66904 0.0
H436 H 0.62568 0.43943 0.69143 0.0
H437 H 0.73585 0.52675 0.66095 0.0
H438 H 0.27483 1.00026 0.68722 0.0
H439 H 0.58413 0.13651 0.74907 0.0
H440 H 0.16436 0.91369 0.719 0.0
H441 H 0.83284 0.49694 0.64876 0.0
H442 H 0.87935 0.40845 0.65379 0.0
H443 H 0.32473 0.31076 0.63424 0.0
H444 H 0.78653 0.17457 0.70686 0.0
H445 H 0.67584 0.09746 0.74051 0.0
H446 H 0.03394 0.04467 0.7329 0.0
H447 H 0.86241 0.29125 0.67469 0.0
H448 H 0.12346 0.27378 0.67709 0.0
H449 H 0.2352 0.35124 0.64418 0.0
N450 N 0.26409 0.21101 0.66115 0.0
C451 C 0.20042 0.1651 0.67701 0.0
C452 C 0.27617 0.27629 0.6486 0.0
C453 C 0.16195 0.25507 0.67228 0.0
C454 C 0.22525 0.29922 0.65393 0.0
C455 C 0.14897 0.1872 0.68413 0.0
H456 H 0.04896 0.15928 0.71072 0.0
N457 N 0.24154 0.0796 0.68248 0.0
C458 C 0.18816 0.0969 0.68757 0.0
C459 C 0.11826 0.98471 0.71845 0.0
C460 C 0.12663 0.05133 0.70703 0.0
C461 C 0.23284 0.01391 0.69235 0.0
C462 C 0.17069 0.96517 0.71039 0.0
O463 O 0.57764 0.2517 0.66733 0.0
O464 O 0.46699 0.22823 0.66246 0.0
O465 O 0.32721 0.08853 0.61821 0.0
O466 O 0.31806 0.18345 0.60663 0.0
O467 O 0.50783 0.34004 0.70356 0.0
O468 O 0.42218 0.29733 0.6583 0.0
O469 O 0.3169 0.16534 0.71265 0.0
O470 O 0.43203 0.21872 0.71916 0.0
O471 O 0.57966 0.34555 0.76025 0.0
O472 O 0.55544 0.23292 0.77123 0.0
O473 O 0.403 0.09978 0.66767 0.0
O474 O 0.46405 0.14471 0.71805 0.0
C475 C 0.5234 0.23312 0.64737 0.0
C476 C 0.46987 0.34921 0.67924 0.0
C477 C 0.24463 0.07616 0.57502 0.0
C478 C 0.18884 0.99559 0.52677 0.0
C479 C 0.1197 0.0375 0.55957 0.0
C480 C 0.17925 0.07655 0.58065 0.0
C481 C 0.12432 0.99731 0.53276 0.0
C482 C 0.24898 0.0351 0.54805 0.0
C483 C 0.30977 0.12164 0.59568 0.0
C484 C 0.07794 0.07557 0.71586 0.0
C485 C 0.08783 0.14219 0.70383 0.0
H486 H 0.0723 0.94835 0.73387 0.0
C487 C 0.36972 0.19606 0.73394 0.0
C488 C 0.44709 0.10084 0.69186 0.0
C489 C 0.58198 0.31278 0.81819 0.0
C490 C 0.62475 0.40058 0.86283 0.0
C491 C 0.56238 0.27089 0.87577 0.0
C492 C 0.55461 0.25548 0.84166 0.0
C493 C 0.59744 0.34317 0.8864 0.0
C494 C 0.61696 0.38536 0.82881 0.0
C495 C 0.57134 0.2969 0.78269 0.0
H496 H 0.07011 0.03924 0.56384 0.0
H497 H 0.17454 0.10791 0.60103 0.0
H498 H 0.07778 0.96808 0.51647 0.0
H499 H 0.29939 0.03497 0.54325 0.0
H500 H 0.54192 0.22695 0.89394 0.0
H501 H 0.52686 0.19897 0.83368 0.0
H502 H 0.60518 0.35448 0.91302 0.0
H503 H 0.63913 0.42989 0.81084 0.0
C504 C 0.21322 0.74304 0.25185 0.0
C505 C 0.20322 0.69112 0.27639 0.0
C506 C 0.21517 0.72843 0.21811 0.0
C507 C 0.21197 0.66328 0.20853 0.0
H508 H 0.22908 0.7984 0.25865 0.0
H509 H 0.2327 0.77297 0.20034 0.0
S510 S 0.16796 0.50292 0.26176 0.0
N511 N 0.17464 0.56631 0.28807 0.0
N512 N 0.18088 0.53979 0.22408 0.0
C513 C 0.18974 0.60645 0.2319 0.0
C514 C 0.18678 0.62089 0.26635 0.0
C515 C 0.48433 0.23706 0.59012 0.0
C516 C 0.52809 0.22319 0.61158 0.0
C517 C 0.49858 0.24677 0.55596 0.0
C518 C 0.56025 0.24756 0.54273 0.0
H519 H 0.44496 0.24995 0.60019 0.0
H520 H 0.4664 0.26234 0.54058 0.0
S521 S 0.69129 0.21082 0.58837 0.0
N522 N 0.63248 0.20515 0.61715 0.0
N523 N 0.66284 0.22788 0.55285 0.0
C524 C 0.60195 0.22851 0.56343 0.0
C525 C 0.58577 0.21645 0.59814 0.0
C526 C 0.25561 0.47757 0.92129 0.0
C527 C 0.31182 0.50183 0.94488 0.0
C528 C 0.27172 0.49466 0.8874 0.0
C529 C 0.34413 0.54074 0.87738 0.0
H530 H 0.19962 0.45468 0.92934 0.0
H531 H 0.22763 0.48565 0.87081 0.0
S532 S 0.50975 0.59272 0.92658 0.0
N533 N 0.44198 0.55483 0.95381 0.0
N534 N 0.47122 0.5858 0.88988 0.0
C535 C 0.39971 0.54929 0.89887 0.0
C536 C 0.38391 0.53297 0.93337 0.0
C537 C 0.81743 0.3751 0.26597 0.0
C538 C 0.78815 0.30059 0.27274 0.0
C539 C 0.81631 0.39898 0.23371 0.0
C540 C 0.77956 0.34797 0.20844 0.0
H541 H 0.83555 0.41468 0.28607 0.0
H542 H 0.83186 0.45583 0.2301 0.0
S543 S 0.7078 0.14901 0.21104 0.0
N544 N 0.73406 0.17722 0.24971 0.0
N545 N 0.72872 0.22332 0.18916 0.0
C546 C 0.76029 0.27509 0.21332 0.0
C547 C 0.76329 0.25054 0.24595 0.0
C548 C 0.45066 0.83368 0.60366 0.0
C549 C 0.50031 0.80938 0.61069 0.0
C550 C 0.42532 0.83041 0.57112 0.0
C551 C 0.44845 0.80166 0.54525 0.0
H552 H 0.42549 0.84801 0.62375 0.0
H553 H 0.37884 0.8381 0.56747 0.0
S554 S 0.59064 0.75031 0.54799 0.0
N555 N 0.57801 0.7655 0.58736 0.0
N556 N 0.53829 0.77151 0.52574 0.0
C557 C 0.50946 0.794 0.55041 0.0
C558 C 0.53193 0.79218 0.58367 0.0
C559 C 0.66656 0.52228 0.92925 0.0
C560 C 0.73189 0.52392 0.9375 0.0
C561 C 0.63583 0.49912 0.8977 0.0
C562 C 0.66953 0.47528 0.87473 0.0
H563 H 0.6351 0.53177 0.94752 0.0
H564 H 0.57985 0.48592 0.89403 0.0
S565 S 0.85913 0.51263 0.87739 0.0
N566 N 0.84307 0.53282 0.91536 0.0
N567 N 0.78418 0.48803 0.85568 0.0
C568 C 0.74329 0.49812 0.87911 0.0
C569 C 0.77462 0.52143 0.91127 0.0
C570 C 0.47643 0.53507 0.02161 0.0
C571 C 0.42954 0.46159 0.01362 0.0
C572 C 0.5524 0.56748 0.02075 0.0
C573 C 0.58536 0.52817 0.00965 0.0
H574 H 0.45355 0.56926 0.02538 0.0
H575 H 0.58543 0.62388 0.02844 0.0
S576 S 0.48668 0.34261 0.97112 0.0
N577 N 0.42108 0.35627 0.98535 0.0
N578 N 0.56376 0.41614 0.98143 0.0
C579 C 0.53894 0.45689 0.99678 0.0
C580 C 0.46105 0.42385 -0.00114 0.0
C581 C 0.0287 0.54051 0.38677 0.0
C582 C 0.04766 0.5825 0.3573 0.0
C583 C 0.99213 0.46365 0.38598 0.0
C584 C 0.96761 0.42432 0.35582 0.0
H585 H 0.04356 0.56737 0.4109 0.0
H586 H 0.98075 0.43464 0.4096 0.0
S587 S 0.99793 0.50758 0.27115 0.0
N588 N 0.0352 0.57831 0.2967 0.0
N589 N 0.96698 0.43435 0.29524 0.0
C590 C 0.98563 0.4655 0.32598 0.0
C591 C 0.02376 0.54417 0.32677 0.0
C592 C 0.48351 0.01976 0.72161 0.0
C593 C 0.47485 0.04823 0.69126 0.0
C594 C 0.52105 0.98061 0.72314 0.0
C595 C 0.5474 0.9635 0.69413 0.0
H596 H 0.46339 0.03018 0.74477 0.0
H597 H 0.52855 0.96261 0.74745 0.0
S598 S 0.53754 0.02359 0.60783 0.0
N599 N 0.49551 0.05621 0.63114 0.0
N600 N 0.56431 0.98083 0.63385 0.0
C601 C 0.539 0.99141 0.66342 0.0
C602 C 0.50176 0.03269 0.66193 0.0
C603 C 0.53879 0.54772 0.65114 0.0
C604 C 0.53532 0.58066 0.68147 0.0
C605 C 0.51329 0.47134 0.6492 0.0
C606 C 0.48277 0.42544 0.67744 0.0
H607 H 0.56037 0.58075 0.62876 0.0
H608 H 0.51928 0.44859 0.62588 0.0
S609 S 0.45863 0.48218 0.76199 0.0
N610 N 0.49829 0.55855 0.74011 0.0
N611 N 0.44862 0.41802 0.73561 0.0
C612 C 0.47803 0.45761 0.70725 0.0
C613 C 0.50482 0.53415 0.70952 0.0
C614 C 0.05348 0.51572 0.03743 0.0
C615 C 0.06422 0.48035 0.0096 0.0
C616 C 1.00627 0.54453 0.03627 0.0
C617 C 0.96716 0.54033 0.00721 0.0
H618 H 0.08138 0.52099 0.06083 0.0
H619 H 0.99858 0.56852 0.05885 0.0
S620 S 0.9694 0.44909 0.92817 0.0
N621 N 0.02831 0.44092 0.95222 0.0
N622 N 0.93844 0.49386 0.95055 0.0
C623 C 0.97631 0.50479 0.97929 0.0
C624 C 0.0247 0.47503 0.98039 0.0
C625 C 0.46131 0.99046 0.37614 0.0
C626 C 0.426 0.95146 0.34711 0.0
C627 C 0.53701 0.03785 0.377 0.0
C628 C 0.58232 0.04876 0.34889 0.0
H629 H 0.43002 0.98332 0.3988 0.0
H630 H 0.56005 0.06636 0.40024 0.0
S631 S 0.51764 0.95473 0.26707 0.0
N632 N 0.44247 0.92366 0.28977 0.0
N633 N 0.58481 0.0131 0.29114 0.0
C634 C 0.54775 0.00928 0.31961 0.0
C635 C 0.46987 0.96107 0.31871 0.0
C636 C 0.38123 0.2682 0.78632 0.0
C637 C 0.35479 0.20022 0.77028 0.0
C638 C 0.34411 0.27665 0.81412 0.0
C639 C 0.28063 0.21671 0.82744 0.0
H640 H 0.42661 0.31611 0.7755 0.0
H641 H 0.36125 0.33121 0.82315 0.0
S642 S 0.20275 0.02388 0.8006 0.0
N643 N 0.27043 0.07015 0.77402 0.0
N644 N 0.20314 0.08488 0.82667 0.0
C645 C 0.26082 0.14708 0.8146 0.0
C646 C 0.29727 0.13905 0.78599 0.0
C647 C 0.02482 0.27739 0.13628 0.0
C648 C 0.06222 0.26579 0.16247 0.0
C649 C 0.06068 0.31249 0.10628 0.0
C650 C 0.13579 0.33881 0.10134 0.0
H651 H 0.96655 0.25558 0.13822 0.0
H652 H 0.02872 0.31723 0.08632 0.0
S653 S 0.25961 0.32611 0.16312 0.0
N654 N 0.17931 0.28598 0.182 0.0
N655 N 0.24687 0.35353 0.12627 0.0
C656 C 0.17458 0.33086 0.12805 0.0
C657 C 0.13776 0.2939 0.15835 0.0
C658 C 0.75821 0.02457 0.47366 0.0
C659 C 0.81081 0.06219 0.49849 0.0
C660 C 0.75763 0.05921 0.44351 0.0
C661 C 0.80856 0.13324 0.43731 0.0
H662 H 0.71941 0.96702 0.47686 0.0
H663 H 0.71744 0.02752 0.42471 0.0
S664 S 0.95571 0.25687 0.49485 0.0
N665 N 0.91422 0.17805 0.51504 0.0
N666 N 0.91158 0.2435 0.45919 0.0
C667 C 0.85951 0.1722 0.46252 0.0
C668 C 0.86105 0.1366 0.49285 0.0
C669 C 0.71165 0.87167 0.78652 0.0
C670 C 0.65128 0.80879 0.77337 0.0
C671 C 0.74981 0.86834 0.81462 0.0
C672 C 0.72989 0.80167 0.831 0.0
H673 H 0.73448 0.92276 0.77287 0.0
H674 H 0.79986 0.91718 0.82139 0.0
S675 S 0.56174 0.62698 0.81442 0.0
N676 N 0.56276 0.68195 0.78462 0.0
N677 N 0.63495 0.67559 0.83732 0.0
C678 C 0.66316 0.74113 0.8216 0.0
C679 C 0.62384 0.74464 0.79281 0.0
C680 C 0.95578 0.68496 0.14733 0.0
C681 C 0.95381 0.74541 0.161 0.0
C682 C 0.91369 0.64774 0.11902 0.0
C683 C 0.86837 0.66984 0.10283 0.0
H684 H 0.99406 0.66964 0.157 0.0
H685 H 0.92023 0.60395 0.1086 0.0
S686 S 0.83032 0.8134 0.13405 0.0
N687 N 0.89305 0.81735 0.15978 0.0
N688 N 0.81434 0.74778 0.10703 0.0
C689 C 0.86067 0.72562 0.11835 0.0
C690 C 0.9031 0.76309 0.14725 0.0
C691 C 0.21665 0.99035 0.46609 0.0
C692 C 0.19373 0.95513 0.49731 0.0
C693 C 0.21917 0.95256 0.43753 0.0
C694 C 0.19912 0.87826 0.43918 0.0
H695 H 0.23263 0.04754 0.46375 0.0
H696 H 0.2384 0.98214 0.41415 0.0
S697 S 0.13111 0.76022 0.51467 0.0
N698 N 0.14752 0.8412 0.52796 0.0
N699 N 0.15321 0.77035 0.47449 0.0
C700 C 0.17559 0.84235 0.47025 0.0
C701 C 0.17244 0.8807 0.49924 0.0
loop_
_geom_bond_atom_site_label_1
_geom_bond_atom_site_label_2
_geom_bond_distance
_geom_bond_site_symmetry_2
_ccdc_geom_bond_type
C0 C2 1.422 . S
C0 C4 1.415 . S
C0 N6 1.369 . S
C1 C2 1.421 . S
C1 C3 1.417 . S
C1 C13 1.422 1_554 S
C2 C0 1.422 . S
C2 C1 1.421 . S
C2 N12 1.359 . S
C3 C1 1.417 . S
C3 C5 1.329 . S
C3 H22 0.930 1_554 S
C4 C0 1.415 . S
C4 C5 1.437 . S
C4 C8 1.413 . S
C5 C3 1.329 . S
C5 C4 1.437 . S
C5 H27 0.929 . S
N6 C0 1.369 . S
N6 C7 1.338 . S
N6 Gd11 2.622 . S
C7 N6 1.338 . S
C7 C9 1.378 . S
C7 H19 0.929 . S
C8 C4 1.413 . S
C8 C9 1.348 . S
C8 H24 0.931 . S
C9 C7 1.378 . S
C9 C8 1.348 . S
C9 H25 0.930 . S
Gd10 N30 2.622 1_556 S
Gd10 N37 2.570 1_556 S
Gd10 O44 2.353 . S
Gd10 O45 2.468 . S
Gd10 O46 2.427 . S
Gd10 O48 2.388 . S
Gd10 O49 2.386 1_556 S
Gd10 O53 2.307 1_556 S
Gd10 C63 2.805 . S
Gd11 N6 2.622 . S
Gd11 N12 2.570 . S
Gd11 O43 2.386 1_554 S
Gd11 O47 2.307 . S
Gd11 O50 2.353 . S
Gd11 O51 2.468 . S
Gd11 O52 2.427 . S
Gd11 O54 2.388 . S
Gd11 C75 2.805 . S
N12 C2 1.359 . S
N12 Gd11 2.570 . S
N12 C14 1.343 . S
C13 C1 1.422 1_556 S
C13 C15 1.321 1_556 S
C13 H21 0.931 . S
C14 N12 1.343 . S
C14 C15 1.390 . S
C14 H16 0.931 . S
C15 C13 1.321 1_554 S
C15 C14 1.390 . S
C15 H17 0.924 1_554 S
H16 C14 0.931 . S
H17 C15 0.924 1_556 S
H18 C41 0.931 . S
H19 C7 0.929 . S
H20 C42 0.930 . S
H21 C13 0.931 . S
H22 C3 0.930 1_556 S
H23 C32 0.929 . S
H24 C8 0.931 . S
H25 C9 0.930 . S
H26 C64 0.930 1_565 S
H27 C5 0.929 . S
H28 C33 0.931 . S
H29 C34 0.930 . S
N30 Gd10 2.622 1_554 S
N30 C31 1.368 . S
N30 C32 1.338 1_454 S
C31 N30 1.368 . S
C31 C35 1.415 1_455 S
C31 C38 1.422 . S
C32 H23 0.929 . S
C32 N30 1.338 1_656 S
C32 C34 1.378 . S
C33 H28 0.931 . S
C33 C34 1.348 1_554 S
C33 C35 1.413 . S
C34 H29 0.930 . S
C34 C32 1.378 . S
C34 C33 1.348 1_556 S
C35 C31 1.415 1_655 S
C35 C33 1.413 . S
C35 C65 1.437 . S
H36 C65 0.929 1_565 S
N37 Gd10 2.570 1_554 S
N37 C38 1.359 . S
N37 C41 1.343 . S
C38 C31 1.422 . S
C38 N37 1.359 . S
C38 C40 1.421 . S
C39 C40 1.422 . S
C39 C42 1.321 . S
C39 H66 0.931 . S
C40 C38 1.421 . S
C40 C39 1.422 . S
C40 C64 1.417 1_455 S
C41 H18 0.931 . S
C41 N37 1.343 . S
C41 C42 1.390 . S
C42 H20 0.930 . S
C42 C39 1.321 . S
C42 C41 1.390 . S
O43 Gd11 2.386 1_556 S
O43 C55 1.265 . S
O44 Gd10 2.353 . S
O44 C55 1.242 . S
O45 Gd10 2.468 . S
O45 C63 1.263 . S
O46 Gd10 2.427 . S
O46 C63 1.252 . S
O47 Gd11 2.307 . S
O47 C56 1.261 . S
O48 Gd10 2.388 . S
O48 C56 1.252 1_556 S
O49 Gd10 2.386 1_554 S
O49 C67 1.265 . S
O50 Gd11 2.353 . S
O50 C67 1.242 . S
O51 Gd11 2.468 . S
O51 C75 1.263 . S
O52 Gd11 2.427 . S
O52 C75 1.252 . S
O53 Gd10 2.307 1_554 S
O53 C68 1.261 . S
O54 Gd11 2.388 . S
O54 C68 1.252 . S
C55 O43 1.265 . S
C55 O44 1.242 . S
C56 O47 1.261 . S
C56 O48 1.252 1_554 S
C57 C60 1.394 . S
C57 C62 1.370 . S
C57 C63 1.500 . S
C58 C61 1.383 . S
C58 C62 1.395 . S
C59 C60 1.396 . S
C59 C61 1.365 . S
C59 H76 0.929 . S
C60 C57 1.394 . S
C60 C59 1.396 . S
C60 H77 0.930 . S
C61 C58 1.383 . S
C61 C59 1.365 . S
C61 H78 0.931 . S
C62 C57 1.370 . S
C62 C58 1.395 . S
C62 H79 0.930 . S
C63 Gd10 2.805 . S
C63 O45 1.263 . S
C63 O46 1.252 . S
C63 C57 1.500 . S
C64 H26 0.930 1_545 S
C64 C40 1.417 1_655 S
C64 C65 1.329 . S
C65 C35 1.437 . S
C65 H36 0.929 1_545 S
C65 C64 1.329 . S
H66 C39 0.931 . S
C67 O49 1.265 . S
C67 O50 1.242 . S
C68 O53 1.261 . S
C68 O54 1.252 . S
C69 C72 1.394 . S
C69 C74 1.370 . S
C69 C75 1.500 . S
C70 C73 1.383 . S
C70 C74 1.395 . S
C71 C72 1.396 . S
C71 C73 1.365 . S
C71 H80 0.929 . S
C72 C69 1.394 . S
C72 C71 1.396 . S
C72 H81 0.930 . S
C73 C70 1.383 . S
C73 C71 1.365 . S
C73 H82 0.931 . S
C74 C69 1.370 . S
C74 C70 1.395 . S
C74 H83 0.930 . S
C75 Gd11 2.805 . S
C75 O51 1.263 . S
C75 O52 1.252 . S
C75 C69 1.500 . S
H76 C59 0.929 . S
H77 C60 0.930 . S
H78 C61 0.931 . S
H79 C62 0.930 . S
H80 C71 0.929 . S
H81 C72 0.930 . S
H82 C73 0.931 . S
H83 C74 0.930 . S
C84 C86 1.422 . S
C84 C88 1.415 . S
C84 N90 1.369 . S
C85 C86 1.421 . S
C85 C87 1.417 . S
C85 C97 1.422 . S
C86 C84 1.422 . S
C86 C85 1.421 . S
C86 N96 1.359 . S
C87 C85 1.417 . S
C87 C89 1.329 . S
C87 H106 0.930 . S
C88 C84 1.415 . S
C88 C89 1.437 . S
C88 C92 1.413 . S
C89 C87 1.329 . S
C89 C88 1.437 . S
C89 H111 0.929 . S
N90 C84 1.369 . S
N90 C91 1.338 . S
N90 Gd95 2.622 . S
C91 N90 1.338 . S
C91 C93 1.378 . S
C91 H103 0.929 . S
C92 C88 1.413 . S
C92 C93 1.348 . S
C92 H108 0.931 . S
C93 C91 1.378 . S
C93 C92 1.348 . S
C93 H109 0.930 . S
Gd94 N114 2.622 . S
Gd94 N121 2.570 . S
Gd94 O128 2.353 . S
Gd94 O129 2.468 . S
Gd94 O130 2.427 . S
Gd94 O132 2.388 . S
Gd94 O133 2.386 . S
Gd94 O137 2.307 . S
Gd94 C147 2.805 . S
Gd95 N90 2.622 . S
Gd95 N96 2.570 . S
Gd95 O127 2.386 . S
Gd95 O131 2.307 . S
Gd95 O134 2.353 . S
Gd95 O135 2.468 . S
Gd95 O136 2.427 . S
Gd95 O138 2.388 . S
Gd95 C159 2.805 . S
N96 C86 1.359 . S
N96 Gd95 2.570 . S
N96 C98 1.343 . S
C97 C85 1.422 . S
C97 C99 1.321 . S
C97 H105 0.931 . S
C98 N96 1.343 . S
C98 C99 1.390 . S
C98 H100 0.931 . S
C99 C97 1.321 . S
C99 C98 1.390 . S
C99 H101 0.930 . S
H100 C98 0.931 . S
H101 C99 0.930 . S
H102 C125 0.931 . S
H103 C91 0.929 . S
H104 C126 0.930 . S
H105 C97 0.931 . S
H106 C87 0.930 . S
H107 C116 0.929 . S
H108 C92 0.931 . S
H109 C93 0.930 . S
H110 C148 0.930 . S
H111 C89 0.929 . S
H112 C117 0.931 . S
H113 C118 0.930 . S
N114 Gd94 2.622 . S
N114 C115 1.369 . S
N114 C116 1.338 1_545 S
C115 N114 1.369 . S
C115 C119 1.415 1_545 S
C115 C122 1.422 . S
C116 H107 0.929 . S
C116 N114 1.338 1_565 S
C116 C118 1.378 . S
C117 H112 0.931 . S
C117 C118 1.348 . S
C117 C119 1.413 . S
C118 H113 0.930 . S
C118 C116 1.378 . S
C118 C117 1.348 . S
C119 C115 1.415 1_565 S
C119 C117 1.413 . S
C119 C149 1.437 . S
H120 C149 0.929 . S
N121 Gd94 2.570 . S
N121 C122 1.359 . S
N121 C125 1.343 1_655 S
C122 C115 1.422 . S
C122 N121 1.359 . S
C122 C124 1.421 . S
C123 C124 1.422 1_455 S
C123 C126 1.321 . S
C123 H150 0.931 . S
C124 C122 1.421 . S
C124 C123 1.422 1_655 S
C124 C148 1.417 1_545 S
C125 H102 0.931 . S
C125 N121 1.343 1_455 S
C125 C126 1.390 . S
C126 H104 0.930 . S
C126 C123 1.321 . S
C126 C125 1.390 . S
O127 Gd95 2.386 . S
O127 C139 1.265 . S
O128 Gd94 2.353 . S
O128 C139 1.242 . S
O129 Gd94 2.468 . S
O129 C147 1.263 . S
O130 Gd94 2.427 . S
O130 C147 1.252 . S
O131 Gd95 2.307 . S
O131 C140 1.261 . S
O132 Gd94 2.388 . S
O132 C140 1.252 . S
O133 Gd94 2.386 . S
O133 C151 1.265 . S
O134 Gd95 2.353 . S
O134 C151 1.242 . S
O135 Gd95 2.468 . S
O135 C159 1.263 . S
O136 Gd95 2.427 . S
O136 C159 1.252 . S
O137 Gd94 2.307 . S
O137 C152 1.261 . S
O138 Gd95 2.388 . S
O138 C152 1.252 . S
C139 O127 1.265 . S
C139 O128 1.242 . S
C140 O131 1.261 . S
C140 O132 1.252 . S
C141 C144 1.394 . S
C141 C146 1.370 1_655 S
C141 C147 1.500 . S
C142 C145 1.383 . S
C142 C146 1.395 . S
C143 C144 1.396 . S
C143 C145 1.365 1_655 S
C143 H160 0.929 . S
C144 C141 1.394 . S
C144 C143 1.396 . S
C144 H161 0.930 . S
C145 C142 1.383 . S
C145 C143 1.365 1_455 S
C145 H162 0.931 . S
C146 C141 1.370 1_455 S
C146 C142 1.395 . S
C146 H163 0.930 . S
C147 Gd94 2.805 . S
C147 O129 1.263 . S
C147 O130 1.252 . S
C147 C141 1.500 . S
C148 H110 0.930 . S
C148 C124 1.417 1_565 S
C148 C149 1.329 . S
C149 C119 1.437 . S
C149 H120 0.929 . S
C149 C148 1.329 . S
H150 C123 0.931 . S
C151 O133 1.265 . S
C151 O134 1.242 . S
C152 O137 1.261 . S
C152 O138 1.252 . S
C153 C156 1.394 . S
C153 C158 1.370 . S
C153 C159 1.500 . S
C154 C157 1.383 . S
C154 C158 1.395 . S
C155 C156 1.396 . S
C155 C157 1.365 . S
C155 H164 0.929 . S
C156 C153 1.394 . S
C156 C155 1.396 . S
C156 H165 0.930 . S
C157 C154 1.383 . S
C157 C155 1.365 . S
C157 H166 0.931 . S
C158 C153 1.370 . S
C158 C154 1.395 . S
C158 H167 0.930 . S
C159 Gd95 2.805 . S
C159 O135 1.263 . S
C159 O136 1.252 . S
C159 C153 1.500 . S
H160 C143 0.929 . S
H161 C144 0.930 . S
H162 C145 0.931 . S
H163 C146 0.930 . S
H164 C155 0.929 . S
H165 C156 0.930 . S
H166 C157 0.931 . S
H167 C158 0.930 . S
C168 C170 1.422 . S
C168 C172 1.415 . S
C168 N174 1.369 . S
C169 C170 1.421 . S
C169 C171 1.417 . S
C169 C181 1.422 . S
C170 C168 1.422 . S
C170 C169 1.421 . S
C170 N180 1.359 . S
C171 C169 1.417 . S
C171 C173 1.329 . S
C171 H190 0.930 . S
C172 C168 1.415 . S
C172 C173 1.437 . S
C172 C176 1.413 . S
C173 C171 1.329 . S
C173 C172 1.437 . S
C173 H195 0.929 . S
N174 C168 1.369 . S
N174 C175 1.338 . S
N174 Gd179 2.622 . S
C175 N174 1.338 . S
C175 C177 1.378 . S
C175 H187 0.929 . S
C176 C172 1.413 . S
C176 C177 1.348 . S
C176 H192 0.931 . S
C177 C175 1.378 . S
C177 C176 1.348 . S
C177 H193 0.930 . S
Gd178 N198 2.622 . S
Gd178 N205 2.570 . S
Gd178 O212 2.353 . S
Gd178 O213 2.468 . S
Gd178 O214 2.427 . S
Gd178 O216 2.388 . S
Gd178 O217 2.386 . S
Gd178 O221 2.307 . S
Gd178 C231 2.805 . S
Gd179 N174 2.622 . S
Gd179 N180 2.570 . S
Gd179 O211 2.386 . S
Gd179 O215 2.307 . S
Gd179 O218 2.353 . S
Gd179 O219 2.468 . S
Gd179 O220 2.427 . S
Gd179 O222 2.388 . S
Gd179 C243 2.805 . S
N180 C170 1.359 . S
N180 Gd179 2.570 . S
N180 C182 1.343 . S
C181 C169 1.422 . S
C181 C183 1.321 . S
C181 H189 0.931 . S
C182 N180 1.343 . S
C182 C183 1.390 . S
C182 H184 0.931 . S
C183 C181 1.321 . S
C183 C182 1.390 . S
C183 H185 0.930 . S
H184 C182 0.931 . S
H185 C183 0.930 . S
H186 C209 0.931 . S
H187 C175 0.929 . S
H188 C210 0.930 . S
H189 C181 0.931 . S
H190 C171 0.930 . S
H191 C200 0.929 . S
H192 C176 0.931 . S
H193 C177 0.930 . S
H194 C232 0.930 1_455 S
H195 C173 0.929 . S
H196 C201 0.931 . S
H197 C202 0.930 . S
N198 Gd178 2.622 . S
N198 C199 1.369 . S
N198 C200 1.338 . S
C199 N198 1.369 . S
C199 C203 1.415 . S
C199 C206 1.422 . S
C200 H191 0.929 . S
C200 N198 1.338 . S
C200 C202 1.378 . S
C201 H196 0.931 . S
C201 C202 1.348 . S
C201 C203 1.413 . S
C202 H197 0.930 . S
C202 C200 1.378 . S
C202 C201 1.348 . S
C203 C199 1.415 . S
C203 C201 1.413 . S
C203 C233 1.437 . S
H204 C233 0.929 1_455 S
N205 Gd178 2.570 . S
N205 C206 1.359 . S
N205 C209 1.343 1_565 S
C206 C199 1.422 . S
C206 N205 1.359 . S
C206 C208 1.421 . S
C207 C208 1.422 1_545 S
C207 C210 1.321 . S
C207 H234 0.931 . S
C208 C206 1.421 . S
C208 C207 1.422 1_565 S
C208 C232 1.417 . S
C209 H186 0.931 . S
C209 N205 1.343 1_545 S
C209 C210 1.390 . S
C210 H188 0.930 . S
C210 C207 1.321 . S
C210 C209 1.390 . S
O211 Gd179 2.386 . S
O211 C223 1.265 . S
O212 Gd178 2.353 . S
O212 C223 1.242 . S
O213 Gd178 2.468 . S
O213 C231 1.263 . S
O214 Gd178 2.427 . S
O214 C231 1.252 . S
O215 Gd179 2.307 . S
O215 C224 1.261 . S
O216 Gd178 2.388 . S
O216 C224 1.252 . S
O217 Gd178 2.386 . S
O217 C235 1.265 . S
O218 Gd179 2.353 . S
O218 C235 1.242 . S
O219 Gd179 2.468 . S
O219 C243 1.263 . S
O220 Gd179 2.427 . S
O220 C243 1.252 . S
O221 Gd178 2.307 . S
O221 C236 1.261 . S
O222 Gd179 2.388 . S
O222 C236 1.252 . S
C223 O211 1.265 . S
C223 O212 1.242 . S
C224 O215 1.261 . S
C224 O216 1.252 . S
C225 C228 1.394 . S
C225 C230 1.370 1_565 S
C225 C231 1.500 . S
C226 C229 1.383 . S
C226 C230 1.395 . S
C227 C228 1.396 . S
C227 C229 1.365 1_565 S
C227 H244 0.929 . S
C228 C225 1.394 . S
C228 C227 1.396 . S
C228 H245 0.930 . S
C229 C226 1.383 . S
C229 C227 1.365 1_545 S
C229 H246 0.931 . S
C230 C225 1.370 1_545 S
C230 C226 1.395 . S
C230 H247 0.930 . S
C231 Gd178 2.805 . S
C231 O213 1.263 . S
C231 O214 1.252 . S
C231 C225 1.500 . S
C232 H194 0.930 1_655 S
C232 C208 1.417 . S
C232 C233 1.329 . S
C233 C203 1.437 . S
C233 H204 0.929 1_655 S
C233 C232 1.329 . S
H234 C207 0.931 . S
C235 O217 1.265 . S
C235 O218 1.242 . S
C236 O221 1.261 . S
C236 O222 1.252 . S
C237 C240 1.394 . S
C237 C242 1.370 . S
C237 C243 1.500 . S
C238 C241 1.383 . S
C238 C242 1.395 . S
C239 C240 1.396 . S
C239 C241 1.365 . S
C239 H248 0.929 . S
C240 C237 1.394 . S
C240 C239 1.396 . S
C240 H249 0.930 . S
C241 C238 1.383 . S
C241 C239 1.365 . S
C241 H250 0.931 . S
C242 C237 1.370 . S
C242 C238 1.395 . S
C242 H251 0.930 . S
C243 Gd179 2.805 . S
C243 O219 1.263 . S
C243 O220 1.252 . S
C243 C237 1.500 . S
H244 C227 0.929 . S
H245 C228 0.930 . S
H246 C229 0.931 . S
H247 C230 0.930 . S
H248 C239 0.929 . S
H249 C240 0.930 . S
H250 C241 0.931 . S
H251 C242 0.930 . S
C252 C254 1.422 . S
C252 C256 1.415 . S
C252 N258 1.369 . S
C253 C254 1.421 . S
C253 C255 1.417 . S
C253 C265 1.422 1_554 S
C254 C252 1.422 . S
C254 C253 1.421 . S
C254 N264 1.359 . S
C255 C253 1.417 . S
C255 C257 1.329 . S
C255 H274 0.930 1_554 S
C256 C252 1.415 . S
C256 C257 1.437 . S
C256 C260 1.413 . S
C257 C255 1.329 . S
C257 C256 1.437 . S
C257 H279 0.929 . S
N258 C252 1.369 . S
N258 C259 1.338 . S
N258 Gd263 2.622 . S
C259 N258 1.338 . S
C259 C261 1.378 . S
C259 H271 0.929 . S
C260 C256 1.413 . S
C260 C261 1.348 . S
C260 H276 0.931 . S
C261 C259 1.378 . S
C261 C260 1.348 . S
C261 H277 0.930 . S
Gd262 N282 2.622 1_556 S
Gd262 N289 2.570 1_556 S
Gd262 O296 2.353 . S
Gd262 O297 2.468 . S
Gd262 O298 2.427 . S
Gd262 O300 2.388 . S
Gd262 O301 2.386 1_556 S
Gd262 O305 2.307 1_556 S
Gd262 C315 2.805 . S
Gd263 N258 2.622 . S
Gd263 N264 2.570 . S
Gd263 O295 2.386 1_554 S
Gd263 O299 2.307 . S
Gd263 O302 2.353 . S
Gd263 O303 2.468 . S
Gd263 O304 2.427 . S
Gd263 O306 2.388 . S
Gd263 C327 2.805 . S
N264 C254 1.359 . S
N264 Gd263 2.570 . S
N264 C266 1.343 . S
C265 C253 1.422 1_556 S
C265 C267 1.321 1_556 S
C265 H273 0.931 . S
C266 N264 1.343 . S
C266 C267 1.390 . S
C266 H268 0.931 . S
C267 C265 1.321 1_554 S
C267 C266 1.390 . S
C267 H269 0.924 1_554 S
H268 C266 0.931 . S
H269 C267 0.924 1_556 S
H270 C293 0.931 . S
H271 C259 0.929 . S
H272 C294 0.930 . S
H273 C265 0.931 . S
H274 C255 0.930 1_556 S
H275 C284 0.929 . S
H276 C260 0.931 . S
H277 C261 0.930 . S
H278 C316 0.930 1_545 S
H279 C257 0.929 . S
H280 C285 0.931 . S
H281 C286 0.930 . S
N282 Gd262 2.622 1_554 S
N282 C283 1.368 . S
N282 C284 1.338 1_654 S
C283 N282 1.368 . S
C283 C287 1.415 1_655 S
C283 C290 1.422 . S
C284 H275 0.929 . S
C284 N282 1.338 1_456 S
C284 C286 1.378 . S
C285 H280 0.931 . S
C285 C286 1.348 1_554 S
C285 C287 1.413 . S
C286 H281 0.930 . S
C286 C284 1.378 . S
C286 C285 1.348 1_556 S
C287 C283 1.415 1_455 S
C287 C285 1.413 . S
C287 C317 1.437 . S
H288 C317 0.929 1_545 S
N289 Gd262 2.570 1_554 S
N289 C290 1.359 . S
N289 C293 1.343 . S
C290 C283 1.422 . S
C290 N289 1.359 . S
C290 C292 1.421 . S
C291 C292 1.422 . S
C291 C294 1.321 . S
C291 H318 0.931 . S
C292 C290 1.421 . S
C292 C291 1.422 . S
C292 C316 1.417 1_655 S
C293 H270 0.931 . S
C293 N289 1.343 . S
C293 C294 1.390 . S
C294 H272 0.930 . S
C294 C291 1.321 . S
C294 C293 1.390 . S
O295 Gd263 2.386 1_556 S
O295 C307 1.265 . S
O296 Gd262 2.353 . S
O296 C307 1.242 . S
O297 Gd262 2.468 . S
O297 C315 1.263 . S
O298 Gd262 2.427 . S
O298 C315 1.252 . S
O299 Gd263 2.307 . S
O299 C308 1.261 . S
O300 Gd262 2.388 . S
O300 C308 1.252 1_556 S
O301 Gd262 2.386 1_554 S
O301 C319 1.265 . S
O302 Gd263 2.353 . S
O302 C319 1.242 . S
O303 Gd263 2.468 . S
O303 C327 1.263 . S
O304 Gd263 2.427 . S
O304 C327 1.252 . S
O305 Gd262 2.307 1_554 S
O305 C320 1.261 . S
O306 Gd263 2.388 . S
O306 C320 1.252 . S
C307 O295 1.265 . S
C307 O296 1.242 . S
C308 O299 1.261 . S
C308 O300 1.252 1_554 S
C309 C312 1.394 . S
C309 C314 1.370 . S
C309 C315 1.500 . S
C310 C313 1.383 . S
C310 C314 1.395 . S
C311 C312 1.396 . S
C311 C313 1.365 . S
C311 H328 0.929 . S
C312 C309 1.394 . S
C312 C311 1.396 . S
C312 H329 0.930 . S
C313 C310 1.383 . S
C313 C311 1.365 . S
C313 H330 0.931 . S
C314 C309 1.370 . S
C314 C310 1.395 . S
C314 H331 0.930 . S
C315 Gd262 2.805 . S
C315 O297 1.263 . S
C315 O298 1.252 . S
C315 C309 1.500 . S
C316 H278 0.930 1_565 S
C316 C292 1.417 1_455 S
C316 C317 1.329 . S
C317 C287 1.437 . S
C317 H288 0.929 1_565 S
C317 C316 1.329 . S
H318 C291 0.931 . S
C319 O301 1.265 . S
C319 O302 1.242 . S
C320 O305 1.261 . S
C320 O306 1.252 . S
C321 C324 1.394 . S
C321 C326 1.370 . S
C321 C327 1.500 . S
C322 C325 1.383 . S
C322 C326 1.395 . S
C323 C324 1.396 . S
C323 C325 1.365 . S
C323 H332 0.929 . S
C324 C321 1.394 . S
C324 C323 1.396 . S
C324 H333 0.930 . S
C325 C322 1.383 . S
C325 C323 1.365 . S
C325 H334 0.931 . S
C326 C321 1.370 . S
C326 C322 1.395 . S
C326 H335 0.930 . S
C327 Gd263 2.805 . S
C327 O303 1.263 . S
C327 O304 1.252 . S
C327 C321 1.500 . S
H328 C311 0.929 . S
H329 C312 0.930 . S
H330 C313 0.931 . S
H331 C314 0.930 . S
H332 C323 0.929 . S
H333 C324 0.930 . S
H334 C325 0.931 . S
H335 C326 0.930 . S
C336 C338 1.422 . S
C336 C340 1.415 . S
C336 N342 1.369 . S
C337 C338 1.421 . S
C337 C339 1.417 . S
C337 C349 1.422 . S
C338 C336 1.422 . S
C338 C337 1.421 . S
C338 N348 1.359 . S
C339 C337 1.417 . S
C339 C341 1.329 . S
C339 H358 0.930 . S
C340 C336 1.415 . S
C340 C341 1.437 . S
C340 C344 1.413 . S
C341 C339 1.329 . S
C341 C340 1.437 . S
C341 H363 0.929 . S
N342 C336 1.369 . S
N342 C343 1.338 . S
N342 Gd347 2.622 . S
C343 N342 1.338 . S
C343 C345 1.378 . S
C343 H355 0.929 . S
C344 C340 1.413 . S
C344 C345 1.348 . S
C344 H360 0.931 . S
C345 C343 1.378 . S
C345 C344 1.348 . S
C345 H361 0.930 . S
Gd346 N366 2.622 . S
Gd346 N373 2.570 . S
Gd346 O380 2.353 . S
Gd346 O381 2.468 . S
Gd346 O382 2.427 . S
Gd346 O384 2.388 . S
Gd346 O385 2.386 . S
Gd346 O389 2.307 . S
Gd346 C399 2.805 . S
Gd347 N342 2.622 . S
Gd347 N348 2.570 . S
Gd347 O379 2.386 . S
Gd347 O383 2.307 . S
Gd347 O386 2.353 . S
Gd347 O387 2.468 . S
Gd347 O388 2.427 . S
Gd347 O390 2.388 . S
Gd347 C411 2.805 . S
N348 C338 1.359 . S
N348 Gd347 2.570 . S
N348 C350 1.343 . S
C349 C337 1.422 . S
C349 C351 1.321 . S
C349 H357 0.931 . S
C350 N348 1.343 . S
C350 C351 1.390 . S
C350 H352 0.931 . S
C351 C349 1.321 . S
C351 C350 1.390 . S
C351 H353 0.930 . S
H352 C350 0.931 . S
H353 C351 0.930 . S
H354 C377 0.931 . S
H355 C343 0.929 . S
H356 C378 0.930 . S
H357 C349 0.931 . S
H358 C339 0.930 . S
H359 C368 0.929 . S
H360 C344 0.931 . S
H361 C345 0.930 . S
H362 C400 0.930 . S
H363 C341 0.929 . S
H364 C369 0.931 . S
H365 C370 0.930 . S
N366 Gd346 2.622 . S
N366 C367 1.369 . S
N366 C368 1.338 1_565 S
C367 N366 1.369 . S
C367 C371 1.415 1_565 S
C367 C374 1.422 . S
C368 H359 0.929 . S
C368 N366 1.338 1_545 S
C368 C370 1.378 . S
C369 H364 0.931 . S
C369 C370 1.348 . S
C369 C371 1.413 . S
C370 H365 0.930 . S
C370 C368 1.378 . S
C370 C369 1.348 . S
C371 C367 1.415 1_545 S
C371 C369 1.413 . S
C371 C401 1.437 . S
H372 C401 0.929 . S
N373 Gd346 2.570 . S
N373 C374 1.359 . S
N373 C377 1.343 1_455 S
C374 C367 1.422 . S
C374 N373 1.359 . S
C374 C376 1.421 . S
C375 C376 1.422 1_655 S
C375 C378 1.321 . S
C375 H402 0.931 . S
C376 C374 1.421 . S
C376 C375 1.422 1_455 S
C376 C400 1.417 1_565 S
C377 H354 0.931 . S
C377 N373 1.343 1_655 S
C377 C378 1.390 . S
C378 H356 0.930 . S
C378 C375 1.321 . S
C378 C377 1.390 . S
O379 Gd347 2.386 . S
O379 C391 1.265 . S
O380 Gd346 2.353 . S
O380 C391 1.242 . S
O381 Gd346 2.468 . S
O381 C399 1.263 . S
O382 Gd346 2.427 . S
O382 C399 1.252 . S
O383 Gd347 2.307 . S
O383 C392 1.261 . S
O384 Gd346 2.388 . S
O384 C392 1.252 . S
O385 Gd346 2.386 . S
O385 C403 1.265 . S
O386 Gd347 2.353 . S
O386 C403 1.242 . S
O387 Gd347 2.468 . S
O387 C411 1.263 . S
O388 Gd347 2.427 . S
O388 C411 1.252 . S
O389 Gd346 2.307 . S
O389 C404 1.261 . S
O390 Gd347 2.388 . S
O390 C404 1.252 . S
C391 O379 1.265 . S
C391 O380 1.242 . S
C392 O383 1.261 . S
C392 O384 1.252 . S
C393 C396 1.394 . S
C393 C398 1.370 1_455 S
C393 C399 1.500 . S
C394 C397 1.383 . S
C394 C398 1.395 . S
C395 C396 1.396 . S
C395 C397 1.365 1_455 S
C395 H412 0.929 . S
C396 C393 1.394 . S
C396 C395 1.396 . S
C396 H413 0.930 . S
C397 C394 1.383 . S
C397 C395 1.365 1_655 S
C397 H414 0.931 . S
C398 C393 1.370 1_655 S
C398 C394 1.395 . S
C398 H415 0.930 . S
C399 Gd346 2.805 . S
C399 O381 1.263 . S
C399 O382 1.252 . S
C399 C393 1.500 . S
C400 H362 0.930 . S
C400 C376 1.417 1_545 S
C400 C401 1.329 . S
C401 C371 1.437 . S
C401 H372 0.929 . S
C401 C400 1.329 . S
H402 C375 0.931 . S
C403 O385 1.265 . S
C403 O386 1.242 . S
C404 O389 1.261 . S
C404 O390 1.252 . S
C405 C408 1.394 . S
C405 C410 1.370 . S
C405 C411 1.500 . S
C406 C409 1.383 . S
C406 C410 1.395 . S
C407 C408 1.396 . S
C407 C409 1.365 . S
C407 H416 0.929 . S
C408 C405 1.394 . S
C408 C407 1.396 . S
C408 H417 0.930 . S
C409 C406 1.383 . S
C409 C407 1.365 . S
C409 H418 0.931 . S
C410 C405 1.370 . S
C410 C406 1.395 . S
C410 H419 0.930 . S
C411 Gd347 2.805 . S
C411 O387 1.263 . S
C411 O388 1.252 . S
C411 C405 1.500 . S
H412 C395 0.929 . S
H413 C396 0.930 . S
H414 C397 0.931 . S
H415 C398 0.930 . S
H416 C407 0.929 . S
H417 C408 0.930 . S
H418 C409 0.931 . S
H419 C410 0.930 . S
C420 C422 1.422 . S
C420 C424 1.415 . S
C420 N426 1.369 . S
C421 C422 1.421 . S
C421 C423 1.417 . S
C421 C433 1.422 . S
C422 C420 1.422 . S
C422 C421 1.421 . S
C422 N432 1.359 . S
C423 C421 1.417 . S
C423 C425 1.329 . S
C423 H442 0.930 . S
C424 C420 1.415 . S
C424 C425 1.437 . S
C424 C428 1.413 . S
C425 C423 1.329 . S
C425 C424 1.437 . S
C425 H447 0.929 . S
N426 C420 1.369 . S
N426 C427 1.338 . S
N426 Gd431 2.622 . S
C427 N426 1.338 . S
C427 C429 1.378 . S
C427 H439 0.929 . S
C428 C424 1.413 . S
C428 C429 1.348 . S
C428 H444 0.931 . S
C429 C427 1.378 . S
C429 C428 1.348 . S
C429 H445 0.930 . S
Gd430 N450 2.622 . S
Gd430 N457 2.570 . S
Gd430 O464 2.353 . S
Gd430 O465 2.468 . S
Gd430 O466 2.427 . S
Gd430 O468 2.388 . S
Gd430 O469 2.386 . S
Gd430 O473 2.307 . S
Gd430 C483 2.805 . S
Gd431 N426 2.622 . S
Gd431 N432 2.570 . S
Gd431 O463 2.386 . S
Gd431 O467 2.307 . S
Gd431 O470 2.353 . S
Gd431 O471 2.468 . S
Gd431 O472 2.427 . S
Gd431 O474 2.388 . S
Gd431 C495 2.805 . S
N432 C422 1.359 . S
N432 Gd431 2.570 . S
N432 C434 1.343 . S
C433 C421 1.422 . S
C433 C435 1.321 . S
C433 H441 0.931 . S
C434 N432 1.343 . S
C434 C435 1.390 . S
C434 H436 0.931 . S
C435 C433 1.321 . S
C435 C434 1.390 . S
C435 H437 0.930 . S
H436 C434 0.931 . S
H437 C435 0.930 . S
H438 C461 0.931 . S
H439 C427 0.929 . S
H440 C462 0.930 . S
H441 C433 0.931 . S
H442 C423 0.930 . S
H443 C452 0.929 . S
H444 C428 0.931 . S
H445 C429 0.930 . S
H446 C484 0.930 1_655 S
H447 C425 0.929 . S
H448 C453 0.931 . S
H449 C454 0.930 . S
N450 Gd430 2.622 . S
N450 C451 1.369 . S
N450 C452 1.338 . S
C451 N450 1.369 . S
C451 C455 1.415 . S
C451 C458 1.422 . S
C452 H443 0.929 . S
C452 N450 1.338 . S
C452 C454 1.378 . S
C453 H448 0.931 . S
C453 C454 1.348 . S
C453 C455 1.413 . S
C454 H449 0.930 . S
C454 C452 1.378 . S
C454 C453 1.348 . S
C455 C451 1.415 . S
C455 C453 1.413 . S
C455 C485 1.437 . S
H456 C485 0.929 1_655 S
N457 Gd430 2.570 . S
N457 C458 1.359 . S
N457 C461 1.343 1_545 S
C458 C451 1.422 . S
C458 N457 1.359 . S
C458 C460 1.421 . S
C459 C460 1.422 1_565 S
C459 C462 1.321 . S
C459 H486 0.931 . S
C460 C458 1.421 . S
C460 C459 1.422 1_545 S
C460 C484 1.417 . S
C461 H438 0.931 . S
C461 N457 1.343 1_565 S
C461 C462 1.390 . S
C462 H440 0.930 . S
C462 C459 1.321 . S
C462 C461 1.390 . S
O463 Gd431 2.386 . S
O463 C475 1.265 . S
O464 Gd430 2.353 . S
O464 C475 1.242 . S
O465 Gd430 2.468 . S
O465 C483 1.263 . S
O466 Gd430 2.427 . S
O466 C483 1.252 . S
O467 Gd431 2.307 . S
O467 C476 1.261 . S
O468 Gd430 2.388 . S
O468 C476 1.252 . S
O469 Gd430 2.386 . S
O469 C487 1.265 . S
O470 Gd431 2.353 . S
O470 C487 1.242 . S
O471 Gd431 2.468 . S
O471 C495 1.263 . S
O472 Gd431 2.427 . S
O472 C495 1.252 . S
O473 Gd430 2.307 . S
O473 C488 1.261 . S
O474 Gd431 2.388 . S
O474 C488 1.252 . S
C475 O463 1.265 . S
C475 O464 1.242 . S
C476 O467 1.261 . S
C476 O468 1.252 . S
C477 C480 1.394 . S
C477 C482 1.370 1_545 S
C477 C483 1.500 . S
C478 C481 1.383 . S
C478 C482 1.395 . S
C479 C480 1.396 . S
C479 C481 1.365 1_545 S
C479 H496 0.929 . S
C480 C477 1.394 . S
C480 C479 1.396 . S
C480 H497 0.930 . S
C481 C478 1.383 . S
C481 C479 1.365 1_565 S
C481 H498 0.931 . S
C482 C477 1.370 1_565 S
C482 C478 1.395 . S
C482 H499 0.930 . S
C483 Gd430 2.805 . S
C483 O465 1.263 . S
C483 O466 1.252 . S
C483 C477 1.500 . S
C484 H446 0.930 1_455 S
C484 C460 1.417 . S
C484 C485 1.329 . S
C485 C455 1.437 . S
C485 H456 0.929 1_455 S
C485 C484 1.329 . S
H486 C459 0.931 . S
C487 O469 1.265 . S
C487 O470 1.242 . S
C488 O473 1.261 . S
C488 O474 1.252 . S
C489 C492 1.394 . S
C489 C494 1.370 . S
C489 C495 1.500 . S
C490 C493 1.383 . S
C490 C494 1.395 . S
C491 C492 1.396 . S
C491 C493 1.365 . S
C491 H500 0.929 . S
C492 C489 1.394 . S
C492 C491 1.396 . S
C492 H501 0.930 . S
C493 C490 1.383 . S
C493 C491 1.365 . S
C493 H502 0.931 . S
C494 C489 1.370 . S
C494 C490 1.395 . S
C494 H503 0.930 . S
C495 Gd431 2.805 . S
C495 O471 1.263 . S
C495 O472 1.252 . S
C495 C489 1.500 . S
H496 C479 0.929 . S
H497 C480 0.930 . S
H498 C481 0.931 . S
H499 C482 0.930 . S
H500 C491 0.929 . S
H501 C492 0.930 . S
H502 C493 0.931 . S
H503 C494 0.930 . S
C504 C505 1.369 . S
C504 C506 1.419 . S
C504 H508 0.930 . S
C505 C504 1.369 . S
C505 C514 1.429 . S
C506 C504 1.419 . S
C506 C507 1.363 . S
C506 H509 0.929 . S
C507 C506 1.363 . S
C507 C513 1.428 . S
H508 C504 0.930 . S
H509 C506 0.929 . S
S510 N511 1.613 . S
S510 N512 1.610 . S
N511 S510 1.613 . S
N511 C514 1.350 . S
N512 S510 1.610 . S
N512 C513 1.351 . S
C513 C507 1.428 . S
C513 N512 1.351 . S
C513 C514 1.434 . S
C514 C505 1.429 . S
C514 N511 1.350 . S
C514 C513 1.434 . S
C515 C516 1.369 . S
C515 C517 1.419 . S
C515 H519 0.930 . S
C516 C515 1.369 . S
C516 C525 1.429 . S
C517 C515 1.419 . S
C517 C518 1.363 . S
C517 H520 0.929 . S
C518 C517 1.363 . S
C518 C524 1.428 . S
H519 C515 0.930 . S
H520 C517 0.929 . S
S521 N522 1.613 . S
S521 N523 1.610 . S
N522 S521 1.613 . S
N522 C525 1.350 . S
N523 S521 1.610 . S
N523 C524 1.351 . S
C524 C518 1.428 . S
C524 N523 1.351 . S
C524 C525 1.434 . S
C525 C516 1.429 . S
C525 N522 1.350 . S
C525 C524 1.434 . S
C526 C527 1.369 . S
C526 C528 1.419 . S
C526 H530 0.930 . S
C527 C526 1.369 . S
C527 C536 1.429 . S
C528 C526 1.419 . S
C528 C529 1.363 . S
C528 H531 0.929 . S
C529 C528 1.363 . S
C529 C535 1.428 . S
H530 C526 0.930 . S
H531 C528 0.929 . S
S532 N533 1.613 . S
S532 N534 1.610 . S
N533 S532 1.613 . S
N533 C536 1.350 . S
N534 S532 1.610 . S
N534 C535 1.351 . S
C535 C529 1.428 . S
C535 N534 1.351 . S
C535 C536 1.434 . S
C536 C527 1.429 . S
C536 N533 1.350 . S
C536 C535 1.434 . S
C537 C538 1.369 . S
C537 C539 1.419 . S
C537 H541 0.930 . S
C538 C537 1.369 . S
C538 C547 1.429 . S
C539 C537 1.419 . S
C539 C540 1.363 . S
C539 H542 0.929 . S
C540 C539 1.363 . S
C540 C546 1.428 . S
H541 C537 0.930 . S
H542 C539 0.929 . S
S543 N544 1.613 . S
S543 N545 1.610 . S
N544 S543 1.613 . S
N544 C547 1.350 . S
N545 S543 1.610 . S
N545 C546 1.351 . S
C546 C540 1.428 . S
C546 N545 1.351 . S
C546 C547 1.434 . S
C547 C538 1.429 . S
C547 N544 1.350 . S
C547 C546 1.434 . S
C548 C549 1.369 . S
C548 C550 1.419 . S
C548 H552 0.930 . S
C549 C548 1.369 . S
C549 C558 1.429 . S
C550 C548 1.419 . S
C550 C551 1.363 . S
C550 H553 0.929 . S
C551 C550 1.363 . S
C551 C557 1.428 . S
H552 C548 0.930 . S
H553 C550 0.929 . S
S554 N555 1.613 . S
S554 N556 1.610 . S
N555 S554 1.613 . S
N555 C558 1.350 . S
N556 S554 1.610 . S
N556 C557 1.351 . S
C557 C551 1.428 . S
C557 N556 1.351 . S
C557 C558 1.434 . S
C558 C549 1.429 . S
C558 N555 1.350 . S
C558 C557 1.434 . S
C559 C560 1.369 . S
C559 C561 1.419 . S
C559 H563 0.930 . S
C560 C559 1.369 . S
C560 C569 1.429 . S
C561 C559 1.419 . S
C561 C562 1.363 . S
C561 H564 0.929 . S
C562 C561 1.363 . S
C562 C568 1.428 . S
H563 C559 0.930 . S
H564 C561 0.929 . S
S565 N566 1.613 . S
S565 N567 1.610 . S
N566 S565 1.613 . S
N566 C569 1.350 . S
N567 S565 1.610 . S
N567 C568 1.351 . S
C568 C562 1.428 . S
C568 N567 1.351 . S
C568 C569 1.434 . S
C569 C560 1.429 . S
C569 N566 1.350 . S
C569 C568 1.434 . S
C570 C571 1.369 . S
C570 C572 1.419 . S
C570 H574 0.930 . S
C571 C570 1.369 . S
C571 C580 1.429 . S
C572 C570 1.419 . S
C572 C573 1.363 . S
C572 H575 0.929 . S
C573 C572 1.363 . S
C573 C579 1.428 . S
H574 C570 0.930 . S
H575 C572 0.929 . S
S576 N577 1.613 . S
S576 N578 1.610 . S
N577 S576 1.613 . S
N577 C580 1.350 . S
N578 S576 1.610 . S
N578 C579 1.351 . S
C579 C573 1.428 . S
C579 N578 1.351 . S
C579 C580 1.434 . S
C580 C571 1.429 . S
C580 N577 1.350 . S
C580 C579 1.434 . S
C581 C582 1.369 1_655 S
C581 C583 1.419 . S
C581 H585 0.930 . S
C582 C581 1.369 1_455 S
C582 C591 1.429 . S
C583 C581 1.419 . S
C583 C584 1.363 . S
C583 H586 0.929 . S
C584 C583 1.363 . S
C584 C590 1.428 1_655 S
H585 C581 0.930 . S
H586 C583 0.929 . S
S587 N588 1.613 . S
S587 N589 1.610 . S
N588 S587 1.613 . S
N588 C591 1.350 . S
N589 S587 1.610 . S
N589 C590 1.351 . S
C590 C584 1.428 1_455 S
C590 N589 1.351 . S
C590 C591 1.434 . S
C591 C582 1.429 . S
C591 N588 1.350 . S
C591 C590 1.434 . S
C592 C593 1.369 1_565 S
C592 C594 1.419 . S
C592 H596 0.930 . S
C593 C592 1.369 1_545 S
C593 C602 1.429 . S
C594 C592 1.419 . S
C594 C595 1.363 . S
C594 H597 0.929 . S
C595 C594 1.363 . S
C595 C601 1.428 1_565 S
H596 C592 0.930 . S
H597 C594 0.929 . S
S598 N599 1.613 . S
S598 N600 1.610 . S
N599 S598 1.613 . S
N599 C602 1.350 . S
N600 S598 1.610 . S
N600 C601 1.351 . S
C601 C595 1.428 1_545 S
C601 N600 1.351 . S
C601 C602 1.434 . S
C602 C593 1.429 . S
C602 N599 1.350 . S
C602 C601 1.434 . S
C603 C604 1.369 . S
C603 C605 1.419 . S
C603 H607 0.930 . S
C604 C603 1.369 . S
C604 C613 1.429 . S
C605 C603 1.419 . S
C605 C606 1.363 . S
C605 H608 0.929 . S
C606 C605 1.363 . S
C606 C612 1.428 . S
H607 C603 0.930 . S
H608 C605 0.929 . S
S609 N610 1.613 . S
S609 N611 1.610 . S
N610 S609 1.613 . S
N610 C613 1.350 . S
N611 S609 1.610 . S
N611 C612 1.351 . S
C612 C606 1.428 . S
C612 N611 1.351 . S
C612 C613 1.434 . S
C613 C604 1.429 . S
C613 N610 1.350 . S
C613 C612 1.434 . S
C614 C615 1.369 . S
C614 C616 1.419 . S
C614 H618 0.930 . S
C615 C614 1.369 . S
C615 C624 1.429 1_454 S
C616 C614 1.419 . S
C616 C617 1.363 1_455 S
C616 H619 0.929 . S
C617 C616 1.363 1_655 S
C617 C623 1.428 1_554 S
H618 C614 0.930 . S
H619 C616 0.929 . S
S620 N621 1.613 . S
S620 N622 1.610 . S
N621 S620 1.613 . S
N621 C624 1.350 . S
N622 S620 1.610 . S
N622 C623 1.351 . S
C623 C617 1.428 1_556 S
C623 N622 1.351 . S
C623 C624 1.434 . S
C624 C615 1.429 1_656 S
C624 N621 1.350 . S
C624 C623 1.434 . S
C625 C626 1.369 1_545 S
C625 C627 1.419 . S
C625 H629 0.930 . S
C626 C625 1.369 1_565 S
C626 C635 1.429 . S
C627 C625 1.419 . S
C627 C628 1.363 . S
C627 H630 0.929 . S
C628 C627 1.363 . S
C628 C634 1.428 1_545 S
H629 C625 0.930 . S
H630 C627 0.929 . S
S631 N632 1.613 . S
S631 N633 1.610 . S
N632 S631 1.613 . S
N632 C635 1.350 . S
N633 S631 1.610 . S
N633 C634 1.351 . S
C634 C628 1.428 1_565 S
C634 N633 1.351 . S
C634 C635 1.434 . S
C635 C626 1.429 . S
C635 N632 1.350 . S
C635 C634 1.434 . S
C636 C637 1.369 . S
C636 C638 1.419 . S
C636 H640 0.930 . S
C637 C636 1.369 . S
C637 C646 1.429 . S
C638 C636 1.419 . S
C638 C639 1.363 . S
C638 H641 0.929 . S
C639 C638 1.363 . S
C639 C645 1.428 . S
H640 C636 0.930 . S
H641 C638 0.929 . S
S642 N643 1.613 . S
S642 N644 1.610 . S
N643 S642 1.613 . S
N643 C646 1.350 . S
N644 S642 1.610 . S
N644 C645 1.351 . S
C645 C639 1.428 . S
C645 N644 1.351 . S
C645 C646 1.434 . S
C646 C637 1.429 . S
C646 N643 1.350 . S
C646 C645 1.434 . S
C647 C648 1.369 . S
C647 C649 1.419 . S
C647 H651 0.926 1_455 S
C648 C647 1.369 . S
C648 C657 1.429 . S
C649 C647 1.419 . S
C649 C650 1.363 . S
C649 H652 0.929 . S
C650 C649 1.363 . S
C650 C656 1.428 . S
H651 C647 0.926 1_655 S
H652 C649 0.929 . S
S653 N654 1.613 . S
S653 N655 1.610 . S
N654 S653 1.613 . S
N654 C657 1.350 . S
N655 S653 1.610 . S
N655 C656 1.351 . S
C656 C650 1.428 . S
C656 N655 1.351 . S
C656 C657 1.434 . S
C657 C648 1.429 . S
C657 N654 1.350 . S
C657 C656 1.434 . S
C658 C659 1.369 . S
C658 C660 1.419 . S
C658 H662 0.930 . S
C659 C658 1.369 . S
C659 C668 1.429 . S
C660 C658 1.419 . S
C660 C661 1.363 . S
C660 H663 0.929 . S
C661 C660 1.363 . S
C661 C667 1.428 . S
H662 C658 0.930 . S
H663 C660 0.929 . S
S664 N665 1.613 . S
S664 N666 1.610 . S
N665 S664 1.613 . S
N665 C668 1.350 . S
N666 S664 1.610 . S
N666 C667 1.351 . S
C667 C661 1.428 . S
C667 N666 1.351 . S
C667 C668 1.434 . S
C668 C659 1.429 . S
C668 N665 1.350 . S
C668 C667 1.434 . S
C669 C670 1.369 . S
C669 C671 1.419 . S
C669 H673 0.930 . S
C670 C669 1.369 . S
C670 C679 1.429 . S
C671 C669 1.419 . S
C671 C672 1.363 . S
C671 H674 0.929 . S
C672 C671 1.363 . S
C672 C678 1.428 . S
H673 C669 0.930 . S
H674 C671 0.929 . S
S675 N676 1.613 . S
S675 N677 1.610 . S
N676 S675 1.613 . S
N676 C679 1.350 . S
N677 S675 1.610 . S
N677 C678 1.351 . S
C678 C672 1.428 . S
C678 N677 1.351 . S
C678 C679 1.434 . S
C679 C670 1.429 . S
C679 N676 1.350 . S
C679 C678 1.434 . S
C680 C681 1.369 . S
C680 C682 1.419 . S
C680 H684 0.930 . S
C681 C680 1.369 . S
C681 C690 1.429 . S
C682 C680 1.419 . S
C682 C683 1.363 . S
C682 H685 0.929 . S
C683 C682 1.363 . S
C683 C689 1.428 . S
H684 C680 0.930 . S
H685 C682 0.929 . S
S686 N687 1.613 . S
S686 N688 1.610 . S
N687 S686 1.613 . S
N687 C690 1.350 . S
N688 S686 1.610 . S
N688 C689 1.351 . S
C689 C683 1.428 . S
C689 N688 1.351 . S
C689 C690 1.434 . S
C690 C681 1.429 . S
C690 N687 1.350 . S
C690 C689 1.434 . S
C691 C692 1.369 . S
C691 C693 1.419 . S
C691 H695 0.930 . S
C692 C691 1.369 . S
C692 C701 1.429 . S
C693 C691 1.419 . S
C693 C694 1.363 . S
C693 H696 0.929 . S
C694 C693 1.363 . S
C694 C700 1.428 . S
H695 C691 0.930 . S
H696 C693 0.929 . S
S697 N698 1.613 . S
S697 N699 1.610 . S
N698 S697 1.613 . S
N698 C701 1.350 . S
N699 S697 1.610 . S
N699 C700 1.351 . S
C700 C694 1.428 . S
C700 N699 1.351 . S
C700 C701 1.434 . S
C701 C692 1.429 . S
C701 N698 1.350 . S
C701 C700 1.434 . S
C505 C391 1.278 . S
C507 C70 1.013 . S
C516 C475 1.282 . S
C518 C154 1.006 . S
C527 C55 1.279 . S
C529 C238 1.012 . S
C538 C139 1.280 . S
C540 C322 1.011 . S
C549 C223 1.273 . S
C551 C406 1.022 . S
C560 C307 1.282 . S
C562 C490 1.008 . S
C571 C68 1.806 . S
C573 C320 1.797 . S
C582 C404 1.804 . S
C584 C152 1.802 . S
C593 C488 1.800 . S
C595 C236 1.805 . S
C604 C224 1.865 . S
C606 C476 1.864 . S
C615 C56 1.862 . S
C617 C308 1.862 . S
C626 C392 1.861 . S
C628 C140 1.864 . S
C637 C487 1.234 . S
C639 C58 1.077 . S
C648 C142 1.094 . S
C650 C67 1.229 . S
C659 C226 1.094 . S
C661 C151 1.230 . S
C670 C235 1.226 . S
C672 C310 1.090 . S
C681 C394 1.081 . S
C683 C319 1.233 . S
C692 C478 1.094 . S
C694 C403 1.228 . S
