# Generated by pormake.
# Topology wjk, (5)-cn, num edge types: 1
# Building blocks:
#     Node 0, Type 0, BuildingBlock: XOMCOT_clean_sbu_1, # of connection points: 5
#     Node 1, Type 0, BuildingBlock: XOMCOT_clean_sbu_1, # of connection points: 5
#     Node 2, Type 0, BuildingBlock: XOMCOT_clean_sbu_1, # of connection points: 5
#     Node 3, Type 0, BuildingBlock: XOMCOT_clean_sbu_1, # of connection points: 5
#     Node 4, Type 0, BuildingBlock: XOMCOT_clean_sbu_1, # of connection points: 5
#     Node 5, Type 0, BuildingBlock: XOMCOT_clean_sbu_1, # of connection points: 5
#     Node 6, Type 0, BuildingBlock: XOMCOT_clean_sbu_1, # of connection points: 5
#     Node 7, Type 0, BuildingBlock: XOMCOT_clean_sbu_1, # of connection points: 5
#     Node 8, Type 0, BuildingBlock: XOMCOT_clean_sbu_1, # of connection points: 5
#     Node 9, Type 0, BuildingBlock: XOMCOT_clean_sbu_1, # of connection points: 5
#     Node 10, Type 0, BuildingBlock: XOMCOT_clean_sbu_1, # of connection points: 5
#     Node 11, Type 0, BuildingBlock: XOMCOT_clean_sbu_1, # of connection points: 5
#     Edge 12, Type (0, 0), BuildingBlock: MIFKUJ_clean_linker_0, # of connection points: 2
#     Edge 13, Type (0, 0), BuildingBlock: MIFKUJ_clean_linker_0, # of connection points: 2
#     Edge 14, Type (0, 0), BuildingBlock: MIFKUJ_clean_linker_0, # of connection points: 2
#     Edge 15, Type (0, 0), BuildingBlock: MIFKUJ_clean_linker_0, # of connection points: 2
#     Edge 16, Type (0, 0), BuildingBlock: MIFKUJ_clean_linker_0, # of connection points: 2
#     Edge 17, Type (0, 0), BuildingBlock: MIFKUJ_clean_linker_0, # of connection points: 2
#     Edge 18, Type (0, 0), BuildingBlock: MIFKUJ_clean_linker_0, # of connection points: 2
#     Edge 19, Type (0, 0), BuildingBlock: MIFKUJ_clean_linker_0, # of connection points: 2
#     Edge 20, Type (0, 0), BuildingBlock: MIFKUJ_clean_linker_0, # of connection points: 2
#     Edge 21, Type (0, 0), BuildingBlock: MIFKUJ_clean_linker_0, # of connection points: 2
#     Edge 22, Type (0, 0), BuildingBlock: MIFKUJ_clean_linker_0, # of connection points: 2
#     Edge 23, Type (0, 0), BuildingBlock: MIFKUJ_clean_linker_0, # of connection points: 2
#     Edge 24, Type (0, 0), BuildingBlock: MIFKUJ_clean_linker_0, # of connection points: 2
#     Edge 25, Type (0, 0), BuildingBlock: MIFKUJ_clean_linker_0, # of connection points: 2
#     Edge 26, Type (0, 0), BuildingBlock: MIFKUJ_clean_linker_0, # of connection points: 2
#     Edge 27, Type (0, 0), BuildingBlock: MIFKUJ_clean_linker_0, # of connection points: 2
#     Edge 28, Type (0, 0), BuildingBlock: MIFKUJ_clean_linker_0, # of connection points: 2
#     Edge 29, Type (0, 0), BuildingBlock: MIFKUJ_clean_linker_0, # of connection points: 2
#     Edge 30, Type (0, 0), BuildingBlock: MIFKUJ_clean_linker_0, # of connection points: 2
#     Edge 31, Type (0, 0), BuildingBlock: MIFKUJ_clean_linker_0, # of connection points: 2
#     Edge 32, Type (0, 0), BuildingBlock: MIFKUJ_clean_linker_0, # of connection points: 2
#     Edge 33, Type (0, 0), BuildingBlock: MIFKUJ_clean_linker_0, # of connection points: 2
#     Edge 34, Type (0, 0), BuildingBlock: MIFKUJ_clean_linker_0, # of connection points: 2
#     Edge 35, Type (0, 0), BuildingBlock: MIFKUJ_clean_linker_0, # of connection points: 2
#     Edge 36, Type (0, 0), BuildingBlock: MIFKUJ_clean_linker_0, # of connection points: 2
#     Edge 37, Type (0, 0), BuildingBlock: MIFKUJ_clean_linker_0, # of connection points: 2
#     Edge 38, Type (0, 0), BuildingBlock: MIFKUJ_clean_linker_0, # of connection points: 2
#     Edge 39, Type (0, 0), BuildingBlock: MIFKUJ_clean_linker_0, # of connection points: 2
#     Edge 40, Type (0, 0), BuildingBlock: MIFKUJ_clean_linker_0, # of connection points: 2
#     Edge 41, Type (0, 0), BuildingBlock: MIFKUJ_clean_linker_0, # of connection points: 2
# Relax obj value: 0.513
# Max RMSD: 0.263
# Mean RMSD: 0.263
data_MOF--net-wjk--node1-XOMCOT_clean_sbu_1--edge1-MIFKUJ_clean_linker_0
_symmetry_space_group_name_H-M    P1
_symmetry_Int_Tables_number       1
_symmetry_cell_setting            triclinic
loop_
_symmetry_equiv_pos_as_xyz
'x, y, z'
_cell_length_a     41.537265
_cell_length_b     41.564277
_cell_length_c     92.870577
_cell_angle_alpha  89.991786
_cell_angle_beta   89.985475
_cell_angle_gamma 120.03844
loop_
_atom_site_label
_atom_site_type_symbol
_atom_site_fract_x
_atom_site_fract_y
_atom_site_fract_z
_atom_type_partial_charge
C0 C 0.14934 0.23582 0.25677 0.0
C1 C 0.12415 0.20366 0.26368 0.0
N2 N 0.12978 0.17606 0.25918 0.0
N3 N 0.17014 0.22821 0.24779 0.0
C4 C 0.15789 0.19172 0.24959 0.0
H5 H 0.15228 0.26301 0.25814 0.0
Co6 Co 0.20851 0.26214 0.23634 0.0
C7 C 0.19773 0.21885 0.20916 0.0
O8 O 0.19493 0.24405 0.20165 0.0
N9 N 0.24868 0.29772 0.22488 0.0
C10 C 0.2832 0.34043 0.20845 0.0
C11 C 0.24777 0.31484 0.21258 0.0
C12 C 0.28544 0.31388 0.2279 0.0
N13 N 0.30685 0.33992 0.21816 0.0
O14 O 0.24114 0.25291 0.24765 0.0
H15 H 0.22301 0.31052 0.20709 0.0
H16 H 0.29672 0.30753 0.23723 0.0
O17 O 0.20205 0.22241 0.22284 0.0
C18 C 0.25076 0.27328 0.25886 0.0
O19 O 0.24371 0.30077 0.25938 0.0
N20 N 0.17466 0.2719 0.2269 0.0
C21 C 0.12042 0.28889 0.21872 0.0
C22 C 0.11496 0.25303 0.21664 0.0
C23 C 0.1421 0.24488 0.22109 0.0
C24 C 0.17995 0.30657 0.22941 0.0
C25 C 0.15351 0.31592 0.22512 0.0
H26 H 0.13634 0.21653 0.22039 0.0
H27 H 0.20462 0.32686 0.23505 0.0
H28 H 0.169 0.1768 0.24383 0.0
H29 H 0.10346 0.20085 0.27144 0.0
H30 H 0.29079 0.3595 0.19947 0.0
H31 H 0.08966 0.23123 0.21182 0.0
H32 H 0.15836 0.34362 0.22725 0.0
C33 C 0.93098 0.17543 0.5945 0.0
C34 C 0.93763 0.14699 0.59769 0.0
N35 N 0.95155 0.13967 0.58585 0.0
N36 N 0.94082 0.18603 0.58073 0.0
C37 C 0.95313 0.16363 0.5757 0.0
H38 H 0.91874 0.18695 0.60162 0.0
Co39 Co 0.93333 0.22094 0.57135 0.0
C40 C 0.97123 0.23423 0.54302 0.0
O41 O 0.94381 0.23637 0.53694 0.0
N42 N 0.92516 0.25669 0.56211 0.0
C43 C 0.90037 0.28656 0.55098 0.0
C44 C 0.89387 0.25275 0.55597 0.0
C45 C 0.95021 0.29327 0.56064 0.0
N46 N 0.93583 0.3122 0.554 0.0
O47 O 0.97175 0.25854 0.5829 0.0
H48 H 0.86771 0.22716 0.55505 0.0
H49 H 0.97833 0.30589 0.56467 0.0
O50 O 0.97012 0.22749 0.55652 0.0
C51 C 0.95812 0.2669 0.59359 0.0
O52 O 0.92208 0.25423 0.59374 0.0
N53 N 0.8934 0.18211 0.56182 0.0
C54 C 0.82867 0.11627 0.55539 0.0
C55 C 0.86093 0.12768 0.54717 0.0
C56 C 0.89345 0.16043 0.55078 0.0
C57 C 0.86212 0.17132 0.56982 0.0
C58 C 0.82933 0.13858 0.56675 0.0
H59 H 0.91873 0.16654 0.54531 0.0
H60 H 0.86319 0.18784 0.579 0.0
H61 H 0.96259 0.16445 0.56478 0.0
H62 H 0.93151 0.13197 0.60777 0.0
H63 H 0.88028 0.29163 0.54557 0.0
H64 H 0.86163 0.11021 0.53866 0.0
H65 H 0.80506 0.13022 0.57346 0.0
C66 C 0.78359 -0.0003 0.92622 0.0
C67 C 0.82133 0.015 0.92817 0.0
N68 N 0.83753 0.02072 0.91511 0.0
N69 N 0.77617 0.99597 0.912 0.0
C70 C 0.80952 0.0093 0.90554 0.0
H71 H 0.76279 0.99029 0.93461 0.0
Co72 Co 0.72998 0.97253 0.90327 0.0
C73 C 0.7423 0.00981 0.87439 0.0
O74 O 0.71451 0.98005 0.86856 0.0
N75 N 0.68278 0.94832 0.89448 0.0
C76 C 0.6293 0.90638 0.88454 0.0
C77 C 0.66225 0.91242 0.89033 0.0
C78 C 0.66132 0.96327 0.89129 0.0
N79 N 0.62877 0.93845 0.88513 0.0
O80 O 0.71688 0.00333 0.91416 0.0
H81 H 0.67024 0.89152 0.89135 0.0
H82 H 0.66949 0.9919 0.89353 0.0
O83 O 0.75046 0.00949 0.88766 0.0
C84 C 0.69482 0.98443 0.92433 0.0
O85 O 0.68061 0.94818 0.92424 0.0
N86 N 0.7423 0.94002 0.89445 0.0
C87 C 0.74759 0.87907 0.88562 0.0
C88 C 0.75915 0.90992 0.8765 0.0
C89 C 0.7566 0.94047 0.88118 0.0
C90 C 0.73414 0.9118 0.90386 0.0
C91 C 0.73616 0.8808 0.89963 0.0
H92 H 0.76597 0.96389 0.87408 0.0
H93 H 0.72383 0.91254 0.91448 0.0
H94 H 0.81297 0.00922 0.894 0.0
H95 H 0.83534 0.01926 0.93841 0.0
H96 H 0.60761 0.8804 0.88015 0.0
H97 H 0.76961 0.91022 0.86579 0.0
H98 H 0.72712 0.85775 0.90704 0.0
C99 C 0.83188 0.73902 0.2482 0.0
C100 C 0.86593 0.76476 0.25374 0.0
N101 N 0.86735 0.79784 0.25433 0.0
N102 N 0.81222 0.75597 0.24519 0.0
C103 C 0.83439 0.79164 0.24913 0.0
H104 H 0.82214 0.70987 0.24638 0.0
Co105 Co 0.76496 0.73408 0.23728 0.0
C106 C 0.75947 0.79974 0.22956 0.0
O107 O 0.73134 0.78836 0.23851 0.0
N108 N 0.7178 0.71168 0.2292 0.0
C109 C 0.67249 0.69294 0.21309 0.0
C110 C 0.70811 0.71981 0.21641 0.0
C111 C 0.68784 0.67959 0.23338 0.0
N112 N 0.65989 0.66743 0.22371 0.0
O113 O 0.74738 0.7451 0.25453 0.0
H114 H 0.72647 0.74246 0.20943 0.0
H115 H 0.68763 0.66404 0.24276 0.0
O116 O 0.77626 0.7812 0.22839 0.0
C117 C 0.74307 0.72166 0.26426 0.0
O118 O 0.74823 0.69391 0.26077 0.0
N119 N 0.78191 0.72032 0.22135 0.0
C120 C 0.81466 0.69294 0.20279 0.0
C121 C 0.82415 0.73042 0.20211 0.0
C122 C 0.80759 0.74379 0.21165 0.0
C123 C 0.77074 0.68343 0.22152 0.0
C124 C 0.78686 0.66908 0.21232 0.0
H125 H 0.81728 0.77321 0.21186 0.0
H126 H 0.75101 0.66556 0.22955 0.0
H127 H 0.82676 0.81285 0.24793 0.0
H128 H 0.88781 0.75948 0.2571 0.0
H129 H 0.65765 0.69155 0.20332 0.0
H130 H 0.84619 0.74976 0.19508 0.0
H131 H 0.77917 0.64011 0.21319 0.0
C132 C 0.0663 0.81876 0.59846 0.0
C133 C 0.05436 0.84336 0.60164 0.0
N134 N 0.04512 0.85363 0.58924 0.0
N135 N 0.06448 0.81332 0.58412 0.0
C136 C 0.05137 0.83478 0.57878 0.0
H137 H 0.07648 0.80628 0.60608 0.0
Co138 Co 0.08079 0.78481 0.57478 0.0
C139 C 0.0439 0.7663 0.54602 0.0
O140 O 0.07371 0.76825 0.54024 0.0
N141 N 0.09772 0.75555 0.56566 0.0
C142 C 0.13204 0.7329 0.55668 0.0
C143 C 0.13267 0.76398 0.56212 0.0
C144 C 0.07652 0.71917 0.56231 0.0
N145 N 0.09663 0.70474 0.55681 0.0
O146 O 0.04553 0.74269 0.58567 0.0
H147 H 0.15742 0.79061 0.56362 0.0
H148 H 0.04689 0.70328 0.56429 0.0
O149 O 0.04356 0.77301 0.55947 0.0
C150 C 0.06055 0.73377 0.59569 0.0
O151 O 0.09704 0.7505 0.59622 0.0
N152 N 0.11745 0.82781 0.56571 0.0
C153 C 0.17857 0.8952 0.55757 0.0
C154 C 0.14594 0.8791 0.5493 0.0
C155 C 0.11528 0.84568 0.55373 0.0
C156 C 0.14849 0.8439 0.57413 0.0
C157 C 0.17952 0.87748 0.57022 0.0
H158 H 0.08983 0.83546 0.54777 0.0
H159 H 0.14906 0.83024 0.58397 0.0
H160 H 0.04792 0.83762 0.56739 0.0
H161 H 0.05316 0.85326 0.61227 0.0
H162 H 0.15589 0.73111 0.55309 0.0
H163 H 0.14373 0.8929 0.53977 0.0
H164 H 0.20404 0.88936 0.57699 0.0
C165 C 0.23437 0.03978 0.92766 0.0
C166 C 0.19968 0.03473 0.93076 0.0
N167 N 0.18143 0.02984 0.91824 0.0
N168 N 0.23756 0.03773 0.91328 0.0
C169 C 0.20476 0.03123 0.90789 0.0
H170 H 0.25649 0.0466 0.93531 0.0
Co171 Co 0.27987 0.04893 0.90295 0.0
C172 C 0.25281 0.00907 0.8748 0.0
O173 O 0.2815 0.03597 0.86807 0.0
N174 N 0.32318 0.06063 0.89263 0.0
C175 C 0.37647 0.0894 0.88054 0.0
C176 C 0.34949 0.09373 0.8873 0.0
C177 C 0.33507 0.03681 0.88908 0.0
N178 N 0.36734 0.05352 0.88167 0.0
O179 O 0.284 0.01215 0.91381 0.0
H180 H 0.34947 0.1196 0.88821 0.0
H181 H 0.32038 0.00777 0.89207 0.0
O182 O 0.24894 0.01138 0.88838 0.0
C183 C 0.3088 0.02698 0.92356 0.0
O184 O 0.33177 0.06305 0.92298 0.0
N185 N 0.27686 0.08764 0.89411 0.0
C186 C 0.2752 0.152 0.88755 0.0
C187 C 0.25742 0.12072 0.87859 0.0
C188 C 0.25802 0.08841 0.88219 0.0
C189 C 0.29387 0.11774 0.90297 0.0
C190 C 0.29348 0.15028 0.8999 0.0
H191 H 0.24188 0.06407 0.87573 0.0
H192 H 0.30761 0.11615 0.91262 0.0
H193 H 0.19864 0.02928 0.8965 0.0
H194 H 0.18967 0.03701 0.94126 0.0
H195 H 0.40087 0.11112 0.87521 0.0
H196 H 0.24205 0.12083 0.86919 0.0
H197 H 0.30735 0.17384 0.90709 0.0
C198 C 0.72888 0.84115 0.43919 0.0
C199 C 0.76113 0.87448 0.43704 0.0
N200 N 0.78983 0.86797 0.43686 0.0
N201 N 0.73735 0.81395 0.44045 0.0
C202 C 0.77452 0.83102 0.43887 0.0
H203 H 0.70107 0.83701 0.43998 0.0
Co204 Co 0.70433 0.76432 0.44399 0.0
C205 C 0.75421 0.73434 0.4508 0.0
O206 O 0.73577 0.70576 0.4422 0.0
N207 N 0.67061 0.71489 0.44762 0.0
C208 C 0.63466 0.66207 0.45921 0.0
C209 C 0.66709 0.69569 0.45982 0.0
C210 C 0.6403 0.69251 0.43974 0.0
N211 N 0.618 0.6603 0.44658 0.0
O212 O 0.71384 0.7524 0.42514 0.0
H213 H 0.68596 0.7062 0.46888 0.0
H214 H 0.63352 0.70046 0.42959 0.0
O215 O 0.74419 0.75858 0.45211 0.0
C216 C 0.69686 0.75994 0.41547 0.0
O217 O 0.67489 0.77253 0.41955 0.0
N218 N 0.69353 0.77677 0.46185 0.0
C219 C 0.6727 0.79925 0.48657 0.0
C220 C 0.70683 0.80007 0.48596 0.0
C221 C 0.71702 0.78913 0.47339 0.0
C222 C 0.65983 0.77481 0.46239 0.0
C223 C 0.64885 0.78607 0.47467 0.0
H224 H 0.74425 0.79191 0.47286 0.0
H225 H 0.6419 0.76543 0.45304 0.0
H226 H 0.7902 0.81673 0.43957 0.0
H227 H 0.7632 0.90133 0.43577 0.0
H228 H 0.62371 0.64092 0.4675 0.0
H229 H 0.72639 0.81111 0.49481 0.0
H230 H 0.6225 0.78554 0.47473 0.0
C231 C 0.91161 0.74264 0.74439 0.0
C232 C 0.91772 0.77826 0.74338 0.0
N233 N 0.93484 0.79666 0.75551 0.0
N234 N 0.92493 0.73856 0.75706 0.0
C235 C 0.93897 0.77197 0.76362 0.0
H236 H 0.89735 0.72078 0.73654 0.0
Co237 Co 0.91863 0.69378 0.76394 0.0
C238 C 0.98343 0.71502 0.78444 0.0
O239 O 0.97186 0.68055 0.78826 0.0
N240 N 0.91047 0.64728 0.77053 0.0
C241 C 0.88154 0.58888 0.77856 0.0
C242 C 0.88021 0.62114 0.77768 0.0
C243 C 0.92945 0.62978 0.76704 0.0
N244 N 0.91255 0.59441 0.77185 0.0
O245 O 0.94584 0.69122 0.74765 0.0
H246 H 0.85741 0.62429 0.7815 0.0
H247 H 0.95457 0.64228 0.76062 0.0
O248 O 0.96499 0.72209 0.77516 0.0
C249 C 0.92449 0.66888 0.73799 0.0
O250 O 0.8885 0.65046 0.74048 0.0
N251 N 0.88958 0.69535 0.7789 0.0
C252 C 0.83569 0.68554 0.79893 0.0
C253 C 0.87175 0.69549 0.80338 0.0
C254 C 0.89835 0.7002 0.7932 0.0
C255 C 0.85502 0.68684 0.77434 0.0
C256 C 0.82755 0.68177 0.78419 0.0
H257 H 0.92529 0.7066 0.797 0.0
H258 H 0.84842 0.68257 0.76298 0.0
H259 H 0.95045 0.77758 0.77439 0.0
H260 H 0.9099 0.78964 0.73444 0.0
H261 H 0.86081 0.56307 0.78343 0.0
H262 H 0.87944 0.69969 0.81466 0.0
H263 H 0.80005 0.6742 0.78032 0.0
C264 C 0.12224 0.87677 0.08565 0.0
C265 C 0.09478 0.88599 0.08519 0.0
N266 N 0.1073 0.91887 0.09191 0.0
N267 N 0.15202 0.90363 0.09263 0.0
C268 C 0.14213 0.92898 0.09629 0.0
H269 H 0.12055 0.85192 0.08122 0.0
Co270 Co 0.19529 0.90195 0.0961 0.0
C271 C 0.2362 0.95879 0.11899 0.0
O272 O 0.2526 0.9407 0.12359 0.0
N273 N 0.23906 0.89942 0.0992 0.0
C274 C 0.27908 0.88041 0.10466 0.0
C275 C 0.24303 0.87271 0.10592 0.0
C276 C 0.27353 0.9232 0.09405 0.0
N277 N 0.29823 0.91206 0.09711 0.0
O278 O 0.21725 0.93175 0.07943 0.0
H279 H 0.2215 0.84885 0.11146 0.0
H280 H 0.28034 0.94794 0.08793 0.0
O281 O 0.21401 0.94629 0.10825 0.0
C282 C 0.20953 0.9103 0.06861 0.0
O283 O 0.1898 0.87422 0.07071 0.0
N284 N 0.17102 0.8696 0.11137 0.0
C285 C 0.12408 0.81201 0.12962 0.0
C286 C 0.14101 0.84902 0.13428 0.0
C287 C 0.16389 0.87762 0.12486 0.0
C288 C 0.15457 0.83373 0.10671 0.0
C289 C 0.1313 0.80446 0.1157 0.0
H290 H 0.17387 0.90579 0.12825 0.0
H291 H 0.15934 0.82798 0.0958 0.0
H292 H 0.15976 0.95407 0.10224 0.0
H293 H 0.06788 0.86992 0.0801 0.0
H294 H 0.29035 0.86403 0.1091 0.0
H295 H 0.13478 0.85588 0.14479 0.0
H296 H 0.11824 0.77624 0.11166 0.0
C297 C 0.24275 0.12568 0.4411 0.0
C298 C 0.20787 0.09562 0.44339 0.0
N299 N 0.18268 0.10653 0.44117 0.0
N300 N 0.2394 0.15532 0.43758 0.0
C301 C 0.20259 0.1428 0.43762 0.0
H302 H 0.26887 0.12596 0.44186 0.0
Co303 Co 0.27724 0.20216 0.43274 0.0
C304 C 0.25778 0.24938 0.45096 0.0
O305 O 0.29259 0.26924 0.45517 0.0
N306 N 0.31558 0.24871 0.42692 0.0
C307 C 0.36631 0.28977 0.41512 0.0
C308 C 0.34658 0.25395 0.42012 0.0
C309 C 0.31602 0.28118 0.42505 0.0
N310 N 0.34702 0.30694 0.41828 0.0
O311 O 0.25435 0.19852 0.41466 0.0
H312 H 0.3536 0.23258 0.41818 0.0
H313 H 0.29327 0.28553 0.42784 0.0
O314 O 0.24887 0.22356 0.44163 0.0
C315 C 0.26328 0.18185 0.40536 0.0
O316 O 0.28323 0.16707 0.40959 0.0
N317 N 0.30101 0.20424 0.45044 0.0
C318 C 0.33133 0.19194 0.47524 0.0
C319 C 0.29742 0.19142 0.47582 0.0
C320 C 0.28228 0.1966 0.46325 0.0
C321 C 0.33442 0.20541 0.44982 0.0
C322 C 0.35022 0.1996 0.4621 0.0
H323 H 0.25418 0.19162 0.46372 0.0
H324 H 0.34767 0.20769 0.43963 0.0
H325 H 0.19063 0.15971 0.43459 0.0
H326 H 0.20162 0.06793 0.44641 0.0
H327 H 0.39284 0.30213 0.40964 0.0
H328 H 0.2811 0.18374 0.48563 0.0
H329 H 0.37581 0.19881 0.46116 0.0
C330 C 0.12423 0.24354 0.76519 0.0
C331 C 0.11602 0.20741 0.76684 0.0
N332 N 0.07899 0.18591 0.76859 0.0
N333 N 0.09265 0.24506 0.76602 0.0
C334 C 0.06537 0.20942 0.76795 0.0
H335 H 0.15156 0.26729 0.76339 0.0
Co336 Co 0.09221 0.28934 0.76444 0.0
C337 C 0.02895 0.27997 0.78258 0.0
O338 O 0.04815 0.31524 0.7862 0.0
N339 N 0.09292 0.33483 0.76218 0.0
C340 C 0.11058 0.39466 0.75996 0.0
C341 C 0.12118 0.36986 0.76426 0.0
C342 C 0.06572 0.33942 0.7562 0.0
N343 N 0.07564 0.37563 0.7548 0.0
O344 O 0.06915 0.27462 0.74615 0.0
H345 H 0.14834 0.37784 0.76837 0.0
H346 H 0.03921 0.3164 0.75287 0.0
O347 O 0.04311 0.26654 0.77387 0.0
C348 C 0.09258 0.28477 0.73591 0.0
O349 O 0.12812 0.30063 0.7391 0.0
N350 N 0.1176 0.30432 0.78212 0.0
C351 C 0.16332 0.32673 0.80636 0.0
C352 C 0.12514 0.30143 0.80761 0.0
C353 C 0.10294 0.28978 0.79531 0.0
C354 C 0.15501 0.32709 0.78066 0.0
C355 C 0.17829 0.33944 0.79264 0.0
H356 H 0.07462 0.26763 0.79647 0.0
H357 H 0.16698 0.33529 0.77001 0.0
H358 H 0.03621 0.20088 0.76894 0.0
H359 H 0.13572 0.1976 0.7664 0.0
H360 H 0.12749 0.42453 0.76084 0.0
H361 H 0.11288 0.28899 0.81789 0.0
H362 H 0.20785 0.35792 0.79113 0.0
C363 C 0.86751 0.136 0.08967 0.0
C364 C 0.89873 0.13273 0.08809 0.0
N365 N 0.8891 0.09697 0.09043 0.0
N366 N 0.83832 0.10251 0.09301 0.0
C367 C 0.85223 0.07929 0.09322 0.0
H368 H 0.86634 0.16136 0.08888 0.0
Co369 Co 0.79066 0.09247 0.09798 0.0
C370 C 0.7565 0.01609 0.10995 0.0
O371 O 0.72561 0.00499 0.10265 0.0
N372 N 0.74297 0.08252 0.10315 0.0
C373 C 0.69369 0.07034 0.11645 0.0
C374 C 0.72913 0.07596 0.11667 0.0
C375 C 0.71528 0.0806 0.09487 0.0
N376 N 0.685 0.07327 0.10273 0.0
O377 O 0.77157 0.06428 0.0807 0.0
H378 H 0.74377 0.07485 0.12612 0.0
H379 H 0.71716 0.08452 0.08333 0.0
O380 O 0.78315 0.04941 0.10875 0.0
C381 C 0.77832 0.08713 0.07042 0.0
O382 O 0.79543 0.12281 0.07344 0.0
N383 N 0.81022 0.12276 0.11403 0.0
C384 C 0.84161 0.17537 0.13582 0.0
C385 C 0.84342 0.14249 0.13629 0.0
C386 C 0.82768 0.11652 0.12521 0.0
C387 C 0.80809 0.15437 0.11339 0.0
C388 C 0.82331 0.18095 0.12425 0.0
H389 H 0.83055 0.09209 0.12543 0.0
H390 H 0.79473 0.15905 0.10428 0.0
H391 H 0.83586 0.05018 0.09593 0.0
H392 H 0.92641 0.15516 0.08562 0.0
H393 H 0.67524 0.06339 0.12561 0.0
H394 H 0.85818 0.13753 0.14482 0.0
H395 H 0.82124 0.20584 0.12347 0.0
H396 H 0.62135 0.62695 0.24692 0.0
H397 H 0.5635 0.56682 0.24669 0.0
H398 H 0.56424 0.56799 0.20023 0.0
H399 H 0.62178 0.6276 0.20039 0.0
H400 H 0.49776 0.5516 0.21074 0.0
H401 H 0.58724 0.51215 0.2189 0.0
H402 H 0.6388 0.51096 0.23156 0.0
H403 H 0.57304 0.47319 0.27011 0.0
H404 H 0.52124 0.47466 0.25772 0.0
H405 H 0.35459 0.3721 0.19606 0.0
H406 H 0.41844 0.42404 0.19765 0.0
H407 H 0.41118 0.41967 0.24402 0.0
H408 H 0.34744 0.36766 0.24249 0.0
H409 H 0.48094 0.4371 0.23441 0.0
H410 H 0.39241 0.47777 0.22661 0.0
H411 H 0.3406 0.47905 0.21419 0.0
H412 H 0.405 0.51552 0.17529 0.0
H413 H 0.45702 0.5139 0.18743 0.0
C414 C 0.60928 0.61419 0.23668 0.0
C415 C 0.62595 0.63216 0.22368 0.0
C416 C 0.57632 0.57988 0.23656 0.0
C417 C 0.55978 0.56294 0.22343 0.0
C418 C 0.57652 0.58072 0.21047 0.0
C419 C 0.60928 0.61494 0.21059 0.0
C420 C 0.52421 0.52737 0.22307 0.0
C421 C 0.49426 0.52646 0.21575 0.0
C422 C 0.51944 0.4949 0.22997 0.0
C423 C 0.55051 0.49389 0.23742 0.0
C424 C 0.58388 0.50389 0.23011 0.0
C425 C 0.61313 0.50311 0.23723 0.0
C426 C 0.60923 0.49211 0.25164 0.0
C427 C 0.57603 0.48176 0.25895 0.0
C428 C 0.54671 0.48253 0.25188 0.0
C429 C 0.36684 0.38193 0.20658 0.0
C430 C 0.34595 0.36621 0.21913 0.0
C431 C 0.40325 0.41146 0.20748 0.0
C432 C 0.41915 0.42604 0.22095 0.0
C433 C 0.39931 0.40879 0.23353 0.0
C434 C 0.36293 0.37906 0.23263 0.0
C435 C 0.45486 0.46134 0.22186 0.0
C436 C 0.48462 0.46227 0.22937 0.0
C437 C 0.45956 0.494 0.21518 0.0
C438 C 0.42846 0.49536 0.20789 0.0
C439 C 0.39542 0.4858 0.21538 0.0
C440 C 0.36603 0.48662 0.2084 0.0
C441 C 0.36947 0.49727 0.19395 0.0
C442 C 0.40236 0.50722 0.18647 0.0
C443 C 0.43181 0.50638 0.1934 0.0
H444 H 0.34669 0.49788 0.18856 0.0
H445 H 0.6319 0.49151 0.25714 0.0
H446 H 0.02786 0.65465 0.54734 0.0
H447 H 0.00287 0.58797 0.54411 0.0
H448 H 0.10982 0.60107 0.55481 0.0
H449 H 0.13496 0.66778 0.55819 0.0
H450 H 0.07389 0.54952 0.53272 0.0
H451 H 0.04806 0.57589 0.58032 0.0
H452 H 0.02501 0.6039 0.59799 0.0
H453 H 0.91492 0.54066 0.58047 0.0
H454 H 0.93748 0.51277 0.56251 0.0
H455 H 0.01018 0.36229 0.55404 0.0
H456 H 0.03948 0.42961 0.55234 0.0
H457 H 0.93198 0.41992 0.54637 0.0
H458 H 0.90223 0.35292 0.54891 0.0
H459 H 0.96994 0.47047 0.56575 0.0
H460 H -0.00365 0.44272 0.51825 0.0
H461 H 0.02036 0.41462 0.50102 0.0
H462 H 0.12992 0.47949 0.51882 0.0
H463 H 0.10648 0.50768 0.53627 0.0
C464 C 0.0461 0.64338 0.54895 0.0
C465 C 0.08322 0.6664 0.55325 0.0
C466 C 0.03187 0.60536 0.54701 0.0
C467 C 0.05442 0.58963 0.54942 0.0
C468 C 0.09202 0.61275 0.5529 0.0
C469 C 0.10632 0.65086 0.55482 0.0
C470 C 0.03788 0.54879 0.54956 0.0
C471 C 0.05136 0.53215 0.54 0.0
C472 C 0.00834 0.5263 0.55901 0.0
C473 C 0.99454 0.54252 0.56998 0.0
C474 C 0.01899 0.56815 0.58017 0.0
C475 C 0.00601 0.58399 0.59024 0.0
C476 C 0.96854 0.57413 0.59033 0.0
C477 C 0.94395 0.54831 0.58038 0.0
C478 C 0.95681 0.53247 0.57025 0.0
C479 C 0.99262 0.37432 0.55245 0.0
C480 C 0.95365 0.35183 0.55173 0.0
C481 C 0.00955 0.41292 0.55128 0.0
C482 C 0.98795 0.42981 0.5491 0.0
C483 C 0.94921 0.40748 0.54804 0.0
C484 C 0.93224 0.36897 0.54937 0.0
C485 C 0.00535 0.47082 0.54869 0.0
C486 C 0.99224 0.48764 0.55835 0.0
C487 C 0.03527 0.49334 0.53936 0.0
C488 C 0.04959 0.4771 0.52864 0.0
C489 C 0.02554 0.45088 0.51853 0.0
C490 C 0.03905 0.43495 0.50872 0.0
C491 C 0.07663 0.44521 0.50884 0.0
C492 C 0.10082 0.47156 0.51874 0.0
C493 C 0.08745 0.48757 0.52857 0.0
H494 H 0.08702 0.43279 0.50126 0.0
H495 H 0.95855 0.58644 0.59814 0.0
H496 H 0.44141 0.08894 0.87611 0.0
H497 H 0.47869 0.06035 0.87072 0.0
H498 H 0.38025 0.95188 0.87155 0.0
H499 H 0.3423 0.98033 0.87656 0.0
H500 H 0.43487 0.95851 0.88997 0.0
H501 H 0.42509 0.98198 0.84062 0.0
H502 H 0.4265 0.01839 0.81943 0.0
H503 H 0.54258 0.09484 0.82646 0.0
H504 H 0.54178 0.05923 0.84782 0.0
H505 H 0.55572 0.88676 0.88217 0.0
H506 H 0.5052 0.89801 0.87595 0.0
H507 H 0.58357 0.01532 0.87204 0.0
H508 H 0.63451 0.00413 0.87754 0.0
H509 H 0.53024 0.99293 0.8518 0.0
H510 H 0.53658 0.97863 0.90335 0.0
H511 H 0.53653 0.94564 0.92543 0.0
H512 H 0.42787 0.85539 0.91495 0.0
H513 H 0.42752 0.88768 0.89269 0.0
C514 C 0.42738 0.05911 0.87478 0.0
C515 C 0.38882 0.03696 0.87697 0.0
C516 C 0.44881 0.04279 0.87167 0.0
C517 C 0.43214 0.00405 0.87067 0.0
C518 C 0.39354 0.98186 0.87227 0.0
C519 C 0.37199 -0.00181 0.87528 0.0
C520 C 0.45579 0.98695 0.86977 0.0
C521 C 0.45504 0.96513 0.88141 0.0
C522 C 0.48259 0.99645 0.85877 0.0
C523 C 0.4833 0.01799 0.84589 0.0
C524 C 0.45086 0.00671 0.83772 0.0
C525 C 0.45156 0.02719 0.82566 0.0
C526 C 0.48459 0.05893 0.82161 0.0
C527 C 0.51701 0.07023 0.8296 0.0
C528 C 0.51646 0.04987 0.84168 0.0
C529 C 0.56241 0.91486 0.8797 0.0
C530 C 0.5992 0.94464 0.88058 0.0
C531 C 0.53342 0.92124 0.87622 0.0
C532 C 0.54063 0.95754 0.87376 0.0
C533 C 0.57743 0.98709 0.87396 0.0
C534 C 0.60647 0.98071 0.87732 0.0
C535 C 0.50982 0.96535 0.87217 0.0
C536 C 0.50935 0.98548 0.86012 0.0
C537 C 0.48208 0.9547 0.88289 0.0
C538 C 0.48223 0.93532 0.89627 0.0
C539 C 0.51281 0.95161 0.9057 0.0
C540 C 0.51284 0.93307 0.91825 0.0
C541 C 0.48227 0.89838 0.92157 0.0
C542 C 0.45157 0.88222 0.91235 0.0
C543 C 0.45144 0.90062 0.89977 0.0
H544 H 0.48233 0.88407 0.9313 0.0
H545 H 0.48508 0.07475 0.81227 0.0
H546 H 0.60008 0.63093 0.41999 0.0
H547 H 0.54134 0.5766 0.41269 0.0
H548 H 0.49661 0.57135 0.45519 0.0
H549 H 0.55606 0.62441 0.46261 0.0
H550 H 0.48683 0.50839 0.44904 0.0
H551 H 0.46194 0.59241 0.42342 0.0
H552 H 0.47426 0.64403 0.40705 0.0
H553 H 0.48744 0.58512 0.37167 0.0
H554 H 0.47554 0.53323 0.38786 0.0
H555 H 0.32571 0.34805 0.434 0.0
H556 H 0.35813 0.41554 0.43526 0.0
H557 H 0.42973 0.42223 0.40038 0.0
H558 H 0.39659 0.3545 0.39869 0.0
H559 H 0.41792 0.48659 0.40308 0.0
H560 H 0.45478 0.4097 0.43103 0.0
H561 H 0.43988 0.35755 0.44754 0.0
H562 H 0.40197 0.40605 0.47934 0.0
H563 H 0.41607 0.45817 0.46288 0.0
C564 C 0.57738 0.61833 0.42764 0.0
C565 C 0.58243 0.63119 0.44187 0.0
C566 C 0.54374 0.58758 0.42345 0.0
C567 C 0.51434 0.56999 0.43336 0.0
C568 C 0.5189 0.58432 0.44738 0.0
C569 C 0.55279 0.61443 0.45164 0.0
C570 C 0.48094 0.534 0.42975 0.0
C571 C 0.47126 0.50412 0.43916 0.0
C572 C 0.46095 0.52795 0.41671 0.0
C573 C 0.46803 0.55899 0.40689 0.0
C574 C 0.46769 0.59054 0.41217 0.0
C575 C 0.47454 0.61982 0.40291 0.0
C576 C 0.48162 0.61784 0.38833 0.0
C577 C 0.48188 0.58657 0.38297 0.0
C578 C 0.475 0.55717 0.39217 0.0
C579 C 0.34722 0.36371 0.42615 0.0
C580 C 0.35937 0.34584 0.41654 0.0
C581 C 0.36567 0.40238 0.42688 0.0
C582 C 0.39669 0.42365 0.4181 0.0
C583 C 0.40592 0.40616 0.40729 0.0
C584 C 0.38735 0.36744 0.40651 0.0
C585 C 0.4243 0.46183 0.42243 0.0
C586 C 0.43309 0.49166 0.41311 0.0
C587 C 0.44342 0.46821 0.43564 0.0
C588 C 0.43611 0.43756 0.44569 0.0
C589 C 0.4431 0.40912 0.44152 0.0
C590 C 0.43479 0.37957 0.45086 0.0
C591 C 0.4199 0.37844 0.46447 0.0
C592 C 0.41344 0.40694 0.46878 0.0
C593 C 0.42159 0.43648 0.45946 0.0
H594 H 0.41344 0.35553 0.47168 0.0
H595 H 0.48681 0.64052 0.38119 0.0
H596 H 0.98255 0.60674 0.7697 0.0
H597 H 0.00118 0.56135 0.76325 0.0
H598 H 0.8859 0.47532 0.76102 0.0
H599 H 0.86715 0.52061 0.76763 0.0
H600 H 0.93046 0.4518 0.77408 0.0
H601 H 0.93085 0.51585 0.73118 0.0
H602 H 0.94749 0.57468 0.71883 0.0
H603 H 0.06335 0.60933 0.72264 0.0
H604 H 0.04754 0.55144 0.73557 0.0
H605 H 0.00021 0.33943 0.7508 0.0
H606 H 0.96219 0.36837 0.74756 0.0
H607 H 0.06134 0.47628 0.7457 0.0
H608 H 0.09938 0.44759 0.74757 0.0
H609 H 0.01137 0.47989 0.73109 0.0
H610 H 0.01353 0.4306 0.77895 0.0
H611 H 0.00207 0.37939 0.79548 0.0
H612 H 0.88634 0.32201 0.78408 0.0
H613 H 0.89728 0.37271 0.76735 0.0
C614 C 0.96124 0.57815 0.76785 0.0
C615 C 0.92346 0.56725 0.76903 0.0
C616 C 0.97186 0.55226 0.76421 0.0
C617 C 0.94484 0.51518 0.7614 0.0
C618 C 0.90711 0.50385 0.76309 0.0
C619 C 0.89648 0.52971 0.76689 0.0
C620 C 0.95622 0.48877 0.75615 0.0
C621 C 0.94744 0.45738 0.7645 0.0
C622 C 0.97851 0.4964 0.74368 0.0
C623 C 0.98797 0.52929 0.73446 0.0
C624 C 0.9599 0.536 0.7294 0.0
C625 C 0.96919 0.56936 0.72243 0.0
C626 C 0.00646 0.59586 0.72008 0.0
C627 C 0.03449 0.58885 0.72455 0.0
C628 C 0.02538 0.55577 0.73173 0.0
C629 C 0.01409 0.36918 0.74928 0.0
C630 C 0.05309 0.39123 0.75016 0.0
C631 C 0.99218 0.38576 0.74751 0.0
C632 C 0.00883 0.42467 0.74705 0.0
C633 C 0.04768 0.44625 0.74633 0.0
C634 C 0.06953 0.4297 0.7477 0.0
C635 C 0.98687 0.44352 0.74937 0.0
C636 C 0.99348 0.47356 0.74043 0.0
C637 C 0.96303 0.43507 0.76145 0.0
C638 C 0.95628 0.40517 0.77181 0.0
C639 C 0.98567 0.40701 0.77997 0.0
C640 C 0.97928 0.37807 0.78935 0.0
C641 C 0.94352 0.3474 0.79079 0.0
C642 C 0.91404 0.34572 0.78292 0.0
C643 C 0.92031 0.37454 0.77349 0.0
H644 H 0.93864 0.32496 0.79802 0.0
H645 H 0.01358 0.62166 0.71467 0.0
H646 H 0.34553 0.98568 0.09252 0.0
H647 H 0.41264 0.01577 0.08818 0.0
H648 H 0.40562 0.90867 0.08847 0.0
H649 H 0.33881 0.87854 0.09264 0.0
H650 H 0.45594 0.95504 0.10719 0.0
H651 H 0.42634 0.95755 0.05791 0.0
H652 H 0.39789 0.97027 0.03698 0.0
H653 H 0.46125 0.08728 0.04575 0.0
H654 H 0.48971 0.07525 0.06687 0.0
H655 H 0.65088 0.04059 0.07763 0.0
H656 H 0.58533 0.01777 0.07168 0.0
H657 H 0.57309 0.06717 0.11061 0.0
H658 H 0.63823 0.08988 0.11658 0.0
H659 H 0.53317 0.04626 0.06962 0.0
H660 H 0.50199 -0.00253 0.12861 0.0
H661 H 0.53115 0.98198 0.14854 0.0
H662 H 0.58773 0.94972 0.11815 0.0
H663 H 0.55838 0.96437 0.09806 0.0
C664 C 0.35818 0.96853 0.09136 0.0
C665 C 0.33695 0.92976 0.09317 0.0
C666 C 0.39651 0.98574 0.08885 0.0
C667 C 0.41409 0.96443 0.08802 0.0
C668 C 0.39263 0.92564 0.08916 0.0
C669 C 0.35448 0.90849 0.09166 0.0
C670 C 0.45518 0.98254 0.08761 0.0
C671 C 0.47268 0.97482 0.09891 0.0
C672 C 0.47707 0.00806 0.07673 0.0
C673 C 0.45991 0.01545 0.06407 0.0
C674 C 0.43395 0.98598 0.05547 0.0
C675 C 0.41788 0.99307 0.04355 0.0
C676 C 0.42768 0.02955 0.04006 0.0
C677 C 0.45364 0.05903 0.04848 0.0
C678 C 0.4698 0.05209 0.06041 0.0
C679 C 0.63445 0.04751 0.08467 0.0
C680 C 0.64931 0.06631 0.09772 0.0
C681 C 0.5971 0.03457 0.08124 0.0
C682 C 0.57437 0.0404 0.09082 0.0
C683 C 0.59015 0.06211 0.10316 0.0
C684 C 0.62723 0.0748 0.10661 0.0
C685 C 0.53342 0.01913 0.08934 0.0
C686 C 0.51612 0.02629 0.07779 0.0
C687 C 0.51141 0.99242 0.09982 0.0
C688 C 0.52826 0.98236 0.11184 0.0
C689 C 0.52047 0.98685 0.12619 0.0
C690 C 0.53705 0.97824 0.13751 0.0
C691 C 0.56137 0.96499 0.13461 0.0
C692 C 0.56898 0.9601 0.12038 0.0
C693 C 0.55239 0.96856 0.10903 0.0
H694 H 0.57425 0.95843 0.14339 0.0
H695 H 0.41523 0.03497 0.03082 0.0
H696 H 0.28777 0.157 0.38317 0.0
H697 H 0.2854 0.16813 0.35753 0.0
H698 H 0.2224 0.22257 0.3665 0.0
H699 H 0.22499 0.21195 0.39237 0.0
H700 H 0.19821 0.17483 0.34134 0.0
H701 H 0.30716 0.27573 0.36249 0.0
H702 H 0.36414 0.30358 0.37723 0.0
H703 H 0.41253 0.25753 0.34897 0.0
H704 H 0.35543 0.22871 0.33422 0.0
H705 H 0.28865 0.31727 0.28142 0.0
H706 H 0.29245 0.29701 0.30572 0.0
H707 H 0.23882 0.1832 0.29118 0.0
H708 H 0.23476 0.20339 0.26677 0.0
H709 H 0.32104 0.25954 0.31918 0.0
H710 H 0.17394 0.13088 0.31643 0.0
H711 H 0.11448 0.10877 0.30355 0.0
H712 H 0.14094 0.22156 0.29664 0.0
H713 H 0.2004 0.24426 0.30947 0.0
C714 C 0.27288 0.17086 0.37973 0.0
C715 C 0.25686 0.18394 0.38983 0.0
C716 C 0.27159 0.17717 0.36506 0.0
C717 C 0.25403 0.19641 0.36018 0.0
C718 C 0.23607 0.20762 0.3701 0.0
C719 C 0.23766 0.20163 0.38486 0.0
C720 C 0.25724 0.20746 0.34489 0.0
C721 C 0.22504 0.19309 0.33644 0.0
C722 C 0.29223 0.23193 0.33864 0.0
C723 C 0.32685 0.24969 0.34735 0.0
C724 C 0.32981 0.27125 0.35949 0.0
C725 C 0.36214 0.28725 0.36784 0.0
C726 C 0.39191 0.28225 0.36406 0.0
C727 C 0.38942 0.26132 0.3519 0.0
C728 C 0.35707 0.24513 0.34354 0.0
C729 C 0.27858 0.28803 0.28332 0.0
C730 C 0.26131 0.26189 0.27225 0.0
C731 C 0.28078 0.2765 0.2972 0.0
C732 C 0.26538 0.23858 0.30029 0.0
C733 C 0.2505 0.21258 0.28903 0.0
C734 C 0.24855 0.22418 0.27507 0.0
C735 C 0.26203 0.22639 0.31549 0.0
C736 C 0.29424 0.2407 0.32397 0.0
C737 C 0.22694 0.20263 0.32185 0.0
C738 C 0.19168 0.18921 0.31381 0.0
C739 C 0.16704 0.15091 0.31214 0.0
C740 C 0.13337 0.13829 0.30484 0.0
C741 C 0.12392 0.16375 0.29933 0.0
C742 C 0.14831 0.20187 0.30091 0.0
C743 C 0.18204 0.21463 0.30814 0.0
H744 H 0.09762 0.15395 0.2939 0.0
H745 H 0.41693 0.29467 0.37054 0.0
H746 H 0.03213 0.29098 0.59855 0.0
H747 H 0.06308 0.30425 0.62204 0.0
H748 H 0.96251 0.28744 0.64253 0.0
H749 H 0.9324 0.27633 0.61923 0.0
H750 H 0.01698 0.33689 0.65684 0.0
H751 H 0.9862 0.21476 0.63878 0.0
H752 H 0.98844 0.17083 0.62156 0.0
H753 H 0.10741 0.2273 0.62496 0.0
H754 H 0.10586 0.2715 0.64233 0.0
H755 H 0.02391 0.26762 0.72569 0.0
H756 H 0.00725 0.27183 0.70075 0.0
H757 H 0.11882 0.30456 0.68713 0.0
H758 H 0.13555 0.3 0.71193 0.0
H759 H 0.0668 0.25387 0.66903 0.0
H760 H 0.09325 0.36875 0.69136 0.0
H761 H 0.08634 0.40622 0.7104 0.0
H762 H 0.97082 0.35926 0.69981 0.0
H763 H 0.97683 0.32094 0.68088 0.0
C764 C 0.017 0.29108 0.60803 0.0
C765 C 0.97963 0.28203 0.60703 0.0
C766 C 0.03459 0.29832 0.62148 0.0
C767 C 0.01479 0.29572 0.63414 0.0
C768 C 0.97841 0.2894 0.63298 0.0
C769 C 0.96112 0.28288 0.61959 0.0
C770 C 0.03025 0.29632 0.64866 0.0
C771 C 0.02777 0.31865 0.65949 0.0
C772 C 0.04491 0.27297 0.65217 0.0
C773 C 0.04594 0.24664 0.64169 0.0
C774 C 0.01284 0.21792 0.63578 0.0
C775 C 0.01398 0.19297 0.626 0.0
C776 C 0.04803 0.19641 0.62206 0.0
C777 C 0.08105 0.22472 0.62798 0.0
C778 C 0.08006 0.24967 0.63783 0.0
C779 C 0.04474 0.27527 0.71736 0.0
C780 C 0.08107 0.28359 0.72078 0.0
C781 C 0.03529 0.27796 0.70314 0.0
C782 C 0.06202 0.28912 0.69214 0.0
C783 C 0.09787 0.29612 0.69547 0.0
C784 C 0.10736 0.29351 0.70966 0.0
C785 C 0.05274 0.29376 0.67717 0.0
C786 C 0.05651 0.2725 0.6663 0.0
C787 C 0.03882 0.31769 0.67371 0.0
C788 C 0.03545 0.34175 0.68474 0.0
C789 C 0.06633 0.36628 0.69312 0.0
C790 C 0.06257 0.38766 0.70391 0.0
C791 C 0.02815 0.38508 0.70633 0.0
C792 C -0.00254 0.36122 0.69792 0.0
C793 C 0.00104 0.33968 0.68715 0.0
H794 H 0.02528 0.4016 0.71469 0.0
H795 H 0.04882 0.17706 0.61446 0.0
H796 H 0.80246 0.12988 0.0465 0.0
H797 H 0.78089 0.1127 0.02188 0.0
H798 H 0.70467 0.00045 0.03559 0.0
H799 H 0.72694 0.01749 0.06051 0.0
H800 H 0.73819 0.00076 0.01107 0.0
H801 H 0.67335 0.06064 0.02761 0.0
H802 H 0.66533 0.10952 0.0392 0.0
H803 H 0.73575 0.18824 0.00732 0.0
H804 H 0.74468 0.13996 0.99565 0.0
H805 H 0.64352 0.95267 0.94549 0.0
H806 H 0.65111 0.97261 0.97056 0.0
H807 H 0.7503 0.07486 0.95941 0.0
H808 H 0.74327 0.0548 0.93418 0.0
H809 H 0.6989 0.07693 0.98295 0.0
H810 H 0.76923 0.01634 0.96894 0.0
H811 H 0.77519 0.9658 0.95769 0.0
H812 H 0.68915 0.88609 0.98523 0.0
H813 H 0.68268 0.93621 0.99666 0.0
C814 C 0.7811 0.10147 0.04433 0.0
C815 C 0.76618 0.07506 0.05546 0.0
C816 C 0.76863 0.09176 0.03023 0.0
C817 C 0.74051 0.05555 0.02693 0.0
C818 C 0.72618 0.02869 0.03794 0.0
C819 C 0.73894 0.03838 0.05213 0.0
C820 C 0.72698 0.04605 0.01188 0.0
C821 C 0.72897 0.01703 0.00504 0.0
C822 C 0.71538 0.06758 0.0039 0.0
C823 C 0.70991 0.09671 0.01081 0.0
C824 C 0.68735 0.08844 0.02312 0.0
C825 C 0.68261 0.11603 0.0297 0.0
C826 C 0.70007 0.15198 0.02402 0.0
C827 C 0.72225 0.16038 0.01172 0.0
C828 C 0.72713 0.13289 0.00511 0.0
C829 C 0.66632 0.97996 0.94826 0.0
C830 C 0.69311 0.00197 0.93792 0.0
C831 C 0.67059 0.99125 0.9626 0.0
C832 C 0.70154 0.02486 0.96681 0.0
C833 C 0.72624 0.04877 0.9563 0.0
C834 C 0.72209 0.03736 0.94189 0.0
C835 C 0.71074 0.03219 0.98227 0.0
C836 C 0.70788 0.06065 0.98911 0.0
C837 C 0.72118 0.00998 0.99033 0.0
C838 C 0.72521 0.97992 0.98354 0.0
C839 C 0.75139 0.988 0.97252 0.0
C840 C 0.75491 0.95945 0.96613 0.0
C841 C 0.7324 0.92274 0.97067 0.0
C842 C 0.7065 0.91453 0.9817 0.0
C843 C 0.70297 0.94299 0.98816 0.0
H844 H 0.73513 0.90068 0.9657 0.0
H845 H 0.69637 0.17331 0.02912 0.0
H846 H 0.67037 0.78215 0.39316 0.0
H847 H 0.67875 0.77718 0.36752 0.0
H848 H 0.74325 0.72431 0.3766 0.0
H849 H 0.73568 0.73006 0.40255 0.0
H850 H 0.77475 0.77392 0.35544 0.0
H851 H 0.65271 0.67377 0.36522 0.0
H852 H 0.58849 0.6427 0.37455 0.0
H853 H 0.56287 0.70975 0.34696 0.0
H854 H 0.6271 0.74163 0.33761 0.0
H855 H 0.75289 0.68797 0.28746 0.0
H856 H 0.74538 0.69772 0.31281 0.0
H857 H 0.71142 0.7768 0.30127 0.0
H858 H 0.71966 0.76776 0.27559 0.0
H859 H 0.66476 0.7156 0.32317 0.0
H860 H 0.78979 0.81444 0.31316 0.0
H861 H 0.85249 0.83854 0.30286 0.0
H862 H 0.87092 0.76671 0.33063 0.0
H863 H 0.80812 0.7418 0.34094 0.0
C864 C 0.6863 0.76934 0.38977 0.0
C865 C 0.70215 0.75622 0.39992 0.0
C866 C 0.69096 0.76643 0.37505 0.0
C867 C 0.71109 0.74982 0.3701 0.0
C868 C 0.72747 0.73711 0.38018 0.0
C869 C 0.72302 0.74027 0.39499 0.0
C870 C 0.71488 0.74593 0.35437 0.0
C871 C 0.75065 0.76085 0.34843 0.0
C872 C 0.68348 0.72932 0.34515 0.0
C873 C 0.64486 0.71036 0.35081 0.0
C874 C 0.63349 0.68214 0.36123 0.0
C875 C 0.59707 0.66433 0.36651 0.0
C876 C 0.57167 0.67431 0.36137 0.0
C877 C 0.58261 0.70209 0.35094 0.0
C878 C 0.61901 0.72002 0.34564 0.0
C879 C 0.74365 0.70737 0.29024 0.0
C880 C 0.7368 0.7271 0.27951 0.0
C881 C 0.73951 0.71295 0.30475 0.0
C882 C 0.72804 0.73804 0.30886 0.0
C883 C 0.72037 0.75733 0.29824 0.0
C884 C 0.72513 0.7522 0.28363 0.0
C885 C 0.72443 0.74386 0.32435 0.0
C886 C 0.68874 0.72905 0.33022 0.0
C887 C 0.7558 0.76002 0.33352 0.0
C888 C 0.79411 0.776 0.32773 0.0
C889 C 0.80714 0.80365 0.31702 0.0
C890 C 0.8427 0.81747 0.31118 0.0
C891 C 0.86558 0.80402 0.31604 0.0
C892 C 0.85312 0.77703 0.32685 0.0
C893 C 0.81757 0.7631 0.33272 0.0
H894 H 0.89293 0.81444 0.31141 0.0
H895 H 0.54348 0.66044 0.36543 0.0
H896 H 0.99067 0.71754 0.60413 0.0
H897 H 0.96266 0.69476 0.62787 0.0
H898 H 0.05467 0.67962 0.63967 0.0
H899 H 0.08233 0.7016 0.61597 0.0
H900 H 0.99176 0.62688 0.65184 0.0
H901 H 0.05623 0.76048 0.6468 0.0
H902 H 0.06899 0.82004 0.63608 0.0
H903 H 0.95807 0.79531 0.64629 0.0
H904 H 0.94444 0.73529 0.65684 0.0
H905 H -0.00323 0.70421 0.72814 0.0
H906 H 0.01769 0.70277 0.70352 0.0
H907 H 0.90491 0.62489 0.69117 0.0
H908 H 0.88398 0.62519 0.7156 0.0
H909 H 0.97764 0.72124 0.67946 0.0
H910 H 0.9125 0.57882 0.67922 0.0
H911 H 0.90396 0.51965 0.68878 0.0
H912 H 0.0222 0.56436 0.68853 0.0
H913 H 0.03138 0.62421 0.67939 0.0
C914 C 0.00428 0.70822 0.61162 0.0
C915 C 0.03895 0.71184 0.60828 0.0
C916 C 0.98842 0.6955 0.62522 0.0
C917 C 0.00707 0.68636 0.63566 0.0
C918 C 0.03993 0.68678 0.63184 0.0
C919 C 0.05576 0.69947 0.61829 0.0
C920 C 0.99476 0.68012 0.65092 0.0
C921 C 0.98853 0.64747 0.65785 0.0
C922 C 0.991 0.70717 0.65885 0.0
C923 C -0.0008 0.74323 0.65247 0.0
C924 C 0.03446 0.7676 0.64664 0.0
C925 C 0.04186 0.80146 0.64061 0.0
C926 C 0.01433 0.81142 0.64049 0.0
C927 C 0.97934 0.78752 0.64638 0.0
C928 C 0.97176 0.75359 0.65238 0.0
C929 C 0.97662 0.68604 0.72027 0.0
C930 C 0.93868 0.66505 0.72382 0.0
C931 C 0.98862 0.6851 0.70624 0.0
C932 C 0.96294 0.66301 0.69561 0.0
C933 C 0.92538 0.64107 0.69929 0.0
C934 C 0.91342 0.64176 0.71327 0.0
C935 C 0.97405 0.66779 0.68027 0.0
C936 C 0.98043 0.70048 0.67338 0.0
C937 C 0.97804 0.6409 0.6724 0.0
C938 C 0.97264 0.60622 0.67904 0.0
C939 C 0.93668 0.57635 0.68159 0.0
C940 C 0.93172 0.54259 0.6868 0.0
C941 C 0.96252 0.53825 0.68926 0.0
C942 C -0.00164 0.56774 0.68661 0.0
C943 C 0.00347 0.60166 0.68152 0.0
H944 H 0.95863 0.51208 0.69327 0.0
H945 H 0.02013 0.83771 0.6359 0.0
H946 H 0.35734 0.05163 0.946 0.0
H947 H 0.34433 0.02934 0.9707 0.0
H948 H 0.23934 0.93637 0.95733 0.0
H949 H 0.25168 0.9594 0.93254 0.0
H950 H 0.22884 0.97225 0.9781 0.0
H951 H 0.31391 0.92769 0.97091 0.0
H952 H 0.37271 0.93049 0.96425 0.0
H953 H 0.43072 0.01387 0.99651 0.0
H954 H 0.37242 0.01209 0.0032 0.0
H955 H 0.17838 0.87455 0.04374 0.0
H956 H 0.19963 0.89507 0.01923 0.0
H957 H 0.29039 -0.00221 0.03545 0.0
H958 H 0.26883 0.97742 0.06028 0.0
H959 H 0.31006 0.9592 0.01396 0.0
H960 H 0.22556 0.00433 0.02079 0.0
H961 H 0.16657 0.00046 0.02797 0.0
H962 H 0.10777 0.91489 0.99656 0.0
H963 H 0.16634 0.91782 0.98934 0.0
C964 C 0.33188 0.02587 0.94821 0.0
C965 C 0.30533 0.00752 0.93732 0.0
C966 C 0.32455 0.01304 0.96238 0.0
C967 C 0.29079 0.98121 0.96593 0.0
C968 C 0.26552 0.96114 0.95486 0.0
C969 C 0.27273 0.97413 0.94066 0.0
C970 C 0.28 0.97167 0.98127 0.0
C971 C 0.24638 0.96873 0.98585 0.0
C972 C 0.30356 0.96865 0.99157 0.0
C973 C 0.33879 0.97005 0.98744 0.0
C974 C 0.33926 0.94694 0.97648 0.0
C975 C 0.37251 0.94829 0.97272 0.0
C976 C 0.40545 0.97243 0.97992 0.0
C977 C 0.40521 0.99524 0.99092 0.0
C978 C 0.37206 0.99407 0.9947 0.0
C979 C 0.20279 0.90162 0.04213 0.0
C980 C 0.22196 0.92446 0.0539 0.0
C981 C 0.21482 0.91329 0.02812 0.0
C982 C 0.24645 0.94792 0.02556 0.0
C983 C 0.26586 0.97095 0.03726 0.0
C984 C 0.25343 0.95944 0.05138 0.0
C985 C 0.25894 0.95936 0.01057 0.0
C986 C 0.29275 0.96276 0.00611 0.0
C987 C 0.23564 0.96282 1.00035 0.0
C988 C 0.20033 0.96107 0.00462 0.0
C989 C 0.20001 0.98445 0.0155 0.0
C990 C 0.16665 0.98247 0.01956 0.0
C991 C 0.13343 0.95738 0.01275 0.0
C992 C 0.13352 0.93428 1.00184 0.0
C993 C 0.1668 0.93612 0.99775 0.0
H994 H 0.10764 0.9559 0.01591 0.0
H995 H 0.43115 0.97339 0.977 0.0
H996 H 0.15479 0.1273 0.26072 0.0
H997 H 0.11709 0.06007 0.26452 0.0
H998 H 0.01951 0.07034 0.27007 0.0
H999 H 0.05693 0.13734 0.26617 0.0
H1000 H 0.02099 0.01868 0.28878 0.0
H1001 H 0.0395 0.05066 0.23771 0.0
H1002 H 0.07924 0.08004 0.21647 0.0
H1003 H 0.12925 0.01203 0.22189 0.0
H1004 H 0.09016 0.98265 0.24332 0.0
H1005 H 0.86398 0.85633 0.26532 0.0
H1006 H 0.91605 0.91805 0.27032 0.0
H1007 H 0.99299 0.881 0.25894 0.0
H1008 H 0.94071 0.81937 0.25328 0.0
H1009 H 0.01112 0.9435 0.24573 0.0
H1010 H 0.98671 0.9047 0.29461 0.0
H1011 H 0.94872 0.87606 0.31629 0.0
H1012 H 0.9109 0.95509 0.3154 0.0
H1013 H 0.94892 0.98443 0.29376 0.0
C1014 C 0.12533 0.11517 0.26282 0.0
C1015 C 0.10863 0.13738 0.26294 0.0
C1016 C 0.10394 0.0769 0.26509 0.0
C1017 C 0.0655 0.0603 0.26741 0.0
C1018 C 0.04917 0.08269 0.26833 0.0
C1019 C 0.07053 0.12092 0.26607 0.0
C1020 C 0.04149 0.01943 0.26742 0.0
C1021 C 0.01875 0.00213 0.2794 0.0
C1022 C 0.03949 -0.00216 0.25531 0.0
C1023 C 0.06222 0.01476 0.2422 0.0
C1024 C 0.05911 0.04211 0.23442 0.0
C1025 C 0.08151 0.05876 0.22235 0.0
C1026 C 0.10685 0.048 0.21786 0.0
C1027 C 0.10968 0.0204 0.2254 0.0
C1028 C 0.0874 0.00373 0.2375 0.0
C1029 C 0.89195 0.86124 0.26389 0.0
C1030 C 0.89817 0.83303 0.25876 0.0
C1031 C 0.92176 0.89644 0.26697 0.0
C1032 C 0.95849 0.90408 0.26518 0.0
C1033 C 0.96487 0.87566 0.26047 0.0
C1034 C 0.93497 0.84039 0.25733 0.0
C1035 C 0.98978 0.9426 0.267 0.0
C1036 C 0.01388 0.95963 0.25531 0.0
C1037 C 0.99317 0.96385 0.27941 0.0
C1038 C 0.97052 0.94663 0.29252 0.0
C1039 C 0.97018 0.91588 0.299 0.0
C1040 C 0.94867 0.89955 0.31129 0.0
C1041 C 0.92721 0.91358 0.31716 0.0
C1042 C 0.9275 0.94422 0.31083 0.0
C1043 C 0.94919 0.96085 0.2986 0.0
H1044 H 0.91042 0.90075 0.32664 0.0
H1045 H 0.12423 0.06098 0.20853 0.0
H1046 H 0.98291 0.11755 0.60602 0.0
H1047 H -0.00109 0.06859 0.60373 0.0
H1048 H 0.95786 0.04797 0.56009 0.0
H1049 H 0.94193 0.09729 0.56234 0.0
H1050 H 0.93257 0.98289 0.57739 0.0
H1051 H 0.04666 0.09087 0.56391 0.0
H1052 H 0.09846 0.15518 0.56658 0.0
H1053 H 0.12953 0.12626 0.60654 0.0
H1054 H 0.07756 0.06187 0.60422 0.0
H1055 H 0.00755 0.86133 0.56669 0.0
H1056 H 0.99116 0.90992 0.56354 0.0
H1057 H 0.03988 0.95631 0.60477 0.0
H1058 H 0.05774 0.90928 0.60774 0.0
H1059 H 0.06174 0.00921 0.585 0.0
H1060 H 0.94676 0.90329 0.59973 0.0
H1061 H 0.89195 0.84037 0.59885 0.0
H1062 H 0.85978 0.8655 0.55833 0.0
H1063 H 0.91501 0.92829 0.55875 0.0
C1064 C 0.97733 0.10258 0.59595 0.0
C1065 C 0.96141 0.11127 0.58434 0.0
C1066 C 0.98662 0.0748 0.59462 0.0
C1067 C 0.97985 0.05497 0.5817 0.0
C1068 C 0.96349 0.06318 0.57011 0.0
C1069 C 0.95466 0.09143 0.57138 0.0
C1070 C 0.98959 0.02537 0.5805 0.0
C1071 C 0.96089 0.98854 0.57873 0.0
C1072 C 0.02644 0.03298 0.58258 0.0
C1073 C 0.05803 0.07159 0.58394 0.0
C1074 C 0.06437 0.09828 0.57332 0.0
C1075 C 0.0938 0.13474 0.57477 0.0
C1076 C 0.11723 0.14482 0.58674 0.0
C1077 C 0.11135 0.11842 0.59728 0.0
C1078 C 0.08194 0.08192 0.59589 0.0
C1079 C 0.01498 0.88198 0.57505 0.0
C1080 C 0.03397 0.88121 0.58749 0.0
C1081 C 0.00522 0.90948 0.57329 0.0
C1082 C 0.01397 0.93649 0.58397 0.0
C1083 C 0.03277 0.9357 0.59639 0.0
C1084 C 0.04265 0.90844 0.59814 0.0
C1085 C 0.00456 0.96631 0.58223 0.0
C1086 C 0.03343 0.00336 0.58342 0.0
C1087 C 0.96774 0.95876 0.57974 0.0
C1088 C 0.93546 0.92036 0.57915 0.0
C1089 C 0.92842 0.89522 0.59049 0.0
C1090 C 0.89716 0.85961 0.59011 0.0
C1091 C 0.87241 0.84894 0.57854 0.0
C1092 C 0.87895 0.87381 0.56729 0.0
C1093 C 0.91033 0.90936 0.56757 0.0
H1094 H 0.84816 0.82139 0.57829 0.0
H1095 H 0.13998 0.17307 0.58784 0.0
H1096 H 0.12051 -0.00205 0.93522 0.0
H1097 H 0.0628 -0.00027 0.93172 0.0
H1098 H 0.10828 0.06461 0.89307 0.0
H1099 H 0.16576 0.06296 0.89654 0.0
H1100 H 0.07614 0.09333 0.91117 0.0
H1101 H 0.04599 0.97798 0.889 0.0
H1102 H 0.04026 0.9161 0.88744 0.0
H1103 H 0.96393 0.87824 0.92301 0.0
H1104 H 0.96959 0.94009 0.92491 0.0
H1105 H 0.86227 -0.00138 0.89223 0.0
H1106 H 0.92427 0.00728 0.88896 0.0
H1107 H 0.9603 0.07095 0.92826 0.0
H1108 H 0.8984 0.06333 0.93138 0.0
H1109 H 0.95303 0.97894 0.90657 0.0
H1110 H 0.04843 0.12729 0.92851 0.0
H1111 H 0.05818 0.19074 0.92619 0.0
H1112 H 0.00825 0.16417 0.88422 0.0
H1113 H -0.00274 0.10028 0.88646 0.0
C1114 C 0.118 0.01246 0.92599 0.0
C1115 C 0.14729 0.02995 0.91608 0.0
C1116 C 0.08514 0.01335 0.92396 0.0
C1117 C 0.08136 0.03209 0.91208 0.0
C1118 C 0.1107 0.04988 0.90226 0.0
C1119 C 0.14332 0.04862 0.90419 0.0
C1120 C 0.04694 0.03361 0.91 0.0
C1121 C 0.0492 0.0684 0.91006 0.0
C1122 C 0.01205 0.00104 0.9083 0.0
C1123 C 0.00848 0.96378 0.90718 0.0
C1124 C 0.02822 0.95656 0.89657 0.0
C1125 C 0.02494 0.92147 0.89561 0.0
C1126 C 0.00182 0.89329 0.90515 0.0
C1127 C 0.98186 0.90011 0.91564 0.0
C1128 C 0.98506 0.93517 0.91666 0.0
C1129 C 0.88357 0.01542 0.89997 0.0
C1130 C 0.87528 0.03007 0.91216 0.0
C1131 C 0.91901 0.02015 0.89811 0.0
C1132 C 0.9469 0.03971 0.90836 0.0
C1133 C 0.93933 0.0561 0.92012 0.0
C1134 C 0.90384 0.05136 0.922 0.0
C1135 C 0.98207 0.03883 0.9078 0.0
C1136 C 0.97996 0.00402 0.90743 0.0
C1137 C 0.01723 0.07145 0.90874 0.0
C1138 C 0.02165 0.10898 0.90773 0.0
C1139 C 0.03918 0.13492 0.91886 0.0
C1140 C 0.04477 0.17088 0.91758 0.0
C1141 C 0.03349 0.18136 0.90512 0.0
C1142 C 0.01642 0.15583 0.89395 0.0
C1143 C 0.01025 0.11967 0.89526 0.0
H1144 H 0.03818 0.20932 0.90408 0.0
H1145 H -0.00069 0.86614 0.90439 0.0
H1146 H 0.82386 0.94141 0.44361 0.0
H1147 H 0.89077 0.9852 0.44408 0.0
H1148 H 0.91161 0.8991 0.42911 0.0
H1149 H 0.84495 0.85548 0.42818 0.0
H1150 H 0.95136 0.9358 0.454 0.0
H1151 H 0.92429 0.96501 0.40677 0.0
H1152 H 0.89171 0.98377 0.38947 0.0
H1153 H 0.93071 0.08691 0.41202 0.0
H1154 H 0.96312 0.06851 0.42959 0.0
H1155 H 0.14156 0.03231 0.43674 0.0
H1156 H 0.07396 0.99445 0.43669 0.0
H1157 H 0.06546 0.0915 0.44627 0.0
H1158 H 0.13322 0.12957 0.44651 0.0
H1159 H 0.01845 0.05213 0.42558 0.0
H1160 H 0.04677 0.02578 0.47223 0.0
H1161 H 0.07896 0.00851 0.49029 0.0
H1162 H 0.03644 0.90167 0.47029 0.0
H1163 H 0.00455 0.91862 0.45195 0.0
C1164 C 0.84256 0.93193 0.44013 0.0
C1165 C 0.82895 0.89475 0.43599 0.0
C1166 C 0.88079 0.95697 0.44047 0.0
C1167 C 0.90595 0.94521 0.43668 0.0
C1168 C 0.89252 0.90851 0.43218 0.0
C1169 C 0.85439 0.88359 0.43173 0.0
C1170 C 0.9464 0.97059 0.43802 0.0
C1171 C 0.96618 0.96105 0.44768 0.0
C1172 C 0.96523 0.00412 0.43015 0.0
C1173 C 0.94577 0.01519 0.41959 0.0
C1174 C 0.92563 0.99153 0.40812 0.0
C1175 C 0.90726 0.00213 0.39825 0.0
C1176 C 0.90904 0.03646 0.39967 0.0
C1177 C 0.92929 0.0603 0.41095 0.0
C1178 C 0.94769 0.04981 0.42086 0.0
C1179 C 0.12539 0.04554 0.43908 0.0
C1180 C 0.14281 0.08395 0.44166 0.0
C1181 C 0.08672 0.02387 0.43902 0.0
C1182 C 0.06471 0.04009 0.44168 0.0
C1183 C 0.08195 0.07843 0.44423 0.0
C1184 C 0.12067 0.10016 0.44429 0.0
C1185 C 0.02368 0.01704 0.4414 0.0
C1186 C 0.0037 0.02703 0.43198 0.0
C1187 C 0.00453 0.98408 0.44963 0.0
C1188 C 0.02362 0.97367 0.46063 0.0
C1189 C 0.04461 -0.00123 0.4716 0.0
C1190 C 0.06274 0.989 0.48191 0.0
C1191 C 0.05983 0.95404 0.48142 0.0
C1192 C 0.03872 0.92876 0.47064 0.0
C1193 C 0.02059 0.93843 0.4603 0.0
H1194 H 0.07386 0.94651 0.48941 0.0
H1195 H 0.89481 0.04462 0.39201 0.0
H1196 H 0.89921 0.83327 0.74757 0.0
H1197 H 0.91862 0.89827 0.7522 0.0
H1198 H 0.01325 0.91089 0.77616 0.0
H1199 H 0.99342 0.84534 0.77173 0.0
H1200 H 0.98421 0.94848 0.78894 0.0
H1201 H 0.02156 0.93942 0.74084 0.0
H1202 H 0.01263 0.91514 0.71606 0.0
H1203 H 0.93377 0.95114 0.70799 0.0
H1204 H 0.94186 0.97519 0.73281 0.0
H1205 H 0.10328 0.14359 0.78137 0.0
H1206 H 0.07253 0.07586 0.78154 0.0
H1207 H 0.97816 0.06966 0.75952 0.0
H1208 H 0.00927 0.13777 0.75911 0.0
H1209 H 0.00346 0.02833 0.74636 0.0
H1210 H 0.97054 0.04211 0.79428 0.0
H1211 H 0.98132 0.06734 0.81894 0.0
H1212 H 0.05409 0.02405 0.82729 0.0
H1213 H 0.04414 -0.00111 0.8026 0.0
C1214 C 0.92418 0.84988 0.75381 0.0
C1215 C 0.94513 0.83435 0.75909 0.0
C1216 C 0.93522 0.88704 0.75648 0.0
C1217 C 0.96785 0.90975 0.76427 0.0
C1218 C 0.98805 0.89397 0.77007 0.0
C1219 C 0.97674 0.85655 0.76753 0.0
C1220 C 0.98157 0.95021 0.76581 0.0
C1221 C 0.98879 0.96603 0.77963 0.0
C1222 C 0.9868 0.97302 0.75368 0.0
C1223 C 0.98204 0.95876 0.73873 0.0
C1224 C 0.00212 0.94192 0.73381 0.0
C1225 C -0.00276 0.92823 0.71976 0.0
C1226 C 0.97257 0.93151 0.71046 0.0
C1227 C 0.95282 0.94857 0.7152 0.0
C1228 C 0.95756 0.96226 0.72926 0.0
C1229 C 0.07588 0.12782 0.77664 0.0
C1230 C 0.05884 0.14603 0.77011 0.0
C1231 C 0.05816 0.08908 0.77688 0.0
C1232 C 0.02294 0.06764 0.77061 0.0
C1233 C 0.00531 0.08568 0.76445 0.0
C1234 C 0.02298 0.12455 0.7643 0.0
C1235 C 0.00612 0.02667 0.76948 0.0
C1236 C -0.00148 0.01075 0.7557 0.0
C1237 C 0.00084 0.00395 0.78164 0.0
C1238 C 0.00682 0.01888 0.79653 0.0
C1239 C 0.98908 0.0382 0.80133 0.0
C1240 C 0.99499 0.05242 0.81532 0.0
C1241 C 0.01843 0.04734 0.82466 0.0
C1242 C 0.03594 0.02793 0.82003 0.0
C1243 C 0.03014 0.01364 0.80605 0.0
H1244 H 0.02298 0.05838 0.83549 0.0
H1245 H 0.96883 0.92089 0.69958 0.0
H1246 H 0.8694 0.02411 0.08803 0.0
H1247 H 0.90972 -0.00249 0.09045 0.0
H1248 H 0.0044 0.10702 0.0965 0.0
H1249 H 0.96418 0.13399 0.09444 0.0
H1250 H 0.0183 0.06495 0.07728 0.0
H1251 H 0.96771 0.05092 0.1248 0.0
H1252 H 0.91868 0.03162 0.14324 0.0
H1253 H 0.87313 0.91763 0.13063 0.0
H1254 H 0.92145 0.93625 0.11194 0.0
H1255 H 0.13705 0.99347 0.09519 0.0
H1256 H 0.10318 0.02738 0.09701 0.0
H1257 H -0.00089 0.92404 0.09436 0.0
H1258 H 0.03267 0.88997 0.09301 0.0
H1259 H 0.99421 0.96807 0.11371 0.0
H1260 H 0.03794 0.98096 0.06478 0.0
H1261 H 0.08545 -0.00215 0.04587 0.0
H1262 H 0.14125 0.11118 0.06033 0.0
H1263 H 0.09431 0.09483 0.07947 0.0
C1264 C 0.89867 0.04267 0.09003 0.0
C1265 C 0.9133 0.08132 0.09113 0.0
C1266 C 0.92174 0.02733 0.09138 0.0
C1267 C 0.95998 0.05024 0.09385 0.0
C1268 C 0.97492 0.08883 0.09464 0.0
C1269 C 0.95183 0.10422 0.09337 0.0
C1270 C 0.98436 0.03382 0.09532 0.0
C1271 C 0.01345 0.04423 0.08541 0.0
C1272 C 0.97751 0.00624 0.10574 0.0
C1273 C 0.94811 0.99505 0.11688 0.0
C1274 C 0.94703 0.02177 0.12586 0.0
C1275 C 0.91939 0.01094 0.13638 0.0
C1276 C 0.89284 0.97342 0.13811 0.0
C1277 C 0.89375 0.94667 0.12928 0.0
C1278 C 0.92126 0.95735 0.11873 0.0
C1279 C 0.10697 0.97791 0.09517 0.0
C1280 C 0.0876 0.93897 0.09376 0.0
C1281 C 0.08763 -0.00262 0.09608 0.0
C1282 C 0.04858 0.97831 0.09559 0.0
C1283 C 0.02922 0.93939 0.0947 0.0
C1284 C 0.04849 0.91995 0.09377 0.0
C1285 C 0.02766 -0.00133 0.0955 0.0
C1286 C -0.00074 0.98905 0.10568 0.0
C1287 C 0.03481 0.02665 0.08522 0.0
C1288 C 0.06286 0.0366 0.07365 0.0
C1289 C 0.06049 0.00943 0.06399 0.0
C1290 C 0.08729 0.0189 0.05322 0.0
C1291 C 0.11641 0.05554 0.05193 0.0
C1292 C 0.11871 0.0828 0.06137 0.0
C1293 C 0.09201 0.07345 0.07217 0.0
H1294 H 0.13714 0.06282 0.04358 0.0
H1295 H 0.87163 0.965 0.14631 0.0
H1296 H 0.84601 0.16733 0.16485 0.0
H1297 H 0.88958 0.21398 0.18152 0.0
H1298 H 0.92555 0.29732 0.14818 0.0
H1299 H 0.88309 0.25034 0.13125 0.0
H1300 H 0.98094 0.29155 0.15735 0.0
H1301 H 0.89257 0.31094 0.18083 0.0
H1302 H 0.83274 0.29611 0.19186 0.0
H1303 H 0.84884 0.23349 0.22499 0.0
H1304 H 0.90848 0.24739 0.21406 0.0
H1305 H 0.12946 0.35141 0.20512 0.0
H1306 H 0.08054 0.36057 0.19462 0.0
H1307 H -0.00277 0.25466 0.21175 0.0
H1308 H 0.04565 0.24615 0.22272 0.0
H1309 H 0.97054 0.30238 0.21011 0.0
H1310 H 0.03959 0.26063 0.17884 0.0
H1311 H 0.09729 0.27028 0.16728 0.0
H1312 H 0.1143 0.37205 0.14847 0.0
H1313 H 0.05684 0.3631 0.16007 0.0
C1314 C 0.86267 0.19574 0.16114 0.0
C1315 C 0.86163 0.20496 0.14667 0.0
C1316 C 0.88713 0.22262 0.17076 0.0
C1317 C 0.91077 0.2593 0.16612 0.0
C1318 C 0.90743 0.26926 0.152 0.0
C1319 C 0.88307 0.24232 0.14235 0.0
C1320 C 0.94378 0.284 0.17492 0.0
C1321 C 0.97874 0.29534 0.1688 0.0
C1322 C 0.94105 0.28882 0.18986 0.0
C1323 C 0.90516 0.28032 0.1966 0.0
C1324 C 0.88331 0.29384 0.19042 0.0
C1325 C 0.8494 0.2856 0.19667 0.0
C1326 C 0.83701 0.26389 0.20912 0.0
C1327 C 0.85852 0.25039 0.21536 0.0
C1328 C 0.89245 0.25854 0.20916 0.0
C1329 C 0.10065 0.33068 0.20702 0.0
C1330 C 0.09132 0.29755 0.21438 0.0
C1331 C 0.07277 0.33597 0.20103 0.0
C1332 C 0.03533 0.30799 0.20219 0.0
C1333 C 0.02594 0.27659 0.21068 0.0
C1334 C 0.05367 0.27143 0.21673 0.0
C1335 C 0.00658 0.30719 0.19257 0.0
C1336 C 0.97269 0.30046 0.19854 0.0
C1337 C 0.01 0.3062 0.17745 0.0
C1338 C 0.04433 0.31147 0.17044 0.0
C1339 C 0.05578 0.28513 0.17229 0.0
C1340 C 0.0884 0.29047 0.16574 0.0
C1341 C 0.10952 0.32183 0.15719 0.0
C1342 C 0.09798 0.34784 0.15514 0.0
C1343 C 0.06542 0.34267 0.1617 0.0
H1344 H 0.13476 0.32591 0.15212 0.0
H1345 H 0.81074 0.25753 0.21394 0.0
H1346 H 0.79362 0.06147 0.57519 0.0
H1347 H 0.7456 0.99682 0.5706 0.0
H1348 H 0.74231 0.02341 0.52592 0.0
H1349 H 0.79084 0.08789 0.5304 0.0
H1350 H 0.66915 0.96884 0.53985 0.0
H1351 H 0.79997 -0.00081 0.53321 0.0
H1352 H 0.86337 0.02192 0.54252 0.0
H1353 H 0.81969 0.93971 0.57603 0.0
H1354 H 0.75589 0.91704 0.56707 0.0
H1355 H 0.65481 0.85326 0.48488 0.0
H1356 H 0.65878 0.89461 0.50406 0.0
H1357 H 0.67726 0.82775 0.53495 0.0
H1358 H 0.67524 0.7872 0.51539 0.0
H1359 H 0.72974 0.89213 0.53705 0.0
H1360 H 0.60185 0.84764 0.53807 0.0
H1361 H 0.53789 0.82379 0.52929 0.0
H1362 H 0.57133 0.92774 0.50817 0.0
H1363 H 0.63563 0.95209 0.51661 0.0
C1364 C 0.78185 0.05364 0.56448 0.0
C1365 C 0.79586 0.07931 0.55309 0.0
C1366 C 0.75446 0.01688 0.56191 0.0
C1367 C 0.74051 0.00562 0.54796 0.0
C1368 C 0.7526 0.03185 0.53679 0.0
C1369 C 0.78045 0.06843 0.5393 0.0
C1370 C 0.71837 0.9659 0.54433 0.0
C1371 C 0.68195 0.95165 0.53929 0.0
C1372 C 0.73479 0.94327 0.54432 0.0
C1373 C 0.77316 0.95683 0.54962 0.0
C1374 C 0.80386 0.98625 0.54266 0.0
C1375 C 0.83986 -0.00092 0.54786 0.0
C1376 C 0.84555 0.98237 0.5599 0.0
C1377 C 0.81523 0.95273 0.56674 0.0
C1378 C 0.77915 0.93992 0.56162 0.0
C1379 C 0.6583 0.84657 0.49583 0.0
C1380 C 0.66503 0.81734 0.49869 0.0
C1381 C 0.66026 0.87011 0.50688 0.0
C1382 C 0.6681 0.86433 0.52106 0.0
C1383 C 0.67128 0.83289 0.52411 0.0
C1384 C 0.67014 0.80976 0.51297 0.0
C1385 C 0.68057 0.89499 0.53168 0.0
C1386 C 0.71559 0.90798 0.53809 0.0
C1387 C 0.66245 0.91604 0.53313 0.0
C1388 C 0.6237 0.90172 0.52801 0.0
C1389 C 0.59566 0.86539 0.53149 0.0
C1390 C 0.5593 0.85177 0.52657 0.0
C1391 C 0.55055 0.87424 0.51818 0.0
C1392 C 0.57813 0.91039 0.5147 0.0
C1393 C 0.61454 0.92416 0.51959 0.0
H1394 H 0.52239 0.86363 0.51438 0.0
H1395 H 0.87345 0.9923 0.56389 0.0
H1396 H 0.78728 0.71159 0.79727 0.0
H1397 H 0.75212 0.71744 0.81707 0.0
H1398 H 0.78575 0.65625 0.8448 0.0
H1399 H 0.82084 0.6499 0.82491 0.0
H1400 H 0.6996 0.67728 0.83928 0.0
H1401 H 0.82433 0.7122 0.8736 0.0
H1402 H 0.8888 0.72446 0.87138 0.0
H1403 H 0.89896 0.77541 0.83012 0.0
H1404 H 0.83483 0.76396 0.83223 0.0
H1405 H 0.76648 0.83321 0.89997 0.0
H1406 H 0.76234 0.77586 0.89103 0.0
H1407 H 0.72084 0.79044 0.85038 0.0
H1408 H 0.72331 0.84654 0.85943 0.0
H1409 H 0.8008 0.77153 0.86993 0.0
H1410 H 0.6676 0.7128 0.83342 0.0
H1411 H 0.60403 0.70281 0.8351 0.0
H1412 H 0.60971 0.70211 0.88124 0.0
H1413 H 0.6731 0.7115 0.87988 0.0
C1414 C 0.786 0.69807 0.80739 0.0
C1415 C 0.80759 0.6812 0.80969 0.0
C1416 C 0.76569 0.70123 0.81869 0.0
C1417 C 0.7669 0.68775 0.83241 0.0
C1418 C 0.78479 0.66704 0.83428 0.0
C1419 C 0.80516 0.66389 0.82299 0.0
C1420 C 0.75748 0.70322 0.84492 0.0
C1421 C 0.72139 0.69755 0.84618 0.0
C1422 C 0.78586 0.72871 0.85418 0.0
C1423 C 0.82478 0.73684 0.85301 0.0
C1424 C 0.84045 0.72616 0.8641 0.0
C1425 C 0.87689 0.73297 0.86286 0.0
C1426 C 0.89792 0.75059 0.8506 0.0
C1427 C 0.88264 0.76171 0.8396 0.0
C1428 C 0.84628 0.7551 0.84082 0.0
C1429 C 0.75582 0.82374 0.88922 0.0
C1430 C 0.74552 0.84452 0.88034 0.0
C1431 C 0.75342 0.79099 0.88415 0.0
C1432 C 0.74059 0.77848 0.87016 0.0
C1433 C 0.72986 0.79897 0.86136 0.0
C1434 C 0.73208 0.83152 0.86643 0.0
C1435 C 0.74313 0.74718 0.86386 0.0
C1436 C 0.77819 0.74998 0.8637 0.0
C1437 C 0.7137 0.71913 0.85567 0.0
C1438 C 0.67525 0.71292 0.85654 0.0
C1439 C 0.65522 0.71019 0.84394 0.0
C1440 C 0.61922 0.70472 0.84483 0.0
C1441 C 0.60285 0.70185 0.85827 0.0
C1442 C 0.62244 0.7044 0.87084 0.0
C1443 C 0.65845 0.70986 0.87001 0.0
H1444 H 0.57499 0.69765 0.85893 0.0
H1445 H 0.92607 0.75571 0.84964 0.0
H1446 H 0.12828 0.79606 0.15792 0.0
H1447 H 0.07697 0.75134 0.17312 0.0
H1448 H 0.0033 0.71843 0.13642 0.0
H1449 H 0.05448 0.76135 0.12129 0.0
H1450 H 0.02225 0.75652 0.18019 0.0
H1451 H 0.92774 0.63943 0.13852 0.0
H1452 H 0.93524 0.60033 0.12043 0.0
H1453 H 0.03511 0.6184 0.14134 0.0
H1454 H 0.02797 0.65714 0.15971 0.0
H1455 H 0.83338 0.70016 0.17434 0.0
H1456 H 0.88433 0.6943 0.16382 0.0
H1457 H 0.90118 0.65474 0.20446 0.0
H1458 H 0.84984 0.65976 0.21494 0.0
H1459 H 0.9145 0.63649 0.16467 0.0
H1460 H 0.98794 0.7235 0.21146 0.0
H1461 H 0.97933 0.75917 0.23088 0.0
H1462 H 0.92495 0.79578 0.20123 0.0
H1463 H 0.93384 0.76083 0.18163 0.0
C1464 C 0.10126 0.7784 0.15311 0.0
C1465 C 0.0952 0.78197 0.13848 0.0
C1466 C 0.07203 0.75285 0.16176 0.0
C1467 C 0.03622 0.73101 0.15593 0.0
C1468 C 0.03074 0.73379 0.14115 0.0
C1469 C 0.06 0.75868 0.1325 0.0
C1470 C 0.00337 0.71031 0.16541 0.0
C1471 C -0.00066 0.7296 0.17705 0.0
C1472 C 0.97316 0.67504 0.1615 0.0
C1473 C 0.97732 0.65133 0.15052 0.0
C1474 C 0.95114 0.63484 0.13936 0.0
C1475 C 0.95539 0.61279 0.12902 0.0
C1476 C 0.98565 0.60691 0.12972 0.0
C1477 C 0.01172 0.62304 0.14078 0.0
C1478 C 0.00762 0.6451 0.15115 0.0
C1479 C 0.84699 0.68876 0.18081 0.0
C1480 C 0.83805 0.68065 0.19542 0.0
C1481 C 0.87574 0.68505 0.17479 0.0
C1482 C 0.89627 0.67405 0.18341 0.0
C1483 C 0.88523 0.66278 0.19764 0.0
C1484 C 0.85606 0.66585 0.2036 0.0
C1485 C 0.93383 0.68368 0.17869 0.0
C1486 C 0.93836 0.66248 0.16804 0.0
C1487 C 0.9649 0.71664 0.18371 0.0
C1488 C 0.96135 0.73944 0.19517 0.0
C1489 C 0.97443 0.73943 0.2091 0.0
C1490 C 0.96946 0.75947 0.22012 0.0
C1491 C 0.95152 0.77966 0.2173 0.0
C1492 C 0.9388 0.78011 0.20341 0.0
C1493 C 0.94384 0.76025 0.19234 0.0
H1494 H 0.94751 0.79498 0.22586 0.0
H1495 H 0.98889 0.58985 0.1217 0.0
H1496 H 0.21808 0.95673 0.57429 0.0
H1497 H 0.26693 0.01842 0.56639 0.0
H1498 H 0.26018 0.97615 0.52341 0.0
H1499 H 0.21133 0.91459 0.53122 0.0
H1500 H 0.33531 0.03006 0.5331 0.0
H1501 H 0.20774 0.01032 0.53056 0.0
H1502 H 0.14822 0.99588 0.54187 0.0
H1503 H 0.20626 0.08634 0.57148 0.0
H1504 H 0.2662 0.10094 0.56045 0.0
H1505 H 0.34466 0.13474 0.47453 0.0
H1506 H 0.34284 0.09727 0.49482 0.0
H1507 H 0.34023 0.17673 0.5241 0.0
H1508 H 0.33985 0.21337 0.50349 0.0
H1509 H 0.2851 0.11572 0.52927 0.0
H1510 H 0.41034 0.14839 0.52556 0.0
H1511 H 0.47001 0.16347 0.5143 0.0
H1512 H 0.42111 0.05259 0.49751 0.0
H1513 H 0.36097 0.03693 0.50845 0.0
C1514 C 0.22767 0.9605 0.56324 0.0
C1515 C 0.21079 0.93116 0.55329 0.0
C1516 C 0.25555 0.99562 0.55877 0.0
C1517 C 0.26706 0.00167 0.54434 0.0
C1518 C 0.2518 0.97186 0.53462 0.0
C1519 C 0.22366 0.93692 0.53903 0.0
C1520 C 0.29064 0.03967 0.53873 0.0
C1521 C 0.32479 0.04918 0.53229 0.0
C1522 C 0.27741 0.06501 0.5383 0.0
C1523 C 0.2414 0.05639 0.54483 0.0
C1524 C 0.20779 0.02692 0.53956 0.0
C1525 C 0.174 0.01874 0.5459 0.0
C1526 C 0.17346 0.0401 0.55742 0.0
C1527 C 0.20672 0.06976 0.56259 0.0
C1528 C 0.2406 0.07799 0.5563 0.0
C1529 C 0.34531 0.14505 0.4853 0.0
C1530 C 0.34218 0.17676 0.48748 0.0
C1531 C 0.34452 0.12366 0.49699 0.0
C1532 C 0.34154 0.13408 0.51111 0.0
C1533 C 0.34238 0.16797 0.51333 0.0
C1534 C 0.34226 0.18895 0.50158 0.0
C1535 C 0.32957 0.10603 0.52284 0.0
C1536 C 0.29716 0.09799 0.53048 0.0
C1537 C 0.34481 0.0824 0.52447 0.0
C1538 C 0.38103 0.09149 0.51787 0.0
C1539 C 0.41221 0.12724 0.51941 0.0
C1540 C 0.44616 0.1359 0.51308 0.0
C1541 C 0.44935 0.10901 0.5052 0.0
C1542 C 0.41862 0.07338 0.50364 0.0
C1543 C 0.3846 0.06457 0.50995 0.0
H1544 H 0.47565 0.11578 0.5003 0.0
H1545 H 0.14728 0.03374 0.56232 0.0
H1546 H 0.2555 0.19102 0.90561 0.0
H1547 H 0.24846 0.24465 0.89946 0.0
H1548 H 0.28454 0.24253 0.85607 0.0
H1549 H 0.29142 0.18903 0.86213 0.0
H1550 H 0.31339 0.31585 0.86779 0.0
H1551 H 0.19567 0.19577 0.86356 0.0
H1552 H 0.14299 0.13831 0.87338 0.0
H1553 H 0.11922 0.2026 0.90321 0.0
H1554 H 0.17211 0.26042 0.89369 0.0
H1555 H 0.22873 0.32693 0.80762 0.0
H1556 H 0.26071 0.32503 0.82907 0.0
H1557 H 0.18524 0.34252 0.85548 0.0
H1558 H 0.15243 0.34386 0.83377 0.0
H1559 H 0.18125 0.28179 0.86267 0.0
H1560 H 0.28326 0.40125 0.85872 0.0
H1561 H 0.33303 0.45816 0.84743 0.0
H1562 H 0.38618 0.39826 0.83277 0.0
H1563 H 0.3365 0.34083 0.84375 0.0
C1564 C 0.26252 0.20252 0.89484 0.0
C1565 C 0.27369 0.1859 0.88426 0.0
C1566 C 0.25857 0.23307 0.89138 0.0
C1567 C 0.26613 0.24748 0.87735 0.0
C1568 C 0.27892 0.23193 0.867 0.0
C1569 C 0.28241 0.20119 0.87039 0.0
C1570 C 0.25658 0.27557 0.87271 0.0
C1571 C 0.28461 0.30892 0.86675 0.0
C1572 C 0.21918 0.26715 0.8721 0.0
C1573 C 0.18818 0.23232 0.87809 0.0
C1574 C 0.17951 0.1976 0.87234 0.0
C1575 C 0.14954 0.16498 0.87782 0.0
C1576 C 0.12781 0.16681 0.88892 0.0
C1577 C 0.1361 0.20122 0.89463 0.0
C1578 C 0.16609 0.23391 0.88921 0.0
C1579 C 0.21984 0.33199 0.81792 0.0
C1580 C 0.18779 0.33506 0.81904 0.0
C1581 C 0.23841 0.33117 0.83026 0.0
C1582 C 0.22559 0.33383 0.84396 0.0
C1583 C 0.19566 0.34044 0.84503 0.0
C1584 C 0.17682 0.34096 0.83265 0.0
C1585 C 0.23786 0.32106 0.85663 0.0
C1586 C 0.21034 0.29037 0.86424 0.0
C1587 C 0.27575 0.33211 0.85876 0.0
C1588 C 0.30606 0.36663 0.85214 0.0
C1589 C 0.30546 0.40012 0.85304 0.0
C1590 C 0.33369 0.43251 0.84669 0.0
C1591 C 0.36277 0.43184 0.8394 0.0
C1592 C 0.3637 0.39877 0.83846 0.0
C1593 C 0.33554 0.36629 0.84479 0.0
H1594 H 0.38458 0.45694 0.83448 0.0
H1595 H 0.10443 0.14159 0.89305 0.0
H1596 H 0.21268 0.16552 0.21962 0.0
H1597 H 0.21645 0.11724 0.20569 0.0
H1598 H 0.18451 0.15265 0.16729 0.0
H1599 H 0.18035 0.20025 0.18101 0.0
H1600 H 0.15117 0.07784 0.16837 0.0
H1601 H 0.27533 0.18306 0.17449 0.0
H1602 H 0.32883 0.22887 0.18875 0.0
H1603 H 0.33649 0.14061 0.2095 0.0
H1604 H 0.28267 0.09424 0.19549 0.0
H1605 H 0.21396 0.00886 0.11202 0.0
H1606 H 0.206 0.05053 0.12835 0.0
H1607 H 0.24844 0.01465 0.16349 0.0
H1608 H 0.25727 0.9737 0.14718 0.0
H1609 H 0.27415 0.08559 0.16575 0.0
H1610 H 0.15361 0.98017 0.1573 0.0
H1611 H 0.10038 0.93498 0.14279 0.0
H1612 H 0.08438 0.02273 0.12659 0.0
H1613 H 0.13825 0.06864 0.14065 0.0
C1614 C 0.20607 0.16269 0.20825 0.0
C1615 C 0.19669 0.18709 0.20141 0.0
C1616 C 0.20833 0.13518 0.20029 0.0
C1617 C 0.20124 0.13165 0.18538 0.0
C1618 C 0.19017 0.15483 0.17874 0.0
C1619 C 0.18802 0.18225 0.18663 0.0
C1620 C 0.20732 0.10553 0.17638 0.0
C1621 C 0.17809 0.07961 0.16773 0.0
C1622 C 0.24225 0.10736 0.17573 0.0
C1623 C 0.27475 0.1352 0.18407 0.0
C1624 C 0.28826 0.17343 0.18217 0.0
C1625 C 0.31866 0.19949 0.1902 0.0
C1626 C 0.33598 0.18766 0.20006 0.0
C1627 C 0.323 0.14973 0.20188 0.0
C1628 C 0.29257 0.12355 0.1939 0.0
C1629 C 0.22183 0.01004 0.1232 0.0
C1630 C 0.23588 0.98763 0.12831 0.0
C1631 C 0.21709 0.03376 0.13256 0.0
C1632 C 0.22573 0.0351 0.14727 0.0
C1633 C 0.24132 0.01399 0.15223 0.0
C1634 C 0.24644 0.9906 0.14286 0.0
C1635 C 0.21808 0.05803 0.15755 0.0
C1636 C 0.24705 0.08341 0.16645 0.0
C1637 C 0.18283 0.05563 0.1584 0.0
C1638 C 0.15028 0.02795 0.14995 0.0
C1639 C 0.139 0.98991 0.15054 0.0
C1640 C 0.10872 0.96415 0.14238 0.0
C1641 C 0.08908 0.97598 0.13374 0.0
C1642 C 0.0997 0.01361 0.13324 0.0
C1643 C 0.13016 0.03953 0.14129 0.0
H1644 H 0.06559 0.95599 0.12746 0.0
H1645 H 0.35951 0.20787 0.20626 0.0
H1646 H 0.04285 0.25456 0.55053 0.0
H1647 H 0.09215 0.25851 0.53462 0.0
H1648 H 0.01531 0.21934 0.49902 0.0
H1649 H 0.9665 0.21649 0.51463 0.0
H1650 H 0.06368 0.18321 0.50484 0.0
H1651 H 0.0657 0.30005 0.49674 0.0
H1652 H 0.0696 0.35832 0.50497 0.0
H1653 H 0.17606 0.3926 0.5241 0.0
H1654 H 0.17248 0.3342 0.51618 0.0
H1655 H 0.1825 0.21253 0.44582 0.0
H1656 H 0.13395 0.21146 0.46107 0.0
H1657 H 0.21772 0.28937 0.49016 0.0
H1658 H 0.26627 0.29154 0.47476 0.0
H1659 H 0.1658 0.30574 0.4884 0.0
H1660 H 0.16821 0.19359 0.49597 0.0
H1661 H 0.16608 0.13506 0.48946 0.0
H1662 H 0.05425 0.09041 0.47407 0.0
H1663 H 0.05611 0.14909 0.48006 0.0
C1664 C 0.03654 0.24675 0.53932 0.0
C1665 C 0.00093 0.23547 0.5338 0.0
C1666 C 0.06465 0.24904 0.53026 0.0
C1667 C 0.05728 0.23924 0.51566 0.0
C1668 C 0.02151 0.22701 0.51025 0.0
C1669 C 0.99374 0.22559 0.51918 0.0
C1670 C 0.08696 0.24244 0.50588 0.0
C1671 C 0.08585 0.20991 0.50109 0.0
C1672 C 0.11631 0.27735 0.50136 0.0
C1673 C 0.1186 0.31256 0.50603 0.0
C1674 C 0.08975 0.31983 0.50284 0.0
C1675 C 0.09194 0.35292 0.50741 0.0
C1676 C 0.123 0.3791 0.5151 0.0
C1677 C 0.15198 0.37227 0.51817 0.0
C1678 C 0.1499 0.33919 0.51364 0.0
C1679 C 0.19061 0.22984 0.45535 0.0
C1680 C 0.22834 0.25194 0.45909 0.0
C1681 C 0.16278 0.229 0.46414 0.0
C1682 C 0.17204 0.24971 0.47698 0.0
C1683 C 0.20974 0.273 0.48037 0.0
C1684 C 0.23755 0.27418 0.47152 0.0
C1685 C 0.14263 0.24634 0.48713 0.0
C1686 C 0.14376 0.27889 0.49207 0.0
C1687 C 0.11362 0.21134 0.49199 0.0
C1688 C 0.11246 0.17598 0.48831 0.0
C1689 C 0.14329 0.17146 0.49105 0.0
C1690 C 0.14215 0.13824 0.48745 0.0
C1691 C 0.1101 0.10906 0.48132 0.0
C1692 C 0.07912 0.11306 0.47878 0.0
C1693 C 0.08024 0.14634 0.48224 0.0
H1694 H 0.10929 0.08338 0.47855 0.0
H1695 H 0.12465 0.4047 0.51863 0.0
H1696 H 0.97722 0.2071 0.77699 0.0
H1697 H 0.92585 0.16407 0.7926 0.0
H1698 H 0.95528 0.25176 0.82354 0.0
H1699 H 0.00587 0.29508 0.80792 0.0
H1700 H 0.94612 0.18051 0.83476 0.0
H1701 H 0.88441 0.2315 0.80694 0.0
H1702 H 0.86526 0.24863 0.78444 0.0
H1703 H 0.80684 0.13418 0.77136 0.0
H1704 H 0.82623 0.11642 0.79369 0.0
H1705 H 0.79514 0.08049 0.88218 0.0
H1706 H 0.84046 0.12981 0.86653 0.0
H1707 H 0.79464 0.0575 0.82971 0.0
H1708 H 0.74817 0.00903 0.84514 0.0
H1709 H 0.81275 0.12375 0.82177 0.0
H1710 H 0.87802 0.07255 0.84772 0.0
H1711 H 0.89553 0.05302 0.87008 0.0
H1712 H 0.94603 0.16464 0.88625 0.0
H1713 H 0.92905 0.18484 0.86393 0.0
C1714 C 0.97245 0.21732 0.78703 0.0
C1715 C 0.99563 0.25455 0.79118 0.0
C1716 C 0.94318 0.19271 0.79594 0.0
C1717 C 0.93698 0.20475 0.80925 0.0
C1718 C 0.95975 0.24192 0.81334 0.0
C1719 C 0.9885 0.26668 0.80433 0.0
C1720 C 0.90704 0.17842 0.81902 0.0
C1721 C 0.91694 0.1684 0.83201 0.0
C1722 C 0.86907 0.16214 0.8153 0.0
C1723 C 0.85711 0.17268 0.80192 0.0
C1724 C 0.86778 0.21002 0.7992 0.0
C1725 C 0.85683 0.21984 0.78649 0.0
C1726 C 0.83492 0.19252 0.77646 0.0
C1727 C 0.82385 0.15531 0.77913 0.0
C1728 C 0.8348 0.14535 0.79182 0.0
C1729 C 0.79452 0.0753 0.87073 0.0
C1730 C 0.76818 0.04078 0.86493 0.0
C1731 C 0.82062 0.10342 0.86179 0.0
C1732 C 0.82168 0.09718 0.84694 0.0
C1733 C 0.79458 0.0631 0.8411 0.0
C1734 C 0.76801 0.03531 0.84998 0.0
C1735 C 0.85167 0.12542 0.83754 0.0
C1736 C 0.84189 0.13581 0.82457 0.0
C1737 C 0.88982 0.1417 0.84119 0.0
C1738 C 0.90212 0.13015 0.85421 0.0
C1739 C 0.89303 0.09293 0.85603 0.0
C1740 C 0.90284 0.08175 0.86869 0.0
C1741 C 0.92181 0.10756 0.8796 0.0
C1742 C 0.93139 0.14469 0.87779 0.0
C1743 C 0.92187 0.15607 0.8651 0.0
H1744 H 0.9291 0.09881 0.88945 0.0
H1745 H 0.82645 0.20017 0.76662 0.0
H1746 H 0.71346 0.82639 0.22242 0.0
H1747 H 0.71912 0.86566 0.20191 0.0
H1748 H 0.82539 0.87727 0.19123 0.0
H1749 H 0.81968 0.83718 0.21166 0.0
H1750 H 0.81466 0.94693 0.18924 0.0
H1751 H 0.76769 0.82018 0.17309 0.0
H1752 H 0.72575 0.75257 0.17547 0.0
H1753 H 0.63099 0.76714 0.17074 0.0
H1754 H 0.67241 0.83499 0.16869 0.0
H1755 H 0.81945 0.01865 0.11993 0.0
H1756 H 0.82481 0.98238 0.13944 0.0
H1757 H 0.7056 0.92395 0.14491 0.0
H1758 H 0.70001 0.95882 0.12477 0.0
H1759 H 0.72755 0.8777 0.1494 0.0
H1760 H 0.77058 0.00212 0.16627 0.0
H1761 H 0.80954 0.07042 0.16529 0.0
H1762 H 0.90785 0.06195 0.17007 0.0
H1763 H 0.86952 0.99358 0.17087 0.0
C1764 C 0.73843 0.83783 0.21592 0.0
C1765 C 0.76602 0.82843 0.21863 0.0
C1766 C 0.74156 0.86026 0.20418 0.0
C1767 C 0.77257 0.87418 0.19505 0.0
C1768 C 0.80129 0.86681 0.1982 0.0
C1769 C 0.7979 0.84381 0.20983 0.0
C1770 C 0.77292 0.89329 0.18152 0.0
C1771 C 0.79613 0.93187 0.1804 0.0
C1772 C 0.74805 0.87359 0.17019 0.0
C1773 C 0.72314 0.8327 0.17087 0.0
C1774 C 0.73791 0.809 0.17267 0.0
C1775 C 0.71423 0.77063 0.17395 0.0
C1776 C 0.67572 0.75557 0.17329 0.0
C1777 C 0.66083 0.77885 0.17127 0.0
C1778 C 0.68439 0.81727 0.17004 0.0
C1779 C 0.79434 -0.00231 0.12516 0.0
C1780 C 0.7593 0.99167 0.12086 0.0
C1781 C 0.79745 0.9771 0.13641 0.0
C1782 C 0.76574 0.95097 0.14398 0.0
C1783 C 0.73058 0.944 0.13933 0.0
C1784 C 0.72737 0.96396 0.12781 0.0
C1785 C 0.76914 0.93182 0.15701 0.0
C1786 C 0.74646 0.89303 0.1581 0.0
C1787 C 0.79418 0.95152 0.16841 0.0
C1788 C 0.81719 0.9927 0.16846 0.0
C1789 C 0.80052 0.01483 0.16706 0.0
C1790 C 0.82248 0.05355 0.16654 0.0
C1791 C 0.86114 0.07051 0.16758 0.0
C1792 C 0.8779 0.04878 0.16924 0.0
C1793 C 0.85607 0.01004 0.16974 0.0
H1794 H 0.8781 0.10049 0.16714 0.0
H1795 H 0.65743 0.72586 0.17432 0.0
H1796 H 0.80968 0.79639 0.4637 0.0
H1797 H 0.85866 0.80087 0.47957 0.0
H1798 H 0.81483 0.68267 0.4755 0.0
H1799 H 0.76693 0.67847 0.45905 0.0
H1800 H 0.85999 0.77668 0.50436 0.0
H1801 H 0.88064 0.65963 0.47983 0.0
H1802 H 0.87689 0.63083 0.4562 0.0
H1803 H 0.89703 0.73095 0.4349 0.0
H1804 H 0.90136 0.76048 0.45841 0.0
H1805 H 0.97157 0.7437 0.55332 0.0
H1806 H 0.92136 0.73579 0.53721 0.0
H1807 H -0.00257 0.77177 0.50125 0.0
H1808 H 0.0468 0.77768 0.51709 0.0
H1809 H 0.9366 0.7195 0.49233 0.0
H1810 H 0.96901 0.83033 0.51895 0.0
H1811 H 0.98142 0.86683 0.54126 0.0
H1812 H 0.8689 0.795 0.55514 0.0
H1813 H 0.85591 0.75795 0.53292 0.0
C1814 C 0.81072 0.77141 0.46608 0.0
C1815 C 0.78464 0.73711 0.46001 0.0
C1816 C 0.83864 0.77396 0.47523 0.0
C1817 C 0.84088 0.74221 0.47869 0.0
C1818 C 0.81444 0.7078 0.47277 0.0
C1819 C 0.78695 0.70537 0.46338 0.0
C1820 C 0.87068 0.74516 0.48854 0.0
C1821 C 0.87671 0.76416 0.50168 0.0
C1822 C 0.89318 0.72951 0.48506 0.0
C1823 C 0.89091 0.71208 0.47088 0.0
C1824 C 0.88438 0.67552 0.47011 0.0
C1825 C 0.88213 0.65907 0.45673 0.0
C1826 C 0.88659 0.679 0.44406 0.0
C1827 C 0.89344 0.71549 0.44473 0.0
C1828 C 0.89574 0.73207 0.45807 0.0
C1829 C 0.97744 0.74976 0.54196 0.0
C1830 C 0.01313 0.76131 0.53649 0.0
C1831 C 0.94879 0.74545 0.53276 0.0
C1832 C 0.95557 0.7537 0.51798 0.0
C1833 C 0.99124 0.76503 0.51255 0.0
C1834 C 0.01956 0.76853 0.52166 0.0
C1835 C 0.92593 0.75103 0.50811 0.0
C1836 C 0.91983 0.73196 0.495 0.0
C1837 C 0.90449 0.76798 0.51133 0.0
C1838 C 0.91161 0.79119 0.52436 0.0
C1839 C 0.94693 0.82234 0.52677 0.0
C1840 C 0.95407 0.84311 0.5394 0.0
C1841 C 0.92603 0.83311 0.54965 0.0
C1842 C 0.89063 0.80266 0.5472 0.0
C1843 C 0.88332 0.78182 0.53458 0.0
H1844 H 0.93177 0.84891 0.5595 0.0
H1845 H 0.88481 0.66621 0.43372 0.0
H1846 H 0.23727 0.01037 0.84642 0.0
H1847 H 0.18938 0.96011 0.83192 0.0
H1848 H 0.15396 0.88796 0.86897 0.0
H1849 H 0.20138 0.93875 0.88376 0.0
H1850 H 0.17089 0.86066 0.84084 0.0
H1851 H 0.09856 0.91103 0.86098 0.0
H1852 H 0.08556 0.9612 0.86699 0.0
H1853 H 0.08752 0.9868 0.82209 0.0
H1854 H 0.10113 0.93718 0.81582 0.0
H1855 H 0.01308 0.70907 0.80982 0.0
H1856 H 0.05712 0.75867 0.82535 0.0
H1857 H 0.06504 0.84026 0.79464 0.0
H1858 H 0.01935 0.79036 0.77922 0.0
H1859 H 0.06203 0.86322 0.82019 0.0
H1860 H 0.13576 0.8164 0.79946 0.0
H1861 H 0.152 0.76907 0.79243 0.0
H1862 H 0.15168 0.74012 0.83683 0.0
H1863 H 0.13495 0.78696 0.84413 0.0
C1864 C 0.21925 0.98386 0.85153 0.0
C1865 C 0.2232 0.97846 0.86624 0.0
C1866 C 0.19181 0.95523 0.84322 0.0
C1867 C 0.16814 0.92039 0.84937 0.0
C1868 C 0.17198 0.91473 0.86404 0.0
C1869 C 0.19897 0.94372 0.87247 0.0
C1870 C 0.1403 0.88976 0.84025 0.0
C1871 C 0.14669 0.86077 0.83651 0.0
C1872 C 0.10961 0.89083 0.8342 0.0
C1873 C 0.1013 0.92064 0.83794 0.0
C1874 C 0.09661 0.9276 0.85239 0.0
C1875 C 0.08901 0.95588 0.85585 0.0
C1876 C 0.08577 0.97723 0.84493 0.0
C1877 C 0.09004 0.97027 0.83054 0.0
C1878 C 0.09768 0.94205 0.82703 0.0
C1879 C 0.02439 0.73751 0.80623 0.0
C1880 C 0.01283 0.74563 0.79316 0.0
C1881 C 0.04979 0.76598 0.81516 0.0
C1882 C 0.06514 0.8034 0.81112 0.0
C1883 C 0.05377 0.81167 0.79803 0.0
C1884 C 0.0278 0.7831 0.78916 0.0
C1885 C 0.09239 0.83367 0.82072 0.0
C1886 C 0.08607 0.86281 0.82452 0.0
C1887 C 0.12355 0.83306 0.82667 0.0
C1888 C 0.13376 0.80496 0.82233 0.0
C1889 C 0.1389 0.79976 0.80772 0.0
C1890 C 0.14823 0.77305 0.80369 0.0
C1891 C 0.15278 0.75154 0.81417 0.0
C1892 C 0.1481 0.75677 0.82872 0.0
C1893 C 0.13874 0.78342 0.83281 0.0
H1894 H 0.16 0.73086 0.81103 0.0
H1895 H 0.07991 -0.00089 0.84763 0.0
loop_
_geom_bond_atom_site_label_1
_geom_bond_atom_site_label_2
_geom_bond_distance
_geom_bond_site_symmetry_2
_ccdc_geom_bond_type
C0 C1 1.351 . S
C0 N3 1.368 . S
C0 H5 0.931 . S
C1 C0 1.351 . S
C1 N2 1.373 . S
C1 H29 0.930 . S
N2 C1 1.373 . S
N2 C4 1.340 . S
N3 C0 1.368 . S
N3 C4 1.321 . S
N3 Co6 2.135 . S
C4 N2 1.340 . S
C4 N3 1.321 . S
C4 H28 0.930 . S
H5 C0 0.931 . S
Co6 N3 2.135 . S
Co6 N9 2.121 . S
Co6 O14 2.055 . S
Co6 O17 2.039 . S
Co6 N20 2.140 . S
C7 O8 1.227 . S
C7 O17 1.265 . S
O8 C7 1.227 . S
N9 Co6 2.121 . S
N9 C11 1.375 . S
N9 C12 1.313 . S
C10 C11 1.338 . S
C10 N13 1.377 . S
C10 H30 0.930 . S
C11 N9 1.375 . S
C11 C10 1.338 . S
C11 H15 0.931 . S
C12 N9 1.313 . S
C12 N13 1.344 . S
C12 H16 0.930 . S
N13 C10 1.377 . S
N13 C12 1.344 . S
O14 Co6 2.055 . S
O14 C18 1.253 . S
H15 C11 0.931 . S
H16 C12 0.930 . S
O17 Co6 2.039 . S
O17 C7 1.265 . S
C18 O14 1.253 . S
C18 O19 1.227 . S
O19 C18 1.227 . S
N20 Co6 2.140 . S
N20 C23 1.346 . S
N20 C24 1.345 . S
C21 C22 1.387 . S
C21 C25 1.391 . S
C22 C21 1.387 . S
C22 C23 1.369 . S
C22 H31 0.929 . S
C23 N20 1.346 . S
C23 C22 1.369 . S
C23 H26 0.928 . S
C24 N20 1.345 . S
C24 C25 1.371 . S
C24 H27 0.931 . S
C25 C21 1.391 . S
C25 C24 1.371 . S
C25 H32 0.930 . S
H26 C23 0.928 . S
H27 C24 0.931 . S
H28 C4 0.930 . S
H29 C1 0.930 . S
H30 C10 0.930 . S
H31 C22 0.929 . S
H32 C25 0.930 . S
C33 C34 1.351 . S
C33 N36 1.368 . S
C33 H38 0.931 . S
C34 C33 1.351 . S
C34 N35 1.373 . S
C34 H62 0.930 . S
N35 C34 1.373 . S
N35 C37 1.340 . S
N36 C33 1.368 . S
N36 C37 1.321 . S
N36 Co39 2.135 . S
C37 N35 1.340 . S
C37 N36 1.321 . S
C37 H61 0.930 . S
H38 C33 0.931 . S
Co39 N36 2.135 . S
Co39 N42 2.121 . S
Co39 O47 2.055 . S
Co39 O50 2.039 . S
Co39 N53 2.140 . S
C40 O41 1.227 . S
C40 O50 1.265 . S
O41 C40 1.227 . S
N42 Co39 2.121 . S
N42 C44 1.375 . S
N42 C45 1.313 . S
C43 C44 1.338 . S
C43 N46 1.377 . S
C43 H63 0.930 . S
C44 N42 1.375 . S
C44 C43 1.338 . S
C44 H48 0.931 . S
C45 N42 1.313 . S
C45 N46 1.344 . S
C45 H49 0.930 . S
N46 C43 1.377 . S
N46 C45 1.344 . S
O47 Co39 2.055 . S
O47 C51 1.253 . S
H48 C44 0.931 . S
H49 C45 0.930 . S
O50 Co39 2.039 . S
O50 C40 1.265 . S
C51 O47 1.253 . S
C51 O52 1.227 . S
O52 C51 1.227 . S
N53 Co39 2.140 . S
N53 C56 1.346 . S
N53 C57 1.345 . S
C54 C55 1.387 . S
C54 C58 1.391 . S
C55 C54 1.387 . S
C55 C56 1.369 . S
C55 H64 0.929 . S
C56 N53 1.346 . S
C56 C55 1.369 . S
C56 H59 0.928 . S
C57 N53 1.345 . S
C57 C58 1.371 . S
C57 H60 0.931 . S
C58 C54 1.391 . S
C58 C57 1.371 . S
C58 H65 0.930 . S
H59 C56 0.928 . S
H60 C57 0.931 . S
H61 C37 0.930 . S
H62 C34 0.930 . S
H63 C43 0.930 . S
H64 C55 0.929 . S
H65 C58 0.930 . S
C66 C67 1.351 . S
C66 N69 1.368 . S
C66 H71 0.931 . S
C67 C66 1.351 . S
C67 N68 1.373 . S
C67 H95 0.930 . S
N68 C67 1.373 . S
N68 C70 1.340 . S
N69 C66 1.368 . S
N69 C70 1.321 . S
N69 Co72 2.135 . S
C70 N68 1.340 . S
C70 N69 1.321 . S
C70 H94 0.930 . S
H71 C66 0.931 . S
Co72 N69 2.135 . S
Co72 N75 2.121 . S
Co72 O80 2.055 . S
Co72 O83 2.039 . S
Co72 N86 2.140 . S
C73 O74 1.227 . S
C73 O83 1.265 . S
O74 C73 1.227 . S
N75 Co72 2.121 . S
N75 C77 1.375 . S
N75 C78 1.313 . S
C76 C77 1.338 . S
C76 N79 1.377 . S
C76 H96 0.930 . S
C77 N75 1.375 . S
C77 C76 1.338 . S
C77 H81 0.931 . S
C78 N75 1.313 . S
C78 N79 1.344 . S
C78 H82 0.930 . S
N79 C76 1.377 . S
N79 C78 1.344 . S
O80 Co72 2.055 . S
O80 C84 1.253 . S
H81 C77 0.931 . S
H82 C78 0.930 . S
O83 Co72 2.039 . S
O83 C73 1.265 . S
C84 O80 1.253 . S
C84 O85 1.227 . S
O85 C84 1.227 . S
N86 Co72 2.140 . S
N86 C89 1.346 . S
N86 C90 1.345 . S
C87 C88 1.387 . S
C87 C91 1.391 . S
C88 C87 1.387 . S
C88 C89 1.369 . S
C88 H97 0.929 . S
C89 N86 1.346 . S
C89 C88 1.369 . S
C89 H92 0.928 . S
C90 N86 1.345 . S
C90 C91 1.371 . S
C90 H93 0.931 . S
C91 C87 1.391 . S
C91 C90 1.371 . S
C91 H98 0.930 . S
H92 C89 0.928 . S
H93 C90 0.931 . S
H94 C70 0.930 . S
H95 C67 0.930 . S
H96 C76 0.930 . S
H97 C88 0.929 . S
H98 C91 0.930 . S
C99 C100 1.351 . S
C99 N102 1.368 . S
C99 H104 0.931 . S
C100 C99 1.351 . S
C100 N101 1.373 . S
C100 H128 0.930 . S
N101 C100 1.373 . S
N101 C103 1.340 . S
N102 C99 1.368 . S
N102 C103 1.321 . S
N102 Co105 2.135 . S
C103 N101 1.340 . S
C103 N102 1.321 . S
C103 H127 0.930 . S
H104 C99 0.931 . S
Co105 N102 2.135 . S
Co105 N108 2.121 . S
Co105 O113 2.055 . S
Co105 O116 2.039 . S
Co105 N119 2.140 . S
C106 O107 1.227 . S
C106 O116 1.265 . S
O107 C106 1.227 . S
N108 Co105 2.121 . S
N108 C110 1.375 . S
N108 C111 1.313 . S
C109 C110 1.338 . S
C109 N112 1.377 . S
C109 H129 0.930 . S
C110 N108 1.375 . S
C110 C109 1.338 . S
C110 H114 0.931 . S
C111 N108 1.313 . S
C111 N112 1.344 . S
C111 H115 0.930 . S
N112 C109 1.377 . S
N112 C111 1.344 . S
O113 Co105 2.055 . S
O113 C117 1.253 . S
H114 C110 0.931 . S
H115 C111 0.930 . S
O116 Co105 2.039 . S
O116 C106 1.265 . S
C117 O113 1.253 . S
C117 O118 1.227 . S
O118 C117 1.227 . S
N119 Co105 2.140 . S
N119 C122 1.346 . S
N119 C123 1.345 . S
C120 C121 1.387 . S
C120 C124 1.391 . S
C121 C120 1.387 . S
C121 C122 1.369 . S
C121 H130 0.929 . S
C122 N119 1.346 . S
C122 C121 1.369 . S
C122 H125 0.928 . S
C123 N119 1.345 . S
C123 C124 1.371 . S
C123 H126 0.931 . S
C124 C120 1.391 . S
C124 C123 1.371 . S
C124 H131 0.930 . S
H125 C122 0.928 . S
H126 C123 0.931 . S
H127 C103 0.930 . S
H128 C100 0.930 . S
H129 C109 0.930 . S
H130 C121 0.929 . S
H131 C124 0.930 . S
C132 C133 1.351 . S
C132 N135 1.368 . S
C132 H137 0.931 . S
C133 C132 1.351 . S
C133 N134 1.373 . S
C133 H161 0.930 . S
N134 C133 1.373 . S
N134 C136 1.340 . S
N135 C132 1.368 . S
N135 C136 1.321 . S
N135 Co138 2.135 . S
C136 N134 1.340 . S
C136 N135 1.321 . S
C136 H160 0.930 . S
H137 C132 0.931 . S
Co138 N135 2.135 . S
Co138 N141 2.121 . S
Co138 O146 2.055 . S
Co138 O149 2.039 . S
Co138 N152 2.140 . S
C139 O140 1.227 . S
C139 O149 1.265 . S
O140 C139 1.227 . S
N141 Co138 2.121 . S
N141 C143 1.375 . S
N141 C144 1.313 . S
C142 C143 1.338 . S
C142 N145 1.377 . S
C142 H162 0.930 . S
C143 N141 1.375 . S
C143 C142 1.338 . S
C143 H147 0.931 . S
C144 N141 1.313 . S
C144 N145 1.344 . S
C144 H148 0.930 . S
N145 C142 1.377 . S
N145 C144 1.344 . S
O146 Co138 2.055 . S
O146 C150 1.253 . S
H147 C143 0.931 . S
H148 C144 0.930 . S
O149 Co138 2.039 . S
O149 C139 1.265 . S
C150 O146 1.253 . S
C150 O151 1.227 . S
O151 C150 1.227 . S
N152 Co138 2.140 . S
N152 C155 1.346 . S
N152 C156 1.345 . S
C153 C154 1.387 . S
C153 C157 1.391 . S
C154 C153 1.387 . S
C154 C155 1.369 . S
C154 H163 0.929 . S
C155 N152 1.346 . S
C155 C154 1.369 . S
C155 H158 0.928 . S
C156 N152 1.345 . S
C156 C157 1.371 . S
C156 H159 0.931 . S
C157 C153 1.391 . S
C157 C156 1.371 . S
C157 H164 0.930 . S
H158 C155 0.928 . S
H159 C156 0.931 . S
H160 C136 0.930 . S
H161 C133 0.930 . S
H162 C142 0.930 . S
H163 C154 0.929 . S
H164 C157 0.930 . S
C165 C166 1.351 . S
C165 N168 1.368 . S
C165 H170 0.931 . S
C166 C165 1.351 . S
C166 N167 1.373 . S
C166 H194 0.930 . S
N167 C166 1.373 . S
N167 C169 1.340 . S
N168 C165 1.368 . S
N168 C169 1.321 . S
N168 Co171 2.135 . S
C169 N167 1.340 . S
C169 N168 1.321 . S
C169 H193 0.930 . S
H170 C165 0.931 . S
Co171 N168 2.135 . S
Co171 N174 2.121 . S
Co171 O179 2.055 . S
Co171 O182 2.039 . S
Co171 N185 2.140 . S
C172 O173 1.227 . S
C172 O182 1.265 . S
O173 C172 1.227 . S
N174 Co171 2.121 . S
N174 C176 1.375 . S
N174 C177 1.313 . S
C175 C176 1.338 . S
C175 N178 1.377 . S
C175 H195 0.930 . S
C176 N174 1.375 . S
C176 C175 1.338 . S
C176 H180 0.931 . S
C177 N174 1.313 . S
C177 N178 1.344 . S
C177 H181 0.930 . S
N178 C175 1.377 . S
N178 C177 1.344 . S
O179 Co171 2.055 . S
O179 C183 1.253 . S
H180 C176 0.931 . S
H181 C177 0.930 . S
O182 Co171 2.039 . S
O182 C172 1.265 . S
C183 O179 1.253 . S
C183 O184 1.227 . S
O184 C183 1.227 . S
N185 Co171 2.140 . S
N185 C188 1.346 . S
N185 C189 1.345 . S
C186 C187 1.387 . S
C186 C190 1.391 . S
C187 C186 1.387 . S
C187 C188 1.369 . S
C187 H196 0.929 . S
C188 N185 1.346 . S
C188 C187 1.369 . S
C188 H191 0.928 . S
C189 N185 1.345 . S
C189 C190 1.371 . S
C189 H192 0.931 . S
C190 C186 1.391 . S
C190 C189 1.371 . S
C190 H197 0.930 . S
H191 C188 0.928 . S
H192 C189 0.931 . S
H193 C169 0.930 . S
H194 C166 0.930 . S
H195 C175 0.930 . S
H196 C187 0.929 . S
H197 C190 0.930 . S
C198 C199 1.351 . S
C198 N201 1.368 . S
C198 H203 0.931 . S
C199 C198 1.351 . S
C199 N200 1.373 . S
C199 H227 0.930 . S
N200 C199 1.373 . S
N200 C202 1.340 . S
N201 C198 1.368 . S
N201 C202 1.321 . S
N201 Co204 2.135 . S
C202 N200 1.340 . S
C202 N201 1.321 . S
C202 H226 0.930 . S
H203 C198 0.931 . S
Co204 N201 2.135 . S
Co204 N207 2.121 . S
Co204 O212 2.055 . S
Co204 O215 2.039 . S
Co204 N218 2.140 . S
C205 O206 1.227 . S
C205 O215 1.265 . S
O206 C205 1.227 . S
N207 Co204 2.121 . S
N207 C209 1.375 . S
N207 C210 1.313 . S
C208 C209 1.338 . S
C208 N211 1.377 . S
C208 H228 0.930 . S
C209 N207 1.375 . S
C209 C208 1.338 . S
C209 H213 0.931 . S
C210 N207 1.313 . S
C210 N211 1.344 . S
C210 H214 0.930 . S
N211 C208 1.377 . S
N211 C210 1.344 . S
O212 Co204 2.055 . S
O212 C216 1.253 . S
H213 C209 0.931 . S
H214 C210 0.930 . S
O215 Co204 2.039 . S
O215 C205 1.265 . S
C216 O212 1.253 . S
C216 O217 1.227 . S
O217 C216 1.227 . S
N218 Co204 2.140 . S
N218 C221 1.346 . S
N218 C222 1.345 . S
C219 C220 1.387 . S
C219 C223 1.391 . S
C220 C219 1.387 . S
C220 C221 1.369 . S
C220 H229 0.929 . S
C221 N218 1.346 . S
C221 C220 1.369 . S
C221 H224 0.928 . S
C222 N218 1.345 . S
C222 C223 1.371 . S
C222 H225 0.931 . S
C223 C219 1.391 . S
C223 C222 1.371 . S
C223 H230 0.930 . S
H224 C221 0.928 . S
H225 C222 0.931 . S
H226 C202 0.930 . S
H227 C199 0.930 . S
H228 C208 0.930 . S
H229 C220 0.929 . S
H230 C223 0.930 . S
C231 C232 1.351 . S
C231 N234 1.368 . S
C231 H236 0.931 . S
C232 C231 1.351 . S
C232 N233 1.373 . S
C232 H260 0.930 . S
N233 C232 1.373 . S
N233 C235 1.340 . S
N234 C231 1.368 . S
N234 C235 1.321 . S
N234 Co237 2.135 . S
C235 N233 1.340 . S
C235 N234 1.321 . S
C235 H259 0.930 . S
H236 C231 0.931 . S
Co237 N234 2.135 . S
Co237 N240 2.121 . S
Co237 O245 2.055 . S
Co237 O248 2.039 . S
Co237 N251 2.140 . S
C238 O239 1.227 . S
C238 O248 1.265 . S
O239 C238 1.227 . S
N240 Co237 2.121 . S
N240 C242 1.375 . S
N240 C243 1.313 . S
C241 C242 1.338 . S
C241 N244 1.377 . S
C241 H261 0.930 . S
C242 N240 1.375 . S
C242 C241 1.338 . S
C242 H246 0.931 . S
C243 N240 1.313 . S
C243 N244 1.344 . S
C243 H247 0.930 . S
N244 C241 1.377 . S
N244 C243 1.344 . S
O245 Co237 2.055 . S
O245 C249 1.253 . S
H246 C242 0.931 . S
H247 C243 0.930 . S
O248 Co237 2.039 . S
O248 C238 1.265 . S
C249 O245 1.253 . S
C249 O250 1.227 . S
O250 C249 1.227 . S
N251 Co237 2.140 . S
N251 C254 1.346 . S
N251 C255 1.345 . S
C252 C253 1.387 . S
C252 C256 1.391 . S
C253 C252 1.387 . S
C253 C254 1.369 . S
C253 H262 0.929 . S
C254 N251 1.346 . S
C254 C253 1.369 . S
C254 H257 0.928 . S
C255 N251 1.345 . S
C255 C256 1.371 . S
C255 H258 0.931 . S
C256 C252 1.391 . S
C256 C255 1.371 . S
C256 H263 0.930 . S
H257 C254 0.928 . S
H258 C255 0.931 . S
H259 C235 0.930 . S
H260 C232 0.930 . S
H261 C241 0.930 . S
H262 C253 0.929 . S
H263 C256 0.930 . S
C264 C265 1.351 . S
C264 N267 1.368 . S
C264 H269 0.931 . S
C265 C264 1.351 . S
C265 N266 1.373 . S
C265 H293 0.930 . S
N266 C265 1.373 . S
N266 C268 1.340 . S
N267 C264 1.368 . S
N267 C268 1.321 . S
N267 Co270 2.135 . S
C268 N266 1.340 . S
C268 N267 1.321 . S
C268 H292 0.930 . S
H269 C264 0.931 . S
Co270 N267 2.135 . S
Co270 N273 2.121 . S
Co270 O278 2.055 . S
Co270 O281 2.039 . S
Co270 N284 2.140 . S
C271 O272 1.227 . S
C271 O281 1.265 . S
O272 C271 1.227 . S
N273 Co270 2.121 . S
N273 C275 1.375 . S
N273 C276 1.313 . S
C274 C275 1.338 . S
C274 N277 1.377 . S
C274 H294 0.930 . S
C275 N273 1.375 . S
C275 C274 1.338 . S
C275 H279 0.931 . S
C276 N273 1.313 . S
C276 N277 1.344 . S
C276 H280 0.930 . S
N277 C274 1.377 . S
N277 C276 1.344 . S
O278 Co270 2.055 . S
O278 C282 1.253 . S
H279 C275 0.931 . S
H280 C276 0.930 . S
O281 Co270 2.039 . S
O281 C271 1.265 . S
C282 O278 1.253 . S
C282 O283 1.227 . S
O283 C282 1.227 . S
N284 Co270 2.140 . S
N284 C287 1.346 . S
N284 C288 1.345 . S
C285 C286 1.387 . S
C285 C289 1.391 . S
C286 C285 1.387 . S
C286 C287 1.369 . S
C286 H295 0.929 . S
C287 N284 1.346 . S
C287 C286 1.369 . S
C287 H290 0.928 . S
C288 N284 1.345 . S
C288 C289 1.371 . S
C288 H291 0.931 . S
C289 C285 1.391 . S
C289 C288 1.371 . S
C289 H296 0.930 . S
H290 C287 0.928 . S
H291 C288 0.931 . S
H292 C268 0.930 . S
H293 C265 0.930 . S
H294 C274 0.930 . S
H295 C286 0.929 . S
H296 C289 0.930 . S
C297 C298 1.351 . S
C297 N300 1.368 . S
C297 H302 0.931 . S
C298 C297 1.351 . S
C298 N299 1.373 . S
C298 H326 0.930 . S
N299 C298 1.373 . S
N299 C301 1.340 . S
N300 C297 1.368 . S
N300 C301 1.321 . S
N300 Co303 2.135 . S
C301 N299 1.340 . S
C301 N300 1.321 . S
C301 H325 0.930 . S
H302 C297 0.931 . S
Co303 N300 2.135 . S
Co303 N306 2.121 . S
Co303 O311 2.055 . S
Co303 O314 2.039 . S
Co303 N317 2.140 . S
C304 O305 1.227 . S
C304 O314 1.265 . S
O305 C304 1.227 . S
N306 Co303 2.121 . S
N306 C308 1.375 . S
N306 C309 1.313 . S
C307 C308 1.338 . S
C307 N310 1.377 . S
C307 H327 0.930 . S
C308 N306 1.375 . S
C308 C307 1.338 . S
C308 H312 0.931 . S
C309 N306 1.313 . S
C309 N310 1.344 . S
C309 H313 0.930 . S
N310 C307 1.377 . S
N310 C309 1.344 . S
O311 Co303 2.055 . S
O311 C315 1.253 . S
H312 C308 0.931 . S
H313 C309 0.930 . S
O314 Co303 2.039 . S
O314 C304 1.265 . S
C315 O311 1.253 . S
C315 O316 1.227 . S
O316 C315 1.227 . S
N317 Co303 2.140 . S
N317 C320 1.346 . S
N317 C321 1.345 . S
C318 C319 1.387 . S
C318 C322 1.391 . S
C319 C318 1.387 . S
C319 C320 1.369 . S
C319 H328 0.929 . S
C320 N317 1.346 . S
C320 C319 1.369 . S
C320 H323 0.928 . S
C321 N317 1.345 . S
C321 C322 1.371 . S
C321 H324 0.931 . S
C322 C318 1.391 . S
C322 C321 1.371 . S
C322 H329 0.930 . S
H323 C320 0.928 . S
H324 C321 0.931 . S
H325 C301 0.930 . S
H326 C298 0.930 . S
H327 C307 0.930 . S
H328 C319 0.929 . S
H329 C322 0.930 . S
C330 C331 1.351 . S
C330 N333 1.368 . S
C330 H335 0.931 . S
C331 C330 1.351 . S
C331 N332 1.373 . S
C331 H359 0.930 . S
N332 C331 1.373 . S
N332 C334 1.340 . S
N333 C330 1.368 . S
N333 C334 1.321 . S
N333 Co336 2.135 . S
C334 N332 1.340 . S
C334 N333 1.321 . S
C334 H358 0.930 . S
H335 C330 0.931 . S
Co336 N333 2.135 . S
Co336 N339 2.121 . S
Co336 O344 2.055 . S
Co336 O347 2.039 . S
Co336 N350 2.140 . S
C337 O338 1.227 . S
C337 O347 1.265 . S
O338 C337 1.227 . S
N339 Co336 2.121 . S
N339 C341 1.375 . S
N339 C342 1.313 . S
C340 C341 1.338 . S
C340 N343 1.377 . S
C340 H360 0.930 . S
C341 N339 1.375 . S
C341 C340 1.338 . S
C341 H345 0.931 . S
C342 N339 1.313 . S
C342 N343 1.344 . S
C342 H346 0.930 . S
N343 C340 1.377 . S
N343 C342 1.344 . S
O344 Co336 2.055 . S
O344 C348 1.253 . S
H345 C341 0.931 . S
H346 C342 0.930 . S
O347 Co336 2.039 . S
O347 C337 1.265 . S
C348 O344 1.253 . S
C348 O349 1.227 . S
O349 C348 1.227 . S
N350 Co336 2.140 . S
N350 C353 1.346 . S
N350 C354 1.345 . S
C351 C352 1.387 . S
C351 C355 1.391 . S
C352 C351 1.387 . S
C352 C353 1.369 . S
C352 H361 0.929 . S
C353 N350 1.346 . S
C353 C352 1.369 . S
C353 H356 0.928 . S
C354 N350 1.345 . S
C354 C355 1.371 . S
C354 H357 0.931 . S
C355 C351 1.391 . S
C355 C354 1.371 . S
C355 H362 0.930 . S
H356 C353 0.928 . S
H357 C354 0.931 . S
H358 C334 0.930 . S
H359 C331 0.930 . S
H360 C340 0.930 . S
H361 C352 0.929 . S
H362 C355 0.930 . S
C363 C364 1.351 . S
C363 N366 1.368 . S
C363 H368 0.931 . S
C364 C363 1.351 . S
C364 N365 1.373 . S
C364 H392 0.930 . S
N365 C364 1.373 . S
N365 C367 1.340 . S
N366 C363 1.368 . S
N366 C367 1.321 . S
N366 Co369 2.135 . S
C367 N365 1.340 . S
C367 N366 1.321 . S
C367 H391 0.930 . S
H368 C363 0.931 . S
Co369 N366 2.135 . S
Co369 N372 2.121 . S
Co369 O377 2.055 . S
Co369 O380 2.039 . S
Co369 N383 2.140 . S
C370 O371 1.227 . S
C370 O380 1.265 . S
O371 C370 1.227 . S
N372 Co369 2.121 . S
N372 C374 1.375 . S
N372 C375 1.313 . S
C373 C374 1.338 . S
C373 N376 1.377 . S
C373 H393 0.930 . S
C374 N372 1.375 . S
C374 C373 1.338 . S
C374 H378 0.931 . S
C375 N372 1.313 . S
C375 N376 1.344 . S
C375 H379 0.930 . S
N376 C373 1.377 . S
N376 C375 1.344 . S
O377 Co369 2.055 . S
O377 C381 1.253 . S
H378 C374 0.931 . S
H379 C375 0.930 . S
O380 Co369 2.039 . S
O380 C370 1.265 . S
C381 O377 1.253 . S
C381 O382 1.227 . S
O382 C381 1.227 . S
N383 Co369 2.140 . S
N383 C386 1.346 . S
N383 C387 1.345 . S
C384 C385 1.387 . S
C384 C388 1.391 . S
C385 C384 1.387 . S
C385 C386 1.369 . S
C385 H394 0.929 . S
C386 N383 1.346 . S
C386 C385 1.369 . S
C386 H389 0.928 . S
C387 N383 1.345 . S
C387 C388 1.371 . S
C387 H390 0.931 . S
C388 C384 1.391 . S
C388 C387 1.371 . S
C388 H395 0.930 . S
H389 C386 0.928 . S
H390 C387 0.931 . S
H391 C367 0.930 . S
H392 C364 0.930 . S
H393 C373 0.930 . S
H394 C385 0.929 . S
H395 C388 0.930 . S
H396 C414 0.951 . S
H397 C416 0.951 . S
H398 C418 0.950 . S
H399 C419 0.950 . S
H400 C421 0.950 . S
H401 C424 0.950 . S
H402 C425 0.950 . S
H403 C427 0.950 . S
H404 C428 0.950 . S
H405 C429 0.951 . S
H406 C431 0.951 . S
H407 C433 0.950 . S
H408 C434 0.950 . S
H409 C436 0.950 . S
H410 C439 0.950 . S
H411 C440 0.950 . S
H412 C442 0.950 . S
H413 C443 0.950 . S
C414 H396 0.951 . S
C414 C415 1.366 . S
C414 C416 1.388 . S
C415 C414 1.366 . S
C415 C419 1.385 . S
C416 H397 0.951 . S
C416 C414 1.388 . S
C416 C417 1.366 . S
C417 C416 1.366 . S
C417 C418 1.414 . S
C417 C420 1.499 . S
C418 H398 0.950 . S
C418 C417 1.414 . S
C418 C419 1.374 . S
C419 H399 0.950 . S
C419 C415 1.385 . S
C419 C418 1.374 . S
C420 C417 1.499 . S
C420 C421 1.373 . S
C420 C422 1.389 . S
C421 H400 0.950 . S
C421 C420 1.373 . S
C421 C437 1.377 . S
C422 C420 1.389 . S
C422 C423 1.524 . S
C422 C436 1.377 . S
C423 C422 1.524 . S
C423 C424 1.397 . S
C423 C428 1.363 . S
C424 H401 0.950 . S
C424 C423 1.397 . S
C424 C425 1.334 . S
C425 H402 0.950 . S
C425 C424 1.334 . S
C425 C426 1.287 . S
C426 C425 1.287 . S
C426 C427 1.524 . S
C426 H445 0.913 . S
C427 H403 0.950 . S
C427 C426 1.524 . S
C427 C428 1.415 . S
C428 H404 0.950 . S
C428 C423 1.363 . S
C428 C427 1.415 . S
C429 H405 0.951 . S
C429 C430 1.366 . S
C429 C431 1.388 . S
C430 C429 1.366 . S
C430 C434 1.385 . S
C431 H406 0.951 . S
C431 C429 1.388 . S
C431 C432 1.366 . S
C432 C431 1.366 . S
C432 C433 1.414 . S
C432 C435 1.499 . S
C433 H407 0.950 . S
C433 C432 1.414 . S
C433 C434 1.374 . S
C434 H408 0.950 . S
C434 C430 1.385 . S
C434 C433 1.374 . S
C435 C432 1.499 . S
C435 C436 1.373 . S
C435 C437 1.389 . S
C436 H409 0.950 . S
C436 C422 1.377 . S
C436 C435 1.373 . S
C437 C421 1.377 . S
C437 C435 1.389 . S
C437 C438 1.524 . S
C438 C437 1.524 . S
C438 C439 1.397 . S
C438 C443 1.363 . S
C439 H410 0.950 . S
C439 C438 1.397 . S
C439 C440 1.334 . S
C440 H411 0.950 . S
C440 C439 1.334 . S
C440 C441 1.287 . S
C441 C440 1.287 . S
C441 C442 1.524 . S
C441 H444 0.999 . S
C442 H412 0.950 . S
C442 C441 1.524 . S
C442 C443 1.415 . S
C443 H413 0.950 . S
C443 C438 1.363 . S
C443 C442 1.415 . S
H444 C441 0.999 . S
H445 C426 0.913 . S
H446 C464 0.951 . S
H447 C466 0.951 1_655 S
H448 C468 0.950 . S
H449 C469 0.950 . S
H450 C471 0.950 . S
H451 C474 0.950 . S
H452 C475 0.950 . S
H453 C477 0.950 . S
H454 C478 0.950 . S
H455 C479 0.951 . S
H456 C481 0.951 1_455 S
H457 C483 0.950 . S
H458 C484 0.950 . S
H459 C486 0.950 . S
H460 C489 0.950 . S
H461 C490 0.950 . S
H462 C492 0.950 . S
H463 C493 0.950 . S
C464 H446 0.951 . S
C464 C465 1.366 . S
C464 C466 1.388 . S
C465 C464 1.366 . S
C465 C469 1.385 . S
C466 H447 0.951 1_455 S
C466 C464 1.388 . S
C466 C467 1.366 . S
C467 C466 1.366 . S
C467 C468 1.414 . S
C467 C470 1.499 . S
C468 H448 0.950 . S
C468 C467 1.414 . S
C468 C469 1.374 . S
C469 H449 0.950 . S
C469 C465 1.385 . S
C469 C468 1.374 . S
C470 C467 1.499 . S
C470 C471 1.373 . S
C470 C472 1.389 . S
C471 H450 0.950 . S
C471 C470 1.373 . S
C471 C487 1.376 1_455 S
C472 C470 1.389 . S
C472 C473 1.525 . S
C472 C486 1.376 1_455 S
C473 C472 1.525 . S
C473 C474 1.397 . S
C473 C478 1.363 1_455 S
C474 H451 0.950 . S
C474 C473 1.397 . S
C474 C475 1.334 . S
C475 H452 0.950 . S
C475 C474 1.334 . S
C475 C476 1.287 . S
C476 C475 1.287 . S
C476 C477 1.524 1_455 S
C476 H495 0.913 . S
C477 H453 0.950 . S
C477 C476 1.524 1_655 S
C477 C478 1.415 . S
C478 H454 0.950 . S
C478 C473 1.363 1_655 S
C478 C477 1.415 . S
C479 H455 0.951 . S
C479 C480 1.366 . S
C479 C481 1.388 . S
C480 C479 1.366 . S
C480 C484 1.385 . S
C481 H456 0.951 1_655 S
C481 C479 1.388 . S
C481 C482 1.366 . S
C482 C481 1.366 . S
C482 C483 1.414 . S
C482 C485 1.499 . S
C483 H457 0.950 . S
C483 C482 1.414 . S
C483 C484 1.374 . S
C484 H458 0.950 . S
C484 C480 1.385 . S
C484 C483 1.374 . S
C485 C482 1.499 . S
C485 C486 1.373 . S
C485 C487 1.389 . S
C486 H459 0.950 . S
C486 C472 1.376 1_655 S
C486 C485 1.373 . S
C487 C471 1.376 1_655 S
C487 C485 1.389 . S
C487 C488 1.525 . S
C488 C487 1.525 . S
C488 C489 1.397 . S
C488 C493 1.363 1_655 S
C489 H460 0.950 . S
C489 C488 1.397 . S
C489 C490 1.334 . S
C490 H461 0.950 . S
C490 C489 1.334 . S
C490 C491 1.287 . S
C491 C490 1.287 . S
C491 C492 1.524 1_655 S
C491 H494 0.999 . S
C492 H462 0.950 . S
C492 C491 1.524 1_455 S
C492 C493 1.415 . S
C493 H463 0.950 . S
C493 C488 1.363 1_455 S
C493 C492 1.415 . S
H494 C491 0.999 . S
H495 C476 0.913 . S
H496 C514 0.951 . S
H497 C516 0.951 . S
H498 C518 0.950 1_565 S
H499 C519 0.950 . S
H500 C521 0.950 . S
H501 C524 0.950 . S
H502 C525 0.950 . S
H503 C527 0.950 . S
H504 C528 0.950 . S
H505 C529 0.951 . S
H506 C531 0.951 . S
H507 C533 0.950 1_545 S
H508 C534 0.950 . S
H509 C536 0.950 . S
H510 C539 0.950 . S
H511 C540 0.950 . S
H512 C542 0.950 . S
H513 C543 0.950 . S
C514 H496 0.951 . S
C514 C515 1.366 . S
C514 C516 1.388 . S
C515 C514 1.366 . S
C515 C519 1.385 . S
C516 H497 0.951 . S
C516 C514 1.388 . S
C516 C517 1.366 . S
C517 C516 1.366 . S
C517 C518 1.414 . S
C517 C520 1.499 . S
C518 H498 0.950 1_545 S
C518 C517 1.414 . S
C518 C519 1.374 . S
C519 H499 0.950 . S
C519 C515 1.385 . S
C519 C518 1.374 . S
C520 C517 1.499 . S
C520 C521 1.373 1_545 S
C520 C522 1.389 . S
C521 H500 0.950 . S
C521 C520 1.373 1_565 S
C521 C537 1.377 . S
C522 C520 1.389 . S
C522 C523 1.524 . S
C522 C536 1.377 . S
C523 C522 1.524 . S
C523 C524 1.397 . S
C523 C528 1.363 . S
C524 H501 0.950 . S
C524 C523 1.397 . S
C524 C525 1.334 . S
C525 H502 0.950 . S
C525 C524 1.334 . S
C525 C526 1.287 . S
C526 C525 1.287 . S
C526 C527 1.524 . S
C526 H545 0.913 . S
C527 H503 0.950 . S
C527 C526 1.524 . S
C527 C528 1.415 . S
C528 H504 0.950 . S
C528 C523 1.363 . S
C528 C527 1.415 . S
C529 H505 0.951 . S
C529 C530 1.366 . S
C529 C531 1.388 . S
C530 C529 1.366 . S
C530 C534 1.385 . S
C531 H506 0.951 . S
C531 C529 1.388 . S
C531 C532 1.366 . S
C532 C531 1.366 . S
C532 C533 1.414 . S
C532 C535 1.499 . S
C533 H507 0.950 1_565 S
C533 C532 1.414 . S
C533 C534 1.374 . S
C534 H508 0.950 . S
C534 C530 1.385 . S
C534 C533 1.374 . S
C535 C532 1.499 . S
C535 C536 1.373 1_565 S
C535 C537 1.389 . S
C536 H509 0.950 . S
C536 C522 1.377 . S
C536 C535 1.373 1_545 S
C537 C521 1.377 . S
C537 C535 1.389 . S
C537 C538 1.524 . S
C538 C537 1.524 . S
C538 C539 1.397 . S
C538 C543 1.363 . S
C539 H510 0.950 . S
C539 C538 1.397 . S
C539 C540 1.334 . S
C540 H511 0.950 . S
C540 C539 1.334 . S
C540 C541 1.287 . S
C541 C540 1.287 . S
C541 C542 1.524 . S
C541 H544 0.999 . S
C542 H512 0.950 . S
C542 C541 1.524 . S
C542 C543 1.415 . S
C543 H513 0.950 . S
C543 C538 1.363 . S
C543 C542 1.415 . S
H544 C541 0.999 . S
H545 C526 0.913 . S
H546 C564 0.951 . S
H547 C566 0.951 . S
H548 C568 0.950 . S
H549 C569 0.950 . S
H550 C571 0.950 . S
H551 C574 0.950 . S
H552 C575 0.950 . S
H553 C577 0.950 . S
H554 C578 0.950 . S
H555 C579 0.951 . S
H556 C581 0.951 . S
H557 C583 0.950 . S
H558 C584 0.950 . S
H559 C586 0.950 . S
H560 C589 0.950 . S
H561 C590 0.950 . S
H562 C592 0.950 . S
H563 C593 0.950 . S
C564 H546 0.951 . S
C564 C565 1.366 . S
C564 C566 1.388 . S
C565 C564 1.366 . S
C565 C569 1.385 . S
C566 H547 0.951 . S
C566 C564 1.388 . S
C566 C567 1.366 . S
C567 C566 1.366 . S
C567 C568 1.414 . S
C567 C570 1.499 . S
C568 H548 0.950 . S
C568 C567 1.414 . S
C568 C569 1.374 . S
C569 H549 0.950 . S
C569 C565 1.385 . S
C569 C568 1.374 . S
C570 C567 1.499 . S
C570 C571 1.373 . S
C570 C572 1.389 . S
C571 H550 0.950 . S
C571 C570 1.373 . S
C571 C587 1.377 . S
C572 C570 1.389 . S
C572 C573 1.524 . S
C572 C586 1.377 . S
C573 C572 1.524 . S
C573 C574 1.397 . S
C573 C578 1.363 . S
C574 H551 0.950 . S
C574 C573 1.397 . S
C574 C575 1.334 . S
C575 H552 0.950 . S
C575 C574 1.334 . S
C575 C576 1.287 . S
C576 C575 1.287 . S
C576 C577 1.524 . S
C576 H595 0.913 . S
C577 H553 0.950 . S
C577 C576 1.524 . S
C577 C578 1.415 . S
C578 H554 0.950 . S
C578 C573 1.363 . S
C578 C577 1.415 . S
C579 H555 0.951 . S
C579 C580 1.366 . S
C579 C581 1.388 . S
C580 C579 1.366 . S
C580 C584 1.385 . S
C581 H556 0.951 . S
C581 C579 1.388 . S
C581 C582 1.366 . S
C582 C581 1.366 . S
C582 C583 1.414 . S
C582 C585 1.499 . S
C583 H557 0.950 . S
C583 C582 1.414 . S
C583 C584 1.374 . S
C584 H558 0.950 . S
C584 C580 1.385 . S
C584 C583 1.374 . S
C585 C582 1.499 . S
C585 C586 1.373 . S
C585 C587 1.389 . S
C586 H559 0.950 . S
C586 C572 1.377 . S
C586 C585 1.373 . S
C587 C571 1.377 . S
C587 C585 1.389 . S
C587 C588 1.524 . S
C588 C587 1.524 . S
C588 C589 1.397 . S
C588 C593 1.363 . S
C589 H560 0.950 . S
C589 C588 1.397 . S
C589 C590 1.334 . S
C590 H561 0.950 . S
C590 C589 1.334 . S
C590 C591 1.287 . S
C591 C590 1.287 . S
C591 C592 1.524 . S
C591 H594 0.999 . S
C592 H562 0.950 . S
C592 C591 1.524 . S
C592 C593 1.415 . S
C593 H563 0.950 . S
C593 C588 1.363 . S
C593 C592 1.415 . S
H594 C591 0.999 . S
H595 C576 0.913 . S
H596 C614 0.951 . S
H597 C616 0.951 1_455 S
H598 C618 0.950 . S
H599 C619 0.950 . S
H600 C621 0.950 . S
H601 C624 0.950 . S
H602 C625 0.950 1_655 S
H603 C627 0.950 . S
H604 C628 0.950 . S
H605 C629 0.951 . S
H606 C631 0.951 1_655 S
H607 C633 0.950 . S
H608 C634 0.950 . S
H609 C636 0.950 . S
H610 C639 0.950 . S
H611 C640 0.950 1_455 S
H612 C642 0.950 . S
H613 C643 0.950 . S
C614 H596 0.951 . S
C614 C615 1.366 . S
C614 C616 1.388 . S
C615 C614 1.366 . S
C615 C619 1.385 . S
C616 H597 0.951 1_655 S
C616 C614 1.388 . S
C616 C617 1.366 . S
C617 C616 1.366 . S
C617 C618 1.414 . S
C617 C620 1.499 . S
C618 H598 0.950 . S
C618 C617 1.414 . S
C618 C619 1.374 . S
C619 H599 0.950 . S
C619 C615 1.385 . S
C619 C618 1.374 . S
C620 C617 1.499 . S
C620 C621 1.373 . S
C620 C622 1.389 1_655 S
C621 H600 0.950 . S
C621 C620 1.373 . S
C621 C637 1.377 . S
C622 C620 1.389 1_455 S
C622 C623 1.524 . S
C622 C636 1.377 . S
C623 C622 1.524 . S
C623 C624 1.397 1_455 S
C623 C628 1.363 . S
C624 H601 0.950 . S
C624 C623 1.397 1_655 S
C624 C625 1.334 1_655 S
C625 H602 0.950 1_455 S
C625 C624 1.334 1_455 S
C625 C626 1.287 . S
C626 C625 1.287 . S
C626 C627 1.524 . S
C626 H645 0.913 . S
C627 H603 0.950 . S
C627 C626 1.524 . S
C627 C628 1.415 . S
C628 H604 0.950 . S
C628 C623 1.363 . S
C628 C627 1.415 . S
C629 H605 0.951 . S
C629 C630 1.366 . S
C629 C631 1.388 . S
C630 C629 1.366 . S
C630 C634 1.385 . S
C631 H606 0.951 1_455 S
C631 C629 1.388 . S
C631 C632 1.366 . S
C632 C631 1.366 . S
C632 C633 1.414 . S
C632 C635 1.499 . S
C633 H607 0.950 . S
C633 C632 1.414 . S
C633 C634 1.374 . S
C634 H608 0.950 . S
C634 C630 1.385 . S
C634 C633 1.374 . S
C635 C632 1.499 . S
C635 C636 1.373 . S
C635 C637 1.389 1_455 S
C636 H609 0.950 . S
C636 C622 1.377 . S
C636 C635 1.373 . S
C637 C621 1.377 . S
C637 C635 1.389 1_655 S
C637 C638 1.524 . S
C638 C637 1.524 . S
C638 C639 1.397 1_655 S
C638 C643 1.363 . S
C639 H610 0.950 . S
C639 C638 1.397 1_455 S
C639 C640 1.334 1_455 S
C640 H611 0.950 1_655 S
C640 C639 1.334 1_655 S
C640 C641 1.287 . S
C641 C640 1.287 . S
C641 C642 1.524 . S
C641 H644 0.999 . S
C642 H612 0.950 . S
C642 C641 1.524 . S
C642 C643 1.415 . S
C643 H613 0.950 . S
C643 C638 1.363 . S
C643 C642 1.415 . S
H644 C641 0.999 . S
H645 C626 0.913 . S
H646 C664 0.951 . S
H647 C666 0.951 1_545 S
H648 C668 0.950 . S
H649 C669 0.950 . S
H650 C671 0.950 . S
H651 C674 0.950 . S
H652 C675 0.950 . S
H653 C677 0.950 . S
H654 C678 0.950 . S
H655 C679 0.951 . S
H656 C681 0.951 1_565 S
H657 C683 0.950 . S
H658 C684 0.950 . S
H659 C686 0.950 . S
H660 C689 0.950 . S
H661 C690 0.950 . S
H662 C692 0.950 . S
H663 C693 0.950 . S
C664 H646 0.951 . S
C664 C665 1.366 . S
C664 C666 1.388 . S
C665 C664 1.366 . S
C665 C669 1.385 . S
C666 H647 0.951 1_565 S
C666 C664 1.388 . S
C666 C667 1.366 . S
C667 C666 1.366 . S
C667 C668 1.414 . S
C667 C670 1.499 . S
C668 H648 0.950 . S
C668 C667 1.414 . S
C668 C669 1.374 . S
C669 H649 0.950 . S
C669 C665 1.385 . S
C669 C668 1.374 . S
C670 C667 1.499 . S
C670 C671 1.373 . S
C670 C672 1.389 1_565 S
C671 H650 0.950 . S
C671 C670 1.373 . S
C671 C687 1.377 . S
C672 C670 1.389 1_545 S
C672 C673 1.524 . S
C672 C686 1.377 . S
C673 C672 1.524 . S
C673 C674 1.397 1_545 S
C673 C678 1.363 . S
C674 H651 0.950 . S
C674 C673 1.397 1_565 S
C674 C675 1.334 . S
C675 H652 0.950 . S
C675 C674 1.334 . S
C675 C676 1.287 . S
C676 C675 1.287 . S
C676 C677 1.524 1_565 S
C676 H695 0.913 . S
C677 H653 0.950 . S
C677 C676 1.524 1_545 S
C677 C678 1.415 . S
C678 H654 0.950 . S
C678 C673 1.363 . S
C678 C677 1.415 . S
C679 H655 0.951 . S
C679 C680 1.366 . S
C679 C681 1.388 . S
C680 C679 1.366 . S
C680 C684 1.385 . S
C681 H656 0.951 1_545 S
C681 C679 1.388 . S
C681 C682 1.366 . S
C682 C681 1.366 . S
C682 C683 1.414 . S
C682 C685 1.499 . S
C683 H657 0.950 . S
C683 C682 1.414 . S
C683 C684 1.374 . S
C684 H658 0.950 . S
C684 C680 1.385 . S
C684 C683 1.374 . S
C685 C682 1.499 . S
C685 C686 1.373 . S
C685 C687 1.389 1_545 S
C686 H659 0.950 . S
C686 C672 1.377 . S
C686 C685 1.373 . S
C687 C671 1.377 . S
C687 C685 1.389 1_565 S
C687 C688 1.524 . S
C688 C687 1.524 . S
C688 C689 1.397 1_565 S
C688 C693 1.363 . S
C689 H660 0.950 . S
C689 C688 1.397 1_545 S
C689 C690 1.334 . S
C690 H661 0.950 . S
C690 C689 1.334 . S
C690 C691 1.287 . S
C691 C690 1.287 . S
C691 C692 1.524 1_545 S
C691 H694 0.999 . S
C692 H662 0.950 . S
C692 C691 1.524 1_565 S
C692 C693 1.415 . S
C693 H663 0.950 . S
C693 C688 1.363 . S
C693 C692 1.415 . S
H694 C691 0.999 . S
H695 C676 0.913 . S
H696 C714 0.951 . S
H697 C716 0.951 . S
H698 C718 0.950 . S
H699 C719 0.950 . S
H700 C721 0.950 . S
H701 C724 0.950 . S
H702 C725 0.950 . S
H703 C727 0.950 . S
H704 C728 0.950 . S
H705 C729 0.951 . S
H706 C731 0.951 . S
H707 C733 0.950 . S
H708 C734 0.950 . S
H709 C736 0.950 . S
H710 C739 0.950 . S
H711 C740 0.950 . S
H712 C742 0.950 . S
H713 C743 0.950 . S
C714 H696 0.951 . S
C714 C715 1.366 . S
C714 C716 1.388 . S
C715 C714 1.366 . S
C715 C719 1.385 . S
C716 H697 0.951 . S
C716 C714 1.388 . S
C716 C717 1.366 . S
C717 C716 1.366 . S
C717 C718 1.414 . S
C717 C720 1.499 . S
C718 H698 0.950 . S
C718 C717 1.414 . S
C718 C719 1.374 . S
C719 H699 0.950 . S
C719 C715 1.385 . S
C719 C718 1.374 . S
C720 C717 1.499 . S
C720 C721 1.373 . S
C720 C722 1.389 . S
C721 H700 0.950 . S
C721 C720 1.373 . S
C721 C737 1.377 . S
C722 C720 1.389 . S
C722 C723 1.524 . S
C722 C736 1.377 . S
C723 C722 1.524 . S
C723 C724 1.397 . S
C723 C728 1.363 . S
C724 H701 0.950 . S
C724 C723 1.397 . S
C724 C725 1.334 . S
C725 H702 0.950 . S
C725 C724 1.334 . S
C725 C726 1.287 . S
C726 C725 1.287 . S
C726 C727 1.524 . S
C726 H745 0.913 . S
C727 H703 0.950 . S
C727 C726 1.524 . S
C727 C728 1.415 . S
C728 H704 0.950 . S
C728 C723 1.363 . S
C728 C727 1.415 . S
C729 H705 0.951 . S
C729 C730 1.366 . S
C729 C731 1.388 . S
C730 C729 1.366 . S
C730 C734 1.385 . S
C731 H706 0.951 . S
C731 C729 1.388 . S
C731 C732 1.366 . S
C732 C731 1.366 . S
C732 C733 1.414 . S
C732 C735 1.499 . S
C733 H707 0.950 . S
C733 C732 1.414 . S
C733 C734 1.374 . S
C734 H708 0.950 . S
C734 C730 1.385 . S
C734 C733 1.374 . S
C735 C732 1.499 . S
C735 C736 1.373 . S
C735 C737 1.389 . S
C736 H709 0.950 . S
C736 C722 1.377 . S
C736 C735 1.373 . S
C737 C721 1.377 . S
C737 C735 1.389 . S
C737 C738 1.524 . S
C738 C737 1.524 . S
C738 C739 1.397 . S
C738 C743 1.363 . S
C739 H710 0.950 . S
C739 C738 1.397 . S
C739 C740 1.334 . S
C740 H711 0.950 . S
C740 C739 1.334 . S
C740 C741 1.287 . S
C741 C740 1.287 . S
C741 C742 1.524 . S
C741 H744 0.999 . S
C742 H712 0.950 . S
C742 C741 1.524 . S
C742 C743 1.415 . S
C743 H713 0.950 . S
C743 C738 1.363 . S
C743 C742 1.415 . S
H744 C741 0.999 . S
H745 C726 0.913 . S
H746 C764 0.951 . S
H747 C766 0.951 1_455 S
H748 C768 0.950 . S
H749 C769 0.950 . S
H750 C771 0.950 . S
H751 C774 0.950 . S
H752 C775 0.950 . S
H753 C777 0.950 . S
H754 C778 0.950 . S
H755 C779 0.951 . S
H756 C781 0.951 1_655 S
H757 C783 0.950 . S
H758 C784 0.950 . S
H759 C786 0.950 . S
H760 C789 0.950 . S
H761 C790 0.950 . S
H762 C792 0.950 . S
H763 C793 0.950 . S
C764 H746 0.951 . S
C764 C765 1.366 . S
C764 C766 1.388 . S
C765 C764 1.366 . S
C765 C769 1.385 . S
C766 H747 0.951 1_655 S
C766 C764 1.388 . S
C766 C767 1.366 . S
C767 C766 1.366 . S
C767 C768 1.414 . S
C767 C770 1.499 . S
C768 H748 0.950 . S
C768 C767 1.414 . S
C768 C769 1.374 . S
C769 H749 0.950 . S
C769 C765 1.385 . S
C769 C768 1.374 . S
C770 C767 1.499 . S
C770 C771 1.373 . S
C770 C772 1.389 1_655 S
C771 H750 0.950 . S
C771 C770 1.373 . S
C771 C787 1.377 . S
C772 C770 1.389 1_455 S
C772 C773 1.524 . S
C772 C786 1.377 . S
C773 C772 1.524 . S
C773 C774 1.397 . S
C773 C778 1.363 . S
C774 H751 0.950 . S
C774 C773 1.397 . S
C774 C775 1.334 . S
C775 H752 0.950 . S
C775 C774 1.334 . S
C775 C776 1.287 . S
C776 C775 1.287 . S
C776 C777 1.524 . S
C776 H795 0.913 . S
C777 H753 0.950 . S
C777 C776 1.524 . S
C777 C778 1.415 . S
C778 H754 0.950 . S
C778 C773 1.363 . S
C778 C777 1.415 . S
C779 H755 0.951 . S
C779 C780 1.366 . S
C779 C781 1.388 . S
C780 C779 1.366 . S
C780 C784 1.385 . S
C781 H756 0.951 1_455 S
C781 C779 1.388 . S
C781 C782 1.366 . S
C782 C781 1.366 . S
C782 C783 1.414 . S
C782 C785 1.499 . S
C783 H757 0.950 . S
C783 C782 1.414 . S
C783 C784 1.374 . S
C784 H758 0.950 . S
C784 C780 1.385 . S
C784 C783 1.374 . S
C785 C782 1.499 . S
C785 C786 1.373 . S
C785 C787 1.389 1_455 S
C786 H759 0.950 . S
C786 C772 1.377 . S
C786 C785 1.373 . S
C787 C771 1.377 . S
C787 C785 1.389 1_655 S
C787 C788 1.524 . S
C788 C787 1.524 . S
C788 C789 1.397 . S
C788 C793 1.363 . S
C789 H760 0.950 . S
C789 C788 1.397 . S
C789 C790 1.334 . S
C790 H761 0.950 . S
C790 C789 1.334 . S
C790 C791 1.287 . S
C791 C790 1.287 . S
C791 C792 1.524 . S
C791 H794 0.999 . S
C792 H762 0.950 . S
C792 C791 1.524 . S
C792 C793 1.415 . S
C793 H763 0.950 . S
C793 C788 1.363 . S
C793 C792 1.415 . S
H794 C791 0.999 . S
H795 C776 0.913 . S
H796 C814 0.951 . S
H797 C816 0.951 . S
H798 C818 0.950 . S
H799 C819 0.950 . S
H800 C821 0.950 . S
H801 C824 0.950 . S
H802 C825 0.950 . S
H803 C827 0.950 . S
H804 C828 0.950 . S
H805 C829 0.951 . S
H806 C831 0.951 . S
H807 C833 0.950 . S
H808 C834 0.950 . S
H809 C836 0.950 . S
H810 C839 0.950 . S
H811 C840 0.950 . S
H812 C842 0.950 . S
H813 C843 0.950 . S
C814 H796 0.951 . S
C814 C815 1.366 . S
C814 C816 1.388 . S
C815 C814 1.366 . S
C815 C819 1.385 . S
C816 H797 0.951 . S
C816 C814 1.388 . S
C816 C817 1.366 . S
C817 C816 1.366 . S
C817 C818 1.414 . S
C817 C820 1.499 . S
C818 H798 0.950 . S
C818 C817 1.414 . S
C818 C819 1.374 . S
C819 H799 0.950 . S
C819 C815 1.385 . S
C819 C818 1.374 . S
C820 C817 1.499 . S
C820 C821 1.373 1_545 S
C820 C822 1.389 . S
C821 H800 0.950 . S
C821 C820 1.373 1_565 S
C821 C837 1.377 1_554 S
C822 C820 1.389 . S
C822 C823 1.524 . S
C822 C836 1.377 1_554 S
C823 C822 1.524 . S
C823 C824 1.397 . S
C823 C828 1.363 1_554 S
C824 H801 0.950 . S
C824 C823 1.397 . S
C824 C825 1.334 . S
C825 H802 0.950 . S
C825 C824 1.334 . S
C825 C826 1.287 . S
C826 C825 1.287 . S
C826 C827 1.524 1_554 S
C826 H845 0.913 . S
C827 H803 0.950 . S
C827 C826 1.524 1_556 S
C827 C828 1.415 . S
C828 H804 0.950 . S
C828 C823 1.363 1_556 S
C828 C827 1.415 . S
C829 H805 0.951 . S
C829 C830 1.366 . S
C829 C831 1.388 . S
C830 C829 1.366 . S
C830 C834 1.385 . S
C831 H806 0.951 . S
C831 C829 1.388 . S
C831 C832 1.366 . S
C832 C831 1.366 . S
C832 C833 1.414 . S
C832 C835 1.499 . S
C833 H807 0.950 . S
C833 C832 1.414 . S
C833 C834 1.374 . S
C834 H808 0.950 . S
C834 C830 1.385 . S
C834 C833 1.374 . S
C835 C832 1.499 . S
C835 C836 1.373 1_565 S
C835 C837 1.389 . S
C836 H809 0.950 . S
C836 C822 1.377 1_556 S
C836 C835 1.373 1_545 S
C837 C821 1.377 1_556 S
C837 C835 1.389 . S
C837 C838 1.524 . S
C838 C837 1.524 . S
C838 C839 1.397 . S
C838 C843 1.363 1_556 S
C839 H810 0.950 . S
C839 C838 1.397 . S
C839 C840 1.334 . S
C840 H811 0.950 . S
C840 C839 1.334 . S
C840 C841 1.287 . S
C841 C840 1.287 . S
C841 C842 1.524 1_556 S
C841 H844 0.999 . S
C842 H812 0.950 . S
C842 C841 1.524 1_554 S
C842 C843 1.415 . S
C843 H813 0.950 . S
C843 C838 1.363 1_554 S
C843 C842 1.415 . S
H844 C841 0.999 . S
H845 C826 0.913 . S
H846 C864 0.951 . S
H847 C866 0.951 . S
H848 C868 0.950 . S
H849 C869 0.950 . S
H850 C871 0.950 . S
H851 C874 0.950 . S
H852 C875 0.950 . S
H853 C877 0.950 . S
H854 C878 0.950 . S
H855 C879 0.951 . S
H856 C881 0.951 . S
H857 C883 0.950 . S
H858 C884 0.950 . S
H859 C886 0.950 . S
H860 C889 0.950 . S
H861 C890 0.950 . S
H862 C892 0.950 . S
H863 C893 0.950 . S
C864 H846 0.951 . S
C864 C865 1.366 . S
C864 C866 1.388 . S
C865 C864 1.366 . S
C865 C869 1.385 . S
C866 H847 0.951 . S
C866 C864 1.388 . S
C866 C867 1.366 . S
C867 C866 1.366 . S
C867 C868 1.414 . S
C867 C870 1.499 . S
C868 H848 0.950 . S
C868 C867 1.414 . S
C868 C869 1.374 . S
C869 H849 0.950 . S
C869 C865 1.385 . S
C869 C868 1.374 . S
C870 C867 1.499 . S
C870 C871 1.373 . S
C870 C872 1.389 . S
C871 H850 0.950 . S
C871 C870 1.373 . S
C871 C887 1.377 . S
C872 C870 1.389 . S
C872 C873 1.524 . S
C872 C886 1.377 . S
C873 C872 1.524 . S
C873 C874 1.397 . S
C873 C878 1.363 . S
C874 H851 0.950 . S
C874 C873 1.397 . S
C874 C875 1.334 . S
C875 H852 0.950 . S
C875 C874 1.334 . S
C875 C876 1.287 . S
C876 C875 1.287 . S
C876 C877 1.524 . S
C876 H895 0.913 . S
C877 H853 0.950 . S
C877 C876 1.524 . S
C877 C878 1.415 . S
C878 H854 0.950 . S
C878 C873 1.363 . S
C878 C877 1.415 . S
C879 H855 0.951 . S
C879 C880 1.366 . S
C879 C881 1.388 . S
C880 C879 1.366 . S
C880 C884 1.385 . S
C881 H856 0.951 . S
C881 C879 1.388 . S
C881 C882 1.366 . S
C882 C881 1.366 . S
C882 C883 1.414 . S
C882 C885 1.499 . S
C883 H857 0.950 . S
C883 C882 1.414 . S
C883 C884 1.374 . S
C884 H858 0.950 . S
C884 C880 1.385 . S
C884 C883 1.374 . S
C885 C882 1.499 . S
C885 C886 1.373 . S
C885 C887 1.389 . S
C886 H859 0.950 . S
C886 C872 1.377 . S
C886 C885 1.373 . S
C887 C871 1.377 . S
C887 C885 1.389 . S
C887 C888 1.524 . S
C888 C887 1.524 . S
C888 C889 1.397 . S
C888 C893 1.363 . S
C889 H860 0.950 . S
C889 C888 1.397 . S
C889 C890 1.334 . S
C890 H861 0.950 . S
C890 C889 1.334 . S
C890 C891 1.287 . S
C891 C890 1.287 . S
C891 C892 1.524 . S
C891 H894 0.999 . S
C892 H862 0.950 . S
C892 C891 1.524 . S
C892 C893 1.415 . S
C893 H863 0.950 . S
C893 C888 1.363 . S
C893 C892 1.415 . S
H894 C891 0.999 . S
H895 C876 0.913 . S
H896 C914 0.951 . S
H897 C916 0.951 1_655 S
H898 C918 0.950 . S
H899 C919 0.950 . S
H900 C921 0.950 . S
H901 C924 0.950 . S
H902 C925 0.950 . S
H903 C927 0.950 . S
H904 C928 0.950 . S
H905 C929 0.951 . S
H906 C931 0.951 1_455 S
H907 C933 0.950 . S
H908 C934 0.950 . S
H909 C936 0.950 . S
H910 C939 0.950 . S
H911 C940 0.950 . S
H912 C942 0.950 . S
H913 C943 0.950 . S
C914 H896 0.951 . S
C914 C915 1.366 . S
C914 C916 1.388 . S
C915 C914 1.366 . S
C915 C919 1.385 . S
C916 H897 0.951 1_455 S
C916 C914 1.388 . S
C916 C917 1.366 . S
C917 C916 1.366 . S
C917 C918 1.414 . S
C917 C920 1.499 . S
C918 H898 0.950 . S
C918 C917 1.414 . S
C918 C919 1.374 . S
C919 H899 0.950 . S
C919 C915 1.385 . S
C919 C918 1.374 . S
C920 C917 1.499 . S
C920 C921 1.373 . S
C920 C922 1.389 . S
C921 H900 0.950 . S
C921 C920 1.373 . S
C921 C937 1.377 1_455 S
C922 C920 1.389 . S
C922 C923 1.524 . S
C922 C936 1.377 1_455 S
C923 C922 1.524 . S
C923 C924 1.397 . S
C923 C928 1.363 1_455 S
C924 H901 0.950 . S
C924 C923 1.397 . S
C924 C925 1.334 . S
C925 H902 0.950 . S
C925 C924 1.334 . S
C925 C926 1.287 . S
C926 C925 1.287 . S
C926 C927 1.524 1_455 S
C926 H945 0.913 . S
C927 H903 0.950 . S
C927 C926 1.524 1_655 S
C927 C928 1.415 . S
C928 H904 0.950 . S
C928 C923 1.363 1_655 S
C928 C927 1.415 . S
C929 H905 0.951 . S
C929 C930 1.366 . S
C929 C931 1.388 . S
C930 C929 1.366 . S
C930 C934 1.385 . S
C931 H906 0.951 1_655 S
C931 C929 1.388 . S
C931 C932 1.366 . S
C932 C931 1.366 . S
C932 C933 1.414 . S
C932 C935 1.499 . S
C933 H907 0.950 . S
C933 C932 1.414 . S
C933 C934 1.374 . S
C934 H908 0.950 . S
C934 C930 1.385 . S
C934 C933 1.374 . S
C935 C932 1.499 . S
C935 C936 1.373 . S
C935 C937 1.389 . S
C936 H909 0.950 . S
C936 C922 1.377 1_655 S
C936 C935 1.373 . S
C937 C921 1.377 1_655 S
C937 C935 1.389 . S
C937 C938 1.524 . S
C938 C937 1.524 . S
C938 C939 1.397 . S
C938 C943 1.363 1_655 S
C939 H910 0.950 . S
C939 C938 1.397 . S
C939 C940 1.334 . S
C940 H911 0.950 . S
C940 C939 1.334 . S
C940 C941 1.287 . S
C941 C940 1.287 . S
C941 C942 1.524 1_655 S
C941 H944 0.999 . S
C942 H912 0.950 . S
C942 C941 1.524 1_455 S
C942 C943 1.415 . S
C943 H913 0.950 . S
C943 C938 1.363 1_455 S
C943 C942 1.415 . S
H944 C941 0.999 . S
H945 C926 0.913 . S
H946 C964 0.951 . S
H947 C966 0.951 . S
H948 C968 0.950 1_565 S
H949 C969 0.950 . S
H950 C971 0.950 . S
H951 C974 0.950 . S
H952 C975 0.950 . S
H953 C977 0.950 . S
H954 C978 0.950 1_554 S
H955 C979 0.951 . S
H956 C981 0.951 . S
H957 C983 0.950 1_545 S
H958 C984 0.950 . S
H959 C986 0.950 . S
H960 C989 0.950 . S
H961 C990 0.950 . S
H962 C992 0.950 . S
H963 C993 0.950 1_556 S
C964 H946 0.951 . S
C964 C965 1.366 . S
C964 C966 1.388 . S
C965 C964 1.366 . S
C965 C969 1.385 . S
C966 H947 0.951 . S
C966 C964 1.388 . S
C966 C967 1.366 . S
C967 C966 1.366 . S
C967 C968 1.414 . S
C967 C970 1.499 . S
C968 H948 0.950 1_545 S
C968 C967 1.414 . S
C968 C969 1.374 . S
C969 H949 0.950 . S
C969 C965 1.385 . S
C969 C968 1.374 . S
C970 C967 1.499 . S
C970 C971 1.373 . S
C970 C972 1.389 . S
C971 H950 0.950 . S
C971 C970 1.373 . S
C971 C987 1.377 1_546 S
C972 C970 1.389 . S
C972 C973 1.524 . S
C972 C986 1.377 1_546 S
C973 C972 1.524 . S
C973 C974 1.397 1_545 S
C973 C978 1.363 . S
C974 H951 0.950 . S
C974 C973 1.397 1_565 S
C974 C975 1.334 . S
C975 H952 0.950 . S
C975 C974 1.334 . S
C975 C976 1.287 1_565 S
C976 C975 1.287 1_545 S
C976 C977 1.524 . S
C976 H995 0.913 . S
C977 H953 0.950 . S
C977 C976 1.524 . S
C977 C978 1.415 . S
C978 H954 0.950 1_556 S
C978 C973 1.363 . S
C978 C977 1.415 . S
C979 H955 0.951 . S
C979 C980 1.366 . S
C979 C981 1.388 . S
C980 C979 1.366 . S
C980 C984 1.385 . S
C981 H956 0.951 . S
C981 C979 1.388 . S
C981 C982 1.366 . S
C982 C981 1.366 . S
C982 C983 1.414 . S
C982 C985 1.499 . S
C983 H957 0.950 1_565 S
C983 C982 1.414 . S
C983 C984 1.374 . S
C984 H958 0.950 . S
C984 C980 1.385 . S
C984 C983 1.374 . S
C985 C982 1.499 . S
C985 C986 1.373 . S
C985 C987 1.389 . S
C986 H959 0.950 . S
C986 C972 1.377 1_564 S
C986 C985 1.373 . S
C987 C971 1.377 1_564 S
C987 C985 1.389 . S
C987 C988 1.524 . S
C988 C987 1.524 . S
C988 C989 1.397 1_565 S
C988 C993 1.363 . S
C989 H960 0.950 . S
C989 C988 1.397 1_545 S
C989 C990 1.334 . S
C990 H961 0.950 . S
C990 C989 1.334 . S
C990 C991 1.287 1_545 S
C991 C990 1.287 1_565 S
C991 C992 1.524 . S
C991 H994 0.999 . S
C992 H962 0.950 . S
C992 C991 1.524 . S
C992 C993 1.415 . S
C993 H963 0.950 1_554 S
C993 C988 1.363 . S
C993 C992 1.415 . S
H994 C991 0.999 . S
H995 C976 0.913 . S
H996 C1014 0.951 . S
H997 C1016 0.951 . S
H998 C1018 0.950 . S
H999 C1019 0.950 . S
H1000 C1021 0.950 . S
H1001 C1024 0.950 . S
H1002 C1025 0.950 . S
H1003 C1027 0.950 . S
H1004 C1028 0.950 1_565 S
H1005 C1029 0.951 . S
H1006 C1031 0.951 . S
H1007 C1033 0.950 . S
H1008 C1034 0.950 . S
H1009 C1036 0.950 . S
H1010 C1039 0.950 . S
H1011 C1040 0.950 . S
H1012 C1042 0.950 . S
H1013 C1043 0.950 1_545 S
C1014 H996 0.951 . S
C1014 C1015 1.366 . S
C1014 C1016 1.388 . S
C1015 C1014 1.366 . S
C1015 C1019 1.385 . S
C1016 H997 0.951 . S
C1016 C1014 1.388 . S
C1016 C1017 1.366 . S
C1017 C1016 1.366 . S
C1017 C1018 1.414 . S
C1017 C1020 1.499 . S
C1018 H998 0.950 . S
C1018 C1017 1.414 . S
C1018 C1019 1.374 . S
C1019 H999 0.950 . S
C1019 C1015 1.385 . S
C1019 C1018 1.374 . S
C1020 C1017 1.499 . S
C1020 C1021 1.373 1_455 S
C1020 C1022 1.389 . S
C1021 H1000 0.950 . S
C1021 C1020 1.373 1_655 S
C1021 C1037 1.377 1_545 S
C1022 C1020 1.389 . S
C1022 C1023 1.524 . S
C1022 C1036 1.377 1_545 S
C1023 C1022 1.524 . S
C1023 C1024 1.397 . S
C1023 C1028 1.363 . S
C1024 H1001 0.950 . S
C1024 C1023 1.397 . S
C1024 C1025 1.334 . S
C1025 H1002 0.950 . S
C1025 C1024 1.334 . S
C1025 C1026 1.287 . S
C1026 C1025 1.287 . S
C1026 C1027 1.524 . S
C1026 H1045 0.913 . S
C1027 H1003 0.950 . S
C1027 C1026 1.524 . S
C1027 C1028 1.415 . S
C1028 H1004 0.950 1_545 S
C1028 C1023 1.363 . S
C1028 C1027 1.415 . S
C1029 H1005 0.951 . S
C1029 C1030 1.366 . S
C1029 C1031 1.388 . S
C1030 C1029 1.366 . S
C1030 C1034 1.385 . S
C1031 H1006 0.951 . S
C1031 C1029 1.388 . S
C1031 C1032 1.366 . S
C1032 C1031 1.366 . S
C1032 C1033 1.414 . S
C1032 C1035 1.499 . S
C1033 H1007 0.950 . S
C1033 C1032 1.414 . S
C1033 C1034 1.374 . S
C1034 H1008 0.950 . S
C1034 C1030 1.385 . S
C1034 C1033 1.374 . S
C1035 C1032 1.499 . S
C1035 C1036 1.373 1_655 S
C1035 C1037 1.389 . S
C1036 H1009 0.950 . S
C1036 C1022 1.377 1_565 S
C1036 C1035 1.373 1_455 S
C1037 C1021 1.377 1_565 S
C1037 C1035 1.389 . S
C1037 C1038 1.524 . S
C1038 C1037 1.524 . S
C1038 C1039 1.397 . S
C1038 C1043 1.363 . S
C1039 H1010 0.950 . S
C1039 C1038 1.397 . S
C1039 C1040 1.334 . S
C1040 H1011 0.950 . S
C1040 C1039 1.334 . S
C1040 C1041 1.287 . S
C1041 C1040 1.287 . S
C1041 C1042 1.524 . S
C1041 H1044 0.999 . S
C1042 H1012 0.950 . S
C1042 C1041 1.524 . S
C1042 C1043 1.415 . S
C1043 H1013 0.950 1_565 S
C1043 C1038 1.363 . S
C1043 C1042 1.415 . S
H1044 C1041 0.999 . S
H1045 C1026 0.913 . S
H1046 C1064 0.951 . S
H1047 C1066 0.951 1_455 S
H1048 C1068 0.950 . S
H1049 C1069 0.950 . S
H1050 C1071 0.950 . S
H1051 C1074 0.950 . S
H1052 C1075 0.950 . S
H1053 C1077 0.950 . S
H1054 C1078 0.950 . S
H1055 C1079 0.951 . S
H1056 C1081 0.951 1_655 S
H1057 C1083 0.950 . S
H1058 C1084 0.950 . S
H1059 C1086 0.950 . S
H1060 C1089 0.950 . S
H1061 C1090 0.950 . S
H1062 C1092 0.950 . S
H1063 C1093 0.950 . S
C1064 H1046 0.951 . S
C1064 C1065 1.366 . S
C1064 C1066 1.388 . S
C1065 C1064 1.366 . S
C1065 C1069 1.385 . S
C1066 H1047 0.951 1_655 S
C1066 C1064 1.388 . S
C1066 C1067 1.366 . S
C1067 C1066 1.366 . S
C1067 C1068 1.414 . S
C1067 C1070 1.499 . S
C1068 H1048 0.950 . S
C1068 C1067 1.414 . S
C1068 C1069 1.374 . S
C1069 H1049 0.950 . S
C1069 C1065 1.385 . S
C1069 C1068 1.374 . S
C1070 C1067 1.499 . S
C1070 C1071 1.373 1_545 S
C1070 C1072 1.389 1_655 S
C1071 H1050 0.950 . S
C1071 C1070 1.373 1_565 S
C1071 C1087 1.377 . S
C1072 C1070 1.389 1_455 S
C1072 C1073 1.524 . S
C1072 C1086 1.377 . S
C1073 C1072 1.524 . S
C1073 C1074 1.397 . S
C1073 C1078 1.363 . S
C1074 H1051 0.950 . S
C1074 C1073 1.397 . S
C1074 C1075 1.334 . S
C1075 H1052 0.950 . S
C1075 C1074 1.334 . S
C1075 C1076 1.287 . S
C1076 C1075 1.287 . S
C1076 C1077 1.524 . S
C1076 H1095 0.913 . S
C1077 H1053 0.950 . S
C1077 C1076 1.524 . S
C1077 C1078 1.415 . S
C1078 H1054 0.950 . S
C1078 C1073 1.363 . S
C1078 C1077 1.415 . S
C1079 H1055 0.951 . S
C1079 C1080 1.366 . S
C1079 C1081 1.388 . S
C1080 C1079 1.366 . S
C1080 C1084 1.385 . S
C1081 H1056 0.951 1_455 S
C1081 C1079 1.388 . S
C1081 C1082 1.366 . S
C1082 C1081 1.366 . S
C1082 C1083 1.414 . S
C1082 C1085 1.499 . S
C1083 H1057 0.950 . S
C1083 C1082 1.414 . S
C1083 C1084 1.374 . S
C1084 H1058 0.950 . S
C1084 C1080 1.385 . S
C1084 C1083 1.374 . S
C1085 C1082 1.499 . S
C1085 C1086 1.373 1_565 S
C1085 C1087 1.389 1_455 S
C1086 H1059 0.950 . S
C1086 C1072 1.377 . S
C1086 C1085 1.373 1_545 S
C1087 C1071 1.377 . S
C1087 C1085 1.389 1_655 S
C1087 C1088 1.524 . S
C1088 C1087 1.524 . S
C1088 C1089 1.397 . S
C1088 C1093 1.363 . S
C1089 H1060 0.950 . S
C1089 C1088 1.397 . S
C1089 C1090 1.334 . S
C1090 H1061 0.950 . S
C1090 C1089 1.334 . S
C1090 C1091 1.287 . S
C1091 C1090 1.287 . S
C1091 C1092 1.524 . S
C1091 H1094 0.999 . S
C1092 H1062 0.950 . S
C1092 C1091 1.524 . S
C1092 C1093 1.415 . S
C1093 H1063 0.950 . S
C1093 C1088 1.363 . S
C1093 C1092 1.415 . S
H1094 C1091 0.999 . S
H1095 C1076 0.913 . S
H1096 C1114 0.951 . S
H1097 C1116 0.951 . S
H1098 C1118 0.950 . S
H1099 C1119 0.950 . S
H1100 C1121 0.950 . S
H1101 C1124 0.950 . S
H1102 C1125 0.950 . S
H1103 C1127 0.950 . S
H1104 C1128 0.950 1_655 S
H1105 C1129 0.951 . S
H1106 C1131 0.951 . S
H1107 C1133 0.950 . S
H1108 C1134 0.950 . S
H1109 C1136 0.950 . S
H1110 C1139 0.950 . S
H1111 C1140 0.950 . S
H1112 C1142 0.950 . S
H1113 C1143 0.950 1_455 S
C1114 H1096 0.951 . S
C1114 C1115 1.366 . S
C1114 C1116 1.388 . S
C1115 C1114 1.366 . S
C1115 C1119 1.385 . S
C1116 H1097 0.951 . S
C1116 C1114 1.388 . S
C1116 C1117 1.366 . S
C1117 C1116 1.366 . S
C1117 C1118 1.414 . S
C1117 C1120 1.499 . S
C1118 H1098 0.950 . S
C1118 C1117 1.414 . S
C1118 C1119 1.374 . S
C1119 H1099 0.950 . S
C1119 C1115 1.385 . S
C1119 C1118 1.374 . S
C1120 C1117 1.499 . S
C1120 C1121 1.373 . S
C1120 C1122 1.389 1_545 S
C1121 H1100 0.950 . S
C1121 C1120 1.373 . S
C1121 C1137 1.377 1_455 S
C1122 C1120 1.389 1_565 S
C1122 C1123 1.524 . S
C1122 C1136 1.377 1_455 S
C1123 C1122 1.524 . S
C1123 C1124 1.397 . S
C1123 C1128 1.363 . S
C1124 H1101 0.950 . S
C1124 C1123 1.397 . S
C1124 C1125 1.334 . S
C1125 H1102 0.950 . S
C1125 C1124 1.334 . S
C1125 C1126 1.287 . S
C1126 C1125 1.287 . S
C1126 C1127 1.524 . S
C1126 H1145 0.913 . S
C1127 H1103 0.950 . S
C1127 C1126 1.524 . S
C1127 C1128 1.415 . S
C1128 H1104 0.950 1_455 S
C1128 C1123 1.363 . S
C1128 C1127 1.415 . S
C1129 H1105 0.951 . S
C1129 C1130 1.366 . S
C1129 C1131 1.388 . S
C1130 C1129 1.366 . S
C1130 C1134 1.385 . S
C1131 H1106 0.951 . S
C1131 C1129 1.388 . S
C1131 C1132 1.366 . S
C1132 C1131 1.366 . S
C1132 C1133 1.414 . S
C1132 C1135 1.499 . S
C1133 H1107 0.950 . S
C1133 C1132 1.414 . S
C1133 C1134 1.374 . S
C1134 H1108 0.950 . S
C1134 C1130 1.385 . S
C1134 C1133 1.374 . S
C1135 C1132 1.499 . S
C1135 C1136 1.373 . S
C1135 C1137 1.389 1_565 S
C1136 H1109 0.950 . S
C1136 C1122 1.377 1_655 S
C1136 C1135 1.373 . S
C1137 C1121 1.377 1_655 S
C1137 C1135 1.389 1_545 S
C1137 C1138 1.524 . S
C1138 C1137 1.524 . S
C1138 C1139 1.397 . S
C1138 C1143 1.363 . S
C1139 H1110 0.950 . S
C1139 C1138 1.397 . S
C1139 C1140 1.334 . S
C1140 H1111 0.950 . S
C1140 C1139 1.334 . S
C1140 C1141 1.287 . S
C1141 C1140 1.287 . S
C1141 C1142 1.524 . S
C1141 H1144 0.999 . S
C1142 H1112 0.950 . S
C1142 C1141 1.524 . S
C1142 C1143 1.415 . S
C1143 H1113 0.950 1_655 S
C1143 C1138 1.363 . S
C1143 C1142 1.415 . S
H1144 C1141 0.999 . S
H1145 C1126 0.913 . S
H1146 C1164 0.951 . S
H1147 C1166 0.951 . S
H1148 C1168 0.950 . S
H1149 C1169 0.950 . S
H1150 C1171 0.950 . S
H1151 C1174 0.950 . S
H1152 C1175 0.950 . S
H1153 C1177 0.950 . S
H1154 C1178 0.950 . S
H1155 C1179 0.951 . S
H1156 C1181 0.951 . S
H1157 C1183 0.950 . S
H1158 C1184 0.950 . S
H1159 C1186 0.950 . S
H1160 C1189 0.950 . S
H1161 C1190 0.950 . S
H1162 C1192 0.950 . S
H1163 C1193 0.950 . S
C1164 H1146 0.951 . S
C1164 C1165 1.366 . S
C1164 C1166 1.388 . S
C1165 C1164 1.366 . S
C1165 C1169 1.385 . S
C1166 H1147 0.951 . S
C1166 C1164 1.388 . S
C1166 C1167 1.366 . S
C1167 C1166 1.366 . S
C1167 C1168 1.414 . S
C1167 C1170 1.499 . S
C1168 H1148 0.950 . S
C1168 C1167 1.414 . S
C1168 C1169 1.374 . S
C1169 H1149 0.950 . S
C1169 C1165 1.385 . S
C1169 C1168 1.374 . S
C1170 C1167 1.499 . S
C1170 C1171 1.373 . S
C1170 C1172 1.389 1_565 S
C1171 H1150 0.950 . S
C1171 C1170 1.373 . S
C1171 C1187 1.377 1_655 S
C1172 C1170 1.389 1_545 S
C1172 C1173 1.524 . S
C1172 C1186 1.377 1_655 S
C1173 C1172 1.524 . S
C1173 C1174 1.397 1_545 S
C1173 C1178 1.363 . S
C1174 H1151 0.950 . S
C1174 C1173 1.397 1_565 S
C1174 C1175 1.334 . S
C1175 H1152 0.950 . S
C1175 C1174 1.334 . S
C1175 C1176 1.287 1_565 S
C1176 C1175 1.287 1_545 S
C1176 C1177 1.524 . S
C1176 H1195 0.913 . S
C1177 H1153 0.950 . S
C1177 C1176 1.524 . S
C1177 C1178 1.415 . S
C1178 H1154 0.950 . S
C1178 C1173 1.363 . S
C1178 C1177 1.415 . S
C1179 H1155 0.951 . S
C1179 C1180 1.366 . S
C1179 C1181 1.388 . S
C1180 C1179 1.366 . S
C1180 C1184 1.385 . S
C1181 H1156 0.951 . S
C1181 C1179 1.388 . S
C1181 C1182 1.366 . S
C1182 C1181 1.366 . S
C1182 C1183 1.414 . S
C1182 C1185 1.499 . S
C1183 H1157 0.950 . S
C1183 C1182 1.414 . S
C1183 C1184 1.374 . S
C1184 H1158 0.950 . S
C1184 C1180 1.385 . S
C1184 C1183 1.374 . S
C1185 C1182 1.499 . S
C1185 C1186 1.373 . S
C1185 C1187 1.389 1_545 S
C1186 H1159 0.950 . S
C1186 C1172 1.377 1_455 S
C1186 C1185 1.373 . S
C1187 C1171 1.377 1_455 S
C1187 C1185 1.389 1_565 S
C1187 C1188 1.524 . S
C1188 C1187 1.524 . S
C1188 C1189 1.397 1_565 S
C1188 C1193 1.363 . S
C1189 H1160 0.950 . S
C1189 C1188 1.397 1_545 S
C1189 C1190 1.334 . S
C1190 H1161 0.950 . S
C1190 C1189 1.334 . S
C1190 C1191 1.287 1_545 S
C1191 C1190 1.287 1_565 S
C1191 C1192 1.524 . S
C1191 H1194 0.999 . S
C1192 H1162 0.950 . S
C1192 C1191 1.524 . S
C1192 C1193 1.415 . S
C1193 H1163 0.950 . S
C1193 C1188 1.363 . S
C1193 C1192 1.415 . S
H1194 C1191 0.999 . S
H1195 C1176 0.913 . S
H1196 C1214 0.951 . S
H1197 C1216 0.951 . S
H1198 C1218 0.970 . S
H1199 C1219 0.950 1_455 S
H1200 C1221 0.950 . S
H1201 C1224 0.950 . S
H1202 C1225 0.950 . S
H1203 C1227 0.950 . S
H1204 C1228 0.950 . S
H1205 C1229 0.951 . S
H1206 C1231 0.951 . S
H1207 C1233 0.970 . S
H1208 C1234 0.950 1_655 S
H1209 C1236 0.950 . S
H1210 C1239 0.950 . S
H1211 C1240 0.950 . S
H1212 C1242 0.950 . S
H1213 C1243 0.950 . S
C1214 H1196 0.951 . S
C1214 C1215 1.366 . S
C1214 C1216 1.388 . S
C1215 C1214 1.366 . S
C1215 C1219 1.385 . S
C1216 H1197 0.951 . S
C1216 C1214 1.388 . S
C1216 C1217 1.366 . S
C1217 C1216 1.366 . S
C1217 C1218 1.389 1_655 S
C1217 C1220 1.499 . S
C1218 H1198 0.970 . S
C1218 C1217 1.389 1_455 S
C1218 C1219 1.379 1_455 S
C1219 H1199 0.950 1_655 S
C1219 C1215 1.385 . S
C1219 C1218 1.379 1_655 S
C1220 C1217 1.499 . S
C1220 C1221 1.373 1_655 S
C1220 C1222 1.389 . S
C1221 H1200 0.950 . S
C1221 C1220 1.373 1_455 S
C1221 C1237 1.377 1_565 S
C1222 C1220 1.389 . S
C1222 C1223 1.524 . S
C1222 C1236 1.377 1_565 S
C1223 C1222 1.524 . S
C1223 C1224 1.397 . S
C1223 C1228 1.363 . S
C1224 H1201 0.950 . S
C1224 C1223 1.397 . S
C1224 C1225 1.334 . S
C1225 H1202 0.950 . S
C1225 C1224 1.334 . S
C1225 C1226 1.287 . S
C1226 C1225 1.287 . S
C1226 C1227 1.524 . S
C1226 H1245 0.913 . S
C1227 H1203 0.950 . S
C1227 C1226 1.524 . S
C1227 C1228 1.415 . S
C1228 H1204 0.950 . S
C1228 C1223 1.363 . S
C1228 C1227 1.415 . S
C1229 H1205 0.951 . S
C1229 C1230 1.366 . S
C1229 C1231 1.388 . S
C1230 C1229 1.366 . S
C1230 C1234 1.385 . S
C1231 H1206 0.951 . S
C1231 C1229 1.388 . S
C1231 C1232 1.366 . S
C1232 C1231 1.366 . S
C1232 C1233 1.389 1_455 S
C1232 C1235 1.499 . S
C1233 H1207 0.970 . S
C1233 C1232 1.389 1_655 S
C1233 C1234 1.379 1_655 S
C1234 H1208 0.950 1_455 S
C1234 C1230 1.385 . S
C1234 C1233 1.379 1_455 S
C1235 C1232 1.499 . S
C1235 C1236 1.373 1_455 S
C1235 C1237 1.389 . S
C1236 H1209 0.950 . S
C1236 C1222 1.377 1_545 S
C1236 C1235 1.373 1_655 S
C1237 C1221 1.377 1_545 S
C1237 C1235 1.389 . S
C1237 C1238 1.524 . S
C1238 C1237 1.524 . S
C1238 C1239 1.397 . S
C1238 C1243 1.363 . S
C1239 H1210 0.950 . S
C1239 C1238 1.397 . S
C1239 C1240 1.334 . S
C1240 H1211 0.950 . S
C1240 C1239 1.334 . S
C1240 C1241 1.287 . S
C1241 C1240 1.287 . S
C1241 C1242 1.524 . S
C1241 H1244 0.999 . S
C1242 H1212 0.950 . S
C1242 C1241 1.524 . S
C1242 C1243 1.415 . S
C1243 H1213 0.950 . S
C1243 C1238 1.363 . S
C1243 C1242 1.415 . S
H1244 C1241 0.999 . S
H1245 C1226 0.913 . S
H1246 C1264 0.951 1_565 S
H1247 C1266 0.945 1_565 S
H1248 C1268 0.950 . S
H1249 C1269 0.950 . S
H1250 C1271 0.950 . S
H1251 C1274 0.950 1_545 S
H1252 C1275 0.950 . S
H1253 C1277 0.950 . S
H1254 C1278 0.950 . S
H1255 C1279 0.951 1_545 S
H1256 C1281 0.945 1_545 S
H1257 C1283 0.950 . S
H1258 C1284 0.950 . S
H1259 C1286 0.950 . S
H1260 C1289 0.950 1_565 S
H1261 C1290 0.950 . S
H1262 C1292 0.950 . S
H1263 C1293 0.950 . S
C1264 H1246 0.951 1_545 S
C1264 C1265 1.366 . S
C1264 C1266 1.392 . S
C1265 C1264 1.366 . S
C1265 C1269 1.385 . S
C1266 H1247 0.945 1_545 S
C1266 C1264 1.392 . S
C1266 C1267 1.367 . S
C1267 C1266 1.367 . S
C1267 C1268 1.414 . S
C1267 C1270 1.499 . S
C1268 H1248 0.950 . S
C1268 C1267 1.414 . S
C1268 C1269 1.374 . S
C1269 H1249 0.950 . S
C1269 C1265 1.385 . S
C1269 C1268 1.374 . S
C1270 C1267 1.499 . S
C1270 C1271 1.373 1_655 S
C1270 C1272 1.389 1_545 S
C1271 H1250 0.950 . S
C1271 C1270 1.373 1_455 S
C1271 C1287 1.377 . S
C1272 C1270 1.389 1_565 S
C1272 C1273 1.524 . S
C1272 C1286 1.377 . S
C1273 C1272 1.524 . S
C1273 C1274 1.397 . S
C1273 C1278 1.363 . S
C1274 H1251 0.950 1_565 S
C1274 C1273 1.397 . S
C1274 C1275 1.334 . S
C1275 H1252 0.950 . S
C1275 C1274 1.334 . S
C1275 C1276 1.287 . S
C1276 C1275 1.287 . S
C1276 C1277 1.524 . S
C1276 H1295 0.913 . S
C1277 H1253 0.950 . S
C1277 C1276 1.524 . S
C1277 C1278 1.415 . S
C1278 H1254 0.950 . S
C1278 C1273 1.363 . S
C1278 C1277 1.415 . S
C1279 H1255 0.951 1_565 S
C1279 C1280 1.366 . S
C1279 C1281 1.392 . S
C1280 C1279 1.366 . S
C1280 C1284 1.385 . S
C1281 H1256 0.945 1_565 S
C1281 C1279 1.392 . S
C1281 C1282 1.367 . S
C1282 C1281 1.367 . S
C1282 C1283 1.414 . S
C1282 C1285 1.499 . S
C1283 H1257 0.950 . S
C1283 C1282 1.414 . S
C1283 C1284 1.374 . S
C1284 H1258 0.950 . S
C1284 C1280 1.385 . S
C1284 C1283 1.374 . S
C1285 C1282 1.499 . S
C1285 C1286 1.373 1_455 S
C1285 C1287 1.389 1_565 S
C1286 H1259 0.950 . S
C1286 C1272 1.377 . S
C1286 C1285 1.373 1_655 S
C1287 C1271 1.377 . S
C1287 C1285 1.389 1_545 S
C1287 C1288 1.524 . S
C1288 C1287 1.524 . S
C1288 C1289 1.397 . S
C1288 C1293 1.363 . S
C1289 H1260 0.950 1_545 S
C1289 C1288 1.397 . S
C1289 C1290 1.334 . S
C1290 H1261 0.950 . S
C1290 C1289 1.334 . S
C1290 C1291 1.287 . S
C1291 C1290 1.287 . S
C1291 C1292 1.524 . S
C1291 H1294 0.999 . S
C1292 H1262 0.950 . S
C1292 C1291 1.524 . S
C1292 C1293 1.415 . S
C1293 H1263 0.950 . S
C1293 C1288 1.363 . S
C1293 C1292 1.415 . S
H1294 C1291 0.999 . S
H1295 C1276 0.913 . S
H1296 C1314 0.951 . S
H1297 C1316 0.951 . S
H1298 C1318 0.950 . S
H1299 C1319 0.950 . S
H1300 C1321 0.950 . S
H1301 C1324 0.950 . S
H1302 C1325 0.950 . S
H1303 C1327 0.950 . S
H1304 C1328 0.950 . S
H1305 C1329 0.951 . S
H1306 C1331 0.951 . S
H1307 C1333 0.950 . S
H1308 C1334 0.950 . S
H1309 C1336 0.950 . S
H1310 C1339 0.950 . S
H1311 C1340 0.950 . S
H1312 C1342 0.950 . S
H1313 C1343 0.950 . S
C1314 H1296 0.951 . S
C1314 C1315 1.366 . S
C1314 C1316 1.388 . S
C1315 C1314 1.366 . S
C1315 C1319 1.385 . S
C1316 H1297 0.951 . S
C1316 C1314 1.388 . S
C1316 C1317 1.366 . S
C1317 C1316 1.366 . S
C1317 C1318 1.414 . S
C1317 C1320 1.499 . S
C1318 H1298 0.950 . S
C1318 C1317 1.414 . S
C1318 C1319 1.374 . S
C1319 H1299 0.950 . S
C1319 C1315 1.385 . S
C1319 C1318 1.374 . S
C1320 C1317 1.499 . S
C1320 C1321 1.373 1_655 S
C1320 C1322 1.389 . S
C1321 H1300 0.950 . S
C1321 C1320 1.373 1_455 S
C1321 C1337 1.377 . S
C1322 C1320 1.389 . S
C1322 C1323 1.524 . S
C1322 C1336 1.377 . S
C1323 C1322 1.524 . S
C1323 C1324 1.397 . S
C1323 C1328 1.363 . S
C1324 H1301 0.950 . S
C1324 C1323 1.397 . S
C1324 C1325 1.334 . S
C1325 H1302 0.950 . S
C1325 C1324 1.334 . S
C1325 C1326 1.287 . S
C1326 C1325 1.287 . S
C1326 C1327 1.524 . S
C1326 H1345 0.913 . S
C1327 H1303 0.950 . S
C1327 C1326 1.524 . S
C1327 C1328 1.415 . S
C1328 H1304 0.950 . S
C1328 C1323 1.363 . S
C1328 C1327 1.415 . S
C1329 H1305 0.951 . S
C1329 C1330 1.366 . S
C1329 C1331 1.388 . S
C1330 C1329 1.366 . S
C1330 C1334 1.385 . S
C1331 H1306 0.951 . S
C1331 C1329 1.388 . S
C1331 C1332 1.366 . S
C1332 C1331 1.366 . S
C1332 C1333 1.414 . S
C1332 C1335 1.499 . S
C1333 H1307 0.950 . S
C1333 C1332 1.414 . S
C1333 C1334 1.374 . S
C1334 H1308 0.950 . S
C1334 C1330 1.385 . S
C1334 C1333 1.374 . S
C1335 C1332 1.499 . S
C1335 C1336 1.373 1_455 S
C1335 C1337 1.389 . S
C1336 H1309 0.950 . S
C1336 C1322 1.377 . S
C1336 C1335 1.373 1_655 S
C1337 C1321 1.377 . S
C1337 C1335 1.389 . S
C1337 C1338 1.524 . S
C1338 C1337 1.524 . S
C1338 C1339 1.397 . S
C1338 C1343 1.363 . S
C1339 H1310 0.950 . S
C1339 C1338 1.397 . S
C1339 C1340 1.334 . S
C1340 H1311 0.950 . S
C1340 C1339 1.334 . S
C1340 C1341 1.287 . S
C1341 C1340 1.287 . S
C1341 C1342 1.524 . S
C1341 H1344 0.999 . S
C1342 H1312 0.950 . S
C1342 C1341 1.524 . S
C1342 C1343 1.415 . S
C1343 H1313 0.950 . S
C1343 C1338 1.363 . S
C1343 C1342 1.415 . S
H1344 C1341 0.999 . S
H1345 C1326 0.913 . S
H1346 C1364 0.951 . S
H1347 C1366 0.951 . S
H1348 C1368 0.950 . S
H1349 C1369 0.950 . S
H1350 C1371 0.950 . S
H1351 C1374 0.950 . S
H1352 C1375 0.950 . S
H1353 C1377 0.950 1_565 S
H1354 C1378 0.950 . S
H1355 C1379 0.951 . S
H1356 C1381 0.951 . S
H1357 C1383 0.950 . S
H1358 C1384 0.950 . S
H1359 C1386 0.950 . S
H1360 C1389 0.950 . S
H1361 C1390 0.950 . S
H1362 C1392 0.950 1_545 S
H1363 C1393 0.950 . S
C1364 H1346 0.951 . S
C1364 C1365 1.366 . S
C1364 C1366 1.388 . S
C1365 C1364 1.366 . S
C1365 C1369 1.385 . S
C1366 H1347 0.951 . S
C1366 C1364 1.388 . S
C1366 C1367 1.366 . S
C1367 C1366 1.366 . S
C1367 C1368 1.414 . S
C1367 C1370 1.499 . S
C1368 H1348 0.950 . S
C1368 C1367 1.414 . S
C1368 C1369 1.374 . S
C1369 H1349 0.950 . S
C1369 C1365 1.385 . S
C1369 C1368 1.374 . S
C1370 C1367 1.499 . S
C1370 C1371 1.373 . S
C1370 C1372 1.389 . S
C1371 H1350 0.950 . S
C1371 C1370 1.373 . S
C1371 C1387 1.377 1_545 S
C1372 C1370 1.389 . S
C1372 C1373 1.524 . S
C1372 C1386 1.377 1_545 S
C1373 C1372 1.524 . S
C1373 C1374 1.397 . S
C1373 C1378 1.363 1_545 S
C1374 H1351 0.950 . S
C1374 C1373 1.397 . S
C1374 C1375 1.334 . S
C1375 H1352 0.950 . S
C1375 C1374 1.334 . S
C1375 C1376 1.287 . S
C1376 C1375 1.287 . S
C1376 C1377 1.524 . S
C1376 H1395 0.913 . S
C1377 H1353 0.950 1_545 S
C1377 C1376 1.524 . S
C1377 C1378 1.415 1_545 S
C1378 H1354 0.950 . S
C1378 C1373 1.363 1_565 S
C1378 C1377 1.415 1_565 S
C1379 H1355 0.951 . S
C1379 C1380 1.366 . S
C1379 C1381 1.388 . S
C1380 C1379 1.366 . S
C1380 C1384 1.385 . S
C1381 H1356 0.951 . S
C1381 C1379 1.388 . S
C1381 C1382 1.366 . S
C1382 C1381 1.366 . S
C1382 C1383 1.414 . S
C1382 C1385 1.499 . S
C1383 H1357 0.950 . S
C1383 C1382 1.414 . S
C1383 C1384 1.374 . S
C1384 H1358 0.950 . S
C1384 C1380 1.385 . S
C1384 C1383 1.374 . S
C1385 C1382 1.499 . S
C1385 C1386 1.373 . S
C1385 C1387 1.389 . S
C1386 H1359 0.950 . S
C1386 C1372 1.377 1_565 S
C1386 C1385 1.373 . S
C1387 C1371 1.377 1_565 S
C1387 C1385 1.389 . S
C1387 C1388 1.524 . S
C1388 C1387 1.524 . S
C1388 C1389 1.397 . S
C1388 C1393 1.363 1_565 S
C1389 H1360 0.950 . S
C1389 C1388 1.397 . S
C1389 C1390 1.334 . S
C1390 H1361 0.950 . S
C1390 C1389 1.334 . S
C1390 C1391 1.287 . S
C1391 C1390 1.287 . S
C1391 C1392 1.524 . S
C1391 H1394 0.999 . S
C1392 H1362 0.950 1_565 S
C1392 C1391 1.524 . S
C1392 C1393 1.415 1_565 S
C1393 H1363 0.950 . S
C1393 C1388 1.363 1_545 S
C1393 C1392 1.415 1_545 S
H1394 C1391 0.999 . S
H1395 C1376 0.913 . S
H1396 C1414 0.951 . S
H1397 C1416 0.951 . S
H1398 C1418 0.950 . S
H1399 C1419 0.950 . S
H1400 C1421 0.950 . S
H1401 C1424 0.950 . S
H1402 C1425 0.950 . S
H1403 C1427 0.950 . S
H1404 C1428 0.950 . S
H1405 C1429 0.951 . S
H1406 C1431 0.951 . S
H1407 C1433 0.950 . S
H1408 C1434 0.950 . S
H1409 C1436 0.950 . S
H1410 C1439 0.950 . S
H1411 C1440 0.950 . S
H1412 C1442 0.950 . S
H1413 C1443 0.950 . S
C1414 H1396 0.951 . S
C1414 C1415 1.366 . S
C1414 C1416 1.388 . S
C1415 C1414 1.366 . S
C1415 C1419 1.385 . S
C1416 H1397 0.951 . S
C1416 C1414 1.388 . S
C1416 C1417 1.366 . S
C1417 C1416 1.366 . S
C1417 C1418 1.414 . S
C1417 C1420 1.499 . S
C1418 H1398 0.950 . S
C1418 C1417 1.414 . S
C1418 C1419 1.374 . S
C1419 H1399 0.950 . S
C1419 C1415 1.385 . S
C1419 C1418 1.374 . S
C1420 C1417 1.499 . S
C1420 C1421 1.373 . S
C1420 C1422 1.389 . S
C1421 H1400 0.950 . S
C1421 C1420 1.373 . S
C1421 C1437 1.377 . S
C1422 C1420 1.389 . S
C1422 C1423 1.524 . S
C1422 C1436 1.377 . S
C1423 C1422 1.524 . S
C1423 C1424 1.397 . S
C1423 C1428 1.363 . S
C1424 H1401 0.950 . S
C1424 C1423 1.397 . S
C1424 C1425 1.334 . S
C1425 H1402 0.950 . S
C1425 C1424 1.334 . S
C1425 C1426 1.287 . S
C1426 C1425 1.287 . S
C1426 C1427 1.524 . S
C1426 H1445 0.913 . S
C1427 H1403 0.950 . S
C1427 C1426 1.524 . S
C1427 C1428 1.415 . S
C1428 H1404 0.950 . S
C1428 C1423 1.363 . S
C1428 C1427 1.415 . S
C1429 H1405 0.951 . S
C1429 C1430 1.366 . S
C1429 C1431 1.388 . S
C1430 C1429 1.366 . S
C1430 C1434 1.385 . S
C1431 H1406 0.951 . S
C1431 C1429 1.388 . S
C1431 C1432 1.366 . S
C1432 C1431 1.366 . S
C1432 C1433 1.414 . S
C1432 C1435 1.499 . S
C1433 H1407 0.950 . S
C1433 C1432 1.414 . S
C1433 C1434 1.374 . S
C1434 H1408 0.950 . S
C1434 C1430 1.385 . S
C1434 C1433 1.374 . S
C1435 C1432 1.499 . S
C1435 C1436 1.373 . S
C1435 C1437 1.389 . S
C1436 H1409 0.950 . S
C1436 C1422 1.377 . S
C1436 C1435 1.373 . S
C1437 C1421 1.377 . S
C1437 C1435 1.389 . S
C1437 C1438 1.524 . S
C1438 C1437 1.524 . S
C1438 C1439 1.397 . S
C1438 C1443 1.363 . S
C1439 H1410 0.950 . S
C1439 C1438 1.397 . S
C1439 C1440 1.334 . S
C1440 H1411 0.950 . S
C1440 C1439 1.334 . S
C1440 C1441 1.287 . S
C1441 C1440 1.287 . S
C1441 C1442 1.524 . S
C1441 H1444 0.999 . S
C1442 H1412 0.950 . S
C1442 C1441 1.524 . S
C1442 C1443 1.415 . S
C1443 H1413 0.950 . S
C1443 C1438 1.363 . S
C1443 C1442 1.415 . S
H1444 C1441 0.999 . S
H1445 C1426 0.913 . S
H1446 C1464 0.951 . S
H1447 C1466 0.951 . S
H1448 C1468 0.950 . S
H1449 C1469 0.950 . S
H1450 C1471 0.950 . S
H1451 C1474 0.950 . S
H1452 C1475 0.950 . S
H1453 C1477 0.950 . S
H1454 C1478 0.954 . S
H1455 C1479 0.951 . S
H1456 C1481 0.951 . S
H1457 C1483 0.950 . S
H1458 C1484 0.950 . S
H1459 C1486 0.950 . S
H1460 C1489 0.950 . S
H1461 C1490 0.950 . S
H1462 C1492 0.950 . S
H1463 C1493 0.954 . S
C1464 H1446 0.951 . S
C1464 C1465 1.366 . S
C1464 C1466 1.388 . S
C1465 C1464 1.366 . S
C1465 C1469 1.385 . S
C1466 H1447 0.951 . S
C1466 C1464 1.388 . S
C1466 C1467 1.366 . S
C1467 C1466 1.366 . S
C1467 C1468 1.414 . S
C1467 C1470 1.499 . S
C1468 H1448 0.950 . S
C1468 C1467 1.414 . S
C1468 C1469 1.374 . S
C1469 H1449 0.950 . S
C1469 C1465 1.385 . S
C1469 C1468 1.374 . S
C1470 C1467 1.499 . S
C1470 C1471 1.373 . S
C1470 C1472 1.389 . S
C1471 H1450 0.950 . S
C1471 C1470 1.373 . S
C1471 C1487 1.377 1_455 S
C1472 C1470 1.389 . S
C1472 C1473 1.524 . S
C1472 C1486 1.377 1_455 S
C1473 C1472 1.524 . S
C1473 C1474 1.397 . S
C1473 C1478 1.362 1_455 S
C1474 H1451 0.950 . S
C1474 C1473 1.397 . S
C1474 C1475 1.334 . S
C1475 H1452 0.950 . S
C1475 C1474 1.334 . S
C1475 C1476 1.287 1_455 S
C1476 C1475 1.287 1_655 S
C1476 C1477 1.524 . S
C1476 H1495 0.913 . S
C1477 H1453 0.950 . S
C1477 C1476 1.524 . S
C1477 C1478 1.416 . S
C1478 H1454 0.954 . S
C1478 C1473 1.362 1_655 S
C1478 C1477 1.416 . S
C1479 H1455 0.951 . S
C1479 C1480 1.366 . S
C1479 C1481 1.388 . S
C1480 C1479 1.366 . S
C1480 C1484 1.385 . S
C1481 H1456 0.951 . S
C1481 C1479 1.388 . S
C1481 C1482 1.366 . S
C1482 C1481 1.366 . S
C1482 C1483 1.414 . S
C1482 C1485 1.499 . S
C1483 H1457 0.950 . S
C1483 C1482 1.414 . S
C1483 C1484 1.374 . S
C1484 H1458 0.950 . S
C1484 C1480 1.385 . S
C1484 C1483 1.374 . S
C1485 C1482 1.499 . S
C1485 C1486 1.373 . S
C1485 C1487 1.389 . S
C1486 H1459 0.950 . S
C1486 C1472 1.377 1_655 S
C1486 C1485 1.373 . S
C1487 C1471 1.377 1_655 S
C1487 C1485 1.389 . S
C1487 C1488 1.524 . S
C1488 C1487 1.524 . S
C1488 C1489 1.397 . S
C1488 C1493 1.362 1_655 S
C1489 H1460 0.950 . S
C1489 C1488 1.397 . S
C1489 C1490 1.334 . S
C1490 H1461 0.950 . S
C1490 C1489 1.334 . S
C1490 C1491 1.287 1_655 S
C1491 C1490 1.287 1_455 S
C1491 C1492 1.524 . S
C1491 H1494 0.999 . S
C1492 H1462 0.950 . S
C1492 C1491 1.524 . S
C1492 C1493 1.416 . S
C1493 H1463 0.954 . S
C1493 C1488 1.362 1_455 S
C1493 C1492 1.416 . S
H1494 C1491 0.999 . S
H1495 C1476 0.913 . S
H1496 C1514 0.951 . S
H1497 C1516 0.951 . S
H1498 C1518 0.950 . S
H1499 C1519 0.950 . S
H1500 C1521 0.950 . S
H1501 C1524 0.950 1_565 S
H1502 C1525 0.950 . S
H1503 C1527 0.950 . S
H1504 C1528 0.950 . S
H1505 C1529 0.951 . S
H1506 C1531 0.951 . S
H1507 C1533 0.950 . S
H1508 C1534 0.950 . S
H1509 C1536 0.950 . S
H1510 C1539 0.950 1_545 S
H1511 C1540 0.950 . S
H1512 C1542 0.950 . S
H1513 C1543 0.950 . S
C1514 H1496 0.951 . S
C1514 C1515 1.366 . S
C1514 C1516 1.388 . S
C1515 C1514 1.366 . S
C1515 C1519 1.385 . S
C1516 H1497 0.951 . S
C1516 C1514 1.388 . S
C1516 C1517 1.366 . S
C1517 C1516 1.366 . S
C1517 C1518 1.414 . S
C1517 C1520 1.499 . S
C1518 H1498 0.950 . S
C1518 C1517 1.414 . S
C1518 C1519 1.374 . S
C1519 H1499 0.950 . S
C1519 C1515 1.385 . S
C1519 C1518 1.374 . S
C1520 C1517 1.499 . S
C1520 C1521 1.373 . S
C1520 C1522 1.389 1_565 S
C1521 H1500 0.950 . S
C1521 C1520 1.373 . S
C1521 C1537 1.377 . S
C1522 C1520 1.389 1_545 S
C1522 C1523 1.524 . S
C1522 C1536 1.377 . S
C1523 C1522 1.524 . S
C1523 C1524 1.397 . S
C1523 C1528 1.363 . S
C1524 H1501 0.950 1_545 S
C1524 C1523 1.397 . S
C1524 C1525 1.334 . S
C1525 H1502 0.950 . S
C1525 C1524 1.334 . S
C1525 C1526 1.287 . S
C1526 C1525 1.287 . S
C1526 C1527 1.524 . S
C1526 H1545 0.913 . S
C1527 H1503 0.950 . S
C1527 C1526 1.524 . S
C1527 C1528 1.415 . S
C1528 H1504 0.950 . S
C1528 C1523 1.363 . S
C1528 C1527 1.415 . S
C1529 H1505 0.951 . S
C1529 C1530 1.366 . S
C1529 C1531 1.388 . S
C1530 C1529 1.366 . S
C1530 C1534 1.385 . S
C1531 H1506 0.951 . S
C1531 C1529 1.388 . S
C1531 C1532 1.366 . S
C1532 C1531 1.366 . S
C1532 C1533 1.414 . S
C1532 C1535 1.499 . S
C1533 H1507 0.950 . S
C1533 C1532 1.414 . S
C1533 C1534 1.374 . S
C1534 H1508 0.950 . S
C1534 C1530 1.385 . S
C1534 C1533 1.374 . S
C1535 C1532 1.499 . S
C1535 C1536 1.373 . S
C1535 C1537 1.389 1_545 S
C1536 H1509 0.950 . S
C1536 C1522 1.377 . S
C1536 C1535 1.373 . S
C1537 C1521 1.377 . S
C1537 C1535 1.389 1_565 S
C1537 C1538 1.524 . S
C1538 C1537 1.524 . S
C1538 C1539 1.397 . S
C1538 C1543 1.363 . S
C1539 H1510 0.950 1_565 S
C1539 C1538 1.397 . S
C1539 C1540 1.334 . S
C1540 H1511 0.950 . S
C1540 C1539 1.334 . S
C1540 C1541 1.287 . S
C1541 C1540 1.287 . S
C1541 C1542 1.524 . S
C1541 H1544 0.999 . S
C1542 H1512 0.950 . S
C1542 C1541 1.524 . S
C1542 C1543 1.415 . S
C1543 H1513 0.950 . S
C1543 C1538 1.363 . S
C1543 C1542 1.415 . S
H1544 C1541 0.999 . S
H1545 C1526 0.913 . S
H1546 C1564 0.951 . S
H1547 C1566 0.951 . S
H1548 C1568 0.950 . S
H1549 C1569 0.950 . S
H1550 C1571 0.950 . S
H1551 C1574 0.950 . S
H1552 C1575 0.950 . S
H1553 C1577 0.950 . S
H1554 C1578 0.950 . S
H1555 C1579 0.951 . S
H1556 C1581 0.951 . S
H1557 C1583 0.950 . S
H1558 C1584 0.950 . S
H1559 C1586 0.950 . S
H1560 C1589 0.950 . S
H1561 C1590 0.950 . S
H1562 C1592 0.950 . S
H1563 C1593 0.950 . S
C1564 H1546 0.951 . S
C1564 C1565 1.366 . S
C1564 C1566 1.388 . S
C1565 C1564 1.366 . S
C1565 C1569 1.385 . S
C1566 H1547 0.951 . S
C1566 C1564 1.388 . S
C1566 C1567 1.366 . S
C1567 C1566 1.366 . S
C1567 C1568 1.414 . S
C1567 C1570 1.499 . S
C1568 H1548 0.950 . S
C1568 C1567 1.414 . S
C1568 C1569 1.374 . S
C1569 H1549 0.950 . S
C1569 C1565 1.385 . S
C1569 C1568 1.374 . S
C1570 C1567 1.499 . S
C1570 C1571 1.373 . S
C1570 C1572 1.389 . S
C1571 H1550 0.950 . S
C1571 C1570 1.373 . S
C1571 C1587 1.377 . S
C1572 C1570 1.389 . S
C1572 C1573 1.524 . S
C1572 C1586 1.377 . S
C1573 C1572 1.524 . S
C1573 C1574 1.397 . S
C1573 C1578 1.363 . S
C1574 H1551 0.950 . S
C1574 C1573 1.397 . S
C1574 C1575 1.334 . S
C1575 H1552 0.950 . S
C1575 C1574 1.334 . S
C1575 C1576 1.287 . S
C1576 C1575 1.287 . S
C1576 C1577 1.524 . S
C1576 H1595 0.913 . S
C1577 H1553 0.950 . S
C1577 C1576 1.524 . S
C1577 C1578 1.415 . S
C1578 H1554 0.950 . S
C1578 C1573 1.363 . S
C1578 C1577 1.415 . S
C1579 H1555 0.951 . S
C1579 C1580 1.366 . S
C1579 C1581 1.388 . S
C1580 C1579 1.366 . S
C1580 C1584 1.385 . S
C1581 H1556 0.951 . S
C1581 C1579 1.388 . S
C1581 C1582 1.366 . S
C1582 C1581 1.366 . S
C1582 C1583 1.414 . S
C1582 C1585 1.499 . S
C1583 H1557 0.950 . S
C1583 C1582 1.414 . S
C1583 C1584 1.374 . S
C1584 H1558 0.950 . S
C1584 C1580 1.385 . S
C1584 C1583 1.374 . S
C1585 C1582 1.499 . S
C1585 C1586 1.373 . S
C1585 C1587 1.389 . S
C1586 H1559 0.950 . S
C1586 C1572 1.377 . S
C1586 C1585 1.373 . S
C1587 C1571 1.377 . S
C1587 C1585 1.389 . S
C1587 C1588 1.524 . S
C1588 C1587 1.524 . S
C1588 C1589 1.397 . S
C1588 C1593 1.363 . S
C1589 H1560 0.950 . S
C1589 C1588 1.397 . S
C1589 C1590 1.334 . S
C1590 H1561 0.950 . S
C1590 C1589 1.334 . S
C1590 C1591 1.287 . S
C1591 C1590 1.287 . S
C1591 C1592 1.524 . S
C1591 H1594 0.999 . S
C1592 H1562 0.950 . S
C1592 C1591 1.524 . S
C1592 C1593 1.415 . S
C1593 H1563 0.950 . S
C1593 C1588 1.363 . S
C1593 C1592 1.415 . S
H1594 C1591 0.999 . S
H1595 C1576 0.913 . S
H1596 C1614 0.951 . S
H1597 C1616 0.951 . S
H1598 C1618 0.950 . S
H1599 C1619 0.950 . S
H1600 C1621 0.950 . S
H1601 C1624 0.950 . S
H1602 C1625 0.950 . S
H1603 C1627 0.950 . S
H1604 C1628 0.950 . S
H1605 C1629 0.951 . S
H1606 C1631 0.951 . S
H1607 C1633 0.950 . S
H1608 C1634 0.950 1_565 S
H1609 C1636 0.950 . S
H1610 C1639 0.950 . S
H1611 C1640 0.942 1_565 S
H1612 C1642 0.950 . S
H1613 C1643 0.950 . S
C1614 H1596 0.951 . S
C1614 C1615 1.366 . S
C1614 C1616 1.388 . S
C1615 C1614 1.366 . S
C1615 C1619 1.385 . S
C1616 H1597 0.951 . S
C1616 C1614 1.388 . S
C1616 C1617 1.366 . S
C1617 C1616 1.366 . S
C1617 C1618 1.414 . S
C1617 C1620 1.499 . S
C1618 H1598 0.950 . S
C1618 C1617 1.414 . S
C1618 C1619 1.374 . S
C1619 H1599 0.950 . S
C1619 C1615 1.385 . S
C1619 C1618 1.374 . S
C1620 C1617 1.499 . S
C1620 C1621 1.373 . S
C1620 C1622 1.389 . S
C1621 H1600 0.950 . S
C1621 C1620 1.373 . S
C1621 C1637 1.377 . S
C1622 C1620 1.389 . S
C1622 C1623 1.524 . S
C1622 C1636 1.377 . S
C1623 C1622 1.524 . S
C1623 C1624 1.397 . S
C1623 C1628 1.363 . S
C1624 H1601 0.950 . S
C1624 C1623 1.397 . S
C1624 C1625 1.334 . S
C1625 H1602 0.950 . S
C1625 C1624 1.334 . S
C1625 C1626 1.287 . S
C1626 C1625 1.287 . S
C1626 C1627 1.524 . S
C1626 H1645 0.913 . S
C1627 H1603 0.950 . S
C1627 C1626 1.524 . S
C1627 C1628 1.415 . S
C1628 H1604 0.950 . S
C1628 C1623 1.363 . S
C1628 C1627 1.415 . S
C1629 H1605 0.951 . S
C1629 C1630 1.366 . S
C1629 C1631 1.388 . S
C1630 C1629 1.366 . S
C1630 C1634 1.385 . S
C1631 H1606 0.951 . S
C1631 C1629 1.388 . S
C1631 C1632 1.366 . S
C1632 C1631 1.366 . S
C1632 C1633 1.414 . S
C1632 C1635 1.499 . S
C1633 H1607 0.950 . S
C1633 C1632 1.414 . S
C1633 C1634 1.374 . S
C1634 H1608 0.950 1_545 S
C1634 C1630 1.385 . S
C1634 C1633 1.374 . S
C1635 C1632 1.499 . S
C1635 C1636 1.373 . S
C1635 C1637 1.389 . S
C1636 H1609 0.950 . S
C1636 C1622 1.377 . S
C1636 C1635 1.373 . S
C1637 C1621 1.377 . S
C1637 C1635 1.389 . S
C1637 C1638 1.524 . S
C1638 C1637 1.524 . S
C1638 C1639 1.397 . S
C1638 C1643 1.363 . S
C1639 H1610 0.950 . S
C1639 C1638 1.397 . S
C1639 C1640 1.337 . S
C1640 H1611 0.942 1_545 S
C1640 C1639 1.337 . S
C1640 C1641 1.293 . S
C1641 C1640 1.293 . S
C1641 C1642 1.524 . S
C1641 H1644 0.999 1_545 S
C1642 H1612 0.950 . S
C1642 C1641 1.524 . S
C1642 C1643 1.415 . S
C1643 H1613 0.950 . S
C1643 C1638 1.363 . S
C1643 C1642 1.415 . S
H1644 C1641 0.999 1_565 S
H1645 C1626 0.913 . S
H1646 C1664 0.951 . S
H1647 C1666 0.951 . S
H1648 C1668 0.950 . S
H1649 C1669 0.950 . S
H1650 C1671 0.950 . S
H1651 C1674 0.950 . S
H1652 C1675 0.950 . S
H1653 C1677 0.950 . S
H1654 C1678 0.950 . S
H1655 C1679 0.951 . S
H1656 C1681 0.951 . S
H1657 C1683 0.950 . S
H1658 C1684 0.950 . S
H1659 C1686 0.950 . S
H1660 C1689 0.950 . S
H1661 C1690 0.950 . S
H1662 C1692 0.950 . S
H1663 C1693 0.950 . S
C1664 H1646 0.951 . S
C1664 C1665 1.366 . S
C1664 C1666 1.388 . S
C1665 C1664 1.366 . S
C1665 C1669 1.385 1_455 S
C1666 H1647 0.951 . S
C1666 C1664 1.388 . S
C1666 C1667 1.366 . S
C1667 C1666 1.366 . S
C1667 C1668 1.414 . S
C1667 C1670 1.499 . S
C1668 H1648 0.950 . S
C1668 C1667 1.414 . S
C1668 C1669 1.374 1_455 S
C1669 H1649 0.950 . S
C1669 C1665 1.385 1_655 S
C1669 C1668 1.374 1_655 S
C1670 C1667 1.499 . S
C1670 C1671 1.373 . S
C1670 C1672 1.389 . S
C1671 H1650 0.950 . S
C1671 C1670 1.373 . S
C1671 C1687 1.377 . S
C1672 C1670 1.389 . S
C1672 C1673 1.524 . S
C1672 C1686 1.377 . S
C1673 C1672 1.524 . S
C1673 C1674 1.397 . S
C1673 C1678 1.363 . S
C1674 H1651 0.950 . S
C1674 C1673 1.397 . S
C1674 C1675 1.334 . S
C1675 H1652 0.950 . S
C1675 C1674 1.334 . S
C1675 C1676 1.287 . S
C1676 C1675 1.287 . S
C1676 C1677 1.524 . S
C1676 H1695 0.913 . S
C1677 H1653 0.950 . S
C1677 C1676 1.524 . S
C1677 C1678 1.415 . S
C1678 H1654 0.950 . S
C1678 C1673 1.363 . S
C1678 C1677 1.415 . S
C1679 H1655 0.951 . S
C1679 C1680 1.366 . S
C1679 C1681 1.388 . S
C1680 C1679 1.366 . S
C1680 C1684 1.385 . S
C1681 H1656 0.951 . S
C1681 C1679 1.388 . S
C1681 C1682 1.366 . S
C1682 C1681 1.366 . S
C1682 C1683 1.414 . S
C1682 C1685 1.499 . S
C1683 H1657 0.950 . S
C1683 C1682 1.414 . S
C1683 C1684 1.374 . S
C1684 H1658 0.950 . S
C1684 C1680 1.385 . S
C1684 C1683 1.374 . S
C1685 C1682 1.499 . S
C1685 C1686 1.373 . S
C1685 C1687 1.389 . S
C1686 H1659 0.950 . S
C1686 C1672 1.377 . S
C1686 C1685 1.373 . S
C1687 C1671 1.377 . S
C1687 C1685 1.389 . S
C1687 C1688 1.524 . S
C1688 C1687 1.524 . S
C1688 C1689 1.397 . S
C1688 C1693 1.363 . S
C1689 H1660 0.950 . S
C1689 C1688 1.397 . S
C1689 C1690 1.334 . S
C1690 H1661 0.950 . S
C1690 C1689 1.334 . S
C1690 C1691 1.287 . S
C1691 C1690 1.287 . S
C1691 C1692 1.524 . S
C1691 H1694 0.999 . S
C1692 H1662 0.950 . S
C1692 C1691 1.524 . S
C1692 C1693 1.415 . S
C1693 H1663 0.950 . S
C1693 C1688 1.363 . S
C1693 C1692 1.415 . S
H1694 C1691 0.999 . S
H1695 C1676 0.913 . S
H1696 C1714 0.951 . S
H1697 C1716 0.951 . S
H1698 C1718 0.950 . S
H1699 C1719 0.950 1_455 S
H1700 C1721 0.950 . S
H1701 C1724 0.950 . S
H1702 C1725 0.950 . S
H1703 C1727 0.950 . S
H1704 C1728 0.950 . S
H1705 C1729 0.951 . S
H1706 C1731 0.951 . S
H1707 C1733 0.950 . S
H1708 C1734 0.950 . S
H1709 C1736 0.950 . S
H1710 C1739 0.950 . S
H1711 C1740 0.950 . S
H1712 C1742 0.950 . S
H1713 C1743 0.950 . S
C1714 H1696 0.951 . S
C1714 C1715 1.366 . S
C1714 C1716 1.388 . S
C1715 C1714 1.366 . S
C1715 C1719 1.385 . S
C1716 H1697 0.951 . S
C1716 C1714 1.388 . S
C1716 C1717 1.366 . S
C1717 C1716 1.366 . S
C1717 C1718 1.414 . S
C1717 C1720 1.499 . S
C1718 H1698 0.950 . S
C1718 C1717 1.414 . S
C1718 C1719 1.374 . S
C1719 H1699 0.950 1_655 S
C1719 C1715 1.385 . S
C1719 C1718 1.374 . S
C1720 C1717 1.499 . S
C1720 C1721 1.373 . S
C1720 C1722 1.389 . S
C1721 H1700 0.950 . S
C1721 C1720 1.373 . S
C1721 C1737 1.377 . S
C1722 C1720 1.389 . S
C1722 C1723 1.524 . S
C1722 C1736 1.377 . S
C1723 C1722 1.524 . S
C1723 C1724 1.397 . S
C1723 C1728 1.363 . S
C1724 H1701 0.950 . S
C1724 C1723 1.397 . S
C1724 C1725 1.334 . S
C1725 H1702 0.950 . S
C1725 C1724 1.334 . S
C1725 C1726 1.287 . S
C1726 C1725 1.287 . S
C1726 C1727 1.524 . S
C1726 H1745 0.913 . S
C1727 H1703 0.950 . S
C1727 C1726 1.524 . S
C1727 C1728 1.415 . S
C1728 H1704 0.950 . S
C1728 C1723 1.363 . S
C1728 C1727 1.415 . S
C1729 H1705 0.951 . S
C1729 C1730 1.366 . S
C1729 C1731 1.388 . S
C1730 C1729 1.366 . S
C1730 C1734 1.385 1_545 S
C1731 H1706 0.951 . S
C1731 C1729 1.388 . S
C1731 C1732 1.366 . S
C1732 C1731 1.366 . S
C1732 C1733 1.414 . S
C1732 C1735 1.499 . S
C1733 H1707 0.950 . S
C1733 C1732 1.414 . S
C1733 C1734 1.374 1_545 S
C1734 H1708 0.950 . S
C1734 C1730 1.385 1_565 S
C1734 C1733 1.374 1_565 S
C1735 C1732 1.499 . S
C1735 C1736 1.373 . S
C1735 C1737 1.389 . S
C1736 H1709 0.950 . S
C1736 C1722 1.377 . S
C1736 C1735 1.373 . S
C1737 C1721 1.377 . S
C1737 C1735 1.389 . S
C1737 C1738 1.524 . S
C1738 C1737 1.524 . S
C1738 C1739 1.397 . S
C1738 C1743 1.363 . S
C1739 H1710 0.950 . S
C1739 C1738 1.397 . S
C1739 C1740 1.334 . S
C1740 H1711 0.950 . S
C1740 C1739 1.334 . S
C1740 C1741 1.287 . S
C1741 C1740 1.287 . S
C1741 C1742 1.524 . S
C1741 H1744 0.999 . S
C1742 H1712 0.950 . S
C1742 C1741 1.524 . S
C1742 C1743 1.415 . S
C1743 H1713 0.950 . S
C1743 C1738 1.363 . S
C1743 C1742 1.415 . S
H1744 C1741 0.999 . S
H1745 C1726 0.913 . S
H1746 C1764 0.951 . S
H1747 C1766 0.951 . S
H1748 C1768 0.950 . S
H1749 C1769 0.950 . S
H1750 C1771 0.950 . S
H1751 C1774 0.950 . S
H1752 C1775 0.950 . S
H1753 C1777 0.950 . S
H1754 C1778 0.950 . S
H1755 C1779 0.956 . S
H1756 C1781 0.951 . S
H1757 C1783 0.950 . S
H1758 C1784 0.950 . S
H1759 C1786 0.950 . S
H1760 C1789 0.950 . S
H1761 C1790 0.950 . S
H1762 C1792 0.950 . S
H1763 C1793 0.950 . S
C1764 H1746 0.951 . S
C1764 C1765 1.366 . S
C1764 C1766 1.388 . S
C1765 C1764 1.366 . S
C1765 C1769 1.385 . S
C1766 H1747 0.951 . S
C1766 C1764 1.388 . S
C1766 C1767 1.366 . S
C1767 C1766 1.366 . S
C1767 C1768 1.414 . S
C1767 C1770 1.499 . S
C1768 H1748 0.950 . S
C1768 C1767 1.414 . S
C1768 C1769 1.374 . S
C1769 H1749 0.950 . S
C1769 C1765 1.385 . S
C1769 C1768 1.374 . S
C1770 C1767 1.499 . S
C1770 C1771 1.373 . S
C1770 C1772 1.389 . S
C1771 H1750 0.950 . S
C1771 C1770 1.373 . S
C1771 C1787 1.377 . S
C1772 C1770 1.389 . S
C1772 C1773 1.524 . S
C1772 C1786 1.377 . S
C1773 C1772 1.524 . S
C1773 C1774 1.397 . S
C1773 C1778 1.363 . S
C1774 H1751 0.950 . S
C1774 C1773 1.397 . S
C1774 C1775 1.334 . S
C1775 H1752 0.950 . S
C1775 C1774 1.334 . S
C1775 C1776 1.287 . S
C1776 C1775 1.287 . S
C1776 C1777 1.524 . S
C1776 H1795 0.913 . S
C1777 H1753 0.950 . S
C1777 C1776 1.524 . S
C1777 C1778 1.415 . S
C1778 H1754 0.950 . S
C1778 C1773 1.363 . S
C1778 C1777 1.415 . S
C1779 H1755 0.956 . S
C1779 C1780 1.369 1_545 S
C1779 C1781 1.380 1_545 S
C1780 C1779 1.369 1_565 S
C1780 C1784 1.385 . S
C1781 H1756 0.951 . S
C1781 C1779 1.380 1_565 S
C1781 C1782 1.366 . S
C1782 C1781 1.366 . S
C1782 C1783 1.414 . S
C1782 C1785 1.499 . S
C1783 H1757 0.950 . S
C1783 C1782 1.414 . S
C1783 C1784 1.374 . S
C1784 H1758 0.950 . S
C1784 C1780 1.385 . S
C1784 C1783 1.374 . S
C1785 C1782 1.499 . S
C1785 C1786 1.373 . S
C1785 C1787 1.389 . S
C1786 H1759 0.950 . S
C1786 C1772 1.377 . S
C1786 C1785 1.373 . S
C1787 C1771 1.377 . S
C1787 C1785 1.389 . S
C1787 C1788 1.524 . S
C1788 C1787 1.524 . S
C1788 C1789 1.397 . S
C1788 C1793 1.363 . S
C1789 H1760 0.950 . S
C1789 C1788 1.397 . S
C1789 C1790 1.334 1_565 S
C1790 H1761 0.950 . S
C1790 C1789 1.334 1_545 S
C1790 C1791 1.287 . S
C1791 C1790 1.287 . S
C1791 C1792 1.524 . S
C1791 H1794 0.999 . S
C1792 H1762 0.950 . S
C1792 C1791 1.524 . S
C1792 C1793 1.415 1_545 S
C1793 H1763 0.950 . S
C1793 C1788 1.363 . S
C1793 C1792 1.415 1_565 S
H1794 C1791 0.999 . S
H1795 C1776 0.913 . S
H1796 C1814 0.951 . S
H1797 C1816 0.951 . S
H1798 C1818 0.950 . S
H1799 C1819 0.950 . S
H1800 C1821 0.950 . S
H1801 C1824 0.950 . S
H1802 C1825 0.950 . S
H1803 C1827 0.950 . S
H1804 C1828 0.950 . S
H1805 C1829 0.951 . S
H1806 C1831 0.951 . S
H1807 C1833 0.950 . S
H1808 C1834 0.950 . S
H1809 C1836 0.950 . S
H1810 C1839 0.950 . S
H1811 C1840 0.950 . S
H1812 C1842 0.950 . S
H1813 C1843 0.950 . S
C1814 H1796 0.951 . S
C1814 C1815 1.366 . S
C1814 C1816 1.388 . S
C1815 C1814 1.366 . S
C1815 C1819 1.385 . S
C1816 H1797 0.951 . S
C1816 C1814 1.388 . S
C1816 C1817 1.366 . S
C1817 C1816 1.366 . S
C1817 C1818 1.414 . S
C1817 C1820 1.499 . S
C1818 H1798 0.950 . S
C1818 C1817 1.414 . S
C1818 C1819 1.374 . S
C1819 H1799 0.950 . S
C1819 C1815 1.385 . S
C1819 C1818 1.374 . S
C1820 C1817 1.499 . S
C1820 C1821 1.373 . S
C1820 C1822 1.389 . S
C1821 H1800 0.950 . S
C1821 C1820 1.373 . S
C1821 C1837 1.377 . S
C1822 C1820 1.389 . S
C1822 C1823 1.524 . S
C1822 C1836 1.377 . S
C1823 C1822 1.524 . S
C1823 C1824 1.397 . S
C1823 C1828 1.363 . S
C1824 H1801 0.950 . S
C1824 C1823 1.397 . S
C1824 C1825 1.334 . S
C1825 H1802 0.950 . S
C1825 C1824 1.334 . S
C1825 C1826 1.287 . S
C1826 C1825 1.287 . S
C1826 C1827 1.524 . S
C1826 H1845 0.913 . S
C1827 H1803 0.950 . S
C1827 C1826 1.524 . S
C1827 C1828 1.415 . S
C1828 H1804 0.950 . S
C1828 C1823 1.363 . S
C1828 C1827 1.415 . S
C1829 H1805 0.951 . S
C1829 C1830 1.366 . S
C1829 C1831 1.388 . S
C1830 C1829 1.366 . S
C1830 C1834 1.385 1_655 S
C1831 H1806 0.951 . S
C1831 C1829 1.388 . S
C1831 C1832 1.366 . S
C1832 C1831 1.366 . S
C1832 C1833 1.414 . S
C1832 C1835 1.499 . S
C1833 H1807 0.950 . S
C1833 C1832 1.414 . S
C1833 C1834 1.374 1_655 S
C1834 H1808 0.950 . S
C1834 C1830 1.385 1_455 S
C1834 C1833 1.374 1_455 S
C1835 C1832 1.499 . S
C1835 C1836 1.373 . S
C1835 C1837 1.389 . S
C1836 H1809 0.950 . S
C1836 C1822 1.377 . S
C1836 C1835 1.373 . S
C1837 C1821 1.377 . S
C1837 C1835 1.389 . S
C1837 C1838 1.524 . S
C1838 C1837 1.524 . S
C1838 C1839 1.397 . S
C1838 C1843 1.363 . S
C1839 H1810 0.950 . S
C1839 C1838 1.397 . S
C1839 C1840 1.334 . S
C1840 H1811 0.950 . S
C1840 C1839 1.334 . S
C1840 C1841 1.287 . S
C1841 C1840 1.287 . S
C1841 C1842 1.524 . S
C1841 H1844 0.999 . S
C1842 H1812 0.950 . S
C1842 C1841 1.524 . S
C1842 C1843 1.415 . S
C1843 H1813 0.950 . S
C1843 C1838 1.363 . S
C1843 C1842 1.415 . S
H1844 C1841 0.999 . S
H1845 C1826 0.913 . S
H1846 C1864 0.951 1_545 S
H1847 C1866 0.951 . S
H1848 C1868 0.950 . S
H1849 C1869 0.950 . S
H1850 C1871 0.950 . S
H1851 C1874 0.950 . S
H1852 C1875 0.950 . S
H1853 C1877 0.950 . S
H1854 C1878 0.950 . S
H1855 C1879 0.951 1_655 S
H1856 C1881 0.951 . S
H1857 C1883 0.950 . S
H1858 C1884 0.950 . S
H1859 C1886 0.950 . S
H1860 C1889 0.950 . S
H1861 C1890 0.950 . S
H1862 C1892 0.950 . S
H1863 C1893 0.950 . S
C1864 H1846 0.951 1_565 S
C1864 C1865 1.366 . S
C1864 C1866 1.388 . S
C1865 C1864 1.366 . S
C1865 C1869 1.385 . S
C1866 H1847 0.951 . S
C1866 C1864 1.388 . S
C1866 C1867 1.366 . S
C1867 C1866 1.366 . S
C1867 C1868 1.414 . S
C1867 C1870 1.499 . S
C1868 H1848 0.950 . S
C1868 C1867 1.414 . S
C1868 C1869 1.374 . S
C1869 H1849 0.950 . S
C1869 C1865 1.385 . S
C1869 C1868 1.374 . S
C1870 C1867 1.499 . S
C1870 C1871 1.373 . S
C1870 C1872 1.389 . S
C1871 H1850 0.950 . S
C1871 C1870 1.373 . S
C1871 C1887 1.377 . S
C1872 C1870 1.389 . S
C1872 C1873 1.524 . S
C1872 C1886 1.377 . S
C1873 C1872 1.524 . S
C1873 C1874 1.397 . S
C1873 C1878 1.363 . S
C1874 H1851 0.950 . S
C1874 C1873 1.397 . S
C1874 C1875 1.334 1_565 S
C1875 H1852 0.950 . S
C1875 C1874 1.334 1_545 S
C1875 C1876 1.287 . S
C1876 C1875 1.287 . S
C1876 C1877 1.524 . S
C1876 H1895 0.913 . S
C1877 H1853 0.950 . S
C1877 C1876 1.524 . S
C1877 C1878 1.415 1_545 S
C1878 H1854 0.950 . S
C1878 C1873 1.363 . S
C1878 C1877 1.415 1_565 S
C1879 H1855 0.951 1_455 S
C1879 C1880 1.366 . S
C1879 C1881 1.388 . S
C1880 C1879 1.366 . S
C1880 C1884 1.385 . S
C1881 H1856 0.951 . S
C1881 C1879 1.388 . S
C1881 C1882 1.366 . S
C1882 C1881 1.366 . S
C1882 C1883 1.414 . S
C1882 C1885 1.499 . S
C1883 H1857 0.950 . S
C1883 C1882 1.414 . S
C1883 C1884 1.374 . S
C1884 H1858 0.950 . S
C1884 C1880 1.385 . S
C1884 C1883 1.374 . S
C1885 C1882 1.499 . S
C1885 C1886 1.373 . S
C1885 C1887 1.389 . S
C1886 H1859 0.950 . S
C1886 C1872 1.377 . S
C1886 C1885 1.373 . S
C1887 C1871 1.377 . S
C1887 C1885 1.389 . S
C1887 C1888 1.524 . S
C1888 C1887 1.524 . S
C1888 C1889 1.397 . S
C1888 C1893 1.363 . S
C1889 H1860 0.950 . S
C1889 C1888 1.397 . S
C1889 C1890 1.334 . S
C1890 H1861 0.950 . S
C1890 C1889 1.334 . S
C1890 C1891 1.287 . S
C1891 C1890 1.287 . S
C1891 C1892 1.524 . S
C1891 H1894 0.999 . S
C1892 H1862 0.950 . S
C1892 C1891 1.524 . S
C1892 C1893 1.415 . S
C1893 H1863 0.950 . S
C1893 C1888 1.363 . S
C1893 C1892 1.415 . S
H1894 C1891 0.999 . S
H1895 C1876 0.913 . S
C415 N112 1.396 . S
C430 N13 1.397 . S
C465 N145 1.396 . S
C480 N46 1.397 . S
C515 N178 1.398 . S
C530 N79 1.397 . S
C565 N211 1.396 . S
C580 N310 1.397 . S
C615 N244 1.397 . S
C630 N343 1.398 . S
C665 N277 1.397 . S
C680 N376 1.397 . S
C715 C315 1.867 . S
C730 C18 1.867 . S
C765 C51 1.867 . S
C780 C348 1.867 . S
C815 C381 1.866 . S
C830 C84 1.867 . S
C865 C216 1.866 . S
C880 C117 1.867 . S
C915 C150 1.867 . S
C930 C249 1.866 . S
C965 C183 1.867 . S
C980 C282 1.867 . S
C1015 N2 0.357 . S
C1030 N101 0.360 . S
C1065 N35 0.357 . S
C1080 N134 0.359 . S
C1115 N167 0.359 . S
C1130 N68 0.359 . S
C1165 N200 0.360 . S
C1180 N299 0.357 . S
C1215 N233 0.360 . S
C1230 N332 0.357 . S
C1265 N365 0.357 . S
C1280 N266 0.360 . S
C1315 C384 0.597 . S
C1330 C21 0.598 . S
C1365 C54 0.599 . S
C1380 C219 0.596 . S
C1415 C252 0.599 . S
C1430 C87 0.596 . S
C1465 C285 0.596 . S
C1480 C120 0.599 . S
C1515 C153 0.597 . S
C1530 C318 0.597 . S
C1565 C186 0.599 . S
C1580 C351 0.596 . S
C1615 C7 0.657 . S
C1630 C271 0.660 1_545 S
C1665 C40 0.657 1_455 S
C1680 C304 0.660 . S
C1715 C337 0.658 1_655 S
C1730 C73 0.660 1_545 S
C1765 C106 0.658 . S
C1780 C370 0.659 1_565 S
C1815 C205 0.658 . S
C1830 C139 0.660 1_655 S
C1865 C172 0.660 1_565 S
C1880 C238 0.658 1_455 S
