# Generated by pormake.
# Topology ato, (4)-cn, num edge types: 1
# Building blocks:
#     Node 0, Type 0, BuildingBlock: CEKHIL_clean_sbu_0, # of connection points: 4
#     Node 1, Type 0, BuildingBlock: CEKHIL_clean_sbu_0, # of connection points: 4
#     Node 2, Type 0, BuildingBlock: CEKHIL_clean_sbu_0, # of connection points: 4
#     Node 3, Type 0, BuildingBlock: CEKHIL_clean_sbu_0, # of connection points: 4
#     Node 4, Type 0, BuildingBlock: CEKHIL_clean_sbu_0, # of connection points: 4
#     Node 5, Type 0, BuildingBlock: CEKHIL_clean_sbu_0, # of connection points: 4
#     Node 6, Type 0, BuildingBlock: CEKHIL_clean_sbu_0, # of connection points: 4
#     Node 7, Type 0, BuildingBlock: CEKHIL_clean_sbu_0, # of connection points: 4
#     Node 8, Type 0, BuildingBlock: CEKHIL_clean_sbu_0, # of connection points: 4
#     Node 9, Type 0, BuildingBlock: CEKHIL_clean_sbu_0, # of connection points: 4
#     Node 10, Type 0, BuildingBlock: CEKHIL_clean_sbu_0, # of connection points: 4
#     Node 11, Type 0, BuildingBlock: CEKHIL_clean_sbu_0, # of connection points: 4
#     Node 12, Type 0, BuildingBlock: CEKHIL_clean_sbu_0, # of connection points: 4
#     Node 13, Type 0, BuildingBlock: CEKHIL_clean_sbu_0, # of connection points: 4
#     Node 14, Type 0, BuildingBlock: CEKHIL_clean_sbu_0, # of connection points: 4
#     Node 15, Type 0, BuildingBlock: CEKHIL_clean_sbu_0, # of connection points: 4
#     Node 16, Type 0, BuildingBlock: CEKHIL_clean_sbu_0, # of connection points: 4
#     Node 17, Type 0, BuildingBlock: CEKHIL_clean_sbu_0, # of connection points: 4
#     Node 18, Type 0, BuildingBlock: CEKHIL_clean_sbu_0, # of connection points: 4
#     Node 19, Type 0, BuildingBlock: CEKHIL_clean_sbu_0, # of connection points: 4
#     Node 20, Type 0, BuildingBlock: CEKHIL_clean_sbu_0, # of connection points: 4
#     Node 21, Type 0, BuildingBlock: CEKHIL_clean_sbu_0, # of connection points: 4
#     Node 22, Type 0, BuildingBlock: CEKHIL_clean_sbu_0, # of connection points: 4
#     Node 23, Type 0, BuildingBlock: CEKHIL_clean_sbu_0, # of connection points: 4
#     Node 24, Type 0, BuildingBlock: CEKHIL_clean_sbu_0, # of connection points: 4
#     Node 25, Type 0, BuildingBlock: CEKHIL_clean_sbu_0, # of connection points: 4
#     Node 26, Type 0, BuildingBlock: CEKHIL_clean_sbu_0, # of connection points: 4
#     Node 27, Type 0, BuildingBlock: CEKHIL_clean_sbu_0, # of connection points: 4
#     Node 28, Type 0, BuildingBlock: CEKHIL_clean_sbu_0, # of connection points: 4
#     Node 29, Type 0, BuildingBlock: CEKHIL_clean_sbu_0, # of connection points: 4
#     Node 30, Type 0, BuildingBlock: CEKHIL_clean_sbu_0, # of connection points: 4
#     Node 31, Type 0, BuildingBlock: CEKHIL_clean_sbu_0, # of connection points: 4
#     Node 32, Type 0, BuildingBlock: CEKHIL_clean_sbu_0, # of connection points: 4
#     Node 33, Type 0, BuildingBlock: CEKHIL_clean_sbu_0, # of connection points: 4
#     Node 34, Type 0, BuildingBlock: CEKHIL_clean_sbu_0, # of connection points: 4
#     Node 35, Type 0, BuildingBlock: CEKHIL_clean_sbu_0, # of connection points: 4
#     Edge 36, Type (0, 0), BuildingBlock: EZIPEK_clean_linker_0, # of connection points: 2
#     Edge 37, Type (0, 0), BuildingBlock: EZIPEK_clean_linker_0, # of connection points: 2
#     Edge 38, Type (0, 0), BuildingBlock: EZIPEK_clean_linker_0, # of connection points: 2
#     Edge 39, Type (0, 0), BuildingBlock: EZIPEK_clean_linker_0, # of connection points: 2
#     Edge 40, Type (0, 0), BuildingBlock: EZIPEK_clean_linker_0, # of connection points: 2
#     Edge 41, Type (0, 0), BuildingBlock: EZIPEK_clean_linker_0, # of connection points: 2
#     Edge 42, Type (0, 0), BuildingBlock: EZIPEK_clean_linker_0, # of connection points: 2
#     Edge 43, Type (0, 0), BuildingBlock: EZIPEK_clean_linker_0, # of connection points: 2
#     Edge 44, Type (0, 0), BuildingBlock: EZIPEK_clean_linker_0, # of connection points: 2
#     Edge 45, Type (0, 0), BuildingBlock: EZIPEK_clean_linker_0, # of connection points: 2
#     Edge 46, Type (0, 0), BuildingBlock: EZIPEK_clean_linker_0, # of connection points: 2
#     Edge 47, Type (0, 0), BuildingBlock: EZIPEK_clean_linker_0, # of connection points: 2
#     Edge 48, Type (0, 0), BuildingBlock: EZIPEK_clean_linker_0, # of connection points: 2
#     Edge 49, Type (0, 0), BuildingBlock: EZIPEK_clean_linker_0, # of connection points: 2
#     Edge 50, Type (0, 0), BuildingBlock: EZIPEK_clean_linker_0, # of connection points: 2
#     Edge 51, Type (0, 0), BuildingBlock: EZIPEK_clean_linker_0, # of connection points: 2
#     Edge 52, Type (0, 0), BuildingBlock: EZIPEK_clean_linker_0, # of connection points: 2
#     Edge 53, Type (0, 0), BuildingBlock: EZIPEK_clean_linker_0, # of connection points: 2
#     Edge 54, Type (0, 0), BuildingBlock: EZIPEK_clean_linker_0, # of connection points: 2
#     Edge 55, Type (0, 0), BuildingBlock: EZIPEK_clean_linker_0, # of connection points: 2
#     Edge 56, Type (0, 0), BuildingBlock: EZIPEK_clean_linker_0, # of connection points: 2
#     Edge 57, Type (0, 0), BuildingBlock: EZIPEK_clean_linker_0, # of connection points: 2
#     Edge 58, Type (0, 0), BuildingBlock: EZIPEK_clean_linker_0, # of connection points: 2
#     Edge 59, Type (0, 0), BuildingBlock: EZIPEK_clean_linker_0, # of connection points: 2
#     Edge 60, Type (0, 0), BuildingBlock: EZIPEK_clean_linker_0, # of connection points: 2
#     Edge 61, Type (0, 0), BuildingBlock: EZIPEK_clean_linker_0, # of connection points: 2
#     Edge 62, Type (0, 0), BuildingBlock: EZIPEK_clean_linker_0, # of connection points: 2
#     Edge 63, Type (0, 0), BuildingBlock: EZIPEK_clean_linker_0, # of connection points: 2
#     Edge 64, Type (0, 0), BuildingBlock: EZIPEK_clean_linker_0, # of connection points: 2
#     Edge 65, Type (0, 0), BuildingBlock: EZIPEK_clean_linker_0, # of connection points: 2
#     Edge 66, Type (0, 0), BuildingBlock: EZIPEK_clean_linker_0, # of connection points: 2
#     Edge 67, Type (0, 0), BuildingBlock: EZIPEK_clean_linker_0, # of connection points: 2
#     Edge 68, Type (0, 0), BuildingBlock: EZIPEK_clean_linker_0, # of connection points: 2
#     Edge 69, Type (0, 0), BuildingBlock: EZIPEK_clean_linker_0, # of connection points: 2
#     Edge 70, Type (0, 0), BuildingBlock: EZIPEK_clean_linker_0, # of connection points: 2
#     Edge 71, Type (0, 0), BuildingBlock: EZIPEK_clean_linker_0, # of connection points: 2
#     Edge 72, Type (0, 0), BuildingBlock: EZIPEK_clean_linker_0, # of connection points: 2
#     Edge 73, Type (0, 0), BuildingBlock: EZIPEK_clean_linker_0, # of connection points: 2
#     Edge 74, Type (0, 0), BuildingBlock: EZIPEK_clean_linker_0, # of connection points: 2
#     Edge 75, Type (0, 0), BuildingBlock: EZIPEK_clean_linker_0, # of connection points: 2
#     Edge 76, Type (0, 0), BuildingBlock: EZIPEK_clean_linker_0, # of connection points: 2
#     Edge 77, Type (0, 0), BuildingBlock: EZIPEK_clean_linker_0, # of connection points: 2
#     Edge 78, Type (0, 0), BuildingBlock: EZIPEK_clean_linker_0, # of connection points: 2
#     Edge 79, Type (0, 0), BuildingBlock: EZIPEK_clean_linker_0, # of connection points: 2
#     Edge 80, Type (0, 0), BuildingBlock: EZIPEK_clean_linker_0, # of connection points: 2
#     Edge 81, Type (0, 0), BuildingBlock: EZIPEK_clean_linker_0, # of connection points: 2
#     Edge 82, Type (0, 0), BuildingBlock: EZIPEK_clean_linker_0, # of connection points: 2
#     Edge 83, Type (0, 0), BuildingBlock: EZIPEK_clean_linker_0, # of connection points: 2
#     Edge 84, Type (0, 0), BuildingBlock: EZIPEK_clean_linker_0, # of connection points: 2
#     Edge 85, Type (0, 0), BuildingBlock: EZIPEK_clean_linker_0, # of connection points: 2
#     Edge 86, Type (0, 0), BuildingBlock: EZIPEK_clean_linker_0, # of connection points: 2
#     Edge 87, Type (0, 0), BuildingBlock: EZIPEK_clean_linker_0, # of connection points: 2
#     Edge 88, Type (0, 0), BuildingBlock: EZIPEK_clean_linker_0, # of connection points: 2
#     Edge 89, Type (0, 0), BuildingBlock: EZIPEK_clean_linker_0, # of connection points: 2
#     Edge 90, Type (0, 0), BuildingBlock: EZIPEK_clean_linker_0, # of connection points: 2
#     Edge 91, Type (0, 0), BuildingBlock: EZIPEK_clean_linker_0, # of connection points: 2
#     Edge 92, Type (0, 0), BuildingBlock: EZIPEK_clean_linker_0, # of connection points: 2
#     Edge 93, Type (0, 0), BuildingBlock: EZIPEK_clean_linker_0, # of connection points: 2
#     Edge 94, Type (0, 0), BuildingBlock: EZIPEK_clean_linker_0, # of connection points: 2
#     Edge 95, Type (0, 0), BuildingBlock: EZIPEK_clean_linker_0, # of connection points: 2
#     Edge 96, Type (0, 0), BuildingBlock: EZIPEK_clean_linker_0, # of connection points: 2
#     Edge 97, Type (0, 0), BuildingBlock: EZIPEK_clean_linker_0, # of connection points: 2
#     Edge 98, Type (0, 0), BuildingBlock: EZIPEK_clean_linker_0, # of connection points: 2
#     Edge 99, Type (0, 0), BuildingBlock: EZIPEK_clean_linker_0, # of connection points: 2
#     Edge 100, Type (0, 0), BuildingBlock: EZIPEK_clean_linker_0, # of connection points: 2
#     Edge 101, Type (0, 0), BuildingBlock: EZIPEK_clean_linker_0, # of connection points: 2
#     Edge 102, Type (0, 0), BuildingBlock: EZIPEK_clean_linker_0, # of connection points: 2
#     Edge 103, Type (0, 0), BuildingBlock: EZIPEK_clean_linker_0, # of connection points: 2
#     Edge 104, Type (0, 0), BuildingBlock: EZIPEK_clean_linker_0, # of connection points: 2
#     Edge 105, Type (0, 0), BuildingBlock: EZIPEK_clean_linker_0, # of connection points: 2
#     Edge 106, Type (0, 0), BuildingBlock: EZIPEK_clean_linker_0, # of connection points: 2
#     Edge 107, Type (0, 0), BuildingBlock: EZIPEK_clean_linker_0, # of connection points: 2
# Relax obj value: 0.086
# Max RMSD: 0.097
# Mean RMSD: 0.097
data_MOF--net-ato--node1-CEKHIL_clean_sbu_0--edge1-EZIPEK_clean_linker_0
_symmetry_space_group_name_H-M    P1
_symmetry_Int_Tables_number       1
_symmetry_cell_setting            triclinic
loop_
_symmetry_equiv_pos_as_xyz
'x, y, z'
_cell_length_a     74.237615
_cell_length_b     74.355763
_cell_length_c     16.809148
_cell_angle_alpha  90.155132
_cell_angle_beta   90.032739
_cell_angle_gamma 119.9418
loop_
_atom_site_label
_atom_site_type_symbol
_atom_site_fract_x
_atom_site_fract_y
_atom_site_fract_z
_atom_type_partial_charge
Co0 Co 0.248 0.05579 0.30872 0.0
O1 O 0.22347 0.03738 0.36986 0.0
O2 O 0.25346 0.03779 0.37512 0.0
C3 C 0.24769 0.0856 0.33341 0.0
O4 O 0.277 0.07289 0.26094 0.0
Co5 Co 0.24618 0.07977 0.161 0.0
O6 O 0.2763 0.08976 0.15171 0.0
C7 C 0.23225 0.03544 0.14483 0.0
C8 C 0.23463 0.03026 0.40163 0.0
C9 C 0.28613 0.08504 0.20179 0.0
O10 O 0.23855 0.0351 0.21629 0.0
O11 O 0.2323 0.05123 0.11486 0.0
O12 O 0.25501 0.07813 0.38588 0.0
O13 O 0.2388 0.07385 0.27239 0.0
Co14 Co 0.9539 0.20092 0.28818 0.0
O15 O 0.97249 0.19439 0.347 0.0
O16 O 0.97124 0.22304 0.3611 0.0
C17 C 0.92431 0.16997 0.30761 0.0
O18 O 0.93744 0.21397 0.24366 0.0
Co19 Co 0.92913 0.17741 0.13802 0.0
O20 O 0.91421 0.19308 0.15282 0.0
C21 C 0.97428 0.20703 0.12532 0.0
C22 C 0.97925 0.21192 0.38453 0.0
C23 C 0.92187 0.20912 0.19727 0.0
O24 O 0.97493 0.21313 0.19795 0.0
O25 O 0.95801 0.19212 0.09324 0.0
O26 O 0.93113 0.18429 0.36215 0.0
O27 O 0.93611 0.17408 0.24602 0.0
Co28 Co 0.81056 0.75445 0.2857 0.0
O29 O 0.816 0.77936 0.34375 0.0
O30 O 0.78834 0.74879 0.35921 0.0
C31 C 0.84217 0.75705 0.30334 0.0
O32 O 0.79903 0.725 0.24212 0.0
Co33 Co 0.83428 0.75525 0.13239 0.0
O34 O 0.81565 0.72478 0.13086 0.0
C35 C 0.80324 0.76877 0.12464 0.0
C36 C 0.7987 0.76806 0.38177 0.0
C37 C 0.80173 0.7154 0.18348 0.0
O38 O 0.79701 0.76201 0.19592 0.0
O39 O 0.81907 0.76927 0.09232 0.0
O40 O 0.8283 0.74977 0.3593 0.0
O41 O 0.83737 0.76436 0.24229 0.0
Co42 Co 0.06467 0.25376 0.74632 0.0
O43 O 0.04391 0.22853 0.6933 0.0
O44 O 0.04782 0.2594 0.67437 0.0
C45 C 0.09277 0.24972 0.72542 0.0
O46 O 0.084 0.28361 0.78392 0.0
Co47 Co 0.08942 0.2543 0.89639 0.0
O48 O 0.10497 0.28483 0.88304 0.0
C49 C 0.04499 0.24151 0.91113 0.0
C50 C 0.03813 0.23992 0.65451 0.0
C51 C 0.09903 0.29374 0.83347 0.0
O52 O 0.04483 0.24778 0.83951 0.0
O53 O 0.06063 0.24119 0.9415 0.0
O54 O 0.08572 0.25654 0.66938 0.0
O55 O 0.08144 0.24363 0.78888 0.0
Co56 Co 0.75423 0.80897 0.74394 0.0
O57 O 0.77962 0.81462 0.68907 0.0
O58 O 0.74931 0.78669 0.67174 0.0
C59 C 0.75733 0.84062 0.72302 0.0
O60 O 0.72435 0.79674 0.78399 0.0
Co61 Co 0.7521 0.83284 0.8919 0.0
O62 O 0.72164 0.81753 0.8743 0.0
C63 C 0.76682 0.80258 0.90911 0.0
C64 C 0.76869 0.79724 0.6508 0.0
C65 C 0.71345 0.80164 0.8291 0.0
O66 O 0.76161 0.79623 0.83655 0.0
O67 O 0.76563 0.81778 0.93928 0.0
O68 O 0.74986 0.82644 0.66791 0.0
O69 O 0.76376 0.83581 0.78649 0.0
Co70 Co 0.19468 0.9465 0.75891 0.0
O71 O 0.18912 0.9659 0.70183 0.0
O72 O 0.21744 0.96343 0.68795 0.0
C73 C 0.1623 0.91843 0.73787 0.0
O74 O 0.20596 0.92809 0.8 0.0
Co75 Co 0.17083 0.92225 0.90805 0.0
O76 O 0.18589 0.90677 0.8969 0.0
C77 C 0.201 0.96685 0.92197 0.0
C78 C 0.2067 0.97197 0.66571 0.0
C79 C 0.20107 0.91301 0.84886 0.0
O80 O 0.20774 0.96711 0.85075 0.0
O81 O 0.18536 0.95102 0.95226 0.0
O82 O 0.17677 0.92438 0.68421 0.0
O83 O 0.16781 0.93001 0.80061 0.0
Co84 Co 0.76402 0.95218 0.72902 0.0
O85 O 0.78853 0.96964 0.6659 0.0
O86 O 0.75867 0.96939 0.65738 0.0
C87 C 0.76417 0.92198 0.71226 0.0
O88 O 0.73507 0.93593 0.77821 0.0
Co89 Co 0.76617 0.93048 0.88298 0.0
O90 O 0.73613 0.92094 0.8923 0.0
C91 C 0.78106 0.97505 0.88759 0.0
C92 C 0.77753 0.97659 0.63161 0.0
C93 C 0.72612 0.92481 0.83997 0.0
O94 O 0.77384 0.97418 0.81677 0.0
O95 O 0.78139 0.95981 0.92093 0.0
O96 O 0.75668 0.92867 0.65732 0.0
O97 O 0.77323 0.93461 0.7709 0.0
Co98 Co 0.05952 0.80377 0.73794 0.0
O99 O 0.04182 0.81192 0.68066 0.0
O100 O 0.04203 0.78268 0.66102 0.0
C101 C 0.08969 0.83518 0.72707 0.0
O102 O 0.0757 0.78972 0.77602 0.0
Co103 Co 0.08214 0.82313 0.89501 0.0
O104 O 0.09284 0.8035 0.89017 0.0
C105 C 0.03716 0.79636 0.8975 0.0
C106 C 0.03469 0.79462 0.64107 0.0
C107 C 0.08788 0.79081 0.83264 0.0
O108 O 0.03753 0.79037 0.82538 0.0
O109 O 0.05304 0.81088 0.93242 0.0
O110 O 0.08323 0.82173 0.6692 0.0
O111 O 0.07732 0.82971 0.78758 0.0
Co112 Co 0.20224 0.25135 0.75702 0.0
O113 O 0.19704 0.22685 0.69648 0.0
O114 O 0.22574 0.25731 0.68902 0.0
C115 C 0.17094 0.24895 0.73323 0.0
O116 O 0.213 0.28055 0.8032 0.0
Co117 Co 0.17638 0.24909 0.90568 0.0
O118 O 0.19366 0.27972 0.90754 0.0
C119 C 0.20799 0.23657 0.92067 0.0
C120 C 0.21503 0.23831 0.66329 0.0
C121 C 0.20843 0.28966 0.85857 0.0
O122 O 0.21458 0.24315 0.84948 0.0
O123 O 0.19186 0.2359 0.95075 0.0
O124 O 0.1856 0.25673 0.68023 0.0
O125 O 0.17487 0.2411 0.7948 0.0
Co126 Co 0.94911 0.75362 0.28478 0.0
O127 O 0.96866 0.77852 0.34323 0.0
O128 O 0.96659 0.74797 0.35425 0.0
C129 C 0.92023 0.75619 0.30633 0.0
O130 O 0.93085 0.72412 0.24215 0.0
Co131 Co 0.92461 0.7539 0.13536 0.0
O132 O 0.91248 0.72339 0.13491 0.0
C133 C 0.96886 0.76679 0.11939 0.0
C134 C 0.9751 0.76713 0.37792 0.0
C135 C 0.91764 0.71422 0.18629 0.0
O136 O 0.96941 0.76113 0.19177 0.0
O137 O 0.95309 0.76682 0.08908 0.0
O138 O 0.92709 0.74879 0.36099 0.0
O139 O 0.9319 0.76351 0.24434 0.0
Co140 Co 0.26104 0.20007 0.30361 0.0
O141 O 0.23529 0.19238 0.36065 0.0
O142 O 0.26477 0.22182 0.3772 0.0
C143 C 0.25951 0.16884 0.31918 0.0
O144 O 0.29131 0.21408 0.26545 0.0
Co145 Co 0.26498 0.17916 0.15128 0.0
O146 O 0.29542 0.19768 0.16078 0.0
C147 C 0.24692 0.20645 0.14099 0.0
C148 C 0.24558 0.20998 0.39822 0.0
C149 C 0.30279 0.21187 0.21352 0.0
O150 O 0.2525 0.21267 0.21349 0.0
O151 O 0.24892 0.19199 0.10847 0.0
O152 O 0.26659 0.18262 0.37587 0.0
O153 O 0.25272 0.17374 0.25701 0.0
Co154 Co 0.81673 0.06107 0.27766 0.0
O155 O 0.82473 0.0432 0.33345 0.0
O156 O 0.79433 0.04165 0.34489 0.0
C157 C 0.84673 0.09124 0.30298 0.0
O158 O 0.80217 0.07643 0.23707 0.0
Co159 Co 0.83992 0.08904 0.13352 0.0
O160 O 0.82237 0.10181 0.15238 0.0
C161 C 0.81273 0.04372 0.11003 0.0
C162 C 0.80662 0.03494 0.36764 0.0
C163 C 0.80609 0.09239 0.19496 0.0
O164 O 0.80622 0.04139 0.1827 0.0
O165 O 0.82693 0.06098 0.0817 0.0
O166 O 0.83217 0.08312 0.35636 0.0
O167 O 0.84329 0.08051 0.23864 0.0
Co168 Co 0.915 0.38857 0.62484 0.0
O169 O 0.88995 0.37123 0.68557 0.0
O170 O 0.9193 0.37047 0.69486 0.0
C171 C 0.91476 0.41869 0.64551 0.0
O172 O 0.94437 0.40382 0.57836 0.0
Co173 Co 0.91701 0.41386 0.47574 0.0
O174 O 0.94765 0.42747 0.48845 0.0
C175 C 0.90012 0.36851 0.46184 0.0
C176 C 0.90046 0.36369 0.71975 0.0
C177 C 0.95551 0.4191 0.53177 0.0
O178 O 0.90521 0.36753 0.53455 0.0
O179 O 0.90215 0.38504 0.42996 0.0
O180 O 0.9222 0.41162 0.69921 0.0
O181 O 0.90675 0.40701 0.58375 0.0
Co182 Co 0.61528 0.53488 0.6057 0.0
O183 O 0.63353 0.52622 0.65497 0.0
O184 O 0.6347 0.556 0.67839 0.0
C185 C 0.5853 0.50416 0.62504 0.0
O186 O 0.59917 0.54973 0.57564 0.0
Co187 Co 0.58821 0.51493 0.45733 0.0
O188 O 0.57733 0.53415 0.47332 0.0
C189 C 0.63339 0.54122 0.43835 0.0
C190 C 0.64167 0.54354 0.69483 0.0
C191 C 0.585 0.54807 0.52704 0.0
O192 O 0.63515 0.54735 0.51156 0.0
O193 O 0.61637 0.52704 0.40814 0.0
O194 O 0.59331 0.51781 0.68189 0.0
O195 O 0.59597 0.5088 0.56014 0.0
Co196 Co 0.47465 0.08307 0.6351 0.0
O197 O 0.48043 0.10867 0.68967 0.0
O198 O 0.45327 0.07815 0.71157 0.0
C199 C 0.50718 0.08732 0.64894 0.0
O200 O 0.46215 0.05283 0.59819 0.0
Co201 Co 0.49607 0.08 0.48226 0.0
O202 O 0.47944 0.04948 0.49499 0.0
C203 C 0.46542 0.09431 0.4721 0.0
C204 C 0.46352 0.09767 0.73044 0.0
C205 C 0.46512 0.04168 0.54697 0.0
O206 O 0.46008 0.08937 0.54557 0.0
O207 O 0.48041 0.09331 0.43901 0.0
O208 O 0.49377 0.07977 0.70654 0.0
O209 O 0.50105 0.0929 0.58665 0.0
Co210 Co 0.72503 0.58493 0.05704 0.0
O211 O 0.70677 0.55939 0.99881 0.0
O212 O 0.70873 0.58963 0.97849 0.0
C213 C 0.75439 0.58199 0.04881 0.0
O214 O 0.74191 0.61516 0.096 0.0
Co215 Co 0.7464 0.5877 0.21601 0.0
O216 O 0.75462 0.61755 0.2191 0.0
C217 C 0.70167 0.57179 0.21563 0.0
C218 C 0.70066 0.57029 0.95827 0.0
C219 C 0.75171 0.62581 0.15796 0.0
O220 O 0.70269 0.57759 0.1424 0.0
O221 O 0.71703 0.5725 0.25258 0.0
O222 O 0.74862 0.58921 0.98977 0.0
O223 O 0.74188 0.57578 0.10905 0.0
Co224 Co 0.41761 0.1373 0.09259 0.0
O225 O 0.44353 0.14364 0.03942 0.0
O226 O 0.41326 0.11624 0.01525 0.0
C227 C 0.42084 0.16936 0.07989 0.0
O228 O 0.38718 0.12446 0.12688 0.0
Co229 Co 0.41393 0.15745 0.24701 0.0
O230 O 0.38345 0.13894 0.23843 0.0
C231 C 0.42958 0.12819 0.25482 0.0
C232 C 0.43285 0.1268 0.99761 0.0
C233 C 0.37587 0.12597 0.18147 0.0
O234 O 0.4241 0.12271 0.18167 0.0
O235 O 0.4286 0.14307 0.28872 0.0
O236 O 0.41398 0.15614 0.02144 0.0
O237 O 0.42683 0.16359 0.1422 0.0
Co238 Co 0.86269 0.28045 0.07654 0.0
O239 O 0.85415 0.29756 0.01876 0.0
O240 O 0.88487 0.29971 1.00826 0.0
C241 C 0.83314 0.24987 0.05289 0.0
O242 O 0.87756 0.26569 0.12016 0.0
Co243 Co 0.83968 0.25367 0.2232 0.0
O244 O 0.85716 0.24073 0.20598 0.0
C245 C 0.86671 0.2991 0.24186 0.0
C246 C 0.87225 0.30594 0.98457 0.0
C247 C 0.87351 0.24991 0.16365 0.0
O248 O 0.87308 0.30079 0.16929 0.0
O249 O 0.85255 0.2821 0.27209 0.0
O250 O 0.84769 0.2579 0.99952 0.0
O251 O 0.83624 0.26098 0.116 0.0
Co252 Co 0.4305 0.28172 0.07888 0.0
O253 O 0.45487 0.30002 0.01647 0.0
O254 O 0.4247 0.29922 1.01078 0.0
C255 C 0.43137 0.25204 0.05705 0.0
O256 O 0.40153 0.2647 0.12761 0.0
Co257 Co 0.43251 0.25839 0.22851 0.0
O258 O 0.40251 0.24886 0.23936 0.0
C259 C 0.44708 0.30291 0.24028 0.0
C260 C 0.44354 0.30689 0.98422 0.0
C261 C 0.39253 0.25312 0.18832 0.0
O262 O 0.44007 0.30285 0.16973 0.0
O263 O 0.44732 0.2873 0.27064 0.0
O264 O 0.42366 0.25894 1.00376 0.0
O265 O 0.44007 0.26414 0.11727 0.0
Co266 Co 0.72572 0.1412 0.07291 0.0
O267 O 0.7085 0.14877 1.01024 0.0
O268 O 0.70709 0.11838 1.00456 0.0
C269 C 0.75605 0.17111 0.05044 0.0
O270 O 0.74106 0.12739 0.1212 0.0
Co271 Co 0.75123 0.16542 0.22074 0.0
O272 O 0.76565 0.14926 0.206 0.0
C273 C 0.70588 0.1373 0.23598 0.0
C274 C 0.70058 0.13049 0.97777 0.0
C275 C 0.75719 0.13263 0.16484 0.0
O276 O 0.70475 0.13083 0.16364 0.0
O277 O 0.72257 0.15182 0.26725 0.0
O278 O 0.74875 0.15624 0.99801 0.0
O279 O 0.74441 0.16808 0.11171 0.0
Co280 Co 0.86589 0.58487 0.06798 0.0
O281 O 0.86103 0.55971 1.01216 0.0
O282 O 0.88719 0.59083 0.98946 0.0
C283 C 0.83291 0.58047 0.05781 0.0
O284 O 0.87684 0.61464 0.10597 0.0
Co285 Co 0.84625 0.58469 0.22692 0.0
O286 O 0.86719 0.61499 0.23219 0.0
C287 C 0.87658 0.57172 0.22534 0.0
C288 C 0.87761 0.5713 0.97046 0.0
C289 C 0.87741 0.62429 0.1703 0.0
O290 O 0.88235 0.58004 0.15567 0.0
O291 O 0.85946 0.56816 0.25631 0.0
O292 O 0.84594 0.58759 0.99896 0.0
O293 O 0.8393 0.57418 0.11789 0.0
Co294 Co 0.61651 0.08938 0.61897 0.0
O295 O 0.63619 0.11401 0.67751 0.0
O296 O 0.63424 0.08342 0.68532 0.0
C297 C 0.58793 0.09204 0.645 0.0
O298 O 0.59766 0.05995 0.57522 0.0
Co299 Co 0.59179 0.09064 0.47216 0.0
O300 O 0.57711 0.05993 0.47682 0.0
C301 C 0.63618 0.10407 0.45462 0.0
C302 C 0.64266 0.10246 0.71053 0.0
C303 C 0.58281 0.05038 0.52427 0.0
O304 O 0.63648 0.09728 0.52508 0.0
O305 O 0.62043 0.10447 0.42582 0.0
O306 O 0.59523 0.08463 0.69782 0.0
O307 O 0.59923 0.09946 0.58197 0.0
Co308 Co 0.9252 0.53216 0.6121 0.0
O309 O 0.89897 0.52646 0.66101 0.0
O310 O 0.92928 0.55344 0.68834 0.0
C311 C 0.9212 0.49978 0.62745 0.0
O312 O 0.95572 0.54426 0.58139 0.0
Co313 Co 0.92869 0.51116 0.45951 0.0
O314 O 0.95906 0.53103 0.46566 0.0
C315 C 0.91404 0.54093 0.44782 0.0
C316 C 0.90954 0.54314 0.70374 0.0
C317 C 0.96683 0.54342 0.5244 0.0
O318 O 0.92058 0.54724 0.51953 0.0
O319 O 0.91295 0.52452 0.4186 0.0
O320 O 0.92763 0.51299 0.68595 0.0
O321 O 0.91585 0.50572 0.56396 0.0
Co322 Co 0.48421 0.39128 0.62811 0.0
O323 O 0.49081 0.37312 0.68882 0.0
O324 O 0.461 0.37299 0.69515 0.0
C325 C 0.51416 0.42129 0.65205 0.0
O326 O 0.47179 0.40809 0.58098 0.0
Co327 Co 0.50957 0.41567 0.48008 0.0
O328 O 0.48899 0.42511 0.47145 0.0
C329 C 0.48043 0.37103 0.46506 0.0
C330 C 0.47256 0.36569 0.7211 0.0
C331 C 0.47454 0.42025 0.52204 0.0
O332 O 0.47327 0.37059 0.53566 0.0
O333 O 0.49608 0.38701 0.43568 0.0
O334 O 0.49949 0.41376 0.70502 0.0
O335 O 0.51125 0.40957 0.59101 0.0
Co336 Co 0.58341 0.72783 0.95565 0.0
O337 O 0.55814 0.71038 0.01521 0.0
O338 O 0.58681 0.70834 0.02111 0.0
C339 C 0.58452 0.75835 0.98326 0.0
O340 O 0.61281 0.74286 0.90948 0.0
Co341 Co 0.58633 0.75529 0.81238 0.0
O342 O 0.61684 0.7682 0.82675 0.0
C343 C 0.56854 0.71003 0.78895 0.0
C344 C 0.56811 0.70194 0.04698 0.0
C345 C 0.62429 0.75885 0.86651 0.0
O346 O 0.57305 0.70788 0.86138 0.0
O347 O 0.57138 0.72721 0.76053 0.0
O348 O 0.59137 0.75013 0.03451 0.0
O349 O 0.57612 0.74746 0.92001 0.0
Co350 Co 0.28115 0.86217 0.93779 0.0
O351 O 0.30201 0.85752 0.98874 0.0
O352 O 0.29879 0.88489 1.00838 0.0
C353 C 0.25325 0.83042 0.96238 0.0
O354 O 0.26162 0.87272 0.90167 0.0
Co355 Co 0.25508 0.83706 0.79117 0.0
O356 O 0.24026 0.8528 0.80363 0.0
C357 C 0.29949 0.868 0.77107 0.0
C358 C 0.30823 0.87478 0.02753 0.0
C359 C 0.24639 0.86777 0.85289 0.0
O360 O 0.30036 0.87511 0.84224 0.0
O361 O 0.28346 0.852 0.74307 0.0
O362 O 0.26058 0.84465 0.01722 0.0
O363 O 0.26403 0.83511 0.89765 0.0
Co364 Co 0.14752 0.4208 0.9548 0.0
O365 O 0.15177 0.44491 0.01543 0.0
O366 O 0.12378 0.41395 0.02282 0.0
C367 C 0.17926 0.42425 0.97873 0.0
O368 O 0.13804 0.39213 0.90754 0.0
Co369 Co 0.17418 0.42545 0.80582 0.0
O370 O 0.15808 0.39463 0.80283 0.0
C371 C 0.14085 0.43554 0.79208 0.0
C372 C 0.13391 0.43299 0.04868 0.0
C373 C 0.14334 0.38392 0.85114 0.0
O374 O 0.13417 0.4276 0.86168 0.0
O375 O 0.15833 0.43882 0.76485 0.0
O376 O 0.16466 0.41618 0.03181 0.0
O377 O 0.17505 0.43208 0.91775 0.0
Co378 Co 0.39242 0.91513 0.39549 0.0
O379 O 0.37317 0.89108 0.33285 0.0
O380 O 0.37668 0.92202 0.32193 0.0
C381 C 0.42142 0.91249 0.37925 0.0
O382 O 0.41046 0.94388 0.44445 0.0
Co383 Co 0.41336 0.91151 0.54967 0.0
O384 O 0.42425 0.94173 0.5601 0.0
C385 C 0.36932 0.8997 0.55415 0.0
C386 C 0.36768 0.90299 0.2963 0.0
C387 C 0.42142 0.95232 0.50729 0.0
O388 O 0.37056 0.90694 0.48315 0.0
O389 O 0.38407 0.89835 0.58743 0.0
O390 O 0.41544 0.92053 0.32401 0.0
O391 O 0.40862 0.90422 0.4378 0.0
Co392 Co 0.0853 0.46872 0.40696 0.0
O393 O 0.11085 0.4754 0.35211 0.0
O394 O 0.08108 0.44613 0.33694 0.0
C395 C 0.08725 0.49978 0.38352 0.0
O396 O 0.05553 0.45614 0.44856 0.0
Co397 Co 0.08404 0.49321 0.5541 0.0
O398 O 0.05343 0.47752 0.53794 0.0
C399 C 0.10012 0.46413 0.57047 0.0
C400 C 0.10037 0.45768 0.3157 0.0
C401 C 0.04492 0.46137 0.49393 0.0
O402 O 0.09321 0.45668 0.50037 0.0
O403 O 0.09996 0.48013 0.59816 0.0
O404 O 0.07994 0.48529 0.32959 0.0
O405 O 0.09431 0.49564 0.44684 0.0
Co406 Co 0.52764 0.61881 0.40717 0.0
O407 O 0.5208 0.63651 0.34445 0.0
O408 O 0.55044 0.63628 0.33708 0.0
C409 C 0.4974 0.58863 0.38815 0.0
O410 O 0.5402 0.60233 0.45602 0.0
Co411 Co 0.50345 0.59646 0.55958 0.0
O412 O 0.52362 0.58646 0.56817 0.0
C413 C 0.53275 0.64112 0.56661 0.0
C414 C 0.53886 0.64355 0.31101 0.0
C415 C 0.53768 0.59066 0.51643 0.0
O416 O 0.53945 0.64048 0.49624 0.0
O417 O 0.51712 0.62569 0.59881 0.0
O418 O 0.51172 0.59562 0.33381 0.0
O419 O 0.50076 0.60099 0.44756 0.0
Co420 Co 0.09421 0.61114 0.39068 0.0
O421 O 0.11856 0.6291 0.32748 0.0
O422 O 0.0887 0.62887 0.32272 0.0
C423 C 0.09427 0.58106 0.36914 0.0
O424 O 0.06537 0.59461 0.44016 0.0
Co425 Co 0.09617 0.58783 0.54046 0.0
O426 O 0.06618 0.5784 0.55117 0.0
C427 C 0.11107 0.63241 0.55206 0.0
C428 C 0.10745 0.63625 0.29553 0.0
C429 C 0.05634 0.58298 0.50063 0.0
O430 O 0.10422 0.63239 0.48122 0.0
O431 O 0.11104 0.61672 0.58288 0.0
O432 O 0.08672 0.58814 0.31595 0.0
O433 O 0.1034 0.59322 0.42882 0.0
Co434 Co 0.39622 0.47365 0.41434 0.0
O435 O 0.37819 0.4814 0.35726 0.0
O436 O 0.37918 0.45257 0.33696 0.0
C437 C 0.42579 0.50527 0.40412 0.0
O438 O 0.41261 0.45973 0.45157 0.0
Co439 Co 0.41953 0.49312 0.57055 0.0
O440 O 0.4318 0.47489 0.56046 0.0
C441 C 0.37427 0.46527 0.57456 0.0
C442 C 0.37156 0.46426 0.31694 0.0
C443 C 0.42577 0.46142 0.50507 0.0
O444 O 0.3744 0.45976 0.50154 0.0
O445 O 0.39026 0.47966 0.60974 0.0
O446 O 0.41962 0.49206 0.34553 0.0
O447 O 0.4136 0.49965 0.46501 0.0
Co448 Co 0.53439 0.92171 0.4125 0.0
O449 O 0.53023 0.89709 0.35558 0.0
O450 O 0.55793 0.92804 0.34398 0.0
C451 C 0.50217 0.91713 0.3888 0.0
O452 O 0.54381 0.95095 0.45463 0.0
Co453 Co 0.50831 0.91892 0.56133 0.0
O454 O 0.52346 0.94973 0.55629 0.0
C455 C 0.54142 0.90847 0.57698 0.0
C456 C 0.54786 0.90879 0.32043 0.0
C457 C 0.53828 0.95986 0.50753 0.0
O458 O 0.5482 0.9161 0.50707 0.0
O459 O 0.52396 0.90542 0.60348 0.0
O460 O 0.51648 0.92488 0.33444 0.0
O461 O 0.50711 0.91054 0.45149 0.0
Co462 Co 0.2863 0.42084 0.96127 0.0
O463 O 0.30584 0.44657 1.01497 0.0
O464 O 0.30465 0.41653 0.03106 0.0
C465 C 0.25732 0.42332 0.98432 0.0
O466 O 0.26808 0.39069 0.92329 0.0
Co467 Co 0.26035 0.41903 0.81307 0.0
O468 O 0.24584 0.38857 0.8277 0.0
C469 C 0.30496 0.43302 0.79408 0.0
C470 C 0.31282 0.4359 0.05164 0.0
C471 C 0.25272 0.38011 0.87537 0.0
O472 O 0.30602 0.42786 0.86674 0.0
O473 O 0.28869 0.43217 0.76426 0.0
O474 O 0.26493 0.41677 0.03928 0.0
O475 O 0.26838 0.42974 0.92037 0.0
Co476 Co 0.59528 0.87199 0.95998 0.0
O477 O 0.56954 0.86477 0.01581 0.0
O478 O 0.59934 0.89384 0.03371 0.0
C479 C 0.59321 0.84045 0.9756 0.0
O480 O 0.62543 0.88538 0.92214 0.0
Co481 Co 0.59806 0.85064 0.80703 0.0
O482 O 0.62857 0.86982 0.8126 0.0
C483 C 0.58103 0.8787 0.79817 0.0
C484 C 0.58002 0.88228 0.05383 0.0
C485 C 0.63642 0.88355 0.86706 0.0
O486 O 0.58778 0.88536 0.86934 0.0
O487 O 0.58122 0.86302 0.76766 0.0
O488 O 0.60026 0.85415 0.03252 0.0
O489 O 0.58649 0.84552 0.91365 0.0
Co490 Co 0.14692 0.72068 0.93939 0.0
O491 O 0.15349 0.70235 0.99938 0.0
O492 O 0.12378 0.70239 1.00675 0.0
C493 C 0.17718 0.75048 0.96364 0.0
O494 O 0.13446 0.73758 0.89377 0.0
Co495 Co 0.17203 0.74551 0.79169 0.0
O496 O 0.15256 0.75641 0.78836 0.0
C497 C 0.14325 0.70073 0.77621 0.0
C498 C 0.1353 0.69498 0.03205 0.0
C499 C 0.13775 0.75072 0.83796 0.0
O500 O 0.1359 0.70014 0.84656 0.0
O501 O 0.15886 0.71682 0.74723 0.0
O502 O 0.16249 0.74301 0.01654 0.0
O503 O 0.17397 0.73891 0.90182 0.0
C504 C 0.21748 0.00742 0.61013 0.0
C505 C 0.21348 0.98685 0.59795 0.0
C506 C 0.22389 0.99489 0.45756 0.0
C507 C 0.22671 0.01508 0.46848 0.0
N508 N 0.22401 0.04003 0.55251 0.0
N509 N 0.20903 0.95971 0.50733 0.0
C510 C 0.22271 0.02112 0.5439 0.0
C511 C 0.21574 0.98025 0.52096 0.0
N512 N 0.21733 0.01419 0.68575 0.0
N513 N 0.229 0.98965 0.38643 0.0
H514 H 0.20262 0.94843 0.55151 0.0
H515 H 0.20806 0.95345 0.45098 0.0
H516 H 0.23356 0.9993 0.33676 0.0
H517 H 0.2299 0.97625 0.37779 0.0
H518 H 0.22239 0.02961 0.70031 0.0
H519 H 0.21373 0.00469 0.73561 0.0
H520 H 0.21879 0.04432 0.60259 0.0
H521 H 0.22918 0.05113 0.50763 0.0
C522 C 0.01398 0.24405 0.55788 0.0
C523 C 0.02224 0.23173 0.58779 0.0
C524 C 0.99882 0.20443 0.49457 0.0
C525 C 0.99454 0.21864 0.45312 0.0
N526 N 0.00601 0.2553 0.43581 0.0
N527 N 0.02623 0.20168 0.55927 0.0
C528 C 1.00451 0.23949 0.48158 0.0
C529 C 0.01585 0.21234 0.54889 0.0
N530 N 0.01416 0.25951 0.60234 0.0
N531 N 0.9864 0.18346 0.48654 0.0
H532 H 0.04035 0.20763 0.58898 0.0
H533 H 0.02232 0.18813 0.52747 0.0
H534 H 0.97216 0.17651 0.45722 0.0
H535 H 0.98878 0.17302 0.51999 0.0
H536 H 0.00734 0.268 0.58223 0.0
H537 H 0.01792 0.26156 0.66265 0.0
H538 H 0.01407 0.27072 0.45501 0.0
H539 H 1.00231 0.25362 0.37547 0.0
C540 C 0.77063 0.76454 0.47862 0.0
C541 C 0.79138 0.77624 0.44977 0.0
C542 C 0.79629 0.80371 0.54408 0.0
C543 C 0.77728 0.79006 0.58377 0.0
N544 N 0.75091 0.75374 0.59969 0.0
N545 N 0.826 0.80488 0.48157 0.0
C546 C 0.7658 0.7693 0.55468 0.0
C547 C 0.80493 0.79522 0.49018 0.0
N548 N 0.75511 0.74953 0.43339 0.0
N549 N 0.80586 0.82474 0.55331 0.0
H550 H 0.83362 0.79824 0.45254 0.0
H551 H 0.83601 0.81811 0.51429 0.0
H552 H 0.79918 0.83229 0.58252 0.0
H553 H 0.8191 0.8348 0.52099 0.0
H554 H 0.73971 0.74153 0.45281 0.0
H555 H 0.75683 0.74745 0.37315 0.0
H556 H 0.74308 0.73834 0.58018 0.0
H557 H 0.74882 0.7555 0.65989 0.0
C558 C 0.77639 0.9847 0.48683 0.0
C559 C 0.78574 0.99125 0.5631 0.0
C560 C 0.81103 0.02527 0.50752 0.0
C561 C 0.80042 0.01938 0.43308 0.0
N562 N 0.77225 0.99404 0.35245 0.0
N563 N 0.81042 0.0183 0.6491 0.0
C564 C 0.78285 0.99925 0.42307 0.0
C565 C 0.80281 0.01162 0.57407 0.0
N566 N 0.76197 0.96427 0.4744 0.0
N567 N 0.82887 0.04402 0.51503 0.0
H568 H 0.80479 0.00883 0.69913 0.0
H569 H 0.82118 0.03363 0.66325 0.0
H570 H 0.83468 0.05511 0.47011 0.0
H571 H 0.83873 0.04819 0.56408 0.0
H572 H 0.75617 0.95791 0.41859 0.0
H573 H 0.75699 0.95312 0.51914 0.0
H574 H 0.75779 0.98079 0.34442 0.0
H575 H 0.77742 0.00351 0.30228 0.0
C576 C 0.99883 0.77106 0.58446 0.0
C577 C 0.01899 0.78864 0.5754 0.0
C578 C 0.01062 0.79202 0.43585 0.0
C579 C 0.99017 0.77503 0.44617 0.0
N580 N 0.96343 0.75121 0.53502 0.0
N581 N 0.04324 0.81768 0.49619 0.0
C582 C 0.98393 0.76528 0.52176 0.0
C583 C 0.02455 0.79976 0.50233 0.0
N584 N 0.99388 0.75979 0.65319 0.0
N585 N 0.01713 0.80007 0.36148 0.0
H586 H 0.05429 0.82321 0.54155 0.0
H587 H 0.04729 0.82784 0.44839 0.0
H588 H 0.00749 0.79475 0.31155 0.0
H589 H 0.03246 0.81084 0.34764 0.0
H590 H 0.98059 0.74533 0.65972 0.0
H591 H 1.00365 0.76434 0.70277 0.0
H592 H 0.95739 0.74522 0.59084 0.0
H593 H 0.95195 0.74691 0.49162 0.0
C594 C 0.23345 0.20675 0.5407 0.0
C595 C 0.23631 0.21612 0.46465 0.0
C596 C 0.22561 0.2402 0.51896 0.0
C597 C 0.22227 0.23052 0.59486 0.0
N598 N 0.2208 0.20321 0.67649 0.0
N599 N 0.23233 0.23947 0.37745 0.0
C600 C 0.22541 0.21329 0.60502 0.0
C601 C 0.2317 0.23228 0.45287 0.0
N602 N 0.23938 0.19223 0.55234 0.0
N603 N 0.22287 0.25695 0.50985 0.0
H604 H 0.23666 0.23399 0.32802 0.0
H605 H 0.22712 0.24965 0.36221 0.0
H606 H 0.21649 0.26201 0.55369 0.0
H607 H 0.22764 0.26648 0.46002 0.0
H608 H 0.24013 0.18647 0.6078 0.0
H609 H 0.24485 0.18673 0.50663 0.0
H610 H 0.22015 0.18905 0.68544 0.0
H611 H 0.21657 0.20846 0.72676 0.0
C612 C 0.90138 0.35609 0.86478 0.0
C613 C 0.89206 0.34926 0.78863 0.0
C614 C 0.86744 0.31509 0.84452 0.0
C615 C 0.87812 0.32129 0.91877 0.0
N616 N 0.90587 0.34719 0.9994 0.0
N617 N 0.86755 0.32199 0.70304 0.0
C618 C 0.89529 0.34166 0.92872 0.0
C619 C 0.87527 0.32875 0.77789 0.0
N620 N 0.91546 0.37664 0.8768 0.0
N621 N 0.84993 0.29606 0.83733 0.0
H622 H 0.8728 0.33155 0.65314 0.0
H623 H 0.85703 0.3066 0.6889 0.0
H624 H 0.84448 0.28499 0.88234 0.0
H625 H 0.84 0.29157 0.78842 0.0
H626 H 0.9212 0.38316 0.93246 0.0
H627 H 0.92016 0.38771 0.83184 0.0
H628 H 0.92011 0.36069 1.00741 0.0
H629 H 0.90091 0.33777 0.04971 0.0
C630 C 0.67795 0.56564 0.74988 0.0
C631 C 0.65747 0.54865 0.75927 0.0
C632 C 0.66541 0.54503 0.89906 0.0
C633 C 0.68608 0.56165 0.88885 0.0
N634 N 0.71336 0.58453 0.79995 0.0
N635 N 0.63261 0.51989 0.8384 0.0
C636 C 0.69271 0.57105 0.81288 0.0
C637 C 0.65157 0.53753 0.83234 0.0
N638 N 0.68329 0.57677 0.68077 0.0
N639 N 0.6586 0.53724 0.97352 0.0
H640 H 0.62159 0.51449 0.79289 0.0
H641 H 0.62832 0.50976 0.88636 0.0
H642 H 0.66816 0.54233 0.02368 0.0
H643 H 0.64312 0.52687 0.98706 0.0
H644 H 0.69697 0.59088 0.67374 0.0
H645 H 0.67347 0.57246 0.63134 0.0
H646 H 0.71961 0.59033 0.74416 0.0
H647 H 0.72468 0.58844 0.84379 0.0
C648 C 0.46967 0.12544 0.83695 0.0
C649 C 0.45623 0.10632 0.79703 0.0
C650 C 0.43057 0.09921 0.90171 0.0
C651 C 0.4419 0.11993 0.93116 0.0
N652 N 0.47055 0.15468 0.90322 0.0
N653 N 0.42003 0.07959 0.78016 0.0
C654 C 0.46098 0.13371 0.89204 0.0
C655 C 0.43548 0.09457 0.8257 0.0
N656 N 0.49069 0.13547 0.82654 0.0
N657 N 0.41572 0.08355 0.9465 0.0
H658 H 0.42186 0.07761 0.7199 0.0
H659 H 0.40461 0.07152 0.79934 0.0
H660 H 0.41357 0.08527 1.00671 0.0
H661 H 0.40797 0.06817 0.92679 0.0
H662 H 0.50073 0.14867 0.85932 0.0
H663 H 0.49837 0.12928 0.79494 0.0
H664 H 0.4837 0.16497 0.87098 0.0
H665 H 0.46402 0.16202 0.9349 0.0
C666 C 0.44798 0.33028 0.77751 0.0
C667 C 0.4656 0.35037 0.78769 0.0
C668 C 0.4682 0.3423 0.92815 0.0
C669 C 0.45131 0.32187 0.91659 0.0
N670 N 0.42734 0.29513 0.82747 0.0
N671 N 0.49392 0.37502 0.87011 0.0
C672 C 0.44173 0.31555 0.84056 0.0
C673 C 0.47622 0.35616 0.86214 0.0
N674 N 0.43718 0.32525 0.70734 0.0
N675 N 0.47587 0.3488 1.00323 0.0
H676 H 0.49946 0.38632 0.82595 0.0
H677 H 0.50387 0.37913 0.91888 0.0
H678 H 0.47038 0.33915 0.05285 0.0
H679 H 0.48652 0.36412 0.01794 0.0
H680 H 0.42271 0.31201 0.69945 0.0
H681 H 0.44212 0.33488 0.65763 0.0
H682 H 0.42143 0.28895 0.77157 0.0
H683 H 0.42252 0.28383 0.87155 0.0
C684 C 0.66462 0.10825 0.92163 0.0
C685 C 0.68556 0.12403 0.91016 0.0
C686 C 0.67804 0.12691 0.76926 0.0
C687 C 0.65749 0.11005 0.77921 0.0
N688 N 0.63114 0.08395 0.86377 0.0
N689 N 0.71309 0.14703 0.8224 0.0
C690 C 0.6508 0.10047 0.85509 0.0
C691 C 0.69247 0.13313 0.83391 0.0
N692 N 0.65773 0.10138 0.99705 0.0
N693 N 0.68382 0.13695 0.69778 0.0
H694 H 0.72406 0.15215 0.86811 0.0
H695 H 0.71974 0.15249 0.76686 0.0
H696 H 0.67434 0.13193 0.64739 0.0
H697 H 0.69755 0.15091 0.68906 0.0
H698 H 0.64221 0.09159 1.01169 0.0
H699 H 0.6674 0.10675 0.04692 0.0
H700 H 0.62617 0.07447 0.91373 0.0
H701 H 0.61982 0.07901 0.8195 0.0
C702 C 0.91135 0.57062 0.79951 0.0
C703 C 0.90016 0.54995 0.76943 0.0
C704 C 0.87202 0.54419 0.8622 0.0
C705 C 0.88525 0.56319 0.90305 0.0
N706 N 0.92123 0.5903 0.92115 0.0
N707 N 0.87137 0.51514 0.79548 0.0
C708 C 0.90605 0.57518 0.87511 0.0
C709 C 0.88092 0.53607 0.80737 0.0
N710 N 0.92645 0.58629 0.75558 0.0
N711 N 0.85096 0.53414 0.87162 0.0
H712 H 0.87802 0.50786 0.76408 0.0
H713 H 0.85809 0.50477 0.82686 0.0
H714 H 0.84324 0.54033 0.90306 0.0
H715 H 0.84101 0.52102 0.83828 0.0
H716 H 0.93407 0.60167 0.77528 0.0
H717 H 0.929 0.58457 0.6958 0.0
H718 H 0.93672 0.5985 0.90291 0.0
H719 H 0.91911 0.59235 0.98106 0.0
C720 C 0.54803 0.65168 0.16627 0.0
C721 C 0.54549 0.65829 0.24278 0.0
C722 C 0.55492 0.69258 0.18806 0.0
C723 C 0.55919 0.68653 0.11309 0.0
N724 N 0.56117 0.66087 0.03144 0.0
N725 N 0.54858 0.68548 0.32961 0.0
C726 C 0.55618 0.66624 0.10255 0.0
C727 C 0.54929 0.67881 0.25433 0.0
N728 N 0.5417 0.63118 0.1536 0.0
N729 N 0.55645 0.7116 0.19634 0.0
H730 H 0.54453 0.67589 0.37936 0.0
H731 H 0.55349 0.70086 0.34425 0.0
H732 H 0.56205 0.72281 0.15186 0.0
H733 H 0.55105 0.71595 0.24575 0.0
H734 H 0.5409 0.62478 0.09768 0.0
H735 H 0.53552 0.62003 0.19834 0.0
H736 H 0.56206 0.64746 0.02288 0.0
H737 H 0.56547 0.67035 0.98132 0.0
C738 C 0.34734 0.87694 0.18457 0.0
C739 C 0.35252 0.89557 0.22703 0.0
C740 C 0.33333 0.90265 0.12437 0.0
C741 C 0.32423 0.88202 0.09393 0.0
N742 N 0.3188 0.84743 0.12157 0.0
N743 N 0.34294 0.92218 0.24646 0.0
C744 C 0.33004 0.86844 0.13157 0.0
C745 C 0.34331 0.9073 0.19995 0.0
N746 N 0.35914 0.86764 0.1906 0.0
N747 N 0.33342 0.91819 0.08109 0.0
H748 H 0.3471 0.92424 0.30633 0.0
H749 H 0.33536 0.93013 0.22865 0.0
H750 H 0.3291 0.91651 0.02138 0.0
H751 H 0.3409 0.93354 0.10113 0.0
H752 H 0.35607 0.85465 0.15657 0.0
H753 H 0.37357 0.8745 0.21866 0.0
H754 H 0.32238 0.83743 0.15232 0.0
H755 H 0.30436 0.83976 0.09381 0.0
C756 C 0.11721 0.46469 0.18019 0.0
C757 C 0.10953 0.45171 0.24836 0.0
C758 C 0.12045 0.42825 0.18973 0.0
C759 C 0.12637 0.44013 0.11841 0.0
N760 N 0.13024 0.46973 0.04512 0.0
N761 N 0.10252 0.42041 0.31666 0.0
C762 C 0.12496 0.45852 0.11396 0.0
C763 C 0.11065 0.43321 0.25239 0.0
N764 N 0.11707 0.48302 0.17841 0.0
N765 N 0.1256 0.41312 0.20008 0.0
H766 H 0.09699 0.4243 0.36702 0.0
H767 H 0.1002 0.4054 0.31851 0.0
H768 H 0.13381 0.40975 0.158 0.0
H769 H 0.12378 0.40535 0.25348 0.0
H770 H 0.12525 0.49472 0.13716 0.0
H771 H 0.1094 0.48713 0.22023 0.0
H772 H 0.12651 0.48117 0.03252 0.0
H773 H 0.13778 0.46715 0.99832 0.0
C774 C 0.12013 0.64591 0.1539 0.0
C775 C 0.11541 0.65157 0.22883 0.0
C776 C 0.12551 0.68623 0.17617 0.0
C777 C 0.12861 0.68001 0.09969 0.0
N778 N 0.1266 0.65333 1.01256 0.0
N779 N 0.11195 0.67643 0.31019 0.0
C780 C 0.12548 0.65973 0.08786 0.0
C781 C 0.11754 0.67151 0.23942 0.0
N782 N 0.11934 0.62723 0.14554 0.0
N783 N 0.13123 0.70655 0.1895 0.0
H784 H 0.10772 0.66688 0.36009 0.0
H785 H 0.11042 0.68948 0.31851 0.0
H786 H 0.13733 0.71786 0.14531 0.0
H787 H 0.13165 0.71271 0.24559 0.0
H788 H 0.12508 0.62323 0.09622 0.0
H789 H 0.11398 0.61599 0.18991 0.0
H790 H 0.12223 0.6381 0.99771 0.0
H791 H 0.13042 0.66297 0.963 0.0
C792 C 0.36326 0.45555 0.17146 0.0
C793 C 0.35696 0.45868 0.24776 0.0
C794 C 0.32293 0.45026 0.19151 0.0
C795 C 0.32846 0.44491 0.11762 0.0
N796 N 0.35332 0.44095 0.03852 0.0
N797 N 0.33001 0.45676 0.33313 0.0
C798 C 0.34846 0.44708 0.10814 0.0
C799 C 0.33665 0.45566 0.25832 0.0
N800 N 0.3837 0.46163 0.15845 0.0
N801 N 0.30445 0.45 0.19826 0.0
H802 H 0.33947 0.46052 0.3834 0.0
H803 H 0.31468 0.45236 0.34676 0.0
H804 H 0.2934 0.44495 0.15291 0.0
H805 H 0.3006 0.45611 0.24688 0.0
H806 H 0.3898 0.46185 0.1025 0.0
H807 H 0.39509 0.46841 0.20242 0.0
H808 H 0.36651 0.43957 0.03125 0.0
H809 H 0.34355 0.43605 0.98893 0.0
C810 C 0.55646 0.88279 0.25637 0.0
C811 C 0.55509 0.90121 0.25075 0.0
C812 C 0.56779 0.9057 0.11181 0.0
C813 C 0.5708 0.8884 0.12046 0.0
N814 N 0.57068 0.86203 0.2036 0.0
N815 N 0.55844 0.92974 0.17099 0.0
C816 C 0.56568 0.87727 0.19319 0.0
C817 C 0.56057 0.91257 0.17786 0.0
N818 N 0.54878 0.87031 0.32164 0.0
N819 N 0.57099 0.91501 0.03901 0.0
H820 H 0.55025 0.93351 0.21164 0.0
H821 H 0.56499 0.94057 0.12551 0.0
H822 H 0.57659 0.91065 0.99013 0.0
H823 H 0.56698 0.92616 0.02475 0.0
H824 H 0.54677 0.85544 0.32462 0.0
H825 H 0.54287 0.87397 0.37115 0.0
H826 H 0.57 0.85514 0.25818 0.0
H827 H 0.57719 0.85733 0.15896 0.0
C828 C 0.19792 0.99433 0.99532 0.0
C829 C 0.21055 0.98588 0.97227 0.0
C830 C 0.23798 0.01005 0.06335 0.0
C831 C 0.22438 0.01688 0.09225 0.0
N832 N 0.19004 0.01268 0.09616 0.0
N833 N 0.24154 0.98363 0.99126 0.0
C834 C 0.20395 0.00819 0.06107 0.0
C835 C 0.23034 0.9932 1.00803 0.0
N836 N 0.18035 0.98947 0.95281 0.0
N837 N 0.25839 0.02019 0.08605 0.0
H838 H 0.23667 0.97166 0.94964 0.0
H839 H 0.2549 0.98661 0.02226 0.0
H840 H 0.26451 0.03248 0.12651 0.0
H841 H 0.26957 0.01747 0.06034 0.0
H842 H 0.17158 0.99671 0.96161 0.0
H843 H 0.1757 0.97969 0.90317 0.0
H844 H 0.17432 0.00523 0.0813 0.0
H845 H 0.19376 0.02237 0.1458 0.0
C846 C 1.00115 0.23731 0.04499 0.0
C847 C 0.99332 0.2169 0.07504 0.0
C848 C 0.01664 0.21186 0.98591 0.0
C849 C 0.0259 0.23286 0.96129 0.0
N850 N 0.02891 0.26653 0.97489 0.0
N851 N 0.99617 0.1861 0.08508 0.0
C852 C 0.01865 0.24587 0.99271 0.0
C853 C 1.00182 0.20457 0.04855 0.0
N854 N 0.99142 0.24823 0.06407 0.0
N855 N 0.02152 0.19863 0.94736 0.0
H856 H 0.98561 0.18041 0.13208 0.0
H857 H 1.0034 0.17741 0.07425 0.0
H858 H 0.03194 0.20327 0.89995 0.0
H859 H 0.01373 0.18267 0.95687 0.0
H860 H 0.99484 0.26216 0.03709 0.0
H861 H 0.97885 0.24262 0.10307 0.0
H862 H 0.02594 0.27729 1.00282 0.0
H863 H 0.04145 0.27317 0.93583 0.0
C864 C 0.76353 0.77239 0.98988 0.0
C865 C 0.77591 0.79296 0.96114 0.0
C866 C 0.80385 0.79845 0.05344 0.0
C867 C 0.79245 0.77731 0.0763 0.0
N868 N 0.76255 0.74325 0.05889 0.0
N869 N 0.80926 0.8243 0.95463 0.0
C870 C 0.77252 0.76401 0.04274 0.0
C871 C 0.79647 0.80563 0.98999 0.0
N872 N 0.74303 0.76113 0.96888 0.0
N873 N 0.82155 0.81182 0.09398 0.0
H874 H 0.80459 0.82989 0.90665 0.0
H875 H 0.82506 0.83327 0.96745 0.0
H876 H 0.8272 0.80714 0.14179 0.0
H877 H 0.82943 0.82782 0.0856 0.0
H878 H 0.73262 0.74697 0.99471 0.0
H879 H 0.73603 0.76665 0.92963 0.0
H880 H 0.74914 0.73237 0.02938 0.0
H881 H 0.7685 0.73667 0.09813 0.0
C882 C 0.81051 0.00489 0.95738 0.0
C883 C 0.78919 0.99431 0.93599 0.0
C884 C 0.78313 0.01669 0.02713 0.0
C885 C 0.80396 0.02566 0.05468 0.0
N886 N 0.83663 0.02603 0.05515 0.0
N887 N 0.75445 0.98821 0.95684 0.0
C888 C 0.81744 0.01916 0.02208 0.0
C889 C 0.77528 0.99975 0.97228 0.0
N890 N 0.82421 1.00153 0.91451 0.0
N891 N 0.77107 0.02483 0.05115 0.0
H892 H 0.74819 0.97605 0.91574 0.0
H893 H 0.74325 0.98979 0.98844 0.0
H894 H 0.77618 0.03705 0.09175 0.0
H895 H 0.75661 0.02054 0.02637 0.0
H896 H 0.84027 0.01024 0.9218 0.0
H897 H 0.81962 0.99136 0.8661 0.0
H898 H 0.84634 0.02024 0.03954 0.0
H899 H 0.84208 0.03614 0.10376 0.0
C900 C 0.01006 0.80023 0.96952 0.0
C901 C 0.01764 0.787 0.9446 0.0
C902 C 0.99302 0.75991 0.03491 0.0
C903 C 0.98721 0.77408 0.06613 0.0
N904 N 0.99274 0.80886 0.07228 0.0
N905 N 0.01822 0.75508 0.95955 0.0
C906 C 0.99646 0.79457 0.03582 0.0
C907 C 0.00958 0.767 0.97867 0.0
N908 N 0.01562 0.8181 0.92847 0.0
N909 N 0.98221 0.73952 0.05658 0.0
H910 H 0.02985 0.75949 0.91684 0.0
H911 H 0.01476 0.74146 0.98933 0.0
H912 H 0.97017 0.73387 0.09786 0.0
H913 H 0.98413 0.72798 0.02942 0.0
H914 H 0.00909 0.82745 0.93863 0.0
H915 H 0.02527 0.82246 0.87863 0.0
H916 H 1.00062 0.82458 0.0581 0.0
H917 H 0.98323 0.80538 0.12221 0.0
C918 C 0.21635 0.20188 0.06257 0.0
C919 C 0.23677 0.21541 0.09116 0.0
C920 C 0.23872 0.24331 1.00684 0.0
C921 C 0.21915 0.22909 0.97257 0.0
N922 N 0.191 0.19396 0.95782 0.0
N923 N 0.26861 0.24826 0.08359 0.0
C924 C 0.20845 0.20811 0.9977 0.0
C925 C 0.2483 0.23598 0.0616 0.0
N926 N 0.20426 0.18324 0.09923 0.0
N927 N 0.24778 0.26395 0.98948 0.0
H928 H 0.27592 0.24364 0.12511 0.0
H929 H 0.27857 0.26245 0.05697 0.0
H930 H 0.24135 0.26979 0.94911 0.0
H931 H 0.26079 0.27542 0.01918 0.0
H932 H 0.18855 0.17356 0.08652 0.0
H933 H 0.20939 0.17839 0.14816 0.0
H934 H 0.18367 0.17804 0.9679 0.0
H935 H 0.18498 0.19792 0.90908 0.0
C936 C 0.87039 0.34024 0.38621 0.0
C937 C 0.8915 0.34976 0.41029 0.0
C938 C 0.89655 0.32588 0.32404 0.0
C939 C 0.87593 0.31761 0.29493 0.0
N940 N 0.84425 0.31904 0.28834 0.0
N941 N 0.92563 0.35385 0.39473 0.0
C942 C 0.86313 0.32538 0.32338 0.0
C943 C 0.90486 0.34316 0.37731 0.0
N944 N 0.85714 0.34504 0.42504 0.0
N945 N 0.90792 0.31674 0.30317 0.0
H946 H 0.93218 0.36625 0.4348 0.0
H947 H 0.93658 0.3514 0.36547 0.0
H948 H 0.90251 0.30428 0.26356 0.0
H949 H 0.92208 0.32048 0.32944 0.0
H950 H 0.84112 0.33713 0.41615 0.0
H951 H 0.86194 0.35575 0.4717 0.0
H952 H 0.83508 0.32568 0.30053 0.0
H953 H 0.83856 0.30839 0.24148 0.0
C954 C 0.67312 0.54304 0.29207 0.0
C955 C 0.68207 0.56355 0.26227 0.0
C956 C 0.65913 0.5699 0.34949 0.0
C957 C 0.65176 0.55009 0.38462 0.0
N958 N 0.65381 0.51892 0.39781 0.0
N959 N 0.68464 0.59712 0.26467 0.0
C960 C 0.65933 0.53696 0.35805 0.0
C961 C 0.67524 0.57712 0.29116 0.0
N962 N 0.67749 0.52921 0.25558 0.0
N963 N 0.65029 0.58154 0.37022 0.0
H964 H 0.69537 0.60239 0.21837 0.0
H965 H 0.68247 0.60865 0.29032 0.0
H966 H 0.63915 0.57709 0.41491 0.0
H967 H 0.65309 0.59496 0.34057 0.0
H968 H 0.67 0.51345 0.26906 0.0
H969 H 0.68719 0.53313 0.20602 0.0
H970 H 0.66041 0.50966 0.3868 0.0
H971 H 0.644 0.51415 0.44716 0.0
C972 C 0.42592 0.09796 0.33617 0.0
C973 C 0.43872 0.118 0.30339 0.0
C974 C 0.46711 0.12346 0.39322 0.0
C975 C 0.45496 0.10291 0.42208 0.0
N976 N 0.42353 0.06969 0.41651 0.0
N977 N 0.47263 0.14818 0.2891 0.0
C978 C 0.4345 0.0899 0.39251 0.0
C979 C 0.45966 0.13025 0.32864 0.0
N980 N 0.40541 0.08692 0.31522 0.0
N981 N 0.48556 0.13676 0.4296 0.0
H982 H 0.46775 0.1534 0.24051 0.0
H983 H 0.48859 0.15678 0.29911 0.0
H984 H 0.49127 0.13245 0.4783 0.0
H985 H 0.49417 0.15254 0.41688 0.0
H986 H 0.39456 0.07339 0.34365 0.0
H987 H 0.39902 0.0919 0.27124 0.0
H988 H 0.40963 0.05864 0.39041 0.0
H989 H 0.4289 0.06366 0.4605 0.0
C990 C 0.47644 0.3307 0.3178 0.0
C991 C 0.45556 0.32173 0.29143 0.0
C992 C 0.45038 0.34496 0.38105 0.0
C993 C 0.47063 0.35237 0.41286 0.0
N994 N 0.50139 0.34933 0.42241 0.0
N995 N 0.42152 0.31796 0.30618 0.0
C996 C 0.4832 0.34435 0.38427 0.0
C997 C 0.44219 0.32824 0.32512 0.0
N998 N 0.48998 0.32653 0.27777 0.0
N999 N 0.43928 0.3544 0.40171 0.0
H1000 H 0.41502 0.3059 0.26471 0.0
H1001 H 0.41057 0.32038 0.33566 0.0
H1002 H 0.44461 0.36649 0.44298 0.0
H1003 H 0.4255 0.35129 0.37367 0.0
H1004 H 0.5059 0.33417 0.28913 0.0
H1005 H 0.48563 0.31693 0.22765 0.0
H1006 H 0.51024 0.34238 0.40936 0.0
H1007 H 0.50656 0.35888 0.47266 0.0
C1008 C 0.67867 0.10728 0.31596 0.0
C1009 C 0.68709 0.12791 0.28755 0.0
C1010 C 0.66476 0.13359 0.37989 0.0
C1011 C 0.65495 0.11244 0.40298 0.0
N1012 N 0.65038 0.07825 0.38464 0.0
N1013 N 0.68564 0.15954 0.28183 0.0
C1014 C 0.66134 0.09902 0.36887 0.0
C1015 C 0.6794 0.14073 0.3166 0.0
N1016 N 0.68771 0.09583 0.29489 0.0
N1017 N 0.66054 0.14704 0.42035 0.0
H1018 H 0.69608 0.16511 0.23441 0.0
H1019 H 0.67902 0.16869 0.29462 0.0
H1020 H 0.65018 0.14244 0.468 0.0
H1021 H 0.66873 0.16305 0.41196 0.0
H1022 H 0.68384 0.08165 0.32077 0.0
H1023 H 0.70021 0.10122 0.25565 0.0
H1024 H 0.65272 0.06731 0.35469 0.0
H1025 H 0.63785 0.07174 0.42376 0.0
C1026 C 0.9132 0.55388 0.31008 0.0
C1027 C 0.90835 0.55317 0.39265 0.0
C1028 C 0.89108 0.57296 0.36131 0.0
C1029 C 0.8907 0.56823 0.27889 0.0
N1030 N 0.90086 0.55235 0.17564 0.0
N1031 N 0.88974 0.5605 0.4946 0.0
C1032 C 0.90182 0.55839 0.25302 0.0
C1033 C 0.8967 0.56252 0.41815 0.0
N1034 N 0.92908 0.55088 0.28618 0.0
N1035 N 0.88638 0.5877 0.38535 0.0
H1036 H 0.89218 0.55196 0.53786 0.0
H1037 H 0.87956 0.56555 0.51265 0.0
H1038 H 0.88355 0.59666 0.345 0.0
H1039 H 0.88795 0.59274 0.44423 0.0
H1040 H 0.93417 0.55278 0.22739 0.0
H1041 H 0.93882 0.54917 0.32652 0.0
H1042 H 0.9071 0.54325 0.15657 0.0
H1043 H 0.89237 0.55481 0.13202 0.0
C1044 C 0.53238 0.67064 0.63636 0.0
C1045 C 0.54345 0.66034 0.61562 0.0
C1046 C 0.57168 0.68322 0.70678 0.0
C1047 C 0.55952 0.69192 0.73368 0.0
N1048 N 0.52693 0.69168 0.73308 0.0
N1049 N 0.57245 0.65487 0.63784 0.0
C1050 C 0.53949 0.68503 0.70072 0.0
C1051 C 0.56285 0.66616 0.65239 0.0
N1052 N 0.51525 0.66692 0.59313 0.0
N1053 N 0.59191 0.69173 0.73082 0.0
H1054 H 0.56673 0.64261 0.59721 0.0
H1055 H 0.58529 0.65673 0.66986 0.0
H1056 H 0.59889 0.70409 0.77089 0.0
H1057 H 0.60226 0.68763 0.70643 0.0
H1058 H 0.50765 0.67541 0.59986 0.0
H1059 H 0.50982 0.65666 0.54496 0.0
H1060 H 0.51139 0.68562 0.71727 0.0
H1061 H 0.53143 0.70189 0.78133 0.0
C1062 C 0.32594 0.86436 0.69191 0.0
C1063 C 0.3182 0.87733 0.71886 0.0
C1064 C 0.34357 0.90545 0.63345 0.0
C1065 C 0.34988 0.89173 0.60158 0.0
N1066 N 0.34385 0.8569 0.58795 0.0
N1067 N 0.3174 0.90921 0.70673 0.0
C1068 C 0.34003 0.8708 0.62709 0.0
C1069 C 0.3264 0.89764 0.68734 0.0
N1070 N 0.32041 0.84615 0.73041 0.0
N1071 N 0.35445 0.92607 0.61485 0.0
H1072 H 0.30507 0.90411 0.74667 0.0
H1073 H 0.32114 0.92316 0.67906 0.0
H1074 H 0.3668 0.93224 0.57473 0.0
H1075 H 0.35215 0.93724 0.64309 0.0
H1076 H 0.32718 0.83707 0.71865 0.0
H1077 H 0.31065 0.84119 0.77993 0.0
H1078 H 0.3356 0.84099 0.59861 0.0
H1079 H 0.35376 0.86101 0.53899 0.0
C1080 C 0.11506 0.4483 0.76335 0.0
C1081 C 0.12751 0.43989 0.7366 0.0
C1082 C 0.12132 0.44633 0.5983 0.0
C1083 C 0.10793 0.45358 0.62504 0.0
N1084 N 0.08607 0.45329 0.73222 0.0
N1085 N 0.13425 0.42298 0.6265 0.0
C1086 C 0.10289 0.45196 0.70736 0.0
C1087 C 0.12808 0.43642 0.65334 0.0
N1088 N 0.11545 0.45386 0.84092 0.0
N1089 N 0.12858 0.44968 0.52201 0.0
H1090 H 0.13743 0.41389 0.66475 0.0
H1091 H 0.13339 0.41885 0.5667 0.0
H1092 H 0.12518 0.4579 0.48036 0.0
H1093 H 0.13985 0.44619 0.50287 0.0
H1094 H 0.10821 0.46197 0.86083 0.0
H1095 H 0.12467 0.45234 0.88358 0.0
H1096 H 0.08079 0.45048 0.79082 0.0
H1097 H 0.07591 0.45453 0.69269 0.0
C1098 C 0.11379 0.67474 0.68985 0.0
C1099 C 0.13377 0.68205 0.72404 0.0
C1100 C 0.14 0.66001 0.6323 0.0
C1101 C 0.11933 0.65119 0.60344 0.0
N1102 N 0.0853 0.64769 0.6139 0.0
N1103 N 0.16431 0.6788 0.73862 0.0
C1104 C 0.10586 0.65791 0.63452 0.0
C1105 C 0.14641 0.67383 0.69829 0.0
N1106 N 0.10271 0.68436 0.70783 0.0
N1107 N 0.15369 0.65557 0.595 0.0
H1108 H 0.16924 0.68852 0.78841 0.0
H1109 H 0.17314 0.67172 0.72781 0.0
H1110 H 0.14962 0.64586 0.5453 0.0
H1111 H 0.16951 0.66308 0.60814 0.0
H1112 H 0.08918 0.68134 0.67796 0.0
H1113 H 0.10787 0.69651 0.7487 0.0
H1114 H 0.07426 0.6503 0.64154 0.0
H1115 H 0.07895 0.63545 0.57323 0.0
C1116 C 0.33163 0.46133 0.70865 0.0
C1117 C 0.32344 0.44109 0.74074 0.0
C1118 C 0.34769 0.43567 0.65774 0.0
C1119 C 0.35478 0.45536 0.62211 0.0
N1120 N 0.35072 0.48515 0.60179 0.0
N1121 N 0.32151 0.40776 0.738 0.0
C1122 C 0.34585 0.46762 0.64407 0.0
C1123 C 0.33092 0.42791 0.71326 0.0
N1124 N 0.32641 0.47489 0.74223 0.0
N1125 N 0.35744 0.42468 0.64036 0.0
H1126 H 0.30962 0.40176 0.77984 0.0
H1127 H 0.32453 0.39666 0.71346 0.0
H1128 H 0.36901 0.42943 0.59725 0.0
H1129 H 0.35488 0.4115 0.67134 0.0
H1130 H 0.33345 0.49051 0.72704 0.0
H1131 H 0.31649 0.47104 0.79103 0.0
H1132 H 0.34321 0.4937 0.60936 0.0
H1133 H 0.36089 0.49001 0.55349 0.0
C1134 C 0.5599 0.89662 0.77123 0.0
C1135 C 0.57373 0.8899 0.74484 0.0
C1136 C 0.56728 0.89586 0.60653 0.0
C1137 C 0.5545 0.90393 0.63308 0.0
N1138 N 0.5469 0.91994 0.7442 0.0
N1139 N 0.59656 0.89148 0.63922 0.0
C1140 C 0.55337 0.90681 0.71659 0.0
C1141 C 0.57937 0.89225 0.66304 0.0
N1142 N 0.55203 0.89245 0.84655 0.0
N1143 N 0.56719 0.89043 0.52888 0.0
H1144 H 0.6066 0.89023 0.67943 0.0
H1145 H 0.60218 0.89473 0.5811 0.0
H1146 H 0.55773 0.89142 0.48577 0.0
H1147 H 0.57488 0.88272 0.50939 0.0
H1148 H 0.5405 0.89562 0.86532 0.0
H1149 H 0.55528 0.88394 0.88733 0.0
H1150 H 0.54727 0.92353 0.80441 0.0
H1151 H 0.54399 0.92935 0.7066 0.0
C1152 C 0.34201 0.12196 0.13781 0.0
C1153 C 0.35291 0.11333 0.17541 0.0
C1154 C 0.31958 0.0835 0.21412 0.0
C1155 C 0.30918 0.09455 0.1923 0.0
N1156 N 0.31326 0.12789 0.1526 0.0
N1157 N 0.35213 0.0863 0.25642 0.0
C1158 C 0.32111 0.11479 0.15913 0.0
C1159 C 0.34172 0.09422 0.21603 0.0
N1160 N 0.3514 0.13671 0.08058 0.0
N1161 N 0.30862 0.06266 0.22854 0.0
H1162 H 0.3683 0.09345 0.25631 0.0
H1163 H 0.34472 0.0735 0.29393 0.0
H1164 H 0.29261 0.0537 0.2206 0.0
H1165 H 0.31574 0.05383 0.23847 0.0
H1166 H 0.34351 0.14259 0.04822 0.0
H1167 H 0.36608 0.14075 0.05858 0.0
H1168 H 0.3223 0.14323 0.13391 0.0
H1169 H 0.29895 0.12463 0.17584 0.0
C1170 C 0.8958 0.24108 0.2482 0.0
C1171 C 0.88921 0.24307 0.17107 0.0
C1172 C 0.9104 0.22943 0.11367 0.0
C1173 C 0.91307 0.22324 0.19059 0.0
N1174 N 0.90841 0.22356 0.33318 0.0
N1175 N 0.89058 0.23933 0.02846 0.0
C1176 C 0.90607 0.22941 0.25865 0.0
C1177 C 0.89682 0.23757 0.1031 0.0
N1178 N 0.89302 0.25111 0.31118 0.0
N1179 N 0.92157 0.22831 0.0511 0.0
H1180 H 0.88176 0.24633 0.01667 0.0
H1181 H 0.89326 0.23278 0.97819 0.0
H1182 H 0.93239 0.22334 0.05746 0.0
H1183 H 0.92191 0.23448 0.99519 0.0
H1184 H 0.89935 0.25204 0.36738 0.0
H1185 H 0.88639 0.26055 0.30511 0.0
H1186 H 0.90091 0.22502 0.38304 0.0
H1187 H 0.91691 0.21624 0.34536 0.0
C1188 C 0.7544 0.66034 0.18874 0.0
C1189 C 0.76297 0.64884 0.15463 0.0
C1190 C 0.79706 0.68023 0.15048 0.0
C1191 C 0.78822 0.69238 0.1761 0.0
N1192 N 0.75674 0.69389 0.19906 0.0
N1193 N 0.79082 0.64945 0.07887 0.0
C1194 C 0.76636 0.68244 0.18969 0.0
C1195 C 0.78377 0.65931 0.1276 0.0
N1196 N 0.73492 0.65023 0.22061 0.0
N1197 N 0.81809 0.68814 0.15203 0.0
H1198 H 0.78098 0.63468 0.05582 0.0
H1199 H 0.80557 0.65697 0.05328 0.0
H1200 H 0.82846 0.70276 0.17513 0.0
H1201 H 0.82492 0.67914 0.1398 0.0
H1202 H 0.72875 0.65771 0.254 0.0
H1203 H 0.72556 0.63415 0.21808 0.0
H1204 H 0.74064 0.68726 0.20185 0.0
H1205 H 0.76449 0.71001 0.19498 0.0
C1206 C 0.09906 0.32766 0.84524 0.0
C1207 C 0.11013 0.31686 0.83331 0.0
C1208 C 0.14307 0.34998 0.83583 0.0
C1209 C 0.13193 0.36089 0.84231 0.0
N1210 N 0.0991 0.36009 0.83139 0.0
N1211 N 0.14233 0.31821 0.79901 0.0
C1212 C 0.10984 0.34972 0.84079 0.0
C1213 C 0.13202 0.32817 0.82309 0.0
N1214 N 0.07843 0.31699 0.8642 0.0
N1215 N 0.16416 0.36014 0.846 0.0
H1216 H 0.13521 0.30215 0.79345 0.0
H1217 H 0.15748 0.32606 0.77726 0.0
H1218 H 0.17309 0.37594 0.85813 0.0
H1219 H 0.17267 0.35251 0.84955 0.0
H1220 H 0.07017 0.32422 0.88228 0.0
H1221 H 0.06999 0.30089 0.86906 0.0
H1222 H 0.0831 0.35259 0.8219 0.0
H1223 H 0.10637 0.37614 0.8242 0.0
C1224 C 0.68204 0.77991 0.91265 0.0
C1225 C 0.69061 0.7872 0.83607 0.0
C1226 C 0.65539 0.76928 0.77951 0.0
C1227 C 0.6469 0.76604 0.85739 0.0
N1228 N 0.65242 0.76784 0.99998 0.0
N1229 N 0.68534 0.78823 0.6946 0.0
C1230 C 0.66025 0.77095 0.92458 0.0
C1231 C 0.67728 0.7815 0.7687 0.0
N1232 N 0.69471 0.78076 0.97342 0.0
N1233 N 0.6425 0.75985 0.71602 0.0
H1234 H 0.70119 0.79585 0.68255 0.0
H1235 H 0.6763 0.78711 0.64541 0.0
H1236 H 0.62652 0.74996 0.72225 0.0
H1237 H 0.64784 0.7599 0.6587 0.0
H1238 H 0.68919 0.77377 0.02848 0.0
H1239 H 0.7106 0.78643 0.96601 0.0
H1240 H 0.6617 0.77402 0.05037 0.0
H1241 H 0.63662 0.75998 1.01281 0.0
C1242 C 0.23508 0.91279 0.85555 0.0
C1243 C 0.21306 0.90184 0.84809 0.0
C1244 C 0.21304 0.86892 0.85614 0.0
C1245 C 0.23513 0.87973 0.8537 0.0
N1246 N 0.26702 0.91219 0.8337 0.0
N1247 N 0.18169 0.86933 0.82129 0.0
C1248 C 0.24615 0.90176 0.84869 0.0
C1249 C 0.20221 0.87986 0.84281 0.0
N1250 N 0.24543 0.93355 0.87241 0.0
N1251 N 0.20223 0.84828 0.87422 0.0
H1252 H 0.17332 0.87671 0.80668 0.0
H1253 H 0.17365 0.85344 0.80933 0.0
H1254 H 0.20926 0.83938 0.88383 0.0
H1255 H 0.18646 0.84062 0.8882 0.0
H1256 H 0.2612 0.94179 0.88661 0.0
H1257 H 0.23792 0.94211 0.88009 0.0
H1258 H 0.27535 0.92803 0.82143 0.0
H1259 H 0.27563 0.90476 0.82532 0.0
C1260 C 0.6923 0.92563 0.82296 0.0
C1261 C 0.70306 0.91533 0.84993 0.0
C1262 C 0.67082 0.8892 0.91238 0.0
C1263 C 0.6594 0.89659 0.87031 0.0
N1264 N 0.65921 0.92148 0.77944 0.0
N1265 N 0.69945 0.88303 0.90067 0.0
C1266 C 0.67011 0.91467 0.82326 0.0
C1267 C 0.69151 0.89591 0.88947 0.0
N1268 N 0.70296 0.94606 0.80181 0.0
N1269 N 0.66217 0.87613 0.97522 0.0
H1270 H 0.71341 0.88567 0.8758 0.0
H1271 H 0.69066 0.86823 0.92492 0.0
H1272 H 0.64771 0.87259 0.99809 0.0
H1273 H 0.67054 0.87127 1.01028 0.0
H1274 H 0.6956 0.95446 0.7876 0.0
H1275 H 0.71899 0.95534 0.80837 0.0
H1276 H 0.66623 0.93336 0.73778 0.0
H1277 H 0.64303 0.91433 0.78148 0.0
C1278 C 0.09018 0.75816 0.84439 0.0
C1279 C 0.09946 0.77944 0.82481 0.0
C1280 C 0.13363 0.78215 0.81867 0.0
C1281 C 0.12434 0.76042 0.83264 0.0
N1282 N 0.09279 0.72699 0.83849 0.0
N1283 N 0.12867 0.80998 0.7701 0.0
C1284 C 0.1023 0.74816 0.8399 0.0
C1285 C 0.12075 0.79085 0.80435 0.0
N1286 N 0.06994 0.74759 0.8687 0.0
N1287 N 0.15469 0.79484 0.82367 0.0
H1288 H 0.11952 0.81661 0.75686 0.0
H1289 H 0.14361 0.81811 0.74652 0.0
H1290 H 0.16493 0.78976 0.83991 0.0
H1291 H 0.16186 0.81093 0.82032 0.0
H1292 H 0.06299 0.7327 0.89251 0.0
H1293 H 0.06052 0.75432 0.86998 0.0
H1294 H 0.07672 0.71738 0.83601 0.0
H1295 H 0.10089 0.71901 0.83119 0.0
C1296 C 0.24228 0.32416 0.8623 0.0
C1297 C 0.22016 0.31286 0.86431 0.0
C1298 C 0.22017 0.34549 0.88884 0.0
C1299 C 0.24195 0.35695 0.87611 0.0
N1300 N 0.27344 0.35717 0.83893 0.0
N1301 N 0.18796 0.31373 0.86517 0.0
C1302 C 0.25296 0.34628 0.85987 0.0
C1303 C 0.20908 0.32378 0.87415 0.0
N1304 N 0.25323 0.3139 0.86643 0.0
N1305 N 0.21 0.35527 0.91683 0.0
H1306 H 0.17899 0.29814 0.84971 0.0
H1307 H 0.17943 0.32136 0.86526 0.0
H1308 H 0.21722 0.37126 0.92487 0.0
H1309 H 0.19493 0.34729 0.93935 0.0
H1310 H 0.2693 0.32142 0.874 0.0
H1311 H 0.24617 0.29782 0.87045 0.0
H1312 H 0.28161 0.35018 0.81726 0.0
H1313 H 0.28181 0.3733 0.83666 0.0
C1314 C 0.91957 0.68103 0.19232 0.0
C1315 C 0.90762 0.69108 0.18182 0.0
C1316 C 0.87724 0.65739 0.14828 0.0
C1317 C 0.88835 0.64725 0.16984 0.0
N1318 N 0.91935 0.649 0.22236 0.0
N1319 N 0.87336 0.68735 0.16808 0.0
C1320 C 0.90929 0.65895 0.19516 0.0
C1321 C 0.88597 0.67886 0.16468 0.0
N1322 N 0.94078 0.69237 0.19499 0.0
N1323 N 0.85846 0.64662 0.11059 0.0
H1324 H 0.87856 0.70276 0.18316 0.0
H1325 H 0.85721 0.67846 0.16484 0.0
H1326 H 0.85192 0.63102 0.09491 0.0
H1327 H 0.85059 0.65371 0.08694 0.0
H1328 H 0.9502 0.68567 0.19438 0.0
H1329 H 0.94914 0.70843 0.18923 0.0
H1330 H 0.93384 0.6567 0.25012 0.0
H1331 H 0.91253 0.63287 0.22243 0.0
C1332 C 0.35776 0.22412 0.23716 0.0
C1333 C 0.36946 0.24371 0.19874 0.0
C1334 C 0.33662 0.24341 0.17307 0.0
C1335 C 0.32576 0.22506 0.21853 0.0
N1336 N 0.32819 0.20402 0.32163 0.0
N1337 N 0.36958 0.27482 0.15398 0.0
C1338 C 0.33703 0.21739 0.25976 0.0
C1339 C 0.35881 0.25426 0.17326 0.0
N1340 N 0.36559 0.21112 0.24759 0.0
N1341 N 0.32587 0.25051 0.13002 0.0
H1342 H 0.3856 0.28401 0.16124 0.0
H1343 H 0.36231 0.28336 0.14084 0.0
H1344 H 0.30969 0.24336 0.13158 0.0
H1345 H 0.33301 0.26264 0.0894 0.0
H1346 H 0.35667 0.19621 0.27075 0.0
H1347 H 0.3796 0.21379 0.22321 0.0
H1348 H 0.33641 0.19891 0.35628 0.0
H1349 H 0.3137 0.20049 0.34423 0.0
C1350 C 0.76939 0.11288 0.24822 0.0
C1351 C 0.76597 0.11849 0.17137 0.0
C1352 C 0.78301 0.10057 0.11243 0.0
C1353 C 0.79023 0.09903 0.18893 0.0
N1354 N 0.78974 0.10318 0.33152 0.0
N1355 N 0.76937 0.11733 0.02837 0.0
C1356 C 0.78304 0.10476 0.25754 0.0
C1357 C 0.77245 0.11198 0.10278 0.0
N1358 N 0.75891 0.11459 0.312 0.0
N1359 N 0.78554 0.09038 0.04938 0.0
H1360 H 0.76073 0.12455 0.01702 0.0
H1361 H 0.77645 0.11563 0.97765 0.0
H1362 H 0.79247 0.08121 0.05495 0.0
H1363 H 0.77877 0.08909 0.99383 0.0
H1364 H 0.7591 0.10888 0.36832 0.0
H1365 H 0.74816 0.11967 0.30663 0.0
H1366 H 0.78745 0.10988 0.38217 0.0
H1367 H 0.79848 0.09603 0.34224 0.0
C1368 C 0.0134 0.44098 0.57904 0.0
C1369 C 0.02199 0.44727 0.50179 0.0
C1370 C 0.98669 0.42884 0.44572 0.0
C1371 C 0.97822 0.42657 0.52331 0.0
N1372 N 0.98392 0.43055 0.66584 0.0
N1373 N 0.01654 0.44696 0.35977 0.0
C1374 C 0.99164 0.43241 0.59067 0.0
C1375 C 0.00859 0.44093 0.43445 0.0
N1376 N 0.02598 0.44236 0.64099 0.0
N1377 N 0.97382 0.41858 0.38308 0.0
H1378 H 0.03237 0.45463 0.34739 0.0
H1379 H 0.00739 0.44533 0.31025 0.0
H1380 H 0.95785 0.40872 0.38971 0.0
H1381 H 0.97919 0.4179 0.32655 0.0
H1382 H 0.0204 0.43608 0.69697 0.0
H1383 H 0.04181 0.44767 0.63401 0.0
H1384 H 0.99332 0.43744 0.71547 0.0
H1385 H 0.96816 0.42313 0.67899 0.0
C1386 C 0.58353 0.58065 0.4969 0.0
C1387 C 0.57564 0.56153 0.53745 0.0
C1388 C 0.5429 0.56085 0.5595 0.0
C1389 C 0.55112 0.58096 0.52508 0.0
N1390 N 0.58231 0.61245 0.48516 0.0
N1391 N 0.55168 0.53887 0.63595 0.0
C1392 C 0.57237 0.59166 0.50059 0.0
C1393 C 0.55659 0.55341 0.57821 0.0
N1394 N 0.60156 0.58827 0.45474 0.0
N1395 N 0.52201 0.54806 0.56955 0.0
H1396 H 0.56239 0.53466 0.65568 0.0
H1397 H 0.53833 0.53335 0.67074 0.0
H1398 H 0.51084 0.55142 0.54845 0.0
H1399 H 0.51572 0.53279 0.58912 0.0
H1400 H 0.60687 0.60104 0.41708 0.0
H1401 H 0.61045 0.58098 0.45409 0.0
H1402 H 0.59816 0.62109 0.47305 0.0
H1403 H 0.57545 0.62156 0.49438 0.0
C1404 C 0.4346 0.00919 0.49091 0.0
C1405 C 0.45117 0.01881 0.54626 0.0
C1406 C 0.44997 0.98594 0.56614 0.0
C1407 C 0.43159 0.97536 0.51905 0.0
N1408 N 0.40284 0.97754 0.45953 0.0
N1409 N 0.46672 0.01337 0.66255 0.0
C1410 C 0.42277 0.98711 0.48758 0.0
C1411 C 0.45642 0.0063 0.59231 0.0
N1412 N 0.43 0.02099 0.44214 0.0
N1413 N 0.46214 0.97741 0.58221 0.0
H1414 H 0.46867 0.02698 0.68863 0.0
H1415 H 0.47012 0.00415 0.6993 0.0
H1416 H 0.46001 0.96388 0.55487 0.0
H1417 H 0.47614 0.98554 0.61333 0.0
H1418 H 0.41929 0.01466 0.39568 0.0
H1419 H 0.43797 0.03717 0.44499 0.0
H1420 H 0.39559 0.98576 0.44135 0.0
H1421 H 0.39262 0.96166 0.46472 0.0
C1422 C 0.58259 0.01622 0.51556 0.0
C1423 C 0.57145 0.02715 0.52094 0.0
C1424 C 0.53853 0.99396 0.51011 0.0
C1425 C 0.54967 0.983 0.51259 0.0
N1426 N 0.58212 0.98378 0.53643 0.0
N1427 N 0.53838 0.02575 0.53826 0.0
C1428 C 0.57166 0.99415 0.52052 0.0
C1429 C 0.5493 0.01583 0.52225 0.0
N1430 N 0.60351 0.02676 0.50187 0.0
N1431 N 0.51771 0.98366 0.49343 0.0
H1432 H 0.54531 0.04169 0.54716 0.0
H1433 H 0.52249 0.01795 0.55003 0.0
H1434 H 0.50897 0.96765 0.48571 0.0
H1435 H 0.50939 0.99116 0.48043 0.0
H1436 H 0.61199 0.01941 0.48882 0.0
H1437 H 0.61208 0.04281 0.49531 0.0
H1438 H 0.59786 0.99128 0.55114 0.0
H1439 H 0.57472 0.96772 0.5433 0.0
C1440 C 1.00058 0.54724 0.56853 0.0
C1441 C 0.98979 0.55586 0.52997 0.0
C1442 C 0.02318 0.58508 0.48818 0.0
C1443 C 0.03337 0.57389 0.51109 0.0
N1444 N 0.02888 0.54062 0.55389 0.0
N1445 N 0.99068 0.58264 0.44701 0.0
C1446 C 0.02132 0.55394 0.54634 0.0
C1447 C 1.00104 0.57467 0.48755 0.0
N1448 N 0.99123 0.53291 0.62719 0.0
N1449 N 0.03438 0.6058 0.47162 0.0
H1450 H 0.97453 0.57589 0.44865 0.0
H1451 H 0.99809 0.59516 0.4082 0.0
H1452 H 0.05044 0.61458 0.47859 0.0
H1453 H 0.02746 0.61478 0.46081 0.0
H1454 H 0.99911 0.5271 0.66014 0.0
H1455 H 0.97665 0.52912 0.64945 0.0
H1456 H 0.01974 0.52546 0.57432 0.0
H1457 H 0.04297 0.54346 0.52977 0.0
C1458 C 0.45509 0.45689 0.45862 0.0
C1459 C 0.43591 0.44859 0.49858 0.0
C1460 C 0.43961 0.41886 0.53752 0.0
C1461 C 0.46091 0.42974 0.51356 0.0
N1462 N 0.48985 0.46294 0.47047 0.0
N1463 N 0.41021 0.42197 0.58246 0.0
C1464 C 0.46897 0.44983 0.47908 0.0
C1465 C 0.42825 0.42966 0.54035 0.0
N1466 N 0.45997 0.4712 0.39996 0.0
N1467 N 0.42979 0.39807 0.55286 0.0
H1468 H 0.40121 0.42916 0.58293 0.0
H1469 H 0.40504 0.40931 0.62058 0.0
H1470 H 0.4367 0.38902 0.54356 0.0
H1471 H 0.41392 0.38933 0.56469 0.0
H1472 H 0.47346 0.47678 0.36598 0.0
H1473 H 0.4492 0.47516 0.37877 0.0
H1474 H 0.49596 0.47816 0.4506 0.0
H1475 H 0.5011 0.4599 0.49324 0.0
C1476 C 0.23359 0.11007 0.34635 0.0
C1477 C 0.25093 0.10699 0.33897 0.0
C1478 C 0.27359 0.14414 0.31528 0.0
C1479 C 0.25672 0.14763 0.32848 0.0
N1480 N 0.22118 0.13436 0.36898 0.0
N1481 N 0.28827 0.12192 0.33583 0.0
C1482 C 0.23684 0.13069 0.34778 0.0
C1483 C 0.2712 0.12429 0.33032 0.0
N1484 N 0.214 0.09329 0.35154 0.0
N1485 N 0.29152 0.15936 0.28274 0.0
H1486 H 0.28739 0.10769 0.34516 0.0
H1487 H 0.30341 0.13443 0.33821 0.0
H1488 H 0.29307 0.17344 0.26589 0.0
H1489 H 0.30367 0.15718 0.26398 0.0
H1490 H 0.20054 0.0943 0.34735 0.0
H1491 H 0.21113 0.07809 0.35596 0.0
H1492 H 0.20697 0.123 0.3916 0.0
H1493 H 0.22297 0.14919 0.36989 0.0
C1494 C 0.88583 0.11171 0.30998 0.0
C1495 C 0.8665 0.11133 0.31435 0.0
C1496 C 0.88507 0.14951 0.31952 0.0
C1497 C 0.90438 0.14988 0.31541 0.0
N1498 N 0.92341 0.13157 0.32441 0.0
N1499 N 0.84771 0.12958 0.3366 0.0
C1500 C 0.90482 0.13101 0.31542 0.0
C1501 C 0.86615 0.13015 0.3239 0.0
N1502 N 0.88604 0.09353 0.3006 0.0
N1503 N 0.88472 0.16766 0.31474 0.0
H1504 H 0.83346 0.11594 0.33509 0.0
H1505 H 0.84651 0.1424 0.35393 0.0
H1506 H 0.89816 0.18205 0.31401 0.0
H1507 H 0.87129 0.16853 0.30624 0.0
H1508 H 0.89927 0.09281 0.28569 0.0
H1509 H 0.87272 0.07896 0.30469 0.0
H1510 H 0.9248 0.11847 0.33326 0.0
H1511 H 0.93755 0.14537 0.33022 0.0
C1512 C 0.88107 0.73744 0.3223 0.0
C1513 C 0.90022 0.75631 0.31331 0.0
C1514 C 0.88138 0.7756 0.30004 0.0
C1515 C 0.86215 0.75676 0.30864 0.0
N1516 N 0.84343 0.71991 0.33444 0.0
N1517 N 0.91902 0.79367 0.31169 0.0
C1518 C 0.86195 0.73776 0.32258 0.0
C1519 C 0.90046 0.77546 0.3067 0.0
N1520 N 0.88109 0.71907 0.32657 0.0
N1521 N 0.88144 0.79375 0.28611 0.0
H1522 H 0.93323 0.79422 0.31925 0.0
H1523 H 0.92036 0.80825 0.31585 0.0
H1524 H 0.86822 0.7952 0.29024 0.0
H1525 H 0.89449 0.80734 0.26737 0.0
H1526 H 0.8678 0.7045 0.32574 0.0
H1527 H 0.89459 0.7181 0.32626 0.0
H1528 H 0.84206 0.70612 0.35518 0.0
H1529 H 0.82903 0.71881 0.32594 0.0
C1530 C 0.13137 0.2668 0.69296 0.0
C1531 C 0.11257 0.24905 0.71825 0.0
C1532 C 0.13178 0.23018 0.73621 0.0
C1533 C 0.15086 0.24886 0.72384 0.0
N1534 N 0.16897 0.28574 0.69833 0.0
N1535 N 0.09476 0.21328 0.76123 0.0
C1536 C 0.15069 0.2673 0.70313 0.0
C1537 C 0.1128 0.23063 0.73953 0.0
N1538 N 0.13105 0.28338 0.65949 0.0
N1539 N 0.13161 0.21171 0.73955 0.0
H1540 H 0.0801 0.21165 0.75318 0.0
H1541 H 0.09435 0.20062 0.78935 0.0
H1542 H 0.14497 0.21055 0.73317 0.0
H1543 H 0.11809 0.19729 0.74015 0.0
H1544 H 0.14367 0.29506 0.62904 0.0
H1545 H 0.11812 0.28529 0.65848 0.0
H1546 H 0.16973 0.30006 0.6934 0.0
H1547 H 0.1835 0.28718 0.70773 0.0
C1548 C 0.7408 0.86299 0.70501 0.0
C1549 C 0.75899 0.86137 0.71393 0.0
C1550 C 0.78055 0.89948 0.70966 0.0
C1551 C 0.76228 0.90108 0.7089 0.0
N1552 N 0.72487 0.88458 0.71248 0.0
N1553 N 0.79629 0.87795 0.72753 0.0
C1554 C 0.74236 0.88289 0.70737 0.0
C1555 C 0.77889 0.87961 0.71729 0.0
N1556 N 0.72194 0.84546 0.69474 0.0
N1557 N 0.79949 0.91692 0.69887 0.0
H1558 H 0.79612 0.86385 0.72529 0.0
H1559 H 0.81083 0.89044 0.74175 0.0
H1560 H 0.8013 0.93165 0.69133 0.0
H1561 H 0.81326 0.91671 0.69018 0.0
H1562 H 0.7085 0.84553 0.67767 0.0
H1563 H 0.71992 0.83063 0.69852 0.0
H1564 H 0.71004 0.87208 0.72224 0.0
H1565 H 0.7252 0.89873 0.71265 0.0
C1566 C 0.1329 0.88932 0.65622 0.0
C1567 C 0.14181 0.8985 0.73129 0.0
C1568 C 0.11974 0.86542 0.79491 0.0
C1569 C 0.10893 0.85633 0.72329 0.0
N1570 N 0.1027 0.86243 0.58695 0.0
N1571 N 0.13345 0.89655 0.87183 0.0
C1572 C 0.11487 0.86896 0.65361 0.0
C1573 C 0.13213 0.88708 0.8008 0.0
N1574 N 0.14077 0.90029 0.58773 0.0
N1575 N 0.11924 0.85345 0.85657 0.0
H1576 H 0.13839 0.9123 0.87616 0.0
H1577 H 0.12594 0.88813 0.92272 0.0
H1578 H 0.1134 0.8377 0.84843 0.0
H1579 H 0.12779 0.85968 0.90874 0.0
H1580 H 0.13704 0.89343 0.53151 0.0
H1581 H 0.15107 0.91624 0.58713 0.0
H1582 H 0.10518 0.8719 0.53785 0.0
H1583 H 0.08888 0.84838 0.5831 0.0
C1584 C 0.89844 0.44132 0.66015 0.0
C1585 C 0.91652 0.43952 0.65083 0.0
C1586 C 0.93666 0.47634 0.61809 0.0
C1587 C 0.9193 0.47884 0.63426 0.0
N1588 N 0.88407 0.4641 0.68096 0.0
N1589 N 0.95387 0.45664 0.64171 0.0
C1590 C 0.90027 0.46141 0.65854 0.0
C1591 C 0.93596 0.45746 0.63688 0.0
N1592 N 0.87954 0.42383 0.66984 0.0
N1593 N 0.95346 0.49153 0.57975 0.0
H1594 H 0.95397 0.44319 0.65705 0.0
H1595 H 0.96862 0.46977 0.63924 0.0
H1596 H 0.95377 0.50489 0.5611 0.0
H1597 H 0.9657 0.48978 0.55852 0.0
H1598 H 0.86549 0.42377 0.66788 0.0
H1599 H 0.87783 0.4091 0.67585 0.0
H1600 H 0.87053 0.45249 0.70701 0.0
H1601 H 0.88476 0.47845 0.67848 0.0
C1602 C 0.55269 0.44584 0.66317 0.0
C1603 C 0.53223 0.4427 0.65658 0.0
C1604 C 0.54652 0.47948 0.62604 0.0
C1605 C 0.56698 0.48308 0.63774 0.0
N1606 N 0.58955 0.4703 0.68012 0.0
N1607 N 0.50982 0.45757 0.65197 0.0
C1608 C 0.57007 0.46641 0.66031 0.0
C1609 C 0.5292 0.45988 0.64514 0.0
N1610 N 0.5555 0.42911 0.67137 0.0
N1611 N 0.54355 0.49435 0.59155 0.0
H1612 H 0.49661 0.44347 0.66486 0.0
H1613 H 0.50716 0.47007 0.65214 0.0
H1614 H 0.55593 0.50825 0.57221 0.0
H1615 H 0.52906 0.49202 0.57414 0.0
H1616 H 0.56992 0.43002 0.66675 0.0
H1617 H 0.54318 0.41402 0.67895 0.0
H1618 H 0.59257 0.45927 0.70506 0.0
H1619 H 0.60264 0.48507 0.67722 0.0
C1620 C 0.56617 0.10953 0.64205 0.0
C1621 C 0.56754 0.09127 0.65414 0.0
C1622 C 0.52953 0.07067 0.6611 0.0
C1623 C 0.52805 0.08885 0.65271 0.0
N1624 N 0.54508 0.12614 0.64957 0.0
N1625 N 0.55031 0.0551 0.69384 0.0
C1626 C 0.54644 0.10847 0.64692 0.0
C1627 C 0.54922 0.07214 0.67063 0.0
N1628 N 0.58379 0.12799 0.62698 0.0
N1629 N 0.51215 0.05173 0.65274 0.0
H1630 H 0.56381 0.05416 0.69311 0.0
H1631 H 0.53765 0.04191 0.71751 0.0
H1632 H 0.49794 0.05038 0.63905 0.0
H1633 H 0.51228 0.0378 0.6494 0.0
H1634 H 0.58365 0.14113 0.60661 0.0
H1635 H 0.59871 0.13009 0.63237 0.0
H1636 H 0.5579 0.14101 0.65408 0.0
H1637 H 0.53096 0.12593 0.654 0.0
C1638 C 0.77824 0.56955 0.99191 0.0
C1639 C 0.77442 0.58146 0.04879 0.0
C1640 C 0.80728 0.59033 0.11549 0.0
C1641 C 0.81227 0.58 0.0557 0.0
N1642 N 0.80255 0.56028 0.93334 0.0
N1643 N 0.78799 0.60696 0.15298 0.0
C1644 C 0.79779 0.56986 0.99245 0.0
C1645 C 0.78954 0.59257 0.1079 0.0
N1646 N 0.76281 0.55715 0.93983 0.0
N1647 N 0.81988 0.59884 0.17946 0.0
H1648 H 0.77605 0.60997 0.14432 0.0
H1649 H 0.79964 0.61761 0.19045 0.0
H1650 H 0.8349 0.60182 0.17847 0.0
H1651 H 0.81536 0.60287 0.23217 0.0
H1652 H 0.76353 0.54638 0.90229 0.0
H1653 H 0.74846 0.55651 0.93815 0.0
H1654 H 0.79414 0.55495 0.88059 0.0
H1655 H 0.8155 0.55832 0.93545 0.0
C1656 C 0.44321 0.20751 0.04888 0.0
C1657 C 0.42369 0.19066 0.07245 0.0
C1658 C 0.40858 0.21344 0.0681 0.0
C1659 C 0.42853 0.23078 0.05424 0.0
N1660 N 0.4654 0.2449 0.03708 0.0
N1661 N 0.38952 0.17925 0.12451 0.0
C1662 C 0.44604 0.22798 0.04638 0.0
C1663 C 0.40682 0.19407 0.08715 0.0
N1664 N 0.4589 0.20391 0.02759 0.0
N1665 N 0.39123 0.21533 0.06337 0.0
H1666 H 0.38851 0.1656 0.14399 0.0
H1667 H 0.3775 0.18153 0.14433 0.0
H1668 H 0.3917 0.22922 0.05017 0.0
H1669 H 0.37619 0.20264 0.06511 0.0
H1670 H 0.47274 0.21507 1.0018 0.0
H1671 H 0.45751 0.18925 0.03057 0.0
H1672 H 0.47905 0.24423 0.04038 0.0
H1673 H 0.46788 0.25991 0.03013 0.0
C1674 C 0.77533 0.20981 0.03563 0.0
C1675 C 0.7759 0.19104 0.03967 0.0
C1676 C 0.81413 0.21089 0.0354 0.0
C1677 C 0.81356 0.22966 0.04164 0.0
N1678 N 0.79378 0.24735 0.0475 0.0
N1679 N 0.79563 0.1734 0.04662 0.0
C1680 C 0.79418 0.2292 0.04161 0.0
C1681 C 0.79525 0.19148 0.03916 0.0
N1682 N 0.75676 0.20904 0.02256 0.0
N1683 N 0.83275 0.21157 0.02643 0.0
H1684 H 0.78222 0.15897 0.04633 0.0
H1685 H 0.80902 0.17262 0.05775 0.0
H1686 H 0.8469 0.22531 0.02818 0.0
H1687 H 0.8342 0.19873 1.01197 0.0
H1688 H 0.75534 0.22201 1.01092 0.0
H1689 H 0.74276 0.19513 0.016 0.0
H1690 H 0.78036 0.24804 0.05905 0.0
H1691 H 0.80709 0.26194 0.04398 0.0
C1692 C 0.60687 0.79722 0.98366 0.0
C1693 C 0.58702 0.77942 0.99326 0.0
C1694 C 0.57168 0.80206 1.00429 0.0
C1695 C 0.59113 0.81945 0.98349 0.0
N1696 N 0.62585 0.8322 0.93468 0.0
N1697 N 0.55001 0.76448 1.009 0.0
C1698 C 0.60838 0.81668 0.96863 0.0
C1699 C 0.56924 0.78173 1.00256 0.0
N1700 N 0.62437 0.79566 0.98868 0.0
N1701 N 0.55566 0.80502 0.02689 0.0
H1702 H 0.54781 0.74952 1.0131 0.0
H1703 H 0.5362 0.76488 1.00638 0.0
H1704 H 0.55686 0.81961 0.02774 0.0
H1705 H 0.54176 0.79335 0.05047 0.0
H1706 H 0.63933 0.80848 0.98944 0.0
H1707 H 0.62385 0.78173 1.00082 0.0
H1708 H 0.63818 0.83046 0.91466 0.0
H1709 H 0.62674 0.846 0.91798 0.0
C1710 C 0.19595 0.78928 0.98802 0.0
C1711 C 0.19668 0.77083 0.9732 0.0
C1712 C 0.23467 0.79135 0.95844 0.0
C1713 C 0.23398 0.80987 0.97299 0.0
N1714 N 0.21454 0.82591 0.0206 0.0
N1715 N 0.21699 0.75377 0.96626 0.0
C1716 C 0.21485 0.80864 0.9945 0.0
C1717 C 0.21613 0.77173 0.96438 0.0
N1718 N 0.17722 0.78861 0.99076 0.0
N1719 N 0.25314 0.79246 0.93997 0.0
H1720 H 0.20388 0.73918 0.97399 0.0
H1721 H 0.23078 0.75334 0.96837 0.0
H1722 H 0.26748 0.80603 0.9452 0.0
H1723 H 0.25423 0.78003 0.91695 0.0
H1724 H 0.17569 0.80179 0.99127 0.0
H1725 H 0.16299 0.77496 0.98511 0.0
H1726 H 0.20165 0.82534 0.04768 0.0
H1727 H 0.22736 0.8408 0.01928 0.0
C1728 C 0.21846 0.44306 0.97513 0.0
C1729 C 0.19938 0.42437 0.98729 0.0
C1730 C 0.21892 0.40657 0.01992 0.0
C1731 C 0.23767 0.4242 0.99391 0.0
N1732 N 0.25553 0.46 0.95124 0.0
N1733 N 0.18136 0.38746 1.01269 0.0
C1734 C 0.23745 0.44263 0.97242 0.0
C1735 C 0.19959 0.40597 1.00848 0.0
N1736 N 0.21861 0.46152 0.97135 0.0
N1737 N 0.21928 0.39028 0.0557 0.0
H1738 H 0.16684 0.3859 1.00197 0.0
H1739 H 0.18072 0.3732 0.01815 0.0
H1740 H 0.23243 0.38879 0.0602 0.0
H1741 H 0.20654 0.37859 0.08564 0.0
H1742 H 0.23212 0.47595 0.97084 0.0
H1743 H 0.20523 0.46267 0.97713 0.0
H1744 H 0.256 0.47266 0.92286 0.0
H1745 H 0.27017 0.46166 0.96041 0.0
C1746 C 0.44316 0.89514 0.38392 0.0
C1747 C 0.44208 0.91361 0.37734 0.0
C1748 C 0.48017 0.93387 0.36358 0.0
C1749 C 0.48147 0.91578 0.3801 0.0
N1750 N 0.46411 0.87898 0.40699 0.0
N1751 N 0.45986 0.95105 0.37273 0.0
C1752 C 0.46292 0.89639 0.39104 0.0
C1753 C 0.46064 0.93308 0.36945 0.0
N1754 N 0.42532 0.87629 0.37874 0.0
N1755 N 0.49754 0.95194 0.34239 0.0
H1756 H 0.44605 0.9514 0.37707 0.0
H1757 H 0.47299 0.9657 0.37844 0.0
H1758 H 0.51253 0.95419 0.34469 0.0
H1759 H 0.49697 0.96457 0.31862 0.0
H1760 H 0.42508 0.86221 0.37432 0.0
H1761 H 0.41065 0.87471 0.3713 0.0
H1762 H 0.45158 0.86518 0.42726 0.0
H1763 H 0.47783 0.87844 0.40275 0.0
C1764 C 0.07227 0.54195 0.36364 0.0
C1765 C 0.09222 0.56011 0.3637 0.0
C1766 C 0.10882 0.53864 0.37206 0.0
C1767 C 0.08888 0.52043 0.37172 0.0
N1768 N 0.05176 0.50442 0.35503 0.0
N1769 N 0.12933 0.57584 0.35037 0.0
C1770 C 0.07067 0.52201 0.36311 0.0
C1771 C 0.11046 0.55847 0.36321 0.0
N1772 N 0.05483 0.54373 0.36844 0.0
N1773 N 0.12626 0.53699 0.38075 0.0
H1774 H 0.13106 0.59051 0.34178 0.0
H1775 H 0.14306 0.57561 0.34099 0.0
H1776 H 0.12603 0.52286 0.37909 0.0
H1777 H 0.14094 0.54954 0.39284 0.0
H1778 H 0.03999 0.53132 0.37891 0.0
H1779 H 0.0552 0.5579 0.36712 0.0
H1780 H 0.03821 0.50434 0.33867 0.0
H1781 H 0.0498 0.48962 0.3599 0.0
C1782 C 0.45868 0.56422 0.37907 0.0
C1783 C 0.47911 0.56725 0.38562 0.0
C1784 C 0.46451 0.53015 0.41144 0.0
C1785 C 0.44416 0.52665 0.39776 0.0
N1786 N 0.4219 0.54 0.35788 0.0
N1787 N 0.50137 0.55215 0.38974 0.0
C1788 C 0.44125 0.54362 0.37848 0.0
C1789 C 0.48199 0.54991 0.3954 0.0
N1790 N 0.45593 0.58104 0.37363 0.0
N1791 N 0.46718 0.51503 0.44526 0.0
H1792 H 0.51474 0.56633 0.37963 0.0
H1793 H 0.50392 0.53958 0.38817 0.0
H1794 H 0.45462 0.50108 0.46323 0.0
H1795 H 0.48153 0.51726 0.46417 0.0
H1796 H 0.4415 0.58009 0.3783 0.0
H1797 H 0.46828 0.59621 0.36865 0.0
H1798 H 0.41905 0.55135 0.33499 0.0
H1799 H 0.40878 0.52522 0.35807 0.0
loop_
_geom_bond_atom_site_label_1
_geom_bond_atom_site_label_2
_geom_bond_distance
_geom_bond_site_symmetry_2
_ccdc_geom_bond_type
Co0 O1 2.216 . S
Co0 O2 2.091 . S
Co0 O4 2.004 . S
Co0 O10 2.021 . S
Co0 O12 2.137 . S
Co0 O13 2.244 . S
O1 Co0 2.216 . S
O1 C8 1.247 . S
O2 Co0 2.091 . S
O2 C8 1.261 . S
C3 O12 1.247 . S
C3 O13 1.272 . S
O4 Co0 2.004 . S
O4 C9 1.259 . S
Co5 O6 2.061 . S
Co5 O11 2.052 . S
Co5 O13 2.135 . S
O6 Co5 2.061 . S
O6 C9 1.235 . S
C7 O10 1.238 . S
C7 O11 1.241 . S
C8 O1 1.247 . S
C8 O2 1.261 . S
C9 O4 1.259 . S
C9 O6 1.235 . S
O10 Co0 2.021 . S
O10 C7 1.238 . S
O11 Co5 2.052 . S
O11 C7 1.241 . S
O12 Co0 2.137 . S
O12 C3 1.247 . S
O13 Co0 2.244 . S
O13 C3 1.272 . S
O13 Co5 2.135 . S
Co14 O15 2.216 . S
Co14 O16 2.091 . S
Co14 O18 2.004 . S
Co14 O24 2.021 . S
Co14 O26 2.137 . S
Co14 O27 2.244 . S
O15 Co14 2.216 . S
O15 C22 1.247 . S
O16 Co14 2.091 . S
O16 C22 1.261 . S
C17 O26 1.247 . S
C17 O27 1.272 . S
O18 Co14 2.004 . S
O18 C23 1.259 . S
Co19 O20 2.061 . S
Co19 O25 2.052 . S
Co19 O27 2.135 . S
O20 Co19 2.061 . S
O20 C23 1.235 . S
C21 O24 1.238 . S
C21 O25 1.241 . S
C22 O15 1.247 . S
C22 O16 1.261 . S
C23 O18 1.259 . S
C23 O20 1.235 . S
O24 Co14 2.021 . S
O24 C21 1.238 . S
O25 Co19 2.052 . S
O25 C21 1.241 . S
O26 Co14 2.137 . S
O26 C17 1.247 . S
O27 Co14 2.244 . S
O27 C17 1.272 . S
O27 Co19 2.135 . S
Co28 O29 2.216 . S
Co28 O30 2.091 . S
Co28 O32 2.004 . S
Co28 O38 2.021 . S
Co28 O40 2.137 . S
Co28 O41 2.244 . S
O29 Co28 2.216 . S
O29 C36 1.247 . S
O30 Co28 2.091 . S
O30 C36 1.261 . S
C31 O40 1.247 . S
C31 O41 1.272 . S
O32 Co28 2.004 . S
O32 C37 1.259 . S
Co33 O34 2.061 . S
Co33 O39 2.052 . S
Co33 O41 2.135 . S
O34 Co33 2.061 . S
O34 C37 1.235 . S
C35 O38 1.238 . S
C35 O39 1.241 . S
C36 O29 1.247 . S
C36 O30 1.261 . S
C37 O32 1.259 . S
C37 O34 1.235 . S
O38 Co28 2.021 . S
O38 C35 1.238 . S
O39 Co33 2.052 . S
O39 C35 1.241 . S
O40 Co28 2.137 . S
O40 C31 1.247 . S
O41 Co28 2.244 . S
O41 C31 1.272 . S
O41 Co33 2.135 . S
Co42 O43 2.216 . S
Co42 O44 2.091 . S
Co42 O46 2.004 . S
Co42 O52 2.021 . S
Co42 O54 2.137 . S
Co42 O55 2.244 . S
O43 Co42 2.216 . S
O43 C50 1.247 . S
O44 Co42 2.091 . S
O44 C50 1.261 . S
C45 O54 1.247 . S
C45 O55 1.272 . S
O46 Co42 2.004 . S
O46 C51 1.259 . S
Co47 O48 2.061 . S
Co47 O53 2.052 . S
Co47 O55 2.135 . S
O48 Co47 2.061 . S
O48 C51 1.235 . S
C49 O52 1.238 . S
C49 O53 1.241 . S
C50 O43 1.247 . S
C50 O44 1.261 . S
C51 O46 1.259 . S
C51 O48 1.235 . S
O52 Co42 2.021 . S
O52 C49 1.238 . S
O53 Co47 2.052 . S
O53 C49 1.241 . S
O54 Co42 2.137 . S
O54 C45 1.247 . S
O55 Co42 2.244 . S
O55 C45 1.272 . S
O55 Co47 2.135 . S
Co56 O57 2.216 . S
Co56 O58 2.091 . S
Co56 O60 2.004 . S
Co56 O66 2.021 . S
Co56 O68 2.137 . S
Co56 O69 2.244 . S
O57 Co56 2.216 . S
O57 C64 1.247 . S
O58 Co56 2.091 . S
O58 C64 1.261 . S
C59 O68 1.247 . S
C59 O69 1.272 . S
O60 Co56 2.004 . S
O60 C65 1.259 . S
Co61 O62 2.061 . S
Co61 O67 2.052 . S
Co61 O69 2.135 . S
O62 Co61 2.061 . S
O62 C65 1.235 . S
C63 O66 1.238 . S
C63 O67 1.241 . S
C64 O57 1.247 . S
C64 O58 1.261 . S
C65 O60 1.259 . S
C65 O62 1.235 . S
O66 Co56 2.021 . S
O66 C63 1.238 . S
O67 Co61 2.052 . S
O67 C63 1.241 . S
O68 Co56 2.137 . S
O68 C59 1.247 . S
O69 Co56 2.244 . S
O69 C59 1.272 . S
O69 Co61 2.135 . S
Co70 O71 2.216 . S
Co70 O72 2.091 . S
Co70 O74 2.004 . S
Co70 O80 2.021 . S
Co70 O82 2.137 . S
Co70 O83 2.244 . S
O71 Co70 2.216 . S
O71 C78 1.247 . S
O72 Co70 2.091 . S
O72 C78 1.261 . S
C73 O82 1.247 . S
C73 O83 1.272 . S
O74 Co70 2.004 . S
O74 C79 1.259 . S
Co75 O76 2.061 . S
Co75 O81 2.052 . S
Co75 O83 2.135 . S
O76 Co75 2.061 . S
O76 C79 1.235 . S
C77 O80 1.238 . S
C77 O81 1.241 . S
C78 O71 1.247 . S
C78 O72 1.261 . S
C79 O74 1.259 . S
C79 O76 1.235 . S
O80 Co70 2.021 . S
O80 C77 1.238 . S
O81 Co75 2.052 . S
O81 C77 1.241 . S
O82 Co70 2.137 . S
O82 C73 1.247 . S
O83 Co70 2.244 . S
O83 C73 1.272 . S
O83 Co75 2.135 . S
Co84 O85 2.216 . S
Co84 O86 2.091 . S
Co84 O88 2.004 . S
Co84 O94 2.021 . S
Co84 O96 2.137 . S
Co84 O97 2.244 . S
O85 Co84 2.216 . S
O85 C92 1.247 . S
O86 Co84 2.091 . S
O86 C92 1.261 . S
C87 O96 1.247 . S
C87 O97 1.272 . S
O88 Co84 2.004 . S
O88 C93 1.259 . S
Co89 O90 2.061 . S
Co89 O95 2.052 . S
Co89 O97 2.135 . S
O90 Co89 2.061 . S
O90 C93 1.235 . S
C91 O94 1.238 . S
C91 O95 1.241 . S
C92 O85 1.247 . S
C92 O86 1.261 . S
C93 O88 1.259 . S
C93 O90 1.235 . S
O94 Co84 2.021 . S
O94 C91 1.238 . S
O95 Co89 2.052 . S
O95 C91 1.241 . S
O96 Co84 2.137 . S
O96 C87 1.247 . S
O97 Co84 2.244 . S
O97 C87 1.272 . S
O97 Co89 2.135 . S
Co98 O99 2.216 . S
Co98 O100 2.091 . S
Co98 O102 2.004 . S
Co98 O108 2.021 . S
Co98 O110 2.137 . S
Co98 O111 2.244 . S
O99 Co98 2.216 . S
O99 C106 1.247 . S
O100 Co98 2.091 . S
O100 C106 1.261 . S
C101 O110 1.247 . S
C101 O111 1.272 . S
O102 Co98 2.004 . S
O102 C107 1.259 . S
Co103 O104 2.061 . S
Co103 O109 2.052 . S
Co103 O111 2.135 . S
O104 Co103 2.061 . S
O104 C107 1.235 . S
C105 O108 1.238 . S
C105 O109 1.241 . S
C106 O99 1.247 . S
C106 O100 1.261 . S
C107 O102 1.259 . S
C107 O104 1.235 . S
O108 Co98 2.021 . S
O108 C105 1.238 . S
O109 Co103 2.052 . S
O109 C105 1.241 . S
O110 Co98 2.137 . S
O110 C101 1.247 . S
O111 Co98 2.244 . S
O111 C101 1.272 . S
O111 Co103 2.135 . S
Co112 O113 2.216 . S
Co112 O114 2.091 . S
Co112 O116 2.004 . S
Co112 O122 2.021 . S
Co112 O124 2.137 . S
Co112 O125 2.244 . S
O113 Co112 2.216 . S
O113 C120 1.247 . S
O114 Co112 2.091 . S
O114 C120 1.261 . S
C115 O124 1.247 . S
C115 O125 1.272 . S
O116 Co112 2.004 . S
O116 C121 1.259 . S
Co117 O118 2.061 . S
Co117 O123 2.052 . S
Co117 O125 2.135 . S
O118 Co117 2.061 . S
O118 C121 1.235 . S
C119 O122 1.238 . S
C119 O123 1.241 . S
C120 O113 1.247 . S
C120 O114 1.261 . S
C121 O116 1.259 . S
C121 O118 1.235 . S
O122 Co112 2.021 . S
O122 C119 1.238 . S
O123 Co117 2.052 . S
O123 C119 1.241 . S
O124 Co112 2.137 . S
O124 C115 1.247 . S
O125 Co112 2.244 . S
O125 C115 1.272 . S
O125 Co117 2.135 . S
Co126 O127 2.216 . S
Co126 O128 2.091 . S
Co126 O130 2.004 . S
Co126 O136 2.021 . S
Co126 O138 2.137 . S
Co126 O139 2.244 . S
O127 Co126 2.216 . S
O127 C134 1.247 . S
O128 Co126 2.091 . S
O128 C134 1.261 . S
C129 O138 1.247 . S
C129 O139 1.272 . S
O130 Co126 2.004 . S
O130 C135 1.259 . S
Co131 O132 2.061 . S
Co131 O137 2.052 . S
Co131 O139 2.135 . S
O132 Co131 2.061 . S
O132 C135 1.235 . S
C133 O136 1.238 . S
C133 O137 1.241 . S
C134 O127 1.247 . S
C134 O128 1.261 . S
C135 O130 1.259 . S
C135 O132 1.235 . S
O136 Co126 2.021 . S
O136 C133 1.238 . S
O137 Co131 2.052 . S
O137 C133 1.241 . S
O138 Co126 2.137 . S
O138 C129 1.247 . S
O139 Co126 2.244 . S
O139 C129 1.272 . S
O139 Co131 2.135 . S
Co140 O141 2.216 . S
Co140 O142 2.091 . S
Co140 O144 2.004 . S
Co140 O150 2.021 . S
Co140 O152 2.137 . S
Co140 O153 2.244 . S
O141 Co140 2.216 . S
O141 C148 1.247 . S
O142 Co140 2.091 . S
O142 C148 1.261 . S
C143 O152 1.247 . S
C143 O153 1.272 . S
O144 Co140 2.004 . S
O144 C149 1.259 . S
Co145 O146 2.061 . S
Co145 O151 2.052 . S
Co145 O153 2.135 . S
O146 Co145 2.061 . S
O146 C149 1.235 . S
C147 O150 1.238 . S
C147 O151 1.241 . S
C148 O141 1.247 . S
C148 O142 1.261 . S
C149 O144 1.259 . S
C149 O146 1.235 . S
O150 Co140 2.021 . S
O150 C147 1.238 . S
O151 Co145 2.052 . S
O151 C147 1.241 . S
O152 Co140 2.137 . S
O152 C143 1.247 . S
O153 Co140 2.244 . S
O153 C143 1.272 . S
O153 Co145 2.135 . S
Co154 O155 2.216 . S
Co154 O156 2.091 . S
Co154 O158 2.004 . S
Co154 O164 2.021 . S
Co154 O166 2.137 . S
Co154 O167 2.244 . S
O155 Co154 2.216 . S
O155 C162 1.247 . S
O156 Co154 2.091 . S
O156 C162 1.261 . S
C157 O166 1.247 . S
C157 O167 1.272 . S
O158 Co154 2.004 . S
O158 C163 1.259 . S
Co159 O160 2.061 . S
Co159 O165 2.052 . S
Co159 O167 2.135 . S
O160 Co159 2.061 . S
O160 C163 1.235 . S
C161 O164 1.238 . S
C161 O165 1.241 . S
C162 O155 1.247 . S
C162 O156 1.261 . S
C163 O158 1.259 . S
C163 O160 1.235 . S
O164 Co154 2.021 . S
O164 C161 1.238 . S
O165 Co159 2.052 . S
O165 C161 1.241 . S
O166 Co154 2.137 . S
O166 C157 1.247 . S
O167 Co154 2.244 . S
O167 C157 1.272 . S
O167 Co159 2.135 . S
Co168 O169 2.216 . S
Co168 O170 2.091 . S
Co168 O172 2.004 . S
Co168 O178 2.021 . S
Co168 O180 2.137 . S
Co168 O181 2.244 . S
O169 Co168 2.216 . S
O169 C176 1.247 . S
O170 Co168 2.091 . S
O170 C176 1.261 . S
C171 O180 1.247 . S
C171 O181 1.272 . S
O172 Co168 2.004 . S
O172 C177 1.259 . S
Co173 O174 2.061 . S
Co173 O179 2.052 . S
Co173 O181 2.135 . S
O174 Co173 2.061 . S
O174 C177 1.235 . S
C175 O178 1.238 . S
C175 O179 1.241 . S
C176 O169 1.247 . S
C176 O170 1.261 . S
C177 O172 1.259 . S
C177 O174 1.235 . S
O178 Co168 2.021 . S
O178 C175 1.238 . S
O179 Co173 2.052 . S
O179 C175 1.241 . S
O180 Co168 2.137 . S
O180 C171 1.247 . S
O181 Co168 2.244 . S
O181 C171 1.272 . S
O181 Co173 2.135 . S
Co182 O183 2.216 . S
Co182 O184 2.091 . S
Co182 O186 2.004 . S
Co182 O192 2.021 . S
Co182 O194 2.137 . S
Co182 O195 2.244 . S
O183 Co182 2.216 . S
O183 C190 1.247 . S
O184 Co182 2.091 . S
O184 C190 1.261 . S
C185 O194 1.247 . S
C185 O195 1.272 . S
O186 Co182 2.004 . S
O186 C191 1.259 . S
Co187 O188 2.061 . S
Co187 O193 2.052 . S
Co187 O195 2.135 . S
O188 Co187 2.061 . S
O188 C191 1.235 . S
C189 O192 1.238 . S
C189 O193 1.241 . S
C190 O183 1.247 . S
C190 O184 1.261 . S
C191 O186 1.259 . S
C191 O188 1.235 . S
O192 Co182 2.021 . S
O192 C189 1.238 . S
O193 Co187 2.052 . S
O193 C189 1.241 . S
O194 Co182 2.137 . S
O194 C185 1.247 . S
O195 Co182 2.244 . S
O195 C185 1.272 . S
O195 Co187 2.135 . S
Co196 O197 2.216 . S
Co196 O198 2.091 . S
Co196 O200 2.004 . S
Co196 O206 2.021 . S
Co196 O208 2.137 . S
Co196 O209 2.244 . S
O197 Co196 2.216 . S
O197 C204 1.247 . S
O198 Co196 2.091 . S
O198 C204 1.261 . S
C199 O208 1.247 . S
C199 O209 1.272 . S
O200 Co196 2.004 . S
O200 C205 1.259 . S
Co201 O202 2.061 . S
Co201 O207 2.052 . S
Co201 O209 2.135 . S
O202 Co201 2.061 . S
O202 C205 1.235 . S
C203 O206 1.238 . S
C203 O207 1.241 . S
C204 O197 1.247 . S
C204 O198 1.261 . S
C205 O200 1.259 . S
C205 O202 1.235 . S
O206 Co196 2.021 . S
O206 C203 1.238 . S
O207 Co201 2.052 . S
O207 C203 1.241 . S
O208 Co196 2.137 . S
O208 C199 1.247 . S
O209 Co196 2.244 . S
O209 C199 1.272 . S
O209 Co201 2.135 . S
Co210 O211 2.216 . S
Co210 O212 2.091 1_554 S
Co210 O214 2.004 . S
Co210 O220 2.021 . S
Co210 O222 2.137 . S
Co210 O223 2.244 . S
O211 Co210 2.216 . S
O211 C218 1.247 1_554 S
O212 Co210 2.091 1_556 S
O212 C218 1.261 . S
C213 O222 1.247 . S
C213 O223 1.272 . S
O214 Co210 2.004 . S
O214 C219 1.259 . S
Co215 O216 2.061 . S
Co215 O221 2.052 . S
Co215 O223 2.135 . S
O216 Co215 2.061 . S
O216 C219 1.235 . S
C217 O220 1.238 . S
C217 O221 1.241 . S
C218 O211 1.247 1_556 S
C218 O212 1.261 . S
C219 O214 1.259 . S
C219 O216 1.235 . S
O220 Co210 2.021 . S
O220 C217 1.238 . S
O221 Co215 2.052 . S
O221 C217 1.241 . S
O222 Co210 2.137 . S
O222 C213 1.247 . S
O223 Co210 2.244 . S
O223 C213 1.272 . S
O223 Co215 2.135 . S
Co224 O225 2.216 . S
Co224 O226 2.091 1_554 S
Co224 O228 2.004 . S
Co224 O234 2.021 . S
Co224 O236 2.137 . S
Co224 O237 2.244 . S
O225 Co224 2.216 . S
O225 C232 1.247 1_554 S
O226 Co224 2.091 1_556 S
O226 C232 1.261 . S
C227 O236 1.247 . S
C227 O237 1.272 . S
O228 Co224 2.004 . S
O228 C233 1.259 . S
Co229 O230 2.061 . S
Co229 O235 2.052 . S
Co229 O237 2.135 . S
O230 Co229 2.061 . S
O230 C233 1.235 . S
C231 O234 1.238 . S
C231 O235 1.241 . S
C232 O225 1.247 1_556 S
C232 O226 1.261 . S
C233 O228 1.259 . S
C233 O230 1.235 . S
O234 Co224 2.021 . S
O234 C231 1.238 . S
O235 Co229 2.052 . S
O235 C231 1.241 . S
O236 Co224 2.137 . S
O236 C227 1.247 . S
O237 Co224 2.244 . S
O237 C227 1.272 . S
O237 Co229 2.135 . S
Co238 O239 2.216 . S
Co238 O240 2.091 1_554 S
Co238 O242 2.004 . S
Co238 O248 2.021 . S
Co238 O250 2.137 . S
Co238 O251 2.244 . S
O239 Co238 2.216 . S
O239 C246 1.247 1_554 S
O240 Co238 2.091 1_556 S
O240 C246 1.261 . S
C241 O250 1.247 . S
C241 O251 1.272 . S
O242 Co238 2.004 . S
O242 C247 1.259 . S
Co243 O244 2.061 . S
Co243 O249 2.052 . S
Co243 O251 2.135 . S
O244 Co243 2.061 . S
O244 C247 1.235 . S
C245 O248 1.238 . S
C245 O249 1.241 . S
C246 O239 1.247 1_556 S
C246 O240 1.261 . S
C247 O242 1.259 . S
C247 O244 1.235 . S
O248 Co238 2.021 . S
O248 C245 1.238 . S
O249 Co243 2.052 . S
O249 C245 1.241 . S
O250 Co238 2.137 . S
O250 C241 1.247 . S
O251 Co238 2.244 . S
O251 C241 1.272 . S
O251 Co243 2.135 . S
Co252 O253 2.216 . S
Co252 O254 2.091 1_554 S
Co252 O256 2.004 . S
Co252 O262 2.021 . S
Co252 O264 2.137 . S
Co252 O265 2.244 . S
O253 Co252 2.216 . S
O253 C260 1.247 1_554 S
O254 Co252 2.091 1_556 S
O254 C260 1.261 . S
C255 O264 1.247 . S
C255 O265 1.272 . S
O256 Co252 2.004 . S
O256 C261 1.259 . S
Co257 O258 2.061 . S
Co257 O263 2.052 . S
Co257 O265 2.135 . S
O258 Co257 2.061 . S
O258 C261 1.235 . S
C259 O262 1.238 . S
C259 O263 1.241 . S
C260 O253 1.247 1_556 S
C260 O254 1.261 . S
C261 O256 1.259 . S
C261 O258 1.235 . S
O262 Co252 2.021 . S
O262 C259 1.238 . S
O263 Co257 2.052 . S
O263 C259 1.241 . S
O264 Co252 2.137 . S
O264 C255 1.247 . S
O265 Co252 2.244 . S
O265 C255 1.272 . S
O265 Co257 2.135 . S
Co266 O267 2.216 . S
Co266 O268 2.091 1_554 S
Co266 O270 2.004 . S
Co266 O276 2.021 . S
Co266 O278 2.137 . S
Co266 O279 2.244 . S
O267 Co266 2.216 . S
O267 C274 1.247 1_554 S
O268 Co266 2.091 1_556 S
O268 C274 1.261 . S
C269 O278 1.247 . S
C269 O279 1.272 . S
O270 Co266 2.004 . S
O270 C275 1.259 . S
Co271 O272 2.061 . S
Co271 O277 2.052 . S
Co271 O279 2.135 . S
O272 Co271 2.061 . S
O272 C275 1.235 . S
C273 O276 1.238 . S
C273 O277 1.241 . S
C274 O267 1.247 1_556 S
C274 O268 1.261 . S
C275 O270 1.259 . S
C275 O272 1.235 . S
O276 Co266 2.021 . S
O276 C273 1.238 . S
O277 Co271 2.052 . S
O277 C273 1.241 . S
O278 Co266 2.137 . S
O278 C269 1.247 . S
O279 Co266 2.244 . S
O279 C269 1.272 . S
O279 Co271 2.135 . S
Co280 O281 2.216 . S
Co280 O282 2.091 1_554 S
Co280 O284 2.004 . S
Co280 O290 2.021 . S
Co280 O292 2.137 . S
Co280 O293 2.244 . S
O281 Co280 2.216 . S
O281 C288 1.247 1_554 S
O282 Co280 2.091 1_556 S
O282 C288 1.261 . S
C283 O292 1.247 . S
C283 O293 1.272 . S
O284 Co280 2.004 . S
O284 C289 1.259 . S
Co285 O286 2.061 . S
Co285 O291 2.052 . S
Co285 O293 2.135 . S
O286 Co285 2.061 . S
O286 C289 1.235 . S
C287 O290 1.238 . S
C287 O291 1.241 . S
C288 O281 1.247 1_556 S
C288 O282 1.261 . S
C289 O284 1.259 . S
C289 O286 1.235 . S
O290 Co280 2.021 . S
O290 C287 1.238 . S
O291 Co285 2.052 . S
O291 C287 1.241 . S
O292 Co280 2.137 . S
O292 C283 1.247 . S
O293 Co280 2.244 . S
O293 C283 1.272 . S
O293 Co285 2.135 . S
Co294 O295 2.216 . S
Co294 O296 2.091 . S
Co294 O298 2.004 . S
Co294 O304 2.021 . S
Co294 O306 2.137 . S
Co294 O307 2.244 . S
O295 Co294 2.216 . S
O295 C302 1.247 . S
O296 Co294 2.091 . S
O296 C302 1.261 . S
C297 O306 1.247 . S
C297 O307 1.272 . S
O298 Co294 2.004 . S
O298 C303 1.259 . S
Co299 O300 2.061 . S
Co299 O305 2.052 . S
Co299 O307 2.135 . S
O300 Co299 2.061 . S
O300 C303 1.235 . S
C301 O304 1.238 . S
C301 O305 1.241 . S
C302 O295 1.247 . S
C302 O296 1.261 . S
C303 O298 1.259 . S
C303 O300 1.235 . S
O304 Co294 2.021 . S
O304 C301 1.238 . S
O305 Co299 2.052 . S
O305 C301 1.241 . S
O306 Co294 2.137 . S
O306 C297 1.247 . S
O307 Co294 2.244 . S
O307 C297 1.272 . S
O307 Co299 2.135 . S
Co308 O309 2.216 . S
Co308 O310 2.091 . S
Co308 O312 2.004 . S
Co308 O318 2.021 . S
Co308 O320 2.137 . S
Co308 O321 2.244 . S
O309 Co308 2.216 . S
O309 C316 1.247 . S
O310 Co308 2.091 . S
O310 C316 1.261 . S
C311 O320 1.247 . S
C311 O321 1.272 . S
O312 Co308 2.004 . S
O312 C317 1.259 . S
Co313 O314 2.061 . S
Co313 O319 2.052 . S
Co313 O321 2.135 . S
O314 Co313 2.061 . S
O314 C317 1.235 . S
C315 O318 1.238 . S
C315 O319 1.241 . S
C316 O309 1.247 . S
C316 O310 1.261 . S
C317 O312 1.259 . S
C317 O314 1.235 . S
O318 Co308 2.021 . S
O318 C315 1.238 . S
O319 Co313 2.052 . S
O319 C315 1.241 . S
O320 Co308 2.137 . S
O320 C311 1.247 . S
O321 Co308 2.244 . S
O321 C311 1.272 . S
O321 Co313 2.135 . S
Co322 O323 2.216 . S
Co322 O324 2.091 . S
Co322 O326 2.004 . S
Co322 O332 2.021 . S
Co322 O334 2.137 . S
Co322 O335 2.244 . S
O323 Co322 2.216 . S
O323 C330 1.247 . S
O324 Co322 2.091 . S
O324 C330 1.261 . S
C325 O334 1.247 . S
C325 O335 1.272 . S
O326 Co322 2.004 . S
O326 C331 1.259 . S
Co327 O328 2.061 . S
Co327 O333 2.052 . S
Co327 O335 2.135 . S
O328 Co327 2.061 . S
O328 C331 1.235 . S
C329 O332 1.238 . S
C329 O333 1.241 . S
C330 O323 1.247 . S
C330 O324 1.261 . S
C331 O326 1.259 . S
C331 O328 1.235 . S
O332 Co322 2.021 . S
O332 C329 1.238 . S
O333 Co327 2.052 . S
O333 C329 1.241 . S
O334 Co322 2.137 . S
O334 C325 1.247 . S
O335 Co322 2.244 . S
O335 C325 1.272 . S
O335 Co327 2.135 . S
Co336 O337 2.216 . S
Co336 O338 2.091 1_556 S
Co336 O340 2.004 . S
Co336 O346 2.021 . S
Co336 O348 2.137 . S
Co336 O349 2.244 . S
O337 Co336 2.216 . S
O337 C344 1.247 1_556 S
O338 Co336 2.091 1_554 S
O338 C344 1.261 . S
C339 O348 1.247 . S
C339 O349 1.272 . S
O340 Co336 2.004 . S
O340 C345 1.259 . S
Co341 O342 2.061 . S
Co341 O347 2.052 . S
Co341 O349 2.135 . S
O342 Co341 2.061 . S
O342 C345 1.235 . S
C343 O346 1.238 . S
C343 O347 1.241 . S
C344 O337 1.247 1_554 S
C344 O338 1.261 . S
C345 O340 1.259 . S
C345 O342 1.235 . S
O346 Co336 2.021 . S
O346 C343 1.238 . S
O347 Co341 2.052 . S
O347 C343 1.241 . S
O348 Co336 2.137 . S
O348 C339 1.247 . S
O349 Co336 2.244 . S
O349 C339 1.272 . S
O349 Co341 2.135 . S
Co350 O351 2.216 . S
Co350 O352 2.091 1_556 S
Co350 O354 2.004 . S
Co350 O360 2.021 . S
Co350 O362 2.137 . S
Co350 O363 2.244 . S
O351 Co350 2.216 . S
O351 C358 1.247 1_556 S
O352 Co350 2.091 1_554 S
O352 C358 1.261 . S
C353 O362 1.247 . S
C353 O363 1.272 . S
O354 Co350 2.004 . S
O354 C359 1.259 . S
Co355 O356 2.061 . S
Co355 O361 2.052 . S
Co355 O363 2.135 . S
O356 Co355 2.061 . S
O356 C359 1.235 . S
C357 O360 1.238 . S
C357 O361 1.241 . S
C358 O351 1.247 1_554 S
C358 O352 1.261 . S
C359 O354 1.259 . S
C359 O356 1.235 . S
O360 Co350 2.021 . S
O360 C357 1.238 . S
O361 Co355 2.052 . S
O361 C357 1.241 . S
O362 Co350 2.137 . S
O362 C353 1.247 . S
O363 Co350 2.244 . S
O363 C353 1.272 . S
O363 Co355 2.135 . S
Co364 O365 2.216 . S
Co364 O366 2.091 1_556 S
Co364 O368 2.004 . S
Co364 O374 2.021 . S
Co364 O376 2.137 . S
Co364 O377 2.244 . S
O365 Co364 2.216 . S
O365 C372 1.247 1_556 S
O366 Co364 2.091 1_554 S
O366 C372 1.261 . S
C367 O376 1.247 . S
C367 O377 1.272 . S
O368 Co364 2.004 . S
O368 C373 1.259 . S
Co369 O370 2.061 . S
Co369 O375 2.052 . S
Co369 O377 2.135 . S
O370 Co369 2.061 . S
O370 C373 1.235 . S
C371 O374 1.238 . S
C371 O375 1.241 . S
C372 O365 1.247 1_554 S
C372 O366 1.261 . S
C373 O368 1.259 . S
C373 O370 1.235 . S
O374 Co364 2.021 . S
O374 C371 1.238 . S
O375 Co369 2.052 . S
O375 C371 1.241 . S
O376 Co364 2.137 . S
O376 C367 1.247 . S
O377 Co364 2.244 . S
O377 C367 1.272 . S
O377 Co369 2.135 . S
Co378 O379 2.216 . S
Co378 O380 2.091 . S
Co378 O382 2.004 . S
Co378 O388 2.021 . S
Co378 O390 2.137 . S
Co378 O391 2.244 . S
O379 Co378 2.216 . S
O379 C386 1.247 . S
O380 Co378 2.091 . S
O380 C386 1.261 . S
C381 O390 1.247 . S
C381 O391 1.272 . S
O382 Co378 2.004 . S
O382 C387 1.259 . S
Co383 O384 2.061 . S
Co383 O389 2.052 . S
Co383 O391 2.135 . S
O384 Co383 2.061 . S
O384 C387 1.235 . S
C385 O388 1.238 . S
C385 O389 1.241 . S
C386 O379 1.247 . S
C386 O380 1.261 . S
C387 O382 1.259 . S
C387 O384 1.235 . S
O388 Co378 2.021 . S
O388 C385 1.238 . S
O389 Co383 2.052 . S
O389 C385 1.241 . S
O390 Co378 2.137 . S
O390 C381 1.247 . S
O391 Co378 2.244 . S
O391 C381 1.272 . S
O391 Co383 2.135 . S
Co392 O393 2.216 . S
Co392 O394 2.091 . S
Co392 O396 2.004 . S
Co392 O402 2.021 . S
Co392 O404 2.137 . S
Co392 O405 2.244 . S
O393 Co392 2.216 . S
O393 C400 1.247 . S
O394 Co392 2.091 . S
O394 C400 1.261 . S
C395 O404 1.247 . S
C395 O405 1.272 . S
O396 Co392 2.004 . S
O396 C401 1.259 . S
Co397 O398 2.061 . S
Co397 O403 2.052 . S
Co397 O405 2.135 . S
O398 Co397 2.061 . S
O398 C401 1.235 . S
C399 O402 1.238 . S
C399 O403 1.241 . S
C400 O393 1.247 . S
C400 O394 1.261 . S
C401 O396 1.259 . S
C401 O398 1.235 . S
O402 Co392 2.021 . S
O402 C399 1.238 . S
O403 Co397 2.052 . S
O403 C399 1.241 . S
O404 Co392 2.137 . S
O404 C395 1.247 . S
O405 Co392 2.244 . S
O405 C395 1.272 . S
O405 Co397 2.135 . S
Co406 O407 2.216 . S
Co406 O408 2.091 . S
Co406 O410 2.004 . S
Co406 O416 2.021 . S
Co406 O418 2.137 . S
Co406 O419 2.244 . S
O407 Co406 2.216 . S
O407 C414 1.247 . S
O408 Co406 2.091 . S
O408 C414 1.261 . S
C409 O418 1.247 . S
C409 O419 1.272 . S
O410 Co406 2.004 . S
O410 C415 1.259 . S
Co411 O412 2.061 . S
Co411 O417 2.052 . S
Co411 O419 2.135 . S
O412 Co411 2.061 . S
O412 C415 1.235 . S
C413 O416 1.238 . S
C413 O417 1.241 . S
C414 O407 1.247 . S
C414 O408 1.261 . S
C415 O410 1.259 . S
C415 O412 1.235 . S
O416 Co406 2.021 . S
O416 C413 1.238 . S
O417 Co411 2.052 . S
O417 C413 1.241 . S
O418 Co406 2.137 . S
O418 C409 1.247 . S
O419 Co406 2.244 . S
O419 C409 1.272 . S
O419 Co411 2.135 . S
Co420 O421 2.216 . S
Co420 O422 2.091 . S
Co420 O424 2.004 . S
Co420 O430 2.021 . S
Co420 O432 2.137 . S
Co420 O433 2.244 . S
O421 Co420 2.216 . S
O421 C428 1.247 . S
O422 Co420 2.091 . S
O422 C428 1.261 . S
C423 O432 1.247 . S
C423 O433 1.272 . S
O424 Co420 2.004 . S
O424 C429 1.259 . S
Co425 O426 2.061 . S
Co425 O431 2.052 . S
Co425 O433 2.135 . S
O426 Co425 2.061 . S
O426 C429 1.235 . S
C427 O430 1.238 . S
C427 O431 1.241 . S
C428 O421 1.247 . S
C428 O422 1.261 . S
C429 O424 1.259 . S
C429 O426 1.235 . S
O430 Co420 2.021 . S
O430 C427 1.238 . S
O431 Co425 2.052 . S
O431 C427 1.241 . S
O432 Co420 2.137 . S
O432 C423 1.247 . S
O433 Co420 2.244 . S
O433 C423 1.272 . S
O433 Co425 2.135 . S
Co434 O435 2.216 . S
Co434 O436 2.091 . S
Co434 O438 2.004 . S
Co434 O444 2.021 . S
Co434 O446 2.137 . S
Co434 O447 2.244 . S
O435 Co434 2.216 . S
O435 C442 1.247 . S
O436 Co434 2.091 . S
O436 C442 1.261 . S
C437 O446 1.247 . S
C437 O447 1.272 . S
O438 Co434 2.004 . S
O438 C443 1.259 . S
Co439 O440 2.061 . S
Co439 O445 2.052 . S
Co439 O447 2.135 . S
O440 Co439 2.061 . S
O440 C443 1.235 . S
C441 O444 1.238 . S
C441 O445 1.241 . S
C442 O435 1.247 . S
C442 O436 1.261 . S
C443 O438 1.259 . S
C443 O440 1.235 . S
O444 Co434 2.021 . S
O444 C441 1.238 . S
O445 Co439 2.052 . S
O445 C441 1.241 . S
O446 Co434 2.137 . S
O446 C437 1.247 . S
O447 Co434 2.244 . S
O447 C437 1.272 . S
O447 Co439 2.135 . S
Co448 O449 2.216 . S
Co448 O450 2.091 . S
Co448 O452 2.004 . S
Co448 O458 2.021 . S
Co448 O460 2.137 . S
Co448 O461 2.244 . S
O449 Co448 2.216 . S
O449 C456 1.247 . S
O450 Co448 2.091 . S
O450 C456 1.261 . S
C451 O460 1.247 . S
C451 O461 1.272 . S
O452 Co448 2.004 . S
O452 C457 1.259 . S
Co453 O454 2.061 . S
Co453 O459 2.052 . S
Co453 O461 2.135 . S
O454 Co453 2.061 . S
O454 C457 1.235 . S
C455 O458 1.238 . S
C455 O459 1.241 . S
C456 O449 1.247 . S
C456 O450 1.261 . S
C457 O452 1.259 . S
C457 O454 1.235 . S
O458 Co448 2.021 . S
O458 C455 1.238 . S
O459 Co453 2.052 . S
O459 C455 1.241 . S
O460 Co448 2.137 . S
O460 C451 1.247 . S
O461 Co448 2.244 . S
O461 C451 1.272 . S
O461 Co453 2.135 . S
Co462 O463 2.216 . S
Co462 O464 2.091 1_556 S
Co462 O466 2.004 . S
Co462 O472 2.021 . S
Co462 O474 2.137 . S
Co462 O475 2.244 . S
O463 Co462 2.216 . S
O463 C470 1.247 1_556 S
O464 Co462 2.091 1_554 S
O464 C470 1.261 . S
C465 O474 1.247 . S
C465 O475 1.272 . S
O466 Co462 2.004 . S
O466 C471 1.259 . S
Co467 O468 2.061 . S
Co467 O473 2.052 . S
Co467 O475 2.135 . S
O468 Co467 2.061 . S
O468 C471 1.235 . S
C469 O472 1.238 . S
C469 O473 1.241 . S
C470 O463 1.247 1_554 S
C470 O464 1.261 . S
C471 O466 1.259 . S
C471 O468 1.235 . S
O472 Co462 2.021 . S
O472 C469 1.238 . S
O473 Co467 2.052 . S
O473 C469 1.241 . S
O474 Co462 2.137 . S
O474 C465 1.247 . S
O475 Co462 2.244 . S
O475 C465 1.272 . S
O475 Co467 2.135 . S
Co476 O477 2.216 . S
Co476 O478 2.091 1_556 S
Co476 O480 2.004 . S
Co476 O486 2.021 . S
Co476 O488 2.137 . S
Co476 O489 2.244 . S
O477 Co476 2.216 . S
O477 C484 1.247 1_556 S
O478 Co476 2.091 1_554 S
O478 C484 1.261 . S
C479 O488 1.247 . S
C479 O489 1.272 . S
O480 Co476 2.004 . S
O480 C485 1.259 . S
Co481 O482 2.061 . S
Co481 O487 2.052 . S
Co481 O489 2.135 . S
O482 Co481 2.061 . S
O482 C485 1.235 . S
C483 O486 1.238 . S
C483 O487 1.241 . S
C484 O477 1.247 1_554 S
C484 O478 1.261 . S
C485 O480 1.259 . S
C485 O482 1.235 . S
O486 Co476 2.021 . S
O486 C483 1.238 . S
O487 Co481 2.052 . S
O487 C483 1.241 . S
O488 Co476 2.137 . S
O488 C479 1.247 . S
O489 Co476 2.244 . S
O489 C479 1.272 . S
O489 Co481 2.135 . S
Co490 O491 2.216 . S
Co490 O492 2.091 1_556 S
Co490 O494 2.004 . S
Co490 O500 2.021 . S
Co490 O502 2.137 . S
Co490 O503 2.244 . S
O491 Co490 2.216 . S
O491 C498 1.247 1_556 S
O492 Co490 2.091 1_554 S
O492 C498 1.261 . S
C493 O502 1.247 . S
C493 O503 1.272 . S
O494 Co490 2.004 . S
O494 C499 1.259 . S
Co495 O496 2.061 . S
Co495 O501 2.052 . S
Co495 O503 2.135 . S
O496 Co495 2.061 . S
O496 C499 1.235 . S
C497 O500 1.238 . S
C497 O501 1.241 . S
C498 O491 1.247 1_554 S
C498 O492 1.261 . S
C499 O494 1.259 . S
C499 O496 1.235 . S
O500 Co490 2.021 . S
O500 C497 1.238 . S
O501 Co495 2.052 . S
O501 C497 1.241 . S
O502 Co490 2.137 . S
O502 C493 1.247 . S
O503 Co490 2.244 . S
O503 C493 1.272 . S
O503 Co495 2.135 . S
C504 C505 1.363 1_545 S
C504 C510 1.379 . S
C504 N512 1.356 . S
C505 C504 1.363 1_565 S
C505 C511 1.363 . S
C506 C507 1.363 1_565 S
C506 C511 1.379 . S
C506 N513 1.356 . S
C507 C506 1.363 1_545 S
C507 C510 1.363 . S
N508 C510 1.356 . S
N508 H520 0.984 . S
N508 H521 0.985 . S
N509 C511 1.356 . S
N509 H514 0.984 . S
N509 H515 0.985 . S
C510 C504 1.379 . S
C510 C507 1.363 . S
C510 N508 1.356 . S
C511 C505 1.363 . S
C511 C506 1.379 . S
C511 N509 1.356 . S
N512 C504 1.356 . S
N512 H518 0.984 . S
N512 H519 0.984 1_545 S
N513 C506 1.356 . S
N513 H516 0.984 1_565 S
N513 H517 0.985 . S
H514 N509 0.984 . S
H515 N509 0.985 . S
H516 N513 0.984 1_545 S
H517 N513 0.985 . S
H518 N512 0.984 . S
H519 N512 0.984 1_565 S
H520 N508 0.984 . S
H521 N508 0.985 . S
C522 C523 1.363 . S
C522 C528 1.379 1_455 S
C522 N530 1.356 . S
C523 C522 1.363 . S
C523 C529 1.363 . S
C524 C525 1.363 . S
C524 C529 1.379 1_655 S
C524 N531 1.356 . S
C525 C524 1.363 . S
C525 C528 1.363 . S
N526 C528 1.356 . S
N526 H538 0.984 . S
N526 H539 0.985 . S
N527 C529 1.356 . S
N527 H532 0.984 . S
N527 H533 0.985 . S
C528 C522 1.379 1_655 S
C528 C525 1.363 . S
C528 N526 1.356 . S
C529 C523 1.363 . S
C529 C524 1.379 1_455 S
C529 N527 1.356 . S
N530 C522 1.356 . S
N530 H536 0.984 . S
N530 H537 0.984 . S
N531 C524 1.356 . S
N531 H534 0.984 . S
N531 H535 0.985 . S
H532 N527 0.984 . S
H533 N527 0.985 . S
H534 N531 0.984 . S
H535 N531 0.985 . S
H536 N530 0.984 . S
H537 N530 0.984 . S
H538 N526 0.984 . S
H539 N526 0.985 . S
C540 C541 1.363 . S
C540 C546 1.379 . S
C540 N548 1.356 . S
C541 C540 1.363 . S
C541 C547 1.363 . S
C542 C543 1.363 . S
C542 C547 1.379 . S
C542 N549 1.356 . S
C543 C542 1.363 . S
C543 C546 1.363 . S
N544 C546 1.356 . S
N544 H556 0.984 . S
N544 H557 0.985 . S
N545 C547 1.356 . S
N545 H550 0.984 . S
N545 H551 0.985 . S
C546 C540 1.379 . S
C546 C543 1.363 . S
C546 N544 1.356 . S
C547 C541 1.363 . S
C547 C542 1.379 . S
C547 N545 1.356 . S
N548 C540 1.356 . S
N548 H554 0.984 . S
N548 H555 0.984 . S
N549 C542 1.356 . S
N549 H552 0.984 . S
N549 H553 0.985 . S
H550 N545 0.984 . S
H551 N545 0.985 . S
H552 N549 0.984 . S
H553 N549 0.985 . S
H554 N548 0.984 . S
H555 N548 0.984 . S
H556 N544 0.984 . S
H557 N544 0.985 . S
C558 C559 1.363 . S
C558 C564 1.379 . S
C558 N566 1.356 . S
C559 C558 1.363 . S
C559 C565 1.363 1_565 S
C560 C561 1.363 . S
C560 C565 1.379 . S
C560 N567 1.356 . S
C561 C560 1.363 . S
C561 C564 1.363 1_545 S
N562 C564 1.356 1_545 S
N562 H574 0.984 1_545 S
N562 H575 0.985 . S
N563 C565 1.356 1_565 S
N563 H568 0.984 . S
N563 H569 0.985 1_565 S
C564 C558 1.379 . S
C564 C561 1.363 1_565 S
C564 N562 1.356 1_565 S
C565 C559 1.363 1_545 S
C565 C560 1.379 . S
C565 N563 1.356 1_545 S
N566 C558 1.356 . S
N566 H572 0.984 . S
N566 H573 0.984 . S
N567 C560 1.356 . S
N567 H570 0.984 . S
N567 H571 0.985 . S
H568 N563 0.984 . S
H569 N563 0.985 1_545 S
H570 N567 0.984 . S
H571 N567 0.985 . S
H572 N566 0.984 . S
H573 N566 0.984 . S
H574 N562 0.984 1_565 S
H575 N562 0.985 . S
C576 C577 1.363 1_655 S
C576 C582 1.379 . S
C576 N584 1.356 . S
C577 C576 1.363 1_455 S
C577 C583 1.363 . S
C578 C579 1.363 1_455 S
C578 C583 1.379 . S
C578 N585 1.356 . S
C579 C578 1.363 1_655 S
C579 C582 1.363 . S
N580 C582 1.356 . S
N580 H592 0.984 . S
N580 H593 0.985 . S
N581 C583 1.356 . S
N581 H586 0.984 . S
N581 H587 0.985 . S
C582 C576 1.379 . S
C582 C579 1.363 . S
C582 N580 1.356 . S
C583 C577 1.363 . S
C583 C578 1.379 . S
C583 N581 1.356 . S
N584 C576 1.356 . S
N584 H590 0.984 . S
N584 H591 0.984 1_655 S
N585 C578 1.356 . S
N585 H588 0.984 1_455 S
N585 H589 0.985 . S
H586 N581 0.984 . S
H587 N581 0.985 . S
H588 N585 0.984 1_655 S
H589 N585 0.985 . S
H590 N584 0.984 . S
H591 N584 0.984 1_455 S
H592 N580 0.984 . S
H593 N580 0.985 . S
C594 C595 1.363 . S
C594 C600 1.379 . S
C594 N602 1.356 . S
C595 C594 1.363 . S
C595 C601 1.363 . S
C596 C597 1.363 . S
C596 C601 1.379 . S
C596 N603 1.356 . S
C597 C596 1.363 . S
C597 C600 1.363 . S
N598 C600 1.356 . S
N598 H610 0.984 . S
N598 H611 0.985 . S
N599 C601 1.356 . S
N599 H604 0.984 . S
N599 H605 0.985 . S
C600 C594 1.379 . S
C600 C597 1.363 . S
C600 N598 1.356 . S
C601 C595 1.363 . S
C601 C596 1.379 . S
C601 N599 1.356 . S
N602 C594 1.356 . S
N602 H608 0.984 . S
N602 H609 0.984 . S
N603 C596 1.356 . S
N603 H606 0.984 . S
N603 H607 0.985 . S
H604 N599 0.984 . S
H605 N599 0.985 . S
H606 N603 0.984 . S
H607 N603 0.985 . S
H608 N602 0.984 . S
H609 N602 0.984 . S
H610 N598 0.984 . S
H611 N598 0.985 . S
C612 C613 1.363 . S
C612 C618 1.379 . S
C612 N620 1.356 . S
C613 C612 1.363 . S
C613 C619 1.363 . S
C614 C615 1.363 . S
C614 C619 1.379 . S
C614 N621 1.356 . S
C615 C614 1.363 . S
C615 C618 1.363 . S
N616 C618 1.356 . S
N616 H628 0.984 1_556 S
N616 H629 0.985 1_556 S
N617 C619 1.356 . S
N617 H622 0.984 . S
N617 H623 0.985 . S
C618 C612 1.379 . S
C618 C615 1.363 . S
C618 N616 1.356 . S
C619 C613 1.363 . S
C619 C614 1.379 . S
C619 N617 1.356 . S
N620 C612 1.356 . S
N620 H626 0.984 . S
N620 H627 0.984 . S
N621 C614 1.356 . S
N621 H624 0.984 . S
N621 H625 0.985 . S
H622 N617 0.984 . S
H623 N617 0.985 . S
H624 N621 0.984 . S
H625 N621 0.985 . S
H626 N620 0.984 . S
H627 N620 0.984 . S
H628 N616 0.984 1_554 S
H629 N616 0.985 1_554 S
C630 C631 1.363 . S
C630 C636 1.379 . S
C630 N638 1.356 . S
C631 C630 1.363 . S
C631 C637 1.363 . S
C632 C633 1.363 . S
C632 C637 1.379 . S
C632 N639 1.356 . S
C633 C632 1.363 . S
C633 C636 1.363 . S
N634 C636 1.356 . S
N634 H646 0.984 . S
N634 H647 0.985 . S
N635 C637 1.356 . S
N635 H640 0.984 . S
N635 H641 0.985 . S
C636 C630 1.379 . S
C636 C633 1.363 . S
C636 N634 1.356 . S
C637 C631 1.363 . S
C637 C632 1.379 . S
C637 N635 1.356 . S
N638 C630 1.356 . S
N638 H644 0.984 . S
N638 H645 0.984 . S
N639 C632 1.356 . S
N639 H642 0.984 . S
N639 H643 0.985 . S
H640 N635 0.984 . S
H641 N635 0.985 . S
H642 N639 0.984 . S
H643 N639 0.985 . S
H644 N638 0.984 . S
H645 N638 0.984 . S
H646 N634 0.984 . S
H647 N634 0.985 . S
C648 C649 1.363 . S
C648 C654 1.379 . S
C648 N656 1.356 . S
C649 C648 1.363 . S
C649 C655 1.363 . S
C650 C651 1.363 . S
C650 C655 1.379 . S
C650 N657 1.356 . S
C651 C650 1.363 . S
C651 C654 1.363 . S
N652 C654 1.356 . S
N652 H664 0.984 . S
N652 H665 0.985 . S
N653 C655 1.356 . S
N653 H658 0.984 . S
N653 H659 0.985 . S
C654 C648 1.379 . S
C654 C651 1.363 . S
C654 N652 1.356 . S
C655 C649 1.363 . S
C655 C650 1.379 . S
C655 N653 1.356 . S
N656 C648 1.356 . S
N656 H662 0.984 . S
N656 H663 0.984 . S
N657 C650 1.356 . S
N657 H660 0.984 . S
N657 H661 0.985 . S
H658 N653 0.984 . S
H659 N653 0.985 . S
H660 N657 0.984 . S
H661 N657 0.985 . S
H662 N656 0.984 . S
H663 N656 0.984 . S
H664 N652 0.984 . S
H665 N652 0.985 . S
C666 C667 1.363 . S
C666 C672 1.379 . S
C666 N674 1.356 . S
C667 C666 1.363 . S
C667 C673 1.363 . S
C668 C669 1.363 . S
C668 C673 1.379 . S
C668 N675 1.356 . S
C669 C668 1.363 . S
C669 C672 1.363 . S
N670 C672 1.356 . S
N670 H682 0.984 . S
N670 H683 0.985 . S
N671 C673 1.356 . S
N671 H676 0.984 . S
N671 H677 0.985 . S
C672 C666 1.379 . S
C672 C669 1.363 . S
C672 N670 1.356 . S
C673 C667 1.363 . S
C673 C668 1.379 . S
C673 N671 1.356 . S
N674 C666 1.356 . S
N674 H680 0.984 . S
N674 H681 0.984 . S
N675 C668 1.356 . S
N675 H678 0.984 . S
N675 H679 0.985 . S
H676 N671 0.984 . S
H677 N671 0.985 . S
H678 N675 0.984 . S
H679 N675 0.985 . S
H680 N674 0.984 . S
H681 N674 0.984 . S
H682 N670 0.984 . S
H683 N670 0.985 . S
C684 C685 1.363 . S
C684 C690 1.379 . S
C684 N692 1.356 . S
C685 C684 1.363 . S
C685 C691 1.363 . S
C686 C687 1.363 . S
C686 C691 1.379 . S
C686 N693 1.356 . S
C687 C686 1.363 . S
C687 C690 1.363 . S
N688 C690 1.356 . S
N688 H700 0.984 . S
N688 H701 0.985 . S
N689 C691 1.356 . S
N689 H694 0.984 . S
N689 H695 0.985 . S
C690 C684 1.379 . S
C690 C687 1.363 . S
C690 N688 1.356 . S
C691 C685 1.363 . S
C691 C686 1.379 . S
C691 N689 1.356 . S
N692 C684 1.356 . S
N692 H698 0.984 . S
N692 H699 0.984 . S
N693 C686 1.356 . S
N693 H696 0.984 . S
N693 H697 0.985 . S
H694 N689 0.984 . S
H695 N689 0.985 . S
H696 N693 0.984 . S
H697 N693 0.985 . S
H698 N692 0.984 . S
H699 N692 0.984 . S
H700 N688 0.984 . S
H701 N688 0.985 . S
C702 C703 1.363 . S
C702 C708 1.379 . S
C702 N710 1.356 . S
C703 C702 1.363 . S
C703 C709 1.363 . S
C704 C705 1.363 . S
C704 C709 1.379 . S
C704 N711 1.356 . S
C705 C704 1.363 . S
C705 C708 1.363 . S
N706 C708 1.356 . S
N706 H718 0.984 . S
N706 H719 0.985 . S
N707 C709 1.356 . S
N707 H712 0.984 . S
N707 H713 0.985 . S
C708 C702 1.379 . S
C708 C705 1.363 . S
C708 N706 1.356 . S
C709 C703 1.363 . S
C709 C704 1.379 . S
C709 N707 1.356 . S
N710 C702 1.356 . S
N710 H716 0.984 . S
N710 H717 0.984 . S
N711 C704 1.356 . S
N711 H714 0.984 . S
N711 H715 0.985 . S
H712 N707 0.984 . S
H713 N707 0.985 . S
H714 N711 0.984 . S
H715 N711 0.985 . S
H716 N710 0.984 . S
H717 N710 0.984 . S
H718 N706 0.984 . S
H719 N706 0.985 . S
C720 C721 1.363 . S
C720 C726 1.379 . S
C720 N728 1.356 . S
C721 C720 1.363 . S
C721 C727 1.363 . S
C722 C723 1.363 . S
C722 C727 1.379 . S
C722 N729 1.356 . S
C723 C722 1.363 . S
C723 C726 1.363 . S
N724 C726 1.356 . S
N724 H736 0.984 . S
N724 H737 0.985 . S
N725 C727 1.356 . S
N725 H730 0.984 . S
N725 H731 0.985 . S
C726 C720 1.379 . S
C726 C723 1.363 . S
C726 N724 1.356 . S
C727 C721 1.363 . S
C727 C722 1.379 . S
C727 N725 1.356 . S
N728 C720 1.356 . S
N728 H734 0.984 . S
N728 H735 0.984 . S
N729 C722 1.356 . S
N729 H732 0.984 . S
N729 H733 0.985 . S
H730 N725 0.984 . S
H731 N725 0.985 . S
H732 N729 0.984 . S
H733 N729 0.985 . S
H734 N728 0.984 . S
H735 N728 0.984 . S
H736 N724 0.984 . S
H737 N724 0.985 . S
C738 C739 1.363 . S
C738 C744 1.379 . S
C738 N746 1.356 . S
C739 C738 1.363 . S
C739 C745 1.363 . S
C740 C741 1.363 . S
C740 C745 1.379 . S
C740 N747 1.356 . S
C741 C740 1.363 . S
C741 C744 1.363 . S
N742 C744 1.356 . S
N742 H754 0.984 . S
N742 H755 0.985 . S
N743 C745 1.356 . S
N743 H748 0.984 . S
N743 H749 0.985 . S
C744 C738 1.379 . S
C744 C741 1.363 . S
C744 N742 1.356 . S
C745 C739 1.363 . S
C745 C740 1.379 . S
C745 N743 1.356 . S
N746 C738 1.356 . S
N746 H752 0.984 . S
N746 H753 0.984 . S
N747 C740 1.356 . S
N747 H750 0.984 . S
N747 H751 0.985 . S
H748 N743 0.984 . S
H749 N743 0.985 . S
H750 N747 0.984 . S
H751 N747 0.985 . S
H752 N746 0.984 . S
H753 N746 0.984 . S
H754 N742 0.984 . S
H755 N742 0.985 . S
C756 C757 1.363 . S
C756 C762 1.379 . S
C756 N764 1.356 . S
C757 C756 1.363 . S
C757 C763 1.363 . S
C758 C759 1.363 . S
C758 C763 1.379 . S
C758 N765 1.356 . S
C759 C758 1.363 . S
C759 C762 1.363 . S
N760 C762 1.356 . S
N760 H772 0.984 1_554 S
N760 H773 0.985 1_554 S
N761 C763 1.356 . S
N761 H766 0.984 . S
N761 H767 0.985 . S
C762 C756 1.379 . S
C762 C759 1.363 . S
C762 N760 1.356 . S
C763 C757 1.363 . S
C763 C758 1.379 . S
C763 N761 1.356 . S
N764 C756 1.356 . S
N764 H770 0.984 . S
N764 H771 0.984 . S
N765 C758 1.356 . S
N765 H768 0.984 . S
N765 H769 0.985 . S
H766 N761 0.984 . S
H767 N761 0.985 . S
H768 N765 0.984 . S
H769 N765 0.985 . S
H770 N764 0.984 . S
H771 N764 0.984 . S
H772 N760 0.984 1_556 S
H773 N760 0.985 1_556 S
C774 C775 1.363 . S
C774 C780 1.379 . S
C774 N782 1.356 . S
C775 C774 1.363 . S
C775 C781 1.363 . S
C776 C777 1.363 . S
C776 C781 1.379 . S
C776 N783 1.356 . S
C777 C776 1.363 . S
C777 C780 1.363 . S
N778 C780 1.356 . S
N778 H790 0.984 . S
N778 H791 0.985 . S
N779 C781 1.356 . S
N779 H784 0.984 . S
N779 H785 0.985 . S
C780 C774 1.379 . S
C780 C777 1.363 . S
C780 N778 1.356 . S
C781 C775 1.363 . S
C781 C776 1.379 . S
C781 N779 1.356 . S
N782 C774 1.356 . S
N782 H788 0.984 . S
N782 H789 0.984 . S
N783 C776 1.356 . S
N783 H786 0.984 . S
N783 H787 0.985 . S
H784 N779 0.984 . S
H785 N779 0.985 . S
H786 N783 0.984 . S
H787 N783 0.985 . S
H788 N782 0.984 . S
H789 N782 0.984 . S
H790 N778 0.984 . S
H791 N778 0.985 . S
C792 C793 1.363 . S
C792 C798 1.379 . S
C792 N800 1.356 . S
C793 C792 1.363 . S
C793 C799 1.363 . S
C794 C795 1.363 . S
C794 C799 1.379 . S
C794 N801 1.356 . S
C795 C794 1.363 . S
C795 C798 1.363 . S
N796 C798 1.356 . S
N796 H808 0.984 . S
N796 H809 0.985 1_554 S
N797 C799 1.356 . S
N797 H802 0.984 . S
N797 H803 0.985 . S
C798 C792 1.379 . S
C798 C795 1.363 . S
C798 N796 1.356 . S
C799 C793 1.363 . S
C799 C794 1.379 . S
C799 N797 1.356 . S
N800 C792 1.356 . S
N800 H806 0.984 . S
N800 H807 0.984 . S
N801 C794 1.356 . S
N801 H804 0.984 . S
N801 H805 0.985 . S
H802 N797 0.984 . S
H803 N797 0.985 . S
H804 N801 0.984 . S
H805 N801 0.985 . S
H806 N800 0.984 . S
H807 N800 0.984 . S
H808 N796 0.984 . S
H809 N796 0.985 1_556 S
C810 C811 1.363 . S
C810 C816 1.379 . S
C810 N818 1.356 . S
C811 C810 1.363 . S
C811 C817 1.363 . S
C812 C813 1.363 . S
C812 C817 1.379 . S
C812 N819 1.356 . S
C813 C812 1.363 . S
C813 C816 1.363 . S
N814 C816 1.356 . S
N814 H826 0.984 . S
N814 H827 0.985 . S
N815 C817 1.356 . S
N815 H820 0.984 . S
N815 H821 0.985 . S
C816 C810 1.379 . S
C816 C813 1.363 . S
C816 N814 1.356 . S
C817 C811 1.363 . S
C817 C812 1.379 . S
C817 N815 1.356 . S
N818 C810 1.356 . S
N818 H824 0.984 . S
N818 H825 0.984 . S
N819 C812 1.356 . S
N819 H822 0.984 1_554 S
N819 H823 0.985 1_554 S
H820 N815 0.984 . S
H821 N815 0.985 . S
H822 N819 0.984 1_556 S
H823 N819 0.985 1_556 S
H824 N818 0.984 . S
H825 N818 0.984 . S
H826 N814 0.984 . S
H827 N814 0.985 . S
C828 C829 1.363 1_545 S
C828 C834 1.379 1_556 S
C828 N836 1.356 . S
C829 C828 1.363 1_565 S
C829 C835 1.363 . S
C830 C831 1.363 1_565 S
C830 C835 1.379 1_554 S
C830 N837 1.356 . S
C831 C830 1.363 1_545 S
C831 C834 1.363 . S
N832 C834 1.356 . S
N832 H844 0.984 1_554 S
N832 H845 0.985 . S
N833 C835 1.356 . S
N833 H838 0.984 . S
N833 H839 0.985 1_556 S
C834 C828 1.379 1_554 S
C834 C831 1.363 . S
C834 N832 1.356 . S
C835 C829 1.363 . S
C835 C830 1.379 1_556 S
C835 N833 1.356 . S
N836 C828 1.356 . S
N836 H842 0.984 . S
N836 H843 0.984 1_545 S
N837 C830 1.356 . S
N837 H840 0.984 1_565 S
N837 H841 0.985 . S
H838 N833 0.984 . S
H839 N833 0.985 1_554 S
H840 N837 0.984 1_545 S
H841 N837 0.985 . S
H842 N836 0.984 . S
H843 N836 0.984 1_565 S
H844 N832 0.984 1_556 S
H845 N832 0.985 . S
C846 C847 1.363 . S
C846 C852 1.391 1_554 S
C846 N854 1.356 . S
C847 C846 1.363 . S
C847 C853 1.340 1_655 S
C848 C849 1.363 . S
C848 C853 1.391 1_556 S
C848 N855 1.356 . S
C849 C848 1.363 . S
C849 C852 1.340 1_455 S
N850 C852 1.360 1_455 S
N850 H862 0.984 1_455 S
N850 H863 0.985 . S
N851 C853 1.360 1_655 S
N851 H856 0.984 . S
N851 H857 0.985 1_655 S
C852 C846 1.391 1_556 S
C852 C849 1.340 1_655 S
C852 N850 1.360 1_655 S
C853 C847 1.340 1_455 S
C853 C848 1.391 1_554 S
C853 N851 1.360 1_455 S
N854 C846 1.356 . S
N854 H860 0.984 . S
N854 H861 0.984 . S
N855 C848 1.356 . S
N855 H858 0.984 . S
N855 H859 0.985 . S
H856 N851 0.984 . S
H857 N851 0.985 1_455 S
H858 N855 0.984 . S
H859 N855 0.985 . S
H860 N854 0.984 . S
H861 N854 0.984 . S
H862 N850 0.984 1_655 S
H863 N850 0.985 . S
C864 C865 1.363 . S
C864 C870 1.379 1_556 S
C864 N872 1.356 . S
C865 C864 1.363 . S
C865 C871 1.363 . S
C866 C867 1.363 . S
C866 C871 1.379 1_554 S
C866 N873 1.356 . S
C867 C866 1.363 . S
C867 C870 1.363 . S
N868 C870 1.356 . S
N868 H880 0.984 . S
N868 H881 0.985 . S
N869 C871 1.356 . S
N869 H874 0.984 . S
N869 H875 0.985 . S
C870 C864 1.379 1_554 S
C870 C867 1.363 . S
C870 N868 1.356 . S
C871 C865 1.363 . S
C871 C866 1.379 1_556 S
C871 N869 1.356 . S
N872 C864 1.356 . S
N872 H878 0.984 . S
N872 H879 0.984 . S
N873 C866 1.356 . S
N873 H876 0.984 . S
N873 H877 0.985 . S
H874 N869 0.984 . S
H875 N869 0.985 . S
H876 N873 0.984 . S
H877 N873 0.985 . S
H878 N872 0.984 . S
H879 N872 0.984 . S
H880 N868 0.984 . S
H881 N868 0.985 . S
C882 C883 1.363 . S
C882 C888 1.379 1_566 S
C882 N890 1.356 . S
C883 C882 1.363 . S
C883 C889 1.363 . S
C884 C885 1.363 . S
C884 C889 1.379 1_544 S
C884 N891 1.356 . S
C885 C884 1.363 . S
C885 C888 1.363 . S
N886 C888 1.356 . S
N886 H898 0.984 . S
N886 H899 0.985 . S
N887 C889 1.356 . S
N887 H892 0.984 . S
N887 H893 0.985 . S
C888 C882 1.379 1_544 S
C888 C885 1.363 . S
C888 N886 1.356 . S
C889 C883 1.363 . S
C889 C884 1.379 1_566 S
C889 N887 1.356 . S
N890 C882 1.356 . S
N890 H896 0.984 . S
N890 H897 0.984 . S
N891 C884 1.356 . S
N891 H894 0.984 . S
N891 H895 0.985 . S
H892 N887 0.984 . S
H893 N887 0.985 . S
H894 N891 0.984 . S
H895 N891 0.985 . S
H896 N890 0.984 . S
H897 N890 0.984 . S
H898 N886 0.984 . S
H899 N886 0.985 . S
C900 C901 1.363 . S
C900 C906 1.379 1_556 S
C900 N908 1.356 . S
C901 C900 1.363 . S
C901 C907 1.363 1_455 S
C902 C903 1.363 . S
C902 C907 1.379 1_554 S
C902 N909 1.356 . S
C903 C902 1.363 . S
C903 C906 1.363 1_655 S
N904 C906 1.362 . S
N904 H916 0.986 . S
N904 H917 0.977 1_455 S
N905 C907 1.362 . S
N905 H910 0.977 1_655 S
N905 H911 0.986 . S
C906 C900 1.379 1_554 S
C906 C903 1.363 1_455 S
C906 N904 1.362 . S
C907 C901 1.363 1_655 S
C907 C902 1.379 1_556 S
C907 N905 1.362 . S
N908 C900 1.356 . S
N908 H914 0.984 . S
N908 H915 0.984 . S
N909 C902 1.356 . S
N909 H912 0.984 . S
N909 H913 0.985 . S
H910 N905 0.977 1_455 S
H911 N905 0.986 . S
H912 N909 0.984 . S
H913 N909 0.985 . S
H914 N908 0.984 . S
H915 N908 0.984 . S
H916 N904 0.986 . S
H917 N904 0.977 1_655 S
C918 C919 1.356 1_556 S
C918 C924 1.386 . S
C918 N926 1.354 1_556 S
C919 C918 1.356 1_554 S
C919 C925 1.363 . S
C920 C921 1.356 1_554 S
C920 C925 1.386 . S
C920 N927 1.354 1_554 S
C921 C920 1.356 1_556 S
C921 C924 1.363 . S
N922 C924 1.356 . S
N922 H934 0.984 . S
N922 H935 0.985 . S
N923 C925 1.356 . S
N923 H928 0.984 . S
N923 H929 0.985 . S
C924 C918 1.386 . S
C924 C921 1.363 . S
C924 N922 1.356 . S
C925 C919 1.363 . S
C925 C920 1.386 . S
C925 N923 1.356 . S
N926 C918 1.354 1_554 S
N926 H932 0.984 1_554 S
N926 H933 0.984 . S
N927 C920 1.354 1_556 S
N927 H930 0.984 . S
N927 H931 0.985 1_556 S
H928 N923 0.984 . S
H929 N923 0.985 . S
H930 N927 0.984 . S
H931 N927 0.985 1_554 S
H932 N926 0.984 1_556 S
H933 N926 0.984 . S
H934 N922 0.984 . S
H935 N922 0.985 . S
C936 C937 1.363 . S
C936 C942 1.379 . S
C936 N944 1.356 . S
C937 C936 1.363 . S
C937 C943 1.363 . S
C938 C939 1.363 . S
C938 C943 1.379 . S
C938 N945 1.356 . S
C939 C938 1.363 . S
C939 C942 1.363 . S
N940 C942 1.356 . S
N940 H952 0.984 . S
N940 H953 0.985 . S
N941 C943 1.356 . S
N941 H946 0.984 . S
N941 H947 0.985 . S
C942 C936 1.379 . S
C942 C939 1.363 . S
C942 N940 1.356 . S
C943 C937 1.363 . S
C943 C938 1.379 . S
C943 N941 1.356 . S
N944 C936 1.356 . S
N944 H950 0.984 . S
N944 H951 0.984 . S
N945 C938 1.356 . S
N945 H948 0.984 . S
N945 H949 0.985 . S
H946 N941 0.984 . S
H947 N941 0.985 . S
H948 N945 0.984 . S
H949 N945 0.985 . S
H950 N944 0.984 . S
H951 N944 0.984 . S
H952 N940 0.984 . S
H953 N940 0.985 . S
C954 C955 1.363 . S
C954 C960 1.379 . S
C954 N962 1.356 . S
C955 C954 1.363 . S
C955 C961 1.363 . S
C956 C957 1.363 . S
C956 C961 1.379 . S
C956 N963 1.356 . S
C957 C956 1.363 . S
C957 C960 1.363 . S
N958 C960 1.356 . S
N958 H970 0.984 . S
N958 H971 0.985 . S
N959 C961 1.356 . S
N959 H964 0.984 . S
N959 H965 0.985 . S
C960 C954 1.379 . S
C960 C957 1.363 . S
C960 N958 1.356 . S
C961 C955 1.363 . S
C961 C956 1.379 . S
C961 N959 1.356 . S
N962 C954 1.356 . S
N962 H968 0.984 . S
N962 H969 0.984 . S
N963 C956 1.356 . S
N963 H966 0.984 . S
N963 H967 0.985 . S
H964 N959 0.984 . S
H965 N959 0.985 . S
H966 N963 0.984 . S
H967 N963 0.985 . S
H968 N962 0.984 . S
H969 N962 0.984 . S
H970 N958 0.984 . S
H971 N958 0.985 . S
C972 C973 1.363 . S
C972 C978 1.379 . S
C972 N980 1.356 . S
C973 C972 1.363 . S
C973 C979 1.363 . S
C974 C975 1.363 . S
C974 C979 1.379 . S
C974 N981 1.356 . S
C975 C974 1.363 . S
C975 C978 1.363 . S
N976 C978 1.356 . S
N976 H988 0.984 . S
N976 H989 0.985 . S
N977 C979 1.356 . S
N977 H982 0.984 . S
N977 H983 0.985 . S
C978 C972 1.379 . S
C978 C975 1.363 . S
C978 N976 1.356 . S
C979 C973 1.363 . S
C979 C974 1.379 . S
C979 N977 1.356 . S
N980 C972 1.356 . S
N980 H986 0.984 . S
N980 H987 0.984 . S
N981 C974 1.356 . S
N981 H984 0.984 . S
N981 H985 0.985 . S
H982 N977 0.984 . S
H983 N977 0.985 . S
H984 N981 0.984 . S
H985 N981 0.985 . S
H986 N980 0.984 . S
H987 N980 0.984 . S
H988 N976 0.984 . S
H989 N976 0.985 . S
C990 C991 1.363 . S
C990 C996 1.379 . S
C990 N998 1.356 . S
C991 C990 1.363 . S
C991 C997 1.363 . S
C992 C993 1.363 . S
C992 C997 1.379 . S
C992 N999 1.356 . S
C993 C992 1.363 . S
C993 C996 1.363 . S
N994 C996 1.356 . S
N994 H1006 0.984 . S
N994 H1007 0.985 . S
N995 C997 1.356 . S
N995 H1000 0.984 . S
N995 H1001 0.985 . S
C996 C990 1.379 . S
C996 C993 1.363 . S
C996 N994 1.356 . S
C997 C991 1.363 . S
C997 C992 1.379 . S
C997 N995 1.356 . S
N998 C990 1.356 . S
N998 H1004 0.984 . S
N998 H1005 0.984 . S
N999 C992 1.356 . S
N999 H1002 0.984 . S
N999 H1003 0.985 . S
H1000 N995 0.984 . S
H1001 N995 0.985 . S
H1002 N999 0.984 . S
H1003 N999 0.985 . S
H1004 N998 0.984 . S
H1005 N998 0.984 . S
H1006 N994 0.984 . S
H1007 N994 0.985 . S
C1008 C1009 1.363 . S
C1008 C1014 1.379 . S
C1008 N1016 1.356 . S
C1009 C1008 1.363 . S
C1009 C1015 1.363 . S
C1010 C1011 1.363 . S
C1010 C1015 1.379 . S
C1010 N1017 1.356 . S
C1011 C1010 1.363 . S
C1011 C1014 1.363 . S
N1012 C1014 1.356 . S
N1012 H1024 0.984 . S
N1012 H1025 0.985 . S
N1013 C1015 1.356 . S
N1013 H1018 0.984 . S
N1013 H1019 0.985 . S
C1014 C1008 1.379 . S
C1014 C1011 1.363 . S
C1014 N1012 1.356 . S
C1015 C1009 1.363 . S
C1015 C1010 1.379 . S
C1015 N1013 1.356 . S
N1016 C1008 1.356 . S
N1016 H1022 0.984 . S
N1016 H1023 0.984 . S
N1017 C1010 1.356 . S
N1017 H1020 0.984 . S
N1017 H1021 0.985 . S
H1018 N1013 0.984 . S
H1019 N1013 0.985 . S
H1020 N1017 0.984 . S
H1021 N1017 0.985 . S
H1022 N1016 0.984 . S
H1023 N1016 0.984 . S
H1024 N1012 0.984 . S
H1025 N1012 0.985 . S
C1026 C1027 1.363 . S
C1026 C1032 1.379 . S
C1026 N1034 1.356 . S
C1027 C1026 1.363 . S
C1027 C1033 1.363 . S
C1028 C1029 1.363 . S
C1028 C1033 1.379 . S
C1028 N1035 1.356 . S
C1029 C1028 1.363 . S
C1029 C1032 1.363 . S
N1030 C1032 1.356 . S
N1030 H1042 0.984 . S
N1030 H1043 0.985 . S
N1031 C1033 1.356 . S
N1031 H1036 0.984 . S
N1031 H1037 0.985 . S
C1032 C1026 1.379 . S
C1032 C1029 1.363 . S
C1032 N1030 1.356 . S
C1033 C1027 1.363 . S
C1033 C1028 1.379 . S
C1033 N1031 1.356 . S
N1034 C1026 1.356 . S
N1034 H1040 0.984 . S
N1034 H1041 0.984 . S
N1035 C1028 1.356 . S
N1035 H1038 0.984 . S
N1035 H1039 0.985 . S
H1036 N1031 0.984 . S
H1037 N1031 0.985 . S
H1038 N1035 0.984 . S
H1039 N1035 0.985 . S
H1040 N1034 0.984 . S
H1041 N1034 0.984 . S
H1042 N1030 0.984 . S
H1043 N1030 0.985 . S
C1044 C1045 1.363 . S
C1044 C1050 1.379 . S
C1044 N1052 1.356 . S
C1045 C1044 1.363 . S
C1045 C1051 1.363 . S
C1046 C1047 1.363 . S
C1046 C1051 1.379 . S
C1046 N1053 1.356 . S
C1047 C1046 1.363 . S
C1047 C1050 1.363 . S
N1048 C1050 1.356 . S
N1048 H1060 0.984 . S
N1048 H1061 0.985 . S
N1049 C1051 1.356 . S
N1049 H1054 0.984 . S
N1049 H1055 0.985 . S
C1050 C1044 1.379 . S
C1050 C1047 1.363 . S
C1050 N1048 1.356 . S
C1051 C1045 1.363 . S
C1051 C1046 1.379 . S
C1051 N1049 1.356 . S
N1052 C1044 1.356 . S
N1052 H1058 0.984 . S
N1052 H1059 0.984 . S
N1053 C1046 1.356 . S
N1053 H1056 0.984 . S
N1053 H1057 0.985 . S
H1054 N1049 0.984 . S
H1055 N1049 0.985 . S
H1056 N1053 0.984 . S
H1057 N1053 0.985 . S
H1058 N1052 0.984 . S
H1059 N1052 0.984 . S
H1060 N1048 0.984 . S
H1061 N1048 0.985 . S
C1062 C1063 1.363 . S
C1062 C1068 1.379 . S
C1062 N1070 1.356 . S
C1063 C1062 1.363 . S
C1063 C1069 1.363 . S
C1064 C1065 1.363 . S
C1064 C1069 1.379 . S
C1064 N1071 1.356 . S
C1065 C1064 1.363 . S
C1065 C1068 1.363 . S
N1066 C1068 1.356 . S
N1066 H1078 0.984 . S
N1066 H1079 0.985 . S
N1067 C1069 1.356 . S
N1067 H1072 0.984 . S
N1067 H1073 0.985 . S
C1068 C1062 1.379 . S
C1068 C1065 1.363 . S
C1068 N1066 1.356 . S
C1069 C1063 1.363 . S
C1069 C1064 1.379 . S
C1069 N1067 1.356 . S
N1070 C1062 1.356 . S
N1070 H1076 0.984 . S
N1070 H1077 0.984 . S
N1071 C1064 1.356 . S
N1071 H1074 0.984 . S
N1071 H1075 0.985 . S
H1072 N1067 0.984 . S
H1073 N1067 0.985 . S
H1074 N1071 0.984 . S
H1075 N1071 0.985 . S
H1076 N1070 0.984 . S
H1077 N1070 0.984 . S
H1078 N1066 0.984 . S
H1079 N1066 0.985 . S
C1080 C1081 1.363 . S
C1080 C1086 1.379 . S
C1080 N1088 1.356 . S
C1081 C1080 1.363 . S
C1081 C1087 1.363 . S
C1082 C1083 1.363 . S
C1082 C1087 1.379 . S
C1082 N1089 1.356 . S
C1083 C1082 1.363 . S
C1083 C1086 1.363 . S
N1084 C1086 1.356 . S
N1084 H1096 0.984 . S
N1084 H1097 0.985 . S
N1085 C1087 1.356 . S
N1085 H1090 0.984 . S
N1085 H1091 0.985 . S
C1086 C1080 1.379 . S
C1086 C1083 1.363 . S
C1086 N1084 1.356 . S
C1087 C1081 1.363 . S
C1087 C1082 1.379 . S
C1087 N1085 1.356 . S
N1088 C1080 1.356 . S
N1088 H1094 0.984 . S
N1088 H1095 0.984 . S
N1089 C1082 1.356 . S
N1089 H1092 0.984 . S
N1089 H1093 0.985 . S
H1090 N1085 0.984 . S
H1091 N1085 0.985 . S
H1092 N1089 0.984 . S
H1093 N1089 0.985 . S
H1094 N1088 0.984 . S
H1095 N1088 0.984 . S
H1096 N1084 0.984 . S
H1097 N1084 0.985 . S
C1098 C1099 1.363 . S
C1098 C1104 1.379 . S
C1098 N1106 1.356 . S
C1099 C1098 1.363 . S
C1099 C1105 1.363 . S
C1100 C1101 1.363 . S
C1100 C1105 1.379 . S
C1100 N1107 1.356 . S
C1101 C1100 1.363 . S
C1101 C1104 1.363 . S
N1102 C1104 1.356 . S
N1102 H1114 0.984 . S
N1102 H1115 0.985 . S
N1103 C1105 1.356 . S
N1103 H1108 0.984 . S
N1103 H1109 0.985 . S
C1104 C1098 1.379 . S
C1104 C1101 1.363 . S
C1104 N1102 1.356 . S
C1105 C1099 1.363 . S
C1105 C1100 1.379 . S
C1105 N1103 1.356 . S
N1106 C1098 1.356 . S
N1106 H1112 0.984 . S
N1106 H1113 0.984 . S
N1107 C1100 1.356 . S
N1107 H1110 0.984 . S
N1107 H1111 0.985 . S
H1108 N1103 0.984 . S
H1109 N1103 0.985 . S
H1110 N1107 0.984 . S
H1111 N1107 0.985 . S
H1112 N1106 0.984 . S
H1113 N1106 0.984 . S
H1114 N1102 0.984 . S
H1115 N1102 0.985 . S
C1116 C1117 1.363 . S
C1116 C1122 1.379 . S
C1116 N1124 1.356 . S
C1117 C1116 1.363 . S
C1117 C1123 1.363 . S
C1118 C1119 1.363 . S
C1118 C1123 1.379 . S
C1118 N1125 1.356 . S
C1119 C1118 1.363 . S
C1119 C1122 1.363 . S
N1120 C1122 1.356 . S
N1120 H1132 0.984 . S
N1120 H1133 0.985 . S
N1121 C1123 1.356 . S
N1121 H1126 0.984 . S
N1121 H1127 0.985 . S
C1122 C1116 1.379 . S
C1122 C1119 1.363 . S
C1122 N1120 1.356 . S
C1123 C1117 1.363 . S
C1123 C1118 1.379 . S
C1123 N1121 1.356 . S
N1124 C1116 1.356 . S
N1124 H1130 0.984 . S
N1124 H1131 0.984 . S
N1125 C1118 1.356 . S
N1125 H1128 0.984 . S
N1125 H1129 0.985 . S
H1126 N1121 0.984 . S
H1127 N1121 0.985 . S
H1128 N1125 0.984 . S
H1129 N1125 0.985 . S
H1130 N1124 0.984 . S
H1131 N1124 0.984 . S
H1132 N1120 0.984 . S
H1133 N1120 0.985 . S
C1134 C1135 1.363 . S
C1134 C1140 1.379 . S
C1134 N1142 1.356 . S
C1135 C1134 1.363 . S
C1135 C1141 1.363 . S
C1136 C1137 1.363 . S
C1136 C1141 1.379 . S
C1136 N1143 1.356 . S
C1137 C1136 1.363 . S
C1137 C1140 1.363 . S
N1138 C1140 1.356 . S
N1138 H1150 0.984 . S
N1138 H1151 0.985 . S
N1139 C1141 1.356 . S
N1139 H1144 0.984 . S
N1139 H1145 0.985 . S
C1140 C1134 1.379 . S
C1140 C1137 1.363 . S
C1140 N1138 1.356 . S
C1141 C1135 1.363 . S
C1141 C1136 1.379 . S
C1141 N1139 1.356 . S
N1142 C1134 1.356 . S
N1142 H1148 0.984 . S
N1142 H1149 0.984 . S
N1143 C1136 1.356 . S
N1143 H1146 0.984 . S
N1143 H1147 0.985 . S
H1144 N1139 0.984 . S
H1145 N1139 0.985 . S
H1146 N1143 0.984 . S
H1147 N1143 0.985 . S
H1148 N1142 0.984 . S
H1149 N1142 0.984 . S
H1150 N1138 0.984 . S
H1151 N1138 0.985 . S
C1152 C1153 1.363 . S
C1152 C1158 1.379 . S
C1152 N1160 1.356 . S
C1153 C1152 1.363 . S
C1153 C1159 1.363 . S
C1154 C1155 1.363 . S
C1154 C1159 1.379 . S
C1154 N1161 1.356 . S
C1155 C1154 1.363 . S
C1155 C1158 1.363 . S
N1156 C1158 1.356 . S
N1156 H1168 0.984 . S
N1156 H1169 0.985 . S
N1157 C1159 1.356 . S
N1157 H1162 0.984 . S
N1157 H1163 0.985 . S
C1158 C1152 1.379 . S
C1158 C1155 1.363 . S
C1158 N1156 1.356 . S
C1159 C1153 1.363 . S
C1159 C1154 1.379 . S
C1159 N1157 1.356 . S
N1160 C1152 1.356 . S
N1160 H1166 0.984 . S
N1160 H1167 0.984 . S
N1161 C1154 1.356 . S
N1161 H1164 0.984 . S
N1161 H1165 0.985 . S
H1162 N1157 0.984 . S
H1163 N1157 0.985 . S
H1164 N1161 0.984 . S
H1165 N1161 0.985 . S
H1166 N1160 0.984 . S
H1167 N1160 0.984 . S
H1168 N1156 0.984 . S
H1169 N1156 0.985 . S
C1170 C1171 1.363 . S
C1170 C1176 1.379 . S
C1170 N1178 1.356 . S
C1171 C1170 1.363 . S
C1171 C1177 1.363 . S
C1172 C1173 1.363 . S
C1172 C1177 1.379 . S
C1172 N1179 1.356 . S
C1173 C1172 1.363 . S
C1173 C1176 1.363 . S
N1174 C1176 1.356 . S
N1174 H1186 0.984 . S
N1174 H1187 0.985 . S
N1175 C1177 1.356 . S
N1175 H1180 0.984 . S
N1175 H1181 0.985 1_554 S
C1176 C1170 1.379 . S
C1176 C1173 1.363 . S
C1176 N1174 1.356 . S
C1177 C1171 1.363 . S
C1177 C1172 1.379 . S
C1177 N1175 1.356 . S
N1178 C1170 1.356 . S
N1178 H1184 0.984 . S
N1178 H1185 0.984 . S
N1179 C1172 1.356 . S
N1179 H1182 0.984 . S
N1179 H1183 0.985 . S
H1180 N1175 0.984 . S
H1181 N1175 0.985 1_556 S
H1182 N1179 0.984 . S
H1183 N1179 0.985 . S
H1184 N1178 0.984 . S
H1185 N1178 0.984 . S
H1186 N1174 0.984 . S
H1187 N1174 0.985 . S
C1188 C1189 1.363 . S
C1188 C1194 1.379 . S
C1188 N1196 1.356 . S
C1189 C1188 1.363 . S
C1189 C1195 1.363 . S
C1190 C1191 1.363 . S
C1190 C1195 1.379 . S
C1190 N1197 1.356 . S
C1191 C1190 1.363 . S
C1191 C1194 1.363 . S
N1192 C1194 1.356 . S
N1192 H1204 0.984 . S
N1192 H1205 0.985 . S
N1193 C1195 1.356 . S
N1193 H1198 0.984 . S
N1193 H1199 0.985 . S
C1194 C1188 1.379 . S
C1194 C1191 1.363 . S
C1194 N1192 1.356 . S
C1195 C1189 1.363 . S
C1195 C1190 1.379 . S
C1195 N1193 1.356 . S
N1196 C1188 1.356 . S
N1196 H1202 0.984 . S
N1196 H1203 0.984 . S
N1197 C1190 1.356 . S
N1197 H1200 0.984 . S
N1197 H1201 0.985 . S
H1198 N1193 0.984 . S
H1199 N1193 0.985 . S
H1200 N1197 0.984 . S
H1201 N1197 0.985 . S
H1202 N1196 0.984 . S
H1203 N1196 0.984 . S
H1204 N1192 0.984 . S
H1205 N1192 0.985 . S
C1206 C1207 1.363 . S
C1206 C1212 1.379 . S
C1206 N1214 1.356 . S
C1207 C1206 1.363 . S
C1207 C1213 1.363 . S
C1208 C1209 1.363 . S
C1208 C1213 1.379 . S
C1208 N1215 1.356 . S
C1209 C1208 1.363 . S
C1209 C1212 1.363 . S
N1210 C1212 1.356 . S
N1210 H1222 0.984 . S
N1210 H1223 0.985 . S
N1211 C1213 1.356 . S
N1211 H1216 0.984 . S
N1211 H1217 0.985 . S
C1212 C1206 1.379 . S
C1212 C1209 1.363 . S
C1212 N1210 1.356 . S
C1213 C1207 1.363 . S
C1213 C1208 1.379 . S
C1213 N1211 1.356 . S
N1214 C1206 1.356 . S
N1214 H1220 0.984 . S
N1214 H1221 0.984 . S
N1215 C1208 1.356 . S
N1215 H1218 0.984 . S
N1215 H1219 0.985 . S
H1216 N1211 0.984 . S
H1217 N1211 0.985 . S
H1218 N1215 0.984 . S
H1219 N1215 0.985 . S
H1220 N1214 0.984 . S
H1221 N1214 0.984 . S
H1222 N1210 0.984 . S
H1223 N1210 0.985 . S
C1224 C1225 1.363 . S
C1224 C1230 1.379 . S
C1224 N1232 1.356 . S
C1225 C1224 1.363 . S
C1225 C1231 1.363 . S
C1226 C1227 1.363 . S
C1226 C1231 1.379 . S
C1226 N1233 1.356 . S
C1227 C1226 1.363 . S
C1227 C1230 1.363 . S
N1228 C1230 1.356 . S
N1228 H1240 0.979 1_556 S
N1228 H1241 0.985 . S
N1229 C1231 1.356 . S
N1229 H1234 0.984 . S
N1229 H1235 0.985 . S
C1230 C1224 1.379 . S
C1230 C1227 1.363 . S
C1230 N1228 1.356 . S
C1231 C1225 1.363 . S
C1231 C1226 1.379 . S
C1231 N1229 1.356 . S
N1232 C1224 1.356 . S
N1232 H1238 0.984 . S
N1232 H1239 0.984 . S
N1233 C1226 1.356 . S
N1233 H1236 0.984 . S
N1233 H1237 0.985 . S
H1234 N1229 0.984 . S
H1235 N1229 0.985 . S
H1236 N1233 0.984 . S
H1237 N1233 0.985 . S
H1238 N1232 0.984 . S
H1239 N1232 0.984 . S
H1240 N1228 0.979 1_554 S
H1241 N1228 0.985 . S
C1242 C1243 1.363 . S
C1242 C1248 1.379 . S
C1242 N1250 1.356 . S
C1243 C1242 1.363 . S
C1243 C1249 1.363 . S
C1244 C1245 1.363 . S
C1244 C1249 1.379 . S
C1244 N1251 1.356 . S
C1245 C1244 1.363 . S
C1245 C1248 1.363 . S
N1246 C1248 1.356 . S
N1246 H1258 0.984 . S
N1246 H1259 0.985 . S
N1247 C1249 1.356 . S
N1247 H1252 0.984 . S
N1247 H1253 0.985 . S
C1248 C1242 1.379 . S
C1248 C1245 1.363 . S
C1248 N1246 1.356 . S
C1249 C1243 1.363 . S
C1249 C1244 1.379 . S
C1249 N1247 1.356 . S
N1250 C1242 1.356 . S
N1250 H1256 0.984 . S
N1250 H1257 0.984 . S
N1251 C1244 1.356 . S
N1251 H1254 0.984 . S
N1251 H1255 0.985 . S
H1252 N1247 0.984 . S
H1253 N1247 0.985 . S
H1254 N1251 0.984 . S
H1255 N1251 0.985 . S
H1256 N1250 0.984 . S
H1257 N1250 0.984 . S
H1258 N1246 0.984 . S
H1259 N1246 0.985 . S
C1260 C1261 1.363 . S
C1260 C1266 1.379 . S
C1260 N1268 1.356 . S
C1261 C1260 1.363 . S
C1261 C1267 1.363 . S
C1262 C1263 1.363 . S
C1262 C1267 1.379 . S
C1262 N1269 1.356 . S
C1263 C1262 1.363 . S
C1263 C1266 1.363 . S
N1264 C1266 1.356 . S
N1264 H1276 0.984 . S
N1264 H1277 0.985 . S
N1265 C1267 1.356 . S
N1265 H1270 0.984 . S
N1265 H1271 0.985 . S
C1266 C1260 1.379 . S
C1266 C1263 1.363 . S
C1266 N1264 1.356 . S
C1267 C1261 1.363 . S
C1267 C1262 1.379 . S
C1267 N1265 1.356 . S
N1268 C1260 1.356 . S
N1268 H1274 0.984 . S
N1268 H1275 0.984 . S
N1269 C1262 1.356 . S
N1269 H1272 0.984 . S
N1269 H1273 0.985 . S
H1270 N1265 0.984 . S
H1271 N1265 0.985 . S
H1272 N1269 0.984 . S
H1273 N1269 0.985 . S
H1274 N1268 0.984 . S
H1275 N1268 0.984 . S
H1276 N1264 0.984 . S
H1277 N1264 0.985 . S
C1278 C1279 1.363 . S
C1278 C1284 1.379 . S
C1278 N1286 1.356 . S
C1279 C1278 1.363 . S
C1279 C1285 1.363 . S
C1280 C1281 1.363 . S
C1280 C1285 1.379 . S
C1280 N1287 1.356 . S
C1281 C1280 1.363 . S
C1281 C1284 1.363 . S
N1282 C1284 1.356 . S
N1282 H1294 0.984 . S
N1282 H1295 0.985 . S
N1283 C1285 1.356 . S
N1283 H1288 0.984 . S
N1283 H1289 0.985 . S
C1284 C1278 1.379 . S
C1284 C1281 1.363 . S
C1284 N1282 1.356 . S
C1285 C1279 1.363 . S
C1285 C1280 1.379 . S
C1285 N1283 1.356 . S
N1286 C1278 1.356 . S
N1286 H1292 0.984 . S
N1286 H1293 0.984 . S
N1287 C1280 1.356 . S
N1287 H1290 0.984 . S
N1287 H1291 0.985 . S
H1288 N1283 0.984 . S
H1289 N1283 0.985 . S
H1290 N1287 0.984 . S
H1291 N1287 0.985 . S
H1292 N1286 0.984 . S
H1293 N1286 0.984 . S
H1294 N1282 0.984 . S
H1295 N1282 0.985 . S
C1296 C1297 1.363 . S
C1296 C1302 1.379 . S
C1296 N1304 1.356 . S
C1297 C1296 1.363 . S
C1297 C1303 1.363 . S
C1298 C1299 1.363 . S
C1298 C1303 1.379 . S
C1298 N1305 1.356 . S
C1299 C1298 1.363 . S
C1299 C1302 1.363 . S
N1300 C1302 1.356 . S
N1300 H1312 0.984 . S
N1300 H1313 0.985 . S
N1301 C1303 1.356 . S
N1301 H1306 0.984 . S
N1301 H1307 0.985 . S
C1302 C1296 1.379 . S
C1302 C1299 1.363 . S
C1302 N1300 1.356 . S
C1303 C1297 1.363 . S
C1303 C1298 1.379 . S
C1303 N1301 1.356 . S
N1304 C1296 1.356 . S
N1304 H1310 0.984 . S
N1304 H1311 0.984 . S
N1305 C1298 1.356 . S
N1305 H1308 0.984 . S
N1305 H1309 0.985 . S
H1306 N1301 0.984 . S
H1307 N1301 0.985 . S
H1308 N1305 0.984 . S
H1309 N1305 0.985 . S
H1310 N1304 0.984 . S
H1311 N1304 0.984 . S
H1312 N1300 0.984 . S
H1313 N1300 0.985 . S
C1314 C1315 1.363 . S
C1314 C1320 1.379 . S
C1314 N1322 1.356 . S
C1315 C1314 1.363 . S
C1315 C1321 1.363 . S
C1316 C1317 1.363 . S
C1316 C1321 1.379 . S
C1316 N1323 1.356 . S
C1317 C1316 1.363 . S
C1317 C1320 1.363 . S
N1318 C1320 1.356 . S
N1318 H1330 0.984 . S
N1318 H1331 0.985 . S
N1319 C1321 1.356 . S
N1319 H1324 0.984 . S
N1319 H1325 0.985 . S
C1320 C1314 1.379 . S
C1320 C1317 1.363 . S
C1320 N1318 1.356 . S
C1321 C1315 1.363 . S
C1321 C1316 1.379 . S
C1321 N1319 1.356 . S
N1322 C1314 1.356 . S
N1322 H1328 0.984 . S
N1322 H1329 0.984 . S
N1323 C1316 1.356 . S
N1323 H1326 0.984 . S
N1323 H1327 0.985 . S
H1324 N1319 0.984 . S
H1325 N1319 0.985 . S
H1326 N1323 0.984 . S
H1327 N1323 0.985 . S
H1328 N1322 0.984 . S
H1329 N1322 0.984 . S
H1330 N1318 0.984 . S
H1331 N1318 0.985 . S
C1332 C1333 1.363 . S
C1332 C1338 1.379 . S
C1332 N1340 1.356 . S
C1333 C1332 1.363 . S
C1333 C1339 1.363 . S
C1334 C1335 1.363 . S
C1334 C1339 1.379 . S
C1334 N1341 1.356 . S
C1335 C1334 1.363 . S
C1335 C1338 1.363 . S
N1336 C1338 1.356 . S
N1336 H1348 0.984 . S
N1336 H1349 0.985 . S
N1337 C1339 1.356 . S
N1337 H1342 0.984 . S
N1337 H1343 0.985 . S
C1338 C1332 1.379 . S
C1338 C1335 1.363 . S
C1338 N1336 1.356 . S
C1339 C1333 1.363 . S
C1339 C1334 1.379 . S
C1339 N1337 1.356 . S
N1340 C1332 1.356 . S
N1340 H1346 0.984 . S
N1340 H1347 0.984 . S
N1341 C1334 1.356 . S
N1341 H1344 0.984 . S
N1341 H1345 0.985 . S
H1342 N1337 0.984 . S
H1343 N1337 0.985 . S
H1344 N1341 0.984 . S
H1345 N1341 0.985 . S
H1346 N1340 0.984 . S
H1347 N1340 0.984 . S
H1348 N1336 0.984 . S
H1349 N1336 0.985 . S
C1350 C1351 1.363 . S
C1350 C1356 1.379 . S
C1350 N1358 1.356 . S
C1351 C1350 1.363 . S
C1351 C1357 1.363 . S
C1352 C1353 1.363 . S
C1352 C1357 1.379 . S
C1352 N1359 1.356 . S
C1353 C1352 1.363 . S
C1353 C1356 1.363 . S
N1354 C1356 1.356 . S
N1354 H1366 0.984 . S
N1354 H1367 0.985 . S
N1355 C1357 1.356 . S
N1355 H1360 0.984 . S
N1355 H1361 0.985 1_554 S
C1356 C1350 1.379 . S
C1356 C1353 1.363 . S
C1356 N1354 1.356 . S
C1357 C1351 1.363 . S
C1357 C1352 1.379 . S
C1357 N1355 1.356 . S
N1358 C1350 1.356 . S
N1358 H1364 0.984 . S
N1358 H1365 0.984 . S
N1359 C1352 1.356 . S
N1359 H1362 0.984 . S
N1359 H1363 0.985 . S
H1360 N1355 0.984 . S
H1361 N1355 0.985 1_556 S
H1362 N1359 0.984 . S
H1363 N1359 0.985 . S
H1364 N1358 0.984 . S
H1365 N1358 0.984 . S
H1366 N1354 0.984 . S
H1367 N1354 0.985 . S
C1368 C1369 1.363 . S
C1368 C1374 1.379 1_455 S
C1368 N1376 1.356 . S
C1369 C1368 1.363 . S
C1369 C1375 1.363 . S
C1370 C1371 1.363 . S
C1370 C1375 1.379 1_655 S
C1370 N1377 1.356 . S
C1371 C1370 1.363 . S
C1371 C1374 1.363 . S
N1372 C1374 1.356 . S
N1372 H1384 0.984 . S
N1372 H1385 0.985 . S
N1373 C1375 1.356 . S
N1373 H1378 0.984 . S
N1373 H1379 0.985 . S
C1374 C1368 1.379 1_655 S
C1374 C1371 1.363 . S
C1374 N1372 1.356 . S
C1375 C1369 1.363 . S
C1375 C1370 1.379 1_455 S
C1375 N1373 1.356 . S
N1376 C1368 1.356 . S
N1376 H1382 0.984 . S
N1376 H1383 0.984 . S
N1377 C1370 1.356 . S
N1377 H1380 0.984 . S
N1377 H1381 0.985 . S
H1378 N1373 0.984 . S
H1379 N1373 0.985 . S
H1380 N1377 0.984 . S
H1381 N1377 0.985 . S
H1382 N1376 0.984 . S
H1383 N1376 0.984 . S
H1384 N1372 0.984 . S
H1385 N1372 0.985 . S
C1386 C1387 1.363 . S
C1386 C1392 1.379 . S
C1386 N1394 1.356 . S
C1387 C1386 1.363 . S
C1387 C1393 1.363 . S
C1388 C1389 1.363 . S
C1388 C1393 1.379 . S
C1388 N1395 1.356 . S
C1389 C1388 1.363 . S
C1389 C1392 1.363 . S
N1390 C1392 1.356 . S
N1390 H1402 0.984 . S
N1390 H1403 0.985 . S
N1391 C1393 1.356 . S
N1391 H1396 0.984 . S
N1391 H1397 0.985 . S
C1392 C1386 1.379 . S
C1392 C1389 1.363 . S
C1392 N1390 1.356 . S
C1393 C1387 1.363 . S
C1393 C1388 1.379 . S
C1393 N1391 1.356 . S
N1394 C1386 1.356 . S
N1394 H1400 0.984 . S
N1394 H1401 0.984 . S
N1395 C1388 1.356 . S
N1395 H1398 0.984 . S
N1395 H1399 0.985 . S
H1396 N1391 0.984 . S
H1397 N1391 0.985 . S
H1398 N1395 0.984 . S
H1399 N1395 0.985 . S
H1400 N1394 0.984 . S
H1401 N1394 0.984 . S
H1402 N1390 0.984 . S
H1403 N1390 0.985 . S
C1404 C1405 1.363 . S
C1404 C1410 1.379 1_545 S
C1404 N1412 1.356 . S
C1405 C1404 1.363 . S
C1405 C1411 1.363 . S
C1406 C1407 1.363 . S
C1406 C1411 1.379 1_565 S
C1406 N1413 1.356 . S
C1407 C1406 1.363 . S
C1407 C1410 1.363 . S
N1408 C1410 1.356 . S
N1408 H1420 0.984 . S
N1408 H1421 0.985 . S
N1409 C1411 1.356 . S
N1409 H1414 0.984 . S
N1409 H1415 0.985 . S
C1410 C1404 1.379 1_565 S
C1410 C1407 1.363 . S
C1410 N1408 1.356 . S
C1411 C1405 1.363 . S
C1411 C1406 1.379 1_545 S
C1411 N1409 1.356 . S
N1412 C1404 1.356 . S
N1412 H1418 0.984 . S
N1412 H1419 0.984 . S
N1413 C1406 1.356 . S
N1413 H1416 0.984 . S
N1413 H1417 0.985 . S
H1414 N1409 0.984 . S
H1415 N1409 0.985 . S
H1416 N1413 0.984 . S
H1417 N1413 0.985 . S
H1418 N1412 0.984 . S
H1419 N1412 0.984 . S
H1420 N1408 0.984 . S
H1421 N1408 0.985 . S
C1422 C1423 1.363 . S
C1422 C1428 1.379 1_545 S
C1422 N1430 1.356 . S
C1423 C1422 1.363 . S
C1423 C1429 1.363 . S
C1424 C1425 1.363 . S
C1424 C1429 1.379 1_565 S
C1424 N1431 1.356 . S
C1425 C1424 1.363 . S
C1425 C1428 1.363 . S
N1426 C1428 1.356 . S
N1426 H1438 0.984 . S
N1426 H1439 0.985 . S
N1427 C1429 1.356 . S
N1427 H1432 0.984 . S
N1427 H1433 0.985 . S
C1428 C1422 1.379 1_565 S
C1428 C1425 1.363 . S
C1428 N1426 1.356 . S
C1429 C1423 1.363 . S
C1429 C1424 1.379 1_545 S
C1429 N1427 1.356 . S
N1430 C1422 1.356 . S
N1430 H1436 0.984 . S
N1430 H1437 0.984 . S
N1431 C1424 1.356 . S
N1431 H1434 0.984 . S
N1431 H1435 0.985 . S
H1432 N1427 0.984 . S
H1433 N1427 0.985 . S
H1434 N1431 0.984 . S
H1435 N1431 0.985 . S
H1436 N1430 0.984 . S
H1437 N1430 0.984 . S
H1438 N1426 0.984 . S
H1439 N1426 0.985 . S
C1440 C1441 1.363 . S
C1440 C1446 1.379 1_655 S
C1440 N1448 1.356 . S
C1441 C1440 1.363 . S
C1441 C1447 1.363 . S
C1442 C1443 1.363 . S
C1442 C1447 1.379 1_455 S
C1442 N1449 1.356 . S
C1443 C1442 1.363 . S
C1443 C1446 1.363 . S
N1444 C1446 1.356 . S
N1444 H1456 0.984 . S
N1444 H1457 0.985 . S
N1445 C1447 1.356 . S
N1445 H1450 0.984 . S
N1445 H1451 0.985 . S
C1446 C1440 1.379 1_455 S
C1446 C1443 1.363 . S
C1446 N1444 1.356 . S
C1447 C1441 1.363 . S
C1447 C1442 1.379 1_655 S
C1447 N1445 1.356 . S
N1448 C1440 1.356 . S
N1448 H1454 0.984 . S
N1448 H1455 0.984 . S
N1449 C1442 1.356 . S
N1449 H1452 0.984 . S
N1449 H1453 0.985 . S
H1450 N1445 0.984 . S
H1451 N1445 0.985 . S
H1452 N1449 0.984 . S
H1453 N1449 0.985 . S
H1454 N1448 0.984 . S
H1455 N1448 0.984 . S
H1456 N1444 0.984 . S
H1457 N1444 0.985 . S
C1458 C1459 1.363 . S
C1458 C1464 1.379 . S
C1458 N1466 1.356 . S
C1459 C1458 1.363 . S
C1459 C1465 1.363 . S
C1460 C1461 1.363 . S
C1460 C1465 1.379 . S
C1460 N1467 1.356 . S
C1461 C1460 1.363 . S
C1461 C1464 1.363 . S
N1462 C1464 1.356 . S
N1462 H1474 0.984 . S
N1462 H1475 0.985 . S
N1463 C1465 1.356 . S
N1463 H1468 0.984 . S
N1463 H1469 0.985 . S
C1464 C1458 1.379 . S
C1464 C1461 1.363 . S
C1464 N1462 1.356 . S
C1465 C1459 1.363 . S
C1465 C1460 1.379 . S
C1465 N1463 1.356 . S
N1466 C1458 1.356 . S
N1466 H1472 0.984 . S
N1466 H1473 0.984 . S
N1467 C1460 1.356 . S
N1467 H1470 0.984 . S
N1467 H1471 0.985 . S
H1468 N1463 0.984 . S
H1469 N1463 0.985 . S
H1470 N1467 0.984 . S
H1471 N1467 0.985 . S
H1472 N1466 0.984 . S
H1473 N1466 0.984 . S
H1474 N1462 0.984 . S
H1475 N1462 0.985 . S
C1476 C1477 1.363 . S
C1476 C1482 1.379 . S
C1476 N1484 1.356 . S
C1477 C1476 1.363 . S
C1477 C1483 1.363 . S
C1478 C1479 1.363 . S
C1478 C1483 1.379 . S
C1478 N1485 1.356 . S
C1479 C1478 1.363 . S
C1479 C1482 1.363 . S
N1480 C1482 1.356 . S
N1480 H1492 0.984 . S
N1480 H1493 0.985 . S
N1481 C1483 1.356 . S
N1481 H1486 0.984 . S
N1481 H1487 0.985 . S
C1482 C1476 1.379 . S
C1482 C1479 1.363 . S
C1482 N1480 1.356 . S
C1483 C1477 1.363 . S
C1483 C1478 1.379 . S
C1483 N1481 1.356 . S
N1484 C1476 1.356 . S
N1484 H1490 0.984 . S
N1484 H1491 0.984 . S
N1485 C1478 1.356 . S
N1485 H1488 0.984 . S
N1485 H1489 0.985 . S
H1486 N1481 0.984 . S
H1487 N1481 0.985 . S
H1488 N1485 0.984 . S
H1489 N1485 0.985 . S
H1490 N1484 0.984 . S
H1491 N1484 0.984 . S
H1492 N1480 0.984 . S
H1493 N1480 0.985 . S
C1494 C1495 1.363 . S
C1494 C1500 1.379 . S
C1494 N1502 1.356 . S
C1495 C1494 1.363 . S
C1495 C1501 1.363 . S
C1496 C1497 1.363 . S
C1496 C1501 1.379 . S
C1496 N1503 1.356 . S
C1497 C1496 1.363 . S
C1497 C1500 1.363 . S
N1498 C1500 1.356 . S
N1498 H1510 0.984 . S
N1498 H1511 0.985 . S
N1499 C1501 1.356 . S
N1499 H1504 0.984 . S
N1499 H1505 0.985 . S
C1500 C1494 1.379 . S
C1500 C1497 1.363 . S
C1500 N1498 1.356 . S
C1501 C1495 1.363 . S
C1501 C1496 1.379 . S
C1501 N1499 1.356 . S
N1502 C1494 1.356 . S
N1502 H1508 0.984 . S
N1502 H1509 0.984 . S
N1503 C1496 1.356 . S
N1503 H1506 0.984 . S
N1503 H1507 0.985 . S
H1504 N1499 0.984 . S
H1505 N1499 0.985 . S
H1506 N1503 0.984 . S
H1507 N1503 0.985 . S
H1508 N1502 0.984 . S
H1509 N1502 0.984 . S
H1510 N1498 0.984 . S
H1511 N1498 0.985 . S
C1512 C1513 1.363 . S
C1512 C1518 1.379 . S
C1512 N1520 1.356 . S
C1513 C1512 1.363 . S
C1513 C1519 1.363 . S
C1514 C1515 1.363 . S
C1514 C1519 1.379 . S
C1514 N1521 1.356 . S
C1515 C1514 1.363 . S
C1515 C1518 1.363 . S
N1516 C1518 1.356 . S
N1516 H1528 0.984 . S
N1516 H1529 0.985 . S
N1517 C1519 1.356 . S
N1517 H1522 0.984 . S
N1517 H1523 0.985 . S
C1518 C1512 1.379 . S
C1518 C1515 1.363 . S
C1518 N1516 1.356 . S
C1519 C1513 1.363 . S
C1519 C1514 1.379 . S
C1519 N1517 1.356 . S
N1520 C1512 1.356 . S
N1520 H1526 0.984 . S
N1520 H1527 0.984 . S
N1521 C1514 1.356 . S
N1521 H1524 0.984 . S
N1521 H1525 0.985 . S
H1522 N1517 0.984 . S
H1523 N1517 0.985 . S
H1524 N1521 0.984 . S
H1525 N1521 0.985 . S
H1526 N1520 0.984 . S
H1527 N1520 0.984 . S
H1528 N1516 0.984 . S
H1529 N1516 0.985 . S
C1530 C1531 1.363 . S
C1530 C1536 1.379 . S
C1530 N1538 1.356 . S
C1531 C1530 1.363 . S
C1531 C1537 1.363 . S
C1532 C1533 1.363 . S
C1532 C1537 1.379 . S
C1532 N1539 1.356 . S
C1533 C1532 1.363 . S
C1533 C1536 1.363 . S
N1534 C1536 1.356 . S
N1534 H1546 0.984 . S
N1534 H1547 0.985 . S
N1535 C1537 1.356 . S
N1535 H1540 0.984 . S
N1535 H1541 0.985 . S
C1536 C1530 1.379 . S
C1536 C1533 1.363 . S
C1536 N1534 1.356 . S
C1537 C1531 1.363 . S
C1537 C1532 1.379 . S
C1537 N1535 1.356 . S
N1538 C1530 1.356 . S
N1538 H1544 0.984 . S
N1538 H1545 0.984 . S
N1539 C1532 1.356 . S
N1539 H1542 0.984 . S
N1539 H1543 0.985 . S
H1540 N1535 0.984 . S
H1541 N1535 0.985 . S
H1542 N1539 0.984 . S
H1543 N1539 0.985 . S
H1544 N1538 0.984 . S
H1545 N1538 0.984 . S
H1546 N1534 0.984 . S
H1547 N1534 0.985 . S
C1548 C1549 1.363 . S
C1548 C1554 1.379 . S
C1548 N1556 1.356 . S
C1549 C1548 1.363 . S
C1549 C1555 1.363 . S
C1550 C1551 1.363 . S
C1550 C1555 1.379 . S
C1550 N1557 1.356 . S
C1551 C1550 1.363 . S
C1551 C1554 1.363 . S
N1552 C1554 1.356 . S
N1552 H1564 0.984 . S
N1552 H1565 0.985 . S
N1553 C1555 1.356 . S
N1553 H1558 0.984 . S
N1553 H1559 0.985 . S
C1554 C1548 1.379 . S
C1554 C1551 1.363 . S
C1554 N1552 1.356 . S
C1555 C1549 1.363 . S
C1555 C1550 1.379 . S
C1555 N1553 1.356 . S
N1556 C1548 1.356 . S
N1556 H1562 0.984 . S
N1556 H1563 0.984 . S
N1557 C1550 1.356 . S
N1557 H1560 0.984 . S
N1557 H1561 0.985 . S
H1558 N1553 0.984 . S
H1559 N1553 0.985 . S
H1560 N1557 0.984 . S
H1561 N1557 0.985 . S
H1562 N1556 0.984 . S
H1563 N1556 0.984 . S
H1564 N1552 0.984 . S
H1565 N1552 0.985 . S
C1566 C1567 1.363 . S
C1566 C1572 1.379 . S
C1566 N1574 1.356 . S
C1567 C1566 1.363 . S
C1567 C1573 1.363 . S
C1568 C1569 1.363 . S
C1568 C1573 1.379 . S
C1568 N1575 1.356 . S
C1569 C1568 1.363 . S
C1569 C1572 1.363 . S
N1570 C1572 1.356 . S
N1570 H1582 0.984 . S
N1570 H1583 0.985 . S
N1571 C1573 1.356 . S
N1571 H1576 0.984 . S
N1571 H1577 0.985 . S
C1572 C1566 1.379 . S
C1572 C1569 1.363 . S
C1572 N1570 1.356 . S
C1573 C1567 1.363 . S
C1573 C1568 1.379 . S
C1573 N1571 1.356 . S
N1574 C1566 1.356 . S
N1574 H1580 0.984 . S
N1574 H1581 0.984 . S
N1575 C1568 1.356 . S
N1575 H1578 0.984 . S
N1575 H1579 0.985 . S
H1576 N1571 0.984 . S
H1577 N1571 0.985 . S
H1578 N1575 0.984 . S
H1579 N1575 0.985 . S
H1580 N1574 0.984 . S
H1581 N1574 0.984 . S
H1582 N1570 0.984 . S
H1583 N1570 0.985 . S
C1584 C1585 1.363 . S
C1584 C1590 1.379 . S
C1584 N1592 1.356 . S
C1585 C1584 1.363 . S
C1585 C1591 1.363 . S
C1586 C1587 1.363 . S
C1586 C1591 1.379 . S
C1586 N1593 1.356 . S
C1587 C1586 1.363 . S
C1587 C1590 1.363 . S
N1588 C1590 1.356 . S
N1588 H1600 0.984 . S
N1588 H1601 0.985 . S
N1589 C1591 1.356 . S
N1589 H1594 0.984 . S
N1589 H1595 0.985 . S
C1590 C1584 1.379 . S
C1590 C1587 1.363 . S
C1590 N1588 1.356 . S
C1591 C1585 1.363 . S
C1591 C1586 1.379 . S
C1591 N1589 1.356 . S
N1592 C1584 1.356 . S
N1592 H1598 0.984 . S
N1592 H1599 0.984 . S
N1593 C1586 1.356 . S
N1593 H1596 0.984 . S
N1593 H1597 0.985 . S
H1594 N1589 0.984 . S
H1595 N1589 0.985 . S
H1596 N1593 0.984 . S
H1597 N1593 0.985 . S
H1598 N1592 0.984 . S
H1599 N1592 0.984 . S
H1600 N1588 0.984 . S
H1601 N1588 0.985 . S
C1602 C1603 1.363 . S
C1602 C1608 1.379 . S
C1602 N1610 1.356 . S
C1603 C1602 1.363 . S
C1603 C1609 1.363 . S
C1604 C1605 1.363 . S
C1604 C1609 1.379 . S
C1604 N1611 1.356 . S
C1605 C1604 1.363 . S
C1605 C1608 1.363 . S
N1606 C1608 1.356 . S
N1606 H1618 0.984 . S
N1606 H1619 0.985 . S
N1607 C1609 1.356 . S
N1607 H1612 0.984 . S
N1607 H1613 0.985 . S
C1608 C1602 1.379 . S
C1608 C1605 1.363 . S
C1608 N1606 1.356 . S
C1609 C1603 1.363 . S
C1609 C1604 1.379 . S
C1609 N1607 1.356 . S
N1610 C1602 1.356 . S
N1610 H1616 0.984 . S
N1610 H1617 0.984 . S
N1611 C1604 1.356 . S
N1611 H1614 0.984 . S
N1611 H1615 0.985 . S
H1612 N1607 0.984 . S
H1613 N1607 0.985 . S
H1614 N1611 0.984 . S
H1615 N1611 0.985 . S
H1616 N1610 0.984 . S
H1617 N1610 0.984 . S
H1618 N1606 0.984 . S
H1619 N1606 0.985 . S
C1620 C1621 1.363 . S
C1620 C1626 1.379 . S
C1620 N1628 1.356 . S
C1621 C1620 1.363 . S
C1621 C1627 1.363 . S
C1622 C1623 1.363 . S
C1622 C1627 1.379 . S
C1622 N1629 1.356 . S
C1623 C1622 1.363 . S
C1623 C1626 1.363 . S
N1624 C1626 1.356 . S
N1624 H1636 0.984 . S
N1624 H1637 0.985 . S
N1625 C1627 1.356 . S
N1625 H1630 0.984 . S
N1625 H1631 0.985 . S
C1626 C1620 1.379 . S
C1626 C1623 1.363 . S
C1626 N1624 1.356 . S
C1627 C1621 1.363 . S
C1627 C1622 1.379 . S
C1627 N1625 1.356 . S
N1628 C1620 1.356 . S
N1628 H1634 0.984 . S
N1628 H1635 0.984 . S
N1629 C1622 1.356 . S
N1629 H1632 0.984 . S
N1629 H1633 0.985 . S
H1630 N1625 0.984 . S
H1631 N1625 0.985 . S
H1632 N1629 0.984 . S
H1633 N1629 0.985 . S
H1634 N1628 0.984 . S
H1635 N1628 0.984 . S
H1636 N1624 0.984 . S
H1637 N1624 0.985 . S
C1638 C1639 1.363 1_556 S
C1638 C1644 1.379 . S
C1638 N1646 1.356 . S
C1639 C1638 1.363 1_554 S
C1639 C1645 1.363 . S
C1640 C1641 1.363 . S
C1640 C1645 1.379 . S
C1640 N1647 1.356 . S
C1641 C1640 1.363 . S
C1641 C1644 1.363 1_554 S
N1642 C1644 1.356 . S
N1642 H1654 0.984 . S
N1642 H1655 0.985 . S
N1643 C1645 1.356 . S
N1643 H1648 0.984 . S
N1643 H1649 0.985 . S
C1644 C1638 1.379 . S
C1644 C1641 1.363 1_556 S
C1644 N1642 1.356 . S
C1645 C1639 1.363 . S
C1645 C1640 1.379 . S
C1645 N1643 1.356 . S
N1646 C1638 1.356 . S
N1646 H1652 0.984 . S
N1646 H1653 0.984 . S
N1647 C1640 1.356 . S
N1647 H1650 0.984 . S
N1647 H1651 0.985 . S
H1648 N1643 0.984 . S
H1649 N1643 0.985 . S
H1650 N1647 0.984 . S
H1651 N1647 0.985 . S
H1652 N1646 0.984 . S
H1653 N1646 0.984 . S
H1654 N1642 0.984 . S
H1655 N1642 0.985 . S
C1656 C1657 1.363 . S
C1656 C1662 1.379 . S
C1656 N1664 1.356 1_554 S
C1657 C1656 1.363 . S
C1657 C1663 1.363 . S
C1658 C1659 1.363 . S
C1658 C1663 1.379 . S
C1658 N1665 1.356 . S
C1659 C1658 1.363 . S
C1659 C1662 1.363 . S
N1660 C1662 1.356 1_556 S
N1660 H1672 0.984 . S
N1660 H1673 0.985 . S
N1661 C1663 1.356 . S
N1661 H1666 0.984 . S
N1661 H1667 0.985 . S
C1662 C1656 1.379 . S
C1662 C1659 1.363 . S
C1662 N1660 1.356 1_554 S
C1663 C1657 1.363 . S
C1663 C1658 1.379 . S
C1663 N1661 1.356 . S
N1664 C1656 1.356 1_556 S
N1664 H1670 0.984 . S
N1664 H1671 0.984 . S
N1665 C1658 1.356 . S
N1665 H1668 0.984 . S
N1665 H1669 0.985 . S
H1666 N1661 0.984 . S
H1667 N1661 0.985 . S
H1668 N1665 0.984 . S
H1669 N1665 0.985 . S
H1670 N1664 0.984 . S
H1671 N1664 0.984 . S
H1672 N1660 0.984 . S
H1673 N1660 0.985 . S
C1674 C1675 1.363 . S
C1674 C1680 1.379 . S
C1674 N1682 1.356 . S
C1675 C1674 1.363 . S
C1675 C1681 1.363 . S
C1676 C1677 1.363 . S
C1676 C1681 1.379 . S
C1676 N1683 1.356 1_554 S
C1677 C1676 1.363 . S
C1677 C1680 1.363 . S
N1678 C1680 1.356 . S
N1678 H1690 0.984 . S
N1678 H1691 0.985 . S
N1679 C1681 1.356 1_556 S
N1679 H1684 0.984 . S
N1679 H1685 0.985 . S
C1680 C1674 1.379 . S
C1680 C1677 1.363 . S
C1680 N1678 1.356 . S
C1681 C1675 1.363 . S
C1681 C1676 1.379 . S
C1681 N1679 1.356 1_554 S
N1682 C1674 1.356 . S
N1682 H1688 0.984 . S
N1682 H1689 0.984 . S
N1683 C1676 1.356 1_556 S
N1683 H1686 0.984 . S
N1683 H1687 0.985 . S
H1684 N1679 0.984 . S
H1685 N1679 0.985 . S
H1686 N1683 0.984 . S
H1687 N1683 0.985 . S
H1688 N1682 0.984 . S
H1689 N1682 0.984 . S
H1690 N1678 0.984 . S
H1691 N1678 0.985 . S
C1692 C1693 1.363 . S
C1692 C1698 1.379 . S
C1692 N1700 1.356 . S
C1693 C1692 1.363 . S
C1693 C1699 1.363 . S
C1694 C1695 1.363 . S
C1694 C1699 1.379 . S
C1694 N1701 1.356 1_556 S
C1695 C1694 1.363 . S
C1695 C1698 1.363 . S
N1696 C1698 1.356 . S
N1696 H1708 0.984 . S
N1696 H1709 0.985 . S
N1697 C1699 1.356 1_554 S
N1697 H1702 0.984 . S
N1697 H1703 0.985 . S
C1698 C1692 1.379 . S
C1698 C1695 1.363 . S
C1698 N1696 1.356 . S
C1699 C1693 1.363 . S
C1699 C1694 1.379 . S
C1699 N1697 1.356 1_556 S
N1700 C1692 1.356 . S
N1700 H1706 0.984 . S
N1700 H1707 0.984 . S
N1701 C1694 1.356 1_554 S
N1701 H1704 0.984 . S
N1701 H1705 0.985 . S
H1702 N1697 0.984 . S
H1703 N1697 0.985 . S
H1704 N1701 0.984 . S
H1705 N1701 0.985 . S
H1706 N1700 0.984 . S
H1707 N1700 0.984 . S
H1708 N1696 0.984 . S
H1709 N1696 0.985 . S
C1710 C1711 1.363 . S
C1710 C1716 1.379 . S
C1710 N1718 1.356 1_556 S
C1711 C1710 1.363 . S
C1711 C1717 1.363 . S
C1712 C1713 1.363 . S
C1712 C1717 1.379 . S
C1712 N1719 1.356 . S
C1713 C1712 1.363 . S
C1713 C1716 1.363 . S
N1714 C1716 1.356 1_554 S
N1714 H1726 0.984 . S
N1714 H1727 0.985 . S
N1715 C1717 1.356 . S
N1715 H1720 0.984 . S
N1715 H1721 0.985 . S
C1716 C1710 1.379 . S
C1716 C1713 1.363 . S
C1716 N1714 1.356 1_556 S
C1717 C1711 1.363 . S
C1717 C1712 1.379 . S
C1717 N1715 1.356 . S
N1718 C1710 1.356 1_554 S
N1718 H1724 0.984 . S
N1718 H1725 0.984 . S
N1719 C1712 1.356 . S
N1719 H1722 0.984 . S
N1719 H1723 0.985 . S
H1720 N1715 0.984 . S
H1721 N1715 0.985 . S
H1722 N1719 0.984 . S
H1723 N1719 0.985 . S
H1724 N1718 0.984 . S
H1725 N1718 0.984 . S
H1726 N1714 0.984 . S
H1727 N1714 0.985 . S
C1728 C1729 1.363 . S
C1728 C1734 1.379 . S
C1728 N1736 1.356 . S
C1729 C1728 1.363 . S
C1729 C1735 1.363 1_556 S
C1730 C1731 1.363 1_554 S
C1730 C1735 1.379 . S
C1730 N1737 1.356 . S
C1731 C1730 1.363 1_556 S
C1731 C1734 1.363 . S
N1732 C1734 1.356 . S
N1732 H1744 0.984 . S
N1732 H1745 0.985 . S
N1733 C1735 1.356 . S
N1733 H1738 0.984 . S
N1733 H1739 0.985 . S
C1734 C1728 1.379 . S
C1734 C1731 1.363 . S
C1734 N1732 1.356 . S
C1735 C1729 1.363 1_554 S
C1735 C1730 1.379 . S
C1735 N1733 1.356 . S
N1736 C1728 1.356 . S
N1736 H1742 0.984 . S
N1736 H1743 0.984 . S
N1737 C1730 1.356 . S
N1737 H1740 0.984 . S
N1737 H1741 0.985 . S
H1738 N1733 0.984 . S
H1739 N1733 0.985 . S
H1740 N1737 0.984 . S
H1741 N1737 0.985 . S
H1742 N1736 0.984 . S
H1743 N1736 0.984 . S
H1744 N1732 0.984 . S
H1745 N1732 0.985 . S
C1746 C1747 1.363 . S
C1746 C1752 1.379 . S
C1746 N1754 1.356 . S
C1747 C1746 1.363 . S
C1747 C1753 1.363 . S
C1748 C1749 1.363 . S
C1748 C1753 1.379 . S
C1748 N1755 1.356 . S
C1749 C1748 1.363 . S
C1749 C1752 1.363 . S
N1750 C1752 1.356 . S
N1750 H1762 0.984 . S
N1750 H1763 0.985 . S
N1751 C1753 1.356 . S
N1751 H1756 0.984 . S
N1751 H1757 0.985 . S
C1752 C1746 1.379 . S
C1752 C1749 1.363 . S
C1752 N1750 1.356 . S
C1753 C1747 1.363 . S
C1753 C1748 1.379 . S
C1753 N1751 1.356 . S
N1754 C1746 1.356 . S
N1754 H1760 0.984 . S
N1754 H1761 0.984 . S
N1755 C1748 1.356 . S
N1755 H1758 0.984 . S
N1755 H1759 0.985 . S
H1756 N1751 0.984 . S
H1757 N1751 0.985 . S
H1758 N1755 0.984 . S
H1759 N1755 0.985 . S
H1760 N1754 0.984 . S
H1761 N1754 0.984 . S
H1762 N1750 0.984 . S
H1763 N1750 0.985 . S
C1764 C1765 1.363 . S
C1764 C1770 1.379 . S
C1764 N1772 1.356 . S
C1765 C1764 1.363 . S
C1765 C1771 1.363 . S
C1766 C1767 1.363 . S
C1766 C1771 1.379 . S
C1766 N1773 1.356 . S
C1767 C1766 1.363 . S
C1767 C1770 1.363 . S
N1768 C1770 1.356 . S
N1768 H1780 0.984 . S
N1768 H1781 0.985 . S
N1769 C1771 1.356 . S
N1769 H1774 0.984 . S
N1769 H1775 0.985 . S
C1770 C1764 1.379 . S
C1770 C1767 1.363 . S
C1770 N1768 1.356 . S
C1771 C1765 1.363 . S
C1771 C1766 1.379 . S
C1771 N1769 1.356 . S
N1772 C1764 1.356 . S
N1772 H1778 0.984 . S
N1772 H1779 0.984 . S
N1773 C1766 1.356 . S
N1773 H1776 0.984 . S
N1773 H1777 0.985 . S
H1774 N1769 0.984 . S
H1775 N1769 0.985 . S
H1776 N1773 0.984 . S
H1777 N1773 0.985 . S
H1778 N1772 0.984 . S
H1779 N1772 0.984 . S
H1780 N1768 0.984 . S
H1781 N1768 0.985 . S
C1782 C1783 1.363 . S
C1782 C1788 1.379 . S
C1782 N1790 1.356 . S
C1783 C1782 1.363 . S
C1783 C1789 1.363 . S
C1784 C1785 1.363 . S
C1784 C1789 1.379 . S
C1784 N1791 1.356 . S
C1785 C1784 1.363 . S
C1785 C1788 1.363 . S
N1786 C1788 1.356 . S
N1786 H1798 0.984 . S
N1786 H1799 0.985 . S
N1787 C1789 1.356 . S
N1787 H1792 0.984 . S
N1787 H1793 0.985 . S
C1788 C1782 1.379 . S
C1788 C1785 1.363 . S
C1788 N1786 1.356 . S
C1789 C1783 1.363 . S
C1789 C1784 1.379 . S
C1789 N1787 1.356 . S
N1790 C1782 1.356 . S
N1790 H1796 0.984 . S
N1790 H1797 0.984 . S
N1791 C1784 1.356 . S
N1791 H1794 0.984 . S
N1791 H1795 0.985 . S
H1792 N1787 0.984 . S
H1793 N1787 0.985 . S
H1794 N1791 0.984 . S
H1795 N1791 0.985 . S
H1796 N1790 0.984 . S
H1797 N1790 0.984 . S
H1798 N1786 0.984 . S
H1799 N1786 0.985 . S
C505 C78 1.518 . S
C507 C8 1.518 . S
C523 C50 1.518 . S
C525 C22 1.518 . S
C541 C36 1.518 . S
C543 C64 1.518 . S
C559 C92 1.518 . S
C561 C162 1.518 . S
C577 C106 1.518 . S
C579 C134 1.518 . S
C595 C148 1.518 . S
C597 C120 1.518 . S
C613 C176 1.518 . S
C615 C246 1.518 . S
C631 C190 1.518 . S
C633 C218 1.518 . S
C649 C204 1.518 . S
C651 C232 1.518 . S
C667 C330 1.518 . S
C669 C260 1.518 . S
C685 C274 1.518 . S
C687 C302 1.518 . S
C703 C316 1.518 . S
C705 C288 1.518 . S
C721 C414 1.518 . S
C723 C344 1.518 . S
C739 C386 1.518 . S
C741 C358 1.518 . S
C757 C400 1.518 . S
C759 C372 1.518 . S
C775 C428 1.518 . S
C777 C498 1.518 . S
C793 C442 1.518 . S
C795 C470 1.518 . S
C811 C456 1.518 . S
C813 C484 1.518 . S
C829 C77 1.531 . S
C831 C7 1.531 . S
C847 C21 1.531 . S
C849 C49 1.531 . S
C865 C63 1.531 . S
C867 C35 1.531 . S
C883 C91 1.531 . S
C885 C161 1.531 . S
C901 C105 1.531 . S
C903 C133 1.531 . S
C919 C147 1.531 . S
C921 C119 1.531 . S
C937 C175 1.531 . S
C939 C245 1.531 . S
C955 C217 1.531 . S
C957 C189 1.531 . S
C973 C231 1.531 . S
C975 C203 1.531 . S
C991 C259 1.531 . S
C993 C329 1.531 . S
C1009 C273 1.531 . S
C1011 C301 1.531 . S
C1027 C315 1.531 . S
C1029 C287 1.531 . S
C1045 C413 1.531 . S
C1047 C343 1.531 . S
C1063 C357 1.531 . S
C1065 C385 1.531 . S
C1081 C371 1.531 . S
C1083 C399 1.531 . S
C1099 C497 1.531 . S
C1101 C427 1.531 . S
C1117 C469 1.531 . S
C1119 C441 1.531 . S
C1135 C483 1.531 . S
C1137 C455 1.531 . S
C1153 C233 1.618 . S
C1155 C9 1.618 . S
C1171 C247 1.618 . S
C1173 C23 1.618 . S
C1189 C219 1.618 . S
C1191 C37 1.618 . S
C1207 C51 1.618 . S
C1209 C373 1.618 . S
C1225 C65 1.618 . S
C1227 C345 1.618 . S
C1243 C79 1.618 . S
C1245 C359 1.618 . S
C1261 C93 1.618 . S
C1263 C485 1.618 . S
C1279 C107 1.617 . S
C1281 C499 1.617 . S
C1297 C121 1.618 . S
C1299 C471 1.618 . S
C1315 C135 1.618 . S
C1317 C289 1.618 . S
C1333 C261 1.618 . S
C1335 C149 1.617 . S
C1351 C275 1.618 . S
C1353 C163 1.618 . S
C1369 C401 1.618 . S
C1371 C177 1.618 . S
C1387 C191 1.618 . S
C1389 C415 1.618 . S
C1405 C205 1.618 . S
C1407 C387 1.618 . S
C1423 C303 1.618 . S
C1425 C457 1.618 . S
C1441 C317 1.618 . S
C1443 C429 1.618 . S
C1459 C443 1.618 . S
C1461 C331 1.618 . S
C1477 C3 1.373 . S
C1479 C143 1.373 . S
C1495 C157 1.373 . S
C1497 C17 1.373 . S
C1513 C129 1.373 . S
C1515 C31 1.373 . S
C1531 C45 1.373 . S
C1533 C115 1.373 . S
C1549 C59 1.373 . S
C1551 C87 1.373 . S
C1567 C73 1.373 . S
C1569 C101 1.373 . S
C1585 C171 1.373 . S
C1587 C311 1.373 . S
C1603 C325 1.373 . S
C1605 C185 1.373 . S
C1621 C297 1.373 . S
C1623 C199 1.373 . S
C1639 C213 1.373 . S
C1641 C283 1.373 . S
C1657 C227 1.373 . S
C1659 C255 1.373 . S
C1675 C269 1.373 . S
C1677 C241 1.373 . S
C1693 C339 1.373 . S
C1695 C479 1.373 . S
C1711 C493 1.373 . S
C1713 C353 1.373 . S
C1729 C367 1.373 . S
C1731 C465 1.373 . S
C1747 C381 1.373 . S
C1749 C451 1.373 . S
C1765 C423 1.373 . S
C1767 C395 1.373 . S
C1783 C409 1.373 . S
C1785 C437 1.373 . S
