# Generated by pormake.
# Topology ume, (4)-cn, num edge types: 1
# Building blocks:
#     Node 0, Type 0, BuildingBlock: GALJAG_clean_sbu_0, # of connection points: 4
#     Node 1, Type 0, BuildingBlock: GALJAG_clean_sbu_0, # of connection points: 4
#     Node 2, Type 0, BuildingBlock: GALJAG_clean_sbu_0, # of connection points: 4
#     Node 3, Type 0, BuildingBlock: GALJAG_clean_sbu_0, # of connection points: 4
#     Node 4, Type 0, BuildingBlock: GALJAG_clean_sbu_0, # of connection points: 4
#     Node 5, Type 0, BuildingBlock: GALJAG_clean_sbu_0, # of connection points: 4
#     Node 6, Type 0, BuildingBlock: GALJAG_clean_sbu_0, # of connection points: 4
#     Node 7, Type 0, BuildingBlock: GALJAG_clean_sbu_0, # of connection points: 4
#     Node 8, Type 0, BuildingBlock: GALJAG_clean_sbu_0, # of connection points: 4
#     Node 9, Type 0, BuildingBlock: GALJAG_clean_sbu_0, # of connection points: 4
#     Node 10, Type 0, BuildingBlock: GALJAG_clean_sbu_0, # of connection points: 4
#     Node 11, Type 0, BuildingBlock: GALJAG_clean_sbu_0, # of connection points: 4
#     Node 12, Type 0, BuildingBlock: GALJAG_clean_sbu_0, # of connection points: 4
#     Node 13, Type 0, BuildingBlock: GALJAG_clean_sbu_0, # of connection points: 4
#     Node 14, Type 0, BuildingBlock: GALJAG_clean_sbu_0, # of connection points: 4
#     Node 15, Type 0, BuildingBlock: GALJAG_clean_sbu_0, # of connection points: 4
#     Edge 16, Type (0, 0), BuildingBlock: UVAHIK_clean_linker_0, # of connection points: 2
#     Edge 17, Type (0, 0), BuildingBlock: UVAHIK_clean_linker_0, # of connection points: 2
#     Edge 18, Type (0, 0), BuildingBlock: UVAHIK_clean_linker_0, # of connection points: 2
#     Edge 19, Type (0, 0), BuildingBlock: UVAHIK_clean_linker_0, # of connection points: 2
#     Edge 20, Type (0, 0), BuildingBlock: UVAHIK_clean_linker_0, # of connection points: 2
#     Edge 21, Type (0, 0), BuildingBlock: UVAHIK_clean_linker_0, # of connection points: 2
#     Edge 22, Type (0, 0), BuildingBlock: UVAHIK_clean_linker_0, # of connection points: 2
#     Edge 23, Type (0, 0), BuildingBlock: UVAHIK_clean_linker_0, # of connection points: 2
#     Edge 24, Type (0, 0), BuildingBlock: UVAHIK_clean_linker_0, # of connection points: 2
#     Edge 25, Type (0, 0), BuildingBlock: UVAHIK_clean_linker_0, # of connection points: 2
#     Edge 26, Type (0, 0), BuildingBlock: UVAHIK_clean_linker_0, # of connection points: 2
#     Edge 27, Type (0, 0), BuildingBlock: UVAHIK_clean_linker_0, # of connection points: 2
#     Edge 28, Type (0, 0), BuildingBlock: UVAHIK_clean_linker_0, # of connection points: 2
#     Edge 29, Type (0, 0), BuildingBlock: UVAHIK_clean_linker_0, # of connection points: 2
#     Edge 30, Type (0, 0), BuildingBlock: UVAHIK_clean_linker_0, # of connection points: 2
#     Edge 31, Type (0, 0), BuildingBlock: UVAHIK_clean_linker_0, # of connection points: 2
#     Edge 32, Type (0, 0), BuildingBlock: UVAHIK_clean_linker_0, # of connection points: 2
#     Edge 33, Type (0, 0), BuildingBlock: UVAHIK_clean_linker_0, # of connection points: 2
#     Edge 34, Type (0, 0), BuildingBlock: UVAHIK_clean_linker_0, # of connection points: 2
#     Edge 35, Type (0, 0), BuildingBlock: UVAHIK_clean_linker_0, # of connection points: 2
#     Edge 36, Type (0, 0), BuildingBlock: UVAHIK_clean_linker_0, # of connection points: 2
#     Edge 37, Type (0, 0), BuildingBlock: UVAHIK_clean_linker_0, # of connection points: 2
#     Edge 38, Type (0, 0), BuildingBlock: UVAHIK_clean_linker_0, # of connection points: 2
#     Edge 39, Type (0, 0), BuildingBlock: UVAHIK_clean_linker_0, # of connection points: 2
#     Edge 40, Type (0, 0), BuildingBlock: UVAHIK_clean_linker_0, # of connection points: 2
#     Edge 41, Type (0, 0), BuildingBlock: UVAHIK_clean_linker_0, # of connection points: 2
#     Edge 42, Type (0, 0), BuildingBlock: UVAHIK_clean_linker_0, # of connection points: 2
#     Edge 43, Type (0, 0), BuildingBlock: UVAHIK_clean_linker_0, # of connection points: 2
#     Edge 44, Type (0, 0), BuildingBlock: UVAHIK_clean_linker_0, # of connection points: 2
#     Edge 45, Type (0, 0), BuildingBlock: UVAHIK_clean_linker_0, # of connection points: 2
#     Edge 46, Type (0, 0), BuildingBlock: UVAHIK_clean_linker_0, # of connection points: 2
#     Edge 47, Type (0, 0), BuildingBlock: UVAHIK_clean_linker_0, # of connection points: 2
# Relax obj value: 0.060
# Max RMSD: 0.125
# Mean RMSD: 0.125
data_MOF--net-ume--node1-GALJAG_clean_sbu_0--edge1-UVAHIK_clean_linker_0
_symmetry_space_group_name_H-M    P1
_symmetry_Int_Tables_number       1
_symmetry_cell_setting            triclinic
loop_
_symmetry_equiv_pos_as_xyz
'x, y, z'
_cell_length_a     36.061113
_cell_length_b     36.074736
_cell_length_c     145.9967
_cell_angle_alpha  90.000986
_cell_angle_beta   89.982504
_cell_angle_gamma 90.00499
loop_
_atom_site_label
_atom_site_type_symbol
_atom_site_fract_x
_atom_site_fract_y
_atom_site_fract_z
_atom_type_partial_charge
In0 In 0.24834 0.10501 0.30535 0.0
O1 O 0.24673 0.14875 0.31674 0.0
O2 O 0.24329 0.09178 0.32042 0.0
C3 C 0.24763 0.14731 0.29019 0.0
C4 C 0.18092 0.07331 0.30415 0.0
C5 C 0.31694 0.07495 0.30412 0.0
O6 O 0.25206 0.16098 0.29808 0.0
O7 O 0.24368 0.11257 0.28999 0.0
O8 O 0.28796 0.0565 0.30242 0.0
O9 O 0.31115 0.10809 0.30643 0.0
C10 C 0.24353 0.12504 0.32306 0.0
O11 O 0.2104 0.05434 0.30447 0.0
O12 O 0.18567 0.10797 0.30433 0.0
In13 In 0.8884 0.75058 0.55579 0.0
O14 O 0.84511 0.74664 0.56727 0.0
O15 O 0.89923 0.7654 0.57063 0.0
C16 C 0.84274 0.74634 0.54125 0.0
C17 C 0.92023 0.68296 0.556 0.0
C18 C 0.92333 0.81534 0.5521 0.0
O19 O 0.83439 0.76421 0.54839 0.0
O20 O 0.87384 0.73044 0.54147 0.0
O21 O 0.94098 0.78575 0.55368 0.0
O22 O 0.88857 0.81188 0.55223 0.0
C23 C 0.86697 0.75806 0.5734 0.0
O24 O 0.93782 0.71173 0.55361 0.0
O25 O 0.88698 0.68853 0.55833 0.0
In26 In 0.24682 0.38638 0.80711 0.0
O27 O 0.28398 0.43735 0.8056 0.0
O28 O 0.30947 0.38411 0.80605 0.0
C29 C 0.17847 0.41704 0.80748 0.0
C30 C 0.25331 0.36173 0.82443 0.0
C31 C 0.24691 0.35014 0.79101 0.0
O32 O 0.2076 0.43624 0.80672 0.0
O33 O 0.1839 0.38259 0.80808 0.0
O34 O 0.24975 0.33319 0.79856 0.0
O35 O 0.24351 0.38482 0.79167 0.0
C36 C 0.31371 0.41875 0.80543 0.0
O37 O 0.24502 0.34013 0.81792 0.0
O38 O 0.2576 0.39516 0.82216 0.0
In39 In 0.61017 0.75306 0.05473 0.0
O40 O 0.65087 0.75535 0.06684 0.0
O41 O 0.59305 0.75168 0.06957 0.0
C42 C 0.65482 0.75418 0.04 0.0
C43 C 0.5794 0.82068 0.05337 0.0
C44 C 0.5784 0.6857 0.05285 0.0
O45 O 0.66693 0.74664 0.0479 0.0
O46 O 0.62058 0.76108 0.0396 0.0
O47 O 0.56 0.7154 0.05228 0.0
O48 O 0.61261 0.69011 0.05424 0.0
C49 C 0.62542 0.7537 0.07278 0.0
O50 O 0.56099 0.79127 0.05212 0.0
O51 O 0.61322 0.81583 0.05527 0.0
In52 In 0.25429 0.38878 0.93661 0.0
O53 O 0.25337 0.34169 0.92603 0.0
O54 O 0.2668 0.39622 0.92157 0.0
C55 C 0.24725 0.3529 0.95267 0.0
C56 C 0.18733 0.42167 0.93538 0.0
C57 C 0.32178 0.41971 0.93884 0.0
O58 O 0.25209 0.33577 0.94521 0.0
O59 O 0.2462 0.38772 0.95197 0.0
O60 O 0.29259 0.43885 0.93807 0.0
O61 O 0.31677 0.38508 0.93862 0.0
C62 C 0.26227 0.36266 0.91945 0.0
O63 O 0.2167 0.43987 0.93679 0.0
O64 O 0.19192 0.38721 0.93452 0.0
In65 In 0.61458 0.75707 0.18832 0.0
O66 O 0.65466 0.75566 0.17609 0.0
O67 O 0.59767 0.76693 0.17363 0.0
C68 C 0.66185 0.75062 0.20247 0.0
C69 C 0.58357 0.68926 0.18805 0.0
C70 C 0.58212 0.82265 0.19236 0.0
O71 O 0.67037 0.76799 0.19526 0.0
O72 O 0.62984 0.73664 0.20251 0.0
O73 O 0.56415 0.79257 0.19233 0.0
O74 O 0.61607 0.81934 0.1905 0.0
C75 C 0.62957 0.76248 0.17029 0.0
O76 O 0.56527 0.71795 0.19018 0.0
O77 O 0.6172 0.69499 0.18609 0.0
In78 In 0.2512 0.11134 0.43713 0.0
O79 O 0.25338 0.15346 0.42535 0.0
O80 O 0.23724 0.09806 0.4224 0.0
C81 C 0.25749 0.15593 0.4518 0.0
C82 C 0.31888 0.07986 0.43645 0.0
C83 C 0.18501 0.07965 0.44098 0.0
O84 O 0.2416 0.16625 0.44453 0.0
O85 O 0.2704 0.12347 0.45164 0.0
O86 O 0.21434 0.06068 0.4402 0.0
O87 O 0.18948 0.11405 0.43997 0.0
C88 C 0.24308 0.13027 0.41939 0.0
O89 O 0.29014 0.06157 0.43855 0.0
O90 O 0.31323 0.11363 0.43467 0.0
In91 In 0.88816 0.74784 0.6869 0.0
O92 O 0.8434 0.74723 0.67571 0.0
O93 O 0.89974 0.75525 0.67185 0.0
C94 C 0.84969 0.74877 0.70267 0.0
C95 C 0.92037 0.81477 0.68832 0.0
C96 C 0.91882 0.67964 0.68759 0.0
O97 O 0.83364 0.74815 0.69497 0.0
O98 O 0.88463 0.7487 0.70232 0.0
O99 O 0.93778 0.70886 0.68845 0.0
O100 O 0.88463 0.68491 0.68633 0.0
C101 C 0.86641 0.75287 0.66932 0.0
O102 O 0.93901 0.78509 0.68813 0.0
O103 O 0.88567 0.8105 0.68785 0.0
In104 In 0.7457 0.61219 0.80744 0.0
O105 O 0.75421 0.66073 0.81738 0.0
O106 O 0.73226 0.61023 0.82258 0.0
C107 C 0.7453 0.64542 0.79094 0.0
C108 C 0.67836 0.58053 0.80622 0.0
C109 C 0.81293 0.57903 0.80805 0.0
O110 O 0.74152 0.66353 0.79829 0.0
O111 O 0.74966 0.61099 0.79198 0.0
O112 O 0.78307 0.56072 0.80798 0.0
O113 O 0.80871 0.6137 0.80785 0.0
C114 C 0.74217 0.64306 0.82422 0.0
O115 O 0.70776 0.56153 0.80677 0.0
O116 O 0.68314 0.61519 0.80629 0.0
In117 In 0.38708 0.25234 0.05647 0.0
O118 O 0.3429 0.25397 0.06783 0.0
O119 O 0.39916 0.24401 0.07148 0.0
C120 C 0.34883 0.25183 0.04069 0.0
C121 C 0.41846 0.18517 0.05464 0.0
C122 C 0.41778 0.32052 0.05587 0.0
O123 O 0.33262 0.25087 0.04837 0.0
O124 O 0.38373 0.25339 0.04108 0.0
O125 O 0.4369 0.29128 0.05527 0.0
O126 O 0.38343 0.31527 0.05684 0.0
C127 C 0.36608 0.24746 0.07413 0.0
O128 O 0.43746 0.21463 0.05483 0.0
O129 O 0.38388 0.18978 0.05538 0.0
In130 In 0.74799 0.88115 0.30681 0.0
O131 O 0.75547 0.83611 0.31773 0.0
O132 O 0.72974 0.88662 0.32163 0.0
C133 C 0.75411 0.83771 0.29188 0.0
C134 C 0.81437 0.9154 0.30751 0.0
C135 C 0.68348 0.9169 0.30349 0.0
O136 O 0.73452 0.82873 0.29868 0.0
O137 O 0.77061 0.86834 0.29261 0.0
O138 O 0.71261 0.93393 0.30583 0.0
O139 O 0.68727 0.88232 0.30267 0.0
C140 C 0.74082 0.85498 0.32404 0.0
O141 O 0.78556 0.93159 0.30461 0.0
O142 O 0.80937 0.88246 0.31014 0.0
In143 In 0.11213 0.24958 0.55548 0.0
O144 O 0.06102 0.28671 0.55407 0.0
O145 O 0.11401 0.31232 0.55556 0.0
C146 C 0.08138 0.18167 0.55318 0.0
C147 C 0.13089 0.25297 0.57332 0.0
C148 C 0.15718 0.25205 0.54079 0.0
O149 O 0.06321 0.21112 0.55183 0.0
O150 O 0.11443 0.18673 0.55566 0.0
O151 O 0.16719 0.23768 0.54827 0.0
O152 O 0.12476 0.26503 0.54072 0.0
C153 C 0.07944 0.31653 0.55464 0.0
O154 O 0.15494 0.25452 0.56704 0.0
O155 O 0.09798 0.24921 0.57057 0.0
In156 In 0.75285 0.88832 0.43692 0.0
O157 O 0.71563 0.93988 0.43735 0.0
O158 O 0.69039 0.88712 0.43538 0.0
C159 C 0.8189 0.92151 0.44007 0.0
C160 C 0.75697 0.86283 0.41959 0.0
C161 C 0.74862 0.84618 0.4521 0.0
O162 O 0.78898 0.93974 0.43967 0.0
O163 O 0.81519 0.88708 0.43895 0.0
O164 O 0.7655 0.83566 0.445 0.0
O165 O 0.73388 0.87777 0.45156 0.0
C166 C 0.68599 0.92165 0.43621 0.0
O167 O 0.74486 0.8432 0.42608 0.0
O168 O 0.76698 0.89502 0.42185 0.0
In169 In 0.11129 0.24772 0.68735 0.0
O170 O 0.15519 0.24963 0.67592 0.0
O171 O 0.09823 0.2557 0.67241 0.0
C172 C 0.15009 0.24275 0.70301 0.0
C173 C 0.08061 0.17975 0.68714 0.0
C174 C 0.07951 0.31464 0.68969 0.0
O175 O 0.16595 0.24744 0.69537 0.0
O176 O 0.11521 0.24074 0.70265 0.0
O177 O 0.06079 0.28507 0.68927 0.0
O178 O 0.11415 0.31028 0.68906 0.0
C179 C 0.13137 0.25462 0.66968 0.0
O180 O 0.06176 0.20871 0.68856 0.0
O181 O 0.11472 0.18522 0.68576 0.0
In182 In 0.75459 0.61384 0.93564 0.0
O183 O 0.75097 0.66223 0.92547 0.0
O184 O 0.76 0.60787 0.92028 0.0
C185 C 0.75925 0.64863 0.9519 0.0
C186 C 0.82232 0.58291 0.9355 0.0
C187 C 0.6871 0.58118 0.9367 0.0
O188 O 0.75143 0.6658 0.94461 0.0
O189 O 0.76434 0.61427 0.95096 0.0
O190 O 0.71685 0.56276 0.9369 0.0
O191 O 0.69154 0.61567 0.93593 0.0
C192 C 0.75619 0.64188 0.91855 0.0
O193 O 0.79299 0.56364 0.93557 0.0
O194 O 0.81729 0.61757 0.93551 0.0
In195 In 0.39385 0.25495 0.18768 0.0
O196 O 0.34955 0.25775 0.17642 0.0
O197 O 0.40413 0.24094 0.1728 0.0
C198 C 0.35331 0.26217 0.20304 0.0
C199 C 0.42623 0.32215 0.18672 0.0
C200 C 0.42435 0.18805 0.19123 0.0
O201 O 0.33961 0.24977 0.19568 0.0
O202 O 0.3871 0.27101 0.20259 0.0
O203 O 0.44382 0.21705 0.19045 0.0
O204 O 0.38996 0.19308 0.19029 0.0
C205 C 0.37145 0.24726 0.17018 0.0
O206 O 0.44478 0.29286 0.18803 0.0
O207 O 0.39178 0.31728 0.18581 0.0
C208 C 0.88287 0.91153 0.30974 0.0
C209 C 0.85153 0.93269 0.30744 0.0
C210 C 0.9183 0.92703 0.30934 0.0
C211 C 0.97072 0.00489 0.29902 0.0
H212 H 0.04451 0.9777 0.31714 0.0
C213 C 0.1122 0.07902 0.30254 0.0
C214 C 0.14355 0.05656 0.30391 0.0
C215 C 0.07664 0.06371 0.3027 0.0
C216 C 0.02431 0.98524 0.31198 0.0
H217 H 0.8326 0.98685 0.30306 0.0
H218 H 0.89451 0.01433 0.30256 0.0
H219 H 0.98197 0.95253 0.31828 0.0
H220 H 0.16232 0.00041 0.30643 0.0
H221 H 0.09999 0.97361 0.30678 0.0
H222 H 0.01312 0.03812 0.29283 0.0
C223 C 0.89178 0.98549 0.3045 0.0
C224 C 0.98844 0.97081 0.31262 0.0
C225 C 0.85628 0.96986 0.30485 0.0
C226 C 0.13866 0.01838 0.30535 0.0
C227 C 0.10301 0.0031 0.30561 0.0
C228 C 0.00654 0.01955 0.29843 0.0
C229 C 0.92327 0.96418 0.30669 0.0
C230 C 0.96121 0.98033 0.30613 0.0
C231 C 0.07163 0.02566 0.30433 0.0
C232 C 0.03373 0.00978 0.30488 0.0
H233 H 0.88013 0.88272 0.31172 0.0
H234 H 0.94187 0.90958 0.31093 0.0
H235 H 0.9507 0.01234 0.29381 0.0
H236 H 0.11511 0.10856 0.30141 0.0
H237 H 0.05298 0.08183 0.30178 0.0
C238 C 0.91425 0.61419 0.5574 0.0
C239 C 0.93668 0.64541 0.55585 0.0
C240 C 0.92932 0.57854 0.55709 0.0
C241 C 0.01086 0.526 0.54855 0.0
H242 H 0.97592 0.45123 0.56559 0.0
C243 C 0.08461 0.38548 0.55376 0.0
C244 C 0.06219 0.35369 0.55433 0.0
C245 C 0.06872 0.42078 0.55366 0.0
C246 C 0.98566 0.47171 0.56072 0.0
H247 H 0.99257 0.66386 0.55287 0.0
H248 H 0.0192 0.60164 0.55256 0.0
H249 H 0.95009 0.51362 0.5662 0.0
H250 H 0.00555 0.3339 0.5552 0.0
H251 H 0.9777 0.39582 0.5551 0.0
H252 H 0.04699 0.48408 0.54322 0.0
C253 C 0.98976 0.60459 0.55382 0.0
C254 C 0.97085 0.5075 0.56106 0.0
C255 C 0.97458 0.64029 0.55406 0.0
C256 C 0.02351 0.35791 0.55475 0.0
C257 C 0.0076 0.39331 0.55475 0.0
C258 C 0.02589 0.49029 0.54827 0.0
C259 C 0.96728 0.57323 0.55531 0.0
C260 C 0.98324 0.53514 0.55498 0.0
C261 C 0.03007 0.42511 0.55421 0.0
C262 C 0.01346 0.46277 0.55436 0.0
H263 H 0.88486 0.61723 0.55874 0.0
H264 H 0.91101 0.55512 0.55811 0.0
H265 H 0.02061 0.5463 0.54365 0.0
H266 H 0.11452 0.38312 0.55343 0.0
H267 H 0.08677 0.44475 0.55334 0.0
C268 C 0.63643 0.52516 0.80569 0.0
C269 C 0.64106 0.56381 0.80563 0.0
C270 C 0.60092 0.50966 0.80527 0.0
C271 C 0.50269 0.53199 0.80972 0.0
H272 H 0.48343 0.4456 0.79465 0.0
C273 C 0.35478 0.47461 0.80436 0.0
C274 C 0.35079 0.43593 0.80479 0.0
C275 C 0.39008 0.49064 0.80406 0.0
C276 C 0.48844 0.46954 0.79895 0.0
H277 H 0.61227 0.61654 0.80498 0.0
H278 H 0.55046 0.58953 0.80418 0.0
H279 H 0.54554 0.47242 0.79498 0.0
H280 H 0.3805 0.38367 0.80517 0.0
H281 H 0.44195 0.41159 0.80474 0.0
H282 H 0.44572 0.52901 0.81374 0.0
C283 C 0.57414 0.57117 0.80467 0.0
C284 C 0.52403 0.48487 0.79915 0.0
C285 C 0.60958 0.58664 0.80508 0.0
C286 C 0.38269 0.41359 0.80481 0.0
C287 C 0.41792 0.42958 0.80451 0.0
C288 C 0.46713 0.51666 0.80953 0.0
C289 C 0.56937 0.53252 0.8048 0.0
C290 C 0.53156 0.51624 0.80454 0.0
C291 C 0.42205 0.46829 0.80418 0.0
C292 C 0.45962 0.48519 0.80416 0.0
H293 H 0.66021 0.5069 0.80613 0.0
H294 H 0.59814 0.47977 0.80548 0.0
H295 H 0.50772 0.55582 0.81405 0.0
H296 H 0.33067 0.49251 0.80431 0.0
H297 H 0.39233 0.52054 0.80369 0.0
C298 C 0.41235 0.11659 0.05303 0.0
C299 C 0.43516 0.14798 0.05379 0.0
C300 C 0.42784 0.08122 0.05246 0.0
C301 C 0.51523 0.03149 0.04733 0.0
H302 H 0.46844 0.95207 0.06102 0.0
C303 C 0.58507 0.88967 0.0536 0.0
C304 C 0.56273 0.85795 0.05276 0.0
C305 C 0.56932 0.925 0.05324 0.0
C306 C 0.48157 0.97386 0.05707 0.0
H307 H 0.49207 0.16711 0.05447 0.0
H308 H 0.51923 0.10519 0.05363 0.0
H309 H 0.44159 0.01401 0.06136 0.0
H310 H 0.50649 0.83823 0.05081 0.0
H311 H 0.47891 0.90006 0.0502 0.0
H312 H 0.55555 0.99126 0.04317 0.0
C313 C 0.48935 0.10793 0.05333 0.0
C314 C 0.46618 0.00936 0.05726 0.0
C315 C 0.47382 0.14338 0.05387 0.0
C316 C 0.52437 0.86221 0.05149 0.0
C317 C 0.50858 0.89756 0.05119 0.0
C318 C 0.53072 0.99599 0.04718 0.0
C319 C 0.46651 0.07642 0.05268 0.0
C320 C 0.48283 0.03861 0.05239 0.0
C321 C 0.53088 0.92932 0.0521 0.0
C322 C 0.51406 0.96682 0.05206 0.0
H323 H 0.38243 0.11929 0.05289 0.0
H324 H 0.40946 0.05762 0.0518 0.0
H325 H 0.52844 0.05326 0.0434 0.0
H326 H 0.61474 0.88723 0.05459 0.0
H327 H 0.58715 0.94893 0.05406 0.0
C328 C 0.1461 0.47752 0.93582 0.0
C329 C 0.15026 0.43898 0.93498 0.0
C330 C 0.1108 0.49356 0.93566 0.0
C331 C 0.01371 0.475 0.92871 0.0
H332 H 0.99096 0.5542 0.94577 0.0
C333 C 0.86447 0.52781 0.93485 0.0
C334 C 0.85977 0.56639 0.93539 0.0
C335 C 0.90004 0.51241 0.93469 0.0
C336 C 0.99701 0.53234 0.9409 0.0
H337 H 0.12087 0.38697 0.93328 0.0
H338 H 0.05939 0.4148 0.93313 0.0
H339 H 0.05302 0.52739 0.94556 0.0
H340 H 0.88851 0.61912 0.93621 0.0
H341 H 0.95052 0.59224 0.93592 0.0
H342 H 0.95754 0.47978 0.92411 0.0
C343 C 0.0833 0.43278 0.93377 0.0
C344 C 0.03258 0.51703 0.94077 0.0
C345 C 0.11854 0.4168 0.93391 0.0
C346 C 0.89126 0.58926 0.93581 0.0
C347 C 0.92678 0.57387 0.93569 0.0
C348 C 0.9781 0.49022 0.92887 0.0
C349 C 0.07897 0.47134 0.93467 0.0
C350 C 0.04135 0.48814 0.93468 0.0
C351 C 0.93157 0.53529 0.93512 0.0
C352 C 0.96936 0.51904 0.93497 0.0
H353 H 0.17008 0.4953 0.93663 0.0
H354 H 0.10846 0.52339 0.93624 0.0
H355 H 0.01969 0.45317 0.92383 0.0
H356 H 0.84068 0.50952 0.93453 0.0
H357 H 0.90286 0.48255 0.93434 0.0
C358 C 0.42025 0.39106 0.18644 0.0
C359 C 0.44305 0.3595 0.18653 0.0
C360 C 0.43572 0.42653 0.1865 0.0
C361 C 0.52268 0.47691 0.19191 0.0
H362 H 0.47569 0.55592 0.17813 0.0
C363 C 0.59017 0.62058 0.18664 0.0
C364 C 0.56726 0.65168 0.18791 0.0
C365 C 0.57509 0.58493 0.18649 0.0
C366 C 0.48891 0.5342 0.18208 0.0
H367 H 0.49995 0.34026 0.18663 0.0
H368 H 0.52715 0.40229 0.18648 0.0
H369 H 0.44995 0.49348 0.17755 0.0
H370 H 0.51061 0.66989 0.18997 0.0
H371 H 0.48412 0.60742 0.18963 0.0
H372 H 0.56201 0.51772 0.1963 0.0
C373 C 0.49724 0.39967 0.18657 0.0
C374 C 0.47415 0.4984 0.18176 0.0
C375 C 0.4817 0.36411 0.18659 0.0
C376 C 0.52892 0.64643 0.18899 0.0
C377 C 0.51376 0.61073 0.18875 0.0
C378 C 0.53762 0.51266 0.19216 0.0
C379 C 0.47442 0.43136 0.18656 0.0
C380 C 0.49074 0.4693 0.18671 0.0
C381 C 0.53673 0.57961 0.18752 0.0
C382 C 0.52081 0.54169 0.18727 0.0
H383 H 0.39032 0.3884 0.18646 0.0
H384 H 0.41724 0.45018 0.18666 0.0
H385 H 0.53583 0.45541 0.19594 0.0
H386 H 0.61984 0.62374 0.18579 0.0
H387 H 0.59342 0.56152 0.18544 0.0
C388 C 0.36172 0.02521 0.43736 0.0
C389 C 0.35647 0.06352 0.43628 0.0
C390 C 0.39747 0.01011 0.43726 0.0
C391 C 0.49453 0.03138 0.43031 0.0
H392 H 0.51821 0.95037 0.44675 0.0
C393 C 0.64443 0.97753 0.43613 0.0
C394 C 0.64876 0.93883 0.43609 0.0
C395 C 0.60893 0.9933 0.4361 0.0
C396 C 0.51193 0.97283 0.44207 0.0
H397 H 0.38449 0.1161 0.4343 0.0
H398 H 0.4467 0.09002 0.43435 0.0
H399 H 0.45591 0.97655 0.44679 0.0
H400 H 0.61941 0.88632 0.43597 0.0
H401 H 0.55771 0.91381 0.43598 0.0
H402 H 0.55088 0.02786 0.42571 0.0
C403 C 0.42333 0.0714 0.43507 0.0
C404 C 0.47617 0.98776 0.44207 0.0
C405 C 0.38763 0.08641 0.4351 0.0
C406 C 0.617 0.91626 0.43602 0.0
C407 C 0.58163 0.93198 0.43608 0.0
C408 C 0.5304 0.01663 0.43038 0.0
C409 C 0.42877 0.03304 0.43615 0.0
C410 C 0.46692 0.01715 0.43616 0.0
C411 C 0.57717 0.97065 0.43613 0.0
C412 C 0.53942 0.98708 0.43623 0.0
H413 H 0.33821 0.00686 0.43824 0.0
H414 H 0.40052 0.98038 0.43797 0.0
H415 H 0.48833 0.05358 0.42556 0.0
H416 H 0.66842 0.9956 0.43619 0.0
H417 H 0.60632 0.02321 0.43621 0.0
C418 C 0.08716 0.11093 0.68634 0.0
C419 C 0.06433 0.14223 0.68729 0.0
C420 C 0.07203 0.07533 0.68666 0.0
C421 C 0.98943 0.02378 0.69457 0.0
H422 H 0.02539 0.94815 0.6779 0.0
C423 C 0.91537 0.88361 0.68945 0.0
C424 C 0.93765 0.85179 0.68879 0.0
C425 C 0.93143 0.91881 0.6896 0.0
C426 C 0.01538 0.96886 0.68267 0.0
H427 H 0.00776 0.16094 0.68924 0.0
H428 H 0.98116 0.09875 0.68964 0.0
H429 H 0.05184 0.0103 0.67732 0.0
H430 H 0.9942 0.83172 0.68789 0.0
H431 H 0.02235 0.89336 0.68816 0.0
H432 H 0.95265 0.98235 0.69984 0.0
C433 C 0.01086 0.10166 0.6888 0.0
C434 C 0.03052 0.00447 0.68234 0.0
C435 C 0.02604 0.13729 0.68851 0.0
C436 C 0.97635 0.85579 0.68839 0.0
C437 C 0.99243 0.89104 0.68849 0.0
C438 C 0.9742 0.9882 0.69487 0.0
C439 C 0.0337 0.07027 0.6879 0.0
C440 C 0.01768 0.03237 0.68827 0.0
C441 C 0.97011 0.92291 0.68906 0.0
C442 C 0.98696 0.9604 0.68891 0.0
H443 H 0.11683 0.11388 0.68543 0.0
H444 H 0.09047 0.05176 0.68607 0.0
H445 H 0.97936 0.04443 0.69934 0.0
H446 H 0.88544 0.88138 0.68976 0.0
H447 H 0.9135 0.94285 0.68994 0.0
C448 C 0.64272 0.97321 0.30421 0.0
C449 C 0.64711 0.93529 0.30233 0.0
C450 C 0.60761 0.98968 0.30377 0.0
C451 C 0.51238 0.9761 0.29467 0.0
H452 H 0.48457 0.04244 0.3144 0.0
C453 C 0.36059 0.02226 0.30094 0.0
C454 C 0.3548 0.05937 0.30347 0.0
C455 C 0.39658 0.00783 0.30041 0.0
C456 C 0.492 0.02434 0.30877 0.0
H457 H 0.61837 0.88507 0.29829 0.0
H458 H 0.55729 0.91364 0.29756 0.0
H459 H 0.54707 0.01694 0.31391 0.0
H460 H 0.38216 0.11056 0.30735 0.0
H461 H 0.44474 0.08557 0.30636 0.0
H462 H 0.45714 0.9833 0.28958 0.0
C463 C 0.58089 0.93083 0.2993 0.0
C464 C 0.5279 0.00976 0.30849 0.0
C465 C 0.61591 0.91439 0.29977 0.0
C466 C 0.38568 0.08179 0.30542 0.0
C467 C 0.42157 0.0674 0.3049 0.0
C468 C 0.47645 0.99069 0.29496 0.0
C469 C 0.5762 0.96856 0.3014 0.0
C470 C 0.53849 0.98534 0.30145 0.0
C471 C 0.4275 0.03022 0.30242 0.0
C472 C 0.46579 0.01489 0.30203 0.0
H473 H 0.66628 0.99003 0.3062 0.0
H474 H 0.60504 0.01893 0.30531 0.0
H475 H 0.51977 0.95774 0.28909 0.0
H476 H 0.33732 0.00431 0.29941 0.0
H477 H 0.40014 0.97896 0.29857 0.0
C478 C 0.97985 0.85601 0.55184 0.0
C479 C 0.94138 0.85179 0.55077 0.0
C480 C 0.99615 0.89118 0.55129 0.0
C481 C 0.97969 0.98757 0.54327 0.0
H482 H 0.05185 0.01288 0.56192 0.0
C483 C 0.02801 0.13866 0.54999 0.0
C484 C 0.06562 0.14402 0.55212 0.0
C485 C 0.01341 0.10277 0.54928 0.0
C486 C 0.03212 0.00618 0.55658 0.0
H487 H 0.88997 0.88093 0.54801 0.0
H488 H 0.91828 0.94209 0.54709 0.0
H489 H 0.0264 0.95043 0.56138 0.0
H490 H 0.11757 0.116 0.55497 0.0
H491 H 0.09236 0.05373 0.55361 0.0
H492 H 0.98528 0.04348 0.53852 0.0
C493 C 0.93598 0.91833 0.54829 0.0
C494 C 0.01755 0.9703 0.55627 0.0
C495 C 0.91972 0.88326 0.54887 0.0
C496 C 0.0884 0.11283 0.55338 0.0
C497 C 0.07389 0.07708 0.55266 0.0
C498 C 0.99432 0.02349 0.54358 0.0
C499 C 0.97432 0.92283 0.54962 0.0
C500 C 0.99105 0.96057 0.54964 0.0
C501 C 0.03615 0.07153 0.55068 0.0
C502 C 0.02065 0.03328 0.55026 0.0
H503 H 0.99726 0.83226 0.5533 0.0
H504 H 0.02584 0.89363 0.55223 0.0
H505 H 0.95963 0.98086 0.53801 0.0
H506 H 0.00978 0.16217 0.54899 0.0
H507 H 0.98414 0.09951 0.54783 0.0
C508 C 0.10946 0.4105 0.80824 0.0
C509 C 0.14088 0.43343 0.80764 0.0
C510 C 0.07387 0.42582 0.80836 0.0
C511 C 0.02352 0.51261 0.8133 0.0
H512 H 0.9449 0.46713 0.79908 0.0
C513 C 0.88205 0.58379 0.80797 0.0
C514 C 0.85005 0.56159 0.80821 0.0
C515 C 0.91726 0.56767 0.80803 0.0
C516 C 0.9664 0.4799 0.80319 0.0
H517 H 0.15966 0.49038 0.8067 0.0
H518 H 0.09745 0.51718 0.80688 0.0
H519 H 0.00691 0.44013 0.79889 0.0
H520 H 0.82982 0.50506 0.80872 0.0
H521 H 0.89143 0.47679 0.80893 0.0
H522 H 0.98308 0.55233 0.81762 0.0
C523 C 0.10035 0.48735 0.80734 0.0
C524 C 0.00197 0.46445 0.80306 0.0
C525 C 0.13598 0.47201 0.80719 0.0
C526 C 0.85399 0.52287 0.80852 0.0
C527 C 0.88928 0.5067 0.80859 0.0
C528 C 0.98796 0.52801 0.81344 0.0
C529 C 0.06887 0.46443 0.80793 0.0
C530 C 0.03098 0.4807 0.8081 0.0
C531 C 0.92135 0.52893 0.80834 0.0
C532 C 0.95898 0.51194 0.80836 0.0
H533 H 0.11235 0.38065 0.80861 0.0
H534 H 0.05025 0.40741 0.80893 0.0
H535 H 0.04508 0.52546 0.81738 0.0
H536 H 0.87994 0.61372 0.80769 0.0
H537 H 0.9413 0.58561 0.80769 0.0
C538 C 0.58359 0.61665 0.05258 0.0
C539 C 0.56127 0.64855 0.0523 0.0
C540 C 0.56756 0.58141 0.05249 0.0
C541 C 0.48109 0.53277 0.05811 0.0
H542 H 0.52351 0.4532 0.04364 0.0
C543 C 0.41104 0.38942 0.05528 0.0
C544 C 0.43409 0.35804 0.05533 0.0
C545 C 0.42622 0.42496 0.05466 0.0
C546 C 0.51158 0.47499 0.04781 0.0
H547 H 0.50469 0.66861 0.05159 0.0
H548 H 0.4766 0.60691 0.05143 0.0
H549 H 0.55036 0.51517 0.04282 0.0
H550 H 0.49111 0.3392 0.05483 0.0
H551 H 0.51776 0.4013 0.05393 0.0
H552 H 0.44266 0.4926 0.06321 0.0
C553 C 0.50651 0.60922 0.05178 0.0
C554 C 0.52691 0.51052 0.04731 0.0
C555 C 0.52258 0.64451 0.05181 0.0
C556 C 0.47266 0.36288 0.05478 0.0
C557 C 0.48789 0.39847 0.0542 0.0
C558 C 0.46586 0.49721 0.05864 0.0
C559 C 0.52884 0.57729 0.05217 0.0
C560 C 0.51188 0.53978 0.05247 0.0
C561 C 0.46484 0.42995 0.05412 0.0
C562 C 0.48095 0.46785 0.05351 0.0
H563 H 0.61351 0.61888 0.05297 0.0
H564 H 0.5855 0.55738 0.0529 0.0
H565 H 0.46924 0.5546 0.06228 0.0
H566 H 0.38117 0.38655 0.05564 0.0
H567 H 0.40762 0.44851 0.05448 0.0
C568 C 0.39073 0.41373 0.94009 0.0
C569 C 0.35913 0.43641 0.93952 0.0
C570 C 0.4262 0.42935 0.94023 0.0
C571 C 0.47647 0.51413 0.93356 0.0
H572 H 0.55422 0.47483 0.94912 0.0
C573 C 0.61807 0.58654 0.93713 0.0
C574 C 0.6499 0.5641 0.9373 0.0
C575 C 0.58277 0.57077 0.93764 0.0
C576 C 0.53292 0.48586 0.94466 0.0
H577 H 0.33986 0.49325 0.93887 0.0
H578 H 0.40178 0.52059 0.9392 0.0
H579 H 0.4921 0.44804 0.9498 0.0
H580 H 0.66974 0.50751 0.93817 0.0
H581 H 0.60792 0.4798 0.93897 0.0
H582 H 0.5172 0.55181 0.92838 0.0
C583 C 0.39918 0.49069 0.93941 0.0
C584 C 0.49731 0.47054 0.94506 0.0
C585 C 0.36369 0.47506 0.93927 0.0
C586 C 0.6457 0.5255 0.93803 0.0
C587 C 0.61031 0.50967 0.93854 0.0
C588 C 0.51203 0.52942 0.93316 0.0
C589 C 0.43087 0.468 0.9398 0.0
C590 C 0.46865 0.48453 0.93951 0.0
C591 C 0.57842 0.53214 0.93832 0.0
C592 C 0.54069 0.51552 0.93871 0.0
H593 H 0.38811 0.38382 0.94028 0.0
H594 H 0.45 0.41106 0.94044 0.0
H595 H 0.45524 0.52512 0.92907 0.0
H596 H 0.62039 0.61641 0.93661 0.0
H597 H 0.55886 0.58893 0.93759 0.0
C598 C 0.52627 0.86295 0.19489 0.0
C599 C 0.56485 0.85929 0.19395 0.0
C600 C 0.5101 0.8981 0.1957 0.0
C601 C 0.53138 0.99671 0.20091 0.0
H602 H 0.44456 0.01629 0.18603 0.0
C603 C 0.47874 0.14521 0.19308 0.0
C604 C 0.44021 0.15074 0.19277 0.0
C605 C 0.49334 0.10945 0.19406 0.0
C606 C 0.46848 0.01122 0.19034 0.0
H607 H 0.61685 0.88945 0.1934 0.0
H608 H 0.58875 0.95052 0.19475 0.0
H609 H 0.4705 0.95403 0.18648 0.0
H610 H 0.38675 0.12333 0.19351 0.0
H611 H 0.41212 0.06123 0.19533 0.0
H612 H 0.52957 0.0541 0.20467 0.0
C613 C 0.57091 0.92638 0.19494 0.0
C614 C 0.48333 0.97545 0.1906 0.0
C615 C 0.58701 0.89134 0.19411 0.0
C616 C 0.4166 0.11996 0.19367 0.0
C617 C 0.43114 0.08431 0.19465 0.0
C618 C 0.5165 0.03252 0.20065 0.0
C619 C 0.53223 0.93026 0.19563 0.0
C620 C 0.51514 0.96781 0.19583 0.0
C621 C 0.46968 0.07852 0.19476 0.0
C622 C 0.485 0.04026 0.1953 0.0
H623 H 0.5085 0.83874 0.19481 0.0
H624 H 0.48024 0.90011 0.19633 0.0
H625 H 0.55562 0.99165 0.20511 0.0
H626 H 0.49762 0.1684 0.1924 0.0
H627 H 0.52317 0.10595 0.19403 0.0
C628 C 0.8597 0.97734 0.4422 0.0
C629 C 0.85575 0.93874 0.44142 0.0
C630 C 0.89496 0.99327 0.44308 0.0
C631 C 0.99295 0.97099 0.44888 0.0
H632 H 0.01456 0.05891 0.43459 0.0
C633 C 0.14249 0.02473 0.44245 0.0
C634 C 0.14781 0.0633 0.44241 0.0
C635 C 0.1067 0.00982 0.44312 0.0
C636 C 0.0089 0.03464 0.43873 0.0
H637 H 0.88558 0.88654 0.44107 0.0
H638 H 0.94681 0.91421 0.44248 0.0
H639 H 0.95222 0.03303 0.43442 0.0
H640 H 0.11994 0.11647 0.44334 0.0
H641 H 0.05785 0.09057 0.4446 0.0
H642 H 0.04988 0.9724 0.45309 0.0
C643 C 0.92281 0.93226 0.44255 0.0
C644 C 0.97308 0.01982 0.43864 0.0
C645 C 0.88766 0.91639 0.44167 0.0
C646 C 0.11678 0.0866 0.44329 0.0
C647 C 0.08112 0.07177 0.44396 0.0
C648 C 0.02882 0.9858 0.44896 0.0
C649 C 0.92698 0.97091 0.44319 0.0
C650 C 0.96468 0.98768 0.44367 0.0
C651 C 0.07554 0.03322 0.44374 0.0
C652 C 0.03727 0.01773 0.44385 0.0
H653 H 0.83561 0.99526 0.44205 0.0
H654 H 0.89714 0.02311 0.44367 0.0
H655 H 0.98733 0.94651 0.45295 0.0
H656 H 0.16587 0.00609 0.44176 0.0
H657 H 0.10336 0.98001 0.44286 0.0
C658 C 0.08462 0.38352 0.69102 0.0
C659 C 0.06231 0.35168 0.69044 0.0
C660 C 0.06855 0.41875 0.69123 0.0
C661 C 0.98381 0.46829 0.68451 0.0
H662 H 0.02154 0.54553 0.70046 0.0
C663 C 0.91224 0.61069 0.68761 0.0
C664 C 0.93512 0.64213 0.68812 0.0
C665 C 0.92743 0.57515 0.68817 0.0
C666 C 0.01096 0.52439 0.69589 0.0
H667 H 0.00569 0.33165 0.68982 0.0
H668 H 0.97756 0.39324 0.69022 0.0
H669 H 0.04837 0.4835 0.70115 0.0
H670 H 0.99183 0.66109 0.68961 0.0
H671 H 0.01851 0.59898 0.69045 0.0
H672 H 0.94671 0.50915 0.67917 0.0
C673 C 0.0075 0.39096 0.69042 0.0
C674 C 0.02628 0.48883 0.69631 0.0
C675 C 0.02358 0.3557 0.69024 0.0
C676 C 0.97351 0.63735 0.68921 0.0
C677 C 0.98874 0.60177 0.68975 0.0
C678 C 0.96857 0.50385 0.68408 0.0
C679 C 0.02983 0.42289 0.69084 0.0
C680 C 0.01292 0.46041 0.69061 0.0
C681 C 0.96587 0.57023 0.68924 0.0
C682 C 0.98199 0.53235 0.68975 0.0
H683 H 0.11457 0.38129 0.69117 0.0
H684 H 0.08652 0.44279 0.69146 0.0
H685 H 0.97332 0.44716 0.67992 0.0
H686 H 0.88251 0.6135 0.68682 0.0
H687 H 0.90895 0.55151 0.68788 0.0
C688 C 0.24764 0.17076 0.336 0.0
C689 C 0.23944 0.13493 0.33281 0.0
C690 C 0.24416 0.17922 0.34533 0.0
C691 C 0.19728 0.14829 0.36632 0.0
H692 H 0.28336 0.18462 0.37946 0.0
C693 C 0.22284 0.11302 0.40369 0.0
C694 C 0.23829 0.13946 0.40962 0.0
C695 C 0.21899 0.12058 0.39439 0.0
C696 C 0.25878 0.17528 0.37588 0.0
H697 H 0.22058 0.08014 0.33677 0.0
H698 H 0.21408 0.09498 0.35294 0.0
H699 H 0.28372 0.18369 0.36269 0.0
H700 H 0.2615 0.19477 0.4105 0.0
H701 H 0.25497 0.208 0.39408 0.0
H702 H 0.17274 0.13865 0.37943 0.0
C703 C 0.22318 0.11654 0.34828 0.0
C704 C 0.25902 0.17473 0.36629 0.0
C705 C 0.22719 0.10797 0.33904 0.0
C706 C 0.24949 0.1739 0.40607 0.0
C707 C 0.24586 0.18142 0.39669 0.0
C708 C 0.19696 0.14901 0.37586 0.0
C709 C 0.23171 0.15216 0.35153 0.0
C710 C 0.22881 0.15985 0.36146 0.0
C711 C 0.23058 0.15474 0.39077 0.0
C712 C 0.22828 0.16107 0.38075 0.0
H713 H 0.25719 0.19202 0.33132 0.0
H714 H 0.25096 0.20686 0.34769 0.0
H715 H 0.17339 0.13727 0.36273 0.0
H716 H 0.21396 0.08621 0.40622 0.0
H717 H 0.20778 0.09916 0.38999 0.0
C718 C 0.88072 0.77956 0.58922 0.0
C719 C 0.85622 0.76231 0.58309 0.0
C720 C 0.87169 0.78278 0.59845 0.0
C721 C 0.81823 0.73836 0.61649 0.0
H722 H 0.84786 0.82598 0.63004 0.0
C723 C 0.82072 0.74661 0.65641 0.0
C724 C 0.85579 0.75748 0.65964 0.0
C725 C 0.81187 0.75043 0.64711 0.0
C726 C 0.83913 0.80145 0.62634 0.0
H727 H 0.80279 0.73528 0.58178 0.0
H728 H 0.78705 0.74061 0.59808 0.0
H729 H 0.84792 0.82726 0.61334 0.0
H730 H 0.90867 0.78155 0.65579 0.0
H731 H 0.89313 0.78856 0.6397 0.0
H732 H 0.81094 0.71217 0.62956 0.0
C733 C 0.81323 0.75167 0.59567 0.0
C734 C 0.83924 0.80214 0.6168 0.0
C735 C 0.82218 0.74871 0.58637 0.0
C736 C 0.88146 0.77282 0.65349 0.0
C737 C 0.87246 0.77715 0.64429 0.0
C738 C 0.818 0.73772 0.62608 0.0
C739 C 0.83799 0.76869 0.60181 0.0
C740 C 0.83033 0.77014 0.61178 0.0
C741 C 0.8377 0.76587 0.64099 0.0
C742 C 0.82994 0.76881 0.63106 0.0
H743 H 0.90716 0.79031 0.58689 0.0
H744 H 0.89168 0.79542 0.60303 0.0
H745 H 0.81133 0.71325 0.6128 0.0
H746 H 0.80047 0.73466 0.66103 0.0
H747 H 0.78491 0.74144 0.6447 0.0
C748 C 0.27672 0.37299 0.84016 0.0
C749 C 0.25861 0.3494 0.83396 0.0
C750 C 0.2815 0.3625 0.84925 0.0
C751 C 0.23966 0.30928 0.86736 0.0
H752 H 0.33167 0.33309 0.8798 0.0
C753 C 0.25264 0.31536 0.90704 0.0
C754 C 0.2669 0.34966 0.90995 0.0
C755 C 0.2553 0.30481 0.89782 0.0
C756 C 0.3059 0.32594 0.87642 0.0
H757 H 0.23148 0.29617 0.83238 0.0
H758 H 0.23912 0.27806 0.84852 0.0
H759 H 0.32953 0.33324 0.8631 0.0
H760 H 0.29615 0.39918 0.90562 0.0
H761 H 0.30105 0.3808 0.88968 0.0
H762 H 0.21554 0.30413 0.88072 0.0
C763 C 0.24988 0.30451 0.84623 0.0
C764 C 0.30469 0.326 0.86688 0.0
C765 C 0.24557 0.31483 0.83703 0.0
C766 C 0.28482 0.37262 0.90358 0.0
C767 C 0.28792 0.36193 0.89445 0.0
C768 C 0.24087 0.30925 0.87694 0.0
C769 C 0.26798 0.32832 0.85241 0.0
C770 C 0.27117 0.31934 0.86227 0.0
C771 C 0.27288 0.32814 0.89145 0.0
C772 C 0.27361 0.31927 0.88154 0.0
H773 H 0.28716 0.39975 0.83799 0.0
H774 H 0.29497 0.3817 0.85389 0.0
H775 H 0.21345 0.30415 0.86396 0.0
H776 H 0.23863 0.29719 0.91183 0.0
H777 H 0.24344 0.27865 0.89567 0.0
C778 C 0.60189 0.75393 0.08876 0.0
C779 C 0.63223 0.75383 0.08274 0.0
C780 C 0.60736 0.75311 0.09818 0.0
C781 C 0.67399 0.77284 0.11647 0.0
H782 H 0.60584 0.71192 0.13049 0.0
C783 C 0.67154 0.75759 0.15659 0.0
C784 C 0.63598 0.76299 0.16031 0.0
C785 C 0.67637 0.75549 0.14707 0.0
C786 C 0.62513 0.72898 0.12666 0.0
H787 H 0.69224 0.75345 0.08186 0.0
H788 H 0.70191 0.75173 0.09851 0.0
H789 H 0.60514 0.7088 0.11384 0.0
H790 H 0.57792 0.77168 0.15704 0.0
H791 H 0.58635 0.76767 0.14056 0.0
H792 H 0.69351 0.79327 0.12944 0.0
C793 C 0.67388 0.75261 0.09586 0.0
C794 C 0.62468 0.7273 0.11714 0.0
C795 C 0.66835 0.75346 0.08636 0.0
C796 C 0.60563 0.76726 0.15439 0.0
C797 C 0.61039 0.76481 0.14495 0.0
C798 C 0.67461 0.77434 0.12606 0.0
C799 C 0.64334 0.75196 0.10186 0.0
C800 C 0.64817 0.75011 0.11193 0.0
C801 C 0.64563 0.75829 0.14121 0.0
C802 C 0.6493 0.75327 0.1312 0.0
H803 H 0.5737 0.75458 0.08619 0.0
H804 H 0.58326 0.75357 0.10261 0.0
H805 H 0.69241 0.79075 0.11263 0.0
H806 H 0.69542 0.75431 0.16101 0.0
H807 H 0.70382 0.7505 0.14432 0.0
C808 C 0.71753 0.64233 0.84012 0.0
C809 C 0.74071 0.65868 0.83354 0.0
C810 C 0.71826 0.65444 0.84918 0.0
C811 C 0.78263 0.68902 0.86573 0.0
H812 H 0.69534 0.69547 0.8812 0.0
C813 C 0.74103 0.68982 0.90668 0.0
C814 C 0.75801 0.65618 0.90911 0.0
C815 C 0.74073 0.70143 0.89752 0.0
C816 C 0.71999 0.69455 0.87696 0.0
H817 H 0.78194 0.70129 0.83115 0.0
H818 H 0.78409 0.72183 0.84718 0.0
H819 H 0.68849 0.69663 0.86452 0.0
H820 H 0.7894 0.60921 0.90405 0.0
H821 H 0.78955 0.6298 0.88816 0.0
H822 H 0.81388 0.68431 0.87815 0.0
C823 C 0.76504 0.69997 0.84525 0.0
C824 C 0.71606 0.69499 0.86744 0.0
C825 C 0.76378 0.68828 0.83611 0.0
C826 C 0.77594 0.63517 0.90234 0.0
C827 C 0.77632 0.64711 0.89327 0.0
C828 C 0.78651 0.68808 0.87524 0.0
C829 C 0.74261 0.68277 0.85188 0.0
C830 C 0.74723 0.69088 0.86175 0.0
C831 C 0.75823 0.68 0.89075 0.0
C832 C 0.7551 0.68948 0.88092 0.0
H833 H 0.69936 0.61956 0.8383 0.0
H834 H 0.70105 0.64034 0.85417 0.0
H835 H 0.80708 0.68556 0.8615 0.0
H836 H 0.72699 0.70646 0.91179 0.0
H837 H 0.72649 0.72683 0.89571 0.0
C838 C 0.32601 0.25602 0.15731 0.0
C839 C 0.3603 0.24279 0.16052 0.0
C840 C 0.31674 0.25283 0.14802 0.0
C841 C 0.34191 0.20162 0.12697 0.0
H842 H 0.31323 0.2909 0.11397 0.0
C843 C 0.38171 0.22775 0.08994 0.0
C844 C 0.35594 0.24335 0.08386 0.0
C845 C 0.3733 0.22413 0.0992 0.0
C846 C 0.32039 0.26553 0.11753 0.0
H847 H 0.41136 0.21524 0.15661 0.0
H848 H 0.39526 0.20962 0.14052 0.0
H849 H 0.31441 0.29078 0.13074 0.0
H850 H 0.30105 0.26731 0.08266 0.0
H851 H 0.28652 0.26165 0.09907 0.0
H852 H 0.3497 0.17692 0.11379 0.0
C853 C 0.37537 0.22221 0.14513 0.0
C854 C 0.32108 0.26545 0.12711 0.0
C855 C 0.38473 0.22571 0.15434 0.0
C856 C 0.32136 0.25513 0.08722 0.0
C857 C 0.3131 0.25198 0.09658 0.0
C858 C 0.34128 0.20172 0.11743 0.0
C859 C 0.34141 0.23589 0.14185 0.0
C860 C 0.33331 0.23393 0.13191 0.0
C861 C 0.33905 0.23634 0.10264 0.0
C862 C 0.33196 0.2341 0.11261 0.0
H863 H 0.30668 0.26935 0.16194 0.0
H864 H 0.29038 0.2636 0.14567 0.0
H865 H 0.3507 0.17669 0.13049 0.0
H866 H 0.40856 0.21835 0.08756 0.0
H867 H 0.39409 0.21255 0.10373 0.0
C868 C 0.71584 0.8611 0.33986 0.0
C869 C 0.73875 0.84234 0.33362 0.0
C870 C 0.71643 0.85191 0.34913 0.0
C871 C 0.71322 0.81683 0.36807 0.0
H872 H 0.81157 0.82287 0.37872 0.0
C873 C 0.73762 0.8188 0.40723 0.0
C874 C 0.75815 0.84992 0.41002 0.0
C875 C 0.73648 0.80866 0.39798 0.0
C876 C 0.78399 0.82067 0.37583 0.0
H877 H 0.77926 0.79838 0.33208 0.0
H878 H 0.78088 0.78278 0.34843 0.0
H879 H 0.80459 0.82073 0.36208 0.0
H880 H 0.7948 0.89384 0.40546 0.0
H881 H 0.79321 0.87587 0.38937 0.0
H882 H 0.69257 0.81841 0.38182 0.0
C883 C 0.76232 0.80441 0.34609 0.0
C884 C 0.78 0.81915 0.36633 0.0
C885 C 0.76131 0.81326 0.33676 0.0
C886 C 0.77866 0.8698 0.40349 0.0
C887 C 0.77798 0.85935 0.39429 0.0
C888 C 0.71723 0.8179 0.37758 0.0
C889 C 0.74029 0.82407 0.35237 0.0
C890 C 0.74453 0.81848 0.36236 0.0
C891 C 0.7564 0.82908 0.39143 0.0
C892 C 0.7526 0.8211 0.38153 0.0
H893 H 0.69809 0.88356 0.33761 0.0
H894 H 0.69948 0.86781 0.35383 0.0
H895 H 0.68558 0.8161 0.36517 0.0
H896 H 0.72155 0.80302 0.41213 0.0
H897 H 0.71968 0.78518 0.39593 0.0
C898 C 0.17685 0.25321 0.6566 0.0
C899 C 0.14076 0.25932 0.65992 0.0
C900 C 0.18459 0.25709 0.64723 0.0
C901 C 0.1472 0.2999 0.62614 0.0
H902 H 0.1938 0.21838 0.6132 0.0
C903 C 0.11119 0.26358 0.58941 0.0
C904 C 0.13984 0.25671 0.58313 0.0
C905 C 0.11896 0.26801 0.59868 0.0
C906 C 0.18144 0.24168 0.61674 0.0
H907 H 0.08468 0.27466 0.65609 0.0
H908 H 0.09805 0.28133 0.63991 0.0
H909 H 0.19414 0.2193 0.62999 0.0
H910 H 0.19909 0.24859 0.58161 0.0
H911 H 0.21265 0.25548 0.59804 0.0
H912 H 0.13267 0.32122 0.61296 0.0
C913 C 0.12052 0.27393 0.64448 0.0
C914 C 0.18167 0.24226 0.62634 0.0
C915 C 0.11279 0.26978 0.65376 0.0
C916 C 0.17652 0.25395 0.58632 0.0
C917 C 0.18426 0.25782 0.59568 0.0
C918 C 0.1468 0.29921 0.61661 0.0
C919 C 0.15643 0.26762 0.6411 0.0
C920 C 0.16321 0.27063 0.63111 0.0
C921 C 0.15551 0.26525 0.60191 0.0
C922 C 0.16265 0.2694 0.61183 0.0
H923 H 0.19891 0.24508 0.66122 0.0
H924 H 0.2125 0.25202 0.6448 0.0
H925 H 0.13345 0.32252 0.62965 0.0
H926 H 0.08266 0.26589 0.58715 0.0
H927 H 0.09622 0.27316 0.60336 0.0
C928 C 0.26328 0.20572 0.2818 0.0
C929 C 0.24852 0.1697 0.28175 0.0
C930 C 0.2676 0.22522 0.27359 0.0
C931 C 0.23972 0.22867 0.24929 0.0
H932 H 0.34162 0.25789 0.24495 0.0
C933 C 0.30206 0.24023 0.21317 0.0
C934 C 0.33265 0.2635 0.21173 0.0
C935 C 0.28612 0.23737 0.22187 0.0
C936 C 0.31277 0.25093 0.24606 0.0
H937 H 0.22471 0.12662 0.27323 0.0
H938 H 0.23188 0.16081 0.25893 0.0
H939 H 0.32292 0.23807 0.26013 0.0
H940 H 0.36871 0.30437 0.21796 0.0
H941 H 0.33991 0.30078 0.23303 0.0
H942 H 0.2296 0.24106 0.23518 0.0
C943 C 0.24018 0.17395 0.26528 0.0
C944 C 0.30212 0.23943 0.25479 0.0
C945 C 0.23638 0.15428 0.27345 0.0
C946 C 0.34542 0.2858 0.21894 0.0
C947 C 0.32906 0.28352 0.22758 0.0
C948 C 0.25023 0.2407 0.24057 0.0
C949 C 0.25664 0.20922 0.26524 0.0
C950 C 0.2658 0.2272 0.25642 0.0
C951 C 0.3001 0.25826 0.22925 0.0
C952 C 0.28719 0.25093 0.23877 0.0
H953 H 0.2728 0.21825 0.28812 0.0
H954 H 0.28028 0.25244 0.27373 0.0
H955 H 0.21143 0.21966 0.25042 0.0
H956 H 0.29177 0.22267 0.20771 0.0
H957 H 0.26419 0.21729 0.22288 0.0
C958 C 0.77995 0.80451 0.4632 0.0
C959 C 0.74847 0.82466 0.46064 0.0
C960 C 0.78184 0.78798 0.47183 0.0
C961 C 0.73704 0.79403 0.49486 0.0
H962 H 0.80991 0.71807 0.49997 0.0
C963 C 0.80141 0.77975 0.53046 0.0
C964 C 0.81995 0.74716 0.53292 0.0
C965 C 0.78469 0.78279 0.52187 0.0
C966 C 0.78867 0.73865 0.49876 0.0
H967 H 0.6932 0.84134 0.46465 0.0
H968 H 0.69502 0.81005 0.47943 0.0
H969 H 0.79402 0.73182 0.48433 0.0
H970 H 0.83325 0.69113 0.5288 0.0
H971 H 0.80145 0.69507 0.51412 0.0
H972 H 0.72978 0.79906 0.50929 0.0
C973 C 0.71928 0.80856 0.47508 0.0
C974 C 0.78015 0.74725 0.48968 0.0
C975 C 0.71796 0.82621 0.46657 0.0
C976 C 0.81937 0.71671 0.52697 0.0
C977 C 0.80148 0.71924 0.5185 0.0
C978 C 0.74454 0.78448 0.50394 0.0
C979 C 0.75173 0.79021 0.47798 0.0
C980 C 0.75554 0.7763 0.48758 0.0
C981 C 0.7851 0.75282 0.51566 0.0
C982 C 0.77179 0.7579 0.50605 0.0
H983 H 0.80394 0.80325 0.45874 0.0
H984 H 0.80771 0.77501 0.47377 0.0
H985 H 0.71795 0.81662 0.49365 0.0
H986 H 0.80184 0.80371 0.53493 0.0
H987 H 0.77322 0.80943 0.52 0.0
C988 C 0.2086 0.24682 0.71228 0.0
C989 C 0.17008 0.24142 0.71182 0.0
C990 C 0.22644 0.24888 0.72078 0.0
C991 C 0.21141 0.23409 0.74589 0.0
H992 H 0.27556 0.3197 0.74831 0.0
C993 C 0.24392 0.35239 0.77401 0.0
C994 C 0.24763 0.33136 0.78204 0.0
C995 C 0.24359 0.3352 0.76547 0.0
C996 C 0.2578 0.29559 0.74775 0.0
H997 H 0.1203 0.23213 0.71984 0.0
H998 H 0.15093 0.23653 0.73456 0.0
H999 H 0.25738 0.29869 0.73314 0.0
H1000 H 0.25491 0.27589 0.78745 0.0
H1001 H 0.25448 0.2456 0.77243 0.0
H1002 H 0.20948 0.23284 0.76052 0.0
C1003 C 0.16773 0.23857 0.72843 0.0
C1004 C 0.24778 0.2832 0.73904 0.0
C1005 C 0.15003 0.23646 0.71997 0.0
C1006 C 0.25178 0.29274 0.78136 0.0
C1007 C 0.2515 0.27544 0.77277 0.0
C1008 C 0.22118 0.24669 0.7546 0.0
C1009 C 0.20602 0.24554 0.72896 0.0
C1010 C 0.22318 0.25327 0.73801 0.0
C1011 C 0.24711 0.29651 0.76473 0.0
C1012 C 0.24319 0.27856 0.75563 0.0
H1013 H 0.22477 0.25048 0.70609 0.0
H1014 H 0.25604 0.25389 0.72095 0.0
H1015 H 0.19308 0.21041 0.74533 0.0
H1016 H 0.24067 0.38222 0.7743 0.0
H1017 H 0.23932 0.35225 0.75945 0.0
C1018 C 0.74202 0.69983 0.96261 0.0
C1019 C 0.76109 0.66665 0.96093 0.0
C1020 C 0.74048 0.71446 0.97147 0.0
C1021 C 0.74912 0.68299 0.99548 0.0
H1022 H 0.73385 0.7873 0.00065 0.0
C1023 C 0.71164 0.73327 0.03163 0.0
C1024 C 0.67797 0.75281 0.03169 0.0
C1025 C 0.73075 0.72779 0.0234 0.0
C1026 C 0.73842 0.75813 -0.0007 0.0
H1027 H 0.79581 0.62415 0.96695 0.0
H1028 H 0.79462 0.65042 0.9823 0.0
H1029 H 0.75195 0.76798 0.98524 0.0
H1030 H 0.63915 0.78413 0.0234 0.0
H1031 H 0.67271 0.77497 0.00909 0.0
H1032 H 0.73513 0.67318 0.0095 0.0
C1033 C 0.77952 0.66448 0.97692 0.0
C1034 C 0.7485 0.74699 0.99047 0.0
C1035 C 0.7804 0.6495 0.96811 0.0
C1036 C 0.66495 0.76875 0.02353 0.0
C1037 C 0.6843 0.76377 0.01535 0.0
C1038 C 0.73959 0.69418 0.00432 0.0
C1039 C 0.75857 0.6965 0.97878 0.0
C1040 C 0.75295 0.70916 0.98839 0.0
C1041 C 0.71678 0.74234 0.01516 0.0
C1042 C 0.73316 0.73171 0.00625 0.0
H1043 H 0.72686 0.71353 0.95717 0.0
H1044 H 0.72368 0.73888 0.97263 0.0
H1045 H 0.75158 0.65358 0.99415 0.0
H1046 H 0.72226 0.72074 0.03784 0.0
H1047 H 0.75583 0.71126 0.02342 0.0
C1048 C 0.34963 0.25168 0.02367 0.0
C1049 C 0.3291 0.25156 0.03184 0.0
C1050 C 0.33179 0.25314 0.01523 0.0
C1051 C 0.28918 0.2426 -0.00218 0.0
H1052 H 0.21346 0.31817 0.9954 0.0
C1053 C 0.24556 0.29532 0.96229 0.0
C1054 C 0.24457 0.33414 0.96162 0.0
C1055 C 0.2459 0.2781 0.97088 0.0
C1056 C 0.23449 0.29686 0.99596 0.0
H1057 H 0.27369 0.25169 0.03759 0.0
H1058 H 0.2422 0.25418 0.02272 0.0
H1059 H 0.23443 0.29982 0.01059 0.0
H1060 H 0.24159 0.38533 0.96937 0.0
H1061 H 0.24329 0.35566 0.98426 0.0
H1062 H 0.29151 0.24172 0.98321 0.0
C1063 C 0.27221 0.25342 0.02289 0.0
C1064 C 0.24617 0.28598 0.00468 0.0
C1065 C 0.29018 0.25194 0.03139 0.0
C1066 C 0.24245 0.35534 0.96967 0.0
C1067 C 0.243 0.33823 0.97822 0.0
C1068 C 0.27779 0.25372 0.98911 0.0
C1069 C 0.2929 0.25439 0.01472 0.0
C1070 C 0.2748 0.25989 0.00569 0.0
C1071 C 0.24542 0.29944 0.97895 0.0
C1072 C 0.25144 0.28212 0.98807 0.0
H1073 H 0.37967 0.25137 0.02379 0.0
H1074 H 0.34868 0.25465 0.00911 0.0
H1075 H 0.3107 0.22178 -0.00163 0.0
H1076 H 0.24687 0.27829 0.95619 0.0
H1077 H 0.2473 0.24815 0.97119 0.0
C1078 C 0.72345 0.79672 0.28049 0.0
C1079 C 0.75506 0.81601 0.28337 0.0
C1080 C 0.72224 0.78075 0.27179 0.0
C1081 C 0.76919 0.78852 0.24911 0.0
H1082 H 0.69537 0.71461 0.24307 0.0
C1083 C 0.70499 0.78126 0.21334 0.0
C1084 C 0.68571 0.74948 0.2106 0.0
C1085 C 0.72214 0.78248 0.22191 0.0
C1086 C 0.7169 0.73462 0.24454 0.0
H1087 H 0.81124 0.83146 0.27983 0.0
H1088 H 0.81041 0.80122 0.26491 0.0
H1089 H 0.71055 0.72584 0.25889 0.0
H1090 H 0.67172 0.69297 0.21413 0.0
H1091 H 0.70425 0.69371 0.22874 0.0
H1092 H 0.77721 0.79568 0.23475 0.0
C1093 C 0.78566 0.79998 0.26909 0.0
C1094 C 0.72502 0.74174 0.25371 0.0
C1095 C 0.78637 0.81702 0.27768 0.0
C1096 C 0.68617 0.71795 0.2162 0.0
C1097 C 0.70447 0.71864 0.22462 0.0
C1098 C 0.762 0.78049 0.23992 0.0
C1099 C 0.7531 0.78275 0.26587 0.0
C1100 C 0.74993 0.77007 0.25615 0.0
C1101 C 0.72134 0.75146 0.2278 0.0
C1102 C 0.73444 0.75471 0.23749 0.0
H1103 H 0.69885 0.79587 0.28475 0.0
H1104 H 0.69632 0.76856 0.2696 0.0
H1105 H 0.78856 0.81061 0.25059 0.0
H1106 H 0.70467 0.80602 0.20914 0.0
H1107 H 0.7341 0.80856 0.22406 0.0
C1108 C 0.28749 0.17627 0.46631 0.0
C1109 C 0.25759 0.17827 0.46021 0.0
C1110 C 0.2855 0.19363 0.47485 0.0
C1111 C 0.22314 0.2539 0.48938 0.0
H1112 H 0.27143 0.20028 0.50901 0.0
C1113 C 0.18075 0.2819 0.5266 0.0
C1114 C 0.18018 0.25134 0.53251 0.0
C1115 C 0.19904 0.27973 0.51818 0.0
C1116 C 0.25719 0.21534 0.50365 0.0
H1117 H 0.20259 0.20037 0.45802 0.0
H1118 H 0.19758 0.22815 0.47308 0.0
H1119 H 0.28486 0.18412 0.49336 0.0
H1120 H 0.19851 0.19488 0.5345 0.0
H1121 H 0.22776 0.18966 0.5196 0.0
H1122 H 0.19227 0.28212 0.49964 0.0
C1123 C 0.22353 0.21503 0.47127 0.0
C1124 C 0.26566 0.20662 0.49457 0.0
C1125 C 0.22615 0.19882 0.46261 0.0
C1126 C 0.19898 0.21891 0.53005 0.0
C1127 C 0.21605 0.21617 0.52149 0.0
C1128 C 0.21364 0.26164 0.49845 0.0
C1129 C 0.25288 0.21206 0.47762 0.0
C1130 C 0.248 0.22507 0.48727 0.0
C1131 C 0.21576 0.24634 0.51532 0.0
C1132 C 0.22978 0.24178 0.50574 0.0
H1133 H 0.3122 0.16077 0.46453 0.0
H1134 H 0.30926 0.19165 0.47935 0.0
H1135 H 0.20985 0.26985 0.48404 0.0
H1136 H 0.16664 0.30734 0.52845 0.0
H1137 H 0.19917 0.30407 0.51386 0.0
C1138 C 0.84976 0.7515 0.71968 0.0
C1139 C 0.82968 0.74865 0.71148 0.0
C1140 C 0.83179 0.74891 0.7281 0.0
C1141 C 0.78695 0.75545 0.74538 0.0
H1142 H 0.72104 0.67111 0.74773 0.0
C1143 C 0.74102 0.70132 0.78079 0.0
C1144 C 0.74501 0.66281 0.7818 0.0
C1145 C 0.74238 0.7175 0.77208 0.0
C1146 C 0.73925 0.69489 0.74718 0.0
H1147 H 0.77483 0.74228 0.70562 0.0
H1148 H 0.74316 0.73767 0.72043 0.0
H1149 H 0.74101 0.69103 0.73258 0.0
H1150 H 0.75248 0.61092 0.77452 0.0
H1151 H 0.75557 0.639 0.75944 0.0
H1152 H 0.78731 0.75768 0.76 0.0
C1153 C 0.77292 0.74168 0.72031 0.0
C1154 C 0.75033 0.7066 0.73849 0.0
C1155 C 0.79099 0.74439 0.71185 0.0
C1156 C 0.74938 0.64071 0.77396 0.0
C1157 C 0.75074 0.6568 0.7653 0.0
C1158 C 0.77601 0.74364 0.75407 0.0
C1159 C 0.79325 0.74341 0.72853 0.0
C1160 C 0.77548 0.73608 0.73751 0.0
C1161 C 0.74768 0.69541 0.76425 0.0
C1162 C 0.75321 0.71231 0.75508 0.0
H1163 H 0.87961 0.75489 0.71962 0.0
H1164 H 0.84843 0.74968 0.73427 0.0
H1165 H 0.80581 0.77872 0.74483 0.0
H1166 H 0.73738 0.71899 0.78672 0.0
H1167 H 0.73968 0.74731 0.77149 0.0
loop_
_geom_bond_atom_site_label_1
_geom_bond_atom_site_label_2
_geom_bond_distance
_geom_bond_site_symmetry_2
_ccdc_geom_bond_type
In0 O1 2.294 . S
In0 O2 2.326 . S
In0 O6 2.266 . S
In0 O7 2.326 . S
In0 O8 2.266 . S
In0 O9 2.326 . S
In0 O11 2.294 . S
In0 O12 2.326 . S
O1 In0 2.294 . S
O1 C10 1.240 . S
O2 In0 2.326 . S
O2 C10 1.252 . S
C3 O6 1.252 . S
C3 O7 1.260 . S
C4 O11 1.240 . S
C4 O12 1.252 . S
C5 O8 1.252 . S
C5 O9 1.260 . S
O6 In0 2.266 . S
O6 C3 1.252 . S
O7 In0 2.326 . S
O7 C3 1.260 . S
O8 In0 2.266 . S
O8 C5 1.252 . S
O9 In0 2.326 . S
O9 C5 1.260 . S
C10 O1 1.240 . S
C10 O2 1.252 . S
O11 In0 2.294 . S
O11 C4 1.240 . S
O12 In0 2.326 . S
O12 C4 1.252 . S
In13 O14 2.294 . S
In13 O15 2.326 . S
In13 O19 2.266 . S
In13 O20 2.326 . S
In13 O21 2.266 . S
In13 O22 2.326 . S
In13 O24 2.294 . S
In13 O25 2.326 . S
O14 In13 2.294 . S
O14 C23 1.240 . S
O15 In13 2.326 . S
O15 C23 1.252 . S
C16 O19 1.252 . S
C16 O20 1.260 . S
C17 O24 1.240 . S
C17 O25 1.252 . S
C18 O21 1.252 . S
C18 O22 1.260 . S
O19 In13 2.266 . S
O19 C16 1.252 . S
O20 In13 2.326 . S
O20 C16 1.260 . S
O21 In13 2.266 . S
O21 C18 1.252 . S
O22 In13 2.326 . S
O22 C18 1.260 . S
C23 O14 1.240 . S
C23 O15 1.252 . S
O24 In13 2.294 . S
O24 C17 1.240 . S
O25 In13 2.326 . S
O25 C17 1.252 . S
In26 O27 2.294 . S
In26 O28 2.326 . S
In26 O32 2.266 . S
In26 O33 2.326 . S
In26 O34 2.266 . S
In26 O35 2.326 . S
In26 O37 2.294 . S
In26 O38 2.326 . S
O27 In26 2.294 . S
O27 C36 1.240 . S
O28 In26 2.326 . S
O28 C36 1.252 . S
C29 O32 1.252 . S
C29 O33 1.260 . S
C30 O37 1.240 . S
C30 O38 1.252 . S
C31 O34 1.252 . S
C31 O35 1.260 . S
O32 In26 2.266 . S
O32 C29 1.252 . S
O33 In26 2.326 . S
O33 C29 1.260 . S
O34 In26 2.266 . S
O34 C31 1.252 . S
O35 In26 2.326 . S
O35 C31 1.260 . S
C36 O27 1.240 . S
C36 O28 1.252 . S
O37 In26 2.294 . S
O37 C30 1.240 . S
O38 In26 2.326 . S
O38 C30 1.252 . S
In39 O40 2.294 . S
In39 O41 2.326 . S
In39 O45 2.266 . S
In39 O46 2.326 . S
In39 O47 2.266 . S
In39 O48 2.326 . S
In39 O50 2.294 . S
In39 O51 2.326 . S
O40 In39 2.294 . S
O40 C49 1.240 . S
O41 In39 2.326 . S
O41 C49 1.252 . S
C42 O45 1.252 . S
C42 O46 1.260 . S
C43 O50 1.240 . S
C43 O51 1.252 . S
C44 O47 1.252 . S
C44 O48 1.260 . S
O45 In39 2.266 . S
O45 C42 1.252 . S
O46 In39 2.326 . S
O46 C42 1.260 . S
O47 In39 2.266 . S
O47 C44 1.252 . S
O48 In39 2.326 . S
O48 C44 1.260 . S
C49 O40 1.240 . S
C49 O41 1.252 . S
O50 In39 2.294 . S
O50 C43 1.240 . S
O51 In39 2.326 . S
O51 C43 1.252 . S
In52 O53 2.294 . S
In52 O54 2.326 . S
In52 O58 2.266 . S
In52 O59 2.326 . S
In52 O60 2.266 . S
In52 O61 2.326 . S
In52 O63 2.294 . S
In52 O64 2.326 . S
O53 In52 2.294 . S
O53 C62 1.240 . S
O54 In52 2.326 . S
O54 C62 1.252 . S
C55 O58 1.252 . S
C55 O59 1.260 . S
C56 O63 1.240 . S
C56 O64 1.252 . S
C57 O60 1.252 . S
C57 O61 1.260 . S
O58 In52 2.266 . S
O58 C55 1.252 . S
O59 In52 2.326 . S
O59 C55 1.260 . S
O60 In52 2.266 . S
O60 C57 1.252 . S
O61 In52 2.326 . S
O61 C57 1.260 . S
C62 O53 1.240 . S
C62 O54 1.252 . S
O63 In52 2.294 . S
O63 C56 1.240 . S
O64 In52 2.326 . S
O64 C56 1.252 . S
In65 O66 2.294 . S
In65 O67 2.326 . S
In65 O71 2.266 . S
In65 O72 2.326 . S
In65 O73 2.266 . S
In65 O74 2.326 . S
In65 O76 2.294 . S
In65 O77 2.326 . S
O66 In65 2.294 . S
O66 C75 1.240 . S
O67 In65 2.326 . S
O67 C75 1.252 . S
C68 O71 1.252 . S
C68 O72 1.260 . S
C69 O76 1.240 . S
C69 O77 1.252 . S
C70 O73 1.252 . S
C70 O74 1.260 . S
O71 In65 2.266 . S
O71 C68 1.252 . S
O72 In65 2.326 . S
O72 C68 1.260 . S
O73 In65 2.266 . S
O73 C70 1.252 . S
O74 In65 2.326 . S
O74 C70 1.260 . S
C75 O66 1.240 . S
C75 O67 1.252 . S
O76 In65 2.294 . S
O76 C69 1.240 . S
O77 In65 2.326 . S
O77 C69 1.252 . S
In78 O79 2.294 . S
In78 O80 2.326 . S
In78 O84 2.266 . S
In78 O85 2.326 . S
In78 O86 2.266 . S
In78 O87 2.326 . S
In78 O89 2.294 . S
In78 O90 2.326 . S
O79 In78 2.294 . S
O79 C88 1.240 . S
O80 In78 2.326 . S
O80 C88 1.252 . S
C81 O84 1.252 . S
C81 O85 1.260 . S
C82 O89 1.240 . S
C82 O90 1.252 . S
C83 O86 1.252 . S
C83 O87 1.260 . S
O84 In78 2.266 . S
O84 C81 1.252 . S
O85 In78 2.326 . S
O85 C81 1.260 . S
O86 In78 2.266 . S
O86 C83 1.252 . S
O87 In78 2.326 . S
O87 C83 1.260 . S
C88 O79 1.240 . S
C88 O80 1.252 . S
O89 In78 2.294 . S
O89 C82 1.240 . S
O90 In78 2.326 . S
O90 C82 1.252 . S
In91 O92 2.294 . S
In91 O93 2.326 . S
In91 O97 2.266 . S
In91 O98 2.326 . S
In91 O99 2.266 . S
In91 O100 2.326 . S
In91 O102 2.294 . S
In91 O103 2.326 . S
O92 In91 2.294 . S
O92 C101 1.240 . S
O93 In91 2.326 . S
O93 C101 1.252 . S
C94 O97 1.252 . S
C94 O98 1.260 . S
C95 O102 1.240 . S
C95 O103 1.252 . S
C96 O99 1.252 . S
C96 O100 1.260 . S
O97 In91 2.266 . S
O97 C94 1.252 . S
O98 In91 2.326 . S
O98 C94 1.260 . S
O99 In91 2.266 . S
O99 C96 1.252 . S
O100 In91 2.326 . S
O100 C96 1.260 . S
C101 O92 1.240 . S
C101 O93 1.252 . S
O102 In91 2.294 . S
O102 C95 1.240 . S
O103 In91 2.326 . S
O103 C95 1.252 . S
In104 O105 2.294 . S
In104 O106 2.326 . S
In104 O110 2.266 . S
In104 O111 2.326 . S
In104 O112 2.266 . S
In104 O113 2.326 . S
In104 O115 2.294 . S
In104 O116 2.326 . S
O105 In104 2.294 . S
O105 C114 1.240 . S
O106 In104 2.326 . S
O106 C114 1.252 . S
C107 O110 1.252 . S
C107 O111 1.260 . S
C108 O115 1.240 . S
C108 O116 1.252 . S
C109 O112 1.252 . S
C109 O113 1.260 . S
O110 In104 2.266 . S
O110 C107 1.252 . S
O111 In104 2.326 . S
O111 C107 1.260 . S
O112 In104 2.266 . S
O112 C109 1.252 . S
O113 In104 2.326 . S
O113 C109 1.260 . S
C114 O105 1.240 . S
C114 O106 1.252 . S
O115 In104 2.294 . S
O115 C108 1.240 . S
O116 In104 2.326 . S
O116 C108 1.252 . S
In117 O118 2.294 . S
In117 O119 2.326 . S
In117 O123 2.266 . S
In117 O124 2.326 . S
In117 O125 2.266 . S
In117 O126 2.326 . S
In117 O128 2.294 . S
In117 O129 2.326 . S
O118 In117 2.294 . S
O118 C127 1.240 . S
O119 In117 2.326 . S
O119 C127 1.252 . S
C120 O123 1.252 . S
C120 O124 1.260 . S
C121 O128 1.240 . S
C121 O129 1.252 . S
C122 O125 1.252 . S
C122 O126 1.260 . S
O123 In117 2.266 . S
O123 C120 1.252 . S
O124 In117 2.326 . S
O124 C120 1.260 . S
O125 In117 2.266 . S
O125 C122 1.252 . S
O126 In117 2.326 . S
O126 C122 1.260 . S
C127 O118 1.240 . S
C127 O119 1.252 . S
O128 In117 2.294 . S
O128 C121 1.240 . S
O129 In117 2.326 . S
O129 C121 1.252 . S
In130 O131 2.294 . S
In130 O132 2.326 . S
In130 O136 2.266 . S
In130 O137 2.326 . S
In130 O138 2.266 . S
In130 O139 2.326 . S
In130 O141 2.294 . S
In130 O142 2.326 . S
O131 In130 2.294 . S
O131 C140 1.240 . S
O132 In130 2.326 . S
O132 C140 1.252 . S
C133 O136 1.252 . S
C133 O137 1.260 . S
C134 O141 1.240 . S
C134 O142 1.252 . S
C135 O138 1.252 . S
C135 O139 1.260 . S
O136 In130 2.266 . S
O136 C133 1.252 . S
O137 In130 2.326 . S
O137 C133 1.260 . S
O138 In130 2.266 . S
O138 C135 1.252 . S
O139 In130 2.326 . S
O139 C135 1.260 . S
C140 O131 1.240 . S
C140 O132 1.252 . S
O141 In130 2.294 . S
O141 C134 1.240 . S
O142 In130 2.326 . S
O142 C134 1.252 . S
In143 O144 2.294 . S
In143 O145 2.326 . S
In143 O149 2.266 . S
In143 O150 2.326 . S
In143 O151 2.266 . S
In143 O152 2.326 . S
In143 O154 2.294 . S
In143 O155 2.326 . S
O144 In143 2.294 . S
O144 C153 1.240 . S
O145 In143 2.326 . S
O145 C153 1.252 . S
C146 O149 1.252 . S
C146 O150 1.260 . S
C147 O154 1.240 . S
C147 O155 1.252 . S
C148 O151 1.252 . S
C148 O152 1.260 . S
O149 In143 2.266 . S
O149 C146 1.252 . S
O150 In143 2.326 . S
O150 C146 1.260 . S
O151 In143 2.266 . S
O151 C148 1.252 . S
O152 In143 2.326 . S
O152 C148 1.260 . S
C153 O144 1.240 . S
C153 O145 1.252 . S
O154 In143 2.294 . S
O154 C147 1.240 . S
O155 In143 2.326 . S
O155 C147 1.252 . S
In156 O157 2.294 . S
In156 O158 2.326 . S
In156 O162 2.266 . S
In156 O163 2.326 . S
In156 O164 2.266 . S
In156 O165 2.326 . S
In156 O167 2.294 . S
In156 O168 2.326 . S
O157 In156 2.294 . S
O157 C166 1.240 . S
O158 In156 2.326 . S
O158 C166 1.252 . S
C159 O162 1.252 . S
C159 O163 1.260 . S
C160 O167 1.240 . S
C160 O168 1.252 . S
C161 O164 1.252 . S
C161 O165 1.260 . S
O162 In156 2.266 . S
O162 C159 1.252 . S
O163 In156 2.326 . S
O163 C159 1.260 . S
O164 In156 2.266 . S
O164 C161 1.252 . S
O165 In156 2.326 . S
O165 C161 1.260 . S
C166 O157 1.240 . S
C166 O158 1.252 . S
O167 In156 2.294 . S
O167 C160 1.240 . S
O168 In156 2.326 . S
O168 C160 1.252 . S
In169 O170 2.294 . S
In169 O171 2.326 . S
In169 O175 2.266 . S
In169 O176 2.326 . S
In169 O177 2.266 . S
In169 O178 2.326 . S
In169 O180 2.294 . S
In169 O181 2.326 . S
O170 In169 2.294 . S
O170 C179 1.240 . S
O171 In169 2.326 . S
O171 C179 1.252 . S
C172 O175 1.252 . S
C172 O176 1.260 . S
C173 O180 1.240 . S
C173 O181 1.252 . S
C174 O177 1.252 . S
C174 O178 1.260 . S
O175 In169 2.266 . S
O175 C172 1.252 . S
O176 In169 2.326 . S
O176 C172 1.260 . S
O177 In169 2.266 . S
O177 C174 1.252 . S
O178 In169 2.326 . S
O178 C174 1.260 . S
C179 O170 1.240 . S
C179 O171 1.252 . S
O180 In169 2.294 . S
O180 C173 1.240 . S
O181 In169 2.326 . S
O181 C173 1.252 . S
In182 O183 2.294 . S
In182 O184 2.326 . S
In182 O188 2.266 . S
In182 O189 2.326 . S
In182 O190 2.266 . S
In182 O191 2.326 . S
In182 O193 2.294 . S
In182 O194 2.326 . S
O183 In182 2.294 . S
O183 C192 1.240 . S
O184 In182 2.326 . S
O184 C192 1.252 . S
C185 O188 1.252 . S
C185 O189 1.260 . S
C186 O193 1.240 . S
C186 O194 1.252 . S
C187 O190 1.252 . S
C187 O191 1.260 . S
O188 In182 2.266 . S
O188 C185 1.252 . S
O189 In182 2.326 . S
O189 C185 1.260 . S
O190 In182 2.266 . S
O190 C187 1.252 . S
O191 In182 2.326 . S
O191 C187 1.260 . S
C192 O183 1.240 . S
C192 O184 1.252 . S
O193 In182 2.294 . S
O193 C186 1.240 . S
O194 In182 2.326 . S
O194 C186 1.252 . S
In195 O196 2.294 . S
In195 O197 2.326 . S
In195 O201 2.266 . S
In195 O202 2.326 . S
In195 O203 2.266 . S
In195 O204 2.326 . S
In195 O206 2.294 . S
In195 O207 2.326 . S
O196 In195 2.294 . S
O196 C205 1.240 . S
O197 In195 2.326 . S
O197 C205 1.252 . S
C198 O201 1.252 . S
C198 O202 1.260 . S
C199 O206 1.240 . S
C199 O207 1.252 . S
C200 O203 1.252 . S
C200 O204 1.260 . S
O201 In195 2.266 . S
O201 C198 1.252 . S
O202 In195 2.326 . S
O202 C198 1.260 . S
O203 In195 2.266 . S
O203 C200 1.252 . S
O204 In195 2.326 . S
O204 C200 1.260 . S
C205 O196 1.240 . S
C205 O197 1.252 . S
O206 In195 2.294 . S
O206 C199 1.240 . S
O207 In195 2.326 . S
O207 C199 1.252 . S
C208 C209 1.349 . S
C208 C210 1.327 . S
C208 H233 0.950 . S
C209 C208 1.349 . S
C209 C225 1.349 . S
C210 C208 1.327 . S
C210 C229 1.429 . S
C210 H234 0.950 . S
C211 C228 1.574 1_655 S
C211 C230 1.368 1_545 S
C211 H235 0.949 . S
H212 C216 0.949 . S
C213 C214 1.349 . S
C213 C215 1.327 . S
C213 H236 0.950 . S
C214 C213 1.349 . S
C214 C226 1.349 . S
C215 C213 1.327 . S
C215 C231 1.429 . S
C215 H237 0.950 . S
C216 H212 0.949 . S
C216 C224 1.574 1_455 S
C216 C232 1.368 1_565 S
H217 C225 0.950 . S
H218 C223 0.950 . S
H219 C224 0.949 . S
H220 C226 0.950 . S
H221 C227 0.950 . S
H222 C228 0.949 . S
C223 H218 0.950 . S
C223 C225 1.327 . S
C223 C229 1.429 . S
C224 C216 1.574 1_655 S
C224 H219 0.949 . S
C224 C230 1.368 . S
C225 C209 1.349 . S
C225 H217 0.950 . S
C225 C223 1.327 . S
C226 C214 1.349 . S
C226 H220 0.950 . S
C226 C227 1.327 . S
C227 H221 0.950 . S
C227 C226 1.327 . S
C227 C231 1.429 . S
C228 C211 1.574 1_455 S
C228 H222 0.949 . S
C228 C232 1.368 . S
C229 C210 1.429 . S
C229 C223 1.429 . S
C229 C230 1.523 . S
C230 C211 1.368 1_565 S
C230 C224 1.368 . S
C230 C229 1.523 . S
C231 C215 1.429 . S
C231 C227 1.429 . S
C231 C232 1.523 . S
C232 C216 1.368 1_545 S
C232 C228 1.368 . S
C232 C231 1.523 . S
H233 C208 0.950 . S
H234 C210 0.950 . S
H235 C211 0.949 . S
H236 C213 0.950 . S
H237 C215 0.950 . S
C238 C239 1.349 . S
C238 C240 1.327 . S
C238 H263 0.950 . S
C239 C238 1.349 . S
C239 C255 1.349 . S
C240 C238 1.327 . S
C240 C259 1.429 . S
C240 H264 0.950 . S
C241 C258 1.574 . S
C241 C260 1.368 1_455 S
C241 H265 0.949 . S
H242 C246 0.949 . S
C243 C244 1.349 . S
C243 C245 1.327 . S
C243 H266 0.950 . S
C244 C243 1.349 . S
C244 C256 1.349 . S
C245 C243 1.327 . S
C245 C261 1.429 . S
C245 H267 0.950 . S
C246 H242 0.949 . S
C246 C254 1.574 . S
C246 C262 1.368 1_655 S
H247 C255 0.950 . S
H248 C253 0.950 . S
H249 C254 0.949 . S
H250 C256 0.950 . S
H251 C257 0.950 . S
H252 C258 0.949 . S
C253 H248 0.950 . S
C253 C255 1.327 . S
C253 C259 1.429 . S
C254 C246 1.574 . S
C254 H249 0.949 . S
C254 C260 1.368 . S
C255 C239 1.349 . S
C255 H247 0.950 . S
C255 C253 1.327 . S
C256 C244 1.349 . S
C256 H250 0.950 . S
C256 C257 1.327 . S
C257 H251 0.950 . S
C257 C256 1.327 . S
C257 C261 1.429 . S
C258 C241 1.574 . S
C258 H252 0.949 . S
C258 C262 1.368 . S
C259 C240 1.429 . S
C259 C253 1.429 . S
C259 C260 1.523 . S
C260 C241 1.368 1_655 S
C260 C254 1.368 . S
C260 C259 1.523 . S
C261 C245 1.429 . S
C261 C257 1.429 . S
C261 C262 1.523 . S
C262 C246 1.368 1_455 S
C262 C258 1.368 . S
C262 C261 1.523 . S
H263 C238 0.950 . S
H264 C240 0.950 . S
H265 C241 0.949 . S
H266 C243 0.950 . S
H267 C245 0.950 . S
C268 C269 1.349 . S
C268 C270 1.327 . S
C268 H293 0.950 . S
C269 C268 1.349 . S
C269 C285 1.349 . S
C270 C268 1.327 . S
C270 C289 1.429 . S
C270 H294 0.950 . S
C271 C288 1.574 . S
C271 C290 1.368 . S
C271 H295 0.949 . S
H272 C276 0.949 . S
C273 C274 1.349 . S
C273 C275 1.327 . S
C273 H296 0.950 . S
C274 C273 1.349 . S
C274 C286 1.349 . S
C275 C273 1.327 . S
C275 C291 1.429 . S
C275 H297 0.950 . S
C276 H272 0.949 . S
C276 C284 1.574 . S
C276 C292 1.368 . S
H277 C285 0.950 . S
H278 C283 0.950 . S
H279 C284 0.949 . S
H280 C286 0.950 . S
H281 C287 0.950 . S
H282 C288 0.949 . S
C283 H278 0.950 . S
C283 C285 1.327 . S
C283 C289 1.429 . S
C284 C276 1.574 . S
C284 H279 0.949 . S
C284 C290 1.368 . S
C285 C269 1.349 . S
C285 H277 0.950 . S
C285 C283 1.327 . S
C286 C274 1.349 . S
C286 H280 0.950 . S
C286 C287 1.327 . S
C287 H281 0.950 . S
C287 C286 1.327 . S
C287 C291 1.429 . S
C288 C271 1.574 . S
C288 H282 0.949 . S
C288 C292 1.368 . S
C289 C270 1.429 . S
C289 C283 1.429 . S
C289 C290 1.523 . S
C290 C271 1.368 . S
C290 C284 1.368 . S
C290 C289 1.523 . S
C291 C275 1.429 . S
C291 C287 1.429 . S
C291 C292 1.523 . S
C292 C276 1.368 . S
C292 C288 1.368 . S
C292 C291 1.523 . S
H293 C268 0.950 . S
H294 C270 0.950 . S
H295 C271 0.949 . S
H296 C273 0.950 . S
H297 C275 0.950 . S
C298 C299 1.349 . S
C298 C300 1.327 . S
C298 H323 0.950 . S
C299 C298 1.349 . S
C299 C315 1.349 . S
C300 C298 1.327 . S
C300 C319 1.429 . S
C300 H324 0.950 . S
C301 C318 1.574 1_545 S
C301 C320 1.368 . S
C301 H325 0.949 . S
H302 C306 0.949 . S
C303 C304 1.349 . S
C303 C305 1.327 . S
C303 H326 0.950 . S
C304 C303 1.349 . S
C304 C316 1.349 . S
C305 C303 1.327 . S
C305 C321 1.429 . S
C305 H327 0.950 . S
C306 H302 0.949 . S
C306 C314 1.574 1_565 S
C306 C322 1.368 . S
H307 C315 0.950 . S
H308 C313 0.950 . S
H309 C314 0.949 . S
H310 C316 0.950 . S
H311 C317 0.950 . S
H312 C318 0.949 . S
C313 H308 0.950 . S
C313 C315 1.327 . S
C313 C319 1.429 . S
C314 C306 1.574 1_545 S
C314 H309 0.949 . S
C314 C320 1.368 . S
C315 C299 1.349 . S
C315 H307 0.950 . S
C315 C313 1.327 . S
C316 C304 1.349 . S
C316 H310 0.950 . S
C316 C317 1.327 . S
C317 H311 0.950 . S
C317 C316 1.327 . S
C317 C321 1.429 . S
C318 C301 1.574 1_565 S
C318 H312 0.949 . S
C318 C322 1.368 . S
C319 C300 1.429 . S
C319 C313 1.429 . S
C319 C320 1.523 . S
C320 C301 1.368 . S
C320 C314 1.368 . S
C320 C319 1.523 . S
C321 C305 1.429 . S
C321 C317 1.429 . S
C321 C322 1.523 . S
C322 C306 1.368 . S
C322 C318 1.368 . S
C322 C321 1.523 . S
H323 C298 0.950 . S
H324 C300 0.950 . S
H325 C301 0.949 . S
H326 C303 0.950 . S
H327 C305 0.950 . S
C328 C329 1.349 . S
C328 C330 1.327 . S
C328 H353 0.950 . S
C329 C328 1.349 . S
C329 C345 1.349 . S
C330 C328 1.327 . S
C330 C349 1.429 . S
C330 H354 0.950 . S
C331 C348 1.574 1_455 S
C331 C350 1.368 . S
C331 H355 0.949 . S
H332 C336 0.949 . S
C333 C334 1.349 . S
C333 C335 1.327 . S
C333 H356 0.950 . S
C334 C333 1.349 . S
C334 C346 1.349 . S
C335 C333 1.327 . S
C335 C351 1.429 . S
C335 H357 0.950 . S
C336 H332 0.949 . S
C336 C344 1.574 1_655 S
C336 C352 1.368 . S
H337 C345 0.950 . S
H338 C343 0.950 . S
H339 C344 0.949 . S
H340 C346 0.950 . S
H341 C347 0.950 . S
H342 C348 0.949 . S
C343 H338 0.950 . S
C343 C345 1.327 . S
C343 C349 1.429 . S
C344 C336 1.574 1_455 S
C344 H339 0.949 . S
C344 C350 1.368 . S
C345 C329 1.349 . S
C345 H337 0.950 . S
C345 C343 1.327 . S
C346 C334 1.349 . S
C346 H340 0.950 . S
C346 C347 1.327 . S
C347 H341 0.950 . S
C347 C346 1.327 . S
C347 C351 1.429 . S
C348 C331 1.574 1_655 S
C348 H342 0.949 . S
C348 C352 1.368 . S
C349 C330 1.429 . S
C349 C343 1.429 . S
C349 C350 1.523 . S
C350 C331 1.368 . S
C350 C344 1.368 . S
C350 C349 1.523 . S
C351 C335 1.429 . S
C351 C347 1.429 . S
C351 C352 1.523 . S
C352 C336 1.368 . S
C352 C348 1.368 . S
C352 C351 1.523 . S
H353 C328 0.950 . S
H354 C330 0.950 . S
H355 C331 0.949 . S
H356 C333 0.950 . S
H357 C335 0.950 . S
C358 C359 1.349 . S
C358 C360 1.327 . S
C358 H383 0.950 . S
C359 C358 1.349 . S
C359 C375 1.349 . S
C360 C358 1.327 . S
C360 C379 1.429 . S
C360 H384 0.950 . S
C361 C378 1.574 . S
C361 C380 1.368 . S
C361 H385 0.949 . S
H362 C366 0.949 . S
C363 C364 1.349 . S
C363 C365 1.327 . S
C363 H386 0.950 . S
C364 C363 1.349 . S
C364 C376 1.349 . S
C365 C363 1.327 . S
C365 C381 1.429 . S
C365 H387 0.950 . S
C366 H362 0.949 . S
C366 C374 1.574 . S
C366 C382 1.368 . S
H367 C375 0.950 . S
H368 C373 0.950 . S
H369 C374 0.949 . S
H370 C376 0.950 . S
H371 C377 0.950 . S
H372 C378 0.949 . S
C373 H368 0.950 . S
C373 C375 1.327 . S
C373 C379 1.429 . S
C374 C366 1.574 . S
C374 H369 0.949 . S
C374 C380 1.368 . S
C375 C359 1.349 . S
C375 H367 0.950 . S
C375 C373 1.327 . S
C376 C364 1.349 . S
C376 H370 0.950 . S
C376 C377 1.327 . S
C377 H371 0.950 . S
C377 C376 1.327 . S
C377 C381 1.429 . S
C378 C361 1.574 . S
C378 H372 0.949 . S
C378 C382 1.368 . S
C379 C360 1.429 . S
C379 C373 1.429 . S
C379 C380 1.523 . S
C380 C361 1.368 . S
C380 C374 1.368 . S
C380 C379 1.523 . S
C381 C365 1.429 . S
C381 C377 1.429 . S
C381 C382 1.523 . S
C382 C366 1.368 . S
C382 C378 1.368 . S
C382 C381 1.523 . S
H383 C358 0.950 . S
H384 C360 0.950 . S
H385 C361 0.949 . S
H386 C363 0.950 . S
H387 C365 0.950 . S
C388 C389 1.349 . S
C388 C390 1.327 . S
C388 H413 0.950 . S
C389 C388 1.349 . S
C389 C405 1.349 . S
C390 C388 1.327 . S
C390 C409 1.429 . S
C390 H414 0.950 . S
C391 C408 1.574 . S
C391 C410 1.368 . S
C391 H415 0.949 . S
H392 C396 0.949 . S
C393 C394 1.349 . S
C393 C395 1.327 . S
C393 H416 0.950 . S
C394 C393 1.349 . S
C394 C406 1.349 . S
C395 C393 1.327 . S
C395 C411 1.429 . S
C395 H417 0.950 . S
C396 H392 0.949 . S
C396 C404 1.574 . S
C396 C412 1.368 . S
H397 C405 0.950 . S
H398 C403 0.950 . S
H399 C404 0.949 . S
H400 C406 0.950 . S
H401 C407 0.950 . S
H402 C408 0.949 . S
C403 H398 0.950 . S
C403 C405 1.327 . S
C403 C409 1.429 . S
C404 C396 1.574 . S
C404 H399 0.949 . S
C404 C410 1.368 1_565 S
C405 C389 1.349 . S
C405 H397 0.950 . S
C405 C403 1.327 . S
C406 C394 1.349 . S
C406 H400 0.950 . S
C406 C407 1.327 . S
C407 H401 0.950 . S
C407 C406 1.327 . S
C407 C411 1.429 . S
C408 C391 1.574 . S
C408 H402 0.949 . S
C408 C412 1.368 1_545 S
C409 C390 1.429 . S
C409 C403 1.429 . S
C409 C410 1.523 . S
C410 C391 1.368 . S
C410 C404 1.368 1_545 S
C410 C409 1.523 . S
C411 C395 1.429 . S
C411 C407 1.429 . S
C411 C412 1.523 . S
C412 C396 1.368 . S
C412 C408 1.368 1_565 S
C412 C411 1.523 . S
H413 C388 0.950 . S
H414 C390 0.950 . S
H415 C391 0.949 . S
H416 C393 0.950 . S
H417 C395 0.950 . S
C418 C419 1.349 . S
C418 C420 1.327 . S
C418 H443 0.950 . S
C419 C418 1.349 . S
C419 C435 1.349 . S
C420 C418 1.327 . S
C420 C439 1.429 . S
C420 H444 0.950 . S
C421 C438 1.574 1_545 S
C421 C440 1.368 1_655 S
C421 H445 0.949 . S
H422 C426 0.949 . S
C423 C424 1.349 . S
C423 C425 1.327 . S
C423 H446 0.950 . S
C424 C423 1.349 . S
C424 C436 1.349 . S
C425 C423 1.327 . S
C425 C441 1.429 . S
C425 H447 0.950 . S
C426 H422 0.949 . S
C426 C434 1.574 1_565 S
C426 C442 1.368 1_455 S
H427 C435 0.950 . S
H428 C433 0.950 . S
H429 C434 0.949 . S
H430 C436 0.950 . S
H431 C437 0.950 . S
H432 C438 0.949 . S
C433 H428 0.950 . S
C433 C435 1.327 . S
C433 C439 1.429 . S
C434 C426 1.574 1_545 S
C434 H429 0.949 . S
C434 C440 1.368 . S
C435 C419 1.349 . S
C435 H427 0.950 . S
C435 C433 1.327 . S
C436 C424 1.349 . S
C436 H430 0.950 . S
C436 C437 1.327 . S
C437 H431 0.950 . S
C437 C436 1.327 . S
C437 C441 1.429 . S
C438 C421 1.574 1_565 S
C438 H432 0.949 . S
C438 C442 1.368 . S
C439 C420 1.429 . S
C439 C433 1.429 . S
C439 C440 1.523 . S
C440 C421 1.368 1_455 S
C440 C434 1.368 . S
C440 C439 1.523 . S
C441 C425 1.429 . S
C441 C437 1.429 . S
C441 C442 1.523 . S
C442 C426 1.368 1_655 S
C442 C438 1.368 . S
C442 C441 1.523 . S
H443 C418 0.950 . S
H444 C420 0.950 . S
H445 C421 0.949 . S
H446 C423 0.950 . S
H447 C425 0.950 . S
C448 C449 1.349 . S
C448 C450 1.327 . S
C448 H473 0.950 . S
C449 C448 1.349 . S
C449 C465 1.349 . S
C450 C448 1.327 . S
C450 C469 1.429 . S
C450 H474 0.950 . S
C451 C468 1.574 . S
C451 C470 1.368 . S
C451 H475 0.949 . S
H452 C456 0.949 . S
C453 C454 1.349 . S
C453 C455 1.327 . S
C453 H476 0.950 . S
C454 C453 1.349 . S
C454 C466 1.349 . S
C455 C453 1.327 . S
C455 C471 1.429 . S
C455 H477 0.950 . S
C456 H452 0.949 . S
C456 C464 1.574 . S
C456 C472 1.368 . S
H457 C465 0.950 . S
H458 C463 0.950 . S
H459 C464 0.949 . S
H460 C466 0.950 . S
H461 C467 0.950 . S
H462 C468 0.949 . S
C463 H458 0.950 . S
C463 C465 1.327 . S
C463 C469 1.429 . S
C464 C456 1.574 . S
C464 H459 0.949 . S
C464 C470 1.368 1_545 S
C465 C449 1.349 . S
C465 H457 0.950 . S
C465 C463 1.327 . S
C466 C454 1.349 . S
C466 H460 0.950 . S
C466 C467 1.327 . S
C467 H461 0.950 . S
C467 C466 1.327 . S
C467 C471 1.429 . S
C468 C451 1.574 . S
C468 H462 0.949 . S
C468 C472 1.368 1_565 S
C469 C450 1.429 . S
C469 C463 1.429 . S
C469 C470 1.523 . S
C470 C451 1.368 . S
C470 C464 1.368 1_565 S
C470 C469 1.523 . S
C471 C455 1.429 . S
C471 C467 1.429 . S
C471 C472 1.523 . S
C472 C456 1.368 . S
C472 C468 1.368 1_545 S
C472 C471 1.523 . S
H473 C448 0.950 . S
H474 C450 0.950 . S
H475 C451 0.949 . S
H476 C453 0.950 . S
H477 C455 0.950 . S
C478 C479 1.349 . S
C478 C480 1.327 . S
C478 H503 0.950 . S
C479 C478 1.349 . S
C479 C495 1.349 . S
C480 C478 1.327 . S
C480 C499 1.429 . S
C480 H504 0.950 . S
C481 C498 1.574 1_565 S
C481 C500 1.368 . S
C481 H505 0.949 . S
H482 C486 0.949 . S
C483 C484 1.349 . S
C483 C485 1.327 . S
C483 H506 0.950 . S
C484 C483 1.349 . S
C484 C496 1.349 . S
C485 C483 1.327 . S
C485 C501 1.429 . S
C485 H507 0.950 . S
C486 H482 0.949 . S
C486 C494 1.574 1_545 S
C486 C502 1.368 . S
H487 C495 0.950 . S
H488 C493 0.950 . S
H489 C494 0.949 . S
H490 C496 0.950 . S
H491 C497 0.950 . S
H492 C498 0.949 . S
C493 H488 0.950 . S
C493 C495 1.327 . S
C493 C499 1.429 . S
C494 C486 1.574 1_565 S
C494 H489 0.949 . S
C494 C500 1.368 1_455 S
C495 C479 1.349 . S
C495 H487 0.950 . S
C495 C493 1.327 . S
C496 C484 1.349 . S
C496 H490 0.950 . S
C496 C497 1.327 . S
C497 H491 0.950 . S
C497 C496 1.327 . S
C497 C501 1.429 . S
C498 C481 1.574 1_545 S
C498 H492 0.949 . S
C498 C502 1.368 1_655 S
C499 C480 1.429 . S
C499 C493 1.429 . S
C499 C500 1.523 . S
C500 C481 1.368 . S
C500 C494 1.368 1_655 S
C500 C499 1.523 . S
C501 C485 1.429 . S
C501 C497 1.429 . S
C501 C502 1.523 . S
C502 C486 1.368 . S
C502 C498 1.368 1_455 S
C502 C501 1.523 . S
H503 C478 0.950 . S
H504 C480 0.950 . S
H505 C481 0.949 . S
H506 C483 0.950 . S
H507 C485 0.950 . S
C508 C509 1.349 . S
C508 C510 1.327 . S
C508 H533 0.950 . S
C509 C508 1.349 . S
C509 C525 1.349 . S
C510 C508 1.327 . S
C510 C529 1.429 . S
C510 H534 0.950 . S
C511 C528 1.574 1_455 S
C511 C530 1.368 . S
C511 H535 0.949 . S
H512 C516 0.949 . S
C513 C514 1.349 . S
C513 C515 1.327 . S
C513 H536 0.950 . S
C514 C513 1.349 . S
C514 C526 1.349 . S
C515 C513 1.327 . S
C515 C531 1.429 . S
C515 H537 0.950 . S
C516 H512 0.949 . S
C516 C524 1.574 1_655 S
C516 C532 1.368 . S
H517 C525 0.950 . S
H518 C523 0.950 . S
H519 C524 0.949 . S
H520 C526 0.950 . S
H521 C527 0.950 . S
H522 C528 0.949 . S
C523 H518 0.950 . S
C523 C525 1.327 . S
C523 C529 1.429 . S
C524 C516 1.574 1_455 S
C524 H519 0.949 . S
C524 C530 1.368 . S
C525 C509 1.349 . S
C525 H517 0.950 . S
C525 C523 1.327 . S
C526 C514 1.349 . S
C526 H520 0.950 . S
C526 C527 1.327 . S
C527 H521 0.950 . S
C527 C526 1.327 . S
C527 C531 1.429 . S
C528 C511 1.574 1_655 S
C528 H522 0.949 . S
C528 C532 1.368 . S
C529 C510 1.429 . S
C529 C523 1.429 . S
C529 C530 1.523 . S
C530 C511 1.368 . S
C530 C524 1.368 . S
C530 C529 1.523 . S
C531 C515 1.429 . S
C531 C527 1.429 . S
C531 C532 1.523 . S
C532 C516 1.368 . S
C532 C528 1.368 . S
C532 C531 1.523 . S
H533 C508 0.950 . S
H534 C510 0.950 . S
H535 C511 0.949 . S
H536 C513 0.950 . S
H537 C515 0.950 . S
C538 C539 1.349 . S
C538 C540 1.327 . S
C538 H563 0.950 . S
C539 C538 1.349 . S
C539 C555 1.349 . S
C540 C538 1.327 . S
C540 C559 1.429 . S
C540 H564 0.950 . S
C541 C558 1.574 . S
C541 C560 1.368 . S
C541 H565 0.949 . S
H542 C546 0.949 . S
C543 C544 1.349 . S
C543 C545 1.327 . S
C543 H566 0.950 . S
C544 C543 1.349 . S
C544 C556 1.349 . S
C545 C543 1.327 . S
C545 C561 1.429 . S
C545 H567 0.950 . S
C546 H542 0.949 . S
C546 C554 1.574 . S
C546 C562 1.368 . S
H547 C555 0.950 . S
H548 C553 0.950 . S
H549 C554 0.949 . S
H550 C556 0.950 . S
H551 C557 0.950 . S
H552 C558 0.949 . S
C553 H548 0.950 . S
C553 C555 1.327 . S
C553 C559 1.429 . S
C554 C546 1.574 . S
C554 H549 0.949 . S
C554 C560 1.368 . S
C555 C539 1.349 . S
C555 H547 0.950 . S
C555 C553 1.327 . S
C556 C544 1.349 . S
C556 H550 0.950 . S
C556 C557 1.327 . S
C557 H551 0.950 . S
C557 C556 1.327 . S
C557 C561 1.429 . S
C558 C541 1.574 . S
C558 H552 0.949 . S
C558 C562 1.368 . S
C559 C540 1.429 . S
C559 C553 1.429 . S
C559 C560 1.523 . S
C560 C541 1.368 . S
C560 C554 1.368 . S
C560 C559 1.523 . S
C561 C545 1.429 . S
C561 C557 1.429 . S
C561 C562 1.523 . S
C562 C546 1.368 . S
C562 C558 1.368 . S
C562 C561 1.523 . S
H563 C538 0.950 . S
H564 C540 0.950 . S
H565 C541 0.949 . S
H566 C543 0.950 . S
H567 C545 0.950 . S
C568 C569 1.349 . S
C568 C570 1.327 . S
C568 H593 0.950 . S
C569 C568 1.349 . S
C569 C585 1.349 . S
C570 C568 1.327 . S
C570 C589 1.429 . S
C570 H594 0.950 . S
C571 C588 1.574 . S
C571 C590 1.368 . S
C571 H595 0.949 . S
H572 C576 0.949 . S
C573 C574 1.349 . S
C573 C575 1.327 . S
C573 H596 0.950 . S
C574 C573 1.349 . S
C574 C586 1.349 . S
C575 C573 1.327 . S
C575 C591 1.429 . S
C575 H597 0.950 . S
C576 H572 0.949 . S
C576 C584 1.574 . S
C576 C592 1.368 . S
H577 C585 0.950 . S
H578 C583 0.950 . S
H579 C584 0.949 . S
H580 C586 0.950 . S
H581 C587 0.950 . S
H582 C588 0.949 . S
C583 H578 0.950 . S
C583 C585 1.327 . S
C583 C589 1.429 . S
C584 C576 1.574 . S
C584 H579 0.949 . S
C584 C590 1.368 . S
C585 C569 1.349 . S
C585 H577 0.950 . S
C585 C583 1.327 . S
C586 C574 1.349 . S
C586 H580 0.950 . S
C586 C587 1.327 . S
C587 H581 0.950 . S
C587 C586 1.327 . S
C587 C591 1.429 . S
C588 C571 1.574 . S
C588 H582 0.949 . S
C588 C592 1.368 . S
C589 C570 1.429 . S
C589 C583 1.429 . S
C589 C590 1.523 . S
C590 C571 1.368 . S
C590 C584 1.368 . S
C590 C589 1.523 . S
C591 C575 1.429 . S
C591 C587 1.429 . S
C591 C592 1.523 . S
C592 C576 1.368 . S
C592 C588 1.368 . S
C592 C591 1.523 . S
H593 C568 0.950 . S
H594 C570 0.950 . S
H595 C571 0.949 . S
H596 C573 0.950 . S
H597 C575 0.950 . S
C598 C599 1.349 . S
C598 C600 1.327 . S
C598 H623 0.950 . S
C599 C598 1.349 . S
C599 C615 1.349 . S
C600 C598 1.327 . S
C600 C619 1.429 . S
C600 H624 0.950 . S
C601 C618 1.574 1_565 S
C601 C620 1.368 . S
C601 H625 0.949 . S
H602 C606 0.949 . S
C603 C604 1.349 . S
C603 C605 1.327 . S
C603 H626 0.950 . S
C604 C603 1.349 . S
C604 C616 1.349 . S
C605 C603 1.327 . S
C605 C621 1.429 . S
C605 H627 0.950 . S
C606 H602 0.949 . S
C606 C614 1.574 1_545 S
C606 C622 1.368 . S
H607 C615 0.950 . S
H608 C613 0.950 . S
H609 C614 0.949 . S
H610 C616 0.950 . S
H611 C617 0.950 . S
H612 C618 0.949 . S
C613 H608 0.950 . S
C613 C615 1.327 . S
C613 C619 1.429 . S
C614 C606 1.574 1_565 S
C614 H609 0.949 . S
C614 C620 1.368 . S
C615 C599 1.349 . S
C615 H607 0.950 . S
C615 C613 1.327 . S
C616 C604 1.349 . S
C616 H610 0.950 . S
C616 C617 1.327 . S
C617 H611 0.950 . S
C617 C616 1.327 . S
C617 C621 1.429 . S
C618 C601 1.574 1_545 S
C618 H612 0.949 . S
C618 C622 1.368 . S
C619 C600 1.429 . S
C619 C613 1.429 . S
C619 C620 1.523 . S
C620 C601 1.368 . S
C620 C614 1.368 . S
C620 C619 1.523 . S
C621 C605 1.429 . S
C621 C617 1.429 . S
C621 C622 1.523 . S
C622 C606 1.368 . S
C622 C618 1.368 . S
C622 C621 1.523 . S
H623 C598 0.950 . S
H624 C600 0.950 . S
H625 C601 0.949 . S
H626 C603 0.950 . S
H627 C605 0.950 . S
C628 C629 1.349 . S
C628 C630 1.327 . S
C628 H653 0.950 . S
C629 C628 1.349 . S
C629 C645 1.349 . S
C630 C628 1.327 . S
C630 C649 1.429 . S
C630 H654 0.950 . S
C631 C648 1.574 1_655 S
C631 C650 1.368 . S
C631 H655 0.949 . S
H632 C636 0.949 . S
C633 C634 1.349 . S
C633 C635 1.327 . S
C633 H656 0.950 . S
C634 C633 1.349 . S
C634 C646 1.349 . S
C635 C633 1.327 . S
C635 C651 1.429 . S
C635 H657 0.950 . S
C636 H632 0.949 . S
C636 C644 1.574 1_455 S
C636 C652 1.368 . S
H637 C645 0.950 . S
H638 C643 0.950 . S
H639 C644 0.949 . S
H640 C646 0.950 . S
H641 C647 0.950 . S
H642 C648 0.949 . S
C643 H638 0.950 . S
C643 C645 1.327 . S
C643 C649 1.429 . S
C644 C636 1.574 1_655 S
C644 H639 0.949 . S
C644 C650 1.368 1_545 S
C645 C629 1.349 . S
C645 H637 0.950 . S
C645 C643 1.327 . S
C646 C634 1.349 . S
C646 H640 0.950 . S
C646 C647 1.327 . S
C647 H641 0.950 . S
C647 C646 1.327 . S
C647 C651 1.429 . S
C648 C631 1.574 1_455 S
C648 H642 0.949 . S
C648 C652 1.368 1_565 S
C649 C630 1.429 . S
C649 C643 1.429 . S
C649 C650 1.523 . S
C650 C631 1.368 . S
C650 C644 1.368 1_565 S
C650 C649 1.523 . S
C651 C635 1.429 . S
C651 C647 1.429 . S
C651 C652 1.523 . S
C652 C636 1.368 . S
C652 C648 1.368 1_545 S
C652 C651 1.523 . S
H653 C628 0.950 . S
H654 C630 0.950 . S
H655 C631 0.949 . S
H656 C633 0.950 . S
H657 C635 0.950 . S
C658 C659 1.349 . S
C658 C660 1.327 . S
C658 H683 0.950 . S
C659 C658 1.349 . S
C659 C675 1.349 . S
C660 C658 1.327 . S
C660 C679 1.429 . S
C660 H684 0.950 . S
C661 C678 1.574 . S
C661 C680 1.368 1_655 S
C661 H685 0.949 . S
H662 C666 0.949 . S
C663 C664 1.349 . S
C663 C665 1.327 . S
C663 H686 0.950 . S
C664 C663 1.349 . S
C664 C676 1.349 . S
C665 C663 1.327 . S
C665 C681 1.429 . S
C665 H687 0.950 . S
C666 H662 0.949 . S
C666 C674 1.574 . S
C666 C682 1.368 1_455 S
H667 C675 0.950 . S
H668 C673 0.950 . S
H669 C674 0.949 . S
H670 C676 0.950 . S
H671 C677 0.950 . S
H672 C678 0.949 . S
C673 H668 0.950 . S
C673 C675 1.327 . S
C673 C679 1.429 . S
C674 C666 1.574 . S
C674 H669 0.949 . S
C674 C680 1.368 . S
C675 C659 1.349 . S
C675 H667 0.950 . S
C675 C673 1.327 . S
C676 C664 1.349 . S
C676 H670 0.950 . S
C676 C677 1.327 . S
C677 H671 0.950 . S
C677 C676 1.327 . S
C677 C681 1.429 . S
C678 C661 1.574 . S
C678 H672 0.949 . S
C678 C682 1.368 . S
C679 C660 1.429 . S
C679 C673 1.429 . S
C679 C680 1.523 . S
C680 C661 1.368 1_455 S
C680 C674 1.368 . S
C680 C679 1.523 . S
C681 C665 1.429 . S
C681 C677 1.429 . S
C681 C682 1.523 . S
C682 C666 1.368 1_655 S
C682 C678 1.368 . S
C682 C681 1.523 . S
H683 C658 0.950 . S
H684 C660 0.950 . S
H685 C661 0.949 . S
H686 C663 0.950 . S
H687 C665 0.950 . S
C688 C689 1.349 . S
C688 C690 1.327 . S
C688 H713 0.950 . S
C689 C688 1.349 . S
C689 C705 1.349 . S
C690 C688 1.327 . S
C690 C709 1.429 . S
C690 H714 0.950 . S
C691 C708 1.574 . S
C691 C710 1.368 . S
C691 H715 0.949 . S
H692 C696 0.949 . S
C693 C694 1.349 . S
C693 C695 1.327 . S
C693 H716 0.950 . S
C694 C693 1.349 . S
C694 C706 1.349 . S
C695 C693 1.327 . S
C695 C711 1.429 . S
C695 H717 0.950 . S
C696 H692 0.949 . S
C696 C704 1.574 . S
C696 C712 1.368 . S
H697 C705 0.950 . S
H698 C703 0.950 . S
H699 C704 0.949 . S
H700 C706 0.950 . S
H701 C707 0.950 . S
H702 C708 0.949 . S
C703 H698 0.950 . S
C703 C705 1.327 . S
C703 C709 1.429 . S
C704 C696 1.574 . S
C704 H699 0.949 . S
C704 C710 1.368 . S
C705 C689 1.349 . S
C705 H697 0.950 . S
C705 C703 1.327 . S
C706 C694 1.349 . S
C706 H700 0.950 . S
C706 C707 1.327 . S
C707 H701 0.950 . S
C707 C706 1.327 . S
C707 C711 1.429 . S
C708 C691 1.574 . S
C708 H702 0.949 . S
C708 C712 1.368 . S
C709 C690 1.429 . S
C709 C703 1.429 . S
C709 C710 1.523 . S
C710 C691 1.368 . S
C710 C704 1.368 . S
C710 C709 1.523 . S
C711 C695 1.429 . S
C711 C707 1.429 . S
C711 C712 1.523 . S
C712 C696 1.368 . S
C712 C708 1.368 . S
C712 C711 1.523 . S
H713 C688 0.950 . S
H714 C690 0.950 . S
H715 C691 0.949 . S
H716 C693 0.950 . S
H717 C695 0.950 . S
C718 C719 1.349 . S
C718 C720 1.327 . S
C718 H743 0.950 . S
C719 C718 1.349 . S
C719 C735 1.349 . S
C720 C718 1.327 . S
C720 C739 1.429 . S
C720 H744 0.950 . S
C721 C738 1.574 . S
C721 C740 1.368 . S
C721 H745 0.949 . S
H722 C726 0.949 . S
C723 C724 1.349 . S
C723 C725 1.327 . S
C723 H746 0.950 . S
C724 C723 1.349 . S
C724 C736 1.349 . S
C725 C723 1.327 . S
C725 C741 1.429 . S
C725 H747 0.950 . S
C726 H722 0.949 . S
C726 C734 1.574 . S
C726 C742 1.368 . S
H727 C735 0.950 . S
H728 C733 0.950 . S
H729 C734 0.949 . S
H730 C736 0.950 . S
H731 C737 0.950 . S
H732 C738 0.949 . S
C733 H728 0.950 . S
C733 C735 1.327 . S
C733 C739 1.429 . S
C734 C726 1.574 . S
C734 H729 0.949 . S
C734 C740 1.368 . S
C735 C719 1.349 . S
C735 H727 0.950 . S
C735 C733 1.327 . S
C736 C724 1.349 . S
C736 H730 0.950 . S
C736 C737 1.327 . S
C737 H731 0.950 . S
C737 C736 1.327 . S
C737 C741 1.429 . S
C738 C721 1.574 . S
C738 H732 0.949 . S
C738 C742 1.368 . S
C739 C720 1.429 . S
C739 C733 1.429 . S
C739 C740 1.523 . S
C740 C721 1.368 . S
C740 C734 1.368 . S
C740 C739 1.523 . S
C741 C725 1.429 . S
C741 C737 1.429 . S
C741 C742 1.523 . S
C742 C726 1.368 . S
C742 C738 1.368 . S
C742 C741 1.523 . S
H743 C718 0.950 . S
H744 C720 0.950 . S
H745 C721 0.949 . S
H746 C723 0.950 . S
H747 C725 0.950 . S
C748 C749 1.349 . S
C748 C750 1.327 . S
C748 H773 0.950 . S
C749 C748 1.349 . S
C749 C765 1.349 . S
C750 C748 1.327 . S
C750 C769 1.429 . S
C750 H774 0.950 . S
C751 C768 1.574 . S
C751 C770 1.368 . S
C751 H775 0.949 . S
H752 C756 0.949 . S
C753 C754 1.349 . S
C753 C755 1.327 . S
C753 H776 0.950 . S
C754 C753 1.349 . S
C754 C766 1.349 . S
C755 C753 1.327 . S
C755 C771 1.429 . S
C755 H777 0.950 . S
C756 H752 0.949 . S
C756 C764 1.574 . S
C756 C772 1.368 . S
H757 C765 0.950 . S
H758 C763 0.950 . S
H759 C764 0.949 . S
H760 C766 0.950 . S
H761 C767 0.950 . S
H762 C768 0.949 . S
C763 H758 0.950 . S
C763 C765 1.327 . S
C763 C769 1.429 . S
C764 C756 1.574 . S
C764 H759 0.949 . S
C764 C770 1.368 . S
C765 C749 1.349 . S
C765 H757 0.950 . S
C765 C763 1.327 . S
C766 C754 1.349 . S
C766 H760 0.950 . S
C766 C767 1.327 . S
C767 H761 0.950 . S
C767 C766 1.327 . S
C767 C771 1.429 . S
C768 C751 1.574 . S
C768 H762 0.949 . S
C768 C772 1.368 . S
C769 C750 1.429 . S
C769 C763 1.429 . S
C769 C770 1.523 . S
C770 C751 1.368 . S
C770 C764 1.368 . S
C770 C769 1.523 . S
C771 C755 1.429 . S
C771 C767 1.429 . S
C771 C772 1.523 . S
C772 C756 1.368 . S
C772 C768 1.368 . S
C772 C771 1.523 . S
H773 C748 0.950 . S
H774 C750 0.950 . S
H775 C751 0.949 . S
H776 C753 0.950 . S
H777 C755 0.950 . S
C778 C779 1.349 . S
C778 C780 1.327 . S
C778 H803 0.950 . S
C779 C778 1.349 . S
C779 C795 1.349 . S
C780 C778 1.327 . S
C780 C799 1.429 . S
C780 H804 0.950 . S
C781 C798 1.574 . S
C781 C800 1.368 . S
C781 H805 0.949 . S
H782 C786 0.949 . S
C783 C784 1.349 . S
C783 C785 1.327 . S
C783 H806 0.950 . S
C784 C783 1.349 . S
C784 C796 1.349 . S
C785 C783 1.327 . S
C785 C801 1.429 . S
C785 H807 0.950 . S
C786 H782 0.949 . S
C786 C794 1.574 . S
C786 C802 1.368 . S
H787 C795 0.950 . S
H788 C793 0.950 . S
H789 C794 0.949 . S
H790 C796 0.950 . S
H791 C797 0.950 . S
H792 C798 0.949 . S
C793 H788 0.950 . S
C793 C795 1.327 . S
C793 C799 1.429 . S
C794 C786 1.574 . S
C794 H789 0.949 . S
C794 C800 1.368 . S
C795 C779 1.349 . S
C795 H787 0.950 . S
C795 C793 1.327 . S
C796 C784 1.349 . S
C796 H790 0.950 . S
C796 C797 1.327 . S
C797 H791 0.950 . S
C797 C796 1.327 . S
C797 C801 1.429 . S
C798 C781 1.574 . S
C798 H792 0.949 . S
C798 C802 1.368 . S
C799 C780 1.429 . S
C799 C793 1.429 . S
C799 C800 1.523 . S
C800 C781 1.368 . S
C800 C794 1.368 . S
C800 C799 1.523 . S
C801 C785 1.429 . S
C801 C797 1.429 . S
C801 C802 1.523 . S
C802 C786 1.368 . S
C802 C798 1.368 . S
C802 C801 1.523 . S
H803 C778 0.950 . S
H804 C780 0.950 . S
H805 C781 0.949 . S
H806 C783 0.950 . S
H807 C785 0.950 . S
C808 C809 1.349 . S
C808 C810 1.327 . S
C808 H833 0.950 . S
C809 C808 1.349 . S
C809 C825 1.349 . S
C810 C808 1.327 . S
C810 C829 1.429 . S
C810 H834 0.950 . S
C811 C828 1.574 . S
C811 C830 1.368 . S
C811 H835 0.949 . S
H812 C816 0.949 . S
C813 C814 1.349 . S
C813 C815 1.327 . S
C813 H836 0.950 . S
C814 C813 1.349 . S
C814 C826 1.349 . S
C815 C813 1.327 . S
C815 C831 1.429 . S
C815 H837 0.950 . S
C816 H812 0.949 . S
C816 C824 1.574 . S
C816 C832 1.368 . S
H817 C825 0.950 . S
H818 C823 0.950 . S
H819 C824 0.949 . S
H820 C826 0.950 . S
H821 C827 0.950 . S
H822 C828 0.949 . S
C823 H818 0.950 . S
C823 C825 1.327 . S
C823 C829 1.429 . S
C824 C816 1.574 . S
C824 H819 0.949 . S
C824 C830 1.368 . S
C825 C809 1.349 . S
C825 H817 0.950 . S
C825 C823 1.327 . S
C826 C814 1.349 . S
C826 H820 0.950 . S
C826 C827 1.327 . S
C827 H821 0.950 . S
C827 C826 1.327 . S
C827 C831 1.429 . S
C828 C811 1.574 . S
C828 H822 0.949 . S
C828 C832 1.368 . S
C829 C810 1.429 . S
C829 C823 1.429 . S
C829 C830 1.523 . S
C830 C811 1.368 . S
C830 C824 1.368 . S
C830 C829 1.523 . S
C831 C815 1.429 . S
C831 C827 1.429 . S
C831 C832 1.523 . S
C832 C816 1.368 . S
C832 C828 1.368 . S
C832 C831 1.523 . S
H833 C808 0.950 . S
H834 C810 0.950 . S
H835 C811 0.949 . S
H836 C813 0.950 . S
H837 C815 0.950 . S
C838 C839 1.349 . S
C838 C840 1.327 . S
C838 H863 0.950 . S
C839 C838 1.349 . S
C839 C855 1.349 . S
C840 C838 1.327 . S
C840 C859 1.429 . S
C840 H864 0.950 . S
C841 C858 1.574 . S
C841 C860 1.368 . S
C841 H865 0.949 . S
H842 C846 0.949 . S
C843 C844 1.349 . S
C843 C845 1.327 . S
C843 H866 0.950 . S
C844 C843 1.349 . S
C844 C856 1.349 . S
C845 C843 1.327 . S
C845 C861 1.429 . S
C845 H867 0.950 . S
C846 H842 0.949 . S
C846 C854 1.574 . S
C846 C862 1.368 . S
H847 C855 0.950 . S
H848 C853 0.950 . S
H849 C854 0.949 . S
H850 C856 0.950 . S
H851 C857 0.950 . S
H852 C858 0.949 . S
C853 H848 0.950 . S
C853 C855 1.327 . S
C853 C859 1.429 . S
C854 C846 1.574 . S
C854 H849 0.949 . S
C854 C860 1.368 . S
C855 C839 1.349 . S
C855 H847 0.950 . S
C855 C853 1.327 . S
C856 C844 1.349 . S
C856 H850 0.950 . S
C856 C857 1.327 . S
C857 H851 0.950 . S
C857 C856 1.327 . S
C857 C861 1.429 . S
C858 C841 1.574 . S
C858 H852 0.949 . S
C858 C862 1.368 . S
C859 C840 1.429 . S
C859 C853 1.429 . S
C859 C860 1.523 . S
C860 C841 1.368 . S
C860 C854 1.368 . S
C860 C859 1.523 . S
C861 C845 1.429 . S
C861 C857 1.429 . S
C861 C862 1.523 . S
C862 C846 1.368 . S
C862 C858 1.368 . S
C862 C861 1.523 . S
H863 C838 0.950 . S
H864 C840 0.950 . S
H865 C841 0.949 . S
H866 C843 0.950 . S
H867 C845 0.950 . S
C868 C869 1.349 . S
C868 C870 1.327 . S
C868 H893 0.950 . S
C869 C868 1.349 . S
C869 C885 1.349 . S
C870 C868 1.327 . S
C870 C889 1.429 . S
C870 H894 0.950 . S
C871 C888 1.574 . S
C871 C890 1.368 . S
C871 H895 0.949 . S
H872 C876 0.949 . S
C873 C874 1.349 . S
C873 C875 1.327 . S
C873 H896 0.950 . S
C874 C873 1.349 . S
C874 C886 1.349 . S
C875 C873 1.327 . S
C875 C891 1.429 . S
C875 H897 0.950 . S
C876 H872 0.949 . S
C876 C884 1.574 . S
C876 C892 1.368 . S
H877 C885 0.950 . S
H878 C883 0.950 . S
H879 C884 0.949 . S
H880 C886 0.950 . S
H881 C887 0.950 . S
H882 C888 0.949 . S
C883 H878 0.950 . S
C883 C885 1.327 . S
C883 C889 1.429 . S
C884 C876 1.574 . S
C884 H879 0.949 . S
C884 C890 1.368 . S
C885 C869 1.349 . S
C885 H877 0.950 . S
C885 C883 1.327 . S
C886 C874 1.349 . S
C886 H880 0.950 . S
C886 C887 1.327 . S
C887 H881 0.950 . S
C887 C886 1.327 . S
C887 C891 1.429 . S
C888 C871 1.574 . S
C888 H882 0.949 . S
C888 C892 1.368 . S
C889 C870 1.429 . S
C889 C883 1.429 . S
C889 C890 1.523 . S
C890 C871 1.368 . S
C890 C884 1.368 . S
C890 C889 1.523 . S
C891 C875 1.429 . S
C891 C887 1.429 . S
C891 C892 1.523 . S
C892 C876 1.368 . S
C892 C888 1.368 . S
C892 C891 1.523 . S
H893 C868 0.950 . S
H894 C870 0.950 . S
H895 C871 0.949 . S
H896 C873 0.950 . S
H897 C875 0.950 . S
C898 C899 1.349 . S
C898 C900 1.327 . S
C898 H923 0.950 . S
C899 C898 1.349 . S
C899 C915 1.349 . S
C900 C898 1.327 . S
C900 C919 1.429 . S
C900 H924 0.950 . S
C901 C918 1.574 . S
C901 C920 1.368 . S
C901 H925 0.949 . S
H902 C906 0.949 . S
C903 C904 1.349 . S
C903 C905 1.327 . S
C903 H926 0.950 . S
C904 C903 1.349 . S
C904 C916 1.349 . S
C905 C903 1.327 . S
C905 C921 1.429 . S
C905 H927 0.950 . S
C906 H902 0.949 . S
C906 C914 1.574 . S
C906 C922 1.368 . S
H907 C915 0.950 . S
H908 C913 0.950 . S
H909 C914 0.949 . S
H910 C916 0.950 . S
H911 C917 0.950 . S
H912 C918 0.949 . S
C913 H908 0.950 . S
C913 C915 1.327 . S
C913 C919 1.429 . S
C914 C906 1.574 . S
C914 H909 0.949 . S
C914 C920 1.368 . S
C915 C899 1.349 . S
C915 H907 0.950 . S
C915 C913 1.327 . S
C916 C904 1.349 . S
C916 H910 0.950 . S
C916 C917 1.327 . S
C917 H911 0.950 . S
C917 C916 1.327 . S
C917 C921 1.429 . S
C918 C901 1.574 . S
C918 H912 0.949 . S
C918 C922 1.368 . S
C919 C900 1.429 . S
C919 C913 1.429 . S
C919 C920 1.523 . S
C920 C901 1.368 . S
C920 C914 1.368 . S
C920 C919 1.523 . S
C921 C905 1.429 . S
C921 C917 1.429 . S
C921 C922 1.523 . S
C922 C906 1.368 . S
C922 C918 1.368 . S
C922 C921 1.523 . S
H923 C898 0.950 . S
H924 C900 0.950 . S
H925 C901 0.949 . S
H926 C903 0.950 . S
H927 C905 0.950 . S
C928 C929 1.349 . S
C928 C930 1.327 . S
C928 H953 0.950 . S
C929 C928 1.349 . S
C929 C945 1.349 . S
C930 C928 1.327 . S
C930 C949 1.429 . S
C930 H954 0.950 . S
C931 C948 1.574 . S
C931 C950 1.368 . S
C931 H955 0.949 . S
H932 C936 0.949 . S
C933 C934 1.349 . S
C933 C935 1.327 . S
C933 H956 0.950 . S
C934 C933 1.349 . S
C934 C946 1.349 . S
C935 C933 1.327 . S
C935 C951 1.429 . S
C935 H957 0.950 . S
C936 H932 0.949 . S
C936 C944 1.574 . S
C936 C952 1.368 . S
H937 C945 0.950 . S
H938 C943 0.950 . S
H939 C944 0.949 . S
H940 C946 0.950 . S
H941 C947 0.950 . S
H942 C948 0.949 . S
C943 H938 0.950 . S
C943 C945 1.327 . S
C943 C949 1.429 . S
C944 C936 1.574 . S
C944 H939 0.949 . S
C944 C950 1.368 . S
C945 C929 1.349 . S
C945 H937 0.950 . S
C945 C943 1.327 . S
C946 C934 1.349 . S
C946 H940 0.950 . S
C946 C947 1.327 . S
C947 H941 0.950 . S
C947 C946 1.327 . S
C947 C951 1.429 . S
C948 C931 1.574 . S
C948 H942 0.949 . S
C948 C952 1.368 . S
C949 C930 1.429 . S
C949 C943 1.429 . S
C949 C950 1.523 . S
C950 C931 1.368 . S
C950 C944 1.368 . S
C950 C949 1.523 . S
C951 C935 1.429 . S
C951 C947 1.429 . S
C951 C952 1.523 . S
C952 C936 1.368 . S
C952 C948 1.368 . S
C952 C951 1.523 . S
H953 C928 0.950 . S
H954 C930 0.950 . S
H955 C931 0.949 . S
H956 C933 0.950 . S
H957 C935 0.950 . S
C958 C959 1.349 . S
C958 C960 1.327 . S
C958 H983 0.950 . S
C959 C958 1.349 . S
C959 C975 1.349 . S
C960 C958 1.327 . S
C960 C979 1.429 . S
C960 H984 0.950 . S
C961 C978 1.574 . S
C961 C980 1.368 . S
C961 H985 0.949 . S
H962 C966 0.949 . S
C963 C964 1.349 . S
C963 C965 1.327 . S
C963 H986 0.950 . S
C964 C963 1.349 . S
C964 C976 1.349 . S
C965 C963 1.327 . S
C965 C981 1.429 . S
C965 H987 0.950 . S
C966 H962 0.949 . S
C966 C974 1.574 . S
C966 C982 1.368 . S
H967 C975 0.950 . S
H968 C973 0.950 . S
H969 C974 0.949 . S
H970 C976 0.950 . S
H971 C977 0.950 . S
H972 C978 0.949 . S
C973 H968 0.950 . S
C973 C975 1.327 . S
C973 C979 1.429 . S
C974 C966 1.574 . S
C974 H969 0.949 . S
C974 C980 1.368 . S
C975 C959 1.349 . S
C975 H967 0.950 . S
C975 C973 1.327 . S
C976 C964 1.349 . S
C976 H970 0.950 . S
C976 C977 1.327 . S
C977 H971 0.950 . S
C977 C976 1.327 . S
C977 C981 1.429 . S
C978 C961 1.574 . S
C978 H972 0.949 . S
C978 C982 1.368 . S
C979 C960 1.429 . S
C979 C973 1.429 . S
C979 C980 1.523 . S
C980 C961 1.368 . S
C980 C974 1.368 . S
C980 C979 1.523 . S
C981 C965 1.429 . S
C981 C977 1.429 . S
C981 C982 1.523 . S
C982 C966 1.368 . S
C982 C978 1.368 . S
C982 C981 1.523 . S
H983 C958 0.950 . S
H984 C960 0.950 . S
H985 C961 0.949 . S
H986 C963 0.950 . S
H987 C965 0.950 . S
C988 C989 1.349 . S
C988 C990 1.327 . S
C988 H1013 0.950 . S
C989 C988 1.349 . S
C989 C1005 1.349 . S
C990 C988 1.327 . S
C990 C1009 1.429 . S
C990 H1014 0.950 . S
C991 C1008 1.574 . S
C991 C1010 1.368 . S
C991 H1015 0.949 . S
H992 C996 0.949 . S
C993 C994 1.349 . S
C993 C995 1.327 . S
C993 H1016 0.950 . S
C994 C993 1.349 . S
C994 C1006 1.349 . S
C995 C993 1.327 . S
C995 C1011 1.429 . S
C995 H1017 0.950 . S
C996 H992 0.949 . S
C996 C1004 1.574 . S
C996 C1012 1.368 . S
H997 C1005 0.950 . S
H998 C1003 0.950 . S
H999 C1004 0.949 . S
H1000 C1006 0.950 . S
H1001 C1007 0.950 . S
H1002 C1008 0.949 . S
C1003 H998 0.950 . S
C1003 C1005 1.327 . S
C1003 C1009 1.429 . S
C1004 C996 1.574 . S
C1004 H999 0.949 . S
C1004 C1010 1.368 . S
C1005 C989 1.349 . S
C1005 H997 0.950 . S
C1005 C1003 1.327 . S
C1006 C994 1.349 . S
C1006 H1000 0.950 . S
C1006 C1007 1.327 . S
C1007 H1001 0.950 . S
C1007 C1006 1.327 . S
C1007 C1011 1.429 . S
C1008 C991 1.574 . S
C1008 H1002 0.949 . S
C1008 C1012 1.368 . S
C1009 C990 1.429 . S
C1009 C1003 1.429 . S
C1009 C1010 1.523 . S
C1010 C991 1.368 . S
C1010 C1004 1.368 . S
C1010 C1009 1.523 . S
C1011 C995 1.429 . S
C1011 C1007 1.429 . S
C1011 C1012 1.523 . S
C1012 C996 1.368 . S
C1012 C1008 1.368 . S
C1012 C1011 1.523 . S
H1013 C988 0.950 . S
H1014 C990 0.950 . S
H1015 C991 0.949 . S
H1016 C993 0.950 . S
H1017 C995 0.950 . S
C1018 C1019 1.349 . S
C1018 C1020 1.327 . S
C1018 H1043 0.950 . S
C1019 C1018 1.349 . S
C1019 C1035 1.349 . S
C1020 C1018 1.327 . S
C1020 C1039 1.429 . S
C1020 H1044 0.950 . S
C1021 C1038 1.574 1_556 S
C1021 C1040 1.368 . S
C1021 H1045 0.949 . S
H1022 C1026 0.949 . S
C1023 C1024 1.349 . S
C1023 C1025 1.327 . S
C1023 H1046 0.950 . S
C1024 C1023 1.349 . S
C1024 C1036 1.349 . S
C1025 C1023 1.327 . S
C1025 C1041 1.429 . S
C1025 H1047 0.950 . S
C1026 H1022 0.949 . S
C1026 C1034 1.574 1_554 S
C1026 C1042 1.368 . S
H1027 C1035 0.950 . S
H1028 C1033 0.950 . S
H1029 C1034 0.949 . S
H1030 C1036 0.950 . S
H1031 C1037 0.950 . S
H1032 C1038 0.949 . S
C1033 H1028 0.950 . S
C1033 C1035 1.327 . S
C1033 C1039 1.429 . S
C1034 C1026 1.574 1_556 S
C1034 H1029 0.949 . S
C1034 C1040 1.368 . S
C1035 C1019 1.349 . S
C1035 H1027 0.950 . S
C1035 C1033 1.327 . S
C1036 C1024 1.349 . S
C1036 H1030 0.950 . S
C1036 C1037 1.327 . S
C1037 H1031 0.950 . S
C1037 C1036 1.327 . S
C1037 C1041 1.429 . S
C1038 C1021 1.574 1_554 S
C1038 H1032 0.949 . S
C1038 C1042 1.368 . S
C1039 C1020 1.429 . S
C1039 C1033 1.429 . S
C1039 C1040 1.523 . S
C1040 C1021 1.368 . S
C1040 C1034 1.368 . S
C1040 C1039 1.523 . S
C1041 C1025 1.429 . S
C1041 C1037 1.429 . S
C1041 C1042 1.523 . S
C1042 C1026 1.368 . S
C1042 C1038 1.368 . S
C1042 C1041 1.523 . S
H1043 C1018 0.950 . S
H1044 C1020 0.950 . S
H1045 C1021 0.949 . S
H1046 C1023 0.950 . S
H1047 C1025 0.950 . S
C1048 C1049 1.349 . S
C1048 C1050 1.327 . S
C1048 H1073 0.950 . S
C1049 C1048 1.349 . S
C1049 C1065 1.349 . S
C1050 C1048 1.327 . S
C1050 C1069 1.429 . S
C1050 H1074 0.950 . S
C1051 C1068 1.574 1_554 S
C1051 C1070 1.368 . S
C1051 H1075 0.949 . S
H1052 C1056 0.949 . S
C1053 C1054 1.349 . S
C1053 C1055 1.327 . S
C1053 H1076 0.950 . S
C1054 C1053 1.349 . S
C1054 C1066 1.349 . S
C1055 C1053 1.327 . S
C1055 C1071 1.429 . S
C1055 H1077 0.950 . S
C1056 H1052 0.949 . S
C1056 C1064 1.574 1_556 S
C1056 C1072 1.368 . S
H1057 C1065 0.950 . S
H1058 C1063 0.950 . S
H1059 C1064 0.949 . S
H1060 C1066 0.950 . S
H1061 C1067 0.950 . S
H1062 C1068 0.949 . S
C1063 H1058 0.950 . S
C1063 C1065 1.327 . S
C1063 C1069 1.429 . S
C1064 C1056 1.574 1_554 S
C1064 H1059 0.949 . S
C1064 C1070 1.368 . S
C1065 C1049 1.349 . S
C1065 H1057 0.950 . S
C1065 C1063 1.327 . S
C1066 C1054 1.349 . S
C1066 H1060 0.950 . S
C1066 C1067 1.327 . S
C1067 H1061 0.950 . S
C1067 C1066 1.327 . S
C1067 C1071 1.429 . S
C1068 C1051 1.574 1_556 S
C1068 H1062 0.949 . S
C1068 C1072 1.368 . S
C1069 C1050 1.429 . S
C1069 C1063 1.429 . S
C1069 C1070 1.523 . S
C1070 C1051 1.368 . S
C1070 C1064 1.368 . S
C1070 C1069 1.523 . S
C1071 C1055 1.429 . S
C1071 C1067 1.429 . S
C1071 C1072 1.523 . S
C1072 C1056 1.368 . S
C1072 C1068 1.368 . S
C1072 C1071 1.523 . S
H1073 C1048 0.950 . S
H1074 C1050 0.950 . S
H1075 C1051 0.949 . S
H1076 C1053 0.950 . S
H1077 C1055 0.950 . S
C1078 C1079 1.349 . S
C1078 C1080 1.327 . S
C1078 H1103 0.950 . S
C1079 C1078 1.349 . S
C1079 C1095 1.349 . S
C1080 C1078 1.327 . S
C1080 C1099 1.429 . S
C1080 H1104 0.950 . S
C1081 C1098 1.574 . S
C1081 C1100 1.368 . S
C1081 H1105 0.949 . S
H1082 C1086 0.949 . S
C1083 C1084 1.349 . S
C1083 C1085 1.327 . S
C1083 H1106 0.950 . S
C1084 C1083 1.349 . S
C1084 C1096 1.349 . S
C1085 C1083 1.327 . S
C1085 C1101 1.429 . S
C1085 H1107 0.950 . S
C1086 H1082 0.949 . S
C1086 C1094 1.574 . S
C1086 C1102 1.368 . S
H1087 C1095 0.950 . S
H1088 C1093 0.950 . S
H1089 C1094 0.949 . S
H1090 C1096 0.950 . S
H1091 C1097 0.950 . S
H1092 C1098 0.949 . S
C1093 H1088 0.950 . S
C1093 C1095 1.327 . S
C1093 C1099 1.429 . S
C1094 C1086 1.574 . S
C1094 H1089 0.949 . S
C1094 C1100 1.368 . S
C1095 C1079 1.349 . S
C1095 H1087 0.950 . S
C1095 C1093 1.327 . S
C1096 C1084 1.349 . S
C1096 H1090 0.950 . S
C1096 C1097 1.327 . S
C1097 H1091 0.950 . S
C1097 C1096 1.327 . S
C1097 C1101 1.429 . S
C1098 C1081 1.574 . S
C1098 H1092 0.949 . S
C1098 C1102 1.368 . S
C1099 C1080 1.429 . S
C1099 C1093 1.429 . S
C1099 C1100 1.523 . S
C1100 C1081 1.368 . S
C1100 C1094 1.368 . S
C1100 C1099 1.523 . S
C1101 C1085 1.429 . S
C1101 C1097 1.429 . S
C1101 C1102 1.523 . S
C1102 C1086 1.368 . S
C1102 C1098 1.368 . S
C1102 C1101 1.523 . S
H1103 C1078 0.950 . S
H1104 C1080 0.950 . S
H1105 C1081 0.949 . S
H1106 C1083 0.950 . S
H1107 C1085 0.950 . S
C1108 C1109 1.349 . S
C1108 C1110 1.327 . S
C1108 H1133 0.950 . S
C1109 C1108 1.349 . S
C1109 C1125 1.349 . S
C1110 C1108 1.327 . S
C1110 C1129 1.429 . S
C1110 H1134 0.950 . S
C1111 C1128 1.574 . S
C1111 C1130 1.368 . S
C1111 H1135 0.949 . S
H1112 C1116 0.949 . S
C1113 C1114 1.349 . S
C1113 C1115 1.327 . S
C1113 H1136 0.950 . S
C1114 C1113 1.349 . S
C1114 C1126 1.349 . S
C1115 C1113 1.327 . S
C1115 C1131 1.429 . S
C1115 H1137 0.950 . S
C1116 H1112 0.949 . S
C1116 C1124 1.574 . S
C1116 C1132 1.368 . S
H1117 C1125 0.950 . S
H1118 C1123 0.950 . S
H1119 C1124 0.949 . S
H1120 C1126 0.950 . S
H1121 C1127 0.950 . S
H1122 C1128 0.949 . S
C1123 H1118 0.950 . S
C1123 C1125 1.327 . S
C1123 C1129 1.429 . S
C1124 C1116 1.574 . S
C1124 H1119 0.949 . S
C1124 C1130 1.368 . S
C1125 C1109 1.349 . S
C1125 H1117 0.950 . S
C1125 C1123 1.327 . S
C1126 C1114 1.349 . S
C1126 H1120 0.950 . S
C1126 C1127 1.327 . S
C1127 H1121 0.950 . S
C1127 C1126 1.327 . S
C1127 C1131 1.429 . S
C1128 C1111 1.574 . S
C1128 H1122 0.949 . S
C1128 C1132 1.368 . S
C1129 C1110 1.429 . S
C1129 C1123 1.429 . S
C1129 C1130 1.523 . S
C1130 C1111 1.368 . S
C1130 C1124 1.368 . S
C1130 C1129 1.523 . S
C1131 C1115 1.429 . S
C1131 C1127 1.429 . S
C1131 C1132 1.523 . S
C1132 C1116 1.368 . S
C1132 C1128 1.368 . S
C1132 C1131 1.523 . S
H1133 C1108 0.950 . S
H1134 C1110 0.950 . S
H1135 C1111 0.949 . S
H1136 C1113 0.950 . S
H1137 C1115 0.950 . S
C1138 C1139 1.349 . S
C1138 C1140 1.327 . S
C1138 H1163 0.950 . S
C1139 C1138 1.349 . S
C1139 C1155 1.349 . S
C1140 C1138 1.327 . S
C1140 C1159 1.429 . S
C1140 H1164 0.950 . S
C1141 C1158 1.574 . S
C1141 C1160 1.368 . S
C1141 H1165 0.949 . S
H1142 C1146 0.949 . S
C1143 C1144 1.349 . S
C1143 C1145 1.327 . S
C1143 H1166 0.950 . S
C1144 C1143 1.349 . S
C1144 C1156 1.349 . S
C1145 C1143 1.327 . S
C1145 C1161 1.429 . S
C1145 H1167 0.950 . S
C1146 H1142 0.949 . S
C1146 C1154 1.574 . S
C1146 C1162 1.368 . S
H1147 C1155 0.950 . S
H1148 C1153 0.950 . S
H1149 C1154 0.949 . S
H1150 C1156 0.950 . S
H1151 C1157 0.950 . S
H1152 C1158 0.949 . S
C1153 H1148 0.950 . S
C1153 C1155 1.327 . S
C1153 C1159 1.429 . S
C1154 C1146 1.574 . S
C1154 H1149 0.949 . S
C1154 C1160 1.368 . S
C1155 C1139 1.349 . S
C1155 H1147 0.950 . S
C1155 C1153 1.327 . S
C1156 C1144 1.349 . S
C1156 H1150 0.950 . S
C1156 C1157 1.327 . S
C1157 H1151 0.950 . S
C1157 C1156 1.327 . S
C1157 C1161 1.429 . S
C1158 C1141 1.574 . S
C1158 H1152 0.949 . S
C1158 C1162 1.368 . S
C1159 C1140 1.429 . S
C1159 C1153 1.429 . S
C1159 C1160 1.523 . S
C1160 C1141 1.368 . S
C1160 C1154 1.368 . S
C1160 C1159 1.523 . S
C1161 C1145 1.429 . S
C1161 C1157 1.429 . S
C1161 C1162 1.523 . S
C1162 C1146 1.368 . S
C1162 C1158 1.368 . S
C1162 C1161 1.523 . S
H1163 C1138 0.950 . S
H1164 C1140 0.950 . S
H1165 C1141 0.949 . S
H1166 C1143 0.950 . S
H1167 C1145 0.950 . S
C209 C134 1.801 . S
C214 C4 1.801 . S
C239 C17 1.801 . S
C244 C153 1.801 . S
C269 C108 1.801 . S
C274 C36 1.801 . S
C299 C121 1.801 . S
C304 C43 1.801 . S
C329 C56 1.801 . S
C334 C186 1.801 . S
C359 C199 1.801 . S
C364 C69 1.801 . S
C389 C82 1.801 . S
C394 C166 1.801 . S
C419 C173 1.801 . S
C424 C95 1.801 . S
C449 C135 1.217 . S
C454 C5 1.217 . S
C479 C18 1.218 . S
C484 C146 1.218 . S
C509 C29 1.217 . S
C514 C109 1.217 . S
C539 C44 1.217 . S
C544 C122 1.217 . S
C569 C57 1.217 . S
C574 C187 1.217 . S
C599 C70 1.217 . S
C604 C200 1.217 . S
C629 C159 1.218 . S
C634 C83 1.218 . S
C659 C174 1.217 . S
C664 C96 1.217 . S
C689 C10 1.299 . S
C694 C88 1.299 . S
C719 C23 1.300 . S
C724 C101 1.299 . S
C749 C30 1.299 . S
C754 C62 1.299 . S
C779 C49 1.299 . S
C784 C75 1.299 . S
C809 C114 1.299 . S
C814 C192 1.299 . S
C839 C205 1.299 . S
C844 C127 1.299 . S
C869 C140 1.300 . S
C874 C160 1.299 . S
C899 C179 1.299 . S
C904 C147 1.299 . S
C929 C3 1.201 . S
C934 C198 1.201 . S
C959 C161 1.202 . S
C964 C16 1.202 . S
C989 C172 1.202 . S
C994 C31 1.202 . S
C1019 C185 1.202 . S
C1024 C42 1.202 . S
C1049 C120 1.202 . S
C1054 C55 1.202 . S
C1079 C133 1.202 . S
C1084 C68 1.202 . S
C1109 C81 1.202 . S
C1114 C148 1.202 . S
C1139 C94 1.201 . S
C1144 C107 1.201 . S
