# Generated by pormake.
# Topology rhr, (4)-cn, num edge types: 1
# Building blocks:
#     Node 0, Type 0, BuildingBlock: NAWXER_clean_sbu_0, # of connection points: 4
#     Node 1, Type 0, BuildingBlock: NAWXER_clean_sbu_0, # of connection points: 4
#     Node 2, Type 0, BuildingBlock: NAWXER_clean_sbu_0, # of connection points: 4
#     Node 3, Type 0, BuildingBlock: NAWXER_clean_sbu_0, # of connection points: 4
#     Node 4, Type 0, BuildingBlock: NAWXER_clean_sbu_0, # of connection points: 4
#     Node 5, Type 0, BuildingBlock: NAWXER_clean_sbu_0, # of connection points: 4
#     Node 6, Type 0, BuildingBlock: NAWXER_clean_sbu_0, # of connection points: 4
#     Node 7, Type 0, BuildingBlock: NAWXER_clean_sbu_0, # of connection points: 4
#     Node 8, Type 0, BuildingBlock: NAWXER_clean_sbu_0, # of connection points: 4
#     Node 9, Type 0, BuildingBlock: NAWXER_clean_sbu_0, # of connection points: 4
#     Node 10, Type 0, BuildingBlock: NAWXER_clean_sbu_0, # of connection points: 4
#     Node 11, Type 0, BuildingBlock: NAWXER_clean_sbu_0, # of connection points: 4
#     Node 12, Type 0, BuildingBlock: NAWXER_clean_sbu_0, # of connection points: 4
#     Node 13, Type 0, BuildingBlock: NAWXER_clean_sbu_0, # of connection points: 4
#     Node 14, Type 0, BuildingBlock: NAWXER_clean_sbu_0, # of connection points: 4
#     Node 15, Type 0, BuildingBlock: NAWXER_clean_sbu_0, # of connection points: 4
#     Node 16, Type 0, BuildingBlock: NAWXER_clean_sbu_0, # of connection points: 4
#     Node 17, Type 0, BuildingBlock: NAWXER_clean_sbu_0, # of connection points: 4
#     Node 18, Type 0, BuildingBlock: NAWXER_clean_sbu_0, # of connection points: 4
#     Node 19, Type 0, BuildingBlock: NAWXER_clean_sbu_0, # of connection points: 4
#     Node 20, Type 0, BuildingBlock: NAWXER_clean_sbu_0, # of connection points: 4
#     Node 21, Type 0, BuildingBlock: NAWXER_clean_sbu_0, # of connection points: 4
#     Node 22, Type 0, BuildingBlock: NAWXER_clean_sbu_0, # of connection points: 4
#     Node 23, Type 0, BuildingBlock: NAWXER_clean_sbu_0, # of connection points: 4
#     Edge 24, Type (0, 0), BuildingBlock: XIVTED_clean_linker_0, # of connection points: 2
#     Edge 25, Type (0, 0), BuildingBlock: XIVTED_clean_linker_0, # of connection points: 2
#     Edge 26, Type (0, 0), BuildingBlock: XIVTED_clean_linker_0, # of connection points: 2
#     Edge 27, Type (0, 0), BuildingBlock: XIVTED_clean_linker_0, # of connection points: 2
#     Edge 28, Type (0, 0), BuildingBlock: XIVTED_clean_linker_0, # of connection points: 2
#     Edge 29, Type (0, 0), BuildingBlock: XIVTED_clean_linker_0, # of connection points: 2
#     Edge 30, Type (0, 0), BuildingBlock: XIVTED_clean_linker_0, # of connection points: 2
#     Edge 31, Type (0, 0), BuildingBlock: XIVTED_clean_linker_0, # of connection points: 2
#     Edge 32, Type (0, 0), BuildingBlock: XIVTED_clean_linker_0, # of connection points: 2
#     Edge 33, Type (0, 0), BuildingBlock: XIVTED_clean_linker_0, # of connection points: 2
#     Edge 34, Type (0, 0), BuildingBlock: XIVTED_clean_linker_0, # of connection points: 2
#     Edge 35, Type (0, 0), BuildingBlock: XIVTED_clean_linker_0, # of connection points: 2
#     Edge 36, Type (0, 0), BuildingBlock: XIVTED_clean_linker_0, # of connection points: 2
#     Edge 37, Type (0, 0), BuildingBlock: XIVTED_clean_linker_0, # of connection points: 2
#     Edge 38, Type (0, 0), BuildingBlock: XIVTED_clean_linker_0, # of connection points: 2
#     Edge 39, Type (0, 0), BuildingBlock: XIVTED_clean_linker_0, # of connection points: 2
#     Edge 40, Type (0, 0), BuildingBlock: XIVTED_clean_linker_0, # of connection points: 2
#     Edge 41, Type (0, 0), BuildingBlock: XIVTED_clean_linker_0, # of connection points: 2
#     Edge 42, Type (0, 0), BuildingBlock: XIVTED_clean_linker_0, # of connection points: 2
#     Edge 43, Type (0, 0), BuildingBlock: XIVTED_clean_linker_0, # of connection points: 2
#     Edge 44, Type (0, 0), BuildingBlock: XIVTED_clean_linker_0, # of connection points: 2
#     Edge 45, Type (0, 0), BuildingBlock: XIVTED_clean_linker_0, # of connection points: 2
#     Edge 46, Type (0, 0), BuildingBlock: XIVTED_clean_linker_0, # of connection points: 2
#     Edge 47, Type (0, 0), BuildingBlock: XIVTED_clean_linker_0, # of connection points: 2
#     Edge 48, Type (0, 0), BuildingBlock: XIVTED_clean_linker_0, # of connection points: 2
#     Edge 49, Type (0, 0), BuildingBlock: XIVTED_clean_linker_0, # of connection points: 2
#     Edge 50, Type (0, 0), BuildingBlock: XIVTED_clean_linker_0, # of connection points: 2
#     Edge 51, Type (0, 0), BuildingBlock: XIVTED_clean_linker_0, # of connection points: 2
#     Edge 52, Type (0, 0), BuildingBlock: XIVTED_clean_linker_0, # of connection points: 2
#     Edge 53, Type (0, 0), BuildingBlock: XIVTED_clean_linker_0, # of connection points: 2
#     Edge 54, Type (0, 0), BuildingBlock: XIVTED_clean_linker_0, # of connection points: 2
#     Edge 55, Type (0, 0), BuildingBlock: XIVTED_clean_linker_0, # of connection points: 2
#     Edge 56, Type (0, 0), BuildingBlock: XIVTED_clean_linker_0, # of connection points: 2
#     Edge 57, Type (0, 0), BuildingBlock: XIVTED_clean_linker_0, # of connection points: 2
#     Edge 58, Type (0, 0), BuildingBlock: XIVTED_clean_linker_0, # of connection points: 2
#     Edge 59, Type (0, 0), BuildingBlock: XIVTED_clean_linker_0, # of connection points: 2
#     Edge 60, Type (0, 0), BuildingBlock: XIVTED_clean_linker_0, # of connection points: 2
#     Edge 61, Type (0, 0), BuildingBlock: XIVTED_clean_linker_0, # of connection points: 2
#     Edge 62, Type (0, 0), BuildingBlock: XIVTED_clean_linker_0, # of connection points: 2
#     Edge 63, Type (0, 0), BuildingBlock: XIVTED_clean_linker_0, # of connection points: 2
#     Edge 64, Type (0, 0), BuildingBlock: XIVTED_clean_linker_0, # of connection points: 2
#     Edge 65, Type (0, 0), BuildingBlock: XIVTED_clean_linker_0, # of connection points: 2
#     Edge 66, Type (0, 0), BuildingBlock: XIVTED_clean_linker_0, # of connection points: 2
#     Edge 67, Type (0, 0), BuildingBlock: XIVTED_clean_linker_0, # of connection points: 2
#     Edge 68, Type (0, 0), BuildingBlock: XIVTED_clean_linker_0, # of connection points: 2
#     Edge 69, Type (0, 0), BuildingBlock: XIVTED_clean_linker_0, # of connection points: 2
#     Edge 70, Type (0, 0), BuildingBlock: XIVTED_clean_linker_0, # of connection points: 2
#     Edge 71, Type (0, 0), BuildingBlock: XIVTED_clean_linker_0, # of connection points: 2
# Relax obj value: 0.003
# Max RMSD: 0.009
# Mean RMSD: 0.009
data_MOF--net-rhr--node1-NAWXER_clean_sbu_0--edge1-XIVTED_clean_linker_0
_symmetry_space_group_name_H-M    P1
_symmetry_Int_Tables_number       1
_symmetry_cell_setting            triclinic
loop_
_symmetry_equiv_pos_as_xyz
'x, y, z'
_cell_length_a     50.848079
_cell_length_b     50.815393
_cell_length_c     50.695466
_cell_angle_alpha  89.983389
_cell_angle_beta   89.814048
_cell_angle_gamma 90.193986
loop_
_atom_site_label
_atom_site_type_symbol
_atom_site_fract_x
_atom_site_fract_y
_atom_site_fract_z
_atom_type_partial_charge
C0 C 0.29897 0.03024 0.35564 0.0
C1 C 0.35057 0.96297 0.31258 0.0
O2 O 0.29285 0.01738 0.33506 0.0
Zn3 Zn 0.32425 0.99642 0.33427 0.0
O4 O 0.32042 0.02523 0.36789 0.0
Zn5 Zn 0.35341 0.99918 0.3644 0.0
O6 O 0.3822 0.02504 0.36042 0.0
O7 O 0.3543 0.02563 0.32728 0.0
O8 O 0.36152 0.97114 0.33384 0.0
O9 O 0.32876 0.97264 0.30537 0.0
O10 O 0.31779 0.97088 0.36729 0.0
O11 O 0.34975 0.97654 0.39593 0.0
C12 C 0.37496 0.03485 0.33848 0.0
C13 C 0.32849 0.96499 0.38936 0.0
C14 C 0.03395 0.35707 0.28748 0.0
C15 C 0.9881 0.29245 0.34204 0.0
O16 O 0.02819 0.33363 0.28073 0.0
Zn17 Zn 0.01208 0.32349 0.31414 0.0
O18 O 0.0285 0.36505 0.31083 0.0
Zn19 Zn 0.01033 0.35151 0.34611 0.0
O20 O 0.03901 0.35216 0.3717 0.0
O21 O 0.0447 0.32253 0.34046 0.0
O22 O 0.99186 0.31465 0.3534 0.0
O23 O 0.99699 0.28854 0.31889 0.0
O24 O 0.97822 0.34866 0.31469 0.0
O25 O 0.98073 0.37576 0.34864 0.0
C26 C 0.05284 0.334 0.36143 0.0
C27 C 0.96854 0.36762 0.32829 0.0
C28 C 0.66033 0.95713 0.28187 0.0
C29 C 0.70647 0.0238 0.33597 0.0
O30 O 0.64993 0.96126 0.30451 0.0
Zn31 Zn 0.65573 0.98525 0.33844 0.0
O32 O 0.68137 0.96926 0.27554 0.0
Zn33 Zn 0.68557 0.98954 0.30844 0.0
O34 O 0.69384 0.96112 0.33825 0.0
O35 O 0.66076 0.95995 0.36654 0.0
O36 O 0.71427 0.01478 0.31383 0.0
O37 O 0.68552 0.01436 0.34656 0.0
O38 O 0.62417 0.00665 0.33724 0.0
O39 O 0.6532 0.01558 0.30577 0.0
C40 C 0.68326 0.95178 0.35928 0.0
C41 C 0.63132 0.02019 0.31734 0.0
C42 C 0.05739 0.68932 0.29601 0.0
C43 C 0.98627 0.73979 0.33992 0.0
O44 O 0.0479 0.67864 0.31686 0.0
Zn45 Zn 0.01818 0.68548 0.34577 0.0
O46 O 0.04817 0.71124 0.28814 0.0
Zn47 Zn 0.02149 0.71578 0.31605 0.0
O48 O 0.04431 0.72157 0.35057 0.0
O49 O 0.03845 0.68811 0.37788 0.0
O50 O 0.99843 0.74687 0.31904 0.0
O51 O 0.99177 0.71765 0.35059 0.0
O52 O 0.99465 0.65614 0.34016 0.0
O53 O 0.99534 0.68424 0.30688 0.0
C54 C 0.04891 0.7103 0.37266 0.0
C55 C 0.98699 0.66277 0.31725 0.0
C56 C 0.33305 0.04956 0.63476 0.0
C57 C 0.38194 0.9818 0.68472 0.0
O58 O 0.35364 0.03765 0.62692 0.0
Zn59 Zn 0.35891 0.01606 0.65882 0.0
O60 O 0.32378 0.04452 0.65773 0.0
Zn61 Zn 0.33194 0.02043 0.69106 0.0
O62 O 0.3389 0.04574 0.71823 0.0
O63 O 0.36951 0.04533 0.68725 0.0
O64 O 0.36206 0.9915 0.6969 0.0
O65 O 0.3878 0.9905 0.66186 0.0
O66 O 0.32514 0.99039 0.65877 0.0
O67 O 0.30015 0.99992 0.69332 0.0
C68 C 0.36026 0.05479 0.7088 0.0
C69 C 0.30442 0.9863 0.67274 0.0
C70 C 0.03298 0.33143 0.70792 0.0
C71 C 0.95789 0.29074 0.66035 0.0
O72 O 0.02524 0.34369 0.68731 0.0
Zn73 Zn 0.99601 0.34134 0.65741 0.0
O74 O 0.02112 0.31042 0.71503 0.0
Zn75 Zn 0.99499 0.30969 0.68629 0.0
O76 O 0.01874 0.3031 0.65264 0.0
O77 O 0.01801 0.33767 0.6261 0.0
O78 O 0.96833 0.28185 0.68136 0.0
O79 O 0.96647 0.31232 0.65046 0.0
O80 O 0.97544 0.37283 0.66434 0.0
O81 O 0.9727 0.34328 0.69625 0.0
C82 C 0.02598 0.31451 0.63132 0.0
C83 C 0.96688 0.36591 0.68694 0.0
C84 C 0.69694 0.05269 0.74121 0.0
C85 C 0.74678 0.98504 0.69199 0.0
O86 O 0.6866 0.04561 0.71936 0.0
Zn87 Zn 0.69336 0.01873 0.68816 0.0
O88 O 0.71902 0.04312 0.74802 0.0
Zn89 Zn 0.72399 0.01945 0.7175 0.0
O90 O 0.73064 0.04391 0.68403 0.0
O91 O 0.69677 0.04031 0.65711 0.0
O92 O 0.75451 0.99607 0.7132 0.0
O93 O 0.72468 0.9915 0.68189 0.0
O94 O 0.66317 0.99606 0.69257 0.0
O95 O 0.69255 0.99263 0.72451 0.0
C96 C 0.71951 0.04951 0.6621 0.0
C97 C 0.67054 0.98591 0.71425 0.0
C98 C 0.95445 0.62699 0.67944 0.0
C99 C 0.03697 0.67143 0.65148 0.0
O100 O 0.96897 0.61973 0.66021 0.0
Zn101 Zn 0.99604 0.64725 0.66447 0.0
O102 O 0.96157 0.64664 0.69361 0.0
Zn103 Zn 0.99262 0.67511 0.6967 0.0
O104 O 0.97303 0.70756 0.69147 0.0
O105 O 0.97306 0.68125 0.6567 0.0
O106 O 0.02604 0.68123 0.67203 0.0
O107 O 0.0265 0.65144 0.64054 0.0
O108 O 0.01296 0.63525 0.70067 0.0
O109 O 0.00779 0.66605 0.73091 0.0
C110 C 0.9655 0.70242 0.66809 0.0
C111 C 0.0161 0.64337 0.72438 0.0
C112 C 0.29859 0.33819 0.05903 0.0
C113 C 0.34128 0.2822 0.99173 0.0
O114 O 0.31747 0.34931 0.0464 0.0
Zn115 Zn 0.3442 0.34101 0.01464 0.0
O116 O 0.2916 0.31487 0.05288 0.0
Zn117 Zn 0.31747 0.30956 0.02468 0.0
O118 O 0.35315 0.31108 0.04636 0.0
O119 O 0.37801 0.34409 0.03203 0.0
O120 O 0.32198 0.27555 1.00637 0.0
O121 O 0.35019 0.30576 0.99291 0.0
O122 O 0.33391 0.36637 0.98826 0.0
O123 O 0.30309 0.33661 0.99589 0.0
C124 C 0.37439 0.3246 0.04738 0.0
C125 C 0.31091 0.3575 0.98398 0.0
C126 C 0.72179 0.35909 0.04675 0.0
C127 C 0.6604 0.31054 0.99197 0.0
O128 O 0.72465 0.3358 0.03815 0.0
Zn129 Zn 0.69047 0.33276 0.02155 0.0
O130 O 0.69996 0.37113 0.04349 0.0
Zn131 Zn 0.66256 0.36397 0.02603 0.0
O132 O 0.63753 0.36122 0.05591 0.0
O133 O 0.66407 0.32725 0.05379 0.0
O134 O 0.65109 0.33235 1.00056 0.0
O135 O 0.6827 0.30253 0.99995 0.0
O136 O 0.6916 0.3628 0.9914 0.0
O137 O 0.66177 0.39304 1.00061 0.0
C138 C 0.64486 0.33909 0.065 0.0
C139 C 0.67984 0.38429 0.98548 0.0
C140 C 0.62277 0.66991 0.03985 0.0
C141 C 0.68593 0.63172 0.97897 0.0
O142 O 0.64384 0.6836 0.03742 0.0
Zn143 Zn 0.67935 0.68323 0.01485 0.0
O144 O 0.61931 0.64946 0.02584 0.0
Zn145 Zn 0.65315 0.65067 0.0083 0.0
O146 O 0.6802 0.64604 0.04052 0.0
O147 O 0.70569 0.68128 0.04275 0.0
O148 O 0.66337 0.62256 0.98494 0.0
O149 O 0.69363 0.65366 0.98874 0.0
O150 O 0.67584 0.71413 0.99166 0.0
O151 O 0.64838 0.68225 0.98122 0.0
C152 C 0.69903 0.65872 0.05157 0.0
C153 C 0.65787 0.70517 0.97668 0.0
C154 C 0.29164 0.67353 0.9361 0.0
C155 C 0.3279 0.72794 0.00793 0.0
O156 O 0.31165 0.66348 0.94763 0.0
Zn157 Zn 0.33778 0.67242 0.97961 0.0
O158 O 0.28292 0.69576 0.94371 0.0
Zn159 Zn 0.3084 0.70173 0.97178 0.0
O160 O 0.34418 0.7059 0.95042 0.0
O161 O 0.3719 0.67479 0.96281 0.0
O162 O 0.30887 0.73421 0.99298 0.0
O163 O 0.33925 0.70572 1.00488 0.0
O164 O 0.33035 0.64418 1.00391 0.0
O165 O 0.29699 0.67145 0.9988 0.0
C166 C 0.36675 0.69493 0.9489 0.0
C167 C 0.30678 0.65068 0.00917 0.0
C168 C 0.81167 0.52969 0.76836 0.0
C169 C 0.76821 0.46992 0.83172 0.0
O170 O 0.82413 0.52635 0.78999 0.0
Zn171 Zn 0.82132 0.50375 0.82539 0.0
O172 O 0.79011 0.51751 0.76432 0.0
Zn173 Zn 0.78948 0.4982 0.79788 0.0
O174 O 0.78451 0.52879 0.82651 0.0
O175 O 0.81985 0.53108 0.85178 0.0
O176 O 0.76076 0.47404 0.80812 0.0
O177 O 0.79012 0.47948 0.83961 0.0
O178 O 0.85186 0.48095 0.82246 0.0
O179 O 0.82233 0.4737 0.79152 0.0
C180 C 0.79684 0.53905 0.84602 0.0
C181 C 0.84493 0.46914 0.80148 0.0
C182 C 0.48419 0.82397 0.86091 0.0
C183 C 0.54999 0.88554 0.82898 0.0
O184 O 0.4954 0.8166 0.83951 0.0
Zn185 Zn 0.52539 0.82962 0.81335 0.0
O186 O 0.49044 0.84578 0.87151 0.0
Zn187 Zn 0.51647 0.85611 0.84569 0.0
O188 O 0.49417 0.8626 0.81083 0.0
O189 O 0.50682 0.83518 0.77959 0.0
O190 O 0.53487 0.88945 0.84862 0.0
O191 O 0.54814 0.86449 0.81528 0.0
O192 O 0.5523 0.80236 0.81915 0.0
O193 O 0.54686 0.82843 0.85354 0.0
C194 C 0.49231 0.85418 0.78711 0.0
C195 C 0.55865 0.80909 0.84253 0.0
C196 C 0.11711 0.51882 0.83539 0.0
C197 C 0.18325 0.46488 0.8792 0.0
O198 O 0.13718 0.51351 0.82103 0.0
Zn199 Zn 0.17372 0.49315 0.82363 0.0
O200 O 0.11563 0.51028 0.85895 0.0
Zn201 Zn 0.14897 0.49147 0.85804 0.0
O202 O 0.17565 0.52414 0.85654 0.0
O203 O 0.19936 0.52178 0.82007 0.0
O204 O 0.16109 0.47178 0.88857 0.0
O205 O 0.18962 0.47162 0.8557 0.0
O206 O 0.16932 0.46649 0.79631 0.0
O207 O 0.14154 0.46111 0.82938 0.0
C208 C 0.19357 0.53364 0.84142 0.0
C209 C 0.15041 0.45374 0.80685 0.0
C210 C 0.48136 0.16461 0.81516 0.0
C211 C 0.54674 0.21022 0.86813 0.0
O212 O 0.49259 0.18623 0.80917 0.0
Zn213 Zn 0.51424 0.18845 0.84046 0.0
O214 O 0.48779 0.15235 0.83626 0.0
Zn215 Zn 0.51353 0.15646 0.86906 0.0
O216 O 0.48763 0.1588 0.89849 0.0
O217 O 0.48544 0.19203 0.87068 0.0
O218 O 0.53949 0.188 0.87764 0.0
O219 O 0.53649 0.21879 0.84694 0.0
O220 O 0.54234 0.15849 0.83361 0.0
O221 O 0.53921 0.12749 0.86385 0.0
C222 C 0.47678 0.18022 0.89128 0.0
C223 C 0.55044 0.13672 0.84327 0.0
C224 C 0.83148 0.47759 0.15371 0.0
C225 C 0.87466 0.54516 0.20605 0.0
O226 O 0.81815 0.48418 0.17417 0.0
Zn227 Zn 0.82042 0.51262 0.20538 0.0
O228 O 0.85262 0.48977 0.14802 0.0
Zn229 Zn 0.85274 0.51288 0.17825 0.0
O230 O 0.85567 0.4857 0.2107 0.0
O231 O 0.82083 0.4902 0.23661 0.0
O232 O 0.88271 0.53551 0.18434 0.0
O233 O 0.85213 0.53841 0.21526 0.0
O234 O 0.79092 0.53628 0.19824 0.0
O235 O 0.82266 0.54028 0.16886 0.0
C236 C 0.84272 0.47918 0.23147 0.0
C237 C 0.80016 0.54734 0.17769 0.0
C238 C 0.53007 0.85851 0.17144 0.0
C239 C 0.4518 0.8238 0.12496 0.0
O240 O 0.52065 0.86675 0.14975 0.0
Zn241 Zn 0.49097 0.84173 0.14692 0.0
O242 O 0.51903 0.8389 0.1829 0.0
Zn243 Zn 0.48663 0.81288 0.17726 0.0
O244 O 0.50318 0.77902 0.1742 0.0
O245 O 0.50908 0.80437 0.1392 0.0
O246 O 0.45758 0.81158 0.14633 0.0
O247 O 0.46605 0.84315 0.11757 0.0
O248 O 0.46592 0.85251 0.17934 0.0
O249 O 0.46556 0.81968 0.20797 0.0
C250 C 0.51217 0.78229 0.15103 0.0
C251 C 0.45791 0.84246 0.20116 0.0
C252 C 0.18815 0.54163 0.12328 0.0
C253 C 0.12794 0.48795 0.17537 0.0
O254 O 0.19692 0.536 0.14623 0.0
Zn255 Zn 0.18471 0.51536 0.18059 0.0
O256 O 0.1653 0.53396 0.11654 0.0
Zn257 Zn 0.15682 0.51538 0.14884 0.0
O258 O 0.15195 0.54688 0.17684 0.0
O259 O 0.18251 0.54292 0.20732 0.0
O260 O 0.12404 0.49587 0.15191 0.0
O261 O 0.14918 0.49413 0.18745 0.0
O262 O 0.21124 0.48755 0.18221 0.0
O263 O 0.1844 0.48355 0.14832 0.0
C264 C 0.16279 0.55521 0.19809 0.0
C265 C 0.2039 0.47501 0.16175 0.0
C266 C 0.54064 0.23138 0.19439 0.0
C267 C 0.4727 0.17768 0.24068 0.0
O268 O 0.53349 0.21036 0.18241 0.0
Zn269 Zn 0.50584 0.17883 0.18656 0.0
O270 O 0.5302 0.23709 0.21656 0.0
Zn271 Zn 0.50636 0.20633 0.21892 0.0
O272 O 0.53262 0.17394 0.22205 0.0
O273 O 0.52776 0.14799 0.18732 0.0
O274 O 0.48315 0.19873 0.24951 0.0
O275 O 0.4792 0.16943 0.21772 0.0
O276 O 0.48347 0.18524 0.15667 0.0
O277 O 0.4803 0.21575 0.18756 0.0
C278 C 0.53855 0.15297 0.20937 0.0
C279 C 0.47382 0.2068 0.16486 0.0
C280 C 0.85768 0.81033 0.54545 0.0
C281 C 0.80297 0.85645 0.48199 0.0
O282 O 0.83582 0.80278 0.53592 0.0
Zn283 Zn 0.8302 0.83261 0.51323 0.0
O284 O 0.8681 0.83193 0.53745 0.0
Zn285 Zn 0.85914 0.86326 0.51059 0.0
O286 O 0.85705 0.8932 0.53529 0.0
O287 O 0.82589 0.86357 0.54136 0.0
O288 O 0.82476 0.86838 0.48661 0.0
O289 O 0.79775 0.83493 0.4937 0.0
O290 O 0.85918 0.827 0.48302 0.0
O291 O 0.88713 0.86018 0.48376 0.0
C292 C 0.83698 0.8852 0.54813 0.0
C293 C 0.87963 0.8385 0.47361 0.0
C294 C 0.19407 0.85957 0.57662 0.0
C295 C 0.15382 0.81377 0.50282 0.0
O296 O 0.20696 0.83931 0.56893 0.0
Zn297 Zn 0.20521 0.80981 0.53909 0.0
O298 O 0.17321 0.86622 0.56459 0.0
Zn299 Zn 0.17367 0.83815 0.53886 0.0
O300 O 0.16677 0.80396 0.56261 0.0
O301 O 0.20059 0.77696 0.55935 0.0
O302 O 0.14561 0.83492 0.51342 0.0
O303 O 0.17545 0.8035 0.51046 0.0
O304 O 0.2369 0.81799 0.51778 0.0
O305 O 0.20642 0.84851 0.51457 0.0
C306 C 0.1778 0.78212 0.56851 0.0
C307 C 0.22918 0.8398 0.50819 0.0
C308 C 0.15578 0.20964 0.52751 0.0
C309 C 0.19848 0.16129 0.45723 0.0
O310 O 0.17825 0.21949 0.5215 0.0
Zn311 Zn 0.21004 0.21094 0.4951 0.0
O312 O 0.14839 0.18822 0.51693 0.0
Zn313 Zn 0.17789 0.1838 0.49375 0.0
O314 O 0.20916 0.17196 0.51901 0.0
O315 O 0.24023 0.20223 0.51744 0.0
O316 O 0.1768 0.15567 0.46848 0.0
O317 O 0.21215 0.18096 0.46531 0.0
O318 O 0.20947 0.24317 0.47402 0.0
O319 O 0.1746 0.21757 0.46861 0.0
C320 C 0.23186 0.18026 0.52614 0.0
C321 C 0.18742 0.2386 0.46305 0.0
C322 C 0.85304 0.19232 0.52567 0.0
C323 C 0.80928 0.14633 0.45135 0.0
O324 O 0.8649 0.17169 0.51742 0.0
Zn325 Zn 0.86113 0.14201 0.48788 0.0
O326 O 0.83212 0.19974 0.51409 0.0
Zn327 Zn 0.82988 0.17121 0.4878 0.0
O328 O 0.82307 0.13781 0.51141 0.0
O329 O 0.85706 0.11069 0.50994 0.0
O330 O 0.80092 0.16717 0.46257 0.0
O331 O 0.83089 0.13597 0.45906 0.0
O332 O 0.89202 0.14805 0.46546 0.0
O333 O 0.86208 0.17928 0.46274 0.0
C334 C 0.83413 0.11637 0.51834 0.0
C335 C 0.88421 0.16968 0.45556 0.0
H336 H 0.17875 0.1145 0.43814 0.0
H337 H 0.3153 0.07528 0.37843 0.0
H338 H 0.24286 0.16967 0.42835 0.0
H339 H 0.24508 0.03373 0.35489 0.0
H340 H 0.28821 0.10964 0.39777 0.0
H341 H 0.20117 0.0842 0.40786 0.0
C342 C 0.19728 0.12041 0.42934 0.0
C343 C 0.20923 0.1444 0.43618 0.0
C344 C 0.27863 0.0932 0.38812 0.0
C345 C 0.23483 0.10998 0.40193 0.0
C346 C 0.29409 0.07352 0.37726 0.0
C347 C 0.2823 0.05168 0.36531 0.0
C348 C 0.25115 0.09074 0.3876 0.0
C349 C 0.25478 0.05039 0.36401 0.0
C350 C 0.20999 0.10317 0.41206 0.0
C351 C 0.23314 0.15118 0.42406 0.0
N352 N 0.23999 0.06953 0.3755 0.0
N353 N 0.24532 0.1339 0.40785 0.0
H354 H 0.94927 0.30155 0.37692 0.0
H355 H 0.93286 0.15772 0.43344 0.0
H356 H 0.99152 0.23814 0.33948 0.0
H357 H 0.87127 0.21612 0.43306 0.0
H358 H 0.95847 0.18582 0.40284 0.0
H359 H 0.92449 0.26968 0.40258 0.0
C360 C 0.95328 0.28081 0.37407 0.0
C361 C 0.97241 0.27243 0.35606 0.0
C362 C 0.93921 0.19212 0.4094 0.0
C363 C 0.94413 0.23567 0.38564 0.0
C364 C 0.92469 0.17624 0.42689 0.0
C365 C 0.90003 0.1847 0.43613 0.0
C366 C 0.92898 0.21657 0.40161 0.0
C367 C 0.89026 0.20878 0.42684 0.0
C368 C 0.93904 0.2626 0.38866 0.0
C369 C 0.97673 0.24529 0.35308 0.0
N370 N 0.90483 0.22387 0.41039 0.0
N371 N 0.9628 0.22771 0.368 0.0
H372 H 0.81457 0.89001 0.44198 0.0
H373 H 0.66816 0.92643 0.40512 0.0
H374 H 0.74945 0.84893 0.47829 0.0
H375 H 0.73367 0.93568 0.35142 0.0
H376 H 0.69646 0.90024 0.43427 0.0
H377 H 0.78424 0.91012 0.4109 0.0
C378 C 0.79384 0.88522 0.4434 0.0
C379 C 0.78448 0.86783 0.46276 0.0
C380 C 0.70441 0.9078 0.41592 0.0
C381 C 0.74956 0.89097 0.42729 0.0
C382 C 0.68833 0.92274 0.39931 0.0
C383 C 0.69859 0.93346 0.37588 0.0
C384 C 0.73094 0.904 0.40916 0.0
C385 C 0.72486 0.928 0.36931 0.0
C386 C 0.77655 0.89659 0.42555 0.0
C387 C 0.75742 0.86219 0.46357 0.0
N388 N 0.74016 0.91396 0.386 0.0
N389 N 0.74078 0.87398 0.44622 0.0
H390 H 0.11374 0.83236 0.47173 0.0
H391 H 0.07433 0.69079 0.41627 0.0
H392 H 0.15723 0.76198 0.49049 0.0
H393 H 0.05819 0.76282 0.37417 0.0
H394 H 0.09941 0.71639 0.44881 0.0
H395 H 0.0873 0.80666 0.44041 0.0
C396 C 0.11772 0.81158 0.46923 0.0
C397 C 0.13782 0.79933 0.48346 0.0
C398 C 0.09036 0.72646 0.43236 0.0
C399 C 0.1076 0.76993 0.44833 0.0
C400 C 0.07609 0.71191 0.41389 0.0
C401 C 0.06446 0.72468 0.39242 0.0
C402 C 0.09245 0.75391 0.42949 0.0
C403 C 0.06716 0.75213 0.39026 0.0
C404 C 0.10271 0.79697 0.45141 0.0
C405 C 0.14213 0.77229 0.47964 0.0
N406 N 0.08077 0.76585 0.40864 0.0
N407 N 0.12706 0.75846 0.46253 0.0
H408 H 0.17817 0.90866 0.59344 0.0
H409 H 0.31685 0.93926 0.65155 0.0
H410 H 0.23591 0.8482 0.60779 0.0
H411 H 0.2505 0.98648 0.67512 0.0
H412 H 0.28674 0.90623 0.63407 0.0
H413 H 0.20277 0.93819 0.62286 0.0
C414 C 0.19568 0.90143 0.60313 0.0
C415 C 0.20531 0.87612 0.59773 0.0
C416 C 0.27867 0.92363 0.64337 0.0
C417 C 0.23343 0.90969 0.63092 0.0
C418 C 0.29585 0.94251 0.65319 0.0
C419 C 0.28603 0.96553 0.66463 0.0
C420 C 0.25147 0.92811 0.64434 0.0
C421 C 0.2587 0.96884 0.66646 0.0
C422 C 0.20965 0.91826 0.61989 0.0
C423 C 0.228 0.86771 0.61092 0.0
N424 N 0.24224 0.95048 0.65592 0.0
N425 N 0.24151 0.88459 0.62652 0.0
H426 H 0.02664 0.26195 0.6242 0.0
H427 H 0.16061 0.26088 0.54312 0.0
H428 H 0.06474 0.33341 0.59819 0.0
H429 H 0.10877 0.1936 0.54868 0.0
H430 H 0.12793 0.28732 0.56646 0.0
H431 H 0.05818 0.23634 0.59886 0.0
C432 C 0.04162 0.27225 0.61293 0.0
C433 C 0.04324 0.29981 0.61332 0.0
C434 C 0.12376 0.26677 0.56258 0.0
C435 C 0.07966 0.27056 0.58454 0.0
C436 C 0.14249 0.25157 0.54952 0.0
C437 C 0.13743 0.22493 0.54404 0.0
C438 C 0.09995 0.25519 0.57046 0.0
C439 C 0.11351 0.21402 0.55253 0.0
C440 C 0.05959 0.25761 0.59846 0.0
C441 C 0.06284 0.31219 0.59826 0.0
N442 N 0.09567 0.2292 0.56538 0.0
N443 N 0.08057 0.29741 0.58465 0.0
H444 H 0.78421 0.09988 0.51284 0.0
H445 H 0.76961 0.06854 0.66601 0.0
H446 H 0.85012 0.09691 0.56593 0.0
H447 H 0.70657 0.05744 0.61015 0.0
H448 H 0.7989 0.08057 0.62984 0.0
H449 H 0.75559 0.08333 0.54788 0.0
C450 C 0.79273 0.09494 0.53177 0.0
C451 C 0.81948 0.09946 0.5366 0.0
C452 C 0.77864 0.07561 0.6255 0.0
C453 C 0.78678 0.08166 0.57706 0.0
C454 C 0.76176 0.06904 0.64618 0.0
C455 C 0.73553 0.06192 0.64113 0.0
C456 C 0.76924 0.07522 0.59954 0.0
C457 C 0.72658 0.06286 0.615 0.0
C458 C 0.77637 0.08578 0.55182 0.0
C459 C 0.82963 0.09324 0.56144 0.0
N460 N 0.74346 0.06928 0.59516 0.0
N461 N 0.81313 0.08499 0.58096 0.0
H462 H 0.95931 0.7562 0.67176 0.0
H463 H 0.84793 0.75937 0.56037 0.0
H464 H 0.92955 0.68721 0.63207 0.0
H465 H 0.89761 0.8262 0.57769 0.0
H466 H 0.87158 0.73389 0.59365 0.0
H467 H 0.93041 0.78359 0.64418 0.0
C468 C 0.94652 0.74686 0.65749 0.0
C469 C 0.947 0.71953 0.65388 0.0
C470 C 0.8772 0.75418 0.5902 0.0
C471 C 0.914 0.75036 0.62275 0.0
C472 C 0.86371 0.76871 0.57124 0.0
C473 C 0.87104 0.79481 0.56603 0.0
C474 C 0.89793 0.76594 0.60423 0.0
C475 C 0.89156 0.806 0.58083 0.0
C476 C 0.93018 0.76242 0.64174 0.0
C477 C 0.93007 0.70829 0.63517 0.0
N478 N 0.90434 0.79148 0.59926 0.0
N479 N 0.91429 0.72373 0.62031 0.0
H480 H 0.37375 0.32698 0.10046 0.0
H481 H 0.47047 0.20494 0.11093 0.0
H482 H 0.41878 0.29844 0.0344 0.0
H483 H 0.44278 0.24804 0.17888 0.0
H484 H 0.44996 0.23779 0.08228 0.0
H485 H 0.39914 0.29865 0.12984 0.0
C486 C 0.38977 0.31546 0.09239 0.0
C487 C 0.39476 0.31534 0.06526 0.0
C488 C 0.44838 0.23999 0.10347 0.0
C489 C 0.42272 0.28185 0.09821 0.0
C490 C 0.45972 0.22106 0.1198 0.0
C491 C 0.45823 0.22375 0.1473 0.0
C492 C 0.43527 0.26154 0.11478 0.0
C493 C 0.4444 0.24521 0.15777 0.0
C494 C 0.40399 0.29903 0.10903 0.0
C495 C 0.41495 0.29944 0.0554 0.0
N496 N 0.43344 0.26326 0.1415 0.0
N497 N 0.428 0.28294 0.07186 0.0
H498 H 0.80597 0.43315 0.16921 0.0
H499 H 0.73857 0.40828 0.03561 0.0
H500 H 0.83402 0.4739 0.09994 0.0
H501 H 0.75384 0.34226 0.08665 0.0
H502 H 0.77135 0.43416 0.05972 0.0
H503 H 0.78464 0.40046 0.1408 0.0
C504 C 0.80786 0.43499 0.14799 0.0
C505 C 0.82156 0.45625 0.13679 0.0
C506 C 0.76786 0.41388 0.06535 0.0
C507 C 0.79692 0.41941 0.10441 0.0
C508 C 0.74912 0.39921 0.05176 0.0
C509 C 0.74361 0.37325 0.05933 0.0
C510 C 0.78046 0.40276 0.0872 0.0
C511 C 0.75771 0.36224 0.08028 0.0
C512 C 0.79587 0.41629 0.13186 0.0
C513 C 0.82362 0.45774 0.10926 0.0
N514 N 0.77518 0.37729 0.09395 0.0
N515 N 0.81088 0.43985 0.09392 0.0
H516 H 0.5698 0.67461 0.03246 0.0
H517 H 0.54382 0.74391 0.17148 0.0
H518 H 0.63108 0.68581 0.08999 0.0
H519 H 0.50968 0.77143 0.09878 0.0
H520 H 0.56776 0.71003 0.1464 0.0
H521 H 0.53891 0.69747 0.06208 0.0
C522 C 0.57648 0.68124 0.05162 0.0
C523 C 0.60288 0.67864 0.05889 0.0
C524 C 0.5547 0.72332 0.13612 0.0
C525 C 0.56804 0.70422 0.09258 0.0
C526 C 0.54113 0.74255 0.15033 0.0
C527 C 0.52519 0.7606 0.13702 0.0
C528 C 0.5516 0.72184 0.10865 0.0
C529 C 0.52219 0.75809 0.10964 0.0
C530 C 0.559 0.69434 0.06835 0.0
C531 C 0.61083 0.68772 0.08373 0.0
N532 N 0.5353 0.73904 0.09631 0.0
N533 N 0.59347 0.70022 0.09973 0.0
H534 H 0.17407 0.56884 0.07865 0.0
H535 H 0.32156 0.61067 0.04235 0.0
H536 H 0.2411 0.5483 0.12641 0.0
H537 H 0.25342 0.6522 0.01368 0.0
H538 H 0.29248 0.58281 0.06916 0.0
H539 H 0.20328 0.59476 0.04996 0.0
C540 C 0.1949 0.56968 0.083 0.0
C541 C 0.20516 0.5566 0.10501 0.0
C542 C 0.28397 0.59808 0.057 0.0
C543 C 0.23854 0.58588 0.07237 0.0
C544 C 0.30053 0.61393 0.04171 0.0
C545 C 0.28991 0.63387 0.02593 0.0
C546 C 0.25664 0.60199 0.05615 0.0
C547 C 0.26249 0.63721 0.02577 0.0
C548 C 0.21151 0.58452 0.06674 0.0
C549 C 0.23231 0.55832 0.10979 0.0
N550 N 0.24679 0.62137 0.04057 0.0
N551 N 0.24806 0.57265 0.09358 0.0
H552 H 0.36245 0.71198 0.89863 0.0
H553 H 0.47554 0.81714 0.91376 0.0
H554 H 0.41568 0.7097 0.96457 0.0
H555 H 0.45209 0.78849 0.83722 0.0
H556 H 0.44906 0.78212 0.93439 0.0
H557 H 0.39183 0.74327 0.8764 0.0
C558 C 0.38073 0.71761 0.90805 0.0
C559 C 0.38702 0.70813 0.93317 0.0
C560 C 0.44975 0.78364 0.91309 0.0
C561 C 0.41981 0.74463 0.90865 0.0
C562 C 0.46447 0.80376 0.90137 0.0
C563 C 0.46581 0.80566 0.87382 0.0
C564 C 0.43597 0.76581 0.89706 0.0
C565 C 0.45151 0.78763 0.85856 0.0
C566 C 0.39732 0.73553 0.89551 0.0
C567 C 0.41054 0.7163 0.94495 0.0
N568 N 0.43702 0.76851 0.87039 0.0
N569 N 0.42597 0.73455 0.93276 0.0
H570 H 0.25768 0.35104 0.98119 0.0
H571 H 0.23585 0.45986 0.87067 0.0
H572 H 0.32129 0.3979 0.94937 0.0
H573 H 0.17385 0.43476 0.92341 0.0
H574 H 0.2671 0.4335 0.89566 0.0
H575 H 0.22643 0.37742 0.95613 0.0
C576 C 0.26513 0.36672 0.96874 0.0
C577 C 0.2922 0.37224 0.96734 0.0
C578 C 0.24669 0.43381 0.90182 0.0
C579 C 0.25642 0.40252 0.93867 0.0
C580 C 0.22878 0.44877 0.88753 0.0
C581 C 0.20216 0.44946 0.89495 0.0
C582 C 0.2379 0.41905 0.9235 0.0
C583 C 0.19419 0.43483 0.91707 0.0
C584 C 0.24722 0.38189 0.95462 0.0
C585 C 0.30062 0.39296 0.95104 0.0
N586 N 0.21198 0.42004 0.93047 0.0
N587 N 0.28279 0.4073 0.93725 0.0
H588 H 0.58431 0.19068 0.90033 0.0
H589 H 0.6203 0.32895 0.96188 0.0
H590 H 0.55503 0.26368 0.86852 0.0
H591 H 0.6672 0.25955 0.97529 0.0
H592 H 0.59563 0.30527 0.92827 0.0
H593 H 0.61467 0.21536 0.92805 0.0
C594 C 0.58443 0.21197 0.89907 0.0
C595 C 0.56696 0.22525 0.88237 0.0
C596 C 0.61142 0.29526 0.93843 0.0
C597 C 0.6015 0.25357 0.91422 0.0
C598 C 0.62538 0.30866 0.9578 0.0
C599 C 0.64565 0.29606 0.97162 0.0
C600 C 0.61749 0.26893 0.93304 0.0
C601 C 0.65161 0.26992 0.96521 0.0
C602 C 0.60184 0.22601 0.91482 0.0
C603 C 0.56816 0.25276 0.88121 0.0
N604 N 0.63739 0.2571 0.94652 0.0
N605 N 0.58491 0.26609 0.89728 0.0
H606 H 0.73909 0.63659 0.9742 0.0
H607 H 0.74599 0.55477 0.84122 0.0
H608 H 0.67224 0.59598 0.94103 0.0
H609 H 0.81387 0.56317 0.89163 0.0
H610 H 0.71951 0.57755 0.87393 0.0
H611 H 0.76745 0.61603 0.94103 0.0
C612 C 0.7304 0.62327 0.95997 0.0
C613 C 0.70328 0.61795 0.96027 0.0
C614 C 0.74023 0.57454 0.87776 0.0
C615 C 0.73547 0.59489 0.9222 0.0
C616 C 0.75549 0.56174 0.859 0.0
C617 C 0.78224 0.55685 0.86376 0.0
C618 C 0.75176 0.58286 0.90137 0.0
C619 C 0.79334 0.56646 0.88719 0.0
C620 C 0.7466 0.61158 0.94114 0.0
C621 C 0.69305 0.6005 0.94153 0.0
N622 N 0.77799 0.579 0.90524 0.0
N623 N 0.70915 0.58975 0.92305 0.0
H624 H 0.04458 0.35113 0.23414 0.0
H625 H 0.11416 0.4919 0.22636 0.0
H626 H 0.05032 0.40663 0.29844 0.0
H627 H 0.09945 0.44586 0.1565 0.0
H628 H 0.08891 0.46052 0.25224 0.0
H629 H 0.06377 0.38458 0.2045 0.0
C630 C 0.04989 0.37023 0.24201 0.0
C631 C 0.04598 0.376 0.26884 0.0
C632 C 0.09083 0.45725 0.23121 0.0
C633 C 0.06752 0.41415 0.23524 0.0
C634 C 0.10519 0.47526 0.21645 0.0
C635 C 0.1088 0.47136 0.18938 0.0
C636 C 0.08035 0.43476 0.21897 0.0
C637 C 0.09683 0.44953 0.17739 0.0
C638 C 0.06064 0.38931 0.2251 0.0
C639 C 0.053 0.40112 0.27797 0.0
N640 N 0.08337 0.43171 0.19238 0.0
N641 N 0.06342 0.4191 0.26127 0.0
H642 H 0.09386 0.50944 0.78898 0.0
H643 H 0.0292 0.65219 0.77681 0.0
H644 H 0.09393 0.56409 0.85394 0.0
H645 H 0.03034 0.59275 0.71592 0.0
H646 H 0.04951 0.62035 0.80725 0.0
H647 H 0.06591 0.53911 0.76419 0.0
C648 C 0.08747 0.52761 0.79816 0.0
C649 C 0.09601 0.5344 0.82344 0.0
C650 C 0.04512 0.6144 0.78723 0.0
C651 C 0.06474 0.56916 0.79485 0.0
C652 C 0.03366 0.63255 0.76986 0.0
C653 C 0.02828 0.62526 0.74367 0.0
C654 C 0.05105 0.58889 0.77826 0.0
C655 C 0.03429 0.5995 0.73577 0.0
C656 C 0.07164 0.54468 0.78397 0.0
C657 C 0.08741 0.55817 0.83451 0.0
N658 N 0.04533 0.58243 0.7529 0.0
N659 N 0.07248 0.57502 0.81994 0.0
H660 H 0.40188 0.08379 0.6905 0.0
H661 H 0.44009 0.13547 0.83196 0.0
H662 H 0.3523 0.07297 0.75899 0.0
H663 H 0.47483 0.16819 0.76141 0.0
H664 H 0.40743 0.11295 0.80514 0.0
H665 H 0.42854 0.11523 0.71535 0.0
C666 C 0.39648 0.08817 0.71071 0.0
C667 C 0.37503 0.0755 0.72283 0.0
C668 C 0.42197 0.12526 0.79545 0.0
C669 C 0.40549 0.11132 0.7513 0.0
C670 C 0.4407 0.138 0.81074 0.0
C671 C 0.46031 0.15342 0.79878 0.0
C672 C 0.4231 0.12748 0.76791 0.0
C673 C 0.46002 0.15638 0.7713 0.0
C674 C 0.41163 0.10622 0.72481 0.0
C675 C 0.36877 0.08214 0.74893 0.0
N676 N 0.44191 0.14313 0.75667 0.0
N677 N 0.38414 0.09935 0.7624 0.0
H678 H 0.89194 0.44735 0.81737 0.0
H679 H 0.93363 0.40542 0.67118 0.0
H680 H 0.8411 0.45585 0.74982 0.0
H681 H 0.96407 0.36654 0.7403 0.0
H682 H 0.90479 0.43169 0.69987 0.0
H683 H 0.92372 0.42398 0.78921 0.0
C684 C 0.8874 0.44416 0.79675 0.0
C685 C 0.86374 0.45327 0.78602 0.0
C686 C 0.91793 0.41746 0.70866 0.0
C687 C 0.90006 0.42747 0.75377 0.0
C688 C 0.93441 0.40264 0.69235 0.0
C689 C 0.95092 0.38364 0.70341 0.0
C690 C 0.91844 0.41349 0.73612 0.0
C691 C 0.95127 0.38075 0.73098 0.0
C692 C 0.90551 0.43096 0.78072 0.0
C693 C 0.85892 0.44886 0.75908 0.0
N694 N 0.93527 0.39552 0.74642 0.0
N695 N 0.87698 0.43644 0.74387 0.0
H696 H 0.68446 0.9487 0.74975 0.0
H697 H 0.53964 0.93417 0.80954 0.0
H698 H 0.61675 0.98661 0.71574 0.0
H699 H 0.60236 0.8797 0.82544 0.0
H700 H 0.5696 0.95958 0.78103 0.0
H701 H 0.65587 0.92733 0.78203 0.0
C702 C 0.66346 0.95216 0.74885 0.0
C703 C 0.65285 0.96925 0.73001 0.0
C704 C 0.57692 0.94238 0.79124 0.0
C705 C 0.62018 0.94553 0.76731 0.0
C706 C 0.56004 0.92827 0.80785 0.0
C707 C 0.56889 0.90523 0.82 0.0
C708 C 0.60264 0.93323 0.78702 0.0
C709 C 0.5951 0.89767 0.81661 0.0
C710 C 0.6472 0.94014 0.76738 0.0
C711 C 0.62559 0.97325 0.72976 0.0
N712 N 0.61107 0.91157 0.80028 0.0
N713 N 0.61013 0.96162 0.74836 0.0
H714 H 0.95577 0.62195 0.33444 0.0
H715 H 0.91766 0.57384 0.18979 0.0
H716 H 0.97981 0.66366 0.26412 0.0
H717 H 0.87006 0.55633 0.25831 0.0
H718 H 0.94529 0.6025 0.2172 0.0
H719 H 0.92844 0.59296 0.30706 0.0
C720 C 0.95527 0.62501 0.3133 0.0
C721 C 0.9699 0.64531 0.30155 0.0
C722 C 0.92872 0.59239 0.22613 0.0
C723 C 0.93919 0.61218 0.27025 0.0
C724 C 0.91303 0.57604 0.21054 0.0
C725 C 0.89147 0.56287 0.22176 0.0
C726 C 0.92303 0.59512 0.25313 0.0
C727 C 0.88635 0.56633 0.24879 0.0
C728 C 0.93968 0.60855 0.29773 0.0
C729 C 0.96863 0.64841 0.27404 0.0
N730 N 0.9021 0.58201 0.26359 0.0
N731 N 0.95366 0.63192 0.2593 0.0
H732 H 0.34168 0.95092 0.2608 0.0
H733 H 0.44891 0.83669 0.25418 0.0
H734 H 0.38935 0.92918 0.32763 0.0
H735 H 0.42591 0.88263 0.18648 0.0
H736 H 0.42034 0.86404 0.28196 0.0
H737 H 0.36576 0.91912 0.23374 0.0
C738 C 0.35705 0.9393 0.26982 0.0
C739 C 0.36372 0.94281 0.2964 0.0
C740 C 0.42153 0.86797 0.26099 0.0
C741 C 0.39106 0.90642 0.26572 0.0
C742 C 0.43769 0.85237 0.24516 0.0
C743 C 0.43989 0.8576 0.21809 0.0
C744 C 0.40719 0.88854 0.2495 0.0
C745 C 0.42498 0.87814 0.20734 0.0
C746 C 0.37081 0.92127 0.25437 0.0
C747 C 0.3838 0.92726 0.30712 0.0
N748 N 0.40921 0.89286 0.22309 0.0
N749 N 0.39678 0.90969 0.29172 0.0
H750 H 0.58033 0.01702 0.30089 0.0
H751 H 0.57921 0.16243 0.24245 0.0
H752 H 0.64641 0.06994 0.30741 0.0
H753 H 0.5337 0.09947 0.20808 0.0
H754 H 0.60046 0.1306 0.27149 0.0
H755 H 0.55784 0.0497 0.27309 0.0
C756 C 0.58967 0.03584 0.29709 0.0
C757 C 0.61499 0.04114 0.30648 0.0
C758 C 0.58604 0.1237 0.25739 0.0
C759 C 0.59 0.07792 0.27468 0.0
C760 C 0.57409 0.14178 0.24073 0.0
C761 C 0.55495 0.13342 0.22275 0.0
C762 C 0.57834 0.0972 0.25645 0.0
C763 C 0.54871 0.10655 0.22143 0.0
C764 C 0.57711 0.05421 0.28096 0.0
C765 C 0.62674 0.06539 0.30059 0.0
N766 N 0.56018 0.08934 0.23836 0.0
N767 N 0.61414 0.08294 0.28504 0.0
H768 H 0.73121 0.93992 0.66862 0.0
H769 H 0.8563 0.92996 0.57315 0.0
H770 H 0.79931 0.9894 0.67925 0.0
H771 H 0.79287 0.87334 0.57623 0.0
H772 H 0.83704 0.95231 0.61181 0.0
H773 H 0.75503 0.91475 0.63544 0.0
C774 C 0.75149 0.94505 0.66436 0.0
C775 C 0.76341 0.96653 0.67691 0.0
C776 C 0.82751 0.9349 0.60401 0.0
C777 C 0.79072 0.93839 0.63797 0.0
C778 C 0.8384 0.92224 0.58186 0.0
C779 C 0.82616 0.89978 0.57122 0.0
C780 C 0.80419 0.92508 0.61544 0.0
C781 C 0.80307 0.89059 0.58351 0.0
C782 C 0.76508 0.93081 0.64523 0.0
C783 C 0.7896 0.97264 0.67033 0.0
N784 N 0.79289 0.90327 0.60473 0.0
N785 N 0.80231 0.95887 0.651 0.0
H786 H 0.14738 0.79285 0.61095 0.0
H787 H 0.06711 0.65797 0.60766 0.0
H788 H 0.17207 0.72853 0.56147 0.0
H789 H 0.06176 0.71506 0.67048 0.0
H790 H 0.10504 0.68247 0.58959 0.0
H791 H 0.11573 0.76381 0.63256 0.0
C792 C 0.14644 0.77239 0.60499 0.0
C793 C 0.16254 0.76303 0.58458 0.0
C794 C 0.09564 0.6894 0.60747 0.0
C795 C 0.12553 0.72961 0.60872 0.0
C796 C 0.07394 0.67547 0.61775 0.0
C797 C 0.06099 0.68449 0.64057 0.0
C798 C 0.10424 0.71261 0.61995 0.0
C799 C 0.07085 0.7073 0.65279 0.0
C800 C 0.12827 0.75579 0.61727 0.0
C801 C 0.16028 0.73639 0.57743 0.0
N802 N 0.0916 0.72056 0.64226 0.0
N803 N 0.1418 0.72066 0.58922 0.0
H804 H 0.28598 0.17912 0.53122 0.0
H805 H 0.28241 0.06534 0.6399 0.0
H806 H 0.21492 0.14199 0.55962 0.0
H807 H 0.35148 0.07838 0.5919 0.0
H808 H 0.25904 0.0982 0.61434 0.0
H809 H 0.31191 0.14736 0.55709 0.0
C810 C 0.27585 0.16455 0.54311 0.0
C811 C 0.24822 0.16324 0.54329 0.0
C812 C 0.27929 0.09391 0.60927 0.0
C813 C 0.27765 0.12702 0.57277 0.0
C814 C 0.29273 0.07513 0.62393 0.0
C815 C 0.31901 0.06899 0.61805 0.0
C816 C 0.29214 0.10713 0.58861 0.0
C817 C 0.3312 0.08237 0.597 0.0
C818 C 0.29064 0.14632 0.55764 0.0
C819 C 0.23614 0.14375 0.55881 0.0
N820 N 0.3177 0.10098 0.58309 0.0
N821 N 0.25087 0.12657 0.57292 0.0
H822 H 0.84421 0.24371 0.54128 0.0
H823 H 0.94745 0.23743 0.66113 0.0
H824 H 0.88765 0.17405 0.5623 0.0
H825 H 0.92252 0.30994 0.6249 0.0
H826 H 0.91859 0.21308 0.63086 0.0
H827 H 0.86611 0.26747 0.5774 0.0
C828 C 0.85811 0.23335 0.55361 0.0
C829 C 0.86426 0.20691 0.54853 0.0
C830 C 0.91923 0.23436 0.62978 0.0
C831 C 0.88922 0.23387 0.59002 0.0
C832 C 0.93555 0.24826 0.64721 0.0
C833 C 0.93756 0.27576 0.64548 0.0
C834 C 0.90457 0.24806 0.61069 0.0
C835 C 0.92178 0.28873 0.62682 0.0
C836 C 0.87067 0.24692 0.57417 0.0
C837 C 0.88249 0.1945 0.56522 0.0
N838 N 0.90608 0.27481 0.61015 0.0
N839 N 0.89429 0.20804 0.58511 0.0
H840 H 0.68814 0.05594 0.37498 0.0
H841 H 0.82815 0.11363 0.41325 0.0
H842 H 0.75788 0.04017 0.32903 0.0
H843 H 0.75583 0.14728 0.44212 0.0
H844 H 0.80299 0.08659 0.38245 0.0
H845 H 0.71249 0.089 0.40001 0.0
C846 C 0.70859 0.05948 0.37007 0.0
C847 C 0.72102 0.04505 0.34994 0.0
C848 C 0.79259 0.10009 0.39526 0.0
C849 C 0.74915 0.08296 0.37881 0.0
C850 C 0.80694 0.11554 0.41292 0.0
C851 C 0.79407 0.13271 0.4304 0.0
C852 C 0.76503 0.10135 0.39532 0.0
C853 C 0.76657 0.1344 0.42896 0.0
C854 C 0.72245 0.07849 0.38432 0.0
C855 C 0.7475 0.05075 0.34437 0.0
N856 N 0.75294 0.11864 0.412 0.0
N857 N 0.76076 0.06903 0.35892 0.0
H858 H 0.98742 0.7939 0.34552 0.0
H859 H 0.86856 0.79157 0.45009 0.0
H860 H 0.94301 0.72485 0.36745 0.0
H861 H 0.9233 0.85655 0.44569 0.0
H862 H 0.89197 0.76997 0.4144 0.0
H863 H 0.96035 0.82011 0.37626 0.0
C864 C 0.97157 0.78441 0.35626 0.0
C865 C 0.96738 0.75716 0.35387 0.0
C866 C 0.89893 0.78897 0.42112 0.0
C867 C 0.93667 0.78682 0.38914 0.0
C868 C 0.88552 0.80142 0.44161 0.0
C869 C 0.89401 0.82595 0.45121 0.0
C870 C 0.92116 0.80098 0.40979 0.0
C871 C 0.91611 0.8376 0.4391 0.0
C872 C 0.95636 0.79929 0.37401 0.0
C873 C 0.94694 0.74577 0.36866 0.0
N874 N 0.92899 0.82499 0.41906 0.0
N875 N 0.93247 0.76058 0.38559 0.0
H876 H 0.27865 0.94593 0.38488 0.0
H877 H 0.28356 0.84144 0.50292 0.0
H878 H 0.34777 0.93888 0.43351 0.0
H879 H 0.21233 0.87506 0.47182 0.0
H880 H 0.30933 0.87123 0.47411 0.0
H881 H 0.25612 0.91415 0.41283 0.0
C882 C 0.28921 0.93766 0.40143 0.0
C883 C 0.31522 0.9453 0.40681 0.0
C884 C 0.28806 0.87193 0.47364 0.0
C885 C 0.28923 0.90837 0.43914 0.0
C886 C 0.27336 0.85483 0.48989 0.0
C887 C 0.24572 0.85575 0.48983 0.0
C888 C 0.27495 0.88963 0.45688 0.0
C889 C 0.23355 0.87367 0.4727 0.0
C890 C 0.27622 0.91948 0.41748 0.0
C891 C 0.32769 0.93373 0.42868 0.0
N892 N 0.24817 0.8897 0.45695 0.0
N893 N 0.31462 0.91576 0.44402 0.0
H894 H 0.17855 0.29138 0.47009 0.0
H895 H 0.08705 0.29767 0.34207 0.0
H896 H 0.16706 0.22765 0.41525 0.0
H897 H 0.0751 0.34886 0.40898 0.0
H898 H 0.12486 0.27855 0.36402 0.0
H899 H 0.14908 0.31896 0.4432 0.0
C900 C 0.17049 0.28354 0.45195 0.0
C901 C 0.17526 0.25736 0.44466 0.0
C902 C 0.11412 0.2941 0.37386 0.0
C903 C 0.14166 0.2884 0.41421 0.0
C904 C 0.09247 0.3051 0.36133 0.0
C905 C 0.07753 0.32468 0.37385 0.0
C906 C 0.12113 0.30265 0.39919 0.0
C907 C 0.08588 0.33365 0.3987 0.0
C908 C 0.1535 0.29912 0.43684 0.0
C909 C 0.16391 0.24781 0.42141 0.0
N910 N 0.10702 0.32238 0.41071 0.0
N911 N 0.14763 0.26327 0.40707 0.0
H912 H 0.62968 0.68672 0.93486 0.0
H913 H 0.58853 0.82802 0.88268 0.0
H914 H 0.66189 0.75855 0.96685 0.0
H915 H 0.57338 0.75693 0.83877 0.0
H916 H 0.61624 0.80317 0.91293 0.0
H917 H 0.60961 0.71193 0.89931 0.0
C918 C 0.63265 0.70784 0.93437 0.0
C919 C 0.64737 0.72055 0.95409 0.0
C920 C 0.60717 0.793 0.89652 0.0
C921 C 0.62415 0.74966 0.91323 0.0
C922 C 0.59129 0.80717 0.87921 0.0
C923 C 0.57847 0.79451 0.8582 0.0
C924 C 0.60999 0.76575 0.8932 0.0
C925 C 0.58292 0.7675 0.85463 0.0
C926 C 0.62124 0.72221 0.91393 0.0
C927 C 0.65069 0.74792 0.95216 0.0
N928 N 0.598 0.75395 0.87219 0.0
N929 N 0.63891 0.76158 0.93229 0.0
H930 H 0.31223 0.63503 0.90486 0.0
H931 H 0.17404 0.57295 0.87197 0.0
H932 H 0.23961 0.67539 0.92169 0.0
H933 H 0.24419 0.54978 0.8301 0.0
H934 H 0.19767 0.61077 0.88995 0.0
H935 H 0.28818 0.60414 0.8768 0.0
C936 C 0.29125 0.63763 0.90232 0.0
C937 C 0.27787 0.65774 0.91577 0.0
C938 C 0.20785 0.59766 0.87656 0.0
C939 C 0.25015 0.62209 0.88403 0.0
C940 C 0.19441 0.57598 0.86637 0.0
C941 C 0.20724 0.55808 0.84965 0.0
C942 C 0.23456 0.60127 0.87051 0.0
C943 C 0.23357 0.5631 0.8429 0.0
C944 C 0.27756 0.62 0.88626 0.0
C945 C 0.25071 0.66023 0.91167 0.0
N946 N 0.24652 0.58401 0.85371 0.0
N947 N 0.23767 0.64232 0.89653 0.0
H948 H 0.35188 0.22966 1.00113 0.0
H949 H 0.44804 0.22231 0.87573 0.0
H950 H 0.36453 0.29185 0.94463 0.0
H951 H 0.45297 0.16555 0.93891 0.0
H952 H 0.41206 0.24364 0.8983 0.0
H953 H 0.38309 0.20187 0.97624 0.0
C954 C 0.36068 0.2372 0.98316 0.0
C955 C 0.35554 0.26308 0.97485 0.0
C956 C 0.42087 0.22653 0.90738 0.0
C957 C 0.39129 0.23167 0.9466 0.0
C958 C 0.44161 0.21422 0.89446 0.0
C959 C 0.45399 0.19214 0.9055 0.0
C960 C 0.41206 0.21698 0.93182 0.0
C961 C 0.44421 0.18261 0.92972 0.0
C962 C 0.37869 0.22147 0.96917 0.0
C963 C 0.36787 0.27206 0.95176 0.0
N964 N 0.42389 0.19519 0.94218 0.0
N965 N 0.3851 0.25647 0.93858 0.0
H966 H 0.68018 0.4375 0.97511 0.0
H967 H 0.7382 0.42447 0.82829 0.0
H968 H 0.69739 0.36227 0.93984 0.0
H969 H 0.75834 0.48822 0.88063 0.0
H970 H 0.7124 0.40408 0.86437 0.0
H971 H 0.69795 0.45929 0.93543 0.0
C972 C 0.6873 0.4256 0.95888 0.0
C973 C 0.68759 0.39809 0.96085 0.0
C974 C 0.72231 0.42267 0.86775 0.0
C975 C 0.70749 0.42273 0.91544 0.0
C976 C 0.7369 0.43428 0.84721 0.0
C977 C 0.75061 0.45783 0.85167 0.0
C978 C 0.72091 0.43517 0.89251 0.0
C979 C 0.74833 0.46982 0.87654 0.0
C980 C 0.69752 0.438 0.93634 0.0
C981 C 0.69712 0.38357 0.93924 0.0
N982 N 0.73376 0.45843 0.89596 0.0
N983 N 0.70668 0.39603 0.91745 0.0
H984 H 0.60237 0.35655 0.09487 0.0
H985 H 0.58237 0.21701 0.16446 0.0
H986 H 0.65581 0.29124 0.08663 0.0
H987 H 0.54122 0.28578 0.19197 0.0
H988 H 0.60913 0.24478 0.13574 0.0
H989 H 0.57911 0.33217 0.13001 0.0
C990 C 0.60935 0.33725 0.1005 0.0
C991 C 0.63106 0.32595 0.08753 0.0
C992 C 0.59453 0.254 0.14825 0.0
C993 C 0.60446 0.29793 0.12761 0.0
C994 C 0.57928 0.2381 0.16476 0.0
C995 C 0.55965 0.24909 0.18079 0.0
C996 C 0.58989 0.28123 0.14713 0.0
C997 C 0.55639 0.27655 0.18018 0.0
C998 C 0.59609 0.32337 0.12061 0.0
C999 C 0.63916 0.30084 0.0958 0.0
N1000 N 0.57109 0.29168 0.16332 0.0
N1001 N 0.62581 0.28773 0.11502 0.0
H1002 H 0.81937 0.58396 0.14327 0.0
H1003 H 0.68012 0.6211 0.08491 0.0
H1004 H 0.74682 0.55674 0.17838 0.0
H1005 H 0.74957 0.66754 0.06908 0.0
H1006 H 0.70411 0.59716 0.11892 0.0
H1007 H 0.79444 0.61442 0.11579 0.0
C1008 C 0.79817 0.58452 0.14535 0.0
C1009 C 0.78514 0.56761 0.16306 0.0
C1010 C 0.71406 0.61276 0.10825 0.0
C1011 C 0.75642 0.60236 0.13133 0.0
C1012 C 0.70041 0.6264 0.08874 0.0
C1013 C 0.71293 0.64626 0.07399 0.0
C1014 C 0.74065 0.6186 0.1128 0.0
C1015 C 0.73917 0.6524 0.07997 0.0
C1016 C 0.78397 0.60202 0.1297 0.0
C1017 C 0.75767 0.56939 0.16501 0.0
N1018 N 0.75228 0.63836 0.09867 0.0
N1019 N 0.74419 0.58618 0.14907 0.0
H1020 H 0.34167 0.71597 0.05788 0.0
H1021 H 0.43494 0.84051 0.07575 0.0
H1022 H 0.34056 0.78039 1.00266 0.0
H1023 H 0.4172 0.78471 0.13757 0.0
H1024 H 0.3999 0.8206 0.04882 0.0
H1025 H 0.36816 0.74249 0.08784 0.0
C1026 C 0.34657 0.73601 0.05237 0.0
C1027 C 0.33875 0.74611 0.02793 0.0
C1028 C 0.40355 0.81299 0.06842 0.0
C1029 C 0.37006 0.77646 0.06174 0.0
C1030 C 0.42357 0.82431 0.08378 0.0
C1031 C 0.42931 0.81412 0.1089 0.0
C1032 C 0.38933 0.79126 0.07822 0.0
C1033 C 0.41382 0.79313 0.11827 0.0
C1034 C 0.36183 0.75115 0.06941 0.0
C1035 C 0.34591 0.77207 0.02155 0.0
N1036 N 0.39484 0.78233 0.1029 0.0
N1037 N 0.36158 0.78625 0.03818 0.0
H1038 H 0.24708 0.33401 0.07552 0.0
H1039 H 0.25537 0.46053 0.17017 0.0
H1040 H 0.3186 0.37772 0.08917 0.0
H1041 H 0.18411 0.43528 0.13163 0.0
H1042 H 0.27871 0.42352 0.14951 0.0
H1043 H 0.22369 0.36436 0.10517 0.0
C1044 C 0.25794 0.34965 0.08513 0.0
C1045 C 0.28474 0.35351 0.0797 0.0
C1046 C 0.25788 0.42597 0.14586 0.0
C1047 C 0.25826 0.38812 0.1136 0.0
C1048 C 0.24456 0.44699 0.15774 0.0
C1049 C 0.21784 0.45115 0.1524 0.0
C1050 C 0.24427 0.40878 0.12891 0.0
C1051 C 0.2048 0.433 0.13604 0.0
C1052 C 0.24459 0.36704 0.1019 0.0
C1053 C 0.29785 0.37421 0.09259 0.0
N1054 N 0.21813 0.41269 0.12485 0.0
N1055 N 0.28449 0.39076 0.10884 0.0
H1056 H 0.82058 0.58201 0.77111 0.0
H1057 H 0.93654 0.57742 0.66467 0.0
H1058 H 0.83364 0.51446 0.72162 0.0
H1059 H 0.91502 0.64587 0.71013 0.0
H1060 H 0.89664 0.55498 0.68107 0.0
H1061 H 0.85191 0.60711 0.74449 0.0
C1062 C 0.82947 0.57279 0.754 0.0
C1063 C 0.82419 0.5464 0.74815 0.0
C1064 C 0.90058 0.57503 0.68715 0.0
C1065 C 0.86126 0.57449 0.71827 0.0
C1066 C 0.92333 0.58782 0.67779 0.0
C1067 C 0.9294 0.61343 0.68633 0.0
C1068 C 0.88384 0.58801 0.70508 0.0
C1069 C 0.9115 0.62598 0.70331 0.0
C1070 C 0.84761 0.58699 0.73894 0.0
C1071 C 0.83681 0.53502 0.7263 0.0
N1072 N 0.8898 0.61314 0.7122 0.0
N1073 N 0.85511 0.54901 0.71235 0.0
H1074 H 0.84641 0.48033 0.28557 0.0
H1075 H 0.93712 0.352 0.2878 0.0
H1076 H 0.86649 0.43387 0.21735 0.0
H1077 H 0.94499 0.41338 0.34616 0.0
H1078 H 0.90149 0.37635 0.26743 0.0
H1079 H 0.87321 0.45065 0.31307 0.0
C1080 C 0.85589 0.46351 0.27656 0.0
C1081 C 0.85432 0.45942 0.24923 0.0
C1082 C 0.91082 0.38441 0.28485 0.0
C1083 C 0.88468 0.4257 0.28027 0.0
C1084 C 0.9312 0.3705 0.29657 0.0
C1085 C 0.94445 0.38083 0.31853 0.0
C1086 C 0.90339 0.40893 0.29507 0.0
C1087 C 0.9355 0.40478 0.32912 0.0
C1088 C 0.87132 0.4468 0.29216 0.0
C1089 C 0.86728 0.43768 0.23836 0.0
N1090 N 0.91565 0.4182 0.31711 0.0
N1091 N 0.8819 0.42168 0.25387 0.0
H1092 H 0.63184 0.9137 0.29414 0.0
H1093 H 0.55856 0.90263 0.1557 0.0
H1094 H 0.65579 0.96103 0.22765 0.0
H1095 H 0.55351 0.8444 0.21755 0.0
H1096 H 0.5939 0.92484 0.18046 0.0
H1097 H 0.60301 0.88841 0.2654 0.0
C1098 C 0.63129 0.91853 0.27332 0.0
C1099 C 0.64632 0.93944 0.26328 0.0
C1100 C 0.58515 0.90705 0.18839 0.0
C1101 C 0.61263 0.91083 0.23007 0.0
C1102 C 0.56496 0.89438 0.1743 0.0
C1103 C 0.5528 0.87166 0.18458 0.0
C1104 C 0.59306 0.89703 0.21299 0.0
C1105 C 0.56201 0.86191 0.20879 0.0
C1106 C 0.61475 0.90409 0.25686 0.0
C1107 C 0.64472 0.94487 0.23613 0.0
N1108 N 0.58131 0.8747 0.22214 0.0
N1109 N 0.62786 0.93088 0.22049 0.0
H1110 H 0.17139 0.57162 0.24911 0.0
H1111 H 0.06787 0.6907 0.24257 0.0
H1112 H 0.128 0.59149 0.1789 0.0
H1113 H 0.09245 0.65369 0.31494 0.0
H1114 H 0.09678 0.66064 0.21791 0.0
H1115 H 0.14932 0.60767 0.27243 0.0
C1116 C 0.15746 0.58371 0.23851 0.0
C1117 C 0.15142 0.57832 0.21205 0.0
C1118 C 0.09604 0.65936 0.23922 0.0
C1119 C 0.12616 0.61976 0.23861 0.0
C1120 C 0.07972 0.67665 0.2533 0.0
C1121 C 0.07763 0.67462 0.28084 0.0
C1122 C 0.11063 0.64019 0.25284 0.0
C1123 C 0.09328 0.65583 0.2937 0.0
C1124 C 0.1448 0.60424 0.25186 0.0
C1125 C 0.13313 0.59472 0.19936 0.0
N1126 N 0.109 0.63936 0.27964 0.0
N1127 N 0.12114 0.61461 0.21273 0.0
H1128 H 0.43365 0.14571 0.22318 0.0
H1129 H 0.41565 0.06564 0.35825 0.0
H1130 H 0.47227 0.16991 0.29478 0.0
H1131 H 0.36693 0.05541 0.28945 0.0
H1132 H 0.43766 0.10295 0.33616 0.0
H1133 H 0.40949 0.11234 0.24792 0.0
C1134 C 0.43675 0.14426 0.24427 0.0
C1135 C 0.45494 0.16079 0.25691 0.0
C1136 C 0.42209 0.09253 0.32601 0.0
C1137 C 0.42764 0.12181 0.28554 0.0
C1138 C 0.40961 0.07112 0.33855 0.0
C1139 C 0.3894 0.05717 0.32573 0.0
C1140 C 0.41445 0.09991 0.30039 0.0
C1141 C 0.38236 0.06539 0.30023 0.0
C1142 C 0.42299 0.12506 0.25843 0.0
C1143 C 0.45821 0.15782 0.28429 0.0
N1144 N 0.39487 0.086 0.28849 0.0
N1145 N 0.44493 0.13848 0.29766 0.0
H1146 H 0.04216 0.32866 0.76156 0.0
H1147 H 0.15687 0.43786 0.75533 0.0
H1148 H 0.07282 0.36209 0.68952 0.0
H1149 H 0.11395 0.41893 0.82646 0.0
H1150 H 0.13189 0.40387 0.73194 0.0
H1151 H 0.07415 0.35515 0.78661 0.0
C1152 C 0.05596 0.34111 0.751 0.0
C1153 C 0.05471 0.3433 0.72344 0.0
C1154 C 0.12809 0.40701 0.75273 0.0
C1155 C 0.09116 0.37369 0.75184 0.0
C1156 C 0.14243 0.42639 0.76612 0.0
C1157 C 0.13739 0.43149 0.79287 0.0
C1158 C 0.10864 0.39245 0.76617 0.0
C1159 C 0.11838 0.4159 0.80578 0.0
C1160 C 0.07405 0.35638 0.76528 0.0
C1161 C 0.07291 0.35996 0.71077 0.0
N1162 N 0.10464 0.39721 0.79232 0.0
N1163 N 0.09023 0.37454 0.72502 0.0
H1164 H 0.58152 0.09509 0.86075 0.0
H1165 H 0.66696 0.09431 0.72754 0.0
H1166 H 0.5719 0.14909 0.79578 0.0
H1167 H 0.68858 0.04726 0.79471 0.0
H1168 H 0.63264 0.11504 0.75378 0.0
H1169 H 0.62044 0.07662 0.83815 0.0
C1170 C 0.58744 0.10297 0.84179 0.0
C1171 C 0.57327 0.12368 0.83021 0.0
C1172 C 0.64505 0.10049 0.76309 0.0
C1173 C 0.61777 0.10288 0.80444 0.0
C1174 C 0.66484 0.08881 0.7481 0.0
C1175 C 0.68085 0.06928 0.75903 0.0
C1176 C 0.64065 0.09228 0.78924 0.0
C1177 C 0.67695 0.0626 0.78569 0.0
C1178 C 0.60975 0.09257 0.829 0.0
C1179 C 0.58204 0.13321 0.80565 0.0
N1180 N 0.65698 0.07382 0.79983 0.0
N1181 N 0.6035 0.12276 0.79372 0.0
H1182 H 0.49616 0.86159 0.73299 0.0
H1183 H 0.37233 0.95925 0.73251 0.0
H1184 H 0.44738 0.87944 0.80034 0.0
H1185 H 0.42656 0.95553 0.66694 0.0
H1186 H 0.39727 0.92545 0.7549 0.0
H1187 H 0.46856 0.89095 0.7059 0.0
C1188 C 0.4794 0.87124 0.74194 0.0
C1189 C 0.4741 0.8681 0.769 0.0
C1190 C 0.40385 0.9319 0.73561 0.0
C1191 C 0.44271 0.90171 0.73832 0.0
C1192 C 0.38954 0.95134 0.72271 0.0
C1193 C 0.39738 0.96057 0.69777 0.0
C1194 C 0.42642 0.9213 0.7237 0.0
C1195 C 0.41984 0.94918 0.6862 0.0
C1196 C 0.46383 0.88816 0.72655 0.0
C1197 C 0.45234 0.88135 0.77964 0.0
N1198 N 0.43365 0.9302 0.6993 0.0
N1199 N 0.43761 0.8975 0.76436 0.0
loop_
_geom_bond_atom_site_label_1
_geom_bond_atom_site_label_2
_geom_bond_distance
_geom_bond_site_symmetry_2
_ccdc_geom_bond_type
C0 O2 1.247 . S
C0 O4 1.258 . S
C1 O8 1.247 . S
C1 O9 1.258 . S
O2 C0 1.247 . S
O2 Zn3 2.028 . S
Zn3 O2 2.028 . S
Zn3 O7 2.035 . S
Zn3 O9 2.035 1_545 S
Zn3 O10 2.028 1_545 S
O4 C0 1.258 . S
O4 Zn5 2.035 . S
Zn5 O4 2.035 . S
Zn5 O6 2.028 . S
Zn5 O8 2.028 1_545 S
Zn5 O11 2.035 1_545 S
O6 Zn5 2.028 . S
O6 C12 1.247 . S
O7 Zn3 2.035 . S
O7 C12 1.258 . S
O8 C1 1.247 . S
O8 Zn5 2.028 1_565 S
O9 C1 1.258 . S
O9 Zn3 2.035 1_565 S
O10 Zn3 2.028 1_565 S
O10 C13 1.247 . S
O11 Zn5 2.035 1_565 S
O11 C13 1.258 . S
C12 O6 1.247 . S
C12 O7 1.258 . S
C13 O10 1.247 . S
C13 O11 1.258 . S
C14 O16 1.247 . S
C14 O18 1.258 . S
C15 O22 1.247 . S
C15 O23 1.258 . S
O16 C14 1.247 . S
O16 Zn17 2.028 . S
Zn17 O16 2.028 . S
Zn17 O21 2.035 . S
Zn17 O23 2.035 1_455 S
Zn17 O24 2.028 1_455 S
O18 C14 1.258 . S
O18 Zn19 2.035 . S
Zn19 O18 2.035 . S
Zn19 O20 2.028 . S
Zn19 O22 2.028 1_455 S
Zn19 O25 2.035 1_455 S
O20 Zn19 2.028 . S
O20 C26 1.247 . S
O21 Zn17 2.035 . S
O21 C26 1.258 . S
O22 C15 1.247 . S
O22 Zn19 2.028 1_655 S
O23 C15 1.258 . S
O23 Zn17 2.035 1_655 S
O24 Zn17 2.028 1_655 S
O24 C27 1.247 . S
O25 Zn19 2.035 1_655 S
O25 C27 1.258 . S
C26 O20 1.247 . S
C26 O21 1.258 . S
C27 O24 1.247 . S
C27 O25 1.258 . S
C28 O30 1.247 . S
C28 O32 1.258 . S
C29 O36 1.247 . S
C29 O37 1.258 . S
O30 C28 1.247 . S
O30 Zn31 2.028 1_565 S
Zn31 O30 2.028 1_545 S
Zn31 O35 2.035 1_545 S
Zn31 O37 2.035 . S
Zn31 O38 2.028 . S
O32 C28 1.258 . S
O32 Zn33 2.035 1_565 S
Zn33 O32 2.035 1_545 S
Zn33 O34 2.028 1_545 S
Zn33 O36 2.028 . S
Zn33 O39 2.035 . S
O34 Zn33 2.028 1_565 S
O34 C40 1.247 . S
O35 Zn31 2.035 1_565 S
O35 C40 1.258 . S
O36 C29 1.247 . S
O36 Zn33 2.028 . S
O37 C29 1.258 . S
O37 Zn31 2.035 . S
O38 Zn31 2.028 . S
O38 C41 1.247 . S
O39 Zn33 2.035 . S
O39 C41 1.258 . S
C40 O34 1.247 . S
C40 O35 1.258 . S
C41 O38 1.247 . S
C41 O39 1.258 . S
C42 O44 1.247 . S
C42 O46 1.258 . S
C43 O50 1.247 . S
C43 O51 1.258 . S
O44 C42 1.247 . S
O44 Zn45 2.028 . S
Zn45 O44 2.028 . S
Zn45 O49 2.035 . S
Zn45 O51 2.035 1_455 S
Zn45 O52 2.028 1_455 S
O46 C42 1.258 . S
O46 Zn47 2.035 . S
Zn47 O46 2.035 . S
Zn47 O48 2.028 . S
Zn47 O50 2.028 1_455 S
Zn47 O53 2.035 1_455 S
O48 Zn47 2.028 . S
O48 C54 1.247 . S
O49 Zn45 2.035 . S
O49 C54 1.258 . S
O50 C43 1.247 . S
O50 Zn47 2.028 1_655 S
O51 C43 1.258 . S
O51 Zn45 2.035 1_655 S
O52 Zn45 2.028 1_655 S
O52 C55 1.247 . S
O53 Zn47 2.035 1_655 S
O53 C55 1.258 . S
C54 O48 1.247 . S
C54 O49 1.258 . S
C55 O52 1.247 . S
C55 O53 1.258 . S
C56 O58 1.247 . S
C56 O60 1.258 . S
C57 O64 1.247 . S
C57 O65 1.258 . S
O58 C56 1.247 . S
O58 Zn59 2.028 . S
Zn59 O58 2.028 . S
Zn59 O63 2.035 . S
Zn59 O65 2.035 1_545 S
Zn59 O66 2.028 1_545 S
O60 C56 1.258 . S
O60 Zn61 2.035 . S
Zn61 O60 2.035 . S
Zn61 O62 2.028 . S
Zn61 O64 2.028 1_545 S
Zn61 O67 2.035 1_545 S
O62 Zn61 2.028 . S
O62 C68 1.247 . S
O63 Zn59 2.035 . S
O63 C68 1.258 . S
O64 C57 1.247 . S
O64 Zn61 2.028 1_565 S
O65 C57 1.258 . S
O65 Zn59 2.035 1_565 S
O66 Zn59 2.028 1_565 S
O66 C69 1.247 . S
O67 Zn61 2.035 1_565 S
O67 C69 1.258 . S
C68 O62 1.247 . S
C68 O63 1.258 . S
C69 O66 1.247 . S
C69 O67 1.258 . S
C70 O72 1.247 . S
C70 O74 1.258 . S
C71 O78 1.247 . S
C71 O79 1.258 . S
O72 C70 1.247 . S
O72 Zn73 2.028 . S
Zn73 O72 2.028 . S
Zn73 O77 2.035 . S
Zn73 O79 2.035 1_455 S
Zn73 O80 2.028 1_455 S
O74 C70 1.258 . S
O74 Zn75 2.035 . S
Zn75 O74 2.035 . S
Zn75 O76 2.028 . S
Zn75 O78 2.028 1_455 S
Zn75 O81 2.035 1_455 S
O76 Zn75 2.028 . S
O76 C82 1.247 . S
O77 Zn73 2.035 . S
O77 C82 1.258 . S
O78 C71 1.247 . S
O78 Zn75 2.028 1_655 S
O79 C71 1.258 . S
O79 Zn73 2.035 1_655 S
O80 Zn73 2.028 1_655 S
O80 C83 1.247 . S
O81 Zn75 2.035 1_655 S
O81 C83 1.258 . S
C82 O76 1.247 . S
C82 O77 1.258 . S
C83 O80 1.247 . S
C83 O81 1.258 . S
C84 O86 1.247 . S
C84 O88 1.258 . S
C85 O92 1.247 . S
C85 O93 1.258 . S
O86 C84 1.247 . S
O86 Zn87 2.028 . S
Zn87 O86 2.028 . S
Zn87 O91 2.035 . S
Zn87 O93 2.035 1_545 S
Zn87 O94 2.028 1_545 S
O88 C84 1.258 . S
O88 Zn89 2.035 . S
Zn89 O88 2.035 . S
Zn89 O90 2.028 . S
Zn89 O92 2.028 1_545 S
Zn89 O95 2.035 1_545 S
O90 Zn89 2.028 . S
O90 C96 1.247 . S
O91 Zn87 2.035 . S
O91 C96 1.258 . S
O92 C85 1.247 . S
O92 Zn89 2.028 1_565 S
O93 C85 1.258 . S
O93 Zn87 2.035 1_565 S
O94 Zn87 2.028 1_565 S
O94 C97 1.247 . S
O95 Zn89 2.035 1_565 S
O95 C97 1.258 . S
C96 O90 1.247 . S
C96 O91 1.258 . S
C97 O94 1.247 . S
C97 O95 1.258 . S
C98 O100 1.247 . S
C98 O102 1.258 . S
C99 O106 1.247 . S
C99 O107 1.258 . S
O100 C98 1.247 . S
O100 Zn101 2.028 1_655 S
Zn101 O100 2.028 1_455 S
Zn101 O105 2.035 1_455 S
Zn101 O107 2.035 . S
Zn101 O108 2.028 . S
O102 C98 1.258 . S
O102 Zn103 2.035 1_655 S
Zn103 O102 2.035 1_455 S
Zn103 O104 2.028 1_455 S
Zn103 O106 2.028 . S
Zn103 O109 2.035 . S
O104 Zn103 2.028 1_655 S
O104 C110 1.247 . S
O105 Zn101 2.035 1_655 S
O105 C110 1.258 . S
O106 C99 1.247 . S
O106 Zn103 2.028 . S
O107 C99 1.258 . S
O107 Zn101 2.035 . S
O108 Zn101 2.028 . S
O108 C111 1.247 . S
O109 Zn103 2.035 . S
O109 C111 1.258 . S
C110 O104 1.247 . S
C110 O105 1.258 . S
C111 O108 1.247 . S
C111 O109 1.258 . S
C112 O114 1.247 . S
C112 O116 1.258 . S
C113 O120 1.247 . S
C113 O121 1.258 . S
O114 C112 1.247 . S
O114 Zn115 2.028 . S
Zn115 O114 2.028 . S
Zn115 O119 2.035 . S
Zn115 O121 2.035 1_554 S
Zn115 O122 2.028 1_554 S
O116 C112 1.258 . S
O116 Zn117 2.035 . S
Zn117 O116 2.035 . S
Zn117 O118 2.028 . S
Zn117 O120 2.028 1_554 S
Zn117 O123 2.035 1_554 S
O118 Zn117 2.028 . S
O118 C124 1.247 . S
O119 Zn115 2.035 . S
O119 C124 1.258 . S
O120 C113 1.247 . S
O120 Zn117 2.028 1_556 S
O121 C113 1.258 . S
O121 Zn115 2.035 1_556 S
O122 Zn115 2.028 1_556 S
O122 C125 1.247 . S
O123 Zn117 2.035 1_556 S
O123 C125 1.258 . S
C124 O118 1.247 . S
C124 O119 1.258 . S
C125 O122 1.247 . S
C125 O123 1.258 . S
C126 O128 1.247 . S
C126 O130 1.258 . S
C127 O134 1.247 . S
C127 O135 1.258 . S
O128 C126 1.247 . S
O128 Zn129 2.028 . S
Zn129 O128 2.028 . S
Zn129 O133 2.035 . S
Zn129 O135 2.035 1_554 S
Zn129 O136 2.028 1_554 S
O130 C126 1.258 . S
O130 Zn131 2.035 . S
Zn131 O130 2.035 . S
Zn131 O132 2.028 . S
Zn131 O134 2.028 1_554 S
Zn131 O137 2.035 1_554 S
O132 Zn131 2.028 . S
O132 C138 1.247 . S
O133 Zn129 2.035 . S
O133 C138 1.258 . S
O134 C127 1.247 . S
O134 Zn131 2.028 1_556 S
O135 C127 1.258 . S
O135 Zn129 2.035 1_556 S
O136 Zn129 2.028 1_556 S
O136 C139 1.247 . S
O137 Zn131 2.035 1_556 S
O137 C139 1.258 . S
C138 O132 1.247 . S
C138 O133 1.258 . S
C139 O136 1.247 . S
C139 O137 1.258 . S
C140 O142 1.247 . S
C140 O144 1.258 . S
C141 O148 1.247 . S
C141 O149 1.258 . S
O142 C140 1.247 . S
O142 Zn143 2.028 . S
Zn143 O142 2.028 . S
Zn143 O147 2.035 . S
Zn143 O149 2.035 1_554 S
Zn143 O150 2.028 1_554 S
O144 C140 1.258 . S
O144 Zn145 2.035 . S
Zn145 O144 2.035 . S
Zn145 O146 2.028 . S
Zn145 O148 2.028 1_554 S
Zn145 O151 2.035 1_554 S
O146 Zn145 2.028 . S
O146 C152 1.247 . S
O147 Zn143 2.035 . S
O147 C152 1.258 . S
O148 C141 1.247 . S
O148 Zn145 2.028 1_556 S
O149 C141 1.258 . S
O149 Zn143 2.035 1_556 S
O150 Zn143 2.028 1_556 S
O150 C153 1.247 . S
O151 Zn145 2.035 1_556 S
O151 C153 1.258 . S
C152 O146 1.247 . S
C152 O147 1.258 . S
C153 O150 1.247 . S
C153 O151 1.258 . S
C154 O156 1.247 . S
C154 O158 1.258 . S
C155 O162 1.247 . S
C155 O163 1.258 . S
O156 C154 1.247 . S
O156 Zn157 2.028 1_556 S
Zn157 O156 2.028 1_554 S
Zn157 O161 2.035 1_554 S
Zn157 O163 2.035 . S
Zn157 O164 2.028 . S
O158 C154 1.258 . S
O158 Zn159 2.035 1_556 S
Zn159 O158 2.035 1_554 S
Zn159 O160 2.028 1_554 S
Zn159 O162 2.028 . S
Zn159 O165 2.035 . S
O160 Zn159 2.028 1_556 S
O160 C166 1.247 . S
O161 Zn157 2.035 1_556 S
O161 C166 1.258 . S
O162 C155 1.247 . S
O162 Zn159 2.028 . S
O163 C155 1.258 . S
O163 Zn157 2.035 . S
O164 Zn157 2.028 . S
O164 C167 1.247 . S
O165 Zn159 2.035 . S
O165 C167 1.258 . S
C166 O160 1.247 . S
C166 O161 1.258 . S
C167 O164 1.247 . S
C167 O165 1.258 . S
C168 O170 1.247 . S
C168 O172 1.258 . S
C169 O176 1.247 . S
C169 O177 1.258 . S
O170 C168 1.247 . S
O170 Zn171 2.028 . S
Zn171 O170 2.028 . S
Zn171 O175 2.035 . S
Zn171 O177 2.035 . S
Zn171 O178 2.028 . S
O172 C168 1.258 . S
O172 Zn173 2.035 . S
Zn173 O172 2.035 . S
Zn173 O174 2.028 . S
Zn173 O176 2.028 . S
Zn173 O179 2.035 . S
O174 Zn173 2.028 . S
O174 C180 1.247 . S
O175 Zn171 2.035 . S
O175 C180 1.258 . S
O176 C169 1.247 . S
O176 Zn173 2.028 . S
O177 C169 1.258 . S
O177 Zn171 2.035 . S
O178 Zn171 2.028 . S
O178 C181 1.247 . S
O179 Zn173 2.035 . S
O179 C181 1.258 . S
C180 O174 1.247 . S
C180 O175 1.258 . S
C181 O178 1.247 . S
C181 O179 1.258 . S
C182 O184 1.247 . S
C182 O186 1.258 . S
C183 O190 1.247 . S
C183 O191 1.258 . S
O184 C182 1.247 . S
O184 Zn185 2.028 . S
Zn185 O184 2.028 . S
Zn185 O189 2.035 . S
Zn185 O191 2.035 . S
Zn185 O192 2.028 . S
O186 C182 1.258 . S
O186 Zn187 2.035 . S
Zn187 O186 2.035 . S
Zn187 O188 2.028 . S
Zn187 O190 2.028 . S
Zn187 O193 2.035 . S
O188 Zn187 2.028 . S
O188 C194 1.247 . S
O189 Zn185 2.035 . S
O189 C194 1.258 . S
O190 C183 1.247 . S
O190 Zn187 2.028 . S
O191 C183 1.258 . S
O191 Zn185 2.035 . S
O192 Zn185 2.028 . S
O192 C195 1.247 . S
O193 Zn187 2.035 . S
O193 C195 1.258 . S
C194 O188 1.247 . S
C194 O189 1.258 . S
C195 O192 1.247 . S
C195 O193 1.258 . S
C196 O198 1.247 . S
C196 O200 1.258 . S
C197 O204 1.247 . S
C197 O205 1.258 . S
O198 C196 1.247 . S
O198 Zn199 2.028 . S
Zn199 O198 2.028 . S
Zn199 O203 2.035 . S
Zn199 O205 2.035 . S
Zn199 O206 2.028 . S
O200 C196 1.258 . S
O200 Zn201 2.035 . S
Zn201 O200 2.035 . S
Zn201 O202 2.028 . S
Zn201 O204 2.028 . S
Zn201 O207 2.035 . S
O202 Zn201 2.028 . S
O202 C208 1.247 . S
O203 Zn199 2.035 . S
O203 C208 1.258 . S
O204 C197 1.247 . S
O204 Zn201 2.028 . S
O205 C197 1.258 . S
O205 Zn199 2.035 . S
O206 Zn199 2.028 . S
O206 C209 1.247 . S
O207 Zn201 2.035 . S
O207 C209 1.258 . S
C208 O202 1.247 . S
C208 O203 1.258 . S
C209 O206 1.247 . S
C209 O207 1.258 . S
C210 O212 1.247 . S
C210 O214 1.258 . S
C211 O218 1.247 . S
C211 O219 1.258 . S
O212 C210 1.247 . S
O212 Zn213 2.028 . S
Zn213 O212 2.028 . S
Zn213 O217 2.035 . S
Zn213 O219 2.035 . S
Zn213 O220 2.028 . S
O214 C210 1.258 . S
O214 Zn215 2.035 . S
Zn215 O214 2.035 . S
Zn215 O216 2.028 . S
Zn215 O218 2.028 . S
Zn215 O221 2.035 . S
O216 Zn215 2.028 . S
O216 C222 1.247 . S
O217 Zn213 2.035 . S
O217 C222 1.258 . S
O218 C211 1.247 . S
O218 Zn215 2.028 . S
O219 C211 1.258 . S
O219 Zn213 2.035 . S
O220 Zn213 2.028 . S
O220 C223 1.247 . S
O221 Zn215 2.035 . S
O221 C223 1.258 . S
C222 O216 1.247 . S
C222 O217 1.258 . S
C223 O220 1.247 . S
C223 O221 1.258 . S
C224 O226 1.247 . S
C224 O228 1.258 . S
C225 O232 1.247 . S
C225 O233 1.258 . S
O226 C224 1.247 . S
O226 Zn227 2.028 . S
Zn227 O226 2.028 . S
Zn227 O231 2.035 . S
Zn227 O233 2.035 . S
Zn227 O234 2.028 . S
O228 C224 1.258 . S
O228 Zn229 2.035 . S
Zn229 O228 2.035 . S
Zn229 O230 2.028 . S
Zn229 O232 2.028 . S
Zn229 O235 2.035 . S
O230 Zn229 2.028 . S
O230 C236 1.247 . S
O231 Zn227 2.035 . S
O231 C236 1.258 . S
O232 C225 1.247 . S
O232 Zn229 2.028 . S
O233 C225 1.258 . S
O233 Zn227 2.035 . S
O234 Zn227 2.028 . S
O234 C237 1.247 . S
O235 Zn229 2.035 . S
O235 C237 1.258 . S
C236 O230 1.247 . S
C236 O231 1.258 . S
C237 O234 1.247 . S
C237 O235 1.258 . S
C238 O240 1.247 . S
C238 O242 1.258 . S
C239 O246 1.247 . S
C239 O247 1.258 . S
O240 C238 1.247 . S
O240 Zn241 2.028 . S
Zn241 O240 2.028 . S
Zn241 O245 2.035 . S
Zn241 O247 2.035 . S
Zn241 O248 2.028 . S
O242 C238 1.258 . S
O242 Zn243 2.035 . S
Zn243 O242 2.035 . S
Zn243 O244 2.028 . S
Zn243 O246 2.028 . S
Zn243 O249 2.035 . S
O244 Zn243 2.028 . S
O244 C250 1.247 . S
O245 Zn241 2.035 . S
O245 C250 1.258 . S
O246 C239 1.247 . S
O246 Zn243 2.028 . S
O247 C239 1.258 . S
O247 Zn241 2.035 . S
O248 Zn241 2.028 . S
O248 C251 1.247 . S
O249 Zn243 2.035 . S
O249 C251 1.258 . S
C250 O244 1.247 . S
C250 O245 1.258 . S
C251 O248 1.247 . S
C251 O249 1.258 . S
C252 O254 1.247 . S
C252 O256 1.258 . S
C253 O260 1.247 . S
C253 O261 1.258 . S
O254 C252 1.247 . S
O254 Zn255 2.028 . S
Zn255 O254 2.028 . S
Zn255 O259 2.035 . S
Zn255 O261 2.035 . S
Zn255 O262 2.028 . S
O256 C252 1.258 . S
O256 Zn257 2.035 . S
Zn257 O256 2.035 . S
Zn257 O258 2.028 . S
Zn257 O260 2.028 . S
Zn257 O263 2.035 . S
O258 Zn257 2.028 . S
O258 C264 1.247 . S
O259 Zn255 2.035 . S
O259 C264 1.258 . S
O260 C253 1.247 . S
O260 Zn257 2.028 . S
O261 C253 1.258 . S
O261 Zn255 2.035 . S
O262 Zn255 2.028 . S
O262 C265 1.247 . S
O263 Zn257 2.035 . S
O263 C265 1.258 . S
C264 O258 1.247 . S
C264 O259 1.258 . S
C265 O262 1.247 . S
C265 O263 1.258 . S
C266 O268 1.247 . S
C266 O270 1.258 . S
C267 O274 1.247 . S
C267 O275 1.258 . S
O268 C266 1.247 . S
O268 Zn269 2.028 . S
Zn269 O268 2.028 . S
Zn269 O273 2.035 . S
Zn269 O275 2.035 . S
Zn269 O276 2.028 . S
O270 C266 1.258 . S
O270 Zn271 2.035 . S
Zn271 O270 2.035 . S
Zn271 O272 2.028 . S
Zn271 O274 2.028 . S
Zn271 O277 2.035 . S
O272 Zn271 2.028 . S
O272 C278 1.247 . S
O273 Zn269 2.035 . S
O273 C278 1.258 . S
O274 C267 1.247 . S
O274 Zn271 2.028 . S
O275 C267 1.258 . S
O275 Zn269 2.035 . S
O276 Zn269 2.028 . S
O276 C279 1.247 . S
O277 Zn271 2.035 . S
O277 C279 1.258 . S
C278 O272 1.247 . S
C278 O273 1.258 . S
C279 O276 1.247 . S
C279 O277 1.258 . S
C280 O282 1.247 . S
C280 O284 1.258 . S
C281 O288 1.247 . S
C281 O289 1.258 . S
O282 C280 1.247 . S
O282 Zn283 2.028 . S
Zn283 O282 2.028 . S
Zn283 O287 2.035 . S
Zn283 O289 2.035 . S
Zn283 O290 2.028 . S
O284 C280 1.258 . S
O284 Zn285 2.035 . S
Zn285 O284 2.035 . S
Zn285 O286 2.028 . S
Zn285 O288 2.028 . S
Zn285 O291 2.035 . S
O286 Zn285 2.028 . S
O286 C292 1.247 . S
O287 Zn283 2.035 . S
O287 C292 1.258 . S
O288 C281 1.247 . S
O288 Zn285 2.028 . S
O289 C281 1.258 . S
O289 Zn283 2.035 . S
O290 Zn283 2.028 . S
O290 C293 1.247 . S
O291 Zn285 2.035 . S
O291 C293 1.258 . S
C292 O286 1.247 . S
C292 O287 1.258 . S
C293 O290 1.247 . S
C293 O291 1.258 . S
C294 O296 1.247 . S
C294 O298 1.258 . S
C295 O302 1.247 . S
C295 O303 1.258 . S
O296 C294 1.247 . S
O296 Zn297 2.028 . S
Zn297 O296 2.028 . S
Zn297 O301 2.035 . S
Zn297 O303 2.035 . S
Zn297 O304 2.028 . S
O298 C294 1.258 . S
O298 Zn299 2.035 . S
Zn299 O298 2.035 . S
Zn299 O300 2.028 . S
Zn299 O302 2.028 . S
Zn299 O305 2.035 . S
O300 Zn299 2.028 . S
O300 C306 1.247 . S
O301 Zn297 2.035 . S
O301 C306 1.258 . S
O302 C295 1.247 . S
O302 Zn299 2.028 . S
O303 C295 1.258 . S
O303 Zn297 2.035 . S
O304 Zn297 2.028 . S
O304 C307 1.247 . S
O305 Zn299 2.035 . S
O305 C307 1.258 . S
C306 O300 1.247 . S
C306 O301 1.258 . S
C307 O304 1.247 . S
C307 O305 1.258 . S
C308 O310 1.247 . S
C308 O312 1.258 . S
C309 O316 1.247 . S
C309 O317 1.258 . S
O310 C308 1.247 . S
O310 Zn311 2.028 . S
Zn311 O310 2.028 . S
Zn311 O315 2.035 . S
Zn311 O317 2.035 . S
Zn311 O318 2.028 . S
O312 C308 1.258 . S
O312 Zn313 2.035 . S
Zn313 O312 2.035 . S
Zn313 O314 2.028 . S
Zn313 O316 2.028 . S
Zn313 O319 2.035 . S
O314 Zn313 2.028 . S
O314 C320 1.247 . S
O315 Zn311 2.035 . S
O315 C320 1.258 . S
O316 C309 1.247 . S
O316 Zn313 2.028 . S
O317 C309 1.258 . S
O317 Zn311 2.035 . S
O318 Zn311 2.028 . S
O318 C321 1.247 . S
O319 Zn313 2.035 . S
O319 C321 1.258 . S
C320 O314 1.247 . S
C320 O315 1.258 . S
C321 O318 1.247 . S
C321 O319 1.258 . S
C322 O324 1.247 . S
C322 O326 1.258 . S
C323 O330 1.247 . S
C323 O331 1.258 . S
O324 C322 1.247 . S
O324 Zn325 2.028 . S
Zn325 O324 2.028 . S
Zn325 O329 2.035 . S
Zn325 O331 2.035 . S
Zn325 O332 2.028 . S
O326 C322 1.258 . S
O326 Zn327 2.035 . S
Zn327 O326 2.035 . S
Zn327 O328 2.028 . S
Zn327 O330 2.028 . S
Zn327 O333 2.035 . S
O328 Zn327 2.028 . S
O328 C334 1.247 . S
O329 Zn325 2.035 . S
O329 C334 1.258 . S
O330 C323 1.247 . S
O330 Zn327 2.028 . S
O331 C323 1.258 . S
O331 Zn325 2.035 . S
O332 Zn325 2.028 . S
O332 C335 1.247 . S
O333 Zn327 2.035 . S
O333 C335 1.258 . S
C334 O328 1.247 . S
C334 O329 1.258 . S
C335 O332 1.247 . S
C335 O333 1.258 . S
H336 C342 0.930 . S
H337 C346 0.930 . S
H338 C351 0.929 . S
H339 C349 0.929 . S
H340 C344 0.929 . S
H341 C350 0.929 . S
C342 H336 0.930 . S
C342 C343 1.367 . S
C342 C350 1.378 . S
C343 C342 1.367 . S
C343 C351 1.433 . S
C344 H340 0.929 . S
C344 C346 1.378 . S
C344 C348 1.350 . S
C345 C348 1.463 . S
C345 C350 1.350 . S
C345 N353 1.427 . S
C346 H337 0.930 . S
C346 C344 1.378 . S
C346 C347 1.367 . S
C347 C346 1.367 . S
C347 C349 1.433 . S
C348 C344 1.350 . S
C348 C345 1.463 . S
C348 N352 1.427 . S
C349 H339 0.929 . S
C349 C347 1.433 . S
C349 N352 1.384 . S
C350 H341 0.929 . S
C350 C342 1.378 . S
C350 C345 1.350 . S
C351 H338 0.929 . S
C351 C343 1.433 . S
C351 N353 1.384 . S
N352 C348 1.427 . S
N352 C349 1.384 . S
N353 C345 1.427 . S
N353 C351 1.384 . S
H354 C360 0.930 . S
H355 C364 0.930 . S
H356 C369 0.929 . S
H357 C367 0.929 . S
H358 C362 0.929 . S
H359 C368 0.929 . S
C360 H354 0.930 . S
C360 C361 1.367 . S
C360 C368 1.378 . S
C361 C360 1.367 . S
C361 C369 1.433 . S
C362 H358 0.929 . S
C362 C364 1.378 . S
C362 C366 1.350 . S
C363 C366 1.463 . S
C363 C368 1.350 . S
C363 N371 1.427 . S
C364 H355 0.930 . S
C364 C362 1.378 . S
C364 C365 1.367 . S
C365 C364 1.367 . S
C365 C367 1.433 . S
C366 C362 1.350 . S
C366 C363 1.463 . S
C366 N370 1.427 . S
C367 H357 0.929 . S
C367 C365 1.433 . S
C367 N370 1.384 . S
C368 H359 0.929 . S
C368 C360 1.378 . S
C368 C363 1.350 . S
C369 H356 0.929 . S
C369 C361 1.433 . S
C369 N371 1.384 . S
N370 C366 1.427 . S
N370 C367 1.384 . S
N371 C363 1.427 . S
N371 C369 1.384 . S
H372 C378 0.930 . S
H373 C382 0.930 . S
H374 C387 0.929 . S
H375 C385 0.929 . S
H376 C380 0.929 . S
H377 C386 0.929 . S
C378 H372 0.930 . S
C378 C379 1.367 . S
C378 C386 1.378 . S
C379 C378 1.367 . S
C379 C387 1.433 . S
C380 H376 0.929 . S
C380 C382 1.378 . S
C380 C384 1.350 . S
C381 C384 1.463 . S
C381 C386 1.350 . S
C381 N389 1.427 . S
C382 H373 0.930 . S
C382 C380 1.378 . S
C382 C383 1.367 . S
C383 C382 1.367 . S
C383 C385 1.433 . S
C384 C380 1.350 . S
C384 C381 1.463 . S
C384 N388 1.427 . S
C385 H375 0.929 . S
C385 C383 1.433 . S
C385 N388 1.384 . S
C386 H377 0.929 . S
C386 C378 1.378 . S
C386 C381 1.350 . S
C387 H374 0.929 . S
C387 C379 1.433 . S
C387 N389 1.384 . S
N388 C384 1.427 . S
N388 C385 1.384 . S
N389 C381 1.427 . S
N389 C387 1.384 . S
H390 C396 0.930 . S
H391 C400 0.930 . S
H392 C405 0.929 . S
H393 C403 0.929 . S
H394 C398 0.929 . S
H395 C404 0.929 . S
C396 H390 0.930 . S
C396 C397 1.367 . S
C396 C404 1.378 . S
C397 C396 1.367 . S
C397 C405 1.433 . S
C398 H394 0.929 . S
C398 C400 1.378 . S
C398 C402 1.350 . S
C399 C402 1.463 . S
C399 C404 1.350 . S
C399 N407 1.427 . S
C400 H391 0.930 . S
C400 C398 1.378 . S
C400 C401 1.367 . S
C401 C400 1.367 . S
C401 C403 1.433 . S
C402 C398 1.350 . S
C402 C399 1.463 . S
C402 N406 1.427 . S
C403 H393 0.929 . S
C403 C401 1.433 . S
C403 N406 1.384 . S
C404 H395 0.929 . S
C404 C396 1.378 . S
C404 C399 1.350 . S
C405 H392 0.929 . S
C405 C397 1.433 . S
C405 N407 1.384 . S
N406 C402 1.427 . S
N406 C403 1.384 . S
N407 C399 1.427 . S
N407 C405 1.384 . S
H408 C414 0.930 . S
H409 C418 0.930 . S
H410 C423 0.929 . S
H411 C421 0.929 . S
H412 C416 0.929 . S
H413 C422 0.929 . S
C414 H408 0.930 . S
C414 C415 1.367 . S
C414 C422 1.378 . S
C415 C414 1.367 . S
C415 C423 1.433 . S
C416 H412 0.929 . S
C416 C418 1.378 . S
C416 C420 1.350 . S
C417 C420 1.463 . S
C417 C422 1.350 . S
C417 N425 1.427 . S
C418 H409 0.930 . S
C418 C416 1.378 . S
C418 C419 1.367 . S
C419 C418 1.367 . S
C419 C421 1.433 . S
C420 C416 1.350 . S
C420 C417 1.463 . S
C420 N424 1.427 . S
C421 H411 0.929 . S
C421 C419 1.433 . S
C421 N424 1.384 . S
C422 H413 0.929 . S
C422 C414 1.378 . S
C422 C417 1.350 . S
C423 H410 0.929 . S
C423 C415 1.433 . S
C423 N425 1.384 . S
N424 C420 1.427 . S
N424 C421 1.384 . S
N425 C417 1.427 . S
N425 C423 1.384 . S
H426 C432 0.930 . S
H427 C436 0.930 . S
H428 C441 0.929 . S
H429 C439 0.929 . S
H430 C434 0.929 . S
H431 C440 0.929 . S
C432 H426 0.930 . S
C432 C433 1.367 . S
C432 C440 1.378 . S
C433 C432 1.367 . S
C433 C441 1.433 . S
C434 H430 0.929 . S
C434 C436 1.378 . S
C434 C438 1.350 . S
C435 C438 1.463 . S
C435 C440 1.350 . S
C435 N443 1.427 . S
C436 H427 0.930 . S
C436 C434 1.378 . S
C436 C437 1.367 . S
C437 C436 1.367 . S
C437 C439 1.433 . S
C438 C434 1.350 . S
C438 C435 1.463 . S
C438 N442 1.427 . S
C439 H429 0.929 . S
C439 C437 1.433 . S
C439 N442 1.384 . S
C440 H431 0.929 . S
C440 C432 1.378 . S
C440 C435 1.350 . S
C441 H428 0.929 . S
C441 C433 1.433 . S
C441 N443 1.384 . S
N442 C438 1.427 . S
N442 C439 1.384 . S
N443 C435 1.427 . S
N443 C441 1.384 . S
H444 C450 0.930 . S
H445 C454 0.930 . S
H446 C459 0.929 . S
H447 C457 0.929 . S
H448 C452 0.929 . S
H449 C458 0.929 . S
C450 H444 0.930 . S
C450 C451 1.367 . S
C450 C458 1.378 . S
C451 C450 1.367 . S
C451 C459 1.433 . S
C452 H448 0.929 . S
C452 C454 1.378 . S
C452 C456 1.350 . S
C453 C456 1.463 . S
C453 C458 1.350 . S
C453 N461 1.427 . S
C454 H445 0.930 . S
C454 C452 1.378 . S
C454 C455 1.367 . S
C455 C454 1.367 . S
C455 C457 1.433 . S
C456 C452 1.350 . S
C456 C453 1.463 . S
C456 N460 1.427 . S
C457 H447 0.929 . S
C457 C455 1.433 . S
C457 N460 1.384 . S
C458 H449 0.929 . S
C458 C450 1.378 . S
C458 C453 1.350 . S
C459 H446 0.929 . S
C459 C451 1.433 . S
C459 N461 1.384 . S
N460 C456 1.427 . S
N460 C457 1.384 . S
N461 C453 1.427 . S
N461 C459 1.384 . S
H462 C468 0.930 . S
H463 C472 0.930 . S
H464 C477 0.929 . S
H465 C475 0.929 . S
H466 C470 0.929 . S
H467 C476 0.929 . S
C468 H462 0.930 . S
C468 C469 1.367 . S
C468 C476 1.378 . S
C469 C468 1.367 . S
C469 C477 1.433 . S
C470 H466 0.929 . S
C470 C472 1.378 . S
C470 C474 1.350 . S
C471 C474 1.463 . S
C471 C476 1.350 . S
C471 N479 1.427 . S
C472 H463 0.930 . S
C472 C470 1.378 . S
C472 C473 1.367 . S
C473 C472 1.367 . S
C473 C475 1.433 . S
C474 C470 1.350 . S
C474 C471 1.463 . S
C474 N478 1.427 . S
C475 H465 0.929 . S
C475 C473 1.433 . S
C475 N478 1.384 . S
C476 H467 0.929 . S
C476 C468 1.378 . S
C476 C471 1.350 . S
C477 H464 0.929 . S
C477 C469 1.433 . S
C477 N479 1.384 . S
N478 C474 1.427 . S
N478 C475 1.384 . S
N479 C471 1.427 . S
N479 C477 1.384 . S
H480 C486 0.930 . S
H481 C490 0.930 . S
H482 C495 0.929 . S
H483 C493 0.929 . S
H484 C488 0.929 . S
H485 C494 0.929 . S
C486 H480 0.930 . S
C486 C487 1.367 . S
C486 C494 1.378 . S
C487 C486 1.367 . S
C487 C495 1.433 . S
C488 H484 0.929 . S
C488 C490 1.378 . S
C488 C492 1.350 . S
C489 C492 1.463 . S
C489 C494 1.350 . S
C489 N497 1.427 . S
C490 H481 0.930 . S
C490 C488 1.378 . S
C490 C491 1.367 . S
C491 C490 1.367 . S
C491 C493 1.433 . S
C492 C488 1.350 . S
C492 C489 1.463 . S
C492 N496 1.427 . S
C493 H483 0.929 . S
C493 C491 1.433 . S
C493 N496 1.384 . S
C494 H485 0.929 . S
C494 C486 1.378 . S
C494 C489 1.350 . S
C495 H482 0.929 . S
C495 C487 1.433 . S
C495 N497 1.384 . S
N496 C492 1.427 . S
N496 C493 1.384 . S
N497 C489 1.427 . S
N497 C495 1.384 . S
H498 C504 0.930 . S
H499 C508 0.930 . S
H500 C513 0.929 . S
H501 C511 0.929 . S
H502 C506 0.929 . S
H503 C512 0.929 . S
C504 H498 0.930 . S
C504 C505 1.367 . S
C504 C512 1.378 . S
C505 C504 1.367 . S
C505 C513 1.433 . S
C506 H502 0.929 . S
C506 C508 1.378 . S
C506 C510 1.350 . S
C507 C510 1.463 . S
C507 C512 1.350 . S
C507 N515 1.427 . S
C508 H499 0.930 . S
C508 C506 1.378 . S
C508 C509 1.367 . S
C509 C508 1.367 . S
C509 C511 1.433 . S
C510 C506 1.350 . S
C510 C507 1.463 . S
C510 N514 1.427 . S
C511 H501 0.929 . S
C511 C509 1.433 . S
C511 N514 1.384 . S
C512 H503 0.929 . S
C512 C504 1.378 . S
C512 C507 1.350 . S
C513 H500 0.929 . S
C513 C505 1.433 . S
C513 N515 1.384 . S
N514 C510 1.427 . S
N514 C511 1.384 . S
N515 C507 1.427 . S
N515 C513 1.384 . S
H516 C522 0.930 . S
H517 C526 0.930 . S
H518 C531 0.929 . S
H519 C529 0.929 . S
H520 C524 0.929 . S
H521 C530 0.929 . S
C522 H516 0.930 . S
C522 C523 1.367 . S
C522 C530 1.378 . S
C523 C522 1.367 . S
C523 C531 1.433 . S
C524 H520 0.929 . S
C524 C526 1.378 . S
C524 C528 1.350 . S
C525 C528 1.463 . S
C525 C530 1.350 . S
C525 N533 1.427 . S
C526 H517 0.930 . S
C526 C524 1.378 . S
C526 C527 1.367 . S
C527 C526 1.367 . S
C527 C529 1.433 . S
C528 C524 1.350 . S
C528 C525 1.463 . S
C528 N532 1.427 . S
C529 H519 0.929 . S
C529 C527 1.433 . S
C529 N532 1.384 . S
C530 H521 0.929 . S
C530 C522 1.378 . S
C530 C525 1.350 . S
C531 H518 0.929 . S
C531 C523 1.433 . S
C531 N533 1.384 . S
N532 C528 1.427 . S
N532 C529 1.384 . S
N533 C525 1.427 . S
N533 C531 1.384 . S
H534 C540 0.930 . S
H535 C544 0.930 . S
H536 C549 0.929 . S
H537 C547 0.929 . S
H538 C542 0.929 . S
H539 C548 0.929 . S
C540 H534 0.930 . S
C540 C541 1.367 . S
C540 C548 1.378 . S
C541 C540 1.367 . S
C541 C549 1.433 . S
C542 H538 0.929 . S
C542 C544 1.378 . S
C542 C546 1.350 . S
C543 C546 1.463 . S
C543 C548 1.350 . S
C543 N551 1.427 . S
C544 H535 0.930 . S
C544 C542 1.378 . S
C544 C545 1.367 . S
C545 C544 1.367 . S
C545 C547 1.433 . S
C546 C542 1.350 . S
C546 C543 1.463 . S
C546 N550 1.427 . S
C547 H537 0.929 . S
C547 C545 1.433 . S
C547 N550 1.384 . S
C548 H539 0.929 . S
C548 C540 1.378 . S
C548 C543 1.350 . S
C549 H536 0.929 . S
C549 C541 1.433 . S
C549 N551 1.384 . S
N550 C546 1.427 . S
N550 C547 1.384 . S
N551 C543 1.427 . S
N551 C549 1.384 . S
H552 C558 0.930 . S
H553 C562 0.930 . S
H554 C567 0.929 . S
H555 C565 0.929 . S
H556 C560 0.929 . S
H557 C566 0.929 . S
C558 H552 0.930 . S
C558 C559 1.367 . S
C558 C566 1.378 . S
C559 C558 1.367 . S
C559 C567 1.433 . S
C560 H556 0.929 . S
C560 C562 1.378 . S
C560 C564 1.350 . S
C561 C564 1.463 . S
C561 C566 1.350 . S
C561 N569 1.427 . S
C562 H553 0.930 . S
C562 C560 1.378 . S
C562 C563 1.367 . S
C563 C562 1.367 . S
C563 C565 1.433 . S
C564 C560 1.350 . S
C564 C561 1.463 . S
C564 N568 1.427 . S
C565 H555 0.929 . S
C565 C563 1.433 . S
C565 N568 1.384 . S
C566 H557 0.929 . S
C566 C558 1.378 . S
C566 C561 1.350 . S
C567 H554 0.929 . S
C567 C559 1.433 . S
C567 N569 1.384 . S
N568 C564 1.427 . S
N568 C565 1.384 . S
N569 C561 1.427 . S
N569 C567 1.384 . S
H570 C576 0.930 . S
H571 C580 0.930 . S
H572 C585 0.929 . S
H573 C583 0.929 . S
H574 C578 0.929 . S
H575 C584 0.929 . S
C576 H570 0.930 . S
C576 C577 1.367 . S
C576 C584 1.378 . S
C577 C576 1.367 . S
C577 C585 1.433 . S
C578 H574 0.929 . S
C578 C580 1.378 . S
C578 C582 1.350 . S
C579 C582 1.463 . S
C579 C584 1.350 . S
C579 N587 1.427 . S
C580 H571 0.930 . S
C580 C578 1.378 . S
C580 C581 1.367 . S
C581 C580 1.367 . S
C581 C583 1.433 . S
C582 C578 1.350 . S
C582 C579 1.463 . S
C582 N586 1.427 . S
C583 H573 0.929 . S
C583 C581 1.433 . S
C583 N586 1.384 . S
C584 H575 0.929 . S
C584 C576 1.378 . S
C584 C579 1.350 . S
C585 H572 0.929 . S
C585 C577 1.433 . S
C585 N587 1.384 . S
N586 C582 1.427 . S
N586 C583 1.384 . S
N587 C579 1.427 . S
N587 C585 1.384 . S
H588 C594 0.930 . S
H589 C598 0.930 . S
H590 C603 0.929 . S
H591 C601 0.929 . S
H592 C596 0.929 . S
H593 C602 0.929 . S
C594 H588 0.930 . S
C594 C595 1.367 . S
C594 C602 1.378 . S
C595 C594 1.367 . S
C595 C603 1.433 . S
C596 H592 0.929 . S
C596 C598 1.378 . S
C596 C600 1.350 . S
C597 C600 1.463 . S
C597 C602 1.350 . S
C597 N605 1.427 . S
C598 H589 0.930 . S
C598 C596 1.378 . S
C598 C599 1.367 . S
C599 C598 1.367 . S
C599 C601 1.433 . S
C600 C596 1.350 . S
C600 C597 1.463 . S
C600 N604 1.427 . S
C601 H591 0.929 . S
C601 C599 1.433 . S
C601 N604 1.384 . S
C602 H593 0.929 . S
C602 C594 1.378 . S
C602 C597 1.350 . S
C603 H590 0.929 . S
C603 C595 1.433 . S
C603 N605 1.384 . S
N604 C600 1.427 . S
N604 C601 1.384 . S
N605 C597 1.427 . S
N605 C603 1.384 . S
H606 C612 0.930 . S
H607 C616 0.930 . S
H608 C621 0.929 . S
H609 C619 0.929 . S
H610 C614 0.929 . S
H611 C620 0.929 . S
C612 H606 0.930 . S
C612 C613 1.367 . S
C612 C620 1.378 . S
C613 C612 1.367 . S
C613 C621 1.433 . S
C614 H610 0.929 . S
C614 C616 1.378 . S
C614 C618 1.350 . S
C615 C618 1.463 . S
C615 C620 1.350 . S
C615 N623 1.427 . S
C616 H607 0.930 . S
C616 C614 1.378 . S
C616 C617 1.367 . S
C617 C616 1.367 . S
C617 C619 1.433 . S
C618 C614 1.350 . S
C618 C615 1.463 . S
C618 N622 1.427 . S
C619 H609 0.929 . S
C619 C617 1.433 . S
C619 N622 1.384 . S
C620 H611 0.929 . S
C620 C612 1.378 . S
C620 C615 1.350 . S
C621 H608 0.929 . S
C621 C613 1.433 . S
C621 N623 1.384 . S
N622 C618 1.427 . S
N622 C619 1.384 . S
N623 C615 1.427 . S
N623 C621 1.384 . S
H624 C630 0.930 . S
H625 C634 0.930 . S
H626 C639 0.929 . S
H627 C637 0.929 . S
H628 C632 0.929 . S
H629 C638 0.929 . S
C630 H624 0.930 . S
C630 C631 1.367 . S
C630 C638 1.378 . S
C631 C630 1.367 . S
C631 C639 1.433 . S
C632 H628 0.929 . S
C632 C634 1.378 . S
C632 C636 1.350 . S
C633 C636 1.463 . S
C633 C638 1.350 . S
C633 N641 1.427 . S
C634 H625 0.930 . S
C634 C632 1.378 . S
C634 C635 1.367 . S
C635 C634 1.367 . S
C635 C637 1.433 . S
C636 C632 1.350 . S
C636 C633 1.463 . S
C636 N640 1.427 . S
C637 H627 0.929 . S
C637 C635 1.433 . S
C637 N640 1.384 . S
C638 H629 0.929 . S
C638 C630 1.378 . S
C638 C633 1.350 . S
C639 H626 0.929 . S
C639 C631 1.433 . S
C639 N641 1.384 . S
N640 C636 1.427 . S
N640 C637 1.384 . S
N641 C633 1.427 . S
N641 C639 1.384 . S
H642 C648 0.930 . S
H643 C652 0.930 . S
H644 C657 0.929 . S
H645 C655 0.929 . S
H646 C650 0.929 . S
H647 C656 0.929 . S
C648 H642 0.930 . S
C648 C649 1.367 . S
C648 C656 1.378 . S
C649 C648 1.367 . S
C649 C657 1.433 . S
C650 H646 0.929 . S
C650 C652 1.378 . S
C650 C654 1.350 . S
C651 C654 1.463 . S
C651 C656 1.350 . S
C651 N659 1.427 . S
C652 H643 0.930 . S
C652 C650 1.378 . S
C652 C653 1.367 . S
C653 C652 1.367 . S
C653 C655 1.433 . S
C654 C650 1.350 . S
C654 C651 1.463 . S
C654 N658 1.427 . S
C655 H645 0.929 . S
C655 C653 1.433 . S
C655 N658 1.384 . S
C656 H647 0.929 . S
C656 C648 1.378 . S
C656 C651 1.350 . S
C657 H644 0.929 . S
C657 C649 1.433 . S
C657 N659 1.384 . S
N658 C654 1.427 . S
N658 C655 1.384 . S
N659 C651 1.427 . S
N659 C657 1.384 . S
H660 C666 0.930 . S
H661 C670 0.930 . S
H662 C675 0.929 . S
H663 C673 0.929 . S
H664 C668 0.929 . S
H665 C674 0.929 . S
C666 H660 0.930 . S
C666 C667 1.367 . S
C666 C674 1.378 . S
C667 C666 1.367 . S
C667 C675 1.433 . S
C668 H664 0.929 . S
C668 C670 1.378 . S
C668 C672 1.350 . S
C669 C672 1.463 . S
C669 C674 1.350 . S
C669 N677 1.427 . S
C670 H661 0.930 . S
C670 C668 1.378 . S
C670 C671 1.367 . S
C671 C670 1.367 . S
C671 C673 1.433 . S
C672 C668 1.350 . S
C672 C669 1.463 . S
C672 N676 1.427 . S
C673 H663 0.929 . S
C673 C671 1.433 . S
C673 N676 1.384 . S
C674 H665 0.929 . S
C674 C666 1.378 . S
C674 C669 1.350 . S
C675 H662 0.929 . S
C675 C667 1.433 . S
C675 N677 1.384 . S
N676 C672 1.427 . S
N676 C673 1.384 . S
N677 C669 1.427 . S
N677 C675 1.384 . S
H678 C684 0.930 . S
H679 C688 0.930 . S
H680 C693 0.929 . S
H681 C691 0.929 . S
H682 C686 0.929 . S
H683 C692 0.929 . S
C684 H678 0.930 . S
C684 C685 1.367 . S
C684 C692 1.378 . S
C685 C684 1.367 . S
C685 C693 1.433 . S
C686 H682 0.929 . S
C686 C688 1.378 . S
C686 C690 1.350 . S
C687 C690 1.463 . S
C687 C692 1.350 . S
C687 N695 1.427 . S
C688 H679 0.930 . S
C688 C686 1.378 . S
C688 C689 1.367 . S
C689 C688 1.367 . S
C689 C691 1.433 . S
C690 C686 1.350 . S
C690 C687 1.463 . S
C690 N694 1.427 . S
C691 H681 0.929 . S
C691 C689 1.433 . S
C691 N694 1.384 . S
C692 H683 0.929 . S
C692 C684 1.378 . S
C692 C687 1.350 . S
C693 H680 0.929 . S
C693 C685 1.433 . S
C693 N695 1.384 . S
N694 C690 1.427 . S
N694 C691 1.384 . S
N695 C687 1.427 . S
N695 C693 1.384 . S
H696 C702 0.930 . S
H697 C706 0.930 . S
H698 C711 0.929 . S
H699 C709 0.929 . S
H700 C704 0.929 . S
H701 C710 0.929 . S
C702 H696 0.930 . S
C702 C703 1.367 . S
C702 C710 1.378 . S
C703 C702 1.367 . S
C703 C711 1.433 . S
C704 H700 0.929 . S
C704 C706 1.378 . S
C704 C708 1.350 . S
C705 C708 1.463 . S
C705 C710 1.350 . S
C705 N713 1.427 . S
C706 H697 0.930 . S
C706 C704 1.378 . S
C706 C707 1.367 . S
C707 C706 1.367 . S
C707 C709 1.433 . S
C708 C704 1.350 . S
C708 C705 1.463 . S
C708 N712 1.427 . S
C709 H699 0.929 . S
C709 C707 1.433 . S
C709 N712 1.384 . S
C710 H701 0.929 . S
C710 C702 1.378 . S
C710 C705 1.350 . S
C711 H698 0.929 . S
C711 C703 1.433 . S
C711 N713 1.384 . S
N712 C708 1.427 . S
N712 C709 1.384 . S
N713 C705 1.427 . S
N713 C711 1.384 . S
H714 C720 0.930 . S
H715 C724 0.930 . S
H716 C729 0.929 . S
H717 C727 0.929 . S
H718 C722 0.929 . S
H719 C728 0.929 . S
C720 H714 0.930 . S
C720 C721 1.367 . S
C720 C728 1.378 . S
C721 C720 1.367 . S
C721 C729 1.433 . S
C722 H718 0.929 . S
C722 C724 1.378 . S
C722 C726 1.350 . S
C723 C726 1.463 . S
C723 C728 1.350 . S
C723 N731 1.427 . S
C724 H715 0.930 . S
C724 C722 1.378 . S
C724 C725 1.367 . S
C725 C724 1.367 . S
C725 C727 1.433 . S
C726 C722 1.350 . S
C726 C723 1.463 . S
C726 N730 1.427 . S
C727 H717 0.929 . S
C727 C725 1.433 . S
C727 N730 1.384 . S
C728 H719 0.929 . S
C728 C720 1.378 . S
C728 C723 1.350 . S
C729 H716 0.929 . S
C729 C721 1.433 . S
C729 N731 1.384 . S
N730 C726 1.427 . S
N730 C727 1.384 . S
N731 C723 1.427 . S
N731 C729 1.384 . S
H732 C738 0.930 . S
H733 C742 0.930 . S
H734 C747 0.929 . S
H735 C745 0.929 . S
H736 C740 0.929 . S
H737 C746 0.929 . S
C738 H732 0.930 . S
C738 C739 1.367 . S
C738 C746 1.378 . S
C739 C738 1.367 . S
C739 C747 1.433 . S
C740 H736 0.929 . S
C740 C742 1.378 . S
C740 C744 1.350 . S
C741 C744 1.463 . S
C741 C746 1.350 . S
C741 N749 1.427 . S
C742 H733 0.930 . S
C742 C740 1.378 . S
C742 C743 1.367 . S
C743 C742 1.367 . S
C743 C745 1.433 . S
C744 C740 1.350 . S
C744 C741 1.463 . S
C744 N748 1.427 . S
C745 H735 0.929 . S
C745 C743 1.433 . S
C745 N748 1.384 . S
C746 H737 0.929 . S
C746 C738 1.378 . S
C746 C741 1.350 . S
C747 H734 0.929 . S
C747 C739 1.433 . S
C747 N749 1.384 . S
N748 C744 1.427 . S
N748 C745 1.384 . S
N749 C741 1.427 . S
N749 C747 1.384 . S
H750 C756 0.930 . S
H751 C760 0.930 . S
H752 C765 0.929 . S
H753 C763 0.929 . S
H754 C758 0.929 . S
H755 C764 0.929 . S
C756 H750 0.930 . S
C756 C757 1.367 . S
C756 C764 1.378 . S
C757 C756 1.367 . S
C757 C765 1.433 . S
C758 H754 0.929 . S
C758 C760 1.378 . S
C758 C762 1.350 . S
C759 C762 1.463 . S
C759 C764 1.350 . S
C759 N767 1.427 . S
C760 H751 0.930 . S
C760 C758 1.378 . S
C760 C761 1.367 . S
C761 C760 1.367 . S
C761 C763 1.433 . S
C762 C758 1.350 . S
C762 C759 1.463 . S
C762 N766 1.427 . S
C763 H753 0.929 . S
C763 C761 1.433 . S
C763 N766 1.384 . S
C764 H755 0.929 . S
C764 C756 1.378 . S
C764 C759 1.350 . S
C765 H752 0.929 . S
C765 C757 1.433 . S
C765 N767 1.384 . S
N766 C762 1.427 . S
N766 C763 1.384 . S
N767 C759 1.427 . S
N767 C765 1.384 . S
H768 C774 0.930 . S
H769 C778 0.930 . S
H770 C783 0.929 . S
H771 C781 0.929 . S
H772 C776 0.929 . S
H773 C782 0.929 . S
C774 H768 0.930 . S
C774 C775 1.367 . S
C774 C782 1.378 . S
C775 C774 1.367 . S
C775 C783 1.433 . S
C776 H772 0.929 . S
C776 C778 1.378 . S
C776 C780 1.350 . S
C777 C780 1.463 . S
C777 C782 1.350 . S
C777 N785 1.427 . S
C778 H769 0.930 . S
C778 C776 1.378 . S
C778 C779 1.367 . S
C779 C778 1.367 . S
C779 C781 1.433 . S
C780 C776 1.350 . S
C780 C777 1.463 . S
C780 N784 1.427 . S
C781 H771 0.929 . S
C781 C779 1.433 . S
C781 N784 1.384 . S
C782 H773 0.929 . S
C782 C774 1.378 . S
C782 C777 1.350 . S
C783 H770 0.929 . S
C783 C775 1.433 . S
C783 N785 1.384 . S
N784 C780 1.427 . S
N784 C781 1.384 . S
N785 C777 1.427 . S
N785 C783 1.384 . S
H786 C792 0.930 . S
H787 C796 0.930 . S
H788 C801 0.929 . S
H789 C799 0.929 . S
H790 C794 0.929 . S
H791 C800 0.929 . S
C792 H786 0.930 . S
C792 C793 1.367 . S
C792 C800 1.378 . S
C793 C792 1.367 . S
C793 C801 1.433 . S
C794 H790 0.929 . S
C794 C796 1.378 . S
C794 C798 1.350 . S
C795 C798 1.463 . S
C795 C800 1.350 . S
C795 N803 1.427 . S
C796 H787 0.930 . S
C796 C794 1.378 . S
C796 C797 1.367 . S
C797 C796 1.367 . S
C797 C799 1.433 . S
C798 C794 1.350 . S
C798 C795 1.463 . S
C798 N802 1.427 . S
C799 H789 0.929 . S
C799 C797 1.433 . S
C799 N802 1.384 . S
C800 H791 0.929 . S
C800 C792 1.378 . S
C800 C795 1.350 . S
C801 H788 0.929 . S
C801 C793 1.433 . S
C801 N803 1.384 . S
N802 C798 1.427 . S
N802 C799 1.384 . S
N803 C795 1.427 . S
N803 C801 1.384 . S
H804 C810 0.930 . S
H805 C814 0.930 . S
H806 C819 0.929 . S
H807 C817 0.929 . S
H808 C812 0.929 . S
H809 C818 0.929 . S
C810 H804 0.930 . S
C810 C811 1.367 . S
C810 C818 1.378 . S
C811 C810 1.367 . S
C811 C819 1.433 . S
C812 H808 0.929 . S
C812 C814 1.378 . S
C812 C816 1.350 . S
C813 C816 1.463 . S
C813 C818 1.350 . S
C813 N821 1.427 . S
C814 H805 0.930 . S
C814 C812 1.378 . S
C814 C815 1.367 . S
C815 C814 1.367 . S
C815 C817 1.433 . S
C816 C812 1.350 . S
C816 C813 1.463 . S
C816 N820 1.427 . S
C817 H807 0.929 . S
C817 C815 1.433 . S
C817 N820 1.384 . S
C818 H809 0.929 . S
C818 C810 1.378 . S
C818 C813 1.350 . S
C819 H806 0.929 . S
C819 C811 1.433 . S
C819 N821 1.384 . S
N820 C816 1.427 . S
N820 C817 1.384 . S
N821 C813 1.427 . S
N821 C819 1.384 . S
H822 C828 0.930 . S
H823 C832 0.930 . S
H824 C837 0.929 . S
H825 C835 0.929 . S
H826 C830 0.929 . S
H827 C836 0.929 . S
C828 H822 0.930 . S
C828 C829 1.367 . S
C828 C836 1.378 . S
C829 C828 1.367 . S
C829 C837 1.433 . S
C830 H826 0.929 . S
C830 C832 1.378 . S
C830 C834 1.350 . S
C831 C834 1.463 . S
C831 C836 1.350 . S
C831 N839 1.427 . S
C832 H823 0.930 . S
C832 C830 1.378 . S
C832 C833 1.367 . S
C833 C832 1.367 . S
C833 C835 1.433 . S
C834 C830 1.350 . S
C834 C831 1.463 . S
C834 N838 1.427 . S
C835 H825 0.929 . S
C835 C833 1.433 . S
C835 N838 1.384 . S
C836 H827 0.929 . S
C836 C828 1.378 . S
C836 C831 1.350 . S
C837 H824 0.929 . S
C837 C829 1.433 . S
C837 N839 1.384 . S
N838 C834 1.427 . S
N838 C835 1.384 . S
N839 C831 1.427 . S
N839 C837 1.384 . S
H840 C846 0.930 . S
H841 C850 0.930 . S
H842 C855 0.929 . S
H843 C853 0.929 . S
H844 C848 0.929 . S
H845 C854 0.929 . S
C846 H840 0.930 . S
C846 C847 1.367 . S
C846 C854 1.378 . S
C847 C846 1.367 . S
C847 C855 1.433 . S
C848 H844 0.929 . S
C848 C850 1.378 . S
C848 C852 1.350 . S
C849 C852 1.463 . S
C849 C854 1.350 . S
C849 N857 1.427 . S
C850 H841 0.930 . S
C850 C848 1.378 . S
C850 C851 1.367 . S
C851 C850 1.367 . S
C851 C853 1.433 . S
C852 C848 1.350 . S
C852 C849 1.463 . S
C852 N856 1.427 . S
C853 H843 0.929 . S
C853 C851 1.433 . S
C853 N856 1.384 . S
C854 H845 0.929 . S
C854 C846 1.378 . S
C854 C849 1.350 . S
C855 H842 0.929 . S
C855 C847 1.433 . S
C855 N857 1.384 . S
N856 C852 1.427 . S
N856 C853 1.384 . S
N857 C849 1.427 . S
N857 C855 1.384 . S
H858 C864 0.930 . S
H859 C868 0.930 . S
H860 C873 0.929 . S
H861 C871 0.929 . S
H862 C866 0.929 . S
H863 C872 0.929 . S
C864 H858 0.930 . S
C864 C865 1.367 . S
C864 C872 1.378 . S
C865 C864 1.367 . S
C865 C873 1.433 . S
C866 H862 0.929 . S
C866 C868 1.378 . S
C866 C870 1.350 . S
C867 C870 1.463 . S
C867 C872 1.350 . S
C867 N875 1.427 . S
C868 H859 0.930 . S
C868 C866 1.378 . S
C868 C869 1.367 . S
C869 C868 1.367 . S
C869 C871 1.433 . S
C870 C866 1.350 . S
C870 C867 1.463 . S
C870 N874 1.427 . S
C871 H861 0.929 . S
C871 C869 1.433 . S
C871 N874 1.384 . S
C872 H863 0.929 . S
C872 C864 1.378 . S
C872 C867 1.350 . S
C873 H860 0.929 . S
C873 C865 1.433 . S
C873 N875 1.384 . S
N874 C870 1.427 . S
N874 C871 1.384 . S
N875 C867 1.427 . S
N875 C873 1.384 . S
H876 C882 0.930 . S
H877 C886 0.930 . S
H878 C891 0.929 . S
H879 C889 0.929 . S
H880 C884 0.929 . S
H881 C890 0.929 . S
C882 H876 0.930 . S
C882 C883 1.367 . S
C882 C890 1.378 . S
C883 C882 1.367 . S
C883 C891 1.433 . S
C884 H880 0.929 . S
C884 C886 1.378 . S
C884 C888 1.350 . S
C885 C888 1.463 . S
C885 C890 1.350 . S
C885 N893 1.427 . S
C886 H877 0.930 . S
C886 C884 1.378 . S
C886 C887 1.367 . S
C887 C886 1.367 . S
C887 C889 1.433 . S
C888 C884 1.350 . S
C888 C885 1.463 . S
C888 N892 1.427 . S
C889 H879 0.929 . S
C889 C887 1.433 . S
C889 N892 1.384 . S
C890 H881 0.929 . S
C890 C882 1.378 . S
C890 C885 1.350 . S
C891 H878 0.929 . S
C891 C883 1.433 . S
C891 N893 1.384 . S
N892 C888 1.427 . S
N892 C889 1.384 . S
N893 C885 1.427 . S
N893 C891 1.384 . S
H894 C900 0.930 . S
H895 C904 0.930 . S
H896 C909 0.929 . S
H897 C907 0.929 . S
H898 C902 0.929 . S
H899 C908 0.929 . S
C900 H894 0.930 . S
C900 C901 1.367 . S
C900 C908 1.378 . S
C901 C900 1.367 . S
C901 C909 1.433 . S
C902 H898 0.929 . S
C902 C904 1.378 . S
C902 C906 1.350 . S
C903 C906 1.463 . S
C903 C908 1.350 . S
C903 N911 1.427 . S
C904 H895 0.930 . S
C904 C902 1.378 . S
C904 C905 1.367 . S
C905 C904 1.367 . S
C905 C907 1.433 . S
C906 C902 1.350 . S
C906 C903 1.463 . S
C906 N910 1.427 . S
C907 H897 0.929 . S
C907 C905 1.433 . S
C907 N910 1.384 . S
C908 H899 0.929 . S
C908 C900 1.378 . S
C908 C903 1.350 . S
C909 H896 0.929 . S
C909 C901 1.433 . S
C909 N911 1.384 . S
N910 C906 1.427 . S
N910 C907 1.384 . S
N911 C903 1.427 . S
N911 C909 1.384 . S
H912 C918 0.930 . S
H913 C922 0.930 . S
H914 C927 0.929 . S
H915 C925 0.929 . S
H916 C920 0.929 . S
H917 C926 0.929 . S
C918 H912 0.930 . S
C918 C919 1.367 . S
C918 C926 1.378 . S
C919 C918 1.367 . S
C919 C927 1.433 . S
C920 H916 0.929 . S
C920 C922 1.378 . S
C920 C924 1.350 . S
C921 C924 1.463 . S
C921 C926 1.350 . S
C921 N929 1.427 . S
C922 H913 0.930 . S
C922 C920 1.378 . S
C922 C923 1.367 . S
C923 C922 1.367 . S
C923 C925 1.433 . S
C924 C920 1.350 . S
C924 C921 1.463 . S
C924 N928 1.427 . S
C925 H915 0.929 . S
C925 C923 1.433 . S
C925 N928 1.384 . S
C926 H917 0.929 . S
C926 C918 1.378 . S
C926 C921 1.350 . S
C927 H914 0.929 . S
C927 C919 1.433 . S
C927 N929 1.384 . S
N928 C924 1.427 . S
N928 C925 1.384 . S
N929 C921 1.427 . S
N929 C927 1.384 . S
H930 C936 0.930 . S
H931 C940 0.930 . S
H932 C945 0.929 . S
H933 C943 0.929 . S
H934 C938 0.929 . S
H935 C944 0.929 . S
C936 H930 0.930 . S
C936 C937 1.367 . S
C936 C944 1.378 . S
C937 C936 1.367 . S
C937 C945 1.433 . S
C938 H934 0.929 . S
C938 C940 1.378 . S
C938 C942 1.350 . S
C939 C942 1.463 . S
C939 C944 1.350 . S
C939 N947 1.427 . S
C940 H931 0.930 . S
C940 C938 1.378 . S
C940 C941 1.367 . S
C941 C940 1.367 . S
C941 C943 1.433 . S
C942 C938 1.350 . S
C942 C939 1.463 . S
C942 N946 1.427 . S
C943 H933 0.929 . S
C943 C941 1.433 . S
C943 N946 1.384 . S
C944 H935 0.929 . S
C944 C936 1.378 . S
C944 C939 1.350 . S
C945 H932 0.929 . S
C945 C937 1.433 . S
C945 N947 1.384 . S
N946 C942 1.427 . S
N946 C943 1.384 . S
N947 C939 1.427 . S
N947 C945 1.384 . S
H948 C954 0.930 . S
H949 C958 0.930 . S
H950 C963 0.929 . S
H951 C961 0.929 . S
H952 C956 0.929 . S
H953 C962 0.929 . S
C954 H948 0.930 . S
C954 C955 1.367 . S
C954 C962 1.378 . S
C955 C954 1.367 . S
C955 C963 1.433 . S
C956 H952 0.929 . S
C956 C958 1.378 . S
C956 C960 1.350 . S
C957 C960 1.463 . S
C957 C962 1.350 . S
C957 N965 1.427 . S
C958 H949 0.930 . S
C958 C956 1.378 . S
C958 C959 1.367 . S
C959 C958 1.367 . S
C959 C961 1.433 . S
C960 C956 1.350 . S
C960 C957 1.463 . S
C960 N964 1.427 . S
C961 H951 0.929 . S
C961 C959 1.433 . S
C961 N964 1.384 . S
C962 H953 0.929 . S
C962 C954 1.378 . S
C962 C957 1.350 . S
C963 H950 0.929 . S
C963 C955 1.433 . S
C963 N965 1.384 . S
N964 C960 1.427 . S
N964 C961 1.384 . S
N965 C957 1.427 . S
N965 C963 1.384 . S
H966 C972 0.930 . S
H967 C976 0.930 . S
H968 C981 0.929 . S
H969 C979 0.929 . S
H970 C974 0.929 . S
H971 C980 0.929 . S
C972 H966 0.930 . S
C972 C973 1.367 . S
C972 C980 1.378 . S
C973 C972 1.367 . S
C973 C981 1.433 . S
C974 H970 0.929 . S
C974 C976 1.378 . S
C974 C978 1.350 . S
C975 C978 1.463 . S
C975 C980 1.350 . S
C975 N983 1.427 . S
C976 H967 0.930 . S
C976 C974 1.378 . S
C976 C977 1.367 . S
C977 C976 1.367 . S
C977 C979 1.433 . S
C978 C974 1.350 . S
C978 C975 1.463 . S
C978 N982 1.427 . S
C979 H969 0.929 . S
C979 C977 1.433 . S
C979 N982 1.384 . S
C980 H971 0.929 . S
C980 C972 1.378 . S
C980 C975 1.350 . S
C981 H968 0.929 . S
C981 C973 1.433 . S
C981 N983 1.384 . S
N982 C978 1.427 . S
N982 C979 1.384 . S
N983 C975 1.427 . S
N983 C981 1.384 . S
H984 C990 0.930 . S
H985 C994 0.930 . S
H986 C999 0.929 . S
H987 C997 0.929 . S
H988 C992 0.929 . S
H989 C998 0.929 . S
C990 H984 0.930 . S
C990 C991 1.367 . S
C990 C998 1.378 . S
C991 C990 1.367 . S
C991 C999 1.433 . S
C992 H988 0.929 . S
C992 C994 1.378 . S
C992 C996 1.350 . S
C993 C996 1.463 . S
C993 C998 1.350 . S
C993 N1001 1.427 . S
C994 H985 0.930 . S
C994 C992 1.378 . S
C994 C995 1.367 . S
C995 C994 1.367 . S
C995 C997 1.433 . S
C996 C992 1.350 . S
C996 C993 1.463 . S
C996 N1000 1.427 . S
C997 H987 0.929 . S
C997 C995 1.433 . S
C997 N1000 1.384 . S
C998 H989 0.929 . S
C998 C990 1.378 . S
C998 C993 1.350 . S
C999 H986 0.929 . S
C999 C991 1.433 . S
C999 N1001 1.384 . S
N1000 C996 1.427 . S
N1000 C997 1.384 . S
N1001 C993 1.427 . S
N1001 C999 1.384 . S
H1002 C1008 0.930 . S
H1003 C1012 0.930 . S
H1004 C1017 0.929 . S
H1005 C1015 0.929 . S
H1006 C1010 0.929 . S
H1007 C1016 0.929 . S
C1008 H1002 0.930 . S
C1008 C1009 1.367 . S
C1008 C1016 1.378 . S
C1009 C1008 1.367 . S
C1009 C1017 1.433 . S
C1010 H1006 0.929 . S
C1010 C1012 1.378 . S
C1010 C1014 1.350 . S
C1011 C1014 1.463 . S
C1011 C1016 1.350 . S
C1011 N1019 1.427 . S
C1012 H1003 0.930 . S
C1012 C1010 1.378 . S
C1012 C1013 1.367 . S
C1013 C1012 1.367 . S
C1013 C1015 1.433 . S
C1014 C1010 1.350 . S
C1014 C1011 1.463 . S
C1014 N1018 1.427 . S
C1015 H1005 0.929 . S
C1015 C1013 1.433 . S
C1015 N1018 1.384 . S
C1016 H1007 0.929 . S
C1016 C1008 1.378 . S
C1016 C1011 1.350 . S
C1017 H1004 0.929 . S
C1017 C1009 1.433 . S
C1017 N1019 1.384 . S
N1018 C1014 1.427 . S
N1018 C1015 1.384 . S
N1019 C1011 1.427 . S
N1019 C1017 1.384 . S
H1020 C1026 0.930 . S
H1021 C1030 0.930 . S
H1022 C1035 0.929 . S
H1023 C1033 0.929 . S
H1024 C1028 0.929 . S
H1025 C1034 0.929 . S
C1026 H1020 0.930 . S
C1026 C1027 1.367 . S
C1026 C1034 1.378 . S
C1027 C1026 1.367 . S
C1027 C1035 1.433 . S
C1028 H1024 0.929 . S
C1028 C1030 1.378 . S
C1028 C1032 1.350 . S
C1029 C1032 1.463 . S
C1029 C1034 1.350 . S
C1029 N1037 1.427 . S
C1030 H1021 0.930 . S
C1030 C1028 1.378 . S
C1030 C1031 1.367 . S
C1031 C1030 1.367 . S
C1031 C1033 1.433 . S
C1032 C1028 1.350 . S
C1032 C1029 1.463 . S
C1032 N1036 1.427 . S
C1033 H1023 0.929 . S
C1033 C1031 1.433 . S
C1033 N1036 1.384 . S
C1034 H1025 0.929 . S
C1034 C1026 1.378 . S
C1034 C1029 1.350 . S
C1035 H1022 0.929 . S
C1035 C1027 1.433 . S
C1035 N1037 1.384 . S
N1036 C1032 1.427 . S
N1036 C1033 1.384 . S
N1037 C1029 1.427 . S
N1037 C1035 1.384 . S
H1038 C1044 0.930 . S
H1039 C1048 0.930 . S
H1040 C1053 0.929 . S
H1041 C1051 0.929 . S
H1042 C1046 0.929 . S
H1043 C1052 0.929 . S
C1044 H1038 0.930 . S
C1044 C1045 1.367 . S
C1044 C1052 1.378 . S
C1045 C1044 1.367 . S
C1045 C1053 1.433 . S
C1046 H1042 0.929 . S
C1046 C1048 1.378 . S
C1046 C1050 1.350 . S
C1047 C1050 1.463 . S
C1047 C1052 1.350 . S
C1047 N1055 1.427 . S
C1048 H1039 0.930 . S
C1048 C1046 1.378 . S
C1048 C1049 1.367 . S
C1049 C1048 1.367 . S
C1049 C1051 1.433 . S
C1050 C1046 1.350 . S
C1050 C1047 1.463 . S
C1050 N1054 1.427 . S
C1051 H1041 0.929 . S
C1051 C1049 1.433 . S
C1051 N1054 1.384 . S
C1052 H1043 0.929 . S
C1052 C1044 1.378 . S
C1052 C1047 1.350 . S
C1053 H1040 0.929 . S
C1053 C1045 1.433 . S
C1053 N1055 1.384 . S
N1054 C1050 1.427 . S
N1054 C1051 1.384 . S
N1055 C1047 1.427 . S
N1055 C1053 1.384 . S
H1056 C1062 0.930 . S
H1057 C1066 0.930 . S
H1058 C1071 0.929 . S
H1059 C1069 0.929 . S
H1060 C1064 0.929 . S
H1061 C1070 0.929 . S
C1062 H1056 0.930 . S
C1062 C1063 1.367 . S
C1062 C1070 1.378 . S
C1063 C1062 1.367 . S
C1063 C1071 1.433 . S
C1064 H1060 0.929 . S
C1064 C1066 1.378 . S
C1064 C1068 1.350 . S
C1065 C1068 1.463 . S
C1065 C1070 1.350 . S
C1065 N1073 1.427 . S
C1066 H1057 0.930 . S
C1066 C1064 1.378 . S
C1066 C1067 1.367 . S
C1067 C1066 1.367 . S
C1067 C1069 1.433 . S
C1068 C1064 1.350 . S
C1068 C1065 1.463 . S
C1068 N1072 1.427 . S
C1069 H1059 0.929 . S
C1069 C1067 1.433 . S
C1069 N1072 1.384 . S
C1070 H1061 0.929 . S
C1070 C1062 1.378 . S
C1070 C1065 1.350 . S
C1071 H1058 0.929 . S
C1071 C1063 1.433 . S
C1071 N1073 1.384 . S
N1072 C1068 1.427 . S
N1072 C1069 1.384 . S
N1073 C1065 1.427 . S
N1073 C1071 1.384 . S
H1074 C1080 0.930 . S
H1075 C1084 0.930 . S
H1076 C1089 0.929 . S
H1077 C1087 0.929 . S
H1078 C1082 0.929 . S
H1079 C1088 0.929 . S
C1080 H1074 0.930 . S
C1080 C1081 1.367 . S
C1080 C1088 1.378 . S
C1081 C1080 1.367 . S
C1081 C1089 1.433 . S
C1082 H1078 0.929 . S
C1082 C1084 1.378 . S
C1082 C1086 1.350 . S
C1083 C1086 1.463 . S
C1083 C1088 1.350 . S
C1083 N1091 1.427 . S
C1084 H1075 0.930 . S
C1084 C1082 1.378 . S
C1084 C1085 1.367 . S
C1085 C1084 1.367 . S
C1085 C1087 1.433 . S
C1086 C1082 1.350 . S
C1086 C1083 1.463 . S
C1086 N1090 1.427 . S
C1087 H1077 0.929 . S
C1087 C1085 1.433 . S
C1087 N1090 1.384 . S
C1088 H1079 0.929 . S
C1088 C1080 1.378 . S
C1088 C1083 1.350 . S
C1089 H1076 0.929 . S
C1089 C1081 1.433 . S
C1089 N1091 1.384 . S
N1090 C1086 1.427 . S
N1090 C1087 1.384 . S
N1091 C1083 1.427 . S
N1091 C1089 1.384 . S
H1092 C1098 0.930 . S
H1093 C1102 0.930 . S
H1094 C1107 0.929 . S
H1095 C1105 0.929 . S
H1096 C1100 0.929 . S
H1097 C1106 0.929 . S
C1098 H1092 0.930 . S
C1098 C1099 1.367 . S
C1098 C1106 1.378 . S
C1099 C1098 1.367 . S
C1099 C1107 1.433 . S
C1100 H1096 0.929 . S
C1100 C1102 1.378 . S
C1100 C1104 1.350 . S
C1101 C1104 1.463 . S
C1101 C1106 1.350 . S
C1101 N1109 1.427 . S
C1102 H1093 0.930 . S
C1102 C1100 1.378 . S
C1102 C1103 1.367 . S
C1103 C1102 1.367 . S
C1103 C1105 1.433 . S
C1104 C1100 1.350 . S
C1104 C1101 1.463 . S
C1104 N1108 1.427 . S
C1105 H1095 0.929 . S
C1105 C1103 1.433 . S
C1105 N1108 1.384 . S
C1106 H1097 0.929 . S
C1106 C1098 1.378 . S
C1106 C1101 1.350 . S
C1107 H1094 0.929 . S
C1107 C1099 1.433 . S
C1107 N1109 1.384 . S
N1108 C1104 1.427 . S
N1108 C1105 1.384 . S
N1109 C1101 1.427 . S
N1109 C1107 1.384 . S
H1110 C1116 0.930 . S
H1111 C1120 0.930 . S
H1112 C1125 0.929 . S
H1113 C1123 0.929 . S
H1114 C1118 0.929 . S
H1115 C1124 0.929 . S
C1116 H1110 0.930 . S
C1116 C1117 1.367 . S
C1116 C1124 1.378 . S
C1117 C1116 1.367 . S
C1117 C1125 1.433 . S
C1118 H1114 0.929 . S
C1118 C1120 1.378 . S
C1118 C1122 1.350 . S
C1119 C1122 1.463 . S
C1119 C1124 1.350 . S
C1119 N1127 1.427 . S
C1120 H1111 0.930 . S
C1120 C1118 1.378 . S
C1120 C1121 1.367 . S
C1121 C1120 1.367 . S
C1121 C1123 1.433 . S
C1122 C1118 1.350 . S
C1122 C1119 1.463 . S
C1122 N1126 1.427 . S
C1123 H1113 0.929 . S
C1123 C1121 1.433 . S
C1123 N1126 1.384 . S
C1124 H1115 0.929 . S
C1124 C1116 1.378 . S
C1124 C1119 1.350 . S
C1125 H1112 0.929 . S
C1125 C1117 1.433 . S
C1125 N1127 1.384 . S
N1126 C1122 1.427 . S
N1126 C1123 1.384 . S
N1127 C1119 1.427 . S
N1127 C1125 1.384 . S
H1128 C1134 0.930 . S
H1129 C1138 0.930 . S
H1130 C1143 0.929 . S
H1131 C1141 0.929 . S
H1132 C1136 0.929 . S
H1133 C1142 0.929 . S
C1134 H1128 0.930 . S
C1134 C1135 1.367 . S
C1134 C1142 1.378 . S
C1135 C1134 1.367 . S
C1135 C1143 1.433 . S
C1136 H1132 0.929 . S
C1136 C1138 1.378 . S
C1136 C1140 1.350 . S
C1137 C1140 1.463 . S
C1137 C1142 1.350 . S
C1137 N1145 1.427 . S
C1138 H1129 0.930 . S
C1138 C1136 1.378 . S
C1138 C1139 1.367 . S
C1139 C1138 1.367 . S
C1139 C1141 1.433 . S
C1140 C1136 1.350 . S
C1140 C1137 1.463 . S
C1140 N1144 1.427 . S
C1141 H1131 0.929 . S
C1141 C1139 1.433 . S
C1141 N1144 1.384 . S
C1142 H1133 0.929 . S
C1142 C1134 1.378 . S
C1142 C1137 1.350 . S
C1143 H1130 0.929 . S
C1143 C1135 1.433 . S
C1143 N1145 1.384 . S
N1144 C1140 1.427 . S
N1144 C1141 1.384 . S
N1145 C1137 1.427 . S
N1145 C1143 1.384 . S
H1146 C1152 0.930 . S
H1147 C1156 0.930 . S
H1148 C1161 0.929 . S
H1149 C1159 0.929 . S
H1150 C1154 0.929 . S
H1151 C1160 0.929 . S
C1152 H1146 0.930 . S
C1152 C1153 1.367 . S
C1152 C1160 1.378 . S
C1153 C1152 1.367 . S
C1153 C1161 1.433 . S
C1154 H1150 0.929 . S
C1154 C1156 1.378 . S
C1154 C1158 1.350 . S
C1155 C1158 1.463 . S
C1155 C1160 1.350 . S
C1155 N1163 1.427 . S
C1156 H1147 0.930 . S
C1156 C1154 1.378 . S
C1156 C1157 1.367 . S
C1157 C1156 1.367 . S
C1157 C1159 1.433 . S
C1158 C1154 1.350 . S
C1158 C1155 1.463 . S
C1158 N1162 1.427 . S
C1159 H1149 0.929 . S
C1159 C1157 1.433 . S
C1159 N1162 1.384 . S
C1160 H1151 0.929 . S
C1160 C1152 1.378 . S
C1160 C1155 1.350 . S
C1161 H1148 0.929 . S
C1161 C1153 1.433 . S
C1161 N1163 1.384 . S
N1162 C1158 1.427 . S
N1162 C1159 1.384 . S
N1163 C1155 1.427 . S
N1163 C1161 1.384 . S
H1164 C1170 0.930 . S
H1165 C1174 0.930 . S
H1166 C1179 0.929 . S
H1167 C1177 0.929 . S
H1168 C1172 0.929 . S
H1169 C1178 0.929 . S
C1170 H1164 0.930 . S
C1170 C1171 1.367 . S
C1170 C1178 1.378 . S
C1171 C1170 1.367 . S
C1171 C1179 1.433 . S
C1172 H1168 0.929 . S
C1172 C1174 1.378 . S
C1172 C1176 1.350 . S
C1173 C1176 1.463 . S
C1173 C1178 1.350 . S
C1173 N1181 1.427 . S
C1174 H1165 0.930 . S
C1174 C1172 1.378 . S
C1174 C1175 1.367 . S
C1175 C1174 1.367 . S
C1175 C1177 1.433 . S
C1176 C1172 1.350 . S
C1176 C1173 1.463 . S
C1176 N1180 1.427 . S
C1177 H1167 0.929 . S
C1177 C1175 1.433 . S
C1177 N1180 1.384 . S
C1178 H1169 0.929 . S
C1178 C1170 1.378 . S
C1178 C1173 1.350 . S
C1179 H1166 0.929 . S
C1179 C1171 1.433 . S
C1179 N1181 1.384 . S
N1180 C1176 1.427 . S
N1180 C1177 1.384 . S
N1181 C1173 1.427 . S
N1181 C1179 1.384 . S
H1182 C1188 0.930 . S
H1183 C1192 0.930 . S
H1184 C1197 0.929 . S
H1185 C1195 0.929 . S
H1186 C1190 0.929 . S
H1187 C1196 0.929 . S
C1188 H1182 0.930 . S
C1188 C1189 1.367 . S
C1188 C1196 1.378 . S
C1189 C1188 1.367 . S
C1189 C1197 1.433 . S
C1190 H1186 0.929 . S
C1190 C1192 1.378 . S
C1190 C1194 1.350 . S
C1191 C1194 1.463 . S
C1191 C1196 1.350 . S
C1191 N1199 1.427 . S
C1192 H1183 0.930 . S
C1192 C1190 1.378 . S
C1192 C1193 1.367 . S
C1193 C1192 1.367 . S
C1193 C1195 1.433 . S
C1194 C1190 1.350 . S
C1194 C1191 1.463 . S
C1194 N1198 1.427 . S
C1195 H1185 0.929 . S
C1195 C1193 1.433 . S
C1195 N1198 1.384 . S
C1196 H1187 0.929 . S
C1196 C1188 1.378 . S
C1196 C1191 1.350 . S
C1197 H1184 0.929 . S
C1197 C1189 1.433 . S
C1197 N1199 1.384 . S
N1198 C1194 1.427 . S
N1198 C1195 1.384 . S
N1199 C1191 1.427 . S
N1199 C1197 1.384 . S
C343 C309 1.600 . S
C347 C0 1.598 . S
C361 C15 1.600 . S
C365 C335 1.603 . S
C379 C281 1.600 . S
C383 C40 1.605 . S
C397 C295 1.600 . S
C401 C54 1.598 . S
C415 C294 1.601 . S
C419 C69 1.603 . S
C433 C82 1.608 . S
C437 C308 1.605 . S
C451 C334 1.603 . S
C455 C96 1.600 . S
C469 C110 1.606 . S
C473 C280 1.609 . S
C487 C124 1.603 . S
C491 C279 1.598 . S
C505 C224 1.604 . S
C509 C126 1.600 . S
C523 C140 1.605 . S
C527 C250 1.602 . S
C541 C252 1.601 . S
C545 C167 1.596 . S
C559 C166 1.603 . S
C563 C182 1.606 . S
C577 C125 1.606 . S
C581 C197 1.609 . S
C595 C211 1.599 . S
C599 C127 1.603 . S
C613 C141 1.607 . S
C617 C180 1.611 . S
C631 C14 1.607 . S
C635 C253 1.602 . S
C649 C196 1.607 . S
C653 C111 1.603 . S
C667 C68 1.605 . S
C671 C210 1.602 . S
C685 C181 1.599 . S
C689 C83 1.603 . S
C703 C97 1.602 . S
C707 C183 1.605 . S
C721 C55 1.601 . S
C725 C225 1.604 . S
C739 C1 1.604 . S
C743 C251 1.608 . S
C757 C41 1.605 . S
C761 C278 1.603 . S
C775 C85 1.602 . S
C779 C292 1.604 . S
C793 C306 1.600 . S
C797 C99 1.599 . S
C811 C320 1.606 . S
C815 C56 1.603 . S
C829 C322 1.605 . S
C833 C71 1.610 . S
C847 C29 1.601 . S
C851 C323 1.598 . S
C865 C43 1.608 . S
C869 C293 1.611 . S
C883 C13 1.606 . S
C887 C307 1.610 . S
C901 C321 1.608 . S
C905 C26 1.603 . S
C919 C153 1.601 . S
C923 C195 1.604 . S
C937 C154 1.602 . S
C941 C208 1.606 . S
C955 C113 1.607 . S
C959 C222 1.609 . S
C973 C139 1.605 . S
C977 C169 1.609 . S
C991 C138 1.602 . S
C995 C266 1.599 . S
C1009 C237 1.604 . S
C1013 C152 1.600 . S
C1027 C155 1.602 . S
C1031 C239 1.599 . S
C1045 C112 1.605 . S
C1049 C265 1.604 . S
C1063 C168 1.599 . S
C1067 C98 1.603 . S
C1081 C236 1.607 . S
C1085 C27 1.611 . S
C1099 C28 1.600 . S
C1103 C238 1.603 . S
C1117 C264 1.603 . S
C1121 C42 1.599 . S
C1135 C267 1.601 . S
C1139 C12 1.596 . S
C1153 C70 1.607 . S
C1157 C209 1.605 . S
C1171 C223 1.603 . S
C1175 C84 1.599 . S
C1189 C194 1.606 . S
C1193 C57 1.611 . S
