# Generated by pormake.
# Topology vbm, (6)-cn, num edge types: 1
# Building blocks:
#     Node 0, Type 0, BuildingBlock: GEDQOX_clean_sbu_0, # of connection points: 6
#     Node 1, Type 0, BuildingBlock: GEDQOX_clean_sbu_0, # of connection points: 6
#     Node 2, Type 0, BuildingBlock: GEDQOX_clean_sbu_0, # of connection points: 6
#     Node 3, Type 0, BuildingBlock: GEDQOX_clean_sbu_0, # of connection points: 6
#     Node 4, Type 0, BuildingBlock: GEDQOX_clean_sbu_0, # of connection points: 6
#     Node 5, Type 0, BuildingBlock: GEDQOX_clean_sbu_0, # of connection points: 6
#     Node 6, Type 0, BuildingBlock: GEDQOX_clean_sbu_0, # of connection points: 6
#     Node 7, Type 0, BuildingBlock: GEDQOX_clean_sbu_0, # of connection points: 6
#     Node 8, Type 0, BuildingBlock: GEDQOX_clean_sbu_0, # of connection points: 6
#     Node 9, Type 0, BuildingBlock: GEDQOX_clean_sbu_0, # of connection points: 6
#     Node 10, Type 0, BuildingBlock: GEDQOX_clean_sbu_0, # of connection points: 6
#     Node 11, Type 0, BuildingBlock: GEDQOX_clean_sbu_0, # of connection points: 6
#     Node 12, Type 0, BuildingBlock: GEDQOX_clean_sbu_0, # of connection points: 6
#     Node 13, Type 0, BuildingBlock: GEDQOX_clean_sbu_0, # of connection points: 6
#     Node 14, Type 0, BuildingBlock: GEDQOX_clean_sbu_0, # of connection points: 6
#     Node 15, Type 0, BuildingBlock: GEDQOX_clean_sbu_0, # of connection points: 6
#     Edge 16, Type (0, 0), BuildingBlock: TEMPAE_clean_linker_10, # of connection points: 2
#     Edge 17, Type (0, 0), BuildingBlock: TEMPAE_clean_linker_10, # of connection points: 2
#     Edge 18, Type (0, 0), BuildingBlock: TEMPAE_clean_linker_10, # of connection points: 2
#     Edge 19, Type (0, 0), BuildingBlock: TEMPAE_clean_linker_10, # of connection points: 2
#     Edge 20, Type (0, 0), BuildingBlock: TEMPAE_clean_linker_10, # of connection points: 2
#     Edge 21, Type (0, 0), BuildingBlock: TEMPAE_clean_linker_10, # of connection points: 2
#     Edge 22, Type (0, 0), BuildingBlock: TEMPAE_clean_linker_10, # of connection points: 2
#     Edge 23, Type (0, 0), BuildingBlock: TEMPAE_clean_linker_10, # of connection points: 2
#     Edge 24, Type (0, 0), BuildingBlock: TEMPAE_clean_linker_10, # of connection points: 2
#     Edge 25, Type (0, 0), BuildingBlock: TEMPAE_clean_linker_10, # of connection points: 2
#     Edge 26, Type (0, 0), BuildingBlock: TEMPAE_clean_linker_10, # of connection points: 2
#     Edge 27, Type (0, 0), BuildingBlock: TEMPAE_clean_linker_10, # of connection points: 2
#     Edge 28, Type (0, 0), BuildingBlock: TEMPAE_clean_linker_10, # of connection points: 2
#     Edge 29, Type (0, 0), BuildingBlock: TEMPAE_clean_linker_10, # of connection points: 2
#     Edge 30, Type (0, 0), BuildingBlock: TEMPAE_clean_linker_10, # of connection points: 2
#     Edge 31, Type (0, 0), BuildingBlock: TEMPAE_clean_linker_10, # of connection points: 2
#     Edge 32, Type (0, 0), BuildingBlock: TEMPAE_clean_linker_10, # of connection points: 2
#     Edge 33, Type (0, 0), BuildingBlock: TEMPAE_clean_linker_10, # of connection points: 2
#     Edge 34, Type (0, 0), BuildingBlock: TEMPAE_clean_linker_10, # of connection points: 2
#     Edge 35, Type (0, 0), BuildingBlock: TEMPAE_clean_linker_10, # of connection points: 2
#     Edge 36, Type (0, 0), BuildingBlock: TEMPAE_clean_linker_10, # of connection points: 2
#     Edge 37, Type (0, 0), BuildingBlock: TEMPAE_clean_linker_10, # of connection points: 2
#     Edge 38, Type (0, 0), BuildingBlock: TEMPAE_clean_linker_10, # of connection points: 2
#     Edge 39, Type (0, 0), BuildingBlock: TEMPAE_clean_linker_10, # of connection points: 2
#     Edge 40, Type (0, 0), BuildingBlock: TEMPAE_clean_linker_10, # of connection points: 2
#     Edge 41, Type (0, 0), BuildingBlock: TEMPAE_clean_linker_10, # of connection points: 2
#     Edge 42, Type (0, 0), BuildingBlock: TEMPAE_clean_linker_10, # of connection points: 2
#     Edge 43, Type (0, 0), BuildingBlock: TEMPAE_clean_linker_10, # of connection points: 2
#     Edge 44, Type (0, 0), BuildingBlock: TEMPAE_clean_linker_10, # of connection points: 2
#     Edge 45, Type (0, 0), BuildingBlock: TEMPAE_clean_linker_10, # of connection points: 2
#     Edge 46, Type (0, 0), BuildingBlock: TEMPAE_clean_linker_10, # of connection points: 2
#     Edge 47, Type (0, 0), BuildingBlock: TEMPAE_clean_linker_10, # of connection points: 2
#     Edge 48, Type (0, 0), BuildingBlock: TEMPAE_clean_linker_10, # of connection points: 2
#     Edge 49, Type (0, 0), BuildingBlock: TEMPAE_clean_linker_10, # of connection points: 2
#     Edge 50, Type (0, 0), BuildingBlock: TEMPAE_clean_linker_10, # of connection points: 2
#     Edge 51, Type (0, 0), BuildingBlock: TEMPAE_clean_linker_10, # of connection points: 2
#     Edge 52, Type (0, 0), BuildingBlock: TEMPAE_clean_linker_10, # of connection points: 2
#     Edge 53, Type (0, 0), BuildingBlock: TEMPAE_clean_linker_10, # of connection points: 2
#     Edge 54, Type (0, 0), BuildingBlock: TEMPAE_clean_linker_10, # of connection points: 2
#     Edge 55, Type (0, 0), BuildingBlock: TEMPAE_clean_linker_10, # of connection points: 2
#     Edge 56, Type (0, 0), BuildingBlock: TEMPAE_clean_linker_10, # of connection points: 2
#     Edge 57, Type (0, 0), BuildingBlock: TEMPAE_clean_linker_10, # of connection points: 2
#     Edge 58, Type (0, 0), BuildingBlock: TEMPAE_clean_linker_10, # of connection points: 2
#     Edge 59, Type (0, 0), BuildingBlock: TEMPAE_clean_linker_10, # of connection points: 2
#     Edge 60, Type (0, 0), BuildingBlock: TEMPAE_clean_linker_10, # of connection points: 2
#     Edge 61, Type (0, 0), BuildingBlock: TEMPAE_clean_linker_10, # of connection points: 2
#     Edge 62, Type (0, 0), BuildingBlock: TEMPAE_clean_linker_10, # of connection points: 2
#     Edge 63, Type (0, 0), BuildingBlock: TEMPAE_clean_linker_10, # of connection points: 2
# Relax obj value: 0.191
# Max RMSD: 0.206
# Mean RMSD: 0.206
data_MOF--net-vbm--node1-GEDQOX_clean_sbu_0--edge1-TEMPAE_clean_linker_10
_symmetry_space_group_name_H-M    P1
_symmetry_Int_Tables_number       1
_symmetry_cell_setting            triclinic
loop_
_symmetry_equiv_pos_as_xyz
'x, y, z'
_cell_length_a     105.83828
_cell_length_b     15.996007
_cell_length_c     59.799947
_cell_angle_alpha  90.063894
_cell_angle_beta   90.034174
_cell_angle_gamma 89.992782
loop_
_atom_site_label
_atom_site_type_symbol
_atom_site_fract_x
_atom_site_fract_y
_atom_site_fract_z
_atom_type_partial_charge
Nd0 Nd 0.12123 0.11609 0.1256 0.0
Nd1 Nd 0.15081 0.11155 0.11993 0.0
C2 C 0.09719 0.11052 0.13832 0.0
C3 C 0.08384 0.08458 0.13522 0.0
C4 C 0.07722 0.05179 0.15354 0.0
C5 C 0.06412 0.03979 0.15252 0.0
C6 C 0.05727 0.06051 0.13311 0.0
C7 C 0.064 0.09045 0.11442 0.0
C8 C 0.07712 0.10258 0.11548 0.0
C9 C 0.12986 0.13134 0.08209 0.0
C10 C 0.13552 0.93123 0.12157 0.0
C11 C 0.17411 0.11715 0.10366 0.0
C12 C 0.18696 0.15162 0.10748 0.0
C13 C 0.19352 0.18671 0.08941 0.0
C14 C 0.20606 0.21323 0.09181 0.0
C15 C 0.2124 0.20556 0.11243 0.0
C16 C 0.2057 0.17176 0.13069 0.0
C17 C 0.19313 0.14508 0.12825 0.0
C18 C 0.14501 0.11748 0.16537 0.0
C19 C 0.13634 0.2914 0.12617 0.0
O20 O 0.10562 0.0566 0.1453 0.0
O21 O 0.10183 0.16663 0.12476 0.0
O22 O 0.12 0.16937 0.08993 0.0
O23 O 0.13439 0.08281 0.0967 0.0
O24 O 0.12477 0.9726 0.12476 0.0
O25 O 0.1464 0.97022 0.11803 0.0
O26 O 0.16518 0.16903 0.09749 0.0
O27 O 0.17008 0.05875 0.11724 0.0
O28 O 0.15641 0.11746 0.15745 0.0
O29 O 0.13744 0.11852 0.14916 0.0
O30 O 0.14553 0.25135 0.11565 0.0
O31 O 0.12714 0.24965 0.13615 0.0
H32 H 0.08213 0.03821 0.16903 0.0
H33 H 0.05934 1.01531 0.16711 0.0
H34 H 0.05905 0.10772 0.09925 0.0
H35 H 0.08192 0.1288 0.10112 0.0
H36 H 0.18902 0.19181 0.07319 0.0
H37 H 0.21088 0.23758 0.07725 0.0
H38 H 0.21017 0.16586 0.14691 0.0
H39 H 0.18832 0.11835 0.14253 0.0
Nd40 Nd 0.89757 0.9513 0.12866 0.0
Nd41 Nd 0.86782 0.9543 0.1246 0.0
C42 C 0.92177 0.95409 0.14026 0.0
C43 C 0.93508 0.98177 0.1392 0.0
C44 C 0.94299 0.96307 0.15732 0.0
C45 C 0.95604 0.97593 0.15591 0.0
C46 C 0.9615 1.00839 0.13632 0.0
C47 C 0.95349 1.03019 0.11841 0.0
C48 C 0.94039 1.01632 0.11976 0.0
C49 C 0.88823 0.9344 0.08565 0.0
C50 C 0.88321 0.13522 0.12566 0.0
C51 C 0.84443 0.95291 0.10854 0.0
C52 C 0.83143 0.91982 0.11078 0.0
C53 C 0.82357 0.92023 0.09191 0.0
C54 C 0.81092 0.89554 0.09348 0.0
C55 C 0.80577 0.86965 0.11403 0.0
C56 C 0.81376 0.86738 0.13291 0.0
C57 C 0.82647 0.89251 0.13132 0.0
C58 C 0.8745 0.9457 0.16961 0.0
C59 C 0.88249 0.77463 0.12963 0.0
O60 O 0.91322 0.99916 0.15054 0.0
O61 O 0.91729 0.91083 0.12351 0.0
O62 O 0.89815 0.89641 0.09325 0.0
O63 O 0.88383 0.98326 0.10042 0.0
O64 O 0.89409 0.0944 0.12749 0.0
O65 O 0.87223 0.09598 0.12348 0.0
O66 O 0.8533 0.90217 0.10146 0.0
O67 O 0.8484 1.00588 0.12371 0.0
O68 O 0.86292 0.94387 0.1625 0.0
O69 O 0.88173 0.94671 0.15292 0.0
O70 O 0.8729 0.81443 0.12018 0.0
O71 O 0.89204 0.81637 0.1386 0.0
H72 H 0.93912 0.93555 0.17239 0.0
H73 H 0.96189 0.95947 0.1701 0.0
H74 H 0.95741 0.05494 0.10305 0.0
H75 H 0.93448 1.03026 0.10544 0.0
H76 H 0.82718 0.94104 0.0759 0.0
H77 H 0.80517 0.89672 0.0785 0.0
H78 H 0.81012 0.84825 0.14903 0.0
H79 H 0.83235 0.8919 0.14615 0.0
Nd80 Nd 0.12235 0.96077 0.36991 0.0
Nd81 Nd 0.15008 0.97012 0.37163 0.0
C82 C 0.09772 0.96518 0.36119 0.0
C83 C 0.08448 0.99469 0.36322 0.0
C84 C 0.07742 1.00748 0.34365 0.0
C85 C 0.06438 1.02208 0.34467 0.0
C86 C 0.05802 1.02462 0.36535 0.0
C87 C 0.06521 1.01435 0.38502 0.0
C88 C 0.07827 0.99922 0.38397 0.0
C89 C 0.13197 0.94148 0.4127 0.0
C90 C 0.13584 0.14802 0.37455 0.0
C91 C 0.17504 0.96098 0.3765 0.0
C92 C 0.18736 0.91646 0.3784 0.0
C93 C 0.1936 0.91093 0.39911 0.0
C94 C 0.20615 0.88292 0.40036 0.0
C95 C 0.21287 0.86053 0.3809 0.0
C96 C 0.20646 0.86376 0.36028 0.0
C97 C 0.19391 0.89124 0.35905 0.0
C98 C 0.14016 1.0024 0.32994 0.0
C99 C 0.13668 0.7859 0.36773 0.0
O100 O 0.10601 1.0069 0.34941 0.0
O101 O 0.10274 0.92345 0.37771 0.0
O102 O 0.1229 0.89716 0.40435 0.0
O103 O 0.13567 0.99532 0.39872 0.0
O104 O 0.12537 0.10547 0.37012 0.0
O105 O 0.14663 0.1092 0.37842 0.0
O106 O 0.16729 0.96581 0.39352 0.0
O107 O 0.16923 0.96058 0.35724 0.0
O108 O 0.14891 0.04606 0.33946 0.0
O109 O 0.13669 0.94233 0.34235 0.0
O110 O 0.14614 0.82825 0.37665 0.0
O111 O 0.12697 0.8262 0.35916 0.0
H112 H 0.08191 1.00279 0.32742 0.0
H113 H 0.05924 1.0281 0.3291 0.0
H114 H 0.06075 1.01712 0.40129 0.0
H115 H 0.08344 0.98895 0.39937 0.0
H116 H 0.18892 0.93097 0.4143 0.0
H117 H 0.21064 0.88009 0.41662 0.0
H118 H 0.21128 0.84846 0.34484 0.0
H119 H 0.18953 0.89608 0.34272 0.0
Nd120 Nd 0.89895 0.11357 0.36945 0.0
Nd121 Nd 0.86785 0.11655 0.37605 0.0
C122 C 0.92207 0.11581 0.35243 0.0
C123 C 0.93556 0.0955 0.35633 0.0
C124 C 0.94298 0.06972 0.33818 0.0
C125 C 0.95604 0.05861 0.34056 0.0
C126 C 0.96205 0.07274 0.36126 0.0
C127 C 0.95451 0.09684 0.37962 0.0
C128 C 0.94141 0.10821 0.37718 0.0
C129 C 0.89246 0.10675 0.41458 0.0
C130 C 0.88339 0.93519 0.3739 0.0
C131 C 0.84453 0.12242 0.39229 0.0
C132 C 0.83143 0.1528 0.38778 0.0
C133 C 0.82738 0.2315 0.39553 0.0
C134 C 0.81469 0.25599 0.3935 0.0
C135 C 0.80567 0.20232 0.38378 0.0
C136 C 0.8098 0.12437 0.37561 0.0
C137 C 0.82247 0.09989 0.37764 0.0
C138 C 0.87469 0.1159 0.33099 0.0
C139 C 0.88331 0.29529 0.37137 0.0
O140 O 0.91412 0.05423 0.34895 0.0
O141 O 0.9172 0.17737 0.36405 0.0
O142 O 0.90399 0.10502 0.40713 0.0
O143 O 0.8851 0.11087 0.39798 0.0
O144 O 0.89391 0.97327 0.36742 0.0
O145 O 0.87302 0.97603 0.38023 0.0
O146 O 0.85327 0.17756 0.39725 0.0
O147 O 0.84884 0.06024 0.38019 0.0
O148 O 0.86308 0.12062 0.3379 0.0
O149 O 0.88175 0.11659 0.34793 0.0
O150 O 0.87291 0.25653 0.37807 0.0
O151 O 0.89359 0.25392 0.36486 0.0
H152 H 0.93872 0.06042 0.32189 0.0
H153 H 0.96147 0.04141 0.32592 0.0
H154 H 0.95871 0.10718 0.39589 0.0
H155 H 0.93591 0.12829 0.39148 0.0
H156 H 0.83394 0.27349 0.40372 0.0
H157 H 0.81189 0.31601 0.40026 0.0
H158 H 0.80322 0.08172 0.36773 0.0
H159 H 0.82518 0.03851 0.37168 0.0
Nd160 Nd 0.86715 0.97155 0.87709 0.0
Nd161 Nd 0.89664 0.9703 0.87486 0.0
C162 C 0.84357 0.96414 0.89201 0.0
C163 C 0.83074 0.92925 0.88846 0.0
C164 C 0.8235 0.90765 0.90721 0.0
C165 C 0.81096 0.8813 0.90485 0.0
C166 C 0.80529 0.87533 0.88358 0.0
C167 C 0.81267 0.89564 0.8647 0.0
C168 C 0.82526 0.92242 0.86712 0.0
C169 C 0.87394 0.97914 0.83226 0.0
C170 C 0.88237 0.7899 0.87215 0.0
C171 C 0.92131 0.98823 0.87027 0.0
C172 C 0.93524 0.99962 0.86869 0.0
C173 C 0.94198 0.97441 0.84959 0.0
C174 C 0.95522 0.98076 0.84893 0.0
C175 C 0.96203 1.01191 0.86741 0.0
C176 C 0.95521 0.03792 0.88637 0.0
C177 C 0.94201 1.03192 0.88699 0.0
C178 C 0.8862 0.94391 0.91695 0.0
C179 C 0.88169 0.15079 0.87515 0.0
O180 O 0.8525 0.91337 0.89883 0.0
O181 O 0.84762 1.0211 0.87801 0.0
O182 O 0.86242 0.97624 0.83956 0.0
O183 O 0.88147 0.9751 0.84868 0.0
O184 O 0.87176 0.82954 0.87731 0.0
O185 O 0.89302 0.83063 0.86808 0.0
O186 O 0.91452 0.94696 0.85556 0.0
O187 O 0.91484 1.02189 0.8866 0.0
O188 O 0.89613 0.90626 0.90932 0.0
O189 O 0.88244 0.99634 0.90263 0.0
O190 O 0.89174 0.10934 0.86799 0.0
O191 O 0.87163 0.11128 0.88296 0.0
H192 H 0.82748 0.91311 0.92386 0.0
H193 H 0.80561 0.86786 0.91985 0.0
H194 H 0.80875 0.89082 0.84803 0.0
H195 H 0.83063 0.93871 0.85234 0.0
H196 H 0.93705 0.94878 0.83526 0.0
H197 H 0.96013 0.9594 0.83411 0.0
H198 H 0.96007 0.06336 0.9008 0.0
H199 H 0.93714 0.05156 0.90202 0.0
Nd200 Nd 0.15001 0.11051 0.87423 0.0
Nd201 Nd 0.12202 0.11581 0.86899 0.0
C202 C 0.17433 0.12157 0.88534 0.0
C203 C 0.18677 0.16429 0.88331 0.0
C204 C 0.19323 0.18799 0.90282 0.0
C205 C 0.20575 0.21642 0.90185 0.0
C206 C 0.2122 0.22198 0.88129 0.0
C207 C 0.20555 0.20065 0.86165 0.0
C208 C 0.19301 0.17201 0.86264 0.0
C209 C 0.14202 0.08615 0.83076 0.0
C210 C 0.13635 0.2949 0.86818 0.0
C211 C 0.09796 0.10299 0.8562 0.0
C212 C 0.08463 0.0801 0.86095 0.0
C213 C 0.07798 1.03162 0.84529 0.0
C214 C 0.06492 1.01955 0.8473 0.0
C215 C 0.05811 0.05577 0.86508 0.0
C216 C 0.06487 0.1022 0.88118 0.0
C217 C 0.07796 0.11439 0.87912 0.0
C218 C 0.12944 0.12659 0.91345 0.0
C219 C 0.13602 0.93306 0.87374 0.0
O220 O 0.1653 0.15632 0.89707 0.0
O221 O 0.1701 0.07961 0.86815 0.0
O222 O 0.1512 0.04607 0.84017 0.0
O223 O 0.13751 0.14094 0.84385 0.0
O224 O 0.14653 0.25384 0.87473 0.0
O225 O 0.12605 0.25462 0.86202 0.0
O226 O 0.10632 0.04441 0.85255 0.0
O227 O 0.10272 0.16803 0.86632 0.0
O228 O 0.11944 0.16095 0.90514 0.0
O229 O 0.13452 0.08009 0.89893 0.0
O230 O 0.12665 0.9747 0.86423 0.0
O231 O 0.14542 0.97388 0.88337 0.0
H232 H 0.18875 0.1815 0.91901 0.0
H233 H 0.21052 0.23092 0.9174 0.0
H234 H 0.21006 0.20527 0.84545 0.0
H235 H 0.18835 0.15386 0.84726 0.0
H236 H 0.08284 1.00559 0.83092 0.0
H237 H 0.0601 0.98443 0.83437 0.0
H238 H 0.06003 0.13 0.8953 0.0
H239 H 0.08278 0.15251 0.89144 0.0
Nd240 Nd 0.86905 0.10509 0.62392 0.0
Nd241 Nd 0.89649 0.11525 0.6263 0.0
C242 C 0.8442 0.11309 0.61729 0.0
C243 C 0.83194 0.15864 0.61745 0.0
C244 C 0.82606 0.18069 0.59722 0.0
C245 C 0.81356 0.20975 0.59692 0.0
C246 C 0.80654 0.21674 0.61685 0.0
C247 C 0.81259 0.1972 0.63716 0.0
C248 C 0.82509 0.16857 0.63746 0.0
C249 C 0.87845 0.07928 0.6665 0.0
C250 C 0.88217 0.29024 0.62828 0.0
C251 C 0.92103 0.11159 0.63557 0.0
C252 C 0.93432 0.08291 0.6343 0.0
C253 C 0.94121 0.07465 0.65423 0.0
C254 C 0.95427 0.06115 0.65378 0.0
C255 C 0.9608 0.05558 0.63334 0.0
C256 C 0.9538 0.06075 0.61333 0.0
C257 C 0.9407 0.07464 0.6138 0.0
C258 C 0.88731 0.13106 0.58302 0.0
C259 C 0.88326 0.92783 0.62162 0.0
O260 O 0.85244 0.12625 0.60138 0.0
O261 O 0.84947 0.09515 0.63641 0.0
O262 O 0.86985 1.03399 0.65706 0.0
O263 O 0.88204 0.13729 0.65353 0.0
O264 O 0.87268 0.24769 0.61955 0.0
O265 O 0.89195 0.2503 0.63667 0.0
O266 O 0.91267 0.07092 0.64744 0.0
O267 O 0.91616 0.15148 0.6186 0.0
O268 O 0.89613 0.177 0.5916 0.0
O269 O 0.88356 0.0777 0.59713 0.0
O270 O 0.89352 0.97056 0.62723 0.0
O271 O 0.87271 0.96694 0.61632 0.0
H272 H 0.83099 0.17271 0.58148 0.0
H273 H 0.80934 0.22545 0.58097 0.0
H274 H 0.8075 0.20049 0.65285 0.0
H275 H 0.8292 0.15089 0.65336 0.0
H276 H 0.93655 0.08168 0.67025 0.0
H277 H 0.95929 0.05623 0.66951 0.0
H278 H 0.95851 0.05739 0.59728 0.0
H279 H 0.93566 0.08163 0.59814 0.0
Nd280 Nd 0.15141 0.96893 0.62057 0.0
Nd281 Nd 0.12197 0.96781 0.62372 0.0
C282 C 0.17485 0.96083 0.60509 0.0
C283 C 0.1877 0.92696 0.60902 0.0
C284 C 0.19461 0.89658 0.59073 0.0
C285 C 0.20719 0.87118 0.59328 0.0
C286 C 0.21321 0.87526 0.61427 0.0
C287 C 0.20615 0.9042 0.63273 0.0
C288 C 0.19354 0.92982 0.63013 0.0
C289 C 0.14503 0.97791 0.66552 0.0
C290 C 0.13624 0.78752 0.62615 0.0
C291 C 0.0974 0.98623 0.62892 0.0
C292 C 0.08349 0.99718 0.63029 0.0
C293 C 0.07693 0.98488 0.65042 0.0
C294 C 0.06371 0.99199 0.65112 0.0
C295 C 0.05674 1.01081 0.63165 0.0
C296 C 0.0634 1.02287 0.61154 0.0
C297 C 0.07658 1.01649 0.6109 0.0
C298 C 0.13182 0.93984 0.5814 0.0
C299 C 0.13691 0.14867 0.62265 0.0
O300 O 0.16595 0.9085 0.59902 0.0
O301 O 0.1708 1.02 0.61845 0.0
O302 O 0.1565 0.97505 0.65796 0.0
O303 O 0.13739 0.97324 0.64932 0.0
O304 O 0.14685 0.82688 0.62091 0.0
O305 O 0.12559 0.82809 0.63023 0.0
O306 O 0.10429 0.94731 0.64393 0.0
O307 O 0.10373 1.01734 0.61209 0.0
O308 O 0.12208 0.90188 0.58962 0.0
O309 O 0.13588 0.99268 0.5954 0.0
O310 O 0.12683 0.10736 0.62971 0.0
O311 O 0.14699 0.10882 0.61501 0.0
H312 H 0.19036 0.89444 0.57425 0.0
H313 H 0.2123 0.85063 0.57859 0.0
H314 H 0.21037 0.90716 0.64921 0.0
H315 H 0.18843 0.95294 0.64456 0.0
H316 H 0.08201 0.96971 0.66561 0.0
H317 H 0.05898 0.98334 0.667 0.0
H318 H 0.05844 1.03563 0.59608 0.0
H319 H 0.08133 1.02515 0.59503 0.0
Nd320 Nd 0.62011 0.61161 0.13081 0.0
Nd321 Nd 0.65124 0.61507 0.12352 0.0
C322 C 0.59715 0.61151 0.14854 0.0
C323 C 0.58363 0.5919 0.14467 0.0
C324 C 0.57658 0.55712 0.16218 0.0
C325 C 0.56354 0.5447 0.15999 0.0
C326 C 0.55719 0.56664 0.14014 0.0
C327 C 0.56435 0.60011 0.12239 0.0
C328 C 0.57743 0.61266 0.12463 0.0
C329 C 0.62641 0.60219 0.08565 0.0
C330 C 0.6359 0.43441 0.1267 0.0
C331 C 0.67429 0.61976 0.10625 0.0
C332 C 0.68725 0.65323 0.10912 0.0
C333 C 0.69428 0.67361 0.09001 0.0
C334 C 0.70692 0.69848 0.09178 0.0
C335 C 0.71291 0.70358 0.11277 0.0
C336 C 0.70574 0.68518 0.13202 0.0
C337 C 0.69304 0.66012 0.13021 0.0
C338 C 0.64454 0.61322 0.16864 0.0
C339 C 0.63578 0.79414 0.12899 0.0
O340 O 0.60507 0.54907 0.15079 0.0
O341 O 0.60199 0.67535 0.13783 0.0
O342 O 0.6149 0.59944 0.09321 0.0
O343 O 0.63378 0.60784 0.10217 0.0
O344 O 0.62588 0.47321 0.13513 0.0
O345 O 0.64572 0.47548 0.11812 0.0
O346 O 0.66532 0.6721 0.10044 0.0
O347 O 0.67047 0.56217 0.12031 0.0
O348 O 0.65616 0.61639 0.16169 0.0
O349 O 0.63748 0.615 0.15173 0.0
O350 O 0.6465 0.75591 0.12367 0.0
O351 O 0.62519 0.75297 0.13385 0.0
H352 H 0.58112 0.54135 0.17787 0.0
H353 H 0.55839 0.52005 0.17416 0.0
H354 H 0.55986 0.61671 0.10674 0.0
H355 H 0.58264 0.63965 0.11082 0.0
H356 H 0.69002 0.66881 0.07357 0.0
H357 H 0.71201 0.71361 0.07662 0.0
H358 H 0.71002 0.68784 0.14845 0.0
H359 H 0.68785 0.64462 0.14525 0.0
Nd360 Nd 0.39614 0.46702 0.12445 0.0
Nd361 Nd 0.36682 0.46995 0.12143 0.0
C362 C 0.42082 0.48372 0.12944 0.0
C363 C 0.43474 0.49382 0.13112 0.0
C364 C 0.44113 0.48222 0.1515 0.0
C365 C 0.45434 0.48976 0.15263 0.0
C366 C 0.46147 0.50844 0.13336 0.0
C367 C 0.45501 0.52028 0.11304 0.0
C368 C 0.44184 0.51318 0.11195 0.0
C369 C 0.38603 0.43963 0.08244 0.0
C370 C 0.38142 0.64997 0.12332 0.0
C371 C 0.34339 0.46217 0.10571 0.0
C372 C 0.3306 0.42651 0.10882 0.0
C373 C 0.32329 0.40934 0.08981 0.0
C374 C 0.31082 0.38133 0.09184 0.0
C375 C 0.30531 0.36913 0.11302 0.0
C376 C 0.31275 0.38524 0.13214 0.0
C377 C 0.32526 0.41372 0.13007 0.0
C378 C 0.37319 0.47566 0.16643 0.0
C379 C 0.38182 0.28872 0.12691 0.0
O380 O 0.4137 0.45216 0.14528 0.0
O381 O 0.41469 0.50767 0.11157 0.0
O382 O 0.39522 0.39645 0.09092 0.0
O383 O 0.38231 0.49429 0.09624 0.0
O384 O 0.39185 0.60842 0.12854 0.0
O385 O 0.37089 0.61075 0.11757 0.0
O386 O 0.35243 0.41186 0.09913 0.0
O387 O 0.34725 0.5189 0.11996 0.0
O388 O 0.36174 0.47183 0.15884 0.0
O389 O 0.38086 0.4718 0.15027 0.0
O390 O 0.3717 0.32844 0.11933 0.0
O391 O 0.39207 0.3295 0.13336 0.0
H392 H 0.43593 0.46696 0.16655 0.0
H393 H 0.45898 0.47946 0.16852 0.0
H394 H 0.46013 0.53587 0.09793 0.0
H395 H 0.43724 0.52228 0.09596 0.0
H396 H 0.32716 0.41937 0.07325 0.0
H397 H 0.30542 0.37135 0.0767 0.0
H398 H 0.30893 0.37567 0.14874 0.0
H399 H 0.33071 0.42649 0.14503 0.0
Nd400 Nd 0.62056 0.45111 0.37026 0.0
Nd401 Nd 0.65032 0.45259 0.37519 0.0
C402 C 0.59656 0.45769 0.35733 0.0
C403 C 0.58335 0.4868 0.35973 0.0
C404 C 0.57584 0.49238 0.34048 0.0
C405 C 0.56283 0.50699 0.34209 0.0
C406 C 0.55696 0.51713 0.36307 0.0
C407 C 0.56463 0.5141 0.38237 0.0
C408 C 0.57767 0.49867 0.38073 0.0
C409 C 0.6292 0.43427 0.41374 0.0
C410 C 0.63512 0.63416 0.37387 0.0
C411 C 0.67375 0.44819 0.39105 0.0
C412 C 0.68671 0.41404 0.38774 0.0
C413 C 0.69237 0.36781 0.40499 0.0
C414 C 0.70503 0.34264 0.40354 0.0
C415 C 0.71244 0.3634 0.38479 0.0
C416 C 0.70665 0.40797 0.36722 0.0
C417 C 0.69396 0.43306 0.36868 0.0
C418 C 0.64395 0.44413 0.32999 0.0
C419 C 0.63554 0.27357 0.36984 0.0
O420 O 0.60522 0.50787 0.34931 0.0
O421 O 0.60091 0.40546 0.37224 0.0
O422 O 0.61904 0.39992 0.40585 0.0
O423 O 0.6341 0.48146 0.39907 0.0
O424 O 0.62422 0.59383 0.37179 0.0
O425 O 0.64607 0.59462 0.37623 0.0
O426 O 0.66484 0.39708 0.39774 0.0
O427 O 0.66966 0.50502 0.37704 0.0
O428 O 0.65547 0.44193 0.33737 0.0
O429 O 0.63663 0.44557 0.34653 0.0
O430 O 0.64507 0.31323 0.37949 0.0
O431 O 0.62608 0.31558 0.36063 0.0
H432 H 0.57996 0.48204 0.32413 0.0
H433 H 0.55733 0.50712 0.32683 0.0
H434 H 0.56057 0.52287 0.39882 0.0
H435 H 0.58325 0.49403 0.39588 0.0
H436 H 0.68706 0.35262 0.41993 0.0
H437 H 0.70902 0.30718 0.41724 0.0
H438 H 0.71204 0.42593 0.3526 0.0
H439 H 0.68993 0.46908 0.3551 0.0
Nd440 Nd 0.39698 0.62112 0.36952 0.0
Nd441 Nd 0.36913 0.61354 0.37515 0.0
C442 C 0.42108 0.61162 0.35687 0.0
C443 C 0.4344 0.58703 0.36094 0.0
C444 C 0.44132 0.55117 0.34338 0.0
C445 C 0.45439 0.53937 0.34522 0.0
C446 C 0.46093 0.56301 0.36477 0.0
C447 C 0.45388 0.59652 0.38267 0.0
C448 C 0.44078 0.60864 0.38076 0.0
C449 C 0.38969 0.63346 0.41401 0.0
C450 C 0.38341 0.4368 0.37504 0.0
C451 C 0.34486 0.62141 0.38649 0.0
C452 C 0.3323 0.66277 0.38571 0.0
C453 C 0.32529 0.66972 0.40554 0.0
C454 C 0.31266 0.69586 0.4051 0.0
C455 C 0.30666 0.71566 0.38476 0.0
C456 C 0.31386 0.71167 0.36494 0.0
C457 C 0.32652 0.68531 0.3654 0.0
C458 C 0.37702 0.58779 0.3317 0.0
C459 C 0.38242 0.79878 0.36858 0.0
O460 O 0.41269 0.55508 0.35151 0.0
O461 O 0.41636 0.67242 0.36876 0.0
O462 O 0.39926 0.67138 0.40527 0.0
O463 O 0.38477 0.58499 0.39977 0.0
O464 O 0.39284 0.47878 0.36582 0.0
O465 O 0.37385 0.47718 0.38426 0.0
O466 O 0.35388 0.65291 0.3989 0.0
O467 O 0.34905 0.5855 0.36833 0.0
O468 O 0.36811 0.54633 0.34147 0.0
O469 O 0.38138 0.64423 0.34448 0.0
O470 O 0.3724 0.75729 0.37569 0.0
O471 O 0.39264 0.75885 0.36191 0.0
H472 H 0.43668 0.53526 0.32779 0.0
H473 H 0.45943 0.51466 0.33092 0.0
H474 H 0.45849 0.61431 0.39812 0.0
H475 H 0.43572 0.63696 0.39457 0.0
H476 H 0.32947 0.65209 0.4214 0.0
H477 H 0.30754 0.6995 0.42074 0.0
H478 H 0.30957 0.72577 0.34894 0.0
H479 H 0.33163 0.67994 0.34978 0.0
Nd480 Nd 0.36778 0.46132 0.8764 0.0
Nd481 Nd 0.3977 0.45978 0.86995 0.0
C482 C 0.34452 0.45579 0.89301 0.0
C483 C 0.33151 0.42324 0.88958 0.0
C484 C 0.32464 0.39539 0.90819 0.0
C485 C 0.31198 0.371 0.90606 0.0
C486 C 0.30581 0.37346 0.88518 0.0
C487 C 0.31282 0.40002 0.86641 0.0
C488 C 0.32551 0.4247 0.86858 0.0
C489 C 0.37366 0.45591 0.8309 0.0
C490 C 0.3826 0.28277 0.87039 0.0
C491 C 0.42149 0.46745 0.85582 0.0
C492 C 0.43486 0.49086 0.85988 0.0
C493 C 0.44217 0.51845 0.84179 0.0
C494 C 0.45524 0.5297 0.84404 0.0
C495 C 0.46137 0.51392 0.86453 0.0
C496 C 0.45392 0.48857 0.88287 0.0
C497 C 0.44082 0.47691 0.88056 0.0
C498 C 0.38964 0.44532 0.9139 0.0
C499 C 0.38294 0.6428 0.87412 0.0
O500 O 0.35339 0.4026 0.89862 0.0
O501 O 0.34854 0.51457 0.87954 0.0
O502 O 0.36223 0.45513 0.83874 0.0
O503 O 0.38113 0.45506 0.84725 0.0
O504 O 0.37332 0.32232 0.88079 0.0
O505 O 0.3918 0.32473 0.86041 0.0
O506 O 0.41316 0.52572 0.85144 0.0
O507 O 0.41683 0.40538 0.86736 0.0
O508 O 0.40015 0.41516 0.9062 0.0
O509 O 0.38447 0.48998 0.89904 0.0
O510 O 0.39369 0.60239 0.87019 0.0
O511 O 0.37218 0.60309 0.87835 0.0
H512 H 0.329 0.39436 0.92459 0.0
H513 H 0.30694 0.3524 0.921 0.0
H514 H 0.30851 0.40173 0.85 0.0
H515 H 0.33057 0.44587 0.85391 0.0
H516 H 0.43784 0.52841 0.82559 0.0
H517 H 0.46058 0.54788 0.82939 0.0
H518 H 0.45821 0.477 0.89901 0.0
H519 H 0.43542 0.45514 0.89479 0.0
Nd520 Nd 0.6499 0.60301 0.87664 0.0
Nd521 Nd 0.62223 0.61141 0.87431 0.0
C522 C 0.67447 0.61428 0.88585 0.0
C523 C 0.6868 0.65772 0.883 0.0
C524 C 0.69309 0.68906 0.90191 0.0
C525 C 0.70554 0.71833 0.90041 0.0
C526 C 0.71209 0.71695 0.8799 0.0
C527 C 0.70562 0.68792 0.8608 0.0
C528 C 0.69316 0.65852 0.86233 0.0
C529 C 0.641 0.57781 0.83375 0.0
C530 C 0.63636 0.78889 0.87162 0.0
C531 C 0.59746 0.60639 0.86682 0.0
C532 C 0.58411 0.57757 0.86764 0.0
C533 C 0.57722 0.56997 0.84766 0.0
C534 C 0.56412 0.55714 0.84804 0.0
C535 C 0.55752 0.5518 0.86846 0.0
C536 C 0.56453 0.55667 0.88847 0.0
C537 C 0.57764 0.56955 0.88807 0.0
C538 C 0.63174 0.62747 0.9174 0.0
C539 C 0.63562 0.42615 0.87866 0.0
O540 O 0.66571 0.64822 0.89837 0.0
O541 O 0.66984 0.57274 0.86892 0.0
O542 O 0.6503 0.5379 0.84287 0.0
O543 O 0.63674 0.63344 0.84698 0.0
O544 O 0.64667 0.74701 0.8771 0.0
O545 O 0.62579 0.74959 0.8667 0.0
O546 O 0.60565 0.57636 0.85253 0.0
O547 O 0.60264 0.63577 0.88498 0.0
O548 O 0.62295 0.67382 0.90896 0.0
O549 O 0.63537 0.57421 0.90317 0.0
O550 O 0.62573 0.4683 0.87119 0.0
O551 O 0.6457 0.46636 0.88602 0.0
H552 H 0.68853 0.68797 0.91813 0.0
H553 H 0.71019 0.73894 0.91558 0.0
H554 H 0.71024 0.687 0.84465 0.0
H555 H 0.68865 0.6343 0.84741 0.0
H556 H 0.58191 0.57742 0.83168 0.0
H557 H 0.5591 0.55486 0.83228 0.0
H558 H 0.55986 0.55153 0.90452 0.0
H559 H 0.58263 0.57577 0.9038 0.0
Nd560 Nd 0.36852 0.60171 0.62485 0.0
Nd561 Nd 0.39619 0.60868 0.62435 0.0
C562 C 0.34379 0.61247 0.61741 0.0
C563 C 0.33157 0.65798 0.61889 0.0
C564 C 0.32512 0.67846 0.59912 0.0
C565 C 0.31271 0.70879 0.59981 0.0
C566 C 0.30638 0.7194 0.62034 0.0
C567 C 0.31303 0.70144 0.64019 0.0
C568 C 0.32545 0.67089 0.63949 0.0
C569 C 0.37875 0.56933 0.66627 0.0
C570 C 0.3826 0.78804 0.6279 0.0
C571 C 0.42093 0.58911 0.62769 0.0
C572 C 0.43481 0.57813 0.62961 0.0
C573 C 0.44081 0.57886 0.65059 0.0
C574 C 0.45389 0.56631 0.65231 0.0
C575 C 0.46133 0.5537 0.63304 0.0
C576 C 0.45524 0.55335 0.61208 0.0
C577 C 0.44218 0.56517 0.61041 0.0
C578 C 0.38525 0.63186 0.5828 0.0
C579 C 0.38244 0.42549 0.62274 0.0
O580 O 0.35228 0.63667 0.60289 0.0
O581 O 0.34873 0.58166 0.63565 0.0
O582 O 0.36926 0.52963 0.65767 0.0
O583 O 0.38255 0.62717 0.65336 0.0
O584 O 0.3719 0.74583 0.62565 0.0
O585 O 0.39356 0.74929 0.6294 0.0
O586 O 0.41401 0.61842 0.64403 0.0
O587 O 0.41466 0.57051 0.60951 0.0
O588 O 0.39432 0.67736 0.59076 0.0
O589 O 0.38217 0.5763 0.59677 0.0
O590 O 0.39208 0.46812 0.63092 0.0
O591 O 0.37253 0.46561 0.61478 0.0
H592 H 0.3295 0.66781 0.58299 0.0
H593 H 0.30791 0.7206 0.58413 0.0
H594 H 0.30857 0.70995 0.65633 0.0
H595 H 0.3301 0.65517 0.65506 0.0
H596 H 0.43536 0.58808 0.66573 0.0
H597 H 0.45815 0.56555 0.66879 0.0
H598 H 0.46059 0.54532 0.59681 0.0
H599 H 0.43785 0.56467 0.59399 0.0
Nd600 Nd 0.65052 0.48033 0.62449 0.0
Nd601 Nd 0.62275 0.47398 0.62432 0.0
C602 C 0.67545 0.47055 0.61969 0.0
C603 C 0.68767 0.4253 0.61763 0.0
C604 C 0.69488 0.43422 0.59807 0.0
C605 C 0.70739 0.40568 0.59721 0.0
C606 C 0.71307 0.36798 0.61597 0.0
C607 C 0.70566 0.35613 0.63527 0.0
C608 C 0.69313 0.38449 0.6361 0.0
C609 C 0.6403 0.51801 0.66581 0.0
C610 C 0.63647 0.29568 0.62679 0.0
C611 C 0.59794 0.48791 0.62847 0.0
C612 C 0.58399 0.49621 0.6302 0.0
C613 C 0.57771 0.483 0.65059 0.0
C614 C 0.5645 0.4894 0.65192 0.0
C615 C 0.55724 0.5089 0.63285 0.0
C616 C 0.5636 0.52188 0.61247 0.0
C617 C 0.57677 0.51582 0.61118 0.0
C618 C 0.63353 0.44672 0.58266 0.0
C619 C 0.6367 0.65852 0.622 0.0
O620 O 0.6677 0.4754 0.60266 0.0
O621 O 0.66967 0.47057 0.63896 0.0
O622 O 0.64964 0.5569 0.65655 0.0
O623 O 0.63645 0.45894 0.65328 0.0
O624 O 0.64677 0.33747 0.62122 0.0
O625 O 0.62588 0.33485 0.63165 0.0
O626 O 0.60517 0.46466 0.64509 0.0
O627 O 0.60398 0.50491 0.61 0.0
O628 O 0.62433 0.40308 0.59087 0.0
O629 O 0.63677 0.50305 0.59635 0.0
O630 O 0.62654 0.61647 0.62833 0.0
O631 O 0.64711 0.61849 0.61627 0.0
H632 H 0.69101 0.46627 0.58367 0.0
H633 H 0.71269 0.41462 0.58191 0.0
H634 H 0.70969 0.32823 0.65014 0.0
H635 H 0.68792 0.37748 0.65157 0.0
H636 H 0.583 0.46775 0.66556 0.0
H637 H 0.56001 0.47995 0.66798 0.0
H638 H 0.55839 0.53545 0.59731 0.0
H639 H 0.58129 0.52575 0.59515 0.0
C640 C 0.23451 0.1837 0.12741 0.0
C641 C 0.22599 0.23107 0.11459 0.0
C642 C 0.24742 0.20493 0.12862 0.0
C643 C 0.25201 0.27506 0.11666 0.0
C644 C 0.24343 0.32396 0.10404 0.0
C645 C 0.23057 0.30163 0.10321 0.0
C646 C 0.25622 0.15117 0.14232 0.0
C647 C 0.24785 0.39946 0.09111 0.0
C648 C 0.28383 0.37371 0.13163 0.0
C649 C 0.2918 0.34141 0.11491 0.0
C650 C 0.27096 0.35137 0.13271 0.0
C651 C 0.26583 0.29576 0.11663 0.0
C652 C 0.27386 0.26169 0.10001 0.0
C653 C 0.2867 0.28449 0.09943 0.0
C654 C 0.26278 0.38881 0.15079 0.0
C655 C 0.26886 0.20189 0.08258 0.0
H656 H 0.23118 0.12851 0.13608 0.0
H657 H 0.22409 0.3398 0.0936 0.0
H658 H 0.26329 0.12127 0.1312 0.0
H659 H 0.26149 0.19027 0.15449 0.0
H660 H 0.25111 0.10145 0.15159 0.0
H661 H 0.23996 0.43239 0.08262 0.0
H662 H 0.25265 0.44407 0.10252 0.0
H663 H 0.25485 0.38009 0.0783 0.0
H664 H 0.28756 0.41836 0.14357 0.0
H665 H 0.29275 0.25749 0.08673 0.0
H666 H 0.25789 0.33861 0.16022 0.0
H667 H 0.25537 0.42856 0.14311 0.0
H668 H 0.2683 0.42744 0.16276 0.0
H669 H 0.26443 0.14713 0.09081 0.0
H670 H 0.27638 0.17926 0.07112 0.0
H671 H 0.26144 0.2331 0.07249 0.0
C672 C 0.7829 0.89272 0.10396 0.0
C673 C 0.79208 0.84635 0.11557 0.0
C674 C 0.77005 0.87025 0.10449 0.0
C675 C 0.76616 0.79939 0.11689 0.0
C676 C 0.77533 0.75302 0.12894 0.0
C677 C 0.78814 0.77712 0.1282 0.0
C678 C 0.76063 0.92201 0.09154 0.0
C679 C 0.77164 0.67676 0.14224 0.0
C680 C 0.73107 0.77932 0.13143 0.0
C681 C 0.72662 0.72651 0.11437 0.0
C682 C 0.7439 0.80267 0.13266 0.0
C683 C 0.75258 0.77237 0.1165 0.0
C684 C 0.74818 0.71812 0.09945 0.0
C685 C 0.73532 0.69597 0.09859 0.0
C686 C 0.74813 0.86111 0.15102 0.0
C687 C 0.75707 0.6838 0.08196 0.0
H688 H 0.78576 0.9472 0.09448 0.0
H689 H 0.79512 0.74034 0.13707 0.0
H690 H 0.75609 0.88303 0.07845 0.0
H691 H 0.75303 0.94429 0.10286 0.0
H692 H 0.76507 0.97701 0.08339 0.0
H693 H 0.77978 0.6491 0.15133 0.0
H694 H 0.76419 0.6931 0.15454 0.0
H695 H 0.76762 0.6287 0.13089 0.0
H696 H 0.72446 0.80405 0.14358 0.0
H697 H 0.73209 0.6539 0.08557 0.0
H698 H 0.75184 0.91971 0.1436 0.0
H699 H 0.75593 0.83233 0.16071 0.0
H700 H 0.74033 0.87714 0.16269 0.0
H701 H 0.76122 0.73589 0.07219 0.0
H702 H 0.75227 0.64035 0.0702 0.0
H703 H 0.76498 0.65016 0.09013 0.0
C704 C 0.28424 0.69442 0.39787 0.0
C705 C 0.29288 0.73734 0.38422 0.0
C706 C 0.27125 0.71335 0.39751 0.0
C707 C 0.26667 0.7769 0.38315 0.0
C708 C 0.27532 0.82045 0.36931 0.0
C709 C 0.28827 0.80012 0.36997 0.0
C710 C 0.26239 0.6649 0.41244 0.0
C711 C 0.27089 0.88894 0.35385 0.0
C712 C 0.23165 0.7765 0.36744 0.0
C713 C 0.22661 0.83734 0.3819 0.0
C714 C 0.24461 0.75656 0.3676 0.0
C715 C 0.25285 0.79782 0.38269 0.0
C716 C 0.24784 0.85864 0.39748 0.0
C717 C 0.23485 0.87781 0.39686 0.0
C718 C 0.24949 0.69109 0.3516 0.0
C719 C 0.25625 0.90415 0.41386 0.0
H720 H 0.2876 0.64476 0.40865 0.0
H721 H 0.29483 0.83436 0.35952 0.0
H722 H 0.25735 0.70829 0.42383 0.0
H723 H 0.25514 0.63278 0.40215 0.0
H724 H 0.26742 0.61745 0.42268 0.0
H725 H 0.27877 0.91692 0.34414 0.0
H726 H 0.26378 0.86388 0.34196 0.0
H727 H 0.26621 0.93905 0.36366 0.0
H728 H 0.22542 0.74368 0.35603 0.0
H729 H 0.23122 0.92599 0.40785 0.0
H730 H 0.25393 0.63922 0.36108 0.0
H731 H 0.2569 0.71842 0.34071 0.0
H732 H 0.2419 0.66493 0.34083 0.0
H733 H 0.26104 0.85861 0.42497 0.0
H734 H 0.25091 0.94923 0.42438 0.0
H735 H 0.26372 0.93856 0.40469 0.0
C736 C 0.78247 0.16669 0.38684 0.0
C737 C 0.79196 0.2263 0.38279 0.0
C738 C 0.76958 0.18852 0.3865 0.0
C739 C 0.76596 0.27216 0.38207 0.0
C740 C 0.77546 0.3325 0.37778 0.0
C741 C 0.7883 0.30896 0.37819 0.0
C742 C 0.7598 0.12219 0.39123 0.0
C743 C 0.77206 0.42224 0.3729 0.0
C744 C 0.73188 0.31469 0.36382 0.0
C745 C 0.72619 0.34046 0.38391 0.0
C746 C 0.74479 0.29291 0.36292 0.0
C747 C 0.75227 0.2968 0.38257 0.0
C748 C 0.74661 0.32314 0.40285 0.0
C749 C 0.73371 0.34469 0.40327 0.0
C750 C 0.75038 0.26489 0.34095 0.0
C751 C 0.75419 0.32863 0.4242 0.0
H752 H 0.78512 0.10295 0.39077 0.0
H753 H 0.79548 0.35545 0.37472 0.0
H754 H 0.75441 0.13894 0.4065 0.0
H755 H 0.75294 0.11867 0.37723 0.0
H756 H 0.76408 0.05945 0.39367 0.0
H757 H 0.78051 0.46138 0.3695 0.0
H758 H 0.76567 0.42531 0.35822 0.0
H759 H 0.76689 0.44935 0.38732 0.0
H760 H 0.7262 0.31017 0.34879 0.0
H761 H 0.72955 0.366 0.41881 0.0
H762 H 0.75401 0.2001 0.34252 0.0
H763 H 0.75851 0.30532 0.33647 0.0
H764 H 0.74339 0.26676 0.32709 0.0
H765 H 0.75818 0.26644 0.42837 0.0
H766 H 0.74842 0.35059 0.43858 0.0
H767 H 0.76225 0.37212 0.42193 0.0
C768 C 0.73432 0.69882 0.86518 0.0
C769 C 0.72571 0.74271 0.87871 0.0
C770 C 0.74725 0.71993 0.86473 0.0
C771 C 0.75178 0.7864 0.8782 0.0
C772 C 0.74313 0.83178 0.89161 0.0
C773 C 0.73025 0.80961 0.89167 0.0
C774 C 0.75611 0.66988 0.85017 0.0
C775 C 0.7475 0.90336 0.90614 0.0
C776 C 0.78648 0.78955 0.89576 0.0
C777 C 0.79169 0.84976 0.88135 0.0
C778 C 0.7736 0.76803 0.89477 0.0
C779 C 0.76562 0.80688 0.87884 0.0
C780 C 0.77084 0.86624 0.86389 0.0
C781 C 0.78376 0.88712 0.86536 0.0
C782 C 0.7685 0.70408 0.91097 0.0
C783 C 0.76271 0.90891 0.84658 0.0
H784 H 0.73103 0.64628 0.85531 0.0
H785 H 0.72372 0.84504 0.90191 0.0
H786 H 0.76142 0.71207 0.83885 0.0
H787 H 0.76315 0.63724 0.86078 0.0
H788 H 0.75105 0.62265 0.83989 0.0
H789 H 0.73956 0.93389 0.91515 0.0
H790 H 0.75443 0.88037 0.91864 0.0
H791 H 0.75237 0.95097 0.89578 0.0
H792 H 0.7925 0.75877 0.90789 0.0
H793 H 0.78755 0.9344 0.85428 0.0
H794 H 0.7641 0.65158 0.90166 0.0
H795 H 0.76103 0.73274 0.92149 0.0
H796 H 0.77596 0.67853 0.92211 0.0
H797 H 0.7579 0.86161 0.836 0.0
H798 H 0.76826 0.9511 0.83559 0.0
H799 H 0.75524 0.94606 0.855 0.0
C800 C 0.28705 0.28483 0.89623 0.0
C801 C 0.2921 0.34994 0.88323 0.0
C802 C 0.27411 0.26428 0.89536 0.0
C803 C 0.26591 0.30932 0.88103 0.0
C804 C 0.27095 0.3741 0.86757 0.0
C805 C 0.28392 0.39371 0.86886 0.0
C806 C 0.26922 0.19445 0.90993 0.0
C807 C 0.26258 0.42367 0.85202 0.0
C808 C 0.2343 0.2084 0.86552 0.0
C809 C 0.22588 0.24704 0.8805 0.0
C810 C 0.24726 0.22888 0.86527 0.0
C811 C 0.25204 0.28931 0.88043 0.0
C812 C 0.24358 0.32931 0.89538 0.0
C813 C 0.23067 0.30795 0.8952 0.0
C814 C 0.25589 0.18465 0.84903 0.0
C815 C 0.2482 0.39437 0.91174 0.0
H816 H 0.29323 0.24928 0.90709 0.0
H817 H 0.28759 0.44483 0.85892 0.0
H818 H 0.26191 0.21892 0.92151 0.0
H819 H 0.26466 0.14586 0.89941 0.0
H820 H 0.27682 0.1647 0.91996 0.0
H821 H 0.26798 0.47034 0.84214 0.0
H822 H 0.25763 0.38101 0.8403 0.0
H823 H 0.25523 0.45686 0.86182 0.0
H824 H 0.23084 0.16038 0.85429 0.0
H825 H 0.22429 0.33946 0.9066 0.0
H826 H 0.26308 0.1482 0.85838 0.0
H827 H 0.26104 0.23097 0.83868 0.0
H828 H 0.25068 0.14152 0.83776 0.0
H829 H 0.25529 0.36632 0.92316 0.0
H830 H 0.24041 0.421 0.92196 0.0
H831 H 0.25294 0.44598 0.90264 0.0
C832 C 0.7357 0.39632 0.60516 0.0
C833 C 0.72678 0.34465 0.61575 0.0
C834 C 0.74865 0.37644 0.60519 0.0
C835 C 0.75291 0.3032 0.61614 0.0
C836 C 0.74399 0.25075 0.62686 0.0
C837 C 0.73107 0.27197 0.62652 0.0
C838 C 0.75782 0.43427 0.59361 0.0
C839 C 0.74809 0.17199 0.63868 0.0
C840 C 0.78486 0.21227 0.59922 0.0
C841 C 0.79284 0.24071 0.61643 0.0
C842 C 0.77191 0.23221 0.59891 0.0
C843 C 0.76668 0.28146 0.61629 0.0
C844 C 0.77465 0.31046 0.6337 0.0
C845 C 0.78759 0.29003 0.63353 0.0
C846 C 0.76379 0.19996 0.58002 0.0
C847 C 0.7695 0.3633 0.65254 0.0
H848 H 0.7326 0.45347 0.59715 0.0
H849 H 0.7243 0.23098 0.63454 0.0
H850 H 0.76486 0.45801 0.60582 0.0
H851 H 0.7631 0.3996 0.58053 0.0
H852 H 0.75302 0.48846 0.5857 0.0
H853 H 0.74001 0.13793 0.64627 0.0
H854 H 0.75294 0.12973 0.62673 0.0
H855 H 0.75497 0.18748 0.65206 0.0
H856 H 0.78868 0.17283 0.58612 0.0
H857 H 0.79362 0.31345 0.64676 0.0
H858 H 0.75922 0.25301 0.57121 0.0
H859 H 0.75613 0.16001 0.58679 0.0
H860 H 0.76929 0.16301 0.56766 0.0
H861 H 0.76528 0.42142 0.64572 0.0
H862 H 0.7769 0.38055 0.66489 0.0
H863 H 0.76188 0.32903 0.66136 0.0
C864 C 0.23183 0.78381 0.6044 0.0
C865 C 0.22684 0.85121 0.61664 0.0
C866 C 0.24472 0.76276 0.60561 0.0
C867 C 0.25292 0.80976 0.61949 0.0
C868 C 0.24794 0.8769 0.6322 0.0
C869 C 0.23501 0.8969 0.6306 0.0
C870 C 0.24958 0.69041 0.59186 0.0
C871 C 0.25633 0.92857 0.64723 0.0
C872 C 0.28433 0.70999 0.63626 0.0
C873 C 0.29279 0.74571 0.62088 0.0
C874 C 0.27141 0.73119 0.63624 0.0
C875 C 0.26674 0.78931 0.6204 0.0
C876 C 0.27524 0.82647 0.60505 0.0
C877 C 0.28811 0.80445 0.6055 0.0
C878 C 0.2627 0.69006 0.65291 0.0
C879 C 0.27071 0.88901 0.58795 0.0
H880 H 0.22562 0.74695 0.59387 0.0
H881 H 0.23136 0.94977 0.63992 0.0
H882 H 0.25691 0.71268 0.58004 0.0
H883 H 0.25409 0.64345 0.60293 0.0
H884 H 0.24196 0.65927 0.58214 0.0
H885 H 0.25097 0.97705 0.65656 0.0
H886 H 0.26123 0.88764 0.65944 0.0
H887 H 0.26374 0.95983 0.63711 0.0
H888 H 0.28772 0.66362 0.64801 0.0
H889 H 0.29454 0.8336 0.59377 0.0
H890 H 0.25551 0.65233 0.64394 0.0
H891 H 0.25758 0.73826 0.66269 0.0
H892 H 0.26786 0.64867 0.6647 0.0
H893 H 0.26363 0.85938 0.57679 0.0
H894 H 0.27854 0.91375 0.57752 0.0
H895 H 0.26598 0.94218 0.59644 0.0
C896 C 0.13437 0.95037 0.29133 0.0
C897 C 0.13667 1.01652 0.30618 0.0
C898 C 0.1337 0.96467 0.26802 0.0
C899 C 0.13515 0.04701 0.25948 0.0
C900 C 0.13647 0.1143 0.2747 0.0
C901 C 0.13736 0.09814 0.29773 0.0
C902 C 0.13239 0.89101 0.25244 0.0
C903 C 0.13785 0.20316 0.2666 0.0
C904 C 0.15196 0.08211 0.20398 0.0
C905 C 0.14201 0.10069 0.18929 0.0
C906 C 0.14975 0.06222 0.2265 0.0
C907 C 0.13725 0.06199 0.23494 0.0
C908 C 0.1271 0.0807 0.2202 0.0
C909 C 0.12959 0.09924 0.19748 0.0
C910 C 0.1609 0.04203 0.24135 0.0
C911 C 0.11366 0.08231 0.22853 0.0
H912 H 0.13392 0.8871 0.29776 0.0
H913 H 0.13906 0.14959 0.30918 0.0
H914 H 0.12534 0.90438 0.23918 0.0
H915 H 0.14157 0.87929 0.24407 0.0
H916 H 0.12953 0.83334 0.26145 0.0
H917 H 0.13694 0.24916 0.28044 0.0
H918 H 0.14726 0.21125 0.25875 0.0
H919 H 0.13062 0.2174 0.25371 0.0
H920 H 0.16159 0.08229 0.1978 0.0
H921 H 0.12184 0.11304 0.1862 0.0
H922 H 0.15948 0.98054 0.24954 0.0
H923 H 0.16171 0.08965 0.25478 0.0
H924 H 0.16995 0.04028 0.23196 0.0
H925 H 0.11128 1.02195 0.2366 0.0
H926 H 0.10678 0.09436 0.21487 0.0
H927 H 0.11261 0.13178 0.24142 0.0
C928 C 0.88751 0.04115 0.30155 0.0
C929 C 0.87823 0.10001 0.30728 0.0
C930 C 0.88894 1.0136 0.27919 0.0
C931 C 0.88114 0.04731 0.26207 0.0
C932 C 0.87234 0.11074 0.26774 0.0
C933 C 0.87084 0.13499 0.29022 0.0
C934 C 0.89819 0.94441 0.27418 0.0
C935 C 0.86404 0.15044 0.25016 0.0
C936 C 0.88752 1.01709 0.19933 0.0
C937 C 0.87797 0.96039 0.19343 0.0
C938 C 0.88906 0.04379 0.22174 0.0
C939 C 0.88109 1.01127 0.23875 0.0
C940 C 0.87201 0.94979 0.23292 0.0
C941 C 0.8704 0.92648 0.21038 0.0
C942 C 0.89861 0.111 0.22691 0.0
C943 C 0.86353 0.91134 0.25039 0.0
H944 H 0.89307 1.01265 0.31473 0.0
H945 H 0.86361 0.18021 0.29456 0.0
H946 H 0.8929 0.88615 0.27042 0.0
H947 H 0.90392 0.95968 0.25921 0.0
H948 H 0.90464 0.93224 0.28847 0.0
H949 H 0.85888 0.20581 0.25669 0.0
H950 H 0.86979 0.16996 0.23556 0.0
H951 H 0.85701 0.10423 0.24413 0.0
H952 H 0.89325 0.0447 0.18625 0.0
H953 H 0.86297 0.88288 0.2059 0.0
H954 H 0.9043 0.09403 0.24182 0.0
H955 H 0.89359 0.17009 0.23086 0.0
H956 H 0.9051 0.12252 0.21264 0.0
H957 H 0.86917 0.89069 0.26503 0.0
H958 H 0.85817 0.85695 0.24378 0.0
H959 H 0.85666 0.95869 0.25641 0.0
C960 C 0.88152 0.98774 0.69963 0.0
C961 C 0.88183 0.06842 0.69049 0.0
C962 C 0.88256 0.97437 0.72281 0.0
C963 C 0.88359 0.04353 0.73752 0.0
C964 C 0.88457 0.12514 0.72827 0.0
C965 C 0.88382 0.13662 0.70483 0.0
C966 C 0.88171 0.88619 0.73162 0.0
C967 C 0.8855 0.2008 0.74323 0.0
C968 C 0.86701 1.01113 0.79341 0.0
C969 C 0.87702 0.99602 0.8083 0.0
C970 C 0.86911 1.02888 0.77073 0.0
C971 C 0.8816 1.03086 0.76225 0.0
C972 C 0.89183 1.0161 0.77717 0.0
C973 C 0.88943 0.99934 0.80007 0.0
C974 C 0.85786 0.04458 0.75574 0.0
C975 C 0.90527 1.01674 0.76885 0.0
H976 H 0.88006 0.93469 0.68862 0.0
H977 H 0.88398 0.1992 0.69789 0.0
H978 H 0.88904 0.87521 0.74456 0.0
H979 H 0.87236 0.87666 0.73961 0.0
H980 H 0.88285 0.83894 0.71814 0.0
H981 H 0.88796 0.25817 0.73373 0.0
H982 H 0.87628 0.21097 0.75166 0.0
H983 H 0.89267 0.1908 0.75648 0.0
H984 H 0.85738 1.00935 0.79953 0.0
H985 H 0.89723 0.9882 0.81144 0.0
H986 H 0.85729 0.99505 0.74277 0.0
H987 H 0.85896 0.10523 0.74697 0.0
H988 H 0.84881 0.0455 0.76513 0.0
H989 H 0.90656 0.9667 0.75619 0.0
H990 H 0.9122 1.00708 0.78256 0.0
H991 H 0.90735 0.07706 0.76049 0.0
C992 C 0.13473 0.13705 0.79282 0.0
C993 C 0.13852 0.07186 0.80698 0.0
C994 C 0.13364 0.12417 0.76948 0.0
C995 C 0.13616 0.044 0.76021 0.0
C996 C 0.13902 0.97696 0.77482 0.0
C997 C 0.14031 0.99192 0.79786 0.0
C998 C 0.1307 0.19762 0.75459 0.0
C999 C 0.14154 0.89015 0.76597 0.0
C1000 C 0.12989 0.99061 0.69839 0.0
C1001 C 0.14209 0.99697 0.68937 0.0
C1002 C 0.12766 1.0074 0.72133 0.0
C1003 C 0.13781 1.03243 0.73541 0.0
C1004 C 0.15002 0.04121 0.72605 0.0
C1005 C 0.152 1.02278 0.70338 0.0
C1006 C 0.11454 0.99619 0.73065 0.0
C1007 C 0.16114 0.06862 0.74011 0.0
H1008 H 0.13337 0.19903 0.79977 0.0
H1009 H 0.1431 0.94103 0.80878 0.0
H1010 H 0.13939 0.21641 0.74551 0.0
H1011 H 0.12354 0.18034 0.74186 0.0
H1012 H 0.1272 0.25225 0.76425 0.0
H1013 H 0.14174 0.84276 0.77953 0.0
H1014 H 0.13423 0.87197 0.75359 0.0
H1015 H 0.15081 0.8892 0.7573 0.0
H1016 H 0.12217 0.971 0.68768 0.0
H1017 H 0.16145 1.02883 0.69657 0.0
H1018 H 0.11154 0.0533 0.73976 0.0
H1019 H 0.11453 0.94406 0.74288 0.0
H1020 H 0.10749 0.98228 0.71738 0.0
H1021 H 0.1589 0.1279 0.74891 0.0
H1022 H 0.16982 0.07807 0.73 0.0
H1023 H 0.16316 1.0208 0.75305 0.0
C1024 C 0.63096 0.51373 0.29994 0.0
C1025 C 0.64066 0.45851 0.30609 0.0
C1026 C 0.62954 0.54004 0.27749 0.0
C1027 C 0.63778 0.50867 0.26071 0.0
C1028 C 0.64702 0.44867 0.26679 0.0
C1029 C 0.6485 0.42567 0.28936 0.0
C1030 C 0.61978 0.60566 0.27204 0.0
C1031 C 0.65581 0.41151 0.24956 0.0
C1032 C 0.63181 0.53671 0.19777 0.0
C1033 C 0.64094 0.59679 0.19227 0.0
C1034 C 0.63028 0.50922 0.22009 0.0
C1035 C 0.63781 0.54442 0.2374 0.0
C1036 C 0.64644 0.60906 0.23194 0.0
C1037 C 0.64807 0.63306 0.20949 0.0
C1038 C 0.62125 0.43862 0.22487 0.0
C1039 C 0.65441 0.6504 0.24973 0.0
H1040 H 0.62502 0.54049 0.31285 0.0
H1041 H 0.65603 0.38318 0.29403 0.0
H1042 H 0.62462 0.66558 0.2683 0.0
H1043 H 0.61433 0.58781 0.25694 0.0
H1044 H 0.61311 0.61606 0.28611 0.0
H1045 H 0.66131 0.35808 0.25633 0.0
H1046 H 0.65039 0.38982 0.23477 0.0
H1047 H 0.66255 0.45994 0.24375 0.0
H1048 H 0.62644 0.50729 0.18446 0.0
H1049 H 0.65518 0.67927 0.2053 0.0
H1050 H 0.61527 0.45346 0.23957 0.0
H1051 H 0.62671 0.38144 0.22897 0.0
H1052 H 0.61503 0.42479 0.21035 0.0
H1053 H 0.64845 0.6692 0.26414 0.0
H1054 H 0.65942 0.70649 0.24332 0.0
H1055 H 0.66156 0.60546 0.25601 0.0
C1056 C 0.38354 0.63858 0.29333 0.0
C1057 C 0.38034 0.57317 0.30785 0.0
C1058 C 0.38441 0.6248 0.26999 0.0
C1059 C 0.38229 0.54354 0.26108 0.0
C1060 C 0.38002 0.47657 0.27603 0.0
C1061 C 0.37892 0.49237 0.29907 0.0
C1062 C 0.3867 0.69821 0.25474 0.0
C1063 C 0.37794 0.38871 0.26758 0.0
C1064 C 0.36615 0.51648 0.2046 0.0
C1065 C 0.37612 0.49368 0.19037 0.0
C1066 C 0.36817 0.5354 0.22724 0.0
C1067 C 0.38049 0.53022 0.23636 0.0
C1068 C 0.39069 0.50771 0.22209 0.0
C1069 C 0.3884 0.4904 0.19918 0.0
C1070 C 0.35699 0.55996 0.24152 0.0
C1071 C 0.40394 0.50024 0.23113 0.0
H1072 H 0.3846 0.70123 0.3 0.0
H1073 H 0.37658 0.44136 0.31026 0.0
H1074 H 0.39389 0.68239 0.24191 0.0
H1075 H 0.37782 0.71372 0.24578 0.0
H1076 H 0.38988 0.75443 0.26409 0.0
H1077 H 0.37819 0.34202 0.28132 0.0
H1078 H 0.3686 0.3848 0.25923 0.0
H1079 H 0.38522 0.37186 0.25502 0.0
H1080 H 0.35663 0.5201 0.19796 0.0
H1081 H 0.39617 0.47319 0.1883 0.0
H1082 H 0.35889 0.62027 0.25007 0.0
H1083 H 0.35544 0.51219 0.25467 0.0
H1084 H 0.34816 0.56625 0.23162 0.0
H1085 H 0.40673 0.55906 0.23964 0.0
H1086 H 0.41093 0.48615 0.2178 0.0
H1087 H 0.4043 0.44973 0.24382 0.0
C1088 C 0.3892 0.47788 0.7991 0.0
C1089 C 0.37673 0.47214 0.80696 0.0
C1090 C 0.39173 0.49622 0.77637 0.0
C1091 C 0.38158 0.51012 0.76125 0.0
C1092 C 0.36902 0.50511 0.76932 0.0
C1093 C 0.36678 0.48577 0.79188 0.0
C1094 C 0.40525 0.49995 0.76846 0.0
C1095 C 0.35786 0.51988 0.75407 0.0
C1096 C 0.38396 0.62296 0.70493 0.0
C1097 C 0.38241 0.55615 0.68999 0.0
C1098 C 0.38454 0.60881 0.72827 0.0
C1099 C 0.38379 0.52597 0.73675 0.0
C1100 C 0.38326 0.45838 0.72145 0.0
C1101 C 0.3824 0.47435 0.69839 0.0
C1102 C 0.38495 0.68279 0.74389 0.0
C1103 C 0.3827 0.36907 0.72948 0.0
H1104 H 0.39694 0.46791 0.81066 0.0
H1105 H 0.35712 0.48208 0.79779 0.0
H1106 H 0.40683 0.45184 0.75538 0.0
H1107 H 0.40719 0.56164 0.76074 0.0
H1108 H 0.41209 0.48958 0.78228 0.0
H1109 H 0.34871 0.51759 0.76314 0.0
H1110 H 0.35873 0.58177 0.74585 0.0
H1111 H 0.3577 0.47184 0.74068 0.0
H1112 H 0.38382 0.68636 0.69854 0.0
H1113 H 0.38122 0.42249 0.68686 0.0
H1114 H 0.39199 0.6725 0.75736 0.0
H1115 H 0.37559 0.69033 0.75199 0.0
H1116 H 0.3873 0.74167 0.73498 0.0
H1117 H 0.38986 0.35802 0.7427 0.0
H1118 H 0.38428 0.32374 0.71567 0.0
H1119 H 0.37327 0.35667 0.73687 0.0
C1120 C 0.64501 0.50885 0.79705 0.0
C1121 C 0.63811 0.56806 0.80941 0.0
C1122 C 0.64346 0.49977 0.77386 0.0
C1123 C 0.6346 0.55023 0.76237 0.0
C1124 C 0.62713 0.60764 0.77484 0.0
C1125 C 0.62902 0.61635 0.79821 0.0
C1126 C 0.65178 0.43845 0.76149 0.0
C1127 C 0.61741 0.66146 0.76338 0.0
C1128 C 0.644 0.59187 0.70195 0.0
C1129 C 0.6374 0.52984 0.69007 0.0
C1130 C 0.64269 0.60142 0.72518 0.0
C1131 C 0.63437 0.54866 0.73717 0.0
C1132 C 0.62713 0.48868 0.72515 0.0
C1133 C 0.62879 0.47947 0.70175 0.0
C1134 C 0.65078 0.66537 0.73706 0.0
C1135 C 0.61797 0.43226 0.73714 0.0
H1136 H 0.65198 0.47039 0.80547 0.0
H1137 H 0.62354 0.66161 0.8076 0.0
H1138 H 0.64592 0.39534 0.75131 0.0
H1139 H 0.65807 0.4728 0.74986 0.0
H1140 H 0.65774 0.4007 0.77297 0.0
H1141 H 0.61122 0.69434 0.77554 0.0
H1142 H 0.62222 0.70887 0.75289 0.0
H1143 H 0.61144 0.6229 0.75211 0.0
H1144 H 0.65059 0.63186 0.69314 0.0
H1145 H 0.62356 0.43186 0.69275 0.0
H1146 H 0.65758 0.63304 0.74822 0.0
H1147 H 0.64483 0.70634 0.74768 0.0
H1148 H 0.65618 0.70516 0.72523 0.0
H1149 H 0.62328 0.38536 0.74704 0.0
H1150 H 0.61165 0.39865 0.72532 0.0
H1151 H 0.6121 0.46885 0.74901 0.0
C1152 C 0.12055 0.10624 0.95169 0.0
C1153 C 0.13116 0.11719 0.93799 0.0
C1154 C 0.12164 0.10329 0.97511 0.0
C1155 C 0.13361 0.11469 0.98533 0.0
C1156 C 0.14442 0.12502 0.97152 0.0
C1157 C 0.14309 0.1247 0.94799 0.0
C1158 C 0.1099 0.08967 0.98896 0.0
C1159 C 0.15728 0.14026 0.98161 0.0
C1160 C 0.13074 0.20001 0.04472 0.0
C1161 C 0.1327 0.12846 0.05777 0.0
C1162 C 0.13185 0.19743 0.02127 0.0
C1163 C 0.13452 0.12062 0.0104 0.0
C1164 C 0.13685 0.04851 0.0236 0.0
C1165 C 0.13611 0.05358 0.04716 0.0
C1166 C 0.1297 0.27651 0.00807 0.0
C1167 C 0.13936 0.96491 0.01281 0.0
H1168 H 0.11131 0.1 0.94402 0.0
H1169 H 0.15129 0.13404 0.93745 0.0
H1170 H 0.11147 0.03863 0.0012 0.0
H1171 H 0.10769 0.14715 0.99858 0.0
H1172 H 0.10156 0.07363 0.9785 0.0
H1173 H 0.16483 0.14248 0.96873 0.0
H1174 H 0.15721 0.20055 0.99081 0.0
H1175 H 0.1596 0.09065 0.99387 0.0
H1176 H 0.12815 0.25811 0.05288 0.0
H1177 H 0.13751 0.99788 0.05717 0.0
H1178 H 0.12061 0.27205 0.99889 0.0
H1179 H 0.13729 0.28482 0.99547 0.0
H1180 H 0.12939 0.33277 0.01896 0.0
H1181 H 0.13075 0.94395 0.00379 0.0
H1182 H 0.14199 0.91637 0.02524 0.0
H1183 H 0.14703 0.97019 0.00027 0.0
C1184 C 0.89368 0.99051 0.95448 0.0
C1185 C 0.88423 0.95342 0.9414 0.0
C1186 C 0.89286 0.99191 0.97799 0.0
C1187 C 0.88244 0.95381 0.98886 0.0
C1188 C 0.87268 0.91807 0.9756 0.0
C1189 C 0.87367 0.91865 0.95201 0.0
C1190 C 0.90343 1.03146 0.99124 0.0
C1191 C 0.86151 0.87565 0.98634 0.0
C1192 C 0.89012 0.87325 0.04738 0.0
C1193 C 0.88519 0.93605 0.06129 0.0
C1194 C 0.88877 0.87658 0.02399 0.0
C1195 C 0.88245 0.94502 0.01395 0.0
C1196 C 0.87704 1.00728 0.02796 0.0
C1197 C 0.87841 1.00186 0.05146 0.0
C1198 C 0.89454 0.80803 0.00995 0.0
C1199 C 0.87028 0.08147 0.01804 0.0
H1200 H 0.90188 1.01703 0.94628 0.0
H1201 H 0.86643 0.88901 0.94192 0.0
H1202 H 0.89954 0.0762 0.00364 0.0
H1203 H 0.9086 0.98248 0.00065 0.0
H1204 H 0.91027 0.06499 0.98038 0.0
H1205 H 0.85416 0.85823 0.97391 0.0
H1206 H 0.86472 0.81811 0.99499 0.0
H1207 H 0.85721 0.91693 -0.00084 0.0
H1208 H 0.8953 0.82182 0.05482 0.0
H1209 H 0.8746 0.05079 0.06205 0.0
H1210 H 0.90245 0.83381 -8e-05 0.0
H1211 H 0.88745 0.78286 0.99805 0.0
H1212 H 0.89822 0.75573 0.02028 0.0
H1213 H 0.87713 0.12057 0.00869 0.0
H1214 H 0.86569 0.12076 0.03103 0.0
H1215 H 0.863 0.06041 0.00594 0.0
C1216 C 0.13323 0.87003 0.4497 0.0
C1217 C 0.1347 0.94315 0.43707 0.0
C1218 C 0.13439 0.87097 0.47315 0.0
C1219 C 0.13666 0.94747 0.48445 0.0
C1220 C 0.13851 1.02121 0.47167 0.0
C1221 C 0.1377 1.01796 0.44811 0.0
C1222 C 0.13271 0.79038 0.4859 0.0
C1223 C 0.14061 0.10443 0.48295 0.0
C1224 C 0.12277 0.95655 0.54322 0.0
C1225 C 0.13347 0.94764 0.55684 0.0
C1226 C 0.12378 0.95987 0.5198 0.0
C1227 C 0.13578 0.95127 0.50952 0.0
C1228 C 0.14666 0.94267 0.52325 0.0
C1229 C 0.1454 0.94236 0.54679 0.0
C1230 C 0.11194 0.97135 0.50604 0.0
C1231 C 0.15957 0.93063 0.51306 0.0
H1232 H 0.13098 0.81195 0.44121 0.0
H1233 H 0.13875 0.0748 0.43843 0.0
H1234 H 0.14039 0.78283 0.49839 0.0
H1235 H 0.12364 0.79198 0.49517 0.0
H1236 H 0.13267 0.73497 0.47468 0.0
H1237 H 0.14287 0.15468 0.47079 0.0
H1238 H 0.13195 0.12242 0.49225 0.0
H1239 H 0.1484 0.09997 0.4953 0.0
H1240 H 0.11353 0.96123 0.55095 0.0
H1241 H 0.15367 0.93485 0.55728 0.0
H1242 H 0.1101 0.91417 0.49606 0.0
H1243 H 0.11318 1.02383 0.49412 0.0
H1244 H 0.10352 0.98419 0.51658 0.0
H1245 H 0.15972 0.87146 0.50335 0.0
H1246 H 0.16714 0.92819 0.52591 0.0
H1247 H 0.16168 0.98204 0.50121 0.0
C1248 C 0.88796 0.19731 0.54516 0.0
C1249 C 0.88489 0.12796 0.55844 0.0
C1250 C 0.88717 0.19395 0.52166 0.0
C1251 C 0.88348 0.11876 0.51091 0.0
C1252 C 0.87986 0.04951 0.52431 0.0
C1253 C 0.8805 0.05513 0.5479 0.0
C1254 C 0.89093 0.26988 0.50827 0.0
C1255 C 0.87602 0.96781 0.5137 0.0
C1256 C 0.87736 0.12535 0.44736 0.0
C1257 C 0.8893 0.1041 0.4389 0.0
C1258 C 0.87516 0.12878 0.47074 0.0
C1259 C 0.88508 0.10973 0.48597 0.0
C1260 C 0.897 0.08589 0.47731 0.0
C1261 C 0.89895 0.08382 0.45408 0.0
C1262 C 0.86235 0.15534 0.47916 0.0
C1263 C 0.90788 0.06444 0.49264 0.0
H1264 H 0.89126 0.25412 0.55317 0.0
H1265 H 0.87813 1.00117 0.55801 0.0
H1266 H 0.90006 0.25779 0.49974 0.0
H1267 H 0.8838 0.28292 0.49513 0.0
H1268 H 0.892 0.32637 0.51893 0.0
H1269 H 0.87213 0.92314 0.52612 0.0
H1270 H 0.86886 0.97855 0.50046 0.0
H1271 H 0.88438 0.93877 0.50561 0.0
H1272 H 0.86987 0.14153 0.43578 0.0
H1273 H 0.90821 0.067 0.44777 0.0
H1274 H 0.86319 0.21607 0.48802 0.0
H1275 H 0.8587 0.10919 0.4914 0.0
H1276 H 0.85537 0.16219 0.46539 0.0
H1277 H 0.91061 0.12034 0.50252 0.0
H1278 H 0.91631 0.04218 0.48332 0.0
H1279 H 0.90499 1.01521 0.50465 0.0
C1280 C 0.64156 0.61943 0.05295 0.0
C1281 C 0.62956 0.59909 0.06134 0.0
C1282 C 0.64381 0.6226 0.0296 0.0
C1283 C 0.63388 0.60432 0.01432 0.0
C1284 C 0.6219 0.58135 0.0229 0.0
C1285 C 0.61991 0.57943 0.04611 0.0
C1286 C 0.65668 0.64814 0.02126 0.0
C1287 C 0.61101 0.5608 0.0075 0.0
C1288 C 0.63123 0.69316 0.95533 0.0
C1289 C 0.63419 0.62383 0.94193 0.0
C1290 C 0.63197 0.68931 0.97882 0.0
C1291 C 0.63553 0.61363 0.98942 0.0
C1292 C 0.63906 0.54436 0.97591 0.0
C1293 C 0.63846 0.55047 0.95234 0.0
C1294 C 0.62832 0.76526 0.99234 0.0
C1295 C 0.64274 0.4622 0.98638 0.0
H1296 H 0.64905 0.63507 0.06456 0.0
H1297 H 0.61061 0.56337 0.05238 0.0
H1298 H 0.66024 0.60193 0.00895 0.0
H1299 H 0.65597 0.70914 0.01253 0.0
H1300 H 0.66365 0.65406 0.03507 0.0
H1301 H 0.60253 0.53902 0.01675 0.0
H1302 H 0.60838 0.61699 0.99768 0.0
H1303 H 0.61384 0.51151 0.99543 0.0
H1304 H 0.62802 0.75032 0.94741 0.0
H1305 H 0.64074 0.49651 0.94213 0.0
H1306 H 0.63547 0.77761 0.00551 0.0
H1307 H 0.61917 0.75364 0.00083 0.0
H1308 H 0.62734 0.822 0.98178 0.0
H1309 H 0.64988 0.47216 -0.0003 0.0
H1310 H 0.6466 0.41752 0.9739 0.0
H1311 H 0.63433 0.43354 0.99434 0.0
C1312 C 0.3976 0.46323 0.95286 0.0
C1313 C 0.3873 0.4528 0.93835 0.0
C1314 C 0.39599 0.46497 0.97619 0.0
C1315 C 0.38382 0.45301 0.98551 0.0
C1316 C 0.37333 0.44297 0.9709 0.0
C1317 C 0.37517 0.44439 0.94747 0.0
C1318 C 0.40742 0.4783 0.99089 0.0
C1319 C 0.36026 0.42733 0.98001 0.0
C1320 C 0.38554 0.36903 0.04515 0.0
C1321 C 0.38349 0.44116 0.05798 0.0
C1322 C 0.38481 0.37092 0.02163 0.0
C1323 C 0.38236 0.44745 0.01049 0.0
C1324 C 0.37985 0.51998 0.02345 0.0
C1325 C 0.38027 0.51573 0.04703 0.0
C1326 C 0.38718 0.29148 0.00867 0.0
C1327 C 0.37752 0.60327 0.0124 0.0
H1328 H 0.407 0.4702 0.9459 0.0
H1329 H 0.36721 0.4355 0.93633 0.0
H1330 H 0.40561 0.52964 0.00297 0.0
H1331 H 0.40934 0.42091 0.00072 0.0
H1332 H 0.41602 0.49381 0.98108 0.0
H1333 H 0.35301 0.42477 0.96659 0.0
H1334 H 0.36016 0.36712 0.98922 0.0
H1335 H 0.35763 0.47696 0.9921 0.0
H1336 H 0.38798 0.31113 0.05353 0.0
H1337 H 0.37877 0.5719 0.05684 0.0
H1338 H 0.39646 0.29549 0.00013 0.0
H1339 H 0.37986 0.28308 0.99557 0.0
H1340 H 0.38722 0.23548 0.01964 0.0
H1341 H 0.38629 0.62421 0.00393 0.0
H1342 H 0.37461 0.65205 0.02459 0.0
H1343 H 0.3701 0.59752 -0.00062 0.0
C1344 C 0.62354 0.3951 0.4529 0.0
C1345 C 0.63182 0.4366 0.4383 0.0
C1346 C 0.62504 0.39907 0.47624 0.0
C1347 C 0.63524 0.4446 0.48556 0.0
C1348 C 0.6439 0.48477 0.47091 0.0
C1349 C 0.64204 0.48088 0.44747 0.0
C1350 C 0.61548 0.3558 0.49097 0.0
C1351 C 0.65505 0.53243 0.48006 0.0
C1352 C 0.63007 0.51735 0.54587 0.0
C1353 C 0.63556 0.45222 0.55815 0.0
C1354 C 0.63031 0.51729 0.52228 0.0
C1355 C 0.63645 0.45151 0.51061 0.0
C1356 C 0.64255 0.38774 0.52311 0.0
C1357 C 0.64182 0.38804 0.54669 0.0
C1358 C 0.62337 0.5852 0.50982 0.0
C1359 C 0.64943 0.31737 0.51155 0.0
H1360 H 0.61563 0.36037 0.44608 0.0
H1361 H 0.64853 0.51277 0.43636 0.0
H1362 H 0.62026 0.30931 0.5018 0.0
H1363 H 0.61087 0.40214 0.50212 0.0
H1364 H 0.60804 0.32323 0.48116 0.0
H1365 H 0.66137 0.55564 0.4666 0.0
H1366 H 0.65169 0.58661 0.49 0.0
H1367 H 0.6606 0.49192 0.49148 0.0
H1368 H 0.62505 0.56635 0.55472 0.0
H1369 H 0.64599 0.33731 0.55618 0.0
H1370 H 0.61525 0.55755 0.50068 0.0
H1371 H 0.62965 0.61434 0.49721 0.0
H1372 H 0.61976 0.63473 0.52118 0.0
H1373 H 0.6425 0.27567 0.50321 0.0
H1374 H 0.65511 0.27948 0.52344 0.0
H1375 H 0.65578 0.3424 0.49841 0.0
C1376 C 0.3771 0.68623 0.54638 0.0
C1377 C 0.38338 0.6236 0.55836 0.0
C1378 C 0.37662 0.68456 0.52281 0.0
C1379 C 0.38298 0.62032 0.51089 0.0
C1380 C 0.38913 0.55602 0.52309 0.0
C1381 C 0.38913 0.55794 0.54666 0.0
C1382 C 0.36972 0.75335 0.51065 0.0
C1383 C 0.39631 0.48765 0.51122 0.0
C1384 C 0.37743 0.5858 0.44804 0.0
C1385 C 0.38751 0.6306 0.43864 0.0
C1386 C 0.37566 0.58291 0.47148 0.0
C1387 C 0.38427 0.62479 0.48587 0.0
C1388 C 0.3944 0.67035 0.47633 0.0
C1389 C 0.39582 0.67319 0.45297 0.0
C1390 C 0.36461 0.53497 0.48087 0.0
C1391 C 0.4039 0.71539 0.49086 0.0
H1392 H 0.37274 0.73736 0.55546 0.0
H1393 H 0.39416 0.51021 0.55595 0.0
H1394 H 0.37665 0.79439 0.5021 0.0
H1395 H 0.36345 0.72659 0.49759 0.0
H1396 H 0.36395 0.79228 0.52216 0.0
H1397 H 0.39991 0.43943 0.52296 0.0
H1398 H 0.39019 0.45689 0.4986 0.0
H1399 H 0.40445 0.51519 0.50217 0.0
H1400 H 0.37091 0.55313 0.4371 0.0
H1401 H 0.40362 0.70822 0.44591 0.0
H1402 H 0.35884 0.57647 0.49168 0.0
H1403 H 0.36808 0.48303 0.49151 0.0
H1404 H 0.35848 0.50861 0.46754 0.0
H1405 H 0.39904 0.76277 0.50133 0.0
H1406 H 0.41132 0.74724 0.48089 0.0
H1407 H 0.40852 0.67037 0.50236 0.0
C1408 C 0.98111 0.08931 0.12599 0.0
C1409 C 0.97553 1.01647 0.13453 0.0
C1410 C 0.99435 0.09817 0.12504 0.0
C1411 C 1.00225 1.03217 0.13249 0.0
C1412 C 0.99665 0.95786 0.14069 0.0
C1413 C 0.98341 0.95112 0.14173 0.0
C1414 C 0.99991 0.17886 0.11649 0.0
C1415 C 1.00466 0.88545 0.14849 0.0
C1416 C 0.03676 1.02438 0.11369 0.0
C1417 C 0.04315 0.05379 0.13273 0.0
C1418 C 0.02349 1.01765 0.11328 0.0
C1419 C 0.01635 0.04135 0.13232 0.0
C1420 C 0.02273 0.07188 0.1515 0.0
C1421 C 0.036 0.0776 0.15148 0.0
C1422 C 0.01711 0.98392 0.09258 0.0
C1423 C 0.01554 0.09855 0.1721 0.0
H1424 H 0.97511 0.14028 0.12054 0.0
H1425 H 0.97919 0.89409 0.14805 0.0
H1426 H 1.00565 0.20866 0.12982 0.0
H1427 H 1.00632 0.1661 0.10222 0.0
H1428 H 0.99253 0.22374 0.11099 0.0
H1429 H 0.99888 0.83078 0.15361 0.0
H1430 H 0.01117 0.86573 0.13494 0.0
H1431 H 0.01057 0.90509 0.16289 0.0
H1432 H 0.04217 1.00509 0.09918 0.0
H1433 H 0.04078 0.10192 0.16614 0.0
H1434 H 0.01014 1.02987 0.08619 0.0
H1435 H 0.01184 0.92605 0.09675 0.0
H1436 H 0.02396 0.96954 0.07904 0.0
H1437 H 1.00857 0.14765 0.16769 0.0
H1438 H 0.02186 0.12311 0.18541 0.0
H1439 H 0.01018 0.04476 0.17894 0.0
C1440 C 0.98267 1.00182 0.35158 0.0
C1441 C 0.97612 0.06432 0.36339 0.0
C1442 C 0.99592 0.9955 0.35255 0.0
C1443 C 1.00293 0.05257 0.36578 0.0
C1444 C 0.9964 0.11483 0.37807 0.0
C1445 C 0.98313 0.12013 0.37669 0.0
C1446 C 1.00245 0.92799 0.33921 0.0
C1447 C 1.00347 0.17684 0.39242 0.0
C1448 C 0.03663 0.99148 0.38206 0.0
C1449 C 0.04392 1.0349 0.3662 0.0
C1450 C 0.02335 0.99776 0.38237 0.0
C1451 C 0.01709 0.04807 0.36633 0.0
C1452 C 0.02436 0.09275 0.35046 0.0
C1453 C 0.03763 0.086 0.35065 0.0
C1454 C 0.016 0.94923 0.39964 0.0
C1455 C 0.01812 0.1472 0.33306 0.0
H1456 H 0.97741 0.95729 0.34157 0.0
H1457 H 0.97828 0.16947 0.38565 0.0
H1458 H 1.00903 0.95671 0.32699 0.0
H1459 H 1.00818 0.88803 0.35049 0.0
H1460 H 0.99567 0.88771 0.32998 0.0
H1461 H 0.99702 0.21959 0.40159 0.0
H1462 H 0.00946 0.14338 0.40473 0.0
H1463 H 0.00986 0.21485 0.38181 0.0
H1464 H 0.04127 0.95073 0.39396 0.0
H1465 H 0.04308 0.12117 0.33856 0.0
H1466 H 0.00981 0.90292 0.39122 0.0
H1467 H 0.00978 0.99201 0.40926 0.0
H1468 H 0.02226 0.91565 0.41154 0.0
H1469 H 0.01176 0.10877 0.32246 0.0
H1470 H 0.02509 0.17888 0.32208 0.0
H1471 H 0.01221 0.19546 0.34132 0.0
C1472 C 0.03797 0.97283 0.85994 0.0
C1473 C 0.04399 0.04754 0.86628 0.0
C1474 C 0.02471 0.96538 0.86015 0.0
C1475 C 0.01717 1.03409 0.8669 0.0
C1476 C 0.02316 0.10933 0.87355 0.0
C1477 C 0.03645 0.1152 0.87313 0.0
C1478 C 0.01875 0.88382 0.85308 0.0
C1479 C 0.01552 0.18417 0.88084 0.0
C1480 C 0.98268 0.04255 0.84786 0.0
C1481 C 0.97618 1.01659 0.86712 0.0
C1482 C 0.99596 0.04841 0.84755 0.0
C1483 C 1.00302 1.02746 0.86692 0.0
C1484 C 0.99653 1.00062 0.88635 0.0
C1485 C 0.98324 0.99563 0.88622 0.0
C1486 C 1.00245 0.07788 0.82652 0.0
C1487 C 1.00362 0.97698 0.90732 0.0
H1488 H 0.04364 0.91962 0.85493 0.0
H1489 H 0.0409 0.17374 0.87773 0.0
H1490 H 0.01284 0.85886 0.86685 0.0
H1491 H 0.01244 0.89429 0.83854 0.0
H1492 H 0.0259 0.83596 0.84847 0.0
H1493 H 0.02156 0.23782 0.88581 0.0
H1494 H 1.00921 0.2043 0.86704 0.0
H1495 H 0.0094 0.16717 0.8952 0.0
H1496 H 0.97735 0.05985 0.8331 0.0
H1497 H 0.97838 0.97422 0.90109 0.0
H1498 H 1.00922 1.02973 0.82063 0.0
H1499 H 1.00795 0.13541 0.83008 0.0
H1500 H 0.99565 0.09133 0.81283 0.0
H1501 H 0.01036 0.92561 0.90364 0.0
H1502 H 0.99721 0.95656 0.92096 0.0
H1503 H 1.00925 1.03102 0.91334 0.0
C1504 C 0.98095 0.99442 0.61774 0.0
C1505 C 0.97489 0.04768 0.63301 0.0
C1506 C 0.99421 0.98691 0.61736 0.0
C1507 C 1.00165 1.03411 0.63253 0.0
C1508 C 0.99558 0.08823 0.64791 0.0
C1509 C 0.98233 0.09427 0.64798 0.0
C1510 C 1.00027 0.92818 0.60077 0.0
C1511 C 1.00312 0.14036 0.66421 0.0
C1512 C 0.03535 0.96396 0.64569 0.0
C1513 C 0.0426 1.01718 0.63211 0.0
C1514 C 0.02206 0.9687 0.64597 0.0
C1515 C 0.01577 1.02762 0.63223 0.0
C1516 C 0.023 0.08135 0.61846 0.0
C1517 C 0.03627 0.07584 0.61865 0.0
C1518 C 0.01473 0.91031 0.66094 0.0
C1519 C 0.01672 0.14523 0.60358 0.0
H1520 H 0.97531 0.95762 0.60624 0.0
H1521 H 0.97778 0.13677 0.65959 0.0
H1522 H 1.0068 0.96333 0.58973 0.0
H1523 H 1.00598 0.88069 0.60975 0.0
H1524 H 0.99319 0.89549 0.59019 0.0
H1525 H 0.99699 0.17917 0.67517 0.0
H1526 H 1.00901 0.09927 0.67491 0.0
H1527 H 0.00963 0.18224 0.65496 0.0
H1528 H 0.04004 0.91744 0.6559 0.0
H1529 H 0.04169 0.11848 0.60838 0.0
H1530 H 1.00815 0.87195 0.65076 0.0
H1531 H 1.00892 0.94693 0.67288 0.0
H1532 H 0.02099 0.86785 0.67059 0.0
H1533 H 0.01004 0.11383 0.592 0.0
H1534 H 0.02365 0.18135 0.59354 0.0
H1535 H 0.01114 0.18953 0.6139 0.0
C1536 C 0.48155 0.55598 0.15226 0.0
C1537 C 0.47556 0.51542 0.13431 0.0
C1538 C 0.49479 0.5643 0.1531 0.0
C1539 C 0.50231 0.5309 0.13563 0.0
C1540 C 0.49634 0.48942 0.11754 0.0
C1541 C 0.48309 0.48232 0.11709 0.0
C1542 C 0.50072 0.60956 0.17261 0.0
C1543 C 0.50397 0.4522 0.09867 0.0
C1544 C 0.5357 0.61657 0.12744 0.0
C1545 C 0.54315 0.55619 0.13828 0.0
C1546 C 0.52245 0.60886 0.12633 0.0
C1547 C 0.51642 0.5392 0.13631 0.0
C1548 C 0.52388 0.47766 0.14707 0.0
C1549 C 0.5371 0.48678 0.14789 0.0
C1550 C 0.51488 0.67595 0.11471 0.0
C1551 C 0.51788 0.40206 0.15778 0.0
H1552 H 0.47585 0.58272 0.16551 0.0
H1553 H 0.47861 0.44978 0.10329 0.0
H1554 H 0.50743 0.56755 0.18138 0.0
H1555 H 0.50621 0.664 0.16649 0.0
H1556 H 0.49358 0.63201 0.18483 0.0
H1557 H 0.49792 0.42153 0.08588 0.0
H1558 H 0.50963 0.50166 0.09041 0.0
H1559 H 0.5107 0.40531 0.10537 0.0
H1560 H 0.54019 0.67108 0.12022 0.0
H1561 H 0.54271 0.43892 0.15599 0.0
H1562 H 0.50822 0.7051 0.12672 0.0
H1563 H 0.50915 0.64802 0.10108 0.0
H1564 H 0.52097 0.72562 0.10749 0.0
H1565 H 0.51121 0.42214 0.17104 0.0
H1566 H 0.52498 0.35933 0.16529 0.0
H1567 H 0.51233 0.36685 0.14514 0.0
C1568 C 0.48134 0.48789 0.35589 0.0
C1569 C 0.47505 0.55542 0.36604 0.0
C1570 C 0.49461 0.48207 0.35599 0.0
C1571 C 0.5019 0.54484 0.36665 0.0
C1572 C 0.49564 0.61239 0.37726 0.0
C1573 C 0.48235 0.61706 0.37676 0.0
C1574 C 0.50086 0.40896 0.34447 0.0
C1575 C 0.50302 0.68056 0.38886 0.0
C1576 C 0.536 0.49156 0.38228 0.0
C1577 C 0.54288 0.52774 0.36465 0.0
C1578 C 0.52273 0.49788 0.38336 0.0
C1579 C 0.51606 0.54054 0.36628 0.0
C1580 C 0.52292 0.57788 0.34858 0.0
C1581 C 0.53618 0.5716 0.34807 0.0
C1582 C 0.51582 0.45759 0.40261 0.0
C1583 C 0.51623 0.62388 0.32999 0.0
H1584 H 0.47587 0.43905 0.34788 0.0
H1585 H 0.4777 0.67031 0.38435 0.0
H1586 H 0.50712 0.43187 0.33093 0.0
H1587 H 0.50687 0.37438 0.35652 0.0
H1588 H 0.49388 0.36487 0.33713 0.0
H1589 H 0.49677 0.72731 0.39702 0.0
H1590 H 0.50932 0.65306 0.40172 0.0
H1591 H 0.50911 0.71327 0.37658 0.0
H1592 H 0.54093 0.45635 0.39504 0.0
H1593 H 0.54131 0.6014 0.33459 0.0
H1594 H 0.50947 0.40784 0.39623 0.0
H1595 H 0.50982 0.50446 0.41123 0.0
H1596 H 0.52239 0.42963 0.41503 0.0
H1597 H 0.50963 0.58093 0.32125 0.0
H1598 H 0.52292 0.65006 0.31751 0.0
H1599 H 0.51051 0.67572 0.33701 0.0
C1600 C 0.48207 0.58358 0.85461 0.0
C1601 C 0.47549 0.52131 0.8664 0.0
C1602 C 0.49535 0.58878 0.85531 0.0
C1603 C 0.50234 0.5308 0.86825 0.0
C1604 C 0.49578 0.46874 0.88051 0.0
C1605 C 0.48249 0.46454 0.87939 0.0
C1606 C 0.50192 0.6562 0.84204 0.0
C1607 C 0.50283 0.4058 0.89457 0.0
C1608 C 0.537 0.49531 0.85291 0.0
C1609 C 0.54338 0.54426 0.86884 0.0
C1610 C 0.52372 0.48997 0.85263 0.0
C1611 C 0.51652 0.53448 0.86869 0.0
C1612 C 0.52288 0.58335 0.88495 0.0
C1613 C 0.53618 0.58775 0.88482 0.0
C1614 C 0.51737 0.43681 0.83504 0.0
C1615 C 0.51562 0.63203 0.90235 0.0
H1616 H 0.47684 0.62885 0.84483 0.0
H1617 H 0.47762 0.41529 0.88833 0.0
H1618 H 0.50774 0.69553 0.85333 0.0
H1619 H 0.5084 0.6274 0.82967 0.0
H1620 H 0.49515 0.69709 0.83299 0.0
H1621 H 0.49636 0.3629 0.90363 0.0
H1622 H 0.50916 0.36803 0.88377 0.0
H1623 H 0.50887 0.43847 0.90697 0.0
H1624 H 0.54241 0.46043 0.84067 0.0
H1625 H 0.54091 0.62695 0.897 0.0
H1626 H 0.51104 0.47611 0.82465 0.0
H1627 H 0.51142 0.38847 0.84314 0.0
H1628 H 0.52429 0.40529 0.82389 0.0
H1629 H 0.50939 0.67838 0.89404 0.0
H1630 H 0.52194 0.66557 0.91417 0.0
H1631 H 0.50944 0.58933 0.91204 0.0
C1632 C 0.48251 0.58835 0.65024 0.0
C1633 C 0.47538 0.54299 0.63453 0.0
C1634 C 0.49577 0.58211 0.65101 0.0
C1635 C 0.50217 0.5298 0.63559 0.0
C1636 C 0.49505 0.48294 0.61992 0.0
C1637 C 0.4818 0.48962 0.61968 0.0
C1638 C 0.50297 0.63291 0.66806 0.0
C1639 C 0.50146 0.42641 0.60317 0.0
C1640 C 0.53663 0.57586 0.62148 0.0
C1641 C 0.54313 0.51543 0.63408 0.0
C1642 C 0.52337 0.5814 0.62192 0.0
C1643 C 0.51632 0.52567 0.63542 0.0
C1644 C 0.52279 0.46527 0.64842 0.0
C1645 C 0.53607 0.4607 0.64755 0.0
C1646 C 0.51689 0.6468 0.6078 0.0
C1647 C 0.51565 0.40469 0.66305 0.0
H1648 H 0.47776 0.63065 0.66162 0.0
H1649 H 0.47645 0.45278 0.60776 0.0
H1650 H 0.50912 0.59149 0.67819 0.0
H1651 H 0.5092 0.67829 0.65941 0.0
H1652 H 0.4966 0.66783 0.6795 0.0
H1653 H 0.49458 0.39316 0.59229 0.0
H1654 H 0.50788 0.4636 0.59241 0.0
H1655 H 0.50733 0.37939 0.61199 0.0
H1656 H 0.54193 0.6196 0.61133 0.0
H1657 H 0.54091 0.41297 0.65714 0.0
H1658 H 0.51108 0.68822 0.61857 0.0
H1659 H 0.51039 0.61622 0.59573 0.0
H1660 H 0.52371 0.68588 0.59833 0.0
H1661 H 0.50958 0.43939 0.675 0.0
H1662 H 0.52206 0.36306 0.67266 0.0
H1663 H 0.50934 0.36544 0.65259 0.0
C1664 C 0.12459 0.79165 0.11651 0.0
C1665 C 0.13546 0.83745 0.12213 0.0
C1666 C 0.12454 0.7032 0.11689 0.0
C1667 C 0.13547 0.65862 0.12382 0.0
C1668 C 0.14639 0.7049 0.12992 0.0
C1669 C 0.14632 0.79311 0.12864 0.0
C1670 C 0.11279 0.65741 0.10952 0.0
C1671 C 0.15816 0.66126 0.13809 0.0
C1672 C 0.13126 0.43138 0.14381 0.0
C1673 C 0.13611 0.38513 0.1258 0.0
C1674 C 0.13118 0.51988 0.14357 0.0
C1675 C 0.13557 0.56394 0.12446 0.0
C1676 C 0.14021 0.51712 0.10602 0.0
C1677 C 0.14065 0.4289 0.10709 0.0
C1678 C 0.12657 0.56623 0.16398 0.0
C1679 C 0.14459 0.56016 0.08496 0.0
H1680 H 0.11617 0.82501 0.11136 0.0
H1681 H 0.15474 0.82762 0.13326 0.0
H1682 H 0.11513 0.61358 0.09573 0.0
H1683 H 0.10902 0.61961 0.12354 0.0
H1684 H 0.10527 0.70069 0.10371 0.0
H1685 H 0.16562 0.70602 0.14334 0.0
H1686 H 0.15582 0.6203 0.15247 0.0
H1687 H 0.16203 0.62074 0.12468 0.0
H1688 H 0.12778 0.3983 0.15837 0.0
H1689 H 0.14428 0.39388 0.09295 0.0
H1690 H 0.11818 0.60451 0.15966 0.0
H1691 H 0.13401 0.60968 0.16999 0.0
H1692 H 0.12399 0.52328 0.17783 0.0
H1693 H 0.13701 0.60164 0.07853 0.0
H1694 H 0.14721 0.515 0.07162 0.0
H1695 H 0.1529 0.60007 0.08864 0.0
C1696 C 0.87315 0.27282 0.13585 0.0
C1697 C 0.88325 0.22881 0.12617 0.0
C1698 C 0.87314 0.36103 0.13708 0.0
C1699 C 0.88325 0.40747 0.12766 0.0
C1700 C 0.89337 0.36312 0.11751 0.0
C1701 C 0.89337 0.2747 0.11729 0.0
C1702 C 0.86234 0.40449 0.14876 0.0
C1703 C 0.90415 0.40909 0.10654 0.0
C1704 C 0.8764 0.63642 0.11238 0.0
C1705 C 0.88267 0.68087 0.12937 0.0
C1706 C 0.87673 0.54819 0.11138 0.0
C1707 C 0.88313 0.50207 0.1282 0.0
C1708 C 0.88931 0.54674 0.14561 0.0
C1709 C 0.8892 0.6352 0.14576 0.0
C1710 C 0.87034 0.50439 0.09209 0.0
C1711 C 0.89591 0.50105 0.16433 0.0
H1712 H 0.86534 0.23803 0.14299 0.0
H1713 H 0.90118 0.24139 0.10968 0.0
H1714 H 0.86605 0.44592 0.16214 0.0
H1715 H 0.85715 0.44451 0.13674 0.0
H1716 H 0.85557 0.3596 0.15632 0.0
H1717 H 0.91102 0.36589 0.09855 0.0
H1718 H 0.90042 0.45234 0.09362 0.0
H1719 H 0.90922 0.44754 0.1191 0.0
H1720 H 0.87144 0.67085 0.09947 0.0
H1721 H 0.89403 0.66868 0.15901 0.0
H1722 H 0.8626 0.46411 0.09838 0.0
H1723 H 0.8772 0.46317 0.08339 0.0
H1724 H 0.86634 0.54906 0.07976 0.0
H1725 H 0.88922 0.45754 0.1726 0.0
H1726 H 0.8998 0.54443 0.17713 0.0
H1727 H 0.90377 0.4629 0.15752 0.0
C1728 C 0.14624 0.28489 0.36552 0.0
C1729 C 0.13575 0.24139 0.37391 0.0
C1730 C 0.14631 0.3729 0.36397 0.0
C1731 C 0.13581 0.4197 0.37179 0.0
C1732 C 0.12525 0.3759 0.38064 0.0
C1733 C 0.12524 0.28749 0.38114 0.0
C1734 C 0.15758 0.4157 0.35363 0.0
C1735 C 0.11402 0.42247 0.3899 0.0
C1736 C 0.14216 0.64976 0.38652 0.0
C1737 C 0.13663 0.69242 0.36849 0.0
C1738 C 0.14168 0.5617 0.38807 0.0
C1739 C 0.13594 0.51412 0.37077 0.0
C1740 C 0.13054 0.55709 0.3523 0.0
C1741 C 0.13072 0.64541 0.35163 0.0
C1742 C 0.14717 0.51966 0.40846 0.0
C1743 C 0.12474 0.50977 0.33303 0.0
H1744 H 0.15434 0.24977 0.35958 0.0
H1745 H 0.1171 0.25441 0.38768 0.0
H1746 H 0.15446 0.45602 0.33957 0.0
H1747 H 0.16221 0.45673 0.36613 0.0
H1748 H 0.16468 0.3704 0.34725 0.0
H1749 H 0.10687 0.37975 0.39727 0.0
H1750 H 0.11717 0.46719 0.40296 0.0
H1751 H 0.10944 0.45938 0.37646 0.0
H1752 H 0.14659 0.68553 0.39979 0.0
H1753 H 0.12644 0.67777 0.33762 0.0
H1754 H 0.15518 0.47896 0.40353 0.0
H1755 H 0.13993 0.47909 0.41637 0.0
H1756 H 0.15059 0.56545 0.42107 0.0
H1757 H 0.13172 0.46515 0.32601 0.0
H1758 H 0.12149 0.55199 0.31946 0.0
H1759 H 0.11656 0.47269 0.33897 0.0
C1760 C 0.8932 0.43507 0.36126 0.0
C1761 C 0.88339 0.38948 0.3714 0.0
C1762 C 0.89329 0.5236 0.36133 0.0
C1763 C 0.88345 0.56872 0.3721 0.0
C1764 C 0.87358 0.52295 0.38248 0.0
C1765 C 0.87363 0.43463 0.38188 0.0
C1766 C 0.90392 0.56892 0.34973 0.0
C1767 C 0.86298 0.56733 0.39446 0.0
C1768 C 0.88971 0.79624 0.39007 0.0
C1769 C 0.8832 0.84197 0.37374 0.0
C1770 C 0.88977 0.70781 0.38988 0.0
C1771 C 0.88345 0.66344 0.37256 0.0
C1772 C 0.87702 0.71 0.35583 0.0
C1773 C 0.87685 0.79835 0.35677 0.0
C1774 C 0.89654 0.66185 0.40836 0.0
C1775 C 0.87037 0.66651 0.33677 0.0
H1776 H 0.9008 0.40158 0.35306 0.0
H1777 H 0.86601 0.40086 0.38992 0.0
H1778 H 0.90003 0.61138 0.33678 0.0
H1779 H 0.90913 0.60817 0.36194 0.0
H1780 H 0.9107 0.52529 0.34167 0.0
H1781 H 0.85612 0.52308 0.40204 0.0
H1782 H 0.86688 0.60779 0.40786 0.0
H1783 H 0.85784 0.60846 0.38262 0.0
H1784 H 0.89466 0.82982 0.40318 0.0
H1785 H 0.87192 0.83358 0.34397 0.0
H1786 H 0.90417 0.62256 0.40123 0.0
H1787 H 0.88986 0.6194 0.41704 0.0
H1788 H 0.90073 0.7051 0.42087 0.0
H1789 H 0.87713 0.62577 0.32768 0.0
H1790 H 0.86616 0.71138 0.32472 0.0
H1791 H 0.86277 0.62575 0.34336 0.0
C1792 C 0.8865 0.28677 0.85574 0.0
C1793 C 0.88175 0.24419 0.87444 0.0
C1794 C 0.88641 0.37505 0.85464 0.0
C1795 C 0.882 0.42274 0.87312 0.0
C1796 C 0.87744 0.37961 0.89225 0.0
C1797 C 0.87711 0.29126 0.89246 0.0
C1798 C 0.89086 0.41718 0.83351 0.0
C1799 C 0.87312 0.42674 0.91273 0.0
C1800 C 0.89325 0.65086 0.87766 0.0
C1801 C 0.88238 0.69616 0.87174 0.0
C1802 C 0.89321 0.56251 0.87848 0.0
C1803 C 0.88216 0.51734 0.87246 0.0
C1804 C 0.87125 0.56297 0.86595 0.0
C1805 C 0.87142 0.65136 0.8661 0.0
C1806 C 0.90494 0.51755 0.88628 0.0
C1807 C 0.85939 0.51843 0.85861 0.0
H1808 H 0.89001 0.25082 0.84167 0.0
H1809 H 0.87352 0.2588 0.90704 0.0
H1810 H 0.88344 0.46006 0.82719 0.0
H1811 H 0.89936 0.4555 0.83706 0.0
H1812 H 0.89323 0.37148 0.82015 0.0
H1813 H 0.87054 0.38425 0.92669 0.0
H1814 H 0.88071 0.46945 0.91852 0.0
H1815 H 0.86479 0.46583 0.90858 0.0
H1816 H 0.90173 0.68466 0.88232 0.0
H1817 H 0.86298 0.68555 0.86142 0.0
H1818 H 0.90856 0.47643 0.87279 0.0
H1819 H 0.90263 0.477 0.90076 0.0
H1820 H 0.91257 0.56147 0.89126 0.0
H1821 H 0.86162 0.47381 0.84494 0.0
H1822 H 0.852 0.56248 0.85265 0.0
H1823 H 0.85548 0.48165 0.8727 0.0
C1824 C 0.14704 0.43384 0.86175 0.0
C1825 C 0.13635 0.38833 0.86837 0.0
C1826 C 0.14708 0.52223 0.86199 0.0
C1827 C 0.13639 0.56676 0.87007 0.0
C1828 C 0.12568 0.52062 0.87723 0.0
C1829 C 0.12569 0.43247 0.87584 0.0
C1830 C 0.15853 0.56798 0.85331 0.0
C1831 C 0.11425 0.56431 0.8868 0.0
C1832 C 0.14158 0.79258 0.89024 0.0
C1833 C 0.1361 0.83963 0.87297 0.0
C1834 C 0.14156 0.70423 0.8897 0.0
C1835 C 0.13639 0.66122 0.87101 0.0
C1836 C 0.13111 0.70887 0.85329 0.0
C1837 C 0.13082 0.79699 0.85469 0.0
C1838 C 0.14689 0.65692 0.90937 0.0
C1839 C 0.12591 0.66688 0.83264 0.0
H1840 H 0.15529 0.40023 0.85589 0.0
H1841 H 0.11745 0.39775 0.88128 0.0
H1842 H 0.15567 0.61281 0.84009 0.0
H1843 H 0.16294 0.60468 0.86698 0.0
H1844 H 0.16573 0.52472 0.84631 0.0
H1845 H 0.10697 0.51956 0.89274 0.0
H1846 H 0.11713 0.60474 0.90101 0.0
H1847 H 0.10994 0.60537 0.87397 0.0
H1848 H 0.14564 0.82494 0.90447 0.0
H1849 H 0.12671 0.83279 0.84112 0.0
H1850 H 0.15511 0.61894 0.90397 0.0
H1851 H 0.13969 0.61312 0.91602 0.0
H1852 H 0.14997 0.69921 0.92308 0.0
H1853 H 0.13314 0.62479 0.8253 0.0
H1854 H 0.12293 0.7127 0.81972 0.0
H1855 H 0.11764 0.62779 0.83713 0.0
C1856 C 0.89442 0.78843 0.61847 0.0
C1857 C 0.88332 0.83435 0.62221 0.0
C1858 C 0.8944 0.70004 0.61903 0.0
C1859 C 0.88313 0.65601 0.62432 0.0
C1860 C 0.87197 0.70254 0.62855 0.0
C1861 C 0.87215 0.79054 0.62707 0.0
C1862 C 0.90644 0.65372 0.61365 0.0
C1863 C 0.85983 0.65944 0.63501 0.0
C1864 C 0.8785 0.42567 0.60802 0.0
C1865 C 0.88218 0.3835 0.62753 0.0
C1866 C 0.8791 0.51371 0.60654 0.0
C1867 C 0.88295 0.56163 0.62536 0.0
C1868 C 0.88641 0.51901 0.64528 0.0
C1869 C 0.88627 0.4307 0.64593 0.0
C1870 C 0.87581 0.55533 0.58467 0.0
C1871 C 0.89007 0.56668 0.66608 0.0
H1872 H 0.90308 0.82162 0.61466 0.0
H1873 H 0.86356 0.82536 0.6303 0.0
H1874 H 0.90956 0.61718 0.62839 0.0
H1875 H 0.90473 0.60869 0.59984 0.0
H1876 H 0.9142 0.69657 0.60868 0.0
H1877 H 0.85215 0.70454 0.63888 0.0
H1878 H 0.85662 0.61817 0.62122 0.0
H1879 H 0.86143 0.61933 0.64987 0.0
H1880 H 0.87551 0.38948 0.59362 0.0
H1881 H 0.88911 0.39846 0.66106 0.0
H1882 H 0.88372 0.59606 0.57922 0.0
H1883 H 0.86739 0.59581 0.58685 0.0
H1884 H 0.87379 0.50927 0.57121 0.0
H1885 H 0.89872 0.60385 0.66292 0.0
H1886 H 0.89184 0.52468 0.68053 0.0
H1887 H 0.88245 0.61126 0.67064 0.0
C1888 C 0.14457 0.28927 0.60897 0.0
C1889 C 0.13686 0.24236 0.62337 0.0
C1890 C 0.14441 0.37764 0.60922 0.0
C1891 C 0.13666 0.42108 0.62476 0.0
C1892 C 0.12903 0.37377 0.63961 0.0
C1893 C 0.12907 0.28552 0.63849 0.0
C1894 C 0.15242 0.42452 0.59257 0.0
C1895 C 0.1209 0.41632 0.65695 0.0
C1896 C 0.14551 0.64921 0.63788 0.0
C1897 C 0.13619 0.69415 0.62635 0.0
C1898 C 0.14558 0.56081 0.63801 0.0
C1899 C 0.13647 0.51563 0.62538 0.0
C1900 C 0.12719 0.56124 0.61331 0.0
C1901 C 0.127 0.64951 0.61434 0.0
C1902 C 0.15534 0.51575 0.65189 0.0
C1903 C 0.1176 0.51686 0.5989 0.0
H1904 H 0.15057 0.25682 0.59711 0.0
H1905 H 0.12314 0.25014 0.64983 0.0
H1906 H 0.1464 0.46738 0.58261 0.0
H1907 H 0.15949 0.46345 0.60148 0.0
H1908 H 0.1575 0.3819 0.58096 0.0
H1909 H 0.11604 0.37089 0.66803 0.0
H1910 H 0.12679 0.45843 0.6674 0.0
H1911 H 0.11365 0.45552 0.64863 0.0
H1912 H 0.15262 0.68335 0.64722 0.0
H1913 H 0.11987 0.68391 0.60513 0.0
H1914 H 0.16163 0.47855 0.64089 0.0
H1915 H 0.15062 0.47145 0.66346 0.0
H1916 H 0.16124 0.55952 0.66186 0.0
H1917 H 0.12249 0.47628 0.58658 0.0
H1918 H 0.1114 0.56117 0.58972 0.0
H1919 H 0.11159 0.47584 0.60937 0.0
C1920 C 0.64647 0.93326 0.13551 0.0
C1921 C 0.63566 0.88801 0.12925 0.0
C1922 C 0.64659 1.02167 0.13561 0.0
C1923 C 0.6358 0.06706 0.1284 0.0
C1924 C 0.62491 1.02145 0.12171 0.0
C1925 C 0.62489 0.93302 0.12263 0.0
C1926 C 0.65827 0.06652 0.14372 0.0
C1927 C 0.61332 0.06607 0.11315 0.0
C1928 C 0.63102 0.29708 0.14541 0.0
C1929 C 0.63607 0.34075 0.12711 0.0
C1930 C 0.63112 0.20876 0.14625 0.0
C1931 C 0.6359 0.16184 0.12793 0.0
C1932 C 0.64081 0.20594 0.10921 0.0
C1933 C 0.64108 0.29442 0.10924 0.0
C1934 C 0.62625 0.16577 0.16696 0.0
C1935 C 0.64559 0.15969 0.08892 0.0
H1936 H 0.65483 0.89935 0.14076 0.0
H1937 H 0.61652 0.8989 0.1175 0.0
H1938 H 0.6624 0.10385 0.12994 0.0
H1939 H 0.65574 0.11068 0.15734 0.0
H1940 H 0.66558 1.02264 0.15003 0.0
H1941 H 0.60586 1.02192 0.10753 0.0
H1942 H 0.60935 0.10663 0.12644 0.0
H1943 H 0.61592 0.10714 0.09893 0.0
H1944 H 0.62722 0.33224 0.15938 0.0
H1945 H 0.64489 0.32751 0.09495 0.0
H1946 H 0.63355 0.12272 0.17365 0.0
H1947 H 0.61784 0.12752 0.16277 0.0
H1948 H 0.6236 0.21091 0.1803 0.0
H1949 H 0.65384 0.12064 0.0935 0.0
H1950 H 0.64843 0.20275 0.07525 0.0
H1951 H 0.63814 0.117 0.08253 0.0
C1952 C 0.37035 0.78907 0.1274 0.0
C1953 C 0.38155 0.74365 0.12398 0.0
C1954 C 0.37037 0.87733 0.1285 0.0
C1955 C 0.3818 0.92235 0.12541 0.0
C1956 C 0.3931 0.87665 0.12163 0.0
C1957 C 0.39287 0.78831 0.12132 0.0
C1958 C 0.35814 0.92238 0.13325 0.0
C1959 C 0.40546 0.9211 0.11754 0.0
C1960 C 0.37881 0.15172 0.10708 0.0
C1961 C 0.38189 0.19541 0.1267 0.0
C1962 C 0.37905 0.06347 0.10629 0.0
C1963 C 0.38189 1.01692 0.12587 0.0
C1964 C 0.38477 0.06117 0.14587 0.0
C1965 C 0.38502 0.14959 0.1459 0.0
C1966 C 0.37642 1.02011 0.08435 0.0
C1967 C 0.38738 1.01515 0.16738 0.0
H1968 H 0.36155 0.75543 0.12967 0.0
H1969 H 0.40157 0.75411 0.11853 0.0
H1970 H 0.35929 0.96371 0.14803 0.0
H1971 H 0.35558 0.96269 0.11887 0.0
H1972 H 0.3502 0.87852 0.13646 0.0
H1973 H 0.41331 0.87694 0.11399 0.0
H1974 H 0.40446 0.9645 0.10318 0.0
H1975 H 0.40803 0.95921 0.13235 0.0
H1976 H 0.3765 0.18688 0.09213 0.0
H1977 H 0.38733 0.18307 0.16113 0.0
H1978 H 0.36777 0.98139 0.08578 0.0
H1979 H 0.38434 0.97743 0.08014 0.0
H1980 H 0.37512 0.06505 0.07038 0.0
H1981 H 0.37937 0.97288 0.17132 0.0
H1982 H 0.38884 0.05838 0.18171 0.0
H1983 H 0.39593 0.97565 0.16552 0.0
C1984 C 0.64288 0.13506 0.38534 0.0
C1985 C 0.6354 0.17965 0.37001 0.0
C1986 C 0.64269 0.04684 0.38626 0.0
C1987 C 0.63507 1.00073 0.3711 0.0
C1988 C 0.62761 0.04541 0.35537 0.0
C1989 C 0.62773 0.13389 0.35522 0.0
C1990 C 0.65057 1.00298 0.40372 0.0
C1991 C 0.61959 0.99971 0.33846 0.0
C1992 C 0.64436 0.77119 0.36126 0.0
C1993 C 0.6351 0.7276 0.37334 0.0
C1994 C 0.64425 0.85938 0.35989 0.0
C1995 C 0.63498 0.90613 0.37167 0.0
C1996 C 0.62576 0.86209 0.38427 0.0
C1997 C 0.62576 0.77369 0.38454 0.0
C1998 C 0.654 0.90247 0.34557 0.0
C1999 C 0.61597 0.90837 0.39781 0.0
H2000 H 0.64877 0.16931 0.39702 0.0
H2001 H 0.62193 0.16726 0.34325 0.0
H2002 H 0.64447 0.96208 0.41409 0.0
H2003 H 0.65769 0.96236 0.39552 0.0
H2004 H 0.65558 0.04759 0.41489 0.0
H2005 H 0.61473 0.04306 0.32677 0.0
H2006 H 0.62556 0.95612 0.3286 0.0
H2007 H 0.61235 0.96163 0.34715 0.0
H2008 H 0.65152 0.73603 0.35234 0.0
H2009 H 0.61861 0.7405 0.39399 0.0
H2010 H 0.66012 0.94266 0.35613 0.0
H2011 H 0.64926 0.94369 0.33323 0.0
H2012 H 0.66008 0.85734 0.33642 0.0
H2013 H 0.6207 0.95164 0.40968 0.0
H2014 H 0.60979 0.86538 0.40744 0.0
H2015 H 0.60997 0.94682 0.38662 0.0
C2016 C 0.37198 0.93844 0.36179 0.0
C2017 C 0.38246 0.89216 0.36904 0.0
C2018 C 0.37207 1.02687 0.36216 0.0
C2019 C 0.38265 0.07053 0.37101 0.0
C2020 C 0.39313 1.02353 0.37885 0.0
C2021 C 0.39302 0.93544 0.3773 0.0
C2022 C 0.36089 0.07358 0.35275 0.0
C2023 C 0.4044 0.06621 0.38927 0.0
C2024 C 0.38896 0.3006 0.35632 0.0
C2025 C 0.38336 0.34335 0.37429 0.0
C2026 C 0.38854 0.21252 0.35479 0.0
C2027 C 0.38279 0.16499 0.37206 0.0
C2028 C 0.37732 0.20809 0.39045 0.0
C2029 C 0.37745 0.29641 0.39111 0.0
C2030 C 0.39411 0.17045 0.33447 0.0
C2031 C 0.37147 0.16091 0.40966 0.0
H2032 H 0.36381 0.90542 0.35533 0.0
H2033 H 0.40109 0.90004 0.38322 0.0
H2034 H 0.35626 0.11046 0.36614 0.0
H2035 H 0.36411 0.11835 0.33978 0.0
H2036 H 0.35377 1.03095 0.34521 0.0
H2037 H 0.41147 1.02082 0.3957 0.0
H2038 H 0.40908 0.10703 0.3768 0.0
H2039 H 0.40128 0.10674 0.40329 0.0
H2040 H 0.39339 0.33631 0.34307 0.0
H2041 H 0.37313 0.32883 0.40508 0.0
H2042 H 0.38695 0.12931 0.32654 0.0
H2043 H 0.40217 0.13035 0.33948 0.0
H2044 H 0.39749 0.21623 0.32185 0.0
H2045 H 0.36328 0.12397 0.40365 0.0
H2046 H 0.36821 0.20321 0.42323 0.0
H2047 H 0.37842 0.11618 0.41671 0.0
C2048 C 0.39378 0.78208 0.87977 0.0
C2049 C 0.38296 0.73655 0.87372 0.0
C2050 C 0.39388 0.8705 0.87951 0.0
C2051 C 0.38306 0.91539 0.87218 0.0
C2052 C 0.37219 0.86939 0.86563 0.0
C2053 C 0.37219 0.78112 0.86687 0.0
C2054 C 0.40555 0.91589 0.88743 0.0
C2055 C 0.36057 0.91341 0.85699 0.0
C2056 C 0.37793 0.14498 0.88906 0.0
C2057 C 0.3828 0.189 0.87065 0.0
C2058 C 0.37822 0.05672 0.88997 0.0
C2059 C 0.38305 1.01009 0.87165 0.0
C2060 C 0.38778 0.05438 0.85284 0.0
C2061 C 0.38784 0.1429 0.85277 0.0
C2062 C 0.37348 1.01344 0.91075 0.0
C2063 C 0.39262 1.00826 0.83256 0.0
H2064 H 0.40213 0.74848 0.8852 0.0
H2065 H 0.36382 0.74673 0.8619 0.0
H2066 H 0.40955 0.95362 0.87361 0.0
H2067 H 0.40304 0.95974 0.90112 0.0
H2068 H 0.41296 0.87236 0.89358 0.0
H2069 H 0.35316 0.86888 0.85136 0.0
H2070 H 0.35653 0.95382 0.87026 0.0
H2071 H 0.36313 0.95453 0.84276 0.0
H2072 H 0.37413 0.17982 0.90309 0.0
H2073 H 0.39156 0.17612 0.83842 0.0
H2074 H 0.38092 0.97154 0.91748 0.0
H2075 H 0.3652 0.97392 0.90662 0.0
H2076 H 0.37069 0.05843 0.92403 0.0
H2077 H 0.40092 0.96966 0.83717 0.0
H2078 H 0.3954 0.05138 0.81888 0.0
H2079 H 0.38523 0.96513 0.8262 0.0
C2080 C 0.64375 0.28612 0.89177 0.0
C2081 C 0.63556 0.33262 0.87812 0.0
C2082 C 0.64395 0.19786 0.89103 0.0
C2083 C 0.63604 0.15433 0.87575 0.0
C2084 C 0.62787 0.20125 0.86173 0.0
C2085 C 0.6276 0.28931 0.8633 0.0
C2086 C 0.65255 0.15116 0.9068 0.0
C2087 C 0.6195 0.15852 0.84477 0.0
C2088 C 0.64528 0.92885 0.86048 0.0
C2089 C 0.63636 0.88197 0.8724 0.0
C2090 C 0.64512 1.01722 0.86101 0.0
C2091 C 0.63621 0.06001 0.87462 0.0
C2092 C 0.6274 1.01228 0.88713 0.0
C2093 C 0.62741 0.92426 0.88549 0.0
C2094 C 0.65439 0.06479 0.84671 0.0
C2095 C 0.61804 0.05411 0.90255 0.0
H2096 H 0.64993 0.31877 0.90331 0.0
H2097 H 0.62134 0.32448 0.85247 0.0
H2098 H 0.64696 0.10622 0.91689 0.0
H2099 H 0.65957 0.11448 0.89715 0.0
H2100 H 0.65769 0.19375 0.91833 0.0
H2101 H 0.6141 0.20384 0.83445 0.0
H2102 H 0.62532 0.11896 0.83352 0.0
H2103 H 0.61271 0.11673 0.85337 0.0
H2104 H 0.65219 0.89635 0.8503 0.0
H2105 H 0.62059 0.88814 0.89494 0.0
H2106 H 0.66072 0.10277 0.85744 0.0
H2107 H 0.64923 0.10862 0.83559 0.0
H2108 H 0.66027 1.02267 0.83622 0.0
H2109 H 0.62311 0.09479 0.91464 0.0
H2110 H 0.61228 1.00819 0.91204 0.0
H2111 H 0.61159 0.09468 0.89279 0.0
C2112 C 0.37284 0.92685 0.63828 0.0
C2113 C 0.38241 0.88135 0.62754 0.0
C2114 C 0.37282 1.01524 0.63819 0.0
C2115 C 0.38227 0.05959 0.62621 0.0
C2116 C 0.39177 1.01344 0.61488 0.0
C2117 C 0.39186 0.92538 0.61606 0.0
C2118 C 0.36278 0.06119 0.6512 0.0
C2119 C 0.40177 0.057 0.60121 0.0
C2120 C 0.3751 0.28535 0.60854 0.0
C2121 C 0.3825 0.33212 0.62347 0.0
C2122 C 0.37504 0.19713 0.60908 0.0
C2123 C 0.38224 0.15391 0.62543 0.0
C2124 C 0.38958 0.20112 0.6408 0.0
C2125 C 0.38977 0.28924 0.63942 0.0
C2126 C 0.36736 0.15017 0.59191 0.0
C2127 C 0.39714 0.15862 0.65893 0.0
H2128 H 0.36553 0.89327 0.64725 0.0
H2129 H 0.3992 0.89062 0.60747 0.0
H2130 H 0.36726 0.10491 0.66324 0.0
H2131 H 0.35691 0.09917 0.63968 0.0
H2132 H 0.35649 1.01798 0.66056 0.0
H2133 H 0.40812 1.01217 0.59253 0.0
H2134 H 0.39724 0.09771 0.5885 0.0
H2135 H 0.40759 0.09773 0.61214 0.0
H2136 H 0.36949 0.31782 0.59611 0.0
H2137 H 0.39542 0.32473 0.65121 0.0
H2138 H 0.36003 0.11205 0.60033 0.0
H2139 H 0.37355 0.10654 0.58251 0.0
H2140 H 0.36265 0.19268 0.57983 0.0
H2141 H 0.3909 0.1173 0.66892 0.0
H2142 H 0.40176 0.2041 0.67036 0.0
H2143 H 0.40454 0.11859 0.65134 0.0
C2144 C 0.64794 0.79756 0.62137 0.0
C2145 C 0.63659 0.75214 0.6223 0.0
C2146 C 0.64805 0.88572 0.6223 0.0
C2147 C 0.63651 0.93056 0.62381 0.0
C2148 C 0.62501 0.88498 0.62451 0.0
C2149 C 0.62519 0.79671 0.62397 0.0
C2150 C 0.66056 0.93088 0.62191 0.0
C2151 C 0.61246 0.9295 0.6257 0.0
C2152 C 0.63644 0.1561 0.64593 0.0
C2153 C 0.63659 0.20281 0.62614 0.0
C2154 C 0.63658 0.06781 0.64544 0.0
C2155 C 0.63649 1.02487 0.62463 0.0
C2156 C 0.63644 0.07242 0.60458 0.0
C2157 C 0.63666 0.16059 0.60559 0.0
C2158 C 0.63693 1.0205 0.66725 0.0
C2159 C 0.63604 1.03017 0.58202 0.0
H2160 H 0.65683 0.76411 0.62027 0.0
H2161 H 0.61636 0.76258 0.62466 0.0
H2162 H 0.661 0.97299 0.60722 0.0
H2163 H 0.66151 0.97043 0.63708 0.0
H2164 H 0.6687 0.88714 0.62119 0.0
H2165 H 0.60435 0.8854 0.62549 0.0
H2166 H 0.61195 0.96747 0.64121 0.0
H2167 H 0.61151 0.97306 0.61137 0.0
H2168 H 0.6364 0.18878 0.66183 0.0
H2169 H 0.63668 0.19678 0.59027 0.0
H2170 H 0.64529 0.97873 0.66763 0.0
H2171 H 0.62843 0.98037 0.66874 0.0
H2172 H 0.63732 0.06288 0.68196 0.0
H2173 H 0.6445 0.99009 0.57983 0.0
H2174 H 0.63567 0.07582 0.56805 0.0
H2175 H 0.62763 0.9889 0.58096 0.0
loop_
_geom_bond_atom_site_label_1
_geom_bond_atom_site_label_2
_geom_bond_distance
_geom_bond_site_symmetry_2
_ccdc_geom_bond_type
Nd0 C2 2.836 . S
Nd0 O20 2.500 . S
Nd0 O21 2.492 . S
Nd0 O22 2.487 . S
Nd0 O23 2.682 . S
Nd0 O24 2.410 1_545 S
Nd0 O29 2.414 . S
Nd0 O31 2.424 . S
Nd1 C11 2.836 . S
Nd1 O23 2.414 . S
Nd1 O25 2.424 1_545 S
Nd1 O26 2.500 . S
Nd1 O27 2.492 . S
Nd1 O28 2.487 . S
Nd1 O29 2.682 . S
Nd1 O30 2.410 . S
C2 Nd0 2.836 . S
C2 C3 1.498 1_545 S
C2 O20 1.258 . S
C2 O21 1.239 . S
C3 C2 1.498 1_565 S
C3 C4 1.366 . S
C3 C8 1.407 . S
C4 C3 1.366 . S
C4 C5 1.392 . S
C4 H32 0.930 . S
C5 C4 1.392 . S
C5 C6 1.398 . S
C5 H33 0.929 . S
C6 C5 1.398 . S
C6 C7 1.352 . S
C7 C6 1.352 . S
C7 C8 1.384 . S
C7 H34 0.930 . S
C8 C3 1.407 . S
C8 C7 1.384 . S
C8 H35 0.929 1_565 S
C9 O22 1.241 . S
C9 O23 1.273 . S
C10 O24 1.251 . S
C10 O25 1.268 . S
C11 Nd1 2.836 . S
C11 C12 1.498 . S
C11 O26 1.258 . S
C11 O27 1.239 . S
C12 C11 1.498 . S
C12 C13 1.366 . S
C12 C17 1.407 . S
C13 C12 1.366 . S
C13 C14 1.392 . S
C13 H36 0.930 . S
C14 C13 1.392 . S
C14 C15 1.398 . S
C14 H37 0.929 . S
C15 C14 1.398 . S
C15 C16 1.352 . S
C16 C15 1.352 . S
C16 C17 1.384 . S
C16 H38 0.930 . S
C17 C12 1.407 . S
C17 C16 1.384 . S
C17 H39 0.929 . S
C18 O28 1.241 . S
C18 O29 1.273 . S
C19 O30 1.251 . S
C19 O31 1.268 . S
O20 Nd0 2.500 . S
O20 C2 1.258 . S
O21 Nd0 2.492 . S
O21 C2 1.239 . S
O22 Nd0 2.487 . S
O22 C9 1.241 . S
O23 Nd0 2.682 . S
O23 Nd1 2.414 . S
O23 C9 1.273 . S
O24 Nd0 2.410 1_565 S
O24 C10 1.251 . S
O25 Nd1 2.424 1_565 S
O25 C10 1.268 . S
O26 Nd1 2.500 . S
O26 C11 1.258 . S
O27 Nd1 2.492 . S
O27 C11 1.239 . S
O28 Nd1 2.487 . S
O28 C18 1.241 . S
O29 Nd0 2.414 . S
O29 Nd1 2.682 . S
O29 C18 1.273 . S
O30 Nd1 2.410 . S
O30 C19 1.251 . S
O31 Nd0 2.424 . S
O31 C19 1.268 . S
H32 C4 0.930 . S
H33 C5 0.929 . S
H34 C7 0.930 . S
H35 C8 0.929 1_545 S
H36 C13 0.930 . S
H37 C14 0.929 . S
H38 C16 0.930 . S
H39 C17 0.929 . S
Nd40 C42 2.836 . S
Nd40 O60 2.500 . S
Nd40 O61 2.492 . S
Nd40 O62 2.487 . S
Nd40 O63 2.682 . S
Nd40 O64 2.410 1_565 S
Nd40 O69 2.414 . S
Nd40 O71 2.424 . S
Nd41 C51 2.836 . S
Nd41 O63 2.414 . S
Nd41 O65 2.424 1_565 S
Nd41 O66 2.500 . S
Nd41 O67 2.492 . S
Nd41 O68 2.487 . S
Nd41 O69 2.682 . S
Nd41 O70 2.410 . S
C42 Nd40 2.836 . S
C42 C43 1.498 1_565 S
C42 O60 1.258 . S
C42 O61 1.239 . S
C43 C42 1.498 1_545 S
C43 C44 1.366 . S
C43 C48 1.407 . S
C44 C43 1.366 . S
C44 C45 1.392 . S
C44 H72 0.930 . S
C45 C44 1.392 . S
C45 C46 1.398 . S
C45 H73 0.929 . S
C46 C45 1.398 . S
C46 C47 1.352 . S
C47 C46 1.352 . S
C47 C48 1.384 . S
C47 H74 0.930 . S
C48 C43 1.407 . S
C48 C47 1.384 . S
C48 H75 0.929 1_545 S
C49 O62 1.241 . S
C49 O63 1.273 . S
C50 O64 1.251 . S
C50 O65 1.268 . S
C51 Nd41 2.836 . S
C51 C52 1.498 . S
C51 O66 1.258 . S
C51 O67 1.239 . S
C52 C51 1.498 . S
C52 C53 1.366 . S
C52 C57 1.407 . S
C53 C52 1.366 . S
C53 C54 1.392 . S
C53 H76 0.930 . S
C54 C53 1.392 . S
C54 C55 1.398 . S
C54 H77 0.929 . S
C55 C54 1.398 . S
C55 C56 1.352 . S
C56 C55 1.352 . S
C56 C57 1.384 . S
C56 H78 0.930 . S
C57 C52 1.407 . S
C57 C56 1.384 . S
C57 H79 0.929 . S
C58 O68 1.241 . S
C58 O69 1.273 . S
C59 O70 1.251 . S
C59 O71 1.268 . S
O60 Nd40 2.500 . S
O60 C42 1.258 . S
O61 Nd40 2.492 . S
O61 C42 1.239 . S
O62 Nd40 2.487 . S
O62 C49 1.241 . S
O63 Nd40 2.682 . S
O63 Nd41 2.414 . S
O63 C49 1.273 . S
O64 Nd40 2.410 1_545 S
O64 C50 1.251 . S
O65 Nd41 2.424 1_545 S
O65 C50 1.268 . S
O66 Nd41 2.500 . S
O66 C51 1.258 . S
O67 Nd41 2.492 . S
O67 C51 1.239 . S
O68 Nd41 2.487 . S
O68 C58 1.241 . S
O69 Nd40 2.414 . S
O69 Nd41 2.682 . S
O69 C58 1.273 . S
O70 Nd41 2.410 . S
O70 C59 1.251 . S
O71 Nd40 2.424 . S
O71 C59 1.268 . S
H72 C44 0.930 . S
H73 C45 0.929 . S
H74 C47 0.930 . S
H75 C48 0.929 1_565 S
H76 C53 0.930 . S
H77 C54 0.929 . S
H78 C56 0.930 . S
H79 C57 0.929 . S
Nd80 C82 2.836 . S
Nd80 O100 2.500 . S
Nd80 O101 2.492 . S
Nd80 O102 2.487 . S
Nd80 O103 2.682 . S
Nd80 O104 2.410 1_565 S
Nd80 O109 2.414 . S
Nd80 O111 2.424 . S
Nd81 C91 2.836 . S
Nd81 O103 2.414 . S
Nd81 O105 2.424 1_565 S
Nd81 O106 2.500 . S
Nd81 O107 2.492 . S
Nd81 O108 2.487 . S
Nd81 O109 2.682 . S
Nd81 O110 2.410 . S
C82 Nd80 2.836 . S
C82 C83 1.498 1_565 S
C82 O100 1.258 . S
C82 O101 1.239 . S
C83 C82 1.498 1_545 S
C83 C84 1.366 . S
C83 C88 1.407 . S
C84 C83 1.366 . S
C84 C85 1.392 . S
C84 H112 0.930 . S
C85 C84 1.392 . S
C85 C86 1.398 . S
C85 H113 0.929 . S
C86 C85 1.398 . S
C86 C87 1.352 . S
C87 C86 1.352 . S
C87 C88 1.384 . S
C87 H114 0.930 . S
C88 C83 1.407 . S
C88 C87 1.384 . S
C88 H115 0.929 1_545 S
C89 O102 1.241 . S
C89 O103 1.273 . S
C90 O104 1.251 . S
C90 O105 1.268 . S
C91 Nd81 2.836 . S
C91 C92 1.498 . S
C91 O106 1.258 . S
C91 O107 1.239 . S
C92 C91 1.498 . S
C92 C93 1.366 . S
C92 C97 1.407 . S
C93 C92 1.366 . S
C93 C94 1.392 . S
C93 H116 0.930 . S
C94 C93 1.392 . S
C94 C95 1.398 . S
C94 H117 0.929 . S
C95 C94 1.398 . S
C95 C96 1.352 . S
C96 C95 1.352 . S
C96 C97 1.384 . S
C96 H118 0.930 . S
C97 C92 1.407 . S
C97 C96 1.384 . S
C97 H119 0.929 . S
C98 O108 1.241 . S
C98 O109 1.273 . S
C99 O110 1.251 . S
C99 O111 1.268 . S
O100 Nd80 2.500 . S
O100 C82 1.258 . S
O101 Nd80 2.492 . S
O101 C82 1.239 . S
O102 Nd80 2.487 . S
O102 C89 1.241 . S
O103 Nd80 2.682 . S
O103 Nd81 2.414 . S
O103 C89 1.273 . S
O104 Nd80 2.410 1_545 S
O104 C90 1.251 . S
O105 Nd81 2.424 1_545 S
O105 C90 1.268 . S
O106 Nd81 2.500 . S
O106 C91 1.258 . S
O107 Nd81 2.492 . S
O107 C91 1.239 . S
O108 Nd81 2.487 . S
O108 C98 1.241 . S
O109 Nd80 2.414 . S
O109 Nd81 2.682 . S
O109 C98 1.273 . S
O110 Nd81 2.410 . S
O110 C99 1.251 . S
O111 Nd80 2.424 . S
O111 C99 1.268 . S
H112 C84 0.930 . S
H113 C85 0.929 . S
H114 C87 0.930 . S
H115 C88 0.929 1_565 S
H116 C93 0.930 . S
H117 C94 0.929 . S
H118 C96 0.930 . S
H119 C97 0.929 . S
Nd120 C122 2.836 . S
Nd120 O140 2.500 . S
Nd120 O141 2.492 . S
Nd120 O142 2.487 . S
Nd120 O143 2.682 . S
Nd120 O144 2.410 1_545 S
Nd120 O149 2.414 . S
Nd120 O151 2.424 . S
Nd121 C131 2.836 . S
Nd121 O143 2.414 . S
Nd121 O145 2.424 1_545 S
Nd121 O146 2.500 . S
Nd121 O147 2.492 . S
Nd121 O148 2.487 . S
Nd121 O149 2.682 . S
Nd121 O150 2.410 . S
C122 Nd120 2.836 . S
C122 C123 1.498 1_545 S
C122 O140 1.258 . S
C122 O141 1.239 . S
C123 C122 1.498 1_565 S
C123 C124 1.366 . S
C123 C128 1.407 . S
C124 C123 1.366 . S
C124 C125 1.392 . S
C124 H152 0.930 . S
C125 C124 1.392 . S
C125 C126 1.398 . S
C125 H153 0.929 . S
C126 C125 1.398 . S
C126 C127 1.352 . S
C127 C126 1.352 . S
C127 C128 1.384 . S
C127 H154 0.930 . S
C128 C123 1.407 . S
C128 C127 1.384 . S
C128 H155 0.929 1_565 S
C129 O142 1.241 . S
C129 O143 1.273 . S
C130 O144 1.251 . S
C130 O145 1.268 . S
C131 Nd121 2.836 . S
C131 C132 1.498 . S
C131 O146 1.258 . S
C131 O147 1.239 . S
C132 C131 1.498 . S
C132 C133 1.366 . S
C132 C137 1.407 . S
C133 C132 1.366 . S
C133 C134 1.392 . S
C133 H156 0.930 . S
C134 C133 1.392 . S
C134 C135 1.398 . S
C134 H157 0.929 . S
C135 C134 1.398 . S
C135 C136 1.352 . S
C136 C135 1.352 . S
C136 C137 1.384 . S
C136 H158 0.930 . S
C137 C132 1.407 . S
C137 C136 1.384 . S
C137 H159 0.929 . S
C138 O148 1.241 . S
C138 O149 1.273 . S
C139 O150 1.251 . S
C139 O151 1.268 . S
O140 Nd120 2.500 . S
O140 C122 1.258 . S
O141 Nd120 2.492 . S
O141 C122 1.239 . S
O142 Nd120 2.487 . S
O142 C129 1.241 . S
O143 Nd120 2.682 . S
O143 Nd121 2.414 . S
O143 C129 1.273 . S
O144 Nd120 2.410 1_565 S
O144 C130 1.251 . S
O145 Nd121 2.424 1_565 S
O145 C130 1.268 . S
O146 Nd121 2.500 . S
O146 C131 1.258 . S
O147 Nd121 2.492 . S
O147 C131 1.239 . S
O148 Nd121 2.487 . S
O148 C138 1.241 . S
O149 Nd120 2.414 . S
O149 Nd121 2.682 . S
O149 C138 1.273 . S
O150 Nd121 2.410 . S
O150 C139 1.251 . S
O151 Nd120 2.424 . S
O151 C139 1.268 . S
H152 C124 0.930 . S
H153 C125 0.929 . S
H154 C127 0.930 . S
H155 C128 0.929 1_545 S
H156 C133 0.930 . S
H157 C134 0.929 . S
H158 C136 0.930 . S
H159 C137 0.929 . S
Nd160 C162 2.836 . S
Nd160 O180 2.500 . S
Nd160 O181 2.492 . S
Nd160 O182 2.487 . S
Nd160 O183 2.682 . S
Nd160 O184 2.410 . S
Nd160 O189 2.414 . S
Nd160 O191 2.424 1_565 S
Nd161 C171 2.836 . S
Nd161 O183 2.414 . S
Nd161 O185 2.424 . S
Nd161 O186 2.500 . S
Nd161 O187 2.492 . S
Nd161 O188 2.487 . S
Nd161 O189 2.682 . S
Nd161 O190 2.410 1_565 S
C162 Nd160 2.836 . S
C162 C163 1.498 . S
C162 O180 1.258 . S
C162 O181 1.239 . S
C163 C162 1.498 . S
C163 C164 1.366 . S
C163 C168 1.407 . S
C164 C163 1.366 . S
C164 C165 1.392 . S
C164 H192 0.930 . S
C165 C164 1.392 . S
C165 C166 1.398 . S
C165 H193 0.929 . S
C166 C165 1.398 . S
C166 C167 1.352 . S
C167 C166 1.352 . S
C167 C168 1.384 . S
C167 H194 0.930 . S
C168 C163 1.407 . S
C168 C167 1.384 . S
C168 H195 0.929 . S
C169 O182 1.241 . S
C169 O183 1.273 . S
C170 O184 1.251 . S
C170 O185 1.268 . S
C171 Nd161 2.836 . S
C171 C172 1.498 1_565 S
C171 O186 1.258 . S
C171 O187 1.239 . S
C172 C171 1.498 1_545 S
C172 C173 1.366 . S
C172 C177 1.407 . S
C173 C172 1.366 . S
C173 C174 1.392 . S
C173 H196 0.930 . S
C174 C173 1.392 . S
C174 C175 1.398 . S
C174 H197 0.929 . S
C175 C174 1.398 . S
C175 C176 1.352 . S
C176 C175 1.352 . S
C176 C177 1.384 . S
C176 H198 0.930 . S
C177 C172 1.407 . S
C177 C176 1.384 . S
C177 H199 0.929 1_545 S
C178 O188 1.241 . S
C178 O189 1.273 . S
C179 O190 1.251 . S
C179 O191 1.268 . S
O180 Nd160 2.500 . S
O180 C162 1.258 . S
O181 Nd160 2.492 . S
O181 C162 1.239 . S
O182 Nd160 2.487 . S
O182 C169 1.241 . S
O183 Nd160 2.682 . S
O183 Nd161 2.414 . S
O183 C169 1.273 . S
O184 Nd160 2.410 . S
O184 C170 1.251 . S
O185 Nd161 2.424 . S
O185 C170 1.268 . S
O186 Nd161 2.500 . S
O186 C171 1.258 . S
O187 Nd161 2.492 . S
O187 C171 1.239 . S
O188 Nd161 2.487 . S
O188 C178 1.241 . S
O189 Nd160 2.414 . S
O189 Nd161 2.682 . S
O189 C178 1.273 . S
O190 Nd161 2.410 1_545 S
O190 C179 1.251 . S
O191 Nd160 2.424 1_545 S
O191 C179 1.268 . S
H192 C164 0.930 . S
H193 C165 0.929 . S
H194 C167 0.930 . S
H195 C168 0.929 . S
H196 C173 0.930 . S
H197 C174 0.929 . S
H198 C176 0.930 . S
H199 C177 0.929 1_565 S
Nd200 C202 2.836 . S
Nd200 O220 2.500 . S
Nd200 O221 2.492 . S
Nd200 O222 2.487 . S
Nd200 O223 2.682 . S
Nd200 O224 2.410 . S
Nd200 O229 2.414 . S
Nd200 O231 2.424 1_545 S
Nd201 C211 2.836 . S
Nd201 O223 2.414 . S
Nd201 O225 2.424 . S
Nd201 O226 2.500 . S
Nd201 O227 2.492 . S
Nd201 O228 2.487 . S
Nd201 O229 2.682 . S
Nd201 O230 2.410 1_545 S
C202 Nd200 2.836 . S
C202 C203 1.498 . S
C202 O220 1.258 . S
C202 O221 1.239 . S
C203 C202 1.498 . S
C203 C204 1.366 . S
C203 C208 1.407 . S
C204 C203 1.366 . S
C204 C205 1.392 . S
C204 H232 0.930 . S
C205 C204 1.392 . S
C205 C206 1.398 . S
C205 H233 0.929 . S
C206 C205 1.398 . S
C206 C207 1.352 . S
C207 C206 1.352 . S
C207 C208 1.384 . S
C207 H234 0.930 . S
C208 C203 1.407 . S
C208 C207 1.384 . S
C208 H235 0.929 . S
C209 O222 1.241 . S
C209 O223 1.273 . S
C210 O224 1.251 . S
C210 O225 1.268 . S
C211 Nd201 2.836 . S
C211 C212 1.498 1_545 S
C211 O226 1.258 . S
C211 O227 1.239 . S
C212 C211 1.498 1_565 S
C212 C213 1.366 . S
C212 C217 1.407 . S
C213 C212 1.366 . S
C213 C214 1.392 . S
C213 H236 0.930 . S
C214 C213 1.392 . S
C214 C215 1.398 . S
C214 H237 0.929 . S
C215 C214 1.398 . S
C215 C216 1.352 . S
C216 C215 1.352 . S
C216 C217 1.384 . S
C216 H238 0.930 . S
C217 C212 1.407 . S
C217 C216 1.384 . S
C217 H239 0.929 1_565 S
C218 O228 1.241 . S
C218 O229 1.273 . S
C219 O230 1.251 . S
C219 O231 1.268 . S
O220 Nd200 2.500 . S
O220 C202 1.258 . S
O221 Nd200 2.492 . S
O221 C202 1.239 . S
O222 Nd200 2.487 . S
O222 C209 1.241 . S
O223 Nd200 2.682 . S
O223 Nd201 2.414 . S
O223 C209 1.273 . S
O224 Nd200 2.410 . S
O224 C210 1.251 . S
O225 Nd201 2.424 . S
O225 C210 1.268 . S
O226 Nd201 2.500 . S
O226 C211 1.258 . S
O227 Nd201 2.492 . S
O227 C211 1.239 . S
O228 Nd201 2.487 . S
O228 C218 1.241 . S
O229 Nd200 2.414 . S
O229 Nd201 2.682 . S
O229 C218 1.273 . S
O230 Nd201 2.410 1_565 S
O230 C219 1.251 . S
O231 Nd200 2.424 1_565 S
O231 C219 1.268 . S
H232 C204 0.930 . S
H233 C205 0.929 . S
H234 C207 0.930 . S
H235 C208 0.929 . S
H236 C213 0.930 . S
H237 C214 0.929 . S
H238 C216 0.930 . S
H239 C217 0.929 1_545 S
Nd240 C242 2.836 . S
Nd240 O260 2.500 . S
Nd240 O261 2.492 . S
Nd240 O262 2.487 . S
Nd240 O263 2.682 . S
Nd240 O264 2.410 . S
Nd240 O269 2.414 . S
Nd240 O271 2.424 1_545 S
Nd241 C251 2.836 . S
Nd241 O263 2.414 . S
Nd241 O265 2.424 . S
Nd241 O266 2.500 . S
Nd241 O267 2.492 . S
Nd241 O268 2.487 . S
Nd241 O269 2.682 . S
Nd241 O270 2.410 1_545 S
C242 Nd240 2.836 . S
C242 C243 1.498 . S
C242 O260 1.258 . S
C242 O261 1.239 . S
C243 C242 1.498 . S
C243 C244 1.366 . S
C243 C248 1.407 . S
C244 C243 1.366 . S
C244 C245 1.392 . S
C244 H272 0.930 . S
C245 C244 1.392 . S
C245 C246 1.398 . S
C245 H273 0.929 . S
C246 C245 1.398 . S
C246 C247 1.352 . S
C247 C246 1.352 . S
C247 C248 1.384 . S
C247 H274 0.930 . S
C248 C243 1.407 . S
C248 C247 1.384 . S
C248 H275 0.929 . S
C249 O262 1.241 . S
C249 O263 1.273 . S
C250 O264 1.251 . S
C250 O265 1.268 . S
C251 Nd241 2.836 . S
C251 C252 1.498 1_545 S
C251 O266 1.258 . S
C251 O267 1.239 . S
C252 C251 1.498 1_565 S
C252 C253 1.366 . S
C252 C257 1.407 . S
C253 C252 1.366 . S
C253 C254 1.392 . S
C253 H276 0.930 . S
C254 C253 1.392 . S
C254 C255 1.398 . S
C254 H277 0.929 . S
C255 C254 1.398 . S
C255 C256 1.352 . S
C256 C255 1.352 . S
C256 C257 1.384 . S
C256 H278 0.930 . S
C257 C252 1.407 . S
C257 C256 1.384 . S
C257 H279 0.929 1_565 S
C258 O268 1.241 . S
C258 O269 1.273 . S
C259 O270 1.251 . S
C259 O271 1.268 . S
O260 Nd240 2.500 . S
O260 C242 1.258 . S
O261 Nd240 2.492 . S
O261 C242 1.239 . S
O262 Nd240 2.487 . S
O262 C249 1.241 . S
O263 Nd240 2.682 . S
O263 Nd241 2.414 . S
O263 C249 1.273 . S
O264 Nd240 2.410 . S
O264 C250 1.251 . S
O265 Nd241 2.424 . S
O265 C250 1.268 . S
O266 Nd241 2.500 . S
O266 C251 1.258 . S
O267 Nd241 2.492 . S
O267 C251 1.239 . S
O268 Nd241 2.487 . S
O268 C258 1.241 . S
O269 Nd240 2.414 . S
O269 Nd241 2.682 . S
O269 C258 1.273 . S
O270 Nd241 2.410 1_565 S
O270 C259 1.251 . S
O271 Nd240 2.424 1_565 S
O271 C259 1.268 . S
H272 C244 0.930 . S
H273 C245 0.929 . S
H274 C247 0.930 . S
H275 C248 0.929 . S
H276 C253 0.930 . S
H277 C254 0.929 . S
H278 C256 0.930 . S
H279 C257 0.929 1_545 S
Nd280 C282 2.836 . S
Nd280 O300 2.500 . S
Nd280 O301 2.492 . S
Nd280 O302 2.487 . S
Nd280 O303 2.682 . S
Nd280 O304 2.410 . S
Nd280 O309 2.414 . S
Nd280 O311 2.424 1_565 S
Nd281 C291 2.836 . S
Nd281 O303 2.414 . S
Nd281 O305 2.424 . S
Nd281 O306 2.500 . S
Nd281 O307 2.492 . S
Nd281 O308 2.487 . S
Nd281 O309 2.682 . S
Nd281 O310 2.410 1_565 S
C282 Nd280 2.836 . S
C282 C283 1.498 . S
C282 O300 1.258 . S
C282 O301 1.239 . S
C283 C282 1.498 . S
C283 C284 1.366 . S
C283 C288 1.407 . S
C284 C283 1.366 . S
C284 C285 1.392 . S
C284 H312 0.930 . S
C285 C284 1.392 . S
C285 C286 1.398 . S
C285 H313 0.929 . S
C286 C285 1.398 . S
C286 C287 1.352 . S
C287 C286 1.352 . S
C287 C288 1.384 . S
C287 H314 0.930 . S
C288 C283 1.407 . S
C288 C287 1.384 . S
C288 H315 0.929 . S
C289 O302 1.241 . S
C289 O303 1.273 . S
C290 O304 1.251 . S
C290 O305 1.268 . S
C291 Nd281 2.836 . S
C291 C292 1.498 1_565 S
C291 O306 1.258 . S
C291 O307 1.239 . S
C292 C291 1.498 1_545 S
C292 C293 1.366 . S
C292 C297 1.407 . S
C293 C292 1.366 . S
C293 C294 1.392 . S
C293 H316 0.930 . S
C294 C293 1.392 . S
C294 C295 1.398 . S
C294 H317 0.929 . S
C295 C294 1.398 . S
C295 C296 1.352 . S
C296 C295 1.352 . S
C296 C297 1.384 . S
C296 H318 0.930 . S
C297 C292 1.407 . S
C297 C296 1.384 . S
C297 H319 0.929 1_545 S
C298 O308 1.241 . S
C298 O309 1.273 . S
C299 O310 1.251 . S
C299 O311 1.268 . S
O300 Nd280 2.500 . S
O300 C282 1.258 . S
O301 Nd280 2.492 . S
O301 C282 1.239 . S
O302 Nd280 2.487 . S
O302 C289 1.241 . S
O303 Nd280 2.682 . S
O303 Nd281 2.414 . S
O303 C289 1.273 . S
O304 Nd280 2.410 . S
O304 C290 1.251 . S
O305 Nd281 2.424 . S
O305 C290 1.268 . S
O306 Nd281 2.500 . S
O306 C291 1.258 . S
O307 Nd281 2.492 . S
O307 C291 1.239 . S
O308 Nd281 2.487 . S
O308 C298 1.241 . S
O309 Nd280 2.414 . S
O309 Nd281 2.682 . S
O309 C298 1.273 . S
O310 Nd281 2.410 1_545 S
O310 C299 1.251 . S
O311 Nd280 2.424 1_545 S
O311 C299 1.268 . S
H312 C284 0.930 . S
H313 C285 0.929 . S
H314 C287 0.930 . S
H315 C288 0.929 . S
H316 C293 0.930 . S
H317 C294 0.929 . S
H318 C296 0.930 . S
H319 C297 0.929 1_565 S
Nd320 C322 2.836 . S
Nd320 O340 2.500 . S
Nd320 O341 2.492 . S
Nd320 O342 2.487 . S
Nd320 O343 2.682 . S
Nd320 O344 2.410 . S
Nd320 O349 2.414 . S
Nd320 O351 2.424 . S
Nd321 C331 2.836 . S
Nd321 O343 2.414 . S
Nd321 O345 2.424 . S
Nd321 O346 2.500 . S
Nd321 O347 2.492 . S
Nd321 O348 2.487 . S
Nd321 O349 2.682 . S
Nd321 O350 2.410 . S
C322 Nd320 2.836 . S
C322 C323 1.498 . S
C322 O340 1.258 . S
C322 O341 1.239 . S
C323 C322 1.498 . S
C323 C324 1.366 . S
C323 C328 1.407 . S
C324 C323 1.366 . S
C324 C325 1.392 . S
C324 H352 0.930 . S
C325 C324 1.392 . S
C325 C326 1.398 . S
C325 H353 0.929 . S
C326 C325 1.398 . S
C326 C327 1.352 . S
C327 C326 1.352 . S
C327 C328 1.384 . S
C327 H354 0.930 . S
C328 C323 1.407 . S
C328 C327 1.384 . S
C328 H355 0.929 . S
C329 O342 1.241 . S
C329 O343 1.273 . S
C330 O344 1.251 . S
C330 O345 1.268 . S
C331 Nd321 2.836 . S
C331 C332 1.498 . S
C331 O346 1.258 . S
C331 O347 1.239 . S
C332 C331 1.498 . S
C332 C333 1.366 . S
C332 C337 1.407 . S
C333 C332 1.366 . S
C333 C334 1.392 . S
C333 H356 0.930 . S
C334 C333 1.392 . S
C334 C335 1.398 . S
C334 H357 0.929 . S
C335 C334 1.398 . S
C335 C336 1.352 . S
C336 C335 1.352 . S
C336 C337 1.384 . S
C336 H358 0.930 . S
C337 C332 1.407 . S
C337 C336 1.384 . S
C337 H359 0.929 . S
C338 O348 1.241 . S
C338 O349 1.273 . S
C339 O350 1.251 . S
C339 O351 1.268 . S
O340 Nd320 2.500 . S
O340 C322 1.258 . S
O341 Nd320 2.492 . S
O341 C322 1.239 . S
O342 Nd320 2.487 . S
O342 C329 1.241 . S
O343 Nd320 2.682 . S
O343 Nd321 2.414 . S
O343 C329 1.273 . S
O344 Nd320 2.410 . S
O344 C330 1.251 . S
O345 Nd321 2.424 . S
O345 C330 1.268 . S
O346 Nd321 2.500 . S
O346 C331 1.258 . S
O347 Nd321 2.492 . S
O347 C331 1.239 . S
O348 Nd321 2.487 . S
O348 C338 1.241 . S
O349 Nd320 2.414 . S
O349 Nd321 2.682 . S
O349 C338 1.273 . S
O350 Nd321 2.410 . S
O350 C339 1.251 . S
O351 Nd320 2.424 . S
O351 C339 1.268 . S
H352 C324 0.930 . S
H353 C325 0.929 . S
H354 C327 0.930 . S
H355 C328 0.929 . S
H356 C333 0.930 . S
H357 C334 0.929 . S
H358 C336 0.930 . S
H359 C337 0.929 . S
Nd360 C362 2.836 . S
Nd360 O380 2.500 . S
Nd360 O381 2.492 . S
Nd360 O382 2.487 . S
Nd360 O383 2.682 . S
Nd360 O384 2.410 . S
Nd360 O389 2.414 . S
Nd360 O391 2.424 . S
Nd361 C371 2.836 . S
Nd361 O383 2.414 . S
Nd361 O385 2.424 . S
Nd361 O386 2.500 . S
Nd361 O387 2.492 . S
Nd361 O388 2.487 . S
Nd361 O389 2.682 . S
Nd361 O390 2.410 . S
C362 Nd360 2.836 . S
C362 C363 1.498 . S
C362 O380 1.258 . S
C362 O381 1.239 . S
C363 C362 1.498 . S
C363 C364 1.366 . S
C363 C368 1.407 . S
C364 C363 1.366 . S
C364 C365 1.392 . S
C364 H392 0.930 . S
C365 C364 1.392 . S
C365 C366 1.398 . S
C365 H393 0.929 . S
C366 C365 1.398 . S
C366 C367 1.352 . S
C367 C366 1.352 . S
C367 C368 1.384 . S
C367 H394 0.930 . S
C368 C363 1.407 . S
C368 C367 1.384 . S
C368 H395 0.929 . S
C369 O382 1.241 . S
C369 O383 1.273 . S
C370 O384 1.251 . S
C370 O385 1.268 . S
C371 Nd361 2.836 . S
C371 C372 1.498 . S
C371 O386 1.258 . S
C371 O387 1.239 . S
C372 C371 1.498 . S
C372 C373 1.366 . S
C372 C377 1.407 . S
C373 C372 1.366 . S
C373 C374 1.392 . S
C373 H396 0.930 . S
C374 C373 1.392 . S
C374 C375 1.398 . S
C374 H397 0.929 . S
C375 C374 1.398 . S
C375 C376 1.352 . S
C376 C375 1.352 . S
C376 C377 1.384 . S
C376 H398 0.930 . S
C377 C372 1.407 . S
C377 C376 1.384 . S
C377 H399 0.929 . S
C378 O388 1.241 . S
C378 O389 1.273 . S
C379 O390 1.251 . S
C379 O391 1.268 . S
O380 Nd360 2.500 . S
O380 C362 1.258 . S
O381 Nd360 2.492 . S
O381 C362 1.239 . S
O382 Nd360 2.487 . S
O382 C369 1.241 . S
O383 Nd360 2.682 . S
O383 Nd361 2.414 . S
O383 C369 1.273 . S
O384 Nd360 2.410 . S
O384 C370 1.251 . S
O385 Nd361 2.424 . S
O385 C370 1.268 . S
O386 Nd361 2.500 . S
O386 C371 1.258 . S
O387 Nd361 2.492 . S
O387 C371 1.239 . S
O388 Nd361 2.487 . S
O388 C378 1.241 . S
O389 Nd360 2.414 . S
O389 Nd361 2.682 . S
O389 C378 1.273 . S
O390 Nd361 2.410 . S
O390 C379 1.251 . S
O391 Nd360 2.424 . S
O391 C379 1.268 . S
H392 C364 0.930 . S
H393 C365 0.929 . S
H394 C367 0.930 . S
H395 C368 0.929 . S
H396 C373 0.930 . S
H397 C374 0.929 . S
H398 C376 0.930 . S
H399 C377 0.929 . S
Nd400 C402 2.836 . S
Nd400 O420 2.500 . S
Nd400 O421 2.492 . S
Nd400 O422 2.487 . S
Nd400 O423 2.682 . S
Nd400 O424 2.410 . S
Nd400 O429 2.414 . S
Nd400 O431 2.424 . S
Nd401 C411 2.836 . S
Nd401 O423 2.414 . S
Nd401 O425 2.424 . S
Nd401 O426 2.500 . S
Nd401 O427 2.492 . S
Nd401 O428 2.487 . S
Nd401 O429 2.682 . S
Nd401 O430 2.410 . S
C402 Nd400 2.836 . S
C402 C403 1.498 . S
C402 O420 1.258 . S
C402 O421 1.239 . S
C403 C402 1.498 . S
C403 C404 1.366 . S
C403 C408 1.407 . S
C404 C403 1.366 . S
C404 C405 1.392 . S
C404 H432 0.930 . S
C405 C404 1.392 . S
C405 C406 1.398 . S
C405 H433 0.929 . S
C406 C405 1.398 . S
C406 C407 1.352 . S
C407 C406 1.352 . S
C407 C408 1.384 . S
C407 H434 0.930 . S
C408 C403 1.407 . S
C408 C407 1.384 . S
C408 H435 0.929 . S
C409 O422 1.241 . S
C409 O423 1.273 . S
C410 O424 1.251 . S
C410 O425 1.268 . S
C411 Nd401 2.836 . S
C411 C412 1.498 . S
C411 O426 1.258 . S
C411 O427 1.239 . S
C412 C411 1.498 . S
C412 C413 1.366 . S
C412 C417 1.407 . S
C413 C412 1.366 . S
C413 C414 1.392 . S
C413 H436 0.930 . S
C414 C413 1.392 . S
C414 C415 1.398 . S
C414 H437 0.929 . S
C415 C414 1.398 . S
C415 C416 1.352 . S
C416 C415 1.352 . S
C416 C417 1.384 . S
C416 H438 0.930 . S
C417 C412 1.407 . S
C417 C416 1.384 . S
C417 H439 0.929 . S
C418 O428 1.241 . S
C418 O429 1.273 . S
C419 O430 1.251 . S
C419 O431 1.268 . S
O420 Nd400 2.500 . S
O420 C402 1.258 . S
O421 Nd400 2.492 . S
O421 C402 1.239 . S
O422 Nd400 2.487 . S
O422 C409 1.241 . S
O423 Nd400 2.682 . S
O423 Nd401 2.414 . S
O423 C409 1.273 . S
O424 Nd400 2.410 . S
O424 C410 1.251 . S
O425 Nd401 2.424 . S
O425 C410 1.268 . S
O426 Nd401 2.500 . S
O426 C411 1.258 . S
O427 Nd401 2.492 . S
O427 C411 1.239 . S
O428 Nd401 2.487 . S
O428 C418 1.241 . S
O429 Nd400 2.414 . S
O429 Nd401 2.682 . S
O429 C418 1.273 . S
O430 Nd401 2.410 . S
O430 C419 1.251 . S
O431 Nd400 2.424 . S
O431 C419 1.268 . S
H432 C404 0.930 . S
H433 C405 0.929 . S
H434 C407 0.930 . S
H435 C408 0.929 . S
H436 C413 0.930 . S
H437 C414 0.929 . S
H438 C416 0.930 . S
H439 C417 0.929 . S
Nd440 C442 2.836 . S
Nd440 O460 2.500 . S
Nd440 O461 2.492 . S
Nd440 O462 2.487 . S
Nd440 O463 2.682 . S
Nd440 O464 2.410 . S
Nd440 O469 2.414 . S
Nd440 O471 2.424 . S
Nd441 C451 2.836 . S
Nd441 O463 2.414 . S
Nd441 O465 2.424 . S
Nd441 O466 2.500 . S
Nd441 O467 2.492 . S
Nd441 O468 2.487 . S
Nd441 O469 2.682 . S
Nd441 O470 2.410 . S
C442 Nd440 2.836 . S
C442 C443 1.498 . S
C442 O460 1.258 . S
C442 O461 1.239 . S
C443 C442 1.498 . S
C443 C444 1.366 . S
C443 C448 1.407 . S
C444 C443 1.366 . S
C444 C445 1.392 . S
C444 H472 0.930 . S
C445 C444 1.392 . S
C445 C446 1.398 . S
C445 H473 0.929 . S
C446 C445 1.398 . S
C446 C447 1.352 . S
C447 C446 1.352 . S
C447 C448 1.384 . S
C447 H474 0.930 . S
C448 C443 1.407 . S
C448 C447 1.384 . S
C448 H475 0.929 . S
C449 O462 1.241 . S
C449 O463 1.273 . S
C450 O464 1.251 . S
C450 O465 1.268 . S
C451 Nd441 2.836 . S
C451 C452 1.498 . S
C451 O466 1.258 . S
C451 O467 1.239 . S
C452 C451 1.498 . S
C452 C453 1.366 . S
C452 C457 1.407 . S
C453 C452 1.366 . S
C453 C454 1.392 . S
C453 H476 0.930 . S
C454 C453 1.392 . S
C454 C455 1.398 . S
C454 H477 0.929 . S
C455 C454 1.398 . S
C455 C456 1.352 . S
C456 C455 1.352 . S
C456 C457 1.384 . S
C456 H478 0.930 . S
C457 C452 1.407 . S
C457 C456 1.384 . S
C457 H479 0.929 . S
C458 O468 1.241 . S
C458 O469 1.273 . S
C459 O470 1.251 . S
C459 O471 1.268 . S
O460 Nd440 2.500 . S
O460 C442 1.258 . S
O461 Nd440 2.492 . S
O461 C442 1.239 . S
O462 Nd440 2.487 . S
O462 C449 1.241 . S
O463 Nd440 2.682 . S
O463 Nd441 2.414 . S
O463 C449 1.273 . S
O464 Nd440 2.410 . S
O464 C450 1.251 . S
O465 Nd441 2.424 . S
O465 C450 1.268 . S
O466 Nd441 2.500 . S
O466 C451 1.258 . S
O467 Nd441 2.492 . S
O467 C451 1.239 . S
O468 Nd441 2.487 . S
O468 C458 1.241 . S
O469 Nd440 2.414 . S
O469 Nd441 2.682 . S
O469 C458 1.273 . S
O470 Nd441 2.410 . S
O470 C459 1.251 . S
O471 Nd440 2.424 . S
O471 C459 1.268 . S
H472 C444 0.930 . S
H473 C445 0.929 . S
H474 C447 0.930 . S
H475 C448 0.929 . S
H476 C453 0.930 . S
H477 C454 0.929 . S
H478 C456 0.930 . S
H479 C457 0.929 . S
Nd480 C482 2.836 . S
Nd480 O500 2.500 . S
Nd480 O501 2.492 . S
Nd480 O502 2.487 . S
Nd480 O503 2.682 . S
Nd480 O504 2.410 . S
Nd480 O509 2.414 . S
Nd480 O511 2.424 . S
Nd481 C491 2.836 . S
Nd481 O503 2.414 . S
Nd481 O505 2.424 . S
Nd481 O506 2.500 . S
Nd481 O507 2.492 . S
Nd481 O508 2.487 . S
Nd481 O509 2.682 . S
Nd481 O510 2.410 . S
C482 Nd480 2.836 . S
C482 C483 1.498 . S
C482 O500 1.258 . S
C482 O501 1.239 . S
C483 C482 1.498 . S
C483 C484 1.366 . S
C483 C488 1.407 . S
C484 C483 1.366 . S
C484 C485 1.392 . S
C484 H512 0.930 . S
C485 C484 1.392 . S
C485 C486 1.398 . S
C485 H513 0.929 . S
C486 C485 1.398 . S
C486 C487 1.352 . S
C487 C486 1.352 . S
C487 C488 1.384 . S
C487 H514 0.930 . S
C488 C483 1.407 . S
C488 C487 1.384 . S
C488 H515 0.929 . S
C489 O502 1.241 . S
C489 O503 1.273 . S
C490 O504 1.251 . S
C490 O505 1.268 . S
C491 Nd481 2.836 . S
C491 C492 1.498 . S
C491 O506 1.258 . S
C491 O507 1.239 . S
C492 C491 1.498 . S
C492 C493 1.366 . S
C492 C497 1.407 . S
C493 C492 1.366 . S
C493 C494 1.392 . S
C493 H516 0.930 . S
C494 C493 1.392 . S
C494 C495 1.398 . S
C494 H517 0.929 . S
C495 C494 1.398 . S
C495 C496 1.352 . S
C496 C495 1.352 . S
C496 C497 1.384 . S
C496 H518 0.930 . S
C497 C492 1.407 . S
C497 C496 1.384 . S
C497 H519 0.929 . S
C498 O508 1.241 . S
C498 O509 1.273 . S
C499 O510 1.251 . S
C499 O511 1.268 . S
O500 Nd480 2.500 . S
O500 C482 1.258 . S
O501 Nd480 2.492 . S
O501 C482 1.239 . S
O502 Nd480 2.487 . S
O502 C489 1.241 . S
O503 Nd480 2.682 . S
O503 Nd481 2.414 . S
O503 C489 1.273 . S
O504 Nd480 2.410 . S
O504 C490 1.251 . S
O505 Nd481 2.424 . S
O505 C490 1.268 . S
O506 Nd481 2.500 . S
O506 C491 1.258 . S
O507 Nd481 2.492 . S
O507 C491 1.239 . S
O508 Nd481 2.487 . S
O508 C498 1.241 . S
O509 Nd480 2.414 . S
O509 Nd481 2.682 . S
O509 C498 1.273 . S
O510 Nd481 2.410 . S
O510 C499 1.251 . S
O511 Nd480 2.424 . S
O511 C499 1.268 . S
H512 C484 0.930 . S
H513 C485 0.929 . S
H514 C487 0.930 . S
H515 C488 0.929 . S
H516 C493 0.930 . S
H517 C494 0.929 . S
H518 C496 0.930 . S
H519 C497 0.929 . S
Nd520 C522 2.836 . S
Nd520 O540 2.500 . S
Nd520 O541 2.492 . S
Nd520 O542 2.487 . S
Nd520 O543 2.682 . S
Nd520 O544 2.410 . S
Nd520 O549 2.414 . S
Nd520 O551 2.424 . S
Nd521 C531 2.836 . S
Nd521 O543 2.414 . S
Nd521 O545 2.424 . S
Nd521 O546 2.500 . S
Nd521 O547 2.492 . S
Nd521 O548 2.487 . S
Nd521 O549 2.682 . S
Nd521 O550 2.410 . S
C522 Nd520 2.836 . S
C522 C523 1.498 . S
C522 O540 1.258 . S
C522 O541 1.239 . S
C523 C522 1.498 . S
C523 C524 1.366 . S
C523 C528 1.407 . S
C524 C523 1.366 . S
C524 C525 1.392 . S
C524 H552 0.930 . S
C525 C524 1.392 . S
C525 C526 1.398 . S
C525 H553 0.929 . S
C526 C525 1.398 . S
C526 C527 1.352 . S
C527 C526 1.352 . S
C527 C528 1.384 . S
C527 H554 0.930 . S
C528 C523 1.407 . S
C528 C527 1.384 . S
C528 H555 0.929 . S
C529 O542 1.241 . S
C529 O543 1.273 . S
C530 O544 1.251 . S
C530 O545 1.268 . S
C531 Nd521 2.836 . S
C531 C532 1.498 . S
C531 O546 1.258 . S
C531 O547 1.239 . S
C532 C531 1.498 . S
C532 C533 1.366 . S
C532 C537 1.407 . S
C533 C532 1.366 . S
C533 C534 1.392 . S
C533 H556 0.930 . S
C534 C533 1.392 . S
C534 C535 1.398 . S
C534 H557 0.929 . S
C535 C534 1.398 . S
C535 C536 1.352 . S
C536 C535 1.352 . S
C536 C537 1.384 . S
C536 H558 0.930 . S
C537 C532 1.407 . S
C537 C536 1.384 . S
C537 H559 0.929 . S
C538 O548 1.241 . S
C538 O549 1.273 . S
C539 O550 1.251 . S
C539 O551 1.268 . S
O540 Nd520 2.500 . S
O540 C522 1.258 . S
O541 Nd520 2.492 . S
O541 C522 1.239 . S
O542 Nd520 2.487 . S
O542 C529 1.241 . S
O543 Nd520 2.682 . S
O543 Nd521 2.414 . S
O543 C529 1.273 . S
O544 Nd520 2.410 . S
O544 C530 1.251 . S
O545 Nd521 2.424 . S
O545 C530 1.268 . S
O546 Nd521 2.500 . S
O546 C531 1.258 . S
O547 Nd521 2.492 . S
O547 C531 1.239 . S
O548 Nd521 2.487 . S
O548 C538 1.241 . S
O549 Nd520 2.414 . S
O549 Nd521 2.682 . S
O549 C538 1.273 . S
O550 Nd521 2.410 . S
O550 C539 1.251 . S
O551 Nd520 2.424 . S
O551 C539 1.268 . S
H552 C524 0.930 . S
H553 C525 0.929 . S
H554 C527 0.930 . S
H555 C528 0.929 . S
H556 C533 0.930 . S
H557 C534 0.929 . S
H558 C536 0.930 . S
H559 C537 0.929 . S
Nd560 C562 2.836 . S
Nd560 O580 2.500 . S
Nd560 O581 2.492 . S
Nd560 O582 2.487 . S
Nd560 O583 2.682 . S
Nd560 O584 2.410 . S
Nd560 O589 2.414 . S
Nd560 O591 2.424 . S
Nd561 C571 2.836 . S
Nd561 O583 2.414 . S
Nd561 O585 2.424 . S
Nd561 O586 2.500 . S
Nd561 O587 2.492 . S
Nd561 O588 2.487 . S
Nd561 O589 2.682 . S
Nd561 O590 2.410 . S
C562 Nd560 2.836 . S
C562 C563 1.498 . S
C562 O580 1.258 . S
C562 O581 1.239 . S
C563 C562 1.498 . S
C563 C564 1.366 . S
C563 C568 1.407 . S
C564 C563 1.366 . S
C564 C565 1.392 . S
C564 H592 0.930 . S
C565 C564 1.392 . S
C565 C566 1.398 . S
C565 H593 0.929 . S
C566 C565 1.398 . S
C566 C567 1.352 . S
C567 C566 1.352 . S
C567 C568 1.384 . S
C567 H594 0.930 . S
C568 C563 1.407 . S
C568 C567 1.384 . S
C568 H595 0.929 . S
C569 O582 1.241 . S
C569 O583 1.273 . S
C570 O584 1.251 . S
C570 O585 1.268 . S
C571 Nd561 2.836 . S
C571 C572 1.498 . S
C571 O586 1.258 . S
C571 O587 1.239 . S
C572 C571 1.498 . S
C572 C573 1.366 . S
C572 C577 1.407 . S
C573 C572 1.366 . S
C573 C574 1.392 . S
C573 H596 0.930 . S
C574 C573 1.392 . S
C574 C575 1.398 . S
C574 H597 0.929 . S
C575 C574 1.398 . S
C575 C576 1.352 . S
C576 C575 1.352 . S
C576 C577 1.384 . S
C576 H598 0.930 . S
C577 C572 1.407 . S
C577 C576 1.384 . S
C577 H599 0.929 . S
C578 O588 1.241 . S
C578 O589 1.273 . S
C579 O590 1.251 . S
C579 O591 1.268 . S
O580 Nd560 2.500 . S
O580 C562 1.258 . S
O581 Nd560 2.492 . S
O581 C562 1.239 . S
O582 Nd560 2.487 . S
O582 C569 1.241 . S
O583 Nd560 2.682 . S
O583 Nd561 2.414 . S
O583 C569 1.273 . S
O584 Nd560 2.410 . S
O584 C570 1.251 . S
O585 Nd561 2.424 . S
O585 C570 1.268 . S
O586 Nd561 2.500 . S
O586 C571 1.258 . S
O587 Nd561 2.492 . S
O587 C571 1.239 . S
O588 Nd561 2.487 . S
O588 C578 1.241 . S
O589 Nd560 2.414 . S
O589 Nd561 2.682 . S
O589 C578 1.273 . S
O590 Nd561 2.410 . S
O590 C579 1.251 . S
O591 Nd560 2.424 . S
O591 C579 1.268 . S
H592 C564 0.930 . S
H593 C565 0.929 . S
H594 C567 0.930 . S
H595 C568 0.929 . S
H596 C573 0.930 . S
H597 C574 0.929 . S
H598 C576 0.930 . S
H599 C577 0.929 . S
Nd600 C602 2.836 . S
Nd600 O620 2.500 . S
Nd600 O621 2.492 . S
Nd600 O622 2.487 . S
Nd600 O623 2.682 . S
Nd600 O624 2.410 . S
Nd600 O629 2.414 . S
Nd600 O631 2.424 . S
Nd601 C611 2.836 . S
Nd601 O623 2.414 . S
Nd601 O625 2.424 . S
Nd601 O626 2.500 . S
Nd601 O627 2.492 . S
Nd601 O628 2.487 . S
Nd601 O629 2.682 . S
Nd601 O630 2.410 . S
C602 Nd600 2.836 . S
C602 C603 1.498 . S
C602 O620 1.258 . S
C602 O621 1.239 . S
C603 C602 1.498 . S
C603 C604 1.366 . S
C603 C608 1.407 . S
C604 C603 1.366 . S
C604 C605 1.392 . S
C604 H632 0.930 . S
C605 C604 1.392 . S
C605 C606 1.398 . S
C605 H633 0.929 . S
C606 C605 1.398 . S
C606 C607 1.352 . S
C607 C606 1.352 . S
C607 C608 1.384 . S
C607 H634 0.930 . S
C608 C603 1.407 . S
C608 C607 1.384 . S
C608 H635 0.929 . S
C609 O622 1.241 . S
C609 O623 1.273 . S
C610 O624 1.251 . S
C610 O625 1.268 . S
C611 Nd601 2.836 . S
C611 C612 1.498 . S
C611 O626 1.258 . S
C611 O627 1.239 . S
C612 C611 1.498 . S
C612 C613 1.366 . S
C612 C617 1.407 . S
C613 C612 1.366 . S
C613 C614 1.392 . S
C613 H636 0.930 . S
C614 C613 1.392 . S
C614 C615 1.398 . S
C614 H637 0.929 . S
C615 C614 1.398 . S
C615 C616 1.352 . S
C616 C615 1.352 . S
C616 C617 1.384 . S
C616 H638 0.930 . S
C617 C612 1.407 . S
C617 C616 1.384 . S
C617 H639 0.929 . S
C618 O628 1.241 . S
C618 O629 1.273 . S
C619 O630 1.251 . S
C619 O631 1.268 . S
O620 Nd600 2.500 . S
O620 C602 1.258 . S
O621 Nd600 2.492 . S
O621 C602 1.239 . S
O622 Nd600 2.487 . S
O622 C609 1.241 . S
O623 Nd600 2.682 . S
O623 Nd601 2.414 . S
O623 C609 1.273 . S
O624 Nd600 2.410 . S
O624 C610 1.251 . S
O625 Nd601 2.424 . S
O625 C610 1.268 . S
O626 Nd601 2.500 . S
O626 C611 1.258 . S
O627 Nd601 2.492 . S
O627 C611 1.239 . S
O628 Nd601 2.487 . S
O628 C618 1.241 . S
O629 Nd600 2.414 . S
O629 Nd601 2.682 . S
O629 C618 1.273 . S
O630 Nd601 2.410 . S
O630 C619 1.251 . S
O631 Nd600 2.424 . S
O631 C619 1.268 . S
H632 C604 0.930 . S
H633 C605 0.929 . S
H634 C607 0.930 . S
H635 C608 0.929 . S
H636 C613 0.930 . S
H637 C614 0.929 . S
H638 C616 0.930 . S
H639 C617 0.929 . S
C640 C641 1.391 . S
C640 C642 1.394 . S
C640 H656 0.931 . S
C641 C640 1.391 . S
C641 C645 1.376 . S
C642 C640 1.394 . S
C642 C643 1.369 . S
C642 C646 1.531 . S
C643 C642 1.369 . S
C643 C644 1.410 . S
C643 C651 1.503 . S
C644 C643 1.410 . S
C644 C645 1.392 . S
C644 C647 1.511 . S
C645 C641 1.376 . S
C645 C644 1.392 . S
C645 H657 0.929 . S
C646 C642 1.531 . S
C646 H658 0.960 . S
C646 H659 0.962 . S
C646 H660 0.960 . S
C647 C644 1.511 . S
C647 H661 0.961 . S
C647 H662 0.961 . S
C647 H663 0.961 . S
C648 C649 1.370 . S
C648 C650 1.363 . S
C648 H664 0.931 . S
C649 C648 1.370 . S
C649 C653 1.408 . S
C650 C648 1.363 . S
C650 C651 1.370 . S
C650 C654 1.524 . S
C651 C643 1.503 . S
C651 C650 1.370 . S
C651 C652 1.403 . S
C652 C651 1.403 . S
C652 C653 1.404 . S
C652 C655 1.539 . S
C653 C649 1.408 . S
C653 C652 1.404 . S
C653 H665 0.930 . S
C654 C650 1.524 . S
C654 H666 0.956 . S
C654 H667 0.961 . S
C654 H668 0.961 . S
C655 C652 1.539 . S
C655 H669 0.958 . S
C655 H670 0.961 . S
C655 H671 0.960 . S
H656 C640 0.931 . S
H657 C645 0.929 . S
H658 C646 0.960 . S
H659 C646 0.962 . S
H660 C646 0.960 . S
H661 C647 0.961 . S
H662 C647 0.961 . S
H663 C647 0.961 . S
H664 C648 0.931 . S
H665 C653 0.930 . S
H666 C654 0.956 . S
H667 C654 0.961 . S
H668 C654 0.961 . S
H669 C655 0.958 . S
H670 C655 0.961 . S
H671 C655 0.960 . S
C672 C673 1.391 . S
C672 C674 1.394 . S
C672 H688 0.931 . S
C673 C672 1.391 . S
C673 C677 1.376 . S
C674 C672 1.394 . S
C674 C675 1.369 . S
C674 C678 1.531 . S
C675 C674 1.369 . S
C675 C676 1.410 . S
C675 C683 1.503 . S
C676 C675 1.410 . S
C676 C677 1.392 . S
C676 C679 1.511 . S
C677 C673 1.376 . S
C677 C676 1.392 . S
C677 H689 0.929 . S
C678 C674 1.531 . S
C678 H690 0.960 . S
C678 H691 0.962 . S
C678 H692 0.960 . S
C679 C676 1.511 . S
C679 H693 0.961 . S
C679 H694 0.961 . S
C679 H695 0.961 . S
C680 C681 1.370 . S
C680 C682 1.363 . S
C680 H696 0.931 . S
C681 C680 1.370 . S
C681 C685 1.408 . S
C682 C680 1.363 . S
C682 C683 1.370 . S
C682 C686 1.524 . S
C683 C675 1.503 . S
C683 C682 1.370 . S
C683 C684 1.403 . S
C684 C683 1.403 . S
C684 C685 1.404 . S
C684 C687 1.539 . S
C685 C681 1.408 . S
C685 C684 1.404 . S
C685 H697 0.930 . S
C686 C682 1.524 . S
C686 H698 0.956 . S
C686 H699 0.961 . S
C686 H700 0.961 . S
C687 C684 1.539 . S
C687 H701 0.958 . S
C687 H702 0.961 . S
C687 H703 0.960 . S
H688 C672 0.931 . S
H689 C677 0.929 . S
H690 C678 0.960 . S
H691 C678 0.962 . S
H692 C678 0.960 . S
H693 C679 0.961 . S
H694 C679 0.961 . S
H695 C679 0.961 . S
H696 C680 0.931 . S
H697 C685 0.930 . S
H698 C686 0.956 . S
H699 C686 0.961 . S
H700 C686 0.961 . S
H701 C687 0.958 . S
H702 C687 0.961 . S
H703 C687 0.960 . S
C704 C705 1.391 . S
C704 C706 1.394 . S
C704 H720 0.931 . S
C705 C704 1.391 . S
C705 C709 1.376 . S
C706 C704 1.394 . S
C706 C707 1.369 . S
C706 C710 1.531 . S
C707 C706 1.369 . S
C707 C708 1.410 . S
C707 C715 1.503 . S
C708 C707 1.410 . S
C708 C709 1.392 . S
C708 C711 1.511 . S
C709 C705 1.376 . S
C709 C708 1.392 . S
C709 H721 0.929 . S
C710 C706 1.531 . S
C710 H722 0.960 . S
C710 H723 0.962 . S
C710 H724 0.960 . S
C711 C708 1.511 . S
C711 H725 0.961 . S
C711 H726 0.961 . S
C711 H727 0.961 . S
C712 C713 1.370 . S
C712 C714 1.363 . S
C712 H728 0.931 . S
C713 C712 1.370 . S
C713 C717 1.408 . S
C714 C712 1.363 . S
C714 C715 1.370 . S
C714 C718 1.524 . S
C715 C707 1.503 . S
C715 C714 1.370 . S
C715 C716 1.403 . S
C716 C715 1.403 . S
C716 C717 1.404 . S
C716 C719 1.539 . S
C717 C713 1.408 . S
C717 C716 1.404 . S
C717 H729 0.930 . S
C718 C714 1.524 . S
C718 H730 0.956 . S
C718 H731 0.961 . S
C718 H732 0.961 . S
C719 C716 1.539 . S
C719 H733 0.958 . S
C719 H734 0.961 . S
C719 H735 0.960 . S
H720 C704 0.931 . S
H721 C709 0.929 . S
H722 C710 0.960 . S
H723 C710 0.962 . S
H724 C710 0.960 . S
H725 C711 0.961 . S
H726 C711 0.961 . S
H727 C711 0.961 . S
H728 C712 0.931 . S
H729 C717 0.930 . S
H730 C718 0.956 . S
H731 C718 0.961 . S
H732 C718 0.961 . S
H733 C719 0.958 . S
H734 C719 0.961 . S
H735 C719 0.960 . S
C736 C737 1.391 . S
C736 C738 1.394 . S
C736 H752 0.931 . S
C737 C736 1.391 . S
C737 C741 1.376 . S
C738 C736 1.394 . S
C738 C739 1.369 . S
C738 C742 1.531 . S
C739 C738 1.369 . S
C739 C740 1.410 . S
C739 C747 1.503 . S
C740 C739 1.410 . S
C740 C741 1.392 . S
C740 C743 1.511 . S
C741 C737 1.376 . S
C741 C740 1.392 . S
C741 H753 0.929 . S
C742 C738 1.531 . S
C742 H754 0.960 . S
C742 H755 0.962 . S
C742 H756 0.960 . S
C743 C740 1.511 . S
C743 H757 0.961 . S
C743 H758 0.961 . S
C743 H759 0.961 . S
C744 C745 1.370 . S
C744 C746 1.363 . S
C744 H760 0.931 . S
C745 C744 1.370 . S
C745 C749 1.408 . S
C746 C744 1.363 . S
C746 C747 1.370 . S
C746 C750 1.524 . S
C747 C739 1.503 . S
C747 C746 1.370 . S
C747 C748 1.403 . S
C748 C747 1.403 . S
C748 C749 1.404 . S
C748 C751 1.539 . S
C749 C745 1.408 . S
C749 C748 1.404 . S
C749 H761 0.930 . S
C750 C746 1.524 . S
C750 H762 0.956 . S
C750 H763 0.961 . S
C750 H764 0.961 . S
C751 C748 1.539 . S
C751 H765 0.958 . S
C751 H766 0.961 . S
C751 H767 0.960 . S
H752 C736 0.931 . S
H753 C741 0.929 . S
H754 C742 0.960 . S
H755 C742 0.962 . S
H756 C742 0.960 . S
H757 C743 0.961 . S
H758 C743 0.961 . S
H759 C743 0.961 . S
H760 C744 0.931 . S
H761 C749 0.930 . S
H762 C750 0.956 . S
H763 C750 0.961 . S
H764 C750 0.961 . S
H765 C751 0.958 . S
H766 C751 0.961 . S
H767 C751 0.960 . S
C768 C769 1.391 . S
C768 C770 1.394 . S
C768 H784 0.931 . S
C769 C768 1.391 . S
C769 C773 1.376 . S
C770 C768 1.394 . S
C770 C771 1.369 . S
C770 C774 1.531 . S
C771 C770 1.369 . S
C771 C772 1.410 . S
C771 C779 1.503 . S
C772 C771 1.410 . S
C772 C773 1.392 . S
C772 C775 1.511 . S
C773 C769 1.376 . S
C773 C772 1.392 . S
C773 H785 0.929 . S
C774 C770 1.531 . S
C774 H786 0.960 . S
C774 H787 0.962 . S
C774 H788 0.960 . S
C775 C772 1.511 . S
C775 H789 0.961 . S
C775 H790 0.961 . S
C775 H791 0.961 . S
C776 C777 1.370 . S
C776 C778 1.363 . S
C776 H792 0.931 . S
C777 C776 1.370 . S
C777 C781 1.408 . S
C778 C776 1.363 . S
C778 C779 1.370 . S
C778 C782 1.524 . S
C779 C771 1.503 . S
C779 C778 1.370 . S
C779 C780 1.403 . S
C780 C779 1.403 . S
C780 C781 1.404 . S
C780 C783 1.539 . S
C781 C777 1.408 . S
C781 C780 1.404 . S
C781 H793 0.930 . S
C782 C778 1.524 . S
C782 H794 0.956 . S
C782 H795 0.961 . S
C782 H796 0.961 . S
C783 C780 1.539 . S
C783 H797 0.958 . S
C783 H798 0.961 . S
C783 H799 0.960 . S
H784 C768 0.931 . S
H785 C773 0.929 . S
H786 C774 0.960 . S
H787 C774 0.962 . S
H788 C774 0.960 . S
H789 C775 0.961 . S
H790 C775 0.961 . S
H791 C775 0.961 . S
H792 C776 0.931 . S
H793 C781 0.930 . S
H794 C782 0.956 . S
H795 C782 0.961 . S
H796 C782 0.961 . S
H797 C783 0.958 . S
H798 C783 0.961 . S
H799 C783 0.960 . S
C800 C801 1.391 . S
C800 C802 1.394 . S
C800 H816 0.931 . S
C801 C800 1.391 . S
C801 C805 1.376 . S
C802 C800 1.394 . S
C802 C803 1.369 . S
C802 C806 1.531 . S
C803 C802 1.369 . S
C803 C804 1.410 . S
C803 C811 1.503 . S
C804 C803 1.410 . S
C804 C805 1.392 . S
C804 C807 1.511 . S
C805 C801 1.376 . S
C805 C804 1.392 . S
C805 H817 0.929 . S
C806 C802 1.531 . S
C806 H818 0.960 . S
C806 H819 0.962 . S
C806 H820 0.960 . S
C807 C804 1.511 . S
C807 H821 0.961 . S
C807 H822 0.961 . S
C807 H823 0.961 . S
C808 C809 1.370 . S
C808 C810 1.363 . S
C808 H824 0.931 . S
C809 C808 1.370 . S
C809 C813 1.408 . S
C810 C808 1.363 . S
C810 C811 1.370 . S
C810 C814 1.524 . S
C811 C803 1.503 . S
C811 C810 1.370 . S
C811 C812 1.403 . S
C812 C811 1.403 . S
C812 C813 1.404 . S
C812 C815 1.539 . S
C813 C809 1.408 . S
C813 C812 1.404 . S
C813 H825 0.930 . S
C814 C810 1.524 . S
C814 H826 0.956 . S
C814 H827 0.961 . S
C814 H828 0.961 . S
C815 C812 1.539 . S
C815 H829 0.958 . S
C815 H830 0.961 . S
C815 H831 0.960 . S
H816 C800 0.931 . S
H817 C805 0.929 . S
H818 C806 0.960 . S
H819 C806 0.962 . S
H820 C806 0.960 . S
H821 C807 0.961 . S
H822 C807 0.961 . S
H823 C807 0.961 . S
H824 C808 0.931 . S
H825 C813 0.930 . S
H826 C814 0.956 . S
H827 C814 0.961 . S
H828 C814 0.961 . S
H829 C815 0.958 . S
H830 C815 0.961 . S
H831 C815 0.960 . S
C832 C833 1.391 . S
C832 C834 1.394 . S
C832 H848 0.931 . S
C833 C832 1.391 . S
C833 C837 1.376 . S
C834 C832 1.394 . S
C834 C835 1.369 . S
C834 C838 1.531 . S
C835 C834 1.369 . S
C835 C836 1.410 . S
C835 C843 1.503 . S
C836 C835 1.410 . S
C836 C837 1.392 . S
C836 C839 1.511 . S
C837 C833 1.376 . S
C837 C836 1.392 . S
C837 H849 0.929 . S
C838 C834 1.531 . S
C838 H850 0.960 . S
C838 H851 0.962 . S
C838 H852 0.960 . S
C839 C836 1.511 . S
C839 H853 0.961 . S
C839 H854 0.961 . S
C839 H855 0.961 . S
C840 C841 1.370 . S
C840 C842 1.363 . S
C840 H856 0.931 . S
C841 C840 1.370 . S
C841 C845 1.408 . S
C842 C840 1.363 . S
C842 C843 1.370 . S
C842 C846 1.524 . S
C843 C835 1.503 . S
C843 C842 1.370 . S
C843 C844 1.403 . S
C844 C843 1.403 . S
C844 C845 1.404 . S
C844 C847 1.539 . S
C845 C841 1.408 . S
C845 C844 1.404 . S
C845 H857 0.930 . S
C846 C842 1.524 . S
C846 H858 0.956 . S
C846 H859 0.961 . S
C846 H860 0.961 . S
C847 C844 1.539 . S
C847 H861 0.958 . S
C847 H862 0.961 . S
C847 H863 0.960 . S
H848 C832 0.931 . S
H849 C837 0.929 . S
H850 C838 0.960 . S
H851 C838 0.962 . S
H852 C838 0.960 . S
H853 C839 0.961 . S
H854 C839 0.961 . S
H855 C839 0.961 . S
H856 C840 0.931 . S
H857 C845 0.930 . S
H858 C846 0.956 . S
H859 C846 0.961 . S
H860 C846 0.961 . S
H861 C847 0.958 . S
H862 C847 0.961 . S
H863 C847 0.960 . S
C864 C865 1.391 . S
C864 C866 1.394 . S
C864 H880 0.931 . S
C865 C864 1.391 . S
C865 C869 1.376 . S
C866 C864 1.394 . S
C866 C867 1.369 . S
C866 C870 1.531 . S
C867 C866 1.369 . S
C867 C868 1.410 . S
C867 C875 1.503 . S
C868 C867 1.410 . S
C868 C869 1.392 . S
C868 C871 1.511 . S
C869 C865 1.376 . S
C869 C868 1.392 . S
C869 H881 0.929 . S
C870 C866 1.531 . S
C870 H882 0.960 . S
C870 H883 0.962 . S
C870 H884 0.960 . S
C871 C868 1.511 . S
C871 H885 0.961 . S
C871 H886 0.961 . S
C871 H887 0.961 . S
C872 C873 1.370 . S
C872 C874 1.363 . S
C872 H888 0.931 . S
C873 C872 1.370 . S
C873 C877 1.408 . S
C874 C872 1.363 . S
C874 C875 1.370 . S
C874 C878 1.524 . S
C875 C867 1.503 . S
C875 C874 1.370 . S
C875 C876 1.403 . S
C876 C875 1.403 . S
C876 C877 1.404 . S
C876 C879 1.539 . S
C877 C873 1.408 . S
C877 C876 1.404 . S
C877 H889 0.930 . S
C878 C874 1.524 . S
C878 H890 0.956 . S
C878 H891 0.961 . S
C878 H892 0.961 . S
C879 C876 1.539 . S
C879 H893 0.958 . S
C879 H894 0.961 . S
C879 H895 0.960 . S
H880 C864 0.931 . S
H881 C869 0.929 . S
H882 C870 0.960 . S
H883 C870 0.962 . S
H884 C870 0.960 . S
H885 C871 0.961 . S
H886 C871 0.961 . S
H887 C871 0.961 . S
H888 C872 0.931 . S
H889 C877 0.930 . S
H890 C878 0.956 . S
H891 C878 0.961 . S
H892 C878 0.961 . S
H893 C879 0.958 . S
H894 C879 0.961 . S
H895 C879 0.960 . S
C896 C897 1.391 . S
C896 C898 1.394 . S
C896 H912 0.931 . S
C897 C896 1.391 . S
C897 C901 1.376 1_565 S
C898 C896 1.394 . S
C898 C899 1.369 . S
C898 C902 1.531 . S
C899 C898 1.369 . S
C899 C900 1.410 1_565 S
C899 C907 1.503 1_565 S
C900 C899 1.410 1_545 S
C900 C901 1.392 . S
C900 C903 1.511 . S
C901 C897 1.376 1_545 S
C901 C900 1.392 . S
C901 H913 0.929 . S
C902 C898 1.531 . S
C902 H914 0.960 . S
C902 H915 0.962 . S
C902 H916 0.960 . S
C903 C900 1.511 . S
C903 H917 0.961 . S
C903 H918 0.961 . S
C903 H919 0.961 . S
C904 C905 1.370 . S
C904 C906 1.363 . S
C904 H920 0.931 . S
C905 C904 1.370 . S
C905 C909 1.408 . S
C906 C904 1.363 . S
C906 C907 1.370 . S
C906 C910 1.524 1_545 S
C907 C899 1.503 1_545 S
C907 C906 1.370 . S
C907 C908 1.403 . S
C908 C907 1.403 . S
C908 C909 1.404 . S
C908 C911 1.539 . S
C909 C905 1.408 . S
C909 C908 1.404 . S
C909 H921 0.930 . S
C910 C906 1.524 1_565 S
C910 H922 0.956 . S
C910 H923 0.956 1_565 S
C910 H924 0.961 . S
C911 C908 1.539 . S
C911 H925 0.958 . S
C911 H926 0.961 . S
C911 H927 0.960 . S
H912 C896 0.931 . S
H913 C901 0.929 . S
H914 C902 0.960 . S
H915 C902 0.962 . S
H916 C902 0.960 . S
H917 C903 0.961 . S
H918 C903 0.961 . S
H919 C903 0.961 . S
H920 C904 0.931 . S
H921 C909 0.930 . S
H922 C910 0.956 . S
H923 C910 0.956 1_545 S
H924 C910 0.961 . S
H925 C911 0.958 . S
H926 C911 0.961 . S
H927 C911 0.960 . S
C928 C929 1.395 . S
C928 C930 1.392 1_545 S
C928 H944 0.929 1_545 S
C929 C928 1.395 . S
C929 C933 1.376 . S
C930 C928 1.392 1_565 S
C930 C931 1.369 1_565 S
C930 C934 1.531 . S
C931 C930 1.369 1_545 S
C931 C932 1.410 . S
C931 C939 1.503 1_545 S
C932 C931 1.410 . S
C932 C933 1.392 . S
C932 C935 1.511 . S
C933 C929 1.376 . S
C933 C932 1.392 . S
C933 H945 0.929 . S
C934 C930 1.531 . S
C934 H946 0.960 . S
C934 H947 0.962 . S
C934 H948 0.960 . S
C935 C932 1.511 . S
C935 H949 0.961 . S
C935 H950 0.961 . S
C935 H951 0.961 . S
C936 C937 1.370 . S
C936 C938 1.363 1_565 S
C936 H952 0.931 1_565 S
C937 C936 1.370 . S
C937 C941 1.408 . S
C938 C936 1.363 1_545 S
C938 C939 1.370 1_545 S
C938 C942 1.524 . S
C939 C931 1.503 1_565 S
C939 C938 1.370 1_565 S
C939 C940 1.403 . S
C940 C939 1.403 . S
C940 C941 1.404 . S
C940 C943 1.539 . S
C941 C937 1.408 . S
C941 C940 1.404 . S
C941 H953 0.930 . S
C942 C938 1.524 . S
C942 H954 0.956 . S
C942 H955 0.961 . S
C942 H956 0.961 . S
C943 C940 1.539 . S
C943 H957 0.958 . S
C943 H958 0.961 . S
C943 H959 0.960 . S
H944 C928 0.929 1_565 S
H945 C933 0.929 . S
H946 C934 0.960 . S
H947 C934 0.962 . S
H948 C934 0.960 . S
H949 C935 0.961 . S
H950 C935 0.961 . S
H951 C935 0.961 . S
H952 C936 0.931 1_545 S
H953 C941 0.930 . S
H954 C942 0.956 . S
H955 C942 0.961 . S
H956 C942 0.961 . S
H957 C943 0.958 . S
H958 C943 0.961 . S
H959 C943 0.960 . S
C960 C961 1.391 1_565 S
C960 C962 1.394 . S
C960 H976 0.931 . S
C961 C960 1.391 1_545 S
C961 C965 1.376 . S
C962 C960 1.394 . S
C962 C963 1.369 1_565 S
C962 C966 1.531 . S
C963 C962 1.369 1_545 S
C963 C964 1.410 . S
C963 C971 1.503 1_545 S
C964 C963 1.410 . S
C964 C965 1.392 . S
C964 C967 1.511 . S
C965 C961 1.376 . S
C965 C964 1.392 . S
C965 H977 0.929 . S
C966 C962 1.531 . S
C966 H978 0.960 . S
C966 H979 0.962 . S
C966 H980 0.960 . S
C967 C964 1.511 . S
C967 H981 0.961 . S
C967 H982 0.961 . S
C967 H983 0.961 . S
C968 C969 1.370 . S
C968 C970 1.363 . S
C968 H984 0.931 . S
C969 C968 1.370 . S
C969 C973 1.408 . S
C970 C968 1.363 . S
C970 C971 1.370 . S
C970 C974 1.524 . S
C971 C963 1.503 1_565 S
C971 C970 1.370 . S
C971 C972 1.403 . S
C972 C971 1.403 . S
C972 C973 1.404 . S
C972 C975 1.539 . S
C973 C969 1.408 . S
C973 C972 1.404 . S
C973 H985 0.930 . S
C974 C970 1.524 . S
C974 H986 0.956 . S
C974 H987 0.961 1_565 S
C974 H988 0.961 . S
C975 C972 1.539 . S
C975 H989 0.958 . S
C975 H990 0.961 1_565 S
C975 H991 0.960 1_565 S
H976 C960 0.931 . S
H977 C965 0.929 . S
H978 C966 0.960 . S
H979 C966 0.962 . S
H980 C966 0.960 . S
H981 C967 0.961 . S
H982 C967 0.961 . S
H983 C967 0.961 . S
H984 C968 0.931 . S
H985 C973 0.930 . S
H986 C974 0.956 . S
H987 C974 0.961 1_545 S
H988 C974 0.961 . S
H989 C975 0.958 . S
H990 C975 0.961 1_545 S
H991 C975 0.960 1_545 S
C992 C993 1.391 . S
C992 C994 1.394 . S
C992 H1008 0.931 . S
C993 C992 1.391 . S
C993 C997 1.376 1_545 S
C994 C992 1.394 . S
C994 C995 1.369 . S
C994 C998 1.531 . S
C995 C994 1.369 . S
C995 C996 1.410 1_545 S
C995 C1003 1.503 1_545 S
C996 C995 1.410 1_565 S
C996 C997 1.392 . S
C996 C999 1.511 . S
C997 C993 1.376 1_565 S
C997 C996 1.392 . S
C997 H1009 0.929 . S
C998 C994 1.531 . S
C998 H1010 0.960 . S
C998 H1011 0.962 . S
C998 H1012 0.960 . S
C999 C996 1.511 . S
C999 H1013 0.961 . S
C999 H1014 0.961 . S
C999 H1015 0.961 . S
C1000 C1001 1.370 . S
C1000 C1002 1.363 . S
C1000 H1016 0.931 . S
C1001 C1000 1.370 . S
C1001 C1005 1.408 . S
C1002 C1000 1.363 . S
C1002 C1003 1.370 . S
C1002 C1006 1.524 . S
C1003 C995 1.503 1_565 S
C1003 C1002 1.370 . S
C1003 C1004 1.403 1_565 S
C1004 C1003 1.403 1_545 S
C1004 C1005 1.404 1_545 S
C1004 C1007 1.539 . S
C1005 C1001 1.408 . S
C1005 C1004 1.404 1_565 S
C1005 H1017 0.930 . S
C1006 C1002 1.524 . S
C1006 H1018 0.956 . S
C1006 H1019 0.961 . S
C1006 H1020 0.961 . S
C1007 C1004 1.539 . S
C1007 H1021 0.958 . S
C1007 H1022 0.961 . S
C1007 H1023 0.960 . S
H1008 C992 0.931 . S
H1009 C997 0.929 . S
H1010 C998 0.960 . S
H1011 C998 0.962 . S
H1012 C998 0.960 . S
H1013 C999 0.961 . S
H1014 C999 0.961 . S
H1015 C999 0.961 . S
H1016 C1000 0.931 . S
H1017 C1005 0.930 . S
H1018 C1006 0.956 . S
H1019 C1006 0.961 . S
H1020 C1006 0.961 . S
H1021 C1007 0.958 . S
H1022 C1007 0.961 . S
H1023 C1007 0.960 . S
C1024 C1025 1.391 . S
C1024 C1026 1.394 . S
C1024 H1040 0.931 . S
C1025 C1024 1.391 . S
C1025 C1029 1.376 . S
C1026 C1024 1.394 . S
C1026 C1027 1.369 . S
C1026 C1030 1.531 . S
C1027 C1026 1.369 . S
C1027 C1028 1.410 . S
C1027 C1035 1.503 . S
C1028 C1027 1.410 . S
C1028 C1029 1.392 . S
C1028 C1031 1.511 . S
C1029 C1025 1.376 . S
C1029 C1028 1.392 . S
C1029 H1041 0.929 . S
C1030 C1026 1.531 . S
C1030 H1042 0.960 . S
C1030 H1043 0.962 . S
C1030 H1044 0.960 . S
C1031 C1028 1.511 . S
C1031 H1045 0.961 . S
C1031 H1046 0.961 . S
C1031 H1047 0.961 . S
C1032 C1033 1.370 . S
C1032 C1034 1.363 . S
C1032 H1048 0.931 . S
C1033 C1032 1.370 . S
C1033 C1037 1.408 . S
C1034 C1032 1.363 . S
C1034 C1035 1.370 . S
C1034 C1038 1.524 . S
C1035 C1027 1.503 . S
C1035 C1034 1.370 . S
C1035 C1036 1.403 . S
C1036 C1035 1.403 . S
C1036 C1037 1.404 . S
C1036 C1039 1.539 . S
C1037 C1033 1.408 . S
C1037 C1036 1.404 . S
C1037 H1049 0.930 . S
C1038 C1034 1.524 . S
C1038 H1050 0.956 . S
C1038 H1051 0.961 . S
C1038 H1052 0.961 . S
C1039 C1036 1.539 . S
C1039 H1053 0.958 . S
C1039 H1054 0.961 . S
C1039 H1055 0.960 . S
H1040 C1024 0.931 . S
H1041 C1029 0.929 . S
H1042 C1030 0.960 . S
H1043 C1030 0.962 . S
H1044 C1030 0.960 . S
H1045 C1031 0.961 . S
H1046 C1031 0.961 . S
H1047 C1031 0.961 . S
H1048 C1032 0.931 . S
H1049 C1037 0.930 . S
H1050 C1038 0.956 . S
H1051 C1038 0.961 . S
H1052 C1038 0.961 . S
H1053 C1039 0.958 . S
H1054 C1039 0.961 . S
H1055 C1039 0.960 . S
C1056 C1057 1.391 . S
C1056 C1058 1.394 . S
C1056 H1072 0.931 . S
C1057 C1056 1.391 . S
C1057 C1061 1.376 . S
C1058 C1056 1.394 . S
C1058 C1059 1.369 . S
C1058 C1062 1.531 . S
C1059 C1058 1.369 . S
C1059 C1060 1.410 . S
C1059 C1067 1.503 . S
C1060 C1059 1.410 . S
C1060 C1061 1.392 . S
C1060 C1063 1.511 . S
C1061 C1057 1.376 . S
C1061 C1060 1.392 . S
C1061 H1073 0.929 . S
C1062 C1058 1.531 . S
C1062 H1074 0.960 . S
C1062 H1075 0.962 . S
C1062 H1076 0.960 . S
C1063 C1060 1.511 . S
C1063 H1077 0.961 . S
C1063 H1078 0.961 . S
C1063 H1079 0.961 . S
C1064 C1065 1.370 . S
C1064 C1066 1.363 . S
C1064 H1080 0.931 . S
C1065 C1064 1.370 . S
C1065 C1069 1.408 . S
C1066 C1064 1.363 . S
C1066 C1067 1.370 . S
C1066 C1070 1.524 . S
C1067 C1059 1.503 . S
C1067 C1066 1.370 . S
C1067 C1068 1.403 . S
C1068 C1067 1.403 . S
C1068 C1069 1.404 . S
C1068 C1071 1.539 . S
C1069 C1065 1.408 . S
C1069 C1068 1.404 . S
C1069 H1081 0.930 . S
C1070 C1066 1.524 . S
C1070 H1082 0.956 . S
C1070 H1083 0.961 . S
C1070 H1084 0.961 . S
C1071 C1068 1.539 . S
C1071 H1085 0.958 . S
C1071 H1086 0.961 . S
C1071 H1087 0.960 . S
H1072 C1056 0.931 . S
H1073 C1061 0.929 . S
H1074 C1062 0.960 . S
H1075 C1062 0.962 . S
H1076 C1062 0.960 . S
H1077 C1063 0.961 . S
H1078 C1063 0.961 . S
H1079 C1063 0.961 . S
H1080 C1064 0.931 . S
H1081 C1069 0.930 . S
H1082 C1070 0.956 . S
H1083 C1070 0.961 . S
H1084 C1070 0.961 . S
H1085 C1071 0.958 . S
H1086 C1071 0.961 . S
H1087 C1071 0.960 . S
C1088 C1089 1.391 . S
C1088 C1090 1.394 . S
C1088 H1104 0.931 . S
C1089 C1088 1.391 . S
C1089 C1093 1.376 . S
C1090 C1088 1.394 . S
C1090 C1091 1.369 . S
C1090 C1094 1.531 . S
C1091 C1090 1.369 . S
C1091 C1092 1.410 . S
C1091 C1099 1.503 . S
C1092 C1091 1.410 . S
C1092 C1093 1.392 . S
C1092 C1095 1.511 . S
C1093 C1089 1.376 . S
C1093 C1092 1.392 . S
C1093 H1105 0.929 . S
C1094 C1090 1.531 . S
C1094 H1106 0.960 . S
C1094 H1107 0.962 . S
C1094 H1108 0.960 . S
C1095 C1092 1.511 . S
C1095 H1109 0.961 . S
C1095 H1110 0.961 . S
C1095 H1111 0.961 . S
C1096 C1097 1.370 . S
C1096 C1098 1.363 . S
C1096 H1112 0.931 . S
C1097 C1096 1.370 . S
C1097 C1101 1.408 . S
C1098 C1096 1.363 . S
C1098 C1099 1.370 . S
C1098 C1102 1.524 . S
C1099 C1091 1.503 . S
C1099 C1098 1.370 . S
C1099 C1100 1.403 . S
C1100 C1099 1.403 . S
C1100 C1101 1.404 . S
C1100 C1103 1.539 . S
C1101 C1097 1.408 . S
C1101 C1100 1.404 . S
C1101 H1113 0.930 . S
C1102 C1098 1.524 . S
C1102 H1114 0.956 . S
C1102 H1115 0.961 . S
C1102 H1116 0.961 . S
C1103 C1100 1.539 . S
C1103 H1117 0.958 . S
C1103 H1118 0.961 . S
C1103 H1119 0.960 . S
H1104 C1088 0.931 . S
H1105 C1093 0.929 . S
H1106 C1094 0.960 . S
H1107 C1094 0.962 . S
H1108 C1094 0.960 . S
H1109 C1095 0.961 . S
H1110 C1095 0.961 . S
H1111 C1095 0.961 . S
H1112 C1096 0.931 . S
H1113 C1101 0.930 . S
H1114 C1102 0.956 . S
H1115 C1102 0.961 . S
H1116 C1102 0.961 . S
H1117 C1103 0.958 . S
H1118 C1103 0.961 . S
H1119 C1103 0.960 . S
C1120 C1121 1.391 . S
C1120 C1122 1.394 . S
C1120 H1136 0.931 . S
C1121 C1120 1.391 . S
C1121 C1125 1.376 . S
C1122 C1120 1.394 . S
C1122 C1123 1.369 . S
C1122 C1126 1.531 . S
C1123 C1122 1.369 . S
C1123 C1124 1.410 . S
C1123 C1131 1.503 . S
C1124 C1123 1.410 . S
C1124 C1125 1.392 . S
C1124 C1127 1.511 . S
C1125 C1121 1.376 . S
C1125 C1124 1.392 . S
C1125 H1137 0.929 . S
C1126 C1122 1.531 . S
C1126 H1138 0.960 . S
C1126 H1139 0.962 . S
C1126 H1140 0.960 . S
C1127 C1124 1.511 . S
C1127 H1141 0.961 . S
C1127 H1142 0.961 . S
C1127 H1143 0.961 . S
C1128 C1129 1.370 . S
C1128 C1130 1.363 . S
C1128 H1144 0.931 . S
C1129 C1128 1.370 . S
C1129 C1133 1.408 . S
C1130 C1128 1.363 . S
C1130 C1131 1.370 . S
C1130 C1134 1.524 . S
C1131 C1123 1.503 . S
C1131 C1130 1.370 . S
C1131 C1132 1.403 . S
C1132 C1131 1.403 . S
C1132 C1133 1.404 . S
C1132 C1135 1.539 . S
C1133 C1129 1.408 . S
C1133 C1132 1.404 . S
C1133 H1145 0.930 . S
C1134 C1130 1.524 . S
C1134 H1146 0.956 . S
C1134 H1147 0.961 . S
C1134 H1148 0.961 . S
C1135 C1132 1.539 . S
C1135 H1149 0.958 . S
C1135 H1150 0.961 . S
C1135 H1151 0.960 . S
H1136 C1120 0.931 . S
H1137 C1125 0.929 . S
H1138 C1126 0.960 . S
H1139 C1126 0.962 . S
H1140 C1126 0.960 . S
H1141 C1127 0.961 . S
H1142 C1127 0.961 . S
H1143 C1127 0.961 . S
H1144 C1128 0.931 . S
H1145 C1133 0.930 . S
H1146 C1134 0.956 . S
H1147 C1134 0.961 . S
H1148 C1134 0.961 . S
H1149 C1135 0.958 . S
H1150 C1135 0.961 . S
H1151 C1135 0.960 . S
C1152 C1153 1.391 . S
C1152 C1154 1.394 . S
C1152 H1168 0.931 . S
C1153 C1152 1.391 . S
C1153 C1157 1.376 . S
C1154 C1152 1.394 . S
C1154 C1155 1.369 . S
C1154 C1158 1.531 . S
C1155 C1154 1.369 . S
C1155 C1156 1.410 . S
C1155 C1163 1.503 1_556 S
C1156 C1155 1.410 . S
C1156 C1157 1.392 . S
C1156 C1159 1.511 . S
C1157 C1153 1.376 . S
C1157 C1156 1.392 . S
C1157 H1169 0.929 . S
C1158 C1154 1.531 . S
C1158 H1170 0.960 1_556 S
C1158 H1171 0.962 . S
C1158 H1172 0.960 . S
C1159 C1156 1.511 . S
C1159 H1173 0.961 . S
C1159 H1174 0.961 1_556 S
C1159 H1175 0.961 . S
C1160 C1161 1.370 . S
C1160 C1162 1.363 . S
C1160 H1176 0.931 . S
C1161 C1160 1.370 . S
C1161 C1165 1.408 . S
C1162 C1160 1.363 . S
C1162 C1163 1.370 . S
C1162 C1166 1.524 . S
C1163 C1155 1.503 1_554 S
C1163 C1162 1.370 . S
C1163 C1164 1.403 . S
C1164 C1163 1.403 . S
C1164 C1165 1.404 . S
C1164 C1167 1.539 1_545 S
C1165 C1161 1.408 . S
C1165 C1164 1.404 . S
C1165 H1177 0.930 . S
C1166 C1162 1.524 . S
C1166 H1178 0.984 . S
C1166 H1179 0.961 1_554 S
C1166 H1180 0.961 . S
C1167 C1164 1.539 1_565 S
C1167 H1181 0.958 . S
C1167 H1182 0.961 . S
C1167 H1183 0.970 . S
H1168 C1152 0.931 . S
H1169 C1157 0.929 . S
H1170 C1158 0.960 1_554 S
H1171 C1158 0.962 . S
H1172 C1158 0.960 . S
H1173 C1159 0.961 . S
H1174 C1159 0.961 1_554 S
H1175 C1159 0.961 . S
H1176 C1160 0.931 . S
H1177 C1165 0.930 . S
H1178 C1166 0.984 . S
H1179 C1166 0.961 1_556 S
H1180 C1166 0.961 . S
H1181 C1167 0.958 . S
H1182 C1167 0.961 . S
H1183 C1167 0.970 . S
C1184 C1185 1.391 . S
C1184 C1186 1.394 . S
C1184 H1200 0.931 . S
C1185 C1184 1.391 . S
C1185 C1189 1.376 . S
C1186 C1184 1.394 . S
C1186 C1187 1.369 . S
C1186 C1190 1.531 . S
C1187 C1186 1.369 . S
C1187 C1188 1.410 . S
C1187 C1195 1.503 1_556 S
C1188 C1187 1.410 . S
C1188 C1189 1.392 . S
C1188 C1191 1.511 . S
C1189 C1185 1.376 . S
C1189 C1188 1.392 . S
C1189 H1201 0.929 . S
C1190 C1186 1.531 . S
C1190 H1202 0.960 1_556 S
C1190 H1203 0.962 . S
C1190 H1204 0.960 1_565 S
C1191 C1188 1.511 . S
C1191 H1205 0.961 . S
C1191 H1206 0.961 1_556 S
C1191 H1207 0.961 . S
C1192 C1193 1.370 . S
C1192 C1194 1.363 . S
C1192 H1208 0.931 . S
C1193 C1192 1.370 . S
C1193 C1197 1.408 . S
C1194 C1192 1.363 . S
C1194 C1195 1.370 . S
C1194 C1198 1.524 . S
C1195 C1187 1.503 1_554 S
C1195 C1194 1.370 . S
C1195 C1196 1.403 . S
C1196 C1195 1.403 . S
C1196 C1197 1.404 . S
C1196 C1199 1.539 1_565 S
C1197 C1193 1.408 . S
C1197 C1196 1.404 . S
C1197 H1209 0.930 . S
C1198 C1194 1.524 . S
C1198 H1210 0.984 . S
C1198 H1211 0.961 1_554 S
C1198 H1212 0.961 . S
C1199 C1196 1.539 1_545 S
C1199 H1213 0.958 . S
C1199 H1214 0.961 . S
C1199 H1215 0.970 1_545 S
H1200 C1184 0.931 . S
H1201 C1189 0.929 . S
H1202 C1190 0.960 1_554 S
H1203 C1190 0.962 . S
H1204 C1190 0.960 1_545 S
H1205 C1191 0.961 . S
H1206 C1191 0.961 1_554 S
H1207 C1191 0.961 . S
H1208 C1192 0.931 . S
H1209 C1197 0.930 . S
H1210 C1198 0.984 . S
H1211 C1198 0.961 1_556 S
H1212 C1198 0.961 . S
H1213 C1199 0.958 . S
H1214 C1199 0.961 . S
H1215 C1199 0.970 1_565 S
C1216 C1217 1.391 . S
C1216 C1218 1.394 . S
C1216 H1232 0.931 . S
C1217 C1216 1.391 . S
C1217 C1221 1.376 . S
C1218 C1216 1.394 . S
C1218 C1219 1.369 . S
C1218 C1222 1.531 . S
C1219 C1218 1.369 . S
C1219 C1220 1.410 . S
C1219 C1227 1.503 . S
C1220 C1219 1.410 . S
C1220 C1221 1.392 . S
C1220 C1223 1.511 1_565 S
C1221 C1217 1.376 . S
C1221 C1220 1.392 . S
C1221 H1233 0.929 . S
C1222 C1218 1.531 . S
C1222 H1234 0.960 . S
C1222 H1235 0.962 . S
C1222 H1236 0.960 . S
C1223 C1220 1.511 1_545 S
C1223 H1237 0.961 . S
C1223 H1238 0.961 . S
C1223 H1239 0.961 . S
C1224 C1225 1.370 . S
C1224 C1226 1.363 . S
C1224 H1240 0.931 . S
C1225 C1224 1.370 . S
C1225 C1229 1.408 . S
C1226 C1224 1.363 . S
C1226 C1227 1.370 . S
C1226 C1230 1.524 . S
C1227 C1219 1.503 . S
C1227 C1226 1.370 . S
C1227 C1228 1.403 . S
C1228 C1227 1.403 . S
C1228 C1229 1.404 . S
C1228 C1231 1.539 . S
C1229 C1225 1.408 . S
C1229 C1228 1.404 . S
C1229 H1241 0.930 . S
C1230 C1226 1.524 . S
C1230 H1242 0.956 . S
C1230 H1243 0.961 . S
C1230 H1244 0.961 . S
C1231 C1228 1.539 . S
C1231 H1245 0.958 . S
C1231 H1246 0.961 . S
C1231 H1247 0.960 . S
H1232 C1216 0.931 . S
H1233 C1221 0.929 . S
H1234 C1222 0.960 . S
H1235 C1222 0.962 . S
H1236 C1222 0.960 . S
H1237 C1223 0.961 . S
H1238 C1223 0.961 . S
H1239 C1223 0.961 . S
H1240 C1224 0.931 . S
H1241 C1229 0.930 . S
H1242 C1230 0.956 . S
H1243 C1230 0.961 . S
H1244 C1230 0.961 . S
H1245 C1231 0.958 . S
H1246 C1231 0.961 . S
H1247 C1231 0.960 . S
C1248 C1249 1.391 . S
C1248 C1250 1.394 . S
C1248 H1264 0.931 . S
C1249 C1248 1.391 . S
C1249 C1253 1.376 . S
C1250 C1248 1.394 . S
C1250 C1251 1.369 . S
C1250 C1254 1.531 . S
C1251 C1250 1.369 . S
C1251 C1252 1.410 . S
C1251 C1259 1.503 . S
C1252 C1251 1.410 . S
C1252 C1253 1.392 . S
C1252 C1255 1.511 1_545 S
C1253 C1249 1.376 . S
C1253 C1252 1.392 . S
C1253 H1265 0.929 . S
C1254 C1250 1.531 . S
C1254 H1266 0.960 . S
C1254 H1267 0.962 . S
C1254 H1268 0.960 . S
C1255 C1252 1.511 1_565 S
C1255 H1269 0.961 . S
C1255 H1270 0.961 . S
C1255 H1271 0.961 . S
C1256 C1257 1.370 . S
C1256 C1258 1.363 . S
C1256 H1272 0.931 . S
C1257 C1256 1.370 . S
C1257 C1261 1.408 . S
C1258 C1256 1.363 . S
C1258 C1259 1.370 . S
C1258 C1262 1.524 . S
C1259 C1251 1.503 . S
C1259 C1258 1.370 . S
C1259 C1260 1.403 . S
C1260 C1259 1.403 . S
C1260 C1261 1.404 . S
C1260 C1263 1.539 . S
C1261 C1257 1.408 . S
C1261 C1260 1.404 . S
C1261 H1273 0.930 . S
C1262 C1258 1.524 . S
C1262 H1274 0.956 . S
C1262 H1275 0.961 . S
C1262 H1276 0.961 . S
C1263 C1260 1.539 . S
C1263 H1277 0.958 . S
C1263 H1278 0.961 . S
C1263 H1279 0.960 . S
H1264 C1248 0.931 . S
H1265 C1253 0.929 . S
H1266 C1254 0.960 . S
H1267 C1254 0.962 . S
H1268 C1254 0.960 . S
H1269 C1255 0.961 . S
H1270 C1255 0.961 . S
H1271 C1255 0.961 . S
H1272 C1256 0.931 . S
H1273 C1261 0.930 . S
H1274 C1262 0.956 . S
H1275 C1262 0.961 . S
H1276 C1262 0.961 . S
H1277 C1263 0.958 . S
H1278 C1263 0.961 . S
H1279 C1263 0.960 . S
C1280 C1281 1.391 . S
C1280 C1282 1.394 . S
C1280 H1296 0.931 . S
C1281 C1280 1.391 . S
C1281 C1285 1.376 . S
C1282 C1280 1.394 . S
C1282 C1283 1.369 . S
C1282 C1286 1.531 . S
C1283 C1282 1.369 . S
C1283 C1284 1.410 . S
C1283 C1291 1.503 1_554 S
C1284 C1283 1.410 . S
C1284 C1285 1.392 . S
C1284 C1287 1.511 . S
C1285 C1281 1.376 . S
C1285 C1284 1.392 . S
C1285 H1297 0.929 . S
C1286 C1282 1.531 . S
C1286 H1298 0.960 1_554 S
C1286 H1299 0.962 . S
C1286 H1300 0.960 . S
C1287 C1284 1.511 . S
C1287 H1301 0.961 . S
C1287 H1302 0.961 1_554 S
C1287 H1303 0.961 . S
C1288 C1289 1.370 . S
C1288 C1290 1.363 . S
C1288 H1304 0.931 . S
C1289 C1288 1.370 . S
C1289 C1293 1.408 . S
C1290 C1288 1.363 . S
C1290 C1291 1.370 . S
C1290 C1294 1.524 . S
C1291 C1283 1.503 1_556 S
C1291 C1290 1.370 . S
C1291 C1292 1.403 . S
C1292 C1291 1.403 . S
C1292 C1293 1.404 . S
C1292 C1295 1.539 . S
C1293 C1289 1.408 . S
C1293 C1292 1.404 . S
C1293 H1305 0.930 . S
C1294 C1290 1.524 . S
C1294 H1306 0.984 . S
C1294 H1307 0.961 1_556 S
C1294 H1308 0.961 . S
C1295 C1292 1.539 . S
C1295 H1309 0.958 . S
C1295 H1310 0.961 . S
C1295 H1311 0.970 . S
H1296 C1280 0.931 . S
H1297 C1285 0.929 . S
H1298 C1286 0.960 1_556 S
H1299 C1286 0.962 . S
H1300 C1286 0.960 . S
H1301 C1287 0.961 . S
H1302 C1287 0.961 1_556 S
H1303 C1287 0.961 . S
H1304 C1288 0.931 . S
H1305 C1293 0.930 . S
H1306 C1294 0.984 . S
H1307 C1294 0.961 1_554 S
H1308 C1294 0.961 . S
H1309 C1295 0.958 . S
H1310 C1295 0.961 . S
H1311 C1295 0.970 . S
C1312 C1313 1.391 . S
C1312 C1314 1.394 . S
C1312 H1328 0.931 . S
C1313 C1312 1.391 . S
C1313 C1317 1.376 . S
C1314 C1312 1.394 . S
C1314 C1315 1.369 . S
C1314 C1318 1.531 . S
C1315 C1314 1.369 . S
C1315 C1316 1.410 . S
C1315 C1323 1.503 1_556 S
C1316 C1315 1.410 . S
C1316 C1317 1.392 . S
C1316 C1319 1.511 . S
C1317 C1313 1.376 . S
C1317 C1316 1.392 . S
C1317 H1329 0.929 . S
C1318 C1314 1.531 . S
C1318 H1330 0.960 1_556 S
C1318 H1331 0.962 . S
C1318 H1332 0.960 . S
C1319 C1316 1.511 . S
C1319 H1333 0.961 . S
C1319 H1334 0.961 1_556 S
C1319 H1335 0.961 . S
C1320 C1321 1.370 . S
C1320 C1322 1.363 . S
C1320 H1336 0.931 . S
C1321 C1320 1.370 . S
C1321 C1325 1.408 . S
C1322 C1320 1.363 . S
C1322 C1323 1.370 . S
C1322 C1326 1.524 . S
C1323 C1315 1.503 1_554 S
C1323 C1322 1.370 . S
C1323 C1324 1.403 . S
C1324 C1323 1.403 . S
C1324 C1325 1.404 . S
C1324 C1327 1.539 . S
C1325 C1321 1.408 . S
C1325 C1324 1.404 . S
C1325 H1337 0.930 . S
C1326 C1322 1.524 . S
C1326 H1338 0.984 . S
C1326 H1339 0.961 1_554 S
C1326 H1340 0.961 . S
C1327 C1324 1.539 . S
C1327 H1341 0.958 . S
C1327 H1342 0.961 . S
C1327 H1343 0.970 . S
H1328 C1312 0.931 . S
H1329 C1317 0.929 . S
H1330 C1318 0.960 1_554 S
H1331 C1318 0.962 . S
H1332 C1318 0.960 . S
H1333 C1319 0.961 . S
H1334 C1319 0.961 1_554 S
H1335 C1319 0.961 . S
H1336 C1320 0.931 . S
H1337 C1325 0.930 . S
H1338 C1326 0.984 . S
H1339 C1326 0.961 1_556 S
H1340 C1326 0.961 . S
H1341 C1327 0.958 . S
H1342 C1327 0.961 . S
H1343 C1327 0.970 . S
C1344 C1345 1.391 . S
C1344 C1346 1.394 . S
C1344 H1360 0.931 . S
C1345 C1344 1.391 . S
C1345 C1349 1.376 . S
C1346 C1344 1.394 . S
C1346 C1347 1.369 . S
C1346 C1350 1.531 . S
C1347 C1346 1.369 . S
C1347 C1348 1.410 . S
C1347 C1355 1.503 . S
C1348 C1347 1.410 . S
C1348 C1349 1.392 . S
C1348 C1351 1.511 . S
C1349 C1345 1.376 . S
C1349 C1348 1.392 . S
C1349 H1361 0.929 . S
C1350 C1346 1.531 . S
C1350 H1362 0.960 . S
C1350 H1363 0.962 . S
C1350 H1364 0.960 . S
C1351 C1348 1.511 . S
C1351 H1365 0.961 . S
C1351 H1366 0.961 . S
C1351 H1367 0.961 . S
C1352 C1353 1.370 . S
C1352 C1354 1.363 . S
C1352 H1368 0.931 . S
C1353 C1352 1.370 . S
C1353 C1357 1.408 . S
C1354 C1352 1.363 . S
C1354 C1355 1.370 . S
C1354 C1358 1.524 . S
C1355 C1347 1.503 . S
C1355 C1354 1.370 . S
C1355 C1356 1.403 . S
C1356 C1355 1.403 . S
C1356 C1357 1.404 . S
C1356 C1359 1.539 . S
C1357 C1353 1.408 . S
C1357 C1356 1.404 . S
C1357 H1369 0.930 . S
C1358 C1354 1.524 . S
C1358 H1370 0.956 . S
C1358 H1371 0.961 . S
C1358 H1372 0.961 . S
C1359 C1356 1.539 . S
C1359 H1373 0.958 . S
C1359 H1374 0.961 . S
C1359 H1375 0.960 . S
H1360 C1344 0.931 . S
H1361 C1349 0.929 . S
H1362 C1350 0.960 . S
H1363 C1350 0.962 . S
H1364 C1350 0.960 . S
H1365 C1351 0.961 . S
H1366 C1351 0.961 . S
H1367 C1351 0.961 . S
H1368 C1352 0.931 . S
H1369 C1357 0.930 . S
H1370 C1358 0.956 . S
H1371 C1358 0.961 . S
H1372 C1358 0.961 . S
H1373 C1359 0.958 . S
H1374 C1359 0.961 . S
H1375 C1359 0.960 . S
C1376 C1377 1.391 . S
C1376 C1378 1.394 . S
C1376 H1392 0.931 . S
C1377 C1376 1.391 . S
C1377 C1381 1.376 . S
C1378 C1376 1.394 . S
C1378 C1379 1.369 . S
C1378 C1382 1.531 . S
C1379 C1378 1.369 . S
C1379 C1380 1.410 . S
C1379 C1387 1.503 . S
C1380 C1379 1.410 . S
C1380 C1381 1.392 . S
C1380 C1383 1.511 . S
C1381 C1377 1.376 . S
C1381 C1380 1.392 . S
C1381 H1393 0.929 . S
C1382 C1378 1.531 . S
C1382 H1394 0.960 . S
C1382 H1395 0.962 . S
C1382 H1396 0.960 . S
C1383 C1380 1.511 . S
C1383 H1397 0.961 . S
C1383 H1398 0.961 . S
C1383 H1399 0.961 . S
C1384 C1385 1.370 . S
C1384 C1386 1.363 . S
C1384 H1400 0.931 . S
C1385 C1384 1.370 . S
C1385 C1389 1.408 . S
C1386 C1384 1.363 . S
C1386 C1387 1.370 . S
C1386 C1390 1.524 . S
C1387 C1379 1.503 . S
C1387 C1386 1.370 . S
C1387 C1388 1.403 . S
C1388 C1387 1.403 . S
C1388 C1389 1.404 . S
C1388 C1391 1.539 . S
C1389 C1385 1.408 . S
C1389 C1388 1.404 . S
C1389 H1401 0.930 . S
C1390 C1386 1.524 . S
C1390 H1402 0.956 . S
C1390 H1403 0.961 . S
C1390 H1404 0.961 . S
C1391 C1388 1.539 . S
C1391 H1405 0.958 . S
C1391 H1406 0.961 . S
C1391 H1407 0.960 . S
H1392 C1376 0.931 . S
H1393 C1381 0.929 . S
H1394 C1382 0.960 . S
H1395 C1382 0.962 . S
H1396 C1382 0.960 . S
H1397 C1383 0.961 . S
H1398 C1383 0.961 . S
H1399 C1383 0.961 . S
H1400 C1384 0.931 . S
H1401 C1389 0.930 . S
H1402 C1390 0.956 . S
H1403 C1390 0.961 . S
H1404 C1390 0.961 . S
H1405 C1391 0.958 . S
H1406 C1391 0.961 . S
H1407 C1391 0.960 . S
C1408 C1409 1.391 . S
C1408 C1410 1.394 . S
C1408 H1424 0.931 . S
C1409 C1408 1.391 . S
C1409 C1413 1.376 1_545 S
C1410 C1408 1.394 . S
C1410 C1411 1.369 . S
C1410 C1414 1.531 1_655 S
C1411 C1410 1.369 . S
C1411 C1412 1.410 1_545 S
C1411 C1419 1.503 1_645 S
C1412 C1411 1.410 1_565 S
C1412 C1413 1.392 . S
C1412 C1415 1.511 . S
C1413 C1409 1.376 1_565 S
C1413 C1412 1.392 . S
C1413 H1425 0.929 . S
C1414 C1410 1.531 1_455 S
C1414 H1426 0.960 . S
C1414 H1427 0.962 . S
C1414 H1428 0.960 . S
C1415 C1412 1.511 . S
C1415 H1429 0.961 . S
C1415 H1430 0.961 . S
C1415 H1431 0.961 . S
C1416 C1417 1.370 . S
C1416 C1418 1.363 . S
C1416 H1432 0.931 . S
C1417 C1416 1.370 . S
C1417 C1421 1.408 . S
C1418 C1416 1.363 . S
C1418 C1419 1.370 . S
C1418 C1422 1.524 . S
C1419 C1411 1.503 1_465 S
C1419 C1418 1.370 . S
C1419 C1420 1.403 . S
C1420 C1419 1.403 . S
C1420 C1421 1.404 . S
C1420 C1423 1.539 . S
C1421 C1417 1.408 . S
C1421 C1420 1.404 . S
C1421 H1433 0.930 . S
C1422 C1418 1.524 . S
C1422 H1434 0.956 1_565 S
C1422 H1435 0.961 1_455 S
C1422 H1436 0.961 . S
C1423 C1420 1.539 . S
C1423 H1437 0.958 1_565 S
C1423 H1438 0.961 . S
C1423 H1439 0.910 1_455 S
H1424 C1408 0.931 . S
H1425 C1413 0.929 . S
H1426 C1414 0.960 . S
H1427 C1414 0.962 . S
H1428 C1414 0.960 . S
H1429 C1415 0.961 . S
H1430 C1415 0.961 . S
H1431 C1415 0.961 . S
H1432 C1416 0.931 . S
H1433 C1421 0.930 . S
H1434 C1422 0.956 1_545 S
H1435 C1422 0.961 1_655 S
H1436 C1422 0.961 . S
H1437 C1423 0.958 1_545 S
H1438 C1423 0.961 . S
H1439 C1423 0.910 1_655 S
C1440 C1441 1.391 . S
C1440 C1442 1.394 . S
C1440 H1456 0.931 . S
C1441 C1440 1.391 . S
C1441 C1445 1.377 1_565 S
C1442 C1440 1.394 . S
C1442 C1443 1.369 . S
C1442 C1446 1.508 1_655 S
C1443 C1442 1.369 . S
C1443 C1444 1.410 1_565 S
C1443 C1451 1.503 1_665 S
C1444 C1443 1.410 1_545 S
C1444 C1445 1.392 . S
C1444 C1447 1.511 . S
C1445 C1441 1.377 1_545 S
C1445 C1444 1.392 . S
C1445 H1457 0.928 . S
C1446 C1442 1.508 1_455 S
C1446 H1458 0.981 . S
C1446 H1459 0.977 . S
C1446 H1460 0.948 1_455 S
C1447 C1444 1.511 . S
C1447 H1461 0.961 . S
C1447 H1462 0.961 . S
C1447 H1463 0.961 . S
C1448 C1449 1.370 . S
C1448 C1450 1.363 1_545 S
C1448 H1464 0.931 . S
C1449 C1448 1.370 . S
C1449 C1453 1.408 . S
C1450 C1448 1.363 1_565 S
C1450 C1451 1.370 1_565 S
C1450 C1454 1.524 . S
C1451 C1443 1.503 1_445 S
C1451 C1450 1.370 1_545 S
C1451 C1452 1.403 . S
C1452 C1451 1.403 . S
C1452 C1453 1.404 . S
C1452 C1455 1.539 . S
C1453 C1449 1.408 . S
C1453 C1452 1.404 . S
C1453 H1465 0.930 . S
C1454 C1450 1.524 . S
C1454 H1466 0.956 . S
C1454 H1467 0.961 . S
C1454 H1468 0.961 . S
C1455 C1452 1.539 . S
C1455 H1469 0.958 . S
C1455 H1470 0.961 . S
C1455 H1471 0.960 1_455 S
H1456 C1440 0.931 . S
H1457 C1445 0.928 . S
H1458 C1446 0.981 . S
H1459 C1446 0.977 . S
H1460 C1446 0.948 1_655 S
H1461 C1447 0.961 . S
H1462 C1447 0.961 . S
H1463 C1447 0.961 . S
H1464 C1448 0.931 . S
H1465 C1453 0.930 . S
H1466 C1454 0.956 . S
H1467 C1454 0.961 . S
H1468 C1454 0.961 . S
H1469 C1455 0.958 . S
H1470 C1455 0.961 . S
H1471 C1455 0.960 1_655 S
C1472 C1473 1.391 . S
C1472 C1474 1.394 . S
C1472 H1488 0.931 . S
C1473 C1472 1.391 . S
C1473 C1477 1.376 . S
C1474 C1472 1.394 . S
C1474 C1475 1.369 . S
C1474 C1478 1.531 1_455 S
C1475 C1474 1.369 . S
C1475 C1476 1.410 1_565 S
C1475 C1483 1.503 1_465 S
C1476 C1475 1.410 1_545 S
C1476 C1477 1.392 1_545 S
C1476 C1479 1.511 . S
C1477 C1473 1.376 . S
C1477 C1476 1.392 1_565 S
C1477 H1489 0.929 1_565 S
C1478 C1474 1.531 1_655 S
C1478 H1490 0.960 . S
C1478 H1491 0.962 . S
C1478 H1492 0.960 . S
C1479 C1476 1.511 . S
C1479 H1493 0.961 . S
C1479 H1494 0.961 . S
C1479 H1495 0.961 . S
C1480 C1481 1.370 . S
C1480 C1482 1.363 . S
C1480 H1496 0.931 . S
C1481 C1480 1.370 . S
C1481 C1485 1.408 . S
C1482 C1480 1.363 . S
C1482 C1483 1.370 . S
C1482 C1486 1.524 . S
C1483 C1475 1.503 1_645 S
C1483 C1482 1.370 . S
C1483 C1484 1.403 . S
C1484 C1483 1.403 . S
C1484 C1485 1.404 . S
C1484 C1487 1.539 1_545 S
C1485 C1481 1.408 . S
C1485 C1484 1.404 . S
C1485 H1497 0.930 . S
C1486 C1482 1.524 . S
C1486 H1498 0.958 . S
C1486 H1499 0.961 1_655 S
C1486 H1500 0.961 . S
C1487 C1484 1.539 1_565 S
C1487 H1501 0.958 . S
C1487 H1502 0.961 . S
C1487 H1503 0.960 . S
H1488 C1472 0.931 . S
H1489 C1477 0.929 1_545 S
H1490 C1478 0.960 . S
H1491 C1478 0.962 . S
H1492 C1478 0.960 . S
H1493 C1479 0.961 . S
H1494 C1479 0.961 . S
H1495 C1479 0.961 . S
H1496 C1480 0.931 . S
H1497 C1485 0.930 . S
H1498 C1486 0.958 . S
H1499 C1486 0.961 1_455 S
H1500 C1486 0.961 . S
H1501 C1487 0.958 . S
H1502 C1487 0.961 . S
H1503 C1487 0.960 . S
C1504 C1505 1.391 . S
C1504 C1506 1.394 . S
C1504 H1520 0.931 . S
C1505 C1504 1.391 . S
C1505 C1509 1.376 1_565 S
C1506 C1504 1.394 . S
C1506 C1507 1.369 . S
C1506 C1510 1.479 1_655 S
C1507 C1506 1.369 . S
C1507 C1508 1.410 1_565 S
C1507 C1515 1.503 1_665 S
C1508 C1507 1.410 1_545 S
C1508 C1509 1.392 . S
C1508 C1511 1.511 . S
C1509 C1505 1.376 1_545 S
C1509 C1508 1.392 . S
C1509 H1521 0.929 . S
C1510 C1506 1.479 1_455 S
C1510 H1522 1.009 . S
C1510 H1523 0.997 . S
C1510 H1524 0.934 1_455 S
C1511 C1508 1.511 . S
C1511 H1525 0.961 . S
C1511 H1526 0.961 . S
C1511 H1527 0.961 . S
C1512 C1513 1.370 . S
C1512 C1514 1.363 . S
C1512 H1528 0.931 . S
C1513 C1512 1.370 . S
C1513 C1517 1.408 . S
C1514 C1512 1.363 . S
C1514 C1515 1.370 . S
C1514 C1518 1.524 1_545 S
C1515 C1507 1.503 1_445 S
C1515 C1514 1.370 . S
C1515 C1516 1.403 . S
C1516 C1515 1.403 . S
C1516 C1517 1.404 . S
C1516 C1519 1.539 . S
C1517 C1513 1.408 . S
C1517 C1516 1.404 . S
C1517 H1529 0.930 . S
C1518 C1514 1.524 1_565 S
C1518 H1530 0.956 . S
C1518 H1531 1.037 . S
C1518 H1532 0.961 . S
C1519 C1516 1.539 . S
C1519 H1533 0.958 . S
C1519 H1534 0.961 . S
C1519 H1535 0.960 1_455 S
H1520 C1504 0.931 . S
H1521 C1509 0.929 . S
H1522 C1510 1.009 . S
H1523 C1510 0.997 . S
H1524 C1510 0.934 1_655 S
H1525 C1511 0.961 . S
H1526 C1511 0.961 . S
H1527 C1511 0.961 . S
H1528 C1512 0.931 . S
H1529 C1517 0.930 . S
H1530 C1518 0.956 . S
H1531 C1518 1.037 . S
H1532 C1518 0.961 . S
H1533 C1519 0.958 . S
H1534 C1519 0.961 . S
H1535 C1519 0.960 1_655 S
C1536 C1537 1.391 . S
C1536 C1538 1.394 . S
C1536 H1552 0.931 . S
C1537 C1536 1.391 . S
C1537 C1541 1.376 . S
C1538 C1536 1.394 . S
C1538 C1539 1.369 . S
C1538 C1542 1.531 . S
C1539 C1538 1.369 . S
C1539 C1540 1.410 . S
C1539 C1547 1.503 . S
C1540 C1539 1.410 . S
C1540 C1541 1.392 . S
C1540 C1543 1.511 . S
C1541 C1537 1.376 . S
C1541 C1540 1.392 . S
C1541 H1553 0.929 . S
C1542 C1538 1.531 . S
C1542 H1554 0.960 . S
C1542 H1555 0.962 . S
C1542 H1556 0.960 . S
C1543 C1540 1.511 . S
C1543 H1557 0.961 . S
C1543 H1558 0.961 . S
C1543 H1559 0.961 . S
C1544 C1545 1.370 . S
C1544 C1546 1.363 . S
C1544 H1560 0.931 . S
C1545 C1544 1.370 . S
C1545 C1549 1.408 . S
C1546 C1544 1.363 . S
C1546 C1547 1.370 . S
C1546 C1550 1.524 . S
C1547 C1539 1.503 . S
C1547 C1546 1.370 . S
C1547 C1548 1.403 . S
C1548 C1547 1.403 . S
C1548 C1549 1.404 . S
C1548 C1551 1.539 . S
C1549 C1545 1.408 . S
C1549 C1548 1.404 . S
C1549 H1561 0.930 . S
C1550 C1546 1.524 . S
C1550 H1562 0.956 . S
C1550 H1563 0.961 . S
C1550 H1564 0.961 . S
C1551 C1548 1.539 . S
C1551 H1565 0.958 . S
C1551 H1566 0.961 . S
C1551 H1567 0.960 . S
H1552 C1536 0.931 . S
H1553 C1541 0.929 . S
H1554 C1542 0.960 . S
H1555 C1542 0.962 . S
H1556 C1542 0.960 . S
H1557 C1543 0.961 . S
H1558 C1543 0.961 . S
H1559 C1543 0.961 . S
H1560 C1544 0.931 . S
H1561 C1549 0.930 . S
H1562 C1550 0.956 . S
H1563 C1550 0.961 . S
H1564 C1550 0.961 . S
H1565 C1551 0.958 . S
H1566 C1551 0.961 . S
H1567 C1551 0.960 . S
C1568 C1569 1.391 . S
C1568 C1570 1.394 . S
C1568 H1584 0.931 . S
C1569 C1568 1.391 . S
C1569 C1573 1.376 . S
C1570 C1568 1.394 . S
C1570 C1571 1.369 . S
C1570 C1574 1.531 . S
C1571 C1570 1.369 . S
C1571 C1572 1.410 . S
C1571 C1579 1.503 . S
C1572 C1571 1.410 . S
C1572 C1573 1.392 . S
C1572 C1575 1.511 . S
C1573 C1569 1.376 . S
C1573 C1572 1.392 . S
C1573 H1585 0.929 . S
C1574 C1570 1.531 . S
C1574 H1586 0.960 . S
C1574 H1587 0.962 . S
C1574 H1588 0.960 . S
C1575 C1572 1.511 . S
C1575 H1589 0.961 . S
C1575 H1590 0.961 . S
C1575 H1591 0.961 . S
C1576 C1577 1.370 . S
C1576 C1578 1.363 . S
C1576 H1592 0.931 . S
C1577 C1576 1.370 . S
C1577 C1581 1.408 . S
C1578 C1576 1.363 . S
C1578 C1579 1.370 . S
C1578 C1582 1.524 . S
C1579 C1571 1.503 . S
C1579 C1578 1.370 . S
C1579 C1580 1.403 . S
C1580 C1579 1.403 . S
C1580 C1581 1.404 . S
C1580 C1583 1.539 . S
C1581 C1577 1.408 . S
C1581 C1580 1.404 . S
C1581 H1593 0.930 . S
C1582 C1578 1.524 . S
C1582 H1594 0.956 . S
C1582 H1595 0.961 . S
C1582 H1596 0.961 . S
C1583 C1580 1.539 . S
C1583 H1597 0.958 . S
C1583 H1598 0.961 . S
C1583 H1599 0.960 . S
H1584 C1568 0.931 . S
H1585 C1573 0.929 . S
H1586 C1574 0.960 . S
H1587 C1574 0.962 . S
H1588 C1574 0.960 . S
H1589 C1575 0.961 . S
H1590 C1575 0.961 . S
H1591 C1575 0.961 . S
H1592 C1576 0.931 . S
H1593 C1581 0.930 . S
H1594 C1582 0.956 . S
H1595 C1582 0.961 . S
H1596 C1582 0.961 . S
H1597 C1583 0.958 . S
H1598 C1583 0.961 . S
H1599 C1583 0.960 . S
C1600 C1601 1.391 . S
C1600 C1602 1.394 . S
C1600 H1616 0.931 . S
C1601 C1600 1.391 . S
C1601 C1605 1.376 . S
C1602 C1600 1.394 . S
C1602 C1603 1.369 . S
C1602 C1606 1.531 . S
C1603 C1602 1.369 . S
C1603 C1604 1.410 . S
C1603 C1611 1.503 . S
C1604 C1603 1.410 . S
C1604 C1605 1.392 . S
C1604 C1607 1.511 . S
C1605 C1601 1.376 . S
C1605 C1604 1.392 . S
C1605 H1617 0.929 . S
C1606 C1602 1.531 . S
C1606 H1618 0.960 . S
C1606 H1619 0.962 . S
C1606 H1620 0.960 . S
C1607 C1604 1.511 . S
C1607 H1621 0.961 . S
C1607 H1622 0.961 . S
C1607 H1623 0.961 . S
C1608 C1609 1.370 . S
C1608 C1610 1.363 . S
C1608 H1624 0.931 . S
C1609 C1608 1.370 . S
C1609 C1613 1.408 . S
C1610 C1608 1.363 . S
C1610 C1611 1.370 . S
C1610 C1614 1.524 . S
C1611 C1603 1.503 . S
C1611 C1610 1.370 . S
C1611 C1612 1.403 . S
C1612 C1611 1.403 . S
C1612 C1613 1.404 . S
C1612 C1615 1.539 . S
C1613 C1609 1.408 . S
C1613 C1612 1.404 . S
C1613 H1625 0.930 . S
C1614 C1610 1.524 . S
C1614 H1626 0.956 . S
C1614 H1627 0.961 . S
C1614 H1628 0.961 . S
C1615 C1612 1.539 . S
C1615 H1629 0.958 . S
C1615 H1630 0.961 . S
C1615 H1631 0.960 . S
H1616 C1600 0.931 . S
H1617 C1605 0.929 . S
H1618 C1606 0.960 . S
H1619 C1606 0.962 . S
H1620 C1606 0.960 . S
H1621 C1607 0.961 . S
H1622 C1607 0.961 . S
H1623 C1607 0.961 . S
H1624 C1608 0.931 . S
H1625 C1613 0.930 . S
H1626 C1614 0.956 . S
H1627 C1614 0.961 . S
H1628 C1614 0.961 . S
H1629 C1615 0.958 . S
H1630 C1615 0.961 . S
H1631 C1615 0.960 . S
C1632 C1633 1.391 . S
C1632 C1634 1.394 . S
C1632 H1648 0.931 . S
C1633 C1632 1.391 . S
C1633 C1637 1.376 . S
C1634 C1632 1.394 . S
C1634 C1635 1.369 . S
C1634 C1638 1.531 . S
C1635 C1634 1.369 . S
C1635 C1636 1.410 . S
C1635 C1643 1.503 . S
C1636 C1635 1.410 . S
C1636 C1637 1.392 . S
C1636 C1639 1.511 . S
C1637 C1633 1.376 . S
C1637 C1636 1.392 . S
C1637 H1649 0.929 . S
C1638 C1634 1.531 . S
C1638 H1650 0.960 . S
C1638 H1651 0.962 . S
C1638 H1652 0.960 . S
C1639 C1636 1.511 . S
C1639 H1653 0.961 . S
C1639 H1654 0.961 . S
C1639 H1655 0.961 . S
C1640 C1641 1.370 . S
C1640 C1642 1.363 . S
C1640 H1656 0.931 . S
C1641 C1640 1.370 . S
C1641 C1645 1.408 . S
C1642 C1640 1.363 . S
C1642 C1643 1.370 . S
C1642 C1646 1.524 . S
C1643 C1635 1.503 . S
C1643 C1642 1.370 . S
C1643 C1644 1.403 . S
C1644 C1643 1.403 . S
C1644 C1645 1.404 . S
C1644 C1647 1.539 . S
C1645 C1641 1.408 . S
C1645 C1644 1.404 . S
C1645 H1657 0.930 . S
C1646 C1642 1.524 . S
C1646 H1658 0.956 . S
C1646 H1659 0.961 . S
C1646 H1660 0.961 . S
C1647 C1644 1.539 . S
C1647 H1661 0.958 . S
C1647 H1662 0.961 . S
C1647 H1663 0.960 . S
H1648 C1632 0.931 . S
H1649 C1637 0.929 . S
H1650 C1638 0.960 . S
H1651 C1638 0.962 . S
H1652 C1638 0.960 . S
H1653 C1639 0.961 . S
H1654 C1639 0.961 . S
H1655 C1639 0.961 . S
H1656 C1640 0.931 . S
H1657 C1645 0.930 . S
H1658 C1646 0.956 . S
H1659 C1646 0.961 . S
H1660 C1646 0.961 . S
H1661 C1647 0.958 . S
H1662 C1647 0.961 . S
H1663 C1647 0.960 . S
C1664 C1665 1.391 . S
C1664 C1666 1.394 . S
C1664 H1680 0.931 . S
C1665 C1664 1.391 . S
C1665 C1669 1.376 . S
C1666 C1664 1.394 . S
C1666 C1667 1.369 . S
C1666 C1670 1.531 . S
C1667 C1666 1.369 . S
C1667 C1668 1.410 . S
C1667 C1675 1.503 . S
C1668 C1667 1.410 . S
C1668 C1669 1.392 . S
C1668 C1671 1.511 . S
C1669 C1665 1.376 . S
C1669 C1668 1.392 . S
C1669 H1681 0.929 . S
C1670 C1666 1.531 . S
C1670 H1682 0.960 . S
C1670 H1683 0.962 . S
C1670 H1684 0.960 . S
C1671 C1668 1.511 . S
C1671 H1685 0.961 . S
C1671 H1686 0.961 . S
C1671 H1687 0.961 . S
C1672 C1673 1.370 . S
C1672 C1674 1.363 . S
C1672 H1688 0.931 . S
C1673 C1672 1.370 . S
C1673 C1677 1.408 . S
C1674 C1672 1.363 . S
C1674 C1675 1.370 . S
C1674 C1678 1.524 . S
C1675 C1667 1.503 . S
C1675 C1674 1.370 . S
C1675 C1676 1.403 . S
C1676 C1675 1.403 . S
C1676 C1677 1.404 . S
C1676 C1679 1.539 . S
C1677 C1673 1.408 . S
C1677 C1676 1.404 . S
C1677 H1689 0.930 . S
C1678 C1674 1.524 . S
C1678 H1690 0.956 . S
C1678 H1691 0.961 . S
C1678 H1692 0.961 . S
C1679 C1676 1.539 . S
C1679 H1693 0.958 . S
C1679 H1694 0.961 . S
C1679 H1695 0.960 . S
H1680 C1664 0.931 . S
H1681 C1669 0.929 . S
H1682 C1670 0.960 . S
H1683 C1670 0.962 . S
H1684 C1670 0.960 . S
H1685 C1671 0.961 . S
H1686 C1671 0.961 . S
H1687 C1671 0.961 . S
H1688 C1672 0.931 . S
H1689 C1677 0.930 . S
H1690 C1678 0.956 . S
H1691 C1678 0.961 . S
H1692 C1678 0.961 . S
H1693 C1679 0.958 . S
H1694 C1679 0.961 . S
H1695 C1679 0.960 . S
C1696 C1697 1.391 . S
C1696 C1698 1.394 . S
C1696 H1712 0.931 . S
C1697 C1696 1.391 . S
C1697 C1701 1.376 . S
C1698 C1696 1.394 . S
C1698 C1699 1.369 . S
C1698 C1702 1.531 . S
C1699 C1698 1.369 . S
C1699 C1700 1.410 . S
C1699 C1707 1.503 . S
C1700 C1699 1.410 . S
C1700 C1701 1.392 . S
C1700 C1703 1.511 . S
C1701 C1697 1.376 . S
C1701 C1700 1.392 . S
C1701 H1713 0.929 . S
C1702 C1698 1.531 . S
C1702 H1714 0.960 . S
C1702 H1715 0.962 . S
C1702 H1716 0.960 . S
C1703 C1700 1.511 . S
C1703 H1717 0.961 . S
C1703 H1718 0.961 . S
C1703 H1719 0.961 . S
C1704 C1705 1.370 . S
C1704 C1706 1.363 . S
C1704 H1720 0.931 . S
C1705 C1704 1.370 . S
C1705 C1709 1.408 . S
C1706 C1704 1.363 . S
C1706 C1707 1.370 . S
C1706 C1710 1.524 . S
C1707 C1699 1.503 . S
C1707 C1706 1.370 . S
C1707 C1708 1.403 . S
C1708 C1707 1.403 . S
C1708 C1709 1.404 . S
C1708 C1711 1.539 . S
C1709 C1705 1.408 . S
C1709 C1708 1.404 . S
C1709 H1721 0.930 . S
C1710 C1706 1.524 . S
C1710 H1722 0.956 . S
C1710 H1723 0.961 . S
C1710 H1724 0.961 . S
C1711 C1708 1.539 . S
C1711 H1725 0.958 . S
C1711 H1726 0.961 . S
C1711 H1727 0.960 . S
H1712 C1696 0.931 . S
H1713 C1701 0.929 . S
H1714 C1702 0.960 . S
H1715 C1702 0.962 . S
H1716 C1702 0.960 . S
H1717 C1703 0.961 . S
H1718 C1703 0.961 . S
H1719 C1703 0.961 . S
H1720 C1704 0.931 . S
H1721 C1709 0.930 . S
H1722 C1710 0.956 . S
H1723 C1710 0.961 . S
H1724 C1710 0.961 . S
H1725 C1711 0.958 . S
H1726 C1711 0.961 . S
H1727 C1711 0.960 . S
C1728 C1729 1.391 . S
C1728 C1730 1.394 . S
C1728 H1744 0.931 . S
C1729 C1728 1.391 . S
C1729 C1733 1.376 . S
C1730 C1728 1.394 . S
C1730 C1731 1.369 . S
C1730 C1734 1.531 . S
C1731 C1730 1.369 . S
C1731 C1732 1.410 . S
C1731 C1739 1.503 . S
C1732 C1731 1.410 . S
C1732 C1733 1.392 . S
C1732 C1735 1.511 . S
C1733 C1729 1.376 . S
C1733 C1732 1.392 . S
C1733 H1745 0.929 . S
C1734 C1730 1.531 . S
C1734 H1746 0.960 . S
C1734 H1747 0.962 . S
C1734 H1748 0.960 . S
C1735 C1732 1.511 . S
C1735 H1749 0.961 . S
C1735 H1750 0.961 . S
C1735 H1751 0.961 . S
C1736 C1737 1.370 . S
C1736 C1738 1.363 . S
C1736 H1752 0.931 . S
C1737 C1736 1.370 . S
C1737 C1741 1.408 . S
C1738 C1736 1.363 . S
C1738 C1739 1.370 . S
C1738 C1742 1.524 . S
C1739 C1731 1.503 . S
C1739 C1738 1.370 . S
C1739 C1740 1.403 . S
C1740 C1739 1.403 . S
C1740 C1741 1.404 . S
C1740 C1743 1.539 . S
C1741 C1737 1.408 . S
C1741 C1740 1.404 . S
C1741 H1753 0.930 . S
C1742 C1738 1.524 . S
C1742 H1754 0.956 . S
C1742 H1755 0.961 . S
C1742 H1756 0.961 . S
C1743 C1740 1.539 . S
C1743 H1757 0.958 . S
C1743 H1758 0.961 . S
C1743 H1759 0.960 . S
H1744 C1728 0.931 . S
H1745 C1733 0.929 . S
H1746 C1734 0.960 . S
H1747 C1734 0.962 . S
H1748 C1734 0.960 . S
H1749 C1735 0.961 . S
H1750 C1735 0.961 . S
H1751 C1735 0.961 . S
H1752 C1736 0.931 . S
H1753 C1741 0.930 . S
H1754 C1742 0.956 . S
H1755 C1742 0.961 . S
H1756 C1742 0.961 . S
H1757 C1743 0.958 . S
H1758 C1743 0.961 . S
H1759 C1743 0.960 . S
C1760 C1761 1.391 . S
C1760 C1762 1.394 . S
C1760 H1776 0.931 . S
C1761 C1760 1.391 . S
C1761 C1765 1.376 . S
C1762 C1760 1.394 . S
C1762 C1763 1.369 . S
C1762 C1766 1.531 . S
C1763 C1762 1.369 . S
C1763 C1764 1.410 . S
C1763 C1771 1.503 . S
C1764 C1763 1.410 . S
C1764 C1765 1.392 . S
C1764 C1767 1.511 . S
C1765 C1761 1.376 . S
C1765 C1764 1.392 . S
C1765 H1777 0.929 . S
C1766 C1762 1.531 . S
C1766 H1778 0.960 . S
C1766 H1779 0.962 . S
C1766 H1780 0.960 . S
C1767 C1764 1.511 . S
C1767 H1781 0.961 . S
C1767 H1782 0.961 . S
C1767 H1783 0.961 . S
C1768 C1769 1.370 . S
C1768 C1770 1.363 . S
C1768 H1784 0.931 . S
C1769 C1768 1.370 . S
C1769 C1773 1.408 . S
C1770 C1768 1.363 . S
C1770 C1771 1.370 . S
C1770 C1774 1.524 . S
C1771 C1763 1.503 . S
C1771 C1770 1.370 . S
C1771 C1772 1.403 . S
C1772 C1771 1.403 . S
C1772 C1773 1.404 . S
C1772 C1775 1.539 . S
C1773 C1769 1.408 . S
C1773 C1772 1.404 . S
C1773 H1785 0.930 . S
C1774 C1770 1.524 . S
C1774 H1786 0.956 . S
C1774 H1787 0.961 . S
C1774 H1788 0.961 . S
C1775 C1772 1.539 . S
C1775 H1789 0.958 . S
C1775 H1790 0.961 . S
C1775 H1791 0.960 . S
H1776 C1760 0.931 . S
H1777 C1765 0.929 . S
H1778 C1766 0.960 . S
H1779 C1766 0.962 . S
H1780 C1766 0.960 . S
H1781 C1767 0.961 . S
H1782 C1767 0.961 . S
H1783 C1767 0.961 . S
H1784 C1768 0.931 . S
H1785 C1773 0.930 . S
H1786 C1774 0.956 . S
H1787 C1774 0.961 . S
H1788 C1774 0.961 . S
H1789 C1775 0.958 . S
H1790 C1775 0.961 . S
H1791 C1775 0.960 . S
C1792 C1793 1.391 . S
C1792 C1794 1.394 . S
C1792 H1808 0.931 . S
C1793 C1792 1.391 . S
C1793 C1797 1.376 . S
C1794 C1792 1.394 . S
C1794 C1795 1.369 . S
C1794 C1798 1.531 . S
C1795 C1794 1.369 . S
C1795 C1796 1.410 . S
C1795 C1803 1.503 . S
C1796 C1795 1.410 . S
C1796 C1797 1.392 . S
C1796 C1799 1.511 . S
C1797 C1793 1.376 . S
C1797 C1796 1.392 . S
C1797 H1809 0.929 . S
C1798 C1794 1.531 . S
C1798 H1810 0.960 . S
C1798 H1811 0.962 . S
C1798 H1812 0.960 . S
C1799 C1796 1.511 . S
C1799 H1813 0.961 . S
C1799 H1814 0.961 . S
C1799 H1815 0.961 . S
C1800 C1801 1.370 . S
C1800 C1802 1.363 . S
C1800 H1816 0.931 . S
C1801 C1800 1.370 . S
C1801 C1805 1.408 . S
C1802 C1800 1.363 . S
C1802 C1803 1.370 . S
C1802 C1806 1.524 . S
C1803 C1795 1.503 . S
C1803 C1802 1.370 . S
C1803 C1804 1.403 . S
C1804 C1803 1.403 . S
C1804 C1805 1.404 . S
C1804 C1807 1.539 . S
C1805 C1801 1.408 . S
C1805 C1804 1.404 . S
C1805 H1817 0.930 . S
C1806 C1802 1.524 . S
C1806 H1818 0.956 . S
C1806 H1819 0.961 . S
C1806 H1820 0.961 . S
C1807 C1804 1.539 . S
C1807 H1821 0.958 . S
C1807 H1822 0.961 . S
C1807 H1823 0.960 . S
H1808 C1792 0.931 . S
H1809 C1797 0.929 . S
H1810 C1798 0.960 . S
H1811 C1798 0.962 . S
H1812 C1798 0.960 . S
H1813 C1799 0.961 . S
H1814 C1799 0.961 . S
H1815 C1799 0.961 . S
H1816 C1800 0.931 . S
H1817 C1805 0.930 . S
H1818 C1806 0.956 . S
H1819 C1806 0.961 . S
H1820 C1806 0.961 . S
H1821 C1807 0.958 . S
H1822 C1807 0.961 . S
H1823 C1807 0.960 . S
C1824 C1825 1.391 . S
C1824 C1826 1.394 . S
C1824 H1840 0.931 . S
C1825 C1824 1.391 . S
C1825 C1829 1.376 . S
C1826 C1824 1.394 . S
C1826 C1827 1.369 . S
C1826 C1830 1.531 . S
C1827 C1826 1.369 . S
C1827 C1828 1.410 . S
C1827 C1835 1.503 . S
C1828 C1827 1.410 . S
C1828 C1829 1.392 . S
C1828 C1831 1.511 . S
C1829 C1825 1.376 . S
C1829 C1828 1.392 . S
C1829 H1841 0.929 . S
C1830 C1826 1.531 . S
C1830 H1842 0.960 . S
C1830 H1843 0.962 . S
C1830 H1844 0.960 . S
C1831 C1828 1.511 . S
C1831 H1845 0.961 . S
C1831 H1846 0.961 . S
C1831 H1847 0.961 . S
C1832 C1833 1.370 . S
C1832 C1834 1.363 . S
C1832 H1848 0.931 . S
C1833 C1832 1.370 . S
C1833 C1837 1.408 . S
C1834 C1832 1.363 . S
C1834 C1835 1.370 . S
C1834 C1838 1.524 . S
C1835 C1827 1.503 . S
C1835 C1834 1.370 . S
C1835 C1836 1.403 . S
C1836 C1835 1.403 . S
C1836 C1837 1.404 . S
C1836 C1839 1.539 . S
C1837 C1833 1.408 . S
C1837 C1836 1.404 . S
C1837 H1849 0.930 . S
C1838 C1834 1.524 . S
C1838 H1850 0.956 . S
C1838 H1851 0.961 . S
C1838 H1852 0.961 . S
C1839 C1836 1.539 . S
C1839 H1853 0.958 . S
C1839 H1854 0.961 . S
C1839 H1855 0.960 . S
H1840 C1824 0.931 . S
H1841 C1829 0.929 . S
H1842 C1830 0.960 . S
H1843 C1830 0.962 . S
H1844 C1830 0.960 . S
H1845 C1831 0.961 . S
H1846 C1831 0.961 . S
H1847 C1831 0.961 . S
H1848 C1832 0.931 . S
H1849 C1837 0.930 . S
H1850 C1838 0.956 . S
H1851 C1838 0.961 . S
H1852 C1838 0.961 . S
H1853 C1839 0.958 . S
H1854 C1839 0.961 . S
H1855 C1839 0.960 . S
C1856 C1857 1.391 . S
C1856 C1858 1.394 . S
C1856 H1872 0.931 . S
C1857 C1856 1.391 . S
C1857 C1861 1.376 . S
C1858 C1856 1.394 . S
C1858 C1859 1.369 . S
C1858 C1862 1.531 . S
C1859 C1858 1.369 . S
C1859 C1860 1.410 . S
C1859 C1867 1.503 . S
C1860 C1859 1.410 . S
C1860 C1861 1.392 . S
C1860 C1863 1.511 . S
C1861 C1857 1.376 . S
C1861 C1860 1.392 . S
C1861 H1873 0.929 . S
C1862 C1858 1.531 . S
C1862 H1874 0.960 . S
C1862 H1875 0.962 . S
C1862 H1876 0.960 . S
C1863 C1860 1.511 . S
C1863 H1877 0.961 . S
C1863 H1878 0.961 . S
C1863 H1879 0.961 . S
C1864 C1865 1.370 . S
C1864 C1866 1.363 . S
C1864 H1880 0.931 . S
C1865 C1864 1.370 . S
C1865 C1869 1.408 . S
C1866 C1864 1.363 . S
C1866 C1867 1.370 . S
C1866 C1870 1.524 . S
C1867 C1859 1.503 . S
C1867 C1866 1.370 . S
C1867 C1868 1.403 . S
C1868 C1867 1.403 . S
C1868 C1869 1.404 . S
C1868 C1871 1.539 . S
C1869 C1865 1.408 . S
C1869 C1868 1.404 . S
C1869 H1881 0.930 . S
C1870 C1866 1.524 . S
C1870 H1882 0.956 . S
C1870 H1883 0.961 . S
C1870 H1884 0.961 . S
C1871 C1868 1.539 . S
C1871 H1885 0.958 . S
C1871 H1886 0.961 . S
C1871 H1887 0.960 . S
H1872 C1856 0.931 . S
H1873 C1861 0.929 . S
H1874 C1862 0.960 . S
H1875 C1862 0.962 . S
H1876 C1862 0.960 . S
H1877 C1863 0.961 . S
H1878 C1863 0.961 . S
H1879 C1863 0.961 . S
H1880 C1864 0.931 . S
H1881 C1869 0.930 . S
H1882 C1870 0.956 . S
H1883 C1870 0.961 . S
H1884 C1870 0.961 . S
H1885 C1871 0.958 . S
H1886 C1871 0.961 . S
H1887 C1871 0.960 . S
C1888 C1889 1.391 . S
C1888 C1890 1.394 . S
C1888 H1904 0.931 . S
C1889 C1888 1.391 . S
C1889 C1893 1.376 . S
C1890 C1888 1.394 . S
C1890 C1891 1.369 . S
C1890 C1894 1.531 . S
C1891 C1890 1.369 . S
C1891 C1892 1.410 . S
C1891 C1899 1.503 . S
C1892 C1891 1.410 . S
C1892 C1893 1.392 . S
C1892 C1895 1.511 . S
C1893 C1889 1.376 . S
C1893 C1892 1.392 . S
C1893 H1905 0.929 . S
C1894 C1890 1.531 . S
C1894 H1906 0.960 . S
C1894 H1907 0.962 . S
C1894 H1908 0.960 . S
C1895 C1892 1.511 . S
C1895 H1909 0.961 . S
C1895 H1910 0.961 . S
C1895 H1911 0.961 . S
C1896 C1897 1.370 . S
C1896 C1898 1.363 . S
C1896 H1912 0.931 . S
C1897 C1896 1.370 . S
C1897 C1901 1.408 . S
C1898 C1896 1.363 . S
C1898 C1899 1.370 . S
C1898 C1902 1.524 . S
C1899 C1891 1.503 . S
C1899 C1898 1.370 . S
C1899 C1900 1.403 . S
C1900 C1899 1.403 . S
C1900 C1901 1.404 . S
C1900 C1903 1.539 . S
C1901 C1897 1.408 . S
C1901 C1900 1.404 . S
C1901 H1913 0.930 . S
C1902 C1898 1.524 . S
C1902 H1914 0.956 . S
C1902 H1915 0.961 . S
C1902 H1916 0.961 . S
C1903 C1900 1.539 . S
C1903 H1917 0.958 . S
C1903 H1918 0.961 . S
C1903 H1919 0.960 . S
H1904 C1888 0.931 . S
H1905 C1893 0.929 . S
H1906 C1894 0.960 . S
H1907 C1894 0.962 . S
H1908 C1894 0.960 . S
H1909 C1895 0.961 . S
H1910 C1895 0.961 . S
H1911 C1895 0.961 . S
H1912 C1896 0.931 . S
H1913 C1901 0.930 . S
H1914 C1902 0.956 . S
H1915 C1902 0.961 . S
H1916 C1902 0.961 . S
H1917 C1903 0.958 . S
H1918 C1903 0.961 . S
H1919 C1903 0.960 . S
C1920 C1921 1.391 . S
C1920 C1922 1.394 1_565 S
C1920 H1936 0.931 . S
C1921 C1920 1.391 . S
C1921 C1925 1.376 . S
C1922 C1920 1.394 1_545 S
C1922 C1923 1.369 . S
C1922 C1926 1.531 . S
C1923 C1922 1.369 . S
C1923 C1924 1.410 . S
C1923 C1931 1.503 . S
C1924 C1923 1.410 . S
C1924 C1925 1.392 1_545 S
C1924 C1927 1.511 . S
C1925 C1921 1.376 . S
C1925 C1924 1.392 1_565 S
C1925 H1937 0.929 . S
C1926 C1922 1.531 . S
C1926 H1938 0.960 . S
C1926 H1939 0.962 . S
C1926 H1940 0.960 . S
C1927 C1924 1.511 . S
C1927 H1941 0.961 . S
C1927 H1942 0.961 . S
C1927 H1943 0.961 . S
C1928 C1929 1.370 . S
C1928 C1930 1.363 . S
C1928 H1944 0.931 . S
C1929 C1928 1.370 . S
C1929 C1933 1.408 . S
C1930 C1928 1.363 . S
C1930 C1931 1.370 . S
C1930 C1934 1.524 . S
C1931 C1923 1.503 . S
C1931 C1930 1.370 . S
C1931 C1932 1.403 . S
C1932 C1931 1.403 . S
C1932 C1933 1.404 . S
C1932 C1935 1.539 . S
C1933 C1929 1.408 . S
C1933 C1932 1.404 . S
C1933 H1945 0.930 . S
C1934 C1930 1.524 . S
C1934 H1946 0.956 . S
C1934 H1947 0.961 . S
C1934 H1948 0.961 . S
C1935 C1932 1.539 . S
C1935 H1949 0.958 . S
C1935 H1950 0.961 . S
C1935 H1951 0.960 . S
H1936 C1920 0.931 . S
H1937 C1925 0.929 . S
H1938 C1926 0.960 . S
H1939 C1926 0.962 . S
H1940 C1926 0.960 . S
H1941 C1927 0.961 . S
H1942 C1927 0.961 . S
H1943 C1927 0.961 . S
H1944 C1928 0.931 . S
H1945 C1933 0.930 . S
H1946 C1934 0.956 . S
H1947 C1934 0.961 . S
H1948 C1934 0.961 . S
H1949 C1935 0.958 . S
H1950 C1935 0.961 . S
H1951 C1935 0.960 . S
C1952 C1953 1.391 . S
C1952 C1954 1.394 . S
C1952 H1968 0.931 . S
C1953 C1952 1.391 . S
C1953 C1957 1.376 . S
C1954 C1952 1.394 . S
C1954 C1955 1.369 . S
C1954 C1958 1.531 . S
C1955 C1954 1.369 . S
C1955 C1956 1.410 . S
C1955 C1963 1.503 . S
C1956 C1955 1.410 . S
C1956 C1957 1.392 . S
C1956 C1959 1.511 . S
C1957 C1953 1.376 . S
C1957 C1956 1.392 . S
C1957 H1969 0.929 . S
C1958 C1954 1.531 . S
C1958 H1970 0.960 . S
C1958 H1971 0.962 . S
C1958 H1972 0.960 . S
C1959 C1956 1.511 . S
C1959 H1973 0.961 . S
C1959 H1974 0.961 . S
C1959 H1975 0.961 . S
C1960 C1961 1.370 . S
C1960 C1962 1.363 1_545 S
C1960 H1976 0.931 . S
C1961 C1960 1.370 . S
C1961 C1965 1.408 . S
C1962 C1960 1.363 1_565 S
C1962 C1963 1.370 . S
C1962 C1966 1.524 . S
C1963 C1955 1.503 . S
C1963 C1962 1.370 . S
C1963 C1964 1.403 . S
C1964 C1963 1.403 . S
C1964 C1965 1.404 1_565 S
C1964 C1967 1.539 . S
C1965 C1961 1.408 . S
C1965 C1964 1.404 1_545 S
C1965 H1977 0.930 . S
C1966 C1962 1.524 . S
C1966 H1978 0.956 . S
C1966 H1979 0.961 . S
C1966 H1980 0.961 . S
C1967 C1964 1.539 . S
C1967 H1981 0.958 . S
C1967 H1982 0.961 . S
C1967 H1983 0.960 . S
H1968 C1952 0.931 . S
H1969 C1957 0.929 . S
H1970 C1958 0.960 . S
H1971 C1958 0.962 . S
H1972 C1958 0.960 . S
H1973 C1959 0.961 . S
H1974 C1959 0.961 . S
H1975 C1959 0.961 . S
H1976 C1960 0.931 . S
H1977 C1965 0.930 . S
H1978 C1966 0.956 . S
H1979 C1966 0.961 . S
H1980 C1966 0.961 . S
H1981 C1967 0.958 . S
H1982 C1967 0.961 . S
H1983 C1967 0.960 . S
C1984 C1985 1.391 . S
C1984 C1986 1.394 1_545 S
C1984 H2000 0.931 . S
C1985 C1984 1.391 . S
C1985 C1989 1.376 . S
C1986 C1984 1.394 1_565 S
C1986 C1987 1.369 . S
C1986 C1990 1.531 . S
C1987 C1986 1.369 . S
C1987 C1988 1.410 . S
C1987 C1995 1.503 . S
C1988 C1987 1.410 . S
C1988 C1989 1.392 1_565 S
C1988 C1991 1.511 . S
C1989 C1985 1.376 . S
C1989 C1988 1.392 1_545 S
C1989 H2001 0.929 . S
C1990 C1986 1.531 . S
C1990 H2002 0.960 . S
C1990 H2003 0.962 . S
C1990 H2004 0.960 . S
C1991 C1988 1.511 . S
C1991 H2005 0.961 . S
C1991 H2006 0.961 . S
C1991 H2007 0.961 . S
C1992 C1993 1.370 . S
C1992 C1994 1.363 . S
C1992 H2008 0.931 . S
C1993 C1992 1.370 . S
C1993 C1997 1.408 . S
C1994 C1992 1.363 . S
C1994 C1995 1.370 . S
C1994 C1998 1.524 . S
C1995 C1987 1.503 . S
C1995 C1994 1.370 . S
C1995 C1996 1.403 . S
C1996 C1995 1.403 . S
C1996 C1997 1.404 . S
C1996 C1999 1.539 . S
C1997 C1993 1.408 . S
C1997 C1996 1.404 . S
C1997 H2009 0.930 . S
C1998 C1994 1.524 . S
C1998 H2010 0.956 . S
C1998 H2011 0.961 . S
C1998 H2012 0.961 . S
C1999 C1996 1.539 . S
C1999 H2013 0.958 . S
C1999 H2014 0.961 . S
C1999 H2015 0.960 . S
H2000 C1984 0.931 . S
H2001 C1989 0.929 . S
H2002 C1990 0.960 . S
H2003 C1990 0.962 . S
H2004 C1990 0.960 . S
H2005 C1991 0.961 . S
H2006 C1991 0.961 . S
H2007 C1991 0.961 . S
H2008 C1992 0.931 . S
H2009 C1997 0.930 . S
H2010 C1998 0.956 . S
H2011 C1998 0.961 . S
H2012 C1998 0.961 . S
H2013 C1999 0.958 . S
H2014 C1999 0.961 . S
H2015 C1999 0.960 . S
C2016 C2017 1.391 . S
C2016 C2018 1.394 1_565 S
C2016 H2032 0.931 . S
C2017 C2016 1.391 . S
C2017 C2021 1.376 . S
C2018 C2016 1.394 1_545 S
C2018 C2019 1.369 . S
C2018 C2022 1.531 . S
C2019 C2018 1.369 . S
C2019 C2020 1.410 . S
C2019 C2027 1.503 . S
C2020 C2019 1.410 . S
C2020 C2021 1.392 1_545 S
C2020 C2023 1.511 . S
C2021 C2017 1.376 . S
C2021 C2020 1.392 1_565 S
C2021 H2033 0.929 . S
C2022 C2018 1.531 . S
C2022 H2034 0.960 . S
C2022 H2035 0.962 . S
C2022 H2036 0.960 . S
C2023 C2020 1.511 . S
C2023 H2037 0.961 . S
C2023 H2038 0.961 . S
C2023 H2039 0.961 . S
C2024 C2025 1.370 . S
C2024 C2026 1.363 . S
C2024 H2040 0.931 . S
C2025 C2024 1.370 . S
C2025 C2029 1.408 . S
C2026 C2024 1.363 . S
C2026 C2027 1.370 . S
C2026 C2030 1.524 . S
C2027 C2019 1.503 . S
C2027 C2026 1.370 . S
C2027 C2028 1.403 . S
C2028 C2027 1.403 . S
C2028 C2029 1.404 . S
C2028 C2031 1.539 . S
C2029 C2025 1.408 . S
C2029 C2028 1.404 . S
C2029 H2041 0.930 . S
C2030 C2026 1.524 . S
C2030 H2042 0.956 . S
C2030 H2043 0.961 . S
C2030 H2044 0.961 . S
C2031 C2028 1.539 . S
C2031 H2045 0.958 . S
C2031 H2046 0.961 . S
C2031 H2047 0.960 . S
H2032 C2016 0.931 . S
H2033 C2021 0.929 . S
H2034 C2022 0.960 . S
H2035 C2022 0.962 . S
H2036 C2022 0.960 . S
H2037 C2023 0.961 . S
H2038 C2023 0.961 . S
H2039 C2023 0.961 . S
H2040 C2024 0.931 . S
H2041 C2029 0.930 . S
H2042 C2030 0.956 . S
H2043 C2030 0.961 . S
H2044 C2030 0.961 . S
H2045 C2031 0.958 . S
H2046 C2031 0.961 . S
H2047 C2031 0.960 . S
C2048 C2049 1.391 . S
C2048 C2050 1.394 . S
C2048 H2064 0.931 . S
C2049 C2048 1.391 . S
C2049 C2053 1.376 . S
C2050 C2048 1.394 . S
C2050 C2051 1.369 . S
C2050 C2054 1.531 . S
C2051 C2050 1.369 . S
C2051 C2052 1.410 . S
C2051 C2059 1.503 . S
C2052 C2051 1.410 . S
C2052 C2053 1.392 . S
C2052 C2055 1.511 . S
C2053 C2049 1.376 . S
C2053 C2052 1.392 . S
C2053 H2065 0.929 . S
C2054 C2050 1.531 . S
C2054 H2066 0.960 . S
C2054 H2067 0.962 . S
C2054 H2068 0.960 . S
C2055 C2052 1.511 . S
C2055 H2069 0.961 . S
C2055 H2070 0.961 . S
C2055 H2071 0.961 . S
C2056 C2057 1.370 . S
C2056 C2058 1.363 1_545 S
C2056 H2072 0.931 . S
C2057 C2056 1.370 . S
C2057 C2061 1.408 . S
C2058 C2056 1.363 1_565 S
C2058 C2059 1.370 . S
C2058 C2062 1.524 . S
C2059 C2051 1.503 . S
C2059 C2058 1.370 . S
C2059 C2060 1.403 . S
C2060 C2059 1.403 . S
C2060 C2061 1.404 1_565 S
C2060 C2063 1.539 . S
C2061 C2057 1.408 . S
C2061 C2060 1.404 1_545 S
C2061 H2073 0.930 . S
C2062 C2058 1.524 . S
C2062 H2074 0.956 . S
C2062 H2075 0.961 . S
C2062 H2076 0.961 . S
C2063 C2060 1.539 . S
C2063 H2077 0.958 . S
C2063 H2078 0.961 . S
C2063 H2079 0.960 . S
H2064 C2048 0.931 . S
H2065 C2053 0.929 . S
H2066 C2054 0.960 . S
H2067 C2054 0.962 . S
H2068 C2054 0.960 . S
H2069 C2055 0.961 . S
H2070 C2055 0.961 . S
H2071 C2055 0.961 . S
H2072 C2056 0.931 . S
H2073 C2061 0.930 . S
H2074 C2062 0.956 . S
H2075 C2062 0.961 . S
H2076 C2062 0.961 . S
H2077 C2063 0.958 . S
H2078 C2063 0.961 . S
H2079 C2063 0.960 . S
C2080 C2081 1.391 . S
C2080 C2082 1.394 . S
C2080 H2096 0.931 . S
C2081 C2080 1.391 . S
C2081 C2085 1.376 . S
C2082 C2080 1.394 . S
C2082 C2083 1.369 . S
C2082 C2086 1.531 . S
C2083 C2082 1.369 . S
C2083 C2084 1.410 . S
C2083 C2091 1.503 . S
C2084 C2083 1.410 . S
C2084 C2085 1.392 . S
C2084 C2087 1.511 . S
C2085 C2081 1.376 . S
C2085 C2084 1.392 . S
C2085 H2097 0.929 . S
C2086 C2082 1.531 . S
C2086 H2098 0.960 . S
C2086 H2099 0.962 . S
C2086 H2100 0.960 . S
C2087 C2084 1.511 . S
C2087 H2101 0.961 . S
C2087 H2102 0.961 . S
C2087 H2103 0.961 . S
C2088 C2089 1.370 . S
C2088 C2090 1.363 1_565 S
C2088 H2104 0.931 . S
C2089 C2088 1.370 . S
C2089 C2093 1.408 . S
C2090 C2088 1.363 1_545 S
C2090 C2091 1.370 . S
C2090 C2094 1.524 . S
C2091 C2083 1.503 . S
C2091 C2090 1.370 . S
C2091 C2092 1.403 . S
C2092 C2091 1.403 . S
C2092 C2093 1.404 1_545 S
C2092 C2095 1.539 . S
C2093 C2089 1.408 . S
C2093 C2092 1.404 1_565 S
C2093 H2105 0.930 . S
C2094 C2090 1.524 . S
C2094 H2106 0.956 . S
C2094 H2107 0.961 . S
C2094 H2108 0.961 . S
C2095 C2092 1.539 . S
C2095 H2109 0.958 . S
C2095 H2110 0.971 . S
C2095 H2111 0.960 . S
H2096 C2080 0.931 . S
H2097 C2085 0.929 . S
H2098 C2086 0.960 . S
H2099 C2086 0.962 . S
H2100 C2086 0.960 . S
H2101 C2087 0.961 . S
H2102 C2087 0.961 . S
H2103 C2087 0.961 . S
H2104 C2088 0.931 . S
H2105 C2093 0.930 . S
H2106 C2094 0.956 . S
H2107 C2094 0.961 . S
H2108 C2094 0.961 . S
H2109 C2095 0.958 . S
H2110 C2095 0.971 . S
H2111 C2095 0.960 . S
C2112 C2113 1.391 . S
C2112 C2114 1.394 1_565 S
C2112 H2128 0.931 . S
C2113 C2112 1.391 . S
C2113 C2117 1.376 . S
C2114 C2112 1.394 1_545 S
C2114 C2115 1.369 . S
C2114 C2118 1.531 . S
C2115 C2114 1.369 . S
C2115 C2116 1.410 . S
C2115 C2123 1.503 . S
C2116 C2115 1.410 . S
C2116 C2117 1.392 1_545 S
C2116 C2119 1.511 . S
C2117 C2113 1.376 . S
C2117 C2116 1.392 1_565 S
C2117 H2129 0.929 . S
C2118 C2114 1.531 . S
C2118 H2130 0.960 . S
C2118 H2131 0.962 . S
C2118 H2132 0.960 . S
C2119 C2116 1.511 . S
C2119 H2133 0.961 . S
C2119 H2134 0.961 . S
C2119 H2135 0.961 . S
C2120 C2121 1.370 . S
C2120 C2122 1.363 . S
C2120 H2136 0.931 . S
C2121 C2120 1.370 . S
C2121 C2125 1.408 . S
C2122 C2120 1.363 . S
C2122 C2123 1.370 . S
C2122 C2126 1.524 . S
C2123 C2115 1.503 . S
C2123 C2122 1.370 . S
C2123 C2124 1.403 . S
C2124 C2123 1.403 . S
C2124 C2125 1.404 . S
C2124 C2127 1.539 . S
C2125 C2121 1.408 . S
C2125 C2124 1.404 . S
C2125 H2137 0.930 . S
C2126 C2122 1.524 . S
C2126 H2138 0.956 . S
C2126 H2139 0.961 . S
C2126 H2140 0.961 . S
C2127 C2124 1.539 . S
C2127 H2141 0.958 . S
C2127 H2142 0.961 . S
C2127 H2143 0.960 . S
H2128 C2112 0.931 . S
H2129 C2117 0.929 . S
H2130 C2118 0.960 . S
H2131 C2118 0.962 . S
H2132 C2118 0.960 . S
H2133 C2119 0.961 . S
H2134 C2119 0.961 . S
H2135 C2119 0.961 . S
H2136 C2120 0.931 . S
H2137 C2125 0.930 . S
H2138 C2126 0.956 . S
H2139 C2126 0.961 . S
H2140 C2126 0.961 . S
H2141 C2127 0.958 . S
H2142 C2127 0.961 . S
H2143 C2127 0.960 . S
C2144 C2145 1.391 . S
C2144 C2146 1.394 . S
C2144 H2160 0.931 . S
C2145 C2144 1.391 . S
C2145 C2149 1.376 . S
C2146 C2144 1.394 . S
C2146 C2147 1.369 . S
C2146 C2150 1.531 . S
C2147 C2146 1.369 . S
C2147 C2148 1.410 . S
C2147 C2155 1.503 . S
C2148 C2147 1.410 . S
C2148 C2149 1.392 . S
C2148 C2151 1.511 . S
C2149 C2145 1.376 . S
C2149 C2148 1.392 . S
C2149 H2161 0.929 . S
C2150 C2146 1.531 . S
C2150 H2162 0.960 . S
C2150 H2163 0.962 . S
C2150 H2164 0.960 . S
C2151 C2148 1.511 . S
C2151 H2165 0.961 . S
C2151 H2166 0.961 . S
C2151 H2167 0.961 . S
C2152 C2153 1.370 . S
C2152 C2154 1.363 1_545 S
C2152 H2168 0.931 . S
C2153 C2152 1.370 . S
C2153 C2157 1.408 . S
C2154 C2152 1.363 1_565 S
C2154 C2155 1.370 . S
C2154 C2158 1.524 . S
C2155 C2147 1.503 . S
C2155 C2154 1.370 . S
C2155 C2156 1.403 . S
C2156 C2155 1.403 . S
C2156 C2157 1.404 1_565 S
C2156 C2159 1.539 . S
C2157 C2153 1.408 . S
C2157 C2156 1.404 1_545 S
C2157 H2169 0.930 . S
C2158 C2154 1.524 . S
C2158 H2170 0.956 . S
C2158 H2171 0.961 . S
C2158 H2172 0.961 . S
C2159 C2156 1.539 . S
C2159 H2173 0.958 . S
C2159 H2174 0.961 . S
C2159 H2175 0.960 . S
H2160 C2144 0.931 . S
H2161 C2149 0.929 . S
H2162 C2150 0.960 . S
H2163 C2150 0.962 . S
H2164 C2150 0.960 . S
H2165 C2151 0.961 . S
H2166 C2151 0.961 . S
H2167 C2151 0.961 . S
H2168 C2152 0.931 . S
H2169 C2157 0.930 . S
H2170 C2158 0.956 . S
H2171 C2158 0.961 . S
H2172 C2158 0.961 . S
H2173 C2159 0.958 . S
H2174 C2159 0.961 . S
H2175 C2159 0.960 . S
C641 C15 2.001 . S
C649 C375 2.024 . S
C673 C55 2.032 . S
C681 C335 2.012 . S
C705 C455 2.031 . S
C713 C95 2.012 . S
C737 C135 2.027 . S
C745 C415 2.013 . S
C769 C526 2.028 . S
C777 C166 2.010 . S
C801 C486 1.995 . S
C809 C206 2.029 . S
C833 C606 2.000 . S
C841 C246 2.021 . S
C865 C286 1.996 . S
C873 C566 2.029 . S
C897 C98 1.528 . S
C905 C18 1.521 . S
C929 C138 1.473 . S
C937 C58 1.501 . S
C961 C249 1.534 . S
C969 C169 1.518 . S
C993 C209 1.480 . S
C1001 C289 1.494 . S
C1025 C418 1.475 . S
C1033 C338 1.502 . S
C1057 C458 1.527 . S
C1065 C378 1.521 . S
C1089 C489 1.516 . S
C1097 C569 1.499 . S
C1121 C529 1.515 . S
C1129 C609 1.520 . S
C1153 C218 1.504 . S
C1161 C9 1.507 . S
C1185 C178 1.516 . S
C1193 C49 1.512 . S
C1217 C89 1.529 . S
C1225 C298 1.516 . S
C1249 C258 1.470 . S
C1257 C129 1.491 . S
C1281 C329 1.494 . S
C1289 C538 1.499 . S
C1313 C498 1.505 . S
C1321 C369 1.508 . S
C1345 C409 1.520 . S
C1353 C618 1.513 . S
C1377 C578 1.480 . S
C1385 C449 1.494 . S
C1409 C46 2.296 . S
C1417 C6 2.298 . S
C1441 C126 2.276 . S
C1449 C86 2.305 . S
C1473 C215 2.299 . S
C1481 C175 2.292 . S
C1505 C255 2.274 . S
C1513 C295 2.303 . S
C1537 C366 2.269 . S
C1545 C326 2.307 . S
C1569 C446 2.278 . S
C1577 C406 2.304 . S
C1601 C495 2.310 . S
C1609 C535 2.288 . S
C1633 C575 2.317 . S
C1641 C615 2.285 . S
C1665 C10 2.422 . S
C1673 C19 2.440 . S
C1697 C50 2.445 . S
C1705 C59 2.429 . S
C1729 C90 2.443 . S
C1737 C99 2.429 . S
C1761 C139 2.432 . S
C1769 C130 2.434 . S
C1793 C179 2.414 . S
C1801 C170 2.443 . S
C1825 C210 2.415 . S
C1833 C219 2.442 . S
C1857 C259 2.437 . S
C1865 C250 2.434 . S
C1889 C299 2.434 . S
C1897 C290 2.433 . S
C1921 C339 2.442 . S
C1929 C330 2.432 . S
C1953 C370 2.436 . S
C1961 C379 2.432 . S
C1985 C419 2.427 . S
C1993 C410 2.438 . S
C2017 C459 2.446 . S
C2025 C450 2.429 . S
C2049 C499 2.441 . S
C2057 C490 2.432 . S
C2081 C539 2.433 . S
C2089 C530 2.433 . S
C2113 C570 2.412 . S
C2121 C579 2.443 . S
C2145 C619 2.426 . S
C2153 C610 2.436 . S
