# Generated by pormake.
# Topology whr, (6)-cn, num edge types: 1
# Building blocks:
#     Node 0, Type 0, BuildingBlock: VOLQOD_clean_sbu_1, # of connection points: 6
#     Node 1, Type 0, BuildingBlock: VOLQOD_clean_sbu_1, # of connection points: 6
#     Node 2, Type 0, BuildingBlock: VOLQOD_clean_sbu_1, # of connection points: 6
#     Node 3, Type 0, BuildingBlock: VOLQOD_clean_sbu_1, # of connection points: 6
#     Node 4, Type 0, BuildingBlock: VOLQOD_clean_sbu_1, # of connection points: 6
#     Node 5, Type 0, BuildingBlock: VOLQOD_clean_sbu_1, # of connection points: 6
#     Node 6, Type 0, BuildingBlock: VOLQOD_clean_sbu_1, # of connection points: 6
#     Node 7, Type 0, BuildingBlock: VOLQOD_clean_sbu_1, # of connection points: 6
#     Node 8, Type 0, BuildingBlock: VOLQOD_clean_sbu_1, # of connection points: 6
#     Node 9, Type 0, BuildingBlock: VOLQOD_clean_sbu_1, # of connection points: 6
#     Node 10, Type 0, BuildingBlock: VOLQOD_clean_sbu_1, # of connection points: 6
#     Node 11, Type 0, BuildingBlock: VOLQOD_clean_sbu_1, # of connection points: 6
#     Node 12, Type 0, BuildingBlock: VOLQOD_clean_sbu_1, # of connection points: 6
#     Node 13, Type 0, BuildingBlock: VOLQOD_clean_sbu_1, # of connection points: 6
#     Node 14, Type 0, BuildingBlock: VOLQOD_clean_sbu_1, # of connection points: 6
#     Node 15, Type 0, BuildingBlock: VOLQOD_clean_sbu_1, # of connection points: 6
#     Edge 16, Type (0, 0), BuildingBlock: EZIPEK_clean_linker_0, # of connection points: 2
#     Edge 17, Type (0, 0), BuildingBlock: EZIPEK_clean_linker_0, # of connection points: 2
#     Edge 18, Type (0, 0), BuildingBlock: EZIPEK_clean_linker_0, # of connection points: 2
#     Edge 19, Type (0, 0), BuildingBlock: EZIPEK_clean_linker_0, # of connection points: 2
#     Edge 20, Type (0, 0), BuildingBlock: EZIPEK_clean_linker_0, # of connection points: 2
#     Edge 21, Type (0, 0), BuildingBlock: EZIPEK_clean_linker_0, # of connection points: 2
#     Edge 22, Type (0, 0), BuildingBlock: EZIPEK_clean_linker_0, # of connection points: 2
#     Edge 23, Type (0, 0), BuildingBlock: EZIPEK_clean_linker_0, # of connection points: 2
#     Edge 24, Type (0, 0), BuildingBlock: EZIPEK_clean_linker_0, # of connection points: 2
#     Edge 25, Type (0, 0), BuildingBlock: EZIPEK_clean_linker_0, # of connection points: 2
#     Edge 26, Type (0, 0), BuildingBlock: EZIPEK_clean_linker_0, # of connection points: 2
#     Edge 27, Type (0, 0), BuildingBlock: EZIPEK_clean_linker_0, # of connection points: 2
#     Edge 28, Type (0, 0), BuildingBlock: EZIPEK_clean_linker_0, # of connection points: 2
#     Edge 29, Type (0, 0), BuildingBlock: EZIPEK_clean_linker_0, # of connection points: 2
#     Edge 30, Type (0, 0), BuildingBlock: EZIPEK_clean_linker_0, # of connection points: 2
#     Edge 31, Type (0, 0), BuildingBlock: EZIPEK_clean_linker_0, # of connection points: 2
#     Edge 32, Type (0, 0), BuildingBlock: EZIPEK_clean_linker_0, # of connection points: 2
#     Edge 33, Type (0, 0), BuildingBlock: EZIPEK_clean_linker_0, # of connection points: 2
#     Edge 34, Type (0, 0), BuildingBlock: EZIPEK_clean_linker_0, # of connection points: 2
#     Edge 35, Type (0, 0), BuildingBlock: EZIPEK_clean_linker_0, # of connection points: 2
#     Edge 36, Type (0, 0), BuildingBlock: EZIPEK_clean_linker_0, # of connection points: 2
#     Edge 37, Type (0, 0), BuildingBlock: EZIPEK_clean_linker_0, # of connection points: 2
#     Edge 38, Type (0, 0), BuildingBlock: EZIPEK_clean_linker_0, # of connection points: 2
#     Edge 39, Type (0, 0), BuildingBlock: EZIPEK_clean_linker_0, # of connection points: 2
#     Edge 40, Type (0, 0), BuildingBlock: EZIPEK_clean_linker_0, # of connection points: 2
#     Edge 41, Type (0, 0), BuildingBlock: EZIPEK_clean_linker_0, # of connection points: 2
#     Edge 42, Type (0, 0), BuildingBlock: EZIPEK_clean_linker_0, # of connection points: 2
#     Edge 43, Type (0, 0), BuildingBlock: EZIPEK_clean_linker_0, # of connection points: 2
#     Edge 44, Type (0, 0), BuildingBlock: EZIPEK_clean_linker_0, # of connection points: 2
#     Edge 45, Type (0, 0), BuildingBlock: EZIPEK_clean_linker_0, # of connection points: 2
#     Edge 46, Type (0, 0), BuildingBlock: EZIPEK_clean_linker_0, # of connection points: 2
#     Edge 47, Type (0, 0), BuildingBlock: EZIPEK_clean_linker_0, # of connection points: 2
#     Edge 48, Type (0, 0), BuildingBlock: EZIPEK_clean_linker_0, # of connection points: 2
#     Edge 49, Type (0, 0), BuildingBlock: EZIPEK_clean_linker_0, # of connection points: 2
#     Edge 50, Type (0, 0), BuildingBlock: EZIPEK_clean_linker_0, # of connection points: 2
#     Edge 51, Type (0, 0), BuildingBlock: EZIPEK_clean_linker_0, # of connection points: 2
#     Edge 52, Type (0, 0), BuildingBlock: EZIPEK_clean_linker_0, # of connection points: 2
#     Edge 53, Type (0, 0), BuildingBlock: EZIPEK_clean_linker_0, # of connection points: 2
#     Edge 54, Type (0, 0), BuildingBlock: EZIPEK_clean_linker_0, # of connection points: 2
#     Edge 55, Type (0, 0), BuildingBlock: EZIPEK_clean_linker_0, # of connection points: 2
#     Edge 56, Type (0, 0), BuildingBlock: EZIPEK_clean_linker_0, # of connection points: 2
#     Edge 57, Type (0, 0), BuildingBlock: EZIPEK_clean_linker_0, # of connection points: 2
#     Edge 58, Type (0, 0), BuildingBlock: EZIPEK_clean_linker_0, # of connection points: 2
#     Edge 59, Type (0, 0), BuildingBlock: EZIPEK_clean_linker_0, # of connection points: 2
#     Edge 60, Type (0, 0), BuildingBlock: EZIPEK_clean_linker_0, # of connection points: 2
#     Edge 61, Type (0, 0), BuildingBlock: EZIPEK_clean_linker_0, # of connection points: 2
#     Edge 62, Type (0, 0), BuildingBlock: EZIPEK_clean_linker_0, # of connection points: 2
#     Edge 63, Type (0, 0), BuildingBlock: EZIPEK_clean_linker_0, # of connection points: 2
# Relax obj value: 0.384
# Max RMSD: 0.249
# Mean RMSD: 0.247
data_MOF--net-whr--node1-VOLQOD_clean_sbu_1--edge1-EZIPEK_clean_linker_0
_symmetry_space_group_name_H-M    P1
_symmetry_Int_Tables_number       1
_symmetry_cell_setting            triclinic
loop_
_symmetry_equiv_pos_as_xyz
'x, y, z'
_cell_length_a     39.681767
_cell_length_b     39.509156
_cell_length_c     22.059824
_cell_angle_alpha  90.02701
_cell_angle_beta   90.016097
_cell_angle_gamma 90.243934
loop_
_atom_site_label
_atom_site_type_symbol
_atom_site_fract_x
_atom_site_fract_y
_atom_site_fract_z
_atom_type_partial_charge
O0 O 0.1507 0.05352 0.15618 0.0
Zn1 Zn 0.16053 0.03029 0.07799 0.0
O2 O 0.20665 0.03703 0.05481 0.0
Zn3 Zn 0.23072 -0.00473 0.06479 0.0
Zn4 Zn 0.2235 0.07096 0.10771 0.0
Zn5 Zn 0.20989 0.05548 0.97497 0.0
O6 O 0.25939 0.98793 0.98784 0.0
O7 O 0.22983 0.02003 0.92301 0.0
O8 O 0.14741 0.98135 0.08065 0.0
O9 O 0.19694 0.95657 0.06522 0.0
O10 O 0.25196 -0.005 0.15067 0.0
O11 O 0.24458 0.04871 0.1783 0.0
O12 O 0.25556 0.10261 0.06837 0.0
O13 O 0.13139 0.05505 0.02026 0.0
O14 O 0.24278 0.09381 0.97159 0.0
O15 O 0.16505 0.07449 0.94747 0.0
C16 C 0.15939 0.08408 0.16585 0.0
C17 C 0.252 -0.00247 0.93381 0.0
C18 C 0.25349 0.01859 0.1905 0.0
C19 C 0.16519 0.95494 0.07363 0.0
C20 C 0.25913 0.10937 0.01253 0.0
C21 C 0.13612 0.07212 0.97222 0.0
O22 O 0.18484 0.09725 0.13983 0.0
O23 O 0.05986 0.82042 0.86705 0.0
Zn24 Zn 0.03608 0.81151 0.94549 0.0
O25 O 0.03948 0.76417 0.96604 0.0
Zn26 Zn -0.0046 0.74393 0.97989 0.0
Zn27 Zn 0.05983 0.74044 0.89992 0.0
Zn28 Zn 0.06906 0.7598 0.0343 0.0
O29 O -0.00762 0.72675 0.06874 0.0
O30 O 0.04181 0.74507 0.10466 0.0
O31 O -0.01201 0.82729 0.9441 0.0
O32 O 0.96096 0.7805 0.97222 0.0
O33 O 0.98118 0.7132 0.9082 0.0
O34 O 0.02394 0.72371 0.84603 0.0
O35 O 0.08934 0.70309 0.92877 0.0
O36 O 0.06242 0.84046 1.00269 0.0
O37 O 0.10171 0.7226 0.02089 0.0
O38 O 0.09413 0.8036 0.0527 0.0
C39 C 0.08191 0.80322 0.83872 0.0
C40 C 0.01292 0.7317 0.11292 0.0
C41 C -0.0058 0.713 0.85506 0.0
C42 C 0.96084 0.81154 0.9569 0.0
C43 C 0.10553 0.70124 0.9784 0.0
C44 C 0.08653 0.83391 0.0387 0.0
O45 O 0.08668 0.77201 0.8494 0.0
O46 O 0.8306 0.92391 0.1432 0.0
Zn47 Zn 0.8193 0.94222 0.0608 0.0
O48 O 0.77217 0.93591 0.04223 0.0
Zn49 Zn 0.74984 0.97933 0.03441 0.0
Zn50 Zn 0.75344 0.91105 0.10799 0.0
Zn51 Zn 0.7669 0.9077 0.97228 0.0
O52 O 0.73361 0.98505 0.94494 0.0
O53 O 0.75093 0.93623 0.90513 0.0
O54 O 0.83353 -0.00936 0.05588 0.0
O55 O 0.78422 0.01646 0.0465 0.0
O56 O 0.71796 0.98689 0.10742 0.0
O57 O 0.735 0.94445 0.16582 0.0
O58 O 0.71764 0.87823 0.08146 0.0
O59 O 0.84736 0.91398 0.0059 0.0
O60 O 0.73183 0.87253 0.98455 0.0
O61 O 0.81045 0.88432 0.95133 0.0
C62 C 0.81869 0.89667 0.16543 0.0
C63 C 0.73835 0.96561 0.89902 0.0
C64 C 0.7204 0.97287 0.15965 0.0
C65 C 0.81612 0.01752 0.05243 0.0
C66 C 0.71373 0.86451 0.02976 0.0
C67 C 0.84055 0.89085 0.96775 0.0
O68 O 0.78978 0.88552 0.15028 0.0
O69 O 0.92606 0.15756 0.85281 0.0
Zn70 Zn 0.94514 0.16138 0.93634 0.0
O71 O 0.94291 0.20745 0.96365 0.0
Zn72 Zn -0.0123 0.22674 0.9723 0.0
Zn73 Zn 0.91899 0.23266 0.90443 0.0
Zn74 Zn 0.91483 0.21069 0.03404 0.0
O75 O -0.00836 0.24776 0.05863 0.0
O76 O 0.9424 0.23162 0.09854 0.0
O77 O -0.00779 0.14319 0.93986 0.0
O78 O 0.02142 0.18886 0.96712 0.0
O79 O -0.00034 0.25442 0.89546 0.0
O80 O 0.95083 0.25145 0.84655 0.0
O81 O 0.89191 0.26969 0.9402 0.0
O82 O 0.91502 0.13227 0.98701 0.0
O83 O 0.87599 0.24176 0.02211 0.0
O84 O 0.8948 0.16595 0.05897 0.0
C85 C 0.90063 0.17336 0.8322 0.0
C86 C 0.97125 0.24559 0.10378 0.0
C87 C 0.9819 0.25879 0.84762 0.0
C88 C 0.02002 0.15759 0.95306 0.0
C89 C 0.87298 0.26664 0.9862 0.0
C90 C 0.89682 0.13714 0.03357 0.0
O91 O 0.8906 0.20119 0.85494 0.0
O92 O 0.72431 0.01795 0.44643 0.0
Zn93 Zn 0.73391 0.0412 0.52822 0.0
O94 O 0.78047 0.05712 0.52926 0.0
Zn95 Zn 0.80182 0.04186 0.60082 0.0
Zn96 Zn 0.80552 0.04011 0.46128 0.0
Zn97 Zn 0.78377 0.10537 0.53308 0.0
O98 O 0.83167 0.07604 0.63843 0.0
O99 O 0.80343 0.12204 0.6116 0.0
O100 O 0.723 0.01409 0.60675 0.0
O101 O 0.76724 0.03092 0.6612 0.0
O102 O 0.82682 -0.00071 0.58676 0.0
O103 O 0.82889 -0.00343 0.48605 0.0
O104 O 0.83887 0.07614 0.43113 0.0
O105 O 0.7037 0.08188 0.52509 0.0
O106 O 0.81605 0.12183 0.47118 0.0
O107 O 0.73905 0.12586 0.52 0.0
C108 C 0.74145 0.01838 0.39721 0.0
C109 C 0.82561 0.1074 0.64375 0.0
C110 C 0.83521 0.98425 0.53829 0.0
C111 C 0.73845 0.01697 0.65755 0.0
C112 C 0.83763 0.10834 0.43626 0.0
C113 C 0.70944 0.11346 0.51947 0.0
O114 O 0.77204 0.02851 0.39599 0.0
O115 O 0.06105 0.1533 0.35998 0.0
Zn116 Zn 0.03818 0.16547 0.4377 0.0
O117 O 0.0484 0.21212 0.45609 0.0
Zn118 Zn 0.00759 0.23843 0.46469 0.0
Zn119 Zn 0.07375 0.23225 0.39202 0.0
Zn120 Zn 0.0769 0.21249 0.52617 0.0
O121 O 0.00489 0.25529 0.5533 0.0
O122 O 0.04904 0.22864 0.59461 0.0
O123 O -0.0114 0.15642 0.43205 0.0
O124 O 0.96787 0.20755 0.4478 0.0
O125 O 0.00212 0.27306 0.39565 0.0
O126 O 0.04259 0.25427 0.33534 0.0
O127 O 0.10759 0.26519 0.42281 0.0
O128 O 0.05868 0.13337 0.49734 0.0
O129 O 0.11392 0.24651 0.5173 0.0
O130 O 0.09659 0.16602 0.54322 0.0
C131 C 0.08603 0.1669 0.33298 0.0
C132 C 0.02284 0.24697 0.59932 0.0
C133 C 0.01561 0.27077 0.34315 0.0
C134 C 0.96356 0.17631 0.43573 0.0
C135 C 0.12198 0.26627 0.4742 0.0
C136 C 0.08453 0.13685 0.53093 0.0
O137 O 0.09622 0.1967 0.34478 0.0
O138 O 0.15002 0.91458 0.66517 0.0
Zn139 Zn 0.15705 0.93886 0.58646 0.0
O140 O 0.2026 0.93487 0.55946 0.0
Zn141 Zn 0.22542 0.97751 0.56796 0.0
Zn142 Zn 0.22187 0.9012 0.60974 0.0
Zn143 Zn 0.2045 0.91826 0.47829 0.0
O144 O 0.25267 0.98648 0.48951 0.0
O145 O 0.22087 0.95538 0.42632 0.0
O146 O 0.14202 0.98719 0.58943 0.0
O147 O 0.19015 0.01424 0.56992 0.0
O148 O 0.24819 0.97823 0.6522 0.0
O149 O 0.24442 0.92391 0.67873 0.0
O150 O 0.25491 0.87316 0.56522 0.0
O151 O 0.12808 0.91294 0.52929 0.0
O152 O 0.23975 0.8832 0.46989 0.0
O153 O 0.16057 0.89669 0.4526 0.0
C154 C 0.15923 0.88396 0.6719 0.0
C155 C 0.24362 0.97763 0.43586 0.0
C156 C 0.25206 0.95445 0.69108 0.0
C157 C 0.15859 0.01438 0.58064 0.0
C158 C 0.25807 0.86837 0.50863 0.0
C159 C 0.13231 0.89698 0.47987 0.0
O160 O 0.18479 0.87232 0.64402 0.0
O161 O 0.9184 0.82983 0.3601 0.0
Zn162 Zn 0.9389 0.8215 0.44092 0.0
O163 O 0.93037 0.77622 0.46815 0.0
Zn164 Zn 0.97217 0.75206 0.48204 0.0
Zn165 Zn 0.90665 0.75387 0.40508 0.0
Zn166 Zn 0.89991 0.77643 0.53598 0.0
O167 O 0.97183 0.73327 0.56997 0.0
O168 O 0.92407 0.75544 0.60568 0.0
O169 O -0.01232 0.83316 0.44219 0.0
O170 O 0.01064 0.78552 0.4758 0.0
O171 O 0.98231 0.72007 0.41007 0.0
O172 O 0.9397 0.73374 0.34958 0.0
O173 O 0.87631 0.7185 0.43939 0.0
O174 O 0.9149 0.85444 0.49236 0.0
O175 O 0.85977 0.74642 0.52124 0.0
O176 O 0.88383 0.82388 0.55605 0.0
C177 C 0.89191 0.81639 0.33813 0.0
C178 C 0.95118 0.73878 0.61369 0.0
C179 C 0.96832 0.72033 0.35772 0.0
C180 C 0.01329 0.81617 0.45833 0.0
C181 C 0.85684 0.72161 0.48481 0.0
C182 C 0.89286 0.85228 0.53381 0.0
O183 O 0.88103 0.78768 0.35593 0.0
O184 O 0.64749 0.55327 0.65051 0.0
Zn185 Zn 0.65534 0.53584 0.56629 0.0
O186 O 0.7012 0.54335 0.54188 0.0
Zn187 Zn 0.72371 0.50054 0.53108 0.0
Zn188 Zn 0.72186 0.56801 0.60541 0.0
Zn189 Zn 0.70375 0.57368 0.47452 0.0
O190 O 0.74616 0.50046 0.44619 0.0
O191 O 0.72446 0.54797 0.40757 0.0
O192 O 0.64103 0.48752 0.55696 0.0
O193 O 0.68861 0.46371 0.52554 0.0
O194 O 0.74891 0.48862 0.61095 0.0
O195 O 0.7391 0.53533 0.66462 0.0
O196 O 0.75882 0.59834 0.57585 0.0
O197 O 0.62518 0.56424 0.5156 0.0
O198 O 0.73439 0.61289 0.48971 0.0
O199 O 0.65844 0.59295 0.4528 0.0
C200 C 0.6583 0.58211 0.66773 0.0
C201 C 0.74089 0.52053 0.40133 0.0
C202 C 0.7493 0.50497 0.66126 0.0
C203 C 0.65738 0.46192 0.53841 0.0
C204 C 0.75736 0.61705 0.52909 0.0
C205 C 0.62944 0.58614 0.4742 0.0
O206 O 0.68576 0.59449 0.64729 0.0
O207 O 0.5479 0.31266 0.3206 0.0
Zn208 Zn 0.53108 0.31101 0.40565 0.0
O209 O 0.53541 0.26675 0.44013 0.0
Zn210 Zn 0.49113 0.24825 0.45439 0.0
Zn211 Zn 0.55919 0.24177 0.38044 0.0
Zn212 Zn 0.56309 0.2666 0.51083 0.0
O213 O 0.49047 0.22552 0.53803 0.0
O214 O 0.53476 0.25195 0.57987 0.0
O215 O 0.48439 0.32937 0.41224 0.0
O216 O 0.45738 0.28713 0.45825 0.0
O217 O 0.47772 0.22033 0.37978 0.0
O218 O 0.52549 0.22144 0.32657 0.0
O219 O 0.58895 0.207 0.4163 0.0
O220 O 0.56143 0.34245 0.44999 0.0
O221 O 0.59894 0.23143 0.50535 0.0
O222 O 0.58489 0.31224 0.52397 0.0
C223 C 0.57555 0.2998 0.30303 0.0
C224 C 0.50869 0.23314 0.58407 0.0
C225 C 0.49429 0.21464 0.33103 0.0
C226 C 0.45806 0.31711 0.43673 0.0
C227 C 0.60447 0.2083 0.46661 0.0
C228 C 0.58138 0.33983 0.49479 0.0
O229 O 0.58697 0.27384 0.33018 0.0
O230 O 0.32955 0.43092 0.65413 0.0
Zn231 Zn 0.31731 0.45437 0.57656 0.0
O232 O 0.27112 0.44394 0.55667 0.0
Zn233 Zn 0.24356 0.484 0.55318 0.0
Zn234 Zn 0.25248 0.41436 0.61595 0.0
Zn235 Zn 0.27151 0.41931 0.48232 0.0
O236 O 0.22112 0.48515 0.4687 0.0
O237 O 0.25533 0.45049 0.41718 0.0
O238 O 0.32476 0.50428 0.58161 0.0
O239 O 0.27398 0.52497 0.56069 0.0
O240 O 0.21335 0.48746 0.62923 0.0
O241 O 0.22771 0.44053 0.67709 0.0
O242 O 0.22179 0.38003 0.58002 0.0
O243 O 0.35033 0.43477 0.51644 0.0
O244 O 0.23766 0.38183 0.48352 0.0
O245 O 0.31742 0.39789 0.46917 0.0
C246 C 0.3176 0.40333 0.67508 0.0
C247 C 0.23216 0.47288 0.4186 0.0
C248 C 0.21237 0.46866 0.67642 0.0
C249 C 0.30513 0.52921 0.57295 0.0
C250 C 0.21963 0.36958 0.52574 0.0
C251 C 0.34671 0.4082 0.48447 0.0
O252 O 0.28917 0.39152 0.65903 0.0
O253 O 0.41226 0.65012 0.37806 0.0
Zn254 Zn 0.43314 0.66469 0.45657 0.0
O255 O 0.43052 0.71342 0.46653 0.0
Zn256 Zn 0.47495 0.73357 0.47942 0.0
Zn257 Zn 0.41107 0.73239 0.39439 0.0
Zn258 Zn 0.4008 0.7234 0.53282 0.0
O259 O 0.47859 0.75293 0.56689 0.0
O260 O 0.42744 0.74041 0.60238 0.0
O261 O 0.48081 0.64825 0.45981 0.0
O262 O 0.50893 0.69631 0.47532 0.0
O263 O 0.48943 0.76259 0.40577 0.0
O264 O 0.44746 0.74967 0.34294 0.0
O265 O 0.37822 0.76878 0.41206 0.0
O266 O 0.40434 0.64079 0.51754 0.0
O267 O 0.36828 0.75904 0.50985 0.0
O268 O 0.37441 0.68232 0.55876 0.0
C269 C 0.39288 0.66559 0.34161 0.0
C270 C 0.45727 0.75143 0.61055 0.0
C271 C 0.47664 0.76172 0.35244 0.0
C272 C 0.50832 0.66445 0.46686 0.0
C273 C 0.36271 0.77506 0.46104 0.0
C274 C 0.38027 0.65101 0.55081 0.0
O275 O 0.38787 0.69725 0.34516 0.0
O276 O 0.21686 0.50307 0.96549 0.0
Zn277 Zn 0.22651 0.52815 0.0448 0.0
O278 O 0.27366 0.54148 0.04764 0.0
Zn279 Zn 0.29574 0.52285 0.11659 0.0
Zn280 Zn 0.29761 0.5277 0.97604 0.0
Zn281 Zn 0.2772 0.58927 0.05842 0.0
O282 O 0.32585 0.55666 0.15695 0.0
O283 O 0.29421 0.60196 0.14035 0.0
O284 O 0.21202 0.50691 0.12641 0.0
O285 O 0.26083 0.51064 0.17634 0.0
O286 O 0.32177 0.4817 0.09548 0.0
O287 O 0.32257 0.4843 0.99469 0.0
O288 O 0.33113 0.56471 0.94883 0.0
O289 O 0.19824 0.5696 0.03442 0.0
O290 O 0.312 0.60704 0.00362 0.0
O291 O 0.2344 0.61261 0.04084 0.0
C292 C 0.23268 0.50568 0.91505 0.0
C293 C 0.31816 0.58725 0.1679 0.0
C294 C 0.32994 0.46945 0.04433 0.0
C295 C 0.22943 0.50429 0.17506 0.0
C296 C 0.33211 0.59597 0.96373 0.0
C297 C 0.20486 0.60108 0.0326 0.0
O298 O 0.26269 0.51744 0.91203 0.0
O299 O 0.56008 0.64767 0.86481 0.0
Zn300 Zn 0.53563 0.65784 0.94198 0.0
O301 O 0.54329 0.7046 0.96399 0.0
Zn302 Zn 0.50097 0.72787 0.97776 0.0
Zn303 Zn 0.56636 0.72743 0.89943 0.0
Zn304 Zn 0.57295 0.70575 0.03283 0.0
O305 O 0.49987 0.74556 0.0664 0.0
O306 O 0.5472 0.72299 0.10307 0.0
O307 O 0.48635 0.64563 0.93779 0.0
O308 O 0.46337 0.6938 0.96858 0.0
O309 O 0.49031 0.76069 0.90724 0.0
O310 O 0.53273 0.74818 0.84565 0.0
O311 O 0.59884 0.76201 0.93111 0.0
O312 O 0.55795 0.62635 0.9996 0.0
O313 O 0.60959 0.73973 0.0217 0.0
O314 O 0.59337 0.65977 0.04996 0.0
C315 C 0.5833 0.66348 0.83657 0.0
C316 C 0.51986 0.73922 0.11073 0.0
C317 C 0.50398 0.76112 0.85464 0.0
C318 C 0.46055 0.6631 0.95138 0.0
C319 C 0.61516 0.76159 0.98071 0.0
C320 C 0.58268 0.63041 0.03549 0.0
O321 O 0.59044 0.69425 0.84777 0.0
O322 O 0.65552 0.41477 0.16472 0.0
Zn323 Zn 0.66035 0.43268 0.08083 0.0
O324 O 0.70597 0.42878 0.05314 0.0
Zn325 Zn 0.72625 0.47241 0.03759 0.0
Zn326 Zn 0.72968 0.40766 0.11753 0.0
Zn327 Zn 0.70861 0.39916 0.98467 0.0
O328 O 0.74489 0.47376 0.95026 0.0
O329 O 0.7224 0.42628 0.91229 0.0
O330 O 0.64388 0.48041 0.07702 0.0
O331 O 0.68928 0.50732 0.04179 0.0
O332 O 0.7576 0.48602 0.10787 0.0
O333 O 0.74716 0.44355 0.17135 0.0
O334 O 0.7675 0.38036 0.08476 0.0
O335 O 0.63022 0.40217 0.03241 0.0
O336 O 0.74437 0.36481 0.99741 0.0
O337 O 0.66481 0.37479 0.97011 0.0
C338 C 0.66974 0.389 0.18782 0.0
C339 C 0.73839 0.45408 0.90548 0.0
C340 C 0.75863 0.47304 0.16099 0.0
C341 C 0.65875 0.50733 0.05985 0.0
C342 C 0.76768 0.36256 0.03673 0.0
C343 C 0.63564 0.37968 0.99229 0.0
O344 O 0.69773 0.37885 0.16646 0.0
O345 O 0.41919 0.3299 0.86175 0.0
Zn346 Zn 0.44419 0.31178 0.93336 0.0
O347 O 0.43039 0.26587 0.94562 0.0
Zn348 Zn 0.46995 0.23901 0.95734 0.0
Zn349 Zn 0.40361 0.24919 0.88107 0.0
Zn350 Zn 0.39915 0.26737 0.0106 0.0
O351 O 0.46531 0.21709 0.04156 0.0
O352 O 0.42456 0.24999 0.08043 0.0
O353 O 0.49388 0.31831 0.92661 0.0
O354 O 0.51123 0.26936 0.9645 0.0
O355 O 0.47901 0.21283 0.87754 0.0
O356 O 0.43357 0.22725 0.82429 0.0
O357 O 0.3686 0.21643 0.90691 0.0
O358 O 0.43085 0.34041 0.00428 0.0
O359 O 0.3611 0.23455 1.00106 0.0
O360 O 0.38193 0.31559 0.02045 0.0
C361 C 0.39404 0.3183 0.83242 0.0
C362 C 0.44814 0.22839 0.08661 0.0
C363 C 0.46265 0.21421 0.82741 0.0
C364 C 0.51712 0.29961 0.94741 0.0
C365 C 0.35345 0.21504 0.95742 0.0
C366 C 0.40026 0.3422 0.0202 0.0
O367 O 0.38331 0.28811 0.83846 0.0
C368 C 0.15749 0.11889 0.25986 0.0
C369 C 0.14035 0.1046 0.20935 0.0
C370 C 0.08846 0.13402 0.23716 0.0
C371 C 0.10504 0.14658 0.28942 0.0
N372 N 0.15366 0.14856 0.35554 0.0
N373 N 0.08911 0.09554 0.15188 0.0
C374 C 0.13921 0.13867 0.30192 0.0
C375 C 0.10562 0.11106 0.1988 0.0
N376 N 0.19125 0.11342 0.26786 0.0
N377 N 0.05695 0.14552 0.22271 0.0
H378 H 0.10113 0.08106 0.11903 0.0
H379 H 0.06305 0.09566 0.1467 0.0
H380 H 0.04396 0.16313 0.249 0.0
H381 H 0.04453 0.13996 0.18236 0.0
H382 H 0.2062 0.12706 0.29805 0.0
H383 H 0.20509 0.09613 0.24249 0.0
H384 H 0.17683 0.13988 0.37102 0.0
H385 H 0.14147 0.16338 0.3878 0.0
C386 C 0.13789 0.82264 0.79909 0.0
C387 C 0.10237 0.8204 0.79227 0.0
C388 C 0.10443 0.85734 0.70333 0.0
C389 C 0.13977 0.86136 0.71232 0.0
N390 N 0.18959 0.85178 0.77301 0.0
N391 N 0.0527 0.82818 0.7313 0.0
C392 C 0.15649 0.84461 0.76067 0.0
C393 C 0.08581 0.83588 0.74269 0.0
N394 N 0.15404 0.80361 0.84194 0.0
N395 N 0.08857 0.8744 0.65761 0.0
H396 H 0.03872 0.8114 0.75789 0.0
H397 H 0.03953 0.83586 0.69299 0.0
H398 H 0.10135 0.88747 0.62377 0.0
H399 H 0.06256 0.87663 0.65366 0.0
H400 H 0.18003 0.80027 0.8431 0.0
H401 H 0.14165 0.78922 0.87462 0.0
H402 H 0.20183 0.84442 0.81255 0.0
H403 H 0.2045 0.86766 0.74649 0.0
C404 C 0.88803 0.84348 0.23644 0.0
C405 C 0.87278 0.83582 0.29295 0.0
C406 C 0.82401 0.87095 0.26801 0.0
C407 C 0.83843 0.87746 0.21035 0.0
N408 N 0.88539 0.87374 0.1409 0.0
N409 N 0.82548 0.83906 0.36162 0.0
C410 C 0.87092 0.86495 0.19496 0.0
C411 C 0.84049 0.84854 0.3084 0.0
N412 N 0.91804 0.82857 0.22148 0.0
N413 N 0.79581 0.8882 0.28573 0.0
H414 H 0.83754 0.82481 0.39481 0.0
H415 H 0.80027 0.84353 0.37166 0.0
H416 H 0.78376 0.90594 0.25834 0.0
H417 H 0.78602 0.88763 0.32947 0.0
H418 H 0.93015 0.83119 0.18001 0.0
H419 H 0.93049 0.81161 0.24985 0.0
H420 H 0.91044 0.86939 0.12973 0.0
H421 H 0.87276 0.88675 0.10689 0.0
C422 C 0.83785 0.11667 0.75268 0.0
C423 C 0.84317 0.12627 0.69161 0.0
C424 C 0.88398 0.16932 0.7234 0.0
C425 C 0.88081 0.1575 0.78375 0.0
N426 N 0.85979 0.11596 0.85469 0.0
N427 N 0.87517 0.15726 0.61697 0.0
C428 C 0.85924 0.12999 0.7981 0.0
C429 C 0.86711 0.15158 0.6763 0.0
N430 N 0.81162 0.09566 0.76751 0.0
N431 N 0.90315 0.19734 0.71114 0.0
H432 H 0.86305 0.14513 0.58098 0.0
H433 H 0.89593 0.17165 0.6039 0.0
H434 H 0.91709 0.21007 0.74422 0.0
H435 H 0.90354 0.20923 0.66901 0.0
H436 H 0.80448 0.09056 0.81203 0.0
H437 H 0.79492 0.08581 0.73543 0.0
H438 H 0.84824 0.09294 0.86486 0.0
H439 H 0.87422 0.12569 0.89013 0.0
C440 C 0.58566 0.62979 0.7411 0.0
C441 C 0.60284 0.64495 0.79062 0.0
C442 C 0.65466 0.61531 0.76346 0.0
C443 C 0.63841 0.60214 0.71136 0.0
N444 N 0.58948 0.59967 0.64592 0.0
N445 N 0.65529 0.65742 0.84266 0.0
C446 C 0.60407 0.60991 0.69904 0.0
C447 C 0.63789 0.63963 0.79952 0.0
N448 N 0.5518 0.63493 0.7338 0.0
N449 N 0.6853 0.60285 0.78088 0.0
H450 H 0.64409 0.67377 0.87357 0.0
H451 H 0.6815 0.65752 0.84538 0.0
H452 H 0.69775 0.58372 0.75732 0.0
H453 H 0.69664 0.60868 0.8222 0.0
H454 H 0.5367 0.62099 0.70429 0.0
H455 H 0.5382 0.65251 0.75911 0.0
H456 H 0.5656 0.60689 0.63164 0.0
H457 H 0.60202 0.58574 0.61314 0.0
C458 C 0.63118 0.30856 0.24918 0.0
C459 C 0.59823 0.32025 0.26282 0.0
C460 C 0.61653 0.37832 0.24523 0.0
C461 C 0.64908 0.36699 0.22894 0.0
N462 N 0.69038 0.32289 0.24149 0.0
N463 N 0.55767 0.36425 0.24217 0.0
C464 C 0.65741 0.33244 0.23809 0.0
C465 C 0.59023 0.35458 0.25165 0.0
N466 N 0.63673 0.27472 0.24204 0.0
N467 N 0.61107 0.41168 0.25774 0.0
H468 H 0.53819 0.34671 0.23656 0.0
H469 H 0.5512 0.38892 0.23018 0.0
H470 H 0.6308 0.42921 0.26 0.0
H471 H 0.58808 0.42059 0.27406 0.0
H472 H 0.65955 0.2648 0.22712 0.0
H473 H 0.61709 0.25707 0.24253 0.0
H474 H 0.69791 0.29845 0.25261 0.0
H475 H 0.71005 0.34045 0.24275 0.0
C476 C 0.35744 0.36844 0.81657 0.0
C477 C 0.37574 0.34095 0.79189 0.0
C478 C 0.35366 0.35298 0.69133 0.0
C479 C 0.33847 0.38267 0.71489 0.0
N480 N 0.32922 0.42157 0.79759 0.0
N481 N 0.3965 0.3103 0.70508 0.0
C482 C 0.34165 0.39151 0.77677 0.0
C483 C 0.37538 0.3341 0.72899 0.0
N484 N 0.35327 0.37118 0.87787 0.0
N485 N 0.34685 0.34242 0.63352 0.0
H486 H 0.41291 0.29595 0.73154 0.0
H487 H 0.39997 0.30696 0.65864 0.0
H488 H 0.33212 0.35619 0.60321 0.0
H489 H 0.35423 0.31895 0.61671 0.0
H490 H 0.33738 0.38877 0.89817 0.0
H491 H 0.36321 0.3537 0.90832 0.0
H492 H 0.33405 0.43081 0.84099 0.0
H493 H 0.31613 0.4385 0.77008 0.0
C494 C 0.32154 0.61793 0.26607 0.0
C495 C 0.33773 0.60647 0.21277 0.0
C496 C 0.39095 0.63207 0.24565 0.0
C497 C 0.37396 0.64585 0.29647 0.0
N498 N 0.32216 0.65693 0.35043 0.0
N499 N 0.38589 0.6067 0.14592 0.0
C500 C 0.33894 0.64037 0.30523 0.0
C501 C 0.372 0.61448 0.20094 0.0
N502 N 0.29006 0.6062 0.28053 0.0
N503 N 0.42508 0.63596 0.24007 0.0
H504 H 0.37262 0.59426 0.11163 0.0
H505 H 0.40965 0.61487 0.13218 0.0
H506 H 0.43952 0.6504 0.27009 0.0
H507 H 0.43947 0.6233 0.20784 0.0
H508 H 0.27846 0.61072 0.32207 0.0
H509 H 0.27667 0.58929 0.25322 0.0
H510 H 0.296 0.65711 0.35413 0.0
H511 H 0.33408 0.67271 0.38171 0.0
C512 C 0.13241 0.90641 0.11852 0.0
C513 C 0.14781 0.92198 0.06743 0.0
C514 C 0.1294 0.87516 1.00295 0.0
C515 C 0.11038 0.86181 0.0519 0.0
N516 N 0.09193 0.86483 0.15564 0.0
N517 N 0.15637 0.92431 0.95914 0.0
C518 C 0.11157 0.87728 0.10984 0.0
C519 C 0.14531 0.90708 0.00918 0.0
N520 N 0.13816 0.91924 0.17516 0.0
N521 N 0.13266 0.85696 0.95058 0.0
H522 H 0.16797 0.94801 0.96134 0.0
H523 H 0.15139 0.9165 0.91492 0.0
H524 H 0.12151 0.83326 0.94453 0.0
H525 H 0.14908 0.86376 0.91577 0.0
H526 H 0.13026 0.90743 0.21489 0.0
H527 H 0.15314 0.94061 0.18268 0.0
H528 H 0.08875 0.87694 0.19714 0.0
H529 H 0.07723 0.84302 0.15079 0.0
C530 C 0.89116 0.87208 0.90887 0.0
C531 C 0.86737 0.86622 0.95538 0.0
C532 C 0.90462 0.82511 1.00304 0.0
C533 C 0.92819 0.82971 0.95514 0.0
N534 N 0.93908 0.85026 0.8536 0.0
N535 N 0.84674 0.83059 0.03608 0.0
C536 C 0.9201 0.85107 0.90526 0.0
C537 C 0.87244 0.84019 0.99843 0.0
N538 N 0.88638 0.89804 0.86895 0.0
N539 N 0.91368 0.80863 0.05506 0.0
H540 H 0.82296 0.84172 0.0349 0.0
H541 H 0.84801 0.80953 0.06436 0.0
H542 H 0.9381 0.80044 0.06392 0.0
H543 H 0.89802 0.80653 0.09274 0.0
H544 H 0.90475 0.90606 0.83837 0.0
H545 H 0.86455 0.9127 0.86885 0.0
H546 H 0.93248 0.86307 0.8141 0.0
H547 H 0.95939 0.83393 0.84781 0.0
C548 C 0.88105 0.08495 0.09183 0.0
C549 C 0.8725 0.11041 0.04971 0.0
C550 C 0.82564 0.07635 0.01161 0.0
C551 C 0.83363 0.05074 0.0545 0.0
N552 N 0.86188 0.03584 0.14788 0.0
N553 N 0.83067 0.13559 0.98489 0.0
C554 C 0.85924 0.05658 0.09856 0.0
C555 C 0.84256 0.10791 0.01513 0.0
N556 N 0.91023 0.08755 0.12436 0.0
N557 N 0.80398 0.06991 0.96469 0.0
H558 H 0.84285 0.15904 0.986 0.0
H559 H 0.80723 0.13609 0.96362 0.0
H560 H 0.79339 0.04624 0.95614 0.0
H561 H 0.79921 0.08715 0.93009 0.0
H562 H 0.91974 0.06793 0.15076 0.0
H563 H 0.92584 0.10886 0.12221 0.0
H564 H 0.87821 0.04062 0.18388 0.0
H565 H 0.84514 0.01593 0.15608 0.0
C566 C 0.07439 0.14088 1.00267 0.0
C567 C 0.0515 0.13737 0.95354 0.0
C568 C 0.08682 0.09236 0.91041 0.0
C569 C 0.11011 0.09739 0.95798 0.0
N570 N 0.13167 0.13339 0.03738 0.0
N571 N 0.04094 0.11613 0.85222 0.0
C572 C 0.10578 0.12418 0.99986 0.0
C573 C 0.05913 0.11494 0.90476 0.0
N574 N 0.06544 0.15813 0.05395 0.0
N575 N 0.09075 0.06573 0.87164 0.0
H576 H 0.02147 0.13326 0.84519 0.0
H577 H 0.04742 0.1026 0.81342 0.0
H578 H 0.11159 0.04973 0.87352 0.0
H579 H 0.07252 0.05847 0.84016 0.0
H580 H 0.08055 0.15932 0.0925 0.0
H581 H 0.04145 0.16797 0.06111 0.0
H582 H 0.13089 0.15467 0.06526 0.0
H583 H 0.15526 0.12186 0.03574 0.0
C584 C 0.82754 0.92175 0.53162 0.0
C585 C 0.84895 0.9498 0.54351 0.0
C586 C 0.8947 0.91147 0.57135 0.0
C587 C 0.87519 0.88385 0.54987 0.0
N588 N 0.8233 0.86225 0.50694 0.0
N589 N 0.90291 0.97237 0.57371 0.0
C590 C 0.84144 0.88871 0.53029 0.0
C591 C 0.88246 0.94497 0.56388 0.0
N592 N 0.79378 0.92666 0.5227 0.0
N593 N 0.92483 0.90536 0.59923 0.0
H594 H 0.8946 -0.00274 0.56906 0.0
H595 H 0.92861 0.97061 0.58243 0.0
H596 H 0.93391 0.88087 0.60586 0.0
H597 H 0.9392 0.92395 0.62061 0.0
H598 H 0.77625 0.907 0.52084 0.0
H599 H 0.7827 0.95056 0.5223 0.0
H600 H 0.80041 0.86516 0.4845 0.0
H601 H 0.83185 0.83738 0.50671 0.0
C602 C 0.86787 0.16412 0.43506 0.0
C603 C 0.86552 0.13062 0.41264 0.0
C604 C 0.92436 0.13604 0.38028 0.0
C605 C 0.92895 0.16286 0.42308 0.0
N606 N 0.90225 0.20115 0.49524 0.0
N607 N 0.88997 0.08858 0.34696 0.0
C608 C 0.8999 0.17707 0.45097 0.0
C609 C 0.89335 0.11762 0.37988 0.0
N610 N 0.83976 0.18364 0.44033 0.0
N611 N 0.94846 0.12978 0.33751 0.0
H612 H 0.86647 0.07811 0.33677 0.0
H613 H 0.91041 0.07533 0.32939 0.0
H614 H 0.96969 0.14512 0.33199 0.0
H615 H 0.94536 0.11231 0.30257 0.0
H616 H 0.8408 0.20903 0.45323 0.0
H617 H 0.81647 0.17574 0.42326 0.0
H618 H 0.88112 0.21041 0.51784 0.0
H619 H 0.92475 0.20849 0.51562 0.0
C620 C 0.11556 0.08533 0.49689 0.0
C621 C 0.10421 0.10604 0.5455 0.0
C622 C 0.13126 0.06778 0.61833 0.0
C623 C 0.13971 0.04584 0.56979 0.0
N624 N 0.13498 0.03035 0.46427 0.0
N625 N 0.09751 0.11529 0.65281 0.0
C626 C 0.13035 0.05361 0.50952 0.0
C627 C 0.11117 0.09693 0.60648 0.0
N628 N 0.11377 0.09669 0.43849 0.0
N629 N 0.14281 0.06094 0.67536 0.0
H630 H 0.08267 0.13664 0.64553 0.0
H631 H 0.09873 0.10808 0.69813 0.0
H632 H 0.15683 0.03936 0.68542 0.0
H633 H 0.14048 0.07756 0.71173 0.0
H634 H 0.12504 0.08443 0.40199 0.0
H635 H 0.10409 0.12024 0.42708 0.0
H636 H 0.12483 0.03293 0.42097 0.0
H637 H 0.14665 0.00704 0.47098 0.0
C638 C 0.08451 0.87605 0.41455 0.0
C639 C 0.10641 0.87162 0.46433 0.0
C640 C 0.06883 0.82936 0.50843 0.0
C641 C 0.04677 0.83301 0.4581 0.0
N642 N 0.03926 0.85194 0.35458 0.0
N643 N 0.12596 0.83564 0.54499 0.0
C644 C 0.05634 0.85394 0.40827 0.0
C645 C 0.10078 0.84521 0.50643 0.0
N646 N 0.09 0.90187 0.37458 0.0
N647 N 0.05858 0.81322 0.56013 0.0
H648 H 0.14992 0.84662 0.54377 0.0
H649 H 0.12414 0.8146 0.57331 0.0
H650 H 0.0342 0.80419 0.56698 0.0
H651 H 0.07322 0.81217 0.59927 0.0
H652 H 0.07276 0.90868 0.34117 0.0
H653 H 0.11111 0.91765 0.37722 0.0
H654 H 0.04702 0.86443 0.31538 0.0
H655 H 0.01948 0.83497 0.34732 0.0
C656 C 0.63949 0.41437 0.47054 0.0
C657 C 0.63926 0.42959 0.52882 0.0
C658 C 0.60062 0.38561 0.56578 0.0
C659 C 0.60307 0.36913 0.50893 0.0
N660 N 0.63094 0.36321 0.41218 0.0
N661 N 0.62508 0.42629 0.63511 0.0
C662 C 0.62443 0.3821 0.46281 0.0
C663 C 0.6214 0.41422 0.57746 0.0
N664 N 0.65244 0.43142 0.42181 0.0
N665 N 0.57745 0.37491 0.60754 0.0
H666 H 0.64026 0.44705 0.64538 0.0
H667 H 0.61562 0.41397 0.67324 0.0
H668 H 0.56175 0.35403 0.60065 0.0
H669 H 0.57189 0.38832 0.64692 0.0
H670 H 0.64997 0.42291 0.37732 0.0
H671 H 0.66269 0.45571 0.42476 0.0
H672 H 0.64891 0.37001 0.37992 0.0
H673 H 0.62096 0.33903 0.4054 0.0
C674 C 0.40112 0.37958 0.51684 0.0
C675 C 0.37678 0.38674 0.47073 0.0
C676 C 0.40422 0.34513 0.40426 0.0
C677 C 0.42963 0.34026 0.44846 0.0
N678 N 0.45654 0.35803 0.54119 0.0
N679 N 0.36084 0.38224 0.36536 0.0
C680 C 0.42946 0.35923 0.50282 0.0
C681 C 0.37991 0.37112 0.41289 0.0
N682 N 0.39645 0.39014 0.57524 0.0
N683 N 0.403 0.32461 0.35446 0.0
H684 H 0.34423 0.40253 0.36896 0.0
H685 H 0.36419 0.37395 0.32095 0.0
H686 H 0.42046 0.30541 0.34701 0.0
H687 H 0.38312 0.32465 0.32362 0.0
H688 H 0.41144 0.3822 0.61126 0.0
H689 H 0.37556 0.40342 0.59003 0.0
H690 H 0.45979 0.37466 0.57742 0.0
H691 H 0.47728 0.34238 0.53407 0.0
C692 C 0.31313 0.58699 0.52698 0.0
C693 C 0.31951 0.56388 0.57492 0.0
C694 C 0.36199 0.6027 0.61672 0.0
C695 C 0.35499 0.62562 0.56924 0.0
N696 N 0.31572 0.64514 0.49373 0.0
N697 N 0.34227 0.5546 0.67518 0.0
C698 C 0.32753 0.61974 0.52973 0.0
C699 C 0.34154 0.57328 0.62308 0.0
N700 N 0.2961 0.57701 0.47607 0.0
N701 N 0.38852 0.60874 0.65472 0.0
H702 H 0.32651 0.53377 0.68224 0.0
H703 H 0.35583 0.56181 0.71355 0.0
H704 H 0.40268 0.63105 0.65275 0.0
H705 H 0.39726 0.59112 0.68605 0.0
H706 H 0.29395 0.59222 0.43767 0.0
H707 H 0.28752 0.5524 0.46891 0.0
H708 H 0.29351 0.64287 0.46874 0.0
H709 H 0.32588 0.66951 0.49418 0.0
C710 C 0.54818 0.62429 0.4153 0.0
C711 C 0.54065 0.64601 0.46498 0.0
C712 C 0.59659 0.63574 0.50722 0.0
C713 C 0.60153 0.60979 0.46383 0.0
N714 N 0.58203 0.57762 0.37807 0.0
N715 N 0.55583 0.66822 0.56361 0.0
C716 C 0.57737 0.6036 0.41804 0.0
C717 C 0.5645 0.65095 0.51217 0.0
N718 N 0.52834 0.62449 0.36463 0.0
N719 N 0.62253 0.64552 0.54424 0.0
H720 H 0.5318 0.67787 0.57131 0.0
H721 H 0.57131 0.66988 0.60165 0.0
H722 H 0.64637 0.63453 0.5425 0.0
H723 H 0.62131 0.66652 0.57273 0.0
H724 H 0.53446 0.61157 0.32499 0.0
H725 H 0.50752 0.64028 0.35981 0.0
H726 H 0.5635 0.56937 0.34797 0.0
H727 H 0.60394 0.5631 0.3775 0.0
C728 C 0.35888 0.3793 0.07517 0.0
C729 C 0.38497 0.37606 0.03153 0.0
C730 C 0.37972 0.43664 0.00896 0.0
C731 C 0.3495 0.43772 0.04266 0.0
N732 N 0.30721 0.40797 0.10127 0.0
N733 N 0.41524 0.40223 0.94688 0.0
C734 C 0.3382 0.40852 0.07429 0.0
C735 C 0.39439 0.40491 0.99598 0.0
N736 N 0.35452 0.35517 0.11884 0.0
N737 N 0.39491 0.46593 0.99013 0.0
H738 H 0.42518 0.37973 0.93092 0.0
H739 H 0.4193 0.42215 0.91674 0.0
H740 H 0.3855 0.48988 1.00029 0.0
H741 H 0.41883 0.46644 0.97058 0.0
H742 H 0.3376 0.35791 0.15463 0.0
H743 H 0.37062 0.33454 0.12359 0.0
H744 H 0.2967 0.38606 0.11973 0.0
H745 H 0.29059 0.42832 0.09984 0.0
C746 C 0.38472 0.60947 0.9 0.0
C747 C 0.3608 0.61875 0.945 0.0
C748 C 0.40187 0.65633 0.99195 0.0
C749 C 0.42628 0.64766 0.94778 0.0
N750 N 0.4363 0.625 0.84738 0.0
N751 N 0.34291 0.66718 0.00432 0.0
C752 C 0.41651 0.6267 0.89797 0.0
C753 C 0.36803 0.64741 0.98162 0.0
N754 N 0.37672 0.58543 0.85791 0.0
N755 N 0.41071 0.67173 0.04512 0.0
H756 H 0.31797 0.6648 0.98986 0.0
H757 H 0.34783 0.68912 0.0292 0.0
H758 H 0.43565 0.67575 0.05819 0.0
H759 H 0.39321 0.67634 0.07944 0.0
H760 H 0.39449 0.57428 0.82955 0.0
H761 H 0.35208 0.57694 0.85123 0.0
H762 H 0.42903 0.61256 0.80782 0.0
H763 H 0.45831 0.63918 0.84221 0.0
C764 C 0.60539 0.58404 0.10235 0.0
C765 C 0.60436 0.60069 0.04558 0.0
C766 C 0.63577 0.5546 0.99833 0.0
C767 C 0.63932 0.53905 0.05572 0.0
N768 N 0.63107 0.54027 0.16413 0.0
N769 N 0.62517 0.6061 0.94329 0.0
C770 C 0.62507 0.55409 0.10842 0.0
C771 C 0.6216 0.58724 0.99477 0.0
N772 N 0.58691 0.59636 0.14967 0.0
N773 N 0.64432 0.53745 0.94672 0.0
H774 H 0.61575 0.63058 0.93928 0.0
H775 H 0.64049 0.59884 0.90731 0.0
H776 H 0.65366 0.51285 0.94719 0.0
H777 H 0.63876 0.5461 0.90325 0.0
H778 H 0.58363 0.58358 0.19051 0.0
H779 H 0.57315 0.61876 0.1467 0.0
H780 H 0.62435 0.55183 0.20474 0.0
H781 H 0.64501 0.5182 0.17007 0.0
C782 C 0.56408 0.31798 0.01675 0.0
C783 C 0.55084 0.31499 0.95709 0.0
C784 C 0.59465 0.35346 0.91891 0.0
C785 C 0.60823 0.3556 0.97818 0.0
N786 N 0.61211 0.33253 0.07927 0.0
N787 N 0.55845 0.32252 0.84963 0.0
C788 C 0.59491 0.33548 0.02577 0.0
C789 C 0.56772 0.33048 0.90754 0.0
N790 N 0.54639 0.306 0.06543 0.0
N791 N 0.60645 0.37433 0.87424 0.0
H792 H 0.53967 0.30477 0.84026 0.0
H793 H 0.57158 0.33063 0.8114 0.0
H794 H 0.62627 0.39136 0.88094 0.0
H795 H 0.59502 0.37659 0.83194 0.0
H796 H 0.55282 0.31144 0.1102 0.0
H797 H 0.52374 0.29289 0.06151 0.0
H798 H 0.60532 0.31552 0.11325 0.0
H799 H 0.63518 0.34449 0.08727 0.0
C800 C 0.23685 0.94726 0.80062 0.0
C801 C 0.25807 0.96259 0.75621 0.0
C802 C 0.28466 -0.00401 0.837 0.0
C803 C 0.26439 0.97891 0.88037 0.0
N804 N 0.23143 0.92971 0.90491 0.0
N805 N 0.30753 -0.00376 0.73469 0.0
C806 C 0.24473 0.95102 0.8625 0.0
C807 C 0.28389 0.98526 0.77515 0.0
N808 N 0.20688 0.93264 0.78471 0.0
N809 N 0.3035 0.0232 0.85479 0.0
H810 H 0.30778 0.98829 0.68959 0.0
H811 H 0.3284 0.01073 0.74716 0.0
H812 H 0.30542 0.03031 0.90029 0.0
H813 H 0.31591 0.03919 0.82452 0.0
H814 H 0.18956 0.92372 0.81653 0.0
H815 H 0.19713 0.93383 0.74098 0.0
H816 H 0.21855 0.90757 0.89319 0.0
H817 H 0.23655 0.93243 0.95105 0.0
C818 C 0.00938 0.74183 0.28353 0.0
C819 C -0.01173 0.71481 0.30171 0.0
C820 C -0.01242 0.69448 0.19614 0.0
C821 C 0.00278 0.72539 0.17715 0.0
N822 N 0.01916 0.7826 0.20455 0.0
N823 N 0.95567 0.66562 0.27497 0.0
C824 C 0.01141 0.75017 0.22138 0.0
C825 C 0.97702 0.69102 0.25781 0.0
N826 N 0.02671 0.76035 0.32553 0.0
N827 N 0.98414 0.66823 0.15635 0.0
H828 H 0.9492 0.66161 0.3203 0.0
H829 H 0.94346 0.64975 0.2442 0.0
H830 H -0.00754 0.66951 0.11159 0.0
H831 H 0.9759 0.64423 0.16932 0.0
H832 H 0.04445 0.7787 0.31352 0.0
H833 H 0.02666 0.75436 0.37146 0.0
H834 H 0.02281 0.80206 0.23585 0.0
H835 H 0.01754 0.79113 0.15992 0.0
C836 C 0.70602 -0.00281 0.81559 0.0
C837 C 0.73431 0.97797 0.83529 0.0
C838 C 0.75231 0.97253 0.7297 0.0
C839 C 0.72877 -0.00281 0.71187 0.0
N840 N 0.68373 0.03489 0.73806 0.0
N841 N 0.7902 0.95741 0.80978 0.0
C842 C 0.70546 0.00994 0.7548 0.0
C843 C 0.75898 0.96807 0.7919 0.0
N844 N 0.67954 0.00256 0.85378 0.0
N845 N 0.76998 0.95507 0.68684 0.0
H846 H 0.79838 0.95826 0.85468 0.0
H847 H 0.80957 0.9524 0.77917 0.0
H848 H 0.76558 0.95833 0.64052 0.0
H849 H 0.78611 0.93518 0.69765 0.0
H850 H 0.65723 0.01404 0.83996 0.0
H851 H 0.67864 -0.00725 0.89759 0.0
H852 H 0.66865 0.0479 0.76883 0.0
H853 H 0.68217 0.04347 0.69338 0.0
C854 C -0.00108 0.28736 0.17783 0.0
C855 C 0.98114 0.25662 0.16622 0.0
C856 C 0.9711 0.2509 0.27509 0.0
C857 C -0.0046 0.2761 0.28742 0.0
N858 N 0.0334 0.31868 0.25 0.0
N859 N 0.95972 0.20406 0.20892 0.0
C860 C 0.00944 0.29469 0.23846 0.0
C861 C 0.96962 0.23699 0.21629 0.0
N862 N 0.0049 0.30988 0.13218 0.0
N863 N 0.95053 0.23907 0.31988 0.0
H864 H 0.96239 0.19099 0.16813 0.0
H865 H 0.9534 0.18848 0.24538 0.0
H866 H 0.94963 0.25036 0.36252 0.0
H867 H 0.93143 0.22141 0.31178 0.0
H868 H 0.01541 0.33374 0.1396 0.0
H869 H -0.00371 0.30619 0.08804 0.0
H870 H 0.0474 0.33049 0.21604 0.0
H871 H 0.04002 0.32546 0.29422 0.0
C872 C 0.70051 0.96975 0.26634 0.0
C873 C 0.71087 -0.00942 0.21726 0.0
C874 C 0.7266 0.03459 0.29083 0.0
C875 C 0.72513 0.0102 0.33805 0.0
N876 N 0.70984 0.95397 0.37112 0.0
N877 N 0.73009 0.04571 0.18326 0.0
C878 C 0.71101 0.97783 0.32637 0.0
C879 C 0.72204 0.02419 0.2295 0.0
N880 N 0.6813 0.94176 0.25471 0.0
N881 N 0.73182 0.0679 0.30499 0.0
H882 H 0.72308 0.04162 0.13847 0.0
H883 H 0.74392 0.06791 0.18949 0.0
H884 H 0.73458 0.07627 0.34958 0.0
H885 H 0.72994 0.08748 0.2736 0.0
H886 H 0.67071 0.92674 0.28857 0.0
H887 H 0.67319 0.93591 0.21085 0.0
H888 H 0.70341 0.92877 0.36323 0.0
H889 H 0.71759 0.95873 0.41547 0.0
C890 C 0.0146 0.28421 0.69138 0.0
C891 C 0.01032 0.2526 0.66155 0.0
C892 C -0.00271 0.22537 0.75797 0.0
C893 C -0.002 0.25739 0.78725 0.0
N894 N 0.00388 0.31785 0.78191 0.0
N895 N -0.00977 0.19496 0.6637 0.0
C896 C 0.00575 0.28709 0.754 0.0
C897 C -0.00053 0.22374 0.69414 0.0
N898 N 0.02776 0.31105 0.66029 0.0
N899 N -0.00548 0.19637 0.7915 0.0
H900 H -0.00913 0.19305 0.61651 0.0
H901 H 0.97858 0.17434 0.6845 0.0
H902 H -0.00685 0.19638 0.83872 0.0
H903 H -0.0032 0.17225 0.77298 0.0
H904 H 0.03468 0.33379 0.68079 0.0
H905 H 0.03346 0.30981 0.61416 0.0
H906 H 0.00579 0.34079 0.75892 0.0
H907 H -0.00122 0.32022 0.82815 0.0
C908 C 0.28139 0.9839 0.34526 0.0
C909 C 0.25485 -0.00341 0.38189 0.0
C910 C 0.22774 0.02031 0.29339 0.0
C911 C 0.25512 0.01 0.25615 0.0
N912 N 0.31088 0.98656 0.24847 0.0
N913 N 0.20938 0.03587 0.39392 0.0
C914 C 0.28305 -0.00673 0.28266 0.0
C915 C 0.23077 0.01851 0.35687 0.0
N916 N 0.30402 0.96194 0.36988 0.0
N917 N 0.19741 0.02844 0.26818 0.0
H918 H 0.21108 0.03443 0.44109 0.0
H919 H 0.19269 0.0541 0.37777 0.0
H920 H 0.19264 0.02538 0.22211 0.0
H921 H 0.17594 0.03362 0.29373 0.0
H922 H 0.32175 0.94875 0.34443 0.0
H923 H 0.30395 0.95614 0.41605 0.0
H924 H 0.33312 0.97693 0.26647 0.0
H925 H 0.31237 -0.00706 0.20265 0.0
C926 C 0.98197 0.68842 0.75233 0.0
C927 C 0.97282 0.71083 0.79981 0.0
C928 C 0.95229 0.75135 0.72536 0.0
C929 C 0.95931 0.72839 0.67729 0.0
N930 N 0.97282 0.67104 0.64798 0.0
N931 N 0.93734 0.75706 0.83085 0.0
C932 C 0.97172 0.69557 0.69152 0.0
C933 C 0.95352 0.73979 0.78599 0.0
N934 N 0.00117 0.6608 0.76533 0.0
N935 N 0.94708 0.78494 0.71393 0.0
H936 H 0.93644 0.74835 0.87535 0.0
H937 H 0.92121 0.77725 0.82207 0.0
H938 H 0.94981 0.79567 0.67104 0.0
H939 H 0.94459 0.80287 0.74828 0.0
H940 H 0.01203 0.64558 0.73213 0.0
H941 H 0.00726 0.65422 0.80984 0.0
H942 H 0.97902 0.64598 0.6573 0.0
H943 H 0.96434 0.67493 0.60382 0.0
C944 C 0.72596 0.51803 0.29127 0.0
C945 C 0.74958 0.51063 0.33794 0.0
C946 C 0.78621 0.48469 0.26132 0.0
C947 C 0.76338 0.49472 0.21519 0.0
N948 N 0.71901 0.53306 0.1863 0.0
N949 N 0.80634 0.49403 0.36402 0.0
C950 C 0.73618 0.51599 0.2302 0.0
C951 C 0.78113 0.49613 0.32211 0.0
N952 N 0.69287 0.52414 0.3045 0.0
N953 N 0.81218 0.46361 0.24709 0.0
H954 H 0.80386 0.50322 0.40808 0.0
H955 H 0.83064 0.48616 0.3533 0.0
H956 H 0.81726 0.45654 0.2024 0.0
H957 H 0.82747 0.45226 0.27959 0.0
H958 H 0.67459 0.52718 0.27104 0.0
H959 H 0.68276 0.52139 0.34786 0.0
H960 H 0.70038 0.5507 0.19659 0.0
H961 H 0.7264 0.53308 0.14102 0.0
C962 C 0.48886 0.2543 0.68295 0.0
C963 C 0.49646 0.22608 0.64598 0.0
C964 C 0.48602 0.18786 0.73192 0.0
C965 C 0.48116 0.21647 0.76952 0.0
N966 N 0.48526 0.27694 0.78425 0.0
N967 N 0.50692 0.1663 0.63572 0.0
C968 C 0.48536 0.24967 0.746 0.0
C969 C 0.49641 0.19282 0.67052 0.0
N970 N 0.48341 0.28536 0.65727 0.0
N971 N 0.47979 0.15629 0.75443 0.0
H972 H 0.51392 0.16917 0.59042 0.0
H973 H 0.51062 0.142 0.65267 0.0
H974 H 0.47349 0.15229 0.79983 0.0
H975 H 0.47938 0.13453 0.72779 0.0
H976 H 0.47433 0.30611 0.68127 0.0
H977 H 0.48443 0.28957 0.61062 0.0
H978 H 0.49089 0.30151 0.77036 0.0
H979 H 0.48272 0.27457 0.83111 0.0
C980 C 0.21377 0.52452 0.27689 0.0
C981 C 0.21357 0.4976 0.23455 0.0
C982 C 0.20821 0.4572 0.31777 0.0
C983 C 0.21753 0.48318 0.35924 0.0
N984 N 0.22756 0.54264 0.37881 0.0
N985 N 0.20775 0.43837 0.21286 0.0
C986 C 0.21883 0.51738 0.33943 0.0
C987 C 0.20904 0.46394 0.25444 0.0
N988 N 0.21028 0.55693 0.25641 0.0
N989 N 0.19893 0.42614 0.33936 0.0
H990 H 0.20709 0.44306 0.16631 0.0
H991 H 0.20861 0.41282 0.22432 0.0
H992 H 0.19748 0.42102 0.38574 0.0
H993 H 0.18959 0.40678 0.31199 0.0
H994 H 0.20761 0.57778 0.28488 0.0
H995 H 0.2068 0.56231 0.21047 0.0
H996 H 0.23317 0.56725 0.36517 0.0
H997 H 0.23092 0.5388 0.42506 0.0
C998 C 0.45847 0.73287 0.71895 0.0
C999 C 0.46778 0.75738 0.67471 0.0
C1000 C 0.49534 0.7907 0.75499 0.0
C1001 C 0.48369 0.76717 0.79904 0.0
N1002 N 0.44426 0.72257 0.82362 0.0
N1003 N 0.48922 0.81334 0.6531 0.0
C1004 C 0.46157 0.74082 0.78121 0.0
C1005 C 0.48446 0.78755 0.69339 0.0
N1006 N 0.44899 0.70092 0.70184 0.0
N1007 N 0.51746 0.81548 0.77197 0.0
H1008 H 0.48118 0.81196 0.60815 0.0
H1009 H 0.49853 0.83703 0.66554 0.0
H1010 H 0.52415 0.81935 0.81725 0.0
H1011 H 0.53003 0.83104 0.74119 0.0
H1012 H 0.445 0.68138 0.73281 0.0
H1013 H 0.44937 0.69262 0.65696 0.0
H1014 H 0.42607 0.70453 0.81223 0.0
H1015 H 0.44481 0.72847 0.86957 0.0
C1016 C 0.20479 0.46449 0.84297 0.0
C1017 C 0.21507 0.49802 0.85703 0.0
C1018 C 0.20236 0.51568 0.75239 0.0
C1019 C 0.19948 0.48113 0.73632 0.0
N1020 N 0.17987 0.42658 0.76831 0.0
N1021 N 0.21754 0.55706 0.8296 0.0
C1022 C 0.19444 0.45688 0.78275 0.0
C1023 C 0.21146 0.52423 0.81313 0.0
N1024 N 0.20752 0.43946 0.8854 0.0
N1025 N 0.19496 0.53993 0.71045 0.0
H1026 H 0.22158 0.56419 0.87455 0.0
H1027 H 0.21912 0.57715 0.79928 0.0
H1028 H 0.18423 0.53386 0.66868 0.0
H1029 H 0.19546 0.56581 0.71897 0.0
H1030 H 0.20421 0.41388 0.87564 0.0
H1031 H 0.21504 0.444 0.92994 0.0
H1032 H 0.17302 0.40842 0.80025 0.0
H1033 H 0.17147 0.42146 0.72433 0.0
C1034 C 0.51682 0.72409 0.22079 0.0
C1035 C 0.51101 0.74837 0.1744 0.0
C1036 C 0.49009 0.78785 0.25178 0.0
C1037 C 0.49811 0.76407 0.29766 0.0
N1038 N 0.53031 0.71507 0.32621 0.0
N1039 N 0.5 0.80678 0.1486 0.0
C1040 C 0.51575 0.73433 0.28215 0.0
C1041 C 0.50002 0.78142 0.1906 0.0
N1042 N 0.52087 0.69061 0.20682 0.0
N1043 N 0.47218 0.81606 0.26662 0.0
H1044 H 0.5081 0.80331 0.10409 0.0
H1045 H 0.49497 0.83192 0.15947 0.0
H1046 H 0.46631 0.82198 0.31153 0.0
H1047 H 0.46212 0.83248 0.23446 0.0
H1048 H 0.5222 0.67173 0.23972 0.0
H1049 H 0.51847 0.68112 0.1629 0.0
H1050 H 0.54544 0.69425 0.31653 0.0
H1051 H 0.53075 0.72249 0.37151 0.0
C1052 C 0.77506 0.46784 0.81454 0.0
C1053 C 0.7428 0.46647 0.84246 0.0
C1054 C 0.7161 0.48152 0.74616 0.0
C1055 C 0.74837 0.48634 0.71962 0.0
N1056 N 0.80868 0.4869 0.72849 0.0
N1057 N 0.68303 0.47726 0.83795 0.0
C1058 C 0.77798 0.48012 0.75372 0.0
C1059 C 0.71343 0.47467 0.809 0.0
N1060 N 0.80263 0.45673 0.84569 0.0
N1061 N 0.68782 0.48349 0.71086 0.0
H1062 H 0.67976 0.4721 0.88391 0.0
H1063 H 0.66157 0.48747 0.81806 0.0
H1064 H 0.68861 0.4882 0.66435 0.0
H1065 H 0.66375 0.47757 0.72637 0.0
H1066 H 0.82635 0.45391 0.82625 0.0
H1067 H 0.80122 0.44825 0.89042 0.0
H1068 H 0.83122 0.48643 0.75263 0.0
H1069 H 0.81129 0.49462 0.68347 0.0
C1070 C 0.47276 0.24866 0.24698 0.0
C1071 C 0.4763 0.216 0.27278 0.0
C1072 C 0.4597 0.19011 0.17618 0.0
C1073 C 0.45992 0.22275 0.14922 0.0
N1074 N 0.47429 0.28223 0.15597 0.0
N1075 N 0.47647 0.15547 0.26226 0.0
C1076 C 0.46848 0.25179 0.18387 0.0
C1077 C 0.47065 0.18656 0.2375 0.0
N1078 N 0.47409 0.27692 0.28284 0.0
N1079 N 0.44821 0.16291 0.14391 0.0
H1080 H 0.48308 0.15244 0.30774 0.0
H1081 H 0.47631 0.1331 0.23728 0.0
H1082 H 0.44032 0.16481 0.09892 0.0
H1083 H 0.44441 0.13905 0.1628 0.0
H1084 H 0.46805 0.30105 0.26737 0.0
H1085 H 0.4782 0.27608 0.32944 0.0
H1086 H 0.48472 0.30311 0.17802 0.0
H1087 H 0.47213 0.28585 0.10934 0.0
C1088 C 0.34123 0.15462 0.97964 0.0
C1089 C 0.32906 0.18774 0.96809 0.0
C1090 C 0.27079 0.1684 0.97903 0.0
C1091 C 0.28307 0.13591 0.99485 0.0
N1092 N 0.32892 0.09754 0.01397 0.0
N1093 N 0.28354 0.22767 0.96054 0.0
C1094 C 0.31803 0.1288 0.996 0.0
C1095 C 0.29415 0.19507 0.96865 0.0
N1096 N 0.37495 0.14794 0.97459 0.0
N1097 N 0.23683 0.17353 0.97353 0.0
H1098 H 0.29995 0.24755 0.95027 0.0
H1099 H 0.25884 0.23559 0.96704 0.0
H1100 H 0.21891 0.1549 0.98319 0.0
H1101 H 0.22622 0.19548 0.95602 0.0
H1102 H 0.38514 0.12374 0.97563 0.0
H1103 H 0.39303 0.16655 0.96596 0.0
H1104 H 0.35398 0.09169 0.02285 0.0
H1105 H 0.31259 0.07742 0.0231 0.0
C1106 C 0.1494 0.62819 0.05407 0.0
C1107 C 0.17805 0.62486 0.01626 0.0
C1108 C 0.15875 0.67134 0.9522 0.0
C1109 C 0.12923 0.67342 0.98804 0.0
N1110 N 0.09258 0.64957 0.06429 0.0
N1111 N 0.2065 0.6375 0.92202 0.0
C1112 C 0.12334 0.65049 0.03635 0.0
C1113 C 0.18169 0.6447 0.96303 0.0
N1114 N 0.14782 0.61136 0.10817 0.0
N1115 N 0.16574 0.69573 0.90997 0.0
H1116 H 0.22387 0.61808 0.92817 0.0
H1117 H 0.20797 0.64871 0.87937 0.0
H1118 H 0.14963 0.71585 0.90065 0.0
H1119 H 0.1888 0.69762 0.88766 0.0
H1120 H 0.12928 0.61577 0.14059 0.0
H1121 H 0.16664 0.59502 0.12314 0.0
H1122 H 0.08572 0.63112 0.09571 0.0
H1123 H 0.07271 0.66534 0.0519 0.0
C1124 C 0.699 0.80455 0.00797 0.0
C1125 C 0.68822 0.8379 0.02143 0.0
C1126 C 0.62928 0.82046 0.01225 0.0
C1127 C 0.64022 0.78808 0.99295 0.0
N1128 N 0.68476 0.74982 0.96508 0.0
N1129 N 0.64391 0.87931 0.02925 0.0
C1130 C 0.67491 0.78021 0.98882 0.0
C1131 C 0.65355 0.84636 0.02197 0.0
N1132 N 0.73212 0.79597 0.0154 0.0
N1133 N 0.59581 0.82613 0.02287 0.0
H1134 H 0.66096 0.89898 0.03718 0.0
H1135 H 0.61928 0.88761 0.02306 0.0
H1136 H 0.57717 0.80792 0.01516 0.0
H1137 H 0.5867 0.84793 0.04359 0.0
H1138 H 0.74098 0.77127 0.01229 0.0
H1139 H 0.75044 0.81314 0.03007 0.0
H1140 H 0.70966 0.744 0.95476 0.0
H1141 H 0.66767 0.73124 0.95108 0.0
C1142 C 0.80822 0.33576 0.96465 0.0
C1143 C 0.796 0.33946 0.02477 0.0
C1144 C 0.84017 0.30173 0.05998 0.0
C1145 C 0.84726 0.29255 0.99905 0.0
N1146 N 0.83018 0.29548 0.8934 0.0
N1147 N 0.79586 0.31824 0.12808 0.0
C1148 C 0.82913 0.30801 0.9511 0.0
C1149 C 0.81064 0.32031 0.07228 0.0
N1150 N 0.80108 0.35916 0.92095 0.0
N1151 N 0.86199 0.2941 0.10584 0.0
H1152 H 0.77255 0.32892 0.1381 0.0
H1153 H 0.80485 0.30227 0.162 0.0
H1154 H 0.88556 0.2833 0.09837 0.0
H1155 H 0.85847 0.30265 0.15012 0.0
H1156 H 0.81172 0.3582 0.87775 0.0
H1157 H 0.78838 0.38165 0.93003 0.0
H1158 H 0.8151 0.30502 0.8587 0.0
H1159 H 0.84247 0.27313 0.88189 0.0
C1160 C 0.65468 0.1406 0.54713 0.0
C1161 C 0.68138 0.13619 0.50526 0.0
C1162 C 0.65862 0.18053 0.44026 0.0
C1163 C 0.6305 0.18308 0.47949 0.0
N1164 N 0.59811 0.16145 0.56378 0.0
N1165 N 0.70464 0.14584 0.40543 0.0
C1166 C 0.62742 0.16192 0.53118 0.0
C1167 C 0.68214 0.15434 0.44982 0.0
N1168 N 0.656 0.12553 0.60286 0.0
N1169 N 0.66377 0.20402 0.39561 0.0
H1170 H 0.72205 0.12633 0.41013 0.0
H1171 H 0.7038 0.15584 0.36176 0.0
H1172 H 0.64755 0.22426 0.38779 0.0
H1173 H 0.68584 0.20537 0.37014 0.0
H1174 H 0.63905 0.13081 0.63761 0.0
H1175 H 0.67569 0.1098 0.61625 0.0
H1176 H 0.59318 0.14405 0.59814 0.0
H1177 H 0.5774 0.17646 0.55295 0.0
C1178 C 0.18138 0.28666 0.47302 0.0
C1179 C 0.14698 0.29281 0.48579 0.0
C1180 C 0.15999 0.35047 0.5182 0.0
C1181 C 0.19474 0.34329 0.51101 0.0
N1182 N 0.23937 0.30367 0.48985 0.0
N1183 N 0.10329 0.3282 0.52743 0.0
C1184 C 0.20575 0.31118 0.49033 0.0
C1185 C 0.13618 0.32404 0.51045 0.0
N1186 N 0.1906 0.2576 0.4438 0.0
N1187 N 0.14972 0.38284 0.52987 0.0
H1188 H 0.08477 0.30976 0.52061 0.0
H1189 H 0.09479 0.3489 0.55224 0.0
H1190 H 0.16645 0.40308 0.53499 0.0
H1191 H 0.1246 0.39031 0.52914 0.0
H1192 H 0.21478 0.25329 0.42733 0.0
H1193 H 0.17339 0.23866 0.43197 0.0
H1194 H 0.24875 0.27955 0.48147 0.0
H1195 H 0.258 0.32095 0.50268 0.0
C1196 C 0.30234 0.78952 0.45538 0.0
C1197 C 0.33619 0.80048 0.46137 0.0
C1198 C 0.31805 0.85789 0.4845 0.0
C1199 C 0.28446 0.84572 0.48726 0.0
N1200 N 0.24355 0.80076 0.47706 0.0
N1201 N 0.37747 0.84392 0.48168 0.0
C1202 C 0.27617 0.81183 0.47237 0.0
C1203 C 0.34446 0.83449 0.47515 0.0
N1204 N 0.29546 0.75787 0.43329 0.0
N1205 N 0.32446 0.89179 0.49019 0.0
H1206 H 0.39746 0.82759 0.47269 0.0
H1207 H 0.38514 0.86727 0.49875 0.0
H1208 H 0.30554 0.90954 0.49792 0.0
H1209 H 0.34799 0.90274 0.48266 0.0
H1210 H 0.27133 0.74933 0.42263 0.0
H1211 H 0.31431 0.74089 0.42081 0.0
H1212 H 0.23636 0.77548 0.47357 0.0
H1213 H 0.22358 0.81675 0.48797 0.0
C1214 C 0.81389 0.67959 0.44767 0.0
C1215 C 0.83107 0.69522 0.49669 0.0
C1216 C 0.79611 0.66308 0.5675 0.0
C1217 C 0.78325 0.64352 0.51865 0.0
N1218 N 0.78965 0.62712 0.41319 0.0
N1219 N 0.8451 0.69292 0.60384 0.0
C1220 C 0.79496 0.64991 0.45886 0.0
C1221 C 0.82418 0.68447 0.55697 0.0
N1222 N 0.81437 0.69349 0.39099 0.0
N1223 N 0.78103 0.66259 0.62315 0.0
H1224 H 0.86787 0.70572 0.59787 0.0
H1225 H 0.84193 0.68323 0.64745 0.0
H1226 H 0.75873 0.64948 0.632 0.0
H1227 H 0.78848 0.67867 0.65824 0.0
H1228 H 0.79995 0.68381 0.35538 0.0
H1229 H 0.82551 0.71684 0.38153 0.0
H1230 H 0.80008 0.63015 0.37012 0.0
H1231 H 0.77891 0.60332 0.42025 0.0
loop_
_geom_bond_atom_site_label_1
_geom_bond_atom_site_label_2
_geom_bond_distance
_geom_bond_site_symmetry_2
_ccdc_geom_bond_type
O0 Zn1 1.953 . S
O0 C16 1.225 . S
Zn1 O0 1.953 . S
Zn1 O2 1.949 . S
Zn1 O8 1.919 . S
Zn1 O13 1.924 . S
O2 Zn1 1.949 . S
O2 Zn3 1.923 . S
O2 Zn4 1.950 . S
O2 Zn5 1.945 1_554 S
Zn3 O2 1.923 . S
Zn3 O6 1.933 1_554 S
Zn3 O9 1.941 1_545 S
Zn3 O10 1.965 . S
Zn4 O2 1.950 . S
Zn4 O11 1.938 . S
Zn4 O12 1.906 . S
Zn4 O22 1.953 . S
Zn5 O2 1.945 1_556 S
Zn5 O7 1.932 . S
Zn5 O14 1.977 . S
Zn5 O15 1.910 . S
O6 Zn3 1.933 1_556 S
O6 C17 1.226 . S
O7 Zn5 1.932 . S
O7 C17 1.307 . S
O8 Zn1 1.919 . S
O8 C19 1.253 1_545 S
O9 Zn3 1.941 1_565 S
O9 C19 1.283 . S
O10 Zn3 1.965 . S
O10 C18 1.303 . S
O11 Zn4 1.938 . S
O11 C18 1.247 . S
O12 Zn4 1.906 . S
O12 C20 1.304 . S
O13 Zn1 1.924 . S
O13 C21 1.311 1_554 S
O14 Zn5 1.977 . S
O14 C20 1.272 1_556 S
O15 Zn5 1.910 . S
O15 C21 1.231 . S
C16 O0 1.225 . S
C16 O22 1.298 . S
C17 O6 1.226 . S
C17 O7 1.307 . S
C18 O10 1.303 . S
C18 O11 1.247 . S
C19 O8 1.253 1_565 S
C19 O9 1.283 . S
C20 O12 1.304 . S
C20 O14 1.272 1_554 S
C21 O13 1.311 1_556 S
C21 O15 1.231 . S
O22 Zn4 1.953 . S
O22 C16 1.298 . S
O23 Zn24 1.953 . S
O23 C39 1.225 . S
Zn24 O23 1.953 . S
Zn24 O25 1.949 . S
Zn24 O31 1.919 . S
Zn24 O36 1.924 . S
O25 Zn24 1.949 . S
O25 Zn26 1.923 . S
O25 Zn27 1.950 . S
O25 Zn28 1.945 1_556 S
Zn26 O25 1.923 . S
Zn26 O29 1.933 1_556 S
Zn26 O32 1.941 1_455 S
Zn26 O33 1.965 . S
Zn27 O25 1.950 . S
Zn27 O34 1.938 . S
Zn27 O35 1.906 . S
Zn27 O45 1.953 . S
Zn28 O25 1.945 1_554 S
Zn28 O30 1.932 . S
Zn28 O37 1.977 . S
Zn28 O38 1.910 . S
O29 Zn26 1.933 1_554 S
O29 C40 1.226 . S
O30 Zn28 1.932 . S
O30 C40 1.307 . S
O31 Zn24 1.919 . S
O31 C42 1.253 1_455 S
O32 Zn26 1.941 1_655 S
O32 C42 1.283 . S
O33 Zn26 1.965 . S
O33 C41 1.303 . S
O34 Zn27 1.938 . S
O34 C41 1.247 . S
O35 Zn27 1.906 . S
O35 C43 1.304 . S
O36 Zn24 1.924 . S
O36 C44 1.311 1_556 S
O37 Zn28 1.977 . S
O37 C43 1.272 1_554 S
O38 Zn28 1.910 . S
O38 C44 1.231 . S
C39 O23 1.225 . S
C39 O45 1.298 . S
C40 O29 1.226 . S
C40 O30 1.307 . S
C41 O33 1.303 . S
C41 O34 1.247 . S
C42 O31 1.253 1_655 S
C42 O32 1.283 . S
C43 O35 1.304 . S
C43 O37 1.272 1_556 S
C44 O36 1.311 1_554 S
C44 O38 1.231 . S
O45 Zn27 1.953 . S
O45 C39 1.298 . S
O46 Zn47 1.953 . S
O46 C62 1.225 . S
Zn47 O46 1.953 . S
Zn47 O48 1.949 . S
Zn47 O54 1.919 . S
Zn47 O59 1.924 . S
O48 Zn47 1.949 . S
O48 Zn49 1.923 . S
O48 Zn50 1.950 . S
O48 Zn51 1.945 1_554 S
Zn49 O48 1.923 . S
Zn49 O52 1.933 1_554 S
Zn49 O55 1.941 1_565 S
Zn49 O56 1.965 . S
Zn50 O48 1.950 . S
Zn50 O57 1.938 . S
Zn50 O58 1.906 . S
Zn50 O68 1.953 . S
Zn51 O48 1.945 1_556 S
Zn51 O53 1.932 . S
Zn51 O60 1.977 . S
Zn51 O61 1.910 . S
O52 Zn49 1.933 1_556 S
O52 C63 1.226 . S
O53 Zn51 1.932 . S
O53 C63 1.307 . S
O54 Zn47 1.919 . S
O54 C65 1.253 1_565 S
O55 Zn49 1.941 1_545 S
O55 C65 1.283 . S
O56 Zn49 1.965 . S
O56 C64 1.303 . S
O57 Zn50 1.938 . S
O57 C64 1.247 . S
O58 Zn50 1.906 . S
O58 C66 1.304 . S
O59 Zn47 1.924 . S
O59 C67 1.311 1_554 S
O60 Zn51 1.977 . S
O60 C66 1.272 1_556 S
O61 Zn51 1.910 . S
O61 C67 1.231 . S
C62 O46 1.225 . S
C62 O68 1.298 . S
C63 O52 1.226 . S
C63 O53 1.307 . S
C64 O56 1.303 . S
C64 O57 1.247 . S
C65 O54 1.253 1_545 S
C65 O55 1.283 . S
C66 O58 1.304 . S
C66 O60 1.272 1_554 S
C67 O59 1.311 1_556 S
C67 O61 1.231 . S
O68 Zn50 1.953 . S
O68 C62 1.298 . S
O69 Zn70 1.953 . S
O69 C85 1.225 . S
Zn70 O69 1.953 . S
Zn70 O71 1.949 . S
Zn70 O77 1.919 . S
Zn70 O82 1.924 . S
O71 Zn70 1.949 . S
O71 Zn72 1.923 . S
O71 Zn73 1.950 . S
O71 Zn74 1.945 1_556 S
Zn72 O71 1.923 . S
Zn72 O75 1.933 1_556 S
Zn72 O78 1.941 1_655 S
Zn72 O79 1.965 . S
Zn73 O71 1.950 . S
Zn73 O80 1.938 . S
Zn73 O81 1.906 . S
Zn73 O91 1.953 . S
Zn74 O71 1.945 1_554 S
Zn74 O76 1.932 . S
Zn74 O83 1.977 . S
Zn74 O84 1.910 . S
O75 Zn72 1.933 1_554 S
O75 C86 1.226 . S
O76 Zn74 1.932 . S
O76 C86 1.307 . S
O77 Zn70 1.919 . S
O77 C88 1.253 1_655 S
O78 Zn72 1.941 1_455 S
O78 C88 1.283 . S
O79 Zn72 1.965 . S
O79 C87 1.303 . S
O80 Zn73 1.938 . S
O80 C87 1.247 . S
O81 Zn73 1.906 . S
O81 C89 1.304 . S
O82 Zn70 1.924 . S
O82 C90 1.311 1_556 S
O83 Zn74 1.977 . S
O83 C89 1.272 1_554 S
O84 Zn74 1.910 . S
O84 C90 1.231 . S
C85 O69 1.225 . S
C85 O91 1.298 . S
C86 O75 1.226 . S
C86 O76 1.307 . S
C87 O79 1.303 . S
C87 O80 1.247 . S
C88 O77 1.253 1_455 S
C88 O78 1.283 . S
C89 O81 1.304 . S
C89 O83 1.272 1_556 S
C90 O82 1.311 1_554 S
C90 O84 1.231 . S
O91 Zn73 1.953 . S
O91 C85 1.298 . S
O92 Zn93 1.953 . S
O92 C108 1.225 . S
Zn93 O92 1.953 . S
Zn93 O94 1.949 . S
Zn93 O100 1.919 . S
Zn93 O105 1.924 . S
O94 Zn93 1.949 . S
O94 Zn95 1.923 . S
O94 Zn96 1.950 . S
O94 Zn97 1.945 . S
Zn95 O94 1.923 . S
Zn95 O98 1.933 . S
Zn95 O101 1.941 . S
Zn95 O102 1.965 . S
Zn96 O94 1.950 . S
Zn96 O103 1.938 . S
Zn96 O104 1.906 . S
Zn96 O114 1.953 . S
Zn97 O94 1.945 . S
Zn97 O99 1.932 . S
Zn97 O106 1.977 . S
Zn97 O107 1.910 . S
O98 Zn95 1.933 . S
O98 C109 1.226 . S
O99 Zn97 1.932 . S
O99 C109 1.307 . S
O100 Zn93 1.919 . S
O100 C111 1.253 . S
O101 Zn95 1.941 . S
O101 C111 1.283 . S
O102 Zn95 1.965 . S
O102 C110 1.303 1_545 S
O103 Zn96 1.938 . S
O103 C110 1.247 1_545 S
O104 Zn96 1.906 . S
O104 C112 1.304 . S
O105 Zn93 1.924 . S
O105 C113 1.311 . S
O106 Zn97 1.977 . S
O106 C112 1.272 . S
O107 Zn97 1.910 . S
O107 C113 1.231 . S
C108 O92 1.225 . S
C108 O114 1.298 . S
C109 O98 1.226 . S
C109 O99 1.307 . S
C110 O102 1.303 1_565 S
C110 O103 1.247 1_565 S
C111 O100 1.253 . S
C111 O101 1.283 . S
C112 O104 1.304 . S
C112 O106 1.272 . S
C113 O105 1.311 . S
C113 O107 1.231 . S
O114 Zn96 1.953 . S
O114 C108 1.298 . S
O115 Zn116 1.953 . S
O115 C131 1.225 . S
Zn116 O115 1.953 . S
Zn116 O117 1.949 . S
Zn116 O123 1.919 . S
Zn116 O128 1.924 . S
O117 Zn116 1.949 . S
O117 Zn118 1.923 . S
O117 Zn119 1.950 . S
O117 Zn120 1.945 . S
Zn118 O117 1.923 . S
Zn118 O121 1.933 . S
Zn118 O124 1.941 1_455 S
Zn118 O125 1.965 . S
Zn119 O117 1.950 . S
Zn119 O126 1.938 . S
Zn119 O127 1.906 . S
Zn119 O137 1.953 . S
Zn120 O117 1.945 . S
Zn120 O122 1.932 . S
Zn120 O129 1.977 . S
Zn120 O130 1.910 . S
O121 Zn118 1.933 . S
O121 C132 1.226 . S
O122 Zn120 1.932 . S
O122 C132 1.307 . S
O123 Zn116 1.919 . S
O123 C134 1.253 1_455 S
O124 Zn118 1.941 1_655 S
O124 C134 1.283 . S
O125 Zn118 1.965 . S
O125 C133 1.303 . S
O126 Zn119 1.938 . S
O126 C133 1.247 . S
O127 Zn119 1.906 . S
O127 C135 1.304 . S
O128 Zn116 1.924 . S
O128 C136 1.311 . S
O129 Zn120 1.977 . S
O129 C135 1.272 . S
O130 Zn120 1.910 . S
O130 C136 1.231 . S
C131 O115 1.225 . S
C131 O137 1.298 . S
C132 O121 1.226 . S
C132 O122 1.307 . S
C133 O125 1.303 . S
C133 O126 1.247 . S
C134 O123 1.253 1_655 S
C134 O124 1.283 . S
C135 O127 1.304 . S
C135 O129 1.272 . S
C136 O128 1.311 . S
C136 O130 1.231 . S
O137 Zn119 1.953 . S
O137 C131 1.298 . S
O138 Zn139 1.953 . S
O138 C154 1.225 . S
Zn139 O138 1.953 . S
Zn139 O140 1.949 . S
Zn139 O146 1.919 . S
Zn139 O151 1.924 . S
O140 Zn139 1.949 . S
O140 Zn141 1.923 . S
O140 Zn142 1.950 . S
O140 Zn143 1.945 . S
Zn141 O140 1.923 . S
Zn141 O144 1.933 . S
Zn141 O147 1.941 1_565 S
Zn141 O148 1.965 . S
Zn142 O140 1.950 . S
Zn142 O149 1.938 . S
Zn142 O150 1.906 . S
Zn142 O160 1.953 . S
Zn143 O140 1.945 . S
Zn143 O145 1.932 . S
Zn143 O152 1.977 . S
Zn143 O153 1.910 . S
O144 Zn141 1.933 . S
O144 C155 1.226 . S
O145 Zn143 1.932 . S
O145 C155 1.307 . S
O146 Zn139 1.919 . S
O146 C157 1.253 1_565 S
O147 Zn141 1.941 1_545 S
O147 C157 1.283 . S
O148 Zn141 1.965 . S
O148 C156 1.303 . S
O149 Zn142 1.938 . S
O149 C156 1.247 . S
O150 Zn142 1.906 . S
O150 C158 1.304 . S
O151 Zn139 1.924 . S
O151 C159 1.311 . S
O152 Zn143 1.977 . S
O152 C158 1.272 . S
O153 Zn143 1.910 . S
O153 C159 1.231 . S
C154 O138 1.225 . S
C154 O160 1.298 . S
C155 O144 1.226 . S
C155 O145 1.307 . S
C156 O148 1.303 . S
C156 O149 1.247 . S
C157 O146 1.253 1_545 S
C157 O147 1.283 . S
C158 O150 1.304 . S
C158 O152 1.272 . S
C159 O151 1.311 . S
C159 O153 1.231 . S
O160 Zn142 1.953 . S
O160 C154 1.298 . S
O161 Zn162 1.953 . S
O161 C177 1.225 . S
Zn162 O161 1.953 . S
Zn162 O163 1.949 . S
Zn162 O169 1.919 . S
Zn162 O174 1.924 . S
O163 Zn162 1.949 . S
O163 Zn164 1.923 . S
O163 Zn165 1.950 . S
O163 Zn166 1.945 . S
Zn164 O163 1.923 . S
Zn164 O167 1.933 . S
Zn164 O170 1.941 1_655 S
Zn164 O171 1.965 . S
Zn165 O163 1.950 . S
Zn165 O172 1.938 . S
Zn165 O173 1.906 . S
Zn165 O183 1.953 . S
Zn166 O163 1.945 . S
Zn166 O168 1.932 . S
Zn166 O175 1.977 . S
Zn166 O176 1.910 . S
O167 Zn164 1.933 . S
O167 C178 1.226 . S
O168 Zn166 1.932 . S
O168 C178 1.307 . S
O169 Zn162 1.919 . S
O169 C180 1.253 1_655 S
O170 Zn164 1.941 1_455 S
O170 C180 1.283 . S
O171 Zn164 1.965 . S
O171 C179 1.303 . S
O172 Zn165 1.938 . S
O172 C179 1.247 . S
O173 Zn165 1.906 . S
O173 C181 1.304 . S
O174 Zn162 1.924 . S
O174 C182 1.311 . S
O175 Zn166 1.977 . S
O175 C181 1.272 . S
O176 Zn166 1.910 . S
O176 C182 1.231 . S
C177 O161 1.225 . S
C177 O183 1.298 . S
C178 O167 1.226 . S
C178 O168 1.307 . S
C179 O171 1.303 . S
C179 O172 1.247 . S
C180 O169 1.253 1_455 S
C180 O170 1.283 . S
C181 O173 1.304 . S
C181 O175 1.272 . S
C182 O174 1.311 . S
C182 O176 1.231 . S
O183 Zn165 1.953 . S
O183 C177 1.298 . S
O184 Zn185 1.953 . S
O184 C200 1.225 . S
Zn185 O184 1.953 . S
Zn185 O186 1.949 . S
Zn185 O192 1.919 . S
Zn185 O197 1.924 . S
O186 Zn185 1.949 . S
O186 Zn187 1.923 . S
O186 Zn188 1.950 . S
O186 Zn189 1.945 . S
Zn187 O186 1.923 . S
Zn187 O190 1.933 . S
Zn187 O193 1.941 . S
Zn187 O194 1.965 . S
Zn188 O186 1.950 . S
Zn188 O195 1.938 . S
Zn188 O196 1.906 . S
Zn188 O206 1.953 . S
Zn189 O186 1.945 . S
Zn189 O191 1.932 . S
Zn189 O198 1.977 . S
Zn189 O199 1.910 . S
O190 Zn187 1.933 . S
O190 C201 1.226 . S
O191 Zn189 1.932 . S
O191 C201 1.307 . S
O192 Zn185 1.919 . S
O192 C203 1.253 . S
O193 Zn187 1.941 . S
O193 C203 1.283 . S
O194 Zn187 1.965 . S
O194 C202 1.303 . S
O195 Zn188 1.938 . S
O195 C202 1.247 . S
O196 Zn188 1.906 . S
O196 C204 1.304 . S
O197 Zn185 1.924 . S
O197 C205 1.311 . S
O198 Zn189 1.977 . S
O198 C204 1.272 . S
O199 Zn189 1.910 . S
O199 C205 1.231 . S
C200 O184 1.225 . S
C200 O206 1.298 . S
C201 O190 1.226 . S
C201 O191 1.307 . S
C202 O194 1.303 . S
C202 O195 1.247 . S
C203 O192 1.253 . S
C203 O193 1.283 . S
C204 O196 1.304 . S
C204 O198 1.272 . S
C205 O197 1.311 . S
C205 O199 1.231 . S
O206 Zn188 1.953 . S
O206 C200 1.298 . S
O207 Zn208 1.953 . S
O207 C223 1.225 . S
Zn208 O207 1.953 . S
Zn208 O209 1.949 . S
Zn208 O215 1.919 . S
Zn208 O220 1.924 . S
O209 Zn208 1.949 . S
O209 Zn210 1.923 . S
O209 Zn211 1.950 . S
O209 Zn212 1.945 . S
Zn210 O209 1.923 . S
Zn210 O213 1.933 . S
Zn210 O216 1.941 . S
Zn210 O217 1.965 . S
Zn211 O209 1.950 . S
Zn211 O218 1.938 . S
Zn211 O219 1.906 . S
Zn211 O229 1.953 . S
Zn212 O209 1.945 . S
Zn212 O214 1.932 . S
Zn212 O221 1.977 . S
Zn212 O222 1.910 . S
O213 Zn210 1.933 . S
O213 C224 1.226 . S
O214 Zn212 1.932 . S
O214 C224 1.307 . S
O215 Zn208 1.919 . S
O215 C226 1.253 . S
O216 Zn210 1.941 . S
O216 C226 1.283 . S
O217 Zn210 1.965 . S
O217 C225 1.303 . S
O218 Zn211 1.938 . S
O218 C225 1.247 . S
O219 Zn211 1.906 . S
O219 C227 1.304 . S
O220 Zn208 1.924 . S
O220 C228 1.311 . S
O221 Zn212 1.977 . S
O221 C227 1.272 . S
O222 Zn212 1.910 . S
O222 C228 1.231 . S
C223 O207 1.225 . S
C223 O229 1.298 . S
C224 O213 1.226 . S
C224 O214 1.307 . S
C225 O217 1.303 . S
C225 O218 1.247 . S
C226 O215 1.253 . S
C226 O216 1.283 . S
C227 O219 1.304 . S
C227 O221 1.272 . S
C228 O220 1.311 . S
C228 O222 1.231 . S
O229 Zn211 1.953 . S
O229 C223 1.298 . S
O230 Zn231 1.953 . S
O230 C246 1.225 . S
Zn231 O230 1.953 . S
Zn231 O232 1.949 . S
Zn231 O238 1.919 . S
Zn231 O243 1.924 . S
O232 Zn231 1.949 . S
O232 Zn233 1.923 . S
O232 Zn234 1.950 . S
O232 Zn235 1.945 . S
Zn233 O232 1.923 . S
Zn233 O236 1.933 . S
Zn233 O239 1.941 . S
Zn233 O240 1.965 . S
Zn234 O232 1.950 . S
Zn234 O241 1.938 . S
Zn234 O242 1.906 . S
Zn234 O252 1.953 . S
Zn235 O232 1.945 . S
Zn235 O237 1.932 . S
Zn235 O244 1.977 . S
Zn235 O245 1.910 . S
O236 Zn233 1.933 . S
O236 C247 1.226 . S
O237 Zn235 1.932 . S
O237 C247 1.307 . S
O238 Zn231 1.919 . S
O238 C249 1.253 . S
O239 Zn233 1.941 . S
O239 C249 1.283 . S
O240 Zn233 1.965 . S
O240 C248 1.303 . S
O241 Zn234 1.938 . S
O241 C248 1.247 . S
O242 Zn234 1.906 . S
O242 C250 1.304 . S
O243 Zn231 1.924 . S
O243 C251 1.311 . S
O244 Zn235 1.977 . S
O244 C250 1.272 . S
O245 Zn235 1.910 . S
O245 C251 1.231 . S
C246 O230 1.225 . S
C246 O252 1.298 . S
C247 O236 1.226 . S
C247 O237 1.307 . S
C248 O240 1.303 . S
C248 O241 1.247 . S
C249 O238 1.253 . S
C249 O239 1.283 . S
C250 O242 1.304 . S
C250 O244 1.272 . S
C251 O243 1.311 . S
C251 O245 1.231 . S
O252 Zn234 1.953 . S
O252 C246 1.298 . S
O253 Zn254 1.953 . S
O253 C269 1.225 . S
Zn254 O253 1.953 . S
Zn254 O255 1.949 . S
Zn254 O261 1.919 . S
Zn254 O266 1.924 . S
O255 Zn254 1.949 . S
O255 Zn256 1.923 . S
O255 Zn257 1.950 . S
O255 Zn258 1.945 . S
Zn256 O255 1.923 . S
Zn256 O259 1.933 . S
Zn256 O262 1.941 . S
Zn256 O263 1.965 . S
Zn257 O255 1.950 . S
Zn257 O264 1.938 . S
Zn257 O265 1.906 . S
Zn257 O275 1.953 . S
Zn258 O255 1.945 . S
Zn258 O260 1.932 . S
Zn258 O267 1.977 . S
Zn258 O268 1.910 . S
O259 Zn256 1.933 . S
O259 C270 1.226 . S
O260 Zn258 1.932 . S
O260 C270 1.307 . S
O261 Zn254 1.919 . S
O261 C272 1.253 . S
O262 Zn256 1.941 . S
O262 C272 1.283 . S
O263 Zn256 1.965 . S
O263 C271 1.303 . S
O264 Zn257 1.938 . S
O264 C271 1.247 . S
O265 Zn257 1.906 . S
O265 C273 1.304 . S
O266 Zn254 1.924 . S
O266 C274 1.311 . S
O267 Zn258 1.977 . S
O267 C273 1.272 . S
O268 Zn258 1.910 . S
O268 C274 1.231 . S
C269 O253 1.225 . S
C269 O275 1.298 . S
C270 O259 1.226 . S
C270 O260 1.307 . S
C271 O263 1.303 . S
C271 O264 1.247 . S
C272 O261 1.253 . S
C272 O262 1.283 . S
C273 O265 1.304 . S
C273 O267 1.272 . S
C274 O266 1.311 . S
C274 O268 1.231 . S
O275 Zn257 1.953 . S
O275 C269 1.298 . S
O276 Zn277 1.953 1_556 S
O276 C292 1.225 . S
Zn277 O276 1.953 1_554 S
Zn277 O278 1.949 . S
Zn277 O284 1.919 . S
Zn277 O289 1.924 . S
O278 Zn277 1.949 . S
O278 Zn279 1.923 . S
O278 Zn280 1.950 1_554 S
O278 Zn281 1.945 . S
Zn279 O278 1.923 . S
Zn279 O282 1.933 . S
Zn279 O285 1.941 . S
Zn279 O286 1.965 . S
Zn280 O278 1.950 1_556 S
Zn280 O287 1.938 . S
Zn280 O288 1.906 . S
Zn280 O298 1.953 . S
Zn281 O278 1.945 . S
Zn281 O283 1.932 . S
Zn281 O290 1.977 . S
Zn281 O291 1.910 . S
O282 Zn279 1.933 . S
O282 C293 1.226 . S
O283 Zn281 1.932 . S
O283 C293 1.307 . S
O284 Zn277 1.919 . S
O284 C295 1.253 . S
O285 Zn279 1.941 . S
O285 C295 1.283 . S
O286 Zn279 1.965 . S
O286 C294 1.303 . S
O287 Zn280 1.938 . S
O287 C294 1.247 1_556 S
O288 Zn280 1.906 . S
O288 C296 1.304 . S
O289 Zn277 1.924 . S
O289 C297 1.311 . S
O290 Zn281 1.977 . S
O290 C296 1.272 1_554 S
O291 Zn281 1.910 . S
O291 C297 1.231 . S
C292 O276 1.225 . S
C292 O298 1.298 . S
C293 O282 1.226 . S
C293 O283 1.307 . S
C294 O286 1.303 . S
C294 O287 1.247 1_554 S
C295 O284 1.253 . S
C295 O285 1.283 . S
C296 O288 1.304 . S
C296 O290 1.272 1_556 S
C297 O289 1.311 . S
C297 O291 1.231 . S
O298 Zn280 1.953 . S
O298 C292 1.298 . S
O299 Zn300 1.953 . S
O299 C315 1.225 . S
Zn300 O299 1.953 . S
Zn300 O301 1.949 . S
Zn300 O307 1.919 . S
Zn300 O312 1.924 . S
O301 Zn300 1.949 . S
O301 Zn302 1.923 . S
O301 Zn303 1.950 . S
O301 Zn304 1.945 1_556 S
Zn302 O301 1.923 . S
Zn302 O305 1.933 1_556 S
Zn302 O308 1.941 . S
Zn302 O309 1.965 . S
Zn303 O301 1.950 . S
Zn303 O310 1.938 . S
Zn303 O311 1.906 . S
Zn303 O321 1.953 . S
Zn304 O301 1.945 1_554 S
Zn304 O306 1.932 . S
Zn304 O313 1.977 . S
Zn304 O314 1.910 . S
O305 Zn302 1.933 1_554 S
O305 C316 1.226 . S
O306 Zn304 1.932 . S
O306 C316 1.307 . S
O307 Zn300 1.919 . S
O307 C318 1.253 . S
O308 Zn302 1.941 . S
O308 C318 1.283 . S
O309 Zn302 1.965 . S
O309 C317 1.303 . S
O310 Zn303 1.938 . S
O310 C317 1.247 . S
O311 Zn303 1.906 . S
O311 C319 1.304 . S
O312 Zn300 1.924 . S
O312 C320 1.311 1_556 S
O313 Zn304 1.977 . S
O313 C319 1.272 1_554 S
O314 Zn304 1.910 . S
O314 C320 1.231 . S
C315 O299 1.225 . S
C315 O321 1.298 . S
C316 O305 1.226 . S
C316 O306 1.307 . S
C317 O309 1.303 . S
C317 O310 1.247 . S
C318 O307 1.253 . S
C318 O308 1.283 . S
C319 O311 1.304 . S
C319 O313 1.272 1_556 S
C320 O312 1.311 1_554 S
C320 O314 1.231 . S
O321 Zn303 1.953 . S
O321 C315 1.298 . S
O322 Zn323 1.953 . S
O322 C338 1.225 . S
Zn323 O322 1.953 . S
Zn323 O324 1.949 . S
Zn323 O330 1.919 . S
Zn323 O335 1.924 . S
O324 Zn323 1.949 . S
O324 Zn325 1.923 . S
O324 Zn326 1.950 . S
O324 Zn327 1.945 1_554 S
Zn325 O324 1.923 . S
Zn325 O328 1.933 1_554 S
Zn325 O331 1.941 . S
Zn325 O332 1.965 . S
Zn326 O324 1.950 . S
Zn326 O333 1.938 . S
Zn326 O334 1.906 . S
Zn326 O344 1.953 . S
Zn327 O324 1.945 1_556 S
Zn327 O329 1.932 . S
Zn327 O336 1.977 . S
Zn327 O337 1.910 . S
O328 Zn325 1.933 1_556 S
O328 C339 1.226 . S
O329 Zn327 1.932 . S
O329 C339 1.307 . S
O330 Zn323 1.919 . S
O330 C341 1.253 . S
O331 Zn325 1.941 . S
O331 C341 1.283 . S
O332 Zn325 1.965 . S
O332 C340 1.303 . S
O333 Zn326 1.938 . S
O333 C340 1.247 . S
O334 Zn326 1.906 . S
O334 C342 1.304 . S
O335 Zn323 1.924 . S
O335 C343 1.311 1_554 S
O336 Zn327 1.977 . S
O336 C342 1.272 1_556 S
O337 Zn327 1.910 . S
O337 C343 1.231 . S
C338 O322 1.225 . S
C338 O344 1.298 . S
C339 O328 1.226 . S
C339 O329 1.307 . S
C340 O332 1.303 . S
C340 O333 1.247 . S
C341 O330 1.253 . S
C341 O331 1.283 . S
C342 O334 1.304 . S
C342 O336 1.272 1_554 S
C343 O335 1.311 1_556 S
C343 O337 1.231 . S
O344 Zn326 1.953 . S
O344 C338 1.298 . S
O345 Zn346 1.953 . S
O345 C361 1.225 . S
Zn346 O345 1.953 . S
Zn346 O347 1.949 . S
Zn346 O353 1.919 . S
Zn346 O358 1.924 . S
O347 Zn346 1.949 . S
O347 Zn348 1.923 . S
O347 Zn349 1.950 . S
O347 Zn350 1.945 1_556 S
Zn348 O347 1.923 . S
Zn348 O351 1.933 1_556 S
Zn348 O354 1.941 . S
Zn348 O355 1.965 . S
Zn349 O347 1.950 . S
Zn349 O356 1.938 . S
Zn349 O357 1.906 . S
Zn349 O367 1.953 . S
Zn350 O347 1.945 1_554 S
Zn350 O352 1.932 . S
Zn350 O359 1.977 . S
Zn350 O360 1.910 . S
O351 Zn348 1.933 1_554 S
O351 C362 1.226 . S
O352 Zn350 1.932 . S
O352 C362 1.307 . S
O353 Zn346 1.919 . S
O353 C364 1.253 . S
O354 Zn348 1.941 . S
O354 C364 1.283 . S
O355 Zn348 1.965 . S
O355 C363 1.303 . S
O356 Zn349 1.938 . S
O356 C363 1.247 . S
O357 Zn349 1.906 . S
O357 C365 1.304 . S
O358 Zn346 1.924 . S
O358 C366 1.311 1_556 S
O359 Zn350 1.977 . S
O359 C365 1.272 1_554 S
O360 Zn350 1.910 . S
O360 C366 1.231 . S
C361 O345 1.225 . S
C361 O367 1.298 . S
C362 O351 1.226 . S
C362 O352 1.307 . S
C363 O355 1.303 . S
C363 O356 1.247 . S
C364 O353 1.253 . S
C364 O354 1.283 . S
C365 O357 1.304 . S
C365 O359 1.272 1_556 S
C366 O358 1.311 1_554 S
C366 O360 1.231 . S
O367 Zn349 1.953 . S
O367 C361 1.298 . S
C368 C369 1.363 . S
C368 C374 1.379 . S
C368 N376 1.356 . S
C369 C368 1.363 . S
C369 C375 1.363 . S
C370 C371 1.363 . S
C370 C375 1.379 . S
C370 N377 1.356 . S
C371 C370 1.363 . S
C371 C374 1.363 . S
N372 C374 1.356 . S
N372 H384 0.984 . S
N372 H385 0.985 . S
N373 C375 1.356 . S
N373 H378 0.984 . S
N373 H379 0.985 . S
C374 C368 1.379 . S
C374 C371 1.363 . S
C374 N372 1.356 . S
C375 C369 1.363 . S
C375 C370 1.379 . S
C375 N373 1.356 . S
N376 C368 1.356 . S
N376 H382 0.984 . S
N376 H383 0.984 . S
N377 C370 1.356 . S
N377 H380 0.984 . S
N377 H381 0.985 . S
H378 N373 0.984 . S
H379 N373 0.985 . S
H380 N377 0.984 . S
H381 N377 0.985 . S
H382 N376 0.984 . S
H383 N376 0.984 . S
H384 N372 0.984 . S
H385 N372 0.985 . S
C386 C387 1.363 . S
C386 C392 1.379 . S
C386 N394 1.356 . S
C387 C386 1.363 . S
C387 C393 1.363 . S
C388 C389 1.363 . S
C388 C393 1.379 . S
C388 N395 1.356 . S
C389 C388 1.363 . S
C389 C392 1.363 . S
N390 C392 1.356 . S
N390 H402 0.984 . S
N390 H403 0.985 . S
N391 C393 1.356 . S
N391 H396 0.984 . S
N391 H397 0.985 . S
C392 C386 1.379 . S
C392 C389 1.363 . S
C392 N390 1.356 . S
C393 C387 1.363 . S
C393 C388 1.379 . S
C393 N391 1.356 . S
N394 C386 1.356 . S
N394 H400 0.984 . S
N394 H401 0.984 . S
N395 C388 1.356 . S
N395 H398 0.984 . S
N395 H399 0.985 . S
H396 N391 0.984 . S
H397 N391 0.985 . S
H398 N395 0.984 . S
H399 N395 0.985 . S
H400 N394 0.984 . S
H401 N394 0.984 . S
H402 N390 0.984 . S
H403 N390 0.985 . S
C404 C405 1.363 . S
C404 C410 1.379 . S
C404 N412 1.356 . S
C405 C404 1.363 . S
C405 C411 1.363 . S
C406 C407 1.363 . S
C406 C411 1.379 . S
C406 N413 1.356 . S
C407 C406 1.363 . S
C407 C410 1.363 . S
N408 C410 1.356 . S
N408 H420 0.984 . S
N408 H421 0.985 . S
N409 C411 1.356 . S
N409 H414 0.984 . S
N409 H415 0.985 . S
C410 C404 1.379 . S
C410 C407 1.363 . S
C410 N408 1.356 . S
C411 C405 1.363 . S
C411 C406 1.379 . S
C411 N409 1.356 . S
N412 C404 1.356 . S
N412 H418 0.984 . S
N412 H419 0.984 . S
N413 C406 1.356 . S
N413 H416 0.984 . S
N413 H417 0.985 . S
H414 N409 0.984 . S
H415 N409 0.985 . S
H416 N413 0.984 . S
H417 N413 0.985 . S
H418 N412 0.984 . S
H419 N412 0.984 . S
H420 N408 0.984 . S
H421 N408 0.985 . S
C422 C423 1.363 . S
C422 C428 1.379 . S
C422 N430 1.356 . S
C423 C422 1.363 . S
C423 C429 1.363 . S
C424 C425 1.363 . S
C424 C429 1.379 . S
C424 N431 1.356 . S
C425 C424 1.363 . S
C425 C428 1.363 . S
N426 C428 1.356 . S
N426 H438 0.984 . S
N426 H439 0.985 . S
N427 C429 1.356 . S
N427 H432 0.984 . S
N427 H433 0.985 . S
C428 C422 1.379 . S
C428 C425 1.363 . S
C428 N426 1.356 . S
C429 C423 1.363 . S
C429 C424 1.379 . S
C429 N427 1.356 . S
N430 C422 1.356 . S
N430 H436 0.984 . S
N430 H437 0.984 . S
N431 C424 1.356 . S
N431 H434 0.984 . S
N431 H435 0.985 . S
H432 N427 0.984 . S
H433 N427 0.985 . S
H434 N431 0.984 . S
H435 N431 0.985 . S
H436 N430 0.984 . S
H437 N430 0.984 . S
H438 N426 0.984 . S
H439 N426 0.985 . S
C440 C441 1.363 . S
C440 C446 1.379 . S
C440 N448 1.356 . S
C441 C440 1.363 . S
C441 C447 1.363 . S
C442 C443 1.363 . S
C442 C447 1.379 . S
C442 N449 1.356 . S
C443 C442 1.363 . S
C443 C446 1.363 . S
N444 C446 1.356 . S
N444 H456 0.984 . S
N444 H457 0.985 . S
N445 C447 1.356 . S
N445 H450 0.984 . S
N445 H451 0.985 . S
C446 C440 1.379 . S
C446 C443 1.363 . S
C446 N444 1.356 . S
C447 C441 1.363 . S
C447 C442 1.379 . S
C447 N445 1.356 . S
N448 C440 1.356 . S
N448 H454 0.984 . S
N448 H455 0.984 . S
N449 C442 1.356 . S
N449 H452 0.984 . S
N449 H453 0.985 . S
H450 N445 0.984 . S
H451 N445 0.985 . S
H452 N449 0.984 . S
H453 N449 0.985 . S
H454 N448 0.984 . S
H455 N448 0.984 . S
H456 N444 0.984 . S
H457 N444 0.985 . S
C458 C459 1.363 . S
C458 C464 1.379 . S
C458 N466 1.356 . S
C459 C458 1.363 . S
C459 C465 1.363 . S
C460 C461 1.363 . S
C460 C465 1.379 . S
C460 N467 1.356 . S
C461 C460 1.363 . S
C461 C464 1.363 . S
N462 C464 1.356 . S
N462 H474 0.984 . S
N462 H475 0.985 . S
N463 C465 1.356 . S
N463 H468 0.984 . S
N463 H469 0.985 . S
C464 C458 1.379 . S
C464 C461 1.363 . S
C464 N462 1.356 . S
C465 C459 1.363 . S
C465 C460 1.379 . S
C465 N463 1.356 . S
N466 C458 1.356 . S
N466 H472 0.984 . S
N466 H473 0.984 . S
N467 C460 1.356 . S
N467 H470 0.984 . S
N467 H471 0.985 . S
H468 N463 0.984 . S
H469 N463 0.985 . S
H470 N467 0.984 . S
H471 N467 0.985 . S
H472 N466 0.984 . S
H473 N466 0.984 . S
H474 N462 0.984 . S
H475 N462 0.985 . S
C476 C477 1.363 . S
C476 C482 1.379 . S
C476 N484 1.356 . S
C477 C476 1.363 . S
C477 C483 1.363 . S
C478 C479 1.363 . S
C478 C483 1.379 . S
C478 N485 1.356 . S
C479 C478 1.363 . S
C479 C482 1.363 . S
N480 C482 1.356 . S
N480 H492 0.984 . S
N480 H493 0.985 . S
N481 C483 1.356 . S
N481 H486 0.984 . S
N481 H487 0.985 . S
C482 C476 1.379 . S
C482 C479 1.363 . S
C482 N480 1.356 . S
C483 C477 1.363 . S
C483 C478 1.379 . S
C483 N481 1.356 . S
N484 C476 1.356 . S
N484 H490 0.984 . S
N484 H491 0.984 . S
N485 C478 1.356 . S
N485 H488 0.984 . S
N485 H489 0.985 . S
H486 N481 0.984 . S
H487 N481 0.985 . S
H488 N485 0.984 . S
H489 N485 0.985 . S
H490 N484 0.984 . S
H491 N484 0.984 . S
H492 N480 0.984 . S
H493 N480 0.985 . S
C494 C495 1.363 . S
C494 C500 1.379 . S
C494 N502 1.356 . S
C495 C494 1.363 . S
C495 C501 1.363 . S
C496 C497 1.363 . S
C496 C501 1.379 . S
C496 N503 1.356 . S
C497 C496 1.363 . S
C497 C500 1.363 . S
N498 C500 1.356 . S
N498 H510 0.984 . S
N498 H511 0.985 . S
N499 C501 1.356 . S
N499 H504 0.984 . S
N499 H505 0.985 . S
C500 C494 1.379 . S
C500 C497 1.363 . S
C500 N498 1.356 . S
C501 C495 1.363 . S
C501 C496 1.379 . S
C501 N499 1.356 . S
N502 C494 1.356 . S
N502 H508 0.984 . S
N502 H509 0.984 . S
N503 C496 1.356 . S
N503 H506 0.984 . S
N503 H507 0.985 . S
H504 N499 0.984 . S
H505 N499 0.985 . S
H506 N503 0.984 . S
H507 N503 0.985 . S
H508 N502 0.984 . S
H509 N502 0.984 . S
H510 N498 0.984 . S
H511 N498 0.985 . S
C512 C513 1.363 . S
C512 C518 1.379 . S
C512 N520 1.356 . S
C513 C512 1.363 . S
C513 C519 1.363 1_554 S
C514 C515 1.363 1_556 S
C514 C519 1.379 . S
C514 N521 1.356 . S
C515 C514 1.363 1_554 S
C515 C518 1.363 . S
N516 C518 1.356 . S
N516 H528 0.984 . S
N516 H529 0.985 . S
N517 C519 1.356 . S
N517 H522 0.984 . S
N517 H523 0.985 . S
C518 C512 1.379 . S
C518 C515 1.363 . S
C518 N516 1.356 . S
C519 C513 1.363 1_556 S
C519 C514 1.379 . S
C519 N517 1.356 . S
N520 C512 1.356 . S
N520 H526 0.984 . S
N520 H527 0.984 . S
N521 C514 1.356 . S
N521 H524 0.984 . S
N521 H525 0.985 . S
H522 N517 0.984 . S
H523 N517 0.985 . S
H524 N521 0.984 . S
H525 N521 0.985 . S
H526 N520 0.984 . S
H527 N520 0.984 . S
H528 N516 0.984 . S
H529 N516 0.985 . S
C530 C531 1.363 . S
C530 C536 1.379 . S
C530 N538 1.356 . S
C531 C530 1.363 . S
C531 C537 1.363 1_556 S
C532 C533 1.363 1_554 S
C532 C537 1.379 . S
C532 N539 1.356 . S
C533 C532 1.363 1_556 S
C533 C536 1.363 . S
N534 C536 1.356 . S
N534 H546 0.984 . S
N534 H547 0.985 . S
N535 C537 1.356 . S
N535 H540 0.984 . S
N535 H541 0.985 . S
C536 C530 1.379 . S
C536 C533 1.363 . S
C536 N534 1.356 . S
C537 C531 1.363 1_554 S
C537 C532 1.379 . S
C537 N535 1.356 . S
N538 C530 1.356 . S
N538 H544 0.984 . S
N538 H545 0.984 . S
N539 C532 1.356 . S
N539 H542 0.984 . S
N539 H543 0.985 . S
H540 N535 0.984 . S
H541 N535 0.985 . S
H542 N539 0.984 . S
H543 N539 0.985 . S
H544 N538 0.984 . S
H545 N538 0.984 . S
H546 N534 0.984 . S
H547 N534 0.985 . S
C548 C549 1.363 . S
C548 C554 1.379 . S
C548 N556 1.356 . S
C549 C548 1.363 . S
C549 C555 1.363 1_554 S
C550 C551 1.363 1_556 S
C550 C555 1.379 . S
C550 N557 1.356 . S
C551 C550 1.363 1_554 S
C551 C554 1.363 . S
N552 C554 1.356 . S
N552 H564 0.984 . S
N552 H565 0.985 . S
N553 C555 1.356 . S
N553 H558 0.984 . S
N553 H559 0.985 . S
C554 C548 1.379 . S
C554 C551 1.363 . S
C554 N552 1.356 . S
C555 C549 1.363 1_556 S
C555 C550 1.379 . S
C555 N553 1.356 . S
N556 C548 1.356 . S
N556 H562 0.984 . S
N556 H563 0.984 . S
N557 C550 1.356 . S
N557 H560 0.984 . S
N557 H561 0.985 . S
H558 N553 0.984 . S
H559 N553 0.985 . S
H560 N557 0.984 . S
H561 N557 0.985 . S
H562 N556 0.984 . S
H563 N556 0.984 . S
H564 N552 0.984 . S
H565 N552 0.985 . S
C566 C567 1.363 1_554 S
C566 C572 1.379 . S
C566 N574 1.356 . S
C567 C566 1.363 1_556 S
C567 C573 1.363 . S
C568 C569 1.363 . S
C568 C573 1.379 . S
C568 N575 1.356 . S
C569 C568 1.363 . S
C569 C572 1.363 1_556 S
N570 C572 1.356 . S
N570 H582 0.984 . S
N570 H583 0.985 . S
N571 C573 1.356 . S
N571 H576 0.984 . S
N571 H577 0.985 . S
C572 C566 1.379 . S
C572 C569 1.363 1_554 S
C572 N570 1.356 . S
C573 C567 1.363 . S
C573 C568 1.379 . S
C573 N571 1.356 . S
N574 C566 1.356 . S
N574 H580 0.984 . S
N574 H581 0.984 . S
N575 C568 1.356 . S
N575 H578 0.984 . S
N575 H579 0.985 . S
H576 N571 0.984 . S
H577 N571 0.985 . S
H578 N575 0.984 . S
H579 N575 0.985 . S
H580 N574 0.984 . S
H581 N574 0.984 . S
H582 N570 0.984 . S
H583 N570 0.985 . S
C584 C585 1.363 . S
C584 C590 1.379 . S
C584 N592 1.356 . S
C585 C584 1.363 . S
C585 C591 1.363 . S
C586 C587 1.363 . S
C586 C591 1.379 . S
C586 N593 1.356 . S
C587 C586 1.363 . S
C587 C590 1.363 . S
N588 C590 1.356 . S
N588 H600 0.984 . S
N588 H601 0.985 . S
N589 C591 1.356 . S
N589 H594 0.984 . S
N589 H595 0.985 . S
C590 C584 1.379 . S
C590 C587 1.363 . S
C590 N588 1.356 . S
C591 C585 1.363 . S
C591 C586 1.379 . S
C591 N589 1.356 . S
N592 C584 1.356 . S
N592 H598 0.984 . S
N592 H599 0.984 . S
N593 C586 1.356 . S
N593 H596 0.984 . S
N593 H597 0.985 . S
H594 N589 0.984 . S
H595 N589 0.985 . S
H596 N593 0.984 . S
H597 N593 0.985 . S
H598 N592 0.984 . S
H599 N592 0.984 . S
H600 N588 0.984 . S
H601 N588 0.985 . S
C602 C603 1.363 . S
C602 C608 1.379 . S
C602 N610 1.356 . S
C603 C602 1.363 . S
C603 C609 1.363 . S
C604 C605 1.363 . S
C604 C609 1.379 . S
C604 N611 1.356 . S
C605 C604 1.363 . S
C605 C608 1.363 . S
N606 C608 1.356 . S
N606 H618 0.984 . S
N606 H619 0.985 . S
N607 C609 1.356 . S
N607 H612 0.984 . S
N607 H613 0.985 . S
C608 C602 1.379 . S
C608 C605 1.363 . S
C608 N606 1.356 . S
C609 C603 1.363 . S
C609 C604 1.379 . S
C609 N607 1.356 . S
N610 C602 1.356 . S
N610 H616 0.984 . S
N610 H617 0.984 . S
N611 C604 1.356 . S
N611 H614 0.984 . S
N611 H615 0.985 . S
H612 N607 0.984 . S
H613 N607 0.985 . S
H614 N611 0.984 . S
H615 N611 0.985 . S
H616 N610 0.984 . S
H617 N610 0.984 . S
H618 N606 0.984 . S
H619 N606 0.985 . S
C620 C621 1.363 . S
C620 C626 1.379 . S
C620 N628 1.356 . S
C621 C620 1.363 . S
C621 C627 1.363 . S
C622 C623 1.363 . S
C622 C627 1.379 . S
C622 N629 1.356 . S
C623 C622 1.363 . S
C623 C626 1.363 . S
N624 C626 1.356 . S
N624 H636 0.984 . S
N624 H637 0.985 . S
N625 C627 1.356 . S
N625 H630 0.984 . S
N625 H631 0.985 . S
C626 C620 1.379 . S
C626 C623 1.363 . S
C626 N624 1.356 . S
C627 C621 1.363 . S
C627 C622 1.379 . S
C627 N625 1.356 . S
N628 C620 1.356 . S
N628 H634 0.984 . S
N628 H635 0.984 . S
N629 C622 1.356 . S
N629 H632 0.984 . S
N629 H633 0.985 . S
H630 N625 0.984 . S
H631 N625 0.985 . S
H632 N629 0.984 . S
H633 N629 0.985 . S
H634 N628 0.984 . S
H635 N628 0.984 . S
H636 N624 0.984 . S
H637 N624 0.985 . S
C638 C639 1.363 . S
C638 C644 1.379 . S
C638 N646 1.356 . S
C639 C638 1.363 . S
C639 C645 1.363 . S
C640 C641 1.363 . S
C640 C645 1.379 . S
C640 N647 1.356 . S
C641 C640 1.363 . S
C641 C644 1.363 . S
N642 C644 1.356 . S
N642 H654 0.984 . S
N642 H655 0.985 . S
N643 C645 1.356 . S
N643 H648 0.984 . S
N643 H649 0.985 . S
C644 C638 1.379 . S
C644 C641 1.363 . S
C644 N642 1.356 . S
C645 C639 1.363 . S
C645 C640 1.379 . S
C645 N643 1.356 . S
N646 C638 1.356 . S
N646 H652 0.984 . S
N646 H653 0.984 . S
N647 C640 1.356 . S
N647 H650 0.984 . S
N647 H651 0.985 . S
H648 N643 0.984 . S
H649 N643 0.985 . S
H650 N647 0.984 . S
H651 N647 0.985 . S
H652 N646 0.984 . S
H653 N646 0.984 . S
H654 N642 0.984 . S
H655 N642 0.985 . S
C656 C657 1.363 . S
C656 C662 1.379 . S
C656 N664 1.356 . S
C657 C656 1.363 . S
C657 C663 1.363 . S
C658 C659 1.363 . S
C658 C663 1.379 . S
C658 N665 1.356 . S
C659 C658 1.363 . S
C659 C662 1.363 . S
N660 C662 1.356 . S
N660 H672 0.984 . S
N660 H673 0.985 . S
N661 C663 1.356 . S
N661 H666 0.984 . S
N661 H667 0.985 . S
C662 C656 1.379 . S
C662 C659 1.363 . S
C662 N660 1.356 . S
C663 C657 1.363 . S
C663 C658 1.379 . S
C663 N661 1.356 . S
N664 C656 1.356 . S
N664 H670 0.984 . S
N664 H671 0.984 . S
N665 C658 1.356 . S
N665 H668 0.984 . S
N665 H669 0.985 . S
H666 N661 0.984 . S
H667 N661 0.985 . S
H668 N665 0.984 . S
H669 N665 0.985 . S
H670 N664 0.984 . S
H671 N664 0.984 . S
H672 N660 0.984 . S
H673 N660 0.985 . S
C674 C675 1.363 . S
C674 C680 1.379 . S
C674 N682 1.356 . S
C675 C674 1.363 . S
C675 C681 1.363 . S
C676 C677 1.363 . S
C676 C681 1.379 . S
C676 N683 1.356 . S
C677 C676 1.363 . S
C677 C680 1.363 . S
N678 C680 1.356 . S
N678 H690 0.984 . S
N678 H691 0.985 . S
N679 C681 1.356 . S
N679 H684 0.984 . S
N679 H685 0.985 . S
C680 C674 1.379 . S
C680 C677 1.363 . S
C680 N678 1.356 . S
C681 C675 1.363 . S
C681 C676 1.379 . S
C681 N679 1.356 . S
N682 C674 1.356 . S
N682 H688 0.984 . S
N682 H689 0.984 . S
N683 C676 1.356 . S
N683 H686 0.984 . S
N683 H687 0.985 . S
H684 N679 0.984 . S
H685 N679 0.985 . S
H686 N683 0.984 . S
H687 N683 0.985 . S
H688 N682 0.984 . S
H689 N682 0.984 . S
H690 N678 0.984 . S
H691 N678 0.985 . S
C692 C693 1.363 . S
C692 C698 1.379 . S
C692 N700 1.356 . S
C693 C692 1.363 . S
C693 C699 1.363 . S
C694 C695 1.363 . S
C694 C699 1.379 . S
C694 N701 1.356 . S
C695 C694 1.363 . S
C695 C698 1.363 . S
N696 C698 1.356 . S
N696 H708 0.984 . S
N696 H709 0.985 . S
N697 C699 1.356 . S
N697 H702 0.984 . S
N697 H703 0.985 . S
C698 C692 1.379 . S
C698 C695 1.363 . S
C698 N696 1.356 . S
C699 C693 1.363 . S
C699 C694 1.379 . S
C699 N697 1.356 . S
N700 C692 1.356 . S
N700 H706 0.984 . S
N700 H707 0.984 . S
N701 C694 1.356 . S
N701 H704 0.984 . S
N701 H705 0.985 . S
H702 N697 0.984 . S
H703 N697 0.985 . S
H704 N701 0.984 . S
H705 N701 0.985 . S
H706 N700 0.984 . S
H707 N700 0.984 . S
H708 N696 0.984 . S
H709 N696 0.985 . S
C710 C711 1.363 . S
C710 C716 1.379 . S
C710 N718 1.356 . S
C711 C710 1.363 . S
C711 C717 1.363 . S
C712 C713 1.363 . S
C712 C717 1.379 . S
C712 N719 1.356 . S
C713 C712 1.363 . S
C713 C716 1.363 . S
N714 C716 1.356 . S
N714 H726 0.984 . S
N714 H727 0.985 . S
N715 C717 1.356 . S
N715 H720 0.984 . S
N715 H721 0.985 . S
C716 C710 1.379 . S
C716 C713 1.363 . S
C716 N714 1.356 . S
C717 C711 1.363 . S
C717 C712 1.379 . S
C717 N715 1.356 . S
N718 C710 1.356 . S
N718 H724 0.984 . S
N718 H725 0.984 . S
N719 C712 1.356 . S
N719 H722 0.984 . S
N719 H723 0.985 . S
H720 N715 0.984 . S
H721 N715 0.985 . S
H722 N719 0.984 . S
H723 N719 0.985 . S
H724 N718 0.984 . S
H725 N718 0.984 . S
H726 N714 0.984 . S
H727 N714 0.985 . S
C728 C729 1.363 . S
C728 C734 1.379 . S
C728 N736 1.356 . S
C729 C728 1.363 . S
C729 C735 1.363 1_554 S
C730 C731 1.363 1_556 S
C730 C735 1.379 . S
C730 N737 1.356 . S
C731 C730 1.363 1_554 S
C731 C734 1.363 . S
N732 C734 1.356 . S
N732 H744 0.984 . S
N732 H745 0.985 . S
N733 C735 1.356 . S
N733 H738 0.984 . S
N733 H739 0.985 . S
C734 C728 1.379 . S
C734 C731 1.363 . S
C734 N732 1.356 . S
C735 C729 1.363 1_556 S
C735 C730 1.379 . S
C735 N733 1.356 . S
N736 C728 1.356 . S
N736 H742 0.984 . S
N736 H743 0.984 . S
N737 C730 1.356 . S
N737 H740 0.984 . S
N737 H741 0.985 . S
H738 N733 0.984 . S
H739 N733 0.985 . S
H740 N737 0.984 . S
H741 N737 0.985 . S
H742 N736 0.984 . S
H743 N736 0.984 . S
H744 N732 0.984 . S
H745 N732 0.985 . S
C746 C747 1.363 . S
C746 C752 1.379 . S
C746 N754 1.356 . S
C747 C746 1.363 . S
C747 C753 1.363 . S
C748 C749 1.363 . S
C748 C753 1.379 . S
C748 N755 1.356 . S
C749 C748 1.363 . S
C749 C752 1.363 . S
N750 C752 1.356 . S
N750 H762 0.984 . S
N750 H763 0.985 . S
N751 C753 1.356 . S
N751 H756 0.984 . S
N751 H757 0.985 1_556 S
C752 C746 1.379 . S
C752 C749 1.363 . S
C752 N750 1.356 . S
C753 C747 1.363 . S
C753 C748 1.379 . S
C753 N751 1.356 . S
N754 C746 1.356 . S
N754 H760 0.984 . S
N754 H761 0.984 . S
N755 C748 1.356 . S
N755 H758 0.984 . S
N755 H759 0.985 . S
H756 N751 0.984 . S
H757 N751 0.985 1_554 S
H758 N755 0.984 . S
H759 N755 0.985 . S
H760 N754 0.984 . S
H761 N754 0.984 . S
H762 N750 0.984 . S
H763 N750 0.985 . S
C764 C765 1.363 . S
C764 C770 1.379 . S
C764 N772 1.356 . S
C765 C764 1.363 . S
C765 C771 1.363 1_554 S
C766 C767 1.363 1_556 S
C766 C771 1.379 . S
C766 N773 1.356 . S
C767 C766 1.363 1_554 S
C767 C770 1.363 . S
N768 C770 1.356 . S
N768 H780 0.984 . S
N768 H781 0.985 . S
N769 C771 1.356 . S
N769 H774 0.984 . S
N769 H775 0.985 . S
C770 C764 1.379 . S
C770 C767 1.363 . S
C770 N768 1.356 . S
C771 C765 1.363 1_556 S
C771 C766 1.379 . S
C771 N769 1.356 . S
N772 C764 1.356 . S
N772 H778 0.984 . S
N772 H779 0.984 . S
N773 C766 1.356 . S
N773 H776 0.984 . S
N773 H777 0.985 . S
H774 N769 0.984 . S
H775 N769 0.985 . S
H776 N773 0.984 . S
H777 N773 0.985 . S
H778 N772 0.984 . S
H779 N772 0.984 . S
H780 N768 0.984 . S
H781 N768 0.985 . S
C782 C783 1.363 1_554 S
C782 C788 1.379 . S
C782 N790 1.356 . S
C783 C782 1.363 1_556 S
C783 C789 1.363 . S
C784 C785 1.363 . S
C784 C789 1.379 . S
C784 N791 1.356 . S
C785 C784 1.363 . S
C785 C788 1.363 1_556 S
N786 C788 1.356 . S
N786 H798 0.984 . S
N786 H799 0.985 . S
N787 C789 1.356 . S
N787 H792 0.984 . S
N787 H793 0.985 . S
C788 C782 1.379 . S
C788 C785 1.363 1_554 S
C788 N786 1.356 . S
C789 C783 1.363 . S
C789 C784 1.379 . S
C789 N787 1.356 . S
N790 C782 1.356 . S
N790 H796 0.984 . S
N790 H797 0.984 . S
N791 C784 1.356 . S
N791 H794 0.984 . S
N791 H795 0.985 . S
H792 N787 0.984 . S
H793 N787 0.985 . S
H794 N791 0.984 . S
H795 N791 0.985 . S
H796 N790 0.984 . S
H797 N790 0.984 . S
H798 N786 0.984 . S
H799 N786 0.985 . S
C800 C801 1.363 . S
C800 C806 1.379 . S
C800 N808 1.356 . S
C801 C800 1.363 . S
C801 C807 1.363 1_565 S
C802 C803 1.363 . S
C802 C807 1.379 . S
C802 N809 1.356 . S
C803 C802 1.363 . S
C803 C806 1.363 1_545 S
N804 C806 1.356 . S
N804 H816 0.984 . S
N804 H817 0.985 . S
N805 C807 1.356 . S
N805 H810 0.984 . S
N805 H811 0.985 . S
C806 C800 1.379 . S
C806 C803 1.363 1_565 S
C806 N804 1.356 . S
C807 C801 1.363 1_545 S
C807 C802 1.379 . S
C807 N805 1.356 . S
N808 C800 1.356 . S
N808 H814 0.984 . S
N808 H815 0.984 . S
N809 C802 1.356 . S
N809 H812 0.984 . S
N809 H813 0.985 . S
H810 N805 0.984 . S
H811 N805 0.985 . S
H812 N809 0.984 . S
H813 N809 0.985 . S
H814 N808 0.984 . S
H815 N808 0.984 . S
H816 N804 0.984 . S
H817 N804 0.985 . S
C818 C819 1.363 . S
C818 C824 1.379 . S
C818 N826 1.356 . S
C819 C818 1.363 . S
C819 C825 1.363 1_655 S
C820 C821 1.363 . S
C820 C825 1.379 . S
C820 N827 1.356 . S
C821 C820 1.363 . S
C821 C824 1.363 1_455 S
N822 C824 1.356 . S
N822 H834 0.984 . S
N822 H835 0.985 . S
N823 C825 1.356 . S
N823 H828 0.984 . S
N823 H829 0.985 . S
C824 C818 1.379 . S
C824 C821 1.363 1_655 S
C824 N822 1.356 . S
C825 C819 1.363 1_455 S
C825 C820 1.379 . S
C825 N823 1.356 . S
N826 C818 1.356 . S
N826 H832 0.984 . S
N826 H833 0.984 . S
N827 C820 1.356 . S
N827 H830 0.984 . S
N827 H831 0.985 . S
H828 N823 0.984 . S
H829 N823 0.985 . S
H830 N827 0.984 . S
H831 N827 0.985 . S
H832 N826 0.984 . S
H833 N826 0.984 . S
H834 N822 0.984 . S
H835 N822 0.985 . S
C836 C837 1.363 1_545 S
C836 C842 1.379 . S
C836 N844 1.356 . S
C837 C836 1.363 1_565 S
C837 C843 1.363 . S
C838 C839 1.363 1_565 S
C838 C843 1.379 . S
C838 N845 1.356 . S
C839 C838 1.363 1_545 S
C839 C842 1.363 . S
N840 C842 1.356 . S
N840 H852 0.984 . S
N840 H853 0.985 . S
N841 C843 1.356 . S
N841 H846 0.984 . S
N841 H847 0.985 . S
C842 C836 1.379 . S
C842 C839 1.363 . S
C842 N840 1.356 . S
C843 C837 1.363 . S
C843 C838 1.379 . S
C843 N841 1.356 . S
N844 C836 1.356 . S
N844 H850 0.984 . S
N844 H851 0.984 . S
N845 C838 1.356 . S
N845 H848 0.984 . S
N845 H849 0.985 . S
H846 N841 0.984 . S
H847 N841 0.985 . S
H848 N845 0.984 . S
H849 N845 0.985 . S
H850 N844 0.984 . S
H851 N844 0.984 . S
H852 N840 0.984 . S
H853 N840 0.985 . S
C854 C855 1.363 1_455 S
C854 C860 1.379 . S
C854 N862 1.356 . S
C855 C854 1.363 1_655 S
C855 C861 1.363 . S
C856 C857 1.363 1_655 S
C856 C861 1.379 . S
C856 N863 1.356 . S
C857 C856 1.363 1_455 S
C857 C860 1.363 . S
N858 C860 1.356 . S
N858 H870 0.984 . S
N858 H871 0.985 . S
N859 C861 1.356 . S
N859 H864 0.984 . S
N859 H865 0.985 . S
C860 C854 1.379 . S
C860 C857 1.363 . S
C860 N858 1.356 . S
C861 C855 1.363 . S
C861 C856 1.379 . S
C861 N859 1.356 . S
N862 C854 1.356 . S
N862 H868 0.984 . S
N862 H869 0.984 . S
N863 C856 1.356 . S
N863 H866 0.984 . S
N863 H867 0.985 . S
H864 N859 0.984 . S
H865 N859 0.985 . S
H866 N863 0.984 . S
H867 N863 0.985 . S
H868 N862 0.984 . S
H869 N862 0.984 . S
H870 N858 0.984 . S
H871 N858 0.985 . S
C872 C873 1.363 . S
C872 C878 1.379 . S
C872 N880 1.356 . S
C873 C872 1.363 . S
C873 C879 1.363 1_565 S
C874 C875 1.363 . S
C874 C879 1.379 . S
C874 N881 1.356 . S
C875 C874 1.363 . S
C875 C878 1.363 1_545 S
N876 C878 1.356 . S
N876 H888 0.984 . S
N876 H889 0.985 . S
N877 C879 1.356 . S
N877 H882 0.984 . S
N877 H883 0.985 . S
C878 C872 1.379 . S
C878 C875 1.363 1_565 S
C878 N876 1.356 . S
C879 C873 1.363 1_545 S
C879 C874 1.379 . S
C879 N877 1.356 . S
N880 C872 1.356 . S
N880 H886 0.984 . S
N880 H887 0.984 . S
N881 C874 1.356 . S
N881 H884 0.984 . S
N881 H885 0.985 . S
H882 N877 0.984 . S
H883 N877 0.985 . S
H884 N881 0.984 . S
H885 N881 0.985 . S
H886 N880 0.984 . S
H887 N880 0.984 . S
H888 N876 0.984 . S
H889 N876 0.985 . S
C890 C891 1.363 . S
C890 C896 1.379 . S
C890 N898 1.356 . S
C891 C890 1.363 . S
C891 C897 1.363 1_455 S
C892 C893 1.363 . S
C892 C897 1.379 . S
C892 N899 1.356 . S
C893 C892 1.363 . S
C893 C896 1.363 1_655 S
N894 C896 1.356 . S
N894 H906 0.984 . S
N894 H907 0.985 . S
N895 C897 1.356 . S
N895 H900 0.984 . S
N895 H901 0.985 . S
C896 C890 1.379 . S
C896 C893 1.363 1_455 S
C896 N894 1.356 . S
C897 C891 1.363 1_655 S
C897 C892 1.379 . S
C897 N895 1.356 . S
N898 C890 1.356 . S
N898 H904 0.984 . S
N898 H905 0.984 . S
N899 C892 1.356 . S
N899 H902 0.984 . S
N899 H903 0.985 . S
H900 N895 0.984 . S
H901 N895 0.985 . S
H902 N899 0.984 . S
H903 N899 0.985 . S
H904 N898 0.984 . S
H905 N898 0.984 . S
H906 N894 0.984 . S
H907 N894 0.985 . S
C908 C909 1.363 . S
C908 C914 1.379 . S
C908 N916 1.356 . S
C909 C908 1.363 . S
C909 C915 1.363 1_565 S
C910 C911 1.363 . S
C910 C915 1.379 . S
C910 N917 1.356 . S
C911 C910 1.363 . S
C911 C914 1.363 1_545 S
N912 C914 1.356 . S
N912 H924 0.984 . S
N912 H925 0.985 . S
N913 C915 1.356 . S
N913 H918 0.984 . S
N913 H919 0.985 . S
C914 C908 1.379 . S
C914 C911 1.363 1_565 S
C914 N912 1.356 . S
C915 C909 1.363 1_545 S
C915 C910 1.379 . S
C915 N913 1.356 . S
N916 C908 1.356 . S
N916 H922 0.984 . S
N916 H923 0.984 . S
N917 C910 1.356 . S
N917 H920 0.984 . S
N917 H921 0.985 . S
H918 N913 0.984 . S
H919 N913 0.985 . S
H920 N917 0.984 . S
H921 N917 0.985 . S
H922 N916 0.984 . S
H923 N916 0.984 . S
H924 N912 0.984 . S
H925 N912 0.985 . S
C926 C927 1.363 . S
C926 C932 1.379 . S
C926 N934 1.356 . S
C927 C926 1.363 . S
C927 C933 1.363 1_455 S
C928 C929 1.363 . S
C928 C933 1.379 . S
C928 N935 1.356 . S
C929 C928 1.363 . S
C929 C932 1.363 1_655 S
N930 C932 1.356 . S
N930 H942 0.984 . S
N930 H943 0.985 . S
N931 C933 1.356 . S
N931 H936 0.984 . S
N931 H937 0.985 . S
C932 C926 1.379 . S
C932 C929 1.363 1_455 S
C932 N930 1.356 . S
C933 C927 1.363 1_655 S
C933 C928 1.379 . S
C933 N931 1.356 . S
N934 C926 1.356 . S
N934 H940 0.984 . S
N934 H941 0.984 . S
N935 C928 1.356 . S
N935 H938 0.984 . S
N935 H939 0.985 . S
H936 N931 0.984 . S
H937 N931 0.985 . S
H938 N935 0.984 . S
H939 N935 0.985 . S
H940 N934 0.984 . S
H941 N934 0.984 . S
H942 N930 0.984 . S
H943 N930 0.985 . S
C944 C945 1.363 . S
C944 C950 1.379 . S
C944 N952 1.356 . S
C945 C944 1.363 . S
C945 C951 1.363 . S
C946 C947 1.363 . S
C946 C951 1.379 . S
C946 N953 1.356 . S
C947 C946 1.363 . S
C947 C950 1.363 . S
N948 C950 1.356 . S
N948 H960 0.984 . S
N948 H961 0.985 . S
N949 C951 1.356 . S
N949 H954 0.984 . S
N949 H955 0.985 . S
C950 C944 1.379 . S
C950 C947 1.363 . S
C950 N948 1.356 . S
C951 C945 1.363 . S
C951 C946 1.379 . S
C951 N949 1.356 . S
N952 C944 1.356 . S
N952 H958 0.984 . S
N952 H959 0.984 . S
N953 C946 1.356 . S
N953 H956 0.984 . S
N953 H957 0.985 . S
H954 N949 0.984 . S
H955 N949 0.985 . S
H956 N953 0.984 . S
H957 N953 0.985 . S
H958 N952 0.984 . S
H959 N952 0.984 . S
H960 N948 0.984 . S
H961 N948 0.985 . S
C962 C963 1.363 . S
C962 C968 1.379 . S
C962 N970 1.356 . S
C963 C962 1.363 . S
C963 C969 1.363 . S
C964 C965 1.363 . S
C964 C969 1.379 . S
C964 N971 1.356 . S
C965 C964 1.363 . S
C965 C968 1.363 . S
N966 C968 1.356 . S
N966 H978 0.984 . S
N966 H979 0.985 . S
N967 C969 1.356 . S
N967 H972 0.984 . S
N967 H973 0.985 . S
C968 C962 1.379 . S
C968 C965 1.363 . S
C968 N966 1.356 . S
C969 C963 1.363 . S
C969 C964 1.379 . S
C969 N967 1.356 . S
N970 C962 1.356 . S
N970 H976 0.984 . S
N970 H977 0.984 . S
N971 C964 1.356 . S
N971 H974 0.984 . S
N971 H975 0.985 . S
H972 N967 0.984 . S
H973 N967 0.985 . S
H974 N971 0.984 . S
H975 N971 0.985 . S
H976 N970 0.984 . S
H977 N970 0.984 . S
H978 N966 0.984 . S
H979 N966 0.985 . S
C980 C981 1.363 . S
C980 C986 1.379 . S
C980 N988 1.356 . S
C981 C980 1.363 . S
C981 C987 1.363 . S
C982 C983 1.363 . S
C982 C987 1.379 . S
C982 N989 1.356 . S
C983 C982 1.363 . S
C983 C986 1.363 . S
N984 C986 1.356 . S
N984 H996 0.984 . S
N984 H997 0.985 . S
N985 C987 1.356 . S
N985 H990 0.984 . S
N985 H991 0.985 . S
C986 C980 1.379 . S
C986 C983 1.363 . S
C986 N984 1.356 . S
C987 C981 1.363 . S
C987 C982 1.379 . S
C987 N985 1.356 . S
N988 C980 1.356 . S
N988 H994 0.984 . S
N988 H995 0.984 . S
N989 C982 1.356 . S
N989 H992 0.984 . S
N989 H993 0.985 . S
H990 N985 0.984 . S
H991 N985 0.985 . S
H992 N989 0.984 . S
H993 N989 0.985 . S
H994 N988 0.984 . S
H995 N988 0.984 . S
H996 N984 0.984 . S
H997 N984 0.985 . S
C998 C999 1.363 . S
C998 C1004 1.379 . S
C998 N1006 1.356 . S
C999 C998 1.363 . S
C999 C1005 1.363 . S
C1000 C1001 1.363 . S
C1000 C1005 1.379 . S
C1000 N1007 1.356 . S
C1001 C1000 1.363 . S
C1001 C1004 1.363 . S
N1002 C1004 1.356 . S
N1002 H1014 0.984 . S
N1002 H1015 0.985 . S
N1003 C1005 1.356 . S
N1003 H1008 0.984 . S
N1003 H1009 0.985 . S
C1004 C998 1.379 . S
C1004 C1001 1.363 . S
C1004 N1002 1.356 . S
C1005 C999 1.363 . S
C1005 C1000 1.379 . S
C1005 N1003 1.356 . S
N1006 C998 1.356 . S
N1006 H1012 0.984 . S
N1006 H1013 0.984 . S
N1007 C1000 1.356 . S
N1007 H1010 0.984 . S
N1007 H1011 0.985 . S
H1008 N1003 0.984 . S
H1009 N1003 0.985 . S
H1010 N1007 0.984 . S
H1011 N1007 0.985 . S
H1012 N1006 0.984 . S
H1013 N1006 0.984 . S
H1014 N1002 0.984 . S
H1015 N1002 0.985 . S
C1016 C1017 1.363 . S
C1016 C1022 1.379 . S
C1016 N1024 1.356 . S
C1017 C1016 1.363 . S
C1017 C1023 1.363 . S
C1018 C1019 1.363 . S
C1018 C1023 1.379 . S
C1018 N1025 1.356 . S
C1019 C1018 1.363 . S
C1019 C1022 1.363 . S
N1020 C1022 1.356 . S
N1020 H1032 0.984 . S
N1020 H1033 0.985 . S
N1021 C1023 1.356 . S
N1021 H1026 0.984 . S
N1021 H1027 0.985 . S
C1022 C1016 1.379 . S
C1022 C1019 1.363 . S
C1022 N1020 1.356 . S
C1023 C1017 1.363 . S
C1023 C1018 1.379 . S
C1023 N1021 1.356 . S
N1024 C1016 1.356 . S
N1024 H1030 0.984 . S
N1024 H1031 0.984 . S
N1025 C1018 1.356 . S
N1025 H1028 0.984 . S
N1025 H1029 0.985 . S
H1026 N1021 0.984 . S
H1027 N1021 0.985 . S
H1028 N1025 0.984 . S
H1029 N1025 0.985 . S
H1030 N1024 0.984 . S
H1031 N1024 0.984 . S
H1032 N1020 0.984 . S
H1033 N1020 0.985 . S
C1034 C1035 1.363 . S
C1034 C1040 1.379 . S
C1034 N1042 1.356 . S
C1035 C1034 1.363 . S
C1035 C1041 1.363 . S
C1036 C1037 1.363 . S
C1036 C1041 1.379 . S
C1036 N1043 1.356 . S
C1037 C1036 1.363 . S
C1037 C1040 1.363 . S
N1038 C1040 1.356 . S
N1038 H1050 0.984 . S
N1038 H1051 0.985 . S
N1039 C1041 1.356 . S
N1039 H1044 0.984 . S
N1039 H1045 0.985 . S
C1040 C1034 1.379 . S
C1040 C1037 1.363 . S
C1040 N1038 1.356 . S
C1041 C1035 1.363 . S
C1041 C1036 1.379 . S
C1041 N1039 1.356 . S
N1042 C1034 1.356 . S
N1042 H1048 0.984 . S
N1042 H1049 0.984 . S
N1043 C1036 1.356 . S
N1043 H1046 0.984 . S
N1043 H1047 0.985 . S
H1044 N1039 0.984 . S
H1045 N1039 0.985 . S
H1046 N1043 0.984 . S
H1047 N1043 0.985 . S
H1048 N1042 0.984 . S
H1049 N1042 0.984 . S
H1050 N1038 0.984 . S
H1051 N1038 0.985 . S
C1052 C1053 1.363 . S
C1052 C1058 1.379 . S
C1052 N1060 1.356 . S
C1053 C1052 1.363 . S
C1053 C1059 1.363 . S
C1054 C1055 1.363 . S
C1054 C1059 1.379 . S
C1054 N1061 1.356 . S
C1055 C1054 1.363 . S
C1055 C1058 1.363 . S
N1056 C1058 1.356 . S
N1056 H1068 0.984 . S
N1056 H1069 0.985 . S
N1057 C1059 1.356 . S
N1057 H1062 0.984 . S
N1057 H1063 0.985 . S
C1058 C1052 1.379 . S
C1058 C1055 1.363 . S
C1058 N1056 1.356 . S
C1059 C1053 1.363 . S
C1059 C1054 1.379 . S
C1059 N1057 1.356 . S
N1060 C1052 1.356 . S
N1060 H1066 0.984 . S
N1060 H1067 0.984 . S
N1061 C1054 1.356 . S
N1061 H1064 0.984 . S
N1061 H1065 0.985 . S
H1062 N1057 0.984 . S
H1063 N1057 0.985 . S
H1064 N1061 0.984 . S
H1065 N1061 0.985 . S
H1066 N1060 0.984 . S
H1067 N1060 0.984 . S
H1068 N1056 0.984 . S
H1069 N1056 0.985 . S
C1070 C1071 1.363 . S
C1070 C1076 1.379 . S
C1070 N1078 1.356 . S
C1071 C1070 1.363 . S
C1071 C1077 1.363 . S
C1072 C1073 1.363 . S
C1072 C1077 1.379 . S
C1072 N1079 1.356 . S
C1073 C1072 1.363 . S
C1073 C1076 1.363 . S
N1074 C1076 1.356 . S
N1074 H1086 0.984 . S
N1074 H1087 0.985 . S
N1075 C1077 1.356 . S
N1075 H1080 0.984 . S
N1075 H1081 0.985 . S
C1076 C1070 1.379 . S
C1076 C1073 1.363 . S
C1076 N1074 1.356 . S
C1077 C1071 1.363 . S
C1077 C1072 1.379 . S
C1077 N1075 1.356 . S
N1078 C1070 1.356 . S
N1078 H1084 0.984 . S
N1078 H1085 0.984 . S
N1079 C1072 1.356 . S
N1079 H1082 0.984 . S
N1079 H1083 0.985 . S
H1080 N1075 0.984 . S
H1081 N1075 0.985 . S
H1082 N1079 0.984 . S
H1083 N1079 0.985 . S
H1084 N1078 0.984 . S
H1085 N1078 0.984 . S
H1086 N1074 0.984 . S
H1087 N1074 0.985 . S
C1088 C1089 1.363 . S
C1088 C1094 1.379 . S
C1088 N1096 1.356 . S
C1089 C1088 1.363 . S
C1089 C1095 1.363 1_556 S
C1090 C1091 1.363 . S
C1090 C1095 1.379 . S
C1090 N1097 1.356 . S
C1091 C1090 1.363 . S
C1091 C1094 1.363 1_554 S
N1092 C1094 1.356 . S
N1092 H1104 0.984 . S
N1092 H1105 0.985 . S
N1093 C1095 1.356 . S
N1093 H1098 0.984 . S
N1093 H1099 0.985 . S
C1094 C1088 1.379 . S
C1094 C1091 1.363 1_556 S
C1094 N1092 1.356 . S
C1095 C1089 1.363 1_554 S
C1095 C1090 1.379 . S
C1095 N1093 1.356 . S
N1096 C1088 1.356 . S
N1096 H1102 0.984 . S
N1096 H1103 0.984 . S
N1097 C1090 1.356 . S
N1097 H1100 0.984 . S
N1097 H1101 0.985 . S
H1098 N1093 0.984 . S
H1099 N1093 0.985 . S
H1100 N1097 0.984 . S
H1101 N1097 0.985 . S
H1102 N1096 0.984 . S
H1103 N1096 0.984 . S
H1104 N1092 0.984 . S
H1105 N1092 0.985 . S
C1106 C1107 1.363 . S
C1106 C1112 1.379 . S
C1106 N1114 1.356 . S
C1107 C1106 1.363 . S
C1107 C1113 1.363 1_554 S
C1108 C1109 1.363 . S
C1108 C1113 1.379 . S
C1108 N1115 1.356 . S
C1109 C1108 1.363 . S
C1109 C1112 1.363 1_556 S
N1110 C1112 1.356 . S
N1110 H1122 0.984 . S
N1110 H1123 0.985 . S
N1111 C1113 1.356 . S
N1111 H1116 0.984 . S
N1111 H1117 0.985 . S
C1112 C1106 1.379 . S
C1112 C1109 1.363 1_554 S
C1112 N1110 1.356 . S
C1113 C1107 1.363 1_556 S
C1113 C1108 1.379 . S
C1113 N1111 1.356 . S
N1114 C1106 1.356 . S
N1114 H1120 0.984 . S
N1114 H1121 0.984 . S
N1115 C1108 1.356 . S
N1115 H1118 0.984 . S
N1115 H1119 0.985 . S
H1116 N1111 0.984 . S
H1117 N1111 0.985 . S
H1118 N1115 0.984 . S
H1119 N1115 0.985 . S
H1120 N1114 0.984 . S
H1121 N1114 0.984 . S
H1122 N1110 0.984 . S
H1123 N1110 0.985 . S
C1124 C1125 1.363 . S
C1124 C1130 1.379 . S
C1124 N1132 1.356 . S
C1125 C1124 1.363 . S
C1125 C1131 1.363 1_554 S
C1126 C1127 1.363 . S
C1126 C1131 1.379 . S
C1126 N1133 1.356 . S
C1127 C1126 1.363 . S
C1127 C1130 1.363 1_556 S
N1128 C1130 1.356 . S
N1128 H1140 0.984 . S
N1128 H1141 0.985 . S
N1129 C1131 1.356 . S
N1129 H1134 0.984 . S
N1129 H1135 0.985 . S
C1130 C1124 1.379 . S
C1130 C1127 1.363 1_554 S
C1130 N1128 1.356 . S
C1131 C1125 1.363 1_556 S
C1131 C1126 1.379 . S
C1131 N1129 1.356 . S
N1132 C1124 1.356 . S
N1132 H1138 0.984 . S
N1132 H1139 0.984 . S
N1133 C1126 1.356 . S
N1133 H1136 0.984 . S
N1133 H1137 0.985 . S
H1134 N1129 0.984 . S
H1135 N1129 0.985 . S
H1136 N1133 0.984 . S
H1137 N1133 0.985 . S
H1138 N1132 0.984 . S
H1139 N1132 0.984 . S
H1140 N1128 0.984 . S
H1141 N1128 0.985 . S
C1142 C1143 1.363 1_556 S
C1142 C1148 1.379 . S
C1142 N1150 1.356 . S
C1143 C1142 1.363 1_554 S
C1143 C1149 1.363 . S
C1144 C1145 1.363 1_554 S
C1144 C1149 1.379 . S
C1144 N1151 1.356 . S
C1145 C1144 1.363 1_556 S
C1145 C1148 1.363 . S
N1146 C1148 1.356 . S
N1146 H1158 0.984 . S
N1146 H1159 0.985 . S
N1147 C1149 1.356 . S
N1147 H1152 0.984 . S
N1147 H1153 0.985 . S
C1148 C1142 1.379 . S
C1148 C1145 1.363 . S
C1148 N1146 1.356 . S
C1149 C1143 1.363 . S
C1149 C1144 1.379 . S
C1149 N1147 1.356 . S
N1150 C1142 1.356 . S
N1150 H1156 0.984 . S
N1150 H1157 0.984 . S
N1151 C1144 1.356 . S
N1151 H1154 0.984 . S
N1151 H1155 0.985 . S
H1152 N1147 0.984 . S
H1153 N1147 0.985 . S
H1154 N1151 0.984 . S
H1155 N1151 0.985 . S
H1156 N1150 0.984 . S
H1157 N1150 0.984 . S
H1158 N1146 0.984 . S
H1159 N1146 0.985 . S
C1160 C1161 1.363 . S
C1160 C1166 1.379 . S
C1160 N1168 1.356 . S
C1161 C1160 1.363 . S
C1161 C1167 1.363 . S
C1162 C1163 1.363 . S
C1162 C1167 1.379 . S
C1162 N1169 1.356 . S
C1163 C1162 1.363 . S
C1163 C1166 1.363 . S
N1164 C1166 1.356 . S
N1164 H1176 0.984 . S
N1164 H1177 0.985 . S
N1165 C1167 1.356 . S
N1165 H1170 0.984 . S
N1165 H1171 0.985 . S
C1166 C1160 1.379 . S
C1166 C1163 1.363 . S
C1166 N1164 1.356 . S
C1167 C1161 1.363 . S
C1167 C1162 1.379 . S
C1167 N1165 1.356 . S
N1168 C1160 1.356 . S
N1168 H1174 0.984 . S
N1168 H1175 0.984 . S
N1169 C1162 1.356 . S
N1169 H1172 0.984 . S
N1169 H1173 0.985 . S
H1170 N1165 0.984 . S
H1171 N1165 0.985 . S
H1172 N1169 0.984 . S
H1173 N1169 0.985 . S
H1174 N1168 0.984 . S
H1175 N1168 0.984 . S
H1176 N1164 0.984 . S
H1177 N1164 0.985 . S
C1178 C1179 1.363 . S
C1178 C1184 1.379 . S
C1178 N1186 1.356 . S
C1179 C1178 1.363 . S
C1179 C1185 1.363 . S
C1180 C1181 1.363 . S
C1180 C1185 1.379 . S
C1180 N1187 1.356 . S
C1181 C1180 1.363 . S
C1181 C1184 1.363 . S
N1182 C1184 1.356 . S
N1182 H1194 0.984 . S
N1182 H1195 0.985 . S
N1183 C1185 1.356 . S
N1183 H1188 0.984 . S
N1183 H1189 0.985 . S
C1184 C1178 1.379 . S
C1184 C1181 1.363 . S
C1184 N1182 1.356 . S
C1185 C1179 1.363 . S
C1185 C1180 1.379 . S
C1185 N1183 1.356 . S
N1186 C1178 1.356 . S
N1186 H1192 0.984 . S
N1186 H1193 0.984 . S
N1187 C1180 1.356 . S
N1187 H1190 0.984 . S
N1187 H1191 0.985 . S
H1188 N1183 0.984 . S
H1189 N1183 0.985 . S
H1190 N1187 0.984 . S
H1191 N1187 0.985 . S
H1192 N1186 0.984 . S
H1193 N1186 0.984 . S
H1194 N1182 0.984 . S
H1195 N1182 0.985 . S
C1196 C1197 1.363 . S
C1196 C1202 1.379 . S
C1196 N1204 1.356 . S
C1197 C1196 1.363 . S
C1197 C1203 1.363 . S
C1198 C1199 1.363 . S
C1198 C1203 1.379 . S
C1198 N1205 1.356 . S
C1199 C1198 1.363 . S
C1199 C1202 1.363 . S
N1200 C1202 1.356 . S
N1200 H1212 0.984 . S
N1200 H1213 0.985 . S
N1201 C1203 1.356 . S
N1201 H1206 0.984 . S
N1201 H1207 0.985 . S
C1202 C1196 1.379 . S
C1202 C1199 1.363 . S
C1202 N1200 1.356 . S
C1203 C1197 1.363 . S
C1203 C1198 1.379 . S
C1203 N1201 1.356 . S
N1204 C1196 1.356 . S
N1204 H1210 0.984 . S
N1204 H1211 0.984 . S
N1205 C1198 1.356 . S
N1205 H1208 0.984 . S
N1205 H1209 0.985 . S
H1206 N1201 0.984 . S
H1207 N1201 0.985 . S
H1208 N1205 0.984 . S
H1209 N1205 0.985 . S
H1210 N1204 0.984 . S
H1211 N1204 0.984 . S
H1212 N1200 0.984 . S
H1213 N1200 0.985 . S
C1214 C1215 1.363 . S
C1214 C1220 1.379 . S
C1214 N1222 1.356 . S
C1215 C1214 1.363 . S
C1215 C1221 1.363 . S
C1216 C1217 1.363 . S
C1216 C1221 1.379 . S
C1216 N1223 1.356 . S
C1217 C1216 1.363 . S
C1217 C1220 1.363 . S
N1218 C1220 1.356 . S
N1218 H1230 0.984 . S
N1218 H1231 0.985 . S
N1219 C1221 1.356 . S
N1219 H1224 0.984 . S
N1219 H1225 0.985 . S
C1220 C1214 1.379 . S
C1220 C1217 1.363 . S
C1220 N1218 1.356 . S
C1221 C1215 1.363 . S
C1221 C1216 1.379 . S
C1221 N1219 1.356 . S
N1222 C1214 1.356 . S
N1222 H1228 0.984 . S
N1222 H1229 0.984 . S
N1223 C1216 1.356 . S
N1223 H1226 0.984 . S
N1223 H1227 0.985 . S
H1224 N1219 0.984 . S
H1225 N1219 0.985 . S
H1226 N1223 0.984 . S
H1227 N1223 0.985 . S
H1228 N1222 0.984 . S
H1229 N1222 0.984 . S
H1230 N1218 0.984 . S
H1231 N1218 0.985 . S
C369 C16 1.244 . S
C371 C131 1.244 . S
C387 C39 1.242 . S
C389 C154 1.242 . S
C405 C177 1.240 . S
C407 C62 1.240 . S
C423 C109 1.234 . S
C425 C85 1.239 . S
C441 C315 1.244 . S
C443 C200 1.244 . S
C459 C223 1.242 . S
C461 C338 1.242 . S
C477 C361 1.240 . S
C479 C246 1.240 . S
C495 C293 1.234 . S
C497 C269 1.239 . S
C513 C19 1.611 . S
C515 C44 1.575 . S
C531 C67 1.576 . S
C533 C42 1.612 . S
C549 C90 1.585 . S
C551 C65 1.621 . S
C567 C88 1.610 . S
C569 C21 1.574 . S
C585 C110 1.643 . S
C587 C182 1.569 . S
C603 C112 1.603 . S
C605 C134 1.584 . S
C621 C136 1.567 . S
C623 C157 1.604 . S
C639 C159 1.573 . S
C641 C180 1.609 . S
C657 C203 1.611 . S
C659 C228 1.575 . S
C675 C251 1.576 . S
C677 C226 1.612 . S
C693 C249 1.621 . S
C695 C274 1.585 . S
C711 C272 1.610 . S
C713 C205 1.574 . S
C729 C366 1.569 . S
C731 C294 1.643 . S
C747 C296 1.603 . S
C749 C318 1.584 . S
C765 C320 1.567 . S
C767 C341 1.604 . S
C783 C364 1.609 . S
C785 C343 1.573 . S
C801 C156 1.599 . S
C803 C17 1.616 . S
C819 C179 1.595 . S
C821 C40 1.613 . S
C837 C63 1.634 . S
C839 C111 1.600 . S
C855 C86 1.615 . S
C857 C133 1.598 . S
C873 C64 1.645 . S
C875 C108 1.655 . S
C891 C132 1.622 . S
C893 C87 1.604 . S
C909 C155 1.616 . S
C911 C18 1.598 . S
C927 C41 1.603 . S
C929 C178 1.620 . S
C945 C201 1.616 . S
C947 C340 1.599 . S
C963 C224 1.613 . S
C965 C363 1.595 . S
C981 C295 1.600 . S
C983 C247 1.634 . S
C999 C270 1.615 . S
C1001 C317 1.598 . S
C1017 C292 1.655 . S
C1019 C248 1.645 . S
C1035 C316 1.622 . S
C1037 C271 1.604 . S
C1053 C339 1.616 . S
C1055 C202 1.598 . S
C1071 C225 1.603 . S
C1073 C362 1.620 . S
C1089 C365 1.322 . S
C1091 C20 1.323 . S
C1107 C297 1.340 . S
C1109 C43 1.331 . S
C1125 C66 1.314 . S
C1127 C319 1.315 . S
C1143 C342 1.301 . S
C1145 C89 1.301 . S
C1161 C113 1.340 . S
C1163 C227 1.331 . S
C1179 C135 1.315 . S
C1181 C250 1.314 . S
C1197 C273 1.301 . S
C1199 C158 1.301 . S
C1215 C181 1.322 . S
C1217 C204 1.323 . S
