# Generated by pormake.
# Topology uoi, (4)-cn, num edge types: 1
# Building blocks:
#     Node 0, Type 0, BuildingBlock: GALJAG_clean_sbu_0, # of connection points: 4
#     Node 1, Type 0, BuildingBlock: GALJAG_clean_sbu_0, # of connection points: 4
#     Node 2, Type 0, BuildingBlock: GALJAG_clean_sbu_0, # of connection points: 4
#     Node 3, Type 0, BuildingBlock: GALJAG_clean_sbu_0, # of connection points: 4
#     Node 4, Type 0, BuildingBlock: GALJAG_clean_sbu_0, # of connection points: 4
#     Node 5, Type 0, BuildingBlock: GALJAG_clean_sbu_0, # of connection points: 4
#     Node 6, Type 0, BuildingBlock: GALJAG_clean_sbu_0, # of connection points: 4
#     Node 7, Type 0, BuildingBlock: GALJAG_clean_sbu_0, # of connection points: 4
#     Node 8, Type 0, BuildingBlock: GALJAG_clean_sbu_0, # of connection points: 4
#     Node 9, Type 0, BuildingBlock: GALJAG_clean_sbu_0, # of connection points: 4
#     Node 10, Type 0, BuildingBlock: GALJAG_clean_sbu_0, # of connection points: 4
#     Node 11, Type 0, BuildingBlock: GALJAG_clean_sbu_0, # of connection points: 4
#     Node 12, Type 0, BuildingBlock: GALJAG_clean_sbu_0, # of connection points: 4
#     Node 13, Type 0, BuildingBlock: GALJAG_clean_sbu_0, # of connection points: 4
#     Node 14, Type 0, BuildingBlock: GALJAG_clean_sbu_0, # of connection points: 4
#     Node 15, Type 0, BuildingBlock: GALJAG_clean_sbu_0, # of connection points: 4
#     Node 16, Type 0, BuildingBlock: GALJAG_clean_sbu_0, # of connection points: 4
#     Node 17, Type 0, BuildingBlock: GALJAG_clean_sbu_0, # of connection points: 4
#     Node 18, Type 0, BuildingBlock: GALJAG_clean_sbu_0, # of connection points: 4
#     Node 19, Type 0, BuildingBlock: GALJAG_clean_sbu_0, # of connection points: 4
#     Node 20, Type 0, BuildingBlock: GALJAG_clean_sbu_0, # of connection points: 4
#     Node 21, Type 0, BuildingBlock: GALJAG_clean_sbu_0, # of connection points: 4
#     Node 22, Type 0, BuildingBlock: GALJAG_clean_sbu_0, # of connection points: 4
#     Node 23, Type 0, BuildingBlock: GALJAG_clean_sbu_0, # of connection points: 4
#     Node 24, Type 0, BuildingBlock: GALJAG_clean_sbu_0, # of connection points: 4
#     Node 25, Type 0, BuildingBlock: GALJAG_clean_sbu_0, # of connection points: 4
#     Node 26, Type 0, BuildingBlock: GALJAG_clean_sbu_0, # of connection points: 4
#     Node 27, Type 0, BuildingBlock: GALJAG_clean_sbu_0, # of connection points: 4
#     Node 28, Type 0, BuildingBlock: GALJAG_clean_sbu_0, # of connection points: 4
#     Node 29, Type 0, BuildingBlock: GALJAG_clean_sbu_0, # of connection points: 4
#     Node 30, Type 0, BuildingBlock: GALJAG_clean_sbu_0, # of connection points: 4
#     Node 31, Type 0, BuildingBlock: GALJAG_clean_sbu_0, # of connection points: 4
#     Edge 32, Type (0, 0), BuildingBlock: UVAHIK_clean_linker_0, # of connection points: 2
#     Edge 33, Type (0, 0), BuildingBlock: UVAHIK_clean_linker_0, # of connection points: 2
#     Edge 34, Type (0, 0), BuildingBlock: UVAHIK_clean_linker_0, # of connection points: 2
#     Edge 35, Type (0, 0), BuildingBlock: UVAHIK_clean_linker_0, # of connection points: 2
#     Edge 36, Type (0, 0), BuildingBlock: UVAHIK_clean_linker_0, # of connection points: 2
#     Edge 37, Type (0, 0), BuildingBlock: UVAHIK_clean_linker_0, # of connection points: 2
#     Edge 38, Type (0, 0), BuildingBlock: UVAHIK_clean_linker_0, # of connection points: 2
#     Edge 39, Type (0, 0), BuildingBlock: UVAHIK_clean_linker_0, # of connection points: 2
#     Edge 40, Type (0, 0), BuildingBlock: UVAHIK_clean_linker_0, # of connection points: 2
#     Edge 41, Type (0, 0), BuildingBlock: UVAHIK_clean_linker_0, # of connection points: 2
#     Edge 42, Type (0, 0), BuildingBlock: UVAHIK_clean_linker_0, # of connection points: 2
#     Edge 43, Type (0, 0), BuildingBlock: UVAHIK_clean_linker_0, # of connection points: 2
#     Edge 44, Type (0, 0), BuildingBlock: UVAHIK_clean_linker_0, # of connection points: 2
#     Edge 45, Type (0, 0), BuildingBlock: UVAHIK_clean_linker_0, # of connection points: 2
#     Edge 46, Type (0, 0), BuildingBlock: UVAHIK_clean_linker_0, # of connection points: 2
#     Edge 47, Type (0, 0), BuildingBlock: UVAHIK_clean_linker_0, # of connection points: 2
#     Edge 48, Type (0, 0), BuildingBlock: UVAHIK_clean_linker_0, # of connection points: 2
#     Edge 49, Type (0, 0), BuildingBlock: UVAHIK_clean_linker_0, # of connection points: 2
#     Edge 50, Type (0, 0), BuildingBlock: UVAHIK_clean_linker_0, # of connection points: 2
#     Edge 51, Type (0, 0), BuildingBlock: UVAHIK_clean_linker_0, # of connection points: 2
#     Edge 52, Type (0, 0), BuildingBlock: UVAHIK_clean_linker_0, # of connection points: 2
#     Edge 53, Type (0, 0), BuildingBlock: UVAHIK_clean_linker_0, # of connection points: 2
#     Edge 54, Type (0, 0), BuildingBlock: UVAHIK_clean_linker_0, # of connection points: 2
#     Edge 55, Type (0, 0), BuildingBlock: UVAHIK_clean_linker_0, # of connection points: 2
#     Edge 56, Type (0, 0), BuildingBlock: UVAHIK_clean_linker_0, # of connection points: 2
#     Edge 57, Type (0, 0), BuildingBlock: UVAHIK_clean_linker_0, # of connection points: 2
#     Edge 58, Type (0, 0), BuildingBlock: UVAHIK_clean_linker_0, # of connection points: 2
#     Edge 59, Type (0, 0), BuildingBlock: UVAHIK_clean_linker_0, # of connection points: 2
#     Edge 60, Type (0, 0), BuildingBlock: UVAHIK_clean_linker_0, # of connection points: 2
#     Edge 61, Type (0, 0), BuildingBlock: UVAHIK_clean_linker_0, # of connection points: 2
#     Edge 62, Type (0, 0), BuildingBlock: UVAHIK_clean_linker_0, # of connection points: 2
#     Edge 63, Type (0, 0), BuildingBlock: UVAHIK_clean_linker_0, # of connection points: 2
#     Edge 64, Type (0, 0), BuildingBlock: UVAHIK_clean_linker_0, # of connection points: 2
#     Edge 65, Type (0, 0), BuildingBlock: UVAHIK_clean_linker_0, # of connection points: 2
#     Edge 66, Type (0, 0), BuildingBlock: UVAHIK_clean_linker_0, # of connection points: 2
#     Edge 67, Type (0, 0), BuildingBlock: UVAHIK_clean_linker_0, # of connection points: 2
#     Edge 68, Type (0, 0), BuildingBlock: UVAHIK_clean_linker_0, # of connection points: 2
#     Edge 69, Type (0, 0), BuildingBlock: UVAHIK_clean_linker_0, # of connection points: 2
#     Edge 70, Type (0, 0), BuildingBlock: UVAHIK_clean_linker_0, # of connection points: 2
#     Edge 71, Type (0, 0), BuildingBlock: UVAHIK_clean_linker_0, # of connection points: 2
#     Edge 72, Type (0, 0), BuildingBlock: UVAHIK_clean_linker_0, # of connection points: 2
#     Edge 73, Type (0, 0), BuildingBlock: UVAHIK_clean_linker_0, # of connection points: 2
#     Edge 74, Type (0, 0), BuildingBlock: UVAHIK_clean_linker_0, # of connection points: 2
#     Edge 75, Type (0, 0), BuildingBlock: UVAHIK_clean_linker_0, # of connection points: 2
#     Edge 76, Type (0, 0), BuildingBlock: UVAHIK_clean_linker_0, # of connection points: 2
#     Edge 77, Type (0, 0), BuildingBlock: UVAHIK_clean_linker_0, # of connection points: 2
#     Edge 78, Type (0, 0), BuildingBlock: UVAHIK_clean_linker_0, # of connection points: 2
#     Edge 79, Type (0, 0), BuildingBlock: UVAHIK_clean_linker_0, # of connection points: 2
#     Edge 80, Type (0, 0), BuildingBlock: UVAHIK_clean_linker_0, # of connection points: 2
#     Edge 81, Type (0, 0), BuildingBlock: UVAHIK_clean_linker_0, # of connection points: 2
#     Edge 82, Type (0, 0), BuildingBlock: UVAHIK_clean_linker_0, # of connection points: 2
#     Edge 83, Type (0, 0), BuildingBlock: UVAHIK_clean_linker_0, # of connection points: 2
#     Edge 84, Type (0, 0), BuildingBlock: UVAHIK_clean_linker_0, # of connection points: 2
#     Edge 85, Type (0, 0), BuildingBlock: UVAHIK_clean_linker_0, # of connection points: 2
#     Edge 86, Type (0, 0), BuildingBlock: UVAHIK_clean_linker_0, # of connection points: 2
#     Edge 87, Type (0, 0), BuildingBlock: UVAHIK_clean_linker_0, # of connection points: 2
#     Edge 88, Type (0, 0), BuildingBlock: UVAHIK_clean_linker_0, # of connection points: 2
#     Edge 89, Type (0, 0), BuildingBlock: UVAHIK_clean_linker_0, # of connection points: 2
#     Edge 90, Type (0, 0), BuildingBlock: UVAHIK_clean_linker_0, # of connection points: 2
#     Edge 91, Type (0, 0), BuildingBlock: UVAHIK_clean_linker_0, # of connection points: 2
#     Edge 92, Type (0, 0), BuildingBlock: UVAHIK_clean_linker_0, # of connection points: 2
#     Edge 93, Type (0, 0), BuildingBlock: UVAHIK_clean_linker_0, # of connection points: 2
#     Edge 94, Type (0, 0), BuildingBlock: UVAHIK_clean_linker_0, # of connection points: 2
#     Edge 95, Type (0, 0), BuildingBlock: UVAHIK_clean_linker_0, # of connection points: 2
# Relax obj value: 0.180
# Max RMSD: 0.417
# Mean RMSD: 0.267
data_MOF--net-uoi--node1-GALJAG_clean_sbu_0--edge1-UVAHIK_clean_linker_0
_symmetry_space_group_name_H-M    P1
_symmetry_Int_Tables_number       1
_symmetry_cell_setting            triclinic
loop_
_symmetry_equiv_pos_as_xyz
'x, y, z'
_cell_length_a     57.258636
_cell_length_b     88.502811
_cell_length_c     30.385739
_cell_angle_alpha  90.03917
_cell_angle_beta   90.006848
_cell_angle_gamma 89.997889
loop_
_atom_site_label
_atom_site_type_symbol
_atom_site_fract_x
_atom_site_fract_y
_atom_site_fract_z
_atom_type_partial_charge
In0 In 0.31716 0.19949 0.22781 0.0
O1 O 0.28549 0.20611 0.1852 0.0
O2 O 0.2981 0.18334 0.18455 0.0
C3 C 0.33308 0.22182 0.27895 0.0
C4 C 0.35036 0.19964 0.1662 0.0
C5 C 0.29933 0.18357 0.29462 0.0
O6 O 0.31476 0.2234 0.25577 0.0
O7 O 0.34317 0.20914 0.2755 0.0
O8 O 0.31911 0.18019 0.27833 0.0
O9 O 0.28923 0.19474 0.27708 0.0
C10 C 0.28333 0.19275 0.17037 0.0
O11 O 0.34616 0.18779 0.18837 0.0
O12 O 0.3384 0.21111 0.17626 0.0
In13 In 0.10938 0.89665 0.6344 0.0
O14 O 0.1348 0.87636 0.63864 0.0
O15 O 0.1253 0.88469 0.57579 0.0
C16 C 0.08482 0.89461 0.70974 0.0
C17 C 0.07241 0.8975 0.57974 0.0
C18 C 0.13626 0.92135 0.64896 0.0
O19 O 0.09705 0.88374 0.69565 0.0
O20 O 0.08504 0.90623 0.68579 0.0
O21 O 0.12432 0.9196 0.61449 0.0
O22 O 0.13576 0.91026 0.67494 0.0
C23 C 0.1364 0.87495 0.59741 0.0
O24 O 0.08726 0.90802 0.58189 0.0
O25 O 0.07606 0.88658 0.6056 0.0
In26 In 0.17972 0.79654 0.73385 0.0
O27 O 0.1512 0.80967 0.69664 0.0
O28 O 0.15729 0.78643 0.68141 0.0
C29 C 0.19347 0.81223 0.80498 0.0
C30 C 0.21302 0.80346 0.67521 0.0
C31 C 0.16728 0.77138 0.77683 0.0
O32 O 0.17329 0.8141 0.78863 0.0
O33 O 0.2061 0.80273 0.78518 0.0
O34 O 0.18722 0.77269 0.75905 0.0
O35 O 0.15392 0.78265 0.77256 0.0
C36 C 0.14618 0.79837 0.67275 0.0
O37 O 0.21004 0.78995 0.68793 0.0
O38 O 0.19975 0.81306 0.69296 0.0
In39 In 0.39551 0.10357 0.16403 0.0
O40 O 0.42033 0.09474 0.11148 0.0
O41 O 0.42038 0.11836 0.12367 0.0
C42 C 0.37509 0.07695 0.18349 0.0
C43 C 0.35939 0.11985 0.13234 0.0
C44 C 0.42041 0.10721 0.23844 0.0
O45 O 0.38598 0.0792 0.14799 0.0
O46 O 0.37405 0.08823 0.20886 0.0
O47 O 0.40303 0.1155 0.22962 0.0
O48 O 0.42523 0.09749 0.20952 0.0
C49 C 0.42875 0.10748 0.10192 0.0
O50 O 0.37205 0.1247 0.16334 0.0
O51 O 0.36485 0.10692 0.11838 0.0
In52 In 0.3113 0.78379 0.26879 0.0
O53 O 0.33787 0.79895 0.30315 0.0
O54 O 0.33949 0.7751 0.31372 0.0
C55 C 0.28805 0.80116 0.21075 0.0
C56 C 0.27989 0.78333 0.33449 0.0
C57 C 0.3302 0.76333 0.21393 0.0
O58 O 0.3077 0.80514 0.22602 0.0
O59 O 0.28051 0.78871 0.22509 0.0
O60 O 0.31522 0.75956 0.24264 0.0
O61 O 0.33533 0.77721 0.2134 0.0
C62 C 0.34739 0.78802 0.32332 0.0
O63 O 0.27998 0.77313 0.30519 0.0
O64 O 0.29525 0.79339 0.33022 0.0
In65 In 0.3931 0.90234 0.36667 0.0
O66 O 0.37827 0.87829 0.36727 0.0
O67 O 0.35833 0.89568 0.39719 0.0
C68 C 0.42312 0.90098 0.29867 0.0
C69 C 0.4214 0.90138 0.43765 0.0
C70 C 0.37127 0.92774 0.3403 0.0
O71 O 0.40552 0.8924 0.30116 0.0
O72 O 0.42556 0.90997 0.33056 0.0
O73 O 0.38129 0.92664 0.3772 0.0
O74 O 0.37162 0.91585 0.31731 0.0
C75 C 0.36004 0.88183 0.38813 0.0
O76 O 0.40725 0.91206 0.43096 0.0
O77 O 0.42103 0.89111 0.4089 0.0
In78 In 0.18048 0.20221 0.76806 0.0
O79 O 0.15182 0.19035 0.80766 0.0
O80 O 0.16138 0.21317 0.82337 0.0
C81 C 0.19875 0.18759 0.69936 0.0
C82 C 0.21371 0.19426 0.82492 0.0
C83 C 0.16304 0.22488 0.72057 0.0
O84 O 0.17945 0.1834 0.71615 0.0
O85 O 0.20815 0.19899 0.71725 0.0
O86 O 0.18199 0.22629 0.74199 0.0
O87 O 0.15307 0.21214 0.72386 0.0
C88 C 0.14917 0.20174 0.83269 0.0
O89 O 0.2113 0.20799 0.81341 0.0
O90 O 0.19991 0.18501 0.80686 0.0
In91 In 0.10802 0.09498 0.8392 0.0
O92 O 0.12359 0.11887 0.84172 0.0
O93 O 0.14164 0.10126 0.87457 0.0
C94 C 0.07716 0.09741 0.77277 0.0
C95 C 0.07953 0.0966 0.90966 0.0
C96 C 0.12967 0.06964 0.81127 0.0
O97 O 0.09571 0.10516 0.77389 0.0
O98 O 0.07445 0.08853 0.80481 0.0
O99 O 0.11895 0.07038 0.84753 0.0
O100 O 0.13006 0.08182 0.78964 0.0
C101 C 0.14052 0.11517 0.86598 0.0
O102 O 0.09259 0.08534 0.90279 0.0
O103 O 0.08095 0.1069 0.88117 0.0
In104 In 0.67958 0.79608 0.76085 0.0
O105 O 0.71125 0.78681 0.7994 0.0
O106 O 0.69492 0.8074 0.81973 0.0
C107 C 0.66525 0.77356 0.70811 0.0
C108 C 0.64456 0.79796 0.81912 0.0
C109 C 0.69841 0.8152 0.70174 0.0
O110 O 0.68311 0.77215 0.73244 0.0
O111 O 0.65504 0.78617 0.71071 0.0
O112 O 0.67685 0.81559 0.71088 0.0
O113 O 0.70999 0.80542 0.72244 0.0
C114 C 0.71056 0.79767 0.82667 0.0
O115 O 0.65227 0.80955 0.79935 0.0
O116 O 0.6534 0.78558 0.80682 0.0
In117 In 0.88791 0.10283 0.33944 0.0
O118 O 0.89577 0.09504 0.40997 0.0
O119 O 0.91934 0.11025 0.37913 0.0
C120 C 0.86691 0.07671 0.31647 0.0
C121 C 0.85749 0.12555 0.35709 0.0
C122 C 0.91798 0.1039 0.27135 0.0
O123 O 0.87656 0.07856 0.35351 0.0
O124 O 0.86707 0.08822 0.29192 0.0
O125 O 0.90084 0.11286 0.27415 0.0
O126 O 0.91979 0.09467 0.30271 0.0
C127 C 0.91435 0.10268 0.41292 0.0
O128 O 0.87911 0.12764 0.35294 0.0
O129 O 0.85103 0.11212 0.35086 0.0
In130 In 0.82276 0.20839 0.25874 0.0
O131 O 0.85116 0.19531 0.29589 0.0
O132 O 0.84475 0.21845 0.31226 0.0
C133 C 0.80875 0.19188 0.18943 0.0
C134 C 0.78919 0.20112 0.31649 0.0
C135 C 0.83561 0.23326 0.21458 0.0
O136 O 0.82936 0.19078 0.20434 0.0
O137 O 0.79586 0.20123 0.20923 0.0
O138 O 0.81578 0.23228 0.23296 0.0
O139 O 0.84862 0.22182 0.21886 0.0
C140 C 0.85601 0.20651 0.32023 0.0
O141 O 0.79135 0.2146 0.3028 0.0
O142 O 0.80365 0.19183 0.30073 0.0
In143 In 0.61295 0.91051 0.86684 0.0
O144 O 0.59494 0.92058 0.92715 0.0
O145 O 0.58348 0.89912 0.90431 0.0
C146 C 0.63683 0.93527 0.84084 0.0
C147 C 0.64361 0.89034 0.90022 0.0
C148 C 0.58497 0.90793 0.79614 0.0
O149 O 0.62432 0.93502 0.87503 0.0
O150 O 0.63794 0.92286 0.82042 0.0
O151 O 0.60223 0.89924 0.80207 0.0
O152 O 0.58204 0.91776 0.8257 0.0
C153 C 0.58125 0.90954 0.93229 0.0
O154 O 0.62977 0.88696 0.86943 0.0
O155 O 0.64272 0.90395 0.91222 0.0
In156 In 0.67853 0.20201 0.72631 0.0
O157 O 0.65183 0.18808 0.68714 0.0
O158 O 0.65448 0.21182 0.67564 0.0
C159 C 0.69826 0.1862 0.79133 0.0
C160 C 0.71226 0.19715 0.66723 0.0
C161 C 0.66201 0.22409 0.77788 0.0
O162 O 0.67754 0.18337 0.77881 0.0
O163 O 0.7084 0.19688 0.77144 0.0
O164 O 0.67937 0.22625 0.75261 0.0
O165 O 0.65322 0.21099 0.7763 0.0
C166 C 0.64533 0.19941 0.66471 0.0
O167 O 0.70784 0.21047 0.68059 0.0
O168 O 0.6999 0.18684 0.68398 0.0
In169 In 0.61003 0.1069 0.66285 0.0
O170 O 0.63682 0.12659 0.65953 0.0
O171 O 0.6246 0.11666 0.60031 0.0
C172 C 0.5876 0.11057 0.74003 0.0
C173 C 0.57167 0.10606 0.61165 0.0
C174 C 0.63693 0.08227 0.67736 0.0
O175 O 0.59895 0.12125 0.72246 0.0
O176 O 0.58777 0.09835 0.71872 0.0
O177 O 0.62343 0.08343 0.64478 0.0
O178 O 0.63768 0.09381 0.70173 0.0
C179 C 0.63709 0.12664 0.61794 0.0
O180 O 0.58545 0.09498 0.6154 0.0
O181 O 0.57697 0.11746 0.63457 0.0
In182 In 0.81226 0.79084 0.24025 0.0
O183 O 0.84146 0.80069 0.19732 0.0
O184 O 0.83129 0.77756 0.18896 0.0
C185 C 0.80026 0.81029 0.30431 0.0
C186 C 0.77987 0.79696 0.17974 0.0
C187 C 0.82585 0.76706 0.28825 0.0
O188 O 0.82074 0.81018 0.28845 0.0
O189 O 0.78644 0.80076 0.28776 0.0
O190 O 0.80569 0.76755 0.27093 0.0
O191 O 0.83849 0.77855 0.28185 0.0
C192 C 0.84394 0.7884 0.17619 0.0
O193 O 0.77782 0.78542 0.20426 0.0
O194 O 0.79743 0.80518 0.18707 0.0
In195 In 0.89329 0.90104 0.13617 0.0
O196 O 0.87407 0.87823 0.13314 0.0
O197 O 0.86462 0.89529 0.08748 0.0
C198 C 0.91779 0.89809 0.21121 0.0
C199 C 0.92774 0.89902 0.07588 0.0
C200 C 0.8704 0.92683 0.1565 0.0
O201 O 0.90019 0.88992 0.20303 0.0
O202 O 0.92301 0.9074 0.18141 0.0
O203 O 0.88176 0.92516 0.12126 0.0
O204 O 0.86975 0.91527 0.18077 0.0
C205 C 0.86172 0.88191 0.10045 0.0
O206 O 0.91669 0.91111 0.08308 0.0
O207 O 0.92152 0.88797 0.09929 0.0
In208 In 0.8248 0.69522 0.73227 0.0
O209 O 0.85573 0.68679 0.69046 0.0
O210 O 0.84339 0.70944 0.68296 0.0
C211 C 0.81387 0.67582 0.79672 0.0
C212 C 0.79238 0.68768 0.67261 0.0
C213 C 0.83369 0.71924 0.78341 0.0
O214 O 0.83475 0.67706 0.78322 0.0
O215 O 0.79919 0.68416 0.77765 0.0
O216 O 0.81406 0.71759 0.7646 0.0
O217 O 0.84828 0.70879 0.77657 0.0
C218 C 0.85745 0.69934 0.67046 0.0
O219 O 0.79217 0.70052 0.69128 0.0
O220 O 0.80866 0.67895 0.68451 0.0
In221 In 0.59698 0.39237 0.1534 0.0
O222 O 0.61292 0.36901 0.14109 0.0
O223 O 0.63353 0.38831 0.12657 0.0
C224 C 0.57195 0.38272 0.22341 0.0
C225 C 0.56705 0.39406 0.08492 0.0
C226 C 0.61311 0.42006 0.17614 0.0
O227 O 0.59386 0.38406 0.22462 0.0
O228 O 0.56296 0.38553 0.18652 0.0
O229 O 0.60568 0.41713 0.13797 0.0
O230 O 0.61291 0.40899 0.20215 0.0
C231 C 0.63193 0.3741 0.12621 0.0
O232 O 0.56581 0.40282 0.11766 0.0
O233 O 0.58358 0.38465 0.08644 0.0
In234 In 0.67457 0.29329 0.23021 0.0
O235 O 0.64383 0.30333 0.19172 0.0
O236 O 0.65425 0.2805 0.17938 0.0
C237 C 0.69067 0.31116 0.2944 0.0
C238 C 0.70569 0.30199 0.16997 0.0
C239 C 0.6632 0.26977 0.28114 0.0
O240 O 0.66944 0.3118 0.2824 0.0
O241 O 0.70311 0.30158 0.27443 0.0
O242 O 0.6808 0.26928 0.25568 0.0
O243 O 0.65177 0.28201 0.28037 0.0
C244 C 0.64108 0.29139 0.16915 0.0
O245 O 0.70695 0.28893 0.18731 0.0
O246 O 0.68907 0.31016 0.18343 0.0
In247 In 0.88841 0.60509 0.65063 0.0
O248 O 0.87113 0.62859 0.65034 0.0
O249 O 0.8549 0.61102 0.61436 0.0
C250 C 0.91732 0.60782 0.71994 0.0
C251 C 0.91842 0.60728 0.58226 0.0
C252 C 0.86917 0.57832 0.67338 0.0
O253 O 0.89827 0.61502 0.71777 0.0
O254 O 0.92157 0.59943 0.68735 0.0
O255 O 0.87842 0.58068 0.63634 0.0
O256 O 0.86877 0.58966 0.6986 0.0
C257 C 0.85484 0.6248 0.6247 0.0
O258 O 0.90519 0.59604 0.58777 0.0
O259 O 0.91644 0.61745 0.61108 0.0
In260 In 0.81944 0.29923 0.75571 0.0
O261 O 0.84904 0.30916 0.79741 0.0
O262 O 0.83742 0.28642 0.80879 0.0
C263 C 0.80207 0.31553 0.6895 0.0
C264 C 0.78667 0.30708 0.81353 0.0
C265 C 0.83652 0.27709 0.70558 0.0
O266 O 0.82222 0.31838 0.7051 0.0
O267 O 0.79134 0.30464 0.70729 0.0
O268 O 0.81749 0.27547 0.72667 0.0
O269 O 0.84645 0.28979 0.71007 0.0
C270 C 0.85075 0.29713 0.82011 0.0
O271 O 0.78685 0.29392 0.79656 0.0
O272 O 0.80269 0.31587 0.80065 0.0
In273 In 0.88871 0.39839 0.84629 0.0
O274 O 0.89984 0.40677 0.91432 0.0
O275 O 0.91656 0.38724 0.88844 0.0
C276 C 0.87255 0.42588 0.82239 0.0
C277 C 0.85449 0.37847 0.86712 0.0
C278 C 0.91886 0.39467 0.77917 0.0
O279 O 0.88269 0.42353 0.85864 0.0
O280 O 0.87004 0.41428 0.79861 0.0
O281 O 0.89819 0.38968 0.77743 0.0
O282 O 0.92406 0.40139 0.81442 0.0
C283 C 0.9149 0.39651 0.91981 0.0
O284 O 0.87399 0.37436 0.85219 0.0
O285 O 0.85191 0.39258 0.86956 0.0
In286 In 0.68763 0.70733 0.25301 0.0
O287 O 0.71819 0.71554 0.29669 0.0
O288 O 0.7076 0.6924 0.29817 0.0
C289 C 0.67157 0.73013 0.20348 0.0
C290 C 0.65404 0.70451 0.31373 0.0
C291 C 0.70586 0.69059 0.18797 0.0
O292 O 0.68923 0.73174 0.22832 0.0
O293 O 0.6623 0.71716 0.20421 0.0
O294 O 0.68552 0.68802 0.20275 0.0
O295 O 0.71637 0.70159 0.20554 0.0
C296 C 0.72117 0.70244 0.31279 0.0
O297 O 0.66069 0.69332 0.29097 0.0
O298 O 0.66341 0.71696 0.30397 0.0
In299 In 0.60095 0.59985 0.35177 0.0
O300 O 0.58612 0.59157 0.41733 0.0
O301 O 0.57372 0.61246 0.39235 0.0
C302 C 0.61741 0.5725 0.32788 0.0
C303 C 0.637 0.61827 0.3734 0.0
C304 C 0.57213 0.60342 0.28257 0.0
O305 O 0.60864 0.57505 0.3653 0.0
O306 O 0.61857 0.58388 0.3029 0.0
O307 O 0.59131 0.61044 0.28542 0.0
O308 O 0.56764 0.59484 0.31458 0.0
C309 C 0.57273 0.60274 0.42256 0.0
O310 O 0.61849 0.62313 0.35606 0.0
O311 O 0.63762 0.60415 0.37832 0.0
In312 In 0.18628 0.29806 0.27397 0.0
O313 O 0.21982 0.28773 0.30345 0.0
O314 O 0.20324 0.30624 0.33606 0.0
C315 C 0.17125 0.2758 0.22069 0.0
C316 C 0.15227 0.29981 0.33466 0.0
C317 C 0.20221 0.31851 0.21512 0.0
O318 O 0.18934 0.27426 0.2443 0.0
O319 O 0.16115 0.28842 0.22425 0.0
O320 O 0.18082 0.31773 0.22515 0.0
O321 O 0.21517 0.30943 0.2355 0.0
C322 C 0.2197 0.29681 0.33575 0.0
O323 O 0.16207 0.31151 0.31935 0.0
O324 O 0.15872 0.28753 0.3174 0.0
In325 In 0.38079 0.60788 0.85189 0.0
O326 O 0.36479 0.6317 0.85016 0.0
O327 O 0.34996 0.61562 0.89352 0.0
C328 C 0.41119 0.60958 0.78459 0.0
C329 C 0.41108 0.60812 0.91988 0.0
C330 C 0.35787 0.58291 0.82426 0.0
O331 O 0.39358 0.61819 0.78708 0.0
O332 O 0.41334 0.60037 0.816 0.0
O333 O 0.36637 0.58413 0.86239 0.0
O334 O 0.35985 0.59459 0.80073 0.0
C335 C 0.35002 0.62906 0.87996 0.0
O336 O 0.3972 0.5973 0.91296 0.0
O337 O 0.40964 0.61881 0.8926 0.0
In338 In 0.32596 0.70422 0.76214 0.0
O339 O 0.35619 0.69278 0.79936 0.0
O340 O 0.34738 0.71576 0.8136 0.0
C341 C 0.30741 0.6889 0.69475 0.0
C342 C 0.29276 0.69708 0.82044 0.0
C343 C 0.34086 0.72726 0.71279 0.0
O344 O 0.32721 0.68523 0.71044 0.0
O345 O 0.29765 0.70002 0.71323 0.0
O346 O 0.32343 0.72861 0.73835 0.0
O347 O 0.35053 0.71439 0.71277 0.0
C348 C 0.36006 0.70449 0.82247 0.0
O349 O 0.29452 0.71042 0.80534 0.0
O350 O 0.30759 0.68776 0.80591 0.0
In351 In 0.10803 0.40352 0.34609 0.0
O352 O 0.12797 0.38106 0.34509 0.0
O353 O 0.1424 0.39938 0.38115 0.0
C354 C 0.0766 0.39913 0.28131 0.0
C355 C 0.08039 0.4011 0.41757 0.0
C356 C 0.1276 0.42959 0.31882 0.0
O357 O 0.09585 0.39214 0.28215 0.0
O358 O 0.07342 0.40811 0.31294 0.0
O359 O 0.11919 0.42792 0.3569 0.0
O360 O 0.12668 0.41796 0.29478 0.0
C361 C 0.14416 0.38573 0.36983 0.0
O362 O 0.0877 0.41364 0.40348 0.0
O363 O 0.08723 0.38977 0.3959 0.0
In364 In 0.19026 0.71708 0.23377 0.0
O365 O 0.16283 0.7039 0.19468 0.0
O366 O 0.16578 0.72777 0.18538 0.0
C367 C 0.20863 0.69818 0.29418 0.0
C368 C 0.22289 0.71666 0.17041 0.0
C369 C 0.17339 0.7393 0.28481 0.0
O370 O 0.18833 0.69606 0.27884 0.0
O371 O 0.21906 0.70954 0.27887 0.0
O372 O 0.19289 0.74045 0.26547 0.0
O373 O 0.16273 0.72699 0.2787 0.0
C374 C 0.15604 0.71556 0.17402 0.0
O375 O 0.22218 0.72726 0.19839 0.0
O376 O 0.20769 0.7065 0.17514 0.0
In377 In 0.10884 0.60767 0.1503 0.0
O378 O 0.12439 0.63155 0.1443 0.0
O379 O 0.14537 0.613 0.12522 0.0
C380 C 0.08039 0.60984 0.22065 0.0
C381 C 0.0801 0.60969 0.08006 0.0
C382 C 0.12767 0.58067 0.17054 0.0
O383 O 0.09892 0.61755 0.21765 0.0
O384 O 0.0764 0.60128 0.18834 0.0
O385 O 0.11816 0.58336 0.13387 0.0
O386 O 0.12818 0.59174 0.19683 0.0
C387 C 0.14351 0.62712 0.12836 0.0
O388 O 0.09468 0.59913 0.08463 0.0
O389 O 0.08016 0.6193 0.11068 0.0
In390 In 0.31499 0.29884 0.73806 0.0
O391 O 0.34516 0.30773 0.6961 0.0
O392 O 0.33058 0.28584 0.68251 0.0
C393 C 0.29998 0.31513 0.8064 0.0
C394 C 0.28259 0.30845 0.68163 0.0
C395 C 0.33145 0.2762 0.78692 0.0
O396 O 0.31982 0.31764 0.78901 0.0
O397 O 0.28822 0.30457 0.78908 0.0
O398 O 0.31189 0.27514 0.76722 0.0
O399 O 0.34222 0.28856 0.78145 0.0
C400 C 0.34515 0.29594 0.67208 0.0
O401 O 0.28231 0.29493 0.69599 0.0
O402 O 0.29866 0.31678 0.69679 0.0
In403 In 0.38395 0.40473 0.64825 0.0
O404 O 0.42075 0.4081 0.62096 0.0
O405 O 0.39341 0.40358 0.57556 0.0
C406 C 0.36708 0.43276 0.66438 0.0
C407 C 0.35325 0.38327 0.62178 0.0
C408 C 0.40568 0.3968 0.72376 0.0
O409 O 0.38396 0.43039 0.63858 0.0
O410 O 0.35841 0.421 0.68115 0.0
O411 O 0.38726 0.40461 0.72321 0.0
O412 O 0.41264 0.39256 0.68639 0.0
C413 C 0.41496 0.40573 0.58147 0.0
O414 O 0.3703 0.38039 0.64662 0.0
O415 O 0.35098 0.39705 0.61237 0.0
C416 C 0.23139 0.18561 0.64581 0.0
C417 C 0.20987 0.18014 0.66113 0.0
C418 C 0.24174 0.17952 0.60835 0.0
C419 C 0.22634 0.16022 0.50577 0.0
H420 H 0.29333 0.16333 0.48923 0.0
C421 C 0.26569 0.17944 0.34468 0.0
C422 C 0.2887 0.1758 0.33273 0.0
C423 C 0.25603 0.17392 0.38348 0.0
C424 C 0.27465 0.16198 0.49314 0.0
H425 H 0.18269 0.16353 0.65016 0.0
H426 H 0.20097 0.15268 0.58425 0.0
H427 H 0.27717 0.16415 0.56304 0.0
H428 H 0.31917 0.16268 0.35064 0.0
H429 H 0.30214 0.1528 0.41892 0.0
H430 H 0.22383 0.15809 0.43584 0.0
C431 C 0.2097 0.16185 0.60117 0.0
C432 C 0.26532 0.16269 0.53558 0.0
C433 C 0.19924 0.16803 0.63892 0.0
C434 C 0.30143 0.16574 0.35921 0.0
C435 C 0.29169 0.16016 0.39836 0.0
C436 C 0.23571 0.15927 0.46336 0.0
C437 C 0.23096 0.16769 0.58512 0.0
C438 C 0.24098 0.16275 0.54217 0.0
C439 C 0.26905 0.16451 0.41152 0.0
C440 C 0.25986 0.16107 0.45631 0.0
H441 H 0.2401 0.19492 0.66214 0.0
H442 H 0.25778 0.1846 0.59664 0.0
H443 H 0.20754 0.16011 0.50945 0.0
H444 H 0.25532 0.18709 0.32484 0.0
H445 H 0.23876 0.1778 0.39257 0.0
C446 C 0.15126 0.93937 0.70561 0.0
C447 C 0.14634 0.93614 0.66131 0.0
C448 C 0.156 0.95418 0.71897 0.0
C449 C 0.14393 0.99328 0.68221 0.0
H450 H 0.17883 0.0037 0.78729 0.0
C451 C 0.14564 0.05412 0.74931 0.0
C452 C 0.13908 0.05528 0.79374 0.0
C453 C 0.15168 0.04011 0.73128 0.0
C454 C 0.16908 0.00094 0.75781 0.0
H455 H 0.14451 0.94559 0.59568 0.0
H456 H 0.15387 0.97131 0.61852 0.0
H457 H 0.18133 0.97809 0.75754 0.0
H458 H 0.13489 0.04286 0.8547 0.0
H459 H 0.14569 0.01842 0.82331 0.0
H460 H 0.13161 0.0161 0.68271 0.0
C461 C 0.15316 0.96256 0.64336 0.0
C462 C 0.17041 0.98626 0.74081 0.0
C463 C 0.14805 0.94778 0.63013 0.0
C464 C 0.13983 0.0423 0.82032 0.0
C465 C 0.14613 0.02832 0.80241 0.0
C466 C 0.14287 0.00797 0.69886 0.0
C467 C 0.15626 0.96607 0.6882 0.0
C468 C 0.15742 0.98212 0.7033 0.0
C469 C 0.15156 0.02702 0.75746 0.0
C470 C 0.15503 0.01189 0.73733 0.0
H471 H 0.14995 0.93064 0.73046 0.0
H472 H 0.15806 0.95637 0.7538 0.0
H473 H 0.13326 0.99055 0.65388 0.0
H474 H 0.14524 0.06392 0.72801 0.0
H475 H 0.15596 0.03944 0.69661 0.0
C476 C 0.25429 0.80368 0.15981 0.0
C477 C 0.2752 0.80965 0.17653 0.0
C478 C 0.24312 0.81046 0.12422 0.0
C479 C 0.25699 0.83395 0.02801 0.0
H480 H 0.19149 0.8263 0.00462 0.0
C481 C 0.22507 0.81755 0.85871 0.0
C482 C 0.20174 0.81959 0.84579 0.0
C483 C 0.23274 0.82243 0.89977 0.0
C484 C 0.20968 0.82893 0.01058 0.0
H485 H 0.30008 0.82798 0.17086 0.0
H486 H 0.28022 0.84013 0.10888 0.0
H487 H 0.2062 0.82431 0.07928 0.0
H488 H 0.16848 0.8293 0.86457 0.0
H489 H 0.18201 0.83812 0.93676 0.0
H490 H 0.26043 0.83868 0.95937 0.0
C491 C 0.27273 0.82997 0.12276 0.0
C492 C 0.21824 0.82754 0.05347 0.0
C493 C 0.28407 0.82306 0.15839 0.0
C494 C 0.18654 0.8275 0.87381 0.0
C495 C 0.19428 0.83247 0.91521 0.0
C496 C 0.24834 0.83564 0.98529 0.0
C497 C 0.25239 0.82352 0.10449 0.0
C498 C 0.24227 0.82909 0.06225 0.0
C499 C 0.21735 0.82961 0.92916 0.0
C500 C 0.22489 0.83221 0.97554 0.0
H501 H 0.24694 0.79337 0.1731 0.0
H502 H 0.22784 0.80491 0.11084 0.0
H503 H 0.27556 0.83537 0.03326 0.0
H504 H 0.23729 0.81157 0.83778 0.0
H505 H 0.25048 0.81973 0.90928 0.0
C506 C 0.36437 0.05038 0.16439 0.0
C507 C 0.36614 0.06191 0.19594 0.0
C508 C 0.35849 0.03569 0.17701 0.0
C509 C 0.33749 0.0124 0.27206 0.0
H510 H 0.37463 0.98133 0.2155 0.0
C511 C 0.36165 0.95506 0.35069 0.0
C512 C 0.3623 0.94226 0.32338 0.0
C513 C 0.35644 0.96927 0.33317 0.0
C514 C 0.36381 0.98982 0.23114 0.0
H515 H 0.36229 0.06731 0.26512 0.0
H516 H 0.35291 0.04162 0.2875 0.0
H517 H 0.37614 0.00704 0.18799 0.0
H518 H 0.35679 0.93411 0.25686 0.0
H519 H 0.34791 0.95897 0.2262 0.0
H520 H 0.32626 0.99511 0.31678 0.0
C521 C 0.35545 0.04389 0.25282 0.0
C522 C 0.3646 0.0046 0.21528 0.0
C523 C 0.36098 0.05864 0.24007 0.0
C524 C 0.35647 0.94379 0.27869 0.0
C525 C 0.35149 0.95801 0.2611 0.0
C526 C 0.33694 0.99761 0.28827 0.0
C527 C 0.35464 0.03215 0.22159 0.0
C528 C 0.35174 0.01616 0.23591 0.0
C529 C 0.35201 0.97094 0.28795 0.0
C530 C 0.35035 0.98623 0.2683 0.0
H531 H 0.36802 0.05264 0.13004 0.0
H532 H 0.35748 0.02704 0.15186 0.0
H533 H 0.32703 0.02093 0.28832 0.0
H534 H 0.36603 0.95421 0.38528 0.0
H535 H 0.35714 0.97905 0.35459 0.0
C536 C 0.76897 0.82198 0.34951 0.0
C537 C 0.79291 0.81981 0.34172 0.0
C538 C 0.76126 0.82842 0.38878 0.0
C539 C 0.77892 0.82878 0.50268 0.0
H540 H 0.72157 0.85149 0.51817 0.0
C541 C 0.69703 0.82757 0.62784 0.0
C542 C 0.70935 0.82416 0.66645 0.0
C543 C 0.70899 0.83273 0.59054 0.0
C544 C 0.73761 0.84514 0.51447 0.0
H545 H 0.82769 0.82368 0.36732 0.0
H546 H 0.81418 0.83485 0.43673 0.0
H547 H 0.74031 0.85065 0.44593 0.0
H548 H 0.74316 0.82494 0.69828 0.0
H549 H 0.76383 0.83464 0.63422 0.0
H550 H 0.77564 0.82236 0.56989 0.0
C551 C 0.80139 0.83153 0.41231 0.0
C552 C 0.74841 0.84473 0.47314 0.0
C553 C 0.80913 0.8252 0.37259 0.0
C554 C 0.73333 0.82732 0.6686 0.0
C555 C 0.74518 0.83276 0.63175 0.0
C556 C 0.76809 0.8291 0.54378 0.0
C557 C 0.77733 0.83271 0.42139 0.0
C558 C 0.76876 0.83611 0.46648 0.0
C559 C 0.73342 0.83477 0.59154 0.0
C560 C 0.74687 0.83686 0.54994 0.0
H561 H 0.75608 0.81802 0.32608 0.0
H562 H 0.74264 0.82902 0.39477 0.0
H563 H 0.79436 0.82185 0.4986 0.0
H564 H 0.67853 0.82514 0.62536 0.0
H565 H 0.6993 0.83405 0.56019 0.0
C566 C 0.8523 0.05979 0.25662 0.0
C567 C 0.85864 0.0618 0.30092 0.0
C568 C 0.84789 0.04534 0.24002 0.0
C569 C 0.83531 0.00568 0.26943 0.0
H570 H 0.87214 0.99654 0.16574 0.0
C571 C 0.85685 0.94459 0.21523 0.0
C572 C 0.86123 0.94168 0.17055 0.0
C573 C 0.8519 0.95927 0.22957 0.0
C574 C 0.86125 0.99888 0.19405 0.0
H575 H 0.86396 0.05036 0.36318 0.0
H576 H 0.85603 0.02509 0.3342 0.0
H577 H 0.87119 0.02217 0.19394 0.0
H578 H 0.86219 0.95156 0.1054 0.0
H579 H 0.8525 0.97702 0.12994 0.0
H580 H 0.82536 0.98236 0.26959 0.0
C581 C 0.85452 0.0347 0.31234 0.0
C582 C 0.86081 0.01363 0.21034 0.0
C583 C 0.85915 0.04916 0.32888 0.0
C584 C 0.85911 0.95352 0.14012 0.0
C585 C 0.85377 0.96814 0.15432 0.0
C586 C 0.83549 0.99092 0.25277 0.0
C587 C 0.84951 0.03261 0.26745 0.0
C588 C 0.84811 0.01716 0.24852 0.0
C589 C 0.85089 0.97134 0.19942 0.0
C590 C 0.84876 0.98726 0.21518 0.0
H591 H 0.8517 0.06931 0.23425 0.0
H592 H 0.84381 0.04408 0.2054 0.0
H593 H 0.82523 0.00812 0.29875 0.0
H594 H 0.85849 0.93568 0.23947 0.0
H595 H 0.85006 0.96123 0.26456 0.0
C596 C 0.73419 0.17595 0.82545 0.0
C597 C 0.71001 0.17833 0.82775 0.0
C598 C 0.74662 0.17132 0.86252 0.0
C599 C 0.77021 0.17591 0.94935 0.0
H600 H 0.74459 0.15427 0.04909 0.0
C601 C 0.81533 0.1783 0.11792 0.0
C602 C 0.80006 0.18359 0.15061 0.0
C603 C 0.80642 0.17269 0.07815 0.0
C604 C 0.75207 0.16023 0.02132 0.0
H605 H 0.67951 0.17696 0.86948 0.0
H606 H 0.70128 0.16954 0.93521 0.0
H607 H 0.72465 0.15312 0.97802 0.0
H608 H 0.76369 0.1861 0.16905 0.0
H609 H 0.74825 0.17627 0.10026 0.0
H610 H 0.7972 0.18335 0.99283 0.0
C611 C 0.7107 0.17079 0.90455 0.0
C612 C 0.74058 0.15966 0.98068 0.0
C613 C 0.69816 0.17509 0.86697 0.0
C614 C 0.77586 0.1822 0.14422 0.0
C615 C 0.767 0.17643 0.10494 0.0
C616 C 0.78177 0.17635 0.98974 0.0
C617 C 0.73524 0.16942 0.90316 0.0
C618 C 0.74912 0.16788 0.94448 0.0
C619 C 0.78214 0.17207 0.07089 0.0
C620 C 0.77244 0.16892 0.02653 0.0
H621 H 0.74365 0.17823 0.79527 0.0
H622 H 0.76535 0.1699 0.85972 0.0
H623 H 0.77719 0.18265 0.92271 0.0
H624 H 0.83406 0.17924 0.12209 0.0
H625 H 0.81849 0.16933 0.0525 0.0
C626 C 0.65449 0.9503 0.77959 0.0
C627 C 0.64702 0.94942 0.82356 0.0
C628 C 0.66062 0.96424 0.76121 0.0
C629 C 0.67598 0.0039 0.78584 0.0
H630 H 0.63915 0.01299 0.68219 0.0
C631 C 0.65372 0.06479 0.73352 0.0
C632 C 0.64794 0.06777 0.68948 0.0
C633 C 0.65969 0.05015 0.74675 0.0
C634 C 0.65012 0.01065 0.71037 0.0
H635 H 0.64156 0.96221 0.88355 0.0
H636 H 0.65259 0.9865 0.8516 0.0
H637 H 0.63933 0.98751 0.71144 0.0
H638 H 0.64583 0.05817 0.62404 0.0
H639 H 0.65745 0.03283 0.64649 0.0
H640 H 0.68672 0.02706 0.785 0.0
C641 C 0.65363 0.97645 0.83132 0.0
C642 C 0.65011 0.99598 0.72727 0.0
C643 C 0.6472 0.96256 0.84954 0.0
C644 C 0.64998 0.05614 0.65832 0.0
C645 C 0.65641 0.04157 0.67135 0.0
C646 C 0.6763 0.01856 0.76853 0.0
C647 C 0.65971 0.9775 0.78663 0.0
C648 C 0.66258 0.99254 0.76574 0.0
C649 C 0.6604 0.03822 0.71605 0.0
C650 C 0.66288 0.02224 0.73117 0.0
H651 H 0.65453 0.94036 0.75877 0.0
H652 H 0.66539 0.96472 0.72674 0.0
H653 H 0.68591 0.0015 0.81537 0.0
H654 H 0.65216 0.07353 0.75831 0.0
H655 H 0.66237 0.04809 0.78149 0.0
C656 C 0.78479 0.65997 0.83529 0.0
C657 C 0.8068 0.66691 0.83528 0.0
C658 C 0.77448 0.65545 0.87473 0.0
C659 C 0.74883 0.66251 0.95801 0.0
H660 H 0.78069 0.65377 0.06757 0.0
C661 C 0.70359 0.67236 0.12462 0.0
C662 C 0.71684 0.68173 0.15235 0.0
C663 C 0.71407 0.6653 0.08836 0.0
C664 C 0.77151 0.6561 0.03715 0.0
H665 H 0.83619 0.67356 0.87556 0.0
H666 H 0.81793 0.66623 0.9449 0.0
H667 H 0.80096 0.64979 0.99772 0.0
H668 H 0.75163 0.6903 0.16565 0.0
H669 H 0.76979 0.67806 0.10281 0.0
H670 H 0.71974 0.66933 0.99733 0.0
C671 C 0.80873 0.66385 0.91455 0.0
C672 C 0.78314 0.65388 0.99715 0.0
C673 C 0.81928 0.66806 0.87481 0.0
C674 C 0.74091 0.68324 0.14461 0.0
C675 C 0.75139 0.67608 0.10885 0.0
C676 C 0.73719 0.66461 0.99789 0.0
C677 C 0.78569 0.65822 0.91513 0.0
C678 C 0.77222 0.65758 0.9571 0.0
C679 C 0.73802 0.66732 0.07968 0.0
C680 C 0.74868 0.66197 0.03793 0.0
H681 H 0.77491 0.65892 0.80501 0.0
H682 H 0.75705 0.65071 0.87372 0.0
H683 H 0.73987 0.66575 0.9281 0.0
H684 H 0.68501 0.67095 0.12997 0.0
H685 H 0.70336 0.65855 0.0665 0.0
C686 C 0.6265 0.55392 0.26821 0.0
C687 C 0.62369 0.55712 0.31318 0.0
C688 C 0.62942 0.53902 0.25382 0.0
C689 C 0.61718 0.49994 0.29065 0.0
H690 H 0.65258 0.48892 0.18666 0.0
C691 C 0.62508 0.43819 0.23494 0.0
C692 C 0.61973 0.43543 0.19053 0.0
C693 C 0.62892 0.4529 0.24989 0.0
C694 C 0.64259 0.49187 0.21569 0.0
H695 H 0.62316 0.5474 0.37859 0.0
H696 H 0.62915 0.5215 0.35381 0.0
H697 H 0.65391 0.51493 0.21383 0.0
H698 H 0.61524 0.44584 0.12653 0.0
H699 H 0.62208 0.47163 0.15271 0.0
H700 H 0.60591 0.47692 0.29255 0.0
C701 C 0.6283 0.53039 0.32937 0.0
C702 C 0.64328 0.50676 0.23122 0.0
C703 C 0.62506 0.54525 0.34367 0.0
C704 C 0.6193 0.44763 0.16096 0.0
C705 C 0.62331 0.46237 0.17589 0.0
C706 C 0.6167 0.48507 0.27541 0.0
C707 C 0.62986 0.52701 0.28418 0.0
C708 C 0.63042 0.51102 0.26876 0.0
C709 C 0.62764 0.46518 0.22071 0.0
C710 C 0.62925 0.48088 0.23762 0.0
H711 H 0.6254 0.56285 0.24393 0.0
H712 H 0.63032 0.53689 0.21878 0.0
H713 H 0.60659 0.50281 0.31896 0.0
H714 H 0.62564 0.42902 0.25851 0.0
H715 H 0.63251 0.4547 0.2845 0.0
C716 C 0.68834 0.32245 0.36978 0.0
C717 C 0.70065 0.32021 0.33044 0.0
C718 C 0.69992 0.32802 0.40707 0.0
C719 C 0.72732 0.34209 0.48252 0.0
H720 H 0.78857 0.32382 0.49432 0.0
C721 C 0.7674 0.32306 0.64568 0.0
C722 C 0.79171 0.32354 0.65166 0.0
C723 C 0.75734 0.32817 0.60667 0.0
C724 C 0.77177 0.32935 0.49133 0.0
H725 H 0.73378 0.32337 0.29745 0.0
H726 H 0.75362 0.33386 0.36138 0.0
H727 H 0.7684 0.32251 0.42447 0.0
H728 H 0.8245 0.33062 0.62285 0.0
H729 H 0.80688 0.33941 0.55376 0.0
H730 H 0.73035 0.34799 0.55077 0.0
C731 C 0.73542 0.33072 0.3645 0.0
C732 C 0.7601 0.32862 0.45108 0.0
C733 C 0.72402 0.32484 0.32772 0.0
C734 C 0.80571 0.33013 0.619 0.0
C735 C 0.79564 0.33509 0.57949 0.0
C736 C 0.73896 0.3427 0.52302 0.0
C737 C 0.7239 0.33167 0.40528 0.0
C738 C 0.73745 0.33461 0.44636 0.0
C739 C 0.7714 0.33373 0.57248 0.0
C740 C 0.76104 0.33595 0.52813 0.0
H741 H 0.67032 0.31886 0.37264 0.0
H742 H 0.69044 0.32848 0.43786 0.0
H743 H 0.71012 0.34709 0.47995 0.0
H744 H 0.75617 0.31811 0.67051 0.0
H745 H 0.73869 0.32682 0.60223 0.0
C746 C 0.86733 0.45356 0.83644 0.0
C747 C 0.86579 0.44119 0.80759 0.0
C748 C 0.863 0.46823 0.82136 0.0
C749 C 0.86677 0.49064 0.72107 0.0
H750 H 0.83197 0.52071 0.78678 0.0
C751 C 0.85955 0.55139 0.6565 0.0
C752 C 0.86194 0.56304 0.68755 0.0
C753 C 0.85585 0.5365 0.67011 0.0
C754 C 0.84192 0.5125 0.76819 0.0
H755 H 0.85779 0.4344 0.74069 0.0
H756 H 0.85047 0.46004 0.71426 0.0
H757 H 0.83338 0.49464 0.81316 0.0
H758 H 0.8615 0.56836 0.75714 0.0
H759 H 0.8558 0.54235 0.7811 0.0
H760 H 0.87626 0.50841 0.67717 0.0
C761 C 0.85506 0.45839 0.74851 0.0
C762 C 0.84264 0.49755 0.78325 0.0
C763 C 0.85914 0.44371 0.76369 0.0
C764 C 0.85959 0.55961 0.73244 0.0
C765 C 0.85623 0.54468 0.74614 0.0
C766 C 0.86629 0.50557 0.7063 0.0
C767 C 0.85729 0.47083 0.77702 0.0
C768 C 0.8552 0.48649 0.75997 0.0
C769 C 0.85485 0.53286 0.71517 0.0
C770 C 0.85399 0.51676 0.72976 0.0
H771 H 0.8724 0.45196 0.87046 0.0
H772 H 0.86503 0.47759 0.84401 0.0
H773 H 0.87691 0.48242 0.7028 0.0
H774 H 0.8611 0.55373 0.62163 0.0
H775 H 0.85426 0.5278 0.64522 0.0
C776 C 0.30646 0.3301 0.87561 0.0
C777 C 0.29116 0.3232 0.84558 0.0
C778 C 0.29802 0.33561 0.91587 0.0
C779 C 0.24399 0.34525 0.97794 0.0
H780 H 0.27602 0.32673 0.07636 0.0
C781 C 0.23499 0.33163 0.17751 0.0
C782 C 0.21136 0.32744 0.17797 0.0
C783 C 0.24546 0.3367 0.13873 0.0
C784 C 0.26706 0.33241 0.04971 0.0
H785 H 0.25495 0.31762 0.83251 0.0
H786 H 0.24028 0.32732 0.90213 0.0
H787 H 0.2936 0.32593 0.00393 0.0
H788 H 0.17968 0.32621 0.13931 0.0
H789 H 0.19804 0.33444 0.07104 0.0
H790 H 0.21712 0.3514 0.0236 0.0
C791 C 0.25873 0.32848 0.89494 0.0
C792 C 0.27722 0.3319 0.00797 0.0
C793 C 0.26717 0.3228 0.85518 0.0
C794 C 0.19791 0.32948 0.13985 0.0
C795 C 0.20851 0.33424 0.10069 0.0
C796 C 0.23391 0.34591 0.01989 0.0
C797 C 0.27412 0.33453 0.92632 0.0
C798 C 0.26546 0.33786 0.97138 0.0
C799 C 0.23268 0.33728 0.0992 0.0
C800 C 0.24495 0.33905 0.05613 0.0
H801 H 0.32503 0.33054 0.869 0.0
H802 H 0.31027 0.34027 0.93941 0.0
H803 H 0.23463 0.35008 0.95035 0.0
H804 H 0.24568 0.33028 0.20668 0.0
H805 H 0.2639 0.33941 0.13932 0.0
C806 C 0.36675 0.46079 0.65279 0.0
C807 C 0.35942 0.44812 0.67695 0.0
C808 C 0.3612 0.47538 0.66711 0.0
C809 C 0.35194 0.49624 0.76752 0.0
H810 H 0.32725 0.52803 0.6932 0.0
C811 C 0.34361 0.5565 0.83522 0.0
C812 C 0.34972 0.56829 0.80661 0.0
C813 C 0.3397 0.54193 0.81896 0.0
C814 C 0.3344 0.51935 0.71436 0.0
H815 H 0.34006 0.44074 0.7344 0.0
H816 H 0.3309 0.46627 0.75997 0.0
H817 H 0.33068 0.50235 0.66437 0.0
H818 H 0.35566 0.57428 0.73843 0.0
H819 H 0.34993 0.54885 0.71018 0.0
H820 H 0.35713 0.51311 0.81661 0.0
C821 C 0.34074 0.46488 0.72979 0.0
C822 C 0.33621 0.50463 0.69782 0.0
C823 C 0.34592 0.4503 0.71505 0.0
C824 C 0.35078 0.56541 0.76122 0.0
C825 C 0.34739 0.55078 0.74502 0.0
C826 C 0.35057 0.51097 0.78378 0.0
C827 C 0.34858 0.47756 0.70626 0.0
C828 C 0.34515 0.49297 0.7242 0.0
C829 C 0.34241 0.53873 0.7738 0.0
C830 C 0.34196 0.5228 0.75736 0.0
H831 H 0.37716 0.45943 0.62328 0.0
H832 H 0.36759 0.48498 0.64857 0.0
H833 H 0.35919 0.48748 0.78835 0.0
H834 H 0.3425 0.55844 0.87037 0.0
H835 H 0.33519 0.53311 0.84209 0.0
C836 C 0.20684 0.67764 0.35158 0.0
C837 C 0.21937 0.68893 0.32929 0.0
C838 C 0.21666 0.6704 0.38829 0.0
C839 C 0.27257 0.66752 0.45352 0.0
H840 H 0.23035 0.66624 0.55293 0.0
C841 C 0.30828 0.67081 0.6305 0.0
C842 C 0.29641 0.68151 0.65628 0.0
C843 C 0.29822 0.66538 0.5914 0.0
C844 C 0.24243 0.66652 0.52553 0.0
H845 H 0.25245 0.70083 0.32623 0.0
H846 H 0.26908 0.68879 0.39004 0.0
H847 H 0.21462 0.66857 0.47917 0.0
H848 H 0.26422 0.69426 0.66272 0.0
H849 H 0.24721 0.68532 0.59506 0.0
H850 H 0.30044 0.66708 0.50022 0.0
C851 C 0.25195 0.68513 0.37933 0.0
C852 C 0.23335 0.66761 0.48296 0.0
C853 C 0.24225 0.69224 0.34281 0.0
C854 C 0.27393 0.68607 0.64352 0.0
C855 C 0.26398 0.68075 0.60473 0.0
C856 C 0.28166 0.66675 0.49616 0.0
C857 C 0.23915 0.67437 0.40334 0.0
C858 C 0.24835 0.66899 0.44655 0.0
C859 C 0.27613 0.67058 0.57751 0.0
C860 C 0.26671 0.6671 0.53284 0.0
H861 H 0.18921 0.67478 0.34166 0.0
H862 H 0.20639 0.66203 0.40557 0.0
H863 H 0.28466 0.66798 0.42616 0.0
H864 H 0.3256 0.66702 0.6397 0.0
H865 H 0.30799 0.65743 0.57154 0.0
C866 C 0.14087 0.4464 0.2576 0.0
C867 C 0.13586 0.44436 0.30246 0.0
C868 C 0.14572 0.4608 0.24111 0.0
C869 C 0.16149 0.49995 0.27213 0.0
H870 H 0.12307 0.51084 0.17201 0.0
C871 C 0.13992 0.56175 0.2271 0.0
C872 C 0.13572 0.5654 0.18284 0.0
C873 C 0.14461 0.54683 0.23935 0.0
C874 C 0.13437 0.50798 0.19934 0.0
H875 H 0.13327 0.45562 0.36566 0.0
H876 H 0.14181 0.48076 0.33689 0.0
H877 H 0.12355 0.48487 0.1976 0.0
H878 H 0.13464 0.55657 0.11635 0.0
H879 H 0.1436 0.53064 0.13741 0.0
H880 H 0.17211 0.52314 0.27417 0.0
C881 C 0.14203 0.47124 0.31447 0.0
C882 C 0.13458 0.49305 0.21408 0.0
C883 C 0.13701 0.45686 0.3309 0.0
C884 C 0.13756 0.55403 0.15079 0.0
C885 C 0.14254 0.53916 0.16294 0.0
C886 C 0.16145 0.51489 0.25713 0.0
C887 C 0.14584 0.47342 0.26923 0.0
C888 C 0.14781 0.48892 0.25107 0.0
C889 C 0.14546 0.53528 0.2075 0.0
C890 C 0.14755 0.51915 0.221 0.0
H891 H 0.14018 0.43696 0.23491 0.0
H892 H 0.14884 0.46212 0.20617 0.0
H893 H 0.17204 0.49704 0.30049 0.0
H894 H 0.13854 0.57029 0.25253 0.0
H895 H 0.1465 0.54427 0.27401 0.0
C896 C 0.1493 0.14167 0.8902 0.0
C897 C 0.15557 0.12631 0.88854 0.0
C898 C 0.16079 0.15154 0.91903 0.0
C899 C 0.18942 0.15 0.02482 0.0
H900 H 0.21902 0.18831 0.99835 0.0
C901 C 0.26165 0.17237 0.13231 0.0
C902 C 0.26478 0.18789 0.13963 0.0
C903 C 0.24464 0.16722 0.10343 0.0
C904 C 0.21043 0.17779 0.00641 0.0
H905 H 0.1799 0.10952 0.91299 0.0
H906 H 0.20013 0.1268 0.96255 0.0
H907 H 0.19799 0.17463 0.94028 0.0
H908 H 0.25251 0.21026 0.12222 0.0
H909 H 0.22254 0.20113 0.07045 0.0
H910 H 0.20223 0.15272 0.09022 0.0
C911 C 0.18606 0.13112 0.94229 0.0
C912 C 0.19841 0.16997 0.97319 0.0
C913 C 0.17457 0.12127 0.91376 0.0
C914 C 0.25041 0.19822 0.11722 0.0
C915 C 0.23335 0.193 0.08757 0.0
C916 C 0.20132 0.15775 0.05777 0.0
C917 C 0.17875 0.14621 0.94634 0.0
C918 C 0.18865 0.15572 0.98183 0.0
C919 C 0.23026 0.17739 0.08058 0.0
C920 C 0.21303 0.17133 0.04845 0.0
H921 H 0.13463 0.14585 0.87129 0.0
H922 H 0.15469 0.16305 0.92195 0.0
H923 H 0.18143 0.13923 0.03264 0.0
H924 H 0.27242 0.16408 0.14892 0.0
H925 H 0.2432 0.15514 0.0983 0.0
C926 C 0.23839 0.7868 0.35532 0.0
C927 C 0.26172 0.785 0.3682 0.0
C928 C 0.22233 0.79339 0.3842 0.0
C929 C 0.20974 0.80499 0.49827 0.0
H930 H 0.18693 0.84166 0.44348 0.0
C931 C 0.16632 0.85409 0.59703 0.0
C932 C 0.14911 0.86257 0.57529 0.0
C933 C 0.17871 0.84283 0.57437 0.0
C934 C 0.19264 0.83135 0.45932 0.0
H935 H 0.28631 0.78743 0.42185 0.0
H936 H 0.25776 0.7979 0.47344 0.0
H937 H 0.20888 0.82363 0.40017 0.0
H938 H 0.13025 0.86528 0.51394 0.0
H939 H 0.15091 0.84543 0.47534 0.0
H940 H 0.19322 0.81269 0.55755 0.0
C941 C 0.25198 0.79455 0.44097 0.0
C942 C 0.20528 0.82101 0.43433 0.0
C943 C 0.26826 0.7885 0.41157 0.0
C944 C 0.14382 0.85917 0.5313 0.0
C945 C 0.15584 0.84783 0.50903 0.0
C946 C 0.19668 0.81528 0.52335 0.0
C947 C 0.22918 0.79774 0.42684 0.0
C948 C 0.21403 0.80776 0.45346 0.0
C949 C 0.1739 0.83975 0.52978 0.0
C950 C 0.18796 0.82863 0.50409 0.0
H951 H 0.23313 0.78449 0.32172 0.0
H952 H 0.20495 0.79594 0.37232 0.0
H953 H 0.21645 0.79487 0.51379 0.0
H954 H 0.17059 0.85639 0.63111 0.0
H955 H 0.19239 0.83685 0.59147 0.0
C956 C 0.34782 0.85508 0.40204 0.0
C957 C 0.34293 0.87062 0.40397 0.0
C958 C 0.33274 0.84466 0.42178 0.0
C959 C 0.27323 0.84077 0.46964 0.0
H960 H 0.30264 0.81214 0.54892 0.0
C961 C 0.2318 0.82338 0.63028 0.0
C962 C 0.22949 0.80797 0.64025 0.0
C963 C 0.24507 0.82805 0.59453 0.0
C964 C 0.29418 0.81984 0.52627 0.0
H965 H 0.31802 0.88739 0.4263 0.0
H966 H 0.29182 0.8693 0.46058 0.0
H967 H 0.32652 0.82609 0.49606 0.0
H968 H 0.24029 0.78535 0.62188 0.0
H969 H 0.26461 0.79371 0.55953 0.0
H970 H 0.24122 0.83537 0.50226 0.0
C971 C 0.30713 0.86507 0.44363 0.0
C972 C 0.3078 0.82781 0.49588 0.0
C973 C 0.32224 0.87548 0.42425 0.0
C974 C 0.24175 0.79731 0.61485 0.0
C975 C 0.25553 0.80205 0.57923 0.0
C976 C 0.25974 0.83297 0.50028 0.0
C977 C 0.31239 0.84955 0.44331 0.0
C978 C 0.29758 0.83884 0.46858 0.0
C979 C 0.25678 0.81746 0.56828 0.0
C980 C 0.27024 0.82292 0.53002 0.0
H981 H 0.36369 0.851 0.38666 0.0
H982 H 0.33718 0.83281 0.42101 0.0
H983 H 0.26474 0.84887 0.44828 0.0
H984 H 0.22285 0.83191 0.64951 0.0
H985 H 0.24615 0.84002 0.5873 0.0
C986 C 0.23527 0.17356 0.86151 0.0
C987 C 0.23015 0.18903 0.859 0.0
C988 C 0.24795 0.1678 0.89671 0.0
C989 C 0.28676 0.17743 0.98942 0.0
H990 H 0.26538 0.13831 0.0305 0.0
C991 C 0.33568 0.14366 0.12467 0.0
C992 C 0.34061 0.12876 0.11151 0.0
C993 C 0.31922 0.15229 0.10154 0.0
C994 C 0.27157 0.14923 0.01945 0.0
H995 H 0.23503 0.21078 0.89042 0.0
H996 H 0.25729 0.20062 0.95289 0.0
H997 H 0.24368 0.15137 0.97345 0.0
H998 H 0.3316 0.11106 0.06508 0.0
H999 H 0.30359 0.12609 0.02454 0.0
H1000 H 0.31502 0.17496 0.03505 0.0
C1001 C 0.25159 0.19298 0.92719 0.0
C1002 C 0.25921 0.15671 0.98659 0.0
C1003 C 0.23889 0.1988 0.89151 0.0
C1004 C 0.32825 0.12251 0.07602 0.0
C1005 C 0.31202 0.1311 0.05293 0.0
C1006 C 0.29916 0.16991 0.02255 0.0
C1007 C 0.25563 0.17733 0.93073 0.0
C1008 C 0.26714 0.17062 0.96995 0.0
C1009 C 0.3076 0.14617 0.06487 0.0
C1010 C 0.29213 0.15549 0.03671 0.0
H1011 H 0.22897 0.16577 0.83668 0.0
H1012 H 0.25137 0.15577 0.89758 0.0
H1013 H 0.29331 0.18815 0.97743 0.0
H1014 H 0.34485 0.14874 0.15213 0.0
H1015 H 0.31571 0.16375 0.11201 0.0
C1016 C 0.83529 0.87588 0.03789 0.0
C1017 C 0.84646 0.8712 0.07665 0.0
C1018 C 0.82182 0.8658 0.01351 0.0
C1019 C 0.80999 0.82525 0.99395 0.0
H1020 H 0.75251 0.84124 0.94529 0.0
C1021 C 0.71881 0.80687 0.90159 0.0
C1022 C 0.727 0.79978 0.86329 0.0
C1023 C 0.73444 0.81272 0.93217 0.0
C1024 C 0.76841 0.83653 0.95894 0.0
H1025 H 0.85238 0.8522 0.12026 0.0
H1026 H 0.82811 0.83453 0.07799 0.0
H1027 H 0.77712 0.85739 0.98983 0.0
H1028 H 0.75771 0.792 0.8285 0.0
H1029 H 0.78542 0.80253 0.88231 0.0
H1030 H 0.8006 0.8042 0.96303 0.0
C1031 C 0.83017 0.846 0.06621 0.0
C1032 C 0.78271 0.84587 0.98402 0.0
C1033 C 0.84384 0.85614 0.09062 0.0
C1034 C 0.75107 0.79739 0.85797 0.0
C1035 C 0.76686 0.80342 0.88865 0.0
C1036 C 0.79554 0.81583 0.96863 0.0
C1037 C 0.81894 0.85076 0.02742 0.0
C1038 C 0.8037 0.8404 0.00179 0.0
C1039 C 0.75859 0.81181 0.92482 0.0
C1040 C 0.77448 0.82139 0.95133 0.0
H1041 H 0.83718 0.88734 0.02592 0.0
H1042 H 0.81381 0.86978 0.98338 0.0
H1043 H 0.82618 0.82075 0.00683 0.0
H1044 H 0.70027 0.80871 0.90661 0.0
H1045 H 0.72761 0.81884 0.9602 0.0
C1046 C 0.73673 0.20372 0.60105 0.0
C1047 C 0.72986 0.19338 0.63361 0.0
C1048 C 0.75062 0.1989 0.56562 0.0
C1049 C 0.76448 0.16308 0.50747 0.0
H1050 H 0.81336 0.18605 0.45041 0.0
C1051 C 0.81733 0.13551 0.37067 0.0
C1052 C 0.84159 0.13729 0.37418 0.0
C1053 C 0.80227 0.14512 0.39364 0.0
C1054 C 0.79989 0.17946 0.46627 0.0
H1055 H 0.73359 0.17035 0.65684 0.0
H1056 H 0.758 0.16214 0.5965 0.0
H1057 H 0.79153 0.19737 0.51122 0.0
H1058 H 0.86918 0.15104 0.40215 0.0
H1059 H 0.84306 0.16725 0.44409 0.0
H1060 H 0.77353 0.14488 0.46506 0.0
C1061 C 0.75211 0.17377 0.59686 0.0
C1062 C 0.78716 0.18602 0.50074 0.0
C1063 C 0.73827 0.17851 0.63176 0.0
C1064 C 0.85051 0.14943 0.39879 0.0
C1065 C 0.83548 0.15881 0.42261 0.0
C1066 C 0.7774 0.15647 0.4738 0.0
C1067 C 0.75768 0.18369 0.56235 0.0
C1068 C 0.7698 0.17769 0.52268 0.0
C1069 C 0.81119 0.15646 0.4215 0.0
C1070 C 0.79565 0.16442 0.45333 0.0
H1071 H 0.73043 0.21526 0.60179 0.0
H1072 H 0.75475 0.20687 0.53975 0.0
H1073 H 0.75058 0.15653 0.52231 0.0
H1074 H 0.81 0.12635 0.35147 0.0
H1075 H 0.78366 0.14319 0.39101 0.0
C1076 C 0.66985 0.14533 0.60642 0.0
C1077 C 0.65009 0.13759 0.59074 0.0
C1078 C 0.6829 0.15453 0.57786 0.0
C1079 C 0.69464 0.15796 0.45959 0.0
H1080 H 0.72329 0.19638 0.48823 0.0
C1081 C 0.7563 0.20619 0.37003 0.0
C1082 C 0.77119 0.19606 0.34804 0.0
C1083 C 0.73955 0.20077 0.39995 0.0
C1084 C 0.71526 0.1857 0.4798 0.0
H1085 H 0.62746 0.13427 0.5343 0.0
H1086 H 0.64959 0.15044 0.48545 0.0
H1087 H 0.69824 0.18375 0.54267 0.0
H1088 H 0.78034 0.1724 0.34037 0.0
H1089 H 0.75162 0.16312 0.39147 0.0
H1090 H 0.71123 0.15974 0.39714 0.0
C1091 C 0.65564 0.14907 0.519 0.0
C1092 C 0.70115 0.17842 0.51104 0.0
C1093 C 0.6429 0.13984 0.54709 0.0
C1094 C 0.76908 0.18054 0.35647 0.0
C1095 C 0.75242 0.17518 0.38572 0.0
C1096 C 0.7087 0.16514 0.42878 0.0
C1097 C 0.67613 0.15619 0.53356 0.0
C1098 C 0.69089 0.16438 0.50126 0.0
C1099 C 0.73737 0.18515 0.40781 0.0
C1100 C 0.71978 0.17888 0.43884 0.0
H1101 H 0.67565 0.14384 0.64006 0.0
H1102 H 0.69862 0.15991 0.58998 0.0
H1103 H 0.6871 0.14713 0.45099 0.0
H1104 H 0.75761 0.21823 0.3642 0.0
H1105 H 0.72813 0.20874 0.4163 0.0
C1106 C 0.67167 0.88369 0.95967 0.0
C1107 C 0.65801 0.87908 0.92372 0.0
C1108 C 0.68377 0.87311 0.98479 0.0
C1109 C 0.68591 0.83263 0.01396 0.0
H1110 H 0.74763 0.84357 0.05527 0.0
C1111 C 0.77316 0.80715 0.10562 0.0
C1112 C 0.76371 0.80094 0.1441 0.0
C1113 C 0.75883 0.8143 0.07525 0.0
C1114 C 0.73053 0.84021 0.04355 0.0
H1115 H 0.64648 0.85976 0.88558 0.0
H1116 H 0.66825 0.84117 0.92914 0.0
H1117 H 0.72656 0.86073 0.00766 0.0
H1118 H 0.73183 0.7962 0.17976 0.0
H1119 H 0.70642 0.80914 0.12636 0.0
H1120 H 0.69043 0.81187 0.04967 0.0
C1121 C 0.66922 0.853 0.93819 0.0
C1122 C 0.71829 0.85018 0.01674 0.0
C1123 C 0.65698 0.86364 0.91299 0.0
C1124 C 0.73941 0.80091 0.15012 0.0
C1125 C 0.72495 0.80831 0.11966 0.0
C1126 C 0.69833 0.82253 0.04071 0.0
C1127 C 0.68268 0.85764 0.97449 0.0
C1128 C 0.69581 0.84656 0.00164 0.0
C1129 C 0.73477 0.81569 0.08298 0.0
C1130 C 0.7209 0.82618 0.05533 0.0
H1131 H 0.67265 0.89548 0.96906 0.0
H1132 H 0.69365 0.87706 0.01293 0.0
H1133 H 0.66842 0.82967 0.00365 0.0
H1134 H 0.79187 0.80713 0.10005 0.0
H1135 H 0.7668 0.8195 0.04682 0.0
C1136 C 0.65156 0.64393 0.39491 0.0
C1137 C 0.65535 0.6283 0.39118 0.0
C1138 C 0.66751 0.65304 0.4176 0.0
C1139 C 0.72753 0.65327 0.46523 0.0
H1140 H 0.70033 0.67989 0.5528 0.0
C1141 C 0.77545 0.66801 0.62361 0.0
C1142 C 0.77554 0.68306 0.63831 0.0
C1143 C 0.76122 0.6636 0.58873 0.0
C1144 C 0.70823 0.67271 0.52803 0.0
H1145 H 0.6793 0.61006 0.40624 0.0
H1146 H 0.70706 0.62585 0.44554 0.0
H1147 H 0.67533 0.66826 0.49722 0.0
H1148 H 0.76013 0.7052 0.62908 0.0
H1149 H 0.73484 0.69738 0.56781 0.0
H1150 H 0.76023 0.65719 0.49727 0.0
C1151 C 0.69193 0.63118 0.43085 0.0
C1152 C 0.69393 0.66607 0.49607 0.0
C1153 C 0.67593 0.62208 0.40853 0.0
C1154 C 0.76041 0.69353 0.61839 0.0
C1155 C 0.74599 0.68907 0.58338 0.0
C1156 C 0.74176 0.65983 0.49724 0.0
C1157 C 0.68769 0.64672 0.43652 0.0
C1158 C 0.70331 0.65585 0.46524 0.0
C1159 C 0.74662 0.67411 0.56774 0.0
C1160 C 0.73212 0.66919 0.5299 0.0
H1161 H 0.63581 0.64904 0.38192 0.0
H1162 H 0.66377 0.66494 0.4213 0.0
H1163 H 0.73542 0.64577 0.44128 0.0
H1164 H 0.78674 0.65963 0.63855 0.0
H1165 H 0.76174 0.65192 0.57803 0.0
C1166 C 0.64385 0.34966 0.09115 0.0
C1167 C 0.64941 0.36451 0.10396 0.0
C1168 C 0.65853 0.34173 0.06244 0.0
C1169 C 0.69996 0.35018 0.97473 0.0
H1170 H 0.71754 0.30793 0.98057 0.0
C1171 C 0.77074 0.32704 0.86233 0.0
C1172 C 0.76937 0.31219 0.84635 0.0
C1173 C 0.75493 0.33226 0.89351 0.0
C1174 C 0.7124 0.31967 0.97797 0.0
H1175 H 0.67559 0.38214 0.10016 0.0
H1176 H 0.70141 0.36816 0.05106 0.0
H1177 H 0.69247 0.31872 0.03778 0.0
H1178 H 0.75034 0.29108 0.8506 0.0
H1179 H 0.72225 0.3003 0.90536 0.0
H1180 H 0.71868 0.35117 0.91432 0.0
C1181 C 0.68541 0.36283 0.06207 0.0
C1182 C 0.69822 0.32587 0.01096 0.0
C1183 C 0.67072 0.37079 0.09041 0.0
C1184 C 0.75178 0.3026 0.86238 0.0
C1185 C 0.73582 0.30786 0.89391 0.0
C1186 C 0.71354 0.34395 0.9414 0.0
C1187 C 0.67899 0.34848 0.04635 0.0
C1188 C 0.69258 0.34133 0.01039 0.0
C1189 C 0.73721 0.3228 0.90975 0.0
C1190 C 0.72057 0.32874 0.94316 0.0
H1191 H 0.62751 0.34453 0.1011 0.0
H1192 H 0.65321 0.33073 0.05071 0.0
H1193 H 0.69514 0.362 0.97246 0.0
H1194 H 0.78424 0.3347 0.85108 0.0
H1195 H 0.75703 0.34368 0.90563 0.0
C1196 C 0.71961 0.32273 0.12197 0.0
C1197 C 0.72227 0.30782 0.13687 0.0
C1198 C 0.73495 0.32878 0.0913 0.0
C1199 C 0.77811 0.31882 0.00547 0.0
H1200 H 0.79273 0.36141 0.0175 0.0
C1201 C 0.84427 0.35296 0.89711 0.0
C1202 C 0.83761 0.36785 0.8869 0.0
C1203 C 0.83017 0.34399 0.92419 0.0
C1204 C 0.78865 0.34954 0.01341 0.0
H1205 H 0.74303 0.28746 0.13094 0.0
H1206 H 0.7702 0.29814 0.07663 0.0
H1207 H 0.7702 0.34891 0.07417 0.0
H1208 H 0.8101 0.38451 0.89347 0.0
H1209 H 0.78534 0.36876 0.93983 0.0
H1210 H 0.79764 0.31954 0.94512 0.0
C1211 C 0.75604 0.30508 0.08879 0.0
C1212 C 0.77568 0.34235 0.04591 0.0
C1213 C 0.7406 0.29899 0.11999 0.0
C1214 C 0.8158 0.37315 0.90121 0.0
C1215 C 0.80171 0.36417 0.92798 0.0
C1216 C 0.79165 0.326 0.97321 0.0
C1217 C 0.75342 0.32011 0.07433 0.0
C1218 C 0.7696 0.32703 0.04179 0.0
C1219 C 0.80923 0.34976 0.94131 0.0
C1220 C 0.79632 0.34157 0.97622 0.0
H1221 H 0.70555 0.32983 0.1339 0.0
H1222 H 0.73195 0.34025 0.08024 0.0
H1223 H 0.77369 0.30702 0.00115 0.0
H1224 H 0.86104 0.3486 0.88657 0.0
H1225 H 0.83631 0.33295 0.93407 0.0
C1226 C 0.74188 0.68323 0.35709 0.0
C1227 C 0.73898 0.69852 0.34606 0.0
C1228 C 0.75821 0.67888 0.38827 0.0
C1229 C 0.78848 0.68943 0.48637 0.0
H1230 H 0.82427 0.65372 0.45593 0.0
C1231 C 0.84149 0.65145 0.61056 0.0
C1232 C 0.83976 0.63587 0.60188 0.0
C1233 C 0.83111 0.66197 0.58205 0.0
C1234 C 0.81444 0.6637 0.46506 0.0
H1235 H 0.75072 0.72133 0.35983 0.0
H1236 H 0.77957 0.71354 0.41594 0.0
H1237 H 0.80469 0.66793 0.3984 0.0
H1238 H 0.82369 0.61908 0.55957 0.0
H1239 H 0.80574 0.63728 0.51042 0.0
H1240 H 0.79827 0.68501 0.5533 0.0
C1241 C 0.76911 0.70504 0.39956 0.0
C1242 C 0.80341 0.6719 0.43206 0.0
C1243 C 0.75273 0.70946 0.36753 0.0
C1244 C 0.82578 0.631 0.5667 0.0
C1245 C 0.81572 0.64145 0.53819 0.0
C1246 C 0.79993 0.68128 0.51958 0.0
C1247 C 0.7721 0.68965 0.40966 0.0
C1248 C 0.78916 0.68427 0.44266 0.0
C1249 C 0.81933 0.65703 0.54416 0.0
C1250 C 0.81158 0.66773 0.50944 0.0
H1251 H 0.7315 0.67449 0.34154 0.0
H1252 H 0.75983 0.66697 0.39597 0.0
H1253 H 0.77772 0.69902 0.49533 0.0
H1254 H 0.85172 0.65551 0.63812 0.0
H1255 H 0.83315 0.67391 0.58843 0.0
C1256 C 0.34438 0.356 0.60739 0.0
C1257 C 0.33941 0.37134 0.5999 0.0
C1258 C 0.33393 0.3448 0.58152 0.0
C1259 C 0.30896 0.33949 0.47186 0.0
H1260 H 0.27896 0.30383 0.5197 0.0
C1261 C 0.26158 0.29828 0.35791 0.0
C1262 C 0.23792 0.29752 0.36965 0.0
C1263 C 0.2781 0.30341 0.38851 0.0
C1264 C 0.28757 0.31364 0.50587 0.0
H1265 H 0.31873 0.38692 0.56099 0.0
H1266 H 0.30034 0.36735 0.51621 0.0
H1267 H 0.29803 0.32185 0.56919 0.0
H1268 H 0.21309 0.30004 0.42288 0.0
H1269 H 0.24195 0.30822 0.47663 0.0
H1270 H 0.29746 0.33182 0.40873 0.0
C1271 C 0.31261 0.36402 0.54157 0.0
C1272 C 0.29857 0.32388 0.53416 0.0
C1273 C 0.32296 0.3752 0.56749 0.0
C1274 C 0.23131 0.3005 0.41324 0.0
C1275 C 0.24783 0.30521 0.44398 0.0
C1276 C 0.29809 0.32924 0.44356 0.0
C1277 C 0.31842 0.34874 0.5476 0.0
C1278 C 0.30882 0.3371 0.51754 0.0
C1279 C 0.27114 0.3075 0.43133 0.0
C1280 C 0.28673 0.31642 0.46038 0.0
H1281 H 0.35704 0.35267 0.63204 0.0
H1282 H 0.3388 0.33316 0.58676 0.0
H1283 H 0.31699 0.34951 0.45808 0.0
H1284 H 0.26697 0.29618 0.32428 0.0
H1285 H 0.29602 0.30498 0.37805 0.0
C1286 C 0.33801 0.6562 0.88827 0.0
C1287 C 0.33671 0.64113 0.90247 0.0
C1288 C 0.32894 0.66787 0.91437 0.0
C1289 C 0.312 0.67504 0.03139 0.0
H1290 H 0.28059 0.7102 0.98381 0.0
C1291 C 0.26422 0.71663 0.14433 0.0
C1292 C 0.24028 0.71555 0.1351 0.0
C1293 C 0.2806 0.71179 0.11311 0.0
C1294 C 0.28968 0.70055 0.9975 0.0
H1295 H 0.32308 0.62633 0.95316 0.0
H1296 H 0.30684 0.64648 0.99781 0.0
H1297 H 0.30013 0.69259 0.93421 0.0
H1298 H 0.21453 0.70991 0.08555 0.0
H1299 H 0.24309 0.7022 0.03041 0.0
H1300 H 0.30139 0.68301 0.0948 0.0
C1301 C 0.31574 0.64947 0.96761 0.0
C1302 C 0.30069 0.69036 0.96908 0.0
C1303 C 0.32472 0.63785 0.9416 0.0
C1304 C 0.23297 0.71088 0.09318 0.0
C1305 C 0.24929 0.70651 0.06166 0.0
C1306 C 0.3014 0.68535 0.05981 0.0
C1307 C 0.3186 0.66469 0.95533 0.0
C1308 C 0.31072 0.67699 0.98546 0.0
C1309 C 0.27317 0.70626 0.07201 0.0
C1310 C 0.28926 0.69783 0.04297 0.0
H1311 H 0.34676 0.65902 0.85777 0.0
H1312 H 0.33076 0.6794 0.90311 0.0
H1313 H 0.32053 0.66525 0.04548 0.0
H1314 H 0.27016 0.72005 0.17669 0.0
H1315 H 0.29893 0.71162 0.12183 0.0
C1316 C 0.26119 0.70312 0.87546 0.0
C1317 C 0.27553 0.69251 0.85405 0.0
C1318 C 0.24683 0.69861 0.91048 0.0
C1319 C 0.24399 0.66951 0.99572 0.0
H1320 H 0.17747 0.67725 0.00116 0.0
C1321 C 0.18187 0.63156 0.09193 0.0
C1322 C 0.16116 0.63746 0.10969 0.0
C1323 C 0.19705 0.64078 0.06815 0.0
C1324 C 0.19613 0.67529 0.00086 0.0
H1325 H 0.28515 0.6688 0.85093 0.0
H1326 H 0.26045 0.66108 0.91176 0.0
H1327 H 0.20084 0.68897 0.94319 0.0
H1328 H 0.14068 0.65785 0.11849 0.0
H1329 H 0.16752 0.67401 0.07697 0.0
H1330 H 0.23951 0.65582 0.05294 0.0
C1331 C 0.26042 0.67285 0.90198 0.0
C1332 C 0.20945 0.68195 0.96747 0.0
C1333 C 0.2745 0.67729 0.86697 0.0
C1334 C 0.15653 0.65298 0.10515 0.0
C1335 C 0.17176 0.66221 0.08121 0.0
C1336 C 0.23081 0.66306 0.02936 0.0
C1337 C 0.24685 0.6835 0.9247 0.0
C1338 C 0.23332 0.67861 0.96366 0.0
C1339 C 0.19192 0.65616 0.0616 0.0
C1340 C 0.20655 0.66535 0.03128 0.0
H1341 H 0.26162 0.71492 0.8661 0.0
H1342 H 0.23643 0.70701 0.92749 0.0
H1343 H 0.26246 0.66698 0.994 0.0
H1344 H 0.18591 0.61964 0.09482 0.0
H1345 H 0.21221 0.63562 0.05301 0.0
C1346 C 0.26609 0.32981 0.63877 0.0
C1347 C 0.2666 0.31422 0.64738 0.0
C1348 C 0.2536 0.33547 0.60311 0.0
C1349 C 0.20691 0.32762 0.52372 0.0
H1350 H 0.2387 0.35889 0.45724 0.0
C1351 C 0.16094 0.35996 0.38313 0.0
C1352 C 0.16222 0.37571 0.38855 0.0
C1353 C 0.17594 0.35046 0.4067 0.0
C1354 C 0.22961 0.35014 0.47535 0.0
H1355 H 0.2536 0.29237 0.62648 0.0
H1356 H 0.23147 0.30236 0.56361 0.0
H1357 H 0.259 0.34616 0.51697 0.0
H1358 H 0.18106 0.39388 0.42066 0.0
H1359 H 0.207 0.37739 0.46175 0.0
H1360 H 0.17715 0.33211 0.48301 0.0
C1361 C 0.24081 0.31016 0.58474 0.0
C1362 C 0.24121 0.34287 0.50965 0.0
C1363 C 0.25343 0.30444 0.62067 0.0
C1364 C 0.17961 0.38179 0.41587 0.0
C1365 C 0.19459 0.37232 0.43925 0.0
C1366 C 0.19522 0.33497 0.48937 0.0
C1367 C 0.24131 0.3257 0.575 0.0
C1368 C 0.22974 0.33191 0.53522 0.0
C1369 C 0.19252 0.35653 0.43588 0.0
C1370 C 0.20621 0.34669 0.46591 0.0
H1371 H 0.27592 0.33766 0.65891 0.0
H1372 H 0.25392 0.34753 0.59708 0.0
H1373 H 0.19767 0.31916 0.54268 0.0
H1374 H 0.14773 0.35496 0.36216 0.0
H1375 H 0.17422 0.33838 0.4029 0.0
C1376 C 0.38049 0.21086 0.11807 0.0
C1377 C 0.3636 0.19968 0.12496 0.0
C1378 C 0.38603 0.21547 0.07536 0.0
C1379 C 0.36832 0.21047 0.95613 0.0
H1380 H 0.37036 0.25423 0.96 0.0
C1381 C 0.32796 0.25131 0.82637 0.0
C1382 C 0.34087 0.26436 0.81626 0.0
C1383 C 0.33619 0.24108 0.85799 0.0
C1384 C 0.37014 0.24201 0.95813 0.0
H1385 H 0.34074 0.18365 0.09346 0.0
H1386 H 0.34918 0.19207 0.01918 0.0
H1387 H 0.37731 0.24005 0.02639 0.0
H1388 H 0.37317 0.27642 0.8292 0.0
H1389 H 0.38729 0.25872 0.88431 0.0
H1390 H 0.3593 0.21287 0.88779 0.0
C1391 C 0.35897 0.19704 0.04597 0.0
C1392 C 0.37438 0.23377 0.99632 0.0
C1393 C 0.35412 0.1921 0.08868 0.0
C1394 C 0.36266 0.26657 0.83659 0.0
C1395 C 0.37079 0.25643 0.86814 0.0
C1396 C 0.36364 0.2188 0.91789 0.0
C1397 C 0.37383 0.2095 0.03895 0.0
C1398 C 0.37317 0.21787 0.99625 0.0
C1399 C 0.35738 0.24381 0.88005 0.0
C1400 C 0.36422 0.23466 0.91879 0.0
H1401 H 0.38794 0.21691 0.14574 0.0
H1402 H 0.39838 0.22462 0.0713 0.0
H1403 H 0.36755 0.19827 0.9544 0.0
H1404 H 0.31115 0.24929 0.81109 0.0
H1405 H 0.32543 0.23148 0.86681 0.0
C1406 C 0.92657 0.88596 0.28403 0.0
C1407 C 0.93098 0.89733 0.25286 0.0
C1408 C 0.93914 0.88556 0.32356 0.0
C1409 C 0.97349 0.90979 0.39775 0.0
H1410 H 0.0038 0.87272 0.43455 0.0
C1411 C 0.05075 0.90958 0.51782 0.0
C1412 C 0.05294 0.89764 0.54791 0.0
C1413 C 0.03322 0.90936 0.48593 0.0
C1414 C 0.99511 0.88311 0.42525 0.0
H1415 H 0.95185 0.91719 0.23856 0.0
H1416 H 0.97358 0.91651 0.30729 0.0
H1417 H 0.97765 0.87246 0.37105 0.0
H1418 H 0.0382 0.87628 0.56902 0.0
H1419 H 0.0073 0.87598 0.51354 0.0
H1420 H 0.99104 0.92051 0.45144 0.0
C1421 C 0.96039 0.90797 0.30145 0.0
C1422 C 0.98017 0.88295 0.38884 0.0
C1423 C 0.94806 0.90828 0.26193 0.0
C1424 C 0.03695 0.88562 0.54612 0.0
C1425 C 0.01935 0.88541 0.51422 0.0
C1426 C 0.98828 0.90994 0.43423 0.0
C1427 C 0.95606 0.89664 0.3327 0.0
C1428 C 0.96967 0.89637 0.37415 0.0
C1429 C 0.01742 0.89722 0.48349 0.0
C1430 C -0.00029 0.89668 0.44779 0.0
H1431 H 0.91348 0.87738 0.27785 0.0
H1432 H 0.93544 0.87672 0.34719 0.0
H1433 H 0.96529 0.92025 0.38756 0.0
H1434 H 0.06287 0.91898 0.5183 0.0
H1435 H 0.0325 0.91852 0.46235 0.0
C1436 C 0.17867 0.75966 0.34066 0.0
C1437 C 0.16386 0.75117 0.31358 0.0
C1438 C 0.1693 0.76953 0.37191 0.0
C1439 C 0.1149 0.77579 0.4347 0.0
H1440 H 0.15198 0.80835 0.48299 0.0
C1441 C 0.13341 0.81197 0.60492 0.0
C1442 C 0.13213 0.79923 0.6323 0.0
C1443 C 0.12775 0.8107 0.56017 0.0
C1444 C 0.14098 0.79958 0.46959 0.0
H1445 H 0.12788 0.74697 0.2954 0.0
H1446 H 0.11151 0.76502 0.34776 0.0
H1447 H 0.16239 0.7977 0.41224 0.0
H1448 H 0.12109 0.7759 0.63644 0.0
H1449 H 0.11154 0.77357 0.55944 0.0
H1450 H 0.09357 0.77766 0.49214 0.0
C1451 C 0.13028 0.76361 0.34651 0.0
C1452 C 0.14722 0.79326 0.42914 0.0
C1453 C 0.13963 0.75334 0.31633 0.0
C1454 C 0.12233 0.78586 0.61584 0.0
C1455 C 0.11673 0.78459 0.57144 0.0
C1456 C 0.10847 0.78228 0.47482 0.0
C1457 C 0.14496 0.77157 0.37556 0.0
C1458 C 0.1351 0.78067 0.41248 0.0
C1459 C 0.12081 0.79668 0.54239 0.0
C1460 C 0.12239 0.79356 0.49423 0.0
H1461 H 0.19742 0.75803 0.33943 0.0
H1462 H 0.18112 0.77493 0.39476 0.0
H1463 H 0.10494 0.7662 0.42301 0.0
H1464 H 0.14094 0.82242 0.61691 0.0
H1465 H 0.13047 0.82036 0.53899 0.0
C1466 C 0.57093 0.12617 0.80172 0.0
C1467 C 0.5746 0.11204 0.78178 0.0
C1468 C 0.55753 0.12729 0.8402 0.0
C1469 C 0.5351 0.10444 0.93292 0.0
H1470 H 0.48474 0.13369 0.93741 0.0
C1471 C 0.45622 0.09672 0.04644 0.0
C1472 C 0.44707 0.1094 0.06817 0.0
C1473 C 0.47361 0.09838 0.01466 0.0
C1474 C 0.49896 0.12562 0.93701 0.0
H1475 H 0.56755 0.08801 0.78679 0.0
H1476 H 0.54439 0.08996 0.85344 0.0
H1477 H 0.51267 0.13442 0.87657 0.0
H1478 H 0.44888 0.1338 0.07365 0.0
H1479 H 0.47942 0.13672 0.01789 0.0
H1480 H 0.5212 0.09541 0.99267 0.0
C1481 C 0.5519 0.10017 0.83979 0.0
C1482 C 0.51496 0.12605 0.90221 0.0
C1483 C 0.56505 0.09907 0.80137 0.0
C1484 C 0.45562 0.12382 0.05738 0.0
C1485 C 0.47302 0.12549 0.02538 0.0
C1486 C 0.51917 0.10401 0.96762 0.0
C1487 C 0.54786 0.11428 0.85955 0.0
C1488 C 0.53283 0.11521 0.89925 0.0
C1489 C 0.48226 0.11277 0.00381 0.0
C1490 C 0.50057 0.11435 0.96949 0.0
H1491 H 0.57807 0.13635 0.78724 0.0
H1492 H 0.55475 0.13831 0.85484 0.0
H1493 H 0.54897 0.09612 0.93197 0.0
H1494 H 0.44993 0.08547 0.05391 0.0
H1495 H 0.48005 0.08837 0.99808 0.0
C1496 C 0.36659 0.73645 0.65245 0.0
C1497 C 0.3489 0.73945 0.68321 0.0
C1498 C 0.37303 0.7473 0.62156 0.0
C1499 C 0.34829 0.78008 0.56384 0.0
H1500 H 0.40867 0.77857 0.50607 0.0
C1501 C 0.35725 0.80263 0.39059 0.0
C1502 C 0.36151 0.79011 0.36337 0.0
C1503 C 0.36304 0.80206 0.43529 0.0
C1504 C 0.39187 0.77936 0.52232 0.0
H1505 H 0.32494 0.75648 0.70739 0.0
H1506 H 0.33654 0.77569 0.65379 0.0
H1507 H 0.4038 0.767 0.57839 0.0
H1508 H 0.37795 0.76813 0.35953 0.0
H1509 H 0.38873 0.76729 0.43702 0.0
H1510 H 0.33624 0.79203 0.50709 0.0
C1511 C 0.34512 0.76479 0.65297 0.0
C1512 C 0.38896 0.7726 0.56351 0.0
C1513 C 0.33851 0.75382 0.68378 0.0
C1514 C 0.37446 0.77792 0.37993 0.0
C1515 C 0.38065 0.77747 0.42433 0.0
C1516 C 0.35132 0.78706 0.52303 0.0
C1517 C 0.36213 0.76155 0.62081 0.0
C1518 C 0.36678 0.7721 0.58357 0.0
C1519 C 0.37363 0.78909 0.45295 0.0
C1520 C 0.37281 0.78605 0.50085 0.0
H1521 H 0.37496 0.72548 0.65112 0.0
H1522 H 0.3858 0.74418 0.59692 0.0
H1523 H 0.33094 0.77993 0.57797 0.0
H1524 H 0.3472 0.81209 0.37844 0.0
H1525 H 0.35764 0.81119 0.4567 0.0
C1526 C 0.43762 0.91296 0.50618 0.0
C1527 C 0.43786 0.90124 0.47503 0.0
C1528 C 0.45394 0.91322 0.54033 0.0
C1529 C 0.49547 0.88922 0.60198 0.0
H1530 H 0.52315 0.92775 0.63319 0.0
C1531 C 0.57158 0.89508 0.72698 0.0
C1532 C 0.56918 0.90678 0.7579 0.0
C1533 C 0.55623 0.89406 0.69124 0.0
C1534 C 0.51546 0.91692 0.62505 0.0
H1535 H 0.45514 0.8805 0.45541 0.0
H1536 H 0.48382 0.88103 0.51479 0.0
H1537 H 0.49468 0.92652 0.57374 0.0
H1538 H 0.54895 0.92659 0.77571 0.0
H1539 H 0.52227 0.9248 0.71364 0.0
H1540 H 0.51634 0.87966 0.65346 0.0
C1541 C 0.47086 0.88993 0.51317 0.0
C1542 C 0.4991 0.91622 0.59108 0.0
C1543 C 0.4545 0.88966 0.47905 0.0
C1544 C 0.55128 0.91746 0.75236 0.0
C1545 C 0.53607 0.91649 0.71665 0.0
C1546 C 0.51191 0.88992 0.63595 0.0
C1547 C 0.47089 0.90179 0.54397 0.0
C1548 C 0.48873 0.90239 0.57942 0.0
C1549 C 0.53834 0.90479 0.6857 0.0
C1550 C 0.52189 0.90382 0.64812 0.0
H1551 H 0.42493 0.92201 0.504 0.0
H1552 H 0.45323 0.92237 0.56396 0.0
H1553 H 0.48764 0.87841 0.59409 0.0
H1554 H 0.58523 0.88669 0.73047 0.0
H1555 H 0.5585 0.88498 0.66771 0.0
C1556 C 0.11988 0.21007 0.88752 0.0
C1557 C 0.13883 0.20081 0.8766 0.0
C1558 C 0.11601 0.2142 0.93137 0.0
C1559 C 0.13994 0.21036 0.04648 0.0
H1560 H 0.13017 0.25369 0.04645 0.0
C1561 C 0.1762 0.2514 0.17928 0.0
C1562 C 0.16264 0.26411 0.18995 0.0
C1563 C 0.16868 0.24128 0.14672 0.0
C1564 C 0.13251 0.24155 0.04744 0.0
H1565 H 0.16799 0.18813 0.90204 0.0
H1566 H 0.16172 0.19537 0.97826 0.0
H1567 H 0.12317 0.23946 0.97997 0.0
H1568 H 0.12992 0.27566 0.1771 0.0
H1569 H 0.11677 0.25801 0.12101 0.0
H1570 H 0.15058 0.21284 0.11388 0.0
C1571 C 0.14917 0.19908 0.95391 0.0
C1572 C 0.12833 0.23331 0.00917 0.0
C1573 C 0.15271 0.19477 0.91021 0.0
C1574 C 0.14093 0.26609 0.16918 0.0
C1575 C 0.1334 0.25598 0.13695 0.0
C1576 C 0.1443 0.21868 0.08489 0.0
C1577 C 0.13161 0.20957 0.96469 0.0
C1578 C 0.13236 0.21763 0.00779 0.0
C1579 C 0.14745 0.2437 0.12443 0.0
C1580 C 0.14096 0.23441 0.08551 0.0
H1581 H 0.10929 0.21511 0.86188 0.0
H1582 H 0.10193 0.22198 0.93859 0.0
H1583 H 0.14304 0.19829 0.04683 0.0
H1584 H 0.19298 0.24959 0.19487 0.0
H1585 H 0.18 0.23198 0.1376 0.0
C1586 C 0.04792 0.10989 0.95082 0.0
C1587 C 0.06344 0.09765 0.94745 0.0
C1588 C 0.03229 0.11085 0.98595 0.0
C1589 C 0.0037 0.08745 0.07089 0.0
H1590 H 0.99029 0.12618 0.12519 0.0
C1591 C 0.95194 0.09264 0.23209 0.0
C1592 C 0.93455 0.10382 0.23419 0.0
C1593 C 0.96751 0.09219 0.19687 0.0
C1594 C 0.99369 0.11532 0.11002 0.0
H1595 H 0.07507 0.07693 0.97844 0.0
H1596 H 0.04805 0.07872 0.04041 0.0
H1597 H 0.01838 0.12476 0.06491 0.0
H1598 H 0.91994 0.12339 0.20137 0.0
H1599 H 0.94737 0.12262 0.13949 0.0
H1600 H 0.97921 0.07801 0.11637 0.0
C1601 C 0.04764 0.08745 0.01543 0.0
C1602 C 0.00976 0.11449 0.0755 0.0
C1603 C 0.06321 0.08645 0.98012 0.0
C1604 C 0.93317 0.11465 0.20054 0.0
C1605 C 0.94891 0.11425 0.1653 0.0
C1606 C 0.98774 0.08828 0.10552 0.0
C1607 C 0.03192 0.09962 0.01864 0.0
C1608 C 0.01498 0.10053 0.05557 0.0
C1609 C 0.96612 0.10294 0.16303 0.0
C1610 C 0.98262 0.10221 0.12551 0.0
H1611 H 0.04763 0.11867 0.92601 0.0
H1612 H 0.02021 0.12025 0.98703 0.0
H1613 H 0.00695 0.07657 0.05573 0.0
H1614 H 0.95348 0.08416 0.2576 0.0
H1615 H 0.98079 0.08347 0.19633 0.0
C1616 C 0.63782 0.81052 0.89112 0.0
C1617 C 0.63231 0.7988 0.86165 0.0
C1618 C 0.63468 0.80845 0.93637 0.0
C1619 C 0.61171 0.78296 0.02284 0.0
H1620 H 0.67539 0.78305 0.06638 0.0
C1621 C 0.64402 0.73904 0.14559 0.0
C1622 C 0.66262 0.74219 0.17427 0.0
C1623 C 0.63629 0.74986 0.11561 0.0
C1624 C 0.65736 0.78329 0.05566 0.0
H1625 H 0.61633 0.77675 0.85536 0.0
H1626 H 0.61019 0.77334 0.93406 0.0
H1627 H 0.66603 0.79626 0.99855 0.0
H1628 H 0.68713 0.7594 0.19531 0.0
H1629 H 0.67335 0.77851 0.14318 0.0
H1630 H 0.60313 0.76952 0.079 0.0
C1631 C 0.61719 0.784 0.92255 0.0
C1632 C 0.65199 0.79092 0.01671 0.0
C1633 C 0.62068 0.78595 0.87745 0.0
C1634 C 0.67283 0.75662 0.17339 0.0
C1635 C 0.66497 0.76754 0.14342 0.0
C1636 C 0.61699 0.77548 0.06213 0.0
C1637 C 0.6256 0.79479 0.95255 0.0
C1638 C 0.62934 0.79031 0.999 0.0
C1639 C 0.6468 0.76421 0.11365 0.0
C1640 C 0.64013 0.77492 0.0779 0.0
H1641 H 0.64696 0.82051 0.87984 0.0
H1642 H 0.641 0.817 0.95884 0.0
H1643 H 0.59409 0.78237 0.00995 0.0
H1644 H 0.63578 0.72803 0.14536 0.0
H1645 H 0.62265 0.74668 0.09272 0.0
C1646 C 0.06325 0.10822 0.70117 0.0
C1647 C 0.05977 0.0985 0.73705 0.0
C1648 C 0.04666 0.10905 0.66745 0.0
C1649 C 0.99824 0.08749 0.61735 0.0
H1650 H 0.98174 0.1261 0.56579 0.0
C1651 C 0.92437 0.09355 0.48875 0.0
C1652 C 0.92948 0.10269 0.45226 0.0
C1653 C 0.9393 0.09337 0.52521 0.0
C1654 C 0.98629 0.11522 0.57966 0.0
H1655 H 0.03612 0.08215 0.76612 0.0
H1656 H 0.00717 0.08371 0.70768 0.0
H1657 H 0.01007 0.12516 0.62571 0.0
H1658 H 0.95402 0.11895 0.42544 0.0
H1659 H 0.98005 0.11855 0.48868 0.0
H1660 H 0.97459 0.07755 0.57113 0.0
C1661 C 0.02282 0.09053 0.70514 0.0
C1662 C 0.00255 0.11468 0.6139 0.0
C1663 C 0.03936 0.0897 0.73874 0.0
C1664 C 0.94959 0.11179 0.45312 0.0
C1665 C 0.96444 0.11164 0.48949 0.0
C1666 C 0.98198 0.08803 0.58313 0.0
C1667 C 0.02629 0.10017 0.66902 0.0
C1668 C 0.0088 0.1008 0.63299 0.0
C1669 C 0.95955 0.10238 0.52587 0.0
C1670 C 0.97593 0.10189 0.5637 0.0
H1671 H 0.07884 0.11512 0.699 0.0
H1672 H 0.04997 0.11647 0.63981 0.0
H1673 H 0.00292 0.07659 0.63094 0.0
H1674 H 0.90896 0.08645 0.489 0.0
H1675 H 0.93495 0.08623 0.55296 0.0
C1676 C 0.8683 0.26771 0.65678 0.0
C1677 C 0.84629 0.26541 0.67608 0.0
C1678 C 0.87676 0.25775 0.62503 0.0
C1679 C 0.86868 0.22061 0.57117 0.0
H1680 H 0.88556 0.24291 0.46624 0.0
C1681 C 0.85798 0.19748 0.39648 0.0
C1682 C 0.86877 0.2052 0.36177 0.0
C1683 C 0.86312 0.20132 0.44005 0.0
C1684 C 0.88172 0.23632 0.49533 0.0
H1685 H 0.8165 0.25036 0.6793 0.0
H1686 H 0.83121 0.23294 0.62297 0.0
H1687 H 0.87872 0.25635 0.53394 0.0
H1688 H 0.89534 0.22145 0.34441 0.0
H1689 H 0.90596 0.22724 0.4203 0.0
H1690 H 0.87133 0.20053 0.53207 0.0
C1691 C 0.84197 0.24243 0.63283 0.0
C1692 C 0.87758 0.24413 0.53432 0.0
C1693 C 0.83347 0.25244 0.66481 0.0
C1694 C 0.88693 0.21531 0.37086 0.0
C1695 C 0.89261 0.21881 0.41439 0.0
C1696 C 0.87319 0.2127 0.53208 0.0
C1697 C 0.86339 0.24526 0.6117 0.0
C1698 C 0.87046 0.23644 0.57238 0.0
C1699 C 0.87938 0.21282 0.44943 0.0
C1700 C 0.87915 0.22051 0.49322 0.0
H1701 H 0.87876 0.2775 0.6652 0.0
H1702 H 0.89347 0.2601 0.60976 0.0
H1703 H 0.86343 0.21439 0.60021 0.0
H1704 H 0.84356 0.18988 0.38994 0.0
H1705 H 0.85255 0.19639 0.4658 0.0
C1706 C 0.45697 0.91199 0.25843 0.0
C1707 C 0.43922 0.90107 0.26078 0.0
C1708 C 0.47173 0.91263 0.22199 0.0
C1709 C 0.495 0.89025 0.13064 0.0
H1710 H 0.50791 0.92944 0.079 0.0
C1711 C 0.54813 0.89672 0.97044 0.0
C1712 C 0.56417 0.9087 0.96851 0.0
C1713 C 0.53221 0.89571 0.00511 0.0
C1714 C 0.50471 0.91843 0.09333 0.0
H1715 H 0.42317 0.8821 0.22724 0.0
H1716 H 0.4492 0.88316 0.16335 0.0
H1717 H 0.48151 0.92759 0.14165 0.0
H1718 H 0.57621 0.92903 0.00123 0.0
H1719 H 0.54873 0.92714 0.06229 0.0
H1720 H 0.51851 0.8811 0.08285 0.0
C1721 C 0.45164 0.89121 0.18984 0.0
C1722 C 0.48954 0.91738 0.12913 0.0
C1723 C 0.43673 0.89063 0.22627 0.0
C1724 C 0.56395 0.91971 0.00179 0.0
C1725 C 0.54812 0.91866 0.03662 0.0
C1726 C 0.5103 0.89131 0.09496 0.0
C1727 C 0.46914 0.90231 0.18722 0.0
C1728 C 0.48464 0.90329 0.1483 0.0
C1729 C 0.53208 0.90663 0.03873 0.0
C1730 C 0.51543 0.90543 0.07603 0.0
H1731 H 0.45935 0.92017 0.28457 0.0
H1732 H 0.48528 0.92117 0.22115 0.0
H1733 H 0.49172 0.87927 0.14509 0.0
H1734 H 0.54784 0.8881 0.9451 0.0
H1735 H 0.51987 0.88644 0.00536 0.0
C1736 C 0.63778 0.25933 0.34017 0.0
C1737 C 0.6564 0.25725 0.31072 0.0
C1738 C 0.63169 0.24804 0.36994 0.0
C1739 C 0.65679 0.21533 0.42775 0.0
H1740 H 0.59377 0.21323 0.47435 0.0
C1741 C 0.64029 0.18687 0.59231 0.0
C1742 C 0.63338 0.19817 0.622 0.0
C1743 C 0.63724 0.18899 0.54702 0.0
C1744 C 0.61135 0.21349 0.46121 0.0
H1745 H 0.68278 0.24147 0.28833 0.0
H1746 H 0.67188 0.22149 0.3402 0.0
H1747 H 0.60107 0.22666 0.40557 0.0
H1748 H 0.61529 0.21951 0.62865 0.0
H1749 H 0.60907 0.22291 0.54994 0.0
H1750 H 0.66708 0.20252 0.48418 0.0
C1751 C 0.6622 0.232 0.34064 0.0
C1752 C 0.61564 0.2213 0.42208 0.0
C1753 C 0.66843 0.24341 0.31085 0.0
C1754 C 0.62063 0.21059 0.60636 0.0
C1755 C 0.61714 0.21255 0.56126 0.0
C1756 C 0.65243 0.20732 0.46651 0.0
C1757 C 0.64388 0.23425 0.37093 0.0
C1758 C 0.63859 0.22301 0.40611 0.0
C1759 C 0.62675 0.20224 0.53109 0.0
C1760 C 0.62985 0.20693 0.48466 0.0
H1761 H 0.62818 0.26987 0.34104 0.0
H1762 H 0.6179 0.25042 0.39333 0.0
H1763 H 0.6747 0.21642 0.41676 0.0
H1764 H 0.65036 0.17728 0.60362 0.0
H1765 H 0.64462 0.1809 0.52426 0.0
C1766 C 0.44999 0.09686 0.29025 0.0
C1767 C 0.43356 0.10812 0.28013 0.0
C1768 C 0.462 0.09715 0.33012 0.0
C1769 C 0.48252 0.12199 0.41718 0.0
H1770 H 0.48902 0.08461 0.48267 0.0
C1771 C 0.53726 0.11871 0.57671 0.0
C1772 C 0.55201 0.10609 0.58025 0.0
C1773 C 0.51992 0.11923 0.54431 0.0
C1774 C 0.48751 0.09512 0.46467 0.0
H1775 H 0.417 0.12863 0.30351 0.0
H1776 H 0.43847 0.12928 0.37345 0.0
H1777 H 0.46435 0.08531 0.41732 0.0
H1778 H 0.55989 0.08397 0.55339 0.0
H1779 H 0.53005 0.08494 0.49654 0.0
H1780 H 0.50639 0.13169 0.46344 0.0
C1781 C 0.44186 0.1202 0.35039 0.0
C1782 C 0.47332 0.09552 0.42735 0.0
C1783 C 0.42958 0.11982 0.31051 0.0
C1784 C 0.54871 0.09383 0.5516 0.0
C1785 C 0.53149 0.09436 0.51914 0.0
C1786 C 0.4969 0.12157 0.45438 0.0
C1787 C 0.45801 0.10877 0.36067 0.0
C1788 C 0.47105 0.10888 0.40276 0.0
C1789 C 0.51705 0.10714 0.51474 0.0
C1790 C 0.49992 0.10804 0.47805 0.0
H1791 H 0.45345 0.0877 0.26752 0.0
H1792 H 0.47461 0.08833 0.33689 0.0
H1793 H 0.4812 0.1324 0.39862 0.0
H1794 H 0.53936 0.12832 0.59846 0.0
H1795 H 0.5089 0.12914 0.54222 0.0
C1796 C 0.86491 0.77291 0.12137 0.0
C1797 C 0.8568 0.78716 0.13447 0.0
C1798 C 0.8701 0.77005 0.07738 0.0
C1799 C 0.88189 0.76597 0.98196 0.0
H1800 H 0.82926 0.77882 0.91091 0.0
C1801 C 0.86286 0.73599 0.81947 0.0
C1802 C 0.8394 0.73207 0.81249 0.0
C1803 C 0.86887 0.74683 0.85084 0.0
C1804 C 0.84409 0.77512 0.93021 0.0
H1805 H 0.84968 0.81002 0.11294 0.0
H1806 H 0.85905 0.80507 0.0355 0.0
H1807 H 0.83596 0.79043 0.98252 0.0
H1808 H 0.8037 0.73689 0.83111 0.0
H1809 H 0.81411 0.75535 0.88756 0.0
H1810 H 0.88898 0.74976 0.9319 0.0
C1811 C 0.86115 0.79606 0.05927 0.0
C1812 C 0.84818 0.78198 0.97099 0.0
C1813 C 0.85612 0.79896 0.10363 0.0
C1814 C 0.82192 0.73973 0.8359 0.0
C1815 C 0.82796 0.75039 0.86804 0.0
C1816 C 0.87771 0.75901 0.94149 0.0
C1817 C 0.8671 0.78137 0.04541 0.0
C1818 C 0.86655 0.77703 0.99814 0.0
C1819 C 0.85159 0.75377 0.8768 0.0
C1820 C 0.85824 0.76309 0.91577 0.0
H1821 H 0.86548 0.76363 0.14459 0.0
H1822 H 0.87444 0.75858 0.06806 0.0
H1823 H 0.8964 0.76204 0.00177 0.0
H1824 H 0.87668 0.73041 0.80128 0.0
H1825 H 0.88718 0.74942 0.85565 0.0
C1826 C 0.06951 0.88068 0.77567 0.0
C1827 C 0.07116 0.89403 0.75089 0.0
C1828 C 0.05612 0.88033 0.81423 0.0
C1829 C 0.0301 0.90538 0.89842 0.0
H1830 H 0.98611 0.87266 0.91642 0.0
C1831 C 0.95238 0.91049 0.01692 0.0
C1832 C 0.94624 0.89785 0.04224 0.0
C1833 C 0.96948 0.90934 0.98436 0.0
C1834 C 0.99856 0.88176 0.91225 0.0
H1835 H 0.06031 0.91748 0.74706 0.0
H1836 H 0.03702 0.91686 0.81385 0.0
H1837 H 0.01309 0.87169 0.85424 0.0
H1838 H 0.9533 0.8741 0.05376 0.0
H1839 H 0.98335 0.8721 0.99695 0.0
H1840 H 0.01539 0.91557 0.9559 0.0
C1841 C 0.04619 0.9067 0.80396 0.0
C1842 C 0.01402 0.8812 0.87666 0.0
C1843 C 0.05941 0.90702 0.76549 0.0
C1844 C 0.95766 0.88404 0.03465 0.0
C1845 C 0.97477 0.88287 0.00201 0.0
C1846 C 0.01471 0.90593 0.93396 0.0
C1847 C 0.04435 0.89337 0.82875 0.0
C1848 C 0.02963 0.89315 0.8689 0.0
C1849 C 0.98082 0.89551 0.97643 0.0
C1850 C 0.99846 0.89427 0.94081 0.0
H1851 H 0.07841 0.8705 0.76515 0.0
H1852 H 0.0551 0.86992 0.83283 0.0
H1853 H 0.04224 0.91463 0.89374 0.0
H1854 H 0.94382 0.92127 0.02195 0.0
H1855 H 0.97348 0.91923 0.96478 0.0
C1856 C 0.85852 0.7515 0.317 0.0
C1857 C 0.83442 0.75424 0.31465 0.0
C1858 C 0.86741 0.74081 0.34619 0.0
C1859 C 0.85072 0.71123 0.42884 0.0
H1860 H 0.9034 0.72814 0.4923 0.0
C1861 C 0.87467 0.71646 0.61519 0.0
C1862 C 0.871 0.70161 0.62978 0.0
C1863 C 0.8788 0.71936 0.57089 0.0
C1864 C 0.88899 0.72308 0.47447 0.0
H1865 H 0.8005 0.74738 0.33887 0.0
H1866 H 0.81602 0.72918 0.39182 0.0
H1867 H 0.89126 0.73946 0.42347 0.0
H1868 H 0.87287 0.67805 0.61142 0.0
H1869 H 0.87879 0.68313 0.5327 0.0
H1870 H 0.84743 0.69565 0.48246 0.0
C1871 C 0.82812 0.73496 0.37028 0.0
C1872 C 0.88202 0.72952 0.43472 0.0
C1873 C 0.81918 0.74548 0.34019 0.0
C1874 C 0.87484 0.6896 0.60051 0.0
C1875 C 0.87825 0.6925 0.55561 0.0
C1876 C 0.85769 0.70481 0.46885 0.0
C1877 C 0.85244 0.73287 0.37467 0.0
C1878 C 0.86223 0.72407 0.4122 0.0
C1879 C 0.87907 0.70748 0.54022 0.0
C1880 C 0.87627 0.71113 0.49293 0.0
H1881 H 0.87062 0.75794 0.29697 0.0
H1882 H 0.88614 0.7392 0.34762 0.0
H1883 H 0.83567 0.70656 0.41204 0.0
H1884 H 0.87217 0.72594 0.63727 0.0
H1885 H 0.87942 0.73103 0.56018 0.0
C1886 C 0.43991 0.38555 0.76287 0.0
C1887 C 0.41935 0.39419 0.76425 0.0
C1888 C 0.45435 0.38455 0.79982 0.0
C1889 C 0.47017 0.40601 0.89829 0.0
H1890 H 0.50106 0.369 0.93384 0.0
C1891 C 0.52969 0.40321 0.0516 0.0
C1892 C 0.54988 0.39427 0.04867 0.0
C1893 C 0.51293 0.40285 0.01817 0.0
C1894 C 0.49279 0.37947 0.92402 0.0
H1895 H 0.39728 0.40809 0.80583 0.0
H1896 H 0.42252 0.40631 0.87045 0.0
H1897 H 0.47268 0.36843 0.87396 0.0
H1898 H 0.56861 0.37813 0.00822 0.0
H1899 H 0.53971 0.37778 0.94934 0.0
H1900 H 0.49059 0.41715 0.94748 0.0
C1901 C 0.42757 0.40043 0.84066 0.0
C1902 C 0.47646 0.37912 0.88984 0.0
C1903 C 0.41305 0.40136 0.80378 0.0
C1904 C 0.55316 0.3851 0.01144 0.0
C1905 C 0.53649 0.38481 0.97788 0.0
C1906 C 0.4866 0.40639 0.93226 0.0
C1907 C 0.44858 0.39224 0.83881 0.0
C1908 C 0.46505 0.3924 0.8765 0.0
C1909 C 0.51608 0.3936 0.98095 0.0
C1910 C 0.49821 0.39314 0.94542 0.0
H1911 H 0.44523 0.37992 0.73282 0.0
H1912 H 0.47051 0.37824 0.79729 0.0
H1913 H 0.46195 0.41648 0.88825 0.0
H1914 H 0.52664 0.41031 0.08008 0.0
H1915 H 0.4973 0.40962 0.02192 0.0
C1916 C 0.6306 0.30277 0.09716 0.0
C1917 C 0.62811 0.29089 0.1274 0.0
C1918 C 0.6266 0.30023 0.05228 0.0
C1919 C 0.60421 0.27324 0.96949 0.0
H1920 H 0.66528 0.27718 0.91554 0.0
C1921 C 0.63603 0.23153 0.83992 0.0
C1922 C 0.65302 0.23563 0.80882 0.0
C1923 C 0.62843 0.24184 0.87151 0.0
C1924 C 0.64788 0.27632 0.9292 0.0
H1925 H 0.61697 0.26772 0.13579 0.0
H1926 H 0.60898 0.26347 0.05794 0.0
H1927 H 0.65722 0.28995 0.98471 0.0
H1928 H 0.67467 0.25398 0.78522 0.0
H1929 H 0.66093 0.27225 0.83993 0.0
H1930 H 0.59491 0.25939 0.9146 0.0
C1931 C 0.61431 0.27465 0.06848 0.0
C1932 C 0.64327 0.28367 0.96901 0.0
C1933 C 0.61884 0.27707 0.11306 0.0
C1934 C 0.66166 0.25048 0.80899 0.0
C1935 C 0.65384 0.26091 0.84048 0.0
C1936 C 0.60865 0.26612 0.92927 0.0
C1937 C 0.6195 0.28591 0.03742 0.0
C1938 C 0.62176 0.28164 0.99047 0.0
C1939 C 0.63737 0.25664 0.87265 0.0
C1940 C 0.63094 0.26693 0.90971 0.0
H1941 H 0.63801 0.31345 0.10751 0.0
H1942 H 0.63058 0.30907 0.02884 0.0
H1943 H 0.58743 0.2716 0.98526 0.0
H1944 H 0.62905 0.22016 0.84081 0.0
H1945 H 0.61619 0.23793 0.89615 0.0
C1946 C 0.95168 0.62006 0.54397 0.0
C1947 C 0.9353 0.60825 0.54566 0.0
C1948 C 0.96813 0.62069 0.51002 0.0
C1949 C 0.99632 0.59658 0.42557 0.0
H1950 H 0.01338 0.63484 0.37229 0.0
C1951 C 0.04599 0.60011 0.26199 0.0
C1952 C 0.06465 0.61037 0.25911 0.0
C1953 C 0.03114 0.60024 0.29832 0.0
C1954 C 0.00897 0.6241 0.38723 0.0
H1955 H 0.92294 0.58804 0.51276 0.0
H1956 H 0.95122 0.58932 0.45301 0.0
H1957 H 0.9852 0.63437 0.43267 0.0
H1958 H 0.08229 0.62891 0.2918 0.0
H1959 H 0.05602 0.62922 0.35557 0.0
H1960 H 0.01971 0.5863 0.37953 0.0
C1961 C 0.95179 0.5979 0.47839 0.0
C1962 C 0.99286 0.62382 0.42183 0.0
C1963 C 0.93546 0.59722 0.51246 0.0
C1964 C 0.06804 0.62088 0.2932 0.0
C1965 C 0.05299 0.62109 0.32953 0.0
C1966 C 0.01227 0.59686 0.39086 0.0
C1967 C 0.96846 0.60957 0.47692 0.0
C1968 C 0.98617 0.61003 0.44113 0.0
C1969 C 0.03449 0.61068 0.33253 0.0
C1970 C 0.01859 0.6106 0.37104 0.0
H1971 H 0.95202 0.62869 0.56924 0.0
H1972 H 0.98087 0.62974 0.5102 0.0
H1973 H 0.99201 0.5858 0.4403 0.0
H1974 H 0.04289 0.59189 0.23621 0.0
H1975 H 0.01684 0.59223 0.29943 0.0
C1976 C 0.86526 0.30845 0.89025 0.0
C1977 C 0.86391 0.29605 0.86159 0.0
C1978 C 0.87032 0.3062 0.93494 0.0
C1979 C 0.85636 0.29434 0.02584 0.0
H1980 H 0.89427 0.26118 0.0684 0.0
C1981 C 0.82623 0.25472 0.164 0.0
C1982 C 0.84281 0.2462 0.1872 0.0
C1983 C 0.83341 0.26508 0.13192 0.0
C1984 C 0.88386 0.27073 0.0579 0.0
H1985 H 0.86942 0.27195 0.85536 0.0
H1986 H 0.87862 0.26802 0.9323 0.0
H1987 H 0.90236 0.27201 0.9969 0.0
H1988 H 0.87978 0.24281 0.19847 0.0
H1989 H 0.89237 0.26138 0.14436 0.0
H1990 H 0.83756 0.29288 0.08659 0.0
C1991 C 0.87565 0.27947 0.92112 0.0
C1992 C 0.88842 0.27685 0.01649 0.0
C1993 C 0.87031 0.2817 0.8769 0.0
C1994 C 0.86664 0.24909 0.18047 0.0
C1995 C 0.87383 0.25966 0.1492 0.0
C1996 C 0.85192 0.28831 0.06759 0.0
C1997 C 0.87449 0.29155 0.95113 0.0
C1998 C 0.87401 0.2882 0.99906 0.0
C1999 C 0.85735 0.26731 0.12303 0.0
C2000 C 0.86493 0.27594 0.08332 0.0
H2001 H 0.86039 0.31961 0.879 0.0
H2002 H 0.86966 0.31575 0.95722 0.0
H2003 H 0.84485 0.30307 0.01339 0.0
H2004 H 0.80773 0.25266 0.16854 0.0
H2005 H 0.82012 0.27059 0.11232 0.0
C2006 C 0.94819 0.38499 0.96091 0.0
C2007 C 0.93009 0.39569 0.95896 0.0
C2008 C 0.96335 0.38462 0.99689 0.0
C2009 C 0.98521 0.40875 0.08702 0.0
H2010 H 0.00859 0.37094 0.13424 0.0
C2011 C 0.03898 0.40641 0.24615 0.0
C2012 C 0.05928 0.3975 0.24566 0.0
C2013 C 0.02287 0.40553 0.21185 0.0
C2014 C 0.00235 0.38157 0.1211 0.0
H2015 H 0.91322 0.41411 0.99357 0.0
H2016 H 0.93939 0.41329 0.05691 0.0
H2017 H 0.98042 0.37059 0.07382 0.0
H2018 H 0.07844 0.38043 0.20939 0.0
H2019 H 0.05011 0.37887 0.14908 0.0
H2020 H 0.00699 0.41972 0.13443 0.0
C2021 C 0.9422 0.40539 0.03022 0.0
C2022 C 0.98623 0.38139 0.08652 0.0
C2023 C 0.92711 0.4058 0.99409 0.0
C2024 C 0.06294 0.38744 0.21056 0.0
C2025 C 0.0467 0.3865 0.17621 0.0
C2026 C 0.00119 0.40892 0.12167 0.0
C2027 C 0.96066 0.3949 0.03182 0.0
C2028 C 0.97747 0.39499 0.06909 0.0
C2029 C 0.02665 0.39568 0.17631 0.0
C2030 C 0.0099 0.39535 0.13913 0.0
H2031 H 0.95095 0.37707 0.93422 0.0
H2032 H 0.97753 0.37653 0.99676 0.0
H2033 H 0.97923 0.41943 0.0738 0.0
H2034 H 0.0356 0.41422 0.27286 0.0
H2035 H 0.00742 0.41257 0.21316 0.0
C2036 C 0.62333 0.71214 0.36658 0.0
C2037 C 0.64243 0.70291 0.35639 0.0
C2038 C 0.61793 0.71533 0.41045 0.0
C2039 C 0.63839 0.70942 0.52736 0.0
H2040 H 0.62805 0.75268 0.53204 0.0
C2041 C 0.67123 0.7493 0.66647 0.0
C2042 C 0.65715 0.76177 0.67721 0.0
C2043 C 0.66442 0.73931 0.63303 0.0
C2044 C 0.63052 0.74054 0.53167 0.0
H2045 H 0.67001 0.68903 0.38314 0.0
H2046 H 0.66139 0.69498 0.45948 0.0
H2047 H 0.62319 0.73952 0.46324 0.0
H2048 H 0.62414 0.7729 0.66392 0.0
H2049 H 0.61224 0.75547 0.60624 0.0
H2050 H 0.6472 0.71093 0.59598 0.0
C2051 C 0.64984 0.69936 0.43434 0.0
C2052 C 0.62756 0.7329 0.49201 0.0
C2053 C 0.65477 0.69584 0.39047 0.0
C2054 C 0.63554 0.76353 0.65592 0.0
C2055 C 0.62872 0.75355 0.62284 0.0
C2056 C 0.6416 0.71717 0.5672 0.0
C2057 C 0.63227 0.70991 0.44474 0.0
C2058 C 0.6318 0.71727 0.48895 0.0
C2059 C 0.6434 0.74162 0.60997 0.0
C2060 C 0.638 0.73286 0.56952 0.0
H2061 H 0.61376 0.71782 0.34065 0.0
H2062 H 0.60371 0.72305 0.41721 0.0
H2063 H 0.64161 0.69737 0.52648 0.0
H2064 H 0.68794 0.74765 0.68248 0.0
H2065 H 0.67617 0.73027 0.62367 0.0
C2066 C 0.5407 0.61619 0.46246 0.0
C2067 C 0.55664 0.60415 0.4603 0.0
C2068 C 0.5249 0.61726 0.49736 0.0
C2069 C 0.49687 0.59405 0.58355 0.0
H2070 H 0.48188 0.63283 0.636 0.0
C2071 C 0.44572 0.599 0.74538 0.0
C2072 C 0.42779 0.60981 0.74742 0.0
C2073 C 0.46116 0.59874 0.7099 0.0
C2074 C 0.48572 0.62195 0.62135 0.0
H2075 H 0.5689 0.58394 0.49331 0.0
H2076 H 0.54164 0.58595 0.55469 0.0
H2077 H 0.50985 0.63156 0.57541 0.0
H2078 H 0.41211 0.62896 0.71424 0.0
H2079 H 0.43929 0.62854 0.65196 0.0
H2080 H 0.47296 0.58443 0.6298 0.0
C2081 C 0.54099 0.59441 0.529 0.0
C2082 C 0.50172 0.62121 0.58664 0.0
C2083 C 0.55673 0.59331 0.49401 0.0
C2084 C 0.42578 0.62051 0.7135 0.0
C2085 C 0.44137 0.6203 0.678 0.0
C2086 C 0.48099 0.59478 0.61832 0.0
C2087 C 0.52477 0.60634 0.53093 0.0
C2088 C 0.50758 0.60723 0.5675 0.0
C2089 C 0.45909 0.60932 0.67572 0.0
C2090 C 0.47535 0.60872 0.63777 0.0
H2091 H 0.54019 0.62469 0.43684 0.0
H2092 H 0.51248 0.62649 0.49753 0.0
H2093 H 0.50057 0.58314 0.56897 0.0
H2094 H 0.44777 0.59063 0.77108 0.0
H2095 H 0.47484 0.59029 0.70938 0.0
C2096 C 0.13241 0.23453 0.66944 0.0
C2097 C 0.15381 0.23675 0.69111 0.0
C2098 C 0.1249 0.24464 0.63721 0.0
C2099 C 0.13547 0.28208 0.58597 0.0
H2100 H 0.12026 0.2607 0.47839 0.0
C2101 C 0.15228 0.3059 0.41385 0.0
C2102 C 0.14059 0.29963 0.37764 0.0
C2103 C 0.1466 0.30142 0.45657 0.0
C2104 C 0.12373 0.26702 0.5082 0.0
H2105 H 0.18345 0.2518 0.69803 0.0
H2106 H 0.17045 0.26943 0.64112 0.0
H2107 H 0.12447 0.24676 0.54618 0.0
H2108 H 0.11255 0.28486 0.3573 0.0
H2109 H 0.10144 0.27772 0.43208 0.0
H2110 H 0.13532 0.30235 0.54745 0.0
C2111 C 0.15938 0.25992 0.64938 0.0
C2112 C 0.12629 0.25894 0.54725 0.0
C2113 C 0.16691 0.24978 0.68176 0.0
C2114 C 0.12162 0.28995 0.38486 0.0
C2115 C 0.11556 0.28571 0.42767 0.0
C2116 C 0.13266 0.29024 0.54682 0.0
C2117 C 0.13864 0.25719 0.62584 0.0
C2118 C 0.13279 0.2663 0.58632 0.0
C2119 C 0.12895 0.29064 0.46387 0.0
C2120 C 0.12743 0.28274 0.50711 0.0
H2121 H 0.12178 0.22468 0.67628 0.0
H2122 H 0.10867 0.24236 0.62011 0.0
H2123 H 0.14023 0.28807 0.61574 0.0
H2124 H 0.16759 0.31286 0.409 0.0
H2125 H 0.15759 0.30533 0.48324 0.0
C2126 C 0.53698 0.59497 0.24104 0.0
C2127 C 0.55631 0.60467 0.24442 0.0
C2128 C 0.52215 0.59572 0.20473 0.0
C2129 C 0.50157 0.62071 0.11734 0.0
H2130 H 0.48291 0.58328 0.06093 0.0
C2131 C 0.44505 0.61952 0.95954 0.0
C2132 C 0.428 0.60815 0.9565 0.0
C2133 C 0.46138 0.61937 0.99371 0.0
C2134 C 0.4877 0.59383 0.07661 0.0
H2135 H 0.57514 0.62292 0.21278 0.0
H2136 H 0.54891 0.62436 0.14912 0.0
H2137 H 0.51028 0.58263 0.12227 0.0
H2138 H 0.4144 0.58787 0.98709 0.0
H2139 H 0.44249 0.58779 0.04731 0.0
H2140 H 0.47861 0.6319 0.07237 0.0
C2141 C 0.54535 0.61616 0.1747 0.0
C2142 C 0.50345 0.59345 0.11163 0.0
C2143 C 0.56037 0.6153 0.21097 0.0
C2144 C 0.42743 0.59672 0.98847 0.0
C2145 C 0.44365 0.59663 0.0228 0.0
C2146 C 0.48564 0.62109 0.08248 0.0
C2147 C 0.5262 0.60628 0.17113 0.0
C2148 C 0.5104 0.60686 0.13258 0.0
C2149 C 0.46092 0.6079 0.02571 0.0
C2150 C 0.47837 0.60763 0.06193 0.0
H2151 H 0.53338 0.58667 0.26633 0.0
H2152 H 0.50736 0.58811 0.20311 0.0
H2153 H 0.50648 0.63121 0.13319 0.0
H2154 H 0.44595 0.62844 0.93521 0.0
H2155 H 0.4746 0.62812 0.9946 0.0
C2156 C 0.33528 0.73713 0.18268 0.0
C2157 C 0.34091 0.75259 0.1825 0.0
C2158 C 0.34508 0.72736 0.15132 0.0
C2159 C 0.39149 0.7256 0.06413 0.0
H2160 H 0.34754 0.69941 0.00442 0.0
C2161 C 0.38122 0.71856 0.88049 0.0
C2162 C 0.37435 0.70459 0.86286 0.0
C2163 C 0.38632 0.71991 0.92517 0.0
C2164 C 0.36028 0.70629 0.02145 0.0
H2165 H 0.36147 0.76985 0.14987 0.0
H2166 H 0.37778 0.75313 0.09497 0.0
H2167 H 0.33684 0.71069 0.07466 0.0
H2168 H 0.37121 0.6807 0.87607 0.0
H2169 H 0.37842 0.68319 0.95549 0.0
H2170 H 0.41392 0.72232 0.0084 0.0
C2171 C 0.36641 0.74832 0.11974 0.0
C2172 C 0.35415 0.71281 0.06176 0.0
C2173 C 0.35679 0.758 0.15103 0.0
C2174 C 0.37579 0.69164 0.88933 0.0
C2175 C 0.38001 0.69306 0.93461 0.0
C2176 C 0.39745 0.71926 0.02351 0.0
C2177 C 0.3606 0.73288 0.11914 0.0
C2178 C 0.36922 0.72315 0.08251 0.0
C2179 C 0.38416 0.70737 0.95313 0.0
C2180 C 0.38147 0.71008 0.00094 0.0
H2181 H 0.32314 0.73263 0.20665 0.0
H2182 H 0.34034 0.71551 0.15205 0.0
H2183 H 0.40383 0.73315 0.07983 0.0
H2184 H 0.38053 0.72872 0.86063 0.0
H2185 H 0.38948 0.73108 0.93852 0.0
C2186 C 0.05845 0.38554 0.47237 0.0
C2187 C 0.06445 0.39979 0.4555 0.0
C2188 C 0.04291 0.38431 0.50764 0.0
C2189 C 0.01698 0.40659 0.59854 0.0
H2190 H 0.9714 0.37418 0.60072 0.0
C2191 C 0.92833 0.38924 0.7002 0.0
C2192 C 0.93567 0.39334 0.74263 0.0
C2193 C 0.94424 0.38916 0.66522 0.0
C2194 C 0.9839 0.38337 0.60044 0.0
H2195 H 0.05884 0.42391 0.46196 0.0
H2196 H 0.03137 0.42178 0.52281 0.0
H2197 H 0.99844 0.37619 0.53901 0.0
H2198 H 0.96548 0.39988 0.78233 0.0
H2199 H 0.99326 0.39931 0.7219 0.0
H2200 H 0.00198 0.41412 0.65898 0.0
C2201 C 0.039 0.41155 0.50954 0.0
C2202 C -0.00039 0.38441 0.56534 0.0
C2203 C 0.05466 0.41278 0.47451 0.0
C2204 C 0.95927 0.39683 0.74983 0.0
C2205 C 0.97517 0.39661 0.7151 0.0
C2206 C 0.00122 0.40561 0.6334 0.0
C2207 C 0.03294 0.3973 0.52657 0.0
C2208 C 0.01633 0.39604 0.56397 0.0
C2209 C 0.96779 0.39306 0.6722 0.0
C2210 C 0.98451 0.39397 0.63488 0.0
H2211 H 0.0658 0.37533 0.4584 0.0
H2212 H 0.03891 0.37318 0.52035 0.0
H2213 H 0.0298 0.41558 0.59889 0.0
H2214 H 0.9102 0.38652 0.69378 0.0
H2215 H 0.93792 0.38649 0.63254 0.0
C2216 C 0.13383 0.7284 0.11494 0.0
C2217 C 0.14216 0.71489 0.13323 0.0
C2218 C 0.1278 0.72908 0.0706 0.0
C2219 C 0.11488 0.72864 0.97513 0.0
H2220 H 0.16735 0.71283 0.90893 0.0
C2221 C 0.13673 0.75484 0.80951 0.0
C2222 C 0.16045 0.75831 0.80392 0.0
C2223 C 0.12975 0.74425 0.84093 0.0
C2224 C 0.15252 0.71732 0.92678 0.0
H2225 H 0.14776 0.69109 0.12151 0.0
H2226 H 0.13746 0.69225 0.04308 0.0
H2227 H 0.16054 0.70411 0.98375 0.0
H2228 H 0.19561 0.75285 0.82454 0.0
H2229 H 0.18356 0.735 0.88107 0.0
H2230 H 0.10814 0.74296 0.92042 0.0
C2231 C 0.13595 0.70236 0.06298 0.0
C2232 C 0.14836 0.7121 0.96952 0.0
C2233 C 0.14172 0.70166 0.10777 0.0
C2234 C 0.1772 0.75033 0.82823 0.0
C2235 C 0.17021 0.74 0.86048 0.0
C2236 C 0.1192 0.734 0.93274 0.0
C2237 C 0.13008 0.71627 0.0435 0.0
C2238 C 0.13017 0.71828 0.99494 0.0
C2239 C 0.14631 0.73724 0.86841 0.0
C2240 C 0.13875 0.72894 0.90873 0.0
H2241 H 0.13382 0.73876 0.13398 0.0
H2242 H 0.12345 0.74001 0.05687 0.0
H2243 H 0.10048 0.73343 0.99358 0.0
H2244 H 0.12349 0.7607 0.7906 0.0
H2245 H 0.11126 0.74211 0.84497 0.0
C2246 C 0.92944 0.619 0.79236 0.0
C2247 C 0.93343 0.6088 0.75774 0.0
C2248 C 0.94485 0.61966 0.82808 0.0
C2249 C 0.98855 0.59685 0.88665 0.0
H2250 H 0.01162 0.63522 0.93041 0.0
C2251 C 0.06513 0.59985 0.00836 0.0
C2252 C 0.06368 0.61042 0.04272 0.0
C2253 C 0.04901 0.60014 0.97391 0.0
C2254 C 0.00511 0.62442 0.91895 0.0
H2255 H 0.95666 0.59135 0.73317 0.0
H2256 H 0.98339 0.59249 0.79531 0.0
H2257 H 0.9832 0.63481 0.87041 0.0
H2258 H 0.04442 0.62968 0.06783 0.0
H2259 H 0.01599 0.63003 0.00802 0.0
H2260 H 0.01022 0.58641 0.93511 0.0
C2261 C 0.96833 0.5999 0.79512 0.0
C2262 C 0.98885 0.6242 0.88461 0.0
C2263 C 0.95308 0.59931 0.75941 0.0
C2264 C 0.04599 0.62141 0.04168 0.0
C2265 C 0.02978 0.62166 0.00731 0.0
C2266 C 0.00467 0.59706 0.92106 0.0
C2267 C 0.96436 0.61003 0.82989 0.0
C2268 C 0.98062 0.6104 0.86782 0.0
C2269 C 0.03099 0.61094 0.97319 0.0
C2270 C 0.01335 0.61084 0.93733 0.0
H2271 H 0.91442 0.62645 0.79187 0.0
H2272 H 0.94132 0.62753 0.85459 0.0
H2273 H 0.9822 0.58605 0.87485 0.0
H2274 H 0.07867 0.5913 0.00817 0.0
H2275 H 0.05072 0.5919 0.94773 0.0
C2276 C 0.3749 0.28581 0.62021 0.0
C2277 C 0.35592 0.29537 0.62847 0.0
C2278 C 0.37999 0.28133 0.57704 0.0
C2279 C 0.36082 0.28587 0.45904 0.0
H2280 H 0.37024 0.24251 0.45734 0.0
C2281 C 0.32794 0.24615 0.32051 0.0
C2282 C 0.34151 0.2334 0.31026 0.0
C2283 C 0.33484 0.25598 0.35426 0.0
C2284 C 0.36804 0.25467 0.45693 0.0
H2285 H 0.32756 0.30776 0.59946 0.0
H2286 H 0.33608 0.30012 0.52431 0.0
H2287 H 0.37487 0.2562 0.52568 0.0
H2288 H 0.37368 0.2215 0.32517 0.0
H2289 H 0.38575 0.23866 0.38351 0.0
H2290 H 0.35264 0.28399 0.39033 0.0
C2291 C 0.34777 0.29647 0.55019 0.0
C2292 C 0.37084 0.26259 0.49627 0.0
C2293 C 0.34293 0.30101 0.59317 0.0
C2294 C 0.3627 0.23114 0.33265 0.0
C2295 C 0.36959 0.24094 0.36617 0.0
C2296 C 0.35782 0.27789 0.41963 0.0
C2297 C 0.36569 0.28599 0.54173 0.0
C2298 C 0.36678 0.27825 0.49818 0.0
C2299 C 0.35544 0.25323 0.37825 0.0
C2300 C 0.36097 0.26214 0.41839 0.0
H2301 H 0.38476 0.28103 0.64726 0.0
H2302 H 0.39419 0.27346 0.57172 0.0
H2303 H 0.35784 0.29795 0.45908 0.0
H2304 H 0.31154 0.24818 0.30377 0.0
H2305 H 0.32346 0.26529 0.36299 0.0
C2306 C 0.45626 0.40434 0.55485 0.0
C2307 C 0.43221 0.40393 0.54576 0.0
C2308 C 0.47251 0.40088 0.522 0.0
C2309 C 0.47725 0.3804 0.41643 0.0
H2310 H 0.53441 0.40336 0.40227 0.0
C2311 C 0.53321 0.37914 0.25926 0.0
C2312 C 0.55755 0.38047 0.26315 0.0
C2313 C 0.51901 0.37982 0.29653 0.0
C2314 C 0.51873 0.39665 0.40631 0.0
H2315 H 0.40631 0.40009 0.49489 0.0
H2316 H 0.43463 0.39434 0.43742 0.0
H2317 H 0.50733 0.40991 0.46119 0.0
H2318 H 0.58628 0.38266 0.3092 0.0
H2319 H 0.56141 0.38376 0.37455 0.0
H2320 H 0.48845 0.36733 0.361 0.0
C2321 C 0.44096 0.39703 0.4701 0.0
C2322 C 0.50318 0.40045 0.43998 0.0
C2323 C 0.42474 0.40047 0.5029 0.0
C2324 C 0.56755 0.3816 0.30524 0.0
C2325 C 0.55331 0.38237 0.34258 0.0
C2326 C 0.49278 0.37662 0.38275 0.0
C2327 C 0.46501 0.39693 0.47945 0.0
C2328 C 0.4821 0.39251 0.44501 0.0
C2329 C 0.52886 0.38191 0.33846 0.0
C2330 C 0.51354 0.38483 0.37693 0.0
H2331 H 0.46251 0.4069 0.58766 0.0
H2332 H 0.4909 0.40084 0.53033 0.0
H2333 H 0.4614 0.37384 0.42003 0.0
H2334 H 0.52502 0.37826 0.22722 0.0
H2335 H 0.50024 0.37953 0.29217 0.0
loop_
_geom_bond_atom_site_label_1
_geom_bond_atom_site_label_2
_geom_bond_distance
_geom_bond_site_symmetry_2
_ccdc_geom_bond_type
In0 O1 2.294 . S
In0 O2 2.326 . S
In0 O6 2.266 . S
In0 O7 2.326 . S
In0 O8 2.266 . S
In0 O9 2.326 . S
In0 O11 2.294 . S
In0 O12 2.326 . S
O1 In0 2.294 . S
O1 C10 1.240 . S
O2 In0 2.326 . S
O2 C10 1.252 . S
C3 O6 1.252 . S
C3 O7 1.260 . S
C4 O11 1.240 . S
C4 O12 1.252 . S
C5 O8 1.252 . S
C5 O9 1.260 . S
O6 In0 2.266 . S
O6 C3 1.252 . S
O7 In0 2.326 . S
O7 C3 1.260 . S
O8 In0 2.266 . S
O8 C5 1.252 . S
O9 In0 2.326 . S
O9 C5 1.260 . S
C10 O1 1.240 . S
C10 O2 1.252 . S
O11 In0 2.294 . S
O11 C4 1.240 . S
O12 In0 2.326 . S
O12 C4 1.252 . S
In13 O14 2.294 . S
In13 O15 2.326 . S
In13 O19 2.266 . S
In13 O20 2.326 . S
In13 O21 2.266 . S
In13 O22 2.326 . S
In13 O24 2.294 . S
In13 O25 2.326 . S
O14 In13 2.294 . S
O14 C23 1.240 . S
O15 In13 2.326 . S
O15 C23 1.252 . S
C16 O19 1.252 . S
C16 O20 1.260 . S
C17 O24 1.240 . S
C17 O25 1.252 . S
C18 O21 1.252 . S
C18 O22 1.260 . S
O19 In13 2.266 . S
O19 C16 1.252 . S
O20 In13 2.326 . S
O20 C16 1.260 . S
O21 In13 2.266 . S
O21 C18 1.252 . S
O22 In13 2.326 . S
O22 C18 1.260 . S
C23 O14 1.240 . S
C23 O15 1.252 . S
O24 In13 2.294 . S
O24 C17 1.240 . S
O25 In13 2.326 . S
O25 C17 1.252 . S
In26 O27 2.294 . S
In26 O28 2.326 . S
In26 O32 2.266 . S
In26 O33 2.326 . S
In26 O34 2.266 . S
In26 O35 2.326 . S
In26 O37 2.294 . S
In26 O38 2.326 . S
O27 In26 2.294 . S
O27 C36 1.240 . S
O28 In26 2.326 . S
O28 C36 1.252 . S
C29 O32 1.252 . S
C29 O33 1.260 . S
C30 O37 1.240 . S
C30 O38 1.252 . S
C31 O34 1.252 . S
C31 O35 1.260 . S
O32 In26 2.266 . S
O32 C29 1.252 . S
O33 In26 2.326 . S
O33 C29 1.260 . S
O34 In26 2.266 . S
O34 C31 1.252 . S
O35 In26 2.326 . S
O35 C31 1.260 . S
C36 O27 1.240 . S
C36 O28 1.252 . S
O37 In26 2.294 . S
O37 C30 1.240 . S
O38 In26 2.326 . S
O38 C30 1.252 . S
In39 O40 2.294 . S
In39 O41 2.326 . S
In39 O45 2.266 . S
In39 O46 2.326 . S
In39 O47 2.266 . S
In39 O48 2.326 . S
In39 O50 2.294 . S
In39 O51 2.326 . S
O40 In39 2.294 . S
O40 C49 1.240 . S
O41 In39 2.326 . S
O41 C49 1.252 . S
C42 O45 1.252 . S
C42 O46 1.260 . S
C43 O50 1.240 . S
C43 O51 1.252 . S
C44 O47 1.252 . S
C44 O48 1.260 . S
O45 In39 2.266 . S
O45 C42 1.252 . S
O46 In39 2.326 . S
O46 C42 1.260 . S
O47 In39 2.266 . S
O47 C44 1.252 . S
O48 In39 2.326 . S
O48 C44 1.260 . S
C49 O40 1.240 . S
C49 O41 1.252 . S
O50 In39 2.294 . S
O50 C43 1.240 . S
O51 In39 2.326 . S
O51 C43 1.252 . S
In52 O53 2.294 . S
In52 O54 2.326 . S
In52 O58 2.266 . S
In52 O59 2.326 . S
In52 O60 2.266 . S
In52 O61 2.326 . S
In52 O63 2.294 . S
In52 O64 2.326 . S
O53 In52 2.294 . S
O53 C62 1.240 . S
O54 In52 2.326 . S
O54 C62 1.252 . S
C55 O58 1.252 . S
C55 O59 1.260 . S
C56 O63 1.240 . S
C56 O64 1.252 . S
C57 O60 1.252 . S
C57 O61 1.260 . S
O58 In52 2.266 . S
O58 C55 1.252 . S
O59 In52 2.326 . S
O59 C55 1.260 . S
O60 In52 2.266 . S
O60 C57 1.252 . S
O61 In52 2.326 . S
O61 C57 1.260 . S
C62 O53 1.240 . S
C62 O54 1.252 . S
O63 In52 2.294 . S
O63 C56 1.240 . S
O64 In52 2.326 . S
O64 C56 1.252 . S
In65 O66 2.294 . S
In65 O67 2.326 . S
In65 O71 2.266 . S
In65 O72 2.326 . S
In65 O73 2.266 . S
In65 O74 2.326 . S
In65 O76 2.294 . S
In65 O77 2.326 . S
O66 In65 2.294 . S
O66 C75 1.240 . S
O67 In65 2.326 . S
O67 C75 1.252 . S
C68 O71 1.252 . S
C68 O72 1.260 . S
C69 O76 1.240 . S
C69 O77 1.252 . S
C70 O73 1.252 . S
C70 O74 1.260 . S
O71 In65 2.266 . S
O71 C68 1.252 . S
O72 In65 2.326 . S
O72 C68 1.260 . S
O73 In65 2.266 . S
O73 C70 1.252 . S
O74 In65 2.326 . S
O74 C70 1.260 . S
C75 O66 1.240 . S
C75 O67 1.252 . S
O76 In65 2.294 . S
O76 C69 1.240 . S
O77 In65 2.326 . S
O77 C69 1.252 . S
In78 O79 2.294 . S
In78 O80 2.326 . S
In78 O84 2.266 . S
In78 O85 2.326 . S
In78 O86 2.266 . S
In78 O87 2.326 . S
In78 O89 2.294 . S
In78 O90 2.326 . S
O79 In78 2.294 . S
O79 C88 1.240 . S
O80 In78 2.326 . S
O80 C88 1.252 . S
C81 O84 1.252 . S
C81 O85 1.260 . S
C82 O89 1.240 . S
C82 O90 1.252 . S
C83 O86 1.252 . S
C83 O87 1.260 . S
O84 In78 2.266 . S
O84 C81 1.252 . S
O85 In78 2.326 . S
O85 C81 1.260 . S
O86 In78 2.266 . S
O86 C83 1.252 . S
O87 In78 2.326 . S
O87 C83 1.260 . S
C88 O79 1.240 . S
C88 O80 1.252 . S
O89 In78 2.294 . S
O89 C82 1.240 . S
O90 In78 2.326 . S
O90 C82 1.252 . S
In91 O92 2.294 . S
In91 O93 2.326 . S
In91 O97 2.266 . S
In91 O98 2.326 . S
In91 O99 2.266 . S
In91 O100 2.326 . S
In91 O102 2.294 . S
In91 O103 2.326 . S
O92 In91 2.294 . S
O92 C101 1.240 . S
O93 In91 2.326 . S
O93 C101 1.252 . S
C94 O97 1.252 . S
C94 O98 1.260 . S
C95 O102 1.240 . S
C95 O103 1.252 . S
C96 O99 1.252 . S
C96 O100 1.260 . S
O97 In91 2.266 . S
O97 C94 1.252 . S
O98 In91 2.326 . S
O98 C94 1.260 . S
O99 In91 2.266 . S
O99 C96 1.252 . S
O100 In91 2.326 . S
O100 C96 1.260 . S
C101 O92 1.240 . S
C101 O93 1.252 . S
O102 In91 2.294 . S
O102 C95 1.240 . S
O103 In91 2.326 . S
O103 C95 1.252 . S
In104 O105 2.294 . S
In104 O106 2.326 . S
In104 O110 2.266 . S
In104 O111 2.326 . S
In104 O112 2.266 . S
In104 O113 2.326 . S
In104 O115 2.294 . S
In104 O116 2.326 . S
O105 In104 2.294 . S
O105 C114 1.240 . S
O106 In104 2.326 . S
O106 C114 1.252 . S
C107 O110 1.252 . S
C107 O111 1.260 . S
C108 O115 1.240 . S
C108 O116 1.252 . S
C109 O112 1.252 . S
C109 O113 1.260 . S
O110 In104 2.266 . S
O110 C107 1.252 . S
O111 In104 2.326 . S
O111 C107 1.260 . S
O112 In104 2.266 . S
O112 C109 1.252 . S
O113 In104 2.326 . S
O113 C109 1.260 . S
C114 O105 1.240 . S
C114 O106 1.252 . S
O115 In104 2.294 . S
O115 C108 1.240 . S
O116 In104 2.326 . S
O116 C108 1.252 . S
In117 O118 2.294 . S
In117 O119 2.326 . S
In117 O123 2.266 . S
In117 O124 2.326 . S
In117 O125 2.266 . S
In117 O126 2.326 . S
In117 O128 2.294 . S
In117 O129 2.326 . S
O118 In117 2.294 . S
O118 C127 1.240 . S
O119 In117 2.326 . S
O119 C127 1.252 . S
C120 O123 1.252 . S
C120 O124 1.260 . S
C121 O128 1.240 . S
C121 O129 1.252 . S
C122 O125 1.252 . S
C122 O126 1.260 . S
O123 In117 2.266 . S
O123 C120 1.252 . S
O124 In117 2.326 . S
O124 C120 1.260 . S
O125 In117 2.266 . S
O125 C122 1.252 . S
O126 In117 2.326 . S
O126 C122 1.260 . S
C127 O118 1.240 . S
C127 O119 1.252 . S
O128 In117 2.294 . S
O128 C121 1.240 . S
O129 In117 2.326 . S
O129 C121 1.252 . S
In130 O131 2.294 . S
In130 O132 2.326 . S
In130 O136 2.266 . S
In130 O137 2.326 . S
In130 O138 2.266 . S
In130 O139 2.326 . S
In130 O141 2.294 . S
In130 O142 2.326 . S
O131 In130 2.294 . S
O131 C140 1.240 . S
O132 In130 2.326 . S
O132 C140 1.252 . S
C133 O136 1.252 . S
C133 O137 1.260 . S
C134 O141 1.240 . S
C134 O142 1.252 . S
C135 O138 1.252 . S
C135 O139 1.260 . S
O136 In130 2.266 . S
O136 C133 1.252 . S
O137 In130 2.326 . S
O137 C133 1.260 . S
O138 In130 2.266 . S
O138 C135 1.252 . S
O139 In130 2.326 . S
O139 C135 1.260 . S
C140 O131 1.240 . S
C140 O132 1.252 . S
O141 In130 2.294 . S
O141 C134 1.240 . S
O142 In130 2.326 . S
O142 C134 1.252 . S
In143 O144 2.294 . S
In143 O145 2.326 . S
In143 O149 2.266 . S
In143 O150 2.326 . S
In143 O151 2.266 . S
In143 O152 2.326 . S
In143 O154 2.294 . S
In143 O155 2.326 . S
O144 In143 2.294 . S
O144 C153 1.240 . S
O145 In143 2.326 . S
O145 C153 1.252 . S
C146 O149 1.252 . S
C146 O150 1.260 . S
C147 O154 1.240 . S
C147 O155 1.252 . S
C148 O151 1.252 . S
C148 O152 1.260 . S
O149 In143 2.266 . S
O149 C146 1.252 . S
O150 In143 2.326 . S
O150 C146 1.260 . S
O151 In143 2.266 . S
O151 C148 1.252 . S
O152 In143 2.326 . S
O152 C148 1.260 . S
C153 O144 1.240 . S
C153 O145 1.252 . S
O154 In143 2.294 . S
O154 C147 1.240 . S
O155 In143 2.326 . S
O155 C147 1.252 . S
In156 O157 2.294 . S
In156 O158 2.326 . S
In156 O162 2.266 . S
In156 O163 2.326 . S
In156 O164 2.266 . S
In156 O165 2.326 . S
In156 O167 2.294 . S
In156 O168 2.326 . S
O157 In156 2.294 . S
O157 C166 1.240 . S
O158 In156 2.326 . S
O158 C166 1.252 . S
C159 O162 1.252 . S
C159 O163 1.260 . S
C160 O167 1.240 . S
C160 O168 1.252 . S
C161 O164 1.252 . S
C161 O165 1.260 . S
O162 In156 2.266 . S
O162 C159 1.252 . S
O163 In156 2.326 . S
O163 C159 1.260 . S
O164 In156 2.266 . S
O164 C161 1.252 . S
O165 In156 2.326 . S
O165 C161 1.260 . S
C166 O157 1.240 . S
C166 O158 1.252 . S
O167 In156 2.294 . S
O167 C160 1.240 . S
O168 In156 2.326 . S
O168 C160 1.252 . S
In169 O170 2.294 . S
In169 O171 2.326 . S
In169 O175 2.266 . S
In169 O176 2.326 . S
In169 O177 2.266 . S
In169 O178 2.326 . S
In169 O180 2.294 . S
In169 O181 2.326 . S
O170 In169 2.294 . S
O170 C179 1.240 . S
O171 In169 2.326 . S
O171 C179 1.252 . S
C172 O175 1.252 . S
C172 O176 1.260 . S
C173 O180 1.240 . S
C173 O181 1.252 . S
C174 O177 1.252 . S
C174 O178 1.260 . S
O175 In169 2.266 . S
O175 C172 1.252 . S
O176 In169 2.326 . S
O176 C172 1.260 . S
O177 In169 2.266 . S
O177 C174 1.252 . S
O178 In169 2.326 . S
O178 C174 1.260 . S
C179 O170 1.240 . S
C179 O171 1.252 . S
O180 In169 2.294 . S
O180 C173 1.240 . S
O181 In169 2.326 . S
O181 C173 1.252 . S
In182 O183 2.294 . S
In182 O184 2.326 . S
In182 O188 2.266 . S
In182 O189 2.326 . S
In182 O190 2.266 . S
In182 O191 2.326 . S
In182 O193 2.294 . S
In182 O194 2.326 . S
O183 In182 2.294 . S
O183 C192 1.240 . S
O184 In182 2.326 . S
O184 C192 1.252 . S
C185 O188 1.252 . S
C185 O189 1.260 . S
C186 O193 1.240 . S
C186 O194 1.252 . S
C187 O190 1.252 . S
C187 O191 1.260 . S
O188 In182 2.266 . S
O188 C185 1.252 . S
O189 In182 2.326 . S
O189 C185 1.260 . S
O190 In182 2.266 . S
O190 C187 1.252 . S
O191 In182 2.326 . S
O191 C187 1.260 . S
C192 O183 1.240 . S
C192 O184 1.252 . S
O193 In182 2.294 . S
O193 C186 1.240 . S
O194 In182 2.326 . S
O194 C186 1.252 . S
In195 O196 2.294 . S
In195 O197 2.326 . S
In195 O201 2.266 . S
In195 O202 2.326 . S
In195 O203 2.266 . S
In195 O204 2.326 . S
In195 O206 2.294 . S
In195 O207 2.326 . S
O196 In195 2.294 . S
O196 C205 1.240 . S
O197 In195 2.326 . S
O197 C205 1.252 . S
C198 O201 1.252 . S
C198 O202 1.260 . S
C199 O206 1.240 . S
C199 O207 1.252 . S
C200 O203 1.252 . S
C200 O204 1.260 . S
O201 In195 2.266 . S
O201 C198 1.252 . S
O202 In195 2.326 . S
O202 C198 1.260 . S
O203 In195 2.266 . S
O203 C200 1.252 . S
O204 In195 2.326 . S
O204 C200 1.260 . S
C205 O196 1.240 . S
C205 O197 1.252 . S
O206 In195 2.294 . S
O206 C199 1.240 . S
O207 In195 2.326 . S
O207 C199 1.252 . S
In208 O209 2.294 . S
In208 O210 2.326 . S
In208 O214 2.266 . S
In208 O215 2.326 . S
In208 O216 2.266 . S
In208 O217 2.326 . S
In208 O219 2.294 . S
In208 O220 2.326 . S
O209 In208 2.294 . S
O209 C218 1.240 . S
O210 In208 2.326 . S
O210 C218 1.252 . S
C211 O214 1.252 . S
C211 O215 1.260 . S
C212 O219 1.240 . S
C212 O220 1.252 . S
C213 O216 1.252 . S
C213 O217 1.260 . S
O214 In208 2.266 . S
O214 C211 1.252 . S
O215 In208 2.326 . S
O215 C211 1.260 . S
O216 In208 2.266 . S
O216 C213 1.252 . S
O217 In208 2.326 . S
O217 C213 1.260 . S
C218 O209 1.240 . S
C218 O210 1.252 . S
O219 In208 2.294 . S
O219 C212 1.240 . S
O220 In208 2.326 . S
O220 C212 1.252 . S
In221 O222 2.294 . S
In221 O223 2.326 . S
In221 O227 2.266 . S
In221 O228 2.326 . S
In221 O229 2.266 . S
In221 O230 2.326 . S
In221 O232 2.294 . S
In221 O233 2.326 . S
O222 In221 2.294 . S
O222 C231 1.240 . S
O223 In221 2.326 . S
O223 C231 1.252 . S
C224 O227 1.252 . S
C224 O228 1.260 . S
C225 O232 1.240 . S
C225 O233 1.252 . S
C226 O229 1.252 . S
C226 O230 1.260 . S
O227 In221 2.266 . S
O227 C224 1.252 . S
O228 In221 2.326 . S
O228 C224 1.260 . S
O229 In221 2.266 . S
O229 C226 1.252 . S
O230 In221 2.326 . S
O230 C226 1.260 . S
C231 O222 1.240 . S
C231 O223 1.252 . S
O232 In221 2.294 . S
O232 C225 1.240 . S
O233 In221 2.326 . S
O233 C225 1.252 . S
In234 O235 2.294 . S
In234 O236 2.326 . S
In234 O240 2.266 . S
In234 O241 2.326 . S
In234 O242 2.266 . S
In234 O243 2.326 . S
In234 O245 2.294 . S
In234 O246 2.326 . S
O235 In234 2.294 . S
O235 C244 1.240 . S
O236 In234 2.326 . S
O236 C244 1.252 . S
C237 O240 1.252 . S
C237 O241 1.260 . S
C238 O245 1.240 . S
C238 O246 1.252 . S
C239 O242 1.252 . S
C239 O243 1.260 . S
O240 In234 2.266 . S
O240 C237 1.252 . S
O241 In234 2.326 . S
O241 C237 1.260 . S
O242 In234 2.266 . S
O242 C239 1.252 . S
O243 In234 2.326 . S
O243 C239 1.260 . S
C244 O235 1.240 . S
C244 O236 1.252 . S
O245 In234 2.294 . S
O245 C238 1.240 . S
O246 In234 2.326 . S
O246 C238 1.252 . S
In247 O248 2.294 . S
In247 O249 2.326 . S
In247 O253 2.266 . S
In247 O254 2.326 . S
In247 O255 2.266 . S
In247 O256 2.326 . S
In247 O258 2.294 . S
In247 O259 2.326 . S
O248 In247 2.294 . S
O248 C257 1.240 . S
O249 In247 2.326 . S
O249 C257 1.252 . S
C250 O253 1.252 . S
C250 O254 1.260 . S
C251 O258 1.240 . S
C251 O259 1.252 . S
C252 O255 1.252 . S
C252 O256 1.260 . S
O253 In247 2.266 . S
O253 C250 1.252 . S
O254 In247 2.326 . S
O254 C250 1.260 . S
O255 In247 2.266 . S
O255 C252 1.252 . S
O256 In247 2.326 . S
O256 C252 1.260 . S
C257 O248 1.240 . S
C257 O249 1.252 . S
O258 In247 2.294 . S
O258 C251 1.240 . S
O259 In247 2.326 . S
O259 C251 1.252 . S
In260 O261 2.294 . S
In260 O262 2.326 . S
In260 O266 2.266 . S
In260 O267 2.326 . S
In260 O268 2.266 . S
In260 O269 2.326 . S
In260 O271 2.294 . S
In260 O272 2.326 . S
O261 In260 2.294 . S
O261 C270 1.240 . S
O262 In260 2.326 . S
O262 C270 1.252 . S
C263 O266 1.252 . S
C263 O267 1.260 . S
C264 O271 1.240 . S
C264 O272 1.252 . S
C265 O268 1.252 . S
C265 O269 1.260 . S
O266 In260 2.266 . S
O266 C263 1.252 . S
O267 In260 2.326 . S
O267 C263 1.260 . S
O268 In260 2.266 . S
O268 C265 1.252 . S
O269 In260 2.326 . S
O269 C265 1.260 . S
C270 O261 1.240 . S
C270 O262 1.252 . S
O271 In260 2.294 . S
O271 C264 1.240 . S
O272 In260 2.326 . S
O272 C264 1.252 . S
In273 O274 2.294 . S
In273 O275 2.326 . S
In273 O279 2.266 . S
In273 O280 2.326 . S
In273 O281 2.266 . S
In273 O282 2.326 . S
In273 O284 2.294 . S
In273 O285 2.326 . S
O274 In273 2.294 . S
O274 C283 1.240 . S
O275 In273 2.326 . S
O275 C283 1.252 . S
C276 O279 1.252 . S
C276 O280 1.260 . S
C277 O284 1.240 . S
C277 O285 1.252 . S
C278 O281 1.252 . S
C278 O282 1.260 . S
O279 In273 2.266 . S
O279 C276 1.252 . S
O280 In273 2.326 . S
O280 C276 1.260 . S
O281 In273 2.266 . S
O281 C278 1.252 . S
O282 In273 2.326 . S
O282 C278 1.260 . S
C283 O274 1.240 . S
C283 O275 1.252 . S
O284 In273 2.294 . S
O284 C277 1.240 . S
O285 In273 2.326 . S
O285 C277 1.252 . S
In286 O287 2.294 . S
In286 O288 2.326 . S
In286 O292 2.266 . S
In286 O293 2.326 . S
In286 O294 2.266 . S
In286 O295 2.326 . S
In286 O297 2.294 . S
In286 O298 2.326 . S
O287 In286 2.294 . S
O287 C296 1.240 . S
O288 In286 2.326 . S
O288 C296 1.252 . S
C289 O292 1.252 . S
C289 O293 1.260 . S
C290 O297 1.240 . S
C290 O298 1.252 . S
C291 O294 1.252 . S
C291 O295 1.260 . S
O292 In286 2.266 . S
O292 C289 1.252 . S
O293 In286 2.326 . S
O293 C289 1.260 . S
O294 In286 2.266 . S
O294 C291 1.252 . S
O295 In286 2.326 . S
O295 C291 1.260 . S
C296 O287 1.240 . S
C296 O288 1.252 . S
O297 In286 2.294 . S
O297 C290 1.240 . S
O298 In286 2.326 . S
O298 C290 1.252 . S
In299 O300 2.294 . S
In299 O301 2.326 . S
In299 O305 2.266 . S
In299 O306 2.326 . S
In299 O307 2.266 . S
In299 O308 2.326 . S
In299 O310 2.294 . S
In299 O311 2.326 . S
O300 In299 2.294 . S
O300 C309 1.240 . S
O301 In299 2.326 . S
O301 C309 1.252 . S
C302 O305 1.252 . S
C302 O306 1.260 . S
C303 O310 1.240 . S
C303 O311 1.252 . S
C304 O307 1.252 . S
C304 O308 1.260 . S
O305 In299 2.266 . S
O305 C302 1.252 . S
O306 In299 2.326 . S
O306 C302 1.260 . S
O307 In299 2.266 . S
O307 C304 1.252 . S
O308 In299 2.326 . S
O308 C304 1.260 . S
C309 O300 1.240 . S
C309 O301 1.252 . S
O310 In299 2.294 . S
O310 C303 1.240 . S
O311 In299 2.326 . S
O311 C303 1.252 . S
In312 O313 2.294 . S
In312 O314 2.326 . S
In312 O318 2.266 . S
In312 O319 2.326 . S
In312 O320 2.266 . S
In312 O321 2.326 . S
In312 O323 2.294 . S
In312 O324 2.326 . S
O313 In312 2.294 . S
O313 C322 1.240 . S
O314 In312 2.326 . S
O314 C322 1.252 . S
C315 O318 1.252 . S
C315 O319 1.260 . S
C316 O323 1.240 . S
C316 O324 1.252 . S
C317 O320 1.252 . S
C317 O321 1.260 . S
O318 In312 2.266 . S
O318 C315 1.252 . S
O319 In312 2.326 . S
O319 C315 1.260 . S
O320 In312 2.266 . S
O320 C317 1.252 . S
O321 In312 2.326 . S
O321 C317 1.260 . S
C322 O313 1.240 . S
C322 O314 1.252 . S
O323 In312 2.294 . S
O323 C316 1.240 . S
O324 In312 2.326 . S
O324 C316 1.252 . S
In325 O326 2.294 . S
In325 O327 2.326 . S
In325 O331 2.266 . S
In325 O332 2.326 . S
In325 O333 2.266 . S
In325 O334 2.326 . S
In325 O336 2.294 . S
In325 O337 2.326 . S
O326 In325 2.294 . S
O326 C335 1.240 . S
O327 In325 2.326 . S
O327 C335 1.252 . S
C328 O331 1.252 . S
C328 O332 1.260 . S
C329 O336 1.240 . S
C329 O337 1.252 . S
C330 O333 1.252 . S
C330 O334 1.260 . S
O331 In325 2.266 . S
O331 C328 1.252 . S
O332 In325 2.326 . S
O332 C328 1.260 . S
O333 In325 2.266 . S
O333 C330 1.252 . S
O334 In325 2.326 . S
O334 C330 1.260 . S
C335 O326 1.240 . S
C335 O327 1.252 . S
O336 In325 2.294 . S
O336 C329 1.240 . S
O337 In325 2.326 . S
O337 C329 1.252 . S
In338 O339 2.294 . S
In338 O340 2.326 . S
In338 O344 2.266 . S
In338 O345 2.326 . S
In338 O346 2.266 . S
In338 O347 2.326 . S
In338 O349 2.294 . S
In338 O350 2.326 . S
O339 In338 2.294 . S
O339 C348 1.240 . S
O340 In338 2.326 . S
O340 C348 1.252 . S
C341 O344 1.252 . S
C341 O345 1.260 . S
C342 O349 1.240 . S
C342 O350 1.252 . S
C343 O346 1.252 . S
C343 O347 1.260 . S
O344 In338 2.266 . S
O344 C341 1.252 . S
O345 In338 2.326 . S
O345 C341 1.260 . S
O346 In338 2.266 . S
O346 C343 1.252 . S
O347 In338 2.326 . S
O347 C343 1.260 . S
C348 O339 1.240 . S
C348 O340 1.252 . S
O349 In338 2.294 . S
O349 C342 1.240 . S
O350 In338 2.326 . S
O350 C342 1.252 . S
In351 O352 2.294 . S
In351 O353 2.326 . S
In351 O357 2.266 . S
In351 O358 2.326 . S
In351 O359 2.266 . S
In351 O360 2.326 . S
In351 O362 2.294 . S
In351 O363 2.326 . S
O352 In351 2.294 . S
O352 C361 1.240 . S
O353 In351 2.326 . S
O353 C361 1.252 . S
C354 O357 1.252 . S
C354 O358 1.260 . S
C355 O362 1.240 . S
C355 O363 1.252 . S
C356 O359 1.252 . S
C356 O360 1.260 . S
O357 In351 2.266 . S
O357 C354 1.252 . S
O358 In351 2.326 . S
O358 C354 1.260 . S
O359 In351 2.266 . S
O359 C356 1.252 . S
O360 In351 2.326 . S
O360 C356 1.260 . S
C361 O352 1.240 . S
C361 O353 1.252 . S
O362 In351 2.294 . S
O362 C355 1.240 . S
O363 In351 2.326 . S
O363 C355 1.252 . S
In364 O365 2.294 . S
In364 O366 2.326 . S
In364 O370 2.266 . S
In364 O371 2.326 . S
In364 O372 2.266 . S
In364 O373 2.326 . S
In364 O375 2.294 . S
In364 O376 2.326 . S
O365 In364 2.294 . S
O365 C374 1.240 . S
O366 In364 2.326 . S
O366 C374 1.252 . S
C367 O370 1.252 . S
C367 O371 1.260 . S
C368 O375 1.240 . S
C368 O376 1.252 . S
C369 O372 1.252 . S
C369 O373 1.260 . S
O370 In364 2.266 . S
O370 C367 1.252 . S
O371 In364 2.326 . S
O371 C367 1.260 . S
O372 In364 2.266 . S
O372 C369 1.252 . S
O373 In364 2.326 . S
O373 C369 1.260 . S
C374 O365 1.240 . S
C374 O366 1.252 . S
O375 In364 2.294 . S
O375 C368 1.240 . S
O376 In364 2.326 . S
O376 C368 1.252 . S
In377 O378 2.294 . S
In377 O379 2.326 . S
In377 O383 2.266 . S
In377 O384 2.326 . S
In377 O385 2.266 . S
In377 O386 2.326 . S
In377 O388 2.294 . S
In377 O389 2.326 . S
O378 In377 2.294 . S
O378 C387 1.240 . S
O379 In377 2.326 . S
O379 C387 1.252 . S
C380 O383 1.252 . S
C380 O384 1.260 . S
C381 O388 1.240 . S
C381 O389 1.252 . S
C382 O385 1.252 . S
C382 O386 1.260 . S
O383 In377 2.266 . S
O383 C380 1.252 . S
O384 In377 2.326 . S
O384 C380 1.260 . S
O385 In377 2.266 . S
O385 C382 1.252 . S
O386 In377 2.326 . S
O386 C382 1.260 . S
C387 O378 1.240 . S
C387 O379 1.252 . S
O388 In377 2.294 . S
O388 C381 1.240 . S
O389 In377 2.326 . S
O389 C381 1.252 . S
In390 O391 2.294 . S
In390 O392 2.326 . S
In390 O396 2.266 . S
In390 O397 2.326 . S
In390 O398 2.266 . S
In390 O399 2.326 . S
In390 O401 2.294 . S
In390 O402 2.326 . S
O391 In390 2.294 . S
O391 C400 1.240 . S
O392 In390 2.326 . S
O392 C400 1.252 . S
C393 O396 1.252 . S
C393 O397 1.260 . S
C394 O401 1.240 . S
C394 O402 1.252 . S
C395 O398 1.252 . S
C395 O399 1.260 . S
O396 In390 2.266 . S
O396 C393 1.252 . S
O397 In390 2.326 . S
O397 C393 1.260 . S
O398 In390 2.266 . S
O398 C395 1.252 . S
O399 In390 2.326 . S
O399 C395 1.260 . S
C400 O391 1.240 . S
C400 O392 1.252 . S
O401 In390 2.294 . S
O401 C394 1.240 . S
O402 In390 2.326 . S
O402 C394 1.252 . S
In403 O404 2.294 . S
In403 O405 2.326 . S
In403 O409 2.266 . S
In403 O410 2.326 . S
In403 O411 2.266 . S
In403 O412 2.326 . S
In403 O414 2.294 . S
In403 O415 2.326 . S
O404 In403 2.294 . S
O404 C413 1.240 . S
O405 In403 2.326 . S
O405 C413 1.252 . S
C406 O409 1.252 . S
C406 O410 1.260 . S
C407 O414 1.240 . S
C407 O415 1.252 . S
C408 O411 1.252 . S
C408 O412 1.260 . S
O409 In403 2.266 . S
O409 C406 1.252 . S
O410 In403 2.326 . S
O410 C406 1.260 . S
O411 In403 2.266 . S
O411 C408 1.252 . S
O412 In403 2.326 . S
O412 C408 1.260 . S
C413 O404 1.240 . S
C413 O405 1.252 . S
O414 In403 2.294 . S
O414 C407 1.240 . S
O415 In403 2.326 . S
O415 C407 1.252 . S
C416 C417 1.349 . S
C416 C418 1.327 . S
C416 H441 0.950 . S
C417 C416 1.349 . S
C417 C433 1.349 . S
C418 C416 1.327 . S
C418 C437 1.429 . S
C418 H442 0.950 . S
C419 C436 1.574 . S
C419 C438 1.368 . S
C419 H443 0.949 . S
H420 C424 0.949 . S
C421 C422 1.349 . S
C421 C423 1.327 . S
C421 H444 0.950 . S
C422 C421 1.349 . S
C422 C434 1.349 . S
C423 C421 1.327 . S
C423 C439 1.429 . S
C423 H445 0.950 . S
C424 H420 0.949 . S
C424 C432 1.574 . S
C424 C440 1.368 . S
H425 C433 0.950 . S
H426 C431 0.950 . S
H427 C432 0.949 . S
H428 C434 0.950 . S
H429 C435 0.950 . S
H430 C436 0.949 . S
C431 H426 0.950 . S
C431 C433 1.327 . S
C431 C437 1.429 . S
C432 C424 1.574 . S
C432 H427 0.949 . S
C432 C438 1.368 . S
C433 C417 1.349 . S
C433 H425 0.950 . S
C433 C431 1.327 . S
C434 C422 1.349 . S
C434 H428 0.950 . S
C434 C435 1.327 . S
C435 H429 0.950 . S
C435 C434 1.327 . S
C435 C439 1.429 . S
C436 C419 1.574 . S
C436 H430 0.949 . S
C436 C440 1.368 . S
C437 C418 1.429 . S
C437 C431 1.429 . S
C437 C438 1.523 . S
C438 C419 1.368 . S
C438 C432 1.368 . S
C438 C437 1.523 . S
C439 C423 1.429 . S
C439 C435 1.429 . S
C439 C440 1.523 . S
C440 C424 1.368 . S
C440 C436 1.368 . S
C440 C439 1.523 . S
H441 C416 0.950 . S
H442 C418 0.950 . S
H443 C419 0.949 . S
H444 C421 0.950 . S
H445 C423 0.950 . S
C446 C447 1.349 . S
C446 C448 1.327 . S
C446 H471 0.950 . S
C447 C446 1.349 . S
C447 C463 1.349 . S
C448 C446 1.327 . S
C448 C467 1.429 . S
C448 H472 0.950 . S
C449 C466 1.574 1_565 S
C449 C468 1.368 . S
C449 H473 0.949 . S
H450 C454 0.949 . S
C451 C452 1.349 . S
C451 C453 1.327 . S
C451 H474 0.950 . S
C452 C451 1.349 . S
C452 C464 1.349 . S
C453 C451 1.327 . S
C453 C469 1.429 . S
C453 H475 0.950 . S
C454 H450 0.949 . S
C454 C462 1.574 1_545 S
C454 C470 1.368 . S
H455 C463 0.950 . S
H456 C461 0.950 . S
H457 C462 0.949 . S
H458 C464 0.950 . S
H459 C465 0.950 . S
H460 C466 0.949 . S
C461 H456 0.950 . S
C461 C463 1.327 . S
C461 C467 1.429 . S
C462 C454 1.574 1_565 S
C462 H457 0.949 . S
C462 C468 1.368 . S
C463 C447 1.349 . S
C463 H455 0.950 . S
C463 C461 1.327 . S
C464 C452 1.349 . S
C464 H458 0.950 . S
C464 C465 1.327 . S
C465 H459 0.950 . S
C465 C464 1.327 . S
C465 C469 1.429 . S
C466 C449 1.574 1_545 S
C466 H460 0.949 . S
C466 C470 1.368 . S
C467 C448 1.429 . S
C467 C461 1.429 . S
C467 C468 1.523 . S
C468 C449 1.368 . S
C468 C462 1.368 . S
C468 C467 1.523 . S
C469 C453 1.429 . S
C469 C465 1.429 . S
C469 C470 1.523 . S
C470 C454 1.368 . S
C470 C466 1.368 . S
C470 C469 1.523 . S
H471 C446 0.950 . S
H472 C448 0.950 . S
H473 C449 0.949 . S
H474 C451 0.950 . S
H475 C453 0.950 . S
C476 C477 1.349 . S
C476 C478 1.327 . S
C476 H501 0.950 . S
C477 C476 1.349 . S
C477 C493 1.349 . S
C478 C476 1.327 . S
C478 C497 1.429 . S
C478 H502 0.950 . S
C479 C496 1.557 1_554 S
C479 C498 1.384 . S
C479 H503 0.950 . S
H480 C484 0.950 . S
C481 C482 1.349 . S
C481 C483 1.327 . S
C481 H504 0.950 . S
C482 C481 1.349 . S
C482 C494 1.349 . S
C483 C481 1.327 . S
C483 C499 1.429 . S
C483 H505 0.950 . S
C484 H480 0.950 . S
C484 C492 1.558 1_556 S
C484 C500 1.383 . S
H485 C493 0.950 . S
H486 C491 0.950 . S
H487 C492 0.949 . S
H488 C494 0.950 . S
H489 C495 0.950 . S
H490 C496 0.949 . S
C491 H486 0.950 . S
C491 C493 1.327 . S
C491 C497 1.429 . S
C492 C484 1.558 1_554 S
C492 H487 0.949 . S
C492 C498 1.368 . S
C493 C477 1.349 . S
C493 H485 0.950 . S
C493 C491 1.327 . S
C494 C482 1.349 . S
C494 H488 0.950 . S
C494 C495 1.327 . S
C495 H489 0.950 . S
C495 C494 1.327 . S
C495 C499 1.429 . S
C496 C479 1.557 1_556 S
C496 H490 0.949 . S
C496 C500 1.368 . S
C497 C478 1.429 . S
C497 C491 1.429 . S
C497 C498 1.523 . S
C498 C479 1.384 . S
C498 C492 1.368 . S
C498 C497 1.523 . S
C499 C483 1.429 . S
C499 C495 1.429 . S
C499 C500 1.523 . S
C500 C484 1.383 . S
C500 C496 1.368 . S
C500 C499 1.523 . S
H501 C476 0.950 . S
H502 C478 0.950 . S
H503 C479 0.950 . S
H504 C481 0.950 . S
H505 C483 0.950 . S
C506 C507 1.349 . S
C506 C508 1.327 . S
C506 H531 0.950 . S
C507 C506 1.349 . S
C507 C523 1.349 . S
C508 C506 1.327 . S
C508 C527 1.429 . S
C508 H532 0.950 . S
C509 C526 1.574 1_545 S
C509 C528 1.368 . S
C509 H533 0.949 . S
H510 C514 0.949 . S
C511 C512 1.349 . S
C511 C513 1.327 . S
C511 H534 0.950 . S
C512 C511 1.349 . S
C512 C524 1.349 . S
C513 C511 1.327 . S
C513 C529 1.429 . S
C513 H535 0.950 . S
C514 H510 0.949 . S
C514 C522 1.574 1_565 S
C514 C530 1.368 . S
H515 C523 0.950 . S
H516 C521 0.950 . S
H517 C522 0.949 . S
H518 C524 0.950 . S
H519 C525 0.950 . S
H520 C526 0.949 . S
C521 H516 0.950 . S
C521 C523 1.327 . S
C521 C527 1.429 . S
C522 C514 1.574 1_545 S
C522 H517 0.949 . S
C522 C528 1.368 . S
C523 C507 1.349 . S
C523 H515 0.950 . S
C523 C521 1.327 . S
C524 C512 1.349 . S
C524 H518 0.950 . S
C524 C525 1.327 . S
C525 H519 0.950 . S
C525 C524 1.327 . S
C525 C529 1.429 . S
C526 C509 1.574 1_565 S
C526 H520 0.949 . S
C526 C530 1.368 . S
C527 C508 1.429 . S
C527 C521 1.429 . S
C527 C528 1.523 . S
C528 C509 1.368 . S
C528 C522 1.368 . S
C528 C527 1.523 . S
C529 C513 1.429 . S
C529 C525 1.429 . S
C529 C530 1.523 . S
C530 C514 1.368 . S
C530 C526 1.368 . S
C530 C529 1.523 . S
H531 C506 0.950 . S
H532 C508 0.950 . S
H533 C509 0.949 . S
H534 C511 0.950 . S
H535 C513 0.950 . S
C536 C537 1.349 . S
C536 C538 1.327 . S
C536 H561 0.950 . S
C537 C536 1.349 . S
C537 C553 1.349 . S
C538 C536 1.327 . S
C538 C557 1.429 . S
C538 H562 0.950 . S
C539 C556 1.574 . S
C539 C558 1.368 . S
C539 H563 0.949 . S
H540 C544 0.949 . S
C541 C542 1.349 . S
C541 C543 1.327 . S
C541 H564 0.950 . S
C542 C541 1.349 . S
C542 C554 1.349 . S
C543 C541 1.327 . S
C543 C559 1.429 . S
C543 H565 0.950 . S
C544 H540 0.949 . S
C544 C552 1.574 . S
C544 C560 1.368 . S
H545 C553 0.950 . S
H546 C551 0.950 . S
H547 C552 0.949 . S
H548 C554 0.950 . S
H549 C555 0.950 . S
H550 C556 0.949 . S
C551 H546 0.950 . S
C551 C553 1.327 . S
C551 C557 1.429 . S
C552 C544 1.574 . S
C552 H547 0.949 . S
C552 C558 1.368 . S
C553 C537 1.349 . S
C553 H545 0.950 . S
C553 C551 1.327 . S
C554 C542 1.349 . S
C554 H548 0.950 . S
C554 C555 1.327 . S
C555 H549 0.950 . S
C555 C554 1.327 . S
C555 C559 1.429 . S
C556 C539 1.574 . S
C556 H550 0.949 . S
C556 C560 1.368 . S
C557 C538 1.429 . S
C557 C551 1.429 . S
C557 C558 1.523 . S
C558 C539 1.368 . S
C558 C552 1.368 . S
C558 C557 1.523 . S
C559 C543 1.429 . S
C559 C555 1.429 . S
C559 C560 1.523 . S
C560 C544 1.368 . S
C560 C556 1.368 . S
C560 C559 1.523 . S
H561 C536 0.950 . S
H562 C538 0.950 . S
H563 C539 0.949 . S
H564 C541 0.950 . S
H565 C543 0.950 . S
C566 C567 1.349 . S
C566 C568 1.327 . S
C566 H591 0.950 . S
C567 C566 1.349 . S
C567 C583 1.349 . S
C568 C566 1.327 . S
C568 C587 1.429 . S
C568 H592 0.950 . S
C569 C586 1.574 1_545 S
C569 C588 1.368 . S
C569 H593 0.949 . S
H570 C574 0.949 . S
C571 C572 1.349 . S
C571 C573 1.327 . S
C571 H594 0.950 . S
C572 C571 1.349 . S
C572 C584 1.349 . S
C573 C571 1.327 . S
C573 C589 1.429 . S
C573 H595 0.950 . S
C574 H570 0.949 . S
C574 C582 1.574 1_565 S
C574 C590 1.368 . S
H575 C583 0.950 . S
H576 C581 0.950 . S
H577 C582 0.949 . S
H578 C584 0.950 . S
H579 C585 0.950 . S
H580 C586 0.949 . S
C581 H576 0.950 . S
C581 C583 1.327 . S
C581 C587 1.429 . S
C582 C574 1.574 1_545 S
C582 H577 0.949 . S
C582 C588 1.368 . S
C583 C567 1.349 . S
C583 H575 0.950 . S
C583 C581 1.327 . S
C584 C572 1.349 . S
C584 H578 0.950 . S
C584 C585 1.327 . S
C585 H579 0.950 . S
C585 C584 1.327 . S
C585 C589 1.429 . S
C586 C569 1.574 1_565 S
C586 H580 0.949 . S
C586 C590 1.368 . S
C587 C568 1.429 . S
C587 C581 1.429 . S
C587 C588 1.523 . S
C588 C569 1.368 . S
C588 C582 1.368 . S
C588 C587 1.523 . S
C589 C573 1.429 . S
C589 C585 1.429 . S
C589 C590 1.523 . S
C590 C574 1.368 . S
C590 C586 1.368 . S
C590 C589 1.523 . S
H591 C566 0.950 . S
H592 C568 0.950 . S
H593 C569 0.949 . S
H594 C571 0.950 . S
H595 C573 0.950 . S
C596 C597 1.349 . S
C596 C598 1.327 . S
C596 H621 0.950 . S
C597 C596 1.349 . S
C597 C613 1.349 . S
C598 C596 1.327 . S
C598 C617 1.429 . S
C598 H622 0.950 . S
C599 C616 1.557 1_556 S
C599 C618 1.384 . S
C599 H623 0.950 . S
H600 C604 0.950 . S
C601 C602 1.349 . S
C601 C603 1.327 . S
C601 H624 0.950 . S
C602 C601 1.349 . S
C602 C614 1.349 . S
C603 C601 1.327 . S
C603 C619 1.429 . S
C603 H625 0.950 . S
C604 H600 0.950 . S
C604 C612 1.558 1_554 S
C604 C620 1.383 . S
H605 C613 0.950 . S
H606 C611 0.950 . S
H607 C612 0.949 . S
H608 C614 0.950 . S
H609 C615 0.950 . S
H610 C616 0.949 . S
C611 H606 0.950 . S
C611 C613 1.327 . S
C611 C617 1.429 . S
C612 C604 1.558 1_556 S
C612 H607 0.949 . S
C612 C618 1.368 . S
C613 C597 1.349 . S
C613 H605 0.950 . S
C613 C611 1.327 . S
C614 C602 1.349 . S
C614 H608 0.950 . S
C614 C615 1.327 . S
C615 H609 0.950 . S
C615 C614 1.327 . S
C615 C619 1.429 . S
C616 C599 1.557 1_554 S
C616 H610 0.949 . S
C616 C620 1.368 . S
C617 C598 1.429 . S
C617 C611 1.429 . S
C617 C618 1.523 . S
C618 C599 1.384 . S
C618 C612 1.368 . S
C618 C617 1.523 . S
C619 C603 1.429 . S
C619 C615 1.429 . S
C619 C620 1.523 . S
C620 C604 1.383 . S
C620 C616 1.368 . S
C620 C619 1.523 . S
H621 C596 0.950 . S
H622 C598 0.950 . S
H623 C599 0.950 . S
H624 C601 0.950 . S
H625 C603 0.950 . S
C626 C627 1.349 . S
C626 C628 1.327 . S
C626 H651 0.950 . S
C627 C626 1.349 . S
C627 C643 1.349 . S
C628 C626 1.327 . S
C628 C647 1.429 . S
C628 H652 0.950 . S
C629 C646 1.574 1_565 S
C629 C648 1.368 . S
C629 H653 0.949 . S
H630 C634 0.949 . S
C631 C632 1.349 . S
C631 C633 1.327 . S
C631 H654 0.950 . S
C632 C631 1.349 . S
C632 C644 1.349 . S
C633 C631 1.327 . S
C633 C649 1.429 . S
C633 H655 0.950 . S
C634 H630 0.949 . S
C634 C642 1.574 1_545 S
C634 C650 1.368 . S
H635 C643 0.950 . S
H636 C641 0.950 . S
H637 C642 0.949 . S
H638 C644 0.950 . S
H639 C645 0.950 . S
H640 C646 0.949 . S
C641 H636 0.950 . S
C641 C643 1.327 . S
C641 C647 1.429 . S
C642 C634 1.574 1_565 S
C642 H637 0.949 . S
C642 C648 1.368 . S
C643 C627 1.349 . S
C643 H635 0.950 . S
C643 C641 1.327 . S
C644 C632 1.349 . S
C644 H638 0.950 . S
C644 C645 1.327 . S
C645 H639 0.950 . S
C645 C644 1.327 . S
C645 C649 1.429 . S
C646 C629 1.574 1_545 S
C646 H640 0.949 . S
C646 C650 1.368 . S
C647 C628 1.429 . S
C647 C641 1.429 . S
C647 C648 1.523 . S
C648 C629 1.368 . S
C648 C642 1.368 . S
C648 C647 1.523 . S
C649 C633 1.429 . S
C649 C645 1.429 . S
C649 C650 1.523 . S
C650 C634 1.368 . S
C650 C646 1.368 . S
C650 C649 1.523 . S
H651 C626 0.950 . S
H652 C628 0.950 . S
H653 C629 0.949 . S
H654 C631 0.950 . S
H655 C633 0.950 . S
C656 C657 1.349 . S
C656 C658 1.327 . S
C656 H681 0.950 . S
C657 C656 1.349 . S
C657 C673 1.349 . S
C658 C656 1.327 . S
C658 C677 1.429 . S
C658 H682 0.950 . S
C659 C676 1.557 1_556 S
C659 C678 1.368 . S
C659 H683 0.949 . S
H660 C664 0.949 . S
C661 C662 1.349 . S
C661 C663 1.327 . S
C661 H684 0.950 . S
C662 C661 1.349 . S
C662 C674 1.349 . S
C663 C661 1.327 . S
C663 C679 1.429 . S
C663 H685 0.950 . S
C664 H660 0.949 . S
C664 C672 1.556 1_554 S
C664 C680 1.368 . S
H665 C673 0.950 . S
H666 C671 0.950 . S
H667 C672 0.950 . S
H668 C674 0.950 . S
H669 C675 0.950 . S
H670 C676 0.950 . S
C671 H666 0.950 . S
C671 C673 1.327 . S
C671 C677 1.429 . S
C672 C664 1.556 1_556 S
C672 H667 0.950 . S
C672 C678 1.385 . S
C673 C657 1.349 . S
C673 H665 0.950 . S
C673 C671 1.327 . S
C674 C662 1.349 . S
C674 H668 0.950 . S
C674 C675 1.327 . S
C675 H669 0.950 . S
C675 C674 1.327 . S
C675 C679 1.429 . S
C676 C659 1.557 1_554 S
C676 H670 0.950 . S
C676 C680 1.384 . S
C677 C658 1.429 . S
C677 C671 1.429 . S
C677 C678 1.523 . S
C678 C659 1.368 . S
C678 C672 1.385 . S
C678 C677 1.523 . S
C679 C663 1.429 . S
C679 C675 1.429 . S
C679 C680 1.523 . S
C680 C664 1.368 . S
C680 C676 1.384 . S
C680 C679 1.523 . S
H681 C656 0.950 . S
H682 C658 0.950 . S
H683 C659 0.949 . S
H684 C661 0.950 . S
H685 C663 0.950 . S
C686 C687 1.349 . S
C686 C688 1.327 . S
C686 H711 0.950 . S
C687 C686 1.349 . S
C687 C703 1.349 . S
C688 C686 1.327 . S
C688 C707 1.429 . S
C688 H712 0.950 . S
C689 C706 1.574 . S
C689 C708 1.368 . S
C689 H713 0.949 . S
H690 C694 0.949 . S
C691 C692 1.349 . S
C691 C693 1.327 . S
C691 H714 0.950 . S
C692 C691 1.349 . S
C692 C704 1.349 . S
C693 C691 1.327 . S
C693 C709 1.429 . S
C693 H715 0.950 . S
C694 H690 0.949 . S
C694 C702 1.574 . S
C694 C710 1.368 . S
H695 C703 0.950 . S
H696 C701 0.950 . S
H697 C702 0.949 . S
H698 C704 0.950 . S
H699 C705 0.950 . S
H700 C706 0.949 . S
C701 H696 0.950 . S
C701 C703 1.327 . S
C701 C707 1.429 . S
C702 C694 1.574 . S
C702 H697 0.949 . S
C702 C708 1.368 . S
C703 C687 1.349 . S
C703 H695 0.950 . S
C703 C701 1.327 . S
C704 C692 1.349 . S
C704 H698 0.950 . S
C704 C705 1.327 . S
C705 H699 0.950 . S
C705 C704 1.327 . S
C705 C709 1.429 . S
C706 C689 1.574 . S
C706 H700 0.949 . S
C706 C710 1.368 . S
C707 C688 1.429 . S
C707 C701 1.429 . S
C707 C708 1.523 . S
C708 C689 1.368 . S
C708 C702 1.368 . S
C708 C707 1.523 . S
C709 C693 1.429 . S
C709 C705 1.429 . S
C709 C710 1.523 . S
C710 C694 1.368 . S
C710 C706 1.368 . S
C710 C709 1.523 . S
H711 C686 0.950 . S
H712 C688 0.950 . S
H713 C689 0.949 . S
H714 C691 0.950 . S
H715 C693 0.950 . S
C716 C717 1.349 . S
C716 C718 1.327 . S
C716 H741 0.950 . S
C717 C716 1.349 . S
C717 C733 1.349 . S
C718 C716 1.327 . S
C718 C737 1.429 . S
C718 H742 0.950 . S
C719 C736 1.574 . S
C719 C738 1.368 . S
C719 H743 0.949 . S
H720 C724 0.949 . S
C721 C722 1.349 . S
C721 C723 1.327 . S
C721 H744 0.950 . S
C722 C721 1.349 . S
C722 C734 1.349 . S
C723 C721 1.327 . S
C723 C739 1.429 . S
C723 H745 0.950 . S
C724 H720 0.949 . S
C724 C732 1.574 . S
C724 C740 1.368 . S
H725 C733 0.950 . S
H726 C731 0.950 . S
H727 C732 0.949 . S
H728 C734 0.950 . S
H729 C735 0.950 . S
H730 C736 0.949 . S
C731 H726 0.950 . S
C731 C733 1.327 . S
C731 C737 1.429 . S
C732 C724 1.574 . S
C732 H727 0.949 . S
C732 C738 1.368 . S
C733 C717 1.349 . S
C733 H725 0.950 . S
C733 C731 1.327 . S
C734 C722 1.349 . S
C734 H728 0.950 . S
C734 C735 1.327 . S
C735 H729 0.950 . S
C735 C734 1.327 . S
C735 C739 1.429 . S
C736 C719 1.574 . S
C736 H730 0.949 . S
C736 C740 1.368 . S
C737 C718 1.429 . S
C737 C731 1.429 . S
C737 C738 1.523 . S
C738 C719 1.368 . S
C738 C732 1.368 . S
C738 C737 1.523 . S
C739 C723 1.429 . S
C739 C735 1.429 . S
C739 C740 1.523 . S
C740 C724 1.368 . S
C740 C736 1.368 . S
C740 C739 1.523 . S
H741 C716 0.950 . S
H742 C718 0.950 . S
H743 C719 0.949 . S
H744 C721 0.950 . S
H745 C723 0.950 . S
C746 C747 1.349 . S
C746 C748 1.327 . S
C746 H771 0.950 . S
C747 C746 1.349 . S
C747 C763 1.349 . S
C748 C746 1.327 . S
C748 C767 1.429 . S
C748 H772 0.950 . S
C749 C766 1.574 . S
C749 C768 1.368 . S
C749 H773 0.949 . S
H750 C754 0.949 . S
C751 C752 1.349 . S
C751 C753 1.327 . S
C751 H774 0.950 . S
C752 C751 1.349 . S
C752 C764 1.349 . S
C753 C751 1.327 . S
C753 C769 1.429 . S
C753 H775 0.950 . S
C754 H750 0.949 . S
C754 C762 1.574 . S
C754 C770 1.368 . S
H755 C763 0.950 . S
H756 C761 0.950 . S
H757 C762 0.949 . S
H758 C764 0.950 . S
H759 C765 0.950 . S
H760 C766 0.949 . S
C761 H756 0.950 . S
C761 C763 1.327 . S
C761 C767 1.429 . S
C762 C754 1.574 . S
C762 H757 0.949 . S
C762 C768 1.368 . S
C763 C747 1.349 . S
C763 H755 0.950 . S
C763 C761 1.327 . S
C764 C752 1.349 . S
C764 H758 0.950 . S
C764 C765 1.327 . S
C765 H759 0.950 . S
C765 C764 1.327 . S
C765 C769 1.429 . S
C766 C749 1.574 . S
C766 H760 0.949 . S
C766 C770 1.368 . S
C767 C748 1.429 . S
C767 C761 1.429 . S
C767 C768 1.523 . S
C768 C749 1.368 . S
C768 C762 1.368 . S
C768 C767 1.523 . S
C769 C753 1.429 . S
C769 C765 1.429 . S
C769 C770 1.523 . S
C770 C754 1.368 . S
C770 C766 1.368 . S
C770 C769 1.523 . S
H771 C746 0.950 . S
H772 C748 0.950 . S
H773 C749 0.949 . S
H774 C751 0.950 . S
H775 C753 0.950 . S
C776 C777 1.349 . S
C776 C778 1.327 . S
C776 H801 0.950 . S
C777 C776 1.349 . S
C777 C793 1.349 . S
C778 C776 1.327 . S
C778 C797 1.429 . S
C778 H802 0.950 . S
C779 C796 1.556 1_556 S
C779 C798 1.368 . S
C779 H803 0.949 . S
H780 C784 0.949 . S
C781 C782 1.349 . S
C781 C783 1.327 . S
C781 H804 0.950 . S
C782 C781 1.349 . S
C782 C794 1.349 . S
C783 C781 1.327 . S
C783 C799 1.429 . S
C783 H805 0.950 . S
C784 H780 0.949 . S
C784 C792 1.558 1_554 S
C784 C800 1.368 . S
H785 C793 0.950 . S
H786 C791 0.950 . S
H787 C792 0.950 . S
H788 C794 0.950 . S
H789 C795 0.950 . S
H790 C796 0.950 . S
C791 H786 0.950 . S
C791 C793 1.327 . S
C791 C797 1.429 . S
C792 C784 1.558 1_556 S
C792 H787 0.950 . S
C792 C798 1.384 . S
C793 C777 1.349 . S
C793 H785 0.950 . S
C793 C791 1.327 . S
C794 C782 1.349 . S
C794 H788 0.950 . S
C794 C795 1.327 . S
C795 H789 0.950 . S
C795 C794 1.327 . S
C795 C799 1.429 . S
C796 C779 1.556 1_554 S
C796 H790 0.950 . S
C796 C800 1.385 . S
C797 C778 1.429 . S
C797 C791 1.429 . S
C797 C798 1.523 . S
C798 C779 1.368 . S
C798 C792 1.384 . S
C798 C797 1.523 . S
C799 C783 1.429 . S
C799 C795 1.429 . S
C799 C800 1.523 . S
C800 C784 1.368 . S
C800 C796 1.385 . S
C800 C799 1.523 . S
H801 C776 0.950 . S
H802 C778 0.950 . S
H803 C779 0.949 . S
H804 C781 0.950 . S
H805 C783 0.950 . S
C806 C807 1.349 . S
C806 C808 1.327 . S
C806 H831 0.950 . S
C807 C806 1.349 . S
C807 C823 1.349 . S
C808 C806 1.327 . S
C808 C827 1.429 . S
C808 H832 0.950 . S
C809 C826 1.574 . S
C809 C828 1.368 . S
C809 H833 0.949 . S
H810 C814 0.949 . S
C811 C812 1.349 . S
C811 C813 1.327 . S
C811 H834 0.950 . S
C812 C811 1.349 . S
C812 C824 1.349 . S
C813 C811 1.327 . S
C813 C829 1.429 . S
C813 H835 0.950 . S
C814 H810 0.949 . S
C814 C822 1.574 . S
C814 C830 1.368 . S
H815 C823 0.950 . S
H816 C821 0.950 . S
H817 C822 0.949 . S
H818 C824 0.950 . S
H819 C825 0.950 . S
H820 C826 0.949 . S
C821 H816 0.950 . S
C821 C823 1.327 . S
C821 C827 1.429 . S
C822 C814 1.574 . S
C822 H817 0.949 . S
C822 C828 1.368 . S
C823 C807 1.349 . S
C823 H815 0.950 . S
C823 C821 1.327 . S
C824 C812 1.349 . S
C824 H818 0.950 . S
C824 C825 1.327 . S
C825 H819 0.950 . S
C825 C824 1.327 . S
C825 C829 1.429 . S
C826 C809 1.574 . S
C826 H820 0.949 . S
C826 C830 1.368 . S
C827 C808 1.429 . S
C827 C821 1.429 . S
C827 C828 1.523 . S
C828 C809 1.368 . S
C828 C822 1.368 . S
C828 C827 1.523 . S
C829 C813 1.429 . S
C829 C825 1.429 . S
C829 C830 1.523 . S
C830 C814 1.368 . S
C830 C826 1.368 . S
C830 C829 1.523 . S
H831 C806 0.950 . S
H832 C808 0.950 . S
H833 C809 0.949 . S
H834 C811 0.950 . S
H835 C813 0.950 . S
C836 C837 1.349 . S
C836 C838 1.327 . S
C836 H861 0.950 . S
C837 C836 1.349 . S
C837 C853 1.349 . S
C838 C836 1.327 . S
C838 C857 1.429 . S
C838 H862 0.950 . S
C839 C856 1.574 . S
C839 C858 1.368 . S
C839 H863 0.949 . S
H840 C844 0.949 . S
C841 C842 1.349 . S
C841 C843 1.327 . S
C841 H864 0.950 . S
C842 C841 1.349 . S
C842 C854 1.349 . S
C843 C841 1.327 . S
C843 C859 1.429 . S
C843 H865 0.950 . S
C844 H840 0.949 . S
C844 C852 1.574 . S
C844 C860 1.368 . S
H845 C853 0.950 . S
H846 C851 0.950 . S
H847 C852 0.949 . S
H848 C854 0.950 . S
H849 C855 0.950 . S
H850 C856 0.949 . S
C851 H846 0.950 . S
C851 C853 1.327 . S
C851 C857 1.429 . S
C852 C844 1.574 . S
C852 H847 0.949 . S
C852 C858 1.368 . S
C853 C837 1.349 . S
C853 H845 0.950 . S
C853 C851 1.327 . S
C854 C842 1.349 . S
C854 H848 0.950 . S
C854 C855 1.327 . S
C855 H849 0.950 . S
C855 C854 1.327 . S
C855 C859 1.429 . S
C856 C839 1.574 . S
C856 H850 0.949 . S
C856 C860 1.368 . S
C857 C838 1.429 . S
C857 C851 1.429 . S
C857 C858 1.523 . S
C858 C839 1.368 . S
C858 C852 1.368 . S
C858 C857 1.523 . S
C859 C843 1.429 . S
C859 C855 1.429 . S
C859 C860 1.523 . S
C860 C844 1.368 . S
C860 C856 1.368 . S
C860 C859 1.523 . S
H861 C836 0.950 . S
H862 C838 0.950 . S
H863 C839 0.949 . S
H864 C841 0.950 . S
H865 C843 0.950 . S
C866 C867 1.349 . S
C866 C868 1.327 . S
C866 H891 0.950 . S
C867 C866 1.349 . S
C867 C883 1.349 . S
C868 C866 1.327 . S
C868 C887 1.429 . S
C868 H892 0.950 . S
C869 C886 1.574 . S
C869 C888 1.368 . S
C869 H893 0.949 . S
H870 C874 0.949 . S
C871 C872 1.349 . S
C871 C873 1.327 . S
C871 H894 0.950 . S
C872 C871 1.349 . S
C872 C884 1.349 . S
C873 C871 1.327 . S
C873 C889 1.429 . S
C873 H895 0.950 . S
C874 H870 0.949 . S
C874 C882 1.574 . S
C874 C890 1.368 . S
H875 C883 0.950 . S
H876 C881 0.950 . S
H877 C882 0.949 . S
H878 C884 0.950 . S
H879 C885 0.950 . S
H880 C886 0.949 . S
C881 H876 0.950 . S
C881 C883 1.327 . S
C881 C887 1.429 . S
C882 C874 1.574 . S
C882 H877 0.949 . S
C882 C888 1.368 . S
C883 C867 1.349 . S
C883 H875 0.950 . S
C883 C881 1.327 . S
C884 C872 1.349 . S
C884 H878 0.950 . S
C884 C885 1.327 . S
C885 H879 0.950 . S
C885 C884 1.327 . S
C885 C889 1.429 . S
C886 C869 1.574 . S
C886 H880 0.949 . S
C886 C890 1.368 . S
C887 C868 1.429 . S
C887 C881 1.429 . S
C887 C888 1.523 . S
C888 C869 1.368 . S
C888 C882 1.368 . S
C888 C887 1.523 . S
C889 C873 1.429 . S
C889 C885 1.429 . S
C889 C890 1.523 . S
C890 C874 1.368 . S
C890 C886 1.368 . S
C890 C889 1.523 . S
H891 C866 0.950 . S
H892 C868 0.950 . S
H893 C869 0.949 . S
H894 C871 0.950 . S
H895 C873 0.950 . S
C896 C897 1.349 . S
C896 C898 1.327 . S
C896 H921 0.950 . S
C897 C896 1.349 . S
C897 C913 1.349 . S
C898 C896 1.327 . S
C898 C917 1.450 . S
C898 H922 0.950 . S
C899 C916 1.574 . S
C899 C918 1.368 . S
C899 H923 0.949 . S
H900 C904 0.949 . S
C901 C902 1.349 . S
C901 C903 1.327 . S
C901 H924 0.950 . S
C902 C901 1.349 . S
C902 C914 1.349 . S
C903 C901 1.327 . S
C903 C919 1.429 . S
C903 H925 0.950 . S
C904 H900 0.949 . S
C904 C912 1.574 . S
C904 C920 1.368 . S
H905 C913 0.950 . S
H906 C911 0.950 . S
H907 C912 0.949 1_556 S
H908 C914 0.950 . S
H909 C915 0.950 . S
H910 C916 0.949 . S
C911 H906 0.950 . S
C911 C913 1.327 1_554 S
C911 C917 1.423 1_554 S
C912 C904 1.574 . S
C912 H907 0.949 1_554 S
C912 C918 1.368 . S
C913 C897 1.349 . S
C913 H905 0.950 . S
C913 C911 1.327 1_556 S
C914 C902 1.349 . S
C914 H908 0.950 . S
C914 C915 1.327 . S
C915 H909 0.950 . S
C915 C914 1.327 . S
C915 C919 1.429 . S
C916 C899 1.574 . S
C916 H910 0.949 . S
C916 C920 1.368 . S
C917 C898 1.450 . S
C917 C911 1.423 1_556 S
C917 C918 1.508 1_556 S
C918 C899 1.368 . S
C918 C912 1.368 . S
C918 C917 1.508 1_554 S
C919 C903 1.429 . S
C919 C915 1.429 . S
C919 C920 1.523 . S
C920 C904 1.368 . S
C920 C916 1.368 . S
C920 C919 1.523 . S
H921 C896 0.950 . S
H922 C898 0.950 . S
H923 C899 0.949 . S
H924 C901 0.950 . S
H925 C903 0.950 . S
C926 C927 1.349 . S
C926 C928 1.327 . S
C926 H951 0.950 . S
C927 C926 1.349 . S
C927 C943 1.349 . S
C928 C926 1.327 . S
C928 C947 1.429 . S
C928 H952 0.950 . S
C929 C946 1.574 . S
C929 C948 1.368 . S
C929 H953 0.949 . S
H930 C934 0.949 . S
C931 C932 1.349 . S
C931 C933 1.327 . S
C931 H954 0.950 . S
C932 C931 1.349 . S
C932 C944 1.349 . S
C933 C931 1.327 . S
C933 C949 1.429 . S
C933 H955 0.950 . S
C934 H930 0.949 . S
C934 C942 1.574 . S
C934 C950 1.368 . S
H935 C943 0.950 . S
H936 C941 0.950 . S
H937 C942 0.949 . S
H938 C944 0.950 . S
H939 C945 0.950 . S
H940 C946 0.949 . S
C941 H936 0.950 . S
C941 C943 1.327 . S
C941 C947 1.429 . S
C942 C934 1.574 . S
C942 H937 0.949 . S
C942 C948 1.368 . S
C943 C927 1.349 . S
C943 H935 0.950 . S
C943 C941 1.327 . S
C944 C932 1.349 . S
C944 H938 0.950 . S
C944 C945 1.327 . S
C945 H939 0.950 . S
C945 C944 1.327 . S
C945 C949 1.429 . S
C946 C929 1.574 . S
C946 H940 0.949 . S
C946 C950 1.368 . S
C947 C928 1.429 . S
C947 C941 1.429 . S
C947 C948 1.523 . S
C948 C929 1.368 . S
C948 C942 1.368 . S
C948 C947 1.523 . S
C949 C933 1.429 . S
C949 C945 1.429 . S
C949 C950 1.523 . S
C950 C934 1.368 . S
C950 C946 1.368 . S
C950 C949 1.523 . S
H951 C926 0.950 . S
H952 C928 0.950 . S
H953 C929 0.949 . S
H954 C931 0.950 . S
H955 C933 0.950 . S
C956 C957 1.349 . S
C956 C958 1.327 . S
C956 H981 0.950 . S
C957 C956 1.349 . S
C957 C973 1.349 . S
C958 C956 1.327 . S
C958 C977 1.429 . S
C958 H982 0.950 . S
C959 C976 1.574 . S
C959 C978 1.368 . S
C959 H983 0.949 . S
H960 C964 0.949 . S
C961 C962 1.349 . S
C961 C963 1.327 . S
C961 H984 0.950 . S
C962 C961 1.349 . S
C962 C974 1.349 . S
C963 C961 1.327 . S
C963 C979 1.429 . S
C963 H985 0.950 . S
C964 H960 0.949 . S
C964 C972 1.574 . S
C964 C980 1.368 . S
H965 C973 0.950 . S
H966 C971 0.950 . S
H967 C972 0.949 . S
H968 C974 0.950 . S
H969 C975 0.950 . S
H970 C976 0.949 . S
C971 H966 0.950 . S
C971 C973 1.327 . S
C971 C977 1.429 . S
C972 C964 1.574 . S
C972 H967 0.949 . S
C972 C978 1.368 . S
C973 C957 1.349 . S
C973 H965 0.950 . S
C973 C971 1.327 . S
C974 C962 1.349 . S
C974 H968 0.950 . S
C974 C975 1.327 . S
C975 H969 0.950 . S
C975 C974 1.327 . S
C975 C979 1.429 . S
C976 C959 1.574 . S
C976 H970 0.949 . S
C976 C980 1.368 . S
C977 C958 1.429 . S
C977 C971 1.429 . S
C977 C978 1.523 . S
C978 C959 1.368 . S
C978 C972 1.368 . S
C978 C977 1.523 . S
C979 C963 1.429 . S
C979 C975 1.429 . S
C979 C980 1.523 . S
C980 C964 1.368 . S
C980 C976 1.368 . S
C980 C979 1.523 . S
H981 C956 0.950 . S
H982 C958 0.950 . S
H983 C959 0.949 . S
H984 C961 0.950 . S
H985 C963 0.950 . S
C986 C987 1.349 . S
C986 C988 1.327 . S
C986 H1011 0.950 . S
C987 C986 1.349 . S
C987 C1003 1.349 . S
C988 C986 1.327 . S
C988 C1007 1.429 . S
C988 H1012 0.950 . S
C989 C1006 1.574 . S
C989 C1008 1.368 . S
C989 H1013 0.949 . S
H990 C994 0.949 . S
C991 C992 1.349 . S
C991 C993 1.327 . S
C991 H1014 0.950 . S
C992 C991 1.349 . S
C992 C1004 1.349 . S
C993 C991 1.327 . S
C993 C1009 1.438 . S
C993 H1015 0.950 . S
C994 H990 0.949 . S
C994 C1002 1.574 . S
C994 C1010 1.368 . S
H995 C1003 0.950 . S
H996 C1001 0.950 . S
H997 C1002 0.949 . S
H998 C1004 0.950 . S
H999 C1005 0.950 . S
H1000 C1006 0.949 . S
C1001 H996 0.950 . S
C1001 C1003 1.327 . S
C1001 C1007 1.429 . S
C1002 C994 1.574 . S
C1002 H997 0.949 . S
C1002 C1008 1.368 . S
C1003 C987 1.349 . S
C1003 H995 0.950 . S
C1003 C1001 1.327 . S
C1004 C992 1.349 . S
C1004 H998 0.950 . S
C1004 C1005 1.327 . S
C1005 H999 0.950 . S
C1005 C1004 1.327 . S
C1005 C1009 1.436 . S
C1006 C989 1.574 . S
C1006 H1000 0.949 . S
C1006 C1010 1.368 . S
C1007 C988 1.429 . S
C1007 C1001 1.429 . S
C1007 C1008 1.523 . S
C1008 C989 1.368 . S
C1008 C1002 1.368 . S
C1008 C1007 1.523 . S
C1009 C993 1.438 . S
C1009 C1005 1.436 . S
C1009 C1010 1.507 1_554 S
C1010 C994 1.368 . S
C1010 C1006 1.368 . S
C1010 C1009 1.507 1_556 S
H1011 C986 0.950 . S
H1012 C988 0.950 . S
H1013 C989 0.949 . S
H1014 C991 0.950 . S
H1015 C993 0.950 . S
C1016 C1017 1.349 . S
C1016 C1018 1.327 1_554 S
C1016 H1041 0.950 . S
C1017 C1016 1.349 . S
C1017 C1033 1.349 . S
C1018 C1016 1.327 1_556 S
C1018 C1037 1.421 1_556 S
C1018 H1042 0.950 . S
C1019 C1036 1.574 . S
C1019 C1038 1.368 . S
C1019 H1043 0.949 1_556 S
H1020 C1024 0.949 . S
C1021 C1022 1.349 . S
C1021 C1023 1.327 . S
C1021 H1044 0.950 . S
C1022 C1021 1.349 . S
C1022 C1034 1.349 . S
C1023 C1021 1.327 . S
C1023 C1039 1.429 . S
C1023 H1045 0.950 . S
C1024 H1020 0.949 . S
C1024 C1032 1.574 . S
C1024 C1040 1.368 . S
H1025 C1033 0.950 . S
H1026 C1031 0.950 . S
H1027 C1032 0.949 . S
H1028 C1034 0.950 . S
H1029 C1035 0.950 . S
H1030 C1036 0.949 . S
C1031 H1026 0.950 . S
C1031 C1033 1.327 . S
C1031 C1037 1.453 . S
C1032 C1024 1.574 . S
C1032 H1027 0.949 . S
C1032 C1038 1.368 . S
C1033 C1017 1.349 . S
C1033 H1025 0.950 . S
C1033 C1031 1.327 . S
C1034 C1022 1.349 . S
C1034 H1028 0.950 . S
C1034 C1035 1.327 . S
C1035 H1029 0.950 . S
C1035 C1034 1.327 . S
C1035 C1039 1.429 . S
C1036 C1019 1.574 . S
C1036 H1030 0.949 . S
C1036 C1040 1.368 . S
C1037 C1018 1.421 1_554 S
C1037 C1031 1.453 . S
C1037 C1038 1.508 1_554 S
C1038 C1019 1.368 . S
C1038 C1032 1.368 . S
C1038 C1037 1.508 1_556 S
C1039 C1023 1.429 . S
C1039 C1035 1.429 . S
C1039 C1040 1.523 . S
C1040 C1024 1.368 . S
C1040 C1036 1.368 . S
C1040 C1039 1.523 . S
H1041 C1016 0.950 . S
H1042 C1018 0.950 . S
H1043 C1019 0.949 1_554 S
H1044 C1021 0.950 . S
H1045 C1023 0.950 . S
C1046 C1047 1.349 . S
C1046 C1048 1.327 . S
C1046 H1071 0.950 . S
C1047 C1046 1.349 . S
C1047 C1063 1.349 . S
C1048 C1046 1.327 . S
C1048 C1067 1.429 . S
C1048 H1072 0.950 . S
C1049 C1066 1.574 . S
C1049 C1068 1.368 . S
C1049 H1073 0.949 . S
H1050 C1054 0.949 . S
C1051 C1052 1.349 . S
C1051 C1053 1.327 . S
C1051 H1074 0.950 . S
C1052 C1051 1.349 . S
C1052 C1064 1.349 . S
C1053 C1051 1.327 . S
C1053 C1069 1.429 . S
C1053 H1075 0.950 . S
C1054 H1050 0.949 . S
C1054 C1062 1.574 . S
C1054 C1070 1.368 . S
H1055 C1063 0.950 . S
H1056 C1061 0.950 . S
H1057 C1062 0.949 . S
H1058 C1064 0.950 . S
H1059 C1065 0.950 . S
H1060 C1066 0.949 . S
C1061 H1056 0.950 . S
C1061 C1063 1.327 . S
C1061 C1067 1.429 . S
C1062 C1054 1.574 . S
C1062 H1057 0.949 . S
C1062 C1068 1.368 . S
C1063 C1047 1.349 . S
C1063 H1055 0.950 . S
C1063 C1061 1.327 . S
C1064 C1052 1.349 . S
C1064 H1058 0.950 . S
C1064 C1065 1.327 . S
C1065 H1059 0.950 . S
C1065 C1064 1.327 . S
C1065 C1069 1.429 . S
C1066 C1049 1.574 . S
C1066 H1060 0.949 . S
C1066 C1070 1.368 . S
C1067 C1048 1.429 . S
C1067 C1061 1.429 . S
C1067 C1068 1.523 . S
C1068 C1049 1.368 . S
C1068 C1062 1.368 . S
C1068 C1067 1.523 . S
C1069 C1053 1.429 . S
C1069 C1065 1.429 . S
C1069 C1070 1.523 . S
C1070 C1054 1.368 . S
C1070 C1066 1.368 . S
C1070 C1069 1.523 . S
H1071 C1046 0.950 . S
H1072 C1048 0.950 . S
H1073 C1049 0.949 . S
H1074 C1051 0.950 . S
H1075 C1053 0.950 . S
C1076 C1077 1.349 . S
C1076 C1078 1.327 . S
C1076 H1101 0.950 . S
C1077 C1076 1.349 . S
C1077 C1093 1.349 . S
C1078 C1076 1.327 . S
C1078 C1097 1.429 . S
C1078 H1102 0.950 . S
C1079 C1096 1.574 . S
C1079 C1098 1.368 . S
C1079 H1103 0.949 . S
H1080 C1084 0.949 . S
C1081 C1082 1.349 . S
C1081 C1083 1.327 . S
C1081 H1104 0.950 . S
C1082 C1081 1.349 . S
C1082 C1094 1.349 . S
C1083 C1081 1.327 . S
C1083 C1099 1.429 . S
C1083 H1105 0.950 . S
C1084 H1080 0.949 . S
C1084 C1092 1.574 . S
C1084 C1100 1.368 . S
H1085 C1093 0.950 . S
H1086 C1091 0.950 . S
H1087 C1092 0.949 . S
H1088 C1094 0.950 . S
H1089 C1095 0.950 . S
H1090 C1096 0.949 . S
C1091 H1086 0.950 . S
C1091 C1093 1.327 . S
C1091 C1097 1.429 . S
C1092 C1084 1.574 . S
C1092 H1087 0.949 . S
C1092 C1098 1.368 . S
C1093 C1077 1.349 . S
C1093 H1085 0.950 . S
C1093 C1091 1.327 . S
C1094 C1082 1.349 . S
C1094 H1088 0.950 . S
C1094 C1095 1.327 . S
C1095 H1089 0.950 . S
C1095 C1094 1.327 . S
C1095 C1099 1.429 . S
C1096 C1079 1.574 . S
C1096 H1090 0.949 . S
C1096 C1100 1.368 . S
C1097 C1078 1.429 . S
C1097 C1091 1.429 . S
C1097 C1098 1.523 . S
C1098 C1079 1.368 . S
C1098 C1092 1.368 . S
C1098 C1097 1.523 . S
C1099 C1083 1.429 . S
C1099 C1095 1.429 . S
C1099 C1100 1.523 . S
C1100 C1084 1.368 . S
C1100 C1096 1.368 . S
C1100 C1099 1.523 . S
H1101 C1076 0.950 . S
H1102 C1078 0.950 . S
H1103 C1079 0.949 . S
H1104 C1081 0.950 . S
H1105 C1083 0.950 . S
C1106 C1107 1.349 . S
C1106 C1108 1.327 1_556 S
C1106 H1131 0.950 . S
C1107 C1106 1.349 . S
C1107 C1123 1.349 . S
C1108 C1106 1.327 1_554 S
C1108 C1127 1.420 1_554 S
C1108 H1132 0.950 . S
C1109 C1126 1.574 . S
C1109 C1128 1.368 . S
C1109 H1133 0.949 1_554 S
H1110 C1114 0.949 . S
C1111 C1112 1.349 . S
C1111 C1113 1.327 . S
C1111 H1134 0.950 . S
C1112 C1111 1.349 . S
C1112 C1124 1.349 . S
C1113 C1111 1.327 . S
C1113 C1129 1.429 . S
C1113 H1135 0.950 . S
C1114 H1110 0.949 . S
C1114 C1122 1.574 . S
C1114 C1130 1.368 . S
H1115 C1123 0.950 . S
H1116 C1121 0.950 . S
H1117 C1122 0.949 . S
H1118 C1124 0.950 . S
H1119 C1125 0.950 . S
H1120 C1126 0.949 . S
C1121 H1116 0.950 . S
C1121 C1123 1.327 . S
C1121 C1127 1.454 . S
C1122 C1114 1.574 . S
C1122 H1117 0.949 . S
C1122 C1128 1.368 . S
C1123 C1107 1.349 . S
C1123 H1115 0.950 . S
C1123 C1121 1.327 . S
C1124 C1112 1.349 . S
C1124 H1118 0.950 . S
C1124 C1125 1.327 . S
C1125 H1119 0.950 . S
C1125 C1124 1.327 . S
C1125 C1129 1.429 . S
C1126 C1109 1.574 . S
C1126 H1120 0.949 . S
C1126 C1130 1.368 . S
C1127 C1108 1.420 1_556 S
C1127 C1121 1.454 . S
C1127 C1128 1.508 1_556 S
C1128 C1109 1.368 . S
C1128 C1122 1.368 . S
C1128 C1127 1.508 1_554 S
C1129 C1113 1.429 . S
C1129 C1125 1.429 . S
C1129 C1130 1.523 . S
C1130 C1114 1.368 . S
C1130 C1126 1.368 . S
C1130 C1129 1.523 . S
H1131 C1106 0.950 . S
H1132 C1108 0.950 . S
H1133 C1109 0.949 1_556 S
H1134 C1111 0.950 . S
H1135 C1113 0.950 . S
C1136 C1137 1.349 . S
C1136 C1138 1.327 . S
C1136 H1161 0.950 . S
C1137 C1136 1.349 . S
C1137 C1153 1.349 . S
C1138 C1136 1.327 . S
C1138 C1157 1.429 . S
C1138 H1162 0.950 . S
C1139 C1156 1.574 . S
C1139 C1158 1.368 . S
C1139 H1163 0.949 . S
H1140 C1144 0.949 . S
C1141 C1142 1.349 . S
C1141 C1143 1.327 . S
C1141 H1164 0.950 . S
C1142 C1141 1.349 . S
C1142 C1154 1.349 . S
C1143 C1141 1.327 . S
C1143 C1159 1.429 . S
C1143 H1165 0.950 . S
C1144 H1140 0.949 . S
C1144 C1152 1.574 . S
C1144 C1160 1.368 . S
H1145 C1153 0.950 . S
H1146 C1151 0.950 . S
H1147 C1152 0.949 . S
H1148 C1154 0.950 . S
H1149 C1155 0.950 . S
H1150 C1156 0.949 . S
C1151 H1146 0.950 . S
C1151 C1153 1.327 . S
C1151 C1157 1.429 . S
C1152 C1144 1.574 . S
C1152 H1147 0.949 . S
C1152 C1158 1.368 . S
C1153 C1137 1.349 . S
C1153 H1145 0.950 . S
C1153 C1151 1.327 . S
C1154 C1142 1.349 . S
C1154 H1148 0.950 . S
C1154 C1155 1.327 . S
C1155 H1149 0.950 . S
C1155 C1154 1.327 . S
C1155 C1159 1.429 . S
C1156 C1139 1.574 . S
C1156 H1150 0.949 . S
C1156 C1160 1.368 . S
C1157 C1138 1.429 . S
C1157 C1151 1.429 . S
C1157 C1158 1.523 . S
C1158 C1139 1.368 . S
C1158 C1152 1.368 . S
C1158 C1157 1.523 . S
C1159 C1143 1.429 . S
C1159 C1155 1.429 . S
C1159 C1160 1.523 . S
C1160 C1144 1.368 . S
C1160 C1156 1.368 . S
C1160 C1159 1.523 . S
H1161 C1136 0.950 . S
H1162 C1138 0.950 . S
H1163 C1139 0.949 . S
H1164 C1141 0.950 . S
H1165 C1143 0.950 . S
C1166 C1167 1.349 . S
C1166 C1168 1.327 . S
C1166 H1191 0.950 . S
C1167 C1166 1.349 . S
C1167 C1183 1.349 . S
C1168 C1166 1.327 . S
C1168 C1187 1.441 . S
C1168 H1192 0.950 . S
C1169 C1186 1.574 . S
C1169 C1188 1.368 . S
C1169 H1193 0.949 . S
H1170 C1174 0.949 . S
C1171 C1172 1.349 . S
C1171 C1173 1.327 . S
C1171 H1194 0.950 . S
C1172 C1171 1.349 . S
C1172 C1184 1.349 . S
C1173 C1171 1.327 . S
C1173 C1189 1.429 . S
C1173 H1195 0.950 . S
C1174 H1170 0.949 . S
C1174 C1182 1.574 . S
C1174 C1190 1.368 . S
H1175 C1183 0.950 . S
H1176 C1181 0.950 1_556 S
H1177 C1182 0.949 . S
H1178 C1184 0.950 . S
H1179 C1185 0.950 . S
H1180 C1186 0.949 . S
C1181 H1176 0.950 1_554 S
C1181 C1183 1.327 . S
C1181 C1187 1.433 . S
C1182 C1174 1.574 . S
C1182 H1177 0.949 . S
C1182 C1188 1.368 . S
C1183 C1167 1.349 . S
C1183 H1175 0.950 . S
C1183 C1181 1.327 . S
C1184 C1172 1.349 . S
C1184 H1178 0.950 . S
C1184 C1185 1.327 . S
C1185 H1179 0.950 . S
C1185 C1184 1.327 . S
C1185 C1189 1.429 . S
C1186 C1169 1.574 . S
C1186 H1180 0.949 . S
C1186 C1190 1.368 . S
C1187 C1168 1.441 . S
C1187 C1181 1.433 . S
C1187 C1188 1.508 1_554 S
C1188 C1169 1.368 . S
C1188 C1182 1.368 . S
C1188 C1187 1.508 1_556 S
C1189 C1173 1.429 . S
C1189 C1185 1.429 . S
C1189 C1190 1.523 . S
C1190 C1174 1.368 . S
C1190 C1186 1.368 . S
C1190 C1189 1.523 . S
H1191 C1166 0.950 . S
H1192 C1168 0.950 . S
H1193 C1169 0.949 . S
H1194 C1171 0.950 . S
H1195 C1173 0.950 . S
C1196 C1197 1.349 . S
C1196 C1198 1.327 . S
C1196 H1221 0.950 . S
C1197 C1196 1.349 . S
C1197 C1213 1.349 . S
C1198 C1196 1.327 . S
C1198 C1217 1.429 . S
C1198 H1222 0.950 . S
C1199 C1216 1.574 . S
C1199 C1218 1.368 . S
C1199 H1223 0.949 . S
H1200 C1204 0.949 . S
C1201 C1202 1.349 . S
C1201 C1203 1.327 . S
C1201 H1224 0.950 . S
C1202 C1201 1.349 . S
C1202 C1214 1.349 . S
C1203 C1201 1.327 . S
C1203 C1219 1.449 . S
C1203 H1225 0.950 . S
C1204 H1200 0.949 . S
C1204 C1212 1.574 . S
C1204 C1220 1.368 . S
H1205 C1213 0.950 . S
H1206 C1211 0.950 . S
H1207 C1212 0.949 . S
H1208 C1214 0.950 . S
H1209 C1215 0.950 . S
H1210 C1216 0.949 1_556 S
C1211 H1206 0.950 . S
C1211 C1213 1.327 . S
C1211 C1217 1.429 . S
C1212 C1204 1.574 . S
C1212 H1207 0.949 . S
C1212 C1218 1.368 . S
C1213 C1197 1.349 . S
C1213 H1205 0.950 . S
C1213 C1211 1.327 . S
C1214 C1202 1.349 . S
C1214 H1208 0.950 . S
C1214 C1215 1.327 1_556 S
C1215 H1209 0.950 . S
C1215 C1214 1.327 1_554 S
C1215 C1219 1.426 1_554 S
C1216 C1199 1.574 . S
C1216 H1210 0.949 1_554 S
C1216 C1220 1.368 . S
C1217 C1198 1.429 . S
C1217 C1211 1.429 . S
C1217 C1218 1.523 . S
C1218 C1199 1.368 . S
C1218 C1212 1.368 . S
C1218 C1217 1.523 . S
C1219 C1203 1.449 . S
C1219 C1215 1.426 1_556 S
C1219 C1220 1.508 1_556 S
C1220 C1204 1.368 . S
C1220 C1216 1.368 . S
C1220 C1219 1.508 1_554 S
H1221 C1196 0.950 . S
H1222 C1198 0.950 . S
H1223 C1199 0.949 . S
H1224 C1201 0.950 . S
H1225 C1203 0.950 . S
C1226 C1227 1.349 . S
C1226 C1228 1.327 . S
C1226 H1251 0.950 . S
C1227 C1226 1.349 . S
C1227 C1243 1.349 . S
C1228 C1226 1.327 . S
C1228 C1247 1.429 . S
C1228 H1252 0.950 . S
C1229 C1246 1.574 . S
C1229 C1248 1.368 . S
C1229 H1253 0.949 . S
H1230 C1234 0.949 . S
C1231 C1232 1.349 . S
C1231 C1233 1.327 . S
C1231 H1254 0.950 . S
C1232 C1231 1.349 . S
C1232 C1244 1.349 . S
C1233 C1231 1.327 . S
C1233 C1249 1.429 . S
C1233 H1255 0.950 . S
C1234 H1230 0.949 . S
C1234 C1242 1.574 . S
C1234 C1250 1.368 . S
H1235 C1243 0.950 . S
H1236 C1241 0.950 . S
H1237 C1242 0.949 . S
H1238 C1244 0.950 . S
H1239 C1245 0.950 . S
H1240 C1246 0.949 . S
C1241 H1236 0.950 . S
C1241 C1243 1.327 . S
C1241 C1247 1.429 . S
C1242 C1234 1.574 . S
C1242 H1237 0.949 . S
C1242 C1248 1.368 . S
C1243 C1227 1.349 . S
C1243 H1235 0.950 . S
C1243 C1241 1.327 . S
C1244 C1232 1.349 . S
C1244 H1238 0.950 . S
C1244 C1245 1.327 . S
C1245 H1239 0.950 . S
C1245 C1244 1.327 . S
C1245 C1249 1.429 . S
C1246 C1229 1.574 . S
C1246 H1240 0.949 . S
C1246 C1250 1.368 . S
C1247 C1228 1.429 . S
C1247 C1241 1.429 . S
C1247 C1248 1.523 . S
C1248 C1229 1.368 . S
C1248 C1242 1.368 . S
C1248 C1247 1.523 . S
C1249 C1233 1.429 . S
C1249 C1245 1.429 . S
C1249 C1250 1.523 . S
C1250 C1234 1.368 . S
C1250 C1246 1.368 . S
C1250 C1249 1.523 . S
H1251 C1226 0.950 . S
H1252 C1228 0.950 . S
H1253 C1229 0.949 . S
H1254 C1231 0.950 . S
H1255 C1233 0.950 . S
C1256 C1257 1.349 . S
C1256 C1258 1.327 . S
C1256 H1281 0.950 . S
C1257 C1256 1.349 . S
C1257 C1273 1.349 . S
C1258 C1256 1.327 . S
C1258 C1277 1.429 . S
C1258 H1282 0.950 . S
C1259 C1276 1.574 . S
C1259 C1278 1.368 . S
C1259 H1283 0.949 . S
H1260 C1264 0.949 . S
C1261 C1262 1.349 . S
C1261 C1263 1.327 . S
C1261 H1284 0.950 . S
C1262 C1261 1.349 . S
C1262 C1274 1.349 . S
C1263 C1261 1.327 . S
C1263 C1279 1.429 . S
C1263 H1285 0.950 . S
C1264 H1260 0.949 . S
C1264 C1272 1.574 . S
C1264 C1280 1.368 . S
H1265 C1273 0.950 . S
H1266 C1271 0.950 . S
H1267 C1272 0.949 . S
H1268 C1274 0.950 . S
H1269 C1275 0.950 . S
H1270 C1276 0.949 . S
C1271 H1266 0.950 . S
C1271 C1273 1.327 . S
C1271 C1277 1.429 . S
C1272 C1264 1.574 . S
C1272 H1267 0.949 . S
C1272 C1278 1.368 . S
C1273 C1257 1.349 . S
C1273 H1265 0.950 . S
C1273 C1271 1.327 . S
C1274 C1262 1.349 . S
C1274 H1268 0.950 . S
C1274 C1275 1.327 . S
C1275 H1269 0.950 . S
C1275 C1274 1.327 . S
C1275 C1279 1.429 . S
C1276 C1259 1.574 . S
C1276 H1270 0.949 . S
C1276 C1280 1.368 . S
C1277 C1258 1.429 . S
C1277 C1271 1.429 . S
C1277 C1278 1.523 . S
C1278 C1259 1.368 . S
C1278 C1272 1.368 . S
C1278 C1277 1.523 . S
C1279 C1263 1.429 . S
C1279 C1275 1.429 . S
C1279 C1280 1.523 . S
C1280 C1264 1.368 . S
C1280 C1276 1.368 . S
C1280 C1279 1.523 . S
H1281 C1256 0.950 . S
H1282 C1258 0.950 . S
H1283 C1259 0.949 . S
H1284 C1261 0.950 . S
H1285 C1263 0.950 . S
C1286 C1287 1.349 . S
C1286 C1288 1.327 . S
C1286 H1311 0.950 . S
C1287 C1286 1.349 . S
C1287 C1303 1.349 . S
C1288 C1286 1.327 . S
C1288 C1307 1.453 . S
C1288 H1312 0.950 . S
C1289 C1306 1.574 . S
C1289 C1308 1.368 . S
C1289 H1313 0.949 . S
H1290 C1294 0.949 . S
C1291 C1292 1.349 . S
C1291 C1293 1.327 . S
C1291 H1314 0.950 . S
C1292 C1291 1.349 . S
C1292 C1304 1.349 . S
C1293 C1291 1.327 . S
C1293 C1309 1.429 . S
C1293 H1315 0.950 . S
C1294 H1290 0.949 . S
C1294 C1302 1.574 . S
C1294 C1310 1.368 . S
H1295 C1303 0.950 . S
H1296 C1301 0.950 . S
H1297 C1302 0.949 1_556 S
H1298 C1304 0.950 . S
H1299 C1305 0.950 . S
H1300 C1306 0.949 . S
C1301 H1296 0.950 . S
C1301 C1303 1.327 1_554 S
C1301 C1307 1.421 1_554 S
C1302 C1294 1.574 . S
C1302 H1297 0.949 1_554 S
C1302 C1308 1.368 . S
C1303 C1287 1.349 . S
C1303 H1295 0.950 . S
C1303 C1301 1.327 1_556 S
C1304 C1292 1.349 . S
C1304 H1298 0.950 . S
C1304 C1305 1.327 . S
C1305 H1299 0.950 . S
C1305 C1304 1.327 . S
C1305 C1309 1.429 . S
C1306 C1289 1.574 . S
C1306 H1300 0.949 . S
C1306 C1310 1.368 . S
C1307 C1288 1.453 . S
C1307 C1301 1.421 1_556 S
C1307 C1308 1.508 1_556 S
C1308 C1289 1.368 . S
C1308 C1302 1.368 . S
C1308 C1307 1.508 1_554 S
C1309 C1293 1.429 . S
C1309 C1305 1.429 . S
C1309 C1310 1.523 . S
C1310 C1294 1.368 . S
C1310 C1306 1.368 . S
C1310 C1309 1.523 . S
H1311 C1286 0.950 . S
H1312 C1288 0.950 . S
H1313 C1289 0.949 . S
H1314 C1291 0.950 . S
H1315 C1293 0.950 . S
C1316 C1317 1.349 . S
C1316 C1318 1.327 . S
C1316 H1341 0.950 . S
C1317 C1316 1.349 . S
C1317 C1333 1.349 . S
C1318 C1316 1.327 . S
C1318 C1337 1.429 . S
C1318 H1342 0.950 . S
C1319 C1336 1.574 . S
C1319 C1338 1.368 . S
C1319 H1343 0.949 . S
H1320 C1324 0.949 . S
C1321 C1322 1.349 . S
C1321 C1323 1.327 . S
C1321 H1344 0.950 . S
C1322 C1321 1.349 . S
C1322 C1334 1.349 . S
C1323 C1321 1.327 . S
C1323 C1339 1.445 . S
C1323 H1345 0.950 . S
C1324 H1320 0.949 . S
C1324 C1332 1.574 . S
C1324 C1340 1.368 . S
H1325 C1333 0.950 . S
H1326 C1331 0.950 . S
H1327 C1332 0.949 . S
H1328 C1334 0.950 . S
H1329 C1335 0.950 1_556 S
H1330 C1336 0.949 . S
C1331 H1326 0.950 . S
C1331 C1333 1.327 . S
C1331 C1337 1.429 . S
C1332 C1324 1.574 . S
C1332 H1327 0.949 . S
C1332 C1338 1.368 . S
C1333 C1317 1.349 . S
C1333 H1325 0.950 . S
C1333 C1331 1.327 . S
C1334 C1322 1.349 . S
C1334 H1328 0.950 . S
C1334 C1335 1.327 . S
C1335 H1329 0.950 1_554 S
C1335 C1334 1.327 . S
C1335 C1339 1.429 . S
C1336 C1319 1.574 . S
C1336 H1330 0.949 . S
C1336 C1340 1.368 . S
C1337 C1318 1.429 . S
C1337 C1331 1.429 . S
C1337 C1338 1.523 . S
C1338 C1319 1.368 . S
C1338 C1332 1.368 . S
C1338 C1337 1.523 . S
C1339 C1323 1.445 . S
C1339 C1335 1.429 . S
C1339 C1340 1.507 1_554 S
C1340 C1324 1.368 . S
C1340 C1336 1.368 . S
C1340 C1339 1.507 1_556 S
H1341 C1316 0.950 . S
H1342 C1318 0.950 . S
H1343 C1319 0.949 . S
H1344 C1321 0.950 . S
H1345 C1323 0.950 . S
C1346 C1347 1.349 . S
C1346 C1348 1.327 . S
C1346 H1371 0.950 . S
C1347 C1346 1.349 . S
C1347 C1363 1.349 . S
C1348 C1346 1.327 . S
C1348 C1367 1.429 . S
C1348 H1372 0.950 . S
C1349 C1366 1.574 . S
C1349 C1368 1.368 . S
C1349 H1373 0.949 . S
H1350 C1354 0.949 . S
C1351 C1352 1.349 . S
C1351 C1353 1.327 . S
C1351 H1374 0.950 . S
C1352 C1351 1.349 . S
C1352 C1364 1.349 . S
C1353 C1351 1.327 . S
C1353 C1369 1.429 . S
C1353 H1375 0.950 . S
C1354 H1350 0.949 . S
C1354 C1362 1.574 . S
C1354 C1370 1.368 . S
H1355 C1363 0.950 . S
H1356 C1361 0.950 . S
H1357 C1362 0.949 . S
H1358 C1364 0.950 . S
H1359 C1365 0.950 . S
H1360 C1366 0.949 . S
C1361 H1356 0.950 . S
C1361 C1363 1.327 . S
C1361 C1367 1.429 . S
C1362 C1354 1.574 . S
C1362 H1357 0.949 . S
C1362 C1368 1.368 . S
C1363 C1347 1.349 . S
C1363 H1355 0.950 . S
C1363 C1361 1.327 . S
C1364 C1352 1.349 . S
C1364 H1358 0.950 . S
C1364 C1365 1.327 . S
C1365 H1359 0.950 . S
C1365 C1364 1.327 . S
C1365 C1369 1.429 . S
C1366 C1349 1.574 . S
C1366 H1360 0.949 . S
C1366 C1370 1.368 . S
C1367 C1348 1.429 . S
C1367 C1361 1.429 . S
C1367 C1368 1.523 . S
C1368 C1349 1.368 . S
C1368 C1362 1.368 . S
C1368 C1367 1.523 . S
C1369 C1353 1.429 . S
C1369 C1365 1.429 . S
C1369 C1370 1.523 . S
C1370 C1354 1.368 . S
C1370 C1366 1.368 . S
C1370 C1369 1.523 . S
H1371 C1346 0.950 . S
H1372 C1348 0.950 . S
H1373 C1349 0.949 . S
H1374 C1351 0.950 . S
H1375 C1353 0.950 . S
C1376 C1377 1.349 . S
C1376 C1378 1.327 . S
C1376 H1401 0.950 . S
C1377 C1376 1.349 . S
C1377 C1393 1.349 . S
C1378 C1376 1.327 . S
C1378 C1397 1.429 . S
C1378 H1402 0.950 . S
C1379 C1396 1.574 . S
C1379 C1398 1.368 1_556 S
C1379 H1403 0.949 . S
H1380 C1384 0.949 . S
C1381 C1382 1.349 . S
C1381 C1383 1.327 . S
C1381 H1404 0.950 . S
C1382 C1381 1.349 . S
C1382 C1394 1.349 . S
C1383 C1381 1.327 . S
C1383 C1399 1.429 . S
C1383 H1405 0.950 . S
C1384 H1380 0.949 . S
C1384 C1392 1.574 1_556 S
C1384 C1400 1.368 . S
H1385 C1393 0.950 . S
H1386 C1391 0.950 . S
H1387 C1392 0.949 . S
H1388 C1394 0.950 . S
H1389 C1395 0.950 . S
H1390 C1396 0.949 . S
C1391 H1386 0.950 . S
C1391 C1393 1.327 . S
C1391 C1397 1.429 . S
C1392 C1384 1.574 1_554 S
C1392 H1387 0.949 . S
C1392 C1398 1.368 . S
C1393 C1377 1.349 . S
C1393 H1385 0.950 . S
C1393 C1391 1.327 . S
C1394 C1382 1.349 . S
C1394 H1388 0.950 . S
C1394 C1395 1.327 . S
C1395 H1389 0.950 . S
C1395 C1394 1.327 . S
C1395 C1399 1.429 . S
C1396 C1379 1.574 . S
C1396 H1390 0.949 . S
C1396 C1400 1.368 . S
C1397 C1378 1.429 . S
C1397 C1391 1.429 . S
C1397 C1398 1.523 . S
C1398 C1379 1.368 1_554 S
C1398 C1392 1.368 . S
C1398 C1397 1.523 . S
C1399 C1383 1.429 . S
C1399 C1395 1.429 . S
C1399 C1400 1.523 . S
C1400 C1384 1.368 . S
C1400 C1396 1.368 . S
C1400 C1399 1.523 . S
H1401 C1376 0.950 . S
H1402 C1378 0.950 . S
H1403 C1379 0.949 . S
H1404 C1381 0.950 . S
H1405 C1383 0.950 . S
C1406 C1407 1.349 . S
C1406 C1408 1.327 . S
C1406 H1431 0.950 . S
C1407 C1406 1.349 . S
C1407 C1423 1.349 . S
C1408 C1406 1.327 . S
C1408 C1427 1.429 . S
C1408 H1432 0.950 . S
C1409 C1426 1.574 . S
C1409 C1428 1.368 . S
C1409 H1433 0.949 . S
H1410 C1414 0.949 . S
C1411 C1412 1.349 . S
C1411 C1413 1.327 . S
C1411 H1434 0.950 . S
C1412 C1411 1.349 . S
C1412 C1424 1.349 . S
C1413 C1411 1.327 . S
C1413 C1429 1.429 . S
C1413 H1435 0.950 . S
C1414 H1410 0.949 . S
C1414 C1422 1.574 . S
C1414 C1430 1.368 . S
H1415 C1423 0.950 . S
H1416 C1421 0.950 . S
H1417 C1422 0.949 . S
H1418 C1424 0.950 . S
H1419 C1425 0.950 . S
H1420 C1426 0.949 . S
C1421 H1416 0.950 . S
C1421 C1423 1.327 . S
C1421 C1427 1.429 . S
C1422 C1414 1.574 . S
C1422 H1417 0.949 . S
C1422 C1428 1.368 1_455 S
C1423 C1407 1.349 . S
C1423 H1415 0.950 . S
C1423 C1421 1.327 . S
C1424 C1412 1.349 . S
C1424 H1418 0.950 . S
C1424 C1425 1.327 . S
C1425 H1419 0.950 . S
C1425 C1424 1.327 . S
C1425 C1429 1.429 . S
C1426 C1409 1.574 . S
C1426 H1420 0.949 . S
C1426 C1430 1.368 1_655 S
C1427 C1408 1.429 . S
C1427 C1421 1.429 . S
C1427 C1428 1.523 . S
C1428 C1409 1.368 . S
C1428 C1422 1.368 1_655 S
C1428 C1427 1.523 . S
C1429 C1413 1.429 . S
C1429 C1425 1.429 . S
C1429 C1430 1.523 . S
C1430 C1414 1.368 . S
C1430 C1426 1.368 1_455 S
C1430 C1429 1.523 . S
H1431 C1406 0.950 . S
H1432 C1408 0.950 . S
H1433 C1409 0.949 . S
H1434 C1411 0.950 . S
H1435 C1413 0.950 . S
C1436 C1437 1.349 . S
C1436 C1438 1.327 . S
C1436 H1461 0.950 . S
C1437 C1436 1.349 . S
C1437 C1453 1.349 . S
C1438 C1436 1.327 . S
C1438 C1457 1.429 . S
C1438 H1462 0.950 . S
C1439 C1456 1.574 . S
C1439 C1458 1.368 . S
C1439 H1463 0.949 . S
H1440 C1444 0.949 . S
C1441 C1442 1.349 . S
C1441 C1443 1.327 . S
C1441 H1464 0.950 . S
C1442 C1441 1.349 . S
C1442 C1454 1.349 . S
C1443 C1441 1.327 . S
C1443 C1459 1.429 . S
C1443 H1465 0.950 . S
C1444 H1440 0.949 . S
C1444 C1452 1.574 . S
C1444 C1460 1.368 . S
H1445 C1453 0.950 . S
H1446 C1451 0.950 . S
H1447 C1452 0.949 . S
H1448 C1454 0.950 . S
H1449 C1455 0.950 . S
H1450 C1456 0.949 . S
C1451 H1446 0.950 . S
C1451 C1453 1.327 . S
C1451 C1457 1.429 . S
C1452 C1444 1.574 . S
C1452 H1447 0.949 . S
C1452 C1458 1.368 . S
C1453 C1437 1.349 . S
C1453 H1445 0.950 . S
C1453 C1451 1.327 . S
C1454 C1442 1.349 . S
C1454 H1448 0.950 . S
C1454 C1455 1.327 . S
C1455 H1449 0.950 . S
C1455 C1454 1.327 . S
C1455 C1459 1.429 . S
C1456 C1439 1.574 . S
C1456 H1450 0.949 . S
C1456 C1460 1.368 . S
C1457 C1438 1.429 . S
C1457 C1451 1.429 . S
C1457 C1458 1.523 . S
C1458 C1439 1.368 . S
C1458 C1452 1.368 . S
C1458 C1457 1.523 . S
C1459 C1443 1.429 . S
C1459 C1455 1.429 . S
C1459 C1460 1.523 . S
C1460 C1444 1.368 . S
C1460 C1456 1.368 . S
C1460 C1459 1.523 . S
H1461 C1436 0.950 . S
H1462 C1438 0.950 . S
H1463 C1439 0.949 . S
H1464 C1441 0.950 . S
H1465 C1443 0.950 . S
C1466 C1467 1.349 . S
C1466 C1468 1.327 . S
C1466 H1491 0.950 . S
C1467 C1466 1.349 . S
C1467 C1483 1.349 . S
C1468 C1466 1.327 . S
C1468 C1487 1.429 . S
C1468 H1492 0.950 . S
C1469 C1486 1.574 . S
C1469 C1488 1.368 . S
C1469 H1493 0.949 . S
H1470 C1474 0.949 . S
C1471 C1472 1.349 . S
C1471 C1473 1.327 1_554 S
C1471 H1494 0.950 . S
C1472 C1471 1.349 . S
C1472 C1484 1.349 1_554 S
C1473 C1471 1.327 1_556 S
C1473 C1489 1.429 . S
C1473 H1495 0.950 . S
C1474 H1470 0.949 . S
C1474 C1482 1.574 . S
C1474 C1490 1.368 . S
H1475 C1483 0.950 . S
H1476 C1481 0.950 . S
H1477 C1482 0.949 . S
H1478 C1484 0.950 . S
H1479 C1485 0.950 . S
H1480 C1486 0.949 . S
C1481 H1476 0.950 . S
C1481 C1483 1.327 . S
C1481 C1487 1.429 . S
C1482 C1474 1.574 . S
C1482 H1477 0.949 . S
C1482 C1488 1.368 . S
C1483 C1467 1.349 . S
C1483 H1475 0.950 . S
C1483 C1481 1.327 . S
C1484 C1472 1.349 1_556 S
C1484 H1478 0.950 . S
C1484 C1485 1.327 . S
C1485 H1479 0.950 . S
C1485 C1484 1.327 . S
C1485 C1489 1.429 . S
C1486 C1469 1.574 . S
C1486 H1480 0.949 . S
C1486 C1490 1.368 . S
C1487 C1468 1.429 . S
C1487 C1481 1.429 . S
C1487 C1488 1.523 . S
C1488 C1469 1.368 . S
C1488 C1482 1.368 . S
C1488 C1487 1.523 . S
C1489 C1473 1.429 . S
C1489 C1485 1.429 . S
C1489 C1490 1.523 . S
C1490 C1474 1.368 . S
C1490 C1486 1.368 . S
C1490 C1489 1.523 . S
H1491 C1466 0.950 . S
H1492 C1468 0.950 . S
H1493 C1469 0.949 . S
H1494 C1471 0.950 . S
H1495 C1473 0.950 . S
C1496 C1497 1.349 . S
C1496 C1498 1.327 . S
C1496 H1521 0.950 . S
C1497 C1496 1.349 . S
C1497 C1513 1.349 . S
C1498 C1496 1.327 . S
C1498 C1517 1.429 . S
C1498 H1522 0.950 . S
C1499 C1516 1.574 . S
C1499 C1518 1.368 . S
C1499 H1523 0.949 . S
H1500 C1504 0.949 . S
C1501 C1502 1.349 . S
C1501 C1503 1.327 . S
C1501 H1524 0.950 . S
C1502 C1501 1.349 . S
C1502 C1514 1.349 . S
C1503 C1501 1.327 . S
C1503 C1519 1.429 . S
C1503 H1525 0.950 . S
C1504 H1500 0.949 . S
C1504 C1512 1.574 . S
C1504 C1520 1.368 . S
H1505 C1513 0.950 . S
H1506 C1511 0.950 . S
H1507 C1512 0.949 . S
H1508 C1514 0.950 . S
H1509 C1515 0.950 . S
H1510 C1516 0.949 . S
C1511 H1506 0.950 . S
C1511 C1513 1.327 . S
C1511 C1517 1.429 . S
C1512 C1504 1.574 . S
C1512 H1507 0.949 . S
C1512 C1518 1.368 . S
C1513 C1497 1.349 . S
C1513 H1505 0.950 . S
C1513 C1511 1.327 . S
C1514 C1502 1.349 . S
C1514 H1508 0.950 . S
C1514 C1515 1.327 . S
C1515 H1509 0.950 . S
C1515 C1514 1.327 . S
C1515 C1519 1.429 . S
C1516 C1499 1.574 . S
C1516 H1510 0.949 . S
C1516 C1520 1.368 . S
C1517 C1498 1.429 . S
C1517 C1511 1.429 . S
C1517 C1518 1.523 . S
C1518 C1499 1.368 . S
C1518 C1512 1.368 . S
C1518 C1517 1.523 . S
C1519 C1503 1.429 . S
C1519 C1515 1.429 . S
C1519 C1520 1.523 . S
C1520 C1504 1.368 . S
C1520 C1516 1.368 . S
C1520 C1519 1.523 . S
H1521 C1496 0.950 . S
H1522 C1498 0.950 . S
H1523 C1499 0.949 . S
H1524 C1501 0.950 . S
H1525 C1503 0.950 . S
C1526 C1527 1.349 . S
C1526 C1528 1.327 . S
C1526 H1551 0.950 . S
C1527 C1526 1.349 . S
C1527 C1543 1.349 . S
C1528 C1526 1.327 . S
C1528 C1547 1.429 . S
C1528 H1552 0.950 . S
C1529 C1546 1.574 . S
C1529 C1548 1.368 . S
C1529 H1553 0.949 . S
H1530 C1534 0.949 . S
C1531 C1532 1.349 . S
C1531 C1533 1.327 . S
C1531 H1554 0.950 . S
C1532 C1531 1.349 . S
C1532 C1544 1.349 . S
C1533 C1531 1.327 . S
C1533 C1549 1.429 . S
C1533 H1555 0.950 . S
C1534 H1530 0.949 . S
C1534 C1542 1.574 . S
C1534 C1550 1.368 . S
H1535 C1543 0.950 . S
H1536 C1541 0.950 . S
H1537 C1542 0.949 . S
H1538 C1544 0.950 . S
H1539 C1545 0.950 . S
H1540 C1546 0.949 . S
C1541 H1536 0.950 . S
C1541 C1543 1.327 . S
C1541 C1547 1.429 . S
C1542 C1534 1.574 . S
C1542 H1537 0.949 . S
C1542 C1548 1.368 . S
C1543 C1527 1.349 . S
C1543 H1535 0.950 . S
C1543 C1541 1.327 . S
C1544 C1532 1.349 . S
C1544 H1538 0.950 . S
C1544 C1545 1.327 . S
C1545 H1539 0.950 . S
C1545 C1544 1.327 . S
C1545 C1549 1.429 . S
C1546 C1529 1.574 . S
C1546 H1540 0.949 . S
C1546 C1550 1.368 . S
C1547 C1528 1.429 . S
C1547 C1541 1.429 . S
C1547 C1548 1.523 . S
C1548 C1529 1.368 . S
C1548 C1542 1.368 . S
C1548 C1547 1.523 . S
C1549 C1533 1.429 . S
C1549 C1545 1.429 . S
C1549 C1550 1.523 . S
C1550 C1534 1.368 . S
C1550 C1546 1.368 . S
C1550 C1549 1.523 . S
H1551 C1526 0.950 . S
H1552 C1528 0.950 . S
H1553 C1529 0.949 . S
H1554 C1531 0.950 . S
H1555 C1533 0.950 . S
C1556 C1557 1.349 . S
C1556 C1558 1.327 . S
C1556 H1581 0.950 . S
C1557 C1556 1.349 . S
C1557 C1573 1.349 . S
C1558 C1556 1.327 . S
C1558 C1577 1.429 . S
C1558 H1582 0.950 . S
C1559 C1576 1.574 . S
C1559 C1578 1.368 1_554 S
C1559 H1583 0.949 . S
H1560 C1564 0.949 . S
C1561 C1562 1.349 . S
C1561 C1563 1.327 . S
C1561 H1584 0.950 . S
C1562 C1561 1.349 . S
C1562 C1574 1.349 . S
C1563 C1561 1.327 . S
C1563 C1579 1.429 . S
C1563 H1585 0.950 . S
C1564 H1560 0.949 . S
C1564 C1572 1.574 1_554 S
C1564 C1580 1.368 . S
H1565 C1573 0.950 . S
H1566 C1571 0.950 . S
H1567 C1572 0.949 . S
H1568 C1574 0.950 . S
H1569 C1575 0.950 . S
H1570 C1576 0.949 . S
C1571 H1566 0.950 . S
C1571 C1573 1.327 . S
C1571 C1577 1.429 . S
C1572 C1564 1.574 1_556 S
C1572 H1567 0.949 . S
C1572 C1578 1.368 . S
C1573 C1557 1.349 . S
C1573 H1565 0.950 . S
C1573 C1571 1.327 . S
C1574 C1562 1.349 . S
C1574 H1568 0.950 . S
C1574 C1575 1.327 . S
C1575 H1569 0.950 . S
C1575 C1574 1.327 . S
C1575 C1579 1.429 . S
C1576 C1559 1.574 . S
C1576 H1570 0.949 . S
C1576 C1580 1.368 . S
C1577 C1558 1.429 . S
C1577 C1571 1.429 . S
C1577 C1578 1.523 . S
C1578 C1559 1.368 1_556 S
C1578 C1572 1.368 . S
C1578 C1577 1.523 . S
C1579 C1563 1.429 . S
C1579 C1575 1.429 . S
C1579 C1580 1.523 . S
C1580 C1564 1.368 . S
C1580 C1576 1.368 . S
C1580 C1579 1.523 . S
H1581 C1556 0.950 . S
H1582 C1558 0.950 . S
H1583 C1559 0.949 . S
H1584 C1561 0.950 . S
H1585 C1563 0.950 . S
C1586 C1587 1.349 . S
C1586 C1588 1.327 1_556 S
C1586 H1611 0.950 . S
C1587 C1586 1.349 . S
C1587 C1603 1.349 1_556 S
C1588 C1586 1.327 1_554 S
C1588 C1607 1.429 . S
C1588 H1612 0.950 . S
C1589 C1606 1.574 . S
C1589 C1608 1.368 . S
C1589 H1613 0.949 . S
H1590 C1594 0.949 . S
C1591 C1592 1.349 . S
C1591 C1593 1.327 . S
C1591 H1614 0.950 . S
C1592 C1591 1.349 . S
C1592 C1604 1.349 . S
C1593 C1591 1.327 . S
C1593 C1609 1.429 . S
C1593 H1615 0.950 . S
C1594 H1590 0.949 . S
C1594 C1602 1.574 . S
C1594 C1610 1.368 . S
H1595 C1603 0.950 . S
H1596 C1601 0.950 . S
H1597 C1602 0.949 . S
H1598 C1604 0.950 . S
H1599 C1605 0.950 . S
H1600 C1606 0.949 . S
C1601 H1596 0.950 . S
C1601 C1603 1.327 . S
C1601 C1607 1.429 . S
C1602 C1594 1.574 . S
C1602 H1597 0.949 . S
C1602 C1608 1.368 1_655 S
C1603 C1587 1.349 1_554 S
C1603 H1595 0.950 . S
C1603 C1601 1.327 . S
C1604 C1592 1.349 . S
C1604 H1598 0.950 . S
C1604 C1605 1.327 . S
C1605 H1599 0.950 . S
C1605 C1604 1.327 . S
C1605 C1609 1.429 . S
C1606 C1589 1.574 . S
C1606 H1600 0.949 . S
C1606 C1610 1.368 1_455 S
C1607 C1588 1.429 . S
C1607 C1601 1.429 . S
C1607 C1608 1.523 . S
C1608 C1589 1.368 . S
C1608 C1602 1.368 1_455 S
C1608 C1607 1.523 . S
C1609 C1593 1.429 . S
C1609 C1605 1.429 . S
C1609 C1610 1.523 . S
C1610 C1594 1.368 . S
C1610 C1606 1.368 1_655 S
C1610 C1609 1.523 . S
H1611 C1586 0.950 . S
H1612 C1588 0.950 . S
H1613 C1589 0.949 . S
H1614 C1591 0.950 . S
H1615 C1593 0.950 . S
C1616 C1617 1.349 . S
C1616 C1618 1.327 . S
C1616 H1641 0.950 . S
C1617 C1616 1.349 . S
C1617 C1633 1.349 . S
C1618 C1616 1.327 . S
C1618 C1637 1.429 . S
C1618 H1642 0.950 . S
C1619 C1636 1.574 . S
C1619 C1638 1.368 1_554 S
C1619 H1643 0.949 . S
H1620 C1624 0.949 . S
C1621 C1622 1.349 . S
C1621 C1623 1.327 . S
C1621 H1644 0.950 . S
C1622 C1621 1.349 . S
C1622 C1634 1.349 . S
C1623 C1621 1.327 . S
C1623 C1639 1.429 . S
C1623 H1645 0.950 . S
C1624 H1620 0.949 . S
C1624 C1632 1.574 1_554 S
C1624 C1640 1.368 . S
H1625 C1633 0.950 . S
H1626 C1631 0.950 . S
H1627 C1632 0.949 . S
H1628 C1634 0.950 . S
H1629 C1635 0.950 . S
H1630 C1636 0.949 . S
C1631 H1626 0.950 . S
C1631 C1633 1.327 . S
C1631 C1637 1.429 . S
C1632 C1624 1.574 1_556 S
C1632 H1627 0.949 . S
C1632 C1638 1.368 . S
C1633 C1617 1.349 . S
C1633 H1625 0.950 . S
C1633 C1631 1.327 . S
C1634 C1622 1.349 . S
C1634 H1628 0.950 . S
C1634 C1635 1.327 . S
C1635 H1629 0.950 . S
C1635 C1634 1.327 . S
C1635 C1639 1.429 . S
C1636 C1619 1.574 . S
C1636 H1630 0.949 . S
C1636 C1640 1.368 . S
C1637 C1618 1.429 . S
C1637 C1631 1.429 . S
C1637 C1638 1.523 . S
C1638 C1619 1.368 1_556 S
C1638 C1632 1.368 . S
C1638 C1637 1.523 . S
C1639 C1623 1.429 . S
C1639 C1635 1.429 . S
C1639 C1640 1.523 . S
C1640 C1624 1.368 . S
C1640 C1636 1.368 . S
C1640 C1639 1.523 . S
H1641 C1616 0.950 . S
H1642 C1618 0.950 . S
H1643 C1619 0.949 . S
H1644 C1621 0.950 . S
H1645 C1623 0.950 . S
C1646 C1647 1.349 . S
C1646 C1648 1.327 . S
C1646 H1671 0.950 . S
C1647 C1646 1.349 . S
C1647 C1663 1.349 . S
C1648 C1646 1.327 . S
C1648 C1667 1.429 . S
C1648 H1672 0.950 . S
C1649 C1666 1.574 . S
C1649 C1668 1.368 1_655 S
C1649 H1673 0.949 . S
H1650 C1654 0.949 . S
C1651 C1652 1.349 . S
C1651 C1653 1.327 . S
C1651 H1674 0.950 . S
C1652 C1651 1.349 . S
C1652 C1664 1.349 . S
C1653 C1651 1.327 . S
C1653 C1669 1.429 . S
C1653 H1675 0.950 . S
C1654 H1650 0.949 . S
C1654 C1662 1.574 . S
C1654 C1670 1.368 1_455 S
H1655 C1663 0.950 . S
H1656 C1661 0.950 . S
H1657 C1662 0.949 . S
H1658 C1664 0.950 . S
H1659 C1665 0.950 . S
H1660 C1666 0.949 . S
C1661 H1656 0.950 . S
C1661 C1663 1.327 . S
C1661 C1667 1.429 . S
C1662 C1654 1.574 . S
C1662 H1657 0.949 . S
C1662 C1668 1.368 . S
C1663 C1647 1.349 . S
C1663 H1655 0.950 . S
C1663 C1661 1.327 . S
C1664 C1652 1.349 . S
C1664 H1658 0.950 . S
C1664 C1665 1.327 . S
C1665 H1659 0.950 . S
C1665 C1664 1.327 . S
C1665 C1669 1.429 . S
C1666 C1649 1.574 . S
C1666 H1660 0.949 . S
C1666 C1670 1.368 . S
C1667 C1648 1.429 . S
C1667 C1661 1.429 . S
C1667 C1668 1.523 . S
C1668 C1649 1.368 1_455 S
C1668 C1662 1.368 . S
C1668 C1667 1.523 . S
C1669 C1653 1.429 . S
C1669 C1665 1.429 . S
C1669 C1670 1.523 . S
C1670 C1654 1.368 1_655 S
C1670 C1666 1.368 . S
C1670 C1669 1.523 . S
H1671 C1646 0.950 . S
H1672 C1648 0.950 . S
H1673 C1649 0.949 . S
H1674 C1651 0.950 . S
H1675 C1653 0.950 . S
C1676 C1677 1.349 . S
C1676 C1678 1.327 . S
C1676 H1701 0.950 . S
C1677 C1676 1.349 . S
C1677 C1693 1.349 . S
C1678 C1676 1.327 . S
C1678 C1697 1.429 . S
C1678 H1702 0.950 . S
C1679 C1696 1.574 . S
C1679 C1698 1.368 . S
C1679 H1703 0.949 . S
H1680 C1684 0.949 . S
C1681 C1682 1.349 . S
C1681 C1683 1.327 . S
C1681 H1704 0.950 . S
C1682 C1681 1.349 . S
C1682 C1694 1.349 . S
C1683 C1681 1.327 . S
C1683 C1699 1.429 . S
C1683 H1705 0.950 . S
C1684 H1680 0.949 . S
C1684 C1692 1.574 . S
C1684 C1700 1.368 . S
H1685 C1693 0.950 . S
H1686 C1691 0.950 . S
H1687 C1692 0.949 . S
H1688 C1694 0.950 . S
H1689 C1695 0.950 . S
H1690 C1696 0.949 . S
C1691 H1686 0.950 . S
C1691 C1693 1.327 . S
C1691 C1697 1.429 . S
C1692 C1684 1.574 . S
C1692 H1687 0.949 . S
C1692 C1698 1.368 . S
C1693 C1677 1.349 . S
C1693 H1685 0.950 . S
C1693 C1691 1.327 . S
C1694 C1682 1.349 . S
C1694 H1688 0.950 . S
C1694 C1695 1.327 . S
C1695 H1689 0.950 . S
C1695 C1694 1.327 . S
C1695 C1699 1.429 . S
C1696 C1679 1.574 . S
C1696 H1690 0.949 . S
C1696 C1700 1.368 . S
C1697 C1678 1.429 . S
C1697 C1691 1.429 . S
C1697 C1698 1.523 . S
C1698 C1679 1.368 . S
C1698 C1692 1.368 . S
C1698 C1697 1.523 . S
C1699 C1683 1.429 . S
C1699 C1695 1.429 . S
C1699 C1700 1.523 . S
C1700 C1684 1.368 . S
C1700 C1696 1.368 . S
C1700 C1699 1.523 . S
H1701 C1676 0.950 . S
H1702 C1678 0.950 . S
H1703 C1679 0.949 . S
H1704 C1681 0.950 . S
H1705 C1683 0.950 . S
C1706 C1707 1.349 . S
C1706 C1708 1.327 . S
C1706 H1731 0.950 . S
C1707 C1706 1.349 . S
C1707 C1723 1.349 . S
C1708 C1706 1.327 . S
C1708 C1727 1.429 . S
C1708 H1732 0.950 . S
C1709 C1726 1.574 . S
C1709 C1728 1.368 . S
C1709 H1733 0.949 . S
H1710 C1714 0.949 . S
C1711 C1712 1.349 . S
C1711 C1713 1.327 1_556 S
C1711 H1734 0.950 . S
C1712 C1711 1.349 . S
C1712 C1724 1.349 1_556 S
C1713 C1711 1.327 1_554 S
C1713 C1729 1.429 . S
C1713 H1735 0.950 . S
C1714 H1710 0.949 . S
C1714 C1722 1.574 . S
C1714 C1730 1.368 . S
H1715 C1723 0.950 . S
H1716 C1721 0.950 . S
H1717 C1722 0.949 . S
H1718 C1724 0.950 . S
H1719 C1725 0.950 . S
H1720 C1726 0.949 . S
C1721 H1716 0.950 . S
C1721 C1723 1.327 . S
C1721 C1727 1.429 . S
C1722 C1714 1.574 . S
C1722 H1717 0.949 . S
C1722 C1728 1.368 . S
C1723 C1707 1.349 . S
C1723 H1715 0.950 . S
C1723 C1721 1.327 . S
C1724 C1712 1.349 1_554 S
C1724 H1718 0.950 . S
C1724 C1725 1.327 . S
C1725 H1719 0.950 . S
C1725 C1724 1.327 . S
C1725 C1729 1.429 . S
C1726 C1709 1.574 . S
C1726 H1720 0.949 . S
C1726 C1730 1.368 . S
C1727 C1708 1.429 . S
C1727 C1721 1.429 . S
C1727 C1728 1.523 . S
C1728 C1709 1.368 . S
C1728 C1722 1.368 . S
C1728 C1727 1.523 . S
C1729 C1713 1.429 . S
C1729 C1725 1.429 . S
C1729 C1730 1.523 . S
C1730 C1714 1.368 . S
C1730 C1726 1.368 . S
C1730 C1729 1.523 . S
H1731 C1706 0.950 . S
H1732 C1708 0.950 . S
H1733 C1709 0.949 . S
H1734 C1711 0.950 . S
H1735 C1713 0.950 . S
C1736 C1737 1.349 . S
C1736 C1738 1.327 . S
C1736 H1761 0.950 . S
C1737 C1736 1.349 . S
C1737 C1753 1.349 . S
C1738 C1736 1.327 . S
C1738 C1757 1.429 . S
C1738 H1762 0.950 . S
C1739 C1756 1.574 . S
C1739 C1758 1.368 . S
C1739 H1763 0.949 . S
H1740 C1744 0.949 . S
C1741 C1742 1.349 . S
C1741 C1743 1.327 . S
C1741 H1764 0.950 . S
C1742 C1741 1.349 . S
C1742 C1754 1.349 . S
C1743 C1741 1.327 . S
C1743 C1759 1.429 . S
C1743 H1765 0.950 . S
C1744 H1740 0.949 . S
C1744 C1752 1.574 . S
C1744 C1760 1.368 . S
H1745 C1753 0.950 . S
H1746 C1751 0.950 . S
H1747 C1752 0.949 . S
H1748 C1754 0.950 . S
H1749 C1755 0.950 . S
H1750 C1756 0.949 . S
C1751 H1746 0.950 . S
C1751 C1753 1.327 . S
C1751 C1757 1.429 . S
C1752 C1744 1.574 . S
C1752 H1747 0.949 . S
C1752 C1758 1.368 . S
C1753 C1737 1.349 . S
C1753 H1745 0.950 . S
C1753 C1751 1.327 . S
C1754 C1742 1.349 . S
C1754 H1748 0.950 . S
C1754 C1755 1.327 . S
C1755 H1749 0.950 . S
C1755 C1754 1.327 . S
C1755 C1759 1.429 . S
C1756 C1739 1.574 . S
C1756 H1750 0.949 . S
C1756 C1760 1.368 . S
C1757 C1738 1.429 . S
C1757 C1751 1.429 . S
C1757 C1758 1.523 . S
C1758 C1739 1.368 . S
C1758 C1752 1.368 . S
C1758 C1757 1.523 . S
C1759 C1743 1.429 . S
C1759 C1755 1.429 . S
C1759 C1760 1.523 . S
C1760 C1744 1.368 . S
C1760 C1756 1.368 . S
C1760 C1759 1.523 . S
H1761 C1736 0.950 . S
H1762 C1738 0.950 . S
H1763 C1739 0.949 . S
H1764 C1741 0.950 . S
H1765 C1743 0.950 . S
C1766 C1767 1.349 . S
C1766 C1768 1.327 . S
C1766 H1791 0.950 . S
C1767 C1766 1.349 . S
C1767 C1783 1.349 . S
C1768 C1766 1.327 . S
C1768 C1787 1.429 . S
C1768 H1792 0.950 . S
C1769 C1786 1.574 . S
C1769 C1788 1.368 . S
C1769 H1793 0.949 . S
H1770 C1774 0.949 . S
C1771 C1772 1.349 . S
C1771 C1773 1.327 . S
C1771 H1794 0.950 . S
C1772 C1771 1.349 . S
C1772 C1784 1.349 . S
C1773 C1771 1.327 . S
C1773 C1789 1.429 . S
C1773 H1795 0.950 . S
C1774 H1770 0.949 . S
C1774 C1782 1.574 . S
C1774 C1790 1.368 . S
H1775 C1783 0.950 . S
H1776 C1781 0.950 . S
H1777 C1782 0.949 . S
H1778 C1784 0.950 . S
H1779 C1785 0.950 . S
H1780 C1786 0.949 . S
C1781 H1776 0.950 . S
C1781 C1783 1.327 . S
C1781 C1787 1.429 . S
C1782 C1774 1.574 . S
C1782 H1777 0.949 . S
C1782 C1788 1.368 . S
C1783 C1767 1.349 . S
C1783 H1775 0.950 . S
C1783 C1781 1.327 . S
C1784 C1772 1.349 . S
C1784 H1778 0.950 . S
C1784 C1785 1.327 . S
C1785 H1779 0.950 . S
C1785 C1784 1.327 . S
C1785 C1789 1.429 . S
C1786 C1769 1.574 . S
C1786 H1780 0.949 . S
C1786 C1790 1.368 . S
C1787 C1768 1.429 . S
C1787 C1781 1.429 . S
C1787 C1788 1.523 . S
C1788 C1769 1.368 . S
C1788 C1782 1.368 . S
C1788 C1787 1.523 . S
C1789 C1773 1.429 . S
C1789 C1785 1.429 . S
C1789 C1790 1.523 . S
C1790 C1774 1.368 . S
C1790 C1786 1.368 . S
C1790 C1789 1.523 . S
H1791 C1766 0.950 . S
H1792 C1768 0.950 . S
H1793 C1769 0.949 . S
H1794 C1771 0.950 . S
H1795 C1773 0.950 . S
C1796 C1797 1.349 . S
C1796 C1798 1.327 . S
C1796 H1821 0.950 . S
C1797 C1796 1.349 . S
C1797 C1813 1.349 . S
C1798 C1796 1.327 . S
C1798 C1817 1.429 . S
C1798 H1822 0.950 . S
C1799 C1816 1.574 . S
C1799 C1818 1.368 1_556 S
C1799 H1823 0.949 . S
H1800 C1804 0.949 . S
C1801 C1802 1.349 . S
C1801 C1803 1.327 . S
C1801 H1824 0.950 . S
C1802 C1801 1.349 . S
C1802 C1814 1.349 . S
C1803 C1801 1.327 . S
C1803 C1819 1.429 . S
C1803 H1825 0.950 . S
C1804 H1800 0.949 . S
C1804 C1812 1.574 1_556 S
C1804 C1820 1.368 . S
H1805 C1813 0.950 . S
H1806 C1811 0.950 . S
H1807 C1812 0.949 . S
H1808 C1814 0.950 . S
H1809 C1815 0.950 . S
H1810 C1816 0.949 . S
C1811 H1806 0.950 . S
C1811 C1813 1.327 . S
C1811 C1817 1.429 . S
C1812 C1804 1.574 1_554 S
C1812 H1807 0.949 . S
C1812 C1818 1.368 . S
C1813 C1797 1.349 . S
C1813 H1805 0.950 . S
C1813 C1811 1.327 . S
C1814 C1802 1.349 . S
C1814 H1808 0.950 . S
C1814 C1815 1.327 . S
C1815 H1809 0.950 . S
C1815 C1814 1.327 . S
C1815 C1819 1.429 . S
C1816 C1799 1.574 . S
C1816 H1810 0.949 . S
C1816 C1820 1.368 . S
C1817 C1798 1.429 . S
C1817 C1811 1.429 . S
C1817 C1818 1.523 . S
C1818 C1799 1.368 1_554 S
C1818 C1812 1.368 . S
C1818 C1817 1.523 . S
C1819 C1803 1.429 . S
C1819 C1815 1.429 . S
C1819 C1820 1.523 . S
C1820 C1804 1.368 . S
C1820 C1816 1.368 . S
C1820 C1819 1.523 . S
H1821 C1796 0.950 . S
H1822 C1798 0.950 . S
H1823 C1799 0.949 . S
H1824 C1801 0.950 . S
H1825 C1803 0.950 . S
C1826 C1827 1.349 . S
C1826 C1828 1.327 . S
C1826 H1851 0.950 . S
C1827 C1826 1.349 . S
C1827 C1843 1.349 . S
C1828 C1826 1.327 . S
C1828 C1847 1.429 . S
C1828 H1852 0.950 . S
C1829 C1846 1.574 . S
C1829 C1848 1.368 1_655 S
C1829 H1853 0.949 . S
H1830 C1834 0.949 . S
C1831 C1832 1.349 1_556 S
C1831 C1833 1.327 . S
C1831 H1854 0.950 . S
C1832 C1831 1.349 1_554 S
C1832 C1844 1.349 . S
C1833 C1831 1.327 . S
C1833 C1849 1.429 . S
C1833 H1855 0.950 . S
C1834 H1830 0.949 . S
C1834 C1842 1.574 . S
C1834 C1850 1.368 1_455 S
H1835 C1843 0.950 . S
H1836 C1841 0.950 . S
H1837 C1842 0.949 . S
H1838 C1844 0.950 . S
H1839 C1845 0.950 . S
H1840 C1846 0.949 . S
C1841 H1836 0.950 . S
C1841 C1843 1.327 . S
C1841 C1847 1.429 . S
C1842 C1834 1.574 . S
C1842 H1837 0.949 . S
C1842 C1848 1.368 . S
C1843 C1827 1.349 . S
C1843 H1835 0.950 . S
C1843 C1841 1.327 . S
C1844 C1832 1.349 . S
C1844 H1838 0.950 . S
C1844 C1845 1.327 1_554 S
C1845 H1839 0.950 . S
C1845 C1844 1.327 1_556 S
C1845 C1849 1.429 . S
C1846 C1829 1.574 . S
C1846 H1840 0.949 . S
C1846 C1850 1.368 . S
C1847 C1828 1.429 . S
C1847 C1841 1.429 . S
C1847 C1848 1.523 . S
C1848 C1829 1.368 1_455 S
C1848 C1842 1.368 . S
C1848 C1847 1.523 . S
C1849 C1833 1.429 . S
C1849 C1845 1.429 . S
C1849 C1850 1.523 . S
C1850 C1834 1.368 1_655 S
C1850 C1846 1.368 . S
C1850 C1849 1.523 . S
H1851 C1826 0.950 . S
H1852 C1828 0.950 . S
H1853 C1829 0.949 . S
H1854 C1831 0.950 . S
H1855 C1833 0.950 . S
C1856 C1857 1.349 . S
C1856 C1858 1.327 . S
C1856 H1881 0.950 . S
C1857 C1856 1.349 . S
C1857 C1873 1.349 . S
C1858 C1856 1.327 . S
C1858 C1877 1.429 . S
C1858 H1882 0.950 . S
C1859 C1876 1.574 . S
C1859 C1878 1.368 . S
C1859 H1883 0.949 . S
H1860 C1864 0.949 . S
C1861 C1862 1.349 . S
C1861 C1863 1.327 . S
C1861 H1884 0.950 . S
C1862 C1861 1.349 . S
C1862 C1874 1.349 . S
C1863 C1861 1.327 . S
C1863 C1879 1.429 . S
C1863 H1885 0.950 . S
C1864 H1860 0.949 . S
C1864 C1872 1.574 . S
C1864 C1880 1.368 . S
H1865 C1873 0.950 . S
H1866 C1871 0.950 . S
H1867 C1872 0.949 . S
H1868 C1874 0.950 . S
H1869 C1875 0.950 . S
H1870 C1876 0.949 . S
C1871 H1866 0.950 . S
C1871 C1873 1.327 . S
C1871 C1877 1.429 . S
C1872 C1864 1.574 . S
C1872 H1867 0.949 . S
C1872 C1878 1.368 . S
C1873 C1857 1.349 . S
C1873 H1865 0.950 . S
C1873 C1871 1.327 . S
C1874 C1862 1.349 . S
C1874 H1868 0.950 . S
C1874 C1875 1.327 . S
C1875 H1869 0.950 . S
C1875 C1874 1.327 . S
C1875 C1879 1.429 . S
C1876 C1859 1.574 . S
C1876 H1870 0.949 . S
C1876 C1880 1.368 . S
C1877 C1858 1.429 . S
C1877 C1871 1.429 . S
C1877 C1878 1.523 . S
C1878 C1859 1.368 . S
C1878 C1872 1.368 . S
C1878 C1877 1.523 . S
C1879 C1863 1.429 . S
C1879 C1875 1.429 . S
C1879 C1880 1.523 . S
C1880 C1864 1.368 . S
C1880 C1876 1.368 . S
C1880 C1879 1.523 . S
H1881 C1856 0.950 . S
H1882 C1858 0.950 . S
H1883 C1859 0.949 . S
H1884 C1861 0.950 . S
H1885 C1863 0.950 . S
C1886 C1887 1.349 . S
C1886 C1888 1.327 . S
C1886 H1911 0.950 . S
C1887 C1886 1.349 . S
C1887 C1903 1.349 . S
C1888 C1886 1.327 . S
C1888 C1907 1.429 . S
C1888 H1912 0.950 . S
C1889 C1906 1.574 . S
C1889 C1908 1.368 . S
C1889 H1913 0.949 . S
H1890 C1894 0.949 . S
C1891 C1892 1.349 . S
C1891 C1893 1.327 1_554 S
C1891 H1914 0.950 . S
C1892 C1891 1.349 . S
C1892 C1904 1.349 1_554 S
C1893 C1891 1.327 1_556 S
C1893 C1909 1.429 . S
C1893 H1915 0.950 . S
C1894 H1890 0.949 . S
C1894 C1902 1.574 . S
C1894 C1910 1.368 . S
H1895 C1903 0.950 . S
H1896 C1901 0.950 . S
H1897 C1902 0.949 . S
H1898 C1904 0.950 . S
H1899 C1905 0.950 . S
H1900 C1906 0.949 . S
C1901 H1896 0.950 . S
C1901 C1903 1.327 . S
C1901 C1907 1.429 . S
C1902 C1894 1.574 . S
C1902 H1897 0.949 . S
C1902 C1908 1.368 . S
C1903 C1887 1.349 . S
C1903 H1895 0.950 . S
C1903 C1901 1.327 . S
C1904 C1892 1.349 1_556 S
C1904 H1898 0.950 . S
C1904 C1905 1.327 . S
C1905 H1899 0.950 . S
C1905 C1904 1.327 . S
C1905 C1909 1.429 . S
C1906 C1889 1.574 . S
C1906 H1900 0.949 . S
C1906 C1910 1.368 . S
C1907 C1888 1.429 . S
C1907 C1901 1.429 . S
C1907 C1908 1.523 . S
C1908 C1889 1.368 . S
C1908 C1902 1.368 . S
C1908 C1907 1.523 . S
C1909 C1893 1.429 . S
C1909 C1905 1.429 . S
C1909 C1910 1.523 . S
C1910 C1894 1.368 . S
C1910 C1906 1.368 . S
C1910 C1909 1.523 . S
H1911 C1886 0.950 . S
H1912 C1888 0.950 . S
H1913 C1889 0.949 . S
H1914 C1891 0.950 . S
H1915 C1893 0.950 . S
C1916 C1917 1.349 . S
C1916 C1918 1.327 . S
C1916 H1941 0.950 . S
C1917 C1916 1.349 . S
C1917 C1933 1.349 . S
C1918 C1916 1.327 . S
C1918 C1937 1.429 . S
C1918 H1942 0.950 . S
C1919 C1936 1.574 1_554 S
C1919 C1938 1.368 . S
C1919 H1943 0.949 . S
H1920 C1924 0.949 . S
C1921 C1922 1.349 . S
C1921 C1923 1.327 . S
C1921 H1944 0.950 . S
C1922 C1921 1.349 . S
C1922 C1934 1.349 . S
C1923 C1921 1.327 . S
C1923 C1939 1.429 . S
C1923 H1945 0.950 . S
C1924 H1920 0.949 . S
C1924 C1932 1.574 1_556 S
C1924 C1940 1.368 . S
H1925 C1933 0.950 . S
H1926 C1931 0.950 . S
H1927 C1932 0.949 . S
H1928 C1934 0.950 . S
H1929 C1935 0.950 . S
H1930 C1936 0.949 . S
C1931 H1926 0.950 . S
C1931 C1933 1.327 . S
C1931 C1937 1.429 . S
C1932 C1924 1.574 1_554 S
C1932 H1927 0.949 . S
C1932 C1938 1.368 . S
C1933 C1917 1.349 . S
C1933 H1925 0.950 . S
C1933 C1931 1.327 . S
C1934 C1922 1.349 . S
C1934 H1928 0.950 . S
C1934 C1935 1.327 . S
C1935 H1929 0.950 . S
C1935 C1934 1.327 . S
C1935 C1939 1.429 . S
C1936 C1919 1.574 1_556 S
C1936 H1930 0.949 . S
C1936 C1940 1.368 . S
C1937 C1918 1.429 . S
C1937 C1931 1.429 . S
C1937 C1938 1.523 . S
C1938 C1919 1.368 . S
C1938 C1932 1.368 . S
C1938 C1937 1.523 . S
C1939 C1923 1.429 . S
C1939 C1935 1.429 . S
C1939 C1940 1.523 . S
C1940 C1924 1.368 . S
C1940 C1936 1.368 . S
C1940 C1939 1.523 . S
H1941 C1916 0.950 . S
H1942 C1918 0.950 . S
H1943 C1919 0.949 . S
H1944 C1921 0.950 . S
H1945 C1923 0.950 . S
C1946 C1947 1.349 . S
C1946 C1948 1.327 . S
C1946 H1971 0.950 . S
C1947 C1946 1.349 . S
C1947 C1963 1.349 . S
C1948 C1946 1.327 . S
C1948 C1967 1.429 . S
C1948 H1972 0.950 . S
C1949 C1966 1.574 . S
C1949 C1968 1.368 . S
C1949 H1973 0.949 . S
H1950 C1954 0.949 . S
C1951 C1952 1.349 . S
C1951 C1953 1.327 . S
C1951 H1974 0.950 . S
C1952 C1951 1.349 . S
C1952 C1964 1.349 . S
C1953 C1951 1.327 . S
C1953 C1969 1.429 . S
C1953 H1975 0.950 . S
C1954 H1950 0.949 . S
C1954 C1962 1.574 . S
C1954 C1970 1.368 . S
H1955 C1963 0.950 . S
H1956 C1961 0.950 . S
H1957 C1962 0.949 . S
H1958 C1964 0.950 . S
H1959 C1965 0.950 . S
H1960 C1966 0.949 . S
C1961 H1956 0.950 . S
C1961 C1963 1.327 . S
C1961 C1967 1.429 . S
C1962 C1954 1.574 . S
C1962 H1957 0.949 . S
C1962 C1968 1.368 1_455 S
C1963 C1947 1.349 . S
C1963 H1955 0.950 . S
C1963 C1961 1.327 . S
C1964 C1952 1.349 . S
C1964 H1958 0.950 . S
C1964 C1965 1.327 . S
C1965 H1959 0.950 . S
C1965 C1964 1.327 . S
C1965 C1969 1.429 . S
C1966 C1949 1.574 . S
C1966 H1960 0.949 . S
C1966 C1970 1.368 1_655 S
C1967 C1948 1.429 . S
C1967 C1961 1.429 . S
C1967 C1968 1.523 . S
C1968 C1949 1.368 . S
C1968 C1962 1.368 1_655 S
C1968 C1967 1.523 . S
C1969 C1953 1.429 . S
C1969 C1965 1.429 . S
C1969 C1970 1.523 . S
C1970 C1954 1.368 . S
C1970 C1966 1.368 1_455 S
C1970 C1969 1.523 . S
H1971 C1946 0.950 . S
H1972 C1948 0.950 . S
H1973 C1949 0.949 . S
H1974 C1951 0.950 . S
H1975 C1953 0.950 . S
C1976 C1977 1.349 . S
C1976 C1978 1.327 . S
C1976 H2001 0.950 . S
C1977 C1976 1.349 . S
C1977 C1993 1.349 . S
C1978 C1976 1.327 . S
C1978 C1997 1.429 . S
C1978 H2002 0.950 . S
C1979 C1996 1.574 1_556 S
C1979 C1998 1.368 . S
C1979 H2003 0.949 . S
H1980 C1984 0.949 . S
C1981 C1982 1.349 . S
C1981 C1983 1.327 . S
C1981 H2004 0.950 . S
C1982 C1981 1.349 . S
C1982 C1994 1.349 . S
C1983 C1981 1.327 . S
C1983 C1999 1.429 . S
C1983 H2005 0.950 . S
C1984 H1980 0.949 . S
C1984 C1992 1.574 . S
C1984 C2000 1.368 . S
H1985 C1993 0.950 . S
H1986 C1991 0.950 . S
H1987 C1992 0.949 . S
H1988 C1994 0.950 . S
H1989 C1995 0.950 . S
H1990 C1996 0.949 . S
C1991 H1986 0.950 . S
C1991 C1993 1.327 . S
C1991 C1997 1.429 . S
C1992 C1984 1.574 . S
C1992 H1987 0.949 . S
C1992 C1998 1.368 1_554 S
C1993 C1977 1.349 . S
C1993 H1985 0.950 . S
C1993 C1991 1.327 . S
C1994 C1982 1.349 . S
C1994 H1988 0.950 . S
C1994 C1995 1.327 . S
C1995 H1989 0.950 . S
C1995 C1994 1.327 . S
C1995 C1999 1.429 . S
C1996 C1979 1.574 1_554 S
C1996 H1990 0.949 . S
C1996 C2000 1.368 . S
C1997 C1978 1.429 . S
C1997 C1991 1.429 . S
C1997 C1998 1.523 . S
C1998 C1979 1.368 . S
C1998 C1992 1.368 1_556 S
C1998 C1997 1.523 . S
C1999 C1983 1.429 . S
C1999 C1995 1.429 . S
C1999 C2000 1.523 . S
C2000 C1984 1.368 . S
C2000 C1996 1.368 . S
C2000 C1999 1.523 . S
H2001 C1976 0.950 . S
H2002 C1978 0.950 . S
H2003 C1979 0.949 . S
H2004 C1981 0.950 . S
H2005 C1983 0.950 . S
C2006 C2007 1.349 . S
C2006 C2008 1.327 1_556 S
C2006 H2031 0.950 . S
C2007 C2006 1.349 . S
C2007 C2023 1.349 1_556 S
C2008 C2006 1.327 1_554 S
C2008 C2027 1.429 . S
C2008 H2032 0.950 . S
C2009 C2026 1.574 . S
C2009 C2028 1.368 . S
C2009 H2033 0.949 . S
H2010 C2014 0.949 . S
C2011 C2012 1.349 . S
C2011 C2013 1.327 . S
C2011 H2034 0.950 . S
C2012 C2011 1.349 . S
C2012 C2024 1.349 . S
C2013 C2011 1.327 . S
C2013 C2029 1.429 . S
C2013 H2035 0.950 . S
C2014 H2010 0.949 . S
C2014 C2022 1.574 . S
C2014 C2030 1.368 . S
H2015 C2023 0.950 . S
H2016 C2021 0.950 . S
H2017 C2022 0.949 . S
H2018 C2024 0.950 . S
H2019 C2025 0.950 . S
H2020 C2026 0.949 . S
C2021 H2016 0.950 . S
C2021 C2023 1.327 . S
C2021 C2027 1.429 . S
C2022 C2014 1.574 . S
C2022 H2017 0.949 . S
C2022 C2028 1.368 1_455 S
C2023 C2007 1.349 1_554 S
C2023 H2015 0.950 . S
C2023 C2021 1.327 . S
C2024 C2012 1.349 . S
C2024 H2018 0.950 . S
C2024 C2025 1.327 . S
C2025 H2019 0.950 . S
C2025 C2024 1.327 . S
C2025 C2029 1.429 . S
C2026 C2009 1.574 . S
C2026 H2020 0.949 . S
C2026 C2030 1.368 1_655 S
C2027 C2008 1.429 . S
C2027 C2021 1.429 . S
C2027 C2028 1.523 . S
C2028 C2009 1.368 . S
C2028 C2022 1.368 1_655 S
C2028 C2027 1.523 . S
C2029 C2013 1.429 . S
C2029 C2025 1.429 . S
C2029 C2030 1.523 . S
C2030 C2014 1.368 . S
C2030 C2026 1.368 1_455 S
C2030 C2029 1.523 . S
H2031 C2006 0.950 . S
H2032 C2008 0.950 . S
H2033 C2009 0.949 . S
H2034 C2011 0.950 . S
H2035 C2013 0.950 . S
C2036 C2037 1.349 . S
C2036 C2038 1.327 . S
C2036 H2061 0.950 . S
C2037 C2036 1.349 . S
C2037 C2053 1.349 . S
C2038 C2036 1.327 . S
C2038 C2057 1.429 . S
C2038 H2062 0.950 . S
C2039 C2056 1.574 . S
C2039 C2058 1.368 . S
C2039 H2063 0.949 . S
H2040 C2044 0.949 . S
C2041 C2042 1.349 . S
C2041 C2043 1.327 . S
C2041 H2064 0.950 . S
C2042 C2041 1.349 . S
C2042 C2054 1.349 . S
C2043 C2041 1.327 . S
C2043 C2059 1.429 . S
C2043 H2065 0.950 . S
C2044 H2040 0.949 . S
C2044 C2052 1.574 . S
C2044 C2060 1.368 . S
H2045 C2053 0.950 . S
H2046 C2051 0.950 . S
H2047 C2052 0.949 . S
H2048 C2054 0.950 . S
H2049 C2055 0.950 . S
H2050 C2056 0.949 . S
C2051 H2046 0.950 . S
C2051 C2053 1.327 . S
C2051 C2057 1.429 . S
C2052 C2044 1.574 . S
C2052 H2047 0.949 . S
C2052 C2058 1.368 . S
C2053 C2037 1.349 . S
C2053 H2045 0.950 . S
C2053 C2051 1.327 . S
C2054 C2042 1.349 . S
C2054 H2048 0.950 . S
C2054 C2055 1.327 . S
C2055 H2049 0.950 . S
C2055 C2054 1.327 . S
C2055 C2059 1.429 . S
C2056 C2039 1.574 . S
C2056 H2050 0.949 . S
C2056 C2060 1.368 . S
C2057 C2038 1.429 . S
C2057 C2051 1.429 . S
C2057 C2058 1.523 . S
C2058 C2039 1.368 . S
C2058 C2052 1.368 . S
C2058 C2057 1.523 . S
C2059 C2043 1.429 . S
C2059 C2055 1.429 . S
C2059 C2060 1.523 . S
C2060 C2044 1.368 . S
C2060 C2056 1.368 . S
C2060 C2059 1.523 . S
H2061 C2036 0.950 . S
H2062 C2038 0.950 . S
H2063 C2039 0.949 . S
H2064 C2041 0.950 . S
H2065 C2043 0.950 . S
C2066 C2067 1.349 . S
C2066 C2068 1.327 . S
C2066 H2091 0.950 . S
C2067 C2066 1.349 . S
C2067 C2083 1.349 . S
C2068 C2066 1.327 . S
C2068 C2087 1.429 . S
C2068 H2092 0.950 . S
C2069 C2086 1.574 . S
C2069 C2088 1.368 . S
C2069 H2093 0.949 . S
H2070 C2074 0.949 . S
C2071 C2072 1.349 . S
C2071 C2073 1.327 . S
C2071 H2094 0.950 . S
C2072 C2071 1.349 . S
C2072 C2084 1.349 . S
C2073 C2071 1.327 . S
C2073 C2089 1.429 . S
C2073 H2095 0.950 . S
C2074 H2070 0.949 . S
C2074 C2082 1.574 . S
C2074 C2090 1.368 . S
H2075 C2083 0.950 . S
H2076 C2081 0.950 . S
H2077 C2082 0.949 . S
H2078 C2084 0.950 . S
H2079 C2085 0.950 . S
H2080 C2086 0.949 . S
C2081 H2076 0.950 . S
C2081 C2083 1.327 . S
C2081 C2087 1.429 . S
C2082 C2074 1.574 . S
C2082 H2077 0.949 . S
C2082 C2088 1.368 . S
C2083 C2067 1.349 . S
C2083 H2075 0.950 . S
C2083 C2081 1.327 . S
C2084 C2072 1.349 . S
C2084 H2078 0.950 . S
C2084 C2085 1.327 . S
C2085 H2079 0.950 . S
C2085 C2084 1.327 . S
C2085 C2089 1.429 . S
C2086 C2069 1.574 . S
C2086 H2080 0.949 . S
C2086 C2090 1.368 . S
C2087 C2068 1.429 . S
C2087 C2081 1.429 . S
C2087 C2088 1.523 . S
C2088 C2069 1.368 . S
C2088 C2082 1.368 . S
C2088 C2087 1.523 . S
C2089 C2073 1.429 . S
C2089 C2085 1.429 . S
C2089 C2090 1.523 . S
C2090 C2074 1.368 . S
C2090 C2086 1.368 . S
C2090 C2089 1.523 . S
H2091 C2066 0.950 . S
H2092 C2068 0.950 . S
H2093 C2069 0.949 . S
H2094 C2071 0.950 . S
H2095 C2073 0.950 . S
C2096 C2097 1.349 . S
C2096 C2098 1.327 . S
C2096 H2121 0.950 . S
C2097 C2096 1.349 . S
C2097 C2113 1.349 . S
C2098 C2096 1.327 . S
C2098 C2117 1.429 . S
C2098 H2122 0.950 . S
C2099 C2116 1.574 . S
C2099 C2118 1.368 . S
C2099 H2123 0.949 . S
H2100 C2104 0.949 . S
C2101 C2102 1.349 . S
C2101 C2103 1.327 . S
C2101 H2124 0.950 . S
C2102 C2101 1.349 . S
C2102 C2114 1.349 . S
C2103 C2101 1.327 . S
C2103 C2119 1.429 . S
C2103 H2125 0.950 . S
C2104 H2100 0.949 . S
C2104 C2112 1.574 . S
C2104 C2120 1.368 . S
H2105 C2113 0.950 . S
H2106 C2111 0.950 . S
H2107 C2112 0.949 . S
H2108 C2114 0.950 . S
H2109 C2115 0.950 . S
H2110 C2116 0.949 . S
C2111 H2106 0.950 . S
C2111 C2113 1.327 . S
C2111 C2117 1.429 . S
C2112 C2104 1.574 . S
C2112 H2107 0.949 . S
C2112 C2118 1.368 . S
C2113 C2097 1.349 . S
C2113 H2105 0.950 . S
C2113 C2111 1.327 . S
C2114 C2102 1.349 . S
C2114 H2108 0.950 . S
C2114 C2115 1.327 . S
C2115 H2109 0.950 . S
C2115 C2114 1.327 . S
C2115 C2119 1.429 . S
C2116 C2099 1.574 . S
C2116 H2110 0.949 . S
C2116 C2120 1.368 . S
C2117 C2098 1.429 . S
C2117 C2111 1.429 . S
C2117 C2118 1.523 . S
C2118 C2099 1.368 . S
C2118 C2112 1.368 . S
C2118 C2117 1.523 . S
C2119 C2103 1.429 . S
C2119 C2115 1.429 . S
C2119 C2120 1.523 . S
C2120 C2104 1.368 . S
C2120 C2116 1.368 . S
C2120 C2119 1.523 . S
H2121 C2096 0.950 . S
H2122 C2098 0.950 . S
H2123 C2099 0.949 . S
H2124 C2101 0.950 . S
H2125 C2103 0.950 . S
C2126 C2127 1.349 . S
C2126 C2128 1.327 . S
C2126 H2151 0.950 . S
C2127 C2126 1.349 . S
C2127 C2143 1.349 . S
C2128 C2126 1.327 . S
C2128 C2147 1.429 . S
C2128 H2152 0.950 . S
C2129 C2146 1.574 . S
C2129 C2148 1.368 . S
C2129 H2153 0.949 . S
H2130 C2134 0.949 . S
C2131 C2132 1.349 . S
C2131 C2133 1.327 1_556 S
C2131 H2154 0.950 . S
C2132 C2131 1.349 . S
C2132 C2144 1.349 1_556 S
C2133 C2131 1.327 1_554 S
C2133 C2149 1.429 . S
C2133 H2155 0.950 . S
C2134 H2130 0.949 . S
C2134 C2142 1.574 . S
C2134 C2150 1.368 . S
H2135 C2143 0.950 . S
H2136 C2141 0.950 . S
H2137 C2142 0.949 . S
H2138 C2144 0.950 . S
H2139 C2145 0.950 . S
H2140 C2146 0.949 . S
C2141 H2136 0.950 . S
C2141 C2143 1.327 . S
C2141 C2147 1.429 . S
C2142 C2134 1.574 . S
C2142 H2137 0.949 . S
C2142 C2148 1.368 . S
C2143 C2127 1.349 . S
C2143 H2135 0.950 . S
C2143 C2141 1.327 . S
C2144 C2132 1.349 1_554 S
C2144 H2138 0.950 . S
C2144 C2145 1.327 . S
C2145 H2139 0.950 . S
C2145 C2144 1.327 . S
C2145 C2149 1.429 . S
C2146 C2129 1.574 . S
C2146 H2140 0.949 . S
C2146 C2150 1.368 . S
C2147 C2128 1.429 . S
C2147 C2141 1.429 . S
C2147 C2148 1.523 . S
C2148 C2129 1.368 . S
C2148 C2142 1.368 . S
C2148 C2147 1.523 . S
C2149 C2133 1.429 . S
C2149 C2145 1.429 . S
C2149 C2150 1.523 . S
C2150 C2134 1.368 . S
C2150 C2146 1.368 . S
C2150 C2149 1.523 . S
H2151 C2126 0.950 . S
H2152 C2128 0.950 . S
H2153 C2129 0.949 . S
H2154 C2131 0.950 . S
H2155 C2133 0.950 . S
C2156 C2157 1.349 . S
C2156 C2158 1.327 . S
C2156 H2181 0.950 . S
C2157 C2156 1.349 . S
C2157 C2173 1.349 . S
C2158 C2156 1.327 . S
C2158 C2177 1.429 . S
C2158 H2182 0.950 . S
C2159 C2176 1.574 1_554 S
C2159 C2178 1.368 . S
C2159 H2183 0.949 . S
H2160 C2164 0.949 . S
C2161 C2162 1.349 . S
C2161 C2163 1.327 . S
C2161 H2184 0.950 . S
C2162 C2161 1.349 . S
C2162 C2174 1.349 . S
C2163 C2161 1.327 . S
C2163 C2179 1.429 . S
C2163 H2185 0.950 . S
C2164 H2160 0.949 . S
C2164 C2172 1.574 1_556 S
C2164 C2180 1.368 . S
H2165 C2173 0.950 . S
H2166 C2171 0.950 . S
H2167 C2172 0.949 . S
H2168 C2174 0.950 . S
H2169 C2175 0.950 . S
H2170 C2176 0.949 . S
C2171 H2166 0.950 . S
C2171 C2173 1.327 . S
C2171 C2177 1.429 . S
C2172 C2164 1.574 1_554 S
C2172 H2167 0.949 . S
C2172 C2178 1.368 . S
C2173 C2157 1.349 . S
C2173 H2165 0.950 . S
C2173 C2171 1.327 . S
C2174 C2162 1.349 . S
C2174 H2168 0.950 . S
C2174 C2175 1.327 . S
C2175 H2169 0.950 . S
C2175 C2174 1.327 . S
C2175 C2179 1.429 . S
C2176 C2159 1.574 1_556 S
C2176 H2170 0.949 . S
C2176 C2180 1.368 . S
C2177 C2158 1.429 . S
C2177 C2171 1.429 . S
C2177 C2178 1.523 . S
C2178 C2159 1.368 . S
C2178 C2172 1.368 . S
C2178 C2177 1.523 . S
C2179 C2163 1.429 . S
C2179 C2175 1.429 . S
C2179 C2180 1.523 . S
C2180 C2164 1.368 . S
C2180 C2176 1.368 . S
C2180 C2179 1.523 . S
H2181 C2156 0.950 . S
H2182 C2158 0.950 . S
H2183 C2159 0.949 . S
H2184 C2161 0.950 . S
H2185 C2163 0.950 . S
C2186 C2187 1.349 . S
C2186 C2188 1.327 . S
C2186 H2211 0.950 . S
C2187 C2186 1.349 . S
C2187 C2203 1.349 . S
C2188 C2186 1.327 . S
C2188 C2207 1.429 . S
C2188 H2212 0.950 . S
C2189 C2206 1.574 . S
C2189 C2208 1.368 1_655 S
C2189 H2213 0.949 . S
H2190 C2194 0.949 . S
C2191 C2192 1.349 . S
C2191 C2193 1.327 . S
C2191 H2214 0.950 . S
C2192 C2191 1.349 . S
C2192 C2204 1.349 . S
C2193 C2191 1.327 . S
C2193 C2209 1.429 . S
C2193 H2215 0.950 . S
C2194 H2190 0.949 . S
C2194 C2202 1.574 . S
C2194 C2210 1.368 1_455 S
H2195 C2203 0.950 . S
H2196 C2201 0.950 . S
H2197 C2202 0.949 . S
H2198 C2204 0.950 . S
H2199 C2205 0.950 . S
H2200 C2206 0.949 . S
C2201 H2196 0.950 . S
C2201 C2203 1.327 . S
C2201 C2207 1.429 . S
C2202 C2194 1.574 . S
C2202 H2197 0.949 . S
C2202 C2208 1.368 . S
C2203 C2187 1.349 . S
C2203 H2195 0.950 . S
C2203 C2201 1.327 . S
C2204 C2192 1.349 . S
C2204 H2198 0.950 . S
C2204 C2205 1.327 . S
C2205 H2199 0.950 . S
C2205 C2204 1.327 . S
C2205 C2209 1.429 . S
C2206 C2189 1.574 . S
C2206 H2200 0.949 . S
C2206 C2210 1.368 . S
C2207 C2188 1.429 . S
C2207 C2201 1.429 . S
C2207 C2208 1.523 . S
C2208 C2189 1.368 1_455 S
C2208 C2202 1.368 . S
C2208 C2207 1.523 . S
C2209 C2193 1.429 . S
C2209 C2205 1.429 . S
C2209 C2210 1.523 . S
C2210 C2194 1.368 1_655 S
C2210 C2206 1.368 . S
C2210 C2209 1.523 . S
H2211 C2186 0.950 . S
H2212 C2188 0.950 . S
H2213 C2189 0.949 . S
H2214 C2191 0.950 . S
H2215 C2193 0.950 . S
C2216 C2217 1.349 . S
C2216 C2218 1.327 . S
C2216 H2241 0.950 . S
C2217 C2216 1.349 . S
C2217 C2233 1.349 . S
C2218 C2216 1.327 . S
C2218 C2237 1.429 . S
C2218 H2242 0.950 . S
C2219 C2236 1.574 . S
C2219 C2238 1.368 1_556 S
C2219 H2243 0.949 . S
H2220 C2224 0.949 . S
C2221 C2222 1.349 . S
C2221 C2223 1.327 . S
C2221 H2244 0.950 . S
C2222 C2221 1.349 . S
C2222 C2234 1.349 . S
C2223 C2221 1.327 . S
C2223 C2239 1.429 . S
C2223 H2245 0.950 . S
C2224 H2220 0.949 . S
C2224 C2232 1.574 1_556 S
C2224 C2240 1.368 . S
H2225 C2233 0.950 . S
H2226 C2231 0.950 . S
H2227 C2232 0.949 . S
H2228 C2234 0.950 . S
H2229 C2235 0.950 . S
H2230 C2236 0.949 . S
C2231 H2226 0.950 . S
C2231 C2233 1.327 . S
C2231 C2237 1.429 . S
C2232 C2224 1.574 1_554 S
C2232 H2227 0.949 . S
C2232 C2238 1.368 . S
C2233 C2217 1.349 . S
C2233 H2225 0.950 . S
C2233 C2231 1.327 . S
C2234 C2222 1.349 . S
C2234 H2228 0.950 . S
C2234 C2235 1.327 . S
C2235 H2229 0.950 . S
C2235 C2234 1.327 . S
C2235 C2239 1.429 . S
C2236 C2219 1.574 . S
C2236 H2230 0.949 . S
C2236 C2240 1.368 . S
C2237 C2218 1.429 . S
C2237 C2231 1.429 . S
C2237 C2238 1.523 . S
C2238 C2219 1.368 1_554 S
C2238 C2232 1.368 . S
C2238 C2237 1.523 . S
C2239 C2223 1.429 . S
C2239 C2235 1.429 . S
C2239 C2240 1.523 . S
C2240 C2224 1.368 . S
C2240 C2236 1.368 . S
C2240 C2239 1.523 . S
H2241 C2216 0.950 . S
H2242 C2218 0.950 . S
H2243 C2219 0.949 . S
H2244 C2221 0.950 . S
H2245 C2223 0.950 . S
C2246 C2247 1.349 . S
C2246 C2248 1.327 . S
C2246 H2271 0.950 . S
C2247 C2246 1.349 . S
C2247 C2263 1.349 . S
C2248 C2246 1.327 . S
C2248 C2267 1.429 . S
C2248 H2272 0.950 . S
C2249 C2266 1.574 . S
C2249 C2268 1.368 1_455 S
C2249 H2273 0.949 . S
H2250 C2254 0.949 . S
C2251 C2252 1.349 1_556 S
C2251 C2253 1.327 . S
C2251 H2274 0.950 . S
C2252 C2251 1.349 1_554 S
C2252 C2264 1.349 . S
C2253 C2251 1.327 . S
C2253 C2269 1.429 . S
C2253 H2275 0.950 . S
C2254 H2250 0.949 . S
C2254 C2262 1.574 . S
C2254 C2270 1.368 1_655 S
H2255 C2263 0.950 . S
H2256 C2261 0.950 . S
H2257 C2262 0.949 . S
H2258 C2264 0.950 . S
H2259 C2265 0.950 . S
H2260 C2266 0.949 . S
C2261 H2256 0.950 . S
C2261 C2263 1.327 . S
C2261 C2267 1.429 . S
C2262 C2254 1.574 . S
C2262 H2257 0.949 . S
C2262 C2268 1.368 . S
C2263 C2247 1.349 . S
C2263 H2255 0.950 . S
C2263 C2261 1.327 . S
C2264 C2252 1.349 . S
C2264 H2258 0.950 . S
C2264 C2265 1.327 1_554 S
C2265 H2259 0.950 . S
C2265 C2264 1.327 1_556 S
C2265 C2269 1.429 . S
C2266 C2249 1.574 . S
C2266 H2260 0.949 . S
C2266 C2270 1.368 . S
C2267 C2248 1.429 . S
C2267 C2261 1.429 . S
C2267 C2268 1.523 . S
C2268 C2249 1.368 1_655 S
C2268 C2262 1.368 . S
C2268 C2267 1.523 . S
C2269 C2253 1.429 . S
C2269 C2265 1.429 . S
C2269 C2270 1.523 . S
C2270 C2254 1.368 1_455 S
C2270 C2266 1.368 . S
C2270 C2269 1.523 . S
H2271 C2246 0.950 . S
H2272 C2248 0.950 . S
H2273 C2249 0.949 . S
H2274 C2251 0.950 . S
H2275 C2253 0.950 . S
C2276 C2277 1.349 . S
C2276 C2278 1.327 . S
C2276 H2301 0.950 . S
C2277 C2276 1.349 . S
C2277 C2293 1.349 . S
C2278 C2276 1.327 . S
C2278 C2297 1.429 . S
C2278 H2302 0.950 . S
C2279 C2296 1.574 . S
C2279 C2298 1.368 . S
C2279 H2303 0.949 . S
H2280 C2284 0.949 . S
C2281 C2282 1.349 . S
C2281 C2283 1.327 . S
C2281 H2304 0.950 . S
C2282 C2281 1.349 . S
C2282 C2294 1.349 . S
C2283 C2281 1.327 . S
C2283 C2299 1.429 . S
C2283 H2305 0.950 . S
C2284 H2280 0.949 . S
C2284 C2292 1.574 . S
C2284 C2300 1.368 . S
H2285 C2293 0.950 . S
H2286 C2291 0.950 . S
H2287 C2292 0.949 . S
H2288 C2294 0.950 . S
H2289 C2295 0.950 . S
H2290 C2296 0.949 . S
C2291 H2286 0.950 . S
C2291 C2293 1.327 . S
C2291 C2297 1.429 . S
C2292 C2284 1.574 . S
C2292 H2287 0.949 . S
C2292 C2298 1.368 . S
C2293 C2277 1.349 . S
C2293 H2285 0.950 . S
C2293 C2291 1.327 . S
C2294 C2282 1.349 . S
C2294 H2288 0.950 . S
C2294 C2295 1.327 . S
C2295 H2289 0.950 . S
C2295 C2294 1.327 . S
C2295 C2299 1.429 . S
C2296 C2279 1.574 . S
C2296 H2290 0.949 . S
C2296 C2300 1.368 . S
C2297 C2278 1.429 . S
C2297 C2291 1.429 . S
C2297 C2298 1.523 . S
C2298 C2279 1.368 . S
C2298 C2292 1.368 . S
C2298 C2297 1.523 . S
C2299 C2283 1.429 . S
C2299 C2295 1.429 . S
C2299 C2300 1.523 . S
C2300 C2284 1.368 . S
C2300 C2296 1.368 . S
C2300 C2299 1.523 . S
H2301 C2276 0.950 . S
H2302 C2278 0.950 . S
H2303 C2279 0.949 . S
H2304 C2281 0.950 . S
H2305 C2283 0.950 . S
C2306 C2307 1.349 . S
C2306 C2308 1.327 . S
C2306 H2331 0.950 . S
C2307 C2306 1.349 . S
C2307 C2323 1.349 . S
C2308 C2306 1.327 . S
C2308 C2327 1.429 . S
C2308 H2332 0.950 . S
C2309 C2326 1.574 . S
C2309 C2328 1.368 . S
C2309 H2333 0.949 . S
H2310 C2314 0.949 . S
C2311 C2312 1.349 . S
C2311 C2313 1.327 . S
C2311 H2334 0.950 . S
C2312 C2311 1.349 . S
C2312 C2324 1.349 . S
C2313 C2311 1.327 . S
C2313 C2329 1.429 . S
C2313 H2335 0.950 . S
C2314 H2310 0.949 . S
C2314 C2322 1.574 . S
C2314 C2330 1.368 . S
H2315 C2323 0.950 . S
H2316 C2321 0.950 . S
H2317 C2322 0.949 . S
H2318 C2324 0.950 . S
H2319 C2325 0.950 . S
H2320 C2326 0.949 . S
C2321 H2316 0.950 . S
C2321 C2323 1.327 . S
C2321 C2327 1.429 . S
C2322 C2314 1.574 . S
C2322 H2317 0.949 . S
C2322 C2328 1.368 . S
C2323 C2307 1.349 . S
C2323 H2315 0.950 . S
C2323 C2321 1.327 . S
C2324 C2312 1.349 . S
C2324 H2318 0.950 . S
C2324 C2325 1.327 . S
C2325 H2319 0.950 . S
C2325 C2324 1.327 . S
C2325 C2329 1.429 . S
C2326 C2309 1.574 . S
C2326 H2320 0.949 . S
C2326 C2330 1.368 . S
C2327 C2308 1.429 . S
C2327 C2321 1.429 . S
C2327 C2328 1.523 . S
C2328 C2309 1.368 . S
C2328 C2322 1.368 . S
C2328 C2327 1.523 . S
C2329 C2313 1.429 . S
C2329 C2325 1.429 . S
C2329 C2330 1.523 . S
C2330 C2314 1.368 . S
C2330 C2326 1.368 . S
C2330 C2329 1.523 . S
H2331 C2306 0.950 . S
H2332 C2308 0.950 . S
H2333 C2309 0.949 . S
H2334 C2311 0.950 . S
H2335 C2313 0.950 . S
C417 C81 1.923 . S
C422 C5 1.923 . S
C447 C18 1.371 . S
C452 C96 1.372 . S
C477 C55 1.923 . S
C482 C29 1.923 . S
C507 C42 1.372 . S
C512 C70 1.372 . S
C537 C185 1.923 . S
C542 C109 1.923 . S
C567 C120 1.372 . S
C572 C200 1.372 . S
C597 C159 1.923 . S
C602 C133 1.923 . S
C627 C146 1.371 . S
C632 C174 1.371 . S
C657 C211 1.923 . S
C662 C291 1.923 . S
C687 C302 1.372 . S
C692 C226 1.372 . S
C717 C237 1.923 . S
C722 C263 1.923 . S
C747 C276 1.371 . S
C752 C252 1.371 . S
C777 C393 1.923 . S
C782 C317 1.923 . S
C807 C406 1.372 . S
C812 C330 1.372 . S
C837 C367 1.923 . S
C842 C341 1.923 . S
C867 C356 1.372 . S
C872 C382 1.372 . S
C897 C101 1.218 . S
C902 C10 1.225 . S
C927 C56 1.225 . S
C932 C23 1.218 . S
C957 C75 1.218 . S
C962 C30 1.226 . S
C987 C82 1.225 . S
C992 C43 1.218 . S
C1017 C205 1.217 . S
C1022 C114 1.225 . S
C1047 C160 1.226 . S
C1052 C121 1.218 . S
C1077 C179 1.218 . S
C1082 C134 1.225 . S
C1107 C147 1.218 . S
C1112 C186 1.226 . S
C1137 C303 1.218 . S
C1142 C212 1.225 . S
C1167 C231 1.217 . S
C1172 C264 1.225 . S
C1197 C238 1.226 . S
C1202 C277 1.218 . S
C1227 C296 1.225 . S
C1232 C257 1.218 . S
C1257 C407 1.218 . S
C1262 C322 1.225 . S
C1287 C335 1.218 . S
C1292 C368 1.225 . S
C1317 C342 1.225 . S
C1322 C387 1.218 . S
C1347 C394 1.225 . S
C1352 C361 1.218 . S
C1377 C4 1.776 . S
C1382 C395 1.929 . S
C1407 C198 1.285 . S
C1412 C17 1.290 . S
C1437 C369 1.929 . S
C1442 C36 1.775 . S
C1467 C172 1.286 . S
C1472 C49 1.290 . S
C1497 C343 1.930 . S
C1502 C62 1.776 . S
C1527 C69 1.290 . S
C1532 C148 1.285 . S
C1557 C88 1.776 . S
C1562 C315 1.929 . S
C1587 C95 1.290 . S
C1592 C122 1.285 . S
C1617 C108 1.776 . S
C1622 C289 1.929 . S
C1647 C94 1.285 . S
C1652 C127 1.290 . S
C1677 C265 1.929 . S
C1682 C140 1.776 . S
C1707 C68 1.286 . S
C1712 C153 1.290 . S
C1737 C239 1.929 . S
C1742 C166 1.776 . S
C1767 C44 1.285 . S
C1772 C173 1.290 . S
C1797 C192 1.776 . S
C1802 C213 1.929 . S
C1827 C16 1.285 . S
C1832 C199 1.290 . S
C1857 C187 1.929 . S
C1862 C218 1.776 . S
C1887 C408 1.285 . S
C1892 C225 1.290 . S
C1917 C244 1.776 . S
C1922 C161 1.929 . S
C1947 C251 1.290 . S
C1952 C380 1.285 . S
C1977 C270 1.776 . S
C1982 C135 1.929 . S
C2007 C283 1.290 . S
C2012 C354 1.286 . S
C2037 C290 1.776 . S
C2042 C107 1.929 . S
C2067 C309 1.290 . S
C2072 C328 1.286 . S
C2097 C83 1.930 . S
C2102 C316 1.776 . S
C2127 C304 1.285 . S
C2132 C329 1.290 . S
C2157 C57 1.929 . S
C2162 C348 1.776 . S
C2187 C355 1.290 . S
C2192 C278 1.285 . S
C2217 C374 1.775 . S
C2222 C31 1.929 . S
C2247 C250 1.286 . S
C2252 C381 1.290 . S
C2277 C400 1.776 . S
C2282 C3 1.929 . S
C2307 C413 1.290 . S
C2312 C224 1.286 . S
