# Generated by pormake.
# Topology wjh, (4)-cn, num edge types: 1
# Building blocks:
#     Node 0, Type 0, BuildingBlock: KUFVIS_clean_sbu_0, # of connection points: 4
#     Node 1, Type 0, BuildingBlock: KUFVIS_clean_sbu_0, # of connection points: 4
#     Node 2, Type 0, BuildingBlock: KUFVIS_clean_sbu_0, # of connection points: 4
#     Node 3, Type 0, BuildingBlock: KUFVIS_clean_sbu_0, # of connection points: 4
#     Node 4, Type 0, BuildingBlock: KUFVIS_clean_sbu_0, # of connection points: 4
#     Node 5, Type 0, BuildingBlock: KUFVIS_clean_sbu_0, # of connection points: 4
#     Node 6, Type 0, BuildingBlock: KUFVIS_clean_sbu_0, # of connection points: 4
#     Node 7, Type 0, BuildingBlock: KUFVIS_clean_sbu_0, # of connection points: 4
#     Node 8, Type 0, BuildingBlock: KUFVIS_clean_sbu_0, # of connection points: 4
#     Node 9, Type 0, BuildingBlock: KUFVIS_clean_sbu_0, # of connection points: 4
#     Node 10, Type 0, BuildingBlock: KUFVIS_clean_sbu_0, # of connection points: 4
#     Node 11, Type 0, BuildingBlock: KUFVIS_clean_sbu_0, # of connection points: 4
#     Edge 12, Type (0, 0), BuildingBlock: OJICUG_clean_linker_0, # of connection points: 2
#     Edge 13, Type (0, 0), BuildingBlock: OJICUG_clean_linker_0, # of connection points: 2
#     Edge 14, Type (0, 0), BuildingBlock: OJICUG_clean_linker_0, # of connection points: 2
#     Edge 15, Type (0, 0), BuildingBlock: OJICUG_clean_linker_0, # of connection points: 2
#     Edge 16, Type (0, 0), BuildingBlock: OJICUG_clean_linker_0, # of connection points: 2
#     Edge 17, Type (0, 0), BuildingBlock: OJICUG_clean_linker_0, # of connection points: 2
#     Edge 18, Type (0, 0), BuildingBlock: OJICUG_clean_linker_0, # of connection points: 2
#     Edge 19, Type (0, 0), BuildingBlock: OJICUG_clean_linker_0, # of connection points: 2
#     Edge 20, Type (0, 0), BuildingBlock: OJICUG_clean_linker_0, # of connection points: 2
#     Edge 21, Type (0, 0), BuildingBlock: OJICUG_clean_linker_0, # of connection points: 2
#     Edge 22, Type (0, 0), BuildingBlock: OJICUG_clean_linker_0, # of connection points: 2
#     Edge 23, Type (0, 0), BuildingBlock: OJICUG_clean_linker_0, # of connection points: 2
#     Edge 24, Type (0, 0), BuildingBlock: OJICUG_clean_linker_0, # of connection points: 2
#     Edge 25, Type (0, 0), BuildingBlock: OJICUG_clean_linker_0, # of connection points: 2
#     Edge 26, Type (0, 0), BuildingBlock: OJICUG_clean_linker_0, # of connection points: 2
#     Edge 27, Type (0, 0), BuildingBlock: OJICUG_clean_linker_0, # of connection points: 2
#     Edge 28, Type (0, 0), BuildingBlock: OJICUG_clean_linker_0, # of connection points: 2
#     Edge 29, Type (0, 0), BuildingBlock: OJICUG_clean_linker_0, # of connection points: 2
#     Edge 30, Type (0, 0), BuildingBlock: OJICUG_clean_linker_0, # of connection points: 2
#     Edge 31, Type (0, 0), BuildingBlock: OJICUG_clean_linker_0, # of connection points: 2
#     Edge 32, Type (0, 0), BuildingBlock: OJICUG_clean_linker_0, # of connection points: 2
#     Edge 33, Type (0, 0), BuildingBlock: OJICUG_clean_linker_0, # of connection points: 2
#     Edge 34, Type (0, 0), BuildingBlock: OJICUG_clean_linker_0, # of connection points: 2
#     Edge 35, Type (0, 0), BuildingBlock: OJICUG_clean_linker_0, # of connection points: 2
# Relax obj value: 0.089
# Max RMSD: 0.110
# Mean RMSD: 0.110
data_MOF--net-wjh--node1-KUFVIS_clean_sbu_0--edge1-OJICUG_clean_linker_0
_symmetry_space_group_name_H-M    P1
_symmetry_Int_Tables_number       1
_symmetry_cell_setting            triclinic
loop_
_symmetry_equiv_pos_as_xyz
'x, y, z'
_cell_length_a     44.439598
_cell_length_b     44.332156
_cell_length_c     19.356915
_cell_angle_alpha  90.075814
_cell_angle_beta   90.117276
_cell_angle_gamma 119.67597
loop_
_atom_site_label
_atom_site_type_symbol
_atom_site_fract_x
_atom_site_fract_y
_atom_site_fract_z
_atom_type_partial_charge
Mn0 Mn 0.55132 0.15106 0.0654 0.0
Mn1 Mn 0.60769 0.12128 0.05761 0.0
C2 C 0.57026 0.13709 0.16489 0.0
C3 C 0.5459 0.20085 0.08404 0.0
C4 C 0.53061 0.07659 0.0259 0.0
O5 O 0.57018 0.16352 0.96659 0.0
O6 O 0.61051 0.14673 0.97185 0.0
C7 C 0.6721 0.18943 0.06205 0.0
N8 N 0.65174 0.1573 0.08935 0.0
C9 C 0.69159 0.16944 0.18358 0.0
C10 C 0.71311 0.20256 0.15616 0.0
C11 C 0.70329 0.21261 0.09519 0.0
C12 C 0.6608 0.14749 0.14835 0.0
H13 H 0.66448 0.19741 0.0156 0.0
C14 C 0.59526 0.16082 0.94043 0.0
O15 O 0.52018 0.17265 0.05837 0.0
O16 O 0.57452 0.20062 0.09183 0.0
N17 N 0.60799 0.09635 0.1381 0.0
C18 C 0.58462 0.06328 0.15708 0.0
C19 C 0.59104 0.04887 0.21608 0.0
C20 C 0.62146 0.06853 0.2547 0.0
C21 C 0.6455 0.10222 0.23327 0.0
C22 C 0.63797 0.11496 0.17337 0.0
H23 H 0.56126 0.04797 0.12749 0.0
O24 O 0.54193 0.13855 0.16486 0.0
O25 O 0.58614 0.14355 0.10639 0.0
O26 O 0.52124 0.09912 0.03922 0.0
O27 O 0.56211 0.08307 0.02781 0.0
C28 C 0.67644 0.12378 0.26936 0.0
C29 C 0.69936 0.15745 0.24478 0.0
H30 H 0.73715 0.22054 0.18164 0.0
H31 H 0.71966 0.2382 0.07392 0.0
H32 H 0.57248 0.02277 0.23198 0.0
H33 H 0.62609 0.05751 0.3007 0.0
H34 H 0.68275 0.1148 0.3163 0.0
H35 H 0.72293 0.17389 0.27327 0.0
Mn36 Mn 0.41146 0.54086 0.22788 0.0
Mn37 Mn 0.49842 0.58556 0.21058 0.0
C38 C 0.44664 0.55635 0.32553 0.0
C39 C 0.35967 0.54147 0.24841 0.0
C40 C 0.45446 0.50778 0.18435 0.0
O41 O 0.41792 0.55938 0.12798 0.0
O42 O 0.47606 0.59234 0.12834 0.0
C43 C 0.50682 0.6561 0.21634 0.0
N44 N 0.51504 0.63227 0.2408 0.0
C45 C 0.55284 0.67226 0.32716 0.0
C46 C 0.54507 0.69735 0.30239 0.0
C47 C 0.52186 0.68917 0.2469 0.0
C48 C 0.53682 0.63966 0.29499 0.0
H49 H 0.48877 0.64985 0.1741 0.0
C50 C 0.44652 0.58156 0.09977 0.0
O51 O 0.35925 0.51427 0.22199 0.0
O52 O 0.38979 0.5687 0.25641 0.0
N53 N 0.5246 0.58231 0.28596 0.0
C54 C 0.53102 0.55594 0.30085 0.0
C55 C 0.55463 0.56032 0.35359 0.0
C56 C 0.57192 0.59198 0.38961 0.0
C57 C 0.56605 0.61925 0.3714 0.0
C58 C 0.54256 0.6135 0.31775 0.0
H59 H 0.51832 0.53175 0.27272 0.0
O60 O 0.41498 0.53111 0.32699 0.0
O61 O 0.45688 0.57162 0.26615 0.0
O62 O 0.42518 0.50448 0.20091 0.0
O63 O 0.48268 0.53694 0.18205 0.0
C64 C 0.58259 0.65191 0.40434 0.0
C65 C 0.57578 0.67831 0.38258 0.0
H66 H 0.55669 0.72291 0.32572 0.0
H67 H 0.51555 0.70831 0.22778 0.0
H68 H 0.55947 0.53935 0.36646 0.0
H69 H 0.58986 0.59516 0.43069 0.0
H70 H 0.60055 0.65698 0.44651 0.0
H71 H 0.58852 0.70327 0.40851 0.0
Mn72 Mn 0.89373 0.39738 0.39595 0.0
Mn73 Mn 0.92093 0.48282 0.3816 0.0
C74 C 0.90957 0.43225 0.49318 0.0
C75 C 0.84627 0.34226 0.42085 0.0
C76 C 0.96649 0.451 0.35041 0.0
O77 O 0.87854 0.40128 0.29727 0.0
O78 O 0.89338 0.45783 0.29939 0.0
C79 C 0.85218 0.47794 0.39161 0.0
N80 N 0.8852 0.49101 0.41538 0.0
C81 C 0.87534 0.52186 0.50693 0.0
C82 C 0.84132 0.50894 0.48311 0.0
C83 C 0.82967 0.48682 0.42529 0.0
C84 C 0.89651 0.51193 0.47153 0.0
H85 H 0.84304 0.46072 0.34752 0.0
C86 C 0.87943 0.42807 0.26998 0.0
O87 O 0.87397 0.34497 0.39207 0.0
O88 O 0.84517 0.37062 0.42699 0.0
N89 N 0.94796 0.5108 0.45771 0.0
C90 C 0.9821 0.5226 0.47167 0.0
C91 C 0.99821 0.54605 0.52644 0.0
C92 C 0.97921 0.5575 0.5657 0.0
C93 C 0.94448 0.54601 0.54877 0.0
C94 C 0.92998 0.52304 0.49296 0.0
H95 H 0.99698 0.51422 0.44133 0.0
O96 O 0.90868 0.40267 0.49429 0.0
O97 O 0.90112 0.44034 0.43495 0.0
O98 O 0.945 0.41944 0.36649 0.0
O99 O 0.95905 0.47549 0.34982 0.0
C100 C 0.92368 0.5564 0.5851 0.0
C101 C 0.88906 0.54413 0.5645 0.0
H102 H 0.82389 0.51577 0.50889 0.0
H103 H 0.8034 0.47661 0.40679 0.0
H104 H 1.02515 0.55517 0.53852 0.0
H105 H 0.99159 0.57527 0.6084 0.0
H106 H 0.93404 0.57378 0.629 0.0
H107 H 0.87327 0.5522 0.593 0.0
Mn108 Mn 0.50437 0.88475 0.56188 0.0
Mn109 Mn 0.44817 0.91477 0.55503 0.0
C110 C 0.48558 0.89833 0.66179 0.0
C111 C 0.50914 0.8344 0.57742 0.0
C112 C 0.52531 0.95945 0.52471 0.0
O113 O 0.48568 0.87305 0.46278 0.0
O114 O 0.44516 0.88953 0.46866 0.0
C115 C 0.38366 0.84669 0.55807 0.0
N116 N 0.4041 0.87874 0.58605 0.0
C117 C 0.36432 0.86647 0.68002 0.0
C118 C 0.34271 0.83344 0.65189 0.0
C119 C 0.35246 0.8235 0.59071 0.0
C120 C 0.39513 0.88843 0.64526 0.0
H121 H 0.39121 0.83881 0.51144 0.0
C122 C 0.46051 0.87568 0.43682 0.0
O123 O 0.53516 0.86281 0.5536 0.0
O124 O 0.48074 0.83497 0.58601 0.0
N125 N 0.44802 0.93951 0.63608 0.0
C126 C 0.47142 0.97255 0.65566 0.0
C127 C 0.46507 0.98685 0.71492 0.0
C128 C 0.43466 0.96715 0.75317 0.0
C129 C 0.41057 0.93353 0.73107 0.0
C130 C 0.41804 0.92088 0.67096 0.0
H131 H 0.49476 0.98789 0.62635 0.0
O132 O 0.51371 0.8965 0.66175 0.0
O133 O 0.46971 0.89227 0.60315 0.0
O134 O 0.53466 0.93686 0.53769 0.0
O135 O 0.4938 0.95296 0.52605 0.0
C136 C 0.37963 0.91194 0.76671 0.0
C137 C 0.35663 0.87835 0.74144 0.0
H138 H 0.31866 0.81545 0.67698 0.0
H139 H 0.33601 0.79798 0.56889 0.0
H140 H 0.48366 1.01292 0.73131 0.0
H141 H 0.43008 0.97809 0.79936 0.0
H142 H 0.37336 0.92084 0.81381 0.0
H143 H 0.33304 0.86189 0.76958 0.0
Mn144 Mn 0.64124 0.49217 0.72462 0.0
Mn145 Mn 0.55345 0.45306 0.71889 0.0
C146 C 0.61072 0.4732 0.82554 0.0
C147 C 0.6927 0.48986 0.73434 0.0
C148 C 0.60095 0.53084 0.70725 0.0
O149 O 0.63114 0.47652 0.62423 0.0
O150 O 0.5729 0.45108 0.62848 0.0
C151 C 0.53584 0.38038 0.69044 0.0
N152 N 0.53066 0.40369 0.72689 0.0
C153 C 0.48206 0.35799 0.78664 0.0
C154 C 0.48637 0.33345 0.74856 0.0
C155 C 0.51351 0.34471 0.7006 0.0
C156 C 0.50461 0.39317 0.77321 0.0
H157 H 0.55687 0.38898 0.65406 0.0
C158 C 0.60109 0.45908 0.59686 0.0
O159 O 0.69308 0.51794 0.7137 0.0
O160 O 0.66254 0.46259 0.74157 0.0
N161 N 0.52985 0.45173 0.80232 0.0
C162 C 0.5331 0.47844 0.84242 0.0
C163 C 0.50983 0.47159 0.89705 0.0
C164 C 0.48363 0.43738 0.91003 0.0
C165 C 0.48091 0.41027 0.86827 0.0
C166 C 0.50424 0.41876 0.81351 0.0
H167 H 0.55314 0.50473 0.83246 0.0
O168 O 0.64176 0.4996 0.82395 0.0
O169 O 0.5962 0.45971 0.76602 0.0
O170 O 0.62995 0.53157 0.70909 0.0
O171 O 0.5719 0.50312 0.71048 0.0
C172 C 0.45674 0.37507 0.88027 0.0
C173 C 0.45734 0.34894 0.83956 0.0
H174 H 0.46955 0.30591 0.757 0.0
H175 H 0.51731 0.32592 0.67179 0.0
H176 H 0.51201 0.49261 0.92908 0.0
H177 H 0.46601 0.43218 0.95272 0.0
H178 H 0.43825 0.36774 0.92205 0.0
H179 H 0.43938 0.32193 0.8508 0.0
Mn180 Mn 0.16065 0.63941 0.88935 0.0
Mn181 Mn 0.12905 0.55293 0.87549 0.0
C182 C 0.14641 0.60498 -0.01361 0.0
C183 C 0.20939 0.69392 0.91175 0.0
C184 C 0.0851 0.58747 0.85623 0.0
O185 O 0.17274 0.63451 0.78924 0.0
O186 O 0.15237 0.57674 0.7895 0.0
C187 C 0.19724 0.55623 0.86813 0.0
N188 N 0.16582 0.54407 0.89903 0.0
C189 C 0.1803 0.51445 -0.01421 0.0
C190 C 0.21261 0.52632 0.95435 0.0
C191 C 0.22114 0.54738 0.89539 0.0
C192 C 0.15763 0.52431 0.95655 0.0
H193 H 0.20416 0.57281 0.82339 0.0
C194 C 0.16795 0.60643 0.76033 0.0
O195 O 0.18135 0.69184 0.88589 0.0
O196 O 0.21003 0.66522 0.91581 0.0
N197 N 0.10607 0.52591 0.95535 0.0
C198 C 0.07262 0.51378 0.97531 0.0
C199 C 0.05943 0.49125 0.03205 0.0
C200 C 0.08047 0.48071 0.06665 0.0
C201 C 0.11417 0.49198 0.04283 0.0
C202 C 0.12573 0.51413 -0.01448 0.0
H203 H 0.05604 0.52108 0.94802 0.0
O204 O 0.1485 0.63507 -0.01132 0.0
O205 O 0.15284 0.59599 0.92713 0.0
O206 O 0.10893 0.61901 0.86562 0.0
O207 O 0.09021 0.56143 0.85556 0.0
C208 C 0.13658 0.48181 0.07321 0.0
C209 C 0.16973 0.49324 0.045 0.0
H210 H 0.2311 0.5195 0.97515 0.0
H211 H 0.24613 0.55685 0.87111 0.0
H212 H 0.03311 0.48201 0.04901 0.0
H213 H 0.07032 0.46354 0.1107 0.0
H214 H 0.12851 0.46507 0.11808 0.0
H215 H 0.18674 0.48527 0.06882 0.0
Mn216 Mn 0.86297 0.48321 0.8555 0.0
Mn217 Mn 0.90015 0.43245 0.85559 0.0
C218 C 0.87853 0.46885 0.75328 0.0
C219 C 0.81148 0.48555 0.84747 0.0
C220 C 0.94063 0.51054 0.87863 0.0
O221 O 0.8555 0.4654 0.95543 0.0
O222 O 0.87929 0.43117 0.9462 0.0
C223 C 0.83338 0.36672 0.86565 0.0
N224 N 0.86378 0.38688 0.83207 0.0
C225 C 0.84773 0.34472 0.74068 0.0
C226 C 0.81634 0.32346 0.77448 0.0
C227 C 0.80914 0.33454 0.83721 0.0
C228 C 0.87067 0.37673 0.77105 0.0
H229 H 0.82753 0.37525 0.91349 0.0
C230 C 0.86374 0.44383 -0.01918 0.0
O231 O 0.83981 0.51202 0.87065 0.0
O232 O 0.81262 0.45744 0.83601 0.0
N233 N 0.92196 0.42972 0.77259 0.0
C234 C 0.95577 0.45014 0.75414 0.0
C235 C 0.96861 0.44127 0.69592 0.0
C236 C 0.94684 0.411 0.65838 0.0
C237 C 0.91289 0.38914 0.68119 0.0
C238 C 0.90184 0.39903 0.74043 0.0
H239 H 0.97276 0.47313 0.78349 0.0
O240 O 0.87171 0.49395 0.75568 0.0
O241 O 0.87395 0.45126 0.8097 0.0
O242 O 0.9151 0.51639 0.87463 0.0
O243 O 0.93786 0.48032 0.87498 0.0
C244 C 0.89004 0.3573 0.64909 0.0
C245 C 0.85729 0.33528 0.67838 0.0
H246 H 0.79766 0.29854 0.75289 0.0
H247 H 0.78492 0.31833 0.86351 0.0
H248 H 0.99515 0.45779 0.67987 0.0
H249 H 0.95672 0.40437 0.61318 0.0
H250 H 0.89761 0.34923 0.6025 0.0
H251 H 0.84001 0.31077 0.65346 0.0
Mn252 Mn 0.38896 0.85444 0.02106 0.0
Mn253 Mn 0.47179 0.87088 0.01408 0.0
C254 C 0.41439 0.85876 0.91658 0.0
C255 C 0.33051 0.81094 0.02396 0.0
C256 C 0.45327 0.92825 0.02174 0.0
O257 O 0.39852 0.8486 0.12196 0.0
O258 O 0.45427 0.8635 0.10963 0.0
C259 C 0.45139 0.79895 0.05607 0.0
N260 N 0.46655 0.82531 0.00949 0.0
C261 C 0.47662 0.78911 0.93084 0.0
C262 C 0.46116 0.76167 0.97803 0.0
C263 C 0.44848 0.76662 0.04089 0.0
C264 C 0.4782 0.82057 0.94825 0.0
H265 H 0.44141 0.80241 0.10437 0.0
C266 C 0.42759 0.8547 0.14686 0.0
O267 O 0.33941 0.84288 0.03963 0.0
O268 O 0.3553 0.80449 0.01249 0.0
N269 N 0.49439 0.87821 0.92662 0.0
C270 C 0.51706 0.90928 0.89774 0.0
C271 C 0.53521 0.91011 0.83778 0.0
C272 C 0.53128 0.87906 0.81021 0.0
C273 C 0.51073 0.84778 0.84501 0.0
C274 C 0.49352 0.84876 0.90487 0.0
H275 H 0.52134 0.9332 0.92075 0.0
O276 O 0.38586 0.85959 0.92034 0.0
O277 O 0.42595 0.85239 0.97338 0.0
O278 O 0.42028 0.90834 0.03011 0.0
O279 O 0.47506 0.9172 0.01429 0.0
C280 C 0.50856 0.81616 0.82527 0.0
C281 C 0.49118 0.78671 0.86787 0.0
H282 H 0.4592 0.7368 0.96684 0.0
H283 H 0.43653 0.74558 0.07765 0.0
H284 H 0.55242 0.93464 0.81332 0.0
H285 H 0.54558 0.87976 0.76442 0.0
H286 H 0.52106 0.81449 0.77857 0.0
H287 H 0.49021 0.76269 0.85286 0.0
Mn288 Mn 0.54634 0.37658 0.18703 0.0
Mn289 Mn 0.59557 0.46486 0.18299 0.0
C290 C 0.56708 0.40419 0.08359 0.0
C291 C 0.54323 0.32211 0.18947 0.0
C292 C 0.517 0.42644 0.18997 0.0
O293 O 0.5595 0.38843 0.28843 0.0
O294 O 0.59254 0.44632 0.27645 0.0
C295 C 0.66238 0.4687 0.21734 0.0
N296 N 0.64355 0.47858 0.17729 0.0
C297 C 0.69427 0.51887 0.11438 0.0
C298 C 0.71436 0.50962 0.15579 0.0
C299 C 0.69828 0.48423 0.20715 0.0
C300 C 0.65863 0.50252 0.12701 0.0
H301 H 0.65005 0.44909 0.25659 0.0
C302 C 0.57952 0.41875 0.31267 0.0
O303 O 0.51622 0.32507 0.20385 0.0
O304 O 0.57207 0.35075 0.18102 0.0
N305 N 0.60246 0.48878 0.09712 0.0
C306 C 0.57909 0.49255 0.05781 0.0
C307 C 0.59076 0.51615 0.0026 0.0
C308 C 0.62634 0.53593 -0.01126 0.0
C309 C 0.65001 0.53204 0.03045 0.0
C310 C 0.6369 0.50846 0.08533 0.0
H311 H 0.55185 0.47797 0.06897 0.0
O312 O 0.54089 0.37309 0.08645 0.0
O313 O 0.58166 0.41898 0.14199 0.0
O314 O 0.51175 0.39529 0.19263 0.0
O315 O 0.54692 0.45345 0.18711 0.0
C316 C 0.68598 0.54979 0.01838 0.0
C317 C 0.70808 0.54306 0.06005 0.0
H318 H 0.74204 0.52146 0.14794 0.0
H319 H 0.71354 0.47666 0.2388 0.0
H320 H 0.57247 0.51943 0.9712 0.0
H321 H 0.63515 0.5538 0.94561 0.0
H322 H 0.69684 0.56807 0.97617 0.0
H323 H 0.73558 0.55625 0.04924 0.0
Mn324 Mn 0.19041 0.55292 0.3485 0.0
Mn325 Mn 0.16079 0.61008 0.33983 0.0
C326 C 0.18125 0.57034 0.24352 0.0
C327 C 0.23969 0.54627 0.35043 0.0
C328 C 0.11299 0.53203 0.35344 0.0
O329 O 0.19548 0.56955 0.4485 0.0
O330 O 0.17426 0.60568 0.43469 0.0
C331 C 0.23014 0.6702 0.36972 0.0
N332 N 0.20183 0.65412 0.32773 0.0
C333 C 0.22827 0.6997 0.24331 0.0
C334 C 0.25761 0.71675 0.28578 0.0
C335 C 0.25856 0.70188 0.34919 0.0
C336 C 0.20106 0.66779 0.2658 0.0
H337 H 0.23119 0.65886 0.41833 0.0
C338 C 0.18706 0.59121 0.47216 0.0
O339 O 0.20955 0.52071 0.36827 0.0
O340 O 0.2412 0.57552 0.33781 0.0
N341 N 0.14643 0.61927 0.25296 0.0
C342 C 0.11326 0.60496 0.22917 0.0
C343 C 0.10605 0.61874 0.17024 0.0
C344 C 0.13277 0.64822 0.13828 0.0
C345 C 0.16602 0.66452 0.16748 0.0
C346 C 0.17138 0.64975 0.22693 0.0
H347 H 0.09237 0.58365 0.25603 0.0
O348 O 0.18505 0.54339 0.24802 0.0
O349 O 0.18519 0.58796 0.29978 0.0
O350 O 0.13673 0.52348 0.35959 0.0
O351 O 0.11898 0.56346 0.3468 0.0
C352 C 0.19335 0.69611 0.14279 0.0
C353 C 0.22465 0.71349 0.18029 0.0
H354 H 0.27941 0.74139 0.2705 0.0
H355 H 0.28112 0.71485 0.38225 0.0
H356 H 0.07991 0.60697 0.15013 0.0
H357 H 0.12702 0.65912 0.09349 0.0
H358 H 0.1902 0.70778 0.09616 0.0
H359 H 0.24528 0.73807 0.16151 0.0
Mn360 Mn 0.66704 0.18155 0.52542 0.0
Mn361 Mn 0.5843 0.16544 0.51694 0.0
C362 C 0.64177 0.17735 0.42044 0.0
C363 C 0.72568 0.22458 0.52952 0.0
C364 C 0.6025 0.10787 0.52459 0.0
O365 O 0.65734 0.1875 0.62625 0.0
O366 O 0.60163 0.17265 0.61288 0.0
C367 C 0.60482 0.23736 0.55987 0.0
N368 N 0.58969 0.21107 0.51283 0.0
C369 C 0.57966 0.2474 0.43457 0.0
C370 C 0.5951 0.27477 0.48223 0.0
C371 C 0.60776 0.26972 0.54512 0.0
C372 C 0.57807 0.21592 0.45156 0.0
H373 H 0.61476 0.23382 0.60823 0.0
C374 C 0.62822 0.1814 0.65065 0.0
O375 O 0.71636 0.19255 0.545 0.0
O376 O 0.70119 0.23145 0.51752 0.0
N377 N 0.56186 0.1583 0.42906 0.0
C378 C 0.53925 0.12729 0.39949 0.0
C379 C 0.52117 0.12657 0.33933 0.0
C380 C 0.5251 0.15767 0.31226 0.0
C381 C 0.54558 0.18887 0.34771 0.0
C382 C 0.56276 0.18779 0.40769 0.0
H383 H 0.53493 0.10332 0.42215 0.0
O384 O 0.67021 0.17634 0.42473 0.0
O385 O 0.63023 0.18386 0.47705 0.0
O386 O 0.63546 0.12769 0.53378 0.0
O387 O 0.58082 0.11902 0.51672 0.0
C388 C 0.54771 0.2205 0.32847 0.0
C389 C 0.56509 0.24989 0.37156 0.0
H390 H 0.59707 0.29965 0.47137 0.0
H391 H 0.6197 0.29071 0.58224 0.0
H392 H 0.504 0.10209 0.31435 0.0
H393 H 0.51085 0.15705 0.26631 0.0
H394 H 0.53515 0.22222 0.2818 0.0
H395 H 0.56605 0.27392 0.35689 0.0
Mn396 Mn 0.50637 0.65701 0.6872 0.0
Mn397 Mn 0.45581 0.56938 0.68846 0.0
C398 C 0.49113 0.62637 0.58469 0.0
C399 C 0.50901 0.71122 0.67985 0.0
C400 C 0.5337 0.60671 0.71312 0.0
O401 O 0.48871 0.64706 0.78766 0.0
O402 O 0.4536 0.58939 0.77812 0.0
C403 C 0.38963 0.57013 0.69548 0.0
N404 N 0.41022 0.5597 0.66346 0.0
C405 C 0.36801 0.53129 0.57328 0.0
C406 C 0.34627 0.54153 0.60556 0.0
C407 C 0.35717 0.56111 0.66683 0.0
C408 C 0.40029 0.54152 0.60368 0.0
H409 H 0.39799 0.58541 0.74229 0.0
C410 C 0.46654 0.61759 0.81274 0.0
O411 O 0.53541 0.70889 0.70231 0.0
O412 O 0.48094 0.68225 0.66794 0.0
N413 N 0.45406 0.5445 0.60633 0.0
C414 C 0.4755 0.53197 0.58851 0.0
C415 C 0.46719 0.50959 0.53143 0.0
C416 C 0.43639 0.49948 0.49447 0.0
C417 C 0.41366 0.51091 0.51643 0.0
C418 C 0.42313 0.53274 0.57435 0.0
H419 H 0.49881 0.53901 0.61762 0.0
O420 O 0.51637 0.658 0.5866 0.0
O421 O 0.47421 0.61402 0.64184 0.0
O422 O 0.53959 0.63798 0.70677 0.0
O423 O 0.50356 0.57958 0.70996 0.0
C424 C 0.38143 0.50052 0.48461 0.0
C425 C 0.3588 0.51107 0.51253 0.0
H426 H 0.32112 0.53442 0.58387 0.0
H427 H 0.3406 0.56923 0.69192 0.0
H428 H 0.48448 0.50019 0.51596 0.0
H429 H 0.43015 0.48241 0.4502 0.0
H430 H 0.3736 0.48403 0.43919 0.0
H431 H 0.33404 0.50284 0.48774 0.0
C432 C 0.61099 0.18192 0.24375 0.0
C433 C 0.59005 0.14652 0.22847 0.0
H434 H 0.64281 0.21957 0.31973 0.0
C435 C 0.58572 0.12142 0.27689 0.0
H436 H 0.61403 0.20159 0.20685 0.0
C437 C 0.60375 0.13168 0.33913 0.0
C438 C 0.62286 0.167 0.35603 0.0
H439 H 0.56845 0.09415 0.2668 0.0
H440 H 0.60173 0.11215 0.3751 0.0
C441 C 0.62706 0.19218 0.30787 0.0
C442 C 0.48636 0.57479 0.42747 0.0
C443 C 0.46013 0.57589 0.38976 0.0
H444 H 0.51949 0.59336 0.51648 0.0
C445 C 0.44346 0.59299 0.41759 0.0
H446 H 0.49707 0.55899 0.41045 0.0
C447 C 0.45305 0.60874 0.48235 0.0
C448 C 0.4802 0.60854 0.5186 0.0
H449 H 0.42235 0.5933 0.39006 0.0
H450 H 0.43949 0.62124 0.50389 0.0
C451 C 0.49802 0.59311 0.48937 0.0
C452 C 0.86047 0.43373 0.64745 0.0
C453 C 0.8869 0.45952 0.68744 0.0
H454 H 0.84737 0.40616 0.55144 0.0
C455 C 0.92051 0.47839 0.66134 0.0
H456 H 0.83414 0.41963 0.66654 0.0
C457 C 0.92851 0.46898 0.59838 0.0
C458 C 0.9021 0.44385 0.55756 0.0
H459 H 0.94086 0.49901 0.69128 0.0
H460 H 0.95518 0.48088 0.58225 0.0
C461 C 0.86797 0.4263 0.58206 0.0
C462 C 0.47054 0.91432 0.77376 0.0
C463 C 0.4659 0.8891 0.72519 0.0
H464 H 0.45486 0.92387 0.87198 0.0
C465 C 0.44475 0.85375 0.74013 0.0
H466 H 0.488 0.94154 0.76392 0.0
C467 C 0.42876 0.84364 0.80412 0.0
C468 C 0.43327 0.86895 0.85243 0.0
H469 H 0.44147 0.83399 0.70307 0.0
H470 H 0.41283 0.81628 0.81575 0.0
C471 C 0.45259 0.90423 0.83586 0.0
C472 C 0.55729 0.40743 0.95944 0.0
C473 C 0.57984 0.41933 0.01611 0.0
H474 H 0.55395 0.41068 0.85129 0.0
C475 C 0.61479 0.44282 0.00518 0.0
H476 H 0.53104 0.38598 0.96388 0.0
C477 C 0.62497 0.46109 0.94331 0.0
C478 C 0.60075 0.45284 0.88952 0.0
H479 H 0.63375 0.44781 0.04499 0.0
H480 H 0.65171 0.48123 0.93765 0.0
C481 C 0.56893 0.42281 0.89567 0.0
C482 C 0.19835 0.60254 0.13453 0.0
C483 C 0.17228 0.57874 0.17761 0.0
H484 H 0.2099 0.62816 0.03675 0.0
C485 C 0.1379 0.56082 0.15515 0.0
H486 H 0.22521 0.61574 0.15096 0.0
C487 C 0.12889 0.56975 0.09284 0.0
C488 C 0.15482 0.5932 0.0492 0.0
H489 H 0.11797 0.54141 0.18747 0.0
H490 H 0.10188 0.559 0.0796 0.0
C491 C 0.18965 0.60934 0.06974 0.0
C492 C 0.57229 0.28735 0.16932 0.0
C493 C 0.54141 0.28863 0.17125 0.0
H494 H 0.59786 0.25961 0.13958 0.0
C495 C 0.51097 0.26009 0.14497 0.0
H496 H 0.59622 0.3088 0.18886 0.0
C497 C 0.5119 0.23141 0.1154 0.0
C498 C 0.54329 0.23092 0.11163 0.0
H499 H 0.48682 0.26052 0.14478 0.0
H500 H 0.48825 0.20989 0.09517 0.0
C501 C 0.57323 0.2591 0.1401 0.0
C502 C 0.33152 0.57192 0.30403 0.0
C503 C 0.32826 0.5412 0.27586 0.0
H504 H 0.3065 0.59707 0.35155 0.0
C505 C 0.29576 0.51068 0.27916 0.0
H506 H 0.35616 0.59583 0.30359 0.0
C507 C 0.26699 0.51132 0.30808 0.0
C508 C 0.2703 0.54252 0.33397 0.0
H509 H 0.29251 0.48644 0.25898 0.0
H510 H 0.24196 0.48788 0.3074 0.0
C511 C 0.30304 0.57256 0.33245 0.0
C512 C 0.78254 0.2475 0.46701 0.0
C513 C 0.76172 0.25213 0.51605 0.0
H514 H 0.82593 0.27251 0.39713 0.0
C515 C 0.77137 0.28586 0.53776 0.0
H516 H 0.77515 0.22174 0.44813 0.0
C517 C 0.79951 0.31447 0.50798 0.0
C518 C 0.81895 0.31037 0.45515 0.0
H519 H 0.7557 0.29025 0.57488 0.0
H520 H 0.80526 0.34007 0.52505 0.0
C521 C 0.81118 0.27652 0.43696 0.0
C522 C 0.47979 0.77337 0.61869 0.0
C523 C 0.51095 0.80342 0.60148 0.0
H524 H 0.45501 0.72182 0.65842 0.0
C525 C 0.54236 0.80387 0.61453 0.0
H526 H 0.45503 0.77199 0.61031 0.0
C527 C 0.5423 0.77458 0.64339 0.0
C528 C 0.51083 0.74444 0.65944 0.0
H529 H 0.56683 0.82682 0.60312 0.0
H530 H 0.56672 0.77519 0.65145 0.0
C531 C 0.47974 0.7445 0.64708 0.0
C532 C 0.72202 0.45787 0.7774 0.0
C533 C 0.72414 0.48963 0.76004 0.0
H534 H 0.74736 0.43188 0.82003 0.0
C535 C 0.75494 0.52061 0.77549 0.0
H536 H 0.69861 0.43351 0.76717 0.0
C537 C 0.78298 0.51969 0.80734 0.0
C538 C 0.78078 0.48776 0.82393 0.0
H539 H 0.75718 0.54554 0.76396 0.0
H540 H 0.80661 0.54386 0.81734 0.0
C541 C 0.74991 0.45695 0.8086 0.0
C542 C 0.24409 0.75936 0.93278 0.0
C543 C 0.23745 0.7254 0.94619 0.0
H544 H 0.27915 0.81409 0.94874 0.0
C545 C 0.25815 0.72076 -0.00457 0.0
H546 H 0.22829 0.76376 0.89599 0.0
C547 C 0.28623 0.74906 0.02644 0.0
C548 C 0.29468 0.78305 0.00945 0.0
H549 H 0.25328 0.69503 0.00905 0.0
H550 H 0.30269 0.74432 0.06093 0.0
C551 C 0.27275 0.7881 0.96396 0.0
C552 C 0.59349 0.18227 0.75171 0.0
C553 C 0.62328 0.18235 0.72626 0.0
H554 H 0.56135 0.17577 0.83917 0.0
C555 C 0.64592 0.17987 0.77343 0.0
H556 H 0.57569 0.18467 0.71688 0.0
C557 C 0.63761 0.17477 0.84368 0.0
C558 C 0.60655 0.17221 0.86841 0.0
H559 H 0.66911 0.18004 0.75575 0.0
H560 H 0.65497 0.17149 0.87824 0.0
C561 C 0.58526 0.17733 0.82197 0.0
C562 C 0.48127 0.63538 0.937 0.0
C563 C 0.45732 0.61368 0.88731 0.0
H564 H 0.49642 0.64226 0.0433 0.0
C565 C 0.4267 0.58416 0.90999 0.0
H566 H 0.50505 0.65819 0.92151 0.0
C567 C 0.42161 0.57492 -0.02 0.0
C568 C 0.44721 0.59481 0.0288 0.0
H569 H 0.40748 0.56699 0.87299 0.0
H570 H 0.39886 0.55096 -0.00501 0.0
C571 C 0.47634 0.62596 0.00686 0.0
C572 C 0.86142 0.40636 0.07996 0.0
C573 C 0.85884 0.43501 0.05552 0.0
H574 H 0.86951 0.38128 0.16703 0.0
C575 C 0.8569 0.45755 0.10385 0.0
H576 H 0.86247 0.38812 0.0441 0.0
C577 C 0.86092 0.45352 0.17439 0.0
C578 C 0.86682 0.42678 0.19825 0.0
H579 H 0.85477 0.47971 0.08702 0.0
H580 H 0.86137 0.47264 0.20994 0.0
C581 C 0.86529 0.40224 0.15055 0.0
C582 C 0.4183 0.86211 0.33948 0.0
C583 C 0.44918 0.86434 0.36468 0.0
H584 H 0.38694 0.85693 0.25105 0.0
C585 C 0.47023 0.85868 0.31872 0.0
H586 H 0.40112 0.86578 0.3737 0.0
C587 C 0.46197 0.85355 0.24842 0.0
C588 C 0.4324 0.8538 0.22249 0.0
H589 H 0.49398 0.85993 0.33632 0.0
H590 H 0.4796 0.85074 0.21393 0.0
C591 C 0.40996 0.85682 0.26917 0.0
C592 C 0.56587 0.41731 0.5038 0.0
C593 C 0.59752 0.44587 0.52561 0.0
H594 H 0.53572 0.38542 0.41905 0.0
C595 C 0.62468 0.46194 0.47826 0.0
H596 H 0.54447 0.40405 0.53928 0.0
C597 C 0.61939 0.45134 0.4093 0.0
C598 C 0.58714 0.42403 0.38694 0.0
H599 H 0.64935 0.48376 0.49361 0.0
H600 H 0.64011 0.46552 0.37281 0.0
C601 C 0.56086 0.40625 0.43517 0.0
C602 C 0.18772 0.62803 0.57107 0.0
C603 C 0.18937 0.59878 0.5471 0.0
H604 H 0.18005 0.65376 0.65762 0.0
C605 C 0.1889 0.57505 0.59531 0.0
H606 H 0.18851 0.64713 0.53515 0.0
C607 C 0.1839 0.57886 0.66525 0.0
C608 C 0.17958 0.60665 0.68862 0.0
H609 H 0.19024 0.5524 0.57868 0.0
H610 H 0.1819 0.55906 0.70066 0.0
C611 C 0.18303 0.63201 0.64125 0.0
C612 C 0.51237 0.02075 0.96634 0.0
C613 C 0.50442 0.0398 0.01344 0.0
H614 H 0.50208 0.97109 0.93153 0.0
C615 C 0.47588 0.02181 0.05777 0.0
H616 H 0.53409 0.03386 0.9314 0.0
C617 C 0.45749 0.9852 0.05844 0.0
C618 C 0.46768 0.96634 0.01517 0.0
H619 H 0.46952 0.03588 0.09535 0.0
H620 H 0.43693 0.9718 0.09565 0.0
C621 C 0.49426 0.98463 0.96718 0.0
C622 C 0.4825 0.44542 0.12161 0.0
C623 C 0.48788 0.43333 0.18503 0.0
H624 H 0.46797 0.47952 0.07132 0.0
C625 C 0.47466 0.4398 0.24549 0.0
H626 H 0.49258 0.4408 0.07435 0.0
C627 C 0.45939 0.46089 0.24334 0.0
C628 C 0.45803 0.4765 0.18106 0.0
H629 H 0.47931 0.43159 0.29515 0.0
H630 H 0.45217 0.46807 0.29151 0.0
C631 C 0.46837 0.46749 0.11974 0.0
C632 C 0.05711 0.50658 0.28992 0.0
C633 C 0.07629 0.5045 0.34568 0.0
H634 H 1.00709 0.49012 0.24638 0.0
C635 C 0.05905 0.47863 0.39567 0.0
H636 H 0.06955 0.52555 0.24973 0.0
C637 C 1.02273 0.45763 0.3931 0.0
C638 C 1.00349 0.46225 0.34032 0.0
H639 H 0.07321 0.47643 0.43917 0.0
H640 H 1.00955 0.44011 0.43551 0.0
C641 C 1.02124 0.48584 0.2873 0.0
C642 C 0.54362 1.01552 0.46664 0.0
C643 C 0.5515 0.99631 0.51339 0.0
H644 H 0.55385 0.06529 0.4331 0.0
C645 C 0.57988 1.01416 0.55853 0.0
H646 H 0.52201 1.00253 0.43111 0.0
C647 C 0.59819 0.05077 0.56025 0.0
C648 C 0.58805 0.06977 0.51728 0.0
H649 H 0.58618 0.99996 0.59589 0.0
H650 H 0.61865 0.06404 0.59798 0.0
C651 C 0.56161 0.05164 0.46856 0.0
C652 C 0.59099 0.57416 0.64681 0.0
C653 C 0.59916 0.56304 0.70821 0.0
H654 H 0.56444 0.59844 0.60108 0.0
C655 C 0.59264 0.57406 0.77182 0.0
H656 H 0.59486 0.56516 0.5973 0.0
C657 C 0.5742 0.5921 0.77412 0.0
C658 C 0.56305 0.60018 0.71269 0.0
H659 H 0.59818 0.56521 0.81985 0.0
H660 H 0.566 0.59689 0.82363 0.0
C661 C 0.57333 0.59293 0.64909 0.0
C662 C 1.02757 0.57055 0.80356 0.0
C663 C 0.04869 0.57871 0.86221 0.0
H664 H 0.97567 0.54396 0.76421 0.0
C665 C 0.03328 0.56997 0.92793 0.0
H666 H 0.03889 0.57643 0.75243 0.0
C667 C 0.99726 0.5502 0.93454 0.0
C668 C 0.97619 0.54 0.87557 0.0
H669 H 0.04924 0.57549 0.97379 0.0
H670 H 0.98611 0.54078 -0.01496 0.0
C671 C 0.99148 0.5518 0.8104 0.0
loop_
_geom_bond_atom_site_label_1
_geom_bond_atom_site_label_2
_geom_bond_distance
_geom_bond_site_symmetry_2
_ccdc_geom_bond_type
Mn0 O5 2.095 1_554 S
Mn0 O15 2.162 . S
Mn0 O16 2.297 . S
Mn0 O24 2.385 . S
Mn0 O25 2.209 . S
Mn0 O26 2.094 . S
Mn1 O6 2.121 1_554 S
Mn1 N8 2.257 . S
Mn1 N17 2.282 . S
Mn1 O25 2.215 . S
Mn1 O27 2.117 . S
C2 O24 1.234 . S
C2 O25 1.283 . S
C3 O15 1.281 . S
C3 O16 1.236 . S
C4 O26 1.240 . S
C4 O27 1.264 . S
O5 Mn0 2.095 1_556 S
O5 C14 1.250 . S
O6 Mn1 2.121 1_556 S
O6 C14 1.258 . S
C7 N8 1.326 . S
C7 C11 1.460 . S
C7 H13 0.929 . S
N8 Mn1 2.257 . S
N8 C7 1.326 . S
N8 C12 1.362 . S
C9 C10 1.258 . S
C9 C12 1.431 . S
C9 C29 1.449 . S
C10 C9 1.258 . S
C10 C11 1.477 . S
C10 H30 0.931 . S
C11 C7 1.460 . S
C11 C10 1.477 . S
C11 H31 0.930 . S
C12 N8 1.362 . S
C12 C9 1.431 . S
C12 C22 1.476 . S
H13 C7 0.929 . S
C14 O5 1.250 . S
C14 O6 1.258 . S
O15 Mn0 2.162 . S
O15 C3 1.281 . S
O16 Mn0 2.297 . S
O16 C3 1.236 . S
N17 Mn1 2.282 . S
N17 C18 1.328 . S
N17 C22 1.318 . S
C18 N17 1.328 . S
C18 C19 1.457 . S
C18 H23 0.929 . S
C19 C18 1.457 . S
C19 C20 1.291 . S
C19 H32 0.931 . S
C20 C19 1.291 . S
C20 C21 1.373 . S
C20 H33 0.929 . S
C21 C20 1.373 . S
C21 C22 1.396 . S
C21 C28 1.403 . S
C22 C12 1.476 . S
C22 N17 1.318 . S
C22 C21 1.396 . S
H23 C18 0.929 . S
O24 Mn0 2.385 . S
O24 C2 1.234 . S
O25 Mn0 2.209 . S
O25 Mn1 2.215 . S
O25 C2 1.283 . S
O26 Mn0 2.094 . S
O26 C4 1.240 . S
O27 Mn1 2.117 . S
O27 C4 1.264 . S
C28 C21 1.403 . S
C28 C29 1.399 . S
C28 H34 0.929 . S
C29 C9 1.449 . S
C29 C28 1.399 . S
C29 H35 0.930 . S
H30 C10 0.931 . S
H31 C11 0.930 . S
H32 C19 0.931 . S
H33 C20 0.929 . S
H34 C28 0.929 . S
H35 C29 0.930 . S
Mn36 O41 2.095 . S
Mn36 O51 2.162 . S
Mn36 O52 2.297 . S
Mn36 O60 2.385 . S
Mn36 O61 2.209 . S
Mn36 O62 2.094 . S
Mn37 O42 2.121 . S
Mn37 N44 2.257 . S
Mn37 N53 2.282 . S
Mn37 O61 2.215 . S
Mn37 O63 2.117 . S
C38 O60 1.234 . S
C38 O61 1.283 . S
C39 O51 1.281 . S
C39 O52 1.236 . S
C40 O62 1.240 . S
C40 O63 1.264 . S
O41 Mn36 2.095 . S
O41 C50 1.250 . S
O42 Mn37 2.121 . S
O42 C50 1.258 . S
C43 N44 1.326 . S
C43 C47 1.460 . S
C43 H49 0.929 . S
N44 Mn37 2.257 . S
N44 C43 1.326 . S
N44 C48 1.362 . S
C45 C46 1.258 . S
C45 C48 1.431 . S
C45 C65 1.449 . S
C46 C45 1.258 . S
C46 C47 1.477 . S
C46 H66 0.931 . S
C47 C43 1.460 . S
C47 C46 1.477 . S
C47 H67 0.930 . S
C48 N44 1.362 . S
C48 C45 1.431 . S
C48 C58 1.476 . S
H49 C43 0.929 . S
C50 O41 1.250 . S
C50 O42 1.258 . S
O51 Mn36 2.162 . S
O51 C39 1.281 . S
O52 Mn36 2.297 . S
O52 C39 1.236 . S
N53 Mn37 2.282 . S
N53 C54 1.328 . S
N53 C58 1.318 . S
C54 N53 1.328 . S
C54 C55 1.457 . S
C54 H59 0.929 . S
C55 C54 1.457 . S
C55 C56 1.291 . S
C55 H68 0.931 . S
C56 C55 1.291 . S
C56 C57 1.373 . S
C56 H69 0.929 . S
C57 C56 1.373 . S
C57 C58 1.396 . S
C57 C64 1.403 . S
C58 C48 1.476 . S
C58 N53 1.318 . S
C58 C57 1.396 . S
H59 C54 0.929 . S
O60 Mn36 2.385 . S
O60 C38 1.234 . S
O61 Mn36 2.209 . S
O61 Mn37 2.215 . S
O61 C38 1.283 . S
O62 Mn36 2.094 . S
O62 C40 1.240 . S
O63 Mn37 2.117 . S
O63 C40 1.264 . S
C64 C57 1.403 . S
C64 C65 1.399 . S
C64 H70 0.929 . S
C65 C45 1.449 . S
C65 C64 1.399 . S
C65 H71 0.930 . S
H66 C46 0.931 . S
H67 C47 0.930 . S
H68 C55 0.931 . S
H69 C56 0.929 . S
H70 C64 0.929 . S
H71 C65 0.930 . S
Mn72 O77 2.095 . S
Mn72 O87 2.162 . S
Mn72 O88 2.297 . S
Mn72 O96 2.385 . S
Mn72 O97 2.209 . S
Mn72 O98 2.094 . S
Mn73 O78 2.121 . S
Mn73 N80 2.257 . S
Mn73 N89 2.282 . S
Mn73 O97 2.215 . S
Mn73 O99 2.117 . S
C74 O96 1.234 . S
C74 O97 1.283 . S
C75 O87 1.281 . S
C75 O88 1.236 . S
C76 O98 1.240 . S
C76 O99 1.264 . S
O77 Mn72 2.095 . S
O77 C86 1.250 . S
O78 Mn73 2.121 . S
O78 C86 1.258 . S
C79 N80 1.326 . S
C79 C83 1.460 . S
C79 H85 0.929 . S
N80 Mn73 2.257 . S
N80 C79 1.326 . S
N80 C84 1.362 . S
C81 C82 1.258 . S
C81 C84 1.431 . S
C81 C101 1.449 . S
C82 C81 1.258 . S
C82 C83 1.477 . S
C82 H102 0.931 . S
C83 C79 1.460 . S
C83 C82 1.477 . S
C83 H103 0.930 . S
C84 N80 1.362 . S
C84 C81 1.431 . S
C84 C94 1.476 . S
H85 C79 0.929 . S
C86 O77 1.250 . S
C86 O78 1.258 . S
O87 Mn72 2.162 . S
O87 C75 1.281 . S
O88 Mn72 2.297 . S
O88 C75 1.236 . S
N89 Mn73 2.282 . S
N89 C90 1.328 . S
N89 C94 1.318 . S
C90 N89 1.328 . S
C90 C91 1.457 . S
C90 H95 0.929 . S
C91 C90 1.457 . S
C91 C92 1.291 . S
C91 H104 0.931 . S
C92 C91 1.291 . S
C92 C93 1.373 . S
C92 H105 0.929 . S
C93 C92 1.373 . S
C93 C94 1.396 . S
C93 C100 1.403 . S
C94 C84 1.476 . S
C94 N89 1.318 . S
C94 C93 1.396 . S
H95 C90 0.929 . S
O96 Mn72 2.385 . S
O96 C74 1.234 . S
O97 Mn72 2.209 . S
O97 Mn73 2.215 . S
O97 C74 1.283 . S
O98 Mn72 2.094 . S
O98 C76 1.240 . S
O99 Mn73 2.117 . S
O99 C76 1.264 . S
C100 C93 1.403 . S
C100 C101 1.399 . S
C100 H106 0.929 . S
C101 C81 1.449 . S
C101 C100 1.399 . S
C101 H107 0.930 . S
H102 C82 0.931 . S
H103 C83 0.930 . S
H104 C91 0.931 . S
H105 C92 0.929 . S
H106 C100 0.929 . S
H107 C101 0.930 . S
Mn108 O113 2.095 . S
Mn108 O123 2.162 . S
Mn108 O124 2.297 . S
Mn108 O132 2.385 . S
Mn108 O133 2.209 . S
Mn108 O134 2.094 . S
Mn109 O114 2.121 . S
Mn109 N116 2.257 . S
Mn109 N125 2.282 . S
Mn109 O133 2.215 . S
Mn109 O135 2.117 . S
C110 O132 1.234 . S
C110 O133 1.283 . S
C111 O123 1.281 . S
C111 O124 1.236 . S
C112 O134 1.240 . S
C112 O135 1.264 . S
O113 Mn108 2.095 . S
O113 C122 1.250 . S
O114 Mn109 2.121 . S
O114 C122 1.258 . S
C115 N116 1.326 . S
C115 C119 1.460 . S
C115 H121 0.929 . S
N116 Mn109 2.257 . S
N116 C115 1.326 . S
N116 C120 1.362 . S
C117 C118 1.258 . S
C117 C120 1.431 . S
C117 C137 1.449 . S
C118 C117 1.258 . S
C118 C119 1.477 . S
C118 H138 0.931 . S
C119 C115 1.460 . S
C119 C118 1.477 . S
C119 H139 0.930 . S
C120 N116 1.362 . S
C120 C117 1.431 . S
C120 C130 1.476 . S
H121 C115 0.929 . S
C122 O113 1.250 . S
C122 O114 1.258 . S
O123 Mn108 2.162 . S
O123 C111 1.281 . S
O124 Mn108 2.297 . S
O124 C111 1.236 . S
N125 Mn109 2.282 . S
N125 C126 1.328 . S
N125 C130 1.318 . S
C126 N125 1.328 . S
C126 C127 1.457 . S
C126 H131 0.929 . S
C127 C126 1.457 . S
C127 C128 1.291 . S
C127 H140 0.931 . S
C128 C127 1.291 . S
C128 C129 1.373 . S
C128 H141 0.929 . S
C129 C128 1.373 . S
C129 C130 1.396 . S
C129 C136 1.403 . S
C130 C120 1.476 . S
C130 N125 1.318 . S
C130 C129 1.396 . S
H131 C126 0.929 . S
O132 Mn108 2.385 . S
O132 C110 1.234 . S
O133 Mn108 2.209 . S
O133 Mn109 2.215 . S
O133 C110 1.283 . S
O134 Mn108 2.094 . S
O134 C112 1.240 . S
O135 Mn109 2.117 . S
O135 C112 1.264 . S
C136 C129 1.403 . S
C136 C137 1.399 . S
C136 H142 0.929 . S
C137 C117 1.449 . S
C137 C136 1.399 . S
C137 H143 0.930 . S
H138 C118 0.931 . S
H139 C119 0.930 . S
H140 C127 0.931 . S
H141 C128 0.929 . S
H142 C136 0.929 . S
H143 C137 0.930 . S
Mn144 O149 2.095 . S
Mn144 O159 2.162 . S
Mn144 O160 2.297 . S
Mn144 O168 2.385 . S
Mn144 O169 2.209 . S
Mn144 O170 2.094 . S
Mn145 O150 2.121 . S
Mn145 N152 2.257 . S
Mn145 N161 2.282 . S
Mn145 O169 2.215 . S
Mn145 O171 2.117 . S
C146 O168 1.234 . S
C146 O169 1.283 . S
C147 O159 1.281 . S
C147 O160 1.236 . S
C148 O170 1.240 . S
C148 O171 1.264 . S
O149 Mn144 2.095 . S
O149 C158 1.250 . S
O150 Mn145 2.121 . S
O150 C158 1.258 . S
C151 N152 1.326 . S
C151 C155 1.460 . S
C151 H157 0.929 . S
N152 Mn145 2.257 . S
N152 C151 1.326 . S
N152 C156 1.362 . S
C153 C154 1.258 . S
C153 C156 1.431 . S
C153 C173 1.449 . S
C154 C153 1.258 . S
C154 C155 1.477 . S
C154 H174 0.931 . S
C155 C151 1.460 . S
C155 C154 1.477 . S
C155 H175 0.930 . S
C156 N152 1.362 . S
C156 C153 1.431 . S
C156 C166 1.476 . S
H157 C151 0.929 . S
C158 O149 1.250 . S
C158 O150 1.258 . S
O159 Mn144 2.162 . S
O159 C147 1.281 . S
O160 Mn144 2.297 . S
O160 C147 1.236 . S
N161 Mn145 2.282 . S
N161 C162 1.328 . S
N161 C166 1.318 . S
C162 N161 1.328 . S
C162 C163 1.457 . S
C162 H167 0.929 . S
C163 C162 1.457 . S
C163 C164 1.291 . S
C163 H176 0.931 . S
C164 C163 1.291 . S
C164 C165 1.373 . S
C164 H177 0.929 1_556 S
C165 C164 1.373 . S
C165 C166 1.396 . S
C165 C172 1.403 . S
C166 C156 1.476 . S
C166 N161 1.318 . S
C166 C165 1.396 . S
H167 C162 0.929 . S
O168 Mn144 2.385 . S
O168 C146 1.234 . S
O169 Mn144 2.209 . S
O169 Mn145 2.215 . S
O169 C146 1.283 . S
O170 Mn144 2.094 . S
O170 C148 1.240 . S
O171 Mn145 2.117 . S
O171 C148 1.264 . S
C172 C165 1.403 . S
C172 C173 1.399 . S
C172 H178 0.929 . S
C173 C153 1.449 . S
C173 C172 1.399 . S
C173 H179 0.930 . S
H174 C154 0.931 . S
H175 C155 0.930 . S
H176 C163 0.931 . S
H177 C164 0.929 1_554 S
H178 C172 0.929 . S
H179 C173 0.930 . S
Mn180 O185 2.095 . S
Mn180 O195 2.162 . S
Mn180 O196 2.297 . S
Mn180 O204 2.385 1_556 S
Mn180 O205 2.209 . S
Mn180 O206 2.094 . S
Mn181 O186 2.121 . S
Mn181 N188 2.257 . S
Mn181 N197 2.282 1_556 S
Mn181 O205 2.215 . S
Mn181 O207 2.117 . S
C182 O204 1.234 . S
C182 O205 1.283 1_554 S
C183 O195 1.281 . S
C183 O196 1.236 . S
C184 O206 1.240 . S
C184 O207 1.264 . S
O185 Mn180 2.095 . S
O185 C194 1.250 . S
O186 Mn181 2.121 . S
O186 C194 1.258 . S
C187 N188 1.326 . S
C187 C191 1.460 . S
C187 H193 0.929 . S
N188 Mn181 2.257 . S
N188 C187 1.326 . S
N188 C192 1.362 . S
C189 C190 1.258 1_554 S
C189 C192 1.431 1_554 S
C189 C209 1.449 . S
C190 C189 1.258 1_556 S
C190 C191 1.477 . S
C190 H210 0.931 . S
C191 C187 1.460 . S
C191 C190 1.477 . S
C191 H211 0.930 . S
C192 N188 1.362 . S
C192 C189 1.431 1_556 S
C192 C202 1.476 1_556 S
H193 C187 0.929 . S
C194 O185 1.250 . S
C194 O186 1.258 . S
O195 Mn180 2.162 . S
O195 C183 1.281 . S
O196 Mn180 2.297 . S
O196 C183 1.236 . S
N197 Mn181 2.282 1_554 S
N197 C198 1.328 . S
N197 C202 1.318 . S
C198 N197 1.328 . S
C198 C199 1.457 . S
C198 H203 0.929 . S
C199 C198 1.457 . S
C199 C200 1.291 . S
C199 H212 0.931 . S
C200 C199 1.291 . S
C200 C201 1.373 . S
C200 H213 0.929 . S
C201 C200 1.373 . S
C201 C202 1.396 . S
C201 C208 1.403 . S
C202 C192 1.476 1_554 S
C202 N197 1.318 . S
C202 C201 1.396 . S
H203 C198 0.929 . S
O204 Mn180 2.385 1_554 S
O204 C182 1.234 . S
O205 Mn180 2.209 . S
O205 Mn181 2.215 . S
O205 C182 1.283 1_556 S
O206 Mn180 2.094 . S
O206 C184 1.240 . S
O207 Mn181 2.117 . S
O207 C184 1.264 . S
C208 C201 1.403 . S
C208 C209 1.399 . S
C208 H214 0.929 . S
C209 C189 1.449 . S
C209 C208 1.399 . S
C209 H215 0.930 . S
H210 C190 0.931 . S
H211 C191 0.930 . S
H212 C199 0.931 . S
H213 C200 0.929 . S
H214 C208 0.929 . S
H215 C209 0.930 . S
Mn216 O221 2.095 . S
Mn216 O231 2.162 . S
Mn216 O232 2.297 . S
Mn216 O240 2.385 . S
Mn216 O241 2.209 . S
Mn216 O242 2.094 . S
Mn217 O222 2.121 . S
Mn217 N224 2.257 . S
Mn217 N233 2.282 . S
Mn217 O241 2.215 . S
Mn217 O243 2.117 . S
C218 O240 1.234 . S
C218 O241 1.283 . S
C219 O231 1.281 . S
C219 O232 1.236 . S
C220 O242 1.240 . S
C220 O243 1.264 . S
O221 Mn216 2.095 . S
O221 C230 1.250 1_556 S
O222 Mn217 2.121 . S
O222 C230 1.258 1_556 S
C223 N224 1.326 . S
C223 C227 1.460 . S
C223 H229 0.929 . S
N224 Mn217 2.257 . S
N224 C223 1.326 . S
N224 C228 1.362 . S
C225 C226 1.258 . S
C225 C228 1.431 . S
C225 C245 1.449 . S
C226 C225 1.258 . S
C226 C227 1.477 . S
C226 H246 0.931 . S
C227 C223 1.460 . S
C227 C226 1.477 . S
C227 H247 0.930 . S
C228 N224 1.362 . S
C228 C225 1.431 . S
C228 C238 1.476 . S
H229 C223 0.929 . S
C230 O221 1.250 1_554 S
C230 O222 1.258 1_554 S
O231 Mn216 2.162 . S
O231 C219 1.281 . S
O232 Mn216 2.297 . S
O232 C219 1.236 . S
N233 Mn217 2.282 . S
N233 C234 1.328 . S
N233 C238 1.318 . S
C234 N233 1.328 . S
C234 C235 1.457 . S
C234 H239 0.929 . S
C235 C234 1.457 . S
C235 C236 1.291 . S
C235 H248 0.931 . S
C236 C235 1.291 . S
C236 C237 1.373 . S
C236 H249 0.929 . S
C237 C236 1.373 . S
C237 C238 1.396 . S
C237 C244 1.403 . S
C238 C228 1.476 . S
C238 N233 1.318 . S
C238 C237 1.396 . S
H239 C234 0.929 . S
O240 Mn216 2.385 . S
O240 C218 1.234 . S
O241 Mn216 2.209 . S
O241 Mn217 2.215 . S
O241 C218 1.283 . S
O242 Mn216 2.094 . S
O242 C220 1.240 . S
O243 Mn217 2.117 . S
O243 C220 1.264 . S
C244 C237 1.403 . S
C244 C245 1.399 . S
C244 H250 0.929 . S
C245 C225 1.449 . S
C245 C244 1.399 . S
C245 H251 0.930 . S
H246 C226 0.931 . S
H247 C227 0.930 . S
H248 C235 0.931 . S
H249 C236 0.929 . S
H250 C244 0.929 . S
H251 C245 0.930 . S
Mn252 O257 2.095 . S
Mn252 O267 2.162 . S
Mn252 O268 2.297 . S
Mn252 O276 2.385 1_554 S
Mn252 O277 2.209 1_554 S
Mn252 O278 2.094 . S
Mn253 O258 2.121 . S
Mn253 N260 2.257 . S
Mn253 N269 2.282 1_554 S
Mn253 O277 2.215 1_554 S
Mn253 O279 2.117 . S
C254 O276 1.234 . S
C254 O277 1.283 . S
C255 O267 1.281 . S
C255 O268 1.236 . S
C256 O278 1.240 . S
C256 O279 1.264 . S
O257 Mn252 2.095 . S
O257 C266 1.250 . S
O258 Mn253 2.121 . S
O258 C266 1.258 . S
C259 N260 1.326 . S
C259 C263 1.460 . S
C259 H265 0.929 . S
N260 Mn253 2.257 . S
N260 C259 1.326 . S
N260 C264 1.362 1_554 S
C261 C262 1.258 . S
C261 C264 1.431 . S
C261 C281 1.449 . S
C262 C261 1.258 . S
C262 C263 1.477 1_556 S
C262 H282 0.931 . S
C263 C259 1.460 . S
C263 C262 1.477 1_554 S
C263 H283 0.930 . S
C264 N260 1.362 1_556 S
C264 C261 1.431 . S
C264 C274 1.476 . S
H265 C259 0.929 . S
C266 O257 1.250 . S
C266 O258 1.258 . S
O267 Mn252 2.162 . S
O267 C255 1.281 . S
O268 Mn252 2.297 . S
O268 C255 1.236 . S
N269 Mn253 2.282 1_556 S
N269 C270 1.328 . S
N269 C274 1.318 . S
C270 N269 1.328 . S
C270 C271 1.457 . S
C270 H275 0.929 . S
C271 C270 1.457 . S
C271 C272 1.291 . S
C271 H284 0.931 . S
C272 C271 1.291 . S
C272 C273 1.373 . S
C272 H285 0.929 . S
C273 C272 1.373 . S
C273 C274 1.396 . S
C273 C280 1.403 . S
C274 C264 1.476 . S
C274 N269 1.318 . S
C274 C273 1.396 . S
H275 C270 0.929 . S
O276 Mn252 2.385 1_556 S
O276 C254 1.234 . S
O277 Mn252 2.209 1_556 S
O277 Mn253 2.215 1_556 S
O277 C254 1.283 . S
O278 Mn252 2.094 . S
O278 C256 1.240 . S
O279 Mn253 2.117 . S
O279 C256 1.264 . S
C280 C273 1.403 . S
C280 C281 1.399 . S
C280 H286 0.929 . S
C281 C261 1.449 . S
C281 C280 1.399 . S
C281 H287 0.930 . S
H282 C262 0.931 . S
H283 C263 0.930 . S
H284 C271 0.931 . S
H285 C272 0.929 . S
H286 C280 0.929 . S
H287 C281 0.930 . S
Mn288 O293 2.095 . S
Mn288 O303 2.162 . S
Mn288 O304 2.297 . S
Mn288 O312 2.385 . S
Mn288 O313 2.209 . S
Mn288 O314 2.094 . S
Mn289 O294 2.121 . S
Mn289 N296 2.257 . S
Mn289 N305 2.282 . S
Mn289 O313 2.215 . S
Mn289 O315 2.117 . S
C290 O312 1.234 . S
C290 O313 1.283 . S
C291 O303 1.281 . S
C291 O304 1.236 . S
C292 O314 1.240 . S
C292 O315 1.264 . S
O293 Mn288 2.095 . S
O293 C302 1.250 . S
O294 Mn289 2.121 . S
O294 C302 1.258 . S
C295 N296 1.326 . S
C295 C299 1.460 . S
C295 H301 0.929 . S
N296 Mn289 2.257 . S
N296 C295 1.326 . S
N296 C300 1.362 . S
C297 C298 1.258 . S
C297 C300 1.431 . S
C297 C317 1.449 . S
C298 C297 1.258 . S
C298 C299 1.477 . S
C298 H318 0.931 . S
C299 C295 1.460 . S
C299 C298 1.477 . S
C299 H319 0.930 . S
C300 N296 1.362 . S
C300 C297 1.431 . S
C300 C310 1.476 . S
H301 C295 0.929 . S
C302 O293 1.250 . S
C302 O294 1.258 . S
O303 Mn288 2.162 . S
O303 C291 1.281 . S
O304 Mn288 2.297 . S
O304 C291 1.236 . S
N305 Mn289 2.282 . S
N305 C306 1.328 . S
N305 C310 1.318 . S
C306 N305 1.328 . S
C306 C307 1.457 . S
C306 H311 0.929 . S
C307 C306 1.457 . S
C307 C308 1.291 1_554 S
C307 H320 0.931 1_554 S
C308 C307 1.291 1_556 S
C308 C309 1.373 1_556 S
C308 H321 0.929 . S
C309 C308 1.373 1_554 S
C309 C310 1.396 . S
C309 C316 1.403 . S
C310 C300 1.476 . S
C310 N305 1.318 . S
C310 C309 1.396 . S
H311 C306 0.929 . S
O312 Mn288 2.385 . S
O312 C290 1.234 . S
O313 Mn288 2.209 . S
O313 Mn289 2.215 . S
O313 C290 1.283 . S
O314 Mn288 2.094 . S
O314 C292 1.240 . S
O315 Mn289 2.117 . S
O315 C292 1.264 . S
C316 C309 1.403 . S
C316 C317 1.399 . S
C316 H322 0.929 1_554 S
C317 C297 1.449 . S
C317 C316 1.399 . S
C317 H323 0.930 . S
H318 C298 0.931 . S
H319 C299 0.930 . S
H320 C307 0.931 1_556 S
H321 C308 0.929 . S
H322 C316 0.929 1_556 S
H323 C317 0.930 . S
Mn324 O329 2.095 . S
Mn324 O339 2.162 . S
Mn324 O340 2.297 . S
Mn324 O348 2.385 . S
Mn324 O349 2.209 . S
Mn324 O350 2.094 . S
Mn325 O330 2.121 . S
Mn325 N332 2.257 . S
Mn325 N341 2.282 . S
Mn325 O349 2.215 . S
Mn325 O351 2.117 . S
C326 O348 1.234 . S
C326 O349 1.283 . S
C327 O339 1.281 . S
C327 O340 1.236 . S
C328 O350 1.240 . S
C328 O351 1.264 . S
O329 Mn324 2.095 . S
O329 C338 1.250 . S
O330 Mn325 2.121 . S
O330 C338 1.258 . S
C331 N332 1.326 . S
C331 C335 1.460 . S
C331 H337 0.929 . S
N332 Mn325 2.257 . S
N332 C331 1.326 . S
N332 C336 1.362 . S
C333 C334 1.258 . S
C333 C336 1.431 . S
C333 C353 1.449 . S
C334 C333 1.258 . S
C334 C335 1.477 . S
C334 H354 0.931 . S
C335 C331 1.460 . S
C335 C334 1.477 . S
C335 H355 0.930 . S
C336 N332 1.362 . S
C336 C333 1.431 . S
C336 C346 1.476 . S
H337 C331 0.929 . S
C338 O329 1.250 . S
C338 O330 1.258 . S
O339 Mn324 2.162 . S
O339 C327 1.281 . S
O340 Mn324 2.297 . S
O340 C327 1.236 . S
N341 Mn325 2.282 . S
N341 C342 1.328 . S
N341 C346 1.318 . S
C342 N341 1.328 . S
C342 C343 1.457 . S
C342 H347 0.929 . S
C343 C342 1.457 . S
C343 C344 1.291 . S
C343 H356 0.931 . S
C344 C343 1.291 . S
C344 C345 1.373 . S
C344 H357 0.929 . S
C345 C344 1.373 . S
C345 C346 1.396 . S
C345 C352 1.403 . S
C346 C336 1.476 . S
C346 N341 1.318 . S
C346 C345 1.396 . S
H347 C342 0.929 . S
O348 Mn324 2.385 . S
O348 C326 1.234 . S
O349 Mn324 2.209 . S
O349 Mn325 2.215 . S
O349 C326 1.283 . S
O350 Mn324 2.094 . S
O350 C328 1.240 . S
O351 Mn325 2.117 . S
O351 C328 1.264 . S
C352 C345 1.403 . S
C352 C353 1.399 . S
C352 H358 0.929 . S
C353 C333 1.449 . S
C353 C352 1.399 . S
C353 H359 0.930 . S
H354 C334 0.931 . S
H355 C335 0.930 . S
H356 C343 0.931 . S
H357 C344 0.929 . S
H358 C352 0.929 . S
H359 C353 0.930 . S
Mn360 O365 2.095 . S
Mn360 O375 2.162 . S
Mn360 O376 2.297 . S
Mn360 O384 2.385 . S
Mn360 O385 2.209 . S
Mn360 O386 2.094 . S
Mn361 O366 2.121 . S
Mn361 N368 2.257 . S
Mn361 N377 2.282 . S
Mn361 O385 2.215 . S
Mn361 O387 2.117 . S
C362 O384 1.234 . S
C362 O385 1.283 . S
C363 O375 1.281 . S
C363 O376 1.236 . S
C364 O386 1.240 . S
C364 O387 1.264 . S
O365 Mn360 2.095 . S
O365 C374 1.250 . S
O366 Mn361 2.121 . S
O366 C374 1.258 . S
C367 N368 1.326 . S
C367 C371 1.460 . S
C367 H373 0.929 . S
N368 Mn361 2.257 . S
N368 C367 1.326 . S
N368 C372 1.362 . S
C369 C370 1.258 . S
C369 C372 1.431 . S
C369 C389 1.449 . S
C370 C369 1.258 . S
C370 C371 1.477 . S
C370 H390 0.931 . S
C371 C367 1.460 . S
C371 C370 1.477 . S
C371 H391 0.930 . S
C372 N368 1.362 . S
C372 C369 1.431 . S
C372 C382 1.476 . S
H373 C367 0.929 . S
C374 O365 1.250 . S
C374 O366 1.258 . S
O375 Mn360 2.162 . S
O375 C363 1.281 . S
O376 Mn360 2.297 . S
O376 C363 1.236 . S
N377 Mn361 2.282 . S
N377 C378 1.328 . S
N377 C382 1.318 . S
C378 N377 1.328 . S
C378 C379 1.457 . S
C378 H383 0.929 . S
C379 C378 1.457 . S
C379 C380 1.291 . S
C379 H392 0.931 . S
C380 C379 1.291 . S
C380 C381 1.373 . S
C380 H393 0.929 . S
C381 C380 1.373 . S
C381 C382 1.396 . S
C381 C388 1.403 . S
C382 C372 1.476 . S
C382 N377 1.318 . S
C382 C381 1.396 . S
H383 C378 0.929 . S
O384 Mn360 2.385 . S
O384 C362 1.234 . S
O385 Mn360 2.209 . S
O385 Mn361 2.215 . S
O385 C362 1.283 . S
O386 Mn360 2.094 . S
O386 C364 1.240 . S
O387 Mn361 2.117 . S
O387 C364 1.264 . S
C388 C381 1.403 . S
C388 C389 1.399 . S
C388 H394 0.929 . S
C389 C369 1.449 . S
C389 C388 1.399 . S
C389 H395 0.930 . S
H390 C370 0.931 . S
H391 C371 0.930 . S
H392 C379 0.931 . S
H393 C380 0.929 . S
H394 C388 0.929 . S
H395 C389 0.930 . S
Mn396 O401 2.095 . S
Mn396 O411 2.162 . S
Mn396 O412 2.297 . S
Mn396 O420 2.385 . S
Mn396 O421 2.209 . S
Mn396 O422 2.094 . S
Mn397 O402 2.121 . S
Mn397 N404 2.257 . S
Mn397 N413 2.282 . S
Mn397 O421 2.215 . S
Mn397 O423 2.117 . S
C398 O420 1.234 . S
C398 O421 1.283 . S
C399 O411 1.281 . S
C399 O412 1.236 . S
C400 O422 1.240 . S
C400 O423 1.264 . S
O401 Mn396 2.095 . S
O401 C410 1.250 . S
O402 Mn397 2.121 . S
O402 C410 1.258 . S
C403 N404 1.326 . S
C403 C407 1.460 . S
C403 H409 0.929 . S
N404 Mn397 2.257 . S
N404 C403 1.326 . S
N404 C408 1.362 . S
C405 C406 1.258 . S
C405 C408 1.431 . S
C405 C425 1.449 . S
C406 C405 1.258 . S
C406 C407 1.477 . S
C406 H426 0.931 . S
C407 C403 1.460 . S
C407 C406 1.477 . S
C407 H427 0.930 . S
C408 N404 1.362 . S
C408 C405 1.431 . S
C408 C418 1.476 . S
H409 C403 0.929 . S
C410 O401 1.250 . S
C410 O402 1.258 . S
O411 Mn396 2.162 . S
O411 C399 1.281 . S
O412 Mn396 2.297 . S
O412 C399 1.236 . S
N413 Mn397 2.282 . S
N413 C414 1.328 . S
N413 C418 1.318 . S
C414 N413 1.328 . S
C414 C415 1.457 . S
C414 H419 0.929 . S
C415 C414 1.457 . S
C415 C416 1.291 . S
C415 H428 0.931 . S
C416 C415 1.291 . S
C416 C417 1.373 . S
C416 H429 0.929 . S
C417 C416 1.373 . S
C417 C418 1.396 . S
C417 C424 1.403 . S
C418 C408 1.476 . S
C418 N413 1.318 . S
C418 C417 1.396 . S
H419 C414 0.929 . S
O420 Mn396 2.385 . S
O420 C398 1.234 . S
O421 Mn396 2.209 . S
O421 Mn397 2.215 . S
O421 C398 1.283 . S
O422 Mn396 2.094 . S
O422 C400 1.240 . S
O423 Mn397 2.117 . S
O423 C400 1.264 . S
C424 C417 1.403 . S
C424 C425 1.399 . S
C424 H430 0.929 . S
C425 C405 1.449 . S
C425 C424 1.399 . S
C425 H431 0.930 . S
H426 C406 0.931 . S
H427 C407 0.930 . S
H428 C415 0.931 . S
H429 C416 0.929 . S
H430 C424 0.929 . S
H431 C425 0.930 . S
C432 C433 1.387 . S
C432 H436 0.950 . S
C432 C441 1.390 . S
C433 C432 1.387 . S
C433 C435 1.387 . S
H434 C441 0.950 . S
C435 C433 1.387 . S
C435 C437 1.390 . S
C435 H439 0.950 . S
H436 C432 0.950 . S
C437 C435 1.390 . S
C437 C438 1.387 . S
C437 H440 0.950 . S
C438 C437 1.387 . S
C438 C441 1.387 . S
H439 C435 0.950 . S
H440 C437 0.950 . S
C441 C432 1.390 . S
C441 H434 0.950 . S
C441 C438 1.387 . S
C442 C443 1.387 . S
C442 H446 0.950 . S
C442 C451 1.390 . S
C443 C442 1.387 . S
C443 C445 1.387 . S
H444 C451 0.950 . S
C445 C443 1.387 . S
C445 C447 1.390 . S
C445 H449 0.950 . S
H446 C442 0.950 . S
C447 C445 1.390 . S
C447 C448 1.387 . S
C447 H450 0.950 . S
C448 C447 1.387 . S
C448 C451 1.387 . S
H449 C445 0.950 . S
H450 C447 0.950 . S
C451 C442 1.390 . S
C451 H444 0.950 . S
C451 C448 1.387 . S
C452 C453 1.387 . S
C452 H456 0.950 . S
C452 C461 1.390 . S
C453 C452 1.387 . S
C453 C455 1.387 . S
H454 C461 0.950 . S
C455 C453 1.387 . S
C455 C457 1.390 . S
C455 H459 0.950 . S
H456 C452 0.950 . S
C457 C455 1.390 . S
C457 C458 1.387 . S
C457 H460 0.950 . S
C458 C457 1.387 . S
C458 C461 1.387 . S
H459 C455 0.950 . S
H460 C457 0.950 . S
C461 C452 1.390 . S
C461 H454 0.950 . S
C461 C458 1.387 . S
C462 C463 1.387 . S
C462 H466 0.950 . S
C462 C471 1.390 . S
C463 C462 1.387 . S
C463 C465 1.387 . S
H464 C471 0.950 . S
C465 C463 1.387 . S
C465 C467 1.390 . S
C465 H469 0.950 . S
H466 C462 0.950 . S
C467 C465 1.390 . S
C467 C468 1.387 . S
C467 H470 0.950 . S
C468 C467 1.387 . S
C468 C471 1.387 . S
H469 C465 0.950 . S
H470 C467 0.950 . S
C471 C462 1.390 . S
C471 H464 0.950 . S
C471 C468 1.387 . S
C472 C473 1.387 1_556 S
C472 H476 0.950 . S
C472 C481 1.390 . S
C473 C472 1.387 1_554 S
C473 C475 1.387 . S
H474 C481 0.950 . S
C475 C473 1.387 . S
C475 C477 1.390 1_554 S
C475 H479 0.950 . S
H476 C472 0.950 . S
C477 C475 1.390 1_556 S
C477 C478 1.387 . S
C477 H480 0.950 . S
C478 C477 1.387 . S
C478 C481 1.387 . S
H479 C475 0.950 . S
H480 C477 0.950 . S
C481 C472 1.390 . S
C481 H474 0.950 . S
C481 C478 1.387 . S
C482 C483 1.387 . S
C482 H486 0.950 . S
C482 C491 1.390 . S
C483 C482 1.387 . S
C483 C485 1.387 . S
H484 C491 0.950 . S
C485 C483 1.387 . S
C485 C487 1.390 . S
C485 H489 0.950 . S
H486 C482 0.950 . S
C487 C485 1.390 . S
C487 C488 1.387 . S
C487 H490 0.950 . S
C488 C487 1.387 . S
C488 C491 1.387 . S
H489 C485 0.950 . S
H490 C487 0.950 . S
C491 C482 1.390 . S
C491 H484 0.950 . S
C491 C488 1.387 . S
C492 C493 1.387 . S
C492 H496 0.950 . S
C492 C501 1.390 . S
C493 C492 1.387 . S
C493 C495 1.387 . S
H494 C501 0.950 . S
C495 C493 1.387 . S
C495 C497 1.390 . S
C495 H499 0.950 . S
H496 C492 0.950 . S
C497 C495 1.390 . S
C497 C498 1.387 . S
C497 H500 0.950 . S
C498 C497 1.387 . S
C498 C501 1.387 . S
H499 C495 0.950 . S
H500 C497 0.950 . S
C501 C492 1.390 . S
C501 H494 0.950 . S
C501 C498 1.387 . S
C502 C503 1.387 . S
C502 H506 0.950 . S
C502 C511 1.390 . S
C503 C502 1.387 . S
C503 C505 1.387 . S
H504 C511 0.950 . S
C505 C503 1.387 . S
C505 C507 1.390 . S
C505 H509 0.950 . S
H506 C502 0.950 . S
C507 C505 1.390 . S
C507 C508 1.387 . S
C507 H510 0.950 . S
C508 C507 1.387 . S
C508 C511 1.387 . S
H509 C505 0.950 . S
H510 C507 0.950 . S
C511 C502 1.390 . S
C511 H504 0.950 . S
C511 C508 1.387 . S
C512 C513 1.387 . S
C512 H516 0.950 . S
C512 C521 1.390 . S
C513 C512 1.387 . S
C513 C515 1.387 . S
H514 C521 0.950 . S
C515 C513 1.387 . S
C515 C517 1.390 . S
C515 H519 0.950 . S
H516 C512 0.950 . S
C517 C515 1.390 . S
C517 C518 1.387 . S
C517 H520 0.950 . S
C518 C517 1.387 . S
C518 C521 1.387 . S
H519 C515 0.950 . S
H520 C517 0.950 . S
C521 C512 1.390 . S
C521 H514 0.950 . S
C521 C518 1.387 . S
C522 C523 1.387 . S
C522 H526 0.950 . S
C522 C531 1.390 . S
C523 C522 1.387 . S
C523 C525 1.387 . S
H524 C531 0.950 . S
C525 C523 1.387 . S
C525 C527 1.390 . S
C525 H529 0.950 . S
H526 C522 0.950 . S
C527 C525 1.390 . S
C527 C528 1.387 . S
C527 H530 0.950 . S
C528 C527 1.387 . S
C528 C531 1.387 . S
H529 C525 0.950 . S
H530 C527 0.950 . S
C531 C522 1.390 . S
C531 H524 0.950 . S
C531 C528 1.387 . S
C532 C533 1.387 . S
C532 H536 0.950 . S
C532 C541 1.390 . S
C533 C532 1.387 . S
C533 C535 1.387 . S
H534 C541 0.950 . S
C535 C533 1.387 . S
C535 C537 1.390 . S
C535 H539 0.950 . S
H536 C532 0.950 . S
C537 C535 1.390 . S
C537 C538 1.387 . S
C537 H540 0.950 . S
C538 C537 1.387 . S
C538 C541 1.387 . S
H539 C535 0.950 . S
H540 C537 0.950 . S
C541 C532 1.390 . S
C541 H534 0.950 . S
C541 C538 1.387 . S
C542 C543 1.387 1_554 S
C542 H546 0.950 . S
C542 C551 1.390 . S
C543 C542 1.387 1_556 S
C543 C545 1.387 . S
H544 C551 0.950 . S
C545 C543 1.387 . S
C545 C547 1.390 . S
C545 H549 0.950 . S
H546 C542 0.950 . S
C547 C545 1.390 . S
C547 C548 1.387 1_556 S
C547 H550 0.950 . S
C548 C547 1.387 1_554 S
C548 C551 1.387 . S
H549 C545 0.950 . S
H550 C547 0.950 . S
C551 C542 1.390 . S
C551 H544 0.950 . S
C551 C548 1.387 . S
C552 C553 1.387 . S
C552 H556 0.950 . S
C552 C561 1.390 . S
C553 C552 1.387 . S
C553 C555 1.387 . S
H554 C561 0.950 . S
C555 C553 1.387 . S
C555 C557 1.390 . S
C555 H559 0.950 . S
H556 C552 0.950 . S
C557 C555 1.390 . S
C557 C558 1.387 . S
C557 H560 0.950 . S
C558 C557 1.387 . S
C558 C561 1.387 . S
H559 C555 0.950 . S
H560 C557 0.950 . S
C561 C552 1.390 . S
C561 H554 0.950 . S
C561 C558 1.387 . S
C562 C563 1.387 . S
C562 H566 0.950 . S
C562 C571 1.390 1_556 S
C563 C562 1.387 . S
C563 C565 1.387 . S
H564 C571 0.950 . S
C565 C563 1.387 . S
C565 C567 1.390 . S
C565 H569 0.950 . S
H566 C562 0.950 . S
C567 C565 1.390 . S
C567 C568 1.387 1_556 S
C567 H570 0.950 1_556 S
C568 C567 1.387 1_554 S
C568 C571 1.387 . S
H569 C565 0.950 . S
H570 C567 0.950 1_554 S
C571 C562 1.390 1_554 S
C571 H564 0.950 . S
C571 C568 1.387 . S
C572 C573 1.387 . S
C572 H576 0.950 . S
C572 C581 1.390 . S
C573 C572 1.387 . S
C573 C575 1.387 . S
H574 C581 0.950 . S
C575 C573 1.387 . S
C575 C577 1.390 . S
C575 H579 0.950 . S
H576 C572 0.950 . S
C577 C575 1.390 . S
C577 C578 1.387 . S
C577 H580 0.950 . S
C578 C577 1.387 . S
C578 C581 1.387 . S
H579 C575 0.950 . S
H580 C577 0.950 . S
C581 C572 1.390 . S
C581 H574 0.950 . S
C581 C578 1.387 . S
C582 C583 1.387 . S
C582 H586 0.950 . S
C582 C591 1.390 . S
C583 C582 1.387 . S
C583 C585 1.387 . S
H584 C591 0.950 . S
C585 C583 1.387 . S
C585 C587 1.390 . S
C585 H589 0.950 . S
H586 C582 0.950 . S
C587 C585 1.390 . S
C587 C588 1.387 . S
C587 H590 0.950 . S
C588 C587 1.387 . S
C588 C591 1.387 . S
H589 C585 0.950 . S
H590 C587 0.950 . S
C591 C582 1.390 . S
C591 H584 0.950 . S
C591 C588 1.387 . S
C592 C593 1.387 . S
C592 H596 0.950 . S
C592 C601 1.390 . S
C593 C592 1.387 . S
C593 C595 1.387 . S
H594 C601 0.950 . S
C595 C593 1.387 . S
C595 C597 1.390 . S
C595 H599 0.950 . S
H596 C592 0.950 . S
C597 C595 1.390 . S
C597 C598 1.387 . S
C597 H600 0.950 . S
C598 C597 1.387 . S
C598 C601 1.387 . S
H599 C595 0.950 . S
H600 C597 0.950 . S
C601 C592 1.390 . S
C601 H594 0.950 . S
C601 C598 1.387 . S
C602 C603 1.387 . S
C602 H606 0.950 . S
C602 C611 1.390 . S
C603 C602 1.387 . S
C603 C605 1.387 . S
H604 C611 0.950 . S
C605 C603 1.387 . S
C605 C607 1.390 . S
C605 H609 0.950 . S
H606 C602 0.950 . S
C607 C605 1.390 . S
C607 C608 1.387 . S
C607 H610 0.950 . S
C608 C607 1.387 . S
C608 C611 1.387 . S
H609 C605 0.950 . S
H610 C607 0.950 . S
C611 C602 1.390 . S
C611 H604 0.950 . S
C611 C608 1.387 . S
C612 C613 1.387 . S
C612 H616 0.950 . S
C612 C621 1.390 1_545 S
C613 C612 1.387 . S
C613 C615 1.387 . S
H614 C621 0.950 . S
C615 C613 1.387 . S
C615 C617 1.390 1_545 S
C615 H619 0.950 . S
H616 C612 0.950 . S
C617 C615 1.390 1_565 S
C617 C618 1.387 . S
C617 H620 0.950 . S
C618 C617 1.387 . S
C618 C621 1.387 . S
H619 C615 0.950 . S
H620 C617 0.950 . S
C621 C612 1.390 1_565 S
C621 H614 0.950 . S
C621 C618 1.387 . S
C622 C623 1.387 . S
C622 H626 0.950 . S
C622 C631 1.390 . S
C623 C622 1.387 . S
C623 C625 1.387 . S
H624 C631 0.950 . S
C625 C623 1.387 . S
C625 C627 1.390 . S
C625 H629 0.950 . S
H626 C622 0.950 . S
C627 C625 1.390 . S
C627 C628 1.387 . S
C627 H630 0.950 . S
C628 C627 1.387 . S
C628 C631 1.387 . S
H629 C625 0.950 . S
H630 C627 0.950 . S
C631 C622 1.390 . S
C631 H624 0.950 . S
C631 C628 1.387 . S
C632 C633 1.387 . S
C632 H636 0.950 . S
C632 C641 1.390 1_455 S
C633 C632 1.387 . S
C633 C635 1.387 . S
H634 C641 0.950 . S
C635 C633 1.387 . S
C635 C637 1.390 1_455 S
C635 H639 0.950 . S
H636 C632 0.950 . S
C637 C635 1.390 1_655 S
C637 C638 1.387 . S
C637 H640 0.950 . S
C638 C637 1.387 . S
C638 C641 1.387 . S
H639 C635 0.950 . S
H640 C637 0.950 . S
C641 C632 1.390 1_655 S
C641 H634 0.950 . S
C641 C638 1.387 . S
C642 C643 1.387 . S
C642 H646 0.950 . S
C642 C651 1.390 1_565 S
C643 C642 1.387 . S
C643 C645 1.387 . S
H644 C651 0.950 . S
C645 C643 1.387 . S
C645 C647 1.390 1_565 S
C645 H649 0.950 . S
H646 C642 0.950 . S
C647 C645 1.390 1_545 S
C647 C648 1.387 . S
C647 H650 0.950 . S
C648 C647 1.387 . S
C648 C651 1.387 . S
H649 C645 0.950 . S
H650 C647 0.950 . S
C651 C642 1.390 1_545 S
C651 H644 0.950 . S
C651 C648 1.387 . S
C652 C653 1.387 . S
C652 H656 0.950 . S
C652 C661 1.390 . S
C653 C652 1.387 . S
C653 C655 1.387 . S
H654 C661 0.950 . S
C655 C653 1.387 . S
C655 C657 1.390 . S
C655 H659 0.950 . S
H656 C652 0.950 . S
C657 C655 1.390 . S
C657 C658 1.387 . S
C657 H660 0.950 . S
C658 C657 1.387 . S
C658 C661 1.387 . S
H659 C655 0.950 . S
H660 C657 0.950 . S
C661 C652 1.390 . S
C661 H654 0.950 . S
C661 C658 1.387 . S
C662 C663 1.387 . S
C662 H666 0.950 . S
C662 C671 1.390 1_455 S
C663 C662 1.387 . S
C663 C665 1.387 . S
H664 C671 0.950 . S
C665 C663 1.387 . S
C665 C667 1.390 1_455 S
C665 H669 0.950 1_556 S
H666 C662 0.950 . S
C667 C665 1.390 1_655 S
C667 C668 1.387 . S
C667 H670 0.950 1_556 S
C668 C667 1.387 . S
C668 C671 1.387 . S
H669 C665 0.950 1_554 S
H670 C667 0.950 1_554 S
C671 C662 1.390 1_655 S
C671 H664 0.950 . S
C671 C668 1.387 . S
C433 C2 1.297 . S
C438 C362 1.297 . S
C443 C38 1.296 . S
C448 C398 1.296 . S
C453 C218 1.297 . S
C458 C74 1.297 . S
C463 C110 1.295 . S
C468 C254 1.295 . S
C473 C290 1.296 . S
C478 C146 1.296 . S
C483 C326 1.297 . S
C488 C182 1.297 . S
C493 C291 1.380 . S
C498 C3 1.381 . S
C503 C39 1.379 . S
C508 C327 1.379 . S
C513 C363 1.381 . S
C518 C75 1.380 . S
C523 C111 1.380 . S
C528 C399 1.381 . S
C533 C147 1.379 . S
C538 C219 1.379 . S
C543 C183 1.381 . S
C548 C255 1.380 . S
C553 C374 1.460 . S
C558 C14 1.460 . S
C563 C410 1.459 . S
C568 C50 1.461 . S
C573 C230 1.461 . S
C578 C86 1.458 . S
C583 C122 1.458 . S
C588 C266 1.458 . S
C593 C158 1.458 . S
C598 C302 1.457 . S
C603 C338 1.461 . S
C608 C194 1.459 . S
C613 C4 1.371 . S
C618 C256 1.371 . S
C623 C292 1.369 . S
C628 C40 1.372 . S
C633 C328 1.369 . S
C638 C76 1.372 . S
C643 C112 1.370 . S
C648 C364 1.370 . S
C653 C148 1.371 . S
C658 C400 1.370 . S
C663 C184 1.372 . S
C668 C220 1.369 . S
