# Generated by pormake.
# Topology ecs, (8)-cn, num edge types: 1
# Building blocks:
#     Node 0, Type 0, BuildingBlock: TAGTUT_clean_sbu_3, # of connection points: 8
#     Node 1, Type 0, BuildingBlock: TAGTUT_clean_sbu_3, # of connection points: 8
#     Node 2, Type 0, BuildingBlock: TAGTUT_clean_sbu_3, # of connection points: 8
#     Node 3, Type 0, BuildingBlock: TAGTUT_clean_sbu_3, # of connection points: 8
#     Node 4, Type 0, BuildingBlock: TAGTUT_clean_sbu_3, # of connection points: 8
#     Node 5, Type 0, BuildingBlock: TAGTUT_clean_sbu_3, # of connection points: 8
#     Node 6, Type 0, BuildingBlock: TAGTUT_clean_sbu_3, # of connection points: 8
#     Node 7, Type 0, BuildingBlock: TAGTUT_clean_sbu_3, # of connection points: 8
#     Node 8, Type 0, BuildingBlock: TAGTUT_clean_sbu_3, # of connection points: 8
#     Node 9, Type 0, BuildingBlock: TAGTUT_clean_sbu_3, # of connection points: 8
#     Node 10, Type 0, BuildingBlock: TAGTUT_clean_sbu_3, # of connection points: 8
#     Node 11, Type 0, BuildingBlock: TAGTUT_clean_sbu_3, # of connection points: 8
#     Edge 12, Type (0, 0), BuildingBlock: AJUNOK_clean_linker_0, # of connection points: 2
#     Edge 13, Type (0, 0), BuildingBlock: AJUNOK_clean_linker_0, # of connection points: 2
#     Edge 14, Type (0, 0), BuildingBlock: AJUNOK_clean_linker_0, # of connection points: 2
#     Edge 15, Type (0, 0), BuildingBlock: AJUNOK_clean_linker_0, # of connection points: 2
#     Edge 16, Type (0, 0), BuildingBlock: AJUNOK_clean_linker_0, # of connection points: 2
#     Edge 17, Type (0, 0), BuildingBlock: AJUNOK_clean_linker_0, # of connection points: 2
#     Edge 18, Type (0, 0), BuildingBlock: AJUNOK_clean_linker_0, # of connection points: 2
#     Edge 19, Type (0, 0), BuildingBlock: AJUNOK_clean_linker_0, # of connection points: 2
#     Edge 20, Type (0, 0), BuildingBlock: AJUNOK_clean_linker_0, # of connection points: 2
#     Edge 21, Type (0, 0), BuildingBlock: AJUNOK_clean_linker_0, # of connection points: 2
#     Edge 22, Type (0, 0), BuildingBlock: AJUNOK_clean_linker_0, # of connection points: 2
#     Edge 23, Type (0, 0), BuildingBlock: AJUNOK_clean_linker_0, # of connection points: 2
#     Edge 24, Type (0, 0), BuildingBlock: AJUNOK_clean_linker_0, # of connection points: 2
#     Edge 25, Type (0, 0), BuildingBlock: AJUNOK_clean_linker_0, # of connection points: 2
#     Edge 26, Type (0, 0), BuildingBlock: AJUNOK_clean_linker_0, # of connection points: 2
#     Edge 27, Type (0, 0), BuildingBlock: AJUNOK_clean_linker_0, # of connection points: 2
#     Edge 28, Type (0, 0), BuildingBlock: AJUNOK_clean_linker_0, # of connection points: 2
#     Edge 29, Type (0, 0), BuildingBlock: AJUNOK_clean_linker_0, # of connection points: 2
#     Edge 30, Type (0, 0), BuildingBlock: AJUNOK_clean_linker_0, # of connection points: 2
#     Edge 31, Type (0, 0), BuildingBlock: AJUNOK_clean_linker_0, # of connection points: 2
#     Edge 32, Type (0, 0), BuildingBlock: AJUNOK_clean_linker_0, # of connection points: 2
#     Edge 33, Type (0, 0), BuildingBlock: AJUNOK_clean_linker_0, # of connection points: 2
#     Edge 34, Type (0, 0), BuildingBlock: AJUNOK_clean_linker_0, # of connection points: 2
#     Edge 35, Type (0, 0), BuildingBlock: AJUNOK_clean_linker_0, # of connection points: 2
#     Edge 36, Type (0, 0), BuildingBlock: AJUNOK_clean_linker_0, # of connection points: 2
#     Edge 37, Type (0, 0), BuildingBlock: AJUNOK_clean_linker_0, # of connection points: 2
#     Edge 38, Type (0, 0), BuildingBlock: AJUNOK_clean_linker_0, # of connection points: 2
#     Edge 39, Type (0, 0), BuildingBlock: AJUNOK_clean_linker_0, # of connection points: 2
#     Edge 40, Type (0, 0), BuildingBlock: AJUNOK_clean_linker_0, # of connection points: 2
#     Edge 41, Type (0, 0), BuildingBlock: AJUNOK_clean_linker_0, # of connection points: 2
#     Edge 42, Type (0, 0), BuildingBlock: AJUNOK_clean_linker_0, # of connection points: 2
#     Edge 43, Type (0, 0), BuildingBlock: AJUNOK_clean_linker_0, # of connection points: 2
#     Edge 44, Type (0, 0), BuildingBlock: AJUNOK_clean_linker_0, # of connection points: 2
#     Edge 45, Type (0, 0), BuildingBlock: AJUNOK_clean_linker_0, # of connection points: 2
#     Edge 46, Type (0, 0), BuildingBlock: AJUNOK_clean_linker_0, # of connection points: 2
#     Edge 47, Type (0, 0), BuildingBlock: AJUNOK_clean_linker_0, # of connection points: 2
#     Edge 48, Type (0, 0), BuildingBlock: AJUNOK_clean_linker_0, # of connection points: 2
#     Edge 49, Type (0, 0), BuildingBlock: AJUNOK_clean_linker_0, # of connection points: 2
#     Edge 50, Type (0, 0), BuildingBlock: AJUNOK_clean_linker_0, # of connection points: 2
#     Edge 51, Type (0, 0), BuildingBlock: AJUNOK_clean_linker_0, # of connection points: 2
#     Edge 52, Type (0, 0), BuildingBlock: AJUNOK_clean_linker_0, # of connection points: 2
#     Edge 53, Type (0, 0), BuildingBlock: AJUNOK_clean_linker_0, # of connection points: 2
#     Edge 54, Type (0, 0), BuildingBlock: AJUNOK_clean_linker_0, # of connection points: 2
#     Edge 55, Type (0, 0), BuildingBlock: AJUNOK_clean_linker_0, # of connection points: 2
#     Edge 56, Type (0, 0), BuildingBlock: AJUNOK_clean_linker_0, # of connection points: 2
#     Edge 57, Type (0, 0), BuildingBlock: AJUNOK_clean_linker_0, # of connection points: 2
#     Edge 58, Type (0, 0), BuildingBlock: AJUNOK_clean_linker_0, # of connection points: 2
#     Edge 59, Type (0, 0), BuildingBlock: AJUNOK_clean_linker_0, # of connection points: 2
# Relax obj value: 0.346
# Max RMSD: 0.277
# Mean RMSD: 0.277
data_MOF--net-ecs--node1-TAGTUT_clean_sbu_3--edge1-AJUNOK_clean_linker_0
_symmetry_space_group_name_H-M    P1
_symmetry_Int_Tables_number       1
_symmetry_cell_setting            triclinic
loop_
_symmetry_equiv_pos_as_xyz
'x, y, z'
_cell_length_a     39.658268
_cell_length_b     39.53918
_cell_length_c     21.365726
_cell_angle_alpha  90.078806
_cell_angle_beta   89.724599
_cell_angle_gamma 119.98223
loop_
_atom_site_label
_atom_site_type_symbol
_atom_site_fract_x
_atom_site_fract_y
_atom_site_fract_z
_atom_type_partial_charge
C0 C 0.42736 0.27036 0.07968 0.0
C1 C 0.47138 0.3957 0.94366 0.0
C2 C 0.46631 0.44349 0.10098 0.0
Mg3 Mg 0.4328 0.26291 0.23112 0.0
Mg4 Mg 0.51413 0.32583 0.29873 0.0
O5 O 0.46983 0.3188 0.25668 0.0
Mg6 Mg 0.47797 0.34394 0.17159 0.0
O7 O 0.48055 0.36348 0.08304 0.0
Mg8 Mg 0.4233 0.35039 0.07263 0.0
Mg9 Mg 0.51615 0.4157 0.07249 0.0
C10 C 0.53614 0.41403 0.26608 0.0
O11 O 0.54237 0.35764 0.16006 0.0
O12 O 0.42766 0.24716 0.33691 0.0
O13 O 0.56622 0.41422 0.10638 0.0
O14 O 0.4799 0.24537 0.21914 0.0
O15 O 0.4841 0.29175 0.38053 0.0
O16 O 0.53728 0.29417 0.2485 0.0
O17 O 0.41751 0.33657 0.17868 0.0
O18 O 0.38672 0.28371 0.23871 0.0
C19 C 0.38758 0.31275 0.21027 0.0
C20 C 0.45015 0.26129 0.38463 0.0
O21 O 0.51002 0.40356 0.22317 0.0
O22 O 0.43945 0.36875 0.96801 0.0
O23 O 0.54304 0.38974 0.29551 0.0
O24 O 0.43389 0.41311 0.08891 0.0
O25 O 0.50239 0.41646 0.97547 0.0
O26 O 0.49064 0.43887 0.13207 0.0
O27 O 0.44774 0.28414 0.129 0.0
O28 O 0.41353 0.28926 0.05161 0.0
C29 C 0.51682 0.26086 0.22327 0.0
C30 C 0.57112 0.38925 0.13729 0.0
C31 C 0.72095 0.15903 0.08206 0.0
C32 C 0.60317 0.07666 0.93602 0.0
C33 C 0.54989 0.01808 0.09032 0.0
Mg34 Mg 0.72221 0.17513 0.22923 0.0
Mg35 Mg 0.6556 0.19059 0.28975 0.0
O36 O 0.66542 0.15364 0.25177 0.0
Mg37 Mg 0.64261 0.13441 0.1661 0.0
O38 O 0.62574 0.11531 0.07774 0.0
Mg39 Mg 0.64324 0.0739 0.0709 0.0
Mg40 Mg 0.57329 0.09511 0.06233 0.0
C41 C 0.56971 0.12145 0.25482 0.0
O42 O 0.62426 0.18205 0.14977 0.0
O43 O 0.73505 0.18684 0.33517 0.0
O44 O 0.56911 0.14396 0.09663 0.0
O45 O 0.73586 0.23834 0.21389 0.0
O46 O 0.68874 0.1979 0.37449 0.0
O47 O 0.68403 0.24376 0.23587 0.0
O48 O 0.65325 0.08296 0.17808 0.0
O49 O 0.70555 0.10946 0.23923 0.0
C50 C 0.67795 0.07957 0.21173 0.0
C51 C 0.71949 0.19521 0.38119 0.0
O52 O 0.58173 0.10509 0.21501 0.0
O53 O 0.62945 0.07244 0.96422 0.0
O54 O 0.5927 0.15382 0.28265 0.0
O55 O 0.58221 0.01912 0.08281 0.0
O56 O 0.57911 0.084 0.96499 0.0
O57 O 0.55021 0.0456 0.12079 0.0
O58 O 0.704 0.16675 0.12611 0.0
O59 O 0.7036 0.12605 0.05451 0.0
C60 C 0.71817 0.25787 0.21311 0.0
C61 C 0.59111 0.17514 0.12736 0.0
C62 C 0.91289 0.59779 0.20748 0.0
C63 C 0.7965 0.53142 0.37576 0.0
C64 C 0.73171 0.46448 0.2154 0.0
Mg65 Mg 0.91981 0.56703 0.068 0.0
Mg66 Mg 0.89198 0.47463 0.06041 0.0
O67 O 0.87445 0.50953 0.07181 0.0
Mg68 Mg 0.85479 0.5085 0.15988 0.0
O69 O 0.83589 0.51417 0.24482 0.0
Mg70 Mg 0.81665 0.55107 0.22149 0.0
Mg71 Mg 0.79955 0.47041 0.28883 0.0
C72 C 0.80841 0.41664 0.11759 0.0
O73 O 0.87828 0.47128 0.20979 0.0
O74 O 0.92284 0.55412 0.96175 0.0
O75 O 0.82991 0.43878 0.28064 0.0
O76 O 0.97031 0.55417 0.0817 0.0
O77 O 0.90978 0.4916 0.96472 0.0
O78 O 0.93744 0.49763 0.12552 0.0
O79 O 0.82732 0.54196 0.11858 0.0
O80 O 0.87166 0.58088 0.04939 0.0
C81 C 0.83826 0.56753 0.07502 0.0
C82 C 0.9191 0.52325 0.93487 0.0
O83 O 0.8038 0.44434 0.14085 0.0
O84 O 0.80378 0.55379 0.32788 0.0
O85 O 0.83962 0.42344 0.0888 0.0
O86 O 0.75199 0.50145 0.20672 0.0
O87 O 0.79534 0.49852 0.37194 0.0
O88 O 0.7454 0.4456 0.24306 0.0
O89 O 0.90882 0.56877 0.17488 0.0
O90 O 0.88319 0.59764 0.23248 0.0
C91 C 0.96734 0.52154 0.09565 0.0
C92 C 0.86003 0.44365 0.25039 0.0
C93 C 0.27145 0.43512 0.40435 0.0
C94 C 0.39007 0.47957 0.54821 0.0
C95 C 0.44746 0.48422 0.3945 0.0
Mg96 Mg 0.2696 0.45214 0.25643 0.0
Mg97 Mg 0.33797 0.52915 0.18405 0.0
O98 O 0.32591 0.48542 0.23302 0.0
Mg99 Mg 0.34766 0.49191 0.31863 0.0
O100 O 0.36503 0.49297 0.40703 0.0
Mg101 Mg 0.3538 0.43585 0.41144 0.0
Mg102 Mg 0.41567 0.53171 0.42525 0.0
C103 C 0.42253 0.55152 0.22791 0.0
O104 O 0.35838 0.55451 0.33093 0.0
O105 O 0.2571 0.4479 0.14966 0.0
O106 O 0.41183 0.58173 0.39185 0.0
O107 O 0.26088 0.50642 0.26527 0.0
O108 O 0.30671 0.49961 0.10207 0.0
O109 O 0.31172 0.55938 0.22414 0.0
O110 O 0.34098 0.43163 0.30629 0.0
O111 O 0.28557 0.40239 0.25172 0.0
C112 C 0.31485 0.40192 0.2767 0.0
C113 C 0.27406 0.46772 0.10019 0.0
O114 O 0.41013 0.52594 0.27234 0.0
O115 O 0.36743 0.44808 0.51815 0.0
O116 O 0.39964 0.55688 0.19253 0.0
O117 O 0.41736 0.4504 0.39644 0.0
O118 O 0.41058 0.5129 0.52144 0.0
O119 O 0.44468 0.51108 0.36737 0.0
O120 O 0.28561 0.46116 0.36106 0.0
O121 O 0.29189 0.42143 0.42718 0.0
C122 C 0.27963 0.5432 0.25373 0.0
C123 C 0.38689 0.58434 0.35709 0.0
C124 C 0.59971 0.91856 0.28284 0.0
C125 C 0.54294 0.80882 0.11096 0.0
C126 C 0.46263 0.74104 0.26385 0.0
Mg127 Mg 0.56184 0.92726 0.41095 0.0
Mg128 Mg 0.46713 0.89801 0.41227 0.0
O129 O 0.50436 0.88268 0.4032 0.0
Mg130 Mg 0.50804 0.86243 0.3187 0.0
O131 O 0.51738 0.84389 0.23677 0.0
Mg132 Mg 0.55107 0.82302 0.26859 0.0
Mg133 Mg 0.47677 0.81166 0.18293 0.0
C134 C 0.41322 0.81484 0.34932 0.0
O135 O 0.47895 0.89095 0.26348 0.0
O136 O 0.54588 0.93229 0.51399 0.0
O137 O 0.44878 0.84722 0.18566 0.0
O138 O 0.5518 0.97801 0.38177 0.0
O139 O 0.48145 0.9114 0.50994 0.0
O140 O 0.49197 0.9468 0.35133 0.0
O141 O 0.53686 0.83248 0.36988 0.0
O142 O 0.57262 0.87845 0.43895 0.0
C143 C 0.56016 0.84429 0.41667 0.0
C144 C 0.51342 0.92401 0.5402 0.0
O145 O 0.44261 0.81227 0.32883 0.0
O146 O 0.55903 0.81171 0.16435 0.0
O147 O 0.41732 0.84495 0.37885 0.0
O148 O 0.49839 0.76011 0.28028 0.0
O149 O 0.51139 0.81005 0.10551 0.0
O150 O 0.44797 0.75516 0.22654 0.0
O151 O 0.56895 0.91446 0.30917 0.0
O152 O 0.6006 0.8889 0.26006 0.0
C153 C 0.51867 0.97567 0.38 0.0
C154 C 0.45464 0.87714 0.21803 0.0
C155 C 0.07346 0.68195 0.28321 0.0
C156 C 0.18616 0.74525 0.11401 0.0
C157 C 0.25387 0.73136 0.26416 0.0
Mg158 Mg 0.06635 0.62823 0.40414 0.0
Mg159 Mg 0.10145 0.56886 0.38575 0.0
O160 O 0.11322 0.62072 0.39069 0.0
Mg161 Mg 0.13312 0.64985 0.31107 0.0
O162 O 0.1507 0.6811 0.23282 0.0
Mg163 Mg 0.16924 0.73398 0.27067 0.0
Mg164 Mg 0.1855 0.6757 0.18059 0.0
C165 C 0.18652 0.60826 0.32924 0.0
O166 O 0.10819 0.59389 0.25164 0.0
O167 O 0.06145 0.5973 0.50177 0.0
O168 O 0.15399 0.61244 0.17611 0.0
O169 O 0.02013 0.57015 0.36151 0.0
O170 O 0.08779 0.55934 0.48088 0.0
O171 O 0.04877 0.53748 0.33536 0.0
O172 O 0.15909 0.70609 0.36959 0.0
O173 O 0.11181 0.68708 0.44077 0.0
C174 C 0.14522 0.7127 0.4197 0.0
C175 C 0.07198 0.57253 0.51849 0.0
O176 O 0.18669 0.64018 0.31628 0.0
O177 O 0.18139 0.75734 0.16756 0.0
O178 O 0.15646 0.57799 0.35119 0.0
O179 O 0.23365 0.74696 0.28106 0.0
O180 O 0.18722 0.71356 0.10779 0.0
O181 O 0.24049 0.70262 0.22669 0.0
O182 O 0.07923 0.65548 0.30614 0.0
O183 O 0.10225 0.71416 0.26275 0.0
C184 C 0.01968 0.53785 0.35973 0.0
C185 C 0.12442 0.58605 0.20616 0.0
C186 C 0.5634 0.72161 0.91565 0.0
C187 C 0.52409 0.59858 0.04713 0.0
C188 C 0.52283 0.54785 0.88543 0.0
Mg189 Mg 0.54681 0.73056 0.77148 0.0
Mg190 Mg 0.47087 0.66763 0.69182 0.0
O191 O 0.51279 0.67538 0.74181 0.0
Mg192 Mg 0.5069 0.64844 0.82436 0.0
O193 O 0.50805 0.6271 0.90992 0.0
Mg194 Mg 0.56602 0.64082 0.91199 0.0
Mg195 Mg 0.47378 0.57464 0.92316 0.0
C196 C 0.44682 0.57968 0.72862 0.0
O197 O 0.44156 0.63172 0.84124 0.0
O198 O 0.5524 0.74968 0.66744 0.0
O199 O 0.42301 0.57512 0.89158 0.0
O200 O 0.49291 0.73963 0.78726 0.0
O201 O 0.50267 0.70394 0.612 0.0
O202 O 0.44095 0.69257 0.73844 0.0
O203 O 0.56781 0.65709 0.80822 0.0
O204 O 0.59664 0.71454 0.7586 0.0
C205 C 0.59724 0.68432 0.77965 0.0
C206 C 0.53466 0.73665 0.61523 0.0
O207 O 0.47332 0.58899 0.77072 0.0
O208 O 0.55479 0.62389 0.01778 0.0
O209 O 0.44205 0.60499 0.69817 0.0
O210 O 0.55575 0.57862 0.89162 0.0
O211 O 0.49155 0.57675 0.01956 0.0
O212 O 0.49675 0.55145 0.85805 0.0
O213 O 0.53712 0.70848 0.87317 0.0
O214 O 0.57797 0.70114 0.93469 0.0
C215 C 0.45648 0.72213 0.77424 0.0
C216 C 0.41474 0.59812 0.86192 0.0
C217 C 0.31122 0.91729 0.77932 0.0
C218 C 0.25278 0.80087 0.61526 0.0
C219 C 0.26277 0.73562 0.77099 0.0
Mg220 Mg 0.35727 0.92749 0.90736 0.0
Mg221 Mg 0.41683 0.89187 0.91421 0.0
O222 O 0.36526 0.87943 0.90575 0.0
Mg223 Mg 0.34161 0.85811 0.82119 0.0
O224 O 0.31439 0.83887 0.73907 0.0
Mg225 Mg 0.26015 0.82109 0.76982 0.0
Mg226 Mg 0.32107 0.80318 0.69022 0.0
C227 C 0.38225 0.80592 0.86052 0.0
O228 O 0.39905 0.88127 0.76589 0.0
O229 O 0.37819 0.93489 0.01074 0.0
O230 O 0.38416 0.8359 0.69026 0.0
O231 O 0.42039 0.97423 0.87969 0.0
O232 O 0.42085 0.91275 0.00864 0.0
O233 O 0.44196 0.93674 0.84704 0.0
O234 O 0.28287 0.83282 0.8718 0.0
O235 O 0.29597 0.88263 0.9353 0.0
C236 C 0.27265 0.84806 0.91589 0.0
C237 C 0.40301 0.92781 0.0374 0.0
O238 O 0.35207 0.80558 0.83738 0.0
O239 O 0.24072 0.80787 0.66687 0.0
O240 O 0.40951 0.83579 0.88837 0.0
O241 O 0.2465 0.75623 0.78108 0.0
O242 O 0.28412 0.79897 0.61173 0.0
O243 O 0.29447 0.74904 0.74028 0.0
O244 O 0.3372 0.91241 0.80601 0.0
O245 O 0.27975 0.88794 0.75852 0.0
C246 C 0.44896 0.96841 0.87227 0.0
C247 C 0.40885 0.86585 0.72149 0.0
C248 C 0.16275 0.43032 0.90698 0.0
C249 C 0.08039 0.46899 0.05175 0.0
C250 C 0.02226 0.46056 0.89652 0.0
Mg251 Mg 0.17136 0.43838 0.7568 0.0
Mg252 Mg 0.1877 0.5205 0.69084 0.0
O253 O 0.15232 0.47569 0.73587 0.0
Mg254 Mg 0.13704 0.48181 0.82382 0.0
O255 O 0.12089 0.48213 0.91364 0.0
Mg256 Mg 0.07854 0.42359 0.92304 0.0
Mg257 Mg 0.09927 0.51385 0.92239 0.0
C258 C 0.12035 0.53822 0.73555 0.0
O259 O 0.18597 0.54725 0.83567 0.0
O260 O 0.1788 0.43374 0.65183 0.0
O261 O 0.14811 0.56639 0.88614 0.0
O262 O 0.23548 0.48754 0.76366 0.0
O263 O 0.18966 0.48944 0.60574 0.0
O264 O 0.24352 0.54547 0.7371 0.0
O265 O 0.08485 0.42117 0.81661 0.0
O266 O 0.10434 0.39063 0.7519 0.0
C267 C 0.07693 0.39195 0.78202 0.0
C268 C 0.18576 0.4551 0.60299 0.0
O269 O 0.10723 0.51157 0.77796 0.0
O270 O 0.0785 0.43827 0.0277 0.0
O271 O 0.15218 0.54855 0.70483 0.0
O272 O 0.02497 0.43149 0.91503 0.0
O273 O 0.08589 0.4987 0.01938 0.0
O274 O 0.05 0.48623 0.8644 0.0
O275 O 0.16807 0.45211 0.85992 0.0
O276 O 0.13067 0.41499 0.93721 0.0
C277 C 0.2569 0.52466 0.75946 0.0
C278 C 0.17926 0.57417 0.85604 0.0
C279 C 0.68221 0.60826 0.70739 0.0
C280 C 0.73135 0.54765 0.88347 0.0
C281 C 0.72564 0.47242 0.7292 0.0
Mg282 Mg 0.64292 0.57252 0.57181 0.0
Mg283 Mg 0.57506 0.48232 0.57845 0.0
O284 O 0.62797 0.51468 0.5831 0.0
Mg285 Mg 0.64795 0.51648 0.67068 0.0
O286 O 0.6734 0.52484 0.75508 0.0
Mg287 Mg 0.72915 0.55991 0.72753 0.0
Mg288 Mg 0.66519 0.48218 0.80364 0.0
C289 C 0.59845 0.42333 0.63857 0.0
O290 O 0.58847 0.48516 0.72352 0.0
O291 O 0.62258 0.55481 0.46795 0.0
O292 O 0.60234 0.45287 0.79755 0.0
O293 O 0.58208 0.56518 0.59058 0.0
O294 O 0.57171 0.49382 0.48146 0.0
O295 O 0.55423 0.50972 0.63926 0.0
O296 O 0.70744 0.54488 0.62589 0.0
O297 O 0.7027 0.5801 0.54922 0.0
C298 C 0.72125 0.56571 0.57664 0.0
C299 C 0.5935 0.52319 0.44667 0.0
O300 O 0.63173 0.45046 0.65927 0.0
O301 O 0.74573 0.5672 0.83276 0.0
O302 O 0.57475 0.43143 0.61121 0.0
O303 O 0.7426 0.5092 0.71876 0.0
O304 O 0.69973 0.51447 0.88365 0.0
O305 O 0.69317 0.45465 0.75799 0.0
O306 O 0.65738 0.57822 0.67733 0.0
O307 O 0.7115 0.60858 0.7335 0.0
C308 C 0.55089 0.53496 0.60822 0.0
C309 C 0.5781 0.45887 0.76657 0.0
C310 C 0.39526 0.0791 0.71329 0.0
C311 C 0.46464 0.19634 0.88049 0.0
C312 C 0.53059 0.26058 0.71792 0.0
Mg313 Mg 0.42597 0.07064 0.57652 0.0
Mg314 Mg 0.5173 0.09476 0.56897 0.0
O315 O 0.48417 0.11431 0.58035 0.0
Mg316 Mg 0.48566 0.1351 0.6679 0.0
O317 O 0.48096 0.15535 0.75239 0.0
Mg318 Mg 0.44433 0.17476 0.72833 0.0
Mg319 Mg 0.52627 0.19335 0.79213 0.0
C320 C 0.57711 0.1772 0.62873 0.0
O321 O 0.52032 0.10936 0.7188 0.0
O322 O 0.43841 0.06531 0.47061 0.0
O323 O 0.55549 0.15962 0.78508 0.0
O324 O 0.43406 0.01737 0.59627 0.0
O325 O 0.50083 0.07871 0.47251 0.0
O326 O 0.49185 0.04877 0.63419 0.0
O327 O 0.45475 0.1647 0.62532 0.0
O328 O 0.41619 0.12137 0.55487 0.0
C329 C 0.43041 0.15492 0.58044 0.0
C330 C 0.4691 0.06906 0.44322 0.0
O331 O 0.55042 0.18395 0.64997 0.0
O332 O 0.44151 0.18749 0.83364 0.0
O333 O 0.56873 0.14557 0.59995 0.0
O334 O 0.49364 0.23866 0.71411 0.0
O335 O 0.49821 0.19911 0.87551 0.0
O336 O 0.55138 0.24805 0.74263 0.0
O337 O 0.42445 0.08296 0.68185 0.0
O338 O 0.39612 0.10875 0.73962 0.0
C339 C 0.4666 0.01926 0.6053 0.0
C340 C 0.54862 0.12775 0.75785 0.0
C341 C 0.91387 0.31565 0.70668 0.0
C342 C 0.80662 0.26761 0.89051 0.0
C343 C 0.73348 0.26089 0.7341 0.0
Mg344 Mg 0.9106 0.34716 0.56784 0.0
Mg345 Mg 0.88335 0.41345 0.56098 0.0
O346 O 0.86717 0.36167 0.5791 0.0
Mg347 Mg 0.85189 0.34431 0.66934 0.0
O348 O 0.83784 0.3214 0.7566 0.0
Mg349 Mg 0.82014 0.26495 0.73506 0.0
Mg350 Mg 0.80178 0.32854 0.80269 0.0
C351 C 0.80529 0.39178 0.63666 0.0
O352 O 0.88037 0.40514 0.71595 0.0
O353 O 0.91037 0.36137 0.46164 0.0
O354 O 0.83465 0.39207 0.79084 0.0
O355 O 0.96307 0.40913 0.58026 0.0
O356 O 0.8933 0.40805 0.46295 0.0
O357 O 0.93445 0.44011 0.614 0.0
O358 O 0.8212 0.28276 0.63129 0.0
O359 O 0.85929 0.28608 0.55246 0.0
C360 C 0.82711 0.26792 0.58226 0.0
C361 C 0.90324 0.38592 0.43375 0.0
O362 O 0.80159 0.35989 0.66033 0.0
O363 O 0.81368 0.25264 0.84214 0.0
O364 O 0.83411 0.41429 0.60131 0.0
O365 O 0.75542 0.24601 0.72909 0.0
O366 O 0.80197 0.29744 0.88631 0.0
O367 O 0.74607 0.29453 0.75795 0.0
O368 O 0.90483 0.33696 0.67424 0.0
O369 O 0.88737 0.28628 0.73692 0.0
C370 C 0.96156 0.44048 0.58236 0.0
C371 C 0.86481 0.41615 0.75866 0.0
C372 C 0.57513 0.25186 0.21027 0.0
C373 C 0.53614 0.24014 0.19587 0.0
C374 C 0.59327 0.23175 0.18619 0.0
C375 C 0.57383 0.19993 0.14525 0.0
H376 H 0.59145 0.27599 0.24191 0.0
H377 H 0.62232 0.24045 0.20145 0.0
S378 S 0.4717 0.15895 0.08974 0.0
N379 N 0.47871 0.19474 0.1372 0.0
N380 N 0.51326 0.15898 0.08892 0.0
C381 C 0.53517 0.18898 0.12849 0.0
C382 C 0.51631 0.20851 0.15463 0.0
C383 C 0.79701 0.34962 0.13538 0.0
C384 C 0.78171 0.37508 0.13461 0.0
C385 C 0.77588 0.31187 0.15947 0.0
C386 C 0.73822 0.29742 0.18409 0.0
H387 H 0.82653 0.3593 0.11992 0.0
H388 H 0.78995 0.29444 0.16041 0.0
S389 S 0.68103 0.34823 0.1788 0.0
N390 N 0.72411 0.38069 0.15066 0.0
N391 N 0.68414 0.30939 0.19704 0.0
C392 C 0.72136 0.32138 0.17957 0.0
C393 C 0.7431 0.36022 0.15473 0.0
C394 C 0.68062 0.44978 0.13523 0.0
C395 C 0.69098 0.44268 0.19429 0.0
C396 C 0.64198 0.4295 0.11499 0.0
C397 C 0.612 0.40157 0.15341 0.0
H398 H 0.7023 0.47122 0.10441 0.0
H399 H 0.63534 0.43701 0.06973 0.0
S400 S 0.62464 0.37176 0.31232 0.0
N401 N 0.66895 0.40509 0.29052 0.0
N402 N 0.59622 0.36734 0.253 0.0
C403 C 0.62241 0.39314 0.21171 0.0
C404 C 0.66186 0.41382 0.23224 0.0
C405 C 0.2304 0.583 0.35688 0.0
C406 C 0.22021 0.60339 0.31412 0.0
C407 C 0.25229 0.56588 0.33786 0.0
C408 C 0.26365 0.56765 0.27526 0.0
H409 H 0.21932 0.57818 0.40445 0.0
H410 H 0.25902 0.54976 0.37167 0.0
S411 S 0.25147 0.62393 0.1479 0.0
N412 N 0.22883 0.62953 0.20867 0.0
N413 N 0.2693 0.59656 0.17289 0.0
C414 C 0.25746 0.59136 0.23367 0.0
C415 C 0.23568 0.60935 0.25317 0.0
C416 C 0.39877 0.63142 0.27116 0.0
C417 C 0.39687 0.62377 0.33579 0.0
C418 C 0.41893 0.66971 0.24803 0.0
C419 C 0.43745 0.70152 0.28897 0.0
H420 H 0.38702 0.60774 0.23793 0.0
H421 H 0.42172 0.67433 0.19784 0.0
S422 S 0.42957 0.69755 0.46194 0.0
N423 N 0.40815 0.65129 0.44027 0.0
N424 N 0.44448 0.72353 0.39676 0.0
C425 C 0.43191 0.69453 0.35364 0.0
C426 C 0.41194 0.65552 0.37712 0.0
C427 C 0.30309 0.76126 0.34972 0.0
C428 C 0.29391 0.74691 0.28837 0.0
C429 C 0.34168 0.78042 0.37098 0.0
C430 C 0.37261 0.78532 0.33201 0.0
H431 H 0.28028 0.75803 0.38128 0.0
H432 H 0.34751 0.79292 0.41754 0.0
S433 S 0.3629 0.74797 0.16969 0.0
N434 N 0.31793 0.73463 0.19116 0.0
N435 N 0.39031 0.77097 0.23059 0.0
C436 C 0.36317 0.76799 0.27237 0.0
C437 C 0.32384 0.74858 0.2507 0.0
C438 C 0.40764 0.7437 0.75984 0.0
C439 C 0.43162 0.73688 0.79995 0.0
C440 C 0.38782 0.76259 0.78151 0.0
C441 C 0.39099 0.77475 0.84415 0.0
H442 H 0.40615 0.73666 0.71054 0.0
H443 H 0.37241 0.77026 0.74794 0.0
S444 S 0.43965 0.75198 0.9716 0.0
N445 N 0.44995 0.73522 0.90769 0.0
N446 N 0.41324 0.7713 0.94843 0.0
C447 C 0.4113 0.76403 0.88599 0.0
C448 C 0.43149 0.7449 0.8639 0.0
C449 C 0.18272 0.6343 0.81501 0.0
C450 C 0.20277 0.61496 0.83369 0.0
C451 C 0.20244 0.67301 0.79455 0.0
C452 C 0.2432 0.6945 0.79278 0.0
H453 H 0.1512 0.61923 0.81583 0.0
H454 H 0.18548 0.68614 0.77967 0.0
S455 S 0.30979 0.65853 0.83989 0.0
N456 N 0.26579 0.62039 0.85013 0.0
N457 N 0.3033 0.694 0.81293 0.0
C458 C 0.26385 0.67567 0.81119 0.0
C459 C 0.24356 0.63573 0.83141 0.0
C460 C 0.32346 0.58377 0.77744 0.0
C461 C 0.29707 0.54355 0.78578 0.0
C462 C 0.36091 0.60196 0.80427 0.0
C463 C 0.37335 0.58075 0.84105 0.0
H464 H 0.31533 0.6013 0.74935 0.0
H465 H 0.38035 0.6327 0.79534 0.0
S466 S 0.31492 0.47422 0.87764 0.0
N467 N 0.28649 0.48298 0.83287 0.0
N468 N 0.35503 0.5167 0.88515 0.0
C469 C 0.34671 0.54045 0.85045 0.0
C470 C 0.30926 0.52198 0.82205 0.0
C471 C 0.76942 0.46414 0.65424 0.0
C472 C 0.74354 0.44979 0.70512 0.0
C473 C 0.78651 0.44338 0.62991 0.0
C474 C 0.77995 0.40794 0.65692 0.0
H475 H 0.77655 0.4917 0.6326 0.0
H476 H 0.80623 0.45629 0.59062 0.0
S477 S 0.71608 0.35919 0.7941 0.0
N478 N 0.71201 0.3982 0.78244 0.0
N479 N 0.74605 0.36038 0.73912 0.0
C480 C 0.75404 0.39336 0.70805 0.0
C481 C 0.7356 0.41404 0.73175 0.0
C482 C 0.60509 0.36811 0.6862 0.0
C483 C 0.58335 0.381 0.65202 0.0
C484 C 0.58839 0.32889 0.70591 0.0
C485 C 0.54911 0.30125 0.69305 0.0
H486 H 0.63486 0.38855 0.69923 0.0
H487 H 0.60606 0.32054 0.73302 0.0
S488 S 0.47972 0.31934 0.60285 0.0
N489 N 0.52061 0.3615 0.6029 0.0
N490 N 0.48945 0.2896 0.64248 0.0
C491 C 0.52749 0.31358 0.65753 0.0
C492 C 0.54452 0.35289 0.63629 0.0
C493 C 0.63014 0.23423 0.68789 0.0
C494 C 0.61848 0.20166 0.64871 0.0
C495 C 0.66717 0.25313 0.71569 0.0
C496 C 0.6939 0.23993 0.70612 0.0
H497 H 0.6103 0.24476 0.69836 0.0
H498 H 0.67456 0.27785 0.74577 0.0
S499 S 0.67894 0.15707 0.60476 0.0
N500 N 0.6384 0.15869 0.5986 0.0
N501 N 0.70637 0.19272 0.65308 0.0
C502 C 0.68284 0.20772 0.66635 0.0
C503 C 0.64574 0.18917 0.63684 0.0
C504 C 0.46951 0.49922 0.95515 0.0
C505 C 0.50954 0.52088 0.93999 0.0
C506 C 0.45622 0.4761 0.00892 0.0
C507 C 0.48217 0.47305 0.04987 0.0
H508 H 0.44793 0.50002 0.92528 0.0
H509 H 0.42514 0.45979 0.01772 0.0
S510 S 0.59011 0.52358 0.03145 0.0
N511 N 0.57502 0.53748 0.97006 0.0
N512 N 0.55045 0.49447 0.0717 0.0
C513 C 0.52246 0.4949 0.03571 0.0
C514 C 0.53595 0.51838 0.98058 0.0
C515 C 0.50243 0.02234 0.01819 0.0
C516 C 0.52387 0.00405 0.03505 0.0
C517 C 0.48024 0.01216 0.96376 0.0
C518 C 0.47774 0.98269 0.924 0.0
H519 H 0.50265 0.04491 0.04721 0.0
H520 H 0.46409 0.02694 0.95375 0.0
S521 S 0.52915 0.92635 0.94563 0.0
N522 N 0.54182 0.95557 0.00688 0.0
N523 N 0.50024 0.93628 0.90398 0.0
C524 C 0.49973 0.96463 0.9394 0.0
C525 C 0.52242 0.97512 -0.00487 0.0
C526 C 0.01058 0.53005 0.00452 0.0
C527 C 0.98173 0.50488 0.04689 0.0
C528 C 0.02162 0.51549 0.95367 0.0
C529 C 0.00456 0.475 0.943 0.0
H530 H 0.0247 0.56142 0.01035 0.0
H531 H 0.04464 0.53642 0.92354 0.0
S532 S 0.92715 0.39614 0.03904 0.0
N533 N 0.936 0.43687 0.07434 0.0
N534 N 0.95671 0.40992 0.978 0.0
C535 C 0.97537 0.4494 0.98442 0.0
C536 C 0.96419 0.46416 0.03664 0.0
C537 C 0.49346 0.5355 0.46866 0.0
C538 C 0.47221 0.49585 0.45111 0.0
C539 C 0.51621 0.54732 0.52258 0.0
C540 C 0.51948 0.52023 0.56077 0.0
H541 H 0.49283 0.5579 0.44044 0.0
H542 H 0.5327 0.57825 0.53304 0.0
S543 S 0.46895 0.41251 0.5362 0.0
N544 N 0.45518 0.4293 0.47686 0.0
N545 N 0.4979 0.4512 0.57827 0.0
C546 C 0.49741 0.48019 0.5448 0.0
C547 C 0.47412 0.46818 0.48979 0.0
C548 C 0.46665 0.97079 0.45271 0.0
C549 C 0.50658 0.98748 0.43805 0.0
C550 C 0.45419 0.97961 0.50832 0.0
C551 C 0.48099 0.00603 0.55159 0.0
H552 H 0.44453 0.95061 0.42088 0.0
H553 H 0.42315 0.96625 0.51664 0.0
S554 S 0.58908 0.05657 0.53732 0.0
N555 N 0.57299 0.03118 0.47215 0.0
N556 N 0.5498 0.04718 0.57769 0.0
C557 C 0.52118 0.02235 0.53836 0.0
C558 C 0.53385 0.01348 0.48131 0.0
C559 C 0.99148 0.45523 0.47498 0.0
C560 C 0.97336 0.46419 0.52406 0.0
C561 C 0.00649 0.47936 0.4226 0.0
C562 C 0.0006 0.5112 0.41357 0.0
H563 H -0.00362 0.4307 0.47854 0.0
H564 H 0.02252 0.47257 0.38846 0.0
S565 S 0.94866 0.54326 0.52275 0.0
N566 N 0.94821 0.50611 0.55853 0.0
N567 N 0.97108 0.54789 0.45542 0.0
C568 C 0.97933 0.51847 0.4596 0.0
C569 C 0.96666 0.49563 0.51546 0.0
C570 C 0.48668 0.43647 0.84991 0.0
C571 C 0.47656 0.39988 0.87562 0.0
C572 C 0.5172 0.45455 0.80636 0.0
C573 C 0.53712 0.43555 0.78609 0.0
H574 H 0.47473 0.45326 0.86983 0.0
H575 H 0.52822 0.48499 0.79488 0.0
S576 S 0.51175 0.3339 0.82276 0.0
N577 N 0.48135 0.34141 0.86561 0.0
N578 N 0.53795 0.37453 0.78245 0.0
C579 C 0.52191 0.39606 0.80219 0.0
C580 C 0.49118 0.37805 0.84678 0.0
C581 C 0.62538 0.12333 0.8511 0.0
C582 C 0.60579 0.08378 0.86831 0.0
C583 C 0.60931 0.13711 0.80678 0.0
C584 C 0.57342 0.11157 0.77816 0.0
H585 H 0.6494 0.14454 0.87917 0.0
H586 H 0.62257 0.16844 0.80087 0.0
S587 S 0.5257 0.00389 0.78016 0.0
N588 N 0.55936 0.01819 0.83492 0.0
N589 N 0.52877 0.04393 0.75067 0.0
C590 C 0.55923 0.07135 0.78397 0.0
C591 C 0.57566 0.05743 0.82951 0.0
C592 C 0.86002 0.47139 0.80349 0.0
C593 C 0.88353 0.45753 0.77762 0.0
C594 C 0.87527 0.50198 0.84683 0.0
C595 C 0.91401 0.51847 0.86685 0.0
H596 H 0.82882 0.45557 0.79602 0.0
H597 H 0.85504 0.50779 0.87248 0.0
S598 S 0.99065 0.50529 0.79067 0.0
N599 N 0.94984 0.47203 0.75765 0.0
N600 N 0.97816 0.52874 0.84149 0.0
C601 C 0.9392 0.51048 0.83167 0.0
C602 C 0.9239 0.47988 0.78637 0.0
C603 C 0.3846 0.52903 0.68388 0.0
C604 C 0.42094 0.53874 0.70985 0.0
C605 C 0.36781 0.50019 0.63797 0.0
C606 C 0.3873 0.48095 0.61658 0.0
H607 H 0.37183 0.54728 0.69258 0.0
H608 H 0.34355 0.49818 0.61168 0.0
S609 S 0.46763 0.4783 0.69888 0.0
N610 N 0.46546 0.51496 0.73184 0.0
N611 N 0.43326 0.46017 0.64497 0.0
C612 C 0.41751 0.48335 0.65358 0.0
C613 C 0.43472 0.51272 0.70063 0.0
C614 C 0.4677 0.92584 0.68576 0.0
C615 C 0.44924 0.88577 0.69888 0.0
C616 C 0.4978 0.94234 0.64146 0.0
C617 C 0.50902 0.91895 0.60813 0.0
H618 H 0.45591 0.94344 0.70384 0.0
H619 H 0.50883 0.97221 0.62803 0.0
S620 S 0.47951 0.81621 0.64265 0.0
N621 N 0.45194 0.82593 0.68895 0.0
N622 N 0.508 0.85716 0.60451 0.0
C623 C 0.49631 0.88112 0.63021 0.0
C624 C 0.46584 0.86419 0.67533 0.0
C625 C 0.09432 0.57859 0.68983 0.0
C626 C 0.09135 0.54203 0.69958 0.0
C627 C 0.08185 0.58678 0.63314 0.0
C628 C 0.06914 0.55955 0.58387 0.0
H629 H 0.10962 0.60194 0.7232 0.0
H630 H 0.08715 0.61608 0.62503 0.0
S631 S 0.05926 0.46083 0.58807 0.0
N632 N 0.07106 0.47754 0.65978 0.0
N633 N 0.05676 0.49562 0.54981 0.0
C634 C 0.0645 0.52237 0.59546 0.0
C635 C 0.07305 0.51286 0.65468 0.0
C636 C 0.47711 0.61107 0.18213 0.0
C637 C 0.46414 0.57445 0.21066 0.0
C638 C 0.50553 0.62448 0.13508 0.0
C639 C 0.52138 0.60148 0.11533 0.0
H640 H 0.46135 0.62659 0.18946 0.0
H641 H 0.50994 0.64929 0.10722 0.0
S642 S 0.5143 0.51726 0.20127 0.0
N643 N 0.48092 0.52472 0.23454 0.0
N644 N 0.53503 0.55061 0.14581 0.0
C645 C 0.51561 0.57036 0.15385 0.0
C646 C 0.48665 0.5566 0.20201 0.0
C647 C 0.44203 0.95187 0.13293 0.0
C648 C 0.40547 0.92781 0.10575 0.0
C649 C 0.45688 0.93697 0.17778 0.0
C650 C 0.4347 0.89795 0.19717 0.0
H651 H 0.46104 0.98039 0.11377 0.0
H652 H 0.48719 0.95435 0.19108 0.0
S653 S 0.33116 0.82973 0.16038 0.0
N654 N 0.34317 0.86837 0.11613 0.0
N655 N 0.37045 0.84021 0.20128 0.0
C656 C 0.39527 0.8769 0.18046 0.0
C657 C 0.38043 0.89223 0.13505 0.0
C658 C 0.12553 0.49989 0.13488 0.0
C659 C 0.08624 0.47627 0.11878 0.0
C660 C 0.13759 0.5346 0.16775 0.0
C661 C 0.11039 0.54517 0.18844 0.0
H662 H 0.14763 0.49565 0.11204 0.0
H663 H 0.16849 0.55465 0.17229 0.0
S664 S 0.00348 0.48082 0.18882 0.0
N665 N 0.01987 0.45687 0.14695 0.0
N666 N 0.04206 0.52224 0.20984 0.0
C667 C 0.07074 0.51713 0.18512 0.0
C668 C 0.05872 0.48198 0.151 0.0
C669 C 0.53419 0.47058 0.31226 0.0
C670 C 0.55634 0.45456 0.2892 0.0
C671 C 0.5501 0.50113 0.35587 0.0
C672 C 0.5879 0.51543 0.3792 0.0
H673 H 0.50337 0.45673 0.30211 0.0
H674 H 0.53122 0.51006 0.37748 0.0
S675 S 0.66071 0.49063 0.3205 0.0
N676 N 0.62057 0.46138 0.28165 0.0
N677 N 0.64969 0.51769 0.36565 0.0
C678 C 0.61202 0.50402 0.349 0.0
C679 C 0.59615 0.47329 0.30407 0.0
C680 C 0.4837 0.04718 0.3436 0.0
C681 C 0.47266 0.07156 0.37459 0.0
C682 C 0.51184 0.06171 0.29574 0.0
C683 C 0.52902 0.10097 0.2774 0.0
H684 H 0.47416 0.01835 0.36131 0.0
H685 H 0.5236 0.04374 0.27928 0.0
S686 S 0.49832 0.17149 0.32698 0.0
N687 N 0.47221 0.13258 0.37105 0.0
N688 N 0.52455 0.16009 0.2805 0.0
C689 C 0.5121 0.1228 0.29897 0.0
C690 C 0.48362 0.10788 0.34761 0.0
C691 C 0.91481 0.43487 0.2851 0.0
C692 C 0.87526 0.41824 0.27064 0.0
C693 C 0.92675 0.41798 0.33132 0.0
C694 C 0.89938 0.38524 0.3654 0.0
H695 H 0.93563 0.46351 0.26736 0.0
H696 H 0.9566 0.43334 0.34559 0.0
S697 S 0.79482 0.32386 0.32998 0.0
N698 N 0.81055 0.36126 0.28143 0.0
N699 N 0.83346 0.33075 0.36932 0.0
C700 C 0.86148 0.36429 0.34229 0.0
C701 C 0.84917 0.3809 0.29493 0.0
C702 C 0.33783 0.35554 0.30628 0.0
C703 C 0.3237 0.37069 0.26029 0.0
C704 C 0.35479 0.33285 0.28986 0.0
C705 C 0.35935 0.32558 0.22674 0.0
H706 H 0.3375 0.36288 0.35507 0.0
H707 H 0.36729 0.32371 0.32655 0.0
S708 S 0.32588 0.35729 0.08878 0.0
N709 N 0.31333 0.37479 0.14922 0.0
N710 N 0.34664 0.33364 0.11843 0.0
C711 C 0.3438 0.33909 0.1806 0.0
C712 C 0.32558 0.36125 0.19736 0.0
C713 C 0.6362 0.97 0.20269 0.0
C714 C 0.62998 0.9589 0.26613 0.0
C715 C 0.65451 0.00957 0.18504 0.0
C716 C 0.66825 0.03948 0.23017 0.0
H717 H 0.62384 0.94794 0.16647 0.0
H718 H 0.65603 0.01674 0.13579 0.0
S719 S 0.66197 0.02572 0.40242 0.0
N720 N 0.64091 0.9809 0.37398 0.0
N721 N 0.67655 0.05514 0.34109 0.0
C722 C 0.66482 0.02877 0.29367 0.0
C723 C 0.64533 0.9885 0.31157 0.0
C724 C 0.02252 0.66613 0.20219 0.0
C725 C 0.03281 0.67005 0.2659 0.0
C726 C 0.98332 0.6445 0.18335 0.0
C727 C 0.95291 0.62708 0.22757 0.0
H728 H 0.04504 0.67723 0.16651 0.0
H729 H 0.97686 0.63998 0.13382 0.0
S730 S 0.96434 0.63049 0.40007 0.0
N731 N 0.00938 0.65556 0.37302 0.0
N732 N 0.93584 0.6167 0.338 0.0
C733 C 0.96275 0.63283 0.29144 0.0
C734 C 0.00265 0.65382 0.31049 0.0
C735 C 0.63285 0.66924 0.69765 0.0
C736 C 0.62855 0.67607 0.76106 0.0
C737 C 0.65312 0.64991 0.67984 0.0
C738 C 0.67073 0.63763 0.72464 0.0
H739 H 0.61771 0.6759 0.66196 0.0
H740 H 0.65315 0.64257 0.63098 0.0
S741 S 0.6704 0.65145 0.8964 0.0
N742 N 0.64522 0.67095 0.86832 0.0
N743 N 0.68443 0.63605 0.83502 0.0
C744 C 0.66902 0.64693 0.78778 0.0
C745 C 0.64759 0.66571 0.80595 0.0
C746 C 0.33828 0.98725 0.80905 0.0
C747 C 0.322 0.95792 0.76305 0.0
C748 C 0.35863 0.02705 0.79268 0.0
C749 C 0.36445 0.03887 0.72959 0.0
H750 H 0.33718 0.97931 0.85784 0.0
H751 H 0.37264 0.04849 0.82939 0.0
S752 S 0.32571 0.9738 0.59163 0.0
N753 N 0.31072 0.94365 0.65207 0.0
N754 N 0.35003 0.01826 0.62127 0.0
C755 C 0.34657 0.00996 0.68342 0.0
C756 C 0.32503 0.96951 0.70016 0.0
C757 C 0.97935 0.37315 0.72387 0.0
C758 C 0.95589 0.33223 0.72201 0.0
C759 C 0.01806 0.39123 0.74306 0.0
C760 C 0.03602 0.36961 0.75972 0.0
H761 H 0.96739 0.39177 0.71267 0.0
H762 H 0.03403 0.4228 0.74561 0.0
S763 S 0.98835 0.26166 0.76191 0.0
N764 N 0.95355 0.27025 0.73892 0.0
N765 N 0.02767 0.30483 0.77235 0.0
C766 C 0.01355 0.32865 0.75678 0.0
C767 C 0.97321 0.30988 0.73877 0.0
C768 C 0.41544 0.20006 0.95021 0.0
C769 C 0.45405 0.20853 0.93985 0.0
C770 C 0.40608 0.2177 -0.0008 0.0
C771 C 0.43486 0.24405 0.04016 0.0
H772 H 0.39253 0.18119 0.91833 0.0
H773 H 0.37653 0.21227 0.00306 0.0
S774 S 0.54028 0.27587 0.03435 0.0
N775 N 0.52104 0.24436 0.97645 0.0
N776 N 0.5035 0.27738 0.06785 0.0
C777 C 0.4732 0.25121 0.03243 0.0
C778 C 0.48277 0.23343 0.98253 0.0
C779 C 0.75722 0.22847 0.04673 0.0
C780 C 0.75423 0.19149 0.04865 0.0
C781 C 0.77802 0.2551 -0.00128 0.0
C782 C 0.79656 0.24569 0.95083 0.0
H783 H 0.74022 0.23546 0.07849 0.0
H784 H 0.77652 0.28169 -0.00366 0.0
S785 S 0.80729 0.15759 0.94659 0.0
N786 N 0.77864 0.1505 0.00741 0.0
N787 N 0.81805 0.20052 0.91745 0.0
C788 C 0.79838 0.21119 0.9577 0.0
C789 C 0.7771 0.18408 0.00654 0.0
C790 C 0.76955 0.54107 0.04198 0.0
C791 C 0.80838 0.57153 0.03946 0.0
C792 C 0.74331 0.53563 0.99408 0.0
C793 C 0.755 0.56065 0.94172 0.0
H794 H 0.76055 0.51901 0.07781 0.0
H795 H 0.71473 0.50973 -0.00416 0.0
S796 S 0.85024 0.65191 0.92301 0.0
N797 N 0.85477 0.63206 0.98805 0.0
N798 N 0.80561 0.62232 0.89796 0.0
C799 C 0.79216 0.59445 0.94328 0.0
C800 C 0.81884 0.5998 0.99218 0.0
C801 C 0.23339 0.41203 0.50347 0.0
C802 C 0.23875 0.43079 0.44514 0.0
C803 C 0.21356 0.41787 0.55246 0.0
C804 C 0.19744 0.44224 0.5455 0.0
H805 H 0.24733 0.39509 0.51374 0.0
H806 H 0.21351 0.4053 0.59751 0.0
S807 S 0.18565 0.48111 0.39485 0.0
N808 N 0.21467 0.46353 0.37761 0.0
N809 N 0.17676 0.47429 0.47076 0.0
C810 C 0.19694 0.45597 0.48508 0.0
C811 C 0.21753 0.45011 0.43457 0.0
C812 C 0.53039 0.74917 0.5007 0.0
C813 C 0.54927 0.76231 0.55871 0.0
C814 C 0.53727 0.77532 0.45121 0.0
C815 C 0.56327 0.81558 0.45797 0.0
H816 H 0.50867 0.71877 0.49449 0.0
H817 H 0.52024 0.76429 0.40908 0.0
S818 S 0.62946 0.86288 0.59262 0.0
N819 N 0.60185 0.81695 0.61428 0.0
N820 N 0.61501 0.86563 0.52149 0.0
C821 C 0.58641 0.82804 0.51228 0.0
C822 C 0.57932 0.80155 0.56267 0.0
C823 C 0.18603 0.75906 0.57619 0.0
C824 C 0.2251 0.78598 0.56262 0.0
C825 C 0.15982 0.73807 0.52876 0.0
C826 C 0.17146 0.7429 0.46532 0.0
H827 H 0.17606 0.75216 0.62426 0.0
H828 H 0.13076 0.71602 0.54299 0.0
S829 S 0.26691 0.82041 0.4046 0.0
N830 N 0.27212 0.82335 0.48146 0.0
N831 N 0.22229 0.78415 0.39117 0.0
C832 C 0.20933 0.77314 0.45065 0.0
C833 C 0.23634 0.79449 0.49956 0.0
C834 C 0.58103 0.7536 0.01999 0.0
C835 C 0.56782 0.75322 0.95862 0.0
C836 C 0.57579 0.77455 0.0678 0.0
C837 C 0.55734 0.79635 0.05653 0.0
H838 H 0.59286 0.73515 0.03303 0.0
H839 H 0.58363 0.77103 0.11486 0.0
S840 S 0.53252 0.81826 0.90022 0.0
N841 N 0.54579 0.78541 0.88615 0.0
N842 N 0.53591 0.82525 0.97678 0.0
C843 C 0.54898 0.80078 0.99409 0.0
C844 C 0.55429 0.77917 0.94494 0.0
C845 C 0.23828 0.83715 0.01856 0.0
C846 C 0.24002 0.82268 0.95882 0.0
C847 C 0.21733 0.81195 0.06778 0.0
C848 C 0.19701 0.77136 0.059 0.0
H849 H 0.25594 0.86794 0.02938 0.0
H850 H 0.21999 0.82427 0.11402 0.0
S851 S 0.18058 0.71979 0.90755 0.0
N852 N 0.21129 0.766 0.89053 0.0
N853 N 0.17166 0.71851 0.98326 0.0
C854 C 0.19376 0.75697 -0.00222 0.0
C855 C 0.21524 0.78267 0.94755 0.0
C856 C 0.19548 0.40843 0.98278 0.0
C857 C 0.19734 0.43752 0.94285 0.0
C858 C 0.22258 0.41783 0.03099 0.0
C859 C 0.25229 0.45662 0.04082 0.0
H860 H 0.17141 0.37876 0.97939 0.0
H861 H 0.21884 0.39497 0.06302 0.0
S862 S 0.2701 0.54353 0.94842 0.0
N863 N 0.23199 0.50659 0.91531 0.0
N864 N 0.28301 0.52401 0.00489 0.0
C865 C 0.25605 0.48552 -0.00154 0.0
C866 C 0.22848 0.47602 0.94968 0.0
C867 C 0.79212 0.57988 0.44665 0.0
C868 C 0.78383 0.54137 0.43519 0.0
C869 C 0.77428 0.58847 0.49634 0.0
C870 C 0.74784 0.55894 0.5367 0.0
H871 H 0.81107 0.60328 0.41522 0.0
H872 H 0.77961 0.61802 0.50122 0.0
S873 S 0.71498 0.45317 0.52585 0.0
N874 N 0.74717 0.47346 0.46889 0.0
N875 N 0.71385 0.48961 0.56149 0.0
C876 C 0.74064 0.52063 0.52753 0.0
C877 C 0.75862 0.51185 0.477 0.0
C878 C 0.46805 0.24852 0.49049 0.0
C879 C 0.43951 0.2385 0.44398 0.0
C880 C 0.46303 0.22274 0.53914 0.0
C881 C 0.42921 0.18592 0.5435 0.0
H882 H 0.49586 0.27526 0.487 0.0
H883 H 0.48737 0.23039 0.57005 0.0
S884 S 0.34208 0.14888 0.44254 0.0
N885 N 0.37334 0.1917 0.41197 0.0
N886 N 0.36418 0.1432 0.50354 0.0
C887 C 0.39877 0.17719 0.50147 0.0
C888 C 0.40382 0.20349 0.45176 0.0
C889 C 0.77031 0.19756 0.45333 0.0
C890 C 0.74048 0.20628 0.44196 0.0
C891 C 0.79624 0.21463 0.50332 0.0
C892 C 0.79311 0.24075 0.5443 0.0
H893 H 0.77514 0.17913 0.42128 0.0
H894 H 0.82044 0.20934 0.50751 0.0
S895 S 0.71859 0.2714 0.53809 0.0
N896 N 0.70776 0.24079 0.47904 0.0
N897 N 0.75655 0.27299 0.57233 0.0
C898 C 0.76173 0.24754 0.53631 0.0
C899 C 0.73536 0.23022 0.48536 0.0
loop_
_geom_bond_atom_site_label_1
_geom_bond_atom_site_label_2
_geom_bond_distance
_geom_bond_site_symmetry_2
_ccdc_geom_bond_type
C0 O27 1.312 . S
C0 O28 1.208 1_554 S
C1 O22 1.331 . S
C1 O25 1.244 . S
C2 O24 1.264 . S
C2 O26 1.273 . S
Mg3 O5 1.936 . S
Mg3 O12 2.081 . S
Mg3 O14 2.023 . S
Mg3 O18 2.031 . S
Mg3 O27 2.291 . S
Mg4 O5 1.963 . S
Mg4 O15 1.942 . S
Mg4 O16 1.955 . S
Mg4 O23 1.986 . S
O5 Mg3 1.936 . S
O5 Mg4 1.963 . S
O5 Mg6 1.915 . S
Mg6 O5 1.915 . S
Mg6 O7 1.915 . S
Mg6 O11 2.013 . S
Mg6 O17 2.114 . S
Mg6 O21 2.013 . S
Mg6 O27 2.114 . S
O7 Mg6 1.915 . S
O7 Mg8 1.936 . S
O7 Mg9 1.963 . S
Mg8 O7 1.936 . S
Mg8 O17 2.291 . S
Mg8 O22 2.081 1_554 S
Mg8 O24 2.023 . S
Mg8 O28 2.031 1_554 S
Mg9 O7 1.963 . S
Mg9 O13 1.986 . S
Mg9 O25 1.942 1_554 S
Mg9 O26 1.955 . S
C10 O21 1.191 . S
C10 O23 1.307 . S
O11 Mg6 2.013 . S
O11 C30 1.191 . S
O12 Mg3 2.081 . S
O12 C20 1.331 . S
O13 Mg9 1.986 . S
O13 C30 1.307 . S
O14 Mg3 2.023 . S
O14 C29 1.264 . S
O15 Mg4 1.942 . S
O15 C20 1.244 . S
O16 Mg4 1.955 . S
O16 C29 1.273 . S
O17 Mg6 2.114 . S
O17 Mg8 2.291 . S
O17 C19 1.312 . S
O18 Mg3 2.031 . S
O18 C19 1.208 . S
C19 O17 1.312 . S
C19 O18 1.208 . S
C20 O12 1.331 . S
C20 O15 1.244 . S
O21 Mg6 2.013 . S
O21 C10 1.191 . S
O22 C1 1.331 . S
O22 Mg8 2.081 1_556 S
O23 Mg4 1.986 . S
O23 C10 1.307 . S
O24 C2 1.264 . S
O24 Mg8 2.023 . S
O25 C1 1.244 . S
O25 Mg9 1.942 1_556 S
O26 C2 1.273 . S
O26 Mg9 1.955 . S
O27 C0 1.312 . S
O27 Mg3 2.291 . S
O27 Mg6 2.114 . S
O28 C0 1.208 1_556 S
O28 Mg8 2.031 1_556 S
C29 O14 1.264 . S
C29 O16 1.273 . S
C30 O11 1.191 . S
C30 O13 1.307 . S
C31 O58 1.312 . S
C31 O59 1.208 1_554 S
C32 O53 1.331 . S
C32 O56 1.244 . S
C33 O55 1.264 . S
C33 O57 1.273 . S
Mg34 O36 1.936 . S
Mg34 O43 2.081 . S
Mg34 O45 2.023 . S
Mg34 O49 2.031 . S
Mg34 O58 2.291 . S
Mg35 O36 1.963 . S
Mg35 O46 1.942 . S
Mg35 O47 1.955 . S
Mg35 O54 1.986 . S
O36 Mg34 1.936 . S
O36 Mg35 1.963 . S
O36 Mg37 1.915 . S
Mg37 O36 1.915 . S
Mg37 O38 1.915 . S
Mg37 O42 2.013 . S
Mg37 O48 2.114 . S
Mg37 O52 2.013 . S
Mg37 O58 2.114 . S
O38 Mg37 1.915 . S
O38 Mg39 1.936 . S
O38 Mg40 1.963 . S
Mg39 O38 1.936 . S
Mg39 O48 2.291 . S
Mg39 O53 2.081 1_554 S
Mg39 O55 2.023 . S
Mg39 O59 2.031 1_554 S
Mg40 O38 1.963 . S
Mg40 O44 1.986 . S
Mg40 O56 1.942 1_554 S
Mg40 O57 1.955 . S
C41 O52 1.191 . S
C41 O54 1.307 . S
O42 Mg37 2.013 . S
O42 C61 1.191 . S
O43 Mg34 2.081 . S
O43 C51 1.331 . S
O44 Mg40 1.986 . S
O44 C61 1.307 . S
O45 Mg34 2.023 . S
O45 C60 1.264 . S
O46 Mg35 1.942 . S
O46 C51 1.244 . S
O47 Mg35 1.955 . S
O47 C60 1.273 . S
O48 Mg37 2.114 . S
O48 Mg39 2.291 . S
O48 C50 1.312 . S
O49 Mg34 2.031 . S
O49 C50 1.208 . S
C50 O48 1.312 . S
C50 O49 1.208 . S
C51 O43 1.331 . S
C51 O46 1.244 . S
O52 Mg37 2.013 . S
O52 C41 1.191 . S
O53 C32 1.331 . S
O53 Mg39 2.081 1_556 S
O54 Mg35 1.986 . S
O54 C41 1.307 . S
O55 C33 1.264 . S
O55 Mg39 2.023 . S
O56 C32 1.244 . S
O56 Mg40 1.942 1_556 S
O57 C33 1.273 . S
O57 Mg40 1.955 . S
O58 C31 1.312 . S
O58 Mg34 2.291 . S
O58 Mg37 2.114 . S
O59 C31 1.208 1_556 S
O59 Mg39 2.031 1_556 S
C60 O45 1.264 . S
C60 O47 1.273 . S
C61 O42 1.191 . S
C61 O44 1.307 . S
C62 O89 1.312 . S
C62 O90 1.208 . S
C63 O84 1.331 . S
C63 O87 1.244 . S
C64 O86 1.264 . S
C64 O88 1.273 . S
Mg65 O67 1.936 . S
Mg65 O74 2.081 1_554 S
Mg65 O76 2.023 . S
Mg65 O80 2.031 1_554 S
Mg65 O89 2.291 . S
Mg66 O67 1.963 . S
Mg66 O77 1.942 1_554 S
Mg66 O78 1.955 . S
Mg66 O85 1.986 . S
O67 Mg65 1.936 . S
O67 Mg66 1.963 . S
O67 Mg68 1.915 . S
Mg68 O67 1.915 . S
Mg68 O69 1.915 . S
Mg68 O73 2.013 . S
Mg68 O79 2.114 . S
Mg68 O83 2.013 . S
Mg68 O89 2.114 . S
O69 Mg68 1.915 . S
O69 Mg70 1.936 . S
O69 Mg71 1.963 . S
Mg70 O69 1.936 . S
Mg70 O79 2.291 . S
Mg70 O84 2.081 . S
Mg70 O86 2.023 . S
Mg70 O90 2.031 . S
Mg71 O69 1.963 . S
Mg71 O75 1.986 . S
Mg71 O87 1.942 . S
Mg71 O88 1.955 . S
C72 O83 1.191 . S
C72 O85 1.307 . S
O73 Mg68 2.013 . S
O73 C92 1.191 . S
O74 Mg65 2.081 1_556 S
O74 C82 1.331 . S
O75 Mg71 1.986 . S
O75 C92 1.307 . S
O76 Mg65 2.023 . S
O76 C91 1.264 . S
O77 Mg66 1.942 1_556 S
O77 C82 1.244 . S
O78 Mg66 1.955 . S
O78 C91 1.273 . S
O79 Mg68 2.114 . S
O79 Mg70 2.291 . S
O79 C81 1.312 . S
O80 Mg65 2.031 1_556 S
O80 C81 1.208 1_556 S
C81 O79 1.312 . S
C81 O80 1.208 1_554 S
C82 O74 1.331 . S
C82 O77 1.244 . S
O83 Mg68 2.013 . S
O83 C72 1.191 . S
O84 C63 1.331 . S
O84 Mg70 2.081 . S
O85 Mg66 1.986 . S
O85 C72 1.307 . S
O86 C64 1.264 . S
O86 Mg70 2.023 . S
O87 C63 1.244 . S
O87 Mg71 1.942 . S
O88 C64 1.273 . S
O88 Mg71 1.955 . S
O89 C62 1.312 . S
O89 Mg65 2.291 . S
O89 Mg68 2.114 . S
O90 C62 1.208 . S
O90 Mg70 2.031 . S
C91 O76 1.264 . S
C91 O78 1.273 . S
C92 O73 1.191 . S
C92 O75 1.307 . S
C93 O120 1.312 . S
C93 O121 1.208 . S
C94 O115 1.331 . S
C94 O118 1.244 . S
C95 O117 1.264 . S
C95 O119 1.273 . S
Mg96 O98 1.936 . S
Mg96 O105 2.081 . S
Mg96 O107 2.023 . S
Mg96 O111 2.031 . S
Mg96 O120 2.291 . S
Mg97 O98 1.963 . S
Mg97 O108 1.942 . S
Mg97 O109 1.955 . S
Mg97 O116 1.986 . S
O98 Mg96 1.936 . S
O98 Mg97 1.963 . S
O98 Mg99 1.915 . S
Mg99 O98 1.915 . S
Mg99 O100 1.915 . S
Mg99 O104 2.013 . S
Mg99 O110 2.114 . S
Mg99 O114 2.013 . S
Mg99 O120 2.114 . S
O100 Mg99 1.915 . S
O100 Mg101 1.936 . S
O100 Mg102 1.963 . S
Mg101 O100 1.936 . S
Mg101 O110 2.291 . S
Mg101 O115 2.081 . S
Mg101 O117 2.023 . S
Mg101 O121 2.031 . S
Mg102 O100 1.963 . S
Mg102 O106 1.986 . S
Mg102 O118 1.942 . S
Mg102 O119 1.955 . S
C103 O114 1.191 . S
C103 O116 1.307 . S
O104 Mg99 2.013 . S
O104 C123 1.191 . S
O105 Mg96 2.081 . S
O105 C113 1.331 . S
O106 Mg102 1.986 . S
O106 C123 1.307 . S
O107 Mg96 2.023 . S
O107 C122 1.264 . S
O108 Mg97 1.942 . S
O108 C113 1.244 . S
O109 Mg97 1.955 . S
O109 C122 1.273 . S
O110 Mg99 2.114 . S
O110 Mg101 2.291 . S
O110 C112 1.312 . S
O111 Mg96 2.031 . S
O111 C112 1.208 . S
C112 O110 1.312 . S
C112 O111 1.208 . S
C113 O105 1.331 . S
C113 O108 1.244 . S
O114 Mg99 2.013 . S
O114 C103 1.191 . S
O115 C94 1.331 . S
O115 Mg101 2.081 . S
O116 Mg97 1.986 . S
O116 C103 1.307 . S
O117 C95 1.264 . S
O117 Mg101 2.023 . S
O118 C94 1.244 . S
O118 Mg102 1.942 . S
O119 C95 1.273 . S
O119 Mg102 1.955 . S
O120 C93 1.312 . S
O120 Mg96 2.291 . S
O120 Mg99 2.114 . S
O121 C93 1.208 . S
O121 Mg101 2.031 . S
C122 O107 1.264 . S
C122 O109 1.273 . S
C123 O104 1.191 . S
C123 O106 1.307 . S
C124 O151 1.312 . S
C124 O152 1.208 . S
C125 O146 1.331 . S
C125 O149 1.244 . S
C126 O148 1.264 . S
C126 O150 1.273 . S
Mg127 O129 1.936 . S
Mg127 O136 2.081 . S
Mg127 O138 2.023 . S
Mg127 O142 2.031 . S
Mg127 O151 2.291 . S
Mg128 O129 1.963 . S
Mg128 O139 1.942 . S
Mg128 O140 1.955 . S
Mg128 O147 1.986 . S
O129 Mg127 1.936 . S
O129 Mg128 1.963 . S
O129 Mg130 1.915 . S
Mg130 O129 1.915 . S
Mg130 O131 1.915 . S
Mg130 O135 2.013 . S
Mg130 O141 2.114 . S
Mg130 O145 2.013 . S
Mg130 O151 2.114 . S
O131 Mg130 1.915 . S
O131 Mg132 1.936 . S
O131 Mg133 1.963 . S
Mg132 O131 1.936 . S
Mg132 O141 2.291 . S
Mg132 O146 2.081 . S
Mg132 O148 2.023 . S
Mg132 O152 2.031 . S
Mg133 O131 1.963 . S
Mg133 O137 1.986 . S
Mg133 O149 1.942 . S
Mg133 O150 1.955 . S
C134 O145 1.191 . S
C134 O147 1.307 . S
O135 Mg130 2.013 . S
O135 C154 1.191 . S
O136 Mg127 2.081 . S
O136 C144 1.331 . S
O137 Mg133 1.986 . S
O137 C154 1.307 . S
O138 Mg127 2.023 . S
O138 C153 1.264 . S
O139 Mg128 1.942 . S
O139 C144 1.244 . S
O140 Mg128 1.955 . S
O140 C153 1.273 . S
O141 Mg130 2.114 . S
O141 Mg132 2.291 . S
O141 C143 1.312 . S
O142 Mg127 2.031 . S
O142 C143 1.208 . S
C143 O141 1.312 . S
C143 O142 1.208 . S
C144 O136 1.331 . S
C144 O139 1.244 . S
O145 Mg130 2.013 . S
O145 C134 1.191 . S
O146 C125 1.331 . S
O146 Mg132 2.081 . S
O147 Mg128 1.986 . S
O147 C134 1.307 . S
O148 C126 1.264 . S
O148 Mg132 2.023 . S
O149 C125 1.244 . S
O149 Mg133 1.942 . S
O150 C126 1.273 . S
O150 Mg133 1.955 . S
O151 C124 1.312 . S
O151 Mg127 2.291 . S
O151 Mg130 2.114 . S
O152 C124 1.208 . S
O152 Mg132 2.031 . S
C153 O138 1.264 . S
C153 O140 1.273 . S
C154 O135 1.191 . S
C154 O137 1.307 . S
C155 O182 1.312 . S
C155 O183 1.208 . S
C156 O177 1.331 . S
C156 O180 1.244 . S
C157 O179 1.264 . S
C157 O181 1.273 . S
Mg158 O160 1.936 . S
Mg158 O167 2.081 . S
Mg158 O169 2.023 . S
Mg158 O173 2.031 . S
Mg158 O182 2.291 . S
Mg159 O160 1.963 . S
Mg159 O170 1.942 . S
Mg159 O171 1.955 . S
Mg159 O178 1.986 . S
O160 Mg158 1.936 . S
O160 Mg159 1.963 . S
O160 Mg161 1.915 . S
Mg161 O160 1.915 . S
Mg161 O162 1.915 . S
Mg161 O166 2.013 . S
Mg161 O172 2.114 . S
Mg161 O176 2.013 . S
Mg161 O182 2.114 . S
O162 Mg161 1.915 . S
O162 Mg163 1.936 . S
O162 Mg164 1.963 . S
Mg163 O162 1.936 . S
Mg163 O172 2.291 . S
Mg163 O177 2.081 . S
Mg163 O179 2.023 . S
Mg163 O183 2.031 . S
Mg164 O162 1.963 . S
Mg164 O168 1.986 . S
Mg164 O180 1.942 . S
Mg164 O181 1.955 . S
C165 O176 1.191 . S
C165 O178 1.307 . S
O166 Mg161 2.013 . S
O166 C185 1.191 . S
O167 Mg158 2.081 . S
O167 C175 1.331 . S
O168 Mg164 1.986 . S
O168 C185 1.307 . S
O169 Mg158 2.023 . S
O169 C184 1.264 . S
O170 Mg159 1.942 . S
O170 C175 1.244 . S
O171 Mg159 1.955 . S
O171 C184 1.273 . S
O172 Mg161 2.114 . S
O172 Mg163 2.291 . S
O172 C174 1.312 . S
O173 Mg158 2.031 . S
O173 C174 1.208 . S
C174 O172 1.312 . S
C174 O173 1.208 . S
C175 O167 1.331 . S
C175 O170 1.244 . S
O176 Mg161 2.013 . S
O176 C165 1.191 . S
O177 C156 1.331 . S
O177 Mg163 2.081 . S
O178 Mg159 1.986 . S
O178 C165 1.307 . S
O179 C157 1.264 . S
O179 Mg163 2.023 . S
O180 C156 1.244 . S
O180 Mg164 1.942 . S
O181 C157 1.273 . S
O181 Mg164 1.955 . S
O182 C155 1.312 . S
O182 Mg158 2.291 . S
O182 Mg161 2.114 . S
O183 C155 1.208 . S
O183 Mg163 2.031 . S
C184 O169 1.264 . S
C184 O171 1.273 . S
C185 O166 1.191 . S
C185 O168 1.307 . S
C186 O213 1.312 . S
C186 O214 1.208 1_556 S
C187 O208 1.331 . S
C187 O211 1.244 . S
C188 O210 1.264 . S
C188 O212 1.273 . S
Mg189 O191 1.936 . S
Mg189 O198 2.081 . S
Mg189 O200 2.023 . S
Mg189 O204 2.031 . S
Mg189 O213 2.291 . S
Mg190 O191 1.963 . S
Mg190 O201 1.942 . S
Mg190 O202 1.955 . S
Mg190 O209 1.986 . S
O191 Mg189 1.936 . S
O191 Mg190 1.963 . S
O191 Mg192 1.915 . S
Mg192 O191 1.915 . S
Mg192 O193 1.915 . S
Mg192 O197 2.013 . S
Mg192 O203 2.114 . S
Mg192 O207 2.013 . S
Mg192 O213 2.114 . S
O193 Mg192 1.915 . S
O193 Mg194 1.936 . S
O193 Mg195 1.963 . S
Mg194 O193 1.936 . S
Mg194 O203 2.291 . S
Mg194 O208 2.081 1_556 S
Mg194 O210 2.023 . S
Mg194 O214 2.031 1_556 S
Mg195 O193 1.963 . S
Mg195 O199 1.986 . S
Mg195 O211 1.942 1_556 S
Mg195 O212 1.955 . S
C196 O207 1.191 . S
C196 O209 1.307 . S
O197 Mg192 2.013 . S
O197 C216 1.191 . S
O198 Mg189 2.081 . S
O198 C206 1.331 . S
O199 Mg195 1.986 . S
O199 C216 1.307 . S
O200 Mg189 2.023 . S
O200 C215 1.264 . S
O201 Mg190 1.942 . S
O201 C206 1.244 . S
O202 Mg190 1.955 . S
O202 C215 1.273 . S
O203 Mg192 2.114 . S
O203 Mg194 2.291 . S
O203 C205 1.312 . S
O204 Mg189 2.031 . S
O204 C205 1.208 . S
C205 O203 1.312 . S
C205 O204 1.208 . S
C206 O198 1.331 . S
C206 O201 1.244 . S
O207 Mg192 2.013 . S
O207 C196 1.191 . S
O208 C187 1.331 . S
O208 Mg194 2.081 1_554 S
O209 Mg190 1.986 . S
O209 C196 1.307 . S
O210 C188 1.264 . S
O210 Mg194 2.023 . S
O211 C187 1.244 . S
O211 Mg195 1.942 1_554 S
O212 C188 1.273 . S
O212 Mg195 1.955 . S
O213 C186 1.312 . S
O213 Mg189 2.291 . S
O213 Mg192 2.114 . S
O214 C186 1.208 1_554 S
O214 Mg194 2.031 1_554 S
C215 O200 1.264 . S
C215 O202 1.273 . S
C216 O197 1.191 . S
C216 O199 1.307 . S
C217 O244 1.312 . S
C217 O245 1.208 . S
C218 O239 1.331 . S
C218 O242 1.244 . S
C219 O241 1.264 . S
C219 O243 1.273 . S
Mg220 O222 1.936 . S
Mg220 O229 2.081 1_556 S
Mg220 O231 2.023 . S
Mg220 O235 2.031 1_556 S
Mg220 O244 2.291 . S
Mg221 O222 1.963 . S
Mg221 O232 1.942 1_556 S
Mg221 O233 1.955 . S
Mg221 O240 1.986 . S
O222 Mg220 1.936 . S
O222 Mg221 1.963 . S
O222 Mg223 1.915 . S
Mg223 O222 1.915 . S
Mg223 O224 1.915 . S
Mg223 O228 2.013 . S
Mg223 O234 2.114 . S
Mg223 O238 2.013 . S
Mg223 O244 2.114 . S
O224 Mg223 1.915 . S
O224 Mg225 1.936 . S
O224 Mg226 1.963 . S
Mg225 O224 1.936 . S
Mg225 O234 2.291 . S
Mg225 O239 2.081 . S
Mg225 O241 2.023 . S
Mg225 O245 2.031 . S
Mg226 O224 1.963 . S
Mg226 O230 1.986 . S
Mg226 O242 1.942 . S
Mg226 O243 1.955 . S
C227 O238 1.191 . S
C227 O240 1.307 . S
O228 Mg223 2.013 . S
O228 C247 1.191 . S
O229 Mg220 2.081 1_554 S
O229 C237 1.331 . S
O230 Mg226 1.986 . S
O230 C247 1.307 . S
O231 Mg220 2.023 . S
O231 C246 1.264 . S
O232 Mg221 1.942 1_554 S
O232 C237 1.244 . S
O233 Mg221 1.955 . S
O233 C246 1.273 . S
O234 Mg223 2.114 . S
O234 Mg225 2.291 . S
O234 C236 1.312 . S
O235 Mg220 2.031 1_554 S
O235 C236 1.208 1_554 S
C236 O234 1.312 . S
C236 O235 1.208 1_556 S
C237 O229 1.331 . S
C237 O232 1.244 . S
O238 Mg223 2.013 . S
O238 C227 1.191 . S
O239 C218 1.331 . S
O239 Mg225 2.081 . S
O240 Mg221 1.986 . S
O240 C227 1.307 . S
O241 C219 1.264 . S
O241 Mg225 2.023 . S
O242 C218 1.244 . S
O242 Mg226 1.942 . S
O243 C219 1.273 . S
O243 Mg226 1.955 . S
O244 C217 1.312 . S
O244 Mg220 2.291 . S
O244 Mg223 2.114 . S
O245 C217 1.208 . S
O245 Mg225 2.031 . S
C246 O231 1.264 . S
C246 O233 1.273 . S
C247 O228 1.191 . S
C247 O230 1.307 . S
C248 O275 1.312 . S
C248 O276 1.208 1_556 S
C249 O270 1.331 . S
C249 O273 1.244 . S
C250 O272 1.264 . S
C250 O274 1.273 . S
Mg251 O253 1.936 . S
Mg251 O260 2.081 . S
Mg251 O262 2.023 . S
Mg251 O266 2.031 . S
Mg251 O275 2.291 . S
Mg252 O253 1.963 . S
Mg252 O263 1.942 . S
Mg252 O264 1.955 . S
Mg252 O271 1.986 . S
O253 Mg251 1.936 . S
O253 Mg252 1.963 . S
O253 Mg254 1.915 . S
Mg254 O253 1.915 . S
Mg254 O255 1.915 . S
Mg254 O259 2.013 . S
Mg254 O265 2.114 . S
Mg254 O269 2.013 . S
Mg254 O275 2.114 . S
O255 Mg254 1.915 . S
O255 Mg256 1.936 . S
O255 Mg257 1.963 . S
Mg256 O255 1.936 . S
Mg256 O265 2.291 . S
Mg256 O270 2.081 1_556 S
Mg256 O272 2.023 . S
Mg256 O276 2.031 1_556 S
Mg257 O255 1.963 . S
Mg257 O261 1.986 . S
Mg257 O273 1.942 1_556 S
Mg257 O274 1.955 . S
C258 O269 1.191 . S
C258 O271 1.307 . S
O259 Mg254 2.013 . S
O259 C278 1.191 . S
O260 Mg251 2.081 . S
O260 C268 1.331 . S
O261 Mg257 1.986 . S
O261 C278 1.307 . S
O262 Mg251 2.023 . S
O262 C277 1.264 . S
O263 Mg252 1.942 . S
O263 C268 1.244 . S
O264 Mg252 1.955 . S
O264 C277 1.273 . S
O265 Mg254 2.114 . S
O265 Mg256 2.291 . S
O265 C267 1.312 . S
O266 Mg251 2.031 . S
O266 C267 1.208 . S
C267 O265 1.312 . S
C267 O266 1.208 . S
C268 O260 1.331 . S
C268 O263 1.244 . S
O269 Mg254 2.013 . S
O269 C258 1.191 . S
O270 C249 1.331 . S
O270 Mg256 2.081 1_554 S
O271 Mg252 1.986 . S
O271 C258 1.307 . S
O272 C250 1.264 . S
O272 Mg256 2.023 . S
O273 C249 1.244 . S
O273 Mg257 1.942 1_554 S
O274 C250 1.273 . S
O274 Mg257 1.955 . S
O275 C248 1.312 . S
O275 Mg251 2.291 . S
O275 Mg254 2.114 . S
O276 C248 1.208 1_554 S
O276 Mg256 2.031 1_554 S
C277 O262 1.264 . S
C277 O264 1.273 . S
C278 O259 1.191 . S
C278 O261 1.307 . S
C279 O306 1.312 . S
C279 O307 1.208 . S
C280 O301 1.331 . S
C280 O304 1.244 . S
C281 O303 1.264 . S
C281 O305 1.273 . S
Mg282 O284 1.936 . S
Mg282 O291 2.081 . S
Mg282 O293 2.023 . S
Mg282 O297 2.031 . S
Mg282 O306 2.291 . S
Mg283 O284 1.963 . S
Mg283 O294 1.942 . S
Mg283 O295 1.955 . S
Mg283 O302 1.986 . S
O284 Mg282 1.936 . S
O284 Mg283 1.963 . S
O284 Mg285 1.915 . S
Mg285 O284 1.915 . S
Mg285 O286 1.915 . S
Mg285 O290 2.013 . S
Mg285 O296 2.114 . S
Mg285 O300 2.013 . S
Mg285 O306 2.114 . S
O286 Mg285 1.915 . S
O286 Mg287 1.936 . S
O286 Mg288 1.963 . S
Mg287 O286 1.936 . S
Mg287 O296 2.291 . S
Mg287 O301 2.081 . S
Mg287 O303 2.023 . S
Mg287 O307 2.031 . S
Mg288 O286 1.963 . S
Mg288 O292 1.986 . S
Mg288 O304 1.942 . S
Mg288 O305 1.955 . S
C289 O300 1.191 . S
C289 O302 1.307 . S
O290 Mg285 2.013 . S
O290 C309 1.191 . S
O291 Mg282 2.081 . S
O291 C299 1.331 . S
O292 Mg288 1.986 . S
O292 C309 1.307 . S
O293 Mg282 2.023 . S
O293 C308 1.264 . S
O294 Mg283 1.942 . S
O294 C299 1.244 . S
O295 Mg283 1.955 . S
O295 C308 1.273 . S
O296 Mg285 2.114 . S
O296 Mg287 2.291 . S
O296 C298 1.312 . S
O297 Mg282 2.031 . S
O297 C298 1.208 . S
C298 O296 1.312 . S
C298 O297 1.208 . S
C299 O291 1.331 . S
C299 O294 1.244 . S
O300 Mg285 2.013 . S
O300 C289 1.191 . S
O301 C280 1.331 . S
O301 Mg287 2.081 . S
O302 Mg283 1.986 . S
O302 C289 1.307 . S
O303 C281 1.264 . S
O303 Mg287 2.023 . S
O304 C280 1.244 . S
O304 Mg288 1.942 . S
O305 C281 1.273 . S
O305 Mg288 1.955 . S
O306 C279 1.312 . S
O306 Mg282 2.291 . S
O306 Mg285 2.114 . S
O307 C279 1.208 . S
O307 Mg287 2.031 . S
C308 O293 1.264 . S
C308 O295 1.273 . S
C309 O290 1.191 . S
C309 O292 1.307 . S
C310 O337 1.312 . S
C310 O338 1.208 . S
C311 O332 1.331 . S
C311 O335 1.244 . S
C312 O334 1.264 . S
C312 O336 1.273 . S
Mg313 O315 1.936 . S
Mg313 O322 2.081 . S
Mg313 O324 2.023 . S
Mg313 O328 2.031 . S
Mg313 O337 2.291 . S
Mg314 O315 1.963 . S
Mg314 O325 1.942 . S
Mg314 O326 1.955 . S
Mg314 O333 1.986 . S
O315 Mg313 1.936 . S
O315 Mg314 1.963 . S
O315 Mg316 1.915 . S
Mg316 O315 1.915 . S
Mg316 O317 1.915 . S
Mg316 O321 2.013 . S
Mg316 O327 2.114 . S
Mg316 O331 2.013 . S
Mg316 O337 2.114 . S
O317 Mg316 1.915 . S
O317 Mg318 1.936 . S
O317 Mg319 1.963 . S
Mg318 O317 1.936 . S
Mg318 O327 2.291 . S
Mg318 O332 2.081 . S
Mg318 O334 2.023 . S
Mg318 O338 2.031 . S
Mg319 O317 1.963 . S
Mg319 O323 1.986 . S
Mg319 O335 1.942 . S
Mg319 O336 1.955 . S
C320 O331 1.191 . S
C320 O333 1.307 . S
O321 Mg316 2.013 . S
O321 C340 1.191 . S
O322 Mg313 2.081 . S
O322 C330 1.331 . S
O323 Mg319 1.986 . S
O323 C340 1.307 . S
O324 Mg313 2.023 . S
O324 C339 1.264 . S
O325 Mg314 1.942 . S
O325 C330 1.244 . S
O326 Mg314 1.955 . S
O326 C339 1.273 . S
O327 Mg316 2.114 . S
O327 Mg318 2.291 . S
O327 C329 1.312 . S
O328 Mg313 2.031 . S
O328 C329 1.208 . S
C329 O327 1.312 . S
C329 O328 1.208 . S
C330 O322 1.331 . S
C330 O325 1.244 . S
O331 Mg316 2.013 . S
O331 C320 1.191 . S
O332 C311 1.331 . S
O332 Mg318 2.081 . S
O333 Mg314 1.986 . S
O333 C320 1.307 . S
O334 C312 1.264 . S
O334 Mg318 2.023 . S
O335 C311 1.244 . S
O335 Mg319 1.942 . S
O336 C312 1.273 . S
O336 Mg319 1.955 . S
O337 C310 1.312 . S
O337 Mg313 2.291 . S
O337 Mg316 2.114 . S
O338 C310 1.208 . S
O338 Mg318 2.031 . S
C339 O324 1.264 . S
C339 O326 1.273 . S
C340 O321 1.191 . S
C340 O323 1.307 . S
C341 O368 1.312 . S
C341 O369 1.208 . S
C342 O363 1.331 . S
C342 O366 1.244 . S
C343 O365 1.264 . S
C343 O367 1.273 . S
Mg344 O346 1.936 . S
Mg344 O353 2.081 . S
Mg344 O355 2.023 . S
Mg344 O359 2.031 . S
Mg344 O368 2.291 . S
Mg345 O346 1.963 . S
Mg345 O356 1.942 . S
Mg345 O357 1.955 . S
Mg345 O364 1.986 . S
O346 Mg344 1.936 . S
O346 Mg345 1.963 . S
O346 Mg347 1.915 . S
Mg347 O346 1.915 . S
Mg347 O348 1.915 . S
Mg347 O352 2.013 . S
Mg347 O358 2.114 . S
Mg347 O362 2.013 . S
Mg347 O368 2.114 . S
O348 Mg347 1.915 . S
O348 Mg349 1.936 . S
O348 Mg350 1.963 . S
Mg349 O348 1.936 . S
Mg349 O358 2.291 . S
Mg349 O363 2.081 . S
Mg349 O365 2.023 . S
Mg349 O369 2.031 . S
Mg350 O348 1.963 . S
Mg350 O354 1.986 . S
Mg350 O366 1.942 . S
Mg350 O367 1.955 . S
C351 O362 1.191 . S
C351 O364 1.307 . S
O352 Mg347 2.013 . S
O352 C371 1.191 . S
O353 Mg344 2.081 . S
O353 C361 1.331 . S
O354 Mg350 1.986 . S
O354 C371 1.307 . S
O355 Mg344 2.023 . S
O355 C370 1.264 . S
O356 Mg345 1.942 . S
O356 C361 1.244 . S
O357 Mg345 1.955 . S
O357 C370 1.273 . S
O358 Mg347 2.114 . S
O358 Mg349 2.291 . S
O358 C360 1.312 . S
O359 Mg344 2.031 . S
O359 C360 1.208 . S
C360 O358 1.312 . S
C360 O359 1.208 . S
C361 O353 1.331 . S
C361 O356 1.244 . S
O362 Mg347 2.013 . S
O362 C351 1.191 . S
O363 C342 1.331 . S
O363 Mg349 2.081 . S
O364 Mg345 1.986 . S
O364 C351 1.307 . S
O365 C343 1.264 . S
O365 Mg349 2.023 . S
O366 C342 1.244 . S
O366 Mg350 1.942 . S
O367 C343 1.273 . S
O367 Mg350 1.955 . S
O368 C341 1.312 . S
O368 Mg344 2.291 . S
O368 Mg347 2.114 . S
O369 C341 1.208 . S
O369 Mg349 2.031 . S
C370 O355 1.264 . S
C370 O357 1.273 . S
C371 O352 1.191 . S
C371 O354 1.307 . S
C372 C373 1.369 . S
C372 C374 1.419 . S
C372 H376 0.930 . S
C373 C372 1.369 . S
C373 C382 1.429 . S
C374 C372 1.419 . S
C374 C375 1.363 . S
C374 H377 0.929 . S
C375 C374 1.363 . S
C375 C381 1.428 . S
H376 C372 0.930 . S
H377 C374 0.929 . S
S378 N379 1.613 1_556 S
S378 N380 1.610 . S
N379 S378 1.613 1_554 S
N379 C382 1.350 . S
N380 S378 1.610 . S
N380 C381 1.351 1_556 S
C381 C375 1.428 . S
C381 N380 1.351 1_554 S
C381 C382 1.434 . S
C382 C373 1.429 . S
C382 N379 1.350 . S
C382 C381 1.434 . S
C383 C384 1.369 . S
C383 C385 1.419 . S
C383 H387 0.930 . S
C384 C383 1.369 . S
C384 C393 1.429 . S
C385 C383 1.419 . S
C385 C386 1.363 . S
C385 H388 0.929 . S
C386 C385 1.363 . S
C386 C392 1.428 . S
H387 C383 0.930 . S
H388 C385 0.929 . S
S389 N390 1.613 . S
S389 N391 1.610 . S
N390 S389 1.613 . S
N390 C393 1.350 . S
N391 S389 1.610 . S
N391 C392 1.351 . S
C392 C386 1.428 . S
C392 N391 1.351 . S
C392 C393 1.434 . S
C393 C384 1.429 . S
C393 N390 1.350 . S
C393 C392 1.434 . S
C394 C395 1.369 . S
C394 C396 1.419 . S
C394 H398 0.930 . S
C395 C394 1.369 . S
C395 C404 1.429 . S
C396 C394 1.419 . S
C396 C397 1.363 . S
C396 H399 0.929 . S
C397 C396 1.363 . S
C397 C403 1.428 . S
H398 C394 0.930 . S
H399 C396 0.929 . S
S400 N401 1.613 . S
S400 N402 1.610 . S
N401 S400 1.613 . S
N401 C404 1.350 . S
N402 S400 1.610 . S
N402 C403 1.351 . S
C403 C397 1.428 . S
C403 N402 1.351 . S
C403 C404 1.434 . S
C404 C395 1.429 . S
C404 N401 1.350 . S
C404 C403 1.434 . S
C405 C406 1.369 . S
C405 C407 1.419 . S
C405 H409 0.930 . S
C406 C405 1.369 . S
C406 C415 1.429 . S
C407 C405 1.419 . S
C407 C408 1.363 . S
C407 H410 0.929 . S
C408 C407 1.363 . S
C408 C414 1.428 . S
H409 C405 0.930 . S
H410 C407 0.929 . S
S411 N412 1.613 . S
S411 N413 1.610 . S
N412 S411 1.613 . S
N412 C415 1.350 . S
N413 S411 1.610 . S
N413 C414 1.351 . S
C414 C408 1.428 . S
C414 N413 1.351 . S
C414 C415 1.434 . S
C415 C406 1.429 . S
C415 N412 1.350 . S
C415 C414 1.434 . S
C416 C417 1.369 . S
C416 C418 1.419 . S
C416 H420 0.930 . S
C417 C416 1.369 . S
C417 C426 1.429 . S
C418 C416 1.419 . S
C418 C419 1.363 . S
C418 H421 0.929 . S
C419 C418 1.363 . S
C419 C425 1.428 . S
H420 C416 0.930 . S
H421 C418 0.929 . S
S422 N423 1.613 . S
S422 N424 1.610 . S
N423 S422 1.613 . S
N423 C426 1.350 . S
N424 S422 1.610 . S
N424 C425 1.351 . S
C425 C419 1.428 . S
C425 N424 1.351 . S
C425 C426 1.434 . S
C426 C417 1.429 . S
C426 N423 1.350 . S
C426 C425 1.434 . S
C427 C428 1.369 . S
C427 C429 1.419 . S
C427 H431 0.930 . S
C428 C427 1.369 . S
C428 C437 1.429 . S
C429 C427 1.419 . S
C429 C430 1.363 . S
C429 H432 0.929 . S
C430 C429 1.363 . S
C430 C436 1.428 . S
H431 C427 0.930 . S
H432 C429 0.929 . S
S433 N434 1.613 . S
S433 N435 1.610 . S
N434 S433 1.613 . S
N434 C437 1.350 . S
N435 S433 1.610 . S
N435 C436 1.351 . S
C436 C430 1.428 . S
C436 N435 1.351 . S
C436 C437 1.434 . S
C437 C428 1.429 . S
C437 N434 1.350 . S
C437 C436 1.434 . S
C438 C439 1.369 . S
C438 C440 1.419 . S
C438 H442 0.930 . S
C439 C438 1.369 . S
C439 C448 1.429 . S
C440 C438 1.419 . S
C440 C441 1.363 . S
C440 H443 0.929 . S
C441 C440 1.363 . S
C441 C447 1.428 . S
H442 C438 0.930 . S
H443 C440 0.929 . S
S444 N445 1.613 1_554 S
S444 N446 1.610 1_554 S
N445 S444 1.613 1_556 S
N445 C448 1.350 . S
N446 S444 1.610 1_556 S
N446 C447 1.351 . S
C447 C441 1.428 . S
C447 N446 1.351 . S
C447 C448 1.434 . S
C448 C439 1.429 . S
C448 N445 1.350 . S
C448 C447 1.434 . S
C449 C450 1.369 . S
C449 C451 1.419 . S
C449 H453 0.930 . S
C450 C449 1.369 . S
C450 C459 1.429 . S
C451 C449 1.419 . S
C451 C452 1.363 . S
C451 H454 0.929 . S
C452 C451 1.363 . S
C452 C458 1.428 . S
H453 C449 0.930 . S
H454 C451 0.929 . S
S455 N456 1.613 . S
S455 N457 1.610 . S
N456 S455 1.613 . S
N456 C459 1.350 . S
N457 S455 1.610 . S
N457 C458 1.351 . S
C458 C452 1.428 . S
C458 N457 1.351 . S
C458 C459 1.434 . S
C459 C450 1.429 . S
C459 N456 1.350 . S
C459 C458 1.434 . S
C460 C461 1.369 . S
C460 C462 1.419 . S
C460 H464 0.930 . S
C461 C460 1.369 . S
C461 C470 1.429 . S
C462 C460 1.419 . S
C462 C463 1.363 . S
C462 H465 0.929 . S
C463 C462 1.363 . S
C463 C469 1.428 . S
H464 C460 0.930 . S
H465 C462 0.929 . S
S466 N467 1.613 . S
S466 N468 1.610 . S
N467 S466 1.613 . S
N467 C470 1.350 . S
N468 S466 1.610 . S
N468 C469 1.351 . S
C469 C463 1.428 . S
C469 N468 1.351 . S
C469 C470 1.434 . S
C470 C461 1.429 . S
C470 N467 1.350 . S
C470 C469 1.434 . S
C471 C472 1.369 . S
C471 C473 1.419 . S
C471 H475 0.930 . S
C472 C471 1.369 . S
C472 C481 1.429 . S
C473 C471 1.419 . S
C473 C474 1.363 . S
C473 H476 0.929 . S
C474 C473 1.363 . S
C474 C480 1.428 . S
H475 C471 0.930 . S
H476 C473 0.929 . S
S477 N478 1.613 . S
S477 N479 1.610 . S
N478 S477 1.613 . S
N478 C481 1.350 . S
N479 S477 1.610 . S
N479 C480 1.351 . S
C480 C474 1.428 . S
C480 N479 1.351 . S
C480 C481 1.434 . S
C481 C472 1.429 . S
C481 N478 1.350 . S
C481 C480 1.434 . S
C482 C483 1.369 . S
C482 C484 1.419 . S
C482 H486 0.930 . S
C483 C482 1.369 . S
C483 C492 1.429 . S
C484 C482 1.419 . S
C484 C485 1.363 . S
C484 H487 0.929 . S
C485 C484 1.363 . S
C485 C491 1.428 . S
H486 C482 0.930 . S
H487 C484 0.929 . S
S488 N489 1.613 . S
S488 N490 1.610 . S
N489 S488 1.613 . S
N489 C492 1.350 . S
N490 S488 1.610 . S
N490 C491 1.351 . S
C491 C485 1.428 . S
C491 N490 1.351 . S
C491 C492 1.434 . S
C492 C483 1.429 . S
C492 N489 1.350 . S
C492 C491 1.434 . S
C493 C494 1.369 . S
C493 C495 1.419 . S
C493 H497 0.930 . S
C494 C493 1.369 . S
C494 C503 1.429 . S
C495 C493 1.419 . S
C495 C496 1.363 . S
C495 H498 0.929 . S
C496 C495 1.363 . S
C496 C502 1.428 . S
H497 C493 0.930 . S
H498 C495 0.929 . S
S499 N500 1.613 . S
S499 N501 1.610 . S
N500 S499 1.613 . S
N500 C503 1.350 . S
N501 S499 1.610 . S
N501 C502 1.351 . S
C502 C496 1.428 . S
C502 N501 1.351 . S
C502 C503 1.434 . S
C503 C494 1.429 . S
C503 N500 1.350 . S
C503 C502 1.434 . S
C504 C505 1.369 . S
C504 C506 1.419 1_556 S
C504 H508 0.930 . S
C505 C504 1.369 . S
C505 C514 1.429 . S
C506 C504 1.419 1_554 S
C506 C507 1.363 . S
C506 H509 0.929 . S
C507 C506 1.363 . S
C507 C513 1.428 . S
H508 C504 0.930 . S
H509 C506 0.929 . S
S510 N511 1.613 . S
S510 N512 1.610 1_556 S
N511 S510 1.613 . S
N511 C514 1.350 . S
N512 S510 1.610 1_554 S
N512 C513 1.351 . S
C513 C507 1.428 . S
C513 N512 1.351 . S
C513 C514 1.434 1_554 S
C514 C505 1.429 . S
C514 N511 1.350 . S
C514 C513 1.434 1_556 S
C515 C516 1.369 . S
C515 C517 1.419 1_554 S
C515 H519 0.930 . S
C516 C515 1.369 . S
C516 C525 1.429 1_545 S
C517 C515 1.419 1_556 S
C517 C518 1.363 1_545 S
C517 H520 0.929 . S
C518 C517 1.363 1_565 S
C518 C524 1.428 . S
H519 C515 0.930 . S
H520 C517 0.929 . S
S521 N522 1.613 1_556 S
S521 N523 1.610 . S
N522 S521 1.613 1_554 S
N522 C525 1.350 . S
N523 S521 1.610 . S
N523 C524 1.351 . S
C524 C518 1.428 . S
C524 N523 1.351 . S
C524 C525 1.434 1_556 S
C525 C516 1.429 1_565 S
C525 N522 1.350 . S
C525 C524 1.434 1_554 S
C526 C527 1.369 1_455 S
C526 C528 1.419 1_554 S
C526 H530 0.930 . S
C527 C526 1.369 1_655 S
C527 C536 1.429 . S
C528 C526 1.419 1_556 S
C528 C529 1.363 . S
C528 H531 0.929 . S
C529 C528 1.363 . S
C529 C535 1.428 1_455 S
H530 C526 0.930 . S
H531 C528 0.929 . S
S532 N533 1.613 . S
S532 N534 1.610 1_554 S
N533 S532 1.613 . S
N533 C536 1.350 . S
N534 S532 1.610 1_556 S
N534 C535 1.351 . S
C535 C529 1.428 1_655 S
C535 N534 1.351 . S
C535 C536 1.434 1_556 S
C536 C527 1.429 . S
C536 N533 1.350 . S
C536 C535 1.434 1_554 S
C537 C538 1.369 . S
C537 C539 1.419 . S
C537 H541 0.930 . S
C538 C537 1.369 . S
C538 C547 1.429 . S
C539 C537 1.419 . S
C539 C540 1.363 . S
C539 H542 0.929 . S
C540 C539 1.363 . S
C540 C546 1.428 . S
H541 C537 0.930 . S
H542 C539 0.929 . S
S543 N544 1.613 . S
S543 N545 1.610 . S
N544 S543 1.613 . S
N544 C547 1.350 . S
N545 S543 1.610 . S
N545 C546 1.351 . S
C546 C540 1.428 . S
C546 N545 1.351 . S
C546 C547 1.434 . S
C547 C538 1.429 . S
C547 N544 1.350 . S
C547 C546 1.434 . S
C548 C549 1.369 1_545 S
C548 C550 1.419 . S
C548 H552 0.930 . S
C549 C548 1.369 1_565 S
C549 C558 1.429 . S
C550 C548 1.419 . S
C550 C551 1.363 . S
C550 H553 0.929 . S
C551 C550 1.363 . S
C551 C557 1.428 1_545 S
H552 C548 0.930 . S
H553 C550 0.929 . S
S554 N555 1.613 . S
S554 N556 1.610 . S
N555 S554 1.613 . S
N555 C558 1.350 . S
N556 S554 1.610 . S
N556 C557 1.351 . S
C557 C551 1.428 1_565 S
C557 N556 1.351 . S
C557 C558 1.434 . S
C558 C549 1.429 . S
C558 N555 1.350 . S
C558 C557 1.434 . S
C559 C560 1.369 1_455 S
C559 C561 1.419 . S
C559 H563 0.930 . S
C560 C559 1.369 1_655 S
C560 C569 1.429 . S
C561 C559 1.419 . S
C561 C562 1.363 . S
C561 H564 0.929 . S
C562 C561 1.363 . S
C562 C568 1.428 1_455 S
H563 C559 0.930 . S
H564 C561 0.929 . S
S565 N566 1.613 . S
S565 N567 1.610 . S
N566 S565 1.613 . S
N566 C569 1.350 . S
N567 S565 1.610 . S
N567 C568 1.351 . S
C568 C562 1.428 1_655 S
C568 N567 1.351 . S
C568 C569 1.434 . S
C569 C560 1.429 . S
C569 N566 1.350 . S
C569 C568 1.434 . S
C570 C571 1.369 . S
C570 C572 1.419 . S
C570 H574 0.930 . S
C571 C570 1.369 . S
C571 C580 1.429 . S
C572 C570 1.419 . S
C572 C573 1.363 . S
C572 H575 0.929 . S
C573 C572 1.363 . S
C573 C579 1.428 . S
H574 C570 0.930 . S
H575 C572 0.929 . S
S576 N577 1.613 . S
S576 N578 1.610 . S
N577 S576 1.613 . S
N577 C580 1.350 . S
N578 S576 1.610 . S
N578 C579 1.351 . S
C579 C573 1.428 . S
C579 N578 1.351 . S
C579 C580 1.434 . S
C580 C571 1.429 . S
C580 N577 1.350 . S
C580 C579 1.434 . S
C581 C582 1.369 . S
C581 C583 1.419 . S
C581 H585 0.930 . S
C582 C581 1.369 . S
C582 C591 1.429 . S
C583 C581 1.419 . S
C583 C584 1.363 . S
C583 H586 0.929 . S
C584 C583 1.363 . S
C584 C590 1.428 . S
H585 C581 0.930 . S
H586 C583 0.929 . S
S587 N588 1.613 . S
S587 N589 1.610 . S
N588 S587 1.613 . S
N588 C591 1.350 . S
N589 S587 1.610 . S
N589 C590 1.351 . S
C590 C584 1.428 . S
C590 N589 1.351 . S
C590 C591 1.434 . S
C591 C582 1.429 . S
C591 N588 1.350 . S
C591 C590 1.434 . S
C592 C593 1.369 . S
C592 C594 1.419 . S
C592 H596 0.930 . S
C593 C592 1.369 . S
C593 C602 1.429 . S
C594 C592 1.419 . S
C594 C595 1.363 . S
C594 H597 0.929 . S
C595 C594 1.363 . S
C595 C601 1.428 . S
H596 C592 0.930 . S
H597 C594 0.929 . S
S598 N599 1.613 . S
S598 N600 1.610 . S
N599 S598 1.613 . S
N599 C602 1.350 . S
N600 S598 1.610 . S
N600 C601 1.351 . S
C601 C595 1.428 . S
C601 N600 1.351 . S
C601 C602 1.434 . S
C602 C593 1.429 . S
C602 N599 1.350 . S
C602 C601 1.434 . S
C603 C604 1.369 . S
C603 C605 1.419 . S
C603 H607 0.930 . S
C604 C603 1.369 . S
C604 C613 1.429 . S
C605 C603 1.419 . S
C605 C606 1.363 . S
C605 H608 0.929 . S
C606 C605 1.363 . S
C606 C612 1.428 . S
H607 C603 0.930 . S
H608 C605 0.929 . S
S609 N610 1.613 . S
S609 N611 1.610 . S
N610 S609 1.613 . S
N610 C613 1.350 . S
N611 S609 1.610 . S
N611 C612 1.351 . S
C612 C606 1.428 . S
C612 N611 1.351 . S
C612 C613 1.434 . S
C613 C604 1.429 . S
C613 N610 1.350 . S
C613 C612 1.434 . S
C614 C615 1.369 . S
C614 C616 1.419 . S
C614 H618 0.930 . S
C615 C614 1.369 . S
C615 C624 1.429 . S
C616 C614 1.419 . S
C616 C617 1.363 . S
C616 H619 0.929 . S
C617 C616 1.363 . S
C617 C623 1.428 . S
H618 C614 0.930 . S
H619 C616 0.929 . S
S620 N621 1.613 . S
S620 N622 1.610 . S
N621 S620 1.613 . S
N621 C624 1.350 . S
N622 S620 1.610 . S
N622 C623 1.351 . S
C623 C617 1.428 . S
C623 N622 1.351 . S
C623 C624 1.434 . S
C624 C615 1.429 . S
C624 N621 1.350 . S
C624 C623 1.434 . S
C625 C626 1.369 . S
C625 C627 1.419 . S
C625 H629 0.930 . S
C626 C625 1.369 . S
C626 C635 1.429 . S
C627 C625 1.419 . S
C627 C628 1.363 . S
C627 H630 0.929 . S
C628 C627 1.363 . S
C628 C634 1.428 . S
H629 C625 0.930 . S
H630 C627 0.929 . S
S631 N632 1.613 . S
S631 N633 1.610 . S
N632 S631 1.613 . S
N632 C635 1.350 . S
N633 S631 1.610 . S
N633 C634 1.351 . S
C634 C628 1.428 . S
C634 N633 1.351 . S
C634 C635 1.434 . S
C635 C626 1.429 . S
C635 N632 1.350 . S
C635 C634 1.434 . S
C636 C637 1.369 . S
C636 C638 1.419 . S
C636 H640 0.930 . S
C637 C636 1.369 . S
C637 C646 1.429 . S
C638 C636 1.419 . S
C638 C639 1.363 . S
C638 H641 0.929 . S
C639 C638 1.363 . S
C639 C645 1.428 . S
H640 C636 0.930 . S
H641 C638 0.929 . S
S642 N643 1.613 . S
S642 N644 1.610 . S
N643 S642 1.613 . S
N643 C646 1.350 . S
N644 S642 1.610 . S
N644 C645 1.351 . S
C645 C639 1.428 . S
C645 N644 1.351 . S
C645 C646 1.434 . S
C646 C637 1.429 . S
C646 N643 1.350 . S
C646 C645 1.434 . S
C647 C648 1.369 . S
C647 C649 1.419 . S
C647 H651 0.930 . S
C648 C647 1.369 . S
C648 C657 1.429 . S
C649 C647 1.419 . S
C649 C650 1.363 . S
C649 H652 0.929 . S
C650 C649 1.363 . S
C650 C656 1.428 . S
H651 C647 0.930 . S
H652 C649 0.929 . S
S653 N654 1.613 . S
S653 N655 1.610 . S
N654 S653 1.613 . S
N654 C657 1.350 . S
N655 S653 1.610 . S
N655 C656 1.351 . S
C656 C650 1.428 . S
C656 N655 1.351 . S
C656 C657 1.434 . S
C657 C648 1.429 . S
C657 N654 1.350 . S
C657 C656 1.434 . S
C658 C659 1.369 . S
C658 C660 1.419 . S
C658 H662 0.930 . S
C659 C658 1.369 . S
C659 C668 1.429 . S
C660 C658 1.419 . S
C660 C661 1.363 . S
C660 H663 0.929 . S
C661 C660 1.363 . S
C661 C667 1.428 . S
H662 C658 0.930 . S
H663 C660 0.929 . S
S664 N665 1.613 . S
S664 N666 1.610 . S
N665 S664 1.613 . S
N665 C668 1.350 . S
N666 S664 1.610 . S
N666 C667 1.351 . S
C667 C661 1.428 . S
C667 N666 1.351 . S
C667 C668 1.434 . S
C668 C659 1.429 . S
C668 N665 1.350 . S
C668 C667 1.434 . S
C669 C670 1.369 . S
C669 C671 1.419 . S
C669 H673 0.930 . S
C670 C669 1.369 . S
C670 C679 1.429 . S
C671 C669 1.419 . S
C671 C672 1.363 . S
C671 H674 0.929 . S
C672 C671 1.363 . S
C672 C678 1.428 . S
H673 C669 0.930 . S
H674 C671 0.929 . S
S675 N676 1.613 . S
S675 N677 1.610 . S
N676 S675 1.613 . S
N676 C679 1.350 . S
N677 S675 1.610 . S
N677 C678 1.351 . S
C678 C672 1.428 . S
C678 N677 1.351 . S
C678 C679 1.434 . S
C679 C670 1.429 . S
C679 N676 1.350 . S
C679 C678 1.434 . S
C680 C681 1.369 . S
C680 C682 1.419 . S
C680 H684 0.930 . S
C681 C680 1.369 . S
C681 C690 1.429 . S
C682 C680 1.419 . S
C682 C683 1.363 . S
C682 H685 0.929 . S
C683 C682 1.363 . S
C683 C689 1.428 . S
H684 C680 0.930 . S
H685 C682 0.929 . S
S686 N687 1.613 . S
S686 N688 1.610 . S
N687 S686 1.613 . S
N687 C690 1.350 . S
N688 S686 1.610 . S
N688 C689 1.351 . S
C689 C683 1.428 . S
C689 N688 1.351 . S
C689 C690 1.434 . S
C690 C681 1.429 . S
C690 N687 1.350 . S
C690 C689 1.434 . S
C691 C692 1.369 . S
C691 C693 1.419 . S
C691 H695 0.930 . S
C692 C691 1.369 . S
C692 C701 1.429 . S
C693 C691 1.419 . S
C693 C694 1.363 . S
C693 H696 0.929 . S
C694 C693 1.363 . S
C694 C700 1.428 . S
H695 C691 0.930 . S
H696 C693 0.929 . S
S697 N698 1.613 . S
S697 N699 1.610 . S
N698 S697 1.613 . S
N698 C701 1.350 . S
N699 S697 1.610 . S
N699 C700 1.351 . S
C700 C694 1.428 . S
C700 N699 1.351 . S
C700 C701 1.434 . S
C701 C692 1.429 . S
C701 N698 1.350 . S
C701 C700 1.434 . S
C702 C703 1.369 . S
C702 C704 1.419 . S
C702 H706 0.930 . S
C703 C702 1.369 . S
C703 C712 1.429 . S
C704 C702 1.419 . S
C704 C705 1.363 . S
C704 H707 0.929 . S
C705 C704 1.363 . S
C705 C711 1.428 . S
H706 C702 0.930 . S
H707 C704 0.929 . S
S708 N709 1.613 . S
S708 N710 1.610 . S
N709 S708 1.613 . S
N709 C712 1.350 . S
N710 S708 1.610 . S
N710 C711 1.351 . S
C711 C705 1.428 . S
C711 N710 1.351 . S
C711 C712 1.434 . S
C712 C703 1.429 . S
C712 N709 1.350 . S
C712 C711 1.434 . S
C713 C714 1.369 . S
C713 C715 1.419 . S
C713 H717 0.930 . S
C714 C713 1.369 . S
C714 C723 1.429 1_565 S
C715 C713 1.419 . S
C715 C716 1.363 1_565 S
C715 H718 0.929 . S
C716 C715 1.363 1_545 S
C716 C722 1.428 . S
H717 C713 0.930 . S
H718 C715 0.929 . S
S719 N720 1.613 . S
S719 N721 1.610 . S
N720 S719 1.613 . S
N720 C723 1.350 . S
N721 S719 1.610 . S
N721 C722 1.351 . S
C722 C716 1.428 . S
C722 N721 1.351 . S
C722 C723 1.434 . S
C723 C714 1.429 1_545 S
C723 N720 1.350 . S
C723 C722 1.434 . S
C724 C725 1.369 . S
C724 C726 1.419 1_455 S
C724 H728 0.930 . S
C725 C724 1.369 . S
C725 C734 1.429 . S
C726 C724 1.419 1_655 S
C726 C727 1.363 . S
C726 H729 0.929 . S
C727 C726 1.363 . S
C727 C733 1.428 . S
H728 C724 0.930 . S
H729 C726 0.929 . S
S730 N731 1.613 1_655 S
S730 N732 1.610 . S
N731 S730 1.613 1_455 S
N731 C734 1.350 . S
N732 S730 1.610 . S
N732 C733 1.351 . S
C733 C727 1.428 . S
C733 N732 1.351 . S
C733 C734 1.434 1_655 S
C734 C725 1.429 . S
C734 N731 1.350 . S
C734 C733 1.434 1_455 S
C735 C736 1.369 . S
C735 C737 1.419 . S
C735 H739 0.930 . S
C736 C735 1.369 . S
C736 C745 1.429 . S
C737 C735 1.419 . S
C737 C738 1.363 . S
C737 H740 0.929 . S
C738 C737 1.363 . S
C738 C744 1.428 . S
H739 C735 0.930 . S
H740 C737 0.929 . S
S741 N742 1.613 . S
S741 N743 1.610 . S
N742 S741 1.613 . S
N742 C745 1.350 . S
N743 S741 1.610 . S
N743 C744 1.351 . S
C744 C738 1.428 . S
C744 N743 1.351 . S
C744 C745 1.434 . S
C745 C736 1.429 . S
C745 N742 1.350 . S
C745 C744 1.434 . S
C746 C747 1.369 1_545 S
C746 C748 1.419 . S
C746 H750 0.930 . S
C747 C746 1.369 1_565 S
C747 C756 1.429 . S
C748 C746 1.419 . S
C748 C749 1.363 . S
C748 H751 0.929 . S
C749 C748 1.363 . S
C749 C755 1.428 1_545 S
H750 C746 0.930 . S
H751 C748 0.929 . S
S752 N753 1.613 . S
S752 N754 1.610 . S
N753 S752 1.613 . S
N753 C756 1.350 . S
N754 S752 1.610 . S
N754 C755 1.351 . S
C755 C749 1.428 1_565 S
C755 N754 1.351 . S
C755 C756 1.434 . S
C756 C747 1.429 . S
C756 N753 1.350 . S
C756 C755 1.434 . S
C757 C758 1.369 . S
C757 C759 1.419 1_655 S
C757 H761 0.930 . S
C758 C757 1.369 . S
C758 C767 1.429 . S
C759 C757 1.419 1_455 S
C759 C760 1.363 . S
C759 H762 0.929 . S
C760 C759 1.363 . S
C760 C766 1.428 . S
H761 C757 0.930 . S
H762 C759 0.929 . S
S763 N764 1.613 1_455 S
S763 N765 1.610 . S
N764 S763 1.613 1_655 S
N764 C767 1.350 . S
N765 S763 1.610 . S
N765 C766 1.351 . S
C766 C760 1.428 . S
C766 N765 1.351 . S
C766 C767 1.434 1_455 S
C767 C758 1.429 . S
C767 N764 1.350 . S
C767 C766 1.434 1_655 S
C768 C769 1.369 . S
C768 C770 1.419 . S
C768 H772 0.930 . S
C769 C768 1.369 . S
C769 C778 1.429 . S
C770 C768 1.419 . S
C770 C771 1.363 . S
C770 H773 0.929 . S
C771 C770 1.363 . S
C771 C777 1.428 . S
H772 C768 0.930 . S
H773 C770 0.929 . S
S774 N775 1.613 . S
S774 N776 1.610 . S
N775 S774 1.613 . S
N775 C778 1.350 . S
N776 S774 1.610 . S
N776 C777 1.351 . S
C777 C771 1.428 . S
C777 N776 1.351 . S
C777 C778 1.434 . S
C778 C769 1.429 . S
C778 N775 1.350 . S
C778 C777 1.434 . S
C779 C780 1.369 . S
C779 C781 1.419 . S
C779 H783 0.930 . S
C780 C779 1.369 . S
C780 C789 1.429 . S
C781 C779 1.419 . S
C781 C782 1.363 . S
C781 H784 0.929 . S
C782 C781 1.363 . S
C782 C788 1.428 . S
H783 C779 0.930 . S
H784 C781 0.929 . S
S785 N786 1.613 . S
S785 N787 1.610 . S
N786 S785 1.613 . S
N786 C789 1.350 . S
N787 S785 1.610 . S
N787 C788 1.351 . S
C788 C782 1.428 . S
C788 N787 1.351 . S
C788 C789 1.434 . S
C789 C780 1.429 . S
C789 N786 1.350 . S
C789 C788 1.434 . S
C790 C791 1.369 . S
C790 C792 1.419 . S
C790 H794 0.930 1_556 S
C791 C790 1.369 . S
C791 C800 1.429 . S
C792 C790 1.419 . S
C792 C793 1.363 . S
C792 H795 0.929 . S
C793 C792 1.363 . S
C793 C799 1.428 . S
H794 C790 0.930 1_554 S
H795 C792 0.929 . S
S796 N797 1.613 . S
S796 N798 1.610 . S
N797 S796 1.613 . S
N797 C800 1.350 . S
N798 S796 1.610 . S
N798 C799 1.351 . S
C799 C793 1.428 . S
C799 N798 1.351 . S
C799 C800 1.434 . S
C800 C791 1.429 . S
C800 N797 1.350 . S
C800 C799 1.434 . S
C801 C802 1.369 . S
C801 C803 1.419 . S
C801 H805 0.930 . S
C802 C801 1.369 . S
C802 C811 1.429 . S
C803 C801 1.419 . S
C803 C804 1.363 . S
C803 H806 0.929 . S
C804 C803 1.363 . S
C804 C810 1.428 . S
H805 C801 0.930 . S
H806 C803 0.929 . S
S807 N808 1.613 . S
S807 N809 1.610 . S
N808 S807 1.613 . S
N808 C811 1.350 . S
N809 S807 1.610 . S
N809 C810 1.351 . S
C810 C804 1.428 . S
C810 N809 1.351 . S
C810 C811 1.434 . S
C811 C802 1.429 . S
C811 N808 1.350 . S
C811 C810 1.434 . S
C812 C813 1.369 . S
C812 C814 1.419 . S
C812 H816 0.930 . S
C813 C812 1.369 . S
C813 C822 1.429 . S
C814 C812 1.419 . S
C814 C815 1.363 . S
C814 H817 0.929 . S
C815 C814 1.363 . S
C815 C821 1.428 . S
H816 C812 0.930 . S
H817 C814 0.929 . S
S818 N819 1.613 . S
S818 N820 1.610 . S
N819 S818 1.613 . S
N819 C822 1.350 . S
N820 S818 1.610 . S
N820 C821 1.351 . S
C821 C815 1.428 . S
C821 N820 1.351 . S
C821 C822 1.434 . S
C822 C813 1.429 . S
C822 N819 1.350 . S
C822 C821 1.434 . S
C823 C824 1.369 . S
C823 C825 1.419 . S
C823 H827 0.930 . S
C824 C823 1.369 . S
C824 C833 1.429 . S
C825 C823 1.419 . S
C825 C826 1.363 . S
C825 H828 0.929 . S
C826 C825 1.363 . S
C826 C832 1.428 . S
H827 C823 0.930 . S
H828 C825 0.929 . S
S829 N830 1.613 . S
S829 N831 1.610 . S
N830 S829 1.613 . S
N830 C833 1.350 . S
N831 S829 1.610 . S
N831 C832 1.351 . S
C832 C826 1.428 . S
C832 N831 1.351 . S
C832 C833 1.434 . S
C833 C824 1.429 . S
C833 N830 1.350 . S
C833 C832 1.434 . S
C834 C835 1.369 . S
C834 C836 1.419 . S
C834 H838 0.930 . S
C835 C834 1.369 . S
C835 C844 1.429 . S
C836 C834 1.419 . S
C836 C837 1.363 . S
C836 H839 0.929 . S
C837 C836 1.363 . S
C837 C843 1.428 . S
H838 C834 0.930 . S
H839 C836 0.929 . S
S840 N841 1.613 . S
S840 N842 1.610 1_556 S
N841 S840 1.613 . S
N841 C844 1.350 1_556 S
N842 S840 1.610 1_554 S
N842 C843 1.351 . S
C843 C837 1.428 . S
C843 N842 1.351 . S
C843 C844 1.434 . S
C844 C835 1.429 . S
C844 N841 1.350 1_554 S
C844 C843 1.434 . S
C845 C846 1.369 . S
C845 C847 1.419 . S
C845 H849 0.930 . S
C846 C845 1.369 . S
C846 C855 1.429 . S
C847 C845 1.419 . S
C847 C848 1.363 . S
C847 H850 0.929 . S
C848 C847 1.363 . S
C848 C854 1.428 . S
H849 C845 0.930 . S
H850 C847 0.929 . S
S851 N852 1.613 1_554 S
S851 N853 1.610 . S
N852 S851 1.613 1_556 S
N852 C855 1.350 1_556 S
N853 S851 1.610 . S
N853 C854 1.351 . S
C854 C848 1.428 . S
C854 N853 1.351 . S
C854 C855 1.434 . S
C855 C846 1.429 . S
C855 N852 1.350 1_554 S
C855 C854 1.434 . S
C856 C857 1.369 . S
C856 C858 1.419 . S
C856 H860 0.930 . S
C857 C856 1.369 . S
C857 C866 1.429 . S
C858 C856 1.419 . S
C858 C859 1.363 . S
C858 H861 0.929 . S
C859 C858 1.363 . S
C859 C865 1.428 . S
H860 C856 0.930 . S
H861 C858 0.929 . S
S862 N863 1.613 . S
S862 N864 1.610 . S
N863 S862 1.613 . S
N863 C866 1.350 . S
N864 S862 1.610 . S
N864 C865 1.351 . S
C865 C859 1.428 . S
C865 N864 1.351 . S
C865 C866 1.434 . S
C866 C857 1.429 . S
C866 N863 1.350 . S
C866 C865 1.434 . S
C867 C868 1.369 . S
C867 C869 1.419 . S
C867 H871 0.930 . S
C868 C867 1.369 . S
C868 C877 1.429 . S
C869 C867 1.419 . S
C869 C870 1.363 . S
C869 H872 0.929 . S
C870 C869 1.363 . S
C870 C876 1.428 . S
H871 C867 0.930 . S
H872 C869 0.929 . S
S873 N874 1.613 . S
S873 N875 1.610 . S
N874 S873 1.613 . S
N874 C877 1.350 . S
N875 S873 1.610 . S
N875 C876 1.351 . S
C876 C870 1.428 . S
C876 N875 1.351 . S
C876 C877 1.434 . S
C877 C868 1.429 . S
C877 N874 1.350 . S
C877 C876 1.434 . S
C878 C879 1.369 . S
C878 C880 1.419 . S
C878 H882 0.930 . S
C879 C878 1.369 . S
C879 C888 1.429 . S
C880 C878 1.419 . S
C880 C881 1.363 . S
C880 H883 0.929 . S
C881 C880 1.363 . S
C881 C887 1.428 . S
H882 C878 0.930 . S
H883 C880 0.929 . S
S884 N885 1.613 . S
S884 N886 1.610 . S
N885 S884 1.613 . S
N885 C888 1.350 . S
N886 S884 1.610 . S
N886 C887 1.351 . S
C887 C881 1.428 . S
C887 N886 1.351 . S
C887 C888 1.434 . S
C888 C879 1.429 . S
C888 N885 1.350 . S
C888 C887 1.434 . S
C889 C890 1.369 . S
C889 C891 1.419 . S
C889 H893 0.930 . S
C890 C889 1.369 . S
C890 C899 1.429 . S
C891 C889 1.419 . S
C891 C892 1.363 . S
C891 H894 0.929 . S
C892 C891 1.363 . S
C892 C898 1.428 . S
H893 C889 0.930 . S
H894 C891 0.929 . S
S895 N896 1.613 . S
S895 N897 1.610 . S
N896 S895 1.613 . S
N896 C899 1.350 . S
N897 S895 1.610 . S
N897 C898 1.351 . S
C898 C892 1.428 . S
C898 N897 1.351 . S
C898 C899 1.434 . S
C899 C890 1.429 . S
C899 N896 1.350 . S
C899 C898 1.434 . S
C373 C29 1.806 . S
C375 C61 1.555 . S
C384 C72 1.561 . S
C386 C60 1.803 . S
C395 C64 1.803 . S
C397 C30 1.559 . S
C406 C165 1.546 . S
C408 C122 1.807 . S
C417 C123 1.555 . S
C419 C126 1.806 . S
C428 C157 1.803 . S
C430 C134 1.554 . S
C439 C215 1.807 . S
C441 C227 1.553 . S
C450 C278 1.558 . S
C452 C219 1.803 . S
C461 C277 1.802 . S
C463 C216 1.559 . S
C472 C281 1.805 . S
C474 C351 1.552 . S
C483 C289 1.548 . S
C485 C312 1.808 . S
C494 C320 1.546 . S
C496 C343 1.808 . S
C505 C188 1.220 . S
C507 C2 1.201 . S
C516 C33 1.211 . S
C518 C246 1.208 . S
C527 C91 1.206 . S
C529 C250 1.212 . S
C538 C95 1.204 . S
C540 C308 1.213 . S
C549 C153 1.198 . S
C551 C339 1.218 . S
C560 C370 1.200 . S
C562 C184 1.216 . S
C571 C1 1.148 . S
C573 C309 1.144 . S
C582 C32 1.157 . S
C584 C340 1.146 . S
C593 C371 1.143 . S
C595 C82 1.149 . S
C604 C196 1.143 . S
C606 C94 1.149 . S
C615 C247 1.149 . S
C617 C144 1.155 . S
C626 C258 1.148 . S
C628 C175 1.149 . S
C637 C103 1.149 . S
C639 C187 1.149 . S
C648 C237 1.153 . S
C650 C154 1.140 . S
C659 C249 1.149 . S
C661 C185 1.149 . S
C670 C10 1.144 . S
C672 C299 1.149 . S
C681 C330 1.157 . S
C683 C41 1.146 . S
C692 C92 1.141 . S
C694 C361 1.150 . S
C703 C112 2.466 . S
C705 C19 2.469 . S
C714 C124 2.469 . S
C716 C50 2.466 . S
C725 C155 2.470 . S
C727 C62 2.467 . S
C736 C205 2.468 . S
C738 C279 2.469 . S
C747 C217 2.466 . S
C749 C310 2.469 . S
C758 C341 2.468 . S
C760 C267 2.468 . S
C769 C311 1.428 . S
C771 C0 1.651 1_556 S
C780 C31 1.649 1_556 S
C782 C342 1.438 . S
C791 C81 1.648 1_556 S
C793 C280 1.431 . S
C802 C93 1.652 . S
C804 C268 1.434 . S
C813 C206 1.424 . S
C815 C143 1.649 . S
C824 C218 1.440 . S
C826 C174 1.649 . S
C835 C186 1.650 1_554 S
C837 C125 1.438 . S
C846 C236 1.651 1_554 S
C848 C156 1.435 . S
C857 C248 1.651 1_554 S
C859 C113 1.426 . S
C868 C63 1.424 . S
C870 C298 1.650 . S
C879 C20 1.428 . S
C881 C329 1.649 . S
C890 C51 1.425 . S
C892 C360 1.651 . S
