# Generated by pormake.
# Topology uoh, (4)-cn, num edge types: 1
# Building blocks:
#     Node 0, Type 0, BuildingBlock: QUQFOY_clean_sbu_3, # of connection points: 4
#     Node 1, Type 0, BuildingBlock: QUQFOY_clean_sbu_3, # of connection points: 4
#     Node 2, Type 0, BuildingBlock: QUQFOY_clean_sbu_3, # of connection points: 4
#     Node 3, Type 0, BuildingBlock: QUQFOY_clean_sbu_3, # of connection points: 4
#     Node 4, Type 0, BuildingBlock: QUQFOY_clean_sbu_3, # of connection points: 4
#     Node 5, Type 0, BuildingBlock: QUQFOY_clean_sbu_3, # of connection points: 4
#     Node 6, Type 0, BuildingBlock: QUQFOY_clean_sbu_3, # of connection points: 4
#     Node 7, Type 0, BuildingBlock: QUQFOY_clean_sbu_3, # of connection points: 4
#     Node 8, Type 0, BuildingBlock: QUQFOY_clean_sbu_3, # of connection points: 4
#     Node 9, Type 0, BuildingBlock: QUQFOY_clean_sbu_3, # of connection points: 4
#     Node 10, Type 0, BuildingBlock: QUQFOY_clean_sbu_3, # of connection points: 4
#     Node 11, Type 0, BuildingBlock: QUQFOY_clean_sbu_3, # of connection points: 4
#     Node 12, Type 0, BuildingBlock: QUQFOY_clean_sbu_3, # of connection points: 4
#     Node 13, Type 0, BuildingBlock: QUQFOY_clean_sbu_3, # of connection points: 4
#     Node 14, Type 0, BuildingBlock: QUQFOY_clean_sbu_3, # of connection points: 4
#     Node 15, Type 0, BuildingBlock: QUQFOY_clean_sbu_3, # of connection points: 4
#     Node 16, Type 0, BuildingBlock: QUQFOY_clean_sbu_3, # of connection points: 4
#     Node 17, Type 0, BuildingBlock: QUQFOY_clean_sbu_3, # of connection points: 4
#     Node 18, Type 0, BuildingBlock: QUQFOY_clean_sbu_3, # of connection points: 4
#     Node 19, Type 0, BuildingBlock: QUQFOY_clean_sbu_3, # of connection points: 4
#     Node 20, Type 0, BuildingBlock: QUQFOY_clean_sbu_3, # of connection points: 4
#     Node 21, Type 0, BuildingBlock: QUQFOY_clean_sbu_3, # of connection points: 4
#     Node 22, Type 0, BuildingBlock: QUQFOY_clean_sbu_3, # of connection points: 4
#     Node 23, Type 0, BuildingBlock: QUQFOY_clean_sbu_3, # of connection points: 4
#     Node 24, Type 0, BuildingBlock: QUQFOY_clean_sbu_3, # of connection points: 4
#     Node 25, Type 0, BuildingBlock: QUQFOY_clean_sbu_3, # of connection points: 4
#     Node 26, Type 0, BuildingBlock: QUQFOY_clean_sbu_3, # of connection points: 4
#     Node 27, Type 0, BuildingBlock: QUQFOY_clean_sbu_3, # of connection points: 4
#     Node 28, Type 0, BuildingBlock: QUQFOY_clean_sbu_3, # of connection points: 4
#     Node 29, Type 0, BuildingBlock: QUQFOY_clean_sbu_3, # of connection points: 4
#     Node 30, Type 0, BuildingBlock: QUQFOY_clean_sbu_3, # of connection points: 4
#     Node 31, Type 0, BuildingBlock: QUQFOY_clean_sbu_3, # of connection points: 4
#     Node 32, Type 0, BuildingBlock: QUQFOY_clean_sbu_3, # of connection points: 4
#     Node 33, Type 0, BuildingBlock: QUQFOY_clean_sbu_3, # of connection points: 4
#     Node 34, Type 0, BuildingBlock: QUQFOY_clean_sbu_3, # of connection points: 4
#     Node 35, Type 0, BuildingBlock: QUQFOY_clean_sbu_3, # of connection points: 4
#     Edge 36, Type (0, 0), BuildingBlock: XUDNAN_clean_linker_2, # of connection points: 2
#     Edge 37, Type (0, 0), BuildingBlock: XUDNAN_clean_linker_2, # of connection points: 2
#     Edge 38, Type (0, 0), BuildingBlock: XUDNAN_clean_linker_2, # of connection points: 2
#     Edge 39, Type (0, 0), BuildingBlock: XUDNAN_clean_linker_2, # of connection points: 2
#     Edge 40, Type (0, 0), BuildingBlock: XUDNAN_clean_linker_2, # of connection points: 2
#     Edge 41, Type (0, 0), BuildingBlock: XUDNAN_clean_linker_2, # of connection points: 2
#     Edge 42, Type (0, 0), BuildingBlock: XUDNAN_clean_linker_2, # of connection points: 2
#     Edge 43, Type (0, 0), BuildingBlock: XUDNAN_clean_linker_2, # of connection points: 2
#     Edge 44, Type (0, 0), BuildingBlock: XUDNAN_clean_linker_2, # of connection points: 2
#     Edge 45, Type (0, 0), BuildingBlock: XUDNAN_clean_linker_2, # of connection points: 2
#     Edge 46, Type (0, 0), BuildingBlock: XUDNAN_clean_linker_2, # of connection points: 2
#     Edge 47, Type (0, 0), BuildingBlock: XUDNAN_clean_linker_2, # of connection points: 2
#     Edge 48, Type (0, 0), BuildingBlock: XUDNAN_clean_linker_2, # of connection points: 2
#     Edge 49, Type (0, 0), BuildingBlock: XUDNAN_clean_linker_2, # of connection points: 2
#     Edge 50, Type (0, 0), BuildingBlock: XUDNAN_clean_linker_2, # of connection points: 2
#     Edge 51, Type (0, 0), BuildingBlock: XUDNAN_clean_linker_2, # of connection points: 2
#     Edge 52, Type (0, 0), BuildingBlock: XUDNAN_clean_linker_2, # of connection points: 2
#     Edge 53, Type (0, 0), BuildingBlock: XUDNAN_clean_linker_2, # of connection points: 2
#     Edge 54, Type (0, 0), BuildingBlock: XUDNAN_clean_linker_2, # of connection points: 2
#     Edge 55, Type (0, 0), BuildingBlock: XUDNAN_clean_linker_2, # of connection points: 2
#     Edge 56, Type (0, 0), BuildingBlock: XUDNAN_clean_linker_2, # of connection points: 2
#     Edge 57, Type (0, 0), BuildingBlock: XUDNAN_clean_linker_2, # of connection points: 2
#     Edge 58, Type (0, 0), BuildingBlock: XUDNAN_clean_linker_2, # of connection points: 2
#     Edge 59, Type (0, 0), BuildingBlock: XUDNAN_clean_linker_2, # of connection points: 2
#     Edge 60, Type (0, 0), BuildingBlock: XUDNAN_clean_linker_2, # of connection points: 2
#     Edge 61, Type (0, 0), BuildingBlock: XUDNAN_clean_linker_2, # of connection points: 2
#     Edge 62, Type (0, 0), BuildingBlock: XUDNAN_clean_linker_2, # of connection points: 2
#     Edge 63, Type (0, 0), BuildingBlock: XUDNAN_clean_linker_2, # of connection points: 2
#     Edge 64, Type (0, 0), BuildingBlock: XUDNAN_clean_linker_2, # of connection points: 2
#     Edge 65, Type (0, 0), BuildingBlock: XUDNAN_clean_linker_2, # of connection points: 2
#     Edge 66, Type (0, 0), BuildingBlock: XUDNAN_clean_linker_2, # of connection points: 2
#     Edge 67, Type (0, 0), BuildingBlock: XUDNAN_clean_linker_2, # of connection points: 2
#     Edge 68, Type (0, 0), BuildingBlock: XUDNAN_clean_linker_2, # of connection points: 2
#     Edge 69, Type (0, 0), BuildingBlock: XUDNAN_clean_linker_2, # of connection points: 2
#     Edge 70, Type (0, 0), BuildingBlock: XUDNAN_clean_linker_2, # of connection points: 2
#     Edge 71, Type (0, 0), BuildingBlock: XUDNAN_clean_linker_2, # of connection points: 2
#     Edge 72, Type (0, 0), BuildingBlock: XUDNAN_clean_linker_2, # of connection points: 2
#     Edge 73, Type (0, 0), BuildingBlock: XUDNAN_clean_linker_2, # of connection points: 2
#     Edge 74, Type (0, 0), BuildingBlock: XUDNAN_clean_linker_2, # of connection points: 2
#     Edge 75, Type (0, 0), BuildingBlock: XUDNAN_clean_linker_2, # of connection points: 2
#     Edge 76, Type (0, 0), BuildingBlock: XUDNAN_clean_linker_2, # of connection points: 2
#     Edge 77, Type (0, 0), BuildingBlock: XUDNAN_clean_linker_2, # of connection points: 2
#     Edge 78, Type (0, 0), BuildingBlock: XUDNAN_clean_linker_2, # of connection points: 2
#     Edge 79, Type (0, 0), BuildingBlock: XUDNAN_clean_linker_2, # of connection points: 2
#     Edge 80, Type (0, 0), BuildingBlock: XUDNAN_clean_linker_2, # of connection points: 2
#     Edge 81, Type (0, 0), BuildingBlock: XUDNAN_clean_linker_2, # of connection points: 2
#     Edge 82, Type (0, 0), BuildingBlock: XUDNAN_clean_linker_2, # of connection points: 2
#     Edge 83, Type (0, 0), BuildingBlock: XUDNAN_clean_linker_2, # of connection points: 2
#     Edge 84, Type (0, 0), BuildingBlock: XUDNAN_clean_linker_2, # of connection points: 2
#     Edge 85, Type (0, 0), BuildingBlock: XUDNAN_clean_linker_2, # of connection points: 2
#     Edge 86, Type (0, 0), BuildingBlock: XUDNAN_clean_linker_2, # of connection points: 2
#     Edge 87, Type (0, 0), BuildingBlock: XUDNAN_clean_linker_2, # of connection points: 2
#     Edge 88, Type (0, 0), BuildingBlock: XUDNAN_clean_linker_2, # of connection points: 2
#     Edge 89, Type (0, 0), BuildingBlock: XUDNAN_clean_linker_2, # of connection points: 2
#     Edge 90, Type (0, 0), BuildingBlock: XUDNAN_clean_linker_2, # of connection points: 2
#     Edge 91, Type (0, 0), BuildingBlock: XUDNAN_clean_linker_2, # of connection points: 2
#     Edge 92, Type (0, 0), BuildingBlock: XUDNAN_clean_linker_2, # of connection points: 2
#     Edge 93, Type (0, 0), BuildingBlock: XUDNAN_clean_linker_2, # of connection points: 2
#     Edge 94, Type (0, 0), BuildingBlock: XUDNAN_clean_linker_2, # of connection points: 2
#     Edge 95, Type (0, 0), BuildingBlock: XUDNAN_clean_linker_2, # of connection points: 2
#     Edge 96, Type (0, 0), BuildingBlock: XUDNAN_clean_linker_2, # of connection points: 2
#     Edge 97, Type (0, 0), BuildingBlock: XUDNAN_clean_linker_2, # of connection points: 2
#     Edge 98, Type (0, 0), BuildingBlock: XUDNAN_clean_linker_2, # of connection points: 2
#     Edge 99, Type (0, 0), BuildingBlock: XUDNAN_clean_linker_2, # of connection points: 2
#     Edge 100, Type (0, 0), BuildingBlock: XUDNAN_clean_linker_2, # of connection points: 2
#     Edge 101, Type (0, 0), BuildingBlock: XUDNAN_clean_linker_2, # of connection points: 2
#     Edge 102, Type (0, 0), BuildingBlock: XUDNAN_clean_linker_2, # of connection points: 2
#     Edge 103, Type (0, 0), BuildingBlock: XUDNAN_clean_linker_2, # of connection points: 2
#     Edge 104, Type (0, 0), BuildingBlock: XUDNAN_clean_linker_2, # of connection points: 2
#     Edge 105, Type (0, 0), BuildingBlock: XUDNAN_clean_linker_2, # of connection points: 2
#     Edge 106, Type (0, 0), BuildingBlock: XUDNAN_clean_linker_2, # of connection points: 2
#     Edge 107, Type (0, 0), BuildingBlock: XUDNAN_clean_linker_2, # of connection points: 2
# Relax obj value: 0.090
# Max RMSD: 0.144
# Mean RMSD: 0.144
data_MOF--net-uoh--node1-QUQFOY_clean_sbu_3--edge1-XUDNAN_clean_linker_2
_symmetry_space_group_name_H-M    P1
_symmetry_Int_Tables_number       1
_symmetry_cell_setting            triclinic
loop_
_symmetry_equiv_pos_as_xyz
'x, y, z'
_cell_length_a     91.057199
_cell_length_b     90.838749
_cell_length_c     28.370193
_cell_angle_alpha  90.065477
_cell_angle_beta   89.958738
_cell_angle_gamma 120.1849
loop_
_atom_site_label
_atom_site_type_symbol
_atom_site_fract_x
_atom_site_fract_y
_atom_site_fract_z
_atom_type_partial_charge
C0 C 0.22257 0.11804 0.15865 0.0
O1 O 0.22785 0.10977 0.18237 0.0
Cd2 Cd 0.24465 0.1204 0.25147 0.0
O3 O 0.22599 0.13292 0.17124 0.0
Cd4 Cd 0.24119 0.15327 0.23543 0.0
C5 C 0.27795 0.15527 0.19987 0.0
O6 O 0.22908 0.13105 0.29296 0.0
O7 O 0.24793 0.15557 0.32005 0.0
O8 O 0.21913 0.16079 0.22939 0.0
C9 C 0.23628 0.14042 0.32824 0.0
O10 O 0.27258 0.14083 0.21931 0.0
C11 C 0.22908 0.17671 0.23407 0.0
O12 O 0.26887 0.16229 0.19968 0.0
O13 O 0.24485 0.18183 0.23693 0.0
C14 C 0.88522 0.08832 0.1145 0.0
O15 O 0.89961 0.09978 0.12936 0.0
Cd16 Cd 0.90095 0.11834 0.19127 0.0
O17 O 0.87169 0.08551 0.13536 0.0
Cd18 Cd 0.8622 0.0937 0.20611 0.0
C19 C 0.87231 0.13055 0.15415 0.0
O20 O 0.88613 0.10137 0.25793 0.0
O21 O 0.87019 0.11209 0.27483 0.0
O22 O 0.84739 0.06437 0.23063 0.0
C23 C 0.8822 0.10957 0.28642 0.0
O24 O 0.8876 0.1345 0.16289 0.0
C25 C 0.83265 0.06253 0.23238 0.0
O26 O 0.86003 0.11569 0.1634 0.0
O27 O 0.83139 0.07548 0.22207 0.0
C28 C 0.8759 0.77174 0.17261 0.0
O29 O 0.86379 0.76951 0.19941 0.0
Cd30 Cd 0.86324 0.7598 0.27831 0.0
O31 O 0.88708 0.76823 0.18627 0.0
Cd32 Cd 0.89662 0.75767 0.25165 0.0
C33 C 0.85888 0.72056 0.25242 0.0
O34 O 0.89224 0.77624 0.30344 0.0
O35 O 0.90074 0.76052 0.33708 0.0
O36 O 0.92189 0.77784 0.21123 0.0
C37 C 0.89736 0.77243 0.34038 0.0
O38 O 0.85294 0.72961 0.26839 0.0
C39 C 0.93102 0.77146 0.22184 0.0
O40 O 0.87451 0.72738 0.24093 0.0
O41 O 0.9239 0.75763 0.24516 0.0
C42 C 0.10653 0.23877 0.3362 0.0
O43 O 0.10027 0.2436 0.30385 0.0
Cd44 Cd 0.11279 0.25466 0.22933 0.0
O45 O 0.1204 0.23877 0.32956 0.0
Cd46 Cd 0.14068 0.24657 0.26197 0.0
C47 C 0.14939 0.28762 0.27211 0.0
O48 O 0.11942 0.23371 0.20071 0.0
O49 O 0.14497 0.24984 0.1758 0.0
O50 O 0.14792 0.22438 0.27762 0.0
C51 C 0.12972 0.23875 0.16653 0.0
O52 O 0.13559 0.28348 0.25056 0.0
C53 C 0.16386 0.23471 0.27785 0.0
O54 O 0.15355 0.27649 0.28083 0.0
O55 O 0.16872 0.2504 0.27332 0.0
C56 C 0.75501 0.88431 0.32724 0.0
O57 O 0.74985 0.87133 0.30079 0.0
Cd58 Cd 0.73506 0.8678 0.22884 0.0
O59 O 0.75263 0.89655 0.31613 0.0
Cd60 Cd 0.74005 0.90515 0.25254 0.0
C61 C 0.70187 0.86975 0.27939 0.0
O62 O 0.75228 0.89539 0.19505 0.0
O63 O 0.73603 0.90391 0.16588 0.0
O64 O 0.76288 0.93363 0.27086 0.0
C65 C 0.7465 0.8988 0.1589 0.0
O66 O 0.70696 0.86066 0.25873 0.0
C67 C 0.75412 0.94088 0.2667 0.0
O68 O 0.71149 0.88584 0.28247 0.0
O69 O 0.73844 0.93136 0.25724 0.0
C70 C 0.11825 0.88106 0.27158 0.0
O71 O 0.12924 0.88712 0.23889 0.0
Cd72 Cd 0.1272 0.86895 0.17454 0.0
O73 O 0.10499 0.8665 0.2667 0.0
Cd74 Cd 0.09108 0.84342 0.20824 0.0
C75 C 0.12193 0.83584 0.24434 0.0
O76 O 0.1007 0.85833 0.13297 0.0
O77 O 0.09076 0.83106 0.13222 0.0
O78 O 0.0661 0.846 0.21227 0.0
C79 C 0.0952 0.84466 0.10932 0.0
O80 O 0.13159 0.84807 0.21714 0.0
C81 C 0.05563 0.83038 0.22014 0.0
O82 O 0.10629 0.83135 0.24865 0.0
O83 O 0.06177 0.82065 0.22594 0.0
C84 C 0.75192 0.87465 0.82845 0.0
O85 O 0.74695 0.88249 0.80174 0.0
Cd86 Cd 0.73545 0.87292 0.72514 0.0
O87 O 0.75124 0.86091 0.8151 0.0
Cd88 Cd 0.74213 0.84213 0.74535 0.0
C89 C 0.70204 0.835 0.76248 0.0
O90 O 0.75504 0.86564 0.69104 0.0
O91 O 0.73955 0.84088 0.65946 0.0
O92 O 0.76556 0.83724 0.76005 0.0
C93 C 0.75017 0.85659 0.65419 0.0
O94 O 0.70703 0.84968 0.74506 0.0
C95 C 0.75703 0.82123 0.75402 0.0
O96 O 0.71232 0.82948 0.76733 0.0
O97 O 0.74122 0.81473 0.74629 0.0
C98 C 0.10319 0.86272 0.7711 0.0
O99 O 0.09789 0.85194 0.73772 0.0
Cd100 Cd 0.11617 0.85668 0.67141 0.0
O101 O 0.11693 0.87688 0.76641 0.0
Cd102 Cd 0.13931 0.89304 0.70776 0.0
C103 C 0.15068 0.86419 0.73776 0.0
O104 O 0.12387 0.88335 0.63311 0.0
O105 O 0.15134 0.89589 0.62985 0.0
O106 O 0.13509 0.91699 0.72081 0.0
C107 C 0.13732 0.89042 0.60835 0.0
O108 O 0.13867 0.85401 0.71074 0.0
C109 C 0.15066 0.92791 0.72712 0.0
O110 O 0.15376 0.87939 0.74361 0.0
O111 O 0.16106 0.92243 0.72694 0.0
C112 C 0.10622 0.23301 0.8354 0.0
O113 O 0.11881 0.23934 0.80741 0.0
Cd114 Cd 0.11935 0.25468 0.73776 0.0
O115 O 0.09325 0.23443 0.82717 0.0
Cd116 Cd 0.08284 0.24703 0.76906 0.0
C117 C 0.11662 0.28607 0.79593 0.0
O118 O 0.09229 0.23851 0.69859 0.0
O119 O 0.08196 0.25516 0.68824 0.0
O120 O 0.05484 0.2224 0.7816 0.0
C121 C 0.08721 0.24584 0.67038 0.0
O122 O 0.12572 0.28204 0.77109 0.0
C123 C 0.04727 0.23075 0.78846 0.0
O124 O 0.10087 0.27552 0.80203 0.0
O125 O 0.05638 0.24689 0.78765 0.0
C126 C 0.89893 0.79702 0.66411 0.0
O127 O 0.9096 0.79658 0.69198 0.0
Cd128 Cd 0.90086 0.781 0.76441 0.0
O129 O 0.88319 0.78946 0.67426 0.0
Cd130 Cd 0.86334 0.77241 0.73684 0.0
C131 C 0.87355 0.742 0.71451 0.0
O132 O 0.88162 0.78796 0.8025 0.0
O133 O 0.85885 0.76414 0.81893 0.0
O134 O 0.85001 0.78934 0.72602 0.0
C135 C 0.87165 0.77775 0.83342 0.0
O136 O 0.88747 0.75173 0.73568 0.0
C137 C 0.83488 0.77693 0.72405 0.0
O138 O 0.86252 0.74653 0.70845 0.0
O139 O 0.83291 0.76205 0.72563 0.0
C140 C 0.2229 0.11471 0.66129 0.0
O141 O 0.22819 0.12739 0.68888 0.0
Cd142 Cd 0.23857 0.12691 0.76563 0.0
O143 O 0.22275 0.10119 0.67382 0.0
Cd144 Cd 0.2295 0.08862 0.74066 0.0
C145 C 0.27069 0.1203 0.72787 0.0
O146 O 0.21761 0.09976 0.79613 0.0
O147 O 0.23086 0.08792 0.82644 0.0
O148 O 0.20386 0.06289 0.71808 0.0
C149 C 0.22141 0.09432 0.83239 0.0
O150 O 0.26616 0.13026 0.7458 0.0
C151 C 0.20963 0.05289 0.72371 0.0
O152 O 0.25989 0.1046 0.72124 0.0
O153 O 0.2252 0.05962 0.7351 0.0
C154 C 0.89473 0.11272 0.61497 0.0
O155 O 0.8842 0.09718 0.62343 0.0
Cd156 Cd 0.86878 0.08923 0.69581 0.0
O157 O 0.89845 0.12398 0.64653 0.0
Cd158 Cd 0.89306 0.12575 0.73006 0.0
C159 C 0.85432 0.11783 0.69872 0.0
O160 O 0.88925 0.09868 0.75778 0.0
O161 O 0.87882 0.1107 0.80176 0.0
O162 O 0.92331 0.1401 0.74064 0.0
C163 C 0.88287 0.0993 0.79684 0.0
O164 O 0.85091 0.10244 0.69529 0.0
C165 C 0.92504 0.15355 0.75944 0.0
O166 O 0.86931 0.12967 0.70865 0.0
O167 O 0.9116 0.15438 0.76495 0.0
C168 C 0.86305 0.43286 0.4685 0.0
O169 O 0.86337 0.42129 0.49267 0.0
Cd170 Cd 0.8836 0.42799 0.55424 0.0
O171 O 0.87288 0.44849 0.4785 0.0
Cd172 Cd 0.89421 0.46615 0.53787 0.0
C173 C 0.92043 0.45407 0.49198 0.0
O174 O 0.88257 0.44813 0.60626 0.0
O175 O 0.90944 0.46678 0.6089 0.0
O176 O 0.87924 0.48118 0.55244 0.0
C177 C 0.89612 0.45586 0.6301 0.0
O178 O 0.91105 0.44008 0.51349 0.0
C179 C 0.89166 0.49603 0.54513 0.0
O180 O 0.91678 0.4659 0.49224 0.0
O181 O 0.90564 0.49719 0.53288 0.0
C182 C 0.54619 0.44551 0.5148 0.0
O183 O 0.55492 0.45489 0.5489 0.0
Cd184 Cd 0.54248 0.45509 0.62326 0.0
O185 O 0.53051 0.4346 0.52038 0.0
Cd186 Cd 0.50885 0.42426 0.58343 0.0
C187 C 0.51275 0.46339 0.57588 0.0
O188 O 0.5263 0.4265 0.65191 0.0
O189 O 0.5012 0.42265 0.66581 0.0
O190 O 0.50055 0.39535 0.56089 0.0
C191 C 0.51448 0.42309 0.68123 0.0
O192 O 0.52607 0.46847 0.60078 0.0
C193 C 0.48468 0.38984 0.55986 0.0
O194 O 0.50408 0.44787 0.56282 0.0
O195 O 0.47999 0.40073 0.56645 0.0
C196 C 0.55713 0.11475 0.45232 0.0
O197 O 0.5422 0.11174 0.46134 0.0
Cd198 Cd 0.52616 0.09557 0.52751 0.0
O199 O 0.56447 0.10924 0.47922 0.0
Cd200 Cd 0.55878 0.09373 0.55393 0.0
C201 C 0.52568 0.05847 0.50466 0.0
O202 O 0.54655 0.10921 0.58911 0.0
O203 O 0.54375 0.08785 0.62968 0.0
O204 O 0.58881 0.11328 0.56815 0.0
C205 C 0.54255 0.10115 0.62756 0.0
O206 O 0.51681 0.06565 0.50881 0.0
C207 C 0.59232 0.10211 0.58177 0.0
O208 O 0.5413 0.06628 0.51629 0.0
O209 O 0.58012 0.08681 0.58291 0.0
C210 C 0.79789 0.5786 0.67236 0.0
O211 O 0.78857 0.58252 0.64841 0.0
Cd212 Cd 0.79405 0.59154 0.56823 0.0
O213 O 0.81119 0.57954 0.65459 0.0
Cd214 Cd 0.82675 0.58761 0.57945 0.0
C215 C 0.83228 0.62757 0.58645 0.0
O216 O 0.8007 0.57126 0.53505 0.0
O217 O 0.82366 0.58502 0.49397 0.0
O218 O 0.83421 0.5664 0.60067 0.0
C219 C 0.80792 0.57416 0.49532 0.0
O220 O 0.81672 0.62116 0.57525 0.0
C221 C 0.84957 0.57491 0.58727 0.0
O222 O 0.8388 0.61813 0.59137 0.0
O223 O 0.85465 0.58984 0.5719 0.0
C224 C 0.43829 0.21605 0.63123 0.0
O225 O 0.43617 0.2045 0.6022 0.0
Cd226 Cd 0.42056 0.19992 0.53025 0.0
O227 O 0.43229 0.22577 0.62293 0.0
Cd228 Cd 0.41588 0.23051 0.56205 0.0
C229 C 0.38276 0.19056 0.58169 0.0
O230 O 0.42972 0.22682 0.49258 0.0
O231 O 0.40725 0.22882 0.48091 0.0
O232 O 0.43581 0.26045 0.57441 0.0
C233 C 0.41997 0.2285 0.46395 0.0
O234 O 0.39144 0.18567 0.55818 0.0
C235 C 0.42489 0.26518 0.57694 0.0
O236 O 0.3887 0.20634 0.5906 0.0
O237 O 0.40935 0.25352 0.57555 0.0
C238 C 0.77788 0.20968 0.64711 0.0
O239 O 0.78864 0.21582 0.61382 0.0
Cd240 Cd 0.78699 0.20053 0.54331 0.0
O241 O 0.76448 0.19517 0.64255 0.0
Cd242 Cd 0.75093 0.17282 0.58061 0.0
C243 C 0.78322 0.16462 0.59452 0.0
O244 O 0.75952 0.19046 0.50859 0.0
O245 O 0.74832 0.16329 0.49928 0.0
O246 O 0.72299 0.16958 0.59573 0.0
C247 C 0.75383 0.17782 0.48075 0.0
O248 O 0.79246 0.17831 0.57171 0.0
C249 C 0.71565 0.15372 0.60435 0.0
O250 O 0.76776 0.15984 0.60354 0.0
O251 O 0.72487 0.14689 0.60347 0.0
C252 C 0.43614 0.22402 0.12796 0.0
O253 O 0.43673 0.23338 0.09393 0.0
Cd254 Cd 0.42803 0.2228 0.01581 0.0
O255 O 0.43175 0.20846 0.12118 0.0
Cd256 Cd 0.42313 0.18726 0.05688 0.0
C257 C 0.38794 0.19105 0.04907 0.0
O258 O 0.44193 0.20714 -0.00151 0.0
O259 O 0.42327 0.18262 0.97131 0.0
O260 O 0.44159 0.17857 0.09314 0.0
C261 C 0.43614 0.19715 0.96358 0.0
O262 O 0.39742 0.20516 0.02827 0.0
C263 C 0.4313 0.16266 0.09042 0.0
O264 O 0.39404 0.18203 0.06435 0.0
O265 O 0.41665 0.158 0.0737 0.0
C266 C 0.77939 0.20414 0.14586 0.0
O267 O 0.77299 0.19403 0.11115 0.0
Cd268 Cd 0.78555 0.19773 0.03463 0.0
O269 O 0.79338 0.21813 0.14119 0.0
Cd270 Cd 0.81398 0.23287 0.07551 0.0
C271 C 0.82301 0.2008 0.06729 0.0
O272 O 0.7943 0.22607 0.00838 0.0
O273 O 0.82108 0.238 -0.0076 0.0
O274 O 0.81897 0.26112 0.09628 0.0
C275 C 0.8061 0.23284 0.97804 0.0
O276 O 0.80872 0.19198 0.04694 0.0
C277 C 0.83487 0.26768 0.10249 0.0
O278 O 0.82768 0.21572 0.0824 0.0
O279 O 0.84088 0.25779 0.09871 0.0
C280 C 0.77257 0.55024 0.17766 0.0
O281 O 0.78582 0.55516 0.15266 0.0
Cd282 Cd 0.79201 0.57098 0.08126 0.0
O283 O 0.76075 0.55293 0.16444 0.0
Cd284 Cd 0.75477 0.5662 0.09694 0.0
C285 C 0.78932 0.60425 0.12871 0.0
O286 O 0.76638 0.55601 0.03709 0.0
O287 O 0.76014 0.57488 0.01454 0.0
O288 O 0.72491 0.54382 0.09889 0.0
C289 C 0.76493 0.56441 0.00372 0.0
O290 O 0.79875 0.59925 0.10975 0.0
C291 C 0.71919 0.554 0.09678 0.0
O292 O 0.77325 0.5945 0.13025 0.0
O293 O 0.73005 0.56982 0.09693 0.0
C294 C 0.54456 0.12454 0.94934 0.0
O295 O 0.5599 0.13019 0.96119 0.0
Cd296 Cd 0.56565 0.11892 0.03037 0.0
O297 O 0.53246 0.11506 0.97685 0.0
Cd298 Cd 0.5273 0.1047 0.05756 0.0
C299 C 0.5366 0.07575 0.01643 0.0
O300 O 0.55361 0.12589 0.09477 0.0
O301 O 0.53868 0.10187 0.13155 0.0
O302 O 0.51374 0.12101 0.07236 0.0
C303 C 0.55119 0.11698 0.13131 0.0
O304 O 0.55194 0.088 0.01712 0.0
C305 C 0.49925 0.10868 0.08335 0.0
O306 O 0.52442 0.07815 0.02779 0.0
O307 O 0.49739 0.09383 0.08217 0.0
C308 C 0.88964 0.43762 0.96827 0.0
O309 O 0.88496 0.44752 0.98547 0.0
Cd310 Cd 0.89008 0.45557 0.067 0.0
O311 O 0.89508 0.43011 -0.00529 0.0
Cd312 Cd 0.89916 0.42621 0.07759 0.0
C313 C 0.93225 0.46656 0.06731 0.0
O314 O 0.87639 0.42973 0.11108 0.0
O315 O 0.89511 0.43021 0.1594 0.0
O316 O 0.88217 0.39605 0.06323 0.0
C317 C 0.88106 0.42969 0.15311 0.0
O318 O 0.92116 0.47114 0.06998 0.0
C319 C 0.89236 0.39202 0.08164 0.0
O320 O 0.92787 0.45083 0.068 0.0
O321 O 0.90649 0.40416 0.09641 0.0
C322 C 0.53494 0.43315 0.01377 0.0
O323 O 0.52336 0.42757 0.04494 0.0
Cd324 Cd 0.52394 0.44377 0.11226 0.0
O325 O 0.5484 0.44756 0.01906 0.0
Cd326 Cd 0.55985 0.4706 0.07862 0.0
C327 C 0.52715 0.47704 0.04987 0.0
O328 O 0.55088 0.45365 0.15119 0.0
O329 O 0.56081 0.48074 0.15847 0.0
O330 O 0.58897 0.47618 0.06826 0.0
C331 C 0.55638 0.46656 0.17789 0.0
O332 O 0.51754 0.46448 0.07612 0.0
C333 C 0.59524 0.49205 0.06123 0.0
O334 O 0.54268 0.48139 0.04451 0.0
O335 O 0.58491 0.49756 0.05988 0.0
C336 C 0.5389 0.76575 0.86721 0.0
O337 O 0.53927 0.75677 0.90096 0.0
Cd338 Cd 0.55451 0.76963 0.9725 0.0
O339 O 0.54542 0.78177 0.87216 0.0
Cd340 Cd 0.56001 0.8039 0.93286 0.0
C341 C 0.59272 0.79653 0.92021 0.0
O342 O 0.54548 0.78831 0.00488 0.0
O343 O 0.56844 0.8128 0.01342 0.0
O344 O 0.54171 0.81514 0.912 0.0
C345 C 0.55542 0.80041 0.03191 0.0
O346 O 0.58391 0.78334 0.9453 0.0
C347 C 0.55364 0.83043 0.90693 0.0
O348 O 0.58695 0.80624 0.90904 0.0
O349 O 0.56873 0.83327 0.91166 0.0
C350 C 0.22448 0.78602 0.88244 0.0
O351 O 0.23238 0.79537 0.91748 0.0
Cd352 Cd 0.21661 0.79307 -0.01171 0.0
O353 O 0.20904 0.77436 0.88658 0.0
Cd354 Cd 0.18574 0.76048 0.94357 0.0
C355 C 0.18543 0.79728 0.93132 0.0
O356 O 0.20132 0.76434 0.01743 0.0
O357 O 0.17467 0.75681 0.02281 0.0
O358 O 0.18542 0.73525 0.91667 0.0
C359 C 0.1882 0.75944 0.04306 0.0
O360 O 0.19833 0.80333 0.9584 0.0
C361 C 0.16949 0.72622 0.91066 0.0
O362 O 0.17808 0.78174 0.9182 0.0
O363 O 0.16073 0.73335 0.91843 0.0
C364 C 0.21113 0.44749 0.8773 0.0
O365 O 0.2019 0.44724 0.91124 0.0
Cd366 Cd 0.20214 0.43591 -0.01244 0.0
O367 O 0.22171 0.44239 0.88322 0.0
Cd368 Cd 0.23137 0.43068 0.94653 0.0
C369 C 0.19151 0.39616 0.94818 0.0
O370 O 0.23111 0.44802 0.01254 0.0
O371 O 0.23513 0.42704 0.02932 0.0
O372 O 0.26011 0.44889 0.91839 0.0
C373 C 0.23495 0.44024 0.04283 0.0
O374 O 0.18727 0.40541 0.97163 0.0
C375 C 0.26405 0.43733 0.91705 0.0
O376 O 0.20665 0.40227 0.93305 0.0
O377 O 0.25238 0.42228 0.92695 0.0
C378 C 0.44884 0.90887 0.93466 0.0
O379 O 0.44264 0.91395 0.9028 0.0
Cd380 Cd 0.45804 0.92835 0.83321 0.0
O381 O 0.46342 0.91036 0.92911 0.0
Cd382 Cd 0.48565 0.92093 0.86682 0.0
C383 C 0.49314 0.96113 0.88431 0.0
O384 O 0.46745 0.91058 0.79611 0.0
O385 O 0.49438 0.92726 0.78486 0.0
O386 O 0.48946 0.89672 0.88331 0.0
C387 C 0.47989 0.91715 0.76766 0.0
O388 O 0.47945 0.95659 0.86172 0.0
C389 C 0.5055 0.90551 0.88763 0.0
O390 O 0.49813 0.95054 0.89201 0.0
O391 O 0.51221 0.92156 0.88431 0.0
C392 C 0.08969 0.53917 0.92906 0.0
O393 O 0.08442 0.52799 0.89673 0.0
Cd394 Cd 0.06747 0.52934 0.83423 0.0
O395 O 0.08826 0.55234 0.92456 0.0
Cd396 Cd 0.07899 0.56631 0.86634 0.0
C397 C 0.04029 0.53623 0.90379 0.0
O398 O 0.08362 0.55555 0.79177 0.0
O399 O 0.06758 0.56681 0.78924 0.0
O400 O 0.10701 0.59104 0.87273 0.0
C401 C 0.07571 0.56101 0.76714 0.0
O402 O 0.043 0.5262 0.87871 0.0
C403 C 0.1022 0.60173 0.88032 0.0
O404 O 0.05138 0.55201 0.90638 0.0
O405 O 0.08627 0.59588 0.88339 0.0
C406 C 0.44557 0.55049 0.9264 0.0
O407 O 0.45476 0.55884 0.89159 0.0
Cd408 Cd 0.45341 0.5449 0.81823 0.0
O409 O 0.43415 0.53493 0.92149 0.0
Cd410 Cd 0.42199 0.51276 0.85997 0.0
C411 C 0.45955 0.51396 0.868 0.0
O412 O 0.42486 0.52937 0.78869 0.0
O413 O 0.41977 0.50354 0.77904 0.0
O414 O 0.39397 0.5068 0.88319 0.0
C415 C 0.42092 0.51687 0.76119 0.0
O416 O 0.46521 0.52724 0.84249 0.0
C417 C 0.38766 0.49083 0.88768 0.0
O418 O 0.44409 0.50606 0.88137 0.0
O419 O 0.39766 0.48503 0.88174 0.0
C420 C 0.07969 0.54245 0.42844 0.0
O421 O 0.07605 0.54889 0.39383 0.0
Cd422 Cd 0.06718 0.53525 0.31828 0.0
O423 O 0.07994 0.52864 0.4233 0.0
Cd424 Cd 0.07483 0.50824 0.35842 0.0
C425 C 0.03351 0.49807 0.35631 0.0
O426 O 0.08728 0.52734 0.28991 0.0
O427 O 0.07199 0.50029 0.27624 0.0
O428 O 0.09881 0.50505 0.38279 0.0
C429 C 0.08213 0.51509 0.26081 0.0
O430 O 0.03838 0.51196 0.33419 0.0
C431 C 0.09012 0.48894 0.38643 0.0
O432 O 0.04423 0.49396 0.37028 0.0
O433 O 0.07424 0.48201 0.37932 0.0
C434 C 0.4332 0.53597 0.42595 0.0
O435 O 0.42774 0.52493 0.39322 0.0
Cd436 Cd 0.44571 0.52787 0.32776 0.0
O437 O 0.44739 0.54971 0.42146 0.0
Cd438 Cd 0.47042 0.56459 0.3631 0.0
C439 C 0.48006 0.53453 0.39434 0.0
O440 O 0.45459 0.55459 0.28913 0.0
O441 O 0.48199 0.56665 0.28459 0.0
O442 O 0.46683 0.58896 0.37291 0.0
C443 C 0.46785 0.56102 0.26365 0.0
O444 O 0.46767 0.52465 0.36792 0.0
C445 C 0.4824 0.5998 0.3795 0.0
O446 O 0.484 0.55002 0.39982 0.0
O447 O 0.49264 0.59414 0.38128 0.0
C448 C 0.45127 0.8957 0.43458 0.0
O449 O 0.4598 0.89561 0.39923 0.0
Cd450 Cd 0.45711 0.9065 0.3244 0.0
O451 O 0.4394 0.89907 0.42929 0.0
Cd452 Cd 0.42406 0.90501 0.3672 0.0
C453 C 0.45955 0.94325 0.37032 0.0
O454 O 0.42867 0.89241 0.29596 0.0
O455 O 0.42064 0.91103 0.28663 0.0
O456 O 0.39937 0.8793 0.39163 0.0
C457 C 0.42391 0.90024 0.2684 0.0
O458 O 0.46561 0.93539 0.34761 0.0
C459 C 0.38949 0.88529 0.3956 0.0
O460 O 0.44414 0.93542 0.38444 0.0
O461 O 0.39599 0.90126 0.38929 0.0
C462 C 0.22872 0.4526 0.37565 0.0
O463 O 0.2372 0.45118 0.40905 0.0
Cd464 Cd 0.22396 0.4363 0.48055 0.0
O465 O 0.21291 0.44717 0.38058 0.0
Cd466 Cd 0.19054 0.43329 0.44087 0.0
C467 C 0.19506 0.3987 0.42825 0.0
O468 O 0.20703 0.4475 0.51191 0.0
O469 O 0.18175 0.42587 0.52206 0.0
O470 O 0.17996 0.45226 0.41983 0.0
C471 C 0.19486 0.43841 0.53967 0.0
O472 O 0.20843 0.4068 0.45316 0.0
C473 C 0.16462 0.44047 0.41491 0.0
O474 O 0.18625 0.4055 0.41732 0.0
O475 O 0.16151 0.42528 0.41989 0.0
C476 C 0.54362 0.78439 0.36984 0.0
O477 O 0.54428 0.79349 0.40469 0.0
Cd478 Cd 0.55482 0.79039 0.47971 0.0
O479 O 0.54716 0.77261 0.37508 0.0
Cd480 Cd 0.55516 0.75835 0.43481 0.0
C481 C 0.59256 0.79545 0.4355 0.0
O482 O 0.54023 0.76113 0.50315 0.0
O483 O 0.55851 0.75296 0.51644 0.0
O484 O 0.53168 0.73336 0.40112 0.0
C485 C 0.547 0.75564 0.53206 0.0
O486 O 0.58436 0.80081 0.4595 0.0
C487 C 0.53881 0.72444 0.39915 0.0
O488 O 0.58514 0.78024 0.41956 0.0
O489 O 0.55432 0.73163 0.41174 0.0
C490 C 0.20494 0.76852 0.38198 0.0
O491 O 0.19572 0.76033 0.41691 0.0
Cd492 Cd 0.19805 0.77539 0.48929 0.0
O493 O 0.21656 0.78398 0.38677 0.0
Cd494 Cd 0.2303 0.80663 0.44603 0.0
C495 C 0.19367 0.80714 0.43645 0.0
O496 O 0.22658 0.79057 0.51893 0.0
O497 O 0.23364 0.81714 0.52579 0.0
O498 O 0.25515 0.80628 0.42104 0.0
C499 C 0.23139 0.80357 0.54517 0.0
O500 O 0.18783 0.79405 0.4628 0.0
C501 C 0.26477 0.82222 0.4163 0.0
O502 O 0.20907 0.81458 0.42233 0.0
O503 O 0.25808 0.83147 0.42291 0.0
H504 H 0.2243 0.08047 0.91443 0.0
H505 H 0.20549 0.11197 0.85592 0.0
H506 H 0.19778 0.11654 0.93572 0.0
H507 H 0.19254 0.06212 0.01478 0.0
H508 H 0.20847 0.06272 0.05368 0.0
H509 H 0.2092 0.059 -0.00851 0.0
H510 H 0.24005 0.08454 -0.01264 0.0
H511 H 0.23942 0.08821 0.04925 0.0
H512 H 0.24442 0.10515 0.0079 0.0
H513 H 0.19751 0.12232 0.02075 0.0
H514 H 0.20509 0.12908 0.10458 0.0
H515 H 0.22277 0.09276 0.10805 0.0
C516 C 0.21819 0.08798 0.91837 0.0
C517 C 0.21553 0.0959 0.87931 0.0
C518 C 0.20761 0.10576 0.88561 0.0
C519 C 0.20305 0.10832 0.93068 0.0
C520 C 0.20621 0.10065 0.96877 0.0
C521 C 0.21344 0.09052 0.96301 0.0
C522 C 0.21741 0.08544 0.00985 0.0
C523 C 0.20623 0.06617 0.01791 0.0
C524 C 0.23644 0.09119 0.01379 0.0
C525 C 0.21249 0.09534 0.04272 0.0
C526 C 0.20565 0.1037 0.01848 0.0
C527 C 0.20237 0.11548 0.04042 0.0
C528 C 0.20678 0.11929 0.08795 0.0
C529 C 0.21444 0.11137 0.11271 0.0
C530 C 0.21659 0.09873 0.09028 0.0
H531 H 0.85791 0.08541 0.86199 0.0
H532 H 0.90577 0.08987 0.82134 0.0
H533 H 0.90767 0.07857 0.89873 0.0
H534 H 0.86753 0.10084 0.96502 0.0
H535 H 0.84817 0.08686 -0.0038 0.0
H536 H 0.84761 0.08936 0.9339 0.0
H537 H 0.83395 0.05679 0.92222 0.0
H538 H 0.83438 0.05414 0.98512 0.0
H539 H 0.84416 0.04584 0.94623 0.0
H540 H 0.90947 0.07754 0.98478 0.0
H541 H 0.90931 0.08374 0.06943 0.0
H542 H 0.85869 0.07632 0.05479 0.0
C543 C 0.86831 0.08315 0.86887 0.0
C544 C 0.8817 0.08846 0.83644 0.0
C545 C 0.89532 0.08566 0.84596 0.0
C546 C 0.89645 0.07919 0.88973 0.0
C547 C 0.88353 0.07504 0.92256 0.0
C548 C 0.86935 0.07631 0.91194 0.0
C549 C 0.85857 0.0736 0.95514 0.0
C550 C 0.85532 0.08856 0.963 0.0
C551 C 0.84177 0.05657 0.95198 0.0
C552 C 0.87001 0.07291 -0.00742 0.0
C553 C 0.88413 0.07325 0.9731 0.0
C554 C 0.89814 0.07644 0.00061 0.0
C555 C 0.89802 0.08007 0.04859 0.0
C556 C 0.8839 0.0803 0.06845 0.0
C557 C 0.86941 0.0757 0.04065 0.0
H558 H 0.85107 0.76041 0.10613 0.0
H559 H 0.90421 0.79677 0.13137 0.0
H560 H 0.90802 0.80493 0.04729 0.0
H561 H 0.85792 0.74484 0.00367 0.0
H562 H 0.83905 0.74134 0.97328 0.0
H563 H 0.83936 0.74095 0.0366 0.0
H564 H 0.83108 0.76438 0.04024 0.0
H565 H 0.83052 0.76469 0.97675 0.0
H566 H 0.8437 0.78409 0.0089 0.0
H567 H 0.90691 0.80678 0.96029 0.0
H568 H 0.90124 0.80145 0.87502 0.0
H569 H 0.8493 0.76235 0.90563 0.0
C570 C 0.86329 0.77054 0.09404 0.0
C571 C 0.87728 0.77828 0.1248 0.0
C572 C 0.89334 0.79095 0.10797 0.0
C573 C 0.89559 0.79567 0.06048 0.0
C574 C 0.88168 0.78743 0.03045 0.0
C575 C 0.86583 0.77511 0.04646 0.0
C576 C 0.85364 0.76656 0.00596 0.0
C577 C 0.84712 0.74729 0.00483 0.0
C578 C 0.83886 0.77015 0.0081 0.0
C579 C 0.86527 0.7756 0.96479 0.0
C580 C 0.88126 0.78785 0.97969 0.0
C581 C 0.89438 0.79737 0.94809 0.0
C582 C 0.89107 0.79422 0.89984 0.0
C583 C 0.87488 0.78146 0.88398 0.0
C584 C 0.86182 0.77216 0.91689 0.0
H585 H 0.11892 0.23378 0.41962 0.0
H586 H 0.07638 0.23642 0.35985 0.0
H587 H 0.06564 0.23611 0.4395 0.0
H588 H 0.09468 0.20613 0.52305 0.0
H589 H 0.1128 0.21713 0.56146 0.0
H590 H 0.11586 0.21501 0.49957 0.0
H591 H 0.13511 0.24775 0.49342 0.0
H592 H 0.1319 0.25003 0.55495 0.0
H593 H 0.1269 0.26128 0.51142 0.0
H594 H 0.06224 0.24065 0.52373 0.0
H595 H 0.06431 0.24599 0.60947 0.0
H596 H 0.10786 0.23875 0.61642 0.0
C597 C 0.10705 0.23374 0.42324 0.0
C598 C 0.09854 0.23519 0.3834 0.0
C599 C 0.08318 0.23535 0.38973 0.0
C600 C 0.07693 0.23516 0.43489 0.0
C601 C 0.08602 0.23452 0.47341 0.0
C602 C 0.10054 0.23342 0.46822 0.0
C603 C 0.10842 0.23393 0.5157 0.0
C604 C 0.1079 0.21704 0.52552 0.0
C605 C 0.12666 0.24915 0.51903 0.0
C606 C 0.09646 0.23621 0.54805 0.0
C607 C 0.08362 0.23649 0.52281 0.0
C608 C 0.07195 0.24002 0.54412 0.0
C609 C 0.07331 0.24319 0.59266 0.0
C610 C 0.08613 0.24262 0.61933 0.0
C611 C 0.09776 0.23894 0.59681 0.0
H612 H 0.74992 0.85659 0.37683 0.0
H613 H 0.77402 0.91161 0.38466 0.0
H614 H 0.77967 0.91055 0.46928 0.0
H615 H 0.72726 0.8488 0.47497 0.0
H616 H 0.72856 0.83067 0.49516 0.0
H617 H 0.73061 0.83571 0.43349 0.0
H618 H 0.75983 0.83732 0.43093 0.0
H619 H 0.75774 0.83191 0.49266 0.0
H620 H 0.77624 0.85095 0.47182 0.0
H621 H 0.77788 0.90328 0.55404 0.0
H622 H 0.76907 0.89041 0.63293 0.0
H623 H 0.7448 0.83999 0.57014 0.0
C624 C 0.75707 0.86847 0.39586 0.0
C625 C 0.76168 0.88419 0.37431 0.0
C626 C 0.77049 0.89944 0.40062 0.0
C627 C 0.77381 0.89896 0.4486 0.0
C628 C 0.76825 0.88314 0.46945 0.0
C629 C 0.7602 0.86816 0.44383 0.0
C630 C 0.75311 0.85272 0.47558 0.0
C631 C 0.73375 0.84132 0.46942 0.0
C632 C 0.76229 0.84263 0.46725 0.0
C633 C 0.75755 0.86134 0.52317 0.0
C634 C 0.76668 0.87888 0.51888 0.0
C635 C 0.77105 0.88957 0.55791 0.0
C636 C 0.76589 0.88214 0.60249 0.0
C637 C 0.75622 0.86422 0.60743 0.0
C638 C 0.75223 0.85373 0.56732 0.0
H639 H 0.11017 0.87432 0.54837 0.0
H640 H 0.16351 0.91317 0.55328 0.0
H641 H 0.16289 0.91839 0.46814 0.0
H642 H 0.11254 0.85657 0.44132 0.0
H643 H 0.09186 0.85173 0.42073 0.0
H644 H 0.09603 0.85278 0.48292 0.0
H645 H 0.08664 0.87528 0.49218 0.0
H646 H 0.0827 0.87445 0.42969 0.0
H647 H 0.09691 0.89451 0.45758 0.0
H648 H 0.15714 0.91794 0.38192 0.0
H649 H 0.14779 0.90934 0.29993 0.0
H650 H 0.09832 0.87037 0.35066 0.0
C651 C 0.12164 0.88409 0.5316 0.0
C652 C 0.13686 0.8934 0.55737 0.0
C653 C 0.15171 0.90587 0.53413 0.0
C654 C 0.15144 0.90905 0.4859 0.0
C655 C 0.13623 0.89964 0.46141 0.0
C656 C 0.12164 0.88729 0.48335 0.0
C657 C 0.10749 0.8777 0.4481 0.0
C658 C 0.10165 0.85857 0.44828 0.0
C659 C 0.09255 0.88067 0.45746 0.0
C660 C 0.11658 0.8862 0.40275 0.0
C661 C 0.13301 0.8991 0.41131 0.0
C662 C 0.14424 0.90799 0.37476 0.0
C663 C 0.13878 0.90305 0.32822 0.0
C664 C 0.12232 0.88916 0.31875 0.0
C665 C 0.11092 0.88115 0.35659 0.0
H666 H 0.73776 0.90662 0.07396 0.0
H667 H 0.76601 0.88484 0.13701 0.0
H668 H 0.7735 0.87946 0.05799 0.0
H669 H 0.71993 0.87738 0.98197 0.0
H670 H 0.72142 0.89259 0.93869 0.0
H671 H 0.71975 0.89631 0.00019 0.0
H672 H 0.74747 0.92562 -0.00565 0.0
H673 H 0.74928 0.9219 0.93275 0.0
H674 H 0.76658 0.9267 0.97241 0.0
H675 H 0.77523 0.87349 0.97338 0.0
H676 H 0.77098 0.86736 0.88804 0.0
H677 H 0.74273 0.89408 0.87973 0.0
C678 C 0.74569 0.90091 0.07107 0.0
C679 C 0.75129 0.89613 0.11147 0.0
C680 C 0.76159 0.88862 0.10642 0.0
C681 C 0.76599 0.88558 0.06173 0.0
C682 C 0.76017 0.89032 0.02255 0.0
C683 C 0.75032 0.8979 0.02669 0.0
C684 C 0.74484 0.90077 0.97894 0.0
C685 C 0.72534 0.89119 0.97472 0.0
C686 C 0.75251 0.91989 0.96904 0.0
C687 C 0.75264 0.89306 0.94752 0.0
C688 C 0.76157 0.88725 0.97332 0.0
C689 C 0.76858 0.87827 0.95256 0.0
C690 C 0.76607 0.87482 0.9042 0.0
C691 C 0.75671 0.88042 0.87737 0.0
C692 C 0.7503 0.89001 0.89918 0.0
H693 H 0.10872 0.87169 0.0483 0.0
H694 H 0.07578 0.81682 0.05426 0.0
H695 H 0.07074 0.81621 0.96859 0.0
H696 H 0.08549 0.8801 0.95617 0.0
H697 H 0.10468 0.89626 0.92844 0.0
H698 H 0.1043 0.8927 -0.00896 0.0
H699 H 0.12993 0.88783 0.98299 0.0
H700 H 0.13052 0.89164 0.92067 0.0
H701 H 0.12871 0.8721 0.9419 0.0
H702 H 0.07051 0.82131 0.88193 0.0
H703 H 0.07804 0.83116 0.79983 0.0
H704 H 0.11157 0.88263 0.85018 0.0
C705 C 0.1003 0.85957 0.03163 0.0
C706 C 0.09258 0.84431 0.05788 0.0
C707 C 0.08186 0.82867 0.03475 0.0
C708 C 0.07878 0.82821 -0.01379 0.0
C709 C 0.08654 0.8435 0.96132 0.0
C710 C 0.09723 0.85886 0.98314 0.0
C711 C 0.10525 0.87323 0.9477 0.0
C712 C 0.09959 0.88635 0.95637 0.0
C713 C 0.12475 0.88169 0.94835 0.0
C714 C 0.09777 0.86346 0.90242 0.0
C715 C 0.08671 0.84639 0.91112 0.0
C716 C 0.07902 0.83467 0.87466 0.0
C717 C 0.08333 0.84041 0.82807 0.0
C718 C 0.09541 0.85767 0.81846 0.0
C719 C 0.10218 0.86939 0.85623 0.0
H720 H 0.13476 0.24382 0.88813 0.0
H721 H 0.08042 0.20872 0.88812 0.0
H722 H 0.08159 0.20303 0.97267 0.0
H723 H 0.14646 0.22183 0.98333 0.0
H724 H 0.16209 0.24211 0.00744 0.0
H725 H 0.1578 0.23994 0.945 0.0
H726 H 0.15159 0.26479 0.94893 0.0
H727 H 0.15548 0.26683 0.01131 0.0
H728 H 0.13549 0.26337 -0.01125 0.0
H729 H 0.08751 0.20528 0.05821 0.0
H730 H 0.09786 0.21459 0.13912 0.0
H731 H 0.14832 0.24918 0.08476 0.0
C732 C 0.12328 0.2343 0.90545 0.0
C733 C 0.10754 0.22646 0.88166 0.0
C734 C 0.09262 0.21465 0.90578 0.0
C735 C 0.09318 0.21134 0.95373 0.0
C736 C 0.10876 0.21998 0.97692 0.0
C737 C 0.1236 0.2311 0.95354 0.0
C738 C 0.13816 0.24065 -0.01222 0.0
C739 C 0.15194 0.23584 0.98045 0.0
C740 C 0.1456 0.26005 0.98395 0.0
C741 C 0.12898 0.23382 0.03411 0.0
C742 C 0.11213 0.22165 0.02699 0.0
C743 C 0.10076 0.21452 0.06429 0.0
C744 C 0.10673 0.21999 0.1101 0.0
C745 C 0.12389 0.2326 0.11817 0.0
C746 C 0.13518 0.23941 0.07966 0.0
H747 H 0.91534 0.77285 0.41774 0.0
H748 H 0.88481 0.79324 0.36237 0.0
H749 H 0.88762 0.8079 0.43793 0.0
H750 H 0.8979 0.76293 0.52679 0.0
H751 H 0.91726 0.76873 0.5583 0.0
H752 H 0.9153 0.76256 0.49753 0.0
H753 H 0.94262 0.79114 0.47822 0.0
H754 H 0.94446 0.7975 0.53917 0.0
H755 H 0.9438 0.81097 0.49363 0.0
H756 H 0.88861 0.81505 0.52234 0.0
H757 H 0.88756 0.81382 0.60931 0.0
H758 H 0.91961 0.79125 0.6091 0.0
C759 C 0.90953 0.78068 0.4213 0.0
C760 C 0.89981 0.78189 0.38451 0.0
C761 C 0.89234 0.79219 0.39025 0.0
C762 C 0.89399 0.80067 0.43287 0.0
C763 C 0.90348 0.79904 0.46883 0.0
C764 C 0.91129 0.78944 0.46331 0.0
C765 C 0.91923 0.78824 0.50883 0.0
C766 C 0.91198 0.76952 0.52373 0.0
C767 C 0.93869 0.79752 0.5047 0.0
C768 C 0.91362 0.79761 0.54165 0.0
C769 C 0.90482 0.80405 0.51771 0.0
C770 C 0.89599 0.81067 0.54138 0.0
C771 C 0.89547 0.80996 0.59069 0.0
C772 C 0.90388 0.80286 0.61551 0.0
C773 C 0.91373 0.79742 0.59081 0.0
H774 H 0.23675 0.14341 0.60785 0.0
H775 H 0.20084 0.08911 0.60394 0.0
H776 H 0.19827 0.09059 0.51773 0.0
H777 H 0.21841 0.15597 0.50696 0.0
H778 H 0.2393 0.17152 0.48645 0.0
H779 H 0.23555 0.16687 0.54851 0.0
H780 H 0.25996 0.16006 0.55053 0.0
H781 H 0.26357 0.16429 0.48844 0.0
H782 H 0.25919 0.144 0.51151 0.0
H783 H 0.20268 0.09696 0.43278 0.0
H784 H 0.21284 0.10802 0.35302 0.0
H785 H 0.24688 0.15812 0.41145 0.0
C786 C 0.22782 0.132 0.589 0.0
C787 C 0.2188 0.11619 0.61224 0.0
C788 C 0.20772 0.10135 0.58651 0.0
C789 C 0.20617 0.10208 0.53768 0.0
C790 C 0.21584 0.11773 0.51542 0.0
C791 C 0.22635 0.13247 0.54016 0.0
C792 C 0.23688 0.1472 0.50727 0.0
C793 C 0.23225 0.16122 0.51261 0.0
C794 C 0.25603 0.15429 0.51491 0.0
C795 C 0.23109 0.13826 0.46026 0.0
C796 C 0.21877 0.12135 0.46583 0.0
C797 C 0.2121 0.11024 0.42782 0.0
C798 C 0.21805 0.11663 0.38274 0.0
C799 C 0.23064 0.13393 0.37618 0.0
C800 C 0.23722 0.14486 0.41548 0.0
H801 H 0.89667 0.0932 0.54499 0.0
H802 H 0.90632 0.14405 0.57615 0.0
H803 H 0.91041 0.15106 0.49168 0.0
H804 H 0.92653 0.10641 0.43601 0.0
H805 H 0.91193 0.08672 0.40704 0.0
H806 H 0.91446 0.08728 0.47018 0.0
H807 H 0.88201 0.07451 0.48019 0.0
H808 H 0.87938 0.07414 0.41752 0.0
H809 H 0.87193 0.08529 0.45411 0.0
H810 H 0.90446 0.14945 0.4069 0.0
H811 H 0.893 0.14057 0.32634 0.0
H812 H 0.89007 0.09199 0.34771 0.0
C813 C 0.90035 0.10602 0.53405 0.0
C814 C 0.90109 0.11805 0.56677 0.0
C815 C 0.90578 0.13467 0.55154 0.0
C816 C 0.90818 0.13879 0.50362 0.0
C817 C 0.90636 0.12631 0.47178 0.0
C818 C 0.90309 0.11041 0.48642 0.0
C819 C 0.89965 0.09861 0.445 0.0
C820 C 0.914 0.09452 0.43922 0.0
C821 C 0.88221 0.0822 0.4495 0.0
C822 C 0.89984 0.1098 0.40536 0.0
C823 C 0.904 0.12584 0.4214 0.0
C824 C 0.90196 0.13727 0.39329 0.0
C825 C 0.89531 0.1321 0.3479 0.0
C826 C 0.89109 0.1158 0.3312 0.0
C827 C 0.89386 0.10475 0.35957 0.0
H828 H 0.87215 0.40698 0.22332 0.0
H829 H 0.86603 0.44846 0.17266 0.0
H830 H 0.85184 0.44818 0.24751 0.0
H831 H 0.83073 0.38579 0.29886 0.0
H832 H 0.84121 0.37983 0.34237 0.0
H833 H 0.84628 0.38019 0.28075 0.0
H834 H 0.87816 0.40059 0.29921 0.0
H835 H 0.8732 0.40015 0.36034 0.0
H836 H 0.88441 0.42027 0.32994 0.0
H837 H 0.84714 0.44922 0.33285 0.0
H838 H 0.8515 0.45085 0.41888 0.0
H839 H 0.8571 0.4063 0.4133 0.0
C840 C 0.86721 0.41554 0.22764 0.0
C841 C 0.87013 0.42779 0.19311 0.0
C842 C 0.86373 0.43894 0.19912 0.0
C843 C 0.85557 0.43876 0.24127 0.0
C844 C 0.85344 0.42691 0.27588 0.0
C845 C 0.85868 0.41516 0.26886 0.0
C846 C 0.85715 0.40537 0.31335 0.0
C847 C 0.84299 0.38669 0.30853 0.0
C848 C 0.87424 0.40671 0.32646 0.0
C849 C 0.85215 0.41478 0.34787 0.0
C850 C 0.84957 0.42684 0.32544 0.0
C851 C 0.84837 0.43938 0.35074 0.0
C852 C 0.85089 0.44025 0.39962 0.0
C853 C 0.85442 0.42855 0.42251 0.0
C854 C 0.85385 0.41502 0.39675 0.0
H855 H 0.53763 0.43962 0.23658 0.0
H856 H 0.5807 0.49108 0.23347 0.0
H857 H 0.58537 0.48931 0.31856 0.0
H858 H 0.52156 0.44457 0.34445 0.0
H859 H 0.514 0.4231 0.36443 0.0
H860 H 0.51557 0.4276 0.30234 0.0
H861 H 0.53466 0.41417 0.29211 0.0
H862 H 0.5333 0.40983 0.35444 0.0
H863 H 0.55377 0.42209 0.32667 0.0
H864 H 0.58461 0.48254 0.40396 0.0
H865 H 0.57595 0.47316 0.48581 0.0
H866 H 0.53225 0.4267 0.43457 0.0
C867 C 0.54818 0.45039 0.25382 0.0
C868 C 0.55892 0.46543 0.22868 0.0
C869 C 0.57235 0.47945 0.25233 0.0
C870 C 0.5752 0.4785 0.30046 0.0
C871 C 0.56438 0.46349 0.3244 0.0
C872 C 0.55097 0.44978 0.30209 0.0
C873 C 0.54005 0.43595 0.337 0.0
C874 C 0.52172 0.43262 0.33706 0.0
C875 C 0.54048 0.41954 0.32694 0.0
C876 C 0.54919 0.4442 0.3825 0.0
C877 C 0.56345 0.45988 0.37427 0.0
C878 C 0.57353 0.47024 0.4109 0.0
C879 C 0.56854 0.46475 0.45732 0.0
C880 C 0.5534 0.4492 0.46666 0.0
C881 C 0.54394 0.43859 0.42861 0.0
H882 H 0.54742 0.13183 0.39338 0.0
H883 H 0.58472 0.11593 0.41008 0.0
H884 H 0.59337 0.12334 0.32738 0.0
H885 H 0.53137 0.11274 0.29679 0.0
H886 H 0.52786 0.12836 0.26775 0.0
H887 H 0.52908 0.12831 0.33062 0.0
H888 H 0.55345 0.15975 0.33013 0.0
H889 H 0.55217 0.15999 0.2667 0.0
H890 H 0.57213 0.16591 0.29487 0.0
H891 H 0.59101 0.12271 0.24158 0.0
H892 H 0.57898 0.11597 0.16104 0.0
H893 H 0.54396 0.13309 0.198 0.0
C894 C 0.55793 0.13064 0.38009 0.0
C895 C 0.56527 0.12317 0.40774 0.0
C896 C 0.57891 0.12166 0.38941 0.0
C897 C 0.58399 0.12595 0.34248 0.0
C898 C 0.57557 0.13208 0.31486 0.0
C899 C 0.56309 0.13487 0.33336 0.0
C900 C 0.5538 0.13847 0.29502 0.0
C901 C 0.53441 0.12623 0.29772 0.0
C902 C 0.55816 0.15714 0.29679 0.0
C903 C 0.56151 0.13516 0.25204 0.0
C904 C 0.57452 0.13215 0.26403 0.0
C905 C 0.58142 0.12578 0.23137 0.0
C906 C 0.57449 0.12189 0.18592 0.0
C907 C 0.56091 0.12443 0.17405 0.0
C908 C 0.55478 0.13168 0.20661 0.0
H909 H 0.77743 0.58456 0.72986 0.0
H910 H 0.80883 0.5611 0.72649 0.0
H911 H 0.80235 0.55331 0.81045 0.0
H912 H 0.79066 0.60319 0.84201 0.0
H913 H 0.77018 0.59999 0.8591 0.0
H914 H 0.77602 0.60231 0.7978 0.0
H915 H 0.749 0.57342 0.77918 0.0
H916 H 0.74304 0.57102 0.84048 0.0
H917 H 0.74512 0.5546 0.81084 0.0
H918 H 0.79316 0.54892 0.895 0.0
H919 H 0.78311 0.54952 0.97549 0.0
H920 H 0.75879 0.57696 0.92356 0.0
C921 C 0.78274 0.57756 0.74657 0.0
C922 C 0.79352 0.57331 0.72176 0.0
C923 C 0.80051 0.56445 0.74501 0.0
C924 C 0.79685 0.55991 0.79254 0.0
C925 C 0.78629 0.56445 0.81612 0.0
C926 C 0.7794 0.57314 0.794 0.0
C927 C 0.76935 0.57749 0.82795 0.0
C928 C 0.77702 0.59689 0.83194 0.0
C929 C 0.75051 0.5686 0.81376 0.0
C930 C 0.77184 0.57007 0.87279 0.0
C931 C 0.78145 0.5624 0.86514 0.0
C932 C 0.78558 0.55483 0.90145 0.0
C933 C 0.77982 0.55523 0.94695 0.0
C934 C 0.77025 0.56334 0.95557 0.0
C935 C 0.76615 0.57073 0.91793 0.0
H936 H 0.43203 0.18918 0.68622 0.0
H937 H 0.45906 0.24431 0.68274 0.0
H938 H 0.46586 0.24516 0.76741 0.0
H939 H 0.41124 0.18594 0.78685 0.0
H940 H 0.41119 0.16751 0.81055 0.0
H941 H 0.41253 0.17091 0.74798 0.0
H942 H 0.44036 0.16974 0.74478 0.0
H943 H 0.43899 0.16606 0.80749 0.0
H944 H 0.45791 0.18356 0.78238 0.0
H945 H 0.46575 0.24013 0.85348 0.0
H946 H 0.45764 0.22981 0.93503 0.0
H947 H 0.42865 0.17787 0.88351 0.0
C948 C 0.44009 0.20139 0.7029 0.0
C949 C 0.44543 0.21669 0.67808 0.0
C950 C 0.45517 0.23249 0.70126 0.0
C951 C 0.45911 0.23307 0.74921 0.0
C952 C 0.45302 0.21772 0.77338 0.0
C953 C 0.44372 0.20215 0.751 0.0
C954 C 0.43616 0.18765 0.78614 0.0
C955 C 0.41663 0.17742 0.78266 0.0
C956 C 0.44382 0.17607 0.77982 0.0
C957 C 0.44199 0.19754 0.83183 0.0
C958 C 0.45211 0.21481 0.82367 0.0
C959 C 0.45807 0.22661 0.86035 0.0
C960 C 0.45335 0.22063 0.90653 0.0
C961 C 0.44249 0.20305 0.91546 0.0
C962 C 0.43702 0.19137 0.87766 0.0
H963 H 0.76102 0.1978 0.73134 0.0
H964 H 0.80476 0.24119 0.66786 0.0
H965 H 0.81482 0.25357 0.7466 0.0
H966 H 0.75596 0.22207 0.83244 0.0
H967 H 0.75004 0.20453 0.87233 0.0
H968 H 0.74465 0.20049 0.8107 0.0
H969 H 0.75998 0.18303 0.80611 0.0
H970 H 0.76559 0.18716 0.86739 0.0
H971 H 0.78195 0.19282 0.82367 0.0
H972 H 0.82288 0.25862 0.83098 0.0
H973 H 0.82717 0.25717 0.91638 0.0
H974 H 0.77781 0.21134 0.92661 0.0
C975 C 0.7724 0.21019 0.73385 0.0
C976 C 0.78208 0.21852 0.6933 0.0
C977 C 0.7971 0.23455 0.69828 0.0
C978 C 0.80291 0.24173 0.74292 0.0
C979 C 0.79347 0.23285 0.78226 0.0
C980 C 0.77838 0.21757 0.77823 0.0
C981 C 0.77147 0.20992 0.82633 0.0
C982 C 0.75452 0.20922 0.83602 0.0
C983 C 0.76965 0.19219 0.83113 0.0
C984 C 0.78546 0.22287 0.85781 0.0
C985 C 0.79795 0.23606 0.83162 0.0
C986 C 0.81299 0.24862 0.85205 0.0
C987 C 0.81537 0.24764 0.90045 0.0
C988 C 0.80273 0.23428 0.92795 0.0
C989 C 0.78747 0.22192 0.90648 0.0
H990 H 0.43204 0.2131 0.40563 0.0
H991 H 0.41722 0.25157 0.40993 0.0
H992 H 0.42431 0.25767 0.32545 0.0
H993 H 0.46632 0.23343 0.31689 0.0
H994 H 0.4604 0.21351 0.28813 0.0
H995 H 0.45676 0.21395 0.35045 0.0
H996 H 0.42483 0.19184 0.33878 0.0
H997 H 0.42843 0.19122 0.27666 0.0
H998 H 0.41262 0.19617 0.29682 0.0
H999 H 0.43157 0.25864 0.24067 0.0
H1000 H 0.43405 0.25141 0.15845 0.0
H1001 H 0.44195 0.21066 0.20754 0.0
C1002 C 0.43061 0.223 0.38875 0.0
C1003 C 0.4243 0.23203 0.4139 0.0
C1004 C 0.42208 0.24457 0.39088 0.0
C1005 C 0.42623 0.24823 0.34318 0.0
C1006 C 0.43235 0.23905 0.31908 0.0
C1007 C 0.43426 0.22648 0.3408 0.0
C1008 C 0.43893 0.21699 0.30552 0.0
C1009 C 0.45666 0.21964 0.31587 0.0
C1010 C 0.42539 0.19793 0.30438 0.0
C1011 C 0.43891 0.2259 0.26047 0.0
C1012 C 0.4356 0.23891 0.26932 0.0
C1013 C 0.43428 0.24856 0.23323 0.0
C1014 C 0.43578 0.24439 0.18664 0.0
C1015 C 0.43817 0.23046 0.17666 0.0
C1016 C 0.4402 0.22142 0.21416 0.0
H1017 H 0.77503 0.20579 0.42724 0.0
H1018 H 0.73264 0.15403 0.41785 0.0
H1019 H 0.73285 0.15646 0.33119 0.0
H1020 H 0.76336 0.22351 0.32648 0.0
H1021 H 0.78506 0.23649 0.3072 0.0
H1022 H 0.78042 0.23151 0.36884 0.0
H1023 H 0.80052 0.21906 0.37069 0.0
H1024 H 0.80524 0.22404 0.30919 0.0
H1025 H 0.79719 0.20253 0.32952 0.0
H1026 H 0.73839 0.16377 0.24628 0.0
H1027 H 0.75029 0.17455 0.16763 0.0
H1028 H 0.79013 0.22126 0.23073 0.0
C1029 C 0.76561 0.19511 0.40687 0.0
C1030 C 0.7537 0.17977 0.42912 0.0
C1031 C 0.74184 0.1659 0.40141 0.0
C1032 C 0.7418 0.16719 0.35223 0.0
C1033 C 0.7538 0.1824 0.33125 0.0
C1034 C 0.76559 0.19608 0.35754 0.0
C1035 C 0.77804 0.21039 0.32583 0.0
C1036 C 0.77663 0.22643 0.33249 0.0
C1037 C 0.79633 0.21422 0.33432 0.0
C1038 C 0.77158 0.20246 0.27771 0.0
C1039 C 0.7574 0.18644 0.28179 0.0
C1040 C 0.74943 0.17634 0.24256 0.0
C1041 C 0.75631 0.18261 0.19796 0.0
C1042 C 0.77118 0.19877 0.1928 0.0
C1043 C 0.7787 0.20891 0.23334 0.0
H1044 H 0.82115 0.57051 0.41312 0.0
H1045 H 0.77353 0.5569 0.48248 0.0
H1046 H 0.75793 0.54273 0.40964 0.0
H1047 H 0.81262 0.58202 0.30859 0.0
H1048 H 0.82291 0.57356 0.27228 0.0
H1049 H 0.82964 0.57953 0.33207 0.0
H1050 H 0.8243 0.54912 0.34855 0.0
H1051 H 0.81729 0.54301 0.28859 0.0
H1052 H 0.80367 0.53091 0.33684 0.0
H1053 H 0.7484 0.53539 0.32651 0.0
H1054 H 0.74594 0.53635 0.24014 0.0
H1055 H 0.79945 0.55276 0.22604 0.0
C1056 C 0.80741 0.56425 0.41317 0.0
C1057 C 0.79851 0.56484 0.45305 0.0
C1058 C 0.78056 0.55654 0.4521 0.0
C1059 C 0.77159 0.54835 0.41108 0.0
C1060 C 0.78077 0.54822 0.37191 0.0
C1061 C 0.79829 0.55579 0.37286 0.0
C1062 C 0.80535 0.55557 0.32486 0.0
C1063 C 0.81837 0.57374 0.30851 0.0
C1064 C 0.81311 0.54395 0.32472 0.0
C1065 C 0.78923 0.54793 0.29596 0.0
C1066 C 0.77511 0.54336 0.32385 0.0
C1067 C 0.75924 0.53843 0.30436 0.0
C1068 C 0.75796 0.53903 0.25525 0.0
C1069 C 0.7725 0.5446 0.22642 0.0
C1070 C 0.78804 0.54813 0.24704 0.0
H1071 H 0.52327 0.08375 0.7033 0.0
H1072 H 0.55404 0.13449 0.64581 0.0
H1073 H 0.55263 0.14691 0.7217 0.0
H1074 H 0.49684 0.09575 0.78565 0.0
H1075 H 0.49616 0.08112 0.82968 0.0
H1076 H 0.4961 0.07632 0.76795 0.0
H1077 H 0.52238 0.07287 0.78112 0.0
H1078 H 0.52256 0.07771 0.84242 0.0
H1079 H 0.54128 0.09016 0.80711 0.0
H1080 H 0.55546 0.15324 0.80675 0.0
H1081 H 0.55866 0.15291 0.89338 0.0
H1082 H 0.52283 0.09872 0.89501 0.0
C1083 C 0.52913 0.09744 0.70641 0.0
C1084 C 0.53881 0.1082 0.66927 0.0
C1085 C 0.54647 0.12607 0.67407 0.0
C1086 C 0.54569 0.13323 0.71694 0.0
C1087 C 0.53667 0.12232 0.75386 0.0
C1088 C 0.52803 0.10477 0.74857 0.0
C1089 C 0.52083 0.09588 0.79492 0.0
C1090 C 0.50132 0.08673 0.79451 0.0
C1091 C 0.52716 0.08345 0.80708 0.0
C1092 C 0.52819 0.11107 0.82764 0.0
C1093 C 0.53713 0.12626 0.80331 0.0
C1094 C 0.54784 0.1416 0.82632 0.0
C1095 C 0.54969 0.14133 0.8753 0.0
C1096 C 0.54058 0.12589 0.9003 0.0
C1097 C 0.52929 0.11078 0.87648 0.0
H1098 H 0.87435 0.45174 0.70059 0.0
H1099 H 0.91955 0.44924 0.66804 0.0
H1100 H 0.92061 0.44083 0.75044 0.0
H1101 H 0.88934 0.47178 0.81072 0.0
H1102 H 0.86884 0.46122 0.83904 0.0
H1103 H 0.87029 0.46467 0.77637 0.0
H1104 H 0.85017 0.43232 0.76281 0.0
H1105 H 0.84873 0.42876 0.82555 0.0
H1106 H 0.85549 0.41734 0.78767 0.0
H1107 H 0.91701 0.43329 0.83551 0.0
H1108 H 0.91189 0.4314 0.92115 0.0
H1109 H 0.87069 0.44171 0.90008 0.0
C1110 C 0.88428 0.44914 0.7109 0.0
C1111 C 0.89675 0.45083 0.67853 0.0
C1112 C 0.90989 0.44788 0.69284 0.0
C1113 C 0.91049 0.44299 0.73923 0.0
C1114 C 0.89802 0.44146 0.7706 0.0
C1115 C 0.88534 0.44475 0.75733 0.0
C1116 C 0.87472 0.44415 0.79908 0.0
C1117 C 0.87588 0.46149 0.80675 0.0
C1118 C 0.85618 0.42979 0.79343 0.0
C1119 C 0.88355 0.44023 0.83802 0.0
C1120 C 0.89665 0.43827 0.82056 0.0
C1121 C 0.90678 0.43476 0.84967 0.0
C1122 C 0.90372 0.43364 0.89817 0.0
C1123 C 0.8909 0.43643 0.91698 0.0
C1124 C 0.88055 0.43953 0.88647 0.0
H1125 H 0.54255 0.43806 0.73769 0.0
H1126 H 0.48909 0.39973 0.73628 0.0
H1127 H 0.4906 0.39393 0.82066 0.0
H1128 H 0.55681 0.41801 0.82928 0.0
H1129 H 0.57102 0.43833 0.85596 0.0
H1130 H 0.56682 0.43697 0.79352 0.0
H1131 H 0.55731 0.4594 0.80155 0.0
H1132 H 0.56165 0.46093 0.86365 0.0
H1133 H 0.54086 0.45579 0.84323 0.0
H1134 H 0.49688 0.39442 0.90565 0.0
H1135 H 0.50606 0.40404 -0.01303 0.0
H1136 H 0.55515 0.44333 0.93497 0.0
C1137 C 0.53133 0.42813 0.75504 0.0
C1138 C 0.51576 0.41916 0.73075 0.0
C1139 C 0.50114 0.40666 0.75455 0.0
C1140 C 0.50193 0.40316 0.80223 0.0
C1141 C 0.51741 0.41239 0.82561 0.0
C1142 C 0.53182 0.42478 0.80299 0.0
C1143 C 0.54608 0.43473 0.83774 0.0
C1144 C 0.56107 0.43183 0.82857 0.0
C1145 C 0.55179 0.45383 0.83647 0.0
C1146 C 0.53719 0.42652 0.88357 0.0
C1147 C 0.52087 0.41327 0.87558 0.0
C1148 C 0.50971 0.40462 0.91241 0.0
C1149 C 0.51507 0.41018 0.95858 0.0
C1150 C 0.53132 0.4245 0.96743 0.0
C1151 C 0.54273 0.43224 0.92948 0.0
H1152 H 0.53395 0.78038 0.78901 0.0
H1153 H 0.53278 0.73449 0.83741 0.0
H1154 H 0.53086 0.72501 0.75512 0.0
H1155 H 0.50527 0.76011 0.68255 0.0
H1156 H 0.51752 0.77916 0.64823 0.0
H1157 H 0.51531 0.78065 0.71096 0.0
H1158 H 0.54808 0.7978 0.71906 0.0
H1159 H 0.55043 0.79612 0.65674 0.0
H1160 H 0.56044 0.78871 0.69763 0.0
H1161 H 0.53583 0.72383 0.6694 0.0
H1162 H 0.54326 0.72909 0.58486 0.0
H1163 H 0.53927 0.77461 0.5907 0.0
C1164 C 0.53264 0.76804 0.78241 0.0
C1165 C 0.53353 0.75819 0.81968 0.0
C1166 C 0.532 0.7422 0.80954 0.0
C1167 C 0.53094 0.73672 0.76284 0.0
C1168 C 0.53103 0.74717 0.7268 0.0
C1169 C 0.53138 0.76229 0.73602 0.0
C1170 C 0.53286 0.77187 0.69092 0.0
C1171 C 0.51678 0.77301 0.68268 0.0
C1172 C 0.54891 0.78967 0.69114 0.0
C1173 C 0.53427 0.76026 0.65516 0.0
C1174 C 0.53311 0.74604 0.6766 0.0
C1175 C 0.53619 0.73459 0.65192 0.0
C1176 C 0.54053 0.73774 0.60413 0.0
C1177 C 0.54153 0.75207 0.58151 0.0
C1178 C 0.53809 0.76331 0.60711 0.0
H1179 H 0.21671 0.77643 0.60551 0.0
H1180 H 0.25413 0.83025 0.59858 0.0
H1181 H 0.25989 0.83025 0.68366 0.0
H1182 H 0.19898 0.77908 0.7118 0.0
H1183 H 0.19459 0.75865 0.73379 0.0
H1184 H 0.19548 0.7623 0.67133 0.0
H1185 H 0.2184 0.75349 0.66324 0.0
H1186 H 0.21768 0.74998 0.72595 0.0
H1187 H 0.23759 0.76433 0.69774 0.0
H1188 H 0.26007 0.82499 0.77017 0.0
H1189 H 0.25195 0.8159 0.85268 0.0
H1190 H 0.21343 0.76586 0.80396 0.0
C1191 C 0.22636 0.7881 0.62182 0.0
C1192 C 0.23511 0.8033 0.59561 0.0
C1193 C 0.24732 0.81847 0.6182 0.0
C1194 C 0.25079 0.81856 0.66636 0.0
C1195 C 0.24184 0.80339 0.69146 0.0
C1196 C 0.22973 0.78848 0.67009 0.0
C1197 C 0.2204 0.7745 0.70602 0.0
C1198 C 0.20124 0.76828 0.70572 0.0
C1199 C 0.22372 0.7597 0.69773 0.0
C1200 C 0.2288 0.78401 0.75099 0.0
C1201 C 0.24145 0.80052 0.74175 0.0
C1202 C 0.25032 0.81203 0.77787 0.0
C1203 C 0.24568 0.80673 0.82467 0.0
C1204 C 0.23208 0.79017 0.83477 0.0
C1205 C 0.22397 0.77856 0.79738 0.0
H1206 H 0.22159 0.44877 0.60007 0.0
H1207 H 0.16926 0.43698 0.59198 0.0
H1208 H 0.16964 0.44304 0.67711 0.0
H1209 H 0.21632 0.42714 0.70557 0.0
H1210 H 0.23714 0.44166 0.72868 0.0
H1211 H 0.23377 0.4395 0.66603 0.0
H1212 H 0.24569 0.47203 0.65925 0.0
H1213 H 0.24897 0.47424 0.72212 0.0
H1214 H 0.23634 0.48187 0.69386 0.0
H1215 H 0.17493 0.44832 0.76318 0.0
H1216 H 0.18312 0.44821 0.8459 0.0
H1217 H 0.23134 0.45438 0.79935 0.0
C1218 C 0.21039 0.44788 0.61622 0.0
C1219 C 0.19547 0.44268 0.58981 0.0
C1220 C 0.18081 0.44105 0.61195 0.0
C1221 C 0.18097 0.44461 0.66005 0.0
C1222 C 0.19582 0.44955 0.68546 0.0
C1223 C 0.2102 0.45095 0.66451 0.0
C1224 C 0.22363 0.4541 0.70089 0.0
C1225 C 0.22796 0.43974 0.70025 0.0
C1226 C 0.2396 0.47161 0.69358 0.0
C1227 C 0.21438 0.45376 0.74561 0.0
C1228 C 0.19857 0.45164 0.73579 0.0
C1229 C 0.18734 0.45013 0.77137 0.0
C1230 C 0.19214 0.45014 0.81829 0.0
C1231 C 0.20786 0.45127 0.82907 0.0
C1232 C 0.21928 0.4536 0.7922 0.0
H1233 H 0.45958 0.89976 0.01432 0.0
H1234 H 0.41799 0.90498 0.95875 0.0
H1235 H 0.40513 0.89949 0.03775 0.0
H1236 H 0.4336 0.86619 0.10485 0.0
H1237 H 0.45078 0.87527 0.14684 0.0
H1238 H 0.45531 0.87677 0.08458 0.0
H1239 H 0.47389 0.90955 0.09223 0.0
H1240 H 0.46932 0.90819 0.15424 0.0
H1241 H 0.46477 0.92145 0.11695 0.0
H1242 H 0.39959 0.89878 0.12334 0.0
H1243 H 0.40055 0.90065 0.21022 0.0
H1244 H 0.44468 0.89435 0.21134 0.0
C1245 C 0.4475 0.89924 0.01844 0.0
C1246 C 0.43981 0.90281 0.98023 0.0
C1247 C 0.42414 0.90226 -0.01265 0.0
C1248 C 0.41669 0.8991 0.03213 0.0
C1249 C 0.42492 0.89627 0.06935 0.0
C1250 C 0.43983 0.89601 0.06295 0.0
C1251 C 0.4468 0.89406 0.1096 0.0
C1252 C 0.44661 0.87706 0.11157 0.0
C1253 C 0.46475 0.90922 0.11877 0.0
C1254 C 0.43392 0.89411 0.14335 0.0
C1255 C 0.42133 0.89526 0.11926 0.0
C1256 C 0.40908 0.8974 0.14262 0.0
C1257 C 0.40978 0.89855 0.19186 0.0
C1258 C 0.42252 0.89738 0.21716 0.0
C1259 C 0.43454 0.8948 0.19269 0.0
H1260 H 0.09708 0.55797 0.01018 0.0
H1261 H 0.09297 0.51172 0.95278 0.0
H1262 H 0.09493 0.5025 0.03299 0.0
H1263 H 0.12569 0.56256 0.11367 0.0
H1264 H 0.11485 0.57009 0.15113 0.0
H1265 H 0.11699 0.57482 0.08895 0.0
H1266 H 0.08436 0.56144 0.08262 0.0
H1267 H 0.08205 0.5564 0.14436 0.0
H1268 H 0.07071 0.53977 0.10159 0.0
H1269 H 0.09104 0.4955 0.11813 0.0
H1270 H 0.0842 0.49235 0.20299 0.0
H1271 H 0.09165 0.54339 0.20639 0.0
C1272 C 0.09728 0.54622 0.01424 0.0
C1273 C 0.09489 0.53558 0.9751 0.0
C1274 C 0.09486 0.52013 0.98211 0.0
C1275 C 0.09598 0.51479 0.02761 0.0
C1276 C 0.09738 0.52514 0.06563 0.0
C1277 C 0.09839 0.54071 0.05943 0.0
C1278 C 0.09795 0.54852 0.1063 0.0
C1279 C 0.11488 0.56497 0.11556 0.0
C1280 C 0.08287 0.55171 0.10883 0.0
C1281 C 0.09557 0.53448 0.13961 0.0
C1282 C 0.09549 0.5212 0.11543 0.0
C1283 C 0.09157 0.506 0.13766 0.0
C1284 C 0.08757 0.50427 0.18574 0.0
C1285 C 0.08758 0.5177 0.21112 0.0
C1286 C 0.09195 0.5331 0.18794 0.0
H1287 H 0.42714 0.53745 0.00743 0.0
H1288 H 0.47438 0.57952 0.95432 0.0
H1289 H 0.48451 0.58797 0.03588 0.0
H1290 H 0.42463 0.55998 0.11556 0.0
H1291 H 0.4159 0.54073 0.14997 0.0
H1292 H 0.41145 0.53962 0.08776 0.0
H1293 H 0.42296 0.51891 0.07694 0.0
H1294 H 0.4278 0.52022 0.13878 0.0
H1295 H 0.44427 0.52538 0.0958 0.0
H1296 H 0.4914 0.58875 0.12164 0.0
H1297 H 0.49299 0.58436 0.20701 0.0
H1298 H 0.44084 0.54264 0.20485 0.0
C1299 C 0.4394 0.54876 0.01293 0.0
C1300 C 0.44996 0.55782 0.97443 0.0
C1301 C 0.46599 0.57245 0.98318 0.0
C1302 C 0.4719 0.57731 0.02942 0.0
C1303 C 0.4615 0.5676 0.06648 0.0
C1304 C 0.44541 0.55388 0.05883 0.0
C1305 C 0.43715 0.54499 0.10461 0.0
C1306 C 0.42135 0.54642 0.11509 0.0
C1307 C 0.4328 0.52627 0.10396 0.0
C1308 C 0.45135 0.55545 0.13897 0.0
C1309 C 0.46529 0.56842 0.11627 0.0
C1310 C 0.48044 0.5789 0.13999 0.0
C1311 C 0.48127 0.5762 0.18833 0.0
C1312 C 0.467 0.56324 0.21243 0.0
C1313 C 0.45185 0.5528 0.18737 0.0
H1314 H 0.08473 0.54267 0.7091 0.0
H1315 H 0.06873 0.58032 0.70788 0.0
H1316 H 0.07076 0.58162 0.62103 0.0
H1317 H 0.11425 0.55953 0.61017 0.0
H1318 H 0.10833 0.53874 0.58732 0.0
H1319 H 0.10688 0.54165 0.64965 0.0
H1320 H 0.07509 0.51817 0.64887 0.0
H1321 H 0.07649 0.5151 0.5867 0.0
H1322 H 0.06078 0.51993 0.60845 0.0
H1323 H 0.07397 0.57848 0.53467 0.0
H1324 H 0.07511 0.56894 0.45414 0.0
H1325 H 0.08794 0.53243 0.51101 0.0
C1326 C 0.0818 0.55128 0.69052 0.0
C1327 C 0.07667 0.56147 0.71515 0.0
C1328 C 0.07267 0.57239 0.68965 0.0
C1329 C 0.0739 0.57331 0.64038 0.0
C1330 C 0.07903 0.56313 0.61713 0.0
C1331 C 0.08273 0.55218 0.64125 0.0
C1332 C 0.08678 0.54175 0.60754 0.0
C1333 C 0.10515 0.54566 0.61407 0.0
C1334 C 0.07402 0.52261 0.61323 0.0
C1335 C 0.08455 0.54839 0.56071 0.0
C1336 C 0.08037 0.56093 0.5671 0.0
C1337 C 0.07728 0.56871 0.52918 0.0
C1338 C 0.07801 0.56322 0.48351 0.0
C1339 C 0.08161 0.54991 0.47611 0.0
C1340 C 0.08524 0.54268 0.51536 0.0
H1341 H 0.43548 0.54462 0.70294 0.0
H1342 H 0.39913 0.49046 0.70578 0.0
H1343 H 0.39442 0.49092 0.62021 0.0
H1344 H 0.41525 0.5565 0.60663 0.0
H1345 H 0.43553 0.57139 0.58118 0.0
H1346 H 0.4337 0.56762 0.64386 0.0
H1347 H 0.45741 0.55978 0.64022 0.0
H1348 H 0.45938 0.56367 0.57782 0.0
H1349 H 0.45518 0.54334 0.60021 0.0
H1350 H 0.39578 0.49645 0.53415 0.0
H1351 H 0.40556 0.50575 0.4529 0.0
H1352 H 0.4421 0.55612 0.50484 0.0
C1353 C 0.42621 0.53299 0.68561 0.0
C1354 C 0.4175 0.51755 0.71077 0.0
C1355 C 0.40586 0.50243 0.68694 0.0
C1356 C 0.403 0.5026 0.6385 0.0
C1357 C 0.41197 0.51797 0.61438 0.0
C1358 C 0.42346 0.53288 0.63701 0.0
C1359 C 0.43318 0.54711 0.60195 0.0
C1360 C 0.42917 0.56151 0.60883 0.0
C1361 C 0.45242 0.55386 0.60525 0.0
C1362 C 0.42582 0.5377 0.55609 0.0
C1363 C 0.41326 0.52105 0.56412 0.0
C1364 C 0.40544 0.50952 0.52734 0.0
C1365 C 0.41107 0.51494 0.48122 0.0
C1366 C 0.42462 0.53167 0.4724 0.0
C1367 C 0.4316 0.54331 0.51029 0.0
H1368 H 0.4515 0.90594 0.71263 0.0
H1369 H 0.50387 0.9175 0.70958 0.0
H1370 H 0.50077 0.90925 0.62562 0.0
H1371 H 0.434 0.87003 0.62906 0.0
H1372 H 0.42017 0.87633 0.60154 0.0
H1373 H 0.42577 0.88112 0.66283 0.0
H1374 H 0.43702 0.91314 0.6468 0.0
H1375 H 0.43129 0.9084 0.58572 0.0
H1376 H 0.45281 0.92387 0.60163 0.0
H1377 H 0.49246 0.901 0.54154 0.0
H1378 H 0.4809 0.89713 0.46101 0.0
H1379 H 0.43436 0.89236 0.51752 0.0
C1380 C 0.46221 0.90648 0.69436 0.0
C1381 C 0.47788 0.91221 0.71751 0.0
C1382 C 0.49176 0.91315 0.69236 0.0
C1383 C 0.49007 0.90834 0.64483 0.0
C1384 C 0.47447 0.90278 0.62288 0.0
C1385 C 0.46084 0.90204 0.64661 0.0
C1386 C 0.44606 0.89733 0.61359 0.0
C1387 C 0.43059 0.88018 0.6276 0.0
C1388 C 0.44154 0.91153 0.61183 0.0
C1389 C 0.45364 0.8959 0.56745 0.0
C1390 C 0.46988 0.89868 0.5738 0.0
C1391 C 0.47971 0.89869 0.53611 0.0
C1392 C 0.47299 0.89641 0.49047 0.0
C1393 C 0.45672 0.89445 0.48287 0.0
C1394 C 0.4468 0.89373 0.52213 0.0
H1395 H 0.21535 0.45954 0.29814 0.0
H1396 H 0.25888 0.45615 0.34547 0.0
H1397 H 0.26771 0.457 0.26303 0.0
H1398 H 0.20421 0.43228 0.20875 0.0
H1399 H 0.19809 0.44325 0.16727 0.0
H1400 H 0.19722 0.44654 0.22939 0.0
H1401 H 0.21691 0.47906 0.21893 0.0
H1402 H 0.2176 0.47596 0.15635 0.0
H1403 H 0.23707 0.48707 0.18954 0.0
H1404 H 0.26754 0.45069 0.17799 0.0
H1405 H 0.26084 0.44207 0.09449 0.0
H1406 H 0.21877 0.45157 0.10051 0.0
C1407 C 0.22713 0.45969 0.29125 0.0
C1408 C 0.23639 0.45773 0.32825 0.0
C1409 C 0.25162 0.45775 0.31779 0.0
C1410 C 0.25673 0.4582 0.27099 0.0
C1411 C 0.24673 0.45906 0.23519 0.0
C1412 C 0.23251 0.46032 0.24474 0.0
C1413 C 0.22303 0.4594 0.19992 0.0
C1414 C 0.20456 0.44448 0.20147 0.0
C1415 C 0.2237 0.47639 0.19064 0.0
C1416 C 0.23349 0.45628 0.16411 0.0
C1417 C 0.24718 0.45625 0.18517 0.0
C1418 C 0.25727 0.4513 0.1607 0.0
C1419 C 0.2533 0.44629 0.11355 0.0
C1420 C 0.23951 0.44648 0.09135 0.0
C1421 C 0.22969 0.45183 0.11661 0.0
H1422 H 0.54127 0.77347 0.09274 0.0
H1423 H 0.5616 0.82797 0.08425 0.0
H1424 H 0.55621 0.8288 0.16937 0.0
H1425 H 0.50899 0.76386 0.18574 0.0
H1426 H 0.51328 0.74871 0.21433 0.0
H1427 H 0.51605 0.75184 0.1515 0.0
H1428 H 0.5472 0.75857 0.15908 0.0
H1429 H 0.54447 0.75532 0.2217 0.0
H1430 H 0.5614 0.77514 0.19885 0.0
H1431 H 0.55041 0.82408 0.25577 0.0
H1432 H 0.54857 0.81504 0.33865 0.0
H1433 H 0.53392 0.76397 0.29184 0.0
C1434 C 0.5442 0.78547 0.10878 0.0
C1435 C 0.55161 0.80062 0.08219 0.0
C1436 C 0.55584 0.81623 0.10428 0.0
C1437 C 0.55269 0.8168 0.1524 0.0
C1438 C 0.5455 0.80166 0.17794 0.0
C1439 C 0.54153 0.78632 0.15706 0.0
C1440 C 0.53607 0.77235 0.19345 0.0
C1441 C 0.51749 0.75836 0.18579 0.0
C1442 C 0.548 0.76492 0.19326 0.0
C1443 C 0.53802 0.78233 0.23809 0.0
C1444 C 0.543 0.79909 0.22828 0.0
C1445 C 0.54637 0.81095 0.26393 0.0
C1446 C 0.54521 0.80568 0.31091 0.0
C1447 C 0.54109 0.78881 0.32162 0.0
C1448 C 0.53699 0.77692 0.28469 0.0
H1449 H 0.22494 0.78013 0.30334 0.0
H1450 H 0.17533 0.74079 0.35183 0.0
H1451 H 0.16647 0.73236 0.2693 0.0
H1452 H 0.21135 0.79365 0.20976 0.0
H1453 H 0.22833 0.79742 0.16995 0.0
H1454 H 0.23183 0.79865 0.23254 0.0
H1455 H 0.24122 0.77611 0.22695 0.0
H1456 H 0.23803 0.77499 0.16405 0.0
H1457 H 0.22743 0.7559 0.19913 0.0
H1458 H 0.16142 0.73179 0.18236 0.0
H1459 H 0.16164 0.73669 0.09664 0.0
H1460 H 0.21496 0.77532 0.10422 0.0
C1461 C 0.21238 0.76939 0.2967 0.0
C1462 C 0.20083 0.7611 0.33404 0.0
C1463 C 0.18445 0.74722 0.32386 0.0
C1464 C 0.17928 0.74239 0.27706 0.0
C1465 C 0.19075 0.75133 0.241 0.0
C1466 C 0.2071 0.76429 0.2503 0.0
C1467 C 0.2166 0.77261 0.20524 0.0
C1468 C 0.22235 0.79171 0.20435 0.0
C1469 C 0.23171 0.76972 0.19844 0.0
C1470 C 0.20282 0.76277 0.1692 0.0
C1471 C 0.18801 0.75055 0.19056 0.0
C1472 C 0.17305 0.741 0.1651 0.0
C1473 C 0.17327 0.74397 0.11656 0.0
C1474 C 0.18837 0.75624 0.09394 0.0
C1475 C 0.20336 0.76561 0.12057 0.0
H1476 H 0.15762 0.20201 0.26813 0.0
H1477 H 0.19829 0.25426 0.28709 0.0
H1478 H 0.21946 0.2451 0.27789 0.0
H1479 H 0.17835 0.18181 0.32937 0.0
H1480 H 0.17019 0.16419 0.28866 0.0
H1481 H 0.1583 0.17475 0.30024 0.0
H1482 H 0.15788 0.18024 0.21074 0.0
H1483 H 0.16999 0.16994 0.19895 0.0
H1484 H 0.17766 0.19142 0.17894 0.0
H1485 H 0.23622 0.23058 0.26223 0.0
H1486 H 0.24739 0.21129 0.24603 0.0
H1487 H 0.19579 0.16865 0.23614 0.0
C1488 C 0.17097 0.21147 0.2713 0.0
C1489 C 0.17631 0.22883 0.27856 0.0
C1490 C 0.19391 0.24087 0.28172 0.0
C1491 C 0.20603 0.23581 0.27642 0.0
C1492 C 0.20035 0.21867 0.26797 0.0
C1493 C 0.18325 0.20665 0.26586 0.0
C1494 C 0.18054 0.18914 0.25492 0.0
C1495 C 0.1713 0.17674 0.29574 0.0
C1496 C 0.17095 0.18229 0.20811 0.0
C1497 C 0.19879 0.19323 0.25086 0.0
C1498 C 0.21002 0.21033 0.25853 0.0
C1499 C 0.22755 0.21714 0.25636 0.0
C1500 C 0.23377 0.20611 0.24692 0.0
C1501 C 0.22247 0.18849 0.23971 0.0
C1502 C 0.20476 0.18207 0.24129 0.0
H1503 H 0.78747 0.96371 0.28364 0.0
H1504 H 0.73917 0.96042 0.25404 0.0
H1505 H 0.75365 0.99187 0.24959 0.0
H1506 H 0.80623 0.00349 0.35339 0.0
H1507 H 0.82705 0.01083 0.32892 0.0
H1508 H 0.81246 0.98834 0.33578 0.0
H1509 H 0.81555 0.98373 0.24692 0.0
H1510 H 0.83004 0.00616 0.23973 0.0
H1511 H 0.8112 0.9956 0.20376 0.0
H1512 H 0.77417 0.02374 0.2405 0.0
H1513 H 0.79871 0.05273 0.22752 0.0
H1514 H 0.83306 0.03435 0.26265 0.0
C1515 C 0.77984 0.96958 0.27725 0.0
C1516 C 0.76218 0.95962 0.26939 0.0
C1517 C 0.75271 0.96782 0.26046 0.0
C1518 C 0.76082 0.98567 0.25792 0.0
C1519 C 0.77837 0.9951 0.26471 0.0
C1520 C 0.78771 0.98729 0.27452 0.0
C1521 C 0.80651 4e-05 0.2769 0.0
C1522 C 0.81347 0.00071 0.32672 0.0
C1523 C 0.81639 0.99615 0.2396 0.0
C1524 C 0.80639 0.01621 0.26552 0.0
C1525 C 0.79007 0.01323 0.25916 0.0
C1526 C 0.78699 0.02624 0.246 0.0
C1527 C 0.80098 0.04265 0.23868 0.0
C1528 C 0.81778 0.04579 0.24411 0.0
C1529 C 0.82038 0.0324 0.25839 0.0
H1530 H 0.95585 0.76423 0.25005 0.0
H1531 H 0.94785 0.80046 0.17048 0.0
H1532 H 0.97867 0.81898 0.16176 0.0
H1533 H 0.99178 0.79422 0.31323 0.0
H1534 H 0.00316 0.78275 0.31054 0.0
H1535 H 0.9803 0.77133 0.30824 0.0
H1536 H 0.98095 0.7573 0.22934 0.0
H1537 H 0.00383 0.76847 0.23175 0.0
H1538 H 0.99323 0.77057 0.18074 0.0
H1539 H 0.00974 0.83504 0.16863 0.0
H1540 H 0.04027 0.84631 0.1808 0.0
H1541 H 0.02928 0.79953 0.25198 0.0
C1542 C 0.96061 0.77588 0.22995 0.0
C1543 C 0.94941 0.78091 0.21111 0.0
C1544 C 0.95613 0.79632 0.18536 0.0
C1545 C 0.97364 0.80698 0.18026 0.0
C1546 C 0.98433 0.80199 0.20057 0.0
C1547 C 0.97818 0.78669 0.22406 0.0
C1548 C 0.99268 0.78466 0.24288 0.0
C1549 C 0.99193 0.78315 0.29693 0.0
C1550 C 0.99267 0.76934 0.21979 0.0
C1551 C 0.00784 0.80136 0.22698 0.0
C1552 C 0.00262 0.81116 0.203 0.0
C1553 C 0.01405 0.82742 0.18673 0.0
C1554 C 0.03137 0.83375 0.19418 0.0
C1555 C 0.03716 0.82379 0.21722 0.0
C1556 C 0.02521 0.80739 0.23403 0.0
H1557 H 0.83611 0.8074 0.73169 0.0
H1558 H 0.80085 0.75314 0.71797 0.0
H1559 H 0.77672 0.75834 0.72533 0.0
H1560 H 0.81309 0.81517 0.81903 0.0
H1561 H 0.81832 0.83576 0.79625 0.0
H1562 H 0.83266 0.82781 0.78724 0.0
H1563 H 0.83174 0.8316 0.6969 0.0
H1564 H 0.81758 0.83978 0.70567 0.0
H1565 H 0.81152 0.82184 0.66712 0.0
H1566 H 0.75651 0.76978 0.73587 0.0
H1567 H 0.74203 0.78647 0.74627 0.0
H1568 H 0.79106 0.83286 0.75569 0.0
C1569 C 0.82333 0.79659 0.7296 0.0
C1570 C 0.82034 0.77986 0.724 0.0
C1571 C 0.80341 0.76607 0.722 0.0
C1572 C 0.78965 0.7689 0.72629 0.0
C1573 C 0.7931 0.78557 0.73275 0.0
C1574 C 0.80954 0.79916 0.73419 0.0
C1575 C 0.80996 0.8158 0.74249 0.0
C1576 C 0.81904 0.82412 0.78902 0.0
C1577 C 0.81818 0.82797 0.70054 0.0
C1578 C 0.79116 0.80949 0.74556 0.0
C1579 C 0.78159 0.79204 0.73978 0.0
C1580 C 0.76389 0.78345 0.74053 0.0
C1581 C 0.75578 0.79301 0.7466 0.0
C1582 C 0.76542 0.81094 0.75207 0.0
C1583 C 0.78332 0.81916 0.75206 0.0
H1584 H 0.21802 0.02778 0.73247 0.0
H1585 H 0.17543 0.03582 0.70904 0.0
H1586 H 0.15581 0.00484 0.71075 0.0
H1587 H 0.20195 0.98985 0.65967 0.0
H1588 H 0.20988 0.97964 0.69814 0.0
H1589 H 0.22066 0.00253 0.69485 0.0
H1590 H 0.21766 0.00402 0.78531 0.0
H1591 H 0.20668 0.98112 0.78881 0.0
H1592 H 0.19688 0.99261 0.81189 0.0
H1593 H 0.14067 0.97331 0.71761 0.0
H1594 H 0.13105 0.94269 0.72141 0.0
H1595 H 0.18332 0.95465 0.73849 0.0
C1596 C 0.20459 0.023 0.72732 0.0
C1597 C 0.19827 0.03423 0.72068 0.0
C1598 C 0.18059 0.02748 0.7141 0.0
C1599 C 0.16932 0.0099 0.71523 0.0
C1600 C 0.1759 -0.0008 0.7227 0.0
C1601 C 0.19312 0.00543 0.72803 0.0
C1602 C 0.19682 0.99104 0.73472 0.0
C1603 C 0.20798 0.99075 0.69444 0.0
C1604 C 0.20499 0.99228 0.78306 0.0
C1605 C 0.17898 0.97581 0.73235 0.0
C1606 C 0.16712 0.98085 0.72582 0.0
C1607 C 0.14982 0.96917 0.72256 0.0
C1608 C 0.14448 0.9518 0.72495 0.0
C1609 C 0.15642 0.94627 0.73024 0.0
C1610 C 0.17388 0.95848 0.7346 0.0
H1611 H 0.95406 0.15208 0.76382 0.0
H1612 H 0.93463 0.1865 0.78484 0.0
H1613 H 0.9639 0.21003 0.80114 0.0
H1614 H 0.9872 0.17029 0.85445 0.0
H1615 H 0.00174 0.16686 0.81944 0.0
H1616 H 0.97917 0.15271 0.81362 0.0
H1617 H 0.98136 0.15864 0.72375 0.0
H1618 H 0.00388 0.1728 0.72928 0.0
H1619 H 0.9908 0.18029 0.70319 0.0
H1620 H -0.00405 0.23026 0.80785 0.0
H1621 H 0.02738 0.24504 0.80592 0.0
H1622 H 0.02492 0.19667 0.78193 0.0
C1623 C 0.95588 0.16451 0.77242 0.0
C1624 C 0.94209 0.1675 0.773 0.0
C1625 C 0.94503 0.18394 0.78439 0.0
C1626 C 0.9616 0.19735 0.79368 0.0
C1627 C 0.97496 0.19399 0.79198 0.0
C1628 C 0.97219 0.1779 0.78202 0.0
C1629 C 0.98862 0.1776 0.78016 0.0
C1630 C 0.98921 0.16619 0.81925 0.0
C1631 C 0.99132 0.17201 0.73119 0.0
C1632 C 0.00121 0.19615 0.7894 0.0
C1633 C 0.99315 0.20544 0.79646 0.0
C1634 C 0.00235 0.22305 0.80301 0.0
C1635 C 0.02019 0.23133 0.80181 0.0
C1636 C 0.0286 0.22199 0.79405 0.0
C1637 C 0.0189 0.20416 0.78849 0.0
H1638 H 0.84049 0.5424 0.61085 0.0
H1639 H 0.88279 0.58952 0.55802 0.0
H1640 H 0.89932 0.57497 0.54591 0.0
H1641 H 0.86564 0.52634 0.66994 0.0
H1642 H 0.85085 0.50468 0.65313 0.0
H1643 H 0.84343 0.51946 0.66281 0.0
H1644 H 0.83025 0.51302 0.57904 0.0
H1645 H 0.83778 0.49839 0.56887 0.0
H1646 H 0.84357 0.51586 0.52881 0.0
H1647 H 0.9102 0.55427 0.53354 0.0
H1648 H 0.91439 0.52951 0.52306 0.0
H1649 H 0.86438 0.49643 0.58232 0.0
C1650 C 0.85337 0.5498 0.59773 0.0
C1651 C 0.8604 0.56711 0.58562 0.0
C1652 C 0.8772 0.57626 0.56784 0.0
C1653 C 0.88668 0.5681 0.56082 0.0
C1654 C 0.87915 0.55085 0.57192 0.0
C1655 C 0.8629 0.54187 0.5903 0.0
C1656 C 0.85715 0.52324 0.59637 0.0
C1657 C 0.85409 0.51814 0.64867 0.0
C1658 C 0.84125 0.51197 0.56648 0.0
C1659 C 0.87254 0.523 0.57759 0.0
C1660 C 0.88521 0.53902 0.56407 0.0
C1661 C 0.90041 0.54169 0.54439 0.0
C1662 C 0.90267 0.52758 0.53846 0.0
C1663 C 0.8897 0.51107 0.55174 0.0
C1664 C 0.87453 0.50888 0.57171 0.0
H1665 H 0.45727 0.29205 0.57238 0.0
H1666 H 0.40471 0.27976 0.58041 0.0
H1667 H 0.41404 0.31043 0.57348 0.0
H1668 H 0.47534 0.331 0.63907 0.0
H1669 H 0.49416 0.34139 0.60296 0.0
H1670 H 0.4831 0.31861 0.60983 0.0
H1671 H 0.48043 0.3151 0.51898 0.0
H1672 H 0.49125 0.33788 0.51186 0.0
H1673 H 0.47051 0.32479 0.48628 0.0
H1674 H 0.42954 0.34281 0.56491 0.0
H1675 H 0.44977 0.37382 0.55966 0.0
H1676 H 0.49175 0.36404 0.55502 0.0
C1677 C 0.44768 0.29576 0.57318 0.0
C1678 C 0.43025 0.28351 0.57718 0.0
C1679 C 0.41814 0.28894 0.57765 0.0
C1680 C 0.42332 0.30632 0.5735 0.0
C1681 C 0.44063 0.31803 0.56871 0.0
C1682 C 0.4526 0.31294 0.56878 0.0
C1683 C 0.4704 0.3279 0.56296 0.0
C1684 C 0.48139 0.32984 0.60629 0.0
C1685 C 0.47862 0.32632 0.5173 0.0
C1686 C 0.46664 0.34229 0.55983 0.0
C1687 C 0.44942 0.33641 0.56307 0.0
C1688 C 0.44304 0.34752 0.56218 0.0
C1689 C 0.45462 0.36511 0.55897 0.0
C1690 C 0.47234 0.37136 0.55664 0.0
C1691 C 0.47829 0.3597 0.55626 0.0
H1692 H 0.62051 0.13388 0.58056 0.0
H1693 H 0.604 0.08092 0.61004 0.0
H1694 H 0.63379 0.08878 0.62589 0.0
H1695 H 0.6575 0.14314 0.51918 0.0
H1696 H 0.67002 0.1645 0.54181 0.0
H1697 H 0.64733 0.1549 0.53721 0.0
H1698 H 0.64558 0.16045 0.62612 0.0
H1699 H 0.66831 0.17008 0.63102 0.0
H1700 H 0.65459 0.15256 0.66884 0.0
H1701 H 0.66565 0.1022 0.63229 0.0
H1702 H 0.69693 0.11998 0.62826 0.0
H1703 H 0.69231 0.16411 0.59521 0.0
C1704 C 0.62309 0.12395 0.591 0.0
C1705 C 0.60992 0.10679 0.59418 0.0
C1706 C 0.61389 0.09416 0.60753 0.0
C1707 C 0.63076 0.09851 0.61669 0.0
C1708 C 0.64346 0.11554 0.61263 0.0
C1709 C 0.6398 0.12806 0.60028 0.0
C1710 C 0.65581 0.14526 0.59583 0.0
C1711 C 0.65778 0.15236 0.54552 0.0
C1712 C 0.65608 0.15783 0.63265 0.0
C1713 C 0.66911 0.14042 0.60649 0.0
C1714 C 0.66175 0.12325 0.61651 0.0
C1715 C 0.67154 0.11569 0.62506 0.0
C1716 C 0.68929 0.12589 0.62265 0.0
C1717 C 0.69707 0.14345 0.61168 0.0
C1718 C 0.68678 0.15079 0.60426 0.0
H1719 H 0.4627 0.16995 0.11946 0.0
H1720 H 0.4129 0.12768 0.08398 0.0
H1721 H 0.4241 0.10793 0.09 0.0
H1722 H 0.48504 0.15795 0.04968 0.0
H1723 H 0.503 0.16491 0.08853 0.0
H1724 H 0.49033 0.17495 0.09121 0.0
H1725 H 0.4849 0.16792 0.18028 0.0
H1726 H 0.4977 0.15793 0.17799 0.0
H1727 H 0.47622 0.14622 0.19979 0.0
H1728 H 0.44197 0.09354 0.08911 0.0
H1729 H 0.46473 0.08633 0.07943 0.0
H1730 H 0.50248 0.1385 0.11299 0.0
C1731 C 0.45398 0.15647 0.11441 0.0
C1732 C 0.4369 0.15033 0.10157 0.0
C1733 C 0.42601 0.13264 0.09428 0.0
C1734 C 0.43226 0.12132 0.0977 0.0
C1735 C 0.44937 0.12792 0.10873 0.0
C1736 C 0.46002 0.14511 0.11732 0.0
C1737 C 0.47827 0.14946 0.12299 0.0
C1738 C 0.48982 0.16258 0.08588 0.0
C1739 C 0.48464 0.15575 0.17326 0.0
C1740 C 0.4764 0.1322 0.11422 0.0
C1741 C 0.45963 0.11981 0.1071 0.0
C1742 C 0.4551 0.1031 0.09538 0.0
C1743 C 0.46807 0.09911 0.08995 0.0
C1744 C 0.48531 0.11188 0.09538 0.0
C1745 C 0.48939 0.12847 0.10868 0.0
H1746 H 0.86078 0.36447 0.07002 0.0
H1747 H 0.91231 0.37872 0.10924 0.0
H1748 H 0.903 0.34832 0.12305 0.0
H1749 H 0.83991 0.33146 0.15656 0.0
H1750 H 0.82252 0.31798 0.11806 0.0
H1751 H 0.83335 0.34076 0.11102 0.0
H1752 H 0.83968 0.33768 0.02356 0.0
H1753 H 0.82872 0.3149 0.03019 0.0
H1754 H 0.85035 0.32606 0.00933 0.0
H1755 H 0.88788 0.316 0.1298 0.0
H1756 H 0.86844 0.28478 0.12853 0.0
H1757 H 0.82681 0.29249 0.08853 0.0
C1758 C 0.87017 0.36124 0.08125 0.0
C1759 C 0.88731 0.37394 0.08822 0.0
C1760 C 0.89913 0.36917 0.1035 0.0
C1761 C 0.89395 0.35196 0.11155 0.0
C1762 C 0.87688 0.33977 0.10468 0.0
C1763 C 0.86519 0.34425 0.08997 0.0
C1764 C 0.84761 0.32885 0.08517 0.0
C1765 C 0.83511 0.32983 0.11977 0.0
C1766 C 0.84122 0.32675 0.03403 0.0
C1767 C 0.85122 0.3149 0.09881 0.0
C1768 C 0.86815 0.3214 0.10999 0.0
C1769 C 0.87457 0.3108 0.12155 0.0
C1770 C 0.86343 0.2931 0.12082 0.0
C1771 C 0.84609 0.28623 0.1089 0.0
C1772 C 0.83992 0.29735 0.09858 0.0
H1773 H 0.69294 0.52087 0.09754 0.0
H1774 H 0.70404 0.57305 0.08261 0.0
H1775 H 0.67369 0.56269 0.06767 0.0
H1776 H 0.66108 0.50271 0.00719 0.0
H1777 H 0.64777 0.48332 0.03915 0.0
H1778 H 0.6704 0.49474 0.04865 0.0
H1779 H 0.66573 0.49643 0.13818 0.0
H1780 H 0.6431 0.48484 0.12902 0.0
H1781 H 0.65297 0.5053 0.15786 0.0
H1782 H 0.64235 0.54677 0.05349 0.0
H1783 H 0.61161 0.52643 0.04731 0.0
H1784 H 0.62075 0.48454 0.07214 0.0
C1785 C 0.68898 0.53012 0.09136 0.0
C1786 C 0.70085 0.54777 0.09122 0.0
C1787 C 0.69516 0.55947 0.08301 0.0
C1788 C 0.67796 0.55371 0.07425 0.0
C1789 C 0.66663 0.53623 0.07394 0.0
C1790 C 0.67185 0.5246 0.08272 0.0
C1791 C 0.657 0.50651 0.08137 0.0
C1792 C 0.6592 0.49622 0.04172 0.0
C1793 C 0.65456 0.49776 0.12947 0.0
C1794 C 0.64261 0.5098 0.07067 0.0
C1795 C 0.64849 0.52703 0.06614 0.0
C1796 C 0.63759 0.53325 0.05694 0.0
C1797 C 0.62015 0.52158 0.05335 0.0
C1798 C 0.61378 0.50389 0.05915 0.0
C1799 C 0.62524 0.49796 0.06718 0.0
H1800 H 0.49442 0.87142 0.89311 0.0
H1801 H 0.54019 0.92116 0.89305 0.0
H1802 H 0.55766 0.90738 0.89549 0.0
H1803 H 0.50982 0.85113 0.97256 0.0
H1804 H 0.49911 0.83104 0.94181 0.0
H1805 H 0.49039 0.84497 0.94105 0.0
H1806 H 0.49047 0.84454 0.84966 0.0
H1807 H 0.49939 0.83079 0.85015 0.0
H1808 H 0.51002 0.85072 0.81873 0.0
H1809 H 0.57011 0.88803 0.89614 0.0
H1810 H 0.5765 0.86463 0.90001 0.0
H1811 H 0.52247 0.82777 0.8992 0.0
C1812 C 0.50811 0.87944 0.89402 0.0
C1813 C 0.51595 0.89737 0.89295 0.0
C1814 C 0.53391 0.90739 0.894 0.0
C1815 C 0.54394 0.89969 0.8952 0.0
C1816 C 0.5358 0.88196 0.89538 0.0
C1817 C 0.51829 0.87198 0.8952 0.0
C1818 C 0.51266 0.85322 0.89564 0.0
C1819 C 0.50239 0.84459 0.94043 0.0
C1820 C 0.50254 0.8443 0.85088 0.0
C1821 C 0.52973 0.8542 0.89605 0.0
C1822 C 0.54294 0.87087 0.89572 0.0
C1823 C 0.55987 0.87492 0.89642 0.0
C1824 C 0.56337 0.86155 0.89843 0.0
C1825 C 0.54999 0.84438 0.89979 0.0
C1826 C 0.53299 0.84074 0.89796 0.0
H1827 H 0.09632 0.6282 0.89886 0.0
H1828 H 0.13635 0.61698 0.86686 0.0
H1829 H 0.15733 0.64762 0.86673 0.0
H1830 H 0.11262 0.6663 0.82783 0.0
H1831 H 0.1069 0.67756 0.86953 0.0
H1832 H 0.09468 0.65465 0.86646 0.0
H1833 H 0.0998 0.65267 0.95548 0.0
H1834 H 0.11189 0.67556 0.9589 0.0
H1835 H 0.12124 0.66317 0.97781 0.0
H1836 H 0.174 0.67905 0.86996 0.0
H1837 H 0.18597 0.70981 0.882 0.0
H1838 H 0.13557 0.70135 0.91285 0.0
C1839 C 0.10951 0.63221 0.89192 0.0
C1840 C 0.11468 0.62017 0.8828 0.0
C1841 C 0.13206 0.62593 0.874 0.0
C1842 C 0.14409 0.64332 0.87362 0.0
C1843 C 0.13857 0.65484 0.88223 0.0
C1844 C 0.12175 0.6496 0.89161 0.0
C1845 C 0.11941 0.66474 0.90108 0.0
C1846 C 0.10771 0.66587 0.864 0.0
C1847 C 0.11269 0.66399 0.9513 0.0
C1848 C 0.13756 0.67926 0.89579 0.0
C1849 C 0.14833 0.6732 0.88453 0.0
C1850 C 0.16572 0.68398 0.87872 0.0
C1851 C 0.17239 0.70145 0.8856 0.0
C1852 C 0.16171 0.708 0.89831 0.0
C1853 C 0.14402 0.69674 0.90272 0.0
H1854 H 0.29165 0.46891 0.90372 0.0
H1855 H 0.2766 0.41545 0.91322 0.0
H1856 H 0.30678 0.42319 0.90771 0.0
H1857 H 0.32643 0.48132 0.8213 0.0
H1858 H 0.33938 0.50171 0.84921 0.0
H1859 H 0.31658 0.49165 0.85126 0.0
H1860 H 0.31788 0.49374 0.94248 0.0
H1861 H 0.34066 0.50357 0.94076 0.0
H1862 H 0.32828 0.4845 0.9749 0.0
H1863 H 0.33897 0.43717 0.90384 0.0
H1864 H 0.37015 0.45603 0.89812 0.0
H1865 H 0.36348 0.50008 0.89331 0.0
C1866 C 0.29464 0.45877 0.90396 0.0
C1867 C 0.28177 0.44156 0.90868 0.0
C1868 C 0.28626 0.42872 0.90936 0.0
C1869 C 0.30336 0.433 0.90643 0.0
C1870 C 0.31576 0.45016 0.90291 0.0
C1871 C 0.31157 0.46281 0.90135 0.0
C1872 C 0.32721 0.4803 0.89849 0.0
C1873 C 0.32741 0.48927 0.85231 0.0
C1874 C 0.32858 0.49116 0.94174 0.0
C1875 C 0.34091 0.47556 0.89886 0.0
C1876 C 0.33412 0.45814 0.90138 0.0
C1877 C 0.34441 0.45083 0.90182 0.0
C1878 C 0.3621 0.46164 0.89877 0.0
C1879 C 0.36925 0.47952 0.89548 0.0
C1880 C 0.35845 0.48648 0.8961 0.0
H1881 H 0.12409 0.5002 0.39606 0.0
H1882 H 0.07451 0.45428 0.39381 0.0
H1883 H 0.08822 0.43681 0.39937 0.0
H1884 H 0.14527 0.48446 0.32512 0.0
H1885 H 0.16493 0.4951 0.35761 0.0
H1886 H 0.15127 0.5041 0.35566 0.0
H1887 H 0.15019 0.50426 0.44696 0.0
H1888 H 0.16404 0.49547 0.4492 0.0
H1889 H 0.14379 0.4848 0.47885 0.0
H1890 H 0.10735 0.42434 0.402 0.0
H1891 H 0.13055 0.41779 0.40705 0.0
H1892 H 0.16756 0.47189 0.40726 0.0
C1893 C 0.1161 0.48648 0.39735 0.0
C1894 C 0.09823 0.4786 0.3946 0.0
C1895 C 0.08822 0.46059 0.39603 0.0
C1896 C 0.09589 0.45056 0.39901 0.0
C1897 C 0.11355 0.45873 0.40061 0.0
C1898 C 0.12353 0.47628 0.40028 0.0
C1899 C 0.14224 0.48189 0.40192 0.0
C1900 C 0.15147 0.49198 0.35742 0.0
C1901 C 0.15055 0.49221 0.44692 0.0
C1902 C 0.14122 0.46475 0.40304 0.0
C1903 C 0.12457 0.45155 0.40212 0.0
C1904 C 0.12045 0.43456 0.40288 0.0
C1905 C 0.13371 0.43097 0.40554 0.0
C1906 C 0.15085 0.44433 0.40747 0.0
C1907 C 0.15459 0.46141 0.40565 0.0
H1908 H 0.51453 0.62657 0.39974 0.0
H1909 H 0.46352 0.61469 0.36161 0.0
H1910 H 0.47318 0.64526 0.35735 0.0
H1911 H 0.5236 0.66258 0.47409 0.0
H1912 H 0.54561 0.67479 0.45686 0.0
H1913 H 0.53482 0.65187 0.45594 0.0
H1914 H 0.54303 0.65272 0.36812 0.0
H1915 H 0.55366 0.67565 0.36862 0.0
H1916 H 0.53716 0.66374 0.32608 0.0
H1917 H 0.48798 0.67664 0.35566 0.0
H1918 H 0.50653 0.70754 0.36537 0.0
H1919 H 0.54812 0.69989 0.40699 0.0
C1920 C 0.50541 0.63043 0.3907 0.0
C1921 C 0.48827 0.61822 0.38091 0.0
C1922 C 0.47669 0.62377 0.36938 0.0
C1923 C 0.48207 0.64112 0.36655 0.0
C1924 C 0.49906 0.65281 0.37566 0.0
C1925 C 0.51054 0.64778 0.38815 0.0
C1926 C 0.52793 0.66312 0.39788 0.0
C1927 C 0.5333 0.66309 0.44925 0.0
C1928 C 0.54123 0.66384 0.36309 0.0
C1929 C 0.52433 0.67749 0.38904 0.0
C1930 C 0.50763 0.67117 0.3757 0.0
C1931 C 0.50109 0.68177 0.36616 0.0
C1932 C 0.51176 0.69933 0.37169 0.0
C1933 C 0.52878 0.70615 0.38697 0.0
C1934 C 0.53522 0.69507 0.39487 0.0
H1935 H 0.36391 0.89324 0.40504 0.0
H1936 H 0.37326 0.85081 0.4001 0.0
H1937 H 0.34258 0.83071 0.40136 0.0
H1938 H 0.3274 0.8724 0.48531 0.0
H1939 H 0.31601 0.88144 0.45711 0.0
H1940 H 0.3389 0.8928 0.4565 0.0
H1941 H 0.33848 0.8943 0.36537 0.0
H1942 H 0.31559 0.88272 0.36567 0.0
H1943 H 0.32701 0.87489 0.33182 0.0
H1944 H 0.31151 0.81514 0.39808 0.0
H1945 H 0.28086 0.80432 0.40184 0.0
H1946 H 0.29037 0.85614 0.41289 0.0
C1947 C 0.35947 0.87972 0.40483 0.0
C1948 C 0.37104 0.87364 0.40229 0.0
C1949 C 0.36472 0.85584 0.40204 0.0
C1950 C 0.34728 0.84427 0.40249 0.0
C1951 C 0.33624 0.85063 0.40375 0.0
C1952 C 0.34197 0.86787 0.40585 0.0
C1953 C 0.32712 0.87107 0.4081 0.0
C1954 C 0.32738 0.87995 0.45452 0.0
C1955 C 0.32705 0.88136 0.36518 0.0
C1956 C 0.31225 0.85292 0.40649 0.0
C1957 C 0.31793 0.84143 0.40346 0.0
C1958 C 0.30685 0.82397 0.40089 0.0
C1959 C 0.28943 0.81797 0.40288 0.0
C1960 C 0.28316 0.82936 0.40786 0.0
C1961 C 0.29476 0.84712 0.40895 0.0
H1962 H 0.30198 0.14537 0.19804 0.0
H1963 H 0.29065 0.18299 0.14143 0.0
H1964 H 0.31653 0.19482 0.09259 0.0
H1965 H 0.34727 0.17327 0.20495 0.0
H1966 H 0.35204 0.15692 0.18881 0.0
H1967 H 0.33246 0.15129 0.21869 0.0
H1968 H 0.31561 0.1303 0.1511 0.0
H1969 H 0.33515 0.13606 0.12068 0.0
H1970 H 0.31866 0.13801 0.09131 0.0
H1971 H 0.34334 0.20237 0.04925 0.0
H1972 H 0.3709 0.20712 0.02033 0.0
H1973 H 0.36514 0.16488 0.10585 0.0
C1974 C 0.30496 0.15614 0.17553 0.0
C1975 C 0.29423 0.16323 0.17359 0.0
C1976 C 0.29866 0.17736 0.14373 0.0
C1977 C 0.31329 0.18411 0.11557 0.0
C1978 C 0.3234 0.17663 0.11777 0.0
C1979 C 0.31956 0.16311 0.14737 0.0
C1980 C 0.33287 0.1578 0.14414 0.0
C1981 C 0.34168 0.15996 0.19199 0.0
C1982 C 0.3251 0.13945 0.12571 0.0
C1983 C 0.34485 0.17054 0.1083 0.0
C1984 C 0.33903 0.18116 0.09319 0.0
C1985 C 0.34804 0.19415 0.06082 0.0
C1986 C 0.36368 0.1967 0.04449 0.0
C1987 C 0.37024 0.18639 0.06076 0.0
C1988 C 0.36046 0.17291 0.09236 0.0
H1989 H 0.81341 0.16703 0.06919 0.0
H1990 H 0.85721 0.21771 0.08488 0.0
H1991 H 0.87516 0.20512 0.10245 0.0
H1992 H 0.82325 0.14899 0.16485 0.0
H1993 H 0.81562 0.12849 0.1375 0.0
H1994 H 0.80666 0.14145 0.12113 0.0
H1995 H 0.814 0.14005 0.03356 0.0
H1996 H 0.82298 0.12705 0.04967 0.0
H1997 H 0.83557 0.14655 0.01742 0.0
H1998 H 0.888 0.187 0.12172 0.0
H1999 H 0.89449 0.16483 0.14612 0.0
H2000 H 0.84195 0.126 0.12103 0.0
C2001 C 0.82685 0.17549 0.07545 0.0
C2002 C 0.83397 0.19335 0.07523 0.0
C2003 C 0.85151 0.20399 0.08474 0.0
C2004 C 0.86181 0.19696 0.09454 0.0
C2005 C 0.85434 0.17928 0.09501 0.0
C2006 C 0.83724 0.16869 0.08594 0.0
C2007 C 0.83206 0.15014 0.0922 0.0
C2008 C 0.81861 0.14179 0.13125 0.0
C2009 C 0.82579 0.14037 0.04542 0.0
C2010 C 0.84887 0.15197 0.10689 0.0
C2011 C 0.86161 0.16885 0.1076 0.0
C2012 C 0.87815 0.17373 0.12108 0.0
C2013 C 0.88171 0.16102 0.13483 0.0
C2014 C 0.86874 0.14366 0.13557 0.0
C2015 C 0.85216 0.13914 0.12084 0.0
H2016 H 0.82277 0.63015 0.12495 0.0
H2017 H 0.77371 0.61665 0.18534 0.0
H2018 H 0.7868 0.64412 0.22722 0.0
H2019 H 0.84822 0.65232 0.22692 0.0
H2020 H 0.86539 0.66868 0.19287 0.0
H2021 H 0.85239 0.64772 0.16821 0.0
H2022 H 0.84534 0.66068 0.09643 0.0
H2023 H 0.85844 0.68168 0.12063 0.0
H2024 H 0.83655 0.67433 0.1061 0.0
H2025 H 0.80483 0.67272 0.26244 0.0
H2026 H 0.8263 0.70198 0.28406 0.0
H2027 H 0.86393 0.69771 0.20014 0.0
C2028 C 0.81477 0.63296 0.14698 0.0
C2029 C 0.79718 0.62118 0.15186 0.0
C2030 C 0.78718 0.62543 0.18085 0.0
C2031 C 0.79451 0.64098 0.20505 0.0
C2032 C 0.81187 0.6522 0.19982 0.0
C2033 C 0.82187 0.64851 0.17121 0.0
C2034 C 0.8401 0.66315 0.17053 0.0
C2035 C 0.85224 0.65763 0.19085 0.0
C2036 C 0.84542 0.67039 0.12045 0.0
C2037 C 0.83872 0.67569 0.20296 0.0
C2038 C 0.82233 0.66898 0.21976 0.0
C2039 C 0.81771 0.67813 0.24954 0.0
C2040 C 0.83005 0.69478 0.26163 0.0
C2041 C 0.84685 0.70222 0.24379 0.0
C2042 C 0.85127 0.69237 0.21471 0.0
H2043 H 0.16733 0.37722 0.37387 0.0
H2044 H 0.213 0.38211 0.43736 0.0
H2045 H 0.20707 0.35521 0.39993 0.0
H2046 H 0.14164 0.3317 0.38759 0.0
H2047 H 0.13072 0.3286 0.3323 0.0
H2048 H 0.13867 0.3484 0.36371 0.0
H2049 H 0.15565 0.36479 0.28958 0.0
H2050 H 0.14792 0.345 0.25815 0.0
H2051 H 0.17045 0.3595 0.26332 0.0
H2052 H 0.19658 0.32812 0.35554 0.0
H2053 H 0.18073 0.30102 0.31255 0.0
H2054 H 0.14159 0.31324 0.27805 0.0
C2055 C 0.17605 0.37261 0.38012 0.0
C2056 C 0.19066 0.38184 0.40859 0.0
C2057 C 0.20171 0.3753 0.41583 0.0
C2058 C 0.19852 0.36006 0.3945 0.0
C2059 C 0.18419 0.35146 0.36608 0.0
C2060 C 0.17303 0.35735 0.3592 0.0
C2061 C 0.15832 0.34534 0.32795 0.0
C2062 C 0.14134 0.33808 0.35448 0.0
C2063 C 0.15808 0.35419 0.28203 0.0
C2064 C 0.16294 0.33173 0.31865 0.0
C2065 C 0.178 0.33563 0.34066 0.0
C2066 C 0.18477 0.32491 0.33812 0.0
C2067 C 0.17566 0.30954 0.31349 0.0
C2068 C 0.1599 0.30496 0.29184 0.0
C2069 C 0.15366 0.31641 0.29378 0.0
H2070 H 0.61305 0.792 0.36928 0.0
H2071 H 0.61206 0.82762 0.46985 0.0
H2072 H 0.63943 0.85025 0.43957 0.0
H2073 H 0.65948 0.8093 0.37574 0.0
H2074 H 0.66115 0.80589 0.31384 0.0
H2075 H 0.64183 0.79206 0.34526 0.0
H2076 H 0.62484 0.79882 0.2844 0.0
H2077 H 0.64415 0.81291 0.25331 0.0
H2078 H 0.63057 0.82066 0.27426 0.0
H2079 H 0.66533 0.86971 0.39455 0.0
H2080 H 0.69073 0.88415 0.34426 0.0
H2081 H 0.67614 0.83616 0.27415 0.0
C2082 C 0.61876 0.80445 0.38559 0.0
C2083 C 0.61029 0.80798 0.42187 0.0
C2084 C 0.61818 0.82454 0.44193 0.0
C2085 C 0.63375 0.83755 0.4249 0.0
C2086 C 0.64143 0.83384 0.38806 0.0
C2087 C 0.63445 0.81766 0.36917 0.0
C2088 C 0.64546 0.81728 0.32951 0.0
C2089 C 0.65239 0.80543 0.34184 0.0
C2090 C 0.63567 0.81211 0.2826 0.0
C2091 C 0.65952 0.8358 0.32881 0.0
C2092 C 0.65682 0.84511 0.36269 0.0
C2093 C 0.66771 0.86255 0.36819 0.0
C2094 C 0.68206 0.87066 0.33914 0.0
C2095 C 0.6855 0.86132 0.30523 0.0
C2096 C 0.67391 0.84367 0.29976 0.0
H2097 H 0.19757 0.82753 0.35979 0.0
H2098 H 0.16186 0.79703 0.46943 0.0
H2099 H 0.13959 0.80052 0.43102 0.0
H2100 H 0.18139 0.85728 0.34462 0.0
H2101 H 0.18477 0.85868 0.28178 0.0
H2102 H 0.19827 0.85479 0.3199 0.0
H2103 H 0.19081 0.82762 0.27186 0.0
H2104 H 0.17701 0.83123 0.23425 0.0
H2105 H 0.16886 0.81129 0.26507 0.0
H2106 H 0.12049 0.80517 0.37783 0.0
H2107 H 0.10671 0.81393 0.31823 0.0
H2108 H 0.15468 0.84177 0.24337 0.0
C2109 C 0.18519 0.82195 0.37635 0.0
C2110 C 0.1815 0.81199 0.41766 0.0
C2111 C 0.16503 0.80469 0.43777 0.0
C2112 C 0.15224 0.80654 0.41614 0.0
C2113 C 0.15609 0.81582 0.37451 0.0
C2114 C 0.17222 0.82368 0.35519 0.0
C2115 C 0.17283 0.83272 0.30971 0.0
C2116 C 0.18503 0.85201 0.31429 0.0
C2117 C 0.17766 0.82526 0.26776 0.0
C2118 C 0.1545 0.82852 0.30635 0.0
C2119 C 0.14506 0.81869 0.34397 0.0
C2120 C 0.12778 0.81299 0.34835 0.0
C2121 C 0.12002 0.81793 0.31407 0.0
C2122 C 0.12957 0.82854 0.27602 0.0
C2123 C 0.14699 0.83363 0.27191 0.0
H2124 H 0.67779 0.84448 0.76768 0.0
H2125 H 0.68733 0.80364 0.80476 0.0
H2126 H 0.66027 0.7893 0.8485 0.0
H2127 H 0.66082 0.84672 0.87648 0.0
H2128 H 0.6449 0.85081 0.8524 0.0
H2129 H 0.66427 0.85725 0.82034 0.0
H2130 H 0.64703 0.83993 0.74757 0.0
H2131 H 0.62758 0.83365 0.77913 0.0
H2132 H 0.63148 0.81767 0.7542 0.0
H2133 H 0.63345 0.7806 0.89341 0.0
H2134 H 0.60733 0.77675 0.9309 0.0
H2135 H 0.61516 0.82321 0.86435 0.0
C2136 C 0.67406 0.83235 0.78415 0.0
C2137 C 0.68472 0.82519 0.78267 0.0
C2138 C 0.67939 0.80938 0.80521 0.0
C2139 C 0.66405 0.80115 0.83029 0.0
C2140 C 0.65415 0.80884 0.8323 0.0
C2141 C 0.6588 0.82397 0.80933 0.0
C2142 C 0.64611 0.8298 0.81824 0.0
C2143 C 0.65453 0.84717 0.84336 0.0
C2144 C 0.63754 0.83028 0.77203 0.0
C2145 C 0.63372 0.81571 0.85038 0.0
C2146 C 0.6386 0.80377 0.85805 0.0
C2147 C 0.6294 0.78978 0.88734 0.0
C2148 C 0.61462 0.78777 0.90869 0.0
C2149 C 0.60914 0.79967 0.90061 0.0
C2150 C 0.61896 0.81388 0.87129 0.0
H2151 H 0.16374 0.79183 0.8568 0.0
H2152 H 0.19672 0.83013 0.95816 0.0
H2153 H 0.19236 0.85153 0.91749 0.0
H2154 H 0.17753 0.81864 0.7563 0.0
H2155 H 0.15682 0.80956 0.72956 0.0
H2156 H 0.16171 0.79676 0.76766 0.0
H2157 H 0.13585 0.79002 0.82055 0.0
H2158 H 0.13069 0.80253 0.78208 0.0
H2159 H 0.13374 0.8073 0.8442 0.0
H2160 H 0.18582 0.86924 0.86383 0.0
H2161 H 0.17473 0.88137 0.80572 0.0
H2162 H 0.14577 0.83171 0.73924 0.0
C2163 C 0.16979 0.80463 0.87098 0.0
C2164 C 0.18059 0.80925 0.91074 0.0
C2165 C 0.1884 0.82623 0.92778 0.0
C2166 C 0.18607 0.83853 0.9048 0.0
C2167 C 0.17583 0.83371 0.86487 0.0
C2168 C 0.16759 0.81713 0.84845 0.0
C2169 C 0.15729 0.81538 0.80466 0.0
C2170 C 0.16373 0.80975 0.76203 0.0
C2171 C 0.13827 0.80308 0.81341 0.0
C2172 C 0.16111 0.83358 0.79908 0.0
C2173 C 0.17192 0.84394 0.83401 0.0
C2174 C 0.17727 0.86124 0.83638 0.0
C2175 C 0.17098 0.86804 0.80297 0.0
C2176 C 0.15938 0.85754 0.76777 0.0
C2177 C 0.15468 0.84014 0.76546 0.0
H2178 H 0.19426 0.37424 0.88655 0.0
H2179 H 0.15836 0.37887 0.9774 0.0
H2180 H 0.1353 0.35143 0.9476 0.0
H2181 H 0.16696 0.35678 0.78833 0.0
H2182 H 0.1743 0.34239 0.77195 0.0
H2183 H 0.18834 0.36193 0.80228 0.0
H2184 H 0.1933 0.34506 0.86785 0.0
H2185 H 0.17948 0.32547 0.83734 0.0
H2186 H 0.17529 0.32811 0.89795 0.0
H2187 H 0.11582 0.32426 0.90502 0.0
H2188 H 0.10167 0.29809 0.8569 0.0
H2189 H 0.15023 0.31119 0.79375 0.0
C2190 C 0.18162 0.36937 0.90079 0.0
C2191 C 0.17817 0.37875 0.93441 0.0
C2192 C 0.16137 0.37195 0.9517 0.0
C2193 C 0.14815 0.35638 0.9349 0.0
C2194 C 0.1519 0.34771 0.90088 0.0
C2195 C 0.16825 0.35385 0.88437 0.0
C2196 C 0.1688 0.34215 0.84721 0.0
C2197 C 0.17496 0.35137 0.79963 0.0
C2198 C 0.17987 0.33476 0.86358 0.0
C2199 C 0.1502 0.32856 0.84521 0.0
C2200 C 0.14066 0.33202 0.87637 0.0
C2201 C 0.12316 0.32136 0.88063 0.0
C2202 C 0.11523 0.30656 0.85296 0.0
C2203 C 0.1248 0.30254 0.82146 0.0
C2204 C 0.1425 0.31386 0.81734 0.0
H2205 H 0.8446 0.71658 0.67235 0.0
H2206 H 0.8961 0.73046 0.71164 0.0
H2207 H 0.89182 0.7037 0.67711 0.0
H2208 H 0.82584 0.6725 0.69923 0.0
H2209 H 0.81111 0.66552 0.65062 0.0
H2210 H 0.81854 0.6862 0.67629 0.0
H2211 H 0.82894 0.7001 0.59415 0.0
H2212 H 0.82166 0.67943 0.56831 0.0
H2213 H 0.84348 0.69604 0.56121 0.0
H2214 H 0.88181 0.67513 0.64075 0.0
H2215 H 0.86607 0.64585 0.6094 0.0
H2216 H 0.82111 0.65048 0.59376 0.0
C2217 C 0.85501 0.71404 0.67356 0.0
C2218 C 0.87069 0.72567 0.69472 0.0
C2219 C 0.88394 0.72177 0.69576 0.0
C2220 C 0.88169 0.70663 0.67598 0.0
C2221 C 0.86612 0.69551 0.65525 0.0
C2222 C 0.85297 0.69895 0.6541 0.0
C2223 C 0.83726 0.68447 0.63155 0.0
C2224 C 0.82231 0.67672 0.66652 0.0
C2225 C 0.83256 0.69037 0.5861 0.0
C2226 C 0.84357 0.67226 0.62088 0.0
C2227 C 0.86031 0.67895 0.63439 0.0
C2228 C 0.86873 0.66978 0.62975 0.0
C2229 C 0.85968 0.65316 0.61184 0.0
C2230 C 0.84236 0.64585 0.59897 0.0
C2231 C 0.83437 0.65572 0.60276 0.0
H2232 H 0.29576 0.15396 0.72566 0.0
H2233 H 0.28517 0.10328 0.68665 0.0
H2234 H 0.31298 0.11587 0.64671 0.0
H2235 H 0.31492 0.17392 0.61921 0.0
H2236 H 0.3308 0.19365 0.64542 0.0
H2237 H 0.31081 0.18075 0.67487 0.0
H2238 H 0.32651 0.17969 0.74976 0.0
H2239 H 0.34659 0.1928 0.72079 0.0
H2240 H 0.34166 0.1725 0.74516 0.0
H2241 H 0.34075 0.13392 0.60598 0.0
H2242 H 0.36757 0.15606 0.57121 0.0
H2243 H 0.36025 0.19521 0.63644 0.0
C2244 C 0.29939 0.14545 0.70958 0.0
C2245 C 0.28825 0.12759 0.70949 0.0
C2246 C 0.29347 0.11697 0.68742 0.0
C2247 C 0.30924 0.12401 0.66453 0.0
C2248 C 0.31966 0.14167 0.66415 0.0
C2249 C 0.31505 0.15225 0.6865 0.0
C2250 C 0.3283 0.17084 0.67929 0.0
C2251 C 0.32075 0.18034 0.65314 0.0
C2252 C 0.33624 0.17946 0.72657 0.0
C2253 C 0.34099 0.16907 0.64877 0.0
C2254 C 0.33574 0.15212 0.64059 0.0
C2255 C 0.34506 0.14722 0.61249 0.0
C2256 C 0.36028 0.15995 0.59271 0.0
C2257 C 0.3661 0.17745 0.60104 0.0
C2258 C 0.35621 0.182 0.62936 0.0
H2259 H 0.85834 0.14853 0.67084 0.0
H2260 H 0.81993 0.09635 0.70244 0.0
H2261 H 0.79745 0.10278 0.68101 0.0
H2262 H 0.83484 0.16874 0.71208 0.0
H2263 H 0.84243 0.18416 0.66505 0.0
H2264 H 0.85537 0.17571 0.68605 0.0
H2265 H 0.85718 0.16618 0.60113 0.0
H2266 H 0.84415 0.17448 0.57994 0.0
H2267 H 0.83787 0.15252 0.56932 0.0
H2268 H 0.77916 0.11484 0.65515 0.0
H2269 H 0.76649 0.13141 0.62427 0.0
H2270 H 0.81698 0.17521 0.60573 0.0
C2271 C 0.84519 0.13852 0.67393 0.0
C2272 C 0.84087 0.12197 0.68867 0.0
C2273 C 0.82353 0.10913 0.69132 0.0
C2274 C 0.81067 0.11266 0.6793 0.0
C2275 C 0.81537 0.12905 0.66428 0.0
C2276 C 0.83222 0.14176 0.6614 0.0
C2277 C 0.83391 0.15806 0.642 0.0
C2278 C 0.84212 0.17252 0.67848 0.0
C2279 C 0.84386 0.1631 0.59533 0.0
C2280 C 0.81539 0.15252 0.63423 0.0
C2281 C 0.80489 0.1358 0.64773 0.0
C2282 C 0.78726 0.12794 0.64436 0.0
C2283 C 0.78018 0.13744 0.62679 0.0
C2284 C 0.79074 0.15455 0.61227 0.0
C2285 C 0.80857 0.1621 0.61603 0.0
H2286 H 0.00929 0.50746 0.36044 0.0
H2287 H 0.01717 0.46474 0.38429 0.0
H2288 H 0.98796 0.4479 0.41528 0.0
H2289 H 0.9876 0.50314 0.46494 0.0
H2290 H 0.97303 0.50913 0.44098 0.0
H2291 H 0.99359 0.51702 0.41446 0.0
H2292 H 0.97946 0.50467 0.33366 0.0
H2293 H 0.95881 0.49684 0.35987 0.0
H2294 H 0.96363 0.48243 0.329 0.0
H2295 H 0.95899 0.43667 0.44993 0.0
H2296 H 0.93241 0.43184 0.48672 0.0
H2297 H 0.94369 0.48223 0.44232 0.0
C2298 C 0.00472 0.4944 0.37099 0.0
C2299 C 0.01544 0.48734 0.36954 0.0
C2300 C 0.00914 0.47037 0.38488 0.0
C2301 C 0.99256 0.4607 0.40242 0.0
C2302 C 0.98247 0.4682 0.40447 0.0
C2303 C 0.98828 0.48465 0.38907 0.0
C2304 C 0.97542 0.49021 0.39881 0.0
C2305 C 0.98286 0.50579 0.43176 0.0
C2306 C 0.96895 0.49374 0.35258 0.0
C2307 C 0.96164 0.47446 0.42307 0.0
C2308 C 0.96586 0.46184 0.42542 0.0
C2309 C 0.95546 0.44638 0.44789 0.0
C2310 C 0.9404 0.44379 0.46879 0.0
C2311 C 0.93592 0.45665 0.46745 0.0
C2312 C 0.94667 0.4721 0.44381 0.0
H2313 H 0.47334 0.50149 0.39521 0.0
H2314 H 0.50522 0.55086 0.46049 0.0
H2315 H 0.51632 0.53779 0.5157 0.0
H2316 H 0.462 0.47719 0.50011 0.0
H2317 H 0.46252 0.4593 0.47439 0.0
H2318 H 0.4577 0.47259 0.43817 0.0
H2319 H 0.48237 0.47831 0.38157 0.0
H2320 H 0.48708 0.46479 0.41715 0.0
H2321 H 0.50345 0.48639 0.40502 0.0
H2322 H 0.52301 0.51909 0.56593 0.0
H2323 H 0.52669 0.49667 0.60331 0.0
H2324 H 0.49019 0.45943 0.50557 0.0
C2325 C 0.48285 0.50965 0.42061 0.0
C2326 C 0.48843 0.52726 0.42335 0.0
C2327 C 0.5008 0.53739 0.45745 0.0
C2328 C 0.50711 0.53005 0.48915 0.0
C2329 C 0.50096 0.51258 0.48627 0.0
C2330 C 0.48925 0.50255 0.45252 0.0
C2331 C 0.48459 0.48408 0.45713 0.0
C2332 C 0.46557 0.47262 0.46811 0.0
C2333 C 0.48968 0.47804 0.41258 0.0
C2334 C 0.49546 0.48526 0.49894 0.0
C2335 C 0.50477 0.5018 0.51529 0.0
C2336 C 0.51583 0.5061 0.55334 0.0
C2337 C 0.51777 0.49323 0.57446 0.0
C2338 C 0.5087 0.47623 0.55753 0.0
C2339 C 0.49718 0.47222 0.51973 0.0
H2340 H 0.49183 0.03352 0.49801 0.0
H2341 H 0.54285 0.045 0.4613 0.0
H2342 H 0.53105 0.01745 0.42052 0.0
H2343 H 0.47571 0.98864 0.52131 0.0
H2344 H 0.45488 0.98187 0.49771 0.0
H2345 H 0.46719 0.00277 0.52328 0.0
H2346 H 0.46433 0.0162 0.44584 0.0
H2347 H 0.45213 0.99535 0.4199 0.0
H2348 H 0.47108 0.01143 0.391 0.0
H2349 H 0.5143 0.98974 0.3816 0.0
H2350 H 0.49355 0.96123 0.35362 0.0
H2351 H 0.45277 0.96592 0.41843 0.0
C2352 C 0.50048 0.03019 0.48139 0.0
C2353 C 0.51827 0.04144 0.48269 0.0
C2354 C 0.5292 0.03658 0.46097 0.0
C2355 C 0.52262 0.021 0.43744 0.0
C2356 C 0.50508 0.01029 0.43642 0.0
C2357 C 0.49412 0.01447 0.45834 0.0
C2358 C 0.47581 0.00015 0.45329 0.0
C2359 C 0.46794 0.99293 0.50178 0.0
C2360 C 0.46522 0.00615 0.42587 0.0
C2361 C 0.47828 0.98737 0.42488 0.0
C2362 C 0.49528 0.99369 0.41521 0.0
C2363 C 0.50094 0.98457 0.38916 0.0
C2364 C 0.48896 0.96834 0.37328 0.0
C2365 C 0.47144 0.9612 0.38388 0.0
C2366 C 0.46603 0.97098 0.40971 0.0
H2367 H 0.5068 0.04993 0.97991 0.0
H2368 H 0.55843 0.06338 0.01543 0.0
H2369 H 0.55298 0.03556 0.98525 0.0
H2370 H 0.48666 0.00514 0.00863 0.0
H2371 H 0.47208 -0.0014 0.95972 0.0
H2372 H 0.47988 0.01929 -0.01409 0.0
H2373 H 0.4907 0.03338 0.90421 0.0
H2374 H 0.48305 0.01275 0.8778 0.0
H2375 H 0.50503 0.02901 0.8713 0.0
H2376 H 0.54186 0.00621 0.95185 0.0
H2377 H 0.52603 0.97762 0.91571 0.0
H2378 H 0.48212 0.98391 0.89836 0.0
C2379 C 0.51689 0.04694 0.98182 0.0
C2380 C 0.53301 0.05876 0.00034 0.0
C2381 C 0.54599 0.0545 0.00144 0.0
C2382 C 0.54301 0.03873 0.98442 0.0
C2383 C 0.52705 0.02744 0.96594 0.0
C2384 C 0.51423 0.03136 0.96435 0.0
C2385 C 0.4984 0.01719 0.94131 0.0
C2386 C 0.48337 0.0096 0.97597 0.0
C2387 C 0.49405 0.02346 0.89597 0.0
C2388 C 0.50431 0.00466 0.93044 0.0
C2389 C 0.52084 0.01078 0.94517 0.0
C2390 C 0.52893 0.00131 0.93996 0.0
C2391 C 0.51984 0.98509 0.9194 0.0
C2392 C 0.50289 0.97857 0.90389 0.0
C2393 C 0.49513 0.9886 0.90929 0.0
H2394 H 0.956 0.46187 0.02128 0.0
H2395 H 0.94806 0.50083 0.08449 0.0
H2396 H 0.97561 0.52311 0.05245 0.0
H2397 H 0.00288 0.48419 0.0352 0.0
H2398 H 0.00564 0.47669 0.97888 0.0
H2399 H 0.98657 0.46395 0.01257 0.0
H2400 H 0.96852 0.46318 0.94099 0.0
H2401 H 0.9875 0.47617 0.9074 0.0
H2402 H 0.97214 0.48292 0.91561 0.0
H2403 H 0.00294 0.54121 0.00756 0.0
H2404 H 0.0282 0.55354 0.95566 0.0
H2405 H 0.0173 0.50256 0.91938 0.0
C2406 C 0.96031 0.47506 0.02975 0.0
C2407 C 0.94999 0.47961 0.05591 0.0
C2408 C 0.95584 0.49705 0.06487 0.0
C2409 C 0.97145 0.5098 0.04675 0.0
C2410 C 0.98103 0.50489 0.01955 0.0
C2411 C 0.97573 0.48793 0.01139 0.0
C2412 C 0.98767 0.48604 0.97805 0.0
C2413 C -0.0038 0.4772 0.00265 0.0
C2414 C 0.9784 0.47652 0.93285 0.0
C2415 C 0.00033 0.50457 0.96806 0.0
C2416 C -0.00359 0.51527 -0.00736 0.0
C2417 C 0.00619 0.53294 -0.01162 0.0
C2418 C 0.02047 0.53983 0.95864 0.0
C2419 C 0.02472 0.52905 0.93317 0.0
C2420 C 0.01439 0.51119 0.93801 0.0
H2421 H 0.49394 0.47003 0.04654 0.0
H2422 H 0.54402 0.503 -0.01301 0.0
H2423 H 0.5318 0.51493 0.93216 0.0
H2424 H 0.47078 0.46072 0.93909 0.0
H2425 H 0.45283 0.46121 0.96413 0.0
H2426 H 0.4654 0.45543 0.0003 0.0
H2427 H 0.47083 0.47933 0.05977 0.0
H2428 H 0.45804 0.48499 0.02418 0.0
H2429 H 0.47953 0.50088 0.039 0.0
H2430 H 0.51428 0.52244 0.8815 0.0
H2431 H 0.49288 0.52739 0.84341 0.0
H2432 H 0.454 0.48997 0.93595 0.0
C2433 C 0.50238 0.47991 0.02241 0.0
C2434 C 0.51996 0.48554 0.02115 0.0
C2435 C 0.53053 0.49846 -0.0112 0.0
C2436 C 0.5237 0.50528 0.95728 0.0
C2437 C 0.50629 0.49914 0.95862 0.0
C2438 C 0.49578 0.48694 -0.00928 0.0
C2439 C 0.47751 0.48271 0.98479 0.0
C2440 C 0.46595 0.4639 0.97127 0.0
C2441 C 0.47111 0.48726 0.02959 0.0
C2442 C 0.47943 0.4944 0.94422 0.0
C2443 C 0.49613 0.50366 0.92954 0.0
C2444 C 0.50116 0.51533 0.89279 0.0
C2445 C 0.48886 0.51799 0.87124 0.0
C2446 C 0.47172 0.50908 0.88661 0.0
C2447 C 0.46694 0.4969 0.92309 0.0
loop_
_geom_bond_atom_site_label_1
_geom_bond_atom_site_label_2
_geom_bond_distance
_geom_bond_site_symmetry_2
_ccdc_geom_bond_type
C0 O1 1.306 . S
C0 O3 1.160 . S
O1 C0 1.306 . S
O1 Cd2 2.228 . S
Cd2 O1 2.228 . S
Cd2 O6 2.273 . S
Cd2 O10 2.277 . S
O3 C0 1.160 . S
O3 Cd4 2.203 . S
Cd4 O3 2.203 . S
Cd4 O6 2.411 . S
Cd4 O7 2.333 . S
Cd4 O8 2.352 . S
Cd4 O12 2.277 . S
Cd4 O13 2.356 . S
C5 O10 1.209 . S
C5 O12 1.226 . S
O6 Cd2 2.273 . S
O6 Cd4 2.411 . S
O6 C9 1.320 . S
O7 Cd4 2.333 . S
O7 C9 1.214 . S
O8 Cd4 2.352 . S
O8 C11 1.258 . S
C9 O6 1.320 . S
C9 O7 1.214 . S
O10 Cd2 2.277 . S
O10 C5 1.209 . S
C11 O8 1.258 . S
C11 O13 1.282 . S
O12 Cd4 2.277 . S
O12 C5 1.226 . S
O13 Cd4 2.356 . S
O13 C11 1.282 . S
C14 O15 1.306 . S
C14 O17 1.160 . S
O15 C14 1.306 . S
O15 Cd16 2.228 . S
Cd16 O15 2.228 . S
Cd16 O20 2.273 . S
Cd16 O24 2.277 . S
O17 C14 1.160 . S
O17 Cd18 2.203 . S
Cd18 O17 2.203 . S
Cd18 O20 2.411 . S
Cd18 O21 2.333 . S
Cd18 O22 2.352 . S
Cd18 O26 2.277 . S
Cd18 O27 2.356 . S
C19 O24 1.209 . S
C19 O26 1.226 . S
O20 Cd16 2.273 . S
O20 Cd18 2.411 . S
O20 C23 1.320 . S
O21 Cd18 2.333 . S
O21 C23 1.214 . S
O22 Cd18 2.352 . S
O22 C25 1.258 . S
C23 O20 1.320 . S
C23 O21 1.214 . S
O24 Cd16 2.277 . S
O24 C19 1.209 . S
C25 O22 1.258 . S
C25 O27 1.282 . S
O26 Cd18 2.277 . S
O26 C19 1.226 . S
O27 Cd18 2.356 . S
O27 C25 1.282 . S
C28 O29 1.306 . S
C28 O31 1.160 . S
O29 C28 1.306 . S
O29 Cd30 2.228 . S
Cd30 O29 2.228 . S
Cd30 O34 2.273 . S
Cd30 O38 2.277 . S
O31 C28 1.160 . S
O31 Cd32 2.203 . S
Cd32 O31 2.203 . S
Cd32 O34 2.411 . S
Cd32 O35 2.333 . S
Cd32 O36 2.352 . S
Cd32 O40 2.277 . S
Cd32 O41 2.356 . S
C33 O38 1.209 . S
C33 O40 1.226 . S
O34 Cd30 2.273 . S
O34 Cd32 2.411 . S
O34 C37 1.320 . S
O35 Cd32 2.333 . S
O35 C37 1.214 . S
O36 Cd32 2.352 . S
O36 C39 1.258 . S
C37 O34 1.320 . S
C37 O35 1.214 . S
O38 Cd30 2.277 . S
O38 C33 1.209 . S
C39 O36 1.258 . S
C39 O41 1.282 . S
O40 Cd32 2.277 . S
O40 C33 1.226 . S
O41 Cd32 2.356 . S
O41 C39 1.282 . S
C42 O43 1.306 . S
C42 O45 1.160 . S
O43 C42 1.306 . S
O43 Cd44 2.228 . S
Cd44 O43 2.228 . S
Cd44 O48 2.273 . S
Cd44 O52 2.277 . S
O45 C42 1.160 . S
O45 Cd46 2.203 . S
Cd46 O45 2.203 . S
Cd46 O48 2.411 . S
Cd46 O49 2.333 . S
Cd46 O50 2.352 . S
Cd46 O54 2.277 . S
Cd46 O55 2.356 . S
C47 O52 1.209 . S
C47 O54 1.226 . S
O48 Cd44 2.273 . S
O48 Cd46 2.411 . S
O48 C51 1.320 . S
O49 Cd46 2.333 . S
O49 C51 1.214 . S
O50 Cd46 2.352 . S
O50 C53 1.258 . S
C51 O48 1.320 . S
C51 O49 1.214 . S
O52 Cd44 2.277 . S
O52 C47 1.209 . S
C53 O50 1.258 . S
C53 O55 1.282 . S
O54 Cd46 2.277 . S
O54 C47 1.226 . S
O55 Cd46 2.356 . S
O55 C53 1.282 . S
C56 O57 1.306 . S
C56 O59 1.160 . S
O57 C56 1.306 . S
O57 Cd58 2.228 . S
Cd58 O57 2.228 . S
Cd58 O62 2.273 . S
Cd58 O66 2.277 . S
O59 C56 1.160 . S
O59 Cd60 2.203 . S
Cd60 O59 2.203 . S
Cd60 O62 2.411 . S
Cd60 O63 2.333 . S
Cd60 O64 2.352 . S
Cd60 O68 2.277 . S
Cd60 O69 2.356 . S
C61 O66 1.209 . S
C61 O68 1.226 . S
O62 Cd58 2.273 . S
O62 Cd60 2.411 . S
O62 C65 1.320 . S
O63 Cd60 2.333 . S
O63 C65 1.214 . S
O64 Cd60 2.352 . S
O64 C67 1.258 . S
C65 O62 1.320 . S
C65 O63 1.214 . S
O66 Cd58 2.277 . S
O66 C61 1.209 . S
C67 O64 1.258 . S
C67 O69 1.282 . S
O68 Cd60 2.277 . S
O68 C61 1.226 . S
O69 Cd60 2.356 . S
O69 C67 1.282 . S
C70 O71 1.306 . S
C70 O73 1.160 . S
O71 C70 1.306 . S
O71 Cd72 2.228 . S
Cd72 O71 2.228 . S
Cd72 O76 2.273 . S
Cd72 O80 2.277 . S
O73 C70 1.160 . S
O73 Cd74 2.203 . S
Cd74 O73 2.203 . S
Cd74 O76 2.411 . S
Cd74 O77 2.333 . S
Cd74 O78 2.352 . S
Cd74 O82 2.277 . S
Cd74 O83 2.356 . S
C75 O80 1.209 . S
C75 O82 1.226 . S
O76 Cd72 2.273 . S
O76 Cd74 2.411 . S
O76 C79 1.320 . S
O77 Cd74 2.333 . S
O77 C79 1.214 . S
O78 Cd74 2.352 . S
O78 C81 1.258 . S
C79 O76 1.320 . S
C79 O77 1.214 . S
O80 Cd72 2.277 . S
O80 C75 1.209 . S
C81 O78 1.258 . S
C81 O83 1.282 . S
O82 Cd74 2.277 . S
O82 C75 1.226 . S
O83 Cd74 2.356 . S
O83 C81 1.282 . S
C84 O85 1.306 . S
C84 O87 1.160 . S
O85 C84 1.306 . S
O85 Cd86 2.228 . S
Cd86 O85 2.228 . S
Cd86 O90 2.273 . S
Cd86 O94 2.277 . S
O87 C84 1.160 . S
O87 Cd88 2.203 . S
Cd88 O87 2.203 . S
Cd88 O90 2.411 . S
Cd88 O91 2.333 . S
Cd88 O92 2.352 . S
Cd88 O96 2.277 . S
Cd88 O97 2.356 . S
C89 O94 1.209 . S
C89 O96 1.226 . S
O90 Cd86 2.273 . S
O90 Cd88 2.411 . S
O90 C93 1.320 . S
O91 Cd88 2.333 . S
O91 C93 1.214 . S
O92 Cd88 2.352 . S
O92 C95 1.258 . S
C93 O90 1.320 . S
C93 O91 1.214 . S
O94 Cd86 2.277 . S
O94 C89 1.209 . S
C95 O92 1.258 . S
C95 O97 1.282 . S
O96 Cd88 2.277 . S
O96 C89 1.226 . S
O97 Cd88 2.356 . S
O97 C95 1.282 . S
C98 O99 1.306 . S
C98 O101 1.160 . S
O99 C98 1.306 . S
O99 Cd100 2.228 . S
Cd100 O99 2.228 . S
Cd100 O104 2.273 . S
Cd100 O108 2.277 . S
O101 C98 1.160 . S
O101 Cd102 2.203 . S
Cd102 O101 2.203 . S
Cd102 O104 2.411 . S
Cd102 O105 2.333 . S
Cd102 O106 2.352 . S
Cd102 O110 2.277 . S
Cd102 O111 2.356 . S
C103 O108 1.209 . S
C103 O110 1.226 . S
O104 Cd100 2.273 . S
O104 Cd102 2.411 . S
O104 C107 1.320 . S
O105 Cd102 2.333 . S
O105 C107 1.214 . S
O106 Cd102 2.352 . S
O106 C109 1.258 . S
C107 O104 1.320 . S
C107 O105 1.214 . S
O108 Cd100 2.277 . S
O108 C103 1.209 . S
C109 O106 1.258 . S
C109 O111 1.282 . S
O110 Cd102 2.277 . S
O110 C103 1.226 . S
O111 Cd102 2.356 . S
O111 C109 1.282 . S
C112 O113 1.306 . S
C112 O115 1.160 . S
O113 C112 1.306 . S
O113 Cd114 2.228 . S
Cd114 O113 2.228 . S
Cd114 O118 2.273 . S
Cd114 O122 2.277 . S
O115 C112 1.160 . S
O115 Cd116 2.203 . S
Cd116 O115 2.203 . S
Cd116 O118 2.411 . S
Cd116 O119 2.333 . S
Cd116 O120 2.352 . S
Cd116 O124 2.277 . S
Cd116 O125 2.356 . S
C117 O122 1.209 . S
C117 O124 1.226 . S
O118 Cd114 2.273 . S
O118 Cd116 2.411 . S
O118 C121 1.320 . S
O119 Cd116 2.333 . S
O119 C121 1.214 . S
O120 Cd116 2.352 . S
O120 C123 1.258 . S
C121 O118 1.320 . S
C121 O119 1.214 . S
O122 Cd114 2.277 . S
O122 C117 1.209 . S
C123 O120 1.258 . S
C123 O125 1.282 . S
O124 Cd116 2.277 . S
O124 C117 1.226 . S
O125 Cd116 2.356 . S
O125 C123 1.282 . S
C126 O127 1.306 . S
C126 O129 1.160 . S
O127 C126 1.306 . S
O127 Cd128 2.228 . S
Cd128 O127 2.228 . S
Cd128 O132 2.273 . S
Cd128 O136 2.277 . S
O129 C126 1.160 . S
O129 Cd130 2.203 . S
Cd130 O129 2.203 . S
Cd130 O132 2.411 . S
Cd130 O133 2.333 . S
Cd130 O134 2.352 . S
Cd130 O138 2.277 . S
Cd130 O139 2.356 . S
C131 O136 1.209 . S
C131 O138 1.226 . S
O132 Cd128 2.273 . S
O132 Cd130 2.411 . S
O132 C135 1.320 . S
O133 Cd130 2.333 . S
O133 C135 1.214 . S
O134 Cd130 2.352 . S
O134 C137 1.258 . S
C135 O132 1.320 . S
C135 O133 1.214 . S
O136 Cd128 2.277 . S
O136 C131 1.209 . S
C137 O134 1.258 . S
C137 O139 1.282 . S
O138 Cd130 2.277 . S
O138 C131 1.226 . S
O139 Cd130 2.356 . S
O139 C137 1.282 . S
C140 O141 1.306 . S
C140 O143 1.160 . S
O141 C140 1.306 . S
O141 Cd142 2.228 . S
Cd142 O141 2.228 . S
Cd142 O146 2.273 . S
Cd142 O150 2.277 . S
O143 C140 1.160 . S
O143 Cd144 2.203 . S
Cd144 O143 2.203 . S
Cd144 O146 2.411 . S
Cd144 O147 2.333 . S
Cd144 O148 2.352 . S
Cd144 O152 2.277 . S
Cd144 O153 2.356 . S
C145 O150 1.209 . S
C145 O152 1.226 . S
O146 Cd142 2.273 . S
O146 Cd144 2.411 . S
O146 C149 1.320 . S
O147 Cd144 2.333 . S
O147 C149 1.214 . S
O148 Cd144 2.352 . S
O148 C151 1.258 . S
C149 O146 1.320 . S
C149 O147 1.214 . S
O150 Cd142 2.277 . S
O150 C145 1.209 . S
C151 O148 1.258 . S
C151 O153 1.282 . S
O152 Cd144 2.277 . S
O152 C145 1.226 . S
O153 Cd144 2.356 . S
O153 C151 1.282 . S
C154 O155 1.306 . S
C154 O157 1.160 . S
O155 C154 1.306 . S
O155 Cd156 2.228 . S
Cd156 O155 2.228 . S
Cd156 O160 2.273 . S
Cd156 O164 2.277 . S
O157 C154 1.160 . S
O157 Cd158 2.203 . S
Cd158 O157 2.203 . S
Cd158 O160 2.411 . S
Cd158 O161 2.333 . S
Cd158 O162 2.352 . S
Cd158 O166 2.277 . S
Cd158 O167 2.356 . S
C159 O164 1.209 . S
C159 O166 1.226 . S
O160 Cd156 2.273 . S
O160 Cd158 2.411 . S
O160 C163 1.320 . S
O161 Cd158 2.333 . S
O161 C163 1.214 . S
O162 Cd158 2.352 . S
O162 C165 1.258 . S
C163 O160 1.320 . S
C163 O161 1.214 . S
O164 Cd156 2.277 . S
O164 C159 1.209 . S
C165 O162 1.258 . S
C165 O167 1.282 . S
O166 Cd158 2.277 . S
O166 C159 1.226 . S
O167 Cd158 2.356 . S
O167 C165 1.282 . S
C168 O169 1.306 . S
C168 O171 1.160 . S
O169 C168 1.306 . S
O169 Cd170 2.228 . S
Cd170 O169 2.228 . S
Cd170 O174 2.273 . S
Cd170 O178 2.277 . S
O171 C168 1.160 . S
O171 Cd172 2.203 . S
Cd172 O171 2.203 . S
Cd172 O174 2.411 . S
Cd172 O175 2.333 . S
Cd172 O176 2.352 . S
Cd172 O180 2.277 . S
Cd172 O181 2.356 . S
C173 O178 1.209 . S
C173 O180 1.226 . S
O174 Cd170 2.273 . S
O174 Cd172 2.411 . S
O174 C177 1.320 . S
O175 Cd172 2.333 . S
O175 C177 1.214 . S
O176 Cd172 2.352 . S
O176 C179 1.258 . S
C177 O174 1.320 . S
C177 O175 1.214 . S
O178 Cd170 2.277 . S
O178 C173 1.209 . S
C179 O176 1.258 . S
C179 O181 1.282 . S
O180 Cd172 2.277 . S
O180 C173 1.226 . S
O181 Cd172 2.356 . S
O181 C179 1.282 . S
C182 O183 1.306 . S
C182 O185 1.160 . S
O183 C182 1.306 . S
O183 Cd184 2.228 . S
Cd184 O183 2.228 . S
Cd184 O188 2.273 . S
Cd184 O192 2.277 . S
O185 C182 1.160 . S
O185 Cd186 2.203 . S
Cd186 O185 2.203 . S
Cd186 O188 2.411 . S
Cd186 O189 2.333 . S
Cd186 O190 2.352 . S
Cd186 O194 2.277 . S
Cd186 O195 2.356 . S
C187 O192 1.209 . S
C187 O194 1.226 . S
O188 Cd184 2.273 . S
O188 Cd186 2.411 . S
O188 C191 1.320 . S
O189 Cd186 2.333 . S
O189 C191 1.214 . S
O190 Cd186 2.352 . S
O190 C193 1.258 . S
C191 O188 1.320 . S
C191 O189 1.214 . S
O192 Cd184 2.277 . S
O192 C187 1.209 . S
C193 O190 1.258 . S
C193 O195 1.282 . S
O194 Cd186 2.277 . S
O194 C187 1.226 . S
O195 Cd186 2.356 . S
O195 C193 1.282 . S
C196 O197 1.306 . S
C196 O199 1.160 . S
O197 C196 1.306 . S
O197 Cd198 2.228 . S
Cd198 O197 2.228 . S
Cd198 O202 2.273 . S
Cd198 O206 2.277 . S
O199 C196 1.160 . S
O199 Cd200 2.203 . S
Cd200 O199 2.203 . S
Cd200 O202 2.411 . S
Cd200 O203 2.333 . S
Cd200 O204 2.352 . S
Cd200 O208 2.277 . S
Cd200 O209 2.356 . S
C201 O206 1.209 . S
C201 O208 1.226 . S
O202 Cd198 2.273 . S
O202 Cd200 2.411 . S
O202 C205 1.320 . S
O203 Cd200 2.333 . S
O203 C205 1.214 . S
O204 Cd200 2.352 . S
O204 C207 1.258 . S
C205 O202 1.320 . S
C205 O203 1.214 . S
O206 Cd198 2.277 . S
O206 C201 1.209 . S
C207 O204 1.258 . S
C207 O209 1.282 . S
O208 Cd200 2.277 . S
O208 C201 1.226 . S
O209 Cd200 2.356 . S
O209 C207 1.282 . S
C210 O211 1.306 . S
C210 O213 1.160 . S
O211 C210 1.306 . S
O211 Cd212 2.228 . S
Cd212 O211 2.228 . S
Cd212 O216 2.273 . S
Cd212 O220 2.277 . S
O213 C210 1.160 . S
O213 Cd214 2.203 . S
Cd214 O213 2.203 . S
Cd214 O216 2.411 . S
Cd214 O217 2.333 . S
Cd214 O218 2.352 . S
Cd214 O222 2.277 . S
Cd214 O223 2.356 . S
C215 O220 1.209 . S
C215 O222 1.226 . S
O216 Cd212 2.273 . S
O216 Cd214 2.411 . S
O216 C219 1.320 . S
O217 Cd214 2.333 . S
O217 C219 1.214 . S
O218 Cd214 2.352 . S
O218 C221 1.258 . S
C219 O216 1.320 . S
C219 O217 1.214 . S
O220 Cd212 2.277 . S
O220 C215 1.209 . S
C221 O218 1.258 . S
C221 O223 1.282 . S
O222 Cd214 2.277 . S
O222 C215 1.226 . S
O223 Cd214 2.356 . S
O223 C221 1.282 . S
C224 O225 1.306 . S
C224 O227 1.160 . S
O225 C224 1.306 . S
O225 Cd226 2.228 . S
Cd226 O225 2.228 . S
Cd226 O230 2.273 . S
Cd226 O234 2.277 . S
O227 C224 1.160 . S
O227 Cd228 2.203 . S
Cd228 O227 2.203 . S
Cd228 O230 2.411 . S
Cd228 O231 2.333 . S
Cd228 O232 2.352 . S
Cd228 O236 2.277 . S
Cd228 O237 2.356 . S
C229 O234 1.209 . S
C229 O236 1.226 . S
O230 Cd226 2.273 . S
O230 Cd228 2.411 . S
O230 C233 1.320 . S
O231 Cd228 2.333 . S
O231 C233 1.214 . S
O232 Cd228 2.352 . S
O232 C235 1.258 . S
C233 O230 1.320 . S
C233 O231 1.214 . S
O234 Cd226 2.277 . S
O234 C229 1.209 . S
C235 O232 1.258 . S
C235 O237 1.282 . S
O236 Cd228 2.277 . S
O236 C229 1.226 . S
O237 Cd228 2.356 . S
O237 C235 1.282 . S
C238 O239 1.306 . S
C238 O241 1.160 . S
O239 C238 1.306 . S
O239 Cd240 2.228 . S
Cd240 O239 2.228 . S
Cd240 O244 2.273 . S
Cd240 O248 2.277 . S
O241 C238 1.160 . S
O241 Cd242 2.203 . S
Cd242 O241 2.203 . S
Cd242 O244 2.411 . S
Cd242 O245 2.333 . S
Cd242 O246 2.352 . S
Cd242 O250 2.277 . S
Cd242 O251 2.356 . S
C243 O248 1.209 . S
C243 O250 1.226 . S
O244 Cd240 2.273 . S
O244 Cd242 2.411 . S
O244 C247 1.320 . S
O245 Cd242 2.333 . S
O245 C247 1.214 . S
O246 Cd242 2.352 . S
O246 C249 1.258 . S
C247 O244 1.320 . S
C247 O245 1.214 . S
O248 Cd240 2.277 . S
O248 C243 1.209 . S
C249 O246 1.258 . S
C249 O251 1.282 . S
O250 Cd242 2.277 . S
O250 C243 1.226 . S
O251 Cd242 2.356 . S
O251 C249 1.282 . S
C252 O253 1.306 . S
C252 O255 1.160 . S
O253 C252 1.306 . S
O253 Cd254 2.228 . S
Cd254 O253 2.228 . S
Cd254 O258 2.273 . S
Cd254 O262 2.277 . S
O255 C252 1.160 . S
O255 Cd256 2.203 . S
Cd256 O255 2.203 . S
Cd256 O258 2.411 . S
Cd256 O259 2.333 . S
Cd256 O260 2.352 . S
Cd256 O264 2.277 . S
Cd256 O265 2.356 . S
C257 O262 1.209 . S
C257 O264 1.226 . S
O258 Cd254 2.273 . S
O258 Cd256 2.411 . S
O258 C261 1.320 . S
O259 Cd256 2.333 . S
O259 C261 1.214 . S
O260 Cd256 2.352 . S
O260 C263 1.258 . S
C261 O258 1.320 . S
C261 O259 1.214 . S
O262 Cd254 2.277 . S
O262 C257 1.209 . S
C263 O260 1.258 . S
C263 O265 1.282 . S
O264 Cd256 2.277 . S
O264 C257 1.226 . S
O265 Cd256 2.356 . S
O265 C263 1.282 . S
C266 O267 1.306 . S
C266 O269 1.160 . S
O267 C266 1.306 . S
O267 Cd268 2.228 . S
Cd268 O267 2.228 . S
Cd268 O272 2.273 . S
Cd268 O276 2.277 . S
O269 C266 1.160 . S
O269 Cd270 2.203 . S
Cd270 O269 2.203 . S
Cd270 O272 2.411 . S
Cd270 O273 2.333 . S
Cd270 O274 2.352 . S
Cd270 O278 2.277 . S
Cd270 O279 2.356 . S
C271 O276 1.209 . S
C271 O278 1.226 . S
O272 Cd268 2.273 . S
O272 Cd270 2.411 . S
O272 C275 1.320 . S
O273 Cd270 2.333 . S
O273 C275 1.214 . S
O274 Cd270 2.352 . S
O274 C277 1.258 . S
C275 O272 1.320 . S
C275 O273 1.214 . S
O276 Cd268 2.277 . S
O276 C271 1.209 . S
C277 O274 1.258 . S
C277 O279 1.282 . S
O278 Cd270 2.277 . S
O278 C271 1.226 . S
O279 Cd270 2.356 . S
O279 C277 1.282 . S
C280 O281 1.306 . S
C280 O283 1.160 . S
O281 C280 1.306 . S
O281 Cd282 2.228 . S
Cd282 O281 2.228 . S
Cd282 O286 2.273 . S
Cd282 O290 2.277 . S
O283 C280 1.160 . S
O283 Cd284 2.203 . S
Cd284 O283 2.203 . S
Cd284 O286 2.411 . S
Cd284 O287 2.333 . S
Cd284 O288 2.352 . S
Cd284 O292 2.277 . S
Cd284 O293 2.356 . S
C285 O290 1.209 . S
C285 O292 1.226 . S
O286 Cd282 2.273 . S
O286 Cd284 2.411 . S
O286 C289 1.320 . S
O287 Cd284 2.333 . S
O287 C289 1.214 . S
O288 Cd284 2.352 . S
O288 C291 1.258 . S
C289 O286 1.320 . S
C289 O287 1.214 . S
O290 Cd282 2.277 . S
O290 C285 1.209 . S
C291 O288 1.258 . S
C291 O293 1.282 . S
O292 Cd284 2.277 . S
O292 C285 1.226 . S
O293 Cd284 2.356 . S
O293 C291 1.282 . S
C294 O295 1.306 . S
C294 O297 1.160 . S
O295 C294 1.306 . S
O295 Cd296 2.228 1_556 S
Cd296 O295 2.228 1_554 S
Cd296 O300 2.273 . S
Cd296 O304 2.277 . S
O297 C294 1.160 . S
O297 Cd298 2.203 1_556 S
Cd298 O297 2.203 1_554 S
Cd298 O300 2.411 . S
Cd298 O301 2.333 . S
Cd298 O302 2.352 . S
Cd298 O306 2.277 . S
Cd298 O307 2.356 . S
C299 O304 1.209 . S
C299 O306 1.226 . S
O300 Cd296 2.273 . S
O300 Cd298 2.411 . S
O300 C303 1.320 . S
O301 Cd298 2.333 . S
O301 C303 1.214 . S
O302 Cd298 2.352 . S
O302 C305 1.258 . S
C303 O300 1.320 . S
C303 O301 1.214 . S
O304 Cd296 2.277 . S
O304 C299 1.209 . S
C305 O302 1.258 . S
C305 O307 1.282 . S
O306 Cd298 2.277 . S
O306 C299 1.226 . S
O307 Cd298 2.356 . S
O307 C305 1.282 . S
C308 O309 1.306 . S
C308 O311 1.160 . S
O309 C308 1.306 . S
O309 Cd310 2.228 1_556 S
Cd310 O309 2.228 1_554 S
Cd310 O314 2.273 . S
Cd310 O318 2.277 . S
O311 C308 1.160 . S
O311 Cd312 2.203 1_556 S
Cd312 O311 2.203 1_554 S
Cd312 O314 2.411 . S
Cd312 O315 2.333 . S
Cd312 O316 2.352 . S
Cd312 O320 2.277 . S
Cd312 O321 2.356 . S
C313 O318 1.209 . S
C313 O320 1.226 . S
O314 Cd310 2.273 . S
O314 Cd312 2.411 . S
O314 C317 1.320 . S
O315 Cd312 2.333 . S
O315 C317 1.214 . S
O316 Cd312 2.352 . S
O316 C319 1.258 . S
C317 O314 1.320 . S
C317 O315 1.214 . S
O318 Cd310 2.277 . S
O318 C313 1.209 . S
C319 O316 1.258 . S
C319 O321 1.282 . S
O320 Cd312 2.277 . S
O320 C313 1.226 . S
O321 Cd312 2.356 . S
O321 C319 1.282 . S
C322 O323 1.306 . S
C322 O325 1.160 . S
O323 C322 1.306 . S
O323 Cd324 2.228 1_556 S
Cd324 O323 2.228 1_554 S
Cd324 O328 2.273 . S
Cd324 O332 2.277 . S
O325 C322 1.160 . S
O325 Cd326 2.203 1_556 S
Cd326 O325 2.203 1_554 S
Cd326 O328 2.411 . S
Cd326 O329 2.333 . S
Cd326 O330 2.352 . S
Cd326 O334 2.277 . S
Cd326 O335 2.356 . S
C327 O332 1.209 . S
C327 O334 1.226 . S
O328 Cd324 2.273 . S
O328 Cd326 2.411 . S
O328 C331 1.320 . S
O329 Cd326 2.333 . S
O329 C331 1.214 . S
O330 Cd326 2.352 . S
O330 C333 1.258 . S
C331 O328 1.320 . S
C331 O329 1.214 . S
O332 Cd324 2.277 . S
O332 C327 1.209 . S
C333 O330 1.258 . S
C333 O335 1.282 . S
O334 Cd326 2.277 . S
O334 C327 1.226 . S
O335 Cd326 2.356 . S
O335 C333 1.282 . S
C336 O337 1.306 . S
C336 O339 1.160 . S
O337 C336 1.306 . S
O337 Cd338 2.228 . S
Cd338 O337 2.228 . S
Cd338 O342 2.273 . S
Cd338 O346 2.277 . S
O339 C336 1.160 . S
O339 Cd340 2.203 . S
Cd340 O339 2.203 . S
Cd340 O342 2.411 . S
Cd340 O343 2.333 . S
Cd340 O344 2.352 . S
Cd340 O348 2.277 . S
Cd340 O349 2.356 . S
C341 O346 1.209 . S
C341 O348 1.226 . S
O342 Cd338 2.273 . S
O342 Cd340 2.411 . S
O342 C345 1.320 . S
O343 Cd340 2.333 . S
O343 C345 1.214 . S
O344 Cd340 2.352 . S
O344 C347 1.258 . S
C345 O342 1.320 . S
C345 O343 1.214 . S
O346 Cd338 2.277 . S
O346 C341 1.209 . S
C347 O344 1.258 . S
C347 O349 1.282 . S
O348 Cd340 2.277 . S
O348 C341 1.226 . S
O349 Cd340 2.356 . S
O349 C347 1.282 . S
C350 O351 1.306 . S
C350 O353 1.160 . S
O351 C350 1.306 . S
O351 Cd352 2.228 . S
Cd352 O351 2.228 . S
Cd352 O356 2.273 . S
Cd352 O360 2.277 . S
O353 C350 1.160 . S
O353 Cd354 2.203 . S
Cd354 O353 2.203 . S
Cd354 O356 2.411 . S
Cd354 O357 2.333 . S
Cd354 O358 2.352 . S
Cd354 O362 2.277 . S
Cd354 O363 2.356 . S
C355 O360 1.209 . S
C355 O362 1.226 . S
O356 Cd352 2.273 . S
O356 Cd354 2.411 . S
O356 C359 1.320 . S
O357 Cd354 2.333 . S
O357 C359 1.214 . S
O358 Cd354 2.352 . S
O358 C361 1.258 . S
C359 O356 1.320 . S
C359 O357 1.214 . S
O360 Cd352 2.277 . S
O360 C355 1.209 . S
C361 O358 1.258 . S
C361 O363 1.282 . S
O362 Cd354 2.277 . S
O362 C355 1.226 . S
O363 Cd354 2.356 . S
O363 C361 1.282 . S
C364 O365 1.306 . S
C364 O367 1.160 . S
O365 C364 1.306 . S
O365 Cd366 2.228 . S
Cd366 O365 2.228 . S
Cd366 O370 2.273 . S
Cd366 O374 2.277 . S
O367 C364 1.160 . S
O367 Cd368 2.203 . S
Cd368 O367 2.203 . S
Cd368 O370 2.411 . S
Cd368 O371 2.333 . S
Cd368 O372 2.352 . S
Cd368 O376 2.277 . S
Cd368 O377 2.356 . S
C369 O374 1.209 . S
C369 O376 1.226 . S
O370 Cd366 2.273 . S
O370 Cd368 2.411 . S
O370 C373 1.320 . S
O371 Cd368 2.333 . S
O371 C373 1.214 . S
O372 Cd368 2.352 . S
O372 C375 1.258 . S
C373 O370 1.320 . S
C373 O371 1.214 . S
O374 Cd366 2.277 . S
O374 C369 1.209 . S
C375 O372 1.258 . S
C375 O377 1.282 . S
O376 Cd368 2.277 . S
O376 C369 1.226 . S
O377 Cd368 2.356 . S
O377 C375 1.282 . S
C378 O379 1.306 . S
C378 O381 1.160 . S
O379 C378 1.306 . S
O379 Cd380 2.228 1_554 S
Cd380 O379 2.228 1_556 S
Cd380 O384 2.273 . S
Cd380 O388 2.277 . S
O381 C378 1.160 . S
O381 Cd382 2.203 1_554 S
Cd382 O381 2.203 1_556 S
Cd382 O384 2.411 . S
Cd382 O385 2.333 . S
Cd382 O386 2.352 . S
Cd382 O390 2.277 . S
Cd382 O391 2.356 . S
C383 O388 1.209 . S
C383 O390 1.226 . S
O384 Cd380 2.273 . S
O384 Cd382 2.411 . S
O384 C387 1.320 . S
O385 Cd382 2.333 . S
O385 C387 1.214 . S
O386 Cd382 2.352 . S
O386 C389 1.258 . S
C387 O384 1.320 . S
C387 O385 1.214 . S
O388 Cd380 2.277 . S
O388 C383 1.209 . S
C389 O386 1.258 . S
C389 O391 1.282 . S
O390 Cd382 2.277 . S
O390 C383 1.226 . S
O391 Cd382 2.356 . S
O391 C389 1.282 . S
C392 O393 1.306 . S
C392 O395 1.160 . S
O393 C392 1.306 . S
O393 Cd394 2.228 1_554 S
Cd394 O393 2.228 1_556 S
Cd394 O398 2.273 . S
Cd394 O402 2.277 . S
O395 C392 1.160 . S
O395 Cd396 2.203 1_554 S
Cd396 O395 2.203 1_556 S
Cd396 O398 2.411 . S
Cd396 O399 2.333 . S
Cd396 O400 2.352 . S
Cd396 O404 2.277 . S
Cd396 O405 2.356 . S
C397 O402 1.209 . S
C397 O404 1.226 . S
O398 Cd394 2.273 . S
O398 Cd396 2.411 . S
O398 C401 1.320 . S
O399 Cd396 2.333 . S
O399 C401 1.214 . S
O400 Cd396 2.352 . S
O400 C403 1.258 . S
C401 O398 1.320 . S
C401 O399 1.214 . S
O402 Cd394 2.277 . S
O402 C397 1.209 . S
C403 O400 1.258 . S
C403 O405 1.282 . S
O404 Cd396 2.277 . S
O404 C397 1.226 . S
O405 Cd396 2.356 . S
O405 C403 1.282 . S
C406 O407 1.306 . S
C406 O409 1.160 . S
O407 C406 1.306 . S
O407 Cd408 2.228 1_554 S
Cd408 O407 2.228 1_556 S
Cd408 O412 2.273 . S
Cd408 O416 2.277 . S
O409 C406 1.160 . S
O409 Cd410 2.203 1_554 S
Cd410 O409 2.203 1_556 S
Cd410 O412 2.411 . S
Cd410 O413 2.333 . S
Cd410 O414 2.352 . S
Cd410 O418 2.277 . S
Cd410 O419 2.356 . S
C411 O416 1.209 . S
C411 O418 1.226 . S
O412 Cd408 2.273 . S
O412 Cd410 2.411 . S
O412 C415 1.320 . S
O413 Cd410 2.333 . S
O413 C415 1.214 . S
O414 Cd410 2.352 . S
O414 C417 1.258 . S
C415 O412 1.320 . S
C415 O413 1.214 . S
O416 Cd408 2.277 . S
O416 C411 1.209 . S
C417 O414 1.258 . S
C417 O419 1.282 . S
O418 Cd410 2.277 . S
O418 C411 1.226 . S
O419 Cd410 2.356 . S
O419 C417 1.282 . S
C420 O421 1.306 . S
C420 O423 1.160 . S
O421 C420 1.306 . S
O421 Cd422 2.228 . S
Cd422 O421 2.228 . S
Cd422 O426 2.273 . S
Cd422 O430 2.277 . S
O423 C420 1.160 . S
O423 Cd424 2.203 . S
Cd424 O423 2.203 . S
Cd424 O426 2.411 . S
Cd424 O427 2.333 . S
Cd424 O428 2.352 . S
Cd424 O432 2.277 . S
Cd424 O433 2.356 . S
C425 O430 1.209 . S
C425 O432 1.226 . S
O426 Cd422 2.273 . S
O426 Cd424 2.411 . S
O426 C429 1.320 . S
O427 Cd424 2.333 . S
O427 C429 1.214 . S
O428 Cd424 2.352 . S
O428 C431 1.258 . S
C429 O426 1.320 . S
C429 O427 1.214 . S
O430 Cd422 2.277 . S
O430 C425 1.209 . S
C431 O428 1.258 . S
C431 O433 1.282 . S
O432 Cd424 2.277 . S
O432 C425 1.226 . S
O433 Cd424 2.356 . S
O433 C431 1.282 . S
C434 O435 1.306 . S
C434 O437 1.160 . S
O435 C434 1.306 . S
O435 Cd436 2.228 . S
Cd436 O435 2.228 . S
Cd436 O440 2.273 . S
Cd436 O444 2.277 . S
O437 C434 1.160 . S
O437 Cd438 2.203 . S
Cd438 O437 2.203 . S
Cd438 O440 2.411 . S
Cd438 O441 2.333 . S
Cd438 O442 2.352 . S
Cd438 O446 2.277 . S
Cd438 O447 2.356 . S
C439 O444 1.209 . S
C439 O446 1.226 . S
O440 Cd436 2.273 . S
O440 Cd438 2.411 . S
O440 C443 1.320 . S
O441 Cd438 2.333 . S
O441 C443 1.214 . S
O442 Cd438 2.352 . S
O442 C445 1.258 . S
C443 O440 1.320 . S
C443 O441 1.214 . S
O444 Cd436 2.277 . S
O444 C439 1.209 . S
C445 O442 1.258 . S
C445 O447 1.282 . S
O446 Cd438 2.277 . S
O446 C439 1.226 . S
O447 Cd438 2.356 . S
O447 C445 1.282 . S
C448 O449 1.306 . S
C448 O451 1.160 . S
O449 C448 1.306 . S
O449 Cd450 2.228 . S
Cd450 O449 2.228 . S
Cd450 O454 2.273 . S
Cd450 O458 2.277 . S
O451 C448 1.160 . S
O451 Cd452 2.203 . S
Cd452 O451 2.203 . S
Cd452 O454 2.411 . S
Cd452 O455 2.333 . S
Cd452 O456 2.352 . S
Cd452 O460 2.277 . S
Cd452 O461 2.356 . S
C453 O458 1.209 . S
C453 O460 1.226 . S
O454 Cd450 2.273 . S
O454 Cd452 2.411 . S
O454 C457 1.320 . S
O455 Cd452 2.333 . S
O455 C457 1.214 . S
O456 Cd452 2.352 . S
O456 C459 1.258 . S
C457 O454 1.320 . S
C457 O455 1.214 . S
O458 Cd450 2.277 . S
O458 C453 1.209 . S
C459 O456 1.258 . S
C459 O461 1.282 . S
O460 Cd452 2.277 . S
O460 C453 1.226 . S
O461 Cd452 2.356 . S
O461 C459 1.282 . S
C462 O463 1.306 . S
C462 O465 1.160 . S
O463 C462 1.306 . S
O463 Cd464 2.228 . S
Cd464 O463 2.228 . S
Cd464 O468 2.273 . S
Cd464 O472 2.277 . S
O465 C462 1.160 . S
O465 Cd466 2.203 . S
Cd466 O465 2.203 . S
Cd466 O468 2.411 . S
Cd466 O469 2.333 . S
Cd466 O470 2.352 . S
Cd466 O474 2.277 . S
Cd466 O475 2.356 . S
C467 O472 1.209 . S
C467 O474 1.226 . S
O468 Cd464 2.273 . S
O468 Cd466 2.411 . S
O468 C471 1.320 . S
O469 Cd466 2.333 . S
O469 C471 1.214 . S
O470 Cd466 2.352 . S
O470 C473 1.258 . S
C471 O468 1.320 . S
C471 O469 1.214 . S
O472 Cd464 2.277 . S
O472 C467 1.209 . S
C473 O470 1.258 . S
C473 O475 1.282 . S
O474 Cd466 2.277 . S
O474 C467 1.226 . S
O475 Cd466 2.356 . S
O475 C473 1.282 . S
C476 O477 1.306 . S
C476 O479 1.160 . S
O477 C476 1.306 . S
O477 Cd478 2.228 . S
Cd478 O477 2.228 . S
Cd478 O482 2.273 . S
Cd478 O486 2.277 . S
O479 C476 1.160 . S
O479 Cd480 2.203 . S
Cd480 O479 2.203 . S
Cd480 O482 2.411 . S
Cd480 O483 2.333 . S
Cd480 O484 2.352 . S
Cd480 O488 2.277 . S
Cd480 O489 2.356 . S
C481 O486 1.209 . S
C481 O488 1.226 . S
O482 Cd478 2.273 . S
O482 Cd480 2.411 . S
O482 C485 1.320 . S
O483 Cd480 2.333 . S
O483 C485 1.214 . S
O484 Cd480 2.352 . S
O484 C487 1.258 . S
C485 O482 1.320 . S
C485 O483 1.214 . S
O486 Cd478 2.277 . S
O486 C481 1.209 . S
C487 O484 1.258 . S
C487 O489 1.282 . S
O488 Cd480 2.277 . S
O488 C481 1.226 . S
O489 Cd480 2.356 . S
O489 C487 1.282 . S
C490 O491 1.306 . S
C490 O493 1.160 . S
O491 C490 1.306 . S
O491 Cd492 2.228 . S
Cd492 O491 2.228 . S
Cd492 O496 2.273 . S
Cd492 O500 2.277 . S
O493 C490 1.160 . S
O493 Cd494 2.203 . S
Cd494 O493 2.203 . S
Cd494 O496 2.411 . S
Cd494 O497 2.333 . S
Cd494 O498 2.352 . S
Cd494 O502 2.277 . S
Cd494 O503 2.356 . S
C495 O500 1.209 . S
C495 O502 1.226 . S
O496 Cd492 2.273 . S
O496 Cd494 2.411 . S
O496 C499 1.320 . S
O497 Cd494 2.333 . S
O497 C499 1.214 . S
O498 Cd494 2.352 . S
O498 C501 1.258 . S
C499 O496 1.320 . S
C499 O497 1.214 . S
O500 Cd492 2.277 . S
O500 C495 1.209 . S
C501 O498 1.258 . S
C501 O503 1.282 . S
O502 Cd494 2.277 . S
O502 C495 1.226 . S
O503 Cd494 2.356 . S
O503 C501 1.282 . S
H504 C516 0.930 . S
H505 C518 0.930 . S
H506 C519 0.930 . S
H507 C523 0.959 . S
H508 C523 0.959 . S
H509 C523 0.961 . S
H510 C524 0.960 . S
H511 C524 0.961 . S
H512 C524 0.959 . S
H513 C527 0.929 . S
H514 C528 0.931 . S
H515 C530 0.930 . S
C516 H504 0.930 . S
C516 C517 1.399 . S
C516 C521 1.399 . S
C517 C516 1.399 . S
C517 C518 1.376 . S
C518 H505 0.930 . S
C518 C517 1.376 . S
C518 C519 1.388 . S
C519 H506 0.930 . S
C519 C518 1.388 . S
C519 C520 1.390 . S
C520 C519 1.390 . S
C520 C521 1.394 . S
C520 C526 1.465 . S
C521 C516 1.399 . S
C521 C520 1.394 . S
C521 C522 1.516 . S
C522 C521 1.516 . S
C522 C523 1.502 . S
C522 C524 1.561 . S
C522 C525 1.526 . S
C523 H507 0.959 . S
C523 H508 0.959 . S
C523 H509 0.961 . S
C523 C522 1.502 . S
C524 H510 0.960 . S
C524 H511 0.961 . S
C524 H512 0.959 . S
C524 C522 1.561 . S
C525 C522 1.526 . S
C525 C526 1.396 . S
C525 C530 1.390 1_556 S
C526 C520 1.465 . S
C526 C525 1.396 . S
C526 C527 1.399 1_556 S
C527 H513 0.929 . S
C527 C526 1.399 1_554 S
C527 C528 1.385 . S
C528 H514 0.931 . S
C528 C527 1.385 . S
C528 C529 1.389 . S
C529 C528 1.389 . S
C529 C530 1.387 . S
C530 H515 0.930 . S
C530 C525 1.390 1_554 S
C530 C529 1.387 . S
H531 C543 0.930 . S
H532 C545 0.930 . S
H533 C546 0.930 . S
H534 C550 0.959 . S
H535 C550 0.959 . S
H536 C550 0.961 . S
H537 C551 0.960 . S
H538 C551 0.961 . S
H539 C551 0.959 . S
H540 C554 0.929 . S
H541 C555 0.931 . S
H542 C557 0.930 . S
C543 H531 0.930 . S
C543 C544 1.399 . S
C543 C548 1.399 . S
C544 C543 1.399 . S
C544 C545 1.376 . S
C545 H532 0.930 . S
C545 C544 1.376 . S
C545 C546 1.388 . S
C546 H533 0.930 . S
C546 C545 1.388 . S
C546 C547 1.390 . S
C547 C546 1.390 . S
C547 C548 1.394 . S
C547 C553 1.465 . S
C548 C543 1.399 . S
C548 C547 1.394 . S
C548 C549 1.516 . S
C549 C548 1.516 . S
C549 C550 1.502 . S
C549 C551 1.561 . S
C549 C552 1.526 . S
C550 H534 0.959 . S
C550 H535 0.959 . S
C550 H536 0.961 . S
C550 C549 1.502 . S
C551 H537 0.960 . S
C551 H538 0.961 . S
C551 H539 0.959 . S
C551 C549 1.561 . S
C552 C549 1.526 . S
C552 C553 1.396 . S
C552 C557 1.390 1_556 S
C553 C547 1.465 . S
C553 C552 1.396 . S
C553 C554 1.399 1_556 S
C554 H540 0.929 . S
C554 C553 1.399 1_554 S
C554 C555 1.385 . S
C555 H541 0.931 . S
C555 C554 1.385 . S
C555 C556 1.389 . S
C556 C555 1.389 . S
C556 C557 1.387 . S
C557 H542 0.930 . S
C557 C552 1.390 1_554 S
C557 C556 1.387 . S
H558 C570 0.930 . S
H559 C572 0.930 . S
H560 C573 0.929 1_556 S
H561 C577 0.959 . S
H562 C577 0.959 . S
H563 C577 0.961 . S
H564 C578 0.960 . S
H565 C578 0.961 . S
H566 C578 0.959 . S
H567 C581 0.929 . S
H568 C582 0.931 . S
H569 C584 0.930 . S
C570 H558 0.930 . S
C570 C571 1.399 . S
C570 C575 1.399 1_554 S
C571 C570 1.399 . S
C571 C572 1.376 . S
C572 H559 0.930 . S
C572 C571 1.376 . S
C572 C573 1.388 . S
C573 H560 0.929 1_554 S
C573 C572 1.388 . S
C573 C574 1.390 1_554 S
C574 C573 1.390 1_556 S
C574 C575 1.394 . S
C574 C580 1.465 . S
C575 C570 1.399 1_556 S
C575 C574 1.394 . S
C575 C576 1.516 . S
C576 C575 1.516 . S
C576 C577 1.502 . S
C576 C578 1.561 . S
C576 C579 1.526 . S
C577 H561 0.959 . S
C577 H562 0.959 . S
C577 H563 0.961 . S
C577 C576 1.502 . S
C578 H564 0.960 . S
C578 H565 0.961 . S
C578 H566 0.959 . S
C578 C576 1.561 . S
C579 C576 1.526 . S
C579 C580 1.396 . S
C579 C584 1.390 . S
C580 C574 1.465 . S
C580 C579 1.396 . S
C580 C581 1.399 . S
C581 H567 0.929 . S
C581 C580 1.399 . S
C581 C582 1.385 . S
C582 H568 0.931 . S
C582 C581 1.385 . S
C582 C583 1.389 . S
C583 C582 1.389 . S
C583 C584 1.387 . S
C584 H569 0.930 . S
C584 C579 1.390 . S
C584 C583 1.387 . S
H585 C597 0.930 . S
H586 C599 0.930 . S
H587 C600 0.930 . S
H588 C604 0.959 . S
H589 C604 0.959 . S
H590 C604 0.961 . S
H591 C605 0.960 . S
H592 C605 0.961 . S
H593 C605 0.959 . S
H594 C608 0.929 . S
H595 C609 0.931 . S
H596 C611 0.930 . S
C597 H585 0.930 . S
C597 C598 1.399 . S
C597 C602 1.399 . S
C598 C597 1.399 . S
C598 C599 1.376 . S
C599 H586 0.930 . S
C599 C598 1.376 . S
C599 C600 1.388 . S
C600 H587 0.930 . S
C600 C599 1.388 . S
C600 C601 1.390 . S
C601 C600 1.390 . S
C601 C602 1.394 . S
C601 C607 1.465 . S
C602 C597 1.399 . S
C602 C601 1.394 . S
C602 C603 1.516 . S
C603 C602 1.516 . S
C603 C604 1.502 . S
C603 C605 1.561 . S
C603 C606 1.526 . S
C604 H588 0.959 . S
C604 H589 0.959 . S
C604 H590 0.961 . S
C604 C603 1.502 . S
C605 H591 0.960 . S
C605 H592 0.961 . S
C605 H593 0.959 . S
C605 C603 1.561 . S
C606 C603 1.526 . S
C606 C607 1.396 . S
C606 C611 1.390 . S
C607 C601 1.465 . S
C607 C606 1.396 . S
C607 C608 1.399 . S
C608 H594 0.929 . S
C608 C607 1.399 . S
C608 C609 1.385 . S
C609 H595 0.931 . S
C609 C608 1.385 . S
C609 C610 1.389 . S
C610 C609 1.389 . S
C610 C611 1.387 . S
C611 H596 0.930 . S
C611 C606 1.390 . S
C611 C610 1.387 . S
H612 C624 0.930 . S
H613 C626 0.930 . S
H614 C627 0.930 . S
H615 C631 0.959 . S
H616 C631 0.959 . S
H617 C631 0.961 . S
H618 C632 0.960 . S
H619 C632 0.961 . S
H620 C632 0.959 . S
H621 C635 0.929 . S
H622 C636 0.931 . S
H623 C638 0.930 . S
C624 H612 0.930 . S
C624 C625 1.399 . S
C624 C629 1.399 . S
C625 C624 1.399 . S
C625 C626 1.376 . S
C626 H613 0.930 . S
C626 C625 1.376 . S
C626 C627 1.388 . S
C627 H614 0.930 . S
C627 C626 1.388 . S
C627 C628 1.390 . S
C628 C627 1.390 . S
C628 C629 1.394 . S
C628 C634 1.465 . S
C629 C624 1.399 . S
C629 C628 1.394 . S
C629 C630 1.516 . S
C630 C629 1.516 . S
C630 C631 1.502 . S
C630 C632 1.561 . S
C630 C633 1.526 . S
C631 H615 0.959 . S
C631 H616 0.959 . S
C631 H617 0.961 . S
C631 C630 1.502 . S
C632 H618 0.960 . S
C632 H619 0.961 . S
C632 H620 0.959 . S
C632 C630 1.561 . S
C633 C630 1.526 . S
C633 C634 1.396 . S
C633 C638 1.390 . S
C634 C628 1.465 . S
C634 C633 1.396 . S
C634 C635 1.399 . S
C635 H621 0.929 . S
C635 C634 1.399 . S
C635 C636 1.385 . S
C636 H622 0.931 . S
C636 C635 1.385 . S
C636 C637 1.389 . S
C637 C636 1.389 . S
C637 C638 1.387 . S
C638 H623 0.930 . S
C638 C633 1.390 . S
C638 C637 1.387 . S
H639 C651 0.930 . S
H640 C653 0.930 . S
H641 C654 0.930 . S
H642 C658 0.959 . S
H643 C658 0.959 . S
H644 C658 0.961 . S
H645 C659 0.960 . S
H646 C659 0.961 . S
H647 C659 0.959 . S
H648 C662 0.929 . S
H649 C663 0.931 . S
H650 C665 0.930 . S
C651 H639 0.930 . S
C651 C652 1.399 . S
C651 C656 1.399 . S
C652 C651 1.399 . S
C652 C653 1.376 . S
C653 H640 0.930 . S
C653 C652 1.376 . S
C653 C654 1.388 . S
C654 H641 0.930 . S
C654 C653 1.388 . S
C654 C655 1.390 . S
C655 C654 1.390 . S
C655 C656 1.394 . S
C655 C661 1.465 . S
C656 C651 1.399 . S
C656 C655 1.394 . S
C656 C657 1.516 . S
C657 C656 1.516 . S
C657 C658 1.502 . S
C657 C659 1.561 . S
C657 C660 1.526 . S
C658 H642 0.959 . S
C658 H643 0.959 . S
C658 H644 0.961 . S
C658 C657 1.502 . S
C659 H645 0.960 . S
C659 H646 0.961 . S
C659 H647 0.959 . S
C659 C657 1.561 . S
C660 C657 1.526 . S
C660 C661 1.396 . S
C660 C665 1.390 . S
C661 C655 1.465 . S
C661 C660 1.396 . S
C661 C662 1.399 . S
C662 H648 0.929 . S
C662 C661 1.399 . S
C662 C663 1.385 . S
C663 H649 0.931 . S
C663 C662 1.385 . S
C663 C664 1.389 . S
C664 C663 1.389 . S
C664 C665 1.387 . S
C665 H650 0.930 . S
C665 C660 1.390 . S
C665 C664 1.387 . S
H666 C678 0.930 . S
H667 C680 0.930 . S
H668 C681 0.930 . S
H669 C685 0.959 . S
H670 C685 0.959 . S
H671 C685 0.961 . S
H672 C686 0.960 . S
H673 C686 0.961 . S
H674 C686 0.959 . S
H675 C689 0.929 1_554 S
H676 C690 0.931 . S
H677 C692 0.930 . S
C678 H666 0.930 . S
C678 C679 1.399 . S
C678 C683 1.399 . S
C679 C678 1.399 . S
C679 C680 1.376 . S
C680 H667 0.930 . S
C680 C679 1.376 . S
C680 C681 1.388 . S
C681 H668 0.930 . S
C681 C680 1.388 . S
C681 C682 1.390 . S
C682 C681 1.390 . S
C682 C683 1.394 . S
C682 C688 1.465 . S
C683 C678 1.399 . S
C683 C682 1.394 . S
C683 C684 1.516 . S
C684 C683 1.516 . S
C684 C685 1.502 . S
C684 C686 1.561 . S
C684 C687 1.539 . S
C685 H669 0.959 . S
C685 H670 0.959 . S
C685 H671 0.961 . S
C685 C684 1.502 . S
C686 H672 0.960 . S
C686 H673 0.961 . S
C686 H674 0.959 . S
C686 C684 1.561 . S
C687 C684 1.539 . S
C687 C688 1.404 . S
C687 C692 1.371 1_554 S
C688 C682 1.465 . S
C688 C687 1.404 . S
C688 C689 1.399 1_554 S
C689 H675 0.929 1_556 S
C689 C688 1.399 1_556 S
C689 C690 1.385 . S
C690 H676 0.931 . S
C690 C689 1.385 . S
C690 C691 1.389 . S
C691 C690 1.389 . S
C691 C692 1.387 . S
C692 H677 0.930 . S
C692 C687 1.371 1_556 S
C692 C691 1.387 . S
H693 C705 0.930 . S
H694 C707 0.930 . S
H695 C708 0.930 . S
H696 C712 0.959 . S
H697 C712 0.959 . S
H698 C712 0.961 . S
H699 C713 0.960 . S
H700 C713 0.961 . S
H701 C713 0.959 . S
H702 C716 0.929 . S
H703 C717 0.931 . S
H704 C719 0.930 . S
C705 H693 0.930 . S
C705 C706 1.399 . S
C705 C710 1.399 . S
C706 C705 1.399 . S
C706 C707 1.376 . S
C707 H694 0.930 . S
C707 C706 1.376 . S
C707 C708 1.388 . S
C708 H695 0.930 . S
C708 C707 1.388 . S
C708 C709 1.390 . S
C709 C708 1.390 . S
C709 C710 1.394 . S
C709 C715 1.465 . S
C710 C705 1.399 . S
C710 C709 1.394 . S
C710 C711 1.516 . S
C711 C710 1.516 . S
C711 C712 1.502 . S
C711 C713 1.561 . S
C711 C714 1.526 . S
C712 H696 0.959 . S
C712 H697 0.959 . S
C712 H698 0.961 . S
C712 C711 1.502 . S
C713 H699 0.960 . S
C713 H700 0.961 . S
C713 H701 0.959 . S
C713 C711 1.561 . S
C714 C711 1.526 . S
C714 C715 1.396 . S
C714 C719 1.390 1_554 S
C715 C709 1.465 . S
C715 C714 1.396 . S
C715 C716 1.399 1_554 S
C716 H702 0.929 . S
C716 C715 1.399 1_556 S
C716 C717 1.385 . S
C717 H703 0.931 . S
C717 C716 1.385 . S
C717 C718 1.389 . S
C718 C717 1.389 . S
C718 C719 1.387 . S
C719 H704 0.930 . S
C719 C714 1.390 1_556 S
C719 C718 1.387 . S
H720 C732 0.930 . S
H721 C734 0.930 . S
H722 C735 0.930 1_554 S
H723 C739 0.959 . S
H724 C739 0.959 . S
H725 C739 0.961 . S
H726 C740 0.960 . S
H727 C740 0.961 . S
H728 C740 0.959 . S
H729 C743 0.929 . S
H730 C744 0.931 . S
H731 C746 0.930 . S
C732 H720 0.930 . S
C732 C733 1.399 . S
C732 C737 1.399 1_556 S
C733 C732 1.399 . S
C733 C734 1.376 . S
C734 H721 0.930 . S
C734 C733 1.376 . S
C734 C735 1.388 . S
C735 H722 0.930 1_556 S
C735 C734 1.388 . S
C735 C736 1.390 1_556 S
C736 C735 1.390 1_554 S
C736 C737 1.394 . S
C736 C742 1.465 . S
C737 C732 1.399 1_554 S
C737 C736 1.394 . S
C737 C738 1.516 . S
C738 C737 1.516 . S
C738 C739 1.502 . S
C738 C740 1.561 . S
C738 C741 1.526 . S
C739 H723 0.959 . S
C739 H724 0.959 . S
C739 H725 0.961 . S
C739 C738 1.502 . S
C740 H726 0.960 . S
C740 H727 0.961 . S
C740 H728 0.959 . S
C740 C738 1.561 . S
C741 C738 1.526 . S
C741 C742 1.396 . S
C741 C746 1.390 . S
C742 C736 1.465 . S
C742 C741 1.396 . S
C742 C743 1.399 . S
C743 H729 0.929 . S
C743 C742 1.399 . S
C743 C744 1.385 . S
C744 H730 0.931 . S
C744 C743 1.385 . S
C744 C745 1.389 . S
C745 C744 1.389 . S
C745 C746 1.387 . S
C746 H731 0.930 . S
C746 C741 1.390 . S
C746 C745 1.387 . S
H747 C759 0.930 . S
H748 C761 0.930 . S
H749 C762 0.930 . S
H750 C766 0.959 . S
H751 C766 0.959 . S
H752 C766 0.961 . S
H753 C767 0.960 . S
H754 C767 0.961 . S
H755 C767 0.959 . S
H756 C770 0.929 . S
H757 C771 0.931 . S
H758 C773 0.930 . S
C759 H747 0.930 . S
C759 C760 1.399 . S
C759 C764 1.399 . S
C760 C759 1.399 . S
C760 C761 1.376 . S
C761 H748 0.930 . S
C761 C760 1.376 . S
C761 C762 1.388 . S
C762 H749 0.930 . S
C762 C761 1.388 . S
C762 C763 1.390 . S
C763 C762 1.390 . S
C763 C764 1.394 . S
C763 C769 1.465 . S
C764 C759 1.399 . S
C764 C763 1.394 . S
C764 C765 1.516 . S
C765 C764 1.516 . S
C765 C766 1.502 . S
C765 C767 1.561 . S
C765 C768 1.526 . S
C766 H750 0.959 . S
C766 H751 0.959 . S
C766 H752 0.961 . S
C766 C765 1.502 . S
C767 H753 0.960 . S
C767 H754 0.961 . S
C767 H755 0.959 . S
C767 C765 1.561 . S
C768 C765 1.526 . S
C768 C769 1.396 . S
C768 C773 1.390 . S
C769 C763 1.465 . S
C769 C768 1.396 . S
C769 C770 1.399 . S
C770 H756 0.929 . S
C770 C769 1.399 . S
C770 C771 1.385 . S
C771 H757 0.931 . S
C771 C770 1.385 . S
C771 C772 1.389 . S
C772 C771 1.389 . S
C772 C773 1.387 . S
C773 H758 0.930 . S
C773 C768 1.390 . S
C773 C772 1.387 . S
H774 C786 0.930 . S
H775 C788 0.930 . S
H776 C789 0.930 . S
H777 C793 0.959 . S
H778 C793 0.959 . S
H779 C793 0.961 . S
H780 C794 0.960 . S
H781 C794 0.961 . S
H782 C794 0.959 . S
H783 C797 0.929 . S
H784 C798 0.931 . S
H785 C800 0.930 . S
C786 H774 0.930 . S
C786 C787 1.399 . S
C786 C791 1.399 . S
C787 C786 1.399 . S
C787 C788 1.376 . S
C788 H775 0.930 . S
C788 C787 1.376 . S
C788 C789 1.388 . S
C789 H776 0.930 . S
C789 C788 1.388 . S
C789 C790 1.390 . S
C790 C789 1.390 . S
C790 C791 1.394 . S
C790 C796 1.465 . S
C791 C786 1.399 . S
C791 C790 1.394 . S
C791 C792 1.516 . S
C792 C791 1.516 . S
C792 C793 1.502 . S
C792 C794 1.561 . S
C792 C795 1.526 . S
C793 H777 0.959 . S
C793 H778 0.959 . S
C793 H779 0.961 . S
C793 C792 1.502 . S
C794 H780 0.960 . S
C794 H781 0.961 . S
C794 H782 0.959 . S
C794 C792 1.561 . S
C795 C792 1.526 . S
C795 C796 1.396 . S
C795 C800 1.390 . S
C796 C790 1.465 . S
C796 C795 1.396 . S
C796 C797 1.399 . S
C797 H783 0.929 . S
C797 C796 1.399 . S
C797 C798 1.385 . S
C798 H784 0.931 . S
C798 C797 1.385 . S
C798 C799 1.389 . S
C799 C798 1.389 . S
C799 C800 1.387 . S
C800 H785 0.930 . S
C800 C795 1.390 . S
C800 C799 1.387 . S
H801 C813 0.930 . S
H802 C815 0.930 . S
H803 C816 0.930 . S
H804 C820 0.959 . S
H805 C820 0.959 . S
H806 C820 0.961 . S
H807 C821 0.960 . S
H808 C821 0.961 . S
H809 C821 0.959 . S
H810 C824 0.929 . S
H811 C825 0.931 . S
H812 C827 0.930 . S
C813 H801 0.930 . S
C813 C814 1.399 . S
C813 C818 1.399 . S
C814 C813 1.399 . S
C814 C815 1.376 . S
C815 H802 0.930 . S
C815 C814 1.376 . S
C815 C816 1.388 . S
C816 H803 0.930 . S
C816 C815 1.388 . S
C816 C817 1.390 . S
C817 C816 1.390 . S
C817 C818 1.394 . S
C817 C823 1.465 . S
C818 C813 1.399 . S
C818 C817 1.394 . S
C818 C819 1.516 . S
C819 C818 1.516 . S
C819 C820 1.502 . S
C819 C821 1.561 . S
C819 C822 1.526 . S
C820 H804 0.959 . S
C820 H805 0.959 . S
C820 H806 0.961 . S
C820 C819 1.502 . S
C821 H807 0.960 . S
C821 H808 0.961 . S
C821 H809 0.959 . S
C821 C819 1.561 . S
C822 C819 1.526 . S
C822 C823 1.396 . S
C822 C827 1.390 . S
C823 C817 1.465 . S
C823 C822 1.396 . S
C823 C824 1.399 . S
C824 H810 0.929 . S
C824 C823 1.399 . S
C824 C825 1.385 . S
C825 H811 0.931 . S
C825 C824 1.385 . S
C825 C826 1.389 . S
C826 C825 1.389 . S
C826 C827 1.387 . S
C827 H812 0.930 . S
C827 C822 1.390 . S
C827 C826 1.387 . S
H828 C840 0.930 . S
H829 C842 0.930 . S
H830 C843 0.930 . S
H831 C847 0.959 . S
H832 C847 0.959 . S
H833 C847 0.961 . S
H834 C848 0.960 . S
H835 C848 0.961 . S
H836 C848 0.959 . S
H837 C851 0.929 . S
H838 C852 0.931 . S
H839 C854 0.930 . S
C840 H828 0.930 . S
C840 C841 1.399 . S
C840 C845 1.399 . S
C841 C840 1.399 . S
C841 C842 1.376 . S
C842 H829 0.930 . S
C842 C841 1.376 . S
C842 C843 1.388 . S
C843 H830 0.930 . S
C843 C842 1.388 . S
C843 C844 1.390 . S
C844 C843 1.390 . S
C844 C845 1.394 . S
C844 C850 1.465 . S
C845 C840 1.399 . S
C845 C844 1.394 . S
C845 C846 1.516 . S
C846 C845 1.516 . S
C846 C847 1.502 . S
C846 C848 1.561 . S
C846 C849 1.526 . S
C847 H831 0.959 . S
C847 H832 0.959 . S
C847 H833 0.961 . S
C847 C846 1.502 . S
C848 H834 0.960 . S
C848 H835 0.961 . S
C848 H836 0.959 . S
C848 C846 1.561 . S
C849 C846 1.526 . S
C849 C850 1.396 . S
C849 C854 1.390 . S
C850 C844 1.465 . S
C850 C849 1.396 . S
C850 C851 1.399 . S
C851 H837 0.929 . S
C851 C850 1.399 . S
C851 C852 1.385 . S
C852 H838 0.931 . S
C852 C851 1.385 . S
C852 C853 1.389 . S
C853 C852 1.389 . S
C853 C854 1.387 . S
C854 H839 0.930 . S
C854 C849 1.390 . S
C854 C853 1.387 . S
H855 C867 0.930 . S
H856 C869 0.930 . S
H857 C870 0.930 . S
H858 C874 0.959 . S
H859 C874 0.959 . S
H860 C874 0.961 . S
H861 C875 0.960 . S
H862 C875 0.961 . S
H863 C875 0.959 . S
H864 C878 0.929 . S
H865 C879 0.931 . S
H866 C881 0.930 . S
C867 H855 0.930 . S
C867 C868 1.399 . S
C867 C872 1.399 . S
C868 C867 1.399 . S
C868 C869 1.376 . S
C869 H856 0.930 . S
C869 C868 1.376 . S
C869 C870 1.388 . S
C870 H857 0.930 . S
C870 C869 1.388 . S
C870 C871 1.390 . S
C871 C870 1.390 . S
C871 C872 1.394 . S
C871 C877 1.465 . S
C872 C867 1.399 . S
C872 C871 1.394 . S
C872 C873 1.516 . S
C873 C872 1.516 . S
C873 C874 1.502 . S
C873 C875 1.561 . S
C873 C876 1.526 . S
C874 H858 0.959 . S
C874 H859 0.959 . S
C874 H860 0.961 . S
C874 C873 1.502 . S
C875 H861 0.960 . S
C875 H862 0.961 . S
C875 H863 0.959 . S
C875 C873 1.561 . S
C876 C873 1.526 . S
C876 C877 1.396 . S
C876 C881 1.390 . S
C877 C871 1.465 . S
C877 C876 1.396 . S
C877 C878 1.399 . S
C878 H864 0.929 . S
C878 C877 1.399 . S
C878 C879 1.385 . S
C879 H865 0.931 . S
C879 C878 1.385 . S
C879 C880 1.389 . S
C880 C879 1.389 . S
C880 C881 1.387 . S
C881 H866 0.930 . S
C881 C876 1.390 . S
C881 C880 1.387 . S
H882 C894 0.930 . S
H883 C896 0.930 . S
H884 C897 0.930 . S
H885 C901 0.959 . S
H886 C901 0.959 . S
H887 C901 0.961 . S
H888 C902 0.960 . S
H889 C902 0.961 . S
H890 C902 0.959 . S
H891 C905 0.929 . S
H892 C906 0.931 . S
H893 C908 0.930 . S
C894 H882 0.930 . S
C894 C895 1.399 . S
C894 C899 1.399 . S
C895 C894 1.399 . S
C895 C896 1.376 . S
C896 H883 0.930 . S
C896 C895 1.376 . S
C896 C897 1.388 . S
C897 H884 0.930 . S
C897 C896 1.388 . S
C897 C898 1.390 . S
C898 C897 1.390 . S
C898 C899 1.394 . S
C898 C904 1.465 . S
C899 C894 1.399 . S
C899 C898 1.394 . S
C899 C900 1.516 . S
C900 C899 1.516 . S
C900 C901 1.502 . S
C900 C902 1.561 . S
C900 C903 1.526 . S
C901 H885 0.959 . S
C901 H886 0.959 . S
C901 H887 0.961 . S
C901 C900 1.502 . S
C902 H888 0.960 . S
C902 H889 0.961 . S
C902 H890 0.959 . S
C902 C900 1.561 . S
C903 C900 1.526 . S
C903 C904 1.396 . S
C903 C908 1.390 . S
C904 C898 1.465 . S
C904 C903 1.396 . S
C904 C905 1.399 . S
C905 H891 0.929 . S
C905 C904 1.399 . S
C905 C906 1.385 . S
C906 H892 0.931 . S
C906 C905 1.385 . S
C906 C907 1.389 . S
C907 C906 1.389 . S
C907 C908 1.387 . S
C908 H893 0.930 . S
C908 C903 1.390 . S
C908 C907 1.387 . S
H909 C921 0.930 . S
H910 C923 0.930 . S
H911 C924 0.930 . S
H912 C928 0.959 . S
H913 C928 0.959 . S
H914 C928 0.961 . S
H915 C929 0.960 . S
H916 C929 0.961 . S
H917 C929 0.959 . S
H918 C932 0.929 . S
H919 C933 0.931 1_554 S
H920 C935 0.930 . S
C921 H909 0.930 . S
C921 C922 1.399 . S
C921 C926 1.399 . S
C922 C921 1.399 . S
C922 C923 1.376 . S
C923 H910 0.930 . S
C923 C922 1.376 . S
C923 C924 1.388 . S
C924 H911 0.930 . S
C924 C923 1.388 . S
C924 C925 1.390 . S
C925 C924 1.390 . S
C925 C926 1.394 . S
C925 C931 1.465 . S
C926 C921 1.399 . S
C926 C925 1.394 . S
C926 C927 1.516 . S
C927 C926 1.516 . S
C927 C928 1.502 . S
C927 C929 1.561 . S
C927 C930 1.526 . S
C928 H912 0.959 . S
C928 H913 0.959 . S
C928 H914 0.961 . S
C928 C927 1.502 . S
C929 H915 0.960 . S
C929 H916 0.961 . S
C929 H917 0.959 . S
C929 C927 1.561 . S
C930 C927 1.526 . S
C930 C931 1.396 . S
C930 C935 1.390 . S
C931 C925 1.465 . S
C931 C930 1.396 . S
C931 C932 1.399 . S
C932 H918 0.929 . S
C932 C931 1.399 . S
C932 C933 1.385 . S
C933 H919 0.931 1_556 S
C933 C932 1.385 . S
C933 C934 1.389 1_556 S
C934 C933 1.389 1_554 S
C934 C935 1.387 1_554 S
C935 H920 0.930 . S
C935 C930 1.390 . S
C935 C934 1.387 1_556 S
H936 C948 0.930 . S
H937 C950 0.930 . S
H938 C951 0.930 . S
H939 C955 0.959 . S
H940 C955 0.959 . S
H941 C955 0.961 . S
H942 C956 0.960 . S
H943 C956 0.961 . S
H944 C956 0.959 . S
H945 C959 0.929 . S
H946 C960 0.931 1_554 S
H947 C962 0.930 . S
C948 H936 0.930 . S
C948 C949 1.399 . S
C948 C953 1.399 . S
C949 C948 1.399 . S
C949 C950 1.376 . S
C950 H937 0.930 . S
C950 C949 1.376 . S
C950 C951 1.388 . S
C951 H938 0.930 . S
C951 C950 1.388 . S
C951 C952 1.390 . S
C952 C951 1.390 . S
C952 C953 1.394 . S
C952 C958 1.465 . S
C953 C948 1.399 . S
C953 C952 1.394 . S
C953 C954 1.516 . S
C954 C953 1.516 . S
C954 C955 1.502 . S
C954 C956 1.561 . S
C954 C957 1.526 . S
C955 H939 0.959 . S
C955 H940 0.959 . S
C955 H941 0.961 . S
C955 C954 1.502 . S
C956 H942 0.960 . S
C956 H943 0.961 . S
C956 H944 0.959 . S
C956 C954 1.561 . S
C957 C954 1.526 . S
C957 C958 1.396 . S
C957 C962 1.390 . S
C958 C952 1.465 . S
C958 C957 1.396 . S
C958 C959 1.399 . S
C959 H945 0.929 . S
C959 C958 1.399 . S
C959 C960 1.385 . S
C960 H946 0.931 1_556 S
C960 C959 1.385 . S
C960 C961 1.389 1_556 S
C961 C960 1.389 1_554 S
C961 C962 1.387 1_554 S
C962 H947 0.930 . S
C962 C957 1.390 . S
C962 C961 1.387 1_556 S
H963 C975 0.930 . S
H964 C977 0.930 . S
H965 C978 0.930 . S
H966 C982 0.959 . S
H967 C982 0.959 . S
H968 C982 0.961 . S
H969 C983 0.960 . S
H970 C983 0.961 . S
H971 C983 0.959 . S
H972 C986 0.929 . S
H973 C987 0.938 . S
H974 C989 0.930 . S
C975 H963 0.930 . S
C975 C976 1.399 . S
C975 C980 1.399 . S
C976 C975 1.399 . S
C976 C977 1.376 . S
C977 H964 0.930 . S
C977 C976 1.376 . S
C977 C978 1.388 . S
C978 H965 0.930 . S
C978 C977 1.388 . S
C978 C979 1.390 . S
C979 C978 1.390 . S
C979 C980 1.394 . S
C979 C985 1.465 . S
C980 C975 1.399 . S
C980 C979 1.394 . S
C980 C981 1.516 . S
C981 C980 1.516 . S
C981 C982 1.502 . S
C981 C983 1.561 . S
C981 C984 1.526 . S
C982 H966 0.959 . S
C982 H967 0.959 . S
C982 H968 0.961 . S
C982 C981 1.502 . S
C983 H969 0.960 . S
C983 H970 0.961 . S
C983 H971 0.959 . S
C983 C981 1.561 . S
C984 C981 1.526 . S
C984 C985 1.396 . S
C984 C989 1.390 . S
C985 C979 1.465 . S
C985 C984 1.396 . S
C985 C986 1.399 . S
C986 H972 0.929 . S
C986 C985 1.399 . S
C986 C987 1.385 . S
C987 H973 0.938 . S
C987 C986 1.385 . S
C987 C988 1.389 1_556 S
C988 C987 1.389 1_554 S
C988 C989 1.387 1_554 S
C989 H974 0.930 . S
C989 C984 1.390 . S
C989 C988 1.387 1_556 S
H990 C1002 0.930 . S
H991 C1004 0.930 . S
H992 C1005 0.930 . S
H993 C1009 0.959 . S
H994 C1009 0.959 . S
H995 C1009 0.961 . S
H996 C1010 0.960 . S
H997 C1010 0.961 . S
H998 C1010 0.959 . S
H999 C1013 0.929 . S
H1000 C1014 0.931 . S
H1001 C1016 0.930 . S
C1002 H990 0.930 . S
C1002 C1003 1.399 . S
C1002 C1007 1.399 . S
C1003 C1002 1.399 . S
C1003 C1004 1.376 . S
C1004 H991 0.930 . S
C1004 C1003 1.376 . S
C1004 C1005 1.388 . S
C1005 H992 0.930 . S
C1005 C1004 1.388 . S
C1005 C1006 1.390 . S
C1006 C1005 1.390 . S
C1006 C1007 1.394 . S
C1006 C1012 1.465 . S
C1007 C1002 1.399 . S
C1007 C1006 1.394 . S
C1007 C1008 1.516 . S
C1008 C1007 1.516 . S
C1008 C1009 1.502 . S
C1008 C1010 1.561 . S
C1008 C1011 1.526 . S
C1009 H993 0.959 . S
C1009 H994 0.959 . S
C1009 H995 0.961 . S
C1009 C1008 1.502 . S
C1010 H996 0.960 . S
C1010 H997 0.961 . S
C1010 H998 0.959 . S
C1010 C1008 1.561 . S
C1011 C1008 1.526 . S
C1011 C1012 1.396 . S
C1011 C1016 1.390 . S
C1012 C1006 1.465 . S
C1012 C1011 1.396 . S
C1012 C1013 1.399 . S
C1013 H999 0.929 . S
C1013 C1012 1.399 . S
C1013 C1014 1.385 . S
C1014 H1000 0.931 . S
C1014 C1013 1.385 . S
C1014 C1015 1.389 . S
C1015 C1014 1.389 . S
C1015 C1016 1.387 . S
C1016 H1001 0.930 . S
C1016 C1011 1.390 . S
C1016 C1015 1.387 . S
H1017 C1029 0.930 . S
H1018 C1031 0.930 . S
H1019 C1032 0.930 . S
H1020 C1036 0.959 . S
H1021 C1036 0.959 . S
H1022 C1036 0.961 . S
H1023 C1037 0.960 . S
H1024 C1037 0.961 . S
H1025 C1037 0.959 . S
H1026 C1040 0.929 . S
H1027 C1041 0.931 . S
H1028 C1043 0.930 . S
C1029 H1017 0.930 . S
C1029 C1030 1.399 . S
C1029 C1034 1.399 . S
C1030 C1029 1.399 . S
C1030 C1031 1.376 . S
C1031 H1018 0.930 . S
C1031 C1030 1.376 . S
C1031 C1032 1.388 . S
C1032 H1019 0.930 . S
C1032 C1031 1.388 . S
C1032 C1033 1.390 . S
C1033 C1032 1.390 . S
C1033 C1034 1.394 . S
C1033 C1039 1.465 . S
C1034 C1029 1.399 . S
C1034 C1033 1.394 . S
C1034 C1035 1.516 . S
C1035 C1034 1.516 . S
C1035 C1036 1.502 . S
C1035 C1037 1.561 . S
C1035 C1038 1.526 . S
C1036 H1020 0.959 . S
C1036 H1021 0.959 . S
C1036 H1022 0.961 . S
C1036 C1035 1.502 . S
C1037 H1023 0.960 . S
C1037 H1024 0.961 . S
C1037 H1025 0.959 . S
C1037 C1035 1.561 . S
C1038 C1035 1.526 . S
C1038 C1039 1.396 . S
C1038 C1043 1.390 . S
C1039 C1033 1.465 . S
C1039 C1038 1.396 . S
C1039 C1040 1.399 . S
C1040 H1026 0.929 . S
C1040 C1039 1.399 . S
C1040 C1041 1.385 . S
C1041 H1027 0.931 . S
C1041 C1040 1.385 . S
C1041 C1042 1.389 . S
C1042 C1041 1.389 . S
C1042 C1043 1.387 . S
C1043 H1028 0.930 . S
C1043 C1038 1.390 . S
C1043 C1042 1.387 . S
H1044 C1056 0.930 . S
H1045 C1058 0.930 . S
H1046 C1059 0.930 . S
H1047 C1063 0.959 . S
H1048 C1063 0.959 . S
H1049 C1063 0.961 . S
H1050 C1064 0.960 . S
H1051 C1064 0.961 . S
H1052 C1064 0.959 . S
H1053 C1067 0.929 . S
H1054 C1068 0.931 . S
H1055 C1070 0.930 . S
C1056 H1044 0.930 . S
C1056 C1057 1.399 . S
C1056 C1061 1.399 . S
C1057 C1056 1.399 . S
C1057 C1058 1.376 . S
C1058 H1045 0.930 . S
C1058 C1057 1.376 . S
C1058 C1059 1.388 . S
C1059 H1046 0.930 . S
C1059 C1058 1.388 . S
C1059 C1060 1.390 . S
C1060 C1059 1.390 . S
C1060 C1061 1.394 . S
C1060 C1066 1.465 . S
C1061 C1056 1.399 . S
C1061 C1060 1.394 . S
C1061 C1062 1.516 . S
C1062 C1061 1.516 . S
C1062 C1063 1.502 . S
C1062 C1064 1.561 . S
C1062 C1065 1.526 . S
C1063 H1047 0.959 . S
C1063 H1048 0.959 . S
C1063 H1049 0.961 . S
C1063 C1062 1.502 . S
C1064 H1050 0.960 . S
C1064 H1051 0.961 . S
C1064 H1052 0.959 . S
C1064 C1062 1.561 . S
C1065 C1062 1.526 . S
C1065 C1066 1.396 . S
C1065 C1070 1.390 . S
C1066 C1060 1.465 . S
C1066 C1065 1.396 . S
C1066 C1067 1.399 . S
C1067 H1053 0.929 . S
C1067 C1066 1.399 . S
C1067 C1068 1.385 . S
C1068 H1054 0.931 . S
C1068 C1067 1.385 . S
C1068 C1069 1.389 . S
C1069 C1068 1.389 . S
C1069 C1070 1.387 . S
C1070 H1055 0.930 . S
C1070 C1065 1.390 . S
C1070 C1069 1.387 . S
H1071 C1083 0.930 . S
H1072 C1085 0.930 . S
H1073 C1086 0.930 . S
H1074 C1090 0.959 . S
H1075 C1090 0.959 . S
H1076 C1090 0.961 . S
H1077 C1091 0.960 . S
H1078 C1091 0.961 . S
H1079 C1091 0.959 . S
H1080 C1094 0.929 . S
H1081 C1095 0.931 . S
H1082 C1097 0.930 . S
C1083 H1071 0.930 . S
C1083 C1084 1.399 . S
C1083 C1088 1.399 . S
C1084 C1083 1.399 . S
C1084 C1085 1.376 . S
C1085 H1072 0.930 . S
C1085 C1084 1.376 . S
C1085 C1086 1.388 . S
C1086 H1073 0.930 . S
C1086 C1085 1.388 . S
C1086 C1087 1.390 . S
C1087 C1086 1.390 . S
C1087 C1088 1.394 . S
C1087 C1093 1.465 . S
C1088 C1083 1.399 . S
C1088 C1087 1.394 . S
C1088 C1089 1.516 . S
C1089 C1088 1.516 . S
C1089 C1090 1.502 . S
C1089 C1091 1.561 . S
C1089 C1092 1.526 . S
C1090 H1074 0.959 . S
C1090 H1075 0.959 . S
C1090 H1076 0.961 . S
C1090 C1089 1.502 . S
C1091 H1077 0.960 . S
C1091 H1078 0.961 . S
C1091 H1079 0.959 . S
C1091 C1089 1.561 . S
C1092 C1089 1.526 . S
C1092 C1093 1.396 . S
C1092 C1097 1.390 . S
C1093 C1087 1.465 . S
C1093 C1092 1.396 . S
C1093 C1094 1.399 . S
C1094 H1080 0.929 . S
C1094 C1093 1.399 . S
C1094 C1095 1.385 . S
C1095 H1081 0.931 . S
C1095 C1094 1.385 . S
C1095 C1096 1.389 . S
C1096 C1095 1.389 . S
C1096 C1097 1.387 . S
C1097 H1082 0.930 . S
C1097 C1092 1.390 . S
C1097 C1096 1.387 . S
H1098 C1110 0.930 . S
H1099 C1112 0.930 . S
H1100 C1113 0.930 . S
H1101 C1117 0.959 . S
H1102 C1117 0.959 . S
H1103 C1117 0.961 . S
H1104 C1118 0.960 . S
H1105 C1118 0.961 . S
H1106 C1118 0.959 . S
H1107 C1121 0.929 . S
H1108 C1122 0.931 . S
H1109 C1124 0.930 . S
C1110 H1098 0.930 . S
C1110 C1111 1.399 . S
C1110 C1115 1.399 . S
C1111 C1110 1.399 . S
C1111 C1112 1.376 . S
C1112 H1099 0.930 . S
C1112 C1111 1.376 . S
C1112 C1113 1.388 . S
C1113 H1100 0.930 . S
C1113 C1112 1.388 . S
C1113 C1114 1.390 . S
C1114 C1113 1.390 . S
C1114 C1115 1.394 . S
C1114 C1120 1.465 . S
C1115 C1110 1.399 . S
C1115 C1114 1.394 . S
C1115 C1116 1.516 . S
C1116 C1115 1.516 . S
C1116 C1117 1.502 . S
C1116 C1118 1.561 . S
C1116 C1119 1.526 . S
C1117 H1101 0.959 . S
C1117 H1102 0.959 . S
C1117 H1103 0.961 . S
C1117 C1116 1.502 . S
C1118 H1104 0.960 . S
C1118 H1105 0.961 . S
C1118 H1106 0.959 . S
C1118 C1116 1.561 . S
C1119 C1116 1.526 . S
C1119 C1120 1.396 . S
C1119 C1124 1.390 . S
C1120 C1114 1.465 . S
C1120 C1119 1.396 . S
C1120 C1121 1.399 . S
C1121 H1107 0.929 . S
C1121 C1120 1.399 . S
C1121 C1122 1.385 . S
C1122 H1108 0.931 . S
C1122 C1121 1.385 . S
C1122 C1123 1.389 . S
C1123 C1122 1.389 . S
C1123 C1124 1.387 . S
C1124 H1109 0.930 . S
C1124 C1119 1.390 . S
C1124 C1123 1.387 . S
H1125 C1137 0.930 . S
H1126 C1139 0.930 . S
H1127 C1140 0.930 . S
H1128 C1144 0.959 . S
H1129 C1144 0.959 . S
H1130 C1144 0.961 . S
H1131 C1145 0.960 . S
H1132 C1145 0.961 . S
H1133 C1145 0.959 . S
H1134 C1148 0.929 . S
H1135 C1149 0.931 . S
H1136 C1151 0.930 . S
C1137 H1125 0.930 . S
C1137 C1138 1.399 . S
C1137 C1142 1.399 . S
C1138 C1137 1.399 . S
C1138 C1139 1.376 . S
C1139 H1126 0.930 . S
C1139 C1138 1.376 . S
C1139 C1140 1.388 . S
C1140 H1127 0.930 . S
C1140 C1139 1.388 . S
C1140 C1141 1.390 . S
C1141 C1140 1.390 . S
C1141 C1142 1.394 . S
C1141 C1147 1.465 . S
C1142 C1137 1.399 . S
C1142 C1141 1.394 . S
C1142 C1143 1.516 . S
C1143 C1142 1.516 . S
C1143 C1144 1.502 . S
C1143 C1145 1.561 . S
C1143 C1146 1.526 . S
C1144 H1128 0.959 . S
C1144 H1129 0.959 . S
C1144 H1130 0.961 . S
C1144 C1143 1.502 . S
C1145 H1131 0.960 . S
C1145 H1132 0.961 . S
C1145 H1133 0.959 . S
C1145 C1143 1.561 . S
C1146 C1143 1.526 . S
C1146 C1147 1.396 . S
C1146 C1151 1.390 . S
C1147 C1141 1.465 . S
C1147 C1146 1.396 . S
C1147 C1148 1.399 . S
C1148 H1134 0.929 . S
C1148 C1147 1.399 . S
C1148 C1149 1.385 . S
C1149 H1135 0.931 . S
C1149 C1148 1.385 . S
C1149 C1150 1.389 . S
C1150 C1149 1.389 . S
C1150 C1151 1.387 . S
C1151 H1136 0.930 . S
C1151 C1146 1.390 . S
C1151 C1150 1.387 . S
H1152 C1164 0.930 . S
H1153 C1166 0.930 . S
H1154 C1167 0.930 . S
H1155 C1171 0.959 . S
H1156 C1171 0.959 . S
H1157 C1171 0.961 . S
H1158 C1172 0.960 . S
H1159 C1172 0.961 . S
H1160 C1172 0.959 . S
H1161 C1175 0.929 . S
H1162 C1176 0.931 . S
H1163 C1178 0.930 . S
C1164 H1152 0.930 . S
C1164 C1165 1.399 . S
C1164 C1169 1.399 . S
C1165 C1164 1.399 . S
C1165 C1166 1.376 . S
C1166 H1153 0.930 . S
C1166 C1165 1.376 . S
C1166 C1167 1.388 . S
C1167 H1154 0.930 . S
C1167 C1166 1.388 . S
C1167 C1168 1.390 . S
C1168 C1167 1.390 . S
C1168 C1169 1.394 . S
C1168 C1174 1.465 . S
C1169 C1164 1.399 . S
C1169 C1168 1.394 . S
C1169 C1170 1.516 . S
C1170 C1169 1.516 . S
C1170 C1171 1.502 . S
C1170 C1172 1.561 . S
C1170 C1173 1.526 . S
C1171 H1155 0.959 . S
C1171 H1156 0.959 . S
C1171 H1157 0.961 . S
C1171 C1170 1.502 . S
C1172 H1158 0.960 . S
C1172 H1159 0.961 . S
C1172 H1160 0.959 . S
C1172 C1170 1.561 . S
C1173 C1170 1.526 . S
C1173 C1174 1.396 . S
C1173 C1178 1.390 . S
C1174 C1168 1.465 . S
C1174 C1173 1.396 . S
C1174 C1175 1.399 . S
C1175 H1161 0.929 . S
C1175 C1174 1.399 . S
C1175 C1176 1.385 . S
C1176 H1162 0.931 . S
C1176 C1175 1.385 . S
C1176 C1177 1.389 . S
C1177 C1176 1.389 . S
C1177 C1178 1.387 . S
C1178 H1163 0.930 . S
C1178 C1173 1.390 . S
C1178 C1177 1.387 . S
H1179 C1191 0.930 . S
H1180 C1193 0.930 . S
H1181 C1194 0.930 . S
H1182 C1198 0.959 . S
H1183 C1198 0.959 . S
H1184 C1198 0.961 . S
H1185 C1199 0.960 . S
H1186 C1199 0.961 . S
H1187 C1199 0.959 . S
H1188 C1202 0.929 . S
H1189 C1203 0.931 . S
H1190 C1205 0.930 . S
C1191 H1179 0.930 . S
C1191 C1192 1.399 . S
C1191 C1196 1.399 . S
C1192 C1191 1.399 . S
C1192 C1193 1.376 . S
C1193 H1180 0.930 . S
C1193 C1192 1.376 . S
C1193 C1194 1.388 . S
C1194 H1181 0.930 . S
C1194 C1193 1.388 . S
C1194 C1195 1.390 . S
C1195 C1194 1.390 . S
C1195 C1196 1.394 . S
C1195 C1201 1.465 . S
C1196 C1191 1.399 . S
C1196 C1195 1.394 . S
C1196 C1197 1.516 . S
C1197 C1196 1.516 . S
C1197 C1198 1.502 . S
C1197 C1199 1.561 . S
C1197 C1200 1.526 . S
C1198 H1182 0.959 . S
C1198 H1183 0.959 . S
C1198 H1184 0.961 . S
C1198 C1197 1.502 . S
C1199 H1185 0.960 . S
C1199 H1186 0.961 . S
C1199 H1187 0.959 . S
C1199 C1197 1.561 . S
C1200 C1197 1.526 . S
C1200 C1201 1.396 . S
C1200 C1205 1.390 . S
C1201 C1195 1.465 . S
C1201 C1200 1.396 . S
C1201 C1202 1.399 . S
C1202 H1188 0.929 . S
C1202 C1201 1.399 . S
C1202 C1203 1.385 . S
C1203 H1189 0.931 . S
C1203 C1202 1.385 . S
C1203 C1204 1.389 . S
C1204 C1203 1.389 . S
C1204 C1205 1.387 . S
C1205 H1190 0.930 . S
C1205 C1200 1.390 . S
C1205 C1204 1.387 . S
H1206 C1218 0.930 . S
H1207 C1220 0.930 . S
H1208 C1221 0.930 . S
H1209 C1225 0.959 . S
H1210 C1225 0.959 . S
H1211 C1225 0.961 . S
H1212 C1226 0.960 . S
H1213 C1226 0.961 . S
H1214 C1226 0.959 . S
H1215 C1229 0.929 . S
H1216 C1230 0.931 . S
H1217 C1232 0.930 . S
C1218 H1206 0.930 . S
C1218 C1219 1.399 . S
C1218 C1223 1.399 . S
C1219 C1218 1.399 . S
C1219 C1220 1.376 . S
C1220 H1207 0.930 . S
C1220 C1219 1.376 . S
C1220 C1221 1.388 . S
C1221 H1208 0.930 . S
C1221 C1220 1.388 . S
C1221 C1222 1.390 . S
C1222 C1221 1.390 . S
C1222 C1223 1.394 . S
C1222 C1228 1.465 . S
C1223 C1218 1.399 . S
C1223 C1222 1.394 . S
C1223 C1224 1.516 . S
C1224 C1223 1.516 . S
C1224 C1225 1.502 . S
C1224 C1226 1.561 . S
C1224 C1227 1.526 . S
C1225 H1209 0.959 . S
C1225 H1210 0.959 . S
C1225 H1211 0.961 . S
C1225 C1224 1.502 . S
C1226 H1212 0.960 . S
C1226 H1213 0.961 . S
C1226 H1214 0.959 . S
C1226 C1224 1.561 . S
C1227 C1224 1.526 . S
C1227 C1228 1.396 . S
C1227 C1232 1.390 . S
C1228 C1222 1.465 . S
C1228 C1227 1.396 . S
C1228 C1229 1.399 . S
C1229 H1215 0.929 . S
C1229 C1228 1.399 . S
C1229 C1230 1.385 . S
C1230 H1216 0.931 . S
C1230 C1229 1.385 . S
C1230 C1231 1.389 . S
C1231 C1230 1.389 . S
C1231 C1232 1.387 . S
C1232 H1217 0.930 . S
C1232 C1227 1.390 . S
C1232 C1231 1.387 . S
H1233 C1245 0.930 . S
H1234 C1247 0.930 . S
H1235 C1248 0.930 . S
H1236 C1252 0.959 . S
H1237 C1252 0.959 . S
H1238 C1252 0.961 . S
H1239 C1253 0.960 . S
H1240 C1253 0.961 . S
H1241 C1253 0.959 . S
H1242 C1256 0.929 . S
H1243 C1257 0.931 . S
H1244 C1259 0.930 . S
C1245 H1233 0.930 . S
C1245 C1246 1.399 . S
C1245 C1250 1.399 . S
C1246 C1245 1.399 . S
C1246 C1247 1.376 . S
C1247 H1234 0.930 . S
C1247 C1246 1.376 . S
C1247 C1248 1.388 . S
C1248 H1235 0.930 . S
C1248 C1247 1.388 . S
C1248 C1249 1.390 . S
C1249 C1248 1.390 . S
C1249 C1250 1.394 . S
C1249 C1255 1.465 . S
C1250 C1245 1.399 . S
C1250 C1249 1.394 . S
C1250 C1251 1.516 . S
C1251 C1250 1.516 . S
C1251 C1252 1.502 . S
C1251 C1253 1.561 . S
C1251 C1254 1.526 . S
C1252 H1236 0.959 . S
C1252 H1237 0.959 . S
C1252 H1238 0.961 . S
C1252 C1251 1.502 . S
C1253 H1239 0.960 . S
C1253 H1240 0.961 . S
C1253 H1241 0.959 . S
C1253 C1251 1.561 . S
C1254 C1251 1.526 . S
C1254 C1255 1.396 . S
C1254 C1259 1.390 . S
C1255 C1249 1.465 . S
C1255 C1254 1.396 . S
C1255 C1256 1.399 . S
C1256 H1242 0.929 . S
C1256 C1255 1.399 . S
C1256 C1257 1.385 . S
C1257 H1243 0.931 . S
C1257 C1256 1.385 . S
C1257 C1258 1.389 . S
C1258 C1257 1.389 . S
C1258 C1259 1.387 . S
C1259 H1244 0.930 . S
C1259 C1254 1.390 . S
C1259 C1258 1.387 . S
H1260 C1272 0.930 . S
H1261 C1274 0.930 . S
H1262 C1275 0.930 . S
H1263 C1279 0.959 . S
H1264 C1279 0.959 . S
H1265 C1279 0.961 . S
H1266 C1280 0.960 . S
H1267 C1280 0.961 . S
H1268 C1280 0.959 . S
H1269 C1283 0.929 . S
H1270 C1284 0.931 . S
H1271 C1286 0.930 . S
C1272 H1260 0.930 . S
C1272 C1273 1.399 . S
C1272 C1277 1.399 . S
C1273 C1272 1.399 . S
C1273 C1274 1.376 . S
C1274 H1261 0.930 . S
C1274 C1273 1.376 . S
C1274 C1275 1.388 . S
C1275 H1262 0.930 . S
C1275 C1274 1.388 . S
C1275 C1276 1.390 . S
C1276 C1275 1.390 . S
C1276 C1277 1.394 . S
C1276 C1282 1.465 . S
C1277 C1272 1.399 . S
C1277 C1276 1.394 . S
C1277 C1278 1.516 . S
C1278 C1277 1.516 . S
C1278 C1279 1.502 . S
C1278 C1280 1.561 . S
C1278 C1281 1.526 . S
C1279 H1263 0.959 . S
C1279 H1264 0.959 . S
C1279 H1265 0.961 . S
C1279 C1278 1.502 . S
C1280 H1266 0.960 . S
C1280 H1267 0.961 . S
C1280 H1268 0.959 . S
C1280 C1278 1.561 . S
C1281 C1278 1.526 . S
C1281 C1282 1.396 . S
C1281 C1286 1.390 . S
C1282 C1276 1.465 . S
C1282 C1281 1.396 . S
C1282 C1283 1.399 . S
C1283 H1269 0.929 . S
C1283 C1282 1.399 . S
C1283 C1284 1.385 . S
C1284 H1270 0.931 . S
C1284 C1283 1.385 . S
C1284 C1285 1.389 . S
C1285 C1284 1.389 . S
C1285 C1286 1.387 . S
C1286 H1271 0.930 . S
C1286 C1281 1.390 . S
C1286 C1285 1.387 . S
H1287 C1299 0.930 . S
H1288 C1301 0.930 . S
H1289 C1302 0.930 . S
H1290 C1306 0.959 . S
H1291 C1306 0.959 . S
H1292 C1306 0.961 . S
H1293 C1307 0.960 . S
H1294 C1307 0.961 . S
H1295 C1307 0.959 . S
H1296 C1310 0.929 . S
H1297 C1311 0.931 . S
H1298 C1313 0.930 . S
C1299 H1287 0.930 . S
C1299 C1300 1.399 . S
C1299 C1304 1.399 . S
C1300 C1299 1.399 . S
C1300 C1301 1.376 . S
C1301 H1288 0.930 . S
C1301 C1300 1.376 . S
C1301 C1302 1.388 . S
C1302 H1289 0.930 . S
C1302 C1301 1.388 . S
C1302 C1303 1.390 . S
C1303 C1302 1.390 . S
C1303 C1304 1.394 . S
C1303 C1309 1.465 . S
C1304 C1299 1.399 . S
C1304 C1303 1.394 . S
C1304 C1305 1.516 . S
C1305 C1304 1.516 . S
C1305 C1306 1.502 . S
C1305 C1307 1.561 . S
C1305 C1308 1.526 . S
C1306 H1290 0.959 . S
C1306 H1291 0.959 . S
C1306 H1292 0.961 . S
C1306 C1305 1.502 . S
C1307 H1293 0.960 . S
C1307 H1294 0.961 . S
C1307 H1295 0.959 . S
C1307 C1305 1.561 . S
C1308 C1305 1.526 . S
C1308 C1309 1.396 . S
C1308 C1313 1.390 . S
C1309 C1303 1.465 . S
C1309 C1308 1.396 . S
C1309 C1310 1.399 . S
C1310 H1296 0.929 . S
C1310 C1309 1.399 . S
C1310 C1311 1.385 . S
C1311 H1297 0.931 . S
C1311 C1310 1.385 . S
C1311 C1312 1.389 . S
C1312 C1311 1.389 . S
C1312 C1313 1.387 . S
C1313 H1298 0.930 . S
C1313 C1308 1.390 . S
C1313 C1312 1.387 . S
H1314 C1326 0.930 . S
H1315 C1328 0.930 . S
H1316 C1329 0.930 . S
H1317 C1333 0.959 . S
H1318 C1333 0.959 . S
H1319 C1333 0.961 . S
H1320 C1334 0.960 . S
H1321 C1334 0.961 . S
H1322 C1334 0.959 . S
H1323 C1337 0.929 . S
H1324 C1338 0.931 . S
H1325 C1340 0.930 . S
C1326 H1314 0.930 . S
C1326 C1327 1.399 . S
C1326 C1331 1.399 . S
C1327 C1326 1.399 . S
C1327 C1328 1.376 . S
C1328 H1315 0.930 . S
C1328 C1327 1.376 . S
C1328 C1329 1.388 . S
C1329 H1316 0.930 . S
C1329 C1328 1.388 . S
C1329 C1330 1.390 . S
C1330 C1329 1.390 . S
C1330 C1331 1.394 . S
C1330 C1336 1.465 . S
C1331 C1326 1.399 . S
C1331 C1330 1.394 . S
C1331 C1332 1.516 . S
C1332 C1331 1.516 . S
C1332 C1333 1.502 . S
C1332 C1334 1.561 . S
C1332 C1335 1.526 . S
C1333 H1317 0.959 . S
C1333 H1318 0.959 . S
C1333 H1319 0.961 . S
C1333 C1332 1.502 . S
C1334 H1320 0.960 . S
C1334 H1321 0.961 . S
C1334 H1322 0.959 . S
C1334 C1332 1.561 . S
C1335 C1332 1.526 . S
C1335 C1336 1.396 . S
C1335 C1340 1.390 . S
C1336 C1330 1.465 . S
C1336 C1335 1.396 . S
C1336 C1337 1.399 . S
C1337 H1323 0.929 . S
C1337 C1336 1.399 . S
C1337 C1338 1.385 . S
C1338 H1324 0.931 . S
C1338 C1337 1.385 . S
C1338 C1339 1.389 . S
C1339 C1338 1.389 . S
C1339 C1340 1.387 . S
C1340 H1325 0.930 . S
C1340 C1335 1.390 . S
C1340 C1339 1.387 . S
H1341 C1353 0.930 . S
H1342 C1355 0.930 . S
H1343 C1356 0.930 . S
H1344 C1360 0.959 . S
H1345 C1360 0.959 . S
H1346 C1360 0.961 . S
H1347 C1361 0.960 . S
H1348 C1361 0.961 . S
H1349 C1361 0.959 . S
H1350 C1364 0.929 . S
H1351 C1365 0.931 . S
H1352 C1367 0.930 . S
C1353 H1341 0.930 . S
C1353 C1354 1.399 . S
C1353 C1358 1.399 . S
C1354 C1353 1.399 . S
C1354 C1355 1.376 . S
C1355 H1342 0.930 . S
C1355 C1354 1.376 . S
C1355 C1356 1.388 . S
C1356 H1343 0.930 . S
C1356 C1355 1.388 . S
C1356 C1357 1.390 . S
C1357 C1356 1.390 . S
C1357 C1358 1.394 . S
C1357 C1363 1.465 . S
C1358 C1353 1.399 . S
C1358 C1357 1.394 . S
C1358 C1359 1.516 . S
C1359 C1358 1.516 . S
C1359 C1360 1.502 . S
C1359 C1361 1.561 . S
C1359 C1362 1.526 . S
C1360 H1344 0.959 . S
C1360 H1345 0.959 . S
C1360 H1346 0.961 . S
C1360 C1359 1.502 . S
C1361 H1347 0.960 . S
C1361 H1348 0.961 . S
C1361 H1349 0.959 . S
C1361 C1359 1.561 . S
C1362 C1359 1.526 . S
C1362 C1363 1.396 . S
C1362 C1367 1.390 . S
C1363 C1357 1.465 . S
C1363 C1362 1.396 . S
C1363 C1364 1.399 . S
C1364 H1350 0.929 . S
C1364 C1363 1.399 . S
C1364 C1365 1.385 . S
C1365 H1351 0.931 . S
C1365 C1364 1.385 . S
C1365 C1366 1.389 . S
C1366 C1365 1.389 . S
C1366 C1367 1.387 . S
C1367 H1352 0.930 . S
C1367 C1362 1.390 . S
C1367 C1366 1.387 . S
H1368 C1380 0.930 . S
H1369 C1382 0.930 . S
H1370 C1383 0.930 . S
H1371 C1387 0.959 . S
H1372 C1387 0.959 . S
H1373 C1387 0.961 . S
H1374 C1388 0.960 . S
H1375 C1388 0.961 . S
H1376 C1388 0.959 . S
H1377 C1391 0.929 . S
H1378 C1392 0.931 . S
H1379 C1394 0.930 . S
C1380 H1368 0.930 . S
C1380 C1381 1.399 . S
C1380 C1385 1.399 . S
C1381 C1380 1.399 . S
C1381 C1382 1.376 . S
C1382 H1369 0.930 . S
C1382 C1381 1.376 . S
C1382 C1383 1.388 . S
C1383 H1370 0.930 . S
C1383 C1382 1.388 . S
C1383 C1384 1.390 . S
C1384 C1383 1.390 . S
C1384 C1385 1.394 . S
C1384 C1390 1.465 . S
C1385 C1380 1.399 . S
C1385 C1384 1.394 . S
C1385 C1386 1.516 . S
C1386 C1385 1.516 . S
C1386 C1387 1.502 . S
C1386 C1388 1.561 . S
C1386 C1389 1.526 . S
C1387 H1371 0.959 . S
C1387 H1372 0.959 . S
C1387 H1373 0.961 . S
C1387 C1386 1.502 . S
C1388 H1374 0.960 . S
C1388 H1375 0.961 . S
C1388 H1376 0.959 . S
C1388 C1386 1.561 . S
C1389 C1386 1.526 . S
C1389 C1390 1.396 . S
C1389 C1394 1.390 . S
C1390 C1384 1.465 . S
C1390 C1389 1.396 . S
C1390 C1391 1.399 . S
C1391 H1377 0.929 . S
C1391 C1390 1.399 . S
C1391 C1392 1.385 . S
C1392 H1378 0.931 . S
C1392 C1391 1.385 . S
C1392 C1393 1.389 . S
C1393 C1392 1.389 . S
C1393 C1394 1.387 . S
C1394 H1379 0.930 . S
C1394 C1389 1.390 . S
C1394 C1393 1.387 . S
H1395 C1407 0.930 . S
H1396 C1409 0.930 . S
H1397 C1410 0.930 . S
H1398 C1414 0.959 . S
H1399 C1414 0.959 . S
H1400 C1414 0.961 . S
H1401 C1415 0.960 . S
H1402 C1415 0.961 . S
H1403 C1415 0.959 . S
H1404 C1418 0.929 . S
H1405 C1419 0.931 1_556 S
H1406 C1421 0.930 . S
C1407 H1395 0.930 . S
C1407 C1408 1.399 . S
C1407 C1412 1.399 . S
C1408 C1407 1.399 . S
C1408 C1409 1.376 . S
C1409 H1396 0.930 . S
C1409 C1408 1.376 . S
C1409 C1410 1.388 . S
C1410 H1397 0.930 . S
C1410 C1409 1.388 . S
C1410 C1411 1.390 . S
C1411 C1410 1.390 . S
C1411 C1412 1.394 . S
C1411 C1417 1.465 . S
C1412 C1407 1.399 . S
C1412 C1411 1.394 . S
C1412 C1413 1.516 . S
C1413 C1412 1.516 . S
C1413 C1414 1.502 . S
C1413 C1415 1.561 . S
C1413 C1416 1.526 . S
C1414 H1398 0.959 . S
C1414 H1399 0.959 . S
C1414 H1400 0.961 . S
C1414 C1413 1.502 . S
C1415 H1401 0.960 . S
C1415 H1402 0.961 . S
C1415 H1403 0.959 . S
C1415 C1413 1.561 . S
C1416 C1413 1.526 . S
C1416 C1417 1.396 . S
C1416 C1421 1.390 . S
C1417 C1411 1.465 . S
C1417 C1416 1.396 . S
C1417 C1418 1.399 . S
C1418 H1404 0.929 . S
C1418 C1417 1.399 . S
C1418 C1419 1.385 . S
C1419 H1405 0.931 1_554 S
C1419 C1418 1.385 . S
C1419 C1420 1.389 1_554 S
C1420 C1419 1.389 1_556 S
C1420 C1421 1.387 1_556 S
C1421 H1406 0.930 . S
C1421 C1416 1.390 . S
C1421 C1420 1.387 1_554 S
H1422 C1434 0.930 . S
H1423 C1436 0.919 1_556 S
H1424 C1437 0.930 . S
H1425 C1441 0.959 . S
H1426 C1441 0.959 . S
H1427 C1441 0.961 . S
H1428 C1442 0.960 . S
H1429 C1442 0.961 . S
H1430 C1442 0.959 . S
H1431 C1445 0.929 . S
H1432 C1446 0.931 . S
H1433 C1448 0.930 . S
C1434 H1422 0.930 . S
C1434 C1435 1.399 1_554 S
C1434 C1439 1.399 . S
C1435 C1434 1.399 1_556 S
C1435 C1436 1.376 1_556 S
C1436 H1423 0.919 1_554 S
C1436 C1435 1.376 1_554 S
C1436 C1437 1.388 . S
C1437 H1424 0.930 . S
C1437 C1436 1.388 . S
C1437 C1438 1.390 . S
C1438 C1437 1.390 . S
C1438 C1439 1.394 . S
C1438 C1444 1.465 . S
C1439 C1434 1.399 . S
C1439 C1438 1.394 . S
C1439 C1440 1.516 . S
C1440 C1439 1.516 . S
C1440 C1441 1.502 . S
C1440 C1442 1.561 . S
C1440 C1443 1.526 . S
C1441 H1425 0.959 . S
C1441 H1426 0.959 . S
C1441 H1427 0.961 . S
C1441 C1440 1.502 . S
C1442 H1428 0.960 . S
C1442 H1429 0.961 . S
C1442 H1430 0.959 . S
C1442 C1440 1.561 . S
C1443 C1440 1.526 . S
C1443 C1444 1.396 . S
C1443 C1448 1.390 . S
C1444 C1438 1.465 . S
C1444 C1443 1.396 . S
C1444 C1445 1.399 . S
C1445 H1431 0.929 . S
C1445 C1444 1.399 . S
C1445 C1446 1.385 . S
C1446 H1432 0.931 . S
C1446 C1445 1.385 . S
C1446 C1447 1.389 . S
C1447 C1446 1.389 . S
C1447 C1448 1.387 . S
C1448 H1433 0.930 . S
C1448 C1443 1.390 . S
C1448 C1447 1.387 . S
H1449 C1461 0.930 . S
H1450 C1463 0.930 . S
H1451 C1464 0.930 . S
H1452 C1468 0.959 . S
H1453 C1468 0.959 . S
H1454 C1468 0.961 . S
H1455 C1469 0.960 . S
H1456 C1469 0.961 . S
H1457 C1469 0.959 . S
H1458 C1472 0.929 . S
H1459 C1473 0.931 1_556 S
H1460 C1475 0.930 . S
C1461 H1449 0.930 . S
C1461 C1462 1.399 . S
C1461 C1466 1.399 . S
C1462 C1461 1.399 . S
C1462 C1463 1.376 . S
C1463 H1450 0.930 . S
C1463 C1462 1.376 . S
C1463 C1464 1.388 . S
C1464 H1451 0.930 . S
C1464 C1463 1.388 . S
C1464 C1465 1.390 . S
C1465 C1464 1.390 . S
C1465 C1466 1.394 . S
C1465 C1471 1.465 . S
C1466 C1461 1.399 . S
C1466 C1465 1.394 . S
C1466 C1467 1.516 . S
C1467 C1466 1.516 . S
C1467 C1468 1.502 . S
C1467 C1469 1.561 . S
C1467 C1470 1.526 . S
C1468 H1452 0.959 . S
C1468 H1453 0.959 . S
C1468 H1454 0.961 . S
C1468 C1467 1.502 . S
C1469 H1455 0.960 . S
C1469 H1456 0.961 . S
C1469 H1457 0.959 . S
C1469 C1467 1.561 . S
C1470 C1467 1.526 . S
C1470 C1471 1.396 . S
C1470 C1475 1.390 . S
C1471 C1465 1.465 . S
C1471 C1470 1.396 . S
C1471 C1472 1.399 . S
C1472 H1458 0.929 . S
C1472 C1471 1.399 . S
C1472 C1473 1.385 . S
C1473 H1459 0.931 1_554 S
C1473 C1472 1.385 . S
C1473 C1474 1.389 1_554 S
C1474 C1473 1.389 1_556 S
C1474 C1475 1.387 1_556 S
C1475 H1460 0.930 . S
C1475 C1470 1.390 . S
C1475 C1474 1.387 1_554 S
H1476 C1488 0.930 . S
H1477 C1490 0.930 . S
H1478 C1491 0.930 . S
H1479 C1495 0.959 . S
H1480 C1495 0.959 . S
H1481 C1495 0.961 . S
H1482 C1496 0.960 . S
H1483 C1496 0.961 . S
H1484 C1496 0.959 . S
H1485 C1499 0.929 . S
H1486 C1500 0.931 . S
H1487 C1502 0.930 . S
C1488 H1476 0.930 . S
C1488 C1489 1.399 . S
C1488 C1493 1.399 . S
C1489 C1488 1.399 . S
C1489 C1490 1.376 . S
C1490 H1477 0.930 . S
C1490 C1489 1.376 . S
C1490 C1491 1.388 . S
C1491 H1478 0.930 . S
C1491 C1490 1.388 . S
C1491 C1492 1.390 . S
C1492 C1491 1.390 . S
C1492 C1493 1.394 . S
C1492 C1498 1.465 . S
C1493 C1488 1.399 . S
C1493 C1492 1.394 . S
C1493 C1494 1.516 . S
C1494 C1493 1.516 . S
C1494 C1495 1.502 . S
C1494 C1496 1.561 . S
C1494 C1497 1.526 . S
C1495 H1479 0.959 . S
C1495 H1480 0.959 . S
C1495 H1481 0.961 . S
C1495 C1494 1.502 . S
C1496 H1482 0.960 . S
C1496 H1483 0.961 . S
C1496 H1484 0.959 . S
C1496 C1494 1.561 . S
C1497 C1494 1.526 . S
C1497 C1498 1.396 . S
C1497 C1502 1.390 . S
C1498 C1492 1.465 . S
C1498 C1497 1.396 . S
C1498 C1499 1.399 . S
C1499 H1485 0.929 . S
C1499 C1498 1.399 . S
C1499 C1500 1.385 . S
C1500 H1486 0.931 . S
C1500 C1499 1.385 . S
C1500 C1501 1.389 . S
C1501 C1500 1.389 . S
C1501 C1502 1.387 . S
C1502 H1487 0.930 . S
C1502 C1497 1.390 . S
C1502 C1501 1.387 . S
H1503 C1515 0.930 . S
H1504 C1517 0.930 . S
H1505 C1518 0.930 . S
H1506 C1522 0.959 . S
H1507 C1522 0.959 1_545 S
H1508 C1522 0.961 . S
H1509 C1523 0.960 . S
H1510 C1523 0.946 1_545 S
H1511 C1523 0.959 . S
H1512 C1526 0.929 . S
H1513 C1527 0.931 . S
H1514 C1529 0.930 . S
C1515 H1503 0.930 . S
C1515 C1516 1.399 . S
C1515 C1520 1.399 . S
C1516 C1515 1.399 . S
C1516 C1517 1.376 . S
C1517 H1504 0.930 . S
C1517 C1516 1.376 . S
C1517 C1518 1.388 . S
C1518 H1505 0.930 . S
C1518 C1517 1.388 . S
C1518 C1519 1.390 . S
C1519 C1518 1.390 . S
C1519 C1520 1.394 . S
C1519 C1525 1.465 1_565 S
C1520 C1515 1.399 . S
C1520 C1519 1.394 . S
C1520 C1521 1.516 . S
C1521 C1520 1.516 . S
C1521 C1522 1.502 . S
C1521 C1523 1.561 . S
C1521 C1524 1.526 1_565 S
C1522 H1506 0.959 . S
C1522 H1507 0.959 1_565 S
C1522 H1508 0.961 . S
C1522 C1521 1.502 . S
C1523 H1509 0.960 . S
C1523 H1510 0.946 1_565 S
C1523 H1511 0.959 . S
C1523 C1521 1.561 . S
C1524 C1521 1.526 1_545 S
C1524 C1525 1.396 . S
C1524 C1529 1.390 . S
C1525 C1519 1.465 1_545 S
C1525 C1524 1.396 . S
C1525 C1526 1.399 . S
C1526 H1512 0.929 . S
C1526 C1525 1.399 . S
C1526 C1527 1.385 . S
C1527 H1513 0.931 . S
C1527 C1526 1.385 . S
C1527 C1528 1.389 . S
C1528 C1527 1.389 . S
C1528 C1529 1.387 . S
C1529 H1514 0.930 . S
C1529 C1524 1.390 . S
C1529 C1528 1.387 . S
H1530 C1542 0.930 . S
H1531 C1544 0.930 . S
H1532 C1545 0.930 . S
H1533 C1549 0.959 . S
H1534 C1549 0.959 1_455 S
H1535 C1549 0.961 . S
H1536 C1550 0.960 . S
H1537 C1550 0.961 1_455 S
H1538 C1550 0.959 . S
H1539 C1553 0.929 . S
H1540 C1554 0.931 . S
H1541 C1556 0.930 . S
C1542 H1530 0.930 . S
C1542 C1543 1.399 . S
C1542 C1547 1.399 . S
C1543 C1542 1.399 . S
C1543 C1544 1.376 . S
C1544 H1531 0.930 . S
C1544 C1543 1.376 . S
C1544 C1545 1.388 . S
C1545 H1532 0.930 . S
C1545 C1544 1.388 . S
C1545 C1546 1.390 . S
C1546 C1545 1.390 . S
C1546 C1547 1.394 . S
C1546 C1552 1.465 1_655 S
C1547 C1542 1.399 . S
C1547 C1546 1.394 . S
C1547 C1548 1.516 . S
C1548 C1547 1.516 . S
C1548 C1549 1.502 . S
C1548 C1550 1.561 . S
C1548 C1551 1.526 1_655 S
C1549 H1533 0.959 . S
C1549 H1534 0.959 1_655 S
C1549 H1535 0.961 . S
C1549 C1548 1.502 . S
C1550 H1536 0.960 . S
C1550 H1537 0.961 1_655 S
C1550 H1538 0.959 . S
C1550 C1548 1.561 . S
C1551 C1548 1.526 1_455 S
C1551 C1552 1.396 . S
C1551 C1556 1.390 . S
C1552 C1546 1.465 1_455 S
C1552 C1551 1.396 . S
C1552 C1553 1.399 . S
C1553 H1539 0.929 . S
C1553 C1552 1.399 . S
C1553 C1554 1.385 . S
C1554 H1540 0.931 . S
C1554 C1553 1.385 . S
C1554 C1555 1.389 . S
C1555 C1554 1.389 . S
C1555 C1556 1.387 . S
C1556 H1541 0.930 . S
C1556 C1551 1.390 . S
C1556 C1555 1.387 . S
H1557 C1569 0.930 . S
H1558 C1571 0.930 . S
H1559 C1572 0.930 . S
H1560 C1576 0.959 . S
H1561 C1576 0.959 . S
H1562 C1576 0.961 . S
H1563 C1577 0.960 . S
H1564 C1577 0.961 . S
H1565 C1577 0.959 . S
H1566 C1580 0.929 . S
H1567 C1581 0.931 . S
H1568 C1583 0.930 . S
C1569 H1557 0.930 . S
C1569 C1570 1.399 . S
C1569 C1574 1.399 . S
C1570 C1569 1.399 . S
C1570 C1571 1.376 . S
C1571 H1558 0.930 . S
C1571 C1570 1.376 . S
C1571 C1572 1.388 . S
C1572 H1559 0.930 . S
C1572 C1571 1.388 . S
C1572 C1573 1.390 . S
C1573 C1572 1.390 . S
C1573 C1574 1.394 . S
C1573 C1579 1.465 . S
C1574 C1569 1.399 . S
C1574 C1573 1.394 . S
C1574 C1575 1.516 . S
C1575 C1574 1.516 . S
C1575 C1576 1.502 . S
C1575 C1577 1.561 . S
C1575 C1578 1.526 . S
C1576 H1560 0.959 . S
C1576 H1561 0.959 . S
C1576 H1562 0.961 . S
C1576 C1575 1.502 . S
C1577 H1563 0.960 . S
C1577 H1564 0.961 . S
C1577 H1565 0.959 . S
C1577 C1575 1.561 . S
C1578 C1575 1.526 . S
C1578 C1579 1.396 . S
C1578 C1583 1.390 . S
C1579 C1573 1.465 . S
C1579 C1578 1.396 . S
C1579 C1580 1.399 . S
C1580 H1566 0.929 . S
C1580 C1579 1.399 . S
C1580 C1581 1.385 . S
C1581 H1567 0.931 . S
C1581 C1580 1.385 . S
C1581 C1582 1.389 . S
C1582 C1581 1.389 . S
C1582 C1583 1.387 . S
C1583 H1568 0.930 . S
C1583 C1578 1.390 . S
C1583 C1582 1.387 . S
H1584 C1596 0.930 . S
H1585 C1598 0.930 . S
H1586 C1599 0.930 . S
H1587 C1603 0.959 . S
H1588 C1603 0.959 1_565 S
H1589 C1603 0.961 . S
H1590 C1604 0.960 . S
H1591 C1604 0.935 1_565 S
H1592 C1604 0.959 . S
H1593 C1607 0.929 . S
H1594 C1608 0.931 . S
H1595 C1610 0.930 . S
C1596 H1584 0.930 . S
C1596 C1597 1.399 . S
C1596 C1601 1.399 . S
C1597 C1596 1.399 . S
C1597 C1598 1.376 . S
C1598 H1585 0.930 . S
C1598 C1597 1.376 . S
C1598 C1599 1.388 . S
C1599 H1586 0.930 . S
C1599 C1598 1.388 . S
C1599 C1600 1.390 . S
C1600 C1599 1.390 . S
C1600 C1601 1.394 . S
C1600 C1606 1.465 1_545 S
C1601 C1596 1.399 . S
C1601 C1600 1.394 . S
C1601 C1602 1.516 . S
C1602 C1601 1.516 . S
C1602 C1603 1.502 . S
C1602 C1604 1.561 . S
C1602 C1605 1.526 1_545 S
C1603 H1587 0.959 . S
C1603 H1588 0.959 1_545 S
C1603 H1589 0.961 . S
C1603 C1602 1.502 . S
C1604 H1590 0.960 . S
C1604 H1591 0.935 1_545 S
C1604 H1592 0.959 . S
C1604 C1602 1.561 . S
C1605 C1602 1.526 1_565 S
C1605 C1606 1.396 . S
C1605 C1610 1.390 . S
C1606 C1600 1.465 1_565 S
C1606 C1605 1.396 . S
C1606 C1607 1.399 . S
C1607 H1593 0.929 . S
C1607 C1606 1.399 . S
C1607 C1608 1.385 . S
C1608 H1594 0.931 . S
C1608 C1607 1.385 . S
C1608 C1609 1.389 . S
C1609 C1608 1.389 . S
C1609 C1610 1.387 . S
C1610 H1595 0.930 . S
C1610 C1605 1.390 . S
C1610 C1609 1.387 . S
H1611 C1623 0.930 . S
H1612 C1625 0.930 . S
H1613 C1626 0.930 . S
H1614 C1630 0.959 . S
H1615 C1630 0.916 1_455 S
H1616 C1630 0.961 . S
H1617 C1631 0.960 . S
H1618 C1631 0.961 1_455 S
H1619 C1631 0.959 . S
H1620 C1634 0.929 . S
H1621 C1635 0.931 . S
H1622 C1637 0.930 . S
C1623 H1611 0.930 . S
C1623 C1624 1.399 . S
C1623 C1628 1.399 . S
C1624 C1623 1.399 . S
C1624 C1625 1.376 . S
C1625 H1612 0.930 . S
C1625 C1624 1.376 . S
C1625 C1626 1.388 . S
C1626 H1613 0.930 . S
C1626 C1625 1.388 . S
C1626 C1627 1.390 . S
C1627 C1626 1.390 . S
C1627 C1628 1.394 . S
C1627 C1633 1.465 1_655 S
C1628 C1623 1.399 . S
C1628 C1627 1.394 . S
C1628 C1629 1.516 . S
C1629 C1628 1.516 . S
C1629 C1630 1.502 . S
C1629 C1631 1.561 . S
C1629 C1632 1.526 1_655 S
C1630 H1614 0.959 . S
C1630 H1615 0.916 1_655 S
C1630 H1616 0.961 . S
C1630 C1629 1.502 . S
C1631 H1617 0.960 . S
C1631 H1618 0.961 1_655 S
C1631 H1619 0.959 . S
C1631 C1629 1.561 . S
C1632 C1629 1.526 1_455 S
C1632 C1633 1.396 . S
C1632 C1637 1.390 . S
C1633 C1627 1.465 1_455 S
C1633 C1632 1.396 . S
C1633 C1634 1.399 . S
C1634 H1620 0.929 . S
C1634 C1633 1.399 . S
C1634 C1635 1.385 . S
C1635 H1621 0.931 . S
C1635 C1634 1.385 . S
C1635 C1636 1.389 . S
C1636 C1635 1.389 . S
C1636 C1637 1.387 . S
C1637 H1622 0.930 . S
C1637 C1632 1.390 . S
C1637 C1636 1.387 . S
H1638 C1650 0.930 . S
H1639 C1652 0.930 . S
H1640 C1653 0.930 . S
H1641 C1657 0.959 . S
H1642 C1657 0.959 . S
H1643 C1657 0.961 . S
H1644 C1658 0.960 . S
H1645 C1658 0.961 . S
H1646 C1658 0.959 . S
H1647 C1661 0.929 . S
H1648 C1662 0.931 . S
H1649 C1664 0.930 . S
C1650 H1638 0.930 . S
C1650 C1651 1.399 . S
C1650 C1655 1.399 . S
C1651 C1650 1.399 . S
C1651 C1652 1.376 . S
C1652 H1639 0.930 . S
C1652 C1651 1.376 . S
C1652 C1653 1.388 . S
C1653 H1640 0.930 . S
C1653 C1652 1.388 . S
C1653 C1654 1.390 . S
C1654 C1653 1.390 . S
C1654 C1655 1.394 . S
C1654 C1660 1.465 . S
C1655 C1650 1.399 . S
C1655 C1654 1.394 . S
C1655 C1656 1.516 . S
C1656 C1655 1.516 . S
C1656 C1657 1.502 . S
C1656 C1658 1.561 . S
C1656 C1659 1.526 . S
C1657 H1641 0.959 . S
C1657 H1642 0.959 . S
C1657 H1643 0.961 . S
C1657 C1656 1.502 . S
C1658 H1644 0.960 . S
C1658 H1645 0.961 . S
C1658 H1646 0.959 . S
C1658 C1656 1.561 . S
C1659 C1656 1.526 . S
C1659 C1660 1.396 . S
C1659 C1664 1.390 . S
C1660 C1654 1.465 . S
C1660 C1659 1.396 . S
C1660 C1661 1.399 . S
C1661 H1647 0.929 . S
C1661 C1660 1.399 . S
C1661 C1662 1.385 . S
C1662 H1648 0.931 . S
C1662 C1661 1.385 . S
C1662 C1663 1.389 . S
C1663 C1662 1.389 . S
C1663 C1664 1.387 . S
C1664 H1649 0.930 . S
C1664 C1659 1.390 . S
C1664 C1663 1.387 . S
H1665 C1677 0.930 . S
H1666 C1679 0.930 . S
H1667 C1680 0.930 . S
H1668 C1684 0.959 . S
H1669 C1684 0.959 . S
H1670 C1684 0.961 . S
H1671 C1685 0.960 . S
H1672 C1685 0.961 . S
H1673 C1685 0.959 . S
H1674 C1688 0.929 . S
H1675 C1689 0.931 . S
H1676 C1691 0.930 . S
C1677 H1665 0.930 . S
C1677 C1678 1.399 . S
C1677 C1682 1.399 . S
C1678 C1677 1.399 . S
C1678 C1679 1.376 . S
C1679 H1666 0.930 . S
C1679 C1678 1.376 . S
C1679 C1680 1.388 . S
C1680 H1667 0.930 . S
C1680 C1679 1.388 . S
C1680 C1681 1.390 . S
C1681 C1680 1.390 . S
C1681 C1682 1.394 . S
C1681 C1687 1.465 . S
C1682 C1677 1.399 . S
C1682 C1681 1.394 . S
C1682 C1683 1.516 . S
C1683 C1682 1.516 . S
C1683 C1684 1.502 . S
C1683 C1685 1.561 . S
C1683 C1686 1.526 . S
C1684 H1668 0.959 . S
C1684 H1669 0.959 . S
C1684 H1670 0.961 . S
C1684 C1683 1.502 . S
C1685 H1671 0.960 . S
C1685 H1672 0.961 . S
C1685 H1673 0.959 . S
C1685 C1683 1.561 . S
C1686 C1683 1.526 . S
C1686 C1687 1.396 . S
C1686 C1691 1.390 . S
C1687 C1681 1.465 . S
C1687 C1686 1.396 . S
C1687 C1688 1.399 . S
C1688 H1674 0.929 . S
C1688 C1687 1.399 . S
C1688 C1689 1.385 . S
C1689 H1675 0.931 . S
C1689 C1688 1.385 . S
C1689 C1690 1.389 . S
C1690 C1689 1.389 . S
C1690 C1691 1.387 . S
C1691 H1676 0.930 . S
C1691 C1686 1.390 . S
C1691 C1690 1.387 . S
H1692 C1704 0.930 . S
H1693 C1706 0.930 . S
H1694 C1707 0.930 . S
H1695 C1711 0.959 . S
H1696 C1711 0.959 . S
H1697 C1711 0.961 . S
H1698 C1712 0.960 . S
H1699 C1712 0.961 . S
H1700 C1712 0.959 . S
H1701 C1715 0.929 . S
H1702 C1716 0.931 . S
H1703 C1718 0.930 . S
C1704 H1692 0.930 . S
C1704 C1705 1.399 . S
C1704 C1709 1.399 . S
C1705 C1704 1.399 . S
C1705 C1706 1.376 . S
C1706 H1693 0.930 . S
C1706 C1705 1.376 . S
C1706 C1707 1.388 . S
C1707 H1694 0.930 . S
C1707 C1706 1.388 . S
C1707 C1708 1.390 . S
C1708 C1707 1.390 . S
C1708 C1709 1.394 . S
C1708 C1714 1.465 . S
C1709 C1704 1.399 . S
C1709 C1708 1.394 . S
C1709 C1710 1.516 . S
C1710 C1709 1.516 . S
C1710 C1711 1.502 . S
C1710 C1712 1.561 . S
C1710 C1713 1.526 . S
C1711 H1695 0.959 . S
C1711 H1696 0.959 . S
C1711 H1697 0.961 . S
C1711 C1710 1.502 . S
C1712 H1698 0.960 . S
C1712 H1699 0.961 . S
C1712 H1700 0.959 . S
C1712 C1710 1.561 . S
C1713 C1710 1.526 . S
C1713 C1714 1.396 . S
C1713 C1718 1.390 . S
C1714 C1708 1.465 . S
C1714 C1713 1.396 . S
C1714 C1715 1.399 . S
C1715 H1701 0.929 . S
C1715 C1714 1.399 . S
C1715 C1716 1.385 . S
C1716 H1702 0.931 . S
C1716 C1715 1.385 . S
C1716 C1717 1.389 . S
C1717 C1716 1.389 . S
C1717 C1718 1.387 . S
C1718 H1703 0.930 . S
C1718 C1713 1.390 . S
C1718 C1717 1.387 . S
H1719 C1731 0.930 . S
H1720 C1733 0.930 . S
H1721 C1734 0.930 . S
H1722 C1738 0.959 . S
H1723 C1738 0.959 . S
H1724 C1738 0.961 . S
H1725 C1739 0.960 . S
H1726 C1739 0.961 1_556 S
H1727 C1739 0.959 . S
H1728 C1742 0.929 . S
H1729 C1743 0.931 . S
H1730 C1745 0.930 . S
C1731 H1719 0.930 . S
C1731 C1732 1.399 . S
C1731 C1736 1.399 . S
C1732 C1731 1.399 . S
C1732 C1733 1.376 . S
C1733 H1720 0.930 . S
C1733 C1732 1.376 . S
C1733 C1734 1.388 . S
C1734 H1721 0.930 . S
C1734 C1733 1.388 . S
C1734 C1735 1.390 . S
C1735 C1734 1.390 . S
C1735 C1736 1.394 . S
C1735 C1741 1.465 . S
C1736 C1731 1.399 . S
C1736 C1735 1.394 . S
C1736 C1737 1.516 . S
C1737 C1736 1.516 . S
C1737 C1738 1.502 1_554 S
C1737 C1739 1.561 . S
C1737 C1740 1.526 . S
C1738 H1722 0.959 . S
C1738 H1723 0.959 . S
C1738 H1724 0.961 . S
C1738 C1737 1.502 1_556 S
C1739 H1725 0.960 . S
C1739 H1726 0.961 1_554 S
C1739 H1727 0.959 . S
C1739 C1737 1.561 . S
C1740 C1737 1.526 . S
C1740 C1741 1.396 . S
C1740 C1745 1.390 . S
C1741 C1735 1.465 . S
C1741 C1740 1.396 . S
C1741 C1742 1.399 . S
C1742 H1728 0.929 . S
C1742 C1741 1.399 . S
C1742 C1743 1.385 . S
C1743 H1729 0.931 . S
C1743 C1742 1.385 . S
C1743 C1744 1.389 . S
C1744 C1743 1.389 . S
C1744 C1745 1.387 . S
C1745 H1730 0.930 . S
C1745 C1740 1.390 . S
C1745 C1744 1.387 . S
H1746 C1758 0.930 1_556 S
H1747 C1760 0.930 . S
H1748 C1761 0.930 . S
H1749 C1765 0.959 1_554 S
H1750 C1765 0.959 . S
H1751 C1765 0.961 . S
H1752 C1766 0.960 . S
H1753 C1766 0.961 . S
H1754 C1766 0.959 1_554 S
H1755 C1769 0.929 . S
H1756 C1770 0.931 . S
H1757 C1772 0.930 . S
C1758 H1746 0.930 1_554 S
C1758 C1759 1.399 . S
C1758 C1763 1.399 . S
C1759 C1758 1.399 . S
C1759 C1760 1.376 . S
C1760 H1747 0.930 . S
C1760 C1759 1.376 . S
C1760 C1761 1.388 . S
C1761 H1748 0.930 . S
C1761 C1760 1.388 . S
C1761 C1762 1.390 . S
C1762 C1761 1.390 . S
C1762 C1763 1.394 . S
C1762 C1768 1.465 . S
C1763 C1758 1.399 . S
C1763 C1762 1.394 . S
C1763 C1764 1.516 . S
C1764 C1763 1.516 . S
C1764 C1765 1.502 1_554 S
C1764 C1766 1.561 1_554 S
C1764 C1767 1.526 . S
C1765 H1749 0.959 1_556 S
C1765 H1750 0.959 . S
C1765 H1751 0.961 . S
C1765 C1764 1.502 1_556 S
C1766 H1752 0.960 . S
C1766 H1753 0.961 . S
C1766 H1754 0.959 1_556 S
C1766 C1764 1.561 1_556 S
C1767 C1764 1.526 . S
C1767 C1768 1.396 . S
C1767 C1772 1.390 . S
C1768 C1762 1.465 . S
C1768 C1767 1.396 . S
C1768 C1769 1.399 . S
C1769 H1755 0.929 . S
C1769 C1768 1.399 . S
C1769 C1770 1.385 . S
C1770 H1756 0.931 . S
C1770 C1769 1.385 . S
C1770 C1771 1.389 . S
C1771 C1770 1.389 . S
C1771 C1772 1.387 . S
C1772 H1757 0.930 . S
C1772 C1767 1.390 . S
C1772 C1771 1.387 . S
H1773 C1785 0.930 . S
H1774 C1787 0.930 . S
H1775 C1788 0.930 . S
H1776 C1792 0.959 . S
H1777 C1792 0.959 . S
H1778 C1792 0.961 . S
H1779 C1793 0.960 . S
H1780 C1793 0.961 . S
H1781 C1793 0.959 . S
H1782 C1796 0.929 . S
H1783 C1797 0.931 . S
H1784 C1799 0.930 . S
C1785 H1773 0.930 . S
C1785 C1786 1.399 . S
C1785 C1790 1.399 . S
C1786 C1785 1.399 . S
C1786 C1787 1.376 . S
C1787 H1774 0.930 . S
C1787 C1786 1.376 . S
C1787 C1788 1.388 . S
C1788 H1775 0.930 . S
C1788 C1787 1.388 . S
C1788 C1789 1.390 . S
C1789 C1788 1.390 . S
C1789 C1790 1.394 . S
C1789 C1795 1.465 . S
C1790 C1785 1.399 . S
C1790 C1789 1.394 . S
C1790 C1791 1.516 . S
C1791 C1790 1.516 . S
C1791 C1792 1.502 . S
C1791 C1793 1.561 . S
C1791 C1794 1.526 . S
C1792 H1776 0.959 . S
C1792 H1777 0.959 . S
C1792 H1778 0.961 . S
C1792 C1791 1.502 . S
C1793 H1779 0.960 . S
C1793 H1780 0.961 . S
C1793 H1781 0.959 . S
C1793 C1791 1.561 . S
C1794 C1791 1.526 . S
C1794 C1795 1.396 . S
C1794 C1799 1.390 . S
C1795 C1789 1.465 . S
C1795 C1794 1.396 . S
C1795 C1796 1.399 . S
C1796 H1782 0.929 . S
C1796 C1795 1.399 . S
C1796 C1797 1.385 . S
C1797 H1783 0.931 . S
C1797 C1796 1.385 . S
C1797 C1798 1.389 . S
C1798 C1797 1.389 . S
C1798 C1799 1.387 . S
C1799 H1784 0.930 . S
C1799 C1794 1.390 . S
C1799 C1798 1.387 . S
H1800 C1812 0.930 . S
H1801 C1814 0.930 . S
H1802 C1815 0.930 . S
H1803 C1819 0.959 . S
H1804 C1819 0.959 . S
H1805 C1819 0.961 . S
H1806 C1820 0.960 . S
H1807 C1820 0.961 . S
H1808 C1820 0.959 . S
H1809 C1823 0.929 . S
H1810 C1824 0.931 . S
H1811 C1826 0.930 . S
C1812 H1800 0.930 . S
C1812 C1813 1.399 . S
C1812 C1817 1.399 . S
C1813 C1812 1.399 . S
C1813 C1814 1.376 . S
C1814 H1801 0.930 . S
C1814 C1813 1.376 . S
C1814 C1815 1.388 . S
C1815 H1802 0.930 . S
C1815 C1814 1.388 . S
C1815 C1816 1.390 . S
C1816 C1815 1.390 . S
C1816 C1817 1.394 . S
C1816 C1822 1.465 . S
C1817 C1812 1.399 . S
C1817 C1816 1.394 . S
C1817 C1818 1.516 . S
C1818 C1817 1.516 . S
C1818 C1819 1.502 1_556 S
C1818 C1820 1.561 . S
C1818 C1821 1.526 . S
C1819 H1803 0.959 . S
C1819 H1804 0.959 . S
C1819 H1805 0.961 . S
C1819 C1818 1.502 1_554 S
C1820 H1806 0.960 . S
C1820 H1807 0.961 . S
C1820 H1808 0.959 . S
C1820 C1818 1.561 . S
C1821 C1818 1.526 . S
C1821 C1822 1.396 . S
C1821 C1826 1.390 . S
C1822 C1816 1.465 . S
C1822 C1821 1.396 . S
C1822 C1823 1.399 . S
C1823 H1809 0.929 . S
C1823 C1822 1.399 . S
C1823 C1824 1.385 . S
C1824 H1810 0.931 . S
C1824 C1823 1.385 . S
C1824 C1825 1.389 . S
C1825 C1824 1.389 . S
C1825 C1826 1.387 . S
C1826 H1811 0.930 . S
C1826 C1821 1.390 . S
C1826 C1825 1.387 . S
H1827 C1839 0.930 . S
H1828 C1841 0.930 . S
H1829 C1842 0.930 . S
H1830 C1846 0.959 . S
H1831 C1846 0.959 1_554 S
H1832 C1846 0.961 1_554 S
H1833 C1847 0.960 . S
H1834 C1847 0.961 . S
H1835 C1847 0.959 1_556 S
H1836 C1850 0.929 . S
H1837 C1851 0.931 . S
H1838 C1853 0.930 . S
C1839 H1827 0.930 . S
C1839 C1840 1.399 . S
C1839 C1844 1.399 . S
C1840 C1839 1.399 . S
C1840 C1841 1.376 . S
C1841 H1828 0.930 . S
C1841 C1840 1.376 . S
C1841 C1842 1.388 . S
C1842 H1829 0.930 . S
C1842 C1841 1.388 . S
C1842 C1843 1.390 . S
C1843 C1842 1.390 . S
C1843 C1844 1.394 . S
C1843 C1849 1.465 . S
C1844 C1839 1.399 . S
C1844 C1843 1.394 . S
C1844 C1845 1.516 . S
C1845 C1844 1.516 . S
C1845 C1846 1.502 . S
C1845 C1847 1.561 1_556 S
C1845 C1848 1.526 . S
C1846 H1830 0.959 . S
C1846 H1831 0.959 1_556 S
C1846 H1832 0.961 1_556 S
C1846 C1845 1.502 . S
C1847 H1833 0.960 . S
C1847 H1834 0.961 . S
C1847 H1835 0.959 1_554 S
C1847 C1845 1.561 1_554 S
C1848 C1845 1.526 . S
C1848 C1849 1.396 . S
C1848 C1853 1.390 . S
C1849 C1843 1.465 . S
C1849 C1848 1.396 . S
C1849 C1850 1.399 . S
C1850 H1836 0.929 . S
C1850 C1849 1.399 . S
C1850 C1851 1.385 . S
C1851 H1837 0.931 . S
C1851 C1850 1.385 . S
C1851 C1852 1.389 . S
C1852 C1851 1.389 . S
C1852 C1853 1.387 . S
C1853 H1838 0.930 . S
C1853 C1848 1.390 . S
C1853 C1852 1.387 . S
H1854 C1866 0.930 . S
H1855 C1868 0.930 . S
H1856 C1869 0.930 . S
H1857 C1873 0.959 1_556 S
H1858 C1873 0.959 . S
H1859 C1873 0.961 . S
H1860 C1874 0.960 . S
H1861 C1874 0.961 . S
H1862 C1874 0.959 1_556 S
H1863 C1877 0.929 . S
H1864 C1878 0.931 . S
H1865 C1880 0.930 1_554 S
C1866 H1854 0.930 . S
C1866 C1867 1.399 . S
C1866 C1871 1.399 . S
C1867 C1866 1.399 . S
C1867 C1868 1.376 . S
C1868 H1855 0.930 . S
C1868 C1867 1.376 . S
C1868 C1869 1.388 . S
C1869 H1856 0.930 . S
C1869 C1868 1.388 . S
C1869 C1870 1.390 . S
C1870 C1869 1.390 . S
C1870 C1871 1.394 . S
C1870 C1876 1.465 . S
C1871 C1866 1.399 . S
C1871 C1870 1.394 . S
C1871 C1872 1.516 . S
C1872 C1871 1.516 . S
C1872 C1873 1.502 1_556 S
C1872 C1874 1.561 1_556 S
C1872 C1875 1.526 . S
C1873 H1857 0.959 1_554 S
C1873 H1858 0.959 . S
C1873 H1859 0.961 . S
C1873 C1872 1.502 1_554 S
C1874 H1860 0.960 . S
C1874 H1861 0.961 . S
C1874 H1862 0.959 1_554 S
C1874 C1872 1.561 1_554 S
C1875 C1872 1.526 . S
C1875 C1876 1.396 . S
C1875 C1880 1.390 . S
C1876 C1870 1.465 . S
C1876 C1875 1.396 . S
C1876 C1877 1.399 . S
C1877 H1863 0.929 . S
C1877 C1876 1.399 . S
C1877 C1878 1.385 . S
C1878 H1864 0.931 . S
C1878 C1877 1.385 . S
C1878 C1879 1.389 . S
C1879 C1878 1.389 . S
C1879 C1880 1.387 . S
C1880 H1865 0.930 1_556 S
C1880 C1875 1.390 . S
C1880 C1879 1.387 . S
H1881 C1893 0.930 . S
H1882 C1895 0.930 . S
H1883 C1896 0.930 . S
H1884 C1900 0.959 . S
H1885 C1900 0.959 . S
H1886 C1900 0.961 . S
H1887 C1901 0.960 . S
H1888 C1901 0.961 . S
H1889 C1901 0.959 . S
H1890 C1904 0.929 . S
H1891 C1905 0.931 . S
H1892 C1907 0.930 . S
C1893 H1881 0.930 . S
C1893 C1894 1.399 . S
C1893 C1898 1.399 . S
C1894 C1893 1.399 . S
C1894 C1895 1.376 . S
C1895 H1882 0.930 . S
C1895 C1894 1.376 . S
C1895 C1896 1.388 . S
C1896 H1883 0.930 . S
C1896 C1895 1.388 . S
C1896 C1897 1.390 . S
C1897 C1896 1.390 . S
C1897 C1898 1.394 . S
C1897 C1903 1.465 . S
C1898 C1893 1.399 . S
C1898 C1897 1.394 . S
C1898 C1899 1.516 . S
C1899 C1898 1.516 . S
C1899 C1900 1.502 . S
C1899 C1901 1.561 . S
C1899 C1902 1.526 . S
C1900 H1884 0.959 . S
C1900 H1885 0.959 . S
C1900 H1886 0.961 . S
C1900 C1899 1.502 . S
C1901 H1887 0.960 . S
C1901 H1888 0.961 . S
C1901 H1889 0.959 . S
C1901 C1899 1.561 . S
C1902 C1899 1.526 . S
C1902 C1903 1.396 . S
C1902 C1907 1.390 . S
C1903 C1897 1.465 . S
C1903 C1902 1.396 . S
C1903 C1904 1.399 . S
C1904 H1890 0.929 . S
C1904 C1903 1.399 . S
C1904 C1905 1.385 . S
C1905 H1891 0.931 . S
C1905 C1904 1.385 . S
C1905 C1906 1.389 . S
C1906 C1905 1.389 . S
C1906 C1907 1.387 . S
C1907 H1892 0.930 . S
C1907 C1902 1.390 . S
C1907 C1906 1.387 . S
H1908 C1920 0.930 . S
H1909 C1922 0.930 . S
H1910 C1923 0.930 . S
H1911 C1927 0.959 . S
H1912 C1927 0.959 . S
H1913 C1927 0.961 . S
H1914 C1928 0.960 . S
H1915 C1928 0.961 . S
H1916 C1928 0.959 . S
H1917 C1931 0.929 . S
H1918 C1932 0.931 . S
H1919 C1934 0.930 . S
C1920 H1908 0.930 . S
C1920 C1921 1.399 . S
C1920 C1925 1.399 . S
C1921 C1920 1.399 . S
C1921 C1922 1.376 . S
C1922 H1909 0.930 . S
C1922 C1921 1.376 . S
C1922 C1923 1.388 . S
C1923 H1910 0.930 . S
C1923 C1922 1.388 . S
C1923 C1924 1.390 . S
C1924 C1923 1.390 . S
C1924 C1925 1.394 . S
C1924 C1930 1.465 . S
C1925 C1920 1.399 . S
C1925 C1924 1.394 . S
C1925 C1926 1.516 . S
C1926 C1925 1.516 . S
C1926 C1927 1.502 . S
C1926 C1928 1.561 . S
C1926 C1929 1.526 . S
C1927 H1911 0.959 . S
C1927 H1912 0.959 . S
C1927 H1913 0.961 . S
C1927 C1926 1.502 . S
C1928 H1914 0.960 . S
C1928 H1915 0.961 . S
C1928 H1916 0.959 . S
C1928 C1926 1.561 . S
C1929 C1926 1.526 . S
C1929 C1930 1.396 . S
C1929 C1934 1.390 . S
C1930 C1924 1.465 . S
C1930 C1929 1.396 . S
C1930 C1931 1.399 . S
C1931 H1917 0.929 . S
C1931 C1930 1.399 . S
C1931 C1932 1.385 . S
C1932 H1918 0.931 . S
C1932 C1931 1.385 . S
C1932 C1933 1.389 . S
C1933 C1932 1.389 . S
C1933 C1934 1.387 . S
C1934 H1919 0.930 . S
C1934 C1929 1.390 . S
C1934 C1933 1.387 . S
H1935 C1947 0.930 . S
H1936 C1949 0.930 . S
H1937 C1950 0.930 . S
H1938 C1954 0.959 . S
H1939 C1954 0.959 . S
H1940 C1954 0.961 . S
H1941 C1955 0.960 . S
H1942 C1955 0.961 . S
H1943 C1955 0.959 . S
H1944 C1958 0.929 . S
H1945 C1959 0.931 . S
H1946 C1961 0.930 . S
C1947 H1935 0.930 . S
C1947 C1948 1.399 . S
C1947 C1952 1.399 . S
C1948 C1947 1.399 . S
C1948 C1949 1.376 . S
C1949 H1936 0.930 . S
C1949 C1948 1.376 . S
C1949 C1950 1.388 . S
C1950 H1937 0.930 . S
C1950 C1949 1.388 . S
C1950 C1951 1.390 . S
C1951 C1950 1.390 . S
C1951 C1952 1.394 . S
C1951 C1957 1.465 . S
C1952 C1947 1.399 . S
C1952 C1951 1.394 . S
C1952 C1953 1.516 . S
C1953 C1952 1.516 . S
C1953 C1954 1.502 . S
C1953 C1955 1.561 . S
C1953 C1956 1.526 . S
C1954 H1938 0.959 . S
C1954 H1939 0.959 . S
C1954 H1940 0.961 . S
C1954 C1953 1.502 . S
C1955 H1941 0.960 . S
C1955 H1942 0.961 . S
C1955 H1943 0.959 . S
C1955 C1953 1.561 . S
C1956 C1953 1.526 . S
C1956 C1957 1.396 . S
C1956 C1961 1.390 . S
C1957 C1951 1.465 . S
C1957 C1956 1.396 . S
C1957 C1958 1.399 . S
C1958 H1944 0.929 . S
C1958 C1957 1.399 . S
C1958 C1959 1.385 . S
C1959 H1945 0.931 . S
C1959 C1958 1.385 . S
C1959 C1960 1.389 . S
C1960 C1959 1.389 . S
C1960 C1961 1.387 . S
C1961 H1946 0.930 . S
C1961 C1956 1.390 . S
C1961 C1960 1.387 . S
H1962 C1974 0.930 . S
H1963 C1976 0.930 . S
H1964 C1977 0.930 . S
H1965 C1981 0.959 . S
H1966 C1981 0.959 . S
H1967 C1981 0.961 . S
H1968 C1982 0.960 . S
H1969 C1982 0.961 . S
H1970 C1982 0.959 . S
H1971 C1985 0.929 . S
H1972 C1986 0.931 . S
H1973 C1988 0.930 . S
C1974 H1962 0.930 . S
C1974 C1975 1.399 . S
C1974 C1979 1.399 . S
C1975 C1974 1.399 . S
C1975 C1976 1.376 . S
C1976 H1963 0.930 . S
C1976 C1975 1.376 . S
C1976 C1977 1.388 . S
C1977 H1964 0.930 . S
C1977 C1976 1.388 . S
C1977 C1978 1.390 . S
C1978 C1977 1.390 . S
C1978 C1979 1.394 . S
C1978 C1984 1.465 . S
C1979 C1974 1.399 . S
C1979 C1978 1.394 . S
C1979 C1980 1.516 . S
C1980 C1979 1.516 . S
C1980 C1981 1.502 . S
C1980 C1982 1.561 . S
C1980 C1983 1.526 . S
C1981 H1965 0.959 . S
C1981 H1966 0.959 . S
C1981 H1967 0.961 . S
C1981 C1980 1.502 . S
C1982 H1968 0.960 . S
C1982 H1969 0.961 . S
C1982 H1970 0.959 . S
C1982 C1980 1.561 . S
C1983 C1980 1.526 . S
C1983 C1984 1.396 . S
C1983 C1988 1.390 . S
C1984 C1978 1.465 . S
C1984 C1983 1.396 . S
C1984 C1985 1.399 . S
C1985 H1971 0.929 . S
C1985 C1984 1.399 . S
C1985 C1986 1.385 . S
C1986 H1972 0.931 . S
C1986 C1985 1.385 . S
C1986 C1987 1.389 . S
C1987 C1986 1.389 . S
C1987 C1988 1.387 . S
C1988 H1973 0.930 . S
C1988 C1983 1.390 . S
C1988 C1987 1.387 . S
H1989 C2001 0.930 . S
H1990 C2003 0.930 . S
H1991 C2004 0.930 . S
H1992 C2008 0.959 . S
H1993 C2008 0.959 . S
H1994 C2008 0.961 . S
H1995 C2009 0.960 . S
H1996 C2009 0.961 . S
H1997 C2009 0.959 . S
H1998 C2012 0.929 . S
H1999 C2013 0.931 . S
H2000 C2015 0.930 . S
C2001 H1989 0.930 . S
C2001 C2002 1.399 . S
C2001 C2006 1.399 . S
C2002 C2001 1.399 . S
C2002 C2003 1.376 . S
C2003 H1990 0.930 . S
C2003 C2002 1.376 . S
C2003 C2004 1.388 . S
C2004 H1991 0.930 . S
C2004 C2003 1.388 . S
C2004 C2005 1.390 . S
C2005 C2004 1.390 . S
C2005 C2006 1.394 . S
C2005 C2011 1.465 . S
C2006 C2001 1.399 . S
C2006 C2005 1.394 . S
C2006 C2007 1.516 . S
C2007 C2006 1.516 . S
C2007 C2008 1.502 . S
C2007 C2009 1.561 . S
C2007 C2010 1.526 . S
C2008 H1992 0.959 . S
C2008 H1993 0.959 . S
C2008 H1994 0.961 . S
C2008 C2007 1.502 . S
C2009 H1995 0.960 . S
C2009 H1996 0.961 . S
C2009 H1997 0.959 . S
C2009 C2007 1.561 . S
C2010 C2007 1.526 . S
C2010 C2011 1.396 . S
C2010 C2015 1.390 . S
C2011 C2005 1.465 . S
C2011 C2010 1.396 . S
C2011 C2012 1.399 . S
C2012 H1998 0.929 . S
C2012 C2011 1.399 . S
C2012 C2013 1.385 . S
C2013 H1999 0.931 . S
C2013 C2012 1.385 . S
C2013 C2014 1.389 . S
C2014 C2013 1.389 . S
C2014 C2015 1.387 . S
C2015 H2000 0.930 . S
C2015 C2010 1.390 . S
C2015 C2014 1.387 . S
H2016 C2028 0.930 . S
H2017 C2030 0.930 . S
H2018 C2031 0.930 . S
H2019 C2035 0.959 . S
H2020 C2035 0.959 . S
H2021 C2035 0.961 . S
H2022 C2036 0.960 . S
H2023 C2036 0.961 . S
H2024 C2036 0.959 . S
H2025 C2039 0.929 . S
H2026 C2040 0.931 . S
H2027 C2042 0.930 . S
C2028 H2016 0.930 . S
C2028 C2029 1.399 . S
C2028 C2033 1.399 . S
C2029 C2028 1.399 . S
C2029 C2030 1.376 . S
C2030 H2017 0.930 . S
C2030 C2029 1.376 . S
C2030 C2031 1.388 . S
C2031 H2018 0.930 . S
C2031 C2030 1.388 . S
C2031 C2032 1.390 . S
C2032 C2031 1.390 . S
C2032 C2033 1.394 . S
C2032 C2038 1.465 . S
C2033 C2028 1.399 . S
C2033 C2032 1.394 . S
C2033 C2034 1.516 . S
C2034 C2033 1.516 . S
C2034 C2035 1.502 . S
C2034 C2036 1.561 . S
C2034 C2037 1.526 . S
C2035 H2019 0.959 . S
C2035 H2020 0.959 . S
C2035 H2021 0.961 . S
C2035 C2034 1.502 . S
C2036 H2022 0.960 . S
C2036 H2023 0.961 . S
C2036 H2024 0.959 . S
C2036 C2034 1.561 . S
C2037 C2034 1.526 . S
C2037 C2038 1.396 . S
C2037 C2042 1.390 . S
C2038 C2032 1.465 . S
C2038 C2037 1.396 . S
C2038 C2039 1.399 . S
C2039 H2025 0.929 . S
C2039 C2038 1.399 . S
C2039 C2040 1.385 . S
C2040 H2026 0.931 . S
C2040 C2039 1.385 . S
C2040 C2041 1.389 . S
C2041 C2040 1.389 . S
C2041 C2042 1.387 . S
C2042 H2027 0.930 . S
C2042 C2037 1.390 . S
C2042 C2041 1.387 . S
H2043 C2055 0.930 . S
H2044 C2057 0.930 . S
H2045 C2058 0.930 . S
H2046 C2062 0.959 . S
H2047 C2062 0.959 . S
H2048 C2062 0.961 . S
H2049 C2063 0.960 . S
H2050 C2063 0.961 . S
H2051 C2063 0.959 . S
H2052 C2066 0.929 . S
H2053 C2067 0.931 . S
H2054 C2069 0.930 . S
C2055 H2043 0.930 . S
C2055 C2056 1.399 . S
C2055 C2060 1.399 . S
C2056 C2055 1.399 . S
C2056 C2057 1.376 . S
C2057 H2044 0.930 . S
C2057 C2056 1.376 . S
C2057 C2058 1.388 . S
C2058 H2045 0.930 . S
C2058 C2057 1.388 . S
C2058 C2059 1.390 . S
C2059 C2058 1.390 . S
C2059 C2060 1.394 . S
C2059 C2065 1.465 . S
C2060 C2055 1.399 . S
C2060 C2059 1.394 . S
C2060 C2061 1.516 . S
C2061 C2060 1.516 . S
C2061 C2062 1.502 . S
C2061 C2063 1.561 . S
C2061 C2064 1.526 . S
C2062 H2046 0.959 . S
C2062 H2047 0.959 . S
C2062 H2048 0.961 . S
C2062 C2061 1.502 . S
C2063 H2049 0.960 . S
C2063 H2050 0.961 . S
C2063 H2051 0.959 . S
C2063 C2061 1.561 . S
C2064 C2061 1.526 . S
C2064 C2065 1.396 . S
C2064 C2069 1.390 . S
C2065 C2059 1.465 . S
C2065 C2064 1.396 . S
C2065 C2066 1.399 . S
C2066 H2052 0.929 . S
C2066 C2065 1.399 . S
C2066 C2067 1.385 . S
C2067 H2053 0.931 . S
C2067 C2066 1.385 . S
C2067 C2068 1.389 . S
C2068 C2067 1.389 . S
C2068 C2069 1.387 . S
C2069 H2054 0.930 . S
C2069 C2064 1.390 . S
C2069 C2068 1.387 . S
H2070 C2082 0.930 . S
H2071 C2084 0.930 . S
H2072 C2085 0.930 . S
H2073 C2089 0.959 . S
H2074 C2089 0.959 . S
H2075 C2089 0.961 . S
H2076 C2090 0.960 . S
H2077 C2090 0.961 . S
H2078 C2090 0.959 . S
H2079 C2093 0.929 . S
H2080 C2094 0.931 . S
H2081 C2096 0.930 . S
C2082 H2070 0.930 . S
C2082 C2083 1.399 . S
C2082 C2087 1.399 . S
C2083 C2082 1.399 . S
C2083 C2084 1.376 . S
C2084 H2071 0.930 . S
C2084 C2083 1.376 . S
C2084 C2085 1.388 . S
C2085 H2072 0.930 . S
C2085 C2084 1.388 . S
C2085 C2086 1.390 . S
C2086 C2085 1.390 . S
C2086 C2087 1.394 . S
C2086 C2092 1.465 . S
C2087 C2082 1.399 . S
C2087 C2086 1.394 . S
C2087 C2088 1.516 . S
C2088 C2087 1.516 . S
C2088 C2089 1.502 . S
C2088 C2090 1.561 . S
C2088 C2091 1.526 . S
C2089 H2073 0.959 . S
C2089 H2074 0.959 . S
C2089 H2075 0.961 . S
C2089 C2088 1.502 . S
C2090 H2076 0.960 . S
C2090 H2077 0.961 . S
C2090 H2078 0.959 . S
C2090 C2088 1.561 . S
C2091 C2088 1.526 . S
C2091 C2092 1.396 . S
C2091 C2096 1.390 . S
C2092 C2086 1.465 . S
C2092 C2091 1.396 . S
C2092 C2093 1.399 . S
C2093 H2079 0.929 . S
C2093 C2092 1.399 . S
C2093 C2094 1.385 . S
C2094 H2080 0.931 . S
C2094 C2093 1.385 . S
C2094 C2095 1.389 . S
C2095 C2094 1.389 . S
C2095 C2096 1.387 . S
C2096 H2081 0.930 . S
C2096 C2091 1.390 . S
C2096 C2095 1.387 . S
H2097 C2109 0.930 . S
H2098 C2111 0.930 . S
H2099 C2112 0.930 . S
H2100 C2116 0.959 . S
H2101 C2116 0.959 . S
H2102 C2116 0.961 . S
H2103 C2117 0.960 . S
H2104 C2117 0.961 . S
H2105 C2117 0.959 . S
H2106 C2120 0.929 . S
H2107 C2121 0.931 . S
H2108 C2123 0.930 . S
C2109 H2097 0.930 . S
C2109 C2110 1.399 . S
C2109 C2114 1.399 . S
C2110 C2109 1.399 . S
C2110 C2111 1.376 . S
C2111 H2098 0.930 . S
C2111 C2110 1.376 . S
C2111 C2112 1.388 . S
C2112 H2099 0.930 . S
C2112 C2111 1.388 . S
C2112 C2113 1.390 . S
C2113 C2112 1.390 . S
C2113 C2114 1.394 . S
C2113 C2119 1.465 . S
C2114 C2109 1.399 . S
C2114 C2113 1.394 . S
C2114 C2115 1.516 . S
C2115 C2114 1.516 . S
C2115 C2116 1.502 . S
C2115 C2117 1.561 . S
C2115 C2118 1.526 . S
C2116 H2100 0.959 . S
C2116 H2101 0.959 . S
C2116 H2102 0.961 . S
C2116 C2115 1.502 . S
C2117 H2103 0.960 . S
C2117 H2104 0.961 . S
C2117 H2105 0.959 . S
C2117 C2115 1.561 . S
C2118 C2115 1.526 . S
C2118 C2119 1.396 . S
C2118 C2123 1.390 . S
C2119 C2113 1.465 . S
C2119 C2118 1.396 . S
C2119 C2120 1.399 . S
C2120 H2106 0.929 . S
C2120 C2119 1.399 . S
C2120 C2121 1.385 . S
C2121 H2107 0.931 . S
C2121 C2120 1.385 . S
C2121 C2122 1.389 . S
C2122 C2121 1.389 . S
C2122 C2123 1.387 . S
C2123 H2108 0.930 . S
C2123 C2118 1.390 . S
C2123 C2122 1.387 . S
H2124 C2136 0.930 . S
H2125 C2138 0.930 . S
H2126 C2139 0.930 . S
H2127 C2143 0.959 . S
H2128 C2143 0.959 . S
H2129 C2143 0.961 . S
H2130 C2144 0.960 . S
H2131 C2144 0.961 . S
H2132 C2144 0.959 . S
H2133 C2147 0.929 . S
H2134 C2148 0.931 . S
H2135 C2150 0.930 . S
C2136 H2124 0.930 . S
C2136 C2137 1.399 . S
C2136 C2141 1.399 . S
C2137 C2136 1.399 . S
C2137 C2138 1.376 . S
C2138 H2125 0.930 . S
C2138 C2137 1.376 . S
C2138 C2139 1.388 . S
C2139 H2126 0.930 . S
C2139 C2138 1.388 . S
C2139 C2140 1.390 . S
C2140 C2139 1.390 . S
C2140 C2141 1.394 . S
C2140 C2146 1.465 . S
C2141 C2136 1.399 . S
C2141 C2140 1.394 . S
C2141 C2142 1.516 . S
C2142 C2141 1.516 . S
C2142 C2143 1.502 . S
C2142 C2144 1.561 . S
C2142 C2145 1.526 . S
C2143 H2127 0.959 . S
C2143 H2128 0.959 . S
C2143 H2129 0.961 . S
C2143 C2142 1.502 . S
C2144 H2130 0.960 . S
C2144 H2131 0.961 . S
C2144 H2132 0.959 . S
C2144 C2142 1.561 . S
C2145 C2142 1.526 . S
C2145 C2146 1.396 . S
C2145 C2150 1.390 . S
C2146 C2140 1.465 . S
C2146 C2145 1.396 . S
C2146 C2147 1.399 . S
C2147 H2133 0.929 . S
C2147 C2146 1.399 . S
C2147 C2148 1.385 . S
C2148 H2134 0.931 . S
C2148 C2147 1.385 . S
C2148 C2149 1.389 . S
C2149 C2148 1.389 . S
C2149 C2150 1.387 . S
C2150 H2135 0.930 . S
C2150 C2145 1.390 . S
C2150 C2149 1.387 . S
H2151 C2163 0.930 . S
H2152 C2165 0.930 . S
H2153 C2166 0.930 . S
H2154 C2170 0.959 . S
H2155 C2170 0.959 . S
H2156 C2170 0.961 . S
H2157 C2171 0.960 . S
H2158 C2171 0.961 . S
H2159 C2171 0.959 . S
H2160 C2174 0.929 . S
H2161 C2175 0.931 . S
H2162 C2177 0.930 . S
C2163 H2151 0.930 . S
C2163 C2164 1.399 . S
C2163 C2168 1.399 . S
C2164 C2163 1.399 . S
C2164 C2165 1.376 . S
C2165 H2152 0.930 . S
C2165 C2164 1.376 . S
C2165 C2166 1.388 . S
C2166 H2153 0.930 . S
C2166 C2165 1.388 . S
C2166 C2167 1.390 . S
C2167 C2166 1.390 . S
C2167 C2168 1.394 . S
C2167 C2173 1.465 . S
C2168 C2163 1.399 . S
C2168 C2167 1.394 . S
C2168 C2169 1.516 . S
C2169 C2168 1.516 . S
C2169 C2170 1.502 . S
C2169 C2171 1.561 . S
C2169 C2172 1.526 . S
C2170 H2154 0.959 . S
C2170 H2155 0.959 . S
C2170 H2156 0.961 . S
C2170 C2169 1.502 . S
C2171 H2157 0.960 . S
C2171 H2158 0.961 . S
C2171 H2159 0.959 . S
C2171 C2169 1.561 . S
C2172 C2169 1.526 . S
C2172 C2173 1.396 . S
C2172 C2177 1.390 . S
C2173 C2167 1.465 . S
C2173 C2172 1.396 . S
C2173 C2174 1.399 . S
C2174 H2160 0.929 . S
C2174 C2173 1.399 . S
C2174 C2175 1.385 . S
C2175 H2161 0.931 . S
C2175 C2174 1.385 . S
C2175 C2176 1.389 . S
C2176 C2175 1.389 . S
C2176 C2177 1.387 . S
C2177 H2162 0.930 . S
C2177 C2172 1.390 . S
C2177 C2176 1.387 . S
H2178 C2190 0.930 . S
H2179 C2192 0.930 . S
H2180 C2193 0.930 . S
H2181 C2197 0.959 . S
H2182 C2197 0.959 . S
H2183 C2197 0.961 . S
H2184 C2198 0.960 . S
H2185 C2198 0.961 . S
H2186 C2198 0.959 . S
H2187 C2201 0.929 . S
H2188 C2202 0.931 . S
H2189 C2204 0.930 . S
C2190 H2178 0.930 . S
C2190 C2191 1.399 . S
C2190 C2195 1.399 . S
C2191 C2190 1.399 . S
C2191 C2192 1.376 . S
C2192 H2179 0.930 . S
C2192 C2191 1.376 . S
C2192 C2193 1.388 . S
C2193 H2180 0.930 . S
C2193 C2192 1.388 . S
C2193 C2194 1.390 . S
C2194 C2193 1.390 . S
C2194 C2195 1.394 . S
C2194 C2200 1.465 . S
C2195 C2190 1.399 . S
C2195 C2194 1.394 . S
C2195 C2196 1.516 . S
C2196 C2195 1.516 . S
C2196 C2197 1.502 . S
C2196 C2198 1.561 . S
C2196 C2199 1.526 . S
C2197 H2181 0.959 . S
C2197 H2182 0.959 . S
C2197 H2183 0.961 . S
C2197 C2196 1.502 . S
C2198 H2184 0.960 . S
C2198 H2185 0.961 . S
C2198 H2186 0.959 . S
C2198 C2196 1.561 . S
C2199 C2196 1.526 . S
C2199 C2200 1.396 . S
C2199 C2204 1.390 . S
C2200 C2194 1.465 . S
C2200 C2199 1.396 . S
C2200 C2201 1.399 . S
C2201 H2187 0.929 . S
C2201 C2200 1.399 . S
C2201 C2202 1.385 . S
C2202 H2188 0.931 . S
C2202 C2201 1.385 . S
C2202 C2203 1.389 . S
C2203 C2202 1.389 . S
C2203 C2204 1.387 . S
C2204 H2189 0.930 . S
C2204 C2199 1.390 . S
C2204 C2203 1.387 . S
H2205 C2217 0.930 . S
H2206 C2219 0.930 . S
H2207 C2220 0.930 . S
H2208 C2224 0.959 . S
H2209 C2224 0.959 . S
H2210 C2224 0.961 . S
H2211 C2225 0.960 . S
H2212 C2225 0.961 . S
H2213 C2225 0.959 . S
H2214 C2228 0.929 . S
H2215 C2229 0.931 . S
H2216 C2231 0.930 . S
C2217 H2205 0.930 . S
C2217 C2218 1.399 . S
C2217 C2222 1.399 . S
C2218 C2217 1.399 . S
C2218 C2219 1.376 . S
C2219 H2206 0.930 . S
C2219 C2218 1.376 . S
C2219 C2220 1.388 . S
C2220 H2207 0.930 . S
C2220 C2219 1.388 . S
C2220 C2221 1.390 . S
C2221 C2220 1.390 . S
C2221 C2222 1.394 . S
C2221 C2227 1.465 . S
C2222 C2217 1.399 . S
C2222 C2221 1.394 . S
C2222 C2223 1.516 . S
C2223 C2222 1.516 . S
C2223 C2224 1.502 . S
C2223 C2225 1.561 . S
C2223 C2226 1.526 . S
C2224 H2208 0.959 . S
C2224 H2209 0.959 . S
C2224 H2210 0.961 . S
C2224 C2223 1.502 . S
C2225 H2211 0.960 . S
C2225 H2212 0.961 . S
C2225 H2213 0.959 . S
C2225 C2223 1.561 . S
C2226 C2223 1.526 . S
C2226 C2227 1.396 . S
C2226 C2231 1.390 . S
C2227 C2221 1.465 . S
C2227 C2226 1.396 . S
C2227 C2228 1.399 . S
C2228 H2214 0.929 . S
C2228 C2227 1.399 . S
C2228 C2229 1.385 . S
C2229 H2215 0.931 . S
C2229 C2228 1.385 . S
C2229 C2230 1.389 . S
C2230 C2229 1.389 . S
C2230 C2231 1.387 . S
C2231 H2216 0.930 . S
C2231 C2226 1.390 . S
C2231 C2230 1.387 . S
H2232 C2244 0.930 . S
H2233 C2246 0.930 . S
H2234 C2247 0.930 . S
H2235 C2251 0.959 . S
H2236 C2251 0.959 . S
H2237 C2251 0.961 . S
H2238 C2252 0.960 . S
H2239 C2252 0.961 . S
H2240 C2252 0.959 . S
H2241 C2255 0.929 . S
H2242 C2256 0.931 . S
H2243 C2258 0.930 . S
C2244 H2232 0.930 . S
C2244 C2245 1.399 . S
C2244 C2249 1.399 . S
C2245 C2244 1.399 . S
C2245 C2246 1.376 . S
C2246 H2233 0.930 . S
C2246 C2245 1.376 . S
C2246 C2247 1.388 . S
C2247 H2234 0.930 . S
C2247 C2246 1.388 . S
C2247 C2248 1.390 . S
C2248 C2247 1.390 . S
C2248 C2249 1.394 . S
C2248 C2254 1.465 . S
C2249 C2244 1.399 . S
C2249 C2248 1.394 . S
C2249 C2250 1.516 . S
C2250 C2249 1.516 . S
C2250 C2251 1.502 . S
C2250 C2252 1.561 . S
C2250 C2253 1.526 . S
C2251 H2235 0.959 . S
C2251 H2236 0.959 . S
C2251 H2237 0.961 . S
C2251 C2250 1.502 . S
C2252 H2238 0.960 . S
C2252 H2239 0.961 . S
C2252 H2240 0.959 . S
C2252 C2250 1.561 . S
C2253 C2250 1.526 . S
C2253 C2254 1.396 . S
C2253 C2258 1.390 . S
C2254 C2248 1.465 . S
C2254 C2253 1.396 . S
C2254 C2255 1.399 . S
C2255 H2241 0.929 . S
C2255 C2254 1.399 . S
C2255 C2256 1.385 . S
C2256 H2242 0.931 . S
C2256 C2255 1.385 . S
C2256 C2257 1.389 . S
C2257 C2256 1.389 . S
C2257 C2258 1.387 . S
C2258 H2243 0.930 . S
C2258 C2253 1.390 . S
C2258 C2257 1.387 . S
H2259 C2271 0.930 . S
H2260 C2273 0.930 . S
H2261 C2274 0.930 . S
H2262 C2278 0.959 . S
H2263 C2278 0.959 . S
H2264 C2278 0.961 . S
H2265 C2279 0.960 . S
H2266 C2279 0.961 . S
H2267 C2279 0.959 . S
H2268 C2282 0.929 . S
H2269 C2283 0.931 . S
H2270 C2285 0.930 . S
C2271 H2259 0.930 . S
C2271 C2272 1.399 . S
C2271 C2276 1.399 . S
C2272 C2271 1.399 . S
C2272 C2273 1.376 . S
C2273 H2260 0.930 . S
C2273 C2272 1.376 . S
C2273 C2274 1.388 . S
C2274 H2261 0.930 . S
C2274 C2273 1.388 . S
C2274 C2275 1.390 . S
C2275 C2274 1.390 . S
C2275 C2276 1.394 . S
C2275 C2281 1.465 . S
C2276 C2271 1.399 . S
C2276 C2275 1.394 . S
C2276 C2277 1.516 . S
C2277 C2276 1.516 . S
C2277 C2278 1.502 . S
C2277 C2279 1.561 . S
C2277 C2280 1.526 . S
C2278 H2262 0.959 . S
C2278 H2263 0.959 . S
C2278 H2264 0.961 . S
C2278 C2277 1.502 . S
C2279 H2265 0.960 . S
C2279 H2266 0.961 . S
C2279 H2267 0.959 . S
C2279 C2277 1.561 . S
C2280 C2277 1.526 . S
C2280 C2281 1.396 . S
C2280 C2285 1.390 . S
C2281 C2275 1.465 . S
C2281 C2280 1.396 . S
C2281 C2282 1.399 . S
C2282 H2268 0.929 . S
C2282 C2281 1.399 . S
C2282 C2283 1.385 . S
C2283 H2269 0.931 . S
C2283 C2282 1.385 . S
C2283 C2284 1.389 . S
C2284 C2283 1.389 . S
C2284 C2285 1.387 . S
C2285 H2270 0.930 . S
C2285 C2280 1.390 . S
C2285 C2284 1.387 . S
H2286 C2298 0.930 . S
H2287 C2300 0.930 . S
H2288 C2301 0.930 . S
H2289 C2305 0.959 . S
H2290 C2305 0.959 1_655 S
H2291 C2305 0.961 . S
H2292 C2306 0.960 1_455 S
H2293 C2306 0.961 . S
H2294 C2306 0.959 . S
H2295 C2309 0.929 . S
H2296 C2310 0.931 . S
H2297 C2312 0.930 . S
C2298 H2286 0.930 . S
C2298 C2299 1.399 . S
C2298 C2303 1.399 . S
C2299 C2298 1.399 . S
C2299 C2300 1.376 . S
C2300 H2287 0.930 . S
C2300 C2299 1.376 . S
C2300 C2301 1.388 . S
C2301 H2288 0.930 . S
C2301 C2300 1.388 . S
C2301 C2302 1.390 . S
C2302 C2301 1.390 . S
C2302 C2303 1.394 . S
C2302 C2308 1.465 1_455 S
C2303 C2298 1.399 . S
C2303 C2302 1.394 . S
C2303 C2304 1.448 1_455 S
C2304 C2303 1.448 1_655 S
C2304 C2305 1.526 1_655 S
C2304 C2306 1.566 . S
C2304 C2307 1.568 . S
C2305 H2289 0.959 . S
C2305 H2290 0.959 1_455 S
C2305 H2291 0.961 . S
C2305 C2304 1.526 1_455 S
C2306 H2292 0.960 1_655 S
C2306 H2293 0.961 . S
C2306 H2294 0.959 . S
C2306 C2304 1.566 . S
C2307 C2304 1.568 . S
C2307 C2308 1.396 . S
C2307 C2312 1.390 . S
C2308 C2302 1.465 1_655 S
C2308 C2307 1.396 . S
C2308 C2309 1.399 . S
C2309 H2295 0.929 . S
C2309 C2308 1.399 . S
C2309 C2310 1.385 . S
C2310 H2296 0.931 . S
C2310 C2309 1.385 . S
C2310 C2311 1.389 . S
C2311 C2310 1.389 . S
C2311 C2312 1.387 . S
C2312 H2297 0.930 . S
C2312 C2307 1.390 . S
C2312 C2311 1.387 . S
H2313 C2325 0.930 . S
H2314 C2327 0.930 . S
H2315 C2328 0.930 . S
H2316 C2332 0.959 . S
H2317 C2332 0.959 . S
H2318 C2332 0.961 . S
H2319 C2333 0.960 . S
H2320 C2333 0.961 . S
H2321 C2333 0.959 . S
H2322 C2336 0.929 . S
H2323 C2337 0.931 . S
H2324 C2339 0.930 . S
C2325 H2313 0.930 . S
C2325 C2326 1.399 . S
C2325 C2330 1.399 . S
C2326 C2325 1.399 . S
C2326 C2327 1.376 . S
C2327 H2314 0.930 . S
C2327 C2326 1.376 . S
C2327 C2328 1.388 . S
C2328 H2315 0.930 . S
C2328 C2327 1.388 . S
C2328 C2329 1.390 . S
C2329 C2328 1.390 . S
C2329 C2330 1.394 . S
C2329 C2335 1.465 . S
C2330 C2325 1.399 . S
C2330 C2329 1.394 . S
C2330 C2331 1.516 . S
C2331 C2330 1.516 . S
C2331 C2332 1.502 . S
C2331 C2333 1.561 . S
C2331 C2334 1.526 . S
C2332 H2316 0.959 . S
C2332 H2317 0.959 . S
C2332 H2318 0.961 . S
C2332 C2331 1.502 . S
C2333 H2319 0.960 . S
C2333 H2320 0.961 . S
C2333 H2321 0.959 . S
C2333 C2331 1.561 . S
C2334 C2331 1.526 . S
C2334 C2335 1.396 . S
C2334 C2339 1.390 . S
C2335 C2329 1.465 . S
C2335 C2334 1.396 . S
C2335 C2336 1.399 . S
C2336 H2322 0.929 . S
C2336 C2335 1.399 . S
C2336 C2337 1.385 . S
C2337 H2323 0.931 . S
C2337 C2336 1.385 . S
C2337 C2338 1.389 . S
C2338 C2337 1.389 . S
C2338 C2339 1.387 . S
C2339 H2324 0.930 . S
C2339 C2334 1.390 . S
C2339 C2338 1.387 . S
H2340 C2352 0.930 . S
H2341 C2354 0.930 . S
H2342 C2355 0.930 . S
H2343 C2359 0.959 . S
H2344 C2359 0.959 . S
H2345 C2359 0.961 . S
H2346 C2360 0.960 . S
H2347 C2360 0.950 1_565 S
H2348 C2360 0.959 . S
H2349 C2363 0.929 . S
H2350 C2364 0.931 . S
H2351 C2366 0.930 . S
C2352 H2340 0.930 . S
C2352 C2353 1.399 . S
C2352 C2357 1.399 . S
C2353 C2352 1.399 . S
C2353 C2354 1.376 . S
C2354 H2341 0.930 . S
C2354 C2353 1.376 . S
C2354 C2355 1.388 . S
C2355 H2342 0.930 . S
C2355 C2354 1.388 . S
C2355 C2356 1.390 . S
C2356 C2355 1.390 . S
C2356 C2357 1.394 . S
C2356 C2362 1.465 1_545 S
C2357 C2352 1.399 . S
C2357 C2356 1.394 . S
C2357 C2358 1.516 . S
C2358 C2357 1.516 . S
C2358 C2359 1.502 . S
C2358 C2360 1.561 . S
C2358 C2361 1.526 1_545 S
C2359 H2343 0.959 . S
C2359 H2344 0.959 . S
C2359 H2345 0.961 . S
C2359 C2358 1.502 . S
C2360 H2346 0.960 . S
C2360 H2347 0.950 1_545 S
C2360 H2348 0.959 . S
C2360 C2358 1.561 . S
C2361 C2358 1.526 1_565 S
C2361 C2362 1.396 . S
C2361 C2366 1.390 . S
C2362 C2356 1.465 1_565 S
C2362 C2361 1.396 . S
C2362 C2363 1.399 . S
C2363 H2349 0.929 . S
C2363 C2362 1.399 . S
C2363 C2364 1.385 . S
C2364 H2350 0.931 . S
C2364 C2363 1.385 . S
C2364 C2365 1.389 . S
C2365 C2364 1.389 . S
C2365 C2366 1.387 . S
C2366 H2351 0.930 . S
C2366 C2361 1.390 . S
C2366 C2365 1.387 . S
H2367 C2379 0.930 . S
H2368 C2381 0.930 . S
H2369 C2382 0.930 . S
H2370 C2386 0.963 1_565 S
H2371 C2386 0.912 1_565 S
H2372 C2386 1.033 . S
H2373 C2387 0.960 . S
H2374 C2387 0.961 . S
H2375 C2387 0.959 . S
H2376 C2390 0.929 . S
H2377 C2391 0.931 . S
H2378 C2393 0.930 . S
C2379 H2367 0.930 . S
C2379 C2380 1.399 1_556 S
C2379 C2384 1.399 . S
C2380 C2379 1.399 1_554 S
C2380 C2381 1.376 . S
C2381 H2368 0.930 . S
C2381 C2380 1.376 . S
C2381 C2382 1.388 . S
C2382 H2369 0.930 . S
C2382 C2381 1.388 . S
C2382 C2383 1.390 . S
C2383 C2382 1.390 . S
C2383 C2384 1.394 1_554 S
C2383 C2389 1.465 1_545 S
C2384 C2379 1.399 . S
C2384 C2383 1.394 1_556 S
C2384 C2385 1.516 . S
C2385 C2384 1.516 . S
C2385 C2386 1.481 . S
C2385 C2387 1.561 . S
C2385 C2388 1.526 1_545 S
C2386 H2370 0.963 1_545 S
C2386 H2371 0.912 1_545 S
C2386 H2372 1.033 . S
C2386 C2385 1.481 . S
C2387 H2373 0.960 . S
C2387 H2374 0.961 . S
C2387 H2375 0.959 . S
C2387 C2385 1.561 . S
C2388 C2385 1.526 1_565 S
C2388 C2389 1.396 1_556 S
C2388 C2393 1.390 . S
C2389 C2383 1.465 1_565 S
C2389 C2388 1.396 1_554 S
C2389 C2390 1.399 . S
C2390 H2376 0.929 . S
C2390 C2389 1.399 . S
C2390 C2391 1.385 . S
C2391 H2377 0.931 . S
C2391 C2390 1.385 . S
C2391 C2392 1.389 1_554 S
C2392 C2391 1.389 1_556 S
C2392 C2393 1.387 . S
C2393 H2378 0.930 . S
C2393 C2388 1.390 . S
C2393 C2392 1.387 . S
H2394 C2406 0.930 . S
H2395 C2408 0.930 . S
H2396 C2409 0.930 . S
H2397 C2413 0.959 . S
H2398 C2413 0.959 . S
H2399 C2413 0.961 1_655 S
H2400 C2414 0.960 . S
H2401 C2414 0.918 1_455 S
H2402 C2414 0.959 . S
H2403 C2417 0.929 . S
H2404 C2418 0.931 . S
H2405 C2420 0.930 . S
C2406 H2394 0.930 . S
C2406 C2407 1.399 1_556 S
C2406 C2411 1.399 . S
C2407 C2406 1.399 1_554 S
C2407 C2408 1.376 . S
C2408 H2395 0.930 . S
C2408 C2407 1.376 . S
C2408 C2409 1.388 . S
C2409 H2396 0.930 . S
C2409 C2408 1.388 . S
C2409 C2410 1.390 . S
C2410 C2409 1.390 . S
C2410 C2411 1.394 1_554 S
C2410 C2416 1.465 1_655 S
C2411 C2406 1.399 . S
C2411 C2410 1.394 1_556 S
C2411 C2412 1.516 . S
C2412 C2411 1.516 . S
C2412 C2413 1.502 1_655 S
C2412 C2414 1.561 . S
C2412 C2415 1.526 1_655 S
C2413 H2397 0.959 . S
C2413 H2398 0.959 . S
C2413 H2399 0.961 1_455 S
C2413 C2412 1.502 1_455 S
C2414 H2400 0.960 . S
C2414 H2401 0.918 1_655 S
C2414 H2402 0.959 . S
C2414 C2412 1.561 . S
C2415 C2412 1.526 1_455 S
C2415 C2416 1.396 1_556 S
C2415 C2420 1.390 . S
C2416 C2410 1.465 1_455 S
C2416 C2415 1.396 1_554 S
C2416 C2417 1.399 . S
C2417 H2403 0.929 . S
C2417 C2416 1.399 . S
C2417 C2418 1.385 . S
C2418 H2404 0.931 . S
C2418 C2417 1.385 . S
C2418 C2419 1.389 1_554 S
C2419 C2418 1.389 1_556 S
C2419 C2420 1.387 . S
C2420 H2405 0.930 . S
C2420 C2415 1.390 . S
C2420 C2419 1.387 . S
H2421 C2433 0.930 . S
H2422 C2435 0.930 . S
H2423 C2436 0.930 . S
H2424 C2440 0.959 . S
H2425 C2440 0.959 . S
H2426 C2440 0.961 . S
H2427 C2441 0.960 . S
H2428 C2441 0.961 . S
H2429 C2441 0.959 . S
H2430 C2444 0.929 . S
H2431 C2445 0.931 . S
H2432 C2447 0.930 . S
C2433 H2421 0.930 . S
C2433 C2434 1.399 . S
C2433 C2438 1.399 . S
C2434 C2433 1.399 . S
C2434 C2435 1.376 1_554 S
C2435 H2422 0.930 . S
C2435 C2434 1.376 1_556 S
C2435 C2436 1.388 . S
C2436 H2423 0.930 . S
C2436 C2435 1.388 . S
C2436 C2437 1.390 . S
C2437 C2436 1.390 . S
C2437 C2438 1.394 1_556 S
C2437 C2443 1.465 . S
C2438 C2433 1.399 . S
C2438 C2437 1.394 1_554 S
C2438 C2439 1.516 . S
C2439 C2438 1.516 . S
C2439 C2440 1.502 . S
C2439 C2441 1.561 . S
C2439 C2442 1.526 . S
C2440 H2424 0.959 . S
C2440 H2425 0.959 . S
C2440 H2426 0.961 . S
C2440 C2439 1.502 . S
C2441 H2427 0.960 . S
C2441 H2428 0.961 . S
C2441 H2429 0.959 . S
C2441 C2439 1.561 . S
C2442 C2439 1.526 . S
C2442 C2443 1.396 1_554 S
C2442 C2447 1.390 . S
C2443 C2437 1.465 . S
C2443 C2442 1.396 1_556 S
C2443 C2444 1.399 . S
C2444 H2430 0.929 . S
C2444 C2443 1.399 . S
C2444 C2445 1.385 . S
C2445 H2431 0.931 . S
C2445 C2444 1.385 . S
C2445 C2446 1.389 . S
C2446 C2445 1.389 . S
C2446 C2447 1.387 1_556 S
C2447 H2432 0.930 . S
C2447 C2442 1.390 . S
C2447 C2446 1.387 1_554 S
C517 C149 1.161 . S
C529 C0 1.135 . S
C544 C163 1.146 . S
C556 C14 1.196 . S
C571 C28 1.146 . S
C583 C135 1.185 . S
C598 C42 1.205 . S
C610 C121 1.160 . S
C625 C56 1.208 . S
C637 C93 1.191 . S
C652 C107 1.122 . S
C664 C70 1.156 . S
C679 C65 1.208 . S
C691 C84 1.166 . S
C706 C79 1.138 . S
C718 C98 1.149 . S
C733 C112 1.185 . S
C745 C51 1.200 . S
C760 C37 1.189 . S
C772 C126 1.136 . S
C787 C140 1.152 . S
C799 C9 1.206 . S
C814 C154 1.133 . S
C826 C23 1.173 . S
C841 C317 1.165 . S
C853 C168 1.136 . S
C868 C331 1.126 . S
C880 C182 1.174 . S
C895 C196 1.140 . S
C907 C303 1.177 . S
C922 C210 1.136 . S
C934 C289 1.167 . S
C949 C224 1.207 . S
C961 C261 1.195 . S
C976 C238 1.162 . S
C988 C275 1.123 . S
C1003 C233 1.152 . S
C1015 C252 1.140 . S
C1030 C247 1.154 . S
C1042 C266 1.138 . S
C1057 C219 1.189 . S
C1069 C280 1.136 . S
C1084 C205 1.150 . S
C1096 C294 1.209 . S
C1111 C177 1.146 . S
C1123 C308 1.143 . S
C1138 C191 1.122 . S
C1150 C322 1.180 . S
C1165 C336 1.168 . S
C1177 C485 1.125 . S
C1192 C499 1.132 . S
C1204 C350 1.182 . S
C1219 C471 1.139 . S
C1231 C364 1.135 . S
C1246 C378 1.201 . S
C1258 C457 1.153 . S
C1273 C392 1.135 . S
C1285 C429 1.136 . S
C1300 C406 1.149 . S
C1312 C443 1.124 . S
C1327 C401 1.128 . S
C1339 C420 1.161 . S
C1354 C415 1.146 . S
C1366 C434 1.143 . S
C1381 C387 1.137 . S
C1393 C448 1.205 . S
C1408 C462 1.149 . S
C1420 C373 1.138 . S
C1435 C345 1.145 . S
C1447 C476 1.143 . S
C1462 C490 1.209 . S
C1474 C359 1.161 . S
C1489 C53 1.469 . S
C1501 C11 1.476 . S
C1516 C67 1.485 . S
C1528 C25 1.467 . S
C1543 C39 1.490 . S
C1555 C81 1.469 . S
C1570 C137 1.498 . S
C1582 C95 1.472 . S
C1597 C151 1.498 . S
C1609 C109 1.475 . S
C1624 C165 1.498 . S
C1636 C123 1.471 . S
C1651 C221 1.476 . S
C1663 C179 1.498 . S
C1678 C235 1.467 . S
C1690 C193 1.485 . S
C1705 C207 1.478 . S
C1717 C249 1.469 . S
C1732 C263 1.497 . S
C1744 C305 1.469 . S
C1759 C319 1.467 . S
C1771 C277 1.493 . S
C1786 C291 1.474 . S
C1798 C333 1.479 . S
C1813 C389 1.470 . S
C1825 C347 1.494 . S
C1840 C403 1.479 . S
C1852 C361 1.498 . S
C1867 C375 1.489 . S
C1879 C417 1.468 . S
C1894 C431 1.483 . S
C1906 C473 1.471 . S
C1921 C445 1.498 . S
C1933 C487 1.476 . S
C1948 C459 1.484 . S
C1960 C501 1.494 . S
C1975 C5 1.497 . S
C1987 C257 1.475 . S
C2002 C271 1.496 . S
C2014 C19 1.476 . S
C2029 C285 1.491 . S
C2041 C33 1.487 . S
C2056 C467 1.484 . S
C2068 C47 1.486 . S
C2083 C481 1.484 . S
C2095 C61 1.486 . S
C2110 C495 1.492 . S
C2122 C75 1.479 . S
C2137 C89 1.496 . S
C2149 C341 1.476 . S
C2164 C355 1.494 . S
C2176 C103 1.484 . S
C2191 C369 1.500 . S
C2203 C117 1.476 . S
C2218 C131 1.482 . S
C2230 C215 1.488 . S
C2245 C145 1.492 . S
C2257 C229 1.486 . S
C2272 C159 1.476 . S
C2284 C243 1.499 . S
C2299 C425 1.491 . S
C2311 C173 1.487 . S
C2326 C439 1.490 . S
C2338 C187 1.488 . S
C2353 C201 1.500 . S
C2365 C453 1.475 . S
C2380 C299 1.488 . S
C2392 C383 1.482 . S
C2407 C313 1.484 . S
C2419 C397 1.486 . S
C2434 C327 1.480 . S
C2446 C411 1.496 . S
