# Generated by pormake.
# Topology snw, (6)-cn, num edge types: 1
# Building blocks:
#     Node 0, Type 0, BuildingBlock: IZENUY_clean_sbu_0, # of connection points: 6
#     Node 1, Type 0, BuildingBlock: IZENUY_clean_sbu_0, # of connection points: 6
#     Node 2, Type 0, BuildingBlock: IZENUY_clean_sbu_0, # of connection points: 6
#     Node 3, Type 0, BuildingBlock: IZENUY_clean_sbu_0, # of connection points: 6
#     Node 4, Type 0, BuildingBlock: IZENUY_clean_sbu_0, # of connection points: 6
#     Node 5, Type 0, BuildingBlock: IZENUY_clean_sbu_0, # of connection points: 6
#     Node 6, Type 0, BuildingBlock: IZENUY_clean_sbu_0, # of connection points: 6
#     Node 7, Type 0, BuildingBlock: IZENUY_clean_sbu_0, # of connection points: 6
#     Edge 8, Type (0, 0), BuildingBlock: OJICUG_clean_linker_0, # of connection points: 2
#     Edge 9, Type (0, 0), BuildingBlock: OJICUG_clean_linker_0, # of connection points: 2
#     Edge 10, Type (0, 0), BuildingBlock: OJICUG_clean_linker_0, # of connection points: 2
#     Edge 11, Type (0, 0), BuildingBlock: OJICUG_clean_linker_0, # of connection points: 2
#     Edge 12, Type (0, 0), BuildingBlock: OJICUG_clean_linker_0, # of connection points: 2
#     Edge 13, Type (0, 0), BuildingBlock: OJICUG_clean_linker_0, # of connection points: 2
#     Edge 14, Type (0, 0), BuildingBlock: OJICUG_clean_linker_0, # of connection points: 2
#     Edge 15, Type (0, 0), BuildingBlock: OJICUG_clean_linker_0, # of connection points: 2
#     Edge 16, Type (0, 0), BuildingBlock: OJICUG_clean_linker_0, # of connection points: 2
#     Edge 17, Type (0, 0), BuildingBlock: OJICUG_clean_linker_0, # of connection points: 2
#     Edge 18, Type (0, 0), BuildingBlock: OJICUG_clean_linker_0, # of connection points: 2
#     Edge 19, Type (0, 0), BuildingBlock: OJICUG_clean_linker_0, # of connection points: 2
#     Edge 20, Type (0, 0), BuildingBlock: OJICUG_clean_linker_0, # of connection points: 2
#     Edge 21, Type (0, 0), BuildingBlock: OJICUG_clean_linker_0, # of connection points: 2
#     Edge 22, Type (0, 0), BuildingBlock: OJICUG_clean_linker_0, # of connection points: 2
#     Edge 23, Type (0, 0), BuildingBlock: OJICUG_clean_linker_0, # of connection points: 2
#     Edge 24, Type (0, 0), BuildingBlock: OJICUG_clean_linker_0, # of connection points: 2
#     Edge 25, Type (0, 0), BuildingBlock: OJICUG_clean_linker_0, # of connection points: 2
#     Edge 26, Type (0, 0), BuildingBlock: OJICUG_clean_linker_0, # of connection points: 2
#     Edge 27, Type (0, 0), BuildingBlock: OJICUG_clean_linker_0, # of connection points: 2
#     Edge 28, Type (0, 0), BuildingBlock: OJICUG_clean_linker_0, # of connection points: 2
#     Edge 29, Type (0, 0), BuildingBlock: OJICUG_clean_linker_0, # of connection points: 2
#     Edge 30, Type (0, 0), BuildingBlock: OJICUG_clean_linker_0, # of connection points: 2
#     Edge 31, Type (0, 0), BuildingBlock: OJICUG_clean_linker_0, # of connection points: 2
# Relax obj value: 0.015
# Max RMSD: 0.047
# Mean RMSD: 0.047
data_MOF--net-snw--node1-IZENUY_clean_sbu_0--edge1-OJICUG_clean_linker_0
_symmetry_space_group_name_H-M    P1
_symmetry_Int_Tables_number       1
_symmetry_cell_setting            triclinic
loop_
_symmetry_equiv_pos_as_xyz
'x, y, z'
_cell_length_a     15.245506
_cell_length_b     15.252617
_cell_length_c     53.743867
_cell_angle_alpha  90.007006
_cell_angle_beta   90.003739
_cell_angle_gamma 89.888129
loop_
_atom_site_label
_atom_site_type_symbol
_atom_site_fract_x
_atom_site_fract_y
_atom_site_fract_z
_atom_type_partial_charge
Fe0 Fe 0.02581 0.25943 0.15443 0.0
Fe1 Fe 0.12654 0.26355 0.10481 0.0
O2 O 0.02584 0.25941 0.12132 0.0
Fe3 Fe 0.92517 0.25526 0.10479 0.0
O4 O 0.8869 0.35571 0.11937 0.0
O5 O 0.9224 0.31846 0.15752 0.0
O6 O 0.08143 0.36467 0.1557 0.0
C7 C 0.15314 0.38152 0.14498 0.0
C8 C 0.89849 0.13732 0.14496 0.0
O9 O 0.18242 0.33262 0.12783 0.0
C10 C 0.02476 0.14412 0.07634 0.0
O11 O 0.12922 0.20039 0.15754 0.0
O12 O 0.16476 0.1631 0.11939 0.0
O13 O 0.86924 0.18619 0.1278 0.0
O14 O 0.97019 0.15419 0.15569 0.0
C15 C 0.02701 0.37468 0.07635 0.0
O16 O 0.08913 0.19583 0.0786 0.0
O17 O 0.95619 0.15472 0.08912 0.0
C18 C 0.16978 0.15112 0.14258 0.0
O19 O 0.09555 0.36409 0.08914 0.0
O20 O 0.96262 0.32298 0.07859 0.0
C21 C 0.88185 0.36771 0.14256 0.0
Fe22 Fe 0.02472 0.86034 0.35477 0.0
Fe23 Fe 0.02585 0.75933 0.40435 0.0
O24 O 0.02586 0.75932 0.37119 0.0
Fe25 Fe 0.02702 0.6583 0.35477 0.0
O26 O 0.1273 0.68577 0.33853 0.0
O27 O 0.09303 0.82171 0.32884 0.0
O28 O 0.12539 0.89596 0.3697 0.0
C29 C 0.13619 0.90169 0.39289 0.0
C30 C 0.91071 0.76412 0.32615 0.0
O31 O 0.0857 0.86211 0.40767 0.0
C32 C 0.91554 0.61694 0.39288 0.0
O33 O 0.95533 0.91694 0.37769 0.0
O34 O 0.92126 0.81612 0.40544 0.0
O35 O 0.9587 0.69695 0.32883 0.0
O36 O 0.92444 0.83289 0.33854 0.0
C37 C 0.14628 0.63067 0.39467 0.0
O38 O 0.966 0.65655 0.40766 0.0
O39 O 0.92635 0.62265 0.36968 0.0
C40 C 0.90543 0.88798 0.39466 0.0
O41 O 0.13043 0.70253 0.40546 0.0
O42 O 0.09642 0.60172 0.37768 0.0
C43 C 0.14102 0.75454 0.32615 0.0
Fe44 Fe 0.62679 0.75571 0.60474 0.0
Fe45 Fe 0.42524 0.76307 0.60475 0.0
O46 O 0.52603 0.75939 0.62121 0.0
Fe47 Fe 0.52605 0.7594 0.65432 0.0
O48 O 0.62989 0.81777 0.65752 0.0
O49 O 0.66458 0.85608 0.61944 0.0
O50 O 0.58904 0.82374 0.57859 0.0
C51 C 0.52382 0.87462 0.57621 0.0
C52 C 0.65268 0.63678 0.64467 0.0
O53 O 0.4553 0.86343 0.58892 0.0
C54 C 0.38164 0.65155 0.64266 0.0
O55 O 0.59671 0.65533 0.58892 0.0
O56 O 0.46296 0.69502 0.57859 0.0
O57 O 0.58111 0.65388 0.65546 0.0
O58 O 0.68251 0.68624 0.62774 0.0
C59 C 0.39943 0.88203 0.64468 0.0
O60 O 0.38747 0.66271 0.61945 0.0
O61 O 0.42221 0.70104 0.65753 0.0
C62 C 0.52817 0.64414 0.57621 0.0
O63 O 0.36956 0.83255 0.62775 0.0
O64 O 0.471 0.86492 0.65546 0.0
C65 C 0.67043 0.86726 0.64265 0.0
Fe66 Fe 0.526 0.35986 0.85426 0.0
Fe67 Fe 0.52612 0.25932 0.90378 0.0
O68 O 0.52609 0.25932 0.87074 0.0
Fe69 Fe 0.52616 0.15878 0.85425 0.0
O70 O 0.62873 0.18525 0.83876 0.0
O71 O 0.59095 0.31899 0.82796 0.0
O72 O 0.62884 0.39316 0.86859 0.0
C73 C 0.64086 0.39869 0.89177 0.0
C74 C 0.41086 0.26539 0.82589 0.0
O75 O 0.58986 0.36044 0.90681 0.0
C76 C 0.41137 0.11993 0.89177 0.0
O77 O 0.46072 0.419 0.87753 0.0
O78 O 0.42339 0.31891 0.90501 0.0
O79 O 0.46115 0.19966 0.82796 0.0
O80 O 0.42341 0.33341 0.83878 0.0
C81 C 0.64149 0.12651 0.89472 0.0
O82 O 0.46238 0.15819 0.90681 0.0
O83 O 0.42336 0.12546 0.86859 0.0
C84 C 0.41074 0.39213 0.89474 0.0
O85 O 0.62885 0.19972 0.90499 0.0
O86 O 0.5915 0.09964 0.87751 0.0
C87 C 0.64124 0.25327 0.82588 0.0
Fe88 Fe 0.12667 0.75942 0.97189 0.0
Fe89 Fe 0.9255 0.75928 0.97187 0.0
O90 O 0.0261 0.75934 0.95538 0.0
Fe91 Fe 0.02613 0.75933 0.92234 0.0
O92 O 0.12727 0.69552 0.91935 0.0
O93 O 0.16025 0.65666 0.95759 0.0
O94 O 0.08589 0.69448 0.99819 0.0
C95 C 0.02032 0.64419 1.00024 0.0
C96 C 0.15903 0.87454 0.93137 0.0
O97 O 0.95229 0.65673 0.98732 0.0
C98 C 0.88666 0.87413 0.93438 0.0
O99 O 0.09984 0.86198 0.98734 0.0
O100 O 0.96622 0.82422 0.99818 0.0
O101 O 0.08576 0.86196 0.9211 0.0
O102 O 0.18583 0.82466 0.94864 0.0
C103 C 0.89322 0.64413 0.93135 0.0
O104 O 0.89196 0.86204 0.95756 0.0
O105 O 0.92499 0.82314 0.91933 0.0
C106 C 0.03178 0.87452 1.00025 0.0
O107 O 0.86639 0.69404 0.9486 0.0
O108 O 0.9665 0.65669 0.92109 0.0
C109 C 0.16559 0.64456 0.93441 0.0
Fe110 Fe 0.52469 0.65841 0.22159 0.0
Fe111 Fe 0.527 0.86044 0.22161 0.0
O112 O 0.52584 0.75943 0.20518 0.0
Fe113 Fe 0.52582 0.75944 0.17203 0.0
O114 O 0.42108 0.70302 0.17092 0.0
O115 O 0.4551 0.60206 0.19869 0.0
O116 O 0.4245 0.68618 0.23784 0.0
C117 C 0.41077 0.75492 0.25025 0.0
C118 C 0.63595 0.61675 0.18346 0.0
O119 O 0.45858 0.82204 0.24754 0.0
C120 C 0.6465 0.8877 0.18171 0.0
O121 O 0.59312 0.69678 0.24753 0.0
O122 O 0.6272 0.83266 0.23785 0.0
O123 O 0.58541 0.65645 0.16871 0.0
O124 O 0.62527 0.62247 0.20666 0.0
C125 C 0.41571 0.90212 0.18348 0.0
O126 O 0.59657 0.91681 0.1987 0.0
O127 O 0.63056 0.81587 0.17092 0.0
C128 C 0.64094 0.7639 0.25025 0.0
O129 O 0.42641 0.8964 0.20668 0.0
O130 O 0.46624 0.86243 0.16872 0.0
C131 C 0.40514 0.63118 0.1817 0.0
Fe132 Fe 0.62666 0.2563 0.47155 0.0
Fe133 Fe 0.42513 0.26237 0.47156 0.0
O134 O 0.52588 0.25934 0.45506 0.0
Fe135 Fe 0.52585 0.25934 0.42196 0.0
O136 O 0.58223 0.15452 0.42075 0.0
O137 O 0.68319 0.18758 0.44852 0.0
O138 O 0.59729 0.15552 0.48729 0.0
C139 C 0.5289 0.14409 0.50005 0.0
C140 C 0.66889 0.36873 0.43372 0.0
O141 O 0.46358 0.19488 0.49774 0.0
C142 C 0.3976 0.38045 0.43149 0.0
O143 O 0.58827 0.32381 0.49773 0.0
O144 O 0.45453 0.36316 0.4873 0.0
O145 O 0.62884 0.319 0.4188 0.0
O146 O 0.66356 0.35708 0.45692 0.0
C147 C 0.38285 0.14993 0.43374 0.0
O148 O 0.36854 0.33108 0.44854 0.0
O149 O 0.46946 0.36416 0.42076 0.0
C150 C 0.52295 0.3746 0.50005 0.0
O151 O 0.38822 0.16158 0.45693 0.0
O152 O 0.42285 0.19967 0.41881 0.0
C153 C 0.65409 0.13821 0.43147 0.0
Fe154 Fe 0.03066 0.15874 0.72125 0.0
Fe155 Fe 0.02144 0.36008 0.72125 0.0
O156 O 0.02605 0.25941 0.70476 0.0
Fe157 Fe 0.02605 0.25941 0.67164 0.0
O158 O 0.96796 0.15545 0.66847 0.0
O159 O 0.93046 0.12013 0.70659 0.0
O160 O 0.96254 0.19583 0.74742 0.0
C161 C 0.91078 0.2603 0.74975 0.0
C162 C 0.14934 0.13328 0.68123 0.0
O163 O 0.92118 0.32893 0.73702 0.0
C164 C 0.13319 0.40428 0.6834 0.0
O165 O 0.13093 0.18989 0.73701 0.0
O166 O 0.08959 0.32299 0.74743 0.0
O167 O 0.13184 0.20473 0.67045 0.0
O168 O 0.1003 0.10343 0.69824 0.0
C169 C 0.90276 0.38553 0.68124 0.0
O170 O 0.12163 0.39871 0.7066 0.0
O171 O 0.08413 0.36337 0.66848 0.0
C172 C 0.14134 0.25851 0.74975 0.0
O173 O 0.95178 0.41539 0.69826 0.0
O174 O 0.92027 0.3141 0.67045 0.0
C175 C 0.9189 0.11455 0.68339 0.0
C176 C 0.95035 0.45505 0.04173 0.0
C177 C 0.02461 0.44406 0.057 0.0
H178 H 0.89062 0.52631 1.01182 0.0
C179 C 0.09709 0.49939 0.05337 0.0
H180 H 0.89331 0.41359 0.044 0.0
C181 C 0.09555 0.56383 1.03491 0.0
C182 C 0.02142 0.57486 1.01961 0.0
H183 H 0.15537 0.49293 0.06476 0.0
H184 H 0.15274 0.60511 1.03268 0.0
C185 C 0.94879 0.51967 1.02324 0.0
C186 C 0.74353 0.84322 0.2789 0.0
C187 C 0.71026 0.76382 0.26958 0.0
H188 H 0.83173 0.90562 0.30432 0.0
C189 C 0.74319 0.68448 0.27911 0.0
H190 H 0.71931 0.9055 0.27204 0.0
C191 C 0.80849 0.68456 0.29741 0.0
C192 C 0.84122 0.76398 0.30687 0.0
H193 H 0.71908 0.62222 0.27226 0.0
H194 H 0.83281 0.62234 0.30429 0.0
C195 C 0.80768 0.8433 0.2975 0.0
C196 C 0.45259 0.56384 0.5415 0.0
C197 C 0.52655 0.57477 0.55684 0.0
H198 H 0.39347 0.49281 0.51154 0.0
C199 C 0.59935 0.51941 0.55325 0.0
H200 H 0.39535 0.60528 0.5437 0.0
C201 C 0.5983 0.4549 0.53477 0.0
C202 C 0.52436 0.44396 0.51942 0.0
H203 H 0.65744 0.52587 0.56471 0.0
H204 H 0.65557 0.41348 0.53257 0.0
C205 C 0.45154 0.4993 0.52301 0.0
C206 C 0.76588 0.18168 0.80278 0.0
C207 C 0.71058 0.25436 0.8065 0.0
H208 H 0.87207 0.12627 0.78194 0.0
C209 C 0.72151 0.32865 0.79128 0.0
H210 H 0.75931 0.1234 0.81414 0.0
C211 C 0.78594 0.33029 0.77282 0.0
C212 C 0.84139 0.25777 0.7691 0.0
H213 H 0.68015 0.3859 0.79358 0.0
H214 H 0.79232 0.3887 0.7615 0.0
C215 C 0.83051 0.18335 0.78428 0.0
C216 C 0.33058 0.19006 0.79129 0.0
C217 C 0.34152 0.26433 0.80651 0.0
H218 H 0.25976 0.13007 0.76149 0.0
C219 C 0.28625 0.33704 0.8028 0.0
H220 H 0.37192 0.1328 0.79358 0.0
C221 C 0.22162 0.33541 0.7843 0.0
C222 C 0.21073 0.26101 0.7691 0.0
H223 H 0.29283 0.3953 0.81416 0.0
H224 H 0.18008 0.39251 0.78196 0.0
C225 C 0.26615 0.18846 0.77281 0.0
C226 C 0.30853 0.83428 0.27913 0.0
C227 C 0.34147 0.75496 0.26959 0.0
H228 H 0.21891 0.89636 0.30433 0.0
C229 C 0.30822 0.67554 0.2789 0.0
H230 H 0.33263 0.89655 0.2723 0.0
C231 C 0.24408 0.67542 0.2975 0.0
C232 C 0.21052 0.75472 0.30688 0.0
H233 H 0.33246 0.61328 0.27203 0.0
H234 H 0.22004 0.61309 0.3043 0.0
C235 C 0.24324 0.83416 0.29743 0.0
C236 C 0.45362 0.06384 0.53478 0.0
C237 C 0.52752 0.07475 0.51942 0.0
H238 H 0.39455 0.9929 0.56473 0.0
C239 C 0.60034 0.0194 0.52299 0.0
H240 H 0.39636 0.10527 0.53259 0.0
C241 C 0.59933 0.95487 0.54148 0.0
C242 C 0.52541 0.94397 0.55684 0.0
H243 H 0.65838 0.02586 0.51152 0.0
H244 H 0.65656 0.91341 0.54368 0.0
C245 C 0.45261 0.99934 0.55327 0.0
C246 C 0.10156 0.06373 0.04175 0.0
C247 C 0.02724 0.07472 0.057 0.0
H248 H 0.16142 0.99242 1.01187 0.0
C249 C 0.95479 0.01938 0.05334 0.0
H250 H 0.15858 0.10519 0.04404 0.0
C251 C 0.9564 0.95491 1.03488 0.0
C252 C 0.03061 0.94387 1.01962 0.0
H253 H 0.89646 0.02585 0.06471 0.0
H254 H 0.89923 0.91362 1.03264 0.0
C255 C 0.10321 0.99908 1.02327 0.0
C256 C 0.29659 0.01357 0.18882 0.0
C257 C 0.34984 0.96296 0.1731 0.0
H258 H 0.19788 0.1124 0.19149 0.0
C259 C 0.34119 0.97235 0.14714 0.0
H260 H 0.30131 1.00759 0.20886 0.0
C261 C 0.28194 0.03255 0.13713 0.0
C262 C 0.2301 0.08456 0.15286 0.0
H263 H 0.38096 0.93391 0.13448 0.0
H264 H 0.27758 0.03896 0.11709 0.0
C265 C 0.23734 0.07372 0.1788 0.0
C266 C 0.25536 0.01289 0.38753 0.0
C267 C 0.20228 0.96231 0.40326 0.0
H268 H 0.35406 0.11144 0.38481 0.0
C269 C 0.21137 0.97152 0.42921 0.0
H270 H 0.25034 1.00709 0.36749 0.0
C271 C 0.27083 0.03144 0.4392 0.0
C272 C 0.32249 0.08344 0.42345 0.0
H273 H 0.17178 0.93314 0.44189 0.0
H274 H 0.27545 0.03769 0.45923 0.0
C275 C 0.3148 0.07278 0.39751 0.0
C276 C 0.27196 0.02797 0.68852 0.0
C277 C 0.22076 0.07711 0.67182 0.0
H278 H 0.37114 0.92916 0.69291 0.0
C279 C 0.23364 0.06646 0.64614 0.0
H280 H 0.2631 0.03526 0.70842 0.0
C281 C 0.29344 1.00412 0.63731 0.0
C282 C 0.34327 0.95361 0.65401 0.0
H283 H 0.1945 0.10321 0.63292 0.0
H284 H 0.29988 0.99439 0.61741 0.0
C285 C 0.33381 0.96769 0.67968 0.0
C286 C 0.28832 0.9727 0.93626 0.0
C287 C 0.21948 0.94152 0.92138 0.0
H288 H 0.40195 0.05369 0.93869 0.0
C289 C 0.21212 0.97167 0.89672 0.0
H290 H 0.29545 0.95104 0.95536 0.0
C291 C 0.27424 0.0299 0.88697 0.0
C292 C 0.34378 0.0601 0.90184 0.0
H293 H 0.15985 0.94848 0.88478 0.0
H294 H 0.26797 0.05105 0.86781 0.0
C295 C 0.34929 0.03174 0.92669 0.0
C296 C 0.79886 0.9363 0.89944 0.0
C297 C 0.82693 0.94177 0.92431 0.0
H298 H 0.71836 0.99032 0.87071 0.0
C299 C 0.7966 0.01129 0.93918 0.0
H300 H 0.82097 0.88361 0.88744 0.0
C301 C 0.7384 0.07348 0.92939 0.0
C302 C 0.70849 0.06613 0.90472 0.0
H303 H 0.81761 0.01748 0.95835 0.0
H304 H 0.71499 0.12577 0.94132 0.0
C305 C 0.73987 0.99735 0.88983 0.0
C306 C 0.80072 1.00207 0.68886 0.0
C307 C 0.853 0.0534 0.6731 0.0
H308 H 0.70205 0.90341 0.69162 0.0
C309 C 0.84285 0.04494 0.64716 0.0
H310 H 0.80657 1.00722 0.70889 0.0
C311 C 0.78294 0.98538 0.6372 0.0
C312 C 0.73178 0.93292 0.65296 0.0
H313 H 0.88179 0.08384 0.63444 0.0
H314 H 0.7774 0.97993 0.61716 0.0
C315 C 0.74078 0.94252 0.6789 0.0
C316 C 0.78478 0.99587 0.38739 0.0
C317 C 0.83467 0.9452 0.40404 0.0
H318 H 0.68595 0.09516 0.3831 0.0
C319 C 0.82029 0.95417 0.42972 0.0
H320 H 0.79472 0.98988 0.36749 0.0
C321 C 0.7601 0.01601 0.43862 0.0
C322 C 0.71124 0.06767 0.42198 0.0
H323 H 0.85834 0.9162 0.44292 0.0
H324 H 0.75238 0.02423 0.45853 0.0
C325 C 0.72247 0.05562 0.39628 0.0
C326 C 0.76717 0.99548 0.18904 0.0
C327 C 0.71757 0.94467 0.17238 0.0
H328 H 0.86588 0.0946 0.19337 0.0
C329 C 0.7326 0.95325 0.14671 0.0
H330 H 0.75682 0.98986 0.20892 0.0
C331 C 0.793 0.01479 0.13784 0.0
C332 C 0.84155 0.06663 0.15449 0.0
H333 H 0.69487 0.91523 0.13349 0.0
H334 H 0.80106 0.02271 0.11793 0.0
C335 C 0.82972 0.05494 0.18018 0.0
C336 C 0.81859 0.45246 0.64613 0.0
C337 C 0.83135 0.44172 0.67182 0.0
H338 H 0.75245 0.52458 0.61741 0.0
C339 C 0.78005 0.49077 0.68851 0.0
H340 H 0.85782 0.41578 0.63292 0.0
C341 C 0.71821 0.55104 0.67967 0.0
C342 C 0.70885 0.56522 0.654 0.0
H343 H 0.78882 0.48341 0.70841 0.0
H344 H 0.68079 0.5895 0.6929 0.0
C345 C 0.75879 0.51479 0.6373 0.0
C346 C 0.8401 0.54697 0.8967 0.0
C347 C 0.8328 0.57712 0.92136 0.0
H348 H 0.78421 0.46758 0.86779 0.0
C349 C 0.76401 0.54591 0.93626 0.0
H350 H 0.89235 0.57019 0.88476 0.0
C351 C 0.70303 0.48685 0.92668 0.0
C352 C 0.70848 0.45851 0.90183 0.0
H353 H 0.75692 0.56755 0.95536 0.0
H354 H 0.65041 0.46489 0.93869 0.0
C355 C 0.77798 0.48873 0.88695 0.0
C356 C 0.7551 0.50534 0.18879 0.0
C357 C 0.70181 0.55591 0.17307 0.0
H358 H 0.85383 0.40655 0.19146 0.0
C359 C 0.7104 0.54646 0.14712 0.0
H360 H 0.75042 0.51137 0.20883 0.0
C361 C 0.76964 0.48625 0.1371 0.0
C362 C 0.82153 0.43429 0.15283 0.0
H363 H 0.67059 0.58486 0.13445 0.0
H364 H 0.77396 0.47979 0.11707 0.0
C365 C 0.81433 0.44519 0.17878 0.0
C366 C 0.79641 0.50567 0.38751 0.0
C367 C 0.84945 0.55631 0.40324 0.0
H368 H 0.69775 0.40708 0.3848 0.0
C369 C 0.84034 0.54716 0.42919 0.0
H370 H 0.80146 0.51142 0.36747 0.0
C371 C 0.78088 0.48725 0.43918 0.0
C372 C 0.72926 0.4352 0.42344 0.0
H373 H 0.8799 0.58558 0.44188 0.0
H374 H 0.77624 0.48105 0.45922 0.0
C375 C 0.73698 0.44579 0.3975 0.0
C376 C 0.32953 0.46336 0.39631 0.0
C377 C 0.34041 0.45099 0.42201 0.0
H378 H 0.25756 0.52935 0.36751 0.0
C379 C 0.29121 0.50233 0.43865 0.0
H380 H 0.36633 0.42408 0.38313 0.0
C381 C 0.23103 0.56417 0.42974 0.0
C382 C 0.21701 0.57346 0.40406 0.0
H383 H 0.29866 0.49387 0.45856 0.0
H384 H 0.19271 0.60189 0.44294 0.0
C385 C 0.26723 0.52311 0.38741 0.0
C386 C 0.25857 0.50407 0.13785 0.0
C387 C 0.21004 0.45226 0.1545 0.0
H388 H 0.35671 0.60362 0.13348 0.0
C389 C 0.22189 0.464 0.18019 0.0
H390 H 0.25051 0.49611 0.11794 0.0
C391 C 0.28444 0.52347 0.18904 0.0
C392 C 0.33404 0.57424 0.17238 0.0
H393 H 0.18574 0.42436 0.19339 0.0
H394 H 0.29481 0.52912 0.20893 0.0
C395 C 0.31898 0.56562 0.14672 0.0
C396 C 0.25567 0.5074 0.93921 0.0
C397 C 0.22533 0.57691 0.92433 0.0
H398 H 0.33729 0.39292 0.94134 0.0
C399 C 0.25339 0.58235 0.89946 0.0
H400 H 0.23468 0.50124 0.95838 0.0
C401 C 0.31237 0.52129 0.88985 0.0
C402 C 0.34375 0.45252 0.90474 0.0
H403 H 0.23127 0.63502 0.88747 0.0
H404 H 0.33386 0.5283 0.87074 0.0
C405 C 0.31387 0.4452 0.92942 0.0
C406 C 0.20923 0.47386 0.64717 0.0
C407 C 0.19908 0.46543 0.67311 0.0
H408 H 0.27468 0.53883 0.61718 0.0
C409 C 0.25136 0.51679 0.68887 0.0
H410 H 0.1703 0.43495 0.63445 0.0
C411 C 0.31129 0.57633 0.67891 0.0
C412 C 0.32029 0.58589 0.65297 0.0
H413 H 0.2455 0.51166 0.70891 0.0
H414 H 0.35002 0.61547 0.69163 0.0
C415 C 0.26914 0.53342 0.63721 0.0
loop_
_geom_bond_atom_site_label_1
_geom_bond_atom_site_label_2
_geom_bond_distance
_geom_bond_site_symmetry_2
_ccdc_geom_bond_type
Fe0 O2 1.918 . S
Fe0 O5 1.997 1_455 S
Fe0 O6 2.002 . S
Fe0 O11 1.976 . S
Fe0 O14 1.996 1_455 S
Fe1 O2 1.918 . S
Fe1 O9 1.997 . S
Fe1 O12 1.996 . S
Fe1 O16 1.976 . S
Fe1 O19 2.002 . S
O2 Fe0 1.918 . S
O2 Fe1 1.918 . S
O2 Fe3 1.918 1_455 S
Fe3 O2 1.918 1_655 S
Fe3 O4 2.002 . S
Fe3 O13 1.976 . S
Fe3 O17 1.996 . S
Fe3 O20 1.997 . S
O4 Fe3 2.002 . S
O4 C21 1.295 . S
O5 Fe0 1.997 1_655 S
O5 C21 1.235 . S
O6 Fe0 2.002 . S
O6 C7 1.295 . S
C7 O6 1.295 . S
C7 O9 1.235 . S
C8 O13 1.287 . S
C8 O14 1.255 . S
O9 Fe1 1.997 . S
O9 C7 1.235 . S
C10 O16 1.287 . S
C10 O17 1.255 1_455 S
O11 Fe0 1.976 . S
O11 C18 1.287 . S
O12 Fe1 1.996 . S
O12 C18 1.255 . S
O13 Fe3 1.976 . S
O13 C8 1.287 . S
O14 Fe0 1.996 1_655 S
O14 C8 1.255 . S
C15 O19 1.295 . S
C15 O20 1.235 1_455 S
O16 Fe1 1.976 . S
O16 C10 1.287 . S
O17 Fe3 1.996 . S
O17 C10 1.255 1_655 S
C18 O11 1.287 . S
C18 O12 1.255 . S
O19 Fe1 2.002 . S
O19 C15 1.295 . S
O20 Fe3 1.997 . S
O20 C15 1.235 1_655 S
C21 O4 1.295 . S
C21 O5 1.235 . S
Fe22 O24 1.918 . S
Fe22 O27 1.997 . S
Fe22 O28 2.002 . S
Fe22 O33 1.976 1_455 S
Fe22 O36 1.996 1_455 S
Fe23 O24 1.918 . S
Fe23 O31 1.997 . S
Fe23 O34 1.996 1_455 S
Fe23 O38 1.976 1_455 S
Fe23 O41 2.002 . S
O24 Fe22 1.918 . S
O24 Fe23 1.918 . S
O24 Fe25 1.918 . S
Fe25 O24 1.918 . S
Fe25 O26 2.002 . S
Fe25 O35 1.976 1_455 S
Fe25 O39 1.996 1_455 S
Fe25 O42 1.997 . S
O26 Fe25 2.002 . S
O26 C43 1.295 . S
O27 Fe22 1.997 . S
O27 C43 1.235 . S
O28 Fe22 2.002 . S
O28 C29 1.295 . S
C29 O28 1.295 . S
C29 O31 1.235 . S
C30 O35 1.287 . S
C30 O36 1.255 . S
O31 Fe23 1.997 . S
O31 C29 1.235 . S
C32 O38 1.287 . S
C32 O39 1.255 . S
O33 Fe22 1.976 1_655 S
O33 C40 1.287 . S
O34 Fe23 1.996 1_655 S
O34 C40 1.255 . S
O35 Fe25 1.976 1_655 S
O35 C30 1.287 . S
O36 Fe22 1.996 1_655 S
O36 C30 1.255 . S
C37 O41 1.295 . S
C37 O42 1.235 . S
O38 Fe23 1.976 1_655 S
O38 C32 1.287 . S
O39 Fe25 1.996 1_655 S
O39 C32 1.255 . S
C40 O33 1.287 . S
C40 O34 1.255 . S
O41 Fe23 2.002 . S
O41 C37 1.295 . S
O42 Fe25 1.997 . S
O42 C37 1.235 . S
C43 O26 1.295 . S
C43 O27 1.235 . S
Fe44 O46 1.918 . S
Fe44 O49 1.997 . S
Fe44 O50 2.002 . S
Fe44 O55 1.976 . S
Fe44 O58 1.996 . S
Fe45 O46 1.918 . S
Fe45 O53 1.997 . S
Fe45 O56 1.996 . S
Fe45 O60 1.976 . S
Fe45 O63 2.002 . S
O46 Fe44 1.918 . S
O46 Fe45 1.918 . S
O46 Fe47 1.918 . S
Fe47 O46 1.918 . S
Fe47 O48 2.002 . S
Fe47 O57 1.976 . S
Fe47 O61 1.996 . S
Fe47 O64 1.997 . S
O48 Fe47 2.002 . S
O48 C65 1.295 . S
O49 Fe44 1.997 . S
O49 C65 1.235 . S
O50 Fe44 2.002 . S
O50 C51 1.295 . S
C51 O50 1.295 . S
C51 O53 1.235 . S
C52 O57 1.287 . S
C52 O58 1.255 . S
O53 Fe45 1.997 . S
O53 C51 1.235 . S
C54 O60 1.287 . S
C54 O61 1.255 . S
O55 Fe44 1.976 . S
O55 C62 1.287 . S
O56 Fe45 1.996 . S
O56 C62 1.255 . S
O57 Fe47 1.976 . S
O57 C52 1.287 . S
O58 Fe44 1.996 . S
O58 C52 1.255 . S
C59 O63 1.295 . S
C59 O64 1.235 . S
O60 Fe45 1.976 . S
O60 C54 1.287 . S
O61 Fe47 1.996 . S
O61 C54 1.255 . S
C62 O55 1.287 . S
C62 O56 1.255 . S
O63 Fe45 2.002 . S
O63 C59 1.295 . S
O64 Fe47 1.997 . S
O64 C59 1.235 . S
C65 O48 1.295 . S
C65 O49 1.235 . S
Fe66 O68 1.918 . S
Fe66 O71 1.997 . S
Fe66 O72 2.002 . S
Fe66 O77 1.976 . S
Fe66 O80 1.996 . S
Fe67 O68 1.918 . S
Fe67 O75 1.997 . S
Fe67 O78 1.996 . S
Fe67 O82 1.976 . S
Fe67 O85 2.002 . S
O68 Fe66 1.918 . S
O68 Fe67 1.918 . S
O68 Fe69 1.918 . S
Fe69 O68 1.918 . S
Fe69 O70 2.002 . S
Fe69 O79 1.976 . S
Fe69 O83 1.996 . S
Fe69 O86 1.997 . S
O70 Fe69 2.002 . S
O70 C87 1.295 . S
O71 Fe66 1.997 . S
O71 C87 1.235 . S
O72 Fe66 2.002 . S
O72 C73 1.295 . S
C73 O72 1.295 . S
C73 O75 1.235 . S
C74 O79 1.287 . S
C74 O80 1.255 . S
O75 Fe67 1.997 . S
O75 C73 1.235 . S
C76 O82 1.287 . S
C76 O83 1.255 . S
O77 Fe66 1.976 . S
O77 C84 1.287 . S
O78 Fe67 1.996 . S
O78 C84 1.255 . S
O79 Fe69 1.976 . S
O79 C74 1.287 . S
O80 Fe66 1.996 . S
O80 C74 1.255 . S
C81 O85 1.295 . S
C81 O86 1.235 . S
O82 Fe67 1.976 . S
O82 C76 1.287 . S
O83 Fe69 1.996 . S
O83 C76 1.255 . S
C84 O77 1.287 . S
C84 O78 1.255 . S
O85 Fe67 2.002 . S
O85 C81 1.295 . S
O86 Fe69 1.997 . S
O86 C81 1.235 . S
C87 O70 1.295 . S
C87 O71 1.235 . S
Fe88 O90 1.918 . S
Fe88 O93 1.997 . S
Fe88 O94 2.002 . S
Fe88 O99 1.976 . S
Fe88 O102 1.996 . S
Fe89 O90 1.918 1_655 S
Fe89 O97 1.997 . S
Fe89 O100 1.996 . S
Fe89 O104 1.976 . S
Fe89 O107 2.002 . S
O90 Fe88 1.918 . S
O90 Fe89 1.918 1_455 S
O90 Fe91 1.918 . S
Fe91 O90 1.918 . S
Fe91 O92 2.002 . S
Fe91 O101 1.976 . S
Fe91 O105 1.996 1_455 S
Fe91 O108 1.997 1_455 S
O92 Fe91 2.002 . S
O92 C109 1.295 . S
O93 Fe88 1.997 . S
O93 C109 1.235 . S
O94 Fe88 2.002 . S
O94 C95 1.295 . S
C95 O94 1.295 . S
C95 O97 1.235 1_455 S
C96 O101 1.287 . S
C96 O102 1.255 . S
O97 Fe89 1.997 . S
O97 C95 1.235 1_655 S
C98 O104 1.287 . S
C98 O105 1.255 . S
O99 Fe88 1.976 . S
O99 C106 1.287 . S
O100 Fe89 1.996 . S
O100 C106 1.255 1_655 S
O101 Fe91 1.976 . S
O101 C96 1.287 . S
O102 Fe88 1.996 . S
O102 C96 1.255 . S
C103 O107 1.295 . S
C103 O108 1.235 . S
O104 Fe89 1.976 . S
O104 C98 1.287 . S
O105 Fe91 1.996 1_655 S
O105 C98 1.255 . S
C106 O99 1.287 . S
C106 O100 1.255 1_455 S
O107 Fe89 2.002 . S
O107 C103 1.295 . S
O108 Fe91 1.997 1_655 S
O108 C103 1.235 . S
C109 O92 1.295 . S
C109 O93 1.235 . S
Fe110 O112 1.918 . S
Fe110 O115 1.997 . S
Fe110 O116 2.002 . S
Fe110 O121 1.976 . S
Fe110 O124 1.996 . S
Fe111 O112 1.918 . S
Fe111 O119 1.997 . S
Fe111 O122 1.996 . S
Fe111 O126 1.976 . S
Fe111 O129 2.002 . S
O112 Fe110 1.918 . S
O112 Fe111 1.918 . S
O112 Fe113 1.918 . S
Fe113 O112 1.918 . S
Fe113 O114 2.002 . S
Fe113 O123 1.976 . S
Fe113 O127 1.996 . S
Fe113 O130 1.997 . S
O114 Fe113 2.002 . S
O114 C131 1.295 . S
O115 Fe110 1.997 . S
O115 C131 1.235 . S
O116 Fe110 2.002 . S
O116 C117 1.295 . S
C117 O116 1.295 . S
C117 O119 1.235 . S
C118 O123 1.287 . S
C118 O124 1.255 . S
O119 Fe111 1.997 . S
O119 C117 1.235 . S
C120 O126 1.287 . S
C120 O127 1.255 . S
O121 Fe110 1.976 . S
O121 C128 1.287 . S
O122 Fe111 1.996 . S
O122 C128 1.255 . S
O123 Fe113 1.976 . S
O123 C118 1.287 . S
O124 Fe110 1.996 . S
O124 C118 1.255 . S
C125 O129 1.295 . S
C125 O130 1.235 . S
O126 Fe111 1.976 . S
O126 C120 1.287 . S
O127 Fe113 1.996 . S
O127 C120 1.255 . S
C128 O121 1.287 . S
C128 O122 1.255 . S
O129 Fe111 2.002 . S
O129 C125 1.295 . S
O130 Fe113 1.997 . S
O130 C125 1.235 . S
C131 O114 1.295 . S
C131 O115 1.235 . S
Fe132 O134 1.918 . S
Fe132 O137 1.997 . S
Fe132 O138 2.002 . S
Fe132 O143 1.976 . S
Fe132 O146 1.996 . S
Fe133 O134 1.918 . S
Fe133 O141 1.997 . S
Fe133 O144 1.996 . S
Fe133 O148 1.976 . S
Fe133 O151 2.002 . S
O134 Fe132 1.918 . S
O134 Fe133 1.918 . S
O134 Fe135 1.918 . S
Fe135 O134 1.918 . S
Fe135 O136 2.002 . S
Fe135 O145 1.976 . S
Fe135 O149 1.996 . S
Fe135 O152 1.997 . S
O136 Fe135 2.002 . S
O136 C153 1.295 . S
O137 Fe132 1.997 . S
O137 C153 1.235 . S
O138 Fe132 2.002 . S
O138 C139 1.295 . S
C139 O138 1.295 . S
C139 O141 1.235 . S
C140 O145 1.287 . S
C140 O146 1.255 . S
O141 Fe133 1.997 . S
O141 C139 1.235 . S
C142 O148 1.287 . S
C142 O149 1.255 . S
O143 Fe132 1.976 . S
O143 C150 1.287 . S
O144 Fe133 1.996 . S
O144 C150 1.255 . S
O145 Fe135 1.976 . S
O145 C140 1.287 . S
O146 Fe132 1.996 . S
O146 C140 1.255 . S
C147 O151 1.295 . S
C147 O152 1.235 . S
O148 Fe133 1.976 . S
O148 C142 1.287 . S
O149 Fe135 1.996 . S
O149 C142 1.255 . S
C150 O143 1.287 . S
C150 O144 1.255 . S
O151 Fe133 2.002 . S
O151 C147 1.295 . S
O152 Fe135 1.997 . S
O152 C147 1.235 . S
C153 O136 1.295 . S
C153 O137 1.235 . S
Fe154 O156 1.918 . S
Fe154 O159 1.997 1_455 S
Fe154 O160 2.002 1_455 S
Fe154 O165 1.976 . S
Fe154 O168 1.996 . S
Fe155 O156 1.918 . S
Fe155 O163 1.997 1_455 S
Fe155 O166 1.996 . S
Fe155 O170 1.976 . S
Fe155 O173 2.002 1_455 S
O156 Fe154 1.918 . S
O156 Fe155 1.918 . S
O156 Fe157 1.918 . S
Fe157 O156 1.918 . S
Fe157 O158 2.002 1_455 S
Fe157 O167 1.976 . S
Fe157 O171 1.996 . S
Fe157 O174 1.997 1_455 S
O158 Fe157 2.002 1_655 S
O158 C175 1.295 . S
O159 Fe154 1.997 1_655 S
O159 C175 1.235 . S
O160 Fe154 2.002 1_655 S
O160 C161 1.295 . S
C161 O160 1.295 . S
C161 O163 1.235 . S
C162 O167 1.287 . S
C162 O168 1.255 . S
O163 Fe155 1.997 1_655 S
O163 C161 1.235 . S
C164 O170 1.287 . S
C164 O171 1.255 . S
O165 Fe154 1.976 . S
O165 C172 1.287 . S
O166 Fe155 1.996 . S
O166 C172 1.255 . S
O167 Fe157 1.976 . S
O167 C162 1.287 . S
O168 Fe154 1.996 . S
O168 C162 1.255 . S
C169 O173 1.295 . S
C169 O174 1.235 . S
O170 Fe155 1.976 . S
O170 C164 1.287 . S
O171 Fe157 1.996 . S
O171 C164 1.255 . S
C172 O165 1.287 . S
C172 O166 1.255 . S
O173 Fe155 2.002 1_655 S
O173 C169 1.295 . S
O174 Fe157 1.997 1_655 S
O174 C169 1.235 . S
C175 O158 1.295 . S
C175 O159 1.235 . S
C176 C177 1.387 1_655 S
C176 H180 0.950 . S
C176 C185 1.390 1_554 S
C177 C176 1.387 1_455 S
C177 C179 1.387 . S
H178 C185 0.950 . S
C179 C177 1.387 . S
C179 C181 1.390 1_554 S
C179 H183 0.950 . S
H180 C176 0.950 . S
C181 C179 1.390 1_556 S
C181 C182 1.387 . S
C181 H184 0.950 . S
C182 C181 1.387 . S
C182 C185 1.387 1_455 S
H183 C179 0.950 . S
H184 C181 0.950 . S
C185 C176 1.390 1_556 S
C185 H178 0.950 . S
C185 C182 1.387 1_655 S
C186 C187 1.387 . S
C186 H190 0.950 . S
C186 C195 1.390 . S
C187 C186 1.387 . S
C187 C189 1.387 . S
H188 C195 0.950 . S
C189 C187 1.387 . S
C189 C191 1.390 . S
C189 H193 0.950 . S
H190 C186 0.950 . S
C191 C189 1.390 . S
C191 C192 1.387 . S
C191 H194 0.950 . S
C192 C191 1.387 . S
C192 C195 1.387 . S
H193 C189 0.950 . S
H194 C191 0.950 . S
C195 C186 1.390 . S
C195 H188 0.950 . S
C195 C192 1.387 . S
C196 C197 1.387 . S
C196 H200 0.950 . S
C196 C205 1.390 . S
C197 C196 1.387 . S
C197 C199 1.387 . S
H198 C205 0.950 . S
C199 C197 1.387 . S
C199 C201 1.390 . S
C199 H203 0.950 . S
H200 C196 0.950 . S
C201 C199 1.390 . S
C201 C202 1.387 . S
C201 H204 0.950 . S
C202 C201 1.387 . S
C202 C205 1.387 . S
H203 C199 0.950 . S
H204 C201 0.950 . S
C205 C196 1.390 . S
C205 H198 0.950 . S
C205 C202 1.387 . S
C206 C207 1.387 . S
C206 H210 0.950 . S
C206 C215 1.390 . S
C207 C206 1.387 . S
C207 C209 1.387 . S
H208 C215 0.950 . S
C209 C207 1.387 . S
C209 C211 1.390 . S
C209 H213 0.950 . S
H210 C206 0.950 . S
C211 C209 1.390 . S
C211 C212 1.387 . S
C211 H214 0.950 . S
C212 C211 1.387 . S
C212 C215 1.387 . S
H213 C209 0.950 . S
H214 C211 0.950 . S
C215 C206 1.390 . S
C215 H208 0.950 . S
C215 C212 1.387 . S
C216 C217 1.387 . S
C216 H220 0.950 . S
C216 C225 1.390 . S
C217 C216 1.387 . S
C217 C219 1.387 . S
H218 C225 0.950 . S
C219 C217 1.387 . S
C219 C221 1.390 . S
C219 H223 0.950 . S
H220 C216 0.950 . S
C221 C219 1.390 . S
C221 C222 1.387 . S
C221 H224 0.950 . S
C222 C221 1.387 . S
C222 C225 1.387 . S
H223 C219 0.950 . S
H224 C221 0.950 . S
C225 C216 1.390 . S
C225 H218 0.950 . S
C225 C222 1.387 . S
C226 C227 1.387 . S
C226 H230 0.950 . S
C226 C235 1.390 . S
C227 C226 1.387 . S
C227 C229 1.387 . S
H228 C235 0.950 . S
C229 C227 1.387 . S
C229 C231 1.390 . S
C229 H233 0.950 . S
H230 C226 0.950 . S
C231 C229 1.390 . S
C231 C232 1.387 . S
C231 H234 0.950 . S
C232 C231 1.387 . S
C232 C235 1.387 . S
H233 C229 0.950 . S
H234 C231 0.950 . S
C235 C226 1.390 . S
C235 H228 0.950 . S
C235 C232 1.387 . S
C236 C237 1.387 . S
C236 H240 0.950 . S
C236 C245 1.390 1_545 S
C237 C236 1.387 . S
C237 C239 1.387 . S
H238 C245 0.950 . S
C239 C237 1.387 . S
C239 C241 1.390 1_545 S
C239 H243 0.950 . S
H240 C236 0.950 . S
C241 C239 1.390 1_565 S
C241 C242 1.387 . S
C241 H244 0.950 . S
C242 C241 1.387 . S
C242 C245 1.387 . S
H243 C239 0.950 . S
H244 C241 0.950 . S
C245 C236 1.390 1_565 S
C245 H238 0.950 . S
C245 C242 1.387 . S
C246 C247 1.387 . S
C246 H250 0.950 . S
C246 C255 1.390 1_544 S
C247 C246 1.387 . S
C247 C249 1.387 1_455 S
H248 C255 0.950 . S
C249 C247 1.387 1_655 S
C249 C251 1.390 1_544 S
C249 H253 0.950 . S
H250 C246 0.950 . S
C251 C249 1.390 1_566 S
C251 C252 1.387 1_655 S
C251 H254 0.950 . S
C252 C251 1.387 1_455 S
C252 C255 1.387 . S
H253 C249 0.950 . S
H254 C251 0.950 . S
C255 C246 1.390 1_566 S
C255 H248 0.950 . S
C255 C252 1.387 . S
C256 C257 1.387 1_545 S
C256 H260 0.950 . S
C256 C265 1.390 . S
C257 C256 1.387 1_565 S
C257 C259 1.387 . S
H258 C265 0.950 . S
C259 C257 1.387 . S
C259 C261 1.390 1_565 S
C259 H263 0.950 . S
H260 C256 0.950 . S
C261 C259 1.390 1_545 S
C261 C262 1.387 . S
C261 H264 0.950 1_545 S
C262 C261 1.387 . S
C262 C265 1.387 . S
H263 C259 0.950 . S
H264 C261 0.950 1_565 S
C265 C256 1.390 . S
C265 H258 0.950 . S
C265 C262 1.387 . S
C266 C267 1.387 1_545 S
C266 H270 0.950 . S
C266 C275 1.390 . S
C267 C266 1.387 1_565 S
C267 C269 1.387 . S
H268 C275 0.950 . S
C269 C267 1.387 . S
C269 C271 1.390 . S
C269 H273 0.950 . S
H270 C266 0.950 . S
C271 C269 1.390 . S
C271 C272 1.387 1_565 S
C271 H274 0.950 . S
C272 C271 1.387 1_545 S
C272 C275 1.387 . S
H273 C269 0.950 . S
H274 C271 0.950 . S
C275 C266 1.390 . S
C275 H268 0.950 . S
C275 C272 1.387 . S
C276 C277 1.387 1_565 S
C276 H280 0.950 . S
C276 C285 1.390 . S
C277 C276 1.387 1_545 S
C277 C279 1.387 . S
H278 C285 0.950 . S
C279 C277 1.387 . S
C279 C281 1.390 . S
C279 H283 0.950 . S
H280 C276 0.950 . S
C281 C279 1.390 . S
C281 C282 1.387 1_545 S
C281 H284 0.950 . S
C282 C281 1.387 1_565 S
C282 C285 1.387 . S
H283 C279 0.950 . S
H284 C281 0.950 . S
C285 C276 1.390 . S
C285 H278 0.950 . S
C285 C282 1.387 . S
C286 C287 1.387 1_545 S
C286 H290 0.950 . S
C286 C295 1.390 . S
C287 C286 1.387 1_565 S
C287 C289 1.387 . S
H288 C295 0.950 . S
C289 C287 1.387 . S
C289 C291 1.390 . S
C289 H293 0.950 . S
H290 C286 0.950 . S
C291 C289 1.390 . S
C291 C292 1.387 1_565 S
C291 H294 0.950 . S
C292 C291 1.387 1_545 S
C292 C295 1.387 . S
H293 C289 0.950 . S
H294 C291 0.950 . S
C295 C286 1.390 . S
C295 H288 0.950 . S
C295 C292 1.387 . S
C296 C297 1.387 . S
C296 H300 0.950 . S
C296 C305 1.390 . S
C297 C296 1.387 . S
C297 C299 1.387 1_565 S
H298 C305 0.950 . S
C299 C297 1.387 1_545 S
C299 C301 1.390 . S
C299 H303 0.950 . S
H300 C296 0.950 . S
C301 C299 1.390 . S
C301 C302 1.387 . S
C301 H304 0.950 . S
C302 C301 1.387 . S
C302 C305 1.387 1_545 S
H303 C299 0.950 . S
H304 C301 0.950 . S
C305 C296 1.390 . S
C305 H298 0.950 . S
C305 C302 1.387 1_565 S
C306 C307 1.387 . S
C306 H310 0.950 . S
C306 C315 1.390 1_545 S
C307 C306 1.387 . S
C307 C309 1.387 . S
H308 C315 0.950 . S
C309 C307 1.387 . S
C309 C311 1.390 1_545 S
C309 H313 0.950 . S
H310 C306 0.950 . S
C311 C309 1.390 1_565 S
C311 C312 1.387 . S
C311 H314 0.950 . S
C312 C311 1.387 . S
C312 C315 1.387 . S
H313 C309 0.950 . S
H314 C311 0.950 . S
C315 C306 1.390 1_565 S
C315 H308 0.950 . S
C315 C312 1.387 . S
C316 C317 1.387 1_545 S
C316 H320 0.950 . S
C316 C325 1.390 . S
C317 C316 1.387 1_565 S
C317 C319 1.387 . S
H318 C325 0.950 . S
C319 C317 1.387 . S
C319 C321 1.390 . S
C319 H323 0.950 . S
H320 C316 0.950 . S
C321 C319 1.390 . S
C321 C322 1.387 1_565 S
C321 H324 0.950 . S
C322 C321 1.387 1_545 S
C322 C325 1.387 . S
H323 C319 0.950 . S
H324 C321 0.950 . S
C325 C316 1.390 . S
C325 H318 0.950 . S
C325 C322 1.387 . S
C326 C327 1.387 1_545 S
C326 H330 0.950 . S
C326 C335 1.390 . S
C327 C326 1.387 1_565 S
C327 C329 1.387 . S
H328 C335 0.950 . S
C329 C327 1.387 . S
C329 C331 1.390 . S
C329 H333 0.950 . S
H330 C326 0.950 . S
C331 C329 1.390 . S
C331 C332 1.387 1_565 S
C331 H334 0.950 . S
C332 C331 1.387 1_545 S
C332 C335 1.387 . S
H333 C329 0.950 . S
H334 C331 0.950 . S
C335 C326 1.390 . S
C335 H328 0.950 . S
C335 C332 1.387 . S
C336 C337 1.387 . S
C336 H340 0.950 . S
C336 C345 1.390 . S
C337 C336 1.387 . S
C337 C339 1.387 . S
H338 C345 0.950 . S
C339 C337 1.387 . S
C339 C341 1.390 . S
C339 H343 0.950 . S
H340 C336 0.950 . S
C341 C339 1.390 . S
C341 C342 1.387 . S
C341 H344 0.950 . S
C342 C341 1.387 . S
C342 C345 1.387 . S
H343 C339 0.950 . S
H344 C341 0.950 . S
C345 C336 1.390 . S
C345 H338 0.950 . S
C345 C342 1.387 . S
C346 C347 1.387 . S
C346 H350 0.950 . S
C346 C355 1.390 . S
C347 C346 1.387 . S
C347 C349 1.387 . S
H348 C355 0.950 . S
C349 C347 1.387 . S
C349 C351 1.390 . S
C349 H353 0.950 . S
H350 C346 0.950 . S
C351 C349 1.390 . S
C351 C352 1.387 . S
C351 H354 0.950 . S
C352 C351 1.387 . S
C352 C355 1.387 . S
H353 C349 0.950 . S
H354 C351 0.950 . S
C355 C346 1.390 . S
C355 H348 0.950 . S
C355 C352 1.387 . S
C356 C357 1.387 . S
C356 H360 0.950 . S
C356 C365 1.390 . S
C357 C356 1.387 . S
C357 C359 1.387 . S
H358 C365 0.950 . S
C359 C357 1.387 . S
C359 C361 1.390 . S
C359 H363 0.950 . S
H360 C356 0.950 . S
C361 C359 1.390 . S
C361 C362 1.387 . S
C361 H364 0.950 . S
C362 C361 1.387 . S
C362 C365 1.387 . S
H363 C359 0.950 . S
H364 C361 0.950 . S
C365 C356 1.390 . S
C365 H358 0.950 . S
C365 C362 1.387 . S
C366 C367 1.387 . S
C366 H370 0.950 . S
C366 C375 1.390 . S
C367 C366 1.387 . S
C367 C369 1.387 . S
H368 C375 0.950 . S
C369 C367 1.387 . S
C369 C371 1.390 . S
C369 H373 0.950 . S
H370 C366 0.950 . S
C371 C369 1.390 . S
C371 C372 1.387 . S
C371 H374 0.950 . S
C372 C371 1.387 . S
C372 C375 1.387 . S
H373 C369 0.950 . S
H374 C371 0.950 . S
C375 C366 1.390 . S
C375 H368 0.950 . S
C375 C372 1.387 . S
C376 C377 1.387 . S
C376 H380 0.950 . S
C376 C385 1.390 . S
C377 C376 1.387 . S
C377 C379 1.387 . S
H378 C385 0.950 . S
C379 C377 1.387 . S
C379 C381 1.390 . S
C379 H383 0.950 . S
H380 C376 0.950 . S
C381 C379 1.390 . S
C381 C382 1.387 . S
C381 H384 0.950 . S
C382 C381 1.387 . S
C382 C385 1.387 . S
H383 C379 0.950 . S
H384 C381 0.950 . S
C385 C376 1.390 . S
C385 H378 0.950 . S
C385 C382 1.387 . S
C386 C387 1.387 . S
C386 H390 0.950 . S
C386 C395 1.390 . S
C387 C386 1.387 . S
C387 C389 1.387 . S
H388 C395 0.950 . S
C389 C387 1.387 . S
C389 C391 1.390 . S
C389 H393 0.950 . S
H390 C386 0.950 . S
C391 C389 1.390 . S
C391 C392 1.387 . S
C391 H394 0.950 . S
C392 C391 1.387 . S
C392 C395 1.387 . S
H393 C389 0.950 . S
H394 C391 0.950 . S
C395 C386 1.390 . S
C395 H388 0.950 . S
C395 C392 1.387 . S
C396 C397 1.387 . S
C396 H400 0.950 . S
C396 C405 1.390 . S
C397 C396 1.387 . S
C397 C399 1.387 . S
H398 C405 0.950 . S
C399 C397 1.387 . S
C399 C401 1.390 . S
C399 H403 0.950 . S
H400 C396 0.950 . S
C401 C399 1.390 . S
C401 C402 1.387 . S
C401 H404 0.950 . S
C402 C401 1.387 . S
C402 C405 1.387 . S
H403 C399 0.950 . S
H404 C401 0.950 . S
C405 C396 1.390 . S
C405 H398 0.950 . S
C405 C402 1.387 . S
C406 C407 1.387 . S
C406 H410 0.950 . S
C406 C415 1.390 . S
C407 C406 1.387 . S
C407 C409 1.387 . S
H408 C415 0.950 . S
C409 C407 1.387 . S
C409 C411 1.390 . S
C409 H413 0.950 . S
H410 C406 0.950 . S
C411 C409 1.390 . S
C411 C412 1.387 . S
C411 H414 0.950 . S
C412 C411 1.387 . S
C412 C415 1.387 . S
H413 C409 0.950 . S
H414 C411 0.950 . S
C415 C406 1.390 . S
C415 H408 0.950 . S
C415 C412 1.387 . S
C177 C15 1.602 . S
C182 C95 1.602 . S
C187 C128 1.524 . S
C192 C30 1.524 . S
C197 C62 1.524 . S
C202 C150 1.524 . S
C207 C87 1.603 . S
C212 C161 1.603 . S
C217 C74 1.524 . S
C222 C172 1.524 . S
C227 C117 1.602 . S
C232 C43 1.602 . S
C237 C139 1.602 . S
C242 C51 1.602 . S
C247 C10 1.524 . S
C252 C106 1.524 . S
C257 C125 1.418 . S
C262 C18 1.427 . S
C267 C29 1.469 . S
C272 C147 1.468 . S
C277 C162 1.427 . S
C282 C59 1.418 . S
C287 C96 1.376 . S
C292 C76 1.375 . S
C297 C98 1.425 . S
C302 C81 1.415 . S
C307 C175 1.466 . S
C312 C65 1.467 . S
C317 C40 1.425 . S
C322 C153 1.416 . S
C327 C120 1.374 . S
C332 C8 1.374 . S
C337 C169 1.417 . S
C342 C52 1.427 . S
C347 C103 1.468 . S
C352 C73 1.469 . S
C357 C118 1.427 . S
C362 C21 1.417 . S
C367 C32 1.376 . S
C372 C140 1.376 . S
C377 C142 1.425 . S
C382 C37 1.416 . S
C387 C7 1.466 . S
C392 C131 1.467 . S
C397 C109 1.415 . S
C402 C84 1.425 . S
C407 C164 1.374 . S
C412 C54 1.374 . S
