# Generated by pormake.
# Topology qtz-e, (6)-cn, num edge types: 1
# Building blocks:
#     Node 0, Type 0, BuildingBlock: BETFAJ_clean_sbu_0, # of connection points: 6
#     Node 1, Type 0, BuildingBlock: BETFAJ_clean_sbu_0, # of connection points: 6
#     Node 2, Type 0, BuildingBlock: BETFAJ_clean_sbu_0, # of connection points: 6
#     Node 3, Type 0, BuildingBlock: BETFAJ_clean_sbu_0, # of connection points: 6
#     Node 4, Type 0, BuildingBlock: BETFAJ_clean_sbu_0, # of connection points: 6
#     Node 5, Type 0, BuildingBlock: BETFAJ_clean_sbu_0, # of connection points: 6
#     Edge 6, Type (0, 0), BuildingBlock: EZIPEK_clean_linker_0, # of connection points: 2
#     Edge 7, Type (0, 0), BuildingBlock: EZIPEK_clean_linker_0, # of connection points: 2
#     Edge 8, Type (0, 0), BuildingBlock: EZIPEK_clean_linker_0, # of connection points: 2
#     Edge 9, Type (0, 0), BuildingBlock: EZIPEK_clean_linker_0, # of connection points: 2
#     Edge 10, Type (0, 0), BuildingBlock: EZIPEK_clean_linker_0, # of connection points: 2
#     Edge 11, Type (0, 0), BuildingBlock: EZIPEK_clean_linker_0, # of connection points: 2
#     Edge 12, Type (0, 0), BuildingBlock: EZIPEK_clean_linker_0, # of connection points: 2
#     Edge 13, Type (0, 0), BuildingBlock: EZIPEK_clean_linker_0, # of connection points: 2
#     Edge 14, Type (0, 0), BuildingBlock: EZIPEK_clean_linker_0, # of connection points: 2
#     Edge 15, Type (0, 0), BuildingBlock: EZIPEK_clean_linker_0, # of connection points: 2
#     Edge 16, Type (0, 0), BuildingBlock: EZIPEK_clean_linker_0, # of connection points: 2
#     Edge 17, Type (0, 0), BuildingBlock: EZIPEK_clean_linker_0, # of connection points: 2
#     Edge 18, Type (0, 0), BuildingBlock: EZIPEK_clean_linker_0, # of connection points: 2
#     Edge 19, Type (0, 0), BuildingBlock: EZIPEK_clean_linker_0, # of connection points: 2
#     Edge 20, Type (0, 0), BuildingBlock: EZIPEK_clean_linker_0, # of connection points: 2
#     Edge 21, Type (0, 0), BuildingBlock: EZIPEK_clean_linker_0, # of connection points: 2
#     Edge 22, Type (0, 0), BuildingBlock: EZIPEK_clean_linker_0, # of connection points: 2
#     Edge 23, Type (0, 0), BuildingBlock: EZIPEK_clean_linker_0, # of connection points: 2
# Relax obj value: 0.095
# Max RMSD: 0.188
# Mean RMSD: 0.188
data_MOF--net-qtz-e--node1-BETFAJ_clean_sbu_0--edge1-EZIPEK_clean_linker_0
_symmetry_space_group_name_H-M    P1
_symmetry_Int_Tables_number       1
_symmetry_cell_setting            triclinic
loop_
_symmetry_equiv_pos_as_xyz
'x, y, z'
_cell_length_a     19.379102
_cell_length_b     19.324639
_cell_length_c     42.144563
_cell_angle_alpha  90.24913
_cell_angle_beta   89.66749
_cell_angle_gamma 119.52437
loop_
_atom_site_label
_atom_site_type_symbol
_atom_site_fract_x
_atom_site_fract_y
_atom_site_fract_z
_atom_type_partial_charge
Sm0 Sm 0.22827 0.53488 0.08074 0.0
Sm1 Sm 0.16327 0.36651 0.05483 0.0
C2 C 0.2483 0.66568 0.10877 0.0
C3 C 0.25515 0.69061 0.14224 0.0
C4 C 0.18704 0.66406 0.16127 0.0
C5 C 0.19388 0.67908 0.19373 0.0
C6 C 0.26886 0.7217 0.20757 0.0
C7 C 0.33712 0.75213 0.18861 0.0
C8 C 0.33032 0.73654 0.15607 0.0
C9 C 0.33658 0.48431 0.08156 0.0
C10 C 0.12519 0.37742 0.12961 0.0
C11 C 0.14832 0.24252 1.021 0.0
C12 C 0.17705 0.22835 0.98975 0.0
C13 C 0.25734 0.25068 0.98454 0.0
C14 C 0.28348 0.23845 0.9549 0.0
C15 C 0.22987 0.20223 0.92982 0.0
C16 C 0.14944 0.17817 0.93509 0.0
C17 C 0.12341 0.19104 0.96465 0.0
C18 C 0.06436 0.43081 0.05068 0.0
C19 C 0.26913 0.52368 1.00901 0.0
O20 O 0.17879 0.60867 0.09953 0.0
O21 O 0.30711 0.65768 0.0976 0.0
O22 O 0.26406 0.44081 0.08883 0.0
O23 O 0.35371 0.55674 0.07563 0.0
O24 O 0.15971 0.45508 0.12416 0.0
O25 O 0.12582 0.32941 0.10711 0.0
O26 O 0.19992 0.27601 0.04384 0.0
O27 O 0.09686 0.26769 1.02025 0.0
O28 O 0.137 0.46494 0.04478 0.0
O29 O 0.03861 0.35704 0.0587 0.0
O30 O 0.24972 0.44993 1.01643 0.0
O31 O 0.25563 0.56869 0.02866 0.0
H32 H 0.1285 0.62966 0.15131 0.0
H33 H 0.14069 0.65679 0.20815 0.0
H34 H 0.39533 0.78653 0.19908 0.0
H35 H 0.38386 0.75873 0.1419 0.0
H36 H 0.30029 0.27807 1.00327 0.0
H37 H 0.34591 0.25825 0.95141 0.0
H38 H 0.10701 0.1509 0.91608 0.0
H39 H 0.06114 0.17235 0.9678 0.0
Sm40 Sm 0.67686 0.21781 0.41885 0.0
Sm41 Sm 0.80567 0.1791 0.39419 0.0
C42 C 0.56061 0.21927 0.45074 0.0
C43 C 0.5557 0.22702 0.4851 0.0
C44 C 0.48373 0.18144 0.50122 0.0
C45 C 0.48204 0.18118 0.53439 0.0
C46 C 0.55239 0.22619 0.55147 0.0
C47 C 0.62402 0.27202 0.53537 0.0
C48 C 0.6258 0.27215 0.5024 0.0
C49 C 0.82037 0.34818 0.40878 0.0
C50 C 0.77065 0.15567 0.46927 0.0
C51 C 0.92208 0.18775 0.35739 0.0
C52 C 0.95131 0.21297 0.32403 0.0
C53 C 0.97151 0.28872 0.31249 0.0
C54 C 0.00255 0.31238 0.28165 0.0
C55 C 0.01896 0.26322 0.26131 0.0
C56 C -0.01158 0.18369 0.27202 0.0
C57 C 0.95783 0.16007 0.30295 0.0
C58 C 0.65432 0.05394 0.40067 0.0
C59 C 0.70121 0.22405 0.34474 0.0
O60 O 0.55871 0.15361 0.4418 0.0
O61 O 0.61551 0.28215 0.43608 0.0
O62 O 0.81114 0.28427 0.4211 0.0
O63 O 0.75352 0.34577 0.40334 0.0
O64 O 0.71233 0.17101 0.46326 0.0
O65 O 0.82286 0.16254 0.4472 0.0
O66 O 0.93167 0.24305 0.37789 0.0
O67 O 0.85401 0.12251 0.36103 0.0
O68 O 0.67485 0.1215 0.3901 0.0
O69 O 0.7158 0.04545 0.40613 0.0
O70 O 0.76999 0.22937 0.35165 0.0
O71 O 0.64536 0.20562 0.36631 0.0
H72 H 0.42956 0.14473 0.48823 0.0
H73 H 0.42644 0.14539 0.54675 0.0
H74 H 0.67853 0.30708 0.54837 0.0
H75 H 0.68241 0.30604 0.49044 0.0
H76 H 0.96297 0.33 0.32722 0.0
H77 H 0.01242 0.36979 0.27395 0.0
H78 H -0.01502 0.1372 0.2569 0.0
H79 H 0.93843 0.09953 0.3103 0.0
Sm80 Sm 0.44277 0.64857 0.74888 0.0
Sm81 Sm 0.58813 0.80091 0.72405 0.0
C82 C 0.35703 0.51417 0.77836 0.0
C83 C 0.35088 0.50847 0.81318 0.0
C84 C 0.42033 0.54381 0.83161 0.0
C85 C 0.41716 0.55933 0.86368 0.0
C86 C 0.34397 0.53506 0.87853 0.0
C87 C 0.27404 0.49701 0.86048 0.0
C88 C 0.27753 0.4842 0.82801 0.0
C89 C 0.42504 0.77703 0.75623 0.0
C90 C 0.59754 0.75692 0.79731 0.0
C91 C 0.68498 0.93494 0.69334 0.0
C92 C 0.70043 0.96628 0.66035 0.0
C93 C 0.64299 0.93141 0.63641 0.0
C94 C 0.65838 0.96307 0.60555 0.0
C95 C 0.73188 0.02979 0.59795 0.0
C96 C 0.78962 0.06383 0.62181 0.0
C97 C 0.77393 0.03254 0.65268 0.0
C98 C 0.58273 0.65738 0.71135 0.0
C99 C 0.42607 0.70415 0.67931 0.0
O100 O 0.42666 0.5333 0.76619 0.0
O101 O 0.32544 0.55399 0.76586 0.0
O102 O 0.49101 0.77868 0.75991 0.0
O103 O 0.36595 0.7054 0.75372 0.0
O104 O 0.53266 0.68933 0.79052 0.0
O105 O 0.62998 0.81529 0.77627 0.0
O106 O 0.61808 0.92114 0.70655 0.0
O107 O 0.70349 0.88006 0.69997 0.0
O108 O 0.52807 0.67338 0.70949 0.0
O109 O 0.64661 0.71964 0.72127 0.0
O110 O 0.49109 0.77147 0.6863 0.0
O111 O 0.40298 0.64093 0.69747 0.0
H112 H 0.47771 0.56205 0.82109 0.0
H113 H 0.47183 0.58972 0.87701 0.0
H114 H 0.21682 0.47787 0.87152 0.0
H115 H 0.22339 0.45814 0.81427 0.0
H116 H 0.58629 0.87978 0.64157 0.0
H117 H 0.61291 0.93561 0.5876 0.0
H118 H 0.84671 0.11508 0.61655 0.0
H119 H 0.81929 0.06035 0.67065 0.0
Sm120 Sm 0.76175 0.48306 0.0978 0.0
Sm121 Sm 0.78071 0.64201 0.0631 0.0
C122 C 0.78956 0.37347 0.12108 0.0
C123 C 0.76287 0.32771 0.15055 0.0
C124 C 0.81942 0.33696 0.17324 0.0
C125 C 0.79562 0.30954 0.20401 0.0
C126 C 0.71505 0.27173 0.21218 0.0
C127 C 0.65785 0.25668 0.18906 0.0
C128 C 0.68165 0.28523 0.15838 0.0
C129 C 0.62828 0.49406 0.10879 0.0
C130 C 0.83458 0.65676 0.13705 0.0
C131 C 0.74723 0.7342 1.02708 0.0
C132 C 0.72932 0.73993 0.99301 0.0
C133 C 0.65741 0.73661 0.98478 0.0
C134 C 0.63975 0.74288 0.95296 0.0
C135 C 0.69372 0.7529 0.92859 0.0
C136 C 0.76551 0.75602 0.93671 0.0
C137 C 0.78313 0.74957 0.96851 0.0
C138 C 0.90649 0.61306 0.06056 0.0
C139 C 0.71622 0.47389 1.02215 0.0
O140 O 0.83775 0.44979 0.12509 0.0
O141 O 0.735 0.35781 0.09964 0.0
O142 O 0.69 0.54324 0.09402 0.0
O143 O 0.63814 0.43731 0.1202 0.0
O144 O 0.82983 0.58595 0.13404 0.0
O145 O 0.81035 0.68829 0.11472 0.0
O146 O 0.69335 0.67366 0.04328 0.0
O147 O 0.8198 0.7517 0.03441 0.0
O148 O 0.83442 0.5641 0.05943 0.0
O149 O 0.91769 0.68543 0.0603 0.0
O150 O 0.7333 0.54906 1.02302 0.0
O151 O 0.72349 0.43637 0.04699 0.0
H152 H 0.88216 0.36928 0.1677 0.0
H153 H 0.8401 0.32007 0.22172 0.0
H154 H 0.59538 0.22639 0.19518 0.0
H155 H 0.63668 0.27741 0.14137 0.0
H156 H 0.61467 0.72911 1.00302 0.0
H157 H 0.5837 0.73953 0.94733 0.0
H158 H 0.80784 0.76311 0.91834 0.0
H159 H 0.8389 0.75203 0.97384 0.0
Sm160 Sm 0.26703 0.75345 0.41625 0.0
Sm161 Sm 0.16528 0.82399 0.39226 0.0
C162 C 0.36953 0.72574 0.44645 0.0
C163 C 0.37203 0.70787 0.48003 0.0
C164 C 0.44482 0.74067 0.49589 0.0
C165 C 0.44643 0.73364 0.52883 0.0
C166 C 0.3752 0.69376 0.54604 0.0
C167 C 0.30256 0.65919 0.5301 0.0
C168 C 0.30094 0.66642 0.4973 0.0
C169 C 0.11226 0.64313 0.40708 0.0
C170 C 0.19742 0.84105 0.46717 0.0
C171 C 0.06261 0.84422 0.35735 0.0
C172 C 0.02859 0.82052 0.32469 0.0
C173 C 0.96822 0.7424 0.31795 0.0
C174 C 0.9377 0.72034 0.28713 0.0
C175 C 0.9654 0.77616 0.26232 0.0
C176 C 0.0245 0.85462 0.2691 0.0
C177 C 0.05593 0.87639 0.29981 0.0
C178 C 0.32628 0.92519 0.39723 0.0
C179 C 0.2431 0.7506 0.3419 0.0
O180 O 0.382 0.79756 0.44093 0.0
O181 O 0.31036 0.67104 0.43011 0.0
O182 O 0.13508 0.71092 0.41943 0.0
O183 O 0.17086 0.63042 0.40155 0.0
O184 O 0.24767 0.81446 0.46099 0.0
O185 O 0.14998 0.84273 0.44508 0.0
O186 O 0.04114 0.78792 0.3786 0.0
O187 O 0.13778 0.89754 0.3595 0.0
O188 O 0.29159 0.85627 0.38667 0.0
O189 O 0.27557 0.9484 0.4047 0.0
O190 O 0.17991 0.75579 0.3498 0.0
O191 O 0.2972 0.76154 0.36322 0.0
H192 H 0.50005 0.77416 0.48298 0.0
H193 H 0.50288 0.76141 0.54101 0.0
H194 H 0.24722 0.62915 0.5432 0.0
H195 H 0.24404 0.64218 0.48561 0.0
H196 H 0.94424 0.69807 0.33649 0.0
H197 H 0.89194 0.65961 0.28266 0.0
H198 H 0.04665 0.899 0.2505 0.0
H199 H 0.10169 0.93721 0.30411 0.0
Sm200 Sm 0.51741 0.23789 0.76024 0.0
Sm201 Sm 0.35343 0.16231 0.72819 0.0
C202 C 0.64725 0.31898 0.79393 0.0
C203 C 0.66066 0.33475 0.82801 0.0
C204 C 0.70011 0.41366 0.83881 0.0
C205 C 0.7063 0.42975 0.87125 0.0
C206 C 0.67354 0.36701 0.89306 0.0
C207 C 0.63534 0.28816 0.88245 0.0
C208 C 0.62851 0.27199 0.85005 0.0
C209 C 0.44951 0.07883 0.75054 0.0
C210 C 0.35383 0.18895 0.80404 0.0
C211 C 0.23523 0.07228 0.68865 0.0
C212 C 0.22858 0.03656 0.65654 0.0
C213 C 0.2943 0.03792 0.64146 0.0
C214 C 0.2874 0.00442 0.61122 0.0
C215 C 0.21463 0.96922 0.59515 0.0
C216 C 0.14882 0.96791 0.61003 0.0
C217 C 0.15573 0.0011 0.64043 0.0
C218 C 0.43117 0.32572 0.73367 0.0
C219 C 0.51646 0.21652 0.6858 0.0
O220 O 0.61087 0.35211 0.78001 0.0
O221 O 0.62178 0.24565 0.78473 0.0
O222 O 0.41244 0.11342 0.76017 0.0
O223 O 0.52453 0.12781 0.74695 0.0
O224 O 0.43242 0.22973 0.80146 0.0
O225 O 0.30749 0.15152 0.77954 0.0
O226 O 0.25779 0.04346 0.7119 0.0
O227 O 0.26824 0.14972 0.69012 0.0
O228 O 0.46149 0.28354 0.72654 0.0
O229 O 0.35429 0.28194 0.73593 0.0
O230 O 0.4406 0.16591 0.68996 0.0
O231 O 0.56103 0.26197 0.70901 0.0
H232 H 0.72439 0.4627 0.82216 0.0
H233 H 0.73587 0.49094 0.87936 0.0
H234 H 0.60981 0.23945 0.89924 0.0
H235 H 0.59672 0.21054 0.84234 0.0
H236 H 0.3513 0.06498 0.65281 0.0
H237 H 0.33913 0.00666 0.60021 0.0
H238 H 0.09215 0.94138 0.59805 0.0
H239 H 0.10412 -0.00067 0.65133 0.0
C240 C 0.27034 0.68566 0.29559 0.0
C241 C 0.25911 0.74783 0.30784 0.0
C242 C 0.26201 0.79748 0.25417 0.0
C243 C 0.27451 0.73615 0.24204 0.0
N244 N 0.3064 0.63179 0.2504 0.0
N245 N 0.26004 0.87233 0.29986 0.0
C246 C 0.28415 0.6836 0.26256 0.0
C247 C 0.25961 0.80659 0.28743 0.0
N248 N 0.26283 0.626 0.31514 0.0
N249 N 0.25049 0.84577 0.23378 0.0
H250 H 0.25768 0.88159 0.32408 0.0
H251 H 0.26949 0.92138 0.28647 0.0
H252 H 0.25674 0.84418 0.20923 0.0
H253 H 0.23031 0.88438 0.24088 0.0
H254 H 0.26104 0.57419 0.307 0.0
H255 H 0.25205 0.6251 0.33944 0.0
H256 H 0.32251 0.5978 0.26438 0.0
H257 H 0.3144 0.62685 0.22617 0.0
C258 C 0.5415 0.16008 0.63691 0.0
C259 C 0.54637 0.22695 0.65303 0.0
C260 C 0.55616 0.29326 0.6026 0.0
C261 C 0.5516 0.22663 0.58645 0.0
N262 N 0.55209 0.10208 0.58713 0.0
N263 N 0.57478 0.3636 0.65224 0.0
C264 C 0.54812 0.16159 0.60331 0.0
C265 C 0.5598 0.29594 0.63619 0.0
N266 N 0.52855 0.09457 0.6539 0.0
N267 N 0.55241 0.35182 0.58582 0.0
H268 H 0.57583 0.36786 0.67686 0.0
H269 H 0.59303 0.4181 0.64127 0.0
H270 H 0.54961 0.35206 0.56112 0.0
H271 H 0.5455 0.39694 0.59627 0.0
H272 H 0.51452 0.04004 0.64378 0.0
H273 H 0.52952 0.09419 0.67866 0.0
H274 H 0.55683 0.05635 0.59797 0.0
H275 H 0.55638 0.10122 0.56246 0.0
C276 C 0.36561 0.53518 0.96824 0.0
C277 C 0.30631 0.55327 0.97766 0.0
C278 C 0.29867 0.58996 0.92298 0.0
C279 C 0.33981 0.54988 0.91289 0.0
N280 N 0.40643 0.47595 0.92736 0.0
N281 N 0.21511 0.59971 0.96343 0.0
C282 C 0.3731 0.52131 0.93584 0.0
C283 C 0.27332 0.58276 0.95504 0.0
N284 N 0.41442 0.53102 0.9904 0.0
N285 N 0.28485 0.63555 0.90207 0.0
H286 H 0.19599 0.59775 0.98667 0.0
H287 H 0.18264 0.61158 0.94684 0.0
H288 H 0.30554 0.64444 0.8787 0.0
H289 H 0.26091 0.67125 0.90889 0.0
H290 H 0.46299 0.52418 0.98442 0.0
H291 H 0.41149 0.54428 1.01424 0.0
H292 H 0.42303 0.44729 0.94404 0.0
H293 H 0.40989 0.45971 0.90408 0.0
C294 C 0.68441 0.16813 0.29065 0.0
C295 C 0.68454 0.22683 0.31105 0.0
C296 C 0.68085 0.30254 0.26553 0.0
C297 C 0.69185 0.24958 0.24543 0.0
N298 N 0.70154 0.13127 0.23732 0.0
N299 N 0.68329 0.34957 0.31926 0.0
C300 C 0.6915 0.1813 0.25753 0.0
C301 C 0.68103 0.29316 0.29891 0.0
N302 N 0.67781 0.10001 0.30321 0.0
N303 N 0.67163 0.36229 0.25263 0.0
H304 H 0.68142 0.3433 0.34386 0.0
H305 H 0.69088 0.40434 0.31208 0.0
H306 H 0.6744 0.37282 0.22829 0.0
H307 H 0.65585 0.39825 0.26566 0.0
H308 H 0.66934 0.05107 0.28985 0.0
H309 H 0.67556 0.09014 0.32754 0.0
H310 H 0.71225 0.08613 0.24468 0.0
H311 H 0.70218 0.13679 0.21268 0.0
C312 C 0.40324 0.76804 0.63096 0.0
C313 C 0.38848 0.69787 0.64765 0.0
C314 C 0.35649 0.6236 0.59788 0.0
C315 C 0.37609 0.69419 0.58108 0.0
N316 N 0.39301 0.82645 0.58151 0.0
N317 N 0.30743 0.55433 0.64743 0.0
C318 C 0.3916 0.76438 0.5976 0.0
C319 C 0.35152 0.62388 0.63138 0.0
N320 N 0.42835 0.8381 0.64684 0.0
N321 N 0.3442 0.5567 0.58201 0.0
H322 H 0.29084 0.55289 0.67108 0.0
H323 H 0.27624 0.49946 0.63612 0.0
H324 H 0.34694 0.55397 0.55732 0.0
H325 H 0.33801 0.50636 0.59359 0.0
H326 H 0.45162 0.89311 0.63569 0.0
H327 H 0.4276 0.84173 0.67145 0.0
H328 H 0.39562 0.87597 0.59249 0.0
H329 H 0.38458 0.82555 0.55703 0.0
C330 C 0.75115 0.4112 0.97723 0.0
C331 C 0.69842 0.43487 0.99079 0.0
C332 C 0.62113 0.39868 0.9417 0.0
C333 C 0.679 0.38444 0.92724 0.0
N334 N 0.80204 0.38222 0.92928 0.0
N335 N 0.58754 0.45855 0.98519 0.0
C336 C 0.74435 0.39114 0.94455 0.0
C337 C 0.63431 0.43027 0.97287 0.0
N338 N 0.80874 0.40924 0.99519 0.0
N339 N 0.55315 0.38106 0.9257 0.0
H340 H 0.59232 0.47907 1.00839 0.0
H341 H 0.54719 0.4666 0.97175 0.0
H342 H 0.54243 0.35968 0.90244 0.0
H343 H 0.50443 0.38097 0.93627 0.0
H344 H 0.84125 0.38237 0.98775 0.0
H345 H 0.82222 0.43049 1.0183 0.0
H346 H 0.85659 0.39702 0.9393 0.0
H347 H 0.79784 0.36487 0.90557 0.0
C348 C 0.43836 0.5022 0.12131 0.0
C349 C 0.39984 0.46893 0.0921 0.0
C350 C 0.50409 0.4388 0.07732 0.0
C351 C 0.54838 0.48302 0.10397 0.0
N352 N 0.54685 0.52886 0.15695 0.0
N353 N 0.39462 0.40624 0.04203 0.0
C354 C 0.51237 0.50668 0.12775 0.0
C355 C 0.4316 0.43612 0.07029 0.0
N356 N 0.4053 0.53207 0.1422 0.0
N357 N 0.52882 0.3952 0.05987 0.0
H358 H 0.33916 0.39937 0.03687 0.0
H359 H 0.42106 0.39318 1.02308 0.0
H360 H 0.58084 0.39402 0.06465 0.0
H361 H 0.4943 0.35428 0.04256 0.0
H362 H 0.4343 0.56597 0.16204 0.0
H363 H 0.34881 0.52503 0.13907 0.0
H364 H 0.52137 0.54145 0.17632 0.0
H365 H 0.59816 0.52707 0.16274 0.0
C366 C -0.01402 0.54725 0.38148 0.0
C367 C 0.03131 0.57552 0.40949 0.0
C368 C 0.93261 0.45885 0.43827 0.0
C369 C 0.89461 0.42483 0.40911 0.0
N370 N 0.88793 0.43403 0.35218 0.0
N371 N 0.05357 0.55488 0.46408 0.0
C372 C 0.92199 0.46839 0.38046 0.0
C373 C 0.00628 0.53046 0.43784 0.0
N374 N 0.00279 0.59677 0.35614 0.0
N375 N 0.89616 0.42562 0.46637 0.0
H376 H 0.107 0.60833 0.46494 0.0
H377 H 0.04226 0.51953 0.48416 0.0
H378 H 0.83924 0.37675 0.46747 0.0
H379 H 0.91815 0.45192 0.48836 0.0
H380 H 0.96853 0.5818 0.33568 0.0
H381 H 0.04552 0.65646 0.35735 0.0
H382 H 0.91161 0.45921 0.3302 0.0
H383 H 0.83915 0.37729 0.35048 0.0
C384 C 0.44593 0.97266 0.78432 0.0
C385 C 0.4221 -0.00534 0.75614 0.0
C386 C 0.37268 0.86186 0.73445 0.0
C387 C 0.41334 0.84637 0.75889 0.0
N388 N 0.47107 0.87597 0.81103 0.0
N389 N 0.36586 0.96309 0.70376 0.0
C390 C 0.44456 0.8985 0.78521 0.0
C391 C 0.3847 0.93959 0.73133 0.0
N392 N 0.47025 0.02329 0.80978 0.0
N393 N 0.32268 0.80328 0.71419 0.0
H394 H 0.37315 0.01965 0.7009 0.0
H395 H 0.34866 0.92873 0.68316 0.0
H396 H 0.31399 0.74579 0.71392 0.0
H397 H 0.28494 0.81049 0.69871 0.0
H398 H 0.4861 0.01084 0.83165 0.0
H399 H 0.47015 0.07724 0.80965 0.0
H400 H 0.49969 0.91258 0.83027 0.0
H401 H 0.46366 0.81896 0.81339 0.0
C402 C 0.58799 0.54254 0.73557 0.0
C403 C 0.56514 0.57351 0.71013 0.0
C404 C 0.46292 0.43784 0.69593 0.0
C405 C 0.47328 0.41144 0.72602 0.0
N406 N 0.53947 0.44326 0.77661 0.0
N407 N 0.48799 0.55025 0.6627 0.0
C408 C 0.53467 0.46484 0.74633 0.0
C409 C 0.50505 0.52064 0.68906 0.0
N410 N 0.66116 0.58572 0.74871 0.0
N411 N 0.41505 0.38401 0.67372 0.0
H412 H 0.52309 0.60931 0.65559 0.0
H413 H 0.43854 0.51725 0.64851 0.0
H414 H 0.38313 0.32298 0.67792 0.0
H415 H 0.41173 0.399 0.6503 0.0
H416 H 0.68248 0.56231 0.76587 0.0
H417 H 0.70313 0.64093 0.73976 0.0
H418 H 0.57914 0.48301 0.79316 0.0
H419 H 0.49953 0.38755 0.78574 0.0
C420 C 0.00106 0.49426 0.08233 0.0
C421 C 0.02009 0.47516 0.05228 0.0
C422 C 0.98001 0.56424 1.02688 0.0
C423 C 0.96598 0.58655 0.05728 0.0
N424 N -0.01605 0.59045 0.11343 0.0
N425 N 0.03404 0.4958 0.99569 0.0
C426 C -0.01621 0.55734 0.08482 0.0
C427 C 0.01211 0.51195 1.02444 0.0
N428 N -0.00242 0.45106 0.1084 0.0
N429 N 0.95929 0.59048 1.00048 0.0
H430 H 0.05227 0.45354 0.9928 0.0
H431 H 0.03721 0.5262 0.97493 0.0
H432 H 0.9396 0.63192 1.00173 0.0
H433 H 0.95836 0.56915 0.97767 0.0
H434 H 0.97856 0.45884 0.13057 0.0
H435 H 0.0053 0.40155 0.10721 0.0
H436 H -0.00064 0.57476 0.13473 0.0
H437 H 0.97445 0.63874 0.11503 0.0
C438 C 0.4555 0.97139 0.37196 0.0
C439 C 0.41351 0.96813 0.39999 0.0
C440 C 0.52918 -0.00867 0.4316 0.0
C441 C 0.56967 -0.0057 0.40316 0.0
N442 N 0.56186 0.95637 0.34878 0.0
N443 N 0.40809 0.97371 0.4569 0.0
C444 C 0.52907 0.97357 0.37417 0.0
C445 C 0.44966 0.97749 0.4301 0.0
N446 N 0.42611 0.97598 0.34319 0.0
N447 N 0.5683 0.00381 0.45966 0.0
H448 H 0.35324 0.97125 0.45591 0.0
H449 H 0.4276 0.97414 0.47987 0.0
H450 H 0.62401 0.008 0.46057 0.0
H451 H 0.54638 0.00906 0.48159 0.0
H452 H 0.45665 0.98376 0.32188 0.0
H453 H 0.37578 0.98218 0.34144 0.0
H454 H 0.53247 0.93493 0.3273 0.0
H455 H 0.61573 0.95662 0.35073 0.0
C456 C 0.28487 0.12119 0.85556 0.0
C457 C 0.31721 0.18927 0.83553 0.0
C458 C 0.28585 0.26172 0.87625 0.0
C459 C 0.25911 0.19634 0.89725 0.0
N460 N 0.23753 0.06516 0.90825 0.0
N461 N 0.35466 0.32657 0.82777 0.0
C462 C 0.25953 0.12616 0.8872 0.0
C463 C 0.31939 0.26001 0.84623 0.0
N464 N 0.27832 0.05181 0.84423 0.0
N465 N 0.27565 0.32452 0.88435 0.0
H466 H 0.37068 0.32579 0.80419 0.0
H467 H 0.37204 0.38314 0.83653 0.0
H468 H 0.2535 0.33006 0.90626 0.0
H469 H 0.2832 0.36794 0.8682 0.0
H470 H 0.24864 -0.00234 0.85605 0.0
H471 H 0.29897 0.04722 0.82184 0.0
H472 H 0.24326 0.01519 0.90396 0.0
H473 H 0.21737 0.06662 0.93112 0.0
C474 C 0.09567 0.37545 0.22043 0.0
C475 C 0.05956 0.29367 0.2285 0.0
C476 C 0.06328 0.26466 0.17147 0.0
C477 C 0.0921 0.34593 0.16299 0.0
N478 N 0.10259 0.46985 0.18219 0.0
N479 N 0.07455 0.18255 0.21135 0.0
C480 C 0.09939 0.39905 0.18821 0.0
C481 C 0.06043 0.24301 0.20404 0.0
N482 N 0.13636 0.43184 0.24292 0.0
N483 N 0.03312 0.20604 0.14908 0.0
H484 H 0.09557 0.17894 0.23367 0.0
H485 H 0.08104 0.14733 0.19406 0.0
H486 H 0.02042 0.21546 0.12606 0.0
H487 H 0.00814 0.14604 0.15501 0.0
H488 H 0.16921 0.49227 0.23761 0.0
H489 H 0.14632 0.41681 0.26554 0.0
H490 H 0.10165 0.50622 0.20035 0.0
H491 H 0.09179 0.48553 0.16002 0.0
C492 C 0.75302 0.13911 0.55955 0.0
C493 C 0.74832 0.06448 0.5651 0.0
C494 C 0.76594 0.05156 0.50774 0.0
C495 C 0.77378 0.12786 0.50232 0.0
N496 N 0.79487 0.25179 0.52437 0.0
N497 N 0.76764 0.95789 0.5456 0.0
C498 C 0.77319 0.17373 0.52869 0.0
C499 C 0.76004 0.02323 0.53949 0.0
N500 N 0.7355 0.17591 0.58352 0.0
N501 N 0.76006 0.00404 0.48263 0.0
H502 H 0.76351 0.93536 0.5684 0.0
H503 H 0.78505 0.93031 0.52856 0.0
H504 H 0.76608 0.02246 0.45915 0.0
H505 H 0.74355 0.94422 0.48495 0.0
H506 H 0.72927 0.22589 0.58013 0.0
H507 H 0.72012 0.15259 0.60637 0.0
H508 H 0.80383 0.2911 0.54291 0.0
H509 H 0.81245 0.27925 0.50234 0.0
C510 C 0.64958 0.82773 0.85079 0.0
C511 C 0.63327 0.76354 0.82976 0.0
C512 C 0.65353 0.69191 0.87396 0.0
C513 C 0.67401 0.75747 0.89446 0.0
N514 N 0.70649 0.8941 0.90087 0.0
N515 N 0.64293 0.64574 0.81995 0.0
C516 C 0.67655 0.82733 0.88237 0.0
C517 C 0.64208 0.69899 0.84104 0.0
N518 N 0.63605 0.88744 0.84129 0.0
N519 N 0.64198 0.6214 0.88605 0.0
H520 H 0.6374 0.65082 0.79567 0.0
H521 H 0.65785 0.60265 0.82613 0.0
H522 H 0.64936 0.61338 0.91001 0.0
H523 H 0.61798 0.5689 0.87289 0.0
H524 H 0.63703 0.9302 0.85669 0.0
H525 H 0.61842 0.89148 0.81843 0.0
H526 H 0.71825 0.94945 0.89244 0.0
H527 H 0.72599 0.89574 0.92402 0.0
C528 C 0.85105 0.72788 0.22332 0.0
C529 C 0.9322 0.75248 0.22934 0.0
C530 C 0.95141 0.73953 0.17232 0.0
C531 C 0.8685 0.70128 0.16742 0.0
N532 N 0.73825 0.66106 0.18786 0.0
N533 N 0.05726 0.77045 0.20957 0.0
C534 C 0.81799 0.69638 0.19284 0.0
C535 C -0.01807 0.7557 0.20377 0.0
N536 N 0.8064 0.7374 0.24632 0.0
N537 N 0.00128 0.76381 0.14676 0.0
H538 H 0.08095 0.77944 0.23234 0.0
H539 H 0.09317 0.76585 0.19214 0.0
H540 H -0.01987 0.75796 0.12362 0.0
H541 H 0.06274 0.79775 0.14872 0.0
H542 H 0.74926 0.7277 0.24257 0.0
H543 H 0.82902 0.76195 0.26851 0.0
H544 H 0.6966 0.64586 0.20601 0.0
H545 H 0.71388 0.64468 0.16526 0.0
C546 C 0.18534 0.85411 0.55825 0.0
C547 C 0.20809 0.9356 0.56238 0.0
C548 C 0.2161 0.95342 0.50427 0.0
C549 C 0.19747 0.87271 0.49997 0.0
N550 N 0.16835 0.74698 0.52297 0.0
N551 N 0.25475 0.0656 0.54007 0.0
C552 C 0.1835 0.82344 0.52706 0.0
C553 C 0.22578 0.98583 0.53556 0.0
N554 N 0.16364 0.80558 0.58425 0.0
N555 N 0.22456 -0.00037 0.47847 0.0
H556 H 0.26002 0.09114 0.56241 0.0
H557 H 0.27908 0.10775 0.52209 0.0
H558 H 0.22462 0.98168 0.45521 0.0
H559 H 0.22718 0.05464 0.47984 0.0
H560 H 0.13823 0.74404 0.58313 0.0
H561 H 0.16676 0.82644 0.60736 0.0
H562 H 0.16834 0.71104 0.54127 0.0
H563 H 0.15835 0.71966 0.50083 0.0
loop_
_geom_bond_atom_site_label_1
_geom_bond_atom_site_label_2
_geom_bond_distance
_geom_bond_site_symmetry_2
_ccdc_geom_bond_type
Sm0 C2 2.846 . S
Sm0 O20 2.543 . S
Sm0 O21 2.450 . S
Sm0 O22 2.681 . S
Sm0 O23 2.464 . S
Sm0 O24 2.396 . S
Sm0 O28 2.386 . S
Sm0 O31 2.408 . S
Sm1 C11 2.846 1_554 S
Sm1 O22 2.386 . S
Sm1 O25 2.408 . S
Sm1 O26 2.543 1_554 S
Sm1 O27 2.450 1_554 S
Sm1 O28 2.681 . S
Sm1 O29 2.464 . S
Sm1 O30 2.396 1_554 S
C2 Sm0 2.846 . S
C2 C3 1.506 . S
C2 O20 1.261 . S
C2 O21 1.242 . S
C3 C2 1.506 . S
C3 C4 1.358 . S
C3 C8 1.382 . S
C4 C3 1.358 . S
C4 C5 1.385 . S
C4 H32 0.930 . S
C5 C4 1.385 . S
C5 C6 1.395 . S
C5 H33 0.929 . S
C6 C5 1.395 . S
C6 C7 1.335 . S
C7 C6 1.335 . S
C7 C8 1.398 . S
C7 H34 0.930 . S
C8 C3 1.382 . S
C8 C7 1.398 . S
C8 H35 0.929 . S
C9 O22 1.271 . S
C9 O23 1.251 . S
C10 O24 1.252 . S
C10 O25 1.272 . S
C11 Sm1 2.846 1_556 S
C11 C12 1.506 . S
C11 O26 1.261 . S
C11 O27 1.242 . S
C12 C11 1.506 . S
C12 C13 1.358 . S
C12 C17 1.382 . S
C13 C12 1.358 . S
C13 C14 1.385 . S
C13 H36 0.930 . S
C14 C13 1.385 . S
C14 C15 1.395 . S
C14 H37 0.929 . S
C15 C14 1.395 . S
C15 C16 1.335 . S
C16 C15 1.335 . S
C16 C17 1.398 . S
C16 H38 0.930 . S
C17 C12 1.382 . S
C17 C16 1.398 . S
C17 H39 0.929 . S
C18 O28 1.271 . S
C18 O29 1.251 . S
C19 O30 1.252 . S
C19 O31 1.272 1_556 S
O20 Sm0 2.543 . S
O20 C2 1.261 . S
O21 Sm0 2.450 . S
O21 C2 1.242 . S
O22 Sm0 2.681 . S
O22 Sm1 2.386 . S
O22 C9 1.271 . S
O23 Sm0 2.464 . S
O23 C9 1.251 . S
O24 Sm0 2.396 . S
O24 C10 1.252 . S
O25 Sm1 2.408 . S
O25 C10 1.272 . S
O26 Sm1 2.543 1_556 S
O26 C11 1.261 . S
O27 Sm1 2.450 1_556 S
O27 C11 1.242 . S
O28 Sm0 2.386 . S
O28 Sm1 2.681 . S
O28 C18 1.271 . S
O29 Sm1 2.464 . S
O29 C18 1.251 . S
O30 Sm1 2.396 1_556 S
O30 C19 1.252 . S
O31 Sm0 2.408 . S
O31 C19 1.272 1_554 S
H32 C4 0.930 . S
H33 C5 0.929 . S
H34 C7 0.930 . S
H35 C8 0.929 . S
H36 C13 0.930 . S
H37 C14 0.929 . S
H38 C16 0.930 . S
H39 C17 0.929 . S
Sm40 C42 2.846 . S
Sm40 O60 2.543 . S
Sm40 O61 2.450 . S
Sm40 O62 2.681 . S
Sm40 O63 2.464 . S
Sm40 O64 2.396 . S
Sm40 O68 2.386 . S
Sm40 O71 2.408 . S
Sm41 C51 2.846 . S
Sm41 O62 2.386 . S
Sm41 O65 2.408 . S
Sm41 O66 2.543 . S
Sm41 O67 2.450 . S
Sm41 O68 2.681 . S
Sm41 O69 2.464 . S
Sm41 O70 2.396 . S
C42 Sm40 2.846 . S
C42 C43 1.506 . S
C42 O60 1.261 . S
C42 O61 1.242 . S
C43 C42 1.506 . S
C43 C44 1.358 . S
C43 C48 1.382 . S
C44 C43 1.358 . S
C44 C45 1.385 . S
C44 H72 0.930 . S
C45 C44 1.385 . S
C45 C46 1.395 . S
C45 H73 0.929 . S
C46 C45 1.395 . S
C46 C47 1.335 . S
C47 C46 1.335 . S
C47 C48 1.398 . S
C47 H74 0.930 . S
C48 C43 1.382 . S
C48 C47 1.398 . S
C48 H75 0.929 . S
C49 O62 1.271 . S
C49 O63 1.251 . S
C50 O64 1.252 . S
C50 O65 1.272 . S
C51 Sm41 2.846 . S
C51 C52 1.506 . S
C51 O66 1.261 . S
C51 O67 1.242 . S
C52 C51 1.506 . S
C52 C53 1.358 1_655 S
C52 C57 1.382 . S
C53 C52 1.358 1_455 S
C53 C54 1.385 . S
C53 H76 0.930 . S
C54 C53 1.385 . S
C54 C55 1.395 . S
C54 H77 0.929 . S
C55 C54 1.395 . S
C55 C56 1.335 1_455 S
C56 C55 1.335 1_655 S
C56 C57 1.398 . S
C56 H78 0.930 . S
C57 C52 1.382 . S
C57 C56 1.398 . S
C57 H79 0.929 . S
C58 O68 1.271 . S
C58 O69 1.251 . S
C59 O70 1.252 . S
C59 O71 1.272 . S
O60 Sm40 2.543 . S
O60 C42 1.261 . S
O61 Sm40 2.450 . S
O61 C42 1.242 . S
O62 Sm40 2.681 . S
O62 Sm41 2.386 . S
O62 C49 1.271 . S
O63 Sm40 2.464 . S
O63 C49 1.251 . S
O64 Sm40 2.396 . S
O64 C50 1.252 . S
O65 Sm41 2.408 . S
O65 C50 1.272 . S
O66 Sm41 2.543 . S
O66 C51 1.261 . S
O67 Sm41 2.450 . S
O67 C51 1.242 . S
O68 Sm40 2.386 . S
O68 Sm41 2.681 . S
O68 C58 1.271 . S
O69 Sm41 2.464 . S
O69 C58 1.251 . S
O70 Sm41 2.396 . S
O70 C59 1.252 . S
O71 Sm40 2.408 . S
O71 C59 1.272 . S
H72 C44 0.930 . S
H73 C45 0.929 . S
H74 C47 0.930 . S
H75 C48 0.929 . S
H76 C53 0.930 . S
H77 C54 0.929 . S
H78 C56 0.930 . S
H79 C57 0.929 . S
Sm80 C82 2.846 . S
Sm80 O100 2.543 . S
Sm80 O101 2.450 . S
Sm80 O102 2.681 . S
Sm80 O103 2.464 . S
Sm80 O104 2.396 . S
Sm80 O108 2.386 . S
Sm80 O111 2.408 . S
Sm81 C91 2.846 . S
Sm81 O102 2.386 . S
Sm81 O105 2.408 . S
Sm81 O106 2.543 . S
Sm81 O107 2.450 . S
Sm81 O108 2.681 . S
Sm81 O109 2.464 . S
Sm81 O110 2.396 . S
C82 Sm80 2.846 . S
C82 C83 1.506 . S
C82 O100 1.261 . S
C82 O101 1.242 . S
C83 C82 1.506 . S
C83 C84 1.358 . S
C83 C88 1.382 . S
C84 C83 1.358 . S
C84 C85 1.385 . S
C84 H112 0.930 . S
C85 C84 1.385 . S
C85 C86 1.395 . S
C85 H113 0.929 . S
C86 C85 1.395 . S
C86 C87 1.335 . S
C87 C86 1.335 . S
C87 C88 1.398 . S
C87 H114 0.930 . S
C88 C83 1.382 . S
C88 C87 1.398 . S
C88 H115 0.929 . S
C89 O102 1.271 . S
C89 O103 1.251 . S
C90 O104 1.252 . S
C90 O105 1.272 . S
C91 Sm81 2.846 . S
C91 C92 1.506 . S
C91 O106 1.261 . S
C91 O107 1.242 . S
C92 C91 1.506 . S
C92 C93 1.358 1_565 S
C92 C97 1.382 . S
C93 C92 1.358 1_545 S
C93 C94 1.385 . S
C93 H116 0.930 . S
C94 C93 1.385 . S
C94 C95 1.395 . S
C94 H117 0.929 . S
C95 C94 1.395 . S
C95 C96 1.335 1_545 S
C96 C95 1.335 1_565 S
C96 C97 1.398 . S
C96 H118 0.930 . S
C97 C92 1.382 . S
C97 C96 1.398 . S
C97 H119 0.929 . S
C98 O108 1.271 . S
C98 O109 1.251 . S
C99 O110 1.252 . S
C99 O111 1.272 . S
O100 Sm80 2.543 . S
O100 C82 1.261 . S
O101 Sm80 2.450 . S
O101 C82 1.242 . S
O102 Sm80 2.681 . S
O102 Sm81 2.386 . S
O102 C89 1.271 . S
O103 Sm80 2.464 . S
O103 C89 1.251 . S
O104 Sm80 2.396 . S
O104 C90 1.252 . S
O105 Sm81 2.408 . S
O105 C90 1.272 . S
O106 Sm81 2.543 . S
O106 C91 1.261 . S
O107 Sm81 2.450 . S
O107 C91 1.242 . S
O108 Sm80 2.386 . S
O108 Sm81 2.681 . S
O108 C98 1.271 . S
O109 Sm81 2.464 . S
O109 C98 1.251 . S
O110 Sm81 2.396 . S
O110 C99 1.252 . S
O111 Sm80 2.408 . S
O111 C99 1.272 . S
H112 C84 0.930 . S
H113 C85 0.929 . S
H114 C87 0.930 . S
H115 C88 0.929 . S
H116 C93 0.930 . S
H117 C94 0.929 . S
H118 C96 0.930 . S
H119 C97 0.929 . S
Sm120 C122 2.846 . S
Sm120 O140 2.543 . S
Sm120 O141 2.450 . S
Sm120 O142 2.681 . S
Sm120 O143 2.464 . S
Sm120 O144 2.396 . S
Sm120 O148 2.386 . S
Sm120 O151 2.408 . S
Sm121 C131 2.846 1_554 S
Sm121 O142 2.386 . S
Sm121 O145 2.408 . S
Sm121 O146 2.543 1_554 S
Sm121 O147 2.450 1_554 S
Sm121 O148 2.681 . S
Sm121 O149 2.464 . S
Sm121 O150 2.396 1_554 S
C122 Sm120 2.846 . S
C122 C123 1.506 . S
C122 O140 1.261 . S
C122 O141 1.242 . S
C123 C122 1.506 . S
C123 C124 1.358 . S
C123 C128 1.382 . S
C124 C123 1.358 . S
C124 C125 1.385 . S
C124 H152 0.930 . S
C125 C124 1.385 . S
C125 C126 1.395 . S
C125 H153 0.929 . S
C126 C125 1.395 . S
C126 C127 1.335 . S
C127 C126 1.335 . S
C127 C128 1.398 . S
C127 H154 0.930 . S
C128 C123 1.382 . S
C128 C127 1.398 . S
C128 H155 0.929 . S
C129 O142 1.271 . S
C129 O143 1.251 . S
C130 O144 1.252 . S
C130 O145 1.272 . S
C131 Sm121 2.846 1_556 S
C131 C132 1.506 . S
C131 O146 1.261 . S
C131 O147 1.242 . S
C132 C131 1.506 . S
C132 C133 1.358 . S
C132 C137 1.382 . S
C133 C132 1.358 . S
C133 C134 1.385 . S
C133 H156 0.930 . S
C134 C133 1.385 . S
C134 C135 1.395 . S
C134 H157 0.929 . S
C135 C134 1.395 . S
C135 C136 1.335 . S
C136 C135 1.335 . S
C136 C137 1.398 . S
C136 H158 0.930 . S
C137 C132 1.382 . S
C137 C136 1.398 . S
C137 H159 0.929 . S
C138 O148 1.271 . S
C138 O149 1.251 . S
C139 O150 1.252 . S
C139 O151 1.272 1_556 S
O140 Sm120 2.543 . S
O140 C122 1.261 . S
O141 Sm120 2.450 . S
O141 C122 1.242 . S
O142 Sm120 2.681 . S
O142 Sm121 2.386 . S
O142 C129 1.271 . S
O143 Sm120 2.464 . S
O143 C129 1.251 . S
O144 Sm120 2.396 . S
O144 C130 1.252 . S
O145 Sm121 2.408 . S
O145 C130 1.272 . S
O146 Sm121 2.543 1_556 S
O146 C131 1.261 . S
O147 Sm121 2.450 1_556 S
O147 C131 1.242 . S
O148 Sm120 2.386 . S
O148 Sm121 2.681 . S
O148 C138 1.271 . S
O149 Sm121 2.464 . S
O149 C138 1.251 . S
O150 Sm121 2.396 1_556 S
O150 C139 1.252 . S
O151 Sm120 2.408 . S
O151 C139 1.272 1_554 S
H152 C124 0.930 . S
H153 C125 0.929 . S
H154 C127 0.930 . S
H155 C128 0.929 . S
H156 C133 0.930 . S
H157 C134 0.929 . S
H158 C136 0.930 . S
H159 C137 0.929 . S
Sm160 C162 2.846 . S
Sm160 O180 2.543 . S
Sm160 O181 2.450 . S
Sm160 O182 2.681 . S
Sm160 O183 2.464 . S
Sm160 O184 2.396 . S
Sm160 O188 2.386 . S
Sm160 O191 2.408 . S
Sm161 C171 2.846 . S
Sm161 O182 2.386 . S
Sm161 O185 2.408 . S
Sm161 O186 2.543 . S
Sm161 O187 2.450 . S
Sm161 O188 2.681 . S
Sm161 O189 2.464 . S
Sm161 O190 2.396 . S
C162 Sm160 2.846 . S
C162 C163 1.506 . S
C162 O180 1.261 . S
C162 O181 1.242 . S
C163 C162 1.506 . S
C163 C164 1.358 . S
C163 C168 1.382 . S
C164 C163 1.358 . S
C164 C165 1.385 . S
C164 H192 0.930 . S
C165 C164 1.385 . S
C165 C166 1.395 . S
C165 H193 0.929 . S
C166 C165 1.395 . S
C166 C167 1.335 . S
C167 C166 1.335 . S
C167 C168 1.398 . S
C167 H194 0.930 . S
C168 C163 1.382 . S
C168 C167 1.398 . S
C168 H195 0.929 . S
C169 O182 1.271 . S
C169 O183 1.251 . S
C170 O184 1.252 . S
C170 O185 1.272 . S
C171 Sm161 2.846 . S
C171 C172 1.506 . S
C171 O186 1.261 . S
C171 O187 1.242 . S
C172 C171 1.506 . S
C172 C173 1.358 1_455 S
C172 C177 1.382 . S
C173 C172 1.358 1_655 S
C173 C174 1.385 . S
C173 H196 0.930 . S
C174 C173 1.385 . S
C174 C175 1.395 . S
C174 H197 0.929 . S
C175 C174 1.395 . S
C175 C176 1.335 1_655 S
C176 C175 1.335 1_455 S
C176 C177 1.398 . S
C176 H198 0.930 . S
C177 C172 1.382 . S
C177 C176 1.398 . S
C177 H199 0.929 . S
C178 O188 1.271 . S
C178 O189 1.251 . S
C179 O190 1.252 . S
C179 O191 1.272 . S
O180 Sm160 2.543 . S
O180 C162 1.261 . S
O181 Sm160 2.450 . S
O181 C162 1.242 . S
O182 Sm160 2.681 . S
O182 Sm161 2.386 . S
O182 C169 1.271 . S
O183 Sm160 2.464 . S
O183 C169 1.251 . S
O184 Sm160 2.396 . S
O184 C170 1.252 . S
O185 Sm161 2.408 . S
O185 C170 1.272 . S
O186 Sm161 2.543 . S
O186 C171 1.261 . S
O187 Sm161 2.450 . S
O187 C171 1.242 . S
O188 Sm160 2.386 . S
O188 Sm161 2.681 . S
O188 C178 1.271 . S
O189 Sm161 2.464 . S
O189 C178 1.251 . S
O190 Sm161 2.396 . S
O190 C179 1.252 . S
O191 Sm160 2.408 . S
O191 C179 1.272 . S
H192 C164 0.930 . S
H193 C165 0.929 . S
H194 C167 0.930 . S
H195 C168 0.929 . S
H196 C173 0.930 . S
H197 C174 0.929 . S
H198 C176 0.930 . S
H199 C177 0.929 . S
Sm200 C202 2.846 . S
Sm200 O220 2.543 . S
Sm200 O221 2.450 . S
Sm200 O222 2.681 . S
Sm200 O223 2.464 . S
Sm200 O224 2.396 . S
Sm200 O228 2.386 . S
Sm200 O231 2.408 . S
Sm201 C211 2.846 . S
Sm201 O222 2.386 . S
Sm201 O225 2.408 . S
Sm201 O226 2.543 . S
Sm201 O227 2.450 . S
Sm201 O228 2.681 . S
Sm201 O229 2.464 . S
Sm201 O230 2.396 . S
C202 Sm200 2.846 . S
C202 C203 1.506 . S
C202 O220 1.261 . S
C202 O221 1.242 . S
C203 C202 1.506 . S
C203 C204 1.358 . S
C203 C208 1.382 . S
C204 C203 1.358 . S
C204 C205 1.385 . S
C204 H232 0.930 . S
C205 C204 1.385 . S
C205 C206 1.395 . S
C205 H233 0.929 . S
C206 C205 1.395 . S
C206 C207 1.335 . S
C207 C206 1.335 . S
C207 C208 1.398 . S
C207 H234 0.930 . S
C208 C203 1.382 . S
C208 C207 1.398 . S
C208 H235 0.929 . S
C209 O222 1.271 . S
C209 O223 1.251 . S
C210 O224 1.252 . S
C210 O225 1.272 . S
C211 Sm201 2.846 . S
C211 C212 1.506 . S
C211 O226 1.261 . S
C211 O227 1.242 . S
C212 C211 1.506 . S
C212 C213 1.358 1_545 S
C212 C217 1.382 . S
C213 C212 1.358 1_565 S
C213 C214 1.385 . S
C213 H236 0.930 . S
C214 C213 1.385 . S
C214 C215 1.395 . S
C214 H237 0.929 . S
C215 C214 1.395 . S
C215 C216 1.335 1_565 S
C216 C215 1.335 1_545 S
C216 C217 1.398 . S
C216 H238 0.930 . S
C217 C212 1.382 . S
C217 C216 1.398 . S
C217 H239 0.929 . S
C218 O228 1.271 . S
C218 O229 1.251 . S
C219 O230 1.252 . S
C219 O231 1.272 . S
O220 Sm200 2.543 . S
O220 C202 1.261 . S
O221 Sm200 2.450 . S
O221 C202 1.242 . S
O222 Sm200 2.681 . S
O222 Sm201 2.386 . S
O222 C209 1.271 . S
O223 Sm200 2.464 . S
O223 C209 1.251 . S
O224 Sm200 2.396 . S
O224 C210 1.252 . S
O225 Sm201 2.408 . S
O225 C210 1.272 . S
O226 Sm201 2.543 . S
O226 C211 1.261 . S
O227 Sm201 2.450 . S
O227 C211 1.242 . S
O228 Sm200 2.386 . S
O228 Sm201 2.681 . S
O228 C218 1.271 . S
O229 Sm201 2.464 . S
O229 C218 1.251 . S
O230 Sm201 2.396 . S
O230 C219 1.252 . S
O231 Sm200 2.408 . S
O231 C219 1.272 . S
H232 C204 0.930 . S
H233 C205 0.929 . S
H234 C207 0.930 . S
H235 C208 0.929 . S
H236 C213 0.930 . S
H237 C214 0.929 . S
H238 C216 0.930 . S
H239 C217 0.929 . S
C240 C241 1.363 . S
C240 C246 1.379 . S
C240 N248 1.356 . S
C241 C240 1.363 . S
C241 C247 1.363 . S
C242 C243 1.363 . S
C242 C247 1.379 . S
C242 N249 1.356 . S
C243 C242 1.363 . S
C243 C246 1.363 . S
N244 C246 1.356 . S
N244 H256 0.984 . S
N244 H257 0.985 . S
N245 C247 1.356 . S
N245 H250 0.984 . S
N245 H251 0.985 . S
C246 C240 1.379 . S
C246 C243 1.363 . S
C246 N244 1.356 . S
C247 C241 1.363 . S
C247 C242 1.379 . S
C247 N245 1.356 . S
N248 C240 1.356 . S
N248 H254 0.984 . S
N248 H255 0.984 . S
N249 C242 1.356 . S
N249 H252 0.984 . S
N249 H253 0.985 . S
H250 N245 0.984 . S
H251 N245 0.985 . S
H252 N249 0.984 . S
H253 N249 0.985 . S
H254 N248 0.984 . S
H255 N248 0.984 . S
H256 N244 0.984 . S
H257 N244 0.985 . S
C258 C259 1.363 . S
C258 C264 1.379 . S
C258 N266 1.356 . S
C259 C258 1.363 . S
C259 C265 1.363 . S
C260 C261 1.363 . S
C260 C265 1.379 . S
C260 N267 1.356 . S
C261 C260 1.363 . S
C261 C264 1.363 . S
N262 C264 1.356 . S
N262 H274 0.984 . S
N262 H275 0.985 . S
N263 C265 1.356 . S
N263 H268 0.984 . S
N263 H269 0.985 . S
C264 C258 1.379 . S
C264 C261 1.363 . S
C264 N262 1.356 . S
C265 C259 1.363 . S
C265 C260 1.379 . S
C265 N263 1.356 . S
N266 C258 1.356 . S
N266 H272 0.984 . S
N266 H273 0.984 . S
N267 C260 1.356 . S
N267 H270 0.984 . S
N267 H271 0.985 . S
H268 N263 0.984 . S
H269 N263 0.985 . S
H270 N267 0.984 . S
H271 N267 0.985 . S
H272 N266 0.984 . S
H273 N266 0.984 . S
H274 N262 0.984 . S
H275 N262 0.985 . S
C276 C277 1.363 . S
C276 C282 1.379 . S
C276 N284 1.356 . S
C277 C276 1.363 . S
C277 C283 1.363 . S
C278 C279 1.363 . S
C278 C283 1.379 . S
C278 N285 1.356 . S
C279 C278 1.363 . S
C279 C282 1.363 . S
N280 C282 1.356 . S
N280 H292 0.984 . S
N280 H293 0.985 . S
N281 C283 1.356 . S
N281 H286 0.967 1_556 S
N281 H287 0.985 . S
C282 C276 1.379 . S
C282 C279 1.363 . S
C282 N280 1.356 . S
C283 C277 1.363 . S
C283 C278 1.379 . S
C283 N281 1.356 . S
N284 C276 1.356 . S
N284 H290 0.984 . S
N284 H291 0.984 . S
N285 C278 1.356 . S
N285 H288 0.984 . S
N285 H289 0.985 . S
H286 N281 0.967 1_554 S
H287 N281 0.985 . S
H288 N285 0.984 . S
H289 N285 0.985 . S
H290 N284 0.984 . S
H291 N284 0.984 . S
H292 N280 0.984 . S
H293 N280 0.985 . S
C294 C295 1.363 . S
C294 C300 1.379 . S
C294 N302 1.356 . S
C295 C294 1.363 . S
C295 C301 1.363 . S
C296 C297 1.363 . S
C296 C301 1.379 . S
C296 N303 1.356 . S
C297 C296 1.363 . S
C297 C300 1.363 . S
N298 C300 1.356 . S
N298 H310 0.984 . S
N298 H311 0.985 . S
N299 C301 1.356 . S
N299 H304 0.984 . S
N299 H305 0.985 . S
C300 C294 1.379 . S
C300 C297 1.363 . S
C300 N298 1.356 . S
C301 C295 1.363 . S
C301 C296 1.379 . S
C301 N299 1.356 . S
N302 C294 1.356 . S
N302 H308 0.984 . S
N302 H309 0.984 . S
N303 C296 1.356 . S
N303 H306 0.984 . S
N303 H307 0.985 . S
H304 N299 0.984 . S
H305 N299 0.985 . S
H306 N303 0.984 . S
H307 N303 0.985 . S
H308 N302 0.984 . S
H309 N302 0.984 . S
H310 N298 0.984 . S
H311 N298 0.985 . S
C312 C313 1.363 . S
C312 C318 1.379 . S
C312 N320 1.356 . S
C313 C312 1.363 . S
C313 C319 1.363 . S
C314 C315 1.363 . S
C314 C319 1.379 . S
C314 N321 1.356 . S
C315 C314 1.363 . S
C315 C318 1.363 . S
N316 C318 1.356 . S
N316 H328 0.984 . S
N316 H329 0.985 . S
N317 C319 1.356 . S
N317 H322 0.984 . S
N317 H323 0.985 . S
C318 C312 1.379 . S
C318 C315 1.363 . S
C318 N316 1.356 . S
C319 C313 1.363 . S
C319 C314 1.379 . S
C319 N317 1.356 . S
N320 C312 1.356 . S
N320 H326 0.984 . S
N320 H327 0.984 . S
N321 C314 1.356 . S
N321 H324 0.984 . S
N321 H325 0.985 . S
H322 N317 0.984 . S
H323 N317 0.985 . S
H324 N321 0.984 . S
H325 N321 0.985 . S
H326 N320 0.984 . S
H327 N320 0.984 . S
H328 N316 0.984 . S
H329 N316 0.985 . S
C330 C331 1.363 . S
C330 C336 1.379 . S
C330 N338 1.356 . S
C331 C330 1.363 . S
C331 C337 1.363 . S
C332 C333 1.363 . S
C332 C337 1.379 . S
C332 N339 1.356 . S
C333 C332 1.363 . S
C333 C336 1.363 . S
N334 C336 1.356 . S
N334 H346 0.984 . S
N334 H347 0.985 . S
N335 C337 1.356 . S
N335 H340 0.984 . S
N335 H341 0.985 . S
C336 C330 1.379 . S
C336 C333 1.363 . S
C336 N334 1.356 . S
C337 C331 1.363 . S
C337 C332 1.379 . S
C337 N335 1.356 . S
N338 C330 1.356 . S
N338 H344 0.984 . S
N338 H345 0.984 . S
N339 C332 1.356 . S
N339 H342 0.984 . S
N339 H343 0.985 . S
H340 N335 0.984 . S
H341 N335 0.985 . S
H342 N339 0.984 . S
H343 N339 0.985 . S
H344 N338 0.984 . S
H345 N338 0.984 . S
H346 N334 0.984 . S
H347 N334 0.985 . S
C348 C349 1.363 . S
C348 C354 1.379 . S
C348 N356 1.356 . S
C349 C348 1.363 . S
C349 C355 1.363 . S
C350 C351 1.363 . S
C350 C355 1.379 . S
C350 N357 1.356 . S
C351 C350 1.363 . S
C351 C354 1.363 . S
N352 C354 1.356 . S
N352 H364 0.984 . S
N352 H365 0.985 . S
N353 C355 1.356 . S
N353 H358 0.984 . S
N353 H359 0.973 1_554 S
C354 C348 1.379 . S
C354 C351 1.363 . S
C354 N352 1.356 . S
C355 C349 1.363 . S
C355 C350 1.379 . S
C355 N353 1.356 . S
N356 C348 1.356 . S
N356 H362 0.984 . S
N356 H363 0.984 . S
N357 C350 1.356 . S
N357 H360 0.984 . S
N357 H361 0.972 1_554 S
H358 N353 0.984 . S
H359 N353 0.973 1_556 S
H360 N357 0.984 . S
H361 N357 0.972 1_556 S
H362 N356 0.984 . S
H363 N356 0.984 . S
H364 N352 0.984 . S
H365 N352 0.985 . S
C366 C367 1.363 1_655 S
C366 C372 1.379 . S
C366 N374 1.356 . S
C367 C366 1.363 1_455 S
C367 C373 1.363 . S
C368 C369 1.363 1_455 S
C368 C373 1.379 . S
C368 N375 1.356 . S
C369 C368 1.363 1_655 S
C369 C372 1.363 . S
N370 C372 1.356 . S
N370 H382 0.984 . S
N370 H383 0.985 . S
N371 C373 1.356 . S
N371 H376 0.984 . S
N371 H377 0.985 . S
C372 C366 1.379 . S
C372 C369 1.363 . S
C372 N370 1.356 . S
C373 C367 1.363 . S
C373 C368 1.379 . S
C373 N371 1.356 . S
N374 C366 1.356 . S
N374 H380 0.984 . S
N374 H381 0.984 . S
N375 C368 1.356 . S
N375 H378 0.984 . S
N375 H379 0.985 . S
H376 N371 0.984 . S
H377 N371 0.985 . S
H378 N375 0.984 . S
H379 N375 0.985 . S
H380 N374 0.984 . S
H381 N374 0.984 . S
H382 N370 0.984 . S
H383 N370 0.985 . S
C384 C385 1.363 . S
C384 C390 1.379 . S
C384 N392 1.356 . S
C385 C384 1.363 . S
C385 C391 1.363 1_545 S
C386 C387 1.363 . S
C386 C391 1.379 . S
C386 N393 1.356 . S
C387 C386 1.363 . S
C387 C390 1.363 1_565 S
N388 C390 1.356 . S
N388 H400 0.984 . S
N388 H401 0.985 . S
N389 C391 1.356 . S
N389 H394 0.984 . S
N389 H395 0.985 . S
C390 C384 1.379 . S
C390 C387 1.363 1_545 S
C390 N388 1.356 . S
C391 C385 1.363 1_565 S
C391 C386 1.379 . S
C391 N389 1.356 . S
N392 C384 1.356 . S
N392 H398 0.984 . S
N392 H399 0.984 . S
N393 C386 1.356 . S
N393 H396 0.984 . S
N393 H397 0.985 . S
H394 N389 0.984 . S
H395 N389 0.985 . S
H396 N393 0.984 . S
H397 N393 0.985 . S
H398 N392 0.984 . S
H399 N392 0.984 . S
H400 N388 0.984 . S
H401 N388 0.985 . S
C402 C403 1.363 . S
C402 C408 1.379 . S
C402 N410 1.356 . S
C403 C402 1.363 . S
C403 C409 1.363 . S
C404 C405 1.363 . S
C404 C409 1.379 . S
C404 N411 1.356 . S
C405 C404 1.363 . S
C405 C408 1.363 . S
N406 C408 1.356 . S
N406 H418 0.984 . S
N406 H419 0.985 . S
N407 C409 1.356 . S
N407 H412 0.984 . S
N407 H413 0.985 . S
C408 C402 1.379 . S
C408 C405 1.363 . S
C408 N406 1.356 . S
C409 C403 1.363 . S
C409 C404 1.379 . S
C409 N407 1.356 . S
N410 C402 1.356 . S
N410 H416 0.984 . S
N410 H417 0.984 . S
N411 C404 1.356 . S
N411 H414 0.984 . S
N411 H415 0.985 . S
H412 N407 0.984 . S
H413 N407 0.985 . S
H414 N411 0.984 . S
H415 N411 0.985 . S
H416 N410 0.984 . S
H417 N410 0.984 . S
H418 N406 0.984 . S
H419 N406 0.985 . S
C420 C421 1.363 1_655 S
C420 C426 1.379 . S
C420 N428 1.356 . S
C421 C420 1.363 1_455 S
C421 C427 1.363 . S
C422 C423 1.363 1_455 S
C422 C427 1.379 . S
C422 N429 1.356 1_554 S
C423 C422 1.363 1_655 S
C423 C426 1.363 . S
N424 C426 1.356 . S
N424 H436 0.984 . S
N424 H437 0.985 . S
N425 C427 1.356 1_556 S
N425 H430 0.984 1_556 S
N425 H431 0.985 . S
C426 C420 1.379 . S
C426 C423 1.363 . S
C426 N424 1.356 . S
C427 C421 1.363 . S
C427 C422 1.379 . S
C427 N425 1.356 1_554 S
N428 C420 1.356 . S
N428 H434 0.984 . S
N428 H435 0.984 . S
N429 C422 1.356 1_556 S
N429 H432 0.984 1_556 S
N429 H433 0.985 . S
H430 N425 0.984 1_554 S
H431 N425 0.985 . S
H432 N429 0.984 1_554 S
H433 N429 0.985 . S
H434 N428 0.984 . S
H435 N428 0.984 . S
H436 N424 0.984 . S
H437 N424 0.985 . S
C438 C439 1.363 . S
C438 C444 1.379 . S
C438 N446 1.356 . S
C439 C438 1.363 . S
C439 C445 1.363 1_565 S
C440 C441 1.363 . S
C440 C445 1.379 . S
C440 N447 1.356 . S
C441 C440 1.363 . S
C441 C444 1.363 1_545 S
N442 C444 1.356 . S
N442 H454 0.984 . S
N442 H455 0.985 . S
N443 C445 1.356 . S
N443 H448 0.984 . S
N443 H449 0.985 . S
C444 C438 1.379 . S
C444 C441 1.363 1_565 S
C444 N442 1.356 . S
C445 C439 1.363 1_545 S
C445 C440 1.379 . S
C445 N443 1.356 . S
N446 C438 1.356 . S
N446 H452 0.984 . S
N446 H453 0.984 . S
N447 C440 1.356 . S
N447 H450 0.984 . S
N447 H451 0.985 . S
H448 N443 0.984 . S
H449 N443 0.985 . S
H450 N447 0.984 . S
H451 N447 0.985 . S
H452 N446 0.984 . S
H453 N446 0.984 . S
H454 N442 0.984 . S
H455 N442 0.985 . S
C456 C457 1.363 . S
C456 C462 1.379 . S
C456 N464 1.356 . S
C457 C456 1.363 . S
C457 C463 1.363 . S
C458 C459 1.363 . S
C458 C463 1.379 . S
C458 N465 1.356 . S
C459 C458 1.363 . S
C459 C462 1.363 . S
N460 C462 1.356 . S
N460 H472 0.984 . S
N460 H473 0.985 . S
N461 C463 1.356 . S
N461 H466 0.984 . S
N461 H467 0.985 . S
C462 C456 1.379 . S
C462 C459 1.363 . S
C462 N460 1.356 . S
C463 C457 1.363 . S
C463 C458 1.379 . S
C463 N461 1.356 . S
N464 C456 1.356 . S
N464 H470 0.984 . S
N464 H471 0.984 . S
N465 C458 1.356 . S
N465 H468 0.984 . S
N465 H469 0.985 . S
H466 N461 0.984 . S
H467 N461 0.985 . S
H468 N465 0.984 . S
H469 N465 0.985 . S
H470 N464 0.984 . S
H471 N464 0.984 . S
H472 N460 0.984 . S
H473 N460 0.985 . S
C474 C475 1.363 . S
C474 C480 1.379 . S
C474 N482 1.356 . S
C475 C474 1.363 . S
C475 C481 1.363 . S
C476 C477 1.363 . S
C476 C481 1.379 . S
C476 N483 1.356 . S
C477 C476 1.363 . S
C477 C480 1.363 . S
N478 C480 1.356 . S
N478 H490 0.984 . S
N478 H491 0.985 . S
N479 C481 1.356 1_655 S
N479 H484 0.984 . S
N479 H485 0.985 . S
C480 C474 1.379 . S
C480 C477 1.363 . S
C480 N478 1.356 . S
C481 C475 1.363 . S
C481 C476 1.379 . S
C481 N479 1.356 1_455 S
N482 C474 1.356 . S
N482 H488 0.984 . S
N482 H489 0.984 . S
N483 C476 1.356 . S
N483 H486 0.984 . S
N483 H487 0.985 . S
H484 N479 0.984 . S
H485 N479 0.985 . S
H486 N483 0.984 . S
H487 N483 0.985 . S
H488 N482 0.984 . S
H489 N482 0.984 . S
H490 N478 0.984 . S
H491 N478 0.985 . S
C492 C493 1.363 . S
C492 C498 1.379 . S
C492 N500 1.356 . S
C493 C492 1.363 . S
C493 C499 1.363 . S
C494 C495 1.363 . S
C494 C499 1.379 . S
C494 N501 1.356 . S
C495 C494 1.363 . S
C495 C498 1.363 . S
N496 C498 1.356 . S
N496 H508 0.984 . S
N496 H509 0.985 . S
N497 C499 1.356 1_565 S
N497 H502 0.984 . S
N497 H503 0.985 . S
C498 C492 1.379 . S
C498 C495 1.363 . S
C498 N496 1.356 . S
C499 C493 1.363 . S
C499 C494 1.379 . S
C499 N497 1.356 1_545 S
N500 C492 1.356 . S
N500 H506 0.984 . S
N500 H507 0.984 . S
N501 C494 1.356 . S
N501 H504 0.984 . S
N501 H505 0.985 1_545 S
H502 N497 0.984 . S
H503 N497 0.985 . S
H504 N501 0.984 . S
H505 N501 0.985 1_565 S
H506 N500 0.984 . S
H507 N500 0.984 . S
H508 N496 0.984 . S
H509 N496 0.985 . S
C510 C511 1.363 . S
C510 C516 1.379 . S
C510 N518 1.356 . S
C511 C510 1.363 . S
C511 C517 1.363 . S
C512 C513 1.363 . S
C512 C517 1.379 . S
C512 N519 1.356 . S
C513 C512 1.363 . S
C513 C516 1.363 . S
N514 C516 1.356 . S
N514 H526 0.984 1_565 S
N514 H527 0.985 . S
N515 C517 1.356 . S
N515 H520 0.984 . S
N515 H521 0.985 . S
C516 C510 1.379 . S
C516 C513 1.363 . S
C516 N514 1.356 . S
C517 C511 1.363 . S
C517 C512 1.379 . S
C517 N515 1.356 . S
N518 C510 1.356 . S
N518 H524 0.984 . S
N518 H525 0.984 . S
N519 C512 1.356 . S
N519 H522 0.984 . S
N519 H523 0.985 . S
H520 N515 0.984 . S
H521 N515 0.985 . S
H522 N519 0.984 . S
H523 N519 0.985 . S
H524 N518 0.984 . S
H525 N518 0.984 . S
H526 N514 0.984 1_545 S
H527 N514 0.985 . S
C528 C529 1.363 . S
C528 C534 1.379 . S
C528 N536 1.356 . S
C529 C528 1.363 . S
C529 C535 1.363 . S
C530 C531 1.363 . S
C530 C535 1.379 . S
C530 N537 1.356 . S
C531 C530 1.363 . S
C531 C534 1.363 . S
N532 C534 1.356 . S
N532 H544 0.984 . S
N532 H545 0.985 . S
N533 C535 1.356 . S
N533 H538 0.984 1_655 S
N533 H539 0.985 1_655 S
C534 C528 1.379 . S
C534 C531 1.363 . S
C534 N532 1.356 . S
C535 C529 1.363 . S
C535 C530 1.379 . S
C535 N533 1.356 . S
N536 C528 1.356 . S
N536 H542 0.984 . S
N536 H543 0.984 . S
N537 C530 1.356 . S
N537 H540 0.984 . S
N537 H541 0.985 . S
H538 N533 0.984 1_455 S
H539 N533 0.985 1_455 S
H540 N537 0.984 . S
H541 N537 0.985 . S
H542 N536 0.984 . S
H543 N536 0.984 . S
H544 N532 0.984 . S
H545 N532 0.985 . S
C546 C547 1.363 . S
C546 C552 1.379 . S
C546 N554 1.356 . S
C547 C546 1.363 . S
C547 C553 1.357 1_565 S
C548 C549 1.363 . S
C548 C553 1.373 1_565 S
C548 N555 1.356 1_565 S
C549 C548 1.363 . S
C549 C552 1.363 . S
N550 C552 1.356 . S
N550 H562 0.984 . S
N550 H563 0.985 . S
N551 C553 1.368 . S
N551 H556 0.984 . S
N551 H557 0.985 . S
C552 C546 1.379 . S
C552 C549 1.363 . S
C552 N550 1.356 . S
C553 C547 1.357 1_545 S
C553 C548 1.373 1_545 S
C553 N551 1.368 . S
N554 C546 1.356 . S
N554 H560 0.984 . S
N554 H561 0.984 . S
N555 C548 1.356 1_545 S
N555 H558 0.984 1_545 S
N555 H559 0.985 . S
H556 N551 0.984 . S
H557 N551 0.985 . S
H558 N555 0.984 1_565 S
H559 N555 0.985 . S
H560 N554 0.984 . S
H561 N554 0.984 . S
H562 N550 0.984 . S
H563 N550 0.985 . S
C241 C179 1.228 . S
C243 C6 1.239 . S
C259 C219 1.227 . S
C261 C46 1.238 . S
C277 C19 1.227 . S
C279 C86 1.238 . S
C295 C59 1.228 . S
C297 C126 1.239 . S
C313 C99 1.227 . S
C315 C166 1.238 . S
C331 C139 1.227 . S
C333 C206 1.238 . S
C349 C9 1.235 . S
C351 C129 1.235 . S
C367 C169 1.235 . S
C369 C49 1.235 . S
C385 C209 1.236 . S
C387 C89 1.236 . S
C403 C98 1.502 . S
C405 C218 1.502 . S
C421 C18 1.501 . S
C423 C138 1.501 . S
C439 C178 1.502 . S
C441 C58 1.502 . S
C457 C210 1.430 . S
C459 C15 1.381 . S
C475 C55 1.381 . S
C477 C10 1.430 . S
C493 C95 1.381 . S
C495 C50 1.430 . S
C511 C90 1.430 . S
C513 C135 1.381 . S
C529 C175 1.381 . S
C531 C130 1.430 . S
C547 C215 1.382 . S
C549 C170 1.430 . S
