# Generated by pormake.
# Topology mmt, (4)-cn, num edge types: 1
# Building blocks:
#     Node 0, Type 0, BuildingBlock: ICAMEG_clean_sbu_1, # of connection points: 4
#     Node 1, Type 0, BuildingBlock: ICAMEG_clean_sbu_1, # of connection points: 4
#     Node 2, Type 0, BuildingBlock: ICAMEG_clean_sbu_1, # of connection points: 4
#     Node 3, Type 0, BuildingBlock: ICAMEG_clean_sbu_1, # of connection points: 4
#     Node 4, Type 0, BuildingBlock: ICAMEG_clean_sbu_1, # of connection points: 4
#     Node 5, Type 0, BuildingBlock: ICAMEG_clean_sbu_1, # of connection points: 4
#     Node 6, Type 0, BuildingBlock: ICAMEG_clean_sbu_1, # of connection points: 4
#     Node 7, Type 0, BuildingBlock: ICAMEG_clean_sbu_1, # of connection points: 4
#     Edge 8, Type (0, 0), BuildingBlock: MIFKUJ_clean_linker_0, # of connection points: 2
#     Edge 9, Type (0, 0), BuildingBlock: MIFKUJ_clean_linker_0, # of connection points: 2
#     Edge 10, Type (0, 0), BuildingBlock: MIFKUJ_clean_linker_0, # of connection points: 2
#     Edge 11, Type (0, 0), BuildingBlock: MIFKUJ_clean_linker_0, # of connection points: 2
#     Edge 12, Type (0, 0), BuildingBlock: MIFKUJ_clean_linker_0, # of connection points: 2
#     Edge 13, Type (0, 0), BuildingBlock: MIFKUJ_clean_linker_0, # of connection points: 2
#     Edge 14, Type (0, 0), BuildingBlock: MIFKUJ_clean_linker_0, # of connection points: 2
#     Edge 15, Type (0, 0), BuildingBlock: MIFKUJ_clean_linker_0, # of connection points: 2
#     Edge 16, Type (0, 0), BuildingBlock: MIFKUJ_clean_linker_0, # of connection points: 2
#     Edge 17, Type (0, 0), BuildingBlock: MIFKUJ_clean_linker_0, # of connection points: 2
#     Edge 18, Type (0, 0), BuildingBlock: MIFKUJ_clean_linker_0, # of connection points: 2
#     Edge 19, Type (0, 0), BuildingBlock: MIFKUJ_clean_linker_0, # of connection points: 2
#     Edge 20, Type (0, 0), BuildingBlock: MIFKUJ_clean_linker_0, # of connection points: 2
#     Edge 21, Type (0, 0), BuildingBlock: MIFKUJ_clean_linker_0, # of connection points: 2
#     Edge 22, Type (0, 0), BuildingBlock: MIFKUJ_clean_linker_0, # of connection points: 2
#     Edge 23, Type (0, 0), BuildingBlock: MIFKUJ_clean_linker_0, # of connection points: 2
# Relax obj value: 0.086
# Max RMSD: 0.130
# Mean RMSD: 0.130
data_MOF--net-mmt--node1-ICAMEG_clean_sbu_1--edge1-MIFKUJ_clean_linker_0
_symmetry_space_group_name_H-M    P1
_symmetry_Int_Tables_number       1
_symmetry_cell_setting            triclinic
loop_
_symmetry_equiv_pos_as_xyz
'x, y, z'
_cell_length_a     30.753476
_cell_length_b     54.059701
_cell_length_c     54.165931
_cell_angle_alpha  90.007356
_cell_angle_beta   89.97387
_cell_angle_gamma 90.025222
loop_
_atom_site_label
_atom_site_type_symbol
_atom_site_fract_x
_atom_site_fract_y
_atom_site_fract_z
_atom_type_partial_charge
Co0 Co 0.17711 0.54959 0.35948 0.0
Co1 Co 0.11425 0.60205 0.35847 0.0
O2 O 0.17035 0.58526 0.35396 0.0
C3 C 0.22268 0.5572 0.31088 0.0
O4 O 0.19236 0.57268 0.30368 0.0
C5 C 0.17561 0.63542 0.38599 0.0
O6 O 0.19291 0.61618 0.39706 0.0
O7 O 0.10898 0.5889 0.39286 0.0
O8 O 0.13507 0.55054 0.3876 0.0
H9 H 0.95765 0.60795 0.38432 0.0
H10 H 0.25395 0.58249 0.35782 0.0
O11 O 0.22054 0.54705 0.33204 0.0
H12 H 0.26024 0.54218 0.43938 0.0
H13 H 0.26045 0.46965 0.36699 0.0
H14 H 0.11563 0.50867 0.36981 0.0
H15 H 0.20164 0.5321 0.41004 0.0
H16 H 0.25241 0.51457 0.36051 0.0
O17 O 0.1445 0.63252 0.37078 0.0
H18 H 0.02813 0.58714 0.37815 0.0
H19 H 0.08187 0.65318 0.34854 0.0
H20 H 0.12225 0.46377 0.37674 0.0
H21 H 0.31353 0.59293 0.38644 0.0
H22 H 0.19508 0.44395 0.37531 0.0
H23 H 0.31685 0.57278 0.4276 0.0
O24 O 0.12864 0.54238 0.33591 0.0
H25 H 0.1916 0.64305 0.2877 0.0
H26 H 0.05487 0.60383 0.31481 0.0
H27 H 0.06128 0.6192 0.27212 0.0
H28 H 0.12997 0.63907 0.25834 0.0
H29 H 0.18407 0.62703 0.33011 0.0
H30 H 0.01205 0.67476 0.35456 0.0
H31 H 0.94926 0.65209 0.37249 0.0
O32 O 0.08191 0.57262 0.34572 0.0
C33 C 0.11438 0.56664 0.40016 0.0
C34 C 0.98474 0.61803 0.37646 0.0
C35 C 0.0153 0.65552 0.35979 0.0
N36 N 0.05909 0.6189 0.36295 0.0
C37 C 0.02474 0.60633 0.3729 0.0
C38 C 0.05481 0.64323 0.3565 0.0
C39 C 0.98007 0.64279 0.36984 0.0
C40 C 0.25529 0.57354 0.37564 0.0
N41 N 0.22414 0.55678 0.3823 0.0
C42 C 0.28906 0.57957 0.39179 0.0
C43 C 0.29087 0.56829 0.4149 0.0
C44 C 0.25909 0.55115 0.42153 0.0
C45 C 0.22578 0.54561 0.40491 0.0
C46 C 0.22854 0.47807 0.36765 0.0
C47 C 0.14747 0.50022 0.36927 0.0
C48 C 0.22377 0.50349 0.36389 0.0
N49 N 0.18361 0.51427 0.36483 0.0
C50 C 0.15099 0.47476 0.37315 0.0
C51 C 0.19186 0.46366 0.37234 0.0
C52 C 0.09086 0.55216 0.33516 0.0
C53 C 0.16147 0.63446 0.2935 0.0
C54 C 0.085 0.61226 0.30892 0.0
C55 C 0.08837 0.62102 0.28474 0.0
C56 C 0.1269 0.6322 0.27702 0.0
N57 N 0.11904 0.61456 0.32498 0.0
C58 C 0.15694 0.62546 0.31753 0.0
Co59 Co 0.3395 0.96899 0.35736 0.0
Co60 Co 0.40757 0.91856 0.35893 0.0
O61 O 0.35024 0.93345 0.3527 0.0
C62 C 0.28696 0.95464 0.31201 0.0
O63 O 0.30289 0.93216 0.31206 0.0
C64 C 0.34645 0.8837 0.3846 0.0
O65 O 0.32617 0.90263 0.39453 0.0
O66 O 0.40805 0.93211 0.39322 0.0
O67 O 0.37929 0.96962 0.38658 0.0
H68 H 0.5618 0.9181 0.38954 0.0
H69 H 0.26562 0.93318 0.35572 0.0
O70 O 0.29875 0.97039 0.32821 0.0
H71 H 0.25098 0.97663 0.43524 0.0
H72 H 0.24885 0.04658 0.36047 0.0
H73 H 0.39629 0.01178 0.36885 0.0
H74 H 0.3107 0.987 0.40675 0.0
H75 H 0.26139 1.00184 0.35516 0.0
O76 O 0.37922 0.88723 0.37066 0.0
H77 H 0.49001 0.93648 0.38102 0.0
H78 H 0.44596 0.86851 0.35062 0.0
H79 H 0.38511 0.05657 0.37458 0.0
H80 H 0.20514 0.92248 0.38345 0.0
H81 H 0.31094 0.07426 0.37037 0.0
H82 H 0.19749 0.94422 0.42361 0.0
O83 O 0.38899 0.97715 0.33503 0.0
H84 H 0.3428 0.87394 0.28623 0.0
H85 H 0.47118 0.91885 0.31717 0.0
H86 H 0.47073 0.90347 0.27438 0.0
H87 H 0.40623 0.88075 0.25863 0.0
H88 H 0.34429 0.89011 0.32879 0.0
H89 H 0.5172 0.84934 0.35897 0.0
H90 H 0.57577 0.87422 0.37849 0.0
O91 O 0.43816 0.94898 0.34687 0.0
C92 C 0.40036 0.95433 0.39994 0.0
C93 C 0.53656 0.90708 0.38099 0.0
C94 C 0.51151 0.86848 0.36386 0.0
N95 N 0.46384 0.90362 0.36527 0.0
C96 C 0.49585 0.9174 0.37608 0.0
C97 C 0.47119 0.87942 0.35925 0.0
C98 C 0.54437 0.88245 0.3748 0.0
C99 C 0.26226 0.94307 0.37289 0.0
N100 N 0.29142 0.96102 0.37931 0.0
C101 C 0.22803 0.93677 0.38865 0.0
C102 C 0.22382 0.94893 0.4112 0.0
C103 C 0.25382 0.96709 0.41774 0.0
C104 C 0.28765 0.97287 0.40152 0.0
C105 C 0.2813 0.03909 0.36238 0.0
C106 C 0.36387 0.0193 0.36713 0.0
C107 C 0.28863 0.01378 0.35932 0.0
N108 N 0.3295 1.00416 0.36185 0.0
C109 C 0.35776 0.04469 0.37033 0.0
C110 C 0.31615 0.05461 0.36795 0.0
C111 C 0.42781 0.96887 0.33564 0.0
C112 C 0.37108 0.88385 0.29285 0.0
C113 C 0.44274 0.90931 0.31041 0.0
C114 C 0.44281 0.90048 0.28618 0.0
C115 C 0.40665 0.8877 0.27737 0.0
N116 N 0.40759 0.90565 0.32544 0.0
C117 C 0.37216 0.89299 0.31697 0.0
Co118 Co 0.67455 0.46341 0.15183 0.0
Co119 Co 0.60555 0.41365 0.14737 0.0
O120 O 0.66257 0.42797 0.15485 0.0
C121 C 0.71466 0.4752 0.20007 0.0
O122 O 0.68338 0.49152 0.20279 0.0
C123 C 0.66728 0.38066 0.11998 0.0
O124 O 0.68772 0.40026 0.11158 0.0
O125 O 0.60565 0.42939 0.11401 0.0
O126 O 0.63535 0.46634 0.12248 0.0
H127 H 0.45184 0.41519 0.11598 0.0
H128 H 0.74832 0.42822 0.15427 0.0
O129 O 0.71483 0.4611 0.18115 0.0
H130 H 0.76437 0.47095 0.07436 0.0
H131 H 0.77036 0.53918 0.15089 0.0
H132 H 0.62032 0.50791 0.1435 0.0
H133 H 0.70407 0.48152 0.10244 0.0
H134 H 0.75508 0.4945 0.15431 0.0
O135 O 0.63407 0.38314 0.1338 0.0
H136 H 0.52353 0.43297 0.12603 0.0
H137 H 0.567 0.36317 0.15221 0.0
H138 H 0.63421 0.55269 0.14005 0.0
H139 H 0.80943 0.4173 0.12687 0.0
H140 H 0.70972 0.56859 0.14379 0.0
H141 H 0.81768 0.43869 0.08656 0.0
O142 O 0.62416 0.47113 0.17382 0.0
H143 H 0.6706 0.36516 0.21734 0.0
H144 H 0.54112 0.41057 0.18861 0.0
H145 H 0.54099 0.39178 0.23008 0.0
H146 H 0.60598 0.36874 0.24464 0.0
H147 H 0.66964 0.38464 0.17618 0.0
H148 H 0.49588 0.34459 0.14227 0.0
H149 H 0.43764 0.37069 0.12411 0.0
O150 O 0.57496 0.44325 0.16122 0.0
C151 C 0.61384 0.45187 0.10842 0.0
C152 C 0.47692 0.40364 0.12394 0.0
C153 C 0.50166 0.36401 0.13866 0.0
N154 N 0.54937 0.39916 0.1398 0.0
C155 C 0.51756 0.41361 0.12971 0.0
C156 C 0.54192 0.37462 0.14418 0.0
C157 C 0.46899 0.37867 0.12849 0.0
C158 C 0.75196 0.43781 0.13689 0.0
N159 N 0.72279 0.45559 0.13006 0.0
C160 C 0.78652 0.43146 0.12139 0.0
C161 C 0.79107 0.44343 0.09876 0.0
C162 C 0.76115 0.46152 0.09189 0.0
C163 C 0.72697 0.46736 0.10784 0.0
C164 C 0.73736 0.53246 0.14929 0.0
C165 C 0.65328 0.51467 0.14513 0.0
C166 C 0.72849 0.50719 0.15116 0.0
N167 N 0.68683 0.49858 0.14905 0.0
C168 C 0.66094 0.54005 0.14317 0.0
C169 C 0.7033 0.54896 0.14528 0.0
C170 C 0.58528 0.4629 0.17288 0.0
C171 C 0.64207 0.37513 0.2112 0.0
C172 C 0.56968 0.40079 0.19489 0.0
C173 C 0.56935 0.3901 0.21836 0.0
C174 C 0.60581 0.37716 0.22651 0.0
N175 N 0.6053 0.39864 0.17993 0.0
C176 C 0.64127 0.38613 0.18788 0.0
Co177 Co 0.8408 0.04881 0.15005 0.0
Co178 Co 0.90645 0.10001 0.14678 0.0
O179 O 0.84983 0.08461 0.15367 0.0
C180 C 0.78598 0.06397 0.19433 0.0
O181 O 0.80002 0.08685 0.19336 0.0
C182 C 0.844 0.13383 0.12062 0.0
O183 O 0.82527 0.11469 0.11013 0.0
O184 O 0.90644 0.0857 0.11282 0.0
O185 O 0.88123 0.04771 0.12106 0.0
H186 H 0.05956 0.10138 0.11442 0.0
H187 H 0.76532 0.08363 0.14977 0.0
O188 O 0.79955 0.04781 0.179 0.0
H189 H 0.75477 0.03702 0.07186 0.0
H190 H 0.75342 0.96993 0.14927 0.0
H191 H 0.89963 1.0064 0.14061 0.0
H192 H 0.8142 0.02864 0.10114 0.0
H193 H 0.76402 0.01501 0.15285 0.0
O194 O 0.87661 0.13075 0.13475 0.0
H195 H 0.98876 0.08245 0.12433 0.0
H196 H 0.94345 0.15073 0.15342 0.0
H197 H 0.89041 0.96127 0.13669 0.0
H198 H 0.70515 0.09234 0.12122 0.0
H199 H 0.81687 0.94274 0.14103 0.0
H200 H 0.69953 0.06899 0.08186 0.0
O201 O 0.89022 0.04225 0.17289 0.0
H202 H 0.84119 0.14534 0.21887 0.0
H203 H 0.97127 0.1021 0.18786 0.0
H204 H 0.97125 0.11886 0.23016 0.0
H205 H 0.90588 0.14074 0.24592 0.0
H206 H 0.8424 0.12793 0.17681 0.0
H207 H 0.01375 0.17043 0.14371 0.0
H208 H 0.07244 0.1457 0.12413 0.0
O209 O 0.93849 0.07022 0.1594 0.0
C210 C 0.90054 0.06307 0.10693 0.0
C211 C 0.03429 0.11234 0.12301 0.0
C212 C 0.00854 0.1511 0.13942 0.0
N213 N 0.96205 0.11542 0.13957 0.0
C214 C 0.99413 0.10171 0.12871 0.0
C215 C 0.96876 0.13986 0.14482 0.0
C216 C 0.04147 0.13721 0.12844 0.0
C217 C 0.76284 0.07303 0.13299 0.0
N218 N 0.79291 0.05526 0.1275 0.0
C219 C 0.72879 0.07821 0.11674 0.0
C220 C 0.72571 0.06515 0.09464 0.0
C221 C 0.75669 0.04722 0.08902 0.0
C222 C 0.79031 0.04257 0.1057 0.0
C223 C 0.78561 0.97779 0.1473 0.0
C224 C 0.86749 0.99851 0.14238 0.0
C225 C 0.79184 1.0033 0.14937 0.0
N226 N 0.83239 0.01336 0.14677 0.0
C227 C 0.86249 0.97292 0.14021 0.0
C228 C 0.82123 0.96254 0.14267 0.0
C229 C 0.92884 0.0508 0.17166 0.0
C230 C 0.86984 0.13579 0.21224 0.0
C231 C 0.94249 0.11125 0.19467 0.0
C232 C 0.94278 0.12088 0.2186 0.0
C233 C 0.90613 0.13319 0.22742 0.0
N234 N 0.90668 0.11374 0.17993 0.0
C235 C 0.87075 0.12592 0.18841 0.0
Co236 Co 0.83526 0.47144 0.65 0.0
Co237 Co 0.89954 0.41836 0.64898 0.0
O238 O 0.8436 0.4355 0.65449 0.0
C239 C 0.78646 0.45894 0.69721 0.0
O240 O 0.8001 0.43598 0.69688 0.0
C241 C 0.83341 0.38726 0.62177 0.0
O242 O 0.80884 0.40672 0.61801 0.0
O243 O 0.90715 0.43464 0.61605 0.0
O244 O 0.87147 0.47065 0.61959 0.0
H245 H 0.05733 0.41406 0.6253 0.0
H246 H 0.75793 0.43824 0.6552 0.0
O247 O 0.79821 0.4742 0.68056 0.0
H248 H 0.73813 0.48118 0.57582 0.0
H249 H 0.75097 0.55143 0.64985 0.0
H250 H 0.89357 0.51251 0.6351 0.0
H251 H 0.80257 0.48948 0.60149 0.0
H252 H 0.76039 0.50647 0.65522 0.0
O253 O 0.86977 0.38941 0.63281 0.0
H254 H 0.98696 0.43464 0.63272 0.0
H255 H 0.93024 0.36601 0.65337 0.0
H256 H 0.88532 0.55745 0.62917 0.0
H257 H 0.69265 0.42981 0.63045 0.0
H258 H 0.81359 0.57722 0.63661 0.0
H259 H 0.68238 0.45128 0.59034 0.0
O260 O 0.88778 0.47897 0.67028 0.0
H261 H 0.81745 0.37109 0.71397 0.0
H262 H 0.95749 0.4097 0.69227 0.0
H263 H 0.94894 0.38979 0.73293 0.0
H264 H 0.8785 0.37018 0.74397 0.0
H265 H 0.82722 0.39173 0.67379 0.0
H266 H 0.99987 0.34469 0.64596 0.0
H267 H 0.0641 0.36876 0.63192 0.0
O268 O 0.93161 0.44603 0.6655 0.0
C269 C 0.89626 0.4559 0.60786 0.0
C270 C 0.02961 0.40338 0.63149 0.0
C271 C 0.99734 0.36444 0.64304 0.0
N272 N 0.95457 0.40159 0.6436 0.0
C273 C 0.98971 0.41494 0.63578 0.0
C274 C 0.95795 0.37662 0.64713 0.0
C275 C 0.03337 0.37796 0.63517 0.0
C276 C 0.75353 0.44805 0.63809 0.0
N277 N 0.78401 0.46461 0.63007 0.0
C278 C 0.71655 0.44302 0.62399 0.0
C279 C 0.71087 0.455 0.60146 0.0
C280 C 0.74216 0.47175 0.5933 0.0
C281 C 0.77873 0.4763 0.60788 0.0
C282 C 0.78234 0.54302 0.64654 0.0
C283 C 0.86217 0.52092 0.63824 0.0
C284 C 0.78795 0.51757 0.64965 0.0
N285 N 0.8275 0.50681 0.6454 0.0
C286 C 0.85774 0.54641 0.63491 0.0
C287 C 0.8175 0.55748 0.6391 0.0
C288 C 0.92384 0.46778 0.67352 0.0
C289 C 0.84826 0.37964 0.70943 0.0
C290 C 0.92652 0.40172 0.69716 0.0
C291 C 0.92198 0.39022 0.72011 0.0
C292 C 0.8825 0.37917 0.72626 0.0
N293 N 0.89271 0.40229 0.68082 0.0
C294 C 0.85404 0.3913 0.68665 0.0
Co295 Co 0.67629 0.05299 0.65014 0.0
Co296 Co 0.61056 0.10484 0.6479 0.0
O297 O 0.66712 0.08882 0.6541 0.0
C298 C 0.72743 0.06695 0.69613 0.0
O299 O 0.71263 0.08968 0.69574 0.0
C300 C 0.67455 0.13715 0.62104 0.0
O301 O 0.69647 0.11749 0.6142 0.0
O302 O 0.60701 0.08968 0.61431 0.0
O303 O 0.63763 0.05257 0.62054 0.0
H304 H 0.45481 0.10727 0.62002 0.0
H305 H 0.75262 0.08705 0.65275 0.0
O306 O 0.71569 0.05131 0.67982 0.0
H307 H 0.76757 0.04305 0.57356 0.0
H308 H 0.76348 0.97406 0.6491 0.0
H309 H 0.61801 0.01089 0.63846 0.0
H310 H 0.70567 0.03436 0.6011 0.0
H311 H 0.75278 0.01903 0.65371 0.0
O312 O 0.64004 0.13489 0.63383 0.0
H313 H 0.52575 0.08772 0.62827 0.0
H314 H 0.57616 0.15615 0.65414 0.0
H315 H 0.62738 0.96589 0.63341 0.0
H316 H 0.8154 0.09594 0.62606 0.0
H317 H 0.70054 0.94718 0.63876 0.0
H318 H 0.82319 0.07394 0.58605 0.0
O319 O 0.62563 0.04568 0.67192 0.0
H320 H 0.68295 0.1522 0.71638 0.0
H321 H 0.5497 0.10848 0.6908 0.0
H322 H 0.5537 0.12679 0.73239 0.0
H323 H 0.62065 0.14895 0.74541 0.0
H324 H 0.67785 0.13318 0.67513 0.0
H325 H 0.50586 0.17647 0.64599 0.0
H326 H 0.44452 0.15197 0.62889 0.0
O327 O 0.57867 0.07584 0.66214 0.0
C328 C 0.61535 0.06757 0.60752 0.0
C329 C 0.48126 0.11813 0.62753 0.0
C330 C 0.50993 0.15698 0.64207 0.0
N331 N 0.55503 0.12073 0.64178 0.0
C332 C 0.52149 0.10715 0.63229 0.0
C333 C 0.54971 0.14538 0.64658 0.0
C334 C 0.47552 0.14322 0.63249 0.0
C335 C 0.75602 0.07703 0.63567 0.0
N336 N 0.72567 0.05991 0.62877 0.0
C337 C 0.79155 0.08231 0.62048 0.0
C338 C 0.79584 0.07001 0.59801 0.0
C339 C 0.76463 0.05271 0.59099 0.0
C340 C 0.72954 0.04791 0.60665 0.0
C341 C 0.73145 0.982 0.64669 0.0
C342 C 0.65001 1.00292 0.64067 0.0
C343 C 0.72516 1.00745 0.64935 0.0
N344 N 0.68484 0.01762 0.6462 0.0
C345 C 0.65509 0.97741 0.63786 0.0
C346 C 0.69613 0.96693 0.64088 0.0
C347 C 0.58774 0.05526 0.67244 0.0
C348 C 0.6536 0.14258 0.71094 0.0
C349 C 0.57916 0.11775 0.69642 0.0
C350 C 0.58113 0.12825 0.71995 0.0
C351 C 0.61867 0.14072 0.72723 0.0
N352 N 0.61362 0.11956 0.68057 0.0
C353 C 0.65045 0.13184 0.68756 0.0
Co354 Co 0.33864 0.54843 0.85715 0.0
Co355 Co 0.39676 0.60278 0.85942 0.0
O356 O 0.34139 0.58476 0.85581 0.0
C357 C 0.28711 0.55985 0.8117 0.0
O358 O 0.31634 0.57634 0.80526 0.0
C359 C 0.33037 0.63326 0.88749 0.0
O360 O 0.30429 0.61417 0.88939 0.0
O361 O 0.40833 0.58576 0.89156 0.0
O362 O 0.38549 0.54738 0.88275 0.0
H363 H 0.55637 0.60979 0.87791 0.0
H364 H 0.25631 0.57627 0.86298 0.0
O365 O 0.29125 0.54783 0.83177 0.0
H366 H 0.27298 0.52883 0.94014 0.0
H367 H 0.26372 0.46551 0.85839 0.0
H368 H 0.40497 0.5087 0.8586 0.0
H369 H 0.32767 0.52558 0.90703 0.0
H370 H 0.26691 0.5111 0.85767 0.0
O371 O 0.36744 0.631 0.87722 0.0
H372 H 0.48655 0.58798 0.87266 0.0
H373 H 0.42409 0.65566 0.8545 0.0
H374 H 0.40327 0.46313 0.85949 0.0
H375 H 0.20038 0.57975 0.89545 0.0
H376 H 0.33224 0.44122 0.85939 0.0
H377 H 0.20865 0.556 0.93442 0.0
O378 O 0.38291 0.54586 0.83054 0.0
H379 H 0.30429 0.6481 0.79765 0.0
H380 H 0.44915 0.6127 0.81401 0.0
H381 H 0.4348 0.63283 0.77401 0.0
H382 H 0.36197 0.65084 0.76567 0.0
H383 H 0.31987 0.62756 0.83724 0.0
H384 H 0.49316 0.6782 0.85976 0.0
H385 H 0.55999 0.65523 0.87145 0.0
O386 O 0.42896 0.57611 0.84127 0.0
C387 C 0.40641 0.56261 0.89626 0.0
C388 C 0.52751 0.62 0.87275 0.0
C389 C 0.49202 0.6584 0.8626 0.0
N390 N 0.4513 0.62049 0.86315 0.0
C391 C 0.48788 0.60774 0.8697 0.0
C392 C 0.45296 0.64553 0.85972 0.0
C393 C 0.5295 0.6455 0.86915 0.0
C394 C 0.25994 0.56572 0.8798 0.0
N395 N 0.29534 0.55084 0.88313 0.0
C396 C 0.22826 0.56784 0.89816 0.0
C397 C 0.23295 0.55454 0.92003 0.0
C398 C 0.26907 0.53933 0.92327 0.0
C399 C 0.3001 0.53768 0.90451 0.0
C400 C 0.29486 0.47485 0.85847 0.0
C401 C 0.37392 0.49933 0.85867 0.0
C402 C 0.29687 0.50066 0.85802 0.0
N403 N 0.33608 0.51257 0.85822 0.0
C404 C 0.37317 0.4735 0.85912 0.0
C405 C 0.33332 0.46122 0.85904 0.0
C406 C 0.41953 0.55676 0.82887 0.0
C407 C 0.33624 0.64046 0.80112 0.0
C408 C 0.41733 0.62036 0.8105 0.0
C409 C 0.40942 0.63182 0.78783 0.0
C410 C 0.36858 0.64194 0.78316 0.0
N411 N 0.38553 0.61911 0.8281 0.0
C412 C 0.34535 0.62891 0.82359 0.0
Co413 Co 0.17544 0.96882 0.85339 0.0
Co414 Co 0.10999 0.9173 0.85699 0.0
O415 O 0.16645 0.93294 0.8498 0.0
C416 C 0.2283 0.95415 0.80817 0.0
O417 O 0.21375 0.93136 0.80882 0.0
C418 C 0.17429 0.88395 0.88235 0.0
O419 O 0.19596 0.90336 0.89016 0.0
O420 O 0.10983 0.93195 0.89081 0.0
O421 O 0.13605 0.96976 0.88279 0.0
H422 H 0.9568 0.91604 0.8892 0.0
H423 H 0.25172 0.93465 0.85221 0.0
O424 O 0.21566 0.97005 0.82401 0.0
H425 H 0.26404 0.9801 0.93073 0.0
H426 H 0.26256 0.0478 0.8537 0.0
H427 H 0.11677 0.01112 0.86365 0.0
H428 H 0.20331 0.98844 0.90231 0.0
H429 H 0.25201 1.00274 0.84998 0.0
O430 O 0.13978 0.88674 0.86966 0.0
H431 H 0.02759 0.93495 0.87923 0.0
H432 H 0.07324 0.86645 0.85085 0.0
H433 H 0.12595 0.05624 0.86772 0.0
H434 H 0.31326 0.92604 0.87986 0.0
H435 H 0.19928 0.07487 0.86273 0.0
H436 H 0.31974 0.94878 0.91953 0.0
O437 O 0.12519 0.97553 0.83116 0.0
H438 H 0.17606 0.87122 0.78565 0.0
H439 H 0.04531 0.91435 0.81588 0.0
H440 H 0.04562 0.89688 0.77386 0.0
H441 H 0.11134 0.87504 0.7585 0.0
H442 H 0.17451 0.88933 0.82742 0.0
H443 H 1.00299 0.84675 0.86069 0.0
H444 H 0.94412 0.87162 0.87993 0.0
O445 O 0.07768 0.94682 0.84396 0.0
C446 C 0.11644 0.95446 0.89684 0.0
C447 C 0.98215 0.90502 0.88077 0.0
C448 C 0.00811 0.86612 0.8648 0.0
N449 N 0.05449 0.90186 0.86436 0.0
C450 C 0.0223 0.91564 0.87503 0.0
C451 C 0.04787 0.87736 0.85933 0.0
C452 C 0.97508 0.88009 0.87558 0.0
C453 C 0.25458 0.94499 0.86913 0.0
N454 N 0.22419 0.96235 0.87532 0.0
C455 C 0.2894 0.93987 0.88487 0.0
C456 C 0.29296 0.95259 0.90714 0.0
C457 C 0.26171 0.97014 0.91344 0.0
C458 C 0.22732 0.97475 0.89726 0.0
C459 C 0.23046 0.0399 0.85595 0.0
C460 C 0.14883 0.01906 0.86159 0.0
C461 C 0.22426 0.0144 0.85381 0.0
N462 N 0.18384 1.00426 0.85676 0.0
C463 C 0.15381 0.04463 0.86385 0.0
C464 C 0.19495 0.05508 0.86103 0.0
C465 C 0.0868 0.96663 0.83223 0.0
C466 C 0.14725 0.88073 0.79211 0.0
C467 C 0.07422 0.90522 0.80923 0.0
C468 C 0.07411 0.89519 0.78547 0.0
C469 C 0.11095 0.8829 0.77688 0.0
N470 N 0.11001 0.90312 0.82403 0.0
C471 C 0.14615 0.89098 0.81577 0.0
H472 H 0.25019 0.5807 0.26837 0.0
H473 H 0.3142 0.57051 0.24316 0.0
H474 H 0.34343 0.50954 0.29179 0.0
H475 H 0.28089 0.51986 0.31709 0.0
H476 H 0.4151 0.53231 0.2817 0.0
H477 H 0.29293 0.50227 0.23396 0.0
H478 H 0.22362 0.50617 0.21138 0.0
H479 H 0.28176 0.55898 0.16219 0.0
H480 H 0.3513 0.55561 0.18469 0.0
H481 H 0.49972 0.44971 0.17635 0.0
H482 H 0.44132 0.47115 0.19759 0.0
H483 H 0.53014 0.52922 0.21863 0.0
H484 H 0.58962 0.50743 0.19773 0.0
H485 H 0.40256 0.5139 0.1923 0.0
H486 H 0.49853 0.55148 0.27534 0.0
H487 H 0.5653 0.5423 0.29892 0.0
H488 H 0.55489 0.46555 0.27934 0.0
H489 H 0.48782 0.47424 0.25594 0.0
C490 C 0.27029 0.56512 0.27361 0.0
C491 C 0.26035 0.55114 0.29478 0.0
C492 C 0.30687 0.55929 0.25919 0.0
C493 C 0.33375 0.53918 0.2655 0.0
C494 C 0.32362 0.52527 0.28659 0.0
C495 C 0.28755 0.53117 0.30104 0.0
C496 C 0.37214 0.53201 0.25025 0.0
C497 C 0.41237 0.52854 0.26208 0.0
C498 C 0.36883 0.52688 0.22468 0.0
C499 C 0.3271 0.52893 0.21118 0.0
C500 C 0.29081 0.51486 0.21844 0.0
C501 C 0.25152 0.51695 0.20565 0.0
C502 C 0.24824 0.53288 0.18542 0.0
C503 C 0.28431 0.5467 0.1779 0.0
C504 C 0.32366 0.5447 0.19066 0.0
C505 C 0.50717 0.46702 0.18549 0.0
C506 C 0.54975 0.47663 0.18553 0.0
C507 C 0.47345 0.47939 0.19751 0.0
C508 C 0.48119 0.50176 0.20988 0.0
C509 C 0.5234 0.51182 0.20949 0.0
C510 C 0.55741 0.49933 0.19753 0.0
C511 C 0.44514 0.5137 0.22389 0.0
C512 C 0.40546 0.51817 0.2118 0.0
C513 C 0.44858 0.51909 0.24939 0.0
C514 C 0.48853 0.51359 0.26365 0.0
C515 C 0.51048 0.53265 0.27613 0.0
C516 C 0.54836 0.52753 0.28946 0.0
C517 C 0.56443 0.50338 0.29054 0.0
C518 C 0.54253 0.48427 0.2784 0.0
C519 C 0.5046 0.48928 0.26509 0.0
H520 H 0.59378 0.49946 0.30083 0.0
H521 H 0.2178 0.53446 0.17553 0.0
H522 H 0.92683 1.00559 0.19521 0.0
H523 H 0.98667 0.98485 0.21667 0.0
H524 H 0.07136 0.04621 0.19967 0.0
H525 H 0.01296 0.06622 0.1772 0.0
H526 H 0.11516 1.00732 0.19406 0.0
H527 H 0.021 0.03629 0.25861 0.0
H528 H 0.95205 0.04064 0.28147 0.0
H529 H 0.94838 0.96218 0.29363 0.0
H530 H 0.01708 0.95733 0.27055 0.0
H531 H 0.26436 1.0008 0.29644 0.0
H532 H 0.20292 0.01243 0.27013 0.0
H533 H 0.16639 0.93575 0.26341 0.0
H534 H 0.22876 0.92382 0.28916 0.0
H535 H 0.09762 0.97712 0.27997 0.0
H536 H 0.19963 0.95131 0.21659 0.0
H537 H 0.27141 0.9513 0.19629 0.0
H538 H 0.26245 0.02976 0.18505 0.0
H539 H 0.19088 0.03029 0.20566 0.0
C540 C 0.95822 0.01465 0.19604 0.0
C541 C 0.96471 0.0378 0.18473 0.0
C542 C 0.99243 1.0028 0.20843 0.0
C543 C 0.03357 0.0141 0.21023 0.0
C544 C 0.0401 0.03702 0.19864 0.0
C545 C 1.00632 0.04861 0.18592 0.0
C546 C 0.07002 1.00238 0.22418 0.0
C547 C 0.11113 1.00084 0.21288 0.0
C548 C 0.06511 0.99355 0.2487 0.0
C549 C 0.02387 0.99641 0.2626 0.0
C550 C 1.00531 0.01995 0.266 0.0
C551 C 0.96631 0.02251 0.27902 0.0
C552 C 0.94577 1.00169 0.28892 0.0
C553 C 0.96428 0.97828 0.2859 0.0
C554 C 1.00325 0.97561 0.27286 0.0
C555 C 0.24354 0.98637 0.28916 0.0
C556 C 0.2515 0.96138 0.29477 0.0
C557 C 0.20845 0.99306 0.27418 0.0
C558 C 0.18018 0.97494 0.26492 0.0
C559 C 0.18794 0.94997 0.27042 0.0
C560 C 0.22368 0.9432 0.28497 0.0
C561 C 0.1422 0.98242 0.24983 0.0
C562 C 0.10109 0.98327 0.261 0.0
C563 C 0.14725 0.99118 0.22544 0.0
C564 C 0.19011 0.99087 0.21289 0.0
C565 C 0.21316 0.9686 0.21001 0.0
C566 C 0.25376 0.96849 0.1984 0.0
C567 C 0.27153 0.99052 0.18944 0.0
C568 C 0.24867 0.01271 0.19202 0.0
C569 C 0.20807 0.01292 0.20365 0.0
H570 H 0.30297 0.9904 0.18045 0.0
H571 H 0.91559 1.00371 0.299 0.0
H572 H 0.72753 0.50558 0.23967 0.0
H573 H 0.7952 0.51288 0.26197 0.0
H574 H 0.85858 0.45603 0.21934 0.0
H575 H 0.79073 0.44857 0.19669 0.0
H576 H 0.88342 0.45766 0.27169 0.0
H577 H 0.87724 0.51016 0.20042 0.0
H578 H 0.8423 0.53921 0.17155 0.0
H579 H 0.82471 0.59164 0.23028 0.0
H580 H 0.85954 0.56281 0.25956 0.0
H581 H 0.09326 0.50935 0.30706 0.0
H582 H 0.03316 0.49092 0.2834 0.0
H583 H 0.9473 0.54848 0.30911 0.0
H584 H 1.00628 0.56693 0.33231 0.0
H585 H 0.9402 0.54288 0.26045 0.0
H586 H 0.94117 0.48933 0.33225 0.0
H587 H 0.97454 0.46013 0.36159 0.0
H588 H 1.0021 0.40981 0.30228 0.0
H589 H 0.96887 0.43879 0.27254 0.0
C590 C 0.75554 0.49428 0.23524 0.0
C591 C 0.75369 0.47663 0.21619 0.0
C592 C 0.79427 0.49851 0.24803 0.0
C593 C 0.83205 0.4852 0.24212 0.0
C594 C 0.8298 0.46651 0.22418 0.0
C595 C 0.79097 0.46231 0.21124 0.0
C596 C 0.87431 0.49256 0.25324 0.0
C597 C 0.89635 0.47613 0.26893 0.0
C598 C 0.89102 0.51668 0.24976 0.0
C599 C 0.87069 0.53426 0.2322 0.0
C600 C 0.8657 0.52783 0.2072 0.0
C601 C 0.84593 0.54426 0.19076 0.0
C602 C 0.83105 0.56721 0.19909 0.0
C603 C 0.8362 0.57384 0.22386 0.0
C604 C 0.85607 0.55749 0.24037 0.0
C605 C 0.06152 0.51799 0.30772 0.0
C606 C 0.05492 0.53977 0.3215 0.0
C607 C 0.02715 0.50739 0.29426 0.0
C608 C 0.98564 0.51834 0.29444 0.0
C609 C 0.97901 0.53978 0.30849 0.0
C610 C 0.01302 0.5503 0.32184 0.0
C611 C 0.94887 0.50829 0.27961 0.0
C612 C 0.92779 0.52426 0.26304 0.0
C613 C 0.93324 0.48378 0.28235 0.0
C614 C 0.95302 0.46633 0.30016 0.0
C615 C 0.95463 0.47211 0.32545 0.0
C616 C 0.97347 0.45559 0.34216 0.0
C617 C 0.99069 0.43319 0.3338 0.0
C618 C 0.98885 0.4272 0.30872 0.0
C619 C 0.96993 0.44364 0.29194 0.0
H620 H 1.00532 0.42044 0.34677 0.0
H621 H 0.81564 0.57988 0.18634 0.0
H622 H 0.72335 0.09404 0.21413 0.0
H623 H 0.66003 0.08154 0.23852 0.0
H624 H 0.70539 1.00596 0.23782 0.0
H625 H 0.76719 0.0182 0.21231 0.0
H626 H 0.62552 1.00475 0.2292 0.0
H627 H 0.70958 0.04713 0.2907 0.0
H628 H 0.75027 0.08186 0.30912 0.0
H629 H 0.6358 0.12723 0.30644 0.0
H630 H 0.59456 0.09286 0.28771 0.0
H631 H 0.51275 0.95494 0.33062 0.0
H632 H 0.56994 0.97534 0.30728 0.0
H633 H 0.48213 0.03447 0.28844 0.0
H634 H 0.42356 0.01379 0.31148 0.0
H635 H 0.57688 0.047 0.3057 0.0
H636 H 0.49316 1.00001 0.24602 0.0
H637 H 0.45585 0.96202 0.23231 0.0
H638 H 0.57618 0.92195 0.23608 0.0
H639 H 0.61406 0.95961 0.25024 0.0
C640 C 0.72001 0.07482 0.21945 0.0
C641 C 0.75029 0.05711 0.21137 0.0
C642 C 0.68381 0.06767 0.23348 0.0
C643 C 0.67786 0.04278 0.24033 0.0
C644 C 0.70886 0.02524 0.23273 0.0
C645 C 0.74439 0.03227 0.21826 0.0
C646 C 0.63874 0.03465 0.25456 0.0
C647 C 0.61531 0.014 0.246 0.0
C648 C 0.62441 0.04683 0.27631 0.0
C649 C 0.64914 0.06752 0.28754 0.0
C650 C 0.69319 0.06458 0.29386 0.0
C651 C 0.71633 0.08419 0.30439 0.0
C652 C 0.69567 0.10676 0.30887 0.0
C653 C 0.65178 0.10975 0.30291 0.0
C654 C 0.6285 0.09021 0.29235 0.0
C655 C 0.50519 0.97226 0.32156 0.0
C656 C 0.46308 0.98246 0.32263 0.0
C657 C 0.53818 0.98396 0.30832 0.0
C658 C 0.53017 1.0063 0.29607 0.0
C659 C 0.48885 0.0172 0.29781 0.0
C660 C 0.45542 1.00528 0.31086 0.0
C661 C 0.56471 0.01718 0.28038 0.0
C662 C 0.58712 0.03817 0.28868 0.0
C663 C 0.57879 1.00504 0.2587 0.0
C664 C 0.55637 0.9826 0.24935 0.0
C665 C 0.51161 0.98306 0.24406 0.0
C666 C 0.49037 0.96159 0.2362 0.0
C667 C 0.51362 0.93958 0.23336 0.0
C668 C 0.55821 0.93902 0.23828 0.0
C669 C 0.57959 0.96043 0.2462 0.0
H670 H 0.49709 0.92296 0.22733 0.0
H671 H 0.71364 0.12192 0.31703 0.0
H672 H 0.41856 0.51238 0.80393 0.0
H673 H 0.47773 0.49398 0.77978 0.0
H674 H 0.55703 0.55836 0.79324 0.0
H675 H 0.49865 0.57681 0.81737 0.0
H676 H 0.56194 0.54068 0.74418 0.0
H677 H 0.56466 0.50946 0.82822 0.0
H678 H 0.52737 0.4887 0.86265 0.0
H679 H 0.5174 0.4221 0.81983 0.0
H680 H 0.55229 0.44299 0.78449 0.0
H681 H 0.77297 0.50454 0.71676 0.0
H682 H 0.70926 0.51892 0.73954 0.0
H683 H 0.65459 0.44541 0.73664 0.0
H684 H 0.71977 0.43067 0.7151 0.0
H685 H 0.63153 0.46501 0.77779 0.0
H686 H 0.62641 0.49262 0.69461 0.0
H687 H 0.65272 0.51241 0.6564 0.0
H688 H 0.66046 0.58236 0.69371 0.0
H689 H 0.63504 0.56289 0.7323 0.0
C690 C 0.4484 0.52276 0.80153 0.0
C691 C 0.45377 0.54607 0.81272 0.0
C692 C 0.48217 0.5122 0.78772 0.0
C693 C 0.52184 0.52477 0.78484 0.0
C694 C 0.52666 0.54838 0.79517 0.0
C695 C 0.49317 0.55885 0.80908 0.0
C696 C 0.55962 0.51289 0.77254 0.0
C697 C 0.57742 0.52425 0.75158 0.0
C698 C 0.57879 0.49095 0.78177 0.0
C699 C 0.56066 0.4779 0.80358 0.0
C700 C 0.55429 0.49044 0.82606 0.0
C701 C 0.53344 0.47866 0.84573 0.0
C702 C 0.52018 0.45405 0.84351 0.0
C703 C 0.52766 0.44118 0.82154 0.0
C704 C 0.54773 0.45303 0.80161 0.0
C705 C 0.74773 0.49136 0.72144 0.0
C706 C 0.75119 0.46653 0.71411 0.0
C707 C 0.71109 0.49962 0.73425 0.0
C708 C 0.67629 0.48346 0.73914 0.0
C709 C 0.68075 0.45832 0.73296 0.0
C710 C 0.71804 0.44988 0.72069 0.0
C711 C 0.63473 0.49313 0.74959 0.0
C712 C 0.6161 0.48136 0.77019 0.0
C713 C 0.61407 0.5144 0.73966 0.0
C714 C 0.62908 0.52625 0.71641 0.0
C715 C 0.63398 0.51219 0.69472 0.0
C716 C 0.64874 0.52335 0.67299 0.0
C717 C 0.65822 0.54862 0.67263 0.0
C718 C 0.65307 0.56278 0.69402 0.0
C719 C 0.63849 0.5517 0.71583 0.0
H720 H 0.66943 0.55726 0.65577 0.0
H721 H 0.50413 0.44495 0.85881 0.0
H722 H 0.78777 0.09674 0.71858 0.0
H723 H 0.84956 0.08362 0.74421 0.0
H724 H 0.80669 1.00787 0.739 0.0
H725 H 0.74579 0.02068 0.71288 0.0
H726 H 0.83265 0.0265 0.78909 0.0
H727 H 0.88072 0.02118 0.70353 0.0
H728 H 0.89356 0.03897 0.66225 0.0
H729 H 0.97901 0.09333 0.69371 0.0
H730 H 0.966 0.07611 0.73527 0.0
H731 H 1.00375 0.95013 0.82489 0.0
H732 H 0.94429 0.97093 0.8042 0.0
H733 H 0.02576 0.03479 0.792 0.0
H734 H 0.08686 0.01326 0.81155 0.0
H735 H 0.98098 0.028 0.75302 0.0
H736 H 0.94029 0.03284 0.83754 0.0
H737 H 0.92491 0.01902 0.88005 0.0
H738 H 0.82554 0.97016 0.85314 0.0
H739 H 0.84054 0.98353 0.81045 0.0
C740 C 0.79125 0.07734 0.72318 0.0
C741 C 0.76196 0.05972 0.71375 0.0
C742 C 0.82661 0.06988 0.73771 0.0
C743 C 0.83266 0.04478 0.74341 0.0
C744 C 0.80252 0.02732 0.73482 0.0
C745 C 0.76782 0.03467 0.71988 0.0
C746 C 0.87124 0.03637 0.75753 0.0
C747 C 0.86512 0.02665 0.78124 0.0
C748 C 0.91367 0.03746 0.74754 0.0
C749 C 0.92196 0.04756 0.72253 0.0
C750 C 0.90191 0.03707 0.70167 0.0
C751 C 0.90927 0.04702 0.67822 0.0
C752 C 0.93698 0.06732 0.67537 0.0
C753 C 0.95749 0.07764 0.69595 0.0
C754 C 0.95013 0.0678 0.71946 0.0
C755 C 0.00943 0.96851 0.81769 0.0
C756 C 0.05047 0.97987 0.81978 0.0
C757 C 0.97495 0.98061 0.8061 0.0
C758 C 0.97992 1.00476 0.79696 0.0
C759 C 0.02087 0.01621 0.79896 0.0
C760 C 0.05583 1.00388 0.81017 0.0
C761 C 0.9426 0.01749 0.7847 0.0
C762 C 0.94881 0.02806 0.76123 0.0
C763 C 0.90024 0.01759 0.79515 0.0
C764 C 0.89172 1.00911 0.82077 0.0
C765 C 0.91539 0.019 0.84067 0.0
C766 C 0.90666 0.01129 0.8648 0.0
C767 C 0.87425 0.99373 0.86928 0.0
C768 C 0.85059 0.98378 0.84964 0.0
C769 C 0.85913 0.99146 0.82548 0.0
H770 H 0.86736 0.98786 0.88798 0.0
H771 H 0.94264 0.075 0.65719 0.0
H772 H 0.23493 0.51925 0.81355 0.0
H773 H 0.17407 0.50875 0.78676 0.0
H774 H 0.19233 0.57661 0.74629 0.0
H775 H 0.25437 0.58725 0.77303 0.0
H776 H 0.09981 0.56265 0.7618 0.0
H777 H 0.2247 0.53166 0.71784 0.0
H778 H 0.29405 0.50906 0.71431 0.0
H779 H 0.23098 0.44204 0.73733 0.0
H780 H 0.16136 0.46433 0.74137 0.0
H781 H 0.94349 0.51734 0.6736 0.0
H782 H 1.00563 0.53759 0.69352 0.0
H783 H 0.04486 0.4675 0.72454 0.0
H784 H 0.98467 0.44728 0.7037 0.0
H785 H 0.11227 0.4882 0.70873 0.0
H786 H 0.99196 0.51746 0.75821 0.0
H787 H 0.92183 0.53833 0.7656 0.0
H788 H 0.97385 0.60605 0.7365 0.0
H789 H 0.04416 0.58548 0.72867 0.0
C790 C 0.22608 0.53208 0.79905 0.0
C791 C 0.24964 0.5541 0.79542 0.0
C792 C 0.19125 0.526 0.78373 0.0
C793 C 0.17878 0.54187 0.76454 0.0
C794 C 0.2015 0.56414 0.76104 0.0
C795 C 0.237 0.57012 0.77623 0.0
C796 C 0.14265 0.53443 0.74796 0.0
C797 C 0.10259 0.54669 0.74976 0.0
C798 C 0.14616 0.51325 0.7328 0.0
C799 C 0.18787 0.49972 0.73006 0.0
C800 C 0.22568 0.51215 0.72232 0.0
C801 C 0.26503 0.49938 0.7202 0.0
C802 C 0.26694 0.47414 0.72563 0.0
C803 C 0.22946 0.46159 0.73313 0.0
C804 C 0.19003 0.47428 0.73531 0.0
C805 C 0.9653 0.50635 0.6848 0.0
C806 C 0.95919 0.48065 0.68701 0.0
C807 C 1.00079 0.51795 0.69628 0.0
C808 C 0.03006 0.50418 0.71079 0.0
C809 C 0.02322 0.47861 0.71332 0.0
C810 C 0.98855 0.467 0.70142 0.0
C811 C 0.06846 0.51588 0.72303 0.0
C812 C 0.10923 0.5044 0.72042 0.0
C813 C 0.06526 0.53748 0.73781 0.0
C814 C 0.02311 0.54987 0.74259 0.0
C815 C 0.98832 0.53676 0.75323 0.0
C816 C 0.94857 0.54854 0.75752 0.0
C817 C 0.94334 0.57348 0.75145 0.0
C818 C 0.97792 0.58672 0.74114 0.0
C819 C 0.01773 0.57502 0.73679 0.0
H820 H 0.91254 0.58257 0.75478 0.0
H821 H 0.29744 0.46429 0.72399 0.0
H822 H 0.24892 1.00043 0.79216 0.0
H823 H 0.31031 0.01279 0.76619 0.0
H824 H 0.35012 0.9366 0.75998 0.0
H825 H 0.2879 0.92394 0.78555 0.0
H826 H 0.41794 0.97395 0.77523 0.0
H827 H 0.3122 0.95718 0.71198 0.0
H828 H 0.24025 0.96032 0.69218 0.0
H829 H 0.25517 0.03908 0.68627 0.0
H830 H 0.32696 0.03645 0.7064 0.0
H831 H 0.58743 1.00777 0.69098 0.0
H832 H 0.52718 0.98619 0.71127 0.0
H833 H 0.44709 0.05127 0.70359 0.0
H834 H 0.50595 0.07238 0.68243 0.0
H835 H 0.40034 0.01381 0.69336 0.0
H836 H 0.49855 0.03318 0.7597 0.0
H837 H 0.56853 0.03317 0.78192 0.0
H838 H 0.56633 0.9538 0.78488 0.0
H839 H 0.49655 0.95334 0.76238 0.0
C840 C 0.27042 0.98625 0.78505 0.0
C841 C 0.26347 0.96119 0.79082 0.0
C842 C 0.30548 0.99335 0.77023 0.0
C843 C 0.33471 0.97561 0.7612 0.0
C844 C 0.32786 0.95055 0.76679 0.0
C845 C 0.29219 0.94335 0.78124 0.0
C846 C 0.37287 0.9836 0.74644 0.0
C847 C 0.41437 0.98221 0.7571 0.0
C848 C 0.36786 0.995 0.72315 0.0
C849 C 0.32482 0.99663 0.71089 0.0
C850 C 0.29998 0.97519 0.70666 0.0
C851 C 0.25926 0.97688 0.69533 0.0
C852 C 0.2431 0.99989 0.68802 0.0
C853 C 0.26771 0.02126 0.69196 0.0
C854 C 0.30844 0.01968 0.7033 0.0
C855 C 0.55701 0.0175 0.69367 0.0
C856 C 0.5519 0.04197 0.68528 0.0
C857 C 0.52257 1.00515 0.70537 0.0
C858 C 0.48257 0.01716 0.70933 0.0
C859 C 0.47746 0.0415 0.7008 0.0
C860 C 0.51148 0.05368 0.68883 0.0
C861 C 0.44576 1.00467 0.72229 0.0
C862 C 0.40433 1.00524 0.71133 0.0
C863 C 0.45074 0.99298 0.74556 0.0
C864 C 0.49263 0.99321 0.7591 0.0
C865 C 0.51317 0.01572 0.76492 0.0
C866 C 0.55276 0.0158 0.77759 0.0
C867 C 0.57194 0.9935 0.78474 0.0
C868 C 0.55148 0.97106 0.77929 0.0
C869 C 0.51191 0.97088 0.76659 0.0
H870 H 0.60258 0.9936 0.79455 0.0
H871 H 0.21156 1.00116 0.67925 0.0
H872 H 0.13409 0.52499 0.42615 0.0
H873 H 0.09709 0.50789 0.46167 0.0
H874 H 0.00874 0.56981 0.46216 0.0
H875 H 0.04771 0.58806 0.42693 0.0
H876 H 0.02831 0.55545 0.50871 0.0
H877 H 0.98115 0.51427 0.43494 0.0
H878 H 0.99334 0.49264 0.39547 0.0
H879 H 0.05775 0.43351 0.43368 0.0
H880 H 0.04669 0.45503 0.47336 0.0
H881 H 0.87103 0.49644 0.58144 0.0
H882 H 0.90633 0.51478 0.54577 0.0
H883 H 1.00073 0.45584 0.54527 0.0
H884 H 0.96472 0.4368 0.581 0.0
H885 H 0.97591 0.46916 0.4983 0.0
H886 H 0.02488 0.5107 0.57167 0.0
H887 H 0.01376 0.53238 0.61124 0.0
H888 H 0.94581 0.59067 0.57372 0.0
H889 H 0.95588 0.56911 0.53396 0.0
C890 C 0.10747 0.53542 0.43397 0.0
C891 C 0.09397 0.55798 0.42351 0.0
C892 C 0.08595 0.52538 0.45425 0.0
C893 C 0.04932 0.53715 0.4642 0.0
C894 C 0.03673 0.56027 0.45464 0.0
C895 C 0.059 0.57067 0.4345 0.0
C896 C 0.02349 0.52454 0.48378 0.0
C897 C 0.01626 0.53675 0.50628 0.0
C898 C 0.00844 0.49988 0.48084 0.0
C899 C 0.01332 0.48635 0.45712 0.0
C900 C 0.99799 0.49667 0.43493 0.0
C901 C 1.00475 0.48444 0.41251 0.0
C902 C 0.02639 0.46172 0.41206 0.0
C903 C 0.04103 0.45111 0.43406 0.0
C904 C 0.03448 0.46331 0.45652 0.0
C905 C 0.89889 0.48704 0.57365 0.0
C906 C 0.9151 0.46513 0.58431 0.0
C907 C 0.91922 0.4977 0.55325 0.0
C908 C 0.95673 0.48701 0.54315 0.0
C909 C 0.97193 0.4645 0.55287 0.0
C910 C 0.9513 0.45363 0.57329 0.0
C911 C 0.98093 0.50004 0.52322 0.0
C912 C 0.98781 0.4879 0.50067 0.0
C913 C 0.99559 0.52475 0.5261 0.0
C914 C 0.99084 0.53819 0.54986 0.0
C915 C 0.00742 0.52809 0.57187 0.0
C916 C 1.00128 0.54035 0.59433 0.0
C917 C 0.979 0.56286 0.595 0.0
C918 C 0.96302 0.57322 0.57318 0.0
C919 C 0.96897 0.561 0.55067 0.0
H920 H 0.97418 0.57229 0.61241 0.0
H921 H 0.03182 0.45233 0.39469 0.0
H922 H 0.38302 0.99851 0.42226 0.0
H923 H 0.41908 0.01686 0.45768 0.0
H924 H 0.49784 0.95144 0.46603 0.0
H925 H 0.46106 0.93248 0.43051 0.0
H926 H 0.47131 0.97035 0.51097 0.0
H927 H 0.53893 1.00123 0.43744 0.0
H928 H 0.53955 0.02007 0.39599 0.0
H929 H 0.48224 0.08628 0.42527 0.0
H930 H 0.48061 0.06768 0.46686 0.0
H931 H 0.63288 0.02335 0.58524 0.0
H932 H 0.59666 1.00482 0.54996 0.0
H933 H 0.51705 0.06993 0.5418 0.0
H934 H 0.55386 0.08905 0.57722 0.0
H935 H 0.54418 0.05111 0.49676 0.0
H936 H 0.47656 0.02011 0.57033 0.0
H937 H 0.47623 1.00122 0.61176 0.0
H938 H 0.53392 0.93518 0.58235 0.0
H939 H 0.53525 0.95382 0.54078 0.0
C940 C 0.40757 0.98774 0.43171 0.0
C941 C 0.41925 0.96398 0.42332 0.0
C942 C 0.42836 0.9984 0.45196 0.0
C943 C 0.46179 0.98577 0.46422 0.0
C944 C 0.47227 0.96159 0.45674 0.0
C945 C 0.45121 0.95077 0.43643 0.0
C946 C 0.4867 0.99839 0.48413 0.0
C947 C 0.48775 0.98782 0.50777 0.0
C948 C 0.5074 0.0215 0.48012 0.0
C949 C 0.50933 0.03298 0.45524 0.0
C950 C 0.52625 0.01976 0.43503 0.0
C951 C 0.52678 0.0304 0.4115 0.0
C952 C 0.51085 0.05434 0.40799 0.0
C953 C 0.49453 0.06773 0.42802 0.0
C954 C 0.49383 0.05716 0.45158 0.0
C955 C 0.60808 0.03401 0.57588 0.0
C956 C 0.59621 0.05774 0.58428 0.0
C957 C 0.58721 0.02325 0.5557 0.0
C958 C 0.55356 0.03575 0.54351 0.0
C959 C 0.54281 0.05988 0.55103 0.0
C960 C 0.56389 0.07079 0.57128 0.0
C961 C 0.52875 0.02308 0.52359 0.0
C962 C 0.52773 0.03364 0.49995 0.0
C963 C 0.50812 0.99996 0.5276 0.0
C964 C 0.50633 0.98844 0.55246 0.0
C965 C 0.48939 1.0016 0.57271 0.0
C966 C 0.48902 0.99094 0.59623 0.0
C967 C 0.50514 0.96704 0.5997 0.0
C968 C 0.52149 0.9537 0.57963 0.0
C969 C 0.52202 0.9643 0.55608 0.0
H970 H 0.50489 0.95883 0.61792 0.0
H971 H 0.51124 0.06253 0.38975 0.0
H972 H 0.62524 0.49874 0.09052 0.0
H973 H 0.5917 0.51757 0.05446 0.0
H974 H 0.52681 0.44885 0.0378 0.0
H975 H 0.56049 0.42961 0.07406 0.0
H976 H 0.56236 0.47082 0.99656 0.0
H977 H 0.47146 0.49531 0.06431 0.0
H978 H 0.45666 0.51315 0.10536 0.0
H979 H 0.50754 0.58313 0.08142 0.0
H980 H 0.52329 0.5656 0.04032 0.0
H981 H 0.40748 0.51454 0.91181 0.0
H982 H 0.44541 0.49679 0.9468 0.0
H983 H 0.4981 0.56844 0.96504 0.0
H984 H 0.45911 0.58673 0.92994 0.0
H985 H 0.47086 0.54585 0.00564 0.0
H986 H 0.56233 0.52207 0.93837 0.0
H987 H 0.58554 0.50368 0.89882 0.0
H988 H 0.53778 0.43278 0.92211 0.0
H989 H 0.51394 0.45077 0.96171 0.0
C990 C 0.60402 0.48746 0.07921 0.0
C991 C 0.59555 0.46257 0.08535 0.0
C992 C 0.58466 0.49837 0.05861 0.0
C993 C 0.5562 0.48477 0.04363 0.0
C994 C 0.54853 0.45974 0.04919 0.0
C995 C 0.56786 0.44876 0.06991 0.0
C996 C 0.5346 0.49675 0.02216 0.0
C997 C 0.54176 0.48699 0.99855 0.0
C998 C 0.50898 0.51838 0.02471 0.0
C999 C 0.49891 0.52907 0.04929 0.0
C1000 C 0.47977 0.51446 0.06784 0.0
C1001 C 0.47117 0.52452 0.09112 0.0
C1002 C 0.48124 0.54924 0.09601 0.0
C1003 C 0.4998 0.56398 0.07761 0.0
C1004 C 0.50853 0.55399 0.05431 0.0
C1005 C 0.42703 0.52671 0.92316 0.0
C1006 C 0.43001 0.55221 0.91794 0.0
C1007 C 0.44912 0.51638 0.94315 0.0
C1008 C 0.47532 0.53112 0.95841 0.0
C1009 C 0.47824 0.55663 0.95347 0.0
C1010 C 0.45592 0.56708 0.93339 0.0
C1011 C 0.49834 0.51981 0.97987 0.0
C1012 C 0.49144 0.52969 0.00355 0.0
C1013 C 0.52441 0.4983 0.97738 0.0
C1014 C 0.53611 0.48781 0.95295 0.0
C1015 C 0.55625 0.50263 0.93493 0.0
C1016 C 0.56973 0.49225 0.91256 0.0
C1017 C 0.56332 0.46706 0.90803 0.0
C1018 C 0.54286 0.45227 0.9257 0.0
C1019 C 0.5294 0.46254 0.94811 0.0
H1020 H 0.57434 0.45896 0.89088 0.0
H1021 H 0.47459 0.557 0.11405 0.0
H1022 H 0.06739 0.93004 0.93188 0.0
H1023 H 0.0325 0.94796 0.96844 0.0
H1024 H 0.08812 0.0191 0.95099 0.0
H1025 H 0.12387 1.00139 0.91511 0.0
H1026 H 0.08959 0.01214 0.99935 0.0
H1027 H 0.98538 1.00208 0.93407 0.0
H1028 H 0.94643 0.97728 0.90302 0.0
H1029 H 0.88768 0.93397 0.96048 0.0
H1030 H 0.92812 0.95767 0.99191 0.0
H1031 H 0.95077 0.08738 0.07234 0.0
H1032 H 0.98651 0.06941 0.03609 0.0
H1033 H 0.93011 0.99835 0.05308 0.0
H1034 H 0.89358 0.01611 0.08868 0.0
H1035 H 0.92897 1.00537 0.00485 0.0
H1036 H 0.0354 0.0137 0.06973 0.0
H1037 H 0.0766 0.03711 0.10105 0.0
H1038 H 0.12976 0.08375 0.0444 0.0
H1039 H 0.08827 0.06087 0.01277 0.0
C1040 C 0.07269 0.94941 0.93602 0.0
C1041 C 0.0982 0.96425 0.92034 0.0
C1042 C 0.05257 0.95967 0.95688 0.0
C1043 C 0.05707 0.98502 0.96227 0.0
C1044 C 0.08402 0.99954 0.94725 0.0
C1045 C 0.10432 0.98932 0.92658 0.0
C1046 C 0.03196 0.99691 0.9826 0.0
C1047 C 0.05444 0.01082 1.00041 0.0
C1048 C 0.98606 0.99504 0.98419 0.0
C1049 C 0.96017 0.98151 0.96537 0.0
C1050 C 0.96437 0.98717 0.94011 0.0
C1051 C 0.94207 0.97328 0.92243 0.0
C1052 C 0.91439 0.95415 0.92976 0.0
C1053 C 0.90912 0.9488 0.95482 0.0
C1054 C 0.93191 0.96238 0.97258 0.0
C1055 C 0.94552 0.06801 0.06818 0.0
C1056 C 0.91947 0.05323 0.08363 0.0
C1057 C 0.96619 0.05771 0.04751 0.0
C1058 C 0.96161 0.03238 0.04204 0.0
C1059 C 0.93428 0.01789 0.05687 0.0
C1060 C 0.91349 0.02814 0.07737 0.0
C1061 C 0.98663 0.02054 0.02164 0.0
C1062 C 0.96412 1.00667 0.00379 0.0
C1063 C 0.03249 0.02242 0.02001 0.0
C1064 C 0.05844 0.03572 0.03891 0.0
C1065 C 0.05574 0.02902 0.06396 0.0
C1066 C 0.07912 0.04219 0.08177 0.0
C1067 C 0.1057 0.06193 0.07472 0.0
C1068 C 0.10911 0.06847 0.04984 0.0
C1069 C 0.08569 0.0554 0.03196 0.0
H1070 H 0.12371 0.07214 0.08854 0.0
H1071 H 0.89706 0.94347 0.91602 0.0
H1072 H 0.14409 0.67859 0.36708 0.0
H1073 H 0.17457 0.71995 0.37064 0.0
H1074 H 0.2774 0.69186 0.41684 0.0
H1075 H 0.24671 0.64998 0.41353 0.0
H1076 H 0.24532 0.73791 0.43308 0.0
H1077 H 0.29844 0.70141 0.3582 0.0
H1078 H 0.29095 0.67937 0.31856 0.0
H1079 H 0.21153 0.73823 0.29036 0.0
H1080 H 0.21794 0.76044 0.32999 0.0
H1081 H 0.38412 0.84096 0.36844 0.0
H1082 H 0.35721 0.79881 0.37242 0.0
H1083 H 0.24538 0.82541 0.41248 0.0
H1084 H 0.27257 0.86794 0.40886 0.0
H1085 H 0.28661 0.77866 0.35438 0.0
H1086 H 0.21018 0.77923 0.45194 0.0
H1087 H 0.22059 0.79986 0.49214 0.0
H1088 H 0.3557 0.81113 0.47555 0.0
H1089 H 0.34623 0.79029 0.43541 0.0
C1090 C 0.17303 0.68107 0.37818 0.0
C1091 C 0.19313 0.66079 0.38986 0.0
C1092 C 0.19043 0.70483 0.38018 0.0
C1093 C 0.22855 0.70901 0.39375 0.0
C1094 C 0.24794 0.68906 0.40624 0.0
C1095 C 0.23046 0.66512 0.40426 0.0
C1096 C 0.24907 0.73397 0.39359 0.0
C1097 C 0.25442 0.74684 0.4159 0.0
C1098 C 0.26149 0.74553 0.37121 0.0
C1099 C 0.2584 0.7325 0.34714 0.0
C1100 C 0.27918 0.70959 0.34359 0.0
C1101 C 0.27513 0.69707 0.32113 0.0
C1102 C 0.25069 0.70737 0.30198 0.0
C1103 C 0.23041 0.73027 0.30522 0.0
C1104 C 0.23427 0.74284 0.32768 0.0
C1105 C 0.35392 0.83796 0.37829 0.0
C1106 C 0.33054 0.85796 0.38833 0.0
C1107 C 0.3385 0.81375 0.38048 0.0
C1108 C 0.29932 0.80879 0.39282 0.0
C1109 C 0.27601 0.82866 0.40315 0.0
C1110 C 0.29152 0.85301 0.401 0.0
C1111 C 0.28243 0.78292 0.39388 0.0
C1112 C 0.27762 0.76983 0.37163 0.0
C1113 C 0.27115 0.77111 0.41636 0.0
C1114 C 0.27735 0.78342 0.44057 0.0
C1115 C 0.24214 0.78603 0.45691 0.0
C1116 C 0.24787 0.79778 0.47968 0.0
C1117 C 0.28874 0.80687 0.48636 0.0
C1118 C 0.32402 0.80417 0.47032 0.0
C1119 C 0.31847 0.79242 0.44754 0.0
H1120 H 0.2931 0.81598 0.50398 0.0
H1121 H 0.24754 0.69763 0.28461 0.0
H1122 H 0.7762 0.14942 0.09107 0.0
H1123 H 0.74648 0.19146 0.08766 0.0
H1124 H 0.8419 0.21764 0.13979 0.0
H1125 H 0.8715 0.17606 0.14337 0.0
H1126 H 0.76283 0.23456 0.15144 0.0
H1127 H 0.85224 0.23012 0.07886 0.0
H1128 H 0.87783 0.21252 0.03945 0.0
H1129 H 0.75115 0.22298 0.00783 0.0
H1130 H 0.72464 0.24034 0.04719 0.0
H1131 H 0.74511 0.367 0.09874 0.0
H1132 H 0.77504 0.32503 0.09526 0.0
H1133 H 0.65749 0.29518 0.12684 0.0
H1134 H 0.62769 0.33675 0.13063 0.0
H1135 H 0.75005 0.28087 0.07266 0.0
H1136 H 0.68482 0.25068 0.16789 0.0
H1137 H 0.66224 0.26993 0.20717 0.0
H1138 H 0.74905 0.33075 0.19405 0.0
H1139 H 0.77273 0.31165 0.15494 0.0
C1140 C 0.79098 0.16416 0.10169 0.0
C1141 C 0.82633 0.15927 0.11745 0.0
C1142 C 0.77403 0.18821 0.09968 0.0
C1143 C 0.79204 0.20779 0.11342 0.0
C1144 C 0.82735 0.2029 0.12905 0.0
C1145 C 0.84438 0.17902 0.13097 0.0
C1146 C 0.77376 0.23331 0.11216 0.0
C1147 C 0.75995 0.2446 0.13418 0.0
C1148 C 0.77047 0.24667 0.08973 0.0
C1149 C 0.78634 0.23629 0.06605 0.0
C1150 C 0.82974 0.22848 0.06357 0.0
C1151 C 0.84443 0.21858 0.04123 0.0
C1152 C 0.8161 0.21657 0.02117 0.0
C1153 C 0.77304 0.22451 0.02339 0.0
C1154 C 0.75818 0.2344 0.04571 0.0
C1155 C 0.72544 0.35147 0.10466 0.0
C1156 C 0.68418 0.35533 0.11523 0.0
C1157 C 0.74255 0.32748 0.10259 0.0
C1158 C 0.71876 0.30696 0.1111 0.0
C1159 C 0.67674 0.31072 0.12048 0.0
C1160 C 0.65974 0.33458 0.12263 0.0
C1161 C 0.73868 0.28185 0.11187 0.0
C1162 C 0.75277 0.2707 0.08986 0.0
C1163 C 0.74284 0.26868 0.13436 0.0
C1164 C 0.73022 0.27982 0.15837 0.0
C1165 C 0.69933 0.26806 0.17349 0.0
C1166 C 0.68631 0.27897 0.19571 0.0
C1167 C 0.70409 0.30159 0.20306 0.0
C1168 C 0.73521 0.31327 0.1883 0.0
C1169 C 0.74845 0.30241 0.16611 0.0
H1170 H 0.69381 0.31005 0.2202 0.0
H1171 H 0.82754 0.20891 0.00388 0.0
H1172 H 0.75715 0.15114 0.60746 0.0
H1173 H 0.78517 0.19345 0.60299 0.0
H1174 H 0.65757 0.22256 0.61856 0.0
H1175 H 0.62947 0.18055 0.62316 0.0
H1176 H 0.69945 0.24786 0.58021 0.0
H1177 H 0.72911 0.22034 0.66327 0.0
H1178 H 0.75927 0.19184 0.6944 0.0
H1179 H 0.88772 0.20364 0.66557 0.0
H1180 H 0.85818 0.23191 0.63398 0.0
H1181 H 0.74903 0.37184 0.6157 0.0
H1182 H 0.72288 0.32928 0.61143 0.0
H1183 H 0.85539 0.30302 0.61031 0.0
H1184 H 0.88146 0.34533 0.61563 0.0
H1185 H 0.81269 0.27533 0.63934 0.0
H1186 H 0.78486 0.30421 0.55725 0.0
H1187 H 0.75533 0.33201 0.5253 0.0
H1188 H 0.62558 0.31738 0.55072 0.0
H1189 H 0.65436 0.28973 0.58304 0.0
C1190 C 0.73496 0.16655 0.6096 0.0
C1191 C 0.69113 0.16244 0.6158 0.0
C1192 C 0.75104 0.19072 0.60714 0.0
C1193 C 0.72352 0.2112 0.61062 0.0
C1194 C 0.67941 0.20709 0.61578 0.0
C1195 C 0.66346 0.18301 0.61851 0.0
C1196 C 0.74089 0.23694 0.61028 0.0
C1197 C 0.72403 0.25396 0.59321 0.0
C1198 C 0.77353 0.24478 0.62694 0.0
C1199 C 0.79137 0.22802 0.64609 0.0
C1200 C 0.76374 0.2167 0.66344 0.0
C1201 C 0.78072 0.20061 0.68119 0.0
C1202 C 0.82537 0.19588 0.68192 0.0
C1203 C 0.85313 0.20729 0.66495 0.0
C1204 C 0.83629 0.22335 0.64713 0.0
C1205 C 0.77257 0.35702 0.61415 0.0
C1206 C 0.81733 0.362 0.61597 0.0
C1207 C 0.75759 0.33263 0.61164 0.0
C1208 C 0.78708 0.31274 0.61029 0.0
C1209 C 0.83184 0.31787 0.61139 0.0
C1210 C 0.84676 0.34215 0.61432 0.0
C1211 C 0.77153 0.28652 0.6091 0.0
C1212 C 0.78852 0.26933 0.62605 0.0
C1213 C 0.73924 0.27852 0.59218 0.0
C1214 C 0.72181 0.29507 0.57271 0.0
C1215 C 0.75005 0.30705 0.55614 0.0
C1216 C 0.73344 0.32276 0.53794 0.0
C1217 C 0.68862 0.32651 0.53602 0.0
C1218 C 0.66029 0.31449 0.55225 0.0
C1219 C 0.67673 0.29877 0.57049 0.0
H1220 H 0.67582 0.33868 0.52193 0.0
H1221 H 0.83847 0.18342 0.69567 0.0
H1222 H 0.24609 0.64938 0.89031 0.0
H1223 H 0.22081 0.69228 0.89332 0.0
H1224 H 0.35327 0.71735 0.90038 0.0
H1225 H 0.37892 0.67457 0.89685 0.0
H1226 H 0.28875 0.74217 0.93297 0.0
H1227 H 0.31734 0.72222 0.84789 0.0
H1228 H 0.31151 0.69637 0.81055 0.0
H1229 H 0.17289 0.7059 0.8105 0.0
H1230 H 0.17788 0.73155 0.84811 0.0
H1231 H 0.25415 0.86948 0.90032 0.0
H1232 H 0.28175 0.82716 0.90476 0.0
H1233 H 0.15891 0.79844 0.87911 0.0
H1234 H 0.13165 0.84043 0.87412 0.0
H1235 H 0.22125 0.77527 0.85662 0.0
H1236 H 0.19201 0.79592 0.94129 0.0
H1237 H 0.19719 0.82066 0.97943 0.0
H1238 H 0.33536 0.80938 0.98115 0.0
H1239 H 0.33107 0.78483 0.94281 0.0
C1240 C 0.2698 0.66395 0.89301 0.0
C1241 C 0.31453 0.65856 0.89328 0.0
C1242 C 0.25531 0.68847 0.89464 0.0
C1243 C 0.28519 0.70801 0.89697 0.0
C1244 C 0.32968 0.70256 0.89865 0.0
C1245 C 0.34425 0.67811 0.89656 0.0
C1246 C 0.27025 0.73414 0.89553 0.0
C1247 C 0.27438 0.74956 0.91624 0.0
C1248 C 0.25103 0.74363 0.8738 0.0
C1249 C 0.24793 0.72857 0.85096 0.0
C1250 C 0.28557 0.71863 0.84004 0.0
C1251 C 0.28244 0.70404 0.81881 0.0
C1252 C 0.24183 0.69941 0.80821 0.0
C1253 C 0.20431 0.70946 0.81877 0.0
C1254 C 0.20728 0.72405 0.84003 0.0
C1255 C 0.23292 0.85414 0.89584 0.0
C1256 C 0.19067 0.85843 0.88685 0.0
C1257 C 0.2487 0.8299 0.89845 0.0
C1258 C 0.22237 0.80945 0.89243 0.0
C1259 C 0.18002 0.81379 0.8838 0.0
C1260 C 0.16439 0.83791 0.88102 0.0
C1261 C 0.23903 0.78353 0.89426 0.0
C1262 C 0.23545 0.76805 0.87348 0.0
C1263 C 0.25861 0.77403 0.91599 0.0
C1264 C 0.26127 0.78876 0.93904 0.0
C1265 C 0.22355 0.79889 0.94969 0.0
C1266 C 0.22631 0.81284 0.97136 0.0
C1267 C 0.2666 0.81665 0.98266 0.0
C1268 C 0.30419 0.80645 0.97235 0.0
C1269 C 0.30161 0.7925 0.95066 0.0
H1270 H 0.26867 0.82745 0.99944 0.0
H1271 H 0.23946 0.68808 0.79178 0.0
loop_
_geom_bond_atom_site_label_1
_geom_bond_atom_site_label_2
_geom_bond_distance
_geom_bond_site_symmetry_2
_ccdc_geom_bond_type
Co0 O2 2.143 . S
Co0 O8 2.074 . S
Co0 O11 2.093 . S
Co0 O24 2.097 . S
Co0 N41 2.151 . S
Co0 N49 2.214 . S
Co1 O2 2.160 . S
Co1 O7 2.058 . S
Co1 O17 2.057 . S
Co1 O32 2.037 . S
Co1 N36 2.145 . S
Co1 N57 2.257 . S
O2 Co0 2.143 . S
O2 Co1 2.160 . S
C3 O4 1.278 . S
C3 O11 1.224 . S
O4 C3 1.278 . S
C5 O6 1.245 . S
C5 O17 1.232 . S
O6 C5 1.245 . S
O7 Co1 2.058 . S
O7 C33 1.269 . S
O8 Co0 2.074 . S
O8 C33 1.257 . S
H9 C34 0.930 . S
H10 C40 0.930 . S
O11 Co0 2.093 . S
O11 C3 1.224 . S
H12 C44 0.929 . S
H13 C46 0.930 . S
H14 C47 0.930 . S
H15 C45 0.929 . S
H16 C48 0.928 . S
O17 Co1 2.057 . S
O17 C5 1.232 . S
H18 C37 0.929 . S
H19 C38 0.929 . S
H20 C50 0.931 . S
H21 C42 0.929 . S
H22 C51 0.930 . S
H23 C43 0.931 . S
O24 Co0 2.097 . S
O24 C52 1.214 . S
H25 C53 0.929 . S
H26 C54 0.929 . S
H27 C55 0.930 . S
H28 C56 0.929 . S
H29 C58 0.930 . S
H30 C35 0.930 . S
H31 C39 0.930 . S
O32 Co1 2.037 . S
O32 C52 1.234 . S
C33 O7 1.269 . S
C33 O8 1.257 . S
C34 H9 0.930 . S
C34 C37 1.388 1_655 S
C34 C39 1.418 . S
C35 H30 0.930 . S
C35 C38 1.404 . S
C35 C39 1.353 1_455 S
N36 Co1 2.145 . S
N36 C37 1.397 . S
N36 C38 1.334 . S
C37 H18 0.929 . S
C37 C34 1.388 1_455 S
C37 N36 1.397 . S
C38 H19 0.929 . S
C38 C35 1.404 . S
C38 N36 1.334 . S
C39 H31 0.930 . S
C39 C34 1.418 . S
C39 C35 1.353 1_655 S
C40 H10 0.930 . S
C40 N41 1.330 . S
C40 C42 1.446 . S
N41 Co0 2.151 . S
N41 C40 1.330 . S
N41 C45 1.418 . S
C42 H21 0.929 . S
C42 C40 1.446 . S
C42 C43 1.332 . S
C43 H23 0.931 . S
C43 C42 1.332 . S
C43 C44 1.267 . S
C44 H12 0.929 . S
C44 C43 1.267 . S
C44 C45 1.251 . S
C45 H15 0.929 . S
C45 N41 1.418 . S
C45 C44 1.251 . S
C46 H13 0.930 . S
C46 C48 1.406 . S
C46 C51 1.261 . S
C47 H14 0.930 . S
C47 N49 1.325 . S
C47 C50 1.357 . S
C48 H16 0.928 . S
C48 C46 1.406 . S
C48 N49 1.261 . S
N49 Co0 2.214 . S
N49 C47 1.325 . S
N49 C48 1.261 . S
C50 H20 0.931 . S
C50 C47 1.357 . S
C50 C51 1.312 . S
C51 H22 0.930 . S
C51 C46 1.261 . S
C51 C50 1.312 . S
C52 O24 1.214 . S
C52 O32 1.234 . S
C53 H25 0.929 . S
C53 C56 1.391 . S
C53 C58 1.391 . S
C54 H26 0.929 . S
C54 C55 1.390 . S
C54 N57 1.391 . S
C55 H27 0.930 . S
C55 C54 1.390 . S
C55 C56 1.392 . S
C56 H28 0.929 . S
C56 C53 1.391 . S
C56 C55 1.392 . S
N57 Co1 2.257 . S
N57 C54 1.391 . S
N57 C58 1.388 . S
C58 H29 0.930 . S
C58 C53 1.391 . S
C58 N57 1.388 . S
Co59 O61 2.143 . S
Co59 O67 2.074 . S
Co59 O70 2.093 . S
Co59 O83 2.097 . S
Co59 N100 2.151 . S
Co59 N108 2.214 1_565 S
Co60 O61 2.160 . S
Co60 O66 2.058 . S
Co60 O76 2.057 . S
Co60 O91 2.037 . S
Co60 N95 2.145 . S
Co60 N116 2.257 . S
O61 Co59 2.143 . S
O61 Co60 2.160 . S
C62 O63 1.278 . S
C62 O70 1.224 . S
O63 C62 1.278 . S
C64 O65 1.245 . S
C64 O76 1.232 . S
O65 C64 1.245 . S
O66 Co60 2.058 . S
O66 C92 1.269 . S
O67 Co59 2.074 . S
O67 C92 1.257 . S
H68 C93 0.930 . S
H69 C99 0.930 . S
O70 Co59 2.093 . S
O70 C62 1.224 . S
H71 C103 0.929 . S
H72 C105 0.930 . S
H73 C106 0.930 . S
H74 C104 0.929 . S
H75 C107 0.928 . S
O76 Co60 2.057 . S
O76 C64 1.232 . S
H77 C96 0.929 . S
H78 C97 0.929 . S
H79 C109 0.931 . S
H80 C101 0.929 . S
H81 C110 0.930 . S
H82 C102 0.931 . S
O83 Co59 2.097 . S
O83 C111 1.214 . S
H84 C112 0.929 . S
H85 C113 0.929 . S
H86 C114 0.930 . S
H87 C115 0.929 . S
H88 C117 0.930 . S
H89 C94 0.930 . S
H90 C98 0.930 . S
O91 Co60 2.037 . S
O91 C111 1.234 . S
C92 O66 1.269 . S
C92 O67 1.257 . S
C93 H68 0.930 . S
C93 C96 1.388 . S
C93 C98 1.418 . S
C94 H89 0.930 . S
C94 C97 1.404 . S
C94 C98 1.353 . S
N95 Co60 2.145 . S
N95 C96 1.397 . S
N95 C97 1.334 . S
C96 H77 0.929 . S
C96 C93 1.388 . S
C96 N95 1.397 . S
C97 H78 0.929 . S
C97 C94 1.404 . S
C97 N95 1.334 . S
C98 H90 0.930 . S
C98 C93 1.418 . S
C98 C94 1.353 . S
C99 H69 0.930 . S
C99 N100 1.330 . S
C99 C101 1.446 . S
N100 Co59 2.151 . S
N100 C99 1.330 . S
N100 C104 1.418 . S
C101 H80 0.929 . S
C101 C99 1.446 . S
C101 C102 1.332 . S
C102 H82 0.931 . S
C102 C101 1.332 . S
C102 C103 1.267 . S
C103 H71 0.929 . S
C103 C102 1.267 . S
C103 C104 1.251 . S
C104 H74 0.929 . S
C104 N100 1.418 . S
C104 C103 1.251 . S
C105 H72 0.930 . S
C105 C107 1.406 . S
C105 C110 1.261 . S
C106 H73 0.930 . S
C106 N108 1.325 . S
C106 C109 1.357 . S
C107 H75 0.928 . S
C107 C105 1.406 . S
C107 N108 1.261 . S
N108 Co59 2.214 1_545 S
N108 C106 1.325 . S
N108 C107 1.261 . S
C109 H79 0.931 . S
C109 C106 1.357 . S
C109 C110 1.312 . S
C110 H81 0.930 . S
C110 C105 1.261 . S
C110 C109 1.312 . S
C111 O83 1.214 . S
C111 O91 1.234 . S
C112 H84 0.929 . S
C112 C115 1.391 . S
C112 C117 1.391 . S
C113 H85 0.929 . S
C113 C114 1.390 . S
C113 N116 1.391 . S
C114 H86 0.930 . S
C114 C113 1.390 . S
C114 C115 1.392 . S
C115 H87 0.929 . S
C115 C112 1.391 . S
C115 C114 1.392 . S
N116 Co60 2.257 . S
N116 C113 1.391 . S
N116 C117 1.388 . S
C117 H88 0.930 . S
C117 C112 1.391 . S
C117 N116 1.388 . S
Co118 O120 2.143 . S
Co118 O126 2.074 . S
Co118 O129 2.093 . S
Co118 O142 2.097 . S
Co118 N159 2.151 . S
Co118 N167 2.214 . S
Co119 O120 2.160 . S
Co119 O125 2.058 . S
Co119 O135 2.057 . S
Co119 O150 2.037 . S
Co119 N154 2.145 . S
Co119 N175 2.257 . S
O120 Co118 2.143 . S
O120 Co119 2.160 . S
C121 O122 1.278 . S
C121 O129 1.224 . S
O122 C121 1.278 . S
C123 O124 1.245 . S
C123 O135 1.232 . S
O124 C123 1.245 . S
O125 Co119 2.058 . S
O125 C151 1.269 . S
O126 Co118 2.074 . S
O126 C151 1.257 . S
H127 C152 0.930 . S
H128 C158 0.930 . S
O129 Co118 2.093 . S
O129 C121 1.224 . S
H130 C162 0.929 . S
H131 C164 0.930 . S
H132 C165 0.930 . S
H133 C163 0.929 . S
H134 C166 0.928 . S
O135 Co119 2.057 . S
O135 C123 1.232 . S
H136 C155 0.929 . S
H137 C156 0.929 . S
H138 C168 0.931 . S
H139 C160 0.929 . S
H140 C169 0.930 . S
H141 C161 0.931 . S
O142 Co118 2.097 . S
O142 C170 1.214 . S
H143 C171 0.929 . S
H144 C172 0.929 . S
H145 C173 0.930 . S
H146 C174 0.929 . S
H147 C176 0.930 . S
H148 C153 0.930 . S
H149 C157 0.930 . S
O150 Co119 2.037 . S
O150 C170 1.234 . S
C151 O125 1.269 . S
C151 O126 1.257 . S
C152 H127 0.930 . S
C152 C155 1.388 . S
C152 C157 1.418 . S
C153 H148 0.930 . S
C153 C156 1.404 . S
C153 C157 1.353 . S
N154 Co119 2.145 . S
N154 C155 1.397 . S
N154 C156 1.334 . S
C155 H136 0.929 . S
C155 C152 1.388 . S
C155 N154 1.397 . S
C156 H137 0.929 . S
C156 C153 1.404 . S
C156 N154 1.334 . S
C157 H149 0.930 . S
C157 C152 1.418 . S
C157 C153 1.353 . S
C158 H128 0.930 . S
C158 N159 1.330 . S
C158 C160 1.446 . S
N159 Co118 2.151 . S
N159 C158 1.330 . S
N159 C163 1.418 . S
C160 H139 0.929 . S
C160 C158 1.446 . S
C160 C161 1.332 . S
C161 H141 0.931 . S
C161 C160 1.332 . S
C161 C162 1.267 . S
C162 H130 0.929 . S
C162 C161 1.267 . S
C162 C163 1.251 . S
C163 H133 0.929 . S
C163 N159 1.418 . S
C163 C162 1.251 . S
C164 H131 0.930 . S
C164 C166 1.406 . S
C164 C169 1.261 . S
C165 H132 0.930 . S
C165 N167 1.325 . S
C165 C168 1.357 . S
C166 H134 0.928 . S
C166 C164 1.406 . S
C166 N167 1.261 . S
N167 Co118 2.214 . S
N167 C165 1.325 . S
N167 C166 1.261 . S
C168 H138 0.931 . S
C168 C165 1.357 . S
C168 C169 1.312 . S
C169 H140 0.930 . S
C169 C164 1.261 . S
C169 C168 1.312 . S
C170 O142 1.214 . S
C170 O150 1.234 . S
C171 H143 0.929 . S
C171 C174 1.391 . S
C171 C176 1.391 . S
C172 H144 0.929 . S
C172 C173 1.390 . S
C172 N175 1.391 . S
C173 H145 0.930 . S
C173 C172 1.390 . S
C173 C174 1.392 . S
C174 H146 0.929 . S
C174 C171 1.391 . S
C174 C173 1.392 . S
N175 Co119 2.257 . S
N175 C172 1.391 . S
N175 C176 1.388 . S
C176 H147 0.930 . S
C176 C171 1.391 . S
C176 N175 1.388 . S
Co177 O179 2.143 . S
Co177 O185 2.074 . S
Co177 O188 2.093 . S
Co177 O201 2.097 . S
Co177 N218 2.151 . S
Co177 N226 2.214 1_545 S
Co178 O179 2.160 . S
Co178 O184 2.058 . S
Co178 O194 2.057 . S
Co178 O209 2.037 . S
Co178 N213 2.145 . S
Co178 N234 2.257 . S
O179 Co177 2.143 . S
O179 Co178 2.160 . S
C180 O181 1.278 . S
C180 O188 1.224 . S
O181 C180 1.278 . S
C182 O183 1.245 . S
C182 O194 1.232 . S
O183 C182 1.245 . S
O184 Co178 2.058 . S
O184 C210 1.269 . S
O185 Co177 2.074 . S
O185 C210 1.257 . S
H186 C211 0.930 . S
H187 C217 0.930 . S
O188 Co177 2.093 . S
O188 C180 1.224 . S
H189 C221 0.929 . S
H190 C223 0.930 . S
H191 C224 0.930 . S
H192 C222 0.929 . S
H193 C225 0.928 . S
O194 Co178 2.057 . S
O194 C182 1.232 . S
H195 C214 0.929 . S
H196 C215 0.929 . S
H197 C227 0.931 . S
H198 C219 0.929 . S
H199 C228 0.930 . S
H200 C220 0.931 . S
O201 Co177 2.097 . S
O201 C229 1.214 . S
H202 C230 0.929 . S
H203 C231 0.929 . S
H204 C232 0.930 . S
H205 C233 0.929 . S
H206 C235 0.930 . S
H207 C212 0.930 . S
H208 C216 0.930 . S
O209 Co178 2.037 . S
O209 C229 1.234 . S
C210 O184 1.269 . S
C210 O185 1.257 . S
C211 H186 0.930 . S
C211 C214 1.388 1_455 S
C211 C216 1.418 . S
C212 H207 0.930 . S
C212 C215 1.404 . S
C212 C216 1.353 1_655 S
N213 Co178 2.145 . S
N213 C214 1.397 . S
N213 C215 1.334 . S
C214 H195 0.929 . S
C214 C211 1.388 1_655 S
C214 N213 1.397 . S
C215 H196 0.929 . S
C215 C212 1.404 . S
C215 N213 1.334 . S
C216 H208 0.930 . S
C216 C211 1.418 . S
C216 C212 1.353 1_455 S
C217 H187 0.930 . S
C217 N218 1.330 . S
C217 C219 1.446 . S
N218 Co177 2.151 . S
N218 C217 1.330 . S
N218 C222 1.418 . S
C219 H198 0.929 . S
C219 C217 1.446 . S
C219 C220 1.332 . S
C220 H200 0.931 . S
C220 C219 1.332 . S
C220 C221 1.267 . S
C221 H189 0.929 . S
C221 C220 1.267 . S
C221 C222 1.251 . S
C222 H192 0.929 . S
C222 N218 1.418 . S
C222 C221 1.251 . S
C223 H190 0.930 . S
C223 C225 1.406 . S
C223 C228 1.261 . S
C224 H191 0.930 . S
C224 N226 1.325 . S
C224 C227 1.357 . S
C225 H193 0.928 . S
C225 C223 1.406 . S
C225 N226 1.261 . S
N226 Co177 2.214 1_565 S
N226 C224 1.325 . S
N226 C225 1.261 . S
C227 H197 0.931 . S
C227 C224 1.357 . S
C227 C228 1.312 . S
C228 H199 0.930 . S
C228 C223 1.261 . S
C228 C227 1.312 . S
C229 O201 1.214 . S
C229 O209 1.234 . S
C230 H202 0.929 . S
C230 C233 1.391 . S
C230 C235 1.391 . S
C231 H203 0.929 . S
C231 C232 1.390 . S
C231 N234 1.391 . S
C232 H204 0.930 . S
C232 C231 1.390 . S
C232 C233 1.392 . S
C233 H205 0.929 . S
C233 C230 1.391 . S
C233 C232 1.392 . S
N234 Co178 2.257 . S
N234 C231 1.391 . S
N234 C235 1.388 . S
C235 H206 0.930 . S
C235 C230 1.391 . S
C235 N234 1.388 . S
Co236 O238 2.143 . S
Co236 O244 2.074 . S
Co236 O247 2.093 . S
Co236 O260 2.097 . S
Co236 N277 2.151 . S
Co236 N285 2.214 . S
Co237 O238 2.160 . S
Co237 O243 2.058 . S
Co237 O253 2.057 . S
Co237 O268 2.037 . S
Co237 N272 2.145 . S
Co237 N293 2.257 . S
O238 Co236 2.143 . S
O238 Co237 2.160 . S
C239 O240 1.278 . S
C239 O247 1.224 . S
O240 C239 1.278 . S
C241 O242 1.245 . S
C241 O253 1.232 . S
O242 C241 1.245 . S
O243 Co237 2.058 . S
O243 C269 1.269 . S
O244 Co236 2.074 . S
O244 C269 1.257 . S
H245 C270 0.930 . S
H246 C276 0.930 . S
O247 Co236 2.093 . S
O247 C239 1.224 . S
H248 C280 0.929 . S
H249 C282 0.930 . S
H250 C283 0.930 . S
H251 C281 0.929 . S
H252 C284 0.928 . S
O253 Co237 2.057 . S
O253 C241 1.232 . S
H254 C273 0.929 . S
H255 C274 0.929 . S
H256 C286 0.931 . S
H257 C278 0.929 . S
H258 C287 0.930 . S
H259 C279 0.931 . S
O260 Co236 2.097 . S
O260 C288 1.214 . S
H261 C289 0.929 . S
H262 C290 0.929 . S
H263 C291 0.930 . S
H264 C292 0.929 . S
H265 C294 0.930 . S
H266 C271 0.930 . S
H267 C275 0.930 . S
O268 Co237 2.037 . S
O268 C288 1.234 . S
C269 O243 1.269 . S
C269 O244 1.257 . S
C270 H245 0.930 . S
C270 C273 1.388 1_455 S
C270 C275 1.418 . S
C271 H266 0.930 . S
C271 C274 1.404 . S
C271 C275 1.353 1_655 S
N272 Co237 2.145 . S
N272 C273 1.397 . S
N272 C274 1.334 . S
C273 H254 0.929 . S
C273 C270 1.388 1_655 S
C273 N272 1.397 . S
C274 H255 0.929 . S
C274 C271 1.404 . S
C274 N272 1.334 . S
C275 H267 0.930 . S
C275 C270 1.418 . S
C275 C271 1.353 1_455 S
C276 H246 0.930 . S
C276 N277 1.330 . S
C276 C278 1.446 . S
N277 Co236 2.151 . S
N277 C276 1.330 . S
N277 C281 1.418 . S
C278 H257 0.929 . S
C278 C276 1.446 . S
C278 C279 1.332 . S
C279 H259 0.931 . S
C279 C278 1.332 . S
C279 C280 1.267 . S
C280 H248 0.929 . S
C280 C279 1.267 . S
C280 C281 1.251 . S
C281 H251 0.929 . S
C281 N277 1.418 . S
C281 C280 1.251 . S
C282 H249 0.930 . S
C282 C284 1.406 . S
C282 C287 1.261 . S
C283 H250 0.930 . S
C283 N285 1.325 . S
C283 C286 1.357 . S
C284 H252 0.928 . S
C284 C282 1.406 . S
C284 N285 1.261 . S
N285 Co236 2.214 . S
N285 C283 1.325 . S
N285 C284 1.261 . S
C286 H256 0.931 . S
C286 C283 1.357 . S
C286 C287 1.312 . S
C287 H258 0.930 . S
C287 C282 1.261 . S
C287 C286 1.312 . S
C288 O260 1.214 . S
C288 O268 1.234 . S
C289 H261 0.929 . S
C289 C292 1.391 . S
C289 C294 1.391 . S
C290 H262 0.929 . S
C290 C291 1.390 . S
C290 N293 1.391 . S
C291 H263 0.930 . S
C291 C290 1.390 . S
C291 C292 1.392 . S
C292 H264 0.929 . S
C292 C289 1.391 . S
C292 C291 1.392 . S
N293 Co237 2.257 . S
N293 C290 1.391 . S
N293 C294 1.388 . S
C294 H265 0.930 . S
C294 C289 1.391 . S
C294 N293 1.388 . S
Co295 O297 2.143 . S
Co295 O303 2.074 . S
Co295 O306 2.093 . S
Co295 O319 2.097 . S
Co295 N336 2.151 . S
Co295 N344 2.214 1_545 S
Co296 O297 2.160 . S
Co296 O302 2.058 . S
Co296 O312 2.057 . S
Co296 O327 2.037 . S
Co296 N331 2.145 . S
Co296 N352 2.257 . S
O297 Co295 2.143 . S
O297 Co296 2.160 . S
C298 O299 1.278 . S
C298 O306 1.224 . S
O299 C298 1.278 . S
C300 O301 1.245 . S
C300 O312 1.232 . S
O301 C300 1.245 . S
O302 Co296 2.058 . S
O302 C328 1.269 . S
O303 Co295 2.074 . S
O303 C328 1.257 . S
H304 C329 0.930 . S
H305 C335 0.930 . S
O306 Co295 2.093 . S
O306 C298 1.224 . S
H307 C339 0.929 . S
H308 C341 0.930 . S
H309 C342 0.930 . S
H310 C340 0.929 . S
H311 C343 0.928 . S
O312 Co296 2.057 . S
O312 C300 1.232 . S
H313 C332 0.929 . S
H314 C333 0.929 . S
H315 C345 0.931 . S
H316 C337 0.929 . S
H317 C346 0.930 . S
H318 C338 0.931 . S
O319 Co295 2.097 . S
O319 C347 1.214 . S
H320 C348 0.929 . S
H321 C349 0.929 . S
H322 C350 0.930 . S
H323 C351 0.929 . S
H324 C353 0.930 . S
H325 C330 0.930 . S
H326 C334 0.930 . S
O327 Co296 2.037 . S
O327 C347 1.234 . S
C328 O302 1.269 . S
C328 O303 1.257 . S
C329 H304 0.930 . S
C329 C332 1.388 . S
C329 C334 1.418 . S
C330 H325 0.930 . S
C330 C333 1.404 . S
C330 C334 1.353 . S
N331 Co296 2.145 . S
N331 C332 1.397 . S
N331 C333 1.334 . S
C332 H313 0.929 . S
C332 C329 1.388 . S
C332 N331 1.397 . S
C333 H314 0.929 . S
C333 C330 1.404 . S
C333 N331 1.334 . S
C334 H326 0.930 . S
C334 C329 1.418 . S
C334 C330 1.353 . S
C335 H305 0.930 . S
C335 N336 1.330 . S
C335 C337 1.446 . S
N336 Co295 2.151 . S
N336 C335 1.330 . S
N336 C340 1.418 . S
C337 H316 0.929 . S
C337 C335 1.446 . S
C337 C338 1.332 . S
C338 H318 0.931 . S
C338 C337 1.332 . S
C338 C339 1.267 . S
C339 H307 0.929 . S
C339 C338 1.267 . S
C339 C340 1.251 . S
C340 H310 0.929 . S
C340 N336 1.418 . S
C340 C339 1.251 . S
C341 H308 0.930 . S
C341 C343 1.406 . S
C341 C346 1.261 . S
C342 H309 0.930 . S
C342 N344 1.325 . S
C342 C345 1.357 . S
C343 H311 0.928 . S
C343 C341 1.406 . S
C343 N344 1.261 . S
N344 Co295 2.214 1_565 S
N344 C342 1.325 . S
N344 C343 1.261 . S
C345 H315 0.931 . S
C345 C342 1.357 . S
C345 C346 1.312 . S
C346 H317 0.930 . S
C346 C341 1.261 . S
C346 C345 1.312 . S
C347 O319 1.214 . S
C347 O327 1.234 . S
C348 H320 0.929 . S
C348 C351 1.391 . S
C348 C353 1.391 . S
C349 H321 0.929 . S
C349 C350 1.390 . S
C349 N352 1.391 . S
C350 H322 0.930 . S
C350 C349 1.390 . S
C350 C351 1.392 . S
C351 H323 0.929 . S
C351 C348 1.391 . S
C351 C350 1.392 . S
N352 Co296 2.257 . S
N352 C349 1.391 . S
N352 C353 1.388 . S
C353 H324 0.930 . S
C353 C348 1.391 . S
C353 N352 1.388 . S
Co354 O356 2.143 . S
Co354 O362 2.074 . S
Co354 O365 2.093 . S
Co354 O378 2.097 . S
Co354 N395 2.151 . S
Co354 N403 2.214 . S
Co355 O356 2.160 . S
Co355 O361 2.058 . S
Co355 O371 2.057 . S
Co355 O386 2.037 . S
Co355 N390 2.145 . S
Co355 N411 2.257 . S
O356 Co354 2.143 . S
O356 Co355 2.160 . S
C357 O358 1.278 . S
C357 O365 1.224 . S
O358 C357 1.278 . S
C359 O360 1.245 . S
C359 O371 1.232 . S
O360 C359 1.245 . S
O361 Co355 2.058 . S
O361 C387 1.269 . S
O362 Co354 2.074 . S
O362 C387 1.257 . S
H363 C388 0.930 . S
H364 C394 0.930 . S
O365 Co354 2.093 . S
O365 C357 1.224 . S
H366 C398 0.929 . S
H367 C400 0.930 . S
H368 C401 0.930 . S
H369 C399 0.929 . S
H370 C402 0.928 . S
O371 Co355 2.057 . S
O371 C359 1.232 . S
H372 C391 0.929 . S
H373 C392 0.929 . S
H374 C404 0.931 . S
H375 C396 0.929 . S
H376 C405 0.930 . S
H377 C397 0.931 . S
O378 Co354 2.097 . S
O378 C406 1.214 . S
H379 C407 0.929 . S
H380 C408 0.929 . S
H381 C409 0.930 . S
H382 C410 0.929 . S
H383 C412 0.930 . S
H384 C389 0.930 . S
H385 C393 0.930 . S
O386 Co355 2.037 . S
O386 C406 1.234 . S
C387 O361 1.269 . S
C387 O362 1.257 . S
C388 H363 0.930 . S
C388 C391 1.388 . S
C388 C393 1.418 . S
C389 H384 0.930 . S
C389 C392 1.404 . S
C389 C393 1.353 . S
N390 Co355 2.145 . S
N390 C391 1.397 . S
N390 C392 1.334 . S
C391 H372 0.929 . S
C391 C388 1.388 . S
C391 N390 1.397 . S
C392 H373 0.929 . S
C392 C389 1.404 . S
C392 N390 1.334 . S
C393 H385 0.930 . S
C393 C388 1.418 . S
C393 C389 1.353 . S
C394 H364 0.930 . S
C394 N395 1.330 . S
C394 C396 1.446 . S
N395 Co354 2.151 . S
N395 C394 1.330 . S
N395 C399 1.418 . S
C396 H375 0.929 . S
C396 C394 1.446 . S
C396 C397 1.332 . S
C397 H377 0.931 . S
C397 C396 1.332 . S
C397 C398 1.267 . S
C398 H366 0.929 . S
C398 C397 1.267 . S
C398 C399 1.251 . S
C399 H369 0.929 . S
C399 N395 1.418 . S
C399 C398 1.251 . S
C400 H367 0.930 . S
C400 C402 1.406 . S
C400 C405 1.261 . S
C401 H368 0.930 . S
C401 N403 1.325 . S
C401 C404 1.357 . S
C402 H370 0.928 . S
C402 C400 1.406 . S
C402 N403 1.261 . S
N403 Co354 2.214 . S
N403 C401 1.325 . S
N403 C402 1.261 . S
C404 H374 0.931 . S
C404 C401 1.357 . S
C404 C405 1.312 . S
C405 H376 0.930 . S
C405 C400 1.261 . S
C405 C404 1.312 . S
C406 O378 1.214 . S
C406 O386 1.234 . S
C407 H379 0.929 . S
C407 C410 1.391 . S
C407 C412 1.391 . S
C408 H380 0.929 . S
C408 C409 1.390 . S
C408 N411 1.391 . S
C409 H381 0.930 . S
C409 C408 1.390 . S
C409 C410 1.392 . S
C410 H382 0.929 . S
C410 C407 1.391 . S
C410 C409 1.392 . S
N411 Co355 2.257 . S
N411 C408 1.391 . S
N411 C412 1.388 . S
C412 H383 0.930 . S
C412 C407 1.391 . S
C412 N411 1.388 . S
Co413 O415 2.143 . S
Co413 O421 2.074 . S
Co413 O424 2.093 . S
Co413 O437 2.097 . S
Co413 N454 2.151 . S
Co413 N462 2.214 1_565 S
Co414 O415 2.160 . S
Co414 O420 2.058 . S
Co414 O430 2.057 . S
Co414 O445 2.037 . S
Co414 N449 2.145 . S
Co414 N470 2.257 . S
O415 Co413 2.143 . S
O415 Co414 2.160 . S
C416 O417 1.278 . S
C416 O424 1.224 . S
O417 C416 1.278 . S
C418 O419 1.245 . S
C418 O430 1.232 . S
O419 C418 1.245 . S
O420 Co414 2.058 . S
O420 C446 1.269 . S
O421 Co413 2.074 . S
O421 C446 1.257 . S
H422 C447 0.930 . S
H423 C453 0.930 . S
O424 Co413 2.093 . S
O424 C416 1.224 . S
H425 C457 0.929 . S
H426 C459 0.930 . S
H427 C460 0.930 . S
H428 C458 0.929 . S
H429 C461 0.928 . S
O430 Co414 2.057 . S
O430 C418 1.232 . S
H431 C450 0.929 . S
H432 C451 0.929 . S
H433 C463 0.931 . S
H434 C455 0.929 . S
H435 C464 0.930 . S
H436 C456 0.931 . S
O437 Co413 2.097 . S
O437 C465 1.214 . S
H438 C466 0.929 . S
H439 C467 0.929 . S
H440 C468 0.930 . S
H441 C469 0.929 . S
H442 C471 0.930 . S
H443 C448 0.930 . S
H444 C452 0.930 . S
O445 Co414 2.037 . S
O445 C465 1.234 . S
C446 O420 1.269 . S
C446 O421 1.257 . S
C447 H422 0.930 . S
C447 C450 1.388 1_655 S
C447 C452 1.418 . S
C448 H443 0.930 . S
C448 C451 1.404 . S
C448 C452 1.353 1_455 S
N449 Co414 2.145 . S
N449 C450 1.397 . S
N449 C451 1.334 . S
C450 H431 0.929 . S
C450 C447 1.388 1_455 S
C450 N449 1.397 . S
C451 H432 0.929 . S
C451 C448 1.404 . S
C451 N449 1.334 . S
C452 H444 0.930 . S
C452 C447 1.418 . S
C452 C448 1.353 1_655 S
C453 H423 0.930 . S
C453 N454 1.330 . S
C453 C455 1.446 . S
N454 Co413 2.151 . S
N454 C453 1.330 . S
N454 C458 1.418 . S
C455 H434 0.929 . S
C455 C453 1.446 . S
C455 C456 1.332 . S
C456 H436 0.931 . S
C456 C455 1.332 . S
C456 C457 1.267 . S
C457 H425 0.929 . S
C457 C456 1.267 . S
C457 C458 1.251 . S
C458 H428 0.929 . S
C458 N454 1.418 . S
C458 C457 1.251 . S
C459 H426 0.930 . S
C459 C461 1.406 . S
C459 C464 1.261 . S
C460 H427 0.930 . S
C460 N462 1.325 . S
C460 C463 1.357 . S
C461 H429 0.928 . S
C461 C459 1.406 . S
C461 N462 1.261 . S
N462 Co413 2.214 1_545 S
N462 C460 1.325 . S
N462 C461 1.261 . S
C463 H433 0.931 . S
C463 C460 1.357 . S
C463 C464 1.312 . S
C464 H435 0.930 . S
C464 C459 1.261 . S
C464 C463 1.312 . S
C465 O437 1.214 . S
C465 O445 1.234 . S
C466 H438 0.929 . S
C466 C469 1.391 . S
C466 C471 1.391 . S
C467 H439 0.929 . S
C467 C468 1.390 . S
C467 N470 1.391 . S
C468 H440 0.930 . S
C468 C467 1.390 . S
C468 C469 1.392 . S
C469 H441 0.929 . S
C469 C466 1.391 . S
C469 C468 1.392 . S
N470 Co414 2.257 . S
N470 C467 1.391 . S
N470 C471 1.388 . S
C471 H442 0.930 . S
C471 C466 1.391 . S
C471 N470 1.388 . S
H472 C490 0.951 . S
H473 C492 0.951 . S
H474 C494 0.950 . S
H475 C495 0.950 . S
H476 C497 0.950 . S
H477 C500 0.950 . S
H478 C501 0.950 . S
H479 C503 0.950 . S
H480 C504 0.950 . S
H481 C505 0.951 . S
H482 C507 0.951 . S
H483 C509 0.950 . S
H484 C510 0.950 . S
H485 C512 0.950 . S
H486 C515 0.950 . S
H487 C516 0.950 . S
H488 C518 0.950 . S
H489 C519 0.950 . S
C490 H472 0.951 . S
C490 C491 1.366 . S
C490 C492 1.388 . S
C491 C490 1.366 . S
C491 C495 1.385 . S
C492 H473 0.951 . S
C492 C490 1.388 . S
C492 C493 1.366 . S
C493 C492 1.366 . S
C493 C494 1.414 . S
C493 C496 1.499 . S
C494 H474 0.950 . S
C494 C493 1.414 . S
C494 C495 1.374 . S
C495 H475 0.950 . S
C495 C491 1.385 . S
C495 C494 1.374 . S
C496 C493 1.499 . S
C496 C497 1.373 . S
C496 C498 1.389 . S
C497 H476 0.950 . S
C497 C496 1.373 . S
C497 C513 1.377 . S
C498 C496 1.389 . S
C498 C499 1.524 . S
C498 C512 1.377 . S
C499 C498 1.524 . S
C499 C500 1.397 . S
C499 C504 1.363 . S
C500 H477 0.950 . S
C500 C499 1.397 . S
C500 C501 1.334 . S
C501 H478 0.950 . S
C501 C500 1.334 . S
C501 C502 1.287 . S
C502 C501 1.287 . S
C502 C503 1.524 . S
C502 H521 0.913 . S
C503 H479 0.950 . S
C503 C502 1.524 . S
C503 C504 1.415 . S
C504 H480 0.950 . S
C504 C499 1.363 . S
C504 C503 1.415 . S
C505 H481 0.951 . S
C505 C506 1.366 . S
C505 C507 1.388 . S
C506 C505 1.366 . S
C506 C510 1.385 . S
C507 H482 0.951 . S
C507 C505 1.388 . S
C507 C508 1.366 . S
C508 C507 1.366 . S
C508 C509 1.414 . S
C508 C511 1.499 . S
C509 H483 0.950 . S
C509 C508 1.414 . S
C509 C510 1.374 . S
C510 H484 0.950 . S
C510 C506 1.385 . S
C510 C509 1.374 . S
C511 C508 1.499 . S
C511 C512 1.373 . S
C511 C513 1.389 . S
C512 H485 0.950 . S
C512 C498 1.377 . S
C512 C511 1.373 . S
C513 C497 1.377 . S
C513 C511 1.389 . S
C513 C514 1.524 . S
C514 C513 1.524 . S
C514 C515 1.397 . S
C514 C519 1.363 . S
C515 H486 0.950 . S
C515 C514 1.397 . S
C515 C516 1.334 . S
C516 H487 0.950 . S
C516 C515 1.334 . S
C516 C517 1.287 . S
C517 C516 1.287 . S
C517 C518 1.524 . S
C517 H520 0.999 . S
C518 H488 0.950 . S
C518 C517 1.524 . S
C518 C519 1.415 . S
C519 H489 0.950 . S
C519 C514 1.363 . S
C519 C518 1.415 . S
H520 C517 0.999 . S
H521 C502 0.913 . S
H522 C540 0.951 . S
H523 C542 0.951 1_565 S
H524 C544 0.950 . S
H525 C545 0.950 . S
H526 C547 0.950 . S
H527 C550 0.950 . S
H528 C551 0.950 . S
H529 C553 0.950 1_565 S
H530 C554 0.950 . S
H531 C555 0.951 . S
H532 C557 0.951 1_545 S
H533 C559 0.950 . S
H534 C560 0.950 . S
H535 C562 0.950 . S
H536 C565 0.950 . S
H537 C566 0.950 . S
H538 C568 0.950 1_545 S
H539 C569 0.946 1_545 S
C540 H522 0.951 . S
C540 C541 1.366 . S
C540 C542 1.388 . S
C541 C540 1.366 . S
C541 C545 1.385 . S
C542 H523 0.951 1_545 S
C542 C540 1.388 . S
C542 C543 1.366 1_655 S
C543 C542 1.366 1_455 S
C543 C544 1.414 . S
C543 C546 1.499 . S
C544 H524 0.950 . S
C544 C543 1.414 . S
C544 C545 1.374 1_455 S
C545 H525 0.950 . S
C545 C541 1.385 . S
C545 C544 1.374 1_655 S
C546 C543 1.499 . S
C546 C547 1.373 . S
C546 C548 1.389 . S
C547 H526 0.950 . S
C547 C546 1.373 . S
C547 C563 1.377 1_545 S
C548 C546 1.389 . S
C548 C549 1.524 1_455 S
C548 C562 1.377 1_545 S
C549 C548 1.524 1_655 S
C549 C550 1.397 . S
C549 C554 1.363 1_545 S
C550 H527 0.950 . S
C550 C549 1.397 . S
C550 C551 1.334 . S
C551 H528 0.950 . S
C551 C550 1.334 . S
C551 C552 1.287 . S
C552 C551 1.287 . S
C552 C553 1.524 . S
C552 H571 0.913 . S
C553 H529 0.950 1_545 S
C553 C552 1.524 . S
C553 C554 1.415 1_545 S
C554 H530 0.950 . S
C554 C549 1.363 1_565 S
C554 C553 1.415 1_565 S
C555 H531 0.951 . S
C555 C556 1.366 . S
C555 C557 1.388 . S
C556 C555 1.366 . S
C556 C560 1.385 . S
C557 H532 0.951 1_565 S
C557 C555 1.388 . S
C557 C558 1.366 . S
C558 C557 1.366 . S
C558 C559 1.414 . S
C558 C561 1.499 . S
C559 H533 0.950 . S
C559 C558 1.414 . S
C559 C560 1.374 . S
C560 H534 0.950 . S
C560 C556 1.385 . S
C560 C559 1.374 . S
C561 C558 1.499 . S
C561 C562 1.373 . S
C561 C563 1.389 . S
C562 H535 0.950 . S
C562 C548 1.377 1_565 S
C562 C561 1.373 . S
C563 C547 1.377 1_565 S
C563 C561 1.389 . S
C563 C564 1.524 . S
C564 C563 1.524 . S
C564 C565 1.397 . S
C564 C569 1.366 . S
C565 H536 0.950 . S
C565 C564 1.397 . S
C565 C566 1.334 . S
C566 H537 0.950 . S
C566 C565 1.334 . S
C566 C567 1.287 . S
C567 C566 1.287 . S
C567 C568 1.524 . S
C567 H570 0.999 . S
C568 H538 0.950 1_565 S
C568 C567 1.524 . S
C568 C569 1.416 . S
C569 H539 0.946 1_565 S
C569 C564 1.366 . S
C569 C568 1.416 . S
H570 C567 0.999 . S
H571 C552 0.913 . S
H572 C590 0.951 . S
H573 C592 0.951 . S
H574 C594 0.950 . S
H575 C595 0.950 . S
H576 C597 0.950 . S
H577 C600 0.950 . S
H578 C601 0.950 . S
H579 C603 0.950 . S
H580 C604 0.950 . S
H581 C605 0.951 . S
H582 C607 0.951 . S
H583 C609 0.950 . S
H584 C610 0.950 . S
H585 C612 0.950 . S
H586 C615 0.950 . S
H587 C616 0.950 . S
H588 C618 0.950 . S
H589 C619 0.950 . S
C590 H572 0.951 . S
C590 C591 1.366 . S
C590 C592 1.388 . S
C591 C590 1.366 . S
C591 C595 1.385 . S
C592 H573 0.951 . S
C592 C590 1.388 . S
C592 C593 1.366 . S
C593 C592 1.366 . S
C593 C594 1.414 . S
C593 C596 1.499 . S
C594 H574 0.950 . S
C594 C593 1.414 . S
C594 C595 1.374 . S
C595 H575 0.950 . S
C595 C591 1.385 . S
C595 C594 1.374 . S
C596 C593 1.499 . S
C596 C597 1.373 . S
C596 C598 1.389 . S
C597 H576 0.950 . S
C597 C596 1.373 . S
C597 C613 1.377 . S
C598 C596 1.389 . S
C598 C599 1.524 . S
C598 C612 1.377 . S
C599 C598 1.524 . S
C599 C600 1.397 . S
C599 C604 1.363 . S
C600 H577 0.950 . S
C600 C599 1.397 . S
C600 C601 1.334 . S
C601 H578 0.950 . S
C601 C600 1.334 . S
C601 C602 1.287 . S
C602 C601 1.287 . S
C602 C603 1.524 . S
C602 H621 0.913 . S
C603 H579 0.950 . S
C603 C602 1.524 . S
C603 C604 1.415 . S
C604 H580 0.950 . S
C604 C599 1.363 . S
C604 C603 1.415 . S
C605 H581 0.951 . S
C605 C606 1.366 . S
C605 C607 1.388 . S
C606 C605 1.366 . S
C606 C610 1.385 . S
C607 H582 0.951 . S
C607 C605 1.388 . S
C607 C608 1.366 1_455 S
C608 C607 1.366 1_655 S
C608 C609 1.414 . S
C608 C611 1.499 . S
C609 H583 0.950 . S
C609 C608 1.414 . S
C609 C610 1.374 1_655 S
C610 H584 0.950 . S
C610 C606 1.385 . S
C610 C609 1.374 1_455 S
C611 C608 1.499 . S
C611 C612 1.373 . S
C611 C613 1.389 . S
C612 H585 0.950 . S
C612 C598 1.377 . S
C612 C611 1.373 . S
C613 C597 1.377 . S
C613 C611 1.389 . S
C613 C614 1.524 . S
C614 C613 1.524 . S
C614 C615 1.397 . S
C614 C619 1.363 1_655 S
C615 H586 0.950 . S
C615 C614 1.397 . S
C615 C616 1.334 1_655 S
C616 H587 0.950 . S
C616 C615 1.334 1_455 S
C616 C617 1.287 . S
C617 C616 1.287 . S
C617 C618 1.524 . S
C617 H620 0.999 . S
C618 H588 0.950 . S
C618 C617 1.524 . S
C618 C619 1.415 . S
C619 H589 0.950 . S
C619 C614 1.363 1_455 S
C619 C618 1.415 . S
H620 C617 0.999 . S
H621 C602 0.913 . S
H622 C640 0.951 . S
H623 C642 0.951 . S
H624 C644 0.950 1_565 S
H625 C645 0.950 1_565 S
H626 C647 0.950 . S
H627 C650 0.950 . S
H628 C651 0.950 . S
H629 C653 0.950 . S
H630 C654 0.950 . S
H631 C655 0.951 . S
H632 C657 0.951 . S
H633 C659 0.950 . S
H634 C660 0.950 1_545 S
H635 C662 0.950 . S
H636 C665 0.950 . S
H637 C666 0.950 . S
H638 C668 0.950 . S
H639 C669 0.950 . S
C640 H622 0.951 . S
C640 C641 1.366 . S
C640 C642 1.388 . S
C641 C640 1.366 . S
C641 C645 1.385 . S
C642 H623 0.951 . S
C642 C640 1.388 . S
C642 C643 1.366 . S
C643 C642 1.366 . S
C643 C644 1.414 . S
C643 C646 1.499 . S
C644 H624 0.950 1_545 S
C644 C643 1.414 . S
C644 C645 1.374 . S
C645 H625 0.950 1_545 S
C645 C641 1.385 . S
C645 C644 1.374 . S
C646 C643 1.499 . S
C646 C647 1.373 1_545 S
C646 C648 1.389 . S
C647 H626 0.950 . S
C647 C646 1.373 1_565 S
C647 C663 1.377 . S
C648 C646 1.389 . S
C648 C649 1.524 . S
C648 C662 1.377 . S
C649 C648 1.524 . S
C649 C650 1.397 . S
C649 C654 1.363 . S
C650 H627 0.950 . S
C650 C649 1.397 . S
C650 C651 1.334 . S
C651 H628 0.950 . S
C651 C650 1.334 . S
C651 C652 1.287 . S
C652 C651 1.287 . S
C652 C653 1.524 . S
C652 H671 0.913 . S
C653 H629 0.950 . S
C653 C652 1.524 . S
C653 C654 1.415 . S
C654 H630 0.950 . S
C654 C649 1.363 . S
C654 C653 1.415 . S
C655 H631 0.951 . S
C655 C656 1.366 . S
C655 C657 1.388 . S
C656 C655 1.366 . S
C656 C660 1.385 . S
C657 H632 0.951 . S
C657 C655 1.388 . S
C657 C658 1.366 . S
C658 C657 1.366 . S
C658 C659 1.414 1_565 S
C658 C661 1.499 . S
C659 H633 0.950 . S
C659 C658 1.414 1_545 S
C659 C660 1.374 1_545 S
C660 H634 0.950 1_565 S
C660 C656 1.385 . S
C660 C659 1.374 1_565 S
C661 C658 1.499 . S
C661 C662 1.373 1_565 S
C661 C663 1.389 . S
C662 H635 0.950 . S
C662 C648 1.377 . S
C662 C661 1.373 1_545 S
C663 C647 1.377 . S
C663 C661 1.389 . S
C663 C664 1.524 . S
C664 C663 1.524 . S
C664 C665 1.397 . S
C664 C669 1.363 . S
C665 H636 0.950 . S
C665 C664 1.397 . S
C665 C666 1.334 . S
C666 H637 0.950 . S
C666 C665 1.334 . S
C666 C667 1.287 . S
C667 C666 1.287 . S
C667 C668 1.524 . S
C667 H670 0.999 . S
C668 H638 0.950 . S
C668 C667 1.524 . S
C668 C669 1.415 . S
C669 H639 0.950 . S
C669 C664 1.363 . S
C669 C668 1.415 . S
H670 C667 0.999 . S
H671 C652 0.913 . S
H672 C690 0.951 . S
H673 C692 0.951 . S
H674 C694 0.950 . S
H675 C695 0.950 . S
H676 C697 0.950 . S
H677 C700 0.950 . S
H678 C701 0.950 . S
H679 C703 0.950 . S
H680 C704 0.950 . S
H681 C705 0.951 . S
H682 C707 0.951 . S
H683 C709 0.950 . S
H684 C710 0.950 . S
H685 C712 0.950 . S
H686 C715 0.950 . S
H687 C716 0.950 . S
H688 C718 0.950 . S
H689 C719 0.950 . S
C690 H672 0.951 . S
C690 C691 1.366 . S
C690 C692 1.388 . S
C691 C690 1.366 . S
C691 C695 1.385 . S
C692 H673 0.951 . S
C692 C690 1.388 . S
C692 C693 1.366 . S
C693 C692 1.366 . S
C693 C694 1.414 . S
C693 C696 1.499 . S
C694 H674 0.950 . S
C694 C693 1.414 . S
C694 C695 1.374 . S
C695 H675 0.950 . S
C695 C691 1.385 . S
C695 C694 1.374 . S
C696 C693 1.499 . S
C696 C697 1.373 . S
C696 C698 1.389 . S
C697 H676 0.950 . S
C697 C696 1.373 . S
C697 C713 1.377 . S
C698 C696 1.389 . S
C698 C699 1.524 . S
C698 C712 1.377 . S
C699 C698 1.524 . S
C699 C700 1.397 . S
C699 C704 1.363 . S
C700 H677 0.950 . S
C700 C699 1.397 . S
C700 C701 1.334 . S
C701 H678 0.950 . S
C701 C700 1.334 . S
C701 C702 1.287 . S
C702 C701 1.287 . S
C702 C703 1.524 . S
C702 H721 0.913 . S
C703 H679 0.950 . S
C703 C702 1.524 . S
C703 C704 1.415 . S
C704 H680 0.950 . S
C704 C699 1.363 . S
C704 C703 1.415 . S
C705 H681 0.951 . S
C705 C706 1.366 . S
C705 C707 1.388 . S
C706 C705 1.366 . S
C706 C710 1.385 . S
C707 H682 0.951 . S
C707 C705 1.388 . S
C707 C708 1.366 . S
C708 C707 1.366 . S
C708 C709 1.414 . S
C708 C711 1.499 . S
C709 H683 0.950 . S
C709 C708 1.414 . S
C709 C710 1.374 . S
C710 H684 0.950 . S
C710 C706 1.385 . S
C710 C709 1.374 . S
C711 C708 1.499 . S
C711 C712 1.373 . S
C711 C713 1.389 . S
C712 H685 0.950 . S
C712 C698 1.377 . S
C712 C711 1.373 . S
C713 C697 1.377 . S
C713 C711 1.389 . S
C713 C714 1.524 . S
C714 C713 1.524 . S
C714 C715 1.397 . S
C714 C719 1.363 . S
C715 H686 0.950 . S
C715 C714 1.397 . S
C715 C716 1.334 . S
C716 H687 0.950 . S
C716 C715 1.334 . S
C716 C717 1.287 . S
C717 C716 1.287 . S
C717 C718 1.524 . S
C717 H720 0.999 . S
C718 H688 0.950 . S
C718 C717 1.524 . S
C718 C719 1.415 . S
C719 H689 0.950 . S
C719 C714 1.363 . S
C719 C718 1.415 . S
H720 C717 0.999 . S
H721 C702 0.913 . S
H722 C740 0.951 . S
H723 C742 0.951 . S
H724 C744 0.937 1_565 S
H725 C745 0.950 1_565 S
H726 C747 0.950 . S
H727 C750 0.950 . S
H728 C751 0.950 . S
H729 C753 0.950 . S
H730 C754 0.950 . S
H731 C755 0.951 . S
H732 C757 0.951 1_655 S
H733 C759 0.950 . S
H734 C760 0.950 1_545 S
H735 C762 0.950 . S
H736 C765 0.950 . S
H737 C766 0.950 . S
H738 C768 0.950 . S
H739 C769 0.950 . S
C740 H722 0.951 . S
C740 C741 1.366 . S
C740 C742 1.388 . S
C741 C740 1.366 . S
C741 C745 1.385 . S
C742 H723 0.951 . S
C742 C740 1.388 . S
C742 C743 1.366 . S
C743 C742 1.366 . S
C743 C744 1.423 . S
C743 C746 1.499 . S
C744 H724 0.937 1_545 S
C744 C743 1.423 . S
C744 C745 1.378 . S
C745 H725 0.950 1_545 S
C745 C741 1.385 . S
C745 C744 1.378 . S
C746 C743 1.499 . S
C746 C747 1.373 1_545 S
C746 C748 1.389 . S
C747 H726 0.950 . S
C747 C746 1.373 1_565 S
C747 C763 1.377 . S
C748 C746 1.389 . S
C748 C749 1.524 . S
C748 C762 1.377 . S
C749 C748 1.524 . S
C749 C750 1.397 . S
C749 C754 1.363 . S
C750 H727 0.950 . S
C750 C749 1.397 . S
C750 C751 1.334 . S
C751 H728 0.950 . S
C751 C750 1.334 . S
C751 C752 1.287 . S
C752 C751 1.287 . S
C752 C753 1.524 . S
C752 H771 0.913 . S
C753 H729 0.950 . S
C753 C752 1.524 . S
C753 C754 1.415 . S
C754 H730 0.950 . S
C754 C749 1.363 . S
C754 C753 1.415 . S
C755 H731 0.951 . S
C755 C756 1.366 . S
C755 C757 1.388 . S
C756 C755 1.366 . S
C756 C760 1.385 . S
C757 H732 0.951 1_455 S
C757 C755 1.388 . S
C757 C758 1.366 1_455 S
C758 C757 1.366 1_655 S
C758 C759 1.414 1_665 S
C758 C761 1.499 . S
C759 H733 0.950 . S
C759 C758 1.414 1_445 S
C759 C760 1.374 1_545 S
C760 H734 0.950 1_565 S
C760 C756 1.385 . S
C760 C759 1.374 1_565 S
C761 C758 1.499 . S
C761 C762 1.373 1_565 S
C761 C763 1.389 . S
C762 H735 0.950 . S
C762 C748 1.377 . S
C762 C761 1.373 1_545 S
C763 C747 1.377 . S
C763 C761 1.389 . S
C763 C764 1.524 . S
C764 C763 1.524 . S
C764 C765 1.397 . S
C764 C769 1.363 . S
C765 H736 0.950 . S
C765 C764 1.397 . S
C765 C766 1.334 . S
C766 H737 0.950 . S
C766 C765 1.334 . S
C766 C767 1.287 . S
C767 C766 1.287 . S
C767 C768 1.524 . S
C767 H770 0.999 . S
C768 H738 0.950 . S
C768 C767 1.524 . S
C768 C769 1.415 . S
C769 H739 0.950 . S
C769 C764 1.363 . S
C769 C768 1.415 . S
H770 C767 0.999 . S
H771 C752 0.913 . S
H772 C790 0.951 . S
H773 C792 0.951 . S
H774 C794 0.950 . S
H775 C795 0.950 . S
H776 C797 0.950 . S
H777 C800 0.950 . S
H778 C801 0.950 . S
H779 C803 0.950 . S
H780 C804 0.950 . S
H781 C805 0.951 . S
H782 C807 0.951 1_455 S
H783 C809 0.950 . S
H784 C810 0.950 . S
H785 C812 0.950 . S
H786 C815 0.950 . S
H787 C816 0.950 . S
H788 C818 0.950 . S
H789 C819 0.950 . S
C790 H772 0.951 . S
C790 C791 1.366 . S
C790 C792 1.388 . S
C791 C790 1.366 . S
C791 C795 1.385 . S
C792 H773 0.951 . S
C792 C790 1.388 . S
C792 C793 1.366 . S
C793 C792 1.366 . S
C793 C794 1.414 . S
C793 C796 1.499 . S
C794 H774 0.950 . S
C794 C793 1.414 . S
C794 C795 1.374 . S
C795 H775 0.950 . S
C795 C791 1.385 . S
C795 C794 1.374 . S
C796 C793 1.499 . S
C796 C797 1.373 . S
C796 C798 1.389 . S
C797 H776 0.950 . S
C797 C796 1.373 . S
C797 C813 1.377 . S
C798 C796 1.389 . S
C798 C799 1.524 . S
C798 C812 1.377 . S
C799 C798 1.524 . S
C799 C800 1.397 . S
C799 C804 1.363 . S
C800 H777 0.950 . S
C800 C799 1.397 . S
C800 C801 1.334 . S
C801 H778 0.950 . S
C801 C800 1.334 . S
C801 C802 1.287 . S
C802 C801 1.287 . S
C802 C803 1.524 . S
C802 H821 0.913 . S
C803 H779 0.950 . S
C803 C802 1.524 . S
C803 C804 1.415 . S
C804 H780 0.950 . S
C804 C799 1.363 . S
C804 C803 1.415 . S
C805 H781 0.951 . S
C805 C806 1.366 . S
C805 C807 1.388 . S
C806 C805 1.366 . S
C806 C810 1.385 . S
C807 H782 0.951 1_655 S
C807 C805 1.388 . S
C807 C808 1.366 1_655 S
C808 C807 1.366 1_455 S
C808 C809 1.414 1_455 S
C808 C811 1.499 . S
C809 H783 0.950 . S
C809 C808 1.414 1_655 S
C809 C810 1.374 . S
C810 H784 0.950 . S
C810 C806 1.385 . S
C810 C809 1.374 . S
C811 C808 1.499 . S
C811 C812 1.373 . S
C811 C813 1.389 . S
C812 H785 0.950 . S
C812 C798 1.377 . S
C812 C811 1.373 . S
C813 C797 1.377 . S
C813 C811 1.389 . S
C813 C814 1.524 . S
C814 C813 1.524 . S
C814 C815 1.397 1_455 S
C814 C819 1.363 . S
C815 H786 0.950 . S
C815 C814 1.397 1_655 S
C815 C816 1.334 . S
C816 H787 0.950 . S
C816 C815 1.334 . S
C816 C817 1.287 . S
C817 C816 1.287 . S
C817 C818 1.524 . S
C817 H820 0.999 . S
C818 H788 0.950 . S
C818 C817 1.524 . S
C818 C819 1.415 1_655 S
C819 H789 0.950 . S
C819 C814 1.363 . S
C819 C818 1.415 1_455 S
H820 C817 0.999 . S
H821 C802 0.913 . S
H822 C840 0.951 . S
H823 C842 0.951 1_545 S
H824 C844 0.950 . S
H825 C845 0.950 . S
H826 C847 0.950 . S
H827 C850 0.950 . S
H828 C851 0.950 . S
H829 C853 0.950 . S
H830 C854 0.950 . S
H831 C855 0.932 1_565 S
H832 C857 0.951 1_565 S
H833 C859 0.950 . S
H834 C860 0.950 . S
H835 C862 0.950 . S
H836 C865 0.950 . S
H837 C866 0.950 . S
H838 C868 0.950 . S
H839 C869 0.950 . S
C840 H822 0.951 . S
C840 C841 1.366 . S
C840 C842 1.388 . S
C841 C840 1.366 . S
C841 C845 1.385 . S
C842 H823 0.951 1_565 S
C842 C840 1.388 . S
C842 C843 1.366 . S
C843 C842 1.366 . S
C843 C844 1.414 . S
C843 C846 1.499 . S
C844 H824 0.950 . S
C844 C843 1.414 . S
C844 C845 1.374 . S
C845 H825 0.950 . S
C845 C841 1.385 . S
C845 C844 1.374 . S
C846 C843 1.499 . S
C846 C847 1.373 . S
C846 C848 1.389 . S
C847 H826 0.950 . S
C847 C846 1.373 . S
C847 C863 1.363 1_565 S
C848 C846 1.389 . S
C848 C849 1.524 . S
C848 C862 1.377 1_565 S
C849 C848 1.524 . S
C849 C850 1.397 . S
C849 C854 1.363 1_565 S
C850 H827 0.950 . S
C850 C849 1.397 . S
C850 C851 1.334 . S
C851 H828 0.950 . S
C851 C850 1.334 . S
C851 C852 1.287 . S
C852 C851 1.287 . S
C852 C853 1.524 1_565 S
C852 H871 0.913 . S
C853 H829 0.950 . S
C853 C852 1.524 1_545 S
C853 C854 1.415 . S
C854 H830 0.950 . S
C854 C849 1.363 1_545 S
C854 C853 1.415 . S
C855 H831 0.932 1_545 S
C855 C856 1.366 . S
C855 C857 1.388 . S
C856 C855 1.366 . S
C856 C860 1.385 . S
C857 H832 0.951 1_545 S
C857 C855 1.388 . S
C857 C858 1.366 . S
C858 C857 1.366 . S
C858 C859 1.414 . S
C858 C861 1.499 . S
C859 H833 0.950 . S
C859 C858 1.414 . S
C859 C860 1.374 . S
C860 H834 0.950 . S
C860 C856 1.385 . S
C860 C859 1.374 . S
C861 C858 1.499 . S
C861 C862 1.373 . S
C861 C863 1.399 . S
C862 H835 0.950 . S
C862 C848 1.377 1_545 S
C862 C861 1.373 . S
C863 C847 1.363 1_545 S
C863 C861 1.399 . S
C863 C864 1.531 . S
C864 C863 1.531 . S
C864 C865 1.397 . S
C864 C869 1.363 1_545 S
C865 H836 0.950 . S
C865 C864 1.397 . S
C865 C866 1.334 . S
C866 H837 0.950 . S
C866 C865 1.334 . S
C866 C867 1.287 . S
C867 C866 1.287 . S
C867 C868 1.524 1_545 S
C867 H870 0.999 . S
C868 H838 0.950 . S
C868 C867 1.524 1_565 S
C868 C869 1.415 . S
C869 H839 0.950 . S
C869 C864 1.363 1_565 S
C869 C868 1.415 . S
H870 C867 0.999 . S
H871 C852 0.913 . S
H872 C890 0.951 . S
H873 C892 0.951 . S
H874 C894 0.950 1_655 S
H875 C895 0.950 . S
H876 C897 0.950 . S
H877 C900 0.950 . S
H878 C901 0.950 . S
H879 C903 0.950 . S
H880 C904 0.950 . S
H881 C905 0.951 . S
H882 C907 0.951 . S
H883 C909 0.950 1_455 S
H884 C910 0.950 . S
H885 C912 0.950 . S
H886 C915 0.950 . S
H887 C916 0.950 . S
H888 C918 0.950 . S
H889 C919 0.950 . S
C890 H872 0.951 . S
C890 C891 1.366 . S
C890 C892 1.388 . S
C891 C890 1.366 . S
C891 C895 1.385 . S
C892 H873 0.951 . S
C892 C890 1.388 . S
C892 C893 1.366 . S
C893 C892 1.366 . S
C893 C894 1.414 . S
C893 C896 1.499 . S
C894 H874 0.950 1_455 S
C894 C893 1.414 . S
C894 C895 1.374 . S
C895 H875 0.950 . S
C895 C891 1.385 . S
C895 C894 1.374 . S
C896 C893 1.499 . S
C896 C897 1.373 1_455 S
C896 C898 1.389 . S
C897 H876 0.950 . S
C897 C896 1.373 1_655 S
C897 C913 1.377 . S
C898 C896 1.389 . S
C898 C899 1.524 . S
C898 C912 1.377 . S
C899 C898 1.524 . S
C899 C900 1.397 . S
C899 C904 1.363 . S
C900 H877 0.950 . S
C900 C899 1.397 . S
C900 C901 1.334 . S
C901 H878 0.950 . S
C901 C900 1.334 . S
C901 C902 1.287 . S
C902 C901 1.287 . S
C902 C903 1.524 . S
C902 H921 0.913 . S
C903 H879 0.950 . S
C903 C902 1.524 . S
C903 C904 1.415 . S
C904 H880 0.950 . S
C904 C899 1.363 . S
C904 C903 1.415 . S
C905 H881 0.951 . S
C905 C906 1.366 . S
C905 C907 1.388 . S
C906 C905 1.366 . S
C906 C910 1.385 . S
C907 H882 0.951 . S
C907 C905 1.388 . S
C907 C908 1.366 . S
C908 C907 1.366 . S
C908 C909 1.414 . S
C908 C911 1.499 . S
C909 H883 0.950 1_655 S
C909 C908 1.414 . S
C909 C910 1.374 . S
C910 H884 0.950 . S
C910 C906 1.385 . S
C910 C909 1.374 . S
C911 C908 1.499 . S
C911 C912 1.373 1_655 S
C911 C913 1.389 . S
C912 H885 0.950 . S
C912 C898 1.377 . S
C912 C911 1.373 1_455 S
C913 C897 1.377 . S
C913 C911 1.389 . S
C913 C914 1.524 . S
C914 C913 1.524 . S
C914 C915 1.397 . S
C914 C919 1.363 . S
C915 H886 0.950 . S
C915 C914 1.397 . S
C915 C916 1.334 . S
C916 H887 0.950 . S
C916 C915 1.334 . S
C916 C917 1.287 . S
C917 C916 1.287 . S
C917 C918 1.524 . S
C917 H920 0.999 . S
C918 H888 0.950 . S
C918 C917 1.524 . S
C918 C919 1.415 . S
C919 H889 0.950 . S
C919 C914 1.363 . S
C919 C918 1.415 . S
H920 C917 0.999 . S
H921 C902 0.913 . S
H922 C940 0.951 . S
H923 C942 0.951 1_545 S
H924 C944 0.950 . S
H925 C945 0.950 . S
H926 C947 0.950 . S
H927 C950 0.950 . S
H928 C951 0.950 . S
H929 C953 0.950 . S
H930 C954 0.950 . S
H931 C955 0.951 . S
H932 C957 0.951 1_565 S
H933 C959 0.950 . S
H934 C960 0.950 . S
H935 C962 0.950 . S
H936 C965 0.950 . S
H937 C966 0.950 . S
H938 C968 0.950 . S
H939 C969 0.950 . S
C940 H922 0.951 . S
C940 C941 1.366 . S
C940 C942 1.388 . S
C941 C940 1.366 . S
C941 C945 1.385 . S
C942 H923 0.951 1_565 S
C942 C940 1.388 . S
C942 C943 1.366 . S
C943 C942 1.366 . S
C943 C944 1.414 . S
C943 C946 1.499 . S
C944 H924 0.950 . S
C944 C943 1.414 . S
C944 C945 1.374 . S
C945 H925 0.950 . S
C945 C941 1.385 . S
C945 C944 1.374 . S
C946 C943 1.499 . S
C946 C947 1.373 . S
C946 C948 1.389 1_565 S
C947 H926 0.950 . S
C947 C946 1.373 . S
C947 C963 1.377 . S
C948 C946 1.389 1_545 S
C948 C949 1.524 . S
C948 C962 1.377 . S
C949 C948 1.524 . S
C949 C950 1.397 . S
C949 C954 1.363 . S
C950 H927 0.950 . S
C950 C949 1.397 . S
C950 C951 1.334 . S
C951 H928 0.950 . S
C951 C950 1.334 . S
C951 C952 1.287 . S
C952 C951 1.287 . S
C952 C953 1.524 . S
C952 H971 0.913 . S
C953 H929 0.950 . S
C953 C952 1.524 . S
C953 C954 1.415 . S
C954 H930 0.950 . S
C954 C949 1.363 . S
C954 C953 1.415 . S
C955 H931 0.951 . S
C955 C956 1.366 . S
C955 C957 1.388 . S
C956 C955 1.366 . S
C956 C960 1.385 . S
C957 H932 0.951 1_545 S
C957 C955 1.388 . S
C957 C958 1.366 . S
C958 C957 1.366 . S
C958 C959 1.414 . S
C958 C961 1.499 . S
C959 H933 0.950 . S
C959 C958 1.414 . S
C959 C960 1.374 . S
C960 H934 0.950 . S
C960 C956 1.385 . S
C960 C959 1.374 . S
C961 C958 1.499 . S
C961 C962 1.373 . S
C961 C963 1.389 1_545 S
C962 H935 0.950 . S
C962 C948 1.377 . S
C962 C961 1.373 . S
C963 C947 1.377 . S
C963 C961 1.389 1_565 S
C963 C964 1.524 . S
C964 C963 1.524 . S
C964 C965 1.397 . S
C964 C969 1.363 . S
C965 H936 0.950 . S
C965 C964 1.397 . S
C965 C966 1.334 . S
C966 H937 0.950 . S
C966 C965 1.334 . S
C966 C967 1.287 . S
C967 C966 1.287 . S
C967 C968 1.524 . S
C967 H970 0.999 . S
C968 H938 0.950 . S
C968 C967 1.524 . S
C968 C969 1.415 . S
C969 H939 0.950 . S
C969 C964 1.363 . S
C969 C968 1.415 . S
H970 C967 0.999 . S
H971 C952 0.913 . S
H972 C990 0.951 . S
H973 C992 0.951 . S
H974 C994 0.950 . S
H975 C995 0.950 . S
H976 C997 0.950 . S
H977 C1000 0.950 . S
H978 C1001 0.950 . S
H979 C1003 0.950 . S
H980 C1004 0.950 . S
H981 C1005 0.951 . S
H982 C1007 0.951 . S
H983 C1009 0.950 . S
H984 C1010 0.950 . S
H985 C1012 0.950 . S
H986 C1015 0.950 . S
H987 C1016 0.950 . S
H988 C1018 0.950 . S
H989 C1019 0.950 . S
C990 H972 0.951 . S
C990 C991 1.366 . S
C990 C992 1.388 . S
C991 C990 1.366 . S
C991 C995 1.385 . S
C992 H973 0.951 . S
C992 C990 1.388 . S
C992 C993 1.366 . S
C993 C992 1.366 . S
C993 C994 1.414 . S
C993 C996 1.499 . S
C994 H974 0.950 . S
C994 C993 1.414 . S
C994 C995 1.374 . S
C995 H975 0.950 . S
C995 C991 1.385 . S
C995 C994 1.374 . S
C996 C993 1.499 . S
C996 C997 1.365 1_554 S
C996 C998 1.389 . S
C997 H976 0.950 . S
C997 C996 1.365 1_556 S
C997 C1013 1.384 . S
C998 C996 1.389 . S
C998 C999 1.524 . S
C998 C1012 1.384 . S
C999 C998 1.524 . S
C999 C1000 1.397 . S
C999 C1004 1.363 . S
C1000 H977 0.950 . S
C1000 C999 1.397 . S
C1000 C1001 1.334 . S
C1001 H978 0.950 . S
C1001 C1000 1.334 . S
C1001 C1002 1.287 . S
C1002 C1001 1.287 . S
C1002 C1003 1.524 . S
C1002 H1021 0.913 . S
C1003 H979 0.950 . S
C1003 C1002 1.524 . S
C1003 C1004 1.415 . S
C1004 H980 0.950 . S
C1004 C999 1.363 . S
C1004 C1003 1.415 . S
C1005 H981 0.951 . S
C1005 C1006 1.366 . S
C1005 C1007 1.388 . S
C1006 C1005 1.366 . S
C1006 C1010 1.385 . S
C1007 H982 0.951 . S
C1007 C1005 1.388 . S
C1007 C1008 1.366 . S
C1008 C1007 1.366 . S
C1008 C1009 1.414 . S
C1008 C1011 1.499 . S
C1009 H983 0.950 . S
C1009 C1008 1.414 . S
C1009 C1010 1.374 . S
C1010 H984 0.950 . S
C1010 C1006 1.385 . S
C1010 C1009 1.374 . S
C1011 C1008 1.499 . S
C1011 C1012 1.365 1_556 S
C1011 C1013 1.389 . S
C1012 H985 0.950 . S
C1012 C998 1.384 . S
C1012 C1011 1.365 1_554 S
C1013 C997 1.384 . S
C1013 C1011 1.389 . S
C1013 C1014 1.524 . S
C1014 C1013 1.524 . S
C1014 C1015 1.397 . S
C1014 C1019 1.363 . S
C1015 H986 0.950 . S
C1015 C1014 1.397 . S
C1015 C1016 1.334 . S
C1016 H987 0.950 . S
C1016 C1015 1.334 . S
C1016 C1017 1.287 . S
C1017 C1016 1.287 . S
C1017 C1018 1.524 . S
C1017 H1020 0.999 . S
C1018 H988 0.950 . S
C1018 C1017 1.524 . S
C1018 C1019 1.415 . S
C1019 H989 0.950 . S
C1019 C1014 1.363 . S
C1019 C1018 1.415 . S
H1020 C1017 0.999 . S
H1021 C1002 0.913 . S
H1022 C1040 0.951 . S
H1023 C1042 0.951 . S
H1024 C1044 0.950 . S
H1025 C1045 0.950 . S
H1026 C1047 0.950 . S
H1027 C1050 0.950 . S
H1028 C1051 0.950 . S
H1029 C1053 0.950 . S
H1030 C1054 0.950 . S
H1031 C1055 0.951 . S
H1032 C1057 0.951 . S
H1033 C1059 0.950 . S
H1034 C1060 0.950 . S
H1035 C1062 0.950 . S
H1036 C1065 0.950 . S
H1037 C1066 0.950 . S
H1038 C1068 0.950 . S
H1039 C1069 0.950 . S
C1040 H1022 0.951 . S
C1040 C1041 1.366 . S
C1040 C1042 1.388 . S
C1041 C1040 1.366 . S
C1041 C1045 1.385 . S
C1042 H1023 0.951 . S
C1042 C1040 1.388 . S
C1042 C1043 1.366 . S
C1043 C1042 1.366 . S
C1043 C1044 1.414 . S
C1043 C1046 1.499 . S
C1044 H1024 0.950 . S
C1044 C1043 1.414 . S
C1044 C1045 1.374 . S
C1045 H1025 0.950 . S
C1045 C1041 1.385 . S
C1045 C1044 1.374 . S
C1046 C1043 1.499 . S
C1046 C1047 1.373 1_565 S
C1046 C1048 1.389 1_556 S
C1047 H1026 0.950 . S
C1047 C1046 1.373 1_545 S
C1047 C1063 1.377 1_455 S
C1048 C1046 1.389 1_554 S
C1048 C1049 1.524 . S
C1048 C1062 1.377 1_455 S
C1049 C1048 1.524 . S
C1049 C1050 1.360 1_454 S
C1049 C1054 1.402 . S
C1050 H1027 0.950 . S
C1050 C1049 1.360 1_656 S
C1050 C1051 1.334 . S
C1051 H1028 0.950 . S
C1051 C1050 1.334 . S
C1051 C1052 1.304 1_655 S
C1052 C1051 1.304 1_455 S
C1052 C1053 1.507 1_556 S
C1052 H1071 0.914 . S
C1053 H1029 0.950 . S
C1053 C1052 1.507 1_554 S
C1053 C1054 1.415 . S
C1054 H1030 0.950 . S
C1054 C1049 1.402 . S
C1054 C1053 1.415 . S
C1055 H1031 0.951 . S
C1055 C1056 1.366 . S
C1055 C1057 1.388 . S
C1056 C1055 1.366 . S
C1056 C1060 1.385 . S
C1057 H1032 0.951 . S
C1057 C1055 1.388 . S
C1057 C1058 1.366 . S
C1058 C1057 1.366 . S
C1058 C1059 1.414 . S
C1058 C1061 1.499 . S
C1059 H1033 0.950 . S
C1059 C1058 1.414 . S
C1059 C1060 1.374 . S
C1060 H1034 0.950 . S
C1060 C1056 1.385 . S
C1060 C1059 1.374 . S
C1061 C1058 1.499 . S
C1061 C1062 1.373 1_545 S
C1061 C1063 1.389 1_554 S
C1062 H1035 0.950 . S
C1062 C1048 1.377 1_655 S
C1062 C1061 1.373 1_565 S
C1063 C1047 1.377 1_655 S
C1063 C1061 1.389 1_556 S
C1063 C1064 1.524 . S
C1064 C1063 1.524 . S
C1064 C1065 1.360 1_656 S
C1064 C1069 1.402 . S
C1065 H1036 0.950 . S
C1065 C1064 1.360 1_454 S
C1065 C1066 1.334 . S
C1066 H1037 0.950 . S
C1066 C1065 1.334 . S
C1066 C1067 1.304 1_455 S
C1067 C1066 1.304 1_655 S
C1067 C1068 1.507 1_554 S
C1067 H1070 0.999 1_554 S
C1068 H1038 0.950 . S
C1068 C1067 1.507 1_556 S
C1068 C1069 1.415 . S
C1069 H1039 0.950 . S
C1069 C1064 1.402 . S
C1069 C1068 1.415 . S
H1070 C1067 0.999 1_556 S
H1071 C1052 0.914 . S
H1072 C1090 0.951 . S
H1073 C1092 0.951 . S
H1074 C1094 0.950 . S
H1075 C1095 0.950 . S
H1076 C1097 0.950 . S
H1077 C1100 0.950 . S
H1078 C1101 0.950 . S
H1079 C1103 0.950 . S
H1080 C1104 0.950 . S
H1081 C1105 0.951 . S
H1082 C1107 0.951 . S
H1083 C1109 0.950 . S
H1084 C1110 0.950 . S
H1085 C1112 0.950 . S
H1086 C1115 0.950 . S
H1087 C1116 0.950 . S
H1088 C1118 0.950 . S
H1089 C1119 0.950 . S
C1090 H1072 0.951 . S
C1090 C1091 1.366 . S
C1090 C1092 1.388 . S
C1091 C1090 1.366 . S
C1091 C1095 1.385 . S
C1092 H1073 0.951 . S
C1092 C1090 1.388 . S
C1092 C1093 1.366 . S
C1093 C1092 1.366 . S
C1093 C1094 1.414 . S
C1093 C1096 1.499 . S
C1094 H1074 0.950 . S
C1094 C1093 1.414 . S
C1094 C1095 1.374 . S
C1095 H1075 0.950 . S
C1095 C1091 1.385 . S
C1095 C1094 1.374 . S
C1096 C1093 1.499 . S
C1096 C1097 1.373 . S
C1096 C1098 1.389 . S
C1097 H1076 0.950 . S
C1097 C1096 1.373 . S
C1097 C1113 1.377 . S
C1098 C1096 1.389 . S
C1098 C1099 1.524 . S
C1098 C1112 1.377 . S
C1099 C1098 1.524 . S
C1099 C1100 1.397 . S
C1099 C1104 1.363 . S
C1100 H1077 0.950 . S
C1100 C1099 1.397 . S
C1100 C1101 1.334 . S
C1101 H1078 0.950 . S
C1101 C1100 1.334 . S
C1101 C1102 1.287 . S
C1102 C1101 1.287 . S
C1102 C1103 1.524 . S
C1102 H1121 0.913 . S
C1103 H1079 0.950 . S
C1103 C1102 1.524 . S
C1103 C1104 1.415 . S
C1104 H1080 0.950 . S
C1104 C1099 1.363 . S
C1104 C1103 1.415 . S
C1105 H1081 0.951 . S
C1105 C1106 1.366 . S
C1105 C1107 1.388 . S
C1106 C1105 1.366 . S
C1106 C1110 1.385 . S
C1107 H1082 0.951 . S
C1107 C1105 1.388 . S
C1107 C1108 1.366 . S
C1108 C1107 1.366 . S
C1108 C1109 1.414 . S
C1108 C1111 1.499 . S
C1109 H1083 0.950 . S
C1109 C1108 1.414 . S
C1109 C1110 1.374 . S
C1110 H1084 0.950 . S
C1110 C1106 1.385 . S
C1110 C1109 1.374 . S
C1111 C1108 1.499 . S
C1111 C1112 1.373 . S
C1111 C1113 1.389 . S
C1112 H1085 0.950 . S
C1112 C1098 1.377 . S
C1112 C1111 1.373 . S
C1113 C1097 1.377 . S
C1113 C1111 1.389 . S
C1113 C1114 1.524 . S
C1114 C1113 1.524 . S
C1114 C1115 1.397 . S
C1114 C1119 1.363 . S
C1115 H1086 0.950 . S
C1115 C1114 1.397 . S
C1115 C1116 1.334 . S
C1116 H1087 0.950 . S
C1116 C1115 1.334 . S
C1116 C1117 1.287 . S
C1117 C1116 1.287 . S
C1117 C1118 1.524 . S
C1117 H1120 0.999 . S
C1118 H1088 0.950 . S
C1118 C1117 1.524 . S
C1118 C1119 1.415 . S
C1119 H1089 0.950 . S
C1119 C1114 1.363 . S
C1119 C1118 1.415 . S
H1120 C1117 0.999 . S
H1121 C1102 0.913 . S
H1122 C1140 0.951 . S
H1123 C1142 0.951 . S
H1124 C1144 0.950 . S
H1125 C1145 0.950 . S
H1126 C1147 0.950 . S
H1127 C1150 0.950 . S
H1128 C1151 0.950 . S
H1129 C1153 0.950 . S
H1130 C1154 0.950 . S
H1131 C1155 0.951 . S
H1132 C1157 0.951 . S
H1133 C1159 0.950 . S
H1134 C1160 0.950 . S
H1135 C1162 0.950 . S
H1136 C1165 0.950 . S
H1137 C1166 0.950 . S
H1138 C1168 0.950 . S
H1139 C1169 0.950 . S
C1140 H1122 0.951 . S
C1140 C1141 1.366 . S
C1140 C1142 1.388 . S
C1141 C1140 1.366 . S
C1141 C1145 1.385 . S
C1142 H1123 0.951 . S
C1142 C1140 1.388 . S
C1142 C1143 1.366 . S
C1143 C1142 1.366 . S
C1143 C1144 1.414 . S
C1143 C1146 1.499 . S
C1144 H1124 0.950 . S
C1144 C1143 1.414 . S
C1144 C1145 1.374 . S
C1145 H1125 0.950 . S
C1145 C1141 1.385 . S
C1145 C1144 1.374 . S
C1146 C1143 1.499 . S
C1146 C1147 1.373 . S
C1146 C1148 1.389 . S
C1147 H1126 0.950 . S
C1147 C1146 1.373 . S
C1147 C1163 1.377 . S
C1148 C1146 1.389 . S
C1148 C1149 1.524 . S
C1148 C1162 1.377 . S
C1149 C1148 1.524 . S
C1149 C1150 1.397 . S
C1149 C1154 1.363 . S
C1150 H1127 0.950 . S
C1150 C1149 1.397 . S
C1150 C1151 1.334 . S
C1151 H1128 0.950 . S
C1151 C1150 1.334 . S
C1151 C1152 1.287 . S
C1152 C1151 1.287 . S
C1152 C1153 1.524 . S
C1152 H1171 0.913 . S
C1153 H1129 0.950 . S
C1153 C1152 1.524 . S
C1153 C1154 1.415 . S
C1154 H1130 0.950 . S
C1154 C1149 1.363 . S
C1154 C1153 1.415 . S
C1155 H1131 0.951 . S
C1155 C1156 1.366 . S
C1155 C1157 1.388 . S
C1156 C1155 1.366 . S
C1156 C1160 1.385 . S
C1157 H1132 0.951 . S
C1157 C1155 1.388 . S
C1157 C1158 1.366 . S
C1158 C1157 1.366 . S
C1158 C1159 1.414 . S
C1158 C1161 1.499 . S
C1159 H1133 0.950 . S
C1159 C1158 1.414 . S
C1159 C1160 1.374 . S
C1160 H1134 0.950 . S
C1160 C1156 1.385 . S
C1160 C1159 1.374 . S
C1161 C1158 1.499 . S
C1161 C1162 1.373 . S
C1161 C1163 1.389 . S
C1162 H1135 0.950 . S
C1162 C1148 1.377 . S
C1162 C1161 1.373 . S
C1163 C1147 1.377 . S
C1163 C1161 1.389 . S
C1163 C1164 1.524 . S
C1164 C1163 1.524 . S
C1164 C1165 1.397 . S
C1164 C1169 1.363 . S
C1165 H1136 0.950 . S
C1165 C1164 1.397 . S
C1165 C1166 1.334 . S
C1166 H1137 0.950 . S
C1166 C1165 1.334 . S
C1166 C1167 1.287 . S
C1167 C1166 1.287 . S
C1167 C1168 1.524 . S
C1167 H1170 0.999 . S
C1168 H1138 0.950 . S
C1168 C1167 1.524 . S
C1168 C1169 1.415 . S
C1169 H1139 0.950 . S
C1169 C1164 1.363 . S
C1169 C1168 1.415 . S
H1170 C1167 0.999 . S
H1171 C1152 0.913 . S
H1172 C1190 0.951 . S
H1173 C1192 0.951 . S
H1174 C1194 0.950 . S
H1175 C1195 0.950 . S
H1176 C1197 0.950 . S
H1177 C1200 0.950 . S
H1178 C1201 0.950 . S
H1179 C1203 0.950 . S
H1180 C1204 0.950 . S
H1181 C1205 0.951 . S
H1182 C1207 0.951 . S
H1183 C1209 0.950 . S
H1184 C1210 0.950 . S
H1185 C1212 0.950 . S
H1186 C1215 0.950 . S
H1187 C1216 0.950 . S
H1188 C1218 0.950 . S
H1189 C1219 0.950 . S
C1190 H1172 0.951 . S
C1190 C1191 1.366 . S
C1190 C1192 1.388 . S
C1191 C1190 1.366 . S
C1191 C1195 1.385 . S
C1192 H1173 0.951 . S
C1192 C1190 1.388 . S
C1192 C1193 1.366 . S
C1193 C1192 1.366 . S
C1193 C1194 1.414 . S
C1193 C1196 1.499 . S
C1194 H1174 0.950 . S
C1194 C1193 1.414 . S
C1194 C1195 1.374 . S
C1195 H1175 0.950 . S
C1195 C1191 1.385 . S
C1195 C1194 1.374 . S
C1196 C1193 1.499 . S
C1196 C1197 1.373 . S
C1196 C1198 1.389 . S
C1197 H1176 0.950 . S
C1197 C1196 1.373 . S
C1197 C1213 1.377 . S
C1198 C1196 1.389 . S
C1198 C1199 1.524 . S
C1198 C1212 1.377 . S
C1199 C1198 1.524 . S
C1199 C1200 1.397 . S
C1199 C1204 1.363 . S
C1200 H1177 0.950 . S
C1200 C1199 1.397 . S
C1200 C1201 1.334 . S
C1201 H1178 0.950 . S
C1201 C1200 1.334 . S
C1201 C1202 1.287 . S
C1202 C1201 1.287 . S
C1202 C1203 1.524 . S
C1202 H1221 0.913 . S
C1203 H1179 0.950 . S
C1203 C1202 1.524 . S
C1203 C1204 1.415 . S
C1204 H1180 0.950 . S
C1204 C1199 1.363 . S
C1204 C1203 1.415 . S
C1205 H1181 0.951 . S
C1205 C1206 1.366 . S
C1205 C1207 1.388 . S
C1206 C1205 1.366 . S
C1206 C1210 1.385 . S
C1207 H1182 0.951 . S
C1207 C1205 1.388 . S
C1207 C1208 1.366 . S
C1208 C1207 1.366 . S
C1208 C1209 1.414 . S
C1208 C1211 1.499 . S
C1209 H1183 0.950 . S
C1209 C1208 1.414 . S
C1209 C1210 1.374 . S
C1210 H1184 0.950 . S
C1210 C1206 1.385 . S
C1210 C1209 1.374 . S
C1211 C1208 1.499 . S
C1211 C1212 1.373 . S
C1211 C1213 1.389 . S
C1212 H1185 0.950 . S
C1212 C1198 1.377 . S
C1212 C1211 1.373 . S
C1213 C1197 1.377 . S
C1213 C1211 1.389 . S
C1213 C1214 1.524 . S
C1214 C1213 1.524 . S
C1214 C1215 1.397 . S
C1214 C1219 1.363 . S
C1215 H1186 0.950 . S
C1215 C1214 1.397 . S
C1215 C1216 1.334 . S
C1216 H1187 0.950 . S
C1216 C1215 1.334 . S
C1216 C1217 1.287 . S
C1217 C1216 1.287 . S
C1217 C1218 1.524 . S
C1217 H1220 0.999 . S
C1218 H1188 0.950 . S
C1218 C1217 1.524 . S
C1218 C1219 1.415 . S
C1219 H1189 0.950 . S
C1219 C1214 1.363 . S
C1219 C1218 1.415 . S
H1220 C1217 0.999 . S
H1221 C1202 0.913 . S
H1222 C1240 0.951 . S
H1223 C1242 0.951 . S
H1224 C1244 0.950 . S
H1225 C1245 0.950 . S
H1226 C1247 0.950 . S
H1227 C1250 0.950 . S
H1228 C1251 0.950 . S
H1229 C1253 0.950 . S
H1230 C1254 0.950 . S
H1231 C1255 0.951 . S
H1232 C1257 0.951 . S
H1233 C1259 0.950 . S
H1234 C1260 0.950 . S
H1235 C1262 0.950 . S
H1236 C1265 0.950 . S
H1237 C1266 0.950 . S
H1238 C1268 0.950 . S
H1239 C1269 0.950 . S
C1240 H1222 0.951 . S
C1240 C1241 1.366 . S
C1240 C1242 1.388 . S
C1241 C1240 1.366 . S
C1241 C1245 1.385 . S
C1242 H1223 0.951 . S
C1242 C1240 1.388 . S
C1242 C1243 1.366 . S
C1243 C1242 1.366 . S
C1243 C1244 1.414 . S
C1243 C1246 1.499 . S
C1244 H1224 0.950 . S
C1244 C1243 1.414 . S
C1244 C1245 1.374 . S
C1245 H1225 0.950 . S
C1245 C1241 1.385 . S
C1245 C1244 1.374 . S
C1246 C1243 1.499 . S
C1246 C1247 1.373 . S
C1246 C1248 1.389 . S
C1247 H1226 0.950 . S
C1247 C1246 1.373 . S
C1247 C1263 1.377 . S
C1248 C1246 1.389 . S
C1248 C1249 1.524 . S
C1248 C1262 1.377 . S
C1249 C1248 1.524 . S
C1249 C1250 1.397 . S
C1249 C1254 1.363 . S
C1250 H1227 0.950 . S
C1250 C1249 1.397 . S
C1250 C1251 1.334 . S
C1251 H1228 0.950 . S
C1251 C1250 1.334 . S
C1251 C1252 1.287 . S
C1252 C1251 1.287 . S
C1252 C1253 1.524 . S
C1252 H1271 0.913 . S
C1253 H1229 0.950 . S
C1253 C1252 1.524 . S
C1253 C1254 1.415 . S
C1254 H1230 0.950 . S
C1254 C1249 1.363 . S
C1254 C1253 1.415 . S
C1255 H1231 0.951 . S
C1255 C1256 1.366 . S
C1255 C1257 1.388 . S
C1256 C1255 1.366 . S
C1256 C1260 1.385 . S
C1257 H1232 0.951 . S
C1257 C1255 1.388 . S
C1257 C1258 1.366 . S
C1258 C1257 1.366 . S
C1258 C1259 1.414 . S
C1258 C1261 1.499 . S
C1259 H1233 0.950 . S
C1259 C1258 1.414 . S
C1259 C1260 1.374 . S
C1260 H1234 0.950 . S
C1260 C1256 1.385 . S
C1260 C1259 1.374 . S
C1261 C1258 1.499 . S
C1261 C1262 1.373 . S
C1261 C1263 1.389 . S
C1262 H1235 0.950 . S
C1262 C1248 1.377 . S
C1262 C1261 1.373 . S
C1263 C1247 1.377 . S
C1263 C1261 1.389 . S
C1263 C1264 1.524 . S
C1264 C1263 1.524 . S
C1264 C1265 1.397 . S
C1264 C1269 1.363 . S
C1265 H1236 0.950 . S
C1265 C1264 1.397 . S
C1265 C1266 1.334 . S
C1266 H1237 0.950 . S
C1266 C1265 1.334 . S
C1266 C1267 1.287 . S
C1267 C1266 1.287 . S
C1267 C1268 1.524 . S
C1267 H1270 0.999 . S
C1268 H1238 0.950 . S
C1268 C1267 1.524 . S
C1268 C1269 1.415 . S
C1269 H1239 0.950 . S
C1269 C1264 1.363 . S
C1269 C1268 1.415 . S
H1270 C1267 0.999 . S
H1271 C1252 0.913 . S
C491 C3 1.572 . S
C506 C170 1.573 . S
C541 C229 1.573 . S
C556 C62 1.572 . S
C591 C121 1.572 . S
C606 C52 1.573 . S
C641 C180 1.572 . S
C656 C111 1.573 . S
C691 C406 1.573 . S
C706 C239 1.572 . S
C741 C298 1.572 . S
C756 C465 1.573 . S
C791 C357 1.572 . S
C806 C288 1.573 . S
C841 C416 1.572 . S
C856 C347 1.573 . S
C891 C33 1.594 . S
C906 C269 1.594 . S
C941 C92 1.594 . S
C956 C328 1.594 . S
C991 C151 1.594 . S
C1006 C387 1.594 . S
C1041 C446 1.594 . S
C1056 C210 1.594 . S
C1091 C5 1.655 . S
C1106 C64 1.655 . S
C1141 C182 1.655 . S
C1156 C123 1.655 . S
C1191 C300 1.655 . S
C1206 C241 1.655 . S
C1241 C359 1.655 . S
C1256 C418 1.655 . S
