# Generated by pormake.
# Topology wkj, (6)-cn, num edge types: 1
# Building blocks:
#     Node 0, Type 0, BuildingBlock: PAMTOO_clean_sbu_0, # of connection points: 6
#     Node 1, Type 0, BuildingBlock: PAMTOO_clean_sbu_0, # of connection points: 6
#     Node 2, Type 0, BuildingBlock: PAMTOO_clean_sbu_0, # of connection points: 6
#     Node 3, Type 0, BuildingBlock: PAMTOO_clean_sbu_0, # of connection points: 6
#     Node 4, Type 0, BuildingBlock: PAMTOO_clean_sbu_0, # of connection points: 6
#     Node 5, Type 0, BuildingBlock: PAMTOO_clean_sbu_0, # of connection points: 6
#     Node 6, Type 0, BuildingBlock: PAMTOO_clean_sbu_0, # of connection points: 6
#     Node 7, Type 0, BuildingBlock: PAMTOO_clean_sbu_0, # of connection points: 6
#     Node 8, Type 0, BuildingBlock: PAMTOO_clean_sbu_0, # of connection points: 6
#     Node 9, Type 0, BuildingBlock: PAMTOO_clean_sbu_0, # of connection points: 6
#     Node 10, Type 0, BuildingBlock: PAMTOO_clean_sbu_0, # of connection points: 6
#     Node 11, Type 0, BuildingBlock: PAMTOO_clean_sbu_0, # of connection points: 6
#     Edge 12, Type (0, 0), BuildingBlock: CIFDUS_clean_linker_0, # of connection points: 2
#     Edge 13, Type (0, 0), BuildingBlock: CIFDUS_clean_linker_0, # of connection points: 2
#     Edge 14, Type (0, 0), BuildingBlock: CIFDUS_clean_linker_0, # of connection points: 2
#     Edge 15, Type (0, 0), BuildingBlock: CIFDUS_clean_linker_0, # of connection points: 2
#     Edge 16, Type (0, 0), BuildingBlock: CIFDUS_clean_linker_0, # of connection points: 2
#     Edge 17, Type (0, 0), BuildingBlock: CIFDUS_clean_linker_0, # of connection points: 2
#     Edge 18, Type (0, 0), BuildingBlock: CIFDUS_clean_linker_0, # of connection points: 2
#     Edge 19, Type (0, 0), BuildingBlock: CIFDUS_clean_linker_0, # of connection points: 2
#     Edge 20, Type (0, 0), BuildingBlock: CIFDUS_clean_linker_0, # of connection points: 2
#     Edge 21, Type (0, 0), BuildingBlock: CIFDUS_clean_linker_0, # of connection points: 2
#     Edge 22, Type (0, 0), BuildingBlock: CIFDUS_clean_linker_0, # of connection points: 2
#     Edge 23, Type (0, 0), BuildingBlock: CIFDUS_clean_linker_0, # of connection points: 2
#     Edge 24, Type (0, 0), BuildingBlock: CIFDUS_clean_linker_0, # of connection points: 2
#     Edge 25, Type (0, 0), BuildingBlock: CIFDUS_clean_linker_0, # of connection points: 2
#     Edge 26, Type (0, 0), BuildingBlock: CIFDUS_clean_linker_0, # of connection points: 2
#     Edge 27, Type (0, 0), BuildingBlock: CIFDUS_clean_linker_0, # of connection points: 2
#     Edge 28, Type (0, 0), BuildingBlock: CIFDUS_clean_linker_0, # of connection points: 2
#     Edge 29, Type (0, 0), BuildingBlock: CIFDUS_clean_linker_0, # of connection points: 2
#     Edge 30, Type (0, 0), BuildingBlock: CIFDUS_clean_linker_0, # of connection points: 2
#     Edge 31, Type (0, 0), BuildingBlock: CIFDUS_clean_linker_0, # of connection points: 2
#     Edge 32, Type (0, 0), BuildingBlock: CIFDUS_clean_linker_0, # of connection points: 2
#     Edge 33, Type (0, 0), BuildingBlock: CIFDUS_clean_linker_0, # of connection points: 2
#     Edge 34, Type (0, 0), BuildingBlock: CIFDUS_clean_linker_0, # of connection points: 2
#     Edge 35, Type (0, 0), BuildingBlock: CIFDUS_clean_linker_0, # of connection points: 2
#     Edge 36, Type (0, 0), BuildingBlock: CIFDUS_clean_linker_0, # of connection points: 2
#     Edge 37, Type (0, 0), BuildingBlock: CIFDUS_clean_linker_0, # of connection points: 2
#     Edge 38, Type (0, 0), BuildingBlock: CIFDUS_clean_linker_0, # of connection points: 2
#     Edge 39, Type (0, 0), BuildingBlock: CIFDUS_clean_linker_0, # of connection points: 2
#     Edge 40, Type (0, 0), BuildingBlock: CIFDUS_clean_linker_0, # of connection points: 2
#     Edge 41, Type (0, 0), BuildingBlock: CIFDUS_clean_linker_0, # of connection points: 2
#     Edge 42, Type (0, 0), BuildingBlock: CIFDUS_clean_linker_0, # of connection points: 2
#     Edge 43, Type (0, 0), BuildingBlock: CIFDUS_clean_linker_0, # of connection points: 2
#     Edge 44, Type (0, 0), BuildingBlock: CIFDUS_clean_linker_0, # of connection points: 2
#     Edge 45, Type (0, 0), BuildingBlock: CIFDUS_clean_linker_0, # of connection points: 2
#     Edge 46, Type (0, 0), BuildingBlock: CIFDUS_clean_linker_0, # of connection points: 2
#     Edge 47, Type (0, 0), BuildingBlock: CIFDUS_clean_linker_0, # of connection points: 2
# Relax obj value: 0.954
# Max RMSD: 0.190
# Mean RMSD: 0.190
data_MOF--net-wkj--node1-PAMTOO_clean_sbu_0--edge1-CIFDUS_clean_linker_0
_symmetry_space_group_name_H-M    P1
_symmetry_Int_Tables_number       1
_symmetry_cell_setting            triclinic
loop_
_symmetry_equiv_pos_as_xyz
'x, y, z'
_cell_length_a     44.054339
_cell_length_b     43.587789
_cell_length_c     26.512506
_cell_angle_alpha  90.125758
_cell_angle_beta   90.760278
_cell_angle_gamma 119.97984
loop_
_atom_site_label
_atom_site_type_symbol
_atom_site_fract_x
_atom_site_fract_y
_atom_site_fract_z
_atom_type_partial_charge
Dy0 Dy 0.52033 0.10093 0.3624 0.0
Dy1 Dy 0.44141 0.06939 0.39608 0.0
C2 C 0.48508 0.15125 0.35321 0.0
O3 O 0.52827 0.1055 0.45105 0.0
O4 O 0.47155 0.08251 0.47623 0.0
O5 O 0.57511 0.12738 0.38515 0.0
O6 O 0.55997 0.1085 0.30873 0.0
O7 O 0.45535 0.03454 0.43717 0.0
O8 O 0.49259 0.04262 0.37532 0.0
O9 O 0.43587 0.04411 0.31482 0.0
O10 O 0.49233 0.06871 0.2881 0.0
O11 O 0.38742 0.02717 0.39137 0.0
O12 O 0.40094 0.07764 0.42645 0.0
C13 C 0.50574 0.0955 0.48913 0.0
O14 O 0.51262 0.14774 0.34544 0.0
O15 O 0.45653 0.12499 0.37239 0.0
C16 C 0.6086 0.16493 0.3195 0.0
C17 C 0.6312 0.22461 0.25791 0.0
C18 C 0.61535 0.223 0.30422 0.0
C19 C 0.6038 0.19318 0.33459 0.0
C20 C 0.62914 0.16901 0.27752 0.0
C21 C 0.64052 0.19871 0.24701 0.0
C22 C 0.58564 0.12917 0.33909 0.0
C23 C 0.47922 0.02884 0.41892 0.0
C24 C 0.45814 0.04688 0.27856 0.0
C25 C 0.34877 0.02689 0.4526 0.0
C26 C 0.29486 0.99168 0.52237 0.0
C27 C 0.32839 0.01831 0.53857 0.0
C28 C 0.35517 0.03571 0.50401 0.0
C29 C 0.31533 0.00049 0.43625 0.0
C30 C 0.28857 0.98284 0.47091 0.0
C31 C 0.37599 0.04558 0.41506 0.0
H32 H 0.6084 0.2428 0.31415 0.0
H33 H 0.58814 0.19079 0.36709 0.0
H34 H 0.63314 0.14757 0.26528 0.0
H35 H 0.65268 0.19891 0.2117 0.0
H36 H 0.33421 0.02506 0.57822 0.0
H37 H 0.38082 0.0559 0.51752 0.0
H38 H 0.30992 0.99351 0.39659 0.0
H39 H 0.26303 0.96232 0.45755 0.0
Dy40 Dy 0.40464 0.51647 0.70226 0.0
Dy41 Dy 0.33812 0.45011 0.72114 0.0
C42 C 0.33005 0.51142 0.67922 0.0
O43 O 0.40215 0.52584 0.78731 0.0
O44 O 0.35713 0.4716 0.8069 0.0
O45 O 0.44673 0.56514 0.73443 0.0
O46 O 0.44463 0.55513 0.65428 0.0
O47 O 0.36294 0.42741 0.76476 0.0
O48 O 0.41265 0.47202 0.73064 0.0
O49 O 0.36161 0.44505 0.63943 0.0
O50 O 0.41872 0.48741 0.64354 0.0
O51 O 0.3013 0.39924 0.68826 0.0
O52 O 0.2845 0.4219 0.74634 0.0
C53 C 0.38312 0.50372 0.82318 0.0
O54 O 0.3608 0.52086 0.65976 0.0
O55 O 0.32078 0.48984 0.71667 0.0
C56 C 0.45996 0.61261 0.67917 0.0
C57 C 0.4423 0.65991 0.63368 0.0
C58 C 0.42938 0.64603 0.68155 0.0
C59 C 0.43771 0.62208 0.7038 0.0
C60 C 0.47757 0.63116 0.63613 0.0
C61 C 0.46887 0.65468 0.61351 0.0
C62 C 0.45844 0.57878 0.69034 0.0
C63 C 0.39564 0.44164 0.75562 0.0
C64 C 0.3943 0.45943 0.6192 0.0
C65 C 0.2624 0.36067 0.7491 0.0
C66 C 0.24574 0.31116 0.82649 0.0
C67 C 0.27349 0.31874 0.79388 0.0
C68 C 0.28187 0.34344 0.75568 0.0
C69 C 0.23203 0.34979 0.77727 0.0
C70 C 0.22366 0.32508 0.81572 0.0
C71 C 0.2768 0.39359 0.72006 0.0
H72 H 0.40969 0.65035 0.69893 0.0
H73 H 0.42405 0.60851 0.73753 0.0
H74 H 0.49505 0.62448 0.61678 0.0
H75 H 0.47976 0.66493 0.57691 0.0
H76 H 0.2912 0.30874 0.80119 0.0
H77 H 0.30539 0.35116 0.73436 0.0
H78 H 0.21649 0.36256 0.77242 0.0
H79 H 0.20185 0.31935 0.8399 0.0
Dy80 Dy 0.86275 0.44312 1.02358 0.0
Dy81 Dy 0.90856 0.40964 1.05406 0.0
C82 C 0.83016 0.36007 1.00689 0.0
O83 O 0.85696 0.44226 1.11234 0.0
O84 O 0.8849 0.41145 1.13301 0.0
O85 O 0.81533 0.44554 1.02954 0.0
O86 O 0.85368 0.47756 0.97441 0.0
O87 O 0.93366 0.46029 1.09752 0.0
O88 O 0.90396 0.48794 1.06884 0.0
O89 O 0.93802 0.43727 0.98106 0.0
O90 O 0.89525 0.44645 0.94912 0.0
O91 O 0.95595 0.40718 1.0521 0.0
O92 O 0.90903 0.36371 1.08452 0.0
C93 C 0.86769 0.42804 0.1483 0.0
O94 O 0.82305 0.38478 1.01927 0.0
O95 O 0.8629 0.36736 1.00847 0.0
C96 C 0.79382 0.45184 0.9523 0.0
C97 C 0.73926 0.42338 0.87945 0.0
C98 C 0.75792 0.40586 0.89161 0.0
C99 C 0.78489 0.41996 0.92756 0.0
C100 C 0.77475 0.469 0.94181 0.0
C101 C 0.74769 0.45494 0.90542 0.0
C102 C 0.82193 0.46584 0.99061 0.0
C103 C 0.92618 0.48598 1.10002 0.0
C104 C 0.9255 0.44623 0.9416 0.0
C105 C 0.96414 0.37009 1.10881 0.0
C106 C 0.0101 0.35803 0.16888 0.0
C107 C 0.01373 0.39196 0.16682 0.0
C108 C 0.9908 0.3979 1.13713 0.0
C109 C 0.96045 0.33626 1.11076 0.0
C110 C 0.98314 0.33018 1.14081 0.0
C111 C 0.94193 0.37622 1.07346 0.0
H112 H 0.753 0.3821 0.87154 0.0
H113 H 0.79921 0.40624 0.93549 0.0
H114 H 0.78107 0.49343 0.96124 0.0
H115 H 0.73394 0.46912 0.89675 0.0
H116 H 0.03376 0.4137 0.18912 0.0
H117 H -0.00607 0.42412 1.13605 0.0
H118 H 0.9402 0.31458 1.08862 0.0
H119 H 0.97967 0.30378 1.14213 0.0
Dy120 Dy 0.48774 0.9136 0.37329 0.0
Dy121 Dy 0.54619 0.90437 0.38276 0.0
C122 C 0.48827 0.84653 0.32778 0.0
O123 O 0.47514 0.90909 0.45562 0.0
O124 O 0.51785 0.89538 0.46691 0.0
O125 O 0.4401 0.91329 0.39375 0.0
O126 O 0.45348 0.91487 0.31535 0.0
O127 O 0.57977 0.95643 0.41116 0.0
O128 O 0.52994 0.9593 0.42311 0.0
O129 O 0.5616 0.93673 0.30483 0.0
O130 O 0.5191 0.95116 0.30781 0.0
O131 O 0.59672 0.90786 0.38248 0.0
O132 O 0.55025 0.85827 0.40137 0.0
C133 C 0.49178 0.89987 0.48768 0.0
O134 O 0.47309 0.85421 0.36423 0.0
O135 O 0.51743 0.87347 0.31502 0.0
C136 C 0.3961 0.87398 0.33642 0.0
C137 C 0.36006 0.80626 0.29198 0.0
C138 C 0.37051 0.81018 0.34299 0.0
C139 C 0.38874 0.84392 0.36498 0.0
C140 C 0.3796 0.86928 0.28925 0.0
C141 C 0.36156 0.83557 0.26714 0.0
C142 C 0.42852 0.9077 0.34722 0.0
C143 C 0.56381 0.97037 0.43316 0.0
C144 C 0.54639 0.95378 0.28316 0.0
C145 C 0.60279 0.87527 0.44757 0.0
C146 C 0.64299 0.8921 0.53726 0.0
C147 C 0.60656 0.87834 0.53898 0.0
C148 C 0.58666 0.87017 0.49453 0.0
C149 C 0.63847 0.8857 0.4459 0.0
C150 C 0.65848 0.89411 0.49046 0.0
C151 C 0.58455 0.87626 0.40125 0.0
H152 H 0.36891 0.788 0.3636 0.0
H153 H 0.40082 0.84666 0.40182 0.0
H154 H 0.38474 0.89203 0.26667 0.0
H155 H 0.35354 0.8337 0.22794 0.0
H156 H 0.59387 0.8769 0.57433 0.0
H157 H 0.55922 0.86242 0.49696 0.0
H158 H 0.65139 0.88986 0.41001 0.0
H159 H 0.68646 0.90444 0.48809 0.0
Dy160 Dy 0.56207 0.47296 0.70737 0.0
Dy161 Dy 0.62038 0.54877 0.73057 0.0
C162 C 0.64356 0.49472 0.68951 0.0
O163 O 0.56706 0.46545 0.79295 0.0
O164 O 0.60317 0.5233 0.81464 0.0
O165 O 0.52746 0.42055 0.73554 0.0
O166 O 0.52296 0.43227 0.65795 0.0
O167 O 0.57707 0.55847 0.72095 0.0
O168 O 0.54666 0.50483 0.75586 0.0
O169 O 0.60072 0.55058 0.64514 0.0
O170 O 0.54745 0.5003 0.64333 0.0
O171 O 0.64196 0.59882 0.76946 0.0
O172 O 0.67303 0.59048 0.71414 0.0
C173 C 0.58213 0.48935 0.82984 0.0
O174 O 0.61061 0.47407 0.67538 0.0
O175 O 0.65149 0.52153 0.71955 0.0
C176 C 0.5196 0.37746 0.67481 0.0
C177 C 0.54646 0.33686 0.63182 0.0
C178 C 0.55246 0.34636 0.68319 0.0
C179 C 0.53932 0.36665 0.70445 0.0
C180 C 0.50942 0.36367 0.62585 0.0
C181 C 0.52272 0.34362 0.6045 0.0
C182 C 0.51504 0.40739 0.69103 0.0
C183 C 0.5504 0.53599 0.74556 0.0
C184 C 0.56917 0.53077 0.62121 0.0
C185 C 0.70112 0.62314 0.78846 0.0
C186 C 0.72974 0.63286 0.8863 0.0
C187 C 0.72398 0.65897 0.86407 0.0
C188 C 0.7098 0.65408 0.81548 0.0
C189 C 0.71217 0.60007 0.80691 0.0
C190 C 0.72704 0.60531 0.85527 0.0
C191 C 0.67297 0.61083 0.75033 0.0
H192 H 0.56988 0.3409 0.70571 0.0
H193 H 0.54706 0.37618 0.74285 0.0
H194 H 0.49385 0.37116 0.60245 0.0
H195 H 0.51729 0.33694 0.5648 0.0
H196 H 0.72586 0.68086 0.88591 0.0
H197 H 0.70162 0.67226 0.80166 0.0
H198 H 0.70604 0.5761 0.78633 0.0
H199 H 0.7326 0.5855 0.87024 0.0
Dy200 Dy 0.11008 0.55952 1.01878 0.0
Dy201 Dy 0.08555 0.6145 1.04841 0.0
C202 C 0.1606 0.64384 1.0047 0.0
O203 O 0.11612 0.56344 1.10806 0.0
O204 O 0.09937 0.60348 1.13097 0.0
O205 O 0.15245 0.55053 1.03631 0.0
O206 O 0.11515 0.51915 0.97729 0.0
O207 O 0.04226 0.55872 1.04979 0.0
O208 O 0.06684 0.52623 1.06988 0.0
O209 O 0.06468 0.59849 0.96399 0.0
O210 O 0.07043 0.54962 0.95132 0.0
O211 O 0.0485 0.62884 1.07663 0.0
O212 O 0.09338 0.6669 1.03493 0.0
C213 C 0.10972 0.58046 0.14524 0.0
O214 O 0.14679 0.6126 0.9828 0.0
O215 O 0.1442 0.64766 1.04263 0.0
C216 C 0.17635 0.53941 0.96596 0.0
C217 C 0.23544 0.58277 0.90832 0.0
C218 C 0.20256 0.56137 0.88468 0.0
C219 C 0.17312 0.54007 0.91334 0.0
C220 C 0.21016 0.55642 0.98831 0.0
C221 C 0.23944 0.57857 0.95985 0.0
C222 C 0.14574 0.52878 0.99853 0.0
C223 C 0.04374 0.53554 1.07942 0.0
C224 C 0.05762 0.57022 0.93505 0.0
C225 C 0.07229 0.68824 1.10029 0.0
C226 C 0.07844 0.72866 0.18679 0.0
C227 C 0.04598 0.70893 0.16118 0.0
C228 C 0.04305 0.68909 1.11831 0.0
C229 C 0.10531 0.71007 1.12289 0.0
C230 C 0.10842 0.73046 0.16553 0.0
C231 C 0.06667 0.66147 1.06201 0.0
H232 H 0.19874 0.5643 0.84489 0.0
H233 H 0.14759 0.52697 0.89485 0.0
H234 H 0.21348 0.55582 1.0288 0.0
H235 H 0.26447 0.5948 0.97881 0.0
H236 H 0.02207 0.70618 0.17637 0.0
H237 H 0.01737 0.67245 1.10125 0.0
H238 H 0.12836 0.70997 1.10933 0.0
H239 H 0.13391 0.74584 0.18359 0.0
Dy240 Dy 0.86902 0.46601 0.5758 0.0
Dy241 Dy 0.90341 0.5475 0.55941 0.0
C242 C 0.82551 0.50428 0.60303 0.0
O243 O 0.86078 0.46346 0.48878 0.0
O244 O 0.88155 0.52266 0.47662 0.0
O245 O 0.84556 0.41141 0.55071 0.0
O246 O 0.85006 0.42366 0.63008 0.0
O247 O 0.93309 0.53528 0.50569 0.0
O248 O 0.9192 0.48092 0.53703 0.0
O249 O 0.93735 0.54801 0.62909 0.0
O250 O 0.90378 0.49017 0.65048 0.0
O251 O 0.94421 0.60136 0.57143 0.0
O252 O 0.89547 0.5903 0.53445 0.0
C253 C 0.86821 0.48959 0.45665 0.0
O254 O 0.82324 0.47616 0.58131 0.0
O255 O 0.85651 0.53256 0.60802 0.0
C256 C 0.79722 0.3757 0.60163 0.0
C257 C 0.7292 0.34902 0.63893 0.0
C258 C 0.73954 0.37012 0.5955 0.0
C259 C 0.77349 0.38372 0.57735 0.0
C260 C 0.78523 0.35039 0.63973 0.0
C261 C 0.75139 0.33694 0.65808 0.0
C262 C 0.83517 0.39903 0.5956 0.0
C263 C 0.93384 0.50588 0.50286 0.0
C264 C 0.93068 0.52252 0.66229 0.0
C265 C 0.94775 0.64033 0.50864 0.0
C266 C 0.99053 0.69115 0.43823 0.0
C267 C 0.98755 0.65748 0.4388 0.0
C268 C 0.96628 0.63228 0.47355 0.0
C269 C 0.95018 0.67367 0.50801 0.0
C270 C 0.9713 0.69894 0.47264 0.0
C271 C 0.92738 0.6145 0.54725 0.0
H272 H 0.72291 0.37937 0.57919 0.0
H273 H 0.78213 0.4031 0.54751 0.0
H274 H 0.8031 0.3438 0.65882 0.0
H275 H 0.7446 0.32069 0.69146 0.0
H276 H 0.00131 0.65041 0.41175 0.0
H277 H 0.96453 0.60659 0.47334 0.0
H278 H 0.93598 0.6802 0.53501 0.0
H279 H 0.97291 0.72456 0.47246 0.0
Dy280 Dy 0.41678 0.88416 0.90804 0.0
Dy281 Dy 0.35846 0.89874 0.88202 0.0
C282 C 0.33655 0.82466 0.92192 0.0
O283 O 0.42269 0.88261 0.82118 0.0
O284 O 0.38213 0.89838 0.79991 0.0
O285 O 0.43426 0.84725 0.89145 0.0
O286 O 0.46142 0.88774 0.94902 0.0
O287 O 0.3983 0.95325 0.89285 0.0
O288 O 0.43728 0.93633 0.86948 0.0
O289 O 0.37572 0.92035 0.96845 0.0
O290 O 0.4282 0.92214 0.97499 0.0
O291 O 0.33239 0.92252 0.8434 0.0
O292 O 0.30473 0.8825 0.90008 0.0
C293 C 0.40724 0.891 0.78478 0.0
O294 O 0.36671 0.84271 0.94572 0.0
O295 O 0.33222 0.83937 0.88205 0.0
C296 C 0.44761 0.8288 0.96782 0.0
C297 C 0.41538 0.77994 1.04609 0.0
C298 C 0.40519 0.76949 0.99579 0.0
C299 C 0.42136 0.79359 0.95692 0.0
C300 C 0.46096 0.8376 1.01736 0.0
C301 C 0.44502 0.81332 1.05619 0.0
C302 C 0.45535 0.85716 0.93076 0.0
C303 C 0.42839 0.96094 0.876 0.0
C304 C 0.40605 0.93088 0.995 0.0
C305 C 0.27235 0.88507 0.8302 0.0
C306 C 0.22769 0.87297 0.74703 0.0
C307 C 0.25163 0.86041 0.7467 0.0
C308 C 0.27385 0.86649 0.78806 0.0
C309 C 0.24506 0.89257 0.83393 0.0
C310 C 0.22239 0.88598 0.79278 0.0
C311 C 0.30244 0.90225 0.865 0.0
H312 H 0.38268 0.74382 0.98693 0.0
H313 H 0.41091 0.78549 0.91896 0.0
H314 H 0.48146 0.86426 1.02688 0.0
H315 H 0.45349 0.82222 1.09466 0.0
H316 H 0.25652 0.85003 0.71254 0.0
H317 H 0.29456 0.86005 0.78502 0.0
H318 H 0.24322 0.90638 0.86675 0.0
H319 H 0.20346 0.89488 0.79485 0.0
Dy320 Dy 0.54937 0.43174 0.27043 0.0
Dy321 Dy 0.46993 0.38484 0.2352 0.0
C322 C 0.50986 0.34507 0.27834 0.0
O323 O 0.55593 0.43815 0.18224 0.0
O324 O 0.49957 0.40047 0.15534 0.0
O325 O 0.60392 0.44825 0.26075 0.0
O326 O 0.58776 0.4625 0.32902 0.0
O327 O 0.48853 0.44208 0.2447 0.0
O328 O 0.54443 0.4714 0.22427 0.0
O329 O 0.45956 0.39604 0.31805 0.0
O330 O 0.51653 0.43566 0.33961 0.0
O331 O 0.41755 0.37737 0.23099 0.0
O332 O 0.42861 0.33851 0.19787 0.0
C333 C 0.53317 0.42367 0.14331 0.0
O334 O 0.53914 0.37513 0.27158 0.0
O335 O 0.47975 0.34415 0.27338 0.0
C336 C 0.62691 0.4403 0.33712 0.0
C337 C 0.63397 0.39255 0.401 0.0
C338 C 0.63032 0.38663 0.3487 0.0
C339 C 0.62684 0.41027 0.317 0.0
C340 C 0.63511 0.44852 0.38841 0.0
C341 C 0.63871 0.42491 0.4201 0.0
C342 C 0.61218 0.45871 0.30739 0.0
C343 C 0.51283 0.46543 0.21612 0.0
C344 C 0.48217 0.41931 0.35185 0.0
C345 C 0.37975 0.34153 0.16509 0.0
C346 C 0.32808 0.32552 1.09031 0.0
C347 C 0.36054 0.32894 1.07766 0.0
C348 C 0.38627 0.33698 1.11478 0.0
C349 C 0.34749 0.33831 0.17771 0.0
C350 C 0.32187 0.33052 1.14059 0.0
C351 C 0.40511 0.34777 0.20573 0.0
H352 H 0.62693 0.36214 0.33287 0.0
H353 H 0.62111 0.40328 0.27742 0.0
H354 H 0.63561 0.47157 0.40481 0.0
H355 H 0.64135 0.4303 0.46031 0.0
H356 H 0.36623 0.32596 1.03892 0.0
H357 H 0.41109 0.33953 1.10419 0.0
H358 H 0.34199 0.34157 0.21646 0.0
H359 H 0.29711 0.32808 0.15123 0.0
Dy360 Dy 0.10462 0.55709 0.588 0.0
Dy361 Dy 0.08022 0.47566 0.56461 0.0
C362 C 0.16009 0.52716 0.59888 0.0
O363 O 0.11052 0.55834 0.50031 0.0
O364 O 0.09213 0.50024 0.48088 0.0
O365 O 0.13901 0.61147 0.56824 0.0
O366 O 0.10501 0.59961 0.63171 0.0
O367 O 0.0361 0.48444 0.57062 0.0
O368 O 0.05852 0.53706 0.53529 0.0
O369 O 0.05966 0.47409 0.64829 0.0
O370 O 0.06603 0.52943 0.65546 0.0
O371 O 0.04596 0.42619 0.52728 0.0
O372 O 0.08326 0.42899 0.58385 0.0
C373 C 0.10367 0.53372 0.46474 0.0
O374 O 0.1508 0.55025 0.61368 0.0
O375 O 0.138 0.4989 0.57336 0.0
C376 C 0.16395 0.64782 0.63975 0.0
C377 C 0.22573 0.67496 0.69924 0.0
C378 C 0.22773 0.67883 0.64667 0.0
C379 C 0.19712 0.66569 0.61721 0.0
C380 C 0.16222 0.64824 0.69257 0.0
C381 C 0.19287 0.66186 0.72205 0.0
C382 C 0.13249 0.62405 0.60859 0.0
C383 C 0.03442 0.50366 0.53513 0.0
C384 C 0.05285 0.49672 0.67416 0.0
C385 C 0.07191 0.39188 0.51314 0.0
C386 C 0.07691 0.35552 0.42892 0.0
C387 C 0.09527 0.39293 0.43087 0.0
C388 C 0.09289 0.41086 0.47271 0.0
C389 C 0.05762 0.35514 0.5148 0.0
C390 C 0.06072 0.33707 0.47329 0.0
C391 C 0.06066 0.40982 0.54861 0.0
H392 H 0.25266 0.68897 0.62812 0.0
H393 H 0.19941 0.66663 0.57653 0.0
H394 H 0.13718 0.63532 0.71122 0.0
H395 H 0.19034 0.65835 0.76253 0.0
H396 H 0.10832 0.40875 0.39836 0.0
H397 H 0.10462 0.43942 0.47133 0.0
H398 H 0.04197 0.34019 0.54648 0.0
H399 H 0.0477 0.30846 0.47445 0.0
Dy400 Dy 0.58324 0.10053 0.90824 0.0
Dy401 Dy 0.64846 0.09566 0.88096 0.0
C402 C 0.66158 0.16911 0.92794 0.0
O403 O 0.57188 0.09282 0.82219 0.0
O404 O 0.62638 0.10441 0.80102 0.0
O405 O 0.54441 0.11417 0.88427 0.0
O406 O 0.54078 0.09129 0.95755 0.0
O407 O 0.61298 0.04772 0.84166 0.0
O408 O 0.57216 0.04462 0.89598 0.0
O409 O 0.62954 0.06527 0.9608 0.0
O410 O 0.58804 0.07854 0.98577 0.0
O411 O 0.68119 0.07219 0.89003 0.0
O412 O 0.69938 0.12023 0.84664 0.0
C413 C 0.59437 0.09882 0.78575 0.0
O414 O 0.62794 0.15771 0.92026 0.0
O415 O 0.67359 0.14756 0.921 0.0
C416 C 0.52891 0.13799 0.95278 0.0
C417 C 0.5411 0.19466 1.01713 0.0
C418 C 0.55821 0.20126 0.9707 0.0
C419 C 0.55242 0.17314 0.939 0.0
C420 C 0.50858 0.13173 0.99576 0.0
C421 C 0.51458 0.15979 1.0277 0.0
C422 C 0.5301 0.10818 0.92847 0.0
C423 C 0.58451 0.02934 0.86552 0.0
C424 C 0.60661 0.06291 0.99649 0.0
C425 C 0.71492 0.07802 0.81903 0.0
C426 C 0.72498 0.03893 0.74293 0.0
C427 C 0.72972 0.03345 0.79392 0.0
C428 C 0.72492 0.053 0.83165 0.0
C429 C 0.71185 0.08471 0.76797 0.0
C430 C 0.71698 0.06544 0.73031 0.0
C431 C 0.70483 0.09437 0.85932 0.0
H432 H 0.57831 0.22781 0.96098 0.0
H433 H 0.56838 0.17885 0.90581 0.0
H434 H 0.49026 0.10486 1.00701 0.0
H435 H 0.50095 0.15346 1.06318 0.0
H436 H 0.73597 0.01324 0.80463 0.0
H437 H 0.72756 0.04751 0.87081 0.0
H438 H 0.70404 0.10372 0.75701 0.0
H439 H 0.71261 0.06988 0.69136 0.0
Dy440 Dy 0.41783 0.56243 0.26465 0.0
Dy441 Dy 0.49534 0.60439 0.23013 0.0
C442 C 0.46019 0.64843 0.27537 0.0
O443 O 0.4118 0.56277 0.17499 0.0
O444 O 0.46856 0.58957 0.1487 0.0
O445 O 0.36756 0.55832 0.25304 0.0
O446 O 0.374 0.52699 0.31094 0.0
O447 O 0.47543 0.55048 0.19718 0.0
O448 O 0.41798 0.51902 0.22215 0.0
O449 O 0.50298 0.58929 0.3133 0.0
O450 O 0.4463 0.55276 0.33461 0.0
O451 O 0.54756 0.61412 0.24472 0.0
O452 O 0.53904 0.64629 0.19044 0.0
C453 C 0.43425 0.57231 1.13625 0.0
O454 O 0.43592 0.61804 0.29297 0.0
O455 O 0.48363 0.6489 0.24482 0.0
C456 C 0.3403 0.55406 0.33052 0.0
C457 C 0.33 0.59013 0.41085 0.0
C458 C 0.33803 0.60525 0.36275 0.0
C459 C 0.34317 0.58742 0.32295 0.0
C460 C 0.3283 0.53728 0.37691 0.0
C461 C 0.3232 0.55513 0.41676 0.0
C462 C 0.35433 0.53927 0.29319 0.0
C463 C 0.44366 0.52259 0.19416 0.0
C464 C 0.48048 0.56733 0.3472 0.0
C465 C 0.58997 0.64124 0.18273 0.0
C466 C 0.6457 0.64405 1.12854 0.0
C467 C 0.61067 0.61899 1.11563 0.0
C468 C 0.58297 0.61751 1.1427 0.0
C469 C 0.62469 0.66578 0.19627 0.0
C470 C 0.65236 0.6672 0.16946 0.0
C471 C 0.56189 0.64001 0.21287 0.0
H472 H 0.34301 0.63195 0.35687 0.0
H473 H 0.3518 0.601 0.28734 0.0
H474 H 0.32548 0.51146 0.38358 0.0
H475 H 0.3172 0.54268 0.45339 0.0
H476 H 0.60458 0.60115 1.08377 0.0
H477 H 0.55621 0.59812 1.13227 0.0
H478 H 0.63041 0.6839 0.22771 0.0
H479 H 0.67896 0.6865 0.18063 0.0
H480 H 0.54021 0.21719 0.32208 0.0
H481 H 0.42975 0.16326 0.35438 0.0
H482 H 0.42743 0.2165 0.33444 0.0
H483 H 0.45602 0.27917 0.30781 0.0
H484 H 0.56654 0.33435 0.27691 0.0
H485 H 0.56927 0.28087 0.29601 0.0
C486 C 0.51558 0.21696 0.32473 0.0
C487 C 0.48517 0.1854 0.33999 0.0
C488 C 0.51428 0.24841 0.31333 0.0
C489 C 0.45374 0.18649 0.34306 0.0
C490 C 0.4523 0.21724 0.33153 0.0
C491 C 0.4808 0.27968 0.30516 0.0
C492 C 0.51104 0.31149 0.29073 0.0
C493 C 0.48231 0.24848 0.31664 0.0
C494 C 0.54272 0.31084 0.28793 0.0
C495 C 0.54431 0.27995 0.29881 0.0
H496 H 0.31558 0.56713 0.67231 0.0
H497 H 0.27668 0.45852 0.62767 0.0
H498 H 0.22159 0.45363 0.59866 0.0
H499 H 0.18215 0.47832 0.59127 0.0
H500 H 0.21988 0.58704 0.63369 0.0
H501 H 0.27777 0.59419 0.65403 0.0
C502 C 0.29545 0.54273 0.65491 0.0
C503 C 0.3009 0.51335 0.65151 0.0
C504 C 0.26304 0.53985 0.63842 0.0
C505 C 0.27379 0.48176 0.62998 0.0
C506 C 0.24194 0.4788 0.61381 0.0
C507 C 0.2028 0.50365 0.60558 0.0
C508 C 0.19591 0.53194 0.61181 0.0
C509 C 0.23585 0.50735 0.61888 0.0
C510 C 0.22368 0.56449 0.62972 0.0
C511 C 0.25679 0.56848 0.64207 0.0
H512 H 0.75736 0.3321 0.99868 0.0
H513 H 0.83784 0.30441 0.97766 0.0
H514 H 0.79369 0.24479 0.9522 0.0
H515 H 0.73275 0.19969 0.93602 0.0
H516 H 0.65036 0.22454 0.95585 0.0
H517 H 0.69436 0.28534 0.98149 0.0
C518 C 0.76528 0.31306 0.98849 0.0
C519 C 0.80149 0.32344 0.99042 0.0
C520 C 0.73924 0.27795 0.97362 0.0
C521 C 0.81067 0.29789 0.97685 0.0
C522 C 0.78525 0.26346 0.96218 0.0
C523 C 0.72404 0.21817 0.94593 0.0
C524 C 0.68776 0.20689 0.9438 0.0
C525 C 0.74951 0.2531 0.9605 0.0
C526 C 0.67778 0.23195 0.95683 0.0
C527 C 0.70312 0.26691 0.97159 0.0
H528 H 0.49346 0.71471 0.23061 0.0
H529 H 0.42764 0.65943 0.35591 0.0
H530 H 0.42847 0.71364 0.38291 0.0
H531 H 0.44964 0.77875 0.37292 0.0
H532 H 0.51236 0.83163 0.24366 0.0
H533 H 0.51076 0.77747 0.21721 0.0
C534 C 0.47931 0.71437 0.26393 0.0
C535 C 0.46087 0.68247 0.29119 0.0
C536 C 0.47925 0.74581 0.279 0.0
C537 C 0.44232 0.68316 0.3339 0.0
C538 C 0.44275 0.71441 0.34955 0.0
C539 C 0.46248 0.77833 0.33856 0.0
C540 C 0.48114 0.81006 0.31062 0.0
C541 C 0.46125 0.7462 0.32262 0.0
C542 C 0.49778 0.80825 0.26641 0.0
C543 C 0.49703 0.77702 0.25107 0.0
H544 H 0.71404 0.53391 0.71198 0.0
H545 H 0.64049 0.4445 0.62136 0.0
H546 H 0.68921 0.43949 0.58629 0.0
H547 H 0.75352 0.45976 0.58211 0.0
H548 H 0.82561 0.55041 0.67232 0.0
H549 H 0.77697 0.55456 0.7071 0.0
C550 C 0.70831 0.51295 0.68491 0.0
C551 C 0.67303 0.48956 0.6699 0.0
C552 C 0.73653 0.51004 0.66484 0.0
C553 C 0.66694 0.46287 0.63432 0.0
C554 C 0.69495 0.45987 0.6142 0.0
C555 C 0.75863 0.48042 0.60938 0.0
C556 C 0.79385 0.50478 0.62418 0.0
C557 C 0.73002 0.48323 0.62916 0.0
C558 C 0.79931 0.53129 0.65965 0.0
C559 C 0.77129 0.53375 0.6798 0.0
H560 H 0.27712 0.77071 0.87422 0.0
H561 H 0.32663 0.8047 1.02084 0.0
H562 H 0.27654 0.75405 1.05939 0.0
H563 H 0.21888 0.69858 1.05245 0.0
H564 H 0.17187 0.66146 0.90526 0.0
H565 H 0.2199 0.71418 0.86683 0.0
C566 C 0.27717 0.76694 0.91462 0.0
C567 C 0.3062 0.79186 0.94427 0.0
C568 C 0.24847 0.73678 0.93684 0.0
C569 C 0.3053 0.78609 0.99662 0.0
C570 C 0.27653 0.75695 1.01891 0.0
C571 C 0.21928 0.7019 1.01191 0.0
C572 C 0.1915 0.67573 0.98196 0.0
C573 C 0.24805 0.73185 0.98955 0.0
C574 C 0.19278 0.68076 0.92941 0.0
C575 C 0.2203 0.71115 0.90735 0.0
H576 H 0.61012 0.23912 1.03808 0.0
H577 H 0.50693 0.20884 1.09202 0.0
H578 H 0.53109 0.22873 0.17692 0.0
H579 H 0.57638 0.2345 0.23639 0.0
H580 H 0.67831 0.25998 0.18265 0.0
H581 H 0.66008 0.26376 1.09665 0.0
C582 C 0.59301 0.23845 1.06762 0.0
C583 C 0.55645 0.22093 1.05921 0.0
C584 C 0.60684 0.24842 1.11667 0.0
C585 C 0.53498 0.22097 1.09798 0.0
C586 C 0.54878 0.23221 0.14661 0.0
C587 C 0.59537 0.24276 0.2065 0.0
C588 C 0.62813 0.24521 0.2155 0.0
C589 C 0.58404 0.24293 0.15693 0.0
C590 C 0.65249 0.25667 0.17631 0.0
C591 C 0.64194 0.25851 1.12705 0.0
H592 H 0.38427 0.65663 0.42692 0.0
H593 H 0.29192 0.57411 0.49774 0.0
H594 H 0.31719 0.59888 0.58047 0.0
H595 H 0.3714 0.63009 0.62899 0.0
H596 H 0.46554 0.70981 0.55808 0.0
H597 H 0.43291 0.70086 0.47916 0.0
C598 C 0.3688 0.64501 0.46024 0.0
C599 C 0.33686 0.61273 0.45632 0.0
C600 C 0.38411 0.65839 0.50778 0.0
C601 C 0.31706 0.59833 0.4999 0.0
C602 C 0.33154 0.61239 0.54727 0.0
C603 C 0.38469 0.64697 0.59729 0.0
C604 C 0.42141 0.66918 0.59869 0.0
C605 C 0.36617 0.64043 0.5515 0.0
C606 C 0.43759 0.69136 0.55735 0.0
C607 C 0.41896 0.68606 0.51205 0.0
H608 H 0.69132 0.35578 0.85017 0.0
H609 H 0.73532 0.46477 0.80541 0.0
H610 H 0.7207 0.44632 0.71808 0.0
H611 H 0.7174 0.40357 0.65633 0.0
H612 H 0.68182 0.2958 0.70033 0.0
H613 H 0.66985 0.30897 0.78483 0.0
C614 C 0.69649 0.37534 0.82133 0.0
C615 C 0.716 0.41165 0.83395 0.0
C616 C 0.69026 0.36476 0.77046 0.0
C617 C 0.72108 0.43667 0.79683 0.0
C618 C 0.71303 0.42614 0.74644 0.0
C619 C 0.70531 0.38231 0.68334 0.0
C620 C 0.70281 0.34936 0.67315 0.0
C621 C 0.70093 0.39078 0.73269 0.0
C622 C 0.68563 0.32191 0.70809 0.0
C623 C 0.67915 0.32957 0.75667 0.0
H624 H 0.42965 0.76223 1.13866 0.0
H625 H 0.34567 0.75681 1.04665 0.0
H626 H 0.31268 0.75245 1.12195 0.0
H627 H 0.31761 0.77047 0.21071 0.0
H628 H 0.40283 0.77814 0.30198 0.0
H629 H 0.42381 0.75914 0.23101 0.0
C630 C 0.40344 0.7585 1.13508 0.0
C631 C 0.39073 0.76127 1.08745 0.0
C632 C 0.38492 0.75706 0.17852 0.0
C633 C 0.35637 0.75546 1.08302 0.0
C634 C 0.33756 0.75334 1.12606 0.0
C635 C 0.33992 0.76654 0.21561 0.0
C636 C 0.35971 0.77766 0.26075 0.0
C637 C 0.353 0.75725 0.17382 0.0
C638 C 0.3876 0.77086 0.26728 0.0
C639 C 0.40009 0.76052 0.22636 0.0
H640 H 0.66456 0.39141 0.49101 0.0
H641 H 0.57811 0.32599 0.39036 0.0
H642 H 0.54437 0.29006 0.46042 0.0
H643 H 0.53253 0.29298 0.54989 0.0
H644 H 0.61711 0.36407 0.64954 0.0
H645 H 0.65858 0.37845 0.58219 0.0
C646 C 0.639 0.36824 0.48422 0.0
C647 C 0.62326 0.36245 0.43604 0.0
C648 C 0.61885 0.34872 0.52525 0.0
C649 C 0.59066 0.33163 0.42725 0.0
C650 C 0.57102 0.3112 0.46759 0.0
C651 C 0.56022 0.3109 0.55723 0.0
C652 C 0.5711 0.32936 0.60354 0.0
C653 C 0.58361 0.32192 0.51699 0.0
C654 C 0.60736 0.35046 0.61368 0.0
C655 C 0.63125 0.35951 0.57469 0.0
H656 H 0.26712 0.58784 0.81895 0.0
H657 H 0.25994 0.6507 0.9387 0.0
H658 H 0.27083 0.69751 0.87912 0.0
H659 H 0.25384 0.70471 0.7919 0.0
H660 H 0.26164 0.6421 0.67224 0.0
H661 H 0.27876 0.61142 0.7334 0.0
C662 C 0.26968 0.61259 0.83234 0.0
C663 C 0.26102 0.61518 0.88223 0.0
C664 C 0.27359 0.63847 0.79761 0.0
C665 C 0.2655 0.64766 0.89989 0.0
C666 C 0.27068 0.67407 0.86568 0.0
C667 C 0.26115 0.68573 0.77878 0.0
C668 C 0.25424 0.67395 0.72829 0.0
C669 C 0.27042 0.66761 0.81393 0.0
C670 C 0.26521 0.65049 0.71134 0.0
C671 C 0.27469 0.63264 0.74609 0.0
H672 H 0.36911 0.94418 1.07975 0.0
H673 H 0.47328 0.97333 1.03243 0.0
H674 H 0.49784 0.01005 1.10759 0.0
H675 H 0.49225 0.03571 0.19166 0.0
H676 H 0.38878 0.00436 0.24297 0.0
H677 H 0.36358 0.96891 0.16588 0.0
C678 C 0.39729 0.95846 1.0851 0.0
C679 C 0.41845 0.95462 1.04642 0.0
C680 C 0.41236 0.98014 1.1317 0.0
C681 C 0.45502 0.97431 1.05837 0.0
C682 C 0.46963 0.99592 1.10281 0.0
C683 C 0.46414 0.02118 0.1867 0.0
C684 C 0.44343 0.02425 0.22649 0.0
C685 C 0.44897 -0.00066 1.14059 0.0
C686 C 0.40672 0.00404 0.21574 0.0
C687 C 0.39184 0.98314 0.17039 0.0
H688 H 0.41332 0.40678 0.38861 0.0
H689 H 0.52012 0.45098 0.44138 0.0
H690 H 0.50366 0.46363 0.5233 0.0
H691 H 0.45925 0.46477 0.58417 0.0
H692 H 0.3532 0.42378 0.53142 0.0
H693 H 0.3687 0.40828 0.45012 0.0
C694 C 0.43352 0.41939 0.4175 0.0
C695 C 0.46906 0.42735 0.40509 0.0
C696 C 0.42371 0.42803 0.4668 0.0
C697 C 0.49305 0.44397 0.44618 0.0
C698 C 0.48338 0.45156 0.49443 0.0
C699 C 0.43926 0.45307 0.55499 0.0
C700 C 0.40436 0.44675 0.56717 0.0
C701 C 0.44887 0.44427 0.50589 0.0
C702 C 0.37997 0.42976 0.52661 0.0
C703 C 0.38918 0.42084 0.47865 0.0
H704 H 0.97916 0.47085 0.7018 0.0
H705 H 0.07836 0.49898 0.77243 0.0
H706 H 0.05079 0.48668 0.85542 0.0
H707 H -0.00206 0.46845 0.9128 0.0
H708 H 0.89904 0.44197 0.84254 0.0
H709 H 0.92598 0.45163 0.75931 0.0
C710 C -0.00479 0.47419 0.73492 0.0
C711 C 0.03231 0.48635 0.7274 0.0
C712 C 0.97851 0.46684 0.78503 0.0
C713 C 0.05059 0.48992 0.7737 0.0
C714 C 0.03438 0.48273 0.82249 0.0
C715 C 0.98175 0.46476 0.87972 0.0
C716 C 0.94504 0.45422 0.88755 0.0
C717 C -0.00175 0.47135 0.82957 0.0
C718 C 0.92659 0.45007 0.84121 0.0
C719 C 0.94242 0.45564 0.79222 0.0
H720 H 0.58891 0.95744 0.19246 0.0
H721 H 0.53199 0.0058 0.25204 0.0
H722 H 0.54556 0.04216 0.17683 0.0
H723 H 0.56936 0.05973 1.0886 0.0
H724 H 0.62769 0.01377 1.02725 0.0
H725 H 0.61653 0.9782 1.1039 0.0
C726 C 0.57908 0.97573 0.18978 0.0
C727 C 0.55861 0.97722 0.23185 0.0
C728 C 0.58637 0.99731 0.1433 0.0
C729 C 0.5472 0.00219 0.2233 0.0
C730 C 0.55475 0.0234 0.17883 0.0
C731 C 0.5801 0.04221 1.09121 0.0
C732 C 0.60002 0.04098 1.04861 0.0
C733 C 0.57372 0.02115 1.13754 0.0
C734 C 0.61266 0.01693 1.0567 0.0
C735 C 0.60601 0.99593 1.10178 0.0
H736 H 0.50242 0.52112 0.58065 0.0
H737 H 0.60986 0.56771 0.53664 0.0
H738 H 0.59445 0.58244 0.45425 0.0
H739 H 0.54977 0.5821 0.38922 0.0
H740 H 0.44185 0.53347 0.43346 0.0
H741 H 0.45787 0.52072 0.51621 0.0
C742 C 0.52272 0.53373 0.55309 0.0
C743 C 0.55802 0.54181 0.56812 0.0
C744 C 0.51324 0.54235 0.50329 0.0
C745 C 0.58275 0.5602 0.5296 0.0
C746 C 0.57362 0.56873 0.48098 0.0
C747 C 0.52921 0.56843 0.41633 0.0
C748 C 0.49348 0.55922 0.40112 0.0
C749 C 0.53882 0.55994 0.46631 0.0
C750 C 0.46911 0.54144 0.44028 0.0
C751 C 0.47851 0.53377 0.48908 0.0
H752 H 0.98442 0.54598 0.90378 0.0
H753 H 0.08461 0.57847 0.83778 0.0
H754 H 0.058 0.5699 0.75323 0.0
H755 H 0.00508 0.55155 0.69315 0.0
H756 H 0.904 0.51379 0.7595 0.0
H757 H 0.93136 0.52625 0.84386 0.0
C758 C 0.00096 0.55149 0.87132 0.0
C759 C 0.03797 0.56352 0.88059 0.0
C760 C 0.98467 0.54545 0.82036 0.0
C761 C 0.05686 0.56949 0.8351 0.0
C762 C 0.04123 0.56452 0.78541 0.0
C763 C 0.98853 0.54587 0.72564 0.0
C764 C 0.951 0.53107 0.7165 0.0
C765 C 0.00493 0.55223 0.77662 0.0
C766 C 0.93208 0.52461 0.76206 0.0
C767 C 0.94817 0.53203 0.81164 0.0
H768 H 0.54866 0.06473 0.41957 0.0
H769 H 0.46031 0.98802 0.50378 0.0
H770 H 0.49969 0.97594 0.55547 0.0
H771 H 0.54815 0.96574 0.53422 0.0
H772 H 0.62665 0.0346 0.43296 0.0
H773 H 0.60773 0.07797 0.44095 0.0
C774 C 0.53811 0.04681 0.45103 0.0
C775 C 0.50184 0.02524 0.45587 0.0
C776 C 0.56076 0.04138 0.48102 0.0
C777 C 0.48828 0.0029 0.49752 0.0
C778 C 0.51081 0.99688 0.52791 0.0
C779 C 0.5619 0.9914 0.51627 0.0
C780 C 0.5829 0.99515 0.47493 0.0
C781 C 0.54605 0.01218 0.51432 0.0
C782 C 0.60623 0.02963 0.45948 0.0
C783 C 0.59487 0.05413 0.46332 0.0
H784 H 0.43009 0.44663 0.84793 0.0
H785 H 0.4148 0.39532 0.70691 0.0
H786 H 0.46714 0.44667 0.67232 0.0
H787 H 0.49932 0.51328 0.67697 0.0
H788 H 0.52668 0.56282 0.82265 0.0
H789 H 0.47868 0.50892 0.86074 0.0
C790 C 0.43934 0.44677 0.81018 0.0
C791 C 0.41547 0.42469 0.77305 0.0
C792 C 0.46808 0.47769 0.79207 0.0
C793 C 0.43055 0.41802 0.73114 0.0
C794 C 0.45985 0.44736 0.71098 0.0
C795 C 0.49498 0.51191 0.71729 0.0
C796 C 0.51937 0.53882 0.74875 0.0
C797 C 0.47548 0.47893 0.73966 0.0
C798 C 0.51028 0.53999 0.79898 0.0
C799 C 0.48478 0.50883 0.8213 0.0
H800 H 0.9353 0.46549 0.19285 0.0
H801 H 0.9366 0.55386 1.12002 0.0
H802 H 0.99043 0.59355 0.16585 0.0
H803 H 0.03632 0.58399 1.13204 0.0
H804 H 0.03224 0.48481 0.15144 0.0
H805 H 0.99094 0.47094 0.22014 0.0
C806 C 0.9473 0.4939 0.18817 0.0
C807 C 0.93584 0.50666 0.14757 0.0
C808 C 0.98249 0.51469 0.20228 0.0
C809 C 0.94717 0.5429 0.14704 0.0
C810 C 0.97838 0.5654 0.17313 0.0
C811 C 0.02651 0.55955 0.15174 0.0
C812 C 0.03212 0.53295 1.13185 0.0
C813 C -0.00069 0.5503 0.18517 0.0
C814 C 0.02417 0.50363 0.16195 0.0
C815 C 0.00136 0.49645 0.20206 0.0
H816 H 0.04168 0.53395 0.44383 0.0
H817 H -0.00717 0.43206 0.51546 0.0
H818 H 0.94925 0.40829 0.44871 0.0
H819 H 0.91718 0.44139 0.46455 0.0
H820 H 0.96692 0.55081 0.42255 0.0
H821 H 0.00872 0.54322 0.37267 0.0
C822 C 0.02241 0.50593 0.44325 0.0
C823 C 0.01846 0.48597 0.48675 0.0
C824 C -0.00567 0.49336 0.40839 0.0
C825 C -0.00473 0.44913 0.48438 0.0
C826 C 0.97032 0.43546 0.44545 0.0
C827 C 0.93709 0.46343 0.44334 0.0
C828 C 0.94359 0.49773 0.45403 0.0
C829 C 0.96436 0.46047 0.42137 0.0
C830 C 0.96463 0.52491 0.42049 0.0
C831 C 0.98822 0.52023 0.3914 0.0
H832 H 0.47626 -0.00172 0.94632 0.0
H833 H 0.44709 0.01025 0.79684 0.0
H834 H 0.49827 0.00884 0.76251 0.0
H835 H 0.54674 0.99552 0.77812 0.0
H836 H 0.56315 0.96644 0.92366 0.0
H837 H 0.51261 0.96939 0.95725 0.0
C838 C 0.4817 0.00107 0.90626 0.0
C839 C 0.45567 0.99749 0.87251 0.0
C840 C 0.50451 0.99071 0.8872 0.0
C841 C 0.46499 0.00749 0.82231 0.0
C842 C 0.49267 0.00462 0.80237 0.0
C843 C 0.53846 0.98932 0.81692 0.0
C844 C 0.56236 0.99164 0.85394 0.0
C845 C 0.51112 0.99384 0.83435 0.0
C846 C 0.54774 0.97305 0.89854 0.0
C847 C 0.51989 0.97584 0.9182 0.0
H848 H 0.47682 0.54079 1.10481 0.0
H849 H 0.38781 0.45428 0.17428 0.0
H850 H 0.39992 0.41301 1.12928 0.0
H851 H 0.45437 0.41942 0.16535 0.0
H852 H 0.5515 0.51635 0.1452 0.0
H853 H 0.52449 0.53198 1.07651 0.0
C854 C 0.45978 0.5125 1.1094 0.0
C855 C 0.43528 0.50034 0.14861 0.0
C856 C 0.47218 0.49012 1.09462 0.0
C857 C 0.40956 0.46446 0.14859 0.0
C858 C 0.41688 0.44104 1.12269 0.0
C859 C 0.46967 0.44384 0.14524 0.0
C860 C 0.50288 0.46916 0.16442 0.0
C861 C 0.45243 0.45453 1.11147 0.0
C862 C 0.52443 0.49829 1.13454 0.0
C863 C 0.50896 0.50657 1.09452 0.0
H864 H 0.22658 0.93323 0.72636 0.0
H865 H 0.20825 0.83566 0.65673 0.0
H866 H 0.22139 0.86402 0.57432 0.0
H867 H 0.25405 0.92027 0.52865 0.0
H868 H 0.2755 0.01796 0.60111 0.0
H869 H 0.24458 0.98556 0.67596 0.0
C870 C 0.22371 0.9174 0.69314 0.0
C871 C 0.21796 0.88274 0.69815 0.0
C872 C 0.23294 0.93432 0.64651 0.0
C873 C 0.21387 0.8628 0.65417 0.0
C874 C 0.22168 0.8791 0.60706 0.0
C875 C 0.25078 0.93425 0.56011 0.0
C876 C 0.26785 0.97148 0.5602 0.0
C877 C 0.23391 0.91555 0.60362 0.0
C878 C 0.26332 0.98935 0.60096 0.0
C879 C 0.24563 0.97084 0.64366 0.0
H880 H 0.30534 0.27586 1.01567 0.0
H881 H 0.29182 0.36021 1.07595 0.0
H882 H 0.25611 0.35634 1.00249 0.0
H883 H 0.23947 0.33751 0.91523 0.0
H884 H 0.25561 0.2556 0.85186 0.0
H885 H 0.27887 0.24931 0.93304 0.0
C886 C 0.29408 0.29298 1.0129 0.0
C887 C 0.30168 0.31874 1.05045 0.0
C888 C 0.27421 0.2911 0.97008 0.0
C889 C 0.2864 0.34027 1.04731 0.0
C890 C 0.26611 0.33816 1.00525 0.0
C891 C 0.24658 0.31715 0.91957 0.0
C892 C 0.24643 0.2975 0.87734 0.0
C893 C 0.26119 0.31477 0.96552 0.0
C894 C 0.256 0.27141 0.88372 0.0
C895 C 0.26958 0.26805 0.92995 0.0
H896 H 0.98787 0.30603 0.23742 0.0
H897 H 0.08138 0.39545 0.18059 0.0
H898 H 0.11513 0.39341 0.25326 0.0
H899 H 0.11421 0.37514 0.34061 0.0
H900 H 0.0166 0.2935 0.40186 0.0
H901 H 0.98974 0.28105 0.31897 0.0
C902 C 0.01589 0.32424 0.2401 0.0
C903 C 0.03208 0.35126 0.20451 0.0
C904 C 0.03459 0.32409 0.28311 0.0
C905 C 0.06835 0.37484 0.20827 0.0
C906 C 0.0876 0.37363 0.24972 0.0
C907 C 0.08709 0.35443 0.33596 0.0
C908 C 0.06709 0.3372 0.37862 0.0
C909 C 0.07042 0.34982 0.28888 0.0
C910 C 0.0329 0.30833 0.37073 0.0
C911 C 0.01703 0.30144 0.32304 0.0
H912 H 0.69059 0.96732 0.74614 0.0
H913 H 0.75513 0.05536 0.65024 0.0
H914 H 0.74044 0.01501 0.57823 0.0
H915 H 0.70058 0.95713 0.54044 0.0
H916 H 0.63329 0.86956 0.63525 0.0
H917 H 0.65838 0.90719 0.71025 0.0
C918 C 0.7024 0.97751 0.70988 0.0
C919 C 0.72351 0.01426 0.70322 0.0
C920 C 0.69299 0.9543 0.66843 0.0
C921 C 0.73838 0.02718 0.65596 0.0
C922 C 0.72995 0.00415 0.61484 0.0
C923 C 0.69236 0.94585 0.57759 0.0
C924 C 0.66483 0.91073 0.58232 0.0
C925 C 0.70598 0.96793 0.62021 0.0
C926 C 0.65416 0.89667 0.63072 0.0
C927 C 0.66838 0.91821 0.67353 0.0
H928 H 0.65404 0.59153 1.08744 0.0
H929 H 0.70294 0.70535 1.09817 0.0
H930 H 0.74345 0.71182 1.03199 0.0
H931 H 0.75541 0.68525 0.95908 0.0
H932 H 0.69886 0.57132 0.94099 0.0
H933 H 0.67344 0.56504 1.02309 0.0
C934 C 0.67389 0.61775 1.07573 0.0
C935 C 0.6748 0.64782 1.09673 0.0
C936 C 0.6961 0.62134 1.03607 0.0
C937 C 0.70144 0.68167 1.08246 0.0
C938 C 0.72456 0.68543 1.04432 0.0
C939 C 0.73792 0.65898 0.97336 0.0
C940 C 0.72791 0.62908 0.94227 0.0
C941 C 0.72071 0.65544 1.01893 0.0
C942 C 0.70691 0.59518 0.96298 0.0
C943 C 0.6916 0.5914 1.00992 0.0
H944 H 0.0393 0.75514 0.22787 0.0
H945 H 0.11848 0.72783 0.26622 0.0
H946 H 0.10336 0.72382 0.35429 0.0
H947 H 0.05703 0.71055 0.41454 0.0
H948 H 0.97178 0.72786 0.37381 0.0
H949 H -0.00049 0.7531 0.2934 0.0
C950 C 0.05369 0.74895 0.25563 0.0
C951 C 0.07895 0.74032 0.23978 0.0
C952 C 0.04301 0.74388 0.30598 0.0
C953 C 0.09859 0.7342 0.27664 0.0
C954 C 0.08959 0.73134 0.3273 0.0
C955 C 0.04511 0.72082 0.38854 0.0
C956 C 0.01206 0.71651 0.3991 0.0
C957 C 0.06015 0.73336 0.34151 0.0
C958 C -0.00289 0.73062 0.36608 0.0
C959 C 0.0128 0.74473 0.31994 0.0
H960 H 0.57336 0.11055 0.53609 0.0
H961 H 0.46816 0.07986 0.57961 0.0
H962 H 0.48423 0.07804 0.66797 0.0
H963 H 0.52812 0.08487 0.73795 0.0
H964 H 0.63307 0.11424 0.6951 0.0
H965 H 0.61725 0.11642 0.60642 0.0
C966 C 0.55351 0.10358 0.56438 0.0
C967 C 0.5186 0.09578 0.54722 0.0
C968 C 0.5632 0.10216 0.61786 0.0
C969 C 0.49489 0.08649 0.58794 0.0
C970 C 0.50433 0.08534 0.63998 0.0
C971 C 0.54807 0.0919 0.7098 0.0
C972 C 0.58283 0.09953 0.72723 0.0
C973 C 0.53843 0.09309 0.65635 0.0
C974 C 0.60652 0.10816 0.68658 0.0
C975 C 0.5972 0.10947 0.63439 0.0
H976 H 0.34697 0.48844 0.92386 0.0
H977 H 0.449 0.55191 0.85936 0.0
H978 H 0.47322 0.57753 0.94198 0.0
H979 H 0.46801 0.58452 1.03669 0.0
H980 H 0.36609 0.52372 1.10204 0.0
H981 H 0.34151 0.49667 1.01951 0.0
C982 C 0.37464 0.50768 0.92706 0.0
C983 C 0.39531 0.51693 0.88121 0.0
C984 C 0.38939 0.52404 0.97731 0.0
C985 C 0.43113 0.54293 0.89067 0.0
C986 C 0.44553 0.55818 0.93936 0.0
C987 C 0.44022 0.56565 1.03369 0.0
C988 C 0.41975 0.55758 1.07943 0.0
C989 C 0.4253 0.54947 0.98372 0.0
C990 C 0.38371 0.53206 1.07049 0.0
C991 C 0.36922 0.51595 1.02192 0.0
H992 H 0.86528 0.48469 0.20502 0.0
H993 H 0.86554 0.38731 0.23084 0.0
H994 H 0.86428 0.39581 0.32202 0.0
H995 H 0.86377 0.4309 0.39872 0.0
H996 H 0.86935 0.53117 0.3742 0.0
H997 H 0.86761 0.52145 0.28258 0.0
C998 C 0.86458 0.46477 0.23006 0.0
C999 C 0.86466 0.43432 0.2075 0.0
C1000 C 0.86504 0.47055 0.28498 0.0
C1001 C 0.86492 0.41055 0.24387 0.0
C1002 C 0.86433 0.4156 0.29733 0.0
C1003 C 0.86443 0.45091 0.37391 0.0
C1004 C 0.86615 0.48207 0.39687 0.0
C1005 C 0.86443 0.44548 0.31912 0.0
C1006 C 0.86762 0.50686 0.36082 0.0
C1007 C 0.86668 0.50118 0.30713 0.0
H1008 H 0.43787 0.90802 0.53685 0.0
H1009 H 0.51825 0.88344 0.57734 0.0
H1010 H 0.50076 0.87864 0.66624 0.0
H1011 H 0.46206 0.88126 0.73708 0.0
H1012 H 0.38233 0.90653 0.69499 0.0
H1013 H 0.39984 0.9109 0.60665 0.0
C1014 C 0.45194 0.9014 0.5645 0.0
C1015 C 0.48022 0.89604 0.54645 0.0
C1016 C 0.44145 0.89872 0.61776 0.0
C1017 C 0.49679 0.88779 0.58637 0.0
C1018 C 0.4865 0.88504 0.63863 0.0
C1019 C 0.44803 0.88766 0.70909 0.0
C1020 C 0.41968 0.89323 0.72661 0.0
C1021 C 0.45874 0.89037 0.65568 0.0
C1022 C 0.40355 0.90171 0.68635 0.0
C1023 C 0.41388 0.9043 0.63439 0.0
H1024 H 0.61523 0.51203 0.93433 0.0
H1025 H 0.51954 0.43316 0.86169 0.0
H1026 H 0.49612 0.40703 0.94328 0.0
H1027 H 0.50042 0.4038 1.03976 0.0
H1028 H 0.59706 0.48037 1.11249 0.0
H1029 H 0.62009 0.50765 1.03114 0.0
C1030 C 0.5891 0.48919 0.93539 0.0
C1031 C 0.57003 0.47577 0.88745 0.0
C1032 C 0.57496 0.47262 0.98511 0.0
C1033 C 0.53622 0.44542 0.89454 0.0
C1034 C 0.52226 0.42989 0.94271 0.0
C1035 C 0.52674 0.42632 1.03874 0.0
C1036 C 0.54618 0.43864 1.08649 0.0
C1037 C 0.54104 0.44272 0.98913 0.0
C1038 C 0.58027 0.46861 1.07962 0.0
C1039 C 0.59393 0.48491 1.0316 0.0
H1040 H 0.10358 0.50113 0.3644 0.0
H1041 H 0.10778 0.59473 0.4262 0.0
H1042 H 0.10898 0.61658 0.34142 0.0
H1043 H 0.10884 0.6114 0.2451 0.0
H1044 H 0.10916 0.52032 0.18258 0.0
H1045 H 0.10634 0.49734 0.26747 0.0
C1046 C 0.10493 0.52648 0.36022 0.0
C1047 C 0.10555 0.54544 0.40602 0.0
C1048 C 0.10652 0.54033 0.30856 0.0
C1049 C 0.10741 0.5784 0.39511 0.0
C1050 C 0.10802 0.59137 0.3451 0.0
C1051 C 0.10859 0.58656 0.24917 0.0
C1052 C 0.10957 0.56858 0.20338 0.0
C1053 C 0.10768 0.57297 0.30066 0.0
C1054 C 0.10893 0.53616 0.21393 0.0
C1055 C 0.10714 0.52248 0.26393 0.0
loop_
_geom_bond_atom_site_label_1
_geom_bond_atom_site_label_2
_geom_bond_distance
_geom_bond_site_symmetry_2
_ccdc_geom_bond_type
Dy0 O3 2.307 . S
Dy0 O5 2.395 . S
Dy0 O6 2.379 . S
Dy0 O8 2.339 . S
Dy0 O10 2.298 . S
Dy0 O14 2.275 . S
Dy0 C22 2.738 . S
Dy1 O4 2.298 . S
Dy1 O7 2.275 . S
Dy1 O9 2.307 . S
Dy1 O11 2.395 . S
Dy1 O12 2.379 . S
Dy1 O15 2.339 . S
Dy1 C31 2.738 . S
C2 O14 1.254 . S
C2 O15 1.257 . S
O3 Dy0 2.307 . S
O3 C13 1.266 . S
O4 Dy1 2.298 . S
O4 C13 1.236 . S
O5 Dy0 2.395 . S
O5 C22 1.255 . S
O6 Dy0 2.379 . S
O6 C22 1.249 . S
O7 Dy1 2.275 . S
O7 C23 1.254 . S
O8 Dy0 2.339 . S
O8 C23 1.257 . S
O9 Dy1 2.307 . S
O9 C24 1.266 . S
O10 Dy0 2.298 . S
O10 C24 1.236 . S
O11 Dy1 2.395 . S
O11 C31 1.255 . S
O12 Dy1 2.379 . S
O12 C31 1.249 . S
C13 O3 1.266 . S
C13 O4 1.236 . S
O14 Dy0 2.275 . S
O14 C2 1.254 . S
O15 Dy1 2.339 . S
O15 C2 1.257 . S
C16 C19 1.344 . S
C16 C20 1.328 . S
C16 C22 1.516 . S
C17 C18 1.304 . S
C17 C21 1.323 . S
C18 C17 1.304 . S
C18 C19 1.371 . S
C18 H32 0.930 . S
C19 C16 1.344 . S
C19 C18 1.371 . S
C19 H33 0.931 . S
C20 C16 1.328 . S
C20 C21 1.433 . S
C20 H34 0.931 . S
C21 C17 1.323 . S
C21 C20 1.433 . S
C21 H35 0.933 . S
C22 Dy0 2.738 . S
C22 O5 1.255 . S
C22 O6 1.249 . S
C22 C16 1.516 . S
C23 O7 1.254 . S
C23 O8 1.257 . S
C24 O9 1.266 . S
C24 O10 1.236 . S
C25 C28 1.344 . S
C25 C29 1.328 . S
C25 C31 1.516 . S
C26 C27 1.304 . S
C26 C30 1.323 . S
C27 C26 1.304 . S
C27 C28 1.371 . S
C27 H36 0.930 . S
C28 C25 1.344 . S
C28 C27 1.371 . S
C28 H37 0.931 . S
C29 C25 1.328 . S
C29 C30 1.433 . S
C29 H38 0.931 . S
C30 C26 1.323 . S
C30 C29 1.433 . S
C30 H39 0.933 . S
C31 Dy1 2.738 . S
C31 O11 1.255 . S
C31 O12 1.249 . S
C31 C25 1.516 . S
H32 C18 0.930 . S
H33 C19 0.931 . S
H34 C20 0.931 . S
H35 C21 0.933 . S
H36 C27 0.930 . S
H37 C28 0.931 . S
H38 C29 0.931 . S
H39 C30 0.933 . S
Dy40 O43 2.307 . S
Dy40 O45 2.395 . S
Dy40 O46 2.379 . S
Dy40 O48 2.339 . S
Dy40 O50 2.298 . S
Dy40 O54 2.275 . S
Dy40 C62 2.738 . S
Dy41 O44 2.298 . S
Dy41 O47 2.275 . S
Dy41 O49 2.307 . S
Dy41 O51 2.395 . S
Dy41 O52 2.379 . S
Dy41 O55 2.339 . S
Dy41 C71 2.738 . S
C42 O54 1.254 . S
C42 O55 1.257 . S
O43 Dy40 2.307 . S
O43 C53 1.266 . S
O44 Dy41 2.298 . S
O44 C53 1.236 . S
O45 Dy40 2.395 . S
O45 C62 1.255 . S
O46 Dy40 2.379 . S
O46 C62 1.249 . S
O47 Dy41 2.275 . S
O47 C63 1.254 . S
O48 Dy40 2.339 . S
O48 C63 1.257 . S
O49 Dy41 2.307 . S
O49 C64 1.266 . S
O50 Dy40 2.298 . S
O50 C64 1.236 . S
O51 Dy41 2.395 . S
O51 C71 1.255 . S
O52 Dy41 2.379 . S
O52 C71 1.249 . S
C53 O43 1.266 . S
C53 O44 1.236 . S
O54 Dy40 2.275 . S
O54 C42 1.254 . S
O55 Dy41 2.339 . S
O55 C42 1.257 . S
C56 C59 1.344 . S
C56 C60 1.328 . S
C56 C62 1.516 . S
C57 C58 1.304 . S
C57 C61 1.323 . S
C58 C57 1.304 . S
C58 C59 1.371 . S
C58 H72 0.930 . S
C59 C56 1.344 . S
C59 C58 1.371 . S
C59 H73 0.931 . S
C60 C56 1.328 . S
C60 C61 1.433 . S
C60 H74 0.931 . S
C61 C57 1.323 . S
C61 C60 1.433 . S
C61 H75 0.933 . S
C62 Dy40 2.738 . S
C62 O45 1.255 . S
C62 O46 1.249 . S
C62 C56 1.516 . S
C63 O47 1.254 . S
C63 O48 1.257 . S
C64 O49 1.266 . S
C64 O50 1.236 . S
C65 C68 1.344 . S
C65 C69 1.328 . S
C65 C71 1.516 . S
C66 C67 1.304 . S
C66 C70 1.323 . S
C67 C66 1.304 . S
C67 C68 1.371 . S
C67 H76 0.930 . S
C68 C65 1.344 . S
C68 C67 1.371 . S
C68 H77 0.931 . S
C69 C65 1.328 . S
C69 C70 1.433 . S
C69 H78 0.931 . S
C70 C66 1.323 . S
C70 C69 1.433 . S
C70 H79 0.933 . S
C71 Dy41 2.738 . S
C71 O51 1.255 . S
C71 O52 1.249 . S
C71 C65 1.516 . S
H72 C58 0.930 . S
H73 C59 0.931 . S
H74 C60 0.931 . S
H75 C61 0.933 . S
H76 C67 0.930 . S
H77 C68 0.931 . S
H78 C69 0.931 . S
H79 C70 0.933 . S
Dy80 O83 2.307 . S
Dy80 O85 2.395 . S
Dy80 O86 2.379 . S
Dy80 O88 2.339 . S
Dy80 O90 2.298 . S
Dy80 O94 2.275 . S
Dy80 C102 2.738 . S
Dy81 O84 2.298 . S
Dy81 O87 2.275 . S
Dy81 O89 2.307 . S
Dy81 O91 2.395 1_556 S
Dy81 O92 2.393 . S
Dy81 O95 2.339 . S
Dy81 C111 2.738 1_556 S
C82 O94 1.254 . S
C82 O95 1.257 . S
O83 Dy80 2.307 . S
O83 C93 1.266 . S
O84 Dy81 2.298 . S
O84 C93 1.236 . S
O85 Dy80 2.395 . S
O85 C102 1.255 . S
O86 Dy80 2.379 . S
O86 C102 1.249 . S
O87 Dy81 2.275 . S
O87 C103 1.254 . S
O88 Dy80 2.339 . S
O88 C103 1.257 . S
O89 Dy81 2.307 . S
O89 C104 1.266 . S
O90 Dy80 2.298 . S
O90 C104 1.236 . S
O91 Dy81 2.395 1_554 S
O91 C111 1.255 . S
O92 Dy81 2.393 . S
O92 C111 1.241 1_556 S
C93 O83 1.266 . S
C93 O84 1.236 . S
O94 Dy80 2.275 . S
O94 C82 1.254 . S
O95 Dy81 2.339 . S
O95 C82 1.257 . S
C96 C99 1.344 . S
C96 C100 1.328 . S
C96 C102 1.516 . S
C97 C98 1.304 . S
C97 C101 1.323 . S
C98 C97 1.304 . S
C98 C99 1.371 . S
C98 H112 0.930 . S
C99 C96 1.344 . S
C99 C98 1.371 . S
C99 H113 0.931 . S
C100 C96 1.328 . S
C100 C101 1.433 . S
C100 H114 0.931 . S
C101 C97 1.323 . S
C101 C100 1.433 . S
C101 H115 0.933 . S
C102 Dy80 2.738 . S
C102 O85 1.255 . S
C102 O86 1.249 . S
C102 C96 1.516 . S
C103 O87 1.254 . S
C103 O88 1.257 . S
C104 O89 1.266 . S
C104 O90 1.236 . S
C105 C108 1.344 . S
C105 C109 1.328 . S
C105 C111 1.516 . S
C106 C107 1.304 . S
C106 C110 1.323 . S
C107 C106 1.304 . S
C107 C108 1.371 . S
C107 H116 0.930 . S
C108 C105 1.344 . S
C108 C107 1.371 . S
C108 H117 0.931 . S
C109 C105 1.328 . S
C109 C110 1.433 . S
C109 H118 0.931 . S
C110 C106 1.323 . S
C110 C109 1.433 . S
C110 H119 0.933 . S
C111 Dy81 2.738 1_554 S
C111 O91 1.255 . S
C111 O92 1.241 1_554 S
C111 C105 1.516 . S
H112 C98 0.930 . S
H113 C99 0.931 . S
H114 C100 0.931 . S
H115 C101 0.933 . S
H116 C107 0.930 . S
H117 C108 0.931 . S
H118 C109 0.931 . S
H119 C110 0.933 . S
Dy120 O123 2.307 . S
Dy120 O125 2.395 . S
Dy120 O126 2.379 . S
Dy120 O128 2.339 . S
Dy120 O130 2.298 . S
Dy120 O134 2.275 . S
Dy120 C142 2.738 . S
Dy121 O124 2.298 . S
Dy121 O127 2.275 . S
Dy121 O129 2.307 . S
Dy121 O131 2.395 . S
Dy121 O132 2.379 . S
Dy121 O135 2.339 . S
Dy121 C151 2.738 . S
C122 O134 1.254 . S
C122 O135 1.257 . S
O123 Dy120 2.307 . S
O123 C133 1.266 . S
O124 Dy121 2.298 . S
O124 C133 1.236 . S
O125 Dy120 2.395 . S
O125 C142 1.255 . S
O126 Dy120 2.379 . S
O126 C142 1.249 . S
O127 Dy121 2.275 . S
O127 C143 1.254 . S
O128 Dy120 2.339 . S
O128 C143 1.257 . S
O129 Dy121 2.307 . S
O129 C144 1.266 . S
O130 Dy120 2.298 . S
O130 C144 1.236 . S
O131 Dy121 2.395 . S
O131 C151 1.255 . S
O132 Dy121 2.379 . S
O132 C151 1.249 . S
C133 O123 1.266 . S
C133 O124 1.236 . S
O134 Dy120 2.275 . S
O134 C122 1.254 . S
O135 Dy121 2.339 . S
O135 C122 1.257 . S
C136 C139 1.344 . S
C136 C140 1.328 . S
C136 C142 1.516 . S
C137 C138 1.304 . S
C137 C141 1.323 . S
C138 C137 1.304 . S
C138 C139 1.371 . S
C138 H152 0.930 . S
C139 C136 1.344 . S
C139 C138 1.371 . S
C139 H153 0.931 . S
C140 C136 1.328 . S
C140 C141 1.433 . S
C140 H154 0.931 . S
C141 C137 1.323 . S
C141 C140 1.433 . S
C141 H155 0.933 . S
C142 Dy120 2.738 . S
C142 O125 1.255 . S
C142 O126 1.249 . S
C142 C136 1.516 . S
C143 O127 1.254 . S
C143 O128 1.257 . S
C144 O129 1.266 . S
C144 O130 1.236 . S
C145 C148 1.344 . S
C145 C149 1.328 . S
C145 C151 1.516 . S
C146 C147 1.304 . S
C146 C150 1.323 . S
C147 C146 1.304 . S
C147 C148 1.371 . S
C147 H156 0.930 . S
C148 C145 1.344 . S
C148 C147 1.371 . S
C148 H157 0.931 . S
C149 C145 1.328 . S
C149 C150 1.433 . S
C149 H158 0.931 . S
C150 C146 1.323 . S
C150 C149 1.433 . S
C150 H159 0.933 . S
C151 Dy121 2.738 . S
C151 O131 1.255 . S
C151 O132 1.249 . S
C151 C145 1.516 . S
H152 C138 0.930 . S
H153 C139 0.931 . S
H154 C140 0.931 . S
H155 C141 0.933 . S
H156 C147 0.930 . S
H157 C148 0.931 . S
H158 C149 0.931 . S
H159 C150 0.933 . S
Dy160 O163 2.307 . S
Dy160 O165 2.395 . S
Dy160 O166 2.379 . S
Dy160 O168 2.339 . S
Dy160 O170 2.298 . S
Dy160 O174 2.275 . S
Dy160 C182 2.738 . S
Dy161 O164 2.298 . S
Dy161 O167 2.275 . S
Dy161 O169 2.307 . S
Dy161 O171 2.395 . S
Dy161 O172 2.379 . S
Dy161 O175 2.339 . S
Dy161 C191 2.738 . S
C162 O174 1.254 . S
C162 O175 1.257 . S
O163 Dy160 2.307 . S
O163 C173 1.266 . S
O164 Dy161 2.298 . S
O164 C173 1.236 . S
O165 Dy160 2.395 . S
O165 C182 1.255 . S
O166 Dy160 2.379 . S
O166 C182 1.249 . S
O167 Dy161 2.275 . S
O167 C183 1.254 . S
O168 Dy160 2.339 . S
O168 C183 1.257 . S
O169 Dy161 2.307 . S
O169 C184 1.266 . S
O170 Dy160 2.298 . S
O170 C184 1.236 . S
O171 Dy161 2.395 . S
O171 C191 1.255 . S
O172 Dy161 2.379 . S
O172 C191 1.249 . S
C173 O163 1.266 . S
C173 O164 1.236 . S
O174 Dy160 2.275 . S
O174 C162 1.254 . S
O175 Dy161 2.339 . S
O175 C162 1.257 . S
C176 C179 1.344 . S
C176 C180 1.328 . S
C176 C182 1.516 . S
C177 C178 1.304 . S
C177 C181 1.323 . S
C178 C177 1.304 . S
C178 C179 1.371 . S
C178 H192 0.930 . S
C179 C176 1.344 . S
C179 C178 1.371 . S
C179 H193 0.931 . S
C180 C176 1.328 . S
C180 C181 1.433 . S
C180 H194 0.931 . S
C181 C177 1.323 . S
C181 C180 1.433 . S
C181 H195 0.933 . S
C182 Dy160 2.738 . S
C182 O165 1.255 . S
C182 O166 1.249 . S
C182 C176 1.516 . S
C183 O167 1.254 . S
C183 O168 1.257 . S
C184 O169 1.266 . S
C184 O170 1.236 . S
C185 C188 1.344 . S
C185 C189 1.328 . S
C185 C191 1.516 . S
C186 C187 1.304 . S
C186 C190 1.323 . S
C187 C186 1.304 . S
C187 C188 1.371 . S
C187 H196 0.930 . S
C188 C185 1.344 . S
C188 C187 1.371 . S
C188 H197 0.931 . S
C189 C185 1.328 . S
C189 C190 1.433 . S
C189 H198 0.931 . S
C190 C186 1.323 . S
C190 C189 1.433 . S
C190 H199 0.933 . S
C191 Dy161 2.738 . S
C191 O171 1.255 . S
C191 O172 1.249 . S
C191 C185 1.516 . S
H192 C178 0.930 . S
H193 C179 0.931 . S
H194 C180 0.931 . S
H195 C181 0.933 . S
H196 C187 0.930 . S
H197 C188 0.931 . S
H198 C189 0.931 . S
H199 C190 0.933 . S
Dy200 O203 2.307 . S
Dy200 O205 2.395 . S
Dy200 O206 2.379 . S
Dy200 O208 2.339 . S
Dy200 O210 2.298 . S
Dy200 O214 2.275 . S
Dy200 C222 2.738 . S
Dy201 O204 2.298 . S
Dy201 O207 2.275 . S
Dy201 O209 2.307 . S
Dy201 O211 2.395 1_556 S
Dy201 O212 2.393 . S
Dy201 O215 2.339 . S
Dy201 C231 2.738 1_556 S
C202 O214 1.254 . S
C202 O215 1.257 . S
O203 Dy200 2.307 . S
O203 C213 1.266 . S
O204 Dy201 2.298 . S
O204 C213 1.236 . S
O205 Dy200 2.395 . S
O205 C222 1.255 . S
O206 Dy200 2.379 . S
O206 C222 1.249 . S
O207 Dy201 2.275 . S
O207 C223 1.254 . S
O208 Dy200 2.339 . S
O208 C223 1.257 . S
O209 Dy201 2.307 . S
O209 C224 1.266 . S
O210 Dy200 2.298 . S
O210 C224 1.236 . S
O211 Dy201 2.395 1_554 S
O211 C231 1.255 . S
O212 Dy201 2.393 . S
O212 C231 1.241 1_556 S
C213 O203 1.266 . S
C213 O204 1.236 . S
O214 Dy200 2.275 . S
O214 C202 1.254 . S
O215 Dy201 2.339 . S
O215 C202 1.257 . S
C216 C219 1.344 . S
C216 C220 1.328 . S
C216 C222 1.516 . S
C217 C218 1.304 . S
C217 C221 1.323 . S
C218 C217 1.304 . S
C218 C219 1.371 . S
C218 H232 0.930 . S
C219 C216 1.344 . S
C219 C218 1.371 . S
C219 H233 0.931 . S
C220 C216 1.328 . S
C220 C221 1.433 . S
C220 H234 0.931 . S
C221 C217 1.323 . S
C221 C220 1.433 . S
C221 H235 0.933 . S
C222 Dy200 2.738 . S
C222 O205 1.255 . S
C222 O206 1.249 . S
C222 C216 1.516 . S
C223 O207 1.254 . S
C223 O208 1.257 . S
C224 O209 1.266 . S
C224 O210 1.236 . S
C225 C228 1.344 . S
C225 C229 1.328 . S
C225 C231 1.516 . S
C226 C227 1.304 . S
C226 C230 1.323 . S
C227 C226 1.304 . S
C227 C228 1.371 . S
C227 H236 0.930 . S
C228 C225 1.344 . S
C228 C227 1.371 . S
C228 H237 0.931 . S
C229 C225 1.328 . S
C229 C230 1.433 . S
C229 H238 0.931 . S
C230 C226 1.323 . S
C230 C229 1.433 . S
C230 H239 0.933 . S
C231 Dy201 2.738 1_554 S
C231 O211 1.255 . S
C231 O212 1.241 1_554 S
C231 C225 1.516 . S
H232 C218 0.930 . S
H233 C219 0.931 . S
H234 C220 0.931 . S
H235 C221 0.933 . S
H236 C227 0.930 . S
H237 C228 0.931 . S
H238 C229 0.931 . S
H239 C230 0.933 . S
Dy240 O243 2.307 . S
Dy240 O245 2.395 . S
Dy240 O246 2.379 . S
Dy240 O248 2.339 . S
Dy240 O250 2.298 . S
Dy240 O254 2.275 . S
Dy240 C262 2.738 . S
Dy241 O244 2.298 . S
Dy241 O247 2.275 . S
Dy241 O249 2.307 . S
Dy241 O251 2.395 . S
Dy241 O252 2.379 . S
Dy241 O255 2.339 . S
Dy241 C271 2.738 . S
C242 O254 1.254 . S
C242 O255 1.257 . S
O243 Dy240 2.307 . S
O243 C253 1.266 . S
O244 Dy241 2.298 . S
O244 C253 1.236 . S
O245 Dy240 2.395 . S
O245 C262 1.255 . S
O246 Dy240 2.379 . S
O246 C262 1.249 . S
O247 Dy241 2.275 . S
O247 C263 1.254 . S
O248 Dy240 2.339 . S
O248 C263 1.257 . S
O249 Dy241 2.307 . S
O249 C264 1.266 . S
O250 Dy240 2.298 . S
O250 C264 1.236 . S
O251 Dy241 2.395 . S
O251 C271 1.255 . S
O252 Dy241 2.379 . S
O252 C271 1.249 . S
C253 O243 1.266 . S
C253 O244 1.236 . S
O254 Dy240 2.275 . S
O254 C242 1.254 . S
O255 Dy241 2.339 . S
O255 C242 1.257 . S
C256 C259 1.344 . S
C256 C260 1.328 . S
C256 C262 1.516 . S
C257 C258 1.304 . S
C257 C261 1.323 . S
C258 C257 1.304 . S
C258 C259 1.371 . S
C258 H272 0.930 . S
C259 C256 1.344 . S
C259 C258 1.371 . S
C259 H273 0.931 . S
C260 C256 1.328 . S
C260 C261 1.433 . S
C260 H274 0.931 . S
C261 C257 1.323 . S
C261 C260 1.433 . S
C261 H275 0.933 . S
C262 Dy240 2.738 . S
C262 O245 1.255 . S
C262 O246 1.249 . S
C262 C256 1.516 . S
C263 O247 1.254 . S
C263 O248 1.257 . S
C264 O249 1.266 . S
C264 O250 1.236 . S
C265 C268 1.344 . S
C265 C269 1.328 . S
C265 C271 1.516 . S
C266 C267 1.304 . S
C266 C270 1.323 . S
C267 C266 1.304 . S
C267 C268 1.371 . S
C267 H276 0.930 . S
C268 C265 1.344 . S
C268 C267 1.371 . S
C268 H277 0.931 . S
C269 C265 1.328 . S
C269 C270 1.433 . S
C269 H278 0.931 . S
C270 C266 1.323 . S
C270 C269 1.433 . S
C270 H279 0.933 . S
C271 Dy241 2.738 . S
C271 O251 1.255 . S
C271 O252 1.249 . S
C271 C265 1.516 . S
H272 C258 0.930 . S
H273 C259 0.931 . S
H274 C260 0.931 . S
H275 C261 0.933 . S
H276 C267 0.930 . S
H277 C268 0.931 . S
H278 C269 0.931 . S
H279 C270 0.933 . S
Dy280 O283 2.307 . S
Dy280 O285 2.395 . S
Dy280 O286 2.379 . S
Dy280 O288 2.339 . S
Dy280 O290 2.298 . S
Dy280 O294 2.275 . S
Dy280 C302 2.738 . S
Dy281 O284 2.298 . S
Dy281 O287 2.275 . S
Dy281 O289 2.307 . S
Dy281 O291 2.395 . S
Dy281 O292 2.379 . S
Dy281 O295 2.339 . S
Dy281 C311 2.738 . S
C282 O294 1.254 . S
C282 O295 1.257 . S
O283 Dy280 2.307 . S
O283 C293 1.266 . S
O284 Dy281 2.298 . S
O284 C293 1.236 . S
O285 Dy280 2.395 . S
O285 C302 1.255 . S
O286 Dy280 2.379 . S
O286 C302 1.249 . S
O287 Dy281 2.275 . S
O287 C303 1.254 . S
O288 Dy280 2.339 . S
O288 C303 1.257 . S
O289 Dy281 2.307 . S
O289 C304 1.266 . S
O290 Dy280 2.298 . S
O290 C304 1.236 . S
O291 Dy281 2.395 . S
O291 C311 1.255 . S
O292 Dy281 2.379 . S
O292 C311 1.249 . S
C293 O283 1.266 . S
C293 O284 1.236 . S
O294 Dy280 2.275 . S
O294 C282 1.254 . S
O295 Dy281 2.339 . S
O295 C282 1.257 . S
C296 C299 1.344 . S
C296 C300 1.328 . S
C296 C302 1.516 . S
C297 C298 1.304 . S
C297 C301 1.323 . S
C298 C297 1.304 . S
C298 C299 1.371 . S
C298 H312 0.930 . S
C299 C296 1.344 . S
C299 C298 1.371 . S
C299 H313 0.931 . S
C300 C296 1.328 . S
C300 C301 1.433 . S
C300 H314 0.931 . S
C301 C297 1.323 . S
C301 C300 1.433 . S
C301 H315 0.933 . S
C302 Dy280 2.738 . S
C302 O285 1.255 . S
C302 O286 1.249 . S
C302 C296 1.516 . S
C303 O287 1.254 . S
C303 O288 1.257 . S
C304 O289 1.266 . S
C304 O290 1.236 . S
C305 C308 1.344 . S
C305 C309 1.328 . S
C305 C311 1.516 . S
C306 C307 1.304 . S
C306 C310 1.323 . S
C307 C306 1.304 . S
C307 C308 1.371 . S
C307 H316 0.930 . S
C308 C305 1.344 . S
C308 C307 1.371 . S
C308 H317 0.931 . S
C309 C305 1.328 . S
C309 C310 1.433 . S
C309 H318 0.931 . S
C310 C306 1.323 . S
C310 C309 1.433 . S
C310 H319 0.933 . S
C311 Dy281 2.738 . S
C311 O291 1.255 . S
C311 O292 1.249 . S
C311 C305 1.516 . S
H312 C298 0.930 . S
H313 C299 0.931 . S
H314 C300 0.931 . S
H315 C301 0.933 . S
H316 C307 0.930 . S
H317 C308 0.931 . S
H318 C309 0.931 . S
H319 C310 0.933 . S
Dy320 O323 2.307 . S
Dy320 O325 2.395 . S
Dy320 O326 2.379 . S
Dy320 O328 2.339 . S
Dy320 O330 2.298 . S
Dy320 O334 2.275 . S
Dy320 C342 2.738 . S
Dy321 O324 2.298 . S
Dy321 O327 2.275 . S
Dy321 O329 2.307 . S
Dy321 O331 2.395 1_554 S
Dy321 O332 2.393 . S
Dy321 O335 2.339 . S
Dy321 C351 2.738 1_554 S
C322 O334 1.254 . S
C322 O335 1.257 . S
O323 Dy320 2.307 . S
O323 C333 1.266 . S
O324 Dy321 2.298 . S
O324 C333 1.236 . S
O325 Dy320 2.395 . S
O325 C342 1.255 . S
O326 Dy320 2.379 . S
O326 C342 1.249 . S
O327 Dy321 2.275 . S
O327 C343 1.254 . S
O328 Dy320 2.339 . S
O328 C343 1.257 . S
O329 Dy321 2.307 . S
O329 C344 1.266 . S
O330 Dy320 2.298 . S
O330 C344 1.236 . S
O331 Dy321 2.395 1_556 S
O331 C351 1.255 . S
O332 Dy321 2.393 . S
O332 C351 1.241 1_554 S
C333 O323 1.266 . S
C333 O324 1.236 . S
O334 Dy320 2.275 . S
O334 C322 1.254 . S
O335 Dy321 2.339 . S
O335 C322 1.257 . S
C336 C339 1.344 . S
C336 C340 1.328 . S
C336 C342 1.516 . S
C337 C338 1.304 . S
C337 C341 1.323 . S
C338 C337 1.304 . S
C338 C339 1.371 . S
C338 H352 0.930 . S
C339 C336 1.344 . S
C339 C338 1.371 . S
C339 H353 0.931 . S
C340 C336 1.328 . S
C340 C341 1.433 . S
C340 H354 0.931 . S
C341 C337 1.323 . S
C341 C340 1.433 . S
C341 H355 0.933 . S
C342 Dy320 2.738 . S
C342 O325 1.255 . S
C342 O326 1.249 . S
C342 C336 1.516 . S
C343 O327 1.254 . S
C343 O328 1.257 . S
C344 O329 1.266 . S
C344 O330 1.236 . S
C345 C348 1.344 . S
C345 C349 1.328 . S
C345 C351 1.516 . S
C346 C347 1.304 . S
C346 C350 1.323 . S
C347 C346 1.304 . S
C347 C348 1.371 . S
C347 H356 0.930 . S
C348 C345 1.344 . S
C348 C347 1.371 . S
C348 H357 0.931 . S
C349 C345 1.328 . S
C349 C350 1.433 . S
C349 H358 0.931 . S
C350 C346 1.323 . S
C350 C349 1.433 . S
C350 H359 0.933 . S
C351 Dy321 2.738 1_556 S
C351 O331 1.255 . S
C351 O332 1.241 1_556 S
C351 C345 1.516 . S
H352 C338 0.930 . S
H353 C339 0.931 . S
H354 C340 0.931 . S
H355 C341 0.933 . S
H356 C347 0.930 . S
H357 C348 0.931 . S
H358 C349 0.931 . S
H359 C350 0.933 . S
Dy360 O363 2.307 . S
Dy360 O365 2.395 . S
Dy360 O366 2.379 . S
Dy360 O368 2.339 . S
Dy360 O370 2.298 . S
Dy360 O374 2.275 . S
Dy360 C382 2.738 . S
Dy361 O364 2.298 . S
Dy361 O367 2.275 . S
Dy361 O369 2.307 . S
Dy361 O371 2.395 . S
Dy361 O372 2.379 . S
Dy361 O375 2.339 . S
Dy361 C391 2.738 . S
C362 O374 1.254 . S
C362 O375 1.257 . S
O363 Dy360 2.307 . S
O363 C373 1.266 . S
O364 Dy361 2.298 . S
O364 C373 1.236 . S
O365 Dy360 2.395 . S
O365 C382 1.255 . S
O366 Dy360 2.379 . S
O366 C382 1.249 . S
O367 Dy361 2.275 . S
O367 C383 1.254 . S
O368 Dy360 2.339 . S
O368 C383 1.257 . S
O369 Dy361 2.307 . S
O369 C384 1.266 . S
O370 Dy360 2.298 . S
O370 C384 1.236 . S
O371 Dy361 2.395 . S
O371 C391 1.255 . S
O372 Dy361 2.379 . S
O372 C391 1.249 . S
C373 O363 1.266 . S
C373 O364 1.236 . S
O374 Dy360 2.275 . S
O374 C362 1.254 . S
O375 Dy361 2.339 . S
O375 C362 1.257 . S
C376 C379 1.344 . S
C376 C380 1.328 . S
C376 C382 1.516 . S
C377 C378 1.304 . S
C377 C381 1.323 . S
C378 C377 1.304 . S
C378 C379 1.371 . S
C378 H392 0.930 . S
C379 C376 1.344 . S
C379 C378 1.371 . S
C379 H393 0.931 . S
C380 C376 1.328 . S
C380 C381 1.433 . S
C380 H394 0.931 . S
C381 C377 1.323 . S
C381 C380 1.433 . S
C381 H395 0.933 . S
C382 Dy360 2.738 . S
C382 O365 1.255 . S
C382 O366 1.249 . S
C382 C376 1.516 . S
C383 O367 1.254 . S
C383 O368 1.257 . S
C384 O369 1.266 . S
C384 O370 1.236 . S
C385 C388 1.344 . S
C385 C389 1.328 . S
C385 C391 1.516 . S
C386 C387 1.304 . S
C386 C390 1.323 . S
C387 C386 1.304 . S
C387 C388 1.371 . S
C387 H396 0.930 . S
C388 C385 1.344 . S
C388 C387 1.371 . S
C388 H397 0.931 . S
C389 C385 1.328 . S
C389 C390 1.433 . S
C389 H398 0.931 . S
C390 C386 1.323 . S
C390 C389 1.433 . S
C390 H399 0.933 . S
C391 Dy361 2.738 . S
C391 O371 1.255 . S
C391 O372 1.249 . S
C391 C385 1.516 . S
H392 C378 0.930 . S
H393 C379 0.931 . S
H394 C380 0.931 . S
H395 C381 0.933 . S
H396 C387 0.930 . S
H397 C388 0.931 . S
H398 C389 0.931 . S
H399 C390 0.933 . S
Dy400 O403 2.307 . S
Dy400 O405 2.395 . S
Dy400 O406 2.379 . S
Dy400 O408 2.339 . S
Dy400 O410 2.298 . S
Dy400 O414 2.275 . S
Dy400 C422 2.738 . S
Dy401 O404 2.298 . S
Dy401 O407 2.275 . S
Dy401 O409 2.307 . S
Dy401 O411 2.395 . S
Dy401 O412 2.379 . S
Dy401 O415 2.339 . S
Dy401 C431 2.738 . S
C402 O414 1.254 . S
C402 O415 1.257 . S
O403 Dy400 2.307 . S
O403 C413 1.266 . S
O404 Dy401 2.298 . S
O404 C413 1.236 . S
O405 Dy400 2.395 . S
O405 C422 1.255 . S
O406 Dy400 2.379 . S
O406 C422 1.249 . S
O407 Dy401 2.275 . S
O407 C423 1.254 . S
O408 Dy400 2.339 . S
O408 C423 1.257 . S
O409 Dy401 2.307 . S
O409 C424 1.266 . S
O410 Dy400 2.298 . S
O410 C424 1.236 . S
O411 Dy401 2.395 . S
O411 C431 1.255 . S
O412 Dy401 2.379 . S
O412 C431 1.249 . S
C413 O403 1.266 . S
C413 O404 1.236 . S
O414 Dy400 2.275 . S
O414 C402 1.254 . S
O415 Dy401 2.339 . S
O415 C402 1.257 . S
C416 C419 1.344 . S
C416 C420 1.328 . S
C416 C422 1.516 . S
C417 C418 1.304 . S
C417 C421 1.323 . S
C418 C417 1.304 . S
C418 C419 1.371 . S
C418 H432 0.930 . S
C419 C416 1.344 . S
C419 C418 1.371 . S
C419 H433 0.931 . S
C420 C416 1.328 . S
C420 C421 1.433 . S
C420 H434 0.931 . S
C421 C417 1.323 . S
C421 C420 1.433 . S
C421 H435 0.933 . S
C422 Dy400 2.738 . S
C422 O405 1.255 . S
C422 O406 1.249 . S
C422 C416 1.516 . S
C423 O407 1.254 . S
C423 O408 1.257 . S
C424 O409 1.266 . S
C424 O410 1.236 . S
C425 C428 1.344 . S
C425 C429 1.328 . S
C425 C431 1.516 . S
C426 C427 1.304 . S
C426 C430 1.323 . S
C427 C426 1.304 . S
C427 C428 1.371 . S
C427 H436 0.930 . S
C428 C425 1.344 . S
C428 C427 1.371 . S
C428 H437 0.931 . S
C429 C425 1.328 . S
C429 C430 1.433 . S
C429 H438 0.931 . S
C430 C426 1.323 . S
C430 C429 1.433 . S
C430 H439 0.933 . S
C431 Dy401 2.738 . S
C431 O411 1.255 . S
C431 O412 1.249 . S
C431 C425 1.516 . S
H432 C418 0.930 . S
H433 C419 0.931 . S
H434 C420 0.931 . S
H435 C421 0.933 . S
H436 C427 0.930 . S
H437 C428 0.931 . S
H438 C429 0.931 . S
H439 C430 0.933 . S
Dy440 O443 2.307 . S
Dy440 O445 2.395 . S
Dy440 O446 2.379 . S
Dy440 O448 2.339 . S
Dy440 O450 2.298 . S
Dy440 O454 2.275 . S
Dy440 C462 2.738 . S
Dy441 O444 2.298 . S
Dy441 O447 2.275 . S
Dy441 O449 2.307 . S
Dy441 O451 2.395 1_554 S
Dy441 O452 2.393 . S
Dy441 O455 2.339 . S
Dy441 C471 2.738 1_554 S
C442 O454 1.254 . S
C442 O455 1.257 . S
O443 Dy440 2.307 . S
O443 C453 1.266 . S
O444 Dy441 2.298 . S
O444 C453 1.236 . S
O445 Dy440 2.395 . S
O445 C462 1.255 . S
O446 Dy440 2.379 . S
O446 C462 1.249 . S
O447 Dy441 2.275 . S
O447 C463 1.254 . S
O448 Dy440 2.339 . S
O448 C463 1.257 . S
O449 Dy441 2.307 . S
O449 C464 1.266 . S
O450 Dy440 2.298 . S
O450 C464 1.236 . S
O451 Dy441 2.395 1_556 S
O451 C471 1.255 . S
O452 Dy441 2.393 . S
O452 C471 1.241 1_554 S
C453 O443 1.266 . S
C453 O444 1.236 . S
O454 Dy440 2.275 . S
O454 C442 1.254 . S
O455 Dy441 2.339 . S
O455 C442 1.257 . S
C456 C459 1.344 . S
C456 C460 1.328 . S
C456 C462 1.516 . S
C457 C458 1.304 . S
C457 C461 1.323 . S
C458 C457 1.304 . S
C458 C459 1.371 . S
C458 H472 0.930 . S
C459 C456 1.344 . S
C459 C458 1.371 . S
C459 H473 0.931 . S
C460 C456 1.328 . S
C460 C461 1.433 . S
C460 H474 0.931 . S
C461 C457 1.323 . S
C461 C460 1.433 . S
C461 H475 0.933 . S
C462 Dy440 2.738 . S
C462 O445 1.255 . S
C462 O446 1.249 . S
C462 C456 1.516 . S
C463 O447 1.254 . S
C463 O448 1.257 . S
C464 O449 1.266 . S
C464 O450 1.236 . S
C465 C468 1.344 . S
C465 C469 1.328 . S
C465 C471 1.516 . S
C466 C467 1.304 . S
C466 C470 1.323 . S
C467 C466 1.304 . S
C467 C468 1.371 . S
C467 H476 0.930 . S
C468 C465 1.344 . S
C468 C467 1.371 . S
C468 H477 0.931 . S
C469 C465 1.328 . S
C469 C470 1.433 . S
C469 H478 0.931 . S
C470 C466 1.323 . S
C470 C469 1.433 . S
C470 H479 0.933 . S
C471 Dy441 2.738 1_556 S
C471 O451 1.255 . S
C471 O452 1.241 1_556 S
C471 C465 1.516 . S
H472 C458 0.930 . S
H473 C459 0.931 . S
H474 C460 0.931 . S
H475 C461 0.933 . S
H476 C467 0.930 . S
H477 C468 0.931 . S
H478 C469 0.931 . S
H479 C470 0.933 . S
H480 C486 0.930 . S
H481 C489 0.930 . S
H482 C490 0.930 . S
H483 C491 0.930 . S
H484 C494 0.930 . S
H485 C495 0.930 . S
C486 H480 0.930 . S
C486 C487 1.355 . S
C486 C488 1.415 . S
C487 C486 1.355 . S
C487 C489 1.419 . S
C488 C486 1.415 . S
C488 C493 1.425 . S
C488 C495 1.409 . S
C489 H481 0.930 . S
C489 C487 1.419 . S
C489 C490 1.362 . S
C490 H482 0.930 . S
C490 C489 1.362 . S
C490 C493 1.409 . S
C491 H483 0.930 . S
C491 C492 1.355 . S
C491 C493 1.415 . S
C492 C491 1.355 . S
C492 C494 1.419 . S
C493 C488 1.425 . S
C493 C490 1.409 . S
C493 C491 1.415 . S
C494 H484 0.930 . S
C494 C492 1.419 . S
C494 C495 1.362 . S
C495 H485 0.930 . S
C495 C488 1.409 . S
C495 C494 1.362 . S
H496 C502 0.930 . S
H497 C505 0.930 . S
H498 C506 0.930 . S
H499 C507 0.930 . S
H500 C510 0.930 . S
H501 C511 0.930 . S
C502 H496 0.930 . S
C502 C503 1.355 . S
C502 C504 1.415 . S
C503 C502 1.355 . S
C503 C505 1.419 . S
C504 C502 1.415 . S
C504 C509 1.425 . S
C504 C511 1.409 . S
C505 H497 0.930 . S
C505 C503 1.419 . S
C505 C506 1.362 . S
C506 H498 0.930 . S
C506 C505 1.362 . S
C506 C509 1.409 . S
C507 H499 0.930 . S
C507 C508 1.355 . S
C507 C509 1.415 . S
C508 C507 1.355 . S
C508 C510 1.419 . S
C509 C504 1.425 . S
C509 C506 1.409 . S
C509 C507 1.415 . S
C510 H500 0.930 . S
C510 C508 1.419 . S
C510 C511 1.362 . S
C511 H501 0.930 . S
C511 C504 1.409 . S
C511 C510 1.362 . S
H512 C518 0.930 . S
H513 C521 0.930 . S
H514 C522 0.930 . S
H515 C523 0.930 . S
H516 C526 0.930 . S
H517 C527 0.930 . S
C518 H512 0.930 . S
C518 C519 1.355 . S
C518 C520 1.415 . S
C519 C518 1.355 . S
C519 C521 1.419 . S
C520 C518 1.415 . S
C520 C525 1.425 . S
C520 C527 1.409 . S
C521 H513 0.930 . S
C521 C519 1.419 . S
C521 C522 1.362 . S
C522 H514 0.930 . S
C522 C521 1.362 . S
C522 C525 1.409 . S
C523 H515 0.930 . S
C523 C524 1.355 . S
C523 C525 1.415 . S
C524 C523 1.355 . S
C524 C526 1.419 . S
C525 C520 1.425 . S
C525 C522 1.409 . S
C525 C523 1.415 . S
C526 H516 0.930 . S
C526 C524 1.419 . S
C526 C527 1.362 . S
C527 H517 0.930 . S
C527 C520 1.409 . S
C527 C526 1.362 . S
H528 C534 0.930 . S
H529 C537 0.930 . S
H530 C538 0.930 . S
H531 C539 0.930 . S
H532 C542 0.930 . S
H533 C543 0.930 . S
C534 H528 0.930 . S
C534 C535 1.355 . S
C534 C536 1.415 . S
C535 C534 1.355 . S
C535 C537 1.419 . S
C536 C534 1.415 . S
C536 C541 1.425 . S
C536 C543 1.409 . S
C537 H529 0.930 . S
C537 C535 1.419 . S
C537 C538 1.362 . S
C538 H530 0.930 . S
C538 C537 1.362 . S
C538 C541 1.409 . S
C539 H531 0.930 . S
C539 C540 1.355 . S
C539 C541 1.415 . S
C540 C539 1.355 . S
C540 C542 1.419 . S
C541 C536 1.425 . S
C541 C538 1.409 . S
C541 C539 1.415 . S
C542 H532 0.930 . S
C542 C540 1.419 . S
C542 C543 1.362 . S
C543 H533 0.930 . S
C543 C536 1.409 . S
C543 C542 1.362 . S
H544 C550 0.930 . S
H545 C553 0.930 . S
H546 C554 0.930 . S
H547 C555 0.930 . S
H548 C558 0.930 . S
H549 C559 0.930 . S
C550 H544 0.930 . S
C550 C551 1.355 . S
C550 C552 1.415 . S
C551 C550 1.355 . S
C551 C553 1.419 . S
C552 C550 1.415 . S
C552 C557 1.425 . S
C552 C559 1.409 . S
C553 H545 0.930 . S
C553 C551 1.419 . S
C553 C554 1.362 . S
C554 H546 0.930 . S
C554 C553 1.362 . S
C554 C557 1.409 . S
C555 H547 0.930 . S
C555 C556 1.355 . S
C555 C557 1.415 . S
C556 C555 1.355 . S
C556 C558 1.419 . S
C557 C552 1.425 . S
C557 C554 1.409 . S
C557 C555 1.415 . S
C558 H548 0.930 . S
C558 C556 1.419 . S
C558 C559 1.362 . S
C559 H549 0.930 . S
C559 C552 1.409 . S
C559 C558 1.362 . S
H560 C566 0.930 . S
H561 C569 0.930 . S
H562 C570 0.930 . S
H563 C571 0.930 . S
H564 C574 0.930 . S
H565 C575 0.930 . S
C566 H560 0.930 . S
C566 C567 1.355 . S
C566 C568 1.415 . S
C567 C566 1.355 . S
C567 C569 1.419 . S
C568 C566 1.415 . S
C568 C573 1.425 . S
C568 C575 1.409 . S
C569 H561 0.930 . S
C569 C567 1.419 . S
C569 C570 1.362 . S
C570 H562 0.930 . S
C570 C569 1.362 . S
C570 C573 1.409 . S
C571 H563 0.930 . S
C571 C572 1.355 . S
C571 C573 1.415 . S
C572 C571 1.355 . S
C572 C574 1.419 . S
C573 C568 1.425 . S
C573 C570 1.409 . S
C573 C571 1.415 . S
C574 H564 0.930 . S
C574 C572 1.419 . S
C574 C575 1.362 . S
C575 H565 0.930 . S
C575 C568 1.409 . S
C575 C574 1.362 . S
H576 C582 0.930 1_554 S
H577 C585 0.930 . S
H578 C586 0.930 . S
H579 C587 0.930 1_556 S
H580 C590 0.930 . S
H581 C591 0.930 . S
C582 H576 0.930 1_556 S
C582 C583 1.355 . S
C582 C584 1.415 1_556 S
C583 C582 1.355 . S
C583 C585 1.419 . S
C584 C582 1.415 1_554 S
C584 C589 1.425 1_554 S
C584 C591 1.409 . S
C585 H577 0.930 . S
C585 C583 1.419 . S
C585 C586 1.362 . S
C586 H578 0.930 . S
C586 C585 1.362 . S
C586 C589 1.409 . S
C587 H579 0.930 1_554 S
C587 C588 1.355 . S
C587 C589 1.415 1_554 S
C588 C587 1.355 . S
C588 C590 1.419 . S
C589 C584 1.425 1_556 S
C589 C586 1.409 . S
C589 C587 1.415 1_556 S
C590 H580 0.930 . S
C590 C588 1.419 . S
C590 C591 1.362 . S
C591 H581 0.930 . S
C591 C584 1.409 . S
C591 C590 1.362 . S
H592 C598 0.930 . S
H593 C601 0.930 . S
H594 C602 0.930 . S
H595 C603 0.930 . S
H596 C606 0.930 . S
H597 C607 0.930 . S
C598 H592 0.930 . S
C598 C599 1.355 . S
C598 C600 1.415 . S
C599 C598 1.355 . S
C599 C601 1.419 . S
C600 C598 1.415 . S
C600 C605 1.425 . S
C600 C607 1.409 . S
C601 H593 0.930 . S
C601 C599 1.419 . S
C601 C602 1.362 . S
C602 H594 0.930 . S
C602 C601 1.362 . S
C602 C605 1.409 . S
C603 H595 0.930 . S
C603 C604 1.355 . S
C603 C605 1.415 . S
C604 C603 1.355 . S
C604 C606 1.419 . S
C605 C600 1.425 . S
C605 C602 1.409 . S
C605 C603 1.415 . S
C606 H596 0.930 . S
C606 C604 1.419 . S
C606 C607 1.362 . S
C607 H597 0.930 . S
C607 C600 1.409 . S
C607 C606 1.362 . S
H608 C614 0.930 . S
H609 C617 0.930 . S
H610 C618 0.930 . S
H611 C619 0.930 . S
H612 C622 0.930 . S
H613 C623 0.930 . S
C614 H608 0.930 . S
C614 C615 1.355 . S
C614 C616 1.415 . S
C615 C614 1.355 . S
C615 C617 1.419 . S
C616 C614 1.415 . S
C616 C621 1.425 . S
C616 C623 1.409 . S
C617 H609 0.930 . S
C617 C615 1.419 . S
C617 C618 1.362 . S
C618 H610 0.930 . S
C618 C617 1.362 . S
C618 C621 1.409 . S
C619 H611 0.930 . S
C619 C620 1.355 . S
C619 C621 1.415 . S
C620 C619 1.355 . S
C620 C622 1.419 . S
C621 C616 1.425 . S
C621 C618 1.409 . S
C621 C619 1.415 . S
C622 H612 0.930 . S
C622 C620 1.419 . S
C622 C623 1.362 . S
C623 H613 0.930 . S
C623 C616 1.409 . S
C623 C622 1.362 . S
H624 C630 0.930 . S
H625 C633 0.930 . S
H626 C634 0.930 . S
H627 C635 0.930 . S
H628 C638 0.930 . S
H629 C639 0.930 . S
C630 H624 0.930 . S
C630 C631 1.355 . S
C630 C632 1.415 . S
C631 C630 1.355 . S
C631 C633 1.419 1_556 S
C632 C630 1.415 . S
C632 C637 1.425 1_556 S
C632 C639 1.409 . S
C633 H625 0.930 . S
C633 C631 1.419 1_554 S
C633 C634 1.362 . S
C634 H626 0.930 . S
C634 C633 1.362 . S
C634 C637 1.409 . S
C635 H627 0.930 . S
C635 C636 1.355 . S
C635 C637 1.415 . S
C636 C635 1.355 . S
C636 C638 1.419 1_554 S
C637 C632 1.425 1_554 S
C637 C634 1.409 . S
C637 C635 1.415 . S
C638 H628 0.930 . S
C638 C636 1.419 1_556 S
C638 C639 1.362 . S
C639 H629 0.930 . S
C639 C632 1.409 . S
C639 C638 1.362 . S
H640 C646 0.930 . S
H641 C649 0.930 . S
H642 C650 0.930 . S
H643 C651 0.930 . S
H644 C654 0.930 . S
H645 C655 0.930 . S
C646 H640 0.930 . S
C646 C647 1.355 . S
C646 C648 1.415 . S
C647 C646 1.355 . S
C647 C649 1.419 . S
C648 C646 1.415 . S
C648 C653 1.425 . S
C648 C655 1.409 . S
C649 H641 0.930 . S
C649 C647 1.419 . S
C649 C650 1.362 . S
C650 H642 0.930 . S
C650 C649 1.362 . S
C650 C653 1.409 . S
C651 H643 0.930 . S
C651 C652 1.355 . S
C651 C653 1.415 . S
C652 C651 1.355 . S
C652 C654 1.419 . S
C653 C648 1.425 . S
C653 C650 1.409 . S
C653 C651 1.415 . S
C654 H644 0.930 . S
C654 C652 1.419 . S
C654 C655 1.362 . S
C655 H645 0.930 . S
C655 C648 1.409 . S
C655 C654 1.362 . S
H656 C662 0.930 . S
H657 C665 0.930 . S
H658 C666 0.930 . S
H659 C667 0.930 . S
H660 C670 0.930 . S
H661 C671 0.930 . S
C662 H656 0.930 . S
C662 C663 1.355 . S
C662 C664 1.415 . S
C663 C662 1.355 . S
C663 C665 1.419 . S
C664 C662 1.415 . S
C664 C669 1.425 . S
C664 C671 1.409 . S
C665 H657 0.930 . S
C665 C663 1.419 . S
C665 C666 1.362 . S
C666 H658 0.930 . S
C666 C665 1.362 . S
C666 C669 1.409 . S
C667 H659 0.930 . S
C667 C668 1.355 . S
C667 C669 1.415 . S
C668 C667 1.355 . S
C668 C670 1.419 . S
C669 C664 1.425 . S
C669 C666 1.409 . S
C669 C667 1.415 . S
C670 H660 0.930 . S
C670 C668 1.419 . S
C670 C671 1.362 . S
C671 H661 0.930 . S
C671 C664 1.409 . S
C671 C670 1.362 . S
H672 C678 0.930 . S
H673 C681 0.930 . S
H674 C682 0.930 . S
H675 C683 0.930 . S
H676 C686 0.930 . S
H677 C687 0.930 . S
C678 H672 0.930 . S
C678 C679 1.355 . S
C678 C680 1.408 1_556 S
C679 C678 1.355 . S
C679 C681 1.419 . S
C680 C678 1.408 1_554 S
C680 C685 1.425 1_564 S
C680 C687 1.416 . S
C681 H673 0.930 . S
C681 C679 1.419 . S
C681 C682 1.362 1_565 S
C682 H674 0.930 . S
C682 C681 1.362 1_545 S
C682 C685 1.416 . S
C683 H675 0.930 . S
C683 C684 1.355 . S
C683 C685 1.407 1_554 S
C684 C683 1.355 . S
C684 C686 1.419 . S
C685 C680 1.425 1_546 S
C685 C682 1.416 . S
C685 C683 1.407 1_556 S
C686 H676 0.930 . S
C686 C684 1.419 . S
C686 C687 1.362 1_545 S
C687 H677 0.930 . S
C687 C680 1.416 . S
C687 C686 1.362 1_565 S
H688 C694 0.930 . S
H689 C697 0.930 . S
H690 C698 0.930 . S
H691 C699 0.930 . S
H692 C702 0.930 . S
H693 C703 0.930 . S
C694 H688 0.930 . S
C694 C695 1.355 . S
C694 C696 1.415 . S
C695 C694 1.355 . S
C695 C697 1.419 . S
C696 C694 1.415 . S
C696 C701 1.425 . S
C696 C703 1.409 . S
C697 H689 0.930 . S
C697 C695 1.419 . S
C697 C698 1.362 . S
C698 H690 0.930 . S
C698 C697 1.362 . S
C698 C701 1.409 . S
C699 H691 0.930 . S
C699 C700 1.355 . S
C699 C701 1.415 . S
C700 C699 1.355 . S
C700 C702 1.419 . S
C701 C696 1.425 . S
C701 C698 1.409 . S
C701 C699 1.415 . S
C702 H692 0.930 . S
C702 C700 1.419 . S
C702 C703 1.362 . S
C703 H693 0.930 . S
C703 C696 1.409 . S
C703 C702 1.362 . S
H704 C710 0.930 . S
H705 C713 0.930 . S
H706 C714 0.930 . S
H707 C715 0.930 . S
H708 C718 0.930 . S
H709 C719 0.930 . S
C710 H704 0.930 . S
C710 C711 1.355 . S
C710 C712 1.415 1_455 S
C711 C710 1.355 . S
C711 C713 1.419 . S
C712 C710 1.415 1_655 S
C712 C717 1.425 1_655 S
C712 C719 1.409 . S
C713 H705 0.930 . S
C713 C711 1.419 . S
C713 C714 1.362 . S
C714 H706 0.930 . S
C714 C713 1.362 . S
C714 C717 1.409 . S
C715 H707 0.930 . S
C715 C716 1.355 . S
C715 C717 1.415 1_655 S
C716 C715 1.355 . S
C716 C718 1.419 . S
C717 C712 1.425 1_455 S
C717 C714 1.409 . S
C717 C715 1.415 1_455 S
C718 H708 0.930 . S
C718 C716 1.419 . S
C718 C719 1.362 . S
C719 H709 0.930 . S
C719 C712 1.409 . S
C719 C718 1.362 . S
H720 C726 0.930 . S
H721 C729 0.930 . S
H722 C730 0.936 . S
H723 C731 0.930 . S
H724 C734 0.930 . S
H725 C735 0.936 . S
C726 H720 0.930 . S
C726 C727 1.355 . S
C726 C728 1.415 1_565 S
C727 C726 1.355 . S
C727 C729 1.419 . S
C728 C726 1.415 1_545 S
C728 C733 1.425 1_544 S
C728 C735 1.409 1_554 S
C729 H721 0.930 . S
C729 C727 1.419 . S
C729 C730 1.362 . S
C730 H722 0.936 . S
C730 C729 1.362 . S
C730 C733 1.409 1_554 S
C731 H723 0.930 . S
C731 C732 1.355 . S
C731 C733 1.415 1_545 S
C732 C731 1.355 . S
C732 C734 1.419 . S
C733 C728 1.425 1_566 S
C733 C730 1.409 1_556 S
C733 C731 1.415 1_565 S
C734 H724 0.930 . S
C734 C732 1.419 . S
C734 C735 1.362 . S
C735 H725 0.936 . S
C735 C728 1.409 1_556 S
C735 C734 1.362 . S
H736 C742 0.930 . S
H737 C745 0.930 . S
H738 C746 0.930 . S
H739 C747 0.930 . S
H740 C750 0.930 . S
H741 C751 0.930 . S
C742 H736 0.930 . S
C742 C743 1.355 . S
C742 C744 1.415 . S
C743 C742 1.355 . S
C743 C745 1.419 . S
C744 C742 1.415 . S
C744 C749 1.425 . S
C744 C751 1.409 . S
C745 H737 0.930 . S
C745 C743 1.419 . S
C745 C746 1.362 . S
C746 H738 0.930 . S
C746 C745 1.362 . S
C746 C749 1.409 . S
C747 H739 0.930 . S
C747 C748 1.355 . S
C747 C749 1.415 . S
C748 C747 1.355 . S
C748 C750 1.419 . S
C749 C744 1.425 . S
C749 C746 1.409 . S
C749 C747 1.415 . S
C750 H740 0.930 . S
C750 C748 1.419 . S
C750 C751 1.362 . S
C751 H741 0.930 . S
C751 C744 1.409 . S
C751 C750 1.362 . S
H752 C758 0.930 . S
H753 C761 0.930 . S
H754 C762 0.930 1_655 S
H755 C763 0.930 . S
H756 C766 0.930 . S
H757 C767 0.930 1_455 S
C758 H752 0.930 . S
C758 C759 1.355 . S
C758 C760 1.415 . S
C759 C758 1.355 . S
C759 C761 1.419 . S
C760 C758 1.415 . S
C760 C765 1.425 1_455 S
C760 C767 1.409 1_455 S
C761 H753 0.930 . S
C761 C759 1.419 . S
C761 C762 1.362 . S
C762 H754 0.930 1_455 S
C762 C761 1.362 . S
C762 C765 1.409 1_455 S
C763 H755 0.930 . S
C763 C764 1.355 . S
C763 C765 1.415 . S
C764 C763 1.355 . S
C764 C766 1.419 . S
C765 C760 1.425 1_655 S
C765 C762 1.409 1_655 S
C765 C763 1.415 . S
C766 H756 0.930 . S
C766 C764 1.419 . S
C766 C767 1.362 . S
C767 H757 0.930 1_655 S
C767 C760 1.409 1_655 S
C767 C766 1.362 . S
H768 C774 0.930 . S
H769 C777 0.930 . S
H770 C778 0.930 . S
H771 C779 0.930 . S
H772 C782 0.930 . S
H773 C783 0.930 . S
C774 H768 0.930 . S
C774 C775 1.355 . S
C774 C776 1.415 . S
C775 C774 1.355 . S
C775 C777 1.419 . S
C776 C774 1.415 . S
C776 C781 1.425 1_545 S
C776 C783 1.409 . S
C777 H769 0.930 . S
C777 C775 1.419 . S
C777 C778 1.362 1_545 S
C778 H770 0.930 . S
C778 C777 1.362 1_565 S
C778 C781 1.409 . S
C779 H771 0.930 . S
C779 C780 1.355 . S
C779 C781 1.415 . S
C780 C779 1.355 . S
C780 C782 1.419 . S
C781 C776 1.425 1_565 S
C781 C778 1.409 . S
C781 C779 1.415 . S
C782 H772 0.930 . S
C782 C780 1.419 . S
C782 C783 1.362 1_565 S
C783 H773 0.930 . S
C783 C776 1.409 . S
C783 C782 1.362 1_545 S
H784 C790 0.930 . S
H785 C793 0.930 . S
H786 C794 0.930 . S
H787 C795 0.930 . S
H788 C798 0.930 . S
H789 C799 0.930 . S
C790 H784 0.930 . S
C790 C791 1.355 . S
C790 C792 1.415 . S
C791 C790 1.355 . S
C791 C793 1.419 . S
C792 C790 1.415 . S
C792 C797 1.425 . S
C792 C799 1.409 . S
C793 H785 0.930 . S
C793 C791 1.419 . S
C793 C794 1.362 . S
C794 H786 0.930 . S
C794 C793 1.362 . S
C794 C797 1.409 . S
C795 H787 0.930 . S
C795 C796 1.355 . S
C795 C797 1.415 . S
C796 C795 1.355 . S
C796 C798 1.419 . S
C797 C792 1.425 . S
C797 C794 1.409 . S
C797 C795 1.415 . S
C798 H788 0.930 . S
C798 C796 1.419 . S
C798 C799 1.362 . S
C799 H789 0.930 . S
C799 C792 1.409 . S
C799 C798 1.362 . S
H800 C806 0.930 . S
H801 C809 0.930 . S
H802 C810 0.930 . S
H803 C811 0.930 . S
H804 C814 0.930 . S
H805 C815 0.930 1_554 S
C806 H800 0.930 . S
C806 C807 1.355 . S
C806 C808 1.415 . S
C807 C806 1.355 . S
C807 C809 1.419 . S
C808 C806 1.415 . S
C808 C813 1.425 1_655 S
C808 C815 1.409 1_655 S
C809 H801 0.930 . S
C809 C807 1.419 . S
C809 C810 1.362 . S
C810 H802 0.930 . S
C810 C809 1.362 . S
C810 C813 1.409 1_655 S
C811 H803 0.930 . S
C811 C812 1.355 . S
C811 C813 1.415 . S
C812 C811 1.355 . S
C812 C814 1.419 . S
C813 C808 1.425 1_455 S
C813 C810 1.409 1_455 S
C813 C811 1.415 . S
C814 H804 0.930 . S
C814 C812 1.419 . S
C814 C815 1.362 . S
C815 H805 0.930 1_556 S
C815 C808 1.409 1_455 S
C815 C814 1.362 . S
H816 C822 0.930 . S
H817 C825 0.930 . S
H818 C826 0.930 . S
H819 C827 0.930 . S
H820 C830 0.930 . S
H821 C831 0.930 . S
C822 H816 0.930 . S
C822 C823 1.355 . S
C822 C824 1.415 . S
C823 C822 1.355 . S
C823 C825 1.419 . S
C824 C822 1.415 . S
C824 C829 1.425 1_455 S
C824 C831 1.409 . S
C825 H817 0.930 . S
C825 C823 1.419 . S
C825 C826 1.362 1_455 S
C826 H818 0.930 . S
C826 C825 1.362 1_655 S
C826 C829 1.409 . S
C827 H819 0.930 . S
C827 C828 1.355 . S
C827 C829 1.415 . S
C828 C827 1.355 . S
C828 C830 1.419 . S
C829 C824 1.425 1_655 S
C829 C826 1.409 . S
C829 C827 1.415 . S
C830 H820 0.930 . S
C830 C828 1.419 . S
C830 C831 1.362 1_655 S
C831 H821 0.930 . S
C831 C824 1.409 . S
C831 C830 1.362 1_455 S
H832 C838 0.930 . S
H833 C841 0.930 . S
H834 C842 0.936 . S
H835 C843 0.930 . S
H836 C846 0.930 . S
H837 C847 0.936 . S
C838 H832 0.930 . S
C838 C839 1.355 . S
C838 C840 1.415 . S
C839 C838 1.355 . S
C839 C841 1.419 . S
C840 C838 1.415 . S
C840 C845 1.425 1_565 S
C840 C847 1.409 1_565 S
C841 H833 0.930 . S
C841 C839 1.419 . S
C841 C842 1.362 . S
C842 H834 0.936 . S
C842 C841 1.362 . S
C842 C845 1.409 1_565 S
C843 H835 0.930 . S
C843 C844 1.355 . S
C843 C845 1.415 . S
C844 C843 1.355 . S
C844 C846 1.419 . S
C845 C840 1.425 1_545 S
C845 C842 1.409 1_545 S
C845 C843 1.415 . S
C846 H836 0.930 . S
C846 C844 1.419 . S
C846 C847 1.362 . S
C847 H837 0.936 . S
C847 C840 1.409 1_545 S
C847 C846 1.362 . S
H848 C854 0.930 . S
H849 C857 0.930 . S
H850 C858 0.930 . S
H851 C859 0.930 . S
H852 C862 0.930 . S
H853 C863 0.930 . S
C854 H848 0.930 . S
C854 C855 1.355 . S
C854 C856 1.415 . S
C855 C854 1.355 . S
C855 C857 1.419 . S
C856 C854 1.415 . S
C856 C861 1.425 . S
C856 C863 1.409 . S
C857 H849 0.930 . S
C857 C855 1.419 . S
C857 C858 1.362 . S
C858 H850 0.930 . S
C858 C857 1.362 . S
C858 C861 1.409 . S
C859 H851 0.930 . S
C859 C860 1.355 . S
C859 C861 1.415 . S
C860 C859 1.355 . S
C860 C862 1.419 . S
C861 C856 1.425 . S
C861 C858 1.409 . S
C861 C859 1.415 . S
C862 H852 0.930 . S
C862 C860 1.419 . S
C862 C863 1.362 . S
C863 H853 0.930 . S
C863 C856 1.409 . S
C863 C862 1.362 . S
H864 C870 0.930 . S
H865 C873 0.930 . S
H866 C874 0.930 . S
H867 C875 0.930 . S
H868 C878 0.930 . S
H869 C879 0.930 . S
C870 H864 0.930 . S
C870 C871 1.355 . S
C870 C872 1.415 . S
C871 C870 1.355 . S
C871 C873 1.419 . S
C872 C870 1.415 . S
C872 C877 1.425 1_565 S
C872 C879 1.409 1_565 S
C873 H865 0.930 . S
C873 C871 1.419 . S
C873 C874 1.362 . S
C874 H866 0.930 . S
C874 C873 1.362 . S
C874 C877 1.409 1_565 S
C875 H867 0.930 . S
C875 C876 1.355 . S
C875 C877 1.415 . S
C876 C875 1.355 . S
C876 C878 1.419 . S
C877 C872 1.425 1_545 S
C877 C874 1.409 1_545 S
C877 C875 1.415 . S
C878 H868 0.930 . S
C878 C876 1.419 . S
C878 C879 1.362 . S
C879 H869 0.930 . S
C879 C872 1.409 1_545 S
C879 C878 1.362 . S
H880 C886 0.930 . S
H881 C889 0.930 . S
H882 C890 0.930 . S
H883 C891 0.930 . S
H884 C894 0.930 . S
H885 C895 0.930 . S
C886 H880 0.930 . S
C886 C887 1.355 . S
C886 C888 1.415 . S
C887 C886 1.355 . S
C887 C889 1.419 . S
C888 C886 1.415 . S
C888 C893 1.425 . S
C888 C895 1.409 . S
C889 H881 0.930 . S
C889 C887 1.419 . S
C889 C890 1.362 . S
C890 H882 0.930 . S
C890 C889 1.362 . S
C890 C893 1.409 . S
C891 H883 0.930 . S
C891 C892 1.355 . S
C891 C893 1.415 . S
C892 C891 1.355 . S
C892 C894 1.419 . S
C893 C888 1.425 . S
C893 C890 1.409 . S
C893 C891 1.415 . S
C894 H884 0.930 . S
C894 C892 1.419 . S
C894 C895 1.362 . S
C895 H885 0.930 . S
C895 C888 1.409 . S
C895 C894 1.362 . S
H896 C902 0.930 . S
H897 C905 0.930 . S
H898 C906 0.930 1_455 S
H899 C907 0.930 . S
H900 C910 0.930 . S
H901 C911 0.930 1_655 S
C902 H896 0.930 . S
C902 C903 1.355 . S
C902 C904 1.415 . S
C903 C902 1.355 . S
C903 C905 1.419 . S
C904 C902 1.415 . S
C904 C909 1.425 1_655 S
C904 C911 1.409 1_655 S
C905 H897 0.930 . S
C905 C903 1.419 . S
C905 C906 1.362 . S
C906 H898 0.930 1_655 S
C906 C905 1.362 . S
C906 C909 1.409 1_655 S
C907 H899 0.930 . S
C907 C908 1.355 . S
C907 C909 1.415 . S
C908 C907 1.355 . S
C908 C910 1.419 . S
C909 C904 1.425 1_455 S
C909 C906 1.409 1_455 S
C909 C907 1.415 . S
C910 H900 0.930 . S
C910 C908 1.419 . S
C910 C911 1.362 . S
C911 H901 0.930 1_455 S
C911 C904 1.409 1_455 S
C911 C910 1.362 . S
H912 C918 0.930 . S
H913 C921 0.930 . S
H914 C922 0.930 1_565 S
H915 C923 0.930 . S
H916 C926 0.930 . S
H917 C927 0.930 1_545 S
C918 H912 0.930 . S
C918 C919 1.355 . S
C918 C920 1.415 . S
C919 C918 1.355 . S
C919 C921 1.419 . S
C920 C918 1.415 . S
C920 C925 1.425 1_545 S
C920 C927 1.409 1_545 S
C921 H913 0.930 . S
C921 C919 1.419 . S
C921 C922 1.362 . S
C922 H914 0.930 1_545 S
C922 C921 1.362 . S
C922 C925 1.409 1_545 S
C923 H915 0.930 . S
C923 C924 1.355 . S
C923 C925 1.415 . S
C924 C923 1.355 . S
C924 C926 1.419 . S
C925 C920 1.425 1_565 S
C925 C922 1.409 1_565 S
C925 C923 1.415 . S
C926 H916 0.930 . S
C926 C924 1.419 . S
C926 C927 1.362 . S
C927 H917 0.930 1_565 S
C927 C920 1.409 1_565 S
C927 C926 1.362 . S
H928 C934 0.930 . S
H929 C937 0.930 . S
H930 C938 0.930 . S
H931 C939 0.930 . S
H932 C942 0.930 . S
H933 C943 0.930 . S
C934 H928 0.930 . S
C934 C935 1.355 . S
C934 C936 1.415 . S
C935 C934 1.355 . S
C935 C937 1.419 . S
C936 C934 1.415 . S
C936 C941 1.425 . S
C936 C943 1.409 . S
C937 H929 0.930 . S
C937 C935 1.419 . S
C937 C938 1.362 . S
C938 H930 0.930 . S
C938 C937 1.362 . S
C938 C941 1.409 . S
C939 H931 0.930 . S
C939 C940 1.355 . S
C939 C941 1.415 . S
C940 C939 1.355 . S
C940 C942 1.419 . S
C941 C936 1.425 . S
C941 C938 1.409 . S
C941 C939 1.415 . S
C942 H932 0.930 . S
C942 C940 1.419 . S
C942 C943 1.362 . S
C943 H933 0.930 . S
C943 C936 1.409 . S
C943 C942 1.362 . S
H944 C950 0.930 . S
H945 C953 0.930 . S
H946 C954 0.930 . S
H947 C955 0.930 . S
H948 C958 0.930 . S
H949 C959 0.930 . S
C950 H944 0.930 . S
C950 C951 1.355 . S
C950 C952 1.421 . S
C951 C950 1.355 . S
C951 C953 1.419 . S
C952 C950 1.421 . S
C952 C957 1.430 1_455 S
C952 C959 1.400 1_455 S
C953 H945 0.930 . S
C953 C951 1.419 . S
C953 C954 1.362 . S
C954 H946 0.930 . S
C954 C953 1.362 . S
C954 C957 1.401 1_455 S
C955 H947 0.930 . S
C955 C956 1.355 . S
C955 C957 1.421 . S
C956 C955 1.355 . S
C956 C958 1.419 . S
C957 C952 1.430 1_655 S
C957 C954 1.401 1_655 S
C957 C955 1.421 . S
C958 H948 0.930 . S
C958 C956 1.419 . S
C958 C959 1.362 . S
C959 H949 0.930 . S
C959 C952 1.400 1_655 S
C959 C958 1.362 . S
H960 C966 0.930 . S
H961 C969 0.930 . S
H962 C970 0.930 . S
H963 C971 0.930 . S
H964 C974 0.930 . S
H965 C975 0.930 . S
C966 H960 0.930 . S
C966 C967 1.355 . S
C966 C968 1.415 . S
C967 C966 1.355 . S
C967 C969 1.419 . S
C968 C966 1.415 . S
C968 C973 1.425 . S
C968 C975 1.409 . S
C969 H961 0.930 . S
C969 C967 1.419 . S
C969 C970 1.362 . S
C970 H962 0.930 . S
C970 C969 1.362 . S
C970 C973 1.409 . S
C971 H963 0.930 . S
C971 C972 1.355 . S
C971 C973 1.415 . S
C972 C971 1.355 . S
C972 C974 1.419 . S
C973 C968 1.425 . S
C973 C970 1.409 . S
C973 C971 1.415 . S
C974 H964 0.930 . S
C974 C972 1.419 . S
C974 C975 1.362 . S
C975 H965 0.930 . S
C975 C968 1.409 . S
C975 C974 1.362 . S
H976 C982 0.930 . S
H977 C985 0.930 . S
H978 C986 0.930 . S
H979 C987 0.930 . S
H980 C990 0.930 . S
H981 C991 0.930 . S
C982 H976 0.930 . S
C982 C983 1.355 . S
C982 C984 1.415 . S
C983 C982 1.355 . S
C983 C985 1.419 . S
C984 C982 1.415 . S
C984 C989 1.425 . S
C984 C991 1.409 . S
C985 H977 0.930 . S
C985 C983 1.419 . S
C985 C986 1.362 . S
C986 H978 0.930 . S
C986 C985 1.362 . S
C986 C989 1.409 . S
C987 H979 0.930 . S
C987 C988 1.355 . S
C987 C989 1.415 . S
C988 C987 1.355 . S
C988 C990 1.419 . S
C989 C984 1.425 . S
C989 C986 1.409 . S
C989 C987 1.415 . S
C990 H980 0.930 . S
C990 C988 1.419 . S
C990 C991 1.362 . S
C991 H981 0.930 . S
C991 C984 1.409 . S
C991 C990 1.362 . S
H992 C998 0.930 . S
H993 C1001 0.930 . S
H994 C1002 0.930 . S
H995 C1003 0.930 . S
H996 C1006 0.930 . S
H997 C1007 0.930 . S
C998 H992 0.930 . S
C998 C999 1.355 . S
C998 C1000 1.415 . S
C999 C998 1.355 . S
C999 C1001 1.419 . S
C1000 C998 1.415 . S
C1000 C1005 1.425 . S
C1000 C1007 1.409 . S
C1001 H993 0.930 . S
C1001 C999 1.419 . S
C1001 C1002 1.362 . S
C1002 H994 0.930 . S
C1002 C1001 1.362 . S
C1002 C1005 1.409 . S
C1003 H995 0.930 . S
C1003 C1004 1.355 . S
C1003 C1005 1.415 . S
C1004 C1003 1.355 . S
C1004 C1006 1.419 . S
C1005 C1000 1.425 . S
C1005 C1002 1.409 . S
C1005 C1003 1.415 . S
C1006 H996 0.930 . S
C1006 C1004 1.419 . S
C1006 C1007 1.362 . S
C1007 H997 0.930 . S
C1007 C1000 1.409 . S
C1007 C1006 1.362 . S
H1008 C1014 0.930 . S
H1009 C1017 0.930 . S
H1010 C1018 0.930 . S
H1011 C1019 0.930 . S
H1012 C1022 0.930 . S
H1013 C1023 0.930 . S
C1014 H1008 0.930 . S
C1014 C1015 1.355 . S
C1014 C1016 1.415 . S
C1015 C1014 1.355 . S
C1015 C1017 1.419 . S
C1016 C1014 1.415 . S
C1016 C1021 1.425 . S
C1016 C1023 1.409 . S
C1017 H1009 0.930 . S
C1017 C1015 1.419 . S
C1017 C1018 1.362 . S
C1018 H1010 0.930 . S
C1018 C1017 1.362 . S
C1018 C1021 1.409 . S
C1019 H1011 0.930 . S
C1019 C1020 1.355 . S
C1019 C1021 1.415 . S
C1020 C1019 1.355 . S
C1020 C1022 1.419 . S
C1021 C1016 1.425 . S
C1021 C1018 1.409 . S
C1021 C1019 1.415 . S
C1022 H1012 0.930 . S
C1022 C1020 1.419 . S
C1022 C1023 1.362 . S
C1023 H1013 0.930 . S
C1023 C1016 1.409 . S
C1023 C1022 1.362 . S
H1024 C1030 0.930 . S
H1025 C1033 0.930 . S
H1026 C1034 0.930 . S
H1027 C1035 0.930 . S
H1028 C1038 0.930 . S
H1029 C1039 0.930 . S
C1030 H1024 0.930 . S
C1030 C1031 1.355 . S
C1030 C1032 1.415 . S
C1031 C1030 1.355 . S
C1031 C1033 1.419 . S
C1032 C1030 1.415 . S
C1032 C1037 1.425 . S
C1032 C1039 1.409 . S
C1033 H1025 0.930 . S
C1033 C1031 1.419 . S
C1033 C1034 1.362 . S
C1034 H1026 0.930 . S
C1034 C1033 1.362 . S
C1034 C1037 1.409 . S
C1035 H1027 0.930 . S
C1035 C1036 1.355 . S
C1035 C1037 1.415 . S
C1036 C1035 1.355 . S
C1036 C1038 1.419 . S
C1037 C1032 1.425 . S
C1037 C1034 1.409 . S
C1037 C1035 1.415 . S
C1038 H1028 0.930 . S
C1038 C1036 1.419 . S
C1038 C1039 1.362 . S
C1039 H1029 0.930 . S
C1039 C1032 1.409 . S
C1039 C1038 1.362 . S
H1040 C1046 0.930 . S
H1041 C1049 0.930 . S
H1042 C1050 0.930 . S
H1043 C1051 0.930 . S
H1044 C1054 0.930 . S
H1045 C1055 0.930 . S
C1046 H1040 0.930 . S
C1046 C1047 1.355 . S
C1046 C1048 1.415 . S
C1047 C1046 1.355 . S
C1047 C1049 1.419 . S
C1048 C1046 1.415 . S
C1048 C1053 1.425 . S
C1048 C1055 1.409 . S
C1049 H1041 0.930 . S
C1049 C1047 1.419 . S
C1049 C1050 1.362 . S
C1050 H1042 0.930 . S
C1050 C1049 1.362 . S
C1050 C1053 1.409 . S
C1051 H1043 0.930 . S
C1051 C1052 1.355 . S
C1051 C1053 1.415 . S
C1052 C1051 1.355 . S
C1052 C1054 1.419 . S
C1053 C1048 1.425 . S
C1053 C1050 1.409 . S
C1053 C1051 1.415 . S
C1054 H1044 0.930 . S
C1054 C1052 1.419 . S
C1054 C1055 1.362 . S
C1055 H1045 0.930 . S
C1055 C1048 1.409 . S
C1055 C1054 1.362 . S
C487 C2 1.017 . S
C492 C322 1.042 . S
C503 C42 0.982 . S
C508 C362 0.997 . S
C519 C82 1.048 . S
C524 C402 1.057 . S
C535 C442 1.044 . S
C540 C122 1.019 . S
C551 C162 0.982 . S
C556 C242 0.997 . S
C567 C282 0.990 . S
C572 C202 1.014 . S
C583 C417 1.395 . S
C588 C17 1.428 . S
C599 C457 1.421 . S
C604 C57 1.393 . S
C615 C97 1.459 . S
C620 C257 1.469 . S
C631 C297 1.470 . S
C636 C137 1.455 . S
C647 C337 1.469 . S
C652 C177 1.458 . S
C663 C217 1.421 . S
C668 C377 1.393 . S
C679 C304 4.481 . S
C684 C24 4.463 . S
C695 C344 4.472 . S
C700 C64 4.466 . S
C711 C384 4.465 . S
C716 C104 4.484 . S
C727 C144 4.464 . S
C732 C424 4.483 . S
C743 C184 4.471 . S
C748 C464 4.484 . S
C759 C224 4.484 . S
C764 C264 4.465 . S
C775 C23 1.070 . S
C780 C143 1.078 . S
C791 C63 0.978 . S
C796 C183 1.057 . S
C807 C103 0.978 . S
C812 C223 1.059 . S
C823 C383 1.051 . S
C828 C263 1.090 . S
C839 C303 1.093 . S
C844 C423 1.013 . S
C855 C463 0.990 . S
C860 C343 1.009 . S
C871 C306 0.899 . S
C876 C26 0.985 . S
C887 C346 0.808 . S
C892 C66 0.868 . S
C903 C106 0.854 . S
C908 C386 0.811 . S
C919 C426 0.863 . S
C924 C146 0.809 . S
C935 C466 0.898 . S
C940 C186 0.985 . S
C951 C226 0.957 . S
C956 C266 0.986 . S
C967 C13 4.611 . S
C972 C413 4.617 . S
C983 C53 4.611 . S
C988 C453 4.617 1_556 S
C999 C93 4.609 1_554 S
C1004 C253 4.619 . S
C1015 C133 4.614 . S
C1020 C293 4.614 . S
C1031 C173 4.610 . S
C1036 C333 4.617 1_556 S
C1047 C373 4.612 . S
C1052 C213 4.615 1_554 S
