# Generated by pormake.
# Topology snx, (6)-cn, num edge types: 1
# Building blocks:
#     Node 0, Type 0, BuildingBlock: IZENUY_clean_sbu_0, # of connection points: 6
#     Node 1, Type 0, BuildingBlock: IZENUY_clean_sbu_0, # of connection points: 6
#     Node 2, Type 0, BuildingBlock: IZENUY_clean_sbu_0, # of connection points: 6
#     Node 3, Type 0, BuildingBlock: IZENUY_clean_sbu_0, # of connection points: 6
#     Node 4, Type 0, BuildingBlock: IZENUY_clean_sbu_0, # of connection points: 6
#     Node 5, Type 0, BuildingBlock: IZENUY_clean_sbu_0, # of connection points: 6
#     Edge 6, Type (0, 0), BuildingBlock: CIFDUS_clean_linker_0, # of connection points: 2
#     Edge 7, Type (0, 0), BuildingBlock: CIFDUS_clean_linker_0, # of connection points: 2
#     Edge 8, Type (0, 0), BuildingBlock: CIFDUS_clean_linker_0, # of connection points: 2
#     Edge 9, Type (0, 0), BuildingBlock: CIFDUS_clean_linker_0, # of connection points: 2
#     Edge 10, Type (0, 0), BuildingBlock: CIFDUS_clean_linker_0, # of connection points: 2
#     Edge 11, Type (0, 0), BuildingBlock: CIFDUS_clean_linker_0, # of connection points: 2
#     Edge 12, Type (0, 0), BuildingBlock: CIFDUS_clean_linker_0, # of connection points: 2
#     Edge 13, Type (0, 0), BuildingBlock: CIFDUS_clean_linker_0, # of connection points: 2
#     Edge 14, Type (0, 0), BuildingBlock: CIFDUS_clean_linker_0, # of connection points: 2
#     Edge 15, Type (0, 0), BuildingBlock: CIFDUS_clean_linker_0, # of connection points: 2
#     Edge 16, Type (0, 0), BuildingBlock: CIFDUS_clean_linker_0, # of connection points: 2
#     Edge 17, Type (0, 0), BuildingBlock: CIFDUS_clean_linker_0, # of connection points: 2
#     Edge 18, Type (0, 0), BuildingBlock: CIFDUS_clean_linker_0, # of connection points: 2
#     Edge 19, Type (0, 0), BuildingBlock: CIFDUS_clean_linker_0, # of connection points: 2
#     Edge 20, Type (0, 0), BuildingBlock: CIFDUS_clean_linker_0, # of connection points: 2
#     Edge 21, Type (0, 0), BuildingBlock: CIFDUS_clean_linker_0, # of connection points: 2
#     Edge 22, Type (0, 0), BuildingBlock: CIFDUS_clean_linker_0, # of connection points: 2
#     Edge 23, Type (0, 0), BuildingBlock: CIFDUS_clean_linker_0, # of connection points: 2
# Relax obj value: 0.026
# Max RMSD: 0.069
# Mean RMSD: 0.067
data_MOF--net-snx--node1-IZENUY_clean_sbu_0--edge1-CIFDUS_clean_linker_0
_symmetry_space_group_name_H-M    P1
_symmetry_Int_Tables_number       1
_symmetry_cell_setting            triclinic
loop_
_symmetry_equiv_pos_as_xyz
'x, y, z'
_cell_length_a     31.449009
_cell_length_b     31.61687
_cell_length_c     18.757543
_cell_angle_alpha  91.110869
_cell_angle_beta   89.863505
_cell_angle_gamma 120.17029
loop_
_atom_site_label
_atom_site_type_symbol
_atom_site_fract_x
_atom_site_fract_y
_atom_site_fract_z
_atom_type_partial_charge
Fe0 Fe 0.18091 0.32711 0.28736 0.0
Fe1 Fe 0.21902 0.42386 0.37237 0.0
O2 O 0.21322 0.39194 0.29056 0.0
Fe3 Fe 0.23966 0.42456 0.21155 0.0
O4 O 0.19185 0.37876 0.1514 0.0
O5 O 0.13667 0.32547 0.2239 0.0
O6 O 0.13712 0.31986 0.35772 0.0
C7 C 0.12408 0.34899 0.38283 0.0
C8 C 0.26082 0.35169 0.19275 0.0
O9 O 0.15287 0.39461 0.38258 0.0
C10 C 0.31114 0.48118 0.31785 0.0
O11 O 0.22325 0.32523 0.35117 0.0
O12 O 0.22208 0.37824 0.42809 0.0
O13 O 0.27797 0.39707 0.20071 0.0
O14 O 0.2183 0.32172 0.21554 0.0
C15 C 0.2033 0.47993 0.26948 0.0
O16 O 0.28586 0.45598 0.36939 0.0
O17 O 0.29197 0.47612 0.25679 0.0
C18 C 0.23191 0.34488 0.41277 0.0
O19 O 0.2169 0.47496 0.33081 0.0
O20 O 0.20363 0.45472 0.2167 0.0
C21 C 0.14819 0.3456 0.16407 0.0
Fe22 Fe 0.81756 0.21899 0.7103 0.0
Fe23 Fe 0.8261 0.22218 0.87338 0.0
O24 O 0.8387 0.20501 0.78902 0.0
Fe25 Fe 0.87269 0.17423 0.78359 0.0
O26 O 0.92008 0.22291 0.73197 0.0
O27 O 0.87051 0.22874 0.65534 0.0
O28 O 0.85142 0.28425 0.73135 0.0
C29 C 0.84698 0.30308 0.78878 0.0
C30 C 0.79934 0.12709 0.67476 0.0
O31 O 0.8271 0.27704 0.84247 0.0
C32 C 0.8163 0.12979 0.89907 0.0
O33 O 0.76101 0.21164 0.75115 0.0
O34 O 0.76041 0.18508 0.85888 0.0
O35 O 0.84042 0.13758 0.70251 0.0
O36 O 0.78199 0.15503 0.68397 0.0
C37 C 0.92025 0.24448 0.89634 0.0
O38 O 0.82323 0.1709 0.92042 0.0
O39 O 0.82757 0.12371 0.83651 0.0
C40 C 0.73805 0.19008 0.80699 0.0
O41 O 0.89069 0.26028 0.89371 0.0
O42 O 0.91126 0.20545 0.86309 0.0
C43 C 0.91324 0.23853 0.67436 0.0
Fe44 Fe 0.71617 0.85834 0.26415 0.0
Fe45 Fe 0.61604 0.80804 0.18966 0.0
O46 O 0.65133 0.82885 0.26937 0.0
Fe47 Fe 0.62214 0.81968 0.35352 0.0
O48 O 0.65566 0.88498 0.37604 0.0
O49 O 0.72812 0.8976 0.34368 0.0
O50 O 0.71883 0.90707 0.2109 0.0
C51 C 0.69746 0.89893 0.151 0.0
C52 C 0.69838 0.79823 0.3768 0.0
O53 O 0.662 0.85691 0.13468 0.0
C54 C 0.55995 0.73222 0.28485 0.0
O55 O 0.71703 0.82432 0.18429 0.0
O56 O 0.63999 0.76772 0.16754 0.0
O57 O 0.66754 0.80952 0.4009 0.0
O58 O 0.71688 0.81117 0.31584 0.0
C59 C 0.56621 0.84531 0.26193 0.0
O60 O 0.56363 0.75558 0.22923 0.0
O61 O 0.58631 0.75351 0.33905 0.0
C62 C 0.68514 0.78293 0.15904 0.0
O63 O 0.5896 0.84651 0.20651 0.0
O64 O 0.5718 0.82797 0.31951 0.0
C65 C 0.70202 0.91064 0.37864 0.0
Fe66 Fe 0.87452 0.70587 0.76299 0.0
Fe67 Fe 0.82233 0.60882 0.84177 0.0
O68 O 0.83735 0.64137 0.76131 0.0
Fe69 Fe 0.81577 0.60978 0.67869 0.0
O70 O 0.87798 0.63271 0.64785 0.0
O71 O 0.90304 0.70942 0.67591 0.0
O72 O 0.92527 0.70274 0.8029 0.0
C73 C 0.92271 0.68235 0.86121 0.0
C74 C 0.80608 0.69342 0.6637 0.0
O75 O 0.88128 0.65156 0.8868 0.0
C76 C 0.73388 0.55841 0.75893 0.0
O77 O 0.85317 0.71442 0.85026 0.0
O78 O 0.79263 0.64145 0.87663 0.0
O79 O 0.81079 0.65904 0.63632 0.0
O80 O 0.82567 0.71244 0.7232 0.0
C81 C 0.84032 0.54889 0.75512 0.0
O82 O 0.76111 0.56053 0.81043 0.0
O83 O 0.75224 0.58427 0.70473 0.0
C84 C 0.81406 0.68737 0.8839 0.0
O85 O 0.85089 0.57385 0.81242 0.0
O86 O 0.81673 0.55507 0.70589 0.0
C87 C 0.90914 0.67746 0.64343 0.0
Fe88 Fe 0.17895 0.86099 0.25928 0.0
Fe89 Fe 0.23254 0.81172 0.19104 0.0
O90 O 0.21136 0.82893 0.26823 0.0
Fe91 Fe 0.22269 0.81455 0.35432 0.0
O92 O 0.16494 0.80554 0.3924 0.0
O93 O 0.12506 0.81319 0.30189 0.0
O94 O 0.14982 0.83177 0.17376 0.0
C95 C 0.14125 0.79137 0.14636 0.0
C96 C 0.23862 0.9066 0.38144 0.0
O97 O 0.17034 0.77543 0.15558 0.0
C98 C 0.31156 0.84089 0.28099 0.0
O99 O 0.231 0.91099 0.21678 0.0
O100 O 0.24412 0.86565 0.13942 0.0
O101 O 0.25646 0.87873 0.3823 0.0
O102 O 0.20133 0.8959 0.3433 0.0
C103 C 0.20034 0.72997 0.28156 0.0
O104 O 0.29639 0.84633 0.22138 0.0
O105 O 0.28195 0.82042 0.33161 0.0
C106 C 0.25077 0.9069 0.16062 0.0
O107 O 0.22466 0.75492 0.22875 0.0
O108 O 0.19019 0.74965 0.33289 0.0
C109 C 0.12528 0.79772 0.36318 0.0
Fe110 Fe 0.43684 0.22523 0.70207 0.0
Fe111 Fe 0.4291 0.21621 0.86473 0.0
O112 O 0.40035 0.20382 0.77957 0.0
Fe113 Fe 0.3354 0.16945 0.77143 0.0
O114 O 0.33525 0.13968 0.68625 0.0
O115 O 0.41299 0.16313 0.66757 0.0
O116 O 0.48852 0.22167 0.7382 0.0
C117 C 0.49007 0.19517 0.78632 0.0
C118 C 0.35507 0.23627 0.66834 0.0
O119 O 0.46291 0.18506 0.84039 0.0
C120 C 0.35128 0.22932 0.89578 0.0
O121 O 0.46345 0.28872 0.73226 0.0
O122 O 0.48065 0.27594 0.84063 0.0
O123 O 0.33313 0.21896 0.72627 0.0
O124 O 0.39175 0.23238 0.65062 0.0
C125 C 0.35072 0.11863 0.87551 0.0
O126 O 0.39745 0.24795 0.89559 0.0
O127 O 0.32405 0.19278 0.85565 0.0
C128 C 0.48615 0.3049 0.79103 0.0
O129 O 0.38255 0.15884 0.90394 0.0
O130 O 0.33277 0.1173 0.8149 0.0
C131 C 0.36789 0.13295 0.6573 0.0
H132 H 0.18182 0.53002 0.36873 0.0
H133 H 0.20638 0.52334 0.14333 0.0
H134 H 0.20421 0.59858 0.12627 0.0
H135 H 0.2028 0.67019 0.17711 0.0
H136 H 0.17659 0.67582 0.40222 0.0
H137 H 0.17151 0.59698 0.4173 0.0
C138 C 0.18617 0.54474 0.31573 0.0
C139 C 0.19488 0.52138 0.25762 0.0
C140 C 0.1849 0.58806 0.30623 0.0
C141 C 0.19973 0.54056 0.18911 0.0
C142 C 0.19874 0.58378 0.1793 0.0
C143 C 0.19549 0.65394 0.22935 0.0
C144 C 0.19079 0.6793 0.28854 0.0
C145 C 0.19253 0.60845 0.23775 0.0
C146 C 0.18058 0.65732 0.35569 0.0
C147 C 0.17784 0.61225 0.36449 0.0
H148 H 0.67331 0.17786 0.70313 0.0
H149 H 0.68773 0.17775 0.93173 0.0
H150 H 0.60819 0.17309 0.94647 0.0
H151 H 0.5394 0.17961 0.89399 0.0
H152 H 0.52744 0.18097 0.66496 0.0
H153 H 0.60055 0.17398 0.65097 0.0
C154 C 0.65878 0.17619 0.75618 0.0
C155 C 0.68674 0.179 0.81612 0.0
C156 C 0.61346 0.17407 0.76428 0.0
C157 C 0.66703 0.17591 0.88455 0.0
C158 C 0.62162 0.17349 0.89308 0.0
C159 C 0.55231 0.17731 0.84119 0.0
C160 C 0.52864 0.18172 0.78069 0.0
C161 C 0.59517 0.17407 0.83333 0.0
C162 C 0.54562 0.17857 0.71245 0.0
C163 C 0.58744 0.17458 0.70428 0.0
H164 H 0.38148 0.52349 0.21905 0.0
H165 H 0.35436 0.53165 0.4429 0.0
H166 H 0.43306 0.60851 0.45533 0.0
H167 H 0.50475 0.67862 0.39815 0.0
H168 H 0.52786 0.66922 0.17283 0.0
H169 H 0.45593 0.58764 0.16558 0.0
C170 C 0.39302 0.54174 0.27084 0.0
C171 C 0.36185 0.52236 0.32965 0.0
C172 C 0.43753 0.58604 0.27716 0.0
C173 C 0.37769 0.54594 0.39667 0.0
C174 C 0.42253 0.59006 0.40368 0.0
C175 C 0.49444 0.65819 0.34796 0.0
C176 C 0.52109 0.68016 0.28589 0.0
C177 C 0.45209 0.61127 0.34372 0.0
C178 C 0.50742 0.65338 0.22109 0.0
C179 C 0.46631 0.6067 0.21683 0.0
H180 H 0.86341 0.5055 0.86039 0.0
H181 H 0.83804 0.49948 0.6334 0.0
H182 H 0.84397 0.42567 0.62209 0.0
H183 H 0.84791 0.35816 0.67831 0.0
H184 H 0.86873 0.36199 0.90609 0.0
H185 H 0.87373 0.44144 0.91523 0.0
C186 C 0.85985 0.48842 0.80834 0.0
C187 C 0.84966 0.50761 0.74808 0.0
C188 C 0.86226 0.44535 0.80232 0.0
C189 C 0.84522 0.48505 0.68092 0.0
C190 C 0.84866 0.44284 0.67429 0.0
C191 C 0.85448 0.37687 0.72966 0.0
C192 C 0.85753 0.35413 0.79144 0.0
C193 C 0.85592 0.42195 0.73487 0.0
C194 C 0.86576 0.37862 0.85779 0.0
C195 C 0.86855 0.424 0.86313 0.0
H196 H 0.50776 0.84735 0.36775 0.0
H197 H 0.53271 0.86728 0.14134 0.0
H198 H 0.45843 0.87256 0.12777 0.0
H199 H 0.38151 0.86271 0.17823 0.0
H200 H 0.35709 0.84217 0.40474 0.0
H201 H 0.43592 0.84642 0.41984 0.0
C202 C 0.49738 0.85348 0.31553 0.0
C203 C 0.52555 0.85614 0.25566 0.0
C204 C 0.45428 0.856 0.30781 0.0
C205 C 0.51166 0.86469 0.1885 0.0
C206 C 0.46899 0.86757 0.18053 0.0
C207 C 0.39378 0.85995 0.23101 0.0
C208 C 0.36286 0.85129 0.28995 0.0
C209 C 0.43924 0.86193 0.23951 0.0
C210 C 0.37965 0.84811 0.35809 0.0
C211 C 0.42483 0.85052 0.36694 0.0
H212 H 0.67892 0.50195 0.86788 0.0
H213 H 0.67167 0.52481 0.64317 0.0
H214 H 0.59115 0.45066 0.63436 0.0
H215 H 0.52739 0.37405 0.68761 0.0
H216 H 0.53581 0.3519 0.91249 0.0
H217 H 0.6107 0.43103 0.92385 0.0
C218 C 0.65947 0.49111 0.81714 0.0
C219 C 0.68178 0.51852 0.75616 0.0
C220 C 0.61339 0.44817 0.81219 0.0
C221 C 0.65562 0.50429 0.69104 0.0
C222 C 0.60957 0.46169 0.6858 0.0
C223 C 0.54511 0.3869 0.73932 0.0
C224 C 0.5264 0.3565 0.79871 0.0
C225 C 0.58876 0.43251 0.74559 0.0
C226 C 0.54974 0.37405 0.86547 0.0
C227 C 0.59269 0.41939 0.87217 0.0
H228 H 0.39509 0.31172 0.982 0.0
H229 H 0.25429 0.1846 0.93099 0.0
H230 H 0.21501 0.20953 1.02105 0.0
H231 H 0.21972 0.26761 0.11327 0.0
H232 H 0.35889 0.39716 0.16125 0.0
H233 H 0.39959 0.37085 0.07424 0.0
C234 C 0.35582 0.28948 0.99057 0.0
C235 C 0.32786 0.24627 0.94946 0.0
C236 C 0.33309 0.30427 0.04238 0.0
C237 C 0.27689 0.21812 0.9613 0.0
C238 C 0.25428 0.23222 1.01315 0.0
C239 C 0.25908 0.28982 0.10542 0.0
C240 C 0.28629 0.33405 0.14429 0.0
C241 C 0.28195 0.27516 0.05402 0.0
C242 C 0.33711 0.36284 0.13226 0.0
C243 C 0.36038 0.34788 0.08234 0.0
H244 H 0.91649 0.23222 0.52936 0.0
H245 H 1.00554 0.30664 0.71483 0.0
H246 H 0.07781 0.35127 0.6398 0.0
H247 H 0.11681 0.36614 0.52212 0.0
H248 H 0.03072 0.28502 0.33819 0.0
H249 H 0.95614 0.24625 0.41112 0.0
C250 C 0.95168 0.25859 0.55297 0.0
C251 C 0.95578 0.26643 0.62733 0.0
C252 C 0.99355 0.28284 0.50967 0.0
C253 C 1.00165 0.30001 0.65767 0.0
C254 C 0.04292 0.32556 0.61483 0.0
C255 C 0.08148 0.34051 0.4981 0.0
C256 C 0.07872 0.32887 0.42505 0.0
C257 C 0.03946 0.31692 0.54091 0.0
C258 C 0.03327 0.29468 0.39439 0.0
C259 C 0.99081 0.27249 0.43608 0.0
H260 H 0.76021 0.03109 0.87876 0.0
H261 H 0.83913 0.14329 0.03954 0.0
H262 H 0.81096 0.08189 0.13166 0.0
H263 H 0.76117 0.99665 0.16777 0.0
H264 H 0.67866 0.88454 1.0082 0.0
H265 H 0.71067 0.94525 0.91507 0.0
C266 C 0.7715 0.04181 0.93388 0.0
C267 C 0.80145 0.09142 0.95242 0.0
C268 C 0.7542 1.00639 0.98711 0.0
C269 C 0.81562 0.10517 1.0241 0.0
C270 C 0.7996 0.07015 0.07688 0.0
C271 C 0.75038 0.98553 0.11261 0.0
C272 C 0.71753 0.93625 0.09518 0.0
C273 C 0.76837 0.02071 0.0592 0.0
C274 C 0.70367 0.92239 1.02335 0.0
C275 C 0.72206 0.95704 0.96983 0.0
H276 H 0.70669 0.8025 0.5217 0.0
H277 H 0.73111 0.73771 0.33283 0.0
H278 H 0.76476 0.69809 0.40545 0.0
H279 H 0.7896 0.68393 0.52139 0.0
H280 H 0.77033 0.75203 0.71075 0.0
H281 H 0.7324 0.78844 0.63916 0.0
C282 C 0.71902 0.77934 0.49674 0.0
C283 C 0.7164 0.77289 0.42217 0.0
C284 C 0.73949 0.75759 0.53872 0.0
C285 C 0.73302 0.74335 0.39018 0.0
C286 C 0.75221 0.72068 0.4316 0.0
C287 C 0.77688 0.70651 0.5472 0.0
C288 C 0.78268 0.7152 0.62125 0.0
C289 C 0.75602 0.72789 0.50575 0.0
C290 C 0.76645 0.74497 0.6537 0.0
C291 C 0.74467 0.76569 0.61285 0.0
H292 H 0.93065 0.6798 1.00528 0.0
H293 H 1.01711 0.72513 0.81361 0.0
H294 H 0.09281 0.75945 0.8846 0.0
H295 H 0.13482 0.78105 1.0022 0.0
H296 H 0.04817 0.74105 0.1933 0.0
H297 H 0.97227 0.69994 0.12203 0.0
C298 C 0.96603 0.69666 0.97902 0.0
C299 C 0.96821 0.69988 0.90427 0.0
C300 C 1.00944 0.71743 1.02027 0.0
C301 C 1.01442 0.72239 0.87112 0.0
C302 C 0.05774 0.74201 0.91166 0.0
C303 C 0.0992 0.76265 0.02779 0.0
C304 C 0.09663 0.76334 0.10247 0.0
C305 C 0.05577 0.74038 0.98634 0.0
C306 C 0.05061 0.74042 0.13568 0.0
C307 C 1.00735 0.71711 0.095 0.0
H308 H 0.28007 0.08206 0.58967 0.0
H309 H 0.42114 0.09121 0.60879 0.0
H310 H 0.39371 0.02128 0.52575 0.0
H311 H 0.32867 0.95681 0.44817 0.0
H312 H 0.18941 0.95176 0.42756 0.0
H313 H 0.21718 0.02067 0.51071 0.0
C314 C 0.30489 0.06877 0.5759 0.0
C315 C 0.35245 0.09163 0.60572 0.0
C316 C 0.28915 0.02917 0.52775 0.0
C317 C 0.38432 0.07429 0.58645 0.0
C318 C 0.3686 0.03423 0.53914 0.0
C319 C 0.30449 0.97082 0.46207 0.0
C320 C 0.25698 0.94898 0.43173 0.0
C321 C 0.32096 1.01124 0.50956 0.0
C322 C 0.22622 0.96789 0.44974 0.0
C323 C 0.24198 1.00729 0.49751 0.0
H324 H 0.77566 0.81712 0.10347 0.0
H325 H 0.63077 0.68896 0.10485 0.0
H326 H 0.65812 0.64701 1.02135 0.0
H327 H 0.72325 0.64793 0.94548 0.0
H328 H 0.8665 0.77859 0.94279 0.0
H329 H 0.83955 0.81822 0.02931 0.0
C330 C 0.74996 0.77988 0.08599 0.0
C331 C 0.70124 0.75624 0.11049 0.0
C332 C 0.76562 0.75645 0.03742 0.0
C333 C 0.66848 0.70808 0.08668 0.0
C334 C 0.6841 0.68409 0.03895 0.0
C335 C 0.74854 0.68498 0.96417 0.0
C336 C 0.79681 0.7102 0.93755 0.0
C337 C 0.73258 0.70807 1.01357 0.0
C338 C 0.82907 0.75834 0.96191 0.0
C339 C 0.81376 0.7811 1.01159 0.0
H340 H 0.9361 0.7451 0.54189 0.0
H341 H 0.97244 0.64324 0.63361 0.0
H342 H 0.04304 0.67119 0.55379 0.0
H343 H 0.09564 0.72668 0.46043 0.0
H344 H 0.05472 0.82329 0.36168 0.0
H345 H 0.98416 0.79502 0.44105 0.0
C346 C 0.95961 0.72916 0.54406 0.0
C347 C 0.95 0.69285 0.59362 0.0
C348 C 0.99894 0.7443 0.49671 0.0
C349 C 0.97968 0.67145 0.59564 0.0
C350 C 1.01989 0.68742 0.55023 0.0
C351 C 0.07097 0.74118 0.45619 0.0
C352 C 0.0803 0.77714 0.40601 0.0
C353 C 0.03005 0.72407 0.50092 0.0
C354 C 0.04798 0.79539 0.39994 0.0
C355 C 1.00788 0.77948 0.44549 0.0
H356 H 0.25097 0.91002 1.01559 0.0
H357 H 0.30766 1.0008 0.20557 0.0
H358 H 0.3456 0.07416 0.13353 0.0
H359 H 0.35918 0.11259 1.0179 0.0
H360 H 0.29822 0.02331 0.82733 0.0
H361 H 0.2652 0.9492 0.89818 0.0
C362 C 0.27223 0.94589 0.04086 0.0
C363 C 0.27685 0.95018 0.11559 0.0
C364 C 0.29266 0.98808 0.99917 0.0
C365 C 0.30368 0.99677 0.14807 0.0
C366 C 0.32527 0.03866 0.10698 0.0
C367 C 0.33894 0.07695 0.99161 0.0
C368 C 0.33118 0.07349 0.91742 0.0
C369 C 0.31941 0.03477 0.03267 0.0
C370 C 0.30447 0.02697 0.88445 0.0
C371 C 0.28571 0.98461 0.9249 0.0
H372 H 0.29946 0.28016 0.6879 0.0
H373 H 0.36212 0.22985 0.52541 0.0
H374 H 0.32841 0.25733 0.43262 0.0
H375 H 0.28242 0.2968 0.39651 0.0
H376 H 0.22306 0.35178 0.557 0.0
H377 H 0.25405 0.32157 0.65104 0.0
C378 C 0.3055 0.27518 0.63217 0.0
C379 C 0.33338 0.25317 0.61377 0.0
C380 C 0.2867 0.29201 0.57846 0.0
C381 C 0.34123 0.24717 0.54125 0.0
C382 C 0.32183 0.26271 0.48792 0.0
C383 C 0.27606 0.30196 0.45206 0.0
C384 C 0.25039 0.32632 0.46965 0.0
C385 C 0.29473 0.28537 0.50581 0.0
C386 C 0.24295 0.33327 0.54197 0.0
C387 C 0.26055 0.31591 0.59584 0.0
H388 H 1.01552 0.2664 0.88638 0.0
H389 H 0.90949 0.26685 0.03205 0.0
H390 H 0.97002 0.29615 0.12888 0.0
H391 H 0.05307 0.32131 0.17259 0.0
H392 H 0.16205 0.32897 1.02551 0.0
H393 H 0.10083 0.29699 0.92879 0.0
C394 C 1.00603 0.2732 0.93934 0.0
C395 C 0.95842 0.26466 0.95238 0.0
C396 C 0.04148 0.29137 0.99441 0.0
C397 C 0.94624 0.27374 1.02087 0.0
C398 C 0.98068 0.29022 0.07629 0.0
C399 C 0.06319 0.31583 0.1193 0.0
C400 C 0.11155 0.32695 0.10592 0.0
C401 C 0.02835 0.29907 0.06375 0.0
C402 C 0.12482 0.32059 0.03666 0.0
C403 C 0.08988 0.30228 0.98152 0.0
H404 H 0.66113 0.95361 0.46152 0.0
H405 H 0.79954 0.96199 0.41373 0.0
H406 H 0.84103 0.0272 0.5027 0.0
H407 H 0.83887 0.08247 0.59481 0.0
H408 H 0.70181 0.07735 0.63954 0.0
H409 H 0.65935 1.01053 0.55212 0.0
C410 C 0.70038 0.96981 0.47035 0.0
C411 C 0.72688 0.95255 0.43058 0.0
C412 C 0.72447 1.0079 0.52172 0.0
C413 C 0.7779 0.97432 0.44299 0.0
C414 C 0.80184 1.01166 0.49429 0.0
C415 C 0.79963 0.06643 0.58588 0.0
C416 C 0.77359 0.08475 0.62415 0.0
C417 C 0.77555 0.02867 0.53423 0.0
C418 C 0.72284 0.06399 0.61092 0.0
C419 C 0.69848 0.02576 0.56079 0.0
loop_
_geom_bond_atom_site_label_1
_geom_bond_atom_site_label_2
_geom_bond_distance
_geom_bond_site_symmetry_2
_ccdc_geom_bond_type
Fe0 O2 1.918 . S
Fe0 O5 1.997 . S
Fe0 O6 2.002 . S
Fe0 O11 1.976 . S
Fe0 O14 1.996 . S
Fe1 O2 1.918 . S
Fe1 O9 1.997 . S
Fe1 O12 1.996 . S
Fe1 O16 1.976 . S
Fe1 O19 2.002 . S
O2 Fe0 1.918 . S
O2 Fe1 1.918 . S
O2 Fe3 1.918 . S
Fe3 O2 1.918 . S
Fe3 O4 2.002 . S
Fe3 O13 1.976 . S
Fe3 O17 1.996 . S
Fe3 O20 1.997 . S
O4 Fe3 2.002 . S
O4 C21 1.295 . S
O5 Fe0 1.997 . S
O5 C21 1.235 . S
O6 Fe0 2.002 . S
O6 C7 1.295 . S
C7 O6 1.295 . S
C7 O9 1.235 . S
C8 O13 1.287 . S
C8 O14 1.255 . S
O9 Fe1 1.997 . S
O9 C7 1.235 . S
C10 O16 1.287 . S
C10 O17 1.255 . S
O11 Fe0 1.976 . S
O11 C18 1.287 . S
O12 Fe1 1.996 . S
O12 C18 1.255 . S
O13 Fe3 1.976 . S
O13 C8 1.287 . S
O14 Fe0 1.996 . S
O14 C8 1.255 . S
C15 O19 1.295 . S
C15 O20 1.235 . S
O16 Fe1 1.976 . S
O16 C10 1.287 . S
O17 Fe3 1.996 . S
O17 C10 1.255 . S
C18 O11 1.287 . S
C18 O12 1.255 . S
O19 Fe1 2.002 . S
O19 C15 1.295 . S
O20 Fe3 1.997 . S
O20 C15 1.235 . S
C21 O4 1.295 . S
C21 O5 1.235 . S
Fe22 O24 1.918 . S
Fe22 O27 1.997 . S
Fe22 O28 2.002 . S
Fe22 O33 1.976 . S
Fe22 O36 1.996 . S
Fe23 O24 1.918 . S
Fe23 O31 1.997 . S
Fe23 O34 1.996 . S
Fe23 O38 1.976 . S
Fe23 O41 2.002 . S
O24 Fe22 1.918 . S
O24 Fe23 1.918 . S
O24 Fe25 1.918 . S
Fe25 O24 1.918 . S
Fe25 O26 2.002 . S
Fe25 O35 1.976 . S
Fe25 O39 1.996 . S
Fe25 O42 1.997 . S
O26 Fe25 2.002 . S
O26 C43 1.295 . S
O27 Fe22 1.997 . S
O27 C43 1.235 . S
O28 Fe22 2.002 . S
O28 C29 1.295 . S
C29 O28 1.295 . S
C29 O31 1.235 . S
C30 O35 1.287 . S
C30 O36 1.255 . S
O31 Fe23 1.997 . S
O31 C29 1.235 . S
C32 O38 1.287 . S
C32 O39 1.255 . S
O33 Fe22 1.976 . S
O33 C40 1.287 . S
O34 Fe23 1.996 . S
O34 C40 1.255 . S
O35 Fe25 1.976 . S
O35 C30 1.287 . S
O36 Fe22 1.996 . S
O36 C30 1.255 . S
C37 O41 1.295 . S
C37 O42 1.235 . S
O38 Fe23 1.976 . S
O38 C32 1.287 . S
O39 Fe25 1.996 . S
O39 C32 1.255 . S
C40 O33 1.287 . S
C40 O34 1.255 . S
O41 Fe23 2.002 . S
O41 C37 1.295 . S
O42 Fe25 1.997 . S
O42 C37 1.235 . S
C43 O26 1.295 . S
C43 O27 1.235 . S
Fe44 O46 1.918 . S
Fe44 O49 1.997 . S
Fe44 O50 2.002 . S
Fe44 O55 1.976 . S
Fe44 O58 1.996 . S
Fe45 O46 1.918 . S
Fe45 O53 1.997 . S
Fe45 O56 1.996 . S
Fe45 O60 1.976 . S
Fe45 O63 2.002 . S
O46 Fe44 1.918 . S
O46 Fe45 1.918 . S
O46 Fe47 1.918 . S
Fe47 O46 1.918 . S
Fe47 O48 2.002 . S
Fe47 O57 1.976 . S
Fe47 O61 1.996 . S
Fe47 O64 1.997 . S
O48 Fe47 2.002 . S
O48 C65 1.295 . S
O49 Fe44 1.997 . S
O49 C65 1.235 . S
O50 Fe44 2.002 . S
O50 C51 1.295 . S
C51 O50 1.295 . S
C51 O53 1.235 . S
C52 O57 1.287 . S
C52 O58 1.255 . S
O53 Fe45 1.997 . S
O53 C51 1.235 . S
C54 O60 1.287 . S
C54 O61 1.255 . S
O55 Fe44 1.976 . S
O55 C62 1.287 . S
O56 Fe45 1.996 . S
O56 C62 1.255 . S
O57 Fe47 1.976 . S
O57 C52 1.287 . S
O58 Fe44 1.996 . S
O58 C52 1.255 . S
C59 O63 1.295 . S
C59 O64 1.235 . S
O60 Fe45 1.976 . S
O60 C54 1.287 . S
O61 Fe47 1.996 . S
O61 C54 1.255 . S
C62 O55 1.287 . S
C62 O56 1.255 . S
O63 Fe45 2.002 . S
O63 C59 1.295 . S
O64 Fe47 1.997 . S
O64 C59 1.235 . S
C65 O48 1.295 . S
C65 O49 1.235 . S
Fe66 O68 1.918 . S
Fe66 O71 1.997 . S
Fe66 O72 2.002 . S
Fe66 O77 1.976 . S
Fe66 O80 1.996 . S
Fe67 O68 1.918 . S
Fe67 O75 1.997 . S
Fe67 O78 1.996 . S
Fe67 O82 1.976 . S
Fe67 O85 2.002 . S
O68 Fe66 1.918 . S
O68 Fe67 1.918 . S
O68 Fe69 1.918 . S
Fe69 O68 1.918 . S
Fe69 O70 2.002 . S
Fe69 O79 1.976 . S
Fe69 O83 1.996 . S
Fe69 O86 1.997 . S
O70 Fe69 2.002 . S
O70 C87 1.295 . S
O71 Fe66 1.997 . S
O71 C87 1.235 . S
O72 Fe66 2.002 . S
O72 C73 1.295 . S
C73 O72 1.295 . S
C73 O75 1.235 . S
C74 O79 1.287 . S
C74 O80 1.255 . S
O75 Fe67 1.997 . S
O75 C73 1.235 . S
C76 O82 1.287 . S
C76 O83 1.255 . S
O77 Fe66 1.976 . S
O77 C84 1.287 . S
O78 Fe67 1.996 . S
O78 C84 1.255 . S
O79 Fe69 1.976 . S
O79 C74 1.287 . S
O80 Fe66 1.996 . S
O80 C74 1.255 . S
C81 O85 1.295 . S
C81 O86 1.235 . S
O82 Fe67 1.976 . S
O82 C76 1.287 . S
O83 Fe69 1.996 . S
O83 C76 1.255 . S
C84 O77 1.287 . S
C84 O78 1.255 . S
O85 Fe67 2.002 . S
O85 C81 1.295 . S
O86 Fe69 1.997 . S
O86 C81 1.235 . S
C87 O70 1.295 . S
C87 O71 1.235 . S
Fe88 O90 1.918 . S
Fe88 O93 1.997 . S
Fe88 O94 2.002 . S
Fe88 O99 1.976 . S
Fe88 O102 1.996 . S
Fe89 O90 1.918 . S
Fe89 O97 1.997 . S
Fe89 O100 1.996 . S
Fe89 O104 1.976 . S
Fe89 O107 2.002 . S
O90 Fe88 1.918 . S
O90 Fe89 1.918 . S
O90 Fe91 1.918 . S
Fe91 O90 1.918 . S
Fe91 O92 2.002 . S
Fe91 O101 1.976 . S
Fe91 O105 1.996 . S
Fe91 O108 1.997 . S
O92 Fe91 2.002 . S
O92 C109 1.295 . S
O93 Fe88 1.997 . S
O93 C109 1.235 . S
O94 Fe88 2.002 . S
O94 C95 1.295 . S
C95 O94 1.295 . S
C95 O97 1.235 . S
C96 O101 1.287 . S
C96 O102 1.255 . S
O97 Fe89 1.997 . S
O97 C95 1.235 . S
C98 O104 1.287 . S
C98 O105 1.255 . S
O99 Fe88 1.976 . S
O99 C106 1.287 . S
O100 Fe89 1.996 . S
O100 C106 1.255 . S
O101 Fe91 1.976 . S
O101 C96 1.287 . S
O102 Fe88 1.996 . S
O102 C96 1.255 . S
C103 O107 1.295 . S
C103 O108 1.235 . S
O104 Fe89 1.976 . S
O104 C98 1.287 . S
O105 Fe91 1.996 . S
O105 C98 1.255 . S
C106 O99 1.287 . S
C106 O100 1.255 . S
O107 Fe89 2.002 . S
O107 C103 1.295 . S
O108 Fe91 1.997 . S
O108 C103 1.235 . S
C109 O92 1.295 . S
C109 O93 1.235 . S
Fe110 O112 1.918 . S
Fe110 O115 1.997 . S
Fe110 O116 2.002 . S
Fe110 O121 1.976 . S
Fe110 O124 1.996 . S
Fe111 O112 1.918 . S
Fe111 O119 1.997 . S
Fe111 O122 1.996 . S
Fe111 O126 1.976 . S
Fe111 O129 2.002 . S
O112 Fe110 1.918 . S
O112 Fe111 1.918 . S
O112 Fe113 1.918 . S
Fe113 O112 1.918 . S
Fe113 O114 2.002 . S
Fe113 O123 1.976 . S
Fe113 O127 1.996 . S
Fe113 O130 1.997 . S
O114 Fe113 2.002 . S
O114 C131 1.295 . S
O115 Fe110 1.997 . S
O115 C131 1.235 . S
O116 Fe110 2.002 . S
O116 C117 1.295 . S
C117 O116 1.295 . S
C117 O119 1.235 . S
C118 O123 1.287 . S
C118 O124 1.255 . S
O119 Fe111 1.997 . S
O119 C117 1.235 . S
C120 O126 1.287 . S
C120 O127 1.255 . S
O121 Fe110 1.976 . S
O121 C128 1.287 . S
O122 Fe111 1.996 . S
O122 C128 1.255 . S
O123 Fe113 1.976 . S
O123 C118 1.287 . S
O124 Fe110 1.996 . S
O124 C118 1.255 . S
C125 O129 1.295 . S
C125 O130 1.235 . S
O126 Fe111 1.976 . S
O126 C120 1.287 . S
O127 Fe113 1.996 . S
O127 C120 1.255 . S
C128 O121 1.287 . S
C128 O122 1.255 . S
O129 Fe111 2.002 . S
O129 C125 1.295 . S
O130 Fe113 1.997 . S
O130 C125 1.235 . S
C131 O114 1.295 . S
C131 O115 1.235 . S
H132 C138 0.930 . S
H133 C141 0.930 . S
H134 C142 0.930 . S
H135 C143 0.930 . S
H136 C146 0.930 . S
H137 C147 0.930 . S
C138 H132 0.930 . S
C138 C139 1.355 . S
C138 C140 1.415 . S
C139 C138 1.355 . S
C139 C141 1.419 . S
C140 C138 1.415 . S
C140 C145 1.425 . S
C140 C147 1.409 . S
C141 H133 0.930 . S
C141 C139 1.419 . S
C141 C142 1.362 . S
C142 H134 0.930 . S
C142 C141 1.362 . S
C142 C145 1.409 . S
C143 H135 0.930 . S
C143 C144 1.355 . S
C143 C145 1.415 . S
C144 C143 1.355 . S
C144 C146 1.419 . S
C145 C140 1.425 . S
C145 C142 1.409 . S
C145 C143 1.415 . S
C146 H136 0.930 . S
C146 C144 1.419 . S
C146 C147 1.362 . S
C147 H137 0.930 . S
C147 C140 1.409 . S
C147 C146 1.362 . S
H148 C154 0.930 . S
H149 C157 0.930 . S
H150 C158 0.930 . S
H151 C159 0.930 . S
H152 C162 0.930 . S
H153 C163 0.930 . S
C154 H148 0.930 . S
C154 C155 1.355 . S
C154 C156 1.415 . S
C155 C154 1.355 . S
C155 C157 1.419 . S
C156 C154 1.415 . S
C156 C161 1.425 . S
C156 C163 1.409 . S
C157 H149 0.930 . S
C157 C155 1.419 . S
C157 C158 1.362 . S
C158 H150 0.930 . S
C158 C157 1.362 . S
C158 C161 1.409 . S
C159 H151 0.930 . S
C159 C160 1.355 . S
C159 C161 1.415 . S
C160 C159 1.355 . S
C160 C162 1.419 . S
C161 C156 1.425 . S
C161 C158 1.409 . S
C161 C159 1.415 . S
C162 H152 0.930 . S
C162 C160 1.419 . S
C162 C163 1.362 . S
C163 H153 0.930 . S
C163 C156 1.409 . S
C163 C162 1.362 . S
H164 C170 0.930 . S
H165 C173 0.930 . S
H166 C174 0.930 . S
H167 C175 0.930 . S
H168 C178 0.930 . S
H169 C179 0.930 . S
C170 H164 0.930 . S
C170 C171 1.355 . S
C170 C172 1.415 . S
C171 C170 1.355 . S
C171 C173 1.419 . S
C172 C170 1.415 . S
C172 C177 1.425 . S
C172 C179 1.409 . S
C173 H165 0.930 . S
C173 C171 1.419 . S
C173 C174 1.362 . S
C174 H166 0.930 . S
C174 C173 1.362 . S
C174 C177 1.409 . S
C175 H167 0.930 . S
C175 C176 1.355 . S
C175 C177 1.415 . S
C176 C175 1.355 . S
C176 C178 1.419 . S
C177 C172 1.425 . S
C177 C174 1.409 . S
C177 C175 1.415 . S
C178 H168 0.930 . S
C178 C176 1.419 . S
C178 C179 1.362 . S
C179 H169 0.930 . S
C179 C172 1.409 . S
C179 C178 1.362 . S
H180 C186 0.930 . S
H181 C189 0.930 . S
H182 C190 0.930 . S
H183 C191 0.930 . S
H184 C194 0.930 . S
H185 C195 0.930 . S
C186 H180 0.930 . S
C186 C187 1.355 . S
C186 C188 1.415 . S
C187 C186 1.355 . S
C187 C189 1.419 . S
C188 C186 1.415 . S
C188 C193 1.425 . S
C188 C195 1.409 . S
C189 H181 0.930 . S
C189 C187 1.419 . S
C189 C190 1.362 . S
C190 H182 0.930 . S
C190 C189 1.362 . S
C190 C193 1.409 . S
C191 H183 0.930 . S
C191 C192 1.355 . S
C191 C193 1.415 . S
C192 C191 1.355 . S
C192 C194 1.419 . S
C193 C188 1.425 . S
C193 C190 1.409 . S
C193 C191 1.415 . S
C194 H184 0.930 . S
C194 C192 1.419 . S
C194 C195 1.362 . S
C195 H185 0.930 . S
C195 C188 1.409 . S
C195 C194 1.362 . S
H196 C202 0.930 . S
H197 C205 0.930 . S
H198 C206 0.930 . S
H199 C207 0.930 . S
H200 C210 0.930 . S
H201 C211 0.930 . S
C202 H196 0.930 . S
C202 C203 1.355 . S
C202 C204 1.415 . S
C203 C202 1.355 . S
C203 C205 1.419 . S
C204 C202 1.415 . S
C204 C209 1.425 . S
C204 C211 1.409 . S
C205 H197 0.930 . S
C205 C203 1.419 . S
C205 C206 1.362 . S
C206 H198 0.930 . S
C206 C205 1.362 . S
C206 C209 1.409 . S
C207 H199 0.930 . S
C207 C208 1.355 . S
C207 C209 1.415 . S
C208 C207 1.355 . S
C208 C210 1.419 . S
C209 C204 1.425 . S
C209 C206 1.409 . S
C209 C207 1.415 . S
C210 H200 0.930 . S
C210 C208 1.419 . S
C210 C211 1.362 . S
C211 H201 0.930 . S
C211 C204 1.409 . S
C211 C210 1.362 . S
H212 C218 0.930 . S
H213 C221 0.930 . S
H214 C222 0.930 . S
H215 C223 0.930 . S
H216 C226 0.930 . S
H217 C227 0.930 . S
C218 H212 0.930 . S
C218 C219 1.355 . S
C218 C220 1.415 . S
C219 C218 1.355 . S
C219 C221 1.419 . S
C220 C218 1.415 . S
C220 C225 1.425 . S
C220 C227 1.409 . S
C221 H213 0.930 . S
C221 C219 1.419 . S
C221 C222 1.362 . S
C222 H214 0.930 . S
C222 C221 1.362 . S
C222 C225 1.409 . S
C223 H215 0.930 . S
C223 C224 1.355 . S
C223 C225 1.415 . S
C224 C223 1.355 . S
C224 C226 1.419 . S
C225 C220 1.425 . S
C225 C222 1.409 . S
C225 C223 1.415 . S
C226 H216 0.930 . S
C226 C224 1.419 . S
C226 C227 1.362 . S
C227 H217 0.930 . S
C227 C220 1.409 . S
C227 C226 1.362 . S
H228 C234 0.930 . S
H229 C237 0.930 . S
H230 C238 0.930 . S
H231 C239 0.930 . S
H232 C242 0.930 . S
H233 C243 0.930 . S
C234 H228 0.930 . S
C234 C235 1.355 . S
C234 C236 1.415 . S
C235 C234 1.355 . S
C235 C237 1.419 . S
C236 C234 1.415 . S
C236 C241 1.425 1_556 S
C236 C243 1.409 . S
C237 H229 0.930 . S
C237 C235 1.419 . S
C237 C238 1.362 1_556 S
C238 H230 0.930 . S
C238 C237 1.362 1_554 S
C238 C241 1.409 . S
C239 H231 0.930 . S
C239 C240 1.355 . S
C239 C241 1.415 . S
C240 C239 1.355 . S
C240 C242 1.419 . S
C241 C236 1.425 1_554 S
C241 C238 1.409 . S
C241 C239 1.415 . S
C242 H232 0.930 . S
C242 C240 1.419 . S
C242 C243 1.362 1_554 S
C243 H233 0.930 . S
C243 C236 1.409 . S
C243 C242 1.362 1_556 S
H244 C250 0.930 . S
H245 C253 0.930 . S
H246 C254 0.930 . S
H247 C255 0.930 . S
H248 C258 0.930 . S
H249 C259 0.930 . S
C250 H244 0.930 . S
C250 C251 1.355 . S
C250 C252 1.415 . S
C251 C250 1.355 . S
C251 C253 1.419 . S
C252 C250 1.415 . S
C252 C257 1.425 1_655 S
C252 C259 1.409 . S
C253 H245 0.930 . S
C253 C251 1.419 . S
C253 C254 1.362 1_655 S
C254 H246 0.930 . S
C254 C253 1.362 1_455 S
C254 C257 1.409 . S
C255 H247 0.930 . S
C255 C256 1.355 . S
C255 C257 1.415 . S
C256 C255 1.355 . S
C256 C258 1.419 . S
C257 C252 1.425 1_455 S
C257 C254 1.409 . S
C257 C255 1.415 . S
C258 H248 0.930 . S
C258 C256 1.419 . S
C258 C259 1.362 1_455 S
C259 H249 0.930 . S
C259 C252 1.409 . S
C259 C258 1.362 1_655 S
H260 C266 0.930 . S
H261 C269 0.930 . S
H262 C270 0.930 . S
H263 C271 0.930 . S
H264 C274 0.930 . S
H265 C275 0.930 . S
C266 H260 0.930 . S
C266 C267 1.355 . S
C266 C268 1.415 1_545 S
C267 C266 1.355 . S
C267 C269 1.419 . S
C268 C266 1.415 1_565 S
C268 C273 1.425 1_566 S
C268 C275 1.409 . S
C269 H261 0.930 . S
C269 C267 1.419 . S
C269 C270 1.362 1_556 S
C270 H262 0.930 . S
C270 C269 1.362 1_554 S
C270 C273 1.409 . S
C271 H263 0.930 . S
C271 C272 1.355 . S
C271 C273 1.415 1_565 S
C272 C271 1.355 . S
C272 C274 1.419 . S
C273 C268 1.425 1_544 S
C273 C270 1.409 . S
C273 C271 1.415 1_545 S
C274 H264 0.930 . S
C274 C272 1.419 . S
C274 C275 1.362 1_554 S
C275 H265 0.930 . S
C275 C268 1.409 . S
C275 C274 1.362 1_556 S
H276 C282 0.930 . S
H277 C285 0.930 . S
H278 C286 0.930 . S
H279 C287 0.930 . S
H280 C290 0.930 . S
H281 C291 0.930 . S
C282 H276 0.930 . S
C282 C283 1.355 . S
C282 C284 1.415 . S
C283 C282 1.355 . S
C283 C285 1.419 . S
C284 C282 1.415 . S
C284 C289 1.425 . S
C284 C291 1.409 . S
C285 H277 0.930 . S
C285 C283 1.419 . S
C285 C286 1.362 . S
C286 H278 0.930 . S
C286 C285 1.362 . S
C286 C289 1.409 . S
C287 H279 0.930 . S
C287 C288 1.355 . S
C287 C289 1.415 . S
C288 C287 1.355 . S
C288 C290 1.419 . S
C289 C284 1.425 . S
C289 C286 1.409 . S
C289 C287 1.415 . S
C290 H280 0.930 . S
C290 C288 1.419 . S
C290 C291 1.362 . S
C291 H281 0.930 . S
C291 C284 1.409 . S
C291 C290 1.362 . S
H292 C298 0.930 . S
H293 C301 0.930 . S
H294 C302 0.930 . S
H295 C303 0.930 . S
H296 C306 0.930 . S
H297 C307 0.930 . S
C298 H292 0.930 . S
C298 C299 1.355 . S
C298 C300 1.415 1_556 S
C299 C298 1.355 . S
C299 C301 1.419 . S
C300 C298 1.415 1_554 S
C300 C305 1.425 1_654 S
C300 C307 1.409 . S
C301 H293 0.930 . S
C301 C299 1.419 . S
C301 C302 1.362 1_655 S
C302 H294 0.930 . S
C302 C301 1.362 1_455 S
C302 C305 1.409 . S
C303 H295 0.930 . S
C303 C304 1.355 . S
C303 C305 1.415 1_554 S
C304 C303 1.355 . S
C304 C306 1.419 . S
C305 C300 1.425 1_456 S
C305 C302 1.409 . S
C305 C303 1.415 1_556 S
C306 H296 0.930 . S
C306 C304 1.419 . S
C306 C307 1.362 1_455 S
C307 H297 0.930 . S
C307 C300 1.409 . S
C307 C306 1.362 1_655 S
H308 C314 0.930 . S
H309 C317 0.930 . S
H310 C318 0.930 . S
H311 C319 0.930 . S
H312 C322 0.930 . S
H313 C323 0.930 . S
C314 H308 0.930 . S
C314 C315 1.355 . S
C314 C316 1.415 1_545 S
C315 C314 1.355 . S
C315 C317 1.419 . S
C316 C314 1.415 1_565 S
C316 C321 1.425 1_565 S
C316 C323 1.409 . S
C317 H309 0.930 . S
C317 C315 1.419 . S
C317 C318 1.362 . S
C318 H310 0.930 . S
C318 C317 1.362 . S
C318 C321 1.409 . S
C319 H311 0.930 . S
C319 C320 1.355 . S
C319 C321 1.415 1_565 S
C320 C319 1.355 . S
C320 C322 1.419 . S
C321 C316 1.425 1_545 S
C321 C318 1.409 . S
C321 C319 1.415 1_545 S
C322 H312 0.930 . S
C322 C320 1.419 . S
C322 C323 1.362 . S
C323 H313 0.930 . S
C323 C316 1.409 . S
C323 C322 1.362 . S
H324 C330 0.935 . S
H325 C333 0.930 . S
H326 C334 0.930 . S
H327 C335 0.935 . S
H328 C338 0.930 . S
H329 C339 0.930 . S
C330 H324 0.935 . S
C330 C331 1.355 . S
C330 C332 1.415 1_554 S
C331 C330 1.355 . S
C331 C333 1.419 . S
C332 C330 1.415 1_556 S
C332 C337 1.425 1_556 S
C332 C339 1.409 . S
C333 H325 0.930 . S
C333 C331 1.419 . S
C333 C334 1.362 . S
C334 H326 0.930 . S
C334 C333 1.362 . S
C334 C337 1.409 . S
C335 H327 0.935 . S
C335 C336 1.355 . S
C335 C337 1.415 1_556 S
C336 C335 1.355 . S
C336 C338 1.419 . S
C337 C332 1.425 1_554 S
C337 C334 1.409 . S
C337 C335 1.415 1_554 S
C338 H328 0.930 . S
C338 C336 1.419 . S
C338 C339 1.362 . S
C339 H329 0.930 . S
C339 C332 1.409 . S
C339 C338 1.362 . S
H340 C346 0.930 . S
H341 C349 0.930 . S
H342 C350 0.930 . S
H343 C351 0.930 . S
H344 C354 0.930 . S
H345 C355 0.930 . S
C346 H340 0.930 . S
C346 C347 1.355 . S
C346 C348 1.415 . S
C347 C346 1.355 . S
C347 C349 1.419 . S
C348 C346 1.415 . S
C348 C353 1.425 1_655 S
C348 C355 1.409 . S
C349 H341 0.930 . S
C349 C347 1.419 . S
C349 C350 1.362 1_655 S
C350 H342 0.930 . S
C350 C349 1.362 1_455 S
C350 C353 1.409 . S
C351 H343 0.930 . S
C351 C352 1.355 . S
C351 C353 1.415 . S
C352 C351 1.355 . S
C352 C354 1.419 . S
C353 C348 1.425 1_455 S
C353 C350 1.409 . S
C353 C351 1.415 . S
C354 H344 0.930 . S
C354 C352 1.419 . S
C354 C355 1.362 1_455 S
C355 H345 0.930 . S
C355 C348 1.409 . S
C355 C354 1.362 1_655 S
H356 C362 0.927 1_556 S
H357 C365 0.930 . S
H358 C366 0.930 . S
H359 C367 0.930 . S
H360 C370 0.930 . S
H361 C371 0.930 . S
C362 H356 0.927 1_554 S
C362 C363 1.355 . S
C362 C364 1.415 1_554 S
C363 C362 1.355 . S
C363 C365 1.419 . S
C364 C362 1.415 1_556 S
C364 C369 1.425 1_566 S
C364 C371 1.409 . S
C365 H357 0.930 . S
C365 C363 1.419 . S
C365 C366 1.362 1_565 S
C366 H358 0.930 . S
C366 C365 1.362 1_545 S
C366 C369 1.409 . S
C367 H359 0.930 . S
C367 C368 1.355 . S
C367 C369 1.415 1_556 S
C368 C367 1.355 . S
C368 C370 1.419 . S
C369 C364 1.425 1_544 S
C369 C366 1.409 . S
C369 C367 1.415 1_554 S
C370 H360 0.930 . S
C370 C368 1.419 . S
C370 C371 1.362 1_545 S
C371 H361 0.930 . S
C371 C364 1.409 . S
C371 C370 1.362 1_565 S
H372 C378 0.930 . S
H373 C381 0.930 . S
H374 C382 0.930 . S
H375 C383 0.930 . S
H376 C386 0.930 . S
H377 C387 0.930 . S
C378 H372 0.930 . S
C378 C379 1.355 . S
C378 C380 1.415 . S
C379 C378 1.355 . S
C379 C381 1.419 . S
C380 C378 1.415 . S
C380 C385 1.425 . S
C380 C387 1.409 . S
C381 H373 0.930 . S
C381 C379 1.419 . S
C381 C382 1.362 . S
C382 H374 0.930 . S
C382 C381 1.362 . S
C382 C385 1.409 . S
C383 H375 0.930 . S
C383 C384 1.355 . S
C383 C385 1.415 . S
C384 C383 1.355 . S
C384 C386 1.419 . S
C385 C380 1.425 . S
C385 C382 1.409 . S
C385 C383 1.415 . S
C386 H376 0.930 . S
C386 C384 1.419 . S
C386 C387 1.362 . S
C387 H377 0.930 . S
C387 C380 1.409 . S
C387 C386 1.362 . S
H388 C394 0.930 . S
H389 C397 0.930 . S
H390 C398 0.930 . S
H391 C399 0.930 . S
H392 C402 0.930 . S
H393 C403 0.930 . S
C394 H388 0.930 . S
C394 C395 1.355 . S
C394 C396 1.415 1_655 S
C395 C394 1.355 . S
C395 C397 1.419 . S
C396 C394 1.415 1_455 S
C396 C401 1.425 1_456 S
C396 C403 1.409 . S
C397 H389 0.930 . S
C397 C395 1.419 . S
C397 C398 1.362 1_556 S
C398 H390 0.930 . S
C398 C397 1.362 1_554 S
C398 C401 1.409 . S
C399 H391 0.930 . S
C399 C400 1.355 . S
C399 C401 1.415 1_455 S
C400 C399 1.355 . S
C400 C402 1.419 . S
C401 C396 1.425 1_654 S
C401 C398 1.409 . S
C401 C399 1.415 1_655 S
C402 H392 0.930 . S
C402 C400 1.419 . S
C402 C403 1.362 1_554 S
C403 H393 0.930 . S
C403 C396 1.409 . S
C403 C402 1.362 1_556 S
H404 C410 0.930 . S
H405 C413 0.930 . S
H406 C414 0.930 . S
H407 C415 0.930 . S
H408 C418 0.930 . S
H409 C419 0.930 . S
C410 H404 0.930 . S
C410 C411 1.355 . S
C410 C412 1.415 1_565 S
C411 C410 1.355 . S
C411 C413 1.419 . S
C412 C410 1.415 1_545 S
C412 C417 1.425 1_545 S
C412 C419 1.409 . S
C413 H405 0.930 . S
C413 C411 1.419 . S
C413 C414 1.362 . S
C414 H406 0.930 . S
C414 C413 1.362 . S
C414 C417 1.409 . S
C415 H407 0.930 . S
C415 C416 1.355 . S
C415 C417 1.415 1_545 S
C416 C415 1.355 . S
C416 C418 1.419 . S
C417 C412 1.425 1_565 S
C417 C414 1.409 . S
C417 C415 1.415 1_565 S
C418 H408 0.930 . S
C418 C416 1.419 . S
C418 C419 1.362 . S
C419 H409 0.930 . S
C419 C412 1.409 . S
C419 C418 1.362 . S
C139 C15 1.459 . S
C144 C103 1.467 . S
C155 C40 1.448 . S
C160 C117 1.415 . S
C171 C10 1.426 . S
C176 C54 1.392 . S
C187 C81 1.464 . S
C192 C29 1.461 . S
C203 C59 1.397 . S
C208 C98 1.460 . S
C219 C76 1.421 . S
C224 C128 1.393 . S
C235 C120 1.476 . S
C240 C8 1.477 . S
C251 C43 1.547 . S
C256 C7 1.556 . S
C267 C32 1.512 . S
C272 C51 1.493 . S
C283 C52 1.477 . S
C288 C74 1.482 . S
C299 C73 1.548 . S
C304 C95 1.555 . S
C315 C131 1.514 . S
C320 C96 1.510 . S
C331 C62 1.481 . S
C336 C84 1.481 . S
C347 C87 1.552 . S
C352 C109 1.539 . S
C363 C106 1.519 . S
C368 C125 1.517 . S
C379 C118 1.473 . S
C384 C18 1.473 . S
C395 C37 1.527 . S
C400 C21 1.525 . S
C411 C65 1.492 . S
C416 C30 1.510 . S
