# Generated by pormake.
# Topology zfi, (5)-cn, num edge types: 1
# Building blocks:
#     Node 0, Type 0, BuildingBlock: XOMCOT_clean_sbu_0, # of connection points: 5
#     Node 1, Type 0, BuildingBlock: XOMCOT_clean_sbu_0, # of connection points: 5
#     Node 2, Type 0, BuildingBlock: XOMCOT_clean_sbu_0, # of connection points: 5
#     Node 3, Type 0, BuildingBlock: XOMCOT_clean_sbu_0, # of connection points: 5
#     Node 4, Type 0, BuildingBlock: XOMCOT_clean_sbu_0, # of connection points: 5
#     Node 5, Type 0, BuildingBlock: XOMCOT_clean_sbu_0, # of connection points: 5
#     Node 6, Type 0, BuildingBlock: XOMCOT_clean_sbu_0, # of connection points: 5
#     Node 7, Type 0, BuildingBlock: XOMCOT_clean_sbu_0, # of connection points: 5
#     Node 8, Type 0, BuildingBlock: XOMCOT_clean_sbu_0, # of connection points: 5
#     Node 9, Type 0, BuildingBlock: XOMCOT_clean_sbu_0, # of connection points: 5
#     Node 10, Type 0, BuildingBlock: XOMCOT_clean_sbu_0, # of connection points: 5
#     Node 11, Type 0, BuildingBlock: XOMCOT_clean_sbu_0, # of connection points: 5
#     Node 12, Type 0, BuildingBlock: XOMCOT_clean_sbu_0, # of connection points: 5
#     Node 13, Type 0, BuildingBlock: XOMCOT_clean_sbu_0, # of connection points: 5
#     Node 14, Type 0, BuildingBlock: XOMCOT_clean_sbu_0, # of connection points: 5
#     Node 15, Type 0, BuildingBlock: XOMCOT_clean_sbu_0, # of connection points: 5
#     Edge 16, Type (0, 0), BuildingBlock: AJUNOK_clean_linker_0, # of connection points: 2
#     Edge 17, Type (0, 0), BuildingBlock: AJUNOK_clean_linker_0, # of connection points: 2
#     Edge 18, Type (0, 0), BuildingBlock: AJUNOK_clean_linker_0, # of connection points: 2
#     Edge 19, Type (0, 0), BuildingBlock: AJUNOK_clean_linker_0, # of connection points: 2
#     Edge 20, Type (0, 0), BuildingBlock: AJUNOK_clean_linker_0, # of connection points: 2
#     Edge 21, Type (0, 0), BuildingBlock: AJUNOK_clean_linker_0, # of connection points: 2
#     Edge 22, Type (0, 0), BuildingBlock: AJUNOK_clean_linker_0, # of connection points: 2
#     Edge 23, Type (0, 0), BuildingBlock: AJUNOK_clean_linker_0, # of connection points: 2
#     Edge 24, Type (0, 0), BuildingBlock: AJUNOK_clean_linker_0, # of connection points: 2
#     Edge 25, Type (0, 0), BuildingBlock: AJUNOK_clean_linker_0, # of connection points: 2
#     Edge 26, Type (0, 0), BuildingBlock: AJUNOK_clean_linker_0, # of connection points: 2
#     Edge 27, Type (0, 0), BuildingBlock: AJUNOK_clean_linker_0, # of connection points: 2
#     Edge 28, Type (0, 0), BuildingBlock: AJUNOK_clean_linker_0, # of connection points: 2
#     Edge 29, Type (0, 0), BuildingBlock: AJUNOK_clean_linker_0, # of connection points: 2
#     Edge 30, Type (0, 0), BuildingBlock: AJUNOK_clean_linker_0, # of connection points: 2
#     Edge 31, Type (0, 0), BuildingBlock: AJUNOK_clean_linker_0, # of connection points: 2
#     Edge 32, Type (0, 0), BuildingBlock: AJUNOK_clean_linker_0, # of connection points: 2
#     Edge 33, Type (0, 0), BuildingBlock: AJUNOK_clean_linker_0, # of connection points: 2
#     Edge 34, Type (0, 0), BuildingBlock: AJUNOK_clean_linker_0, # of connection points: 2
#     Edge 35, Type (0, 0), BuildingBlock: AJUNOK_clean_linker_0, # of connection points: 2
#     Edge 36, Type (0, 0), BuildingBlock: AJUNOK_clean_linker_0, # of connection points: 2
#     Edge 37, Type (0, 0), BuildingBlock: AJUNOK_clean_linker_0, # of connection points: 2
#     Edge 38, Type (0, 0), BuildingBlock: AJUNOK_clean_linker_0, # of connection points: 2
#     Edge 39, Type (0, 0), BuildingBlock: AJUNOK_clean_linker_0, # of connection points: 2
#     Edge 40, Type (0, 0), BuildingBlock: AJUNOK_clean_linker_0, # of connection points: 2
#     Edge 41, Type (0, 0), BuildingBlock: AJUNOK_clean_linker_0, # of connection points: 2
#     Edge 42, Type (0, 0), BuildingBlock: AJUNOK_clean_linker_0, # of connection points: 2
#     Edge 43, Type (0, 0), BuildingBlock: AJUNOK_clean_linker_0, # of connection points: 2
#     Edge 44, Type (0, 0), BuildingBlock: AJUNOK_clean_linker_0, # of connection points: 2
#     Edge 45, Type (0, 0), BuildingBlock: AJUNOK_clean_linker_0, # of connection points: 2
#     Edge 46, Type (0, 0), BuildingBlock: AJUNOK_clean_linker_0, # of connection points: 2
#     Edge 47, Type (0, 0), BuildingBlock: AJUNOK_clean_linker_0, # of connection points: 2
#     Edge 48, Type (0, 0), BuildingBlock: AJUNOK_clean_linker_0, # of connection points: 2
#     Edge 49, Type (0, 0), BuildingBlock: AJUNOK_clean_linker_0, # of connection points: 2
#     Edge 50, Type (0, 0), BuildingBlock: AJUNOK_clean_linker_0, # of connection points: 2
#     Edge 51, Type (0, 0), BuildingBlock: AJUNOK_clean_linker_0, # of connection points: 2
#     Edge 52, Type (0, 0), BuildingBlock: AJUNOK_clean_linker_0, # of connection points: 2
#     Edge 53, Type (0, 0), BuildingBlock: AJUNOK_clean_linker_0, # of connection points: 2
#     Edge 54, Type (0, 0), BuildingBlock: AJUNOK_clean_linker_0, # of connection points: 2
#     Edge 55, Type (0, 0), BuildingBlock: AJUNOK_clean_linker_0, # of connection points: 2
# Relax obj value: 0.099
# Max RMSD: 0.123
# Mean RMSD: 0.123
data_MOF--net-zfi--node1-XOMCOT_clean_sbu_0--edge1-AJUNOK_clean_linker_0
_symmetry_space_group_name_H-M    P1
_symmetry_Int_Tables_number       1
_symmetry_cell_setting            triclinic
loop_
_symmetry_equiv_pos_as_xyz
'x, y, z'
_cell_length_a     29.732761
_cell_length_b     29.738759
_cell_length_c     35.103202
_cell_angle_alpha  90.138091
_cell_angle_beta   89.888653
_cell_angle_gamma 89.868202
loop_
_atom_site_label
_atom_site_type_symbol
_atom_site_fract_x
_atom_site_fract_y
_atom_site_fract_z
_atom_type_partial_charge
Co0 Co 0.65142 0.09314 0.13199 0.0
C1 C 0.69384 0.18491 0.12975 0.0
C2 C 0.64755 0.17557 0.08386 0.0
C3 C 0.67025 0.21541 0.0784 0.0
N4 N 0.66324 0.15534 0.11551 0.0
N5 N 0.70054 0.22066 0.10665 0.0
H6 H 0.71314 0.17927 0.15538 0.0
H7 H 0.6225 0.16202 0.0649 0.0
C8 C 0.60765 0.07373 0.05333 0.0
O9 O 0.64519 0.07701 0.03378 0.0
N10 N 0.63969 0.03181 0.14823 0.0
C11 C 0.66847 1.00531 0.1676 0.0
C12 C 0.6552 0.9612 0.16345 0.0
C13 C 0.60857 1.00347 0.13369 0.0
N14 N 0.6178 0.96018 0.14174 0.0
C15 C 0.74455 0.08989 0.1167 0.0
C16 C 0.74697 1.00805 0.07984 0.0
C17 C 0.7873 1.02648 0.09364 0.0
C18 C 0.78544 0.06855 0.11124 0.0
C19 C 0.70607 0.03111 0.08573 0.0
N20 N 0.70501 0.07126 0.10503 0.0
H21 H 0.74507 0.11849 0.13503 0.0
H22 H 0.67518 1.01443 0.07802 0.0
H23 H 0.69938 1.01672 0.18059 0.0
H24 H 0.58205 1.01344 0.11462 0.0
O25 O 0.68013 0.10529 0.1803 0.0
O26 O 0.60737 0.11426 0.16836 0.0
O27 O 0.60718 0.08283 0.08889 0.0
C28 C 0.64029 0.11576 0.19271 0.0
H29 H 0.66561 0.23797 0.05459 0.0
H30 H 0.67333 0.93195 0.17349 0.0
H31 H 0.74667 0.97509 0.06667 0.0
H32 H 0.81486 0.08324 0.12445 0.0
Co33 Co 0.47266 0.65624 0.12763 0.0
C34 C 0.39681 0.72212 0.11859 0.0
C35 C 0.38331 0.65798 0.09277 0.0
C36 C 0.3457 0.68471 0.08909 0.0
N37 N 0.41542 0.68131 0.11115 0.0
N38 N 0.35417 0.72502 0.10516 0.0
H39 H 0.41354 0.74849 0.13441 0.0
H40 H 0.38653 0.62337 0.08363 0.0
C41 C 0.49881 0.61486 0.05008 0.0
O42 O 0.51833 0.65159 0.03774 0.0
N43 N 0.52972 0.62916 0.14324 0.0
C44 C 0.54218 0.61118 0.17698 0.0
C45 C 0.58662 0.59788 0.17463 0.0
C46 C 0.5668 0.62602 0.12103 0.0
N47 N 0.60165 0.60717 0.13934 0.0
C48 C 0.53671 0.72447 0.13148 0.0
C49 C 0.51012 0.77632 0.07051 0.0
C50 C 0.5429 0.79286 0.09575 0.0
C51 C 0.55657 0.76579 0.12587 0.0
C52 C 0.49179 0.7331 0.0765 0.0
N53 N 0.50526 0.70769 0.10695 0.0
H54 H 0.54476 0.70733 0.15764 0.0
H55 H 0.4653 0.72124 0.05798 0.0
H56 H 0.52111 0.60793 0.20187 0.0
H57 H 0.56928 0.63927 0.09258 0.0
O58 O 0.46383 0.68244 0.1773 0.0
O59 O 0.44012 0.61477 0.16024 0.0
O60 O 0.4761 0.61544 0.08108 0.0
C61 C 0.44329 0.64561 0.1866 0.0
H62 H 0.31425 0.67513 0.07589 0.0
H63 H 0.60622 0.58215 0.1969 0.0
H64 H 0.498 0.79691 0.04727 0.0
H65 H 0.5804 0.77788 0.14687 0.0
Co66 Co 0.90255 0.46995 0.13561 0.0
C67 C 0.85632 0.37972 0.13241 0.0
C68 C 0.90918 0.3847 0.09122 0.0
C69 C 0.88737 0.34433 0.08622 0.0
N70 N 0.88871 0.40808 0.1193 0.0
N71 N 0.853 0.34178 0.11129 0.0
H72 H 0.83413 0.38721 0.15604 0.0
H73 H 0.93772 0.39595 0.07484 0.0
C74 C 0.94639 0.48411 0.05715 0.0
O75 O 0.9081 0.48013 0.03889 0.0
N76 N 0.91716 0.531 0.15218 0.0
C77 C 0.89308 0.55718 0.17611 0.0
C78 C 0.9085 0.60079 0.17352 0.0
C79 C 0.94712 0.55922 0.13583 0.0
N80 N 0.94219 0.60226 0.14764 0.0
C81 C 0.81051 0.4765 0.11454 0.0
C82 C 0.81482 0.56141 0.08345 0.0
C83 C 0.77309 0.5435 0.09375 0.0
C84 C 0.77107 0.49967 0.10725 0.0
C85 C 0.85388 0.5357 0.08932 0.0
N86 N 0.8517 0.49456 0.10685 0.0
H87 H 0.80699 0.44671 0.13091 0.0
H88 H 0.88587 0.55085 0.08284 0.0
H89 H 0.86412 0.54623 0.19223 0.0
H90 H 0.96888 0.54942 0.11283 0.0
O91 O 0.87109 0.46012 0.18299 0.0
O92 O 0.94354 0.44603 0.1731 0.0
O93 O 0.94811 0.47718 0.09301 0.0
C94 C 0.90948 0.44664 0.19651 0.0
H95 H 0.89579 0.31921 0.065 0.0
H96 H 0.89428 0.62949 0.18826 0.0
H97 H 0.81744 0.59557 0.07307 0.0
H98 H 0.73934 0.48525 0.11634 0.0
Co99 Co 0.08695 0.90331 0.12207 0.0
C100 C 0.18253 0.86963 0.12361 0.0
C101 C 0.16819 0.90476 0.0719 0.0
C102 C 0.21081 0.88656 0.0693 0.0
N103 N 0.14976 0.89358 0.10577 0.0
N104 N 0.21963 0.864 0.10166 0.0
H105 H 0.17818 0.85345 0.15094 0.0
H106 H 0.15144 0.92277 0.04942 0.0
C107 C 0.06469 0.94665 0.04456 0.0
O108 O 0.06404 0.90805 0.02637 0.0
N109 N 1.02487 0.91391 0.13822 0.0
C110 C 0.99984 0.88813 0.16157 0.0
C111 C 0.95568 0.90233 0.15981 0.0
C112 C 0.99543 0.94352 0.12296 0.0
N113 N 0.95277 0.937 0.1351 0.0
C114 C 0.0903 0.81138 0.103 0.0
C115 C 1.00312 0.80376 0.07746 0.0
C116 C 1.02544 0.76502 0.09051 0.0
C117 C 0.07027 0.76937 0.10177 0.0
C118 C 1.02462 0.84581 0.07945 0.0
N119 N 0.06708 0.84964 0.09428 0.0
H120 H 0.12236 0.81278 0.11662 0.0
H121 H 1.00524 0.87542 0.07263 0.0
H122 H 1.01212 0.85915 0.17692 0.0
H123 H 1.00439 0.96701 0.10113 0.0
O124 O 0.09829 0.87314 0.16968 0.0
O125 O 0.10737 0.9462 0.15994 0.0
O126 O 0.07713 0.94829 0.07937 0.0
C127 C 0.10851 0.91234 0.18345 0.0
H128 H 0.23218 0.88688 0.04429 0.0
H129 H 0.92771 0.88705 0.17463 0.0
H130 H 0.9684 0.80212 0.06831 0.0
H131 H 0.08875 0.74143 0.11378 0.0
Co132 Co 0.15527 0.96495 0.40467 0.0
C133 C 0.19438 0.87192 0.40574 0.0
C134 C 0.15772 0.88601 0.45691 0.0
C135 C 0.1807 0.84611 0.46152 0.0
N136 N 0.16704 0.90317 0.42218 0.0
N137 N 0.20388 0.83746 0.42942 0.0
H138 H 0.21069 0.87617 0.37842 0.0
H139 H 0.13814 0.90225 0.47879 0.0
C140 C 0.11154 0.98649 0.48312 0.0
O141 O 0.14946 0.9856 0.50221 0.0
N142 N 0.14395 1.02622 0.38743 0.0
C143 C 0.16809 0.04946 0.3616 0.0
C144 C 0.15633 0.09426 0.36381 0.0
C145 C 0.11762 0.05736 0.40458 0.0
N146 N 0.12532 0.09936 0.39167 0.0
C147 C 0.24793 0.96626 0.42028 0.0
C148 C 0.25178 0.04955 0.45467 0.0
C149 C 0.29169 0.02966 0.44127 0.0
C150 C 0.28922 0.98683 0.42506 0.0
C151 C 0.21056 0.02743 0.4493 0.0
N152 N 0.2088 0.98667 0.43109 0.0
H153 H 0.24779 0.93641 0.40325 0.0
H154 H 0.18013 0.045 0.45706 0.0
H155 H 0.19438 0.03551 0.34381 0.0
H156 H 0.09571 0.05031 0.42821 0.0
O157 O 0.18388 0.95218 0.35628 0.0
O158 O 0.11138 0.94268 0.36871 0.0
O159 O 0.11093 0.97581 0.44783 0.0
C160 C 0.14418 0.94106 0.34413 0.0
H161 H 0.18309 0.82679 0.48755 0.0
H162 H 0.17046 0.12074 0.34655 0.0
H163 H 0.25209 0.08293 0.46706 0.0
H164 H 0.3184 0.97084 0.41238 0.0
Co165 Co 0.58921 0.15387 0.41461 0.0
C166 C 0.6809 0.19499 0.41693 0.0
C167 C 0.67086 0.15104 0.46432 0.0
C168 C 0.71139 0.17297 0.4689 0.0
N169 N 0.65087 0.16569 0.43209 0.0
N170 N 0.71715 0.20103 0.43936 0.0
H171 H 0.67548 0.21385 0.39103 0.0
H172 H 0.65666 0.12756 0.48432 0.0
C173 C 0.56904 0.11129 0.49332 0.0
O174 O 0.5716 0.14935 0.51223 0.0
N175 N 0.52826 0.14192 0.39712 0.0
C176 C 0.50418 0.1658 0.37168 0.0
C177 C 0.46026 0.15094 0.3724 0.0
C178 C 0.49863 0.11287 0.41263 0.0
N179 N 0.45678 0.11777 0.39845 0.0
C180 C 0.58549 0.24705 0.43004 0.0
C181 C 0.50086 0.24842 0.46204 0.0
C182 C 0.51862 0.28841 0.447 0.0
C183 C 0.56262 0.28752 0.43308 0.0
C184 C 0.52537 0.20812 0.45862 0.0
N185 N 0.56652 0.20738 0.44097 0.0
H186 H 0.61581 0.24778 0.4138 0.0
H187 H 0.50912 0.1772 0.46679 0.0
H188 H 0.51694 0.1937 0.35522 0.0
H189 H 0.50649 0.09115 0.43607 0.0
O190 O 0.60247 0.18241 0.36645 0.0
O191 O 0.6113 0.10972 0.37871 0.0
O192 O 0.57844 0.11003 0.45782 0.0
C193 C 0.61323 0.14253 0.35428 0.0
H194 H 0.73358 0.17063 0.49321 0.0
H195 H 0.43277 0.16465 0.3559 0.0
H196 H 0.46734 0.2476 0.47409 0.0
H197 H 0.57784 0.31706 0.42052 0.0
Co198 Co 0.39846 0.58345 0.40652 0.0
C199 C 0.35868 0.6761 0.40809 0.0
C200 C 0.39808 0.66372 0.45791 0.0
C201 C 0.3761 0.7043 0.46229 0.0
N202 N 0.3865 0.64521 0.42418 0.0
N203 N 0.35085 0.71182 0.43111 0.0
H204 H 0.34177 0.67127 0.38115 0.0
H205 H 0.41912 0.64831 0.47915 0.0
C206 C 0.44423 0.5629 0.48362 0.0
O207 O 0.40671 0.5646 0.50336 0.0
N208 N 0.41009 0.52222 0.389 0.0
C209 C 0.38445 0.49812 0.36481 0.0
C210 C 0.39662 0.45347 0.36714 0.0
C211 C 0.4378 0.49171 0.40522 0.0
N212 N 0.42941 0.44926 0.3935 0.0
C213 C 0.30638 0.58075 0.4255 0.0
C214 C 0.30602 0.49608 0.45725 0.0
C215 C 0.2655 0.51437 0.44379 0.0
C216 C 0.26592 0.55835 0.42995 0.0
C217 C 0.34625 0.51994 0.45225 0.0
N218 N 0.34639 0.56103 0.43468 0.0
H219 H 0.30521 0.61152 0.40981 0.0
H220 H 0.37731 0.5033 0.45944 0.0
H221 H 0.35669 0.51136 0.34845 0.0
H222 H 0.46118 0.4996 0.42759 0.0
O223 O 0.36772 0.5955 0.35908 0.0
O224 O 0.44049 0.60615 0.36921 0.0
O225 O 0.44444 0.57348 0.44837 0.0
C226 C 0.40672 0.60721 0.34566 0.0
H227 H 0.37612 0.7249 0.48775 0.0
H228 H 0.38135 0.42649 0.35113 0.0
H229 H 0.30716 0.46259 0.46923 0.0
H230 H 0.23578 0.57393 0.4187 0.0
Co231 Co 0.9681 0.3963 0.41531 0.0
C232 C 0.87631 0.35612 0.41905 0.0
C233 C 0.88902 0.39659 0.4683 0.0
C234 C 0.84866 0.37445 0.47333 0.0
N235 N 0.90716 0.38432 0.43451 0.0
N236 N 0.84117 0.34855 0.44251 0.0
H237 H 0.88056 0.33888 0.39211 0.0
H238 H 0.90449 0.41835 0.48902 0.0
C239 C 0.99113 0.4396 0.49343 0.0
O240 O 0.98931 0.40173 0.51253 0.0
N241 N 0.02846 0.40777 0.39602 0.0
C242 C 0.05067 0.3837 0.36931 0.0
C243 C 0.09543 0.39558 0.36987 0.0
C244 C 0.06014 0.43413 0.41207 0.0
N245 N 0.10151 0.42659 0.39754 0.0
C246 C 0.97186 0.30328 0.4304 0.0
C247 C 0.05733 0.30144 0.46054 0.0
C248 C 0.03886 0.26156 0.44586 0.0
C249 C 0.99453 0.26267 0.43287 0.0
C250 C 0.03303 0.34186 0.45775 0.0
N251 N 0.99151 0.34283 0.4409 0.0
H252 H 0.94088 0.30276 0.41508 0.0
H253 H 0.04959 0.3726 0.46593 0.0
H254 H 0.0361 0.35739 0.35202 0.0
H255 H 0.05408 0.45592 0.43605 0.0
O256 O 0.95352 0.36788 0.36732 0.0
O257 O 0.94401 0.44029 0.38038 0.0
O258 O 0.98052 0.44042 0.4582 0.0
C259 C 0.94146 0.40759 0.35577 0.0
H260 H 0.82809 0.37486 0.49882 0.0
H261 H 0.12126 0.38158 0.35166 0.0
H262 H 0.09117 0.30201 0.47186 0.0
H263 H 0.9788 0.23313 0.42069 0.0
Co264 Co 0.3956 0.96843 0.91395 0.0
C265 C 0.35634 0.87648 0.92068 0.0
C266 C 0.40107 0.88993 0.96691 0.0
C267 C 0.3799 0.84941 0.97338 0.0
N268 N 0.38548 0.90773 0.93418 0.0
N269 N 0.35099 0.84128 0.94461 0.0
H270 H 0.33695 0.88093 0.89503 0.0
H271 H 0.42498 0.90551 0.9858 0.0
C272 C 0.44192 0.99371 0.99087 0.0
O273 O 0.40542 0.992 1.01195 0.0
N274 N 0.40532 0.0285 0.89371 0.0
C275 C 0.38049 0.0499 0.86721 0.0
C276 C 0.39243 0.0947 0.86676 0.0
C277 C 0.43208 0.06058 0.9086 0.0
N278 N 0.42429 0.10149 0.89353 0.0
C279 C 0.30255 0.97198 0.92992 0.0
C280 C 0.30118 0.05768 0.95987 0.0
C281 C 0.26121 0.03951 0.94512 0.0
C282 C 0.26208 0.99505 0.93226 0.0
C283 C 0.34146 0.03302 0.95715 0.0
N284 N 0.34223 0.99143 0.94028 0.0
H285 H 0.30184 0.94089 0.91471 0.0
H286 H 0.37233 0.04949 0.96506 0.0
H287 H 0.3539 0.0347 0.85067 0.0
H288 H 0.45452 0.0552 0.93212 0.0
O289 O 0.36668 0.95159 0.86667 0.0
O290 O 0.43962 0.94523 0.87851 0.0
O291 O 0.44043 0.9828 0.9557 0.0
C292 C 0.40664 0.941 0.85447 0.0
H293 H 0.38441 0.82828 0.99814 0.0
H294 H 0.37795 0.12002 0.84846 0.0
H295 H 0.30199 0.09157 0.97117 0.0
H296 H 0.23251 0.97944 0.92007 0.0
Co297 Co 0.58163 0.39853 0.90371 0.0
C298 C 0.67436 0.35995 0.90362 0.0
C299 C 0.66051 0.39369 0.9563 0.0
C300 C 0.70041 0.37019 0.95981 0.0
N301 N 0.64337 0.38663 0.92119 0.0
N302 N 0.70884 0.34888 0.92671 0.0
H303 H 0.66977 0.3448 0.87588 0.0
H304 H 0.64412 0.41183 0.979 0.0
C305 C 0.55996 0.44427 0.9813 0.0
O306 O 0.56136 0.40659 1.00067 0.0
N307 N 0.52069 0.409 0.88583 0.0
C308 C 0.49632 0.37911 0.86557 0.0
C309 C 0.45148 0.38997 0.86875 0.0
C310 C 0.49027 0.43836 0.90011 0.0
N311 N 0.44774 0.42661 0.89118 0.0
C312 C 0.57951 0.30654 0.92226 0.0
C313 C 0.49441 0.30569 0.95354 0.0
C314 C 0.51296 0.26538 0.93966 0.0
C315 C 0.55717 0.26599 0.92616 0.0
C316 C 0.51824 0.346 0.94913 0.0
N317 N 0.55949 0.34637 0.93168 0.0
H318 H 0.61042 0.30567 0.90661 0.0
H319 H 0.50126 0.37704 0.9561 0.0
H320 H 0.50961 0.34873 0.8528 0.0
H321 H 0.49863 0.46612 0.91861 0.0
O322 O 0.5941 0.36801 0.8562 0.0
O323 O 0.60429 0.44086 0.86665 0.0
O324 O 0.57056 0.4445 0.94594 0.0
C325 C 0.60569 0.40709 0.843 0.0
H326 H 0.71981 0.36613 0.98566 0.0
H327 H 0.42362 0.37021 0.85814 0.0
H328 H 0.4607 0.30666 0.96524 0.0
H329 H 0.57298 0.23602 0.91467 0.0
Co330 Co 0.15644 0.58702 0.91326 0.0
C331 C 0.19864 0.67764 0.92124 0.0
C332 C 0.15541 0.66378 0.96853 0.0
C333 C 0.17768 0.70364 0.97533 0.0
N334 N 0.16933 0.64664 0.9349 0.0
N335 N 0.20553 0.71211 0.9458 0.0
H336 H 0.21774 0.67289 0.89536 0.0
H337 H 0.13196 0.64811 0.98779 0.0
C338 C 0.10982 0.56081 0.98861 0.0
O339 O 0.1475 0.5601 1.00806 0.0
N340 N 0.14354 0.52816 0.89131 0.0
C341 C 0.16938 0.50552 0.86612 0.0
C342 C 0.15562 0.46136 0.86491 0.0
C343 C 0.11397 0.49743 0.90444 0.0
N344 N 0.12159 0.45596 0.89003 0.0
C345 C 0.24811 0.57991 0.93558 0.0
C346 C 0.24442 0.49026 0.95525 0.0
C347 C 0.28578 0.50958 0.94592 0.0
C348 C 0.28777 0.55547 0.93861 0.0
C349 C 0.20537 0.51661 0.95348 0.0
N350 N 0.20709 0.56015 0.94076 0.0
H351 H 0.2511 0.61297 0.92411 0.0
H352 H 0.1736 0.50028 0.95839 0.0
H353 H 0.19847 0.51906 0.85171 0.0
H354 H 0.09007 0.50399 0.92685 0.0
O355 O 0.18866 0.60232 0.8672 0.0
O356 O 0.11593 0.61426 0.87686 0.0
O357 O 0.10967 0.57433 0.95407 0.0
C358 C 0.15026 0.61596 0.85379 0.0
H359 H 0.1747 0.72394 1.00085 0.0
H360 H 0.17083 0.43533 0.84764 0.0
H361 H 0.24189 0.45459 0.96102 0.0
H362 H 0.31932 0.57122 0.93084 0.0
Co363 Co 0.96513 0.15777 0.90317 0.0
C364 C 0.87183 0.19585 0.90255 0.0
C365 C 0.88379 0.15805 0.95336 0.0
C366 C 0.84229 0.17873 0.95628 0.0
N367 N 0.90296 0.16934 0.91984 0.0
N368 N 0.83508 0.20294 0.92447 0.0
H369 H 0.87705 0.21247 0.87553 0.0
H370 H 0.89941 0.13823 0.97536 0.0
C371 C 0.9863 0.11245 0.98112 0.0
O372 O 0.98658 0.14972 1.00125 0.0
N373 N 1.02676 0.1465 0.88642 0.0
C374 C 0.05059 0.17121 0.86137 0.0
C375 C 0.09534 0.15937 0.86388 0.0
C376 C 0.05753 0.11969 0.90335 0.0
N377 N 0.09987 0.12769 0.89115 0.0
C378 C 0.96612 0.25045 0.91993 0.0
C379 C 0.05033 0.25326 0.95243 0.0
C380 C 0.03178 0.29297 0.9375 0.0
C381 C 0.98795 0.29138 0.92335 0.0
C382 C 1.02713 0.2125 0.94828 0.0
N383 N 0.98632 0.21109 0.9303 0.0
H384 H 0.93548 0.25058 0.90402 0.0
H385 H 0.04418 0.18195 0.95631 0.0
H386 H 0.03701 0.19791 0.84396 0.0
H387 H 0.04989 0.09707 0.9263 0.0
O388 O 0.95319 0.18666 0.85491 0.0
O389 O 0.94336 0.11409 0.8669 0.0
O390 O 0.97518 0.11312 0.94598 0.0
C391 C 0.94165 0.14708 0.84265 0.0
H392 H 0.82071 0.17873 0.98115 0.0
H393 H 0.12216 0.17391 0.84721 0.0
H394 H 0.08362 0.25304 0.96485 0.0
H395 H 0.97211 0.32079 0.91106 0.0
Co396 Co 0.89547 0.08422 0.62356 0.0
C397 C 0.85912 0.17793 0.62075 0.0
C398 C 0.89082 0.15963 0.56813 0.0
C399 C 0.86852 0.19986 0.56315 0.0
N400 N 0.88435 0.14512 0.60415 0.0
N401 N 0.84849 0.21113 0.59619 0.0
H402 H 0.8444 0.17539 0.64886 0.0
H403 H 0.90737 0.14104 0.54579 0.0
C404 C 0.94276 0.05872 0.54723 0.0
O405 O 0.90569 0.05606 0.52708 0.0
N406 N 0.90607 1.02371 0.64285 0.0
C407 C 0.88006 1.00123 0.66786 0.0
C408 C 0.89165 0.95637 0.66705 0.0
C409 C 0.9333 0.99204 0.62756 0.0
N410 N 0.92442 0.95039 0.6408 0.0
C411 C 0.80348 0.08277 0.60556 0.0
C412 C 0.80068 0.99526 0.57976 0.0
C413 C 0.76119 1.01508 0.59413 0.0
C414 C 0.76265 0.06042 0.60457 0.0
C415 C 0.84132 1.01913 0.58124 0.0
N416 N 0.84281 0.06153 0.59649 0.0
H417 H 0.80343 0.11503 0.61915 0.0
H418 H 0.87184 1.00148 0.57389 0.0
H419 H 0.85236 1.01563 0.68372 0.0
H420 H 0.95663 0.99843 0.6048 0.0
O421 O 0.86518 0.09881 0.67078 0.0
O422 O 0.93808 0.10786 0.65999 0.0
O423 O 0.94135 0.072 0.58186 0.0
C424 C 0.90444 0.1103 0.68372 0.0
H425 H 0.86404 0.21745 0.53643 0.0
H426 H 0.87604 0.93045 0.68399 0.0
H427 H 0.80092 0.96072 0.56995 0.0
H428 H 0.73337 0.07747 0.61607 0.0
Co429 Co 0.4658 0.9002 0.6341 0.0
C430 C 0.37333 0.86101 0.62899 0.0
C431 C 0.38686 0.90402 0.58164 0.0
C432 C 0.34666 0.88218 0.57541 0.0
N433 N 0.40449 0.88993 0.61492 0.0
N434 N 0.3385 0.85425 0.60486 0.0
H435 H 0.37797 0.84229 0.65497 0.0
H436 H 0.40257 0.92698 0.56202 0.0
C437 C 0.49027 0.94611 0.55711 0.0
O438 O 0.48956 0.90918 0.53653 0.0
N439 N 0.52651 0.91025 0.65306 0.0
C440 C 0.54923 0.88505 0.67846 0.0
C441 C 0.59404 0.89701 0.67745 0.0
C442 C 0.55784 0.93742 0.63751 0.0
N443 N 0.59961 0.92931 0.65082 0.0
C444 C 0.46778 0.80765 0.61711 0.0
C445 C 0.55194 0.80444 0.58425 0.0
C446 C 0.53204 0.76432 0.59682 0.0
C447 C 0.48881 0.76652 0.61226 0.0
C448 C 0.52928 0.84555 0.5896 0.0
N449 N 0.48805 0.84699 0.60711 0.0
H450 H 0.43773 0.80735 0.63375 0.0
H451 H 0.54687 0.87613 0.5827 0.0
H452 H 0.53488 0.85807 0.69509 0.0
H453 H 0.55112 0.9604 0.61466 0.0
O454 O 0.45048 0.87067 0.68146 0.0
O455 O 0.44332 0.94379 0.67039 0.0
O456 O 0.47868 0.94522 0.59215 0.0
C457 C 0.43965 0.91035 0.69402 0.0
H458 H 0.32604 0.88528 0.55019 0.0
H459 H 0.62017 0.88207 0.69462 0.0
H460 H 0.58568 0.80437 0.57257 0.0
H461 H 0.47278 0.73719 0.62441 0.0
Co462 Co 0.65669 0.46714 0.62443 0.0
C463 C 0.69741 0.37494 0.62168 0.0
C464 C 0.65769 0.38791 0.57211 0.0
C465 C 0.67872 0.34686 0.56772 0.0
N466 N 0.67003 0.40624 0.60572 0.0
N467 N 0.70421 0.33911 0.59866 0.0
H468 H 0.71439 0.37925 0.64867 0.0
H469 H 0.63648 0.40358 0.55111 0.0
C470 C 0.61263 0.4901 0.54642 0.0
O471 O 0.6504 0.49363 0.52723 0.0
N472 N 0.64297 0.52743 0.64304 0.0
C473 C 0.66659 0.55162 0.6686 0.0
C474 C 0.65156 0.59554 0.66784 0.0
C475 C 0.61379 0.55699 0.62752 0.0
N476 N 0.61855 0.59897 0.6416 0.0
C477 C 0.74967 0.47116 0.60894 0.0
C478 C 0.75134 0.55786 0.58155 0.0
C479 C 0.79123 0.53889 0.59586 0.0
C480 C 0.79018 0.49402 0.60745 0.0
C481 C 0.71098 0.53342 0.58347 0.0
N482 N 0.71007 0.49122 0.59904 0.0
H483 H 0.75026 0.43948 0.6232 0.0
H484 H 0.68017 0.55031 0.57583 0.0
H485 H 0.69475 0.53908 0.6849 0.0
H486 H 0.59236 0.54901 0.60394 0.0
O487 O 0.68488 0.4539 0.67268 0.0
O488 O 0.61288 0.44259 0.65926 0.0
O489 O 0.61296 0.47759 0.58118 0.0
C490 C 0.64532 0.44106 0.68407 0.0
H491 H 0.67769 0.32572 0.54261 0.0
H492 H 0.6653 0.6231 0.68425 0.0
H493 H 0.75067 0.59209 0.57115 0.0
H494 H 0.81964 0.47775 0.61926 0.0
Co495 Co 0.08724 0.65558 0.63386 0.0
C496 C 0.17802 0.69842 0.62836 0.0
C497 C 0.16698 0.65334 0.58181 0.0
C498 C 0.20652 0.67632 0.57552 0.0
N499 N 0.14814 0.66801 0.61456 0.0
N500 N 0.2132 0.70534 0.60454 0.0
H501 H 0.17238 0.71774 0.654 0.0
H502 H 0.15272 0.62887 0.56269 0.0
C503 C 0.06672 0.60666 0.55733 0.0
O504 O 0.06824 0.643 0.53617 0.0
N505 N 1.02675 0.64362 0.65296 0.0
C506 C 1.00374 0.66796 0.67899 0.0
C507 C 0.95897 0.65601 0.67762 0.0
C508 C 0.99546 0.61701 0.63656 0.0
N509 N 0.95362 0.62467 0.6501 0.0
C510 C 0.08101 0.74746 0.61544 0.0
C511 C 0.99726 0.74543 0.58208 0.0
C512 C 1.01418 0.7866 0.59548 0.0
C513 C 0.05769 0.78728 0.6103 0.0
C514 C 1.02221 0.70579 0.58763 0.0
N515 N 0.06289 0.70688 0.60587 0.0
H516 H 0.11108 0.74965 0.63189 0.0
H517 H 1.00679 0.67424 0.58017 0.0
H518 H 1.01772 0.69464 0.69622 0.0
H519 H 1.00208 0.59523 0.61272 0.0
O520 O 0.10061 0.68707 0.68085 0.0
O521 O 0.11215 0.61434 0.6708 0.0
O522 O 0.07646 0.60875 0.59272 0.0
C523 C 0.11387 0.64848 0.69402 0.0
H524 H 0.22781 0.67303 0.55062 0.0
H525 H 0.93264 0.6704 0.69508 0.0
H526 H 0.9641 0.74338 0.56951 0.0
H527 H 0.07216 0.81785 0.62176 0.0
C528 C 0.62584 0.88551 0.11171 0.0
C529 C 0.59814 0.92116 0.12387 0.0
C530 C 0.60745 0.84555 0.09755 0.0
C531 C 0.56059 0.83944 0.09528 0.0
H532 H 0.66203 0.88799 0.1143 0.0
H533 H 0.62997 0.81784 0.09109 0.0
S534 S 0.47359 0.92455 0.11878 0.0
N535 N 0.52166 0.94971 0.12872 0.0
N536 N 0.48702 0.87398 0.10274 0.0
C537 C 0.53261 0.87608 0.10436 0.0
C538 C 0.5514 0.91706 0.11861 0.0
C539 C 0.72705 0.59627 0.13188 0.0
C540 C 0.73229 0.57114 0.09815 0.0
C541 C 0.68423 0.60928 0.1447 0.0
C542 C 0.64553 0.59808 0.1239 0.0
H543 H 0.75583 0.60273 0.14997 0.0
H544 H 0.68112 0.62678 0.17166 0.0
S545 S 0.64197 0.535 0.03283 0.0
N546 N 0.69593 0.53717 0.0436 0.0
N547 N 0.61541 0.56267 0.06702 0.0
C548 C 0.65069 0.57548 0.08895 0.0
C549 C 0.69415 0.56176 0.07623 0.0
C550 C 0.9593 0.7231 0.11733 0.0
C551 C 1.00128 0.72206 0.09875 0.0
C552 C 0.94022 0.68399 0.13277 0.0
C553 C 0.96258 0.64209 0.13103 0.0
H554 H 0.94181 0.75471 0.12154 0.0
H555 H 0.90779 0.68699 0.14654 0.0
S556 S 0.07268 0.62114 0.08338 0.0
N557 N 0.06256 0.6749 0.076 0.0
N558 N 0.02963 0.60266 0.10852 0.0
C559 C 1.00425 0.64052 0.11165 0.0
C560 C 1.02274 0.68006 0.09465 0.0
C561 C 0.87029 0.9361 0.12322 0.0
C562 C 0.9121 0.95841 0.12093 0.0
C563 C 0.83016 0.95679 0.11134 0.0
C564 C 0.83015 1.00044 0.09602 0.0
H565 H 0.86817 0.9026 0.13498 0.0
H566 H 0.79871 0.93936 0.11613 0.0
S567 S 0.93001 0.07243 0.07998 0.0
N568 N 0.9502 1.02699 0.10073 0.0
N569 N 0.87568 0.06337 0.07509 0.0
C570 C 0.87187 1.02182 0.09087 0.0
C571 C 0.91253 1.00158 0.10419 0.0
C572 C 0.04605 0.17784 0.44304 0.0
C573 C 0.06602 0.22031 0.43831 0.0
C574 C 0.06556 0.13899 0.42771 0.0
C575 C 0.10672 0.14038 0.40775 0.0
H576 H 1.01381 0.17481 0.45725 0.0
H577 H 0.04717 0.10785 0.43063 0.0
S578 S 0.17623 0.24262 0.39223 0.0
N579 N 0.13084 0.26128 0.41434 0.0
N580 N 0.16953 0.18773 0.38831 0.0
C581 C 0.12874 0.18228 0.40513 0.0
C582 C 0.10813 0.22223 0.41998 0.0
C583 C 0.33437 0.09839 0.42173 0.0
C584 C 0.33454 0.05508 0.43776 0.0
C585 C 0.37437 0.11879 0.40949 0.0
C586 C 0.41612 0.09647 0.41223 0.0
H587 H 0.30289 0.11583 0.41678 0.0
H588 H 0.37231 0.15208 0.39726 0.0
S589 S 0.43461 0.98325 0.45449 0.0
N590 N 0.38021 0.99237 0.45937 0.0
N591 N 0.45463 0.02832 0.43309 0.0
C592 C 0.41678 0.05359 0.4294 0.0
C593 C 0.37625 0.03361 0.44303 0.0
C594 C 0.5109 0.37215 0.44347 0.0
C595 C 0.49093 0.32948 0.43991 0.0
C596 C 0.49068 0.41061 0.42825 0.0
C597 C 0.44874 0.40869 0.40965 0.0
H598 H 0.54365 0.37564 0.45663 0.0
H599 H 0.50911 0.44182 0.43017 0.0
S600 S 0.37871 0.306 0.39813 0.0
N601 N 0.42513 0.28792 0.41878 0.0
N602 N 0.38515 0.36078 0.39325 0.0
C603 C 0.42669 0.36668 0.40845 0.0
C604 C 0.44804 0.32711 0.42308 0.0
C605 C 0.14231 0.48728 0.4309 0.0
C606 C 0.14303 0.44554 0.41183 0.0
C607 C 0.18176 0.50726 0.44426 0.0
C608 C 0.22405 0.4871 0.43836 0.0
H609 H 0.11119 0.50569 0.43457 0.0
H610 H 0.17925 0.53994 0.45784 0.0
S611 S 0.24462 0.37525 0.39423 0.0
N612 N 0.18956 0.38195 0.3922 0.0
N613 N 0.26415 0.42137 0.41446 0.0
C614 C 0.22532 0.44436 0.421 0.0
C615 C 0.18482 0.42333 0.40818 0.0
C616 C 0.48582 0.1424 0.92558 0.0
C617 C 0.44389 0.14317 0.9069 0.0
C618 C 0.5059 0.18173 0.93905 0.0
C619 C 0.48579 0.22403 0.93351 0.0
H620 H 0.50422 0.11127 0.92908 0.0
H621 H 0.53853 0.17908 0.95257 0.0
S622 S 0.37438 0.24505 0.88917 0.0
N623 N 0.38075 0.18995 0.88714 0.0
N624 N 0.42047 0.2644 0.90948 0.0
C625 C 0.44319 0.22547 0.91603 0.0
C626 C 0.42199 0.18504 0.90318 0.0
C627 C 0.36768 0.44624 0.88411 0.0
C628 C 0.40656 0.44456 0.9068 0.0
C629 C 0.32756 0.46471 0.89813 0.0
C630 C 0.32493 0.48192 0.93536 0.0
H631 H 0.36875 0.43452 0.85489 0.0
H632 H 0.29892 0.46737 0.87919 0.0
S633 S 0.41469 0.48071 1.00796 0.0
N634 N 0.43811 0.45754 0.96995 0.0
N635 N 0.3628 0.49385 0.99549 0.0
C636 C 0.36271 0.47901 0.95887 0.0
C637 C 0.40356 0.45989 0.9448 0.0
C638 C 0.03814 0.37687 0.93481 0.0
C639 C 0.05876 0.33445 0.93094 0.0
C640 C 0.05867 0.41589 0.92108 0.0
C641 C 0.10141 0.41468 0.90368 0.0
H642 H 1.00493 0.37982 0.94733 0.0
H643 H 0.04011 0.44711 0.92341 0.0
S644 S 0.17242 0.31252 0.8908 0.0
N645 N 0.12544 0.29369 0.90999 0.0
N646 N 0.1658 0.36746 0.88726 0.0
C647 C 0.12372 0.37276 0.90173 0.0
C648 C 0.10215 0.33269 0.91485 0.0
C649 C 0.17743 0.04726 0.94182 0.0
C650 C 0.22012 0.06699 0.93752 0.0
C651 C 0.13882 0.06723 0.92662 0.0
C652 C 0.14062 0.10865 0.90723 0.0
H653 H 0.17401 1.01491 0.95565 0.0
H654 H 0.10755 0.04899 0.92921 0.0
S655 S 0.24347 0.17783 0.89321 0.0
N656 N 0.26166 0.13196 0.91464 0.0
N657 N 0.18857 0.17149 0.88899 0.0
C658 C 0.18272 0.13046 0.90513 0.0
C659 C 0.22243 0.10936 0.91979 0.0
C660 C 1.00595 0.87018 0.5942 0.0
C661 C 0.98607 0.82783 0.59987 0.0
C662 C 0.98563 0.90957 0.60762 0.0
C663 C 0.94362 0.90886 0.62627 0.0
H664 H 0.03883 0.87276 0.58104 0.0
H665 H 1.00413 0.94058 0.60435 0.0
S666 S 0.87355 0.80706 0.6423 0.0
N667 N 0.92016 0.78764 0.62262 0.0
N668 N 0.87987 0.86212 0.64468 0.0
C669 C 0.92152 0.86701 0.62931 0.0
C670 C 0.94302 0.82652 0.61659 0.0
C671 C 0.67753 1.00852 0.59934 0.0
C672 C 0.72015 0.98864 0.60374 0.0
C673 C 0.63903 0.98937 0.61533 0.0
C674 C 0.64074 0.94841 0.63549 0.0
H675 H 0.674 0.04026 0.58452 0.0
H676 H 0.60785 1.00778 0.61238 0.0
S677 S 0.74389 0.88007 0.6519 0.0
N678 N 0.76191 0.92486 0.62888 0.0
N679 N 0.68895 0.88656 0.65591 0.0
C680 C 0.68293 0.92678 0.63838 0.0
C681 C 0.7226 0.94719 0.62299 0.0
C682 C 0.62012 0.68137 0.63053 0.0
C683 C 0.59783 0.6397 0.62722 0.0
C684 C 0.60025 0.72144 0.61774 0.0
C685 C 0.55759 0.72144 0.6005 0.0
H686 H 0.65293 0.68335 0.64367 0.0
H687 H 0.61748 0.75284 0.62324 0.0
S688 S 0.48637 0.62172 0.58159 0.0
N689 N 0.53045 0.60156 0.60437 0.0
N690 N 0.49581 0.67601 0.57694 0.0
C691 C 0.53636 0.67981 0.59451 0.0
C692 C 0.55567 0.63924 0.60878 0.0
C693 C 0.91387 0.56478 0.61464 0.0
C694 C 0.9125 0.60602 0.6345 0.0
C695 C 0.87506 0.54551 0.59931 0.0
C696 C 0.83253 0.56568 0.60402 0.0
H697 H 0.94503 0.54625 0.61165 0.0
H698 H 0.87822 0.51336 0.58494 0.0
S699 S 0.81028 0.67609 0.65014 0.0
N700 N 0.86516 0.66907 0.65399 0.0
N701 N 0.7916 0.63077 0.62812 0.0
C702 C 0.83062 0.60779 0.62244 0.0
C703 C 0.87058 0.62822 0.63722 0.0
C704 C 0.75542 0.26807 0.14258 0.0
C705 C 0.73826 0.25178 0.1077 0.0
C706 C 0.79289 0.2973 0.14381 0.0
C707 C 0.81526 0.31076 0.11024 0.0
H708 H 0.73951 0.25843 0.16909 0.0
H709 H 0.80468 0.30912 0.1712 0.0
S710 S 0.78441 0.27762 1.01196 0.0
N711 N 0.7479 0.25082 0.03894 0.0
N712 N 0.81634 0.30651 0.04129 0.0
C713 C 0.79832 0.29476 0.07538 0.0
C714 C 0.76044 0.26516 0.07409 0.0
C715 C 0.27761 0.75321 0.11911 0.0
C716 C 0.32242 0.76178 0.10831 0.0
C717 C 0.24475 0.78727 0.1187 0.0
C718 C 0.25514 0.83117 0.10669 0.0
H719 H 0.26776 0.71958 0.12738 0.0
H720 H 0.2105 0.7787 0.12622 0.0
S721 S 0.36758 0.87152 0.07649 0.0
N722 N 0.37573 0.81781 0.08646 0.0
N723 N 0.31377 0.88164 0.08481 0.0
C724 C 0.29999 0.84042 0.09647 0.0
C725 C 0.33368 0.80585 0.09759 0.0
C726 C 0.27298 0.73297 0.41272 0.0
C727 C 0.31544 0.74509 0.42744 0.0
C728 C 0.23674 0.76359 0.41255 0.0
C729 C 0.24184 0.80745 0.42671 0.0
H730 H 0.26722 0.69906 0.4026 0.0
H731 H 0.2043 0.75272 0.40207 0.0
S732 S 0.34608 0.8573 0.46575 0.0
N733 N 0.3605 0.80515 0.45472 0.0
N734 N 0.29243 0.8623 0.45429 0.0
C735 C 0.28416 0.82044 0.44047 0.0
C736 C 0.32093 0.78937 0.44087 0.0
C737 C 0.82402 0.26807 0.43191 0.0
C738 C 0.80922 0.31225 0.4397 0.0
C739 C 0.7938 0.2317 0.43164 0.0
C740 C 0.7477 0.23851 0.43824 0.0
H741 H 0.85941 0.26151 0.42706 0.0
H742 H 0.80641 0.19807 0.42635 0.0
S743 S 0.69181 0.34735 0.45909 0.0
N744 N 0.74548 0.36046 0.45402 0.0
N745 N 0.6886 0.29239 0.45255 0.0
C746 C 0.73243 0.28246 0.44552 0.0
C747 C 0.76323 0.31927 0.44652 0.0
C748 C 0.26102 0.76106 0.97856 0.0
C749 C 0.24128 0.7454 0.94453 0.0
C750 C 0.29706 0.79152 0.97825 0.0
C751 C 0.31548 0.80775 0.94388 0.0
H752 H 0.24905 0.74929 1.00589 0.0
H753 H 0.31004 0.80293 1.00537 0.0
S754 S 0.27639 0.77754 0.84663 0.0
N755 N 0.24238 0.74974 0.87532 0.0
N756 N 0.31158 0.80474 0.87469 0.0
C757 C 0.29633 0.79218 0.90957 0.0
C758 C 0.25907 0.76159 0.9099 0.0
C759 C 0.78401 0.31808 0.91113 0.0
C760 C 0.739 0.31128 0.92178 0.0
C761 C 0.81477 0.28197 0.90992 0.0
C762 C 0.80165 0.23795 0.91988 0.0
H763 H 0.79566 0.3517 0.90476 0.0
H764 H 0.84957 0.28891 0.90302 0.0
S765 S 0.68698 0.2028 0.94862 0.0
N766 N 0.68233 0.25745 0.94114 0.0
N767 N 0.73995 0.18975 0.93928 0.0
C768 C 0.75627 0.23069 0.92933 0.0
C769 C 0.72499 0.26733 0.9302 0.0
C770 C 0.81888 0.2868 0.6112 0.0
C771 C 0.81152 0.2421 0.59996 0.0
C772 C 0.78322 0.31803 0.6123 0.0
C773 C 0.7392 0.30557 0.60176 0.0
H774 H 0.85252 0.29775 0.6184 0.0
H775 H 0.79042 0.35254 0.62002 0.0
S776 S 0.70243 0.19157 0.57281 0.0
N777 N 0.7571 0.18626 0.58 0.0
N778 N 0.69022 0.24481 0.58174 0.0
C779 C 0.73149 0.26063 0.59134 0.0
C780 C 0.76762 0.22891 0.59054 0.0
C781 C 0.29045 0.79836 0.57157 0.0
C782 C 0.30584 0.81787 0.60582 0.0
C783 C 0.26095 0.76154 0.57148 0.0
C784 C 0.24541 0.74205 0.60563 0.0
H785 H 0.3018 0.81105 0.54435 0.0
H786 H 0.24981 0.74872 0.54423 0.0
S787 S 0.27531 0.77978 0.70327 0.0
N788 N 0.30204 0.81511 0.67502 0.0
N789 N 0.2487 0.74459 0.67478 0.0
C790 C 0.26063 0.76093 0.64012 0.0
C791 C 0.29031 0.79895 0.64024 0.0
C792 C 0.52536 0.0528 0.05727 0.0
C793 C 0.56556 0.05493 0.03574 0.0
C794 C 0.48618 0.03222 0.04305 0.0
C795 C 0.48497 1.01283 1.00645 0.0
H796 H 0.52403 0.06693 0.08571 0.0
H797 H 0.45646 0.03192 0.06093 0.0
S798 S 0.58085 1.00925 0.93801 0.0
N799 N 0.60124 0.03571 0.97554 0.0
N800 N 0.52823 0.99715 0.94882 0.0
C801 C 0.52492 1.0148 0.98448 0.0
C802 C 0.56483 0.03585 0.99901 0.0
C803 C 0.52734 0.56833 0.99468 0.0
C804 C 0.51084 0.57045 0.03228 0.0
C805 C 0.54289 0.52766 0.97861 0.0
C806 C 0.54353 0.48712 0.99956 0.0
H807 H 0.52862 0.5985 0.9775 0.0
H808 H 0.55506 0.52828 0.94953 0.0
S809 S 0.50438 0.47422 0.09955 0.0
N810 N 0.49603 0.52791 0.09009 0.0
N811 N 0.52572 0.45215 0.06029 0.0
C812 C 0.52698 0.48875 0.03721 0.0
C813 C 0.51052 0.53007 0.0534 0.0
C814 C 0.02987 0.49868 0.05586 0.0
C815 C 0.98771 0.50149 0.03759 0.0
C816 C 0.06878 0.51806 0.04004 0.0
C817 C 0.06746 0.54179 1.00538 0.0
H818 H 0.03294 0.48156 0.08293 0.0
H819 H 0.10016 0.51447 0.05535 0.0
S820 S 0.96558 0.55902 0.94572 0.0
N821 N 0.94733 0.5296 0.98241 0.0
N822 N 1.01986 0.56652 0.95302 0.0
C823 C 1.02554 0.5446 0.9866 0.0
C824 C 0.98596 0.52439 1.00256 0.0
C825 C 0.03054 0.06995 0.03094 0.0
C826 C 1.0048 0.0695 0.99729 0.0
C827 C 0.05056 0.0305 0.0453 0.0
C828 C 0.04622 0.98861 0.0266 0.0
H829 H 0.03553 0.10111 0.04636 0.0
H830 H 0.06944 0.03296 0.07158 0.0
S831 S 0.98248 0.96876 0.93723 0.0
N832 N 0.97615 1.02303 0.94559 0.0
N833 N 1.01398 0.94953 0.97227 0.0
C834 C 1.02093 0.98774 0.99271 0.0
C835 C 1.00025 0.02786 0.9782 0.0
C836 C 0.98859 1.02314 0.49441 0.0
C837 C 0.98664 0.04188 0.53125 0.0
C838 C 0.02864 1.00465 0.47966 0.0
C839 C 0.06891 1.00381 0.50098 0.0
H840 H 0.95881 1.0224 0.47671 0.0
H841 H 0.02789 0.99107 0.45102 0.0
S842 S 0.08252 0.04858 0.59914 0.0
N843 N 0.02933 0.05856 0.5888 0.0
N844 N 0.10398 1.02366 0.56117 0.0
C845 C 0.06752 1.02236 0.53791 0.0
C846 C 1.02673 0.04143 0.55293 0.0
C847 C 0.5527 0.02804 0.49174 0.0
C848 C 0.55077 0.06946 0.5115 0.0
C849 C 0.53273 0.98877 0.50631 0.0
C850 C 0.50936 0.98892 0.54124 0.0
H851 H 0.56961 1.02581 0.46444 0.0
H852 H 0.53575 0.958 0.48994 0.0
S853 S 0.4945 0.08834 0.60471 0.0
N854 N 0.52386 0.10774 0.56838 0.0
N855 N 0.48595 0.0346 0.59551 0.0
C856 C 0.5074 0.03007 0.56149 0.0
C857 C 0.52813 0.07001 0.54675 0.0
C858 C 0.52817 0.54995 0.48164 0.0
C859 C 0.48664 0.54452 0.50068 0.0
C860 C 0.56833 0.53123 0.49584 0.0
C861 C 0.56895 0.50601 0.52974 0.0
H862 H 0.52984 0.56908 0.45547 0.0
H863 H 0.59926 0.53732 0.48037 0.0
S864 S 0.46901 0.47938 0.58955 0.0
N865 N 0.44863 0.51022 0.55456 0.0
N866 N 0.5235 0.47523 0.58127 0.0
C867 C 0.52746 0.49958 0.54871 0.0
C868 C 0.48661 0.51873 0.53424 0.0
C869 C 0.0319 0.56119 0.50411 0.0
C870 C 0.04914 0.56313 0.5414 0.0
C871 C 1.01255 0.52163 0.48941 0.0
C872 C 1.00943 0.48181 0.51118 0.0
H873 H 0.03291 0.59064 0.48604 0.0
H874 H 1.00012 0.5224 0.46044 0.0
S875 S 0.0496 0.46841 0.61063 0.0
N876 N 0.06192 0.52094 0.59987 0.0
N877 N 1.02551 0.44721 0.5723 0.0
C878 C 1.02651 0.48321 0.54854 0.0
C879 C 0.04637 0.52351 0.56354 0.0
C880 C 0.65217 0.16087 0.2932 0.0
C881 C 0.6213 0.13437 0.31353 0.0
C882 C 0.65835 0.15475 0.25383 0.0
C883 C 0.63232 0.12345 0.23354 0.0
H884 H 0.67194 0.18605 0.30791 0.0
H885 H 0.68313 0.17497 0.23909 0.0
S886 S 0.54617 0.04704 0.27353 0.0
N887 N 0.56459 0.07582 0.31065 0.0
N888 N 0.57466 0.06585 0.23642 0.0
C889 C 0.60089 0.09737 0.25347 0.0
C890 C 0.59574 0.10248 0.29361 0.0
C891 C 0.44706 0.6487 0.29437 0.0
C892 C 0.41293 0.61872 0.30506 0.0
C893 C 0.45532 0.65832 0.25594 0.0
C894 C 0.43061 0.63732 0.22671 0.0
H895 H 0.46768 0.66477 0.31585 0.0
H896 H 0.48237 0.68128 0.24908 0.0
S897 S 0.33718 0.55655 0.23965 0.0
N898 N 0.35324 0.56902 0.28343 0.0
N899 N 0.37011 0.58585 0.21105 0.0
C900 C 0.39618 0.60751 0.23697 0.0
C901 C 0.38695 0.59858 0.27621 0.0
C902 C 0.9462 0.40229 0.24814 0.0
C903 C 0.91472 0.43505 0.23712 0.0
C904 C 0.9532 0.39232 0.28671 0.0
C905 C 0.92999 0.41578 0.31555 0.0
H906 H 0.9656 0.3843 0.22683 0.0
H907 H 0.97813 0.36717 0.29401 0.0
S908 S 0.84361 0.50416 0.3017 0.0
N909 N 0.85905 0.4899 0.25809 0.0
N910 N 0.87377 0.47244 0.33062 0.0
C911 C 0.89824 0.44835 0.30494 0.0
C912 C 0.89016 0.45762 0.26567 0.0
C913 C 0.15909 0.95633 0.27543 0.0
C914 C 0.13621 0.93142 0.30346 0.0
C915 C 0.14981 0.95028 0.23655 0.0
C916 C 0.11843 0.91808 0.22441 0.0
H917 H 0.18342 0.98161 0.28365 0.0
H918 H 0.16752 0.97069 0.21589 0.0
S919 S 0.05086 0.84315 0.28652 0.0
N920 N 0.08118 0.87332 0.3165 0.0
N921 N 0.06515 0.86033 0.24347 0.0
C922 C 0.09621 0.89217 0.25216 0.0
C923 C 0.10471 0.89929 0.29171 0.0
C924 C 0.45496 0.9448 0.79659 0.0
C925 C 0.41487 0.93032 0.81397 0.0
C926 C 0.46211 0.939 0.75741 0.0
C927 C 0.42986 0.91768 0.73455 0.0
H928 H 0.4805 0.96184 0.81316 0.0
H929 H 0.49327 0.95086 0.74496 0.0
S930 S 0.32038 0.87193 0.76624 0.0
N931 N 0.3428 0.89325 0.80533 0.0
N932 N 0.35726 0.88079 0.73179 0.0
C933 C 0.39018 0.90208 0.75155 0.0
C934 C 0.38238 0.90889 0.7913 0.0
C935 C 0.65946 0.45299 0.75325 0.0
C936 C 0.63695 0.42937 0.72423 0.0
C937 C 0.64933 0.44551 0.79175 0.0
C938 C 0.61739 0.41317 0.80249 0.0
H939 H 0.68398 0.47854 0.74612 0.0
H940 H 0.66658 0.46515 0.81324 0.0
S941 S 0.55072 0.34102 0.7374 0.0
N942 N 0.58194 0.37201 0.70873 0.0
N943 N 0.56416 0.35652 0.78113 0.0
C944 C 0.59571 0.38834 0.77377 0.0
C945 C 0.60513 0.39686 0.73458 0.0
C946 C 0.10131 0.6647 0.76296 0.0
C947 C 0.12662 0.6431 0.73435 0.0
C948 C 0.10978 0.65659 0.80169 0.0
C949 C 0.14482 0.62781 0.8131 0.0
H950 H 0.07357 0.68657 0.75537 0.0
H951 H 0.08841 0.67254 0.82281 0.0
S952 S 0.22314 0.56619 0.74891 0.0
N953 N 0.18903 0.59328 0.71977 0.0
N954 N 0.20659 0.57965 0.79241 0.0
C955 C 0.17172 0.60776 0.78464 0.0
C956 C 0.16216 0.61495 0.74527 0.0
C957 C 0.95451 0.16055 0.77348 0.0
C958 C 0.92956 0.13961 0.80249 0.0
C959 C 0.94592 0.15129 0.73496 0.0
C960 C 0.9111 0.122 0.72423 0.0
H961 H 0.98187 0.18303 0.78063 0.0
H962 H 0.96674 0.16705 0.71345 0.0
S963 S 0.83435 0.06102 0.78963 0.0
N964 N 0.86814 0.08934 0.81818 0.0
N965 N 0.85042 0.07348 0.74586 0.0
C966 C 0.88485 0.10221 0.75307 0.0
C967 C 0.89453 0.11059 0.79223 0.0
loop_
_geom_bond_atom_site_label_1
_geom_bond_atom_site_label_2
_geom_bond_distance
_geom_bond_site_symmetry_2
_ccdc_geom_bond_type
Co0 N4 2.148 . S
Co0 N10 2.128 1_545 S
Co0 N20 2.194 . S
Co0 O25 2.351 . S
Co0 O26 2.155 . S
Co0 O27 2.096 . S
C1 N4 1.301 . S
C1 N5 1.328 . S
C1 H6 0.930 . S
C2 C3 1.333 . S
C2 N4 1.317 . S
C2 H7 0.930 . S
C3 C2 1.333 . S
C3 N5 1.350 . S
C3 H29 0.931 . S
N4 Co0 2.148 . S
N4 C1 1.301 . S
N4 C2 1.317 . S
N5 C1 1.328 . S
N5 C3 1.350 . S
H6 C1 0.930 . S
H7 C2 0.930 . S
C8 O9 1.224 . S
C8 O27 1.247 . S
O9 C8 1.224 . S
N10 Co0 2.128 1_565 S
N10 C11 1.355 . S
N10 C13 1.311 . S
C11 N10 1.355 . S
C11 C12 1.363 . S
C11 H23 0.929 . S
C12 C11 1.363 . S
C12 N14 1.375 . S
C12 H30 0.931 . S
C13 N10 1.311 . S
C13 N14 1.347 . S
C13 H24 0.929 . S
N14 C12 1.375 . S
N14 C13 1.347 . S
C15 C18 1.365 . S
C15 N20 1.328 . S
C15 H21 0.929 . S
C16 C17 1.362 . S
C16 C19 1.378 1_565 S
C16 H31 0.929 . S
C17 C16 1.362 . S
C17 C18 1.366 1_565 S
C18 C15 1.365 . S
C18 C17 1.366 1_545 S
C18 H32 0.930 . S
C19 C16 1.378 1_545 S
C19 N20 1.315 . S
C19 H22 0.930 . S
N20 Co0 2.194 . S
N20 C15 1.328 . S
N20 C19 1.315 . S
H21 C15 0.929 . S
H22 C19 0.930 . S
H23 C11 0.929 . S
H24 C13 0.929 . S
O25 Co0 2.351 . S
O25 C28 1.244 . S
O26 Co0 2.155 . S
O26 C28 1.240 . S
O27 Co0 2.096 . S
O27 C8 1.247 . S
C28 O25 1.244 . S
C28 O26 1.240 . S
H29 C3 0.931 . S
H30 C12 0.931 . S
H31 C16 0.929 . S
H32 C18 0.930 . S
Co33 N37 2.148 . S
Co33 N43 2.128 . S
Co33 N53 2.194 . S
Co33 O58 2.351 . S
Co33 O59 2.155 . S
Co33 O60 2.096 . S
C34 N37 1.301 . S
C34 N38 1.328 . S
C34 H39 0.930 . S
C35 C36 1.333 . S
C35 N37 1.317 . S
C35 H40 0.930 . S
C36 C35 1.333 . S
C36 N38 1.350 . S
C36 H62 0.931 . S
N37 Co33 2.148 . S
N37 C34 1.301 . S
N37 C35 1.317 . S
N38 C34 1.328 . S
N38 C36 1.350 . S
H39 C34 0.930 . S
H40 C35 0.930 . S
C41 O42 1.224 . S
C41 O60 1.247 . S
O42 C41 1.224 . S
N43 Co33 2.128 . S
N43 C44 1.355 . S
N43 C46 1.311 . S
C44 N43 1.355 . S
C44 C45 1.363 . S
C44 H56 0.929 . S
C45 C44 1.363 . S
C45 N47 1.375 . S
C45 H63 0.931 . S
C46 N43 1.311 . S
C46 N47 1.347 . S
C46 H57 0.929 . S
N47 C45 1.375 . S
N47 C46 1.347 . S
C48 C51 1.365 . S
C48 N53 1.328 . S
C48 H54 0.929 . S
C49 C50 1.362 . S
C49 C52 1.378 . S
C49 H64 0.929 . S
C50 C49 1.362 . S
C50 C51 1.366 . S
C51 C48 1.365 . S
C51 C50 1.366 . S
C51 H65 0.930 . S
C52 C49 1.378 . S
C52 N53 1.315 . S
C52 H55 0.930 . S
N53 Co33 2.194 . S
N53 C48 1.328 . S
N53 C52 1.315 . S
H54 C48 0.929 . S
H55 C52 0.930 . S
H56 C44 0.929 . S
H57 C46 0.929 . S
O58 Co33 2.351 . S
O58 C61 1.244 . S
O59 Co33 2.155 . S
O59 C61 1.240 . S
O60 Co33 2.096 . S
O60 C41 1.247 . S
C61 O58 1.244 . S
C61 O59 1.240 . S
H62 C36 0.931 . S
H63 C45 0.931 . S
H64 C49 0.929 . S
H65 C51 0.930 . S
Co66 N70 2.148 . S
Co66 N76 2.128 . S
Co66 N86 2.194 . S
Co66 O91 2.351 . S
Co66 O92 2.155 . S
Co66 O93 2.096 . S
C67 N70 1.301 . S
C67 N71 1.328 . S
C67 H72 0.930 . S
C68 C69 1.333 . S
C68 N70 1.317 . S
C68 H73 0.930 . S
C69 C68 1.333 . S
C69 N71 1.350 . S
C69 H95 0.931 . S
N70 Co66 2.148 . S
N70 C67 1.301 . S
N70 C68 1.317 . S
N71 C67 1.328 . S
N71 C69 1.350 . S
H72 C67 0.930 . S
H73 C68 0.930 . S
C74 O75 1.224 . S
C74 O93 1.247 . S
O75 C74 1.224 . S
N76 Co66 2.128 . S
N76 C77 1.355 . S
N76 C79 1.311 . S
C77 N76 1.355 . S
C77 C78 1.363 . S
C77 H89 0.929 . S
C78 C77 1.363 . S
C78 N80 1.375 . S
C78 H96 0.931 . S
C79 N76 1.311 . S
C79 N80 1.347 . S
C79 H90 0.929 . S
N80 C78 1.375 . S
N80 C79 1.347 . S
C81 C84 1.365 . S
C81 N86 1.328 . S
C81 H87 0.929 . S
C82 C83 1.362 . S
C82 C85 1.378 . S
C82 H97 0.929 . S
C83 C82 1.362 . S
C83 C84 1.366 . S
C84 C81 1.365 . S
C84 C83 1.366 . S
C84 H98 0.930 . S
C85 C82 1.378 . S
C85 N86 1.315 . S
C85 H88 0.930 . S
N86 Co66 2.194 . S
N86 C81 1.328 . S
N86 C85 1.315 . S
H87 C81 0.929 . S
H88 C85 0.930 . S
H89 C77 0.929 . S
H90 C79 0.929 . S
O91 Co66 2.351 . S
O91 C94 1.244 . S
O92 Co66 2.155 . S
O92 C94 1.240 . S
O93 Co66 2.096 . S
O93 C74 1.247 . S
C94 O91 1.244 . S
C94 O92 1.240 . S
H95 C69 0.931 . S
H96 C78 0.931 . S
H97 C82 0.929 . S
H98 C84 0.930 . S
Co99 N103 2.148 . S
Co99 N109 2.128 1_455 S
Co99 N119 2.194 . S
Co99 O124 2.351 . S
Co99 O125 2.155 . S
Co99 O126 2.096 . S
C100 N103 1.301 . S
C100 N104 1.328 . S
C100 H105 0.930 . S
C101 C102 1.333 . S
C101 N103 1.317 . S
C101 H106 0.930 . S
C102 C101 1.333 . S
C102 N104 1.350 . S
C102 H128 0.931 . S
N103 Co99 2.148 . S
N103 C100 1.301 . S
N103 C101 1.317 . S
N104 C100 1.328 . S
N104 C102 1.350 . S
H105 C100 0.930 . S
H106 C101 0.930 . S
C107 O108 1.224 . S
C107 O126 1.247 . S
O108 C107 1.224 . S
N109 Co99 2.128 1_655 S
N109 C110 1.355 . S
N109 C112 1.311 . S
C110 N109 1.355 . S
C110 C111 1.363 . S
C110 H122 0.929 . S
C111 C110 1.363 . S
C111 N113 1.375 . S
C111 H129 0.931 . S
C112 N109 1.311 . S
C112 N113 1.347 . S
C112 H123 0.929 . S
N113 C111 1.375 . S
N113 C112 1.347 . S
C114 C117 1.365 . S
C114 N119 1.328 . S
C114 H120 0.929 . S
C115 C116 1.362 . S
C115 C118 1.378 1_655 S
C115 H130 0.929 . S
C116 C115 1.362 . S
C116 C117 1.366 1_655 S
C117 C114 1.365 . S
C117 C116 1.366 1_455 S
C117 H131 0.930 . S
C118 C115 1.378 1_455 S
C118 N119 1.315 . S
C118 H121 0.930 . S
N119 Co99 2.194 . S
N119 C114 1.328 . S
N119 C118 1.315 . S
H120 C114 0.929 . S
H121 C118 0.930 . S
H122 C110 0.929 . S
H123 C112 0.929 . S
O124 Co99 2.351 . S
O124 C127 1.244 . S
O125 Co99 2.155 . S
O125 C127 1.240 . S
O126 Co99 2.096 . S
O126 C107 1.247 . S
C127 O124 1.244 . S
C127 O125 1.240 . S
H128 C102 0.931 . S
H129 C111 0.931 . S
H130 C115 0.929 . S
H131 C117 0.930 . S
Co132 N136 2.148 . S
Co132 N142 2.128 1_565 S
Co132 N152 2.194 . S
Co132 O157 2.351 . S
Co132 O158 2.155 . S
Co132 O159 2.096 . S
C133 N136 1.301 . S
C133 N137 1.328 . S
C133 H138 0.930 . S
C134 C135 1.333 . S
C134 N136 1.317 . S
C134 H139 0.930 . S
C135 C134 1.333 . S
C135 N137 1.350 . S
C135 H161 0.931 . S
N136 Co132 2.148 . S
N136 C133 1.301 . S
N136 C134 1.317 . S
N137 C133 1.328 . S
N137 C135 1.350 . S
H138 C133 0.930 . S
H139 C134 0.930 . S
C140 O141 1.224 . S
C140 O159 1.247 . S
O141 C140 1.224 . S
N142 Co132 2.128 1_545 S
N142 C143 1.355 . S
N142 C145 1.311 . S
C143 N142 1.355 . S
C143 C144 1.363 . S
C143 H155 0.929 . S
C144 C143 1.363 . S
C144 N146 1.375 . S
C144 H162 0.931 . S
C145 N142 1.311 . S
C145 N146 1.347 . S
C145 H156 0.929 . S
N146 C144 1.375 . S
N146 C145 1.347 . S
C147 C150 1.365 . S
C147 N152 1.328 . S
C147 H153 0.929 . S
C148 C149 1.362 . S
C148 C151 1.378 1_545 S
C148 H163 0.929 . S
C149 C148 1.362 . S
C149 C150 1.366 1_545 S
C150 C147 1.365 . S
C150 C149 1.366 1_565 S
C150 H164 0.930 . S
C151 C148 1.378 1_565 S
C151 N152 1.315 . S
C151 H154 0.930 . S
N152 Co132 2.194 . S
N152 C147 1.328 . S
N152 C151 1.315 . S
H153 C147 0.929 . S
H154 C151 0.930 . S
H155 C143 0.929 . S
H156 C145 0.929 . S
O157 Co132 2.351 . S
O157 C160 1.244 . S
O158 Co132 2.155 . S
O158 C160 1.240 . S
O159 Co132 2.096 . S
O159 C140 1.247 . S
C160 O157 1.244 . S
C160 O158 1.240 . S
H161 C135 0.931 . S
H162 C144 0.931 . S
H163 C148 0.929 . S
H164 C150 0.930 . S
Co165 N169 2.148 . S
Co165 N175 2.128 . S
Co165 N185 2.194 . S
Co165 O190 2.351 . S
Co165 O191 2.155 . S
Co165 O192 2.096 . S
C166 N169 1.301 . S
C166 N170 1.328 . S
C166 H171 0.930 . S
C167 C168 1.333 . S
C167 N169 1.317 . S
C167 H172 0.930 . S
C168 C167 1.333 . S
C168 N170 1.350 . S
C168 H194 0.931 . S
N169 Co165 2.148 . S
N169 C166 1.301 . S
N169 C167 1.317 . S
N170 C166 1.328 . S
N170 C168 1.350 . S
H171 C166 0.930 . S
H172 C167 0.930 . S
C173 O174 1.224 . S
C173 O192 1.247 . S
O174 C173 1.224 . S
N175 Co165 2.128 . S
N175 C176 1.355 . S
N175 C178 1.311 . S
C176 N175 1.355 . S
C176 C177 1.363 . S
C176 H188 0.929 . S
C177 C176 1.363 . S
C177 N179 1.375 . S
C177 H195 0.931 . S
C178 N175 1.311 . S
C178 N179 1.347 . S
C178 H189 0.929 . S
N179 C177 1.375 . S
N179 C178 1.347 . S
C180 C183 1.365 . S
C180 N185 1.328 . S
C180 H186 0.929 . S
C181 C182 1.362 . S
C181 C184 1.378 . S
C181 H196 0.929 . S
C182 C181 1.362 . S
C182 C183 1.366 . S
C183 C180 1.365 . S
C183 C182 1.366 . S
C183 H197 0.930 . S
C184 C181 1.378 . S
C184 N185 1.315 . S
C184 H187 0.930 . S
N185 Co165 2.194 . S
N185 C180 1.328 . S
N185 C184 1.315 . S
H186 C180 0.929 . S
H187 C184 0.930 . S
H188 C176 0.929 . S
H189 C178 0.929 . S
O190 Co165 2.351 . S
O190 C193 1.244 . S
O191 Co165 2.155 . S
O191 C193 1.240 . S
O192 Co165 2.096 . S
O192 C173 1.247 . S
C193 O190 1.244 . S
C193 O191 1.240 . S
H194 C168 0.931 . S
H195 C177 0.931 . S
H196 C181 0.929 . S
H197 C183 0.930 . S
Co198 N202 2.148 . S
Co198 N208 2.128 . S
Co198 N218 2.194 . S
Co198 O223 2.351 . S
Co198 O224 2.155 . S
Co198 O225 2.096 . S
C199 N202 1.301 . S
C199 N203 1.328 . S
C199 H204 0.930 . S
C200 C201 1.333 . S
C200 N202 1.317 . S
C200 H205 0.930 . S
C201 C200 1.333 . S
C201 N203 1.350 . S
C201 H227 0.931 . S
N202 Co198 2.148 . S
N202 C199 1.301 . S
N202 C200 1.317 . S
N203 C199 1.328 . S
N203 C201 1.350 . S
H204 C199 0.930 . S
H205 C200 0.930 . S
C206 O207 1.224 . S
C206 O225 1.247 . S
O207 C206 1.224 . S
N208 Co198 2.128 . S
N208 C209 1.355 . S
N208 C211 1.311 . S
C209 N208 1.355 . S
C209 C210 1.363 . S
C209 H221 0.929 . S
C210 C209 1.363 . S
C210 N212 1.375 . S
C210 H228 0.931 . S
C211 N208 1.311 . S
C211 N212 1.347 . S
C211 H222 0.929 . S
N212 C210 1.375 . S
N212 C211 1.347 . S
C213 C216 1.365 . S
C213 N218 1.328 . S
C213 H219 0.929 . S
C214 C215 1.362 . S
C214 C217 1.378 . S
C214 H229 0.929 . S
C215 C214 1.362 . S
C215 C216 1.366 . S
C216 C213 1.365 . S
C216 C215 1.366 . S
C216 H230 0.930 . S
C217 C214 1.378 . S
C217 N218 1.315 . S
C217 H220 0.930 . S
N218 Co198 2.194 . S
N218 C213 1.328 . S
N218 C217 1.315 . S
H219 C213 0.929 . S
H220 C217 0.930 . S
H221 C209 0.929 . S
H222 C211 0.929 . S
O223 Co198 2.351 . S
O223 C226 1.244 . S
O224 Co198 2.155 . S
O224 C226 1.240 . S
O225 Co198 2.096 . S
O225 C206 1.247 . S
C226 O223 1.244 . S
C226 O224 1.240 . S
H227 C201 0.931 . S
H228 C210 0.931 . S
H229 C214 0.929 . S
H230 C216 0.930 . S
Co231 N235 2.148 . S
Co231 N241 2.128 1_655 S
Co231 N251 2.194 . S
Co231 O256 2.351 . S
Co231 O257 2.155 . S
Co231 O258 2.096 . S
C232 N235 1.301 . S
C232 N236 1.328 . S
C232 H237 0.930 . S
C233 C234 1.333 . S
C233 N235 1.317 . S
C233 H238 0.930 . S
C234 C233 1.333 . S
C234 N236 1.350 . S
C234 H260 0.931 . S
N235 Co231 2.148 . S
N235 C232 1.301 . S
N235 C233 1.317 . S
N236 C232 1.328 . S
N236 C234 1.350 . S
H237 C232 0.930 . S
H238 C233 0.930 . S
C239 O240 1.224 . S
C239 O258 1.247 . S
O240 C239 1.224 . S
N241 Co231 2.128 1_455 S
N241 C242 1.355 . S
N241 C244 1.311 . S
C242 N241 1.355 . S
C242 C243 1.363 . S
C242 H254 0.929 . S
C243 C242 1.363 . S
C243 N245 1.375 . S
C243 H261 0.931 . S
C244 N241 1.311 . S
C244 N245 1.347 . S
C244 H255 0.929 . S
N245 C243 1.375 . S
N245 C244 1.347 . S
C246 C249 1.365 . S
C246 N251 1.328 . S
C246 H252 0.929 . S
C247 C248 1.362 . S
C247 C250 1.378 1_455 S
C247 H262 0.929 . S
C248 C247 1.362 . S
C248 C249 1.366 1_455 S
C249 C246 1.365 . S
C249 C248 1.366 1_655 S
C249 H263 0.930 . S
C250 C247 1.378 1_655 S
C250 N251 1.315 . S
C250 H253 0.930 . S
N251 Co231 2.194 . S
N251 C246 1.328 . S
N251 C250 1.315 . S
H252 C246 0.929 . S
H253 C250 0.930 . S
H254 C242 0.929 . S
H255 C244 0.929 . S
O256 Co231 2.351 . S
O256 C259 1.244 . S
O257 Co231 2.155 . S
O257 C259 1.240 . S
O258 Co231 2.096 . S
O258 C239 1.247 . S
C259 O256 1.244 . S
C259 O257 1.240 . S
H260 C234 0.931 . S
H261 C243 0.931 . S
H262 C247 0.929 . S
H263 C249 0.930 . S
Co264 N268 2.148 . S
Co264 N274 2.128 1_565 S
Co264 N284 2.194 . S
Co264 O289 2.351 . S
Co264 O290 2.155 . S
Co264 O291 2.096 . S
C265 N268 1.301 . S
C265 N269 1.328 . S
C265 H270 0.930 . S
C266 C267 1.333 . S
C266 N268 1.317 . S
C266 H271 0.930 . S
C267 C266 1.333 . S
C267 N269 1.350 . S
C267 H293 0.931 . S
N268 Co264 2.148 . S
N268 C265 1.301 . S
N268 C266 1.317 . S
N269 C265 1.328 . S
N269 C267 1.350 . S
H270 C265 0.930 . S
H271 C266 0.930 . S
C272 O273 1.224 . S
C272 O291 1.247 . S
O273 C272 1.224 . S
N274 Co264 2.128 1_545 S
N274 C275 1.355 . S
N274 C277 1.311 . S
C275 N274 1.355 . S
C275 C276 1.363 . S
C275 H287 0.929 . S
C276 C275 1.363 . S
C276 N278 1.375 . S
C276 H294 0.931 . S
C277 N274 1.311 . S
C277 N278 1.347 . S
C277 H288 0.929 . S
N278 C276 1.375 . S
N278 C277 1.347 . S
C279 C282 1.365 . S
C279 N284 1.328 . S
C279 H285 0.929 . S
C280 C281 1.362 . S
C280 C283 1.378 1_545 S
C280 H295 0.929 . S
C281 C280 1.362 . S
C281 C282 1.366 1_545 S
C282 C279 1.365 . S
C282 C281 1.366 1_565 S
C282 H296 0.930 . S
C283 C280 1.378 1_565 S
C283 N284 1.315 . S
C283 H286 0.930 . S
N284 Co264 2.194 . S
N284 C279 1.328 . S
N284 C283 1.315 . S
H285 C279 0.929 . S
H286 C283 0.930 . S
H287 C275 0.929 . S
H288 C277 0.929 . S
O289 Co264 2.351 . S
O289 C292 1.244 . S
O290 Co264 2.155 . S
O290 C292 1.240 . S
O291 Co264 2.096 . S
O291 C272 1.247 . S
C292 O289 1.244 . S
C292 O290 1.240 . S
H293 C267 0.931 . S
H294 C276 0.931 . S
H295 C280 0.929 . S
H296 C282 0.930 . S
Co297 N301 2.148 . S
Co297 N307 2.128 . S
Co297 N317 2.194 . S
Co297 O322 2.351 . S
Co297 O323 2.155 . S
Co297 O324 2.096 . S
C298 N301 1.301 . S
C298 N302 1.328 . S
C298 H303 0.930 . S
C299 C300 1.333 . S
C299 N301 1.317 . S
C299 H304 0.930 . S
C300 C299 1.333 . S
C300 N302 1.350 . S
C300 H326 0.931 . S
N301 Co297 2.148 . S
N301 C298 1.301 . S
N301 C299 1.317 . S
N302 C298 1.328 . S
N302 C300 1.350 . S
H303 C298 0.930 . S
H304 C299 0.930 . S
C305 O306 1.224 . S
C305 O324 1.247 . S
O306 C305 1.224 . S
N307 Co297 2.128 . S
N307 C308 1.355 . S
N307 C310 1.311 . S
C308 N307 1.355 . S
C308 C309 1.363 . S
C308 H320 0.929 . S
C309 C308 1.363 . S
C309 N311 1.375 . S
C309 H327 0.931 . S
C310 N307 1.311 . S
C310 N311 1.347 . S
C310 H321 0.929 . S
N311 C309 1.375 . S
N311 C310 1.347 . S
C312 C315 1.365 . S
C312 N317 1.328 . S
C312 H318 0.929 . S
C313 C314 1.362 . S
C313 C316 1.378 . S
C313 H328 0.929 . S
C314 C313 1.362 . S
C314 C315 1.366 . S
C315 C312 1.365 . S
C315 C314 1.366 . S
C315 H329 0.930 . S
C316 C313 1.378 . S
C316 N317 1.315 . S
C316 H319 0.930 . S
N317 Co297 2.194 . S
N317 C312 1.328 . S
N317 C316 1.315 . S
H318 C312 0.929 . S
H319 C316 0.930 . S
H320 C308 0.929 . S
H321 C310 0.929 . S
O322 Co297 2.351 . S
O322 C325 1.244 . S
O323 Co297 2.155 . S
O323 C325 1.240 . S
O324 Co297 2.096 . S
O324 C305 1.247 . S
C325 O322 1.244 . S
C325 O323 1.240 . S
H326 C300 0.931 . S
H327 C309 0.931 . S
H328 C313 0.929 . S
H329 C315 0.930 . S
Co330 N334 2.148 . S
Co330 N340 2.128 . S
Co330 N350 2.194 . S
Co330 O355 2.351 . S
Co330 O356 2.155 . S
Co330 O357 2.096 . S
C331 N334 1.301 . S
C331 N335 1.328 . S
C331 H336 0.930 . S
C332 C333 1.333 . S
C332 N334 1.317 . S
C332 H337 0.930 . S
C333 C332 1.333 . S
C333 N335 1.350 . S
C333 H359 0.931 . S
N334 Co330 2.148 . S
N334 C331 1.301 . S
N334 C332 1.317 . S
N335 C331 1.328 . S
N335 C333 1.350 . S
H336 C331 0.930 . S
H337 C332 0.930 . S
C338 O339 1.224 . S
C338 O357 1.247 . S
O339 C338 1.224 . S
N340 Co330 2.128 . S
N340 C341 1.355 . S
N340 C343 1.311 . S
C341 N340 1.355 . S
C341 C342 1.363 . S
C341 H353 0.929 . S
C342 C341 1.363 . S
C342 N344 1.375 . S
C342 H360 0.931 . S
C343 N340 1.311 . S
C343 N344 1.347 . S
C343 H354 0.929 . S
N344 C342 1.375 . S
N344 C343 1.347 . S
C345 C348 1.365 . S
C345 N350 1.328 . S
C345 H351 0.929 . S
C346 C347 1.362 . S
C346 C349 1.378 . S
C346 H361 0.929 . S
C347 C346 1.362 . S
C347 C348 1.366 . S
C348 C345 1.365 . S
C348 C347 1.366 . S
C348 H362 0.930 . S
C349 C346 1.378 . S
C349 N350 1.315 . S
C349 H352 0.930 . S
N350 Co330 2.194 . S
N350 C345 1.328 . S
N350 C349 1.315 . S
H351 C345 0.929 . S
H352 C349 0.930 . S
H353 C341 0.929 . S
H354 C343 0.929 . S
O355 Co330 2.351 . S
O355 C358 1.244 . S
O356 Co330 2.155 . S
O356 C358 1.240 . S
O357 Co330 2.096 . S
O357 C338 1.247 . S
C358 O355 1.244 . S
C358 O356 1.240 . S
H359 C333 0.931 . S
H360 C342 0.931 . S
H361 C346 0.929 . S
H362 C348 0.930 . S
Co363 N367 2.148 . S
Co363 N373 2.128 1_655 S
Co363 N383 2.194 . S
Co363 O388 2.351 . S
Co363 O389 2.155 . S
Co363 O390 2.096 . S
C364 N367 1.301 . S
C364 N368 1.328 . S
C364 H369 0.930 . S
C365 C366 1.333 . S
C365 N367 1.317 . S
C365 H370 0.930 . S
C366 C365 1.333 . S
C366 N368 1.350 . S
C366 H392 0.931 . S
N367 Co363 2.148 . S
N367 C364 1.301 . S
N367 C365 1.317 . S
N368 C364 1.328 . S
N368 C366 1.350 . S
H369 C364 0.930 . S
H370 C365 0.930 . S
C371 O372 1.224 . S
C371 O390 1.247 . S
O372 C371 1.224 . S
N373 Co363 2.128 1_455 S
N373 C374 1.355 . S
N373 C376 1.311 . S
C374 N373 1.355 . S
C374 C375 1.363 . S
C374 H386 0.929 . S
C375 C374 1.363 . S
C375 N377 1.375 . S
C375 H393 0.931 . S
C376 N373 1.311 . S
C376 N377 1.347 . S
C376 H387 0.929 . S
N377 C375 1.375 . S
N377 C376 1.347 . S
C378 C381 1.365 . S
C378 N383 1.328 . S
C378 H384 0.929 . S
C379 C380 1.362 . S
C379 C382 1.378 1_455 S
C379 H394 0.929 . S
C380 C379 1.362 . S
C380 C381 1.366 1_455 S
C381 C378 1.365 . S
C381 C380 1.366 1_655 S
C381 H395 0.930 . S
C382 C379 1.378 1_655 S
C382 N383 1.315 . S
C382 H385 0.930 . S
N383 Co363 2.194 . S
N383 C378 1.328 . S
N383 C382 1.315 . S
H384 C378 0.929 . S
H385 C382 0.930 . S
H386 C374 0.929 . S
H387 C376 0.929 . S
O388 Co363 2.351 . S
O388 C391 1.244 . S
O389 Co363 2.155 . S
O389 C391 1.240 . S
O390 Co363 2.096 . S
O390 C371 1.247 . S
C391 O388 1.244 . S
C391 O389 1.240 . S
H392 C366 0.931 . S
H393 C375 0.931 . S
H394 C379 0.929 . S
H395 C381 0.930 . S
Co396 N400 2.148 . S
Co396 N406 2.128 1_545 S
Co396 N416 2.194 . S
Co396 O421 2.351 . S
Co396 O422 2.155 . S
Co396 O423 2.096 . S
C397 N400 1.301 . S
C397 N401 1.328 . S
C397 H402 0.930 . S
C398 C399 1.333 . S
C398 N400 1.317 . S
C398 H403 0.930 . S
C399 C398 1.333 . S
C399 N401 1.350 . S
C399 H425 0.931 . S
N400 Co396 2.148 . S
N400 C397 1.301 . S
N400 C398 1.317 . S
N401 C397 1.328 . S
N401 C399 1.350 . S
H402 C397 0.930 . S
H403 C398 0.930 . S
C404 O405 1.224 . S
C404 O423 1.247 . S
O405 C404 1.224 . S
N406 Co396 2.128 1_565 S
N406 C407 1.355 . S
N406 C409 1.311 . S
C407 N406 1.355 . S
C407 C408 1.363 . S
C407 H419 0.929 . S
C408 C407 1.363 . S
C408 N410 1.375 . S
C408 H426 0.931 . S
C409 N406 1.311 . S
C409 N410 1.347 . S
C409 H420 0.929 . S
N410 C408 1.375 . S
N410 C409 1.347 . S
C411 C414 1.365 . S
C411 N416 1.328 . S
C411 H417 0.929 . S
C412 C413 1.362 . S
C412 C415 1.378 1_565 S
C412 H427 0.929 . S
C413 C412 1.362 . S
C413 C414 1.366 1_565 S
C414 C411 1.365 . S
C414 C413 1.366 1_545 S
C414 H428 0.930 . S
C415 C412 1.378 1_545 S
C415 N416 1.315 . S
C415 H418 0.930 . S
N416 Co396 2.194 . S
N416 C411 1.328 . S
N416 C415 1.315 . S
H417 C411 0.929 . S
H418 C415 0.930 . S
H419 C407 0.929 . S
H420 C409 0.929 . S
O421 Co396 2.351 . S
O421 C424 1.244 . S
O422 Co396 2.155 . S
O422 C424 1.240 . S
O423 Co396 2.096 . S
O423 C404 1.247 . S
C424 O421 1.244 . S
C424 O422 1.240 . S
H425 C399 0.931 . S
H426 C408 0.931 . S
H427 C412 0.929 . S
H428 C414 0.930 . S
Co429 N433 2.148 . S
Co429 N439 2.128 . S
Co429 N449 2.194 . S
Co429 O454 2.351 . S
Co429 O455 2.155 . S
Co429 O456 2.096 . S
C430 N433 1.301 . S
C430 N434 1.328 . S
C430 H435 0.930 . S
C431 C432 1.333 . S
C431 N433 1.317 . S
C431 H436 0.930 . S
C432 C431 1.333 . S
C432 N434 1.350 . S
C432 H458 0.931 . S
N433 Co429 2.148 . S
N433 C430 1.301 . S
N433 C431 1.317 . S
N434 C430 1.328 . S
N434 C432 1.350 . S
H435 C430 0.930 . S
H436 C431 0.930 . S
C437 O438 1.224 . S
C437 O456 1.247 . S
O438 C437 1.224 . S
N439 Co429 2.128 . S
N439 C440 1.355 . S
N439 C442 1.311 . S
C440 N439 1.355 . S
C440 C441 1.363 . S
C440 H452 0.929 . S
C441 C440 1.363 . S
C441 N443 1.375 . S
C441 H459 0.931 . S
C442 N439 1.311 . S
C442 N443 1.347 . S
C442 H453 0.929 . S
N443 C441 1.375 . S
N443 C442 1.347 . S
C444 C447 1.365 . S
C444 N449 1.328 . S
C444 H450 0.929 . S
C445 C446 1.362 . S
C445 C448 1.378 . S
C445 H460 0.929 . S
C446 C445 1.362 . S
C446 C447 1.366 . S
C447 C444 1.365 . S
C447 C446 1.366 . S
C447 H461 0.930 . S
C448 C445 1.378 . S
C448 N449 1.315 . S
C448 H451 0.930 . S
N449 Co429 2.194 . S
N449 C444 1.328 . S
N449 C448 1.315 . S
H450 C444 0.929 . S
H451 C448 0.930 . S
H452 C440 0.929 . S
H453 C442 0.929 . S
O454 Co429 2.351 . S
O454 C457 1.244 . S
O455 Co429 2.155 . S
O455 C457 1.240 . S
O456 Co429 2.096 . S
O456 C437 1.247 . S
C457 O454 1.244 . S
C457 O455 1.240 . S
H458 C432 0.931 . S
H459 C441 0.931 . S
H460 C445 0.929 . S
H461 C447 0.930 . S
Co462 N466 2.148 . S
Co462 N472 2.128 . S
Co462 N482 2.194 . S
Co462 O487 2.351 . S
Co462 O488 2.155 . S
Co462 O489 2.096 . S
C463 N466 1.301 . S
C463 N467 1.328 . S
C463 H468 0.930 . S
C464 C465 1.333 . S
C464 N466 1.317 . S
C464 H469 0.930 . S
C465 C464 1.333 . S
C465 N467 1.350 . S
C465 H491 0.931 . S
N466 Co462 2.148 . S
N466 C463 1.301 . S
N466 C464 1.317 . S
N467 C463 1.328 . S
N467 C465 1.350 . S
H468 C463 0.930 . S
H469 C464 0.930 . S
C470 O471 1.224 . S
C470 O489 1.247 . S
O471 C470 1.224 . S
N472 Co462 2.128 . S
N472 C473 1.355 . S
N472 C475 1.311 . S
C473 N472 1.355 . S
C473 C474 1.363 . S
C473 H485 0.929 . S
C474 C473 1.363 . S
C474 N476 1.375 . S
C474 H492 0.931 . S
C475 N472 1.311 . S
C475 N476 1.347 . S
C475 H486 0.929 . S
N476 C474 1.375 . S
N476 C475 1.347 . S
C477 C480 1.365 . S
C477 N482 1.328 . S
C477 H483 0.929 . S
C478 C479 1.362 . S
C478 C481 1.378 . S
C478 H493 0.929 . S
C479 C478 1.362 . S
C479 C480 1.366 . S
C480 C477 1.365 . S
C480 C479 1.366 . S
C480 H494 0.930 . S
C481 C478 1.378 . S
C481 N482 1.315 . S
C481 H484 0.930 . S
N482 Co462 2.194 . S
N482 C477 1.328 . S
N482 C481 1.315 . S
H483 C477 0.929 . S
H484 C481 0.930 . S
H485 C473 0.929 . S
H486 C475 0.929 . S
O487 Co462 2.351 . S
O487 C490 1.244 . S
O488 Co462 2.155 . S
O488 C490 1.240 . S
O489 Co462 2.096 . S
O489 C470 1.247 . S
C490 O487 1.244 . S
C490 O488 1.240 . S
H491 C465 0.931 . S
H492 C474 0.931 . S
H493 C478 0.929 . S
H494 C480 0.930 . S
Co495 N499 2.148 . S
Co495 N505 2.128 1_455 S
Co495 N515 2.194 . S
Co495 O520 2.351 . S
Co495 O521 2.155 . S
Co495 O522 2.096 . S
C496 N499 1.301 . S
C496 N500 1.328 . S
C496 H501 0.930 . S
C497 C498 1.333 . S
C497 N499 1.317 . S
C497 H502 0.930 . S
C498 C497 1.333 . S
C498 N500 1.350 . S
C498 H524 0.931 . S
N499 Co495 2.148 . S
N499 C496 1.301 . S
N499 C497 1.317 . S
N500 C496 1.328 . S
N500 C498 1.350 . S
H501 C496 0.930 . S
H502 C497 0.930 . S
C503 O504 1.224 . S
C503 O522 1.247 . S
O504 C503 1.224 . S
N505 Co495 2.128 1_655 S
N505 C506 1.355 . S
N505 C508 1.311 . S
C506 N505 1.355 . S
C506 C507 1.363 . S
C506 H518 0.929 . S
C507 C506 1.363 . S
C507 N509 1.375 . S
C507 H525 0.931 . S
C508 N505 1.311 . S
C508 N509 1.347 . S
C508 H519 0.929 . S
N509 C507 1.375 . S
N509 C508 1.347 . S
C510 C513 1.365 . S
C510 N515 1.328 . S
C510 H516 0.929 . S
C511 C512 1.362 . S
C511 C514 1.378 1_655 S
C511 H526 0.929 . S
C512 C511 1.362 . S
C512 C513 1.366 1_655 S
C513 C510 1.365 . S
C513 C512 1.366 1_455 S
C513 H527 0.930 . S
C514 C511 1.378 1_455 S
C514 N515 1.315 . S
C514 H517 0.930 . S
N515 Co495 2.194 . S
N515 C510 1.328 . S
N515 C514 1.315 . S
H516 C510 0.929 . S
H517 C514 0.930 . S
H518 C506 0.929 . S
H519 C508 0.929 . S
O520 Co495 2.351 . S
O520 C523 1.244 . S
O521 Co495 2.155 . S
O521 C523 1.240 . S
O522 Co495 2.096 . S
O522 C503 1.247 . S
C523 O520 1.244 . S
C523 O521 1.240 . S
H524 C498 0.931 . S
H525 C507 0.931 . S
H526 C511 0.929 . S
H527 C513 0.930 . S
C528 C529 1.369 . S
C528 C530 1.419 . S
C528 H532 0.930 . S
C529 C528 1.369 . S
C529 C538 1.429 . S
C530 C528 1.419 . S
C530 C531 1.363 . S
C530 H533 0.929 . S
C531 C530 1.363 . S
C531 C537 1.428 . S
H532 C528 0.930 . S
H533 C530 0.929 . S
S534 N535 1.613 . S
S534 N536 1.610 . S
N535 S534 1.613 . S
N535 C538 1.350 . S
N536 S534 1.610 . S
N536 C537 1.351 . S
C537 C531 1.428 . S
C537 N536 1.351 . S
C537 C538 1.434 . S
C538 C529 1.429 . S
C538 N535 1.350 . S
C538 C537 1.434 . S
C539 C540 1.369 . S
C539 C541 1.419 . S
C539 H543 0.930 . S
C540 C539 1.369 . S
C540 C549 1.429 . S
C541 C539 1.419 . S
C541 C542 1.363 . S
C541 H544 0.929 . S
C542 C541 1.363 . S
C542 C548 1.428 . S
H543 C539 0.930 . S
H544 C541 0.929 . S
S545 N546 1.613 . S
S545 N547 1.610 . S
N546 S545 1.613 . S
N546 C549 1.350 . S
N547 S545 1.610 . S
N547 C548 1.351 . S
C548 C542 1.428 . S
C548 N547 1.351 . S
C548 C549 1.434 . S
C549 C540 1.429 . S
C549 N546 1.350 . S
C549 C548 1.434 . S
C550 C551 1.369 . S
C550 C552 1.419 . S
C550 H554 0.930 . S
C551 C550 1.369 . S
C551 C560 1.429 . S
C552 C550 1.419 . S
C552 C553 1.363 . S
C552 H555 0.929 . S
C553 C552 1.363 . S
C553 C559 1.428 . S
H554 C550 0.930 . S
H555 C552 0.929 . S
S556 N557 1.613 . S
S556 N558 1.610 1_455 S
N557 S556 1.613 . S
N557 C560 1.350 1_455 S
N558 S556 1.610 1_655 S
N558 C559 1.351 . S
C559 C553 1.428 . S
C559 N558 1.351 . S
C559 C560 1.434 . S
C560 C551 1.429 . S
C560 N557 1.350 1_655 S
C560 C559 1.434 . S
C561 C562 1.369 . S
C561 C563 1.419 . S
C561 H565 0.930 . S
C562 C561 1.369 . S
C562 C571 1.429 . S
C563 C561 1.419 . S
C563 C564 1.363 . S
C563 H566 0.929 . S
C564 C563 1.363 . S
C564 C570 1.428 . S
H565 C561 0.930 . S
H566 C563 0.929 . S
S567 N568 1.613 . S
S567 N569 1.610 . S
N568 S567 1.613 . S
N568 C571 1.350 1_545 S
N569 S567 1.610 . S
N569 C570 1.351 1_545 S
C570 C564 1.428 . S
C570 N569 1.351 1_565 S
C570 C571 1.434 . S
C571 C562 1.429 . S
C571 N568 1.350 1_565 S
C571 C570 1.434 . S
C572 C573 1.369 . S
C572 C574 1.419 . S
C572 H576 0.930 1_455 S
C573 C572 1.369 . S
C573 C582 1.429 . S
C574 C572 1.419 . S
C574 C575 1.363 . S
C574 H577 0.929 . S
C575 C574 1.363 . S
C575 C581 1.428 . S
H576 C572 0.930 1_655 S
H577 C574 0.929 . S
S578 N579 1.613 . S
S578 N580 1.610 . S
N579 S578 1.613 . S
N579 C582 1.350 . S
N580 S578 1.610 . S
N580 C581 1.351 . S
C581 C575 1.428 . S
C581 N580 1.351 . S
C581 C582 1.434 . S
C582 C573 1.429 . S
C582 N579 1.350 . S
C582 C581 1.434 . S
C583 C584 1.369 . S
C583 C585 1.419 . S
C583 H587 0.930 . S
C584 C583 1.369 . S
C584 C593 1.429 . S
C585 C583 1.419 . S
C585 C586 1.363 . S
C585 H588 0.929 . S
C586 C585 1.363 . S
C586 C592 1.428 . S
H587 C583 0.930 . S
H588 C585 0.929 . S
S589 N590 1.613 . S
S589 N591 1.610 1_565 S
N590 S589 1.613 . S
N590 C593 1.350 1_565 S
N591 S589 1.610 1_545 S
N591 C592 1.351 . S
C592 C586 1.428 . S
C592 N591 1.351 . S
C592 C593 1.434 . S
C593 C584 1.429 . S
C593 N590 1.350 1_545 S
C593 C592 1.434 . S
C594 C595 1.369 . S
C594 C596 1.419 . S
C594 H598 0.930 . S
C595 C594 1.369 . S
C595 C604 1.429 . S
C596 C594 1.419 . S
C596 C597 1.363 . S
C596 H599 0.929 . S
C597 C596 1.363 . S
C597 C603 1.428 . S
H598 C594 0.930 . S
H599 C596 0.929 . S
S600 N601 1.613 . S
S600 N602 1.610 . S
N601 S600 1.613 . S
N601 C604 1.350 . S
N602 S600 1.610 . S
N602 C603 1.351 . S
C603 C597 1.428 . S
C603 N602 1.351 . S
C603 C604 1.434 . S
C604 C595 1.429 . S
C604 N601 1.350 . S
C604 C603 1.434 . S
C605 C606 1.369 . S
C605 C607 1.419 . S
C605 H609 0.930 . S
C606 C605 1.369 . S
C606 C615 1.429 . S
C607 C605 1.419 . S
C607 C608 1.363 . S
C607 H610 0.929 . S
C608 C607 1.363 . S
C608 C614 1.428 . S
H609 C605 0.930 . S
H610 C607 0.929 . S
S611 N612 1.613 . S
S611 N613 1.610 . S
N612 S611 1.613 . S
N612 C615 1.350 . S
N613 S611 1.610 . S
N613 C614 1.351 . S
C614 C608 1.428 . S
C614 N613 1.351 . S
C614 C615 1.434 . S
C615 C606 1.429 . S
C615 N612 1.350 . S
C615 C614 1.434 . S
C616 C617 1.369 . S
C616 C618 1.419 . S
C616 H620 0.930 . S
C617 C616 1.369 . S
C617 C626 1.429 . S
C618 C616 1.419 . S
C618 C619 1.363 . S
C618 H621 0.929 . S
C619 C618 1.363 . S
C619 C625 1.428 . S
H620 C616 0.930 . S
H621 C618 0.929 . S
S622 N623 1.613 . S
S622 N624 1.610 . S
N623 S622 1.613 . S
N623 C626 1.350 . S
N624 S622 1.610 . S
N624 C625 1.351 . S
C625 C619 1.428 . S
C625 N624 1.351 . S
C625 C626 1.434 . S
C626 C617 1.429 . S
C626 N623 1.350 . S
C626 C625 1.434 . S
C627 C628 1.369 . S
C627 C629 1.419 . S
C627 H631 0.930 . S
C628 C627 1.369 . S
C628 C637 1.429 . S
C629 C627 1.419 . S
C629 C630 1.363 . S
C629 H632 0.929 . S
C630 C629 1.363 . S
C630 C636 1.428 . S
H631 C627 0.930 . S
H632 C629 0.929 . S
S633 N634 1.613 . S
S633 N635 1.610 . S
N634 S633 1.613 . S
N634 C637 1.350 . S
N635 S633 1.610 . S
N635 C636 1.351 . S
C636 C630 1.428 . S
C636 N635 1.351 . S
C636 C637 1.434 . S
C637 C628 1.429 . S
C637 N634 1.350 . S
C637 C636 1.434 . S
C638 C639 1.369 . S
C638 C640 1.419 . S
C638 H642 0.930 1_455 S
C639 C638 1.369 . S
C639 C648 1.429 . S
C640 C638 1.419 . S
C640 C641 1.363 . S
C640 H643 0.929 . S
C641 C640 1.363 . S
C641 C647 1.428 . S
H642 C638 0.930 1_655 S
H643 C640 0.929 . S
S644 N645 1.613 . S
S644 N646 1.610 . S
N645 S644 1.613 . S
N645 C648 1.350 . S
N646 S644 1.610 . S
N646 C647 1.351 . S
C647 C641 1.428 . S
C647 N646 1.351 . S
C647 C648 1.434 . S
C648 C639 1.429 . S
C648 N645 1.350 . S
C648 C647 1.434 . S
C649 C650 1.369 . S
C649 C651 1.419 . S
C649 H653 0.930 1_545 S
C650 C649 1.369 . S
C650 C659 1.429 . S
C651 C649 1.419 . S
C651 C652 1.363 . S
C651 H654 0.929 . S
C652 C651 1.363 . S
C652 C658 1.428 . S
H653 C649 0.930 1_565 S
H654 C651 0.929 . S
S655 N656 1.613 . S
S655 N657 1.610 . S
N656 S655 1.613 . S
N656 C659 1.350 . S
N657 S655 1.610 . S
N657 C658 1.351 . S
C658 C652 1.428 . S
C658 N657 1.351 . S
C658 C659 1.434 . S
C659 C650 1.429 . S
C659 N656 1.350 . S
C659 C658 1.434 . S
C660 C661 1.369 . S
C660 C662 1.419 . S
C660 H664 0.930 1_655 S
C661 C660 1.369 . S
C661 C670 1.429 . S
C662 C660 1.419 . S
C662 C663 1.363 . S
C662 H665 0.929 . S
C663 C662 1.363 . S
C663 C669 1.428 . S
H664 C660 0.930 1_455 S
H665 C662 0.929 . S
S666 N667 1.613 . S
S666 N668 1.610 . S
N667 S666 1.613 . S
N667 C670 1.350 . S
N668 S666 1.610 . S
N668 C669 1.351 . S
C669 C663 1.428 . S
C669 N668 1.351 . S
C669 C670 1.434 . S
C670 C661 1.429 . S
C670 N667 1.350 . S
C670 C669 1.434 . S
C671 C672 1.369 . S
C671 C673 1.419 . S
C671 H675 0.930 1_565 S
C672 C671 1.369 . S
C672 C681 1.429 . S
C673 C671 1.419 . S
C673 C674 1.363 . S
C673 H676 0.929 . S
C674 C673 1.363 . S
C674 C680 1.428 . S
H675 C671 0.930 1_545 S
H676 C673 0.929 . S
S677 N678 1.613 . S
S677 N679 1.610 . S
N678 S677 1.613 . S
N678 C681 1.350 . S
N679 S677 1.610 . S
N679 C680 1.351 . S
C680 C674 1.428 . S
C680 N679 1.351 . S
C680 C681 1.434 . S
C681 C672 1.429 . S
C681 N678 1.350 . S
C681 C680 1.434 . S
C682 C683 1.369 . S
C682 C684 1.419 . S
C682 H686 0.930 . S
C683 C682 1.369 . S
C683 C692 1.429 . S
C684 C682 1.419 . S
C684 C685 1.363 . S
C684 H687 0.929 . S
C685 C684 1.363 . S
C685 C691 1.428 . S
H686 C682 0.930 . S
H687 C684 0.929 . S
S688 N689 1.613 . S
S688 N690 1.610 . S
N689 S688 1.613 . S
N689 C692 1.350 . S
N690 S688 1.610 . S
N690 C691 1.351 . S
C691 C685 1.428 . S
C691 N690 1.351 . S
C691 C692 1.434 . S
C692 C683 1.429 . S
C692 N689 1.350 . S
C692 C691 1.434 . S
C693 C694 1.369 . S
C693 C695 1.419 . S
C693 H697 0.930 . S
C694 C693 1.369 . S
C694 C703 1.429 . S
C695 C693 1.419 . S
C695 C696 1.363 . S
C695 H698 0.929 . S
C696 C695 1.363 . S
C696 C702 1.428 . S
H697 C693 0.930 . S
H698 C695 0.929 . S
S699 N700 1.613 . S
S699 N701 1.610 . S
N700 S699 1.613 . S
N700 C703 1.350 . S
N701 S699 1.610 . S
N701 C702 1.351 . S
C702 C696 1.428 . S
C702 N701 1.351 . S
C702 C703 1.434 . S
C703 C694 1.429 . S
C703 N700 1.350 . S
C703 C702 1.434 . S
C704 C705 1.369 . S
C704 C706 1.419 . S
C704 H708 0.930 . S
C705 C704 1.369 . S
C705 C714 1.429 . S
C706 C704 1.419 . S
C706 C707 1.363 . S
C706 H709 0.929 . S
C707 C706 1.363 . S
C707 C713 1.428 . S
H708 C704 0.930 . S
H709 C706 0.929 . S
S710 N711 1.613 . S
S710 N712 1.610 . S
N711 S710 1.613 . S
N711 C714 1.350 . S
N712 S710 1.610 . S
N712 C713 1.351 . S
C713 C707 1.428 . S
C713 N712 1.351 . S
C713 C714 1.434 . S
C714 C705 1.429 . S
C714 N711 1.350 . S
C714 C713 1.434 . S
C715 C716 1.369 . S
C715 C717 1.419 . S
C715 H719 0.930 . S
C716 C715 1.369 . S
C716 C725 1.429 . S
C717 C715 1.419 . S
C717 C718 1.363 . S
C717 H720 0.929 . S
C718 C717 1.363 . S
C718 C724 1.428 . S
H719 C715 0.930 . S
H720 C717 0.929 . S
S721 N722 1.613 . S
S721 N723 1.610 . S
N722 S721 1.613 . S
N722 C725 1.350 . S
N723 S721 1.610 . S
N723 C724 1.351 . S
C724 C718 1.428 . S
C724 N723 1.351 . S
C724 C725 1.434 . S
C725 C716 1.429 . S
C725 N722 1.350 . S
C725 C724 1.434 . S
C726 C727 1.369 . S
C726 C728 1.419 . S
C726 H730 0.930 . S
C727 C726 1.369 . S
C727 C736 1.429 . S
C728 C726 1.419 . S
C728 C729 1.363 . S
C728 H731 0.929 . S
C729 C728 1.363 . S
C729 C735 1.428 . S
H730 C726 0.930 . S
H731 C728 0.929 . S
S732 N733 1.613 . S
S732 N734 1.610 . S
N733 S732 1.613 . S
N733 C736 1.350 . S
N734 S732 1.610 . S
N734 C735 1.351 . S
C735 C729 1.428 . S
C735 N734 1.351 . S
C735 C736 1.434 . S
C736 C727 1.429 . S
C736 N733 1.350 . S
C736 C735 1.434 . S
C737 C738 1.369 . S
C737 C739 1.419 . S
C737 H741 0.930 . S
C738 C737 1.369 . S
C738 C747 1.429 . S
C739 C737 1.419 . S
C739 C740 1.363 . S
C739 H742 0.929 . S
C740 C739 1.363 . S
C740 C746 1.428 . S
H741 C737 0.930 . S
H742 C739 0.929 . S
S743 N744 1.613 . S
S743 N745 1.610 . S
N744 S743 1.613 . S
N744 C747 1.350 . S
N745 S743 1.610 . S
N745 C746 1.351 . S
C746 C740 1.428 . S
C746 N745 1.351 . S
C746 C747 1.434 . S
C747 C738 1.429 . S
C747 N744 1.350 . S
C747 C746 1.434 . S
C748 C749 1.369 . S
C748 C750 1.419 . S
C748 H752 0.930 . S
C749 C748 1.369 . S
C749 C758 1.429 . S
C750 C748 1.419 . S
C750 C751 1.363 . S
C750 H753 0.929 . S
C751 C750 1.363 . S
C751 C757 1.428 . S
H752 C748 0.930 . S
H753 C750 0.929 . S
S754 N755 1.613 . S
S754 N756 1.610 . S
N755 S754 1.613 . S
N755 C758 1.350 . S
N756 S754 1.610 . S
N756 C757 1.351 . S
C757 C751 1.428 . S
C757 N756 1.351 . S
C757 C758 1.434 . S
C758 C749 1.429 . S
C758 N755 1.350 . S
C758 C757 1.434 . S
C759 C760 1.369 . S
C759 C761 1.419 . S
C759 H763 0.930 . S
C760 C759 1.369 . S
C760 C769 1.429 . S
C761 C759 1.419 . S
C761 C762 1.363 . S
C761 H764 0.929 . S
C762 C761 1.363 . S
C762 C768 1.428 . S
H763 C759 0.930 . S
H764 C761 0.929 . S
S765 N766 1.613 . S
S765 N767 1.610 . S
N766 S765 1.613 . S
N766 C769 1.350 . S
N767 S765 1.610 . S
N767 C768 1.351 . S
C768 C762 1.428 . S
C768 N767 1.351 . S
C768 C769 1.434 . S
C769 C760 1.429 . S
C769 N766 1.350 . S
C769 C768 1.434 . S
C770 C771 1.369 . S
C770 C772 1.419 . S
C770 H774 0.930 . S
C771 C770 1.369 . S
C771 C780 1.429 . S
C772 C770 1.419 . S
C772 C773 1.363 . S
C772 H775 0.929 . S
C773 C772 1.363 . S
C773 C779 1.428 . S
H774 C770 0.930 . S
H775 C772 0.929 . S
S776 N777 1.613 . S
S776 N778 1.610 . S
N777 S776 1.613 . S
N777 C780 1.350 . S
N778 S776 1.610 . S
N778 C779 1.351 . S
C779 C773 1.428 . S
C779 N778 1.351 . S
C779 C780 1.434 . S
C780 C771 1.429 . S
C780 N777 1.350 . S
C780 C779 1.434 . S
C781 C782 1.369 . S
C781 C783 1.419 . S
C781 H785 0.930 . S
C782 C781 1.369 . S
C782 C791 1.429 . S
C783 C781 1.419 . S
C783 C784 1.363 . S
C783 H786 0.929 . S
C784 C783 1.363 . S
C784 C790 1.428 . S
H785 C781 0.930 . S
H786 C783 0.929 . S
S787 N788 1.613 . S
S787 N789 1.610 . S
N788 S787 1.613 . S
N788 C791 1.350 . S
N789 S787 1.610 . S
N789 C790 1.351 . S
C790 C784 1.428 . S
C790 N789 1.351 . S
C790 C791 1.434 . S
C791 C782 1.429 . S
C791 N788 1.350 . S
C791 C790 1.434 . S
C792 C793 1.369 1_565 S
C792 C794 1.419 . S
C792 H796 0.930 . S
C793 C792 1.369 1_545 S
C793 C802 1.429 1_554 S
C794 C792 1.419 . S
C794 C795 1.363 1_554 S
C794 H797 0.929 . S
C795 C794 1.363 1_556 S
C795 C801 1.428 1_565 S
H796 C792 0.930 . S
H797 C794 0.929 . S
S798 N799 1.613 . S
S798 N800 1.610 . S
N799 S798 1.613 . S
N799 C802 1.350 . S
N800 S798 1.610 . S
N800 C801 1.351 . S
C801 C795 1.428 1_545 S
C801 N800 1.351 . S
C801 C802 1.434 . S
C802 C793 1.429 1_556 S
C802 N799 1.350 . S
C802 C801 1.434 . S
C803 C804 1.369 . S
C803 C805 1.419 1_554 S
C803 H807 0.930 . S
C804 C803 1.369 . S
C804 C813 1.429 . S
C805 C803 1.419 1_556 S
C805 C806 1.363 . S
C805 H808 0.929 . S
C806 C805 1.363 . S
C806 C812 1.428 . S
H807 C803 0.930 . S
H808 C805 0.929 . S
S809 N810 1.613 . S
S809 N811 1.610 1_554 S
N810 S809 1.613 . S
N810 C813 1.350 . S
N811 S809 1.610 1_556 S
N811 C812 1.351 . S
C812 C806 1.428 . S
C812 N811 1.351 . S
C812 C813 1.434 1_556 S
C813 C804 1.429 . S
C813 N810 1.350 . S
C813 C812 1.434 1_554 S
C814 C815 1.393 . S
C814 C816 1.396 1_655 S
C814 H818 0.929 1_655 S
C815 C814 1.393 . S
C815 C824 1.429 1_554 S
C816 C814 1.396 1_455 S
C816 C817 1.363 1_554 S
C816 H819 0.929 . S
C817 C816 1.363 1_556 S
C817 C823 1.415 1_455 S
H818 C814 0.929 1_455 S
H819 C816 0.929 . S
S820 N821 1.613 . S
S820 N822 1.610 . S
N821 S820 1.613 . S
N821 C824 1.350 . S
N822 S820 1.610 . S
N822 C823 1.353 . S
C823 C817 1.415 1_655 S
C823 N822 1.353 . S
C823 C824 1.447 . S
C824 C815 1.429 1_556 S
C824 N821 1.350 . S
C824 C823 1.447 . S
C825 C826 1.369 1_454 S
C825 C827 1.419 1_545 S
C825 H829 0.930 . S
C826 C825 1.369 1_656 S
C826 C835 1.430 1_545 S
C827 C825 1.419 1_565 S
C827 C828 1.363 . S
C827 H830 0.929 . S
C828 C827 1.363 . S
C828 C834 1.428 1_454 S
H829 C825 0.930 . S
H830 C827 0.929 . S
S831 N832 1.613 . S
S831 N833 1.610 . S
N832 S831 1.613 . S
N832 C835 1.350 . S
N833 S831 1.610 . S
N833 C834 1.351 . S
C834 C828 1.428 1_656 S
C834 N833 1.351 . S
C834 C835 1.433 . S
C835 C826 1.430 1_565 S
C835 N832 1.350 . S
C835 C834 1.433 . S
C836 C837 1.369 . S
C836 C838 1.419 1_645 S
C836 H840 0.930 . S
C837 C836 1.369 . S
C837 C846 1.429 . S
C838 C836 1.419 1_465 S
C838 C839 1.363 . S
C838 H841 0.929 . S
C839 C838 1.363 . S
C839 C845 1.430 . S
H840 C836 0.930 . S
H841 C838 0.929 . S
S842 N843 1.613 . S
S842 N844 1.610 . S
N843 S842 1.613 . S
N843 C846 1.350 1_455 S
N844 S842 1.610 . S
N844 C845 1.351 1_545 S
C845 C839 1.430 . S
C845 N844 1.351 1_565 S
C845 C846 1.433 1_465 S
C846 C837 1.429 . S
C846 N843 1.350 1_655 S
C846 C845 1.433 1_645 S
C847 C848 1.369 . S
C847 C849 1.419 1_545 S
C847 H851 0.930 . S
C848 C847 1.369 . S
C848 C857 1.429 . S
C849 C847 1.419 1_565 S
C849 C850 1.363 . S
C849 H852 0.929 . S
C850 C849 1.363 . S
C850 C856 1.428 . S
H851 C847 0.930 . S
H852 C849 0.929 . S
S853 N854 1.613 . S
S853 N855 1.590 1_545 S
N854 S853 1.613 . S
N854 C857 1.350 . S
N855 S853 1.590 1_565 S
N855 C856 1.352 . S
C856 C850 1.428 . S
C856 N855 1.352 . S
C856 C857 1.434 1_565 S
C857 C848 1.429 . S
C857 N854 1.350 . S
C857 C856 1.434 1_545 S
C858 C859 1.369 . S
C858 C860 1.419 . S
C858 H862 0.930 . S
C859 C858 1.369 . S
C859 C868 1.429 . S
C860 C858 1.419 . S
C860 C861 1.363 . S
C860 H863 0.929 . S
C861 C860 1.363 . S
C861 C867 1.428 . S
H862 C858 0.930 . S
H863 C860 0.929 . S
S864 N865 1.613 . S
S864 N866 1.610 . S
N865 S864 1.613 . S
N865 C868 1.350 . S
N866 S864 1.610 . S
N866 C867 1.351 . S
C867 C861 1.428 . S
C867 N866 1.351 . S
C867 C868 1.434 . S
C868 C859 1.429 . S
C868 N865 1.350 . S
C868 C867 1.434 . S
C869 C870 1.369 . S
C869 C871 1.419 1_455 S
C869 H873 0.930 . S
C870 C869 1.369 . S
C870 C879 1.429 . S
C871 C869 1.419 1_655 S
C871 C872 1.363 . S
C871 H874 0.929 . S
C872 C871 1.363 . S
C872 C878 1.428 . S
H873 C869 0.930 . S
H874 C871 0.929 . S
S875 N876 1.613 1_655 S
S875 N877 1.610 . S
N876 S875 1.613 1_455 S
N876 C879 1.350 . S
N877 S875 1.610 . S
N877 C878 1.351 . S
C878 C872 1.428 . S
C878 N877 1.351 . S
C878 C879 1.434 1_655 S
C879 C870 1.429 . S
C879 N876 1.350 . S
C879 C878 1.434 1_455 S
C880 C881 1.369 . S
C880 C882 1.419 . S
C880 H884 0.930 . S
C881 C880 1.369 . S
C881 C890 1.429 . S
C882 C880 1.419 . S
C882 C883 1.363 . S
C882 H885 0.929 . S
C883 C882 1.363 . S
C883 C889 1.428 . S
H884 C880 0.930 . S
H885 C882 0.929 . S
S886 N887 1.613 . S
S886 N888 1.610 . S
N887 S886 1.613 . S
N887 C890 1.350 . S
N888 S886 1.610 . S
N888 C889 1.351 . S
C889 C883 1.428 . S
C889 N888 1.351 . S
C889 C890 1.434 . S
C890 C881 1.429 . S
C890 N887 1.350 . S
C890 C889 1.434 . S
C891 C892 1.369 . S
C891 C893 1.419 . S
C891 H895 0.930 . S
C892 C891 1.369 . S
C892 C901 1.429 . S
C893 C891 1.419 . S
C893 C894 1.363 . S
C893 H896 0.929 . S
C894 C893 1.363 . S
C894 C900 1.428 . S
H895 C891 0.930 . S
H896 C893 0.929 . S
S897 N898 1.613 . S
S897 N899 1.610 . S
N898 S897 1.613 . S
N898 C901 1.350 . S
N899 S897 1.610 . S
N899 C900 1.351 . S
C900 C894 1.428 . S
C900 N899 1.351 . S
C900 C901 1.434 . S
C901 C892 1.429 . S
C901 N898 1.350 . S
C901 C900 1.434 . S
C902 C903 1.369 . S
C902 C904 1.419 . S
C902 H906 0.930 . S
C903 C902 1.369 . S
C903 C912 1.429 . S
C904 C902 1.419 . S
C904 C905 1.363 . S
C904 H907 0.929 . S
C905 C904 1.363 . S
C905 C911 1.428 . S
H906 C902 0.930 . S
H907 C904 0.929 . S
S908 N909 1.613 . S
S908 N910 1.610 . S
N909 S908 1.613 . S
N909 C912 1.350 . S
N910 S908 1.610 . S
N910 C911 1.351 . S
C911 C905 1.428 . S
C911 N910 1.351 . S
C911 C912 1.434 . S
C912 C903 1.429 . S
C912 N909 1.350 . S
C912 C911 1.434 . S
C913 C914 1.369 . S
C913 C915 1.419 . S
C913 H917 0.930 . S
C914 C913 1.369 . S
C914 C923 1.429 . S
C915 C913 1.419 . S
C915 C916 1.363 . S
C915 H918 0.929 . S
C916 C915 1.363 . S
C916 C922 1.428 . S
H917 C913 0.930 . S
H918 C915 0.929 . S
S919 N920 1.613 . S
S919 N921 1.610 . S
N920 S919 1.613 . S
N920 C923 1.350 . S
N921 S919 1.610 . S
N921 C922 1.351 . S
C922 C916 1.428 . S
C922 N921 1.351 . S
C922 C923 1.434 . S
C923 C914 1.429 . S
C923 N920 1.350 . S
C923 C922 1.434 . S
C924 C925 1.369 . S
C924 C926 1.419 . S
C924 H928 0.930 . S
C925 C924 1.369 . S
C925 C934 1.429 . S
C926 C924 1.419 . S
C926 C927 1.363 . S
C926 H929 0.929 . S
C927 C926 1.363 . S
C927 C933 1.428 . S
H928 C924 0.930 . S
H929 C926 0.929 . S
S930 N931 1.613 . S
S930 N932 1.610 . S
N931 S930 1.613 . S
N931 C934 1.350 . S
N932 S930 1.610 . S
N932 C933 1.351 . S
C933 C927 1.428 . S
C933 N932 1.351 . S
C933 C934 1.434 . S
C934 C925 1.429 . S
C934 N931 1.350 . S
C934 C933 1.434 . S
C935 C936 1.369 . S
C935 C937 1.419 . S
C935 H939 0.930 . S
C936 C935 1.369 . S
C936 C945 1.429 . S
C937 C935 1.419 . S
C937 C938 1.363 . S
C937 H940 0.929 . S
C938 C937 1.363 . S
C938 C944 1.428 . S
H939 C935 0.930 . S
H940 C937 0.929 . S
S941 N942 1.613 . S
S941 N943 1.610 . S
N942 S941 1.613 . S
N942 C945 1.350 . S
N943 S941 1.610 . S
N943 C944 1.351 . S
C944 C938 1.428 . S
C944 N943 1.351 . S
C944 C945 1.434 . S
C945 C936 1.429 . S
C945 N942 1.350 . S
C945 C944 1.434 . S
C946 C947 1.369 . S
C946 C948 1.419 . S
C946 H950 0.930 . S
C947 C946 1.369 . S
C947 C956 1.429 . S
C948 C946 1.419 . S
C948 C949 1.363 . S
C948 H951 0.929 . S
C949 C948 1.363 . S
C949 C955 1.428 . S
H950 C946 0.930 . S
H951 C948 0.929 . S
S952 N953 1.613 . S
S952 N954 1.610 . S
N953 S952 1.613 . S
N953 C956 1.350 . S
N954 S952 1.610 . S
N954 C955 1.351 . S
C955 C949 1.428 . S
C955 N954 1.351 . S
C955 C956 1.434 . S
C956 C947 1.429 . S
C956 N953 1.350 . S
C956 C955 1.434 . S
C957 C958 1.369 . S
C957 C959 1.419 . S
C957 H961 0.930 . S
C958 C957 1.369 . S
C958 C967 1.429 . S
C959 C957 1.419 . S
C959 C960 1.363 . S
C959 H962 0.929 . S
C960 C959 1.363 . S
C960 C966 1.428 . S
H961 C957 0.930 . S
H962 C959 0.929 . S
S963 N964 1.613 . S
S963 N965 1.610 . S
N964 S963 1.613 . S
N964 C967 1.350 . S
N965 S963 1.610 . S
N965 C966 1.351 . S
C966 C960 1.428 . S
C966 N965 1.351 . S
C966 C967 1.434 . S
C967 C958 1.429 . S
C967 N964 1.350 . S
C967 C966 1.434 . S
C529 N14 1.069 . S
C531 C50 1.050 . S
C540 C83 1.055 . S
C542 N47 1.069 . S
C551 C116 1.057 . S
C553 N80 1.068 . S
C562 N113 1.070 . S
C564 C17 1.052 . S
C573 C248 1.051 . S
C575 N146 1.065 . S
C584 C149 1.051 . S
C586 N179 1.069 . S
C595 C182 1.054 . S
C597 N212 1.065 . S
C606 N245 1.065 . S
C608 C215 1.055 . S
C617 N278 1.065 . S
C619 C314 1.051 . S
C628 N311 1.065 . S
C630 C347 1.057 . S
C639 C380 1.053 . S
C641 N344 1.065 . S
C650 C281 1.053 . S
C652 N377 1.065 . S
C661 C512 1.053 . S
C663 N410 1.065 . S
C672 C413 1.058 . S
C674 N443 1.066 . S
C683 N476 1.070 . S
C685 C446 1.055 . S
C694 N509 1.065 . S
C696 C479 1.052 . S
C705 N5 1.870 . S
C707 N71 1.871 . S
C716 N38 1.871 . S
C718 N104 1.872 . S
C727 N203 1.871 . S
C729 N137 1.870 . S
C738 N236 1.871 . S
C740 N170 1.871 . S
C749 N335 1.873 . S
C751 N269 1.873 . S
C760 N302 1.870 . S
C762 N368 1.871 . S
C771 N401 1.870 . S
C773 N467 1.871 . S
C782 N434 1.873 . S
C784 N500 1.873 . S
C793 C8 1.846 . S
C795 C272 1.839 . S
C804 C41 1.842 . S
C806 C305 1.841 . S
C815 C74 1.843 . S
C817 C338 1.841 . S
C826 C371 1.842 . S
C828 C107 1.842 . S
C837 C404 1.841 . S
C839 C140 1.843 . S
C848 C173 1.846 . S
C850 C437 1.839 . S
C859 C206 1.841 . S
C861 C470 1.843 . S
C870 C503 1.839 . S
C872 C239 1.844 . S
C881 C193 1.584 . S
C883 C28 1.584 . S
C892 C226 1.584 . S
C894 C61 1.584 . S
C903 C94 1.583 . S
C905 C259 1.585 . S
C914 C160 1.586 . S
C916 C127 1.585 . S
C925 C292 1.586 . S
C927 C457 1.586 . S
C936 C490 1.584 . S
C938 C325 1.584 . S
C947 C523 1.584 . S
C949 C358 1.584 . S
C958 C391 1.586 . S
C960 C424 1.584 . S
