# Generated by pormake.
# Topology rac, (4)-cn, num edge types: 1
# Building blocks:
#     Node 0, Type 0, BuildingBlock: TATPOV_clean_sbu_0, # of connection points: 4
#     Node 1, Type 0, BuildingBlock: TATPOV_clean_sbu_0, # of connection points: 4
#     Node 2, Type 0, BuildingBlock: TATPOV_clean_sbu_0, # of connection points: 4
#     Node 3, Type 0, BuildingBlock: TATPOV_clean_sbu_0, # of connection points: 4
#     Node 4, Type 0, BuildingBlock: TATPOV_clean_sbu_0, # of connection points: 4
#     Node 5, Type 0, BuildingBlock: TATPOV_clean_sbu_0, # of connection points: 4
#     Node 6, Type 0, BuildingBlock: TATPOV_clean_sbu_0, # of connection points: 4
#     Node 7, Type 0, BuildingBlock: TATPOV_clean_sbu_0, # of connection points: 4
#     Edge 8, Type (0, 0), BuildingBlock: KIFKEQ_clean_linker_1, # of connection points: 2
#     Edge 9, Type (0, 0), BuildingBlock: KIFKEQ_clean_linker_1, # of connection points: 2
#     Edge 10, Type (0, 0), BuildingBlock: KIFKEQ_clean_linker_1, # of connection points: 2
#     Edge 11, Type (0, 0), BuildingBlock: KIFKEQ_clean_linker_1, # of connection points: 2
#     Edge 12, Type (0, 0), BuildingBlock: KIFKEQ_clean_linker_1, # of connection points: 2
#     Edge 13, Type (0, 0), BuildingBlock: KIFKEQ_clean_linker_1, # of connection points: 2
#     Edge 14, Type (0, 0), BuildingBlock: KIFKEQ_clean_linker_1, # of connection points: 2
#     Edge 15, Type (0, 0), BuildingBlock: KIFKEQ_clean_linker_1, # of connection points: 2
#     Edge 16, Type (0, 0), BuildingBlock: KIFKEQ_clean_linker_1, # of connection points: 2
#     Edge 17, Type (0, 0), BuildingBlock: KIFKEQ_clean_linker_1, # of connection points: 2
#     Edge 18, Type (0, 0), BuildingBlock: KIFKEQ_clean_linker_1, # of connection points: 2
#     Edge 19, Type (0, 0), BuildingBlock: KIFKEQ_clean_linker_1, # of connection points: 2
#     Edge 20, Type (0, 0), BuildingBlock: KIFKEQ_clean_linker_1, # of connection points: 2
#     Edge 21, Type (0, 0), BuildingBlock: KIFKEQ_clean_linker_1, # of connection points: 2
#     Edge 22, Type (0, 0), BuildingBlock: KIFKEQ_clean_linker_1, # of connection points: 2
#     Edge 23, Type (0, 0), BuildingBlock: KIFKEQ_clean_linker_1, # of connection points: 2
# Relax obj value: 0.269
# Max RMSD: 0.123
# Mean RMSD: 0.123
data_MOF--net-rac--node1-TATPOV_clean_sbu_0--edge1-KIFKEQ_clean_linker_1
_symmetry_space_group_name_H-M    P1
_symmetry_Int_Tables_number       1
_symmetry_cell_setting            triclinic
loop_
_symmetry_equiv_pos_as_xyz
'x, y, z'
_cell_length_a     36.734137
_cell_length_b     21.358617
_cell_length_c     44.852735
_cell_angle_alpha  89.991539
_cell_angle_beta   89.829396
_cell_angle_gamma 89.724347
loop_
_atom_site_label
_atom_site_type_symbol
_atom_site_fract_x
_atom_site_fract_y
_atom_site_fract_z
_atom_type_partial_charge
Zn0 Zn 0.35654 0.22175 0.0092 0.0
Zn1 Zn 0.38046 0.2238 0.0642 0.0
O2 O 0.42455 0.24611 0.03733 0.0
O3 O 0.40599 0.23491 0.9911 0.0
O4 O 0.40031 0.21209 0.10561 0.0
O5 O 0.33152 0.13846 0.01277 0.0
O6 O 0.34735 0.14658 0.05974 0.0
C7 C 0.43072 0.24966 0.00935 0.0
C8 C 0.32844 0.32378 0.04697 0.0
O9 O 0.34813 0.29992 0.06731 0.0
O10 O 0.32768 0.2994 0.02118 0.0
C11 C 0.41253 0.25685 0.12126 0.0
O12 O 0.41447 0.31312 0.10953 0.0
C13 C 0.32971 0.11863 0.03931 0.0
Zn14 Zn 0.09095 0.74735 0.05184 0.0
Zn15 Zn 0.08431 0.72975 0.10715 0.0
O16 O 0.03829 0.68955 0.08739 0.0
O17 O 0.04487 0.70737 0.03947 0.0
O18 O 0.07274 0.73369 0.1514 0.0
O19 O 0.09803 0.83952 0.05092 0.0
O20 O 0.10676 0.81762 0.09811 0.0
C21 C 0.02714 0.68289 0.06061 0.0
C22 C 0.14511 0.66323 0.07876 0.0
O23 O 0.12616 0.66879 0.1024 0.0
O24 O 0.13627 0.69291 0.05536 0.0
C25 C 0.07996 0.68928 0.16939 0.0
O26 O 0.09478 0.63755 0.15903 0.0
C27 C 0.11014 0.85524 0.07615 0.0
Zn28 Zn 0.38936 0.23845 0.45919 0.0
Zn29 Zn 0.39246 0.22732 0.40326 0.0
O30 O 0.43531 0.1748 0.42076 0.0
O31 O 0.43445 0.19022 0.46913 0.0
O32 O 0.40306 0.23763 0.35944 0.0
O33 O 0.38406 0.33121 0.46352 0.0
O34 O 0.37316 0.31493 0.41617 0.0
C35 C 0.44803 0.16305 0.44662 0.0
C36 C 0.33104 0.16474 0.43005 0.0
O37 O 0.34876 0.17203 0.40593 0.0
O38 O 0.34227 0.1891 0.45413 0.0
C39 C 0.41799 0.19561 0.34342 0.0
O40 O 0.42771 0.14229 0.35572 0.0
C41 C 0.37121 0.35037 0.43903 0.0
Zn42 Zn 0.12641 0.72318 0.50385 0.0
Zn43 Zn 0.10032 0.72555 0.45033 0.0
O44 O 0.05827 0.75433 0.47877 0.0
O45 O 0.07916 0.74078 0.52421 0.0
O46 O 0.07913 0.71402 0.40897 0.0
O47 O 0.15013 0.63885 0.50178 0.0
O48 O 0.1337 0.64731 0.45494 0.0
C49 C 0.05409 0.75925 0.507 0.0
C50 C 0.15429 0.82284 0.46543 0.0
O51 O 0.13345 0.79948 0.44588 0.0
O52 O 0.15616 0.79878 0.49124 0.0
C53 C 0.07456 0.76016 0.39139 0.0
O54 O 0.08034 0.8171 0.40132 0.0
C55 C 0.15151 0.61886 0.47528 0.0
Zn56 Zn 0.64999 0.68369 0.93698 0.0
Zn57 Zn 0.60407 0.70609 0.89405 0.0
O58 O 0.57905 0.63354 0.91732 0.0
O59 O 0.62134 0.60848 0.94992 0.0
O60 O 0.57286 0.72458 0.8582 0.0
O61 O 0.64202 0.76735 0.9557 0.0
O62 O 0.61289 0.79187 0.91451 0.0
C63 C 0.59071 0.59791 0.93814 0.0
C64 C 0.68232 0.67095 0.87946 0.0
O65 O 0.64932 0.6774 0.87169 0.0
O66 O 0.6908 0.67486 0.90674 0.0
C67 C 0.56757 0.67945 0.84023 0.0
O68 O 0.57637 0.62252 0.84879 0.0
C69 C 0.62753 0.80822 0.93909 0.0
Zn70 Zn 0.78815 0.32085 0.96249 0.0
Zn71 Zn 0.84221 0.26331 0.93328 0.0
O72 O 0.86973 0.31247 0.96595 0.0
O73 O 0.82517 0.36241 0.989 0.0
O74 O 0.87948 0.21934 0.90762 0.0
O75 O 0.76441 0.24049 0.97388 0.0
O76 O 0.80494 0.19447 0.94487 0.0
C77 C 0.85885 0.35112 0.98585 0.0
C78 C 0.794 0.35477 0.90039 0.0
O79 O 0.82268 0.32173 0.90156 0.0
O80 O 0.77357 0.36026 0.92305 0.0
C81 C 0.90284 0.25376 0.89464 0.0
O82 O 0.90614 0.31217 0.90341 0.0
C83 C 0.77623 0.19183 0.96098 0.0
Zn84 Zn 0.66999 0.80463 0.51889 0.0
Zn85 Zn 0.63507 0.76907 0.56647 0.0
O86 O 0.59645 0.78556 0.53355 0.0
O87 O 0.62736 0.79414 0.49175 0.0
O88 O 0.60825 0.74055 0.60363 0.0
O89 O 0.70963 0.74094 0.52381 0.0
O90 O 0.67838 0.70606 0.5622 0.0
C91 C 0.59717 0.79522 0.50541 0.0
C92 C 0.66621 0.89864 0.56483 0.0
O93 O 0.65211 0.85457 0.57982 0.0
O94 O 0.67545 0.88983 0.53792 0.0
C95 C 0.6268 0.74799 0.62728 0.0
O96 O 0.66058 0.7674 0.62486 0.0
C97 C 0.70633 0.70289 0.54524 0.0
Zn98 Zn 0.87592 0.24854 0.56558 0.0
Zn99 Zn 0.89699 0.24535 0.61913 0.0
O100 O 0.92661 0.17469 0.59731 0.0
O101 O 0.9059 0.17632 0.55137 0.0
O102 O 0.91791 0.25055 0.66066 0.0
O103 O 0.88944 0.33609 0.55609 0.0
O104 O 0.8913 0.33852 0.60493 0.0
C105 C 0.92608 0.15184 0.57097 0.0
C106 C 0.81975 0.21756 0.60914 0.0
O107 O 0.8463 0.21381 0.62711 0.0
O108 O 0.82502 0.23407 0.58232 0.0
C109 C 0.92241 0.20089 0.67591 0.0
O110 O 0.91571 0.14648 0.66345 0.0
C111 C 0.88928 0.36734 0.58 0.0
H112 H 0.28874 0.04666 1.00192 0.0
H113 H 0.30495 0.08882 0.09516 0.0
H114 H 0.23376 0.98922 0.01447 0.0
H115 H 0.24929 0.03291 0.10761 0.0
H116 H 0.16407 0.87227 0.11719 0.0
H117 H 0.21908 0.93364 0.11001 0.0
H118 H 0.17302 0.01484 0.03027 0.0
H119 H 0.1185 0.95194 0.03695 0.0
C120 C 0.28088 0.04296 0.02515 0.0
C121 C 0.30123 0.07266 0.04747 0.0
C122 C 0.24899 0.01084 0.03233 0.0
C123 C 0.23648 0.00792 0.06199 0.0
C124 C 0.258 0.03437 0.08454 0.0
C125 C 0.29007 0.06623 0.07737 0.0
C126 C 0.16516 0.90469 0.09864 0.0
C127 C 0.13702 0.90665 0.07744 0.0
C128 C 0.1969 0.93964 0.09441 0.0
C129 C 0.20099 0.97771 0.06904 0.0
C130 C 0.17133 0.98425 0.04948 0.0
C131 C 0.13978 0.94899 0.05357 0.0
H132 H 0.18865 0.53959 0.51224 0.0
H133 H 0.18033 0.59616 0.42003 0.0
H134 H 0.24401 0.48132 0.50072 0.0
H135 H 0.23648 0.53999 0.40869 0.0
H136 H 0.32094 0.38002 0.39646 0.0
H137 H 0.2662 0.44237 0.40368 0.0
H138 H 0.30597 0.50244 0.48959 0.0
H139 H 0.36014 0.43775 0.48287 0.0
C140 C 0.19837 0.53888 0.48941 0.0
C141 C 0.18003 0.5726 0.4671 0.0
C142 C 0.23051 0.50635 0.48287 0.0
C143 C 0.2454 0.50726 0.45391 0.0
C144 C 0.22594 0.53816 0.43124 0.0
C145 C 0.19354 0.57017 0.43773 0.0
C146 C 0.31855 0.40783 0.41657 0.0
C147 C 0.3448 0.40312 0.43928 0.0
C148 C 0.28694 0.44352 0.42077 0.0
C149 C 0.28103 0.47606 0.44762 0.0
C150 C 0.30894 0.47613 0.46908 0.0
C151 C 0.34037 0.43989 0.46502 0.0
H152 H 0.64393 0.86184 0.9925 0.0
H153 H 0.63315 0.90299 0.89861 0.0
H154 H 0.67781 0.95869 0.99945 0.0
H155 H 0.6672 -0.00026 0.90564 0.0
H156 H 0.77889 0.09316 0.9223 0.0
H157 H 0.7352 0.00789 0.91812 0.0
H158 H 0.67731 0.07786 0.9952 0.0
H159 H 0.7209 0.16345 0.99943 0.0
C160 C 0.6477 0.89264 0.97356 0.0
C161 C 0.63623 0.87449 0.94495 0.0
C162 C 0.66722 0.94795 0.97753 0.0
C163 C 0.67588 0.98571 0.95293 0.0
C164 C 0.66148 0.97063 0.92485 0.0
C165 C 0.64153 0.91571 0.92093 0.0
C166 C 0.7572 0.08989 0.93863 0.0
C167 C 0.75341 0.13499 0.96122 0.0
C168 C 0.73186 0.04166 0.93595 0.0
C169 C 0.70251 0.0371 0.95601 0.0
C170 C 0.69955 0.08059 0.97934 0.0
C171 C 0.72461 0.12932 0.98181 0.0
H172 H 0.77427 0.70208 0.52067 0.0
H173 H 0.70771 0.60585 0.58552 0.0
H174 H 0.8254 0.63443 0.53271 0.0
H175 H 0.75868 0.53601 0.59677 0.0
H176 H 0.85899 0.43694 0.62516 0.0
H177 H 0.81787 0.52593 0.61876 0.0
H178 H 0.84409 0.53063 0.52479 0.0
H179 H 0.88588 0.44373 0.5314 0.0
C180 C 0.77037 0.66594 0.5373 0.0
C181 C 0.73667 0.65896 0.55189 0.0
C182 C 0.79982 0.62707 0.54423 0.0
C183 C 0.79634 0.57956 0.56572 0.0
C184 C 0.76266 0.57279 0.58048 0.0
C185 C 0.73322 0.61226 0.57375 0.0
C186 C 0.85709 0.45862 0.60339 0.0
C187 C 0.87538 0.43257 0.5787 0.0
C188 C 0.83296 0.50898 0.5996 0.0
C189 C 0.82676 0.53443 0.5711 0.0
C190 C 0.84798 0.51244 0.54709 0.0
C191 C 0.87211 0.46239 0.55088 0.0
H192 H 0.43596 0.34289 0.16211 0.0
H193 H 0.40648 0.14819 0.15304 0.0
H194 H 0.44274 0.3285 0.21577 0.0
H195 H 0.41239 0.13427 0.20662 0.0
H196 H 0.44873 0.11624 0.30239 0.0
H197 H 0.45346 0.13133 0.24858 0.0
H198 H 0.40172 0.31256 0.25726 0.0
H199 H 0.39777 0.29818 0.31094 0.0
C200 C 0.4312 0.29692 0.1715 0.0
C201 C 0.4204 0.24684 0.1533 0.0
C202 C 0.43487 0.28877 0.20229 0.0
C203 C 0.42779 0.23037 0.21556 0.0
C204 C 0.41841 0.17972 0.19716 0.0
C205 C 0.4148 0.18783 0.1664 0.0
C206 C 0.43864 0.15951 0.29283 0.0
C207 C 0.42269 0.20584 0.31096 0.0
C208 C 0.44122 0.16805 0.26197 0.0
C209 C 0.42789 0.22309 0.24856 0.0
C210 C 0.41274 0.26998 0.26683 0.0
C211 C 0.41022 0.2615 0.29765 0.0
H212 H 0.05998 0.64925 0.36311 0.0
H213 H 0.07506 0.84672 0.34657 0.0
H214 H 0.05598 0.63059 0.30957 0.0
H215 H 0.07237 0.82791 0.29321 0.0
H216 H 0.04386 0.78456 0.19796 0.0
H217 H 0.03649 0.79997 0.2515 0.0
H218 H 0.09596 0.6283 0.26785 0.0
H219 H 0.10215 0.61191 0.21441 0.0
C220 C 0.0622 0.68875 0.34807 0.0
C221 C 0.06803 0.74943 0.35916 0.0
C222 C 0.0602 0.678 0.31733 0.0
C223 C 0.06421 0.72759 0.29692 0.0
C224 C 0.06871 0.78858 0.30814 0.0
C225 C 0.07045 0.79937 0.33885 0.0
C226 C 0.05509 0.74986 0.213 0.0
C227 C 0.07374 0.69715 0.20188 0.0
C228 C 0.05104 0.75885 0.24374 0.0
C229 C 0.06578 0.7156 0.26415 0.0
C230 C 0.08374 0.66218 0.25292 0.0
C231 C 0.08754 0.65297 0.22219 0.0
H232 H 0.56435 0.79338 0.81232 0.0
H233 H 0.55861 0.59452 0.7952 0.0
H234 H 0.57073 0.81279 0.759 0.0
H235 H 0.56509 0.61429 0.74185 0.0
H236 H 0.56543 0.68211 0.64338 0.0
H237 H 0.54074 0.66848 0.69402 0.0
H238 H 0.62691 0.78381 0.72891 0.0
H239 H 0.65155 0.79675 0.67905 0.0
C240 C 0.56341 0.7539 0.79719 0.0
C241 C 0.56167 0.69228 0.80811 0.0
C242 C 0.56723 0.76507 0.76664 0.0
C243 C 0.56906 0.71496 0.74637 0.0
C244 C 0.56376 0.6538 0.75696 0.0
C245 C 0.56018 0.64254 0.78756 0.0
C246 C 0.57887 0.7047 0.66192 0.0
C247 C 0.61056 0.7401 0.65728 0.0
C248 C 0.56477 0.69693 0.69082 0.0
C249 C 0.58169 0.72567 0.71533 0.0
C250 C 0.61289 0.76198 0.71043 0.0
C251 C 0.62725 0.76879 0.68185 0.0
H252 H 0.93422 0.10416 0.71481 0.0
H253 H 0.92812 0.306 0.71036 0.0
H254 H 0.93964 0.10986 0.76893 0.0
H255 H 0.93244 0.31167 0.76432 0.0
H256 H 0.95343 0.31521 0.86093 0.0
H257 H 0.96756 0.29737 0.80848 0.0
H258 H 0.89897 0.13355 0.80904 0.0
H259 H 0.88584 0.15024 0.86156 0.0
C260 C 0.93441 0.14979 0.72533 0.0
C261 C 0.93038 0.20461 0.70826 0.0
C262 C 0.93734 0.15303 0.7564 0.0
C263 C 0.93619 0.21116 0.77113 0.0
C264 C 0.93393 0.26607 0.75384 0.0
C265 C 0.93117 0.26283 0.7228 0.0
C266 C 0.94213 0.27445 0.85004 0.0
C267 C 0.91809 0.23468 0.86536 0.0
C268 C 0.94998 0.26453 0.81988 0.0
C269 C 0.93381 0.2148 0.80428 0.0
C270 C 0.91209 0.17219 0.82026 0.0
C271 C 0.90445 0.18187 0.85047 0.0
H272 H 0.4818 0.31222 0.04207 0.0
H273 H 0.45107 0.26988 0.95137 0.0
H274 H 0.52277 0.39297 0.02399 0.0
H275 H 0.49264 0.34999 0.93328 0.0
H276 H 0.52453 0.55649 0.91775 0.0
H277 H 0.49111 0.46394 0.93404 0.0
H278 H 0.5768 0.41994 0.9965 0.0
H279 H 0.60968 0.51278 0.98083 0.0
C280 C 0.48461 0.31866 0.01822 0.0
C281 C 0.46274 0.28493 0.99824 0.0
C282 C 0.5081 0.36524 0.00782 0.0
C283 C 0.5104 0.37898 0.97718 0.0
C284 C 0.49078 0.34175 0.95706 0.0
C285 C 0.46728 0.29522 0.96745 0.0
C286 C 0.53617 0.52717 0.93501 0.0
C287 C 0.56968 0.54245 0.94807 0.0
C288 C 0.51721 0.47369 0.94414 0.0
C289 C 0.53135 0.43424 0.96652 0.0
C290 C 0.56492 0.4495 0.97945 0.0
C291 C 0.58381 0.50284 0.97037 0.0
H292 H -0.00049 0.65775 0.0057 0.0
H293 H 0.98882 0.60532 0.09844 0.0
H294 H 0.96038 0.57154 0.99156 0.0
H295 H 0.94879 0.51881 0.08395 0.0
H296 H 0.84637 0.42036 0.03617 0.0
H297 H 0.88588 0.50046 0.05746 0.0
H298 H 0.96982 0.45171 0.99396 0.0
H299 H 0.93055 0.37138 0.97271 0.0
C300 C 0.98838 0.62848 0.02319 0.0
C301 C -0.00239 0.63833 0.05325 0.0
C302 C 0.96622 0.57863 0.01498 0.0
C303 C 0.9523 0.53769 0.03659 0.0
C304 C 0.95949 0.54949 0.06684 0.0
C305 C 0.98218 0.59921 0.07511 0.0
C306 C 0.87356 0.42577 0.02717 0.0
C307 C 0.88521 0.38986 1.00255 0.0
C308 C 0.89615 0.47158 0.03942 0.0
C309 C 0.93059 0.4829 0.02703 0.0
C310 C 0.94311 0.44446 0.00364 0.0
C311 C 0.92075 0.39812 0.99165 0.0
H312 H 0.53296 0.83355 0.531 0.0
H313 H 0.59218 0.83585 0.4476 0.0
H314 H 0.4955 0.92048 0.51371 0.0
H315 H 0.55536 0.92378 0.43073 0.0
H316 H 0.46807 0.07248 0.40627 0.0
H317 H 0.49772 0.97242 0.41713 0.0
H318 H 0.51257 0.02995 0.5086 0.0
H319 H 0.48254 0.12904 0.49796 0.0
C320 C 0.53729 0.85109 0.50862 0.0
C321 C 0.56626 0.82854 0.49104 0.0
C322 C 0.51618 0.90174 0.49888 0.0
C323 C 0.52344 0.93072 0.47133 0.0
C324 C 0.54931 0.90316 0.45223 0.0
C325 C 0.57038 0.85239 0.46192 0.0
C326 C 0.4783 0.06426 0.42856 0.0
C327 C 0.4728 0.10885 0.45127 0.0
C328 C 0.49505 0.00664 0.43483 0.0
C329 C 0.50663 -0.00759 0.46393 0.0
C330 C 0.50287 0.03844 0.48617 0.0
C331 C 0.48617 0.0958 0.47994 0.0
H332 H 0.94232 0.05472 0.60844 0.0
H333 H 0.95147 0.11428 0.51683 0.0
H334 H 0.96526 0.95128 0.59474 0.0
H335 H 0.97649 0.01273 0.50324 0.0
H336 H -0.00227 0.81734 0.47747 0.0
H337 H 0.96357 0.90848 0.4947 0.0
H338 H 0.01513 0.8929 0.58097 0.0
H339 H 0.04705 0.80006 0.56443 0.0
C340 C 0.95014 0.04611 0.5855 0.0
C341 C 0.9453 0.09267 0.56375 0.0
C342 C 0.96322 0.98663 0.57753 0.0
C343 C 0.97246 0.9727 0.5477 0.0
C344 C 0.96867 0.02043 0.52624 0.0
C345 C 0.9549 0.07927 0.5341 0.0
C346 C 0.00077 0.83214 0.50042 0.0
C347 C 0.0256 0.80169 0.51935 0.0
C348 C 0.98168 0.88529 0.51021 0.0
C349 C 0.98741 0.90991 0.539 0.0
C350 C 0.0098 0.87598 0.55867 0.0
C351 C 0.02829 0.8223 0.54908 0.0
H352 H 0.19929 0.66227 0.03755 0.0
H353 H 0.16284 0.56955 0.11789 0.0
H354 H 0.24825 0.58617 0.03232 0.0
H355 H 0.2116 0.49208 0.11217 0.0
H356 H 0.31884 0.38373 0.10048 0.0
H357 H 0.27858 0.47267 0.1109 0.0
H358 H 0.24589 0.47593 0.01844 0.0
H359 H 0.28619 0.38852 0.00791 0.0
C360 C 0.20185 0.62573 0.05418 0.0
C361 C 0.17688 0.62106 0.07782 0.0
C362 C 0.22986 0.58217 0.05115 0.0
C363 C 0.2333 0.5327 0.07155 0.0
C364 C 0.20962 0.52995 0.09618 0.0
C365 C 0.18163 0.574 0.09936 0.0
C366 C 0.30325 0.40388 0.08237 0.0
C367 C 0.30561 0.37907 0.05338 0.0
C368 C 0.28015 0.45452 0.08838 0.0
C369 C 0.25929 0.48128 0.06546 0.0
C370 C 0.26213 0.45697 0.03646 0.0
C371 C 0.28504 0.40651 0.03047 0.0
H372 H 0.31063 0.07585 0.38969 0.0
H373 H 0.27824 0.16413 0.47241 0.0
H374 H 0.26264 -0.0018 0.39618 0.0
H375 H 0.22992 0.08772 0.47847 0.0
H376 H 0.19915 0.88637 0.50266 0.0
H377 H 0.23644 0.97647 0.49102 0.0
H378 H 0.19615 0.97618 0.40059 0.0
H379 H 0.1589 0.8847 0.41209 0.0
C380 C 0.29271 0.07953 0.40884 0.0
C381 C 0.29857 0.12497 0.4309 0.0
C382 C 0.26518 0.03533 0.41248 0.0
C383 C 0.24311 0.03645 0.43811 0.0
C384 C 0.24717 0.08503 0.45887 0.0
C385 C 0.27477 0.12873 0.45537 0.0
C386 C 0.19806 0.90551 0.48031 0.0
C387 C 0.1762 0.87833 0.45827 0.0
C388 C 0.21917 0.95753 0.47372 0.0
C389 C 0.21886 0.98357 0.44498 0.0
C390 C 0.19688 0.95679 0.4229 0.0
C391 C 0.17559 0.90461 0.42952 0.0
H392 H 0.75619 0.67181 0.88483 0.0
H393 H 0.67012 0.61776 0.82486 0.0
H394 H 0.79574 0.59364 0.86299 0.0
H395 H 0.70998 0.53886 0.80288 0.0
H396 H 0.72818 0.37184 0.87508 0.0
H397 H 0.71137 0.4574 0.84263 0.0
H398 H 0.8247 0.50828 0.83353 0.0
H399 H 0.84148 0.42022 0.86571 0.0
C400 C 0.74629 0.64517 0.86598 0.0
C401 C 0.70948 0.64761 0.85788 0.0
C402 C 0.76922 0.60072 0.853 0.0
C403 C 0.75502 0.55722 0.83259 0.0
C404 C 0.7211 0.57027 0.81946 0.0
C405 C 0.69811 0.61508 0.83233 0.0
C406 C 0.74957 0.39961 0.86501 0.0
C407 C 0.78582 0.39145 0.87361 0.0
C408 C 0.74011 0.44832 0.84596 0.0
C409 C 0.7667 0.49117 0.83627 0.0
C410 C 0.80362 0.47659 0.84102 0.0
C411 C 0.81318 0.42663 0.85963 0.0
H412 H 0.66652 0.92721 0.62439 0.0
H413 H 0.6803 0.00817 0.5368 0.0
H414 H 0.68791 0.02453 0.64697 0.0
H415 H 0.70195 0.10378 0.55891 0.0
H416 H 0.80466 0.12392 0.64812 0.0
H417 H 0.75028 0.0601 0.64677 0.0
H418 H 0.69845 0.19582 0.58908 0.0
H419 H 0.75394 0.25795 0.58918 0.0
C420 C 0.67336 0.96622 0.61002 0.0
C421 C 0.67292 0.95971 0.57884 0.0
C422 C 0.68544 0.0219 0.62294 0.0
C423 C 0.69701 0.07173 0.60482 0.0
C424 C 0.69298 0.06686 0.57371 0.0
C425 C 0.68117 0.01142 0.56089 0.0
C426 C 0.78111 0.14134 0.63616 0.0
C427 C 0.78377 0.19411 0.61772 0.0
C428 C 0.7497 0.105 0.63556 0.0
C429 C 0.72064 0.12172 0.61674 0.0
C430 C 0.72099 0.18076 0.6029 0.0
C431 C 0.7527 0.21625 0.60291 0.0
loop_
_geom_bond_atom_site_label_1
_geom_bond_atom_site_label_2
_geom_bond_distance
_geom_bond_site_symmetry_2
_ccdc_geom_bond_type
Zn0 O3 2.031 . S
Zn0 O5 2.049 . S
Zn0 O10 2.067 . S
Zn1 O2 1.962 . S
Zn1 O4 1.986 . S
Zn1 O6 1.996 . S
Zn1 O9 1.943 . S
O2 Zn1 1.962 . S
O2 C7 1.254 . S
O3 Zn0 2.031 . S
O3 C7 1.269 . S
O4 Zn1 1.986 . S
O4 C11 1.262 . S
O5 Zn0 2.049 . S
O5 C13 1.260 . S
O6 Zn1 1.996 . S
O6 C13 1.257 . S
C7 O2 1.254 . S
C7 O3 1.269 . S
C8 O9 1.249 . S
C8 O10 1.270 . S
O9 Zn1 1.943 . S
O9 C8 1.249 . S
O10 Zn0 2.067 . S
O10 C8 1.270 . S
C11 O4 1.262 . S
C11 O12 1.232 . S
O12 C11 1.232 . S
C13 O5 1.260 . S
C13 O6 1.257 . S
Zn14 O17 2.031 . S
Zn14 O19 2.049 . S
Zn14 O24 2.067 . S
Zn15 O16 1.962 . S
Zn15 O18 1.986 . S
Zn15 O20 1.996 . S
Zn15 O23 1.943 . S
O16 Zn15 1.962 . S
O16 C21 1.254 . S
O17 Zn14 2.031 . S
O17 C21 1.269 . S
O18 Zn15 1.986 . S
O18 C25 1.262 . S
O19 Zn14 2.049 . S
O19 C27 1.260 . S
O20 Zn15 1.996 . S
O20 C27 1.257 . S
C21 O16 1.254 . S
C21 O17 1.269 . S
C22 O23 1.249 . S
C22 O24 1.270 . S
O23 Zn15 1.943 . S
O23 C22 1.249 . S
O24 Zn14 2.067 . S
O24 C22 1.270 . S
C25 O18 1.262 . S
C25 O26 1.232 . S
O26 C25 1.232 . S
C27 O19 1.260 . S
C27 O20 1.257 . S
Zn28 O31 2.031 . S
Zn28 O33 2.049 . S
Zn28 O38 2.067 . S
Zn29 O30 1.962 . S
Zn29 O32 1.986 . S
Zn29 O34 1.996 . S
Zn29 O37 1.943 . S
O30 Zn29 1.962 . S
O30 C35 1.254 . S
O31 Zn28 2.031 . S
O31 C35 1.269 . S
O32 Zn29 1.986 . S
O32 C39 1.262 . S
O33 Zn28 2.049 . S
O33 C41 1.260 . S
O34 Zn29 1.996 . S
O34 C41 1.257 . S
C35 O30 1.254 . S
C35 O31 1.269 . S
C36 O37 1.249 . S
C36 O38 1.270 . S
O37 Zn29 1.943 . S
O37 C36 1.249 . S
O38 Zn28 2.067 . S
O38 C36 1.270 . S
C39 O32 1.262 . S
C39 O40 1.232 . S
O40 C39 1.232 . S
C41 O33 1.260 . S
C41 O34 1.257 . S
Zn42 O45 2.031 . S
Zn42 O47 2.049 . S
Zn42 O52 2.067 . S
Zn43 O44 1.962 . S
Zn43 O46 1.986 . S
Zn43 O48 1.996 . S
Zn43 O51 1.943 . S
O44 Zn43 1.962 . S
O44 C49 1.254 . S
O45 Zn42 2.031 . S
O45 C49 1.269 . S
O46 Zn43 1.986 . S
O46 C53 1.262 . S
O47 Zn42 2.049 . S
O47 C55 1.260 . S
O48 Zn43 1.996 . S
O48 C55 1.257 . S
C49 O44 1.254 . S
C49 O45 1.269 . S
C50 O51 1.249 . S
C50 O52 1.270 . S
O51 Zn43 1.943 . S
O51 C50 1.249 . S
O52 Zn42 2.067 . S
O52 C50 1.270 . S
C53 O46 1.262 . S
C53 O54 1.232 . S
O54 C53 1.232 . S
C55 O47 1.260 . S
C55 O48 1.257 . S
Zn56 O59 2.031 . S
Zn56 O61 2.049 . S
Zn56 O66 2.067 . S
Zn57 O58 1.962 . S
Zn57 O60 1.986 . S
Zn57 O62 1.996 . S
Zn57 O65 1.943 . S
O58 Zn57 1.962 . S
O58 C63 1.254 . S
O59 Zn56 2.031 . S
O59 C63 1.269 . S
O60 Zn57 1.986 . S
O60 C67 1.262 . S
O61 Zn56 2.049 . S
O61 C69 1.260 . S
O62 Zn57 1.996 . S
O62 C69 1.257 . S
C63 O58 1.254 . S
C63 O59 1.269 . S
C64 O65 1.249 . S
C64 O66 1.270 . S
O65 Zn57 1.943 . S
O65 C64 1.249 . S
O66 Zn56 2.067 . S
O66 C64 1.270 . S
C67 O60 1.262 . S
C67 O68 1.232 . S
O68 C67 1.232 . S
C69 O61 1.260 . S
C69 O62 1.257 . S
Zn70 O73 2.031 . S
Zn70 O75 2.049 . S
Zn70 O80 2.067 . S
Zn71 O72 1.962 . S
Zn71 O74 1.986 . S
Zn71 O76 1.996 . S
Zn71 O79 1.943 . S
O72 Zn71 1.962 . S
O72 C77 1.254 . S
O73 Zn70 2.031 . S
O73 C77 1.269 . S
O74 Zn71 1.986 . S
O74 C81 1.262 . S
O75 Zn70 2.049 . S
O75 C83 1.260 . S
O76 Zn71 1.996 . S
O76 C83 1.257 . S
C77 O72 1.254 . S
C77 O73 1.269 . S
C78 O79 1.249 . S
C78 O80 1.270 . S
O79 Zn71 1.943 . S
O79 C78 1.249 . S
O80 Zn70 2.067 . S
O80 C78 1.270 . S
C81 O74 1.262 . S
C81 O82 1.232 . S
O82 C81 1.232 . S
C83 O75 1.260 . S
C83 O76 1.257 . S
Zn84 O87 2.031 . S
Zn84 O89 2.049 . S
Zn84 O94 2.067 . S
Zn85 O86 1.962 . S
Zn85 O88 1.986 . S
Zn85 O90 1.996 . S
Zn85 O93 1.943 . S
O86 Zn85 1.962 . S
O86 C91 1.254 . S
O87 Zn84 2.031 . S
O87 C91 1.269 . S
O88 Zn85 1.986 . S
O88 C95 1.262 . S
O89 Zn84 2.049 . S
O89 C97 1.260 . S
O90 Zn85 1.996 . S
O90 C97 1.257 . S
C91 O86 1.254 . S
C91 O87 1.269 . S
C92 O93 1.249 . S
C92 O94 1.270 . S
O93 Zn85 1.943 . S
O93 C92 1.249 . S
O94 Zn84 2.067 . S
O94 C92 1.270 . S
C95 O88 1.262 . S
C95 O96 1.232 . S
O96 C95 1.232 . S
C97 O89 1.260 . S
C97 O90 1.257 . S
Zn98 O101 2.031 . S
Zn98 O103 2.049 . S
Zn98 O108 2.067 . S
Zn99 O100 1.962 . S
Zn99 O102 1.986 . S
Zn99 O104 1.996 . S
Zn99 O107 1.943 . S
O100 Zn99 1.962 . S
O100 C105 1.254 . S
O101 Zn98 2.031 . S
O101 C105 1.269 . S
O102 Zn99 1.986 . S
O102 C109 1.262 . S
O103 Zn98 2.049 . S
O103 C111 1.260 . S
O104 Zn99 1.996 . S
O104 C111 1.257 . S
C105 O100 1.254 . S
C105 O101 1.269 . S
C106 O107 1.249 . S
C106 O108 1.270 . S
O107 Zn99 1.943 . S
O107 C106 1.249 . S
O108 Zn98 2.067 . S
O108 C106 1.270 . S
C109 O102 1.262 . S
C109 O110 1.232 . S
O110 C109 1.232 . S
C111 O103 1.260 . S
C111 O104 1.257 . S
H112 C120 0.950 . S
H113 C125 0.950 . S
H114 C122 0.950 . S
H115 C124 0.950 . S
H116 C126 0.950 . S
H117 C128 0.950 . S
H118 C130 0.950 . S
H119 C131 0.950 . S
C120 H112 0.950 . S
C120 C121 1.386 . S
C120 C122 1.391 . S
C121 C120 1.386 . S
C121 C125 1.393 . S
C122 H114 0.950 . S
C122 C120 1.391 . S
C122 C123 1.400 . S
C123 C122 1.400 . S
C123 C124 1.398 . S
C123 C129 1.491 1_545 S
C124 H115 0.950 . S
C124 C123 1.398 . S
C124 C125 1.391 . S
C125 H113 0.950 . S
C125 C121 1.393 . S
C125 C124 1.391 . S
C126 H116 0.950 . S
C126 C127 1.386 . S
C126 C128 1.391 . S
C127 C126 1.386 . S
C127 C131 1.393 . S
C128 H117 0.950 . S
C128 C126 1.391 . S
C128 C129 1.400 . S
C129 C123 1.491 1_565 S
C129 C128 1.400 . S
C129 C130 1.398 . S
C130 H118 0.950 . S
C130 C129 1.398 . S
C130 C131 1.391 . S
C131 H119 0.950 . S
C131 C127 1.393 . S
C131 C130 1.391 . S
H132 C140 0.950 . S
H133 C145 0.950 . S
H134 C142 0.950 . S
H135 C144 0.950 . S
H136 C146 0.950 . S
H137 C148 0.950 . S
H138 C150 0.950 . S
H139 C151 0.950 . S
C140 H132 0.950 . S
C140 C141 1.386 . S
C140 C142 1.391 . S
C141 C140 1.386 . S
C141 C145 1.393 . S
C142 H134 0.950 . S
C142 C140 1.391 . S
C142 C143 1.400 . S
C143 C142 1.400 . S
C143 C144 1.398 . S
C143 C149 1.491 . S
C144 H135 0.950 . S
C144 C143 1.398 . S
C144 C145 1.391 . S
C145 H133 0.950 . S
C145 C141 1.393 . S
C145 C144 1.391 . S
C146 H136 0.950 . S
C146 C147 1.386 . S
C146 C148 1.391 . S
C147 C146 1.386 . S
C147 C151 1.393 . S
C148 H137 0.950 . S
C148 C146 1.391 . S
C148 C149 1.400 . S
C149 C143 1.491 . S
C149 C148 1.400 . S
C149 C150 1.398 . S
C150 H138 0.950 . S
C150 C149 1.398 . S
C150 C151 1.391 . S
C151 H139 0.950 . S
C151 C147 1.393 . S
C151 C150 1.391 . S
H152 C160 0.950 . S
H153 C165 0.950 . S
H154 C162 0.950 1_545 S
H155 C164 0.950 . S
H156 C166 0.950 . S
H157 C168 0.950 1_565 S
H158 C170 0.950 . S
H159 C171 0.950 . S
C160 H152 0.950 . S
C160 C161 1.386 . S
C160 C162 1.391 . S
C161 C160 1.386 . S
C161 C165 1.393 . S
C162 H154 0.950 1_565 S
C162 C160 1.391 . S
C162 C163 1.400 . S
C163 C162 1.400 . S
C163 C164 1.398 . S
C163 C169 1.491 1_565 S
C164 H155 0.950 . S
C164 C163 1.398 . S
C164 C165 1.391 . S
C165 H153 0.950 . S
C165 C161 1.393 . S
C165 C164 1.391 . S
C166 H156 0.950 . S
C166 C167 1.386 . S
C166 C168 1.391 . S
C167 C166 1.386 . S
C167 C171 1.393 . S
C168 H157 0.950 1_545 S
C168 C166 1.391 . S
C168 C169 1.400 . S
C169 C163 1.491 1_545 S
C169 C168 1.400 . S
C169 C170 1.398 . S
C170 H158 0.950 . S
C170 C169 1.398 . S
C170 C171 1.391 . S
C171 H159 0.950 . S
C171 C167 1.393 . S
C171 C170 1.391 . S
H172 C180 0.950 . S
H173 C185 0.950 . S
H174 C182 0.950 . S
H175 C184 0.950 . S
H176 C186 0.950 . S
H177 C188 0.950 . S
H178 C190 0.950 . S
H179 C191 0.950 . S
C180 H172 0.950 . S
C180 C181 1.386 . S
C180 C182 1.391 . S
C181 C180 1.386 . S
C181 C185 1.393 . S
C182 H174 0.950 . S
C182 C180 1.391 . S
C182 C183 1.400 . S
C183 C182 1.400 . S
C183 C184 1.398 . S
C183 C189 1.491 . S
C184 H175 0.950 . S
C184 C183 1.398 . S
C184 C185 1.391 . S
C185 H173 0.950 . S
C185 C181 1.393 . S
C185 C184 1.391 . S
C186 H176 0.950 . S
C186 C187 1.386 . S
C186 C188 1.391 . S
C187 C186 1.386 . S
C187 C191 1.393 . S
C188 H177 0.950 . S
C188 C186 1.391 . S
C188 C189 1.400 . S
C189 C183 1.491 . S
C189 C188 1.400 . S
C189 C190 1.398 . S
C190 H178 0.950 . S
C190 C189 1.398 . S
C190 C191 1.391 . S
C191 H179 0.950 . S
C191 C187 1.393 . S
C191 C190 1.391 . S
H192 C200 0.950 . S
H193 C205 0.950 . S
H194 C202 0.950 . S
H195 C204 0.950 . S
H196 C206 0.950 . S
H197 C208 0.950 . S
H198 C210 0.950 . S
H199 C211 0.950 . S
C200 H192 0.950 . S
C200 C201 1.386 . S
C200 C202 1.391 . S
C201 C200 1.386 . S
C201 C205 1.393 . S
C202 H194 0.950 . S
C202 C200 1.391 . S
C202 C203 1.400 . S
C203 C202 1.400 . S
C203 C204 1.398 . S
C203 C209 1.491 . S
C204 H195 0.950 . S
C204 C203 1.398 . S
C204 C205 1.391 . S
C205 H193 0.950 . S
C205 C201 1.393 . S
C205 C204 1.391 . S
C206 H196 0.950 . S
C206 C207 1.386 . S
C206 C208 1.391 . S
C207 C206 1.386 . S
C207 C211 1.393 . S
C208 H197 0.950 . S
C208 C206 1.391 . S
C208 C209 1.400 . S
C209 C203 1.491 . S
C209 C208 1.400 . S
C209 C210 1.398 . S
C210 H198 0.950 . S
C210 C209 1.398 . S
C210 C211 1.391 . S
C211 H199 0.950 . S
C211 C207 1.393 . S
C211 C210 1.391 . S
H212 C220 0.950 . S
H213 C225 0.950 . S
H214 C222 0.950 . S
H215 C224 0.950 . S
H216 C226 0.950 . S
H217 C228 0.950 . S
H218 C230 0.950 . S
H219 C231 0.950 . S
C220 H212 0.950 . S
C220 C221 1.386 . S
C220 C222 1.391 . S
C221 C220 1.386 . S
C221 C225 1.393 . S
C222 H214 0.950 . S
C222 C220 1.391 . S
C222 C223 1.400 . S
C223 C222 1.400 . S
C223 C224 1.398 . S
C223 C229 1.491 . S
C224 H215 0.950 . S
C224 C223 1.398 . S
C224 C225 1.391 . S
C225 H213 0.950 . S
C225 C221 1.393 . S
C225 C224 1.391 . S
C226 H216 0.950 . S
C226 C227 1.386 . S
C226 C228 1.391 . S
C227 C226 1.386 . S
C227 C231 1.393 . S
C228 H217 0.950 . S
C228 C226 1.391 . S
C228 C229 1.400 . S
C229 C223 1.491 . S
C229 C228 1.400 . S
C229 C230 1.398 . S
C230 H218 0.950 . S
C230 C229 1.398 . S
C230 C231 1.391 . S
C231 H219 0.950 . S
C231 C227 1.393 . S
C231 C230 1.391 . S
H232 C240 0.950 . S
H233 C245 0.950 . S
H234 C242 0.950 . S
H235 C244 0.950 . S
H236 C246 0.950 . S
H237 C248 0.950 . S
H238 C250 0.950 . S
H239 C251 0.950 . S
C240 H232 0.950 . S
C240 C241 1.386 . S
C240 C242 1.391 . S
C241 C240 1.386 . S
C241 C245 1.393 . S
C242 H234 0.950 . S
C242 C240 1.391 . S
C242 C243 1.400 . S
C243 C242 1.400 . S
C243 C244 1.398 . S
C243 C249 1.491 . S
C244 H235 0.950 . S
C244 C243 1.398 . S
C244 C245 1.391 . S
C245 H233 0.950 . S
C245 C241 1.393 . S
C245 C244 1.391 . S
C246 H236 0.950 . S
C246 C247 1.386 . S
C246 C248 1.391 . S
C247 C246 1.386 . S
C247 C251 1.393 . S
C248 H237 0.950 . S
C248 C246 1.391 . S
C248 C249 1.400 . S
C249 C243 1.491 . S
C249 C248 1.400 . S
C249 C250 1.398 . S
C250 H238 0.950 . S
C250 C249 1.398 . S
C250 C251 1.391 . S
C251 H239 0.950 . S
C251 C247 1.393 . S
C251 C250 1.391 . S
H252 C260 0.950 . S
H253 C265 0.950 . S
H254 C262 0.950 . S
H255 C264 0.950 . S
H256 C266 0.950 . S
H257 C268 0.950 . S
H258 C270 0.950 . S
H259 C271 0.950 . S
C260 H252 0.950 . S
C260 C261 1.386 . S
C260 C262 1.391 . S
C261 C260 1.386 . S
C261 C265 1.393 . S
C262 H254 0.950 . S
C262 C260 1.391 . S
C262 C263 1.400 . S
C263 C262 1.400 . S
C263 C264 1.398 . S
C263 C269 1.491 . S
C264 H255 0.950 . S
C264 C263 1.398 . S
C264 C265 1.391 . S
C265 H253 0.950 . S
C265 C261 1.393 . S
C265 C264 1.391 . S
C266 H256 0.950 . S
C266 C267 1.386 . S
C266 C268 1.391 . S
C267 C266 1.386 . S
C267 C271 1.393 . S
C268 H257 0.950 . S
C268 C266 1.391 . S
C268 C269 1.400 . S
C269 C263 1.491 . S
C269 C268 1.400 . S
C269 C270 1.398 . S
C270 H258 0.950 . S
C270 C269 1.398 . S
C270 C271 1.391 . S
C271 H259 0.950 . S
C271 C267 1.393 . S
C271 C270 1.391 . S
H272 C280 0.950 . S
H273 C285 0.950 1_556 S
H274 C282 0.950 . S
H275 C284 0.950 . S
H276 C286 0.950 . S
H277 C288 0.950 . S
H278 C290 0.950 . S
H279 C291 0.950 1_554 S
C280 H272 0.950 . S
C280 C281 1.386 . S
C280 C282 1.391 . S
C281 C280 1.386 . S
C281 C285 1.393 . S
C282 H274 0.950 . S
C282 C280 1.391 . S
C282 C283 1.400 . S
C283 C282 1.400 . S
C283 C284 1.398 1_554 S
C283 C289 1.491 1_554 S
C284 H275 0.950 . S
C284 C283 1.398 1_556 S
C284 C285 1.391 1_556 S
C285 H273 0.950 1_554 S
C285 C281 1.393 . S
C285 C284 1.391 1_554 S
C286 H276 0.950 . S
C286 C287 1.386 . S
C286 C288 1.391 . S
C287 C286 1.386 . S
C287 C291 1.393 . S
C288 H277 0.950 . S
C288 C286 1.391 . S
C288 C289 1.400 . S
C289 C283 1.491 1_556 S
C289 C288 1.400 . S
C289 C290 1.398 1_556 S
C290 H278 0.950 . S
C290 C289 1.398 1_554 S
C290 C291 1.391 1_554 S
C291 H279 0.950 1_556 S
C291 C287 1.393 . S
C291 C290 1.391 1_556 S
H292 C300 0.950 . S
H293 C305 0.950 . S
H294 C302 0.950 . S
H295 C304 0.950 . S
H296 C306 0.950 . S
H297 C308 0.950 . S
H298 C310 0.950 . S
H299 C311 0.950 . S
C300 H292 0.950 . S
C300 C301 1.386 1_556 S
C300 C302 1.391 . S
C301 C300 1.386 1_554 S
C301 C305 1.393 . S
C302 H294 0.950 . S
C302 C300 1.391 . S
C302 C303 1.400 1_556 S
C303 C302 1.400 1_554 S
C303 C304 1.398 . S
C303 C309 1.491 1_454 S
C304 H295 0.950 . S
C304 C303 1.398 . S
C304 C305 1.391 . S
C305 H293 0.950 . S
C305 C301 1.393 . S
C305 C304 1.391 . S
C306 H296 0.950 . S
C306 C307 1.386 1_554 S
C306 C308 1.391 . S
C307 C306 1.386 1_556 S
C307 C311 1.393 . S
C308 H297 0.950 . S
C308 C306 1.391 . S
C308 C309 1.400 1_554 S
C309 C303 1.491 1_656 S
C309 C308 1.400 1_556 S
C309 C310 1.398 . S
C310 H298 0.950 . S
C310 C309 1.398 . S
C310 C311 1.391 . S
C311 H299 0.950 . S
C311 C307 1.393 . S
C311 C310 1.391 . S
H312 C320 0.950 . S
H313 C325 0.950 . S
H314 C322 0.950 . S
H315 C324 0.950 . S
H316 C326 0.950 . S
H317 C328 0.950 . S
H318 C330 0.950 . S
H319 C331 0.950 . S
C320 H312 0.950 . S
C320 C321 1.386 . S
C320 C322 1.391 . S
C321 C320 1.386 . S
C321 C325 1.393 . S
C322 H314 0.950 . S
C322 C320 1.391 . S
C322 C323 1.400 . S
C323 C322 1.400 . S
C323 C324 1.398 . S
C323 C329 1.491 1_565 S
C324 H315 0.950 . S
C324 C323 1.398 . S
C324 C325 1.391 . S
C325 H313 0.950 . S
C325 C321 1.393 . S
C325 C324 1.391 . S
C326 H316 0.950 . S
C326 C327 1.386 . S
C326 C328 1.391 . S
C327 C326 1.386 . S
C327 C331 1.393 . S
C328 H317 0.950 . S
C328 C326 1.391 . S
C328 C329 1.400 . S
C329 C323 1.491 1_545 S
C329 C328 1.400 . S
C329 C330 1.398 . S
C330 H318 0.950 . S
C330 C329 1.398 . S
C330 C331 1.391 . S
C331 H319 0.950 . S
C331 C327 1.393 . S
C331 C330 1.391 . S
H332 C340 0.950 . S
H333 C345 0.950 1_455 S
H334 C342 0.950 . S
H335 C344 0.950 . S
H336 C346 0.950 . S
H337 C348 0.950 . S
H338 C350 0.950 . S
H339 C351 0.950 1_655 S
C340 H332 0.950 . S
C340 C341 1.386 . S
C340 C342 1.391 . S
C341 C340 1.386 . S
C341 C345 1.393 . S
C342 H334 0.950 . S
C342 C340 1.391 . S
C342 C343 1.400 . S
C343 C342 1.400 . S
C343 C344 1.398 1_655 S
C343 C349 1.491 1_645 S
C344 H335 0.950 . S
C344 C343 1.398 1_455 S
C344 C345 1.391 1_455 S
C345 H333 0.950 1_655 S
C345 C341 1.393 . S
C345 C344 1.391 1_655 S
C346 H336 0.950 . S
C346 C347 1.386 . S
C346 C348 1.391 . S
C347 C346 1.386 . S
C347 C351 1.393 . S
C348 H337 0.950 . S
C348 C346 1.391 . S
C348 C349 1.400 . S
C349 C343 1.491 1_465 S
C349 C348 1.400 . S
C349 C350 1.398 1_455 S
C350 H338 0.950 . S
C350 C349 1.398 1_655 S
C350 C351 1.391 1_655 S
C351 H339 0.950 1_455 S
C351 C347 1.393 . S
C351 C350 1.391 1_455 S
H352 C360 0.950 . S
H353 C365 0.950 . S
H354 C362 0.950 . S
H355 C364 0.950 . S
H356 C366 0.950 . S
H357 C368 0.950 . S
H358 C370 0.950 . S
H359 C371 0.950 . S
C360 H352 0.950 . S
C360 C361 1.386 . S
C360 C362 1.391 . S
C361 C360 1.386 . S
C361 C365 1.393 . S
C362 H354 0.950 . S
C362 C360 1.391 . S
C362 C363 1.400 . S
C363 C362 1.400 . S
C363 C364 1.398 . S
C363 C369 1.491 . S
C364 H355 0.950 . S
C364 C363 1.398 . S
C364 C365 1.391 . S
C365 H353 0.950 . S
C365 C361 1.393 . S
C365 C364 1.391 . S
C366 H356 0.950 . S
C366 C367 1.386 . S
C366 C368 1.391 . S
C367 C366 1.386 . S
C367 C371 1.393 . S
C368 H357 0.950 . S
C368 C366 1.391 . S
C368 C369 1.400 . S
C369 C363 1.491 . S
C369 C368 1.400 . S
C369 C370 1.398 . S
C370 H358 0.950 . S
C370 C369 1.398 . S
C370 C371 1.391 . S
C371 H359 0.950 . S
C371 C367 1.393 . S
C371 C370 1.391 . S
H372 C380 0.950 . S
H373 C385 0.950 . S
H374 C382 0.950 1_565 S
H375 C384 0.950 . S
H376 C386 0.950 . S
H377 C388 0.950 1_545 S
H378 C390 0.950 . S
H379 C391 0.950 . S
C380 H372 0.950 . S
C380 C381 1.386 . S
C380 C382 1.391 . S
C381 C380 1.386 . S
C381 C385 1.393 . S
C382 H374 0.950 1_545 S
C382 C380 1.391 . S
C382 C383 1.400 . S
C383 C382 1.400 . S
C383 C384 1.398 . S
C383 C389 1.491 1_545 S
C384 H375 0.950 . S
C384 C383 1.398 . S
C384 C385 1.391 . S
C385 H373 0.950 . S
C385 C381 1.393 . S
C385 C384 1.391 . S
C386 H376 0.950 . S
C386 C387 1.386 . S
C386 C388 1.391 . S
C387 C386 1.386 . S
C387 C391 1.393 . S
C388 H377 0.950 1_565 S
C388 C386 1.391 . S
C388 C389 1.400 . S
C389 C383 1.491 1_565 S
C389 C388 1.400 . S
C389 C390 1.398 . S
C390 H378 0.950 . S
C390 C389 1.398 . S
C390 C391 1.391 . S
C391 H379 0.950 . S
C391 C387 1.393 . S
C391 C390 1.391 . S
H392 C400 0.950 . S
H393 C405 0.950 . S
H394 C402 0.950 . S
H395 C404 0.950 . S
H396 C406 0.950 . S
H397 C408 0.950 . S
H398 C410 0.950 . S
H399 C411 0.950 . S
C400 H392 0.950 . S
C400 C401 1.386 . S
C400 C402 1.391 . S
C401 C400 1.386 . S
C401 C405 1.393 . S
C402 H394 0.950 . S
C402 C400 1.391 . S
C402 C403 1.400 . S
C403 C402 1.400 . S
C403 C404 1.398 . S
C403 C409 1.491 . S
C404 H395 0.950 . S
C404 C403 1.398 . S
C404 C405 1.391 . S
C405 H393 0.950 . S
C405 C401 1.393 . S
C405 C404 1.391 . S
C406 H396 0.950 . S
C406 C407 1.386 . S
C406 C408 1.391 . S
C407 C406 1.386 . S
C407 C411 1.393 . S
C408 H397 0.950 . S
C408 C406 1.391 . S
C408 C409 1.400 . S
C409 C403 1.491 . S
C409 C408 1.400 . S
C409 C410 1.398 . S
C410 H398 0.950 . S
C410 C409 1.398 . S
C410 C411 1.391 . S
C411 H399 0.950 . S
C411 C407 1.393 . S
C411 C410 1.391 . S
H412 C420 0.950 . S
H413 C425 0.950 . S
H414 C422 0.950 1_545 S
H415 C424 0.950 . S
H416 C426 0.950 . S
H417 C428 0.950 1_565 S
H418 C430 0.950 . S
H419 C431 0.950 . S
C420 H412 0.950 . S
C420 C421 1.386 . S
C420 C422 1.391 . S
C421 C420 1.386 . S
C421 C425 1.393 . S
C422 H414 0.950 1_565 S
C422 C420 1.391 . S
C422 C423 1.400 . S
C423 C422 1.400 . S
C423 C424 1.398 . S
C423 C429 1.491 1_565 S
C424 H415 0.950 . S
C424 C423 1.398 . S
C424 C425 1.391 . S
C425 H413 0.950 . S
C425 C421 1.393 . S
C425 C424 1.391 . S
C426 H416 0.950 . S
C426 C427 1.386 . S
C426 C428 1.391 . S
C427 C426 1.386 . S
C427 C431 1.393 . S
C428 H417 0.950 1_545 S
C428 C426 1.391 . S
C428 C429 1.400 . S
C429 C423 1.491 1_545 S
C429 C428 1.400 . S
C429 C430 1.398 . S
C430 H418 0.950 . S
C430 C429 1.398 . S
C430 C431 1.391 . S
C431 H419 0.950 . S
C431 C427 1.393 . S
C431 C430 1.391 . S
C121 C13 1.353 . S
C127 C27 1.347 . S
C141 C55 1.351 . S
C147 C41 1.350 . S
C161 C69 1.322 . S
C167 C83 1.331 . S
C181 C97 1.335 . S
C187 C111 1.321 . S
C201 C11 1.570 . S
C207 C39 1.571 . S
C221 C53 1.564 . S
C227 C25 1.562 . S
C241 C67 1.562 . S
C247 C95 1.564 . S
C261 C109 1.571 . S
C267 C81 1.568 . S
C281 C7 1.435 . S
C287 C63 1.435 . S
C301 C21 1.413 . S
C307 C77 1.413 . S
C321 C91 1.413 . S
C327 C35 1.413 . S
C341 C105 1.433 . S
C347 C49 1.433 . S
C361 C22 0.903 . S
C367 C8 0.908 . S
C381 C36 0.911 . S
C387 C50 0.920 . S
C401 C64 0.930 . S
C407 C78 0.926 . S
C421 C92 0.921 . S
C427 C106 0.912 . S
