# Generated by pormake.
# Topology sqp, (5)-cn, num edge types: 1
# Building blocks:
#     Node 0, Type 0, BuildingBlock: XOMCOT_clean_sbu_1, # of connection points: 5
#     Node 1, Type 0, BuildingBlock: XOMCOT_clean_sbu_1, # of connection points: 5
#     Node 2, Type 0, BuildingBlock: XOMCOT_clean_sbu_1, # of connection points: 5
#     Node 3, Type 0, BuildingBlock: XOMCOT_clean_sbu_1, # of connection points: 5
#     Edge 4, Type (0, 0), BuildingBlock: EZIPEK_clean_linker_0, # of connection points: 2
#     Edge 5, Type (0, 0), BuildingBlock: EZIPEK_clean_linker_0, # of connection points: 2
#     Edge 6, Type (0, 0), BuildingBlock: EZIPEK_clean_linker_0, # of connection points: 2
#     Edge 7, Type (0, 0), BuildingBlock: EZIPEK_clean_linker_0, # of connection points: 2
#     Edge 8, Type (0, 0), BuildingBlock: EZIPEK_clean_linker_0, # of connection points: 2
#     Edge 9, Type (0, 0), BuildingBlock: EZIPEK_clean_linker_0, # of connection points: 2
#     Edge 10, Type (0, 0), BuildingBlock: EZIPEK_clean_linker_0, # of connection points: 2
#     Edge 11, Type (0, 0), BuildingBlock: EZIPEK_clean_linker_0, # of connection points: 2
#     Edge 12, Type (0, 0), BuildingBlock: EZIPEK_clean_linker_0, # of connection points: 2
#     Edge 13, Type (0, 0), BuildingBlock: EZIPEK_clean_linker_0, # of connection points: 2
# Relax obj value: 0.084
# Max RMSD: 0.167
# Mean RMSD: 0.167
data_MOF--net-sqp--node1-XOMCOT_clean_sbu_1--edge1-EZIPEK_clean_linker_0
_symmetry_space_group_name_H-M    P1
_symmetry_Int_Tables_number       1
_symmetry_cell_setting            triclinic
loop_
_symmetry_equiv_pos_as_xyz
'x, y, z'
_cell_length_a     17.085808
_cell_length_b     14.567064
_cell_length_c     38.687311
_cell_angle_alpha  90.313474
_cell_angle_beta   99.055739
_cell_angle_gamma 89.746611
loop_
_atom_site_label
_atom_site_type_symbol
_atom_site_fract_x
_atom_site_fract_y
_atom_site_fract_z
_atom_type_partial_charge
C0 C 0.05777 0.22192 0.3216 0.0
C1 C 1.00812 0.29715 0.31581 0.0
N2 N 0.97154 0.29334 0.28241 0.0
N3 N 0.05117 0.17046 0.29209 0.0
C4 C 1.00095 0.21848 0.26832 0.0
H5 H 0.09413 0.20421 0.34613 0.0
Co6 Co 0.10013 0.05713 0.28524 0.0
C7 C 0.92413 1.01314 0.25747 0.0
O8 O 0.89318 0.08428 0.27134 0.0
N9 N 0.14948 0.94419 0.27823 0.0
C10 C 0.17101 0.79338 0.27701 0.0
C11 C 0.1208 0.86112 0.28527 0.0
C12 C 0.21745 0.92503 0.26575 0.0
N13 N 0.23163 0.83391 0.26485 0.0
O14 O 0.12411 0.10237 0.24169 0.0
H15 H 0.06592 0.85038 0.29529 0.0
H16 H 0.25479 0.97603 0.25644 0.0
O17 O 0.99942 1.00098 0.26217 0.0
C18 C 0.18831 0.14713 0.25056 0.0
O19 O 0.22107 0.14605 0.28369 0.0
N20 N 0.08623 1.01862 0.32983 0.0
C21 C 0.09258 0.9935 0.40121 0.0
C22 C 1.01937 1.00333 0.37946 0.0
C23 C 1.01743 1.01566 0.34353 0.0
C24 C 0.15758 1.00673 0.35077 0.0
C25 C 0.16207 0.99239 0.38651 0.0
H26 H 0.96156 1.0292 0.32753 0.0
H27 H 0.21182 1.01256 0.33984 0.0
H28 H 0.98216 0.19579 0.24161 0.0
H29 H 0.99645 0.34768 0.33499 0.0
H30 H 0.16218 0.72001 0.27835 0.0
H31 H 0.9648 1.0058 0.3904 0.0
H32 H 0.21947 0.98621 0.40285 0.0
C33 C 0.10269 0.22871 0.63946 0.0
C34 C 0.15843 0.29595 0.64927 0.0
N35 N 0.20076 0.27192 0.6802 0.0
N36 N 0.11005 0.16269 0.66414 0.0
C37 C 0.16987 0.1917 0.68886 0.0
H38 H 0.05961 0.22796 0.61578 0.0
Co39 Co 0.05127 0.05396 0.66282 0.0
C40 C 0.17755 0.91663 0.69036 0.0
O41 O 0.14956 0.85462 0.66699 0.0
N42 N 0.99045 0.94242 0.66132 0.0
C43 C 0.93025 0.8098 0.64395 0.0
C44 C 0.98366 0.87445 0.63683 0.0
C45 C 0.94071 0.91526 0.68345 0.0
N46 N 0.90328 0.8359 0.67316 0.0
O47 O 1.01162 0.09212 0.70424 0.0
H48 H 1.0162 0.86979 0.61512 0.0
H49 H 0.93154 0.95234 0.70676 0.0
O50 O 0.14313 0.99444 0.69107 0.0
C51 C 0.95468 0.1485 0.69533 0.0
O52 O 0.93651 0.17055 0.66213 0.0
N53 N 0.08225 1.02561 0.62 0.0
C54 C 0.0999 1.00569 0.55038 0.0
C55 C 0.1649 0.99224 0.57687 0.0
C56 C 0.15491 1.00338 0.61186 0.0
C57 C 1.01972 1.04236 0.59426 0.0
C58 C 1.02681 1.03113 0.55926 0.0
H59 H 0.20563 0.99613 0.6319 0.0
H60 H 0.96356 0.064 0.60122 0.0
H61 H 0.19034 0.15527 0.71292 0.0
H62 H 0.16687 0.35801 0.63505 0.0
H63 H 0.91363 0.74748 0.6293 0.0
H64 H 0.22269 0.97505 0.57047 0.0
H65 H 0.97616 0.04408 0.53922 0.0
C66 C 0.5514 0.72985 0.81654 0.0
C67 C 0.49607 0.79836 0.80755 0.0
N68 N 0.46129 0.78341 0.77434 0.0
N69 N 0.55079 0.67156 0.78919 0.0
C70 C 0.49755 0.7087 0.7634 0.0
H71 H 0.58727 0.72109 0.84195 0.0
Co72 Co 0.60787 0.56017 0.78805 0.0
C73 C 0.43607 0.50033 0.7616 0.0
O74 O 0.40393 0.56839 0.77674 0.0
N75 N 0.66381 0.4478 0.78653 0.0
C76 C 0.69695 0.30008 0.79465 0.0
C77 C 0.64777 0.3692 0.80261 0.0
C78 C 0.72195 0.4234 0.76814 0.0
N79 N 0.74351 0.3346 0.7731 0.0
O80 O 0.63791 0.59609 0.74421 0.0
H81 H 0.60136 0.36122 0.81837 0.0
H82 H 0.7455 0.46775 0.75005 0.0
O83 O 0.51181 0.49279 0.76497 0.0
C84 C 0.69395 0.65434 0.75246 0.0
O85 O 0.7121 0.67965 0.7854 0.0
N86 N 0.59177 0.53324 0.83352 0.0
C87 C 0.60146 0.51019 0.90517 0.0
C88 C 0.52864 0.50081 0.88314 0.0
C89 C 0.52504 0.51267 0.84709 0.0
C90 C 0.66276 0.5429 0.85492 0.0
C91 C 0.6692 0.53069 0.89084 0.0
H92 H 0.46903 0.50676 0.83073 0.0
H93 H 0.71488 0.56092 0.84382 0.0
H94 H 0.48112 0.67748 0.73784 0.0
H95 H 0.4791 0.85143 0.82464 0.0
H96 H 0.69657 0.22915 0.80283 0.0
H97 H 0.47515 0.48597 0.8938 0.0
H98 H 0.72606 0.53935 0.90739 0.0
C99 C 0.60371 0.71798 0.13645 0.0
C100 C 0.65562 0.78963 0.14544 0.0
N101 N 0.69592 0.77298 0.17757 0.0
N102 N 0.61164 0.65668 0.16287 0.0
C103 C 0.66791 0.69272 0.18764 0.0
H104 H 0.56302 0.71063 0.11218 0.0
Co105 Co 0.5571 0.54553 0.16525 0.0
C106 C 0.70657 0.44013 0.1943 0.0
O107 O 0.71026 0.39681 0.16484 0.0
N108 N 0.50247 0.43319 0.16898 0.0
C109 C 0.47308 0.28522 0.17385 0.0
C110 C 0.52811 0.34619 0.16539 0.0
C111 C 0.43003 0.42244 0.17842 0.0
N112 N 0.41132 0.33334 0.18212 0.0
O113 O 0.5113 0.59411 0.20395 0.0
H114 H 0.58316 0.32701 0.15719 0.0
H115 H 0.39308 0.47851 0.18442 0.0
O116 O 0.65002 0.4964 0.19714 0.0
C117 C 0.45796 0.65311 0.19232 0.0
O118 O 0.44895 0.67462 0.15898 0.0
N119 N 0.59224 0.50493 0.12393 0.0
C120 C 0.61389 0.48796 0.05446 0.0
C121 C 0.67664 0.51628 0.07994 0.0
C122 C 0.66426 0.52544 0.11466 0.0
C123 C 0.53135 0.47629 0.09907 0.0
C124 C 0.54143 0.46545 0.06436 0.0
H125 H 0.71092 0.5544 0.13362 0.0
H126 H 0.47248 0.46814 0.10546 0.0
H127 H 0.68772 0.66145 0.21282 0.0
H128 H 0.66309 0.84938 0.12978 0.0
H129 H 0.47847 0.21114 0.17445 0.0
H130 H 0.73272 0.53663 0.07267 0.0
H131 H 0.49128 0.44619 0.04493 0.0
C132 C 0.08713 0.91308 0.45791 0.0
C133 C 0.09777 0.99525 0.43973 0.0
C134 C 0.11778 0.08253 0.49474 0.0
C135 C 0.10804 1.00018 0.51296 0.0
N136 N 0.09418 0.83586 0.51389 0.0
N137 N 0.13164 0.15606 0.43996 0.0
C138 C 0.09614 0.91488 0.4951 0.0
C139 C 0.11581 0.07939 0.45794 0.0
N140 N 0.06668 0.83412 0.43944 0.0
N141 N 0.12625 0.16413 0.51266 0.0
H142 H 0.12565 0.15847 0.41274 0.0
H143 H 0.15464 0.21646 0.45184 0.0
H144 H 0.13272 0.16849 0.53988 0.0
H145 H 0.12343 0.22817 0.50076 0.0
H146 H 0.04991 0.77383 0.4505 0.0
H147 H 0.06225 0.82991 0.41227 0.0
H148 H 0.09296 0.77027 0.50308 0.0
H149 H 0.0991 0.83532 0.54111 0.0
C150 C 0.63359 0.41535 -0.0023 0.0
C151 C 0.61868 0.49514 0.01678 0.0
C152 C 0.59881 0.58593 0.96299 0.0
C153 C 0.60667 0.50448 0.94357 0.0
N154 N 0.6252 0.34065 0.94096 0.0
N155 N 0.57916 0.65432 0.0182 0.0
C156 C 0.62253 0.41876 0.96053 0.0
C157 C 0.59961 0.58011 -0.00038 0.0
N158 N 0.65951 0.33706 0.01532 0.0
N159 N 0.59186 0.66902 0.94642 0.0
H160 H 0.58151 0.65411 0.0453 0.0
H161 H 0.55494 0.71454 0.00665 0.0
H162 H 0.58753 0.67594 0.91936 0.0
H163 H 0.59572 0.73177 0.95957 0.0
H164 H 0.67875 0.2788 0.00339 0.0
H165 H 0.66753 0.33264 0.04256 0.0
H166 H 0.62819 0.27475 0.95133 0.0
H167 H 0.6193 0.34114 0.9137 0.0
C168 C 0.25517 0.29165 0.23918 0.0
C169 C 0.22595 0.2051 0.22628 0.0
C170 C 0.30033 0.22213 0.17748 0.0
C171 C 0.34355 0.29598 0.19539 0.0
N172 N 0.36998 0.38911 0.24793 0.0
N173 N 0.22401 0.08461 0.18292 0.0
C174 C 0.32244 0.32882 0.22726 0.0
C175 C 0.24829 0.16969 0.19498 0.0
N176 N 0.21937 0.3375 0.26335 0.0
N177 N 0.30817 0.20328 0.14362 0.0
H178 H 0.18526 0.04441 0.19455 0.0
H179 H 0.24647 0.05166 0.16258 0.0
H180 H 0.34313 0.24329 0.12981 0.0
H181 H 0.27351 0.15495 0.12831 0.0
H182 H 0.23481 0.40418 0.2716 0.0
H183 H 0.16852 0.31262 0.27191 0.0
H184 H 0.35964 0.40865 0.27278 0.0
H185 H 0.42476 0.41049 0.24248 0.0
C186 C 0.82672 0.31955 0.27162 0.0
C187 C 0.9039 0.34584 0.26643 0.0
C188 C 0.84694 0.45879 0.22281 0.0
C189 C 0.77061 0.42226 0.22402 0.0
N190 N 0.6852 0.32123 0.24981 0.0
N191 N 0.98971 0.4404 0.23861 0.0
C192 C 0.75951 0.35484 0.24905 0.0
C193 C 0.91454 0.41658 0.24276 0.0
N194 N 0.81823 0.25988 0.29788 0.0
N195 N 0.85412 0.53395 0.20257 0.0
H196 H 1.03969 0.41237 0.25399 0.0
H197 H 1.00286 0.48451 0.21928 0.0
H198 H 0.80509 0.5664 0.18817 0.0
H199 H 0.90703 0.56878 0.20225 0.0
H200 H 0.76407 0.24365 0.30533 0.0
H201 H 0.86638 0.2306 0.31398 0.0
H202 H 0.67343 0.2643 0.26424 0.0
H203 H 0.63465 0.34892 0.23477 0.0
C204 C 0.82839 0.84584 0.18638 0.0
C205 C 0.75477 0.8306 0.19777 0.0
C206 C 0.80064 0.91722 0.25134 0.0
C207 C 0.8695 0.94466 0.23766 0.0
N208 N 0.94169 0.946 0.18854 0.0
N209 N 0.66447 0.86684 0.23764 0.0
C210 C 0.88192 0.91149 0.20424 0.0
C211 C 0.73913 0.87054 0.22933 0.0
N212 N 0.84781 0.79591 0.15898 0.0
N213 N 0.79517 0.93201 0.28578 0.0
H214 H 0.61736 0.83645 0.22119 0.0
H215 H 0.64771 0.90226 0.2588 0.0
H216 H 0.84097 0.96039 0.30351 0.0
H217 H 0.74923 0.90604 0.29761 0.0
H218 H 0.90388 0.7973 0.15161 0.0
H219 H 0.81013 0.74642 0.14587 0.0
H220 H 0.94818 0.93037 0.16283 0.0
H221 H 0.98014 0.99713 0.19971 0.0
C222 C 0.26558 0.75161 0.21374 0.0
C223 C 0.28942 0.78798 0.24756 0.0
C224 C 0.4255 0.7341 0.24677 0.0
C225 C 0.40009 0.69144 0.21372 0.0
N226 N 0.29032 0.6412 0.17016 0.0
N227 N 0.38704 0.80378 0.29895 0.0
C228 C 0.31845 0.69478 0.19851 0.0
C229 C 0.36801 0.77598 0.26493 0.0
N230 N 0.19278 0.774 0.19565 0.0
N231 N 0.50439 0.73916 0.25997 0.0
H232 H 0.34609 0.83631 0.31232 0.0
H233 H 0.44096 0.7888 0.31452 0.0
H234 H 0.54847 0.71009 0.24761 0.0
H235 H 0.52679 0.77819 0.2819 0.0
H236 H 0.17525 0.75825 0.16928 0.0
H237 H 0.15269 0.81612 0.20606 0.0
H238 H 0.23015 0.6335 0.16073 0.0
H239 H 0.32566 0.59698 0.15804 0.0
C240 C 0.3944 0.89496 0.73167 0.0
C241 C 0.38961 0.8255 0.75658 0.0
C242 C 0.24454 0.82406 0.74118 0.0
C243 C 0.24919 0.89411 0.71622 0.0
N244 N 0.32638 1.01304 0.69442 0.0
N245 N 0.31109 0.73782 0.79088 0.0
C246 C 0.32349 0.93508 0.7136 0.0
C247 C 0.3148 0.79443 0.76317 0.0
N248 N 0.46713 0.92074 0.7248 0.0
N249 N 0.17289 0.78519 0.74357 0.0
H250 H 0.36137 0.71471 0.80734 0.0
H251 H 0.25849 0.71942 0.79935 0.0
H252 H 0.11952 0.81038 0.73006 0.0
H253 H 0.16635 0.72597 0.75776 0.0
H254 H 0.47529 0.96333 0.70415 0.0
H255 H 0.51978 0.8944 0.73861 0.0
H256 H 0.37791 0.05061 0.69401 0.0
H257 H 0.27587 0.04581 0.68174 0.0
C258 C 0.33553 0.33952 0.6889 0.0
C259 C 0.26259 0.3245 0.70095 0.0
C260 C 0.31365 0.40296 0.75565 0.0
C261 C 0.38186 0.43137 0.74165 0.0
N262 N 0.45046 0.43739 0.69141 0.0
N263 N 0.17569 0.36049 0.74222 0.0
C264 C 0.39148 0.40195 0.70736 0.0
C265 C 0.24988 0.36131 0.73338 0.0
N266 N 0.35165 0.29308 0.6601 0.0
N267 N 0.31048 0.41262 0.79052 0.0
H268 H 0.12681 0.33532 0.72534 0.0
H269 H 0.16143 0.39424 0.76424 0.0
H270 H 0.3579 0.43686 0.80834 0.0
H271 H 0.26475 0.38579 0.80228 0.0
H272 H 0.40689 0.29433 0.65191 0.0
H273 H 0.31186 0.24651 0.64642 0.0
H274 H 0.45472 0.42492 0.66523 0.0
H275 H 0.49071 0.48616 0.70304 0.0
C276 C 0.93321 0.23687 0.74969 0.0
C277 C 0.90253 0.18271 0.71999 0.0
C278 C 0.76707 0.22939 0.72586 0.0
C279 C 0.79741 0.28309 0.75539 0.0
N280 N 0.90536 0.32748 0.79951 0.0
N281 N 0.79032 0.10709 0.68608 0.0
C282 C 0.8795 0.28334 0.76861 0.0
C283 C 0.8193 0.17279 0.71003 0.0
N284 N 1.01322 0.24697 0.75889 0.0
N285 N 0.68841 0.23524 0.71226 0.0
H286 H 0.82696 0.06282 0.67458 0.0
H287 H 0.73053 0.09016 0.68024 0.0
H288 H 0.64868 0.27609 0.72344 0.0
H289 H 0.66376 0.20569 0.68848 0.0
H290 H 1.03935 0.29335 0.77774 0.0
H291 H 0.05418 0.21137 0.7466 0.0
H292 H 0.96321 0.32368 0.81274 0.0
H293 H 0.86697 0.36355 0.81319 0.0
C294 C 0.7138 0.75014 0.70045 0.0
C295 C 0.74512 0.68843 0.72752 0.0
C296 C 0.87994 0.71663 0.7151 0.0
C297 C 0.84952 0.78509 0.69094 0.0
N298 N 0.74028 0.87066 0.66037 0.0
N299 N 0.85918 0.61773 0.76275 0.0
C300 C 0.76698 0.80236 0.68335 0.0
C301 C 0.82853 0.67245 0.73523 0.0
N302 N 0.63354 0.75966 0.69153 0.0
N303 N 0.95834 0.69339 0.7184 0.0
H304 H 0.82448 0.58051 0.77748 0.0
H305 H 0.91939 0.61308 0.77254 0.0
H306 H 0.9978 0.72699 0.70482 0.0
H307 H 0.98327 0.63681 0.73241 0.0
H308 H 0.60621 0.79791 0.67036 0.0
H309 H 0.59331 0.72432 0.70409 0.0
H310 H 0.68207 0.89429 0.65579 0.0
H311 H 0.77817 0.9075 0.64693 0.0
loop_
_geom_bond_atom_site_label_1
_geom_bond_atom_site_label_2
_geom_bond_distance
_geom_bond_site_symmetry_2
_ccdc_geom_bond_type
C0 C1 1.351 . S
C0 N3 1.368 . S
C0 H5 0.931 1_655 S
C1 C0 1.351 . S
C1 N2 1.373 . S
C1 H29 0.930 . S
N2 C1 1.373 . S
N2 C4 1.340 . S
N3 C0 1.368 . S
N3 C4 1.321 . S
N3 Co6 2.135 1_655 S
C4 N2 1.340 . S
C4 N3 1.321 . S
C4 H28 0.930 . S
H5 C0 0.931 1_455 S
Co6 N3 2.135 1_455 S
Co6 N9 2.121 1_545 S
Co6 O14 2.055 . S
Co6 O17 2.039 1_445 S
Co6 N20 2.140 . S
C7 O8 1.227 . S
C7 O17 1.265 . S
O8 C7 1.227 . S
N9 Co6 2.121 1_565 S
N9 C11 1.375 . S
N9 C12 1.313 . S
C10 C11 1.338 . S
C10 N13 1.377 . S
C10 H30 0.930 . S
C11 N9 1.375 . S
C11 C10 1.338 . S
C11 H15 0.931 . S
C12 N9 1.313 . S
C12 N13 1.344 . S
C12 H16 0.930 . S
N13 C10 1.377 . S
N13 C12 1.344 . S
O14 Co6 2.055 . S
O14 C18 1.253 . S
H15 C11 0.931 . S
H16 C12 0.930 . S
O17 Co6 2.039 1_665 S
O17 C7 1.265 . S
C18 O14 1.253 . S
C18 O19 1.227 . S
O19 C18 1.227 . S
N20 Co6 2.140 . S
N20 C23 1.346 1_455 S
N20 C24 1.345 1_545 S
C21 C22 1.387 1_465 S
C21 C25 1.391 . S
C22 C21 1.387 1_645 S
C22 C23 1.369 . S
C22 H31 0.929 . S
C23 N20 1.346 1_655 S
C23 C22 1.369 . S
C23 H26 0.928 . S
C24 N20 1.345 1_565 S
C24 C25 1.371 . S
C24 H27 0.931 . S
C25 C21 1.391 . S
C25 C24 1.371 . S
C25 H32 0.930 . S
H26 C23 0.928 . S
H27 C24 0.931 . S
H28 C4 0.930 . S
H29 C1 0.930 . S
H30 C10 0.930 . S
H31 C22 0.929 . S
H32 C25 0.930 . S
C33 C34 1.351 . S
C33 N36 1.368 . S
C33 H38 0.931 . S
C34 C33 1.351 . S
C34 N35 1.373 . S
C34 H62 0.930 . S
N35 C34 1.373 . S
N35 C37 1.340 . S
N36 C33 1.368 . S
N36 C37 1.321 . S
N36 Co39 2.135 . S
C37 N35 1.340 . S
C37 N36 1.321 . S
C37 H61 0.930 . S
H38 C33 0.931 . S
Co39 N36 2.135 . S
Co39 N42 2.121 1_445 S
Co39 O47 2.055 1_455 S
Co39 O50 2.039 1_545 S
Co39 N53 2.140 . S
C40 O41 1.227 . S
C40 O50 1.265 . S
O41 C40 1.227 . S
N42 Co39 2.121 1_665 S
N42 C44 1.375 . S
N42 C45 1.313 . S
C43 C44 1.338 . S
C43 N46 1.377 . S
C43 H63 0.930 . S
C44 N42 1.375 . S
C44 C43 1.338 . S
C44 H48 0.931 1_655 S
C45 N42 1.313 . S
C45 N46 1.344 . S
C45 H49 0.930 . S
N46 C43 1.377 . S
N46 C45 1.344 . S
O47 Co39 2.055 1_655 S
O47 C51 1.253 . S
H48 C44 0.931 1_455 S
H49 C45 0.930 . S
O50 Co39 2.039 1_565 S
O50 C40 1.265 . S
C51 O47 1.253 . S
C51 O52 1.227 . S
O52 C51 1.227 . S
N53 Co39 2.140 . S
N53 C56 1.346 . S
N53 C57 1.345 1_445 S
C54 C55 1.387 1_565 S
C54 C58 1.391 1_455 S
C55 C54 1.387 1_545 S
C55 C56 1.369 . S
C55 H64 0.929 . S
C56 N53 1.346 . S
C56 C55 1.369 . S
C56 H59 0.928 . S
C57 N53 1.345 1_665 S
C57 C58 1.371 . S
C57 H60 0.931 . S
C58 C54 1.391 1_655 S
C58 C57 1.371 . S
C58 H65 0.930 . S
H59 C56 0.928 . S
H60 C57 0.931 . S
H61 C37 0.930 . S
H62 C34 0.930 . S
H63 C43 0.930 . S
H64 C55 0.929 . S
H65 C58 0.930 . S
C66 C67 1.351 . S
C66 N69 1.368 . S
C66 H71 0.931 . S
C67 C66 1.351 . S
C67 N68 1.373 . S
C67 H95 0.930 . S
N68 C67 1.373 . S
N68 C70 1.340 . S
N69 C66 1.368 . S
N69 C70 1.321 . S
N69 Co72 2.135 . S
C70 N68 1.340 . S
C70 N69 1.321 . S
C70 H94 0.930 . S
H71 C66 0.931 . S
Co72 N69 2.135 . S
Co72 N75 2.121 . S
Co72 O80 2.055 . S
Co72 O83 2.039 . S
Co72 N86 2.140 . S
C73 O74 1.227 . S
C73 O83 1.265 . S
O74 C73 1.227 . S
N75 Co72 2.121 . S
N75 C77 1.375 . S
N75 C78 1.313 . S
C76 C77 1.338 . S
C76 N79 1.377 . S
C76 H96 0.930 . S
C77 N75 1.375 . S
C77 C76 1.338 . S
C77 H81 0.931 . S
C78 N75 1.313 . S
C78 N79 1.344 . S
C78 H82 0.930 . S
N79 C76 1.377 . S
N79 C78 1.344 . S
O80 Co72 2.055 . S
O80 C84 1.253 . S
H81 C77 0.931 . S
H82 C78 0.930 . S
O83 Co72 2.039 . S
O83 C73 1.265 . S
C84 O80 1.253 . S
C84 O85 1.227 . S
O85 C84 1.227 . S
N86 Co72 2.140 . S
N86 C89 1.346 . S
N86 C90 1.345 . S
C87 C88 1.387 . S
C87 C91 1.391 . S
C88 C87 1.387 . S
C88 C89 1.369 . S
C88 H97 0.929 . S
C89 N86 1.346 . S
C89 C88 1.369 . S
C89 H92 0.928 . S
C90 N86 1.345 . S
C90 C91 1.371 . S
C90 H93 0.931 . S
C91 C87 1.391 . S
C91 C90 1.371 . S
C91 H98 0.930 . S
H92 C89 0.928 . S
H93 C90 0.931 . S
H94 C70 0.930 . S
H95 C67 0.930 . S
H96 C76 0.930 . S
H97 C88 0.929 . S
H98 C91 0.930 . S
C99 C100 1.351 . S
C99 N102 1.368 . S
C99 H104 0.931 . S
C100 C99 1.351 . S
C100 N101 1.373 . S
C100 H128 0.930 . S
N101 C100 1.373 . S
N101 C103 1.340 . S
N102 C99 1.368 . S
N102 C103 1.321 . S
N102 Co105 2.135 . S
C103 N101 1.340 . S
C103 N102 1.321 . S
C103 H127 0.930 . S
H104 C99 0.931 . S
Co105 N102 2.135 . S
Co105 N108 2.121 . S
Co105 O113 2.055 . S
Co105 O116 2.039 . S
Co105 N119 2.140 . S
C106 O107 1.227 . S
C106 O116 1.265 . S
O107 C106 1.227 . S
N108 Co105 2.121 . S
N108 C110 1.375 . S
N108 C111 1.313 . S
C109 C110 1.338 . S
C109 N112 1.377 . S
C109 H129 0.930 . S
C110 N108 1.375 . S
C110 C109 1.338 . S
C110 H114 0.931 . S
C111 N108 1.313 . S
C111 N112 1.344 . S
C111 H115 0.930 . S
N112 C109 1.377 . S
N112 C111 1.344 . S
O113 Co105 2.055 . S
O113 C117 1.253 . S
H114 C110 0.931 . S
H115 C111 0.930 . S
O116 Co105 2.039 . S
O116 C106 1.265 . S
C117 O113 1.253 . S
C117 O118 1.227 . S
O118 C117 1.227 . S
N119 Co105 2.140 . S
N119 C122 1.346 . S
N119 C123 1.345 . S
C120 C121 1.387 . S
C120 C124 1.391 . S
C121 C120 1.387 . S
C121 C122 1.369 . S
C121 H130 0.929 . S
C122 N119 1.346 . S
C122 C121 1.369 . S
C122 H125 0.928 . S
C123 N119 1.345 . S
C123 C124 1.371 . S
C123 H126 0.931 . S
C124 C120 1.391 . S
C124 C123 1.371 . S
C124 H131 0.930 . S
H125 C122 0.928 . S
H126 C123 0.931 . S
H127 C103 0.930 . S
H128 C100 0.930 . S
H129 C109 0.930 . S
H130 C121 0.929 . S
H131 C124 0.930 . S
C132 C133 1.372 . S
C132 C138 1.378 . S
C132 N140 1.351 1_455 S
C133 C132 1.372 . S
C133 C139 1.363 1_565 S
C134 C135 1.363 1_545 S
C134 C139 1.379 . S
C134 N141 1.356 . S
C135 C134 1.363 1_565 S
C135 C138 1.367 . S
N136 C138 1.352 1_655 S
N136 H148 0.984 . S
N136 H149 0.985 . S
N137 C139 1.356 . S
N137 H142 0.984 . S
N137 H143 0.985 . S
C138 C132 1.378 . S
C138 C135 1.367 . S
C138 N136 1.352 1_455 S
C139 C133 1.363 1_545 S
C139 C134 1.379 . S
C139 N137 1.356 . S
N140 C132 1.351 1_655 S
N140 H146 0.984 . S
N140 H147 0.984 . S
N141 C134 1.356 . S
N141 H144 0.984 . S
N141 H145 0.985 . S
H142 N137 0.984 . S
H143 N137 0.985 . S
H144 N141 0.984 . S
H145 N141 0.985 . S
H146 N140 0.984 . S
H147 N140 0.984 . S
H148 N136 0.984 . S
H149 N136 0.985 . S
C150 C151 1.363 . S
C150 C156 1.379 1_554 S
C150 N158 1.356 . S
C151 C150 1.363 . S
C151 C157 1.363 . S
C152 C153 1.363 . S
C152 C157 1.379 1_556 S
C152 N159 1.356 . S
C153 C152 1.363 . S
C153 C156 1.363 . S
N154 C156 1.356 . S
N154 H166 0.984 . S
N154 H167 0.985 . S
N155 C157 1.356 . S
N155 H160 0.984 . S
N155 H161 0.985 . S
C156 C150 1.379 1_556 S
C156 C153 1.363 . S
C156 N154 1.356 . S
C157 C151 1.363 . S
C157 C152 1.379 1_554 S
C157 N155 1.356 . S
N158 C150 1.356 . S
N158 H164 0.984 . S
N158 H165 0.984 . S
N159 C152 1.356 . S
N159 H162 0.984 . S
N159 H163 0.985 . S
H160 N155 0.984 . S
H161 N155 0.985 . S
H162 N159 0.984 . S
H163 N159 0.985 . S
H164 N158 0.984 . S
H165 N158 0.984 . S
H166 N154 0.984 . S
H167 N154 0.985 . S
C168 C169 1.363 . S
C168 C174 1.379 . S
C168 N176 1.356 . S
C169 C168 1.363 . S
C169 C175 1.363 . S
C170 C171 1.363 . S
C170 C175 1.379 . S
C170 N177 1.356 . S
C171 C170 1.363 . S
C171 C174 1.363 . S
N172 C174 1.356 . S
N172 H184 0.984 . S
N172 H185 0.985 . S
N173 C175 1.356 . S
N173 H178 0.984 . S
N173 H179 0.985 . S
C174 C168 1.379 . S
C174 C171 1.363 . S
C174 N172 1.356 . S
C175 C169 1.363 . S
C175 C170 1.379 . S
C175 N173 1.356 . S
N176 C168 1.356 . S
N176 H182 0.984 . S
N176 H183 0.984 . S
N177 C170 1.356 . S
N177 H180 0.984 . S
N177 H181 0.985 . S
H178 N173 0.984 . S
H179 N173 0.985 . S
H180 N177 0.984 . S
H181 N177 0.985 . S
H182 N176 0.984 . S
H183 N176 0.984 . S
H184 N172 0.984 . S
H185 N172 0.985 . S
C186 C187 1.363 . S
C186 C192 1.379 . S
C186 N194 1.356 . S
C187 C186 1.363 . S
C187 C193 1.363 . S
C188 C189 1.363 . S
C188 C193 1.379 . S
C188 N195 1.356 . S
C189 C188 1.363 . S
C189 C192 1.363 . S
N190 C192 1.356 . S
N190 H202 0.984 . S
N190 H203 0.985 . S
N191 C193 1.356 . S
N191 H196 0.984 . S
N191 H197 0.985 . S
C192 C186 1.379 . S
C192 C189 1.363 . S
C192 N190 1.356 . S
C193 C187 1.363 . S
C193 C188 1.379 . S
C193 N191 1.356 . S
N194 C186 1.356 . S
N194 H200 0.984 . S
N194 H201 0.984 . S
N195 C188 1.356 . S
N195 H198 0.984 . S
N195 H199 0.985 . S
H196 N191 0.984 . S
H197 N191 0.985 . S
H198 N195 0.984 . S
H199 N195 0.985 . S
H200 N194 0.984 . S
H201 N194 0.984 . S
H202 N190 0.984 . S
H203 N190 0.985 . S
C204 C205 1.363 . S
C204 C210 1.379 . S
C204 N212 1.356 . S
C205 C204 1.363 . S
C205 C211 1.363 . S
C206 C207 1.363 . S
C206 C211 1.379 . S
C206 N213 1.356 . S
C207 C206 1.363 . S
C207 C210 1.363 . S
N208 C210 1.356 . S
N208 H220 0.984 . S
N208 H221 0.985 . S
N209 C211 1.356 . S
N209 H214 0.984 . S
N209 H215 0.985 . S
C210 C204 1.379 . S
C210 C207 1.363 . S
C210 N208 1.356 . S
C211 C205 1.363 . S
C211 C206 1.379 . S
C211 N209 1.356 . S
N212 C204 1.356 . S
N212 H218 0.984 . S
N212 H219 0.984 . S
N213 C206 1.356 . S
N213 H216 0.984 . S
N213 H217 0.985 . S
H214 N209 0.984 . S
H215 N209 0.985 . S
H216 N213 0.984 . S
H217 N213 0.985 . S
H218 N212 0.984 . S
H219 N212 0.984 . S
H220 N208 0.984 . S
H221 N208 0.985 . S
C222 C223 1.363 . S
C222 C228 1.379 . S
C222 N230 1.356 . S
C223 C222 1.363 . S
C223 C229 1.363 . S
C224 C225 1.363 . S
C224 C229 1.379 . S
C224 N231 1.356 . S
C225 C224 1.363 . S
C225 C228 1.363 . S
N226 C228 1.356 . S
N226 H238 0.984 . S
N226 H239 0.985 . S
N227 C229 1.356 . S
N227 H232 0.984 . S
N227 H233 0.985 . S
C228 C222 1.379 . S
C228 C225 1.363 . S
C228 N226 1.356 . S
C229 C223 1.363 . S
C229 C224 1.379 . S
C229 N227 1.356 . S
N230 C222 1.356 . S
N230 H236 0.984 . S
N230 H237 0.984 . S
N231 C224 1.356 . S
N231 H234 0.984 . S
N231 H235 0.985 . S
H232 N227 0.984 . S
H233 N227 0.985 . S
H234 N231 0.984 . S
H235 N231 0.985 . S
H236 N230 0.984 . S
H237 N230 0.984 . S
H238 N226 0.984 . S
H239 N226 0.985 . S
C240 C241 1.363 . S
C240 C246 1.379 . S
C240 N248 1.356 . S
C241 C240 1.363 . S
C241 C247 1.363 . S
C242 C243 1.363 . S
C242 C247 1.379 . S
C242 N249 1.356 . S
C243 C242 1.363 . S
C243 C246 1.363 . S
N244 C246 1.356 . S
N244 H256 0.984 . S
N244 H257 0.985 . S
N245 C247 1.356 . S
N245 H250 0.984 . S
N245 H251 0.985 . S
C246 C240 1.379 . S
C246 C243 1.363 . S
C246 N244 1.356 . S
C247 C241 1.363 . S
C247 C242 1.379 . S
C247 N245 1.356 . S
N248 C240 1.356 . S
N248 H254 0.984 . S
N248 H255 0.984 . S
N249 C242 1.356 . S
N249 H252 0.984 . S
N249 H253 0.985 . S
H250 N245 0.984 . S
H251 N245 0.985 . S
H252 N249 0.984 . S
H253 N249 0.985 . S
H254 N248 0.984 . S
H255 N248 0.984 . S
H256 N244 0.984 . S
H257 N244 0.985 . S
C258 C259 1.363 . S
C258 C264 1.379 . S
C258 N266 1.356 . S
C259 C258 1.363 . S
C259 C265 1.363 . S
C260 C261 1.363 . S
C260 C265 1.379 . S
C260 N267 1.356 . S
C261 C260 1.363 . S
C261 C264 1.363 . S
N262 C264 1.356 . S
N262 H274 0.984 . S
N262 H275 0.985 . S
N263 C265 1.356 . S
N263 H268 0.984 . S
N263 H269 0.985 . S
C264 C258 1.379 . S
C264 C261 1.363 . S
C264 N262 1.356 . S
C265 C259 1.363 . S
C265 C260 1.379 . S
C265 N263 1.356 . S
N266 C258 1.356 . S
N266 H272 0.984 . S
N266 H273 0.984 . S
N267 C260 1.356 . S
N267 H270 0.984 . S
N267 H271 0.985 . S
H268 N263 0.984 . S
H269 N263 0.985 . S
H270 N267 0.984 . S
H271 N267 0.985 . S
H272 N266 0.984 . S
H273 N266 0.984 . S
H274 N262 0.984 . S
H275 N262 0.985 . S
C276 C277 1.363 . S
C276 C282 1.379 . S
C276 N284 1.356 . S
C277 C276 1.363 . S
C277 C283 1.363 . S
C278 C279 1.363 . S
C278 C283 1.379 . S
C278 N285 1.356 . S
C279 C278 1.363 . S
C279 C282 1.363 . S
N280 C282 1.356 . S
N280 H292 0.984 . S
N280 H293 0.985 . S
N281 C283 1.356 . S
N281 H286 0.984 . S
N281 H287 0.985 . S
C282 C276 1.379 . S
C282 C279 1.363 . S
C282 N280 1.356 . S
C283 C277 1.363 . S
C283 C278 1.379 . S
C283 N281 1.356 . S
N284 C276 1.356 . S
N284 H290 0.984 . S
N284 H291 0.984 . S
N285 C278 1.356 . S
N285 H288 0.984 . S
N285 H289 0.985 . S
H286 N281 0.984 . S
H287 N281 0.985 . S
H288 N285 0.984 . S
H289 N285 0.985 . S
H290 N284 0.984 . S
H291 N284 0.984 . S
H292 N280 0.984 . S
H293 N280 0.985 . S
C294 C295 1.363 . S
C294 C300 1.379 . S
C294 N302 1.356 . S
C295 C294 1.363 . S
C295 C301 1.363 . S
C296 C297 1.363 . S
C296 C301 1.379 . S
C296 N303 1.356 . S
C297 C296 1.363 . S
C297 C300 1.363 . S
N298 C300 1.356 . S
N298 H310 0.984 . S
N298 H311 0.985 . S
N299 C301 1.356 . S
N299 H304 0.984 . S
N299 H305 0.985 . S
C300 C294 1.379 . S
C300 C297 1.363 . S
C300 N298 1.356 . S
C301 C295 1.363 . S
C301 C296 1.379 . S
C301 N299 1.356 . S
N302 C294 1.356 . S
N302 H308 0.984 . S
N302 H309 0.984 . S
N303 C296 1.356 . S
N303 H306 0.984 . S
N303 H307 0.985 . S
H304 N299 0.984 . S
H305 N299 0.985 . S
H306 N303 0.984 . S
H307 N303 0.985 . S
H308 N302 0.984 . S
H309 N302 0.984 . S
H310 N298 0.984 . S
H311 N298 0.985 . S
C133 C21 1.495 . S
C135 C54 1.495 . S
C151 C120 1.495 . S
C153 C87 1.495 . S
C169 C18 1.544 . S
C171 N112 1.495 . S
C187 N2 1.417 . S
C189 C106 1.469 . S
C205 N101 1.417 . S
C207 C7 1.471 . S
C223 N13 1.496 . S
C225 C117 1.545 . S
C241 N68 1.417 . S
C243 C40 1.471 . S
C259 N35 1.417 . S
C261 C73 1.469 . S
C277 C51 1.544 . S
C279 N79 1.495 . S
C295 C84 1.544 . S
C297 N46 1.496 . S
