# Generated by pormake.
# Topology snl, (6)-cn, num edge types: 1
# Building blocks:
#     Node 0, Type 0, BuildingBlock: MIFKUJ_clean_sbu_0, # of connection points: 6
#     Node 1, Type 0, BuildingBlock: MIFKUJ_clean_sbu_0, # of connection points: 6
#     Node 2, Type 0, BuildingBlock: MIFKUJ_clean_sbu_0, # of connection points: 6
#     Node 3, Type 0, BuildingBlock: MIFKUJ_clean_sbu_0, # of connection points: 6
#     Node 4, Type 0, BuildingBlock: MIFKUJ_clean_sbu_0, # of connection points: 6
#     Node 5, Type 0, BuildingBlock: MIFKUJ_clean_sbu_0, # of connection points: 6
#     Node 6, Type 0, BuildingBlock: MIFKUJ_clean_sbu_0, # of connection points: 6
#     Node 7, Type 0, BuildingBlock: MIFKUJ_clean_sbu_0, # of connection points: 6
#     Node 8, Type 0, BuildingBlock: MIFKUJ_clean_sbu_0, # of connection points: 6
#     Node 9, Type 0, BuildingBlock: MIFKUJ_clean_sbu_0, # of connection points: 6
#     Node 10, Type 0, BuildingBlock: MIFKUJ_clean_sbu_0, # of connection points: 6
#     Node 11, Type 0, BuildingBlock: MIFKUJ_clean_sbu_0, # of connection points: 6
#     Node 12, Type 0, BuildingBlock: MIFKUJ_clean_sbu_0, # of connection points: 6
#     Node 13, Type 0, BuildingBlock: MIFKUJ_clean_sbu_0, # of connection points: 6
#     Node 14, Type 0, BuildingBlock: MIFKUJ_clean_sbu_0, # of connection points: 6
#     Node 15, Type 0, BuildingBlock: MIFKUJ_clean_sbu_0, # of connection points: 6
#     Edge 16, Type (0, 0), BuildingBlock: MIFKUJ_clean_linker_0, # of connection points: 2
#     Edge 17, Type (0, 0), BuildingBlock: MIFKUJ_clean_linker_0, # of connection points: 2
#     Edge 18, Type (0, 0), BuildingBlock: MIFKUJ_clean_linker_0, # of connection points: 2
#     Edge 19, Type (0, 0), BuildingBlock: MIFKUJ_clean_linker_0, # of connection points: 2
#     Edge 20, Type (0, 0), BuildingBlock: MIFKUJ_clean_linker_0, # of connection points: 2
#     Edge 21, Type (0, 0), BuildingBlock: MIFKUJ_clean_linker_0, # of connection points: 2
#     Edge 22, Type (0, 0), BuildingBlock: MIFKUJ_clean_linker_0, # of connection points: 2
#     Edge 23, Type (0, 0), BuildingBlock: MIFKUJ_clean_linker_0, # of connection points: 2
#     Edge 24, Type (0, 0), BuildingBlock: MIFKUJ_clean_linker_0, # of connection points: 2
#     Edge 25, Type (0, 0), BuildingBlock: MIFKUJ_clean_linker_0, # of connection points: 2
#     Edge 26, Type (0, 0), BuildingBlock: MIFKUJ_clean_linker_0, # of connection points: 2
#     Edge 27, Type (0, 0), BuildingBlock: MIFKUJ_clean_linker_0, # of connection points: 2
#     Edge 28, Type (0, 0), BuildingBlock: MIFKUJ_clean_linker_0, # of connection points: 2
#     Edge 29, Type (0, 0), BuildingBlock: MIFKUJ_clean_linker_0, # of connection points: 2
#     Edge 30, Type (0, 0), BuildingBlock: MIFKUJ_clean_linker_0, # of connection points: 2
#     Edge 31, Type (0, 0), BuildingBlock: MIFKUJ_clean_linker_0, # of connection points: 2
#     Edge 32, Type (0, 0), BuildingBlock: MIFKUJ_clean_linker_0, # of connection points: 2
#     Edge 33, Type (0, 0), BuildingBlock: MIFKUJ_clean_linker_0, # of connection points: 2
#     Edge 34, Type (0, 0), BuildingBlock: MIFKUJ_clean_linker_0, # of connection points: 2
#     Edge 35, Type (0, 0), BuildingBlock: MIFKUJ_clean_linker_0, # of connection points: 2
#     Edge 36, Type (0, 0), BuildingBlock: MIFKUJ_clean_linker_0, # of connection points: 2
#     Edge 37, Type (0, 0), BuildingBlock: MIFKUJ_clean_linker_0, # of connection points: 2
#     Edge 38, Type (0, 0), BuildingBlock: MIFKUJ_clean_linker_0, # of connection points: 2
#     Edge 39, Type (0, 0), BuildingBlock: MIFKUJ_clean_linker_0, # of connection points: 2
#     Edge 40, Type (0, 0), BuildingBlock: MIFKUJ_clean_linker_0, # of connection points: 2
#     Edge 41, Type (0, 0), BuildingBlock: MIFKUJ_clean_linker_0, # of connection points: 2
#     Edge 42, Type (0, 0), BuildingBlock: MIFKUJ_clean_linker_0, # of connection points: 2
#     Edge 43, Type (0, 0), BuildingBlock: MIFKUJ_clean_linker_0, # of connection points: 2
#     Edge 44, Type (0, 0), BuildingBlock: MIFKUJ_clean_linker_0, # of connection points: 2
#     Edge 45, Type (0, 0), BuildingBlock: MIFKUJ_clean_linker_0, # of connection points: 2
#     Edge 46, Type (0, 0), BuildingBlock: MIFKUJ_clean_linker_0, # of connection points: 2
#     Edge 47, Type (0, 0), BuildingBlock: MIFKUJ_clean_linker_0, # of connection points: 2
#     Edge 48, Type (0, 0), BuildingBlock: MIFKUJ_clean_linker_0, # of connection points: 2
#     Edge 49, Type (0, 0), BuildingBlock: MIFKUJ_clean_linker_0, # of connection points: 2
#     Edge 50, Type (0, 0), BuildingBlock: MIFKUJ_clean_linker_0, # of connection points: 2
#     Edge 51, Type (0, 0), BuildingBlock: MIFKUJ_clean_linker_0, # of connection points: 2
#     Edge 52, Type (0, 0), BuildingBlock: MIFKUJ_clean_linker_0, # of connection points: 2
#     Edge 53, Type (0, 0), BuildingBlock: MIFKUJ_clean_linker_0, # of connection points: 2
#     Edge 54, Type (0, 0), BuildingBlock: MIFKUJ_clean_linker_0, # of connection points: 2
#     Edge 55, Type (0, 0), BuildingBlock: MIFKUJ_clean_linker_0, # of connection points: 2
#     Edge 56, Type (0, 0), BuildingBlock: MIFKUJ_clean_linker_0, # of connection points: 2
#     Edge 57, Type (0, 0), BuildingBlock: MIFKUJ_clean_linker_0, # of connection points: 2
#     Edge 58, Type (0, 0), BuildingBlock: MIFKUJ_clean_linker_0, # of connection points: 2
#     Edge 59, Type (0, 0), BuildingBlock: MIFKUJ_clean_linker_0, # of connection points: 2
#     Edge 60, Type (0, 0), BuildingBlock: MIFKUJ_clean_linker_0, # of connection points: 2
#     Edge 61, Type (0, 0), BuildingBlock: MIFKUJ_clean_linker_0, # of connection points: 2
#     Edge 62, Type (0, 0), BuildingBlock: MIFKUJ_clean_linker_0, # of connection points: 2
#     Edge 63, Type (0, 0), BuildingBlock: MIFKUJ_clean_linker_0, # of connection points: 2
# Relax obj value: 0.122
# Max RMSD: 0.178
# Mean RMSD: 0.161
data_MOF--net-snl--node1-MIFKUJ_clean_sbu_0--edge1-MIFKUJ_clean_linker_0
_symmetry_space_group_name_H-M    P1
_symmetry_Int_Tables_number       1
_symmetry_cell_setting            triclinic
loop_
_symmetry_equiv_pos_as_xyz
'x, y, z'
_cell_length_a     78.686887
_cell_length_b     80.262485
_cell_length_c     23.084267
_cell_angle_alpha  89.009145
_cell_angle_beta   90.93773
_cell_angle_gamma 90.043978
loop_
_atom_site_label
_atom_site_type_symbol
_atom_site_fract_x
_atom_site_fract_y
_atom_site_fract_z
_atom_type_partial_charge
Zn0 Zn 0.12826 0.61707 0.21957 0.0
Zn1 Zn 0.12286 0.62118 0.07862 0.0
C2 C 0.16265 0.61215 0.26589 0.0
O3 O 0.15421 0.6059 0.30978 0.0
C4 C 0.08739 0.6109 0.07493 0.0
O5 O 0.09303 0.60134 0.03383 0.0
O6 O 0.12124 0.615 0.30369 0.0
O7 O 0.11976 0.63996 0.19191 0.0
O8 O 0.13312 0.64225 0.10902 0.0
C9 C 0.12155 0.62766 0.3362 0.0
O10 O 0.12548 0.64228 0.31372 0.0
O11 O 0.15442 0.61741 0.22111 0.0
C12 C 0.12544 0.61069 0.95828 0.0
O13 O 0.12807 0.59596 0.98242 0.0
O14 O 0.12306 0.62316 0.99053 0.0
O15 O 0.13506 0.6 0.10108 0.0
O16 O 0.12016 0.5958 0.17975 0.0
O17 O 0.0979 0.62015 0.10194 0.0
C18 C 0.12665 0.64897 0.1529 0.0
C19 C 0.12789 0.59008 0.13639 0.0
Zn20 Zn 0.61832 0.89274 0.42678 0.0
Zn21 Zn 0.61508 0.86282 0.27826 0.0
C22 C 0.62701 0.92306 0.4866 0.0
O23 O 0.6351 0.91251 0.52132 0.0
C24 C 0.60574 0.82832 0.26729 0.0
O25 O 0.59463 0.83472 0.23008 0.0
O26 O 0.61906 0.88138 0.50589 0.0
O27 O 0.59543 0.88815 0.38903 0.0
O28 O 0.59379 0.87234 0.31093 0.0
C29 C 0.60685 0.88409 0.53996 0.0
O30 O 0.59384 0.89297 0.52075 0.0
O31 O 0.61902 0.91756 0.44246 0.0
C32 C 0.62495 0.86098 0.15801 0.0
O33 O 0.6384 0.85363 0.18115 0.0
O34 O 0.61335 0.86609 0.19109 0.0
O35 O 0.63739 0.87229 0.30469 0.0
O36 O 0.63987 0.88771 0.38352 0.0
O37 O 0.61571 0.83804 0.29445 0.0
C38 C 0.58682 0.88113 0.34917 0.0
C39 C 0.64634 0.88064 0.34016 0.0
Zn40 Zn 0.35786 0.3783 0.69751 0.0
Zn41 Zn 0.38697 0.37503 0.54786 0.0
C42 C 0.32778 0.38534 0.76212 0.0
O43 O 0.33875 0.3935 0.79444 0.0
C44 C 0.42228 0.36872 0.53011 0.0
O45 O 0.41609 0.36034 0.48615 0.0
O46 O 0.37033 0.37979 0.7749 0.0
O47 O 0.36292 0.35569 0.66357 0.0
O48 O 0.37853 0.35389 0.58444 0.0
C49 C 0.36873 0.36764 0.81058 0.0
O50 O 0.36052 0.35427 0.79364 0.0
O51 O 0.33291 0.378 0.71722 0.0
C52 C 0.38786 0.38512 0.42723 0.0
O53 O 0.39463 0.39857 0.4496 0.0
O54 O 0.38329 0.37331 0.46101 0.0
O55 O 0.37684 0.39664 0.57202 0.0
O56 O 0.36138 0.39968 0.65077 0.0
O57 O 0.41215 0.37609 0.56343 0.0
C58 C 0.37008 0.34714 0.62496 0.0
C59 C 0.3683 0.40567 0.60551 0.0
Zn60 Zn 0.87849 0.10884 0.95313 0.0
Zn61 Zn 0.88065 0.13734 0.80056 0.0
C62 C 0.87945 0.07301 0.93404 0.0
O63 O 0.87605 0.07713 0.87975 0.0
C64 C 0.88746 0.172 0.78385 0.0
O65 O 0.89833 0.16595 0.74705 0.0
O66 O 0.87609 0.11939 0.03128 0.0
O67 O 0.90076 0.11616 0.91876 0.0
O68 O 0.90312 0.13041 0.83591 0.0
C69 C 0.8877 0.11605 0.06866 0.0
O70 O 0.90071 0.10699 0.05313 0.0
O71 O 0.88103 0.08439 0.97133 0.0
C72 C 0.87048 0.13965 0.68058 0.0
O73 O 0.85747 0.14742 0.70268 0.0
O74 O 0.88209 0.13399 0.71443 0.0
O75 O 0.85908 0.12636 0.82671 0.0
O76 O 0.85646 0.1113 0.90758 0.0
O77 O 0.87828 0.16198 0.81291 0.0
C78 C 0.90975 0.12307 0.87992 0.0
C79 C 0.85014 0.11771 0.8613 0.0
Zn80 Zn 0.12256 0.3816 0.98753 0.0
Zn81 Zn 0.11855 0.3748 0.84605 0.0
C82 C 0.13279 0.4163 0.99258 0.0
O83 O 0.14804 0.40967 0.9955 0.0
C84 C 0.1096 0.34022 0.84639 0.0
O85 O 0.09796 0.34611 0.8101 0.0
O86 O 0.12476 0.37578 0.07275 0.0
O87 O 0.10023 0.37126 0.96068 0.0
O88 O 0.09781 0.38529 0.8783 0.0
C89 C 0.11265 0.38007 0.10514 0.0
O90 O 0.09929 0.38746 0.08143 0.0
O91 O 0.11994 0.40681 0.98642 0.0
C92 C 0.12709 0.36906 0.72766 0.0
O93 O 0.14042 0.36206 0.75301 0.0
O94 O 0.11575 0.37549 0.75891 0.0
O95 O 0.14067 0.38589 0.86265 0.0
O96 O 0.145 0.37537 0.95072 0.0
O97 O 0.11996 0.35035 0.86989 0.0
C98 C 0.09098 0.3782 0.92157 0.0
C99 C 0.15072 0.38095 0.90288 0.0
Zn100 Zn 0.86096 0.87986 0.23457 0.0
Zn101 Zn 0.89216 0.88124 0.08272 0.0
C102 C 0.82792 0.88384 0.27465 0.0
O103 O 0.83656 0.89461 0.30567 0.0
C104 C 0.92722 0.88291 0.05402 0.0
O105 O 0.92164 0.87384 0.01085 0.0
O106 O 0.87023 0.87959 0.31645 0.0
O107 O 0.87366 0.86246 0.18548 0.0
O108 O 0.89005 0.85757 0.11009 0.0
C109 C 0.86608 0.86833 0.35291 0.0
O110 O 0.85652 0.85588 0.33558 0.0
O111 O 0.83581 0.87507 0.23841 0.0
C112 C 0.88948 0.89381 0.96377 0.0
O113 O 0.89979 0.90551 0.98239 0.0
O114 O 0.88408 0.88286 0.99944 0.0
O115 O 0.87783 0.8926 0.13835 0.0
O116 O 0.86297 0.90383 0.20452 0.0
O117 O 0.91673 0.88799 0.09107 0.0
C118 C 0.88171 0.8523 0.15375 0.0
C119 C 0.87143 0.90558 0.15875 0.0
Zn120 Zn 0.37377 0.61251 0.42492 0.0
Zn121 Zn 0.3779 0.61506 0.28404 0.0
C122 C 0.36141 0.58078 0.45907 0.0
O123 O 0.35044 0.59057 0.48397 0.0
C124 C 0.38941 0.64842 0.26547 0.0
O125 O 0.39902 0.64061 0.22869 0.0
O126 O 0.37261 0.61887 0.50926 0.0
O127 O 0.39726 0.61977 0.39864 0.0
O128 O 0.39869 0.60433 0.32098 0.0
C129 C 0.38383 0.6127 0.54364 0.0
O130 O 0.39588 0.6034 0.52227 0.0
O131 O 0.37286 0.58732 0.42765 0.0
C132 C 0.3687 0.61915 0.16412 0.0
O133 O 0.35655 0.62796 0.1872 0.0
O134 O 0.37959 0.612 0.19743 0.0
O135 O 0.35451 0.60682 0.30456 0.0
O136 O 0.35199 0.62083 0.38533 0.0
O137 O 0.37922 0.63999 0.29662 0.0
C138 C 0.40604 0.61167 0.36285 0.0
C139 C 0.34525 0.61398 0.34123 0.0
Zn140 Zn 0.63768 0.1244 0.70255 0.0
Zn141 Zn 0.61602 0.12863 0.55245 0.0
C142 C 0.66964 0.11158 0.74908 0.0
O143 O 0.65955 0.10262 0.78207 0.0
C144 C 0.58101 0.13546 0.55591 0.0
O145 O 0.58645 0.14733 0.52093 0.0
O146 O 0.62872 0.12427 0.78386 0.0
O147 O 0.63469 0.14788 0.66963 0.0
O148 O 0.62394 0.15065 0.58069 0.0
C149 C 0.63463 0.13487 0.81918 0.0
O150 O 0.64573 0.1459 0.80066 0.0
O151 O 0.66313 0.12145 0.71117 0.0
C152 C 0.60863 0.12041 0.43295 0.0
O153 O 0.60072 0.10763 0.45656 0.0
O154 O 0.61581 0.131 0.46554 0.0
O155 O 0.6305 0.10847 0.56894 0.0
O156 O 0.62874 0.10349 0.66333 0.0
O157 O 0.59173 0.12513 0.57737 0.0
C158 C 0.63025 0.15693 0.62625 0.0
C159 C 0.62903 0.09837 0.61147 0.0
Zn160 Zn 0.8739 0.37726 0.92512 0.0
Zn161 Zn 0.87568 0.38116 0.7877 0.0
C162 C 0.90858 0.36932 0.94405 0.0
O163 O 0.90135 0.35791 0.97691 0.0
C164 C 0.84185 0.3878 0.7474 0.0
O165 O 0.85024 0.39732 0.71091 0.0
O166 O 0.87046 0.37569 0.01256 0.0
O167 O 0.86239 0.39802 0.89479 0.0
O168 O 0.88193 0.40251 0.82902 0.0
C169 C 0.8764 0.38722 0.04434 0.0
O170 O 0.88372 0.40012 0.01931 0.0
O171 O 0.89921 0.37951 0.91538 0.0
C172 C 0.87809 0.37128 0.66938 0.0
O173 O 0.87086 0.35801 0.69226 0.0
O174 O 0.88226 0.38319 0.70254 0.0
O175 O 0.88482 0.35904 0.81766 0.0
O176 O 0.86687 0.35568 0.88932 0.0
O177 O 0.85002 0.37964 0.78652 0.0
C178 C 0.87121 0.40807 0.86459 0.0
C179 C 0.87624 0.34951 0.85076 0.0
Zn180 Zn 0.37273 0.13518 0.72225 0.0
Zn181 Zn 0.36803 0.13079 0.58251 0.0
C182 C 0.38316 0.16958 0.69976 0.0
O183 O 0.39828 0.16408 0.71566 0.0
C184 C 0.3565 0.09845 0.55592 0.0
O185 O 0.34445 0.10767 0.53182 0.0
O186 O 0.37518 0.1345 0.80971 0.0
O187 O 0.35057 0.12418 0.70397 0.0
O188 O 0.34628 0.13799 0.6215 0.0
C189 C 0.36647 0.1443 0.84022 0.0
O190 O 0.35603 0.15487 0.81408 0.0
O191 O 0.37071 0.15949 0.69818 0.0
C192 C 0.37618 0.12963 0.46344 0.0
O193 O 0.38727 0.11903 0.486 0.0
O194 O 0.36608 0.13702 0.49704 0.0
O195 O 0.39129 0.13918 0.60782 0.0
O196 O 0.39382 0.12497 0.68989 0.0
O197 O 0.36839 0.10559 0.58408 0.0
C198 C 0.3405 0.1308 0.66671 0.0
C199 C 0.40054 0.13163 0.64556 0.0
Zn200 Zn 0.62458 0.62233 0.40318 0.0
Zn201 Zn 0.62933 0.61884 0.26398 0.0
C202 C 0.58866 0.62707 0.41439 0.0
O203 O 0.59444 0.63747 0.45338 0.0
C204 C 0.66376 0.61132 0.23794 0.0
O205 O 0.65564 0.59998 0.20779 0.0
O206 O 0.62671 0.62417 0.4905 0.0
O207 O 0.6381 0.60216 0.3821 0.0
O208 O 0.62266 0.59706 0.30417 0.0
C209 C 0.62463 0.61149 0.5235 0.0
O210 O 0.62141 0.59698 0.50017 0.0
O211 O 0.5993 0.61892 0.38499 0.0
C212 C 0.62684 0.62866 0.14413 0.0
O213 O 0.63192 0.64285 0.16606 0.0
O214 O 0.62424 0.61632 0.1782 0.0
O215 O 0.61832 0.6407 0.28649 0.0
O216 O 0.63207 0.64426 0.36926 0.0
O217 O 0.65516 0.62114 0.26885 0.0
C218 C 0.63149 0.59183 0.34737 0.0
C219 C 0.62444 0.65031 0.32479 0.0
Zn220 Zn 0.1347 0.86169 0.21054 0.0
Zn221 Zn 0.14087 0.89232 0.06079 0.0
C222 C 0.12488 0.82739 0.21631 0.0
O223 O 0.11418 0.83365 0.25323 0.0
C224 C 0.1345 0.92408 0.00232 0.0
O225 O 0.12855 0.91435 0.96156 0.0
O226 O 0.13265 0.86258 0.29831 0.0
O227 O 0.15716 0.87193 0.18944 0.0
O228 O 0.16182 0.88743 0.11025 0.0
C229 C 0.13986 0.8736 0.32915 0.0
O230 O 0.14868 0.88544 0.30357 0.0
O231 O 0.13517 0.83717 0.19068 0.0
C232 C 0.13284 0.87438 0.95261 0.0
O233 O 0.11897 0.86955 0.97897 0.0
O234 O 0.14378 0.88302 0.98008 0.0
O235 O 0.11789 0.88659 0.09361 0.0
O236 O 0.11355 0.87172 0.17453 0.0
O237 O 0.1404 0.91753 0.04911 0.0
C238 C 0.167 0.88035 0.15704 0.0
C239 C 0.10804 0.88019 0.13109 0.0
Zn240 Zn 0.87724 0.64001 0.21888 0.0
Zn241 Zn 0.87319 0.61027 0.07243 0.0
C242 C 0.8887 0.6742 0.19699 0.0
O243 O 0.90341 0.66723 0.1865 0.0
C244 C 0.86032 0.57798 0.04374 0.0
O245 O 0.84623 0.58649 0.03492 0.0
O246 O 0.87871 0.63527 0.30492 0.0
O247 O 0.85448 0.63104 0.1919 0.0
O248 O 0.85137 0.61554 0.11378 0.0
C249 C 0.86963 0.64365 0.33895 0.0
O250 O 0.85933 0.65508 0.31704 0.0
O251 O 0.87609 0.66504 0.20989 0.0
C252 C 0.88189 0.61281 0.95466 0.0
O253 O 0.89253 0.60127 0.97363 0.0
O254 O 0.87201 0.61956 0.99052 0.0
O255 O 0.89611 0.61623 0.10693 0.0
O256 O 0.89927 0.63177 0.18493 0.0
O257 O 0.87351 0.58544 0.06237 0.0
C258 C 0.84514 0.62291 0.15691 0.0
C259 C 0.90554 0.62331 0.1444 0.0
Zn260 Zn 0.12621 0.13327 0.96434 0.0
Zn261 Zn 0.12857 0.13081 0.82385 0.0
C262 C 0.09017 0.13885 0.97473 0.0
O263 O 0.09536 0.14717 0.0202 0.0
C264 C 0.16146 0.12344 0.78247 0.0
O265 O 0.15207 0.1137 0.74983 0.0
O266 O 0.12811 0.13478 0.05195 0.0
O267 O 0.13724 0.11174 0.94347 0.0
O268 O 0.12259 0.10854 0.86205 0.0
C269 C 0.12188 0.12344 0.08447 0.0
O270 O 0.11443 0.11057 0.06045 0.0
O271 O 0.10111 0.13195 0.94305 0.0
C272 C 0.12601 0.14136 0.70527 0.0
O273 O 0.13475 0.15382 0.72693 0.0
O274 O 0.121 0.1298 0.73939 0.0
O275 O 0.11944 0.15284 0.85306 0.0
O276 O 0.13573 0.15456 0.93111 0.0
O277 O 0.15434 0.13207 0.82096 0.0
C278 C 0.13048 0.10231 0.90592 0.0
C279 C 0.12726 0.16163 0.89035 0.0
Zn280 Zn 0.6331 0.36731 0.69599 0.0
Zn281 Zn 0.63554 0.3853 0.54192 0.0
C282 C 0.63469 0.33585 0.63331 0.0
O283 O 0.62519 0.34364 0.59419 0.0
C284 C 0.64773 0.41999 0.52724 0.0
O285 O 0.66271 0.41419 0.54338 0.0
O286 O 0.63117 0.36765 0.78242 0.0
O287 O 0.65129 0.38395 0.67666 0.0
O288 O 0.65729 0.37919 0.58535 0.0
C289 C 0.64273 0.36128 0.81483 0.0
O290 O 0.65607 0.35453 0.79104 0.0
O291 O 0.63997 0.34372 0.67741 0.0
C292 C 0.62495 0.37893 0.42707 0.0
O293 O 0.61245 0.38852 0.44354 0.0
O294 O 0.63666 0.37511 0.46342 0.0
O295 O 0.61246 0.37996 0.57381 0.0
O296 O 0.60965 0.37179 0.66542 0.0
O297 O 0.63508 0.41014 0.52538 0.0
C298 C 0.66204 0.38123 0.63763 0.0
C299 C 0.60325 0.37581 0.61637 0.0
Zn300 Zn 0.37649 0.86177 0.25208 0.0
Zn301 Zn 0.37231 0.89114 0.40054 0.0
C302 C 0.38506 0.82771 0.23262 0.0
O303 O 0.39384 0.83485 0.19113 0.0
C304 C 0.36244 0.92641 0.39244 0.0
O305 O 0.35154 0.92141 0.35268 0.0
O306 O 0.37781 0.86581 0.16557 0.0
O307 O 0.35412 0.87108 0.27626 0.0
O308 O 0.35076 0.88621 0.35504 0.0
C309 C 0.36618 0.86051 0.13172 0.0
O310 O 0.35311 0.85259 0.15385 0.0
O311 O 0.37649 0.83679 0.26603 0.0
C312 C 0.38293 0.88376 0.51565 0.0
O313 O 0.3956 0.89311 0.49792 0.0
O314 O 0.37108 0.88023 0.47976 0.0
O315 O 0.39518 0.88629 0.3661 0.0
O316 O 0.39788 0.87108 0.28723 0.0
O317 O 0.37236 0.91584 0.41687 0.0
C318 C 0.34477 0.87918 0.31017 0.0
C319 C 0.40432 0.87965 0.32784 0.0
H320 H 0.12005 0.6392 0.89329 0.0
H321 H 0.11853 0.64198 0.78762 0.0
H322 H 0.12755 0.58924 0.77259 0.0
H323 H 0.12935 0.5864 0.87802 0.0
H324 H 0.14598 0.6063 0.69596 0.0
H325 H 0.0877 0.60571 0.75315 0.0
H326 H 0.0627 0.61472 0.80746 0.0
H327 H 0.06672 0.66383 0.73212 0.0
H328 H 0.09191 0.65517 0.67796 0.0
H329 H 0.12119 0.59872 0.40083 0.0
H330 H 0.1207 0.59585 0.50654 0.0
H331 H 0.11701 0.64922 0.52091 0.0
H332 H 0.11755 0.65222 0.41528 0.0
H333 H 0.09563 0.63178 0.59717 0.0
H334 H 0.1541 0.63201 0.54004 0.0
H335 H 0.17847 0.62245 0.48361 0.0
H336 H 0.17358 0.57334 0.55827 0.0
H337 H 0.14896 0.58254 0.61436 0.0
C338 C 0.12173 0.62819 0.86752 0.0
C339 C 0.12477 0.61256 0.89421 0.0
C340 C 0.12079 0.62979 0.80708 0.0
C341 C 0.12272 0.61578 0.77208 0.0
C342 C 0.126 0.60022 0.79862 0.0
C343 C 0.12698 0.59862 0.85899 0.0
C344 C 0.12133 0.61731 0.70784 0.0
C345 C 0.13486 0.61167 0.67442 0.0
C346 C 0.10697 0.6246 0.67957 0.0
C347 C 0.0918 0.62983 0.71196 0.0
C348 C 0.08334 0.61847 0.74852 0.0
C349 C 0.06912 0.6235 0.77922 0.0
C350 C 0.06315 0.63985 0.77337 0.0
C351 C 0.07137 0.65118 0.73668 0.0
C352 C 0.08561 0.64621 0.70594 0.0
C353 C 0.12006 0.60984 0.42641 0.0
C354 C 0.1195 0.62571 0.39965 0.0
C355 C 0.11985 0.60818 0.48682 0.0
C356 C 0.11899 0.62234 0.52154 0.0
C357 C 0.1177 0.63814 0.4949 0.0
C358 C 0.11807 0.63982 0.43454 0.0
C359 C 0.12023 0.62074 0.58563 0.0
C360 C 0.1067 0.62639 0.6189 0.0
C361 C 0.13456 0.61341 0.61376 0.0
C362 C 0.14957 0.60792 0.58095 0.0
C363 C 0.15814 0.61914 0.54411 0.0
C364 C 0.17201 0.61379 0.51221 0.0
C365 C 0.17754 0.59729 0.51723 0.0
C366 C 0.16926 0.58612 0.55435 0.0
C367 C 0.15535 0.59139 0.58622 0.0
H368 H 0.18827 0.59316 0.49245 0.0
H369 H 0.05213 0.64372 0.79716 0.0
H370 H 0.59747 0.87273 0.09534 0.0
H371 H 0.59447 0.87547 0.98997 0.0
H372 H 0.64527 0.85644 0.97063 0.0
H373 H 0.64842 0.85373 0.07598 0.0
H374 H 0.63916 0.88372 0.90039 0.0
H375 H 0.61161 0.8317 0.94519 0.0
H376 H 0.59136 0.81332 0.99583 0.0
H377 H 0.54963 0.8425 0.92796 0.0
H378 H 0.56966 0.86121 0.87756 0.0
H379 H 0.63398 0.86993 0.59842 0.0
H380 H 0.63691 0.86468 0.70286 0.0
H381 H 0.58583 0.88242 0.72693 0.0
H382 H 0.58272 0.88754 0.62266 0.0
H383 H 0.59236 0.85524 0.79461 0.0
H384 H 0.61909 0.90761 0.7526 0.0
H385 H 0.63875 0.92662 0.70199 0.0
H386 H 0.6813 0.89775 0.76516 0.0
H387 H 0.66185 0.8784 0.81545 0.0
C388 C 0.60802 0.86915 0.06873 0.0
C389 C 0.62317 0.86295 0.09416 0.0
C390 C 0.60626 0.87066 0.00845 0.0
C391 C 0.61958 0.866 0.97235 0.0
C392 C 0.63481 0.86008 0.99762 0.0
C393 C 0.63656 0.85849 0.05788 0.0
C394 C 0.61763 0.86729 0.90825 0.0
C395 C 0.62908 0.87729 0.87717 0.0
C396 C 0.60423 0.85924 0.87807 0.0
C397 C 0.59215 0.84795 0.90805 0.0
C398 C 0.59813 0.83428 0.94143 0.0
C399 C 0.58668 0.82379 0.97003 0.0
C400 C 0.56922 0.82677 0.96523 0.0
C401 C 0.56316 0.84022 0.93169 0.0
C402 C 0.57455 0.85076 0.90306 0.0
C403 C 0.62329 0.87252 0.62582 0.0
C404 C 0.60815 0.87925 0.60218 0.0
C405 C 0.62502 0.8696 0.68557 0.0
C406 C 0.61167 0.87339 0.72284 0.0
C407 C 0.59631 0.87945 0.69907 0.0
C408 C 0.59458 0.8824 0.6394 0.0
C409 C 0.6139 0.87164 0.78675 0.0
C410 C 0.60249 0.8616 0.81781 0.0
C411 C 0.62726 0.87975 0.81698 0.0
C412 C 0.639 0.89145 0.78728 0.0
C413 C 0.63263 0.90524 0.75534 0.0
C414 C 0.64373 0.91608 0.72675 0.0
C415 C 0.66126 0.91336 0.73022 0.0
C416 C 0.66771 0.89982 0.76244 0.0
C417 C 0.65666 0.88891 0.79101 0.0
H418 H 0.66984 0.92177 0.70806 0.0
H419 H 0.56038 0.81863 0.98741 0.0
H420 H 0.39345 0.40909 0.34416 0.0
H421 H 0.39146 0.4063 0.23899 0.0
H422 H 0.37681 0.35481 0.26049 0.0
H423 H 0.37881 0.35746 0.3659 0.0
H424 H 0.40126 0.35908 0.17774 0.0
H425 H 0.34747 0.38321 0.22376 0.0
H426 H 0.32834 0.40374 0.26683 0.0
H427 H 0.35045 0.44273 0.16297 0.0
H428 H 0.36989 0.42245 0.11985 0.0
H429 H 0.36801 0.34366 0.89583 0.0
H430 H 0.37314 0.34708 0.99948 0.0
H431 H 0.38563 0.39883 0.96978 0.0
H432 H 0.38035 0.39555 0.86573 0.0
H433 H 0.36327 0.39513 0.05639 0.0
H434 H 0.41643 0.37084 0.00756 0.0
H435 H 0.43556 0.35031 0.96457 0.0
H436 H 0.41484 0.31168 0.0734 0.0
H437 H 0.3954 0.33195 0.1165 0.0
C438 C 0.38976 0.39717 0.3266 0.0
C439 C 0.38624 0.38351 0.36348 0.0
C440 C 0.38859 0.39562 0.26643 0.0
C441 C 0.38388 0.38038 0.24187 0.0
C442 C 0.38046 0.36668 0.27853 0.0
C443 C 0.38153 0.36825 0.33876 0.0
C444 C 0.38264 0.37871 0.17794 0.0
C445 C 0.39281 0.36681 0.15122 0.0
C446 C 0.37194 0.38912 0.14324 0.0
C447 C 0.36026 0.40134 0.16905 0.0
C448 C 0.34835 0.39618 0.21048 0.0
C449 C 0.33744 0.40777 0.23483 0.0
C450 C 0.33821 0.42454 0.21778 0.0
C451 C 0.34988 0.42974 0.17621 0.0
C452 C 0.36085 0.41821 0.15177 0.0
C453 C 0.37206 0.35574 0.91114 0.0
C454 C 0.37377 0.36933 0.8724 0.0
C455 C 0.37504 0.35766 0.9705 0.0
C456 C 0.37986 0.37319 0.99247 0.0
C457 C 0.38193 0.38672 0.9538 0.0
C458 C 0.379 0.3848 0.89429 0.0
C459 C 0.38187 0.37545 0.05603 0.0
C460 C 0.37181 0.38745 0.08276 0.0
C461 C 0.39268 0.36514 0.09072 0.0
C462 C 0.40434 0.3529 0.06487 0.0
C463 C 0.41584 0.35794 0.02198 0.0
C464 C 0.42677 0.34636 0.99766 0.0
C465 C 0.42639 0.32969 0.01614 0.0
C466 C 0.41511 0.32459 0.05908 0.0
C467 C 0.40415 0.33613 0.08351 0.0
H468 H 0.43486 0.32074 0.99727 0.0
H469 H 0.32974 0.43349 0.23666 0.0
H470 H 0.84742 0.14938 0.59673 0.0
H471 H 0.84989 0.1469 0.49179 0.0
H472 H 0.89892 0.12356 0.51558 0.0
H473 H 0.89664 0.12612 0.62055 0.0
H474 H 0.89935 0.14732 0.43049 0.0
H475 H 0.86424 0.10051 0.48286 0.0
H476 H 0.83966 0.08657 0.52752 0.0
H477 H 0.80563 0.1153 0.41826 0.0
H478 H 0.83002 0.12959 0.37348 0.0
H479 H 0.91038 0.11063 0.15758 0.0
H480 H 0.90684 0.11662 0.25984 0.0
H481 H 0.85773 0.13835 0.22147 0.0
H482 H 0.86107 0.13217 0.1187 0.0
H483 H 0.85634 0.11713 0.31279 0.0
H484 H 0.89159 0.16292 0.25657 0.0
H485 H 0.91623 0.17677 0.21195 0.0
H486 H 0.95001 0.15008 0.32822 0.0
H487 H 0.92558 0.13588 0.37304 0.0
C488 C 0.85872 0.14369 0.57969 0.0
C489 C 0.87182 0.13791 0.61705 0.0
C490 C 0.86009 0.14224 0.51968 0.0
C491 C 0.87453 0.13493 0.49588 0.0
C492 C 0.88767 0.12925 0.53303 0.0
C493 C 0.8863 0.13066 0.59304 0.0
C494 C 0.87603 0.13327 0.43224 0.0
C495 C 0.89005 0.14056 0.4048 0.0
C496 C 0.86364 0.12487 0.39855 0.0
C497 C 0.84895 0.11625 0.42526 0.0
C498 C 0.85151 0.10396 0.46869 0.0
C499 C 0.83761 0.09597 0.49396 0.0
C500 C 0.82109 0.10008 0.47586 0.0
C501 C 0.81843 0.11215 0.43231 0.0
C502 C 0.83229 0.12019 0.40694 0.0
C503 C 0.89887 0.11683 0.17066 0.0
C504 C 0.88601 0.12093 0.1299 0.0
C505 C 0.8969 0.1203 0.22922 0.0
C506 C 0.88209 0.12808 0.2483 0.0
C507 C 0.86928 0.13237 0.20768 0.0
C508 C 0.87124 0.12889 0.14895 0.0
C509 C 0.87976 0.13105 0.311 0.0
C510 C 0.86559 0.124 0.33833 0.0
C511 C 0.89202 0.13968 0.3446 0.0
C512 C 0.90675 0.14823 0.31784 0.0
C513 C 0.90428 0.1599 0.27234 0.0
C514 C 0.91821 0.16783 0.24706 0.0
C515 C 0.93468 0.16428 0.26715 0.0
C516 C 0.93725 0.15281 0.31267 0.0
C517 C 0.92336 0.14483 0.33807 0.0
H518 H 0.94545 0.17044 0.24752 0.0
H519 H 0.81034 0.09388 0.49548 0.0
H520 H 0.13932 0.36729 0.16968 0.0
H521 H 0.14155 0.36456 0.27527 0.0
H522 H 0.09092 0.38445 0.29025 0.0
H523 H 0.08868 0.38744 0.18497 0.0
H524 H 0.11234 0.39906 0.36446 0.0
H525 H 0.09914 0.34278 0.31189 0.0
H526 H 0.10294 0.31653 0.25972 0.0
H527 H 0.15281 0.31075 0.33572 0.0
H528 H 0.1494 0.33711 0.38776 0.0
H529 H 0.10005 0.38014 0.66157 0.0
H530 H 0.0975 0.38115 0.55591 0.0
H531 H 0.14782 0.36036 0.54306 0.0
H532 H 0.15032 0.35899 0.64872 0.0
H533 H 0.12678 0.34609 0.46765 0.0
H534 H 0.14024 0.40226 0.51951 0.0
H535 H 0.13677 0.42862 0.57139 0.0
H536 H 0.08684 0.43473 0.49619 0.0
H537 H 0.08993 0.40829 0.44444 0.0
C538 C 0.12862 0.37098 0.19542 0.0
C539 C 0.11382 0.37758 0.16885 0.0
C540 C 0.12989 0.36936 0.2558 0.0
C541 C 0.11635 0.37418 0.29072 0.0
C542 C 0.10154 0.38066 0.26422 0.0
C543 C 0.10026 0.38232 0.20396 0.0
C544 C 0.11776 0.37296 0.35494 0.0
C545 C 0.11526 0.38742 0.38706 0.0
C546 C 0.12202 0.35788 0.38439 0.0
C547 C 0.12408 0.342 0.35327 0.0
C548 C 0.11097 0.33598 0.31712 0.0
C549 C 0.11304 0.32107 0.28764 0.0
C550 C 0.12812 0.312 0.29428 0.0
C551 C 0.14114 0.3178 0.33055 0.0
C552 C 0.13914 0.33272 0.36009 0.0
C553 C 0.11058 0.37578 0.6363 0.0
C554 C 0.12542 0.36956 0.66362 0.0
C555 C 0.10913 0.37642 0.57585 0.0
C556 C 0.12257 0.37105 0.54146 0.0
C557 C 0.13729 0.3646 0.56865 0.0
C558 C 0.13872 0.36387 0.6291 0.0
C559 C 0.12129 0.37218 0.47717 0.0
C560 C 0.12384 0.35772 0.44504 0.0
C561 C 0.11712 0.38728 0.44764 0.0
C562 C 0.11526 0.40321 0.47855 0.0
C563 C 0.12847 0.40917 0.51438 0.0
C564 C 0.12658 0.42413 0.5437 0.0
C565 C 0.11158 0.43332 0.53721 0.0
C566 C 0.09845 0.42759 0.50124 0.0
C567 C 0.10027 0.41262 0.47187 0.0
H568 H 0.11014 0.4449 0.55994 0.0
H569 H 0.1297 0.30046 0.27142 0.0
H570 H 0.89878 0.91492 0.87555 0.0
H571 H 0.89488 0.91083 0.77143 0.0
H572 H 0.86833 0.86477 0.80578 0.0
H573 H 0.87221 0.86873 0.90986 0.0
H574 H 0.89291 0.86124 0.72439 0.0
H575 H 0.8466 0.89844 0.76025 0.0
H576 H 0.83337 0.92395 0.79674 0.0
H577 H 0.8642 0.95386 0.6837 0.0
H578 H 0.87779 0.92851 0.64708 0.0
H579 H 0.85822 0.84724 0.44297 0.0
H580 H 0.86286 0.85183 0.54642 0.0
H581 H 0.8877 0.89853 0.5076 0.0
H582 H 0.88298 0.89414 0.40408 0.0
H583 H 0.86453 0.90204 0.5911 0.0
H584 H 0.91063 0.86515 0.55405 0.0
H585 H 0.92437 0.83983 0.51813 0.0
H586 H 0.89463 0.80958 0.6335 0.0
H587 H 0.88052 0.83472 0.66957 0.0
C588 C 0.89196 0.90402 0.86099 0.0
C589 C 0.88581 0.89216 0.90103 0.0
C590 C 0.88973 0.9017 0.80146 0.0
C591 C 0.88129 0.8875 0.7809 0.0
C592 C 0.87492 0.87578 0.82076 0.0
C593 C 0.87707 0.87812 0.88025 0.0
C594 C 0.87952 0.88461 0.71782 0.0
C595 C 0.88651 0.87004 0.6953 0.0
C596 C 0.87158 0.89633 0.67977 0.0
C597 C 0.86333 0.91158 0.70134 0.0
C598 C 0.85065 0.91046 0.74349 0.0
C599 C 0.84307 0.92489 0.76414 0.0
C600 C 0.84797 0.94052 0.74267 0.0
C601 C 0.86043 0.94174 0.70035 0.0
C602 C 0.86807 0.92735 0.67958 0.0
C603 C 0.86483 0.85841 0.45636 0.0
C604 C 0.87023 0.87032 0.41522 0.0
C605 C 0.8675 0.861 0.51554 0.0
C606 C 0.87569 0.87549 0.53473 0.0
C607 C 0.88133 0.88728 0.49375 0.0
C608 C 0.87869 0.8847 0.43457 0.0
C609 C 0.87786 0.87861 0.59761 0.0
C610 C 0.87096 0.89323 0.62011 0.0
C611 C 0.88593 0.86696 0.63564 0.0
C612 C 0.89439 0.85181 0.6141 0.0
C613 C 0.90691 0.85309 0.57142 0.0
C614 C 0.91479 0.83877 0.5511 0.0
C615 C 0.91034 0.8231 0.57341 0.0
C616 C 0.89804 0.82172 0.61621 0.0
C617 C 0.89011 0.836 0.63664 0.0
H618 H 0.91646 0.81203 0.55763 0.0
H619 H 0.84209 0.95168 0.75873 0.0
H620 H 0.40565 0.60068 0.62746 0.0
H621 H 0.40292 0.60236 0.73234 0.0
H622 H 0.35669 0.63071 0.7092 0.0
H623 H 0.35941 0.62923 0.60381 0.0
H624 H 0.37701 0.64327 0.7952 0.0
H625 H 0.35482 0.58989 0.74269 0.0
H626 H 0.3554 0.5625 0.69603 0.0
H627 H 0.39872 0.54824 0.80097 0.0
H628 H 0.39858 0.57567 0.84759 0.0
H629 H 0.34732 0.63286 0.08189 0.0
H630 H 0.34988 0.63205 0.9767 0.0
H631 H 0.39563 0.60277 0.99618 0.0
H632 H 0.39305 0.60334 0.10166 0.0
H633 H 0.37517 0.59076 0.91168 0.0
H634 H 0.39753 0.64422 0.96358 0.0
H635 H 0.39708 0.67167 0.00985 0.0
H636 H 0.35347 0.68579 0.9061 0.0
H637 H 0.3535 0.65831 0.85981 0.0
C638 C 0.39494 0.60737 0.64453 0.0
C639 C 0.38269 0.61474 0.60717 0.0
C640 C 0.39337 0.60826 0.70458 0.0
C641 C 0.37946 0.61644 0.72864 0.0
C642 C 0.36749 0.62428 0.69156 0.0
C643 C 0.36905 0.6234 0.63134 0.0
C644 C 0.37728 0.61648 0.79246 0.0
C645 C 0.37637 0.6318 0.8206 0.0
C646 C 0.3768 0.60149 0.82573 0.0
C647 C 0.37679 0.5849 0.79826 0.0
C648 C 0.36455 0.58096 0.75553 0.0
C649 C 0.36478 0.56542 0.72912 0.0
C650 C 0.37711 0.55365 0.74543 0.0
C651 C 0.38919 0.55738 0.78832 0.0
C652 C 0.38904 0.57292 0.81479 0.0
C653 C 0.35793 0.62621 0.0639 0.0
C654 C 0.37002 0.61822 0.10026 0.0
C655 C 0.3594 0.62582 0.00368 0.0
C656 C 0.37308 0.61754 0.97851 0.0
C657 C 0.385 0.60927 0.01464 0.0
C658 C 0.38352 0.60963 0.07494 0.0
C659 C 0.37496 0.61757 0.91453 0.0
C660 C 0.3758 0.60225 0.88632 0.0
C661 C 0.37538 0.63255 0.88122 0.0
C662 C 0.37542 0.64914 0.90863 0.0
C663 C 0.38777 0.65313 0.95093 0.0
C664 C 0.3876 0.66871 0.97712 0.0
C665 C 0.37523 0.68046 0.96102 0.0
C666 C 0.36303 0.67667 0.91858 0.0
C667 C 0.36313 0.6611 0.89232 0.0
H668 H 0.37512 0.69251 0.98135 0.0
H669 H 0.37727 0.54162 0.72492 0.0
H670 H 0.61402 0.1122 0.87376 0.0
H671 H 0.6082 0.10993 0.97735 0.0
H672 H 0.63918 0.15333 0.00842 0.0
H673 H 0.64525 0.15556 0.90518 0.0
H674 H 0.64712 0.12867 0.08316 0.0
H675 H 0.59571 0.15505 0.0136 0.0
H676 H 0.56996 0.15815 0.95206 0.0
H677 H 0.55099 0.11143 0.01748 0.0
H678 H 0.57675 0.10794 0.07886 0.0
H679 H 0.62493 0.14479 0.37123 0.0
H680 H 0.62793 0.14707 0.26634 0.0
H681 H 0.5982 0.10235 0.2451 0.0
H682 H 0.595 0.10002 0.35029 0.0
H683 H 0.58927 0.1267 0.16541 0.0
H684 H 0.64037 0.10036 0.2353 0.0
H685 H 0.66603 0.09712 0.29718 0.0
H686 H 0.68557 0.1435 0.23082 0.0
H687 H 0.65989 0.14714 0.16911 0.0
C688 C 0.61948 0.12135 0.90256 0.0
C689 C 0.63011 0.13406 0.88119 0.0
C690 C 0.6161 0.12006 0.96176 0.0
C691 C 0.62317 0.13152 1.00061 0.0
C692 C 0.63361 0.14434 0.97924 0.0
C693 C 0.63702 0.14562 0.92015 0.0
C694 C 0.62026 0.12984 0.06382 0.0
C695 C 0.63447 0.12847 0.10117 0.0
C696 C 0.60375 0.12907 0.08719 0.0
C697 C 0.58824 0.13116 0.05037 0.0
C698 C 0.58611 0.14537 0.0145 0.0
C699 C 0.5715 0.14721 0.97972 0.0
C700 C 0.55887 0.13497 0.98073 0.0
C701 C 0.5608 0.12089 0.01666 0.0
C702 C 0.57539 0.11898 0.05149 0.0
C703 C 0.61896 0.13545 0.34435 0.0
C704 C 0.60981 0.12215 0.36919 0.0
C705 C 0.62074 0.13676 0.28437 0.0
C706 C 0.61347 0.12476 0.24801 0.0
C707 C 0.60395 0.11172 0.27245 0.0
C708 C 0.60218 0.11038 0.33256 0.0
C709 C 0.61613 0.12574 0.18459 0.0
C710 C 0.6019 0.1269 0.14728 0.0
C711 C 0.63262 0.12629 0.16114 0.0
C712 C 0.64813 0.1241 0.19798 0.0
C713 C 0.65007 0.10993 0.23423 0.0
C714 C 0.66463 0.10801 0.26922 0.0
C715 C 0.6774 0.12011 0.26804 0.0
C716 C 0.67566 0.13414 0.23174 0.0
C717 C 0.66111 0.13614 0.19671 0.0
H718 H 0.68867 0.11861 0.29515 0.0
H719 H 0.54756 0.13642 0.95378 0.0
H720 H 0.88723 0.41015 0.12296 0.0
H721 H 0.88747 0.40779 0.22836 0.0
H722 H 0.8661 0.35841 0.21766 0.0
H723 H 0.86508 0.36102 0.11176 0.0
H724 H 0.85177 0.37425 0.30226 0.0
H725 H 0.90972 0.36599 0.24638 0.0
H726 H 0.93641 0.37315 0.19719 0.0
H727 H 0.94045 0.41808 0.29478 0.0
H728 H 0.91365 0.4113 0.344 0.0
H729 H 0.87091 0.34769 0.58873 0.0
H730 H 0.87127 0.35067 0.48342 0.0
H731 H 0.88884 0.40133 0.49882 0.0
H732 H 0.8887 0.39838 0.60477 0.0
H733 H 0.90514 0.38523 0.41262 0.0
H734 H 0.84747 0.39337 0.46902 0.0
H735 H 0.821 0.38613 0.51937 0.0
H736 H 0.81659 0.34133 0.42125 0.0
H737 H 0.84321 0.34817 0.37094 0.0
C738 C 0.88237 0.39885 0.14288 0.0
C739 C 0.87606 0.38581 0.10868 0.0
C740 C 0.8827 0.39744 0.20338 0.0
C741 C 0.87711 0.38278 0.23132 0.0
C742 C 0.87054 0.36983 0.19732 0.0
C743 C 0.86999 0.37133 0.13668 0.0
C744 C 0.87819 0.38097 0.29583 0.0
C745 C 0.86352 0.37642 0.32619 0.0
C746 C 0.89339 0.3842 0.32763 0.0
C747 C 0.9096 0.38821 0.29851 0.0
C748 C 0.91625 0.37745 0.2571 0.0
C749 C 0.9314 0.38143 0.22924 0.0
C750 C 0.9401 0.39608 0.24276 0.0
C751 C 0.93369 0.40675 0.2843 0.0
C752 C 0.91853 0.40283 0.31224 0.0
C753 C 0.87497 0.35946 0.56991 0.0
C754 C 0.87968 0.37284 0.60539 0.0
C755 C 0.87511 0.36116 0.50952 0.0
C756 C 0.87981 0.37631 0.48303 0.0
C757 C 0.8851 0.38953 0.51822 0.0
C758 C 0.885 0.38783 0.57882 0.0
C759 C 0.87877 0.37842 0.41874 0.0
C760 C 0.89342 0.38304 0.38853 0.0
C761 C 0.86356 0.37525 0.38706 0.0
C762 C 0.84741 0.37122 0.41654 0.0
C763 C 0.84091 0.38192 0.45842 0.0
C764 C 0.82588 0.3779 0.48693 0.0
C765 C 0.81714 0.36328 0.47354 0.0
C766 C 0.82339 0.35265 0.43156 0.0
C767 C 0.83844 0.3566 0.403 0.0
H768 H 0.8055 0.36022 0.49558 0.0
H769 H 0.95182 0.39915 0.22112 0.0
H770 H 0.35868 0.15387 0.4018 0.0
H771 H 0.35726 0.15784 0.29635 0.0
H772 H 0.38953 0.11496 0.27597 0.0
H773 H 0.39146 0.11129 0.38089 0.0
H774 H 0.39923 0.13845 0.20546 0.0
H775 H 0.34498 0.11416 0.25261 0.0
H776 H 0.31761 0.1124 0.30295 0.0
H777 H 0.30292 0.15998 0.2305 0.0
H778 H 0.3303 0.16212 0.1803 0.0
H779 H 0.38372 0.1216 0.90889 0.0
H780 H 0.3854 0.12038 0.01468 0.0
H781 H 0.35426 0.16447 0.02267 0.0
H782 H 0.35218 0.16554 0.91691 0.0
H783 H 0.344 0.14203 0.09941 0.0
H784 H 0.39799 0.16552 0.04846 0.0
H785 H 0.42529 0.16686 0.99757 0.0
H786 H 0.44045 0.12029 0.07681 0.0
H787 H 0.41314 0.11857 0.1276 0.0
C788 C 0.36548 0.14531 0.37478 0.0
C789 C 0.37517 0.13226 0.39976 0.0
C790 C 0.3646 0.14754 0.31447 0.0
C791 C 0.37311 0.13657 0.27797 0.0
C792 C 0.38287 0.12362 0.30303 0.0
C793 C 0.38392 0.12151 0.36316 0.0
C794 C 0.372 0.13849 0.2137 0.0
C795 C 0.38714 0.13905 0.18229 0.0
C796 C 0.35625 0.1397 0.18329 0.0
C797 C 0.33975 0.13838 0.2132 0.0
C798 C 0.33595 0.1243 0.24775 0.0
C799 C 0.32043 0.12322 0.2762 0.0
C800 C 0.30855 0.13609 0.27005 0.0
C801 C 0.31214 0.15003 0.23529 0.0
C802 C 0.32765 0.15118 0.2068 0.0
C803 C 0.37727 0.13108 0.93312 0.0
C804 C 0.36784 0.14369 0.90438 0.0
C805 C 0.37831 0.1304 0.99368 0.0
C806 C 0.37015 0.14247 0.02678 0.0
C807 C 0.36068 0.15504 0.99815 0.0
C808 C 0.35954 0.15565 0.93761 0.0
C809 C 0.37123 0.1418 0.09122 0.0
C810 C 0.35609 0.1415 0.12263 0.0
C811 C 0.38698 0.14077 0.12164 0.0
C812 C 0.40346 0.14185 0.09147 0.0
C813 C 0.4071 0.15552 0.05474 0.0
C814 C 0.42258 0.15635 0.02596 0.0
C815 C 0.43458 0.14365 0.03385 0.0
C816 C 0.43114 0.13011 0.07069 0.0
C817 C 0.41567 0.12921 0.09954 0.0
H818 H 0.44655 0.14432 0.01151 0.0
H819 H 0.29654 0.13523 0.29212 0.0
H820 H 0.62282 0.59992 0.08289 0.0
H821 H 0.62218 0.59699 0.97746 0.0
H822 H 0.627 0.65025 0.95587 0.0
H823 H 0.62766 0.65331 0.06112 0.0
H824 H 0.6031 0.63698 0.88093 0.0
H825 H 0.66068 0.62665 0.94112 0.0
H826 H 0.68351 0.61305 0.99894 0.0
H827 H 0.6699 0.56569 0.92802 0.0
H828 H 0.64667 0.57894 0.87083 0.0
H829 H 0.62743 0.64009 0.58604 0.0
H830 H 0.62758 0.64275 0.69145 0.0
H831 H 0.62332 0.58939 0.71122 0.0
H832 H 0.62321 0.5866 0.60581 0.0
H833 H 0.64687 0.60257 0.78722 0.0
H834 H 0.58908 0.61313 0.72754 0.0
H835 H 0.56619 0.62692 0.67047 0.0
H836 H 0.58063 0.67422 0.7402 0.0
H837 H 0.60379 0.66074 0.79705 0.0
C838 C 0.62361 0.61103 0.05573 0.0
C839 C 0.62535 0.62685 0.08044 0.0
C840 C 0.62332 0.60932 0.99549 0.0
C841 C 0.62471 0.62339 0.95883 0.0
C842 C 0.62594 0.63923 0.98335 0.0
C843 C 0.62637 0.64094 0.04354 0.0
C844 C 0.62524 0.62159 0.89493 0.0
C845 C 0.61279 0.62962 0.86037 0.0
C846 C 0.63771 0.61175 0.86823 0.0
C847 C 0.65179 0.60377 0.90214 0.0
C848 C 0.66244 0.61331 0.93822 0.0
C849 C 0.67548 0.60568 0.97082 0.0
C850 C 0.67815 0.58853 0.96717 0.0
C851 C 0.6678 0.57898 0.93085 0.0
C852 C 0.65468 0.58654 0.89836 0.0
C853 C 0.62659 0.62891 0.61276 0.0
C854 C 0.62525 0.61313 0.58743 0.0
C855 C 0.62662 0.63046 0.67303 0.0
C856 C 0.6253 0.61628 0.70922 0.0
C857 C 0.62433 0.6005 0.68413 0.0
C858 C 0.62421 0.59893 0.62384 0.0
C859 C 0.62471 0.61795 0.7732 0.0
C860 C 0.63717 0.60991 0.80778 0.0
C861 C 0.61227 0.62782 0.79995 0.0
C862 C 0.59828 0.63595 0.76611 0.0
C863 C 0.58747 0.62649 0.73036 0.0
C864 C 0.57443 0.63425 0.6981 0.0
C865 C 0.57199 0.65144 0.70159 0.0
C866 C 0.58256 0.6609 0.73748 0.0
C867 C 0.59563 0.65321 0.76976 0.0
H868 H 0.56189 0.65742 0.67658 0.0
H869 H 0.68826 0.58264 0.99242 0.0
H870 H 0.15785 0.89197 0.40779 0.0
H871 H 0.1568 0.89019 0.5135 0.0
H872 H 0.11872 0.85168 0.50198 0.0
H873 H 0.11972 0.85334 0.39597 0.0
H874 H 0.11094 0.8761 0.58223 0.0
H875 H 0.15828 0.84116 0.53618 0.0
H876 H 0.1855 0.8346 0.49028 0.0
H877 H 0.21011 0.87362 0.58506 0.0
H878 H 0.18298 0.8806 0.63082 0.0
H879 H 0.11319 0.85501 0.88135 0.0
H880 H 0.11471 0.85288 0.77599 0.0
H881 H 0.15766 0.88632 0.77518 0.0
H882 H 0.15653 0.88811 0.8805 0.0
H883 H 0.16265 0.86294 0.70016 0.0
H884 H 0.11636 0.89954 0.7408 0.0
H885 H 0.0895 0.90789 0.78557 0.0
H886 H 0.06334 0.868 0.70028 0.0
H887 H 0.09012 0.85927 0.65561 0.0
C888 C 0.14921 0.88314 0.42763 0.0
C889 C 0.13888 0.87278 0.39333 0.0
C890 C 0.14868 0.88209 0.48812 0.0
C891 C 0.13779 0.87069 0.51567 0.0
C892 C 0.12724 0.86053 0.48163 0.0
C893 C 0.12787 0.86147 0.42105 0.0
C894 C 0.13741 0.86946 0.58 0.0
C895 C 0.12217 0.87295 0.60805 0.0
C896 C 0.15218 0.86579 0.61369 0.0
C897 C 0.16855 0.8615 0.58657 0.0
C898 C 0.16947 0.84843 0.54691 0.0
C899 C 0.18489 0.84462 0.52095 0.0
C900 C 0.19952 0.85371 0.53467 0.0
C901 C 0.19876 0.8666 0.57445 0.0
C902 C 0.18337 0.87048 0.60043 0.0
C903 C 0.12307 0.86177 0.85882 0.0
C904 C 0.13468 0.8718 0.88944 0.0
C905 C 0.12387 0.86062 0.79846 0.0
C906 C 0.1361 0.8697 0.76729 0.0
C907 C 0.14808 0.87923 0.79805 0.0
C908 C 0.1474 0.88025 0.85841 0.0
C909 C 0.13617 0.86968 0.70267 0.0
C910 C 0.15137 0.86597 0.67447 0.0
C911 C 0.12141 0.87338 0.66881 0.0
C912 C 0.10528 0.87864 0.69537 0.0
C913 C 0.1049 0.89248 0.73193 0.0
C914 C 0.08969 0.89729 0.75724 0.0
C915 C 0.07473 0.88845 0.74591 0.0
C916 C 0.07495 0.87481 0.7091 0.0
C917 C 0.09013 0.86993 0.68375 0.0
H918 H 0.06297 0.89219 0.76554 0.0
H919 H 0.21145 0.85074 0.51462 0.0
H920 H 0.8972 0.59668 0.86671 0.0
H921 H 0.89492 0.60276 0.76316 0.0
H922 H 0.86212 0.64446 0.7964 0.0
H923 H 0.86398 0.63814 0.90059 0.0
H924 H 0.84999 0.62717 0.70819 0.0
H925 H 0.90415 0.65064 0.75715 0.0
H926 H 0.93292 0.65101 0.80076 0.0
H927 H 0.94767 0.61045 0.69356 0.0
H928 H 0.91891 0.60984 0.64928 0.0
H929 H 0.85469 0.66171 0.42346 0.0
H930 H 0.85682 0.65722 0.5282 0.0
H931 H 0.88902 0.61454 0.50312 0.0
H932 H 0.88728 0.61919 0.39819 0.0
H933 H 0.90137 0.63335 0.58785 0.0
H934 H 0.84646 0.61058 0.53795 0.0
H935 H 0.81765 0.61127 0.49451 0.0
H936 H 0.80414 0.65154 0.60476 0.0
H937 H 0.83299 0.65126 0.64832 0.0
C938 C 0.88957 0.60723 0.85218 0.0
C939 C 0.88085 0.61701 0.89199 0.0
C940 C 0.88833 0.61072 0.79284 0.0
C941 C 0.87857 0.62424 0.77195 0.0
C942 C 0.86977 0.634 0.81154 0.0
C943 C 0.87089 0.63041 0.87105 0.0
C944 C 0.87736 0.62793 0.7087 0.0
C945 C 0.86122 0.62878 0.68201 0.0
C946 C 0.892 0.62971 0.67427 0.0
C947 C 0.90935 0.63011 0.70029 0.0
C948 C 0.91351 0.64174 0.74311 0.0
C949 C 0.92982 0.642 0.76792 0.0
C950 C 0.94211 0.6307 0.75021 0.0
C951 C 0.93813 0.61918 0.70732 0.0
C952 C 0.92184 0.61891 0.68222 0.0
C953 C 0.8622 0.65134 0.44015 0.0
C954 C 0.87077 0.64077 0.40243 0.0
C955 C 0.86335 0.64875 0.5001 0.0
C956 C 0.87289 0.63541 0.52356 0.0
C957 C 0.88156 0.62491 0.48601 0.0
C958 C 0.88051 0.62755 0.42603 0.0
C959 C 0.874 0.63249 0.58725 0.0
C960 C 0.89013 0.63178 0.61402 0.0
C961 C 0.85934 0.63095 0.62175 0.0
C962 C 0.84193 0.631 0.59602 0.0
C963 C 0.83738 0.61966 0.55267 0.0
C964 C 0.82104 0.61996 0.52804 0.0
C965 C 0.80907 0.63146 0.54675 0.0
C966 C 0.81343 0.64265 0.59026 0.0
C967 C 0.82977 0.64242 0.61496 0.0
H968 H 0.79643 0.63168 0.52763 0.0
H969 H 0.95473 0.6309 0.76958 0.0
H970 H 0.11 0.11657 0.64459 0.0
H971 H 0.10826 0.11357 0.5393 0.0
H972 H 0.13561 0.15976 0.51663 0.0
H973 H 0.13711 0.16301 0.6215 0.0
H974 H 0.11037 0.15793 0.43916 0.0
H975 H 0.15548 0.1219 0.50632 0.0
H976 H 0.16845 0.0994 0.56615 0.0
H977 H 0.13325 0.06418 0.49394 0.0
H978 H 0.1199 0.08654 0.4343 0.0
H979 H 0.13621 0.1484 0.14856 0.0
H980 H 0.13615 0.15129 0.25383 0.0
H981 H 0.10815 0.10529 0.27054 0.0
H982 H 0.10841 0.10215 0.16542 0.0
H983 H 0.13304 0.10675 0.35102 0.0
H984 H 0.08844 0.14327 0.28172 0.0
H985 H 0.07606 0.16609 0.22187 0.0
H986 H 0.11115 0.20073 0.29798 0.0
H987 H 0.12389 0.17807 0.35772 0.0
C988 C 0.11551 0.12616 0.61719 0.0
C989 C 0.12376 0.14 0.64157 0.0
C990 C 0.11459 0.12439 0.55697 0.0
C991 C 0.12203 0.13632 0.51997 0.0
C992 C 0.1298 0.15038 0.5442 0.0
C993 C 0.13068 0.15219 0.6043 0.0
C994 C 0.12207 0.13405 0.45609 0.0
C995 C 0.11549 0.14681 0.4199 0.0
C996 C 0.12848 0.11942 0.43083 0.0
C997 C 0.13658 0.10593 0.46628 0.0
C998 C 0.15042 0.10938 0.50351 0.0
C999 C 0.15786 0.09665 0.53735 0.0
C1000 C 0.15165 0.08038 0.53395 0.0
C1001 C 0.13803 0.07679 0.49659 0.0
C1002 C 0.13053 0.08949 0.46273 0.0
C1003 C 0.13007 0.13887 0.1746 0.0
C1004 C 0.12226 0.12507 0.14845 0.0
C1005 C 0.12998 0.14058 0.23482 0.0
C1006 C 0.12194 0.12862 0.27015 0.0
C1007 C 0.1144 0.11469 0.24423 0.0
C1008 C 0.11453 0.11294 0.18404 0.0
C1009 C 0.12136 0.13064 0.33409 0.0
C1010 C 0.12785 0.11784 0.37029 0.0
C1011 C 0.11496 0.14527 0.35935 0.0
C1012 C 0.10721 0.15894 0.32381 0.0
C1013 C 0.09359 0.15573 0.2854 0.0
C1014 C 0.0865 0.16864 0.25154 0.0
C1015 C 0.09284 0.18484 0.25602 0.0
C1016 C 0.10626 0.18817 0.29451 0.0
C1017 C 0.11341 0.1753 0.32842 0.0
H1018 H 0.08734 0.19482 0.22976 0.0
H1019 H 0.15742 0.07053 0.56017 0.0
H1020 H 0.65052 0.36159 0.37636 0.0
H1021 H 0.65365 0.35594 0.27331 0.0
H1022 H 0.60556 0.37991 0.23612 0.0
H1023 H 0.60222 0.38546 0.339 0.0
H1024 H 0.60928 0.35181 0.17355 0.0
H1025 H 0.64203 0.40093 0.21674 0.0
H1026 H 0.66373 0.41727 0.26917 0.0
H1027 H 0.70248 0.38334 0.21653 0.0
H1028 H 0.68096 0.36666 0.16439 0.0
H1029 H 0.61641 0.37348 0.87706 0.0
H1030 H 0.61375 0.37381 0.98221 0.0
H1031 H 0.66252 0.34968 0.00217 0.0
H1032 H 0.66539 0.34945 0.89678 0.0
H1033 H 0.65946 0.37572 0.07449 0.0
H1034 H 0.62647 0.32782 0.02414 0.0
H1035 H 0.60449 0.3122 0.97045 0.0
H1036 H 0.56587 0.34434 0.03549 0.0
H1037 H 0.58765 0.36031 0.08891 0.0
C1038 C 0.64052 0.36551 0.34635 0.0
C1039 C 0.62619 0.3741 0.36578 0.0
C1040 C 0.64236 0.36232 0.28747 0.0
C1041 C 0.62994 0.36772 0.24706 0.0
C1042 C 0.6153 0.37568 0.26662 0.0
C1043 C 0.61345 0.37888 0.32543 0.0
C1044 C 0.63249 0.36574 0.18413 0.0
C1045 C 0.62018 0.35713 0.15175 0.0
C1046 C 0.6469 0.37241 0.15604 0.0
C1047 C 0.65986 0.38244 0.18723 0.0
C1048 C 0.65516 0.39687 0.21675 0.0
C1049 C 0.66742 0.40621 0.24634 0.0
C1050 C 0.68446 0.40132 0.24633 0.0
C1051 C 0.68927 0.3871 0.21659 0.0
C1052 C 0.67705 0.3777 0.18699 0.0
C1053 C 0.62657 0.3682 0.90373 0.0
C1054 C 0.6411 0.3614 0.87854 0.0
C1055 C 0.62499 0.36833 0.96384 0.0
C1056 C 0.63784 0.36157 0.99994 0.0
C1057 C 0.65243 0.3549 0.97502 0.0
C1058 C 0.65403 0.35475 0.91481 0.0
C1059 C 0.63618 0.36188 0.06374 0.0
C1060 C 0.64865 0.37022 0.09631 0.0
C1061 C 0.62188 0.35502 0.09192 0.0
C1062 C 0.60872 0.34535 0.06018 0.0
C1063 C 0.61331 0.33164 0.02667 0.0
C1064 C 0.60088 0.3227 0.99633 0.0
C1065 C 0.5838 0.32729 0.99947 0.0
C1066 C 0.57911 0.3408 0.03307 0.0
C1067 C 0.59149 0.34979 0.06344 0.0
H1068 H 0.5742 0.32037 0.97594 0.0
H1069 H 0.69394 0.40856 0.26925 0.0
H1070 H 0.34303 0.85179 0.04784 0.0
H1071 H 0.3457 0.85486 0.94287 0.0
H1072 H 0.39531 0.87688 0.96642 0.0
H1073 H 0.39262 0.87412 0.07149 0.0
H1074 H 0.37722 0.89388 0.88677 0.0
H1075 H 0.3904 0.83617 0.92434 0.0
H1076 H 0.38528 0.80782 0.96304 0.0
H1077 H 0.34013 0.80405 0.85705 0.0
H1078 H 0.34485 0.83249 0.8183 0.0
H1079 H 0.40647 0.88889 0.6016 0.0
H1080 H 0.40338 0.88378 0.70539 0.0
H1081 H 0.35338 0.86333 0.67496 0.0
H1082 H 0.35647 0.86818 0.57059 0.0
H1083 H 0.37089 0.84544 0.75742 0.0
H1084 H 0.35777 0.90297 0.71938 0.0
H1085 H 0.36282 0.93132 0.68044 0.0
H1086 H 0.40772 0.93543 0.78748 0.0
H1087 H 0.40307 0.907 0.82648 0.0
C1088 C 0.35451 0.8573 0.03074 0.0
C1089 C 0.36764 0.86266 0.0681 0.0
C1090 C 0.35605 0.85898 0.97066 0.0
C1091 C 0.37081 0.86589 0.94668 0.0
C1092 C 0.38382 0.87147 0.98391 0.0
C1093 C 0.38227 0.86986 0.04399 0.0
C1094 C 0.37266 0.86746 0.88285 0.0
C1095 C 0.37606 0.88324 0.85861 0.0
C1096 C 0.3707 0.85366 0.84585 0.0
C1097 C 0.36789 0.83652 0.86885 0.0
C1098 C 0.37931 0.82935 0.90961 0.0
C1099 C 0.37649 0.81325 0.9315 0.0
C1100 C 0.36236 0.80415 0.91262 0.0
C1101 C 0.35105 0.81112 0.87169 0.0
C1102 C 0.3538 0.82722 0.84971 0.0
C1103 C 0.39486 0.88316 0.6168 0.0
C1104 C 0.38165 0.87908 0.5778 0.0
C1105 C 0.39309 0.88031 0.67624 0.0
C1106 C 0.37802 0.87347 0.69804 0.0
C1107 C 0.36509 0.8687 0.65909 0.0
C1108 C 0.36687 0.8715 0.59946 0.0
C1109 C 0.3756 0.87182 0.76155 0.0
C1110 C 0.37205 0.85606 0.78566 0.0
C1111 C 0.3774 0.88564 0.7985 0.0
C1112 C 0.38016 0.9028 0.77546 0.0
C1113 C 0.36879 0.90987 0.73432 0.0
C1114 C 0.37157 0.92596 0.71227 0.0
C1115 C 0.3856 0.93515 0.73137 0.0
C1116 C 0.39686 0.92829 0.77268 0.0
C1117 C 0.39416 0.91219 0.79481 0.0
H1118 H 0.38773 0.94761 0.71425 0.0
H1119 H 0.3602 0.79169 0.92963 0.0
H1120 H 0.14339 0.67184 0.08524 0.0
H1121 H 0.14335 0.70219 0.09342 0.0
H1122 H 0.10995 0.69823 0.23925 0.0
H1123 H 0.10991 0.66787 0.2315 0.0
H1124 H 0.09968 0.72246 0.15899 0.0
H1125 H 0.15084 0.70618 0.26213 0.0
H1126 H 0.17857 0.69216 0.27417 0.0
H1127 H 0.19843 0.72126 0.13284 0.0
H1128 H 0.17071 0.7353 0.1194 0.0
H1129 H 0.10638 0.80332 0.27149 0.0
H1130 H 0.107 0.77333 0.25695 0.0
H1131 H 0.14436 0.78001 0.12383 0.0
H1132 H 0.1441 0.81015 0.13911 0.0
H1133 H 0.15283 0.75443 0.19266 0.0
H1134 H 0.10238 0.77131 0.09011 0.0
H1135 H 0.07469 0.78526 0.07572 0.0
H1136 H 0.05347 0.75506 0.21184 0.0
H1137 H 0.08112 0.74108 0.22762 0.0
C1138 C 0.13603 0.67741 0.1191 0.0
C1139 C 0.12667 0.66739 0.15779 0.0
C1140 C 0.13607 0.69476 0.12381 0.0
C1141 C 0.12673 0.70247 0.16717 0.0
C1142 C 0.11725 0.69254 0.20548 0.0
C1143 C 0.1173 0.67518 0.2011 0.0
C1144 C 0.12676 0.72089 0.17245 0.0
C1145 C 0.11127 0.72945 0.16704 0.0
C1146 C 0.14195 0.73003 0.18118 0.0
C1147 C 0.15864 0.72166 0.18936 0.0
C1148 C 0.16107 0.70949 0.23329 0.0
C1149 C 0.17679 0.70156 0.24043 0.0
C1150 C 0.19024 0.70578 0.20419 0.0
C1151 C 0.18799 0.71798 0.16082 0.0
C1152 C 0.17228 0.72594 0.15345 0.0
C1153 C 0.11471 0.79846 0.23892 0.0
C1154 C 0.12514 0.80918 0.20627 0.0
C1155 C 0.11499 0.78127 0.23048 0.0
C1156 C 0.12554 0.77438 0.18865 0.0
C1157 C 0.13608 0.78503 0.15623 0.0
C1158 C 0.13587 0.80226 0.16489 0.0
C1159 C 0.1257 0.75606 0.17966 0.0
C1160 C 0.14123 0.74749 0.18433 0.0
C1161 C 0.11054 0.74691 0.16983 0.0
C1162 C 0.09387 0.75525 0.16038 0.0
C1163 C 0.09185 0.76773 0.11728 0.0
C1164 C 0.07615 0.77563 0.10883 0.0
C1165 C 0.06234 0.77107 0.14294 0.0
C1166 C 0.06419 0.75858 0.18549 0.0
C1167 C 0.07986 0.75066 0.19417 0.0
H1168 H 0.0502 0.7772 0.13632 0.0
H1169 H 0.2024 0.69963 0.20979 0.0
H1170 H 0.5666 0.89656 0.42787 0.0
H1171 H 0.53557 0.89854 0.42629 0.0
H1172 H 0.53353 0.87158 0.26631 0.0
H1173 H 0.56446 0.86964 0.26714 0.0
H1174 H 0.51217 0.89817 0.26324 0.0
H1175 H 0.52521 0.85204 0.39291 0.0
H1176 H 0.53913 0.83836 0.47758 0.0
H1177 H 0.51476 0.87251 0.5908 0.0
H1178 H 0.50087 0.88653 0.50665 0.0
H1179 H 0.42781 0.86861 0.25132 0.0
H1180 H 0.45864 0.87134 0.25761 0.0
H1181 H 0.45429 0.89793 0.41745 0.0
H1182 H 0.42334 0.89515 0.4119 0.0
H1183 H 0.47878 0.87404 0.42481 0.0
H1184 H 0.46393 0.91884 0.29494 0.0
H1185 H 0.44997 0.93226 0.20992 0.0
H1186 H 0.47765 0.90064 0.09674 0.0
H1187 H 0.49161 0.88686 0.18115 0.0
C1188 C 0.55957 0.89111 0.3922 0.0
C1189 C 0.56805 0.88288 0.34775 0.0
C1190 C 0.54183 0.8922 0.3915 0.0
C1191 C 0.53225 0.88508 0.34644 0.0
C1192 C 0.54068 0.87717 0.30148 0.0
C1193 C 0.55838 0.87602 0.30219 0.0
C1194 C 0.51341 0.88557 0.34631 0.0
C1195 C 0.50486 0.89278 0.29832 0.0
C1196 C 0.5039 0.87892 0.39282 0.0
C1197 C 0.51216 0.87045 0.44346 0.0
C1198 C 0.52293 0.85671 0.43583 0.0
C1199 C 0.5308 0.84888 0.48372 0.0
C1200 C 0.52788 0.8546 0.53952 0.0
C1201 C 0.51704 0.86812 0.54754 0.0
C1202 C 0.50916 0.876 0.49977 0.0
C1203 C 0.43335 0.87511 0.28779 0.0
C1204 C 0.42304 0.88169 0.33107 0.0
C1205 C 0.451 0.87671 0.29116 0.0
C1206 C 0.45875 0.885 0.33767 0.0
C1207 C 0.44856 0.89153 0.38111 0.0
C1208 C 0.43086 0.88997 0.37774 0.0
C1209 C 0.47753 0.88645 0.34133 0.0
C1210 C 0.48608 0.8796 0.38997 0.0
C1211 C 0.48704 0.89342 0.29538 0.0
C1212 C 0.47872 0.90172 0.24444 0.0
C1213 C 0.46695 0.91466 0.25195 0.0
C1214 C 0.45905 0.92235 0.20385 0.0
C1215 C 0.46289 0.91728 0.14797 0.0
C1216 C 0.47468 0.90454 0.14006 0.0
C1217 C 0.4826 0.8968 0.18802 0.0
H1218 H 0.45676 0.92325 0.11079 0.0
H1219 H 0.53398 0.84852 0.57655 0.0
H1220 H 0.39301 0.32536 0.58244 0.0
H1221 H 0.39325 0.29514 0.59251 0.0
H1222 H 0.34615 0.29679 0.68562 0.0
H1223 H 0.34641 0.3273 0.67848 0.0
H1224 H 0.36502 0.27537 0.73592 0.0
H1225 H 0.34924 0.2836 0.53805 0.0
H1226 H 0.35091 0.29508 0.43854 0.0
H1227 H 0.39974 0.27221 0.419 0.0
H1228 H 0.39848 0.26078 0.51871 0.0
H1229 H 0.35337 0.18697 0.70256 0.0
H1230 H 0.34929 0.21699 0.68651 0.0
H1231 H 0.40262 0.22261 0.65092 0.0
H1232 H 0.40691 0.19267 0.66819 0.0
H1233 H 0.37783 0.23955 0.56907 0.0
H1234 H 0.39262 0.23295 0.77398 0.0
H1235 H 0.38861 0.22078 0.87163 0.0
H1236 H 0.3377 0.23997 0.87334 0.0
H1237 H 0.34134 0.25205 0.77526 0.0
C1238 C 0.38262 0.3193 0.60472 0.0
C1239 C 0.3696 0.32872 0.62923 0.0
C1240 C 0.38271 0.30196 0.61016 0.0
C1241 C 0.3695 0.29354 0.63858 0.0
C1242 C 0.35646 0.30294 0.66323 0.0
C1243 C 0.35658 0.32037 0.65898 0.0
C1244 C 0.36968 0.27501 0.64407 0.0
C1245 C 0.36751 0.26758 0.69906 0.0
C1246 C 0.37305 0.26469 0.59627 0.0
C1247 C 0.37382 0.27143 0.53606 0.0
C1248 C 0.36038 0.2811 0.51267 0.0
C1249 C 0.36125 0.28759 0.4562 0.0
C1250 C 0.37544 0.28441 0.42251 0.0
C1251 C 0.38877 0.27468 0.44517 0.0
C1252 C 0.38797 0.26817 0.50163 0.0
C1253 C 0.36421 0.19458 0.69093 0.0
C1254 C 0.38048 0.1875 0.68679 0.0
C1255 C 0.36185 0.21171 0.68192 0.0
C1256 C 0.37567 0.22196 0.66768 0.0
C1257 C 0.39182 0.21486 0.66184 0.0
C1258 C 0.39425 0.19779 0.67193 0.0
C1259 C 0.37341 0.24019 0.66064 0.0
C1260 C 0.37518 0.24747 0.60547 0.0
C1261 C 0.36929 0.25032 0.70787 0.0
C1262 C 0.36719 0.24324 0.76707 0.0
C1263 C 0.38053 0.23445 0.79498 0.0
C1264 C 0.37833 0.22759 0.85044 0.0
C1265 C 0.3629 0.22955 0.8786 0.0
C1266 C 0.34964 0.23843 0.85143 0.0
C1267 C 0.35177 0.2453 0.79594 0.0
H1268 H 0.36122 0.22423 0.92153 0.0
H1269 H 0.37609 0.28945 0.37882 0.0
H1270 H 0.9337 0.12692 0.79613 0.0
H1271 H 0.96463 0.12873 0.80972 0.0
H1272 H 0.95898 0.12235 0.99418 0.0
H1273 H 0.92811 0.1201 0.981 0.0
H1274 H 0.97979 0.15155 0.94997 0.0
H1275 H 0.97302 0.09164 0.93723 0.0
H1276 H 0.96311 0.06598 0.89008 0.0
H1277 H 0.99256 0.07816 0.74019 0.0
H1278 H 0.00244 0.10404 0.78616 0.0
H1279 H 0.06415 0.14306 0.04921 0.0
H1280 H 0.0338 0.13983 0.02984 0.0
H1281 H 0.04407 0.12794 0.85213 0.0
H1282 H 0.07464 0.13039 0.87224 0.0
H1283 H 0.02053 0.1085 0.88768 0.0
H1284 H 0.02816 0.16724 0.8949 0.0
H1285 H 0.0377 0.1941 0.93429 0.0
H1286 H 0.00649 0.18632 0.08322 0.0
H1287 H 0.99694 0.1593 0.0451 0.0
C1288 C 0.93906 0.12577 0.83954 0.0
C1289 C 0.92847 0.12333 0.8875 0.0
C1290 C 0.9567 0.12678 0.84717 0.0
C1291 C 0.96401 0.12568 0.90291 0.0
C1292 C 0.95352 0.12322 0.95084 0.0
C1293 C 0.93592 0.12185 0.94317 0.0
C1294 C 0.98259 0.12754 0.91142 0.0
C1295 C 0.98875 0.14209 0.93708 0.0
C1296 C 0.99418 0.11545 0.89237 0.0
C1297 C 0.98831 0.09987 0.86486 0.0
C1298 C 0.97725 0.08893 0.89398 0.0
C1299 C 0.97167 0.07433 0.86753 0.0
C1300 C 0.97716 0.07047 0.8121 0.0
C1301 C 0.98829 0.08118 0.78308 0.0
C1302 C 0.99389 0.09581 0.80933 0.0
C1303 C 0.05995 0.13981 0.00593 0.0
C1304 C 0.07177 0.13709 0.96212 0.0
C1305 C 0.04256 0.13805 0.99478 0.0
C1306 C 0.03653 0.134 0.93913 0.0
C1307 C 0.04835 0.13113 0.89537 0.0
C1308 C 0.06582 0.13258 0.90683 0.0
C1309 C 0.01793 0.13252 0.92716 0.0
C1310 C 0.0117 0.11807 0.90057 0.0
C1311 C 0.00626 0.1449 0.94426 0.0
C1312 C 0.01195 0.16116 0.96736 0.0
C1313 C 0.02343 0.1712 0.93625 0.0
C1314 C 0.02882 0.18646 0.95832 0.0
C1315 C 0.02273 0.19189 0.01129 0.0
C1316 C 0.01121 0.18209 0.04223 0.0
C1317 C 0.00579 0.1668 0.02038 0.0
H1318 H 0.02692 0.20372 0.0283 0.0
H1319 H 0.97283 0.05916 0.79169 0.0
H1320 H 0.09118 0.31556 0.79501 0.0
H1321 H 0.09446 0.28553 0.80772 0.0
H1322 H 0.1347 0.29326 0.93359 0.0
H1323 H 0.13175 0.32349 0.92001 0.0
H1324 H 0.14347 0.26968 0.86141 0.0
H1325 H 0.09446 0.28027 0.974 0.0
H1326 H 0.06605 0.29139 0.99488 0.0
H1327 H 0.04412 0.26167 0.86 0.0
H1328 H 0.07245 0.25055 0.8377 0.0
H1329 H 0.14414 0.18439 0.95734 0.0
H1330 H 0.14138 0.21475 0.95386 0.0
H1331 H 0.10435 0.21106 0.8149 0.0
H1332 H 0.10702 0.1807 0.81797 0.0
H1333 H 0.09434 0.23256 0.89995 0.0
H1334 H 0.14395 0.22294 0.78587 0.0
H1335 H 0.17245 0.21168 0.7671 0.0
H1336 H 0.19325 0.23952 0.90876 0.0
H1337 H 0.16481 0.25077 0.92892 0.0
C1338 C 0.10067 0.31092 0.82573 0.0
C1339 C 0.11117 0.32197 0.85665 0.0
C1340 C 0.10248 0.2937 0.83314 0.0
C1341 C 0.11467 0.28707 0.87224 0.0
C1342 C 0.12517 0.29806 0.90328 0.0
C1343 C 0.12343 0.31534 0.89564 0.0
C1344 C 0.11669 0.26868 0.87928 0.0
C1345 C 0.13277 0.26161 0.87086 0.0
C1346 C 0.10269 0.25805 0.89052 0.0
C1347 C 0.08561 0.26469 0.90385 0.0
C1348 C 0.0836 0.27621 0.94848 0.0
C1349 C 0.06751 0.28249 0.96062 0.0
C1350 C 0.0533 0.27727 0.9287 0.0
C1351 C 0.05514 0.26572 0.88465 0.0
C1352 C 0.07122 0.25941 0.87228 0.0
C1353 C 0.13543 0.19002 0.92593 0.0
C1354 C 0.12582 0.18008 0.88786 0.0
C1355 C 0.1339 0.20739 0.92391 0.0
C1356 C 0.12273 0.21519 0.8839 0.0
C1357 C 0.11305 0.20531 0.84614 0.0
C1358 C 0.11464 0.18795 0.84784 0.0
C1359 C 0.12104 0.23364 0.88155 0.0
C1360 C 0.10503 0.24069 0.89087 0.0
C1361 C 0.13511 0.24424 0.87152 0.0
C1362 C 0.15222 0.23755 0.8593 0.0
C1363 C 0.15458 0.22655 0.81334 0.0
C1364 C 0.17072 0.22019 0.80238 0.0
C1365 C 0.18464 0.22485 0.83682 0.0
C1366 C 0.18245 0.23591 0.88218 0.0
C1367 C 0.16633 0.24229 0.89337 0.0
H1368 H 0.19713 0.21991 0.82827 0.0
H1369 H 0.04085 0.28215 0.93818 0.0
H1370 H 0.08978 0.88378 0.03031 0.0
H1371 H 0.05903 0.88663 0.01878 0.0
H1372 H 0.05394 0.88619 0.20484 0.0
H1373 H 0.0846 0.88215 0.21626 0.0
H1374 H 0.03076 0.86839 0.16495 0.0
H1375 H 0.04958 0.92306 0.1118 0.0
H1376 H 0.06656 0.94408 0.05919 0.0
H1377 H 0.04487 0.92809 0.89755 0.0
H1378 H 0.02791 0.90683 0.94912 0.0
H1379 H 0.94412 0.89379 0.15076 0.0
H1380 H 0.97492 0.89633 0.16516 0.0
H1381 H 0.98266 0.88186 0.98852 0.0
H1382 H 0.95193 0.87913 0.97384 0.0
H1383 H 0.00388 0.90904 0.02753 0.0
H1384 H 0.98634 0.85319 0.08615 0.0
H1385 H 0.96918 0.83319 0.14266 0.0
H1386 H 0.98851 0.85377 0.30108 0.0
H1387 H 0.0056 0.87406 0.24543 0.0
C1388 C 0.08208 0.88435 0.06869 0.0
C1389 C 0.08955 0.88274 0.12416 0.0
C1390 C 0.06449 0.88613 0.06212 0.0
C1391 C 0.05409 0.88699 0.11094 0.0
C1392 C 0.06162 0.88557 0.16643 0.0
C1393 C 0.07915 0.88329 0.17297 0.0
C1394 C 0.0353 0.8886 0.10423 0.0
C1395 C 0.02495 0.87754 0.1357 0.0
C1396 C 0.02757 0.90034 0.06545 0.0
C1397 C 0.03757 0.91327 0.03433 0.0
C1398 C 0.04849 0.92397 0.06501 0.0
C1399 C 0.05811 0.93593 0.03537 0.0
C1400 C 0.05682 0.93739 0.97506 0.0
C1401 C 0.04586 0.92694 0.94427 0.0
C1402 C 0.03623 0.91495 0.97369 0.0
C1403 C 0.95237 0.89135 0.11477 0.0
C1404 C 0.94563 0.8861 0.06132 0.0
C1405 C 0.96994 0.89278 0.12311 0.0
C1406 C 0.98101 0.88916 0.07799 0.0
C1407 C 0.97429 0.88471 0.02382 0.0
C1408 C 0.95675 0.88307 0.01564 0.0
C1409 C 0.99962 0.8889 0.08823 0.0
C1410 C 0.00984 0.90013 0.05727 0.0
C1411 C 0.00725 0.87755 0.12825 0.0
C1412 C 0.99709 0.86525 0.16164 0.0
C1413 C 0.98682 0.85354 0.13302 0.0
C1414 C 0.97713 0.84213 0.1649 0.0
C1415 C 0.97772 0.84224 0.22542 0.0
C1416 C 0.98804 0.85372 0.2542 0.0
C1417 C 0.99774 0.86517 0.22252 0.0
H1418 H 0.9702 0.8334 0.25003 0.0
H1419 H 0.06429 0.94665 0.9522 0.0
H1420 H 0.40133 0.66988 0.18317 0.0
H1421 H 0.40075 0.70021 0.18296 0.0
H1422 H 0.3781 0.69914 0.35205 0.0
H1423 H 0.3779 0.6686 0.3511 0.0
H1424 H 0.36261 0.72113 0.28818 0.0
H1425 H 0.42276 0.71116 0.32712 0.0
H1426 H 0.45131 0.69972 0.30971 0.0
H1427 H 0.45091 0.72173 0.1391 0.0
H1428 H 0.42251 0.73356 0.15564 0.0
H1429 H 0.37383 0.80884 0.3246 0.0
H1430 H 0.37465 0.77844 0.33568 0.0
H1431 H 0.3966 0.77475 0.16625 0.0
H1432 H 0.39633 0.80502 0.15583 0.0
H1433 H 0.41291 0.75531 0.23749 0.0
H1434 H 0.35372 0.76518 0.19519 0.0
H1435 H 0.32549 0.77767 0.20913 0.0
H1436 H 0.32346 0.75571 0.37983 0.0
H1437 H 0.35179 0.74326 0.36718 0.0
C1438 C 0.39636 0.67608 0.22059 0.0
C1439 C 0.38973 0.66684 0.26731 0.0
C1440 C 0.39615 0.69348 0.22061 0.0
C1441 C 0.38976 0.70207 0.26809 0.0
C1442 C 0.38319 0.69284 0.315 0.0
C1443 C 0.38309 0.67539 0.3145 0.0
C1444 C 0.38922 0.72063 0.26741 0.0
C1445 C 0.37371 0.7286 0.27816 0.0
C1446 C 0.40352 0.73047 0.25263 0.0
C1447 C 0.42047 0.72312 0.24247 0.0
C1448 C 0.42872 0.71347 0.28578 0.0
C1449 C 0.44488 0.70693 0.27611 0.0
C1450 C 0.45284 0.70985 0.22325 0.0
C1451 C 0.44472 0.71944 0.18 0.0
C1452 C 0.42864 0.72614 0.18958 0.0
C1453 C 0.37878 0.80152 0.2897 0.0
C1454 C 0.38505 0.80933 0.2394 0.0
C1455 C 0.37917 0.78414 0.29594 0.0
C1456 C 0.38553 0.77425 0.25155 0.0
C1457 C 0.39168 0.78208 0.2012 0.0
C1458 C 0.3915 0.79941 0.19527 0.0
C1459 C 0.3863 0.75578 0.2577 0.0
C1460 C 0.40185 0.74784 0.24802 0.0
C1461 C 0.372 0.746 0.27285 0.0
C1462 C 0.35495 0.75344 0.28047 0.0
C1463 C 0.34731 0.76312 0.23587 0.0
C1464 C 0.33128 0.77017 0.24351 0.0
C1465 C 0.32271 0.76752 0.2954 0.0
C1466 C 0.33013 0.75777 0.3397 0.0
C1467 C 0.34616 0.7507 0.3323 0.0
H1468 H 0.31029 0.77299 0.30122 0.0
H1469 H 0.46533 0.70474 0.21592 0.0
H1470 H 0.55516 0.15388 0.50811 0.0
H1471 H 0.525 0.15228 0.52935 0.0
H1472 H 0.53494 0.11301 0.65527 0.0
H1473 H 0.56532 0.11428 0.63319 0.0
H1474 H 0.50732 0.10597 0.5915 0.0
H1475 H 0.5265 0.15277 0.69831 0.0
H1476 H 0.54117 0.17947 0.71484 0.0
H1477 H 0.5083 0.2037 0.58931 0.0
H1478 H 0.49358 0.17709 0.5714 0.0
H1479 H 0.42392 0.11369 0.70996 0.0
H1480 H 0.45484 0.11352 0.69963 0.0
H1481 H 0.45047 0.14897 0.55769 0.0
H1482 H 0.41958 0.14919 0.56747 0.0
H1483 H 0.4756 0.15726 0.6388 0.0
H1484 H 0.45755 0.10939 0.52978 0.0
H1485 H 0.44287 0.08254 0.51629 0.0
H1486 H 0.47376 0.06019 0.65156 0.0
H1487 H 0.48845 0.087 0.66644 0.0
C1488 C 0.55099 0.1449 0.54044 0.0
C1489 C 0.56269 0.13427 0.56924 0.0
C1490 C 0.53371 0.14405 0.55272 0.0
C1491 C 0.52771 0.13273 0.59467 0.0
C1492 C 0.53929 0.1219 0.62294 0.0
C1493 C 0.55664 0.12267 0.61038 0.0
C1494 C 0.50931 0.13223 0.60826 0.0
C1495 C 0.50045 0.11713 0.60287 0.0
C1496 C 0.50026 0.14683 0.62239 0.0
C1497 C 0.50903 0.16289 0.63318 0.0
C1498 C 0.52248 0.16377 0.67392 0.0
C1499 C 0.53079 0.17889 0.68358 0.0
C1500 C 0.52569 0.19327 0.65306 0.0
C1501 C 0.51224 0.19255 0.61289 0.0
C1502 C 0.5039 0.17746 0.60301 0.0
C1503 C 0.42953 0.12145 0.67651 0.0
C1504 C 0.41927 0.13144 0.63947 0.0
C1505 C 0.44719 0.12129 0.67059 0.0
C1506 C 0.45492 0.13117 0.62771 0.0
C1507 C 0.44474 0.14126 0.59107 0.0
C1508 C 0.42708 0.14132 0.5966 0.0
C1509 C 0.47364 0.13109 0.62105 0.0
C1510 C 0.48253 0.14609 0.62788 0.0
C1511 C 0.48272 0.11638 0.6088 0.0
C1512 C 0.47397 0.10024 0.59966 0.0
C1513 C 0.46111 0.09879 0.55699 0.0
C1514 C 0.45281 0.08357 0.54903 0.0
C1515 C 0.45735 0.06968 0.58316 0.0
C1516 C 0.47024 0.07097 0.62522 0.0
C1517 C 0.47856 0.08617 0.63341 0.0
H1518 H 0.45091 0.05791 0.57693 0.0
H1519 H 0.53214 0.20496 0.66061 0.0
H1520 H 0.90311 0.19662 0.72144 0.0
H1521 H 0.90079 0.22667 0.73352 0.0
H1522 H 0.86635 0.21874 0.87488 0.0
H1523 H 0.86831 0.1886 0.86225 0.0
H1524 H 0.85536 0.24347 0.80457 0.0
H1525 H 0.90822 0.22896 0.89964 0.0
H1526 H 0.93676 0.21638 0.90765 0.0
H1527 H 0.95387 0.24781 0.7679 0.0
H1528 H 0.92535 0.26043 0.75853 0.0
H1529 H 0.86054 0.32536 0.91584 0.0
H1530 H 0.86222 0.29519 0.90473 0.0
H1531 H 0.89582 0.30207 0.76045 0.0
H1532 H 0.89438 0.33225 0.77158 0.0
H1533 H 0.90712 0.27787 0.83372 0.0
H1534 H 0.85446 0.29221 0.73772 0.0
H1535 H 0.82602 0.30498 0.72909 0.0
H1536 H 0.8086 0.27406 0.8697 0.0
H1537 H 0.83702 0.26126 0.8797 0.0
C1538 C 0.89504 0.20124 0.75515 0.0
C1539 C 0.88597 0.19021 0.79112 0.0
C1540 C 0.89378 0.21844 0.76213 0.0
C1541 C 0.8836 0.22495 0.80568 0.0
C1542 C 0.87432 0.21398 0.8411 0.0
C1543 C 0.87549 0.19676 0.83393 0.0
C1544 C 0.88264 0.2432 0.81417 0.0
C1545 C 0.86665 0.25096 0.81179 0.0
C1546 C 0.89741 0.25303 0.82226 0.0
C1547 C 0.9146 0.24553 0.82806 0.0
C1548 C 0.91803 0.23311 0.87035 0.0
C1549 C 0.93421 0.22598 0.87517 0.0
C1550 C 0.94711 0.23126 0.83822 0.0
C1551 C 0.94386 0.24372 0.79645 0.0
C1552 C 0.9277 0.25087 0.79141 0.0
C1553 C 0.86829 0.32048 0.88172 0.0
C1554 C 0.8773 0.33123 0.84452 0.0
C1555 C 0.86918 0.30322 0.87531 0.0
C1556 C 0.879 0.29641 0.83138 0.0
C1557 C 0.88815 0.30709 0.79461 0.0
C1558 C 0.88728 0.32433 0.80099 0.0
C1559 C 0.87985 0.27812 0.82399 0.0
C1560 C 0.89582 0.27037 0.82661 0.0
C1561 C 0.86507 0.26831 0.81604 0.0
C1562 C 0.84792 0.27589 0.80983 0.0
C1563 C 0.8446 0.28822 0.76709 0.0
C1564 C 0.82848 0.29545 0.7619 0.0
C1565 C 0.81552 0.29037 0.79892 0.0
C1566 C 0.81865 0.278 0.8411 0.0
C1567 C 0.83477 0.27074 0.84651 0.0
H1568 H 0.80305 0.29599 0.79484 0.0
H1569 H 0.95963 0.22573 0.84201 0.0
H1570 H 0.58679 0.8042 0.21442 0.0
H1571 H 0.58973 0.77402 0.2253 0.0
H1572 H 0.63067 0.78072 0.3493 0.0
H1573 H 0.62798 0.81096 0.33808 0.0
H1574 H 0.63867 0.75755 0.27247 0.0
H1575 H 0.59131 0.76867 0.39297 0.0
H1576 H 0.56329 0.78007 0.41751 0.0
H1577 H 0.53952 0.75033 0.28623 0.0
H1578 H 0.56744 0.73892 0.26031 0.0
H1579 H 0.6404 0.67459 0.3871 0.0
H1580 H 0.63697 0.70477 0.37656 0.0
H1581 H 0.60035 0.69771 0.23816 0.0
H1582 H 0.6038 0.66746 0.24796 0.0
H1583 H 0.59007 0.72086 0.32225 0.0
H1584 H 0.638 0.70972 0.20292 0.0
H1585 H 0.66616 0.69817 0.1811 0.0
H1586 H 0.68902 0.72795 0.31407 0.0
H1587 H 0.66093 0.73949 0.33732 0.0
C1588 C 0.59638 0.79928 0.24424 0.0
C1589 C 0.60712 0.81002 0.2755 0.0
C1590 C 0.598 0.782 0.25055 0.0
C1591 C 0.61032 0.77509 0.28854 0.0
C1592 C 0.62107 0.78577 0.31977 0.0
C1593 C 0.61947 0.80306 0.31346 0.0
C1594 C 0.61219 0.75672 0.29479 0.0
C1595 C 0.62809 0.74956 0.28417 0.0
C1596 C 0.59831 0.74624 0.30883 0.0
C1597 C 0.58149 0.75307 0.32429 0.0
C1598 C 0.58013 0.76467 0.36899 0.0
C1599 C 0.56426 0.77111 0.38321 0.0
C1600 C 0.54964 0.76596 0.35334 0.0
C1601 C 0.55086 0.75433 0.30927 0.0
C1602 C 0.5667 0.74786 0.29482 0.0
C1603 C 0.63161 0.67943 0.35437 0.0
C1604 C 0.62239 0.6686 0.3183 0.0
C1605 C 0.62971 0.69668 0.34833 0.0
C1606 C 0.61846 0.70345 0.30642 0.0
C1607 C 0.60909 0.69271 0.27077 0.0
C1608 C 0.61113 0.67544 0.2763 0.0
C1609 C 0.61651 0.72176 0.29997 0.0
C1610 C 0.60061 0.72889 0.31056 0.0
C1611 C 0.63041 0.73222 0.28627 0.0
C1612 C 0.64733 0.72534 0.27228 0.0
C1613 C 0.649 0.71369 0.22788 0.0
C1614 C 0.66496 0.70717 0.21518 0.0
C1615 C 0.67936 0.71229 0.24629 0.0
C1616 C 0.67784 0.72398 0.29007 0.0
C1617 C 0.66191 0.73052 0.303 0.0
H1618 H 0.6917 0.70723 0.23638 0.0
H1619 H 0.53737 0.77096 0.36443 0.0
H1620 H 0.91171 0.69735 0.15958 0.0
H1621 H 0.90915 0.72765 0.1614 0.0
H1622 H 0.85952 0.72295 0.23681 0.0
H1623 H 0.8618 0.6926 0.23365 0.0
H1624 H 0.85888 0.7465 0.15693 0.0
H1625 H 0.89481 0.73376 0.3194 0.0
H1626 H 0.91903 0.72099 0.37269 0.0
H1627 H 0.95388 0.74826 0.26569 0.0
H1628 H 0.92986 0.76102 0.21117 0.0
H1629 H 0.85927 0.83437 0.22033 0.0
H1630 H 0.85906 0.80405 0.23752 0.0
H1631 H 0.90429 0.79937 0.13607 0.0
H1632 H 0.90448 0.82938 0.11814 0.0
H1633 H 0.90517 0.78081 0.24181 0.0
H1634 H 0.86824 0.79109 0.07414 0.0
H1635 H 0.84359 0.80389 0.0233 0.0
H1636 H 0.80998 0.78127 0.14651 0.0
H1637 H 0.83448 0.76851 0.19857 0.0
C1638 C 0.90024 0.70275 0.17649 0.0
C1639 C 0.88699 0.69256 0.19665 0.0
C1640 C 0.89883 0.72009 0.17784 0.0
C1641 C 0.88427 0.7276 0.20028 0.0
C1642 C 0.8709 0.71745 0.21954 0.0
C1643 C 0.87223 0.7001 0.21772 0.0
C1644 C 0.88297 0.74604 0.20287 0.0
C1645 C 0.86886 0.75397 0.17651 0.0
C1646 C 0.89601 0.75584 0.2281 0.0
C1647 C 0.91052 0.74825 0.2609 0.0
C1648 C 0.90764 0.73694 0.30696 0.0
C1649 C 0.92133 0.72972 0.33743 0.0
C1650 C 0.93798 0.73379 0.32251 0.0
C1651 C 0.94097 0.74511 0.27717 0.0
C1652 C 0.92732 0.75236 0.24651 0.0
C1653 C 0.8692 0.82686 0.20205 0.0
C1654 C 0.88181 0.83423 0.16754 0.0
C1655 C 0.86905 0.80958 0.21179 0.0
C1656 C 0.88163 0.79951 0.18783 0.0
C1657 C 0.89449 0.80693 0.15495 0.0
C1658 C 0.89451 0.82408 0.14451 0.0
C1659 C 0.8813 0.78115 0.19496 0.0
C1660 C 0.8951 0.77327 0.22314 0.0
C1661 C 0.86791 0.77141 0.17199 0.0
C1662 C 0.8532 0.77903 0.14065 0.0
C1663 C 0.8556 0.78898 0.0907 0.0
C1664 C 0.84166 0.79619 0.0616 0.0
C1665 C 0.82523 0.79344 0.08178 0.0
C1666 C 0.82271 0.78342 0.13101 0.0
C1667 C 0.83662 0.77619 0.16031 0.0
H1668 H 0.81445 0.79903 0.05918 0.0
H1669 H 0.94857 0.72818 0.34616 0.0
H1670 H 0.61922 0.18025 0.54659 0.0
H1671 H 0.62258 0.21038 0.54966 0.0
H1672 H 0.64963 0.20562 0.71314 0.0
H1673 H 0.646 0.17532 0.71108 0.0
H1674 H 0.62735 0.23053 0.71593 0.0
H1675 H 0.67077 0.21425 0.58646 0.0
H1676 H 0.68283 0.19993 0.50289 0.0
H1677 H 0.65001 0.22794 0.38713 0.0
H1678 H 0.63758 0.24226 0.47009 0.0
H1679 H 0.65219 0.31559 0.71012 0.0
H1680 H 0.65414 0.2852 0.70963 0.0
H1681 H 0.62505 0.28434 0.54973 0.0
H1682 H 0.62322 0.31474 0.54941 0.0
H1683 H 0.65091 0.26215 0.54892 0.0
H1684 H 0.60623 0.27684 0.67974 0.0
H1685 H 0.59424 0.2911 0.76357 0.0
H1686 H 0.62992 0.26595 0.87734 0.0
H1687 H 0.64228 0.2517 0.79402 0.0
C1688 C 0.62594 0.18555 0.58321 0.0
C1689 C 0.63243 0.1753 0.62845 0.0
C1690 C 0.62792 0.20282 0.58475 0.0
C1691 C 0.63662 0.21028 0.63112 0.0
C1692 C 0.64294 0.20014 0.67676 0.0
C1693 C 0.64088 0.18281 0.67545 0.0
C1694 C 0.63878 0.22869 0.63212 0.0
C1695 C 0.63279 0.23741 0.67987 0.0
C1696 C 0.64561 0.23773 0.58465 0.0
C1697 C 0.65316 0.22924 0.53457 0.0
C1698 C 0.66605 0.21728 0.54322 0.0
C1699 C 0.67296 0.20917 0.49595 0.0
C1700 C 0.66717 0.213 0.43975 0.0
C1701 C 0.65448 0.22498 0.43069 0.0
C1702 C 0.64751 0.23311 0.47782 0.0
C1703 C 0.64636 0.30897 0.67447 0.0
C1704 C 0.63743 0.31761 0.63 0.0
C1705 C 0.64742 0.29157 0.67443 0.0
C1706 C 0.6395 0.28247 0.63016 0.0
C1707 C 0.63121 0.2911 0.58445 0.0
C1708 C 0.63015 0.30849 0.5844 0.0
C1709 C 0.63929 0.26395 0.63235 0.0
C1710 C 0.64563 0.25523 0.5852 0.0
C1711 C 0.63282 0.2549 0.68042 0.0
C1712 C 0.6253 0.26335 0.73058 0.0
C1713 C 0.6116 0.27444 0.72258 0.0
C1714 C 0.60472 0.28251 0.77001 0.0
C1715 C 0.61134 0.27947 0.82573 0.0
C1716 C 0.62482 0.26831 0.83415 0.0
C1717 C 0.63176 0.26023 0.78685 0.0
H1718 H 0.60601 0.28574 0.86239 0.0
H1719 H 0.67253 0.2067 0.40321 0.0
H1720 H 0.92774 0.38962 0.87435 0.0
H1721 H 0.95879 0.39127 0.87112 0.0
H1722 H 0.96276 0.35318 0.00477 0.0
H1723 H 0.9318 0.35149 0.0085 0.0
H1724 H 0.98429 0.37947 0.02483 0.0
H1725 H 0.96954 0.34339 0.8674 0.0
H1726 H 0.95438 0.33557 0.77757 0.0
H1727 H 0.9766 0.37723 0.68743 0.0
H1728 H 0.99171 0.38545 0.777 0.0
H1729 H 0.07177 0.36013 0.99808 0.0
H1730 H 0.04077 0.3587 0.00196 0.0
H1731 H 0.03683 0.39344 0.8576 0.0
H1732 H 0.06776 0.39457 0.85236 0.0
H1733 H 0.01512 0.36898 0.84325 0.0
H1734 H 0.02995 0.40526 0.99919 0.0
H1735 H 0.04522 0.41341 0.08845 0.0
H1736 H 0.02286 0.37225 0.18097 0.0
H1737 H 0.00765 0.3637 0.092 0.0
C1738 C 0.93523 0.38159 0.90303 0.0
C1739 C 0.92731 0.37038 0.94153 0.0
C1740 C 0.95295 0.38252 0.90103 0.0
C1741 C 0.96305 0.37226 0.93744 0.0
C1742 C 0.95519 0.36121 0.97633 0.0
C1743 C 0.93749 0.36021 0.97818 0.0
C1744 C 0.98184 0.37298 0.93494 0.0
C1745 C 0.99107 0.377 0.98533 0.0
C1746 C 0.99061 0.37011 0.88305 0.0
C1747 C 0.98162 0.36513 0.82906 0.0
C1748 C 0.97109 0.35096 0.82854 0.0
C1749 C 0.96252 0.34644 0.77765 0.0
C1750 C 0.96449 0.35592 0.72686 0.0
C1751 C 0.97507 0.36991 0.72683 0.0
C1752 C 0.98364 0.3745 0.77763 0.0
C1753 C 0.0643 0.36749 0.96723 0.0
C1754 C 0.07223 0.37749 0.92499 0.0
C1755 C 0.04658 0.36671 0.96964 0.0
C1756 C 0.03647 0.37613 0.93052 0.0
C1757 C 0.04437 0.38606 0.88822 0.0
C1758 C 0.06206 0.38673 0.88542 0.0
C1759 C 0.01764 0.37553 0.93315 0.0
C1760 C 0.00838 0.37151 0.88278 0.0
C1761 C 0.00884 0.3785 0.985 0.0
C1762 C 0.01778 0.38375 0.03878 0.0
C1763 C 0.02837 0.39788 0.03848 0.0
C1764 C 0.03701 0.40258 0.08903 0.0
C1765 C 0.03505 0.39332 0.14031 0.0
C1766 C 0.02439 0.37939 0.14119 0.0
C1767 C 0.01575 0.37462 0.09073 0.0
H1768 H 0.04176 0.39697 0.17939 0.0
H1769 H 0.95784 0.35241 0.68751 0.0
H1770 H 0.42569 0.62315 0.45262 0.0
H1771 H 0.45667 0.62418 0.45988 0.0
H1772 H 0.46026 0.60119 0.29306 0.0
H1773 H 0.42919 0.59981 0.28589 0.0
H1774 H 0.48429 0.58882 0.37107 0.0
H1775 H 0.46401 0.64309 0.30655 0.0
H1776 H 0.44538 0.66753 0.31662 0.0
H1777 H 0.46883 0.67808 0.48124 0.0
H1778 H 0.48731 0.65345 0.47281 0.0
H1779 H 0.5715 0.61 0.32901 0.0
H1780 H 0.54068 0.60654 0.31742 0.0
H1781 H 0.53295 0.63495 0.47178 0.0
H1782 H 0.56353 0.63887 0.48245 0.0
H1783 H 0.51081 0.64441 0.3955 0.0
H1784 H 0.52923 0.5912 0.46843 0.0
H1785 H 0.54625 0.56543 0.47112 0.0
H1786 H 0.52615 0.55221 0.30408 0.0
H1787 H 0.50912 0.57803 0.30012 0.0
C1788 C 0.43303 0.61824 0.4175 0.0
C1789 C 0.4249 0.61155 0.36837 0.0
C1790 C 0.45078 0.61884 0.42172 0.0
C1791 C 0.46084 0.61301 0.37659 0.0
C1792 C 0.45279 0.60582 0.32836 0.0
C1793 C 0.43501 0.6051 0.32425 0.0
C1794 C 0.47967 0.61511 0.37866 0.0
C1795 C 0.49012 0.60099 0.37552 0.0
C1796 C 0.48729 0.63095 0.38598 0.0
C1797 C 0.47695 0.64635 0.38924 0.0
C1798 C 0.46518 0.65061 0.34492 0.0
C1799 C 0.45461 0.66447 0.35043 0.0
C1800 C 0.45588 0.67431 0.39968 0.0
C1801 C 0.46784 0.67041 0.44321 0.0
C1802 C 0.47836 0.65651 0.43809 0.0
C1803 C 0.56321 0.61551 0.36042 0.0
C1804 C 0.57002 0.62472 0.40664 0.0
C1805 C 0.54557 0.61345 0.35395 0.0
C1806 C 0.53438 0.62032 0.39409 0.0
C1807 C 0.54121 0.62955 0.44006 0.0
C1808 C 0.55877 0.63175 0.4462 0.0
C1809 C 0.51557 0.61808 0.38842 0.0
C1810 C 0.50507 0.63221 0.39067 0.0
C1811 C 0.50792 0.60222 0.38141 0.0
C1812 C 0.51805 0.58664 0.38369 0.0
C1813 C 0.52853 0.58286 0.43207 0.0
C1814 C 0.53817 0.56823 0.43386 0.0
C1815 C 0.53735 0.55721 0.38771 0.0
C1816 C 0.52681 0.56077 0.33975 0.0
C1817 C 0.51714 0.57539 0.33773 0.0
H1818 H 0.54483 0.5459 0.38917 0.0
H1819 H 0.4476 0.68495 0.40414 0.0
H1820 H 0.44728 0.36097 0.4549 0.0
H1821 H 0.47795 0.36252 0.47128 0.0
H1822 H 0.46991 0.37959 0.645 0.0
H1823 H 0.43916 0.37867 0.62803 0.0
H1824 H 0.49427 0.39676 0.59892 0.0
H1825 H 0.48205 0.33866 0.61612 0.0
H1826 H 0.47021 0.31154 0.58724 0.0
H1827 H 0.5013 0.31211 0.43607 0.0
H1828 H 0.51316 0.33936 0.46365 0.0
H1829 H 0.57906 0.37734 0.69976 0.0
H1830 H 0.54813 0.37667 0.68582 0.0
H1831 H 0.5544 0.37262 0.50139 0.0
H1832 H 0.58531 0.37357 0.51468 0.0
H1833 H 0.53125 0.34861 0.55604 0.0
H1834 H 0.54304 0.40764 0.54262 0.0
H1835 H 0.55504 0.43413 0.57717 0.0
H1836 H 0.52471 0.43056 0.72986 0.0
H1837 H 0.51272 0.4039 0.6966 0.0
C1838 C 0.45204 0.36502 0.49663 0.0
C1839 C 0.44083 0.36961 0.54031 0.0
C1840 C 0.46958 0.36583 0.50605 0.0
C1841 C 0.47625 0.37087 0.55976 0.0
C1842 C 0.46506 0.37563 0.60326 0.0
C1843 C 0.4475 0.37506 0.59356 0.0
C1844 C 0.4949 0.37134 0.57023 0.0
C1845 C 0.5023 0.38613 0.59033 0.0
C1846 C 0.50545 0.35755 0.55837 0.0
C1847 C 0.49838 0.34113 0.54169 0.0
C1848 C 0.48627 0.33307 0.5765 0.0
C1849 C 0.47957 0.31766 0.56039 0.0
C1850 C 0.48497 0.31012 0.50978 0.0
C1851 C 0.49711 0.31797 0.47523 0.0
C1852 C 0.50384 0.33339 0.49111 0.0
C1853 C 0.57385 0.37634 0.65623 0.0
C1854 C 0.5846 0.37556 0.60828 0.0
C1855 C 0.55622 0.376 0.64839 0.0
C1856 C 0.54908 0.37463 0.59261 0.0
C1857 C 0.55974 0.37369 0.54473 0.0
C1858 C 0.57736 0.37432 0.55241 0.0
C1859 C 0.53046 0.374 0.58424 0.0
C1860 C 0.52312 0.35917 0.56467 0.0
C1861 C 0.51996 0.38763 0.59747 0.0
C1862 C 0.52713 0.40368 0.61743 0.0
C1863 C 0.53905 0.41242 0.58384 0.0
C1864 C 0.54583 0.42749 0.60312 0.0
C1865 C 0.54068 0.434 0.65576 0.0
C1866 C 0.52871 0.42548 0.68914 0.0
C1867 C 0.52191 0.4104 0.67007 0.0
H1868 H 0.54593 0.44567 0.67061 0.0
H1869 H 0.47976 0.29819 0.49739 0.0
H1870 H 0.07099 0.62855 0.1585 0.0
H1871 H 0.04029 0.63057 0.17349 0.0
H1872 H 0.03118 0.59706 0.03229 0.0
H1873 H 0.06172 0.59502 0.01692 0.0
H1874 H 0.01055 0.62395 0.02397 0.0
H1875 H 0.0269 0.58389 0.17144 0.0
H1876 H 0.0434 0.57331 0.25602 0.0
H1877 H 0.02498 0.61347 0.35821 0.0
H1878 H 0.00855 0.62443 0.27394 0.0
H1879 H 0.92366 0.60563 0.06566 0.0
H1880 H 0.95447 0.60362 0.05731 0.0
H1881 H 0.96106 0.63577 0.20375 0.0
H1882 H 0.9302 0.63765 0.2131 0.0
H1883 H 0.98312 0.61045 0.21097 0.0
H1884 H 0.96656 0.65042 0.06455 0.0
H1885 H 0.95022 0.6613 0.98008 0.0
H1886 H 0.96916 0.62178 0.87606 0.0
H1887 H 0.98547 0.61053 0.96017 0.0
C1888 C 0.06246 0.62153 0.13087 0.0
C1889 C 0.06886 0.61161 0.08653 0.0
C1890 C 0.0449 0.62267 0.13958 0.0
C1891 C 0.03338 0.61391 0.10416 0.0
C1892 C 0.03977 0.60396 0.06011 0.0
C1893 C 0.05729 0.60276 0.05156 0.0
C1894 C 0.01467 0.61534 0.11194 0.0
C1895 C 0.00454 0.6208 0.06468 0.0
C1896 C 0.00682 0.61166 0.16544 0.0
C1897 C 0.01665 0.60508 0.2162 0.0
C1898 C 0.02649 0.59054 0.2118 0.0
C1899 C 0.0358 0.58447 0.25972 0.0
C1900 C 0.03528 0.59274 0.31241 0.0
C1901 C 0.0254 0.60709 0.31734 0.0
C1902 C 0.01607 0.61323 0.26953 0.0
C1903 C 0.93162 0.61228 0.09624 0.0
C1904 C 0.92436 0.62186 0.13997 0.0
C1905 C 0.94928 0.61116 0.09122 0.0
C1906 C 0.96016 0.61972 0.12939 0.0
C1907 C 0.95297 0.62907 0.17369 0.0
C1908 C 0.93529 0.63016 0.17886 0.0
C1909 C 0.97898 0.61895 0.12285 0.0
C1910 C 0.98913 0.61364 0.17031 0.0
C1911 C 0.98688 0.62281 0.06953 0.0
C1912 C 0.97712 0.62955 0.01882 0.0
C1913 C 0.96715 0.64397 0.02379 0.0
C1914 C 0.95791 0.65022 0.97596 0.0
C1915 C 0.95863 0.64222 0.9228 0.0
C1916 C 0.96861 0.62796 0.9173 0.0
C1917 C 0.97787 0.62165 0.96502 0.0
H1918 H 0.95151 0.64709 0.88585 0.0
H1919 H 0.0425 0.58802 0.34946 0.0
H1920 H 0.10523 0.5664 0.17361 0.0
H1921 H 0.10429 0.53693 0.14797 0.0
H1922 H 0.14971 0.54345 0.04764 0.0
H1923 H 0.1502 0.57297 0.07089 0.0
H1924 H 0.12936 0.52577 0.98918 0.0
H1925 H 0.14847 0.52314 0.1875 0.0
H1926 H 0.14746 0.52849 0.29227 0.0
H1927 H 0.09984 0.50254 0.30278 0.0
H1928 H 0.10046 0.49722 0.19786 0.0
H1929 H 0.15648 0.44084 0.97952 0.0
H1930 H 0.15366 0.4704 0.00208 0.0
H1931 H 0.10173 0.46216 0.05206 0.0
H1932 H 0.10434 0.43258 0.02846 0.0
H1933 H 0.12323 0.48017 0.1351 0.0
H1934 H 0.10643 0.48153 0.93358 0.0
H1935 H 0.10971 0.47568 0.82986 0.0
H1936 H 0.15622 0.50368 0.82776 0.0
H1937 H 0.15336 0.50949 0.93175 0.0
C1938 C 0.11507 0.56149 0.14645 0.0
C1939 C 0.12781 0.57199 0.12442 0.0
C1940 C 0.11457 0.54461 0.13192 0.0
C1941 C 0.12706 0.5378 0.09633 0.0
C1942 C 0.13988 0.54832 0.07494 0.0
C1943 C 0.14019 0.56521 0.08849 0.0
C1944 C 0.12667 0.51987 0.08011 0.0
C1945 C 0.12821 0.51585 0.02137 0.0
C1946 C 0.12481 0.50679 0.12163 0.0
C1947 C 0.12442 0.50994 0.18472 0.0
C1948 C 0.13772 0.51868 0.21208 0.0
C1949 C 0.13723 0.52169 0.27149 0.0
C1950 C 0.12357 0.5159 0.30412 0.0
C1951 C 0.1104 0.50705 0.27743 0.0
C1952 C 0.11082 0.50402 0.218 0.0
C1953 C 0.1444 0.44534 0.99476 0.0
C1954 C 0.13062 0.43438 0.00205 0.0
C1955 C 0.14281 0.46223 0.00761 0.0
C1956 C 0.12749 0.46845 0.02875 0.0
C1957 C 0.11366 0.45759 0.0358 0.0
C1958 C 0.11515 0.44073 0.02195 0.0
C1959 C 0.12615 0.48624 0.04467 0.0
C1960 C 0.12428 0.49018 0.10319 0.0
C1961 C 0.12804 0.49924 0.00319 0.0
C1962 C 0.12976 0.49581 0.9406 0.0
C1963 C 0.11744 0.48631 0.91114 0.0
C1964 C 0.1192 0.48303 0.85227 0.0
C1965 C 0.13318 0.48927 0.82227 0.0
C1966 C 0.14541 0.49884 0.85107 0.0
C1967 C 0.14371 0.50214 0.90996 0.0
H1968 H 0.13453 0.48672 0.77669 0.0
H1969 H 0.12321 0.51825 0.35012 0.0
H1970 H 0.66448 0.86816 0.25056 0.0
H1971 H 0.69516 0.86871 0.23799 0.0
H1972 H 0.70126 0.89555 0.39726 0.0
H1973 H 0.67046 0.89528 0.40996 0.0
H1974 H 0.72104 0.90838 0.31241 0.0
H1975 H 0.70929 0.85391 0.39298 0.0
H1976 H 0.69484 0.82665 0.39738 0.0
H1977 H 0.71403 0.81473 0.23004 0.0
H1978 H 0.72841 0.84202 0.2243 0.0
H1979 H 0.80875 0.89709 0.35938 0.0
H1980 H 0.77795 0.89623 0.36839 0.0
H1981 H 0.77394 0.86723 0.2131 0.0
H1982 H 0.80496 0.86766 0.20463 0.0
H1983 H 0.75292 0.8555 0.29275 0.0
H1984 H 0.76502 0.90943 0.21181 0.0
H1985 H 0.77919 0.9368 0.20535 0.0
H1986 H 0.75912 0.94994 0.37025 0.0
H1987 H 0.74501 0.92255 0.37808 0.0
C1988 C 0.67229 0.87422 0.28298 0.0
C1989 C 0.66496 0.88158 0.33153 0.0
C1990 C 0.68987 0.87446 0.27577 0.0
C1991 C 0.70052 0.88194 0.31714 0.0
C1992 C 0.69326 0.88965 0.36493 0.0
C1993 C 0.67565 0.88946 0.37215 0.0
C1994 C 0.71924 0.88163 0.31065 0.0
C1995 C 0.72806 0.89682 0.30888 0.0
C1996 C 0.7283 0.86655 0.30433 0.0
C1997 C 0.7198 0.85007 0.30799 0.0
C1998 C 0.71034 0.84552 0.35695 0.0
C1999 C 0.70217 0.83006 0.35971 0.0
C2000 C 0.70348 0.81898 0.31396 0.0
C2001 C 0.71301 0.82333 0.26542 0.0
C2002 C 0.72118 0.83878 0.26241 0.0
C2003 C 0.80135 0.89048 0.32714 0.0
C2004 C 0.80929 0.88255 0.28099 0.0
C2005 C 0.78371 0.89007 0.33222 0.0
C2006 C 0.77359 0.88197 0.29075 0.0
C2007 C 0.7815 0.87364 0.24543 0.0
C2008 C 0.79921 0.87391 0.2406 0.0
C2009 C 0.75478 0.88226 0.29489 0.0
C2010 C 0.74593 0.86708 0.29616 0.0
C2011 C 0.74567 0.89736 0.30045 0.0
C2012 C 0.75408 0.91387 0.29575 0.0
C2013 C 0.76373 0.91811 0.24689 0.0
C2014 C 0.77173 0.93363 0.24295 0.0
C2015 C 0.77009 0.94508 0.28742 0.0
C2016 C 0.76039 0.94105 0.33587 0.0
C2017 C 0.75237 0.92553 0.34005 0.0
H2018 H 0.7763 0.95709 0.28429 0.0
H2019 H 0.69714 0.80702 0.31617 0.0
H2020 H 0.38521 0.42343 0.52248 0.0
H2021 H 0.38324 0.4531 0.49974 0.0
H2022 H 0.34637 0.45889 0.63407 0.0
H2023 H 0.34816 0.42898 0.65712 0.0
H2024 H 0.33725 0.4755 0.53158 0.0
H2025 H 0.38589 0.47154 0.6584 0.0
H2026 H 0.41352 0.46053 0.69334 0.0
H2027 H 0.43663 0.47626 0.5343 0.0
H2028 H 0.40907 0.48716 0.49803 0.0
H2029 H 0.34111 0.5639 0.53475 0.0
H2030 H 0.3417 0.53428 0.55996 0.0
H2031 H 0.38173 0.52677 0.43763 0.0
H2032 H 0.38148 0.55657 0.413 0.0
H2033 H 0.38886 0.51105 0.5373 0.0
H2034 H 0.34029 0.51446 0.40926 0.0
H2035 H 0.31266 0.52519 0.37322 0.0
H2036 H 0.28942 0.51031 0.53299 0.0
H2037 H 0.31698 0.49969 0.57032 0.0
C2038 C 0.37661 0.43093 0.5472 0.0
C2039 C 0.36685 0.42376 0.59172 0.0
C2040 C 0.37558 0.44795 0.53428 0.0
C2041 C 0.3648 0.45824 0.56559 0.0
C2042 C 0.35481 0.45116 0.60949 0.0
C2043 C 0.3559 0.43408 0.62271 0.0
C2044 C 0.36402 0.47637 0.55208 0.0
C2045 C 0.34847 0.48335 0.53369 0.0
C2046 C 0.37875 0.48649 0.5535 0.0
C2047 C 0.39537 0.48003 0.5753 0.0
C2048 C 0.39683 0.47253 0.63068 0.0
C2049 C 0.41249 0.46633 0.65076 0.0
C2050 C 0.42681 0.46766 0.61601 0.0
C2051 C 0.42552 0.47523 0.56115 0.0
C2052 C 0.40989 0.48144 0.54083 0.0
C2053 C 0.34996 0.55595 0.51278 0.0
C2054 C 0.3612 0.56261 0.47161 0.0
C2055 C 0.35024 0.53898 0.52717 0.0
C2056 C 0.36161 0.52823 0.50021 0.0
C2057 C 0.37282 0.53482 0.45894 0.0
C2058 C 0.37262 0.55184 0.44473 0.0
C2059 C 0.3621 0.51021 0.51624 0.0
C2060 C 0.37762 0.50323 0.53523 0.0
C2061 C 0.34734 0.50009 0.5152 0.0
C2062 C 0.33074 0.50643 0.4928 0.0
C2063 C 0.32932 0.51359 0.43689 0.0
C2064 C 0.31367 0.51964 0.4162 0.0
C2065 C 0.29931 0.51847 0.45086 0.0
C2066 C 0.30056 0.51122 0.50623 0.0
C2067 C 0.31619 0.50518 0.52716 0.0
H2068 H 0.2872 0.52316 0.43475 0.0
H2069 H 0.43892 0.46285 0.63163 0.0
H2070 H 0.83197 0.13048 0.76866 0.0
H2071 H 0.80151 0.12823 0.74935 0.0
H2072 H 0.79589 0.09819 0.90455 0.0
H2073 H 0.82648 0.10023 0.92415 0.0
H2074 H 0.77724 0.08592 0.8133 0.0
H2075 H 0.78516 0.13857 0.90525 0.0
H2076 H 0.79799 0.1663 0.91893 0.0
H2077 H 0.78021 0.18181 0.74962 0.0
H2078 H 0.76747 0.15409 0.7346 0.0
H2079 H 0.68743 0.09436 0.83347 0.0
H2080 H 0.71811 0.09432 0.85126 0.0
H2081 H 0.72488 0.12704 0.70317 0.0
H2082 H 0.69415 0.12742 0.6858 0.0
H2083 H 0.74304 0.13766 0.79251 0.0
H2084 H 0.73508 0.08503 0.70018 0.0
H2085 H 0.72242 0.05726 0.68605 0.0
H2086 H 0.74026 0.04162 0.85515 0.0
H2087 H 0.75284 0.06939 0.87062 0.0
C2088 C 0.82433 0.12333 0.79871 0.0
C2089 C 0.83172 0.11564 0.84827 0.0
C2090 C 0.80687 0.1221 0.78763 0.0
C2091 C 0.79639 0.11324 0.82593 0.0
C2092 C 0.80375 0.10514 0.87453 0.0
C2093 C 0.82124 0.10637 0.88574 0.0
C2094 C 0.77772 0.11272 0.81565 0.0
C2095 C 0.7697 0.09721 0.80951 0.0
C2096 C 0.76796 0.12748 0.80953 0.0
C2097 C 0.7755 0.1442 0.8186 0.0
C2098 C 0.78409 0.14786 0.87076 0.0
C2099 C 0.79133 0.16358 0.87879 0.0
C2100 C 0.78995 0.1758 0.83511 0.0
C2101 C 0.78129 0.17233 0.78339 0.0
C2102 C 0.77404 0.15662 0.77511 0.0
C2103 C 0.69544 0.10146 0.80441 0.0
C2104 C 0.68832 0.11088 0.75814 0.0
C2105 C 0.71301 0.10138 0.81453 0.0
C2106 C 0.72385 0.11054 0.77821 0.0
C2107 C 0.71678 0.11987 0.73179 0.0
C2108 C 0.6992 0.12003 0.72181 0.0
C2109 C 0.74251 0.11085 0.78962 0.0
C2110 C 0.75054 0.12634 0.79618 0.0
C2111 C 0.75226 0.09607 0.79605 0.0
C2112 C 0.74476 0.07935 0.78677 0.0
C2113 C 0.73619 0.07571 0.73454 0.0
C2114 C 0.72905 0.05996 0.72625 0.0
C2115 C 0.7305 0.0477 0.76974 0.0
C2116 C 0.73913 0.05114 0.82154 0.0
C2117 C 0.74628 0.06688 0.83007 0.0
H2118 H 0.72496 0.03551 0.76324 0.0
H2119 H 0.79557 0.18796 0.8414 0.0
H2120 H 0.88882 0.55934 0.02758 0.0
H2121 H 0.89032 0.53067 0.99372 0.0
H2122 H 0.83558 0.52803 0.98817 0.0
H2123 H 0.83393 0.55679 0.02147 0.0
H2124 H 0.85224 0.4998 0.04157 0.0
H2125 H 0.8543 0.53376 0.86733 0.0
H2126 H 0.86568 0.55645 0.80589 0.0
H2127 H 0.91457 0.53269 0.80749 0.0
H2128 H 0.90354 0.50999 0.86981 0.0
H2129 H 0.84288 0.42491 0.89422 0.0
H2130 H 0.84064 0.45426 0.91921 0.0
H2131 H 0.89407 0.46097 0.88588 0.0
H2132 H 0.89608 0.43174 0.85751 0.0
H2133 H 0.87819 0.48758 0.85242 0.0
H2134 H 0.8776 0.4543 0.02669 0.0
H2135 H 0.86769 0.43189 0.09221 0.0
H2136 H 0.81825 0.45433 0.09625 0.0
H2137 H 0.82777 0.47678 0.02995 0.0
C2138 C 0.87709 0.55262 0.0196 0.0
C2139 C 0.86125 0.56032 0.02712 0.0
C2140 C 0.87798 0.53629 0.99999 0.0
C2141 C 0.86306 0.52734 0.98806 0.0
C2142 C 0.84723 0.53479 0.99706 0.0
C2143 C 0.84632 0.55121 0.01596 0.0
C2144 C 0.86397 0.51022 0.96565 0.0
C2145 C 0.8577 0.4971 0.9999 0.0
C2146 C 0.87157 0.50677 0.91207 0.0
C2147 C 0.87813 0.52025 0.87373 0.0
C2148 C 0.86751 0.53343 0.85496 0.0
C2149 C 0.87389 0.54629 0.81992 0.0
C2150 C 0.89085 0.54604 0.80293 0.0
C2151 C 0.90144 0.53289 0.82076 0.0
C2152 C 0.89513 0.52001 0.85591 0.0
C2153 C 0.85409 0.43272 0.89165 0.0
C2154 C 0.86969 0.42608 0.87452 0.0
C2155 C 0.85284 0.44946 0.90628 0.0
C2156 C 0.8673 0.45974 0.90617 0.0
C2157 C 0.88275 0.45327 0.88671 0.0
C2158 C 0.88391 0.43659 0.87056 0.0
C2159 C 0.86639 0.47699 0.92829 0.0
C2160 C 0.8727 0.49019 0.8941 0.0
C2161 C 0.85906 0.48051 0.98247 0.0
C2162 C 0.85336 0.46714 0.02294 0.0
C2163 C 0.86458 0.45441 0.04128 0.0
C2164 C 0.85904 0.4417 0.07857 0.0
C2165 C 0.84235 0.44165 0.0983 0.0
C2166 C 0.83117 0.45437 0.08089 0.0
C2167 C 0.83663 0.4671 0.04348 0.0
H2168 H 0.8381 0.43179 0.12717 0.0
H2169 H 0.89577 0.55601 0.77586 0.0
H2170 H 0.17727 0.11874 0.68059 0.0
H2171 H 0.20749 0.12106 0.66062 0.0
H2172 H 0.21757 0.13332 0.83933 0.0
H2173 H 0.187 0.13197 0.85859 0.0
H2174 H 0.2369 0.15127 0.77672 0.0
H2175 H 0.22509 0.09288 0.78 0.0
H2176 H 0.21009 0.06701 0.75401 0.0
H2177 H 0.22383 0.07426 0.57609 0.0
H2178 H 0.23874 0.10029 0.6009 0.0
H2179 H 0.3249 0.12799 0.77088 0.0
H2180 H 0.29436 0.12775 0.7894 0.0
H2181 H 0.28379 0.13266 0.60606 0.0
H2182 H 0.31442 0.13328 0.58712 0.0
H2183 H 0.26532 0.10598 0.6713 0.0
H2184 H 0.27806 0.16489 0.67449 0.0
H2185 H 0.29421 0.18943 0.70717 0.0
H2186 H 0.27985 0.17913 0.88284 0.0
H2187 H 0.26383 0.15435 0.85129 0.0
C2188 C 0.18593 0.12191 0.71569 0.0
C2189 C 0.17983 0.12499 0.77134 0.0
C2190 C 0.20325 0.12315 0.7043 0.0
C2191 C 0.21497 0.12691 0.74877 0.0
C2192 C 0.20884 0.1303 0.80428 0.0
C2193 C 0.1914 0.12948 0.81536 0.0
C2194 C 0.23354 0.12732 0.7371 0.0
C2195 C 0.2431 0.14123 0.75437 0.0
C2196 C 0.24175 0.11434 0.70727 0.0
C2197 C 0.23291 0.09862 0.69225 0.0
C2198 C 0.22483 0.08901 0.73528 0.0
C2199 C 0.21635 0.07431 0.72076 0.0
C2200 C 0.21597 0.06902 0.66341 0.0
C2201 C 0.22412 0.07838 0.62048 0.0
C2202 C 0.2326 0.0931 0.63476 0.0
C2203 C 0.31608 0.12902 0.73446 0.0
C2204 C 0.32203 0.13064 0.67751 0.0
C2205 C 0.29867 0.12893 0.74517 0.0
C2206 C 0.28688 0.13023 0.69911 0.0
C2207 C 0.29274 0.13167 0.64213 0.0
C2208 C 0.31019 0.13208 0.63143 0.0
C2209 C 0.26843 0.12989 0.71068 0.0
C2210 C 0.25899 0.11597 0.69356 0.0
C2211 C 0.26044 0.14266 0.74167 0.0
C2212 C 0.26988 0.15767 0.76059 0.0
C2213 C 0.27847 0.16777 0.72015 0.0
C2214 C 0.28757 0.18174 0.73846 0.0
C2215 C 0.28809 0.18581 0.79707 0.0
C2216 C 0.27945 0.17595 0.83746 0.0
C2217 C 0.27034 0.16195 0.81938 0.0
H2218 H 0.29516 0.19663 0.81116 0.0
H2219 H 0.20939 0.05764 0.65225 0.0
H2220 H 0.61147 0.56622 0.30883 0.0
H2221 H 0.614 0.53654 0.33509 0.0
H2222 H 0.65869 0.54702 0.43869 0.0
H2223 H 0.65609 0.57666 0.41372 0.0
H2224 H 0.6609 0.51801 0.36317 0.0
H2225 H 0.62529 0.54258 0.50846 0.0
H2226 H 0.60065 0.55892 0.53963 0.0
H2227 H 0.56679 0.52465 0.4555 0.0
H2228 H 0.59129 0.50822 0.42313 0.0
H2229 H 0.67086 0.44535 0.53642 0.0
H2230 H 0.66768 0.47418 0.50213 0.0
H2231 H 0.61702 0.46326 0.43918 0.0
H2232 H 0.61993 0.43456 0.47482 0.0
H2233 H 0.61698 0.4923 0.48817 0.0
H2234 H 0.65122 0.46666 0.34669 0.0
H2235 H 0.67514 0.45032 0.30981 0.0
H2236 H 0.71052 0.48605 0.37786 0.0
H2237 H 0.68681 0.50248 0.41591 0.0
C2238 C 0.62191 0.56217 0.33678 0.0
C2239 C 0.63354 0.57377 0.35941 0.0
C2240 C 0.62331 0.54524 0.3518 0.0
C2241 C 0.63651 0.53965 0.3889 0.0
C2242 C 0.64845 0.55111 0.40993 0.0
C2243 C 0.64689 0.56804 0.39581 0.0
C2244 C 0.63752 0.52196 0.40795 0.0
C2245 C 0.65141 0.51238 0.39092 0.0
C2246 C 0.62486 0.51457 0.44274 0.0
C2247 C 0.61012 0.52427 0.46292 0.0
C2248 C 0.6126 0.5386 0.49624 0.0
C2249 C 0.59866 0.54786 0.5142 0.0
C2250 C 0.58217 0.54284 0.49947 0.0
C2251 C 0.57958 0.52852 0.46684 0.0
C2252 C 0.59348 0.51922 0.44873 0.0
C2253 C 0.65902 0.44909 0.51543 0.0
C2254 C 0.64568 0.43762 0.50819 0.0
C2255 C 0.65725 0.46557 0.49553 0.0
C2256 C 0.64221 0.47086 0.46711 0.0
C2257 C 0.62876 0.4595 0.46082 0.0
C2258 C 0.63046 0.44306 0.48118 0.0
C2259 C 0.64052 0.48822 0.44395 0.0
C2260 C 0.62648 0.49779 0.46016 0.0
C2261 C 0.65294 0.49553 0.40763 0.0
C2262 C 0.66724 0.48572 0.38463 0.0
C2263 C 0.66411 0.47097 0.35418 0.0
C2264 C 0.67763 0.4617 0.333 0.0
C2265 C 0.69434 0.46713 0.34161 0.0
C2266 C 0.69757 0.48185 0.37129 0.0
C2267 C 0.68409 0.49116 0.39263 0.0
H2268 H 0.70479 0.45994 0.32518 0.0
H2269 H 0.5714 0.55 0.51354 0.0
H2270 H 0.32888 0.87441 0.2058 0.0
H2271 H 0.29848 0.87625 0.18319 0.0
H2272 H 0.28854 0.88846 0.3606 0.0
H2273 H 0.31905 0.88688 0.38362 0.0
H2274 H 0.26744 0.8622 0.311 0.0
H2275 H 0.28589 0.91838 0.27067 0.0
H2276 H 0.30416 0.93975 0.22551 0.0
H2277 H 0.28893 0.92324 0.05649 0.0
H2278 H 0.27076 0.90159 0.10068 0.0
H2279 H 0.18052 0.87987 0.26644 0.0
H2280 H 0.21041 0.88158 0.2952 0.0
H2281 H 0.22441 0.88441 0.11518 0.0
H2282 H 0.19434 0.88388 0.08646 0.0
H2283 H 0.24378 0.90384 0.17028 0.0
H2284 H 0.22709 0.84701 0.20526 0.0
H2285 H 0.20954 0.82432 0.24595 0.0
H2286 H 0.22226 0.83987 0.41833 0.0
H2287 H 0.2397 0.86281 0.37866 0.0
C2288 C 0.32025 0.87748 0.24009 0.0
C2289 C 0.32637 0.88047 0.29657 0.0
C2290 C 0.3029 0.87859 0.227 0.0
C2291 C 0.29133 0.88253 0.27021 0.0
C2292 C 0.29733 0.88541 0.32672 0.0
C2293 C 0.31473 0.88456 0.3397 0.0
C2294 C 0.27294 0.88341 0.25624 0.0
C2295 C 0.26216 0.87144 0.28094 0.0
C2296 C 0.26626 0.89516 0.21568 0.0
C2297 C 0.27708 0.90826 0.18902 0.0
C2298 C 0.28654 0.91921 0.22388 0.0
C2299 C 0.29686 0.9314 0.19845 0.0
C2300 C 0.29773 0.93283 0.13817 0.0
C2301 C 0.28825 0.92211 0.10318 0.0
C2302 C 0.27793 0.90989 0.1284 0.0
C2303 C 0.18997 0.88095 0.23302 0.0
C2304 C 0.18511 0.88166 0.17419 0.0
C2305 C 0.20709 0.88179 0.24949 0.0
C2306 C 0.21978 0.88268 0.20741 0.0
C2307 C 0.21491 0.88367 0.14857 0.0
C2308 C 0.19773 0.88333 0.13213 0.0
C2309 C 0.2381 0.88248 0.22461 0.0
C2310 C 0.24894 0.89458 0.20051 0.0
C2311 C 0.24489 0.87062 0.26497 0.0
C2312 C 0.23457 0.85672 0.28896 0.0
C2313 C 0.22606 0.84565 0.25184 0.0
C2314 C 0.21614 0.83275 0.27472 0.0
C2315 C 0.21474 0.8307 0.33469 0.0
C2316 C 0.22332 0.84151 0.3719 0.0
C2317 C 0.23324 0.85445 0.34925 0.0
H2318 H 0.20704 0.82071 0.35233 0.0
H2319 H 0.30573 0.94227 0.11856 0.0
H2320 H 0.63632 0.93772 0.58808 0.0
H2321 H 0.6363 0.96742 0.61004 0.0
H2322 H 0.61795 0.97889 0.43691 0.0
H2323 H 0.61773 0.94912 0.41466 0.0
H2324 H 0.64591 0.9989 0.47475 0.0
H2325 H 0.59095 0.98087 0.5404 0.0
H2326 H 0.57137 0.96294 0.5958 0.0
H2327 H 0.59591 0.97725 0.75484 0.0
H2328 H 0.61581 0.9951 0.70028 0.0
H2329 H 0.62413 0.08318 0.50765 0.0
H2330 H 0.62362 0.05344 0.48835 0.0
H2331 H 0.633 0.04257 0.66976 0.0
H2332 H 0.63301 0.07243 0.6898 0.0
H2333 H 0.61005 0.02188 0.62914 0.0
H2334 H 0.66489 0.03959 0.56765 0.0
H2335 H 0.68555 0.05709 0.51524 0.0
H2336 H 0.66299 0.04291 0.35276 0.0
H2337 H 0.64206 0.02547 0.40426 0.0
C2338 C 0.63228 0.94654 0.55461 0.0
C2339 C 0.62701 0.94106 0.49959 0.0
C2340 C 0.63223 0.96351 0.56733 0.0
C2341 C 0.62705 0.97533 0.52518 0.0
C2342 C 0.62197 0.96994 0.47002 0.0
C2343 C 0.6218 0.95294 0.45746 0.0
C2344 C 0.62705 0.99333 0.53868 0.0
C2345 C 0.63791 0.004 0.50793 0.0
C2346 C 0.61701 0.99982 0.58329 0.0
C2347 C 0.60498 0.98919 0.61621 0.0
C2348 C 0.59226 0.98009 0.58715 0.0
C2349 C 0.58109 0.96996 0.6184 0.0
C2350 C 0.58242 0.96892 0.67879 0.0
C2351 C 0.5949 0.97805 0.70805 0.0
C2352 C 0.60613 0.98819 0.67699 0.0
C2353 C 0.62611 0.0745 0.54355 0.0
C2354 C 0.62872 0.08022 0.60026 0.0
C2355 C 0.62589 0.05746 0.53237 0.0
C2356 C 0.62859 0.04572 0.5774 0.0
C2357 C 0.63095 0.05137 0.63425 0.0
C2358 C 0.63099 0.06846 0.64562 0.0
C2359 C 0.62887 0.02759 0.56495 0.0
C2360 C 0.61808 0.01685 0.59596 0.0
C2361 C 0.63916 0.02098 0.52104 0.0
C2362 C 0.65181 0.03134 0.48985 0.0
C2363 C 0.66427 0.04029 0.52076 0.0
C2364 C 0.67604 0.05018 0.49121 0.0
C2365 C 0.67556 0.05114 0.43071 0.0
C2366 C 0.66334 0.04217 0.39963 0.0
C2367 C 0.65153 0.03226 0.42897 0.0
H2368 H 0.68467 0.05882 0.40792 0.0
H2369 H 0.57376 0.96107 0.70291 0.0
H2370 H 0.16651 0.38341 0.79903 0.0
H2371 H 0.19698 0.38327 0.78101 0.0
H2372 H 0.20738 0.37932 0.96468 0.0
H2373 H 0.17673 0.37915 0.98334 0.0
H2374 H 0.22681 0.40475 0.89872 0.0
H2375 H 0.21253 0.34636 0.89793 0.0
H2376 H 0.19558 0.32204 0.86795 0.0
H2377 H 0.20873 0.33132 0.6905 0.0
H2378 H 0.22555 0.35586 0.71933 0.0
H2379 H 0.31479 0.39011 0.8691 0.0
H2380 H 0.2851 0.38851 0.89757 0.0
H2381 H 0.27034 0.37748 0.72139 0.0
H2382 H 0.30019 0.37827 0.69334 0.0
H2383 H 0.25298 0.35891 0.78953 0.0
H2384 H 0.26538 0.41739 0.7842 0.0
H2385 H 0.28108 0.44305 0.80798 0.0
H2386 H 0.27037 0.43545 0.98832 0.0
H2387 H 0.25478 0.40961 0.96568 0.0
C2388 C 0.17524 0.38252 0.83572 0.0
C2389 C 0.16921 0.38123 0.89266 0.0
C2390 C 0.19264 0.3824 0.82527 0.0
C2391 C 0.20435 0.38119 0.8715 0.0
C2392 C 0.19846 0.38023 0.92851 0.0
C2393 C 0.18099 0.38007 0.93902 0.0
C2394 C 0.22275 0.38091 0.85969 0.0
C2395 C 0.23267 0.39462 0.87579 0.0
C2396 C 0.23012 0.36792 0.82811 0.0
C2397 C 0.22019 0.35304 0.81075 0.0
C2398 C 0.2117 0.34329 0.85246 0.0
C2399 C 0.20214 0.32945 0.83569 0.0
C2400 C 0.20105 0.32516 0.77734 0.0
C2401 C 0.20957 0.33467 0.73567 0.0
C2402 C 0.21914 0.34854 0.75222 0.0
C2403 C 0.30521 0.38737 0.83641 0.0
C2404 C 0.30978 0.38443 0.7789 0.0
C2405 C 0.28821 0.38653 0.85269 0.0
C2406 C 0.27539 0.38321 0.81144 0.0
C2407 C 0.27998 0.38009 0.75403 0.0
C2408 C 0.29703 0.3806 0.73797 0.0
C2409 C 0.25722 0.38288 0.82812 0.0
C2410 C 0.24727 0.36904 0.81285 0.0
C2411 C 0.24974 0.39593 0.85958 0.0
C2412 C 0.25907 0.41148 0.8733 0.0
C2413 C 0.26648 0.42113 0.82898 0.0
C2414 C 0.27534 0.43571 0.84224 0.0
C2415 C 0.27677 0.44085 0.89964 0.0
C2416 C 0.26928 0.43144 0.94389 0.0
C2417 C 0.26042 0.41683 0.93086 0.0
H2418 H 0.28363 0.45214 0.90983 0.0
H2419 H 0.19363 0.31445 0.76444 0.0
H2420 H 0.87108 0.9139 0.04421 0.0
H2421 H 0.87382 0.94182 1.00072 0.0
H2422 H 0.88064 0.96232 0.17137 0.0
H2423 H 0.87717 0.93451 0.21451 0.0
H2424 H 0.85961 0.98042 0.11464 0.0
H2425 H 0.91397 0.95693 0.06839 0.0
H2426 H 0.93298 0.936 0.02691 0.0
H2427 H 0.91164 0.94598 0.85749 0.0
H2428 H 0.89224 0.96672 0.89812 0.0
H2429 H 0.88791 0.06067 0.04155 0.0
H2430 H 0.88819 0.03162 0.07421 0.0
H2431 H 0.87395 0.0161 0.90217 0.0
H2432 H 0.87385 0.04525 0.86869 0.0
H2433 H 0.89823 0.99532 0.95408 0.0
H2434 H 0.84406 0.01883 0.00203 0.0
H2435 H 0.82509 0.0396 0.04459 0.0
H2436 H 0.84697 0.02945 0.21313 0.0
H2437 H 0.86624 0.00878 0.17142 0.0
C2438 C 0.8735 0.92438 0.07204 0.0
C2439 C 0.87417 0.92213 0.1324 0.0
C2440 C 0.87505 0.94032 0.04731 0.0
C2441 C 0.87771 0.95421 0.08267 0.0
C2442 C 0.87859 0.95184 0.14312 0.0
C2443 C 0.87666 0.93598 0.16777 0.0
C2444 C 0.87877 0.97133 0.05739 0.0
C2445 C 0.86827 0.98367 0.08014 0.0
C2446 C 0.88966 0.97555 0.01104 0.0
C2447 C 0.90155 0.96329 0.98641 0.0
C2448 C 0.91326 0.9546 0.02234 0.0
C2449 C 0.9241 0.94276 0.99898 0.0
C2450 C 0.9235 0.93965 0.93962 0.0
C2451 C 0.91209 0.9484 0.90347 0.0
C2452 C 0.90116 0.96019 0.92664 0.0
C2453 C 0.88493 0.05111 0.01044 0.0
C2454 C 0.88067 0.0553 0.9526 0.0
C2455 C 0.88509 0.0345 0.02924 0.0
C2456 C 0.88085 0.02174 0.9908 0.0
C2457 C 0.87722 0.02578 0.93252 0.0
C2458 C 0.87711 0.04244 0.91356 0.0
C2459 C 0.87939 0.00431 0.01246 0.0
C2460 C 0.88967 0.99196 0.98875 0.0
C2461 C 0.8684 1.00005 0.05827 0.0
C2462 C 0.85669 0.01236 0.08351 0.0
C2463 C 0.8449 0.02111 0.0481 0.0
C2464 C 0.83408 0.03285 0.07208 0.0
C2465 C 0.83485 0.03587 0.1315 0.0
C2466 C 0.8464 0.02711 0.1671 0.0
C2467 C 0.85726 0.01537 0.14332 0.0
H2468 H 0.82647 0.04498 0.14998 0.0
H2469 H 0.93187 0.93045 0.92164 0.0
H2470 H 0.18565 0.61613 0.17805 0.0
H2471 H 0.21682 0.61728 0.18734 0.0
H2472 H 0.21316 0.61249 0.37302 0.0
H2473 H 0.18223 0.61102 0.36416 0.0
H2474 H 0.23607 0.63812 0.33369 0.0
H2475 H 0.22337 0.57976 0.30466 0.0
H2476 H 0.21078 0.55622 0.25174 0.0
H2477 H 0.24032 0.56897 0.10261 0.0
H2478 H 0.25291 0.59275 0.15443 0.0
H2479 H 0.32059 0.61929 0.42134 0.0
H2480 H 0.28979 0.61968 0.40558 0.0
H2481 H 0.29678 0.6108 0.22364 0.0
H2482 H 0.32751 0.60961 0.2398 0.0
H2483 H 0.27188 0.59312 0.256 0.0
H2484 H 0.28554 0.65051 0.28123 0.0
H2485 H 0.29796 0.675 0.32914 0.0
H2486 H 0.26679 0.66596 0.47737 0.0
H2487 H 0.25433 0.64127 0.43065 0.0
C2488 C 0.19151 0.61536 0.2208 0.0
C2489 C 0.18146 0.6134 0.27029 0.0
C2490 C 0.2093 0.61599 0.22605 0.0
C2491 C 0.21731 0.61493 0.2809 0.0
C2492 C 0.20727 0.61335 0.33032 0.0
C2493 C 0.18957 0.61243 0.32508 0.0
C2494 C 0.23615 0.61513 0.28719 0.0
C2495 C 0.24393 0.62823 0.31714 0.0
C2496 C 0.24642 0.60248 0.26419 0.0
C2497 C 0.23893 0.58814 0.23317 0.0
C2498 C 0.22706 0.57763 0.2604 0.0
C2499 C 0.21995 0.56423 0.23065 0.0
C2500 C 0.22471 0.56113 0.17378 0.0
C2501 C 0.23663 0.5714 0.14662 0.0
C2502 C 0.24376 0.58484 0.17617 0.0
C2503 C 0.31556 0.61747 0.37796 0.0
C2504 C 0.32653 0.61448 0.33182 0.0
C2505 C 0.29791 0.61779 0.36885 0.0
C2506 C 0.29082 0.61559 0.3131 0.0
C2507 C 0.30181 0.61255 0.26706 0.0
C2508 C 0.31943 0.61191 0.27635 0.0
C2509 C 0.272 0.61615 0.30289 0.0
C2510 C 0.26416 0.60315 0.27225 0.0
C2511 C 0.2617 0.62908 0.32445 0.0
C2512 C 0.26912 0.64395 0.35264 0.0
C2513 C 0.28142 0.65367 0.32421 0.0
C2514 C 0.28845 0.6676 0.35113 0.0
C2515 C 0.2832 0.67201 0.40632 0.0
C2516 C 0.27086 0.66252 0.43465 0.0
C2517 C 0.2638 0.64857 0.40794 0.0
H2518 H 0.28866 0.6828 0.42709 0.0
H2519 H 0.21919 0.55075 0.15082 0.0
H2520 H 0.34223 0.95191 0.35208 0.0
H2521 H 0.34242 0.98088 0.38266 0.0
H2522 H 0.38368 0.97001 0.50273 0.0
H2523 H 0.38339 0.9409 0.47308 0.0
H2524 H 0.36024 0.98863 0.55279 0.0
H2525 H 0.39073 0.99127 0.37599 0.0
H2526 H 0.39601 0.98647 0.27263 0.0
H2527 H 0.35178 0.01523 0.22524 0.0
H2528 H 0.3461 0.02002 0.32842 0.0
H2529 H 0.37911 0.07528 0.60019 0.0
H2530 H 0.38095 0.04573 0.57574 0.0
H2531 H 0.33731 0.05124 0.4616 0.0
H2532 H 0.33534 0.08064 0.48572 0.0
H2533 H 0.36396 0.03536 0.41005 0.0
H2534 H 0.33332 0.03174 0.58898 0.0
H2535 H 0.32871 0.03652 0.69277 0.0
H2536 H 0.37448 0.00968 0.73632 0.0
H2537 H 0.3795 0.00495 0.63265 0.0
C2538 C 0.35139 0.95567 0.38485 0.0
C2539 C 0.36283 0.94409 0.40996 0.0
C2540 C 0.35153 0.97227 0.40215 0.0
C2541 C 0.3632 0.97768 0.44451 0.0
C2542 C 0.37458 0.96613 0.46991 0.0
C2543 C 0.37443 0.9495 0.45273 0.0
C2544 C 0.36333 0.99535 0.46277 0.0
C2545 C 0.36133 0.99885 0.52168 0.0
C2546 C 0.36452 0.00869 0.42213 0.0
C2547 C 0.3679 0.00588 0.35999 0.0
C2548 C 0.38205 0.99647 0.34356 0.0
C2549 C 0.38513 0.99377 0.28499 0.0
C2550 C 0.37422 1.00051 0.2424 0.0
C2551 C 0.36022 0.01 0.25829 0.0
C2552 C 0.35707 0.01273 0.31681 0.0
C2553 C 0.36982 0.07016 0.57031 0.0
C2554 C 0.35708 0.08033 0.54493 0.0
C2555 C 0.37088 0.05328 0.55644 0.0
C2556 C 0.35925 0.0463 0.51689 0.0
C2557 C 0.34643 0.05638 0.49209 0.0
C2558 C 0.34529 0.07319 0.50618 0.0
C2559 C 0.36064 0.02862 0.49984 0.0
C2560 C 0.36296 0.02513 0.44114 0.0
C2561 C 0.35988 0.01531 0.54071 0.0
C2562 C 0.35689 0.01817 0.60302 0.0
C2563 C 0.34249 0.027 0.62065 0.0
C2564 C 0.33978 0.02967 0.67946 0.0
C2565 C 0.35132 0.02345 0.7211 0.0
C2566 C 0.36557 0.01452 0.70401 0.0
C2567 C 0.36835 0.01183 0.64523 0.0
H2568 H 0.34919 0.02552 0.76662 0.0
H2569 H 0.37662 0.99841 0.19708 0.0
H2570 H 0.82696 0.63752 0.24293 0.0
H2571 H 0.79634 0.63631 0.25824 0.0
H2572 H 0.79028 0.60523 0.10875 0.0
H2573 H 0.82086 0.6066 0.09247 0.0
H2574 H 0.76611 0.62809 0.10819 0.0
H2575 H 0.78851 0.58896 0.24704 0.0
H2576 H 0.80677 0.57863 0.32767 0.0
H2577 H 0.78536 0.6148 0.44029 0.0
H2578 H 0.76715 0.62554 0.36001 0.0
H2579 H 0.68435 0.59539 0.16289 0.0
H2580 H 0.71495 0.59846 0.15165 0.0
H2581 H 0.71648 0.63406 0.2894 0.0
H2582 H 0.68563 0.63108 0.301 0.0
H2583 H 0.7427 0.61011 0.29755 0.0
H2584 H 0.7191 0.64808 0.15427 0.0
H2585 H 0.70022 0.65619 0.07225 0.0
H2586 H 0.72355 0.61952 0.96616 0.0
H2587 H 0.74246 0.61106 0.04779 0.0
C2588 C 0.81915 0.63041 0.21323 0.0
C2589 C 0.82647 0.62211 0.1665 0.0
C2590 C 0.80161 0.62967 0.22223 0.0
C2591 C 0.79096 0.62053 0.18505 0.0
C2592 C 0.79819 0.61237 0.13807 0.0
C2593 C 0.81573 0.61312 0.12895 0.0
C2594 C 0.77228 0.61951 0.19496 0.0
C2595 C 0.76103 0.62399 0.14945 0.0
C2596 C 0.76555 0.61444 0.24906 0.0
C2597 C 0.7766 0.60817 0.29734 0.0
C2598 C 0.78782 0.59483 0.28884 0.0
C2599 C 0.79814 0.58888 0.3345 0.0
C2600 C 0.79726 0.59608 0.38902 0.0
C2601 C 0.78606 0.60926 0.398 0.0
C2602 C 0.77573 0.61528 0.35243 0.0
C2603 C 0.69114 0.60386 0.19106 0.0
C2604 C 0.68249 0.61301 0.23287 0.0
C2605 C 0.70867 0.60565 0.18434 0.0
C2606 C 0.71801 0.61661 0.21926 0.0
C2607 C 0.70951 0.62556 0.26186 0.0
C2608 C 0.69189 0.62387 0.26835 0.0
C2609 C 0.73662 0.61866 0.21083 0.0
C2610 C 0.74783 0.61434 0.25653 0.0
C2611 C 0.74332 0.62366 0.15669 0.0
C2612 C 0.73212 0.62887 0.10728 0.0
C2613 C 0.72014 0.64169 0.11355 0.0
C2614 C 0.70946 0.64636 0.0671 0.0
C2615 C 0.7107 0.63839 0.01402 0.0
C2616 C 0.72264 0.62572 0.00727 0.0
C2617 C 0.73336 0.62099 0.05359 0.0
H2618 H 0.70239 0.642 0.97814 0.0
H2619 H 0.8052 0.59139 0.42434 0.0
H2620 H 0.12585 0.07801 0.82522 0.0
H2621 H 0.12714 0.0478 0.84085 0.0
H2622 H 0.13753 0.05503 0.02286 0.0
H2623 H 0.137 0.08517 0.00697 0.0
H2624 H 0.15669 0.03145 0.98776 0.0
H2625 H 0.09685 0.04325 0.96504 0.0
H2626 H 0.07128 0.05453 0.9152 0.0
H2627 H 0.08028 0.02324 0.76986 0.0
H2628 H 0.10603 0.01192 0.81856 0.0
H2629 H 0.1395 0.94837 0.08305 0.0
H2630 H 0.13892 0.97859 0.06705 0.0
H2631 H 0.12933 0.97139 0.88459 0.0
H2632 H 0.12927 0.94127 0.90067 0.0
H2633 H 0.10983 0.99493 0.91998 0.0
H2634 H 0.16965 0.98303 0.94345 0.0
H2635 H 0.19516 0.97177 0.99381 0.0
H2636 H 0.186 0.00324 0.13859 0.0
H2637 H 0.16032 0.01454 0.08937 0.0
C2638 C 0.12841 0.07314 0.86855 0.0
C2639 C 0.13126 0.08399 0.91487 0.0
C2640 C 0.12906 0.05585 0.87754 0.0
C2641 C 0.13213 0.04905 0.93331 0.0
C2642 C 0.13513 0.05991 0.97944 0.0
C2643 C 0.13479 0.07717 0.9703 0.0
C2644 C 0.13233 0.03066 0.94382 0.0
C2645 C 0.14632 0.02351 0.97354 0.0
C2646 C 0.11901 0.02016 0.9243 0.0
C2647 C 0.10345 0.02685 0.89524 0.0
C2648 C 0.09343 0.03885 0.92232 0.0
C2649 C 0.0789 0.04524 0.89429 0.0
C2650 C 0.07418 0.03963 0.83935 0.0
C2651 C 0.08396 0.02758 0.81239 0.0
C2652 C 0.09851 0.02116 0.8402 0.0
C2653 C 0.13731 0.95324 0.03952 0.0
C2654 C 0.13447 0.94241 0.99313 0.0
C2655 C 0.13706 0.97054 0.03034 0.0
C2656 C 0.13434 0.97734 0.97439 0.0
C2657 C 0.13146 0.9665 0.92814 0.0
C2658 C 0.13146 0.94925 0.93741 0.0
C2659 C 0.13418 0.99572 0.96387 0.0
C2660 C 0.12019 0.00287 0.93417 0.0
C2661 C 0.14748 0.00622 0.98352 0.0
C2662 C 0.16299 0.99952 0.01293 0.0
C2663 C 0.17302 0.98747 0.98617 0.0
C2664 C 0.18752 0.9811 0.01449 0.0
C2665 C 0.19217 0.98676 0.06942 0.0
C2666 C 0.18237 0.99885 0.09607 0.0
C2667 C 0.16786 0.00525 0.06796 0.0
H2668 H 0.20339 0.9818 0.09128 0.0
H2669 H 0.06293 0.0446 0.81771 0.0
H2670 H 0.67693 0.38049 0.74556 0.0
H2671 H 0.70725 0.38013 0.76985 0.0
H2672 H 0.71905 0.38239 0.58796 0.0
H2673 H 0.68876 0.3822 0.56329 0.0
H2674 H 0.73882 0.3606 0.64105 0.0
H2675 H 0.72194 0.41706 0.67733 0.0
H2676 H 0.70483 0.43909 0.7213 0.0
H2677 H 0.72079 0.42224 0.89115 0.0
H2678 H 0.73783 0.39996 0.84818 0.0
H2679 H 0.8228 0.39314 0.64967 0.0
H2680 H 0.79202 0.39015 0.63766 0.0
H2681 H 0.78802 0.37583 0.81783 0.0
H2682 H 0.81901 0.37843 0.82999 0.0
H2683 H 0.7644 0.40199 0.77386 0.0
H2684 H 0.78379 0.34706 0.73383 0.0
H2685 H 0.8012 0.32578 0.68711 0.0
H2686 H 0.78056 0.34044 0.52064 0.0
H2687 H 0.76341 0.36218 0.56613 0.0
C2688 C 0.68597 0.38093 0.71071 0.0
C2689 C 0.68042 0.38141 0.65247 0.0
C2690 C 0.70332 0.38079 0.72469 0.0
C2691 C 0.71545 0.38144 0.68076 0.0
C2692 C 0.70993 0.38186 0.62261 0.0
C2693 C 0.6926 0.3818 0.60857 0.0
C2694 C 0.73392 0.38163 0.69512 0.0
C2695 C 0.74442 0.36977 0.66961 0.0
C2696 C 0.74119 0.3933 0.73367 0.0
C2697 C 0.73101 0.40673 0.75956 0.0
C2698 C 0.7217 0.41797 0.72407 0.0
C2699 C 0.71203 0.43052 0.74881 0.0
C2700 C 0.71169 0.43204 0.80899 0.0
C2701 C 0.72105 0.42104 0.84455 0.0
C2702 C 0.73073 0.40845 0.82003 0.0
C2703 C 0.81538 0.38937 0.68679 0.0
C2704 C 0.82326 0.38605 0.74083 0.0
C2705 C 0.79783 0.38761 0.67977 0.0
C2706 C 0.78783 0.38273 0.72683 0.0
C2707 C 0.79559 0.37959 0.78107 0.0
C2708 C 0.81324 0.38102 0.78787 0.0
C2709 C 0.76922 0.38117 0.71897 0.0
C2710 C 0.75872 0.39276 0.74567 0.0
C2711 C 0.76199 0.36937 0.68106 0.0
C2712 C 0.77245 0.35642 0.6534 0.0
C2713 C 0.78314 0.34593 0.68717 0.0
C2714 C 0.79296 0.33377 0.66089 0.0
C2715 C 0.79206 0.33183 0.6009 0.0
C2716 C 0.7813 0.34202 0.56709 0.0
C2717 C 0.77155 0.35428 0.59309 0.0
H2718 H 0.79964 0.32238 0.58063 0.0
H2719 H 0.70419 0.44176 0.82806 0.0
loop_
_geom_bond_atom_site_label_1
_geom_bond_atom_site_label_2
_geom_bond_distance
_geom_bond_site_symmetry_2
_ccdc_geom_bond_type
Zn0 O6 1.969 . S
Zn0 O7 1.965 . S
Zn0 O11 2.024 . S
Zn0 O16 1.969 . S
Zn1 O8 1.969 . S
Zn1 O14 1.969 . S
Zn1 O15 1.965 . S
Zn1 O17 2.024 . S
C2 O3 1.229 . S
C2 O11 1.058 . S
O3 C2 1.229 . S
C4 O5 1.229 . S
C4 O17 1.058 . S
O5 C4 1.229 . S
O6 Zn0 1.969 . S
O6 C9 1.267 . S
O7 Zn0 1.965 . S
O7 C18 1.260 . S
O8 Zn1 1.969 . S
O8 C18 1.258 . S
C9 O6 1.267 . S
C9 O10 1.228 . S
O10 C9 1.228 . S
O11 Zn0 2.024 . S
O11 C2 1.058 . S
C12 O13 1.231 . S
C12 O14 1.267 1_556 S
O13 C12 1.231 . S
O14 Zn1 1.969 . S
O14 C12 1.267 1_554 S
O15 Zn1 1.965 . S
O15 C19 1.260 . S
O16 Zn0 1.969 . S
O16 C19 1.258 . S
O17 Zn1 2.024 . S
O17 C4 1.058 . S
C18 O7 1.260 . S
C18 O8 1.258 . S
C19 O15 1.260 . S
C19 O16 1.258 . S
Zn20 O26 1.969 . S
Zn20 O27 1.965 . S
Zn20 O31 2.024 . S
Zn20 O36 1.969 . S
Zn21 O28 1.969 . S
Zn21 O34 1.969 . S
Zn21 O35 1.965 . S
Zn21 O37 2.024 . S
C22 O23 1.229 . S
C22 O31 1.058 . S
O23 C22 1.229 . S
C24 O25 1.229 . S
C24 O37 1.058 . S
O25 C24 1.229 . S
O26 Zn20 1.969 . S
O26 C29 1.267 . S
O27 Zn20 1.965 . S
O27 C38 1.260 . S
O28 Zn21 1.969 . S
O28 C38 1.258 . S
C29 O26 1.267 . S
C29 O30 1.228 . S
O30 C29 1.228 . S
O31 Zn20 2.024 . S
O31 C22 1.058 . S
C32 O33 1.228 . S
C32 O34 1.267 . S
O33 C32 1.228 . S
O34 Zn21 1.969 . S
O34 C32 1.267 . S
O35 Zn21 1.965 . S
O35 C39 1.260 . S
O36 Zn20 1.969 . S
O36 C39 1.258 . S
O37 Zn21 2.024 . S
O37 C24 1.058 . S
C38 O27 1.260 . S
C38 O28 1.258 . S
C39 O35 1.260 . S
C39 O36 1.258 . S
Zn40 O46 1.969 . S
Zn40 O47 1.965 . S
Zn40 O51 2.024 . S
Zn40 O56 1.969 . S
Zn41 O48 1.969 . S
Zn41 O54 1.969 . S
Zn41 O55 1.965 . S
Zn41 O57 2.024 . S
C42 O43 1.229 . S
C42 O51 1.058 . S
O43 C42 1.229 . S
C44 O45 1.229 . S
C44 O57 1.058 . S
O45 C44 1.229 . S
O46 Zn40 1.969 . S
O46 C49 1.267 . S
O47 Zn40 1.965 . S
O47 C58 1.260 . S
O48 Zn41 1.969 . S
O48 C58 1.258 . S
C49 O46 1.267 . S
C49 O50 1.228 . S
O50 C49 1.228 . S
O51 Zn40 2.024 . S
O51 C42 1.058 . S
C52 O53 1.228 . S
C52 O54 1.267 . S
O53 C52 1.228 . S
O54 Zn41 1.969 . S
O54 C52 1.267 . S
O55 Zn41 1.965 . S
O55 C59 1.260 . S
O56 Zn40 1.969 . S
O56 C59 1.258 . S
O57 Zn41 2.024 . S
O57 C44 1.058 . S
C58 O47 1.260 . S
C58 O48 1.258 . S
C59 O55 1.260 . S
C59 O56 1.258 . S
Zn60 O66 1.969 . S
Zn60 O67 1.965 1_554 S
Zn60 O71 2.024 1_554 S
Zn60 O76 1.969 1_554 S
Zn61 O68 1.969 . S
Zn61 O74 1.969 . S
Zn61 O75 1.965 . S
Zn61 O77 2.024 . S
C62 O63 1.229 . S
C62 O71 1.058 1_554 S
O63 C62 1.229 . S
C64 O65 1.229 . S
C64 O77 1.058 . S
O65 C64 1.229 . S
O66 Zn60 1.969 . S
O66 C69 1.267 . S
O67 Zn60 1.965 1_556 S
O67 C78 1.260 . S
O68 Zn61 1.969 . S
O68 C78 1.258 . S
C69 O66 1.267 . S
C69 O70 1.228 . S
O70 C69 1.228 . S
O71 Zn60 2.024 1_556 S
O71 C62 1.058 1_556 S
C72 O73 1.228 . S
C72 O74 1.267 . S
O73 C72 1.228 . S
O74 Zn61 1.969 . S
O74 C72 1.267 . S
O75 Zn61 1.965 . S
O75 C79 1.260 . S
O76 Zn60 1.969 1_556 S
O76 C79 1.258 . S
O77 Zn61 2.024 . S
O77 C64 1.058 . S
C78 O67 1.260 . S
C78 O68 1.258 . S
C79 O75 1.260 . S
C79 O76 1.258 . S
Zn80 O86 1.969 . S
Zn80 O87 1.965 1_554 S
Zn80 O91 2.024 1_554 S
Zn80 O96 1.969 1_554 S
Zn81 O88 1.969 . S
Zn81 O94 1.969 . S
Zn81 O95 1.965 . S
Zn81 O97 2.024 . S
C82 O83 1.229 . S
C82 O91 1.058 1_554 S
O83 C82 1.229 . S
C84 O85 1.229 . S
C84 O97 1.058 . S
O85 C84 1.229 . S
O86 Zn80 1.969 . S
O86 C89 1.267 . S
O87 Zn80 1.965 1_556 S
O87 C98 1.260 . S
O88 Zn81 1.969 . S
O88 C98 1.258 . S
C89 O86 1.267 . S
C89 O90 1.228 . S
O90 C89 1.228 . S
O91 Zn80 2.024 1_556 S
O91 C82 1.058 1_556 S
C92 O93 1.228 . S
C92 O94 1.267 . S
O93 C92 1.228 . S
O94 Zn81 1.969 . S
O94 C92 1.267 . S
O95 Zn81 1.965 . S
O95 C99 1.260 . S
O96 Zn80 1.969 1_556 S
O96 C99 1.258 . S
O97 Zn81 2.024 . S
O97 C84 1.058 . S
C98 O87 1.260 . S
C98 O88 1.258 . S
C99 O95 1.260 . S
C99 O96 1.258 . S
Zn100 O106 1.969 . S
Zn100 O107 1.965 . S
Zn100 O111 2.024 . S
Zn100 O116 1.969 . S
Zn101 O108 1.969 . S
Zn101 O114 1.969 . S
Zn101 O115 1.965 . S
Zn101 O117 2.024 . S
C102 O103 1.229 . S
C102 O111 1.058 . S
O103 C102 1.229 . S
C104 O105 1.229 . S
C104 O117 1.058 . S
O105 C104 1.229 . S
O106 Zn100 1.969 . S
O106 C109 1.267 . S
O107 Zn100 1.965 . S
O107 C118 1.260 . S
O108 Zn101 1.969 . S
O108 C118 1.258 . S
C109 O106 1.267 . S
C109 O110 1.228 . S
O110 C109 1.228 . S
O111 Zn100 2.024 . S
O111 C102 1.058 . S
C112 O113 1.228 1_556 S
C112 O114 1.267 1_556 S
O113 C112 1.228 1_554 S
O114 Zn101 1.969 . S
O114 C112 1.267 1_554 S
O115 Zn101 1.965 . S
O115 C119 1.260 . S
O116 Zn100 1.969 . S
O116 C119 1.258 . S
O117 Zn101 2.024 . S
O117 C104 1.058 . S
C118 O107 1.260 . S
C118 O108 1.258 . S
C119 O115 1.260 . S
C119 O116 1.258 . S
Zn120 O126 1.969 . S
Zn120 O127 1.965 . S
Zn120 O131 2.024 . S
Zn120 O136 1.969 . S
Zn121 O128 1.969 . S
Zn121 O134 1.969 . S
Zn121 O135 1.965 . S
Zn121 O137 2.024 . S
C122 O123 1.229 . S
C122 O131 1.058 . S
O123 C122 1.229 . S
C124 O125 1.229 . S
C124 O137 1.058 . S
O125 C124 1.229 . S
O126 Zn120 1.969 . S
O126 C129 1.267 . S
O127 Zn120 1.965 . S
O127 C138 1.260 . S
O128 Zn121 1.969 . S
O128 C138 1.258 . S
C129 O126 1.267 . S
C129 O130 1.228 . S
O130 C129 1.228 . S
O131 Zn120 2.024 . S
O131 C122 1.058 . S
C132 O133 1.228 . S
C132 O134 1.267 . S
O133 C132 1.228 . S
O134 Zn121 1.969 . S
O134 C132 1.267 . S
O135 Zn121 1.965 . S
O135 C139 1.260 . S
O136 Zn120 1.969 . S
O136 C139 1.258 . S
O137 Zn121 2.024 . S
O137 C124 1.058 . S
C138 O127 1.260 . S
C138 O128 1.258 . S
C139 O135 1.260 . S
C139 O136 1.258 . S
Zn140 O146 1.969 . S
Zn140 O147 1.965 . S
Zn140 O151 2.024 . S
Zn140 O156 1.969 . S
Zn141 O148 1.969 . S
Zn141 O154 1.969 . S
Zn141 O155 1.965 . S
Zn141 O157 2.024 . S
C142 O143 1.229 . S
C142 O151 1.058 . S
O143 C142 1.229 . S
C144 O145 1.229 . S
C144 O157 1.058 . S
O145 C144 1.229 . S
O146 Zn140 1.969 . S
O146 C149 1.267 . S
O147 Zn140 1.965 . S
O147 C158 1.260 . S
O148 Zn141 1.969 . S
O148 C158 1.258 . S
C149 O146 1.267 . S
C149 O150 1.228 . S
O150 C149 1.228 . S
O151 Zn140 2.024 . S
O151 C142 1.058 . S
C152 O153 1.228 . S
C152 O154 1.267 . S
O153 C152 1.228 . S
O154 Zn141 1.969 . S
O154 C152 1.267 . S
O155 Zn141 1.965 . S
O155 C159 1.260 . S
O156 Zn140 1.969 . S
O156 C159 1.258 . S
O157 Zn141 2.024 . S
O157 C144 1.058 . S
C158 O147 1.260 . S
C158 O148 1.258 . S
C159 O155 1.260 . S
C159 O156 1.258 . S
Zn160 O166 1.969 . S
Zn160 O167 1.965 . S
Zn160 O171 2.024 . S
Zn160 O176 1.969 . S
Zn161 O168 1.969 . S
Zn161 O174 1.969 . S
Zn161 O175 1.965 . S
Zn161 O177 2.024 . S
C162 O163 1.229 . S
C162 O171 1.058 . S
O163 C162 1.229 . S
C164 O165 1.229 . S
C164 O177 1.058 . S
O165 C164 1.229 . S
O166 Zn160 1.969 . S
O166 C169 1.267 1_556 S
O167 Zn160 1.965 . S
O167 C178 1.260 . S
O168 Zn161 1.969 . S
O168 C178 1.258 . S
C169 O166 1.267 1_554 S
C169 O170 1.228 . S
O170 C169 1.228 . S
O171 Zn160 2.024 . S
O171 C162 1.058 . S
C172 O173 1.228 . S
C172 O174 1.267 . S
O173 C172 1.228 . S
O174 Zn161 1.969 . S
O174 C172 1.267 . S
O175 Zn161 1.965 . S
O175 C179 1.260 . S
O176 Zn160 1.969 . S
O176 C179 1.258 . S
O177 Zn161 2.024 . S
O177 C164 1.058 . S
C178 O167 1.260 . S
C178 O168 1.258 . S
C179 O175 1.260 . S
C179 O176 1.258 . S
Zn180 O186 1.969 . S
Zn180 O187 1.965 . S
Zn180 O191 2.024 . S
Zn180 O196 1.969 . S
Zn181 O188 1.969 . S
Zn181 O194 1.969 . S
Zn181 O195 1.965 . S
Zn181 O197 2.024 . S
C182 O183 1.229 . S
C182 O191 1.058 . S
O183 C182 1.229 . S
C184 O185 1.229 . S
C184 O197 1.058 . S
O185 C184 1.229 . S
O186 Zn180 1.969 . S
O186 C189 1.267 . S
O187 Zn180 1.965 . S
O187 C198 1.260 . S
O188 Zn181 1.969 . S
O188 C198 1.258 . S
C189 O186 1.267 . S
C189 O190 1.228 . S
O190 C189 1.228 . S
O191 Zn180 2.024 . S
O191 C182 1.058 . S
C192 O193 1.228 . S
C192 O194 1.267 . S
O193 C192 1.228 . S
O194 Zn181 1.969 . S
O194 C192 1.267 . S
O195 Zn181 1.965 . S
O195 C199 1.260 . S
O196 Zn180 1.969 . S
O196 C199 1.258 . S
O197 Zn181 2.024 . S
O197 C184 1.058 . S
C198 O187 1.260 . S
C198 O188 1.258 . S
C199 O195 1.260 . S
C199 O196 1.258 . S
Zn200 O206 1.969 . S
Zn200 O207 1.965 . S
Zn200 O211 2.024 . S
Zn200 O216 1.969 . S
Zn201 O208 1.969 . S
Zn201 O214 1.969 . S
Zn201 O215 1.965 . S
Zn201 O217 2.024 . S
C202 O203 1.229 . S
C202 O211 1.058 . S
O203 C202 1.229 . S
C204 O205 1.229 . S
C204 O217 1.058 . S
O205 C204 1.229 . S
O206 Zn200 1.969 . S
O206 C209 1.267 . S
O207 Zn200 1.965 . S
O207 C218 1.260 . S
O208 Zn201 1.969 . S
O208 C218 1.258 . S
C209 O206 1.267 . S
C209 O210 1.228 . S
O210 C209 1.228 . S
O211 Zn200 2.024 . S
O211 C202 1.058 . S
C212 O213 1.228 . S
C212 O214 1.267 . S
O213 C212 1.228 . S
O214 Zn201 1.969 . S
O214 C212 1.267 . S
O215 Zn201 1.965 . S
O215 C219 1.260 . S
O216 Zn200 1.969 . S
O216 C219 1.258 . S
O217 Zn201 2.024 . S
O217 C204 1.058 . S
C218 O207 1.260 . S
C218 O208 1.258 . S
C219 O215 1.260 . S
C219 O216 1.258 . S
Zn220 O226 1.969 . S
Zn220 O227 1.965 . S
Zn220 O231 2.024 . S
Zn220 O236 1.969 . S
Zn221 O228 1.969 . S
Zn221 O234 1.969 1_554 S
Zn221 O235 1.965 . S
Zn221 O237 2.024 . S
C222 O223 1.229 . S
C222 O231 1.058 . S
O223 C222 1.229 . S
C224 O225 1.229 1_554 S
C224 O237 1.058 . S
O225 C224 1.229 1_556 S
O226 Zn220 1.969 . S
O226 C229 1.267 . S
O227 Zn220 1.965 . S
O227 C238 1.260 . S
O228 Zn221 1.969 . S
O228 C238 1.258 . S
C229 O226 1.267 . S
C229 O230 1.228 . S
O230 C229 1.228 . S
O231 Zn220 2.024 . S
O231 C222 1.058 . S
C232 O233 1.228 . S
C232 O234 1.267 . S
O233 C232 1.228 . S
O234 Zn221 1.969 1_556 S
O234 C232 1.267 . S
O235 Zn221 1.965 . S
O235 C239 1.260 . S
O236 Zn220 1.969 . S
O236 C239 1.258 . S
O237 Zn221 2.024 . S
O237 C224 1.058 . S
C238 O227 1.260 . S
C238 O228 1.258 . S
C239 O235 1.260 . S
C239 O236 1.258 . S
Zn240 O246 1.969 . S
Zn240 O247 1.965 . S
Zn240 O251 2.024 . S
Zn240 O256 1.969 . S
Zn241 O248 1.969 1_556 S
Zn241 O254 1.969 . S
Zn241 O255 1.965 1_556 S
Zn241 O257 2.024 1_556 S
C242 O243 1.229 . S
C242 O251 1.058 . S
O243 C242 1.229 . S
C244 O245 1.229 . S
C244 O257 1.058 1_556 S
O245 C244 1.229 . S
O246 Zn240 1.969 . S
O246 C249 1.267 . S
O247 Zn240 1.965 . S
O247 C258 1.260 . S
O248 Zn241 1.969 1_554 S
O248 C258 1.258 . S
C249 O246 1.267 . S
C249 O250 1.228 . S
O250 C249 1.228 . S
O251 Zn240 2.024 . S
O251 C242 1.058 . S
C252 O253 1.228 . S
C252 O254 1.267 . S
O253 C252 1.228 . S
O254 Zn241 1.969 . S
O254 C252 1.267 . S
O255 Zn241 1.965 1_554 S
O255 C259 1.260 . S
O256 Zn240 1.969 . S
O256 C259 1.258 . S
O257 Zn241 2.024 1_554 S
O257 C244 1.058 1_554 S
C258 O247 1.260 . S
C258 O248 1.258 . S
C259 O255 1.260 . S
C259 O256 1.258 . S
Zn260 O266 1.969 . S
Zn260 O267 1.965 . S
Zn260 O271 2.024 . S
Zn260 O276 1.969 . S
Zn261 O268 1.969 . S
Zn261 O274 1.969 . S
Zn261 O275 1.965 . S
Zn261 O277 2.024 . S
C262 O263 1.229 . S
C262 O271 1.058 . S
O263 C262 1.229 . S
C264 O265 1.229 . S
C264 O277 1.058 . S
O265 C264 1.229 . S
O266 Zn260 1.969 . S
O266 C269 1.267 1_556 S
O267 Zn260 1.965 . S
O267 C278 1.260 . S
O268 Zn261 1.969 . S
O268 C278 1.258 . S
C269 O266 1.267 1_554 S
C269 O270 1.228 . S
O270 C269 1.228 . S
O271 Zn260 2.024 . S
O271 C262 1.058 . S
C272 O273 1.228 . S
C272 O274 1.267 . S
O273 C272 1.228 . S
O274 Zn261 1.969 . S
O274 C272 1.267 . S
O275 Zn261 1.965 . S
O275 C279 1.260 . S
O276 Zn260 1.969 . S
O276 C279 1.258 . S
O277 Zn261 2.024 . S
O277 C264 1.058 . S
C278 O267 1.260 . S
C278 O268 1.258 . S
C279 O275 1.260 . S
C279 O276 1.258 . S
Zn280 O286 1.969 . S
Zn280 O287 1.965 . S
Zn280 O291 2.024 . S
Zn280 O296 1.969 . S
Zn281 O288 1.969 . S
Zn281 O294 1.969 . S
Zn281 O295 1.965 . S
Zn281 O297 2.024 . S
C282 O283 1.229 . S
C282 O291 1.058 . S
O283 C282 1.229 . S
C284 O285 1.229 . S
C284 O297 1.058 . S
O285 C284 1.229 . S
O286 Zn280 1.969 . S
O286 C289 1.267 . S
O287 Zn280 1.965 . S
O287 C298 1.260 . S
O288 Zn281 1.969 . S
O288 C298 1.258 . S
C289 O286 1.267 . S
C289 O290 1.228 . S
O290 C289 1.228 . S
O291 Zn280 2.024 . S
O291 C282 1.058 . S
C292 O293 1.228 . S
C292 O294 1.267 . S
O293 C292 1.228 . S
O294 Zn281 1.969 . S
O294 C292 1.267 . S
O295 Zn281 1.965 . S
O295 C299 1.260 . S
O296 Zn280 1.969 . S
O296 C299 1.258 . S
O297 Zn281 2.024 . S
O297 C284 1.058 . S
C298 O287 1.260 . S
C298 O288 1.258 . S
C299 O295 1.260 . S
C299 O296 1.258 . S
Zn300 O306 1.969 . S
Zn300 O307 1.965 . S
Zn300 O311 2.024 . S
Zn300 O316 1.969 . S
Zn301 O308 1.969 . S
Zn301 O314 1.969 . S
Zn301 O315 1.965 . S
Zn301 O317 2.024 . S
C302 O303 1.229 . S
C302 O311 1.058 . S
O303 C302 1.229 . S
C304 O305 1.229 . S
C304 O317 1.058 . S
O305 C304 1.229 . S
O306 Zn300 1.969 . S
O306 C309 1.267 . S
O307 Zn300 1.965 . S
O307 C318 1.260 . S
O308 Zn301 1.969 . S
O308 C318 1.258 . S
C309 O306 1.267 . S
C309 O310 1.228 . S
O310 C309 1.228 . S
O311 Zn300 2.024 . S
O311 C302 1.058 . S
C312 O313 1.228 . S
C312 O314 1.267 . S
O313 C312 1.228 . S
O314 Zn301 1.969 . S
O314 C312 1.267 . S
O315 Zn301 1.965 . S
O315 C319 1.260 . S
O316 Zn300 1.969 . S
O316 C319 1.258 . S
O317 Zn301 2.024 . S
O317 C304 1.058 . S
C318 O307 1.260 . S
C318 O308 1.258 . S
C319 O315 1.260 . S
C319 O316 1.258 . S
H320 C338 0.951 . S
H321 C340 0.951 . S
H322 C342 0.950 . S
H323 C343 0.950 . S
H324 C345 0.950 . S
H325 C348 0.950 . S
H326 C349 0.950 . S
H327 C351 0.950 . S
H328 C352 0.950 . S
H329 C353 0.951 . S
H330 C355 0.951 . S
H331 C357 0.950 . S
H332 C358 0.950 . S
H333 C360 0.950 . S
H334 C363 0.950 . S
H335 C364 0.950 . S
H336 C366 0.950 . S
H337 C367 0.950 . S
C338 H320 0.951 . S
C338 C339 1.366 . S
C338 C340 1.388 . S
C339 C338 1.366 . S
C339 C343 1.385 . S
C340 H321 0.951 . S
C340 C338 1.388 . S
C340 C341 1.366 . S
C341 C340 1.366 . S
C341 C342 1.414 . S
C341 C344 1.499 . S
C342 H322 0.950 . S
C342 C341 1.414 . S
C342 C343 1.374 . S
C343 H323 0.950 . S
C343 C339 1.385 . S
C343 C342 1.374 . S
C344 C341 1.499 . S
C344 C345 1.373 . S
C344 C346 1.389 . S
C345 H324 0.950 . S
C345 C344 1.373 . S
C345 C361 1.377 . S
C346 C344 1.389 . S
C346 C347 1.524 . S
C346 C360 1.377 . S
C347 C346 1.524 . S
C347 C348 1.397 . S
C347 C352 1.363 . S
C348 H325 0.950 . S
C348 C347 1.397 . S
C348 C349 1.334 . S
C349 H326 0.950 . S
C349 C348 1.334 . S
C349 C350 1.287 . S
C350 C349 1.287 . S
C350 C351 1.524 . S
C350 H369 0.913 . S
C351 H327 0.950 . S
C351 C350 1.524 . S
C351 C352 1.415 . S
C352 H328 0.950 . S
C352 C347 1.363 . S
C352 C351 1.415 . S
C353 H329 0.951 . S
C353 C354 1.366 . S
C353 C355 1.388 . S
C354 C353 1.366 . S
C354 C358 1.385 . S
C355 H330 0.951 . S
C355 C353 1.388 . S
C355 C356 1.366 . S
C356 C355 1.366 . S
C356 C357 1.414 . S
C356 C359 1.499 . S
C357 H331 0.950 . S
C357 C356 1.414 . S
C357 C358 1.374 . S
C358 H332 0.950 . S
C358 C354 1.385 . S
C358 C357 1.374 . S
C359 C356 1.499 . S
C359 C360 1.373 . S
C359 C361 1.389 . S
C360 H333 0.950 . S
C360 C346 1.377 . S
C360 C359 1.373 . S
C361 C345 1.377 . S
C361 C359 1.389 . S
C361 C362 1.524 . S
C362 C361 1.524 . S
C362 C363 1.397 . S
C362 C367 1.363 . S
C363 H334 0.950 . S
C363 C362 1.397 . S
C363 C364 1.334 . S
C364 H335 0.950 . S
C364 C363 1.334 . S
C364 C365 1.287 . S
C365 C364 1.287 . S
C365 C366 1.524 . S
C365 H368 0.999 . S
C366 H336 0.950 . S
C366 C365 1.524 . S
C366 C367 1.415 . S
C367 H337 0.950 . S
C367 C362 1.363 . S
C367 C366 1.415 . S
H368 C365 0.999 . S
H369 C350 0.913 . S
H370 C388 0.951 . S
H371 C390 0.951 . S
H372 C392 0.950 . S
H373 C393 0.950 . S
H374 C395 0.950 . S
H375 C398 0.950 . S
H376 C399 0.950 1_554 S
H377 C401 0.950 . S
H378 C402 0.950 . S
H379 C403 0.951 . S
H380 C405 0.951 . S
H381 C407 0.950 . S
H382 C408 0.950 . S
H383 C410 0.950 . S
H384 C413 0.950 . S
H385 C414 0.950 . S
H386 C416 0.950 . S
H387 C417 0.950 . S
C388 H370 0.951 . S
C388 C389 1.366 . S
C388 C390 1.388 . S
C389 C388 1.366 . S
C389 C393 1.385 . S
C390 H371 0.951 . S
C390 C388 1.388 . S
C390 C391 1.366 . S
C391 C390 1.366 . S
C391 C392 1.414 . S
C391 C394 1.499 1_554 S
C392 H372 0.950 . S
C392 C391 1.414 . S
C392 C393 1.374 . S
C393 H373 0.950 . S
C393 C389 1.385 . S
C393 C392 1.374 . S
C394 C391 1.499 1_556 S
C394 C395 1.373 . S
C394 C396 1.389 . S
C395 H374 0.950 . S
C395 C394 1.373 . S
C395 C411 1.377 . S
C396 C394 1.389 . S
C396 C397 1.524 . S
C396 C410 1.377 . S
C397 C396 1.524 . S
C397 C398 1.397 . S
C397 C402 1.363 . S
C398 H375 0.950 . S
C398 C397 1.397 . S
C398 C399 1.334 . S
C399 H376 0.950 1_556 S
C399 C398 1.334 . S
C399 C400 1.287 . S
C400 C399 1.287 . S
C400 C401 1.524 . S
C400 H419 0.913 1_556 S
C401 H377 0.950 . S
C401 C400 1.524 . S
C401 C402 1.415 . S
C402 H378 0.950 . S
C402 C397 1.363 . S
C402 C401 1.415 . S
C403 H379 0.951 . S
C403 C404 1.366 . S
C403 C405 1.388 . S
C404 C403 1.366 . S
C404 C408 1.385 . S
C405 H380 0.951 . S
C405 C403 1.388 . S
C405 C406 1.366 . S
C406 C405 1.366 . S
C406 C407 1.414 . S
C406 C409 1.499 . S
C407 H381 0.950 . S
C407 C406 1.414 . S
C407 C408 1.374 . S
C408 H382 0.950 . S
C408 C404 1.385 . S
C408 C407 1.374 . S
C409 C406 1.499 . S
C409 C410 1.373 . S
C409 C411 1.389 . S
C410 H383 0.950 . S
C410 C396 1.377 . S
C410 C409 1.373 . S
C411 C395 1.377 . S
C411 C409 1.389 . S
C411 C412 1.524 . S
C412 C411 1.524 . S
C412 C413 1.397 . S
C412 C417 1.363 . S
C413 H384 0.950 . S
C413 C412 1.397 . S
C413 C414 1.334 . S
C414 H385 0.950 . S
C414 C413 1.334 . S
C414 C415 1.287 . S
C415 C414 1.287 . S
C415 C416 1.524 . S
C415 H418 0.999 . S
C416 H386 0.950 . S
C416 C415 1.524 . S
C416 C417 1.415 . S
C417 H387 0.950 . S
C417 C412 1.363 . S
C417 C416 1.415 . S
H418 C415 0.999 . S
H419 C400 0.913 1_554 S
H420 C438 0.951 . S
H421 C440 0.951 . S
H422 C442 0.950 . S
H423 C443 0.950 . S
H424 C445 0.950 . S
H425 C448 0.950 . S
H426 C449 0.950 . S
H427 C451 0.950 . S
H428 C452 0.950 . S
H429 C453 0.951 . S
H430 C455 0.951 . S
H431 C457 0.950 . S
H432 C458 0.950 . S
H433 C460 0.950 . S
H434 C463 0.950 . S
H435 C464 0.950 . S
H436 C466 0.950 . S
H437 C467 0.950 . S
C438 H420 0.951 . S
C438 C439 1.366 . S
C438 C440 1.388 . S
C439 C438 1.366 . S
C439 C443 1.385 . S
C440 H421 0.951 . S
C440 C438 1.388 . S
C440 C441 1.366 . S
C441 C440 1.366 . S
C441 C442 1.414 . S
C441 C444 1.499 . S
C442 H422 0.950 . S
C442 C441 1.414 . S
C442 C443 1.374 . S
C443 H423 0.950 . S
C443 C439 1.385 . S
C443 C442 1.374 . S
C444 C441 1.499 . S
C444 C445 1.373 . S
C444 C446 1.389 . S
C445 H424 0.950 . S
C445 C444 1.373 . S
C445 C461 1.377 . S
C446 C444 1.389 . S
C446 C447 1.524 . S
C446 C460 1.377 . S
C447 C446 1.524 . S
C447 C448 1.397 . S
C447 C452 1.363 . S
C448 H425 0.950 . S
C448 C447 1.397 . S
C448 C449 1.334 . S
C449 H426 0.950 . S
C449 C448 1.334 . S
C449 C450 1.287 . S
C450 C449 1.287 . S
C450 C451 1.524 . S
C450 H469 0.913 . S
C451 H427 0.950 . S
C451 C450 1.524 . S
C451 C452 1.415 . S
C452 H428 0.950 . S
C452 C447 1.363 . S
C452 C451 1.415 . S
C453 H429 0.951 . S
C453 C454 1.366 . S
C453 C455 1.388 1_556 S
C454 C453 1.366 . S
C454 C458 1.385 . S
C455 H430 0.951 . S
C455 C453 1.388 1_554 S
C455 C456 1.366 . S
C456 C455 1.366 . S
C456 C457 1.414 . S
C456 C459 1.499 . S
C457 H431 0.950 . S
C457 C456 1.414 . S
C457 C458 1.374 1_554 S
C458 H432 0.950 . S
C458 C454 1.385 . S
C458 C457 1.374 1_556 S
C459 C456 1.499 . S
C459 C460 1.373 . S
C459 C461 1.389 . S
C460 H433 0.950 . S
C460 C446 1.377 . S
C460 C459 1.373 . S
C461 C445 1.377 . S
C461 C459 1.389 . S
C461 C462 1.524 . S
C462 C461 1.524 . S
C462 C463 1.397 . S
C462 C467 1.363 . S
C463 H434 0.950 . S
C463 C462 1.397 . S
C463 C464 1.334 . S
C464 H435 0.950 . S
C464 C463 1.334 . S
C464 C465 1.287 . S
C465 C464 1.287 . S
C465 C466 1.524 . S
C465 H468 0.999 . S
C466 H436 0.950 . S
C466 C465 1.524 . S
C466 C467 1.415 . S
C467 H437 0.950 . S
C467 C462 1.363 . S
C467 C466 1.415 . S
H468 C465 0.999 . S
H469 C450 0.913 . S
H470 C488 0.951 . S
H471 C490 0.951 . S
H472 C492 0.950 . S
H473 C493 0.950 . S
H474 C495 0.950 . S
H475 C498 0.950 . S
H476 C499 0.950 . S
H477 C501 0.950 . S
H478 C502 0.950 . S
H479 C503 0.951 . S
H480 C505 0.951 . S
H481 C507 0.950 . S
H482 C508 0.950 . S
H483 C510 0.950 . S
H484 C513 0.950 . S
H485 C514 0.950 . S
H486 C516 0.950 . S
H487 C517 0.950 . S
C488 H470 0.951 . S
C488 C489 1.366 . S
C488 C490 1.388 . S
C489 C488 1.366 . S
C489 C493 1.385 . S
C490 H471 0.951 . S
C490 C488 1.388 . S
C490 C491 1.366 . S
C491 C490 1.366 . S
C491 C492 1.414 . S
C491 C494 1.499 . S
C492 H472 0.950 . S
C492 C491 1.414 . S
C492 C493 1.374 . S
C493 H473 0.950 . S
C493 C489 1.385 . S
C493 C492 1.374 . S
C494 C491 1.499 . S
C494 C495 1.373 . S
C494 C496 1.389 . S
C495 H474 0.950 . S
C495 C494 1.373 . S
C495 C511 1.377 . S
C496 C494 1.389 . S
C496 C497 1.524 . S
C496 C510 1.377 . S
C497 C496 1.524 . S
C497 C498 1.397 . S
C497 C502 1.363 . S
C498 H475 0.950 . S
C498 C497 1.397 . S
C498 C499 1.334 . S
C499 H476 0.950 . S
C499 C498 1.334 . S
C499 C500 1.287 . S
C500 C499 1.287 . S
C500 C501 1.524 . S
C500 H519 0.913 . S
C501 H477 0.950 . S
C501 C500 1.524 . S
C501 C502 1.415 . S
C502 H478 0.950 . S
C502 C497 1.363 . S
C502 C501 1.415 . S
C503 H479 0.951 . S
C503 C504 1.366 . S
C503 C505 1.388 . S
C504 C503 1.366 . S
C504 C508 1.385 . S
C505 H480 0.951 . S
C505 C503 1.388 . S
C505 C506 1.366 . S
C506 C505 1.366 . S
C506 C507 1.414 . S
C506 C509 1.499 . S
C507 H481 0.950 . S
C507 C506 1.414 . S
C507 C508 1.374 . S
C508 H482 0.950 . S
C508 C504 1.385 . S
C508 C507 1.374 . S
C509 C506 1.499 . S
C509 C510 1.373 . S
C509 C511 1.389 . S
C510 H483 0.950 . S
C510 C496 1.377 . S
C510 C509 1.373 . S
C511 C495 1.377 . S
C511 C509 1.389 . S
C511 C512 1.524 . S
C512 C511 1.524 . S
C512 C513 1.397 . S
C512 C517 1.363 . S
C513 H484 0.950 . S
C513 C512 1.397 . S
C513 C514 1.334 . S
C514 H485 0.950 . S
C514 C513 1.334 . S
C514 C515 1.287 . S
C515 C514 1.287 . S
C515 C516 1.524 . S
C515 H518 0.999 . S
C516 H486 0.950 . S
C516 C515 1.524 . S
C516 C517 1.415 . S
C517 H487 0.950 . S
C517 C512 1.363 . S
C517 C516 1.415 . S
H518 C515 0.999 . S
H519 C500 0.913 . S
H520 C538 0.951 . S
H521 C540 0.951 . S
H522 C542 0.950 . S
H523 C543 0.950 . S
H524 C545 0.950 . S
H525 C548 0.950 . S
H526 C549 0.950 . S
H527 C551 0.950 . S
H528 C552 0.950 . S
H529 C553 0.951 . S
H530 C555 0.951 . S
H531 C557 0.950 . S
H532 C558 0.950 . S
H533 C560 0.950 . S
H534 C563 0.950 . S
H535 C564 0.950 . S
H536 C566 0.950 . S
H537 C567 0.950 . S
C538 H520 0.951 . S
C538 C539 1.366 . S
C538 C540 1.388 . S
C539 C538 1.366 . S
C539 C543 1.385 . S
C540 H521 0.951 . S
C540 C538 1.388 . S
C540 C541 1.366 . S
C541 C540 1.366 . S
C541 C542 1.414 . S
C541 C544 1.499 . S
C542 H522 0.950 . S
C542 C541 1.414 . S
C542 C543 1.374 . S
C543 H523 0.950 . S
C543 C539 1.385 . S
C543 C542 1.374 . S
C544 C541 1.499 . S
C544 C545 1.373 . S
C544 C546 1.389 . S
C545 H524 0.950 . S
C545 C544 1.373 . S
C545 C561 1.377 . S
C546 C544 1.389 . S
C546 C547 1.524 . S
C546 C560 1.377 . S
C547 C546 1.524 . S
C547 C548 1.397 . S
C547 C552 1.363 . S
C548 H525 0.950 . S
C548 C547 1.397 . S
C548 C549 1.334 . S
C549 H526 0.950 . S
C549 C548 1.334 . S
C549 C550 1.287 . S
C550 C549 1.287 . S
C550 C551 1.524 . S
C550 H569 0.913 . S
C551 H527 0.950 . S
C551 C550 1.524 . S
C551 C552 1.415 . S
C552 H528 0.950 . S
C552 C547 1.363 . S
C552 C551 1.415 . S
C553 H529 0.951 . S
C553 C554 1.366 . S
C553 C555 1.388 . S
C554 C553 1.366 . S
C554 C558 1.385 . S
C555 H530 0.951 . S
C555 C553 1.388 . S
C555 C556 1.366 . S
C556 C555 1.366 . S
C556 C557 1.414 . S
C556 C559 1.499 . S
C557 H531 0.950 . S
C557 C556 1.414 . S
C557 C558 1.374 . S
C558 H532 0.950 . S
C558 C554 1.385 . S
C558 C557 1.374 . S
C559 C556 1.499 . S
C559 C560 1.373 . S
C559 C561 1.389 . S
C560 H533 0.950 . S
C560 C546 1.377 . S
C560 C559 1.373 . S
C561 C545 1.377 . S
C561 C559 1.389 . S
C561 C562 1.524 . S
C562 C561 1.524 . S
C562 C563 1.397 . S
C562 C567 1.363 . S
C563 H534 0.950 . S
C563 C562 1.397 . S
C563 C564 1.334 . S
C564 H535 0.950 . S
C564 C563 1.334 . S
C564 C565 1.287 . S
C565 C564 1.287 . S
C565 C566 1.524 . S
C565 H568 0.999 . S
C566 H536 0.950 . S
C566 C565 1.524 . S
C566 C567 1.415 . S
C567 H537 0.950 . S
C567 C562 1.363 . S
C567 C566 1.415 . S
H568 C565 0.999 . S
H569 C550 0.913 . S
H570 C588 0.951 . S
H571 C590 0.951 . S
H572 C592 0.950 . S
H573 C593 0.950 . S
H574 C595 0.950 . S
H575 C598 0.950 . S
H576 C599 0.950 . S
H577 C601 0.950 . S
H578 C602 0.950 . S
H579 C603 0.951 . S
H580 C605 0.951 . S
H581 C607 0.950 . S
H582 C608 0.950 . S
H583 C610 0.950 . S
H584 C613 0.950 . S
H585 C614 0.950 . S
H586 C616 0.950 . S
H587 C617 0.950 . S
C588 H570 0.951 . S
C588 C589 1.366 . S
C588 C590 1.388 . S
C589 C588 1.366 . S
C589 C593 1.385 . S
C590 H571 0.951 . S
C590 C588 1.388 . S
C590 C591 1.366 . S
C591 C590 1.366 . S
C591 C592 1.414 . S
C591 C594 1.499 . S
C592 H572 0.950 . S
C592 C591 1.414 . S
C592 C593 1.374 . S
C593 H573 0.950 . S
C593 C589 1.385 . S
C593 C592 1.374 . S
C594 C591 1.499 . S
C594 C595 1.373 . S
C594 C596 1.389 . S
C595 H574 0.950 . S
C595 C594 1.373 . S
C595 C611 1.377 . S
C596 C594 1.389 . S
C596 C597 1.524 . S
C596 C610 1.377 . S
C597 C596 1.524 . S
C597 C598 1.397 . S
C597 C602 1.363 . S
C598 H575 0.950 . S
C598 C597 1.397 . S
C598 C599 1.334 . S
C599 H576 0.950 . S
C599 C598 1.334 . S
C599 C600 1.287 . S
C600 C599 1.287 . S
C600 C601 1.524 . S
C600 H619 0.913 . S
C601 H577 0.950 . S
C601 C600 1.524 . S
C601 C602 1.415 . S
C602 H578 0.950 . S
C602 C597 1.363 . S
C602 C601 1.415 . S
C603 H579 0.951 . S
C603 C604 1.366 . S
C603 C605 1.388 . S
C604 C603 1.366 . S
C604 C608 1.385 . S
C605 H580 0.951 . S
C605 C603 1.388 . S
C605 C606 1.366 . S
C606 C605 1.366 . S
C606 C607 1.414 . S
C606 C609 1.499 . S
C607 H581 0.950 . S
C607 C606 1.414 . S
C607 C608 1.374 . S
C608 H582 0.950 . S
C608 C604 1.385 . S
C608 C607 1.374 . S
C609 C606 1.499 . S
C609 C610 1.373 . S
C609 C611 1.389 . S
C610 H583 0.950 . S
C610 C596 1.377 . S
C610 C609 1.373 . S
C611 C595 1.377 . S
C611 C609 1.389 . S
C611 C612 1.524 . S
C612 C611 1.524 . S
C612 C613 1.397 . S
C612 C617 1.363 . S
C613 H584 0.950 . S
C613 C612 1.397 . S
C613 C614 1.334 . S
C614 H585 0.950 . S
C614 C613 1.334 . S
C614 C615 1.287 . S
C615 C614 1.287 . S
C615 C616 1.524 . S
C615 H618 0.999 . S
C616 H586 0.950 . S
C616 C615 1.524 . S
C616 C617 1.415 . S
C617 H587 0.950 . S
C617 C612 1.363 . S
C617 C616 1.415 . S
H618 C615 0.999 . S
H619 C600 0.913 . S
H620 C638 0.951 . S
H621 C640 0.951 . S
H622 C642 0.950 . S
H623 C643 0.950 . S
H624 C645 0.950 . S
H625 C648 0.950 . S
H626 C649 0.950 . S
H627 C651 0.950 . S
H628 C652 0.950 . S
H629 C653 0.951 . S
H630 C655 0.951 . S
H631 C657 0.950 . S
H632 C658 0.950 . S
H633 C660 0.950 . S
H634 C663 0.950 . S
H635 C664 0.950 1_554 S
H636 C666 0.950 . S
H637 C667 0.950 . S
C638 H620 0.951 . S
C638 C639 1.366 . S
C638 C640 1.388 . S
C639 C638 1.366 . S
C639 C643 1.385 . S
C640 H621 0.951 . S
C640 C638 1.388 . S
C640 C641 1.366 . S
C641 C640 1.366 . S
C641 C642 1.414 . S
C641 C644 1.499 . S
C642 H622 0.950 . S
C642 C641 1.414 . S
C642 C643 1.374 . S
C643 H623 0.950 . S
C643 C639 1.385 . S
C643 C642 1.374 . S
C644 C641 1.499 . S
C644 C645 1.373 . S
C644 C646 1.389 . S
C645 H624 0.950 . S
C645 C644 1.373 . S
C645 C661 1.377 . S
C646 C644 1.389 . S
C646 C647 1.524 . S
C646 C660 1.377 . S
C647 C646 1.524 . S
C647 C648 1.397 . S
C647 C652 1.363 . S
C648 H625 0.950 . S
C648 C647 1.397 . S
C648 C649 1.334 . S
C649 H626 0.950 . S
C649 C648 1.334 . S
C649 C650 1.287 . S
C650 C649 1.287 . S
C650 C651 1.524 . S
C650 H669 0.913 . S
C651 H627 0.950 . S
C651 C650 1.524 . S
C651 C652 1.415 . S
C652 H628 0.950 . S
C652 C647 1.363 . S
C652 C651 1.415 . S
C653 H629 0.951 . S
C653 C654 1.366 . S
C653 C655 1.388 . S
C654 C653 1.366 . S
C654 C658 1.385 . S
C655 H630 0.951 . S
C655 C653 1.388 . S
C655 C656 1.366 . S
C656 C655 1.366 . S
C656 C657 1.414 . S
C656 C659 1.499 1_554 S
C657 H631 0.950 . S
C657 C656 1.414 . S
C657 C658 1.374 . S
C658 H632 0.950 . S
C658 C654 1.385 . S
C658 C657 1.374 . S
C659 C656 1.499 1_556 S
C659 C660 1.373 . S
C659 C661 1.389 . S
C660 H633 0.950 . S
C660 C646 1.377 . S
C660 C659 1.373 . S
C661 C645 1.377 . S
C661 C659 1.389 . S
C661 C662 1.524 . S
C662 C661 1.524 . S
C662 C663 1.397 . S
C662 C667 1.363 . S
C663 H634 0.950 . S
C663 C662 1.397 . S
C663 C664 1.334 . S
C664 H635 0.950 1_556 S
C664 C663 1.334 . S
C664 C665 1.287 . S
C665 C664 1.287 . S
C665 C666 1.524 . S
C665 H668 0.999 . S
C666 H636 0.950 . S
C666 C665 1.524 . S
C666 C667 1.415 . S
C667 H637 0.950 . S
C667 C662 1.363 . S
C667 C666 1.415 . S
H668 C665 0.999 . S
H669 C650 0.913 . S
H670 C688 0.951 . S
H671 C690 0.951 . S
H672 C692 0.950 . S
H673 C693 0.950 . S
H674 C695 0.950 . S
H675 C698 0.950 . S
H676 C699 0.950 . S
H677 C701 0.950 . S
H678 C702 0.950 . S
H679 C703 0.951 . S
H680 C705 0.951 . S
H681 C707 0.950 . S
H682 C708 0.950 . S
H683 C710 0.950 . S
H684 C713 0.950 . S
H685 C714 0.950 . S
H686 C716 0.950 . S
H687 C717 0.950 . S
C688 H670 0.951 . S
C688 C689 1.366 . S
C688 C690 1.388 1_556 S
C689 C688 1.366 . S
C689 C693 1.385 . S
C690 H671 0.951 . S
C690 C688 1.388 1_554 S
C690 C691 1.366 . S
C691 C690 1.366 . S
C691 C692 1.414 . S
C691 C694 1.499 . S
C692 H672 0.950 . S
C692 C691 1.414 . S
C692 C693 1.374 1_554 S
C693 H673 0.950 . S
C693 C689 1.385 . S
C693 C692 1.374 1_556 S
C694 C691 1.499 . S
C694 C695 1.373 . S
C694 C696 1.389 . S
C695 H674 0.950 . S
C695 C694 1.373 . S
C695 C711 1.377 . S
C696 C694 1.389 . S
C696 C697 1.524 . S
C696 C710 1.377 . S
C697 C696 1.524 . S
C697 C698 1.397 . S
C697 C702 1.363 . S
C698 H675 0.950 . S
C698 C697 1.397 . S
C698 C699 1.334 . S
C699 H676 0.950 . S
C699 C698 1.334 . S
C699 C700 1.287 . S
C700 C699 1.287 . S
C700 C701 1.524 . S
C700 H719 0.913 . S
C701 H677 0.950 . S
C701 C700 1.524 . S
C701 C702 1.415 . S
C702 H678 0.950 . S
C702 C697 1.363 . S
C702 C701 1.415 . S
C703 H679 0.951 . S
C703 C704 1.366 . S
C703 C705 1.388 . S
C704 C703 1.366 . S
C704 C708 1.385 . S
C705 H680 0.951 . S
C705 C703 1.388 . S
C705 C706 1.366 . S
C706 C705 1.366 . S
C706 C707 1.414 . S
C706 C709 1.499 . S
C707 H681 0.950 . S
C707 C706 1.414 . S
C707 C708 1.374 . S
C708 H682 0.950 . S
C708 C704 1.385 . S
C708 C707 1.374 . S
C709 C706 1.499 . S
C709 C710 1.373 . S
C709 C711 1.389 . S
C710 H683 0.950 . S
C710 C696 1.377 . S
C710 C709 1.373 . S
C711 C695 1.377 . S
C711 C709 1.389 . S
C711 C712 1.524 . S
C712 C711 1.524 . S
C712 C713 1.397 . S
C712 C717 1.363 . S
C713 H684 0.950 . S
C713 C712 1.397 . S
C713 C714 1.334 . S
C714 H685 0.950 . S
C714 C713 1.334 . S
C714 C715 1.287 . S
C715 C714 1.287 . S
C715 C716 1.524 . S
C715 H718 0.999 . S
C716 H686 0.950 . S
C716 C715 1.524 . S
C716 C717 1.415 . S
C717 H687 0.950 . S
C717 C712 1.363 . S
C717 C716 1.415 . S
H718 C715 0.999 . S
H719 C700 0.913 . S
H720 C738 0.951 . S
H721 C740 0.951 . S
H722 C742 0.950 . S
H723 C743 0.950 . S
H724 C745 0.950 . S
H725 C748 0.950 . S
H726 C749 0.950 . S
H727 C751 0.950 . S
H728 C752 0.950 . S
H729 C753 0.951 . S
H730 C755 0.951 . S
H731 C757 0.950 . S
H732 C758 0.950 . S
H733 C760 0.950 . S
H734 C763 0.950 . S
H735 C764 0.950 . S
H736 C766 0.950 . S
H737 C767 0.950 . S
C738 H720 0.951 . S
C738 C739 1.366 . S
C738 C740 1.388 . S
C739 C738 1.366 . S
C739 C743 1.385 . S
C740 H721 0.951 . S
C740 C738 1.388 . S
C740 C741 1.366 . S
C741 C740 1.366 . S
C741 C742 1.414 . S
C741 C744 1.499 . S
C742 H722 0.950 . S
C742 C741 1.414 . S
C742 C743 1.374 . S
C743 H723 0.950 . S
C743 C739 1.385 . S
C743 C742 1.374 . S
C744 C741 1.499 . S
C744 C745 1.373 . S
C744 C746 1.389 . S
C745 H724 0.950 . S
C745 C744 1.373 . S
C745 C761 1.377 . S
C746 C744 1.389 . S
C746 C747 1.524 . S
C746 C760 1.377 . S
C747 C746 1.524 . S
C747 C748 1.397 . S
C747 C752 1.363 . S
C748 H725 0.950 . S
C748 C747 1.397 . S
C748 C749 1.334 . S
C749 H726 0.950 . S
C749 C748 1.334 . S
C749 C750 1.287 . S
C750 C749 1.287 . S
C750 C751 1.524 . S
C750 H769 0.913 . S
C751 H727 0.950 . S
C751 C750 1.524 . S
C751 C752 1.415 . S
C752 H728 0.950 . S
C752 C747 1.363 . S
C752 C751 1.415 . S
C753 H729 0.951 . S
C753 C754 1.366 . S
C753 C755 1.388 . S
C754 C753 1.366 . S
C754 C758 1.385 . S
C755 H730 0.951 . S
C755 C753 1.388 . S
C755 C756 1.366 . S
C756 C755 1.366 . S
C756 C757 1.414 . S
C756 C759 1.499 . S
C757 H731 0.950 . S
C757 C756 1.414 . S
C757 C758 1.374 . S
C758 H732 0.950 . S
C758 C754 1.385 . S
C758 C757 1.374 . S
C759 C756 1.499 . S
C759 C760 1.373 . S
C759 C761 1.389 . S
C760 H733 0.950 . S
C760 C746 1.377 . S
C760 C759 1.373 . S
C761 C745 1.377 . S
C761 C759 1.389 . S
C761 C762 1.524 . S
C762 C761 1.524 . S
C762 C763 1.397 . S
C762 C767 1.363 . S
C763 H734 0.950 . S
C763 C762 1.397 . S
C763 C764 1.334 . S
C764 H735 0.950 . S
C764 C763 1.334 . S
C764 C765 1.287 . S
C765 C764 1.287 . S
C765 C766 1.524 . S
C765 H768 0.999 . S
C766 H736 0.950 . S
C766 C765 1.524 . S
C766 C767 1.415 . S
C767 H737 0.950 . S
C767 C762 1.363 . S
C767 C766 1.415 . S
H768 C765 0.999 . S
H769 C750 0.913 . S
H770 C788 0.951 . S
H771 C790 0.951 . S
H772 C792 0.950 . S
H773 C793 0.950 . S
H774 C795 0.950 . S
H775 C798 0.950 . S
H776 C799 0.950 . S
H777 C801 0.950 . S
H778 C802 0.950 . S
H779 C803 0.951 . S
H780 C805 0.951 . S
H781 C807 0.950 . S
H782 C808 0.950 . S
H783 C810 0.950 . S
H784 C813 0.950 . S
H785 C814 0.950 . S
H786 C816 0.950 . S
H787 C817 0.950 . S
C788 H770 0.951 . S
C788 C789 1.366 . S
C788 C790 1.388 . S
C789 C788 1.366 . S
C789 C793 1.385 . S
C790 H771 0.951 . S
C790 C788 1.388 . S
C790 C791 1.366 . S
C791 C790 1.366 . S
C791 C792 1.414 . S
C791 C794 1.499 . S
C792 H772 0.950 . S
C792 C791 1.414 . S
C792 C793 1.374 . S
C793 H773 0.950 . S
C793 C789 1.385 . S
C793 C792 1.374 . S
C794 C791 1.499 . S
C794 C795 1.373 . S
C794 C796 1.389 . S
C795 H774 0.950 . S
C795 C794 1.373 . S
C795 C811 1.377 . S
C796 C794 1.389 . S
C796 C797 1.524 . S
C796 C810 1.377 . S
C797 C796 1.524 . S
C797 C798 1.397 . S
C797 C802 1.363 . S
C798 H775 0.950 . S
C798 C797 1.397 . S
C798 C799 1.334 . S
C799 H776 0.950 . S
C799 C798 1.334 . S
C799 C800 1.287 . S
C800 C799 1.287 . S
C800 C801 1.524 . S
C800 H819 0.913 . S
C801 H777 0.950 . S
C801 C800 1.524 . S
C801 C802 1.415 . S
C802 H778 0.950 . S
C802 C797 1.363 . S
C802 C801 1.415 . S
C803 H779 0.951 . S
C803 C804 1.366 . S
C803 C805 1.388 . S
C804 C803 1.366 . S
C804 C808 1.385 . S
C805 H780 0.951 . S
C805 C803 1.388 . S
C805 C806 1.366 . S
C806 C805 1.366 . S
C806 C807 1.414 . S
C806 C809 1.499 1_556 S
C807 H781 0.950 . S
C807 C806 1.414 . S
C807 C808 1.374 . S
C808 H782 0.950 . S
C808 C804 1.385 . S
C808 C807 1.374 . S
C809 C806 1.499 1_554 S
C809 C810 1.373 . S
C809 C811 1.389 . S
C810 H783 0.950 . S
C810 C796 1.377 . S
C810 C809 1.373 . S
C811 C795 1.377 . S
C811 C809 1.389 . S
C811 C812 1.524 . S
C812 C811 1.524 . S
C812 C813 1.397 . S
C812 C817 1.363 . S
C813 H784 0.950 . S
C813 C812 1.397 . S
C813 C814 1.334 1_554 S
C814 H785 0.950 . S
C814 C813 1.334 1_556 S
C814 C815 1.287 . S
C815 C814 1.287 . S
C815 C816 1.524 1_556 S
C815 H818 0.999 . S
C816 H786 0.950 . S
C816 C815 1.524 1_554 S
C816 C817 1.415 . S
C817 H787 0.950 . S
C817 C812 1.363 . S
C817 C816 1.415 . S
H818 C815 0.999 . S
H819 C800 0.913 . S
H820 C838 0.951 . S
H821 C840 0.951 . S
H822 C842 0.950 . S
H823 C843 0.950 . S
H824 C845 0.950 . S
H825 C848 0.950 . S
H826 C849 0.950 . S
H827 C851 0.950 . S
H828 C852 0.950 . S
H829 C853 0.951 . S
H830 C855 0.951 . S
H831 C857 0.950 . S
H832 C858 0.950 . S
H833 C860 0.950 . S
H834 C863 0.950 . S
H835 C864 0.950 . S
H836 C866 0.950 . S
H837 C867 0.950 . S
C838 H820 0.951 . S
C838 C839 1.366 . S
C838 C840 1.388 1_554 S
C839 C838 1.366 . S
C839 C843 1.385 . S
C840 H821 0.951 . S
C840 C838 1.388 1_556 S
C840 C841 1.366 . S
C841 C840 1.366 . S
C841 C842 1.414 . S
C841 C844 1.499 . S
C842 H822 0.950 . S
C842 C841 1.414 . S
C842 C843 1.374 1_556 S
C843 H823 0.950 . S
C843 C839 1.385 . S
C843 C842 1.374 1_554 S
C844 C841 1.499 . S
C844 C845 1.373 . S
C844 C846 1.389 . S
C845 H824 0.950 . S
C845 C844 1.373 . S
C845 C861 1.377 . S
C846 C844 1.389 . S
C846 C847 1.524 . S
C846 C860 1.377 . S
C847 C846 1.524 . S
C847 C848 1.397 . S
C847 C852 1.363 . S
C848 H825 0.950 . S
C848 C847 1.397 . S
C848 C849 1.334 . S
C849 H826 0.950 . S
C849 C848 1.334 . S
C849 C850 1.287 . S
C850 C849 1.287 . S
C850 C851 1.524 . S
C850 H869 0.913 . S
C851 H827 0.950 . S
C851 C850 1.524 . S
C851 C852 1.415 . S
C852 H828 0.950 . S
C852 C847 1.363 . S
C852 C851 1.415 . S
C853 H829 0.951 . S
C853 C854 1.366 . S
C853 C855 1.388 . S
C854 C853 1.366 . S
C854 C858 1.385 . S
C855 H830 0.951 . S
C855 C853 1.388 . S
C855 C856 1.366 . S
C856 C855 1.366 . S
C856 C857 1.414 . S
C856 C859 1.499 . S
C857 H831 0.950 . S
C857 C856 1.414 . S
C857 C858 1.374 . S
C858 H832 0.950 . S
C858 C854 1.385 . S
C858 C857 1.374 . S
C859 C856 1.499 . S
C859 C860 1.373 . S
C859 C861 1.389 . S
C860 H833 0.950 . S
C860 C846 1.377 . S
C860 C859 1.373 . S
C861 C845 1.377 . S
C861 C859 1.389 . S
C861 C862 1.524 . S
C862 C861 1.524 . S
C862 C863 1.397 . S
C862 C867 1.363 . S
C863 H834 0.950 . S
C863 C862 1.397 . S
C863 C864 1.334 . S
C864 H835 0.950 . S
C864 C863 1.334 . S
C864 C865 1.287 . S
C865 C864 1.287 . S
C865 C866 1.524 . S
C865 H868 0.999 . S
C866 H836 0.950 . S
C866 C865 1.524 . S
C866 C867 1.415 . S
C867 H837 0.950 . S
C867 C862 1.363 . S
C867 C866 1.415 . S
H868 C865 0.999 . S
H869 C850 0.913 . S
H870 C888 0.951 . S
H871 C890 0.951 . S
H872 C892 0.950 . S
H873 C893 0.950 . S
H874 C895 0.950 . S
H875 C898 0.950 . S
H876 C899 0.950 . S
H877 C901 0.950 . S
H878 C902 0.950 . S
H879 C903 0.951 . S
H880 C905 0.951 . S
H881 C907 0.950 . S
H882 C908 0.950 . S
H883 C910 0.950 . S
H884 C913 0.950 . S
H885 C914 0.950 . S
H886 C916 0.950 . S
H887 C917 0.950 . S
C888 H870 0.951 . S
C888 C889 1.366 . S
C888 C890 1.388 . S
C889 C888 1.366 . S
C889 C893 1.385 . S
C890 H871 0.951 . S
C890 C888 1.388 . S
C890 C891 1.366 . S
C891 C890 1.366 . S
C891 C892 1.414 . S
C891 C894 1.499 . S
C892 H872 0.950 . S
C892 C891 1.414 . S
C892 C893 1.374 . S
C893 H873 0.950 . S
C893 C889 1.385 . S
C893 C892 1.374 . S
C894 C891 1.499 . S
C894 C895 1.373 . S
C894 C896 1.389 . S
C895 H874 0.950 . S
C895 C894 1.373 . S
C895 C911 1.377 . S
C896 C894 1.389 . S
C896 C897 1.524 . S
C896 C910 1.377 . S
C897 C896 1.524 . S
C897 C898 1.397 . S
C897 C902 1.363 . S
C898 H875 0.950 . S
C898 C897 1.397 . S
C898 C899 1.334 . S
C899 H876 0.950 . S
C899 C898 1.334 . S
C899 C900 1.287 . S
C900 C899 1.287 . S
C900 C901 1.524 . S
C900 H919 0.913 . S
C901 H877 0.950 . S
C901 C900 1.524 . S
C901 C902 1.415 . S
C902 H878 0.950 . S
C902 C897 1.363 . S
C902 C901 1.415 . S
C903 H879 0.951 . S
C903 C904 1.366 . S
C903 C905 1.388 . S
C904 C903 1.366 . S
C904 C908 1.385 . S
C905 H880 0.951 . S
C905 C903 1.388 . S
C905 C906 1.366 . S
C906 C905 1.366 . S
C906 C907 1.414 . S
C906 C909 1.499 . S
C907 H881 0.950 . S
C907 C906 1.414 . S
C907 C908 1.374 . S
C908 H882 0.950 . S
C908 C904 1.385 . S
C908 C907 1.374 . S
C909 C906 1.499 . S
C909 C910 1.373 . S
C909 C911 1.389 . S
C910 H883 0.950 . S
C910 C896 1.377 . S
C910 C909 1.373 . S
C911 C895 1.377 . S
C911 C909 1.389 . S
C911 C912 1.524 . S
C912 C911 1.524 . S
C912 C913 1.397 . S
C912 C917 1.363 . S
C913 H884 0.950 . S
C913 C912 1.397 . S
C913 C914 1.334 . S
C914 H885 0.950 . S
C914 C913 1.334 . S
C914 C915 1.287 . S
C915 C914 1.287 . S
C915 C916 1.524 . S
C915 H918 0.999 . S
C916 H886 0.950 . S
C916 C915 1.524 . S
C916 C917 1.415 . S
C917 H887 0.950 . S
C917 C912 1.363 . S
C917 C916 1.415 . S
H918 C915 0.999 . S
H919 C900 0.913 . S
H920 C938 0.951 . S
H921 C940 0.951 . S
H922 C942 0.950 . S
H923 C943 0.950 . S
H924 C945 0.950 . S
H925 C948 0.950 . S
H926 C949 0.950 . S
H927 C951 0.950 . S
H928 C952 0.950 . S
H929 C953 0.951 . S
H930 C955 0.951 . S
H931 C957 0.950 . S
H932 C958 0.950 . S
H933 C960 0.950 . S
H934 C963 0.950 . S
H935 C964 0.950 . S
H936 C966 0.950 . S
H937 C967 0.950 . S
C938 H920 0.951 . S
C938 C939 1.366 . S
C938 C940 1.388 . S
C939 C938 1.366 . S
C939 C943 1.385 . S
C940 H921 0.951 . S
C940 C938 1.388 . S
C940 C941 1.366 . S
C941 C940 1.366 . S
C941 C942 1.414 . S
C941 C944 1.499 . S
C942 H922 0.950 . S
C942 C941 1.414 . S
C942 C943 1.374 . S
C943 H923 0.950 . S
C943 C939 1.385 . S
C943 C942 1.374 . S
C944 C941 1.499 . S
C944 C945 1.373 . S
C944 C946 1.389 . S
C945 H924 0.950 . S
C945 C944 1.373 . S
C945 C961 1.377 . S
C946 C944 1.389 . S
C946 C947 1.524 . S
C946 C960 1.377 . S
C947 C946 1.524 . S
C947 C948 1.397 . S
C947 C952 1.363 . S
C948 H925 0.950 . S
C948 C947 1.397 . S
C948 C949 1.334 . S
C949 H926 0.950 . S
C949 C948 1.334 . S
C949 C950 1.287 . S
C950 C949 1.287 . S
C950 C951 1.524 . S
C950 H969 0.913 . S
C951 H927 0.950 . S
C951 C950 1.524 . S
C951 C952 1.415 . S
C952 H928 0.950 . S
C952 C947 1.363 . S
C952 C951 1.415 . S
C953 H929 0.951 . S
C953 C954 1.366 . S
C953 C955 1.388 . S
C954 C953 1.366 . S
C954 C958 1.385 . S
C955 H930 0.951 . S
C955 C953 1.388 . S
C955 C956 1.366 . S
C956 C955 1.366 . S
C956 C957 1.414 . S
C956 C959 1.499 . S
C957 H931 0.950 . S
C957 C956 1.414 . S
C957 C958 1.374 . S
C958 H932 0.950 . S
C958 C954 1.385 . S
C958 C957 1.374 . S
C959 C956 1.499 . S
C959 C960 1.373 . S
C959 C961 1.389 . S
C960 H933 0.950 . S
C960 C946 1.377 . S
C960 C959 1.373 . S
C961 C945 1.377 . S
C961 C959 1.389 . S
C961 C962 1.524 . S
C962 C961 1.524 . S
C962 C963 1.397 . S
C962 C967 1.363 . S
C963 H934 0.950 . S
C963 C962 1.397 . S
C963 C964 1.334 . S
C964 H935 0.950 . S
C964 C963 1.334 . S
C964 C965 1.287 . S
C965 C964 1.287 . S
C965 C966 1.524 . S
C965 H968 0.999 . S
C966 H936 0.950 . S
C966 C965 1.524 . S
C966 C967 1.415 . S
C967 H937 0.950 . S
C967 C962 1.363 . S
C967 C966 1.415 . S
H968 C965 0.999 . S
H969 C950 0.913 . S
H970 C988 0.951 . S
H971 C990 0.951 . S
H972 C992 0.950 . S
H973 C993 0.950 . S
H974 C995 0.950 . S
H975 C998 0.950 . S
H976 C999 0.950 . S
H977 C1001 0.950 . S
H978 C1002 0.950 . S
H979 C1003 0.951 . S
H980 C1005 0.951 . S
H981 C1007 0.950 . S
H982 C1008 0.950 . S
H983 C1010 0.950 . S
H984 C1013 0.950 . S
H985 C1014 0.950 . S
H986 C1016 0.950 . S
H987 C1017 0.950 . S
C988 H970 0.951 . S
C988 C989 1.366 . S
C988 C990 1.388 . S
C989 C988 1.366 . S
C989 C993 1.385 . S
C990 H971 0.951 . S
C990 C988 1.388 . S
C990 C991 1.366 . S
C991 C990 1.366 . S
C991 C992 1.414 . S
C991 C994 1.499 . S
C992 H972 0.950 . S
C992 C991 1.414 . S
C992 C993 1.374 . S
C993 H973 0.950 . S
C993 C989 1.385 . S
C993 C992 1.374 . S
C994 C991 1.499 . S
C994 C995 1.373 . S
C994 C996 1.389 . S
C995 H974 0.950 . S
C995 C994 1.373 . S
C995 C1011 1.377 . S
C996 C994 1.389 . S
C996 C997 1.524 . S
C996 C1010 1.377 . S
C997 C996 1.524 . S
C997 C998 1.397 . S
C997 C1002 1.363 . S
C998 H975 0.950 . S
C998 C997 1.397 . S
C998 C999 1.334 . S
C999 H976 0.950 . S
C999 C998 1.334 . S
C999 C1000 1.287 . S
C1000 C999 1.287 . S
C1000 C1001 1.524 . S
C1000 H1019 0.913 . S
C1001 H977 0.950 . S
C1001 C1000 1.524 . S
C1001 C1002 1.415 . S
C1002 H978 0.950 . S
C1002 C997 1.363 . S
C1002 C1001 1.415 . S
C1003 H979 0.951 . S
C1003 C1004 1.366 . S
C1003 C1005 1.388 . S
C1004 C1003 1.366 . S
C1004 C1008 1.385 . S
C1005 H980 0.951 . S
C1005 C1003 1.388 . S
C1005 C1006 1.366 . S
C1006 C1005 1.366 . S
C1006 C1007 1.414 . S
C1006 C1009 1.499 . S
C1007 H981 0.950 . S
C1007 C1006 1.414 . S
C1007 C1008 1.374 . S
C1008 H982 0.950 . S
C1008 C1004 1.385 . S
C1008 C1007 1.374 . S
C1009 C1006 1.499 . S
C1009 C1010 1.373 . S
C1009 C1011 1.389 . S
C1010 H983 0.950 . S
C1010 C996 1.377 . S
C1010 C1009 1.373 . S
C1011 C995 1.377 . S
C1011 C1009 1.389 . S
C1011 C1012 1.524 . S
C1012 C1011 1.524 . S
C1012 C1013 1.397 . S
C1012 C1017 1.363 . S
C1013 H984 0.950 . S
C1013 C1012 1.397 . S
C1013 C1014 1.334 . S
C1014 H985 0.950 . S
C1014 C1013 1.334 . S
C1014 C1015 1.287 . S
C1015 C1014 1.287 . S
C1015 C1016 1.524 . S
C1015 H1018 0.999 . S
C1016 H986 0.950 . S
C1016 C1015 1.524 . S
C1016 C1017 1.415 . S
C1017 H987 0.950 . S
C1017 C1012 1.363 . S
C1017 C1016 1.415 . S
H1018 C1015 0.999 . S
H1019 C1000 0.913 . S
H1020 C1038 0.951 . S
H1021 C1040 0.951 . S
H1022 C1042 0.950 . S
H1023 C1043 0.950 . S
H1024 C1045 0.950 . S
H1025 C1048 0.950 . S
H1026 C1049 0.950 . S
H1027 C1051 0.950 . S
H1028 C1052 0.950 . S
H1029 C1053 0.951 . S
H1030 C1055 0.951 . S
H1031 C1057 0.950 . S
H1032 C1058 0.950 . S
H1033 C1060 0.950 . S
H1034 C1063 0.950 . S
H1035 C1064 0.950 . S
H1036 C1066 0.950 . S
H1037 C1067 0.950 . S
C1038 H1020 0.951 . S
C1038 C1039 1.366 . S
C1038 C1040 1.388 . S
C1039 C1038 1.366 . S
C1039 C1043 1.385 . S
C1040 H1021 0.951 . S
C1040 C1038 1.388 . S
C1040 C1041 1.366 . S
C1041 C1040 1.366 . S
C1041 C1042 1.414 . S
C1041 C1044 1.499 . S
C1042 H1022 0.950 . S
C1042 C1041 1.414 . S
C1042 C1043 1.374 . S
C1043 H1023 0.950 . S
C1043 C1039 1.385 . S
C1043 C1042 1.374 . S
C1044 C1041 1.499 . S
C1044 C1045 1.373 . S
C1044 C1046 1.389 . S
C1045 H1024 0.950 . S
C1045 C1044 1.373 . S
C1045 C1061 1.377 . S
C1046 C1044 1.389 . S
C1046 C1047 1.524 . S
C1046 C1060 1.377 . S
C1047 C1046 1.524 . S
C1047 C1048 1.397 . S
C1047 C1052 1.363 . S
C1048 H1025 0.950 . S
C1048 C1047 1.397 . S
C1048 C1049 1.334 . S
C1049 H1026 0.950 . S
C1049 C1048 1.334 . S
C1049 C1050 1.287 . S
C1050 C1049 1.287 . S
C1050 C1051 1.524 . S
C1050 H1069 0.913 . S
C1051 H1027 0.950 . S
C1051 C1050 1.524 . S
C1051 C1052 1.415 . S
C1052 H1028 0.950 . S
C1052 C1047 1.363 . S
C1052 C1051 1.415 . S
C1053 H1029 0.951 . S
C1053 C1054 1.366 . S
C1053 C1055 1.388 . S
C1054 C1053 1.366 . S
C1054 C1058 1.385 . S
C1055 H1030 0.951 . S
C1055 C1053 1.388 . S
C1055 C1056 1.366 . S
C1056 C1055 1.366 . S
C1056 C1057 1.414 . S
C1056 C1059 1.499 1_556 S
C1057 H1031 0.950 . S
C1057 C1056 1.414 . S
C1057 C1058 1.374 . S
C1058 H1032 0.950 . S
C1058 C1054 1.385 . S
C1058 C1057 1.374 . S
C1059 C1056 1.499 1_554 S
C1059 C1060 1.373 . S
C1059 C1061 1.389 . S
C1060 H1033 0.950 . S
C1060 C1046 1.377 . S
C1060 C1059 1.373 . S
C1061 C1045 1.377 . S
C1061 C1059 1.389 . S
C1061 C1062 1.524 . S
C1062 C1061 1.524 . S
C1062 C1063 1.397 1_554 S
C1062 C1067 1.363 . S
C1063 H1034 0.950 . S
C1063 C1062 1.397 1_556 S
C1063 C1064 1.334 . S
C1064 H1035 0.950 . S
C1064 C1063 1.334 . S
C1064 C1065 1.287 . S
C1065 C1064 1.287 . S
C1065 C1066 1.524 . S
C1065 H1068 0.999 . S
C1066 H1036 0.950 . S
C1066 C1065 1.524 . S
C1066 C1067 1.415 1_556 S
C1067 H1037 0.950 . S
C1067 C1062 1.363 . S
C1067 C1066 1.415 1_554 S
H1068 C1065 0.999 . S
H1069 C1050 0.913 . S
H1070 C1088 0.951 . S
H1071 C1090 0.951 . S
H1072 C1092 0.950 . S
H1073 C1093 0.950 . S
H1074 C1095 0.950 . S
H1075 C1098 0.950 . S
H1076 C1099 0.950 . S
H1077 C1101 0.950 . S
H1078 C1102 0.950 . S
H1079 C1103 0.951 . S
H1080 C1105 0.951 . S
H1081 C1107 0.950 . S
H1082 C1108 0.950 . S
H1083 C1110 0.950 . S
H1084 C1113 0.950 . S
H1085 C1114 0.950 . S
H1086 C1116 0.950 . S
H1087 C1117 0.950 . S
C1088 H1070 0.951 . S
C1088 C1089 1.366 . S
C1088 C1090 1.388 1_554 S
C1089 C1088 1.366 . S
C1089 C1093 1.385 . S
C1090 H1071 0.951 . S
C1090 C1088 1.388 1_556 S
C1090 C1091 1.366 . S
C1091 C1090 1.366 . S
C1091 C1092 1.414 . S
C1091 C1094 1.499 . S
C1092 H1072 0.950 . S
C1092 C1091 1.414 . S
C1092 C1093 1.374 1_556 S
C1093 H1073 0.950 . S
C1093 C1089 1.385 . S
C1093 C1092 1.374 1_554 S
C1094 C1091 1.499 . S
C1094 C1095 1.373 . S
C1094 C1096 1.389 . S
C1095 H1074 0.950 . S
C1095 C1094 1.373 . S
C1095 C1111 1.377 . S
C1096 C1094 1.389 . S
C1096 C1097 1.524 . S
C1096 C1110 1.377 . S
C1097 C1096 1.524 . S
C1097 C1098 1.397 . S
C1097 C1102 1.363 . S
C1098 H1075 0.950 . S
C1098 C1097 1.397 . S
C1098 C1099 1.334 . S
C1099 H1076 0.950 . S
C1099 C1098 1.334 . S
C1099 C1100 1.287 . S
C1100 C1099 1.287 . S
C1100 C1101 1.524 . S
C1100 H1119 0.913 . S
C1101 H1077 0.950 . S
C1101 C1100 1.524 . S
C1101 C1102 1.415 . S
C1102 H1078 0.950 . S
C1102 C1097 1.363 . S
C1102 C1101 1.415 . S
C1103 H1079 0.951 . S
C1103 C1104 1.366 . S
C1103 C1105 1.388 . S
C1104 C1103 1.366 . S
C1104 C1108 1.385 . S
C1105 H1080 0.951 . S
C1105 C1103 1.388 . S
C1105 C1106 1.366 . S
C1106 C1105 1.366 . S
C1106 C1107 1.414 . S
C1106 C1109 1.499 . S
C1107 H1081 0.950 . S
C1107 C1106 1.414 . S
C1107 C1108 1.374 . S
C1108 H1082 0.950 . S
C1108 C1104 1.385 . S
C1108 C1107 1.374 . S
C1109 C1106 1.499 . S
C1109 C1110 1.373 . S
C1109 C1111 1.389 . S
C1110 H1083 0.950 . S
C1110 C1096 1.377 . S
C1110 C1109 1.373 . S
C1111 C1095 1.377 . S
C1111 C1109 1.389 . S
C1111 C1112 1.524 . S
C1112 C1111 1.524 . S
C1112 C1113 1.397 . S
C1112 C1117 1.363 . S
C1113 H1084 0.950 . S
C1113 C1112 1.397 . S
C1113 C1114 1.334 . S
C1114 H1085 0.950 . S
C1114 C1113 1.334 . S
C1114 C1115 1.287 . S
C1115 C1114 1.287 . S
C1115 C1116 1.524 . S
C1115 H1118 0.999 . S
C1116 H1086 0.950 . S
C1116 C1115 1.524 . S
C1116 C1117 1.415 . S
C1117 H1087 0.950 . S
C1117 C1112 1.363 . S
C1117 C1116 1.415 . S
H1118 C1115 0.999 . S
H1119 C1100 0.913 . S
H1120 C1138 0.951 . S
H1121 C1140 0.951 . S
H1122 C1142 0.950 . S
H1123 C1143 0.950 . S
H1124 C1145 0.950 . S
H1125 C1148 0.950 . S
H1126 C1149 0.950 . S
H1127 C1151 0.950 . S
H1128 C1152 0.950 . S
H1129 C1153 0.951 . S
H1130 C1155 0.951 . S
H1131 C1157 0.950 . S
H1132 C1158 0.950 . S
H1133 C1160 0.950 . S
H1134 C1163 0.950 . S
H1135 C1164 0.950 . S
H1136 C1166 0.950 . S
H1137 C1167 0.950 . S
C1138 H1120 0.951 . S
C1138 C1139 1.366 . S
C1138 C1140 1.388 . S
C1139 C1138 1.366 . S
C1139 C1143 1.385 . S
C1140 H1121 0.951 . S
C1140 C1138 1.388 . S
C1140 C1141 1.366 . S
C1141 C1140 1.366 . S
C1141 C1142 1.414 . S
C1141 C1144 1.499 . S
C1142 H1122 0.950 . S
C1142 C1141 1.414 . S
C1142 C1143 1.374 . S
C1143 H1123 0.950 . S
C1143 C1139 1.385 . S
C1143 C1142 1.374 . S
C1144 C1141 1.499 . S
C1144 C1145 1.373 . S
C1144 C1146 1.389 . S
C1145 H1124 0.950 . S
C1145 C1144 1.373 . S
C1145 C1161 1.377 . S
C1146 C1144 1.389 . S
C1146 C1147 1.524 . S
C1146 C1160 1.377 . S
C1147 C1146 1.524 . S
C1147 C1148 1.397 . S
C1147 C1152 1.363 . S
C1148 H1125 0.950 . S
C1148 C1147 1.397 . S
C1148 C1149 1.334 . S
C1149 H1126 0.950 . S
C1149 C1148 1.334 . S
C1149 C1150 1.287 . S
C1150 C1149 1.287 . S
C1150 C1151 1.524 . S
C1150 H1169 0.913 . S
C1151 H1127 0.950 . S
C1151 C1150 1.524 . S
C1151 C1152 1.415 . S
C1152 H1128 0.950 . S
C1152 C1147 1.363 . S
C1152 C1151 1.415 . S
C1153 H1129 0.951 . S
C1153 C1154 1.366 . S
C1153 C1155 1.388 . S
C1154 C1153 1.366 . S
C1154 C1158 1.385 . S
C1155 H1130 0.951 . S
C1155 C1153 1.388 . S
C1155 C1156 1.366 . S
C1156 C1155 1.366 . S
C1156 C1157 1.414 . S
C1156 C1159 1.499 . S
C1157 H1131 0.950 . S
C1157 C1156 1.414 . S
C1157 C1158 1.374 . S
C1158 H1132 0.950 . S
C1158 C1154 1.385 . S
C1158 C1157 1.374 . S
C1159 C1156 1.499 . S
C1159 C1160 1.373 . S
C1159 C1161 1.389 . S
C1160 H1133 0.950 . S
C1160 C1146 1.377 . S
C1160 C1159 1.373 . S
C1161 C1145 1.377 . S
C1161 C1159 1.389 . S
C1161 C1162 1.524 . S
C1162 C1161 1.524 . S
C1162 C1163 1.397 . S
C1162 C1167 1.363 . S
C1163 H1134 0.950 . S
C1163 C1162 1.397 . S
C1163 C1164 1.334 . S
C1164 H1135 0.950 . S
C1164 C1163 1.334 . S
C1164 C1165 1.287 . S
C1165 C1164 1.287 . S
C1165 C1166 1.524 . S
C1165 H1168 0.999 . S
C1166 H1136 0.950 . S
C1166 C1165 1.524 . S
C1166 C1167 1.415 . S
C1167 H1137 0.950 . S
C1167 C1162 1.363 . S
C1167 C1166 1.415 . S
H1168 C1165 0.999 . S
H1169 C1150 0.913 . S
H1170 C1188 0.951 . S
H1171 C1190 0.951 . S
H1172 C1192 0.950 . S
H1173 C1193 0.950 . S
H1174 C1195 0.950 . S
H1175 C1198 0.950 . S
H1176 C1199 0.950 . S
H1177 C1201 0.950 . S
H1178 C1202 0.950 . S
H1179 C1203 0.951 . S
H1180 C1205 0.951 . S
H1181 C1207 0.950 . S
H1182 C1208 0.950 . S
H1183 C1210 0.950 . S
H1184 C1213 0.950 . S
H1185 C1214 0.950 . S
H1186 C1216 0.950 . S
H1187 C1217 0.950 . S
C1188 H1170 0.951 . S
C1188 C1189 1.366 . S
C1188 C1190 1.388 . S
C1189 C1188 1.366 . S
C1189 C1193 1.385 . S
C1190 H1171 0.951 . S
C1190 C1188 1.388 . S
C1190 C1191 1.366 . S
C1191 C1190 1.366 . S
C1191 C1192 1.414 . S
C1191 C1194 1.499 . S
C1192 H1172 0.950 . S
C1192 C1191 1.414 . S
C1192 C1193 1.374 . S
C1193 H1173 0.950 . S
C1193 C1189 1.385 . S
C1193 C1192 1.374 . S
C1194 C1191 1.499 . S
C1194 C1195 1.373 . S
C1194 C1196 1.389 . S
C1195 H1174 0.950 . S
C1195 C1194 1.373 . S
C1195 C1211 1.377 . S
C1196 C1194 1.389 . S
C1196 C1197 1.524 . S
C1196 C1210 1.377 . S
C1197 C1196 1.524 . S
C1197 C1198 1.397 . S
C1197 C1202 1.363 . S
C1198 H1175 0.950 . S
C1198 C1197 1.397 . S
C1198 C1199 1.334 . S
C1199 H1176 0.950 . S
C1199 C1198 1.334 . S
C1199 C1200 1.287 . S
C1200 C1199 1.287 . S
C1200 C1201 1.524 . S
C1200 H1219 0.913 . S
C1201 H1177 0.950 . S
C1201 C1200 1.524 . S
C1201 C1202 1.415 . S
C1202 H1178 0.950 . S
C1202 C1197 1.363 . S
C1202 C1201 1.415 . S
C1203 H1179 0.951 . S
C1203 C1204 1.366 . S
C1203 C1205 1.388 . S
C1204 C1203 1.366 . S
C1204 C1208 1.385 . S
C1205 H1180 0.951 . S
C1205 C1203 1.388 . S
C1205 C1206 1.366 . S
C1206 C1205 1.366 . S
C1206 C1207 1.414 . S
C1206 C1209 1.499 . S
C1207 H1181 0.950 . S
C1207 C1206 1.414 . S
C1207 C1208 1.374 . S
C1208 H1182 0.950 . S
C1208 C1204 1.385 . S
C1208 C1207 1.374 . S
C1209 C1206 1.499 . S
C1209 C1210 1.373 . S
C1209 C1211 1.389 . S
C1210 H1183 0.950 . S
C1210 C1196 1.377 . S
C1210 C1209 1.373 . S
C1211 C1195 1.377 . S
C1211 C1209 1.389 . S
C1211 C1212 1.524 . S
C1212 C1211 1.524 . S
C1212 C1213 1.397 . S
C1212 C1217 1.363 . S
C1213 H1184 0.950 . S
C1213 C1212 1.397 . S
C1213 C1214 1.334 . S
C1214 H1185 0.950 . S
C1214 C1213 1.334 . S
C1214 C1215 1.287 . S
C1215 C1214 1.287 . S
C1215 C1216 1.524 . S
C1215 H1218 0.999 . S
C1216 H1186 0.950 . S
C1216 C1215 1.524 . S
C1216 C1217 1.415 . S
C1217 H1187 0.950 . S
C1217 C1212 1.363 . S
C1217 C1216 1.415 . S
H1218 C1215 0.999 . S
H1219 C1200 0.913 . S
H1220 C1238 0.951 . S
H1221 C1240 0.951 . S
H1222 C1242 0.950 . S
H1223 C1243 0.950 . S
H1224 C1245 0.950 . S
H1225 C1248 0.950 . S
H1226 C1249 0.950 . S
H1227 C1251 0.950 . S
H1228 C1252 0.950 . S
H1229 C1253 0.951 . S
H1230 C1255 0.951 . S
H1231 C1257 0.950 . S
H1232 C1258 0.950 . S
H1233 C1260 0.950 . S
H1234 C1263 0.950 . S
H1235 C1264 0.950 . S
H1236 C1266 0.950 . S
H1237 C1267 0.950 . S
C1238 H1220 0.951 . S
C1238 C1239 1.366 . S
C1238 C1240 1.388 . S
C1239 C1238 1.366 . S
C1239 C1243 1.385 . S
C1240 H1221 0.951 . S
C1240 C1238 1.388 . S
C1240 C1241 1.366 . S
C1241 C1240 1.366 . S
C1241 C1242 1.414 . S
C1241 C1244 1.499 . S
C1242 H1222 0.950 . S
C1242 C1241 1.414 . S
C1242 C1243 1.374 . S
C1243 H1223 0.950 . S
C1243 C1239 1.385 . S
C1243 C1242 1.374 . S
C1244 C1241 1.499 . S
C1244 C1245 1.373 . S
C1244 C1246 1.389 . S
C1245 H1224 0.950 . S
C1245 C1244 1.373 . S
C1245 C1261 1.377 . S
C1246 C1244 1.389 . S
C1246 C1247 1.524 . S
C1246 C1260 1.377 . S
C1247 C1246 1.524 . S
C1247 C1248 1.397 . S
C1247 C1252 1.363 . S
C1248 H1225 0.950 . S
C1248 C1247 1.397 . S
C1248 C1249 1.334 . S
C1249 H1226 0.950 . S
C1249 C1248 1.334 . S
C1249 C1250 1.287 . S
C1250 C1249 1.287 . S
C1250 C1251 1.524 . S
C1250 H1269 0.913 . S
C1251 H1227 0.950 . S
C1251 C1250 1.524 . S
C1251 C1252 1.415 . S
C1252 H1228 0.950 . S
C1252 C1247 1.363 . S
C1252 C1251 1.415 . S
C1253 H1229 0.951 . S
C1253 C1254 1.366 . S
C1253 C1255 1.388 . S
C1254 C1253 1.366 . S
C1254 C1258 1.385 . S
C1255 H1230 0.951 . S
C1255 C1253 1.388 . S
C1255 C1256 1.366 . S
C1256 C1255 1.366 . S
C1256 C1257 1.414 . S
C1256 C1259 1.499 . S
C1257 H1231 0.950 . S
C1257 C1256 1.414 . S
C1257 C1258 1.374 . S
C1258 H1232 0.950 . S
C1258 C1254 1.385 . S
C1258 C1257 1.374 . S
C1259 C1256 1.499 . S
C1259 C1260 1.373 . S
C1259 C1261 1.389 . S
C1260 H1233 0.950 . S
C1260 C1246 1.377 . S
C1260 C1259 1.373 . S
C1261 C1245 1.377 . S
C1261 C1259 1.389 . S
C1261 C1262 1.524 . S
C1262 C1261 1.524 . S
C1262 C1263 1.397 . S
C1262 C1267 1.363 . S
C1263 H1234 0.950 . S
C1263 C1262 1.397 . S
C1263 C1264 1.334 . S
C1264 H1235 0.950 . S
C1264 C1263 1.334 . S
C1264 C1265 1.287 . S
C1265 C1264 1.287 . S
C1265 C1266 1.524 . S
C1265 H1268 0.999 . S
C1266 H1236 0.950 . S
C1266 C1265 1.524 . S
C1266 C1267 1.415 . S
C1267 H1237 0.950 . S
C1267 C1262 1.363 . S
C1267 C1266 1.415 . S
H1268 C1265 0.999 . S
H1269 C1250 0.913 . S
H1270 C1288 0.951 . S
H1271 C1290 0.951 . S
H1272 C1292 0.950 1_554 S
H1273 C1293 0.950 1_554 S
H1274 C1295 0.957 . S
H1275 C1298 0.950 . S
H1276 C1299 0.950 . S
H1277 C1301 0.950 . S
H1278 C1302 0.950 . S
H1279 C1303 0.951 . S
H1280 C1305 0.951 1_554 S
H1281 C1307 0.950 . S
H1282 C1308 0.950 . S
H1283 C1310 0.950 1_455 S
H1284 C1313 0.950 . S
H1285 C1314 0.950 1_556 S
H1286 C1316 0.950 . S
H1287 C1317 0.950 1_655 S
C1288 H1270 0.951 . S
C1288 C1289 1.366 . S
C1288 C1290 1.388 . S
C1289 C1288 1.366 . S
C1289 C1293 1.385 . S
C1290 H1271 0.951 . S
C1290 C1288 1.388 . S
C1290 C1291 1.366 . S
C1291 C1290 1.366 . S
C1291 C1292 1.414 . S
C1291 C1294 1.499 . S
C1292 H1272 0.950 1_556 S
C1292 C1291 1.414 . S
C1292 C1293 1.374 . S
C1293 H1273 0.950 1_556 S
C1293 C1289 1.385 . S
C1293 C1292 1.374 . S
C1294 C1291 1.499 . S
C1294 C1295 1.373 . S
C1294 C1296 1.389 . S
C1295 H1274 0.957 . S
C1295 C1294 1.373 . S
C1295 C1311 1.377 . S
C1296 C1294 1.389 . S
C1296 C1297 1.524 . S
C1296 C1310 1.377 . S
C1297 C1296 1.524 . S
C1297 C1298 1.397 . S
C1297 C1302 1.363 . S
C1298 H1275 0.950 . S
C1298 C1297 1.397 . S
C1298 C1299 1.334 . S
C1299 H1276 0.950 . S
C1299 C1298 1.334 . S
C1299 C1300 1.287 . S
C1300 C1299 1.287 . S
C1300 C1301 1.524 . S
C1300 H1319 0.913 . S
C1301 H1277 0.950 . S
C1301 C1300 1.524 . S
C1301 C1302 1.415 . S
C1302 H1278 0.950 . S
C1302 C1297 1.363 . S
C1302 C1301 1.415 . S
C1303 H1279 0.951 . S
C1303 C1304 1.366 . S
C1303 C1305 1.388 . S
C1304 C1303 1.366 . S
C1304 C1308 1.385 . S
C1305 H1280 0.951 1_556 S
C1305 C1303 1.388 . S
C1305 C1306 1.366 . S
C1306 C1305 1.366 . S
C1306 C1307 1.414 . S
C1306 C1309 1.499 . S
C1307 H1281 0.950 . S
C1307 C1306 1.414 . S
C1307 C1308 1.374 . S
C1308 H1282 0.950 . S
C1308 C1304 1.385 . S
C1308 C1307 1.374 . S
C1309 C1306 1.499 . S
C1309 C1310 1.373 1_455 S
C1309 C1311 1.389 1_455 S
C1310 H1283 0.950 1_655 S
C1310 C1296 1.377 . S
C1310 C1309 1.373 1_655 S
C1311 C1295 1.377 . S
C1311 C1309 1.389 1_655 S
C1311 C1312 1.524 1_656 S
C1312 C1311 1.524 1_454 S
C1312 C1313 1.397 1_554 S
C1312 C1317 1.363 . S
C1313 H1284 0.950 . S
C1313 C1312 1.397 1_556 S
C1313 C1314 1.334 1_556 S
C1314 H1285 0.950 1_554 S
C1314 C1313 1.334 1_554 S
C1314 C1315 1.287 . S
C1315 C1314 1.287 . S
C1315 C1316 1.524 . S
C1315 H1318 0.999 . S
C1316 H1286 0.950 . S
C1316 C1315 1.524 . S
C1316 C1317 1.415 . S
C1317 H1287 0.950 1_455 S
C1317 C1312 1.363 . S
C1317 C1316 1.415 . S
H1318 C1315 0.999 . S
H1319 C1300 0.913 . S
H1320 C1338 0.951 . S
H1321 C1340 0.951 . S
H1322 C1342 0.950 . S
H1323 C1343 0.950 . S
H1324 C1345 0.950 . S
H1325 C1348 0.950 . S
H1326 C1349 0.950 . S
H1327 C1351 0.950 . S
H1328 C1352 0.950 . S
H1329 C1353 0.951 . S
H1330 C1355 0.951 . S
H1331 C1357 0.950 . S
H1332 C1358 0.950 . S
H1333 C1360 0.950 . S
H1334 C1363 0.950 . S
H1335 C1364 0.950 . S
H1336 C1366 0.950 . S
H1337 C1367 0.950 . S
C1338 H1320 0.951 . S
C1338 C1339 1.366 . S
C1338 C1340 1.388 . S
C1339 C1338 1.366 . S
C1339 C1343 1.385 . S
C1340 H1321 0.951 . S
C1340 C1338 1.388 . S
C1340 C1341 1.366 . S
C1341 C1340 1.366 . S
C1341 C1342 1.414 . S
C1341 C1344 1.499 . S
C1342 H1322 0.950 . S
C1342 C1341 1.414 . S
C1342 C1343 1.374 . S
C1343 H1323 0.950 . S
C1343 C1339 1.385 . S
C1343 C1342 1.374 . S
C1344 C1341 1.499 . S
C1344 C1345 1.373 . S
C1344 C1346 1.389 . S
C1345 H1324 0.950 . S
C1345 C1344 1.373 . S
C1345 C1361 1.377 . S
C1346 C1344 1.389 . S
C1346 C1347 1.524 . S
C1346 C1360 1.377 . S
C1347 C1346 1.524 . S
C1347 C1348 1.397 . S
C1347 C1352 1.363 . S
C1348 H1325 0.950 . S
C1348 C1347 1.397 . S
C1348 C1349 1.334 . S
C1349 H1326 0.950 . S
C1349 C1348 1.334 . S
C1349 C1350 1.287 . S
C1350 C1349 1.287 . S
C1350 C1351 1.524 . S
C1350 H1369 0.913 . S
C1351 H1327 0.950 . S
C1351 C1350 1.524 . S
C1351 C1352 1.415 . S
C1352 H1328 0.950 . S
C1352 C1347 1.363 . S
C1352 C1351 1.415 . S
C1353 H1329 0.951 . S
C1353 C1354 1.366 . S
C1353 C1355 1.388 . S
C1354 C1353 1.366 . S
C1354 C1358 1.385 . S
C1355 H1330 0.951 . S
C1355 C1353 1.388 . S
C1355 C1356 1.366 . S
C1356 C1355 1.366 . S
C1356 C1357 1.414 . S
C1356 C1359 1.499 . S
C1357 H1331 0.950 . S
C1357 C1356 1.414 . S
C1357 C1358 1.374 . S
C1358 H1332 0.950 . S
C1358 C1354 1.385 . S
C1358 C1357 1.374 . S
C1359 C1356 1.499 . S
C1359 C1360 1.373 . S
C1359 C1361 1.389 . S
C1360 H1333 0.950 . S
C1360 C1346 1.377 . S
C1360 C1359 1.373 . S
C1361 C1345 1.377 . S
C1361 C1359 1.389 . S
C1361 C1362 1.524 . S
C1362 C1361 1.524 . S
C1362 C1363 1.397 . S
C1362 C1367 1.363 . S
C1363 H1334 0.950 . S
C1363 C1362 1.397 . S
C1363 C1364 1.334 . S
C1364 H1335 0.950 . S
C1364 C1363 1.334 . S
C1364 C1365 1.287 . S
C1365 C1364 1.287 . S
C1365 C1366 1.524 . S
C1365 H1368 0.999 . S
C1366 H1336 0.950 . S
C1366 C1365 1.524 . S
C1366 C1367 1.415 . S
C1367 H1337 0.950 . S
C1367 C1362 1.363 . S
C1367 C1366 1.415 . S
H1368 C1365 0.999 . S
H1369 C1350 0.913 . S
H1370 C1388 0.951 . S
H1371 C1390 0.951 . S
H1372 C1392 0.950 . S
H1373 C1393 0.950 . S
H1374 C1395 0.950 . S
H1375 C1398 0.950 1_554 S
H1376 C1399 0.950 . S
H1377 C1401 0.950 . S
H1378 C1402 0.950 . S
H1379 C1403 0.951 . S
H1380 C1405 0.951 . S
H1381 C1407 0.950 . S
H1382 C1408 0.950 . S
H1383 C1410 0.950 1_655 S
H1384 C1413 0.950 . S
H1385 C1414 0.950 . S
H1386 C1416 0.950 . S
H1387 C1417 0.950 . S
C1388 H1370 0.951 . S
C1388 C1389 1.366 . S
C1388 C1390 1.388 . S
C1389 C1388 1.366 . S
C1389 C1393 1.385 . S
C1390 H1371 0.951 . S
C1390 C1388 1.388 . S
C1390 C1391 1.366 . S
C1391 C1390 1.366 . S
C1391 C1392 1.414 . S
C1391 C1394 1.499 . S
C1392 H1372 0.950 . S
C1392 C1391 1.414 . S
C1392 C1393 1.374 . S
C1393 H1373 0.950 . S
C1393 C1389 1.385 . S
C1393 C1392 1.374 . S
C1394 C1391 1.499 . S
C1394 C1395 1.373 . S
C1394 C1396 1.389 . S
C1395 H1374 0.950 . S
C1395 C1394 1.373 . S
C1395 C1411 1.377 . S
C1396 C1394 1.389 . S
C1396 C1397 1.524 1_554 S
C1396 C1410 1.377 . S
C1397 C1396 1.524 1_556 S
C1397 C1398 1.397 . S
C1397 C1402 1.363 . S
C1398 H1375 0.950 1_556 S
C1398 C1397 1.397 . S
C1398 C1399 1.334 . S
C1399 H1376 0.950 . S
C1399 C1398 1.334 . S
C1399 C1400 1.287 . S
C1400 C1399 1.287 . S
C1400 C1401 1.524 . S
C1400 H1419 0.913 . S
C1401 H1377 0.950 . S
C1401 C1400 1.524 . S
C1401 C1402 1.415 . S
C1402 H1378 0.950 . S
C1402 C1397 1.363 . S
C1402 C1401 1.415 . S
C1403 H1379 0.951 . S
C1403 C1404 1.366 . S
C1403 C1405 1.388 . S
C1404 C1403 1.366 . S
C1404 C1408 1.385 . S
C1405 H1380 0.951 . S
C1405 C1403 1.388 . S
C1405 C1406 1.366 . S
C1406 C1405 1.366 . S
C1406 C1407 1.414 . S
C1406 C1409 1.499 . S
C1407 H1381 0.950 . S
C1407 C1406 1.414 . S
C1407 C1408 1.374 . S
C1408 H1382 0.950 . S
C1408 C1404 1.385 . S
C1408 C1407 1.374 . S
C1409 C1406 1.499 . S
C1409 C1410 1.373 1_655 S
C1409 C1411 1.389 1_655 S
C1410 H1383 0.950 1_455 S
C1410 C1396 1.377 . S
C1410 C1409 1.373 1_455 S
C1411 C1395 1.377 . S
C1411 C1409 1.389 1_455 S
C1411 C1412 1.524 . S
C1412 C1411 1.524 . S
C1412 C1413 1.397 1_455 S
C1412 C1417 1.363 . S
C1413 H1384 0.950 . S
C1413 C1412 1.397 1_655 S
C1413 C1414 1.334 . S
C1414 H1385 0.950 . S
C1414 C1413 1.334 . S
C1414 C1415 1.287 . S
C1415 C1414 1.287 . S
C1415 C1416 1.524 1_655 S
C1415 H1418 0.999 . S
C1416 H1386 0.950 . S
C1416 C1415 1.524 1_455 S
C1416 C1417 1.415 . S
C1417 H1387 0.950 . S
C1417 C1412 1.363 . S
C1417 C1416 1.415 . S
H1418 C1415 0.999 . S
H1419 C1400 0.913 . S
H1420 C1438 0.951 . S
H1421 C1440 0.951 . S
H1422 C1442 0.950 . S
H1423 C1443 0.950 . S
H1424 C1445 0.950 . S
H1425 C1448 0.950 . S
H1426 C1449 0.950 . S
H1427 C1451 0.950 . S
H1428 C1452 0.950 . S
H1429 C1453 0.951 . S
H1430 C1455 0.951 . S
H1431 C1457 0.950 . S
H1432 C1458 0.950 . S
H1433 C1460 0.950 . S
H1434 C1463 0.950 . S
H1435 C1464 0.950 . S
H1436 C1466 0.950 . S
H1437 C1467 0.950 . S
C1438 H1420 0.951 . S
C1438 C1439 1.366 . S
C1438 C1440 1.388 . S
C1439 C1438 1.366 . S
C1439 C1443 1.385 . S
C1440 H1421 0.951 . S
C1440 C1438 1.388 . S
C1440 C1441 1.366 . S
C1441 C1440 1.366 . S
C1441 C1442 1.414 . S
C1441 C1444 1.499 . S
C1442 H1422 0.950 . S
C1442 C1441 1.414 . S
C1442 C1443 1.374 . S
C1443 H1423 0.950 . S
C1443 C1439 1.385 . S
C1443 C1442 1.374 . S
C1444 C1441 1.499 . S
C1444 C1445 1.373 . S
C1444 C1446 1.389 . S
C1445 H1424 0.950 . S
C1445 C1444 1.373 . S
C1445 C1461 1.377 . S
C1446 C1444 1.389 . S
C1446 C1447 1.524 . S
C1446 C1460 1.377 . S
C1447 C1446 1.524 . S
C1447 C1448 1.397 . S
C1447 C1452 1.363 . S
C1448 H1425 0.950 . S
C1448 C1447 1.397 . S
C1448 C1449 1.334 . S
C1449 H1426 0.950 . S
C1449 C1448 1.334 . S
C1449 C1450 1.287 . S
C1450 C1449 1.287 . S
C1450 C1451 1.524 . S
C1450 H1469 0.913 . S
C1451 H1427 0.950 . S
C1451 C1450 1.524 . S
C1451 C1452 1.415 . S
C1452 H1428 0.950 . S
C1452 C1447 1.363 . S
C1452 C1451 1.415 . S
C1453 H1429 0.951 . S
C1453 C1454 1.366 . S
C1453 C1455 1.388 . S
C1454 C1453 1.366 . S
C1454 C1458 1.385 . S
C1455 H1430 0.951 . S
C1455 C1453 1.388 . S
C1455 C1456 1.366 . S
C1456 C1455 1.366 . S
C1456 C1457 1.414 . S
C1456 C1459 1.499 . S
C1457 H1431 0.950 . S
C1457 C1456 1.414 . S
C1457 C1458 1.374 . S
C1458 H1432 0.950 . S
C1458 C1454 1.385 . S
C1458 C1457 1.374 . S
C1459 C1456 1.499 . S
C1459 C1460 1.373 . S
C1459 C1461 1.389 . S
C1460 H1433 0.950 . S
C1460 C1446 1.377 . S
C1460 C1459 1.373 . S
C1461 C1445 1.377 . S
C1461 C1459 1.389 . S
C1461 C1462 1.524 . S
C1462 C1461 1.524 . S
C1462 C1463 1.397 . S
C1462 C1467 1.363 . S
C1463 H1434 0.950 . S
C1463 C1462 1.397 . S
C1463 C1464 1.334 . S
C1464 H1435 0.950 . S
C1464 C1463 1.334 . S
C1464 C1465 1.287 . S
C1465 C1464 1.287 . S
C1465 C1466 1.524 . S
C1465 H1468 0.999 . S
C1466 H1436 0.950 . S
C1466 C1465 1.524 . S
C1466 C1467 1.415 . S
C1467 H1437 0.950 . S
C1467 C1462 1.363 . S
C1467 C1466 1.415 . S
H1468 C1465 0.999 . S
H1469 C1450 0.913 . S
H1470 C1488 0.951 . S
H1471 C1490 0.951 . S
H1472 C1492 0.950 . S
H1473 C1493 0.950 . S
H1474 C1495 0.950 . S
H1475 C1498 0.950 . S
H1476 C1499 0.950 . S
H1477 C1501 0.950 . S
H1478 C1502 0.950 . S
H1479 C1503 0.951 . S
H1480 C1505 0.951 . S
H1481 C1507 0.950 . S
H1482 C1508 0.950 . S
H1483 C1510 0.950 . S
H1484 C1513 0.950 . S
H1485 C1514 0.950 . S
H1486 C1516 0.950 . S
H1487 C1517 0.950 . S
C1488 H1470 0.951 . S
C1488 C1489 1.366 . S
C1488 C1490 1.388 . S
C1489 C1488 1.366 . S
C1489 C1493 1.385 . S
C1490 H1471 0.951 . S
C1490 C1488 1.388 . S
C1490 C1491 1.366 . S
C1491 C1490 1.366 . S
C1491 C1492 1.414 . S
C1491 C1494 1.499 . S
C1492 H1472 0.950 . S
C1492 C1491 1.414 . S
C1492 C1493 1.374 . S
C1493 H1473 0.950 . S
C1493 C1489 1.385 . S
C1493 C1492 1.374 . S
C1494 C1491 1.499 . S
C1494 C1495 1.373 . S
C1494 C1496 1.389 . S
C1495 H1474 0.950 . S
C1495 C1494 1.373 . S
C1495 C1511 1.377 . S
C1496 C1494 1.389 . S
C1496 C1497 1.524 . S
C1496 C1510 1.377 . S
C1497 C1496 1.524 . S
C1497 C1498 1.397 . S
C1497 C1502 1.363 . S
C1498 H1475 0.950 . S
C1498 C1497 1.397 . S
C1498 C1499 1.334 . S
C1499 H1476 0.950 . S
C1499 C1498 1.334 . S
C1499 C1500 1.287 . S
C1500 C1499 1.287 . S
C1500 C1501 1.524 . S
C1500 H1519 0.913 . S
C1501 H1477 0.950 . S
C1501 C1500 1.524 . S
C1501 C1502 1.415 . S
C1502 H1478 0.950 . S
C1502 C1497 1.363 . S
C1502 C1501 1.415 . S
C1503 H1479 0.951 . S
C1503 C1504 1.366 . S
C1503 C1505 1.388 . S
C1504 C1503 1.366 . S
C1504 C1508 1.385 . S
C1505 H1480 0.951 . S
C1505 C1503 1.388 . S
C1505 C1506 1.366 . S
C1506 C1505 1.366 . S
C1506 C1507 1.414 . S
C1506 C1509 1.499 . S
C1507 H1481 0.950 . S
C1507 C1506 1.414 . S
C1507 C1508 1.374 . S
C1508 H1482 0.950 . S
C1508 C1504 1.385 . S
C1508 C1507 1.374 . S
C1509 C1506 1.499 . S
C1509 C1510 1.373 . S
C1509 C1511 1.389 . S
C1510 H1483 0.950 . S
C1510 C1496 1.377 . S
C1510 C1509 1.373 . S
C1511 C1495 1.377 . S
C1511 C1509 1.389 . S
C1511 C1512 1.524 . S
C1512 C1511 1.524 . S
C1512 C1513 1.397 . S
C1512 C1517 1.363 . S
C1513 H1484 0.950 . S
C1513 C1512 1.397 . S
C1513 C1514 1.334 . S
C1514 H1485 0.950 . S
C1514 C1513 1.334 . S
C1514 C1515 1.287 . S
C1515 C1514 1.287 . S
C1515 C1516 1.524 . S
C1515 H1518 0.999 . S
C1516 H1486 0.950 . S
C1516 C1515 1.524 . S
C1516 C1517 1.415 . S
C1517 H1487 0.950 . S
C1517 C1512 1.363 . S
C1517 C1516 1.415 . S
H1518 C1515 0.999 . S
H1519 C1500 0.913 . S
H1520 C1538 0.951 . S
H1521 C1540 0.951 . S
H1522 C1542 0.950 . S
H1523 C1543 0.950 . S
H1524 C1545 0.950 . S
H1525 C1548 0.950 . S
H1526 C1549 0.950 . S
H1527 C1551 0.950 . S
H1528 C1552 0.950 . S
H1529 C1553 0.951 . S
H1530 C1555 0.951 . S
H1531 C1557 0.950 . S
H1532 C1558 0.950 . S
H1533 C1560 0.950 . S
H1534 C1563 0.950 . S
H1535 C1564 0.950 . S
H1536 C1566 0.950 . S
H1537 C1567 0.950 . S
C1538 H1520 0.951 . S
C1538 C1539 1.366 . S
C1538 C1540 1.388 . S
C1539 C1538 1.366 . S
C1539 C1543 1.385 . S
C1540 H1521 0.951 . S
C1540 C1538 1.388 . S
C1540 C1541 1.366 . S
C1541 C1540 1.366 . S
C1541 C1542 1.414 . S
C1541 C1544 1.499 . S
C1542 H1522 0.950 . S
C1542 C1541 1.414 . S
C1542 C1543 1.374 . S
C1543 H1523 0.950 . S
C1543 C1539 1.385 . S
C1543 C1542 1.374 . S
C1544 C1541 1.499 . S
C1544 C1545 1.373 . S
C1544 C1546 1.389 . S
C1545 H1524 0.950 . S
C1545 C1544 1.373 . S
C1545 C1561 1.377 . S
C1546 C1544 1.389 . S
C1546 C1547 1.524 . S
C1546 C1560 1.377 . S
C1547 C1546 1.524 . S
C1547 C1548 1.397 . S
C1547 C1552 1.363 . S
C1548 H1525 0.950 . S
C1548 C1547 1.397 . S
C1548 C1549 1.334 . S
C1549 H1526 0.950 . S
C1549 C1548 1.334 . S
C1549 C1550 1.287 . S
C1550 C1549 1.287 . S
C1550 C1551 1.524 . S
C1550 H1569 0.913 . S
C1551 H1527 0.950 . S
C1551 C1550 1.524 . S
C1551 C1552 1.415 . S
C1552 H1528 0.950 . S
C1552 C1547 1.363 . S
C1552 C1551 1.415 . S
C1553 H1529 0.951 . S
C1553 C1554 1.366 . S
C1553 C1555 1.388 . S
C1554 C1553 1.366 . S
C1554 C1558 1.385 . S
C1555 H1530 0.951 . S
C1555 C1553 1.388 . S
C1555 C1556 1.366 . S
C1556 C1555 1.366 . S
C1556 C1557 1.414 . S
C1556 C1559 1.499 . S
C1557 H1531 0.950 . S
C1557 C1556 1.414 . S
C1557 C1558 1.374 . S
C1558 H1532 0.950 . S
C1558 C1554 1.385 . S
C1558 C1557 1.374 . S
C1559 C1556 1.499 . S
C1559 C1560 1.373 . S
C1559 C1561 1.389 . S
C1560 H1533 0.950 . S
C1560 C1546 1.377 . S
C1560 C1559 1.373 . S
C1561 C1545 1.377 . S
C1561 C1559 1.389 . S
C1561 C1562 1.524 . S
C1562 C1561 1.524 . S
C1562 C1563 1.397 . S
C1562 C1567 1.363 . S
C1563 H1534 0.950 . S
C1563 C1562 1.397 . S
C1563 C1564 1.334 . S
C1564 H1535 0.950 . S
C1564 C1563 1.334 . S
C1564 C1565 1.287 . S
C1565 C1564 1.287 . S
C1565 C1566 1.524 1_556 S
C1565 H1568 0.999 1_556 S
C1566 H1536 0.950 . S
C1566 C1565 1.524 1_554 S
C1566 C1567 1.415 1_554 S
C1567 H1537 0.950 . S
C1567 C1562 1.363 . S
C1567 C1566 1.415 1_556 S
H1568 C1565 0.999 1_554 S
H1569 C1550 0.913 . S
H1570 C1588 0.951 . S
H1571 C1590 0.951 . S
H1572 C1592 0.950 . S
H1573 C1593 0.950 . S
H1574 C1595 0.950 . S
H1575 C1598 0.950 . S
H1576 C1599 0.950 . S
H1577 C1601 0.950 . S
H1578 C1602 0.950 . S
H1579 C1603 0.951 . S
H1580 C1605 0.951 . S
H1581 C1607 0.950 . S
H1582 C1608 0.950 . S
H1583 C1610 0.950 . S
H1584 C1613 0.950 . S
H1585 C1614 0.950 . S
H1586 C1616 0.950 . S
H1587 C1617 0.950 . S
C1588 H1570 0.951 . S
C1588 C1589 1.366 . S
C1588 C1590 1.388 . S
C1589 C1588 1.366 . S
C1589 C1593 1.385 . S
C1590 H1571 0.951 . S
C1590 C1588 1.388 . S
C1590 C1591 1.366 . S
C1591 C1590 1.366 . S
C1591 C1592 1.414 . S
C1591 C1594 1.499 . S
C1592 H1572 0.950 . S
C1592 C1591 1.414 . S
C1592 C1593 1.374 . S
C1593 H1573 0.950 . S
C1593 C1589 1.385 . S
C1593 C1592 1.374 . S
C1594 C1591 1.499 . S
C1594 C1595 1.373 . S
C1594 C1596 1.389 . S
C1595 H1574 0.950 . S
C1595 C1594 1.373 . S
C1595 C1611 1.377 . S
C1596 C1594 1.389 . S
C1596 C1597 1.524 . S
C1596 C1610 1.377 . S
C1597 C1596 1.524 . S
C1597 C1598 1.397 . S
C1597 C1602 1.363 . S
C1598 H1575 0.950 . S
C1598 C1597 1.397 . S
C1598 C1599 1.334 . S
C1599 H1576 0.950 . S
C1599 C1598 1.334 . S
C1599 C1600 1.287 . S
C1600 C1599 1.287 . S
C1600 C1601 1.524 . S
C1600 H1619 0.913 . S
C1601 H1577 0.950 . S
C1601 C1600 1.524 . S
C1601 C1602 1.415 . S
C1602 H1578 0.950 . S
C1602 C1597 1.363 . S
C1602 C1601 1.415 . S
C1603 H1579 0.951 . S
C1603 C1604 1.366 . S
C1603 C1605 1.388 . S
C1604 C1603 1.366 . S
C1604 C1608 1.385 . S
C1605 H1580 0.951 . S
C1605 C1603 1.388 . S
C1605 C1606 1.366 . S
C1606 C1605 1.366 . S
C1606 C1607 1.414 . S
C1606 C1609 1.499 . S
C1607 H1581 0.950 . S
C1607 C1606 1.414 . S
C1607 C1608 1.374 . S
C1608 H1582 0.950 . S
C1608 C1604 1.385 . S
C1608 C1607 1.374 . S
C1609 C1606 1.499 . S
C1609 C1610 1.373 . S
C1609 C1611 1.389 . S
C1610 H1583 0.950 . S
C1610 C1596 1.377 . S
C1610 C1609 1.373 . S
C1611 C1595 1.377 . S
C1611 C1609 1.389 . S
C1611 C1612 1.524 . S
C1612 C1611 1.524 . S
C1612 C1613 1.397 . S
C1612 C1617 1.363 . S
C1613 H1584 0.950 . S
C1613 C1612 1.397 . S
C1613 C1614 1.334 . S
C1614 H1585 0.950 . S
C1614 C1613 1.334 . S
C1614 C1615 1.287 . S
C1615 C1614 1.287 . S
C1615 C1616 1.524 . S
C1615 H1618 0.999 . S
C1616 H1586 0.950 . S
C1616 C1615 1.524 . S
C1616 C1617 1.415 . S
C1617 H1587 0.950 . S
C1617 C1612 1.363 . S
C1617 C1616 1.415 . S
H1618 C1615 0.999 . S
H1619 C1600 0.913 . S
H1620 C1638 0.951 . S
H1621 C1640 0.951 . S
H1622 C1642 0.950 . S
H1623 C1643 0.950 . S
H1624 C1645 0.950 . S
H1625 C1648 0.950 . S
H1626 C1649 0.950 . S
H1627 C1651 0.950 . S
H1628 C1652 0.950 . S
H1629 C1653 0.951 . S
H1630 C1655 0.951 . S
H1631 C1657 0.950 . S
H1632 C1658 0.950 . S
H1633 C1660 0.950 . S
H1634 C1663 0.950 . S
H1635 C1664 0.950 1_556 S
H1636 C1666 0.950 . S
H1637 C1667 0.950 . S
C1638 H1620 0.951 . S
C1638 C1639 1.366 . S
C1638 C1640 1.388 . S
C1639 C1638 1.366 . S
C1639 C1643 1.385 . S
C1640 H1621 0.951 . S
C1640 C1638 1.388 . S
C1640 C1641 1.366 . S
C1641 C1640 1.366 . S
C1641 C1642 1.414 . S
C1641 C1644 1.499 . S
C1642 H1622 0.950 . S
C1642 C1641 1.414 . S
C1642 C1643 1.374 . S
C1643 H1623 0.950 . S
C1643 C1639 1.385 . S
C1643 C1642 1.374 . S
C1644 C1641 1.499 . S
C1644 C1645 1.373 . S
C1644 C1646 1.389 . S
C1645 H1624 0.950 . S
C1645 C1644 1.373 . S
C1645 C1661 1.377 . S
C1646 C1644 1.389 . S
C1646 C1647 1.524 . S
C1646 C1660 1.377 . S
C1647 C1646 1.524 . S
C1647 C1648 1.397 . S
C1647 C1652 1.363 . S
C1648 H1625 0.950 . S
C1648 C1647 1.397 . S
C1648 C1649 1.334 . S
C1649 H1626 0.950 . S
C1649 C1648 1.334 . S
C1649 C1650 1.287 . S
C1650 C1649 1.287 . S
C1650 C1651 1.524 . S
C1650 H1669 0.913 . S
C1651 H1627 0.950 . S
C1651 C1650 1.524 . S
C1651 C1652 1.415 . S
C1652 H1628 0.950 . S
C1652 C1647 1.363 . S
C1652 C1651 1.415 . S
C1653 H1629 0.951 . S
C1653 C1654 1.366 . S
C1653 C1655 1.388 . S
C1654 C1653 1.366 . S
C1654 C1658 1.385 . S
C1655 H1630 0.951 . S
C1655 C1653 1.388 . S
C1655 C1656 1.366 . S
C1656 C1655 1.366 . S
C1656 C1657 1.414 . S
C1656 C1659 1.499 . S
C1657 H1631 0.950 . S
C1657 C1656 1.414 . S
C1657 C1658 1.374 . S
C1658 H1632 0.950 . S
C1658 C1654 1.385 . S
C1658 C1657 1.374 . S
C1659 C1656 1.499 . S
C1659 C1660 1.373 . S
C1659 C1661 1.389 . S
C1660 H1633 0.950 . S
C1660 C1646 1.377 . S
C1660 C1659 1.373 . S
C1661 C1645 1.377 . S
C1661 C1659 1.389 . S
C1661 C1662 1.524 . S
C1662 C1661 1.524 . S
C1662 C1663 1.397 . S
C1662 C1667 1.363 . S
C1663 H1634 0.950 . S
C1663 C1662 1.397 . S
C1663 C1664 1.334 . S
C1664 H1635 0.950 1_554 S
C1664 C1663 1.334 . S
C1664 C1665 1.287 1_554 S
C1665 C1664 1.287 1_556 S
C1665 C1666 1.524 1_556 S
C1665 H1668 0.999 . S
C1666 H1636 0.950 . S
C1666 C1665 1.524 1_554 S
C1666 C1667 1.415 . S
C1667 H1637 0.950 . S
C1667 C1662 1.363 . S
C1667 C1666 1.415 . S
H1668 C1665 0.999 . S
H1669 C1650 0.913 . S
H1670 C1688 0.951 . S
H1671 C1690 0.951 . S
H1672 C1692 0.950 . S
H1673 C1693 0.950 . S
H1674 C1695 0.950 . S
H1675 C1698 0.950 . S
H1676 C1699 0.950 . S
H1677 C1701 0.950 . S
H1678 C1702 0.950 . S
H1679 C1703 0.951 . S
H1680 C1705 0.951 . S
H1681 C1707 0.950 . S
H1682 C1708 0.950 . S
H1683 C1710 0.950 . S
H1684 C1713 0.950 . S
H1685 C1714 0.950 . S
H1686 C1716 0.950 . S
H1687 C1717 0.950 . S
C1688 H1670 0.951 . S
C1688 C1689 1.366 . S
C1688 C1690 1.388 . S
C1689 C1688 1.366 . S
C1689 C1693 1.385 . S
C1690 H1671 0.951 . S
C1690 C1688 1.388 . S
C1690 C1691 1.366 . S
C1691 C1690 1.366 . S
C1691 C1692 1.414 . S
C1691 C1694 1.499 . S
C1692 H1672 0.950 . S
C1692 C1691 1.414 . S
C1692 C1693 1.374 . S
C1693 H1673 0.950 . S
C1693 C1689 1.385 . S
C1693 C1692 1.374 . S
C1694 C1691 1.499 . S
C1694 C1695 1.373 . S
C1694 C1696 1.389 . S
C1695 H1674 0.950 . S
C1695 C1694 1.373 . S
C1695 C1711 1.377 . S
C1696 C1694 1.389 . S
C1696 C1697 1.524 . S
C1696 C1710 1.377 . S
C1697 C1696 1.524 . S
C1697 C1698 1.397 . S
C1697 C1702 1.363 . S
C1698 H1675 0.950 . S
C1698 C1697 1.397 . S
C1698 C1699 1.334 . S
C1699 H1676 0.950 . S
C1699 C1698 1.334 . S
C1699 C1700 1.287 . S
C1700 C1699 1.287 . S
C1700 C1701 1.524 . S
C1700 H1719 0.913 . S
C1701 H1677 0.950 . S
C1701 C1700 1.524 . S
C1701 C1702 1.415 . S
C1702 H1678 0.950 . S
C1702 C1697 1.363 . S
C1702 C1701 1.415 . S
C1703 H1679 0.951 . S
C1703 C1704 1.366 . S
C1703 C1705 1.388 . S
C1704 C1703 1.366 . S
C1704 C1708 1.385 . S
C1705 H1680 0.951 . S
C1705 C1703 1.388 . S
C1705 C1706 1.366 . S
C1706 C1705 1.366 . S
C1706 C1707 1.414 . S
C1706 C1709 1.499 . S
C1707 H1681 0.950 . S
C1707 C1706 1.414 . S
C1707 C1708 1.374 . S
C1708 H1682 0.950 . S
C1708 C1704 1.385 . S
C1708 C1707 1.374 . S
C1709 C1706 1.499 . S
C1709 C1710 1.373 . S
C1709 C1711 1.389 . S
C1710 H1683 0.950 . S
C1710 C1696 1.377 . S
C1710 C1709 1.373 . S
C1711 C1695 1.377 . S
C1711 C1709 1.389 . S
C1711 C1712 1.524 . S
C1712 C1711 1.524 . S
C1712 C1713 1.397 . S
C1712 C1717 1.363 . S
C1713 H1684 0.950 . S
C1713 C1712 1.397 . S
C1713 C1714 1.334 . S
C1714 H1685 0.950 . S
C1714 C1713 1.334 . S
C1714 C1715 1.287 . S
C1715 C1714 1.287 . S
C1715 C1716 1.524 . S
C1715 H1718 0.999 . S
C1716 H1686 0.950 . S
C1716 C1715 1.524 . S
C1716 C1717 1.415 . S
C1717 H1687 0.950 . S
C1717 C1712 1.363 . S
C1717 C1716 1.415 . S
H1718 C1715 0.999 . S
H1719 C1700 0.913 . S
H1720 C1738 0.951 . S
H1721 C1740 0.951 . S
H1722 C1742 0.950 . S
H1723 C1743 0.950 . S
H1724 C1745 0.950 1_655 S
H1725 C1748 0.950 . S
H1726 C1749 0.950 . S
H1727 C1751 0.941 1_455 S
H1728 C1752 0.950 . S
H1729 C1753 0.951 1_554 S
H1730 C1755 0.951 . S
H1731 C1757 0.950 . S
H1732 C1758 0.950 . S
H1733 C1760 0.950 . S
H1734 C1763 0.950 . S
H1735 C1764 0.950 . S
H1736 C1766 0.950 . S
H1737 C1767 0.950 . S
C1738 H1720 0.951 . S
C1738 C1739 1.366 . S
C1738 C1740 1.388 . S
C1739 C1738 1.366 . S
C1739 C1743 1.385 . S
C1740 H1721 0.951 . S
C1740 C1738 1.388 . S
C1740 C1741 1.366 . S
C1741 C1740 1.366 . S
C1741 C1742 1.414 . S
C1741 C1744 1.499 . S
C1742 H1722 0.950 . S
C1742 C1741 1.414 . S
C1742 C1743 1.374 . S
C1743 H1723 0.950 . S
C1743 C1739 1.385 . S
C1743 C1742 1.374 . S
C1744 C1741 1.499 . S
C1744 C1745 1.373 1_655 S
C1744 C1746 1.389 1_655 S
C1745 H1724 0.950 1_455 S
C1745 C1744 1.373 1_455 S
C1745 C1761 1.377 . S
C1746 C1744 1.389 1_455 S
C1746 C1747 1.510 1_455 S
C1746 C1760 1.377 . S
C1747 C1746 1.510 1_655 S
C1747 C1748 1.424 . S
C1747 C1752 1.348 1_655 S
C1748 H1725 0.950 . S
C1748 C1747 1.424 . S
C1748 C1749 1.334 . S
C1749 H1726 0.950 . S
C1749 C1748 1.334 . S
C1749 C1750 1.287 . S
C1750 C1749 1.287 . S
C1750 C1751 1.546 . S
C1750 H1769 0.913 . S
C1751 H1727 0.941 1_655 S
C1751 C1750 1.546 . S
C1751 C1752 1.405 1_655 S
C1752 H1728 0.950 . S
C1752 C1747 1.348 1_455 S
C1752 C1751 1.405 1_455 S
C1753 H1729 0.951 1_556 S
C1753 C1754 1.366 . S
C1753 C1755 1.388 . S
C1754 C1753 1.366 . S
C1754 C1758 1.385 . S
C1755 H1730 0.951 . S
C1755 C1753 1.388 . S
C1755 C1756 1.366 . S
C1756 C1755 1.366 . S
C1756 C1757 1.414 . S
C1756 C1759 1.499 . S
C1757 H1731 0.950 . S
C1757 C1756 1.414 . S
C1757 C1758 1.374 . S
C1758 H1732 0.950 . S
C1758 C1754 1.385 . S
C1758 C1757 1.374 . S
C1759 C1756 1.499 . S
C1759 C1760 1.373 . S
C1759 C1761 1.389 . S
C1760 H1733 0.950 . S
C1760 C1746 1.377 . S
C1760 C1759 1.373 . S
C1761 C1745 1.377 . S
C1761 C1759 1.389 . S
C1761 C1762 1.524 1_556 S
C1762 C1761 1.524 1_554 S
C1762 C1763 1.397 . S
C1762 C1767 1.363 . S
C1763 H1734 0.950 . S
C1763 C1762 1.397 . S
C1763 C1764 1.334 . S
C1764 H1735 0.950 . S
C1764 C1763 1.334 . S
C1764 C1765 1.287 . S
C1765 C1764 1.287 . S
C1765 C1766 1.524 . S
C1765 H1768 0.999 . S
C1766 H1736 0.950 . S
C1766 C1765 1.524 . S
C1766 C1767 1.415 . S
C1767 H1737 0.950 . S
C1767 C1762 1.363 . S
C1767 C1766 1.415 . S
H1768 C1765 0.999 . S
H1769 C1750 0.913 . S
H1770 C1788 0.951 . S
H1771 C1790 0.951 . S
H1772 C1792 0.950 . S
H1773 C1793 0.950 . S
H1774 C1795 0.950 . S
H1775 C1798 0.950 . S
H1776 C1799 0.950 . S
H1777 C1801 0.950 . S
H1778 C1802 0.950 . S
H1779 C1803 0.951 . S
H1780 C1805 0.951 . S
H1781 C1807 0.950 . S
H1782 C1808 0.950 . S
H1783 C1810 0.950 . S
H1784 C1813 0.950 . S
H1785 C1814 0.950 . S
H1786 C1816 0.950 . S
H1787 C1817 0.950 . S
C1788 H1770 0.951 . S
C1788 C1789 1.366 . S
C1788 C1790 1.388 . S
C1789 C1788 1.366 . S
C1789 C1793 1.385 . S
C1790 H1771 0.951 . S
C1790 C1788 1.388 . S
C1790 C1791 1.366 . S
C1791 C1790 1.366 . S
C1791 C1792 1.414 . S
C1791 C1794 1.499 . S
C1792 H1772 0.950 . S
C1792 C1791 1.414 . S
C1792 C1793 1.374 . S
C1793 H1773 0.950 . S
C1793 C1789 1.385 . S
C1793 C1792 1.374 . S
C1794 C1791 1.499 . S
C1794 C1795 1.373 . S
C1794 C1796 1.389 . S
C1795 H1774 0.950 . S
C1795 C1794 1.373 . S
C1795 C1811 1.377 . S
C1796 C1794 1.389 . S
C1796 C1797 1.524 . S
C1796 C1810 1.377 . S
C1797 C1796 1.524 . S
C1797 C1798 1.397 . S
C1797 C1802 1.363 . S
C1798 H1775 0.950 . S
C1798 C1797 1.397 . S
C1798 C1799 1.334 . S
C1799 H1776 0.950 . S
C1799 C1798 1.334 . S
C1799 C1800 1.287 . S
C1800 C1799 1.287 . S
C1800 C1801 1.524 . S
C1800 H1819 0.913 . S
C1801 H1777 0.950 . S
C1801 C1800 1.524 . S
C1801 C1802 1.415 . S
C1802 H1778 0.950 . S
C1802 C1797 1.363 . S
C1802 C1801 1.415 . S
C1803 H1779 0.951 . S
C1803 C1804 1.366 . S
C1803 C1805 1.388 . S
C1804 C1803 1.366 . S
C1804 C1808 1.385 . S
C1805 H1780 0.951 . S
C1805 C1803 1.388 . S
C1805 C1806 1.366 . S
C1806 C1805 1.366 . S
C1806 C1807 1.414 . S
C1806 C1809 1.499 . S
C1807 H1781 0.950 . S
C1807 C1806 1.414 . S
C1807 C1808 1.374 . S
C1808 H1782 0.950 . S
C1808 C1804 1.385 . S
C1808 C1807 1.374 . S
C1809 C1806 1.499 . S
C1809 C1810 1.373 . S
C1809 C1811 1.389 . S
C1810 H1783 0.950 . S
C1810 C1796 1.377 . S
C1810 C1809 1.373 . S
C1811 C1795 1.377 . S
C1811 C1809 1.389 . S
C1811 C1812 1.524 . S
C1812 C1811 1.524 . S
C1812 C1813 1.397 . S
C1812 C1817 1.363 . S
C1813 H1784 0.950 . S
C1813 C1812 1.397 . S
C1813 C1814 1.334 . S
C1814 H1785 0.950 . S
C1814 C1813 1.334 . S
C1814 C1815 1.287 . S
C1815 C1814 1.287 . S
C1815 C1816 1.524 . S
C1815 H1818 0.999 . S
C1816 H1786 0.950 . S
C1816 C1815 1.524 . S
C1816 C1817 1.415 . S
C1817 H1787 0.950 . S
C1817 C1812 1.363 . S
C1817 C1816 1.415 . S
H1818 C1815 0.999 . S
H1819 C1800 0.913 . S
H1820 C1838 0.951 . S
H1821 C1840 0.951 . S
H1822 C1842 0.950 . S
H1823 C1843 0.950 . S
H1824 C1845 0.950 . S
H1825 C1848 0.950 . S
H1826 C1849 0.950 . S
H1827 C1851 0.950 . S
H1828 C1852 0.950 . S
H1829 C1853 0.951 . S
H1830 C1855 0.951 . S
H1831 C1857 0.950 . S
H1832 C1858 0.950 . S
H1833 C1860 0.950 . S
H1834 C1863 0.950 . S
H1835 C1864 0.950 . S
H1836 C1866 0.950 . S
H1837 C1867 0.950 . S
C1838 H1820 0.951 . S
C1838 C1839 1.366 . S
C1838 C1840 1.388 . S
C1839 C1838 1.366 . S
C1839 C1843 1.385 . S
C1840 H1821 0.951 . S
C1840 C1838 1.388 . S
C1840 C1841 1.366 . S
C1841 C1840 1.366 . S
C1841 C1842 1.414 . S
C1841 C1844 1.499 . S
C1842 H1822 0.950 . S
C1842 C1841 1.414 . S
C1842 C1843 1.374 . S
C1843 H1823 0.950 . S
C1843 C1839 1.385 . S
C1843 C1842 1.374 . S
C1844 C1841 1.499 . S
C1844 C1845 1.373 . S
C1844 C1846 1.389 . S
C1845 H1824 0.950 . S
C1845 C1844 1.373 . S
C1845 C1861 1.377 . S
C1846 C1844 1.389 . S
C1846 C1847 1.524 . S
C1846 C1860 1.377 . S
C1847 C1846 1.524 . S
C1847 C1848 1.397 . S
C1847 C1852 1.363 . S
C1848 H1825 0.950 . S
C1848 C1847 1.397 . S
C1848 C1849 1.334 . S
C1849 H1826 0.950 . S
C1849 C1848 1.334 . S
C1849 C1850 1.287 . S
C1850 C1849 1.287 . S
C1850 C1851 1.524 . S
C1850 H1869 0.913 . S
C1851 H1827 0.950 . S
C1851 C1850 1.524 . S
C1851 C1852 1.415 . S
C1852 H1828 0.950 . S
C1852 C1847 1.363 . S
C1852 C1851 1.415 . S
C1853 H1829 0.951 . S
C1853 C1854 1.366 . S
C1853 C1855 1.388 . S
C1854 C1853 1.366 . S
C1854 C1858 1.385 . S
C1855 H1830 0.951 . S
C1855 C1853 1.388 . S
C1855 C1856 1.366 . S
C1856 C1855 1.366 . S
C1856 C1857 1.414 . S
C1856 C1859 1.499 . S
C1857 H1831 0.950 . S
C1857 C1856 1.414 . S
C1857 C1858 1.374 . S
C1858 H1832 0.950 . S
C1858 C1854 1.385 . S
C1858 C1857 1.374 . S
C1859 C1856 1.499 . S
C1859 C1860 1.373 . S
C1859 C1861 1.389 . S
C1860 H1833 0.950 . S
C1860 C1846 1.377 . S
C1860 C1859 1.373 . S
C1861 C1845 1.377 . S
C1861 C1859 1.389 . S
C1861 C1862 1.524 . S
C1862 C1861 1.524 . S
C1862 C1863 1.397 . S
C1862 C1867 1.363 . S
C1863 H1834 0.950 . S
C1863 C1862 1.397 . S
C1863 C1864 1.334 . S
C1864 H1835 0.950 . S
C1864 C1863 1.334 . S
C1864 C1865 1.287 . S
C1865 C1864 1.287 . S
C1865 C1866 1.524 . S
C1865 H1868 0.999 . S
C1866 H1836 0.950 . S
C1866 C1865 1.524 . S
C1866 C1867 1.415 . S
C1867 H1837 0.950 . S
C1867 C1862 1.363 . S
C1867 C1866 1.415 . S
H1868 C1865 0.999 . S
H1869 C1850 0.913 . S
H1870 C1888 0.951 . S
H1871 C1890 0.951 . S
H1872 C1892 0.950 . S
H1873 C1893 0.950 . S
H1874 C1895 0.950 1_455 S
H1875 C1898 0.950 . S
H1876 C1899 0.950 . S
H1877 C1901 0.936 1_655 S
H1878 C1902 0.950 . S
H1879 C1903 0.951 1_556 S
H1880 C1905 0.951 1_556 S
H1881 C1907 0.950 . S
H1882 C1908 0.950 . S
H1883 C1910 0.950 . S
H1884 C1913 0.950 . S
H1885 C1914 0.950 . S
H1886 C1916 0.950 . S
H1887 C1917 0.950 . S
C1888 H1870 0.951 . S
C1888 C1889 1.366 . S
C1888 C1890 1.388 . S
C1889 C1888 1.366 . S
C1889 C1893 1.385 . S
C1890 H1871 0.951 . S
C1890 C1888 1.388 . S
C1890 C1891 1.366 . S
C1891 C1890 1.366 . S
C1891 C1892 1.414 . S
C1891 C1894 1.499 . S
C1892 H1872 0.950 . S
C1892 C1891 1.414 . S
C1892 C1893 1.374 . S
C1893 H1873 0.950 . S
C1893 C1889 1.385 . S
C1893 C1892 1.374 . S
C1894 C1891 1.499 . S
C1894 C1895 1.373 1_455 S
C1894 C1896 1.389 1_455 S
C1895 H1874 0.950 1_655 S
C1895 C1894 1.373 1_655 S
C1895 C1911 1.377 . S
C1896 C1894 1.389 1_655 S
C1896 C1897 1.524 1_655 S
C1896 C1910 1.377 . S
C1897 C1896 1.524 1_455 S
C1897 C1898 1.397 . S
C1897 C1902 1.363 1_455 S
C1898 H1875 0.950 . S
C1898 C1897 1.397 . S
C1898 C1899 1.334 . S
C1899 H1876 0.950 . S
C1899 C1898 1.334 . S
C1899 C1900 1.287 . S
C1900 C1899 1.287 . S
C1900 C1901 1.559 . S
C1900 H1919 0.913 . S
C1901 H1877 0.936 1_455 S
C1901 C1900 1.559 . S
C1901 C1902 1.399 1_455 S
C1902 H1878 0.950 . S
C1902 C1897 1.363 1_655 S
C1902 C1901 1.399 1_655 S
C1903 H1879 0.951 1_554 S
C1903 C1904 1.366 . S
C1903 C1905 1.388 . S
C1904 C1903 1.366 . S
C1904 C1908 1.385 . S
C1905 H1880 0.951 1_554 S
C1905 C1903 1.388 . S
C1905 C1906 1.366 . S
C1906 C1905 1.366 . S
C1906 C1907 1.414 . S
C1906 C1909 1.499 . S
C1907 H1881 0.950 . S
C1907 C1906 1.414 . S
C1907 C1908 1.374 . S
C1908 H1882 0.950 . S
C1908 C1904 1.385 . S
C1908 C1907 1.374 . S
C1909 C1906 1.499 . S
C1909 C1910 1.373 . S
C1909 C1911 1.389 . S
C1910 H1883 0.950 . S
C1910 C1896 1.377 . S
C1910 C1909 1.373 . S
C1911 C1895 1.377 . S
C1911 C1909 1.389 . S
C1911 C1912 1.524 1_554 S
C1912 C1911 1.524 1_556 S
C1912 C1913 1.397 1_556 S
C1912 C1917 1.363 . S
C1913 H1884 0.950 . S
C1913 C1912 1.397 1_554 S
C1913 C1914 1.334 1_554 S
C1914 H1885 0.950 . S
C1914 C1913 1.334 1_556 S
C1914 C1915 1.287 . S
C1915 C1914 1.287 . S
C1915 C1916 1.524 . S
C1915 H1918 0.999 . S
C1916 H1886 0.950 . S
C1916 C1915 1.524 . S
C1916 C1917 1.415 . S
C1917 H1887 0.950 . S
C1917 C1912 1.363 . S
C1917 C1916 1.415 . S
H1918 C1915 0.999 . S
H1919 C1900 0.913 . S
H1920 C1938 0.951 . S
H1921 C1940 0.951 . S
H1922 C1942 0.950 . S
H1923 C1943 0.950 . S
H1924 C1945 0.950 . S
H1925 C1948 0.950 . S
H1926 C1949 0.950 . S
H1927 C1951 0.950 . S
H1928 C1952 0.950 . S
H1929 C1953 0.952 . S
H1930 C1955 0.951 . S
H1931 C1957 0.950 . S
H1932 C1958 0.950 . S
H1933 C1960 0.950 . S
H1934 C1963 0.950 . S
H1935 C1964 0.950 . S
H1936 C1966 0.950 . S
H1937 C1967 0.950 . S
C1938 H1920 0.951 . S
C1938 C1939 1.366 . S
C1938 C1940 1.388 . S
C1939 C1938 1.366 . S
C1939 C1943 1.385 . S
C1940 H1921 0.951 . S
C1940 C1938 1.388 . S
C1940 C1941 1.366 . S
C1941 C1940 1.366 . S
C1941 C1942 1.414 . S
C1941 C1944 1.499 . S
C1942 H1922 0.950 . S
C1942 C1941 1.414 . S
C1942 C1943 1.374 . S
C1943 H1923 0.950 . S
C1943 C1939 1.385 . S
C1943 C1942 1.374 . S
C1944 C1941 1.499 . S
C1944 C1945 1.373 . S
C1944 C1946 1.389 . S
C1945 H1924 0.950 . S
C1945 C1944 1.373 . S
C1945 C1961 1.377 . S
C1946 C1944 1.389 . S
C1946 C1947 1.524 . S
C1946 C1960 1.377 . S
C1947 C1946 1.524 . S
C1947 C1948 1.397 . S
C1947 C1952 1.363 . S
C1948 H1925 0.950 . S
C1948 C1947 1.397 . S
C1948 C1949 1.334 . S
C1949 H1926 0.950 . S
C1949 C1948 1.334 . S
C1949 C1950 1.287 . S
C1950 C1949 1.287 . S
C1950 C1951 1.524 . S
C1950 H1969 0.913 . S
C1951 H1927 0.950 . S
C1951 C1950 1.524 . S
C1951 C1952 1.415 . S
C1952 H1928 0.950 . S
C1952 C1947 1.363 . S
C1952 C1951 1.415 . S
C1953 H1929 0.952 . S
C1953 C1954 1.365 1_556 S
C1953 C1955 1.387 1_556 S
C1954 C1953 1.365 1_554 S
C1954 C1958 1.385 . S
C1955 H1930 0.951 . S
C1955 C1953 1.387 1_554 S
C1955 C1956 1.366 . S
C1956 C1955 1.366 . S
C1956 C1957 1.414 . S
C1956 C1959 1.499 . S
C1957 H1931 0.950 . S
C1957 C1956 1.414 . S
C1957 C1958 1.374 . S
C1958 H1932 0.950 . S
C1958 C1954 1.385 . S
C1958 C1957 1.374 . S
C1959 C1956 1.499 . S
C1959 C1960 1.373 . S
C1959 C1961 1.389 . S
C1960 H1933 0.950 . S
C1960 C1946 1.377 . S
C1960 C1959 1.373 . S
C1961 C1945 1.377 . S
C1961 C1959 1.389 . S
C1961 C1962 1.524 1_554 S
C1962 C1961 1.524 1_556 S
C1962 C1963 1.397 . S
C1962 C1967 1.363 . S
C1963 H1934 0.950 . S
C1963 C1962 1.397 . S
C1963 C1964 1.334 . S
C1964 H1935 0.950 . S
C1964 C1963 1.334 . S
C1964 C1965 1.287 . S
C1965 C1964 1.287 . S
C1965 C1966 1.524 . S
C1965 H1968 0.999 . S
C1966 H1936 0.950 . S
C1966 C1965 1.524 . S
C1966 C1967 1.415 . S
C1967 H1937 0.950 . S
C1967 C1962 1.363 . S
C1967 C1966 1.415 . S
H1968 C1965 0.999 . S
H1969 C1950 0.913 . S
H1970 C1988 0.951 . S
H1971 C1990 0.951 . S
H1972 C1992 0.950 . S
H1973 C1993 0.950 . S
H1974 C1995 0.950 . S
H1975 C1998 0.950 . S
H1976 C1999 0.950 . S
H1977 C2001 0.950 . S
H1978 C2002 0.950 . S
H1979 C2003 0.951 . S
H1980 C2005 0.951 . S
H1981 C2007 0.950 . S
H1982 C2008 0.950 . S
H1983 C2010 0.950 . S
H1984 C2013 0.950 . S
H1985 C2014 0.950 . S
H1986 C2016 0.950 . S
H1987 C2017 0.950 . S
C1988 H1970 0.951 . S
C1988 C1989 1.366 . S
C1988 C1990 1.388 . S
C1989 C1988 1.366 . S
C1989 C1993 1.385 . S
C1990 H1971 0.951 . S
C1990 C1988 1.388 . S
C1990 C1991 1.366 . S
C1991 C1990 1.366 . S
C1991 C1992 1.414 . S
C1991 C1994 1.499 . S
C1992 H1972 0.950 . S
C1992 C1991 1.414 . S
C1992 C1993 1.374 . S
C1993 H1973 0.950 . S
C1993 C1989 1.385 . S
C1993 C1992 1.374 . S
C1994 C1991 1.499 . S
C1994 C1995 1.373 . S
C1994 C1996 1.389 . S
C1995 H1974 0.950 . S
C1995 C1994 1.373 . S
C1995 C2011 1.377 . S
C1996 C1994 1.389 . S
C1996 C1997 1.524 . S
C1996 C2010 1.377 . S
C1997 C1996 1.524 . S
C1997 C1998 1.397 . S
C1997 C2002 1.363 . S
C1998 H1975 0.950 . S
C1998 C1997 1.397 . S
C1998 C1999 1.334 . S
C1999 H1976 0.950 . S
C1999 C1998 1.334 . S
C1999 C2000 1.287 . S
C2000 C1999 1.287 . S
C2000 C2001 1.524 . S
C2000 H2019 0.913 . S
C2001 H1977 0.950 . S
C2001 C2000 1.524 . S
C2001 C2002 1.415 . S
C2002 H1978 0.950 . S
C2002 C1997 1.363 . S
C2002 C2001 1.415 . S
C2003 H1979 0.951 . S
C2003 C2004 1.366 . S
C2003 C2005 1.388 . S
C2004 C2003 1.366 . S
C2004 C2008 1.385 . S
C2005 H1980 0.951 . S
C2005 C2003 1.388 . S
C2005 C2006 1.366 . S
C2006 C2005 1.366 . S
C2006 C2007 1.414 . S
C2006 C2009 1.499 . S
C2007 H1981 0.950 . S
C2007 C2006 1.414 . S
C2007 C2008 1.374 . S
C2008 H1982 0.950 . S
C2008 C2004 1.385 . S
C2008 C2007 1.374 . S
C2009 C2006 1.499 . S
C2009 C2010 1.373 . S
C2009 C2011 1.389 . S
C2010 H1983 0.950 . S
C2010 C1996 1.377 . S
C2010 C2009 1.373 . S
C2011 C1995 1.377 . S
C2011 C2009 1.389 . S
C2011 C2012 1.524 . S
C2012 C2011 1.524 . S
C2012 C2013 1.397 . S
C2012 C2017 1.363 . S
C2013 H1984 0.950 . S
C2013 C2012 1.397 . S
C2013 C2014 1.334 . S
C2014 H1985 0.950 . S
C2014 C2013 1.334 . S
C2014 C2015 1.287 . S
C2015 C2014 1.287 . S
C2015 C2016 1.524 . S
C2015 H2018 0.999 . S
C2016 H1986 0.950 . S
C2016 C2015 1.524 . S
C2016 C2017 1.415 . S
C2017 H1987 0.950 . S
C2017 C2012 1.363 . S
C2017 C2016 1.415 . S
H2018 C2015 0.999 . S
H2019 C2000 0.913 . S
H2020 C2038 0.951 . S
H2021 C2040 0.951 . S
H2022 C2042 0.950 . S
H2023 C2043 0.950 . S
H2024 C2045 0.950 . S
H2025 C2048 0.950 . S
H2026 C2049 0.950 . S
H2027 C2051 0.950 . S
H2028 C2052 0.950 . S
H2029 C2053 0.951 . S
H2030 C2055 0.951 . S
H2031 C2057 0.950 . S
H2032 C2058 0.950 . S
H2033 C2060 0.950 . S
H2034 C2063 0.950 . S
H2035 C2064 0.950 . S
H2036 C2066 0.950 . S
H2037 C2067 0.950 . S
C2038 H2020 0.951 . S
C2038 C2039 1.366 . S
C2038 C2040 1.388 . S
C2039 C2038 1.366 . S
C2039 C2043 1.385 . S
C2040 H2021 0.951 . S
C2040 C2038 1.388 . S
C2040 C2041 1.366 . S
C2041 C2040 1.366 . S
C2041 C2042 1.414 . S
C2041 C2044 1.499 . S
C2042 H2022 0.950 . S
C2042 C2041 1.414 . S
C2042 C2043 1.374 . S
C2043 H2023 0.950 . S
C2043 C2039 1.385 . S
C2043 C2042 1.374 . S
C2044 C2041 1.499 . S
C2044 C2045 1.373 . S
C2044 C2046 1.389 . S
C2045 H2024 0.950 . S
C2045 C2044 1.373 . S
C2045 C2061 1.377 . S
C2046 C2044 1.389 . S
C2046 C2047 1.524 . S
C2046 C2060 1.377 . S
C2047 C2046 1.524 . S
C2047 C2048 1.397 . S
C2047 C2052 1.363 . S
C2048 H2025 0.950 . S
C2048 C2047 1.397 . S
C2048 C2049 1.334 . S
C2049 H2026 0.950 . S
C2049 C2048 1.334 . S
C2049 C2050 1.287 . S
C2050 C2049 1.287 . S
C2050 C2051 1.524 . S
C2050 H2069 0.913 . S
C2051 H2027 0.950 . S
C2051 C2050 1.524 . S
C2051 C2052 1.415 . S
C2052 H2028 0.950 . S
C2052 C2047 1.363 . S
C2052 C2051 1.415 . S
C2053 H2029 0.951 . S
C2053 C2054 1.366 . S
C2053 C2055 1.388 . S
C2054 C2053 1.366 . S
C2054 C2058 1.385 . S
C2055 H2030 0.951 . S
C2055 C2053 1.388 . S
C2055 C2056 1.366 . S
C2056 C2055 1.366 . S
C2056 C2057 1.414 . S
C2056 C2059 1.499 . S
C2057 H2031 0.950 . S
C2057 C2056 1.414 . S
C2057 C2058 1.374 . S
C2058 H2032 0.950 . S
C2058 C2054 1.385 . S
C2058 C2057 1.374 . S
C2059 C2056 1.499 . S
C2059 C2060 1.373 . S
C2059 C2061 1.389 . S
C2060 H2033 0.950 . S
C2060 C2046 1.377 . S
C2060 C2059 1.373 . S
C2061 C2045 1.377 . S
C2061 C2059 1.389 . S
C2061 C2062 1.524 . S
C2062 C2061 1.524 . S
C2062 C2063 1.397 . S
C2062 C2067 1.363 . S
C2063 H2034 0.950 . S
C2063 C2062 1.397 . S
C2063 C2064 1.334 . S
C2064 H2035 0.950 . S
C2064 C2063 1.334 . S
C2064 C2065 1.287 . S
C2065 C2064 1.287 . S
C2065 C2066 1.524 . S
C2065 H2068 0.999 . S
C2066 H2036 0.950 . S
C2066 C2065 1.524 . S
C2066 C2067 1.415 . S
C2067 H2037 0.950 . S
C2067 C2062 1.363 . S
C2067 C2066 1.415 . S
H2068 C2065 0.999 . S
H2069 C2050 0.913 . S
H2070 C2088 0.951 . S
H2071 C2090 0.951 . S
H2072 C2092 0.950 . S
H2073 C2093 0.950 . S
H2074 C2095 0.950 . S
H2075 C2098 0.950 . S
H2076 C2099 0.950 . S
H2077 C2101 0.950 . S
H2078 C2102 0.950 . S
H2079 C2103 0.951 . S
H2080 C2105 0.951 . S
H2081 C2107 0.950 . S
H2082 C2108 0.950 . S
H2083 C2110 0.950 . S
H2084 C2113 0.950 . S
H2085 C2114 0.950 . S
H2086 C2116 0.950 . S
H2087 C2117 0.950 . S
C2088 H2070 0.951 . S
C2088 C2089 1.366 . S
C2088 C2090 1.388 . S
C2089 C2088 1.366 . S
C2089 C2093 1.385 . S
C2090 H2071 0.951 . S
C2090 C2088 1.388 . S
C2090 C2091 1.366 . S
C2091 C2090 1.366 . S
C2091 C2092 1.414 . S
C2091 C2094 1.499 . S
C2092 H2072 0.950 . S
C2092 C2091 1.414 . S
C2092 C2093 1.374 . S
C2093 H2073 0.950 . S
C2093 C2089 1.385 . S
C2093 C2092 1.374 . S
C2094 C2091 1.499 . S
C2094 C2095 1.373 . S
C2094 C2096 1.389 . S
C2095 H2074 0.950 . S
C2095 C2094 1.373 . S
C2095 C2111 1.377 . S
C2096 C2094 1.389 . S
C2096 C2097 1.524 . S
C2096 C2110 1.377 . S
C2097 C2096 1.524 . S
C2097 C2098 1.397 . S
C2097 C2102 1.363 . S
C2098 H2075 0.950 . S
C2098 C2097 1.397 . S
C2098 C2099 1.334 . S
C2099 H2076 0.950 . S
C2099 C2098 1.334 . S
C2099 C2100 1.287 . S
C2100 C2099 1.287 . S
C2100 C2101 1.524 . S
C2100 H2119 0.913 . S
C2101 H2077 0.950 . S
C2101 C2100 1.524 . S
C2101 C2102 1.415 . S
C2102 H2078 0.950 . S
C2102 C2097 1.363 . S
C2102 C2101 1.415 . S
C2103 H2079 0.951 . S
C2103 C2104 1.366 . S
C2103 C2105 1.388 . S
C2104 C2103 1.366 . S
C2104 C2108 1.385 . S
C2105 H2080 0.951 . S
C2105 C2103 1.388 . S
C2105 C2106 1.366 . S
C2106 C2105 1.366 . S
C2106 C2107 1.414 . S
C2106 C2109 1.499 . S
C2107 H2081 0.950 . S
C2107 C2106 1.414 . S
C2107 C2108 1.374 . S
C2108 H2082 0.950 . S
C2108 C2104 1.385 . S
C2108 C2107 1.374 . S
C2109 C2106 1.499 . S
C2109 C2110 1.373 . S
C2109 C2111 1.389 . S
C2110 H2083 0.950 . S
C2110 C2096 1.377 . S
C2110 C2109 1.373 . S
C2111 C2095 1.377 . S
C2111 C2109 1.389 . S
C2111 C2112 1.524 . S
C2112 C2111 1.524 . S
C2112 C2113 1.397 . S
C2112 C2117 1.363 . S
C2113 H2084 0.950 . S
C2113 C2112 1.397 . S
C2113 C2114 1.334 . S
C2114 H2085 0.950 . S
C2114 C2113 1.334 . S
C2114 C2115 1.287 . S
C2115 C2114 1.287 . S
C2115 C2116 1.524 . S
C2115 H2118 0.999 . S
C2116 H2086 0.950 . S
C2116 C2115 1.524 . S
C2116 C2117 1.415 . S
C2117 H2087 0.950 . S
C2117 C2112 1.363 . S
C2117 C2116 1.415 . S
H2118 C2115 0.999 . S
H2119 C2100 0.913 . S
H2120 C2138 0.951 1_554 S
H2121 C2140 0.951 . S
H2122 C2142 0.950 . S
H2123 C2143 0.950 . S
H2124 C2145 0.950 . S
H2125 C2148 0.950 . S
H2126 C2149 0.950 . S
H2127 C2151 0.950 . S
H2128 C2152 0.950 . S
H2129 C2153 0.951 . S
H2130 C2155 0.951 . S
H2131 C2157 0.950 . S
H2132 C2158 0.950 . S
H2133 C2160 0.950 . S
H2134 C2163 0.950 . S
H2135 C2164 0.950 . S
H2136 C2166 0.950 . S
H2137 C2167 0.950 . S
C2138 H2120 0.951 1_556 S
C2138 C2139 1.366 . S
C2138 C2140 1.388 . S
C2139 C2138 1.366 . S
C2139 C2143 1.385 . S
C2140 H2121 0.951 . S
C2140 C2138 1.388 . S
C2140 C2141 1.366 . S
C2141 C2140 1.366 . S
C2141 C2142 1.414 . S
C2141 C2144 1.499 . S
C2142 H2122 0.950 . S
C2142 C2141 1.414 . S
C2142 C2143 1.374 . S
C2143 H2123 0.950 . S
C2143 C2139 1.385 . S
C2143 C2142 1.374 . S
C2144 C2141 1.499 . S
C2144 C2145 1.373 . S
C2144 C2146 1.389 . S
C2145 H2124 0.950 . S
C2145 C2144 1.373 . S
C2145 C2161 1.377 . S
C2146 C2144 1.389 . S
C2146 C2147 1.524 . S
C2146 C2160 1.377 . S
C2147 C2146 1.524 . S
C2147 C2148 1.397 . S
C2147 C2152 1.363 . S
C2148 H2125 0.950 . S
C2148 C2147 1.397 . S
C2148 C2149 1.334 . S
C2149 H2126 0.950 . S
C2149 C2148 1.334 . S
C2149 C2150 1.287 . S
C2150 C2149 1.287 . S
C2150 C2151 1.524 . S
C2150 H2169 0.913 . S
C2151 H2127 0.950 . S
C2151 C2150 1.524 . S
C2151 C2152 1.415 . S
C2152 H2128 0.950 . S
C2152 C2147 1.363 . S
C2152 C2151 1.415 . S
C2153 H2129 0.951 . S
C2153 C2154 1.366 . S
C2153 C2155 1.388 . S
C2154 C2153 1.366 . S
C2154 C2158 1.385 . S
C2155 H2130 0.951 . S
C2155 C2153 1.388 . S
C2155 C2156 1.366 . S
C2156 C2155 1.366 . S
C2156 C2157 1.414 . S
C2156 C2159 1.499 . S
C2157 H2131 0.950 . S
C2157 C2156 1.414 . S
C2157 C2158 1.374 . S
C2158 H2132 0.950 . S
C2158 C2154 1.385 . S
C2158 C2157 1.374 . S
C2159 C2156 1.499 . S
C2159 C2160 1.373 . S
C2159 C2161 1.389 . S
C2160 H2133 0.950 . S
C2160 C2146 1.377 . S
C2160 C2159 1.373 . S
C2161 C2145 1.377 . S
C2161 C2159 1.389 . S
C2161 C2162 1.524 . S
C2162 C2161 1.524 . S
C2162 C2163 1.397 1_556 S
C2162 C2167 1.363 . S
C2163 H2134 0.950 . S
C2163 C2162 1.397 1_554 S
C2163 C2164 1.334 . S
C2164 H2135 0.950 . S
C2164 C2163 1.334 . S
C2164 C2165 1.287 . S
C2165 C2164 1.287 . S
C2165 C2166 1.524 . S
C2165 H2168 0.999 . S
C2166 H2136 0.950 . S
C2166 C2165 1.524 . S
C2166 C2167 1.415 1_554 S
C2167 H2137 0.950 . S
C2167 C2162 1.363 . S
C2167 C2166 1.415 1_556 S
H2168 C2165 0.999 . S
H2169 C2150 0.913 . S
H2170 C2188 0.951 . S
H2171 C2190 0.951 . S
H2172 C2192 0.950 . S
H2173 C2193 0.950 . S
H2174 C2195 0.950 . S
H2175 C2198 0.950 . S
H2176 C2199 0.950 . S
H2177 C2201 0.950 . S
H2178 C2202 0.950 . S
H2179 C2203 0.951 . S
H2180 C2205 0.951 . S
H2181 C2207 0.950 . S
H2182 C2208 0.950 . S
H2183 C2210 0.950 . S
H2184 C2213 0.950 . S
H2185 C2214 0.950 . S
H2186 C2216 0.950 . S
H2187 C2217 0.950 . S
C2188 H2170 0.951 . S
C2188 C2189 1.366 . S
C2188 C2190 1.388 . S
C2189 C2188 1.366 . S
C2189 C2193 1.385 . S
C2190 H2171 0.951 . S
C2190 C2188 1.388 . S
C2190 C2191 1.366 . S
C2191 C2190 1.366 . S
C2191 C2192 1.414 . S
C2191 C2194 1.499 . S
C2192 H2172 0.950 . S
C2192 C2191 1.414 . S
C2192 C2193 1.374 . S
C2193 H2173 0.950 . S
C2193 C2189 1.385 . S
C2193 C2192 1.374 . S
C2194 C2191 1.499 . S
C2194 C2195 1.373 . S
C2194 C2196 1.389 . S
C2195 H2174 0.950 . S
C2195 C2194 1.373 . S
C2195 C2211 1.377 . S
C2196 C2194 1.389 . S
C2196 C2197 1.524 . S
C2196 C2210 1.377 . S
C2197 C2196 1.524 . S
C2197 C2198 1.397 . S
C2197 C2202 1.363 . S
C2198 H2175 0.950 . S
C2198 C2197 1.397 . S
C2198 C2199 1.334 . S
C2199 H2176 0.950 . S
C2199 C2198 1.334 . S
C2199 C2200 1.287 . S
C2200 C2199 1.287 . S
C2200 C2201 1.524 . S
C2200 H2219 0.913 . S
C2201 H2177 0.950 . S
C2201 C2200 1.524 . S
C2201 C2202 1.415 . S
C2202 H2178 0.950 . S
C2202 C2197 1.363 . S
C2202 C2201 1.415 . S
C2203 H2179 0.951 . S
C2203 C2204 1.366 . S
C2203 C2205 1.388 . S
C2204 C2203 1.366 . S
C2204 C2208 1.385 . S
C2205 H2180 0.951 . S
C2205 C2203 1.388 . S
C2205 C2206 1.366 . S
C2206 C2205 1.366 . S
C2206 C2207 1.414 . S
C2206 C2209 1.499 . S
C2207 H2181 0.950 . S
C2207 C2206 1.414 . S
C2207 C2208 1.374 . S
C2208 H2182 0.950 . S
C2208 C2204 1.385 . S
C2208 C2207 1.374 . S
C2209 C2206 1.499 . S
C2209 C2210 1.373 . S
C2209 C2211 1.389 . S
C2210 H2183 0.950 . S
C2210 C2196 1.377 . S
C2210 C2209 1.373 . S
C2211 C2195 1.377 . S
C2211 C2209 1.389 . S
C2211 C2212 1.524 . S
C2212 C2211 1.524 . S
C2212 C2213 1.397 . S
C2212 C2217 1.363 . S
C2213 H2184 0.950 . S
C2213 C2212 1.397 . S
C2213 C2214 1.334 . S
C2214 H2185 0.950 . S
C2214 C2213 1.334 . S
C2214 C2215 1.287 . S
C2215 C2214 1.287 . S
C2215 C2216 1.524 . S
C2215 H2218 0.999 . S
C2216 H2186 0.950 . S
C2216 C2215 1.524 . S
C2216 C2217 1.415 . S
C2217 H2187 0.950 . S
C2217 C2212 1.363 . S
C2217 C2216 1.415 . S
H2218 C2215 0.999 . S
H2219 C2200 0.913 . S
H2220 C2238 0.951 . S
H2221 C2240 0.951 . S
H2222 C2242 0.950 . S
H2223 C2243 0.950 . S
H2224 C2245 0.950 . S
H2225 C2248 0.950 . S
H2226 C2249 0.950 . S
H2227 C2251 0.950 . S
H2228 C2252 0.950 . S
H2229 C2253 0.951 . S
H2230 C2255 0.951 . S
H2231 C2257 0.950 . S
H2232 C2258 0.950 . S
H2233 C2260 0.950 . S
H2234 C2263 0.950 . S
H2235 C2264 0.950 . S
H2236 C2266 0.950 . S
H2237 C2267 0.950 . S
C2238 H2220 0.951 . S
C2238 C2239 1.366 . S
C2238 C2240 1.388 . S
C2239 C2238 1.366 . S
C2239 C2243 1.385 . S
C2240 H2221 0.951 . S
C2240 C2238 1.388 . S
C2240 C2241 1.366 . S
C2241 C2240 1.366 . S
C2241 C2242 1.414 . S
C2241 C2244 1.499 . S
C2242 H2222 0.950 . S
C2242 C2241 1.414 . S
C2242 C2243 1.374 . S
C2243 H2223 0.950 . S
C2243 C2239 1.385 . S
C2243 C2242 1.374 . S
C2244 C2241 1.499 . S
C2244 C2245 1.373 . S
C2244 C2246 1.389 . S
C2245 H2224 0.950 . S
C2245 C2244 1.373 . S
C2245 C2261 1.377 . S
C2246 C2244 1.389 . S
C2246 C2247 1.524 . S
C2246 C2260 1.377 . S
C2247 C2246 1.524 . S
C2247 C2248 1.397 . S
C2247 C2252 1.363 . S
C2248 H2225 0.950 . S
C2248 C2247 1.397 . S
C2248 C2249 1.334 . S
C2249 H2226 0.950 . S
C2249 C2248 1.334 . S
C2249 C2250 1.287 . S
C2250 C2249 1.287 . S
C2250 C2251 1.524 . S
C2250 H2269 0.913 . S
C2251 H2227 0.950 . S
C2251 C2250 1.524 . S
C2251 C2252 1.415 . S
C2252 H2228 0.950 . S
C2252 C2247 1.363 . S
C2252 C2251 1.415 . S
C2253 H2229 0.951 . S
C2253 C2254 1.366 . S
C2253 C2255 1.388 . S
C2254 C2253 1.366 . S
C2254 C2258 1.385 . S
C2255 H2230 0.951 . S
C2255 C2253 1.388 . S
C2255 C2256 1.366 . S
C2256 C2255 1.366 . S
C2256 C2257 1.414 . S
C2256 C2259 1.499 . S
C2257 H2231 0.950 . S
C2257 C2256 1.414 . S
C2257 C2258 1.374 . S
C2258 H2232 0.950 . S
C2258 C2254 1.385 . S
C2258 C2257 1.374 . S
C2259 C2256 1.499 . S
C2259 C2260 1.373 . S
C2259 C2261 1.389 . S
C2260 H2233 0.950 . S
C2260 C2246 1.377 . S
C2260 C2259 1.373 . S
C2261 C2245 1.377 . S
C2261 C2259 1.389 . S
C2261 C2262 1.524 . S
C2262 C2261 1.524 . S
C2262 C2263 1.397 . S
C2262 C2267 1.363 . S
C2263 H2234 0.950 . S
C2263 C2262 1.397 . S
C2263 C2264 1.334 . S
C2264 H2235 0.950 . S
C2264 C2263 1.334 . S
C2264 C2265 1.287 . S
C2265 C2264 1.287 . S
C2265 C2266 1.524 . S
C2265 H2268 0.999 . S
C2266 H2236 0.950 . S
C2266 C2265 1.524 . S
C2266 C2267 1.415 . S
C2267 H2237 0.950 . S
C2267 C2262 1.363 . S
C2267 C2266 1.415 . S
H2268 C2265 0.999 . S
H2269 C2250 0.913 . S
H2270 C2288 0.951 . S
H2271 C2290 0.951 . S
H2272 C2292 0.950 . S
H2273 C2293 0.950 . S
H2274 C2295 0.950 . S
H2275 C2298 0.950 . S
H2276 C2299 0.950 . S
H2277 C2301 0.950 . S
H2278 C2302 0.950 . S
H2279 C2303 0.951 . S
H2280 C2305 0.951 . S
H2281 C2307 0.950 . S
H2282 C2308 0.950 . S
H2283 C2310 0.950 . S
H2284 C2313 0.950 . S
H2285 C2314 0.950 . S
H2286 C2316 0.950 . S
H2287 C2317 0.950 . S
C2288 H2270 0.951 . S
C2288 C2289 1.366 . S
C2288 C2290 1.388 . S
C2289 C2288 1.366 . S
C2289 C2293 1.385 . S
C2290 H2271 0.951 . S
C2290 C2288 1.388 . S
C2290 C2291 1.366 . S
C2291 C2290 1.366 . S
C2291 C2292 1.414 . S
C2291 C2294 1.499 . S
C2292 H2272 0.950 . S
C2292 C2291 1.414 . S
C2292 C2293 1.374 . S
C2293 H2273 0.950 . S
C2293 C2289 1.385 . S
C2293 C2292 1.374 . S
C2294 C2291 1.499 . S
C2294 C2295 1.373 . S
C2294 C2296 1.389 . S
C2295 H2274 0.950 . S
C2295 C2294 1.373 . S
C2295 C2311 1.377 . S
C2296 C2294 1.389 . S
C2296 C2297 1.524 . S
C2296 C2310 1.377 . S
C2297 C2296 1.524 . S
C2297 C2298 1.397 . S
C2297 C2302 1.363 . S
C2298 H2275 0.950 . S
C2298 C2297 1.397 . S
C2298 C2299 1.334 . S
C2299 H2276 0.950 . S
C2299 C2298 1.334 . S
C2299 C2300 1.287 . S
C2300 C2299 1.287 . S
C2300 C2301 1.524 . S
C2300 H2319 0.913 . S
C2301 H2277 0.950 . S
C2301 C2300 1.524 . S
C2301 C2302 1.415 . S
C2302 H2278 0.950 . S
C2302 C2297 1.363 . S
C2302 C2301 1.415 . S
C2303 H2279 0.951 . S
C2303 C2304 1.366 . S
C2303 C2305 1.388 . S
C2304 C2303 1.366 . S
C2304 C2308 1.385 . S
C2305 H2280 0.951 . S
C2305 C2303 1.388 . S
C2305 C2306 1.366 . S
C2306 C2305 1.366 . S
C2306 C2307 1.414 . S
C2306 C2309 1.499 . S
C2307 H2281 0.950 . S
C2307 C2306 1.414 . S
C2307 C2308 1.374 . S
C2308 H2282 0.950 . S
C2308 C2304 1.385 . S
C2308 C2307 1.374 . S
C2309 C2306 1.499 . S
C2309 C2310 1.373 . S
C2309 C2311 1.389 . S
C2310 H2283 0.950 . S
C2310 C2296 1.377 . S
C2310 C2309 1.373 . S
C2311 C2295 1.377 . S
C2311 C2309 1.389 . S
C2311 C2312 1.524 . S
C2312 C2311 1.524 . S
C2312 C2313 1.397 . S
C2312 C2317 1.363 . S
C2313 H2284 0.950 . S
C2313 C2312 1.397 . S
C2313 C2314 1.334 . S
C2314 H2285 0.950 . S
C2314 C2313 1.334 . S
C2314 C2315 1.287 . S
C2315 C2314 1.287 . S
C2315 C2316 1.524 . S
C2315 H2318 0.999 . S
C2316 H2286 0.950 . S
C2316 C2315 1.524 . S
C2316 C2317 1.415 . S
C2317 H2287 0.950 . S
C2317 C2312 1.363 . S
C2317 C2316 1.415 . S
H2318 C2315 0.999 . S
H2319 C2300 0.913 . S
H2320 C2338 0.951 . S
H2321 C2340 0.951 . S
H2322 C2342 0.950 . S
H2323 C2343 0.950 . S
H2324 C2345 0.929 1_565 S
H2325 C2348 0.950 . S
H2326 C2349 0.950 . S
H2327 C2351 0.950 . S
H2328 C2352 0.950 . S
H2329 C2353 0.951 . S
H2330 C2355 0.951 . S
H2331 C2357 0.950 . S
H2332 C2358 0.950 . S
H2333 C2360 0.950 . S
H2334 C2363 0.950 . S
H2335 C2364 0.950 . S
H2336 C2366 0.950 . S
H2337 C2367 0.950 . S
C2338 H2320 0.951 . S
C2338 C2339 1.366 . S
C2338 C2340 1.388 . S
C2339 C2338 1.366 . S
C2339 C2343 1.385 . S
C2340 H2321 0.951 . S
C2340 C2338 1.388 . S
C2340 C2341 1.366 . S
C2341 C2340 1.366 . S
C2341 C2342 1.414 . S
C2341 C2344 1.499 . S
C2342 H2322 0.950 . S
C2342 C2341 1.414 . S
C2342 C2343 1.374 . S
C2343 H2323 0.950 . S
C2343 C2339 1.385 . S
C2343 C2342 1.374 . S
C2344 C2341 1.499 . S
C2344 C2345 1.373 1_565 S
C2344 C2346 1.389 . S
C2345 H2324 0.929 1_545 S
C2345 C2344 1.373 1_545 S
C2345 C2361 1.377 . S
C2346 C2344 1.389 . S
C2346 C2347 1.524 . S
C2346 C2360 1.377 1_565 S
C2347 C2346 1.524 . S
C2347 C2348 1.397 . S
C2347 C2352 1.363 . S
C2348 H2325 0.950 . S
C2348 C2347 1.397 . S
C2348 C2349 1.334 . S
C2349 H2326 0.950 . S
C2349 C2348 1.334 . S
C2349 C2350 1.287 . S
C2350 C2349 1.287 . S
C2350 C2351 1.524 . S
C2350 H2369 0.913 . S
C2351 H2327 0.950 . S
C2351 C2350 1.524 . S
C2351 C2352 1.415 . S
C2352 H2328 0.950 . S
C2352 C2347 1.363 . S
C2352 C2351 1.415 . S
C2353 H2329 0.951 . S
C2353 C2354 1.366 . S
C2353 C2355 1.388 . S
C2354 C2353 1.366 . S
C2354 C2358 1.385 . S
C2355 H2330 0.951 . S
C2355 C2353 1.388 . S
C2355 C2356 1.366 . S
C2356 C2355 1.366 . S
C2356 C2357 1.414 . S
C2356 C2359 1.499 . S
C2357 H2331 0.950 . S
C2357 C2356 1.414 . S
C2357 C2358 1.374 . S
C2358 H2332 0.950 . S
C2358 C2354 1.385 . S
C2358 C2357 1.374 . S
C2359 C2356 1.499 . S
C2359 C2360 1.373 . S
C2359 C2361 1.389 . S
C2360 H2333 0.950 . S
C2360 C2346 1.377 1_545 S
C2360 C2359 1.373 . S
C2361 C2345 1.377 . S
C2361 C2359 1.389 . S
C2361 C2362 1.524 . S
C2362 C2361 1.524 . S
C2362 C2363 1.397 . S
C2362 C2367 1.363 . S
C2363 H2334 0.950 . S
C2363 C2362 1.397 . S
C2363 C2364 1.334 . S
C2364 H2335 0.950 . S
C2364 C2363 1.334 . S
C2364 C2365 1.287 . S
C2365 C2364 1.287 . S
C2365 C2366 1.524 . S
C2365 H2368 0.999 . S
C2366 H2336 0.950 . S
C2366 C2365 1.524 . S
C2366 C2367 1.415 . S
C2367 H2337 0.950 . S
C2367 C2362 1.363 . S
C2367 C2366 1.415 . S
H2368 C2365 0.999 . S
H2369 C2350 0.913 . S
H2370 C2388 0.951 . S
H2371 C2390 0.951 . S
H2372 C2392 0.950 . S
H2373 C2393 0.950 . S
H2374 C2395 0.950 . S
H2375 C2398 0.950 . S
H2376 C2399 0.950 . S
H2377 C2401 0.950 . S
H2378 C2402 0.950 . S
H2379 C2403 0.951 . S
H2380 C2405 0.951 . S
H2381 C2407 0.950 . S
H2382 C2408 0.950 . S
H2383 C2410 0.950 . S
H2384 C2413 0.950 . S
H2385 C2414 0.950 . S
H2386 C2416 0.950 . S
H2387 C2417 0.950 . S
C2388 H2370 0.951 . S
C2388 C2389 1.366 . S
C2388 C2390 1.388 . S
C2389 C2388 1.366 . S
C2389 C2393 1.385 . S
C2390 H2371 0.951 . S
C2390 C2388 1.388 . S
C2390 C2391 1.366 . S
C2391 C2390 1.366 . S
C2391 C2392 1.414 . S
C2391 C2394 1.499 . S
C2392 H2372 0.950 . S
C2392 C2391 1.414 . S
C2392 C2393 1.374 . S
C2393 H2373 0.950 . S
C2393 C2389 1.385 . S
C2393 C2392 1.374 . S
C2394 C2391 1.499 . S
C2394 C2395 1.373 . S
C2394 C2396 1.389 . S
C2395 H2374 0.950 . S
C2395 C2394 1.373 . S
C2395 C2411 1.377 . S
C2396 C2394 1.389 . S
C2396 C2397 1.524 . S
C2396 C2410 1.377 . S
C2397 C2396 1.524 . S
C2397 C2398 1.397 . S
C2397 C2402 1.363 . S
C2398 H2375 0.950 . S
C2398 C2397 1.397 . S
C2398 C2399 1.334 . S
C2399 H2376 0.950 . S
C2399 C2398 1.334 . S
C2399 C2400 1.287 . S
C2400 C2399 1.287 . S
C2400 C2401 1.524 . S
C2400 H2419 0.913 . S
C2401 H2377 0.950 . S
C2401 C2400 1.524 . S
C2401 C2402 1.415 . S
C2402 H2378 0.950 . S
C2402 C2397 1.363 . S
C2402 C2401 1.415 . S
C2403 H2379 0.951 . S
C2403 C2404 1.366 . S
C2403 C2405 1.388 . S
C2404 C2403 1.366 . S
C2404 C2408 1.385 . S
C2405 H2380 0.951 . S
C2405 C2403 1.388 . S
C2405 C2406 1.366 . S
C2406 C2405 1.366 . S
C2406 C2407 1.414 . S
C2406 C2409 1.499 . S
C2407 H2381 0.950 . S
C2407 C2406 1.414 . S
C2407 C2408 1.374 . S
C2408 H2382 0.950 . S
C2408 C2404 1.385 . S
C2408 C2407 1.374 . S
C2409 C2406 1.499 . S
C2409 C2410 1.373 . S
C2409 C2411 1.389 . S
C2410 H2383 0.950 . S
C2410 C2396 1.377 . S
C2410 C2409 1.373 . S
C2411 C2395 1.377 . S
C2411 C2409 1.389 . S
C2411 C2412 1.524 . S
C2412 C2411 1.524 . S
C2412 C2413 1.397 . S
C2412 C2417 1.363 . S
C2413 H2384 0.950 . S
C2413 C2412 1.397 . S
C2413 C2414 1.334 . S
C2414 H2385 0.950 . S
C2414 C2413 1.334 . S
C2414 C2415 1.287 . S
C2415 C2414 1.287 . S
C2415 C2416 1.524 . S
C2415 H2418 0.999 . S
C2416 H2386 0.950 . S
C2416 C2415 1.524 . S
C2416 C2417 1.415 . S
C2417 H2387 0.950 . S
C2417 C2412 1.363 . S
C2417 C2416 1.415 . S
H2418 C2415 0.999 . S
H2419 C2400 0.913 . S
H2420 C2438 0.951 . S
H2421 C2440 0.951 . S
H2422 C2442 0.950 . S
H2423 C2443 0.950 . S
H2424 C2445 0.950 . S
H2425 C2448 0.963 . S
H2426 C2449 0.950 . S
H2427 C2451 0.950 . S
H2428 C2452 0.950 . S
H2429 C2453 0.951 . S
H2430 C2455 0.951 . S
H2431 C2457 0.950 . S
H2432 C2458 0.950 . S
H2433 C2460 0.958 1_556 S
H2434 C2463 0.950 . S
H2435 C2464 0.950 . S
H2436 C2466 0.950 . S
H2437 C2467 0.950 . S
C2438 H2420 0.951 . S
C2438 C2439 1.366 . S
C2438 C2440 1.388 . S
C2439 C2438 1.366 . S
C2439 C2443 1.385 . S
C2440 H2421 0.951 . S
C2440 C2438 1.388 . S
C2440 C2441 1.366 . S
C2441 C2440 1.366 . S
C2441 C2442 1.414 . S
C2441 C2444 1.499 . S
C2442 H2422 0.950 . S
C2442 C2441 1.414 . S
C2442 C2443 1.374 . S
C2443 H2423 0.950 . S
C2443 C2439 1.385 . S
C2443 C2442 1.374 . S
C2444 C2441 1.499 . S
C2444 C2445 1.373 . S
C2444 C2446 1.389 . S
C2445 H2424 0.950 . S
C2445 C2444 1.373 . S
C2445 C2461 1.377 1_565 S
C2446 C2444 1.389 . S
C2446 C2447 1.524 1_554 S
C2446 C2460 1.377 . S
C2447 C2446 1.524 1_556 S
C2447 C2448 1.394 1_556 S
C2447 C2452 1.363 . S
C2448 H2425 0.963 . S
C2448 C2447 1.394 1_554 S
C2448 C2449 1.323 1_554 S
C2449 H2426 0.950 . S
C2449 C2448 1.323 1_556 S
C2449 C2450 1.287 . S
C2450 C2449 1.287 . S
C2450 C2451 1.524 . S
C2450 H2469 0.913 . S
C2451 H2427 0.950 . S
C2451 C2450 1.524 . S
C2451 C2452 1.415 . S
C2452 H2428 0.950 . S
C2452 C2447 1.363 . S
C2452 C2451 1.415 . S
C2453 H2429 0.951 . S
C2453 C2454 1.366 . S
C2453 C2455 1.388 . S
C2454 C2453 1.366 . S
C2454 C2458 1.385 1_554 S
C2455 H2430 0.951 . S
C2455 C2453 1.388 . S
C2455 C2456 1.366 . S
C2456 C2455 1.366 . S
C2456 C2457 1.414 1_554 S
C2456 C2459 1.499 . S
C2457 H2431 0.950 . S
C2457 C2456 1.414 1_556 S
C2457 C2458 1.374 . S
C2458 H2432 0.950 . S
C2458 C2454 1.385 1_556 S
C2458 C2457 1.374 . S
C2459 C2456 1.499 . S
C2459 C2460 1.373 1_545 S
C2459 C2461 1.389 . S
C2460 H2433 0.958 1_554 S
C2460 C2446 1.377 . S
C2460 C2459 1.373 1_565 S
C2461 C2445 1.377 1_545 S
C2461 C2459 1.389 . S
C2461 C2462 1.524 . S
C2462 C2461 1.524 . S
C2462 C2463 1.397 . S
C2462 C2467 1.363 . S
C2463 H2434 0.950 . S
C2463 C2462 1.397 . S
C2463 C2464 1.334 . S
C2464 H2435 0.950 . S
C2464 C2463 1.334 . S
C2464 C2465 1.287 . S
C2465 C2464 1.287 . S
C2465 C2466 1.524 . S
C2465 H2468 0.999 . S
C2466 H2436 0.950 . S
C2466 C2465 1.524 . S
C2466 C2467 1.415 . S
C2467 H2437 0.950 . S
C2467 C2462 1.363 . S
C2467 C2466 1.415 . S
H2468 C2465 0.999 . S
H2469 C2450 0.913 . S
H2470 C2488 0.951 . S
H2471 C2490 0.951 . S
H2472 C2492 0.950 . S
H2473 C2493 0.950 . S
H2474 C2495 0.950 . S
H2475 C2498 0.950 . S
H2476 C2499 0.950 . S
H2477 C2501 0.950 . S
H2478 C2502 0.950 . S
H2479 C2503 0.951 . S
H2480 C2505 0.951 . S
H2481 C2507 0.950 . S
H2482 C2508 0.950 . S
H2483 C2510 0.950 . S
H2484 C2513 0.950 . S
H2485 C2514 0.950 . S
H2486 C2516 0.950 . S
H2487 C2517 0.950 . S
C2488 H2470 0.951 . S
C2488 C2489 1.366 . S
C2488 C2490 1.388 . S
C2489 C2488 1.366 . S
C2489 C2493 1.385 . S
C2490 H2471 0.951 . S
C2490 C2488 1.388 . S
C2490 C2491 1.366 . S
C2491 C2490 1.366 . S
C2491 C2492 1.414 . S
C2491 C2494 1.499 . S
C2492 H2472 0.950 . S
C2492 C2491 1.414 . S
C2492 C2493 1.374 . S
C2493 H2473 0.950 . S
C2493 C2489 1.385 . S
C2493 C2492 1.374 . S
C2494 C2491 1.499 . S
C2494 C2495 1.373 . S
C2494 C2496 1.389 . S
C2495 H2474 0.950 . S
C2495 C2494 1.373 . S
C2495 C2511 1.377 . S
C2496 C2494 1.389 . S
C2496 C2497 1.524 . S
C2496 C2510 1.377 . S
C2497 C2496 1.524 . S
C2497 C2498 1.397 . S
C2497 C2502 1.363 . S
C2498 H2475 0.950 . S
C2498 C2497 1.397 . S
C2498 C2499 1.334 . S
C2499 H2476 0.950 . S
C2499 C2498 1.334 . S
C2499 C2500 1.287 . S
C2500 C2499 1.287 . S
C2500 C2501 1.524 . S
C2500 H2519 0.913 . S
C2501 H2477 0.950 . S
C2501 C2500 1.524 . S
C2501 C2502 1.415 . S
C2502 H2478 0.950 . S
C2502 C2497 1.363 . S
C2502 C2501 1.415 . S
C2503 H2479 0.951 . S
C2503 C2504 1.366 . S
C2503 C2505 1.388 . S
C2504 C2503 1.366 . S
C2504 C2508 1.385 . S
C2505 H2480 0.951 . S
C2505 C2503 1.388 . S
C2505 C2506 1.366 . S
C2506 C2505 1.366 . S
C2506 C2507 1.414 . S
C2506 C2509 1.499 . S
C2507 H2481 0.950 . S
C2507 C2506 1.414 . S
C2507 C2508 1.374 . S
C2508 H2482 0.950 . S
C2508 C2504 1.385 . S
C2508 C2507 1.374 . S
C2509 C2506 1.499 . S
C2509 C2510 1.373 . S
C2509 C2511 1.389 . S
C2510 H2483 0.950 . S
C2510 C2496 1.377 . S
C2510 C2509 1.373 . S
C2511 C2495 1.377 . S
C2511 C2509 1.389 . S
C2511 C2512 1.524 . S
C2512 C2511 1.524 . S
C2512 C2513 1.397 . S
C2512 C2517 1.363 . S
C2513 H2484 0.950 . S
C2513 C2512 1.397 . S
C2513 C2514 1.334 . S
C2514 H2485 0.950 . S
C2514 C2513 1.334 . S
C2514 C2515 1.287 . S
C2515 C2514 1.287 . S
C2515 C2516 1.524 . S
C2515 H2518 0.999 . S
C2516 H2486 0.950 . S
C2516 C2515 1.524 . S
C2516 C2517 1.415 . S
C2517 H2487 0.950 . S
C2517 C2512 1.363 . S
C2517 C2516 1.415 . S
H2518 C2515 0.999 . S
H2519 C2500 0.913 . S
H2520 C2538 0.951 . S
H2521 C2540 0.951 . S
H2522 C2542 0.950 . S
H2523 C2543 0.950 . S
H2524 C2545 0.950 . S
H2525 C2548 0.950 . S
H2526 C2549 0.950 . S
H2527 C2551 0.950 . S
H2528 C2552 0.950 . S
H2529 C2553 0.951 . S
H2530 C2555 0.951 . S
H2531 C2557 0.950 . S
H2532 C2558 0.950 . S
H2533 C2560 0.950 . S
H2534 C2563 0.950 . S
H2535 C2564 0.950 . S
H2536 C2566 0.950 1_565 S
H2537 C2567 0.918 1_565 S
C2538 H2520 0.951 . S
C2538 C2539 1.366 . S
C2538 C2540 1.388 . S
C2539 C2538 1.366 . S
C2539 C2543 1.385 . S
C2540 H2521 0.951 . S
C2540 C2538 1.388 . S
C2540 C2541 1.366 . S
C2541 C2540 1.366 . S
C2541 C2542 1.414 . S
C2541 C2544 1.499 . S
C2542 H2522 0.950 . S
C2542 C2541 1.414 . S
C2542 C2543 1.374 . S
C2543 H2523 0.950 . S
C2543 C2539 1.385 . S
C2543 C2542 1.374 . S
C2544 C2541 1.499 . S
C2544 C2545 1.373 . S
C2544 C2546 1.389 1_565 S
C2545 H2524 0.950 . S
C2545 C2544 1.373 . S
C2545 C2561 1.377 1_565 S
C2546 C2544 1.389 1_545 S
C2546 C2547 1.524 . S
C2546 C2560 1.377 . S
C2547 C2546 1.524 . S
C2547 C2548 1.397 1_545 S
C2547 C2552 1.363 . S
C2548 H2525 0.950 . S
C2548 C2547 1.397 1_565 S
C2548 C2549 1.334 . S
C2549 H2526 0.950 . S
C2549 C2548 1.334 . S
C2549 C2550 1.262 1_565 S
C2550 C2549 1.262 1_545 S
C2550 C2551 1.552 . S
C2550 H2569 0.905 1_545 S
C2551 H2527 0.950 . S
C2551 C2550 1.552 . S
C2551 C2552 1.415 . S
C2552 H2528 0.950 . S
C2552 C2547 1.363 . S
C2552 C2551 1.415 . S
C2553 H2529 0.951 . S
C2553 C2554 1.366 . S
C2553 C2555 1.388 . S
C2554 C2553 1.366 . S
C2554 C2558 1.385 . S
C2555 H2530 0.951 . S
C2555 C2553 1.388 . S
C2555 C2556 1.366 . S
C2556 C2555 1.366 . S
C2556 C2557 1.414 . S
C2556 C2559 1.499 . S
C2557 H2531 0.950 . S
C2557 C2556 1.414 . S
C2557 C2558 1.374 . S
C2558 H2532 0.950 . S
C2558 C2554 1.385 . S
C2558 C2557 1.374 . S
C2559 C2556 1.499 . S
C2559 C2560 1.373 . S
C2559 C2561 1.389 . S
C2560 H2533 0.950 . S
C2560 C2546 1.377 . S
C2560 C2559 1.373 . S
C2561 C2545 1.377 1_545 S
C2561 C2559 1.389 . S
C2561 C2562 1.524 . S
C2562 C2561 1.524 . S
C2562 C2563 1.397 . S
C2562 C2567 1.394 . S
C2563 H2534 0.950 . S
C2563 C2562 1.397 . S
C2563 C2564 1.334 . S
C2564 H2535 0.950 . S
C2564 C2563 1.334 . S
C2564 C2565 1.287 . S
C2565 C2564 1.287 . S
C2565 C2566 1.524 . S
C2565 H2568 0.999 . S
C2566 H2536 0.950 1_545 S
C2566 C2565 1.524 . S
C2566 C2567 1.419 . S
C2567 H2537 0.918 1_545 S
C2567 C2562 1.394 . S
C2567 C2566 1.419 . S
H2568 C2565 0.999 . S
H2569 C2550 0.905 1_565 S
H2570 C2588 0.951 . S
H2571 C2590 0.951 . S
H2572 C2592 0.950 . S
H2573 C2593 0.950 . S
H2574 C2595 0.950 . S
H2575 C2598 0.950 . S
H2576 C2599 0.950 . S
H2577 C2601 0.950 . S
H2578 C2602 0.950 . S
H2579 C2603 0.951 . S
H2580 C2605 0.951 . S
H2581 C2607 0.950 . S
H2582 C2608 0.950 . S
H2583 C2610 0.950 . S
H2584 C2613 0.950 . S
H2585 C2614 0.950 . S
H2586 C2616 0.950 . S
H2587 C2617 0.950 . S
C2588 H2570 0.951 . S
C2588 C2589 1.366 . S
C2588 C2590 1.388 . S
C2589 C2588 1.366 . S
C2589 C2593 1.385 . S
C2590 H2571 0.951 . S
C2590 C2588 1.388 . S
C2590 C2591 1.366 . S
C2591 C2590 1.366 . S
C2591 C2592 1.414 . S
C2591 C2594 1.499 . S
C2592 H2572 0.950 . S
C2592 C2591 1.414 . S
C2592 C2593 1.374 . S
C2593 H2573 0.950 . S
C2593 C2589 1.385 . S
C2593 C2592 1.374 . S
C2594 C2591 1.499 . S
C2594 C2595 1.373 . S
C2594 C2596 1.389 . S
C2595 H2574 0.950 . S
C2595 C2594 1.373 . S
C2595 C2611 1.377 . S
C2596 C2594 1.389 . S
C2596 C2597 1.524 . S
C2596 C2610 1.377 . S
C2597 C2596 1.524 . S
C2597 C2598 1.397 . S
C2597 C2602 1.363 . S
C2598 H2575 0.950 . S
C2598 C2597 1.397 . S
C2598 C2599 1.334 . S
C2599 H2576 0.950 . S
C2599 C2598 1.334 . S
C2599 C2600 1.287 . S
C2600 C2599 1.287 . S
C2600 C2601 1.524 . S
C2600 H2619 0.913 . S
C2601 H2577 0.950 . S
C2601 C2600 1.524 . S
C2601 C2602 1.415 . S
C2602 H2578 0.950 . S
C2602 C2597 1.363 . S
C2602 C2601 1.415 . S
C2603 H2579 0.951 . S
C2603 C2604 1.366 . S
C2603 C2605 1.388 . S
C2604 C2603 1.366 . S
C2604 C2608 1.385 . S
C2605 H2580 0.951 . S
C2605 C2603 1.388 . S
C2605 C2606 1.366 . S
C2606 C2605 1.366 . S
C2606 C2607 1.414 . S
C2606 C2609 1.499 . S
C2607 H2581 0.950 . S
C2607 C2606 1.414 . S
C2607 C2608 1.374 . S
C2608 H2582 0.950 . S
C2608 C2604 1.385 . S
C2608 C2607 1.374 . S
C2609 C2606 1.499 . S
C2609 C2610 1.373 . S
C2609 C2611 1.389 . S
C2610 H2583 0.950 . S
C2610 C2596 1.377 . S
C2610 C2609 1.373 . S
C2611 C2595 1.377 . S
C2611 C2609 1.389 . S
C2611 C2612 1.524 . S
C2612 C2611 1.524 . S
C2612 C2613 1.397 . S
C2612 C2617 1.363 . S
C2613 H2584 0.950 . S
C2613 C2612 1.397 . S
C2613 C2614 1.334 . S
C2614 H2585 0.950 . S
C2614 C2613 1.334 . S
C2614 C2615 1.287 . S
C2615 C2614 1.287 . S
C2615 C2616 1.524 1_554 S
C2615 H2618 0.990 1_554 S
C2616 H2586 0.950 . S
C2616 C2615 1.524 1_556 S
C2616 C2617 1.415 1_556 S
C2617 H2587 0.950 . S
C2617 C2612 1.363 . S
C2617 C2616 1.415 1_554 S
H2618 C2615 0.990 1_556 S
H2619 C2600 0.913 . S
H2620 C2638 0.951 . S
H2621 C2640 0.951 . S
H2622 C2642 0.950 . S
H2623 C2643 0.950 . S
H2624 C2645 0.950 1_554 S
H2625 C2648 0.950 . S
H2626 C2649 0.950 . S
H2627 C2651 0.950 . S
H2628 C2652 0.954 1_565 S
H2629 C2653 0.951 . S
H2630 C2655 0.951 . S
H2631 C2657 0.950 . S
H2632 C2658 0.950 . S
H2633 C2660 0.950 . S
H2634 C2663 0.950 . S
H2635 C2664 0.950 . S
H2636 C2666 0.950 . S
H2637 C2667 0.950 . S
C2638 H2620 0.951 . S
C2638 C2639 1.366 . S
C2638 C2640 1.388 . S
C2639 C2638 1.366 . S
C2639 C2643 1.385 . S
C2640 H2621 0.951 . S
C2640 C2638 1.388 . S
C2640 C2641 1.366 . S
C2641 C2640 1.366 . S
C2641 C2642 1.414 . S
C2641 C2644 1.499 . S
C2642 H2622 0.950 . S
C2642 C2641 1.414 . S
C2642 C2643 1.374 . S
C2643 H2623 0.950 . S
C2643 C2639 1.385 . S
C2643 C2642 1.374 . S
C2644 C2641 1.499 . S
C2644 C2645 1.373 . S
C2644 C2646 1.389 . S
C2645 H2624 0.950 1_556 S
C2645 C2644 1.373 . S
C2645 C2661 1.377 1_556 S
C2646 C2644 1.389 . S
C2646 C2647 1.524 . S
C2646 C2660 1.377 1_545 S
C2647 C2646 1.524 . S
C2647 C2648 1.397 . S
C2647 C2652 1.363 . S
C2648 H2625 0.950 . S
C2648 C2647 1.397 . S
C2648 C2649 1.334 . S
C2649 H2626 0.950 . S
C2649 C2648 1.334 . S
C2649 C2650 1.287 . S
C2650 C2649 1.287 . S
C2650 C2651 1.524 . S
C2650 H2669 0.913 . S
C2651 H2627 0.950 . S
C2651 C2650 1.524 . S
C2651 C2652 1.415 . S
C2652 H2628 0.954 1_545 S
C2652 C2647 1.363 . S
C2652 C2651 1.415 . S
C2653 H2629 0.951 . S
C2653 C2654 1.366 . S
C2653 C2655 1.388 . S
C2654 C2653 1.366 . S
C2654 C2658 1.385 1_554 S
C2655 H2630 0.951 . S
C2655 C2653 1.388 . S
C2655 C2656 1.366 1_554 S
C2656 C2655 1.366 1_556 S
C2656 C2657 1.414 . S
C2656 C2659 1.499 . S
C2657 H2631 0.950 . S
C2657 C2656 1.414 . S
C2657 C2658 1.374 . S
C2658 H2632 0.950 . S
C2658 C2654 1.385 1_556 S
C2658 C2657 1.374 . S
C2659 C2656 1.499 . S
C2659 C2660 1.373 . S
C2659 C2661 1.389 1_566 S
C2660 H2633 0.950 . S
C2660 C2646 1.377 1_565 S
C2660 C2659 1.373 . S
C2661 C2645 1.377 1_554 S
C2661 C2659 1.389 1_544 S
C2661 C2662 1.524 . S
C2662 C2661 1.524 . S
C2662 C2663 1.397 1_545 S
C2662 C2667 1.363 . S
C2663 H2634 0.950 . S
C2663 C2662 1.397 1_565 S
C2663 C2664 1.334 . S
C2664 H2635 0.950 . S
C2664 C2663 1.334 . S
C2664 C2665 1.307 . S
C2665 C2664 1.307 . S
C2665 C2666 1.502 1_565 S
C2665 H2668 1.004 . S
C2666 H2636 0.950 . S
C2666 C2665 1.502 1_545 S
C2666 C2667 1.415 . S
C2667 H2637 0.950 . S
C2667 C2662 1.363 . S
C2667 C2666 1.415 . S
H2668 C2665 1.004 . S
H2669 C2650 0.913 . S
H2670 C2688 0.951 . S
H2671 C2690 0.951 . S
H2672 C2692 0.950 . S
H2673 C2693 0.950 . S
H2674 C2695 0.950 . S
H2675 C2698 0.950 . S
H2676 C2699 0.950 . S
H2677 C2701 0.950 . S
H2678 C2702 0.950 . S
H2679 C2703 0.951 . S
H2680 C2705 0.951 . S
H2681 C2707 0.950 . S
H2682 C2708 0.950 . S
H2683 C2710 0.950 . S
H2684 C2713 0.950 . S
H2685 C2714 0.950 . S
H2686 C2716 0.950 . S
H2687 C2717 0.950 . S
C2688 H2670 0.951 . S
C2688 C2689 1.366 . S
C2688 C2690 1.388 . S
C2689 C2688 1.366 . S
C2689 C2693 1.385 . S
C2690 H2671 0.951 . S
C2690 C2688 1.388 . S
C2690 C2691 1.366 . S
C2691 C2690 1.366 . S
C2691 C2692 1.414 . S
C2691 C2694 1.499 . S
C2692 H2672 0.950 . S
C2692 C2691 1.414 . S
C2692 C2693 1.374 . S
C2693 H2673 0.950 . S
C2693 C2689 1.385 . S
C2693 C2692 1.374 . S
C2694 C2691 1.499 . S
C2694 C2695 1.373 . S
C2694 C2696 1.389 . S
C2695 H2674 0.950 . S
C2695 C2694 1.373 . S
C2695 C2711 1.377 . S
C2696 C2694 1.389 . S
C2696 C2697 1.524 . S
C2696 C2710 1.377 . S
C2697 C2696 1.524 . S
C2697 C2698 1.397 . S
C2697 C2702 1.363 . S
C2698 H2675 0.950 . S
C2698 C2697 1.397 . S
C2698 C2699 1.334 . S
C2699 H2676 0.950 . S
C2699 C2698 1.334 . S
C2699 C2700 1.287 . S
C2700 C2699 1.287 . S
C2700 C2701 1.524 . S
C2700 H2719 0.913 . S
C2701 H2677 0.950 . S
C2701 C2700 1.524 . S
C2701 C2702 1.415 . S
C2702 H2678 0.950 . S
C2702 C2697 1.363 . S
C2702 C2701 1.415 . S
C2703 H2679 0.951 . S
C2703 C2704 1.366 . S
C2703 C2705 1.388 . S
C2704 C2703 1.366 . S
C2704 C2708 1.385 . S
C2705 H2680 0.951 . S
C2705 C2703 1.388 . S
C2705 C2706 1.366 . S
C2706 C2705 1.366 . S
C2706 C2707 1.414 . S
C2706 C2709 1.499 . S
C2707 H2681 0.950 . S
C2707 C2706 1.414 . S
C2707 C2708 1.374 . S
C2708 H2682 0.950 . S
C2708 C2704 1.385 . S
C2708 C2707 1.374 . S
C2709 C2706 1.499 . S
C2709 C2710 1.373 . S
C2709 C2711 1.389 . S
C2710 H2683 0.950 . S
C2710 C2696 1.377 . S
C2710 C2709 1.373 . S
C2711 C2695 1.377 . S
C2711 C2709 1.389 . S
C2711 C2712 1.524 . S
C2712 C2711 1.524 . S
C2712 C2713 1.397 . S
C2712 C2717 1.363 . S
C2713 H2684 0.950 . S
C2713 C2712 1.397 . S
C2713 C2714 1.334 . S
C2714 H2685 0.950 . S
C2714 C2713 1.334 . S
C2714 C2715 1.287 . S
C2715 C2714 1.287 . S
C2715 C2716 1.524 . S
C2715 H2718 0.999 . S
C2716 H2686 0.950 . S
C2716 C2715 1.524 . S
C2716 C2717 1.415 . S
C2717 H2687 0.950 . S
C2717 C2712 1.363 . S
C2717 C2716 1.415 . S
H2718 C2715 0.999 . S
H2719 C2700 0.913 . S
C339 C12 1.590 . S
C354 C9 1.590 . S
C389 C32 1.564 . S
C404 C29 1.564 . S
C439 C52 1.558 . S
C454 C49 1.558 . S
C489 C72 1.591 . S
C504 C69 1.591 . S
C539 C89 1.573 . S
C554 C92 1.573 . S
C589 C112 1.601 . S
C604 C109 1.601 . S
C639 C129 1.587 . S
C654 C132 1.587 . S
C689 C149 1.592 . S
C704 C152 1.592 . S
C739 C169 1.581 . S
C754 C172 1.581 . S
C789 C192 1.557 . S
C804 C189 1.557 . S
C839 C212 1.578 . S
C854 C209 1.578 . S
C889 C229 1.605 . S
C904 C232 1.605 . S
C939 C252 1.569 . S
C954 C249 1.569 . S
C989 C272 1.579 . S
C1004 C269 1.579 . S
C1039 C292 1.588 . S
C1054 C289 1.588 . S
C1089 C309 1.610 . S
C1104 C312 1.610 . S
C1139 C18 1.808 . S
C1154 C222 1.798 . S
C1189 C38 2.003 . S
C1204 C319 2.018 . S
C1239 C58 1.438 . S
C1254 C182 1.435 . S
C1289 C78 1.565 . S
C1304 C262 1.557 . S
C1339 C84 1.685 . S
C1354 C279 1.695 . S
C1389 C239 1.804 . S
C1404 C104 1.794 . S
C1439 C124 1.377 . S
C1454 C302 1.404 . S
C1489 C144 1.488 . S
C1504 C199 1.498 . S
C1539 C64 1.731 . S
C1554 C179 1.740 . S
C1589 C24 1.826 . S
C1604 C219 1.827 . S
C1639 C242 1.714 . S
C1654 C118 1.724 . S
C1689 C158 1.705 . S
C1704 C282 1.700 . S
C1739 C162 1.535 . S
C1754 C98 1.543 . S
C1789 C138 1.447 . S
C1804 C202 1.445 . S
C1839 C44 1.546 . S
C1854 C299 1.556 . S
C1889 C4 1.571 . S
C1904 C259 1.582 . S
C1939 C19 1.623 . S
C1954 C82 1.558 . S
C1989 C39 1.770 . S
C2004 C102 1.706 . S
C2039 C59 1.359 . S
C2054 C122 1.292 . S
C2089 C79 1.527 . S
C2104 C142 1.464 . S
C2139 C244 1.637 . S
C2154 C178 1.703 . S
C2189 C264 1.392 . S
C2204 C198 1.447 . S
C2239 C218 1.640 . S
C2254 C284 1.573 . S
C2289 C318 1.940 . S
C2304 C238 1.932 . S
C2339 C22 1.745 . S
C2354 C159 1.839 . S
C2389 C99 1.560 . S
C2404 C42 1.495 . S
C2439 C119 1.625 . S
C2454 C62 1.566 . S
C2489 C2 1.304 . S
C2504 C139 1.354 . S
C2539 C304 1.190 . S
C2554 C184 1.203 . S
C2589 C258 1.539 . S
C2604 C204 1.475 . S
C2639 C278 1.695 . S
C2654 C224 1.629 . S
C2689 C298 1.476 . S
C2704 C164 1.417 . S
