# Generated by pormake.
# Topology afw, (4)-cn, num edge types: 1
# Building blocks:
#     Node 0, Type 0, BuildingBlock: UXUYUI_clean_sbu_0, # of connection points: 4
#     Node 1, Type 0, BuildingBlock: UXUYUI_clean_sbu_0, # of connection points: 4
#     Node 2, Type 0, BuildingBlock: UXUYUI_clean_sbu_0, # of connection points: 4
#     Node 3, Type 0, BuildingBlock: UXUYUI_clean_sbu_0, # of connection points: 4
#     Node 4, Type 0, BuildingBlock: UXUYUI_clean_sbu_0, # of connection points: 4
#     Node 5, Type 0, BuildingBlock: UXUYUI_clean_sbu_0, # of connection points: 4
#     Node 6, Type 0, BuildingBlock: UXUYUI_clean_sbu_0, # of connection points: 4
#     Node 7, Type 0, BuildingBlock: UXUYUI_clean_sbu_0, # of connection points: 4
#     Node 8, Type 0, BuildingBlock: UXUYUI_clean_sbu_0, # of connection points: 4
#     Edge 9, Type (0, 0), None
#     Edge 10, Type (0, 0), None
#     Edge 11, Type (0, 0), None
#     Edge 12, Type (0, 0), None
#     Edge 13, Type (0, 0), None
#     Edge 14, Type (0, 0), None
#     Edge 15, Type (0, 0), None
#     Edge 16, Type (0, 0), None
#     Edge 17, Type (0, 0), None
#     Edge 18, Type (0, 0), None
#     Edge 19, Type (0, 0), None
#     Edge 20, Type (0, 0), None
#     Edge 21, Type (0, 0), None
#     Edge 22, Type (0, 0), None
#     Edge 23, Type (0, 0), None
#     Edge 24, Type (0, 0), None
#     Edge 25, Type (0, 0), None
#     Edge 26, Type (0, 0), None
# Relax obj value: 0.350
# Max RMSD: 0.270
# Mean RMSD: 0.270
data_MOF--net-afw--node1-UXUYUI_clean_sbu_0--edge1-none
_symmetry_space_group_name_H-M    P1
_symmetry_Int_Tables_number       1
_symmetry_cell_setting            triclinic
loop_
_symmetry_equiv_pos_as_xyz
'x, y, z'
_cell_length_a     36.466285
_cell_length_b     36.466827
_cell_length_c     34.13193
_cell_angle_alpha  90.002932
_cell_angle_beta   89.997794
_cell_angle_gamma 120.00147
loop_
_atom_site_label
_atom_site_type_symbol
_atom_site_fract_x
_atom_site_fract_y
_atom_site_fract_z
_atom_type_partial_charge
Li0 Li 0.00137 0.24144 0.03646 0.0
Li1 Li 0.96866 0.17864 0.99414 0.0
Li2 Li 0.04736 0.21798 0.00612 0.0
Li3 Li 0.01466 0.24808 0.9638 0.0
C4 C -0.00017 0.17461 0.08082 0.0
N5 N -0.00081 0.14862 0.15696 0.0
C6 C 0.96334 0.14011 0.09617 0.0
C7 C 0.0362 0.19542 0.10394 0.0
C8 C 0.96358 0.1276 0.1348 0.0
C9 C 0.03519 0.18192 0.14243 0.0
C10 C 0.91898 0.21448 0.98225 0.0
C11 C 0.86462 0.19309 0.93303 0.0
N12 N 0.83574 0.18586 0.96157 0.0
C13 C 0.88889 0.20735 0.01107 0.0
C14 C 0.9069 0.20777 0.94288 0.0
C15 C 0.84692 0.19268 3e-05 0.0
C16 C 0.01151 0.30539 0.09145 0.0
N17 N 0.99012 0.26356 0.08206 0.0
C18 C 0.94657 0.24744 0.13876 0.0
C19 C 0.95803 0.2348 0.10471 0.0
C20 C 0.96744 0.29048 0.1492 0.0
C21 C 0.00057 0.31968 0.12514 0.0
H22 H 0.03656 0.32768 0.07253 0.0
H23 H 0.94083 0.20197 0.09598 0.0
C24 C 0.93872 0.09621 0.97563 0.0
N25 N 0.92441 0.1216 0.98969 0.0
C26 C 0.91375 0.0525 0.9781 0.0
C27 C 0.85865 0.06116 0.00848 0.0
C28 C 0.88495 0.10516 0.00542 0.0
C29 C 0.87382 0.03453 -0.00411 0.0
H30 H 0.9707 0.10993 0.96471 0.0
H31 H 0.87492 0.12589 0.01791 0.0
C32 C 0.09705 0.30351 0.018 0.0
N33 N 0.1803 0.35812 0.03868 0.0
C34 C 0.12714 0.32645 0.98919 0.0
C35 C 0.10913 0.30889 0.05737 0.0
C36 C 0.16912 0.35376 0.00022 0.0
C37 C 0.15142 0.33649 0.06723 0.0
C38 C 0.01619 0.18277 0.91945 0.0
C39 C 0.05268 0.18477 0.90409 0.0
C40 C 0.97981 0.1672 0.89633 0.0
C41 C 0.05244 0.17201 0.86546 0.0
C42 C 0.98082 0.15471 0.85784 0.0
N43 N 0.01683 0.15741 0.84331 0.0
C44 C 0.0773 0.16551 0.02466 0.0
C45 C 0.13106 0.2282 0.99484 0.0
C46 C 0.10227 0.14677 0.0222 0.0
N47 N 0.09161 0.20519 0.01058 0.0
C48 C 0.15736 0.21049 0.99177 0.0
C49 C 0.1422 0.16872 0.00439 0.0
H50 H 0.04532 0.14725 0.03559 0.0
H51 H 0.1411 0.25896 0.98233 0.0
C52 C 0.00453 0.3019 0.90881 0.0
N53 N 0.02591 0.28145 0.9182 0.0
C54 C 0.01547 0.32711 0.87513 0.0
C55 C 0.06946 0.30887 0.8615 0.0
C56 C 0.058 0.28478 0.89555 0.0
C57 C 0.0486 0.33105 0.85106 0.0
H58 H 0.97947 0.29913 0.92774 0.0
H59 H 0.0752 0.26914 0.90427 0.0
O60 O 0.00015 0.18718 0.04298 0.0
O61 O 0.96025 0.22904 0.9925 0.0
O62 O 0.05578 0.27681 0.00776 0.0
O63 O 0.01587 0.19503 0.95728 0.0
H64 H 0.93504 0.12339 0.07851 0.0
H65 H 0.06502 0.22136 0.09217 0.0
H66 H 0.93546 0.10115 0.14716 0.0
H67 H 0.06309 0.19781 0.1607 0.0
H68 H 0.8548 0.1876 0.90267 0.0
H69 H 0.89778 0.21284 0.04163 0.0
H70 H 0.92997 0.21415 0.92014 0.0
H71 H 0.82324 0.18675 0.02205 0.0
H72 H 0.92143 0.22353 0.1566 0.0
H73 H 0.01719 0.35321 0.1317 0.0
H74 H 0.9264 0.0329 0.96789 0.0
H75 H 0.82813 0.04826 0.02274 0.0
H76 H 0.11825 0.32305 0.95862 0.0
H77 H 0.08607 0.29221 0.08012 0.0
H78 H 0.1928 0.37149 0.9782 0.0
H79 H 0.16124 0.34083 0.09758 0.0
H80 H 0.08098 0.19635 0.92175 0.0
H81 H 0.95099 0.16433 0.90811 0.0
H82 H 0.08055 0.17368 0.8531 0.0
H83 H 0.95291 0.14269 0.83957 0.0
H84 H 0.08962 0.11453 0.03243 0.0
H85 H 0.18787 0.2281 0.97751 0.0
H86 H -0.00115 0.34403 0.86857 0.0
H87 H 0.0946 0.31011 0.84366 0.0
Li88 Li 0.84097 0.80521 0.99416 0.0
Li89 Li 0.77817 0.77511 0.03648 0.0
Li90 Li 0.77152 0.78176 0.96381 0.0
Li91 Li 0.80162 0.84456 0.00614 0.0
C92 C 0.80512 0.71968 0.98227 0.0
N93 N 0.83373 0.66506 0.96157 0.0
C94 C 0.81225 0.69672 0.01107 0.0
C95 C 0.81183 0.71431 0.94289 0.0
C96 C 0.82691 0.66941 3e-05 0.0
C97 C 0.82651 0.68671 0.93303 0.0
C98 C 0.84501 0.84042 0.08083 0.0
C99 C 0.83772 0.86849 0.14244 0.0
N100 N 0.87102 0.86578 0.15697 0.0
C101 C 0.8795 0.83842 0.09618 0.0
C102 C 0.82421 0.856 0.10396 0.0
C103 C 0.89203 0.85118 0.13481 0.0
C104 C 0.92339 0.85772 0.97568 0.0
N105 N 0.89801 0.81801 0.9897 0.0
C106 C 0.95846 0.81268 0.00847 0.0
C107 C 0.91445 0.79498 0.0054 0.0
C108 C 0.98508 0.85448 -0.00409 0.0
C109 C 0.96711 0.87646 0.97815 0.0
H110 H 0.90968 0.87599 0.96479 0.0
H111 H 0.89372 0.76419 0.01787 0.0
C112 C 0.71422 0.7213 0.09147 0.0
N113 N 0.75605 0.74175 0.08208 0.0
C114 C 0.69994 0.69609 0.12516 0.0
C115 C 0.77218 0.71433 0.13877 0.0
C116 C 0.78481 0.73842 0.10472 0.0
C117 C 0.72915 0.69215 0.14921 0.0
H118 H 0.69193 0.72408 0.07256 0.0
H119 H 0.81765 0.75405 0.09598 0.0
C120 C 0.83685 0.84859 0.91947 0.0
N121 N 0.86224 0.8746 0.84334 0.0
C122 C 0.83485 0.88309 0.90411 0.0
C123 C 0.85243 0.8278 0.89635 0.0
C124 C 0.84763 0.89561 0.86548 0.0
C125 C 0.86494 0.8413 0.85787 0.0
C126 C 0.71609 0.80871 0.01802 0.0
C127 C 0.69313 0.81584 0.9892 0.0
C128 C 0.71072 0.81543 0.05739 0.0
C129 C 0.66582 0.8305 0.00023 0.0
C130 C 0.68312 0.83011 0.06724 0.0
N131 N 0.66147 0.83734 0.0387 0.0
C132 C 0.7177 0.7178 0.90883 0.0
C133 C 0.73484 0.78839 0.89556 0.0
C134 C 0.69249 0.70352 0.87514 0.0
N135 N 0.73816 0.75963 0.91822 0.0
C136 C 0.71075 0.77576 0.86151 0.0
C137 C 0.68856 0.73272 0.85108 0.0
H138 H 0.72047 0.69551 0.92775 0.0
H139 H 0.75048 0.82123 0.90429 0.0
C140 C 0.85411 0.92698 0.02464 0.0
N141 N 0.81441 0.9016 0.01059 0.0
C142 C 0.87284 0.9707 0.02217 0.0
C143 C 0.80909 0.96203 0.99179 0.0
C144 C 0.79139 0.91803 0.99486 0.0
C145 C 0.85088 0.98866 0.00438 0.0
H146 H 0.87237 0.91327 0.03556 0.0
H147 H 0.76061 0.89729 0.98237 0.0
O148 O 0.79056 0.74639 0.99252 0.0
O149 O 0.83243 0.82817 0.043 0.0
O150 O 0.82457 0.83602 0.9573 0.0
O151 O 0.7428 0.79415 0.00777 0.0
H152 H 0.80676 0.70011 0.04164 0.0
H153 H 0.80546 0.731 0.92016 0.0
H154 H 0.83285 0.65166 0.02205 0.0
H155 H 0.83199 0.68238 0.90267 0.0
H156 H 0.82183 0.88051 0.16071 0.0
H157 H 0.89622 0.82684 0.07852 0.0
H158 H 0.79827 0.85887 0.09218 0.0
H159 H 0.91847 0.84952 0.14716 0.0
H160 H 0.97135 0.79505 0.02269 0.0
H161 H 0.9867 0.90871 0.96796 0.0
H162 H 0.66641 0.67917 0.13173 0.0
H163 H 0.79609 0.71308 0.1566 0.0
H164 H 0.82326 0.8998 0.92176 0.0
H165 H 0.8553 0.80185 0.90814 0.0
H166 H 0.84597 0.92206 0.85312 0.0
H167 H 0.87697 0.82542 0.83961 0.0
H168 H 0.69653 0.81034 0.95864 0.0
H169 H 0.72741 0.80906 0.08013 0.0
H170 H 0.64808 0.83644 0.97822 0.0
H171 H 0.67879 0.8356 0.0976 0.0
H172 H 0.67556 0.66998 0.86858 0.0
H173 H 0.70951 0.79966 0.84367 0.0
H174 H 0.90509 0.99029 0.03238 0.0
H175 H 0.79147 0.97493 0.97754 0.0
Li176 Li 0.21441 0.05095 0.99416 0.0
Li177 Li 0.24451 0.01825 0.03647 0.0
Li178 Li 0.23786 0.00495 0.96381 0.0
Li179 Li 0.17506 0.97225 0.00613 0.0
C180 C 0.29995 0.10063 0.98226 0.0
N181 N 0.35457 0.18387 0.96157 0.0
C182 C 0.3229 0.13072 0.01107 0.0
C183 C 0.30531 0.11271 0.94289 0.0
C184 C 0.35022 0.17269 3e-05 0.0
C185 C 0.33291 0.15498 0.93303 0.0
C186 C 0.17921 0.01978 0.08083 0.0
C187 C 0.15117 0.98444 0.14245 0.0
N188 N 0.15387 0.02046 0.15697 0.0
C189 C 0.18122 0.05629 0.09617 0.0
C190 C 0.16365 0.98342 0.10396 0.0
C191 C 0.16847 0.05606 0.13481 0.0
C192 C 0.16189 0.08084 0.9757 0.0
N193 N 0.20161 0.09519 0.98971 0.0
C194 C 0.20694 0.16096 0.00846 0.0
C195 C 0.22464 0.13466 0.00539 0.0
C196 C 0.16513 0.14577 -0.00408 0.0
C197 C 0.14315 0.10581 0.97817 0.0
H198 H 0.14362 0.04885 0.96481 0.0
H199 H 0.25544 0.14473 0.01784 0.0
C200 C 0.29832 0.0081 0.09147 0.0
N201 N 0.27788 0.02949 0.08207 0.0
C202 C 0.32353 0.01904 0.12515 0.0
C203 C 0.3053 0.07305 0.13876 0.0
C204 C 0.28122 0.06159 0.10471 0.0
C205 C 0.32747 0.05218 0.14921 0.0
H206 H 0.29554 0.98304 0.07255 0.0
H207 H 0.26559 0.07879 0.09598 0.0
C208 C 0.17102 0.00344 0.91947 0.0
N209 N 0.14501 0.00284 0.84334 0.0
C210 C 0.13652 0.96695 0.90411 0.0
C211 C 0.19182 0.03983 0.89636 0.0
C212 C 0.124 0.96721 0.86548 0.0
C213 C 0.17831 0.03884 0.85788 0.0
C214 C 0.2109 0.92256 0.018 0.0
C215 C 0.20377 0.89248 0.98918 0.0
C216 C 0.20418 0.91047 0.05737 0.0
C217 C 0.18909 0.8505 0.0002 0.0
C218 C 0.18949 0.86819 0.06721 0.0
N219 N 0.18226 0.83931 0.03866 0.0
C220 C 0.30182 0.01508 0.90882 0.0
C221 C 0.23122 0.96163 0.89555 0.0
C222 C 0.3161 0.00415 0.87513 0.0
N223 N 0.25998 0.99371 0.91821 0.0
C224 C 0.24385 0.95017 0.8615 0.0
C225 C 0.28689 0.97103 0.85106 0.0
H226 H 0.32411 0.04013 0.92775 0.0
H227 H 0.19838 0.94444 0.90427 0.0
C228 C 0.09264 0.94231 0.02466 0.0
N229 N 0.11802 0.928 0.01059 0.0
C230 C 0.04893 0.91734 0.0222 0.0
C231 C 0.05757 0.86225 0.99178 0.0
C232 C 0.10158 0.88855 0.99484 0.0
C233 C 0.03096 0.87742 0.00439 0.0
H234 H 0.10636 0.97428 0.03559 0.0
H235 H 0.12231 0.87851 0.98234 0.0
O236 O 0.27323 0.05936 0.99252 0.0
O237 O 0.19146 0.01945 0.043 0.0
O238 O 0.1836 0.00374 0.95729 0.0
O239 O 0.22547 0.96384 0.00776 0.0
H240 H 0.31951 0.12184 0.04164 0.0
H241 H 0.28862 0.08964 0.92015 0.0
H242 H 0.36796 0.19638 0.02205 0.0
H243 H 0.33725 0.1648 0.90267 0.0
H244 H 0.13915 0.95655 0.16073 0.0
H245 H 0.1928 0.08458 0.07851 0.0
H246 H 0.16077 0.9546 0.09219 0.0
H247 H 0.17014 0.08417 0.14716 0.0
H248 H 0.22457 0.1915 0.02267 0.0
H249 H 0.11089 0.09314 0.96799 0.0
H250 H 0.34044 0.00241 0.13172 0.0
H251 H 0.30655 0.0982 0.1566 0.0
H252 H 0.11981 0.93865 0.92175 0.0
H253 H 0.21777 0.06864 0.90815 0.0
H254 H 0.09755 0.93911 0.85311 0.0
H255 H 0.1942 0.06675 0.83962 0.0
H256 H 0.20926 0.90138 0.95861 0.0
H257 H 0.21056 0.93353 0.08012 0.0
H258 H 0.18315 0.82683 0.97818 0.0
H259 H 0.184 0.85836 0.09757 0.0
H260 H 0.34963 0.02076 0.86858 0.0
H261 H 0.21995 0.92504 0.84365 0.0
H262 H 0.02934 0.92999 0.03242 0.0
H263 H 0.04467 0.83174 0.97751 0.0
Li264 Li 0.63534 0.51197 0.32748 0.0
Li265 Li 0.66804 0.57477 0.3698 0.0
Li266 Li 0.68134 0.58142 0.29714 0.0
Li267 Li 0.71404 0.55133 0.33946 0.0
C268 C 0.58566 0.54782 0.31559 0.0
N269 N 0.50242 0.5192 0.2949 0.0
C270 C 0.55557 0.54068 0.3444 0.0
C271 C 0.57358 0.54111 0.27622 0.0
C272 C 0.51359 0.52602 0.33336 0.0
C273 C 0.5313 0.52643 0.26636 0.0
C274 C 0.66651 0.50795 0.41415 0.0
C275 C 0.70187 0.51525 0.47577 0.0
N276 N 0.66586 0.48194 0.4903 0.0
C277 C 0.63002 0.47345 0.4295 0.0
C278 C 0.70288 0.52875 0.43728 0.0
C279 C 0.63025 0.46093 0.46814 0.0
C280 C 0.60543 0.42955 0.309 0.0
N281 N 0.5911 0.45493 0.32303 0.0
C282 C 0.52534 0.39449 0.34181 0.0
C283 C 0.55163 0.43849 0.33874 0.0
C284 C 0.54051 0.36787 0.32924 0.0
C285 C 0.58046 0.38584 0.31147 0.0
H286 H 0.63741 0.44327 0.29809 0.0
H287 H 0.54158 0.45922 0.35121 0.0
C288 C 0.67818 0.63872 0.4248 0.0
N289 N 0.6568 0.5969 0.4154 0.0
C290 C 0.66725 0.653 0.45849 0.0
C291 C 0.61324 0.58076 0.4721 0.0
C292 C 0.6247 0.56814 0.43804 0.0
C293 C 0.63411 0.6238 0.48254 0.0
H294 H 0.70325 0.66101 0.40588 0.0
H295 H 0.6075 0.5353 0.42931 0.0
C296 C 0.68286 0.5161 0.25279 0.0
N297 N 0.68348 0.49071 0.17666 0.0
C298 C 0.71935 0.5181 0.23743 0.0
C299 C 0.64648 0.50052 0.22968 0.0
C300 C 0.7191 0.50533 0.1988 0.0
C301 C 0.64748 0.48801 0.19119 0.0
C302 C 0.76373 0.63686 0.35134 0.0
C303 C 0.79381 0.65981 0.32252 0.0
C304 C 0.77581 0.64223 0.39071 0.0
C305 C 0.83579 0.68712 0.33355 0.0
C306 C 0.8181 0.66983 0.40056 0.0
N307 N 0.84697 0.69148 0.37201 0.0
C308 C 0.6712 0.63524 0.24216 0.0
C309 C 0.72466 0.61811 0.22888 0.0
C310 C 0.68214 0.66046 0.20847 0.0
N311 N 0.69258 0.61479 0.25154 0.0
C312 C 0.73612 0.6422 0.19484 0.0
C313 C 0.71526 0.66438 0.18441 0.0
H314 H 0.64615 0.63247 0.26109 0.0
H315 H 0.74186 0.60247 0.23761 0.0
C316 C 0.74399 0.49885 0.35798 0.0
N317 N 0.7583 0.53855 0.34391 0.0
C318 C 0.76897 0.48012 0.35551 0.0
C319 C 0.82405 0.54386 0.32511 0.0
C320 C 0.79775 0.56156 0.32818 0.0
C321 C 0.80889 0.50208 0.33771 0.0
H322 H 0.71201 0.48059 0.3689 0.0
H323 H 0.80779 0.59233 0.31568 0.0
O324 O 0.62692 0.56238 0.32585 0.0
O325 O 0.66684 0.52052 0.37632 0.0
O326 O 0.68255 0.52837 0.29062 0.0
O327 O 0.72245 0.61015 0.34109 0.0
H328 H 0.56445 0.54617 0.37497 0.0
H329 H 0.59665 0.54748 0.25348 0.0
H330 H 0.48991 0.52008 0.35537 0.0
H331 H 0.52149 0.52095 0.236 0.0
H332 H 0.72977 0.53114 0.49404 0.0
H333 H 0.60172 0.45673 0.41184 0.0
H334 H 0.7317 0.55469 0.42551 0.0
H335 H 0.60214 0.43448 0.48049 0.0
H336 H 0.49481 0.38159 0.35604 0.0
H337 H 0.59312 0.36625 0.30127 0.0
H338 H 0.68387 0.68654 0.46505 0.0
H339 H 0.58809 0.55686 0.48993 0.0
H340 H 0.74766 0.52969 0.25508 0.0
H341 H 0.61766 0.49764 0.24146 0.0
H342 H 0.74721 0.50699 0.18644 0.0
H343 H 0.61957 0.47598 0.17293 0.0
H344 H 0.78492 0.65641 0.29195 0.0
H345 H 0.75275 0.62555 0.41345 0.0
H346 H 0.85946 0.70486 0.31153 0.0
H347 H 0.82792 0.67417 0.43091 0.0
H348 H 0.66552 0.67738 0.20192 0.0
H349 H 0.76126 0.64344 0.17699 0.0
H350 H 0.75632 0.44788 0.36573 0.0
H351 H 0.85457 0.56148 0.31085 0.0
Li352 Li 0.50765 0.13854 0.32748 0.0
Li353 Li 0.44485 0.10844 0.36981 0.0
Li354 Li 0.4382 0.11509 0.29714 0.0
Li355 Li 0.4683 0.17789 0.33947 0.0
C356 C 0.4718 0.05301 0.31559 0.0
N357 N 0.50042 -0.00161 0.29489 0.0
C358 C 0.47893 0.03006 0.3444 0.0
C359 C 0.4785 0.04764 0.27622 0.0
C360 C 0.4936 0.00275 0.33336 0.0
C361 C 0.49318 0.02004 0.26635 0.0
C362 C 0.51168 0.17375 0.41416 0.0
C363 C 0.50439 0.20181 0.47577 0.0
N364 N 0.53769 0.19911 0.4903 0.0
C365 C 0.54618 0.17175 0.4295 0.0
C366 C 0.49088 0.18932 0.43729 0.0
C367 C 0.5587 0.18451 0.46814 0.0
C368 C 0.59007 0.19105 0.30899 0.0
N369 N 0.56469 0.15134 0.32303 0.0
C370 C 0.62513 0.14603 0.3418 0.0
C371 C 0.58113 0.12832 0.33873 0.0
C372 C 0.65175 0.18782 0.32923 0.0
C373 C 0.63378 0.20979 0.31146 0.0
H374 H 0.57635 0.20931 0.29809 0.0
H375 H 0.5604 0.09753 0.35121 0.0
C376 C 0.3809 0.05463 0.4248 0.0
N377 N 0.42273 0.07507 0.4154 0.0
C378 C 0.36662 0.02941 0.45849 0.0
C379 C 0.43886 0.04765 0.4721 0.0
C380 C 0.45149 0.07174 0.43805 0.0
C381 C 0.39583 0.02548 0.48254 0.0
H382 H 0.35861 0.0574 0.40589 0.0
H383 H 0.48432 0.08737 0.42931 0.0
C384 C 0.50352 0.18192 0.2528 0.0
N385 N 0.5289 0.20793 0.17666 0.0
C386 C 0.50152 0.21642 0.23744 0.0
C387 C 0.51909 0.16113 0.22968 0.0
C388 C 0.5143 0.22894 0.19881 0.0
C389 C 0.5316 0.17463 0.19119 0.0
C390 C 0.38276 0.14204 0.35135 0.0
C391 C 0.35982 0.14918 0.32254 0.0
C392 C 0.3774 0.14876 0.39072 0.0
C393 C 0.33251 0.16385 0.33357 0.0
C394 C 0.3498 0.16344 0.40058 0.0
N395 N 0.32816 0.17067 0.37203 0.0
C396 C 0.38437 0.05113 0.24215 0.0
C397 C 0.40151 0.12173 0.22889 0.0
C398 C 0.35916 0.03685 0.20847 0.0
N399 N 0.40483 0.09296 0.25155 0.0
C400 C 0.37742 0.1091 0.19484 0.0
C401 C 0.35523 0.06606 0.18441 0.0
H402 H 0.38713 0.02884 0.26108 0.0
H403 H 0.41715 0.15456 0.23762 0.0
C404 C 0.52079 0.26031 0.35798 0.0
N405 N 0.48109 0.23493 0.34392 0.0
C406 C 0.53953 0.30402 0.35551 0.0
C407 C 0.47578 0.29537 0.32512 0.0
C408 C 0.45808 0.25137 0.32819 0.0
C409 C 0.51757 0.32199 0.33772 0.0
H410 H 0.53905 0.24659 0.3689 0.0
H411 H 0.4273 0.23063 0.3157 0.0
O412 O 0.45724 0.07972 0.32585 0.0
O413 O 0.49911 0.16149 0.37633 0.0
O414 O 0.49124 0.16935 0.29062 0.0
O415 O 0.40947 0.12748 0.3411 0.0
H416 H 0.47345 0.03345 0.37497 0.0
H417 H 0.47212 0.06433 0.25348 0.0
H418 H 0.49954 0.98501 0.35537 0.0
H419 H 0.49866 0.01571 0.23599 0.0
H420 H 0.4885 0.21383 0.49404 0.0
H421 H 0.5629 0.16017 0.41184 0.0
H422 H 0.46494 0.19219 0.42551 0.0
H423 H 0.58515 0.18284 0.48049 0.0
H424 H 0.63804 0.1284 0.35603 0.0
H425 H 0.65337 0.24204 0.30126 0.0
H426 H 0.33309 0.0125 0.46506 0.0
H427 H 0.46277 0.04641 0.48993 0.0
H428 H 0.48994 0.23314 0.25509 0.0
H429 H 0.52196 0.13518 0.24146 0.0
H430 H 0.51264 0.25539 0.18645 0.0
H431 H 0.54362 0.15874 0.17293 0.0
H432 H 0.36321 0.14368 0.29197 0.0
H433 H 0.39408 0.14238 0.41346 0.0
H434 H 0.31477 0.16979 0.31155 0.0
H435 H 0.34546 0.16893 0.43093 0.0
H436 H 0.34223 0.00332 0.20191 0.0
H437 H 0.37619 0.133 0.177 0.0
H438 H 0.57177 0.32361 0.36573 0.0
H439 H 0.45816 0.30827 0.31087 0.0
Li440 Li 0.91118 0.3516 0.3698 0.0
Li441 Li 0.88109 0.3843 0.32748 0.0
Li442 Li 0.84174 0.3056 0.33946 0.0
Li443 Li 0.90454 0.3383 0.29714 0.0
C444 C 0.84587 0.35313 0.41415 0.0
N445 N 0.8205 0.35377 0.49029 0.0
C446 C 0.84787 0.38962 0.4295 0.0
C447 C 0.8303 0.31676 0.43727 0.0
C448 C 0.8351 0.38938 0.46813 0.0
C449 C 0.8178 0.31776 0.47576 0.0
C450 C 0.96662 0.43398 0.3156 0.0
C451 C -0.00041 0.48835 0.26638 0.0
N452 N 0.02124 0.51722 0.29492 0.0
C453 C 0.98957 0.46407 0.34441 0.0
C454 C 0.97199 0.44607 0.27623 0.0
C455 C 0.01689 0.50604 0.33338 0.0
C456 C 0.965 0.34146 0.42479 0.0
N457 N 0.94455 0.36284 0.4154 0.0
C458 C 0.97196 0.40639 0.4721 0.0
C459 C 0.94787 0.39493 0.43805 0.0
C460 C -0.00586 0.38553 0.48254 0.0
C461 C 0.99021 0.3524 0.45848 0.0
H462 H 0.96223 0.31641 0.40586 0.0
H463 H 0.93224 0.41213 0.42932 0.0
C464 C 0.8286 0.41423 0.30898 0.0
N465 N 0.8683 0.42855 0.32302 0.0
C466 C 0.80986 0.43921 0.31145 0.0
C467 C 0.87362 0.49431 0.34181 0.0
C468 C 0.89132 0.46801 0.33875 0.0
C469 C 0.83183 0.47914 0.32923 0.0
H470 H 0.81033 0.38225 0.29807 0.0
H471 H 0.9221 0.47805 0.35123 0.0
C472 C 0.87758 0.25592 0.35134 0.0
N473 N 0.84895 0.17268 0.37203 0.0
C474 C 0.87044 0.22583 0.32253 0.0
C475 C 0.87087 0.24384 0.39072 0.0
C476 C 0.85578 0.18385 0.33357 0.0
C477 C 0.85619 0.20156 0.40057 0.0
C478 C 0.8377 0.33678 0.25279 0.0
C479 C 0.80321 0.30028 0.23743 0.0
C480 C 0.85851 0.37315 0.22967 0.0
C481 C 0.79069 0.30053 0.1988 0.0
C482 C 0.84501 0.37215 0.19118 0.0
N483 N 0.8117 0.33614 0.17665 0.0
C484 C 0.75931 0.27567 0.35797 0.0
C485 C 0.76825 0.2219 0.32818 0.0
C486 C 0.7156 0.25069 0.3555 0.0
N487 N 0.7847 0.26135 0.34391 0.0
C488 C 0.72425 0.1956 0.32511 0.0
C489 C 0.69763 0.21076 0.33771 0.0
H490 H 0.77303 0.30765 0.36889 0.0
H491 H 0.78899 0.21186 0.31569 0.0
C492 C 0.96849 0.34844 0.24214 0.0
N493 N 0.92666 0.32705 0.25154 0.0
C494 C 0.98276 0.3375 0.20845 0.0
C495 C 0.91052 0.2835 0.19484 0.0
C496 C 0.89789 0.29496 0.22889 0.0
C497 C 0.95356 0.30436 0.1844 0.0
H498 H 0.99078 0.37349 0.26106 0.0
H499 H 0.86506 0.27776 0.23762 0.0
O500 O 0.85814 0.35281 0.37632 0.0
O501 O 0.93991 0.39271 0.32584 0.0
O502 O 0.89214 0.29719 0.34109 0.0
O503 O 0.85028 0.33709 0.29062 0.0
H504 H 0.85945 0.41792 0.41184 0.0
H505 H 0.82743 0.28794 0.4255 0.0
H506 H 0.83676 0.41749 0.48049 0.0
H507 H 0.80578 0.28986 0.49403 0.0
H508 H 0.00393 0.49817 0.23602 0.0
H509 H 0.98618 0.45518 0.37498 0.0
H510 H 0.95531 0.42301 0.25348 0.0
H511 H 0.03463 0.52972 0.3554 0.0
H512 H 0.97319 0.43152 0.48994 0.0
H513 H 0.00713 0.33578 0.46504 0.0
H514 H 0.77761 0.42655 0.30124 0.0
H515 H 0.89125 0.52483 0.35606 0.0
H516 H 0.87593 0.23471 0.29196 0.0
H517 H 0.87725 0.26691 0.41346 0.0
H518 H 0.84984 0.16017 0.31155 0.0
H519 H 0.8507 0.19175 0.43093 0.0
H520 H 0.78649 0.27198 0.25509 0.0
H521 H 0.88445 0.40197 0.24145 0.0
H522 H 0.76424 0.27242 0.18644 0.0
H523 H 0.86089 0.40005 0.17291 0.0
H524 H 0.69601 0.26334 0.36572 0.0
H525 H 0.71135 0.16508 0.31086 0.0
H526 H 0.0163 0.35411 0.20189 0.0
H527 H 0.88661 0.25836 0.177 0.0
Li528 Li 0.33472 0.90811 0.70314 0.0
Li529 Li 0.30201 0.84531 0.66082 0.0
Li530 Li 0.38071 0.88466 0.6728 0.0
Li531 Li 0.34802 0.91475 0.63047 0.0
C532 C 0.33318 0.84128 0.74749 0.0
N533 N 0.33253 0.8153 0.82364 0.0
C534 C 0.29668 0.80679 0.76285 0.0
C535 C 0.36955 0.86209 0.77062 0.0
C536 C 0.29692 0.79428 0.80149 0.0
C537 C 0.36854 0.8486 0.80911 0.0
C538 C 0.25233 0.88116 0.64892 0.0
C539 C 0.19798 0.85976 0.59968 0.0
N540 N 0.1691 0.85253 0.62822 0.0
C541 C 0.22224 0.87402 0.67773 0.0
C542 C 0.24026 0.87445 0.60955 0.0
C543 C 0.18027 0.85935 0.66669 0.0
C544 C 0.34486 0.97206 0.75813 0.0
N545 N 0.32347 0.93023 0.74873 0.0
C546 C 0.2799 0.91411 0.80542 0.0
C547 C 0.29137 0.90148 0.77137 0.0
C548 C 0.30078 0.95714 0.81587 0.0
C549 C 0.33392 0.98634 0.79182 0.0
H550 H 0.36992 0.99435 0.73921 0.0
H551 H 0.27416 0.86864 0.76264 0.0
C552 C 0.27207 0.76289 0.6423 0.0
N553 N 0.25776 0.78827 0.65636 0.0
C554 C 0.2471 0.71917 0.64477 0.0
C555 C 0.19201 0.72783 0.67516 0.0
C556 C 0.21831 0.77183 0.67209 0.0
C557 C 0.20717 0.70121 0.66257 0.0
H558 H 0.30405 0.7766 0.63138 0.0
H559 H 0.20827 0.79257 0.68459 0.0
C560 C 0.4304 0.97019 0.68468 0.0
N561 N 0.51365 0.02479 0.70535 0.0
C562 C 0.46049 0.99313 0.65586 0.0
C563 C 0.44249 0.97556 0.72405 0.0
C564 C 0.50247 0.02043 0.66689 0.0
C565 C 0.48477 0.00316 0.7339 0.0
C566 C 0.34954 0.84944 0.58612 0.0
C567 C 0.38604 0.85144 0.57077 0.0
C568 C 0.31317 0.83387 0.563 0.0
C569 C 0.3858 0.83868 0.53214 0.0
C570 C 0.31418 0.82137 0.52451 0.0
N571 N 0.35018 0.82408 0.50999 0.0
C572 C 0.41065 0.83218 0.69133 0.0
C573 C 0.46441 0.89487 0.66152 0.0
C574 C 0.43562 0.81343 0.68887 0.0
N575 N 0.42496 0.87186 0.67726 0.0
C576 C 0.49071 0.87716 0.65846 0.0
C577 C 0.47554 0.83538 0.67107 0.0
H578 H 0.37867 0.81391 0.70226 0.0
H579 H 0.47445 0.92564 0.64901 0.0
C580 C 0.33788 0.96857 0.57549 0.0
N581 N 0.35926 0.94812 0.58488 0.0
C582 C 0.34882 0.99379 0.54181 0.0
C583 C 0.4028 0.97553 0.52817 0.0
C584 C 0.39135 0.95145 0.56222 0.0
C585 C 0.38195 -0.00228 0.51774 0.0
H586 H 0.31283 0.96581 0.59442 0.0
H587 H 0.40855 0.93581 0.57094 0.0
O588 O 0.3335 0.85385 0.70966 0.0
O589 O 0.2936 0.89572 0.65918 0.0
O590 O 0.38913 0.94348 0.67443 0.0
O591 O 0.34922 0.8617 0.62396 0.0
H592 H 0.26839 0.79007 0.74519 0.0
H593 H 0.39837 0.88803 0.75884 0.0
H594 H 0.26881 0.76784 0.81385 0.0
H595 H 0.39644 0.86449 0.82738 0.0
H596 H 0.18817 0.85429 0.56932 0.0
H597 H 0.23112 0.87951 0.7083 0.0
H598 H 0.26333 0.88083 0.58681 0.0
H599 H 0.15658 0.85341 0.6887 0.0
H600 H 0.25475 0.8902 0.82325 0.0
H601 H 0.35054 0.01988 0.79838 0.0
H602 H 0.25975 0.69958 0.63455 0.0
H603 H 0.16149 0.71493 0.68942 0.0
H604 H 0.4516 0.98972 0.62529 0.0
H605 H 0.41943 0.95889 0.74679 0.0
H606 H 0.52615 0.03816 0.64487 0.0
H607 H 0.49459 0.0075 0.76425 0.0
H608 H 0.41433 0.86302 0.58843 0.0
H609 H 0.28435 0.831 0.57478 0.0
H610 H 0.41391 0.84034 0.51978 0.0
H611 H 0.28627 0.80936 0.50625 0.0
H612 H 0.42296 0.78119 0.6991 0.0
H613 H 0.52122 0.89478 0.64419 0.0
H614 H 0.3322 0.01071 0.53525 0.0
H615 H 0.42794 0.97677 0.51033 0.0
Li616 Li 0.11151 0.44178 0.70314 0.0
Li617 Li 0.17431 0.47188 0.66082 0.0
Li618 Li 0.13496 0.51123 0.6728 0.0
Li619 Li 0.10486 0.44843 0.63048 0.0
C620 C 0.17835 0.5071 0.74749 0.0
N621 N 0.20435 0.53248 0.82363 0.0
C622 C 0.21284 0.5051 0.76285 0.0
C623 C 0.15755 0.52268 0.77061 0.0
C624 C 0.22536 0.51787 0.80148 0.0
C625 C 0.17105 0.53518 0.80909 0.0
C626 C 0.13846 0.38635 0.64893 0.0
C627 C 0.15986 0.35338 0.5997 0.0
N628 N 0.16709 0.33173 0.62825 0.0
C629 C 0.14559 0.3634 0.67774 0.0
C630 C 0.14517 0.38098 0.60956 0.0
C631 C 0.16026 0.33609 0.66671 0.0
C632 C 0.04756 0.38796 0.75813 0.0
N633 N 0.08939 0.40841 0.74874 0.0
C634 C 0.10552 0.38099 0.80543 0.0
C635 C 0.11815 0.40509 0.77139 0.0
C636 C 0.06248 0.35881 0.81587 0.0
C637 C 0.03328 0.36274 0.79181 0.0
H638 H 0.02527 0.39073 0.73921 0.0
H639 H 0.15099 0.42072 0.76266 0.0
C640 C 0.25673 0.52435 0.64229 0.0
N641 N 0.23134 0.48466 0.65636 0.0
C642 C 0.30045 0.54309 0.64476 0.0
C643 C 0.29178 0.47935 0.67517 0.0
C644 C 0.24778 0.46165 0.6721 0.0
C645 C 0.31841 0.52113 0.66256 0.0
H646 H 0.24302 0.54261 0.63136 0.0
H647 H 0.22704 0.43088 0.68461 0.0
C648 C 0.04943 0.47538 0.6847 0.0
N649 N -0.00519 0.504 0.70539 0.0
C650 C 0.02647 0.48251 0.65589 0.0
C651 C 0.04406 0.48209 0.72407 0.0
C652 C -0.00084 0.49717 0.66693 0.0
C653 C 0.01646 0.49677 0.73393 0.0
C654 C 0.17016 0.51526 0.58613 0.0
C655 C 0.16816 0.54976 0.57078 0.0
C656 C 0.18573 0.49446 0.56299 0.0
C657 C 0.18091 0.56228 0.53214 0.0
C658 C 0.19821 0.50796 0.52451 0.0
N659 N 0.19551 0.54126 0.50998 0.0
C660 C 0.18746 0.59365 0.6913 0.0
C661 C 0.12473 0.58471 0.66154 0.0
C662 C 0.2062 0.63736 0.68883 0.0
N663 N 0.14776 0.56827 0.67726 0.0
C664 C 0.14244 0.62871 0.65847 0.0
C665 C 0.18423 0.65533 0.67105 0.0
H666 H 0.20573 0.57994 0.70221 0.0
H667 H 0.09395 0.56397 0.64906 0.0
C668 C 0.05105 0.38448 0.57548 0.0
N669 N 0.07149 0.42631 0.58488 0.0
C670 C 0.02583 0.3702 0.54179 0.0
C671 C 0.04407 0.44244 0.52819 0.0
C672 C 0.06816 0.45507 0.56224 0.0
C673 C 0.0219 0.39941 0.51774 0.0
H674 H 0.05382 0.36219 0.5944 0.0
H675 H 0.08379 0.4879 0.57098 0.0
O676 O 0.16577 0.49483 0.70966 0.0
O677 O 0.1239 0.41305 0.65918 0.0
O678 O 0.07614 0.46082 0.67444 0.0
O679 O 0.15791 0.50269 0.62396 0.0
H680 H 0.22956 0.49351 0.7452 0.0
H681 H 0.1316 0.52555 0.75882 0.0
H682 H 0.2518 0.5162 0.81384 0.0
H683 H 0.15516 0.5472 0.82736 0.0
H684 H 0.16534 0.34905 0.56934 0.0
H685 H 0.1401 0.36679 0.70831 0.0
H686 H 0.1388 0.39767 0.58682 0.0
H687 H 0.1662 0.31835 0.68872 0.0
H688 H 0.12942 0.37976 0.82327 0.0
H689 H -0.00026 0.34582 0.79838 0.0
H690 H 0.32004 0.57533 0.63453 0.0
H691 H 0.30468 0.46173 0.68943 0.0
H692 H 0.02987 0.47702 0.62532 0.0
H693 H 0.06075 0.47571 0.74681 0.0
H694 H 0.98142 0.50311 0.64492 0.0
H695 H 0.01213 0.50225 0.76429 0.0
H696 H 0.15658 0.56647 0.58844 0.0
H697 H 0.1886 0.46852 0.57477 0.0
H698 H 0.17925 0.58872 0.51979 0.0
H699 H 0.21023 0.49208 0.50623 0.0
H700 H 0.23845 0.65696 0.69903 0.0
H701 H 0.12481 0.6416 0.64423 0.0
H702 H 0.00892 0.33667 0.53523 0.0
H703 H 0.04283 0.46635 0.51036 0.0
Li704 Li 0.54774 0.7176 0.66083 0.0
Li705 Li 0.57784 0.6849 0.70315 0.0
Li706 Li 0.57119 0.67161 0.63048 0.0
Li707 Li 0.50839 0.6389 0.6728 0.0
C708 C 0.63328 0.76729 0.64894 0.0
N709 N 0.6879 0.85052 0.62825 0.0
C710 C 0.65624 0.79737 0.67775 0.0
C711 C 0.63864 0.77937 0.60957 0.0
C712 C 0.68355 0.83935 0.66672 0.0
C713 C 0.66624 0.82164 0.59971 0.0
C714 C 0.51253 0.68643 0.7475 0.0
C715 C 0.48445 0.65107 0.80911 0.0
N716 N 0.48715 0.68708 0.82363 0.0
C717 C 0.51453 0.72293 0.76285 0.0
C718 C 0.49694 0.65006 0.77062 0.0
C719 C 0.50176 0.72269 0.80148 0.0
C720 C 0.49523 0.74751 0.64236 0.0
N721 N 0.53495 0.76185 0.65638 0.0
C722 C 0.54028 0.82762 0.67514 0.0
C723 C 0.55798 0.80132 0.67208 0.0
C724 C 0.49847 0.81243 0.66259 0.0
C725 C 0.47649 0.77249 0.64483 0.0
H726 H 0.47696 0.71552 0.63146 0.0
H727 H 0.58877 0.81138 0.68454 0.0
C728 C 0.63165 0.67476 0.75814 0.0
N729 N 0.6112 0.69614 0.74874 0.0
C730 C 0.65686 0.6857 0.79183 0.0
C731 C 0.63862 0.7397 0.80544 0.0
C732 C 0.61453 0.72824 0.77139 0.0
C733 C 0.6608 0.71883 0.81588 0.0
H734 H 0.62887 0.6497 0.73922 0.0
H735 H 0.5989 0.74544 0.76266 0.0
C736 C 0.50435 0.67009 0.58614 0.0
N737 N 0.47834 0.66947 0.51001 0.0
C738 C 0.46986 0.6336 0.57078 0.0
C739 C 0.52515 0.70647 0.56302 0.0
C740 C 0.45733 0.63385 0.53215 0.0
C741 C 0.51164 0.70547 0.52454 0.0
C742 C 0.54424 0.58922 0.68468 0.0
C743 C 0.53711 0.55914 0.65587 0.0
C744 C 0.53751 0.57714 0.72405 0.0
C745 C 0.52244 0.51716 0.66689 0.0
C746 C 0.52283 0.53485 0.7339 0.0
N747 N 0.51561 0.50598 0.70536 0.0
C748 C 0.63515 0.68175 0.57549 0.0
C749 C 0.56455 0.62828 0.56223 0.0
C750 C 0.64943 0.67081 0.5418 0.0
N751 N 0.59332 0.66037 0.58488 0.0
C752 C 0.57718 0.61682 0.52818 0.0
C753 C 0.62022 0.63768 0.51774 0.0
H754 H 0.65744 0.7068 0.59442 0.0
H755 H 0.53172 0.61109 0.57096 0.0
C756 C 0.42597 0.60898 0.69129 0.0
N757 N 0.45135 0.59466 0.67725 0.0
C758 C 0.38225 0.58401 0.68882 0.0
C759 C 0.39091 0.52889 0.65847 0.0
C760 C 0.43491 0.55519 0.66154 0.0
C761 C 0.36429 0.54407 0.67104 0.0
H762 H 0.43968 0.64096 0.7022 0.0
H763 H 0.45565 0.54515 0.64906 0.0
O764 O 0.60657 0.72602 0.65919 0.0
O765 O 0.52479 0.68611 0.70967 0.0
O766 O 0.51693 0.6704 0.62396 0.0
O767 O 0.5588 0.63049 0.67443 0.0
H768 H 0.65284 0.78849 0.70832 0.0
H769 H 0.62195 0.7563 0.58683 0.0
H770 H 0.7013 0.86303 0.68873 0.0
H771 H 0.67058 0.83146 0.56935 0.0
H772 H 0.47242 0.62316 0.82737 0.0
H773 H 0.52612 0.75122 0.74519 0.0
H774 H 0.49407 0.62123 0.75884 0.0
H775 H 0.50343 0.7508 0.81384 0.0
H776 H 0.55791 0.85815 0.68937 0.0
H777 H 0.44424 0.75982 0.63464 0.0
H778 H 0.67378 0.66908 0.79839 0.0
H779 H 0.63987 0.76485 0.82328 0.0
H780 H 0.45314 0.60529 0.58843 0.0
H781 H 0.5511 0.73529 0.5748 0.0
H782 H 0.43088 0.60574 0.51979 0.0
H783 H 0.52752 0.73338 0.50628 0.0
H784 H 0.54261 0.56803 0.6253 0.0
H785 H 0.54388 0.6002 0.74679 0.0
H786 H 0.51651 0.49348 0.64488 0.0
H787 H 0.51734 0.52503 0.76426 0.0
H788 H 0.68297 0.68743 0.53524 0.0
H789 H 0.55328 0.59169 0.51034 0.0
H790 H 0.36266 0.59666 0.69902 0.0
H791 H 0.37801 0.49837 0.64423 0.0
loop_
_geom_bond_atom_site_label_1
_geom_bond_atom_site_label_2
_geom_bond_distance
_geom_bond_site_symmetry_2
_ccdc_geom_bond_type
Li0 N17 1.990 1_455 S
Li0 O60 1.956 . S
Li0 O61 1.970 1_454 S
Li0 O62 1.961 . S
Li1 N25 1.990 . S
Li1 O60 1.970 1_656 S
Li1 O61 1.956 . S
Li1 O63 1.961 1_655 S
Li2 N47 1.990 . S
Li2 O60 1.961 . S
Li2 O62 1.956 . S
Li2 O63 1.970 1_554 S
Li3 N53 1.990 . S
Li3 O61 1.961 1_455 S
Li3 O62 1.970 1_556 S
Li3 O63 1.956 . S
C4 C6 1.348 . S
C4 C7 1.356 1_655 S
C4 O60 1.325 1_655 S
N5 C8 1.314 . S
N5 C9 1.279 1_655 S
C6 C4 1.348 . S
C6 C8 1.353 . S
C6 H64 0.929 . S
C7 C4 1.356 1_455 S
C7 C9 1.358 . S
C7 H65 0.930 . S
C8 N5 1.314 . S
C8 C6 1.353 . S
C8 H66 0.930 . S
C9 N5 1.279 1_455 S
C9 C7 1.358 . S
C9 H67 0.930 . S
C10 C13 1.348 1_556 S
C10 C14 1.356 . S
C10 O61 1.325 . S
C11 N12 1.279 . S
C11 C14 1.358 . S
C11 H68 0.930 . S
N12 C11 1.279 . S
N12 C15 1.314 1_556 S
C13 C10 1.348 1_554 S
C13 C15 1.353 . S
C13 H69 0.929 . S
C14 C10 1.356 . S
C14 C11 1.358 . S
C14 H70 0.930 . S
C15 N12 1.314 1_554 S
C15 C13 1.353 . S
C15 H71 0.930 . S
C16 N17 1.314 1_455 S
C16 C21 1.363 . S
C16 H22 0.930 . S
N17 Li0 1.990 1_655 S
N17 C16 1.314 1_655 S
N17 C19 1.279 . S
C18 C19 1.358 . S
C18 C20 1.356 . S
C18 H72 0.930 . S
C19 N17 1.279 . S
C19 C18 1.358 . S
C19 H23 0.930 . S
C20 C18 1.356 . S
C20 C21 1.342 1_655 S
C21 C16 1.363 . S
C21 C20 1.342 1_455 S
C21 H73 0.925 . S
H22 C16 0.930 . S
H23 C19 0.930 . S
C24 N25 1.314 . S
C24 C26 1.353 . S
C24 H30 0.930 . S
N25 Li1 1.990 . S
N25 C24 1.314 . S
N25 C28 1.279 . S
C26 C24 1.353 . S
C26 C29 1.348 . S
C26 H74 0.929 . S
C27 C28 1.358 . S
C27 C29 1.356 . S
C27 H75 0.930 . S
C28 N25 1.279 . S
C28 C27 1.358 . S
C28 H31 0.930 . S
C29 C26 1.348 . S
C29 C27 1.356 . S
H30 C24 0.930 . S
H31 C28 0.930 . S
C32 C34 1.348 1_554 S
C32 C35 1.356 . S
C32 O62 1.325 . S
N33 C36 1.328 . S
N33 C37 1.279 . S
C34 C32 1.348 1_556 S
C34 C36 1.350 1_556 S
C34 H76 0.929 . S
C35 C32 1.356 . S
C35 C37 1.358 . S
C35 H77 0.930 . S
C36 N33 1.328 . S
C36 C34 1.350 1_554 S
C36 H78 0.918 1_554 S
C37 N33 1.279 . S
C37 C35 1.358 . S
C37 H79 0.930 . S
C38 C39 1.348 . S
C38 C40 1.356 . S
C38 O63 1.325 . S
C39 C38 1.348 . S
C39 C41 1.353 . S
C39 H80 0.929 . S
C40 C38 1.356 . S
C40 C42 1.358 . S
C40 H81 0.930 1_455 S
C41 C39 1.353 . S
C41 N43 1.314 . S
C41 H82 0.930 . S
C42 C40 1.358 . S
C42 N43 1.279 . S
C42 H83 0.930 1_455 S
N43 C41 1.314 . S
N43 C42 1.279 . S
C44 C46 1.353 . S
C44 N47 1.314 . S
C44 H50 0.930 . S
C45 N47 1.279 . S
C45 C48 1.358 . S
C45 H51 0.930 . S
C46 C44 1.353 . S
C46 C49 1.348 . S
C46 H84 0.929 . S
N47 Li2 1.990 . S
N47 C44 1.314 . S
N47 C45 1.279 . S
C48 C45 1.358 . S
C48 C49 1.356 . S
C48 H85 0.930 . S
C49 C46 1.348 . S
C49 C48 1.356 . S
H50 C44 0.930 . S
H51 C45 0.930 . S
C52 N53 1.314 . S
C52 C54 1.353 . S
C52 H58 0.930 . S
N53 Li3 1.990 . S
N53 C52 1.314 . S
N53 C56 1.279 . S
C54 C52 1.353 . S
C54 C57 1.348 . S
C54 H86 0.929 . S
C55 C56 1.358 . S
C55 C57 1.356 . S
C55 H87 0.930 . S
C56 N53 1.279 . S
C56 C55 1.358 . S
C56 H59 0.930 . S
C57 C54 1.348 . S
C57 C55 1.356 . S
H58 C52 0.930 . S
H59 C56 0.930 . S
O60 Li0 1.956 . S
O60 Li1 1.970 1_454 S
O60 Li2 1.961 . S
O60 C4 1.325 1_455 S
O61 Li0 1.970 1_656 S
O61 Li1 1.956 . S
O61 Li3 1.961 1_655 S
O61 C10 1.325 . S
O62 Li0 1.961 . S
O62 Li2 1.956 . S
O62 Li3 1.970 1_554 S
O62 C32 1.325 . S
O63 Li1 1.961 1_455 S
O63 Li2 1.970 1_556 S
O63 Li3 1.956 . S
O63 C38 1.325 . S
H64 C6 0.929 . S
H65 C7 0.930 . S
H66 C8 0.930 . S
H67 C9 0.930 . S
H68 C11 0.930 . S
H69 C13 0.929 . S
H70 C14 0.930 . S
H71 C15 0.930 . S
H72 C18 0.930 . S
H73 C21 0.925 . S
H74 C26 0.929 . S
H75 C27 0.930 . S
H76 C34 0.929 . S
H77 C35 0.930 . S
H78 C36 0.918 1_556 S
H79 C37 0.930 . S
H80 C39 0.929 . S
H81 C40 0.930 1_655 S
H82 C41 0.930 . S
H83 C42 0.930 1_655 S
H84 C46 0.929 . S
H85 C48 0.930 . S
H86 C54 0.929 . S
H87 C55 0.930 . S
Li88 N105 1.990 . S
Li88 O148 1.956 . S
Li88 O149 1.970 1_556 S
Li88 O150 1.961 . S
Li89 N113 1.990 . S
Li89 O148 1.970 1_554 S
Li89 O149 1.956 . S
Li89 O151 1.961 . S
Li90 N135 1.990 . S
Li90 O148 1.961 . S
Li90 O150 1.956 . S
Li90 O151 1.970 1_556 S
Li91 N141 1.990 . S
Li91 O149 1.961 . S
Li91 O150 1.970 1_554 S
Li91 O151 1.956 . S
C92 C94 1.348 1_556 S
C92 C95 1.356 . S
C92 O148 1.325 . S
N93 C96 1.314 1_556 S
N93 C97 1.279 . S
C94 C92 1.348 1_554 S
C94 C96 1.353 . S
C94 H152 0.929 . S
C95 C92 1.356 . S
C95 C97 1.358 . S
C95 H153 0.930 . S
C96 N93 1.314 1_554 S
C96 C94 1.353 . S
C96 H154 0.930 . S
C97 N93 1.279 . S
C97 C95 1.358 . S
C97 H155 0.930 . S
C98 C101 1.348 . S
C98 C102 1.356 . S
C98 O149 1.325 . S
C99 N100 1.279 . S
C99 C102 1.358 . S
C99 H156 0.930 . S
N100 C99 1.279 . S
N100 C103 1.314 . S
C101 C98 1.348 . S
C101 C103 1.353 . S
C101 H157 0.929 . S
C102 C98 1.356 . S
C102 C99 1.358 . S
C102 H158 0.930 . S
C103 N100 1.314 . S
C103 C101 1.353 . S
C103 H159 0.930 . S
C104 N105 1.314 . S
C104 C109 1.353 . S
C104 H110 0.930 . S
N105 Li88 1.990 . S
N105 C104 1.314 . S
N105 C107 1.279 . S
C106 C107 1.358 . S
C106 C108 1.356 . S
C106 H160 0.930 . S
C107 N105 1.279 . S
C107 C106 1.358 . S
C107 H111 0.930 . S
C108 C106 1.356 . S
C108 C109 1.348 . S
C109 C104 1.353 . S
C109 C108 1.348 . S
C109 H161 0.929 1_655 S
H110 C104 0.930 . S
H111 C107 0.930 . S
C112 N113 1.314 . S
C112 C114 1.353 . S
C112 H118 0.930 . S
N113 Li89 1.990 . S
N113 C112 1.314 . S
N113 C116 1.279 . S
C114 C112 1.353 . S
C114 C117 1.348 . S
C114 H162 0.929 . S
C115 C116 1.358 . S
C115 C117 1.356 . S
C115 H163 0.930 . S
C116 N113 1.279 . S
C116 C115 1.358 . S
C116 H119 0.930 . S
C117 C114 1.348 . S
C117 C115 1.356 . S
H118 C112 0.930 . S
H119 C116 0.930 . S
C120 C122 1.348 . S
C120 C123 1.356 . S
C120 O150 1.325 . S
N121 C124 1.314 . S
N121 C125 1.279 . S
C122 C120 1.348 . S
C122 C124 1.353 . S
C122 H164 0.929 . S
C123 C120 1.356 . S
C123 C125 1.358 . S
C123 H165 0.930 . S
C124 N121 1.314 . S
C124 C122 1.353 . S
C124 H166 0.930 . S
C125 N121 1.279 . S
C125 C123 1.358 . S
C125 H167 0.930 . S
C126 C127 1.348 1_554 S
C126 C128 1.356 . S
C126 O151 1.325 . S
C127 C126 1.348 1_556 S
C127 C129 1.349 1_556 S
C127 H168 0.929 . S
C128 C126 1.356 . S
C128 C130 1.358 . S
C128 H169 0.930 . S
C129 C127 1.349 1_554 S
C129 N131 1.328 . S
C129 H170 0.918 1_554 S
C130 C128 1.358 . S
C130 N131 1.279 . S
C130 H171 0.930 . S
N131 C129 1.328 . S
N131 C130 1.279 . S
C132 C134 1.353 . S
C132 N135 1.314 . S
C132 H138 0.930 . S
C133 N135 1.279 . S
C133 C136 1.358 . S
C133 H139 0.930 . S
C134 C132 1.353 . S
C134 C137 1.348 . S
C134 H172 0.929 . S
N135 Li90 1.990 . S
N135 C132 1.314 . S
N135 C133 1.279 . S
C136 C133 1.358 . S
C136 C137 1.356 . S
C136 H173 0.930 . S
C137 C134 1.348 . S
C137 C136 1.356 . S
H138 C132 0.930 . S
H139 C133 0.930 . S
C140 N141 1.314 . S
C140 C142 1.353 . S
C140 H146 0.930 . S
N141 Li91 1.990 . S
N141 C140 1.314 . S
N141 C144 1.279 . S
C142 C140 1.353 . S
C142 C145 1.348 . S
C142 H174 0.929 1_565 S
C143 C144 1.358 . S
C143 C145 1.356 . S
C143 H175 0.930 . S
C144 N141 1.279 . S
C144 C143 1.358 . S
C144 H147 0.930 . S
C145 C142 1.348 . S
C145 C143 1.356 . S
H146 C140 0.930 . S
H147 C144 0.930 . S
O148 Li88 1.956 . S
O148 Li89 1.970 1_556 S
O148 Li90 1.961 . S
O148 C92 1.325 . S
O149 Li88 1.970 1_554 S
O149 Li89 1.956 . S
O149 Li91 1.961 . S
O149 C98 1.325 . S
O150 Li88 1.961 . S
O150 Li90 1.956 . S
O150 Li91 1.970 1_556 S
O150 C120 1.325 . S
O151 Li89 1.961 . S
O151 Li90 1.970 1_554 S
O151 Li91 1.956 . S
O151 C126 1.325 . S
H152 C94 0.929 . S
H153 C95 0.930 . S
H154 C96 0.930 . S
H155 C97 0.930 . S
H156 C99 0.930 . S
H157 C101 0.929 . S
H158 C102 0.930 . S
H159 C103 0.930 . S
H160 C106 0.930 . S
H161 C109 0.929 1_455 S
H162 C114 0.929 . S
H163 C115 0.930 . S
H164 C122 0.929 . S
H165 C123 0.930 . S
H166 C124 0.930 . S
H167 C125 0.930 . S
H168 C127 0.929 . S
H169 C128 0.930 . S
H170 C129 0.918 1_556 S
H171 C130 0.930 . S
H172 C134 0.929 . S
H173 C136 0.930 . S
H174 C142 0.929 1_545 S
H175 C143 0.930 . S
Li176 N193 1.990 . S
Li176 O236 1.956 . S
Li176 O237 1.970 1_556 S
Li176 O238 1.961 . S
Li177 N201 1.990 . S
Li177 O236 1.970 1_554 S
Li177 O237 1.956 . S
Li177 O239 1.961 1_545 S
Li178 N223 1.987 1_545 S
Li178 O236 1.961 . S
Li178 O238 1.956 . S
Li178 O239 1.970 1_546 S
Li179 N229 1.990 . S
Li179 O237 1.961 1_565 S
Li179 O238 1.970 1_564 S
Li179 O239 1.956 . S
C180 C182 1.348 1_556 S
C180 C183 1.356 . S
C180 O236 1.325 . S
N181 C184 1.314 1_556 S
N181 C185 1.279 . S
C182 C180 1.348 1_554 S
C182 C184 1.353 . S
C182 H240 0.929 . S
C183 C180 1.356 . S
C183 C185 1.358 . S
C183 H241 0.930 . S
C184 N181 1.314 1_554 S
C184 C182 1.353 . S
C184 H242 0.930 . S
C185 N181 1.279 . S
C185 C183 1.358 . S
C185 H243 0.930 . S
C186 C189 1.348 . S
C186 C190 1.356 . S
C186 O237 1.325 . S
C187 N188 1.279 . S
C187 C190 1.358 . S
C187 H244 0.930 1_545 S
N188 C187 1.279 . S
N188 C191 1.314 . S
C189 C186 1.348 . S
C189 C191 1.353 . S
C189 H245 0.929 . S
C190 C186 1.356 . S
C190 C187 1.358 . S
C190 H246 0.930 1_545 S
C191 N188 1.314 . S
C191 C189 1.353 . S
C191 H247 0.930 . S
C192 N193 1.314 . S
C192 C197 1.353 . S
C192 H198 0.930 . S
N193 Li176 1.990 . S
N193 C192 1.314 . S
N193 C195 1.279 . S
C194 C195 1.358 . S
C194 C196 1.356 . S
C194 H248 0.930 . S
C195 N193 1.279 . S
C195 C194 1.358 . S
C195 H199 0.930 . S
C196 C194 1.356 . S
C196 C197 1.348 . S
C197 C192 1.353 . S
C197 C196 1.348 . S
C197 H249 0.929 . S
H198 C192 0.930 . S
H199 C195 0.930 . S
C200 N201 1.314 . S
C200 C202 1.353 . S
C200 H206 0.930 . S
N201 Li177 1.990 . S
N201 C200 1.314 . S
N201 C204 1.279 . S
C202 C200 1.353 . S
C202 C205 1.348 . S
C202 H250 0.929 . S
C203 C204 1.358 . S
C203 C205 1.356 . S
C203 H251 0.930 . S
C204 N201 1.279 . S
C204 C203 1.358 . S
C204 H207 0.930 . S
C205 C202 1.348 . S
C205 C203 1.356 . S
H206 C200 0.930 . S
H207 C204 0.930 . S
C208 C210 1.347 . S
C208 C211 1.356 1_565 S
C208 O238 1.325 1_565 S
N209 C212 1.314 . S
N209 C213 1.279 1_565 S
C210 C208 1.347 . S
C210 C212 1.353 . S
C210 H252 0.929 . S
C211 C208 1.356 1_545 S
C211 C213 1.358 . S
C211 H253 0.930 . S
C212 N209 1.314 . S
C212 C210 1.353 . S
C212 H254 0.930 . S
C213 N209 1.279 1_545 S
C213 C211 1.358 . S
C213 H255 0.930 . S
C214 C215 1.348 1_554 S
C214 C216 1.356 . S
C214 O239 1.325 . S
C215 C214 1.348 1_556 S
C215 C217 1.349 1_556 S
C215 H256 0.929 . S
C216 C214 1.356 . S
C216 C218 1.358 . S
C216 H257 0.930 . S
C217 C215 1.349 1_554 S
C217 N219 1.328 . S
C217 H258 0.918 1_554 S
C218 C216 1.358 . S
C218 N219 1.279 . S
C218 H259 0.930 . S
N219 C217 1.328 . S
N219 C218 1.279 . S
C220 C222 1.353 . S
C220 N223 1.317 1_545 S
C220 H226 0.930 . S
C221 N223 1.281 . S
C221 C224 1.358 . S
C221 H227 0.930 . S
C222 C220 1.353 . S
C222 C225 1.348 1_545 S
C222 H260 0.929 . S
N223 Li178 1.987 1_565 S
N223 C220 1.317 1_565 S
N223 C221 1.281 . S
C224 C221 1.358 . S
C224 C225 1.356 . S
C224 H261 0.930 . S
C225 C222 1.348 1_565 S
C225 C224 1.356 . S
H226 C220 0.930 . S
H227 C221 0.930 . S
C228 N229 1.314 . S
C228 C230 1.353 . S
C228 H234 0.930 . S
N229 Li179 1.990 . S
N229 C228 1.314 . S
N229 C232 1.279 . S
C230 C228 1.353 . S
C230 C233 1.348 . S
C230 H262 0.929 . S
C231 C232 1.358 . S
C231 C233 1.356 . S
C231 H263 0.930 . S
C232 N229 1.279 . S
C232 C231 1.358 . S
C232 H235 0.930 . S
C233 C230 1.348 . S
C233 C231 1.356 . S
H234 C228 0.930 . S
H235 C232 0.930 . S
O236 Li176 1.956 . S
O236 Li177 1.970 1_556 S
O236 Li178 1.961 . S
O236 C180 1.325 . S
O237 Li176 1.970 1_554 S
O237 Li177 1.956 . S
O237 Li179 1.961 1_545 S
O237 C186 1.325 . S
O238 Li176 1.961 . S
O238 Li178 1.956 . S
O238 Li179 1.970 1_546 S
O238 C208 1.325 1_545 S
O239 Li177 1.961 1_565 S
O239 Li178 1.970 1_564 S
O239 Li179 1.956 . S
O239 C214 1.325 . S
H240 C182 0.929 . S
H241 C183 0.930 . S
H242 C184 0.930 . S
H243 C185 0.930 . S
H244 C187 0.930 1_565 S
H245 C189 0.929 . S
H246 C190 0.930 1_565 S
H247 C191 0.930 . S
H248 C194 0.930 . S
H249 C197 0.929 . S
H250 C202 0.929 . S
H251 C203 0.930 . S
H252 C210 0.929 . S
H253 C211 0.930 . S
H254 C212 0.930 . S
H255 C213 0.930 . S
H256 C215 0.929 . S
H257 C216 0.930 . S
H258 C217 0.918 1_556 S
H259 C218 0.930 . S
H260 C222 0.929 . S
H261 C224 0.930 . S
H262 C230 0.929 . S
H263 C231 0.930 . S
Li264 N281 1.990 . S
Li264 O324 1.956 . S
Li264 O325 1.970 . S
Li264 O326 1.961 . S
Li265 N289 1.990 . S
Li265 O324 1.970 . S
Li265 O325 1.956 . S
Li265 O327 1.961 . S
Li266 N311 1.990 . S
Li266 O324 1.961 . S
Li266 O326 1.956 . S
Li266 O327 1.970 . S
Li267 N317 1.990 . S
Li267 O325 1.961 . S
Li267 O326 1.970 . S
Li267 O327 1.956 . S
C268 C270 1.348 . S
C268 C271 1.356 . S
C268 O324 1.325 . S
N269 C272 1.314 . S
N269 C273 1.279 . S
C270 C268 1.348 . S
C270 C272 1.353 . S
C270 H328 0.929 . S
C271 C268 1.356 . S
C271 C273 1.358 . S
C271 H329 0.930 . S
C272 N269 1.314 . S
C272 C270 1.353 . S
C272 H330 0.930 . S
C273 N269 1.279 . S
C273 C271 1.358 . S
C273 H331 0.930 . S
C274 C277 1.348 . S
C274 C278 1.356 . S
C274 O325 1.325 . S
C275 N276 1.279 . S
C275 C278 1.358 . S
C275 H332 0.930 . S
N276 C275 1.279 . S
N276 C279 1.314 . S
C277 C274 1.348 . S
C277 C279 1.353 . S
C277 H333 0.929 . S
C278 C274 1.356 . S
C278 C275 1.358 . S
C278 H334 0.930 . S
C279 N276 1.314 . S
C279 C277 1.353 . S
C279 H335 0.930 . S
C280 N281 1.314 . S
C280 C285 1.353 . S
C280 H286 0.930 . S
N281 Li264 1.990 . S
N281 C280 1.314 . S
N281 C283 1.279 . S
C282 C283 1.358 . S
C282 C284 1.356 . S
C282 H336 0.930 . S
C283 N281 1.279 . S
C283 C282 1.358 . S
C283 H287 0.930 . S
C284 C282 1.356 . S
C284 C285 1.348 . S
C285 C280 1.353 . S
C285 C284 1.348 . S
C285 H337 0.929 . S
H286 C280 0.930 . S
H287 C283 0.930 . S
C288 N289 1.314 . S
C288 C290 1.353 . S
C288 H294 0.930 . S
N289 Li265 1.990 . S
N289 C288 1.314 . S
N289 C292 1.279 . S
C290 C288 1.353 . S
C290 C293 1.348 . S
C290 H338 0.929 . S
C291 C292 1.358 . S
C291 C293 1.356 . S
C291 H339 0.930 . S
C292 N289 1.279 . S
C292 C291 1.358 . S
C292 H295 0.930 . S
C293 C290 1.348 . S
C293 C291 1.356 . S
H294 C288 0.930 . S
H295 C292 0.930 . S
C296 C298 1.348 . S
C296 C299 1.356 . S
C296 O326 1.325 . S
N297 C300 1.314 . S
N297 C301 1.279 . S
C298 C296 1.348 . S
C298 C300 1.353 . S
C298 H340 0.929 . S
C299 C296 1.356 . S
C299 C301 1.358 . S
C299 H341 0.930 . S
C300 N297 1.314 . S
C300 C298 1.353 . S
C300 H342 0.930 . S
C301 N297 1.279 . S
C301 C299 1.358 . S
C301 H343 0.930 . S
C302 C303 1.348 . S
C302 C304 1.356 . S
C302 O327 1.325 . S
C303 C302 1.348 . S
C303 C305 1.353 . S
C303 H344 0.929 . S
C304 C302 1.356 . S
C304 C306 1.358 . S
C304 H345 0.930 . S
C305 C303 1.353 . S
C305 N307 1.314 . S
C305 H346 0.930 . S
C306 C304 1.358 . S
C306 N307 1.279 . S
C306 H347 0.930 . S
N307 C305 1.314 . S
N307 C306 1.279 . S
C308 C310 1.353 . S
C308 N311 1.314 . S
C308 H314 0.930 . S
C309 N311 1.279 . S
C309 C312 1.358 . S
C309 H315 0.930 . S
C310 C308 1.353 . S
C310 C313 1.348 . S
C310 H348 0.929 . S
N311 Li266 1.990 . S
N311 C308 1.314 . S
N311 C309 1.279 . S
C312 C309 1.358 . S
C312 C313 1.356 . S
C312 H349 0.930 . S
C313 C310 1.348 . S
C313 C312 1.356 . S
H314 C308 0.930 . S
H315 C309 0.930 . S
C316 N317 1.314 . S
C316 C318 1.353 . S
C316 H322 0.930 . S
N317 Li267 1.990 . S
N317 C316 1.314 . S
N317 C320 1.279 . S
C318 C316 1.353 . S
C318 C321 1.348 . S
C318 H350 0.929 . S
C319 C320 1.358 . S
C319 C321 1.356 . S
C319 H351 0.930 . S
C320 N317 1.279 . S
C320 C319 1.358 . S
C320 H323 0.930 . S
C321 C318 1.348 . S
C321 C319 1.356 . S
H322 C316 0.930 . S
H323 C320 0.930 . S
O324 Li264 1.956 . S
O324 Li265 1.970 . S
O324 Li266 1.961 . S
O324 C268 1.325 . S
O325 Li264 1.970 . S
O325 Li265 1.956 . S
O325 Li267 1.961 . S
O325 C274 1.325 . S
O326 Li264 1.961 . S
O326 Li266 1.956 . S
O326 Li267 1.970 . S
O326 C296 1.325 . S
O327 Li265 1.961 . S
O327 Li266 1.970 . S
O327 Li267 1.956 . S
O327 C302 1.325 . S
H328 C270 0.929 . S
H329 C271 0.930 . S
H330 C272 0.930 . S
H331 C273 0.930 . S
H332 C275 0.930 . S
H333 C277 0.929 . S
H334 C278 0.930 . S
H335 C279 0.930 . S
H336 C282 0.930 . S
H337 C285 0.929 . S
H338 C290 0.929 . S
H339 C291 0.930 . S
H340 C298 0.929 . S
H341 C299 0.930 . S
H342 C300 0.930 . S
H343 C301 0.930 . S
H344 C303 0.929 . S
H345 C304 0.930 . S
H346 C305 0.930 . S
H347 C306 0.930 . S
H348 C310 0.929 . S
H349 C312 0.930 . S
H350 C318 0.929 . S
H351 C319 0.930 . S
Li352 N369 1.990 . S
Li352 O412 1.956 . S
Li352 O413 1.970 . S
Li352 O414 1.961 . S
Li353 N377 1.990 . S
Li353 O412 1.970 . S
Li353 O413 1.956 . S
Li353 O415 1.961 . S
Li354 N399 1.990 . S
Li354 O412 1.961 . S
Li354 O414 1.956 . S
Li354 O415 1.970 . S
Li355 N405 1.990 . S
Li355 O413 1.961 . S
Li355 O414 1.970 . S
Li355 O415 1.956 . S
C356 C358 1.348 . S
C356 C359 1.356 . S
C356 O412 1.325 . S
N357 C360 1.314 . S
N357 C361 1.279 1_565 S
C358 C356 1.348 . S
C358 C360 1.353 1_545 S
C358 H416 0.929 . S
C359 C356 1.356 . S
C359 C361 1.358 . S
C359 H417 0.930 . S
C360 N357 1.314 . S
C360 C358 1.353 1_565 S
C360 H418 0.930 . S
C361 N357 1.279 1_545 S
C361 C359 1.358 . S
C361 H419 0.929 1_545 S
C362 C365 1.348 . S
C362 C366 1.356 . S
C362 O413 1.325 . S
C363 N364 1.279 . S
C363 C366 1.358 . S
C363 H420 0.930 . S
N364 C363 1.279 . S
N364 C367 1.314 . S
C365 C362 1.348 . S
C365 C367 1.353 . S
C365 H421 0.929 . S
C366 C362 1.356 . S
C366 C363 1.358 . S
C366 H422 0.930 . S
C367 N364 1.314 . S
C367 C365 1.353 . S
C367 H423 0.930 . S
C368 N369 1.314 . S
C368 C373 1.353 . S
C368 H374 0.930 . S
N369 Li352 1.990 . S
N369 C368 1.314 . S
N369 C371 1.279 . S
C370 C371 1.358 . S
C370 C372 1.356 . S
C370 H424 0.930 . S
C371 N369 1.279 . S
C371 C370 1.358 . S
C371 H375 0.930 . S
C372 C370 1.356 . S
C372 C373 1.348 . S
C373 C368 1.353 . S
C373 C372 1.348 . S
C373 H425 0.929 . S
H374 C368 0.930 . S
H375 C371 0.930 . S
C376 N377 1.314 . S
C376 C378 1.353 . S
C376 H382 0.930 . S
N377 Li353 1.990 . S
N377 C376 1.314 . S
N377 C380 1.279 . S
C378 C376 1.353 . S
C378 C381 1.348 . S
C378 H426 0.929 . S
C379 C380 1.358 . S
C379 C381 1.356 . S
C379 H427 0.930 . S
C380 N377 1.279 . S
C380 C379 1.358 . S
C380 H383 0.930 . S
C381 C378 1.348 . S
C381 C379 1.356 . S
H382 C376 0.930 . S
H383 C380 0.930 . S
C384 C386 1.348 . S
C384 C387 1.356 . S
C384 O414 1.325 . S
N385 C388 1.314 . S
N385 C389 1.279 . S
C386 C384 1.348 . S
C386 C388 1.353 . S
C386 H428 0.929 . S
C387 C384 1.356 . S
C387 C389 1.358 . S
C387 H429 0.930 . S
C388 N385 1.314 . S
C388 C386 1.353 . S
C388 H430 0.930 . S
C389 N385 1.279 . S
C389 C387 1.358 . S
C389 H431 0.930 . S
C390 C391 1.348 . S
C390 C392 1.356 . S
C390 O415 1.325 . S
C391 C390 1.348 . S
C391 C393 1.353 . S
C391 H432 0.929 . S
C392 C390 1.356 . S
C392 C394 1.358 . S
C392 H433 0.930 . S
C393 C391 1.353 . S
C393 N395 1.314 . S
C393 H434 0.930 . S
C394 C392 1.358 . S
C394 N395 1.279 . S
C394 H435 0.930 . S
N395 C393 1.314 . S
N395 C394 1.279 . S
C396 C398 1.353 . S
C396 N399 1.314 . S
C396 H402 0.930 . S
C397 N399 1.279 . S
C397 C400 1.358 . S
C397 H403 0.930 . S
C398 C396 1.353 . S
C398 C401 1.348 . S
C398 H436 0.929 . S
N399 Li354 1.990 . S
N399 C396 1.314 . S
N399 C397 1.279 . S
C400 C397 1.358 . S
C400 C401 1.356 . S
C400 H437 0.930 . S
C401 C398 1.348 . S
C401 C400 1.356 . S
H402 C396 0.930 . S
H403 C397 0.930 . S
C404 N405 1.314 . S
C404 C406 1.353 . S
C404 H410 0.930 . S
N405 Li355 1.990 . S
N405 C404 1.314 . S
N405 C408 1.279 . S
C406 C404 1.353 . S
C406 C409 1.348 . S
C406 H438 0.929 . S
C407 C408 1.358 . S
C407 C409 1.356 . S
C407 H439 0.930 . S
C408 N405 1.279 . S
C408 C407 1.358 . S
C408 H411 0.930 . S
C409 C406 1.348 . S
C409 C407 1.356 . S
H410 C404 0.930 . S
H411 C408 0.930 . S
O412 Li352 1.956 . S
O412 Li353 1.970 . S
O412 Li354 1.961 . S
O412 C356 1.325 . S
O413 Li352 1.970 . S
O413 Li353 1.956 . S
O413 Li355 1.961 . S
O413 C362 1.325 . S
O414 Li352 1.961 . S
O414 Li354 1.956 . S
O414 Li355 1.970 . S
O414 C384 1.325 . S
O415 Li353 1.961 . S
O415 Li354 1.970 . S
O415 Li355 1.956 . S
O415 C390 1.325 . S
H416 C358 0.929 . S
H417 C359 0.930 . S
H418 C360 0.930 . S
H419 C361 0.929 1_565 S
H420 C363 0.930 . S
H421 C365 0.929 . S
H422 C366 0.930 . S
H423 C367 0.930 . S
H424 C370 0.930 . S
H425 C373 0.929 . S
H426 C378 0.929 . S
H427 C379 0.930 . S
H428 C386 0.929 . S
H429 C387 0.930 . S
H430 C388 0.930 . S
H431 C389 0.930 . S
H432 C391 0.929 . S
H433 C392 0.930 . S
H434 C393 0.930 . S
H435 C394 0.930 . S
H436 C398 0.929 . S
H437 C400 0.930 . S
H438 C406 0.929 . S
H439 C407 0.930 . S
Li440 N457 1.990 . S
Li440 O500 1.956 . S
Li440 O501 1.970 . S
Li440 O502 1.961 . S
Li441 N465 1.990 . S
Li441 O500 1.970 . S
Li441 O501 1.956 . S
Li441 O503 1.961 . S
Li442 N487 1.990 . S
Li442 O500 1.961 . S
Li442 O502 1.956 . S
Li442 O503 1.970 . S
Li443 N493 1.990 . S
Li443 O501 1.961 . S
Li443 O502 1.970 . S
Li443 O503 1.956 . S
C444 C446 1.348 . S
C444 C447 1.356 . S
C444 O500 1.325 . S
N445 C448 1.314 . S
N445 C449 1.279 . S
C446 C444 1.348 . S
C446 C448 1.353 . S
C446 H504 0.929 . S
C447 C444 1.356 . S
C447 C449 1.358 . S
C447 H505 0.930 . S
C448 N445 1.314 . S
C448 C446 1.353 . S
C448 H506 0.930 . S
C449 N445 1.279 . S
C449 C447 1.358 . S
C449 H507 0.930 . S
C450 C453 1.343 1_655 S
C450 C454 1.356 . S
C450 O501 1.325 . S
C451 N452 1.279 . S
C451 C454 1.358 1_455 S
C451 H508 0.930 . S
N452 C451 1.279 . S
N452 C455 1.314 . S
C453 C450 1.343 1_455 S
C453 C455 1.358 . S
C453 H509 0.928 1_455 S
C454 C450 1.356 . S
C454 C451 1.358 1_655 S
C454 H510 0.930 . S
C455 N452 1.314 . S
C455 C453 1.358 . S
C455 H511 0.930 . S
C456 N457 1.314 . S
C456 C461 1.353 1_655 S
C456 H462 0.930 . S
N457 Li440 1.990 . S
N457 C456 1.314 . S
N457 C459 1.279 . S
C458 C459 1.358 . S
C458 C460 1.356 1_655 S
C458 H512 0.930 . S
C459 N457 1.279 . S
C459 C458 1.358 . S
C459 H463 0.930 . S
C460 C458 1.356 1_455 S
C460 C461 1.348 . S
C461 C456 1.353 1_455 S
C461 C460 1.348 . S
C461 H513 0.929 . S
H462 C456 0.930 . S
H463 C459 0.930 . S
C464 N465 1.314 . S
C464 C466 1.353 . S
C464 H470 0.930 . S
N465 Li441 1.990 . S
N465 C464 1.314 . S
N465 C468 1.279 . S
C466 C464 1.353 . S
C466 C469 1.348 . S
C466 H514 0.929 . S
C467 C468 1.358 . S
C467 C469 1.356 . S
C467 H515 0.930 . S
C468 N465 1.279 . S
C468 C467 1.358 . S
C468 H471 0.930 . S
C469 C466 1.348 . S
C469 C467 1.356 . S
H470 C464 0.930 . S
H471 C468 0.930 . S
C472 C474 1.348 . S
C472 C475 1.356 . S
C472 O502 1.325 . S
N473 C476 1.314 . S
N473 C477 1.279 . S
C474 C472 1.348 . S
C474 C476 1.353 . S
C474 H516 0.929 . S
C475 C472 1.356 . S
C475 C477 1.358 . S
C475 H517 0.930 . S
C476 N473 1.314 . S
C476 C474 1.353 . S
C476 H518 0.930 . S
C477 N473 1.279 . S
C477 C475 1.358 . S
C477 H519 0.930 . S
C478 C479 1.348 . S
C478 C480 1.356 . S
C478 O503 1.325 . S
C479 C478 1.348 . S
C479 C481 1.353 . S
C479 H520 0.929 . S
C480 C478 1.356 . S
C480 C482 1.358 . S
C480 H521 0.930 . S
C481 C479 1.353 . S
C481 N483 1.314 . S
C481 H522 0.930 . S
C482 C480 1.358 . S
C482 N483 1.279 . S
C482 H523 0.930 . S
N483 C481 1.314 . S
N483 C482 1.279 . S
C484 C486 1.353 . S
C484 N487 1.314 . S
C484 H490 0.930 . S
C485 N487 1.279 . S
C485 C488 1.358 . S
C485 H491 0.930 . S
C486 C484 1.353 . S
C486 C489 1.348 . S
C486 H524 0.929 . S
N487 Li442 1.990 . S
N487 C484 1.314 . S
N487 C485 1.279 . S
C488 C485 1.358 . S
C488 C489 1.356 . S
C488 H525 0.930 . S
C489 C486 1.348 . S
C489 C488 1.356 . S
H490 C484 0.930 . S
H491 C485 0.930 . S
C492 N493 1.314 . S
C492 C494 1.353 . S
C492 H498 0.930 . S
N493 Li443 1.990 . S
N493 C492 1.314 . S
N493 C496 1.279 . S
C494 C492 1.353 . S
C494 C497 1.348 . S
C494 H526 0.929 1_655 S
C495 C496 1.358 . S
C495 C497 1.356 . S
C495 H527 0.930 . S
C496 N493 1.279 . S
C496 C495 1.358 . S
C496 H499 0.930 . S
C497 C494 1.348 . S
C497 C495 1.356 . S
H498 C492 0.930 . S
H499 C496 0.930 . S
O500 Li440 1.956 . S
O500 Li441 1.970 . S
O500 Li442 1.961 . S
O500 C444 1.325 . S
O501 Li440 1.970 . S
O501 Li441 1.956 . S
O501 Li443 1.961 . S
O501 C450 1.325 . S
O502 Li440 1.961 . S
O502 Li442 1.956 . S
O502 Li443 1.970 . S
O502 C472 1.325 . S
O503 Li441 1.961 . S
O503 Li442 1.970 . S
O503 Li443 1.956 . S
O503 C478 1.325 . S
H504 C446 0.929 . S
H505 C447 0.930 . S
H506 C448 0.930 . S
H507 C449 0.930 . S
H508 C451 0.930 . S
H509 C453 0.928 1_655 S
H510 C454 0.930 . S
H511 C455 0.930 . S
H512 C458 0.930 . S
H513 C461 0.929 . S
H514 C466 0.929 . S
H515 C467 0.930 . S
H516 C474 0.929 . S
H517 C475 0.930 . S
H518 C476 0.930 . S
H519 C477 0.930 . S
H520 C479 0.929 . S
H521 C480 0.930 . S
H522 C481 0.930 . S
H523 C482 0.930 . S
H524 C486 0.929 . S
H525 C488 0.930 . S
H526 C494 0.929 1_455 S
H527 C495 0.930 . S
Li528 N545 1.990 . S
Li528 O588 1.956 . S
Li528 O589 1.970 . S
Li528 O590 1.961 . S
Li529 N553 1.990 . S
Li529 O588 1.970 . S
Li529 O589 1.956 . S
Li529 O591 1.961 . S
Li530 N575 1.990 . S
Li530 O588 1.961 . S
Li530 O590 1.956 . S
Li530 O591 1.970 . S
Li531 N581 1.990 . S
Li531 O589 1.961 . S
Li531 O590 1.970 . S
Li531 O591 1.956 . S
C532 C534 1.348 . S
C532 C535 1.356 . S
C532 O588 1.325 . S
N533 C536 1.314 . S
N533 C537 1.279 . S
C534 C532 1.348 . S
C534 C536 1.353 . S
C534 H592 0.929 . S
C535 C532 1.356 . S
C535 C537 1.358 . S
C535 H593 0.930 . S
C536 N533 1.314 . S
C536 C534 1.353 . S
C536 H594 0.930 . S
C537 N533 1.279 . S
C537 C535 1.358 . S
C537 H595 0.930 . S
C538 C541 1.348 . S
C538 C542 1.356 . S
C538 O589 1.325 . S
C539 N540 1.279 . S
C539 C542 1.358 . S
C539 H596 0.930 . S
N540 C539 1.279 . S
N540 C543 1.314 . S
C541 C538 1.348 . S
C541 C543 1.353 . S
C541 H597 0.929 . S
C542 C538 1.356 . S
C542 C539 1.358 . S
C542 H598 0.930 . S
C543 N540 1.314 . S
C543 C541 1.353 . S
C543 H599 0.930 . S
C544 N545 1.314 . S
C544 C549 1.353 . S
C544 H550 0.930 . S
N545 Li528 1.990 . S
N545 C544 1.314 . S
N545 C547 1.279 . S
C546 C547 1.358 . S
C546 C548 1.356 . S
C546 H600 0.930 . S
C547 N545 1.279 . S
C547 C546 1.358 . S
C547 H551 0.930 . S
C548 C546 1.356 . S
C548 C549 1.348 . S
C549 C544 1.353 . S
C549 C548 1.348 . S
C549 H601 0.929 1_565 S
H550 C544 0.930 . S
H551 C547 0.930 . S
C552 N553 1.314 . S
C552 C554 1.353 . S
C552 H558 0.930 . S
N553 Li529 1.990 . S
N553 C552 1.314 . S
N553 C556 1.279 . S
C554 C552 1.353 . S
C554 C557 1.348 . S
C554 H602 0.929 . S
C555 C556 1.358 . S
C555 C557 1.356 . S
C555 H603 0.930 . S
C556 N553 1.279 . S
C556 C555 1.358 . S
C556 H559 0.930 . S
C557 C554 1.348 . S
C557 C555 1.356 . S
H558 C552 0.930 . S
H559 C556 0.930 . S
C560 C562 1.348 1_565 S
C560 C563 1.356 . S
C560 O590 1.325 . S
N561 C564 1.314 . S
N561 C565 1.279 . S
C562 C560 1.348 1_545 S
C562 C564 1.353 . S
C562 H604 0.929 1_545 S
C563 C560 1.356 . S
C563 C565 1.358 1_565 S
C563 H605 0.930 . S
C564 N561 1.314 . S
C564 C562 1.353 . S
C564 H606 0.930 . S
C565 N561 1.279 . S
C565 C563 1.358 1_545 S
C565 H607 0.930 . S
C566 C567 1.348 . S
C566 C568 1.356 . S
C566 O591 1.325 . S
C567 C566 1.348 . S
C567 C569 1.353 . S
C567 H608 0.929 . S
C568 C566 1.356 . S
C568 C570 1.358 . S
C568 H609 0.930 . S
C569 C567 1.353 . S
C569 N571 1.314 . S
C569 H610 0.930 . S
C570 C568 1.358 . S
C570 N571 1.279 . S
C570 H611 0.930 . S
N571 C569 1.314 . S
N571 C570 1.279 . S
C572 C574 1.353 . S
C572 N575 1.314 . S
C572 H578 0.930 . S
C573 N575 1.279 . S
C573 C576 1.358 . S
C573 H579 0.930 . S
C574 C572 1.353 . S
C574 C577 1.348 . S
C574 H612 0.929 . S
N575 Li530 1.990 . S
N575 C572 1.314 . S
N575 C573 1.279 . S
C576 C573 1.358 . S
C576 C577 1.356 . S
C576 H613 0.930 . S
C577 C574 1.348 . S
C577 C576 1.356 . S
H578 C572 0.930 . S
H579 C573 0.930 . S
C580 N581 1.314 . S
C580 C582 1.353 1_565 S
C580 H586 0.930 . S
N581 Li531 1.990 . S
N581 C580 1.314 . S
N581 C584 1.279 . S
C582 C580 1.353 1_545 S
C582 C585 1.348 . S
C582 H614 0.929 . S
C583 C584 1.358 . S
C583 C585 1.356 1_565 S
C583 H615 0.930 . S
C584 N581 1.279 . S
C584 C583 1.358 . S
C584 H587 0.930 . S
C585 C582 1.348 . S
C585 C583 1.356 1_545 S
H586 C580 0.930 . S
H587 C584 0.930 . S
O588 Li528 1.956 . S
O588 Li529 1.970 . S
O588 Li530 1.961 . S
O588 C532 1.325 . S
O589 Li528 1.970 . S
O589 Li529 1.956 . S
O589 Li531 1.961 . S
O589 C538 1.325 . S
O590 Li528 1.961 . S
O590 Li530 1.956 . S
O590 Li531 1.970 . S
O590 C560 1.325 . S
O591 Li529 1.961 . S
O591 Li530 1.970 . S
O591 Li531 1.956 . S
O591 C566 1.325 . S
H592 C534 0.929 . S
H593 C535 0.930 . S
H594 C536 0.930 . S
H595 C537 0.930 . S
H596 C539 0.930 . S
H597 C541 0.929 . S
H598 C542 0.930 . S
H599 C543 0.930 . S
H600 C546 0.930 . S
H601 C549 0.929 1_545 S
H602 C554 0.929 . S
H603 C555 0.930 . S
H604 C562 0.929 1_565 S
H605 C563 0.930 . S
H606 C564 0.930 . S
H607 C565 0.930 . S
H608 C567 0.929 . S
H609 C568 0.930 . S
H610 C569 0.930 . S
H611 C570 0.930 . S
H612 C574 0.929 . S
H613 C576 0.930 . S
H614 C582 0.929 . S
H615 C583 0.930 . S
Li616 N633 1.990 . S
Li616 O676 1.956 . S
Li616 O677 1.970 . S
Li616 O678 1.961 . S
Li617 N641 1.990 . S
Li617 O676 1.970 . S
Li617 O677 1.956 . S
Li617 O679 1.961 . S
Li618 N663 1.990 . S
Li618 O676 1.961 . S
Li618 O678 1.956 . S
Li618 O679 1.970 . S
Li619 N669 1.990 . S
Li619 O677 1.961 . S
Li619 O678 1.970 . S
Li619 O679 1.956 . S
C620 C622 1.348 . S
C620 C623 1.356 . S
C620 O676 1.325 . S
N621 C624 1.314 . S
N621 C625 1.279 . S
C622 C620 1.348 . S
C622 C624 1.353 . S
C622 H680 0.929 . S
C623 C620 1.356 . S
C623 C625 1.358 . S
C623 H681 0.930 . S
C624 N621 1.314 . S
C624 C622 1.353 . S
C624 H682 0.930 . S
C625 N621 1.279 . S
C625 C623 1.358 . S
C625 H683 0.930 . S
C626 C629 1.348 . S
C626 C630 1.356 . S
C626 O677 1.325 . S
C627 N628 1.279 . S
C627 C630 1.358 . S
C627 H684 0.930 . S
N628 C627 1.279 . S
N628 C631 1.314 . S
C629 C626 1.348 . S
C629 C631 1.353 . S
C629 H685 0.929 . S
C630 C626 1.356 . S
C630 C627 1.358 . S
C630 H686 0.930 . S
C631 N628 1.314 . S
C631 C629 1.353 . S
C631 H687 0.930 . S
C632 N633 1.314 . S
C632 C637 1.353 . S
C632 H638 0.930 . S
N633 Li616 1.990 . S
N633 C632 1.314 . S
N633 C635 1.279 . S
C634 C635 1.358 . S
C634 C636 1.356 . S
C634 H688 0.930 . S
C635 N633 1.279 . S
C635 C634 1.358 . S
C635 H639 0.930 . S
C636 C634 1.356 . S
C636 C637 1.348 . S
C637 C632 1.353 . S
C637 C636 1.348 . S
C637 H689 0.929 . S
H638 C632 0.930 . S
H639 C635 0.930 . S
C640 N641 1.314 . S
C640 C642 1.353 . S
C640 H646 0.930 . S
N641 Li617 1.990 . S
N641 C640 1.314 . S
N641 C644 1.279 . S
C642 C640 1.353 . S
C642 C645 1.348 . S
C642 H690 0.929 . S
C643 C644 1.358 . S
C643 C645 1.356 . S
C643 H691 0.930 . S
C644 N641 1.279 . S
C644 C643 1.358 . S
C644 H647 0.930 . S
C645 C642 1.348 . S
C645 C643 1.356 . S
H646 C640 0.930 . S
H647 C644 0.930 . S
C648 C650 1.348 . S
C648 C651 1.356 . S
C648 O678 1.325 . S
N649 C652 1.314 . S
N649 C653 1.279 1_655 S
C650 C648 1.348 . S
C650 C652 1.353 1_455 S
C650 H692 0.929 . S
C651 C648 1.356 . S
C651 C653 1.358 . S
C651 H693 0.930 . S
C652 N649 1.314 . S
C652 C650 1.353 1_655 S
C652 H694 0.930 . S
C653 N649 1.279 1_455 S
C653 C651 1.358 . S
C653 H695 0.930 1_455 S
C654 C655 1.348 . S
C654 C656 1.356 . S
C654 O679 1.325 . S
C655 C654 1.348 . S
C655 C657 1.353 . S
C655 H696 0.929 . S
C656 C654 1.356 . S
C656 C658 1.358 . S
C656 H697 0.930 . S
C657 C655 1.353 . S
C657 N659 1.314 . S
C657 H698 0.930 . S
C658 C656 1.358 . S
C658 N659 1.279 . S
C658 H699 0.930 . S
N659 C657 1.314 . S
N659 C658 1.279 . S
C660 C662 1.353 . S
C660 N663 1.314 . S
C660 H666 0.930 . S
C661 N663 1.279 . S
C661 C664 1.358 . S
C661 H667 0.930 . S
C662 C660 1.353 . S
C662 C665 1.348 . S
C662 H700 0.929 . S
N663 Li618 1.990 . S
N663 C660 1.314 . S
N663 C661 1.279 . S
C664 C661 1.358 . S
C664 C665 1.356 . S
C664 H701 0.930 . S
C665 C662 1.348 . S
C665 C664 1.356 . S
H666 C660 0.930 . S
H667 C661 0.930 . S
C668 N669 1.314 . S
C668 C670 1.353 . S
C668 H674 0.930 . S
N669 Li619 1.990 . S
N669 C668 1.314 . S
N669 C672 1.279 . S
C670 C668 1.353 . S
C670 C673 1.348 . S
C670 H702 0.929 . S
C671 C672 1.358 . S
C671 C673 1.356 . S
C671 H703 0.930 . S
C672 N669 1.279 . S
C672 C671 1.358 . S
C672 H675 0.930 . S
C673 C670 1.348 . S
C673 C671 1.356 . S
H674 C668 0.930 . S
H675 C672 0.930 . S
O676 Li616 1.956 . S
O676 Li617 1.970 . S
O676 Li618 1.961 . S
O676 C620 1.325 . S
O677 Li616 1.970 . S
O677 Li617 1.956 . S
O677 Li619 1.961 . S
O677 C626 1.325 . S
O678 Li616 1.961 . S
O678 Li618 1.956 . S
O678 Li619 1.970 . S
O678 C648 1.325 . S
O679 Li617 1.961 . S
O679 Li618 1.970 . S
O679 Li619 1.956 . S
O679 C654 1.325 . S
H680 C622 0.929 . S
H681 C623 0.930 . S
H682 C624 0.930 . S
H683 C625 0.930 . S
H684 C627 0.930 . S
H685 C629 0.929 . S
H686 C630 0.930 . S
H687 C631 0.930 . S
H688 C634 0.930 . S
H689 C637 0.929 . S
H690 C642 0.929 . S
H691 C643 0.930 . S
H692 C650 0.929 . S
H693 C651 0.930 . S
H694 C652 0.930 . S
H695 C653 0.930 1_655 S
H696 C655 0.929 . S
H697 C656 0.930 . S
H698 C657 0.930 . S
H699 C658 0.930 . S
H700 C662 0.929 . S
H701 C664 0.930 . S
H702 C670 0.929 . S
H703 C671 0.930 . S
Li704 N721 1.990 . S
Li704 O764 1.956 . S
Li704 O765 1.970 . S
Li704 O766 1.961 . S
Li705 N729 1.990 . S
Li705 O764 1.970 . S
Li705 O765 1.956 . S
Li705 O767 1.961 . S
Li706 N751 1.990 . S
Li706 O764 1.961 . S
Li706 O766 1.956 . S
Li706 O767 1.970 . S
Li707 N757 1.990 . S
Li707 O765 1.961 . S
Li707 O766 1.970 . S
Li707 O767 1.956 . S
C708 C710 1.348 . S
C708 C711 1.356 . S
C708 O764 1.325 . S
N709 C712 1.314 . S
N709 C713 1.279 . S
C710 C708 1.348 . S
C710 C712 1.353 . S
C710 H768 0.929 . S
C711 C708 1.356 . S
C711 C713 1.358 . S
C711 H769 0.930 . S
C712 N709 1.314 . S
C712 C710 1.353 . S
C712 H770 0.930 . S
C713 N709 1.279 . S
C713 C711 1.358 . S
C713 H771 0.930 . S
C714 C717 1.348 . S
C714 C718 1.356 . S
C714 O765 1.325 . S
C715 N716 1.279 . S
C715 C718 1.358 . S
C715 H772 0.930 . S
N716 C715 1.279 . S
N716 C719 1.314 . S
C717 C714 1.348 . S
C717 C719 1.353 . S
C717 H773 0.929 . S
C718 C714 1.356 . S
C718 C715 1.358 . S
C718 H774 0.930 . S
C719 N716 1.314 . S
C719 C717 1.353 . S
C719 H775 0.930 . S
C720 N721 1.314 . S
C720 C725 1.353 . S
C720 H726 0.930 . S
N721 Li704 1.990 . S
N721 C720 1.314 . S
N721 C723 1.279 . S
C722 C723 1.358 . S
C722 C724 1.356 . S
C722 H776 0.930 . S
C723 N721 1.279 . S
C723 C722 1.358 . S
C723 H727 0.930 . S
C724 C722 1.356 . S
C724 C725 1.348 . S
C725 C720 1.353 . S
C725 C724 1.348 . S
C725 H777 0.929 . S
H726 C720 0.930 . S
H727 C723 0.930 . S
C728 N729 1.314 . S
C728 C730 1.353 . S
C728 H734 0.930 . S
N729 Li705 1.990 . S
N729 C728 1.314 . S
N729 C732 1.279 . S
C730 C728 1.353 . S
C730 C733 1.348 . S
C730 H778 0.929 . S
C731 C732 1.358 . S
C731 C733 1.356 . S
C731 H779 0.930 . S
C732 N729 1.279 . S
C732 C731 1.358 . S
C732 H735 0.930 . S
C733 C730 1.348 . S
C733 C731 1.356 . S
H734 C728 0.930 . S
H735 C732 0.930 . S
C736 C738 1.348 . S
C736 C739 1.356 . S
C736 O766 1.325 . S
N737 C740 1.314 . S
N737 C741 1.279 . S
C738 C736 1.348 . S
C738 C740 1.353 . S
C738 H780 0.929 . S
C739 C736 1.356 . S
C739 C741 1.358 . S
C739 H781 0.930 . S
C740 N737 1.314 . S
C740 C738 1.353 . S
C740 H782 0.930 . S
C741 N737 1.279 . S
C741 C739 1.358 . S
C741 H783 0.930 . S
C742 C743 1.348 . S
C742 C744 1.356 . S
C742 O767 1.325 . S
C743 C742 1.348 . S
C743 C745 1.353 . S
C743 H784 0.929 . S
C744 C742 1.356 . S
C744 C746 1.358 . S
C744 H785 0.930 . S
C745 C743 1.353 . S
C745 N747 1.314 . S
C745 H786 0.930 . S
C746 C744 1.358 . S
C746 N747 1.279 . S
C746 H787 0.930 . S
N747 C745 1.314 . S
N747 C746 1.279 . S
C748 C750 1.353 . S
C748 N751 1.314 . S
C748 H754 0.930 . S
C749 N751 1.279 . S
C749 C752 1.358 . S
C749 H755 0.930 . S
C750 C748 1.353 . S
C750 C753 1.348 . S
C750 H788 0.929 . S
N751 Li706 1.990 . S
N751 C748 1.314 . S
N751 C749 1.279 . S
C752 C749 1.358 . S
C752 C753 1.356 . S
C752 H789 0.930 . S
C753 C750 1.348 . S
C753 C752 1.356 . S
H754 C748 0.930 . S
H755 C749 0.930 . S
C756 N757 1.314 . S
C756 C758 1.353 . S
C756 H762 0.930 . S
N757 Li707 1.990 . S
N757 C756 1.314 . S
N757 C760 1.279 . S
C758 C756 1.353 . S
C758 C761 1.348 . S
C758 H790 0.929 . S
C759 C760 1.358 . S
C759 C761 1.356 . S
C759 H791 0.930 . S
C760 N757 1.279 . S
C760 C759 1.358 . S
C760 H763 0.930 . S
C761 C758 1.348 . S
C761 C759 1.356 . S
H762 C756 0.930 . S
H763 C760 0.930 . S
O764 Li704 1.956 . S
O764 Li705 1.970 . S
O764 Li706 1.961 . S
O764 C708 1.325 . S
O765 Li704 1.970 . S
O765 Li705 1.956 . S
O765 Li707 1.961 . S
O765 C714 1.325 . S
O766 Li704 1.961 . S
O766 Li706 1.956 . S
O766 Li707 1.970 . S
O766 C736 1.325 . S
O767 Li705 1.961 . S
O767 Li706 1.970 . S
O767 Li707 1.956 . S
O767 C742 1.325 . S
H768 C710 0.929 . S
H769 C711 0.930 . S
H770 C712 0.930 . S
H771 C713 0.930 . S
H772 C715 0.930 . S
H773 C717 0.929 . S
H774 C718 0.930 . S
H775 C719 0.930 . S
H776 C722 0.930 . S
H777 C725 0.929 . S
H778 C730 0.929 . S
H779 C731 0.930 . S
H780 C738 0.929 . S
H781 C739 0.930 . S
H782 C740 0.930 . S
H783 C741 0.930 . S
H784 C743 0.929 . S
H785 C744 0.930 . S
H786 C745 0.930 . S
H787 C746 0.930 . S
H788 C750 0.929 . S
H789 C752 0.930 . S
H790 C758 0.929 . S
H791 C759 0.930 . S
C196 C49 2.379 1_556 S
C145 C29 2.380 1_564 S
C108 C233 2.379 1_656 S
C469 C321 2.379 . S
C409 C284 2.379 . S
C372 C489 2.379 . S
C577 C724 2.379 . S
C557 C665 2.379 . S
C645 C761 2.379 . S
C57 C636 1.180 . S
C137 C733 1.180 . S
C548 C225 1.180 . S
C401 C205 1.180 . S
C20 C497 1.180 . S
C313 C117 1.180 . S
C673 C460 1.180 . S
C293 C753 1.180 . S
C585 C381 1.180 . S
