# Generated by pormake.
# Topology uku, (4)-cn, num edge types: 1
# Building blocks:
#     Node 0, Type 0, BuildingBlock: ESEHIV_clean_sbu_0, # of connection points: 4
#     Node 1, Type 0, BuildingBlock: ESEHIV_clean_sbu_0, # of connection points: 4
#     Node 2, Type 0, BuildingBlock: ESEHIV_clean_sbu_0, # of connection points: 4
#     Node 3, Type 0, BuildingBlock: ESEHIV_clean_sbu_0, # of connection points: 4
#     Node 4, Type 0, BuildingBlock: ESEHIV_clean_sbu_0, # of connection points: 4
#     Node 5, Type 0, BuildingBlock: ESEHIV_clean_sbu_0, # of connection points: 4
#     Node 6, Type 0, BuildingBlock: ESEHIV_clean_sbu_0, # of connection points: 4
#     Node 7, Type 0, BuildingBlock: ESEHIV_clean_sbu_0, # of connection points: 4
#     Node 8, Type 0, BuildingBlock: ESEHIV_clean_sbu_0, # of connection points: 4
#     Node 9, Type 0, BuildingBlock: ESEHIV_clean_sbu_0, # of connection points: 4
#     Node 10, Type 0, BuildingBlock: ESEHIV_clean_sbu_0, # of connection points: 4
#     Node 11, Type 0, BuildingBlock: ESEHIV_clean_sbu_0, # of connection points: 4
#     Edge 12, Type (0, 0), BuildingBlock: OJICUG_clean_linker_0, # of connection points: 2
#     Edge 13, Type (0, 0), BuildingBlock: OJICUG_clean_linker_0, # of connection points: 2
#     Edge 14, Type (0, 0), BuildingBlock: OJICUG_clean_linker_0, # of connection points: 2
#     Edge 15, Type (0, 0), BuildingBlock: OJICUG_clean_linker_0, # of connection points: 2
#     Edge 16, Type (0, 0), BuildingBlock: OJICUG_clean_linker_0, # of connection points: 2
#     Edge 17, Type (0, 0), BuildingBlock: OJICUG_clean_linker_0, # of connection points: 2
#     Edge 18, Type (0, 0), BuildingBlock: OJICUG_clean_linker_0, # of connection points: 2
#     Edge 19, Type (0, 0), BuildingBlock: OJICUG_clean_linker_0, # of connection points: 2
#     Edge 20, Type (0, 0), BuildingBlock: OJICUG_clean_linker_0, # of connection points: 2
#     Edge 21, Type (0, 0), BuildingBlock: OJICUG_clean_linker_0, # of connection points: 2
#     Edge 22, Type (0, 0), BuildingBlock: OJICUG_clean_linker_0, # of connection points: 2
#     Edge 23, Type (0, 0), BuildingBlock: OJICUG_clean_linker_0, # of connection points: 2
#     Edge 24, Type (0, 0), BuildingBlock: OJICUG_clean_linker_0, # of connection points: 2
#     Edge 25, Type (0, 0), BuildingBlock: OJICUG_clean_linker_0, # of connection points: 2
#     Edge 26, Type (0, 0), BuildingBlock: OJICUG_clean_linker_0, # of connection points: 2
#     Edge 27, Type (0, 0), BuildingBlock: OJICUG_clean_linker_0, # of connection points: 2
#     Edge 28, Type (0, 0), BuildingBlock: OJICUG_clean_linker_0, # of connection points: 2
#     Edge 29, Type (0, 0), BuildingBlock: OJICUG_clean_linker_0, # of connection points: 2
#     Edge 30, Type (0, 0), BuildingBlock: OJICUG_clean_linker_0, # of connection points: 2
#     Edge 31, Type (0, 0), BuildingBlock: OJICUG_clean_linker_0, # of connection points: 2
#     Edge 32, Type (0, 0), BuildingBlock: OJICUG_clean_linker_0, # of connection points: 2
#     Edge 33, Type (0, 0), BuildingBlock: OJICUG_clean_linker_0, # of connection points: 2
#     Edge 34, Type (0, 0), BuildingBlock: OJICUG_clean_linker_0, # of connection points: 2
#     Edge 35, Type (0, 0), BuildingBlock: OJICUG_clean_linker_0, # of connection points: 2
# Relax obj value: 0.125
# Max RMSD: 0.262
# Mean RMSD: 0.262
data_MOF--net-uku--node1-ESEHIV_clean_sbu_0--edge1-OJICUG_clean_linker_0
_symmetry_space_group_name_H-M    P1
_symmetry_Int_Tables_number       1
_symmetry_cell_setting            triclinic
loop_
_symmetry_equiv_pos_as_xyz
'x, y, z'
_cell_length_a     35.684599
_cell_length_b     35.620939
_cell_length_c     35.726571
_cell_angle_alpha  89.880577
_cell_angle_beta   89.971092
_cell_angle_gamma 90.003695
loop_
_atom_site_label
_atom_site_type_symbol
_atom_site_fract_x
_atom_site_fract_y
_atom_site_fract_z
_atom_type_partial_charge
Cu0 Cu 0.11291 0.13173 0.65946 0.0
N1 N 0.16316 0.11982 0.66698 0.0
N2 N 0.21555 0.10492 0.69797 0.0
C3 C 0.17873 0.11321 0.70064 0.0
C4 C 0.22335 0.10627 0.66097 0.0
C5 C 0.19093 0.11549 0.64191 0.0
O6 O 0.10182 0.17462 0.6909 0.0
C7 C 0.04882 0.08627 0.67479 0.0
O8 O 0.02944 0.11737 0.67069 0.0
H9 H 0.16309 0.11405 0.72655 0.0
H10 H 0.18783 0.11892 0.61198 0.0
N11 N 0.10344 0.14583 0.61 0.0
N12 N 0.07184 0.15548 0.55688 0.0
C13 C 0.07534 0.13387 0.58776 0.0
C14 C 0.11833 0.17574 0.59238 0.0
C15 C 0.09878 0.18187 0.55966 0.0
C16 C 0.09525 0.17247 0.7258 0.0
O17 O 0.09272 0.13928 0.7417 0.0
H18 H 0.0561 0.11162 0.59534 0.0
H19 H 0.1403 0.19325 0.60375 0.0
O20 O 0.08427 0.08733 0.67192 0.0
H21 H 0.25062 0.10164 0.64854 0.0
H22 H 0.10295 0.20485 0.54021 0.0
Cu23 Cu 0.91239 0.89413 0.66569 0.0
N24 N 0.86196 0.90601 0.67142 0.0
N25 N 0.80858 0.91979 0.70119 0.0
C26 C 0.84532 0.91147 0.70474 0.0
C27 C 0.80198 0.91965 0.66392 0.0
C28 C 0.83502 0.91112 0.64561 0.0
O29 O 0.92275 0.85645 0.70384 0.0
C30 C 0.97502 0.94178 0.67942 0.0
O31 O 0.99451 0.91054 0.68128 0.0
H32 H 0.86022 0.90964 0.73105 0.0
H33 H 0.83908 0.90861 0.61572 0.0
N34 N 0.92234 0.87559 0.61775 0.0
N35 N 0.95257 0.86313 0.5644 0.0
C36 C 0.95091 0.8853 0.59497 0.0
C37 C 0.90513 0.84664 0.60078 0.0
C38 C 0.92386 0.83873 0.56796 0.0
C39 C 0.93947 0.82533 0.69852 0.0
O40 O 0.95515 0.81855 0.66596 0.0
H41 H 0.97118 0.90691 0.60155 0.0
H42 H 0.88155 0.83141 0.6123 0.0
O43 O 0.93996 0.94013 0.67357 0.0
H44 H 0.77511 0.9246 0.65078 0.0
H45 H 0.91735 0.81637 0.54855 0.0
Cu46 Cu 0.10628 0.89146 0.34954 0.0
N47 N 0.1566 0.90388 0.34385 0.0
N48 N 0.20982 0.91838 0.31407 0.0
C49 C 0.17319 0.90958 0.31052 0.0
C50 C 0.21639 0.9183 0.35134 0.0
C51 C 0.18344 0.90932 0.36966 0.0
O52 O 0.09662 0.85289 0.3123 0.0
C53 C 0.04323 0.93812 0.33412 0.0
O54 O 0.02383 0.90677 0.33397 0.0
H55 H 0.15833 0.9076 0.28421 0.0
H56 H 0.17939 0.90678 0.39956 0.0
N57 N 0.09616 0.87402 0.39795 0.0
N58 N 0.06584 0.86251 0.45151 0.0
C59 C 0.06723 0.88379 0.42021 0.0
C60 C 0.11387 0.84599 0.41601 0.0
C61 C 0.09509 0.83866 0.44897 0.0
C62 C 0.0812 0.82121 0.31835 0.0
O63 O 0.06651 0.81408 0.35131 0.0
H64 H 0.0466 0.90481 0.41282 0.0
H65 H 0.1379 0.83099 0.4052 0.0
O66 O 0.07831 0.93689 0.33986 0.0
H67 H 0.24317 0.92362 0.36449 0.0
H68 H 0.10198 0.81707 0.46919 0.0
Cu69 Cu 0.90755 0.12942 0.35038 0.0
N70 N 0.85703 0.11815 0.34392 0.0
N71 N 0.80404 0.1042 0.31358 0.0
C72 C 0.84053 0.11375 0.31039 0.0
C73 C 0.79745 0.10249 0.35081 0.0
C74 C 0.83025 0.11107 0.36947 0.0
O75 O 0.91921 0.17083 0.31662 0.0
C76 C 0.96978 0.08276 0.33199 0.0
O77 O 0.98933 0.11403 0.33168 0.0
H78 H 0.85545 0.11679 0.28418 0.0
H79 H 0.83434 0.11181 0.39945 0.0
N80 N 0.91858 0.14291 0.39984 0.0
N81 N 0.95127 0.15231 0.45234 0.0
C82 C 0.95047 0.13528 0.41865 0.0
C83 C 0.89838 0.16505 0.42277 0.0
C84 C 0.91864 0.17116 0.45505 0.0
C85 C 0.90118 0.2014 0.3209 0.0
O86 O 0.87666 0.20377 0.34821 0.0
H87 H 0.97332 0.1189 0.4073 0.0
H88 H 0.8712 0.1767 0.41617 0.0
O89 O 0.9348 0.08412 0.33832 0.0
H90 H 0.77083 0.09588 0.36374 0.0
H91 H 0.91027 0.18842 0.47852 0.0
Cu92 Cu 0.66403 0.11042 0.12615 0.0
N93 N 0.66939 0.16086 0.11386 0.0
N94 N 0.69919 0.21416 0.09941 0.0
C95 C 0.7027 0.17732 0.10759 0.0
C96 C 0.66193 0.22101 0.10044 0.0
C97 C 0.64359 0.188 0.1094 0.0
O98 O 0.70216 0.10072 0.16379 0.0
C99 C 0.67823 0.04745 0.07924 0.0
O100 O 0.67885 0.02791 0.11047 0.0
H101 H 0.72898 0.16224 0.10884 0.0
H102 H 0.61371 0.18412 0.11271 0.0
N103 N 0.61611 0.09997 0.14463 0.0
N104 N 0.56321 0.06885 0.15727 0.0
C105 C 0.59377 0.071 0.13506 0.0
C106 C 0.59888 0.11692 0.17352 0.0
C107 C 0.56631 0.09765 0.18153 0.0
C108 C 0.69713 0.08359 0.19469 0.0
O109 O 0.66489 0.0671 0.20136 0.0
H110 H 0.60068 0.0508 0.11355 0.0
H111 H 0.61007 0.14068 0.18866 0.0
O112 O 0.67276 0.08264 0.08061 0.0
H113 H 0.64885 0.24804 0.09589 0.0
H114 H 0.5468 0.10386 0.20389 0.0
Cu115 Cu 0.35132 0.91167 0.12774 0.0
N116 N 0.34598 0.86108 0.11625 0.0
N117 N 0.31635 0.80764 0.1022 0.0
C118 C 0.3127 0.8444 0.11052 0.0
C119 C 0.35366 0.80105 0.10261 0.0
C120 C 0.3719 0.83415 0.11131 0.0
O121 O 0.31301 0.92201 0.16508 0.0
C122 C 0.33763 0.97399 0.07959 0.0
O123 O 0.33674 0.99396 0.11047 0.0
H124 H 0.28632 0.85931 0.11205 0.0
H125 H 0.40181 0.83827 0.11395 0.0
N126 N 0.39923 0.92228 0.14607 0.0
N127 N 0.4522 0.95344 0.15814 0.0
C128 C 0.42151 0.95123 0.13617 0.0
C129 C 0.41666 0.90537 0.17493 0.0
C130 C 0.44926 0.92468 0.18259 0.0
C131 C 0.31816 0.93856 0.19621 0.0
O132 O 0.35077 0.95404 0.20337 0.0
H133 H 0.4145 0.97136 0.11455 0.0
H134 H 0.40561 0.8816 0.19025 0.0
O135 O 0.34295 0.93881 0.08164 0.0
H136 H 0.36687 0.77417 0.09765 0.0
H137 H 0.46894 0.91849 0.20482 0.0
Cu138 Cu 0.66741 0.91117 0.88782 0.0
N139 N 0.67342 0.86074 0.89992 0.0
N140 N 0.70366 0.80768 0.91434 0.0
C141 C 0.70689 0.8445 0.90592 0.0
C142 C 0.66644 0.80061 0.91372 0.0
C143 C 0.64783 0.83347 0.90478 0.0
O144 O 0.70546 0.92174 0.85024 0.0
C145 C 0.68016 0.97423 0.93493 0.0
O146 O 0.68045 0.99382 0.90373 0.0
H147 H 0.73307 0.85975 0.90441 0.0
H148 H 0.61789 0.83717 0.90186 0.0
N149 N 0.61931 0.92102 0.86948 0.0
N150 N 0.56594 0.95144 0.85711 0.0
C151 C 0.59668 0.94976 0.87908 0.0
C152 C 0.60207 0.9037 0.84082 0.0
C153 C 0.56922 0.92254 0.83298 0.0
C154 C 0.70007 0.9383 0.81909 0.0
O155 O 0.66731 0.9535 0.81199 0.0
H156 H 0.60348 0.97013 0.90045 0.0
H157 H 0.61341 0.87998 0.82573 0.0
O158 O 0.67555 0.93892 0.93348 0.0
H159 H 0.65354 0.77355 0.91861 0.0
H160 H 0.54963 0.91599 0.81081 0.0
Cu161 Cu 0.35363 0.10856 0.8868 0.0
N162 N 0.34895 0.15899 0.89929 0.0
N163 N 0.32013 0.21218 0.91588 0.0
C164 C 0.31644 0.17499 0.90956 0.0
C165 C 0.35674 0.21967 0.90946 0.0
C166 C 0.37446 0.18675 0.89922 0.0
O167 O 0.31557 0.09948 0.8489 0.0
C168 C 0.33934 0.04554 0.93415 0.0
O169 O 0.3394 0.02567 0.9032 0.0
H170 H 0.29057 0.15937 0.91214 0.0
H171 H 0.40362 0.18344 0.89167 0.0
N172 N 0.40154 0.09767 0.86852 0.0
N173 N 0.4544 0.06632 0.85634 0.0
C174 C 0.42386 0.06879 0.87854 0.0
C175 C 0.41878 0.11423 0.83933 0.0
C176 C 0.45131 0.09483 0.83161 0.0
C177 C 0.32067 0.08223 0.81813 0.0
O178 O 0.35276 0.06532 0.81188 0.0
H179 H 0.41697 0.04889 0.90041 0.0
H180 H 0.40762 0.13781 0.8238 0.0
O181 O 0.3444 0.08077 0.93236 0.0
H182 H 0.36968 0.2471 0.91092 0.0
H183 H 0.47081 0.10074 0.80914 0.0
Cu184 Cu 0.12953 0.66646 0.1085 0.0
N185 N 0.11735 0.67204 0.1588 0.0
N186 N 0.10282 0.70206 0.21177 0.0
C187 C 0.1108 0.70544 0.17497 0.0
C188 C 0.1043 0.66479 0.21889 0.0
C189 C 0.11332 0.64632 0.18609 0.0
O190 O 0.1672 0.70463 0.09852 0.0
C191 C 0.0827 0.68032 0.04555 0.0
O192 O 0.11405 0.68075 0.02623 0.0
H193 H 0.11168 0.73169 0.15971 0.0
H194 H 0.11696 0.6164 0.18247 0.0
N195 N 0.14798 0.61843 0.09822 0.0
N196 N 0.1602 0.5654 0.06722 0.0
C197 C 0.13768 0.59573 0.06986 0.0
C198 C 0.17768 0.60161 0.11431 0.0
C199 C 0.18544 0.56899 0.09507 0.0
C200 C 0.19817 0.69962 0.08155 0.0
O201 O 0.20501 0.66728 0.06536 0.0
H202 H 0.11541 0.60226 0.05035 0.0
H203 H 0.19358 0.6132 0.13732 0.0
O204 O 0.08394 0.67511 0.08069 0.0
H205 H 0.10001 0.65179 0.24596 0.0
H206 H 0.20832 0.5498 0.10058 0.0
Cu207 Cu 0.1315 0.34905 0.91756 0.0
N208 N 0.12052 0.33936 0.86765 0.0
N209 N 0.10717 0.30461 0.81735 0.0
C210 C 0.11675 0.30449 0.85388 0.0
C211 C 0.10504 0.34129 0.80775 0.0
C212 C 0.11315 0.36271 0.83896 0.0
O213 O 0.17002 0.31273 0.93081 0.0
C214 C 0.08284 0.33686 0.97984 0.0
O215 O 0.11342 0.3373 1.00032 0.0
H216 H 0.1213 0.2795 0.87055 0.0
H217 H 0.11328 0.39302 0.84073 0.0
N218 N 0.14759 0.39848 0.92497 0.0
N219 N 0.15856 0.4531 0.95359 0.0
C220 C 0.13879 0.42081 0.95411 0.0
C221 C 0.17339 0.41755 0.90508 0.0
C222 C 0.18045 0.45118 0.92286 0.0
C223 C 0.20331 0.32058 0.94099 0.0
O224 O 0.21231 0.35553 0.9483 0.0
H225 H 0.11966 0.41281 0.97624 0.0
H226 H 0.18723 0.40699 0.8803 0.0
O227 O 0.08537 0.34082 0.94461 0.0
H228 H 0.09755 0.35196 0.78038 0.0
H229 H 0.20058 0.47226 0.9143 0.0
Cu230 Cu 0.89198 0.66852 0.90814 0.0
N231 N 0.90439 0.67498 0.85795 0.0
N232 N 0.91898 0.70564 0.80523 0.0
C233 C 0.91006 0.70865 0.84184 0.0
C234 C 0.919 0.66836 0.79818 0.0
C235 C 0.90996 0.6495 0.83082 0.0
O236 O 0.85402 0.70628 0.91848 0.0
C237 C 0.93865 0.68145 0.97144 0.0
O238 O 0.90729 0.68165 0.99072 0.0
H239 H 0.90802 0.73482 0.85701 0.0
H240 H 0.9075 0.61945 0.83447 0.0
N241 N 0.87378 0.62016 0.91763 0.0
N242 N 0.86087 0.56674 0.94795 0.0
C243 C 0.88287 0.59756 0.94658 0.0
C244 C 0.84543 0.6028 0.89987 0.0
C245 C 0.83725 0.56993 0.91864 0.0
C246 C 0.82276 0.70052 0.9347 0.0
O247 O 0.81584 0.66758 0.94976 0.0
H248 H 0.90381 0.60448 0.96736 0.0
H249 H 0.8307 0.61413 0.87592 0.0
O250 O 0.93744 0.67681 0.93624 0.0
H251 H 0.92444 0.65557 0.77127 0.0
H252 H 0.81514 0.5503 0.9118 0.0
Cu253 Cu 0.88585 0.35498 0.10766 0.0
N254 N 0.89492 0.35028 0.15872 0.0
N255 N 0.90374 0.32192 0.21386 0.0
C256 C 0.89939 0.31732 0.17664 0.0
C257 C 0.90198 0.35938 0.21952 0.0
C258 C 0.89667 0.37684 0.18536 0.0
O259 O 0.84862 0.3168 0.09629 0.0
C260 C 0.93576 0.33928 0.04778 0.0
O261 O 0.90531 0.33784 0.02716 0.0
H262 H 0.89805 0.2904 0.1627 0.0
H263 H 0.89363 0.40665 0.18038 0.0
N264 N 0.8683 0.40303 0.09561 0.0
N265 N 0.85732 0.45579 0.06345 0.0
C266 C 0.87883 0.42473 0.06645 0.0
C267 C 0.83952 0.42123 0.11182 0.0
C268 C 0.83253 0.45368 0.0919 0.0
C269 C 0.81746 0.32233 0.07983 0.0
O270 O 0.81027 0.35532 0.06503 0.0
H271 H 0.9006 0.41708 0.0468 0.0
H272 H 0.82382 0.41082 0.13558 0.0
O273 O 0.9329 0.34579 0.08258 0.0
H274 H 0.90404 0.37316 0.2464 0.0
H275 H 0.81055 0.47386 0.09749 0.0
C276 C 1.00099 0.11974 0.48795 0.0
C277 C 0.98185 0.15292 0.47855 0.0
H278 H 0.04448 0.09455 0.52129 0.0
C279 C 0.99302 0.18687 0.49502 0.0
H280 H 0.99272 0.09326 0.47563 0.0
C281 C 0.02302 0.18774 0.52015 0.0
C282 C 0.04179 0.15453 0.53007 0.0
H283 H 0.97882 0.2128 0.48798 0.0
H284 H 0.03114 0.21427 0.53246 0.0
C285 C 0.03035 0.12045 0.514 0.0
C286 C 0.02355 0.82899 0.49486 0.0
C287 C 0.03727 0.86286 0.48001 0.0
H288 H 0.98533 0.80262 0.53306 0.0
C289 C 0.02256 0.89693 0.49328 0.0
H290 H 0.03421 0.80236 0.48489 0.0
C291 C 0.99505 0.89708 0.52131 0.0
C292 C 0.98104 0.86316 0.5358 0.0
H293 H 0.0328 0.92338 0.48234 0.0
H294 H 0.98429 0.92365 0.53133 0.0
C295 C 0.99543 0.82913 0.52214 0.0
C296 C 0.49384 0.99705 0.12377 0.0
C297 C 0.48036 0.98243 0.15778 0.0
H298 H 0.53148 0.03583 0.09703 0.0
C299 C 0.49448 0.99682 0.19153 0.0
H300 H 0.48346 0.98632 0.09741 0.0
C301 C 0.52125 0.0255 0.19132 0.0
C302 C 0.53508 0.03983 0.15734 0.0
H303 H 0.48432 0.98628 0.21811 0.0
H304 H 0.53163 0.03609 0.21773 0.0
C305 C 0.52132 0.02515 0.12356 0.0
C306 C 0.52398 0.99508 0.89088 0.0
C307 C 0.53753 0.98018 0.85708 0.0
H308 H 0.48619 0.03399 0.91706 0.0
C309 C 0.52329 0.99411 0.82313 0.0
H310 H 0.53445 0.98471 0.91739 0.0
C311 C 0.49638 0.02265 0.82294 0.0
C312 C 0.48253 0.03731 0.8567 0.0
H313 H 0.5335 0.98336 0.7967 0.0
H314 H 0.48595 0.03291 0.79637 0.0
C315 C 0.49636 0.02305 0.89069 0.0
C316 C 0.12522 0.49394 0.99845 0.0
C317 C 0.15882 0.48182 0.9819 0.0
H318 H 0.09937 0.53087 0.03837 0.0
C319 C 0.19281 0.49765 0.99384 0.0
H320 H 0.09869 0.48219 0.9896 0.0
C321 C 0.19326 0.5247 0.02218 0.0
C322 C 0.15966 0.53712 0.03848 0.0
H323 H 0.21909 0.48854 0.98173 0.0
H324 H 0.21984 0.53635 0.03101 0.0
C325 C 0.12559 0.52176 0.02613 0.0
C326 C 0.82583 0.52472 0.99041 0.0
C327 C 0.86016 0.53844 0.97682 0.0
H328 H 0.79811 0.48795 0.02913 0.0
C329 C 0.89365 0.52448 0.99217 0.0
H330 H 0.79964 0.53525 0.9793 0.0
C331 C 0.89278 0.49695 0.02025 0.0
C332 C 0.8584 0.48367 0.03419 0.0
H333 H 0.92043 0.53456 0.98206 0.0
H334 H 0.91891 0.48645 0.03156 0.0
C335 C 0.82496 0.49794 0.01908 0.0
C336 C 0.2337 0.1114 0.76455 0.0
C337 C 0.24112 0.09748 0.72847 0.0
H338 H 0.2526 0.11729 0.82102 0.0
C339 C 0.27412 0.07669 0.72269 0.0
H340 H 0.20886 0.1279 0.77006 0.0
C341 C 0.2994 0.07063 0.75208 0.0
C342 C 0.29231 0.08533 0.7879 0.0
H343 H 0.28049 0.06509 0.69546 0.0
H344 H 0.32483 0.05503 0.74648 0.0
C345 C 0.25893 0.10541 0.79386 0.0
C346 C 0.7226 0.95133 0.75362 0.0
C347 C 0.72913 0.93623 0.78944 0.0
H348 H 0.7428 0.95827 0.69757 0.0
C349 C 0.76276 0.91676 0.79595 0.0
H350 H 0.69699 0.9665 0.74762 0.0
C351 C 0.78881 0.91173 0.76719 0.0
C352 C 0.78204 0.92612 0.73111 0.0
H353 H 0.76869 0.90455 0.82311 0.0
H354 H 0.8138 0.89562 0.77315 0.0
C355 C 0.74874 0.94632 0.72479 0.0
C356 C 0.29539 0.9512 0.26161 0.0
C357 C 0.28908 0.9361 0.22582 0.0
H358 H 0.27508 0.95774 0.31764 0.0
C359 C 0.2557 0.91621 0.21932 0.0
H360 H 0.3208 0.96669 0.26761 0.0
C361 C 0.22971 0.91076 0.24808 0.0
C362 C 0.23628 0.92515 0.28414 0.0
H363 H 0.24996 0.90398 0.19219 0.0
H364 H 0.20494 0.89434 0.24214 0.0
C365 C 0.2693 0.94578 0.29044 0.0
C366 C 0.71977 0.07021 0.26 0.0
C367 C 0.72585 0.08637 0.22457 0.0
H368 H 0.73993 0.06287 0.31597 0.0
C369 C 0.7586 0.10752 0.21871 0.0
H370 H 0.69485 0.05375 0.26551 0.0
C371 C 0.78421 0.11309 0.24773 0.0
C372 C 0.77788 0.09756 0.28342 0.0
H373 H 0.76413 0.1206 0.19186 0.0
H374 H 0.8085 0.13042 0.2423 0.0
C375 C 0.74549 0.07574 0.28909 0.0
C376 C 0.7655 0.23343 0.1063 0.0
C377 C 0.7292 0.24057 0.09263 0.0
H378 H 0.82167 0.25318 0.11267 0.0
C379 C 0.72278 0.27411 0.07277 0.0
H380 H 0.77155 0.20825 0.12214 0.0
C381 C 0.75172 0.30015 0.06745 0.0
C382 C 0.78774 0.29327 0.08191 0.0
H383 H 0.69538 0.28032 0.06139 0.0
H384 H 0.74564 0.32599 0.05263 0.0
C385 C 0.79436 0.25937 0.10096 0.0
C386 C 0.26386 0.72215 0.06926 0.0
C387 C 0.22796 0.72856 0.08422 0.0
H388 H 0.32007 0.74234 0.063 0.0
C389 C 0.22146 0.7619 0.10416 0.0
H390 H 0.26985 0.69674 0.05377 0.0
C391 C 0.25029 0.78779 0.10973 0.0
C392 C 0.28644 0.78116 0.09545 0.0
H393 H 0.19424 0.76771 0.11628 0.0
H394 H 0.24434 0.81256 0.12615 0.0
C395 C 0.29278 0.74814 0.07484 0.0
C396 C 0.79911 0.76303 0.9128 0.0
C397 C 0.79277 0.72928 0.93224 0.0
H398 H 0.77591 0.8138 0.89121 0.0
C399 C 0.75683 0.7223 0.94687 0.0
H400 H 0.82636 0.76929 0.90095 0.0
C401 C 0.72771 0.7481 0.94139 0.0
C402 C 0.73386 0.7815 0.92119 0.0
H403 H 0.75096 0.69659 0.962 0.0
H404 H 0.70039 0.74183 0.95296 0.0
C405 C 0.77007 0.78873 0.9073 0.0
C406 C 0.25287 0.22958 0.9177 0.0
C407 C 0.29061 0.23847 0.92502 0.0
H408 H 0.1959 0.24807 0.91744 0.0
C409 C 0.29892 0.27383 0.94042 0.0
H410 H 0.24514 0.20295 0.90548 0.0
C411 C 0.27042 0.30002 0.94709 0.0
C412 C 0.23291 0.29143 0.9386 0.0
H413 H 0.32748 0.28151 0.94705 0.0
H414 H 0.27795 0.32732 0.95807 0.0
C415 C 0.22444 0.25564 0.9245 0.0
C416 C 0.07025 0.75483 0.29707 0.0
C417 C 0.08406 0.79112 0.28982 0.0
H418 H 0.06508 0.69813 0.27787 0.0
C419 C 0.10304 0.79777 0.25597 0.0
H420 H 0.05551 0.7487 0.32287 0.0
C421 C 0.10884 0.76873 0.23041 0.0
C422 C 0.09572 0.73221 0.23787 0.0
H423 H 0.11427 0.82528 0.24951 0.0
H424 H 0.12454 0.77486 0.20523 0.0
C425 C 0.07603 0.72571 0.2714 0.0
C426 C 0.08883 0.20505 0.78762 0.0
C427 C 0.09482 0.20708 0.74882 0.0
H428 H 0.08721 0.23441 0.83963 0.0
C429 C 0.10276 0.24225 0.73261 0.0
H430 H 0.0824 0.17851 0.80101 0.0
C431 C 0.10595 0.27437 0.75489 0.0
C432 C 0.10125 0.27212 0.7939 0.0
H433 H 0.10757 0.24486 0.70278 0.0
H434 H 0.11331 0.30069 0.74162 0.0
C435 C 0.09191 0.23716 0.80985 0.0
C436 C 0.91135 0.77211 0.78614 0.0
C437 C 0.92584 0.73604 0.77922 0.0
H438 H 0.90455 0.82845 0.76653 0.0
C439 C 0.94666 0.7302 0.74628 0.0
H440 H 0.8948 0.77771 0.81086 0.0
C441 C 0.95216 0.75947 0.72061 0.0
C442 C 0.93695 0.79527 0.72725 0.0
H443 H 0.9587 0.703 0.74025 0.0
H444 H 0.96779 0.7538 0.69525 0.0
C445 C 0.91687 0.80132 0.76055 0.0
C446 C 0.89009 0.26845 0.30339 0.0
C447 C 0.90521 0.23315 0.29434 0.0
H448 H 0.87787 0.32432 0.28499 0.0
C449 C 0.92196 0.22823 0.2591 0.0
H450 H 0.8771 0.27325 0.33037 0.0
C451 C 0.92221 0.25761 0.23296 0.0
C452 C 0.90612 0.29261 0.24169 0.0
H453 H 0.93386 0.20139 0.25129 0.0
H454 H 0.9347 0.25285 0.20577 0.0
C455 C 0.89072 0.29787 0.27747 0.0
C456 C 0.05073 0.01635 0.68288 0.0
C457 C 0.02971 0.04959 0.6792 0.0
H458 H 0.05004 0.95632 0.68601 0.0
C459 C 0.99046 0.04713 0.67779 0.0
H460 H 0.08104 0.01723 0.6842 0.0
C461 C 0.9727 0.01215 0.67879 0.0
C462 C 0.99379 0.97884 0.68128 0.0
H463 H 0.97343 0.07214 0.67503 0.0
H464 H 0.94242 0.01124 0.67687 0.0
C465 C 0.03297 0.98138 0.68394 0.0
C466 C 0.02787 0.04331 0.32849 0.0
C467 C 0.9886 0.04581 0.329 0.0
H468 H 0.07589 1.00742 0.32965 0.0
C469 C 0.96741 0.01248 0.3289 0.0
H470 H 0.04502 0.0684 0.32852 0.0
C471 C 0.9851 0.97745 0.32948 0.0
C472 C 0.02436 0.97499 0.33035 0.0
H473 H 0.93707 0.01338 0.32914 0.0
H474 H 0.96795 0.95237 0.33021 0.0
C475 C 0.04555 1.0083 0.32923 0.0
C476 C 0.68228 0.03238 0.97428 0.0
C477 C 0.68234 0.99305 0.97179 0.0
H478 H 0.681 0.08039 0.0101 0.0
C479 C 0.68292 0.97174 1.00501 0.0
H480 H 0.68188 0.04962 0.94928 0.0
C481 C 0.68249 0.98937 0.03993 0.0
C482 C 0.68133 0.02868 0.04242 0.0
H483 H 0.68312 0.94135 1.0041 0.0
H484 H 0.68229 0.97212 0.06494 0.0
C485 C 0.68171 0.05 0.0092 0.0
C486 C 0.33447 0.03161 0.03928 0.0
C487 C 0.33529 0.99232 0.04241 0.0
H488 H 0.335 0.0792 1.0027 0.0
C489 C 0.33545 0.97061 0.00953 0.0
H490 H 0.33426 0.04915 0.06401 0.0
C491 C 0.3358 0.98782 0.97433 0.0
C492 C 0.33613 0.02712 0.97122 0.0
H493 H 0.33593 0.94024 0.01093 0.0
H494 H 0.33663 0.97029 0.9496 0.0
C495 C 0.33495 0.04881 1.00408 0.0
C496 C 1.00881 0.68448 0.9695 0.0
C497 C 0.97542 0.68383 0.99049 0.0
H498 H 0.0688 0.68411 0.97033 0.0
C499 C 0.97768 0.68391 0.02973 0.0
H500 H 1.00808 0.68459 0.93919 0.0
C501 C 0.01255 0.68355 0.04757 0.0
C502 C 0.04592 0.68324 0.02656 0.0
H503 H 0.95255 0.68346 0.04673 0.0
H504 H 0.01327 0.68294 0.07787 0.0
C505 C 0.04366 0.68425 0.98734 0.0
C506 C 0.0129 0.33301 0.97516 0.0
C507 C 0.04534 0.33468 0.99749 0.0
H508 H 0.95294 0.33293 0.97346 0.0
C509 C 0.0414 0.33592 0.03657 0.0
H510 H 0.01492 0.33187 0.94493 0.0
C511 C 1.0058 0.33662 0.05291 0.0
C512 C 0.97335 0.33595 0.03052 0.0
H513 H 0.06579 0.33718 0.05456 0.0
H514 H 1.00375 0.33829 0.08311 0.0
C515 C 0.97731 0.33357 0.9915 0.0
loop_
_geom_bond_atom_site_label_1
_geom_bond_atom_site_label_2
_geom_bond_distance
_geom_bond_site_symmetry_2
_ccdc_geom_bond_type
Cu0 N1 1.999 . S
Cu0 O6 1.974 . S
Cu0 N11 1.985 . S
Cu0 O20 1.959 . S
N1 Cu0 1.999 . S
N1 C3 1.263 . S
N1 C5 1.389 . S
N2 C3 1.358 . S
N2 C4 1.400 . S
C3 N1 1.263 . S
C3 N2 1.358 . S
C3 H9 0.930 . S
C4 N2 1.400 . S
C4 C5 1.351 . S
C4 H21 0.930 . S
C5 N1 1.389 . S
C5 C4 1.351 . S
C5 H10 0.930 . S
O6 Cu0 1.974 . S
O6 C16 1.282 . S
C7 O8 1.261 . S
C7 O20 1.251 . S
O8 C7 1.261 . S
H9 C3 0.930 . S
H10 C5 0.930 . S
N11 Cu0 1.985 . S
N11 C13 1.335 . S
N11 C14 1.390 . S
N12 C13 1.345 . S
N12 C15 1.336 . S
C13 N11 1.335 . S
C13 N12 1.345 . S
C13 H18 0.930 . S
C14 N11 1.390 . S
C14 C15 1.346 . S
C14 H19 0.930 . S
C15 N12 1.336 . S
C15 C14 1.346 . S
C15 H22 0.929 . S
C16 O6 1.282 . S
C16 O17 1.216 . S
O17 C16 1.216 . S
H18 C13 0.930 . S
H19 C14 0.930 . S
O20 Cu0 1.959 . S
O20 C7 1.251 . S
H21 C4 0.930 . S
H22 C15 0.929 . S
Cu23 N24 1.999 . S
Cu23 O29 1.974 . S
Cu23 N34 1.985 . S
Cu23 O43 1.959 . S
N24 Cu23 1.999 . S
N24 C26 1.263 . S
N24 C28 1.389 . S
N25 C26 1.358 . S
N25 C27 1.400 . S
C26 N24 1.263 . S
C26 N25 1.358 . S
C26 H32 0.930 . S
C27 N25 1.400 . S
C27 C28 1.351 . S
C27 H44 0.930 . S
C28 N24 1.389 . S
C28 C27 1.351 . S
C28 H33 0.930 . S
O29 Cu23 1.974 . S
O29 C39 1.282 . S
C30 O31 1.261 . S
C30 O43 1.251 . S
O31 C30 1.261 . S
H32 C26 0.930 . S
H33 C28 0.930 . S
N34 Cu23 1.985 . S
N34 C36 1.335 . S
N34 C37 1.390 . S
N35 C36 1.345 . S
N35 C38 1.336 . S
C36 N34 1.335 . S
C36 N35 1.345 . S
C36 H41 0.930 . S
C37 N34 1.390 . S
C37 C38 1.346 . S
C37 H42 0.930 . S
C38 N35 1.336 . S
C38 C37 1.346 . S
C38 H45 0.929 . S
C39 O29 1.282 . S
C39 O40 1.216 . S
O40 C39 1.216 . S
H41 C36 0.930 . S
H42 C37 0.930 . S
O43 Cu23 1.959 . S
O43 C30 1.251 . S
H44 C27 0.930 . S
H45 C38 0.929 . S
Cu46 N47 1.999 . S
Cu46 O52 1.974 . S
Cu46 N57 1.985 . S
Cu46 O66 1.959 . S
N47 Cu46 1.999 . S
N47 C49 1.263 . S
N47 C51 1.389 . S
N48 C49 1.358 . S
N48 C50 1.400 . S
C49 N47 1.263 . S
C49 N48 1.358 . S
C49 H55 0.930 . S
C50 N48 1.400 . S
C50 C51 1.351 . S
C50 H67 0.930 . S
C51 N47 1.389 . S
C51 C50 1.351 . S
C51 H56 0.930 . S
O52 Cu46 1.974 . S
O52 C62 1.282 . S
C53 O54 1.261 . S
C53 O66 1.251 . S
O54 C53 1.261 . S
H55 C49 0.930 . S
H56 C51 0.930 . S
N57 Cu46 1.985 . S
N57 C59 1.335 . S
N57 C60 1.390 . S
N58 C59 1.345 . S
N58 C61 1.336 . S
C59 N57 1.335 . S
C59 N58 1.345 . S
C59 H64 0.930 . S
C60 N57 1.390 . S
C60 C61 1.346 . S
C60 H65 0.930 . S
C61 N58 1.336 . S
C61 C60 1.346 . S
C61 H68 0.929 . S
C62 O52 1.282 . S
C62 O63 1.216 . S
O63 C62 1.216 . S
H64 C59 0.930 . S
H65 C60 0.930 . S
O66 Cu46 1.959 . S
O66 C53 1.251 . S
H67 C50 0.930 . S
H68 C61 0.929 . S
Cu69 N70 1.999 . S
Cu69 O75 1.974 . S
Cu69 N80 1.985 . S
Cu69 O89 1.959 . S
N70 Cu69 1.999 . S
N70 C72 1.263 . S
N70 C74 1.389 . S
N71 C72 1.358 . S
N71 C73 1.400 . S
C72 N70 1.263 . S
C72 N71 1.358 . S
C72 H78 0.930 . S
C73 N71 1.400 . S
C73 C74 1.351 . S
C73 H90 0.930 . S
C74 N70 1.389 . S
C74 C73 1.351 . S
C74 H79 0.930 . S
O75 Cu69 1.974 . S
O75 C85 1.282 . S
C76 O77 1.261 . S
C76 O89 1.251 . S
O77 C76 1.261 . S
H78 C72 0.930 . S
H79 C74 0.930 . S
N80 Cu69 1.985 . S
N80 C82 1.335 . S
N80 C83 1.390 . S
N81 C82 1.345 . S
N81 C84 1.336 . S
C82 N80 1.335 . S
C82 N81 1.345 . S
C82 H87 0.930 . S
C83 N80 1.390 . S
C83 C84 1.346 . S
C83 H88 0.930 . S
C84 N81 1.336 . S
C84 C83 1.346 . S
C84 H91 0.929 . S
C85 O75 1.282 . S
C85 O86 1.216 . S
O86 C85 1.216 . S
H87 C82 0.930 . S
H88 C83 0.930 . S
O89 Cu69 1.959 . S
O89 C76 1.251 . S
H90 C73 0.930 . S
H91 C84 0.929 . S
Cu92 N93 1.999 . S
Cu92 O98 1.974 . S
Cu92 N103 1.985 . S
Cu92 O112 1.959 . S
N93 Cu92 1.999 . S
N93 C95 1.263 . S
N93 C97 1.389 . S
N94 C95 1.358 . S
N94 C96 1.400 . S
C95 N93 1.263 . S
C95 N94 1.358 . S
C95 H101 0.930 . S
C96 N94 1.400 . S
C96 C97 1.351 . S
C96 H113 0.930 . S
C97 N93 1.389 . S
C97 C96 1.351 . S
C97 H102 0.930 . S
O98 Cu92 1.974 . S
O98 C108 1.282 . S
C99 O100 1.261 . S
C99 O112 1.251 . S
O100 C99 1.261 . S
H101 C95 0.930 . S
H102 C97 0.930 . S
N103 Cu92 1.985 . S
N103 C105 1.335 . S
N103 C106 1.390 . S
N104 C105 1.345 . S
N104 C107 1.336 . S
C105 N103 1.335 . S
C105 N104 1.345 . S
C105 H110 0.930 . S
C106 N103 1.390 . S
C106 C107 1.346 . S
C106 H111 0.930 . S
C107 N104 1.336 . S
C107 C106 1.346 . S
C107 H114 0.929 . S
C108 O98 1.282 . S
C108 O109 1.216 . S
O109 C108 1.216 . S
H110 C105 0.930 . S
H111 C106 0.930 . S
O112 Cu92 1.959 . S
O112 C99 1.251 . S
H113 C96 0.930 . S
H114 C107 0.929 . S
Cu115 N116 1.999 . S
Cu115 O121 1.974 . S
Cu115 N126 1.985 . S
Cu115 O135 1.959 . S
N116 Cu115 1.999 . S
N116 C118 1.263 . S
N116 C120 1.389 . S
N117 C118 1.358 . S
N117 C119 1.400 . S
C118 N116 1.263 . S
C118 N117 1.358 . S
C118 H124 0.930 . S
C119 N117 1.400 . S
C119 C120 1.351 . S
C119 H136 0.930 . S
C120 N116 1.389 . S
C120 C119 1.351 . S
C120 H125 0.930 . S
O121 Cu115 1.974 . S
O121 C131 1.282 . S
C122 O123 1.261 . S
C122 O135 1.251 . S
O123 C122 1.261 . S
H124 C118 0.930 . S
H125 C120 0.930 . S
N126 Cu115 1.985 . S
N126 C128 1.335 . S
N126 C129 1.390 . S
N127 C128 1.345 . S
N127 C130 1.336 . S
C128 N126 1.335 . S
C128 N127 1.345 . S
C128 H133 0.930 . S
C129 N126 1.390 . S
C129 C130 1.346 . S
C129 H134 0.930 . S
C130 N127 1.336 . S
C130 C129 1.346 . S
C130 H137 0.929 . S
C131 O121 1.282 . S
C131 O132 1.216 . S
O132 C131 1.216 . S
H133 C128 0.930 . S
H134 C129 0.930 . S
O135 Cu115 1.959 . S
O135 C122 1.251 . S
H136 C119 0.930 . S
H137 C130 0.929 . S
Cu138 N139 1.999 . S
Cu138 O144 1.974 . S
Cu138 N149 1.985 . S
Cu138 O158 1.959 . S
N139 Cu138 1.999 . S
N139 C141 1.263 . S
N139 C143 1.389 . S
N140 C141 1.358 . S
N140 C142 1.400 . S
C141 N139 1.263 . S
C141 N140 1.358 . S
C141 H147 0.930 . S
C142 N140 1.400 . S
C142 C143 1.351 . S
C142 H159 0.930 . S
C143 N139 1.389 . S
C143 C142 1.351 . S
C143 H148 0.930 . S
O144 Cu138 1.974 . S
O144 C154 1.282 . S
C145 O146 1.261 . S
C145 O158 1.251 . S
O146 C145 1.261 . S
H147 C141 0.930 . S
H148 C143 0.930 . S
N149 Cu138 1.985 . S
N149 C151 1.335 . S
N149 C152 1.390 . S
N150 C151 1.345 . S
N150 C153 1.336 . S
C151 N149 1.335 . S
C151 N150 1.345 . S
C151 H156 0.930 . S
C152 N149 1.390 . S
C152 C153 1.346 . S
C152 H157 0.930 . S
C153 N150 1.336 . S
C153 C152 1.346 . S
C153 H160 0.929 . S
C154 O144 1.282 . S
C154 O155 1.216 . S
O155 C154 1.216 . S
H156 C151 0.930 . S
H157 C152 0.930 . S
O158 Cu138 1.959 . S
O158 C145 1.251 . S
H159 C142 0.930 . S
H160 C153 0.929 . S
Cu161 N162 1.999 . S
Cu161 O167 1.974 . S
Cu161 N172 1.985 . S
Cu161 O181 1.959 . S
N162 Cu161 1.999 . S
N162 C164 1.263 . S
N162 C166 1.389 . S
N163 C164 1.358 . S
N163 C165 1.400 . S
C164 N162 1.263 . S
C164 N163 1.358 . S
C164 H170 0.930 . S
C165 N163 1.400 . S
C165 C166 1.351 . S
C165 H182 0.930 . S
C166 N162 1.389 . S
C166 C165 1.351 . S
C166 H171 0.930 . S
O167 Cu161 1.974 . S
O167 C177 1.282 . S
C168 O169 1.261 . S
C168 O181 1.251 . S
O169 C168 1.261 . S
H170 C164 0.930 . S
H171 C166 0.930 . S
N172 Cu161 1.985 . S
N172 C174 1.335 . S
N172 C175 1.390 . S
N173 C174 1.345 . S
N173 C176 1.336 . S
C174 N172 1.335 . S
C174 N173 1.345 . S
C174 H179 0.930 . S
C175 N172 1.390 . S
C175 C176 1.346 . S
C175 H180 0.930 . S
C176 N173 1.336 . S
C176 C175 1.346 . S
C176 H183 0.929 . S
C177 O167 1.282 . S
C177 O178 1.216 . S
O178 C177 1.216 . S
H179 C174 0.930 . S
H180 C175 0.930 . S
O181 Cu161 1.959 . S
O181 C168 1.251 . S
H182 C165 0.930 . S
H183 C176 0.929 . S
Cu184 N185 1.999 . S
Cu184 O190 1.974 . S
Cu184 N195 1.985 . S
Cu184 O204 1.959 . S
N185 Cu184 1.999 . S
N185 C187 1.263 . S
N185 C189 1.389 . S
N186 C187 1.358 . S
N186 C188 1.400 . S
C187 N185 1.263 . S
C187 N186 1.358 . S
C187 H193 0.930 . S
C188 N186 1.400 . S
C188 C189 1.351 . S
C188 H205 0.930 . S
C189 N185 1.389 . S
C189 C188 1.351 . S
C189 H194 0.930 . S
O190 Cu184 1.974 . S
O190 C200 1.282 . S
C191 O192 1.261 . S
C191 O204 1.251 . S
O192 C191 1.261 . S
H193 C187 0.930 . S
H194 C189 0.930 . S
N195 Cu184 1.985 . S
N195 C197 1.335 . S
N195 C198 1.390 . S
N196 C197 1.345 . S
N196 C199 1.336 . S
C197 N195 1.335 . S
C197 N196 1.345 . S
C197 H202 0.930 . S
C198 N195 1.390 . S
C198 C199 1.346 . S
C198 H203 0.930 . S
C199 N196 1.336 . S
C199 C198 1.346 . S
C199 H206 0.929 . S
C200 O190 1.282 . S
C200 O201 1.216 . S
O201 C200 1.216 . S
H202 C197 0.930 . S
H203 C198 0.930 . S
O204 Cu184 1.959 . S
O204 C191 1.251 . S
H205 C188 0.930 . S
H206 C199 0.929 . S
Cu207 N208 1.999 . S
Cu207 O213 1.974 . S
Cu207 N218 1.985 . S
Cu207 O227 1.959 . S
N208 Cu207 1.999 . S
N208 C210 1.263 . S
N208 C212 1.389 . S
N209 C210 1.358 . S
N209 C211 1.400 . S
C210 N208 1.263 . S
C210 N209 1.358 . S
C210 H216 0.930 . S
C211 N209 1.400 . S
C211 C212 1.351 . S
C211 H228 0.930 . S
C212 N208 1.389 . S
C212 C211 1.351 . S
C212 H217 0.930 . S
O213 Cu207 1.974 . S
O213 C223 1.282 . S
C214 O215 1.261 . S
C214 O227 1.251 . S
O215 C214 1.261 . S
H216 C210 0.930 . S
H217 C212 0.930 . S
N218 Cu207 1.985 . S
N218 C220 1.335 . S
N218 C221 1.390 . S
N219 C220 1.345 . S
N219 C222 1.336 . S
C220 N218 1.335 . S
C220 N219 1.345 . S
C220 H225 0.930 . S
C221 N218 1.390 . S
C221 C222 1.346 . S
C221 H226 0.930 . S
C222 N219 1.336 . S
C222 C221 1.346 . S
C222 H229 0.929 . S
C223 O213 1.282 . S
C223 O224 1.216 . S
O224 C223 1.216 . S
H225 C220 0.930 . S
H226 C221 0.930 . S
O227 Cu207 1.959 . S
O227 C214 1.251 . S
H228 C211 0.930 . S
H229 C222 0.929 . S
Cu230 N231 1.999 . S
Cu230 O236 1.974 . S
Cu230 N241 1.985 . S
Cu230 O250 1.959 . S
N231 Cu230 1.999 . S
N231 C233 1.263 . S
N231 C235 1.389 . S
N232 C233 1.358 . S
N232 C234 1.400 . S
C233 N231 1.263 . S
C233 N232 1.358 . S
C233 H239 0.930 . S
C234 N232 1.400 . S
C234 C235 1.351 . S
C234 H251 0.930 . S
C235 N231 1.389 . S
C235 C234 1.351 . S
C235 H240 0.930 . S
O236 Cu230 1.974 . S
O236 C246 1.282 . S
C237 O238 1.261 . S
C237 O250 1.251 . S
O238 C237 1.261 . S
H239 C233 0.930 . S
H240 C235 0.930 . S
N241 Cu230 1.985 . S
N241 C243 1.335 . S
N241 C244 1.390 . S
N242 C243 1.345 . S
N242 C245 1.336 . S
C243 N241 1.335 . S
C243 N242 1.345 . S
C243 H248 0.930 . S
C244 N241 1.390 . S
C244 C245 1.346 . S
C244 H249 0.930 . S
C245 N242 1.336 . S
C245 C244 1.346 . S
C245 H252 0.929 . S
C246 O236 1.282 . S
C246 O247 1.216 . S
O247 C246 1.216 . S
H248 C243 0.930 . S
H249 C244 0.930 . S
O250 Cu230 1.959 . S
O250 C237 1.251 . S
H251 C234 0.930 . S
H252 C245 0.929 . S
Cu253 N254 1.999 . S
Cu253 O259 1.974 . S
Cu253 N264 1.985 . S
Cu253 O273 1.959 . S
N254 Cu253 1.999 . S
N254 C256 1.263 . S
N254 C258 1.389 . S
N255 C256 1.358 . S
N255 C257 1.400 . S
C256 N254 1.263 . S
C256 N255 1.358 . S
C256 H262 0.930 . S
C257 N255 1.400 . S
C257 C258 1.351 . S
C257 H274 0.930 . S
C258 N254 1.389 . S
C258 C257 1.351 . S
C258 H263 0.930 . S
O259 Cu253 1.974 . S
O259 C269 1.282 . S
C260 O261 1.261 . S
C260 O273 1.251 . S
O261 C260 1.261 . S
H262 C256 0.930 . S
H263 C258 0.930 . S
N264 Cu253 1.985 . S
N264 C266 1.335 . S
N264 C267 1.390 . S
N265 C266 1.345 . S
N265 C268 1.336 . S
C266 N264 1.335 . S
C266 N265 1.345 . S
C266 H271 0.930 . S
C267 N264 1.390 . S
C267 C268 1.346 . S
C267 H272 0.930 . S
C268 N265 1.336 . S
C268 C267 1.346 . S
C268 H275 0.929 . S
C269 O259 1.282 . S
C269 O270 1.216 . S
O270 C269 1.216 . S
H271 C266 0.930 . S
H272 C267 0.930 . S
O273 Cu253 1.959 . S
O273 C260 1.251 . S
H274 C257 0.930 . S
H275 C268 0.929 . S
C276 C277 1.387 . S
C276 H280 0.950 . S
C276 C285 1.390 1_655 S
C277 C276 1.387 . S
C277 C279 1.387 . S
H278 C285 0.950 . S
C279 C277 1.387 . S
C279 C281 1.390 1_655 S
C279 H283 0.950 . S
H280 C276 0.950 . S
C281 C279 1.390 1_455 S
C281 C282 1.387 . S
C281 H284 0.950 . S
C282 C281 1.387 . S
C282 C285 1.387 . S
H283 C279 0.950 . S
H284 C281 0.950 . S
C285 C276 1.390 1_455 S
C285 H278 0.950 . S
C285 C282 1.387 . S
C286 C287 1.387 . S
C286 H290 0.950 . S
C286 C295 1.390 1_455 S
C287 C286 1.387 . S
C287 C289 1.387 . S
H288 C295 0.950 . S
C289 C287 1.387 . S
C289 C291 1.390 1_455 S
C289 H293 0.950 . S
H290 C286 0.950 . S
C291 C289 1.390 1_655 S
C291 C292 1.387 . S
C291 H294 0.950 . S
C292 C291 1.387 . S
C292 C295 1.387 . S
H293 C289 0.950 . S
H294 C291 0.950 . S
C295 C286 1.390 1_655 S
C295 H288 0.950 . S
C295 C292 1.387 . S
C296 C297 1.387 . S
C296 H300 0.950 . S
C296 C305 1.390 1_565 S
C297 C296 1.387 . S
C297 C299 1.387 . S
H298 C305 0.950 . S
C299 C297 1.387 . S
C299 C301 1.390 1_565 S
C299 H303 0.950 . S
H300 C296 0.950 . S
C301 C299 1.390 1_545 S
C301 C302 1.387 . S
C301 H304 0.950 . S
C302 C301 1.387 . S
C302 C305 1.387 . S
H303 C299 0.950 . S
H304 C301 0.950 . S
C305 C296 1.390 1_545 S
C305 H298 0.950 . S
C305 C302 1.387 . S
C306 C307 1.387 . S
C306 H310 0.950 . S
C306 C315 1.390 1_565 S
C307 C306 1.387 . S
C307 C309 1.387 . S
H308 C315 0.950 . S
C309 C307 1.387 . S
C309 C311 1.390 1_565 S
C309 H313 0.950 . S
H310 C306 0.950 . S
C311 C309 1.390 1_545 S
C311 C312 1.387 . S
C311 H314 0.950 . S
C312 C311 1.387 . S
C312 C315 1.387 . S
H313 C309 0.950 . S
H314 C311 0.950 . S
C315 C306 1.390 1_545 S
C315 H308 0.950 . S
C315 C312 1.387 . S
C316 C317 1.387 . S
C316 H320 0.950 . S
C316 C325 1.390 1_556 S
C317 C316 1.387 . S
C317 C319 1.387 . S
H318 C325 0.950 . S
C319 C317 1.387 . S
C319 C321 1.390 1_556 S
C319 H323 0.950 . S
H320 C316 0.950 . S
C321 C319 1.390 1_554 S
C321 C322 1.387 . S
C321 H324 0.950 . S
C322 C321 1.387 . S
C322 C325 1.387 . S
H323 C319 0.950 . S
H324 C321 0.950 . S
C325 C316 1.390 1_554 S
C325 H318 0.950 . S
C325 C322 1.387 . S
C326 C327 1.387 . S
C326 H330 0.950 . S
C326 C335 1.390 1_556 S
C327 C326 1.387 . S
C327 C329 1.387 . S
H328 C335 0.950 . S
C329 C327 1.387 . S
C329 C331 1.390 1_556 S
C329 H333 0.950 . S
H330 C326 0.950 . S
C331 C329 1.390 1_554 S
C331 C332 1.387 . S
C331 H334 0.950 . S
C332 C331 1.387 . S
C332 C335 1.387 . S
H333 C329 0.950 . S
H334 C331 0.950 . S
C335 C326 1.390 1_554 S
C335 H328 0.950 . S
C335 C332 1.387 . S
C336 C337 1.387 . S
C336 H340 0.950 . S
C336 C345 1.390 . S
C337 C336 1.387 . S
C337 C339 1.387 . S
H338 C345 0.950 . S
C339 C337 1.387 . S
C339 C341 1.390 . S
C339 H343 0.950 . S
H340 C336 0.950 . S
C341 C339 1.390 . S
C341 C342 1.387 . S
C341 H344 0.950 . S
C342 C341 1.387 . S
C342 C345 1.387 . S
H343 C339 0.950 . S
H344 C341 0.950 . S
C345 C336 1.390 . S
C345 H338 0.950 . S
C345 C342 1.387 . S
C346 C347 1.387 . S
C346 H350 0.950 . S
C346 C355 1.390 . S
C347 C346 1.387 . S
C347 C349 1.387 . S
H348 C355 0.950 . S
C349 C347 1.387 . S
C349 C351 1.390 . S
C349 H353 0.950 . S
H350 C346 0.950 . S
C351 C349 1.390 . S
C351 C352 1.387 . S
C351 H354 0.950 . S
C352 C351 1.387 . S
C352 C355 1.387 . S
H353 C349 0.950 . S
H354 C351 0.950 . S
C355 C346 1.390 . S
C355 H348 0.950 . S
C355 C352 1.387 . S
C356 C357 1.387 . S
C356 H360 0.950 . S
C356 C365 1.390 . S
C357 C356 1.387 . S
C357 C359 1.387 . S
H358 C365 0.950 . S
C359 C357 1.387 . S
C359 C361 1.390 . S
C359 H363 0.950 . S
H360 C356 0.950 . S
C361 C359 1.390 . S
C361 C362 1.387 . S
C361 H364 0.950 . S
C362 C361 1.387 . S
C362 C365 1.387 . S
H363 C359 0.950 . S
H364 C361 0.950 . S
C365 C356 1.390 . S
C365 H358 0.950 . S
C365 C362 1.387 . S
C366 C367 1.387 . S
C366 H370 0.950 . S
C366 C375 1.390 . S
C367 C366 1.387 . S
C367 C369 1.387 . S
H368 C375 0.950 . S
C369 C367 1.387 . S
C369 C371 1.390 . S
C369 H373 0.950 . S
H370 C366 0.950 . S
C371 C369 1.390 . S
C371 C372 1.387 . S
C371 H374 0.950 . S
C372 C371 1.387 . S
C372 C375 1.387 . S
H373 C369 0.950 . S
H374 C371 0.950 . S
C375 C366 1.390 . S
C375 H368 0.950 . S
C375 C372 1.387 . S
C376 C377 1.387 . S
C376 H380 0.950 . S
C376 C385 1.390 . S
C377 C376 1.387 . S
C377 C379 1.387 . S
H378 C385 0.950 . S
C379 C377 1.387 . S
C379 C381 1.390 . S
C379 H383 0.950 . S
H380 C376 0.950 . S
C381 C379 1.390 . S
C381 C382 1.387 . S
C381 H384 0.950 . S
C382 C381 1.387 . S
C382 C385 1.387 . S
H383 C379 0.950 . S
H384 C381 0.950 . S
C385 C376 1.390 . S
C385 H378 0.950 . S
C385 C382 1.387 . S
C386 C387 1.387 . S
C386 H390 0.950 . S
C386 C395 1.390 . S
C387 C386 1.387 . S
C387 C389 1.387 . S
H388 C395 0.950 . S
C389 C387 1.387 . S
C389 C391 1.390 . S
C389 H393 0.950 . S
H390 C386 0.950 . S
C391 C389 1.390 . S
C391 C392 1.387 . S
C391 H394 0.950 . S
C392 C391 1.387 . S
C392 C395 1.387 . S
H393 C389 0.950 . S
H394 C391 0.950 . S
C395 C386 1.390 . S
C395 H388 0.950 . S
C395 C392 1.387 . S
C396 C397 1.387 . S
C396 H400 0.950 . S
C396 C405 1.390 . S
C397 C396 1.387 . S
C397 C399 1.387 . S
H398 C405 0.950 . S
C399 C397 1.387 . S
C399 C401 1.390 . S
C399 H403 0.950 . S
H400 C396 0.950 . S
C401 C399 1.390 . S
C401 C402 1.387 . S
C401 H404 0.950 . S
C402 C401 1.387 . S
C402 C405 1.387 . S
H403 C399 0.950 . S
H404 C401 0.950 . S
C405 C396 1.390 . S
C405 H398 0.950 . S
C405 C402 1.387 . S
C406 C407 1.387 . S
C406 H410 0.950 . S
C406 C415 1.390 . S
C407 C406 1.387 . S
C407 C409 1.387 . S
H408 C415 0.950 . S
C409 C407 1.387 . S
C409 C411 1.390 . S
C409 H413 0.950 . S
H410 C406 0.950 . S
C411 C409 1.390 . S
C411 C412 1.387 . S
C411 H414 0.950 . S
C412 C411 1.387 . S
C412 C415 1.387 . S
H413 C409 0.950 . S
H414 C411 0.950 . S
C415 C406 1.390 . S
C415 H408 0.950 . S
C415 C412 1.387 . S
C416 C417 1.387 . S
C416 H420 0.950 . S
C416 C425 1.390 . S
C417 C416 1.387 . S
C417 C419 1.387 . S
H418 C425 0.950 . S
C419 C417 1.387 . S
C419 C421 1.390 . S
C419 H423 0.950 . S
H420 C416 0.950 . S
C421 C419 1.390 . S
C421 C422 1.387 . S
C421 H424 0.950 . S
C422 C421 1.387 . S
C422 C425 1.387 . S
H423 C419 0.950 . S
H424 C421 0.950 . S
C425 C416 1.390 . S
C425 H418 0.950 . S
C425 C422 1.387 . S
C426 C427 1.387 . S
C426 H430 0.950 . S
C426 C435 1.390 . S
C427 C426 1.387 . S
C427 C429 1.387 . S
H428 C435 0.950 . S
C429 C427 1.387 . S
C429 C431 1.390 . S
C429 H433 0.950 . S
H430 C426 0.950 . S
C431 C429 1.390 . S
C431 C432 1.387 . S
C431 H434 0.950 . S
C432 C431 1.387 . S
C432 C435 1.387 . S
H433 C429 0.950 . S
H434 C431 0.950 . S
C435 C426 1.390 . S
C435 H428 0.950 . S
C435 C432 1.387 . S
C436 C437 1.387 . S
C436 H440 0.950 . S
C436 C445 1.390 . S
C437 C436 1.387 . S
C437 C439 1.387 . S
H438 C445 0.950 . S
C439 C437 1.387 . S
C439 C441 1.390 . S
C439 H443 0.950 . S
H440 C436 0.950 . S
C441 C439 1.390 . S
C441 C442 1.387 . S
C441 H444 0.950 . S
C442 C441 1.387 . S
C442 C445 1.387 . S
H443 C439 0.950 . S
H444 C441 0.950 . S
C445 C436 1.390 . S
C445 H438 0.950 . S
C445 C442 1.387 . S
C446 C447 1.387 . S
C446 H450 0.950 . S
C446 C455 1.390 . S
C447 C446 1.387 . S
C447 C449 1.387 . S
H448 C455 0.950 . S
C449 C447 1.387 . S
C449 C451 1.390 . S
C449 H453 0.950 . S
H450 C446 0.950 . S
C451 C449 1.390 . S
C451 C452 1.387 . S
C451 H454 0.950 . S
C452 C451 1.387 . S
C452 C455 1.387 . S
H453 C449 0.950 . S
H454 C451 0.950 . S
C455 C446 1.390 . S
C455 H448 0.950 . S
C455 C452 1.387 . S
C456 C457 1.387 . S
C456 H460 0.950 . S
C456 C465 1.390 1_445 S
C457 C456 1.387 . S
C457 C459 1.387 . S
H458 C465 0.950 . S
C459 C457 1.387 . S
C459 C461 1.390 1_445 S
C459 H463 0.950 . S
H460 C456 0.950 . S
C461 C459 1.390 1_665 S
C461 C462 1.387 . S
C461 H464 0.950 . S
C462 C461 1.387 . S
C462 C465 1.387 . S
H463 C459 0.950 . S
H464 C461 0.950 . S
C465 C456 1.390 1_665 S
C465 H458 0.950 . S
C465 C462 1.387 . S
C466 C467 1.387 . S
C466 H470 0.950 . S
C466 C475 1.390 1_645 S
C467 C466 1.387 . S
C467 C469 1.387 . S
H468 C475 0.950 . S
C469 C467 1.387 . S
C469 C471 1.390 1_645 S
C469 H473 0.950 . S
H470 C466 0.950 . S
C471 C469 1.390 1_465 S
C471 C472 1.387 . S
C471 H474 0.950 . S
C472 C471 1.387 . S
C472 C475 1.387 . S
H473 C469 0.950 . S
H474 C471 0.950 . S
C475 C466 1.390 1_465 S
C475 H468 0.950 . S
C475 C472 1.387 . S
C476 C477 1.387 . S
C476 H480 0.950 . S
C476 C485 1.390 1_566 S
C477 C476 1.387 . S
C477 C479 1.387 . S
H478 C485 0.950 . S
C479 C477 1.387 . S
C479 C481 1.390 1_566 S
C479 H483 0.950 . S
H480 C476 0.950 . S
C481 C479 1.390 1_544 S
C481 C482 1.387 . S
C481 H484 0.950 . S
C482 C481 1.387 . S
C482 C485 1.387 . S
H483 C479 0.950 . S
H484 C481 0.950 . S
C485 C476 1.390 1_544 S
C485 H478 0.950 . S
C485 C482 1.387 . S
C486 C487 1.387 . S
C486 H490 0.950 . S
C486 C495 1.390 1_564 S
C487 C486 1.387 . S
C487 C489 1.387 . S
H488 C495 0.950 . S
C489 C487 1.387 . S
C489 C491 1.390 1_564 S
C489 H493 0.950 . S
H490 C486 0.950 . S
C491 C489 1.390 1_546 S
C491 C492 1.387 . S
C491 H494 0.950 . S
C492 C491 1.387 . S
C492 C495 1.387 . S
H493 C489 0.950 . S
H494 C491 0.950 . S
C495 C486 1.390 1_546 S
C495 H488 0.950 . S
C495 C492 1.387 . S
C496 C497 1.387 . S
C496 H500 0.950 . S
C496 C505 1.390 1_656 S
C497 C496 1.387 . S
C497 C499 1.387 . S
H498 C505 0.950 . S
C499 C497 1.387 . S
C499 C501 1.390 1_656 S
C499 H503 0.950 . S
H500 C496 0.950 . S
C501 C499 1.390 1_454 S
C501 C502 1.387 . S
C501 H504 0.950 . S
C502 C501 1.387 . S
C502 C505 1.387 . S
H503 C499 0.950 . S
H504 C501 0.950 . S
C505 C496 1.390 1_454 S
C505 H498 0.950 . S
C505 C502 1.387 . S
C506 C507 1.387 . S
C506 H510 0.950 . S
C506 C515 1.390 1_456 S
C507 C506 1.387 . S
C507 C509 1.387 . S
H508 C515 0.950 . S
C509 C507 1.387 . S
C509 C511 1.390 1_456 S
C509 H513 0.950 . S
H510 C506 0.950 . S
C511 C509 1.390 1_654 S
C511 C512 1.387 . S
C511 H514 0.950 . S
C512 C511 1.387 . S
C512 C515 1.387 . S
H513 C509 0.950 . S
H514 C511 0.950 . S
C515 C506 1.390 1_654 S
C515 H508 0.950 . S
C515 C512 1.387 . S
C277 N81 1.290 . S
C282 N12 1.290 . S
C287 N58 1.291 . S
C292 N35 1.291 . S
C297 N127 1.290 . S
C302 N104 1.290 . S
C307 N150 1.290 . S
C312 N173 1.290 . S
C317 N219 1.290 . S
C322 N196 1.290 . S
C327 N242 1.291 . S
C332 N265 1.291 . S
C337 N2 1.592 . S
C342 C177 1.465 . S
C347 C154 1.467 . S
C352 N25 1.595 . S
C357 C131 1.468 . S
C362 N48 1.596 . S
C367 C108 1.467 . S
C372 N71 1.595 . S
C377 N94 1.592 . S
C382 C269 1.464 . S
C387 C200 1.469 . S
C392 N117 1.596 . S
C397 C246 1.466 . S
C402 N140 1.592 . S
C407 N163 1.592 . S
C412 C223 1.464 . S
C417 C62 1.467 . S
C422 N186 1.595 . S
C427 C16 1.466 . S
C432 N209 1.595 . S
C437 N232 1.593 . S
C442 C39 1.467 . S
C447 C85 1.469 . S
C452 N255 1.594 . S
C457 C7 2.039 . S
C462 C30 2.039 . S
C467 C76 2.041 . S
C472 C53 2.041 . S
C477 C145 2.039 . S
C482 C99 2.039 . S
C487 C122 2.041 . S
C492 C168 2.041 . S
C497 C237 2.041 . S
C502 C191 2.041 . S
C507 C214 2.039 . S
C512 C260 2.039 . S
