# Generated by pormake.
# Topology umb, (4)-cn, num edge types: 1
# Building blocks:
#     Node 0, Type 0, BuildingBlock: CEKHIL_clean_sbu_0, # of connection points: 4
#     Node 1, Type 0, BuildingBlock: CEKHIL_clean_sbu_0, # of connection points: 4
#     Node 2, Type 0, BuildingBlock: CEKHIL_clean_sbu_0, # of connection points: 4
#     Node 3, Type 0, BuildingBlock: CEKHIL_clean_sbu_0, # of connection points: 4
#     Node 4, Type 0, BuildingBlock: CEKHIL_clean_sbu_0, # of connection points: 4
#     Node 5, Type 0, BuildingBlock: CEKHIL_clean_sbu_0, # of connection points: 4
#     Node 6, Type 0, BuildingBlock: CEKHIL_clean_sbu_0, # of connection points: 4
#     Node 7, Type 0, BuildingBlock: CEKHIL_clean_sbu_0, # of connection points: 4
#     Node 8, Type 0, BuildingBlock: CEKHIL_clean_sbu_0, # of connection points: 4
#     Node 9, Type 0, BuildingBlock: CEKHIL_clean_sbu_0, # of connection points: 4
#     Node 10, Type 0, BuildingBlock: CEKHIL_clean_sbu_0, # of connection points: 4
#     Node 11, Type 0, BuildingBlock: CEKHIL_clean_sbu_0, # of connection points: 4
#     Edge 12, Type (0, 0), BuildingBlock: XUDNAN_clean_linker_2, # of connection points: 2
#     Edge 13, Type (0, 0), BuildingBlock: XUDNAN_clean_linker_2, # of connection points: 2
#     Edge 14, Type (0, 0), BuildingBlock: XUDNAN_clean_linker_2, # of connection points: 2
#     Edge 15, Type (0, 0), BuildingBlock: XUDNAN_clean_linker_2, # of connection points: 2
#     Edge 16, Type (0, 0), BuildingBlock: XUDNAN_clean_linker_2, # of connection points: 2
#     Edge 17, Type (0, 0), BuildingBlock: XUDNAN_clean_linker_2, # of connection points: 2
#     Edge 18, Type (0, 0), BuildingBlock: XUDNAN_clean_linker_2, # of connection points: 2
#     Edge 19, Type (0, 0), BuildingBlock: XUDNAN_clean_linker_2, # of connection points: 2
#     Edge 20, Type (0, 0), BuildingBlock: XUDNAN_clean_linker_2, # of connection points: 2
#     Edge 21, Type (0, 0), BuildingBlock: XUDNAN_clean_linker_2, # of connection points: 2
#     Edge 22, Type (0, 0), BuildingBlock: XUDNAN_clean_linker_2, # of connection points: 2
#     Edge 23, Type (0, 0), BuildingBlock: XUDNAN_clean_linker_2, # of connection points: 2
#     Edge 24, Type (0, 0), BuildingBlock: XUDNAN_clean_linker_2, # of connection points: 2
#     Edge 25, Type (0, 0), BuildingBlock: XUDNAN_clean_linker_2, # of connection points: 2
#     Edge 26, Type (0, 0), BuildingBlock: XUDNAN_clean_linker_2, # of connection points: 2
#     Edge 27, Type (0, 0), BuildingBlock: XUDNAN_clean_linker_2, # of connection points: 2
#     Edge 28, Type (0, 0), BuildingBlock: XUDNAN_clean_linker_2, # of connection points: 2
#     Edge 29, Type (0, 0), BuildingBlock: XUDNAN_clean_linker_2, # of connection points: 2
#     Edge 30, Type (0, 0), BuildingBlock: XUDNAN_clean_linker_2, # of connection points: 2
#     Edge 31, Type (0, 0), BuildingBlock: XUDNAN_clean_linker_2, # of connection points: 2
#     Edge 32, Type (0, 0), BuildingBlock: XUDNAN_clean_linker_2, # of connection points: 2
#     Edge 33, Type (0, 0), BuildingBlock: XUDNAN_clean_linker_2, # of connection points: 2
#     Edge 34, Type (0, 0), BuildingBlock: XUDNAN_clean_linker_2, # of connection points: 2
#     Edge 35, Type (0, 0), BuildingBlock: XUDNAN_clean_linker_2, # of connection points: 2
# Relax obj value: 0.273
# Max RMSD: 0.249
# Mean RMSD: 0.248
data_MOF--net-umb--node1-CEKHIL_clean_sbu_0--edge1-XUDNAN_clean_linker_2
_symmetry_space_group_name_H-M    P1
_symmetry_Int_Tables_number       1
_symmetry_cell_setting            triclinic
loop_
_symmetry_equiv_pos_as_xyz
'x, y, z'
_cell_length_a     47.090248
_cell_length_b     47.01093
_cell_length_c     36.296434
_cell_angle_alpha  90.098263
_cell_angle_beta   90.098109
_cell_angle_gamma 120.07543
loop_
_atom_site_label
_atom_site_type_symbol
_atom_site_fract_x
_atom_site_fract_y
_atom_site_fract_z
_atom_type_partial_charge
Co0 Co 0.53373 0.16296 0.32913 0.0
O1 O 0.4959 0.12083 0.33748 0.0
O2 O 0.54483 0.12917 0.32082 0.0
C3 C 0.50982 0.18482 0.29417 0.0
O4 O 0.5776 0.20306 0.31655 0.0
Co5 Co 0.53641 0.22394 0.36344 0.0
O6 O 0.56866 0.24544 0.32328 0.0
C7 C 0.552 0.18338 0.41086 0.0
C8 C 0.51451 0.10861 0.32963 0.0
C9 C 0.58503 0.23289 0.31029 0.0
O10 O 0.54714 0.16501 0.38255 0.0
O11 O 0.54834 0.20858 0.40987 0.0
O12 O 0.51845 0.16493 0.27996 0.0
O13 O 0.51147 0.187 0.32995 0.0
Co14 Co 0.35628 0.52185 0.65151 0.0
O15 O 0.36502 0.48657 0.64527 0.0
O16 O 0.40309 0.53904 0.65178 0.0
C17 C 0.31889 0.50671 0.6046 0.0
O18 O 0.35659 0.56462 0.65855 0.0
Co19 Co 0.28755 0.50405 0.67748 0.0
O20 O 0.30746 0.55217 0.68178 0.0
C21 C 0.33702 0.51429 0.73348 0.0
C22 C 0.39586 0.50867 0.64721 0.0
C23 C 0.33705 0.57282 0.67351 0.0
O24 O 0.35693 0.51859 0.70712 0.0
O25 O 0.30705 0.50625 0.72789 0.0
O26 O 0.35018 0.52331 0.59871 0.0
O27 O 0.31072 0.49614 0.63817 0.0
Co28 Co 0.83262 0.35897 1.00454 0.0
O29 O 0.87423 0.36227 0.9936 0.0
O30 O 0.86399 0.40355 0.99192 0.0
C31 C 0.80101 0.31394 0.96896 0.0
O32 O 0.79393 0.36577 1.01361 0.0
Co33 Co 0.78005 0.29885 0.04695 0.0
O34 O 0.75618 0.32338 0.04704 0.0
C35 C 0.82965 0.35666 0.08885 0.0
C36 C 0.88454 0.39307 0.98713 0.0
C37 C 0.7671 0.35135 0.03197 0.0
O38 O 0.84478 0.36934 0.05846 0.0
O39 O 0.80368 0.32833 0.09034 0.0
O40 O 0.81685 0.34314 0.95493 0.0
O41 O 0.80749 0.31206 1.00338 0.0
Co42 Co 0.46054 0.83053 0.32496 0.0
O43 O 0.49145 0.87675 0.33238 0.0
O44 O 0.43731 0.85399 0.32823 0.0
C45 C 0.48639 0.82042 0.278 0.0
O46 O 0.42094 0.78601 0.31616 0.0
Co47 Co 0.47777 0.77664 0.34062 0.0
O48 O 0.43504 0.74705 0.31673 0.0
C49 C 0.45612 0.80229 0.40268 0.0
C50 C 0.4657 0.88025 0.33257 0.0
C51 C 0.41402 0.75617 0.31189 0.0
O52 O 0.45454 0.82268 0.38031 0.0
O53 O 0.46614 0.78268 0.3925 0.0
O54 O 0.46951 0.83488 0.27219 0.0
O55 O 0.49097 0.81649 0.31253 0.0
Co56 Co 0.63508 0.48021 0.66611 0.0
O57 O 0.61531 0.50752 0.66251 0.0
O58 O 0.58886 0.45301 0.65936 0.0
C59 C 0.67706 0.50723 0.6267 0.0
O60 O 0.64552 0.44358 0.66675 0.0
Co61 Co 0.70229 0.50349 0.70077 0.0
O62 O 0.69853 0.46285 0.67999 0.0
C63 C 0.64507 0.47815 0.74967 0.0
C64 C 0.58773 0.48 0.65853 0.0
C65 C 0.6705 0.43973 0.66991 0.0
O66 O 0.62799 0.47617 0.72115 0.0
O67 O 0.67594 0.48876 0.74803 0.0
O68 O 0.64753 0.48753 0.61497 0.0
O69 O 0.67994 0.51383 0.66189 0.0
Co70 Co 0.14571 0.61616 0.97885 0.0
O71 O 0.10131 0.59206 0.96262 0.0
O72 O 0.13292 0.57018 0.97238 0.0
C73 C 0.16296 0.65873 0.93871 0.0
O74 O 0.19304 0.63564 0.99479 0.0
Co75 Co 0.16504 0.68175 0.01745 0.0
O76 O 0.20945 0.68801 1.01086 0.0
C77 C 0.13447 0.62182 0.06206 0.0
C78 C 0.10467 0.5664 0.96223 0.0
C79 C 0.21529 0.66473 1.0047 0.0
O80 O 0.1324 0.6059 0.03244 0.0
O81 O 0.14502 0.65278 0.06219 0.0
O82 O 0.1602 0.63097 0.92889 0.0
O83 O 0.15026 0.65823 0.97076 0.0
Co84 Co 0.8287 0.47239 0.38381 0.0
O85 O 0.87163 0.49541 0.40563 0.0
O86 O 0.84526 0.44274 0.38938 0.0
C87 C 0.8042 0.49047 0.42379 0.0
O88 O 0.78495 0.43965 0.36112 0.0
Co89 Co 0.79862 0.50877 0.34696 0.0
O90 O 0.76186 0.46531 0.33267 0.0
C91 C 0.83835 0.48922 0.30266 0.0
C92 C 0.87144 0.46776 0.40295 0.0
C93 C 0.76232 0.43931 0.34102 0.0
O94 O 0.84831 0.48302 0.33285 0.0
O95 O 0.81784 0.49949 0.30182 0.0
O96 O 0.80815 0.46575 0.43131 0.0
O97 O 0.81804 0.50625 0.39359 0.0
Co98 Co 0.3503 0.82969 0.70825 0.0
O99 O 0.35268 0.87071 0.69521 0.0
O100 O 0.39503 0.86411 0.70841 0.0
C101 C 0.30924 0.81231 0.7507 0.0
O102 O 0.3591 0.79375 0.72428 0.0
Co103 Co 0.29014 0.76182 0.69327 0.0
O104 O 0.31148 0.74655 0.72899 0.0
C105 C 0.34002 0.79388 0.63437 0.0
C106 C 0.38421 0.88376 0.69986 0.0
C107 C 0.34231 0.76366 0.73423 0.0
O108 O 0.35524 0.81982 0.65463 0.0
O109 O 0.3134 0.76836 0.64461 0.0
O110 O 0.33917 0.83431 0.75885 0.0
O111 O 0.30405 0.80415 0.71609 0.0
Co112 Co 0.52326 0.37013 0.05727 0.0
O113 O 0.48142 0.36818 0.05341 0.0
O114 O 0.5301 0.41369 0.05661 0.0
C115 C 0.50931 0.33246 0.1025 0.0
O116 O 0.57105 0.38306 0.06293 0.0
Co117 Co 0.53325 0.31336 0.03631 0.0
O118 O 0.57375 0.33697 0.06592 0.0
C119 C 0.53827 0.35901 0.97818 0.0
C120 C 0.4984 0.40011 0.0544 0.0
C121 C 0.5866 0.36784 0.06984 0.0
O122 O 0.52818 0.37217 1.00197 0.0
O123 O 0.54246 0.33482 0.98602 0.0
O124 O 0.51725 0.36258 0.10955 0.0
O125 O 0.50648 0.32451 0.06769 0.0
Co126 Co 0.13891 0.50606 0.37247 0.0
O127 O 0.09575 0.47118 0.38349 0.0
O128 O 0.11112 0.52416 0.38429 0.0
C129 C 0.16662 0.4888 0.40869 0.0
O130 O 0.18186 0.54815 0.36327 0.0
Co131 Co 0.18232 0.48824 0.32778 0.0
O132 O 0.2169 0.5319 0.34442 0.0
C133 C 0.13954 0.50582 0.2872 0.0
C134 C 0.08813 0.49374 0.38912 0.0
C135 C 0.21079 0.55426 0.35429 0.0
O136 O 0.12702 0.5058 0.31868 0.0
O137 O 0.16214 0.49842 0.28394 0.0
O138 O 0.15324 0.50481 0.422 0.0
O139 O 0.15882 0.47922 0.37451 0.0
Co140 Co 0.6174 0.15428 0.7289 0.0
O141 O 0.59567 0.10715 0.73309 0.0
O142 O 0.57092 0.13617 0.72389 0.0
C143 C 0.6516 0.16771 0.77778 0.0
O144 O 0.63013 0.20191 0.72345 0.0
Co145 Co 0.69041 0.1961 0.70951 0.0
O146 O 0.68467 0.23428 0.71869 0.0
C147 C 0.64222 0.16598 0.64934 0.0
C148 C 0.56858 0.10762 0.72758 0.0
C149 C 0.65595 0.2303 0.72064 0.0
O150 O 0.62001 0.15097 0.67376 0.0
O151 O 0.67239 0.18555 0.65745 0.0
O152 O 0.62102 0.15924 0.78199 0.0
O153 O 0.65996 0.16397 0.74475 0.0
Co154 Co 0.4503 0.62579 0.05217 0.0
O155 O 0.47593 0.60485 0.05543 0.0
O156 O 0.42198 0.57985 0.06343 0.0
C157 C 0.48174 0.67083 0.08709 0.0
O158 O 0.4169 0.64076 0.05165 0.0
Co159 Co 0.4792 0.68868 1.00668 0.0
O160 O 0.445 0.69339 0.03298 0.0
C161 C 0.4464 0.62683 0.96629 0.0
C162 C 0.44856 0.57789 0.06173 0.0
C163 C 0.41966 0.66913 0.04695 0.0
O164 O 0.44127 0.61345 0.99821 0.0
O165 O 0.46315 0.65807 0.96232 0.0
O166 O 0.46221 0.64257 0.10191 0.0
O167 O 0.48607 0.66973 0.05165 0.0
H168 H 0.59063 0.22471 0.46713 0.0
H169 H 0.53854 0.12246 0.43272 0.0
H170 H 0.55817 0.10733 0.48828 0.0
H171 H 0.66194 0.22375 0.50256 0.0
H172 H 0.66807 0.25085 0.54073 0.0
H173 H 0.64911 0.2539 0.4989 0.0
H174 H 0.59863 0.2459 0.53588 0.0
H175 H 0.61761 0.24319 0.57784 0.0
H176 H 0.57724 0.21052 0.56528 0.0
H177 H 0.58116 0.10265 0.54909 0.0
H178 H 0.60753 0.10935 0.61008 0.0
H179 H 0.64886 0.21479 0.60316 0.0
C180 C 0.58311 0.19911 0.47152 0.0
C181 C 0.56277 0.17473 0.44561 0.0
C182 C 0.55402 0.14158 0.4521 0.0
C183 C 0.56508 0.13272 0.48361 0.0
C184 C 0.58539 0.15732 0.50833 0.0
C185 C 0.5945 0.18987 0.50263 0.0
C186 C 0.61717 0.21149 0.53324 0.0
C187 C 0.65108 0.23648 0.51793 0.0
C188 C 0.60174 0.22879 0.55431 0.0
C189 C 0.61909 0.18596 0.55712 0.0
C190 C 0.60034 0.15483 0.54233 0.0
C191 C 0.59641 0.12697 0.56058 0.0
C192 C 0.61159 0.13096 0.59507 0.0
C193 C 0.63109 0.1626 0.6106 0.0
C194 C 0.63514 0.19045 0.59114 0.0
H195 H 0.3883 0.57346 0.75509 0.0
H196 H 0.31595 0.47813 0.79722 0.0
H197 H 0.33847 0.49602 0.86032 0.0
H198 H 0.45595 0.58985 0.81644 0.0
H199 H 0.46895 0.63277 0.82217 0.0
H200 H 0.44888 0.61175 0.78016 0.0
H201 H 0.40484 0.62888 0.78898 0.0
H202 H 0.42503 0.6502 0.83079 0.0
H203 H 0.38225 0.61903 0.83157 0.0
H204 H 0.36938 0.52412 0.91837 0.0
H205 H 0.40154 0.56123 0.96871 0.0
H206 H 0.45165 0.64112 0.89057 0.0
C207 C 0.37762 0.5562 0.77761 0.0
C208 C 0.35088 0.52405 0.77126 0.0
C209 C 0.3367 0.50259 0.80146 0.0
C210 C 0.34939 0.5126 0.83732 0.0
C211 C 0.3758 0.54445 0.84267 0.0
C212 C 0.38944 0.56613 0.81373 0.0
C213 C 0.41596 0.59978 0.8274 0.0
C214 C 0.44942 0.60908 0.81053 0.0
C215 C 0.40646 0.62603 0.81918 0.0
C216 C 0.41548 0.59358 0.86861 0.0
C217 C 0.39235 0.56134 0.87657 0.0
C218 C 0.3874 0.54942 0.91242 0.0
C219 C 0.40605 0.57091 0.94095 0.0
C220 C 0.4294 0.60447 0.93406 0.0
C221 C 0.43418 0.61577 0.89707 0.0
H222 H 0.79467 0.43453 0.26635 0.0
H223 H 0.89614 0.51262 0.26411 0.0
H224 H 0.90616 0.48592 0.21032 0.0
H225 H 0.81169 0.36976 0.24675 0.0
H226 H 0.77499 0.34604 0.21977 0.0
H227 H 0.77551 0.37244 0.2561 0.0
H228 H 0.75785 0.40283 0.21021 0.0
H229 H 0.75641 0.37582 0.17417 0.0
H230 H 0.78115 0.41974 0.16858 0.0
H231 H 0.90376 0.4508 0.15493 0.0
H232 H 0.89001 0.41043 0.10445 0.0
H233 H 0.79144 0.35253 0.14791 0.0
C234 C 0.81884 0.44629 0.254 0.0
C235 C 0.84447 0.47611 0.26843 0.0
C236 C 0.87609 0.4902 0.25272 0.0
C237 C 0.88196 0.47507 0.2224 0.0
C238 C 0.85613 0.44541 0.20893 0.0
C239 C 0.82525 0.43108 0.22452 0.0
C240 C 0.80198 0.39848 0.20626 0.0
C241 C 0.79038 0.37001 0.23387 0.0
C242 C 0.77263 0.39931 0.18875 0.0
C243 C 0.82432 0.39693 0.17722 0.0
C244 C 0.85542 0.42425 0.17908 0.0
C245 C 0.87962 0.42913 0.15359 0.0
C246 C 0.87163 0.40598 0.12505 0.0
C247 C 0.83982 0.37794 0.1224 0.0
C248 C 0.81622 0.37321 0.14949 0.0
H249 H 0.44074 0.84412 0.44193 0.0
H250 H 0.43824 0.75066 0.44943 0.0
H251 H 0.40864 0.73934 0.5081 0.0
H252 H 0.4534 0.86232 0.54196 0.0
H253 H 0.42829 0.88127 0.54305 0.0
H254 H 0.45013 0.88287 0.50166 0.0
H255 H 0.39564 0.85669 0.46495 0.0
H256 H 0.37356 0.85469 0.50627 0.0
H257 H 0.36172 0.81793 0.47978 0.0
H258 H 0.37462 0.73492 0.56244 0.0
H259 H 0.34511 0.74128 0.61484 0.0
H260 H 0.37278 0.83956 0.57801 0.0
C261 C 0.43441 0.82151 0.4562 0.0
C262 C 0.44206 0.79833 0.44066 0.0
C263 C 0.43311 0.76903 0.46046 0.0
C264 C 0.41601 0.76221 0.49388 0.0
C265 C 0.40832 0.7851 0.50796 0.0
C266 C 0.4178 0.81452 0.49033 0.0
C267 C 0.40669 0.83494 0.51227 0.0
C268 C 0.4364 0.86727 0.52552 0.0
C269 C 0.383 0.84144 0.48945 0.0
C270 C 0.38907 0.8121 0.54455 0.0
C271 C 0.39002 0.78331 0.54096 0.0
C272 C 0.37409 0.75752 0.5658 0.0
C273 C 0.35712 0.76129 0.59538 0.0
C274 C 0.35649 0.79084 0.60066 0.0
C275 C 0.37292 0.81673 0.57486 0.0
H276 H 0.59113 0.36995 0.93513 0.0
H277 H 0.508 0.38575 0.9393 0.0
H278 H 0.52723 0.41888 0.88252 0.0
H279 H 0.64911 0.45111 0.90616 0.0
H280 H 0.67179 0.43908 0.87621 0.0
H281 H 0.65039 0.41411 0.91543 0.0
H282 H 0.61841 0.36341 0.8732 0.0
H283 H 0.64004 0.38799 0.83383 0.0
H284 H 0.59581 0.36583 0.83434 0.0
H285 H 0.55544 0.45083 0.82602 0.0
H286 H 0.59037 0.47886 0.77235 0.0
H287 H 0.65772 0.44594 0.80561 0.0
C288 C 0.57656 0.37969 0.92347 0.0
C289 C 0.54763 0.3747 0.94127 0.0
C290 C 0.52993 0.38887 0.92592 0.0
C291 C 0.54076 0.40786 0.89374 0.0
C292 C 0.5697 0.41298 0.87736 0.0
C293 C 0.5874 0.3993 0.89156 0.0
C294 C 0.61846 0.40993 0.86924 0.0
C295 C 0.64926 0.42974 0.89319 0.0
C296 C 0.61815 0.38001 0.8516 0.0
C297 C 0.61531 0.43156 0.84023 0.0
C298 C 0.58688 0.43279 0.84548 0.0
C299 C 0.57785 0.45019 0.82174 0.0
C300 C 0.59794 0.46616 0.79136 0.0
C301 C 0.62707 0.4651 0.78497 0.0
C302 C 0.63605 0.4479 0.81019 0.0
H303 H 0.15894 0.51129 0.21347 0.0
H304 H 0.09976 0.53281 0.28759 0.0
H305 H 0.09071 0.56313 0.23825 0.0
H306 H 0.19787 0.58756 0.16715 0.0
H307 H 0.19671 0.57089 0.12206 0.0
H308 H 0.19745 0.54916 0.16252 0.0
H309 H 0.14422 0.49725 0.14094 0.0
H310 H 0.1435 0.51878 0.10023 0.0
H311 H 0.10839 0.50023 0.13029 0.0
H312 H 0.09347 0.59733 0.18286 0.0
H313 H 0.10188 0.62596 0.12301 0.0
H314 H 0.15446 0.57859 0.0825 0.0
C315 C 0.14349 0.52174 0.21915 0.0
C316 C 0.1301 0.51933 0.25483 0.0
C317 C 0.11028 0.53387 0.26077 0.0
C318 C 0.10506 0.55142 0.23283 0.0
C319 C 0.11924 0.55402 0.19845 0.0
C320 C 0.13748 0.53899 0.1912 0.0
C321 C 0.14999 0.54572 0.15173 0.0
C322 C 0.18774 0.56444 0.15083 0.0
C323 C 0.13566 0.51358 0.12948 0.0
C324 C 0.1364 0.56723 0.13828 0.0
C325 C 0.11906 0.57207 0.16582 0.0
C326 C 0.10637 0.59309 0.16083 0.0
C327 C 0.11128 0.60933 0.12679 0.0
C328 C 0.12808 0.60394 0.09778 0.0
C329 C 0.14065 0.58247 0.10379 0.0
H330 H 0.74913 0.37736 0.35862 0.0
H331 H 0.72231 0.43106 0.2824 0.0
H332 H 0.68347 0.37922 0.25166 0.0
H333 H 0.73484 0.30835 0.29084 0.0
H334 H 0.71871 0.27844 0.32737 0.0
H335 H 0.75076 0.31999 0.33698 0.0
H336 H 0.71486 0.32537 0.38765 0.0
H337 H 0.68346 0.28387 0.37877 0.0
H338 H 0.67395 0.31652 0.37609 0.0
H339 H 0.64043 0.32343 0.23832 0.0
H340 H 0.59193 0.26937 0.25027 0.0
H341 H 0.64577 0.24979 0.33326 0.0
C342 C 0.7355 0.37821 0.33501 0.0
C343 C 0.7385 0.40815 0.32315 0.0
C344 C 0.72009 0.40833 0.29235 0.0
C345 C 0.69845 0.37906 0.2742 0.0
C346 C 0.69567 0.34982 0.28691 0.0
C347 C 0.71364 0.34916 0.31674 0.0
C348 C 0.7021 0.31433 0.32903 0.0
C349 C 0.72815 0.30471 0.32053 0.0
C350 C 0.69302 0.30978 0.37028 0.0
C351 C 0.67236 0.29579 0.30433 0.0
C352 C 0.67023 0.31656 0.27878 0.0
C353 C 0.64227 0.30665 0.25723 0.0
C354 C 0.61486 0.27587 0.26403 0.0
C355 C 0.61577 0.25563 0.29215 0.0
C356 C 0.64534 0.26457 0.31065 0.0
H357 H 0.31982 0.708 0.77411 0.0
H358 H 0.40277 0.7783 0.70995 0.0
H359 H 0.41915 0.73701 0.69907 0.0
H360 H 0.36111 0.65546 0.80522 0.0
H361 H 0.32171 0.61853 0.8011 0.0
H362 H 0.32442 0.65592 0.81809 0.0
H363 H 0.28356 0.65185 0.76826 0.0
H364 H 0.28057 0.61506 0.7502 0.0
H365 H 0.29264 0.64987 0.72034 0.0
H366 H 0.41384 0.68533 0.67547 0.0
H367 H 0.39244 0.62916 0.65044 0.0
H368 H 0.31262 0.59223 0.72913 0.0
C369 C 0.34263 0.71513 0.75992 0.0
C370 C 0.35978 0.74589 0.74254 0.0
C371 C 0.38935 0.75478 0.72371 0.0
C372 C 0.39883 0.73138 0.71728 0.0
C373 C 0.379 0.69972 0.73086 0.0
C374 C 0.35222 0.69192 0.75328 0.0
C375 C 0.33131 0.65521 0.75857 0.0
C376 C 0.33486 0.64571 0.79809 0.0
C377 C 0.29493 0.64231 0.74869 0.0
C378 C 0.34759 0.64364 0.73141 0.0
C379 C 0.37585 0.66943 0.71686 0.0
C380 C 0.39242 0.6648 0.68764 0.0
C381 C 0.37984 0.633 0.67316 0.0
C382 C 0.35053 0.6066 0.68734 0.0
C383 C 0.33481 0.61207 0.71729 0.0
H384 H 0.62797 0.39052 1.01353 0.0
H385 H 0.62335 0.38259 0.13214 0.0
H386 H 0.68123 0.39638 0.13408 0.0
H387 H 0.65838 0.34574 1.00008 0.0
H388 H 0.68608 0.36628 0.96241 0.0
H389 H 0.65193 0.37234 0.96967 0.0
H390 H 0.69037 0.43522 0.9743 0.0
H391 H 0.72495 0.42955 0.96573 0.0
H392 H 0.72454 0.4519 1.00594 0.0
H393 H 0.72835 0.39098 0.12311 0.0
H394 H 0.76175 0.36772 0.10098 0.0
H395 H 0.73697 0.37597 0.9882 0.0
C396 C 0.64019 0.39402 0.03986 0.0
C397 C 0.62216 0.38661 0.07277 0.0
C398 C 0.63748 0.38927 0.10691 0.0
C399 C 0.67032 0.39714 0.1081 0.0
C400 C 0.68703 0.4018 0.07485 0.0
C401 C 0.67265 0.40089 0.04119 0.0
C402 C 0.69226 0.39843 1.00945 0.0
C403 C 0.67088 0.36893 0.98399 0.0
C404 C 0.70904 0.4307 0.98757 0.0
C405 C 0.71726 0.39365 0.03059 0.0
C406 C 0.71484 0.39746 0.06817 0.0
C407 C 0.73142 0.38916 0.09384 0.0
C408 C 0.74998 0.37561 0.08108 0.0
C409 C 0.75173 0.37038 0.04304 0.0
C410 C 0.73635 0.38061 0.01734 0.0
H411 H 0.38938 0.69097 0.29842 0.0
H412 H 0.36029 0.76391 0.31846 0.0
H413 H 0.30338 0.71969 0.32878 0.0
H414 H 0.30981 0.62731 0.25519 0.0
H415 H 0.31336 0.59478 0.27692 0.0
H416 H 0.34975 0.63216 0.26358 0.0
H417 H 0.37138 0.63891 0.33062 0.0
H418 H 0.33467 0.60235 0.34457 0.0
H419 H 0.34706 0.64072 0.3679 0.0
H420 H 0.25181 0.66758 0.34693 0.0
H421 H 0.20818 0.61125 0.36324 0.0
H422 H 0.27347 0.57455 0.33379 0.0
C423 C 0.37087 0.6977 0.30371 0.0
C424 C 0.37929 0.73079 0.30791 0.0
C425 C 0.35438 0.73863 0.315 0.0
C426 C 0.32197 0.7137 0.32108 0.0
C427 C 0.31499 0.68127 0.31936 0.0
C428 C 0.3386 0.67325 0.30996 0.0
C429 C 0.32576 0.63686 0.31298 0.0
C430 C 0.32459 0.6219 0.2749 0.0
C431 C 0.34592 0.6293 0.34067 0.0
C432 C 0.29179 0.62588 0.32725 0.0
C433 C 0.2857 0.65159 0.33033 0.0
C434 C 0.25609 0.64712 0.34408 0.0
C435 C 0.23166 0.61518 0.35369 0.0
C436 C 0.23737 0.58849 0.34978 0.0
C437 C 0.26812 0.59428 0.33707 0.0
H438 H 0.71296 0.41824 0.68847 0.0
H439 H 0.61527 0.38531 0.64486 0.0
H440 H 0.60156 0.32783 0.65221 0.0
H441 H 0.72186 0.34977 0.64793 0.0
H442 H 0.74368 0.34822 0.68803 0.0
H443 H 0.74727 0.38666 0.67406 0.0
H444 H 0.72897 0.39315 0.73935 0.0
H445 H 0.72424 0.35428 0.75321 0.0
H446 H 0.69017 0.36144 0.75707 0.0
H447 H 0.59548 0.27508 0.67304 0.0
H448 H 0.60037 0.22859 0.69629 0.0
H449 H 0.70227 0.29558 0.72553 0.0
C450 C 0.68905 0.399 0.67937 0.0
C451 C 0.66509 0.40622 0.66646 0.0
C452 C 0.63396 0.38033 0.6551 0.0
C453 C 0.62589 0.3476 0.65918 0.0
C454 C 0.64938 0.34133 0.67416 0.0
C455 C 0.68059 0.36619 0.68321 0.0
C456 C 0.70063 0.35273 0.70057 0.0
C457 C 0.7301 0.35975 0.67618 0.0
C458 C 0.71163 0.36621 0.73987 0.0
C459 C 0.67538 0.31655 0.701 0.0
C460 C 0.64601 0.31056 0.68566 0.0
C461 C 0.61849 0.27929 0.68456 0.0
C462 C 0.62142 0.25315 0.69832 0.0
C463 C 0.65174 0.25856 0.7127 0.0
C464 C 0.67885 0.29075 0.71456 0.0
H465 H 0.2359 0.61984 1.01219 0.0
H466 H 0.26971 0.7245 0.01668 0.0
H467 H 0.32381 0.73542 0.0379 0.0
H468 H 0.2813 0.6176 0.09253 0.0
H469 H 0.29086 0.58845 0.07202 0.0
H470 H 0.25361 0.58805 0.05941 0.0
H471 H 0.27011 0.59455 0.99041 0.0
H472 H 0.30689 0.59414 1.00279 0.0
H473 H 0.30958 0.62801 0.97671 0.0
H474 H 0.37402 0.7358 0.05617 0.0
H475 H 0.42076 0.72635 0.06131 0.0
H476 H 0.35509 0.6217 0.04493 0.0
C477 C 0.25471 0.64505 0.01749 0.0
C478 C 0.24852 0.67126 1.01309 0.0
C479 C 0.27381 0.70395 0.02019 0.0
C480 C 0.30453 0.71044 0.03257 0.0
C481 C 0.30949 0.68399 0.03775 0.0
C482 C 0.28557 0.65202 0.02991 0.0
C483 C 0.29822 0.62844 0.03528 0.0
C484 C 0.2799 0.60421 0.06668 0.0
C485 C 0.29609 0.61024 0.99915 0.0
C486 C 0.33336 0.65242 0.04597 0.0
C487 C 0.33901 0.68421 0.04811 0.0
C488 C 0.36997 0.71103 0.05493 0.0
C489 C 0.3963 0.70543 0.05778 0.0
C490 C 0.39134 0.67333 0.0534 0.0
C491 C 0.35936 0.64636 0.04903 0.0
H492 H 0.54843 0.07546 0.3213 0.0
H493 H 0.45164 0.06137 0.34398 0.0
H494 H 0.42972 0.00184 0.34994 0.0
H495 H 0.52135 0.00263 0.26701 0.0
H496 H 0.55183 0.99373 0.28472 0.0
H497 H 0.56035 0.03556 0.28301 0.0
H498 H 0.5733 0.0419 0.35297 0.0
H499 H 0.56464 0.0 0.35493 0.0
H500 H 0.54309 0.01345 0.38479 0.0
H501 H 0.41772 0.9445 0.35193 0.0
H502 H 0.41585 0.89132 0.34868 0.0
H503 H 0.52036 0.94161 0.32562 0.0
C504 C 0.52263 0.05981 0.32747 0.0
C505 C 0.5017 0.07298 0.33213 0.0
C506 C 0.46812 0.05179 0.34029 0.0
C507 C 0.45543 0.01796 0.34383 0.0
C508 C 0.47668 0.00576 0.33927 0.0
C509 C 0.50953 0.02589 0.33124 0.0
C510 C 0.52677 0.00615 0.32715 0.0
C511 C 0.54089 0.00973 0.28815 0.0
C512 C 0.55353 0.01597 0.35673 0.0
C513 C 0.4983 0.97178 0.33365 0.0
C514 C 0.46973 0.97228 0.34075 0.0
C515 C 0.43992 0.94371 0.34657 0.0
C516 C 0.43913 0.91365 0.34459 0.0
C517 C 0.46797 0.91243 0.33693 0.0
C518 C 0.49803 0.94191 0.33186 0.0
H519 H 0.46247 0.54783 0.65718 0.0
H520 H 0.38617 0.44775 0.63251 0.0
H521 H 0.42752 0.43043 0.63085 0.0
H522 H 0.52576 0.54768 0.59956 0.0
H523 H 0.55836 0.57161 0.63179 0.0
H524 H 0.52298 0.57677 0.62959 0.0
H525 H 0.51305 0.56427 0.69939 0.0
H526 H 0.54834 0.559 0.7018 0.0
H527 H 0.5089 0.52655 0.71705 0.0
H528 H 0.47571 0.42313 0.63422 0.0
H529 H 0.5291 0.42625 0.64174 0.0
H530 H 0.57508 0.531 0.66396 0.0
C531 C 0.45457 0.52236 0.65111 0.0
C532 C 0.42116 0.49913 0.64492 0.0
C533 C 0.41165 0.46596 0.63734 0.0
C534 C 0.43493 0.45587 0.63628 0.0
C535 C 0.46759 0.47924 0.6428 0.0
C536 C 0.47754 0.5118 0.64998 0.0
C537 C 0.51418 0.5316 0.65699 0.0
C538 C 0.53133 0.5585 0.62773 0.0
C539 C 0.52153 0.54621 0.69614 0.0
C540 C 0.52308 0.50494 0.6529 0.0
C541 C 0.49576 0.475 0.64465 0.0
C542 C 0.49737 0.44645 0.64046 0.0
C543 C 0.52781 0.44849 0.64487 0.0
C544 C 0.5562 0.47889 0.65334 0.0
C545 C 0.5538 0.5075 0.65724 0.0
H546 H 0.94321 0.40614 0.01679 0.0
H547 H 0.89921 0.42964 0.92558 0.0
H548 H 0.95429 0.4686 0.90149 0.0
H549 H 0.00228 0.48637 0.03418 0.0
H550 H 0.03437 0.47819 0.04763 0.0
H551 H 0.99213 0.44691 0.05295 0.0
H552 H 0.00261 0.40695 1.01373 0.0
H553 H 0.04495 0.43843 1.00796 0.0
H554 H 0.01958 0.41889 0.96814 0.0
H555 H 0.01182 0.50926 0.89182 0.0
H556 H 0.06802 0.55516 0.90158 0.0
H557 H 0.07658 0.50859 1.0005 0.0
C558 C 0.94546 0.41891 0.99119 0.0
C559 C 0.91738 0.41479 0.97248 0.0
C560 C 0.92071 0.43253 0.93992 0.0
C561 C 0.95181 0.45435 0.9259 0.0
C562 C 0.97923 0.45834 0.9451 0.0
C563 C 0.97647 0.44151 0.97735 0.0
C564 C 0.00964 0.45448 0.99583 0.0
C565 C 0.00959 0.46726 0.03494 0.0
C566 C 0.01979 0.42811 0.99644 0.0
C567 C 0.03117 0.48224 0.96985 0.0
C568 C 0.01317 0.48316 0.94013 0.0
C569 C 0.02641 0.50843 0.91441 0.0
C570 C 0.05833 0.53432 0.92009 0.0
C571 C 0.07657 0.53479 0.95126 0.0
C572 C 0.06342 0.50793 0.97571 0.0
H573 H 0.06196 0.5341 0.39685 0.0
H574 H 0.03817 0.43233 0.40464 0.0
H575 H 0.98062 0.41547 0.41756 0.0
H576 H 0.00308 0.5293 0.46887 0.0
H577 H 0.99311 0.55603 0.44338 0.0
H578 H 0.03349 0.56089 0.43978 0.0
H579 H 0.02702 0.55485 0.36877 0.0
H580 H 0.98676 0.55002 0.37215 0.0
H581 H 0.99217 0.51897 0.34936 0.0
H582 H 0.92506 0.4085 0.42089 0.0
H583 H 0.87479 0.4123 0.41527 0.0
H584 H 0.9343 0.51846 0.4076 0.0
C585 C 0.04476 0.5084 0.4021 0.0
C586 C 0.05448 0.48455 0.39979 0.0
C587 C 0.03123 0.45105 0.40627 0.0
C588 C -0.00149 0.44121 0.41385 0.0
C589 C 0.98951 0.4652 0.41524 0.0
C590 C 0.01194 0.49813 0.40981 0.0
C591 C -0.00473 0.51851 0.4097 0.0
C592 C 0.00693 0.54261 0.44239 0.0
C593 C 0.00062 0.53663 0.3728 0.0
C594 C 0.95989 0.4917 0.41439 0.0
C595 C 0.95716 0.46117 0.41796 0.0
C596 C 0.92682 0.4323 0.419 0.0
C597 C 0.89846 0.43467 0.41567 0.0
C598 C 0.90081 0.46567 0.41148 0.0
C599 C 0.93186 0.49452 0.4117 0.0
H600 H 0.55728 0.04471 0.72657 0.0
H601 H 0.50824 0.10176 0.71765 0.0
H602 H 0.45549 0.05075 0.70645 0.0
H603 H 0.51149 0.98654 0.65531 0.0
H604 H 0.51035 0.95237 0.67911 0.0
H605 H 0.54414 0.99339 0.68655 0.0
H606 H 0.53307 0.98736 0.7569 0.0
H607 H 0.49953 0.94622 0.7497 0.0
H608 H 0.4927 0.97589 0.77363 0.0
H609 H 0.40788 0.99293 0.69648 0.0
H610 H 0.36925 0.93297 0.69166 0.0
H611 H 0.45057 0.91519 0.70617 0.0
C612 C 0.53544 0.04649 0.72247 0.0
C613 C 0.53679 0.07711 0.72307 0.0
C614 C 0.5077 0.07846 0.71738 0.0
C615 C 0.47767 0.04967 0.71086 0.0
C616 C 0.47727 0.01985 0.70999 0.0
C617 C 0.50539 0.01811 0.71579 0.0
C618 C 0.49847 0.98313 0.7138 0.0
C619 C 0.51722 0.97861 0.68178 0.0
C620 C 0.5064 0.97254 0.7507 0.0
C621 C 0.46199 0.96539 0.70637 0.0
C622 C 0.45013 0.98689 0.70403 0.0
C623 C 0.41691 0.97585 0.69813 0.0
C624 C 0.3952 0.94183 0.69529 0.0
C625 C 0.40695 0.91951 0.69849 0.0
C626 C 0.44083 0.93163 0.70349 0.0
H627 H 0.50076 0.56895 0.05554 0.0
H628 H 0.39523 0.51576 0.0713 0.0
H629 H 0.3955 0.4631 0.06979 0.0
H630 H 0.50318 0.51276 0.9918 0.0
H631 H 0.54151 0.51834 1.00923 0.0
H632 H 0.53263 0.5513 1.0126 0.0
H633 H 0.54213 0.55439 0.08331 0.0
H634 H 0.55138 0.52169 0.0801 0.0
H635 H 0.51951 0.51782 0.11067 0.0
H636 H 0.40839 0.41618 0.06544 0.0
H637 H 0.43279 0.38016 0.0614 0.0
H638 H 0.52916 0.46623 0.04756 0.0
C639 C 0.47764 0.54632 0.059 0.0
C640 C 0.44799 0.54636 0.06371 0.0
C641 C 0.41827 0.51618 0.06786 0.0
C642 C 0.41819 0.48623 0.06688 0.0
C643 C 0.44799 0.48715 0.06159 0.0
C644 C 0.47712 0.51653 0.05785 0.0
C645 C 0.50591 0.51139 0.05211 0.0
C646 C 0.52172 0.5242 1.01418 0.0
C647 C 0.5312 0.52725 0.08342 0.0
C648 C 0.48864 0.47445 0.05368 0.0
C649 C 0.45523 0.46069 0.05891 0.0
C650 C 0.43452 0.42674 0.06135 0.0
C651 C 0.44853 0.40651 0.05892 0.0
C652 C 0.48283 0.4205 0.05429 0.0
C653 C 0.50287 0.45481 0.05124 0.0
H654 H 0.51942 0.19337 0.21965 0.0
H655 H 0.48839 0.22727 0.3144 0.0
H656 H 0.48154 0.26599 0.27426 0.0
H657 H 0.56664 0.27216 0.17831 0.0
H658 H 0.55632 0.25718 0.13167 0.0
H659 H 0.55678 0.2308 0.16729 0.0
H660 H 0.49673 0.18718 0.15143 0.0
H661 H 0.49601 0.21342 0.11575 0.0
H662 H 0.46551 0.19868 0.15162 0.0
H663 H 0.48059 0.30253 0.22466 0.0
H664 H 0.48658 0.33562 0.16967 0.0
H665 H 0.51818 0.27826 0.10611 0.0
C666 C 0.51071 0.20859 0.23194 0.0
C667 C 0.50404 0.20702 0.27021 0.0
C668 C 0.49338 0.22785 0.28521 0.0
C669 C 0.48942 0.24989 0.26258 0.0
C670 C 0.49633 0.25086 0.22503 0.0
C671 C 0.50684 0.23084 0.20981 0.0
C672 C 0.5142 0.2379 0.16899 0.0
C673 C 0.55064 0.25025 0.16111 0.0
C674 C 0.49177 0.20748 0.14557 0.0
C675 C 0.50603 0.26501 0.16348 0.0
C676 C 0.4958 0.27202 0.19627 0.0
C677 C 0.4883 0.29705 0.19883 0.0
C678 C 0.49182 0.31572 0.16736 0.0
C679 C 0.50255 0.30935 0.13347 0.0
C680 C 0.50929 0.28327 0.1314 0.0
H681 H 0.17113 0.49366 0.48333 0.0
H682 H 0.21346 0.47224 0.3887 0.0
H683 H 0.25444 0.46989 0.43002 0.0
H684 H 0.24464 0.54659 0.52839 0.0
H685 H 0.22911 0.53318 0.57425 0.0
H686 H 0.20162 0.52997 0.5379 0.0
H687 H 0.16508 0.46769 0.55058 0.0
H688 H 0.19241 0.47069 0.58714 0.0
H689 H 0.18309 0.4417 0.55009 0.0
H690 H 0.2944 0.4763 0.48129 0.0
H691 H 0.32827 0.48803 0.53735 0.0
H692 H 0.25836 0.50321 0.59927 0.0
C693 C 0.18865 0.4879 0.47119 0.0
C694 C 0.189 0.483 0.43261 0.0
C695 C 0.21247 0.47572 0.41807 0.0
C696 C 0.23587 0.47447 0.4414 0.0
C697 C 0.23516 0.48013 0.47923 0.0
C698 C 0.21184 0.48633 0.49402 0.0
C699 C 0.217 0.49302 0.53521 0.0
C700 C 0.22348 0.52775 0.54446 0.0
C701 C 0.18765 0.4667 0.55704 0.0
C702 C 0.24741 0.49033 0.54149 0.0
C703 C 0.25748 0.48287 0.5088 0.0
C704 C 0.28632 0.48153 0.50701 0.0
C705 C 0.30543 0.48829 0.53907 0.0
C706 C 0.29569 0.49599 0.57286 0.0
C707 C 0.26596 0.49651 0.57413 0.0
H708 H 0.79616 0.31122 0.89389 0.0
H709 H 0.75339 0.25235 0.99178 0.0
H710 H 0.71316 0.20641 0.95256 0.0
H711 H 0.72258 0.28542 0.84471 0.0
H712 H 0.73946 0.28507 0.80029 0.0
H713 H 0.76567 0.31231 0.8359 0.0
H714 H 0.8038 0.2876 0.82983 0.0
H715 H 0.77762 0.26019 0.79421 0.0
H716 H 0.78683 0.24386 0.83448 0.0
H717 H 0.67424 0.1693 0.90278 0.0
H718 H 0.64131 0.14307 0.84681 0.0
H719 H 0.71195 0.22448 0.78078 0.0
C720 C 0.77852 0.28855 0.90714 0.0
C721 C 0.77787 0.28536 0.94601 0.0
C722 C 0.75443 0.25529 0.96214 0.0
C723 C 0.73151 0.22911 0.94003 0.0
C724 C 0.73272 0.23321 0.9018 0.0
C725 C 0.75587 0.26211 0.88549 0.0
C726 C 0.75158 0.26065 0.84389 0.0
C727 C 0.74439 0.28745 0.83043 0.0
C728 C 0.78176 0.26322 0.82446 0.0
C729 C 0.72188 0.22662 0.83925 0.0
C730 C 0.71134 0.21124 0.87303 0.0
C731 C 0.68274 0.18083 0.87619 0.0
C732 C 0.66423 0.16608 0.84424 0.0
C733 C 0.67455 0.18134 0.8094 0.0
C734 C 0.70408 0.21175 0.80684 0.0
H735 H 0.48246 0.6746 0.16186 0.0
H736 H 0.50511 0.73529 0.06436 0.0
H737 H 0.51383 0.78227 0.1038 0.0
H738 H 0.43707 0.70362 0.20731 0.0
H739 H 0.45141 0.70204 0.25291 0.0
H740 H 0.45047 0.67468 0.2176 0.0
H741 H 0.51239 0.69589 0.22766 0.0
H742 H 0.5135 0.7232 0.26328 0.0
H743 H 0.5413 0.73934 0.22484 0.0
H744 H 0.51212 0.81998 0.15388 0.0
H745 H 0.50442 0.84603 0.20931 0.0
H746 H 0.48675 0.76171 0.27464 0.0
C747 C 0.49 0.69797 0.14871 0.0
C748 C 0.49306 0.70117 0.10982 0.0
C749 C 0.50276 0.73218 0.09394 0.0
C750 C 0.50766 0.75897 0.11623 0.0
C751 C 0.50335 0.75453 0.1544 0.0
C752 C 0.49526 0.72485 0.1705 0.0
C753 C 0.49052 0.72566 0.21184 0.0
C754 C 0.45529 0.69998 0.22305 0.0
C755 C 0.51595 0.72074 0.23316 0.0
C756 C 0.49662 0.76033 0.2167 0.0
C757 C 0.50382 0.77656 0.18321 0.0
C758 C 0.50727 0.8077 0.18024 0.0
C759 C 0.50285 0.82233 0.21194 0.0
C760 C 0.49556 0.80623 0.24652 0.0
C761 C 0.4931 0.77505 0.24891 0.0
H762 H 0.68854 0.46228 0.59506 0.0
H763 H 0.72525 0.56698 0.60012 0.0
H764 H 0.76237 0.57527 0.54735 0.0
H765 H 0.76704 0.46751 0.57044 0.0
H766 H 0.74661 0.43155 0.54147 0.0
H767 H 0.72587 0.43555 0.58108 0.0
H768 H 0.67779 0.42706 0.53891 0.0
H769 H 0.69872 0.42399 0.49901 0.0
H770 H 0.68582 0.45417 0.50035 0.0
H771 H 0.79113 0.56997 0.48839 0.0
H772 H 0.81393 0.55292 0.43656 0.0
H773 H 0.75856 0.45197 0.47377 0.0
C774 C 0.70527 0.4871 0.58595 0.0
C775 C 0.70471 0.51411 0.6021 0.0
C776 C 0.72607 0.54612 0.58867 0.0
C777 C 0.74689 0.55092 0.55847 0.0
C778 C 0.74612 0.52344 0.5424 0.0
C779 C 0.72629 0.49225 0.55642 0.0
C780 C 0.7291 0.46648 0.53434 0.0
C781 C 0.74299 0.44927 0.55825 0.0
C782 C 0.69588 0.44147 0.51714 0.0
C783 C 0.75328 0.4878 0.50518 0.0
C784 C 0.76275 0.52058 0.50982 0.0
C785 C 0.7841 0.5444 0.48493 0.0
C786 C 0.7967 0.53451 0.45535 0.0
C787 C 0.78809 0.50117 0.45122 0.0
C788 C 0.7658 0.4777 0.47631 0.0
H789 H 0.17665 0.65862 0.86602 0.0
H790 H 0.19201 0.72499 0.95675 0.0
H791 H 0.22833 0.77234 0.91678 0.0
H792 H 0.25735 0.70001 0.8321 0.0
H793 H 0.24567 0.69188 0.78428 0.0
H794 H 0.21937 0.66395 0.81912 0.0
H795 H 0.171 0.67049 0.79546 0.0
H796 H 0.19713 0.69834 0.76037 0.0
H797 H 0.17598 0.71099 0.7919 0.0
H798 H 0.2683 0.81163 0.86813 0.0
H799 H 0.30452 0.83943 0.815 0.0
H800 H 0.25937 0.74735 0.75473 0.0
C801 C 0.18718 0.68315 0.87746 0.0
C802 C 0.18136 0.68808 0.91463 0.0
C803 C 0.1958 0.72059 0.92837 0.0
C804 C 0.21658 0.74758 0.90584 0.0
C805 C 0.22228 0.74167 0.86949 0.0
C806 C 0.20756 0.71017 0.85533 0.0
C807 C 0.21824 0.70999 0.81588 0.0
C808 C 0.23621 0.6903 0.81268 0.0
C809 C 0.18883 0.69667 0.78933 0.0
C810 C 0.24158 0.74636 0.80985 0.0
C811 C 0.24387 0.76422 0.84122 0.0
C812 C 0.2661 0.79788 0.8433 0.0
C813 C 0.28661 0.81348 0.81293 0.0
C814 C 0.28453 0.79573 0.78044 0.0
C815 C 0.26118 0.76179 0.77879 0.0
loop_
_geom_bond_atom_site_label_1
_geom_bond_atom_site_label_2
_geom_bond_distance
_geom_bond_site_symmetry_2
_ccdc_geom_bond_type
Co0 O1 2.216 . S
Co0 O2 2.091 . S
Co0 O4 2.004 . S
Co0 O10 2.021 . S
Co0 O12 2.137 . S
Co0 O13 2.244 . S
O1 Co0 2.216 . S
O1 C8 1.247 . S
O2 Co0 2.091 . S
O2 C8 1.261 . S
C3 O12 1.247 . S
C3 O13 1.272 . S
O4 Co0 2.004 . S
O4 C9 1.259 . S
Co5 O6 2.061 . S
Co5 O11 2.052 . S
Co5 O13 2.135 . S
O6 Co5 2.061 . S
O6 C9 1.235 . S
C7 O10 1.238 . S
C7 O11 1.241 . S
C8 O1 1.247 . S
C8 O2 1.261 . S
C9 O4 1.259 . S
C9 O6 1.235 . S
O10 Co0 2.021 . S
O10 C7 1.238 . S
O11 Co5 2.052 . S
O11 C7 1.241 . S
O12 Co0 2.137 . S
O12 C3 1.247 . S
O13 Co0 2.244 . S
O13 C3 1.272 . S
O13 Co5 2.135 . S
Co14 O15 2.216 . S
Co14 O16 2.091 . S
Co14 O18 2.004 . S
Co14 O24 2.021 . S
Co14 O26 2.137 . S
Co14 O27 2.244 . S
O15 Co14 2.216 . S
O15 C22 1.247 . S
O16 Co14 2.091 . S
O16 C22 1.261 . S
C17 O26 1.247 . S
C17 O27 1.272 . S
O18 Co14 2.004 . S
O18 C23 1.259 . S
Co19 O20 2.061 . S
Co19 O25 2.052 . S
Co19 O27 2.135 . S
O20 Co19 2.061 . S
O20 C23 1.235 . S
C21 O24 1.238 . S
C21 O25 1.241 . S
C22 O15 1.247 . S
C22 O16 1.261 . S
C23 O18 1.259 . S
C23 O20 1.235 . S
O24 Co14 2.021 . S
O24 C21 1.238 . S
O25 Co19 2.052 . S
O25 C21 1.241 . S
O26 Co14 2.137 . S
O26 C17 1.247 . S
O27 Co14 2.244 . S
O27 C17 1.272 . S
O27 Co19 2.135 . S
Co28 O29 2.216 . S
Co28 O30 2.091 . S
Co28 O32 2.004 . S
Co28 O38 2.021 1_556 S
Co28 O40 2.137 . S
Co28 O41 2.244 . S
O29 Co28 2.216 . S
O29 C36 1.247 . S
O30 Co28 2.091 . S
O30 C36 1.261 . S
C31 O40 1.247 . S
C31 O41 1.272 . S
O32 Co28 2.004 . S
O32 C37 1.259 . S
Co33 O34 2.061 . S
Co33 O39 2.052 . S
Co33 O41 2.135 1_554 S
O34 Co33 2.061 . S
O34 C37 1.235 1_554 S
C35 O38 1.238 . S
C35 O39 1.241 . S
C36 O29 1.247 . S
C36 O30 1.261 . S
C37 O32 1.259 . S
C37 O34 1.235 1_556 S
O38 Co28 2.021 1_554 S
O38 C35 1.238 . S
O39 Co33 2.052 . S
O39 C35 1.241 . S
O40 Co28 2.137 . S
O40 C31 1.247 . S
O41 Co28 2.244 . S
O41 C31 1.272 . S
O41 Co33 2.135 1_556 S
Co42 O43 2.216 . S
Co42 O44 2.091 . S
Co42 O46 2.004 . S
Co42 O52 2.021 . S
Co42 O54 2.137 . S
Co42 O55 2.244 . S
O43 Co42 2.216 . S
O43 C50 1.247 . S
O44 Co42 2.091 . S
O44 C50 1.261 . S
C45 O54 1.247 . S
C45 O55 1.272 . S
O46 Co42 2.004 . S
O46 C51 1.259 . S
Co47 O48 2.061 . S
Co47 O53 2.052 . S
Co47 O55 2.135 . S
O48 Co47 2.061 . S
O48 C51 1.235 . S
C49 O52 1.238 . S
C49 O53 1.241 . S
C50 O43 1.247 . S
C50 O44 1.261 . S
C51 O46 1.259 . S
C51 O48 1.235 . S
O52 Co42 2.021 . S
O52 C49 1.238 . S
O53 Co47 2.052 . S
O53 C49 1.241 . S
O54 Co42 2.137 . S
O54 C45 1.247 . S
O55 Co42 2.244 . S
O55 C45 1.272 . S
O55 Co47 2.135 . S
Co56 O57 2.216 . S
Co56 O58 2.091 . S
Co56 O60 2.004 . S
Co56 O66 2.021 . S
Co56 O68 2.137 . S
Co56 O69 2.244 . S
O57 Co56 2.216 . S
O57 C64 1.247 . S
O58 Co56 2.091 . S
O58 C64 1.261 . S
C59 O68 1.247 . S
C59 O69 1.272 . S
O60 Co56 2.004 . S
O60 C65 1.259 . S
Co61 O62 2.061 . S
Co61 O67 2.052 . S
Co61 O69 2.135 . S
O62 Co61 2.061 . S
O62 C65 1.235 . S
C63 O66 1.238 . S
C63 O67 1.241 . S
C64 O57 1.247 . S
C64 O58 1.261 . S
C65 O60 1.259 . S
C65 O62 1.235 . S
O66 Co56 2.021 . S
O66 C63 1.238 . S
O67 Co61 2.052 . S
O67 C63 1.241 . S
O68 Co56 2.137 . S
O68 C59 1.247 . S
O69 Co56 2.244 . S
O69 C59 1.272 . S
O69 Co61 2.135 . S
Co70 O71 2.216 . S
Co70 O72 2.091 . S
Co70 O74 2.004 . S
Co70 O80 2.021 1_556 S
Co70 O82 2.137 . S
Co70 O83 2.244 . S
O71 Co70 2.216 . S
O71 C78 1.247 . S
O72 Co70 2.091 . S
O72 C78 1.261 . S
C73 O82 1.247 . S
C73 O83 1.272 . S
O74 Co70 2.004 . S
O74 C79 1.259 . S
Co75 O76 2.061 . S
Co75 O81 2.052 . S
Co75 O83 2.135 1_554 S
O76 Co75 2.061 . S
O76 C79 1.235 1_554 S
C77 O80 1.238 . S
C77 O81 1.241 . S
C78 O71 1.247 . S
C78 O72 1.261 . S
C79 O74 1.259 . S
C79 O76 1.235 1_556 S
O80 Co70 2.021 1_554 S
O80 C77 1.238 . S
O81 Co75 2.052 . S
O81 C77 1.241 . S
O82 Co70 2.137 . S
O82 C73 1.247 . S
O83 Co70 2.244 . S
O83 C73 1.272 . S
O83 Co75 2.135 1_556 S
Co84 O85 2.216 . S
Co84 O86 2.091 . S
Co84 O88 2.004 . S
Co84 O94 2.021 . S
Co84 O96 2.137 . S
Co84 O97 2.244 . S
O85 Co84 2.216 . S
O85 C92 1.247 . S
O86 Co84 2.091 . S
O86 C92 1.261 . S
C87 O96 1.247 . S
C87 O97 1.272 . S
O88 Co84 2.004 . S
O88 C93 1.259 . S
Co89 O90 2.061 . S
Co89 O95 2.052 . S
Co89 O97 2.135 . S
O90 Co89 2.061 . S
O90 C93 1.235 . S
C91 O94 1.238 . S
C91 O95 1.241 . S
C92 O85 1.247 . S
C92 O86 1.261 . S
C93 O88 1.259 . S
C93 O90 1.235 . S
O94 Co84 2.021 . S
O94 C91 1.238 . S
O95 Co89 2.052 . S
O95 C91 1.241 . S
O96 Co84 2.137 . S
O96 C87 1.247 . S
O97 Co84 2.244 . S
O97 C87 1.272 . S
O97 Co89 2.135 . S
Co98 O99 2.216 . S
Co98 O100 2.091 . S
Co98 O102 2.004 . S
Co98 O108 2.021 . S
Co98 O110 2.137 . S
Co98 O111 2.244 . S
O99 Co98 2.216 . S
O99 C106 1.247 . S
O100 Co98 2.091 . S
O100 C106 1.261 . S
C101 O110 1.247 . S
C101 O111 1.272 . S
O102 Co98 2.004 . S
O102 C107 1.259 . S
Co103 O104 2.061 . S
Co103 O109 2.052 . S
Co103 O111 2.135 . S
O104 Co103 2.061 . S
O104 C107 1.235 . S
C105 O108 1.238 . S
C105 O109 1.241 . S
C106 O99 1.247 . S
C106 O100 1.261 . S
C107 O102 1.259 . S
C107 O104 1.235 . S
O108 Co98 2.021 . S
O108 C105 1.238 . S
O109 Co103 2.052 . S
O109 C105 1.241 . S
O110 Co98 2.137 . S
O110 C101 1.247 . S
O111 Co98 2.244 . S
O111 C101 1.272 . S
O111 Co103 2.135 . S
Co112 O113 2.216 . S
Co112 O114 2.091 . S
Co112 O116 2.004 . S
Co112 O122 2.021 1_554 S
Co112 O124 2.137 . S
Co112 O125 2.244 . S
O113 Co112 2.216 . S
O113 C120 1.247 . S
O114 Co112 2.091 . S
O114 C120 1.261 . S
C115 O124 1.247 . S
C115 O125 1.272 . S
O116 Co112 2.004 . S
O116 C121 1.259 . S
Co117 O118 2.061 1_556 S
Co117 O123 2.052 . S
Co117 O125 2.135 1_556 S
O118 Co117 2.061 1_554 S
O118 C121 1.235 . S
C119 O122 1.238 . S
C119 O123 1.241 . S
C120 O113 1.247 . S
C120 O114 1.261 . S
C121 O116 1.259 . S
C121 O118 1.235 . S
O122 Co112 2.021 1_556 S
O122 C119 1.238 . S
O123 Co117 2.052 . S
O123 C119 1.241 . S
O124 Co112 2.137 . S
O124 C115 1.247 . S
O125 Co112 2.244 . S
O125 C115 1.272 . S
O125 Co117 2.135 1_554 S
Co126 O127 2.216 . S
Co126 O128 2.091 . S
Co126 O130 2.004 . S
Co126 O136 2.021 . S
Co126 O138 2.137 . S
Co126 O139 2.244 . S
O127 Co126 2.216 . S
O127 C134 1.247 . S
O128 Co126 2.091 . S
O128 C134 1.261 . S
C129 O138 1.247 . S
C129 O139 1.272 . S
O130 Co126 2.004 . S
O130 C135 1.259 . S
Co131 O132 2.061 . S
Co131 O137 2.052 . S
Co131 O139 2.135 . S
O132 Co131 2.061 . S
O132 C135 1.235 . S
C133 O136 1.238 . S
C133 O137 1.241 . S
C134 O127 1.247 . S
C134 O128 1.261 . S
C135 O130 1.259 . S
C135 O132 1.235 . S
O136 Co126 2.021 . S
O136 C133 1.238 . S
O137 Co131 2.052 . S
O137 C133 1.241 . S
O138 Co126 2.137 . S
O138 C129 1.247 . S
O139 Co126 2.244 . S
O139 C129 1.272 . S
O139 Co131 2.135 . S
Co140 O141 2.216 . S
Co140 O142 2.091 . S
Co140 O144 2.004 . S
Co140 O150 2.021 . S
Co140 O152 2.137 . S
Co140 O153 2.244 . S
O141 Co140 2.216 . S
O141 C148 1.247 . S
O142 Co140 2.091 . S
O142 C148 1.261 . S
C143 O152 1.247 . S
C143 O153 1.272 . S
O144 Co140 2.004 . S
O144 C149 1.259 . S
Co145 O146 2.061 . S
Co145 O151 2.052 . S
Co145 O153 2.135 . S
O146 Co145 2.061 . S
O146 C149 1.235 . S
C147 O150 1.238 . S
C147 O151 1.241 . S
C148 O141 1.247 . S
C148 O142 1.261 . S
C149 O144 1.259 . S
C149 O146 1.235 . S
O150 Co140 2.021 . S
O150 C147 1.238 . S
O151 Co145 2.052 . S
O151 C147 1.241 . S
O152 Co140 2.137 . S
O152 C143 1.247 . S
O153 Co140 2.244 . S
O153 C143 1.272 . S
O153 Co145 2.135 . S
Co154 O155 2.216 . S
Co154 O156 2.091 . S
Co154 O158 2.004 . S
Co154 O164 2.021 1_554 S
Co154 O166 2.137 . S
Co154 O167 2.244 . S
O155 Co154 2.216 . S
O155 C162 1.247 . S
O156 Co154 2.091 . S
O156 C162 1.261 . S
C157 O166 1.247 . S
C157 O167 1.272 . S
O158 Co154 2.004 . S
O158 C163 1.259 . S
Co159 O160 2.061 1_556 S
Co159 O165 2.052 . S
Co159 O167 2.135 1_556 S
O160 Co159 2.061 1_554 S
O160 C163 1.235 . S
C161 O164 1.238 . S
C161 O165 1.241 . S
C162 O155 1.247 . S
C162 O156 1.261 . S
C163 O158 1.259 . S
C163 O160 1.235 . S
O164 Co154 2.021 1_556 S
O164 C161 1.238 . S
O165 Co159 2.052 . S
O165 C161 1.241 . S
O166 Co154 2.137 . S
O166 C157 1.247 . S
O167 Co154 2.244 . S
O167 C157 1.272 . S
O167 Co159 2.135 1_554 S
H168 C180 0.930 . S
H169 C182 0.930 . S
H170 C183 0.930 . S
H171 C187 0.959 . S
H172 C187 0.959 . S
H173 C187 0.961 . S
H174 C188 0.960 . S
H175 C188 0.961 . S
H176 C188 0.959 . S
H177 C191 0.929 . S
H178 C192 0.931 . S
H179 C194 0.930 . S
C180 H168 0.930 . S
C180 C181 1.399 . S
C180 C185 1.399 . S
C181 C180 1.399 . S
C181 C182 1.376 . S
C182 H169 0.930 . S
C182 C181 1.376 . S
C182 C183 1.388 . S
C183 H170 0.930 . S
C183 C182 1.388 . S
C183 C184 1.390 . S
C184 C183 1.390 . S
C184 C185 1.394 . S
C184 C190 1.465 . S
C185 C180 1.399 . S
C185 C184 1.394 . S
C185 C186 1.516 . S
C186 C185 1.516 . S
C186 C187 1.502 . S
C186 C188 1.561 . S
C186 C189 1.526 . S
C187 H171 0.959 . S
C187 H172 0.959 . S
C187 H173 0.961 . S
C187 C186 1.502 . S
C188 H174 0.960 . S
C188 H175 0.961 . S
C188 H176 0.959 . S
C188 C186 1.561 . S
C189 C186 1.526 . S
C189 C190 1.396 . S
C189 C194 1.390 . S
C190 C184 1.465 . S
C190 C189 1.396 . S
C190 C191 1.399 . S
C191 H177 0.929 . S
C191 C190 1.399 . S
C191 C192 1.385 . S
C192 H178 0.931 . S
C192 C191 1.385 . S
C192 C193 1.389 . S
C193 C192 1.389 . S
C193 C194 1.387 . S
C194 H179 0.930 . S
C194 C189 1.390 . S
C194 C193 1.387 . S
H195 C207 0.930 . S
H196 C209 0.930 . S
H197 C210 0.930 . S
H198 C214 0.959 . S
H199 C214 0.959 . S
H200 C214 0.961 . S
H201 C215 0.960 . S
H202 C215 0.961 . S
H203 C215 0.959 . S
H204 C218 0.929 . S
H205 C219 0.931 . S
H206 C221 0.930 . S
C207 H195 0.930 . S
C207 C208 1.399 . S
C207 C212 1.399 . S
C208 C207 1.399 . S
C208 C209 1.376 . S
C209 H196 0.930 . S
C209 C208 1.376 . S
C209 C210 1.388 . S
C210 H197 0.930 . S
C210 C209 1.388 . S
C210 C211 1.390 . S
C211 C210 1.390 . S
C211 C212 1.394 . S
C211 C217 1.465 . S
C212 C207 1.399 . S
C212 C211 1.394 . S
C212 C213 1.516 . S
C213 C212 1.516 . S
C213 C214 1.502 . S
C213 C215 1.561 . S
C213 C216 1.526 . S
C214 H198 0.959 . S
C214 H199 0.959 . S
C214 H200 0.961 . S
C214 C213 1.502 . S
C215 H201 0.960 . S
C215 H202 0.961 . S
C215 H203 0.959 . S
C215 C213 1.561 . S
C216 C213 1.526 . S
C216 C217 1.396 . S
C216 C221 1.390 . S
C217 C211 1.465 . S
C217 C216 1.396 . S
C217 C218 1.399 . S
C218 H204 0.929 . S
C218 C217 1.399 . S
C218 C219 1.385 . S
C219 H205 0.931 . S
C219 C218 1.385 . S
C219 C220 1.389 . S
C220 C219 1.389 . S
C220 C221 1.387 . S
C221 H206 0.930 . S
C221 C216 1.390 . S
C221 C220 1.387 . S
H222 C234 0.930 . S
H223 C236 0.930 . S
H224 C237 0.930 . S
H225 C241 0.959 . S
H226 C241 0.959 . S
H227 C241 0.961 . S
H228 C242 0.960 . S
H229 C242 0.961 . S
H230 C242 0.959 . S
H231 C245 0.929 . S
H232 C246 0.931 . S
H233 C248 0.930 . S
C234 H222 0.930 . S
C234 C235 1.399 . S
C234 C239 1.399 . S
C235 C234 1.399 . S
C235 C236 1.376 . S
C236 H223 0.930 . S
C236 C235 1.376 . S
C236 C237 1.388 . S
C237 H224 0.930 . S
C237 C236 1.388 . S
C237 C238 1.390 . S
C238 C237 1.390 . S
C238 C239 1.394 . S
C238 C244 1.465 . S
C239 C234 1.399 . S
C239 C238 1.394 . S
C239 C240 1.516 . S
C240 C239 1.516 . S
C240 C241 1.502 . S
C240 C242 1.561 . S
C240 C243 1.526 . S
C241 H225 0.959 . S
C241 H226 0.959 . S
C241 H227 0.961 . S
C241 C240 1.502 . S
C242 H228 0.960 . S
C242 H229 0.961 . S
C242 H230 0.959 . S
C242 C240 1.561 . S
C243 C240 1.526 . S
C243 C244 1.396 . S
C243 C248 1.390 . S
C244 C238 1.465 . S
C244 C243 1.396 . S
C244 C245 1.399 . S
C245 H231 0.929 . S
C245 C244 1.399 . S
C245 C246 1.385 . S
C246 H232 0.931 . S
C246 C245 1.385 . S
C246 C247 1.389 . S
C247 C246 1.389 . S
C247 C248 1.387 . S
C248 H233 0.930 . S
C248 C243 1.390 . S
C248 C247 1.387 . S
H249 C261 0.930 . S
H250 C263 0.930 . S
H251 C264 0.930 . S
H252 C268 0.959 . S
H253 C268 0.959 . S
H254 C268 0.961 . S
H255 C269 0.960 . S
H256 C269 0.961 . S
H257 C269 0.959 . S
H258 C272 0.929 . S
H259 C273 0.931 . S
H260 C275 0.930 . S
C261 H249 0.930 . S
C261 C262 1.399 . S
C261 C266 1.399 . S
C262 C261 1.399 . S
C262 C263 1.376 . S
C263 H250 0.930 . S
C263 C262 1.376 . S
C263 C264 1.388 . S
C264 H251 0.930 . S
C264 C263 1.388 . S
C264 C265 1.390 . S
C265 C264 1.390 . S
C265 C266 1.394 . S
C265 C271 1.465 . S
C266 C261 1.399 . S
C266 C265 1.394 . S
C266 C267 1.516 . S
C267 C266 1.516 . S
C267 C268 1.502 . S
C267 C269 1.561 . S
C267 C270 1.526 . S
C268 H252 0.959 . S
C268 H253 0.959 . S
C268 H254 0.961 . S
C268 C267 1.502 . S
C269 H255 0.960 . S
C269 H256 0.961 . S
C269 H257 0.959 . S
C269 C267 1.561 . S
C270 C267 1.526 . S
C270 C271 1.396 . S
C270 C275 1.390 . S
C271 C265 1.465 . S
C271 C270 1.396 . S
C271 C272 1.399 . S
C272 H258 0.929 . S
C272 C271 1.399 . S
C272 C273 1.385 . S
C273 H259 0.931 . S
C273 C272 1.385 . S
C273 C274 1.389 . S
C274 C273 1.389 . S
C274 C275 1.387 . S
C275 H260 0.930 . S
C275 C270 1.390 . S
C275 C274 1.387 . S
H276 C288 0.930 . S
H277 C290 0.930 . S
H278 C291 0.930 . S
H279 C295 0.959 . S
H280 C295 0.959 . S
H281 C295 0.961 . S
H282 C296 0.960 . S
H283 C296 0.961 . S
H284 C296 0.959 . S
H285 C299 0.929 . S
H286 C300 0.931 . S
H287 C302 0.930 . S
C288 H276 0.930 . S
C288 C289 1.399 . S
C288 C293 1.399 . S
C289 C288 1.399 . S
C289 C290 1.376 . S
C290 H277 0.930 . S
C290 C289 1.376 . S
C290 C291 1.388 . S
C291 H278 0.930 . S
C291 C290 1.388 . S
C291 C292 1.390 . S
C292 C291 1.390 . S
C292 C293 1.394 . S
C292 C298 1.465 . S
C293 C288 1.399 . S
C293 C292 1.394 . S
C293 C294 1.516 . S
C294 C293 1.516 . S
C294 C295 1.502 . S
C294 C296 1.561 . S
C294 C297 1.526 . S
C295 H279 0.959 . S
C295 H280 0.959 . S
C295 H281 0.961 . S
C295 C294 1.502 . S
C296 H282 0.960 . S
C296 H283 0.961 . S
C296 H284 0.959 . S
C296 C294 1.561 . S
C297 C294 1.526 . S
C297 C298 1.396 . S
C297 C302 1.390 . S
C298 C292 1.465 . S
C298 C297 1.396 . S
C298 C299 1.399 . S
C299 H285 0.929 . S
C299 C298 1.399 . S
C299 C300 1.385 . S
C300 H286 0.931 . S
C300 C299 1.385 . S
C300 C301 1.389 . S
C301 C300 1.389 . S
C301 C302 1.387 . S
C302 H287 0.930 . S
C302 C297 1.390 . S
C302 C301 1.387 . S
H303 C315 0.930 . S
H304 C317 0.930 . S
H305 C318 0.930 . S
H306 C322 0.959 . S
H307 C322 0.959 . S
H308 C322 0.961 . S
H309 C323 0.960 . S
H310 C323 0.961 . S
H311 C323 0.959 . S
H312 C326 0.929 . S
H313 C327 0.931 . S
H314 C329 0.930 . S
C315 H303 0.930 . S
C315 C316 1.399 . S
C315 C320 1.399 . S
C316 C315 1.399 . S
C316 C317 1.376 . S
C317 H304 0.930 . S
C317 C316 1.376 . S
C317 C318 1.388 . S
C318 H305 0.930 . S
C318 C317 1.388 . S
C318 C319 1.390 . S
C319 C318 1.390 . S
C319 C320 1.394 . S
C319 C325 1.465 . S
C320 C315 1.399 . S
C320 C319 1.394 . S
C320 C321 1.516 . S
C321 C320 1.516 . S
C321 C322 1.502 . S
C321 C323 1.561 . S
C321 C324 1.526 . S
C322 H306 0.959 . S
C322 H307 0.959 . S
C322 H308 0.961 . S
C322 C321 1.502 . S
C323 H309 0.960 . S
C323 H310 0.961 . S
C323 H311 0.959 . S
C323 C321 1.561 . S
C324 C321 1.526 . S
C324 C325 1.396 . S
C324 C329 1.390 . S
C325 C319 1.465 . S
C325 C324 1.396 . S
C325 C326 1.399 . S
C326 H312 0.929 . S
C326 C325 1.399 . S
C326 C327 1.385 . S
C327 H313 0.931 . S
C327 C326 1.385 . S
C327 C328 1.389 . S
C328 C327 1.389 . S
C328 C329 1.387 . S
C329 H314 0.930 . S
C329 C324 1.390 . S
C329 C328 1.387 . S
H330 C342 0.930 . S
H331 C344 0.930 . S
H332 C345 0.930 . S
H333 C349 0.959 . S
H334 C349 0.959 . S
H335 C349 0.961 . S
H336 C350 0.960 . S
H337 C350 0.961 . S
H338 C350 0.959 . S
H339 C353 0.929 . S
H340 C354 0.931 . S
H341 C356 0.930 . S
C342 H330 0.930 . S
C342 C343 1.399 . S
C342 C347 1.399 . S
C343 C342 1.399 . S
C343 C344 1.376 . S
C344 H331 0.930 . S
C344 C343 1.376 . S
C344 C345 1.388 . S
C345 H332 0.930 . S
C345 C344 1.388 . S
C345 C346 1.390 . S
C346 C345 1.390 . S
C346 C347 1.394 . S
C346 C352 1.465 . S
C347 C342 1.399 . S
C347 C346 1.394 . S
C347 C348 1.516 . S
C348 C347 1.516 . S
C348 C349 1.502 . S
C348 C350 1.561 . S
C348 C351 1.526 . S
C349 H333 0.959 . S
C349 H334 0.959 . S
C349 H335 0.961 . S
C349 C348 1.502 . S
C350 H336 0.960 . S
C350 H337 0.961 . S
C350 H338 0.959 . S
C350 C348 1.561 . S
C351 C348 1.526 . S
C351 C352 1.396 . S
C351 C356 1.390 . S
C352 C346 1.465 . S
C352 C351 1.396 . S
C352 C353 1.399 . S
C353 H339 0.929 . S
C353 C352 1.399 . S
C353 C354 1.385 . S
C354 H340 0.931 . S
C354 C353 1.385 . S
C354 C355 1.389 . S
C355 C354 1.389 . S
C355 C356 1.387 . S
C356 H341 0.930 . S
C356 C351 1.390 . S
C356 C355 1.387 . S
H357 C369 0.930 . S
H358 C371 0.930 . S
H359 C372 0.930 . S
H360 C376 0.959 . S
H361 C376 0.959 . S
H362 C376 0.961 . S
H363 C377 0.960 . S
H364 C377 0.961 . S
H365 C377 0.959 . S
H366 C380 0.929 . S
H367 C381 0.931 . S
H368 C383 0.930 . S
C369 H357 0.930 . S
C369 C370 1.399 . S
C369 C374 1.399 . S
C370 C369 1.399 . S
C370 C371 1.376 . S
C371 H358 0.930 . S
C371 C370 1.376 . S
C371 C372 1.388 . S
C372 H359 0.930 . S
C372 C371 1.388 . S
C372 C373 1.390 . S
C373 C372 1.390 . S
C373 C374 1.394 . S
C373 C379 1.465 . S
C374 C369 1.399 . S
C374 C373 1.394 . S
C374 C375 1.516 . S
C375 C374 1.516 . S
C375 C376 1.502 . S
C375 C377 1.561 . S
C375 C378 1.526 . S
C376 H360 0.959 . S
C376 H361 0.959 . S
C376 H362 0.961 . S
C376 C375 1.502 . S
C377 H363 0.960 . S
C377 H364 0.961 . S
C377 H365 0.959 . S
C377 C375 1.561 . S
C378 C375 1.526 . S
C378 C379 1.396 . S
C378 C383 1.390 . S
C379 C373 1.465 . S
C379 C378 1.396 . S
C379 C380 1.399 . S
C380 H366 0.929 . S
C380 C379 1.399 . S
C380 C381 1.385 . S
C381 H367 0.931 . S
C381 C380 1.385 . S
C381 C382 1.389 . S
C382 C381 1.389 . S
C382 C383 1.387 . S
C383 H368 0.930 . S
C383 C378 1.390 . S
C383 C382 1.387 . S
H384 C396 0.930 1_556 S
H385 C398 0.930 . S
H386 C399 0.930 . S
H387 C403 0.959 . S
H388 C403 0.959 . S
H389 C403 0.961 . S
H390 C404 0.960 . S
H391 C404 0.961 . S
H392 C404 0.959 1_554 S
H393 C407 0.929 . S
H394 C408 0.931 . S
H395 C410 0.930 . S
C396 H384 0.930 1_554 S
C396 C397 1.399 . S
C396 C401 1.399 . S
C397 C396 1.399 . S
C397 C398 1.376 . S
C398 H385 0.930 . S
C398 C397 1.376 . S
C398 C399 1.388 . S
C399 H386 0.930 . S
C399 C398 1.388 . S
C399 C400 1.390 . S
C400 C399 1.390 . S
C400 C401 1.394 . S
C400 C406 1.465 . S
C401 C396 1.399 . S
C401 C400 1.394 . S
C401 C402 1.516 1_554 S
C402 C401 1.516 1_556 S
C402 C403 1.502 . S
C402 C404 1.561 . S
C402 C405 1.526 . S
C403 H387 0.959 . S
C403 H388 0.959 . S
C403 H389 0.961 . S
C403 C402 1.502 . S
C404 H390 0.960 . S
C404 H391 0.961 . S
C404 H392 0.959 1_556 S
C404 C402 1.561 . S
C405 C402 1.526 . S
C405 C406 1.396 1_556 S
C405 C410 1.390 . S
C406 C400 1.465 . S
C406 C405 1.396 1_554 S
C406 C407 1.399 . S
C407 H393 0.929 . S
C407 C406 1.399 . S
C407 C408 1.385 . S
C408 H394 0.931 . S
C408 C407 1.385 . S
C408 C409 1.389 1_554 S
C409 C408 1.389 1_556 S
C409 C410 1.387 . S
C410 H395 0.930 . S
C410 C405 1.390 . S
C410 C409 1.387 . S
H411 C423 0.930 . S
H412 C425 0.930 . S
H413 C426 0.930 . S
H414 C430 0.959 . S
H415 C430 0.959 . S
H416 C430 0.961 . S
H417 C431 0.960 . S
H418 C431 0.961 . S
H419 C431 0.959 . S
H420 C434 0.929 . S
H421 C435 0.931 . S
H422 C437 0.930 . S
C423 H411 0.930 . S
C423 C424 1.399 . S
C423 C428 1.399 . S
C424 C423 1.399 . S
C424 C425 1.376 . S
C425 H412 0.930 . S
C425 C424 1.376 . S
C425 C426 1.388 . S
C426 H413 0.930 . S
C426 C425 1.388 . S
C426 C427 1.390 . S
C427 C426 1.390 . S
C427 C428 1.394 . S
C427 C433 1.465 . S
C428 C423 1.399 . S
C428 C427 1.394 . S
C428 C429 1.516 . S
C429 C428 1.516 . S
C429 C430 1.502 . S
C429 C431 1.561 . S
C429 C432 1.526 . S
C430 H414 0.959 . S
C430 H415 0.959 . S
C430 H416 0.961 . S
C430 C429 1.502 . S
C431 H417 0.960 . S
C431 H418 0.961 . S
C431 H419 0.959 . S
C431 C429 1.561 . S
C432 C429 1.526 . S
C432 C433 1.396 . S
C432 C437 1.390 . S
C433 C427 1.465 . S
C433 C432 1.396 . S
C433 C434 1.399 . S
C434 H420 0.929 . S
C434 C433 1.399 . S
C434 C435 1.385 . S
C435 H421 0.931 . S
C435 C434 1.385 . S
C435 C436 1.389 . S
C436 C435 1.389 . S
C436 C437 1.387 . S
C437 H422 0.930 . S
C437 C432 1.390 . S
C437 C436 1.387 . S
H438 C450 0.930 . S
H439 C452 0.930 . S
H440 C453 0.930 . S
H441 C457 0.959 . S
H442 C457 0.959 . S
H443 C457 0.961 . S
H444 C458 0.960 . S
H445 C458 0.961 . S
H446 C458 0.959 . S
H447 C461 0.929 . S
H448 C462 0.931 . S
H449 C464 0.930 . S
C450 H438 0.930 . S
C450 C451 1.399 . S
C450 C455 1.399 . S
C451 C450 1.399 . S
C451 C452 1.376 . S
C452 H439 0.930 . S
C452 C451 1.376 . S
C452 C453 1.388 . S
C453 H440 0.930 . S
C453 C452 1.388 . S
C453 C454 1.390 . S
C454 C453 1.390 . S
C454 C455 1.394 . S
C454 C460 1.465 . S
C455 C450 1.399 . S
C455 C454 1.394 . S
C455 C456 1.516 . S
C456 C455 1.516 . S
C456 C457 1.502 . S
C456 C458 1.561 . S
C456 C459 1.526 . S
C457 H441 0.959 . S
C457 H442 0.959 . S
C457 H443 0.961 . S
C457 C456 1.502 . S
C458 H444 0.960 . S
C458 H445 0.961 . S
C458 H446 0.959 . S
C458 C456 1.561 . S
C459 C456 1.526 . S
C459 C460 1.396 . S
C459 C464 1.390 . S
C460 C454 1.465 . S
C460 C459 1.396 . S
C460 C461 1.399 . S
C461 H447 0.929 . S
C461 C460 1.399 . S
C461 C462 1.385 . S
C462 H448 0.931 . S
C462 C461 1.385 . S
C462 C463 1.389 . S
C463 C462 1.389 . S
C463 C464 1.387 . S
C464 H449 0.930 . S
C464 C459 1.390 . S
C464 C463 1.387 . S
H465 C477 0.930 . S
H466 C479 0.930 . S
H467 C480 0.930 . S
H468 C484 0.959 . S
H469 C484 0.959 . S
H470 C484 0.961 . S
H471 C485 0.960 . S
H472 C485 0.961 . S
H473 C485 0.959 . S
H474 C488 0.929 . S
H475 C489 0.931 . S
H476 C491 0.930 . S
C477 H465 0.930 . S
C477 C478 1.399 . S
C477 C482 1.399 . S
C478 C477 1.399 . S
C478 C479 1.376 . S
C479 H466 0.930 . S
C479 C478 1.376 . S
C479 C480 1.388 . S
C480 H467 0.930 . S
C480 C479 1.388 . S
C480 C481 1.391 . S
C481 C480 1.391 . S
C481 C482 1.395 . S
C481 C487 1.463 1_556 S
C482 C477 1.399 . S
C482 C481 1.395 . S
C482 C483 1.515 1_556 S
C483 C482 1.515 1_554 S
C483 C484 1.508 . S
C483 C485 1.553 1_554 S
C483 C486 1.528 . S
C484 H468 0.959 . S
C484 H469 0.959 . S
C484 H470 0.961 . S
C484 C483 1.508 . S
C485 H471 0.960 . S
C485 H472 0.961 . S
C485 H473 0.959 . S
C485 C483 1.553 1_556 S
C486 C483 1.528 . S
C486 C487 1.396 . S
C486 C491 1.390 . S
C487 C481 1.463 1_554 S
C487 C486 1.396 . S
C487 C488 1.399 . S
C488 H474 0.929 . S
C488 C487 1.399 . S
C488 C489 1.385 . S
C489 H475 0.931 . S
C489 C488 1.385 . S
C489 C490 1.389 . S
C490 C489 1.389 . S
C490 C491 1.387 . S
C491 H476 0.930 . S
C491 C486 1.390 . S
C491 C490 1.387 . S
H492 C504 0.930 . S
H493 C506 0.930 . S
H494 C507 0.930 . S
H495 C511 0.959 . S
H496 C511 0.945 1_565 S
H497 C511 0.961 . S
H498 C512 0.960 1_545 S
H499 C512 0.961 . S
H500 C512 0.959 . S
H501 C515 0.929 . S
H502 C516 0.931 . S
H503 C518 0.930 . S
C504 H492 0.930 . S
C504 C505 1.399 . S
C504 C509 1.399 . S
C505 C504 1.399 . S
C505 C506 1.376 . S
C506 H493 0.930 . S
C506 C505 1.376 . S
C506 C507 1.388 . S
C507 H494 0.930 . S
C507 C506 1.388 . S
C507 C508 1.390 . S
C508 C507 1.390 . S
C508 C509 1.394 . S
C508 C514 1.465 1_545 S
C509 C504 1.399 . S
C509 C508 1.394 . S
C509 C510 1.516 . S
C510 C509 1.516 . S
C510 C511 1.502 . S
C510 C512 1.561 1_545 S
C510 C513 1.526 1_545 S
C511 H495 0.959 . S
C511 H496 0.945 1_545 S
C511 H497 0.961 . S
C511 C510 1.502 . S
C512 H498 0.960 1_565 S
C512 H499 0.961 . S
C512 H500 0.959 . S
C512 C510 1.561 1_565 S
C513 C510 1.526 1_565 S
C513 C514 1.396 . S
C513 C518 1.390 . S
C514 C508 1.465 1_565 S
C514 C513 1.396 . S
C514 C515 1.399 . S
C515 H501 0.929 . S
C515 C514 1.399 . S
C515 C516 1.385 . S
C516 H502 0.931 . S
C516 C515 1.385 . S
C516 C517 1.389 . S
C517 C516 1.389 . S
C517 C518 1.387 . S
C518 H503 0.930 . S
C518 C513 1.390 . S
C518 C517 1.387 . S
H519 C531 0.930 . S
H520 C533 0.930 . S
H521 C534 0.930 . S
H522 C538 0.959 . S
H523 C538 0.959 . S
H524 C538 0.961 . S
H525 C539 0.960 . S
H526 C539 0.961 . S
H527 C539 0.959 . S
H528 C542 0.929 . S
H529 C543 0.931 . S
H530 C545 0.930 . S
C531 H519 0.930 . S
C531 C532 1.399 . S
C531 C536 1.399 . S
C532 C531 1.399 . S
C532 C533 1.376 . S
C533 H520 0.930 . S
C533 C532 1.376 . S
C533 C534 1.388 . S
C534 H521 0.930 . S
C534 C533 1.388 . S
C534 C535 1.390 . S
C535 C534 1.390 . S
C535 C536 1.394 . S
C535 C541 1.465 . S
C536 C531 1.399 . S
C536 C535 1.394 . S
C536 C537 1.516 . S
C537 C536 1.516 . S
C537 C538 1.502 . S
C537 C539 1.561 . S
C537 C540 1.526 . S
C538 H522 0.959 . S
C538 H523 0.959 . S
C538 H524 0.961 . S
C538 C537 1.502 . S
C539 H525 0.960 . S
C539 H526 0.961 . S
C539 H527 0.959 . S
C539 C537 1.561 . S
C540 C537 1.526 . S
C540 C541 1.396 . S
C540 C545 1.390 . S
C541 C535 1.465 . S
C541 C540 1.396 . S
C541 C542 1.399 . S
C542 H528 0.929 . S
C542 C541 1.399 . S
C542 C543 1.385 . S
C543 H529 0.931 . S
C543 C542 1.385 . S
C543 C544 1.389 . S
C544 C543 1.389 . S
C544 C545 1.387 . S
C545 H530 0.930 . S
C545 C540 1.390 . S
C545 C544 1.387 . S
H546 C558 0.930 1_554 S
H547 C560 0.930 . S
H548 C561 0.930 . S
H549 C565 0.959 1_655 S
H550 C565 0.959 . S
H551 C565 0.961 1_655 S
H552 C566 0.960 . S
H553 C566 0.961 . S
H554 C566 0.959 1_556 S
H555 C569 0.929 . S
H556 C570 0.931 . S
H557 C572 0.930 1_554 S
C558 H546 0.930 1_556 S
C558 C559 1.399 . S
C558 C563 1.399 . S
C559 C558 1.399 . S
C559 C560 1.376 . S
C560 H547 0.930 . S
C560 C559 1.376 . S
C560 C561 1.388 . S
C561 H548 0.930 . S
C561 C560 1.388 . S
C561 C562 1.390 . S
C562 C561 1.390 . S
C562 C563 1.394 . S
C562 C568 1.465 1_655 S
C563 C558 1.399 . S
C563 C562 1.394 . S
C563 C564 1.516 1_656 S
C564 C563 1.516 1_454 S
C564 C565 1.502 . S
C564 C566 1.561 . S
C564 C567 1.526 1_554 S
C565 H549 0.959 1_455 S
C565 H550 0.959 . S
C565 H551 0.961 1_455 S
C565 C564 1.502 . S
C566 H552 0.960 . S
C566 H553 0.961 . S
C566 H554 0.959 1_554 S
C566 C564 1.561 . S
C567 C564 1.526 1_556 S
C567 C568 1.396 . S
C567 C572 1.390 . S
C568 C562 1.465 1_455 S
C568 C567 1.396 . S
C568 C569 1.399 . S
C569 H555 0.929 . S
C569 C568 1.399 . S
C569 C570 1.385 . S
C570 H556 0.931 . S
C570 C569 1.385 . S
C570 C571 1.389 . S
C571 C570 1.389 . S
C571 C572 1.387 . S
C572 H557 0.930 1_556 S
C572 C567 1.390 . S
C572 C571 1.387 . S
H573 C585 0.930 . S
H574 C587 0.930 . S
H575 C588 0.930 . S
H576 C592 0.959 . S
H577 C592 0.959 . S
H578 C592 0.961 . S
H579 C593 0.960 1_455 S
H580 C593 0.961 . S
H581 C593 0.959 . S
H582 C596 0.929 . S
H583 C597 0.931 . S
H584 C599 0.930 . S
C585 H573 0.930 . S
C585 C586 1.399 . S
C585 C590 1.399 . S
C586 C585 1.399 . S
C586 C587 1.376 . S
C587 H574 0.930 . S
C587 C586 1.376 . S
C587 C588 1.388 . S
C588 H575 0.930 . S
C588 C587 1.388 . S
C588 C589 1.390 . S
C589 C588 1.390 . S
C589 C590 1.394 . S
C589 C595 1.465 1_455 S
C590 C585 1.399 . S
C590 C589 1.394 . S
C590 C591 1.516 . S
C591 C590 1.516 . S
C591 C592 1.502 . S
C591 C593 1.561 1_455 S
C591 C594 1.526 1_455 S
C592 H576 0.959 . S
C592 H577 0.959 . S
C592 H578 0.961 . S
C592 C591 1.502 . S
C593 H579 0.960 1_655 S
C593 H580 0.961 . S
C593 H581 0.959 . S
C593 C591 1.561 1_655 S
C594 C591 1.526 1_655 S
C594 C595 1.396 . S
C594 C599 1.390 . S
C595 C589 1.465 1_655 S
C595 C594 1.396 . S
C595 C596 1.399 . S
C596 H582 0.929 . S
C596 C595 1.399 . S
C596 C597 1.385 . S
C597 H583 0.931 . S
C597 C596 1.385 . S
C597 C598 1.389 . S
C598 C597 1.389 . S
C598 C599 1.387 . S
C599 H584 0.930 . S
C599 C594 1.390 . S
C599 C598 1.387 . S
H600 C612 0.930 . S
H601 C614 0.930 . S
H602 C615 0.930 . S
H603 C619 0.959 . S
H604 C619 0.959 1_565 S
H605 C619 0.961 . S
H606 C620 0.964 . S
H607 C620 0.961 . S
H608 C620 0.959 . S
H609 C623 0.929 . S
H610 C624 0.931 . S
H611 C626 0.930 . S
C612 H600 0.930 . S
C612 C613 1.399 . S
C612 C617 1.399 . S
C613 C612 1.399 . S
C613 C614 1.376 . S
C614 H601 0.930 . S
C614 C613 1.376 . S
C614 C615 1.388 . S
C615 H602 0.930 . S
C615 C614 1.388 . S
C615 C616 1.390 . S
C616 C615 1.390 . S
C616 C617 1.394 . S
C616 C622 1.465 1_545 S
C617 C612 1.399 . S
C617 C616 1.394 . S
C617 C618 1.516 1_545 S
C618 C617 1.516 1_565 S
C618 C619 1.502 1_565 S
C618 C620 1.561 . S
C618 C621 1.526 . S
C619 H603 0.959 . S
C619 H604 0.959 1_545 S
C619 H605 0.961 . S
C619 C618 1.502 1_545 S
C620 H606 0.964 . S
C620 H607 0.961 . S
C620 H608 0.959 . S
C620 C618 1.561 . S
C621 C618 1.526 . S
C621 C622 1.396 . S
C621 C626 1.390 . S
C622 C616 1.465 1_565 S
C622 C621 1.396 . S
C622 C623 1.399 . S
C623 H609 0.929 . S
C623 C622 1.399 . S
C623 C624 1.385 . S
C624 H610 0.931 . S
C624 C623 1.385 . S
C624 C625 1.389 . S
C625 C624 1.389 . S
C625 C626 1.387 . S
C626 H611 0.930 . S
C626 C621 1.390 . S
C626 C625 1.387 . S
H627 C639 0.930 1_556 S
H628 C641 0.930 . S
H629 C642 0.930 . S
H630 C646 0.959 . S
H631 C646 0.959 . S
H632 C646 0.961 . S
H633 C647 0.960 . S
H634 C647 0.961 . S
H635 C647 0.959 . S
H636 C650 0.929 . S
H637 C651 0.931 . S
H638 C653 0.930 1_556 S
C639 H627 0.930 1_554 S
C639 C640 1.399 . S
C639 C644 1.399 . S
C640 C639 1.399 . S
C640 C641 1.376 . S
C641 H628 0.930 . S
C641 C640 1.376 . S
C641 C642 1.388 . S
C642 H629 0.930 . S
C642 C641 1.388 . S
C642 C643 1.390 . S
C643 C642 1.390 . S
C643 C644 1.394 . S
C643 C649 1.465 . S
C644 C639 1.399 . S
C644 C643 1.394 . S
C644 C645 1.516 1_554 S
C645 C644 1.516 1_556 S
C645 C646 1.502 . S
C645 C647 1.561 . S
C645 C648 1.526 1_556 S
C646 H630 0.959 . S
C646 H631 0.959 . S
C646 H632 0.961 . S
C646 C645 1.502 . S
C647 H633 0.960 . S
C647 H634 0.961 . S
C647 H635 0.959 . S
C647 C645 1.561 . S
C648 C645 1.526 1_554 S
C648 C649 1.396 . S
C648 C653 1.390 . S
C649 C643 1.465 . S
C649 C648 1.396 . S
C649 C650 1.399 . S
C650 H636 0.929 . S
C650 C649 1.399 . S
C650 C651 1.385 . S
C651 H637 0.931 . S
C651 C650 1.385 . S
C651 C652 1.389 . S
C652 C651 1.389 . S
C652 C653 1.387 . S
C653 H638 0.930 1_554 S
C653 C648 1.390 . S
C653 C652 1.387 . S
H654 C666 0.930 . S
H655 C668 0.930 . S
H656 C669 0.930 . S
H657 C673 0.959 . S
H658 C673 0.959 . S
H659 C673 0.961 . S
H660 C674 0.960 . S
H661 C674 0.961 . S
H662 C674 0.959 . S
H663 C677 0.929 . S
H664 C678 0.931 . S
H665 C680 0.930 . S
C666 H654 0.930 . S
C666 C667 1.399 . S
C666 C671 1.399 . S
C667 C666 1.399 . S
C667 C668 1.376 . S
C668 H655 0.930 . S
C668 C667 1.376 . S
C668 C669 1.388 . S
C669 H656 0.930 . S
C669 C668 1.388 . S
C669 C670 1.390 . S
C670 C669 1.390 . S
C670 C671 1.394 . S
C670 C676 1.465 . S
C671 C666 1.399 . S
C671 C670 1.394 . S
C671 C672 1.516 . S
C672 C671 1.516 . S
C672 C673 1.502 . S
C672 C674 1.561 . S
C672 C675 1.526 . S
C673 H657 0.959 . S
C673 H658 0.959 . S
C673 H659 0.961 . S
C673 C672 1.502 . S
C674 H660 0.960 . S
C674 H661 0.961 . S
C674 H662 0.959 . S
C674 C672 1.561 . S
C675 C672 1.526 . S
C675 C676 1.396 . S
C675 C680 1.390 . S
C676 C670 1.465 . S
C676 C675 1.396 . S
C676 C677 1.399 . S
C677 H663 0.929 . S
C677 C676 1.399 . S
C677 C678 1.385 . S
C678 H664 0.931 . S
C678 C677 1.385 . S
C678 C679 1.389 . S
C679 C678 1.389 . S
C679 C680 1.387 . S
C680 H665 0.930 . S
C680 C675 1.390 . S
C680 C679 1.387 . S
H681 C693 0.930 . S
H682 C695 0.930 . S
H683 C696 0.930 . S
H684 C700 0.959 . S
H685 C700 0.959 . S
H686 C700 0.961 . S
H687 C701 0.960 . S
H688 C701 0.961 . S
H689 C701 0.959 . S
H690 C704 0.929 . S
H691 C705 0.931 . S
H692 C707 0.930 . S
C693 H681 0.930 . S
C693 C694 1.399 . S
C693 C698 1.399 . S
C694 C693 1.399 . S
C694 C695 1.376 . S
C695 H682 0.930 . S
C695 C694 1.376 . S
C695 C696 1.388 . S
C696 H683 0.930 . S
C696 C695 1.388 . S
C696 C697 1.390 . S
C697 C696 1.390 . S
C697 C698 1.394 . S
C697 C703 1.465 . S
C698 C693 1.399 . S
C698 C697 1.394 . S
C698 C699 1.516 . S
C699 C698 1.516 . S
C699 C700 1.502 . S
C699 C701 1.561 . S
C699 C702 1.526 . S
C700 H684 0.959 . S
C700 H685 0.959 . S
C700 H686 0.961 . S
C700 C699 1.502 . S
C701 H687 0.960 . S
C701 H688 0.961 . S
C701 H689 0.959 . S
C701 C699 1.561 . S
C702 C699 1.526 . S
C702 C703 1.396 . S
C702 C707 1.390 . S
C703 C697 1.465 . S
C703 C702 1.396 . S
C703 C704 1.399 . S
C704 H690 0.929 . S
C704 C703 1.399 . S
C704 C705 1.385 . S
C705 H691 0.931 . S
C705 C704 1.385 . S
C705 C706 1.389 . S
C706 C705 1.389 . S
C706 C707 1.387 . S
C707 H692 0.930 . S
C707 C702 1.390 . S
C707 C706 1.387 . S
H708 C720 0.930 . S
H709 C722 0.930 . S
H710 C723 0.930 . S
H711 C727 0.959 . S
H712 C727 0.959 . S
H713 C727 0.961 . S
H714 C728 0.960 . S
H715 C728 0.961 . S
H716 C728 0.959 . S
H717 C731 0.929 . S
H718 C732 0.931 . S
H719 C734 0.930 . S
C720 H708 0.930 . S
C720 C721 1.399 . S
C720 C725 1.399 . S
C721 C720 1.399 . S
C721 C722 1.376 . S
C722 H709 0.930 . S
C722 C721 1.376 . S
C722 C723 1.388 . S
C723 H710 0.930 . S
C723 C722 1.388 . S
C723 C724 1.390 . S
C724 C723 1.390 . S
C724 C725 1.394 . S
C724 C730 1.465 . S
C725 C720 1.399 . S
C725 C724 1.394 . S
C725 C726 1.516 . S
C726 C725 1.516 . S
C726 C727 1.502 . S
C726 C728 1.561 . S
C726 C729 1.526 . S
C727 H711 0.959 . S
C727 H712 0.959 . S
C727 H713 0.961 . S
C727 C726 1.502 . S
C728 H714 0.960 . S
C728 H715 0.961 . S
C728 H716 0.959 . S
C728 C726 1.561 . S
C729 C726 1.526 . S
C729 C730 1.396 . S
C729 C734 1.390 . S
C730 C724 1.465 . S
C730 C729 1.396 . S
C730 C731 1.399 . S
C731 H717 0.929 . S
C731 C730 1.399 . S
C731 C732 1.385 . S
C732 H718 0.931 . S
C732 C731 1.385 . S
C732 C733 1.389 . S
C733 C732 1.389 . S
C733 C734 1.387 . S
C734 H719 0.930 . S
C734 C729 1.390 . S
C734 C733 1.387 . S
H735 C747 0.930 . S
H736 C749 0.930 . S
H737 C750 0.930 . S
H738 C754 0.959 . S
H739 C754 0.959 . S
H740 C754 0.961 . S
H741 C755 0.960 . S
H742 C755 0.961 . S
H743 C755 0.959 . S
H744 C758 0.929 . S
H745 C759 0.931 . S
H746 C761 0.930 . S
C747 H735 0.930 . S
C747 C748 1.399 . S
C747 C752 1.399 . S
C748 C747 1.399 . S
C748 C749 1.376 . S
C749 H736 0.930 . S
C749 C748 1.376 . S
C749 C750 1.388 . S
C750 H737 0.930 . S
C750 C749 1.388 . S
C750 C751 1.390 . S
C751 C750 1.390 . S
C751 C752 1.394 . S
C751 C757 1.465 . S
C752 C747 1.399 . S
C752 C751 1.394 . S
C752 C753 1.516 . S
C753 C752 1.516 . S
C753 C754 1.502 . S
C753 C755 1.561 . S
C753 C756 1.526 . S
C754 H738 0.959 . S
C754 H739 0.959 . S
C754 H740 0.961 . S
C754 C753 1.502 . S
C755 H741 0.960 . S
C755 H742 0.961 . S
C755 H743 0.959 . S
C755 C753 1.561 . S
C756 C753 1.526 . S
C756 C757 1.396 . S
C756 C761 1.390 . S
C757 C751 1.465 . S
C757 C756 1.396 . S
C757 C758 1.399 . S
C758 H744 0.929 . S
C758 C757 1.399 . S
C758 C759 1.385 . S
C759 H745 0.931 . S
C759 C758 1.385 . S
C759 C760 1.389 . S
C760 C759 1.389 . S
C760 C761 1.387 . S
C761 H746 0.930 . S
C761 C756 1.390 . S
C761 C760 1.387 . S
H762 C774 0.930 . S
H763 C776 0.930 . S
H764 C777 0.930 . S
H765 C781 0.959 . S
H766 C781 0.959 . S
H767 C781 0.961 . S
H768 C782 0.960 . S
H769 C782 0.961 . S
H770 C782 0.959 . S
H771 C785 0.929 . S
H772 C786 0.931 . S
H773 C788 0.930 . S
C774 H762 0.930 . S
C774 C775 1.399 . S
C774 C779 1.399 . S
C775 C774 1.399 . S
C775 C776 1.376 . S
C776 H763 0.930 . S
C776 C775 1.376 . S
C776 C777 1.388 . S
C777 H764 0.930 . S
C777 C776 1.388 . S
C777 C778 1.390 . S
C778 C777 1.390 . S
C778 C779 1.394 . S
C778 C784 1.465 . S
C779 C774 1.399 . S
C779 C778 1.394 . S
C779 C780 1.516 . S
C780 C779 1.516 . S
C780 C781 1.502 . S
C780 C782 1.561 . S
C780 C783 1.526 . S
C781 H765 0.959 . S
C781 H766 0.959 . S
C781 H767 0.961 . S
C781 C780 1.502 . S
C782 H768 0.960 . S
C782 H769 0.961 . S
C782 H770 0.959 . S
C782 C780 1.561 . S
C783 C780 1.526 . S
C783 C784 1.396 . S
C783 C788 1.390 . S
C784 C778 1.465 . S
C784 C783 1.396 . S
C784 C785 1.399 . S
C785 H771 0.929 . S
C785 C784 1.399 . S
C785 C786 1.385 . S
C786 H772 0.931 . S
C786 C785 1.385 . S
C786 C787 1.389 . S
C787 C786 1.389 . S
C787 C788 1.387 . S
C788 H773 0.930 . S
C788 C783 1.390 . S
C788 C787 1.387 . S
H789 C801 0.930 . S
H790 C803 0.930 . S
H791 C804 0.930 . S
H792 C808 0.959 . S
H793 C808 0.959 . S
H794 C808 0.961 . S
H795 C809 0.960 . S
H796 C809 0.961 . S
H797 C809 0.959 . S
H798 C812 0.929 . S
H799 C813 0.931 . S
H800 C815 0.930 . S
C801 H789 0.930 . S
C801 C802 1.399 . S
C801 C806 1.399 . S
C802 C801 1.399 . S
C802 C803 1.376 . S
C803 H790 0.930 . S
C803 C802 1.376 . S
C803 C804 1.388 . S
C804 H791 0.930 . S
C804 C803 1.388 . S
C804 C805 1.390 . S
C805 C804 1.390 . S
C805 C806 1.394 . S
C805 C811 1.465 . S
C806 C801 1.399 . S
C806 C805 1.394 . S
C806 C807 1.516 . S
C807 C806 1.516 . S
C807 C808 1.502 . S
C807 C809 1.561 . S
C807 C810 1.526 . S
C808 H792 0.959 . S
C808 H793 0.959 . S
C808 H794 0.961 . S
C808 C807 1.502 . S
C809 H795 0.960 . S
C809 H796 0.961 . S
C809 H797 0.959 . S
C809 C807 1.561 . S
C810 C807 1.526 . S
C810 C811 1.396 . S
C810 C815 1.390 . S
C811 C805 1.465 . S
C811 C810 1.396 . S
C811 C812 1.399 . S
C812 H798 0.929 . S
C812 C811 1.399 . S
C812 C813 1.385 . S
C813 H799 0.931 . S
C813 C812 1.385 . S
C813 C814 1.389 . S
C814 C813 1.389 . S
C814 C815 1.387 . S
C815 H800 0.930 . S
C815 C810 1.390 . S
C815 C814 1.387 . S
C181 C7 1.644 . S
C193 C147 1.613 . S
C208 C21 1.594 . S
C220 C161 1.556 . S
C235 C91 1.643 . S
C247 C35 1.589 . S
C262 C49 1.558 . S
C274 C105 1.582 . S
C289 C119 1.612 . S
C301 C63 1.644 . S
C316 C133 1.559 . S
C328 C77 1.616 . S
C343 C93 0.382 . S
C355 C9 0.481 . S
C370 C107 0.387 . S
C382 C23 0.533 . S
C397 C121 0.522 . S
C409 C37 0.383 . S
C424 C51 0.380 . S
C436 C135 0.516 . S
C451 C65 0.527 . S
C463 C149 0.562 . S
C478 C79 0.442 . S
C490 C163 0.403 . S
C505 C8 1.476 . S
C517 C50 1.459 . S
C532 C22 1.477 . S
C544 C64 1.460 . S
C559 C36 1.468 . S
C571 C78 1.473 . S
C586 C134 1.478 . S
C598 C92 1.458 . S
C613 C148 1.473 . S
C625 C106 1.468 . S
C640 C162 1.476 . S
C652 C120 1.460 . S
C667 C3 1.538 . S
C679 C115 1.511 . S
C694 C129 1.532 . S
C706 C17 1.508 . S
C721 C31 1.515 . S
C733 C143 1.504 . S
C748 C157 1.531 . S
C760 C45 1.507 . S
C775 C59 1.559 . S
C787 C87 1.577 . S
C802 C73 1.572 . S
C814 C101 1.576 . S
