# Generated by pormake.
# Topology ukt, (4)-cn, num edge types: 1
# Building blocks:
#     Node 0, Type 0, BuildingBlock: QUQFOY_clean_sbu_1, # of connection points: 4
#     Node 1, Type 0, BuildingBlock: QUQFOY_clean_sbu_1, # of connection points: 4
#     Node 2, Type 0, BuildingBlock: QUQFOY_clean_sbu_1, # of connection points: 4
#     Node 3, Type 0, BuildingBlock: QUQFOY_clean_sbu_1, # of connection points: 4
#     Node 4, Type 0, BuildingBlock: QUQFOY_clean_sbu_1, # of connection points: 4
#     Node 5, Type 0, BuildingBlock: QUQFOY_clean_sbu_1, # of connection points: 4
#     Node 6, Type 0, BuildingBlock: QUQFOY_clean_sbu_1, # of connection points: 4
#     Node 7, Type 0, BuildingBlock: QUQFOY_clean_sbu_1, # of connection points: 4
#     Node 8, Type 0, BuildingBlock: QUQFOY_clean_sbu_1, # of connection points: 4
#     Node 9, Type 0, BuildingBlock: QUQFOY_clean_sbu_1, # of connection points: 4
#     Node 10, Type 0, BuildingBlock: QUQFOY_clean_sbu_1, # of connection points: 4
#     Node 11, Type 0, BuildingBlock: QUQFOY_clean_sbu_1, # of connection points: 4
#     Node 12, Type 0, BuildingBlock: QUQFOY_clean_sbu_1, # of connection points: 4
#     Node 13, Type 0, BuildingBlock: QUQFOY_clean_sbu_1, # of connection points: 4
#     Node 14, Type 0, BuildingBlock: QUQFOY_clean_sbu_1, # of connection points: 4
#     Node 15, Type 0, BuildingBlock: QUQFOY_clean_sbu_1, # of connection points: 4
#     Edge 16, Type (0, 0), BuildingBlock: TEMPAE_clean_linker_10, # of connection points: 2
#     Edge 17, Type (0, 0), BuildingBlock: TEMPAE_clean_linker_10, # of connection points: 2
#     Edge 18, Type (0, 0), BuildingBlock: TEMPAE_clean_linker_10, # of connection points: 2
#     Edge 19, Type (0, 0), BuildingBlock: TEMPAE_clean_linker_10, # of connection points: 2
#     Edge 20, Type (0, 0), BuildingBlock: TEMPAE_clean_linker_10, # of connection points: 2
#     Edge 21, Type (0, 0), BuildingBlock: TEMPAE_clean_linker_10, # of connection points: 2
#     Edge 22, Type (0, 0), BuildingBlock: TEMPAE_clean_linker_10, # of connection points: 2
#     Edge 23, Type (0, 0), BuildingBlock: TEMPAE_clean_linker_10, # of connection points: 2
#     Edge 24, Type (0, 0), BuildingBlock: TEMPAE_clean_linker_10, # of connection points: 2
#     Edge 25, Type (0, 0), BuildingBlock: TEMPAE_clean_linker_10, # of connection points: 2
#     Edge 26, Type (0, 0), BuildingBlock: TEMPAE_clean_linker_10, # of connection points: 2
#     Edge 27, Type (0, 0), BuildingBlock: TEMPAE_clean_linker_10, # of connection points: 2
#     Edge 28, Type (0, 0), BuildingBlock: TEMPAE_clean_linker_10, # of connection points: 2
#     Edge 29, Type (0, 0), BuildingBlock: TEMPAE_clean_linker_10, # of connection points: 2
#     Edge 30, Type (0, 0), BuildingBlock: TEMPAE_clean_linker_10, # of connection points: 2
#     Edge 31, Type (0, 0), BuildingBlock: TEMPAE_clean_linker_10, # of connection points: 2
#     Edge 32, Type (0, 0), BuildingBlock: TEMPAE_clean_linker_10, # of connection points: 2
#     Edge 33, Type (0, 0), BuildingBlock: TEMPAE_clean_linker_10, # of connection points: 2
#     Edge 34, Type (0, 0), BuildingBlock: TEMPAE_clean_linker_10, # of connection points: 2
#     Edge 35, Type (0, 0), BuildingBlock: TEMPAE_clean_linker_10, # of connection points: 2
#     Edge 36, Type (0, 0), BuildingBlock: TEMPAE_clean_linker_10, # of connection points: 2
#     Edge 37, Type (0, 0), BuildingBlock: TEMPAE_clean_linker_10, # of connection points: 2
#     Edge 38, Type (0, 0), BuildingBlock: TEMPAE_clean_linker_10, # of connection points: 2
#     Edge 39, Type (0, 0), BuildingBlock: TEMPAE_clean_linker_10, # of connection points: 2
#     Edge 40, Type (0, 0), BuildingBlock: TEMPAE_clean_linker_10, # of connection points: 2
#     Edge 41, Type (0, 0), BuildingBlock: TEMPAE_clean_linker_10, # of connection points: 2
#     Edge 42, Type (0, 0), BuildingBlock: TEMPAE_clean_linker_10, # of connection points: 2
#     Edge 43, Type (0, 0), BuildingBlock: TEMPAE_clean_linker_10, # of connection points: 2
#     Edge 44, Type (0, 0), BuildingBlock: TEMPAE_clean_linker_10, # of connection points: 2
#     Edge 45, Type (0, 0), BuildingBlock: TEMPAE_clean_linker_10, # of connection points: 2
#     Edge 46, Type (0, 0), BuildingBlock: TEMPAE_clean_linker_10, # of connection points: 2
#     Edge 47, Type (0, 0), BuildingBlock: TEMPAE_clean_linker_10, # of connection points: 2
# Relax obj value: 0.122
# Max RMSD: 0.086
# Mean RMSD: 0.086
data_MOF--net-ukt--node1-QUQFOY_clean_sbu_1--edge1-TEMPAE_clean_linker_10
_symmetry_space_group_name_H-M    P1
_symmetry_Int_Tables_number       1
_symmetry_cell_setting            triclinic
loop_
_symmetry_equiv_pos_as_xyz
'x, y, z'
_cell_length_a     44.832374
_cell_length_b     44.87857
_cell_length_c     41.141132
_cell_angle_alpha  89.99596
_cell_angle_beta   90.012555
_cell_angle_gamma 90.024634
loop_
_atom_site_label
_atom_site_type_symbol
_atom_site_fract_x
_atom_site_fract_y
_atom_site_fract_z
_atom_type_partial_charge
O0 O 0.57583 0.10574 0.05359 0.0
Cd1 Cd 0.53691 0.12468 0.03701 0.0
Cd2 Cd 0.55618 0.1585 0.1004 0.0
O3 O 0.58804 0.12566 0.10086 0.0
O4 O 0.53708 0.10374 0.9945 0.0
O5 O 0.50234 0.09614 0.03141 0.0
C6 C 0.51416 0.08894 0.00391 0.0
C7 C 0.54714 0.18196 0.15036 0.0
C8 C 0.5927 0.10696 0.07832 0.0
C9 C 0.54847 0.19042 0.03426 0.0
O10 O 0.55774 0.18904 0.06338 0.0
O11 O 0.53681 0.16798 0.02042 0.0
O12 O 0.57199 0.18473 0.13516 0.0
O13 O 0.52716 0.1648 0.13773 0.0
O14 O 0.37187 0.56917 0.03195 0.0
Cd15 Cd 0.35535 0.52917 0.01618 0.0
Cd16 Cd 0.31772 0.55273 0.07956 0.0
O17 O 0.34893 0.58622 0.07571 0.0
O18 O 0.3774 0.52989 0.97423 0.0
O19 O 0.38614 0.49639 0.01217 0.0
C20 C 0.39352 0.50833 0.98478 0.0
C21 C 0.29396 0.54934 0.1304 0.0
C22 C 0.3689 0.58864 0.05402 0.0
C23 C 0.28854 0.53597 0.01261 0.0
O24 O 0.2888 0.54627 0.04141 0.0
O25 O 0.31219 0.52644 0.99917 0.0
O26 O 0.2891 0.57104 0.11075 0.0
O27 O 0.31295 0.52932 0.12157 0.0
O28 O 0.91579 0.37646 0.04878 0.0
Cd29 Cd 0.95835 0.36068 0.05276 0.0
Cd30 Cd 0.93143 0.32387 0.09838 0.0
O31 O 0.89543 0.3517 0.08944 0.0
O32 O 0.98204 0.39186 0.03089 0.0
O33 O 0.98428 0.38339 0.08394 0.0
C34 C 0.9917 0.39949 0.05918 0.0
C35 C 0.93549 0.30265 0.15009 0.0
C36 C 0.89361 0.37109 0.067 0.0
C37 C 0.95845 0.29696 0.03667 0.0
O38 O 0.9437 0.29412 0.0628 0.0
O39 O 0.96795 0.32225 0.02766 0.0
O40 O 0.91463 0.29524 0.13024 0.0
O41 O 0.95371 0.32339 0.14119 0.0
O42 O 0.13266 0.91785 0.04866 0.0
Cd43 Cd 0.1447 0.95951 0.03341 0.0
Cd44 Cd 0.18754 0.9453 0.09014 0.0
O45 O 0.16476 0.90526 0.08701 0.0
O46 O 0.11762 0.96067 0.99514 0.0
O47 O 0.11347 0.99199 0.0361 0.0
C48 C 0.10314 0.98179 0.00902 0.0
C49 C 0.20692 0.95591 0.14198 0.0
C50 C 0.14263 0.89909 0.06896 0.0
C51 C 0.21141 0.96247 0.0226 0.0
O52 O 0.21558 0.95648 0.05245 0.0
O53 O 0.18532 0.96426 0.0107 0.0
O54 O 0.21769 0.9352 0.12391 0.0
O55 O 0.18471 0.971 0.1307 0.0
O56 O 0.58712 0.36747 0.45256 0.0
Cd57 Cd 0.54266 0.35823 0.45648 0.0
Cd58 Cd 0.55892 0.31307 0.41224 0.0
O59 O 0.59977 0.33463 0.41513 0.0
O60 O 0.52761 0.39323 0.48057 0.0
O61 O 0.51563 0.38393 0.42929 0.0
C62 C 0.51436 0.4013 0.45427 0.0
C63 C 0.54805 0.28936 0.36302 0.0
C64 C 0.60651 0.35614 0.43383 0.0
C65 C 0.53436 0.2962 0.47911 0.0
O66 O 0.54485 0.28867 0.45167 0.0
O67 O 0.53091 0.32344 0.48637 0.0
O68 O 0.56829 0.27965 0.38243 0.0
O69 O 0.53413 0.31344 0.37105 0.0
O70 O 0.13434 0.59315 0.45619 0.0
Cd71 Cd 0.14976 0.55063 0.44905 0.0
Cd72 Cd 0.183 0.5798 0.40392 0.0
O73 O 0.15489 0.61507 0.41376 0.0
O74 O 0.12027 0.52659 0.4734 0.0
O75 O 0.12443 0.52511 0.41978 0.0
C76 C 0.11043 0.5172 0.44584 0.0
C77 C 0.19936 0.57113 0.35077 0.0
C78 C 0.13764 0.61592 0.43825 0.0
C79 C 0.21387 0.55352 0.46317 0.0
O80 O 0.2146 0.57075 0.43869 0.0
O81 O 0.18991 0.54006 0.47058 0.0
O82 O 0.20827 0.59382 0.36727 0.0
O83 O 0.17995 0.55366 0.36402 0.0
O84 O 0.91913 0.1254 0.46913 0.0
Cd85 Cd 0.96099 0.14239 0.4611 0.0
Cd86 Cd 0.93092 0.17441 0.41646 0.0
O87 O 0.89808 0.14317 0.4248 0.0
O88 O 0.98711 0.11281 0.48214 0.0
O89 O 0.98511 0.11922 0.42872 0.0
C90 C 0.99471 0.10424 0.45343 0.0
C91 C 0.93507 0.19526 0.36461 0.0
C92 C 0.89712 0.12654 0.44976 0.0
C93 C 0.95635 0.20545 0.47628 0.0
O94 O 0.9385 0.20534 0.45232 0.0
O95 O 0.97123 0.18226 0.48313 0.0
O96 O 0.91263 0.20064 0.38316 0.0
O97 O 0.95495 0.17671 0.37492 0.0
O98 O 0.36214 0.91857 0.46328 0.0
Cd99 Cd 0.34922 0.96032 0.4779 0.0
Cd100 Cd 0.30791 0.94255 0.42032 0.0
O101 O 0.33412 0.90491 0.42169 0.0
O102 O 0.37548 0.96162 0.51684 0.0
O103 O 0.38068 0.99271 0.47579 0.0
C104 C 0.39044 0.98251 0.50312 0.0
C105 C 0.28725 0.95388 0.36929 0.0
C106 C 0.35507 0.89974 0.44163 0.0
C107 C 0.28256 0.95869 0.48802 0.0
O108 O 0.2797 0.94949 0.45896 0.0
O109 O 0.30798 0.96563 0.49944 0.0
O110 O 0.27844 0.93145 0.38619 0.0
O111 O 0.30821 0.97026 0.38129 0.0
O112 O 0.40246 0.85237 0.96331 0.0
Cd113 Cd 0.44542 0.83899 0.95504 0.0
Cd114 Cd 0.42311 0.82023 0.90277 0.0
O115 O 0.39649 0.85741 0.91068 0.0
O116 O 0.47127 0.86758 0.97794 0.0
O117 O 0.46688 0.86534 0.92405 0.0
C118 C 0.47668 0.87893 0.94967 0.0
C119 C 0.43758 0.80768 0.85026 0.0
C120 C 0.38823 0.86327 0.93949 0.0
C121 C 0.43656 0.77693 0.95669 0.0
O122 O 0.41895 0.78369 0.93355 0.0
O123 O 0.45523 0.79603 0.96678 0.0
O124 O 0.41024 0.8054 0.85955 0.0
O125 O 0.45692 0.81819 0.87051 0.0
O126 O 0.62388 0.3951 0.95177 0.0
Cd127 Cd 0.64273 0.43633 0.94544 0.0
Cd128 Cd 0.66998 0.40782 0.89742 0.0
O129 O 0.63678 0.3767 0.90414 0.0
O130 O 0.61453 0.46325 0.96766 0.0
O131 O 0.6201 0.46172 0.91404 0.0
C132 C 0.60553 0.47115 0.93915 0.0
C133 C 0.68907 0.4164 0.84552 0.0
C134 C 0.62188 0.37486 0.93031 0.0
C135 C 0.70577 0.42645 0.95665 0.0
O136 O 0.70288 0.40961 0.93207 0.0
O137 O 0.6844 0.44324 0.96525 0.0
O138 O 0.69344 0.39169 0.86065 0.0
O139 O 0.67217 0.43606 0.85914 0.0
O140 O 0.09512 0.61573 0.95061 0.0
Cd141 Cd 0.06289 0.63954 0.97477 0.0
Cd142 Cd 0.07743 0.67414 0.91035 0.0
O143 O 0.10586 0.6386 0.90454 0.0
O144 O 0.06711 0.61787 0.01666 0.0
O145 O 0.02625 0.61576 0.98705 0.0
C146 C 0.04122 0.60648 0.01188 0.0
C147 C 0.05888 0.69494 0.86235 0.0
C148 C 0.10951 0.61712 0.92413 0.0
C149 C 0.08172 0.70489 0.97677 0.0
O150 O 0.08668 0.70468 0.94633 0.0
O151 O 0.07083 0.68229 0.99112 0.0
O152 O 0.08663 0.69663 0.87 0.0
O153 O 0.04109 0.68123 0.88194 0.0
O154 O 0.85752 0.10293 0.98102 0.0
Cd155 Cd 0.84738 0.05866 0.97527 0.0
Cd156 Cd 0.81993 0.08088 0.92359 0.0
O157 O 0.85506 0.11064 0.9283 0.0
O158 O 0.87874 0.03692 0.99917 0.0
O159 O 0.87484 0.03696 0.94529 0.0
C160 C 0.88954 0.02973 0.97117 0.0
C161 C 0.79794 0.07532 0.87245 0.0
C162 C 0.86387 0.11858 0.95631 0.0
C163 C 0.78477 0.06048 0.98316 0.0
O164 O 0.7875 0.07834 0.95936 0.0
O165 O 0.80677 0.04467 0.99184 0.0
O166 O 0.79506 0.09935 0.88918 0.0
O167 O 0.81495 0.05461 0.88388 0.0
O168 O 0.40204 0.61784 0.55478 0.0
Cd169 Cd 0.43717 0.64192 0.53644 0.0
Cd170 Cd 0.41679 0.67344 0.59865 0.0
O171 O 0.38751 0.6382 0.60094 0.0
O172 O 0.43749 0.6213 0.49376 0.0
O173 O 0.47471 0.61797 0.5285 0.0
C174 C 0.46243 0.60934 0.50172 0.0
C175 C 0.43492 0.69236 0.64759 0.0
C176 C 0.38526 0.61798 0.57957 0.0
C177 C 0.41796 0.70672 0.53394 0.0
O178 O 0.40961 0.70516 0.56342 0.0
O179 O 0.43112 0.685 0.52028 0.0
O180 O 0.40729 0.69479 0.63964 0.0
O181 O 0.4527 0.67866 0.62798 0.0
O182 O 0.89119 0.3945 0.5535 0.0
Cd183 Cd 0.8697 0.42755 0.52794 0.0
Cd184 Cd 0.83139 0.41141 0.5916 0.0
O185 O 0.86638 0.38244 0.5981 0.0
O186 O 0.89494 0.42501 0.48827 0.0
O187 O 0.89385 0.46485 0.51954 0.0
C188 C 0.90531 0.45095 0.49507 0.0
C189 C 0.80329 0.42282 0.63793 0.0
C190 C 0.88865 0.37933 0.57939 0.0
C191 C 0.80489 0.41017 0.52158 0.0
O192 O 0.80423 0.40566 0.55203 0.0
O193 O 0.8281 0.42032 0.50776 0.0
O194 O 0.80261 0.39693 0.62467 0.0
O195 O 0.821 0.44251 0.62568 0.0
O196 O 0.09111 0.89046 0.57239 0.0
Cd197 Cd 0.05611 0.86745 0.55202 0.0
Cd198 Cd 0.07407 0.83479 0.61622 0.0
O199 O 0.10429 0.86916 0.61859 0.0
O200 O 0.0602 0.88611 0.50839 0.0
O201 O 0.02078 0.89303 0.53933 0.0
C202 C 0.03535 0.89955 0.51323 0.0
C203 C 0.05569 0.81671 0.66548 0.0
C204 C 0.10741 0.88956 0.59756 0.0
C205 C 0.07249 0.8014 0.55173 0.0
O206 O 0.08067 0.80268 0.58128 0.0
O207 O 0.06045 0.8236 0.53776 0.0
O208 O 0.08319 0.81352 0.65734 0.0
O209 O 0.03813 0.83058 0.64578 0.0
O210 O 0.63252 0.10759 0.55008 0.0
Cd211 Cd 0.64358 0.06354 0.55586 0.0
Cd212 Cd 0.66604 0.08634 0.60964 0.0
O213 O 0.63035 0.11497 0.60284 0.0
O214 O 0.61503 0.04156 0.52817 0.0
O215 O 0.61429 0.04026 0.58217 0.0
C216 C 0.60201 0.03342 0.5547 0.0
C217 C 0.6853 0.07975 0.66187 0.0
C218 C 0.62375 0.12295 0.57413 0.0
C219 C 0.70623 0.06898 0.55313 0.0
O220 O 0.7007 0.08671 0.57644 0.0
O221 O 0.68599 0.05157 0.543 0.0
O222 O 0.68774 0.10461 0.64658 0.0
O223 O 0.66996 0.05876 0.64839 0.0
C224 C 0.53805 0.22454 0.98721 0.0
C225 C 0.55397 0.21802 0.01569 0.0
C226 C 0.54449 0.25032 0.96909 0.0
C227 C 0.56782 0.26938 0.97938 0.0
C228 C 0.58386 0.26284 0.00813 0.0
C229 C 0.5765 0.23747 0.02608 0.0
C230 C 0.52648 0.25714 0.939 0.0
C231 C 0.60923 0.28236 0.01974 0.0
C232 C 0.61256 0.32035 0.92524 0.0
C233 C 0.60385 0.3482 0.93727 0.0
C234 C 0.59918 0.29417 0.93683 0.0
C235 C 0.57622 0.29616 0.96037 0.0
C236 C 0.56536 0.3244 0.97 0.0
C237 C 0.57962 0.35014 0.95866 0.0
C238 C 0.61167 0.26447 0.92627 0.0
C239 C 0.54038 0.32745 0.99438 0.0
H240 H 0.52053 0.2096 0.9792 0.0
H241 H 0.5891 0.23243 0.0479 0.0
H242 H 0.51677 0.27982 0.94078 0.0
H243 H 0.54116 0.2569 0.91732 0.0
H244 H 0.50813 0.24086 0.9352 0.0
H245 H 0.61993 0.27362 0.04216 0.0
H246 H 0.62649 0.28417 0.00051 0.0
H247 H 0.60095 0.30517 0.02479 0.0
H248 H 0.63126 0.31886 0.90862 0.0
H249 H 0.57252 0.37177 0.9675 0.0
H250 H 0.59348 0.24844 0.92098 0.0
H251 H 0.62525 0.25497 0.94631 0.0
H252 H 0.62605 0.26655 0.9044 0.0
H253 H 0.52237 0.31114 0.98934 0.0
H254 H 0.53072 0.35025 0.99432 0.0
H255 H 0.54907 0.32279 0.01912 0.0
C256 C 0.16226 0.60658 0.9103 0.0
C257 C 0.13419 0.59594 0.91959 0.0
C258 C 0.18809 0.59033 0.91779 0.0
C259 C 0.18539 0.5627 0.93422 0.0
C260 C 0.15688 0.54977 0.9384 0.0
C261 C 0.13147 0.56685 0.93163 0.0
C262 C 0.2181 0.60472 0.91242 0.0
C263 C 0.15314 0.51957 0.95398 0.0
C264 C 0.25825 0.52718 0.96189 0.0
C265 C 0.26068 0.53879 0.99349 0.0
C266 C 0.23309 0.53334 0.94255 0.0
C267 C 0.21047 0.55224 0.95484 0.0
C268 C 0.21238 0.56303 0.98714 0.0
C269 C 0.23717 0.55581 0.00611 0.0
C270 C 0.23148 0.52049 0.90872 0.0
C271 C 0.18886 0.58339 0.0014 0.0
H272 H 0.16434 0.62902 0.90077 0.0
H273 H 0.10963 0.55838 0.93822 0.0
H274 H 0.22665 0.61336 0.93594 0.0
H275 H 0.23443 0.58823 0.90319 0.0
H276 H 0.21677 0.62358 0.89498 0.0
H277 H 0.13108 0.50967 0.94806 0.0
H278 H 0.171 0.5041 0.94599 0.0
H279 H 0.15469 0.52187 0.98079 0.0
H280 H 0.27622 0.51382 0.952 0.0
H281 H 0.23868 0.56481 0.0305 0.0
H282 H 0.2415 0.53649 0.89131 0.0
H283 H 0.20811 0.51626 0.90113 0.0
H284 H 0.24424 0.49933 0.90702 0.0
H285 H 0.18657 0.6037 0.98622 0.0
H286 H 0.1942 0.59038 0.02664 0.0
H287 H 0.16692 0.57198 0.00167 0.0
C288 C 0.87357 0.16619 0.98446 0.0
C289 C 0.88165 0.14574 0.96047 0.0
C290 C 0.89117 0.19131 0.99059 0.0
C291 C 0.91814 0.19535 0.97311 0.0
C292 C 0.92625 0.17483 0.94852 0.0
C293 C 0.90755 0.15036 0.94212 0.0
C294 C 0.88118 0.2131 0.01639 0.0
C295 C 0.95525 0.17778 0.93019 0.0
C296 C 0.94479 0.27415 0.9842 0.0
C297 C 0.95893 0.27146 0.0144 0.0
C298 C 0.93387 0.24882 0.96811 0.0
C299 C 0.93806 0.2204 0.98234 0.0
C300 C 0.95623 0.21748 0.01032 0.0
C301 C 0.96592 0.24319 0.02649 0.0
C302 C 0.91449 0.25298 0.93847 0.0
C303 C 0.96237 0.18745 0.02542 0.0
H304 H 0.85342 0.16247 0.99847 0.0
H305 H 0.91385 0.13414 0.92383 0.0
H306 H 0.89674 0.21229 0.03734 0.0
H307 H 0.88152 0.23617 0.00668 0.0
H308 H 0.85834 0.20819 0.02539 0.0
H309 H 0.95585 0.1632 0.90838 0.0
H310 H 0.95914 0.20115 0.92254 0.0
H311 H 0.97394 0.17136 0.94643 0.0
H312 H 0.93918 0.29612 0.97508 0.0
H313 H 0.97693 0.24124 0.04988 0.0
H314 H 0.8907 0.25173 0.94583 0.0
H315 H 0.91848 0.23515 0.92033 0.0
H316 H 0.91838 0.27496 0.92677 0.0
H317 H 0.94251 0.18012 0.0394 0.0
H318 H 0.98171 0.18832 0.04228 0.0
H319 H 0.9668 0.17048 0.00641 0.0
C320 C 0.34263 0.87499 0.97071 0.0
C321 C 0.36223 0.88235 0.94557 0.0
C322 C 0.31814 0.89311 0.97784 0.0
C323 C 0.31379 0.91984 0.96009 0.0
C324 C 0.33364 0.92747 0.93466 0.0
C325 C 0.35749 0.90829 0.92733 0.0
C326 C 0.29705 0.88368 0.00462 0.0
C327 C 0.33032 0.95625 0.91604 0.0
C328 C 0.23473 0.94582 0.97107 0.0
C329 C 0.23737 0.96097 0.00072 0.0
C330 C 0.26008 0.93464 0.95528 0.0
C331 C 0.28857 0.93957 0.96914 0.0
C332 C 0.29147 0.95853 0.99646 0.0
C333 C 0.26573 0.96862 0.01232 0.0
C334 C 0.25594 0.91437 0.92635 0.0
C335 C 0.32156 0.96535 0.01115 0.0
H336 H 0.34633 0.8548 0.98463 0.0
H337 H 0.37302 0.91406 0.90812 0.0
H338 H 0.29805 0.89993 0.02491 0.0
H339 H 0.27376 0.88336 0.99548 0.0
H340 H 0.30248 0.86125 0.0144 0.0
H341 H 0.34561 0.95737 0.89483 0.0
H342 H 0.30707 0.9591 0.9074 0.0
H343 H 0.33533 0.97526 0.9324 0.0
H344 H 0.2128 0.93985 0.96205 0.0
H345 H 0.26777 0.98068 0.03506 0.0
H346 H 0.25782 0.89085 0.93446 0.0
H347 H 0.27344 0.91825 0.9078 0.0
H348 H 0.23371 0.91743 0.91487 0.0
H349 H 0.32907 0.94604 0.02587 0.0
H350 H 0.32064 0.9852 0.02726 0.0
H351 H 0.33845 0.96926 0.99192 0.0
C352 C 0.54707 0.27785 0.53406 0.0
C353 C 0.53254 0.27312 0.50436 0.0
C354 C 0.55674 0.2536 0.55283 0.0
C355 C 0.55094 0.22428 0.54181 0.0
C356 C 0.53201 0.21976 0.51471 0.0
C357 C 0.52348 0.24431 0.49585 0.0
C358 C 0.57672 0.25942 0.58165 0.0
C359 C 0.5241 0.18887 0.50309 0.0
C360 C 0.61402 0.16857 0.54234 0.0
C361 C 0.60623 0.15004 0.56825 0.0
C362 C 0.59678 0.19351 0.53458 0.0
C363 C 0.57047 0.19948 0.55257 0.0
C364 C 0.56269 0.18103 0.57918 0.0
C365 C 0.58099 0.15661 0.58702 0.0
C366 C 0.60644 0.21304 0.50653 0.0
C367 C 0.53442 0.18606 0.59829 0.0
H368 H 0.55409 0.30018 0.54063 0.0
H369 H 0.51193 0.24075 0.47301 0.0
H370 H 0.57233 0.24331 0.60153 0.0
H371 H 0.60033 0.25669 0.57409 0.0
H372 H 0.57382 0.2824 0.59118 0.0
H373 H 0.50432 0.18916 0.48682 0.0
H374 H 0.54318 0.17944 0.48932 0.0
H375 H 0.51951 0.17387 0.52394 0.0
H376 H 0.6337 0.16348 0.52804 0.0
H377 H 0.57488 0.14195 0.60687 0.0
H378 H 0.60715 0.23674 0.51418 0.0
H379 H 0.59009 0.21118 0.48638 0.0
H380 H 0.62877 0.20678 0.49703 0.0
H381 H 0.53065 0.21011 0.60291 0.0
H382 H 0.53479 0.17407 0.62191 0.0
H383 H 0.51517 0.17774 0.58397 0.0
C384 C 0.3629 0.56921 0.56512 0.0
C385 C 0.35977 0.59732 0.57958 0.0
C386 C 0.33794 0.55381 0.55336 0.0
C387 C 0.30958 0.56747 0.5552 0.0
C388 C 0.30591 0.59365 0.57404 0.0
C389 C 0.3312 0.60822 0.58636 0.0
C390 C 0.34252 0.525 0.53515 0.0
C391 C 0.27595 0.60867 0.57711 0.0
C392 C 0.26532 0.56953 0.47722 0.0
C393 C 0.24011 0.55251 0.48502 0.0
C394 C 0.28837 0.57367 0.49961 0.0
C395 C 0.28663 0.55983 0.53051 0.0
C396 C 0.26237 0.54075 0.53776 0.0
C397 C 0.23914 0.53756 0.515 0.0
C398 C 0.31389 0.59417 0.49062 0.0
C399 C 0.26009 0.52478 0.56993 0.0
H400 H 0.38505 0.56049 0.56043 0.0
H401 H 0.32876 0.62987 0.59775 0.0
H402 H 0.32343 0.50964 0.53897 0.0
H403 H 0.34412 0.52973 0.50874 0.0
H404 H 0.36342 0.51372 0.54283 0.0
H405 H 0.27586 0.62573 0.59669 0.0
H406 H 0.27038 0.61982 0.55379 0.0
H407 H 0.25822 0.59209 0.5822 0.0
H408 H 0.26651 0.5809 0.45401 0.0
H409 H 0.21982 0.52419 0.5212 0.0
H410 H 0.33537 0.58202 0.4921 0.0
H411 H 0.31499 0.61308 0.50795 0.0
H412 H 0.31163 0.60336 0.46566 0.0
H413 H 0.28239 0.51868 0.57955 0.0
H414 H 0.24635 0.50427 0.56777 0.0
H415 H 0.24914 0.53962 0.58788 0.0
C416 C 0.93857 0.35659 0.5718 0.0
C417 C 0.90936 0.35421 0.58371 0.0
C418 C 0.95469 0.33106 0.56315 0.0
C419 C 0.94067 0.30292 0.56546 0.0
C420 C 0.91337 0.30023 0.58257 0.0
C421 C 0.89801 0.32611 0.59179 0.0
C422 C 0.9847 0.33462 0.54708 0.0
C423 C 0.89812 0.27049 0.58648 0.0
C424 C 0.94077 0.25724 0.48857 0.0
C425 C 0.95693 0.2319 0.49774 0.0
C426 C 0.9363 0.28079 0.51017 0.0
C427 C 0.94888 0.27937 0.54175 0.0
C428 C 0.96713 0.25489 0.55045 0.0
C429 C 0.97074 0.2312 0.52838 0.0
C430 C 0.91683 0.30656 0.49951 0.0
C431 C 0.98177 0.25284 0.58339 0.0
H432 H 0.94768 0.37841 0.56632 0.0
H433 H 0.87558 0.32425 0.60144 0.0
H434 H -0.00053 0.31548 0.55283 0.0
H435 H 0.98171 0.33543 0.52031 0.0
H436 H 0.99579 0.3556 0.55482 0.0
H437 H 0.88013 0.27137 0.60502 0.0
H438 H 0.88807 0.26382 0.5629 0.0
H439 H 0.91441 0.25307 0.59353 0.0
H440 H 0.93042 0.25823 0.46477 0.0
H441 H 0.98344 0.21175 0.53561 0.0
H442 H 0.92954 0.32772 0.50083 0.0
H443 H 0.89731 0.30862 0.51593 0.0
H444 H 0.90849 0.30389 0.47425 0.0
H445 H 0.98684 0.27517 0.59358 0.0
H446 H 0.00276 0.23975 0.58209 0.0
H447 H 0.96654 0.24119 0.60041 0.0
C448 C 0.16164 0.89754 0.60516 0.0
C449 C 0.13347 0.90947 0.59845 0.0
C450 C 0.1875 0.91189 0.59403 0.0
C451 C 0.18484 0.939 0.57659 0.0
C452 C 0.15683 0.95338 0.57471 0.0
C453 C 0.13127 0.93813 0.58512 0.0
C454 C 0.217 0.89593 0.59687 0.0
C455 C 0.15333 0.9831 0.55801 0.0
C456 C 0.2569 0.97003 0.54104 0.0
C457 C 0.25626 0.95754 0.50975 0.0
C458 C 0.2331 0.96563 0.56283 0.0
C459 C 0.20872 0.94754 0.55335 0.0
C460 C 0.2076 0.93576 0.52142 0.0
C461 C 0.23112 0.94127 0.49997 0.0
C462 C 0.23472 0.97949 0.59619 0.0
C463 C 0.18214 0.91615 0.51017 0.0
H464 H 0.16333 0.87541 0.61559 0.0
H465 H 0.10943 0.94758 0.58042 0.0
H466 H 0.22286 0.88604 0.57297 0.0
H467 H 0.235 0.91171 0.60357 0.0
H468 H 0.21621 0.87778 0.61521 0.0
H469 H 0.13241 0.99442 0.56556 0.0
H470 H 0.17256 0.99787 0.5634 0.0
H471 H 0.15247 0.97968 0.53131 0.0
H472 H 0.27617 0.9828 0.54874 0.0
H473 H 0.23034 0.93152 0.47589 0.0
H474 H 0.24458 0.96325 0.61343 0.0
H475 H 0.21226 0.98566 0.60532 0.0
H476 H 0.24908 -0.00033 0.59614 0.0
H477 H 0.18016 0.8964 0.52627 0.0
H478 H 0.18512 0.90822 0.4848 0.0
H479 H 0.16079 0.92855 0.51153 0.0
C480 C 0.41222 0.72732 0.96247 0.0
C481 C 0.43292 0.74823 0.9739 0.0
C482 C 0.40589 0.70146 0.98017 0.0
C483 C 0.42069 0.69629 0.01005 0.0
C484 C 0.44238 0.71674 0.02127 0.0
C485 C 0.44825 0.74255 0.00304 0.0
C486 C 0.38277 0.68001 0.96718 0.0
C487 C 0.45875 0.71178 0.05288 0.0
C488 C 0.37526 0.64349 0.06141 0.0
C489 C 0.38681 0.61609 0.05109 0.0
C490 C 0.38794 0.67032 0.0506 0.0
C491 C 0.41277 0.66948 0.0293 0.0
C492 C 0.42651 0.64194 0.02198 0.0
C493 C 0.41327 0.61553 0.0329 0.0
C494 C 0.37287 0.69933 0.05923 0.0
C495 C 0.45332 0.64008 0.99987 0.0
H496 H 0.40039 0.73145 0.93993 0.0
H497 H 0.46427 0.75864 0.01207 0.0
H498 H 0.39268 0.65751 0.9643 0.0
H499 H 0.36406 0.67803 0.98469 0.0
H500 H 0.37361 0.68716 0.94333 0.0
H501 H 0.47693 0.72825 0.05661 0.0
H502 H 0.44286 0.71355 0.07345 0.0
H503 H 0.46841 0.68903 0.05362 0.0
H504 H 0.35489 0.64402 0.0756 0.0
H505 H 0.42259 0.59433 0.02535 0.0
H506 H 0.35998 0.70741 0.03795 0.0
H507 H 0.3896 0.71666 0.06534 0.0
H508 H 0.3573 0.69674 0.08005 0.0
H509 H 0.44609 0.64345 0.97434 0.0
H510 H 0.46454 0.61806 0.00157 0.0
H511 H 0.46974 0.65778 0.00573 0.0
C512 C 0.75631 0.40527 0.9657 0.0
C513 C 0.73347 0.42436 0.97612 0.0
C514 C 0.78162 0.40032 0.98475 0.0
C515 C 0.78446 0.41507 0.01498 0.0
C516 C 0.76205 0.43518 0.02531 0.0
C517 C 0.73665 0.43952 0.00576 0.0
C518 C 0.80504 0.37873 0.97273 0.0
C519 C 0.76463 0.45156 0.05722 0.0
C520 C 0.83791 0.37278 0.06873 0.0
C521 C 0.86501 0.38608 0.05998 0.0
C522 C 0.81081 0.38372 0.0565 0.0
C523 C 0.81098 0.40869 0.03543 0.0
C524 C 0.838 0.42394 0.02926 0.0
C525 C 0.86476 0.41231 0.04142 0.0
C526 C 0.78244 0.36682 0.06363 0.0
C527 C 0.83908 0.45096 0.00743 0.0
H528 H 0.75421 0.39355 0.94278 0.0
H529 H 0.7191 0.45431 0.01398 0.0
H530 H 0.82692 0.39012 0.97073 0.0
H531 H 0.80768 0.3602 0.99036 0.0
H532 H 0.79937 0.36909 0.94864 0.0
H533 H 0.7466 0.46827 0.06045 0.0
H534 H 0.76354 0.43542 0.0776 0.0
H535 H 0.7865 0.46305 0.05886 0.0
H536 H 0.83798 0.35262 0.08325 0.0
H537 H 0.88565 0.42303 0.03512 0.0
H538 H 0.7759 0.35381 0.04182 0.0
H539 H 0.76392 0.38237 0.06922 0.0
H540 H 0.78518 0.35114 0.08431 0.0
H541 H 0.83696 0.44378 0.98172 0.0
H542 H 0.86038 0.4634 0.01009 0.0
H543 H 0.82028 0.46626 0.01272 0.0
C544 C 0.08144 0.73426 0.02876 0.0
C545 C 0.08942 0.73182 0.99584 0.0
C546 C 0.08876 0.75981 0.04684 0.0
C547 C 0.10454 0.7833 0.03166 0.0
C548 C 0.11297 0.78077 0.99861 0.0
C549 C 0.10523 0.75516 0.98112 0.0
C550 C 0.07924 0.76188 0.08196 0.0
C551 C 0.12992 0.80532 0.98151 0.0
C552 C 0.1014 0.86422 0.05553 0.0
C553 C 0.1302 0.86864 0.06792 0.0
C554 C 0.09162 0.83581 0.04637 0.0
C555 C 0.11127 0.81132 0.04941 0.0
C556 C 0.1393 0.81519 0.06477 0.0
C557 C 0.14842 0.84391 0.07404 0.0
C558 C 0.06136 0.8326 0.03061 0.0
C559 C 0.16081 0.78957 0.06858 0.0
H560 H 0.06924 0.71633 0.04036 0.0
H561 H 0.11169 0.75344 0.9558 0.0
H562 H 0.09878 0.76669 0.09764 0.0
H563 H 0.06332 0.78059 0.08501 0.0
H564 H 0.06842 0.74107 0.09063 0.0
H565 H 0.13576 0.79937 0.95609 0.0
H566 H 0.1163 0.82596 0.98109 0.0
H567 H 0.15079 0.81043 0.9949 0.0
H568 H 0.08707 0.88328 0.0512 0.0
H569 H 0.1707 0.84724 0.08363 0.0
H570 H 0.04964 0.81257 0.03988 0.0
H571 H 0.06421 0.82978 0.00399 0.0
H572 H 0.04707 0.85243 0.03488 0.0
H573 H 0.1491 0.76927 0.07718 0.0
H574 H 0.17909 0.79495 0.08585 0.0
H575 H 0.17087 0.78432 0.04461 0.0
C576 C 0.62226 0.06405 0.05785 0.0
C577 C 0.62051 0.08941 0.07766 0.0
C578 C 0.64994 0.05249 0.04842 0.0
C579 C 0.67631 0.06704 0.05866 0.0
C580 C 0.67464 0.0901 0.08211 0.0
C581 C 0.6466 0.10096 0.09153 0.0
C582 C 0.65077 0.02719 0.02428 0.0
C583 C 0.70226 0.10595 0.09396 0.0
C584 C 0.75278 0.04185 0.02915 0.0
C585 C 0.75653 0.06015 0.00176 0.0
C586 C 0.72651 0.04322 0.0478 0.0
C587 C 0.70386 0.06365 0.03902 0.0
C588 C 0.70738 0.08172 0.01106 0.0
C589 C 0.73352 0.0796 0.99275 0.0
C590 C 0.72336 0.02336 0.0772 0.0
C591 C 0.68373 0.10379 0.00066 0.0
H592 H 0.60203 0.05463 0.04765 0.0
H593 H 0.64534 0.1204 0.10712 0.0
H594 H 0.65395 0.03635 0.99947 0.0
H595 H 0.66967 0.01194 0.0294 0.0
H596 H 0.62967 0.01419 0.02452 0.0
H597 H 0.69785 0.11899 0.1164 0.0
H598 H 0.7205 0.08988 0.09884 0.0
H599 H 0.71013 0.12153 0.07483 0.0
H600 H 0.77047 0.02674 0.03626 0.0
H601 H 0.73612 0.09377 0.9716 0.0
H602 H 0.70076 0.01333 0.07824 0.0
H603 H 0.72636 0.03683 0.09957 0.0
H604 H 0.7402 0.00521 0.07732 0.0
H605 H 0.66244 0.09202 0.99578 0.0
H606 H 0.69014 0.11631 0.97843 0.0
H607 H 0.67957 0.12007 0.02045 0.0
C608 C 0.39344 0.75637 0.5287 0.0
C609 C 0.41132 0.73401 0.51504 0.0
C610 C 0.38624 0.78209 0.51118 0.0
C611 C 0.39735 0.78575 0.47921 0.0
C612 C 0.41543 0.76336 0.46518 0.0
C613 C 0.42215 0.73766 0.48325 0.0
C614 C 0.3668 0.80546 0.52703 0.0
C615 C 0.42784 0.7667 0.43127 0.0
C616 C 0.35339 0.84454 0.43429 0.0
C617 C 0.36938 0.87017 0.44293 0.0
C618 C 0.36361 0.8162 0.44351 0.0
C619 C 0.39052 0.81366 0.46136 0.0
C620 C 0.40826 0.83923 0.46693 0.0
C621 C 0.39737 0.86723 0.4578 0.0
C622 C 0.34412 0.78942 0.43701 0.0
C623 C 0.43734 0.83745 0.48535 0.0
H624 H 0.38484 0.75373 0.55315 0.0
H625 H 0.43598 0.72049 0.4725 0.0
H626 H 0.37926 0.82675 0.52907 0.0
H627 H 0.34682 0.80975 0.51181 0.0
H628 H 0.35929 0.79877 0.5517 0.0
H629 H 0.44095 0.74693 0.42357 0.0
H630 H 0.40943 0.7702 0.41366 0.0
H631 H 0.44243 0.78665 0.43005 0.0
H632 H 0.33176 0.84673 0.42274 0.0
H633 H 0.41002 0.88702 0.46406 0.0
H634 H 0.33249 0.783 0.45977 0.0
H635 H 0.3577 0.77008 0.42914 0.0
H636 H 0.32702 0.79411 0.41814 0.0
H637 H 0.43263 0.83412 0.51158 0.0
H638 H 0.45077 0.85812 0.48263 0.0
H639 H 0.45084 0.81823 0.47696 0.0
C640 C 0.77453 0.41224 0.47013 0.0
C641 C 0.77801 0.40262 0.50237 0.0
C642 C 0.74835 0.40569 0.45265 0.0
C643 C 0.7254 0.38902 0.4678 0.0
C644 C 0.72926 0.37855 0.49996 0.0
C645 C 0.75539 0.38555 0.51681 0.0
C646 C 0.74488 0.41726 0.41843 0.0
C647 C 0.70542 0.36052 0.51699 0.0
C648 C 0.6433 0.39489 0.45011 0.0
C649 C 0.63754 0.36707 0.43591 0.0
C650 C 0.67242 0.40362 0.45782 0.0
C651 C 0.69633 0.38392 0.45145 0.0
C652 C 0.69096 0.35692 0.43458 0.0
C653 C 0.66152 0.34883 0.42687 0.0
C654 C 0.6772 0.43277 0.47543 0.0
C655 C 0.7159 0.33539 0.42725 0.0
H656 H 0.79196 0.42537 0.45879 0.0
H657 H 0.75799 0.37765 0.54155 0.0
H658 H 0.73788 0.39905 0.40187 0.0
H659 H 0.72713 0.43446 0.41782 0.0
H660 H 0.76584 0.42728 0.40902 0.0
H661 H 0.7126 0.35279 0.54142 0.0
H662 H 0.68497 0.37418 0.51988 0.0
H663 H 0.6994 0.34075 0.5022 0.0
H664 H 0.62486 0.40935 0.45658 0.0
H665 H 0.65721 0.32738 0.41568 0.0
H666 H 0.69671 0.44482 0.46533 0.0
H667 H 0.68188 0.42825 0.50146 0.0
H668 H 0.65733 0.44749 0.47391 0.0
H669 H 0.73589 0.34735 0.41816 0.0
H670 H 0.70914 0.31842 0.40901 0.0
H671 H 0.72239 0.32367 0.44993 0.0
C672 C 0.13602 0.67151 0.44008 0.0
C673 C 0.12307 0.64402 0.44793 0.0
C674 C 0.12536 0.69798 0.45404 0.0
C675 C 0.10092 0.69682 0.47582 0.0
C676 C 0.08637 0.66939 0.48179 0.0
C677 C 0.09781 0.64325 0.46799 0.0
C678 C 0.1416 0.7268 0.44731 0.0
C679 C 0.05984 0.66734 0.5043 0.0
C680 C 0.09909 0.75307 0.54436 0.0
C681 C 0.07858 0.77409 0.53273 0.0
C682 C 0.10658 0.72794 0.52593 0.0
C683 C 0.09287 0.72345 0.49532 0.0
C684 C 0.0717 0.74422 0.48366 0.0
C685 C 0.06496 0.76947 0.50242 0.0
C686 C 0.12949 0.70638 0.53908 0.0
C687 C 0.05626 0.7398 0.4514 0.0
H688 H 0.15558 0.67216 0.42462 0.0
H689 H 0.08751 0.62203 0.47377 0.0
H690 H 0.12558 0.74472 0.44102 0.0
H691 H 0.15368 0.73396 0.46953 0.0
H692 H 0.15799 0.72454 0.42721 0.0
H693 H 0.04861 0.64531 0.50276 0.0
H694 H 0.06727 0.67084 0.52974 0.0
H695 H 0.04334 0.68499 0.49856 0.0
H696 H 0.10986 0.75657 0.56765 0.0
H697 H 0.04899 0.78558 0.49334 0.0
H698 H 0.14836 0.70438 0.52176 0.0
H699 H 0.11945 0.68392 0.54173 0.0
H700 H 0.13844 0.71341 0.56307 0.0
H701 H 0.07297 0.73944 0.43152 0.0
H702 H 0.03974 0.75762 0.44622 0.0
H703 H 0.04464 0.71797 0.45108 0.0
C704 C 0.74217 0.05285 0.50963 0.0
C705 C 0.73537 0.07099 0.53641 0.0
C706 C 0.7689 0.0568 0.49225 0.0
C707 C 0.78889 0.07962 0.50173 0.0
C708 C 0.78246 0.09739 0.52925 0.0
C709 C 0.75595 0.09271 0.54633 0.0
C710 C 0.77538 0.03712 0.46337 0.0
C711 C 0.80318 0.12205 0.54016 0.0
C712 C 0.87032 0.08682 0.4805 0.0
C713 C 0.86951 0.11029 0.458 0.0
C714 C 0.84392 0.07441 0.49271 0.0
C715 C 0.81616 0.08618 0.4826 0.0
C716 C 0.81521 0.10824 0.45799 0.0
C717 C 0.84198 0.11989 0.44578 0.0
C718 C 0.84583 0.05038 0.51831 0.0
C719 C 0.78604 0.12148 0.44669 0.0
H720 H 0.72643 0.03594 0.50189 0.0
H721 H 0.751 0.10677 0.56706 0.0
H722 H 0.77424 0.05049 0.44073 0.0
H723 H 0.79828 0.02788 0.46504 0.0
H724 H 0.75928 0.01838 0.46135 0.0
H725 H 0.79495 0.13366 0.56225 0.0
H726 H 0.82564 0.11288 0.54543 0.0
H727 H 0.80573 0.13872 0.52043 0.0
H728 H 0.89161 0.07892 0.48956 0.0
H729 H 0.84124 0.1379 0.42823 0.0
H730 H 0.8288 0.03288 0.51402 0.0
H731 H 0.84139 0.06026 0.54255 0.0
H732 H 0.86823 0.03981 0.5189 0.0
H733 H 0.76947 0.10372 0.4417 0.0
H734 H 0.78882 0.13524 0.42444 0.0
H735 H 0.77678 0.13584 0.46621 0.0
C736 C 0.47595 0.92926 0.92486 0.0
C737 C 0.48825 0.90953 0.94763 0.0
C738 C 0.47962 0.96015 0.9283 0.0
C739 C 0.49653 0.97128 0.95468 0.0
C740 C 0.51119 0.95124 0.97596 0.0
C741 C 0.50653 0.92055 0.97242 0.0
C742 C 0.46336 0.98078 0.90536 0.0
C743 C 0.5302 0.96224 0.00381 0.0
C744 C 0.52364 0.05075 0.96132 0.0
C745 C 0.5052 0.06175 0.98618 0.0
C746 C 0.52001 0.02178 0.94928 0.0
C747 C 0.49706 0.00364 0.962 0.0
C748 C 0.47665 0.01558 0.98487 0.0
C749 C 0.48113 0.04449 0.99693 0.0
C750 C 0.54227 0.00986 0.92501 0.0
C751 C 0.45133 0.99711 0.99828 0.0
H752 H 0.46139 0.92077 0.90595 0.0
H753 H 0.51599 0.90525 0.99002 0.0
H754 H 0.44382 0.99051 0.91805 0.0
H755 H 0.4779 -0.0005 0.89771 0.0
H756 H 0.45528 0.96893 0.88334 0.0
H757 H 0.54259 0.94386 0.01584 0.0
H758 H 0.54648 0.97908 0.99511 0.0
H759 H 0.51581 0.9732 0.02221 0.0
H760 H 0.54226 0.064 0.95272 0.0
H761 H 0.46667 0.05296 0.01591 0.0
H762 H 0.53085 0.99742 0.90532 0.0
H763 H 0.55753 0.99406 0.93743 0.0
H764 H 0.55589 0.0279 0.91397 0.0
H765 H 0.43916 0.9858 0.9783 0.0
H766 H 0.43527 0.01078 0.01242 0.0
H767 H 0.46042 0.97955 0.01449 0.0
C768 C 0.43408 0.52148 0.94602 0.0
C769 C 0.42209 0.50126 0.96859 0.0
C770 C 0.46369 0.51901 0.93543 0.0
C771 C 0.48151 0.4954 0.94719 0.0
C772 C 0.46882 0.47358 0.96794 0.0
C773 C 0.4393 0.47695 0.9787 0.0
C774 C 0.47644 0.54291 0.91364 0.0
C775 C 0.48696 0.4476 0.98032 0.0
C776 C 0.55661 0.47483 0.9113 0.0
C777 C 0.57586 0.48484 0.93584 0.0
C778 C 0.52571 0.47945 0.91362 0.0
C779 C 0.51411 0.49502 0.94073 0.0
C780 C 0.53385 0.50782 0.96373 0.0
C781 C 0.56451 0.50222 0.96122 0.0
C782 C 0.50542 0.46532 0.88872 0.0
C783 C 0.52243 0.52547 0.99239 0.0
H784 H 0.42096 0.54044 0.93814 0.0
H785 H 0.43011 0.4612 0.99599 0.0
H786 H 0.49161 0.55734 0.92803 0.0
H787 H 0.48978 0.53296 0.89372 0.0
H788 H 0.45875 0.55715 0.90286 0.0
H789 H 0.47295 0.43085 0.99307 0.0
H790 H 0.49871 0.43648 0.95992 0.0
H791 H 0.50419 0.45578 0.99751 0.0
H792 H 0.5653 0.46104 0.89185 0.0
H793 H 0.57942 0.50996 0.98019 0.0
H794 H 0.48746 0.4809 0.88137 0.0
H795 H 0.49459 0.44542 0.89957 0.0
H796 H 0.51783 0.45819 0.86668 0.0
H797 H 0.50586 0.54228 0.98432 0.0
H798 H 0.54071 0.53706 0.00554 0.0
H799 H 0.51103 0.51027 0.00966 0.0
C800 C 0.00507 0.56545 0.02353 0.0
C801 C 0.03169 0.58026 0.03099 0.0
C802 C -0.00047 0.53671 0.03552 0.0
C803 C 0.02132 0.52246 0.05506 0.0
C804 C 0.04688 0.53839 0.06514 0.0
C805 C 0.05167 0.56723 0.05314 0.0
C806 C 0.97156 0.52066 0.02495 0.0
C807 C 0.07058 0.52408 0.08602 0.0
C808 C 0.99817 0.44728 0.0888 0.0
C809 C 0.00633 0.42859 0.06301 0.0
C810 C 0.00435 0.47795 0.08765 0.0
C811 C 0.01947 0.48979 0.06035 0.0
C812 C 0.03032 0.47039 0.03589 0.0
C813 C 0.02329 0.44004 0.03735 0.0
C814 C 0.99241 0.49787 0.11416 0.0
C815 C 0.04737 0.48199 0.00685 0.0
H816 H 0.98939 0.57551 0.00673 0.0
H817 H 0.07223 0.57863 0.05932 0.0
H818 H 0.97738 0.50336 0.00676 0.0
H819 H 0.96099 0.50925 0.04592 0.0
H820 H 0.95504 0.53606 0.01386 0.0
H821 H 0.08585 0.5409 0.0968 0.0
H822 H 0.06044 0.51081 0.10589 0.0
H823 H 0.08402 0.50865 0.07088 0.0
H824 H 0.98472 0.43846 0.10849 0.0
H825 H 0.02964 0.4255 0.01746 0.0
H826 H 0.97203 0.50929 0.10527 0.0
H827 H 0.00883 0.51534 0.12076 0.0
H828 H 0.9865 0.48503 0.13634 0.0
H829 H 0.03218 0.49517 0.99113 0.0
H830 H 0.05709 0.4637 0.99206 0.0
H831 H 0.06565 0.49699 0.01478 0.0
C832 C 0.05906 0.97277 0.97359 0.0
C833 C 0.0738 0.99105 0.99617 0.0
C834 C 0.02929 0.97802 0.965 0.0
C835 C 0.0141 0.00253 0.97881 0.0
C836 C 0.02947 0.02226 0.99988 0.0
C837 C 0.0591 0.01608 0.00864 0.0
C838 C 0.01357 0.95622 0.94288 0.0
C839 C 0.01417 0.04911 0.01438 0.0
C840 C 0.93953 0.0282 0.94522 0.0
C841 C 0.92 0.01772 0.96923 0.0
C842 C 0.97031 0.02282 0.94745 0.0
C843 C 0.98147 0.00593 0.97384 0.0
C844 C 0.96147 0.9935 0.99679 0.0
C845 C 0.93098 -4e-05 0.99448 0.0
C846 C 0.99097 0.03686 0.92285 0.0
C847 C 0.97242 0.97457 0.0247 0.0
H848 H 0.07025 0.95329 0.9639 0.0
H849 H 0.07045 0.03036 0.02592 0.0
H850 H 0.99678 0.94353 0.95707 0.0
H851 H 0.00145 0.96815 0.92331 0.0
H852 H 0.02927 0.94012 0.93157 0.0
H853 H 0.0301 0.06407 0.02713 0.0
H854 H 0.00259 0.06203 0.99515 0.0
H855 H 0.99702 0.04171 0.03207 0.0
H856 H 0.93106 0.0424 0.926 0.0
H857 H 0.91581 0.99192 0.01304 0.0
H858 H 0.00714 0.02027 0.91348 0.0
H859 H 0.00402 0.05483 0.93476 0.0
H860 H 0.97862 0.04662 0.90199 0.0
H861 H 0.98729 0.95665 0.01563 0.0
H862 H 0.95378 0.96422 0.03845 0.0
H863 H 0.98565 0.9885 0.0417 0.0
C864 C 0.50029 0.56936 0.49222 0.0
C865 C 0.47332 0.58303 0.48374 0.0
C866 C 0.50717 0.54068 0.4809 0.0
C867 C 0.48624 0.52521 0.46133 0.0
C868 C 0.46018 0.53988 0.45054 0.0
C869 C 0.45421 0.56878 0.46157 0.0
C870 C 0.53571 0.52605 0.49202 0.0
C871 C 0.43714 0.52411 0.43 0.0
C872 C 0.50972 0.45031 0.42687 0.0
C873 C 0.50156 0.43131 0.45236 0.0
C874 C 0.50414 0.48105 0.42882 0.0
C875 C 0.48943 0.4926 0.45653 0.0
C876 C 0.47917 0.473 0.4811 0.0
C877 C 0.48586 0.44262 0.47898 0.0
C878 C 0.51589 0.50128 0.40246 0.0
C879 C 0.46246 0.48431 0.51052 0.0
H880 H 0.51527 0.58038 0.50907 0.0
H881 H 0.43334 0.57923 0.45473 0.0
H882 H 0.53055 0.50912 0.51087 0.0
H883 H 0.54671 0.5144 0.47148 0.0
H884 H 0.55161 0.54243 0.50252 0.0
H885 H 0.42079 0.5399 0.41929 0.0
H886 H 0.44784 0.51137 0.41008 0.0
H887 H 0.4248 0.50794 0.44537 0.0
H888 H 0.5224 0.4415 0.40659 0.0
H889 H 0.47973 0.42779 0.49871 0.0
H890 H 0.53542 0.5138 0.41188 0.0
H891 H 0.49883 0.51789 0.3952 0.0
H892 H 0.52297 0.48863 0.38057 0.0
H893 H 0.47761 0.49792 0.52583 0.0
H894 H 0.45344 0.46586 0.52561 0.0
H895 H 0.44369 0.49883 0.50291 0.0
C896 C 0.07218 0.48498 0.47151 0.0
C897 C 0.08159 0.50155 0.44457 0.0
C898 C 0.04251 0.47562 0.47442 0.0
C899 C 0.02164 0.48363 0.45009 0.0
C900 C 0.03141 0.49882 0.42187 0.0
C901 C 0.06146 0.5074 0.41929 0.0
C902 C 0.03318 0.45869 0.50448 0.0
C903 C 0.00979 0.50791 0.39555 0.0
C904 C 0.948 0.44306 0.45728 0.0
C905 C 0.93214 0.46214 0.4781 0.0
C906 C 0.9766 0.45054 0.4462 0.0
C907 C 0.98943 0.47793 0.45579 0.0
C908 C 0.97252 0.49836 0.4745 0.0
C909 C 0.9441 0.49012 0.48567 0.0
C910 C 0.99393 0.42807 0.42646 0.0
C911 C 0.98522 0.52812 0.4846 0.0
H912 H 0.0878 0.4804 0.49101 0.0
H913 H 0.06866 0.52055 0.39862 0.0
H914 H 0.01849 0.47292 0.51965 0.0
H915 H 0.02024 0.43855 0.49769 0.0
H916 H 0.05259 0.45172 0.51944 0.0
H917 H 0.02144 0.51575 0.37331 0.0
H918 H 0.99491 0.4891 0.38897 0.0
H919 H 0.99545 0.52623 0.40467 0.0
H920 H 0.9389 0.42139 0.45119 0.0
H921 H 0.93186 0.50505 0.50151 0.0
H922 H 0.01139 0.41784 0.44199 0.0
H923 H 0.00537 0.43899 0.40574 0.0
H924 H 0.9794 0.41002 0.41693 0.0
H925 H 0.00306 0.52462 0.50291 0.0
H926 H 0.96799 0.54292 0.49534 0.0
H927 H 0.99543 0.53958 0.46345 0.0
C928 C 0.00177 0.94219 0.49972 0.0
C929 C 0.02683 0.92491 0.49227 0.0
C930 C 0.99774 0.97027 0.48541 0.0
C931 C 0.01947 0.9813 0.46343 0.0
C932 C 0.04321 0.96275 0.45348 0.0
C933 C 0.04653 0.93465 0.46791 0.0
C934 C 0.97163 0.98916 0.496 0.0
C935 C 0.06669 0.97353 0.42996 0.0
C936 C 0.99851 0.05532 0.42564 0.0
C937 C 0.00891 0.07494 0.44962 0.0
C938 C 0.00356 0.02454 0.42835 0.0
C939 C 0.01973 0.01353 0.45534 0.0
C940 C 0.03314 0.03371 0.47744 0.0
C941 C 0.02729 0.06421 0.47446 0.0
C942 C 0.9891 0.00379 0.40416 0.0
C943 C 0.05137 0.02294 0.506 0.0
H944 H 0.98629 0.93466 0.51822 0.0
H945 H 0.06584 0.92129 0.46171 0.0
H946 H 0.9797 0.0074 0.51196 0.0
H947 H 0.96069 -0.00043 0.47464 0.0
H948 H 0.95474 0.97601 0.5096 0.0
H949 H 0.0797 0.95475 0.41955 0.0
H950 H 0.05655 0.98644 0.4098 0.0
H951 H 0.08239 0.98853 0.44291 0.0
H952 H 0.98405 0.0636 0.40654 0.0
H953 H 0.03541 0.07947 0.4929 0.0
H954 H 0.96835 0.99457 0.41488 0.0
H955 H 0.00393 0.98476 0.39829 0.0
H956 H 0.98317 0.01553 0.38129 0.0
H957 H 0.03647 0.01195 0.52391 0.0
H958 H 0.06322 0.04148 0.5184 0.0
H959 H 0.06806 0.00623 0.49803 0.0
C960 C 0.55037 0.0296 0.57621 0.0
C961 C 0.5717 0.02087 0.55322 0.0
C962 C 0.51997 0.02361 0.57127 0.0
C963 C 0.51097 0.00784 0.54313 0.0
C964 C 0.53271 0.99726 0.52099 0.0
C965 C 0.56281 0.00432 0.52605 0.0
C966 C 0.49741 0.03574 0.59508 0.0
C967 C 0.52408 0.97951 0.49125 0.0
C968 C 0.4344 0.97241 0.5383 0.0
C969 C 0.41968 0.99147 0.5165 0.0
C970 C 0.4639 0.97784 0.54785 0.0
C971 C 0.4788 0.00336 0.53594 0.0
C972 C 0.46353 0.02359 0.51536 0.0
C973 C 0.43421 0.01718 0.5055 0.0
C974 C 0.4796 0.95542 0.56923 0.0
C975 C 0.4785 0.05147 0.50286 0.0
H976 H 0.55719 0.04287 0.59695 0.0
H977 H 0.57935 0.99764 0.50825 0.0
H978 H 0.48379 0.05317 0.58299 0.0
H979 H 0.48191 0.01791 0.60304 0.0
H980 H 0.50814 0.04564 0.61689 0.0
H981 H 0.54384 0.9706 0.47818 0.0
H982 H 0.50944 0.9606 0.49817 0.0
H983 H 0.51128 0.99384 0.47427 0.0
H984 H 0.42339 0.95233 0.5467 0.0
H985 H 0.42288 0.032 0.48875 0.0
H986 H 0.48994 0.96663 0.59044 0.0
H987 H 0.49783 0.94463 0.5553 0.0
H988 H 0.46426 0.9378 0.57821 0.0
H989 H 0.48868 0.06403 0.52328 0.0
H990 H 0.46268 0.06633 0.48987 0.0
H991 H 0.49673 0.04534 0.48591 0.0
C992 C 0.55324 0.24439 0.32822 0.0
C993 C 0.54153 0.27308 0.33262 0.0
C994 C 0.5496 0.22914 0.29884 0.0
C995 C 0.53402 0.24298 0.27304 0.0
C996 C 0.52083 0.27134 0.27779 0.0
C997 C 0.52468 0.28608 0.30767 0.0
C998 C 0.56389 0.19887 0.29485 0.0
C999 C 0.50405 0.28675 0.25081 0.0
C1000 C 0.56301 0.22009 0.19059 0.0
C1001 C 0.54215 0.19854 0.18093 0.0
C1002 C 0.55979 0.23559 0.21985 0.0
C1003 C 0.53513 0.22934 0.24017 0.0
C1004 C 0.51343 0.20829 0.2302 0.0
C1005 C 0.51716 0.19311 0.20055 0.0
C1006 C 0.58342 0.25794 0.22951 0.0
C1007 C 0.48688 0.20108 0.25133 0.0
H1008 H 0.5659 0.23399 0.3476 0.0
H1009 H 0.51541 0.30817 0.31104 0.0
H1010 H 0.54766 0.18274 0.28461 0.0
H1011 H 0.58279 0.2005 0.27753 0.0
H1012 H 0.57247 0.1899 0.31822 0.0
H1013 H 0.4918 0.30669 0.25963 0.0
H1014 H 0.52 0.29393 0.23172 0.0
H1015 H 0.48795 0.27124 0.23927 0.0
H1016 H 0.58222 0.2247 0.17539 0.0
H1017 H 0.50088 0.1766 0.1931 0.0
H1018 H 0.59537 0.24991 0.25145 0.0
H1019 H 0.57299 0.2796 0.23578 0.0
H1020 H 0.60005 0.26172 0.20992 0.0
H1021 H 0.49452 0.18956 0.2737 0.0
H1022 H 0.47052 0.18653 0.2387 0.0
H1023 H 0.47548 0.22184 0.25904 0.0
C1024 C 0.23648 0.58192 0.30723 0.0
C1025 C 0.21213 0.56506 0.31822 0.0
C1026 C 0.24945 0.57655 0.27682 0.0
C1027 C 0.23765 0.55391 0.25662 0.0
C1028 C 0.21319 0.53662 0.26758 0.0
C1029 C 0.20077 0.54232 0.29837 0.0
C1030 C 0.27561 0.59541 0.26615 0.0
C1031 C 0.19985 0.51249 0.24656 0.0
C1032 C 0.25338 0.56651 0.16726 0.0
C1033 C 0.2782 0.5481 0.162 0.0
C1034 C 0.23908 0.56744 0.19751 0.0
C1035 C 0.25004 0.54978 0.22336 0.0
C1036 C 0.27446 0.53035 0.21796 0.0
C1037 C 0.28819 0.52961 0.18721 0.0
C1038 C 0.21294 0.58825 0.20213 0.0
C1039 C 0.28689 0.51133 0.24501 0.0
H1040 H 0.2456 0.59938 0.3225 0.0
H1041 H 0.18201 0.52915 0.30675 0.0
H1042 H 0.29468 0.58096 0.25935 0.0
H1043 H 0.26943 0.60851 0.24429 0.0
H1044 H 0.28306 0.6111 0.28539 0.0
H1045 H 0.1817 0.50019 0.25914 0.0
H1046 H 0.19069 0.52245 0.22398 0.0
H1047 H 0.21734 0.49638 0.23919 0.0
H1048 H 0.24529 0.58061 0.14776 0.0
H1049 H 0.30732 0.5153 0.18325 0.0
H1050 H 0.21924 0.60641 0.21909 0.0
H1051 H 0.19386 0.57616 0.21314 0.0
H1052 H 0.20548 0.59841 0.17889 0.0
H1053 H 0.29703 0.52585 0.26384 0.0
H1054 H 0.30414 0.49551 0.23619 0.0
H1055 H 0.26877 0.49849 0.25689 0.0
C1056 C 0.92216 0.26075 0.18692 0.0
C1057 C 0.9386 0.28687 0.18146 0.0
C1058 C 0.92429 0.24526 0.21635 0.0
C1059 C 0.94311 0.25631 0.24117 0.0
C1060 C 0.96024 0.28236 0.23568 0.0
C1061 C 0.9579 0.2973 0.20574 0.0
C1062 C 0.9058 0.21744 0.22115 0.0
C1063 C 0.98036 0.2949 0.26174 0.0
C1064 C 0.91883 0.23476 0.32603 0.0
C1065 C 0.93807 0.21101 0.3332 0.0
C1066 C 0.92102 0.25032 0.29665 0.0
C1067 C 0.9428 0.24176 0.27362 0.0
C1068 C 0.96263 0.21809 0.28081 0.0
C1069 C 0.96012 0.20303 0.31067 0.0
C1070 C 0.89955 0.27555 0.28999 0.0
C1071 C 0.98596 0.20822 0.25667 0.0
H1072 H 0.90746 0.25231 0.16813 0.0
H1073 H 0.97076 0.3174 0.20158 0.0
H1074 H 0.92018 0.19872 0.2292 0.0
H1075 H 0.88901 0.22129 0.24051 0.0
H1076 H 0.89394 0.21064 0.19863 0.0
H1077 H 0.9937 0.31413 0.25291 0.0
H1078 H 0.96671 0.30231 0.28274 0.0
H1079 H 0.9958 0.27744 0.27073 0.0
H1080 H 0.90193 0.24131 0.34346 0.0
H1081 H 0.97513 0.18478 0.31615 0.0
H1082 H 0.88496 0.2697 0.26916 0.0
H1083 H 0.912 0.296 0.28321 0.0
H1084 H 0.8852 0.28065 0.31128 0.0
H1085 H 0.97493 0.19939 0.23453 0.0
H1086 H 0.00081 0.19067 0.26671 0.0
H1087 H -0.00018 0.22747 0.24905 0.0
C1088 C 0.28561 0.98169 0.31625 0.0
C1089 C 0.27398 0.95972 0.33692 0.0
C1090 C 0.27433 0.98546 0.28459 0.0
C1091 C 0.25096 0.96679 0.27347 0.0
C1092 C 0.23834 0.94548 0.29477 0.0
C1093 C 0.24999 0.94222 0.32616 0.0
C1094 C 0.28823 0.00852 0.26261 0.0
C1095 C 0.2134 0.92511 0.28394 0.0
C1096 C 0.20612 0.98128 0.1965 0.0
C1097 C 0.21948 0.96122 0.17479 0.0
C1098 C 0.21694 0.98445 0.22843 0.0
C1099 C 0.2416 0.96712 0.23876 0.0
C1100 C 0.25583 0.94775 0.21651 0.0
C1101 C 0.24462 0.94506 0.18487 0.0
C1102 C 0.2013 0.00544 0.25145 0.0
C1103 C 0.28217 0.92884 0.22649 0.0
H1104 H 0.30404 0.99541 0.32446 0.0
H1105 H 0.24065 0.92537 0.34205 0.0
H1106 H 0.30086 0.99723 0.24296 0.0
H1107 H 0.27069 0.02223 0.25085 0.0
H1108 H 0.30372 0.02349 0.27594 0.0
H1109 H 0.20452 0.91135 0.3042 0.0
H1110 H 0.19482 0.93829 0.27345 0.0
H1111 H 0.22164 0.90995 0.26462 0.0
H1112 H 0.18678 0.99394 0.18883 0.0
H1113 H 0.25528 0.92969 0.16821 0.0
H1114 H 0.21773 0.01997 0.26393 0.0
H1115 H 0.18958 0.99241 0.27049 0.0
H1116 H 0.18471 0.0197 0.2388 0.0
H1117 H 0.29976 0.94292 0.2376 0.0
H1118 H 0.292 0.91653 0.20567 0.0
H1119 H 0.27504 0.91242 0.24511 0.0
C1120 C 0.42734 0.8 0.79167 0.0
C1121 C 0.44632 0.79593 0.81827 0.0
C1122 C 0.43177 0.7842 0.76271 0.0
C1123 C 0.4551 0.76299 0.76083 0.0
C1124 C 0.47543 0.76008 0.78701 0.0
C1125 C 0.471 0.77697 0.8154 0.0
C1126 C 0.41014 0.78872 0.735 0.0
C1127 C 0.50023 0.73739 0.78622 0.0
C1128 C 0.43096 0.69928 0.70699 0.0
C1129 C 0.44541 0.70615 0.67786 0.0
C1130 C 0.43608 0.71617 0.73507 0.0
C1131 C 0.45522 0.74127 0.7335 0.0
C1132 C 0.47108 0.74736 0.70446 0.0
C1133 C 0.46621 0.7294 0.67693 0.0
C1134 C 0.41938 0.70833 0.76579 0.0
C1135 C 0.49121 0.77417 0.70158 0.0
H1136 H 0.40833 0.8148 0.79396 0.0
H1137 H 0.48548 0.77362 0.83619 0.0
H1138 H 0.42228 0.7907 0.7116 0.0
H1139 H 0.39513 0.76912 0.73317 0.0
H1140 H 0.39619 0.80893 0.73843 0.0
H1141 H 0.51693 0.74137 0.8057 0.0
H1142 H 0.49064 0.71481 0.78969 0.0
H1143 H 0.51174 0.73754 0.76237 0.0
H1144 H 0.41481 0.68128 0.70749 0.0
H1145 H 0.477 0.73488 0.65411 0.0
H1146 H 0.40158 0.72504 0.77013 0.0
H1147 H 0.4346 0.70881 0.78705 0.0
H1148 H 0.40887 0.68595 0.76433 0.0
H1149 H 0.47734 0.79459 0.69992 0.0
H1150 H 0.5056 0.77299 0.67964 0.0
H1151 H 0.50559 0.77646 0.72338 0.0
C1152 C 0.75722 0.41322 0.6695 0.0
C1153 C 0.78395 0.42911 0.66608 0.0
C1154 C 0.7398 0.41593 0.69756 0.0
C1155 C 0.74971 0.43449 0.72316 0.0
C1156 C 0.77585 0.45191 0.71912 0.0
C1157 C 0.79259 0.44921 0.69035 0.0
C1158 C 0.71181 0.39738 0.70059 0.0
C1159 C 0.78726 0.47173 0.74601 0.0
C1160 C 0.69603 0.44554 0.79387 0.0
C1161 C 0.70459 0.42216 0.81445 0.0
C1162 C 0.71097 0.45051 0.76427 0.0
C1163 C 0.73521 0.43192 0.75552 0.0
C1164 C 0.74443 0.40891 0.77677 0.0
C1165 C 0.72887 0.40418 0.80577 0.0
C1166 C 0.70033 0.47501 0.74199 0.0
C1167 C 0.77037 0.38875 0.76857 0.0
H1168 H 0.75023 0.39805 0.65046 0.0
H1169 H 0.81323 0.46157 0.68764 0.0
H1170 H 0.71566 0.37903 0.71818 0.0
H1171 H 0.69312 0.41106 0.71001 0.0
H1172 H 0.70502 0.38744 0.67699 0.0
H1173 H 0.80513 0.48697 0.73744 0.0
H1174 H 0.76887 0.4852 0.75646 0.0
H1175 H 0.79641 0.4577 0.76586 0.0
H1176 H 0.67734 0.45957 0.80058 0.0
H1177 H 0.73592 0.38634 0.82179 0.0
H1178 H 0.69115 0.4651 0.71939 0.0
H1179 H 0.71925 0.48953 0.73482 0.0
H1180 H 0.68279 0.48898 0.75343 0.0
H1181 H 0.76488 0.3752 0.74682 0.0
H1182 H 0.77605 0.37338 0.78881 0.0
H1183 H 0.79039 0.40222 0.76261 0.0
C1184 C 0.02302 0.78146 0.69572 0.0
C1185 C 0.04513 0.80349 0.69603 0.0
C1186 C 0.01827 0.76335 0.72315 0.0
C1187 C 0.03566 0.76802 0.75147 0.0
C1188 C 0.05593 0.79223 0.75267 0.0
C1189 C 0.06082 0.80931 0.72469 0.0
C1190 C 0.99675 0.7376 0.7207 0.0
C1191 C 0.07434 0.79858 0.78263 0.0
C1192 C 0.02436 0.72903 0.83258 0.0
C1193 C 0.04843 0.70915 0.83223 0.0
C1194 C 0.01854 0.7474 0.80558 0.0
C1195 C 0.03685 0.74513 0.77761 0.0
C1196 C 0.05951 0.72316 0.77637 0.0
C1197 C 0.06534 0.70582 0.80392 0.0
C1198 C 0.99446 0.77075 0.80803 0.0
C1199 C 0.07906 0.71935 0.74675 0.0
H1200 H 0.01117 0.77682 0.6733 0.0
H1201 H 0.07791 0.82643 0.72476 0.0
H1202 H 0.00949 0.71669 0.71687 0.0
H1203 H 0.98379 0.735 0.74348 0.0
H1204 H 0.981 0.74039 0.70007 0.0
H1205 H 0.08537 0.82073 0.78139 0.0
H1206 H 0.06023 0.79775 0.80476 0.0
H1207 H 0.09189 0.7813 0.78519 0.0
H1208 H 0.01148 0.73172 0.85469 0.0
H1209 H 0.08387 0.69028 0.80373 0.0
H1210 H 0.98157 0.77226 0.78508 0.0
H1211 H 0.00492 0.79282 0.8123 0.0
H1212 H 0.97883 0.7661 0.82837 0.0
H1213 H 0.06529 0.71856 0.72436 0.0
H1214 H 0.09273 0.69875 0.74804 0.0
H1215 H 0.09435 0.7387 0.7446 0.0
C1216 C 0.72585 0.09377 0.7 0.0
C1217 C 0.70151 0.0753 0.69276 0.0
C1218 C 0.74207 0.09027 0.72879 0.0
C1219 C 0.73339 0.06812 0.75135 0.0
C1220 C 0.70909 0.04904 0.74404 0.0
C1221 C 0.69357 0.05265 0.71457 0.0
C1222 C 0.76811 0.1108 0.73538 0.0
C1223 C 0.69893 0.0255 0.76779 0.0
C1224 C 0.78992 0.05151 0.81791 0.0
C1225 C 0.78085 0.07158 0.84204 0.0
C1226 C 0.77407 0.04924 0.78848 0.0
C1227 C 0.74831 0.06701 0.78359 0.0
C1228 C 0.73837 0.08622 0.80858 0.0
C1229 C 0.75493 0.08849 0.83731 0.0
C1230 C 0.78559 0.02887 0.76215 0.0
C1231 C 0.71077 0.10519 0.80458 0.0
H1232 H 0.73243 0.11099 0.68296 0.0
H1233 H 0.67486 0.03825 0.70894 0.0
H1234 H 0.76289 0.12544 0.75635 0.0
H1235 H 0.7882 0.09766 0.74187 0.0
H1236 H 0.77352 0.12511 0.71414 0.0
H1237 H 0.68109 0.01112 0.75754 0.0
H1238 H 0.71798 0.01124 0.77512 0.0
H1239 H 0.69032 0.03635 0.79013 0.0
H1240 H 0.80989 0.03832 0.82159 0.0
H1241 H 0.74751 0.10366 0.85616 0.0
H1242 H 0.79361 0.04241 0.74134 0.0
H1243 H 0.76742 0.01435 0.75296 0.0
H1244 H 0.80422 0.0146 0.77077 0.0
H1245 H 0.71476 0.12238 0.78568 0.0
H1246 H 0.70439 0.11662 0.8275 0.0
H1247 H 0.69172 0.09133 0.79634 0.0
loop_
_geom_bond_atom_site_label_1
_geom_bond_atom_site_label_2
_geom_bond_distance
_geom_bond_site_symmetry_2
_ccdc_geom_bond_type
O0 Cd1 2.223 . S
O0 C8 1.315 . S
Cd1 O0 2.223 . S
Cd1 O4 2.297 . S
Cd1 O5 2.439 . S
Cd1 O11 2.240 . S
Cd2 O3 2.240 . S
Cd2 O10 2.223 . S
Cd2 O12 2.297 . S
Cd2 O13 2.439 . S
O3 Cd2 2.240 . S
O3 C8 1.279 . S
O4 Cd1 2.297 . S
O4 C6 1.247 . S
O5 Cd1 2.439 . S
O5 C6 1.208 . S
C6 O4 1.247 . S
C6 O5 1.208 . S
C7 O12 1.247 . S
C7 O13 1.208 . S
C8 O0 1.315 . S
C8 O3 1.279 . S
C9 O10 1.315 . S
C9 O11 1.279 . S
O10 Cd2 2.223 . S
O10 C9 1.315 . S
O11 Cd1 2.240 . S
O11 C9 1.279 . S
O12 Cd2 2.297 . S
O12 C7 1.247 . S
O13 Cd2 2.439 . S
O13 C7 1.208 . S
O14 Cd15 2.223 . S
O14 C22 1.315 . S
Cd15 O14 2.223 . S
Cd15 O18 2.297 . S
Cd15 O19 2.439 . S
Cd15 O25 2.240 . S
Cd16 O17 2.240 . S
Cd16 O24 2.223 . S
Cd16 O26 2.297 . S
Cd16 O27 2.439 . S
O17 Cd16 2.240 . S
O17 C22 1.279 . S
O18 Cd15 2.297 . S
O18 C20 1.247 . S
O19 Cd15 2.439 . S
O19 C20 1.208 . S
C20 O18 1.247 . S
C20 O19 1.208 . S
C21 O26 1.247 . S
C21 O27 1.208 . S
C22 O14 1.315 . S
C22 O17 1.279 . S
C23 O24 1.315 . S
C23 O25 1.279 . S
O24 Cd16 2.223 . S
O24 C23 1.315 . S
O25 Cd15 2.240 . S
O25 C23 1.279 . S
O26 Cd16 2.297 . S
O26 C21 1.247 . S
O27 Cd16 2.439 . S
O27 C21 1.208 . S
O28 Cd29 2.223 . S
O28 C36 1.315 . S
Cd29 O28 2.223 . S
Cd29 O32 2.297 . S
Cd29 O33 2.439 . S
Cd29 O39 2.240 . S
Cd30 O31 2.240 . S
Cd30 O38 2.223 . S
Cd30 O40 2.297 . S
Cd30 O41 2.439 . S
O31 Cd30 2.240 . S
O31 C36 1.279 . S
O32 Cd29 2.297 . S
O32 C34 1.247 . S
O33 Cd29 2.439 . S
O33 C34 1.208 . S
C34 O32 1.247 . S
C34 O33 1.208 . S
C35 O40 1.247 . S
C35 O41 1.208 . S
C36 O28 1.315 . S
C36 O31 1.279 . S
C37 O38 1.315 . S
C37 O39 1.279 . S
O38 Cd30 2.223 . S
O38 C37 1.315 . S
O39 Cd29 2.240 . S
O39 C37 1.279 . S
O40 Cd30 2.297 . S
O40 C35 1.247 . S
O41 Cd30 2.439 . S
O41 C35 1.208 . S
O42 Cd43 2.223 . S
O42 C50 1.315 . S
Cd43 O42 2.223 . S
Cd43 O46 2.297 . S
Cd43 O47 2.439 . S
Cd43 O53 2.240 . S
Cd44 O45 2.240 . S
Cd44 O52 2.223 . S
Cd44 O54 2.297 . S
Cd44 O55 2.439 . S
O45 Cd44 2.240 . S
O45 C50 1.279 . S
O46 Cd43 2.297 . S
O46 C48 1.247 . S
O47 Cd43 2.439 . S
O47 C48 1.208 . S
C48 O46 1.247 . S
C48 O47 1.208 . S
C49 O54 1.247 . S
C49 O55 1.208 . S
C50 O42 1.315 . S
C50 O45 1.279 . S
C51 O52 1.315 . S
C51 O53 1.279 . S
O52 Cd44 2.223 . S
O52 C51 1.315 . S
O53 Cd43 2.240 . S
O53 C51 1.279 . S
O54 Cd44 2.297 . S
O54 C49 1.247 . S
O55 Cd44 2.439 . S
O55 C49 1.208 . S
O56 Cd57 2.223 . S
O56 C64 1.315 . S
Cd57 O56 2.223 . S
Cd57 O60 2.297 . S
Cd57 O61 2.439 . S
Cd57 O67 2.240 . S
Cd58 O59 2.240 . S
Cd58 O66 2.223 . S
Cd58 O68 2.297 . S
Cd58 O69 2.439 . S
O59 Cd58 2.240 . S
O59 C64 1.279 . S
O60 Cd57 2.297 . S
O60 C62 1.247 . S
O61 Cd57 2.439 . S
O61 C62 1.208 . S
C62 O60 1.247 . S
C62 O61 1.208 . S
C63 O68 1.247 . S
C63 O69 1.208 . S
C64 O56 1.315 . S
C64 O59 1.279 . S
C65 O66 1.315 . S
C65 O67 1.279 . S
O66 Cd58 2.223 . S
O66 C65 1.315 . S
O67 Cd57 2.240 . S
O67 C65 1.279 . S
O68 Cd58 2.297 . S
O68 C63 1.247 . S
O69 Cd58 2.439 . S
O69 C63 1.208 . S
O70 Cd71 2.223 . S
O70 C78 1.315 . S
Cd71 O70 2.223 . S
Cd71 O74 2.297 . S
Cd71 O75 2.439 . S
Cd71 O81 2.240 . S
Cd72 O73 2.240 . S
Cd72 O80 2.223 . S
Cd72 O82 2.297 . S
Cd72 O83 2.439 . S
O73 Cd72 2.240 . S
O73 C78 1.279 . S
O74 Cd71 2.297 . S
O74 C76 1.247 . S
O75 Cd71 2.439 . S
O75 C76 1.208 . S
C76 O74 1.247 . S
C76 O75 1.208 . S
C77 O82 1.247 . S
C77 O83 1.208 . S
C78 O70 1.315 . S
C78 O73 1.279 . S
C79 O80 1.315 . S
C79 O81 1.279 . S
O80 Cd72 2.223 . S
O80 C79 1.315 . S
O81 Cd71 2.240 . S
O81 C79 1.279 . S
O82 Cd72 2.297 . S
O82 C77 1.247 . S
O83 Cd72 2.439 . S
O83 C77 1.208 . S
O84 Cd85 2.223 . S
O84 C92 1.315 . S
Cd85 O84 2.223 . S
Cd85 O88 2.297 . S
Cd85 O89 2.439 . S
Cd85 O95 2.240 . S
Cd86 O87 2.240 . S
Cd86 O94 2.223 . S
Cd86 O96 2.297 . S
Cd86 O97 2.439 . S
O87 Cd86 2.240 . S
O87 C92 1.279 . S
O88 Cd85 2.297 . S
O88 C90 1.247 . S
O89 Cd85 2.439 . S
O89 C90 1.208 . S
C90 O88 1.247 . S
C90 O89 1.208 . S
C91 O96 1.247 . S
C91 O97 1.208 . S
C92 O84 1.315 . S
C92 O87 1.279 . S
C93 O94 1.315 . S
C93 O95 1.279 . S
O94 Cd86 2.223 . S
O94 C93 1.315 . S
O95 Cd85 2.240 . S
O95 C93 1.279 . S
O96 Cd86 2.297 . S
O96 C91 1.247 . S
O97 Cd86 2.439 . S
O97 C91 1.208 . S
O98 Cd99 2.223 . S
O98 C106 1.315 . S
Cd99 O98 2.223 . S
Cd99 O102 2.297 . S
Cd99 O103 2.439 . S
Cd99 O109 2.240 . S
Cd100 O101 2.240 . S
Cd100 O108 2.223 . S
Cd100 O110 2.297 . S
Cd100 O111 2.439 . S
O101 Cd100 2.240 . S
O101 C106 1.279 . S
O102 Cd99 2.297 . S
O102 C104 1.247 . S
O103 Cd99 2.439 . S
O103 C104 1.208 . S
C104 O102 1.247 . S
C104 O103 1.208 . S
C105 O110 1.247 . S
C105 O111 1.208 . S
C106 O98 1.315 . S
C106 O101 1.279 . S
C107 O108 1.315 . S
C107 O109 1.279 . S
O108 Cd100 2.223 . S
O108 C107 1.315 . S
O109 Cd99 2.240 . S
O109 C107 1.279 . S
O110 Cd100 2.297 . S
O110 C105 1.247 . S
O111 Cd100 2.439 . S
O111 C105 1.208 . S
O112 Cd113 2.223 . S
O112 C120 1.315 . S
Cd113 O112 2.223 . S
Cd113 O116 2.297 . S
Cd113 O117 2.439 . S
Cd113 O123 2.240 . S
Cd114 O115 2.240 . S
Cd114 O122 2.223 . S
Cd114 O124 2.297 . S
Cd114 O125 2.439 . S
O115 Cd114 2.240 . S
O115 C120 1.279 . S
O116 Cd113 2.297 . S
O116 C118 1.247 . S
O117 Cd113 2.439 . S
O117 C118 1.208 . S
C118 O116 1.247 . S
C118 O117 1.208 . S
C119 O124 1.247 . S
C119 O125 1.208 . S
C120 O112 1.315 . S
C120 O115 1.279 . S
C121 O122 1.315 . S
C121 O123 1.279 . S
O122 Cd114 2.223 . S
O122 C121 1.315 . S
O123 Cd113 2.240 . S
O123 C121 1.279 . S
O124 Cd114 2.297 . S
O124 C119 1.247 . S
O125 Cd114 2.439 . S
O125 C119 1.208 . S
O126 Cd127 2.223 . S
O126 C134 1.315 . S
Cd127 O126 2.223 . S
Cd127 O130 2.297 . S
Cd127 O131 2.439 . S
Cd127 O137 2.240 . S
Cd128 O129 2.240 . S
Cd128 O136 2.223 . S
Cd128 O138 2.297 . S
Cd128 O139 2.439 . S
O129 Cd128 2.240 . S
O129 C134 1.279 . S
O130 Cd127 2.297 . S
O130 C132 1.247 . S
O131 Cd127 2.439 . S
O131 C132 1.208 . S
C132 O130 1.247 . S
C132 O131 1.208 . S
C133 O138 1.247 . S
C133 O139 1.208 . S
C134 O126 1.315 . S
C134 O129 1.279 . S
C135 O136 1.315 . S
C135 O137 1.279 . S
O136 Cd128 2.223 . S
O136 C135 1.315 . S
O137 Cd127 2.240 . S
O137 C135 1.279 . S
O138 Cd128 2.297 . S
O138 C133 1.247 . S
O139 Cd128 2.439 . S
O139 C133 1.208 . S
O140 Cd141 2.223 . S
O140 C148 1.315 . S
Cd141 O140 2.223 . S
Cd141 O144 2.297 . S
Cd141 O145 2.439 . S
Cd141 O151 2.240 . S
Cd142 O143 2.240 . S
Cd142 O150 2.223 . S
Cd142 O152 2.297 . S
Cd142 O153 2.439 . S
O143 Cd142 2.240 . S
O143 C148 1.279 . S
O144 Cd141 2.297 . S
O144 C146 1.247 . S
O145 Cd141 2.439 . S
O145 C146 1.208 . S
C146 O144 1.247 . S
C146 O145 1.208 . S
C147 O152 1.247 . S
C147 O153 1.208 . S
C148 O140 1.315 . S
C148 O143 1.279 . S
C149 O150 1.315 . S
C149 O151 1.279 . S
O150 Cd142 2.223 . S
O150 C149 1.315 . S
O151 Cd141 2.240 . S
O151 C149 1.279 . S
O152 Cd142 2.297 . S
O152 C147 1.247 . S
O153 Cd142 2.439 . S
O153 C147 1.208 . S
O154 Cd155 2.223 . S
O154 C162 1.315 . S
Cd155 O154 2.223 . S
Cd155 O158 2.297 . S
Cd155 O159 2.439 . S
Cd155 O165 2.240 . S
Cd156 O157 2.240 . S
Cd156 O164 2.223 . S
Cd156 O166 2.297 . S
Cd156 O167 2.439 . S
O157 Cd156 2.240 . S
O157 C162 1.279 . S
O158 Cd155 2.297 . S
O158 C160 1.247 . S
O159 Cd155 2.439 . S
O159 C160 1.208 . S
C160 O158 1.247 . S
C160 O159 1.208 . S
C161 O166 1.247 . S
C161 O167 1.208 . S
C162 O154 1.315 . S
C162 O157 1.279 . S
C163 O164 1.315 . S
C163 O165 1.279 . S
O164 Cd156 2.223 . S
O164 C163 1.315 . S
O165 Cd155 2.240 . S
O165 C163 1.279 . S
O166 Cd156 2.297 . S
O166 C161 1.247 . S
O167 Cd156 2.439 . S
O167 C161 1.208 . S
O168 Cd169 2.223 . S
O168 C176 1.315 . S
Cd169 O168 2.223 . S
Cd169 O172 2.297 . S
Cd169 O173 2.439 . S
Cd169 O179 2.240 . S
Cd170 O171 2.240 . S
Cd170 O178 2.223 . S
Cd170 O180 2.297 . S
Cd170 O181 2.439 . S
O171 Cd170 2.240 . S
O171 C176 1.279 . S
O172 Cd169 2.297 . S
O172 C174 1.247 . S
O173 Cd169 2.439 . S
O173 C174 1.208 . S
C174 O172 1.247 . S
C174 O173 1.208 . S
C175 O180 1.247 . S
C175 O181 1.208 . S
C176 O168 1.315 . S
C176 O171 1.279 . S
C177 O178 1.315 . S
C177 O179 1.279 . S
O178 Cd170 2.223 . S
O178 C177 1.315 . S
O179 Cd169 2.240 . S
O179 C177 1.279 . S
O180 Cd170 2.297 . S
O180 C175 1.247 . S
O181 Cd170 2.439 . S
O181 C175 1.208 . S
O182 Cd183 2.223 . S
O182 C190 1.315 . S
Cd183 O182 2.223 . S
Cd183 O186 2.297 . S
Cd183 O187 2.439 . S
Cd183 O193 2.240 . S
Cd184 O185 2.240 . S
Cd184 O192 2.223 . S
Cd184 O194 2.297 . S
Cd184 O195 2.439 . S
O185 Cd184 2.240 . S
O185 C190 1.279 . S
O186 Cd183 2.297 . S
O186 C188 1.247 . S
O187 Cd183 2.439 . S
O187 C188 1.208 . S
C188 O186 1.247 . S
C188 O187 1.208 . S
C189 O194 1.247 . S
C189 O195 1.208 . S
C190 O182 1.315 . S
C190 O185 1.279 . S
C191 O192 1.315 . S
C191 O193 1.279 . S
O192 Cd184 2.223 . S
O192 C191 1.315 . S
O193 Cd183 2.240 . S
O193 C191 1.279 . S
O194 Cd184 2.297 . S
O194 C189 1.247 . S
O195 Cd184 2.439 . S
O195 C189 1.208 . S
O196 Cd197 2.223 . S
O196 C204 1.315 . S
Cd197 O196 2.223 . S
Cd197 O200 2.297 . S
Cd197 O201 2.439 . S
Cd197 O207 2.240 . S
Cd198 O199 2.240 . S
Cd198 O206 2.223 . S
Cd198 O208 2.297 . S
Cd198 O209 2.439 . S
O199 Cd198 2.240 . S
O199 C204 1.279 . S
O200 Cd197 2.297 . S
O200 C202 1.247 . S
O201 Cd197 2.439 . S
O201 C202 1.208 . S
C202 O200 1.247 . S
C202 O201 1.208 . S
C203 O208 1.247 . S
C203 O209 1.208 . S
C204 O196 1.315 . S
C204 O199 1.279 . S
C205 O206 1.315 . S
C205 O207 1.279 . S
O206 Cd198 2.223 . S
O206 C205 1.315 . S
O207 Cd197 2.240 . S
O207 C205 1.279 . S
O208 Cd198 2.297 . S
O208 C203 1.247 . S
O209 Cd198 2.439 . S
O209 C203 1.208 . S
O210 Cd211 2.223 . S
O210 C218 1.315 . S
Cd211 O210 2.223 . S
Cd211 O214 2.297 . S
Cd211 O215 2.439 . S
Cd211 O221 2.240 . S
Cd212 O213 2.240 . S
Cd212 O220 2.223 . S
Cd212 O222 2.297 . S
Cd212 O223 2.439 . S
O213 Cd212 2.240 . S
O213 C218 1.279 . S
O214 Cd211 2.297 . S
O214 C216 1.247 . S
O215 Cd211 2.439 . S
O215 C216 1.208 . S
C216 O214 1.247 . S
C216 O215 1.208 . S
C217 O222 1.247 . S
C217 O223 1.208 . S
C218 O210 1.315 . S
C218 O213 1.279 . S
C219 O220 1.315 . S
C219 O221 1.279 . S
O220 Cd212 2.223 . S
O220 C219 1.315 . S
O221 Cd211 2.240 . S
O221 C219 1.279 . S
O222 Cd212 2.297 . S
O222 C217 1.247 . S
O223 Cd212 2.439 . S
O223 C217 1.208 . S
C224 C225 1.391 . S
C224 C226 1.394 . S
C224 H240 0.931 . S
C225 C224 1.391 . S
C225 C229 1.376 . S
C226 C224 1.394 . S
C226 C227 1.369 . S
C226 C230 1.531 . S
C227 C226 1.369 . S
C227 C228 1.410 . S
C227 C235 1.503 . S
C228 C227 1.410 . S
C228 C229 1.392 . S
C228 C231 1.511 . S
C229 C225 1.376 . S
C229 C228 1.392 . S
C229 H241 0.929 . S
C230 C226 1.531 . S
C230 H242 0.960 . S
C230 H243 0.962 . S
C230 H244 0.960 . S
C231 C228 1.511 . S
C231 H245 0.954 1_554 S
C231 H246 0.961 1_554 S
C231 H247 0.961 . S
C232 C233 1.370 . S
C232 C234 1.363 . S
C232 H248 0.931 . S
C233 C232 1.370 . S
C233 C237 1.408 1_556 S
C234 C232 1.363 . S
C234 C235 1.370 1_556 S
C234 C238 1.524 . S
C235 C227 1.503 . S
C235 C234 1.370 1_554 S
C235 C236 1.403 . S
C236 C235 1.403 . S
C236 C237 1.404 . S
C236 C239 1.539 . S
C237 C233 1.408 1_554 S
C237 C236 1.404 . S
C237 H249 0.930 . S
C238 C234 1.524 . S
C238 H250 0.956 . S
C238 H251 0.961 . S
C238 H252 0.961 . S
C239 C236 1.539 . S
C239 H253 0.958 . S
C239 H254 0.961 . S
C239 H255 0.960 . S
H240 C224 0.931 . S
H241 C229 0.929 . S
H242 C230 0.960 . S
H243 C230 0.962 . S
H244 C230 0.960 . S
H245 C231 0.954 1_556 S
H246 C231 0.961 1_556 S
H247 C231 0.961 . S
H248 C232 0.931 . S
H249 C237 0.930 . S
H250 C238 0.956 . S
H251 C238 0.961 . S
H252 C238 0.961 . S
H253 C239 0.958 . S
H254 C239 0.961 . S
H255 C239 0.960 . S
C256 C257 1.391 . S
C256 C258 1.394 . S
C256 H272 0.931 . S
C257 C256 1.391 . S
C257 C261 1.376 1_556 S
C258 C256 1.394 . S
C258 C259 1.369 . S
C258 C262 1.531 . S
C259 C258 1.369 . S
C259 C260 1.410 1_556 S
C259 C267 1.503 1_556 S
C260 C259 1.410 1_554 S
C260 C261 1.392 . S
C260 C263 1.511 . S
C261 C257 1.376 1_554 S
C261 C260 1.392 . S
C261 H273 0.929 . S
C262 C258 1.531 . S
C262 H274 0.960 . S
C262 H275 0.962 . S
C262 H276 0.960 . S
C263 C260 1.511 . S
C263 H277 0.961 . S
C263 H278 0.961 . S
C263 H279 0.961 . S
C264 C265 1.370 . S
C264 C266 1.363 . S
C264 H280 0.931 . S
C265 C264 1.370 . S
C265 C269 1.408 . S
C266 C264 1.363 . S
C266 C267 1.370 . S
C266 C270 1.524 . S
C267 C259 1.503 1_554 S
C267 C266 1.370 . S
C267 C268 1.403 . S
C268 C267 1.403 . S
C268 C269 1.404 . S
C268 C271 1.539 . S
C269 C265 1.408 . S
C269 C268 1.404 . S
C269 H281 0.930 . S
C270 C266 1.524 . S
C270 H282 0.956 1_554 S
C270 H283 0.961 . S
C270 H284 0.961 . S
C271 C268 1.539 . S
C271 H285 0.958 1_554 S
C271 H286 0.961 . S
C271 H287 0.960 . S
H272 C256 0.931 . S
H273 C261 0.929 . S
H274 C262 0.960 . S
H275 C262 0.962 . S
H276 C262 0.960 . S
H277 C263 0.961 . S
H278 C263 0.961 . S
H279 C263 0.961 . S
H280 C264 0.931 . S
H281 C269 0.930 . S
H282 C270 0.956 1_556 S
H283 C270 0.961 . S
H284 C270 0.961 . S
H285 C271 0.958 1_556 S
H286 C271 0.961 . S
H287 C271 0.960 . S
C288 C289 1.391 1_554 S
C288 C290 1.394 . S
C288 H304 0.931 . S
C289 C288 1.391 1_556 S
C289 C293 1.376 . S
C290 C288 1.394 . S
C290 C291 1.369 . S
C290 C294 1.531 . S
C291 C290 1.369 . S
C291 C292 1.410 1_554 S
C291 C299 1.503 . S
C292 C291 1.410 1_556 S
C292 C293 1.392 . S
C292 C295 1.511 . S
C293 C289 1.376 . S
C293 C292 1.392 . S
C293 H305 0.929 . S
C294 C290 1.531 . S
C294 H306 0.960 . S
C294 H307 0.962 . S
C294 H308 0.960 . S
C295 C292 1.511 . S
C295 H309 0.961 . S
C295 H310 0.961 . S
C295 H311 0.961 . S
C296 C297 1.370 . S
C296 C298 1.363 1_554 S
C296 H312 0.931 1_554 S
C297 C296 1.370 . S
C297 C301 1.408 . S
C298 C296 1.363 1_556 S
C298 C299 1.370 1_556 S
C298 C302 1.524 . S
C299 C291 1.503 . S
C299 C298 1.370 1_554 S
C299 C300 1.403 . S
C300 C299 1.403 . S
C300 C301 1.404 . S
C300 C303 1.539 . S
C301 C297 1.408 . S
C301 C300 1.404 . S
C301 H313 0.930 . S
C302 C298 1.524 . S
C302 H314 0.956 . S
C302 H315 0.961 . S
C302 H316 0.961 . S
C303 C300 1.539 . S
C303 H317 0.958 . S
C303 H318 0.961 . S
C303 H319 0.960 . S
H304 C288 0.931 . S
H305 C293 0.929 . S
H306 C294 0.960 . S
H307 C294 0.962 . S
H308 C294 0.960 . S
H309 C295 0.961 . S
H310 C295 0.961 . S
H311 C295 0.961 . S
H312 C296 0.931 1_556 S
H313 C301 0.930 . S
H314 C302 0.956 . S
H315 C302 0.961 . S
H316 C302 0.961 . S
H317 C303 0.958 . S
H318 C303 0.961 . S
H319 C303 0.960 . S
C320 C321 1.391 . S
C320 C322 1.394 1_556 S
C320 H336 0.932 . S
C321 C320 1.391 . S
C321 C325 1.376 . S
C322 C320 1.394 1_554 S
C322 C323 1.369 . S
C322 C326 1.531 . S
C323 C322 1.369 . S
C323 C324 1.410 1_554 S
C323 C331 1.503 . S
C324 C323 1.410 1_556 S
C324 C325 1.392 . S
C324 C327 1.511 . S
C325 C321 1.376 . S
C325 C324 1.392 . S
C325 H337 0.929 . S
C326 C322 1.531 . S
C326 H338 0.960 . S
C326 H339 0.962 . S
C326 H340 0.960 . S
C327 C324 1.511 . S
C327 H341 0.961 . S
C327 H342 0.961 . S
C327 H343 0.961 . S
C328 C329 1.369 . S
C328 C330 1.364 1_554 S
C328 H344 0.932 1_554 S
C329 C328 1.369 . S
C329 C333 1.408 . S
C330 C328 1.364 1_556 S
C330 C331 1.370 1_556 S
C330 C334 1.524 . S
C331 C323 1.503 . S
C331 C330 1.370 1_554 S
C331 C332 1.403 . S
C332 C331 1.403 . S
C332 C333 1.404 . S
C332 C335 1.539 . S
C333 C329 1.408 . S
C333 C332 1.404 . S
C333 H345 0.930 . S
C334 C330 1.524 . S
C334 H346 0.956 . S
C334 H347 0.961 . S
C334 H348 0.961 . S
C335 C332 1.539 . S
C335 H349 0.958 . S
C335 H350 0.961 . S
C335 H351 0.960 . S
H336 C320 0.932 . S
H337 C325 0.929 . S
H338 C326 0.960 . S
H339 C326 0.962 . S
H340 C326 0.960 . S
H341 C327 0.961 . S
H342 C327 0.961 . S
H343 C327 0.961 . S
H344 C328 0.932 1_556 S
H345 C333 0.930 . S
H346 C334 0.956 . S
H347 C334 0.961 . S
H348 C334 0.961 . S
H349 C335 0.958 . S
H350 C335 0.961 . S
H351 C335 0.960 . S
C352 C353 1.391 . S
C352 C354 1.394 . S
C352 H368 0.931 . S
C353 C352 1.391 . S
C353 C357 1.376 . S
C354 C352 1.394 . S
C354 C355 1.369 . S
C354 C358 1.531 . S
C355 C354 1.369 . S
C355 C356 1.410 . S
C355 C363 1.503 . S
C356 C355 1.410 . S
C356 C357 1.392 . S
C356 C359 1.511 . S
C357 C353 1.376 . S
C357 C356 1.392 . S
C357 H369 0.929 . S
C358 C354 1.531 . S
C358 H370 0.960 . S
C358 H371 0.962 . S
C358 H372 0.960 . S
C359 C356 1.511 . S
C359 H373 0.961 . S
C359 H374 0.961 . S
C359 H375 0.961 . S
C360 C361 1.370 . S
C360 C362 1.363 . S
C360 H376 0.931 . S
C361 C360 1.370 . S
C361 C365 1.408 . S
C362 C360 1.363 . S
C362 C363 1.370 . S
C362 C366 1.524 . S
C363 C355 1.503 . S
C363 C362 1.370 . S
C363 C364 1.403 . S
C364 C363 1.403 . S
C364 C365 1.404 . S
C364 C367 1.539 . S
C365 C361 1.408 . S
C365 C364 1.404 . S
C365 H377 0.930 . S
C366 C362 1.524 . S
C366 H378 0.956 . S
C366 H379 0.961 . S
C366 H380 0.961 . S
C367 C364 1.539 . S
C367 H381 0.958 . S
C367 H382 0.961 . S
C367 H383 0.960 . S
H368 C352 0.931 . S
H369 C357 0.929 . S
H370 C358 0.960 . S
H371 C358 0.962 . S
H372 C358 0.960 . S
H373 C359 0.961 . S
H374 C359 0.961 . S
H375 C359 0.961 . S
H376 C360 0.931 . S
H377 C365 0.930 . S
H378 C366 0.956 . S
H379 C366 0.961 . S
H380 C366 0.961 . S
H381 C367 0.958 . S
H382 C367 0.961 . S
H383 C367 0.960 . S
C384 C385 1.391 . S
C384 C386 1.394 . S
C384 H400 0.931 . S
C385 C384 1.391 . S
C385 C389 1.376 . S
C386 C384 1.394 . S
C386 C387 1.369 . S
C386 C390 1.531 . S
C387 C386 1.369 . S
C387 C388 1.410 . S
C387 C395 1.503 . S
C388 C387 1.410 . S
C388 C389 1.392 . S
C388 C391 1.511 . S
C389 C385 1.376 . S
C389 C388 1.392 . S
C389 H401 0.929 . S
C390 C386 1.531 . S
C390 H402 0.960 . S
C390 H403 0.962 . S
C390 H404 0.960 . S
C391 C388 1.511 . S
C391 H405 0.961 . S
C391 H406 0.961 . S
C391 H407 0.961 . S
C392 C393 1.370 . S
C392 C394 1.363 . S
C392 H408 0.931 . S
C393 C392 1.370 . S
C393 C397 1.408 . S
C394 C392 1.363 . S
C394 C395 1.370 . S
C394 C398 1.524 . S
C395 C387 1.503 . S
C395 C394 1.370 . S
C395 C396 1.403 . S
C396 C395 1.403 . S
C396 C397 1.404 . S
C396 C399 1.539 . S
C397 C393 1.408 . S
C397 C396 1.404 . S
C397 H409 0.930 . S
C398 C394 1.524 . S
C398 H410 0.956 . S
C398 H411 0.961 . S
C398 H412 0.961 . S
C399 C396 1.539 . S
C399 H413 0.958 . S
C399 H414 0.961 . S
C399 H415 0.960 . S
H400 C384 0.931 . S
H401 C389 0.929 . S
H402 C390 0.960 . S
H403 C390 0.962 . S
H404 C390 0.960 . S
H405 C391 0.961 . S
H406 C391 0.961 . S
H407 C391 0.961 . S
H408 C392 0.931 . S
H409 C397 0.930 . S
H410 C398 0.956 . S
H411 C398 0.961 . S
H412 C398 0.961 . S
H413 C399 0.958 . S
H414 C399 0.961 . S
H415 C399 0.960 . S
C416 C417 1.391 . S
C416 C418 1.394 . S
C416 H432 0.931 . S
C417 C416 1.391 . S
C417 C421 1.376 . S
C418 C416 1.394 . S
C418 C419 1.369 . S
C418 C422 1.531 . S
C419 C418 1.369 . S
C419 C420 1.410 . S
C419 C427 1.503 . S
C420 C419 1.410 . S
C420 C421 1.392 . S
C420 C423 1.511 . S
C421 C417 1.376 . S
C421 C420 1.392 . S
C421 H433 0.929 . S
C422 C418 1.531 . S
C422 H434 0.960 . S
C422 H435 0.962 . S
C422 H436 0.960 . S
C423 C420 1.511 . S
C423 H437 0.961 . S
C423 H438 0.961 . S
C423 H439 0.961 . S
C424 C425 1.370 . S
C424 C426 1.363 . S
C424 H440 0.931 . S
C425 C424 1.370 . S
C425 C429 1.408 . S
C426 C424 1.363 . S
C426 C427 1.370 . S
C426 C430 1.524 . S
C427 C419 1.503 . S
C427 C426 1.370 . S
C427 C428 1.403 . S
C428 C427 1.403 . S
C428 C429 1.404 . S
C428 C431 1.539 . S
C429 C425 1.408 . S
C429 C428 1.404 . S
C429 H441 0.930 . S
C430 C426 1.524 . S
C430 H442 0.956 . S
C430 H443 0.961 . S
C430 H444 0.961 . S
C431 C428 1.539 . S
C431 H445 0.958 . S
C431 H446 0.961 . S
C431 H447 0.960 . S
H432 C416 0.931 . S
H433 C421 0.929 . S
H434 C422 0.960 . S
H435 C422 0.962 . S
H436 C422 0.960 . S
H437 C423 0.961 . S
H438 C423 0.961 . S
H439 C423 0.961 . S
H440 C424 0.931 . S
H441 C429 0.930 . S
H442 C430 0.956 . S
H443 C430 0.961 . S
H444 C430 0.961 . S
H445 C431 0.958 . S
H446 C431 0.961 . S
H447 C431 0.960 . S
C448 C449 1.391 . S
C448 C450 1.394 . S
C448 H464 0.931 . S
C449 C448 1.391 . S
C449 C453 1.376 . S
C450 C448 1.394 . S
C450 C451 1.369 . S
C450 C454 1.531 . S
C451 C450 1.369 . S
C451 C452 1.410 . S
C451 C459 1.503 . S
C452 C451 1.410 . S
C452 C453 1.392 . S
C452 C455 1.511 . S
C453 C449 1.376 . S
C453 C452 1.392 . S
C453 H465 0.929 . S
C454 C450 1.531 . S
C454 H466 0.960 . S
C454 H467 0.962 . S
C454 H468 0.960 . S
C455 C452 1.511 . S
C455 H469 0.961 . S
C455 H470 0.961 . S
C455 H471 0.961 . S
C456 C457 1.370 . S
C456 C458 1.363 . S
C456 H472 0.931 . S
C457 C456 1.370 . S
C457 C461 1.408 . S
C458 C456 1.363 . S
C458 C459 1.370 . S
C458 C462 1.524 . S
C459 C451 1.503 . S
C459 C458 1.370 . S
C459 C460 1.403 . S
C460 C459 1.403 . S
C460 C461 1.404 . S
C460 C463 1.539 . S
C461 C457 1.408 . S
C461 C460 1.404 . S
C461 H473 0.930 . S
C462 C458 1.524 . S
C462 H474 0.956 . S
C462 H475 0.961 . S
C462 H476 0.961 . S
C463 C460 1.539 . S
C463 H477 0.958 . S
C463 H478 0.961 . S
C463 H479 0.960 . S
H464 C448 0.931 . S
H465 C453 0.929 . S
H466 C454 0.960 . S
H467 C454 0.962 . S
H468 C454 0.960 . S
H469 C455 0.961 . S
H470 C455 0.961 . S
H471 C455 0.961 . S
H472 C456 0.931 . S
H473 C461 0.930 . S
H474 C462 0.956 . S
H475 C462 0.961 . S
H476 C462 0.961 . S
H477 C463 0.958 . S
H478 C463 0.961 . S
H479 C463 0.960 . S
C480 C481 1.391 . S
C480 C482 1.394 . S
C480 H496 0.931 . S
C481 C480 1.391 . S
C481 C485 1.376 . S
C482 C480 1.394 . S
C482 C483 1.369 . S
C482 C486 1.531 . S
C483 C482 1.369 . S
C483 C484 1.421 . S
C483 C491 1.510 . S
C484 C483 1.421 . S
C484 C485 1.400 . S
C484 C487 1.493 1_556 S
C485 C481 1.376 . S
C485 C484 1.400 . S
C485 H497 0.929 . S
C486 C482 1.531 . S
C486 H498 0.960 . S
C486 H499 0.962 . S
C486 H500 0.960 . S
C487 C484 1.493 1_554 S
C487 H501 0.961 . S
C487 H502 0.961 . S
C487 H503 0.961 . S
C488 C489 1.370 . S
C488 C490 1.363 . S
C488 H504 0.931 . S
C489 C488 1.370 . S
C489 C493 1.408 1_554 S
C490 C488 1.363 . S
C490 C491 1.356 1_554 S
C490 C494 1.524 . S
C491 C483 1.510 . S
C491 C490 1.356 1_556 S
C491 C492 1.411 . S
C492 C491 1.411 . S
C492 C493 1.404 . S
C492 C495 1.539 . S
C493 C489 1.408 1_556 S
C493 C492 1.404 . S
C493 H505 0.930 . S
C494 C490 1.524 . S
C494 H506 0.956 . S
C494 H507 0.961 . S
C494 H508 0.961 . S
C495 C492 1.539 . S
C495 H509 0.958 . S
C495 H510 0.961 . S
C495 H511 0.960 . S
H496 C480 0.931 . S
H497 C485 0.929 . S
H498 C486 0.960 . S
H499 C486 0.962 . S
H500 C486 0.960 . S
H501 C487 0.961 . S
H502 C487 0.961 . S
H503 C487 0.961 . S
H504 C488 0.931 . S
H505 C493 0.930 . S
H506 C494 0.956 . S
H507 C494 0.961 . S
H508 C494 0.961 . S
H509 C495 0.958 . S
H510 C495 0.961 . S
H511 C495 0.960 . S
C512 C513 1.391 . S
C512 C514 1.394 . S
C512 H528 0.931 . S
C513 C512 1.391 . S
C513 C517 1.376 . S
C514 C512 1.394 . S
C514 C515 1.369 . S
C514 C518 1.531 . S
C515 C514 1.369 . S
C515 C516 1.410 . S
C515 C523 1.503 . S
C516 C515 1.410 . S
C516 C517 1.392 . S
C516 C519 1.511 1_556 S
C517 C513 1.376 . S
C517 C516 1.392 . S
C517 H529 0.929 . S
C518 C514 1.531 . S
C518 H530 0.960 . S
C518 H531 0.962 . S
C518 H532 0.960 . S
C519 C516 1.511 1_554 S
C519 H533 0.961 . S
C519 H534 0.961 . S
C519 H535 0.961 1_554 S
C520 C521 1.370 . S
C520 C522 1.363 . S
C520 H536 0.931 . S
C521 C520 1.370 . S
C521 C525 1.408 1_554 S
C522 C520 1.363 . S
C522 C523 1.370 1_554 S
C522 C526 1.524 . S
C523 C515 1.503 . S
C523 C522 1.370 1_556 S
C523 C524 1.403 . S
C524 C523 1.403 . S
C524 C525 1.404 . S
C524 C527 1.539 . S
C525 C521 1.408 1_556 S
C525 C524 1.404 . S
C525 H537 0.930 . S
C526 C522 1.524 . S
C526 H538 0.956 . S
C526 H539 0.961 . S
C526 H540 0.961 . S
C527 C524 1.539 . S
C527 H541 0.958 . S
C527 H542 0.961 . S
C527 H543 0.960 . S
H528 C512 0.931 . S
H529 C517 0.929 . S
H530 C518 0.960 . S
H531 C518 0.962 . S
H532 C518 0.960 . S
H533 C519 0.961 . S
H534 C519 0.961 . S
H535 C519 0.961 1_556 S
H536 C520 0.931 . S
H537 C525 0.930 . S
H538 C526 0.956 . S
H539 C526 0.961 . S
H540 C526 0.961 . S
H541 C527 0.958 . S
H542 C527 0.961 . S
H543 C527 0.960 . S
C544 C545 1.391 . S
C544 C546 1.394 1_556 S
C544 H560 0.937 . S
C545 C544 1.391 . S
C545 C549 1.376 . S
C546 C544 1.394 1_554 S
C546 C547 1.369 1_554 S
C546 C550 1.531 . S
C547 C546 1.369 1_556 S
C547 C548 1.410 . S
C547 C555 1.503 1_556 S
C548 C547 1.410 . S
C548 C549 1.392 . S
C548 C551 1.511 . S
C549 C545 1.376 . S
C549 C548 1.392 . S
C549 H561 0.929 . S
C550 C546 1.531 . S
C550 H562 0.960 . S
C550 H563 0.962 . S
C550 H564 0.960 . S
C551 C548 1.511 . S
C551 H565 0.961 . S
C551 H566 0.961 . S
C551 H567 0.961 . S
C552 C553 1.370 1_556 S
C552 C554 1.363 . S
C552 H568 0.931 . S
C553 C552 1.370 1_554 S
C553 C557 1.408 . S
C554 C552 1.363 . S
C554 C555 1.370 1_556 S
C554 C558 1.524 . S
C555 C547 1.503 1_554 S
C555 C554 1.370 1_554 S
C555 C556 1.403 . S
C556 C555 1.403 . S
C556 C557 1.404 . S
C556 C559 1.539 . S
C557 C553 1.408 . S
C557 C556 1.404 . S
C557 H569 0.930 . S
C558 C554 1.524 . S
C558 H570 0.956 . S
C558 H571 0.961 . S
C558 H572 0.961 . S
C559 C556 1.539 . S
C559 H573 0.958 . S
C559 H574 0.961 . S
C559 H575 0.960 . S
H560 C544 0.937 . S
H561 C549 0.929 . S
H562 C550 0.960 . S
H563 C550 0.962 . S
H564 C550 0.960 . S
H565 C551 0.961 . S
H566 C551 0.961 . S
H567 C551 0.961 . S
H568 C552 0.931 . S
H569 C557 0.930 . S
H570 C558 0.956 . S
H571 C558 0.961 . S
H572 C558 0.961 . S
H573 C559 0.958 . S
H574 C559 0.961 . S
H575 C559 0.960 . S
C576 C577 1.409 . S
C576 C578 1.384 1_554 S
C576 H592 0.923 1_554 S
C577 C576 1.409 . S
C577 C581 1.376 . S
C578 C576 1.384 1_556 S
C578 C579 1.369 . S
C578 C582 1.531 . S
C579 C578 1.369 . S
C579 C580 1.410 1_556 S
C579 C587 1.503 . S
C580 C579 1.410 1_554 S
C580 C581 1.392 . S
C580 C583 1.511 . S
C581 C577 1.376 . S
C581 C580 1.392 . S
C581 H593 0.929 . S
C582 C578 1.531 . S
C582 H594 0.960 . S
C582 H595 0.962 . S
C582 H596 0.960 . S
C583 C580 1.511 . S
C583 H597 0.961 . S
C583 H598 0.961 . S
C583 H599 0.961 . S
C584 C585 1.370 . S
C584 C586 1.363 1_556 S
C584 H600 0.931 1_556 S
C585 C584 1.370 . S
C585 C589 1.408 . S
C586 C584 1.363 1_554 S
C586 C587 1.370 1_554 S
C586 C590 1.524 . S
C587 C579 1.503 . S
C587 C586 1.370 1_556 S
C587 C588 1.403 . S
C588 C587 1.403 . S
C588 C589 1.404 . S
C588 C591 1.539 . S
C589 C585 1.408 . S
C589 C588 1.404 . S
C589 H601 0.930 . S
C590 C586 1.524 . S
C590 H602 0.956 . S
C590 H603 0.961 . S
C590 H604 0.961 . S
C591 C588 1.539 . S
C591 H605 0.958 . S
C591 H606 0.961 . S
C591 H607 0.960 . S
H592 C576 0.923 1_556 S
H593 C581 0.929 . S
H594 C582 0.960 . S
H595 C582 0.962 . S
H596 C582 0.960 . S
H597 C583 0.961 . S
H598 C583 0.961 . S
H599 C583 0.961 . S
H600 C584 0.931 1_554 S
H601 C589 0.930 . S
H602 C590 0.956 . S
H603 C590 0.961 . S
H604 C590 0.961 . S
H605 C591 0.958 . S
H606 C591 0.961 . S
H607 C591 0.960 . S
C608 C609 1.391 . S
C608 C610 1.394 . S
C608 H624 0.931 . S
C609 C608 1.391 . S
C609 C613 1.376 . S
C610 C608 1.394 . S
C610 C611 1.369 . S
C610 C614 1.531 . S
C611 C610 1.369 . S
C611 C612 1.410 . S
C611 C619 1.503 . S
C612 C611 1.410 . S
C612 C613 1.392 . S
C612 C615 1.511 . S
C613 C609 1.376 . S
C613 C612 1.392 . S
C613 H625 0.929 . S
C614 C610 1.531 . S
C614 H626 0.960 . S
C614 H627 0.962 . S
C614 H628 0.960 . S
C615 C612 1.511 . S
C615 H629 0.961 . S
C615 H630 0.961 . S
C615 H631 0.961 . S
C616 C617 1.370 . S
C616 C618 1.363 . S
C616 H632 0.931 . S
C617 C616 1.370 . S
C617 C621 1.408 . S
C618 C616 1.363 . S
C618 C619 1.370 . S
C618 C622 1.524 . S
C619 C611 1.503 . S
C619 C618 1.370 . S
C619 C620 1.403 . S
C620 C619 1.403 . S
C620 C621 1.404 . S
C620 C623 1.539 . S
C621 C617 1.408 . S
C621 C620 1.404 . S
C621 H633 0.930 . S
C622 C618 1.524 . S
C622 H634 0.956 . S
C622 H635 0.961 . S
C622 H636 0.961 . S
C623 C620 1.539 . S
C623 H637 0.958 . S
C623 H638 0.961 . S
C623 H639 0.960 . S
H624 C608 0.931 . S
H625 C613 0.929 . S
H626 C614 0.960 . S
H627 C614 0.962 . S
H628 C614 0.960 . S
H629 C615 0.961 . S
H630 C615 0.961 . S
H631 C615 0.961 . S
H632 C616 0.931 . S
H633 C621 0.930 . S
H634 C622 0.956 . S
H635 C622 0.961 . S
H636 C622 0.961 . S
H637 C623 0.958 . S
H638 C623 0.961 . S
H639 C623 0.960 . S
C640 C641 1.391 . S
C640 C642 1.394 . S
C640 H656 0.931 . S
C641 C640 1.391 . S
C641 C645 1.376 . S
C642 C640 1.394 . S
C642 C643 1.369 . S
C642 C646 1.531 . S
C643 C642 1.369 . S
C643 C644 1.410 . S
C643 C651 1.503 . S
C644 C643 1.410 . S
C644 C645 1.392 . S
C644 C647 1.511 . S
C645 C641 1.376 . S
C645 C644 1.392 . S
C645 H657 0.929 . S
C646 C642 1.531 . S
C646 H658 0.960 . S
C646 H659 0.962 . S
C646 H660 0.960 . S
C647 C644 1.511 . S
C647 H661 0.961 . S
C647 H662 0.961 . S
C647 H663 0.961 . S
C648 C649 1.370 . S
C648 C650 1.363 . S
C648 H664 0.931 . S
C649 C648 1.370 . S
C649 C653 1.408 . S
C650 C648 1.363 . S
C650 C651 1.370 . S
C650 C654 1.524 . S
C651 C643 1.503 . S
C651 C650 1.370 . S
C651 C652 1.403 . S
C652 C651 1.403 . S
C652 C653 1.404 . S
C652 C655 1.539 . S
C653 C649 1.408 . S
C653 C652 1.404 . S
C653 H665 0.930 . S
C654 C650 1.524 . S
C654 H666 0.956 . S
C654 H667 0.961 . S
C654 H668 0.961 . S
C655 C652 1.539 . S
C655 H669 0.958 . S
C655 H670 0.961 . S
C655 H671 0.960 . S
H656 C640 0.931 . S
H657 C645 0.929 . S
H658 C646 0.960 . S
H659 C646 0.962 . S
H660 C646 0.960 . S
H661 C647 0.961 . S
H662 C647 0.961 . S
H663 C647 0.961 . S
H664 C648 0.931 . S
H665 C653 0.930 . S
H666 C654 0.956 . S
H667 C654 0.961 . S
H668 C654 0.961 . S
H669 C655 0.958 . S
H670 C655 0.961 . S
H671 C655 0.960 . S
C672 C673 1.391 . S
C672 C674 1.394 . S
C672 H688 0.931 . S
C673 C672 1.391 . S
C673 C677 1.376 . S
C674 C672 1.394 . S
C674 C675 1.369 . S
C674 C678 1.531 . S
C675 C674 1.369 . S
C675 C676 1.410 . S
C675 C683 1.503 . S
C676 C675 1.410 . S
C676 C677 1.392 . S
C676 C679 1.511 . S
C677 C673 1.376 . S
C677 C676 1.392 . S
C677 H689 0.929 . S
C678 C674 1.531 . S
C678 H690 0.960 . S
C678 H691 0.962 . S
C678 H692 0.960 . S
C679 C676 1.511 . S
C679 H693 0.961 . S
C679 H694 0.961 . S
C679 H695 0.961 . S
C680 C681 1.370 . S
C680 C682 1.363 . S
C680 H696 0.931 . S
C681 C680 1.370 . S
C681 C685 1.408 . S
C682 C680 1.363 . S
C682 C683 1.370 . S
C682 C686 1.524 . S
C683 C675 1.503 . S
C683 C682 1.370 . S
C683 C684 1.403 . S
C684 C683 1.403 . S
C684 C685 1.404 . S
C684 C687 1.539 . S
C685 C681 1.408 . S
C685 C684 1.404 . S
C685 H697 0.930 . S
C686 C682 1.524 . S
C686 H698 0.956 . S
C686 H699 0.961 . S
C686 H700 0.961 . S
C687 C684 1.539 . S
C687 H701 0.958 . S
C687 H702 0.961 . S
C687 H703 0.960 . S
H688 C672 0.931 . S
H689 C677 0.929 . S
H690 C678 0.960 . S
H691 C678 0.962 . S
H692 C678 0.960 . S
H693 C679 0.961 . S
H694 C679 0.961 . S
H695 C679 0.961 . S
H696 C680 0.931 . S
H697 C685 0.930 . S
H698 C686 0.956 . S
H699 C686 0.961 . S
H700 C686 0.961 . S
H701 C687 0.958 . S
H702 C687 0.961 . S
H703 C687 0.960 . S
C704 C705 1.391 . S
C704 C706 1.394 . S
C704 H720 0.931 . S
C705 C704 1.391 . S
C705 C709 1.376 . S
C706 C704 1.394 . S
C706 C707 1.369 . S
C706 C710 1.531 . S
C707 C706 1.369 . S
C707 C708 1.410 . S
C707 C715 1.503 . S
C708 C707 1.410 . S
C708 C709 1.392 . S
C708 C711 1.511 . S
C709 C705 1.376 . S
C709 C708 1.392 . S
C709 H721 0.929 . S
C710 C706 1.531 . S
C710 H722 0.960 . S
C710 H723 0.962 . S
C710 H724 0.960 . S
C711 C708 1.511 . S
C711 H725 0.961 . S
C711 H726 0.961 . S
C711 H727 0.961 . S
C712 C713 1.370 . S
C712 C714 1.363 . S
C712 H728 0.931 . S
C713 C712 1.370 . S
C713 C717 1.408 . S
C714 C712 1.363 . S
C714 C715 1.370 . S
C714 C718 1.524 . S
C715 C707 1.503 . S
C715 C714 1.370 . S
C715 C716 1.403 . S
C716 C715 1.403 . S
C716 C717 1.404 . S
C716 C719 1.539 . S
C717 C713 1.408 . S
C717 C716 1.404 . S
C717 H729 0.930 . S
C718 C714 1.524 . S
C718 H730 0.956 . S
C718 H731 0.961 . S
C718 H732 0.961 . S
C719 C716 1.539 . S
C719 H733 0.958 . S
C719 H734 0.961 . S
C719 H735 0.960 . S
H720 C704 0.931 . S
H721 C709 0.929 . S
H722 C710 0.960 . S
H723 C710 0.962 . S
H724 C710 0.960 . S
H725 C711 0.961 . S
H726 C711 0.961 . S
H727 C711 0.961 . S
H728 C712 0.931 . S
H729 C717 0.930 . S
H730 C718 0.956 . S
H731 C718 0.961 . S
H732 C718 0.961 . S
H733 C719 0.958 . S
H734 C719 0.961 . S
H735 C719 0.960 . S
C736 C737 1.391 . S
C736 C738 1.394 . S
C736 H752 0.931 . S
C737 C736 1.391 . S
C737 C741 1.376 . S
C738 C736 1.394 . S
C738 C739 1.374 . S
C738 C742 1.531 . S
C739 C738 1.374 . S
C739 C740 1.409 1_556 S
C739 C747 1.500 1_566 S
C740 C739 1.409 1_554 S
C740 C741 1.385 1_554 S
C740 C743 1.519 . S
C741 C737 1.376 . S
C741 C740 1.385 1_556 S
C741 H753 0.929 . S
C742 C738 1.531 . S
C742 H754 0.960 1_566 S
C742 H755 0.962 1_565 S
C742 H756 0.960 . S
C743 C740 1.519 . S
C743 H757 0.961 . S
C743 H758 0.961 . S
C743 H759 0.961 . S
C744 C745 1.370 . S
C744 C746 1.363 1_554 S
C744 H760 0.931 1_554 S
C745 C744 1.370 . S
C745 C749 1.408 . S
C746 C744 1.363 1_556 S
C746 C747 1.370 1_556 S
C746 C750 1.524 . S
C747 C739 1.500 1_544 S
C747 C746 1.370 1_554 S
C747 C748 1.403 . S
C748 C747 1.403 . S
C748 C749 1.404 . S
C748 C751 1.539 1_545 S
C749 C745 1.408 . S
C749 C748 1.404 . S
C749 H761 0.930 . S
C750 C746 1.524 . S
C750 H762 0.956 . S
C750 H763 0.961 . S
C750 H764 0.961 . S
C751 C748 1.539 1_565 S
C751 H765 0.958 . S
C751 H766 0.961 1_565 S
C751 H767 0.960 . S
H752 C736 0.931 . S
H753 C741 0.929 . S
H754 C742 0.960 1_544 S
H755 C742 0.962 1_545 S
H756 C742 0.960 . S
H757 C743 0.961 . S
H758 C743 0.961 . S
H759 C743 0.961 . S
H760 C744 0.931 1_556 S
H761 C749 0.930 . S
H762 C750 0.956 . S
H763 C750 0.961 . S
H764 C750 0.961 . S
H765 C751 0.958 . S
H766 C751 0.961 1_545 S
H767 C751 0.960 . S
C768 C769 1.383 1_556 S
C768 C770 1.397 . S
C768 H784 0.935 . S
C769 C768 1.383 1_554 S
C769 C773 1.376 . S
C770 C768 1.397 . S
C770 C771 1.369 1_556 S
C770 C774 1.531 . S
C771 C770 1.369 1_554 S
C771 C772 1.410 . S
C771 C779 1.503 1_554 S
C772 C771 1.410 . S
C772 C773 1.392 . S
C772 C775 1.511 . S
C773 C769 1.376 . S
C773 C772 1.392 . S
C773 H785 0.929 . S
C774 C770 1.531 . S
C774 H786 0.960 . S
C774 H787 0.962 . S
C774 H788 0.960 . S
C775 C772 1.511 . S
C775 H789 0.961 . S
C775 H790 0.961 . S
C775 H791 0.961 . S
C776 C777 1.370 . S
C776 C778 1.363 . S
C776 H792 0.931 . S
C777 C776 1.370 . S
C777 C781 1.408 . S
C778 C776 1.363 . S
C778 C779 1.370 . S
C778 C782 1.524 . S
C779 C771 1.503 1_556 S
C779 C778 1.370 . S
C779 C780 1.403 . S
C780 C779 1.403 . S
C780 C781 1.404 . S
C780 C783 1.539 . S
C781 C777 1.408 . S
C781 C780 1.404 . S
C781 H793 0.930 . S
C782 C778 1.524 . S
C782 H794 0.956 . S
C782 H795 0.961 1_556 S
C782 H796 0.961 . S
C783 C780 1.539 . S
C783 H797 0.958 . S
C783 H798 0.961 1_556 S
C783 H799 0.960 1_556 S
H784 C768 0.935 . S
H785 C773 0.929 . S
H786 C774 0.960 . S
H787 C774 0.962 . S
H788 C774 0.960 . S
H789 C775 0.961 . S
H790 C775 0.961 . S
H791 C775 0.961 . S
H792 C776 0.931 . S
H793 C781 0.930 . S
H794 C782 0.956 . S
H795 C782 0.961 1_554 S
H796 C782 0.961 . S
H797 C783 0.958 . S
H798 C783 0.961 1_554 S
H799 C783 0.960 1_554 S
C800 C801 1.391 1_655 S
C800 C802 1.394 . S
C800 H816 0.931 . S
C801 C800 1.391 1_455 S
C801 C805 1.376 . S
C802 C800 1.394 . S
C802 C803 1.369 1_655 S
C802 C806 1.531 . S
C803 C802 1.369 1_455 S
C803 C804 1.410 . S
C803 C811 1.507 1_556 S
C804 C803 1.410 . S
C804 C805 1.392 . S
C804 C807 1.511 1_556 S
C805 C801 1.376 . S
C805 C804 1.392 . S
C805 H817 0.929 . S
C806 C802 1.531 . S
C806 H818 0.960 . S
C806 H819 0.962 . S
C806 H820 0.960 . S
C807 C804 1.511 1_554 S
C807 H821 0.961 . S
C807 H822 0.961 . S
C807 H823 0.961 . S
C808 C809 1.370 . S
C808 C810 1.363 . S
C808 H824 0.931 . S
C809 C808 1.370 . S
C809 C813 1.408 1_655 S
C810 C808 1.363 . S
C810 C811 1.358 1_655 S
C810 C814 1.524 . S
C811 C803 1.507 1_554 S
C811 C810 1.358 1_455 S
C811 C812 1.412 1_554 S
C812 C811 1.412 1_556 S
C812 C813 1.404 1_556 S
C812 C815 1.539 . S
C813 C809 1.408 1_455 S
C813 C812 1.404 1_554 S
C813 H825 0.930 1_554 S
C814 C810 1.524 . S
C814 H826 0.956 . S
C814 H827 0.961 . S
C814 H828 0.961 . S
C815 C812 1.539 . S
C815 H829 0.958 . S
C815 H830 0.961 . S
C815 H831 0.960 . S
H816 C800 0.931 . S
H817 C805 0.929 . S
H818 C806 0.960 . S
H819 C806 0.962 . S
H820 C806 0.960 . S
H821 C807 0.961 . S
H822 C807 0.961 . S
H823 C807 0.961 . S
H824 C808 0.931 . S
H825 C813 0.930 1_556 S
H826 C814 0.956 . S
H827 C814 0.961 . S
H828 C814 0.961 . S
H829 C815 0.958 . S
H830 C815 0.961 . S
H831 C815 0.960 . S
C832 C833 1.391 . S
C832 C834 1.394 1_554 S
C832 H848 0.931 1_554 S
C833 C832 1.391 . S
C833 C837 1.376 . S
C834 C832 1.394 1_556 S
C834 C835 1.369 1_556 S
C834 C838 1.531 . S
C835 C834 1.369 1_554 S
C835 C836 1.410 . S
C835 C843 1.503 1_454 S
C836 C835 1.410 . S
C836 C837 1.392 . S
C836 C839 1.511 1_465 S
C837 C833 1.376 . S
C837 C836 1.392 . S
C837 H849 0.929 1_565 S
C838 C834 1.531 . S
C838 H850 0.960 . S
C838 H851 0.962 . S
C838 H852 0.960 . S
C839 C836 1.511 1_645 S
C839 H853 0.954 1_655 S
C839 H854 0.961 . S
C839 H855 0.961 1_545 S
C840 C841 1.370 . S
C840 C842 1.363 . S
C840 H856 0.931 . S
C841 C840 1.370 . S
C841 C845 1.408 1_545 S
C842 C840 1.363 . S
C842 C843 1.370 1_545 S
C842 C846 1.524 . S
C843 C835 1.503 1_656 S
C843 C842 1.370 1_565 S
C843 C844 1.403 . S
C844 C843 1.403 . S
C844 C845 1.404 . S
C844 C847 1.539 1_556 S
C845 C841 1.408 1_565 S
C845 C844 1.404 . S
C845 H857 0.930 . S
C846 C842 1.524 . S
C846 H858 0.956 1_655 S
C846 H859 0.961 1_656 S
C846 H860 0.961 . S
C847 C844 1.539 1_554 S
C847 H861 0.958 1_554 S
C847 H862 0.961 . S
C847 H863 0.960 . S
H848 C832 0.931 1_556 S
H849 C837 0.929 1_545 S
H850 C838 0.960 . S
H851 C838 0.962 . S
H852 C838 0.960 . S
H853 C839 0.954 1_455 S
H854 C839 0.961 . S
H855 C839 0.961 1_565 S
H856 C840 0.931 . S
H857 C845 0.930 . S
H858 C846 0.956 1_455 S
H859 C846 0.961 1_454 S
H860 C846 0.961 . S
H861 C847 0.958 1_556 S
H862 C847 0.961 . S
H863 C847 0.960 . S
C864 C865 1.391 . S
C864 C866 1.394 . S
C864 H880 0.931 . S
C865 C864 1.391 . S
C865 C869 1.376 . S
C866 C864 1.394 . S
C866 C867 1.369 . S
C866 C870 1.531 . S
C867 C866 1.369 . S
C867 C868 1.410 . S
C867 C875 1.503 . S
C868 C867 1.410 . S
C868 C869 1.392 . S
C868 C871 1.511 . S
C869 C865 1.376 . S
C869 C868 1.392 . S
C869 H881 0.929 . S
C870 C866 1.531 . S
C870 H882 0.960 . S
C870 H883 0.962 . S
C870 H884 0.960 . S
C871 C868 1.511 . S
C871 H885 0.961 . S
C871 H886 0.961 . S
C871 H887 0.961 . S
C872 C873 1.370 . S
C872 C874 1.363 . S
C872 H888 0.931 . S
C873 C872 1.370 . S
C873 C877 1.408 . S
C874 C872 1.363 . S
C874 C875 1.370 . S
C874 C878 1.524 . S
C875 C867 1.503 . S
C875 C874 1.370 . S
C875 C876 1.403 . S
C876 C875 1.403 . S
C876 C877 1.404 . S
C876 C879 1.539 . S
C877 C873 1.408 . S
C877 C876 1.404 . S
C877 H889 0.930 . S
C878 C874 1.524 . S
C878 H890 0.956 . S
C878 H891 0.961 . S
C878 H892 0.961 . S
C879 C876 1.539 . S
C879 H893 0.958 . S
C879 H894 0.961 . S
C879 H895 0.960 . S
H880 C864 0.931 . S
H881 C869 0.929 . S
H882 C870 0.960 . S
H883 C870 0.962 . S
H884 C870 0.960 . S
H885 C871 0.961 . S
H886 C871 0.961 . S
H887 C871 0.961 . S
H888 C872 0.931 . S
H889 C877 0.930 . S
H890 C878 0.956 . S
H891 C878 0.961 . S
H892 C878 0.961 . S
H893 C879 0.958 . S
H894 C879 0.961 . S
H895 C879 0.960 . S
C896 C897 1.391 . S
C896 C898 1.394 . S
C896 H912 0.931 . S
C897 C896 1.391 . S
C897 C901 1.376 . S
C898 C896 1.394 . S
C898 C899 1.369 . S
C898 C902 1.531 . S
C899 C898 1.369 . S
C899 C900 1.410 . S
C899 C907 1.503 1_455 S
C900 C899 1.410 . S
C900 C901 1.392 . S
C900 C903 1.511 1_455 S
C901 C897 1.376 . S
C901 C900 1.392 . S
C901 H913 0.929 . S
C902 C898 1.531 . S
C902 H914 0.960 . S
C902 H915 0.962 . S
C902 H916 0.960 . S
C903 C900 1.511 1_655 S
C903 H917 0.961 . S
C903 H918 0.961 . S
C903 H919 0.961 . S
C904 C905 1.370 . S
C904 C906 1.363 . S
C904 H920 0.931 . S
C905 C904 1.370 . S
C905 C909 1.408 . S
C906 C904 1.363 . S
C906 C907 1.370 . S
C906 C910 1.524 . S
C907 C899 1.503 1_655 S
C907 C906 1.370 . S
C907 C908 1.403 . S
C908 C907 1.403 . S
C908 C909 1.404 . S
C908 C911 1.539 . S
C909 C905 1.408 . S
C909 C908 1.404 . S
C909 H921 0.930 . S
C910 C906 1.524 . S
C910 H922 0.946 1_655 S
C910 H923 0.961 . S
C910 H924 0.961 . S
C911 C908 1.539 . S
C911 H925 0.958 . S
C911 H926 0.961 . S
C911 H927 0.960 1_655 S
H912 C896 0.931 . S
H913 C901 0.929 . S
H914 C902 0.960 . S
H915 C902 0.962 . S
H916 C902 0.960 . S
H917 C903 0.961 . S
H918 C903 0.961 . S
H919 C903 0.961 . S
H920 C904 0.931 . S
H921 C909 0.930 . S
H922 C910 0.946 1_455 S
H923 C910 0.961 . S
H924 C910 0.961 . S
H925 C911 0.958 . S
H926 C911 0.961 . S
H927 C911 0.960 1_455 S
C928 C929 1.391 1_655 S
C928 C930 1.394 . S
C928 H944 0.931 . S
C929 C928 1.391 1_455 S
C929 C933 1.376 . S
C930 C928 1.394 . S
C930 C931 1.369 1_655 S
C930 C934 1.531 . S
C931 C930 1.369 1_455 S
C931 C932 1.410 . S
C931 C939 1.506 1_565 S
C932 C931 1.410 . S
C932 C933 1.392 . S
C932 C935 1.511 . S
C933 C929 1.376 . S
C933 C932 1.392 . S
C933 H945 0.929 . S
C934 C930 1.531 . S
C934 H946 0.960 1_565 S
C934 H947 0.962 . S
C934 H948 0.960 . S
C935 C932 1.511 . S
C935 H949 0.961 . S
C935 H950 0.961 . S
C935 H951 0.961 . S
C936 C937 1.370 . S
C936 C938 1.363 . S
C936 H952 0.931 . S
C937 C936 1.370 . S
C937 C941 1.408 1_655 S
C938 C936 1.363 . S
C938 C939 1.361 1_655 S
C938 C942 1.524 1_545 S
C939 C931 1.506 1_545 S
C939 C938 1.361 1_455 S
C939 C940 1.410 . S
C940 C939 1.410 . S
C940 C941 1.404 . S
C940 C943 1.539 . S
C941 C937 1.408 1_455 S
C941 C940 1.404 . S
C941 H953 0.930 . S
C942 C938 1.524 1_565 S
C942 H954 0.956 . S
C942 H955 0.961 . S
C942 H956 0.961 . S
C943 C940 1.539 . S
C943 H957 0.958 . S
C943 H958 0.961 . S
C943 H959 0.960 . S
H944 C928 0.931 . S
H945 C933 0.929 . S
H946 C934 0.960 1_545 S
H947 C934 0.962 . S
H948 C934 0.960 . S
H949 C935 0.961 . S
H950 C935 0.961 . S
H951 C935 0.961 . S
H952 C936 0.931 . S
H953 C941 0.930 . S
H954 C942 0.956 . S
H955 C942 0.961 . S
H956 C942 0.961 . S
H957 C943 0.958 . S
H958 C943 0.961 . S
H959 C943 0.960 . S
C960 C961 1.391 . S
C960 C962 1.394 . S
C960 H976 0.931 . S
C961 C960 1.391 . S
C961 C965 1.376 1_545 S
C962 C960 1.394 . S
C962 C963 1.369 . S
C962 C966 1.531 . S
C963 C962 1.369 . S
C963 C964 1.410 1_545 S
C963 C971 1.503 1_545 S
C964 C963 1.410 1_565 S
C964 C965 1.392 . S
C964 C967 1.511 . S
C965 C961 1.376 1_565 S
C965 C964 1.392 . S
C965 H977 0.929 . S
C966 C962 1.531 . S
C966 H978 0.960 . S
C966 H979 0.962 . S
C966 H980 0.960 . S
C967 C964 1.511 . S
C967 H981 0.961 . S
C967 H982 0.961 . S
C967 H983 0.961 . S
C968 C969 1.370 . S
C968 C970 1.363 . S
C968 H984 0.931 . S
C969 C968 1.370 . S
C969 C973 1.399 1_565 S
C970 C968 1.363 . S
C970 C971 1.371 . S
C970 C974 1.524 . S
C971 C963 1.503 1_565 S
C971 C970 1.371 . S
C971 C972 1.402 1_565 S
C972 C971 1.402 1_545 S
C972 C973 1.409 . S
C972 C975 1.539 . S
C973 C969 1.399 1_545 S
C973 C972 1.409 . S
C973 H985 0.936 . S
C974 C970 1.524 . S
C974 H986 0.956 1_565 S
C974 H987 0.961 . S
C974 H988 0.961 . S
C975 C972 1.539 . S
C975 H989 0.958 . S
C975 H990 0.961 . S
C975 H991 0.960 . S
H976 C960 0.931 . S
H977 C965 0.929 . S
H978 C966 0.960 . S
H979 C966 0.962 . S
H980 C966 0.960 . S
H981 C967 0.961 . S
H982 C967 0.961 . S
H983 C967 0.961 . S
H984 C968 0.931 . S
H985 C973 0.936 . S
H986 C974 0.956 1_545 S
H987 C974 0.961 . S
H988 C974 0.961 . S
H989 C975 0.958 . S
H990 C975 0.961 . S
H991 C975 0.960 . S
C992 C993 1.391 . S
C992 C994 1.394 . S
C992 H1008 0.931 . S
C993 C992 1.391 . S
C993 C997 1.376 . S
C994 C992 1.394 . S
C994 C995 1.369 . S
C994 C998 1.531 . S
C995 C994 1.369 . S
C995 C996 1.410 . S
C995 C1003 1.503 . S
C996 C995 1.410 . S
C996 C997 1.392 . S
C996 C999 1.511 . S
C997 C993 1.376 . S
C997 C996 1.392 . S
C997 H1009 0.929 . S
C998 C994 1.531 . S
C998 H1010 0.960 . S
C998 H1011 0.962 . S
C998 H1012 0.960 . S
C999 C996 1.511 . S
C999 H1013 0.961 . S
C999 H1014 0.961 . S
C999 H1015 0.961 . S
C1000 C1001 1.370 . S
C1000 C1002 1.363 . S
C1000 H1016 0.931 . S
C1001 C1000 1.370 . S
C1001 C1005 1.408 . S
C1002 C1000 1.363 . S
C1002 C1003 1.370 . S
C1002 C1006 1.524 . S
C1003 C995 1.503 . S
C1003 C1002 1.370 . S
C1003 C1004 1.403 . S
C1004 C1003 1.403 . S
C1004 C1005 1.404 . S
C1004 C1007 1.539 . S
C1005 C1001 1.408 . S
C1005 C1004 1.404 . S
C1005 H1017 0.930 . S
C1006 C1002 1.524 . S
C1006 H1018 0.956 . S
C1006 H1019 0.961 . S
C1006 H1020 0.961 . S
C1007 C1004 1.539 . S
C1007 H1021 0.958 . S
C1007 H1022 0.961 . S
C1007 H1023 0.960 . S
H1008 C992 0.931 . S
H1009 C997 0.929 . S
H1010 C998 0.960 . S
H1011 C998 0.962 . S
H1012 C998 0.960 . S
H1013 C999 0.961 . S
H1014 C999 0.961 . S
H1015 C999 0.961 . S
H1016 C1000 0.931 . S
H1017 C1005 0.930 . S
H1018 C1006 0.956 . S
H1019 C1006 0.961 . S
H1020 C1006 0.961 . S
H1021 C1007 0.958 . S
H1022 C1007 0.961 . S
H1023 C1007 0.960 . S
C1024 C1025 1.391 . S
C1024 C1026 1.394 . S
C1024 H1040 0.931 . S
C1025 C1024 1.391 . S
C1025 C1029 1.376 . S
C1026 C1024 1.394 . S
C1026 C1027 1.369 . S
C1026 C1030 1.531 . S
C1027 C1026 1.369 . S
C1027 C1028 1.410 . S
C1027 C1035 1.503 . S
C1028 C1027 1.410 . S
C1028 C1029 1.392 . S
C1028 C1031 1.511 . S
C1029 C1025 1.376 . S
C1029 C1028 1.392 . S
C1029 H1041 0.929 . S
C1030 C1026 1.531 . S
C1030 H1042 0.960 . S
C1030 H1043 0.962 . S
C1030 H1044 0.960 . S
C1031 C1028 1.511 . S
C1031 H1045 0.961 . S
C1031 H1046 0.961 . S
C1031 H1047 0.961 . S
C1032 C1033 1.370 . S
C1032 C1034 1.363 . S
C1032 H1048 0.931 . S
C1033 C1032 1.370 . S
C1033 C1037 1.408 . S
C1034 C1032 1.363 . S
C1034 C1035 1.370 . S
C1034 C1038 1.524 . S
C1035 C1027 1.503 . S
C1035 C1034 1.370 . S
C1035 C1036 1.403 . S
C1036 C1035 1.403 . S
C1036 C1037 1.404 . S
C1036 C1039 1.539 . S
C1037 C1033 1.408 . S
C1037 C1036 1.404 . S
C1037 H1049 0.930 . S
C1038 C1034 1.524 . S
C1038 H1050 0.956 . S
C1038 H1051 0.961 . S
C1038 H1052 0.961 . S
C1039 C1036 1.539 . S
C1039 H1053 0.958 . S
C1039 H1054 0.961 . S
C1039 H1055 0.960 . S
H1040 C1024 0.931 . S
H1041 C1029 0.929 . S
H1042 C1030 0.960 . S
H1043 C1030 0.962 . S
H1044 C1030 0.960 . S
H1045 C1031 0.961 . S
H1046 C1031 0.961 . S
H1047 C1031 0.961 . S
H1048 C1032 0.931 . S
H1049 C1037 0.930 . S
H1050 C1038 0.956 . S
H1051 C1038 0.961 . S
H1052 C1038 0.961 . S
H1053 C1039 0.958 . S
H1054 C1039 0.961 . S
H1055 C1039 0.960 . S
C1056 C1057 1.391 . S
C1056 C1058 1.394 . S
C1056 H1072 0.931 . S
C1057 C1056 1.391 . S
C1057 C1061 1.376 . S
C1058 C1056 1.394 . S
C1058 C1059 1.369 . S
C1058 C1062 1.531 . S
C1059 C1058 1.369 . S
C1059 C1060 1.410 . S
C1059 C1067 1.503 . S
C1060 C1059 1.410 . S
C1060 C1061 1.392 . S
C1060 C1063 1.511 . S
C1061 C1057 1.376 . S
C1061 C1060 1.392 . S
C1061 H1073 0.929 . S
C1062 C1058 1.531 . S
C1062 H1074 0.960 . S
C1062 H1075 0.962 . S
C1062 H1076 0.960 . S
C1063 C1060 1.511 . S
C1063 H1077 0.961 . S
C1063 H1078 0.961 . S
C1063 H1079 0.961 . S
C1064 C1065 1.370 . S
C1064 C1066 1.363 . S
C1064 H1080 0.931 . S
C1065 C1064 1.370 . S
C1065 C1069 1.408 . S
C1066 C1064 1.363 . S
C1066 C1067 1.370 . S
C1066 C1070 1.524 . S
C1067 C1059 1.503 . S
C1067 C1066 1.370 . S
C1067 C1068 1.403 . S
C1068 C1067 1.403 . S
C1068 C1069 1.404 . S
C1068 C1071 1.539 1_655 S
C1069 C1065 1.408 . S
C1069 C1068 1.404 . S
C1069 H1081 0.930 1_655 S
C1070 C1066 1.524 . S
C1070 H1082 0.956 . S
C1070 H1083 0.961 . S
C1070 H1084 0.961 . S
C1071 C1068 1.539 1_455 S
C1071 H1085 0.958 . S
C1071 H1086 0.961 . S
C1071 H1087 0.960 . S
H1072 C1056 0.931 . S
H1073 C1061 0.929 . S
H1074 C1062 0.960 . S
H1075 C1062 0.962 . S
H1076 C1062 0.960 . S
H1077 C1063 0.961 . S
H1078 C1063 0.961 . S
H1079 C1063 0.961 . S
H1080 C1064 0.931 . S
H1081 C1069 0.930 1_455 S
H1082 C1070 0.956 . S
H1083 C1070 0.961 . S
H1084 C1070 0.961 . S
H1085 C1071 0.958 . S
H1086 C1071 0.961 . S
H1087 C1071 0.960 . S
C1088 C1089 1.391 . S
C1088 C1090 1.394 . S
C1088 H1104 0.931 . S
C1089 C1088 1.391 . S
C1089 C1093 1.376 . S
C1090 C1088 1.394 . S
C1090 C1091 1.369 . S
C1090 C1094 1.531 . S
C1091 C1090 1.369 . S
C1091 C1092 1.410 . S
C1091 C1099 1.503 . S
C1092 C1091 1.410 . S
C1092 C1093 1.392 . S
C1092 C1095 1.511 . S
C1093 C1089 1.376 . S
C1093 C1092 1.392 . S
C1093 H1105 0.929 . S
C1094 C1090 1.531 . S
C1094 H1106 0.960 . S
C1094 H1107 0.962 . S
C1094 H1108 0.960 . S
C1095 C1092 1.511 . S
C1095 H1109 0.961 . S
C1095 H1110 0.961 . S
C1095 H1111 0.961 . S
C1096 C1097 1.370 . S
C1096 C1098 1.363 . S
C1096 H1112 0.963 . S
C1097 C1096 1.370 . S
C1097 C1101 1.408 . S
C1098 C1096 1.363 . S
C1098 C1099 1.370 . S
C1098 C1102 1.524 1_565 S
C1099 C1091 1.503 . S
C1099 C1098 1.370 . S
C1099 C1100 1.403 . S
C1100 C1099 1.403 . S
C1100 C1101 1.404 . S
C1100 C1103 1.539 . S
C1101 C1097 1.408 . S
C1101 C1100 1.404 . S
C1101 H1113 0.930 . S
C1102 C1098 1.524 1_545 S
C1102 H1114 0.959 . S
C1102 H1115 0.961 . S
C1102 H1116 0.961 . S
C1103 C1100 1.539 . S
C1103 H1117 0.958 . S
C1103 H1118 0.961 . S
C1103 H1119 0.960 . S
H1104 C1088 0.931 . S
H1105 C1093 0.929 . S
H1106 C1094 0.960 . S
H1107 C1094 0.962 . S
H1108 C1094 0.960 . S
H1109 C1095 0.961 . S
H1110 C1095 0.961 . S
H1111 C1095 0.961 . S
H1112 C1096 0.963 . S
H1113 C1101 0.930 . S
H1114 C1102 0.959 . S
H1115 C1102 0.961 . S
H1116 C1102 0.961 . S
H1117 C1103 0.958 . S
H1118 C1103 0.961 . S
H1119 C1103 0.960 . S
C1120 C1121 1.391 . S
C1120 C1122 1.394 . S
C1120 H1136 0.931 . S
C1121 C1120 1.391 . S
C1121 C1125 1.376 . S
C1122 C1120 1.394 . S
C1122 C1123 1.369 . S
C1122 C1126 1.531 . S
C1123 C1122 1.369 . S
C1123 C1124 1.410 . S
C1123 C1131 1.503 . S
C1124 C1123 1.410 . S
C1124 C1125 1.392 . S
C1124 C1127 1.511 . S
C1125 C1121 1.376 . S
C1125 C1124 1.392 . S
C1125 H1137 0.929 . S
C1126 C1122 1.531 . S
C1126 H1138 0.960 . S
C1126 H1139 0.962 . S
C1126 H1140 0.960 . S
C1127 C1124 1.511 . S
C1127 H1141 0.961 . S
C1127 H1142 0.961 . S
C1127 H1143 0.961 . S
C1128 C1129 1.370 . S
C1128 C1130 1.363 . S
C1128 H1144 0.931 . S
C1129 C1128 1.370 . S
C1129 C1133 1.408 . S
C1130 C1128 1.363 . S
C1130 C1131 1.370 . S
C1130 C1134 1.524 . S
C1131 C1123 1.503 . S
C1131 C1130 1.370 . S
C1131 C1132 1.403 . S
C1132 C1131 1.403 . S
C1132 C1133 1.404 . S
C1132 C1135 1.539 . S
C1133 C1129 1.408 . S
C1133 C1132 1.404 . S
C1133 H1145 0.930 . S
C1134 C1130 1.524 . S
C1134 H1146 0.956 . S
C1134 H1147 0.961 . S
C1134 H1148 0.961 . S
C1135 C1132 1.539 . S
C1135 H1149 0.958 . S
C1135 H1150 0.961 . S
C1135 H1151 0.960 . S
H1136 C1120 0.931 . S
H1137 C1125 0.929 . S
H1138 C1126 0.960 . S
H1139 C1126 0.962 . S
H1140 C1126 0.960 . S
H1141 C1127 0.961 . S
H1142 C1127 0.961 . S
H1143 C1127 0.961 . S
H1144 C1128 0.931 . S
H1145 C1133 0.930 . S
H1146 C1134 0.956 . S
H1147 C1134 0.961 . S
H1148 C1134 0.961 . S
H1149 C1135 0.958 . S
H1150 C1135 0.961 . S
H1151 C1135 0.960 . S
C1152 C1153 1.391 . S
C1152 C1154 1.394 . S
C1152 H1168 0.931 . S
C1153 C1152 1.391 . S
C1153 C1157 1.376 . S
C1154 C1152 1.394 . S
C1154 C1155 1.369 . S
C1154 C1158 1.531 . S
C1155 C1154 1.369 . S
C1155 C1156 1.410 . S
C1155 C1163 1.503 . S
C1156 C1155 1.410 . S
C1156 C1157 1.392 . S
C1156 C1159 1.511 . S
C1157 C1153 1.376 . S
C1157 C1156 1.392 . S
C1157 H1169 0.929 . S
C1158 C1154 1.531 . S
C1158 H1170 0.960 . S
C1158 H1171 0.962 . S
C1158 H1172 0.960 . S
C1159 C1156 1.511 . S
C1159 H1173 0.961 . S
C1159 H1174 0.961 . S
C1159 H1175 0.961 . S
C1160 C1161 1.370 . S
C1160 C1162 1.363 . S
C1160 H1176 0.931 . S
C1161 C1160 1.370 . S
C1161 C1165 1.408 . S
C1162 C1160 1.363 . S
C1162 C1163 1.370 . S
C1162 C1166 1.524 . S
C1163 C1155 1.503 . S
C1163 C1162 1.370 . S
C1163 C1164 1.403 . S
C1164 C1163 1.403 . S
C1164 C1165 1.404 . S
C1164 C1167 1.539 . S
C1165 C1161 1.408 . S
C1165 C1164 1.404 . S
C1165 H1177 0.930 . S
C1166 C1162 1.524 . S
C1166 H1178 0.956 . S
C1166 H1179 0.961 . S
C1166 H1180 0.961 . S
C1167 C1164 1.539 . S
C1167 H1181 0.958 . S
C1167 H1182 0.961 . S
C1167 H1183 0.960 . S
H1168 C1152 0.931 . S
H1169 C1157 0.929 . S
H1170 C1158 0.960 . S
H1171 C1158 0.962 . S
H1172 C1158 0.960 . S
H1173 C1159 0.961 . S
H1174 C1159 0.961 . S
H1175 C1159 0.961 . S
H1176 C1160 0.931 . S
H1177 C1165 0.930 . S
H1178 C1166 0.956 . S
H1179 C1166 0.961 . S
H1180 C1166 0.961 . S
H1181 C1167 0.958 . S
H1182 C1167 0.961 . S
H1183 C1167 0.960 . S
C1184 C1185 1.391 . S
C1184 C1186 1.394 . S
C1184 H1200 0.931 . S
C1185 C1184 1.391 . S
C1185 C1189 1.376 . S
C1186 C1184 1.394 . S
C1186 C1187 1.369 . S
C1186 C1190 1.531 . S
C1187 C1186 1.369 . S
C1187 C1188 1.410 . S
C1187 C1195 1.503 . S
C1188 C1187 1.410 . S
C1188 C1189 1.392 . S
C1188 C1191 1.511 . S
C1189 C1185 1.376 . S
C1189 C1188 1.392 . S
C1189 H1201 0.929 . S
C1190 C1186 1.531 . S
C1190 H1202 0.960 . S
C1190 H1203 0.962 1_455 S
C1190 H1204 0.960 . S
C1191 C1188 1.511 . S
C1191 H1205 0.961 . S
C1191 H1206 0.961 . S
C1191 H1207 0.961 . S
C1192 C1193 1.370 . S
C1192 C1194 1.363 . S
C1192 H1208 0.931 . S
C1193 C1192 1.370 . S
C1193 C1197 1.408 . S
C1194 C1192 1.363 . S
C1194 C1195 1.370 . S
C1194 C1198 1.524 . S
C1195 C1187 1.503 . S
C1195 C1194 1.370 . S
C1195 C1196 1.403 . S
C1196 C1195 1.403 . S
C1196 C1197 1.404 . S
C1196 C1199 1.539 . S
C1197 C1193 1.408 . S
C1197 C1196 1.404 . S
C1197 H1209 0.930 . S
C1198 C1194 1.524 . S
C1198 H1210 0.956 1_455 S
C1198 H1211 0.961 . S
C1198 H1212 0.961 1_455 S
C1199 C1196 1.539 . S
C1199 H1213 0.958 . S
C1199 H1214 0.961 . S
C1199 H1215 0.960 . S
H1200 C1184 0.931 . S
H1201 C1189 0.929 . S
H1202 C1190 0.960 . S
H1203 C1190 0.962 1_655 S
H1204 C1190 0.960 . S
H1205 C1191 0.961 . S
H1206 C1191 0.961 . S
H1207 C1191 0.961 . S
H1208 C1192 0.931 . S
H1209 C1197 0.930 . S
H1210 C1198 0.956 1_655 S
H1211 C1198 0.961 . S
H1212 C1198 0.961 1_655 S
H1213 C1199 0.958 . S
H1214 C1199 0.961 . S
H1215 C1199 0.960 . S
C1216 C1217 1.391 . S
C1216 C1218 1.394 . S
C1216 H1232 0.931 . S
C1217 C1216 1.391 . S
C1217 C1221 1.376 . S
C1218 C1216 1.394 . S
C1218 C1219 1.369 . S
C1218 C1222 1.531 . S
C1219 C1218 1.369 . S
C1219 C1220 1.410 . S
C1219 C1227 1.503 . S
C1220 C1219 1.410 . S
C1220 C1221 1.392 . S
C1220 C1223 1.511 . S
C1221 C1217 1.376 . S
C1221 C1220 1.392 . S
C1221 H1233 0.929 . S
C1222 C1218 1.531 . S
C1222 H1234 0.960 . S
C1222 H1235 0.962 . S
C1222 H1236 0.960 . S
C1223 C1220 1.511 . S
C1223 H1237 0.961 1_545 S
C1223 H1238 0.962 . S
C1223 H1239 0.961 . S
C1224 C1225 1.370 . S
C1224 C1226 1.363 . S
C1224 H1240 0.931 . S
C1225 C1224 1.370 . S
C1225 C1229 1.408 . S
C1226 C1224 1.363 . S
C1226 C1227 1.370 . S
C1226 C1230 1.524 . S
C1227 C1219 1.503 . S
C1227 C1226 1.370 . S
C1227 C1228 1.403 . S
C1228 C1227 1.403 . S
C1228 C1229 1.404 . S
C1228 C1231 1.539 . S
C1229 C1225 1.408 . S
C1229 C1228 1.404 . S
C1229 H1241 0.930 . S
C1230 C1226 1.524 . S
C1230 H1242 0.956 . S
C1230 H1243 0.961 1_545 S
C1230 H1244 0.961 1_545 S
C1231 C1228 1.539 . S
C1231 H1245 0.958 . S
C1231 H1246 0.961 . S
C1231 H1247 0.960 . S
H1232 C1216 0.931 . S
H1233 C1221 0.929 . S
H1234 C1222 0.960 . S
H1235 C1222 0.962 . S
H1236 C1222 0.960 . S
H1237 C1223 0.961 1_565 S
H1238 C1223 0.962 . S
H1239 C1223 0.961 . S
H1240 C1224 0.931 . S
H1241 C1229 0.930 . S
H1242 C1230 0.956 . S
H1243 C1230 0.961 1_565 S
H1244 C1230 0.961 1_565 S
H1245 C1231 0.958 . S
H1246 C1231 0.961 . S
H1247 C1231 0.960 . S
C225 C9 1.055 . S
C233 C134 1.128 . S
C257 C148 1.147 . S
C265 C23 1.084 . S
C289 C162 1.106 . S
C297 C37 1.097 . S
C321 C120 1.109 . S
C329 C51 1.091 . S
C353 C65 1.139 . S
C361 C218 1.129 . S
C385 C176 1.106 . S
C393 C79 1.107 . S
C417 C190 1.139 . S
C425 C93 1.110 . S
C449 C204 1.119 . S
C457 C107 1.083 . S
C481 C121 1.084 . S
C489 C22 1.121 . S
C513 C135 1.072 . S
C521 C36 1.122 . S
C545 C149 1.113 . S
C553 C50 1.139 . S
C577 C8 1.129 . S
C585 C163 1.078 . S
C609 C177 1.110 . S
C617 C106 1.122 . S
C641 C191 1.127 . S
C649 C64 1.138 . S
C673 C78 1.135 . S
C681 C205 1.115 . S
C705 C219 1.131 . S
C713 C92 1.137 . S
C737 C118 1.574 . S
C745 C6 1.622 . S
C769 C20 1.586 . S
C777 C132 1.616 . S
C801 C146 1.618 . S
C809 C34 1.607 . S
C833 C48 1.592 . S
C841 C160 1.614 . S
C865 C174 1.631 . S
C873 C62 1.601 . S
C897 C76 1.574 . S
C905 C188 1.622 . S
C929 C202 1.619 . S
C937 C90 1.607 . S
C961 C216 1.575 . S
C969 C104 1.622 . S
C993 C63 1.602 . S
C1001 C7 1.590 . S
C1025 C77 1.606 . S
C1033 C21 1.588 . S
C1057 C35 1.606 . S
C1065 C91 1.587 . S
C1089 C105 1.541 . S
C1097 C49 1.568 . S
C1121 C119 1.604 . S
C1129 C175 1.588 . S
C1153 C189 1.543 . S
C1161 C133 1.563 . S
C1185 C203 1.544 . S
C1193 C147 1.567 . S
C1217 C217 1.554 . S
C1225 C161 1.566 . S
