# Generated by pormake.
# Topology zfl, (5)-cn, num edge types: 1
# Building blocks:
#     Node 0, Type 0, BuildingBlock: XOMCOT_clean_sbu_0, # of connection points: 5
#     Node 1, Type 0, BuildingBlock: XOMCOT_clean_sbu_0, # of connection points: 5
#     Node 2, Type 0, BuildingBlock: XOMCOT_clean_sbu_0, # of connection points: 5
#     Node 3, Type 0, BuildingBlock: XOMCOT_clean_sbu_0, # of connection points: 5
#     Node 4, Type 0, BuildingBlock: XOMCOT_clean_sbu_0, # of connection points: 5
#     Node 5, Type 0, BuildingBlock: XOMCOT_clean_sbu_0, # of connection points: 5
#     Node 6, Type 0, BuildingBlock: XOMCOT_clean_sbu_0, # of connection points: 5
#     Node 7, Type 0, BuildingBlock: XOMCOT_clean_sbu_0, # of connection points: 5
#     Node 8, Type 0, BuildingBlock: XOMCOT_clean_sbu_0, # of connection points: 5
#     Node 9, Type 0, BuildingBlock: XOMCOT_clean_sbu_0, # of connection points: 5
#     Node 10, Type 0, BuildingBlock: XOMCOT_clean_sbu_0, # of connection points: 5
#     Node 11, Type 0, BuildingBlock: XOMCOT_clean_sbu_0, # of connection points: 5
#     Node 12, Type 0, BuildingBlock: XOMCOT_clean_sbu_0, # of connection points: 5
#     Node 13, Type 0, BuildingBlock: XOMCOT_clean_sbu_0, # of connection points: 5
#     Node 14, Type 0, BuildingBlock: XOMCOT_clean_sbu_0, # of connection points: 5
#     Node 15, Type 0, BuildingBlock: XOMCOT_clean_sbu_0, # of connection points: 5
#     Edge 16, Type (0, 0), BuildingBlock: XIVTED_clean_linker_0, # of connection points: 2
#     Edge 17, Type (0, 0), BuildingBlock: XIVTED_clean_linker_0, # of connection points: 2
#     Edge 18, Type (0, 0), BuildingBlock: XIVTED_clean_linker_0, # of connection points: 2
#     Edge 19, Type (0, 0), BuildingBlock: XIVTED_clean_linker_0, # of connection points: 2
#     Edge 20, Type (0, 0), BuildingBlock: XIVTED_clean_linker_0, # of connection points: 2
#     Edge 21, Type (0, 0), BuildingBlock: XIVTED_clean_linker_0, # of connection points: 2
#     Edge 22, Type (0, 0), BuildingBlock: XIVTED_clean_linker_0, # of connection points: 2
#     Edge 23, Type (0, 0), BuildingBlock: XIVTED_clean_linker_0, # of connection points: 2
#     Edge 24, Type (0, 0), BuildingBlock: XIVTED_clean_linker_0, # of connection points: 2
#     Edge 25, Type (0, 0), BuildingBlock: XIVTED_clean_linker_0, # of connection points: 2
#     Edge 26, Type (0, 0), BuildingBlock: XIVTED_clean_linker_0, # of connection points: 2
#     Edge 27, Type (0, 0), BuildingBlock: XIVTED_clean_linker_0, # of connection points: 2
#     Edge 28, Type (0, 0), BuildingBlock: XIVTED_clean_linker_0, # of connection points: 2
#     Edge 29, Type (0, 0), BuildingBlock: XIVTED_clean_linker_0, # of connection points: 2
#     Edge 30, Type (0, 0), BuildingBlock: XIVTED_clean_linker_0, # of connection points: 2
#     Edge 31, Type (0, 0), BuildingBlock: XIVTED_clean_linker_0, # of connection points: 2
#     Edge 32, Type (0, 0), BuildingBlock: XIVTED_clean_linker_0, # of connection points: 2
#     Edge 33, Type (0, 0), BuildingBlock: XIVTED_clean_linker_0, # of connection points: 2
#     Edge 34, Type (0, 0), BuildingBlock: XIVTED_clean_linker_0, # of connection points: 2
#     Edge 35, Type (0, 0), BuildingBlock: XIVTED_clean_linker_0, # of connection points: 2
#     Edge 36, Type (0, 0), BuildingBlock: XIVTED_clean_linker_0, # of connection points: 2
#     Edge 37, Type (0, 0), BuildingBlock: XIVTED_clean_linker_0, # of connection points: 2
#     Edge 38, Type (0, 0), BuildingBlock: XIVTED_clean_linker_0, # of connection points: 2
#     Edge 39, Type (0, 0), BuildingBlock: XIVTED_clean_linker_0, # of connection points: 2
#     Edge 40, Type (0, 0), BuildingBlock: XIVTED_clean_linker_0, # of connection points: 2
#     Edge 41, Type (0, 0), BuildingBlock: XIVTED_clean_linker_0, # of connection points: 2
#     Edge 42, Type (0, 0), BuildingBlock: XIVTED_clean_linker_0, # of connection points: 2
#     Edge 43, Type (0, 0), BuildingBlock: XIVTED_clean_linker_0, # of connection points: 2
#     Edge 44, Type (0, 0), BuildingBlock: XIVTED_clean_linker_0, # of connection points: 2
#     Edge 45, Type (0, 0), BuildingBlock: XIVTED_clean_linker_0, # of connection points: 2
#     Edge 46, Type (0, 0), BuildingBlock: XIVTED_clean_linker_0, # of connection points: 2
#     Edge 47, Type (0, 0), BuildingBlock: XIVTED_clean_linker_0, # of connection points: 2
#     Edge 48, Type (0, 0), BuildingBlock: XIVTED_clean_linker_0, # of connection points: 2
#     Edge 49, Type (0, 0), BuildingBlock: XIVTED_clean_linker_0, # of connection points: 2
#     Edge 50, Type (0, 0), BuildingBlock: XIVTED_clean_linker_0, # of connection points: 2
#     Edge 51, Type (0, 0), BuildingBlock: XIVTED_clean_linker_0, # of connection points: 2
#     Edge 52, Type (0, 0), BuildingBlock: XIVTED_clean_linker_0, # of connection points: 2
#     Edge 53, Type (0, 0), BuildingBlock: XIVTED_clean_linker_0, # of connection points: 2
#     Edge 54, Type (0, 0), BuildingBlock: XIVTED_clean_linker_0, # of connection points: 2
#     Edge 55, Type (0, 0), BuildingBlock: XIVTED_clean_linker_0, # of connection points: 2
# Relax obj value: 0.226
# Max RMSD: 0.259
# Mean RMSD: 0.259
data_MOF--net-zfl--node1-XOMCOT_clean_sbu_0--edge1-XIVTED_clean_linker_0
_symmetry_space_group_name_H-M    P1
_symmetry_Int_Tables_number       1
_symmetry_cell_setting            triclinic
loop_
_symmetry_equiv_pos_as_xyz
'x, y, z'
_cell_length_a     32.218542
_cell_length_b     32.227952
_cell_length_c     59.986142
_cell_angle_alpha  89.973593
_cell_angle_beta   89.993891
_cell_angle_gamma 90.019241
loop_
_atom_site_label
_atom_site_type_symbol
_atom_site_fract_x
_atom_site_fract_y
_atom_site_fract_z
_atom_type_partial_charge
Co0 Co 0.55895 0.11858 0.07276 0.0
C1 C 0.57159 0.03646 0.09262 0.0
C2 C 0.62043 0.05094 0.06968 0.0
C3 C 0.62399 0.0099 0.07575 0.0
N4 N 0.58805 0.06794 0.08066 0.0
N5 N 0.59294 1.00075 0.09002 0.0
H6 H 0.54281 0.03891 0.10178 0.0
H7 H 0.63864 0.06662 0.05708 0.0
C8 C 0.64355 0.14871 0.08927 0.0
O9 O 0.65318 0.11155 0.0965 0.0
N10 N 0.52839 0.16841 0.06448 0.0
C11 C 0.50992 0.1768 0.0448 0.0
C12 C 0.49027 0.21447 0.04619 0.0
C13 C 0.51986 0.2016 0.07752 0.0
N14 N 0.49638 0.23018 0.06676 0.0
C15 C 0.49268 0.11412 0.10406 0.0
C16 C 0.54058 0.11579 0.14226 0.0
C17 C 0.49826 0.10619 0.14409 0.0
C18 C 0.47401 0.1065 0.1247 0.0
C19 C 0.55811 0.12278 0.12129 0.0
N20 N 0.53445 0.12066 0.10244 0.0
H21 H 0.47384 0.11293 0.08917 0.0
H22 H 0.59101 0.1275 0.12035 0.0
H23 H 0.5099 0.15707 0.03027 0.0
H24 H 0.53059 0.20462 0.09453 0.0
O25 O 0.51807 0.08364 0.05839 0.0
O26 O 0.57401 0.10931 0.04188 0.0
O27 O 0.60737 0.1562 0.08129 0.0
C28 C 0.54126 0.08566 0.04067 0.0
H29 H 0.64575 0.98779 0.06884 0.0
H30 H 0.47194 0.22854 0.03311 0.0
H31 H 0.56056 0.11561 0.15678 0.0
H32 H 0.44107 0.09989 0.12539 0.0
Co33 Co 0.40001 0.56325 0.63804 0.0
C34 C 0.48636 0.59262 0.63608 0.0
C35 C 0.44439 0.63754 0.62274 0.0
C36 C 0.4842 0.64818 0.61649 0.0
N37 N 0.44562 0.60255 0.63512 0.0
N38 N 0.51049 0.61957 0.6248 0.0
H39 H 0.49788 0.56317 0.6418 0.0
H40 H 0.41626 0.65162 0.61645 0.0
C41 C 0.36539 0.64336 0.65601 0.0
O42 O 0.40137 0.65072 0.66552 0.0
N43 N 0.35565 0.52337 0.64024 0.0
C44 C 0.35902 0.48507 0.64902 0.0
C45 C 0.32203 0.46462 0.64618 0.0
C46 C 0.31675 0.52577 0.63203 0.0
N47 N 0.29548 0.49007 0.63541 0.0
C48 C 0.44715 0.52882 0.67404 0.0
C49 C 0.39395 0.55006 0.70824 0.0
C50 C 0.42969 0.52695 0.71324 0.0
C51 C 0.45629 0.51636 0.6957 0.0
C52 C 0.38599 0.56215 0.68618 0.0
N53 N 0.41314 0.55259 0.66939 0.0
H54 H 0.46636 0.51686 0.66088 0.0
H55 H 0.35701 0.57748 0.68264 0.0
H56 H 0.38677 0.47252 0.65658 0.0
H57 H 0.30487 0.55247 0.62314 0.0
O58 O 0.43462 0.52138 0.62428 0.0
O59 O 0.39392 0.56483 0.60591 0.0
O60 O 0.35945 0.60943 0.6454 0.0
C61 C 0.42158 0.53544 0.60522 0.0
H62 H 0.49263 0.6727 0.60502 0.0
H63 H 0.31533 0.43328 0.65157 0.0
H64 H 0.37198 0.55823 0.72117 0.0
H65 H 0.48314 0.4968 0.69848 0.0
Co66 Co 0.95077 0.398 0.07206 0.0
C67 C 0.93789 0.48044 0.09137 0.0
C68 C 0.88929 0.46556 0.06837 0.0
C69 C 0.88573 0.50674 0.07417 0.0
N70 N 0.92153 0.44875 0.07956 0.0
N71 N 0.91663 0.51613 0.08847 0.0
H72 H 0.96657 0.47815 0.10062 0.0
H73 H 0.87119 0.44966 0.05581 0.0
C74 C 0.86617 0.36809 0.08865 0.0
O75 O 0.85639 0.40544 0.09551 0.0
N76 N 0.98153 0.34809 0.06419 0.0
C77 C 1.00048 0.33945 0.04467 0.0
C78 C 0.02054 0.30205 0.04645 0.0
C79 C 0.99016 0.3153 0.07751 0.0
N80 N 0.01422 0.28675 0.06711 0.0
C81 C 0.01692 0.40313 0.10342 0.0
C82 C 0.96885 0.40202 0.14157 0.0
C83 C 0.01122 0.41138 0.14343 0.0
C84 C 0.03555 0.41083 0.12405 0.0
C85 C 0.95139 0.39489 0.1206 0.0
N86 N 0.97515 0.39666 0.10177 0.0
H87 H 0.03583 0.40409 0.08854 0.0
H88 H 0.91848 0.3903 0.11963 0.0
H89 H 1.00065 0.35888 0.03002 0.0
H90 H 0.97919 0.31264 0.09449 0.0
O91 O 0.99159 0.43274 0.05744 0.0
O92 O 0.93577 0.40644 0.04112 0.0
O93 O 0.90243 0.36045 0.08083 0.0
C94 C 0.96843 0.43017 0.03972 0.0
H95 H 0.86408 0.52874 0.06705 0.0
H96 H 0.03934 0.28796 0.03358 0.0
H97 H 0.94879 0.40243 0.15606 0.0
H98 H 0.06852 0.41724 0.12476 0.0
Co99 Co 0.10621 0.94115 0.63684 0.0
C100 C 0.02017 0.91056 0.63564 0.0
C101 C 0.06267 0.86538 0.62309 0.0
C102 C 0.02299 0.8538 0.61713 0.0
N103 N 0.06104 0.90112 0.63481 0.0
N104 N 0.99636 0.88255 0.62493 0.0
H105 H 0.00827 0.94024 0.64074 0.0
H106 H 0.09094 0.85131 0.61698 0.0
C107 C 0.14245 0.8625 0.65559 0.0
O108 O 0.10709 0.85576 0.66589 0.0
N109 N 0.15014 0.98165 0.63813 0.0
C110 C 0.1463 0.02048 0.64611 0.0
C111 C 0.18332 0.0409 0.64325 0.0
C112 C 0.18934 0.97887 0.63038 0.0
N113 N 0.21037 0.01485 0.63328 0.0
C114 C 0.06005 0.97571 0.67317 0.0
C115 C 0.11687 0.95928 0.70646 0.0
C116 C 0.08141 0.98264 0.71163 0.0
C117 C 0.05262 0.99022 0.69466 0.0
C118 C 0.12313 0.94517 0.68459 0.0
N119 N 0.09444 0.95268 0.66825 0.0
H120 H 0.03924 0.98572 0.66027 0.0
H121 H 0.15226 0.9304 0.68071 0.0
H122 H 0.11831 0.03328 0.65329 0.0
H123 H 0.20172 0.95155 0.62227 0.0
O124 O 0.07051 0.98224 0.62322 0.0
O125 O 0.11085 0.93877 0.60464 0.0
O126 O 0.14757 0.89565 0.64416 0.0
C127 C 0.08286 0.96788 0.6041 0.0
H128 H 0.01483 0.82845 0.60613 0.0
H129 H 0.18975 0.07253 0.64821 0.0
H130 H 0.14059 0.95371 0.7189 0.0
H131 H 0.02493 0.00838 0.69774 0.0
Co132 Co 0.55085 0.38623 0.93574 0.0
C133 C 0.56736 0.46967 0.91844 0.0
C134 C 0.62059 0.44588 0.93557 0.0
C135 C 0.628 0.48674 0.92996 0.0
N136 N 0.58277 0.43505 0.92795 0.0
N137 N 0.59427 0.50174 0.91927 0.0
H138 H 0.53572 0.4724 0.91281 0.0
H139 H 0.64056 0.42607 0.94541 0.0
C140 C 0.62985 0.35295 0.91458 0.0
O141 O 0.63166 0.38506 0.90112 0.0
N142 N 0.5179 0.33788 0.94363 0.0
C143 C 0.49244 0.33286 0.9613 0.0
C144 C 0.47202 0.29559 0.95927 0.0
C145 C 0.51259 0.30335 0.93118 0.0
N146 N 0.4845 0.27705 0.94026 0.0
C147 C 0.48956 0.40777 0.90318 0.0
C148 C 0.52872 0.37556 0.86618 0.0
C149 C 0.4951 0.40257 0.86307 0.0
C150 C 0.47422 0.41705 0.88199 0.0
C151 C 0.5429 0.36689 0.88774 0.0
N152 N 0.52551 0.38578 0.90589 0.0
H153 H 0.47363 0.42084 0.91731 0.0
H154 H 0.56782 0.34509 0.88943 0.0
H155 H 0.48767 0.35496 0.97456 0.0
H156 H 0.52867 0.29786 0.91566 0.0
O157 O 0.51192 0.42273 0.95062 0.0
O158 O 0.56669 0.39443 0.96672 0.0
O159 O 0.59869 0.3479 0.92759 0.0
C160 C 0.5352 0.41955 0.96821 0.0
H161 H 0.65549 0.50428 0.93424 0.0
H162 H 0.44857 0.28395 0.97056 0.0
H163 H 0.54445 0.3618 0.85204 0.0
H164 H 0.44764 0.43742 0.88052 0.0
Co165 Co 0.10635 0.56561 0.36901 0.0
C166 C 0.01981 0.5947 0.36864 0.0
C167 C 0.06114 0.64297 0.3788 0.0
C168 C 0.02098 0.65492 0.38369 0.0
N169 N 0.06049 0.60504 0.36924 0.0
N170 N 0.99512 0.6243 0.37729 0.0
H171 H 0.00852 0.56389 0.36537 0.0
H172 H 0.08892 0.65881 0.38425 0.0
C173 C 0.14513 0.64204 0.3488 0.0
O174 O 0.11314 0.6451 0.33532 0.0
N175 N 0.15076 0.52559 0.36936 0.0
C176 C 0.14744 0.48633 0.36192 0.0
C177 C 0.1841 0.46604 0.36591 0.0
C178 C 0.18936 0.52879 0.37791 0.0
N179 N 0.21042 0.4926 0.37604 0.0
C180 C 0.06285 0.53111 0.33175 0.0
C181 C 0.12419 0.5426 0.3002 0.0
C182 C 0.08802 0.5211 0.29416 0.0
C183 C 0.05702 0.51596 0.31026 0.0
C184 C 0.12877 0.55743 0.32207 0.0
N185 N 0.09776 0.55261 0.33747 0.0
H186 H 0.04021 0.52277 0.34406 0.0
H187 H 0.15817 0.57084 0.32681 0.0
H188 H 0.11999 0.47319 0.35432 0.0
H189 H 0.20124 0.55651 0.38584 0.0
O190 O 0.07013 0.52429 0.38216 0.0
O191 O 0.10801 0.56926 0.40123 0.0
O192 O 0.14759 0.61169 0.36251 0.0
C193 C 0.08086 0.53935 0.40143 0.0
H194 H 0.01193 0.68219 0.39302 0.0
H195 H 0.19084 0.43415 0.3616 0.0
H196 H 0.14951 0.54621 0.28849 0.0
H197 H 0.0287 0.49923 0.30651 0.0
Co198 Co 0.94994 0.12234 0.93282 0.0
C199 C 0.93796 0.03798 0.91602 0.0
C200 C 0.88497 0.05785 0.93475 0.0
C201 C 0.8803 0.01643 0.92962 0.0
N202 N 0.92083 0.07149 0.92581 0.0
N203 N 0.91394 1.0038 0.91798 0.0
H204 H 0.96903 0.03788 0.90933 0.0
H205 H 0.86464 0.07622 0.94516 0.0
C206 C 0.86734 0.15093 0.91314 0.0
O207 O 0.86333 0.11638 0.90173 0.0
N208 N 0.98015 0.1729 0.94005 0.0
C209 C 0.99256 0.18622 0.96031 0.0
C210 C 0.01373 0.22303 0.95788 0.0
C211 C 0.99356 0.20231 0.92566 0.0
N212 N 0.01454 0.23309 0.93606 0.0
C213 C 0.01434 0.10708 0.90116 0.0
C214 C 0.96994 0.12379 0.86288 0.0
C215 C 0.00849 0.10391 0.86097 0.0
C216 C 0.03145 0.09714 0.88045 0.0
C217 C 0.95388 0.13308 0.88397 0.0
N218 N 0.97486 0.1223 0.90292 0.0
H219 H 0.03245 0.1006 0.91586 0.0
H220 H 0.9246 0.14858 0.88463 0.0
H221 H 0.98679 0.17067 0.97596 0.0
H222 H 0.98854 0.201 0.90787 0.0
O223 O 0.9911 0.08884 0.94799 0.0
O224 O 0.93489 0.11453 0.96395 0.0
O225 O 0.90046 0.15832 0.9243 0.0
C226 C 0.96802 0.09161 0.96567 0.0
H227 H 0.85483 0.99698 0.93496 0.0
H228 H 0.02699 0.24118 0.97128 0.0
H229 H 0.95141 0.13062 0.84828 0.0
H230 H 0.06209 0.08337 0.87977 0.0
Co231 Co 0.40103 0.94309 0.36761 0.0
C232 C 0.48783 0.91502 0.3661 0.0
C233 C 0.44765 0.86576 0.3762 0.0
C234 C 0.48825 0.85394 0.38012 0.0
N235 N 0.44735 0.90419 0.36722 0.0
N236 N 0.5134 0.8852 0.37376 0.0
H237 H 0.49854 0.94609 0.36301 0.0
H238 H 0.42034 0.84919 0.38174 0.0
C239 C 0.36274 0.8668 0.34697 0.0
O240 O 0.39458 0.86432 0.33334 0.0
N241 N 0.35625 0.98266 0.36853 0.0
C242 C 0.3592 0.02218 0.36142 0.0
C243 C 0.32258 0.04217 0.36587 0.0
C244 C 0.31789 0.979 0.37734 0.0
N245 N 0.29664 0.01517 0.37596 0.0
C246 C 0.4435 0.97994 0.33063 0.0
C247 C 0.38265 0.96756 0.29893 0.0
C248 C 0.4184 0.98991 0.29302 0.0
C249 C 0.44912 0.99557 0.30922 0.0
C250 C 0.37829 0.95224 0.32073 0.0
N251 N 0.40914 0.9574 0.33618 0.0
H252 H 0.46582 0.98868 0.34302 0.0
H253 H 0.34918 0.93808 0.32536 0.0
H254 H 0.38642 0.03574 0.3538 0.0
H255 H 0.30633 0.95099 0.38514 0.0
O256 O 0.43699 0.98424 0.38112 0.0
O257 O 0.39972 0.93813 0.39976 0.0
O258 O 0.36015 0.89684 0.36083 0.0
C259 C 0.42652 0.96833 0.40023 0.0
H260 H 0.49817 0.82602 0.38863 0.0
H261 H 0.31561 0.07419 0.36194 0.0
H262 H 0.35749 0.96354 0.28716 0.0
H263 H 0.4771 0.01297 0.3056 0.0
Co264 Co 0.45085 0.89644 0.8701 0.0
C265 C 0.42073 0.98264 0.86969 0.0
C266 C 0.37286 0.94053 0.87947 0.0
C267 C 0.36032 0.98037 0.88456 0.0
N268 N 0.41091 0.94184 0.87003 0.0
N269 N 0.39069 0.00671 0.87841 0.0
H270 H 0.45145 0.99438 0.86657 0.0
H271 H 0.35734 0.91246 0.88479 0.0
C272 C 0.37536 0.85759 0.8493 0.0
O273 O 0.37309 0.88946 0.83569 0.0
N274 N 0.49118 0.85234 0.87085 0.0
C275 C 0.53135 0.85649 0.86505 0.0
C276 C 0.55148 0.81977 0.86922 0.0
C277 C 0.48719 0.81313 0.87844 0.0
N278 N 0.52378 0.79259 0.87764 0.0
C279 C 0.48536 0.94004 0.83282 0.0
C280 C 0.47543 0.87797 0.80155 0.0
C281 C 0.49607 0.91454 0.79535 0.0
C282 C 0.50059 0.94584 0.81133 0.0
C283 C 0.46064 0.87338 0.82341 0.0
N284 N 0.46453 0.90478 0.83864 0.0
H285 H 0.49288 0.96311 0.84504 0.0
H286 H 0.44777 0.84381 0.82828 0.0
H287 H 0.54516 0.88457 0.85853 0.0
H288 H 0.45859 0.80036 0.88497 0.0
O289 O 0.49156 0.93313 0.88333 0.0
O290 O 0.44651 0.89507 0.90229 0.0
O291 O 0.40512 0.85502 0.86336 0.0
C292 C 0.47617 0.92251 0.90254 0.0
H293 H 0.33283 0.98887 0.89388 0.0
H294 H 0.58401 0.81348 0.86623 0.0
H295 H 0.47238 0.85244 0.78994 0.0
H296 H 0.51673 0.97443 0.80745 0.0
Co297 Co 0.61679 0.45276 0.43491 0.0
C298 C 0.53327 0.43747 0.41743 0.0
C299 C 0.5502 0.39083 0.44118 0.0
C300 C 0.50867 0.38646 0.43627 0.0
N301 N 0.5659 0.42241 0.42901 0.0
N302 N 0.49801 0.41616 0.42151 0.0
H303 H 0.53463 0.46534 0.40746 0.0
H304 H 0.56713 0.37383 0.45379 0.0
C305 C 0.64561 0.3675 0.41926 0.0
O306 O 0.60808 0.35847 0.41234 0.0
N307 N 0.66673 0.4848 0.44118 0.0
C308 C 0.67612 0.50513 0.46018 0.0
C309 C 0.71291 0.52587 0.4574 0.0
C310 C 0.69851 0.49334 0.42714 0.0
N311 N 0.72721 0.51863 0.43661 0.0
C312 C 0.60507 0.5157 0.402 0.0
C313 C 0.60794 0.46424 0.36525 0.0
C314 C 0.59268 0.50468 0.36259 0.0
C315 C 0.59313 0.53116 0.38115 0.0
C316 C 0.61925 0.44999 0.38635 0.0
N317 N 0.61575 0.47496 0.40463 0.0
H318 H 0.60315 0.53584 0.41635 0.0
H319 H 0.62862 0.41825 0.38781 0.0
H320 H 0.65758 0.5058 0.47515 0.0
H321 H 0.70034 0.4814 0.41033 0.0
O322 O 0.58235 0.494 0.44947 0.0
O323 O 0.61064 0.43967 0.46623 0.0
O324 O 0.65411 0.40392 0.42662 0.0
C325 C 0.58629 0.47183 0.46749 0.0
H326 H 0.48738 0.36517 0.44429 0.0
H327 H 0.72725 0.54568 0.46973 0.0
H328 H 0.60958 0.44307 0.35125 0.0
H329 H 0.58195 0.56276 0.37992 0.0
Co330 Co 0.0666 0.612 0.86815 0.0
C331 C 0.09426 0.52516 0.86835 0.0
C332 C 0.14257 0.56568 0.87938 0.0
C333 C 0.15371 0.52535 0.88433 0.0
N334 N 0.10519 0.5656 0.86923 0.0
N335 N 0.12299 0.49996 0.87749 0.0
H336 H 0.06357 0.51454 0.86417 0.0
H337 H 0.15861 0.59324 0.88501 0.0
C338 C 0.14461 0.64699 0.84782 0.0
O339 O 0.14774 0.6135 0.83545 0.0
N340 N 0.02732 0.65703 0.86763 0.0
C341 C 0.98755 0.65343 0.86098 0.0
C342 C 0.96744 0.69017 0.86503 0.0
C343 C 0.03107 0.69597 0.87565 0.0
N344 N 0.9947 0.71681 0.87428 0.0
C345 C 0.02852 0.56756 0.83233 0.0
C346 C 0.04841 0.62152 0.79824 0.0
C347 C 0.02462 0.58612 0.79323 0.0
C348 C 0.01427 0.55951 0.81087 0.0
C349 C 0.06135 0.62892 0.82024 0.0
N350 N 0.05305 0.60104 0.83687 0.0
H351 H 0.01747 0.54781 0.84548 0.0
H352 H 0.07687 0.65779 0.82385 0.0
H353 H 0.97377 0.62555 0.85424 0.0
H354 H 0.05913 0.70815 0.88312 0.0
O355 O 0.02497 0.57744 0.88224 0.0
O356 O 0.0707 0.61598 0.90033 0.0
O357 O 0.1134 0.65182 0.86075 0.0
C358 C 0.04046 0.58925 0.9012 0.0
H359 H 0.1806 0.5159 0.89388 0.0
H360 H 0.93509 0.69669 0.86164 0.0
H361 H 0.05667 0.64369 0.78544 0.0
H362 H 0.99384 0.53323 0.80847 0.0
Co363 Co 0.8895 0.05684 0.43425 0.0
C364 C 0.97432 0.07078 0.41807 0.0
C365 C 0.95742 0.11651 0.44231 0.0
C366 C 0.99919 0.12031 0.4379 0.0
N367 N 0.94155 0.08592 0.4295 0.0
N368 N 0.00982 0.09119 0.42281 0.0
H369 H 0.9728 0.04355 0.40762 0.0
H370 H 0.94032 0.13329 0.45493 0.0
C371 C 0.86356 0.14378 0.41961 0.0
O372 O 0.90166 0.1527 0.41359 0.0
N373 N 0.83812 0.02625 0.43949 0.0
C374 C 0.82271 0.01423 0.45941 0.0
C375 C 0.78676 0.99224 0.45609 0.0
C376 C 0.8105 0.01181 0.42431 0.0
N377 N 0.77912 0.99043 0.43403 0.0
C378 C 0.90203 0.99554 0.40051 0.0
C379 C 0.90095 0.04897 0.36451 0.0
C380 C 0.91551 0.00839 0.36135 0.0
C381 C 0.91426 0.981 0.37952 0.0
C382 C 0.88927 0.06228 0.38573 0.0
N383 N 0.89167 0.03624 0.40365 0.0
H384 H 0.9032 0.97458 0.41454 0.0
H385 H 0.88047 0.09411 0.38761 0.0
H386 H 0.83629 0.02073 0.47549 0.0
H387 H 0.81351 0.01627 0.40652 0.0
O388 O 0.92164 0.01368 0.44871 0.0
O389 O 0.89464 0.06827 0.4658 0.0
O390 O 0.85403 0.10706 0.42612 0.0
C391 C 0.91742 0.03497 0.467 0.0
H392 H 0.02056 0.14084 0.44639 0.0
H393 H 0.76745 0.97906 0.46905 0.0
H394 H 0.90004 0.07089 0.35083 0.0
H395 H 0.92496 0.9493 0.37792 0.0
Co396 Co 0.44335 0.60918 0.13745 0.0
C397 C 0.41348 0.52299 0.13516 0.0
C398 C 0.36978 0.56517 0.12089 0.0
C399 C 0.3593 0.52541 0.11451 0.0
N400 N 0.40392 0.56379 0.13394 0.0
N401 N 0.38712 0.49899 0.12343 0.0
H402 H 0.44252 0.51127 0.14135 0.0
H403 H 0.35636 0.59334 0.11426 0.0
C404 C 0.36245 0.64459 0.15362 0.0
O405 O 0.35496 0.60899 0.16352 0.0
N406 N 0.4834 0.65326 0.14022 0.0
C407 C 0.52108 0.64959 0.14971 0.0
C408 C 0.54194 0.68646 0.1473 0.0
C409 C 0.48175 0.69221 0.13203 0.0
N410 N 0.51735 0.71322 0.13611 0.0
C411 C 0.47291 0.56264 0.17495 0.0
C412 C 0.45151 0.61895 0.20767 0.0
C413 C 0.47223 0.58243 0.21382 0.0
C414 C 0.48294 0.55422 0.19707 0.0
C415 C 0.44151 0.62596 0.18522 0.0
N416 N 0.45104 0.5973 0.16917 0.0
H417 H 0.48528 0.5423 0.16243 0.0
H418 H 0.42785 0.65537 0.18078 0.0
H419 H 0.53286 0.62176 0.15752 0.0
H420 H 0.45569 0.70436 0.12271 0.0
O421 O 0.48618 0.57372 0.12513 0.0
O422 O 0.44474 0.61411 0.10528 0.0
O423 O 0.39677 0.65022 0.14329 0.0
C424 C 0.47392 0.58618 0.1056 0.0
H425 H 0.33558 0.51706 0.10254 0.0
H426 H 0.57294 0.69296 0.15331 0.0
H427 H 0.44361 0.64214 0.22002 0.0
H428 H 0.5008 0.52662 0.20087 0.0
Co429 Co 0.891 0.44731 0.5726 0.0
C430 C 0.97373 0.43393 0.59134 0.0
C431 C 0.95747 0.38465 0.56902 0.0
C432 C 0.99871 0.38055 0.57469 0.0
N433 N 0.94156 0.41769 0.57987 0.0
N434 N 0.00896 0.41186 0.58856 0.0
H435 H 0.972 0.46296 0.60031 0.0
H436 H 0.94093 0.36636 0.55679 0.0
C437 C 0.86047 0.36265 0.58918 0.0
O438 O 0.89705 0.35304 0.59726 0.0
N439 N 0.84105 0.47829 0.56499 0.0
C440 C 0.83257 0.49827 0.54574 0.0
C441 C 0.79506 0.51809 0.54771 0.0
C442 C 0.80806 0.48605 0.57831 0.0
N443 N 0.77954 0.51058 0.56821 0.0
C444 C 0.89359 0.51232 0.60496 0.0
C445 C 0.89791 0.46222 0.64222 0.0
C446 C 0.90461 0.505 0.64484 0.0
C447 C 0.90099 0.53029 0.62585 0.0
C448 C 0.89 0.4457 0.62117 0.0
N449 N 0.88936 0.47036 0.60269 0.0
H450 H 0.89282 0.53201 0.59037 0.0
H451 H 0.88708 0.41279 0.61987 0.0
H452 H 0.85219 0.49932 0.53118 0.0
H453 H 0.80526 0.47417 0.59512 0.0
O454 O 0.92578 0.48898 0.55869 0.0
O455 O 0.8999 0.43387 0.54151 0.0
O456 O 0.85359 0.3983 0.5804 0.0
C457 C 0.92348 0.46669 0.54064 0.0
H458 H 0.02015 0.35812 0.56779 0.0
H459 H 0.78105 0.53757 0.5351 0.0
H460 H 0.90098 0.44093 0.65608 0.0
H461 H 0.90486 0.56359 0.62692 0.0
Co462 Co 0.06691 0.90739 0.13605 0.0
C463 C 0.09701 0.99352 0.13374 0.0
C464 C 0.14129 0.95112 0.12021 0.0
C465 C 0.15228 0.99083 0.11395 0.0
N466 N 0.10651 0.95269 0.13275 0.0
N467 N 0.12411 0.01739 0.12241 0.0
H468 H 0.06768 0.00535 0.13945 0.0
H469 H 0.15498 0.92289 0.11383 0.0
C470 C 0.14727 0.87165 0.15277 0.0
O471 O 0.15438 0.90709 0.16289 0.0
N472 N 0.02672 0.8634 0.13862 0.0
C473 C 0.9889 0.86715 0.14794 0.0
C474 C 0.96792 0.8304 0.14537 0.0
C475 C 0.02833 0.82452 0.13036 0.0
N476 N 0.99258 0.80364 0.13424 0.0
C477 C 0.03742 0.95396 0.17357 0.0
C478 C 0.05725 0.89679 0.20616 0.0
C479 C 0.03694 0.9335 0.21234 0.0
C480 C 0.02704 0.96218 0.19566 0.0
C481 C 0.06761 0.89 0.18375 0.0
N482 N 0.05885 0.91906 0.16777 0.0
H483 H 0.02563 0.97468 0.16106 0.0
H484 H 0.0809 0.86045 0.17925 0.0
H485 H 0.97711 0.89498 0.15576 0.0
H486 H 0.05448 0.81234 0.12112 0.0
O487 O 0.02426 0.94297 0.12365 0.0
O488 O 0.0659 0.90267 0.10387 0.0
O489 O 0.11333 0.86622 0.14205 0.0
C490 C 0.03665 0.93053 0.10414 0.0
H491 H 0.17674 0.99905 0.10239 0.0
H492 H 0.9368 0.82397 0.15122 0.0
H493 H 0.06455 0.87327 0.21845 0.0
H494 H 0.00952 0.98997 0.19947 0.0
Co495 Co 0.61636 0.05231 0.57256 0.0
C496 C 0.53427 0.06659 0.5919 0.0
C497 C 0.55172 0.11697 0.57053 0.0
C498 C 0.51067 0.12184 0.57644 0.0
N499 N 0.56668 0.08263 0.58055 0.0
N500 N 0.49964 0.08983 0.5897 0.0
H501 H 0.53531 0.03699 0.60034 0.0
H502 H 0.56869 0.13569 0.55865 0.0
C503 C 0.64829 0.13505 0.59062 0.0
O504 O 0.61301 0.14271 0.60075 0.0
N505 N 0.66548 0.0207 0.56442 0.0
C506 C 0.67298 0.9998 0.54536 0.0
C507 C 0.71023 0.97937 0.54727 0.0
C508 C 0.69863 0.01281 0.57758 0.0
N509 N 0.72641 0.98738 0.56757 0.0
C510 C 0.60785 0.98602 0.6036 0.0
C511 C 0.61706 0.03162 0.64223 0.0
C512 C 0.60347 0.99039 0.64384 0.0
C513 C 0.60012 0.96716 0.62418 0.0
C514 C 0.6242 0.04935 0.62132 0.0
N515 N 0.6179 0.02714 0.60223 0.0
H516 H 0.60414 0.96783 0.58863 0.0
H517 H 0.63347 0.08115 0.62084 0.0
H518 H 0.65277 0.99842 0.53103 0.0
H519 H 0.70201 0.02525 0.59422 0.0
O520 O 0.58052 0.01231 0.55803 0.0
O521 O 0.60744 0.06772 0.54167 0.0
O522 O 0.65453 0.10041 0.58066 0.0
C523 C 0.5832 0.03547 0.54033 0.0
H524 H 0.48984 0.14536 0.57007 0.0
H525 H 0.72357 0.95911 0.53481 0.0
H526 H 0.62029 0.05079 0.65696 0.0
H527 H 0.59077 0.93489 0.62463 0.0
H528 H 0.51068 0.14102 0.18525 0.0
H529 H 0.39894 0.95712 0.25189 0.0
H530 H 0.44602 0.04088 0.15253 0.0
H531 H 0.44896 0.06697 0.28303 0.0
H532 H 0.41313 0.98793 0.21525 0.0
H533 H 0.48635 0.11494 0.22121 0.0
C534 C 0.49115 0.11366 0.18564 0.0
C535 C 0.48046 0.09307 0.16586 0.0
C536 C 0.42077 0.00534 0.23013 0.0
C537 C 0.45257 0.06277 0.20703 0.0
C538 C 0.41251 0.98782 0.25104 0.0
C539 C 0.42339 0.00914 0.2706 0.0
C540 C 0.44005 0.04444 0.22878 0.0
C541 C 0.44104 0.04885 0.26845 0.0
C542 C 0.47714 0.09881 0.20617 0.0
C543 C 0.45471 0.05795 0.16735 0.0
N544 N 0.44907 0.06499 0.24799 0.0
N545 N 0.44196 0.04369 0.18758 0.0
H546 H 0.41715 0.41556 0.8454 0.0
H547 H 0.50487 0.52229 0.73437 0.0
H548 H 0.54736 0.42622 0.8295 0.0
H549 H 0.37483 0.49592 0.74436 0.0
H550 H 0.52014 0.49077 0.77038 0.0
H551 H 0.40023 0.44747 0.80944 0.0
C552 C 0.44218 0.42443 0.83432 0.0
C553 C 0.48377 0.41809 0.8405 0.0
C554 C 0.48822 0.4919 0.76476 0.0
C555 C 0.46461 0.45487 0.79939 0.0
C556 C 0.47946 0.50989 0.74415 0.0
C557 C 0.43851 0.51152 0.73617 0.0
C558 C 0.45584 0.47541 0.77768 0.0
C559 C 0.40682 0.49568 0.74986 0.0
C560 C 0.43248 0.44259 0.81379 0.0
C561 C 0.51487 0.42991 0.82537 0.0
N562 N 0.41617 0.47814 0.76991 0.0
N563 N 0.50466 0.44789 0.80562 0.0
H564 H 0.06457 0.47584 0.15185 0.0
H565 H 0.05689 0.44436 0.2842 0.0
H566 H 0.99784 0.37711 0.18468 0.0
H567 H 0.10793 0.55376 0.25302 0.0
H568 H 0.04287 0.41535 0.24749 0.0
H569 H 0.08863 0.50047 0.18824 0.0
C570 C 0.05547 0.45896 0.16669 0.0
C571 C 0.02903 0.42437 0.16521 0.0
C572 C 0.05723 0.44566 0.24861 0.0
C573 C 0.05614 0.45271 0.20693 0.0
C574 C 0.06509 0.46239 0.2696 0.0
C575 C 0.08293 0.50198 0.27174 0.0
C576 C 0.06733 0.46849 0.22944 0.0
C577 C 0.09405 0.52322 0.25217 0.0
C578 C 0.06898 0.47325 0.18746 0.0
C579 C 0.01777 0.40415 0.18503 0.0
N580 N 0.08576 0.50635 0.23183 0.0
N581 N 0.03128 0.41866 0.20503 0.0
H582 H 0.09568 0.94747 0.75279 0.0
H583 H 1.0038 0.14208 0.82 0.0
H584 H 0.0534 0.06062 0.72172 0.0
H585 H 0.04716 0.03008 0.85186 0.0
H586 H 0.02473 0.11365 0.78395 0.0
H587 H 0.08176 0.97827 0.78941 0.0
C588 C 0.08375 0.97884 0.75366 0.0
C589 C 0.0752 1.00124 0.73411 0.0
C590 C 0.0299 0.09536 0.79884 0.0
C591 C 0.05898 0.03663 0.77594 0.0
C592 C 0.01778 0.11154 0.81944 0.0
C593 C 0.02364 0.08847 0.83903 0.0
C594 C 0.04785 0.05564 0.79773 0.0
C595 C 0.04248 0.04925 0.83725 0.0
C596 C 0.07563 0.99636 0.77456 0.0
C597 C 0.05958 0.04176 0.73628 0.0
N598 N 0.05369 0.03401 0.81699 0.0
N599 N 0.05185 0.05802 0.75675 0.0
H600 H 0.57225 0.94661 0.78494 0.0
H601 H 0.5359 0.94138 0.65296 0.0
H602 H 0.46285 0.89418 0.75448 0.0
H603 H 0.64101 0.99975 0.68466 0.0
H604 H 0.51182 0.91767 0.68949 0.0
H605 H 0.6006 0.96043 0.74802 0.0
C606 C 0.55411 0.93805 0.77045 0.0
C607 C 0.51476 0.9198 0.77284 0.0
C608 C 0.5403 0.93541 0.68843 0.0
C609 C 0.54739 0.93526 0.73031 0.0
C610 C 0.55427 0.94872 0.66756 0.0
C611 C 0.59052 0.97276 0.66571 0.0
C612 C 0.56273 0.94614 0.70766 0.0
C613 C 0.61262 0.98182 0.68528 0.0
C614 C 0.57045 0.94578 0.74934 0.0
C615 C 0.49326 0.90834 0.75343 0.0
N616 N 0.59831 0.96865 0.7054 0.0
N617 N 0.5097 0.91657 0.73297 0.0
H618 H 0.5431 0.45838 0.33531 0.0
H619 H 0.50823 0.63618 0.24379 0.0
H620 H 0.59672 0.58067 0.34118 0.0
H621 H 0.46626 0.50972 0.23693 0.0
H622 H 0.53577 0.61913 0.28085 0.0
H623 H 0.51094 0.47892 0.30038 0.0
C624 C 0.54855 0.48949 0.32914 0.0
C625 C 0.57332 0.51759 0.34112 0.0
C626 C 0.5203 0.59522 0.27127 0.0
C627 C 0.53551 0.54176 0.30104 0.0
C628 C 0.50428 0.60502 0.25021 0.0
C629 C 0.48512 0.57425 0.2372 0.0
C630 C 0.5169 0.55444 0.27939 0.0
C631 C 0.48127 0.53427 0.24625 0.0
C632 C 0.52978 0.50135 0.30922 0.0
C633 C 0.57793 0.55795 0.33254 0.0
N634 N 0.49712 0.52553 0.26669 0.0
N635 N 0.55934 0.56879 0.31297 0.0
H636 H 1.00361 0.64173 0.7596 0.0
H637 H 0.88357 0.4778 0.68699 0.0
H638 H 0.00929 0.51026 0.7738 0.0
H639 H 0.95677 0.57144 0.65346 0.0
H640 H 0.91397 0.49936 0.72234 0.0
H641 H 0.97331 0.62546 0.72311 0.0
C642 C 0.99893 0.60953 0.75516 0.0
C643 C 0.00873 0.57742 0.77023 0.0
C644 C 0.92304 0.51526 0.70719 0.0
C645 C 0.97248 0.5591 0.72884 0.0
C646 C 0.90592 0.50288 0.68691 0.0
C647 C 0.91813 0.52207 0.66689 0.0
C648 C 0.95178 0.54785 0.7077 0.0
C649 C 0.94607 0.55567 0.66831 0.0
C650 C 0.9813 0.60043 0.73438 0.0
C651 C 1.00113 0.53634 0.76333 0.0
N652 N 0.962 0.56748 0.68837 0.0
N653 N 0.98299 0.52847 0.74336 0.0
H654 H 0.99975 0.87953 0.24179 0.0
H655 H 0.96601 0.05502 0.33464 0.0
H656 H 0.04303 0.00574 0.23589 0.0
H657 H 0.91035 0.93342 0.33908 0.0
H658 H 0.99817 0.03526 0.29956 0.0
H659 H 0.9718 0.89601 0.27882 0.0
C660 C 1.00389 0.91052 0.24841 0.0
C661 C 0.02358 0.94139 0.23568 0.0
C662 C 0.97887 0.01283 0.30813 0.0
C663 C 0.99131 0.96054 0.27785 0.0
C664 C 0.96011 0.02424 0.32813 0.0
C665 C 0.93481 0.99608 0.33976 0.0
C666 C 0.97261 0.97281 0.29953 0.0
C667 C 0.92961 0.95615 0.33074 0.0
C668 C 0.98763 0.91999 0.26945 0.0
C669 C 0.02763 0.98113 0.24498 0.0
N670 N 0.94822 0.94574 0.31112 0.0
N671 N 0.01155 0.98955 0.26541 0.0
H672 H 0.63333 0.23309 0.08423 0.0
H673 H 0.87651 0.28357 0.08434 0.0
H674 H 0.72694 0.1399 0.09615 0.0
H675 H 0.78272 0.37701 0.09525 0.0
H676 H 0.82214 0.23022 0.08517 0.0
H677 H 0.68772 0.28642 0.08476 0.0
C678 C 0.66523 0.22383 0.087 0.0
C679 C 0.67549 0.18192 0.09022 0.0
C680 C 0.81356 0.26242 0.08747 0.0
C681 C 0.73793 0.2427 0.09057 0.0
C682 C 0.84457 0.29288 0.08696 0.0
C683 C 0.83425 0.33487 0.0898 0.0
C684 C 0.77185 0.27406 0.09049 0.0
C685 C 0.79225 0.34505 0.09312 0.0
C686 C 0.69625 0.25428 0.08734 0.0
C687 C 0.71746 0.1718 0.09373 0.0
N688 N 0.76264 0.31497 0.09322 0.0
N689 N 0.74708 0.20187 0.09366 0.0
H690 H 0.22583 0.87308 0.64784 0.0
H691 H 0.28159 0.63237 0.65004 0.0
H692 H 0.13551 0.77983 0.6655 0.0
H693 H 0.37298 0.72671 0.66399 0.0
H694 H 0.22733 0.68581 0.65077 0.0
H695 H 0.28021 0.81974 0.6488 0.0
C696 C 0.21743 0.84143 0.65194 0.0
C697 C 0.17603 0.83095 0.65668 0.0
C698 C 0.25926 0.69472 0.65376 0.0
C699 C 0.23801 0.7697 0.65743 0.0
C700 C 0.29025 0.66428 0.65328 0.0
C701 C 0.33192 0.67503 0.65704 0.0
C702 C 0.27004 0.73639 0.65752 0.0
C703 C 0.34127 0.71694 0.66116 0.0
C704 C 0.24849 0.81106 0.65255 0.0
C705 C 0.16701 0.78939 0.66189 0.0
N706 N 0.31068 0.74611 0.66109 0.0
N707 N 0.19763 0.76025 0.66193 0.0
H708 H 0.81335 0.16703 0.87901 0.0
H709 H 0.65782 0.30484 0.94902 0.0
H710 H 0.84372 0.20483 0.94601 0.0
H711 H 0.6794 0.33087 0.87945 0.0
H712 H 0.71688 0.25651 0.94859 0.0
H713 H 0.75521 0.21639 0.87905 0.0
C714 C 0.8078 0.18576 0.8937 0.0
C715 C 0.83348 0.18202 0.91251 0.0
C716 C 0.70851 0.27279 0.93345 0.0
C717 C 0.76651 0.23748 0.91284 0.0
C718 C 0.67472 0.30006 0.93362 0.0
C719 C 0.66376 0.32189 0.91424 0.0
C720 C 0.73073 0.26643 0.91361 0.0
C721 C 0.68694 0.3148 0.89477 0.0
C722 C 0.77475 0.21389 0.89368 0.0
C723 C 0.82489 0.20704 0.93111 0.0
N724 N 0.71909 0.28737 0.89488 0.0
N725 N 0.79179 0.23334 0.93092 0.0
H726 H 0.19654 0.66571 0.38289 0.0
H727 H 0.33903 0.81741 0.31197 0.0
H728 H 0.16855 0.69226 0.31404 0.0
H729 H 0.31251 0.84144 0.38123 0.0
H730 H 0.28591 0.76259 0.3121 0.0
H731 H 0.24903 0.72103 0.38239 0.0
C732 C 0.20164 0.68296 0.36762 0.0
C733 C 0.17804 0.67439 0.34848 0.0
C734 C 0.29174 0.77997 0.32723 0.0
C735 C 0.23846 0.73725 0.34774 0.0
C736 C 0.32209 0.81113 0.3272 0.0
C737 C 0.33012 0.83416 0.3466 0.0
C738 C 0.27008 0.77093 0.34696 0.0
C739 C 0.30713 0.82469 0.36586 0.0
C740 C 0.23139 0.71464 0.36741 0.0
C741 C 0.18586 0.69795 0.3292 0.0
N742 N 0.27852 0.79353 0.36563 0.0
N743 N 0.21564 0.72803 0.32925 0.0
H744 H 0.19696 0.6662 0.81328 0.0
H745 H 0.34883 0.80855 0.88374 0.0
H746 H 0.16876 0.69952 0.88123 0.0
H747 H 0.32654 0.83365 0.81414 0.0
H748 H 0.29194 0.75776 0.88325 0.0
H749 H 0.25347 0.71754 0.81327 0.0
C750 C 0.20266 0.6843 0.82818 0.0
C751 C 0.17801 0.67873 0.84726 0.0
C752 C 0.29964 0.77438 0.8681 0.0
C753 C 0.2431 0.73659 0.8475 0.0
C754 C 0.33221 0.80312 0.86832 0.0
C755 C 0.34239 0.8254 0.84895 0.0
C756 C 0.27777 0.76702 0.84824 0.0
C757 C 0.31959 0.81729 0.82946 0.0
C758 C 0.23478 0.7136 0.82813 0.0
C759 C 0.18677 0.70306 0.86611 0.0
N760 N 0.2886 0.78849 0.82954 0.0
N761 N 0.21889 0.73057 0.86585 0.0
H762 H 0.87561 0.22715 0.41422 0.0
H763 H 0.63464 0.28462 0.41195 0.0
H764 H 0.77854 0.13613 0.42267 0.0
H765 H 0.73038 0.37542 0.42445 0.0
H766 H 0.68729 0.23027 0.41144 0.0
H767 H 0.82319 0.28187 0.41358 0.0
C768 C 0.84324 0.21857 0.41581 0.0
C769 C 0.83152 0.17683 0.41848 0.0
C770 C 0.69682 0.26206 0.41428 0.0
C771 C 0.77125 0.23964 0.41772 0.0
C772 C 0.66679 0.29326 0.41447 0.0
C773 C 0.67804 0.33481 0.41824 0.0
C774 C 0.73865 0.27233 0.41763 0.0
C775 C 0.72024 0.34387 0.42152 0.0
C776 C 0.81336 0.24994 0.41556 0.0
C777 C 0.78906 0.16781 0.42061 0.0
N778 N 0.74903 0.3129 0.42106 0.0
N779 N 0.76048 0.19893 0.4201 0.0
H780 H 0.23029 0.87929 0.16154 0.0
H781 H 0.27909 0.63682 0.16143 0.0
H782 H 0.13704 0.78803 0.14541 0.0
H783 H 0.37296 0.72831 0.14671 0.0
H784 H 0.22651 0.69179 0.1613 0.0
H785 H 0.28284 0.82432 0.16185 0.0
C786 C 0.22079 0.84766 0.15818 0.0
C787 C 0.17913 0.8383 0.15344 0.0
C788 C 0.25862 0.69979 0.15811 0.0
C789 C 0.2392 0.77514 0.15399 0.0
C790 C 0.28871 0.6685 0.1583 0.0
C791 C 0.33056 0.67793 0.15408 0.0
C792 C 0.27046 0.74107 0.15413 0.0
C793 C 0.34108 0.71957 0.14998 0.0
C794 C 0.25088 0.81636 0.15825 0.0
C795 C 0.16878 0.79672 0.14907 0.0
N796 N 0.3113 0.74962 0.15027 0.0
N797 N 0.19852 0.76666 0.14962 0.0
H798 H 0.70227 0.1552 0.55717 0.0
H799 H 0.84235 0.31104 0.62382 0.0
H800 H 0.66798 0.18862 0.62428 0.0
H801 H 0.80369 0.34225 0.55709 0.0
H802 H 0.79016 0.25533 0.62458 0.0
H803 H 0.75259 0.21277 0.55683 0.0
C804 C 0.70575 0.17431 0.5719 0.0
C805 C 0.68105 0.16723 0.59079 0.0
C806 C 0.79307 0.27457 0.60985 0.0
C807 C 0.73858 0.23232 0.59058 0.0
C808 C 0.82271 0.30623 0.60939 0.0
C809 C 0.827 0.33135 0.59042 0.0
C810 C 0.76867 0.26704 0.59092 0.0
C811 C 0.80096 0.32379 0.57211 0.0
C812 C 0.73407 0.20724 0.57161 0.0
C813 C 0.6864 0.19316 0.60938 0.0
N814 N 0.77327 0.29183 0.57266 0.0
N815 N 0.71494 0.22431 0.60891 0.0
H816 H 0.59445 0.74333 0.12792 0.0
H817 H 0.51538 0.97296 0.10045 0.0
H818 H 0.46517 0.7782 0.12865 0.0
H819 H 0.64368 0.93498 0.09716 0.0
H820 H 0.49637 0.90292 0.11206 0.0
H821 H 0.6128 0.81399 0.1176 0.0
C822 C 0.56986 0.76591 0.12605 0.0
C823 C 0.52816 0.75478 0.12932 0.0
C824 C 0.52869 0.90994 0.10885 0.0
C825 C 0.54905 0.83609 0.11722 0.0
C826 C 0.53968 0.9501 0.10239 0.0
C827 C 0.58132 0.96002 0.09782 0.0
C828 C 0.55951 0.87938 0.11082 0.0
C829 C 0.61121 0.92868 0.10025 0.0
C830 C 0.58039 0.80631 0.12001 0.0
C831 C 0.49765 0.78531 0.12615 0.0
N832 N 0.59973 0.88984 0.10657 0.0
N833 N 0.50871 0.82463 0.12033 0.0
H834 H 0.75791 0.51826 0.6121 0.0
H835 H 0.5439 0.63349 0.5839 0.0
H836 H 0.71345 0.54158 0.54533 0.0
H837 H 0.57187 0.58416 0.64899 0.0
H838 H 0.6112 0.60884 0.57057 0.0
H839 H 0.69403 0.54887 0.62682 0.0
C840 C 0.73483 0.52952 0.60049 0.0
C841 C 0.74148 0.52731 0.57736 0.0
C842 C 0.60284 0.60374 0.58785 0.0
C843 C 0.66853 0.56321 0.5942 0.0
C844 C 0.5646 0.6183 0.59553 0.0
C845 C 0.55234 0.61096 0.61762 0.0
C846 C 0.62918 0.58185 0.60237 0.0
C847 C 0.58016 0.59026 0.63182 0.0
C848 C 0.69843 0.54728 0.60895 0.0
C849 C 0.71038 0.5431 0.56324 0.0
N850 N 0.61722 0.5763 0.62395 0.0
N851 N 0.67547 0.56039 0.57187 0.0
H852 H 0.99415 0.54387 0.09899 0.0
H853 H 0.91553 0.77397 0.12551 0.0
H854 H 0.86603 0.58222 0.095 0.0
H855 H 0.04461 0.73847 0.12705 0.0
H856 H 0.89706 0.70339 0.1151 0.0
H857 H 0.01323 0.61397 0.11038 0.0
C858 C 0.96989 0.56683 0.10073 0.0
C859 C 0.92828 0.55698 0.09606 0.0
C860 C 0.92945 0.71092 0.11771 0.0
C861 C 0.95018 0.6377 0.1088 0.0
C862 C 0.94004 0.75126 0.12379 0.0
C863 C 0.98172 0.76218 0.12734 0.0
C864 C 0.9607 0.68098 0.11514 0.0
C865 C 0.01215 0.73151 0.12435 0.0
C866 C 0.98093 0.60703 0.10706 0.0
C867 C 0.89847 0.58846 0.0982 0.0
N868 N 1.00103 0.69225 0.11849 0.0
N869 N 0.90999 0.62733 0.10441 0.0
H870 H 0.74885 0.98191 0.61143 0.0
H871 H 0.96284 0.86579 0.58436 0.0
H872 H 0.79137 0.95355 0.54485 0.0
H873 H 0.9347 0.91837 0.64867 0.0
H874 H 0.8951 0.88887 0.57079 0.0
H875 H 0.81276 0.95196 0.6263 0.0
C876 C 0.77151 0.96967 0.59987 0.0
C877 C 0.76435 0.97043 0.57675 0.0
C878 C 0.90353 0.895 0.58795 0.0
C879 C 0.83746 0.93523 0.59382 0.0
C880 C 0.94202 0.88136 0.59578 0.0
C881 C 0.95435 0.89011 0.61771 0.0
C882 C 0.87705 0.91738 0.60217 0.0
C883 C 0.92637 0.9112 0.63163 0.0
C884 C 0.80796 0.95227 0.60843 0.0
C885 C 0.79491 0.95329 0.56276 0.0
N886 N 0.8891 0.92426 0.62362 0.0
N887 N 0.82996 0.93643 0.5715 0.0
H888 H 0.63474 0.57201 0.93264 0.0
H889 H 0.47302 0.72567 0.87463 0.0
H890 H 0.53416 0.52924 0.89086 0.0
H891 H 0.59453 0.76423 0.89646 0.0
H892 H 0.4905 0.6539 0.88474 0.0
H893 H 0.61703 0.64329 0.92293 0.0
C894 C 0.60915 0.57732 0.92134 0.0
C895 C 0.5858 0.54413 0.91276 0.0
C896 C 0.5133 0.67813 0.88731 0.0
C897 C 0.56485 0.62613 0.90194 0.0
C898 C 0.5032 0.71902 0.88172 0.0
C899 C 0.53247 0.75076 0.8846 0.0
C900 C 0.55271 0.66915 0.89614 0.0
C901 C 0.57131 0.74053 0.89369 0.0
C902 C 0.59891 0.61819 0.9159 0.0
C903 C 0.55262 0.55352 0.89834 0.0
N904 N 0.58027 0.70066 0.89919 0.0
N905 N 0.54302 0.59358 0.89351 0.0
H906 H 0.74845 0.52233 0.39241 0.0
H907 H 0.95923 0.64673 0.41643 0.0
H908 H 0.79237 0.55486 0.45821 0.0
H909 H 0.93518 0.58435 0.35423 0.0
H910 H 0.89145 0.62377 0.43016 0.0
H911 H 0.81137 0.55311 0.37662 0.0
C912 C 0.77109 0.53572 0.4036 0.0
C913 C 0.76453 0.5359 0.42679 0.0
C914 C 0.90076 0.61549 0.4134 0.0
C915 C 0.83641 0.57206 0.40865 0.0
C916 C 0.93924 0.62905 0.40547 0.0
C917 C 0.95278 0.61742 0.38415 0.0
C918 C 0.8755 0.59033 0.39987 0.0
C919 C 0.92587 0.59377 0.3708 0.0
C920 C 0.80696 0.55356 0.39451 0.0
C921 C 0.79519 0.55437 0.44027 0.0
N922 N 0.8886 0.58082 0.3789 0.0
N923 N 0.82954 0.57168 0.43102 0.0
H924 H 0.87749 0.93136 0.9315 0.0
H925 H 0.04432 0.78476 0.87247 0.0
H926 H 0.97598 0.97925 0.88978 0.0
H927 H 0.92359 0.74259 0.89357 0.0
H928 H 0.02511 0.85579 0.88344 0.0
H929 H 0.89852 0.86128 0.92171 0.0
C930 C 0.90335 0.9275 0.92022 0.0
C931 C 0.92496 0.96188 0.91163 0.0
C932 C 1.00292 0.8309 0.88568 0.0
C933 C 0.94974 0.88099 0.90068 0.0
C934 C 0.01399 0.79048 0.8796 0.0
C935 C 0.98536 0.75801 0.88198 0.0
C936 C 0.96323 0.83856 0.89453 0.0
C937 C 0.9463 0.76692 0.89116 0.0
C938 C 0.91549 0.88724 0.91473 0.0
C939 C 0.95865 0.95413 0.89724 0.0
N940 N 0.93641 0.80629 0.89714 0.0
N941 N 0.97009 0.91457 0.89232 0.0
H942 H 0.5693 0.93102 0.35086 0.0
H943 H 0.73491 0.92513 0.4501 0.0
H944 H 0.55565 0.85552 0.40974 0.0
H945 H 0.7442 0.00764 0.39364 0.0
H946 H 0.67369 0.89342 0.43343 0.0
H947 H 0.63799 0.95254 0.3638 0.0
C948 C 0.58105 0.91854 0.36638 0.0
C949 C 0.55651 0.89171 0.37932 0.0
C950 C 0.68919 0.91832 0.42461 0.0
C951 C 0.63512 0.91642 0.39436 0.0
C952 C 0.72408 0.93672 0.43421 0.0
C953 C 0.74455 0.96966 0.42346 0.0
C954 C 0.67437 0.93284 0.40404 0.0
C955 C 0.72957 0.98239 0.40256 0.0
C956 C 0.62023 0.93088 0.37378 0.0
C957 C 0.57347 0.87606 0.39917 0.0
N958 N 0.69522 0.9642 0.39363 0.0
N959 N 0.61151 0.88901 0.4062 0.0
H960 H 0.44561 0.21428 0.9624 0.0
H961 H 0.42955 0.06754 0.85565 0.0
H962 H 0.48692 0.25152 0.89688 0.0
H963 H 0.36776 0.04147 0.9178 0.0
H964 H 0.45035 0.13543 0.8702 0.0
H965 H 0.41735 0.15081 0.94641 0.0
C966 C 0.44861 0.20939 0.94464 0.0
C967 C 0.46878 0.23866 0.93103 0.0
C968 C 0.43178 0.11514 0.88058 0.0
C969 C 0.43663 0.16535 0.91259 0.0
C970 C 0.41983 0.07651 0.87225 0.0
C971 C 0.39683 0.04898 0.88551 0.0
C972 C 0.42112 0.12618 0.90249 0.0
C973 C 0.38503 0.06194 0.90692 0.0
C974 C 0.43246 0.17296 0.93552 0.0
C975 C 0.47223 0.22986 0.90815 0.0
N976 N 0.39771 0.09942 0.91484 0.0
N977 N 0.45642 0.19402 0.89969 0.0
H978 H 0.27545 0.54583 0.38075 0.0
H979 H 0.43184 0.36471 0.41758 0.0
H980 H 0.24016 0.4175 0.38861 0.0
H981 H 0.46905 0.49253 0.40964 0.0
H982 H 0.36115 0.38396 0.40718 0.0
H983 H 0.34637 0.52768 0.39193 0.0
C984 C 0.28252 0.51395 0.38495 0.0
C985 C 0.25186 0.48311 0.38355 0.0
C986 C 0.38481 0.40781 0.40765 0.0
C987 C 0.33286 0.46202 0.39616 0.0
C988 C 0.42517 0.39681 0.41366 0.0
C989 C 0.45656 0.42693 0.41446 0.0
C990 C 0.37559 0.44932 0.40245 0.0
C991 C 0.44615 0.46805 0.40894 0.0
C992 C 0.32304 0.50353 0.3912 0.0
C993 C 0.26288 0.44218 0.38902 0.0
N994 N 0.40656 0.47803 0.40322 0.0
N995 N 0.30238 0.43287 0.39503 0.0
H996 H 0.9972 0.26824 0.89575 0.0
H997 H 0.15058 0.46009 0.91474 0.0
H998 H 0.07675 0.28055 0.9533 0.0
H999 H 0.07748 0.44283 0.85523 0.0
H1000 H 0.1281 0.39189 0.92791 0.0
H1001 H 0.02942 0.32983 0.87968 0.0
C1002 C 0.02162 0.28357 0.90498 0.0
C1003 C 0.03395 0.26905 0.92606 0.0
C1004 C 0.11732 0.4028 0.91185 0.0
C1005 C 0.07087 0.34023 0.90773 0.0
C1006 C 0.1305 0.44165 0.90421 0.0
C1007 C 0.11566 0.45739 0.88389 0.0
C1008 C 0.08902 0.37954 0.89911 0.0
C1009 C 0.08918 0.43217 0.87114 0.0
C1010 C 0.03997 0.31894 0.89579 0.0
C1011 C 0.06555 0.29083 0.93724 0.0
N1012 N 0.07643 0.39475 0.87903 0.0
N1013 N 0.08274 0.32533 0.928 0.0
H1014 H 0.23155 0.9619 0.38027 0.0
H1015 H 0.07664 0.14203 0.42011 0.0
H1016 H 0.26757 0.08956 0.38996 0.0
H1017 H 0.03808 0.01521 0.40982 0.0
H1018 H 0.14721 0.12266 0.40961 0.0
H1019 H 0.16082 0.97979 0.392 0.0
C1020 C 0.22467 0.99356 0.385 0.0
C1021 C 0.25544 0.02433 0.38392 0.0
C1022 C 0.1233 0.09904 0.4096 0.0
C1023 C 0.17473 0.04513 0.39716 0.0
C1024 C 0.083 0.11011 0.41567 0.0
C1025 C 0.05126 0.08032 0.41583 0.0
C1026 C 0.13211 0.05779 0.40367 0.0
C1027 C 0.06128 0.03944 0.40963 0.0
C1028 C 0.18428 1.00384 0.39155 0.0
C1029 C 0.24473 0.06498 0.39009 0.0
N1030 N 0.10082 0.02938 0.40386 0.0
N1031 N 0.20535 0.07416 0.39639 0.0
H1032 H 0.4695 0.29672 0.04283 0.0
H1033 H 0.41901 0.43731 0.14869 0.0
H1034 H 0.48461 0.25237 0.11029 0.0
H1035 H 0.37762 0.4659 0.08212 0.0
H1036 H 0.44441 0.36996 0.13538 0.0
H1037 H 0.43817 0.35984 0.05718 0.0
C1038 C 0.46605 0.29995 0.06067 0.0
C1039 C 0.47957 0.26865 0.07531 0.0
C1040 C 0.42928 0.39073 0.12375 0.0
C1041 C 0.44391 0.34181 0.09195 0.0
C1042 C 0.41472 0.42905 0.13135 0.0
C1043 C 0.39602 0.45709 0.11652 0.0
C1044 C 0.42566 0.38062 0.10107 0.0
C1045 C 0.39129 0.44503 0.09419 0.0
C1046 C 0.44814 0.33624 0.06887 0.0
C1047 C 0.47505 0.27556 0.09833 0.0
N1048 N 0.40641 0.40792 0.08711 0.0
N1049 N 0.45765 0.31139 0.10593 0.0
H1050 H 0.23111 0.54319 0.62837 0.0
H1051 H 0.07399 0.36006 0.59546 0.0
H1052 H 0.26474 0.41366 0.62605 0.0
H1053 H 0.03834 0.48901 0.59849 0.0
H1054 H 0.14424 0.37948 0.60666 0.0
H1055 H 0.16042 0.5245 0.61709 0.0
C1056 C 0.22373 0.5109 0.6254 0.0
C1057 C 0.25391 0.47996 0.62831 0.0
C1058 C 0.12101 0.40355 0.60494 0.0
C1059 C 0.17309 0.45829 0.61557 0.0
C1060 C 0.08091 0.39245 0.59847 0.0
C1061 C 0.05009 0.42284 0.59604 0.0
C1062 C 0.13055 0.44544 0.60897 0.0
C1063 C 0.06079 0.46436 0.60044 0.0
C1064 C 0.18332 0.5002 0.61909 0.0
C1065 C 0.24243 0.43853 0.62443 0.0
N1066 N 0.10012 0.47442 0.60662 0.0
N1067 N 0.20304 0.42895 0.61828 0.0
H1068 H 0.02384 0.26526 0.11093 0.0
H1069 H 0.13742 0.051 0.08151 0.0
H1070 H 0.04443 0.22068 0.04392 0.0
H1071 H 0.09017 0.07892 0.14703 0.0
H1072 H 0.11288 0.11857 0.06849 0.0
H1073 H 0.05509 0.20144 0.12532 0.0
C1074 C 0.03465 0.24218 0.0992 0.0
C1075 C 0.03145 0.24878 0.07609 0.0
C1076 C 0.10823 0.11014 0.08579 0.0
C1077 C 0.0681 0.1759 0.09255 0.0
C1078 C 0.12273 0.07175 0.09328 0.0
C1079 C 0.11588 0.05939 0.11541 0.0
C1080 C 0.08691 0.13651 0.10053 0.0
C1081 C 0.09585 0.08728 0.12983 0.0
C1082 C 0.05278 0.20582 0.10747 0.0
C1083 C 0.0467 0.21768 0.06182 0.0
N1084 N 0.08192 0.12447 0.12213 0.0
N1085 N 0.06436 0.1828 0.07027 0.0
H1086 H 0.43547 0.14258 0.59707 0.0
H1087 H 0.27482 0.96116 0.62776 0.0
H1088 H 0.46863 0.01285 0.59868 0.0
H1089 H 0.24214 0.0908 0.62367 0.0
H1090 H 0.3462 0.97908 0.61747 0.0
H1091 H 0.36465 0.12398 0.60757 0.0
C1092 C 0.42791 0.1102 0.59962 0.0
C1093 C 0.45822 0.07934 0.59696 0.0
C1094 C 0.32335 1.00357 0.61886 0.0
C1095 C 0.37704 0.05769 0.60911 0.0
C1096 C 0.28253 0.99331 0.6246 0.0
C1097 C 0.25238 0.0245 0.62672 0.0
C1098 C 0.33407 0.04532 0.61515 0.0
C1099 C 0.26436 0.06574 0.62265 0.0
C1100 C 0.38746 0.09957 0.60569 0.0
C1101 C 0.44664 0.03785 0.6008 0.0
N1102 N 0.30416 0.0749 0.61708 0.0
N1103 N 0.407 0.02827 0.60661 0.0
H1104 H 0.53706 0.9808 0.90771 0.0
H1105 H 0.4787 0.02941 0.03482 0.0
H1106 H 0.44321 0.91392 0.94439 0.0
H1107 H 0.58149 0.08669 1.00044 0.0
H1108 H 0.46418 0.98803 1.00158 0.0
H1109 H 0.55338 0.02036 0.94132 0.0
C1110 C 0.52014 0.97414 0.9229 0.0
C1111 C 0.4888 0.94391 0.92326 0.0
C1112 C 0.48991 0.00965 1.00128 0.0
C1113 C 0.507 0.98949 0.96178 0.0
C1114 C 0.49812 0.03342 0.02023 0.0
C1115 C 0.5313 0.06163 0.02037 0.0
C1116 C 0.51497 0.01417 0.98227 0.0
C1117 C 0.55555 0.06536 1.00104 0.0
C1118 C 0.52941 0.99685 0.94208 0.0
C1119 C 0.46774 0.93681 0.94339 0.0
N1120 N 0.54687 0.04195 0.98277 0.0
N1121 N 0.47709 0.95956 0.96181 0.0
H1122 H 0.40886 0.56705 0.56335 0.0
H1123 H 0.59168 0.43337 0.50802 0.0
H1124 H 0.48143 0.47643 0.59921 0.0
H1125 H 0.52685 0.53147 0.47361 0.0
H1126 H 0.54969 0.44687 0.54116 0.0
H1127 H 0.44879 0.55162 0.52965 0.0
C1128 C 0.4328 0.5435 0.56407 0.0
C1129 C 0.44174 0.52291 0.58412 0.0
C1130 C 0.54469 0.46555 0.52639 0.0
C1131 C 0.48795 0.50549 0.54569 0.0
C1132 C 0.56875 0.45793 0.50748 0.0
C1133 C 0.56286 0.48144 0.48805 0.0
C1134 C 0.51427 0.49678 0.52588 0.0
C1135 C 0.53258 0.51274 0.48827 0.0
C1136 C 0.45579 0.53491 0.54486 0.0
C1137 C 0.47337 0.49297 0.58411 0.0
N1138 N 0.50935 0.51943 0.50686 0.0
N1139 N 0.4954 0.48527 0.56523 0.0
H1140 H 0.92816 0.42774 0.99958 0.0
H1141 H 0.07338 0.60028 0.94291 0.0
H1142 H 0.03084 0.4865 0.03328 0.0
H1143 H 0.97838 0.53269 0.90752 0.0
H1144 H 0.05533 0.56228 0.9769 0.0
H1145 H 0.94381 0.46851 0.96623 0.0
C1146 C 0.95408 0.44913 0.99994 0.0
C1147 C 0.97834 0.45361 0.01921 0.0
C1148 C 0.03828 0.55593 0.96172 0.0
C1149 C 0.99626 0.50067 0.98114 0.0
C1150 C 0.04842 0.57779 0.94234 0.0
C1151 C 0.02732 0.56969 0.92236 0.0
C1152 C 0.00676 0.52578 0.96112 0.0
C1153 C 0.99543 0.53999 0.92257 0.0
C1154 C 0.96297 0.47247 0.9809 0.0
C1155 C 0.01145 0.48192 0.01875 0.0
N1156 N 0.98621 0.51906 0.94161 0.0
N1157 N 0.01941 0.5044 1.00004 0.0
H1158 H 0.91175 0.07182 0.50792 0.0
H1159 H 0.0938 0.93554 0.56223 0.0
H1160 H 0.97526 0.97366 0.47289 0.0
H1161 H 0.02289 0.02686 0.59849 0.0
H1162 H 0.05298 0.95107 0.52883 0.0
H1163 H 0.95333 0.05677 0.54101 0.0
C1164 C 0.93425 0.04688 0.50724 0.0
C1165 C 0.93997 0.02389 0.48763 0.0
C1166 C 0.04651 0.96787 0.54406 0.0
C1167 C 0.98813 0.0068 0.52541 0.0
C1168 C 0.07001 0.95923 0.5631 0.0
C1169 C 0.06186 0.98006 0.58316 0.0
C1170 C 0.01465 0.9976 0.54509 0.0
C1171 C 0.03037 0.01014 0.58337 0.0
C1172 C 0.9581 0.03838 0.52613 0.0
C1173 C 0.96968 0.99203 0.48769 0.0
N1174 N 0.00788 0.01793 0.56466 0.0
N1175 N 0.99276 0.98453 0.50625 0.0
H1176 H 0.47619 0.47929 0.97382 0.0
H1177 H 0.53209 0.52471 0.10147 0.0
H1178 H 0.57514 0.4166 0.00866 0.0
H1179 H 0.44638 0.59848 0.06295 0.0
H1180 H 0.54826 0.48439 0.06802 0.0
H1181 H 0.46386 0.52191 0.00677 0.0
C1182 C 0.49523 0.47434 0.98846 0.0
C1183 C 0.52668 0.44423 0.98851 0.0
C1184 C 0.52622 0.50965 0.06683 0.0
C1185 C 0.51284 0.49321 0.02637 0.0
C1186 C 0.5171 0.53283 0.08591 0.0
C1187 C 0.48792 0.56514 0.085 0.0
C1188 C 0.5058 0.51863 0.04671 0.0
C1189 C 0.4692 0.57399 0.06442 0.0
C1190 C 0.4883 0.49886 0.00726 0.0
C1191 C 0.55052 0.4394 0.00792 0.0
N1192 N 0.47826 0.55072 0.04615 0.0
N1193 N 0.54305 0.46358 0.0261 0.0
H1194 H 0.02297 0.47801 0.40654 0.0
H1195 H 0.97944 0.52976 0.53508 0.0
H1196 H 0.09058 0.5708 0.44354 0.0
H1197 H 0.92113 0.42864 0.49986 0.0
H1198 H 0.01932 0.5463 0.50153 0.0
H1199 H 0.98488 0.45995 0.44042 0.0
C1200 C 0.03008 0.49435 0.42184 0.0
C1201 C 0.06011 0.52588 0.42222 0.0
C1202 C 0.9978 0.5205 0.50112 0.0
C1203 C 0.01623 0.50567 0.46107 0.0
C1204 C 0.9749 0.51113 0.52026 0.0
C1205 C 0.94684 0.47782 0.52025 0.0
C1206 C 0.99254 0.49648 0.48178 0.0
C1207 C 0.94238 0.45462 0.5006 0.0
C1208 C 0.00822 0.48409 0.44118 0.0
C1209 C 0.06782 0.54616 0.44251 0.0
N1210 N 0.96494 0.46442 0.48216 0.0
N1211 N 0.0459 0.53583 0.46109 0.0
H1212 H 0.97685 0.99036 0.0998 0.0
H1213 H 0.03033 0.03543 0.97176 0.0
H1214 H 0.06489 0.91892 0.06156 0.0
H1215 H 0.92835 0.0939 0.00619 0.0
H1216 H 0.04495 0.99447 0.00508 0.0
H1217 H 0.95927 0.02962 0.06617 0.0
C1218 C 0.99212 0.98257 0.08427 0.0
C1219 C 0.02229 0.95117 0.08348 0.0
C1220 C 0.01937 0.01624 0.00539 0.0
C1221 C 1.00278 0.99648 0.04499 0.0
C1222 C 0.01112 0.03984 0.98639 0.0
C1223 C 0.97811 0.06823 0.98621 0.0
C1224 C 0.99458 0.02113 0.02448 0.0
C1225 C 0.95414 0.07241 0.00562 0.0
C1226 C 0.98217 0.00512 0.06509 0.0
C1227 C 0.0413 0.94268 0.06293 0.0
N1228 N 0.96289 0.04916 0.02399 0.0
N1229 N 0.03141 0.96535 0.04456 0.0
H1230 H 0.48426 0.02968 0.40595 0.0
H1231 H 0.52653 0.97344 0.53405 0.0
H1232 H 0.41636 0.93581 0.44206 0.0
H1233 H 0.58585 0.07547 0.50002 0.0
H1234 H 0.48668 0.95859 0.50032 0.0
H1235 H 0.52195 0.04687 0.4401 0.0
C1236 C 0.47701 0.01293 0.42111 0.0
C1237 C 0.44704 0.98131 0.42116 0.0
C1238 C 0.50839 0.98425 0.5002 0.0
C1239 C 0.49043 1.00052 0.46029 0.0
C1240 C 0.53128 0.99266 0.51944 0.0
C1241 C 0.55965 0.02568 0.51982 0.0
C1242 C 0.51397 0.00894 0.48113 0.0
C1243 C 0.56435 0.04966 0.50045 0.0
C1244 C 0.49863 0.02269 0.4406 0.0
C1245 C 0.43911 0.96049 0.44127 0.0
N1246 N 0.54181 0.04077 0.48188 0.0
N1247 N 0.46079 0.97034 0.45999 0.0
loop_
_geom_bond_atom_site_label_1
_geom_bond_atom_site_label_2
_geom_bond_distance
_geom_bond_site_symmetry_2
_ccdc_geom_bond_type
Co0 N4 2.148 . S
Co0 N10 2.128 . S
Co0 N20 2.194 . S
Co0 O25 2.351 . S
Co0 O26 2.155 . S
Co0 O27 2.096 . S
C1 N4 1.301 . S
C1 N5 1.328 1_545 S
C1 H6 0.930 . S
C2 C3 1.333 . S
C2 N4 1.317 . S
C2 H7 0.930 . S
C3 C2 1.333 . S
C3 N5 1.350 1_545 S
C3 H29 0.944 . S
N4 Co0 2.148 . S
N4 C1 1.301 . S
N4 C2 1.317 . S
N5 C1 1.328 1_565 S
N5 C3 1.350 1_565 S
H6 C1 0.930 . S
H7 C2 0.930 . S
C8 O9 1.224 . S
C8 O27 1.247 . S
O9 C8 1.224 . S
N10 Co0 2.128 . S
N10 C11 1.355 . S
N10 C13 1.311 . S
C11 N10 1.355 . S
C11 C12 1.363 . S
C11 H23 0.929 . S
C12 C11 1.363 . S
C12 N14 1.375 . S
C12 H30 0.931 . S
C13 N10 1.311 . S
C13 N14 1.347 . S
C13 H24 0.929 . S
N14 C12 1.375 . S
N14 C13 1.347 . S
C15 C18 1.365 . S
C15 N20 1.328 . S
C15 H21 0.929 . S
C16 C17 1.362 . S
C16 C19 1.378 . S
C16 H31 0.929 . S
C17 C16 1.362 . S
C17 C18 1.366 . S
C18 C15 1.365 . S
C18 C17 1.366 . S
C18 H32 0.930 . S
C19 C16 1.378 . S
C19 N20 1.315 . S
C19 H22 0.930 . S
N20 Co0 2.194 . S
N20 C15 1.328 . S
N20 C19 1.315 . S
H21 C15 0.929 . S
H22 C19 0.930 . S
H23 C11 0.929 . S
H24 C13 0.929 . S
O25 Co0 2.351 . S
O25 C28 1.244 . S
O26 Co0 2.155 . S
O26 C28 1.240 . S
O27 Co0 2.096 . S
O27 C8 1.247 . S
C28 O25 1.244 . S
C28 O26 1.240 . S
H29 C3 0.944 . S
H30 C12 0.931 . S
H31 C16 0.929 . S
H32 C18 0.930 . S
Co33 N37 2.148 . S
Co33 N43 2.128 . S
Co33 N53 2.194 . S
Co33 O58 2.351 . S
Co33 O59 2.155 . S
Co33 O60 2.096 . S
C34 N37 1.301 . S
C34 N38 1.328 . S
C34 H39 0.930 . S
C35 C36 1.333 . S
C35 N37 1.317 . S
C35 H40 0.930 . S
C36 C35 1.333 . S
C36 N38 1.350 . S
C36 H62 0.931 . S
N37 Co33 2.148 . S
N37 C34 1.301 . S
N37 C35 1.317 . S
N38 C34 1.328 . S
N38 C36 1.350 . S
H39 C34 0.930 . S
H40 C35 0.930 . S
C41 O42 1.224 . S
C41 O60 1.247 . S
O42 C41 1.224 . S
N43 Co33 2.128 . S
N43 C44 1.355 . S
N43 C46 1.311 . S
C44 N43 1.355 . S
C44 C45 1.363 . S
C44 H56 0.929 . S
C45 C44 1.363 . S
C45 N47 1.375 . S
C45 H63 0.931 . S
C46 N43 1.311 . S
C46 N47 1.347 . S
C46 H57 0.929 . S
N47 C45 1.375 . S
N47 C46 1.347 . S
C48 C51 1.365 . S
C48 N53 1.328 . S
C48 H54 0.929 . S
C49 C50 1.362 . S
C49 C52 1.378 . S
C49 H64 0.929 . S
C50 C49 1.362 . S
C50 C51 1.366 . S
C51 C48 1.365 . S
C51 C50 1.366 . S
C51 H65 0.930 . S
C52 C49 1.378 . S
C52 N53 1.315 . S
C52 H55 0.930 . S
N53 Co33 2.194 . S
N53 C48 1.328 . S
N53 C52 1.315 . S
H54 C48 0.929 . S
H55 C52 0.930 . S
H56 C44 0.929 . S
H57 C46 0.929 . S
O58 Co33 2.351 . S
O58 C61 1.244 . S
O59 Co33 2.155 . S
O59 C61 1.240 . S
O60 Co33 2.096 . S
O60 C41 1.247 . S
C61 O58 1.244 . S
C61 O59 1.240 . S
H62 C36 0.931 . S
H63 C45 0.931 . S
H64 C49 0.929 . S
H65 C51 0.930 . S
Co66 N70 2.148 . S
Co66 N76 2.128 . S
Co66 N86 2.194 1_655 S
Co66 O91 2.351 1_655 S
Co66 O92 2.155 . S
Co66 O93 2.096 . S
C67 N70 1.301 . S
C67 N71 1.328 . S
C67 H72 0.930 . S
C68 C69 1.333 . S
C68 N70 1.317 . S
C68 H73 0.930 . S
C69 C68 1.333 . S
C69 N71 1.350 . S
C69 H95 0.931 . S
N70 Co66 2.148 . S
N70 C67 1.301 . S
N70 C68 1.317 . S
N71 C67 1.328 . S
N71 C69 1.350 . S
H72 C67 0.930 . S
H73 C68 0.930 . S
C74 O75 1.224 . S
C74 O93 1.247 . S
O75 C74 1.224 . S
N76 Co66 2.128 . S
N76 C77 1.355 1_655 S
N76 C79 1.311 . S
C77 N76 1.355 1_455 S
C77 C78 1.363 . S
C77 H89 0.929 . S
C78 C77 1.363 . S
C78 N80 1.375 . S
C78 H96 0.931 . S
C79 N76 1.311 . S
C79 N80 1.347 1_655 S
C79 H90 0.929 . S
N80 C78 1.375 . S
N80 C79 1.347 1_455 S
C81 C84 1.365 . S
C81 N86 1.328 . S
C81 H87 0.929 . S
C82 C83 1.362 . S
C82 C85 1.378 1_455 S
C82 H97 0.929 1_455 S
C83 C82 1.362 . S
C83 C84 1.366 . S
C84 C81 1.365 . S
C84 C83 1.366 . S
C84 H98 0.930 . S
C85 C82 1.378 1_655 S
C85 N86 1.315 1_655 S
C85 H88 0.930 . S
N86 Co66 2.194 1_455 S
N86 C81 1.328 . S
N86 C85 1.315 1_455 S
H87 C81 0.929 . S
H88 C85 0.930 . S
H89 C77 0.929 . S
H90 C79 0.929 . S
O91 Co66 2.351 1_455 S
O91 C94 1.244 . S
O92 Co66 2.155 . S
O92 C94 1.240 1_655 S
O93 Co66 2.096 . S
O93 C74 1.247 . S
C94 O91 1.244 . S
C94 O92 1.240 1_455 S
H95 C69 0.931 . S
H96 C78 0.931 . S
H97 C82 0.929 1_655 S
H98 C84 0.930 . S
Co99 N103 2.148 . S
Co99 N109 2.128 . S
Co99 N119 2.194 1_565 S
Co99 O124 2.351 1_565 S
Co99 O125 2.155 . S
Co99 O126 2.096 . S
C100 N103 1.301 . S
C100 N104 1.328 1_455 S
C100 H105 0.930 . S
C101 C102 1.333 . S
C101 N103 1.317 . S
C101 H106 0.930 . S
C102 C101 1.333 . S
C102 N104 1.350 1_455 S
C102 H128 0.944 . S
N103 Co99 2.148 . S
N103 C100 1.301 . S
N103 C101 1.317 . S
N104 C100 1.328 1_655 S
N104 C102 1.350 1_655 S
H105 C100 0.930 . S
H106 C101 0.930 . S
C107 O108 1.224 . S
C107 O126 1.247 . S
O108 C107 1.224 . S
N109 Co99 2.128 . S
N109 C110 1.355 1_565 S
N109 C112 1.311 . S
C110 N109 1.355 1_545 S
C110 C111 1.363 . S
C110 H122 0.929 . S
C111 C110 1.363 . S
C111 N113 1.375 . S
C111 H129 0.931 . S
C112 N109 1.311 . S
C112 N113 1.347 1_565 S
C112 H123 0.929 . S
N113 C111 1.375 . S
N113 C112 1.347 1_545 S
C114 C117 1.365 . S
C114 N119 1.328 . S
C114 H120 0.929 . S
C115 C116 1.362 . S
C115 C118 1.378 1_545 S
C115 H130 0.929 1_545 S
C116 C115 1.362 . S
C116 C117 1.366 . S
C117 C114 1.365 . S
C117 C116 1.366 . S
C117 H131 0.930 . S
C118 C115 1.378 1_565 S
C118 N119 1.315 1_565 S
C118 H121 0.930 . S
N119 Co99 2.194 1_545 S
N119 C114 1.328 . S
N119 C118 1.315 1_545 S
H120 C114 0.929 . S
H121 C118 0.930 . S
H122 C110 0.929 . S
H123 C112 0.929 . S
O124 Co99 2.351 1_545 S
O124 C127 1.244 . S
O125 Co99 2.155 . S
O125 C127 1.240 1_565 S
O126 Co99 2.096 . S
O126 C107 1.247 . S
C127 O124 1.244 . S
C127 O125 1.240 1_545 S
H128 C102 0.944 . S
H129 C111 0.931 . S
H130 C115 0.929 1_565 S
H131 C117 0.930 . S
Co132 N136 2.148 . S
Co132 N142 2.128 . S
Co132 N152 2.194 . S
Co132 O157 2.351 . S
Co132 O158 2.155 . S
Co132 O159 2.096 . S
C133 N136 1.301 . S
C133 N137 1.328 . S
C133 H138 0.930 . S
C134 C135 1.333 . S
C134 N136 1.317 . S
C134 H139 0.930 . S
C135 C134 1.333 . S
C135 N137 1.350 . S
C135 H161 0.931 . S
N136 Co132 2.148 . S
N136 C133 1.301 . S
N136 C134 1.317 . S
N137 C133 1.328 . S
N137 C135 1.350 . S
H138 C133 0.930 . S
H139 C134 0.930 . S
C140 O141 1.224 . S
C140 O159 1.247 . S
O141 C140 1.224 . S
N142 Co132 2.128 . S
N142 C143 1.355 . S
N142 C145 1.311 . S
C143 N142 1.355 . S
C143 C144 1.363 . S
C143 H155 0.929 . S
C144 C143 1.363 . S
C144 N146 1.375 . S
C144 H162 0.931 . S
C145 N142 1.311 . S
C145 N146 1.347 . S
C145 H156 0.929 . S
N146 C144 1.375 . S
N146 C145 1.347 . S
C147 C150 1.365 . S
C147 N152 1.328 . S
C147 H153 0.929 . S
C148 C149 1.362 . S
C148 C151 1.378 . S
C148 H163 0.929 . S
C149 C148 1.362 . S
C149 C150 1.366 . S
C150 C147 1.365 . S
C150 C149 1.366 . S
C150 H164 0.930 . S
C151 C148 1.378 . S
C151 N152 1.315 . S
C151 H154 0.930 . S
N152 Co132 2.194 . S
N152 C147 1.328 . S
N152 C151 1.315 . S
H153 C147 0.929 . S
H154 C151 0.930 . S
H155 C143 0.929 . S
H156 C145 0.929 . S
O157 Co132 2.351 . S
O157 C160 1.244 . S
O158 Co132 2.155 . S
O158 C160 1.240 . S
O159 Co132 2.096 . S
O159 C140 1.247 . S
C160 O157 1.244 . S
C160 O158 1.240 . S
H161 C135 0.931 . S
H162 C144 0.931 . S
H163 C148 0.929 . S
H164 C150 0.930 . S
Co165 N169 2.148 . S
Co165 N175 2.128 . S
Co165 N185 2.194 . S
Co165 O190 2.351 . S
Co165 O191 2.155 . S
Co165 O192 2.096 . S
C166 N169 1.301 . S
C166 N170 1.328 1_455 S
C166 H171 0.930 . S
C167 C168 1.333 . S
C167 N169 1.317 . S
C167 H172 0.930 . S
C168 C167 1.333 . S
C168 N170 1.350 1_455 S
C168 H194 0.944 . S
N169 Co165 2.148 . S
N169 C166 1.301 . S
N169 C167 1.317 . S
N170 C166 1.328 1_655 S
N170 C168 1.350 1_655 S
H171 C166 0.930 . S
H172 C167 0.930 . S
C173 O174 1.224 . S
C173 O192 1.247 . S
O174 C173 1.224 . S
N175 Co165 2.128 . S
N175 C176 1.355 . S
N175 C178 1.311 . S
C176 N175 1.355 . S
C176 C177 1.363 . S
C176 H188 0.929 . S
C177 C176 1.363 . S
C177 N179 1.375 . S
C177 H195 0.931 . S
C178 N175 1.311 . S
C178 N179 1.347 . S
C178 H189 0.929 . S
N179 C177 1.375 . S
N179 C178 1.347 . S
C180 C183 1.365 . S
C180 N185 1.328 . S
C180 H186 0.929 . S
C181 C182 1.362 . S
C181 C184 1.378 . S
C181 H196 0.929 . S
C182 C181 1.362 . S
C182 C183 1.366 . S
C183 C180 1.365 . S
C183 C182 1.366 . S
C183 H197 0.930 . S
C184 C181 1.378 . S
C184 N185 1.315 . S
C184 H187 0.930 . S
N185 Co165 2.194 . S
N185 C180 1.328 . S
N185 C184 1.315 . S
H186 C180 0.929 . S
H187 C184 0.930 . S
H188 C176 0.929 . S
H189 C178 0.929 . S
O190 Co165 2.351 . S
O190 C193 1.244 . S
O191 Co165 2.155 . S
O191 C193 1.240 . S
O192 Co165 2.096 . S
O192 C173 1.247 . S
C193 O190 1.244 . S
C193 O191 1.240 . S
H194 C168 0.944 . S
H195 C177 0.931 . S
H196 C181 0.929 . S
H197 C183 0.930 . S
Co198 N202 2.148 . S
Co198 N208 2.128 . S
Co198 N218 2.194 1_655 S
Co198 O223 2.351 1_655 S
Co198 O224 2.155 . S
Co198 O225 2.096 . S
C199 N202 1.301 . S
C199 N203 1.328 1_545 S
C199 H204 0.930 . S
C200 C201 1.333 . S
C200 N202 1.317 . S
C200 H205 0.930 . S
C201 C200 1.333 . S
C201 N203 1.350 1_545 S
C201 H227 0.944 . S
N202 Co198 2.148 . S
N202 C199 1.301 . S
N202 C200 1.317 . S
N203 C199 1.328 1_565 S
N203 C201 1.350 1_565 S
H204 C199 0.930 . S
H205 C200 0.930 . S
C206 O207 1.224 . S
C206 O225 1.247 . S
O207 C206 1.224 . S
N208 Co198 2.128 . S
N208 C209 1.355 1_655 S
N208 C211 1.311 . S
C209 N208 1.355 1_455 S
C209 C210 1.363 . S
C209 H221 0.929 . S
C210 C209 1.363 . S
C210 N212 1.375 . S
C210 H228 0.931 . S
C211 N208 1.311 . S
C211 N212 1.347 1_655 S
C211 H222 0.929 . S
N212 C210 1.375 . S
N212 C211 1.347 1_455 S
C213 C216 1.365 . S
C213 N218 1.328 . S
C213 H219 0.929 . S
C214 C215 1.362 . S
C214 C217 1.378 1_455 S
C214 H229 0.929 1_455 S
C215 C214 1.362 . S
C215 C216 1.366 . S
C216 C213 1.365 . S
C216 C215 1.366 . S
C216 H230 0.930 . S
C217 C214 1.378 1_655 S
C217 N218 1.315 1_655 S
C217 H220 0.930 . S
N218 Co198 2.194 1_455 S
N218 C213 1.328 . S
N218 C217 1.315 1_455 S
H219 C213 0.929 . S
H220 C217 0.930 . S
H221 C209 0.929 . S
H222 C211 0.929 . S
O223 Co198 2.351 1_455 S
O223 C226 1.244 . S
O224 Co198 2.155 . S
O224 C226 1.240 1_655 S
O225 Co198 2.096 . S
O225 C206 1.247 . S
C226 O223 1.244 . S
C226 O224 1.240 1_455 S
H227 C201 0.944 . S
H228 C210 0.931 . S
H229 C214 0.929 1_655 S
H230 C216 0.930 . S
Co231 N235 2.148 . S
Co231 N241 2.128 . S
Co231 N251 2.194 1_565 S
Co231 O256 2.351 1_565 S
Co231 O257 2.155 . S
Co231 O258 2.096 . S
C232 N235 1.301 . S
C232 N236 1.328 . S
C232 H237 0.930 . S
C233 C234 1.333 . S
C233 N235 1.317 . S
C233 H238 0.930 . S
C234 C233 1.333 . S
C234 N236 1.350 . S
C234 H260 0.931 . S
N235 Co231 2.148 . S
N235 C232 1.301 . S
N235 C233 1.317 . S
N236 C232 1.328 . S
N236 C234 1.350 . S
H237 C232 0.930 . S
H238 C233 0.930 . S
C239 O240 1.224 . S
C239 O258 1.247 . S
O240 C239 1.224 . S
N241 Co231 2.128 . S
N241 C242 1.355 1_565 S
N241 C244 1.311 . S
C242 N241 1.355 1_545 S
C242 C243 1.363 . S
C242 H254 0.929 . S
C243 C242 1.363 . S
C243 N245 1.375 . S
C243 H261 0.931 . S
C244 N241 1.311 . S
C244 N245 1.347 1_565 S
C244 H255 0.929 . S
N245 C243 1.375 . S
N245 C244 1.347 1_545 S
C246 C249 1.365 . S
C246 N251 1.328 . S
C246 H252 0.929 . S
C247 C248 1.362 . S
C247 C250 1.378 1_545 S
C247 H262 0.929 1_545 S
C248 C247 1.362 . S
C248 C249 1.366 . S
C249 C246 1.365 . S
C249 C248 1.366 . S
C249 H263 0.930 . S
C250 C247 1.378 1_565 S
C250 N251 1.315 1_565 S
C250 H253 0.930 . S
N251 Co231 2.194 1_545 S
N251 C246 1.328 . S
N251 C250 1.315 1_545 S
H252 C246 0.929 . S
H253 C250 0.930 . S
H254 C242 0.929 . S
H255 C244 0.929 . S
O256 Co231 2.351 1_545 S
O256 C259 1.244 . S
O257 Co231 2.155 . S
O257 C259 1.240 1_565 S
O258 Co231 2.096 . S
O258 C239 1.247 . S
C259 O256 1.244 . S
C259 O257 1.240 1_545 S
H260 C234 0.931 . S
H261 C243 0.931 . S
H262 C247 0.929 1_565 S
H263 C249 0.930 . S
Co264 N268 2.148 . S
Co264 N274 2.128 . S
Co264 N284 2.194 . S
Co264 O289 2.351 . S
Co264 O290 2.155 . S
Co264 O291 2.096 . S
C265 N268 1.301 . S
C265 N269 1.328 1_565 S
C265 H270 0.930 . S
C266 C267 1.333 . S
C266 N268 1.317 . S
C266 H271 0.930 . S
C267 C266 1.333 . S
C267 N269 1.350 1_565 S
C267 H293 0.944 . S
N268 Co264 2.148 . S
N268 C265 1.301 . S
N268 C266 1.317 . S
N269 C265 1.328 1_545 S
N269 C267 1.350 1_545 S
H270 C265 0.930 . S
H271 C266 0.930 . S
C272 O273 1.224 . S
C272 O291 1.247 . S
O273 C272 1.224 . S
N274 Co264 2.128 . S
N274 C275 1.355 . S
N274 C277 1.311 . S
C275 N274 1.355 . S
C275 C276 1.363 . S
C275 H287 0.929 . S
C276 C275 1.363 . S
C276 N278 1.375 . S
C276 H294 0.931 . S
C277 N274 1.311 . S
C277 N278 1.347 . S
C277 H288 0.929 . S
N278 C276 1.375 . S
N278 C277 1.347 . S
C279 C282 1.365 . S
C279 N284 1.328 . S
C279 H285 0.929 . S
C280 C281 1.362 . S
C280 C283 1.378 . S
C280 H295 0.929 . S
C281 C280 1.362 . S
C281 C282 1.366 . S
C282 C279 1.365 . S
C282 C281 1.366 . S
C282 H296 0.930 . S
C283 C280 1.378 . S
C283 N284 1.315 . S
C283 H286 0.930 . S
N284 Co264 2.194 . S
N284 C279 1.328 . S
N284 C283 1.315 . S
H285 C279 0.929 . S
H286 C283 0.930 . S
H287 C275 0.929 . S
H288 C277 0.929 . S
O289 Co264 2.351 . S
O289 C292 1.244 . S
O290 Co264 2.155 . S
O290 C292 1.240 . S
O291 Co264 2.096 . S
O291 C272 1.247 . S
C292 O289 1.244 . S
C292 O290 1.240 . S
H293 C267 0.944 . S
H294 C276 0.931 . S
H295 C280 0.929 . S
H296 C282 0.930 . S
Co297 N301 2.148 . S
Co297 N307 2.128 . S
Co297 N317 2.194 . S
Co297 O322 2.351 . S
Co297 O323 2.155 . S
Co297 O324 2.096 . S
C298 N301 1.301 . S
C298 N302 1.328 . S
C298 H303 0.930 . S
C299 C300 1.333 . S
C299 N301 1.317 . S
C299 H304 0.930 . S
C300 C299 1.333 . S
C300 N302 1.350 . S
C300 H326 0.931 . S
N301 Co297 2.148 . S
N301 C298 1.301 . S
N301 C299 1.317 . S
N302 C298 1.328 . S
N302 C300 1.350 . S
H303 C298 0.930 . S
H304 C299 0.930 . S
C305 O306 1.224 . S
C305 O324 1.247 . S
O306 C305 1.224 . S
N307 Co297 2.128 . S
N307 C308 1.355 . S
N307 C310 1.311 . S
C308 N307 1.355 . S
C308 C309 1.363 . S
C308 H320 0.929 . S
C309 C308 1.363 . S
C309 N311 1.375 . S
C309 H327 0.931 . S
C310 N307 1.311 . S
C310 N311 1.347 . S
C310 H321 0.929 . S
N311 C309 1.375 . S
N311 C310 1.347 . S
C312 C315 1.365 . S
C312 N317 1.328 . S
C312 H318 0.929 . S
C313 C314 1.362 . S
C313 C316 1.378 . S
C313 H328 0.929 . S
C314 C313 1.362 . S
C314 C315 1.366 . S
C315 C312 1.365 . S
C315 C314 1.366 . S
C315 H329 0.930 . S
C316 C313 1.378 . S
C316 N317 1.315 . S
C316 H319 0.930 . S
N317 Co297 2.194 . S
N317 C312 1.328 . S
N317 C316 1.315 . S
H318 C312 0.929 . S
H319 C316 0.930 . S
H320 C308 0.929 . S
H321 C310 0.929 . S
O322 Co297 2.351 . S
O322 C325 1.244 . S
O323 Co297 2.155 . S
O323 C325 1.240 . S
O324 Co297 2.096 . S
O324 C305 1.247 . S
C325 O322 1.244 . S
C325 O323 1.240 . S
H326 C300 0.931 . S
H327 C309 0.931 . S
H328 C313 0.929 . S
H329 C315 0.930 . S
Co330 N334 2.148 . S
Co330 N340 2.128 . S
Co330 N350 2.194 1_455 S
Co330 O355 2.351 1_455 S
Co330 O356 2.155 . S
Co330 O357 2.096 . S
C331 N334 1.301 . S
C331 N335 1.328 . S
C331 H336 0.930 . S
C332 C333 1.333 . S
C332 N334 1.317 . S
C332 H337 0.930 . S
C333 C332 1.333 . S
C333 N335 1.350 . S
C333 H359 0.931 . S
N334 Co330 2.148 . S
N334 C331 1.301 . S
N334 C332 1.317 . S
N335 C331 1.328 . S
N335 C333 1.350 . S
H336 C331 0.930 . S
H337 C332 0.930 . S
C338 O339 1.224 . S
C338 O357 1.247 . S
O339 C338 1.224 . S
N340 Co330 2.128 . S
N340 C341 1.355 1_455 S
N340 C343 1.311 . S
C341 N340 1.355 1_655 S
C341 C342 1.363 . S
C341 H353 0.929 . S
C342 C341 1.363 . S
C342 N344 1.375 . S
C342 H360 0.931 . S
C343 N340 1.311 . S
C343 N344 1.347 1_455 S
C343 H354 0.929 . S
N344 C342 1.375 . S
N344 C343 1.347 1_655 S
C345 C348 1.365 . S
C345 N350 1.328 . S
C345 H351 0.929 . S
C346 C347 1.362 . S
C346 C349 1.378 1_655 S
C346 H361 0.929 1_655 S
C347 C346 1.362 . S
C347 C348 1.366 . S
C348 C345 1.365 . S
C348 C347 1.366 . S
C348 H362 0.930 . S
C349 C346 1.378 1_455 S
C349 N350 1.315 1_455 S
C349 H352 0.930 . S
N350 Co330 2.194 1_655 S
N350 C345 1.328 . S
N350 C349 1.315 1_655 S
H351 C345 0.929 . S
H352 C349 0.930 . S
H353 C341 0.929 . S
H354 C343 0.929 . S
O355 Co330 2.351 1_655 S
O355 C358 1.244 . S
O356 Co330 2.155 . S
O356 C358 1.240 1_455 S
O357 Co330 2.096 . S
O357 C338 1.247 . S
C358 O355 1.244 . S
C358 O356 1.240 1_655 S
H359 C333 0.931 . S
H360 C342 0.931 . S
H361 C346 0.929 1_455 S
H362 C348 0.930 . S
Co363 N367 2.148 . S
Co363 N373 2.128 . S
Co363 N383 2.194 1_545 S
Co363 O388 2.351 1_545 S
Co363 O389 2.155 . S
Co363 O390 2.096 . S
C364 N367 1.301 . S
C364 N368 1.328 1_655 S
C364 H369 0.930 . S
C365 C366 1.333 . S
C365 N367 1.317 . S
C365 H370 0.930 . S
C366 C365 1.333 . S
C366 N368 1.350 1_655 S
C366 H392 0.944 . S
N367 Co363 2.148 . S
N367 C364 1.301 . S
N367 C365 1.317 . S
N368 C364 1.328 1_455 S
N368 C366 1.350 1_455 S
H369 C364 0.930 . S
H370 C365 0.930 . S
C371 O372 1.224 . S
C371 O390 1.247 . S
O372 C371 1.224 . S
N373 Co363 2.128 . S
N373 C374 1.355 1_545 S
N373 C376 1.311 . S
C374 N373 1.355 1_565 S
C374 C375 1.363 . S
C374 H386 0.929 . S
C375 C374 1.363 . S
C375 N377 1.375 . S
C375 H393 0.931 . S
C376 N373 1.311 . S
C376 N377 1.347 1_545 S
C376 H387 0.929 . S
N377 C375 1.375 . S
N377 C376 1.347 1_565 S
C378 C381 1.365 . S
C378 N383 1.328 . S
C378 H384 0.929 . S
C379 C380 1.362 . S
C379 C382 1.378 1_565 S
C379 H394 0.929 1_565 S
C380 C379 1.362 . S
C380 C381 1.366 . S
C381 C378 1.365 . S
C381 C380 1.366 . S
C381 H395 0.930 . S
C382 C379 1.378 1_545 S
C382 N383 1.315 1_545 S
C382 H385 0.930 . S
N383 Co363 2.194 1_565 S
N383 C378 1.328 . S
N383 C382 1.315 1_565 S
H384 C378 0.929 . S
H385 C382 0.930 . S
H386 C374 0.929 . S
H387 C376 0.929 . S
O388 Co363 2.351 1_565 S
O388 C391 1.244 . S
O389 Co363 2.155 . S
O389 C391 1.240 1_545 S
O390 Co363 2.096 . S
O390 C371 1.247 . S
C391 O388 1.244 . S
C391 O389 1.240 1_565 S
H392 C366 0.944 . S
H393 C375 0.931 . S
H394 C379 0.929 1_545 S
H395 C381 0.930 . S
Co396 N400 2.148 . S
Co396 N406 2.128 . S
Co396 N416 2.194 . S
Co396 O421 2.351 . S
Co396 O422 2.155 . S
Co396 O423 2.096 . S
C397 N400 1.301 . S
C397 N401 1.328 . S
C397 H402 0.930 . S
C398 C399 1.333 . S
C398 N400 1.317 . S
C398 H403 0.930 . S
C399 C398 1.333 . S
C399 N401 1.350 . S
C399 H425 0.931 . S
N400 Co396 2.148 . S
N400 C397 1.301 . S
N400 C398 1.317 . S
N401 C397 1.328 . S
N401 C399 1.350 . S
H402 C397 0.930 . S
H403 C398 0.930 . S
C404 O405 1.224 . S
C404 O423 1.247 . S
O405 C404 1.224 . S
N406 Co396 2.128 . S
N406 C407 1.355 . S
N406 C409 1.311 . S
C407 N406 1.355 . S
C407 C408 1.363 . S
C407 H419 0.929 . S
C408 C407 1.363 . S
C408 N410 1.375 . S
C408 H426 0.931 . S
C409 N406 1.311 . S
C409 N410 1.347 . S
C409 H420 0.929 . S
N410 C408 1.375 . S
N410 C409 1.347 . S
C411 C414 1.365 . S
C411 N416 1.328 . S
C411 H417 0.929 . S
C412 C413 1.362 . S
C412 C415 1.378 . S
C412 H427 0.929 . S
C413 C412 1.362 . S
C413 C414 1.366 . S
C414 C411 1.365 . S
C414 C413 1.366 . S
C414 H428 0.930 . S
C415 C412 1.378 . S
C415 N416 1.315 . S
C415 H418 0.930 . S
N416 Co396 2.194 . S
N416 C411 1.328 . S
N416 C415 1.315 . S
H417 C411 0.929 . S
H418 C415 0.930 . S
H419 C407 0.929 . S
H420 C409 0.929 . S
O421 Co396 2.351 . S
O421 C424 1.244 . S
O422 Co396 2.155 . S
O422 C424 1.240 . S
O423 Co396 2.096 . S
O423 C404 1.247 . S
C424 O421 1.244 . S
C424 O422 1.240 . S
H425 C399 0.931 . S
H426 C408 0.931 . S
H427 C412 0.929 . S
H428 C414 0.930 . S
Co429 N433 2.148 . S
Co429 N439 2.128 . S
Co429 N449 2.194 . S
Co429 O454 2.351 . S
Co429 O455 2.155 . S
Co429 O456 2.096 . S
C430 N433 1.301 . S
C430 N434 1.328 1_655 S
C430 H435 0.930 . S
C431 C432 1.333 . S
C431 N433 1.317 . S
C431 H436 0.930 . S
C432 C431 1.333 . S
C432 N434 1.350 1_655 S
C432 H458 0.944 . S
N433 Co429 2.148 . S
N433 C430 1.301 . S
N433 C431 1.317 . S
N434 C430 1.328 1_455 S
N434 C432 1.350 1_455 S
H435 C430 0.930 . S
H436 C431 0.930 . S
C437 O438 1.224 . S
C437 O456 1.247 . S
O438 C437 1.224 . S
N439 Co429 2.128 . S
N439 C440 1.355 . S
N439 C442 1.311 . S
C440 N439 1.355 . S
C440 C441 1.363 . S
C440 H452 0.929 . S
C441 C440 1.363 . S
C441 N443 1.375 . S
C441 H459 0.931 . S
C442 N439 1.311 . S
C442 N443 1.347 . S
C442 H453 0.929 . S
N443 C441 1.375 . S
N443 C442 1.347 . S
C444 C447 1.365 . S
C444 N449 1.328 . S
C444 H450 0.929 . S
C445 C446 1.362 . S
C445 C448 1.378 . S
C445 H460 0.929 . S
C446 C445 1.362 . S
C446 C447 1.366 . S
C447 C444 1.365 . S
C447 C446 1.366 . S
C447 H461 0.930 . S
C448 C445 1.378 . S
C448 N449 1.315 . S
C448 H451 0.930 . S
N449 Co429 2.194 . S
N449 C444 1.328 . S
N449 C448 1.315 . S
H450 C444 0.929 . S
H451 C448 0.930 . S
H452 C440 0.929 . S
H453 C442 0.929 . S
O454 Co429 2.351 . S
O454 C457 1.244 . S
O455 Co429 2.155 . S
O455 C457 1.240 . S
O456 Co429 2.096 . S
O456 C437 1.247 . S
C457 O454 1.244 . S
C457 O455 1.240 . S
H458 C432 0.944 . S
H459 C441 0.931 . S
H460 C445 0.929 . S
H461 C447 0.930 . S
Co462 N466 2.148 . S
Co462 N472 2.128 . S
Co462 N482 2.194 1_455 S
Co462 O487 2.351 1_455 S
Co462 O488 2.155 . S
Co462 O489 2.096 . S
C463 N466 1.301 . S
C463 N467 1.328 1_565 S
C463 H468 0.930 . S
C464 C465 1.333 . S
C464 N466 1.317 . S
C464 H469 0.930 . S
C465 C464 1.333 . S
C465 N467 1.350 1_565 S
C465 H491 0.944 . S
N466 Co462 2.148 . S
N466 C463 1.301 . S
N466 C464 1.317 . S
N467 C463 1.328 1_545 S
N467 C465 1.350 1_545 S
H468 C463 0.930 . S
H469 C464 0.930 . S
C470 O471 1.224 . S
C470 O489 1.247 . S
O471 C470 1.224 . S
N472 Co462 2.128 . S
N472 C473 1.355 1_455 S
N472 C475 1.311 . S
C473 N472 1.355 1_655 S
C473 C474 1.363 . S
C473 H485 0.929 . S
C474 C473 1.363 . S
C474 N476 1.375 . S
C474 H492 0.931 . S
C475 N472 1.311 . S
C475 N476 1.347 1_455 S
C475 H486 0.929 . S
N476 C474 1.375 . S
N476 C475 1.347 1_655 S
C477 C480 1.365 . S
C477 N482 1.328 . S
C477 H483 0.929 . S
C478 C479 1.362 . S
C478 C481 1.378 1_655 S
C478 H493 0.929 1_655 S
C479 C478 1.362 . S
C479 C480 1.366 . S
C480 C477 1.365 . S
C480 C479 1.366 . S
C480 H494 0.930 . S
C481 C478 1.378 1_455 S
C481 N482 1.315 1_455 S
C481 H484 0.930 . S
N482 Co462 2.194 1_655 S
N482 C477 1.328 . S
N482 C481 1.315 1_655 S
H483 C477 0.929 . S
H484 C481 0.930 . S
H485 C473 0.929 . S
H486 C475 0.929 . S
O487 Co462 2.351 1_655 S
O487 C490 1.244 . S
O488 Co462 2.155 . S
O488 C490 1.240 1_455 S
O489 Co462 2.096 . S
O489 C470 1.247 . S
C490 O487 1.244 . S
C490 O488 1.240 1_655 S
H491 C465 0.944 . S
H492 C474 0.931 . S
H493 C478 0.929 1_455 S
H494 C480 0.930 . S
Co495 N499 2.148 . S
Co495 N505 2.128 . S
Co495 N515 2.194 1_545 S
Co495 O520 2.351 1_545 S
Co495 O521 2.155 . S
Co495 O522 2.096 . S
C496 N499 1.301 . S
C496 N500 1.328 . S
C496 H501 0.930 . S
C497 C498 1.333 . S
C497 N499 1.317 . S
C497 H502 0.930 . S
C498 C497 1.333 . S
C498 N500 1.350 . S
C498 H524 0.931 . S
N499 Co495 2.148 . S
N499 C496 1.301 . S
N499 C497 1.317 . S
N500 C496 1.328 . S
N500 C498 1.350 . S
H501 C496 0.930 . S
H502 C497 0.930 . S
C503 O504 1.224 . S
C503 O522 1.247 . S
O504 C503 1.224 . S
N505 Co495 2.128 . S
N505 C506 1.355 1_545 S
N505 C508 1.311 . S
C506 N505 1.355 1_565 S
C506 C507 1.363 . S
C506 H518 0.929 . S
C507 C506 1.363 . S
C507 N509 1.375 . S
C507 H525 0.931 . S
C508 N505 1.311 . S
C508 N509 1.347 1_545 S
C508 H519 0.929 . S
N509 C507 1.375 . S
N509 C508 1.347 1_565 S
C510 C513 1.365 . S
C510 N515 1.328 . S
C510 H516 0.929 . S
C511 C512 1.362 . S
C511 C514 1.378 1_565 S
C511 H526 0.929 1_565 S
C512 C511 1.362 . S
C512 C513 1.366 . S
C513 C510 1.365 . S
C513 C512 1.366 . S
C513 H527 0.930 . S
C514 C511 1.378 1_545 S
C514 N515 1.315 1_545 S
C514 H517 0.930 . S
N515 Co495 2.194 1_565 S
N515 C510 1.328 . S
N515 C514 1.315 1_565 S
H516 C510 0.929 . S
H517 C514 0.930 . S
H518 C506 0.929 . S
H519 C508 0.929 . S
O520 Co495 2.351 1_565 S
O520 C523 1.244 . S
O521 Co495 2.155 . S
O521 C523 1.240 1_545 S
O522 Co495 2.096 . S
O522 C503 1.247 . S
C523 O520 1.244 . S
C523 O521 1.240 1_565 S
H524 C498 0.931 . S
H525 C507 0.931 . S
H526 C511 0.929 1_545 S
H527 C513 0.930 . S
H528 C534 0.930 . S
H529 C538 0.930 . S
H530 C543 0.929 . S
H531 C541 0.929 . S
H532 C536 0.929 . S
H533 C542 0.929 . S
C534 H528 0.930 . S
C534 C535 1.367 . S
C534 C542 1.378 . S
C535 C534 1.367 . S
C535 C543 1.433 . S
C536 H532 0.929 . S
C536 C538 1.378 . S
C536 C540 1.350 . S
C537 C540 1.463 . S
C537 C542 1.350 . S
C537 N545 1.427 . S
C538 H529 0.930 . S
C538 C536 1.378 . S
C538 C539 1.367 . S
C539 C538 1.367 . S
C539 C541 1.433 . S
C540 C536 1.350 . S
C540 C537 1.463 . S
C540 N544 1.427 . S
C541 H531 0.929 . S
C541 C539 1.433 . S
C541 N544 1.384 . S
C542 H533 0.929 . S
C542 C534 1.378 . S
C542 C537 1.350 . S
C543 H530 0.929 . S
C543 C535 1.433 . S
C543 N545 1.384 . S
N544 C540 1.427 . S
N544 C541 1.384 . S
N545 C537 1.427 . S
N545 C543 1.384 . S
H546 C552 0.930 . S
H547 C556 0.930 . S
H548 C561 0.929 . S
H549 C559 0.929 . S
H550 C554 0.929 . S
H551 C560 0.929 . S
C552 H546 0.930 . S
C552 C553 1.367 . S
C552 C560 1.378 . S
C553 C552 1.367 . S
C553 C561 1.433 . S
C554 H550 0.929 . S
C554 C556 1.378 . S
C554 C558 1.350 . S
C555 C558 1.463 . S
C555 C560 1.350 . S
C555 N563 1.427 . S
C556 H547 0.930 . S
C556 C554 1.378 . S
C556 C557 1.367 . S
C557 C556 1.367 . S
C557 C559 1.433 . S
C558 C554 1.350 . S
C558 C555 1.463 . S
C558 N562 1.427 . S
C559 H549 0.929 . S
C559 C557 1.433 . S
C559 N562 1.384 . S
C560 H551 0.929 . S
C560 C552 1.378 . S
C560 C555 1.350 . S
C561 H548 0.929 . S
C561 C553 1.433 . S
C561 N563 1.384 . S
N562 C558 1.427 . S
N562 C559 1.384 . S
N563 C555 1.427 . S
N563 C561 1.384 . S
H564 C570 0.930 . S
H565 C574 0.930 . S
H566 C579 0.929 . S
H567 C577 0.929 . S
H568 C572 0.929 . S
H569 C578 0.929 . S
C570 H564 0.930 . S
C570 C571 1.367 . S
C570 C578 1.378 . S
C571 C570 1.367 . S
C571 C579 1.433 . S
C572 H568 0.929 . S
C572 C574 1.378 . S
C572 C576 1.350 . S
C573 C576 1.463 . S
C573 C578 1.350 . S
C573 N581 1.427 . S
C574 H565 0.930 . S
C574 C572 1.378 . S
C574 C575 1.367 . S
C575 C574 1.367 . S
C575 C577 1.433 . S
C576 C572 1.350 . S
C576 C573 1.463 . S
C576 N580 1.427 . S
C577 H567 0.929 . S
C577 C575 1.433 . S
C577 N580 1.384 . S
C578 H569 0.929 . S
C578 C570 1.378 . S
C578 C573 1.350 . S
C579 H566 0.929 . S
C579 C571 1.433 . S
C579 N581 1.384 . S
N580 C576 1.427 . S
N580 C577 1.384 . S
N581 C573 1.427 . S
N581 C579 1.384 . S
H582 C588 0.930 . S
H583 C592 0.930 . S
H584 C597 0.929 . S
H585 C595 0.929 . S
H586 C590 0.929 . S
H587 C596 0.929 . S
C588 H582 0.930 . S
C588 C589 1.367 . S
C588 C596 1.378 . S
C589 C588 1.367 . S
C589 C597 1.433 . S
C590 H586 0.929 . S
C590 C592 1.378 . S
C590 C594 1.350 . S
C591 C594 1.463 . S
C591 C596 1.350 . S
C591 N599 1.427 . S
C592 H583 0.930 . S
C592 C590 1.378 . S
C592 C593 1.367 . S
C593 C592 1.367 . S
C593 C595 1.433 . S
C594 C590 1.350 . S
C594 C591 1.463 . S
C594 N598 1.427 . S
C595 H585 0.929 . S
C595 C593 1.433 . S
C595 N598 1.384 . S
C596 H587 0.929 . S
C596 C588 1.378 . S
C596 C591 1.350 . S
C597 H584 0.929 . S
C597 C589 1.433 . S
C597 N599 1.384 . S
N598 C594 1.427 . S
N598 C595 1.384 . S
N599 C591 1.427 . S
N599 C597 1.384 . S
H600 C606 0.930 . S
H601 C610 0.930 . S
H602 C615 0.929 . S
H603 C613 0.929 . S
H604 C608 0.929 . S
H605 C614 0.929 . S
C606 H600 0.930 . S
C606 C607 1.367 . S
C606 C614 1.378 . S
C607 C606 1.367 . S
C607 C615 1.433 . S
C608 H604 0.929 . S
C608 C610 1.378 . S
C608 C612 1.350 . S
C609 C612 1.463 . S
C609 C614 1.350 . S
C609 N617 1.427 . S
C610 H601 0.930 . S
C610 C608 1.378 . S
C610 C611 1.367 . S
C611 C610 1.367 . S
C611 C613 1.433 . S
C612 C608 1.350 . S
C612 C609 1.463 . S
C612 N616 1.427 . S
C613 H603 0.929 . S
C613 C611 1.433 . S
C613 N616 1.384 . S
C614 H605 0.929 . S
C614 C606 1.378 . S
C614 C609 1.350 . S
C615 H602 0.929 . S
C615 C607 1.433 . S
C615 N617 1.384 . S
N616 C612 1.427 . S
N616 C613 1.384 . S
N617 C609 1.427 . S
N617 C615 1.384 . S
H618 C624 0.930 . S
H619 C628 0.930 . S
H620 C633 0.929 . S
H621 C631 0.929 . S
H622 C626 0.929 . S
H623 C632 0.929 . S
C624 H618 0.930 . S
C624 C625 1.367 . S
C624 C632 1.378 . S
C625 C624 1.367 . S
C625 C633 1.433 . S
C626 H622 0.929 . S
C626 C628 1.378 . S
C626 C630 1.350 . S
C627 C630 1.463 . S
C627 C632 1.350 . S
C627 N635 1.427 . S
C628 H619 0.930 . S
C628 C626 1.378 . S
C628 C629 1.367 . S
C629 C628 1.367 . S
C629 C631 1.433 . S
C630 C626 1.350 . S
C630 C627 1.463 . S
C630 N634 1.427 . S
C631 H621 0.929 . S
C631 C629 1.433 . S
C631 N634 1.384 . S
C632 H623 0.929 . S
C632 C624 1.378 . S
C632 C627 1.350 . S
C633 H620 0.929 . S
C633 C625 1.433 . S
C633 N635 1.384 . S
N634 C630 1.427 . S
N634 C631 1.384 . S
N635 C627 1.427 . S
N635 C633 1.384 . S
H636 C642 0.930 . S
H637 C646 0.930 . S
H638 C651 0.929 . S
H639 C649 0.929 . S
H640 C644 0.929 . S
H641 C650 0.929 . S
C642 H636 0.930 . S
C642 C643 1.367 . S
C642 C650 1.378 . S
C643 C642 1.367 . S
C643 C651 1.433 . S
C644 H640 0.929 . S
C644 C646 1.378 . S
C644 C648 1.350 . S
C645 C648 1.463 . S
C645 C650 1.350 . S
C645 N653 1.427 . S
C646 H637 0.930 . S
C646 C644 1.378 . S
C646 C647 1.367 . S
C647 C646 1.367 . S
C647 C649 1.433 . S
C648 C644 1.350 . S
C648 C645 1.463 . S
C648 N652 1.427 . S
C649 H639 0.929 . S
C649 C647 1.433 . S
C649 N652 1.384 . S
C650 H641 0.929 . S
C650 C642 1.378 . S
C650 C645 1.350 . S
C651 H638 0.929 . S
C651 C643 1.433 . S
C651 N653 1.384 . S
N652 C648 1.427 . S
N652 C649 1.384 . S
N653 C645 1.427 . S
N653 C651 1.384 . S
H654 C660 0.930 . S
H655 C664 0.930 . S
H656 C669 0.929 . S
H657 C667 0.929 . S
H658 C662 0.929 . S
H659 C668 0.929 . S
C660 H654 0.930 . S
C660 C661 1.367 . S
C660 C668 1.378 . S
C661 C660 1.367 . S
C661 C669 1.433 . S
C662 H658 0.929 . S
C662 C664 1.378 . S
C662 C666 1.350 . S
C663 C666 1.463 . S
C663 C668 1.350 . S
C663 N671 1.427 . S
C664 H655 0.930 . S
C664 C662 1.378 . S
C664 C665 1.367 . S
C665 C664 1.367 . S
C665 C667 1.433 . S
C666 C662 1.350 . S
C666 C663 1.463 . S
C666 N670 1.427 . S
C667 H657 0.929 . S
C667 C665 1.433 . S
C667 N670 1.384 . S
C668 H659 0.929 . S
C668 C660 1.378 . S
C668 C663 1.350 . S
C669 H656 0.929 . S
C669 C661 1.433 . S
C669 N671 1.384 . S
N670 C666 1.427 . S
N670 C667 1.384 . S
N671 C663 1.427 . S
N671 C669 1.384 . S
H672 C678 0.930 . S
H673 C682 0.930 . S
H674 C687 0.929 . S
H675 C685 0.929 . S
H676 C680 0.929 . S
H677 C686 0.929 . S
C678 H672 0.930 . S
C678 C679 1.367 . S
C678 C686 1.378 . S
C679 C678 1.367 . S
C679 C687 1.433 . S
C680 H676 0.929 . S
C680 C682 1.378 . S
C680 C684 1.350 . S
C681 C684 1.463 . S
C681 C686 1.350 . S
C681 N689 1.427 . S
C682 H673 0.930 . S
C682 C680 1.378 . S
C682 C683 1.367 . S
C683 C682 1.367 . S
C683 C685 1.433 . S
C684 C680 1.350 . S
C684 C681 1.463 . S
C684 N688 1.427 . S
C685 H675 0.929 . S
C685 C683 1.433 . S
C685 N688 1.384 . S
C686 H677 0.929 . S
C686 C678 1.378 . S
C686 C681 1.350 . S
C687 H674 0.929 . S
C687 C679 1.433 . S
C687 N689 1.384 . S
N688 C684 1.427 . S
N688 C685 1.384 . S
N689 C681 1.427 . S
N689 C687 1.384 . S
H690 C696 0.930 . S
H691 C700 0.930 . S
H692 C705 0.929 . S
H693 C703 0.929 . S
H694 C698 0.929 . S
H695 C704 0.929 . S
C696 H690 0.930 . S
C696 C697 1.367 . S
C696 C704 1.378 . S
C697 C696 1.367 . S
C697 C705 1.433 . S
C698 H694 0.929 . S
C698 C700 1.378 . S
C698 C702 1.350 . S
C699 C702 1.463 . S
C699 C704 1.350 . S
C699 N707 1.427 . S
C700 H691 0.930 . S
C700 C698 1.378 . S
C700 C701 1.367 . S
C701 C700 1.367 . S
C701 C703 1.433 . S
C702 C698 1.350 . S
C702 C699 1.463 . S
C702 N706 1.427 . S
C703 H693 0.929 . S
C703 C701 1.433 . S
C703 N706 1.384 . S
C704 H695 0.929 . S
C704 C696 1.378 . S
C704 C699 1.350 . S
C705 H692 0.929 . S
C705 C697 1.433 . S
C705 N707 1.384 . S
N706 C702 1.427 . S
N706 C703 1.384 . S
N707 C699 1.427 . S
N707 C705 1.384 . S
H708 C714 0.930 . S
H709 C718 0.930 . S
H710 C723 0.929 . S
H711 C721 0.929 . S
H712 C716 0.929 . S
H713 C722 0.929 . S
C714 H708 0.930 . S
C714 C715 1.367 . S
C714 C722 1.378 . S
C715 C714 1.367 . S
C715 C723 1.433 . S
C716 H712 0.929 . S
C716 C718 1.378 . S
C716 C720 1.350 . S
C717 C720 1.463 . S
C717 C722 1.350 . S
C717 N725 1.427 . S
C718 H709 0.930 . S
C718 C716 1.378 . S
C718 C719 1.367 . S
C719 C718 1.367 . S
C719 C721 1.433 . S
C720 C716 1.350 . S
C720 C717 1.463 . S
C720 N724 1.427 . S
C721 H711 0.929 . S
C721 C719 1.433 . S
C721 N724 1.384 . S
C722 H713 0.929 . S
C722 C714 1.378 . S
C722 C717 1.350 . S
C723 H710 0.929 . S
C723 C715 1.433 . S
C723 N725 1.384 . S
N724 C720 1.427 . S
N724 C721 1.384 . S
N725 C717 1.427 . S
N725 C723 1.384 . S
H726 C732 0.930 . S
H727 C736 0.930 . S
H728 C741 0.929 . S
H729 C739 0.929 . S
H730 C734 0.929 . S
H731 C740 0.929 . S
C732 H726 0.930 . S
C732 C733 1.367 . S
C732 C740 1.378 . S
C733 C732 1.367 . S
C733 C741 1.433 . S
C734 H730 0.929 . S
C734 C736 1.378 . S
C734 C738 1.350 . S
C735 C738 1.463 . S
C735 C740 1.350 . S
C735 N743 1.427 . S
C736 H727 0.930 . S
C736 C734 1.378 . S
C736 C737 1.367 . S
C737 C736 1.367 . S
C737 C739 1.433 . S
C738 C734 1.350 . S
C738 C735 1.463 . S
C738 N742 1.427 . S
C739 H729 0.929 . S
C739 C737 1.433 . S
C739 N742 1.384 . S
C740 H731 0.929 . S
C740 C732 1.378 . S
C740 C735 1.350 . S
C741 H728 0.929 . S
C741 C733 1.433 . S
C741 N743 1.384 . S
N742 C738 1.427 . S
N742 C739 1.384 . S
N743 C735 1.427 . S
N743 C741 1.384 . S
H744 C750 0.930 . S
H745 C754 0.930 . S
H746 C759 0.929 . S
H747 C757 0.929 . S
H748 C752 0.929 . S
H749 C758 0.929 . S
C750 H744 0.930 . S
C750 C751 1.367 . S
C750 C758 1.378 . S
C751 C750 1.367 . S
C751 C759 1.433 . S
C752 H748 0.929 . S
C752 C754 1.378 . S
C752 C756 1.350 . S
C753 C756 1.463 . S
C753 C758 1.350 . S
C753 N761 1.427 . S
C754 H745 0.930 . S
C754 C752 1.378 . S
C754 C755 1.367 . S
C755 C754 1.367 . S
C755 C757 1.433 . S
C756 C752 1.350 . S
C756 C753 1.463 . S
C756 N760 1.427 . S
C757 H747 0.929 . S
C757 C755 1.433 . S
C757 N760 1.384 . S
C758 H749 0.929 . S
C758 C750 1.378 . S
C758 C753 1.350 . S
C759 H746 0.929 . S
C759 C751 1.433 . S
C759 N761 1.384 . S
N760 C756 1.427 . S
N760 C757 1.384 . S
N761 C753 1.427 . S
N761 C759 1.384 . S
H762 C768 0.930 . S
H763 C772 0.930 . S
H764 C777 0.929 . S
H765 C775 0.929 . S
H766 C770 0.929 . S
H767 C776 0.929 . S
C768 H762 0.930 . S
C768 C769 1.367 . S
C768 C776 1.378 . S
C769 C768 1.367 . S
C769 C777 1.433 . S
C770 H766 0.929 . S
C770 C772 1.378 . S
C770 C774 1.350 . S
C771 C774 1.463 . S
C771 C776 1.350 . S
C771 N779 1.427 . S
C772 H763 0.930 . S
C772 C770 1.378 . S
C772 C773 1.367 . S
C773 C772 1.367 . S
C773 C775 1.433 . S
C774 C770 1.350 . S
C774 C771 1.463 . S
C774 N778 1.427 . S
C775 H765 0.929 . S
C775 C773 1.433 . S
C775 N778 1.384 . S
C776 H767 0.929 . S
C776 C768 1.378 . S
C776 C771 1.350 . S
C777 H764 0.929 . S
C777 C769 1.433 . S
C777 N779 1.384 . S
N778 C774 1.427 . S
N778 C775 1.384 . S
N779 C771 1.427 . S
N779 C777 1.384 . S
H780 C786 0.930 . S
H781 C790 0.930 . S
H782 C795 0.929 . S
H783 C793 0.929 . S
H784 C788 0.929 . S
H785 C794 0.929 . S
C786 H780 0.930 . S
C786 C787 1.367 . S
C786 C794 1.378 . S
C787 C786 1.367 . S
C787 C795 1.433 . S
C788 H784 0.929 . S
C788 C790 1.378 . S
C788 C792 1.350 . S
C789 C792 1.463 . S
C789 C794 1.350 . S
C789 N797 1.427 . S
C790 H781 0.930 . S
C790 C788 1.378 . S
C790 C791 1.367 . S
C791 C790 1.367 . S
C791 C793 1.433 . S
C792 C788 1.350 . S
C792 C789 1.463 . S
C792 N796 1.427 . S
C793 H783 0.929 . S
C793 C791 1.433 . S
C793 N796 1.384 . S
C794 H785 0.929 . S
C794 C786 1.378 . S
C794 C789 1.350 . S
C795 H782 0.929 . S
C795 C787 1.433 . S
C795 N797 1.384 . S
N796 C792 1.427 . S
N796 C793 1.384 . S
N797 C789 1.427 . S
N797 C795 1.384 . S
H798 C804 0.930 . S
H799 C808 0.930 . S
H800 C813 0.929 . S
H801 C811 0.929 . S
H802 C806 0.929 . S
H803 C812 0.929 . S
C804 H798 0.930 . S
C804 C805 1.367 . S
C804 C812 1.378 . S
C805 C804 1.367 . S
C805 C813 1.433 . S
C806 H802 0.929 . S
C806 C808 1.378 . S
C806 C810 1.350 . S
C807 C810 1.463 . S
C807 C812 1.350 . S
C807 N815 1.427 . S
C808 H799 0.930 . S
C808 C806 1.378 . S
C808 C809 1.367 . S
C809 C808 1.367 . S
C809 C811 1.433 . S
C810 C806 1.350 . S
C810 C807 1.463 . S
C810 N814 1.427 . S
C811 H801 0.929 . S
C811 C809 1.433 . S
C811 N814 1.384 . S
C812 H803 0.929 . S
C812 C804 1.378 . S
C812 C807 1.350 . S
C813 H800 0.929 . S
C813 C805 1.433 . S
C813 N815 1.384 . S
N814 C810 1.427 . S
N814 C811 1.384 . S
N815 C807 1.427 . S
N815 C813 1.384 . S
H816 C822 0.930 . S
H817 C826 0.930 . S
H818 C831 0.929 . S
H819 C829 0.929 . S
H820 C824 0.929 . S
H821 C830 0.929 . S
C822 H816 0.930 . S
C822 C823 1.367 . S
C822 C830 1.378 . S
C823 C822 1.367 . S
C823 C831 1.433 . S
C824 H820 0.929 . S
C824 C826 1.378 . S
C824 C828 1.350 . S
C825 C828 1.463 . S
C825 C830 1.350 . S
C825 N833 1.427 . S
C826 H817 0.930 . S
C826 C824 1.378 . S
C826 C827 1.367 . S
C827 C826 1.367 . S
C827 C829 1.433 . S
C828 C824 1.350 . S
C828 C825 1.463 . S
C828 N832 1.427 . S
C829 H819 0.929 . S
C829 C827 1.433 . S
C829 N832 1.384 . S
C830 H821 0.929 . S
C830 C822 1.378 . S
C830 C825 1.350 . S
C831 H818 0.929 . S
C831 C823 1.433 . S
C831 N833 1.384 . S
N832 C828 1.427 . S
N832 C829 1.384 . S
N833 C825 1.427 . S
N833 C831 1.384 . S
H834 C840 0.930 . S
H835 C844 0.930 . S
H836 C849 0.929 . S
H837 C847 0.929 . S
H838 C842 0.929 . S
H839 C848 0.929 . S
C840 H834 0.930 . S
C840 C841 1.367 . S
C840 C848 1.378 . S
C841 C840 1.367 . S
C841 C849 1.433 . S
C842 H838 0.929 . S
C842 C844 1.378 . S
C842 C846 1.350 . S
C843 C846 1.463 . S
C843 C848 1.350 . S
C843 N851 1.427 . S
C844 H835 0.930 . S
C844 C842 1.378 . S
C844 C845 1.367 . S
C845 C844 1.367 . S
C845 C847 1.433 . S
C846 C842 1.350 . S
C846 C843 1.463 . S
C846 N850 1.427 . S
C847 H837 0.929 . S
C847 C845 1.433 . S
C847 N850 1.384 . S
C848 H839 0.929 . S
C848 C840 1.378 . S
C848 C843 1.350 . S
C849 H836 0.929 . S
C849 C841 1.433 . S
C849 N851 1.384 . S
N850 C846 1.427 . S
N850 C847 1.384 . S
N851 C843 1.427 . S
N851 C849 1.384 . S
H852 C858 0.930 . S
H853 C862 0.930 . S
H854 C867 0.929 . S
H855 C865 0.929 . S
H856 C860 0.929 . S
H857 C866 0.929 1_455 S
C858 H852 0.930 . S
C858 C859 1.367 . S
C858 C866 1.378 . S
C859 C858 1.367 . S
C859 C867 1.433 . S
C860 H856 0.929 . S
C860 C862 1.378 . S
C860 C864 1.350 . S
C861 C864 1.463 . S
C861 C866 1.350 . S
C861 N869 1.427 . S
C862 H853 0.930 . S
C862 C860 1.378 . S
C862 C863 1.382 . S
C863 C862 1.382 . S
C863 C865 1.423 1_655 S
C864 C860 1.350 . S
C864 C861 1.463 . S
C864 N868 1.427 1_655 S
C865 H855 0.929 . S
C865 C863 1.423 1_455 S
C865 N868 1.384 . S
C866 H857 0.929 1_655 S
C866 C858 1.378 . S
C866 C861 1.350 . S
C867 H854 0.929 . S
C867 C859 1.433 . S
C867 N869 1.384 . S
N868 C864 1.427 1_455 S
N868 C865 1.384 . S
N869 C861 1.427 . S
N869 C867 1.384 . S
H870 C876 0.930 . S
H871 C880 0.930 . S
H872 C885 0.929 . S
H873 C883 0.929 . S
H874 C878 0.929 . S
H875 C884 0.929 . S
C876 H870 0.930 . S
C876 C877 1.367 . S
C876 C884 1.378 . S
C877 C876 1.367 . S
C877 C885 1.433 1_565 S
C878 H874 0.929 . S
C878 C880 1.378 . S
C878 C882 1.350 . S
C879 C882 1.463 . S
C879 C884 1.350 . S
C879 N887 1.427 . S
C880 H871 0.930 . S
C880 C878 1.378 . S
C880 C881 1.367 . S
C881 C880 1.367 . S
C881 C883 1.433 . S
C882 C878 1.350 . S
C882 C879 1.463 . S
C882 N886 1.427 . S
C883 H873 0.929 . S
C883 C881 1.433 . S
C883 N886 1.384 . S
C884 H875 0.929 . S
C884 C876 1.378 . S
C884 C879 1.350 . S
C885 H872 0.929 . S
C885 C877 1.433 1_545 S
C885 N887 1.384 1_545 S
N886 C882 1.427 . S
N886 C883 1.384 . S
N887 C879 1.427 . S
N887 C885 1.384 1_565 S
H888 C894 0.930 . S
H889 C898 0.930 . S
H890 C903 0.929 . S
H891 C901 0.929 . S
H892 C896 0.929 . S
H893 C902 0.929 . S
C894 H888 0.930 . S
C894 C895 1.367 . S
C894 C902 1.378 . S
C895 C894 1.367 . S
C895 C903 1.433 . S
C896 H892 0.929 . S
C896 C898 1.378 . S
C896 C900 1.350 . S
C897 C900 1.463 . S
C897 C902 1.350 . S
C897 N905 1.427 . S
C898 H889 0.930 . S
C898 C896 1.378 . S
C898 C899 1.367 . S
C899 C898 1.367 . S
C899 C901 1.433 . S
C900 C896 1.350 . S
C900 C897 1.463 . S
C900 N904 1.427 . S
C901 H891 0.929 . S
C901 C899 1.433 . S
C901 N904 1.384 . S
C902 H893 0.929 . S
C902 C894 1.378 . S
C902 C897 1.350 . S
C903 H890 0.929 . S
C903 C895 1.433 . S
C903 N905 1.384 . S
N904 C900 1.427 . S
N904 C901 1.384 . S
N905 C897 1.427 . S
N905 C903 1.384 . S
H906 C912 0.930 . S
H907 C916 0.930 . S
H908 C921 0.929 . S
H909 C919 0.929 . S
H910 C914 0.929 . S
H911 C920 0.929 . S
C912 H906 0.930 . S
C912 C913 1.367 . S
C912 C920 1.378 . S
C913 C912 1.367 . S
C913 C921 1.433 . S
C914 H910 0.929 . S
C914 C916 1.378 . S
C914 C918 1.350 . S
C915 C918 1.463 . S
C915 C920 1.350 . S
C915 N923 1.427 . S
C916 H907 0.930 . S
C916 C914 1.378 . S
C916 C917 1.367 . S
C917 C916 1.367 . S
C917 C919 1.433 . S
C918 C914 1.350 . S
C918 C915 1.463 . S
C918 N922 1.427 . S
C919 H909 0.929 . S
C919 C917 1.433 . S
C919 N922 1.384 . S
C920 H911 0.929 . S
C920 C912 1.378 . S
C920 C915 1.350 . S
C921 H908 0.929 . S
C921 C913 1.433 . S
C921 N923 1.384 . S
N922 C918 1.427 . S
N922 C919 1.384 . S
N923 C915 1.427 . S
N923 C921 1.384 . S
H924 C930 0.930 . S
H925 C934 0.930 . S
H926 C939 0.929 . S
H927 C937 0.929 . S
H928 C932 0.929 . S
H929 C938 0.929 . S
C930 H924 0.930 . S
C930 C931 1.367 . S
C930 C938 1.378 . S
C931 C930 1.367 . S
C931 C939 1.433 . S
C932 H928 0.929 . S
C932 C934 1.378 . S
C932 C936 1.350 1_455 S
C933 C936 1.463 . S
C933 C938 1.350 . S
C933 N941 1.427 . S
C934 H925 0.930 . S
C934 C932 1.378 . S
C934 C935 1.371 . S
C935 C934 1.371 . S
C935 C937 1.426 1_455 S
C936 C932 1.350 1_655 S
C936 C933 1.463 . S
C936 N940 1.427 . S
C937 H927 0.929 . S
C937 C935 1.426 1_655 S
C937 N940 1.384 . S
C938 H929 0.929 . S
C938 C930 1.378 . S
C938 C933 1.350 . S
C939 H926 0.929 . S
C939 C931 1.433 . S
C939 N941 1.384 . S
N940 C936 1.427 . S
N940 C937 1.384 . S
N941 C933 1.427 . S
N941 C939 1.384 . S
H942 C948 0.930 . S
H943 C952 0.930 . S
H944 C957 0.929 . S
H945 C955 0.929 . S
H946 C950 0.929 . S
H947 C956 0.929 1_545 S
C948 H942 0.930 . S
C948 C949 1.367 . S
C948 C956 1.378 . S
C949 C948 1.367 . S
C949 C957 1.433 . S
C950 H946 0.929 . S
C950 C952 1.378 . S
C950 C954 1.350 . S
C951 C954 1.463 . S
C951 C956 1.350 . S
C951 N959 1.427 . S
C952 H943 0.930 . S
C952 C950 1.378 . S
C952 C953 1.376 . S
C953 C952 1.376 . S
C953 C955 1.427 1_565 S
C954 C950 1.350 . S
C954 C951 1.463 . S
C954 N958 1.427 1_565 S
C955 H945 0.929 . S
C955 C953 1.427 1_545 S
C955 N958 1.384 . S
C956 H947 0.929 1_565 S
C956 C948 1.378 . S
C956 C951 1.350 . S
C957 H944 0.929 . S
C957 C949 1.433 . S
C957 N959 1.384 . S
N958 C954 1.427 1_545 S
N958 C955 1.384 . S
N959 C951 1.427 . S
N959 C957 1.384 . S
H960 C966 0.930 . S
H961 C970 0.930 . S
H962 C975 0.929 . S
H963 C973 0.929 . S
H964 C968 0.929 . S
H965 C974 0.929 . S
C966 H960 0.930 . S
C966 C967 1.367 . S
C966 C974 1.378 . S
C967 C966 1.367 . S
C967 C975 1.433 . S
C968 H964 0.929 . S
C968 C970 1.378 . S
C968 C972 1.350 . S
C969 C972 1.463 . S
C969 C974 1.350 . S
C969 N977 1.427 . S
C970 H961 0.930 . S
C970 C968 1.378 . S
C970 C971 1.367 . S
C971 C970 1.367 . S
C971 C973 1.433 . S
C972 C968 1.350 . S
C972 C969 1.463 . S
C972 N976 1.427 . S
C973 H963 0.929 . S
C973 C971 1.433 . S
C973 N976 1.384 . S
C974 H965 0.929 . S
C974 C966 1.378 . S
C974 C969 1.350 . S
C975 H962 0.929 . S
C975 C967 1.433 . S
C975 N977 1.384 . S
N976 C972 1.427 . S
N976 C973 1.384 . S
N977 C969 1.427 . S
N977 C975 1.384 . S
H978 C984 0.930 . S
H979 C988 0.930 . S
H980 C993 0.929 . S
H981 C991 0.929 . S
H982 C986 0.929 . S
H983 C992 0.929 . S
C984 H978 0.930 . S
C984 C985 1.367 . S
C984 C992 1.378 . S
C985 C984 1.367 . S
C985 C993 1.433 . S
C986 H982 0.929 . S
C986 C988 1.378 . S
C986 C990 1.350 . S
C987 C990 1.463 . S
C987 C992 1.350 . S
C987 N995 1.427 . S
C988 H979 0.930 . S
C988 C986 1.378 . S
C988 C989 1.367 . S
C989 C988 1.367 . S
C989 C991 1.433 . S
C990 C986 1.350 . S
C990 C987 1.463 . S
C990 N994 1.427 . S
C991 H981 0.929 . S
C991 C989 1.433 . S
C991 N994 1.384 . S
C992 H983 0.929 . S
C992 C984 1.378 . S
C992 C987 1.350 . S
C993 H980 0.929 . S
C993 C985 1.433 . S
C993 N995 1.384 . S
N994 C990 1.427 . S
N994 C991 1.384 . S
N995 C987 1.427 . S
N995 C993 1.384 . S
H996 C1002 0.930 . S
H997 C1006 0.930 . S
H998 C1011 0.929 . S
H999 C1009 0.929 . S
H1000 C1004 0.929 . S
H1001 C1010 0.929 . S
C1002 H996 0.930 . S
C1002 C1003 1.375 . S
C1002 C1010 1.378 . S
C1003 C1002 1.375 . S
C1003 C1011 1.420 1_655 S
C1004 H1000 0.929 . S
C1004 C1006 1.378 . S
C1004 C1008 1.350 . S
C1005 C1008 1.463 . S
C1005 C1010 1.350 1_455 S
C1005 N1013 1.427 . S
C1006 H997 0.930 . S
C1006 C1004 1.378 . S
C1006 C1007 1.367 . S
C1007 C1006 1.367 . S
C1007 C1009 1.433 . S
C1008 C1004 1.350 . S
C1008 C1005 1.463 . S
C1008 N1012 1.427 . S
C1009 H999 0.929 . S
C1009 C1007 1.433 . S
C1009 N1012 1.384 . S
C1010 H1001 0.929 . S
C1010 C1002 1.378 . S
C1010 C1005 1.350 1_655 S
C1011 H998 0.929 . S
C1011 C1003 1.420 1_455 S
C1011 N1013 1.384 . S
N1012 C1008 1.427 . S
N1012 C1009 1.384 . S
N1013 C1005 1.427 . S
N1013 C1011 1.384 . S
H1014 C1020 0.930 . S
H1015 C1024 0.930 . S
H1016 C1029 0.929 . S
H1017 C1027 0.929 . S
H1018 C1022 0.929 . S
H1019 C1028 0.929 . S
C1020 H1014 0.930 . S
C1020 C1021 1.380 . S
C1020 C1028 1.378 . S
C1021 C1020 1.380 . S
C1021 C1029 1.414 1_565 S
C1022 H1018 0.929 . S
C1022 C1024 1.378 . S
C1022 C1026 1.350 . S
C1023 C1026 1.463 . S
C1023 C1028 1.350 1_545 S
C1023 N1031 1.427 . S
C1024 H1015 0.930 . S
C1024 C1022 1.378 . S
C1024 C1025 1.367 . S
C1025 C1024 1.367 . S
C1025 C1027 1.433 . S
C1026 C1022 1.350 . S
C1026 C1023 1.463 . S
C1026 N1030 1.427 . S
C1027 H1017 0.929 . S
C1027 C1025 1.433 . S
C1027 N1030 1.384 . S
C1028 H1019 0.929 . S
C1028 C1020 1.378 . S
C1028 C1023 1.350 1_565 S
C1029 H1016 0.929 . S
C1029 C1021 1.414 1_545 S
C1029 N1031 1.384 . S
N1030 C1026 1.427 . S
N1030 C1027 1.384 . S
N1031 C1023 1.427 . S
N1031 C1029 1.384 . S
H1032 C1038 0.930 . S
H1033 C1042 0.930 . S
H1034 C1047 0.929 . S
H1035 C1045 0.929 . S
H1036 C1040 0.929 . S
H1037 C1046 0.929 . S
C1038 H1032 0.930 . S
C1038 C1039 1.367 . S
C1038 C1046 1.378 . S
C1039 C1038 1.367 . S
C1039 C1047 1.433 . S
C1040 H1036 0.929 . S
C1040 C1042 1.378 . S
C1040 C1044 1.350 . S
C1041 C1044 1.463 . S
C1041 C1046 1.350 . S
C1041 N1049 1.427 . S
C1042 H1033 0.930 . S
C1042 C1040 1.378 . S
C1042 C1043 1.367 . S
C1043 C1042 1.367 . S
C1043 C1045 1.433 . S
C1044 C1040 1.350 . S
C1044 C1041 1.463 . S
C1044 N1048 1.427 . S
C1045 H1035 0.929 . S
C1045 C1043 1.433 . S
C1045 N1048 1.384 . S
C1046 H1037 0.929 . S
C1046 C1038 1.378 . S
C1046 C1041 1.350 . S
C1047 H1034 0.929 . S
C1047 C1039 1.433 . S
C1047 N1049 1.384 . S
N1048 C1044 1.427 . S
N1048 C1045 1.384 . S
N1049 C1041 1.427 . S
N1049 C1047 1.384 . S
H1050 C1056 0.930 . S
H1051 C1060 0.930 . S
H1052 C1065 0.929 . S
H1053 C1063 0.929 . S
H1054 C1058 0.929 . S
H1055 C1064 0.929 . S
C1056 H1050 0.930 . S
C1056 C1057 1.367 . S
C1056 C1064 1.378 . S
C1057 C1056 1.367 . S
C1057 C1065 1.433 . S
C1058 H1054 0.929 . S
C1058 C1060 1.378 . S
C1058 C1062 1.350 . S
C1059 C1062 1.463 . S
C1059 C1064 1.350 . S
C1059 N1067 1.427 . S
C1060 H1051 0.930 . S
C1060 C1058 1.378 . S
C1060 C1061 1.367 . S
C1061 C1060 1.367 . S
C1061 C1063 1.433 . S
C1062 C1058 1.350 . S
C1062 C1059 1.463 . S
C1062 N1066 1.427 . S
C1063 H1053 0.929 . S
C1063 C1061 1.433 . S
C1063 N1066 1.384 . S
C1064 H1055 0.929 . S
C1064 C1056 1.378 . S
C1064 C1059 1.350 . S
C1065 H1052 0.929 . S
C1065 C1057 1.433 . S
C1065 N1067 1.384 . S
N1066 C1062 1.427 . S
N1066 C1063 1.384 . S
N1067 C1059 1.427 . S
N1067 C1065 1.384 . S
H1068 C1074 0.930 . S
H1069 C1078 0.930 . S
H1070 C1083 0.929 . S
H1071 C1081 0.929 . S
H1072 C1076 0.929 . S
H1073 C1082 0.929 1_655 S
C1074 H1068 0.930 . S
C1074 C1075 1.369 . S
C1074 C1082 1.378 1_655 S
C1075 C1074 1.369 . S
C1075 C1083 1.428 1_655 S
C1076 H1072 0.929 . S
C1076 C1078 1.378 . S
C1076 C1080 1.350 . S
C1077 C1080 1.463 . S
C1077 C1082 1.350 . S
C1077 N1085 1.427 . S
C1078 H1069 0.930 . S
C1078 C1076 1.378 . S
C1078 C1079 1.367 . S
C1079 C1078 1.367 . S
C1079 C1081 1.433 . S
C1080 C1076 1.350 . S
C1080 C1077 1.463 . S
C1080 N1084 1.427 . S
C1081 H1071 0.929 . S
C1081 C1079 1.433 . S
C1081 N1084 1.384 . S
C1082 H1073 0.929 1_455 S
C1082 C1074 1.378 1_455 S
C1082 C1077 1.350 . S
C1083 H1070 0.929 . S
C1083 C1075 1.428 1_455 S
C1083 N1085 1.384 . S
N1084 C1080 1.427 . S
N1084 C1081 1.384 . S
N1085 C1077 1.427 . S
N1085 C1083 1.384 . S
H1086 C1092 0.930 . S
H1087 C1096 0.930 . S
H1088 C1101 0.929 . S
H1089 C1099 0.929 . S
H1090 C1094 0.929 . S
H1091 C1100 0.929 . S
C1092 H1086 0.930 . S
C1092 C1093 1.367 . S
C1092 C1100 1.378 . S
C1093 C1092 1.367 . S
C1093 C1101 1.433 . S
C1094 H1090 0.929 . S
C1094 C1096 1.378 . S
C1094 C1098 1.350 1_565 S
C1095 C1098 1.463 . S
C1095 C1100 1.350 . S
C1095 N1103 1.427 . S
C1096 H1087 0.930 . S
C1096 C1094 1.378 . S
C1096 C1097 1.377 . S
C1097 C1096 1.377 . S
C1097 C1099 1.418 1_565 S
C1098 C1094 1.350 1_545 S
C1098 C1095 1.463 . S
C1098 N1102 1.427 . S
C1099 H1089 0.929 . S
C1099 C1097 1.418 1_545 S
C1099 N1102 1.384 . S
C1100 H1091 0.929 . S
C1100 C1092 1.378 . S
C1100 C1095 1.350 . S
C1101 H1088 0.929 . S
C1101 C1093 1.433 . S
C1101 N1103 1.384 . S
N1102 C1098 1.427 . S
N1102 C1099 1.384 . S
N1103 C1095 1.427 . S
N1103 C1101 1.384 . S
H1104 C1110 0.930 . S
H1105 C1114 0.930 . S
H1106 C1119 0.929 . S
H1107 C1117 0.929 . S
H1108 C1112 0.929 1_565 S
H1109 C1118 0.929 1_545 S
C1110 H1104 0.930 . S
C1110 C1111 1.367 . S
C1110 C1118 1.378 . S
C1111 C1110 1.367 . S
C1111 C1119 1.433 . S
C1112 H1108 0.929 1_545 S
C1112 C1114 1.378 . S
C1112 C1116 1.350 . S
C1113 C1116 1.463 1_566 S
C1113 C1118 1.350 . S
C1113 N1121 1.427 . S
C1114 H1105 0.930 . S
C1114 C1112 1.378 . S
C1114 C1115 1.367 . S
C1115 C1114 1.367 . S
C1115 C1117 1.433 . S
C1116 C1112 1.350 . S
C1116 C1113 1.463 1_544 S
C1116 N1120 1.427 . S
C1117 H1107 0.929 . S
C1117 C1115 1.433 . S
C1117 N1120 1.384 . S
C1118 H1109 0.929 1_565 S
C1118 C1110 1.378 . S
C1118 C1113 1.350 . S
C1119 H1106 0.929 . S
C1119 C1111 1.433 . S
C1119 N1121 1.384 . S
N1120 C1116 1.427 . S
N1120 C1117 1.384 . S
N1121 C1113 1.427 . S
N1121 C1119 1.384 . S
H1122 C1128 0.930 . S
H1123 C1132 0.930 . S
H1124 C1137 0.929 . S
H1125 C1135 0.929 . S
H1126 C1130 0.929 . S
H1127 C1136 0.929 . S
C1128 H1122 0.930 . S
C1128 C1129 1.367 . S
C1128 C1136 1.378 . S
C1129 C1128 1.367 . S
C1129 C1137 1.433 . S
C1130 H1126 0.929 . S
C1130 C1132 1.378 . S
C1130 C1134 1.350 . S
C1131 C1134 1.463 . S
C1131 C1136 1.350 . S
C1131 N1139 1.427 . S
C1132 H1123 0.930 . S
C1132 C1130 1.378 . S
C1132 C1133 1.367 . S
C1133 C1132 1.367 . S
C1133 C1135 1.433 . S
C1134 C1130 1.350 . S
C1134 C1131 1.463 . S
C1134 N1138 1.427 . S
C1135 H1125 0.929 . S
C1135 C1133 1.433 . S
C1135 N1138 1.384 . S
C1136 H1127 0.929 . S
C1136 C1128 1.378 . S
C1136 C1131 1.350 . S
C1137 H1124 0.929 . S
C1137 C1129 1.433 . S
C1137 N1139 1.384 . S
N1138 C1134 1.427 . S
N1138 C1135 1.384 . S
N1139 C1131 1.427 . S
N1139 C1137 1.384 . S
H1140 C1146 0.930 . S
H1141 C1150 0.930 . S
H1142 C1155 0.929 . S
H1143 C1153 0.929 . S
H1144 C1148 0.929 1_554 S
H1145 C1154 0.929 1_556 S
C1146 H1140 0.930 . S
C1146 C1147 1.367 . S
C1146 C1154 1.378 . S
C1147 C1146 1.367 . S
C1147 C1155 1.433 . S
C1148 H1144 0.929 1_556 S
C1148 C1150 1.378 . S
C1148 C1152 1.350 . S
C1149 C1152 1.463 1_454 S
C1149 C1154 1.350 . S
C1149 N1157 1.427 . S
C1150 H1141 0.930 . S
C1150 C1148 1.378 . S
C1150 C1151 1.367 . S
C1151 C1150 1.367 . S
C1151 C1153 1.433 . S
C1152 C1148 1.350 . S
C1152 C1149 1.463 1_656 S
C1152 N1156 1.427 . S
C1153 H1143 0.929 . S
C1153 C1151 1.433 . S
C1153 N1156 1.384 . S
C1154 H1145 0.929 1_554 S
C1154 C1146 1.378 . S
C1154 C1149 1.350 . S
C1155 H1142 0.929 . S
C1155 C1147 1.433 . S
C1155 N1157 1.384 . S
N1156 C1152 1.427 . S
N1156 C1153 1.384 . S
N1157 C1149 1.427 . S
N1157 C1155 1.384 . S
H1158 C1164 0.930 . S
H1159 C1168 0.930 . S
H1160 C1173 0.929 . S
H1161 C1171 0.929 . S
H1162 C1166 0.929 . S
H1163 C1172 0.929 . S
C1164 H1158 0.930 . S
C1164 C1165 1.367 1_545 S
C1164 C1172 1.378 . S
C1165 C1164 1.367 1_565 S
C1165 C1173 1.433 . S
C1166 H1162 0.929 . S
C1166 C1168 1.378 . S
C1166 C1170 1.350 1_565 S
C1167 C1170 1.463 1_665 S
C1167 C1172 1.350 1_565 S
C1167 N1175 1.427 . S
C1168 H1159 0.930 . S
C1168 C1166 1.378 . S
C1168 C1169 1.367 1_565 S
C1169 C1168 1.367 1_545 S
C1169 C1171 1.433 . S
C1170 C1166 1.350 1_545 S
C1170 C1167 1.463 1_445 S
C1170 N1174 1.427 . S
C1171 H1161 0.929 . S
C1171 C1169 1.433 . S
C1171 N1174 1.384 . S
C1172 H1163 0.929 . S
C1172 C1164 1.378 . S
C1172 C1167 1.350 1_545 S
C1173 H1160 0.929 . S
C1173 C1165 1.433 . S
C1173 N1175 1.384 . S
N1174 C1170 1.427 . S
N1174 C1171 1.384 . S
N1175 C1167 1.427 . S
N1175 C1173 1.384 . S
H1176 C1182 0.930 . S
H1177 C1186 0.930 . S
H1178 C1191 0.929 . S
H1179 C1189 0.929 . S
H1180 C1184 0.929 . S
H1181 C1190 0.929 . S
C1182 H1176 0.930 . S
C1182 C1183 1.367 . S
C1182 C1190 1.378 . S
C1183 C1182 1.367 . S
C1183 C1191 1.433 . S
C1184 H1180 0.929 . S
C1184 C1186 1.378 . S
C1184 C1188 1.350 . S
C1185 C1188 1.463 1_556 S
C1185 C1190 1.350 . S
C1185 N1193 1.427 . S
C1186 H1177 0.930 . S
C1186 C1184 1.378 . S
C1186 C1187 1.367 . S
C1187 C1186 1.367 . S
C1187 C1189 1.433 . S
C1188 C1184 1.350 . S
C1188 C1185 1.463 1_554 S
C1188 N1192 1.427 . S
C1189 H1179 0.929 . S
C1189 C1187 1.433 . S
C1189 N1192 1.384 . S
C1190 H1181 0.929 . S
C1190 C1182 1.378 . S
C1190 C1185 1.350 . S
C1191 H1178 0.929 . S
C1191 C1183 1.433 . S
C1191 N1193 1.384 . S
N1192 C1188 1.427 . S
N1192 C1189 1.384 . S
N1193 C1185 1.427 . S
N1193 C1191 1.384 . S
H1194 C1200 0.930 . S
H1195 C1204 0.930 . S
H1196 C1209 0.929 . S
H1197 C1207 0.929 . S
H1198 C1202 0.919 1_455 S
H1199 C1208 0.919 1_655 S
C1200 H1194 0.930 . S
C1200 C1201 1.367 . S
C1200 C1208 1.384 . S
C1201 C1200 1.367 . S
C1201 C1209 1.433 . S
C1202 H1198 0.919 1_655 S
C1202 C1204 1.384 . S
C1202 C1206 1.353 . S
C1203 C1206 1.463 1_455 S
C1203 C1208 1.353 . S
C1203 N1211 1.427 . S
C1204 H1195 0.930 . S
C1204 C1202 1.384 . S
C1204 C1205 1.367 . S
C1205 C1204 1.367 . S
C1205 C1207 1.433 . S
C1206 C1202 1.353 . S
C1206 C1203 1.463 1_655 S
C1206 N1210 1.427 . S
C1207 H1197 0.929 . S
C1207 C1205 1.433 . S
C1207 N1210 1.384 . S
C1208 H1199 0.919 1_455 S
C1208 C1200 1.384 . S
C1208 C1203 1.353 . S
C1209 H1196 0.929 . S
C1209 C1201 1.433 . S
C1209 N1211 1.384 . S
N1210 C1206 1.427 . S
N1210 C1207 1.384 . S
N1211 C1203 1.427 . S
N1211 C1209 1.384 . S
H1212 C1218 0.930 . S
H1213 C1222 0.930 . S
H1214 C1227 0.929 . S
H1215 C1225 0.929 . S
H1216 C1220 0.929 1_554 S
H1217 C1226 0.929 1_556 S
C1218 H1212 0.930 . S
C1218 C1219 1.367 . S
C1218 C1226 1.378 . S
C1219 C1218 1.367 . S
C1219 C1227 1.433 1_655 S
C1220 H1216 0.929 1_556 S
C1220 C1222 1.378 . S
C1220 C1224 1.350 . S
C1221 C1224 1.463 1_664 S
C1221 C1226 1.350 . S
C1221 N1229 1.427 1_655 S
C1222 H1213 0.930 . S
C1222 C1220 1.378 . S
C1222 C1223 1.367 . S
C1223 C1222 1.367 . S
C1223 C1225 1.433 1_455 S
C1224 C1220 1.350 . S
C1224 C1221 1.463 1_446 S
C1224 N1228 1.427 1_455 S
C1225 H1215 0.929 . S
C1225 C1223 1.433 1_655 S
C1225 N1228 1.384 . S
C1226 H1217 0.929 1_554 S
C1226 C1218 1.378 . S
C1226 C1221 1.350 . S
C1227 H1214 0.929 . S
C1227 C1219 1.433 1_455 S
C1227 N1229 1.384 . S
N1228 C1224 1.427 1_655 S
N1228 C1225 1.384 . S
N1229 C1221 1.427 1_455 S
N1229 C1227 1.384 . S
H1230 C1236 0.930 . S
H1231 C1240 0.930 . S
H1232 C1245 0.929 . S
H1233 C1243 0.929 . S
H1234 C1238 0.929 . S
H1235 C1244 0.929 . S
C1236 H1230 0.930 . S
C1236 C1237 1.367 . S
C1236 C1244 1.378 . S
C1237 C1236 1.367 . S
C1237 C1245 1.433 1_545 S
C1238 H1234 0.929 . S
C1238 C1240 1.378 . S
C1238 C1242 1.350 . S
C1239 C1242 1.463 1_545 S
C1239 C1244 1.350 . S
C1239 N1247 1.427 1_545 S
C1240 H1231 0.930 . S
C1240 C1238 1.378 . S
C1240 C1241 1.367 . S
C1241 C1240 1.367 . S
C1241 C1243 1.433 1_565 S
C1242 C1238 1.350 . S
C1242 C1239 1.463 1_565 S
C1242 N1246 1.427 1_565 S
C1243 H1233 0.929 . S
C1243 C1241 1.433 1_545 S
C1243 N1246 1.384 . S
C1244 H1235 0.929 . S
C1244 C1236 1.378 . S
C1244 C1239 1.350 . S
C1245 H1232 0.929 . S
C1245 C1237 1.433 1_565 S
C1245 N1247 1.384 . S
N1246 C1242 1.427 1_545 S
N1246 C1243 1.384 . S
N1247 C1239 1.427 1_565 S
N1247 C1245 1.384 . S
C535 C17 1.582 . S
C539 C248 1.579 . S
C553 C149 1.586 . S
C557 C50 1.579 . S
C571 C83 1.577 . S
C575 C182 1.586 . S
C589 C116 1.577 . S
C593 C215 1.586 . S
C607 C281 1.586 . S
C611 C512 1.579 . S
C625 C314 1.577 . S
C629 C413 1.586 . S
C643 C347 1.580 . S
C647 C446 1.581 . S
C661 C479 1.586 . S
C665 C380 1.577 . S
C679 C8 2.168 . S
C683 C74 2.167 . S
C697 C107 2.167 . S
C701 C41 2.167 . S
C715 C206 2.169 . S
C719 C140 2.169 . S
C733 C173 2.169 . S
C737 C239 2.168 . S
C751 C338 2.168 . S
C755 C272 2.169 . S
C769 C371 2.171 . S
C773 C305 2.170 . S
C787 C470 2.170 . S
C791 C404 2.171 . S
C805 C503 2.170 . S
C809 C437 2.170 . S
C823 N410 0.692 . S
C827 N5 0.692 . S
C841 N443 0.702 . S
C845 N38 0.694 . S
C859 N71 0.693 . S
C863 N476 0.695 . S
C877 N509 0.697 . S
C881 N104 0.693 . S
C895 N137 0.695 . S
C899 N278 0.706 . S
C913 N311 0.696 . S
C917 N170 0.693 . S
C931 N203 0.695 . S
C935 N344 0.704 1_455 S
C949 N236 0.692 . S
C953 N377 0.694 . S
C967 N146 0.702 . S
C971 N269 0.695 . S
C985 N179 0.707 . S
C989 N302 0.695 . S
C1003 N212 0.706 1_655 S
C1007 N335 0.696 . S
C1021 N245 0.707 1_565 S
C1025 N368 0.696 . S
C1039 N14 0.695 . S
C1043 N401 0.694 . S
C1057 N47 0.713 . S
C1061 N434 0.696 . S
C1075 N80 0.703 1_655 S
C1079 N467 0.695 . S
C1093 N500 0.696 . S
C1097 N113 0.706 1_565 S
C1111 C292 1.700 . S
C1115 C28 1.700 . S
C1129 C61 1.700 . S
C1133 C325 1.700 . S
C1147 C94 1.711 . S
C1151 C358 1.711 . S
C1165 C391 1.699 . S
C1169 C127 1.699 . S
C1183 C160 1.715 . S
C1187 C424 1.715 . S
C1201 C193 1.704 . S
C1205 C457 1.704 . S
C1219 C490 1.715 . S
C1223 C226 1.715 . S
C1237 C259 1.715 . S
C1241 C523 1.715 . S
