# Generated by pormake.
# Topology zfs, (5)-cn, num edge types: 1
# Building blocks:
#     Node 0, Type 0, BuildingBlock: XOMCOT_clean_sbu_0, # of connection points: 5
#     Node 1, Type 0, BuildingBlock: XOMCOT_clean_sbu_0, # of connection points: 5
#     Node 2, Type 0, BuildingBlock: XOMCOT_clean_sbu_0, # of connection points: 5
#     Node 3, Type 0, BuildingBlock: XOMCOT_clean_sbu_0, # of connection points: 5
#     Node 4, Type 0, BuildingBlock: XOMCOT_clean_sbu_0, # of connection points: 5
#     Node 5, Type 0, BuildingBlock: XOMCOT_clean_sbu_0, # of connection points: 5
#     Node 6, Type 0, BuildingBlock: XOMCOT_clean_sbu_0, # of connection points: 5
#     Node 7, Type 0, BuildingBlock: XOMCOT_clean_sbu_0, # of connection points: 5
#     Edge 8, Type (0, 0), BuildingBlock: ZUJKAS_clean_linker_0, # of connection points: 2
#     Edge 9, Type (0, 0), BuildingBlock: ZUJKAS_clean_linker_0, # of connection points: 2
#     Edge 10, Type (0, 0), BuildingBlock: ZUJKAS_clean_linker_0, # of connection points: 2
#     Edge 11, Type (0, 0), BuildingBlock: ZUJKAS_clean_linker_0, # of connection points: 2
#     Edge 12, Type (0, 0), BuildingBlock: ZUJKAS_clean_linker_0, # of connection points: 2
#     Edge 13, Type (0, 0), BuildingBlock: ZUJKAS_clean_linker_0, # of connection points: 2
#     Edge 14, Type (0, 0), BuildingBlock: ZUJKAS_clean_linker_0, # of connection points: 2
#     Edge 15, Type (0, 0), BuildingBlock: ZUJKAS_clean_linker_0, # of connection points: 2
#     Edge 16, Type (0, 0), BuildingBlock: ZUJKAS_clean_linker_0, # of connection points: 2
#     Edge 17, Type (0, 0), BuildingBlock: ZUJKAS_clean_linker_0, # of connection points: 2
#     Edge 18, Type (0, 0), BuildingBlock: ZUJKAS_clean_linker_0, # of connection points: 2
#     Edge 19, Type (0, 0), BuildingBlock: ZUJKAS_clean_linker_0, # of connection points: 2
#     Edge 20, Type (0, 0), BuildingBlock: ZUJKAS_clean_linker_0, # of connection points: 2
#     Edge 21, Type (0, 0), BuildingBlock: ZUJKAS_clean_linker_0, # of connection points: 2
#     Edge 22, Type (0, 0), BuildingBlock: ZUJKAS_clean_linker_0, # of connection points: 2
#     Edge 23, Type (0, 0), BuildingBlock: ZUJKAS_clean_linker_0, # of connection points: 2
#     Edge 24, Type (0, 0), BuildingBlock: ZUJKAS_clean_linker_0, # of connection points: 2
#     Edge 25, Type (0, 0), BuildingBlock: ZUJKAS_clean_linker_0, # of connection points: 2
#     Edge 26, Type (0, 0), BuildingBlock: ZUJKAS_clean_linker_0, # of connection points: 2
#     Edge 27, Type (0, 0), BuildingBlock: ZUJKAS_clean_linker_0, # of connection points: 2
# Relax obj value: 0.120
# Max RMSD: 0.155
# Mean RMSD: 0.155
data_MOF--net-zfs--node1-XOMCOT_clean_sbu_0--edge1-ZUJKAS_clean_linker_0
_symmetry_space_group_name_H-M    P1
_symmetry_Int_Tables_number       1
_symmetry_cell_setting            triclinic
loop_
_symmetry_equiv_pos_as_xyz
'x, y, z'
_cell_length_a     43.790596
_cell_length_b     43.741179
_cell_length_c     50.978084
_cell_angle_alpha  89.856159
_cell_angle_beta   89.985593
_cell_angle_gamma 90.037359
loop_
_atom_site_label
_atom_site_type_symbol
_atom_site_fract_x
_atom_site_fract_y
_atom_site_fract_z
_atom_type_partial_charge
Co0 Co 0.0369 0.2459 0.20699 0.0
C1 C 1.01077 0.24756 0.15404 0.0
C2 C 0.98553 0.21736 0.17886 0.0
C3 C 0.97689 0.21217 0.15326 0.0
N4 N 1.00663 0.23995 0.17949 0.0
N5 N 0.9933 0.23087 0.13775 0.0
H6 H 0.02895 0.26211 0.14705 0.0
H7 H 0.97961 0.20281 0.19524 0.0
C8 C 0.97906 0.23901 0.23793 0.0
O9 O 0.96647 0.25942 0.22236 0.0
N10 N 0.06748 0.25067 0.23364 0.0
C11 C 0.08897 0.27265 0.23485 0.0
C12 C 0.10775 0.26657 0.25585 0.0
C13 C 0.07341 0.23147 0.25363 0.0
N14 N 0.09794 0.24066 0.26758 0.0
C15 C 0.02769 0.30875 0.19169 0.0
C16 C 0.01492 0.33055 0.24133 0.0
C17 C 0.01707 0.3515 0.2205 0.0
C18 C 0.02319 0.34006 0.19536 0.0
C19 C 0.01937 0.29935 0.23675 0.0
N20 N 0.02532 0.28863 0.21208 0.0
H21 H 0.0345 0.30108 0.17259 0.0
H22 H 0.01936 0.28394 0.25335 0.0
H23 H 0.09103 0.29149 0.22117 0.0
H24 H 0.06067 0.21067 0.25726 0.0
O25 O 0.06839 0.25105 0.18059 0.0
O26 O 0.05403 0.20666 0.19761 0.0
O27 O 1.00697 0.23133 0.23459 0.0
C28 C 0.07121 0.22142 0.18099 0.0
H29 H 0.96255 0.19366 0.14642 0.0
H30 H 0.12717 0.28013 0.26193 0.0
H31 H 1.01114 0.33825 0.26124 0.0
H32 H 0.02515 0.35522 0.17862 0.0
Co33 Co 0.77901 0.03546 0.45499 0.0
C34 C 0.77309 1.00927 0.4024 0.0
C35 C 0.80138 0.98103 0.42648 0.0
C36 C 0.80403 0.97135 0.40083 0.0
N37 N 0.7816 1.00473 0.42755 0.0
N38 N 0.78651 0.98956 0.38581 0.0
H39 H 0.76025 0.02883 0.39566 0.0
H40 H 0.81577 0.97352 0.44243 0.0
C41 C 0.78425 0.97806 0.48767 0.0
O42 O 0.76101 0.96603 0.47507 0.0
N43 N 0.77712 0.06639 0.48156 0.0
C44 C 0.75649 0.08911 0.48312 0.0
C45 C 0.76356 0.10697 0.50443 0.0
C46 C 0.7966 0.07072 0.50159 0.0
N47 N 0.78878 0.09539 0.51598 0.0
C48 C 0.71513 0.02976 0.44201 0.0
C49 C 0.69509 0.01667 0.49223 0.0
C50 C 0.67347 0.0195 0.4721 0.0
C51 C 0.68388 0.02619 0.44672 0.0
C52 C 0.72611 0.02071 0.48671 0.0
N53 N 0.73599 0.02631 0.46169 0.0
H54 H 0.72228 0.03652 0.4227 0.0
H55 H 0.74216 0.02019 0.5028 0.0
H56 H 0.73782 0.09256 0.46955 0.0
H57 H 0.81601 0.05611 0.5055 0.0
O58 O 0.77473 0.06729 0.42857 0.0
O59 O 0.81867 0.05026 0.44434 0.0
O60 O 0.79359 1.00499 0.48211 0.0
C61 C 0.80446 0.06852 0.4283 0.0
H62 H 0.82018 0.95471 0.39349 0.0
H63 H 0.7515 0.12735 0.51051 0.0
H64 H 0.68802 1.01248 0.51229 0.0
H65 H 0.66798 0.029 0.43063 0.0
Co66 Co 0.99271 0.7779 0.70122 0.0
C67 C 0.02108 0.76984 0.65012 0.0
C68 C 0.0454 0.80325 0.67268 0.0
C69 C 0.05637 0.80376 0.6473 0.0
N70 N 0.02314 0.78209 0.67423 0.0
N71 N 0.04074 0.78293 0.63309 0.0
H72 H 1.00331 0.75395 0.64454 0.0
H73 H 0.0515 0.81891 0.6882 0.0
C74 C 0.02688 0.78395 0.75234 0.0
O75 O 1.01073 0.76131 0.76214 0.0
N76 N 0.96158 0.77424 0.72802 0.0
C77 C 0.93968 0.75275 0.73064 0.0
C78 C 0.92052 0.76101 0.75074 0.0
C79 C 0.95485 0.79567 0.74609 0.0
N80 N 0.93009 0.78799 0.76047 0.0
C81 C 0.9846 0.71347 0.6938 0.0
C82 C 0.03597 0.69388 0.72027 0.0
C83 C 0.01457 0.672 0.71199 0.0
C84 C 0.9893 0.68224 0.69756 0.0
C85 C 0.03046 0.72506 0.71579 0.0
N86 N 1.00371 0.73464 0.70464 0.0
H87 H 0.96492 0.72054 0.68264 0.0
H88 H 0.04775 0.74126 0.72151 0.0
H89 H 0.93653 0.73309 0.71831 0.0
H90 H 0.9678 0.81655 0.74847 0.0
O91 O 0.96142 0.77471 0.6744 0.0
O92 O 0.97682 0.81804 0.6924 0.0
O93 O 0.02348 0.79191 0.72835 0.0
C94 C 0.95928 0.8043 0.67556 0.0
H95 H 0.07308 0.81964 0.63958 0.0
H96 H 0.90033 0.74866 0.75692 0.0
H97 H 0.05645 0.68717 0.73068 0.0
H98 H 0.97301 0.66627 0.68935 0.0
Co99 Co 0.24206 0.99609 0.95249 0.0
C100 C 0.24974 0.02455 0.90056 0.0
C101 C 0.21816 0.04965 0.92408 0.0
C102 C 0.21668 0.06062 0.89877 0.0
N103 N 0.23933 0.02725 0.92537 0.0
N104 N 0.23646 0.04458 0.88398 0.0
H105 H 0.26343 1.00565 0.89383 0.0
H106 H 0.20253 0.05556 0.93967 0.0
C107 C 0.23717 0.05406 0.98407 0.0
O108 O 0.25835 0.06653 0.96921 0.0
N109 N 0.24393 0.96481 0.97891 0.0
C110 C 0.26439 0.94194 0.98045 0.0
C111 C 0.25726 0.92408 0.00186 0.0
C112 C 0.22452 0.96059 -0.00097 0.0
N113 N 0.23218 0.93585 0.01347 0.0
C114 C 0.30604 0.99847 0.93904 0.0
C115 C 0.32696 0.01486 0.98818 0.0
C116 C 0.34834 1.00984 0.96816 0.0
C117 C 0.33744 1.00148 0.94333 0.0
C118 C 0.29575 1.01144 0.98308 0.0
N119 N 0.28544 1.00429 0.9585 0.0
H120 H 0.29856 0.99008 0.92033 0.0
H121 H 0.27998 0.01343 -0.00074 0.0
H122 H 0.28298 0.93837 0.96683 0.0
H123 H 0.20528 0.97539 0.00299 0.0
O124 O 0.24502 0.96462 0.92572 0.0
O125 O 0.20184 0.98227 0.94242 0.0
O126 O 0.22886 0.02643 0.98015 0.0
C127 C 0.21528 0.96399 0.92599 0.0
H128 H 0.20054 0.07732 0.89147 0.0
H129 H 0.2692 0.90363 0.00799 0.0
H130 H 0.33431 0.02025 0.00792 0.0
H131 H 0.35305 0.99689 0.92734 0.0
Co132 Co 0.02767 0.78085 0.29269 0.0
C133 C 0.99824 0.77119 0.34392 0.0
C134 C 0.97153 0.80106 0.31996 0.0
C135 C 0.9596 0.80119 0.34502 0.0
N136 N 0.99562 0.7818 0.31913 0.0
N137 N 0.97658 0.78235 0.36002 0.0
H138 H 0.01782 0.75875 0.35108 0.0
H139 H 0.96477 0.81633 0.30432 0.0
C140 C 0.9719 0.78584 0.25832 0.0
O141 O 0.9602 0.76174 0.27003 0.0
N142 N 0.05989 0.78063 0.26711 0.0
C143 C 0.08323 0.76067 0.266 0.0
C144 C 0.10166 0.76851 0.24522 0.0
C145 C 0.06443 0.80052 0.24731 0.0
N146 N 0.0898 0.79355 0.23351 0.0
C147 C 0.0218 0.71631 0.3037 0.0
C148 C 0.01307 0.69803 0.2524 0.0
C149 C 0.01416 0.67568 0.27214 0.0
C150 C 0.01859 0.68523 0.29808 0.0
C151 C 0.01617 0.72893 0.25891 0.0
N152 N 0.01966 0.73792 0.28444 0.0
H153 H 0.02741 0.72264 0.32344 0.0
H154 H 0.01648 0.74563 0.24327 0.0
H155 H 0.08661 0.74181 0.27946 0.0
H156 H 0.04937 0.81949 0.24306 0.0
O157 O 0.0582 0.77581 0.31996 0.0
O158 O 0.04137 0.82029 0.30497 0.0
O159 O 0.99816 0.79597 0.26497 0.0
C160 C 0.05918 0.80555 0.32104 0.0
H161 H 0.94133 0.81567 0.35202 0.0
H162 H 0.12249 0.75701 0.2395 0.0
H163 H 1.01008 0.69172 0.23203 0.0
H164 H 0.0208 0.66873 0.31385 0.0
Co165 Co 0.24504 0.02857 0.54396 0.0
C166 C 0.24953 0.99793 0.59532 0.0
C167 C 0.21559 0.97699 0.5712 0.0
C168 C 0.21285 0.96545 0.59625 0.0
N169 N 0.23899 0.99711 0.57045 0.0
N170 N 0.23414 0.97888 0.61142 0.0
H171 H 0.26509 0.01506 0.6025 0.0
H172 H 0.19956 0.97319 0.55542 0.0
C173 C 0.23632 0.97173 0.5119 0.0
O174 O 0.25605 0.95776 0.52721 0.0
N175 N 0.25013 0.06022 0.51818 0.0
C176 C 0.27226 0.08157 0.51735 0.0
C177 C 0.26649 0.10087 0.49657 0.0
C178 C 0.23112 0.06678 0.49825 0.0
N179 N 0.24057 0.09156 0.48464 0.0
C180 C 0.30834 0.02203 0.5582 0.0
C181 C 0.32924 1.00591 0.50899 0.0
C182 C 0.35055 1.01068 0.52907 0.0
C183 C 0.33969 0.01862 0.55399 0.0
C184 C 0.29807 1.00982 0.51399 0.0
N185 N 0.28776 0.01712 0.53854 0.0
H186 H 0.30101 0.0305 0.57693 0.0
H187 H 0.28245 1.00859 0.49766 0.0
H188 H 0.29094 0.08325 0.53115 0.0
H189 H 0.21074 0.05372 0.49397 0.0
O190 O 0.25015 0.05866 0.5715 0.0
O191 O 0.2059 0.04578 0.55348 0.0
O192 O 0.23013 0.99996 0.51558 0.0
C193 C 0.22066 0.06215 0.57058 0.0
H194 H 0.19503 0.95028 0.60314 0.0
H195 H 0.27985 0.12073 0.49118 0.0
H196 H 0.33666 1.00078 0.48922 0.0
H197 H 0.35534 0.023 0.56999 0.0
Co198 Co 0.99617 0.24574 0.79374 0.0
C199 C 0.02391 0.24948 0.84593 0.0
C200 C 0.05057 0.22114 0.82074 0.0
C201 C 0.06041 0.21686 0.84619 0.0
N202 N 0.02769 0.24189 0.82048 0.0
N203 N 0.04314 0.23436 0.86194 0.0
H204 H 1.00501 0.26286 0.8532 0.0
H205 H 0.05714 0.20698 0.80437 0.0
C206 C 0.05204 0.23937 0.75975 0.0
O207 O 0.06469 0.26251 0.77204 0.0
N208 N 0.96445 0.24855 0.76786 0.0
C209 C 0.9421 0.26963 0.76678 0.0
C210 C 0.92337 0.26284 0.74594 0.0
C211 C 0.95901 0.22908 0.74805 0.0
N212 N 0.93403 0.23732 0.73423 0.0
C213 C 1.00681 0.30931 0.80647 0.0
C214 C 0.01485 0.32905 0.75537 0.0
C215 C 0.01561 0.35077 0.77558 0.0
C216 C 1.01164 0.34041 0.80145 0.0
C217 C 1.01012 0.29818 0.76127 0.0
N218 N 1.00667 0.28844 0.78662 0.0
H219 H 1.00217 0.30236 0.8263 0.0
H220 H 1.00844 0.28212 0.74526 0.0
H221 H 0.9395 0.28841 0.78036 0.0
H222 H 0.97308 0.20935 0.7439 0.0
O223 O 0.96538 0.25118 0.82081 0.0
O224 O 0.98031 0.20659 0.80483 0.0
O225 O 0.02526 0.23027 0.76599 0.0
C226 C 0.96304 0.22147 0.82117 0.0
H227 H 0.07628 0.19952 0.85284 0.0
H228 H 0.90305 0.27528 0.74027 0.0
H229 H 0.01685 0.33588 0.73501 0.0
H230 H 1.01191 0.3562 0.81776 0.0
Co231 Co 0.77717 0.98997 0.03831 0.0
C232 C 0.77268 0.01614 0.09124 0.0
C233 C 0.80627 0.03943 0.06829 0.0
C234 C 0.8094 0.04842 0.09403 0.0
N235 N 0.78288 0.01941 0.0664 0.0
N236 N 0.78852 0.0333 0.10846 0.0
H237 H 0.75643 0.99902 0.09724 0.0
H238 H 0.82227 0.04457 0.05274 0.0
C239 C 0.78614 0.04911 0.00902 0.0
O240 O 0.7664 0.0621 0.02489 0.0
N241 N 0.77245 0.96035 0.01092 0.0
C242 C 0.7506 0.93882 0.00899 0.0
C243 C 0.75629 0.9216 0.98695 0.0
C244 C 0.79115 0.95604 0.99035 0.0
N245 N 0.78178 0.9325 0.9753 0.0
C246 C 0.7137 0.99545 0.05248 0.0
C247 C 0.69317 0.01537 0.00412 0.0
C248 C 0.67168 1.00945 0.0239 0.0
C249 C 0.68241 0.99953 0.04838 0.0
C250 C 0.7243 1.01083 0.00901 0.0
N251 N 0.73444 1.00169 0.03319 0.0
H252 H 0.72087 0.98553 0.07075 0.0
H253 H 0.74003 0.01321 0.99283 0.0
H254 H 0.732 0.93578 0.02272 0.0
H255 H 0.81163 0.96932 0.98693 0.0
O256 O 0.772 0.95782 0.06428 0.0
O257 O 0.81632 0.97224 0.04731 0.0
O258 O 0.79227 0.02066 0.01148 0.0
C259 C 0.80155 0.95466 0.06357 0.0
H260 H 0.82774 0.06225 0.10187 0.0
H261 H 0.74267 0.90261 0.98004 0.0
H262 H 0.68593 0.02203 0.98462 0.0
H263 H 0.66669 0.99426 0.06417 0.0
H264 H 0.98253 0.63099 0.29834 0.0
H265 H 0.98171 0.57601 0.28912 0.0
H266 H 0.04042 0.59042 0.22233 0.0
H267 H 0.04172 0.64531 0.23159 0.0
H268 H 0.96382 0.54482 0.2404 0.0
H269 H 0.08484 0.52497 0.26863 0.0
H270 H 0.06394 0.55859 0.27855 0.0
H271 H 0.07832 0.55556 0.24568 0.0
C272 C 0.99534 0.62244 0.28173 0.0
C273 C 0.01228 0.64253 0.26575 0.0
C274 C 0.99471 0.59107 0.27642 0.0
C275 C 1.01127 0.57914 0.25523 0.0
C276 C 0.02774 0.59914 0.23895 0.0
H277 H 0.05041 0.39744 0.19751 0.0
H278 H 0.04707 0.4523 0.20538 0.0
C279 C 0.02823 0.63054 0.24414 0.0
C280 C 1.01157 0.54573 0.25029 0.0
H281 H 0.0583 0.48329 0.25004 0.0
C282 C 0.98441 0.53128 0.24257 0.0
C283 C 0.03849 0.52822 0.25312 0.0
C284 C 0.06806 0.54246 0.26214 0.0
C285 C 0.98361 0.49981 0.23703 0.0
C286 C 1.01056 0.48222 0.23992 0.0
C287 C 0.03766 0.49674 0.24779 0.0
C288 C 1.01137 0.4488 0.23458 0.0
C289 C 0.95413 0.48591 0.22742 0.0
C290 C 0.9925 0.42842 0.24845 0.0
C291 C 0.99402 0.39693 0.2437 0.0
C292 C 0.01469 0.3851 0.22516 0.0
C293 C 0.03372 0.40564 0.21149 0.0
C294 C 0.03207 0.43708 0.21615 0.0
H295 H 0.93849 0.50354 0.21928 0.0
H296 H 0.95845 0.46847 0.21207 0.0
H297 H 0.94232 0.47461 0.24409 0.0
H298 H 0.97683 0.43681 0.26319 0.0
H299 H 0.97891 0.38188 0.25452 0.0
H300 H 0.62748 0.05665 0.45469 0.0
H301 H 0.57299 0.05325 0.4648 0.0
H302 H 0.58961 0.97297 0.51199 0.0
H303 H 0.64429 0.97662 0.50232 0.0
H304 H 0.53142 1.00996 0.45496 0.0
H305 H 0.54189 0.02481 0.56254 0.0
H306 H 0.57338 0.03138 0.54043 0.0
H307 H 0.56354 0.99309 0.55031 0.0
C308 C 0.61951 0.03819 0.46714 0.0
C309 C 0.64023 0.01695 0.47778 0.0
C310 C 0.58836 0.03632 0.47297 0.0
C311 C 0.57718 0.01316 0.48953 0.0
C312 C 0.59773 0.99154 0.49975 0.0
H313 H 0.38236 0.96783 0.50097 0.0
H314 H 0.43721 0.9671 0.49136 0.0
C315 C 0.62897 0.99357 0.49413 0.0
C316 C 0.54399 1.01159 0.49576 0.0
H317 H 0.49289 1.01124 0.54643 0.0
C318 C 0.52299 1.01027 0.47497 0.0
C319 C 0.53293 1.01244 0.52186 0.0
C320 C 0.55407 0.01582 0.54506 0.0
C321 C 0.49133 1.00967 0.47951 0.0
C322 C 0.4803 1.00955 0.50563 0.0
C323 C 0.50131 1.01097 0.52642 0.0
C324 C 0.44708 1.00927 0.51187 0.0
C325 C 0.47005 1.01014 0.45623 0.0
C326 C 0.43447 0.03259 0.52733 0.0
C327 C 0.40327 0.03279 0.53315 0.0
C328 C 0.38392 1.00968 0.52359 0.0
C329 C 0.39661 0.98613 0.50834 0.0
C330 C 0.42793 0.98578 0.50274 0.0
H331 H 0.48162 0.01884 0.4383 0.0
H332 H 0.46213 0.98652 0.45216 0.0
H333 H 0.44973 0.0246 0.46012 0.0
H334 H 0.44873 0.05094 0.53462 0.0
H335 H 0.39417 0.05145 0.54467 0.0
H336 H 0.9693 0.6315 0.72487 0.0
H337 H 0.97389 0.57722 0.73504 0.0
H338 H 0.07151 0.58273 0.72556 0.0
H339 H 0.06717 0.63719 0.71452 0.0
H340 H 1.00231 0.5302 0.7017 0.0
H341 H 0.05615 0.54259 0.80006 0.0
H342 H 0.03525 0.57331 0.78456 0.0
H343 H 0.07282 0.5637 0.77327 0.0
C344 C 0.99179 0.62124 0.72456 0.0
C345 C 0.01785 0.63886 0.71862 0.0
C346 C 0.99435 0.59018 0.73059 0.0
C347 C 0.02302 0.576 0.73119 0.0
C348 C 0.04918 0.59336 0.72548 0.0
H349 H 0.05163 0.37779 0.73784 0.0
H350 H 0.05512 0.43212 0.7266 0.0
C351 C 0.04664 0.62452 0.71926 0.0
C352 C 0.02513 0.5429 0.73742 0.0
H353 H 0.04709 0.49242 0.78509 0.0
C354 C 0.01232 0.52187 0.71982 0.0
C355 C 0.03792 0.53222 0.7612 0.0
C356 C 0.0512 0.55401 0.78105 0.0
C357 C 1.01184 0.4904 0.72542 0.0
C358 C 0.02461 0.47969 0.74921 0.0
C359 C 0.03751 0.50071 0.76679 0.0
C360 C 0.02352 0.44686 0.7566 0.0
C361 C 0.99691 0.46888 0.70622 0.0
C362 C 1.00499 0.43719 0.77748 0.0
C363 C 1.00268 0.40613 0.78382 0.0
C364 C 0.0191 0.38404 0.76954 0.0
C365 C 0.03822 0.394 0.74898 0.0
C366 C 0.04037 0.42507 0.74258 0.0
H367 H 0.98353 0.48127 0.69104 0.0
H368 H 0.01479 0.45525 0.69618 0.0
H369 H 0.98152 0.4527 0.71662 0.0
H370 H 0.99173 0.45366 0.78851 0.0
H371 H 0.98737 0.39942 0.79949 0.0
H372 H 0.37885 0.05287 0.99721 0.0
H373 H 0.43374 0.05579 0.00615 0.0
H374 H 0.44822 0.97412 0.96062 0.0
H375 H 0.39353 0.97116 0.95149 0.0
H376 H 0.47101 0.01604 0.03121 0.0
H377 H 0.51097 0.03105 0.92894 0.0
H378 H 0.47136 0.03493 0.93811 0.0
H379 H 0.48767 0.99764 0.93308 0.0
C380 C 0.39373 0.03554 0.98909 0.0
C381 C 0.38178 1.01194 0.97343 0.0
C382 C 0.42513 0.03729 0.99414 0.0
C383 C 0.44526 0.01552 0.98365 0.0
C384 C 0.43333 0.99171 0.96831 0.0
H385 H 0.62664 0.96959 0.0388 0.0
H386 H 0.57201 0.97269 0.02958 0.0
C387 C 0.402 0.99003 0.96313 0.0
C388 C 0.47856 0.01707 0.98948 0.0
H389 H 0.54907 0.01853 0.96071 0.0
C390 C 0.48807 0.01681 0.01579 0.0
C391 C 0.50088 0.01856 0.9694 0.0
C392 C 0.49224 0.02088 0.94081 0.0
C393 C 0.5192 0.01714 0.02255 0.0
C394 C 0.54152 0.01707 0.00244 0.0
C395 C 0.53201 0.01822 0.97614 0.0
C396 C 0.57482 0.01544 0.00824 0.0
C397 C 0.52781 0.01791 0.0512 0.0
C398 C 0.59488 0.03795 -0.00132 0.0
C399 C 0.62627 0.03613 0.0038 0.0
C400 C 0.63827 1.01173 0.01858 0.0
C401 C 0.61813 0.98908 0.02789 0.0
C402 C 0.58682 0.99083 0.02265 0.0
H403 H 0.509 0.02724 0.06342 0.0
H404 H 0.53252 0.99429 0.05806 0.0
H405 H 0.54859 0.03195 0.05444 0.0
H406 H 0.5862 0.05707 0.98738 0.0
H407 H 0.64111 0.054 0.99641 0.0
H408 H 0.26674 0.12617 0.44662 0.0
H409 H 0.24099 0.15128 0.40991 0.0
H410 H 0.15492 0.11353 0.43535 0.0
H411 H 0.18023 0.08922 0.47261 0.0
H412 H 0.20676 0.12427 0.36958 0.0
H413 H 0.1367 0.20511 0.42813 0.0
H414 H 0.1688 0.18468 0.4418 0.0
H415 H 0.13278 0.16566 0.43739 0.0
C416 C 0.24229 0.1235 0.44462 0.0
C417 C 0.22555 0.10581 0.46266 0.0
C418 C 0.22766 0.13769 0.42354 0.0
C419 C 0.19603 0.13458 0.42019 0.0
C420 C 0.17928 0.11661 0.43789 0.0
H421 H 0.06962 0.20414 0.30303 0.0
H422 H 0.09335 0.17703 0.33983 0.0
C423 C 0.19388 0.10244 0.45899 0.0
C424 C 0.18069 0.14976 0.39789 0.0
H425 H 0.1269 0.20328 0.38245 0.0
C426 C 0.18935 0.1416 0.37235 0.0
C427 C 0.15795 0.17227 0.40168 0.0
C428 C 0.14863 0.18271 0.42871 0.0
C429 C 0.17565 0.15523 0.3504 0.0
C430 C 0.15307 0.17787 0.3542 0.0
C431 C 0.14421 0.18585 0.37971 0.0
C432 C 0.13883 0.19404 0.3319 0.0
C433 C 0.18513 0.14503 0.32334 0.0
C434 C 0.15654 0.2128 0.31556 0.0
C435 C 0.14311 0.22821 0.29454 0.0
C436 C 0.11168 0.22518 0.28954 0.0
C437 C 0.09394 0.20658 0.30616 0.0
C438 C 0.1074 0.19124 0.32724 0.0
H439 H 0.19688 0.12253 0.32382 0.0
H440 H 0.16505 0.14339 0.31012 0.0
H441 H 0.20117 0.16207 0.31491 0.0
H442 H 0.18077 0.21558 0.31913 0.0
H443 H 0.15744 0.24212 0.28199 0.0
H444 H 0.76427 0.12868 0.55537 0.0
H445 H 0.7913 0.15115 0.59254 0.0
H446 H 0.8756 0.11127 0.56544 0.0
H447 H 0.84893 0.08948 0.52772 0.0
H448 H 0.82571 0.12171 0.63207 0.0
H449 H 0.89557 0.20305 0.57326 0.0
H450 H 0.86252 0.18377 0.56006 0.0
H451 H 0.89806 0.16368 0.56347 0.0
C452 C 0.7886 0.12492 0.55716 0.0
C453 C 0.80449 0.10751 0.53846 0.0
C454 C 0.80395 0.13756 0.5785 0.0
C455 C 0.83545 0.13315 0.58147 0.0
C456 C 0.85133 0.11527 0.56322 0.0
H457 H 0.93856 0.17699 0.72265 0.0
H458 H 0.91576 0.15065 0.68524 0.0
C459 C 0.83599 0.10259 0.54184 0.0
C460 C 0.85157 0.14745 0.60369 0.0
H461 H 0.90528 0.20109 0.61884 0.0
C462 C 0.84319 0.139 0.62925 0.0
C463 C 0.87407 0.1702 0.59978 0.0
C464 C 0.883 0.18098 0.57269 0.0
C465 C 0.85675 0.15277 0.65114 0.0
C466 C 0.87954 0.17523 0.64723 0.0
C467 C 0.88794 0.18367 0.62167 0.0
C468 C 0.8941 0.19113 0.66944 0.0
C469 C 0.84604 0.1438 0.67823 0.0
C470 C 0.89007 0.22271 0.67248 0.0
C471 C 0.90331 0.23788 0.69365 0.0
C472 C 0.92094 0.22174 0.7121 0.0
C473 C 0.92533 0.19014 0.70871 0.0
C474 C 0.91206 0.17498 0.68751 0.0
H475 H 0.82391 0.13138 0.67767 0.0
H476 H 0.86325 0.12854 0.68739 0.0
H477 H 0.84347 0.16425 0.69089 0.0
H478 H 0.87643 0.23556 0.65857 0.0
H479 H 0.89991 0.26228 0.69546 0.0
H480 H 0.78054 0.87427 0.95754 0.0
H481 H 0.80654 0.85419 0.91887 0.0
H482 H 0.84262 0.94388 0.90199 0.0
H483 H 0.81659 0.9642 0.94069 0.0
H484 H 0.80034 0.87204 0.86631 0.0
H485 H 0.91898 0.88953 0.90243 0.0
H486 H 0.88619 0.89131 0.92383 0.0
H487 H 0.89502 0.92286 0.90251 0.0
C488 C 0.7938 0.88978 0.94551 0.0
C489 C 0.79661 0.92079 0.95224 0.0
C490 C 0.80875 0.87825 0.9235 0.0
C491 C 0.82682 0.89748 0.90784 0.0
C492 C 0.82931 0.92855 0.91418 0.0
H493 H 0.93322 0.84941 0.76835 0.0
H494 H 0.90808 0.87846 0.8032 0.0
C495 C 0.81443 0.9401 0.93628 0.0
C496 C 0.84271 0.88481 0.88473 0.0
H497 H 0.91339 0.86936 0.85981 0.0
C498 C 0.82505 0.87156 0.86482 0.0
C499 C 0.87494 0.88442 0.88285 0.0
C500 C 0.89499 0.89756 0.9041 0.0
C501 C 0.8388 0.85747 0.84319 0.0
C502 C 0.87099 0.8563 0.84168 0.0
C503 C 0.88869 0.87036 0.86114 0.0
C504 C 0.88662 0.83893 0.82087 0.0
C505 C 0.8188 0.84377 0.82217 0.0
C506 C 0.88331 0.8071 0.81974 0.0
C507 C 0.8978 0.79044 0.80008 0.0
C508 C 0.91594 0.80528 0.78117 0.0
C509 C 0.91965 0.83721 0.78269 0.0
C510 C 0.90518 0.85388 0.80247 0.0
H511 H 0.79531 0.85332 0.82269 0.0
H512 H 0.82866 0.8478 0.80238 0.0
H513 H 0.81718 0.8187 0.8253 0.0
H514 H 0.86956 0.79514 0.83416 0.0
H515 H 0.89498 0.76587 0.79988 0.0
H516 H 0.25657 0.90251 0.05305 0.0
H517 H 0.22952 0.8806 0.09058 0.0
H518 H 0.14544 0.92095 0.06338 0.0
H519 H 0.17213 0.94224 0.02536 0.0
H520 H 0.19496 0.91103 0.13002 0.0
H521 H 0.12529 0.82899 0.07208 0.0
H522 H 0.15856 0.84787 0.05878 0.0
H523 H 0.12317 0.86827 0.06177 0.0
C524 C 0.23229 0.9065 0.0549 0.0
C525 C 0.21647 0.92392 0.03609 0.0
C526 C 0.21693 0.89418 0.07645 0.0
C527 C 0.18548 0.8989 0.07951 0.0
C528 C 0.16967 0.91675 0.06112 0.0
H529 H 0.08297 0.85366 0.22161 0.0
H530 H 0.10469 0.88077 0.1839 0.0
C531 C 0.18503 0.92913 0.03956 0.0
C532 C 0.1693 0.88486 0.10191 0.0
H533 H 0.11596 0.83098 0.11766 0.0
C534 C 0.17758 0.89363 0.12738 0.0
C535 C 0.14689 0.86199 0.09826 0.0
C536 C 0.13803 0.85095 0.07128 0.0
C537 C 0.16407 0.87997 0.14943 0.0
C538 C 0.1415 0.85725 0.14577 0.0
C539 C 0.13312 0.8486 0.1203 0.0
C540 C 0.12749 0.84098 0.16815 0.0
C541 C 0.17466 0.88925 0.17643 0.0
C542 C 0.13256 0.80956 0.17131 0.0
C543 C 0.12002 0.794 0.19265 0.0
C544 C 0.10204 0.80956 0.21116 0.0
C545 C 0.09654 0.84099 0.20763 0.0
C546 C 0.10916 0.85657 0.18626 0.0
H547 H 0.19637 0.90239 0.17574 0.0
H548 H 0.157 0.90386 0.18567 0.0
H549 H 0.17798 0.86884 0.18911 0.0
H550 H 0.14651 0.79714 0.15739 0.0
H551 H 0.12425 0.76973 0.19455 0.0
H552 H 0.04731 0.23168 0.11219 0.0
H553 H 0.05538 0.22844 0.06489 0.0
H554 H 0.95839 0.21779 0.05317 0.0
H555 H 0.95014 0.22154 0.10083 0.0
H556 H 0.03843 0.18157 0.02835 0.0
H557 H 0.98272 0.29348 0.00818 0.0
H558 H 0.9947 0.2821 0.04065 0.0
H559 H 0.9604 0.26653 0.02673 0.0
C560 C 0.02766 0.22903 0.09952 0.0
C561 C 0.99796 0.22767 0.11 0.0
C562 C 0.03235 0.22682 0.07257 0.0
C563 C 1.00745 0.22337 0.05561 0.0
C564 C 0.97783 0.22093 0.06602 0.0
H565 H 0.98961 0.2291 0.88763 0.0
H566 H 0.9821 0.22401 0.93481 0.0
C567 C 0.97313 0.22296 0.0931 0.0
C568 C 0.01259 0.22341 0.027 0.0
H569 H 0.99954 0.26525 0.97165 0.0
C570 C 0.0299 0.19978 0.01586 0.0
C571 C 1.00165 0.24739 0.01096 0.0
C572 C 0.98404 0.274 0.02216 0.0
C573 C 0.03603 0.19916 0.98883 0.0
C574 C 0.02506 0.22318 0.97278 0.0
C575 C 1.00787 0.24685 0.98402 0.0
C576 C 0.03031 0.22409 0.94412 0.0
C577 C 0.0536 0.17255 0.97765 0.0
C578 C 0.05999 0.22565 0.93366 0.0
C579 C 0.06434 0.22854 0.90655 0.0
C580 C 0.03908 0.2305 0.88971 0.0
C581 C 1.00948 0.22845 0.90025 0.0
C582 C 1.00516 0.22529 0.92716 0.0
H583 H 0.05351 0.15258 0.99116 0.0
H584 H 0.04396 0.1654 0.95847 0.0
H585 H 0.07769 0.17951 0.97449 0.0
H586 H 0.0797 0.22534 0.94647 0.0
H587 H 0.0873 0.23002 0.89876 0.0
H588 H 0.80247 0.0764 0.14456 0.0
H589 H 0.80431 0.0695 0.19246 0.0
H590 H 0.77684 0.97544 0.1835 0.0
H591 H 0.77522 0.98199 0.13615 0.0
H592 H 0.75274 0.04622 0.22588 0.0
H593 H 0.85702 0.97375 0.22897 0.0
H594 H 0.84826 0.99862 0.20163 0.0
H595 H 0.8284 0.96298 0.20544 0.0
C596 C 0.79689 0.0543 0.15289 0.0
C597 C 0.78852 0.02985 0.13657 0.0
C598 C 0.79791 0.0504 0.18014 0.0
C599 C 0.79104 0.02187 0.19133 0.0
C600 C 0.78253 0.99753 0.17514 0.0
H601 H 0.78463 0.94543 0.34889 0.0
H602 H 0.78577 0.9531 0.30099 0.0
C603 C 0.78127 1.00146 0.14805 0.0
C604 C 0.79193 0.01743 0.22 0.0
H605 H 0.82903 0.97852 0.26854 0.0
C606 C 0.76953 0.03164 0.23531 0.0
C607 C 0.81363 0.99802 0.232 0.0
C608 C 0.83838 0.98257 0.21627 0.0
C609 C 0.76789 0.02654 0.26244 0.0
C610 C 0.78983 1.00737 0.27456 0.0
C611 C 0.81227 0.99318 0.25919 0.0
C612 C 0.79018 1.00236 0.30328 0.0
C613 C 0.74216 0.04105 0.27768 0.0
C614 C 0.79314 0.02734 0.32025 0.0
C615 C 0.79213 0.023 0.3473 0.0
C616 C 0.78862 0.99352 0.35791 0.0
C617 C 0.78708 0.96832 0.34102 0.0
C618 C 0.78773 0.97272 0.31381 0.0
H619 H 0.72262 0.04702 0.26475 0.0
H620 H 0.73383 0.02563 0.29347 0.0
H621 H 0.75047 0.06249 0.28684 0.0
H622 H 0.79613 0.05026 0.31257 0.0
H623 H 0.79432 0.0427 0.35997 0.0
H624 H 0.02233 0.73371 0.60516 0.0
H625 H 1.01116 0.73226 0.55818 0.0
H626 H 0.04403 0.82467 0.54992 0.0
H627 H 0.05456 0.82669 0.59695 0.0
H628 H 0.96956 0.77774 0.53304 0.0
H629 H 0.08625 0.7731 0.4898 0.0
H630 H 0.07831 0.761 0.52304 0.0
H631 H 0.07979 0.80096 0.51514 0.0
C632 C 0.02741 0.75366 0.59334 0.0
C633 C 0.03912 0.78039 0.60492 0.0
C634 C 0.02107 0.75275 0.56652 0.0
C635 C 0.02675 0.77836 0.55071 0.0
C636 C 0.03975 0.80459 0.56185 0.0
H637 H 0.9599 0.82556 0.3955 0.0
H638 H 0.96918 0.82386 0.44288 0.0
C639 C 0.04593 0.80561 0.58873 0.0
C640 C 0.01731 0.77827 0.52291 0.0
H641 H 0.04493 0.7787 0.46036 0.0
C642 C 0.98597 0.77791 0.5171 0.0
C643 C 0.03887 0.77843 0.50232 0.0
C644 C 0.07273 0.7782 0.50771 0.0
C645 C 0.9756 0.77793 0.49105 0.0
C646 C 0.99717 0.77833 0.47046 0.0
C647 C 0.0285 0.77848 0.47629 0.0
C648 C 0.98785 0.77808 0.44262 0.0
C649 C 0.94176 0.77711 0.48563 0.0
C650 C 0.99468 0.75267 0.42703 0.0
C651 C 0.98917 0.75348 0.4001 0.0
C652 C 0.97708 0.77986 0.38819 0.0
C653 C 0.9689 0.80479 0.40409 0.0
C654 C 0.97433 0.80391 0.43113 0.0
H655 H 0.92829 0.77183 0.50356 0.0
H656 H 0.93436 0.79973 0.47805 0.0
H657 H 0.93647 0.75979 0.4704 0.0
H658 H 1.00504 0.73251 0.43562 0.0
H659 H 0.99531 0.7338 0.3884 0.0
H660 H 0.28376 0.99023 0.64124 0.0
H661 H 0.28444 1.00026 0.68843 0.0
H662 H 0.18824 0.97986 0.69285 0.0
H663 H 0.18723 0.9703 0.64562 0.0
H664 H 0.24579 0.04713 0.71161 0.0
H665 H 0.2278 0.93172 0.75531 0.0
H666 H 0.24225 0.93712 0.7224 0.0
H667 H 0.20241 0.94257 0.72916 0.0
C668 C 0.26283 0.98753 0.65232 0.0
C669 C 0.23543 0.97964 0.63965 0.0
C670 C 0.26328 0.9932 0.67923 0.0
C671 C 0.23641 0.99073 0.69402 0.0
C672 C 0.20929 0.98149 0.68176 0.0
H673 H 0.19073 0.05691 0.84946 0.0
H674 H 0.19098 0.04625 0.80233 0.0
C675 C 0.20879 0.97591 0.65477 0.0
C676 C 0.23634 1.00023 0.7218 0.0
H677 H 0.22743 0.97384 0.78438 0.0
C678 C 0.24182 0.03114 0.72754 0.0
C679 C 0.23109 0.97924 0.74241 0.0
C680 C 0.22575 0.94573 0.73718 0.0
C681 C 0.24206 0.04163 0.75351 0.0
C682 C 0.23682 0.02066 0.77405 0.0
C683 C 0.23135 0.98977 0.76839 0.0
C684 C 0.23765 0.03021 0.80172 0.0
C685 C 0.24809 0.07494 0.75901 0.0
C686 C 0.26408 0.02538 0.81658 0.0
C687 C 0.26416 0.03176 0.84338 0.0
C688 C 0.23768 0.04278 0.85579 0.0
C689 C 0.21159 0.0488 0.84051 0.0
C690 C 0.21159 0.04249 0.81364 0.0
H691 H 0.25279 0.08819 0.74083 0.0
H692 H 0.228 0.08507 0.76902 0.0
H693 H 0.26792 0.07718 0.77245 0.0
H694 H 0.28441 0.016 0.80755 0.0
H695 H 0.28467 0.02726 0.85458 0.0
H696 H 0.1118 0.24619 0.14605 0.0
H697 H 0.14127 0.21937 0.11225 0.0
H698 H 0.10339 0.13345 0.13805 0.0
H699 H 0.07408 0.15995 0.172 0.0
H700 H 0.18459 0.16555 0.12058 0.0
H701 H 0.08494 0.14246 0.05593 0.0
H702 H 0.08514 0.1728 0.07992 0.0
H703 H 0.08004 0.13389 0.09025 0.0
C704 C 0.10995 0.22155 0.14468 0.0
C705 C 0.09069 0.20518 0.16178 0.0
C706 C 0.12675 0.2063 0.12534 0.0
C707 C 0.12427 0.1745 0.12254 0.0
C708 C 0.1054 0.15805 0.13978 0.0
H709 H 0.19271 0.03527 0.01826 0.0
H710 H 0.16653 0.06552 0.05163 0.0
C711 C 0.08882 0.17322 0.15926 0.0
C712 C 0.14133 0.15837 0.1016 0.0
H713 H 0.13163 0.11854 0.04466 0.0
C714 C 0.17312 0.15542 0.10386 0.0
C715 C 0.12622 0.14526 0.07985 0.0
C716 C 0.09222 0.14884 0.07607 0.0
C717 C 0.19015 0.13888 0.0853 0.0
C718 C 0.175 0.12541 0.06368 0.0
C719 C 0.14321 0.12877 0.06127 0.0
C720 C 0.19157 0.10716 0.04362 0.0
C721 C 0.22406 0.13516 0.08943 0.0
C722 C 0.21432 0.12051 0.02789 0.0
C723 C 0.22943 0.10323 0.00876 0.0
C724 C 0.22196 0.07228 0.00488 0.0
C725 C 0.19913 0.05901 0.02069 0.0
C726 C 0.18406 0.0763 0.03978 0.0
H727 H 0.23085 0.14043 0.10993 0.0
H728 H 0.23144 0.11152 0.08472 0.0
H729 H 0.23645 0.1511 0.07622 0.0
H730 H 0.22012 0.14443 0.03016 0.0
H731 H 0.24673 0.11425 0.99685 0.0
H732 H 0.99837 0.19872 0.27569 0.0
H733 H 0.96721 0.17178 0.30827 0.0
H734 H 0.88665 0.21729 0.27933 0.0
H735 H 0.91754 0.24426 0.24661 0.0
H736 H 0.92795 0.19708 0.3481 0.0
H737 H 0.86439 0.12508 0.27685 0.0
H738 H 0.89938 0.14464 0.26839 0.0
H739 H 0.86415 0.16549 0.27031 0.0
C740 C 0.97402 0.20303 0.27622 0.0
C741 C 0.96044 0.22355 0.2584 0.0
C742 C 0.95626 0.18763 0.29489 0.0
C743 C 0.92456 0.19219 0.29597 0.0
C744 C 0.911 0.21303 0.27854 0.0
H745 H 0.7812 0.1077 0.39131 0.0
H746 H 0.80975 0.13923 0.35988 0.0
C747 C 0.92875 0.22857 0.25994 0.0
C748 C 0.90576 0.17527 0.31547 0.0
H749 H 0.84946 0.12153 0.32127 0.0
C750 C 0.9108 0.18055 0.34227 0.0
C751 C 0.88327 0.15384 0.30779 0.0
C752 C 0.87751 0.14663 0.27929 0.0
C753 C 0.8938 0.16513 0.36161 0.0
C754 C 0.87164 0.14329 0.35397 0.0
C755 C 0.8664 0.13827 0.32714 0.0
C756 C 0.8543 0.12478 0.37347 0.0
C757 C 0.8994 0.17282 0.39005 0.0
C758 C 0.86978 0.10591 0.39137 0.0
C759 C 0.85356 0.08804 0.4094 0.0
C760 C 0.82145 0.08841 0.40977 0.0
C761 C 0.80592 0.1071 0.39168 0.0
C762 C 0.82221 0.12506 0.37366 0.0
H763 H 0.90975 0.19587 0.39224 0.0
H764 H 0.87787 0.17203 0.40155 0.0
H765 H 0.91552 0.15592 0.39854 0.0
H766 H 0.89448 0.10465 0.39118 0.0
H767 H 0.86623 0.07365 0.42285 0.0
H768 H 0.76047 0.93587 0.52166 0.0
H769 H 0.78757 0.90749 0.55603 0.0
H770 H 0.87227 0.94964 0.53197 0.0
H771 H 0.84486 0.97956 0.49905 0.0
H772 H 0.82774 0.86661 0.55635 0.0
H773 H 0.88014 0.96449 0.60723 0.0
H774 H 0.85195 0.96962 0.58189 0.0
H775 H 0.89169 0.96448 0.57357 0.0
C776 C 0.78483 0.93922 0.52395 0.0
C777 C 0.80052 0.96015 0.50795 0.0
C778 C 0.80035 0.92298 0.54358 0.0
C779 C 0.83199 0.92689 0.54723 0.0
C780 C 0.84775 0.94706 0.53048 0.0
H781 H 0.9467 0.79147 0.62463 0.0
H782 H 0.91529 0.82108 0.59416 0.0
C783 C 0.83211 0.96395 0.51144 0.0
C784 C 0.84864 0.90915 0.56783 0.0
H785 H 0.90275 0.91545 0.61579 0.0
C786 C 0.84384 0.87743 0.56957 0.0
C787 C 0.86922 0.92309 0.58565 0.0
C788 C 0.87325 0.95732 0.58719 0.0
C789 C 0.85945 0.85928 0.588 0.0
C790 C 0.88185 0.87288 0.60436 0.0
C791 C 0.88607 0.90472 0.60307 0.0
C792 C 0.90117 0.85472 0.62289 0.0
C793 C 0.85102 0.82589 0.59006 0.0
C794 C 0.90525 0.86443 0.64898 0.0
C795 C 0.9243 0.84817 0.66611 0.0
C796 C 0.93905 0.82148 0.65769 0.0
C797 C 0.93501 0.81166 0.63173 0.0
C798 C 0.91678 0.82845 0.61437 0.0
H799 H 0.82697 0.822 0.58396 0.0
H800 H 0.86577 0.81243 0.57669 0.0
H801 H 0.85386 0.81712 0.61036 0.0
H802 H 0.89369 0.88464 0.65614 0.0
H803 H 0.92715 0.85622 0.68604 0.0
H804 H 0.05158 0.76558 0.79915 0.0
H805 H 0.08589 0.79439 0.82777 0.0
H806 H 0.08484 0.86977 0.77303 0.0
H807 H 0.05168 0.84049 0.74379 0.0
H808 H 0.14009 0.86286 0.79124 0.0
H809 H 0.06093 0.86115 0.87588 0.0
H810 H 0.07119 0.82337 0.86563 0.0
H811 H 0.0498 0.84782 0.84386 0.0
C812 C 0.05873 0.78826 0.79318 0.0
C813 C 0.04871 0.80081 0.76927 0.0
C814 C 0.07819 0.80485 0.80968 0.0
C815 C 0.0874 0.83467 0.80299 0.0
C816 C 0.07798 0.84691 0.77879 0.0
H817 H 0.15465 0.96817 0.91459 0.0
H818 H 0.1251 0.9372 0.88394 0.0
C819 C 0.05897 0.83013 0.76207 0.0
C820 C 0.10667 0.85322 0.82115 0.0
H821 H 0.111 0.87965 0.88408 0.0
C822 C 0.13366 0.8666 0.81152 0.0
C823 C 0.09811 0.85868 0.84755 0.0
C824 C 0.06828 0.84728 0.85877 0.0
C825 C 0.15232 0.88503 0.82748 0.0
C826 C 0.14441 0.88937 0.85418 0.0
C827 C 0.11736 0.87609 0.86375 0.0
C828 C 0.16305 0.9085 0.87237 0.0
C829 C 0.17973 0.90042 0.81526 0.0
C830 C 0.19431 0.90272 0.87636 0.0
C831 C 0.21141 0.9208 0.89367 0.0
C832 C 0.19743 0.94455 0.90778 0.0
C833 C 0.16609 0.94996 0.90411 0.0
C834 C 0.14915 0.93224 0.88655 0.0
H835 H 0.1773 0.90248 0.79363 0.0
H836 H 0.18334 0.92362 0.82349 0.0
H837 H 0.2004 0.88651 0.81925 0.0
H838 H 0.20546 0.88405 0.8663 0.0
H839 H 0.23548 0.91593 0.89622 0.0
H840 H 0.06346 0.86717 0.32875 0.0
H841 H 0.09511 0.8942 0.36074 0.0
H842 H 0.1306 0.80819 0.38874 0.0
H843 H 0.09907 0.78092 0.35667 0.0
H844 H 0.09419 0.88718 0.41626 0.0
H845 H 0.20808 0.85973 0.37436 0.0
H846 H 0.17315 0.8555 0.3559 0.0
H847 H 0.18346 0.82752 0.38017 0.0
C848 C 0.07813 0.85397 0.34159 0.0
C849 C 0.07887 0.82188 0.34007 0.0
C850 C 0.09617 0.86948 0.35989 0.0
C851 C 0.1155 0.85326 0.3769 0.0
C852 C 0.11626 0.82121 0.37549 0.0
H853 H 0.23924 0.91031 0.50156 0.0
H854 H 0.20992 0.88151 0.46905 0.0
C855 C 0.09813 0.80565 0.35723 0.0
C856 C 0.1341 0.86995 0.39661 0.0
H857 H 0.20746 0.88584 0.41495 0.0
C858 C 0.11896 0.88697 0.41595 0.0
C859 C 0.1664 0.86948 0.39625 0.0
C860 C 0.18385 0.8523 0.37546 0.0
C861 C 0.13522 0.90331 0.4351 0.0
C862 C 0.16756 0.90322 0.43455 0.0
C863 C 0.1827 0.88598 0.41533 0.0
C864 C 0.18602 0.92097 0.45372 0.0
C865 C 0.11758 0.91999 0.45609 0.0
C866 C 0.18288 0.95284 0.45553 0.0
C867 C 0.19953 0.96937 0.47415 0.0
C868 C 0.21993 0.9544 0.4912 0.0
C869 C 0.2237 0.92258 0.4888 0.0
C870 C 0.20695 0.90606 0.47022 0.0
H871 H 0.094 0.91088 0.45817 0.0
H872 H 0.12924 0.91828 0.47538 0.0
H873 H 0.11586 0.94452 0.45071 0.0
H874 H 0.16744 0.96496 0.44259 0.0
H875 H 0.19623 0.99387 0.47526 0.0
H876 H 0.17027 0.09668 0.56069 0.0
H877 H 0.14306 0.13018 0.5912 0.0
H878 H 0.2057 0.1045 0.65284 0.0
H879 H 0.23419 0.07293 0.62177 0.0
H880 H 0.11195 0.1203 0.63125 0.0
H881 H 0.20729 0.19267 0.66497 0.0
H882 H 0.21146 0.16645 0.63802 0.0
H883 H 0.21552 0.15329 0.67143 0.0
C884 C 0.17842 0.09865 0.58068 0.0
C885 C 0.20451 0.08266 0.58884 0.0
C886 C 0.16284 0.11772 0.59816 0.0
C887 C 0.17259 0.1206 0.62435 0.0
C888 C 0.19832 0.10387 0.6326 0.0
H889 H 0.04875 0.1788 0.74813 0.0
H890 H 0.07803 0.15072 0.71532 0.0
C891 C 0.21447 0.08558 0.61488 0.0
C892 C 0.15494 0.13985 0.64321 0.0
H893 H 0.16233 0.19295 0.69188 0.0
C894 C 0.12303 0.13645 0.64425 0.0
C895 C 0.16904 0.1615 0.65997 0.0
C896 C 0.20265 0.16894 0.65832 0.0
C897 C 0.10502 0.15352 0.66171 0.0
C898 C 0.11937 0.17347 0.6798 0.0
C899 C 0.1512 0.17735 0.67841 0.0
C900 C 0.10192 0.1905 0.70028 0.0
C901 C 0.07074 0.15044 0.65992 0.0
C902 C 0.1066 0.22204 0.70394 0.0
C903 C 0.09067 0.23793 0.72347 0.0
C904 C 0.06931 0.22271 0.73937 0.0
C905 C 0.06469 0.19121 0.73582 0.0
C906 C 0.08125 0.17518 0.71685 0.0
H907 H 0.06353 0.14384 0.63981 0.0
H908 H 0.06299 0.13211 0.67346 0.0
H909 H 0.05902 0.17207 0.66517 0.0
H910 H 0.12249 0.23447 0.6916 0.0
H911 H 0.09467 0.26221 0.7258 0.0
H912 H 0.95615 0.15985 0.82708 0.0
H913 H 0.92459 0.13266 0.85911 0.0
H914 H 0.89364 0.21865 0.89053 0.0
H915 H 0.92515 0.24613 0.85838 0.0
H916 H 0.92799 0.13736 0.91488 0.0
H917 H 0.81363 0.17041 0.87688 0.0
H918 H 0.84797 0.17403 0.85748 0.0
H919 H 0.83983 0.2013 0.8828 0.0
C920 C 0.94246 0.17304 0.84065 0.0
C921 C 0.943 0.20518 0.84005 0.0
C922 C 0.92448 0.15743 0.859 0.0
C923 C 0.90647 0.17359 0.87701 0.0
C924 C 0.90694 0.20571 0.87651 0.0
H925 H 0.78404 0.11122 0.00164 0.0
H926 H 0.81328 0.14183 0.97014 0.0
C927 C 0.92502 0.22137 0.85818 0.0
C928 C 0.88801 0.15666 0.89676 0.0
H929 H 0.81479 0.14142 0.91604 0.0
C930 C 0.90324 0.13822 0.91514 0.0
C931 C 0.85573 0.15797 0.89716 0.0
C932 C 0.83818 0.17678 0.87744 0.0
C933 C 0.8871 0.12114 0.93398 0.0
C934 C 0.85476 0.12193 0.93407 0.0
C935 C 0.83954 0.14072 0.91591 0.0
C936 C 0.83638 0.10318 0.9527 0.0
C937 C 0.9049 0.10285 0.95391 0.0
C938 C 0.83907 0.07118 0.95301 0.0
C939 C 0.82248 0.05362 0.97104 0.0
C940 C 0.80255 0.06766 0.98902 0.0
C941 C 0.79921 0.09965 0.98815 0.0
C942 C 0.81592 0.1172 0.97014 0.0
H943 H 0.92863 0.11151 0.95602 0.0
H944 H 0.89365 0.10339 0.97342 0.0
H945 H 0.9062 0.0787 0.94739 0.0
H946 H 0.8541 0.05975 0.93931 0.0
H947 H 0.82541 0.02904 0.97096 0.0
H948 H 0.93527 0.76045 0.22097 0.0
H949 H 0.90763 0.78679 0.18578 0.0
H950 H 0.93938 0.8736 0.21535 0.0
H951 H 0.96892 0.84706 0.24911 0.0
H952 H 0.86349 0.82248 0.18367 0.0
H953 H 0.95962 0.88786 0.14192 0.0
H954 H 0.96533 0.85892 0.16659 0.0
H955 H 0.95503 0.8974 0.17579 0.0
C956 C 0.93653 0.78515 0.21971 0.0
C957 C 0.95448 0.80172 0.23752 0.0
C958 C 0.92069 0.80025 0.19962 0.0
C959 C 0.92188 0.83232 0.19728 0.0
C960 C 0.939 0.84887 0.21581 0.0
H961 H 0.78297 0.93547 0.11185 0.0
H962 H 0.81197 0.90573 0.14385 0.0
C963 C 0.95565 0.8337 0.23533 0.0
C964 C 0.90446 0.84839 0.17609 0.0
H965 H 0.90953 0.90541 0.13034 0.0
C966 C 0.87377 0.84034 0.17179 0.0
C967 C 0.91774 0.87132 0.15999 0.0
C968 C 0.95132 0.87908 0.16112 0.0
C969 C 0.85599 0.85477 0.1524 0.0
C970 C 0.86861 0.87932 0.13772 0.0
C971 C 0.89946 0.88699 0.1417 0.0
C972 C 0.85052 0.89733 0.11813 0.0
C973 C 0.8242 0.84271 0.14748 0.0
C974 C 0.86281 0.90403 0.09324 0.0
C975 C 0.84681 0.92241 0.0754 0.0
C976 C 0.8178 0.93386 0.08176 0.0
C977 C 0.80517 0.92671 0.10634 0.0
C978 C 0.82165 0.9093 0.12456 0.0
H979 H 0.8225 0.81806 0.15262 0.0
H980 H 0.80776 0.85517 0.16009 0.0
H981 H 0.81736 0.84556 0.12665 0.0
H982 H 0.88498 0.89524 0.08763 0.0
H983 H 0.8571 0.9276 0.05658 0.0
loop_
_geom_bond_atom_site_label_1
_geom_bond_atom_site_label_2
_geom_bond_distance
_geom_bond_site_symmetry_2
_ccdc_geom_bond_type
Co0 N4 2.148 . S
Co0 N10 2.128 . S
Co0 N20 2.194 . S
Co0 O25 2.351 . S
Co0 O26 2.155 . S
Co0 O27 2.096 . S
C1 N4 1.301 . S
C1 N5 1.328 . S
C1 H6 0.930 . S
C2 C3 1.333 1_455 S
C2 N4 1.317 . S
C2 H7 0.930 1_455 S
C3 C2 1.333 1_655 S
C3 N5 1.350 1_655 S
C3 H29 0.931 . S
N4 Co0 2.148 . S
N4 C1 1.301 . S
N4 C2 1.317 . S
N5 C1 1.328 . S
N5 C3 1.350 1_455 S
H6 C1 0.930 . S
H7 C2 0.930 1_655 S
C8 O9 1.224 . S
C8 O27 1.247 . S
O9 C8 1.224 . S
N10 Co0 2.128 . S
N10 C11 1.355 . S
N10 C13 1.311 . S
C11 N10 1.355 . S
C11 C12 1.363 . S
C11 H23 0.929 . S
C12 C11 1.363 . S
C12 N14 1.375 . S
C12 H30 0.931 . S
C13 N10 1.311 . S
C13 N14 1.347 . S
C13 H24 0.929 . S
N14 C12 1.375 . S
N14 C13 1.347 . S
C15 C18 1.365 . S
C15 N20 1.328 . S
C15 H21 0.929 . S
C16 C17 1.362 . S
C16 C19 1.378 . S
C16 H31 0.929 . S
C17 C16 1.362 . S
C17 C18 1.366 . S
C18 C15 1.365 . S
C18 C17 1.366 . S
C18 H32 0.930 . S
C19 C16 1.378 . S
C19 N20 1.315 . S
C19 H22 0.930 . S
N20 Co0 2.194 . S
N20 C15 1.328 . S
N20 C19 1.315 . S
H21 C15 0.929 . S
H22 C19 0.930 . S
H23 C11 0.929 . S
H24 C13 0.929 . S
O25 Co0 2.351 . S
O25 C28 1.244 . S
O26 Co0 2.155 . S
O26 C28 1.240 . S
O27 Co0 2.096 . S
O27 C8 1.247 . S
C28 O25 1.244 . S
C28 O26 1.240 . S
H29 C3 0.931 . S
H30 C12 0.931 . S
H31 C16 0.929 . S
H32 C18 0.930 . S
Co33 N37 2.148 . S
Co33 N43 2.128 . S
Co33 N53 2.194 . S
Co33 O58 2.351 . S
Co33 O59 2.155 . S
Co33 O60 2.096 . S
C34 N37 1.301 . S
C34 N38 1.328 . S
C34 H39 0.930 . S
C35 C36 1.333 1_545 S
C35 N37 1.317 . S
C35 H40 0.930 1_545 S
C36 C35 1.333 1_565 S
C36 N38 1.350 1_565 S
C36 H62 0.931 . S
N37 Co33 2.148 . S
N37 C34 1.301 . S
N37 C35 1.317 . S
N38 C34 1.328 . S
N38 C36 1.350 1_545 S
H39 C34 0.930 . S
H40 C35 0.930 1_565 S
C41 O42 1.224 . S
C41 O60 1.247 . S
O42 C41 1.224 . S
N43 Co33 2.128 . S
N43 C44 1.355 . S
N43 C46 1.311 . S
C44 N43 1.355 . S
C44 C45 1.363 . S
C44 H56 0.929 . S
C45 C44 1.363 . S
C45 N47 1.375 . S
C45 H63 0.931 . S
C46 N43 1.311 . S
C46 N47 1.347 . S
C46 H57 0.929 . S
N47 C45 1.375 . S
N47 C46 1.347 . S
C48 C51 1.365 . S
C48 N53 1.328 . S
C48 H54 0.929 . S
C49 C50 1.362 . S
C49 C52 1.378 . S
C49 H64 0.929 . S
C50 C49 1.362 . S
C50 C51 1.366 . S
C51 C48 1.365 . S
C51 C50 1.366 . S
C51 H65 0.930 . S
C52 C49 1.378 . S
C52 N53 1.315 . S
C52 H55 0.930 . S
N53 Co33 2.194 . S
N53 C48 1.328 . S
N53 C52 1.315 . S
H54 C48 0.929 . S
H55 C52 0.930 . S
H56 C44 0.929 . S
H57 C46 0.929 . S
O58 Co33 2.351 . S
O58 C61 1.244 . S
O59 Co33 2.155 . S
O59 C61 1.240 . S
O60 Co33 2.096 . S
O60 C41 1.247 . S
C61 O58 1.244 . S
C61 O59 1.240 . S
H62 C36 0.931 . S
H63 C45 0.931 . S
H64 C49 0.929 . S
H65 C51 0.930 . S
Co66 N70 2.148 . S
Co66 N76 2.128 . S
Co66 N86 2.194 . S
Co66 O91 2.351 . S
Co66 O92 2.155 . S
Co66 O93 2.096 . S
C67 N70 1.301 . S
C67 N71 1.328 . S
C67 H72 0.930 . S
C68 C69 1.333 1_655 S
C68 N70 1.317 . S
C68 H73 0.930 1_655 S
C69 C68 1.333 1_455 S
C69 N71 1.350 1_455 S
C69 H95 0.931 . S
N70 Co66 2.148 . S
N70 C67 1.301 . S
N70 C68 1.317 . S
N71 C67 1.328 . S
N71 C69 1.350 1_655 S
H72 C67 0.930 . S
H73 C68 0.930 1_455 S
C74 O75 1.224 . S
C74 O93 1.247 . S
O75 C74 1.224 . S
N76 Co66 2.128 . S
N76 C77 1.355 . S
N76 C79 1.311 . S
C77 N76 1.355 . S
C77 C78 1.363 . S
C77 H89 0.929 . S
C78 C77 1.363 . S
C78 N80 1.375 . S
C78 H96 0.931 . S
C79 N76 1.311 . S
C79 N80 1.347 . S
C79 H90 0.929 . S
N80 C78 1.375 . S
N80 C79 1.347 . S
C81 C84 1.365 . S
C81 N86 1.328 . S
C81 H87 0.929 . S
C82 C83 1.362 . S
C82 C85 1.378 . S
C82 H97 0.929 . S
C83 C82 1.362 . S
C83 C84 1.366 . S
C84 C81 1.365 . S
C84 C83 1.366 . S
C84 H98 0.930 . S
C85 C82 1.378 . S
C85 N86 1.315 . S
C85 H88 0.930 . S
N86 Co66 2.194 . S
N86 C81 1.328 . S
N86 C85 1.315 . S
H87 C81 0.929 . S
H88 C85 0.930 . S
H89 C77 0.929 . S
H90 C79 0.929 . S
O91 Co66 2.351 . S
O91 C94 1.244 . S
O92 Co66 2.155 . S
O92 C94 1.240 . S
O93 Co66 2.096 . S
O93 C74 1.247 . S
C94 O91 1.244 . S
C94 O92 1.240 . S
H95 C69 0.931 . S
H96 C78 0.931 . S
H97 C82 0.929 . S
H98 C84 0.930 . S
Co99 N103 2.148 . S
Co99 N109 2.128 . S
Co99 N119 2.194 . S
Co99 O124 2.351 . S
Co99 O125 2.155 . S
Co99 O126 2.096 . S
C100 N103 1.301 . S
C100 N104 1.328 . S
C100 H105 0.930 . S
C101 C102 1.333 1_565 S
C101 N103 1.317 . S
C101 H106 0.930 1_565 S
C102 C101 1.333 1_545 S
C102 N104 1.350 1_545 S
C102 H128 0.931 . S
N103 Co99 2.148 . S
N103 C100 1.301 . S
N103 C101 1.317 . S
N104 C100 1.328 . S
N104 C102 1.350 1_565 S
H105 C100 0.930 . S
H106 C101 0.930 1_545 S
C107 O108 1.224 . S
C107 O126 1.247 . S
O108 C107 1.224 . S
N109 Co99 2.128 . S
N109 C110 1.355 . S
N109 C112 1.311 1_556 S
C110 N109 1.355 . S
C110 C111 1.363 1_556 S
C110 H122 0.929 . S
C111 C110 1.363 1_554 S
C111 N113 1.375 . S
C111 H129 0.931 . S
C112 N109 1.311 1_554 S
C112 N113 1.347 . S
C112 H123 0.929 . S
N113 C111 1.375 . S
N113 C112 1.347 . S
C114 C117 1.365 . S
C114 N119 1.328 . S
C114 H120 0.929 . S
C115 C116 1.362 . S
C115 C118 1.378 . S
C115 H130 0.929 . S
C116 C115 1.362 . S
C116 C117 1.366 . S
C117 C114 1.365 . S
C117 C116 1.366 . S
C117 H131 0.930 . S
C118 C115 1.378 . S
C118 N119 1.315 . S
C118 H121 0.930 . S
N119 Co99 2.194 . S
N119 C114 1.328 . S
N119 C118 1.315 . S
H120 C114 0.929 . S
H121 C118 0.930 . S
H122 C110 0.929 . S
H123 C112 0.929 . S
O124 Co99 2.351 . S
O124 C127 1.244 . S
O125 Co99 2.155 . S
O125 C127 1.240 . S
O126 Co99 2.096 . S
O126 C107 1.247 . S
C127 O124 1.244 . S
C127 O125 1.240 . S
H128 C102 0.931 . S
H129 C111 0.931 . S
H130 C115 0.929 . S
H131 C117 0.930 . S
Co132 N136 2.148 . S
Co132 N142 2.128 . S
Co132 N152 2.194 . S
Co132 O157 2.351 . S
Co132 O158 2.155 . S
Co132 O159 2.096 . S
C133 N136 1.301 . S
C133 N137 1.328 . S
C133 H138 0.930 . S
C134 C135 1.333 1_455 S
C134 N136 1.317 . S
C134 H139 0.930 1_455 S
C135 C134 1.333 1_655 S
C135 N137 1.350 1_655 S
C135 H161 0.931 . S
N136 Co132 2.148 . S
N136 C133 1.301 . S
N136 C134 1.317 . S
N137 C133 1.328 . S
N137 C135 1.350 1_455 S
H138 C133 0.930 . S
H139 C134 0.930 1_655 S
C140 O141 1.224 . S
C140 O159 1.247 . S
O141 C140 1.224 . S
N142 Co132 2.128 . S
N142 C143 1.355 . S
N142 C145 1.311 . S
C143 N142 1.355 . S
C143 C144 1.363 . S
C143 H155 0.929 . S
C144 C143 1.363 . S
C144 N146 1.375 . S
C144 H162 0.931 . S
C145 N142 1.311 . S
C145 N146 1.347 . S
C145 H156 0.929 . S
N146 C144 1.375 . S
N146 C145 1.347 . S
C147 C150 1.365 . S
C147 N152 1.328 . S
C147 H153 0.929 . S
C148 C149 1.362 . S
C148 C151 1.378 . S
C148 H163 0.929 . S
C149 C148 1.362 . S
C149 C150 1.366 . S
C150 C147 1.365 . S
C150 C149 1.366 . S
C150 H164 0.930 . S
C151 C148 1.378 . S
C151 N152 1.315 . S
C151 H154 0.930 . S
N152 Co132 2.194 . S
N152 C147 1.328 . S
N152 C151 1.315 . S
H153 C147 0.929 . S
H154 C151 0.930 . S
H155 C143 0.929 . S
H156 C145 0.929 . S
O157 Co132 2.351 . S
O157 C160 1.244 . S
O158 Co132 2.155 . S
O158 C160 1.240 . S
O159 Co132 2.096 . S
O159 C140 1.247 . S
C160 O157 1.244 . S
C160 O158 1.240 . S
H161 C135 0.931 . S
H162 C144 0.931 . S
H163 C148 0.929 . S
H164 C150 0.930 . S
Co165 N169 2.148 . S
Co165 N175 2.128 . S
Co165 N185 2.194 . S
Co165 O190 2.351 . S
Co165 O191 2.155 . S
Co165 O192 2.096 . S
C166 N169 1.301 . S
C166 N170 1.328 . S
C166 H171 0.930 . S
C167 C168 1.333 1_545 S
C167 N169 1.317 . S
C167 H172 0.930 1_545 S
C168 C167 1.333 1_565 S
C168 N170 1.350 1_565 S
C168 H194 0.931 . S
N169 Co165 2.148 . S
N169 C166 1.301 . S
N169 C167 1.317 . S
N170 C166 1.328 . S
N170 C168 1.350 1_545 S
H171 C166 0.930 . S
H172 C167 0.930 1_565 S
C173 O174 1.224 . S
C173 O192 1.247 . S
O174 C173 1.224 . S
N175 Co165 2.128 . S
N175 C176 1.355 . S
N175 C178 1.311 . S
C176 N175 1.355 . S
C176 C177 1.363 . S
C176 H188 0.929 . S
C177 C176 1.363 . S
C177 N179 1.375 . S
C177 H195 0.931 . S
C178 N175 1.311 . S
C178 N179 1.347 . S
C178 H189 0.929 . S
N179 C177 1.375 . S
N179 C178 1.347 . S
C180 C183 1.365 . S
C180 N185 1.328 . S
C180 H186 0.929 . S
C181 C182 1.362 . S
C181 C184 1.378 . S
C181 H196 0.929 . S
C182 C181 1.362 . S
C182 C183 1.366 . S
C183 C180 1.365 . S
C183 C182 1.366 . S
C183 H197 0.930 . S
C184 C181 1.378 . S
C184 N185 1.315 . S
C184 H187 0.930 . S
N185 Co165 2.194 . S
N185 C180 1.328 . S
N185 C184 1.315 . S
H186 C180 0.929 . S
H187 C184 0.930 . S
H188 C176 0.929 . S
H189 C178 0.929 . S
O190 Co165 2.351 . S
O190 C193 1.244 . S
O191 Co165 2.155 . S
O191 C193 1.240 . S
O192 Co165 2.096 . S
O192 C173 1.247 . S
C193 O190 1.244 . S
C193 O191 1.240 . S
H194 C168 0.931 . S
H195 C177 0.931 . S
H196 C181 0.929 . S
H197 C183 0.930 . S
Co198 N202 2.148 . S
Co198 N208 2.128 . S
Co198 N218 2.194 . S
Co198 O223 2.351 . S
Co198 O224 2.155 . S
Co198 O225 2.096 . S
C199 N202 1.301 . S
C199 N203 1.328 . S
C199 H204 0.930 . S
C200 C201 1.333 1_655 S
C200 N202 1.317 . S
C200 H205 0.930 1_655 S
C201 C200 1.333 1_455 S
C201 N203 1.350 1_455 S
C201 H227 0.931 . S
N202 Co198 2.148 . S
N202 C199 1.301 . S
N202 C200 1.317 . S
N203 C199 1.328 . S
N203 C201 1.350 1_655 S
H204 C199 0.930 . S
H205 C200 0.930 1_455 S
C206 O207 1.224 . S
C206 O225 1.247 . S
O207 C206 1.224 . S
N208 Co198 2.128 . S
N208 C209 1.355 . S
N208 C211 1.311 . S
C209 N208 1.355 . S
C209 C210 1.363 . S
C209 H221 0.929 . S
C210 C209 1.363 . S
C210 N212 1.375 . S
C210 H228 0.931 . S
C211 N208 1.311 . S
C211 N212 1.347 . S
C211 H222 0.929 . S
N212 C210 1.375 . S
N212 C211 1.347 . S
C213 C216 1.365 . S
C213 N218 1.328 . S
C213 H219 0.929 . S
C214 C215 1.362 . S
C214 C217 1.378 . S
C214 H229 0.929 . S
C215 C214 1.362 . S
C215 C216 1.366 . S
C216 C213 1.365 . S
C216 C215 1.366 . S
C216 H230 0.930 . S
C217 C214 1.378 . S
C217 N218 1.315 . S
C217 H220 0.930 . S
N218 Co198 2.194 . S
N218 C213 1.328 . S
N218 C217 1.315 . S
H219 C213 0.929 . S
H220 C217 0.930 . S
H221 C209 0.929 . S
H222 C211 0.929 . S
O223 Co198 2.351 . S
O223 C226 1.244 . S
O224 Co198 2.155 . S
O224 C226 1.240 . S
O225 Co198 2.096 . S
O225 C206 1.247 . S
C226 O223 1.244 . S
C226 O224 1.240 . S
H227 C201 0.931 . S
H228 C210 0.931 . S
H229 C214 0.929 . S
H230 C216 0.930 . S
Co231 N235 2.148 . S
Co231 N241 2.128 . S
Co231 N251 2.194 . S
Co231 O256 2.351 . S
Co231 O257 2.155 . S
Co231 O258 2.096 . S
C232 N235 1.301 . S
C232 N236 1.328 . S
C232 H237 0.930 . S
C233 C234 1.333 1_565 S
C233 N235 1.317 . S
C233 H238 0.930 1_565 S
C234 C233 1.333 1_545 S
C234 N236 1.350 1_545 S
C234 H260 0.931 . S
N235 Co231 2.148 . S
N235 C232 1.301 . S
N235 C233 1.317 . S
N236 C232 1.328 . S
N236 C234 1.350 1_565 S
H237 C232 0.930 . S
H238 C233 0.930 1_545 S
C239 O240 1.224 . S
C239 O258 1.247 . S
O240 C239 1.224 . S
N241 Co231 2.128 . S
N241 C242 1.355 . S
N241 C244 1.311 1_554 S
C242 N241 1.355 . S
C242 C243 1.363 1_554 S
C242 H254 0.929 . S
C243 C242 1.363 1_556 S
C243 N245 1.375 . S
C243 H261 0.931 . S
C244 N241 1.311 1_556 S
C244 N245 1.347 . S
C244 H255 0.929 . S
N245 C243 1.375 . S
N245 C244 1.347 . S
C246 C249 1.365 . S
C246 N251 1.328 . S
C246 H252 0.929 . S
C247 C248 1.362 . S
C247 C250 1.378 . S
C247 H262 0.929 . S
C248 C247 1.362 . S
C248 C249 1.366 . S
C249 C246 1.365 . S
C249 C248 1.366 . S
C249 H263 0.930 . S
C250 C247 1.378 . S
C250 N251 1.315 . S
C250 H253 0.930 . S
N251 Co231 2.194 . S
N251 C246 1.328 . S
N251 C250 1.315 . S
H252 C246 0.929 . S
H253 C250 0.930 . S
H254 C242 0.929 . S
H255 C244 0.929 . S
O256 Co231 2.351 . S
O256 C259 1.244 . S
O257 Co231 2.155 . S
O257 C259 1.240 . S
O258 Co231 2.096 . S
O258 C239 1.247 . S
C259 O256 1.244 . S
C259 O257 1.240 . S
H260 C234 0.931 . S
H261 C243 0.931 . S
H262 C247 0.929 . S
H263 C249 0.930 . S
H264 C272 0.929 . S
H265 C274 0.930 . S
H266 C276 0.930 . S
H267 C279 0.929 . S
H268 C282 0.930 . S
H269 C284 0.960 . S
H270 C284 0.960 . S
H271 C284 0.960 . S
C272 H264 0.929 . S
C272 C273 1.377 . S
C272 C274 1.384 . S
C273 C272 1.377 . S
C273 C279 1.390 . S
C274 H265 0.930 . S
C274 C272 1.384 . S
C274 C275 1.372 . S
C275 C274 1.372 . S
C275 C276 1.400 . S
C275 C280 1.490 . S
C276 H266 0.930 . S
C276 C275 1.400 . S
C276 C279 1.386 . S
H277 C293 0.930 . S
H278 C294 0.931 . S
C279 H267 0.929 . S
C279 C273 1.390 . S
C279 C276 1.386 . S
C280 C275 1.490 . S
C280 C282 1.395 . S
C280 C283 1.403 . S
H281 C287 0.930 . S
C282 H268 0.930 . S
C282 C280 1.395 . S
C282 C285 1.403 . S
C283 C280 1.403 . S
C283 C284 1.524 . S
C283 C287 1.400 . S
C284 H269 0.960 . S
C284 H270 0.960 . S
C284 H271 0.960 . S
C284 C283 1.524 . S
C285 C282 1.403 . S
C285 C286 1.392 . S
C285 C289 1.495 . S
C286 C285 1.392 . S
C286 C287 1.385 . S
C286 C288 1.478 . S
C287 H281 0.930 . S
C287 C283 1.400 . S
C287 C286 1.385 . S
C288 C286 1.478 . S
C288 C290 1.381 . S
C288 C294 1.383 . S
C289 C285 1.495 . S
C289 H295 0.959 . S
C289 H296 0.961 . S
C289 H297 0.960 . S
C290 C288 1.381 . S
C290 C291 1.394 . S
C290 H298 0.930 . S
C291 C290 1.394 . S
C291 C292 1.383 . S
C291 H299 0.929 . S
C292 C291 1.383 . S
C292 C293 1.377 . S
C293 H277 0.930 . S
C293 C292 1.377 . S
C293 C294 1.379 . S
C294 H278 0.931 . S
C294 C288 1.383 . S
C294 C293 1.379 . S
H295 C289 0.959 . S
H296 C289 0.961 . S
H297 C289 0.960 . S
H298 C290 0.930 . S
H299 C291 0.929 . S
H300 C308 0.929 . S
H301 C310 0.930 . S
H302 C312 0.930 . S
H303 C315 0.929 . S
H304 C318 0.930 . S
H305 C320 0.960 . S
H306 C320 0.960 . S
H307 C320 0.960 . S
C308 H300 0.929 . S
C308 C309 1.377 . S
C308 C310 1.384 . S
C309 C308 1.377 . S
C309 C315 1.390 . S
C310 H301 0.930 . S
C310 C308 1.384 . S
C310 C311 1.372 . S
C311 C310 1.372 . S
C311 C312 1.400 . S
C311 C316 1.490 . S
C312 H302 0.930 . S
C312 C311 1.400 . S
C312 C315 1.386 . S
H313 C329 0.930 . S
H314 C330 0.931 . S
C315 H303 0.929 . S
C315 C309 1.390 . S
C315 C312 1.386 . S
C316 C311 1.490 . S
C316 C318 1.395 . S
C316 C319 1.403 . S
H317 C323 0.930 . S
C318 H304 0.930 . S
C318 C316 1.395 . S
C318 C321 1.403 . S
C319 C316 1.403 . S
C319 C320 1.524 . S
C319 C323 1.400 . S
C320 H305 0.960 . S
C320 H306 0.960 . S
C320 H307 0.960 . S
C320 C319 1.524 . S
C321 C318 1.403 . S
C321 C322 1.392 . S
C321 C325 1.495 . S
C322 C321 1.392 . S
C322 C323 1.385 . S
C322 C324 1.478 . S
C323 H317 0.930 . S
C323 C319 1.400 . S
C323 C322 1.385 . S
C324 C322 1.478 . S
C324 C326 1.381 . S
C324 C330 1.383 . S
C325 C321 1.495 . S
C325 H331 0.959 . S
C325 H332 0.961 . S
C325 H333 0.960 . S
C326 C324 1.381 . S
C326 C327 1.394 . S
C326 H334 0.930 . S
C327 C326 1.394 . S
C327 C328 1.383 . S
C327 H335 0.929 . S
C328 C327 1.383 . S
C328 C329 1.377 . S
C329 H313 0.930 . S
C329 C328 1.377 . S
C329 C330 1.379 . S
C330 H314 0.931 . S
C330 C324 1.383 . S
C330 C329 1.379 . S
H331 C325 0.959 . S
H332 C325 0.961 . S
H333 C325 0.960 . S
H334 C326 0.930 . S
H335 C327 0.929 . S
H336 C344 0.929 . S
H337 C346 0.930 . S
H338 C348 0.930 . S
H339 C351 0.929 . S
H340 C354 0.930 . S
H341 C356 0.960 . S
H342 C356 0.960 . S
H343 C356 0.960 . S
C344 H336 0.929 . S
C344 C345 1.377 . S
C344 C346 1.384 . S
C345 C344 1.377 . S
C345 C351 1.390 . S
C346 H337 0.930 . S
C346 C344 1.384 . S
C346 C347 1.372 . S
C347 C346 1.372 . S
C347 C348 1.400 . S
C347 C352 1.490 . S
C348 H338 0.930 . S
C348 C347 1.400 . S
C348 C351 1.386 . S
H349 C365 0.930 . S
H350 C366 0.931 . S
C351 H339 0.929 . S
C351 C345 1.390 . S
C351 C348 1.386 . S
C352 C347 1.490 . S
C352 C354 1.395 . S
C352 C355 1.403 . S
H353 C359 0.930 . S
C354 H340 0.930 . S
C354 C352 1.395 . S
C354 C357 1.403 . S
C355 C352 1.403 . S
C355 C356 1.524 . S
C355 C359 1.400 . S
C356 H341 0.960 . S
C356 H342 0.960 . S
C356 H343 0.960 . S
C356 C355 1.524 . S
C357 C354 1.403 . S
C357 C358 1.392 . S
C357 C361 1.495 . S
C358 C357 1.392 . S
C358 C359 1.385 . S
C358 C360 1.478 . S
C359 H353 0.930 . S
C359 C355 1.400 . S
C359 C358 1.385 . S
C360 C358 1.478 . S
C360 C362 1.381 . S
C360 C366 1.383 . S
C361 C357 1.495 . S
C361 H367 0.959 . S
C361 H368 0.961 . S
C361 H369 0.960 . S
C362 C360 1.381 . S
C362 C363 1.394 . S
C362 H370 0.930 . S
C363 C362 1.394 . S
C363 C364 1.383 . S
C363 H371 0.929 . S
C364 C363 1.383 . S
C364 C365 1.377 . S
C365 H349 0.930 . S
C365 C364 1.377 . S
C365 C366 1.379 . S
C366 H350 0.931 . S
C366 C360 1.383 . S
C366 C365 1.379 . S
H367 C361 0.959 . S
H368 C361 0.961 . S
H369 C361 0.960 . S
H370 C362 0.930 . S
H371 C363 0.929 . S
H372 C380 0.929 . S
H373 C382 0.930 . S
H374 C384 0.930 . S
H375 C387 0.929 . S
H376 C390 0.930 . S
H377 C392 0.960 . S
H378 C392 0.960 . S
H379 C392 0.960 . S
C380 H372 0.929 . S
C380 C381 1.377 . S
C380 C382 1.384 . S
C381 C380 1.377 . S
C381 C387 1.390 . S
C382 H373 0.930 . S
C382 C380 1.384 . S
C382 C383 1.372 . S
C383 C382 1.372 . S
C383 C384 1.400 . S
C383 C388 1.490 . S
C384 H374 0.930 . S
C384 C383 1.400 . S
C384 C387 1.386 . S
H385 C401 0.930 . S
H386 C402 0.931 . S
C387 H375 0.929 . S
C387 C381 1.390 . S
C387 C384 1.386 . S
C388 C383 1.490 . S
C388 C390 1.395 1_556 S
C388 C391 1.403 . S
H389 C395 0.930 . S
C390 H376 0.930 . S
C390 C388 1.395 1_554 S
C390 C393 1.403 . S
C391 C388 1.403 . S
C391 C392 1.524 . S
C391 C395 1.400 . S
C392 H377 0.960 . S
C392 H378 0.960 . S
C392 H379 0.960 . S
C392 C391 1.524 . S
C393 C390 1.403 . S
C393 C394 1.392 . S
C393 C397 1.495 . S
C394 C393 1.392 . S
C394 C395 1.385 1_554 S
C394 C396 1.478 . S
C395 H389 0.930 . S
C395 C391 1.400 . S
C395 C394 1.385 1_556 S
C396 C394 1.478 . S
C396 C398 1.381 . S
C396 C402 1.383 . S
C397 C393 1.495 . S
C397 H403 0.959 . S
C397 H404 0.961 . S
C397 H405 0.960 . S
C398 C396 1.381 . S
C398 C399 1.394 . S
C398 H406 0.930 . S
C399 C398 1.394 . S
C399 C400 1.383 . S
C399 H407 0.929 . S
C400 C399 1.383 . S
C400 C401 1.377 . S
C401 H385 0.930 . S
C401 C400 1.377 . S
C401 C402 1.379 . S
C402 H386 0.931 . S
C402 C396 1.383 . S
C402 C401 1.379 . S
H403 C397 0.959 . S
H404 C397 0.961 . S
H405 C397 0.960 . S
H406 C398 0.930 . S
H407 C399 0.929 . S
H408 C416 0.929 . S
H409 C418 0.930 . S
H410 C420 0.930 . S
H411 C423 0.929 . S
H412 C426 0.930 . S
H413 C428 0.960 . S
H414 C428 0.960 . S
H415 C428 0.960 . S
C416 H408 0.929 . S
C416 C417 1.377 . S
C416 C418 1.384 . S
C417 C416 1.377 . S
C417 C423 1.390 . S
C418 H409 0.930 . S
C418 C416 1.384 . S
C418 C419 1.372 . S
C419 C418 1.372 . S
C419 C420 1.400 . S
C419 C424 1.490 . S
C420 H410 0.930 . S
C420 C419 1.400 . S
C420 C423 1.386 . S
H421 C437 0.930 . S
H422 C438 0.931 . S
C423 H411 0.929 . S
C423 C417 1.390 . S
C423 C420 1.386 . S
C424 C419 1.490 . S
C424 C426 1.395 . S
C424 C427 1.403 . S
H425 C431 0.930 . S
C426 H412 0.930 . S
C426 C424 1.395 . S
C426 C429 1.403 . S
C427 C424 1.403 . S
C427 C428 1.524 . S
C427 C431 1.400 . S
C428 H413 0.960 . S
C428 H414 0.960 . S
C428 H415 0.960 . S
C428 C427 1.524 . S
C429 C426 1.403 . S
C429 C430 1.392 . S
C429 C433 1.495 . S
C430 C429 1.392 . S
C430 C431 1.385 . S
C430 C432 1.478 . S
C431 H425 0.930 . S
C431 C427 1.400 . S
C431 C430 1.385 . S
C432 C430 1.478 . S
C432 C434 1.381 . S
C432 C438 1.383 . S
C433 C429 1.495 . S
C433 H439 0.959 . S
C433 H440 0.961 . S
C433 H441 0.960 . S
C434 C432 1.381 . S
C434 C435 1.394 . S
C434 H442 0.930 . S
C435 C434 1.394 . S
C435 C436 1.383 . S
C435 H443 0.929 . S
C436 C435 1.383 . S
C436 C437 1.377 . S
C437 H421 0.930 . S
C437 C436 1.377 . S
C437 C438 1.379 . S
C438 H422 0.931 . S
C438 C432 1.383 . S
C438 C437 1.379 . S
H439 C433 0.959 . S
H440 C433 0.961 . S
H441 C433 0.960 . S
H442 C434 0.930 . S
H443 C435 0.929 . S
H444 C452 0.929 . S
H445 C454 0.930 . S
H446 C456 0.930 . S
H447 C459 0.929 . S
H448 C462 0.930 . S
H449 C464 0.960 . S
H450 C464 0.960 . S
H451 C464 0.960 . S
C452 H444 0.929 . S
C452 C453 1.377 . S
C452 C454 1.384 . S
C453 C452 1.377 . S
C453 C459 1.390 . S
C454 H445 0.930 . S
C454 C452 1.384 . S
C454 C455 1.372 . S
C455 C454 1.372 . S
C455 C456 1.400 . S
C455 C460 1.490 . S
C456 H446 0.930 . S
C456 C455 1.400 . S
C456 C459 1.386 . S
H457 C473 0.930 . S
H458 C474 0.931 . S
C459 H447 0.929 . S
C459 C453 1.390 . S
C459 C456 1.386 . S
C460 C455 1.490 . S
C460 C462 1.395 . S
C460 C463 1.403 . S
H461 C467 0.930 . S
C462 H448 0.930 . S
C462 C460 1.395 . S
C462 C465 1.403 . S
C463 C460 1.403 . S
C463 C464 1.524 . S
C463 C467 1.400 . S
C464 H449 0.960 . S
C464 H450 0.960 . S
C464 H451 0.960 . S
C464 C463 1.524 . S
C465 C462 1.403 . S
C465 C466 1.392 . S
C465 C469 1.495 . S
C466 C465 1.392 . S
C466 C467 1.385 . S
C466 C468 1.478 . S
C467 H461 0.930 . S
C467 C463 1.400 . S
C467 C466 1.385 . S
C468 C466 1.478 . S
C468 C470 1.381 . S
C468 C474 1.383 . S
C469 C465 1.495 . S
C469 H475 0.959 . S
C469 H476 0.961 . S
C469 H477 0.960 . S
C470 C468 1.381 . S
C470 C471 1.394 . S
C470 H478 0.930 . S
C471 C470 1.394 . S
C471 C472 1.383 . S
C471 H479 0.929 . S
C472 C471 1.383 . S
C472 C473 1.377 . S
C473 H457 0.930 . S
C473 C472 1.377 . S
C473 C474 1.379 . S
C474 H458 0.931 . S
C474 C468 1.383 . S
C474 C473 1.379 . S
H475 C469 0.959 . S
H476 C469 0.961 . S
H477 C469 0.960 . S
H478 C470 0.930 . S
H479 C471 0.929 . S
H480 C488 0.929 . S
H481 C490 0.930 . S
H482 C492 0.930 . S
H483 C495 0.929 . S
H484 C498 0.930 . S
H485 C500 0.960 . S
H486 C500 0.960 . S
H487 C500 0.960 . S
C488 H480 0.929 . S
C488 C489 1.377 . S
C488 C490 1.384 . S
C489 C488 1.377 . S
C489 C495 1.390 . S
C490 H481 0.930 . S
C490 C488 1.384 . S
C490 C491 1.372 . S
C491 C490 1.372 . S
C491 C492 1.400 . S
C491 C496 1.490 . S
C492 H482 0.930 . S
C492 C491 1.400 . S
C492 C495 1.386 . S
H493 C509 0.930 . S
H494 C510 0.931 . S
C495 H483 0.929 . S
C495 C489 1.390 . S
C495 C492 1.386 . S
C496 C491 1.490 . S
C496 C498 1.395 . S
C496 C499 1.403 . S
H497 C503 0.930 . S
C498 H484 0.930 . S
C498 C496 1.395 . S
C498 C501 1.403 . S
C499 C496 1.403 . S
C499 C500 1.524 . S
C499 C503 1.400 . S
C500 H485 0.960 . S
C500 H486 0.960 . S
C500 H487 0.960 . S
C500 C499 1.524 . S
C501 C498 1.403 . S
C501 C502 1.392 . S
C501 C505 1.495 . S
C502 C501 1.392 . S
C502 C503 1.385 . S
C502 C504 1.478 . S
C503 H497 0.930 . S
C503 C499 1.400 . S
C503 C502 1.385 . S
C504 C502 1.478 . S
C504 C506 1.381 . S
C504 C510 1.383 . S
C505 C501 1.495 . S
C505 H511 0.959 . S
C505 H512 0.961 . S
C505 H513 0.960 . S
C506 C504 1.381 . S
C506 C507 1.394 . S
C506 H514 0.930 . S
C507 C506 1.394 . S
C507 C508 1.383 . S
C507 H515 0.929 . S
C508 C507 1.383 . S
C508 C509 1.377 . S
C509 H493 0.930 . S
C509 C508 1.377 . S
C509 C510 1.379 . S
C510 H494 0.931 . S
C510 C504 1.383 . S
C510 C509 1.379 . S
H511 C505 0.959 . S
H512 C505 0.961 . S
H513 C505 0.960 . S
H514 C506 0.930 . S
H515 C507 0.929 . S
H516 C524 0.929 . S
H517 C526 0.930 . S
H518 C528 0.930 . S
H519 C531 0.929 . S
H520 C534 0.930 . S
H521 C536 0.960 . S
H522 C536 0.960 . S
H523 C536 0.960 . S
C524 H516 0.929 . S
C524 C525 1.377 . S
C524 C526 1.384 . S
C525 C524 1.377 . S
C525 C531 1.390 . S
C526 H517 0.930 . S
C526 C524 1.384 . S
C526 C527 1.372 . S
C527 C526 1.372 . S
C527 C528 1.400 . S
C527 C532 1.490 . S
C528 H518 0.930 . S
C528 C527 1.400 . S
C528 C531 1.386 . S
H529 C545 0.930 . S
H530 C546 0.931 . S
C531 H519 0.929 . S
C531 C525 1.390 . S
C531 C528 1.386 . S
C532 C527 1.490 . S
C532 C534 1.395 . S
C532 C535 1.403 . S
H533 C539 0.930 . S
C534 H520 0.930 . S
C534 C532 1.395 . S
C534 C537 1.403 . S
C535 C532 1.403 . S
C535 C536 1.524 . S
C535 C539 1.400 . S
C536 H521 0.960 . S
C536 H522 0.960 . S
C536 H523 0.960 . S
C536 C535 1.524 . S
C537 C534 1.403 . S
C537 C538 1.392 . S
C537 C541 1.495 . S
C538 C537 1.392 . S
C538 C539 1.385 . S
C538 C540 1.478 . S
C539 H533 0.930 . S
C539 C535 1.400 . S
C539 C538 1.385 . S
C540 C538 1.478 . S
C540 C542 1.381 . S
C540 C546 1.383 . S
C541 C537 1.495 . S
C541 H547 0.959 . S
C541 H548 0.961 . S
C541 H549 0.960 . S
C542 C540 1.381 . S
C542 C543 1.394 . S
C542 H550 0.930 . S
C543 C542 1.394 . S
C543 C544 1.383 . S
C543 H551 0.929 . S
C544 C543 1.383 . S
C544 C545 1.377 . S
C545 H529 0.930 . S
C545 C544 1.377 . S
C545 C546 1.379 . S
C546 H530 0.931 . S
C546 C540 1.383 . S
C546 C545 1.379 . S
H547 C541 0.959 . S
H548 C541 0.961 . S
H549 C541 0.960 . S
H550 C542 0.930 . S
H551 C543 0.929 . S
H552 C560 0.929 . S
H553 C562 0.930 . S
H554 C564 0.930 . S
H555 C567 0.929 . S
H556 C570 0.930 . S
H557 C572 0.960 . S
H558 C572 0.960 . S
H559 C572 0.960 . S
C560 H552 0.929 . S
C560 C561 1.377 . S
C560 C562 1.384 . S
C561 C560 1.377 . S
C561 C567 1.390 1_455 S
C562 H553 0.930 . S
C562 C560 1.384 . S
C562 C563 1.372 . S
C563 C562 1.372 . S
C563 C564 1.400 1_455 S
C563 C568 1.490 . S
C564 H554 0.930 . S
C564 C563 1.400 1_655 S
C564 C567 1.386 . S
H565 C581 0.930 . S
H566 C582 0.931 . S
C567 H555 0.929 . S
C567 C561 1.390 1_655 S
C567 C564 1.386 . S
C568 C563 1.490 . S
C568 C570 1.395 . S
C568 C571 1.403 1_455 S
H569 C575 0.930 . S
C570 H556 0.930 . S
C570 C568 1.395 . S
C570 C573 1.403 1_554 S
C571 C568 1.403 1_655 S
C571 C572 1.524 . S
C571 C575 1.400 1_554 S
C572 H557 0.960 . S
C572 H558 0.960 . S
C572 H559 0.960 . S
C572 C571 1.524 . S
C573 C570 1.403 1_556 S
C573 C574 1.392 . S
C573 C577 1.495 . S
C574 C573 1.392 . S
C574 C575 1.385 1_455 S
C574 C576 1.477 1_455 S
C575 H569 0.930 . S
C575 C571 1.400 1_556 S
C575 C574 1.385 1_655 S
C576 C574 1.477 1_655 S
C576 C578 1.381 1_655 S
C576 C582 1.383 . S
C577 C573 1.495 . S
C577 H583 0.959 . S
C577 H584 0.961 . S
C577 H585 0.960 . S
C578 C576 1.381 1_455 S
C578 C579 1.394 . S
C578 H586 0.930 . S
C579 C578 1.394 . S
C579 C580 1.383 1_455 S
C579 H587 0.929 . S
C580 C579 1.383 1_655 S
C580 C581 1.377 . S
C581 H565 0.930 . S
C581 C580 1.377 . S
C581 C582 1.379 . S
C582 H566 0.931 . S
C582 C576 1.383 . S
C582 C581 1.379 . S
H583 C577 0.959 . S
H584 C577 0.961 . S
H585 C577 0.960 . S
H586 C578 0.930 . S
H587 C579 0.929 . S
H588 C596 0.929 . S
H589 C598 0.930 . S
H590 C600 0.930 . S
H591 C603 0.929 . S
H592 C606 0.930 . S
H593 C608 0.960 . S
H594 C608 0.960 . S
H595 C608 0.960 . S
C596 H588 0.929 . S
C596 C597 1.377 1_545 S
C596 C598 1.384 . S
C597 C596 1.377 1_565 S
C597 C603 1.390 . S
C598 H589 0.930 . S
C598 C596 1.384 . S
C598 C599 1.372 1_545 S
C599 C598 1.372 1_565 S
C599 C600 1.400 . S
C599 C604 1.490 . S
C600 H590 0.930 . S
C600 C599 1.400 . S
C600 C603 1.386 . S
H601 C617 0.930 . S
H602 C618 0.931 . S
C603 H591 0.929 . S
C603 C597 1.390 . S
C603 C600 1.386 . S
C604 C599 1.490 . S
C604 C606 1.395 1_565 S
C604 C607 1.403 . S
H605 C611 0.930 . S
C606 H592 0.930 . S
C606 C604 1.395 1_545 S
C606 C609 1.403 . S
C607 C604 1.403 . S
C607 C608 1.524 . S
C607 C611 1.400 . S
C608 H593 0.960 . S
C608 H594 0.960 . S
C608 H595 0.960 . S
C608 C607 1.524 . S
C609 C606 1.403 . S
C609 C610 1.392 . S
C609 C613 1.495 . S
C610 C609 1.392 . S
C610 C611 1.385 1_545 S
C610 C612 1.478 . S
C611 H605 0.930 . S
C611 C607 1.400 . S
C611 C610 1.385 1_565 S
C612 C610 1.478 . S
C612 C614 1.381 . S
C612 C618 1.383 1_545 S
C613 C609 1.495 . S
C613 H619 0.959 . S
C613 H620 0.961 . S
C613 H621 0.960 . S
C614 C612 1.381 . S
C614 C615 1.394 . S
C614 H622 0.930 . S
C615 C614 1.394 . S
C615 C616 1.383 . S
C615 H623 0.929 . S
C616 C615 1.383 . S
C616 C617 1.377 1_545 S
C617 H601 0.930 . S
C617 C616 1.377 1_565 S
C617 C618 1.379 . S
C618 H602 0.931 . S
C618 C612 1.383 1_565 S
C618 C617 1.379 . S
H619 C613 0.959 . S
H620 C613 0.961 . S
H621 C613 0.960 . S
H622 C614 0.930 . S
H623 C615 0.929 . S
H624 C632 0.929 . S
H625 C634 0.930 . S
H626 C636 0.930 . S
H627 C639 0.929 1_455 S
H628 C642 0.930 . S
H629 C644 0.960 . S
H630 C644 0.960 . S
H631 C644 0.960 . S
C632 H624 0.929 . S
C632 C633 1.377 . S
C632 C634 1.384 . S
C633 C632 1.377 . S
C633 C639 1.390 . S
C634 H625 0.930 . S
C634 C632 1.384 . S
C634 C635 1.372 . S
C635 C634 1.372 . S
C635 C636 1.400 1_655 S
C635 C640 1.490 . S
C636 H626 0.930 . S
C636 C635 1.400 1_455 S
C636 C639 1.386 1_455 S
H637 C653 0.930 . S
H638 C654 0.931 . S
C639 H627 0.929 1_655 S
C639 C633 1.390 . S
C639 C636 1.386 1_655 S
C640 C635 1.490 . S
C640 C642 1.395 . S
C640 C643 1.403 1_655 S
H641 C647 0.930 . S
C642 H628 0.930 . S
C642 C640 1.395 . S
C642 C645 1.403 . S
C643 C640 1.403 1_455 S
C643 C644 1.524 . S
C643 C647 1.400 . S
C644 H629 0.960 . S
C644 H630 0.960 . S
C644 H631 0.960 . S
C644 C643 1.524 . S
C645 C642 1.403 . S
C645 C646 1.392 . S
C645 C649 1.495 . S
C646 C645 1.392 . S
C646 C647 1.385 1_655 S
C646 C648 1.478 1_655 S
C647 H641 0.930 . S
C647 C643 1.400 . S
C647 C646 1.385 1_455 S
C648 C646 1.478 1_455 S
C648 C650 1.381 1_455 S
C648 C654 1.383 . S
C649 C645 1.495 . S
C649 H655 0.959 . S
C649 H656 0.961 . S
C649 H657 0.960 . S
C650 C648 1.381 1_655 S
C650 C651 1.394 1_655 S
C650 H658 0.930 . S
C651 C650 1.394 1_455 S
C651 C652 1.383 . S
C651 H659 0.929 1_455 S
C652 C651 1.383 . S
C652 C653 1.377 . S
C653 H637 0.930 . S
C653 C652 1.377 . S
C653 C654 1.379 . S
C654 H638 0.931 . S
C654 C648 1.383 . S
C654 C653 1.379 . S
H655 C649 0.959 . S
H656 C649 0.961 . S
H657 C649 0.960 . S
H658 C650 0.930 . S
H659 C651 0.929 1_655 S
H660 C668 0.929 . S
H661 C670 0.930 . S
H662 C672 0.930 1_565 S
H663 C675 0.929 . S
H664 C678 0.930 . S
H665 C680 0.960 . S
H666 C680 0.960 . S
H667 C680 0.960 . S
C668 H660 0.929 . S
C668 C669 1.377 . S
C668 C670 1.384 . S
C669 C668 1.377 . S
C669 C675 1.390 . S
C670 H661 0.930 . S
C670 C668 1.384 . S
C670 C671 1.372 . S
C671 C670 1.372 . S
C671 C672 1.400 . S
C671 C676 1.490 . S
C672 H662 0.930 1_545 S
C672 C671 1.400 . S
C672 C675 1.386 . S
H673 C689 0.930 . S
H674 C690 0.931 . S
C675 H663 0.929 . S
C675 C669 1.390 . S
C675 C672 1.386 . S
C676 C671 1.490 . S
C676 C678 1.395 . S
C676 C679 1.403 1_545 S
H677 C683 0.930 . S
C678 H664 0.930 . S
C678 C676 1.395 . S
C678 C681 1.403 . S
C679 C676 1.403 1_565 S
C679 C680 1.524 . S
C679 C683 1.400 . S
C680 H665 0.960 . S
C680 H666 0.960 . S
C680 H667 0.960 . S
C680 C679 1.524 . S
C681 C678 1.403 . S
C681 C682 1.392 . S
C681 C685 1.495 . S
C682 C681 1.392 . S
C682 C683 1.385 1_545 S
C682 C684 1.478 1_545 S
C683 H677 0.930 . S
C683 C679 1.400 . S
C683 C682 1.385 1_565 S
C684 C682 1.478 1_565 S
C684 C686 1.381 . S
C684 C690 1.383 . S
C685 C681 1.495 . S
C685 H691 0.959 . S
C685 H692 0.961 . S
C685 H693 0.960 . S
C686 C684 1.381 . S
C686 C687 1.394 . S
C686 H694 0.930 1_565 S
C687 C686 1.394 . S
C687 C688 1.383 . S
C687 H695 0.929 . S
C688 C687 1.383 . S
C688 C689 1.377 . S
C689 H673 0.930 . S
C689 C688 1.377 . S
C689 C690 1.379 . S
C690 H674 0.931 . S
C690 C684 1.383 . S
C690 C689 1.379 . S
H691 C685 0.959 . S
H692 C685 0.961 . S
H693 C685 0.960 . S
H694 C686 0.930 1_545 S
H695 C687 0.929 . S
H696 C704 0.929 . S
H697 C706 0.930 . S
H698 C708 0.930 . S
H699 C711 0.929 . S
H700 C714 0.930 . S
H701 C716 0.960 . S
H702 C716 0.960 . S
H703 C716 0.960 . S
C704 H696 0.929 . S
C704 C705 1.377 . S
C704 C706 1.384 . S
C705 C704 1.377 . S
C705 C711 1.390 . S
C706 H697 0.930 . S
C706 C704 1.384 . S
C706 C707 1.372 . S
C707 C706 1.372 . S
C707 C708 1.400 . S
C707 C712 1.490 . S
C708 H698 0.930 . S
C708 C707 1.400 . S
C708 C711 1.386 . S
H709 C725 0.930 1_565 S
H710 C726 0.931 . S
C711 H699 0.929 . S
C711 C705 1.390 . S
C711 C708 1.386 . S
C712 C707 1.490 . S
C712 C714 1.395 . S
C712 C715 1.403 . S
H713 C719 0.930 . S
C714 H700 0.930 . S
C714 C712 1.395 . S
C714 C717 1.403 . S
C715 C712 1.403 . S
C715 C716 1.524 . S
C715 C719 1.400 . S
C716 H701 0.960 . S
C716 H702 0.960 . S
C716 H703 0.960 . S
C716 C715 1.524 . S
C717 C714 1.403 . S
C717 C718 1.392 . S
C717 C721 1.495 . S
C718 C717 1.392 . S
C718 C719 1.385 . S
C718 C720 1.478 . S
C719 H713 0.930 . S
C719 C715 1.400 . S
C719 C718 1.385 . S
C720 C718 1.478 . S
C720 C722 1.381 . S
C720 C726 1.383 . S
C721 C717 1.495 . S
C721 H727 0.959 . S
C721 H728 0.961 . S
C721 H729 0.960 . S
C722 C720 1.381 . S
C722 C723 1.394 . S
C722 H730 0.930 . S
C723 C722 1.394 . S
C723 C724 1.383 . S
C723 H731 0.929 1_554 S
C724 C723 1.383 . S
C724 C725 1.377 . S
C725 H709 0.930 1_545 S
C725 C724 1.377 . S
C725 C726 1.379 . S
C726 H710 0.931 . S
C726 C720 1.383 . S
C726 C725 1.379 . S
H727 C721 0.959 . S
H728 C721 0.961 . S
H729 C721 0.960 . S
H730 C722 0.930 . S
H731 C723 0.929 1_556 S
H732 C740 0.929 . S
H733 C742 0.930 . S
H734 C744 0.930 . S
H735 C747 0.929 . S
H736 C750 0.930 . S
H737 C752 0.960 . S
H738 C752 0.960 . S
H739 C752 0.960 . S
C740 H732 0.929 . S
C740 C741 1.377 . S
C740 C742 1.384 . S
C741 C740 1.377 . S
C741 C747 1.390 . S
C742 H733 0.930 . S
C742 C740 1.384 . S
C742 C743 1.372 . S
C743 C742 1.372 . S
C743 C744 1.400 . S
C743 C748 1.490 . S
C744 H734 0.930 . S
C744 C743 1.400 . S
C744 C747 1.386 . S
H745 C761 0.930 . S
H746 C762 0.931 . S
C747 H735 0.929 . S
C747 C741 1.390 . S
C747 C744 1.386 . S
C748 C743 1.490 . S
C748 C750 1.395 . S
C748 C751 1.403 . S
H749 C755 0.930 . S
C750 H736 0.930 . S
C750 C748 1.395 . S
C750 C753 1.403 . S
C751 C748 1.403 . S
C751 C752 1.524 . S
C751 C755 1.400 . S
C752 H737 0.960 . S
C752 H738 0.960 . S
C752 H739 0.960 . S
C752 C751 1.524 . S
C753 C750 1.403 . S
C753 C754 1.392 . S
C753 C757 1.495 . S
C754 C753 1.392 . S
C754 C755 1.385 . S
C754 C756 1.478 . S
C755 H749 0.930 . S
C755 C751 1.400 . S
C755 C754 1.385 . S
C756 C754 1.478 . S
C756 C758 1.381 . S
C756 C762 1.383 . S
C757 C753 1.495 . S
C757 H763 0.959 . S
C757 H764 0.961 . S
C757 H765 0.960 . S
C758 C756 1.381 . S
C758 C759 1.394 . S
C758 H766 0.930 . S
C759 C758 1.394 . S
C759 C760 1.383 . S
C759 H767 0.929 . S
C760 C759 1.383 . S
C760 C761 1.377 . S
C761 H745 0.930 . S
C761 C760 1.377 . S
C761 C762 1.379 . S
C762 H746 0.931 . S
C762 C756 1.383 . S
C762 C761 1.379 . S
H763 C757 0.959 . S
H764 C757 0.961 . S
H765 C757 0.960 . S
H766 C758 0.930 . S
H767 C759 0.929 . S
H768 C776 0.913 1_545 S
H769 C778 0.930 . S
H770 C780 0.930 . S
H771 C783 0.929 . S
H772 C786 0.930 . S
H773 C788 0.960 . S
H774 C788 0.960 . S
H775 C788 0.960 . S
C776 H768 0.913 1_565 S
C776 C777 1.377 . S
C776 C778 1.384 . S
C777 C776 1.377 . S
C777 C783 1.390 . S
C778 H769 0.930 . S
C778 C776 1.384 . S
C778 C779 1.372 . S
C779 C778 1.372 . S
C779 C780 1.400 . S
C779 C784 1.490 . S
C780 H770 0.930 . S
C780 C779 1.400 . S
C780 C783 1.386 . S
H781 C797 0.930 . S
H782 C798 0.931 . S
C783 H771 0.929 . S
C783 C777 1.390 . S
C783 C780 1.386 . S
C784 C779 1.490 . S
C784 C786 1.395 . S
C784 C787 1.403 . S
H785 C791 0.930 . S
C786 H772 0.930 . S
C786 C784 1.395 . S
C786 C789 1.403 . S
C787 C784 1.403 . S
C787 C788 1.524 . S
C787 C791 1.400 . S
C788 H773 0.960 . S
C788 H774 0.960 . S
C788 H775 0.960 . S
C788 C787 1.524 . S
C789 C786 1.403 . S
C789 C790 1.392 . S
C789 C793 1.495 . S
C790 C789 1.392 . S
C790 C791 1.385 . S
C790 C792 1.478 . S
C791 H785 0.930 . S
C791 C787 1.400 . S
C791 C790 1.385 . S
C792 C790 1.478 . S
C792 C794 1.381 . S
C792 C798 1.383 . S
C793 C789 1.495 . S
C793 H799 0.959 . S
C793 H800 0.961 . S
C793 H801 0.960 . S
C794 C792 1.381 . S
C794 C795 1.394 . S
C794 H802 0.930 . S
C795 C794 1.394 . S
C795 C796 1.383 . S
C795 H803 0.929 . S
C796 C795 1.383 . S
C796 C797 1.377 . S
C797 H781 0.930 . S
C797 C796 1.377 . S
C797 C798 1.379 . S
C798 H782 0.931 . S
C798 C792 1.383 . S
C798 C797 1.379 . S
H799 C793 0.959 . S
H800 C793 0.961 . S
H801 C793 0.960 . S
H802 C794 0.930 . S
H803 C795 0.929 . S
H804 C812 0.929 . S
H805 C814 0.930 . S
H806 C816 0.930 . S
H807 C819 0.929 1_655 S
H808 C822 0.930 . S
H809 C824 0.960 . S
H810 C824 0.960 . S
H811 C824 0.960 . S
C812 H804 0.929 . S
C812 C813 1.377 . S
C812 C814 1.384 . S
C813 C812 1.377 . S
C813 C819 1.390 . S
C814 H805 0.930 . S
C814 C812 1.384 . S
C814 C815 1.372 . S
C815 C814 1.372 . S
C815 C816 1.400 . S
C815 C820 1.490 . S
C816 H806 0.930 . S
C816 C815 1.400 . S
C816 C819 1.386 . S
H817 C833 0.930 . S
H818 C834 0.931 . S
C819 H807 0.929 1_455 S
C819 C813 1.390 . S
C819 C816 1.386 . S
C820 C815 1.490 . S
C820 C822 1.395 . S
C820 C823 1.403 . S
H821 C827 0.930 . S
C822 H808 0.930 . S
C822 C820 1.395 . S
C822 C825 1.403 . S
C823 C820 1.403 . S
C823 C824 1.524 . S
C823 C827 1.400 . S
C824 H809 0.960 . S
C824 H810 0.960 . S
C824 H811 0.960 . S
C824 C823 1.524 . S
C825 C822 1.403 . S
C825 C826 1.392 . S
C825 C829 1.495 . S
C826 C825 1.392 . S
C826 C827 1.385 . S
C826 C828 1.478 . S
C827 H821 0.930 . S
C827 C823 1.400 . S
C827 C826 1.385 . S
C828 C826 1.478 . S
C828 C830 1.381 . S
C828 C834 1.383 . S
C829 C825 1.495 . S
C829 H835 0.959 . S
C829 H836 0.961 . S
C829 H837 0.960 . S
C830 C828 1.381 . S
C830 C831 1.394 . S
C830 H838 0.930 . S
C831 C830 1.394 . S
C831 C832 1.383 . S
C831 H839 0.929 . S
C832 C831 1.383 . S
C832 C833 1.377 . S
C833 H817 0.930 . S
C833 C832 1.377 . S
C833 C834 1.379 . S
C834 H818 0.931 . S
C834 C828 1.383 . S
C834 C833 1.379 . S
H835 C829 0.959 . S
H836 C829 0.961 . S
H837 C829 0.960 . S
H838 C830 0.930 . S
H839 C831 0.929 . S
H840 C848 0.929 . S
H841 C850 0.930 . S
H842 C852 0.930 . S
H843 C855 0.929 . S
H844 C858 0.930 . S
H845 C860 0.960 . S
H846 C860 0.960 . S
H847 C860 0.960 . S
C848 H840 0.929 . S
C848 C849 1.377 . S
C848 C850 1.384 . S
C849 C848 1.377 . S
C849 C855 1.390 . S
C850 H841 0.930 . S
C850 C848 1.384 . S
C850 C851 1.372 . S
C851 C850 1.372 . S
C851 C852 1.400 . S
C851 C856 1.490 . S
C852 H842 0.930 . S
C852 C851 1.400 . S
C852 C855 1.386 . S
H853 C869 0.930 . S
H854 C870 0.931 . S
C855 H843 0.929 . S
C855 C849 1.390 . S
C855 C852 1.386 . S
C856 C851 1.490 . S
C856 C858 1.395 . S
C856 C859 1.403 . S
H857 C863 0.930 . S
C858 H844 0.930 . S
C858 C856 1.395 . S
C858 C861 1.403 . S
C859 C856 1.403 . S
C859 C860 1.524 . S
C859 C863 1.400 . S
C860 H845 0.960 . S
C860 H846 0.960 . S
C860 H847 0.960 . S
C860 C859 1.524 . S
C861 C858 1.403 . S
C861 C862 1.392 . S
C861 C865 1.495 . S
C862 C861 1.392 . S
C862 C863 1.385 . S
C862 C864 1.478 . S
C863 H857 0.930 . S
C863 C859 1.400 . S
C863 C862 1.385 . S
C864 C862 1.478 . S
C864 C866 1.381 . S
C864 C870 1.383 . S
C865 C861 1.495 . S
C865 H871 0.959 . S
C865 H872 0.961 . S
C865 H873 0.960 . S
C866 C864 1.381 . S
C866 C867 1.394 . S
C866 H874 0.930 . S
C867 C866 1.394 . S
C867 C868 1.383 . S
C867 H875 0.929 1_565 S
C868 C867 1.383 . S
C868 C869 1.377 . S
C869 H853 0.930 . S
C869 C868 1.377 . S
C869 C870 1.379 . S
C870 H854 0.931 . S
C870 C864 1.383 . S
C870 C869 1.379 . S
H871 C865 0.959 . S
H872 C865 0.961 . S
H873 C865 0.960 . S
H874 C866 0.930 . S
H875 C867 0.929 1_545 S
H876 C884 0.929 . S
H877 C886 0.930 . S
H878 C888 0.930 . S
H879 C891 0.929 . S
H880 C894 0.930 . S
H881 C896 0.960 . S
H882 C896 0.960 . S
H883 C896 0.960 . S
C884 H876 0.929 . S
C884 C885 1.377 . S
C884 C886 1.384 . S
C885 C884 1.377 . S
C885 C891 1.390 . S
C886 H877 0.930 . S
C886 C884 1.384 . S
C886 C887 1.372 . S
C887 C886 1.372 . S
C887 C888 1.400 . S
C887 C892 1.490 . S
C888 H878 0.930 . S
C888 C887 1.400 . S
C888 C891 1.386 . S
H889 C905 0.930 . S
H890 C906 0.931 . S
C891 H879 0.929 . S
C891 C885 1.390 . S
C891 C888 1.386 . S
C892 C887 1.490 . S
C892 C894 1.395 . S
C892 C895 1.403 . S
H893 C899 0.930 . S
C894 H880 0.930 . S
C894 C892 1.395 . S
C894 C897 1.403 . S
C895 C892 1.403 . S
C895 C896 1.524 . S
C895 C899 1.400 . S
C896 H881 0.960 . S
C896 H882 0.960 . S
C896 H883 0.960 . S
C896 C895 1.524 . S
C897 C894 1.403 . S
C897 C898 1.392 . S
C897 C901 1.495 . S
C898 C897 1.392 . S
C898 C899 1.385 . S
C898 C900 1.478 . S
C899 H893 0.930 . S
C899 C895 1.400 . S
C899 C898 1.385 . S
C900 C898 1.478 . S
C900 C902 1.381 . S
C900 C906 1.383 . S
C901 C897 1.495 . S
C901 H907 0.959 . S
C901 H908 0.961 . S
C901 H909 0.960 . S
C902 C900 1.381 . S
C902 C903 1.394 . S
C902 H910 0.930 . S
C903 C902 1.394 . S
C903 C904 1.383 . S
C903 H911 0.929 . S
C904 C903 1.383 . S
C904 C905 1.377 . S
C905 H889 0.930 . S
C905 C904 1.377 . S
C905 C906 1.379 . S
C906 H890 0.931 . S
C906 C900 1.383 . S
C906 C905 1.379 . S
H907 C901 0.959 . S
H908 C901 0.961 . S
H909 C901 0.960 . S
H910 C902 0.930 . S
H911 C903 0.929 . S
H912 C920 0.929 . S
H913 C922 0.930 . S
H914 C924 0.930 . S
H915 C927 0.929 . S
H916 C930 0.930 . S
H917 C932 0.960 . S
H918 C932 0.960 . S
H919 C932 0.960 . S
C920 H912 0.929 . S
C920 C921 1.377 . S
C920 C922 1.384 . S
C921 C920 1.377 . S
C921 C927 1.390 . S
C922 H913 0.930 . S
C922 C920 1.384 . S
C922 C923 1.372 . S
C923 C922 1.372 . S
C923 C924 1.400 . S
C923 C928 1.490 . S
C924 H914 0.930 . S
C924 C923 1.400 . S
C924 C927 1.386 . S
H925 C941 0.955 . S
H926 C942 0.931 . S
C927 H915 0.929 . S
C927 C921 1.390 . S
C927 C924 1.386 . S
C928 C923 1.490 . S
C928 C930 1.395 . S
C928 C931 1.403 . S
H929 C935 0.930 . S
C930 H916 0.930 . S
C930 C928 1.395 . S
C930 C933 1.403 . S
C931 C928 1.403 . S
C931 C932 1.524 . S
C931 C935 1.400 . S
C932 H917 0.960 . S
C932 H918 0.960 . S
C932 H919 0.960 . S
C932 C931 1.524 . S
C933 C930 1.403 . S
C933 C934 1.392 . S
C933 C937 1.495 . S
C934 C933 1.392 . S
C934 C935 1.385 . S
C934 C936 1.478 . S
C935 H929 0.930 . S
C935 C931 1.400 . S
C935 C934 1.385 . S
C936 C934 1.478 . S
C936 C938 1.381 . S
C936 C942 1.383 . S
C937 C933 1.495 . S
C937 H943 0.959 . S
C937 H944 0.961 . S
C937 H945 0.960 . S
C938 C936 1.381 . S
C938 C939 1.420 . S
C938 H946 0.930 . S
C939 C938 1.420 . S
C939 C940 1.395 . S
C939 H947 0.893 1_545 S
C940 C939 1.395 . S
C940 C941 1.371 1_556 S
C941 H925 0.955 . S
C941 C940 1.371 1_554 S
C941 C942 1.361 1_554 S
C942 H926 0.931 . S
C942 C936 1.383 . S
C942 C941 1.361 1_556 S
H943 C937 0.959 . S
H944 C937 0.961 . S
H945 C937 0.960 . S
H946 C938 0.930 . S
H947 C939 0.893 1_565 S
H948 C956 0.924 1_455 S
H949 C958 0.930 . S
H950 C960 0.930 . S
H951 C963 0.929 . S
H952 C966 0.930 . S
H953 C968 0.960 . S
H954 C968 0.960 . S
H955 C968 0.960 . S
C956 H948 0.924 1_655 S
C956 C957 1.377 . S
C956 C958 1.384 . S
C957 C956 1.377 . S
C957 C963 1.390 . S
C958 H949 0.930 . S
C958 C956 1.384 . S
C958 C959 1.372 . S
C959 C958 1.372 . S
C959 C960 1.400 . S
C959 C964 1.490 . S
C960 H950 0.930 . S
C960 C959 1.400 . S
C960 C963 1.386 . S
H961 C977 0.930 . S
H962 C978 0.931 . S
C963 H951 0.929 . S
C963 C957 1.390 . S
C963 C960 1.386 . S
C964 C959 1.490 . S
C964 C966 1.395 . S
C964 C967 1.403 . S
H965 C971 0.930 . S
C966 H952 0.930 . S
C966 C964 1.395 . S
C966 C969 1.403 . S
C967 C964 1.403 . S
C967 C968 1.524 . S
C967 C971 1.400 . S
C968 H953 0.960 . S
C968 H954 0.960 . S
C968 H955 0.960 . S
C968 C967 1.524 . S
C969 C966 1.403 . S
C969 C970 1.392 . S
C969 C973 1.495 . S
C970 C969 1.392 . S
C970 C971 1.385 . S
C970 C972 1.478 . S
C971 H965 0.930 . S
C971 C967 1.400 . S
C971 C970 1.385 . S
C972 C970 1.478 . S
C972 C974 1.381 . S
C972 C978 1.383 . S
C973 C969 1.495 . S
C973 H979 0.959 . S
C973 H980 0.961 . S
C973 H981 0.960 . S
C974 C972 1.381 . S
C974 C975 1.394 . S
C974 H982 0.930 . S
C975 C974 1.394 . S
C975 C976 1.383 . S
C975 H983 0.929 . S
C976 C975 1.383 . S
C976 C977 1.377 . S
C977 H961 0.930 . S
C977 C976 1.377 . S
C977 C978 1.379 . S
C978 H962 0.931 . S
C978 C972 1.383 . S
C978 C977 1.379 . S
H979 C973 0.959 . S
H980 C973 0.961 . S
H981 C973 0.960 . S
H982 C974 0.930 . S
H983 C975 0.929 . S
C273 C149 1.343 . S
C292 C17 1.329 . S
C309 C50 1.343 . S
C328 C182 1.337 . S
C345 C83 1.343 . S
C364 C215 1.336 . S
C381 C116 1.342 . S
C400 C248 1.337 . S
C417 N179 0.671 . S
C436 N14 0.642 . S
C453 N47 0.668 . S
C472 N212 0.631 . S
C489 N245 0.673 . S
C508 N80 0.654 . S
C525 N113 0.669 . S
C544 N146 0.635 . S
C561 N5 1.030 . S
C580 N203 1.003 . S
C597 N236 1.021 . S
C616 N38 1.042 . S
C633 N71 1.030 . S
C652 N137 1.017 . S
C669 N170 1.029 . S
C688 N104 1.024 . S
C705 C28 1.917 . S
C724 C107 1.919 1_544 S
C741 C8 1.931 1_655 S
C760 C61 1.901 . S
C777 C41 1.928 1_565 S
C796 C94 1.924 . S
C813 C74 1.928 1_455 S
C832 C127 1.919 . S
C849 C160 1.918 . S
C868 C173 1.923 1_565 S
C885 C193 1.919 . S
C904 C206 1.921 1_455 S
C921 C226 1.916 . S
C940 C239 1.930 1_546 S
C957 C140 1.928 1_655 S
C976 C259 1.924 . S
