# Generated by pormake.
# Topology whz, (6)-cn, num edge types: 1
# Building blocks:
#     Node 0, Type 0, BuildingBlock: HISSIN_clean_sbu_0, # of connection points: 6
#     Node 1, Type 0, BuildingBlock: HISSIN_clean_sbu_0, # of connection points: 6
#     Node 2, Type 0, BuildingBlock: HISSIN_clean_sbu_0, # of connection points: 6
#     Node 3, Type 0, BuildingBlock: HISSIN_clean_sbu_0, # of connection points: 6
#     Node 4, Type 0, BuildingBlock: HISSIN_clean_sbu_0, # of connection points: 6
#     Node 5, Type 0, BuildingBlock: HISSIN_clean_sbu_0, # of connection points: 6
#     Node 6, Type 0, BuildingBlock: HISSIN_clean_sbu_0, # of connection points: 6
#     Node 7, Type 0, BuildingBlock: HISSIN_clean_sbu_0, # of connection points: 6
#     Node 8, Type 0, BuildingBlock: HISSIN_clean_sbu_0, # of connection points: 6
#     Node 9, Type 0, BuildingBlock: HISSIN_clean_sbu_0, # of connection points: 6
#     Node 10, Type 0, BuildingBlock: HISSIN_clean_sbu_0, # of connection points: 6
#     Node 11, Type 0, BuildingBlock: HISSIN_clean_sbu_0, # of connection points: 6
#     Node 12, Type 0, BuildingBlock: HISSIN_clean_sbu_0, # of connection points: 6
#     Node 13, Type 0, BuildingBlock: HISSIN_clean_sbu_0, # of connection points: 6
#     Node 14, Type 0, BuildingBlock: HISSIN_clean_sbu_0, # of connection points: 6
#     Node 15, Type 0, BuildingBlock: HISSIN_clean_sbu_0, # of connection points: 6
#     Edge 16, Type (0, 0), BuildingBlock: KIFKEQ_clean_linker_1, # of connection points: 2
#     Edge 17, Type (0, 0), BuildingBlock: KIFKEQ_clean_linker_1, # of connection points: 2
#     Edge 18, Type (0, 0), BuildingBlock: KIFKEQ_clean_linker_1, # of connection points: 2
#     Edge 19, Type (0, 0), BuildingBlock: KIFKEQ_clean_linker_1, # of connection points: 2
#     Edge 20, Type (0, 0), BuildingBlock: KIFKEQ_clean_linker_1, # of connection points: 2
#     Edge 21, Type (0, 0), BuildingBlock: KIFKEQ_clean_linker_1, # of connection points: 2
#     Edge 22, Type (0, 0), BuildingBlock: KIFKEQ_clean_linker_1, # of connection points: 2
#     Edge 23, Type (0, 0), BuildingBlock: KIFKEQ_clean_linker_1, # of connection points: 2
#     Edge 24, Type (0, 0), BuildingBlock: KIFKEQ_clean_linker_1, # of connection points: 2
#     Edge 25, Type (0, 0), BuildingBlock: KIFKEQ_clean_linker_1, # of connection points: 2
#     Edge 26, Type (0, 0), BuildingBlock: KIFKEQ_clean_linker_1, # of connection points: 2
#     Edge 27, Type (0, 0), BuildingBlock: KIFKEQ_clean_linker_1, # of connection points: 2
#     Edge 28, Type (0, 0), BuildingBlock: KIFKEQ_clean_linker_1, # of connection points: 2
#     Edge 29, Type (0, 0), BuildingBlock: KIFKEQ_clean_linker_1, # of connection points: 2
#     Edge 30, Type (0, 0), BuildingBlock: KIFKEQ_clean_linker_1, # of connection points: 2
#     Edge 31, Type (0, 0), BuildingBlock: KIFKEQ_clean_linker_1, # of connection points: 2
#     Edge 32, Type (0, 0), BuildingBlock: KIFKEQ_clean_linker_1, # of connection points: 2
#     Edge 33, Type (0, 0), BuildingBlock: KIFKEQ_clean_linker_1, # of connection points: 2
#     Edge 34, Type (0, 0), BuildingBlock: KIFKEQ_clean_linker_1, # of connection points: 2
#     Edge 35, Type (0, 0), BuildingBlock: KIFKEQ_clean_linker_1, # of connection points: 2
#     Edge 36, Type (0, 0), BuildingBlock: KIFKEQ_clean_linker_1, # of connection points: 2
#     Edge 37, Type (0, 0), BuildingBlock: KIFKEQ_clean_linker_1, # of connection points: 2
#     Edge 38, Type (0, 0), BuildingBlock: KIFKEQ_clean_linker_1, # of connection points: 2
#     Edge 39, Type (0, 0), BuildingBlock: KIFKEQ_clean_linker_1, # of connection points: 2
#     Edge 40, Type (0, 0), BuildingBlock: KIFKEQ_clean_linker_1, # of connection points: 2
#     Edge 41, Type (0, 0), BuildingBlock: KIFKEQ_clean_linker_1, # of connection points: 2
#     Edge 42, Type (0, 0), BuildingBlock: KIFKEQ_clean_linker_1, # of connection points: 2
#     Edge 43, Type (0, 0), BuildingBlock: KIFKEQ_clean_linker_1, # of connection points: 2
#     Edge 44, Type (0, 0), BuildingBlock: KIFKEQ_clean_linker_1, # of connection points: 2
#     Edge 45, Type (0, 0), BuildingBlock: KIFKEQ_clean_linker_1, # of connection points: 2
#     Edge 46, Type (0, 0), BuildingBlock: KIFKEQ_clean_linker_1, # of connection points: 2
#     Edge 47, Type (0, 0), BuildingBlock: KIFKEQ_clean_linker_1, # of connection points: 2
#     Edge 48, Type (0, 0), BuildingBlock: KIFKEQ_clean_linker_1, # of connection points: 2
#     Edge 49, Type (0, 0), BuildingBlock: KIFKEQ_clean_linker_1, # of connection points: 2
#     Edge 50, Type (0, 0), BuildingBlock: KIFKEQ_clean_linker_1, # of connection points: 2
#     Edge 51, Type (0, 0), BuildingBlock: KIFKEQ_clean_linker_1, # of connection points: 2
#     Edge 52, Type (0, 0), BuildingBlock: KIFKEQ_clean_linker_1, # of connection points: 2
#     Edge 53, Type (0, 0), BuildingBlock: KIFKEQ_clean_linker_1, # of connection points: 2
#     Edge 54, Type (0, 0), BuildingBlock: KIFKEQ_clean_linker_1, # of connection points: 2
#     Edge 55, Type (0, 0), BuildingBlock: KIFKEQ_clean_linker_1, # of connection points: 2
#     Edge 56, Type (0, 0), BuildingBlock: KIFKEQ_clean_linker_1, # of connection points: 2
#     Edge 57, Type (0, 0), BuildingBlock: KIFKEQ_clean_linker_1, # of connection points: 2
#     Edge 58, Type (0, 0), BuildingBlock: KIFKEQ_clean_linker_1, # of connection points: 2
#     Edge 59, Type (0, 0), BuildingBlock: KIFKEQ_clean_linker_1, # of connection points: 2
#     Edge 60, Type (0, 0), BuildingBlock: KIFKEQ_clean_linker_1, # of connection points: 2
#     Edge 61, Type (0, 0), BuildingBlock: KIFKEQ_clean_linker_1, # of connection points: 2
#     Edge 62, Type (0, 0), BuildingBlock: KIFKEQ_clean_linker_1, # of connection points: 2
#     Edge 63, Type (0, 0), BuildingBlock: KIFKEQ_clean_linker_1, # of connection points: 2
# Relax obj value: 0.711
# Max RMSD: 0.313
# Mean RMSD: 0.313
data_MOF--net-whz--node1-HISSIN_clean_sbu_0--edge1-KIFKEQ_clean_linker_1
_symmetry_space_group_name_H-M    P1
_symmetry_Int_Tables_number       1
_symmetry_cell_setting            triclinic
loop_
_symmetry_equiv_pos_as_xyz
'x, y, z'
_cell_length_a     35.749251
_cell_length_b     35.733656
_cell_length_c     72.509987
_cell_angle_alpha  90.126423
_cell_angle_beta   90.02036
_cell_angle_gamma 89.990046
loop_
_atom_site_label
_atom_site_type_symbol
_atom_site_fract_x
_atom_site_fract_y
_atom_site_fract_z
_atom_type_partial_charge
Eu0 Eu 0.32905 0.22841 0.18892 0.0
Eu1 Eu 0.32203 0.1966 0.1468 0.0
C2 C 0.35712 0.1495 0.18053 0.0
C3 C 0.33213 0.21237 0.2393 0.0
C4 C 0.3645 0.20112 0.24873 0.0
C5 C 0.29629 0.16659 0.25664 0.0
C6 C 0.36281 0.17286 0.26198 0.0
C7 C 0.29802 0.19465 0.24333 0.0
C8 C 0.32863 0.15526 0.26619 0.0
C9 C 0.33488 0.23984 0.22415 0.0
O10 O 0.26321 0.19456 0.15771 0.0
O11 O 0.28056 0.18674 0.18776 0.0
C12 C 0.25541 0.18356 0.17454 0.0
O13 O 0.29915 0.27558 0.17545 0.0
O14 O 0.30566 0.1533 0.12674 0.0
O15 O 0.33918 0.20033 0.11787 0.0
O16 O 0.29516 0.25517 0.14516 0.0
C17 C 0.28906 0.28054 0.15822 0.0
O18 O 0.37159 0.26188 0.173 0.0
O19 O 0.38236 0.21579 0.15179 0.0
O20 O 0.33217 0.14755 0.16715 0.0
O21 O 0.3638 0.23594 0.21337 0.0
O22 O 0.30427 0.24672 0.2149 0.0
O23 O 0.36995 0.1822 0.18489 0.0
C24 C 0.30389 0.16876 0.09411 0.0
C25 C 0.31931 0.18958 0.07951 0.0
C26 C 0.2616 0.1393 0.07177 0.0
C27 C 0.30629 0.18525 0.06134 0.0
C28 C 0.27469 0.14364 0.08998 0.0
C29 C 0.27746 0.15973 0.05708 0.0
C30 C 0.3218 0.16987 0.11281 0.0
C31 C 0.39346 0.24617 0.16064 0.0
H32 H 0.39127 0.21394 0.24572 0.0
H33 H 0.26921 0.15463 0.25977 0.0
H34 H 0.38839 0.16503 0.26894 0.0
H35 H 0.27253 0.20232 0.2362 0.0
H36 H 0.3424 0.20856 0.08201 0.0
H37 H 0.23905 0.11974 0.06923 0.0
H38 H 0.31979 0.20113 0.05053 0.0
H39 H 0.26241 0.12668 0.10075 0.0
Eu40 Eu 0.5713 0.57194 0.42989 0.0
Eu41 Eu 0.62345 0.58743 0.39394 0.0
C42 C 0.65311 0.60697 0.43623 0.0
C43 C 0.47956 0.54914 0.45409 0.0
C44 C 0.45833 0.58207 0.45247 0.0
C45 C 0.42308 0.51428 0.46051 0.0
C46 C 0.4197 0.58125 0.4557 0.0
C47 C 0.4614 0.51515 0.45731 0.0
C48 C 0.4019 0.54757 0.46065 0.0
C49 C 0.52058 0.54896 0.45283 0.0
O50 O 0.65222 0.53681 0.40523 0.0
O51 O 0.60893 0.52053 0.42731 0.0
C52 C 0.63987 0.51384 0.41795 0.0
O53 O 0.53879 0.5781 0.40381 0.0
O54 O 0.67172 0.5859 0.37512 0.0
O55 O 0.61861 0.60781 0.36565 0.0
O56 O 0.57901 0.54218 0.38933 0.0
C57 C 0.54404 0.55084 0.39238 0.0
O58 O 0.56513 0.63431 0.42775 0.0
O59 O 0.59215 0.64241 0.39918 0.0
O60 O 0.65683 0.61299 0.41819 0.0
O61 O 0.53431 0.52819 0.43966 0.0
O62 O 0.5384 0.58068 0.45489 0.0
O63 O 0.62472 0.58879 0.44341 0.0
C64 C 0.65812 0.58177 0.34237 0.0
C65 C 0.64278 0.60001 0.32695 0.0
C66 C 0.68494 0.5352 0.32134 0.0
C67 C 0.64823 0.58612 0.30904 0.0
C68 C 0.67939 0.54915 0.33935 0.0
C69 C 0.66938 0.55347 0.30587 0.0
C70 C 0.65272 0.59871 0.36107 0.0
C71 C 0.57344 0.65552 0.41354 0.0
H72 H 0.4717 0.60856 0.44947 0.0
H73 H 0.41094 0.48773 0.46446 0.0
H74 H 0.40424 0.60731 0.45545 0.0
H75 H 0.47721 0.48933 0.45825 0.0
H76 H 0.62672 0.62548 0.32874 0.0
H77 H 0.70108 0.50981 0.31958 0.0
H78 H 0.63632 0.60152 0.29762 0.0
H79 H 0.6918 0.53443 0.35087 0.0
Eu80 Eu 0.24846 0.82834 0.68066 0.0
Eu81 Eu 0.23952 0.87983 0.64379 0.0
C82 C 0.22013 0.91304 0.68534 0.0
C83 C 0.25477 0.73762 0.70794 0.0
C84 C 0.23623 0.72578 0.72385 0.0
C85 C 0.26584 0.67251 0.69954 0.0
C86 C 0.23393 0.6878 0.72802 0.0
C87 C 0.2683 0.71064 0.69544 0.0
C88 C 0.25032 0.66068 0.71635 0.0
C89 C 0.26244 0.77783 0.70542 0.0
O90 O 0.28942 0.90663 0.65703 0.0
O91 O 0.30349 0.86061 0.67809 0.0
C92 C 0.31149 0.89235 0.66966 0.0
O93 O 0.24254 0.79459 0.65496 0.0
O94 O 0.24626 0.92797 0.62503 0.0
O95 O 0.22256 0.87605 0.61496 0.0
O96 O 0.2813 0.83155 0.63993 0.0
C97 C 0.2704 0.79742 0.64366 0.0
O98 O 0.18609 0.82594 0.67654 0.0
O99 O 0.18165 0.85383 0.64796 0.0
O100 O 0.21342 0.91529 0.66729 0.0
O101 O 0.28571 0.78671 0.69224 0.0
O102 O 0.234 0.80074 0.70658 0.0
O103 O 0.23739 0.88449 0.69285 0.0
C104 C 0.25325 0.91427 0.59252 0.0
C105 C 0.27299 0.88482 0.58401 0.0
C106 C 0.26163 0.95114 0.56447 0.0
C107 C 0.28649 0.88838 0.56584 0.0
C108 C 0.24837 0.94763 0.58262 0.0
C109 C 0.28041 0.92139 0.55559 0.0
C110 C 0.23394 0.9096 0.61066 0.0
C111 C 0.16649 0.83582 0.66199 0.0
H112 H 0.22544 0.74603 0.73365 0.0
H113 H 0.27833 0.65254 0.69012 0.0
H114 H 0.22217 0.68027 0.74126 0.0
H115 H 0.28262 0.719 0.683 0.0
H116 H 0.27709 0.85861 0.59121 0.0
H117 H 0.2569 0.97734 0.55738 0.0
H118 H 0.30051 0.86466 0.55961 0.0
H119 H 0.23323 0.97079 0.58875 0.0
Eu120 Eu 0.98379 0.49648 0.93375 0.0
Eu121 Eu 0.93643 0.49723 0.89511 0.0
C122 C 0.90049 0.46606 0.93398 0.0
C123 C 0.06774 0.49573 0.96479 0.0
C124 C 0.08439 0.48339 0.98107 0.0
C125 C 0.12798 0.51875 0.95412 0.0
C126 C 0.12233 0.48965 0.98417 0.0
C127 C 0.08988 0.51229 0.95102 0.0
C128 C 0.14444 0.50852 0.971 0.0
C129 C 0.02721 0.49208 0.96251 0.0
O130 O 0.93077 0.55559 0.90659 0.0
O131 O 0.93919 0.54181 0.93725 0.0
C132 C 0.92664 0.56419 0.92413 0.0
O133 O 1.01304 0.5396 0.91732 0.0
O134 O 0.88931 0.51336 0.87719 0.0
O135 O 0.93238 0.47638 0.86683 0.0
O136 O 0.99466 0.52164 0.88829 0.0
C137 C 1.01682 0.54081 0.89948 0.0
O138 O 1.00821 0.45356 0.91405 0.0
O139 O 0.95266 0.43724 0.90163 0.0
O140 O 0.89383 0.48393 0.91828 0.0
O141 O 1.00948 0.52249 0.95781 0.0
O142 O 1.0161 0.46298 0.95317 0.0
O143 O 0.93456 0.4605 0.93986 0.0
C144 C 0.8987 0.51182 0.84429 0.0
C145 C 0.92928 0.52884 0.83547 0.0
C146 C 0.86188 0.52109 0.81625 0.0
C147 C 0.92618 0.54174 0.81718 0.0
C148 C 0.86498 0.50839 0.8345 0.0
C149 C 0.89246 0.53786 0.80716 0.0
C150 C 0.90181 0.49471 0.86297 0.0
C151 C 0.98668 0.42788 0.9066 0.0
H152 H 0.06773 0.47026 0.99174 0.0
H153 H 0.1441 0.53317 0.94368 0.0
H154 H 0.13352 0.482 0.99751 0.0
H155 H 0.07742 0.52143 0.93818 0.0
H156 H 0.95577 0.53159 0.8426 0.0
H157 H 0.8352 0.51803 0.80936 0.0
H158 H 0.95064 0.55392 0.81078 0.0
H159 H 0.84095 0.49531 0.84093 0.0
Eu160 Eu 0.73763 0.87822 0.94035 0.0
Eu161 Eu 0.74561 0.82755 0.9033 0.0
C162 C 0.76908 0.79605 0.94031 0.0
C163 C 0.7487 0.91483 0.99145 0.0
C164 C 0.76505 0.88465 1.00092 0.0
C165 C 0.75829 0.95359 1.01888 0.0
C166 C 0.77746 0.88878 1.01921 0.0
C167 C 0.74593 0.94942 1.00059 0.0
C168 C 0.77393 0.92324 1.02864 0.0
C169 C 0.73058 0.90988 0.97306 0.0
O170 O 0.68295 0.83063 0.90681 0.0
O171 O 0.68218 0.84697 0.93741 0.0
C172 C 0.66498 0.83463 0.92249 0.0
O173 O 0.71064 0.91301 0.91686 0.0
O174 O 0.78194 0.78665 0.89039 0.0
O175 O 0.72804 0.79943 0.87789 0.0
O176 O 0.73812 0.88449 0.89158 0.0
C177 C 0.7194 0.91221 0.899 0.0
O178 O 0.78866 0.90378 0.92748 0.0
O179 O 0.80117 0.85893 0.90547 0.0
O180 O 0.74143 0.79304 0.92882 0.0
O181 O 0.74447 0.92711 0.95876 0.0
O182 O 0.71864 0.87646 0.96887 0.0
O183 O 0.77949 0.83017 0.94456 0.0
C184 C 0.75022 0.73689 0.87556 0.0
C185 C 0.7322 0.72454 0.85957 0.0
C186 C 0.76366 0.67219 0.88371 0.0
C187 C 0.73148 0.68656 0.8552 0.0
C188 C 0.76444 0.71034 0.88804 0.0
C189 C 0.74904 0.66001 0.86672 0.0
C190 C 0.75711 0.77725 0.878 0.0
C191 C 0.81011 0.88989 0.91444 0.0
H192 H 0.76736 0.85748 0.99436 0.0
H193 H 0.75563 0.98081 1.0253 0.0
H194 H 0.78879 0.86447 1.02612 0.0
H195 H 0.73333 0.97316 0.9937 0.0
H196 H 0.72083 0.74447 0.84981 0.0
H197 H 0.7769 0.6526 0.89303 0.0
H198 H 0.72023 0.67876 0.84187 0.0
H199 H 0.77818 0.71912 0.9006 0.0
Eu200 Eu 0.43885 0.49847 0.68977 0.0
Eu201 Eu 0.47286 0.49118 0.64796 0.0
C202 C 0.52303 0.53198 0.67915 0.0
C203 C 0.40661 0.51401 0.74205 0.0
C204 C 0.43642 0.53105 0.75153 0.0
C205 C 0.36806 0.52163 0.76964 0.0
C206 C 0.43207 0.54316 0.7699 0.0
C207 C 0.37238 0.50977 0.75129 0.0
C208 C 0.39783 0.53844 0.77938 0.0
C209 C 0.41131 0.49654 0.72349 0.0
O210 O 0.50511 0.4486 0.66438 0.0
O211 O 0.45742 0.43793 0.68458 0.0
C212 C 0.4883 0.42664 0.67627 0.0
O213 O 0.39061 0.48938 0.66893 0.0
O214 O 0.48168 0.45591 0.62378 0.0
O215 O 0.4928 0.51539 0.62218 0.0
O216 O 0.42529 0.45152 0.65117 0.0
C217 C 0.39268 0.4648 0.6554 0.0
O218 O 0.43321 0.55715 0.67901 0.0
O219 O 0.43286 0.54106 0.64834 0.0
O220 O 0.51979 0.51999 0.66212 0.0
O221 O 0.39309 0.51005 0.7094 0.0
O222 O 0.44427 0.48394 0.71889 0.0
O223 O 0.49636 0.52748 0.69169 0.0
C224 C 0.45977 0.48719 0.59738 0.0
C225 C 0.44864 0.4546 0.58803 0.0
C226 C 0.41496 0.52288 0.57932 0.0
C227 C 0.42085 0.45609 0.57452 0.0
C228 C 0.44255 0.52135 0.59291 0.0
C229 C 0.40367 0.49028 0.56994 0.0
C230 C 0.48634 0.48462 0.61295 0.0
C231 C 0.42596 0.56525 0.6617 0.0
H232 H 0.46336 0.53427 0.74489 0.0
H233 H 0.34108 0.51765 0.77609 0.0
H234 H 0.45606 0.55523 0.77679 0.0
H235 H 0.34898 0.49645 0.74441 0.0
H236 H 0.46108 0.42781 0.59137 0.0
H237 H 0.4032 0.54991 0.5759 0.0
H238 H 0.41291 0.43035 0.56768 0.0
H239 H 0.45016 0.54701 0.59994 0.0
Eu240 Eu 0.82917 0.19606 0.43965 0.0
Eu241 Eu 0.83443 0.23109 0.39808 0.0
C242 C 0.79387 0.27975 0.42971 0.0
C243 C 0.81158 0.16312 0.49132 0.0
C244 C 0.79396 0.1932 0.50036 0.0
C245 C 0.80022 0.12455 0.51858 0.0
C246 C 0.77984 0.18901 0.51838 0.0
C247 C 0.81417 0.12873 0.50059 0.0
C248 C 0.78317 0.15471 0.52789 0.0
C249 C 0.83069 0.16751 0.47315 0.0
O250 O 0.87604 0.2645 0.41461 0.0
O251 O 0.88892 0.21664 0.43441 0.0
C252 C 0.89884 0.24813 0.42627 0.0
O253 O 0.83824 0.1485 0.41838 0.0
O254 O 0.86944 0.23995 0.37386 0.0
O255 O 0.80992 0.25101 0.37236 0.0
O256 O 0.87542 0.18457 0.40115 0.0
C257 C 0.86276 0.15152 0.40492 0.0
O258 O 0.77008 0.1931 0.42936 0.0
O259 O 0.78522 0.19016 0.39873 0.0
O260 O 0.80519 0.27751 0.41255 0.0
O261 O 0.81763 0.14966 0.4588 0.0
O262 O 0.84385 0.20041 0.46883 0.0
O263 O 0.79953 0.25298 0.44204 0.0
C264 C 0.83786 0.21716 0.34779 0.0
C265 C 0.86965 0.20856 0.33726 0.0
C266 C 0.80337 0.16883 0.33141 0.0
C267 C 0.8683 0.18042 0.32386 0.0
C268 C 0.80482 0.19668 0.34487 0.0
C269 C 0.83499 0.16044 0.32061 0.0
C270 C 0.84057 0.24432 0.3631 0.0
C271 C 0.76126 0.18454 0.41229 0.0
H272 H 0.79177 0.22019 0.49368 0.0
H273 H 0.80284 0.09753 0.52519 0.0
H274 H 0.76724 0.21305 0.52504 0.0
H275 H 0.8278 0.10511 0.49403 0.0
H276 H 0.8957 0.22336 0.33952 0.0
H277 H 0.77695 0.15479 0.3291 0.0
H278 H 0.89332 0.17457 0.31597 0.0
H279 H 0.77994 0.20205 0.35297 0.0
Eu280 Eu 0.11989 0.58356 0.18909 0.0
Eu281 Eu 0.08184 0.58526 0.14815 0.0
C282 C 0.03801 0.54307 0.18084 0.0
C283 C 0.15201 0.56675 0.24081 0.0
C284 C 0.12788 0.57744 0.25525 0.0
C285 C 0.18592 0.52747 0.26285 0.0
C286 C 0.13277 0.56352 0.2732 0.0
C287 C 0.181 0.5414 0.24488 0.0
C288 C 0.16214 0.53863 0.27738 0.0
C289 C 0.14974 0.58543 0.22235 0.0
O290 O 0.0506 0.62884 0.16483 0.0
O291 O 0.10058 0.64309 0.18305 0.0
C292 C 0.06865 0.65285 0.17535 0.0
O293 O 0.16644 0.59433 0.16747 0.0
O294 O 0.06443 0.61806 0.1243 0.0
O295 O 0.06398 0.55763 0.12278 0.0
O296 O 0.12837 0.62669 0.14852 0.0
C297 C 0.16196 0.61675 0.15318 0.0
O298 O 0.12281 0.52428 0.1789 0.0
O299 O 0.12668 0.53951 0.14844 0.0
O300 O 0.04121 0.54916 0.1631 0.0
O301 O 0.16566 0.56958 0.20813 0.0
O302 O 0.11861 0.60221 0.21785 0.0
O303 O 0.06225 0.55601 0.19314 0.0
C304 C 0.0909 0.59062 0.09776 0.0
C305 C 0.09967 0.62521 0.08964 0.0
C306 C 0.13872 0.56107 0.07886 0.0
C307 C 0.12778 0.62772 0.07632 0.0
C308 C 0.11072 0.55856 0.09217 0.0
C309 C 0.14761 0.59564 0.07077 0.0
C310 C 0.0646 0.58887 0.11348 0.0
C311 C 0.13254 0.51561 0.16197 0.0
H312 H 0.10569 0.59748 0.25281 0.0
H313 H 0.20855 0.50799 0.26534 0.0
H314 H 0.11413 0.57331 0.28394 0.0
H315 H 0.2005 0.53287 0.23424 0.0
H316 H 0.0852 0.65049 0.09381 0.0
H317 H 0.15273 0.53562 0.07457 0.0
H318 H 0.13394 0.65477 0.07035 0.0
H319 H 0.10496 0.53146 0.09819 0.0
Eu320 Eu 0.82605 0.74028 0.68752 0.0
Eu321 Eu 0.82448 0.70173 0.64658 0.0
C322 C 0.85716 0.65987 0.68259 0.0
C323 C 0.82852 0.73066 0.73777 0.0
C324 C 0.86204 0.72068 0.74662 0.0
C325 C 0.79614 0.68245 0.7552 0.0
C326 C 0.86264 0.6917 0.75953 0.0
C327 C 0.79554 0.71129 0.74229 0.0
C328 C 0.82968 0.67219 0.76393 0.0
C329 C 0.82904 0.75738 0.72222 0.0
O330 O 0.76522 0.69853 0.65677 0.0
O331 O 0.78036 0.69559 0.6873 0.0
C332 C 0.75658 0.68929 0.67376 0.0
O333 O 0.79021 0.78083 0.67232 0.0
O334 O 0.81064 0.65594 0.6275 0.0
O335 O 0.843 0.7031 0.61781 0.0
O336 O 0.79689 0.75912 0.64237 0.0
C337 C 0.78415 0.78365 0.65456 0.0
O338 O 0.86911 0.77188 0.67085 0.0
O339 O 0.88388 0.72158 0.65286 0.0
O340 O 0.83494 0.65528 0.66822 0.0
O341 O 0.8587 0.75598 0.71177 0.0
O342 O 0.79836 0.75998 0.71253 0.0
O343 O 0.86734 0.69351 0.68713 0.0
C344 C 0.80654 0.67039 0.59495 0.0
C345 C 0.77909 0.64311 0.59128 0.0
C346 C 0.80311 0.68914 0.5625 0.0
C347 C 0.76405 0.63879 0.57347 0.0
C348 C 0.81816 0.69344 0.58029 0.0
C349 C 0.77611 0.66142 0.5587 0.0
C350 C 0.82605 0.67207 0.61325 0.0
C351 C 0.89326 0.75385 0.66042 0.0
H352 H 0.88799 0.73475 0.74326 0.0
H353 H 0.77004 0.66871 0.7586 0.0
H354 H 0.88896 0.68453 0.766 0.0
H355 H 0.76921 0.71795 0.73566 0.0
H356 H 0.7697 0.6245 0.60209 0.0
H357 H 0.81365 0.70683 0.55157 0.0
H358 H 0.74297 0.61748 0.57128 0.0
H359 H 0.83973 0.71428 0.58243 0.0
Eu360 Eu 0.07308 0.08358 0.93242 0.0
Eu361 Eu 0.12093 0.08492 0.8941 0.0
C362 C 0.15526 0.11598 0.93358 0.0
C363 C 0.98746 0.07237 0.96159 0.0
C364 C 0.95877 0.09909 0.9599 0.0
C365 C 0.94047 1.02437 0.9665 0.0
C366 C 0.9213 0.08867 0.96198 0.0
C367 C 0.97778 0.03475 0.96439 0.0
C368 C 0.91178 0.05138 0.966 0.0
C369 C 0.02721 0.08357 0.96023 0.0
O370 O 0.12396 0.02586 0.90466 0.0
O371 O 0.11862 0.03907 0.93543 0.0
C372 C 0.12954 1.01662 0.92198 0.0
O373 O 0.04534 0.04041 0.91524 0.0
O374 O 0.16881 0.06893 0.87666 0.0
O375 O 0.12532 0.10466 0.86569 0.0
O376 O 0.06221 0.06252 0.88684 0.0
C377 C 0.04079 0.0415 0.89746 0.0
O378 O 0.04957 0.12839 0.91346 0.0
O379 O 0.10485 0.14484 0.90073 0.0
O380 O 0.16256 0.09846 0.91779 0.0
O381 O 0.05146 0.05696 0.95725 0.0
O382 O 0.03429 0.11329 0.95047 0.0
O383 O 0.12098 0.12066 0.93939 0.0
C384 C 0.15934 0.06754 0.84375 0.0
C385 C 0.12795 0.05483 0.83382 0.0
C386 C 0.19854 0.05092 0.81735 0.0
C387 C 0.13184 0.04061 0.81576 0.0
C388 C 0.19463 0.065 0.83535 0.0
C389 C 0.16719 0.03893 0.80711 0.0
C390 C 0.15603 0.08626 0.86213 0.0
C391 C 0.07107 0.15415 0.9061 0.0
H392 H 0.96529 0.12828 0.95749 0.0
H393 H 0.93457 0.99549 0.96993 0.0
H394 H 0.89995 0.11014 0.96142 0.0
H395 H 0.9991 1.01335 0.96559 0.0
H396 H 0.10029 0.05655 0.83985 0.0
H397 H 0.22633 0.04948 0.81146 0.0
H398 H 0.10695 0.03193 0.8084 0.0
H399 H 0.21932 0.07462 0.84262 0.0
Eu400 Eu 0.73197 0.33911 0.1856 0.0
Eu401 Eu 0.7356 0.38263 0.1459 0.0
C402 C 0.70502 0.42263 0.18362 0.0
C403 C 0.72453 0.26028 0.21902 0.0
C404 C 0.7159 0.24644 0.23648 0.0
C405 C 0.7362 0.19692 0.20814 0.0
C406 C 0.71837 0.20816 0.23994 0.0
C407 C 0.73352 0.23532 0.2047 0.0
C408 C 0.72965 0.18299 0.22596 0.0
C409 C 0.72535 0.30074 0.21589 0.0
O410 O 0.79441 0.38282 0.1571 0.0
O411 O 0.77904 0.38217 0.18774 0.0
C412 C 0.80286 0.39009 0.17439 0.0
O413 O 0.76883 0.30192 0.16914 0.0
O414 O 0.75523 0.42736 0.12746 0.0
O415 O 0.71414 0.38754 0.11775 0.0
O416 O 0.75721 0.32314 0.13968 0.0
C417 C 0.77125 0.2982 0.15126 0.0
O418 O 0.68952 0.31298 0.1664 0.0
O419 O 0.67502 0.36726 0.15211 0.0
O420 O 0.72546 0.42729 0.16855 0.0
O421 O 0.75714 0.31409 0.21 0.0
O422 O 0.69687 0.31421 0.20688 0.0
O423 O 0.69543 0.38917 0.18897 0.0
C424 C 0.75223 0.41668 0.09444 0.0
C425 C 0.73602 0.39606 0.07991 0.0
C426 C 0.79429 0.44541 0.07185 0.0
C427 C 0.74861 0.40011 0.06166 0.0
C428 C 0.78166 0.44134 0.09012 0.0
C429 C 0.77773 0.42514 0.05725 0.0
C430 C 0.73547 0.41581 0.1134 0.0
C431 C 0.66493 0.33387 0.15783 0.0
H432 H 0.70868 0.26535 0.24763 0.0
H433 H 0.74489 0.17841 0.1971 0.0
H434 H 0.71389 0.19874 0.25395 0.0
H435 H 0.73978 0.24571 0.19105 0.0
H436 H 0.71278 0.37737 0.08254 0.0
H437 H 0.81709 0.46458 0.06919 0.0
H438 H 0.73461 0.38436 0.05092 0.0
H439 H 0.79453 0.45814 0.10083 0.0
Eu440 Eu 0.47509 1.00421 0.43772 0.0
Eu441 Eu 0.44243 0.99752 0.39569 0.0
C442 C 0.3935 0.97967 0.43203 0.0
C443 C 0.46372 0.99988 0.48812 0.0
C444 C 0.45724 0.965 0.49645 0.0
C445 C 0.4131 0.02628 0.50638 0.0
C446 C 0.4289 0.96073 0.50951 0.0
C447 C 0.44124 0.03048 0.4932 0.0
C448 C 0.40662 0.99138 0.51475 0.0
C449 C 0.49058 1.00277 0.47268 0.0
O450 O 0.41921 0.05238 0.40642 0.0
O451 O 0.45956 0.06396 0.43051 0.0
C452 C 0.43262 0.07479 0.4193 0.0
O453 O 0.52533 1.00988 0.41985 0.0
O454 O 0.39599 1.00043 0.37565 0.0
O455 O 0.45138 0.98434 0.3666 0.0
O456 O 0.49488 0.03515 0.39505 0.0
C457 C 0.52578 0.0302 0.40485 0.0
O458 O 0.47278 0.94224 0.43082 0.0
O459 O 0.47765 0.94538 0.39953 0.0
O460 O 0.40389 0.96508 0.41602 0.0
O461 O 0.49238 0.97334 0.46212 0.0
O462 O 0.49044 0.03368 0.46312 0.0
O463 O 0.4132 1.00658 0.43905 0.0
C464 C 0.41035 1.00905 0.34325 0.0
C465 C 0.43953 1.02515 0.33296 0.0
C466 C 0.36889 1.01857 0.31677 0.0
C467 C 0.43354 0.03749 0.31477 0.0
C468 C 0.37499 1.00604 0.3349 0.0
C469 C 0.39811 0.03431 0.30623 0.0
C470 C 0.41699 0.99119 0.36162 0.0
C471 C 0.48112 0.92652 0.41495 0.0
H472 H 0.47374 0.94075 0.49264 0.0
H473 H 0.39716 0.05076 0.51038 0.0
H474 H 0.42467 0.93343 0.5156 0.0
H475 H 0.44517 0.05768 0.48694 0.0
H476 H 0.46735 0.02739 0.33877 0.0
H477 H 0.34102 1.01588 0.31111 0.0
H478 H 0.45724 0.04853 0.30728 0.0
H479 H 0.35197 0.99339 0.34234 0.0
Eu480 Eu 0.24132 0.38589 0.44141 0.0
Eu481 Eu 0.25008 0.33214 0.40498 0.0
C482 C 0.27346 0.3045 0.4421 0.0
C483 C 0.2493 0.42225 0.49264 0.0
C484 C 0.26718 0.39287 0.50202 0.0
C485 C 0.25725 0.46124 0.52014 0.0
C486 C 0.27945 0.39744 0.52031 0.0
C487 C 0.2446 0.45648 0.50191 0.0
C488 C 0.27464 0.43169 0.52981 0.0
C489 C 0.23182 0.41654 0.47414 0.0
O490 O 0.18884 0.32432 0.40976 0.0
O491 O 0.18386 0.35841 0.43676 0.0
C492 C 0.16919 0.33678 0.42378 0.0
O493 O 0.21988 0.42225 0.41715 0.0
O494 O 0.29248 0.29311 0.39555 0.0
O495 O 0.24009 0.29867 0.38028 0.0
O496 O 0.22771 0.38322 0.3916 0.0
C497 C 0.2176 0.41512 0.39911 0.0
O498 O 0.29728 0.40576 0.43154 0.0
O499 O 0.29979 0.3722 0.40435 0.0
O500 O 0.24445 0.30184 0.43158 0.0
O501 O 0.24477 0.43496 0.45993 0.0
O502 O 0.2221 0.38241 0.46981 0.0
O503 O 0.28392 0.33866 0.44589 0.0
C504 C 0.26974 0.23883 0.38116 0.0
C505 C 0.23617 0.21866 0.38283 0.0
C506 C 0.30261 0.18133 0.37426 0.0
C507 C 0.23569 0.18003 0.37945 0.0
C508 C 0.30304 0.21963 0.37763 0.0
C509 C 0.26873 0.16119 0.37437 0.0
C510 C 0.27123 0.27984 0.38242 0.0
C511 C 0.31373 0.39708 0.41593 0.0
H512 H 0.27085 0.36592 0.4954 0.0
H513 H 0.25349 0.48837 0.52652 0.0
H514 H 0.29179 0.37349 0.52708 0.0
H515 H 0.23073 0.47959 0.4951 0.0
H516 H 0.21018 0.23287 0.38598 0.0
H517 H 0.32864 0.16828 0.37013 0.0
H518 H 0.20919 0.16537 0.37974 0.0
H519 H 0.32931 0.23462 0.37656 0.0
Eu520 Eu 0.93422 0.99611 0.18937 0.0
Eu521 Eu 0.97305 0.99281 0.14846 0.0
C522 C 1.01594 0.03682 0.18097 0.0
C523 C 0.90094 1.01131 0.24113 0.0
C524 C 0.93214 1.02536 0.25073 0.0
C525 C 0.86283 1.02302 0.26854 0.0
C526 C 0.92872 0.0379 0.26907 0.0
C527 C 0.86624 1.01075 0.2502 0.0
C528 C 0.89405 0.03656 0.27839 0.0
C529 C 0.90427 0.99352 0.22258 0.0
O530 O 1.00379 0.95013 0.16573 0.0
O531 O 0.95289 0.93624 0.18326 0.0
C532 C 0.98513 0.92622 0.17595 0.0
O533 O 0.88783 0.98485 0.16781 0.0
O534 O 0.99072 0.95873 0.12502 0.0
O535 O 0.99246 1.01907 0.12308 0.0
O536 O 0.9257 0.95223 0.14872 0.0
C537 C 0.89221 0.96243 0.15348 0.0
O538 O 0.928 0.0547 0.17849 0.0
O539 O 0.92858 0.03871 0.14788 0.0
O540 O 1.01309 0.0298 0.1633 0.0
O541 O 0.88807 1.00934 0.20847 0.0
O542 O 0.93615 0.97817 0.21812 0.0
O543 O 0.99155 1.02444 0.1933 0.0
C544 C 0.96593 0.98572 0.09801 0.0
C545 C 0.95561 0.95094 0.09045 0.0
C546 C 0.92019 1.01604 0.07824 0.0
C547 C 0.92765 0.94874 0.07701 0.0
C548 C 0.94806 1.01826 0.09164 0.0
C549 C 0.90952 0.98128 0.07083 0.0
C550 C 0.99161 0.98749 0.114 0.0
C551 C 0.92022 0.0625 0.1612 0.0
H552 H 0.95939 0.02587 0.2442 0.0
H553 H 0.83555 1.02178 0.27495 0.0
H554 H 0.95363 0.04759 0.27609 0.0
H555 H 0.84173 0.99987 0.24322 0.0
H556 H 0.96862 0.92532 0.09518 0.0
H557 H 0.90754 0.04177 0.07342 0.0
H558 H 0.92016 0.92155 0.07152 0.0
H559 H 0.95516 0.04553 0.09717 0.0
Eu560 Eu 0.32162 0.69994 0.93891 0.0
Eu561 Eu 0.32732 0.73252 0.89686 0.0
C562 C 0.2859 0.78278 0.92801 0.0
C563 C 0.30454 0.66784 0.99105 0.0
C564 C 0.28888 0.69818 1.00074 0.0
C565 C 0.29441 0.62877 1.01825 0.0
C566 C 0.27626 0.69384 1.01902 0.0
C567 C 0.30668 0.63306 0.99998 0.0
C568 C 0.27922 0.65912 1.02821 0.0
C569 C 0.3227 0.6723 0.97263 0.0
O570 O 0.36874 0.76701 0.9128 0.0
O571 O 0.38137 0.7216 0.93403 0.0
C572 C 0.39154 0.75192 0.92488 0.0
O573 O 0.3339 0.65166 0.91835 0.0
O574 O 0.3617 0.74204 0.87251 0.0
O575 O 0.30175 0.75045 0.87104 0.0
O576 O 0.37005 0.68793 0.90063 0.0
C577 C 0.3587 0.65471 0.90498 0.0
O578 O 0.26293 0.69449 0.92771 0.0
O579 O 0.28098 0.68874 0.8976 0.0
O580 O 0.29624 0.77855 0.91076 0.0
O581 O 0.30938 0.65423 0.95841 0.0
O582 O 0.33589 0.70507 0.96812 0.0
O583 O 0.29239 0.75723 0.94086 0.0
C584 C 0.33096 0.71741 0.84657 0.0
C585 C 0.36354 0.7086 0.83669 0.0
C586 C 0.29778 0.66868 0.82979 0.0
C587 C 0.36328 0.68009 0.8235 0.0
C588 C 0.29813 0.69694 0.84308 0.0
C589 C 0.33031 0.65992 0.81976 0.0
C590 C 0.33259 0.74491 0.86177 0.0
C591 C 0.25585 0.68396 0.91067 0.0
H592 H 0.28715 0.72549 0.99435 0.0
H593 H 0.29683 0.60142 1.02452 0.0
H594 H 0.26523 0.71812 1.02612 0.0
H595 H 0.31883 0.60919 0.99294 0.0
H596 H 0.3894 0.72348 0.83935 0.0
H597 H 0.2716 0.65449 0.82706 0.0
H598 H 0.38897 0.67406 0.81619 0.0
H599 H 0.27259 0.70259 0.85063 0.0
Eu600 Eu 0.62438 0.0848 0.6903 0.0
Eu601 Eu 0.57729 0.08661 0.65155 0.0
C602 C 0.54293 0.04364 0.68601 0.0
C603 C 0.66185 0.06641 0.74075 0.0
C604 C 0.63015 0.05395 0.75048 0.0
C605 C 0.70032 0.04989 0.7674 0.0
C606 C 0.63353 0.03988 0.76855 0.0
C607 C 0.69692 0.06379 0.74937 0.0
C608 C 0.66865 0.03814 0.77743 0.0
C609 C 0.65909 0.08506 0.72239 0.0
O610 O 0.55271 0.12903 0.6714 0.0
O611 O 0.60809 0.14497 0.68421 0.0
C612 C 0.57412 0.1544 0.67914 0.0
O613 O 0.66701 0.09735 0.66706 0.0
O614 O 0.55202 0.06059 0.62739 0.0
O615 O 0.5456 0.12017 0.63189 0.0
O616 O 0.62649 0.1232 0.64611 0.0
C617 C 0.66056 0.11634 0.65167 0.0
O618 O 0.62589 0.02618 0.6789 0.0
O619 O 0.62219 0.04162 0.64832 0.0
O620 O 0.54641 0.04472 0.66814 0.0
O621 O 0.67156 0.06739 0.70786 0.0
O622 O 0.62886 0.10419 0.7188 0.0
O623 O 0.56584 0.06192 0.69716 0.0
C624 C 0.49394 0.08751 0.62016 0.0
C625 C 0.47759 0.09906 0.60366 0.0
C626 C 0.43335 0.06553 0.63092 0.0
C627 C 0.43961 0.09301 0.60054 0.0
C628 C 0.47148 0.07179 0.63405 0.0
C629 C 0.41714 0.07517 0.6139 0.0
C630 C 0.53449 0.09104 0.62257 0.0
C631 C 0.63184 1.01799 0.66146 0.0
H632 H 0.60265 0.05576 0.74426 0.0
H633 H 0.72794 0.04839 0.77347 0.0
H634 H 0.60842 0.03138 0.77576 0.0
H635 H 0.72183 0.07326 0.74226 0.0
H636 H 0.4945 0.11147 0.59288 0.0
H637 H 0.41695 0.05185 0.6415 0.0
H638 H 0.42857 0.10012 0.58709 0.0
H639 H 0.48368 0.06322 0.64704 0.0
H640 H 0.2819 0.09404 0.26956 0.0
H641 H 0.3688 0.15479 0.29839 0.0
H642 H 0.26471 0.0632 0.29837 0.0
H643 H 0.35317 0.12281 0.32641 0.0
H644 H 0.2159 0.13598 0.35007 0.0
H645 H 0.23358 0.10261 0.32261 0.0
H646 H 0.33775 0.07059 0.34818 0.0
H647 H 0.31912 0.10276 0.37625 0.0
C648 C 0.29796 0.1002 0.28186 0.0
C649 C 0.32563 0.12829 0.28177 0.0
C650 C 0.28852 0.08194 0.29826 0.0
C651 C 0.30698 0.09109 0.31476 0.0
C652 C 0.33823 0.11495 0.31399 0.0
C653 C 0.34717 0.13366 0.29777 0.0
C654 C 0.24137 0.11961 0.35048 0.0
C655 C 0.26751 0.12439 0.36478 0.0
C656 C 0.25163 0.10022 0.33455 0.0
C657 C 0.28819 0.08613 0.33283 0.0
C658 C 0.30989 0.08235 0.34889 0.0
C659 C 0.2993 0.10116 0.36497 0.0
H660 H 0.40441 0.45021 0.53776 0.0
H661 H 0.34183 0.53598 0.56646 0.0
H662 H 0.37092 0.46387 0.50985 0.0
H663 H 0.30919 0.55107 0.5378 0.0
H664 H 0.3456 0.49444 0.45992 0.0
H665 H 0.31698 0.4754 0.48875 0.0
H666 H 0.3444 0.5827 0.51259 0.0
H667 H 0.37479 0.60073 0.48446 0.0
C668 C 0.38261 0.47119 0.53835 0.0
C669 C 0.37687 0.49286 0.55428 0.0
C670 C 0.36302 0.47895 0.52222 0.0
C671 C 0.33781 0.50915 0.52147 0.0
C672 C 0.32886 0.52802 0.5379 0.0
C673 C 0.34807 0.51978 0.55421 0.0
C674 C 0.34381 0.51473 0.47102 0.0
C675 C 0.36539 0.54766 0.47052 0.0
C676 C 0.32693 0.50389 0.48753 0.0
C677 C 0.33062 0.52664 0.50328 0.0
C678 C 0.34231 0.56387 0.5009 0.0
C679 C 0.35994 0.57433 0.48456 0.0
H680 H 0.31402 0.61828 0.71132 0.0
H681 H 0.20705 0.61602 0.73894 0.0
H682 H 0.3417 0.58429 0.73661 0.0
H683 H 0.23558 0.58517 0.76497 0.0
H684 H 0.36713 0.66383 0.78684 0.0
H685 H 0.35271 0.63066 0.7591 0.0
H686 H 0.27394 0.56122 0.78869 0.0
H687 H 0.28956 0.59446 0.81712 0.0
C688 C 0.29576 0.60909 0.72232 0.0
C689 C 0.25905 0.62301 0.724 0.0
C690 C 0.31187 0.58963 0.73699 0.0
C691 C 0.29184 0.58582 0.75358 0.0
C692 C 0.25268 0.58976 0.75287 0.0
C693 C 0.23622 0.60802 0.73793 0.0
C694 C 0.34786 0.64056 0.78777 0.0
C695 C 0.32843 0.63294 0.80415 0.0
C696 C 0.33954 0.62109 0.77167 0.0
C697 C 0.311 0.59388 0.77139 0.0
C698 C 0.29514 0.58284 0.78827 0.0
C699 C 0.30379 0.6022 0.80451 0.0
H700 H 0.19921 0.47454 0.99174 0.0
H701 H 0.17494 0.57764 0.96328 0.0
H702 H 0.23133 0.50898 1.01544 0.0
H703 H 0.21081 0.61199 0.98606 0.0
H704 H 0.21494 0.55913 0.06722 0.0
H705 H 0.2485 0.54781 1.03852 0.0
H706 H 0.17355 0.6244 1.01065 0.0
H707 H 0.14127 0.63573 1.03901 0.0
C708 C 0.20249 0.50448 0.99002 0.0
C709 C 0.18135 0.52377 0.97677 0.0
C710 C 0.2214 0.52455 1.00365 0.0
C711 C 0.21954 0.56397 1.00381 0.0
C712 C 0.20935 0.58182 0.98725 0.0
C713 C 0.18908 0.56193 0.97396 0.0
C714 C 0.20627 0.57395 0.05492 0.0
C715 C 0.17437 0.59695 0.05516 0.0
C716 C 0.22555 0.56756 1.03845 0.0
C717 C 0.21264 0.58328 1.02182 0.0
C718 C 0.18441 0.61085 1.02285 0.0
C719 C 0.16538 0.61738 1.03929 0.0
H720 H 0.70879 0.61343 0.84362 0.0
H721 H 0.81533 0.6216 0.87138 0.0
H722 H 0.73936 0.58675 0.81704 0.0
H723 H 0.84542 0.59157 0.84545 0.0
H724 H 0.79106 0.60563 0.76523 0.0
H725 H 0.77797 0.56877 0.79279 0.0
H726 H 0.85478 0.63853 0.82368 0.0
H727 H 0.86738 0.67459 0.79655 0.0
C728 C 0.73847 0.60751 0.8445 0.0
C729 C 0.76017 0.62324 0.8587 0.0
C730 C 0.7562 0.59173 0.8292 0.0
C731 C 0.79556 0.59086 0.82843 0.0
C732 C 0.8153 0.59488 0.84511 0.0
C733 C 0.79779 0.61191 0.86017 0.0
C734 C 0.8055 0.61252 0.77792 0.0
C735 C 0.82912 0.64395 0.77891 0.0
C736 C 0.79822 0.59123 0.79368 0.0
C737 C 0.81409 0.60131 0.81075 0.0
C738 C 0.84159 0.62962 0.81097 0.0
C739 C 0.8488 0.65079 0.79529 0.0
H740 H 0.69473 0.13418 0.24954 0.0
H741 H 0.79145 0.14369 0.21427 0.0
H742 H 0.72985 0.09542 0.27043 0.0
H743 H 0.82592 0.10208 0.23445 0.0
H744 H 0.79386 0.09526 0.31801 0.0
H745 H 0.77258 0.06622 0.28945 0.0
H746 H 0.84815 0.13739 0.25883 0.0
H747 H 0.86864 0.16599 0.28686 0.0
C748 C 0.72296 0.1263 0.24573 0.0
C749 C 0.74135 0.14457 0.23121 0.0
C750 C 0.74329 0.1035 0.25768 0.0
C751 C 0.78209 0.0989 0.25505 0.0
C752 C 0.79683 0.10772 0.23759 0.0
C753 C 0.77685 0.13147 0.22587 0.0
C754 C 0.80629 0.10416 0.30513 0.0
C755 C 0.8314 0.13447 0.30465 0.0
C756 C 0.79433 0.08724 0.28875 0.0
C757 C 0.80681 0.10085 0.27163 0.0
C758 C 0.8369 0.12638 0.27156 0.0
C759 C 0.84876 0.14325 0.28786 0.0
H760 H 0.84383 1.02036 0.06707 0.0
H761 H 0.91356 0.93878 1.03965 0.0
H762 H 0.81018 0.03123 1.03829 0.0
H763 H 0.88056 0.94933 1.01124 0.0
H764 H 0.86963 0.09408 0.98936 0.0
H765 H 0.83698 0.06733 1.01488 0.0
H766 H 0.83589 0.95982 0.98754 0.0
H767 H 0.86934 0.98711 0.96154 0.0
C768 C 0.85144 1.00421 0.05499 0.0
C769 C 0.88239 0.97995 0.05538 0.0
C770 C 0.83196 1.01018 1.03855 0.0
C771 C 0.84354 0.99243 1.02217 0.0
C772 C 0.87077 0.96399 1.02339 0.0
C773 C 0.89016 0.95802 1.03978 0.0
C774 C 0.86067 0.06525 0.98812 0.0
C775 C 0.87481 0.04193 0.97414 0.0
C776 C 0.84158 0.04962 1.00296 0.0
C777 C 0.83705 1.01055 1.00397 0.0
C778 C 0.84144 0.98963 0.98765 0.0
C779 C 0.86069 1.00526 0.97275 0.0
H780 H 0.41537 0.95089 0.5463 0.0
H781 H 0.33744 1.02457 0.51893 0.0
H782 H 0.38407 0.96093 0.57496 0.0
H783 H 0.30553 0.03536 0.54819 0.0
H784 H 0.38527 1.007 0.62215 0.0
H785 H 0.34696 0.97314 0.60015 0.0
H786 H 0.3279 0.07582 0.57026 0.0
H787 H 0.36302 0.10991 0.59312 0.0
C788 C 0.39057 0.96828 0.54624 0.0
C789 C 0.38019 0.98852 0.53049 0.0
C790 C 0.37211 0.97405 0.56289 0.0
C791 C 0.34335 1.00094 0.56431 0.0
C792 C 0.32883 1.01602 0.54787 0.0
C793 C 0.3473 1.01009 0.5311 0.0
C794 C 0.371 1.02282 0.61155 0.0
C795 C 0.37981 0.06063 0.60834 0.0
C796 C 0.34916 1.00324 0.59876 0.0
C797 C 0.33828 1.02095 0.58227 0.0
C798 C 0.33803 0.06039 0.58207 0.0
C799 C 0.35872 0.0802 0.59517 0.0
H800 H 0.21354 0.07344 0.94679 0.0
H801 H 0.16044 0.18105 0.95248 0.0
H802 H 0.24783 0.08437 0.97568 0.0
H803 H 0.19383 0.19195 0.98121 0.0
H804 H 0.27062 0.21227 1.0294 0.0
H805 H 0.24999 0.20334 0.99769 0.0
H806 H 0.23293 0.08574 1.00825 0.0
H807 H 0.25516 0.09435 1.03979 0.0
C808 C 0.21037 0.10006 0.9538 0.0
C809 C 0.18477 0.12667 0.94712 0.0
C810 C 0.22941 0.10608 0.9706 0.0
C811 C 0.22347 0.13895 0.98108 0.0
C812 C 0.19968 0.16647 0.97364 0.0
C813 C 0.18055 0.16031 0.95702 0.0
C814 C 0.26302 0.18433 1.02497 0.0
C815 C 0.26456 0.15413 1.03743 0.0
C816 C 0.25077 0.17925 1.00671 0.0
C817 C 0.23957 0.14377 1.00019 0.0
C818 C 0.24167 0.11343 1.01254 0.0
C819 C 0.25391 0.11852 1.03083 0.0
H820 H 0.73225 0.52085 0.2904 0.0
H821 H 0.61886 0.55259 0.27717 0.0
H822 H 0.74023 0.49625 0.25916 0.0
H823 H 0.6273 0.52936 0.24588 0.0
H824 H 0.6403 0.43576 0.20179 0.0
H825 H 0.63219 0.47071 0.23033 0.0
H826 H 0.74589 0.51068 0.22631 0.0
H827 H 0.7539 0.47499 0.19756 0.0
C828 C 0.70899 0.52269 0.28088 0.0
C829 C 0.67482 0.53874 0.28654 0.0
C830 C 0.71378 0.50903 0.26279 0.0
C831 C 0.68448 0.51076 0.24979 0.0
C832 C 0.65049 0.52715 0.25542 0.0
C833 C 0.64575 0.54087 0.27343 0.0
C834 C 0.66314 0.45316 0.20661 0.0
C835 C 0.69749 0.45313 0.19716 0.0
C836 C 0.65858 0.47315 0.22311 0.0
C837 C 0.68843 0.49348 0.2309 0.0
C838 C 0.72234 0.49505 0.22092 0.0
C839 C 0.72676 0.47523 0.2042 0.0
H840 H 0.24497 0.95783 0.52702 0.0
H841 H 0.34346 0.89201 0.53854 0.0
H842 H 0.26554 0.96594 0.4954 0.0
H843 H 0.36417 0.90017 0.50677 0.0
H844 H 0.38981 0.90784 0.44565 0.0
H845 H 0.35925 0.88939 0.47458 0.0
H846 H 0.30897 0.99911 0.47834 0.0
H847 H 0.33824 1.01643 0.44946 0.0
C848 C 0.27124 0.94526 0.52293 0.0
C849 C 0.29267 0.9247 0.53571 0.0
C850 C 0.28313 0.94988 0.50461 0.0
C851 C 0.317 0.93424 0.49828 0.0
C852 C 0.3378 0.91248 0.51086 0.0
C853 C 0.32584 0.9078 0.52924 0.0
C854 C 0.37055 0.92714 0.45219 0.0
C855 C 0.36549 0.96321 0.44486 0.0
C856 C 0.35373 0.91699 0.46909 0.0
C857 C 0.33152 0.9427 0.47913 0.0
C858 C 0.32503 0.978 0.47112 0.0
C859 C 0.34168 0.98799 0.45434 0.0
H860 H 0.80711 0.61263 0.69946 0.0
H861 H 0.92325 0.64458 0.69909 0.0
H862 H 0.81647 0.58049 0.72896 0.0
H863 H 0.9332 0.61158 0.72803 0.0
H864 H 0.92639 0.59868 0.79066 0.0
H865 H 0.91962 0.62137 0.75934 0.0
H866 H 0.84316 0.53117 0.74716 0.0
H867 H 0.85046 0.50791 0.77853 0.0
C868 C 0.83504 0.61121 0.70522 0.0
C869 C 0.86463 0.63047 0.69667 0.0
C870 C 0.84043 0.59308 0.72229 0.0
C871 C 0.87559 0.59366 0.73122 0.0
C872 C 0.90553 0.61106 0.72197 0.0
C873 C 0.90004 0.6294 0.70511 0.0
C874 C 0.90868 0.58305 0.78131 0.0
C875 C 0.88904 0.55127 0.78746 0.0
C876 C 0.90469 0.59623 0.76317 0.0
C877 C 0.88077 0.57828 0.75044 0.0
C878 C 0.86142 0.54624 0.75649 0.0
C879 C 0.8656 0.53289 0.77464 0.0
H880 H 0.84644 1.01254 0.13589 0.0
H881 H 0.87491 0.89554 0.1382 0.0
H882 H 0.81476 1.00227 0.10632 0.0
H883 H 0.84219 0.88468 0.1092 0.0
H884 H 0.83276 0.88844 0.0464 0.0
H885 H 0.85392 0.8962 0.07792 0.0
H886 H 0.7656 0.97612 0.08786 0.0
H887 H 0.74384 0.96787 0.05625 0.0
C888 C 0.84425 0.98428 0.13055 0.0
C889 C 0.86248 0.9547 0.13963 0.0
C890 C 0.82639 0.97835 0.11345 0.0
C891 C 0.8262 0.94264 0.10503 0.0
C892 C 0.84235 0.91274 0.11486 0.0
C893 C 0.86048 0.91877 0.13175 0.0
C894 C 0.81716 0.90712 0.0553 0.0
C895 C 0.7864 0.92746 0.04845 0.0
C896 C 0.82945 0.91167 0.07356 0.0
C897 C 0.8116 0.93683 0.08571 0.0
C898 C 0.78056 0.95689 0.07897 0.0
C899 C 0.76809 0.95217 0.0607 0.0
H900 H 0.42512 0.63591 0.88983 0.0
H901 H 0.3074 0.61116 0.88654 0.0
H902 H 0.43553 0.60408 0.86053 0.0
H903 H 0.31738 0.58014 0.85672 0.0
H904 H 0.35303 0.50788 0.80681 0.0
H905 H 0.34403 0.52958 0.83838 0.0
H906 H 0.42378 0.61815 0.82913 0.0
H907 H 0.43171 0.59767 0.79748 0.0
C908 C 0.4016 0.62246 0.88311 0.0
C909 C 0.3656 0.6253 0.8908 0.0
C910 C 0.40741 0.60482 0.86606 0.0
C911 C 0.37728 0.58989 0.85592 0.0
C912 C 0.34143 0.59086 0.86411 0.0
C913 C 0.33567 0.60833 0.88135 0.0
C914 C 0.36844 0.53228 0.81133 0.0
C915 C 0.39316 0.55086 0.79921 0.0
C916 C 0.36331 0.54466 0.82961 0.0
C917 C 0.38314 0.5757 0.83653 0.0
C918 C 0.40834 0.59379 0.82455 0.0
C919 C 0.41307 0.58181 0.80624 0.0
H920 H 0.71944 0.18409 0.54363 0.0
H921 H 0.81515 0.11542 0.55666 0.0
H922 H 0.69651 0.17673 0.57497 0.0
H923 H 0.79237 0.10828 0.5882 0.0
H924 H 0.71324 0.06972 0.63649 0.0
H925 H 0.74589 0.07972 0.6072 0.0
H926 H 0.70522 0.19355 0.60596 0.0
H927 H 0.67178 0.18281 0.63473 0.0
C928 C 0.73595 0.16779 0.55322 0.0
C929 C 0.76928 0.15043 0.54741 0.0
C930 C 0.7228 0.16361 0.57136 0.0
C931 C 0.74259 0.14209 0.58444 0.0
C932 C 0.77598 0.12473 0.57863 0.0
C933 C 0.78909 0.12883 0.56043 0.0
C934 C 0.71263 0.09729 0.63031 0.0
C935 C 0.69037 0.12565 0.63811 0.0
C936 C 0.73105 0.10301 0.61335 0.0
C937 C 0.7277 0.13729 0.60378 0.0
C938 C 0.70774 0.16642 0.61246 0.0
C939 C 0.68912 0.16056 0.62922 0.0
H940 H 0.24996 0.48071 0.38775 0.0
H941 H 0.15455 0.4094 0.3789 0.0
H942 H 0.23507 0.51495 0.35933 0.0
H943 H 0.13974 0.44279 0.35056 0.0
H944 H 0.10946 0.5202 0.30368 0.0
H945 H 0.11948 0.49801 0.33506 0.0
H946 H 0.23892 0.50255 0.32662 0.0
H947 H 0.22893 0.52618 0.29549 0.0
C948 C 0.22493 0.47338 0.38013 0.0
C949 C 0.20283 0.44303 0.38583 0.0
C950 C 0.21675 0.49246 0.36361 0.0
C951 C 0.18629 0.48159 0.35239 0.0
C952 C 0.1631 0.4525 0.35878 0.0
C953 C 0.17143 0.43339 0.37515 0.0
C954 C 0.13792 0.51699 0.30854 0.0
C955 C 0.16831 0.52496 0.29681 0.0
C956 C 0.14369 0.50388 0.32658 0.0
C957 C 0.18007 0.49831 0.33357 0.0
C958 C 0.21048 0.50684 0.32195 0.0
C959 C 0.2047 0.51989 0.30389 0.0
H960 H 0.7587 0.59501 0.54127 0.0
H961 H 0.76032 0.71431 0.53201 0.0
H962 H 0.73425 0.58528 0.51032 0.0
H963 H 0.73731 0.70443 0.50069 0.0
H964 H 0.64994 0.67241 0.45517 0.0
H965 H 0.68231 0.6871 0.484 0.0
H966 H 0.74804 0.58629 0.47821 0.0
H967 H 0.71475 0.57152 0.44958 0.0
C968 C 0.75385 0.61927 0.53268 0.0
C969 C 0.76143 0.65552 0.53941 0.0
C970 C 0.74032 0.61362 0.51469 0.0
C971 C 0.73385 0.64399 0.50273 0.0
C972 C 0.74159 0.68026 0.50941 0.0
C973 C 0.7552 0.68592 0.52741 0.0
C974 C 0.67241 0.65426 0.45971 0.0
C975 C 0.68061 0.62142 0.44981 0.0
C976 C 0.69086 0.66248 0.47636 0.0
C977 C 0.71774 0.63777 0.48373 0.0
C978 C 0.72717 0.60579 0.47325 0.0
C979 C 0.70867 0.59763 0.4566 0.0
H980 H 0.21413 0.06587 0.78009 0.0
H981 H 0.13008 0.98124 0.78928 0.0
H982 H 0.22361 0.0425 0.74889 0.0
H983 H 0.13968 0.95768 0.75799 0.0
H984 H 0.14948 0.93254 0.69673 0.0
H985 H 0.13371 0.96687 0.72509 0.0
H986 H 0.25095 0.99042 0.73371 0.0
H987 H 0.2661 0.95677 0.70545 0.0
C988 C 0.19775 0.04209 0.77555 0.0
C989 C 0.17159 1.02531 0.7875 0.0
C990 C 0.20316 0.02866 0.75752 0.0
C991 C 0.18265 0.99789 0.75072 0.0
C992 C 0.15574 0.98171 0.76249 0.0
C993 C 0.15028 0.99521 0.78056 0.0
C994 C 0.17156 0.94653 0.7043 0.0
C995 C 0.20893 0.94288 0.69855 0.0
C996 C 0.16268 0.96558 0.7208 0.0
C997 C 0.191 0.98141 0.73197 0.0
C998 C 0.22815 0.97927 0.72554 0.0
C999 C 0.23693 0.96012 0.7092 0.0
H1000 H 0.80062 0.49003 1.03988 0.0
H1001 H 0.78333 0.37225 1.02955 0.0
H1002 H 0.82277 0.49799 1.00832 0.0
H1003 H 0.80388 0.38055 0.99781 0.0
H1004 H 0.89395 0.40109 0.9527 0.0
H1005 H 0.86017 0.39089 0.98134 0.0
H1006 H 0.80794 0.49929 0.97578 0.0
H1007 H 0.84266 0.50953 0.94699 0.0
C1008 C 0.80144 0.46575 1.03093 0.0
C1009 C 0.79034 0.43036 1.03755 0.0
C1010 C 0.81362 0.47048 1.01263 0.0
C1011 C 0.81522 0.43998 1.00028 0.0
C1012 C 0.8035 0.40474 1.00682 0.0
C1013 C 0.7913 0.40002 1.0251 0.0
C1014 C 0.87414 0.42217 0.95721 0.0
C1015 C 0.87057 0.45585 0.94735 0.0
C1016 C 0.85477 0.41641 0.97377 0.0
C1017 C 0.8314 0.44436 0.98119 0.0
C1018 C 0.82604 0.47726 0.97072 0.0
C1019 C 0.84532 0.48289 0.95397 0.0
H1020 H 0.42292 0.12591 0.19466 0.0
H1021 H 0.30396 0.11067 0.20014 0.0
H1022 H 0.43294 0.09449 0.22404 0.0
H1023 H 0.31364 0.08015 0.23005 0.0
H1024 H 0.34777 1.00711 0.28009 0.0
H1025 H 0.33749 0.02851 0.24861 0.0
H1026 H 0.42468 0.11079 0.25546 0.0
H1027 H 0.43382 0.09093 0.28703 0.0
C1028 C 0.39892 0.11459 0.20188 0.0
C1029 C 0.36274 0.11995 0.19474 0.0
C1030 C 0.40457 0.09723 0.21899 0.0
C1031 C 0.37413 0.08514 0.22978 0.0
C1032 C 0.3379 0.08862 0.22217 0.0
C1033 C 0.33229 0.10579 0.20486 0.0
C1034 C 0.36455 0.03013 0.27509 0.0
C1035 C 0.39186 0.04697 0.28652 0.0
C1036 C 0.35869 0.04231 0.25684 0.0
C1037 C 0.38031 0.07136 0.24922 0.0
C1038 C 0.40782 0.08787 0.26054 0.0
C1039 C 0.41324 0.0762 0.27883 0.0
H1040 H 0.35182 0.5185 0.63723 0.0
H1041 H 0.3707 0.39959 0.63993 0.0
H1042 H 0.32026 0.5105 0.60741 0.0
H1043 H 0.33829 0.39119 0.61066 0.0
H1044 H 0.33289 0.39598 0.54784 0.0
H1045 H 0.35338 0.40282 0.57942 0.0
H1046 H 0.26854 0.48654 0.58883 0.0
H1047 H 0.2464 0.47843 0.5573 0.0
C1048 C 0.34759 0.49047 0.63191 0.0
C1049 C 0.36311 0.45957 0.64117 0.0
C1050 C 0.32981 0.48584 0.61468 0.0
C1051 C 0.32707 0.45018 0.60633 0.0
C1052 C 0.34047 0.41918 0.61631 0.0
C1053 C 0.35845 0.42386 0.63334 0.0
C1054 C 0.31768 0.41524 0.55658 0.0
C1055 C 0.28756 0.43639 0.54958 0.0
C1056 C 0.32978 0.41938 0.57488 0.0
C1057 C 0.31277 0.4453 0.58691 0.0
C1058 C 0.28275 0.46661 0.58002 0.0
C1059 C 0.27015 0.46201 0.56174 0.0
H1060 H 0.84874 1.00759 0.30588 0.0
H1061 H 0.9311 0.0938 0.29634 0.0
H1062 H 0.84182 0.02891 0.33768 0.0
H1063 H 0.92479 0.11441 0.3281 0.0
H1064 H 0.92805 0.13188 0.38884 0.0
H1065 H 0.93662 0.10032 0.35933 0.0
H1066 H 0.81775 0.07954 0.35643 0.0
H1067 H 0.80964 0.11018 0.38648 0.0
C1068 C 0.86537 0.03115 0.31045 0.0
C1069 C 0.89049 0.04888 0.29825 0.0
C1070 C 0.86143 0.04334 0.32883 0.0
C1071 C 0.88269 0.07349 0.33569 0.0
C1072 C 0.90827 0.09072 0.32358 0.0
C1073 C 0.91199 0.07877 0.30521 0.0
C1074 C 0.90395 0.11923 0.38224 0.0
C1075 C 0.86833 0.12276 0.39028 0.0
C1076 C 0.90871 0.10174 0.36508 0.0
C1077 C 0.87787 0.0877 0.35515 0.0
C1078 C 0.84233 0.08951 0.36365 0.0
C1079 C 0.83764 0.10678 0.38101 0.0
H1080 H 0.17866 0.6839 0.13821 0.0
H1081 H 0.2077 0.56713 0.13499 0.0
H1082 H 0.21066 0.69548 0.10912 0.0
H1083 H 0.23887 0.57818 0.10537 0.0
H1084 H 0.3098 0.61454 0.05559 0.0
H1085 H 0.28808 0.60544 0.08714 0.0
H1086 H 0.19872 0.68432 0.07763 0.0
H1087 H 0.21997 0.69299 0.04613 0.0
C1088 C 0.1931 0.66088 0.13156 0.0
C1089 C 0.19148 0.6248 0.13924 0.0
C1090 C 0.21083 0.66733 0.1146 0.0
C1091 C 0.22705 0.63775 0.10452 0.0
C1092 C 0.22718 0.60188 0.1127 0.0
C1093 C 0.20965 0.5955 0.12985 0.0
C1094 C 0.28536 0.62986 0.06013 0.0
C1095 C 0.26675 0.65453 0.048 0.0
C1096 C 0.2729 0.62464 0.07836 0.0
C1097 C 0.24154 0.6441 0.0852 0.0
C1098 C 0.22338 0.66925 0.07318 0.0
C1099 C 0.23569 0.67431 0.05495 0.0
H1100 H 0.63102 0.98065 0.79499 0.0
H1101 H 0.71486 0.06532 0.80475 0.0
H1102 H 0.63992 0.95724 0.82631 0.0
H1103 H 0.72362 0.04211 0.83598 0.0
H1104 H 0.76557 0.95605 0.87921 0.0
H1105 H 0.75076 0.98989 0.85105 0.0
H1106 H 0.63339 0.96654 0.85925 0.0
H1107 H 0.6488 0.932 0.88755 0.0
C1108 C 0.65101 0.99467 0.80384 0.0
C1109 C 0.67251 1.02471 0.79705 0.0
C1110 C 0.65606 0.98126 0.82193 0.0
C1111 C 0.68272 0.99749 0.83386 0.0
C1112 C 0.70336 0.02824 0.82722 0.0
C1113 C 0.69836 0.04157 0.80918 0.0
C1114 C 0.73644 0.95946 0.8754 0.0
C1115 C 0.7083 0.94218 0.8859 0.0
C1116 C 0.72786 0.97875 0.85911 0.0
C1117 C 0.69079 0.98099 0.8526 0.0
C1118 C 0.66232 0.96517 0.86363 0.0
C1119 C 0.67098 0.946 0.88008 0.0
H1120 H 0.45287 0.21137 0.14364 0.0
H1121 H 0.42343 0.31286 0.17258 0.0
H1122 H 0.5178 0.23254 0.14172 0.0
H1123 H 0.48832 0.33407 0.17057 0.0
H1124 H 0.60259 0.37519 0.14877 0.0
H1125 H 0.5372 0.35487 0.14823 0.0
H1126 H 0.57145 0.24312 0.16304 0.0
H1127 H 0.63671 0.26342 0.16368 0.0
C1128 C 0.46008 0.23836 0.14945 0.0
C1129 C 0.43265 0.26032 0.15828 0.0
C1130 C 0.49748 0.25041 0.14846 0.0
C1131 C 0.50855 0.28504 0.15602 0.0
C1132 C 0.48092 0.30741 0.16444 0.0
C1133 C 0.44363 0.29513 0.16567 0.0
C1134 C 0.59626 0.3462 0.15177 0.0
C1135 C 0.62515 0.32101 0.15625 0.0
C1136 C 0.55864 0.33459 0.15158 0.0
C1137 C 0.54881 0.2973 0.15561 0.0
C1138 C 0.57782 0.27194 0.15969 0.0
C1139 C 0.61535 0.28366 0.16013 0.0
H1140 H 0.58983 0.71169 0.38875 0.0
H1141 H 0.52683 0.69012 0.43839 0.0
H1142 H 0.56823 0.7765 0.38904 0.0
H1143 H 0.50431 0.75429 0.43837 0.0
H1144 H 0.49772 0.88089 0.44426 0.0
H1145 H 0.52067 0.81679 0.44379 0.0
H1146 H 0.51686 0.81697 0.38423 0.0
H1147 H 0.49506 0.88168 0.38475 0.0
C1148 C 0.57124 0.72063 0.3997 0.0
C1149 C 0.56031 0.69539 0.41358 0.0
C1150 C 0.55856 0.75792 0.3998 0.0
C1151 C 0.53437 0.77116 0.41375 0.0
C1152 C 0.52339 0.74574 0.42756 0.0
C1153 C 0.53621 0.7086 0.42751 0.0
C1154 C 0.50171 0.86733 0.43103 0.0
C1155 C 0.4944 0.88674 0.41454 0.0
C1156 C 0.51475 0.83024 0.43075 0.0
C1157 C 0.5207 0.81112 0.41397 0.0
C1158 C 0.51328 0.8306 0.39746 0.0
C1159 C 0.50043 0.86782 0.39775 0.0
H1160 H 0.92053 0.82521 0.66585 0.0
H1161 H 0.95607 0.71293 0.65254 0.0
H1162 H 0.98604 0.846 0.66543 0.0
H1163 H 1.02132 0.73352 0.65264 0.0
H1164 H 0.13175 0.77828 0.68003 0.0
H1165 H 0.06604 0.75952 0.67864 0.0
H1166 H 0.04301 0.85037 0.64129 0.0
H1167 H 0.10927 0.8687 0.64225 0.0
C1168 C 0.94223 0.80499 0.66276 0.0
C1169 C 0.93284 0.76737 0.65918 0.0
C1170 C 0.97977 0.81695 0.66247 0.0
C1171 C 1.00899 0.79141 0.65906 0.0
C1172 C 0.99957 0.75389 0.65541 0.0
C1173 C 0.96206 0.74214 0.65525 0.0
C1174 C 0.11278 0.79435 0.6715 0.0
C1175 C 0.126 0.82505 0.66123 0.0
C1176 C 0.07508 0.78344 0.67064 0.0
C1177 C 0.04919 0.80338 0.65984 0.0
C1178 C 0.06217 0.83447 0.64979 0.0
C1179 C 0.10018 0.84487 0.65029 0.0
H1180 H 0.94657 0.3662 0.8954 0.0
H1181 H 0.05597 0.39856 0.91489 0.0
H1182 H 0.96646 0.30084 0.89446 0.0
H1183 H 0.0758 0.33312 0.91412 0.0
H1184 H 0.11074 0.21581 0.89462 0.0
H1185 H 0.09078 0.28114 0.89391 0.0
H1186 H 0.9822 0.24893 0.91449 0.0
H1187 H 1.00209 0.18351 0.91504 0.0
C1188 C 0.97496 0.35948 0.89942 0.0
C1189 C 0.9996 0.38798 0.90518 0.0
C1190 C 0.98633 0.32178 0.89902 0.0
C1191 C 1.02283 0.31127 0.90425 0.0
C1192 C 0.04763 0.33989 0.90977 0.0
C1193 C 0.03618 0.37758 0.91029 0.0
C1194 C 0.0825 0.22253 0.8989 0.0
C1195 C 0.05808 0.19405 0.90485 0.0
C1196 C 0.0711 0.26022 0.89862 0.0
C1197 C 0.0348 0.27075 0.90418 0.0
C1198 C 1.01021 0.24214 0.90989 0.0
C1199 C 1.0217 0.20446 0.91028 0.0
H1200 H 0.62117 0.82445 0.95338 0.0
H1201 H 0.61664 0.81989 0.89392 0.0
H1202 H 0.55537 0.80565 0.95488 0.0
H1203 H 0.55106 0.80123 0.89544 0.0
H1204 H 0.42453 0.80643 0.90386 0.0
H1205 H 0.48948 0.82692 0.9039 0.0
H1206 H 0.5137 0.75087 0.94847 0.0
H1207 H 0.44832 0.73013 0.94845 0.0
C1208 C 0.6062 0.81958 0.94061 0.0
C1209 C 0.62448 0.82382 0.92351 0.0
C1210 C 0.56844 0.80853 0.94149 0.0
C1211 C 0.54764 0.80192 0.92529 0.0
C1212 C 0.56589 0.80644 0.90822 0.0
C1213 C 0.60371 0.81699 0.90735 0.0
C1214 C 0.44347 0.79415 0.91381 0.0
C1215 C 0.43084 0.76646 0.92615 0.0
C1216 C 0.48098 0.80578 0.91372 0.0
C1217 C 0.50716 0.79043 0.92607 0.0
C1218 C 0.49439 0.76351 0.9388 0.0
C1219 C 0.45683 0.75153 0.93877 0.0
H1220 H 0.55487 0.396 0.66477 0.0
H1221 H 0.4522 0.36737 0.6927 0.0
H1222 H 0.57523 0.33087 0.66666 0.0
H1223 H 0.47262 0.30214 0.69456 0.0
H1224 H 0.50356 0.18266 0.67316 0.0
H1225 H 0.4834 0.24806 0.67372 0.0
H1226 H 0.5952 0.28209 0.68868 0.0
H1227 H 0.61536 0.21673 0.68815 0.0
C1228 C 0.5367 0.37592 0.67145 0.0
C1229 C 0.50182 0.38721 0.67858 0.0
C1230 C 0.54849 0.33847 0.6726 0.0
C1231 C 0.52561 0.31097 0.68073 0.0
C1232 C 0.49088 0.32233 0.68803 0.0
C1233 C 0.47927 0.35991 0.68708 0.0
C1234 C 0.52382 0.20402 0.67672 0.0
C1235 C 0.56115 0.19418 0.68062 0.0
C1236 C 0.51219 0.24162 0.67711 0.0
C1237 C 0.53762 0.27062 0.68119 0.0
C1238 C 0.57486 0.2607 0.68528 0.0
C1239 C 0.58639 0.22307 0.6851 0.0
H1240 H 0.11105 0.37137 0.44215 0.0
H1241 H 0.13668 0.27449 0.40879 0.0
H1242 H 0.04546 0.35108 0.44398 0.0
H1243 H 0.07167 0.25397 0.41102 0.0
H1244 H 0.96163 0.2096 0.43685 0.0
H1245 H 0.0265 0.23158 0.43711 0.0
H1246 H 0.98983 0.34126 0.42025 0.0
H1247 H 0.92491 0.31912 0.41955 0.0
C1248 C 0.10281 0.3457 0.4353 0.0
C1249 C 0.12925 0.32467 0.42528 0.0
C1250 C 0.0652 0.33415 0.43629 0.0
C1251 C 0.05332 0.30081 0.4277 0.0
C1252 C 0.07989 0.27961 0.41791 0.0
C1253 C 0.11717 0.29155 0.41656 0.0
C1254 C 0.96727 0.23852 0.43338 0.0
C1255 C 0.93792 0.26255 0.42817 0.0
C1256 C 1.00452 0.25105 0.43342 0.0
C1257 C 1.01341 0.28817 0.42866 0.0
C1258 C 0.98396 0.31258 0.42408 0.0
C1259 C 0.94676 0.29983 0.42363 0.0
H1260 H 0.10705 0.71376 0.1886 0.0
H1261 H 1.00047 0.68256 0.16518 0.0
H1262 H 0.08729 0.77916 0.18945 0.0
H1263 H 0.98062 0.74814 0.16617 0.0
H1264 H 0.94545 0.86508 0.18793 0.0
H1265 H 0.9649 0.79951 0.18844 0.0
H1266 H 0.07327 0.83087 0.16737 0.0
H1267 H 0.05375 0.89651 0.16672 0.0
C1268 C 0.07925 0.72071 0.18376 0.0
C1269 C 0.0554 0.69258 0.17684 0.0
C1270 C 0.06802 0.7584 0.18412 0.0
C1271 C 0.03235 0.76918 0.17784 0.0
C1272 C 1.00818 0.74097 0.17126 0.0
C1273 C 1.01963 0.70329 0.17064 0.0
C1274 C 0.97355 0.85813 0.18352 0.0
C1275 C 0.99801 0.88637 0.17732 0.0
C1276 C 0.98461 0.82036 0.18368 0.0
C1277 C 1.02067 0.80965 0.17792 0.0
C1278 C 0.04539 0.83797 0.17205 0.0
C1279 C 0.03413 0.8757 0.17163 0.0
H1280 H 0.29784 0.34601 0.17645 0.0
H1281 H 0.23542 0.29692 0.13151 0.0
H1282 H 0.25935 0.40175 0.17498 0.0
H1283 H 0.19639 0.35393 0.12999 0.0
H1284 H 0.16054 0.48655 0.12924 0.0
H1285 H 0.19892 0.42981 0.12526 0.0
H1286 H 0.19014 0.40771 0.18355 0.0
H1287 H 0.15214 0.46337 0.18756 0.0
C1288 C 0.27611 0.34724 0.16605 0.0
C1289 C 0.26944 0.31657 0.15428 0.0
C1290 C 0.25394 0.37932 0.16526 0.0
C1291 C 0.22429 0.38205 0.15264 0.0
C1292 C 0.21898 0.35259 0.13992 0.0
C1293 C 0.24137 0.32002 0.14075 0.0
C1294 C 0.16652 0.46933 0.14116 0.0
C1295 C 0.1534 0.4799 0.15877 0.0
C1296 C 0.1884 0.43678 0.13884 0.0
C1297 C 0.19795 0.41447 0.15412 0.0
C1298 C 0.18378 0.42452 0.17153 0.0
C1299 C 0.16182 0.45655 0.17381 0.0
H1300 H 0.36789 0.42406 0.43917 0.0
H1301 H 0.3397 0.41432 0.38146 0.0
H1302 H 0.42596 0.45653 0.43092 0.0
H1303 H 0.39702 0.44837 0.37335 0.0
H1304 H 0.47403 0.562 0.3791 0.0
H1305 H 0.41929 0.52148 0.38336 0.0
H1306 H 0.48917 0.43857 0.40935 0.0
H1307 H 0.54426 0.47847 0.40434 0.0
C1308 C 0.37403 0.4289 0.42474 0.0
C1309 C 0.34919 0.4165 0.41097 0.0
C1310 C 0.40732 0.44737 0.42004 0.0
C1311 C 0.41598 0.45491 0.40151 0.0
C1312 C 0.39107 0.44281 0.38773 0.0
C1313 C 0.35833 0.4233 0.39239 0.0
C1314 C 0.47788 0.53447 0.38505 0.0
C1315 C 0.51351 0.52296 0.39094 0.0
C1316 C 0.44656 0.51144 0.38761 0.0
C1317 C 0.45 0.47694 0.39672 0.0
C1318 C 0.48578 0.46498 0.40224 0.0
C1319 C 0.51733 0.48757 0.39917 0.0
H1320 H 0.34617 0.79348 0.63559 0.0
H1321 H 0.24946 0.72484 0.6468 0.0
H1322 H 0.38642 0.73765 0.63813 0.0
H1323 H 0.28955 0.66998 0.64976 0.0
H1324 H 0.38473 0.60929 0.68499 0.0
H1325 H 0.3489 0.66556 0.67754 0.0
H1326 H 0.38656 0.65924 0.62116 0.0
H1327 H 0.42183 0.60198 0.62841 0.0
C1328 C 0.33339 0.7665 0.63811 0.0
C1329 C 0.29457 0.76375 0.64111 0.0
C1330 C 0.35644 0.73462 0.63967 0.0
C1331 C 0.34105 0.69964 0.64436 0.0
C1332 C 0.30215 0.69661 0.64624 0.0
C1333 C 0.27922 0.72812 0.64449 0.0
C1334 C 0.38577 0.61994 0.67103 0.0
C1335 C 0.40628 0.60101 0.65731 0.0
C1336 C 0.36514 0.65215 0.66677 0.0
C1337 C 0.36511 0.66681 0.6488 0.0
C1338 C 0.38634 0.64865 0.63515 0.0
C1339 C 0.40638 0.61583 0.63931 0.0
H1340 H 1.02267 0.61513 0.90419 0.0
H1341 H 0.08234 0.51995 0.88258 0.0
H1342 H 0.08049 0.65133 0.90482 0.0
H1343 H 0.14079 0.55625 0.88321 0.0
H1344 H 0.23656 0.64591 0.87897 0.0
H1345 H 0.17787 0.61319 0.87216 0.0
H1346 H 0.13524 0.64477 0.92564 0.0
H1347 H 0.1936 0.67724 0.93248 0.0
C1348 C 0.04797 0.60249 0.89878 0.0
C1349 C 0.04776 0.56496 0.89294 0.0
C1350 C 0.08129 0.62302 0.89947 0.0
C1351 C 0.11552 0.60656 0.8944 0.0
C1352 C 0.11494 0.56988 0.88716 0.0
C1353 C 0.08138 0.54918 0.88655 0.0
C1354 C 0.2146 0.64602 0.88926 0.0
C1355 C 0.2199 0.66445 0.90629 0.0
C1356 C 0.181 0.62707 0.88536 0.0
C1357 C 0.15159 0.62657 0.89825 0.0
C1358 C 0.15696 0.64507 0.91523 0.0
C1359 C 0.19061 0.66356 0.91922 0.0
H1360 H 0.74788 0.72365 0.93656 0.0
H1361 H 0.84396 0.79132 0.95037 0.0
H1362 H 0.78752 0.66845 0.93457 0.0
H1363 H 0.88385 0.73505 0.9488 0.0
H1364 H 0.92602 0.60447 0.95684 0.0
H1365 H 0.88959 0.66133 0.96393 0.0
H1366 H 0.84231 0.65859 0.90924 0.0
H1367 H 0.87878 0.60293 0.90201 0.0
C1368 C 0.77739 0.72667 0.93963 0.0
C1369 C 0.79271 0.76216 0.94344 0.0
C1370 C 0.80011 0.69491 0.93844 0.0
C1371 C 0.83884 0.69743 0.94133 0.0
C1372 C 0.85404 0.73229 0.94651 0.0
C1373 C 0.83118 0.76446 0.94748 0.0
C1374 C 0.90798 0.61616 0.94632 0.0
C1375 C 0.90545 0.59901 0.92884 0.0
C1376 C 0.88729 0.64878 0.95036 0.0
C1377 C 0.86301 0.66434 0.93716 0.0
C1378 C 0.86061 0.64719 0.91974 0.0
C1379 C 0.8817 0.61527 0.91559 0.0
H1380 H 0.70635 0.66464 0.64814 0.0
H1381 H 0.72598 0.66622 0.70695 0.0
H1382 H 0.65087 0.62662 0.65279 0.0
H1383 H 0.66943 0.62798 0.71155 0.0
H1384 H 0.53635 0.59059 0.70368 0.0
H1385 H 0.59304 0.63012 0.70483 0.0
H1386 H 0.64595 0.55822 0.66474 0.0
H1387 H 0.59053 0.51913 0.66371 0.0
C1388 C 0.69874 0.65722 0.66212 0.0
C1389 C 0.72102 0.66841 0.67714 0.0
C1390 C 0.66684 0.63527 0.66477 0.0
C1391 C 0.65588 0.62401 0.68252 0.0
C1392 C 0.67714 0.63628 0.69771 0.0
C1393 C 0.70957 0.65805 0.69504 0.0
C1394 C 0.56051 0.58277 0.69553 0.0
C1395 C 0.55865 0.55197 0.68341 0.0
C1396 C 0.59287 0.60546 0.69613 0.0
C1397 C 0.62366 0.59768 0.68457 0.0
C1398 C 0.62249 0.56543 0.67352 0.0
C1399 C 0.59063 0.54295 0.67298 0.0
H1400 H 0.72182 0.28697 0.44217 0.0
H1401 H 0.81913 0.35047 0.42652 0.0
H1402 H 0.68381 0.34417 0.44112 0.0
H1403 H 0.7821 0.40767 0.42621 0.0
H1404 H 0.70086 0.48744 0.39927 0.0
H1405 H 0.73777 0.43204 0.40548 0.0
H1406 H 0.66713 0.40608 0.45205 0.0
H1407 H 0.62919 0.46154 0.44546 0.0
C1408 C 0.73534 0.31345 0.43928 0.0
C1409 C 0.77343 0.31442 0.43456 0.0
C1410 C 0.71357 0.34626 0.43855 0.0
C1411 C 0.72959 0.38064 0.43315 0.0
C1412 C 0.7684 0.38171 0.42987 0.0
C1413 C 0.78987 0.34901 0.43035 0.0
C1414 C 0.69304 0.47008 0.41087 0.0
C1415 C 0.66195 0.47925 0.42186 0.0
C1416 C 0.71456 0.43827 0.41457 0.0
C1417 C 0.70599 0.41459 0.42949 0.0
C1418 C 0.67461 0.42346 0.44041 0.0
C1419 C 0.65288 0.45539 0.43665 0.0
H1420 H 0.86314 0.39709 0.15166 0.0
H1421 H 0.82448 0.4277 0.20604 0.0
H1422 H 0.9206 0.43173 0.15678 0.0
H1423 H 0.88282 0.46255 0.21128 0.0
H1424 H 0.97244 0.5596 0.19905 0.0
H1425 H 0.91606 0.52011 0.20002 0.0
H1426 H 0.97782 0.43002 0.17446 0.0
H1427 H 0.03331 0.46964 0.17323 0.0
C1428 C 0.86701 0.41094 0.16483 0.0
C1429 C 0.83905 0.40937 0.17844 0.0
C1430 C 0.90025 0.43071 0.16783 0.0
C1431 C 0.90672 0.44985 0.18452 0.0
C1432 C 0.87884 0.44826 0.19824 0.0
C1433 C 0.84551 0.42803 0.19529 0.0
C1434 C 0.97411 0.53092 0.19426 0.0
C1435 C 1.00732 0.51747 0.18628 0.0
C1436 C 0.9418 0.50831 0.19471 0.0
C1437 C 0.94209 0.47196 0.18704 0.0
C1438 C 0.97619 0.45801 0.18016 0.0
C1439 C 1.0082 0.48053 0.17967 0.0
H1440 H 0.80194 0.84993 0.63756 0.0
H1441 H 0.71008 0.78738 0.66044 0.0
H1442 H 0.76227 0.90616 0.63631 0.0
H1443 H 0.67032 0.84281 0.65896 0.0
H1444 H 0.63755 0.95665 0.68338 0.0
H1445 H 0.67196 0.89921 0.67783 0.0
H1446 H 0.7047 0.93944 0.6241 0.0
H1447 H 0.66995 0.99779 0.62977 0.0
C1448 C 0.77285 0.8479 0.64162 0.0
C1449 C 0.75885 0.81429 0.64888 0.0
C1450 C 0.75014 0.88009 0.64099 0.0
C1451 C 0.71319 0.87922 0.64779 0.0
C1452 C 0.69876 0.84477 0.6539 0.0
C1453 C 0.72137 0.81285 0.65455 0.0
C1454 C 0.65179 0.95332 0.67029 0.0
C1455 C 0.65086 0.98194 0.65702 0.0
C1456 C 0.67138 0.92011 0.66704 0.0
C1457 C 0.69099 0.91441 0.65045 0.0
C1458 C 0.68997 0.9429 0.63704 0.0
C1459 C 0.66985 0.9762 0.64024 0.0
H1460 H 0.83376 0.95778 0.92765 0.0
H1461 H 0.86483 0.87057 0.88923 0.0
H1462 H 0.88839 0.99382 0.91864 0.0
H1463 H 0.91985 0.90706 0.88015 0.0
H1464 H 0.97088 0.06706 0.89054 0.0
H1465 H 0.91378 0.02944 0.89231 0.0
H1466 H 0.98047 0.92877 0.89371 0.0
H1467 H 0.03736 0.96665 0.89194 0.0
C1468 C 0.85217 0.94618 0.91725 0.0
C1469 C 0.84464 0.91104 0.90922 0.0
C1470 C 0.88344 0.96717 0.91192 0.0
C1471 C 0.90839 0.95371 0.89844 0.0
C1472 C 0.90124 0.91836 0.89055 0.0
C1473 C 0.86966 0.8974 0.89578 0.0
C1474 C 0.97319 0.03683 0.89021 0.0
C1475 C 1.00856 1.01977 0.89051 0.0
C1476 C 0.94051 1.01523 0.89164 0.0
C1477 C 0.94244 0.976 0.89344 0.0
C1478 C 0.97778 0.9588 0.89222 0.0
C1479 C 1.01045 0.98048 0.89097 0.0
H1480 H 0.87954 0.10542 0.18508 0.0
H1481 H 0.91164 0.09841 0.12775 0.0
H1482 H 0.8421 0.16073 0.17843 0.0
H1483 H 0.87444 0.15485 0.1212 0.0
H1484 H 0.83739 0.2872 0.13244 0.0
H1485 H 0.87401 0.22867 0.13234 0.0
H1486 H 0.78196 0.17137 0.15836 0.0
H1487 H 0.74551 0.22907 0.15801 0.0
C1488 C 0.87892 0.11582 0.17106 0.0
C1489 C 0.89872 0.09731 0.15697 0.0
C1490 C 0.85723 0.14749 0.16723 0.0
C1491 C 0.85512 0.16211 0.14926 0.0
C1492 C 0.87555 0.14427 0.13518 0.0
C1493 C 0.89675 0.11192 0.13894 0.0
C1494 C 0.82446 0.26163 0.13727 0.0
C1495 C 0.78842 0.26257 0.14502 0.0
C1496 C 0.84552 0.22823 0.13741 0.0
C1497 C 0.83106 0.19553 0.14561 0.0
C1498 C 0.79407 0.1961 0.15213 0.0
C1499 C 0.77305 0.22909 0.15177 0.0
H1500 H 0.59508 1.01385 0.41777 0.0
H1501 H 0.53697 0.09408 0.38369 0.0
H1502 H 0.6506 0.05287 0.41738 0.0
H1503 H 0.59384 0.13325 0.38307 0.0
H1504 H 0.72856 0.16581 0.37889 0.0
H1505 H 0.67115 0.12905 0.37388 0.0
H1506 H 0.65575 0.1209 0.4327 0.0
H1507 H 0.71201 0.15769 0.43779 0.0
C1508 C 0.59425 0.03957 0.40989 0.0
C1509 C 0.56117 0.05097 0.40096 0.0
C1510 C 0.62622 0.06197 0.40971 0.0
C1511 C 0.62644 0.09637 0.40045 0.0
C1512 C 0.59441 0.10683 0.39036 0.0
C1513 C 0.56193 0.08436 0.39066 0.0
C1514 C 0.71265 0.15653 0.39074 0.0
C1515 C 0.72517 0.16468 0.40876 0.0
C1516 C 0.67974 0.13561 0.38784 0.0
C1517 C 0.6591 0.12192 0.4029 0.0
C1518 C 0.67119 0.13084 0.42082 0.0
C1519 C 0.70351 0.15207 0.42371 0.0
H1520 H 0.25465 0.23186 0.43744 0.0
H1521 H 0.35047 0.30272 0.44711 0.0
H1522 H 0.29553 0.17873 0.43222 0.0
H1523 H 0.392 0.2488 0.4418 0.0
H1524 H 0.4484 0.1285 0.44567 0.0
H1525 H 0.41223 0.18494 0.45291 0.0
H1526 H 0.33768 0.16038 0.40769 0.0
H1527 H 0.37346 0.10455 0.4004 0.0
C1528 C 0.28456 0.236 0.43874 0.0
C1529 C 0.2992 0.27169 0.44267 0.0
C1530 C 0.30809 0.20549 0.43555 0.0
C1531 C 0.34718 0.20949 0.4362 0.0
C1532 C 0.36202 0.2447 0.44116 0.0
C1533 C 0.33824 0.27557 0.44431 0.0
C1534 C 0.4246 0.13544 0.43709 0.0
C1535 C 0.41385 0.11163 0.42248 0.0
C1536 C 0.40388 0.16787 0.44126 0.0
C1537 C 0.37169 0.17707 0.43104 0.0
C1538 C 0.3619 0.15396 0.41605 0.0
C1539 C 0.38266 0.12189 0.4118 0.0
H1540 H 0.0803 1.0199 0.20001 0.0
H1541 H 1.02298 0.1095 0.17218 0.0
H1542 H 0.13788 0.05755 0.20061 0.0
H1543 H 0.07964 0.14744 0.1731 0.0
H1544 H 0.19558 0.17715 0.15126 0.0
H1545 H 0.13709 0.14414 0.15618 0.0
H1546 H 0.17296 0.11358 0.21099 0.0
H1547 H 0.23226 0.14651 0.20594 0.0
C1548 C 0.07965 0.04821 0.19471 0.0
C1549 C 0.04708 0.06202 0.18628 0.0
C1550 C 0.11268 0.06976 0.19493 0.0
C1551 C 0.11376 0.10543 0.1866 0.0
C1552 C 0.08028 0.11988 0.17928 0.0
C1553 C 0.04757 0.09838 0.17899 0.0
C1554 C 0.19109 0.16364 0.16443 0.0
C1555 C 0.21883 0.16469 0.17818 0.0
C1556 C 0.15725 0.14483 0.16733 0.0
C1557 C 0.14989 0.1263 0.18407 0.0
C1558 C 0.17759 0.12734 0.1979 0.0
C1559 C 0.21154 0.14645 0.19503 0.0
H1560 H 0.15251 0.98705 0.95559 0.0
H1561 H 0.15349 0.96508 0.89695 0.0
H1562 H 0.19082 0.93052 0.96058 0.0
H1563 H 0.19129 0.90981 0.90197 0.0
H1564 H 0.29824 0.84984 0.91217 0.0
H1565 H 0.25965 0.90561 0.91351 0.0
H1566 H 0.18917 0.85365 0.95436 0.0
H1567 H 0.22841 0.79672 0.95301 0.0
C1568 C 0.16049 0.97015 0.94382 0.0
C1569 C 0.1501 0.98103 0.92584 0.0
C1570 C 0.18233 0.93775 0.9467 0.0
C1571 C 0.19446 0.91595 0.93164 0.0
C1572 C 0.18291 0.92625 0.91385 0.0
C1573 C 0.16108 0.9581 0.91099 0.0
C1574 C 0.27487 0.85026 0.92169 0.0
C1575 C 0.26613 0.8185 0.93228 0.0
C1576 C 0.25269 0.88232 0.92242 0.0
C1577 C 0.22092 0.88384 0.93375 0.0
C1578 C 0.21347 0.85325 0.94545 0.0
C1579 C 0.23595 0.82073 0.94471 0.0
H1580 H 0.33455 0.96037 0.65658 0.0
H1581 H 0.3667 0.87316 0.69461 0.0
H1582 H 0.3894 0.99636 0.66527 0.0
H1583 H 0.42189 0.90971 0.70346 0.0
H1584 H 0.53909 0.96887 0.69181 0.0
H1585 H 0.48202 0.93117 0.69022 0.0
H1586 H 0.41579 0.03223 0.69075 0.0
H1587 H 0.47302 0.06959 0.6922 0.0
C1588 C 0.35323 0.94879 0.66685 0.0
C1589 C 0.34598 0.91363 0.67484 0.0
C1590 C 0.38464 0.96975 0.672 0.0
C1591 C 0.40998 0.95629 0.68528 0.0
C1592 C 0.40303 0.92098 0.69318 0.0
C1593 C 0.37134 0.90001 0.6881 0.0
C1594 C 0.51223 0.98283 0.69259 0.0
C1595 C 0.51045 1.02212 0.69272 0.0
C1596 C 0.47946 0.96127 0.69146 0.0
C1597 C 0.44418 0.97859 0.69008 0.0
C1598 C 0.44243 1.01789 0.69153 0.0
C1599 C 0.47518 0.03937 0.69277 0.0
loop_
_geom_bond_atom_site_label_1
_geom_bond_atom_site_label_2
_geom_bond_distance
_geom_bond_site_symmetry_2
_ccdc_geom_bond_type
Eu0 C9 2.828 . S
Eu0 O11 2.392 . S
Eu0 O13 2.418 . S
Eu0 O18 2.373 . S
Eu0 O21 2.488 . S
Eu0 O22 2.471 . S
Eu0 O23 2.349 . S
Eu1 O10 2.373 . S
Eu1 O14 2.488 . S
Eu1 O15 2.471 . S
Eu1 O16 2.349 . S
Eu1 O19 2.392 . S
Eu1 O20 2.418 . S
Eu1 C30 2.828 . S
C2 O20 1.244 . S
C2 O23 1.265 . S
C3 C4 1.379 . S
C3 C7 1.373 . S
C3 C9 1.505 . S
C4 C3 1.379 . S
C4 C6 1.369 . S
C4 H32 0.930 . S
C5 C7 1.383 . S
C5 C8 1.382 . S
C5 H33 0.930 . S
C6 C4 1.369 . S
C6 C8 1.392 . S
C6 H34 0.930 . S
C7 C3 1.373 . S
C7 C5 1.383 . S
C7 H35 0.931 . S
C8 C5 1.382 . S
C8 C6 1.392 . S
C9 Eu0 2.828 . S
C9 C3 1.505 . S
C9 O21 1.249 . S
C9 O22 1.244 . S
O10 Eu1 2.373 . S
O10 C12 1.258 . S
O11 Eu0 2.392 . S
O11 C12 1.242 . S
C12 O10 1.258 . S
C12 O11 1.242 . S
O13 Eu0 2.418 . S
O13 C17 1.244 . S
O14 Eu1 2.488 . S
O14 C30 1.249 . S
O15 Eu1 2.471 . S
O15 C30 1.244 . S
O16 Eu1 2.349 . S
O16 C17 1.265 . S
C17 O13 1.244 . S
C17 O16 1.265 . S
O18 Eu0 2.373 . S
O18 C31 1.258 . S
O19 Eu1 2.392 . S
O19 C31 1.242 . S
O20 Eu1 2.418 . S
O20 C2 1.244 . S
O21 Eu0 2.488 . S
O21 C9 1.249 . S
O22 Eu0 2.471 . S
O22 C9 1.244 . S
O23 Eu0 2.349 . S
O23 C2 1.265 . S
C24 C25 1.379 . S
C24 C28 1.373 . S
C24 C30 1.505 . S
C25 C24 1.379 . S
C25 C27 1.369 . S
C25 H36 0.930 . S
C26 C28 1.383 . S
C26 C29 1.382 . S
C26 H37 0.930 1_545 S
C27 C25 1.369 . S
C27 C29 1.392 . S
C27 H38 0.930 . S
C28 C24 1.373 . S
C28 C26 1.383 . S
C28 H39 0.931 . S
C29 C26 1.382 . S
C29 C27 1.392 . S
C30 Eu1 2.828 . S
C30 O14 1.249 . S
C30 O15 1.244 . S
C30 C24 1.505 . S
C31 O18 1.258 . S
C31 O19 1.242 . S
H32 C4 0.930 . S
H33 C5 0.930 . S
H34 C6 0.930 . S
H35 C7 0.931 . S
H36 C25 0.930 . S
H37 C26 0.930 1_565 S
H38 C27 0.930 . S
H39 C28 0.931 . S
Eu40 C49 2.828 . S
Eu40 O51 2.392 . S
Eu40 O53 2.418 . S
Eu40 O58 2.373 . S
Eu40 O61 2.488 . S
Eu40 O62 2.471 . S
Eu40 O63 2.349 . S
Eu41 O50 2.373 . S
Eu41 O54 2.488 . S
Eu41 O55 2.471 . S
Eu41 O56 2.349 . S
Eu41 O59 2.392 . S
Eu41 O60 2.418 . S
Eu41 C70 2.828 . S
C42 O60 1.244 . S
C42 O63 1.265 . S
C43 C44 1.379 . S
C43 C47 1.373 . S
C43 C49 1.505 . S
C44 C43 1.379 . S
C44 C46 1.369 . S
C44 H72 0.930 . S
C45 C47 1.383 . S
C45 C48 1.382 . S
C45 H73 0.930 . S
C46 C44 1.369 . S
C46 C48 1.392 . S
C46 H74 0.930 . S
C47 C43 1.373 . S
C47 C45 1.383 . S
C47 H75 0.931 . S
C48 C45 1.382 . S
C48 C46 1.392 . S
C49 Eu40 2.828 . S
C49 C43 1.505 . S
C49 O61 1.249 . S
C49 O62 1.244 . S
O50 Eu41 2.373 . S
O50 C52 1.258 . S
O51 Eu40 2.392 . S
O51 C52 1.242 . S
C52 O50 1.258 . S
C52 O51 1.242 . S
O53 Eu40 2.418 . S
O53 C57 1.244 . S
O54 Eu41 2.488 . S
O54 C70 1.249 . S
O55 Eu41 2.471 . S
O55 C70 1.244 . S
O56 Eu41 2.349 . S
O56 C57 1.265 . S
C57 O53 1.244 . S
C57 O56 1.265 . S
O58 Eu40 2.373 . S
O58 C71 1.258 . S
O59 Eu41 2.392 . S
O59 C71 1.242 . S
O60 Eu41 2.418 . S
O60 C42 1.244 . S
O61 Eu40 2.488 . S
O61 C49 1.249 . S
O62 Eu40 2.471 . S
O62 C49 1.244 . S
O63 Eu40 2.349 . S
O63 C42 1.265 . S
C64 C65 1.379 . S
C64 C68 1.373 . S
C64 C70 1.505 . S
C65 C64 1.379 . S
C65 C67 1.369 . S
C65 H76 0.930 . S
C66 C68 1.383 . S
C66 C69 1.382 . S
C66 H77 0.930 . S
C67 C65 1.369 . S
C67 C69 1.392 . S
C67 H78 0.930 . S
C68 C64 1.373 . S
C68 C66 1.383 . S
C68 H79 0.931 . S
C69 C66 1.382 . S
C69 C67 1.392 . S
C70 Eu41 2.828 . S
C70 O54 1.249 . S
C70 O55 1.244 . S
C70 C64 1.505 . S
C71 O58 1.258 . S
C71 O59 1.242 . S
H72 C44 0.930 . S
H73 C45 0.930 . S
H74 C46 0.930 . S
H75 C47 0.931 . S
H76 C65 0.930 . S
H77 C66 0.930 . S
H78 C67 0.930 . S
H79 C68 0.931 . S
Eu80 C89 2.828 . S
Eu80 O91 2.392 . S
Eu80 O93 2.418 . S
Eu80 O98 2.373 . S
Eu80 O101 2.488 . S
Eu80 O102 2.471 . S
Eu80 O103 2.349 . S
Eu81 O90 2.373 . S
Eu81 O94 2.488 . S
Eu81 O95 2.471 . S
Eu81 O96 2.349 . S
Eu81 O99 2.392 . S
Eu81 O100 2.418 . S
Eu81 C110 2.828 . S
C82 O100 1.244 . S
C82 O103 1.265 . S
C83 C84 1.379 . S
C83 C87 1.373 . S
C83 C89 1.505 . S
C84 C83 1.379 . S
C84 C86 1.369 . S
C84 H112 0.930 . S
C85 C87 1.383 . S
C85 C88 1.382 . S
C85 H113 0.930 . S
C86 C84 1.369 . S
C86 C88 1.392 . S
C86 H114 0.930 . S
C87 C83 1.373 . S
C87 C85 1.383 . S
C87 H115 0.931 . S
C88 C85 1.382 . S
C88 C86 1.392 . S
C89 Eu80 2.828 . S
C89 C83 1.505 . S
C89 O101 1.249 . S
C89 O102 1.244 . S
O90 Eu81 2.373 . S
O90 C92 1.258 . S
O91 Eu80 2.392 . S
O91 C92 1.242 . S
C92 O90 1.258 . S
C92 O91 1.242 . S
O93 Eu80 2.418 . S
O93 C97 1.244 . S
O94 Eu81 2.488 . S
O94 C110 1.249 . S
O95 Eu81 2.471 . S
O95 C110 1.244 . S
O96 Eu81 2.349 . S
O96 C97 1.265 . S
C97 O93 1.244 . S
C97 O96 1.265 . S
O98 Eu80 2.373 . S
O98 C111 1.258 . S
O99 Eu81 2.392 . S
O99 C111 1.242 . S
O100 Eu81 2.418 . S
O100 C82 1.244 . S
O101 Eu80 2.488 . S
O101 C89 1.249 . S
O102 Eu80 2.471 . S
O102 C89 1.244 . S
O103 Eu80 2.349 . S
O103 C82 1.265 . S
C104 C105 1.379 . S
C104 C108 1.373 . S
C104 C110 1.505 . S
C105 C104 1.379 . S
C105 C107 1.369 . S
C105 H116 0.930 . S
C106 C108 1.383 . S
C106 C109 1.382 . S
C106 H117 0.930 1_565 S
C107 C105 1.369 . S
C107 C109 1.392 . S
C107 H118 0.930 . S
C108 C104 1.373 . S
C108 C106 1.383 . S
C108 H119 0.931 . S
C109 C106 1.382 . S
C109 C107 1.392 . S
C110 Eu81 2.828 . S
C110 O94 1.249 . S
C110 O95 1.244 . S
C110 C104 1.505 . S
C111 O98 1.258 . S
C111 O99 1.242 . S
H112 C84 0.930 . S
H113 C85 0.930 . S
H114 C86 0.930 . S
H115 C87 0.931 . S
H116 C105 0.930 . S
H117 C106 0.930 1_545 S
H118 C107 0.930 . S
H119 C108 0.931 . S
Eu120 C129 2.828 . S
Eu120 O131 2.392 . S
Eu120 O133 2.418 . S
Eu120 O138 2.373 . S
Eu120 O141 2.488 . S
Eu120 O142 2.471 . S
Eu120 O143 2.349 . S
Eu121 O130 2.373 . S
Eu121 O134 2.488 . S
Eu121 O135 2.471 . S
Eu121 O136 2.349 . S
Eu121 O139 2.392 . S
Eu121 O140 2.418 . S
Eu121 C150 2.828 . S
C122 O140 1.244 . S
C122 O143 1.265 . S
C123 C124 1.379 . S
C123 C127 1.373 . S
C123 C129 1.505 . S
C124 C123 1.379 . S
C124 C126 1.369 . S
C124 H152 0.930 . S
C125 C127 1.383 1_455 S
C125 C128 1.382 1_455 S
C125 H153 0.930 . S
C126 C124 1.369 . S
C126 C128 1.392 . S
C126 H154 0.930 . S
C127 C123 1.373 . S
C127 C125 1.383 1_655 S
C127 H155 0.931 1_655 S
C128 C125 1.382 1_655 S
C128 C126 1.392 . S
C129 Eu120 2.828 . S
C129 C123 1.505 . S
C129 O141 1.249 . S
C129 O142 1.244 . S
O130 Eu121 2.373 . S
O130 C132 1.258 . S
O131 Eu120 2.392 . S
O131 C132 1.242 . S
C132 O130 1.258 . S
C132 O131 1.242 . S
O133 Eu120 2.418 . S
O133 C137 1.244 . S
O134 Eu121 2.488 . S
O134 C150 1.249 . S
O135 Eu121 2.471 . S
O135 C150 1.244 . S
O136 Eu121 2.349 . S
O136 C137 1.265 . S
C137 O133 1.244 . S
C137 O136 1.265 . S
O138 Eu120 2.373 . S
O138 C151 1.258 . S
O139 Eu121 2.392 . S
O139 C151 1.242 . S
O140 Eu121 2.418 . S
O140 C122 1.244 . S
O141 Eu120 2.488 . S
O141 C129 1.249 . S
O142 Eu120 2.471 . S
O142 C129 1.244 . S
O143 Eu120 2.349 . S
O143 C122 1.265 . S
C144 C145 1.379 . S
C144 C148 1.373 . S
C144 C150 1.505 . S
C145 C144 1.379 . S
C145 C147 1.369 . S
C145 H156 0.930 . S
C146 C148 1.383 . S
C146 C149 1.382 . S
C146 H157 0.930 . S
C147 C145 1.369 . S
C147 C149 1.392 . S
C147 H158 0.930 . S
C148 C144 1.373 . S
C148 C146 1.383 . S
C148 H159 0.931 . S
C149 C146 1.382 . S
C149 C147 1.392 . S
C150 Eu121 2.828 . S
C150 O134 1.249 . S
C150 O135 1.244 . S
C150 C144 1.505 . S
C151 O138 1.258 . S
C151 O139 1.242 . S
H152 C124 0.930 . S
H153 C125 0.930 . S
H154 C126 0.930 . S
H155 C127 0.931 1_455 S
H156 C145 0.930 . S
H157 C146 0.930 . S
H158 C147 0.930 . S
H159 C148 0.931 . S
Eu160 C169 2.828 . S
Eu160 O171 2.392 . S
Eu160 O173 2.418 . S
Eu160 O178 2.373 . S
Eu160 O181 2.488 . S
Eu160 O182 2.471 . S
Eu160 O183 2.349 . S
Eu161 O170 2.373 . S
Eu161 O174 2.488 . S
Eu161 O175 2.471 . S
Eu161 O176 2.349 . S
Eu161 O179 2.392 . S
Eu161 O180 2.418 . S
Eu161 C190 2.828 . S
C162 O180 1.244 . S
C162 O183 1.265 . S
C163 C164 1.379 . S
C163 C167 1.373 . S
C163 C169 1.505 . S
C164 C163 1.379 . S
C164 C166 1.369 . S
C164 H192 0.930 . S
C165 C167 1.383 . S
C165 C168 1.382 . S
C165 H193 0.930 1_565 S
C166 C164 1.369 . S
C166 C168 1.392 . S
C166 H194 0.930 . S
C167 C163 1.373 . S
C167 C165 1.383 . S
C167 H195 0.931 . S
C168 C165 1.382 . S
C168 C166 1.392 . S
C169 Eu160 2.828 . S
C169 C163 1.505 . S
C169 O181 1.249 . S
C169 O182 1.244 . S
O170 Eu161 2.373 . S
O170 C172 1.258 . S
O171 Eu160 2.392 . S
O171 C172 1.242 . S
C172 O170 1.258 . S
C172 O171 1.242 . S
O173 Eu160 2.418 . S
O173 C177 1.244 . S
O174 Eu161 2.488 . S
O174 C190 1.249 . S
O175 Eu161 2.471 . S
O175 C190 1.244 . S
O176 Eu161 2.349 . S
O176 C177 1.265 . S
C177 O173 1.244 . S
C177 O176 1.265 . S
O178 Eu160 2.373 . S
O178 C191 1.258 . S
O179 Eu161 2.392 . S
O179 C191 1.242 . S
O180 Eu161 2.418 . S
O180 C162 1.244 . S
O181 Eu160 2.488 . S
O181 C169 1.249 . S
O182 Eu160 2.471 . S
O182 C169 1.244 . S
O183 Eu160 2.349 . S
O183 C162 1.265 . S
C184 C185 1.379 . S
C184 C188 1.373 . S
C184 C190 1.505 . S
C185 C184 1.379 . S
C185 C187 1.369 . S
C185 H196 0.930 . S
C186 C188 1.383 . S
C186 C189 1.382 . S
C186 H197 0.930 . S
C187 C185 1.369 . S
C187 C189 1.392 . S
C187 H198 0.930 . S
C188 C184 1.373 . S
C188 C186 1.383 . S
C188 H199 0.931 . S
C189 C186 1.382 . S
C189 C187 1.392 . S
C190 Eu161 2.828 . S
C190 O174 1.249 . S
C190 O175 1.244 . S
C190 C184 1.505 . S
C191 O178 1.258 . S
C191 O179 1.242 . S
H192 C164 0.930 . S
H193 C165 0.930 1_545 S
H194 C166 0.930 . S
H195 C167 0.931 . S
H196 C185 0.930 . S
H197 C186 0.930 . S
H198 C187 0.930 . S
H199 C188 0.931 . S
Eu200 C209 2.828 . S
Eu200 O211 2.392 . S
Eu200 O213 2.418 . S
Eu200 O218 2.373 . S
Eu200 O221 2.488 . S
Eu200 O222 2.471 . S
Eu200 O223 2.349 . S
Eu201 O210 2.373 . S
Eu201 O214 2.488 . S
Eu201 O215 2.471 . S
Eu201 O216 2.349 . S
Eu201 O219 2.392 . S
Eu201 O220 2.418 . S
Eu201 C230 2.828 . S
C202 O220 1.244 . S
C202 O223 1.265 . S
C203 C204 1.379 . S
C203 C207 1.373 . S
C203 C209 1.505 . S
C204 C203 1.379 . S
C204 C206 1.369 . S
C204 H232 0.930 . S
C205 C207 1.383 . S
C205 C208 1.382 . S
C205 H233 0.930 . S
C206 C204 1.369 . S
C206 C208 1.392 . S
C206 H234 0.930 . S
C207 C203 1.373 . S
C207 C205 1.383 . S
C207 H235 0.931 . S
C208 C205 1.382 . S
C208 C206 1.392 . S
C209 Eu200 2.828 . S
C209 C203 1.505 . S
C209 O221 1.249 . S
C209 O222 1.244 . S
O210 Eu201 2.373 . S
O210 C212 1.258 . S
O211 Eu200 2.392 . S
O211 C212 1.242 . S
C212 O210 1.258 . S
C212 O211 1.242 . S
O213 Eu200 2.418 . S
O213 C217 1.244 . S
O214 Eu201 2.488 . S
O214 C230 1.249 . S
O215 Eu201 2.471 . S
O215 C230 1.244 . S
O216 Eu201 2.349 . S
O216 C217 1.265 . S
C217 O213 1.244 . S
C217 O216 1.265 . S
O218 Eu200 2.373 . S
O218 C231 1.258 . S
O219 Eu201 2.392 . S
O219 C231 1.242 . S
O220 Eu201 2.418 . S
O220 C202 1.244 . S
O221 Eu200 2.488 . S
O221 C209 1.249 . S
O222 Eu200 2.471 . S
O222 C209 1.244 . S
O223 Eu200 2.349 . S
O223 C202 1.265 . S
C224 C225 1.379 . S
C224 C228 1.373 . S
C224 C230 1.505 . S
C225 C224 1.379 . S
C225 C227 1.369 . S
C225 H236 0.930 . S
C226 C228 1.383 . S
C226 C229 1.382 . S
C226 H237 0.930 . S
C227 C225 1.369 . S
C227 C229 1.392 . S
C227 H238 0.930 . S
C228 C224 1.373 . S
C228 C226 1.383 . S
C228 H239 0.931 . S
C229 C226 1.382 . S
C229 C227 1.392 . S
C230 Eu201 2.828 . S
C230 O214 1.249 . S
C230 O215 1.244 . S
C230 C224 1.505 . S
C231 O218 1.258 . S
C231 O219 1.242 . S
H232 C204 0.930 . S
H233 C205 0.930 . S
H234 C206 0.930 . S
H235 C207 0.931 . S
H236 C225 0.930 . S
H237 C226 0.930 . S
H238 C227 0.930 . S
H239 C228 0.931 . S
Eu240 C249 2.828 . S
Eu240 O251 2.392 . S
Eu240 O253 2.418 . S
Eu240 O258 2.373 . S
Eu240 O261 2.488 . S
Eu240 O262 2.471 . S
Eu240 O263 2.349 . S
Eu241 O250 2.373 . S
Eu241 O254 2.488 . S
Eu241 O255 2.471 . S
Eu241 O256 2.349 . S
Eu241 O259 2.392 . S
Eu241 O260 2.418 . S
Eu241 C270 2.828 . S
C242 O260 1.244 . S
C242 O263 1.265 . S
C243 C244 1.379 . S
C243 C247 1.373 . S
C243 C249 1.505 . S
C244 C243 1.379 . S
C244 C246 1.369 . S
C244 H272 0.930 . S
C245 C247 1.383 . S
C245 C248 1.382 . S
C245 H273 0.930 1_545 S
C246 C244 1.369 . S
C246 C248 1.392 . S
C246 H274 0.930 . S
C247 C243 1.373 . S
C247 C245 1.383 . S
C247 H275 0.931 . S
C248 C245 1.382 . S
C248 C246 1.392 . S
C249 Eu240 2.828 . S
C249 C243 1.505 . S
C249 O261 1.249 . S
C249 O262 1.244 . S
O250 Eu241 2.373 . S
O250 C252 1.258 . S
O251 Eu240 2.392 . S
O251 C252 1.242 . S
C252 O250 1.258 . S
C252 O251 1.242 . S
O253 Eu240 2.418 . S
O253 C257 1.244 . S
O254 Eu241 2.488 . S
O254 C270 1.249 . S
O255 Eu241 2.471 . S
O255 C270 1.244 . S
O256 Eu241 2.349 . S
O256 C257 1.265 . S
C257 O253 1.244 . S
C257 O256 1.265 . S
O258 Eu240 2.373 . S
O258 C271 1.258 . S
O259 Eu241 2.392 . S
O259 C271 1.242 . S
O260 Eu241 2.418 . S
O260 C242 1.244 . S
O261 Eu240 2.488 . S
O261 C249 1.249 . S
O262 Eu240 2.471 . S
O262 C249 1.244 . S
O263 Eu240 2.349 . S
O263 C242 1.265 . S
C264 C265 1.379 . S
C264 C268 1.373 . S
C264 C270 1.505 . S
C265 C264 1.379 . S
C265 C267 1.369 . S
C265 H276 0.930 . S
C266 C268 1.383 . S
C266 C269 1.382 . S
C266 H277 0.930 . S
C267 C265 1.369 . S
C267 C269 1.392 . S
C267 H278 0.930 . S
C268 C264 1.373 . S
C268 C266 1.383 . S
C268 H279 0.931 . S
C269 C266 1.382 . S
C269 C267 1.392 . S
C270 Eu241 2.828 . S
C270 O254 1.249 . S
C270 O255 1.244 . S
C270 C264 1.505 . S
C271 O258 1.258 . S
C271 O259 1.242 . S
H272 C244 0.930 . S
H273 C245 0.930 1_565 S
H274 C246 0.930 . S
H275 C247 0.931 . S
H276 C265 0.930 . S
H277 C266 0.930 . S
H278 C267 0.930 . S
H279 C268 0.931 . S
Eu280 C289 2.828 . S
Eu280 O291 2.392 . S
Eu280 O293 2.418 . S
Eu280 O298 2.373 . S
Eu280 O301 2.488 . S
Eu280 O302 2.471 . S
Eu280 O303 2.349 . S
Eu281 O290 2.373 . S
Eu281 O294 2.488 . S
Eu281 O295 2.471 . S
Eu281 O296 2.349 . S
Eu281 O299 2.392 . S
Eu281 O300 2.418 . S
Eu281 C310 2.828 . S
C282 O300 1.244 . S
C282 O303 1.265 . S
C283 C284 1.379 . S
C283 C287 1.373 . S
C283 C289 1.505 . S
C284 C283 1.379 . S
C284 C286 1.369 . S
C284 H312 0.930 . S
C285 C287 1.383 . S
C285 C288 1.382 . S
C285 H313 0.930 . S
C286 C284 1.369 . S
C286 C288 1.392 . S
C286 H314 0.930 . S
C287 C283 1.373 . S
C287 C285 1.383 . S
C287 H315 0.931 . S
C288 C285 1.382 . S
C288 C286 1.392 . S
C289 Eu280 2.828 . S
C289 C283 1.505 . S
C289 O301 1.249 . S
C289 O302 1.244 . S
O290 Eu281 2.373 . S
O290 C292 1.258 . S
O291 Eu280 2.392 . S
O291 C292 1.242 . S
C292 O290 1.258 . S
C292 O291 1.242 . S
O293 Eu280 2.418 . S
O293 C297 1.244 . S
O294 Eu281 2.488 . S
O294 C310 1.249 . S
O295 Eu281 2.471 . S
O295 C310 1.244 . S
O296 Eu281 2.349 . S
O296 C297 1.265 . S
C297 O293 1.244 . S
C297 O296 1.265 . S
O298 Eu280 2.373 . S
O298 C311 1.258 . S
O299 Eu281 2.392 . S
O299 C311 1.242 . S
O300 Eu281 2.418 . S
O300 C282 1.244 . S
O301 Eu280 2.488 . S
O301 C289 1.249 . S
O302 Eu280 2.471 . S
O302 C289 1.244 . S
O303 Eu280 2.349 . S
O303 C282 1.265 . S
C304 C305 1.379 . S
C304 C308 1.373 . S
C304 C310 1.505 . S
C305 C304 1.379 . S
C305 C307 1.369 . S
C305 H316 0.930 . S
C306 C308 1.383 1_655 S
C306 C309 1.382 1_655 S
C306 H317 0.930 . S
C307 C305 1.369 . S
C307 C309 1.392 . S
C307 H318 0.930 . S
C308 C304 1.373 . S
C308 C306 1.383 1_455 S
C308 H319 0.931 1_455 S
C309 C306 1.382 1_455 S
C309 C307 1.392 . S
C310 Eu281 2.828 . S
C310 O294 1.249 . S
C310 O295 1.244 . S
C310 C304 1.505 . S
C311 O298 1.258 . S
C311 O299 1.242 . S
H312 C284 0.930 . S
H313 C285 0.930 . S
H314 C286 0.930 . S
H315 C287 0.931 . S
H316 C305 0.930 . S
H317 C306 0.930 . S
H318 C307 0.930 . S
H319 C308 0.931 1_655 S
Eu320 C329 2.828 . S
Eu320 O331 2.392 . S
Eu320 O333 2.418 . S
Eu320 O338 2.373 . S
Eu320 O341 2.488 . S
Eu320 O342 2.471 . S
Eu320 O343 2.349 . S
Eu321 O330 2.373 . S
Eu321 O334 2.488 . S
Eu321 O335 2.471 . S
Eu321 O336 2.349 . S
Eu321 O339 2.392 . S
Eu321 O340 2.418 . S
Eu321 C350 2.828 . S
C322 O340 1.244 . S
C322 O343 1.265 . S
C323 C324 1.379 . S
C323 C327 1.373 . S
C323 C329 1.505 . S
C324 C323 1.379 . S
C324 C326 1.369 . S
C324 H352 0.930 . S
C325 C327 1.383 . S
C325 C328 1.382 . S
C325 H353 0.930 . S
C326 C324 1.369 . S
C326 C328 1.392 . S
C326 H354 0.930 . S
C327 C323 1.373 . S
C327 C325 1.383 . S
C327 H355 0.931 . S
C328 C325 1.382 . S
C328 C326 1.392 . S
C329 Eu320 2.828 . S
C329 C323 1.505 . S
C329 O341 1.249 . S
C329 O342 1.244 . S
O330 Eu321 2.373 . S
O330 C332 1.258 . S
O331 Eu320 2.392 . S
O331 C332 1.242 . S
C332 O330 1.258 . S
C332 O331 1.242 . S
O333 Eu320 2.418 . S
O333 C337 1.244 . S
O334 Eu321 2.488 . S
O334 C350 1.249 . S
O335 Eu321 2.471 . S
O335 C350 1.244 . S
O336 Eu321 2.349 . S
O336 C337 1.265 . S
C337 O333 1.244 . S
C337 O336 1.265 . S
O338 Eu320 2.373 . S
O338 C351 1.258 . S
O339 Eu321 2.392 . S
O339 C351 1.242 . S
O340 Eu321 2.418 . S
O340 C322 1.244 . S
O341 Eu320 2.488 . S
O341 C329 1.249 . S
O342 Eu320 2.471 . S
O342 C329 1.244 . S
O343 Eu320 2.349 . S
O343 C322 1.265 . S
C344 C345 1.379 . S
C344 C348 1.373 . S
C344 C350 1.505 . S
C345 C344 1.379 . S
C345 C347 1.369 . S
C345 H356 0.930 . S
C346 C348 1.383 . S
C346 C349 1.382 . S
C346 H357 0.930 . S
C347 C345 1.369 . S
C347 C349 1.392 . S
C347 H358 0.930 . S
C348 C344 1.373 . S
C348 C346 1.383 . S
C348 H359 0.931 . S
C349 C346 1.382 . S
C349 C347 1.392 . S
C350 Eu321 2.828 . S
C350 O334 1.249 . S
C350 O335 1.244 . S
C350 C344 1.505 . S
C351 O338 1.258 . S
C351 O339 1.242 . S
H352 C324 0.930 . S
H353 C325 0.930 . S
H354 C326 0.930 . S
H355 C327 0.931 . S
H356 C345 0.930 . S
H357 C346 0.930 . S
H358 C347 0.930 . S
H359 C348 0.931 . S
Eu360 C369 2.828 . S
Eu360 O371 2.392 1_545 S
Eu360 O373 2.418 1_545 S
Eu360 O378 2.373 . S
Eu360 O381 2.488 . S
Eu360 O382 2.471 . S
Eu360 O383 2.349 . S
Eu361 O370 2.373 1_545 S
Eu361 O374 2.488 . S
Eu361 O375 2.471 . S
Eu361 O376 2.349 . S
Eu361 O379 2.392 . S
Eu361 O380 2.418 . S
Eu361 C390 2.828 . S
C362 O380 1.244 . S
C362 O383 1.265 . S
C363 C364 1.379 . S
C363 C367 1.373 . S
C363 C369 1.505 . S
C364 C363 1.379 . S
C364 C366 1.369 . S
C364 H392 0.930 . S
C365 C367 1.383 1_655 S
C365 C368 1.382 1_655 S
C365 H393 0.930 . S
C366 C364 1.369 . S
C366 C368 1.392 . S
C366 H394 0.930 . S
C367 C363 1.373 . S
C367 C365 1.383 1_455 S
C367 H395 0.931 1_455 S
C368 C365 1.382 1_455 S
C368 C366 1.392 . S
C369 Eu360 2.828 . S
C369 C363 1.505 . S
C369 O381 1.249 . S
C369 O382 1.244 . S
O370 Eu361 2.373 1_565 S
O370 C372 1.258 . S
O371 Eu360 2.392 1_565 S
O371 C372 1.242 . S
C372 O370 1.258 . S
C372 O371 1.242 . S
O373 Eu360 2.418 1_565 S
O373 C377 1.244 1_565 S
O374 Eu361 2.488 . S
O374 C390 1.249 . S
O375 Eu361 2.471 . S
O375 C390 1.244 . S
O376 Eu361 2.349 . S
O376 C377 1.265 . S
C377 O373 1.244 1_545 S
C377 O376 1.265 . S
O378 Eu360 2.373 . S
O378 C391 1.258 . S
O379 Eu361 2.392 . S
O379 C391 1.242 . S
O380 Eu361 2.418 . S
O380 C362 1.244 . S
O381 Eu360 2.488 . S
O381 C369 1.249 . S
O382 Eu360 2.471 . S
O382 C369 1.244 . S
O383 Eu360 2.349 . S
O383 C362 1.265 . S
C384 C385 1.379 1_545 S
C384 C388 1.373 . S
C384 C390 1.505 . S
C385 C384 1.379 1_565 S
C385 C387 1.369 . S
C385 H396 0.930 . S
C386 C388 1.383 . S
C386 C389 1.382 1_545 S
C386 H397 0.930 . S
C387 C385 1.369 . S
C387 C389 1.392 . S
C387 H398 0.930 . S
C388 C384 1.373 . S
C388 C386 1.383 . S
C388 H399 0.931 . S
C389 C386 1.382 1_565 S
C389 C387 1.392 . S
C390 Eu361 2.828 . S
C390 O374 1.249 . S
C390 O375 1.244 . S
C390 C384 1.505 . S
C391 O378 1.258 . S
C391 O379 1.242 . S
H392 C364 0.930 . S
H393 C365 0.930 . S
H394 C366 0.930 . S
H395 C367 0.931 1_655 S
H396 C385 0.930 . S
H397 C386 0.930 . S
H398 C387 0.930 . S
H399 C388 0.931 . S
Eu400 C409 2.828 . S
Eu400 O411 2.392 . S
Eu400 O413 2.418 . S
Eu400 O418 2.373 . S
Eu400 O421 2.488 . S
Eu400 O422 2.471 . S
Eu400 O423 2.349 . S
Eu401 O410 2.373 . S
Eu401 O414 2.488 . S
Eu401 O415 2.471 . S
Eu401 O416 2.349 . S
Eu401 O419 2.392 . S
Eu401 O420 2.418 . S
Eu401 C430 2.828 . S
C402 O420 1.244 . S
C402 O423 1.265 . S
C403 C404 1.379 . S
C403 C407 1.373 . S
C403 C409 1.505 . S
C404 C403 1.379 . S
C404 C406 1.369 . S
C404 H432 0.930 . S
C405 C407 1.383 . S
C405 C408 1.382 . S
C405 H433 0.930 . S
C406 C404 1.369 . S
C406 C408 1.392 . S
C406 H434 0.930 . S
C407 C403 1.373 . S
C407 C405 1.383 . S
C407 H435 0.931 . S
C408 C405 1.382 . S
C408 C406 1.392 . S
C409 Eu400 2.828 . S
C409 C403 1.505 . S
C409 O421 1.249 . S
C409 O422 1.244 . S
O410 Eu401 2.373 . S
O410 C412 1.258 . S
O411 Eu400 2.392 . S
O411 C412 1.242 . S
C412 O410 1.258 . S
C412 O411 1.242 . S
O413 Eu400 2.418 . S
O413 C417 1.244 . S
O414 Eu401 2.488 . S
O414 C430 1.249 . S
O415 Eu401 2.471 . S
O415 C430 1.244 . S
O416 Eu401 2.349 . S
O416 C417 1.265 . S
C417 O413 1.244 . S
C417 O416 1.265 . S
O418 Eu400 2.373 . S
O418 C431 1.258 . S
O419 Eu401 2.392 . S
O419 C431 1.242 . S
O420 Eu401 2.418 . S
O420 C402 1.244 . S
O421 Eu400 2.488 . S
O421 C409 1.249 . S
O422 Eu400 2.471 . S
O422 C409 1.244 . S
O423 Eu400 2.349 . S
O423 C402 1.265 . S
C424 C425 1.379 . S
C424 C428 1.373 . S
C424 C430 1.505 . S
C425 C424 1.379 . S
C425 C427 1.369 . S
C425 H436 0.930 . S
C426 C428 1.383 . S
C426 C429 1.382 . S
C426 H437 0.930 . S
C427 C425 1.369 . S
C427 C429 1.392 . S
C427 H438 0.930 . S
C428 C424 1.373 . S
C428 C426 1.383 . S
C428 H439 0.931 . S
C429 C426 1.382 . S
C429 C427 1.392 . S
C430 Eu401 2.828 . S
C430 O414 1.249 . S
C430 O415 1.244 . S
C430 C424 1.505 . S
C431 O418 1.258 . S
C431 O419 1.242 . S
H432 C404 0.930 . S
H433 C405 0.930 . S
H434 C406 0.930 . S
H435 C407 0.931 . S
H436 C425 0.930 . S
H437 C426 0.930 . S
H438 C427 0.930 . S
H439 C428 0.931 . S
Eu440 C449 2.828 . S
Eu440 O451 2.392 1_565 S
Eu440 O453 2.418 1_565 S
Eu440 O458 2.373 . S
Eu440 O461 2.488 . S
Eu440 O462 2.471 . S
Eu440 O463 2.349 . S
Eu441 O450 2.373 1_565 S
Eu441 O454 2.488 . S
Eu441 O455 2.471 . S
Eu441 O456 2.349 . S
Eu441 O459 2.392 . S
Eu441 O460 2.418 . S
Eu441 C470 2.828 . S
C442 O460 1.244 . S
C442 O463 1.265 . S
C443 C444 1.379 . S
C443 C447 1.373 . S
C443 C449 1.505 . S
C444 C443 1.379 . S
C444 C446 1.369 . S
C444 H472 0.930 . S
C445 C447 1.383 . S
C445 C448 1.382 . S
C445 H473 0.930 . S
C446 C444 1.369 . S
C446 C448 1.392 . S
C446 H474 0.930 . S
C447 C443 1.373 . S
C447 C445 1.383 . S
C447 H475 0.931 . S
C448 C445 1.382 . S
C448 C446 1.392 . S
C449 Eu440 2.828 . S
C449 C443 1.505 . S
C449 O461 1.249 . S
C449 O462 1.244 . S
O450 Eu441 2.373 1_545 S
O450 C452 1.258 . S
O451 Eu440 2.392 1_545 S
O451 C452 1.242 . S
C452 O450 1.258 . S
C452 O451 1.242 . S
O453 Eu440 2.418 1_545 S
O453 C457 1.244 1_545 S
O454 Eu441 2.488 . S
O454 C470 1.249 . S
O455 Eu441 2.471 . S
O455 C470 1.244 . S
O456 Eu441 2.349 . S
O456 C457 1.265 . S
C457 O453 1.244 1_565 S
C457 O456 1.265 . S
O458 Eu440 2.373 . S
O458 C471 1.258 . S
O459 Eu441 2.392 . S
O459 C471 1.242 . S
O460 Eu441 2.418 . S
O460 C442 1.244 . S
O461 Eu440 2.488 . S
O461 C449 1.249 . S
O462 Eu440 2.471 . S
O462 C449 1.244 . S
O463 Eu440 2.349 . S
O463 C442 1.265 . S
C464 C465 1.379 1_565 S
C464 C468 1.373 . S
C464 C470 1.505 . S
C465 C464 1.379 1_545 S
C465 C467 1.369 . S
C465 H476 0.930 . S
C466 C468 1.383 . S
C466 C469 1.382 1_565 S
C466 H477 0.930 . S
C467 C465 1.369 . S
C467 C469 1.392 . S
C467 H478 0.930 . S
C468 C464 1.373 . S
C468 C466 1.383 . S
C468 H479 0.931 . S
C469 C466 1.382 1_545 S
C469 C467 1.392 . S
C470 Eu441 2.828 . S
C470 O454 1.249 . S
C470 O455 1.244 . S
C470 C464 1.505 . S
C471 O458 1.258 . S
C471 O459 1.242 . S
H472 C444 0.930 . S
H473 C445 0.930 . S
H474 C446 0.930 . S
H475 C447 0.931 . S
H476 C465 0.930 . S
H477 C466 0.930 . S
H478 C467 0.930 . S
H479 C468 0.931 . S
Eu480 C489 2.828 . S
Eu480 O491 2.392 . S
Eu480 O493 2.418 . S
Eu480 O498 2.373 . S
Eu480 O501 2.488 . S
Eu480 O502 2.471 . S
Eu480 O503 2.349 . S
Eu481 O490 2.373 . S
Eu481 O494 2.488 . S
Eu481 O495 2.471 . S
Eu481 O496 2.349 . S
Eu481 O499 2.392 . S
Eu481 O500 2.418 . S
Eu481 C510 2.828 . S
C482 O500 1.244 . S
C482 O503 1.265 . S
C483 C484 1.379 . S
C483 C487 1.373 . S
C483 C489 1.505 . S
C484 C483 1.379 . S
C484 C486 1.369 . S
C484 H512 0.930 . S
C485 C487 1.383 . S
C485 C488 1.382 . S
C485 H513 0.930 . S
C486 C484 1.369 . S
C486 C488 1.392 . S
C486 H514 0.930 . S
C487 C483 1.373 . S
C487 C485 1.383 . S
C487 H515 0.931 . S
C488 C485 1.382 . S
C488 C486 1.392 . S
C489 Eu480 2.828 . S
C489 C483 1.505 . S
C489 O501 1.249 . S
C489 O502 1.244 . S
O490 Eu481 2.373 . S
O490 C492 1.258 . S
O491 Eu480 2.392 . S
O491 C492 1.242 . S
C492 O490 1.258 . S
C492 O491 1.242 . S
O493 Eu480 2.418 . S
O493 C497 1.244 . S
O494 Eu481 2.488 . S
O494 C510 1.249 . S
O495 Eu481 2.471 . S
O495 C510 1.244 . S
O496 Eu481 2.349 . S
O496 C497 1.265 . S
C497 O493 1.244 . S
C497 O496 1.265 . S
O498 Eu480 2.373 . S
O498 C511 1.258 . S
O499 Eu481 2.392 . S
O499 C511 1.242 . S
O500 Eu481 2.418 . S
O500 C482 1.244 . S
O501 Eu480 2.488 . S
O501 C489 1.249 . S
O502 Eu480 2.471 . S
O502 C489 1.244 . S
O503 Eu480 2.349 . S
O503 C482 1.265 . S
C504 C505 1.379 . S
C504 C508 1.373 . S
C504 C510 1.505 . S
C505 C504 1.379 . S
C505 C507 1.369 . S
C505 H516 0.930 . S
C506 C508 1.383 . S
C506 C509 1.382 . S
C506 H517 0.930 . S
C507 C505 1.369 . S
C507 C509 1.392 . S
C507 H518 0.930 . S
C508 C504 1.373 . S
C508 C506 1.383 . S
C508 H519 0.931 . S
C509 C506 1.382 . S
C509 C507 1.392 . S
C510 Eu481 2.828 . S
C510 O494 1.249 . S
C510 O495 1.244 . S
C510 C504 1.505 . S
C511 O498 1.258 . S
C511 O499 1.242 . S
H512 C484 0.930 . S
H513 C485 0.930 . S
H514 C486 0.930 . S
H515 C487 0.931 . S
H516 C505 0.930 . S
H517 C506 0.930 . S
H518 C507 0.930 . S
H519 C508 0.931 . S
Eu520 C529 2.828 . S
Eu520 O531 2.392 . S
Eu520 O533 2.418 . S
Eu520 O538 2.373 1_565 S
Eu520 O541 2.488 . S
Eu520 O542 2.471 . S
Eu520 O543 2.349 . S
Eu521 O530 2.373 . S
Eu521 O534 2.488 . S
Eu521 O535 2.471 . S
Eu521 O536 2.349 . S
Eu521 O539 2.392 1_565 S
Eu521 O540 2.418 1_565 S
Eu521 C550 2.828 . S
C522 O540 1.244 1_565 S
C522 O543 1.265 . S
C523 C524 1.379 1_565 S
C523 C527 1.373 . S
C523 C529 1.505 . S
C524 C523 1.379 1_545 S
C524 C526 1.369 . S
C524 H552 0.930 . S
C525 C527 1.383 . S
C525 C528 1.382 1_565 S
C525 H553 0.930 . S
C526 C524 1.369 . S
C526 C528 1.392 . S
C526 H554 0.930 . S
C527 C523 1.373 . S
C527 C525 1.383 . S
C527 H555 0.931 . S
C528 C525 1.382 1_545 S
C528 C526 1.392 . S
C529 Eu520 2.828 . S
C529 C523 1.505 . S
C529 O541 1.249 . S
C529 O542 1.244 . S
O530 Eu521 2.373 . S
O530 C532 1.258 . S
O531 Eu520 2.392 . S
O531 C532 1.242 . S
C532 O530 1.258 . S
C532 O531 1.242 . S
O533 Eu520 2.418 . S
O533 C537 1.244 . S
O534 Eu521 2.488 . S
O534 C550 1.249 . S
O535 Eu521 2.471 . S
O535 C550 1.244 . S
O536 Eu521 2.349 . S
O536 C537 1.265 . S
C537 O533 1.244 . S
C537 O536 1.265 . S
O538 Eu520 2.373 1_545 S
O538 C551 1.258 . S
O539 Eu521 2.392 1_545 S
O539 C551 1.242 . S
O540 Eu521 2.418 1_545 S
O540 C522 1.244 1_545 S
O541 Eu520 2.488 . S
O541 C529 1.249 . S
O542 Eu520 2.471 . S
O542 C529 1.244 . S
O543 Eu520 2.349 . S
O543 C522 1.265 . S
C544 C545 1.379 . S
C544 C548 1.373 . S
C544 C550 1.505 . S
C545 C544 1.379 . S
C545 C547 1.369 . S
C545 H556 0.930 . S
C546 C548 1.383 1_455 S
C546 C549 1.382 1_455 S
C546 H557 0.930 . S
C547 C545 1.369 . S
C547 C549 1.392 . S
C547 H558 0.930 . S
C548 C544 1.373 . S
C548 C546 1.383 1_655 S
C548 H559 0.931 1_655 S
C549 C546 1.382 1_655 S
C549 C547 1.392 . S
C550 Eu521 2.828 . S
C550 O534 1.249 . S
C550 O535 1.244 . S
C550 C544 1.505 . S
C551 O538 1.258 . S
C551 O539 1.242 . S
H552 C524 0.930 . S
H553 C525 0.930 . S
H554 C526 0.930 . S
H555 C527 0.931 . S
H556 C545 0.930 . S
H557 C546 0.930 . S
H558 C547 0.930 . S
H559 C548 0.931 1_455 S
Eu560 C569 2.828 . S
Eu560 O571 2.392 . S
Eu560 O573 2.418 . S
Eu560 O578 2.373 . S
Eu560 O581 2.488 . S
Eu560 O582 2.471 . S
Eu560 O583 2.349 . S
Eu561 O570 2.373 . S
Eu561 O574 2.488 . S
Eu561 O575 2.471 . S
Eu561 O576 2.349 . S
Eu561 O579 2.392 . S
Eu561 O580 2.418 . S
Eu561 C590 2.828 . S
C562 O580 1.244 . S
C562 O583 1.265 . S
C563 C564 1.379 . S
C563 C567 1.373 . S
C563 C569 1.505 . S
C564 C563 1.379 . S
C564 C566 1.369 . S
C564 H592 0.930 . S
C565 C567 1.383 . S
C565 C568 1.382 . S
C565 H593 0.930 . S
C566 C564 1.369 . S
C566 C568 1.392 . S
C566 H594 0.930 . S
C567 C563 1.373 . S
C567 C565 1.383 . S
C567 H595 0.931 . S
C568 C565 1.382 . S
C568 C566 1.392 . S
C569 Eu560 2.828 . S
C569 C563 1.505 . S
C569 O581 1.249 . S
C569 O582 1.244 . S
O570 Eu561 2.373 . S
O570 C572 1.258 . S
O571 Eu560 2.392 . S
O571 C572 1.242 . S
C572 O570 1.258 . S
C572 O571 1.242 . S
O573 Eu560 2.418 . S
O573 C577 1.244 . S
O574 Eu561 2.488 . S
O574 C590 1.249 . S
O575 Eu561 2.471 . S
O575 C590 1.244 . S
O576 Eu561 2.349 . S
O576 C577 1.265 . S
C577 O573 1.244 . S
C577 O576 1.265 . S
O578 Eu560 2.373 . S
O578 C591 1.258 . S
O579 Eu561 2.392 . S
O579 C591 1.242 . S
O580 Eu561 2.418 . S
O580 C562 1.244 . S
O581 Eu560 2.488 . S
O581 C569 1.249 . S
O582 Eu560 2.471 . S
O582 C569 1.244 . S
O583 Eu560 2.349 . S
O583 C562 1.265 . S
C584 C585 1.379 . S
C584 C588 1.373 . S
C584 C590 1.505 . S
C585 C584 1.379 . S
C585 C587 1.369 . S
C585 H596 0.930 . S
C586 C588 1.383 . S
C586 C589 1.382 . S
C586 H597 0.930 . S
C587 C585 1.369 . S
C587 C589 1.392 . S
C587 H598 0.930 . S
C588 C584 1.373 . S
C588 C586 1.383 . S
C588 H599 0.931 . S
C589 C586 1.382 . S
C589 C587 1.392 . S
C590 Eu561 2.828 . S
C590 O574 1.249 . S
C590 O575 1.244 . S
C590 C584 1.505 . S
C591 O578 1.258 . S
C591 O579 1.242 . S
H592 C564 0.930 . S
H593 C565 0.930 . S
H594 C566 0.930 . S
H595 C567 0.931 . S
H596 C585 0.930 . S
H597 C586 0.930 . S
H598 C587 0.930 . S
H599 C588 0.931 . S
Eu600 C609 2.828 . S
Eu600 O611 2.392 . S
Eu600 O613 2.418 . S
Eu600 O618 2.373 1_545 S
Eu600 O621 2.488 . S
Eu600 O622 2.471 . S
Eu600 O623 2.349 . S
Eu601 O610 2.373 . S
Eu601 O614 2.488 . S
Eu601 O615 2.471 . S
Eu601 O616 2.349 . S
Eu601 O619 2.392 1_545 S
Eu601 O620 2.418 1_545 S
Eu601 C630 2.828 . S
C602 O620 1.244 1_545 S
C602 O623 1.265 . S
C603 C604 1.379 1_545 S
C603 C607 1.373 . S
C603 C609 1.505 . S
C604 C603 1.379 1_565 S
C604 C606 1.369 . S
C604 H632 0.930 . S
C605 C607 1.383 . S
C605 C608 1.382 1_545 S
C605 H633 0.930 . S
C606 C604 1.369 . S
C606 C608 1.392 . S
C606 H634 0.930 . S
C607 C603 1.373 . S
C607 C605 1.383 . S
C607 H635 0.931 . S
C608 C605 1.382 1_565 S
C608 C606 1.392 . S
C609 Eu600 2.828 . S
C609 C603 1.505 . S
C609 O621 1.249 . S
C609 O622 1.244 . S
O610 Eu601 2.373 . S
O610 C612 1.258 . S
O611 Eu600 2.392 . S
O611 C612 1.242 . S
C612 O610 1.258 . S
C612 O611 1.242 . S
O613 Eu600 2.418 . S
O613 C617 1.244 . S
O614 Eu601 2.488 . S
O614 C630 1.249 . S
O615 Eu601 2.471 . S
O615 C630 1.244 . S
O616 Eu601 2.349 . S
O616 C617 1.265 . S
C617 O613 1.244 . S
C617 O616 1.265 . S
O618 Eu600 2.373 1_565 S
O618 C631 1.258 . S
O619 Eu601 2.392 1_565 S
O619 C631 1.242 . S
O620 Eu601 2.418 1_565 S
O620 C602 1.244 1_565 S
O621 Eu600 2.488 . S
O621 C609 1.249 . S
O622 Eu600 2.471 . S
O622 C609 1.244 . S
O623 Eu600 2.349 . S
O623 C602 1.265 . S
C624 C625 1.379 . S
C624 C628 1.373 . S
C624 C630 1.505 . S
C625 C624 1.379 . S
C625 C627 1.369 . S
C625 H636 0.930 . S
C626 C628 1.383 . S
C626 C629 1.382 . S
C626 H637 0.930 . S
C627 C625 1.369 . S
C627 C629 1.392 . S
C627 H638 0.930 . S
C628 C624 1.373 . S
C628 C626 1.383 . S
C628 H639 0.931 . S
C629 C626 1.382 . S
C629 C627 1.392 . S
C630 Eu601 2.828 . S
C630 O614 1.249 . S
C630 O615 1.244 . S
C630 C624 1.505 . S
C631 O618 1.258 . S
C631 O619 1.242 . S
H632 C604 0.930 . S
H633 C605 0.930 . S
H634 C606 0.930 . S
H635 C607 0.931 . S
H636 C625 0.930 . S
H637 C626 0.930 . S
H638 C627 0.930 . S
H639 C628 0.931 . S
H640 C648 0.950 . S
H641 C653 0.950 . S
H642 C650 0.950 . S
H643 C652 0.950 . S
H644 C654 0.950 . S
H645 C656 0.950 . S
H646 C658 0.950 . S
H647 C659 0.950 . S
C648 H640 0.950 . S
C648 C649 1.386 . S
C648 C650 1.391 . S
C649 C648 1.386 . S
C649 C653 1.393 . S
C650 H642 0.950 . S
C650 C648 1.391 . S
C650 C651 1.400 . S
C651 C650 1.400 . S
C651 C652 1.398 . S
C651 C657 1.491 . S
C652 H643 0.950 . S
C652 C651 1.398 . S
C652 C653 1.391 . S
C653 H641 0.950 . S
C653 C649 1.393 . S
C653 C652 1.391 . S
C654 H644 0.950 . S
C654 C655 1.386 . S
C654 C656 1.391 . S
C655 C654 1.386 . S
C655 C659 1.393 . S
C656 H645 0.950 . S
C656 C654 1.391 . S
C656 C657 1.400 . S
C657 C651 1.491 . S
C657 C656 1.400 . S
C657 C658 1.398 . S
C658 H646 0.950 . S
C658 C657 1.398 . S
C658 C659 1.391 . S
C659 H647 0.950 . S
C659 C655 1.393 . S
C659 C658 1.391 . S
H660 C668 0.950 . S
H661 C673 0.950 . S
H662 C670 0.950 . S
H663 C672 0.950 . S
H664 C674 0.950 . S
H665 C676 0.950 . S
H666 C678 0.950 . S
H667 C679 0.950 . S
C668 H660 0.950 . S
C668 C669 1.386 . S
C668 C670 1.391 . S
C669 C668 1.386 . S
C669 C673 1.393 . S
C670 H662 0.950 . S
C670 C668 1.391 . S
C670 C671 1.400 . S
C671 C670 1.400 . S
C671 C672 1.398 . S
C671 C677 1.491 . S
C672 H663 0.950 . S
C672 C671 1.398 . S
C672 C673 1.391 . S
C673 H661 0.950 . S
C673 C669 1.393 . S
C673 C672 1.391 . S
C674 H664 0.950 . S
C674 C675 1.386 . S
C674 C676 1.391 . S
C675 C674 1.386 . S
C675 C679 1.393 . S
C676 H665 0.950 . S
C676 C674 1.391 . S
C676 C677 1.400 . S
C677 C671 1.491 . S
C677 C676 1.400 . S
C677 C678 1.398 . S
C678 H666 0.950 . S
C678 C677 1.398 . S
C678 C679 1.391 . S
C679 H667 0.950 . S
C679 C675 1.393 . S
C679 C678 1.391 . S
H680 C688 0.950 . S
H681 C693 0.950 . S
H682 C690 0.950 . S
H683 C692 0.950 . S
H684 C694 0.950 . S
H685 C696 0.950 . S
H686 C698 0.950 . S
H687 C699 0.950 . S
C688 H680 0.950 . S
C688 C689 1.386 . S
C688 C690 1.391 . S
C689 C688 1.386 . S
C689 C693 1.393 . S
C690 H682 0.950 . S
C690 C688 1.391 . S
C690 C691 1.400 . S
C691 C690 1.400 . S
C691 C692 1.398 . S
C691 C697 1.491 . S
C692 H683 0.950 . S
C692 C691 1.398 . S
C692 C693 1.391 . S
C693 H681 0.950 . S
C693 C689 1.393 . S
C693 C692 1.391 . S
C694 H684 0.950 . S
C694 C695 1.386 . S
C694 C696 1.391 . S
C695 C694 1.386 . S
C695 C699 1.393 . S
C696 H685 0.950 . S
C696 C694 1.391 . S
C696 C697 1.400 . S
C697 C691 1.491 . S
C697 C696 1.400 . S
C697 C698 1.398 . S
C698 H686 0.950 . S
C698 C697 1.398 . S
C698 C699 1.391 . S
C699 H687 0.950 . S
C699 C695 1.393 . S
C699 C698 1.391 . S
H700 C708 0.950 . S
H701 C713 0.950 . S
H702 C710 0.950 1_554 S
H703 C712 0.950 . S
H704 C714 0.950 . S
H705 C716 0.950 1_556 S
H706 C718 0.950 . S
H707 C719 0.950 . S
C708 H700 0.950 . S
C708 C709 1.386 1_655 S
C708 C710 1.391 . S
C709 C708 1.386 1_455 S
C709 C713 1.393 . S
C710 H702 0.950 1_556 S
C710 C708 1.391 . S
C710 C711 1.385 1_655 S
C711 C710 1.385 1_455 S
C711 C712 1.414 . S
C711 C717 1.490 1_456 S
C712 H703 0.950 . S
C712 C711 1.414 . S
C712 C713 1.391 . S
C713 H701 0.950 . S
C713 C709 1.393 . S
C713 C712 1.391 . S
C714 H704 0.950 . S
C714 C715 1.386 1_455 S
C714 C716 1.391 . S
C715 C714 1.386 1_655 S
C715 C719 1.393 . S
C716 H705 0.950 1_554 S
C716 C714 1.391 . S
C716 C717 1.385 1_455 S
C717 C711 1.490 1_654 S
C717 C716 1.385 1_655 S
C717 C718 1.414 . S
C718 H706 0.950 . S
C718 C717 1.414 . S
C718 C719 1.391 . S
C719 H707 0.950 . S
C719 C715 1.393 . S
C719 C718 1.391 . S
H720 C728 0.950 . S
H721 C733 0.950 . S
H722 C730 0.950 . S
H723 C732 0.950 . S
H724 C734 0.950 . S
H725 C736 0.950 . S
H726 C738 0.950 . S
H727 C739 0.950 . S
C728 H720 0.950 . S
C728 C729 1.386 . S
C728 C730 1.391 . S
C729 C728 1.386 . S
C729 C733 1.393 . S
C730 H722 0.950 . S
C730 C728 1.391 . S
C730 C731 1.400 . S
C731 C730 1.400 . S
C731 C732 1.398 . S
C731 C737 1.491 . S
C732 H723 0.950 . S
C732 C731 1.398 . S
C732 C733 1.391 . S
C733 H721 0.950 . S
C733 C729 1.393 . S
C733 C732 1.391 . S
C734 H724 0.950 . S
C734 C735 1.386 . S
C734 C736 1.391 . S
C735 C734 1.386 . S
C735 C739 1.393 . S
C736 H725 0.950 . S
C736 C734 1.391 . S
C736 C737 1.400 . S
C737 C731 1.491 . S
C737 C736 1.400 . S
C737 C738 1.398 . S
C738 H726 0.950 . S
C738 C737 1.398 . S
C738 C739 1.391 . S
C739 H727 0.950 . S
C739 C735 1.393 . S
C739 C738 1.391 . S
H740 C748 0.950 . S
H741 C753 0.950 . S
H742 C750 0.950 . S
H743 C752 0.950 . S
H744 C754 0.950 . S
H745 C756 0.950 . S
H746 C758 0.950 . S
H747 C759 0.950 . S
C748 H740 0.950 . S
C748 C749 1.386 . S
C748 C750 1.391 . S
C749 C748 1.386 . S
C749 C753 1.393 . S
C750 H742 0.950 . S
C750 C748 1.391 . S
C750 C751 1.400 . S
C751 C750 1.400 . S
C751 C752 1.398 . S
C751 C757 1.491 . S
C752 H743 0.950 . S
C752 C751 1.398 . S
C752 C753 1.391 . S
C753 H741 0.950 . S
C753 C749 1.393 . S
C753 C752 1.391 . S
C754 H744 0.950 . S
C754 C755 1.386 . S
C754 C756 1.391 . S
C755 C754 1.386 . S
C755 C759 1.393 . S
C756 H745 0.950 . S
C756 C754 1.391 . S
C756 C757 1.400 . S
C757 C751 1.491 . S
C757 C756 1.400 . S
C757 C758 1.398 . S
C758 H746 0.950 . S
C758 C757 1.398 . S
C758 C759 1.391 . S
C759 H747 0.950 . S
C759 C755 1.393 . S
C759 C758 1.391 . S
H760 C768 0.950 . S
H761 C773 0.950 . S
H762 C770 0.950 . S
H763 C772 0.950 . S
H764 C774 0.950 . S
H765 C776 0.950 . S
H766 C778 0.950 . S
H767 C779 0.950 . S
C768 H760 0.950 . S
C768 C769 1.386 1_655 S
C768 C770 1.391 . S
C769 C768 1.386 1_455 S
C769 C773 1.393 . S
C770 H762 0.950 . S
C770 C768 1.391 . S
C770 C771 1.391 1_655 S
C771 C770 1.391 1_455 S
C771 C772 1.408 . S
C771 C777 1.490 1_464 S
C772 H763 0.950 . S
C772 C771 1.408 . S
C772 C773 1.391 . S
C773 H761 0.950 . S
C773 C769 1.393 . S
C773 C772 1.391 . S
C774 H764 0.950 . S
C774 C775 1.386 1_455 S
C774 C776 1.391 . S
C775 C774 1.386 1_655 S
C775 C779 1.393 . S
C776 H765 0.950 . S
C776 C774 1.391 . S
C776 C777 1.391 1_455 S
C777 C771 1.490 1_646 S
C777 C776 1.391 1_655 S
C777 C778 1.408 . S
C778 H766 0.950 . S
C778 C777 1.408 . S
C778 C779 1.391 . S
C779 H767 0.950 . S
C779 C775 1.393 . S
C779 C778 1.391 . S
H780 C788 0.950 . S
H781 C793 0.950 . S
H782 C790 0.950 . S
H783 C792 0.950 . S
H784 C794 0.950 . S
H785 C796 0.950 . S
H786 C798 0.950 . S
H787 C799 0.950 . S
C788 H780 0.950 . S
C788 C789 1.386 . S
C788 C790 1.391 . S
C789 C788 1.386 . S
C789 C793 1.393 . S
C790 H782 0.950 . S
C790 C788 1.391 . S
C790 C791 1.400 . S
C791 C790 1.400 . S
C791 C792 1.398 . S
C791 C797 1.491 1_565 S
C792 H783 0.950 . S
C792 C791 1.398 . S
C792 C793 1.391 . S
C793 H781 0.950 . S
C793 C789 1.393 . S
C793 C792 1.391 . S
C794 H784 0.950 . S
C794 C795 1.386 . S
C794 C796 1.391 . S
C795 C794 1.386 . S
C795 C799 1.393 . S
C796 H785 0.950 . S
C796 C794 1.391 . S
C796 C797 1.400 . S
C797 C791 1.491 1_545 S
C797 C796 1.400 . S
C797 C798 1.398 . S
C798 H786 0.950 . S
C798 C797 1.398 . S
C798 C799 1.391 . S
C799 H787 0.950 . S
C799 C795 1.393 . S
C799 C798 1.391 . S
H800 C808 0.950 . S
H801 C813 0.950 . S
H802 C810 0.950 1_565 S
H803 C812 0.950 . S
H804 C814 0.950 . S
H805 C816 0.950 . S
H806 C818 0.950 1_565 S
H807 C819 0.970 1_554 S
C808 H800 0.950 . S
C808 C809 1.386 . S
C808 C810 1.391 . S
C809 C808 1.386 . S
C809 C813 1.393 . S
C810 H802 0.950 1_545 S
C810 C808 1.391 . S
C810 C811 1.400 . S
C811 C810 1.400 . S
C811 C812 1.398 . S
C811 C817 1.491 . S
C812 H803 0.950 . S
C812 C811 1.398 . S
C812 C813 1.391 . S
C813 H801 0.950 . S
C813 C809 1.393 . S
C813 C812 1.391 . S
C814 H804 0.950 . S
C814 C815 1.386 . S
C814 C816 1.391 1_554 S
C815 C814 1.386 . S
C815 C819 1.377 1_544 S
C816 H805 0.950 . S
C816 C814 1.391 1_556 S
C816 C817 1.400 . S
C817 C811 1.491 . S
C817 C816 1.400 . S
C817 C818 1.398 . S
C818 H806 0.950 1_545 S
C818 C817 1.398 . S
C818 C819 1.387 1_545 S
C819 H807 0.970 1_556 S
C819 C815 1.377 1_566 S
C819 C818 1.387 1_565 S
H820 C828 0.950 . S
H821 C833 0.950 . S
H822 C830 0.950 . S
H823 C832 0.950 . S
H824 C834 0.950 . S
H825 C836 0.950 . S
H826 C838 0.950 . S
H827 C839 0.950 . S
C828 H820 0.950 . S
C828 C829 1.386 . S
C828 C830 1.391 . S
C829 C828 1.386 . S
C829 C833 1.393 . S
C830 H822 0.950 . S
C830 C828 1.391 . S
C830 C831 1.400 . S
C831 C830 1.400 . S
C831 C832 1.398 . S
C831 C837 1.491 . S
C832 H823 0.950 . S
C832 C831 1.398 . S
C832 C833 1.391 . S
C833 H821 0.950 . S
C833 C829 1.393 . S
C833 C832 1.391 . S
C834 H824 0.950 . S
C834 C835 1.386 . S
C834 C836 1.391 . S
C835 C834 1.386 . S
C835 C839 1.393 . S
C836 H825 0.950 . S
C836 C834 1.391 . S
C836 C837 1.400 . S
C837 C831 1.491 . S
C837 C836 1.400 . S
C837 C838 1.398 . S
C838 H826 0.950 . S
C838 C837 1.398 . S
C838 C839 1.391 . S
C839 H827 0.950 . S
C839 C835 1.393 . S
C839 C838 1.391 . S
H840 C848 0.950 1_545 S
H841 C853 0.950 . S
H842 C850 0.950 1_545 S
H843 C852 0.950 . S
H844 C854 0.950 . S
H845 C856 0.950 . S
H846 C858 0.950 1_545 S
H847 C859 0.950 . S
C848 H840 0.950 1_565 S
C848 C849 1.386 . S
C848 C850 1.391 . S
C849 C848 1.386 . S
C849 C853 1.393 . S
C850 H842 0.950 1_565 S
C850 C848 1.391 . S
C850 C851 1.400 . S
C851 C850 1.400 . S
C851 C852 1.398 . S
C851 C857 1.491 . S
C852 H843 0.950 . S
C852 C851 1.398 . S
C852 C853 1.391 . S
C853 H841 0.950 . S
C853 C849 1.393 . S
C853 C852 1.391 . S
C854 H844 0.950 . S
C854 C855 1.386 . S
C854 C856 1.391 . S
C855 C854 1.386 . S
C855 C859 1.393 . S
C856 H845 0.950 . S
C856 C854 1.391 . S
C856 C857 1.400 . S
C857 C851 1.491 . S
C857 C856 1.400 . S
C857 C858 1.398 . S
C858 H846 0.950 1_565 S
C858 C857 1.398 . S
C858 C859 1.391 . S
C859 H847 0.950 . S
C859 C855 1.393 . S
C859 C858 1.391 . S
H860 C868 0.950 . S
H861 C873 0.950 . S
H862 C870 0.950 . S
H863 C872 0.950 . S
H864 C874 0.950 . S
H865 C876 0.950 . S
H866 C878 0.950 . S
H867 C879 0.950 . S
C868 H860 0.950 . S
C868 C869 1.386 . S
C868 C870 1.391 . S
C869 C868 1.386 . S
C869 C873 1.393 . S
C870 H862 0.950 . S
C870 C868 1.391 . S
C870 C871 1.400 . S
C871 C870 1.400 . S
C871 C872 1.398 . S
C871 C877 1.491 . S
C872 H863 0.950 . S
C872 C871 1.398 . S
C872 C873 1.391 . S
C873 H861 0.950 . S
C873 C869 1.393 . S
C873 C872 1.391 . S
C874 H864 0.950 . S
C874 C875 1.386 . S
C874 C876 1.391 . S
C875 C874 1.386 . S
C875 C879 1.393 . S
C876 H865 0.950 . S
C876 C874 1.391 . S
C876 C877 1.400 . S
C877 C871 1.491 . S
C877 C876 1.400 . S
C877 C878 1.398 . S
C878 H866 0.950 . S
C878 C877 1.398 . S
C878 C879 1.391 . S
C879 H867 0.950 . S
C879 C875 1.393 . S
C879 C878 1.391 . S
H880 C888 0.950 1_545 S
H881 C893 0.950 . S
H882 C890 0.950 1_545 S
H883 C892 0.950 . S
H884 C894 0.950 . S
H885 C896 0.950 . S
H886 C898 0.971 . S
H887 C899 0.942 1_556 S
C888 H880 0.950 1_565 S
C888 C889 1.386 . S
C888 C890 1.391 . S
C889 C888 1.386 . S
C889 C893 1.393 . S
C890 H882 0.950 1_565 S
C890 C888 1.391 . S
C890 C891 1.400 . S
C891 C890 1.400 . S
C891 C892 1.398 . S
C891 C897 1.491 . S
C892 H883 0.950 . S
C892 C891 1.398 . S
C892 C893 1.391 . S
C893 H881 0.950 . S
C893 C889 1.393 . S
C893 C892 1.391 . S
C894 H884 0.950 . S
C894 C895 1.386 . S
C894 C896 1.391 1_556 S
C895 C894 1.386 . S
C895 C899 1.381 1_566 S
C896 H885 0.950 . S
C896 C894 1.391 1_554 S
C896 C897 1.400 . S
C897 C891 1.491 . S
C897 C896 1.400 . S
C897 C898 1.374 1_565 S
C898 H886 0.971 . S
C898 C897 1.374 1_545 S
C898 C899 1.414 . S
C899 H887 0.942 1_554 S
C899 C895 1.381 1_544 S
C899 C898 1.414 . S
H900 C908 0.950 . S
H901 C913 0.950 . S
H902 C910 0.950 . S
H903 C912 0.950 . S
H904 C914 0.950 . S
H905 C916 0.950 . S
H906 C918 0.950 . S
H907 C919 0.950 . S
C908 H900 0.950 . S
C908 C909 1.386 . S
C908 C910 1.391 . S
C909 C908 1.386 . S
C909 C913 1.393 . S
C910 H902 0.950 . S
C910 C908 1.391 . S
C910 C911 1.400 . S
C911 C910 1.400 . S
C911 C912 1.398 . S
C911 C917 1.491 . S
C912 H903 0.950 . S
C912 C911 1.398 . S
C912 C913 1.391 . S
C913 H901 0.950 . S
C913 C909 1.393 . S
C913 C912 1.391 . S
C914 H904 0.950 . S
C914 C915 1.386 . S
C914 C916 1.391 . S
C915 C914 1.386 . S
C915 C919 1.393 . S
C916 H905 0.950 . S
C916 C914 1.391 . S
C916 C917 1.400 . S
C917 C911 1.491 . S
C917 C916 1.400 . S
C917 C918 1.398 . S
C918 H906 0.950 . S
C918 C917 1.398 . S
C918 C919 1.391 . S
C919 H907 0.950 . S
C919 C915 1.393 . S
C919 C918 1.391 . S
H920 C928 0.950 . S
H921 C933 0.950 1_565 S
H922 C930 0.950 . S
H923 C932 0.937 1_565 S
H924 C934 0.950 . S
H925 C936 0.950 . S
H926 C938 0.950 . S
H927 C939 0.950 . S
C928 H920 0.950 . S
C928 C929 1.386 . S
C928 C930 1.391 . S
C929 C928 1.386 . S
C929 C933 1.393 . S
C930 H922 0.950 . S
C930 C928 1.391 . S
C930 C931 1.400 . S
C931 C930 1.400 . S
C931 C932 1.398 . S
C931 C937 1.491 . S
C932 H923 0.937 1_545 S
C932 C931 1.398 . S
C932 C933 1.391 . S
C933 H921 0.950 1_545 S
C933 C929 1.393 . S
C933 C932 1.391 . S
C934 H924 0.950 . S
C934 C935 1.386 . S
C934 C936 1.391 . S
C935 C934 1.386 . S
C935 C939 1.393 . S
C936 H925 0.950 . S
C936 C934 1.391 . S
C936 C937 1.400 . S
C937 C931 1.491 . S
C937 C936 1.400 . S
C937 C938 1.398 . S
C938 H926 0.950 . S
C938 C937 1.398 . S
C938 C939 1.391 . S
C939 H927 0.950 . S
C939 C935 1.393 . S
C939 C938 1.391 . S
H940 C948 0.950 . S
H941 C953 0.950 . S
H942 C950 0.950 . S
H943 C952 0.950 . S
H944 C954 0.950 . S
H945 C956 0.950 . S
H946 C958 0.950 . S
H947 C959 0.950 . S
C948 H940 0.950 . S
C948 C949 1.386 . S
C948 C950 1.391 . S
C949 C948 1.386 . S
C949 C953 1.393 . S
C950 H942 0.950 . S
C950 C948 1.391 . S
C950 C951 1.400 . S
C951 C950 1.400 . S
C951 C952 1.398 . S
C951 C957 1.491 . S
C952 H943 0.950 . S
C952 C951 1.398 . S
C952 C953 1.391 . S
C953 H941 0.950 . S
C953 C949 1.393 . S
C953 C952 1.391 . S
C954 H944 0.950 . S
C954 C955 1.386 . S
C954 C956 1.391 . S
C955 C954 1.386 . S
C955 C959 1.393 . S
C956 H945 0.950 . S
C956 C954 1.391 . S
C956 C957 1.400 . S
C957 C951 1.491 . S
C957 C956 1.400 . S
C957 C958 1.398 . S
C958 H946 0.950 . S
C958 C957 1.398 . S
C958 C959 1.391 . S
C959 H947 0.950 . S
C959 C955 1.393 . S
C959 C958 1.391 . S
H960 C968 0.950 . S
H961 C973 0.950 . S
H962 C970 0.950 . S
H963 C972 0.950 . S
H964 C974 0.950 . S
H965 C976 0.950 . S
H966 C978 0.950 . S
H967 C979 0.950 . S
C968 H960 0.950 . S
C968 C969 1.386 . S
C968 C970 1.391 . S
C969 C968 1.386 . S
C969 C973 1.393 . S
C970 H962 0.950 . S
C970 C968 1.391 . S
C970 C971 1.400 . S
C971 C970 1.400 . S
C971 C972 1.398 . S
C971 C977 1.491 . S
C972 H963 0.950 . S
C972 C971 1.398 . S
C972 C973 1.391 . S
C973 H961 0.950 . S
C973 C969 1.393 . S
C973 C972 1.391 . S
C974 H964 0.950 . S
C974 C975 1.386 . S
C974 C976 1.391 . S
C975 C974 1.386 . S
C975 C979 1.393 . S
C976 H965 0.950 . S
C976 C974 1.391 . S
C976 C977 1.400 . S
C977 C971 1.491 . S
C977 C976 1.400 . S
C977 C978 1.398 . S
C978 H966 0.950 . S
C978 C977 1.398 . S
C978 C979 1.391 . S
C979 H967 0.950 . S
C979 C975 1.393 . S
C979 C978 1.391 . S
H980 C988 0.950 . S
H981 C993 0.950 . S
H982 C990 0.950 . S
H983 C992 0.950 . S
H984 C994 0.950 . S
H985 C996 0.950 . S
H986 C998 0.950 . S
H987 C999 0.950 . S
C988 H980 0.950 . S
C988 C989 1.386 . S
C988 C990 1.391 . S
C989 C988 1.386 . S
C989 C993 1.393 . S
C990 H982 0.950 . S
C990 C988 1.391 . S
C990 C991 1.400 . S
C991 C990 1.400 . S
C991 C992 1.398 . S
C991 C997 1.491 . S
C992 H983 0.950 . S
C992 C991 1.398 . S
C992 C993 1.391 . S
C993 H981 0.950 . S
C993 C989 1.393 . S
C993 C992 1.391 . S
C994 H984 0.950 . S
C994 C995 1.386 . S
C994 C996 1.391 . S
C995 C994 1.386 . S
C995 C999 1.393 . S
C996 H985 0.950 . S
C996 C994 1.391 . S
C996 C997 1.400 . S
C997 C991 1.491 . S
C997 C996 1.400 . S
C997 C998 1.398 . S
C998 H986 0.950 . S
C998 C997 1.398 . S
C998 C999 1.391 . S
C999 H987 0.950 . S
C999 C995 1.393 . S
C999 C998 1.391 . S
H1000 C1008 0.936 1_554 S
H1001 C1013 0.950 . S
H1002 C1010 0.950 . S
H1003 C1012 0.950 . S
H1004 C1014 0.950 . S
H1005 C1016 0.950 . S
H1006 C1018 0.950 . S
H1007 C1019 0.950 . S
C1008 H1000 0.936 1_556 S
C1008 C1009 1.360 1_556 S
C1008 C1010 1.432 . S
C1009 C1008 1.360 1_554 S
C1009 C1013 1.393 . S
C1010 H1002 0.950 . S
C1010 C1008 1.432 . S
C1010 C1011 1.400 . S
C1011 C1010 1.400 . S
C1011 C1012 1.398 . S
C1011 C1017 1.491 . S
C1012 H1003 0.950 . S
C1012 C1011 1.398 . S
C1012 C1013 1.391 1_556 S
C1013 H1001 0.950 . S
C1013 C1009 1.393 . S
C1013 C1012 1.391 1_554 S
C1014 H1004 0.950 . S
C1014 C1015 1.386 . S
C1014 C1016 1.391 . S
C1015 C1014 1.386 . S
C1015 C1019 1.393 . S
C1016 H1005 0.950 . S
C1016 C1014 1.391 . S
C1016 C1017 1.400 . S
C1017 C1011 1.491 . S
C1017 C1016 1.400 . S
C1017 C1018 1.398 . S
C1018 H1006 0.950 . S
C1018 C1017 1.398 . S
C1018 C1019 1.391 . S
C1019 H1007 0.950 . S
C1019 C1015 1.393 . S
C1019 C1018 1.391 . S
H1020 C1028 0.950 . S
H1021 C1033 0.950 . S
H1022 C1030 0.950 . S
H1023 C1032 0.950 1_565 S
H1024 C1034 0.923 1_565 S
H1025 C1036 0.950 1_565 S
H1026 C1038 0.950 . S
H1027 C1039 0.950 . S
C1028 H1020 0.950 . S
C1028 C1029 1.386 . S
C1028 C1030 1.391 . S
C1029 C1028 1.386 . S
C1029 C1033 1.393 . S
C1030 H1022 0.950 . S
C1030 C1028 1.391 . S
C1030 C1031 1.400 . S
C1031 C1030 1.400 . S
C1031 C1032 1.398 . S
C1031 C1037 1.491 . S
C1032 H1023 0.950 1_545 S
C1032 C1031 1.398 . S
C1032 C1033 1.391 . S
C1033 H1021 0.950 . S
C1033 C1029 1.393 . S
C1033 C1032 1.391 . S
C1034 H1024 0.923 1_545 S
C1034 C1035 1.407 . S
C1034 C1036 1.396 . S
C1035 C1034 1.407 . S
C1035 C1039 1.393 . S
C1036 H1025 0.950 1_545 S
C1036 C1034 1.396 . S
C1036 C1037 1.400 . S
C1037 C1031 1.491 . S
C1037 C1036 1.400 . S
C1037 C1038 1.398 . S
C1038 H1026 0.950 . S
C1038 C1037 1.398 . S
C1038 C1039 1.391 . S
C1039 H1027 0.950 . S
C1039 C1035 1.393 . S
C1039 C1038 1.391 . S
H1040 C1048 0.950 . S
H1041 C1053 0.950 . S
H1042 C1050 0.950 . S
H1043 C1052 0.950 . S
H1044 C1054 0.950 . S
H1045 C1056 0.950 . S
H1046 C1058 0.950 . S
H1047 C1059 0.950 . S
C1048 H1040 0.950 . S
C1048 C1049 1.386 . S
C1048 C1050 1.391 . S
C1049 C1048 1.386 . S
C1049 C1053 1.393 . S
C1050 H1042 0.950 . S
C1050 C1048 1.391 . S
C1050 C1051 1.400 . S
C1051 C1050 1.400 . S
C1051 C1052 1.398 . S
C1051 C1057 1.491 . S
C1052 H1043 0.950 . S
C1052 C1051 1.398 . S
C1052 C1053 1.391 . S
C1053 H1041 0.950 . S
C1053 C1049 1.393 . S
C1053 C1052 1.391 . S
C1054 H1044 0.950 . S
C1054 C1055 1.386 . S
C1054 C1056 1.391 . S
C1055 C1054 1.386 . S
C1055 C1059 1.393 . S
C1056 H1045 0.950 . S
C1056 C1054 1.391 . S
C1056 C1057 1.400 . S
C1057 C1051 1.491 . S
C1057 C1056 1.400 . S
C1057 C1058 1.398 . S
C1058 H1046 0.950 . S
C1058 C1057 1.398 . S
C1058 C1059 1.391 . S
C1059 H1047 0.950 . S
C1059 C1055 1.393 . S
C1059 C1058 1.391 . S
H1060 C1068 0.950 1_565 S
H1061 C1073 0.950 . S
H1062 C1070 0.950 1_565 S
H1063 C1072 0.950 . S
H1064 C1074 0.950 . S
H1065 C1076 0.950 . S
H1066 C1078 0.950 . S
H1067 C1079 0.950 . S
C1068 H1060 0.950 1_545 S
C1068 C1069 1.386 . S
C1068 C1070 1.391 . S
C1069 C1068 1.386 . S
C1069 C1073 1.393 . S
C1070 H1062 0.950 1_545 S
C1070 C1068 1.391 . S
C1070 C1071 1.400 . S
C1071 C1070 1.400 . S
C1071 C1072 1.398 . S
C1071 C1077 1.491 . S
C1072 H1063 0.950 . S
C1072 C1071 1.398 . S
C1072 C1073 1.391 . S
C1073 H1061 0.950 . S
C1073 C1069 1.393 . S
C1073 C1072 1.391 . S
C1074 H1064 0.950 . S
C1074 C1075 1.386 . S
C1074 C1076 1.391 . S
C1075 C1074 1.386 . S
C1075 C1079 1.393 . S
C1076 H1065 0.950 . S
C1076 C1074 1.391 . S
C1076 C1077 1.400 . S
C1077 C1071 1.491 . S
C1077 C1076 1.400 . S
C1077 C1078 1.398 . S
C1078 H1066 0.950 . S
C1078 C1077 1.398 . S
C1078 C1079 1.391 . S
C1079 H1067 0.950 . S
C1079 C1075 1.393 . S
C1079 C1078 1.391 . S
H1080 C1088 0.950 . S
H1081 C1093 0.950 . S
H1082 C1090 0.950 . S
H1083 C1092 0.950 . S
H1084 C1094 0.945 1_556 S
H1085 C1096 0.950 . S
H1086 C1098 0.950 . S
H1087 C1099 0.950 . S
C1088 H1080 0.950 . S
C1088 C1089 1.386 . S
C1088 C1090 1.391 . S
C1089 C1088 1.386 . S
C1089 C1093 1.393 . S
C1090 H1082 0.950 . S
C1090 C1088 1.391 . S
C1090 C1091 1.400 . S
C1091 C1090 1.400 . S
C1091 C1092 1.398 . S
C1091 C1097 1.491 . S
C1092 H1083 0.950 . S
C1092 C1091 1.398 . S
C1092 C1093 1.391 . S
C1093 H1081 0.950 . S
C1093 C1089 1.393 . S
C1093 C1092 1.391 . S
C1094 H1084 0.945 1_554 S
C1094 C1095 1.378 1_554 S
C1094 C1096 1.404 . S
C1095 C1094 1.378 1_556 S
C1095 C1099 1.393 . S
C1096 H1085 0.950 . S
C1096 C1094 1.404 . S
C1096 C1097 1.400 . S
C1097 C1091 1.491 . S
C1097 C1096 1.400 . S
C1097 C1098 1.398 . S
C1098 H1086 0.950 . S
C1098 C1097 1.398 . S
C1098 C1099 1.391 1_554 S
C1099 H1087 0.950 . S
C1099 C1095 1.393 . S
C1099 C1098 1.391 1_556 S
H1100 C1108 0.950 . S
H1101 C1113 0.950 . S
H1102 C1110 0.950 . S
H1103 C1112 0.950 . S
H1104 C1114 0.950 . S
H1105 C1116 0.950 . S
H1106 C1118 0.950 . S
H1107 C1119 0.950 . S
C1108 H1100 0.950 . S
C1108 C1109 1.386 . S
C1108 C1110 1.391 . S
C1109 C1108 1.386 . S
C1109 C1113 1.393 . S
C1110 H1102 0.950 . S
C1110 C1108 1.391 . S
C1110 C1111 1.400 . S
C1111 C1110 1.400 . S
C1111 C1112 1.398 . S
C1111 C1117 1.491 . S
C1112 H1103 0.950 . S
C1112 C1111 1.398 . S
C1112 C1113 1.391 . S
C1113 H1101 0.950 . S
C1113 C1109 1.393 . S
C1113 C1112 1.391 . S
C1114 H1104 0.950 . S
C1114 C1115 1.386 . S
C1114 C1116 1.391 . S
C1115 C1114 1.386 . S
C1115 C1119 1.393 . S
C1116 H1105 0.950 . S
C1116 C1114 1.391 . S
C1116 C1117 1.400 . S
C1117 C1111 1.491 . S
C1117 C1116 1.400 . S
C1117 C1118 1.398 . S
C1118 H1106 0.950 . S
C1118 C1117 1.398 . S
C1118 C1119 1.391 . S
C1119 H1107 0.950 . S
C1119 C1115 1.393 . S
C1119 C1118 1.391 . S
H1120 C1128 0.950 . S
H1121 C1133 0.950 . S
H1122 C1130 0.950 . S
H1123 C1132 0.950 . S
H1124 C1134 0.950 . S
H1125 C1136 0.950 . S
H1126 C1138 0.950 . S
H1127 C1139 0.950 . S
C1128 H1120 0.950 . S
C1128 C1129 1.386 . S
C1128 C1130 1.391 . S
C1129 C1128 1.386 . S
C1129 C1133 1.393 . S
C1130 H1122 0.950 . S
C1130 C1128 1.391 . S
C1130 C1131 1.400 . S
C1131 C1130 1.400 . S
C1131 C1132 1.398 . S
C1131 C1137 1.491 . S
C1132 H1123 0.950 . S
C1132 C1131 1.398 . S
C1132 C1133 1.391 . S
C1133 H1121 0.950 . S
C1133 C1129 1.393 . S
C1133 C1132 1.391 . S
C1134 H1124 0.950 . S
C1134 C1135 1.386 . S
C1134 C1136 1.391 . S
C1135 C1134 1.386 . S
C1135 C1139 1.393 . S
C1136 H1125 0.950 . S
C1136 C1134 1.391 . S
C1136 C1137 1.400 . S
C1137 C1131 1.491 . S
C1137 C1136 1.400 . S
C1137 C1138 1.398 . S
C1138 H1126 0.950 . S
C1138 C1137 1.398 . S
C1138 C1139 1.391 . S
C1139 H1127 0.950 . S
C1139 C1135 1.393 . S
C1139 C1138 1.391 . S
H1140 C1148 0.950 . S
H1141 C1153 0.950 . S
H1142 C1150 0.950 . S
H1143 C1152 0.950 . S
H1144 C1154 0.950 . S
H1145 C1156 0.950 . S
H1146 C1158 0.950 . S
H1147 C1159 0.950 . S
C1148 H1140 0.950 . S
C1148 C1149 1.386 . S
C1148 C1150 1.391 . S
C1149 C1148 1.386 . S
C1149 C1153 1.393 . S
C1150 H1142 0.950 . S
C1150 C1148 1.391 . S
C1150 C1151 1.400 . S
C1151 C1150 1.400 . S
C1151 C1152 1.398 . S
C1151 C1157 1.491 . S
C1152 H1143 0.950 . S
C1152 C1151 1.398 . S
C1152 C1153 1.391 . S
C1153 H1141 0.950 . S
C1153 C1149 1.393 . S
C1153 C1152 1.391 . S
C1154 H1144 0.950 . S
C1154 C1155 1.386 . S
C1154 C1156 1.391 . S
C1155 C1154 1.386 . S
C1155 C1159 1.393 . S
C1156 H1145 0.950 . S
C1156 C1154 1.391 . S
C1156 C1157 1.400 . S
C1157 C1151 1.491 . S
C1157 C1156 1.400 . S
C1157 C1158 1.398 . S
C1158 H1146 0.950 . S
C1158 C1157 1.398 . S
C1158 C1159 1.391 . S
C1159 H1147 0.950 . S
C1159 C1155 1.393 . S
C1159 C1158 1.391 . S
H1160 C1168 0.950 . S
H1161 C1173 0.950 . S
H1162 C1170 0.950 . S
H1163 C1172 0.950 . S
H1164 C1174 0.950 . S
H1165 C1176 0.950 . S
H1166 C1178 0.950 . S
H1167 C1179 0.950 . S
C1168 H1160 0.950 . S
C1168 C1169 1.386 . S
C1168 C1170 1.391 . S
C1169 C1168 1.386 . S
C1169 C1173 1.393 . S
C1170 H1162 0.950 . S
C1170 C1168 1.391 . S
C1170 C1171 1.400 . S
C1171 C1170 1.400 . S
C1171 C1172 1.398 . S
C1171 C1177 1.491 1_655 S
C1172 H1163 0.950 . S
C1172 C1171 1.398 . S
C1172 C1173 1.391 . S
C1173 H1161 0.950 . S
C1173 C1169 1.393 . S
C1173 C1172 1.391 . S
C1174 H1164 0.950 . S
C1174 C1175 1.386 . S
C1174 C1176 1.391 . S
C1175 C1174 1.386 . S
C1175 C1179 1.393 . S
C1176 H1165 0.950 . S
C1176 C1174 1.391 . S
C1176 C1177 1.400 . S
C1177 C1171 1.491 1_455 S
C1177 C1176 1.400 . S
C1177 C1178 1.398 . S
C1178 H1166 0.950 . S
C1178 C1177 1.398 . S
C1178 C1179 1.391 . S
C1179 H1167 0.950 . S
C1179 C1175 1.393 . S
C1179 C1178 1.391 . S
H1180 C1188 0.950 . S
H1181 C1193 0.950 1_455 S
H1182 C1190 0.950 . S
H1183 C1192 0.950 . S
H1184 C1194 0.950 . S
H1185 C1196 0.950 . S
H1186 C1198 0.950 . S
H1187 C1199 0.950 1_655 S
C1188 H1180 0.950 . S
C1188 C1189 1.386 . S
C1188 C1190 1.391 . S
C1189 C1188 1.386 . S
C1189 C1193 1.393 . S
C1190 H1182 0.950 . S
C1190 C1188 1.391 . S
C1190 C1191 1.400 . S
C1191 C1190 1.400 . S
C1191 C1192 1.398 1_655 S
C1191 C1197 1.491 1_655 S
C1192 H1183 0.950 . S
C1192 C1191 1.398 1_455 S
C1192 C1193 1.391 1_455 S
C1193 H1181 0.950 1_655 S
C1193 C1189 1.393 . S
C1193 C1192 1.391 1_655 S
C1194 H1184 0.950 . S
C1194 C1195 1.386 . S
C1194 C1196 1.391 . S
C1195 C1194 1.386 . S
C1195 C1199 1.393 . S
C1196 H1185 0.950 . S
C1196 C1194 1.391 . S
C1196 C1197 1.400 . S
C1197 C1191 1.491 1_455 S
C1197 C1196 1.400 . S
C1197 C1198 1.398 1_455 S
C1198 H1186 0.950 . S
C1198 C1197 1.398 1_655 S
C1198 C1199 1.391 1_655 S
C1199 H1187 0.950 1_455 S
C1199 C1195 1.393 . S
C1199 C1198 1.391 1_455 S
H1200 C1208 0.950 . S
H1201 C1213 0.950 . S
H1202 C1210 0.950 . S
H1203 C1212 0.950 . S
H1204 C1214 0.950 . S
H1205 C1216 0.950 . S
H1206 C1218 0.950 . S
H1207 C1219 0.950 . S
C1208 H1200 0.950 . S
C1208 C1209 1.386 . S
C1208 C1210 1.391 . S
C1209 C1208 1.386 . S
C1209 C1213 1.393 . S
C1210 H1202 0.950 . S
C1210 C1208 1.391 . S
C1210 C1211 1.400 . S
C1211 C1210 1.400 . S
C1211 C1212 1.398 . S
C1211 C1217 1.491 . S
C1212 H1203 0.950 . S
C1212 C1211 1.398 . S
C1212 C1213 1.391 . S
C1213 H1201 0.950 . S
C1213 C1209 1.393 . S
C1213 C1212 1.391 . S
C1214 H1204 0.950 . S
C1214 C1215 1.386 . S
C1214 C1216 1.391 . S
C1215 C1214 1.386 . S
C1215 C1219 1.393 . S
C1216 H1205 0.950 . S
C1216 C1214 1.391 . S
C1216 C1217 1.400 . S
C1217 C1211 1.491 . S
C1217 C1216 1.400 . S
C1217 C1218 1.398 . S
C1218 H1206 0.950 . S
C1218 C1217 1.398 . S
C1218 C1219 1.391 . S
C1219 H1207 0.950 . S
C1219 C1215 1.393 . S
C1219 C1218 1.391 . S
H1220 C1228 0.950 . S
H1221 C1233 0.950 . S
H1222 C1230 0.950 . S
H1223 C1232 0.950 . S
H1224 C1234 0.950 . S
H1225 C1236 0.950 . S
H1226 C1238 0.950 . S
H1227 C1239 0.950 . S
C1228 H1220 0.950 . S
C1228 C1229 1.386 . S
C1228 C1230 1.391 . S
C1229 C1228 1.386 . S
C1229 C1233 1.393 . S
C1230 H1222 0.950 . S
C1230 C1228 1.391 . S
C1230 C1231 1.400 . S
C1231 C1230 1.400 . S
C1231 C1232 1.398 . S
C1231 C1237 1.491 . S
C1232 H1223 0.950 . S
C1232 C1231 1.398 . S
C1232 C1233 1.391 . S
C1233 H1221 0.950 . S
C1233 C1229 1.393 . S
C1233 C1232 1.391 . S
C1234 H1224 0.950 . S
C1234 C1235 1.386 . S
C1234 C1236 1.391 . S
C1235 C1234 1.386 . S
C1235 C1239 1.393 . S
C1236 H1225 0.950 . S
C1236 C1234 1.391 . S
C1236 C1237 1.400 . S
C1237 C1231 1.491 . S
C1237 C1236 1.400 . S
C1237 C1238 1.398 . S
C1238 H1226 0.950 . S
C1238 C1237 1.398 . S
C1238 C1239 1.391 . S
C1239 H1227 0.950 . S
C1239 C1235 1.393 . S
C1239 C1238 1.391 . S
H1240 C1248 0.950 . S
H1241 C1253 0.950 . S
H1242 C1250 0.950 . S
H1243 C1252 0.950 . S
H1244 C1254 0.950 . S
H1245 C1256 0.950 . S
H1246 C1258 0.950 . S
H1247 C1259 0.950 . S
C1248 H1240 0.950 . S
C1248 C1249 1.386 . S
C1248 C1250 1.391 . S
C1249 C1248 1.386 . S
C1249 C1253 1.393 . S
C1250 H1242 0.950 . S
C1250 C1248 1.391 . S
C1250 C1251 1.400 . S
C1251 C1250 1.400 . S
C1251 C1252 1.398 . S
C1251 C1257 1.491 1_455 S
C1252 H1243 0.950 . S
C1252 C1251 1.398 . S
C1252 C1253 1.391 . S
C1253 H1241 0.950 . S
C1253 C1249 1.393 . S
C1253 C1252 1.391 . S
C1254 H1244 0.950 . S
C1254 C1255 1.386 . S
C1254 C1256 1.391 . S
C1255 C1254 1.386 . S
C1255 C1259 1.393 . S
C1256 H1245 0.950 . S
C1256 C1254 1.391 . S
C1256 C1257 1.400 . S
C1257 C1251 1.491 1_655 S
C1257 C1256 1.400 . S
C1257 C1258 1.398 . S
C1258 H1246 0.950 . S
C1258 C1257 1.398 . S
C1258 C1259 1.391 . S
C1259 H1247 0.950 . S
C1259 C1255 1.393 . S
C1259 C1258 1.391 . S
H1260 C1268 0.950 . S
H1261 C1273 0.950 1_655 S
H1262 C1270 0.950 . S
H1263 C1272 0.950 . S
H1264 C1274 0.950 . S
H1265 C1276 0.950 . S
H1266 C1278 0.950 . S
H1267 C1279 0.950 1_455 S
C1268 H1260 0.950 . S
C1268 C1269 1.386 . S
C1268 C1270 1.391 . S
C1269 C1268 1.386 . S
C1269 C1273 1.393 . S
C1270 H1262 0.950 . S
C1270 C1268 1.391 . S
C1270 C1271 1.400 . S
C1271 C1270 1.400 . S
C1271 C1272 1.398 1_455 S
C1271 C1277 1.491 1_455 S
C1272 H1263 0.950 . S
C1272 C1271 1.398 1_655 S
C1272 C1273 1.391 1_655 S
C1273 H1261 0.950 1_455 S
C1273 C1269 1.393 . S
C1273 C1272 1.391 1_455 S
C1274 H1264 0.950 . S
C1274 C1275 1.386 . S
C1274 C1276 1.391 . S
C1275 C1274 1.386 . S
C1275 C1279 1.393 . S
C1276 H1265 0.950 . S
C1276 C1274 1.391 . S
C1276 C1277 1.400 . S
C1277 C1271 1.491 1_655 S
C1277 C1276 1.400 . S
C1277 C1278 1.398 1_655 S
C1278 H1266 0.950 . S
C1278 C1277 1.398 1_455 S
C1278 C1279 1.391 1_455 S
C1279 H1267 0.950 1_655 S
C1279 C1275 1.393 . S
C1279 C1278 1.391 1_655 S
H1280 C1288 0.950 . S
H1281 C1293 0.950 . S
H1282 C1290 0.950 . S
H1283 C1292 0.950 . S
H1284 C1294 0.950 . S
H1285 C1296 0.950 . S
H1286 C1298 0.950 . S
H1287 C1299 0.950 . S
C1288 H1280 0.950 . S
C1288 C1289 1.386 . S
C1288 C1290 1.391 . S
C1289 C1288 1.386 . S
C1289 C1293 1.393 . S
C1290 H1282 0.950 . S
C1290 C1288 1.391 . S
C1290 C1291 1.400 . S
C1291 C1290 1.400 . S
C1291 C1292 1.398 . S
C1291 C1297 1.491 . S
C1292 H1283 0.950 . S
C1292 C1291 1.398 . S
C1292 C1293 1.391 . S
C1293 H1281 0.950 . S
C1293 C1289 1.393 . S
C1293 C1292 1.391 . S
C1294 H1284 0.950 . S
C1294 C1295 1.386 . S
C1294 C1296 1.391 . S
C1295 C1294 1.386 . S
C1295 C1299 1.393 . S
C1296 H1285 0.950 . S
C1296 C1294 1.391 . S
C1296 C1297 1.400 . S
C1297 C1291 1.491 . S
C1297 C1296 1.400 . S
C1297 C1298 1.398 . S
C1298 H1286 0.950 . S
C1298 C1297 1.398 . S
C1298 C1299 1.391 . S
C1299 H1287 0.950 . S
C1299 C1295 1.393 . S
C1299 C1298 1.391 . S
H1300 C1308 0.950 . S
H1301 C1313 0.950 . S
H1302 C1310 0.950 . S
H1303 C1312 0.950 . S
H1304 C1314 0.950 . S
H1305 C1316 0.950 . S
H1306 C1318 0.950 . S
H1307 C1319 0.950 . S
C1308 H1300 0.950 . S
C1308 C1309 1.386 . S
C1308 C1310 1.391 . S
C1309 C1308 1.386 . S
C1309 C1313 1.393 . S
C1310 H1302 0.950 . S
C1310 C1308 1.391 . S
C1310 C1311 1.400 . S
C1311 C1310 1.400 . S
C1311 C1312 1.398 . S
C1311 C1317 1.491 . S
C1312 H1303 0.950 . S
C1312 C1311 1.398 . S
C1312 C1313 1.391 . S
C1313 H1301 0.950 . S
C1313 C1309 1.393 . S
C1313 C1312 1.391 . S
C1314 H1304 0.950 . S
C1314 C1315 1.386 . S
C1314 C1316 1.391 . S
C1315 C1314 1.386 . S
C1315 C1319 1.393 . S
C1316 H1305 0.950 . S
C1316 C1314 1.391 . S
C1316 C1317 1.400 . S
C1317 C1311 1.491 . S
C1317 C1316 1.400 . S
C1317 C1318 1.398 . S
C1318 H1306 0.950 . S
C1318 C1317 1.398 . S
C1318 C1319 1.391 . S
C1319 H1307 0.950 . S
C1319 C1315 1.393 . S
C1319 C1318 1.391 . S
H1320 C1328 0.950 . S
H1321 C1333 0.950 . S
H1322 C1330 0.950 . S
H1323 C1332 0.950 . S
H1324 C1334 0.950 . S
H1325 C1336 0.950 . S
H1326 C1338 0.950 . S
H1327 C1339 0.950 . S
C1328 H1320 0.950 . S
C1328 C1329 1.386 . S
C1328 C1330 1.391 . S
C1329 C1328 1.386 . S
C1329 C1333 1.393 . S
C1330 H1322 0.950 . S
C1330 C1328 1.391 . S
C1330 C1331 1.400 . S
C1331 C1330 1.400 . S
C1331 C1332 1.398 . S
C1331 C1337 1.491 . S
C1332 H1323 0.950 . S
C1332 C1331 1.398 . S
C1332 C1333 1.391 . S
C1333 H1321 0.950 . S
C1333 C1329 1.393 . S
C1333 C1332 1.391 . S
C1334 H1324 0.950 . S
C1334 C1335 1.386 . S
C1334 C1336 1.391 . S
C1335 C1334 1.386 . S
C1335 C1339 1.393 . S
C1336 H1325 0.950 . S
C1336 C1334 1.391 . S
C1336 C1337 1.400 . S
C1337 C1331 1.491 . S
C1337 C1336 1.400 . S
C1337 C1338 1.398 . S
C1338 H1326 0.950 . S
C1338 C1337 1.398 . S
C1338 C1339 1.391 . S
C1339 H1327 0.950 . S
C1339 C1335 1.393 . S
C1339 C1338 1.391 . S
H1340 C1348 0.950 . S
H1341 C1353 0.950 . S
H1342 C1350 0.950 . S
H1343 C1352 0.950 . S
H1344 C1354 0.950 . S
H1345 C1356 0.950 . S
H1346 C1358 0.950 . S
H1347 C1359 0.950 . S
C1348 H1340 0.950 . S
C1348 C1349 1.386 . S
C1348 C1350 1.391 1_655 S
C1349 C1348 1.386 . S
C1349 C1353 1.393 1_655 S
C1350 H1342 0.950 . S
C1350 C1348 1.391 1_455 S
C1350 C1351 1.400 . S
C1351 C1350 1.400 . S
C1351 C1352 1.398 . S
C1351 C1357 1.491 . S
C1352 H1343 0.950 . S
C1352 C1351 1.398 . S
C1352 C1353 1.391 . S
C1353 H1341 0.950 . S
C1353 C1349 1.393 1_455 S
C1353 C1352 1.391 . S
C1354 H1344 0.950 . S
C1354 C1355 1.386 . S
C1354 C1356 1.391 . S
C1355 C1354 1.386 . S
C1355 C1359 1.393 . S
C1356 H1345 0.950 . S
C1356 C1354 1.391 . S
C1356 C1357 1.400 . S
C1357 C1351 1.491 . S
C1357 C1356 1.400 . S
C1357 C1358 1.398 . S
C1358 H1346 0.950 . S
C1358 C1357 1.398 . S
C1358 C1359 1.391 . S
C1359 H1347 0.950 . S
C1359 C1355 1.393 . S
C1359 C1358 1.391 . S
H1360 C1368 0.950 . S
H1361 C1373 0.950 . S
H1362 C1370 0.950 . S
H1363 C1372 0.950 . S
H1364 C1374 0.950 . S
H1365 C1376 0.950 . S
H1366 C1378 0.950 . S
H1367 C1379 0.950 . S
C1368 H1360 0.950 . S
C1368 C1369 1.386 . S
C1368 C1370 1.391 . S
C1369 C1368 1.386 . S
C1369 C1373 1.393 . S
C1370 H1362 0.950 . S
C1370 C1368 1.391 . S
C1370 C1371 1.400 . S
C1371 C1370 1.400 . S
C1371 C1372 1.398 . S
C1371 C1377 1.491 . S
C1372 H1363 0.950 . S
C1372 C1371 1.398 . S
C1372 C1373 1.391 . S
C1373 H1361 0.950 . S
C1373 C1369 1.393 . S
C1373 C1372 1.391 . S
C1374 H1364 0.950 . S
C1374 C1375 1.386 . S
C1374 C1376 1.391 . S
C1375 C1374 1.386 . S
C1375 C1379 1.393 . S
C1376 H1365 0.950 . S
C1376 C1374 1.391 . S
C1376 C1377 1.400 . S
C1377 C1371 1.491 . S
C1377 C1376 1.400 . S
C1377 C1378 1.398 . S
C1378 H1366 0.950 . S
C1378 C1377 1.398 . S
C1378 C1379 1.391 . S
C1379 H1367 0.950 . S
C1379 C1375 1.393 . S
C1379 C1378 1.391 . S
H1380 C1388 0.950 . S
H1381 C1393 0.950 . S
H1382 C1390 0.950 . S
H1383 C1392 0.950 . S
H1384 C1394 0.950 . S
H1385 C1396 0.950 . S
H1386 C1398 0.950 . S
H1387 C1399 0.950 . S
C1388 H1380 0.950 . S
C1388 C1389 1.386 . S
C1388 C1390 1.391 . S
C1389 C1388 1.386 . S
C1389 C1393 1.393 . S
C1390 H1382 0.950 . S
C1390 C1388 1.391 . S
C1390 C1391 1.400 . S
C1391 C1390 1.400 . S
C1391 C1392 1.398 . S
C1391 C1397 1.491 . S
C1392 H1383 0.950 . S
C1392 C1391 1.398 . S
C1392 C1393 1.391 . S
C1393 H1381 0.950 . S
C1393 C1389 1.393 . S
C1393 C1392 1.391 . S
C1394 H1384 0.950 . S
C1394 C1395 1.386 . S
C1394 C1396 1.391 . S
C1395 C1394 1.386 . S
C1395 C1399 1.393 . S
C1396 H1385 0.950 . S
C1396 C1394 1.391 . S
C1396 C1397 1.400 . S
C1397 C1391 1.491 . S
C1397 C1396 1.400 . S
C1397 C1398 1.398 . S
C1398 H1386 0.950 . S
C1398 C1397 1.398 . S
C1398 C1399 1.391 . S
C1399 H1387 0.950 . S
C1399 C1395 1.393 . S
C1399 C1398 1.391 . S
H1400 C1408 0.950 . S
H1401 C1413 0.950 . S
H1402 C1410 0.950 . S
H1403 C1412 0.950 . S
H1404 C1414 0.950 . S
H1405 C1416 0.950 . S
H1406 C1418 0.950 . S
H1407 C1419 0.950 . S
C1408 H1400 0.950 . S
C1408 C1409 1.386 . S
C1408 C1410 1.391 . S
C1409 C1408 1.386 . S
C1409 C1413 1.393 . S
C1410 H1402 0.950 . S
C1410 C1408 1.391 . S
C1410 C1411 1.400 . S
C1411 C1410 1.400 . S
C1411 C1412 1.398 . S
C1411 C1417 1.491 . S
C1412 H1403 0.950 . S
C1412 C1411 1.398 . S
C1412 C1413 1.391 . S
C1413 H1401 0.950 . S
C1413 C1409 1.393 . S
C1413 C1412 1.391 . S
C1414 H1404 0.950 . S
C1414 C1415 1.386 . S
C1414 C1416 1.391 . S
C1415 C1414 1.386 . S
C1415 C1419 1.393 . S
C1416 H1405 0.950 . S
C1416 C1414 1.391 . S
C1416 C1417 1.400 . S
C1417 C1411 1.491 . S
C1417 C1416 1.400 . S
C1417 C1418 1.398 . S
C1418 H1406 0.950 . S
C1418 C1417 1.398 . S
C1418 C1419 1.391 . S
C1419 H1407 0.950 . S
C1419 C1415 1.393 . S
C1419 C1418 1.391 . S
H1420 C1428 0.950 . S
H1421 C1433 0.950 . S
H1422 C1430 0.950 . S
H1423 C1432 0.950 . S
H1424 C1434 0.950 . S
H1425 C1436 0.950 . S
H1426 C1438 0.950 . S
H1427 C1439 0.949 . S
C1428 H1420 0.950 . S
C1428 C1429 1.386 . S
C1428 C1430 1.391 . S
C1429 C1428 1.386 . S
C1429 C1433 1.393 . S
C1430 H1422 0.950 . S
C1430 C1428 1.391 . S
C1430 C1431 1.400 . S
C1431 C1430 1.400 . S
C1431 C1432 1.398 . S
C1431 C1437 1.491 . S
C1432 H1423 0.950 . S
C1432 C1431 1.398 . S
C1432 C1433 1.391 . S
C1433 H1421 0.950 . S
C1433 C1429 1.393 . S
C1433 C1432 1.391 . S
C1434 H1424 0.950 . S
C1434 C1435 1.386 1_655 S
C1434 C1436 1.391 . S
C1435 C1434 1.386 1_455 S
C1435 C1439 1.393 . S
C1436 H1425 0.950 . S
C1436 C1434 1.391 . S
C1436 C1437 1.400 . S
C1437 C1431 1.491 . S
C1437 C1436 1.400 . S
C1437 C1438 1.398 . S
C1438 H1426 0.950 . S
C1438 C1437 1.398 . S
C1438 C1439 1.391 1_655 S
C1439 H1427 0.949 . S
C1439 C1435 1.393 . S
C1439 C1438 1.391 1_455 S
H1440 C1448 0.950 . S
H1441 C1453 0.950 . S
H1442 C1450 0.950 . S
H1443 C1452 0.950 . S
H1444 C1454 0.950 . S
H1445 C1456 0.950 . S
H1446 C1458 0.950 . S
H1447 C1459 0.950 . S
C1448 H1440 0.950 . S
C1448 C1449 1.386 . S
C1448 C1450 1.391 . S
C1449 C1448 1.386 . S
C1449 C1453 1.393 . S
C1450 H1442 0.950 . S
C1450 C1448 1.391 . S
C1450 C1451 1.400 . S
C1451 C1450 1.400 . S
C1451 C1452 1.398 . S
C1451 C1457 1.491 . S
C1452 H1443 0.950 . S
C1452 C1451 1.398 . S
C1452 C1453 1.391 . S
C1453 H1441 0.950 . S
C1453 C1449 1.393 . S
C1453 C1452 1.391 . S
C1454 H1444 0.950 . S
C1454 C1455 1.386 . S
C1454 C1456 1.391 . S
C1455 C1454 1.386 . S
C1455 C1459 1.393 . S
C1456 H1445 0.950 . S
C1456 C1454 1.391 . S
C1456 C1457 1.400 . S
C1457 C1451 1.491 . S
C1457 C1456 1.400 . S
C1457 C1458 1.398 . S
C1458 H1446 0.950 . S
C1458 C1457 1.398 . S
C1458 C1459 1.391 . S
C1459 H1447 0.950 . S
C1459 C1455 1.393 . S
C1459 C1458 1.391 . S
H1460 C1468 0.950 . S
H1461 C1473 0.950 . S
H1462 C1470 0.950 . S
H1463 C1472 0.950 . S
H1464 C1474 0.946 1_545 S
H1465 C1476 0.950 . S
H1466 C1478 0.950 . S
H1467 C1479 0.950 . S
C1468 H1460 0.950 . S
C1468 C1469 1.386 . S
C1468 C1470 1.391 . S
C1469 C1468 1.386 . S
C1469 C1473 1.393 . S
C1470 H1462 0.950 . S
C1470 C1468 1.391 . S
C1470 C1471 1.400 . S
C1471 C1470 1.400 . S
C1471 C1472 1.398 . S
C1471 C1477 1.491 . S
C1472 H1463 0.950 . S
C1472 C1471 1.398 . S
C1472 C1473 1.391 . S
C1473 H1461 0.950 . S
C1473 C1469 1.393 . S
C1473 C1472 1.391 . S
C1474 H1464 0.946 1_565 S
C1474 C1475 1.387 1_655 S
C1474 C1476 1.393 . S
C1475 C1474 1.387 1_455 S
C1475 C1479 1.393 . S
C1476 H1465 0.950 . S
C1476 C1474 1.393 . S
C1476 C1477 1.400 . S
C1477 C1471 1.491 . S
C1477 C1476 1.400 . S
C1477 C1478 1.398 . S
C1478 H1466 0.950 . S
C1478 C1477 1.398 . S
C1478 C1479 1.391 1_655 S
C1479 H1467 0.950 . S
C1479 C1475 1.393 . S
C1479 C1478 1.391 1_455 S
H1480 C1488 0.950 . S
H1481 C1493 0.950 . S
H1482 C1490 0.950 . S
H1483 C1492 0.950 . S
H1484 C1494 0.950 . S
H1485 C1496 0.950 . S
H1486 C1498 0.950 . S
H1487 C1499 0.950 . S
C1488 H1480 0.950 . S
C1488 C1489 1.386 . S
C1488 C1490 1.391 . S
C1489 C1488 1.386 . S
C1489 C1493 1.393 . S
C1490 H1482 0.950 . S
C1490 C1488 1.391 . S
C1490 C1491 1.400 . S
C1491 C1490 1.400 . S
C1491 C1492 1.398 . S
C1491 C1497 1.491 . S
C1492 H1483 0.950 . S
C1492 C1491 1.398 . S
C1492 C1493 1.391 . S
C1493 H1481 0.950 . S
C1493 C1489 1.393 . S
C1493 C1492 1.391 . S
C1494 H1484 0.950 . S
C1494 C1495 1.386 . S
C1494 C1496 1.391 . S
C1495 C1494 1.386 . S
C1495 C1499 1.393 . S
C1496 H1485 0.950 . S
C1496 C1494 1.391 . S
C1496 C1497 1.400 . S
C1497 C1491 1.491 . S
C1497 C1496 1.400 . S
C1497 C1498 1.398 . S
C1498 H1486 0.950 . S
C1498 C1497 1.398 . S
C1498 C1499 1.391 . S
C1499 H1487 0.950 . S
C1499 C1495 1.393 . S
C1499 C1498 1.391 . S
H1500 C1508 0.950 . S
H1501 C1513 0.950 . S
H1502 C1510 0.933 1_565 S
H1503 C1512 0.950 . S
H1504 C1514 0.950 . S
H1505 C1516 0.950 . S
H1506 C1518 0.950 . S
H1507 C1519 0.950 . S
C1508 H1500 0.950 . S
C1508 C1509 1.386 1_565 S
C1508 C1510 1.383 1_565 S
C1509 C1508 1.386 1_545 S
C1509 C1513 1.393 . S
C1510 H1502 0.933 1_545 S
C1510 C1508 1.383 1_545 S
C1510 C1511 1.426 . S
C1511 C1510 1.426 . S
C1511 C1512 1.398 . S
C1511 C1517 1.491 . S
C1512 H1503 0.950 . S
C1512 C1511 1.398 . S
C1512 C1513 1.391 . S
C1513 H1501 0.950 . S
C1513 C1509 1.393 . S
C1513 C1512 1.391 . S
C1514 H1504 0.950 . S
C1514 C1515 1.386 . S
C1514 C1516 1.391 . S
C1515 C1514 1.386 . S
C1515 C1519 1.393 . S
C1516 H1505 0.950 . S
C1516 C1514 1.391 . S
C1516 C1517 1.400 . S
C1517 C1511 1.491 . S
C1517 C1516 1.400 . S
C1517 C1518 1.398 . S
C1518 H1506 0.950 . S
C1518 C1517 1.398 . S
C1518 C1519 1.391 . S
C1519 H1507 0.950 . S
C1519 C1515 1.393 . S
C1519 C1518 1.391 . S
H1520 C1528 0.950 . S
H1521 C1533 0.950 . S
H1522 C1530 0.950 . S
H1523 C1532 0.950 . S
H1524 C1534 0.950 . S
H1525 C1536 0.950 . S
H1526 C1538 0.950 . S
H1527 C1539 0.950 . S
C1528 H1520 0.950 . S
C1528 C1529 1.386 . S
C1528 C1530 1.391 . S
C1529 C1528 1.386 . S
C1529 C1533 1.393 . S
C1530 H1522 0.950 . S
C1530 C1528 1.391 . S
C1530 C1531 1.400 . S
C1531 C1530 1.400 . S
C1531 C1532 1.398 . S
C1531 C1537 1.491 . S
C1532 H1523 0.950 . S
C1532 C1531 1.398 . S
C1532 C1533 1.391 . S
C1533 H1521 0.950 . S
C1533 C1529 1.393 . S
C1533 C1532 1.391 . S
C1534 H1524 0.950 . S
C1534 C1535 1.386 . S
C1534 C1536 1.391 . S
C1535 C1534 1.386 . S
C1535 C1539 1.393 . S
C1536 H1525 0.950 . S
C1536 C1534 1.391 . S
C1536 C1537 1.400 . S
C1537 C1531 1.491 . S
C1537 C1536 1.400 . S
C1537 C1538 1.398 . S
C1538 H1526 0.950 . S
C1538 C1537 1.398 . S
C1538 C1539 1.391 . S
C1539 H1527 0.950 . S
C1539 C1535 1.393 . S
C1539 C1538 1.391 . S
H1540 C1548 0.950 . S
H1541 C1553 0.950 . S
H1542 C1550 0.950 . S
H1543 C1552 0.950 . S
H1544 C1554 0.950 . S
H1545 C1556 0.950 . S
H1546 C1558 0.950 . S
H1547 C1559 0.950 . S
C1548 H1540 0.950 . S
C1548 C1549 1.386 1_465 S
C1548 C1550 1.391 1_565 S
C1549 C1548 1.386 1_645 S
C1549 C1553 1.393 . S
C1550 H1542 0.950 . S
C1550 C1548 1.391 1_545 S
C1550 C1551 1.400 . S
C1551 C1550 1.400 . S
C1551 C1552 1.398 . S
C1551 C1557 1.491 . S
C1552 H1543 0.950 . S
C1552 C1551 1.398 . S
C1552 C1553 1.391 1_455 S
C1553 H1541 0.950 . S
C1553 C1549 1.393 . S
C1553 C1552 1.391 1_655 S
C1554 H1544 0.950 . S
C1554 C1555 1.386 . S
C1554 C1556 1.391 . S
C1555 C1554 1.386 . S
C1555 C1559 1.393 . S
C1556 H1545 0.950 . S
C1556 C1554 1.391 . S
C1556 C1557 1.400 . S
C1557 C1551 1.491 . S
C1557 C1556 1.400 . S
C1557 C1558 1.398 . S
C1558 H1546 0.950 . S
C1558 C1557 1.398 . S
C1558 C1559 1.391 . S
C1559 H1547 0.950 . S
C1559 C1555 1.393 . S
C1559 C1558 1.391 . S
H1560 C1568 0.950 . S
H1561 C1573 0.950 . S
H1562 C1570 0.950 . S
H1563 C1572 0.950 . S
H1564 C1574 0.950 . S
H1565 C1576 0.950 . S
H1566 C1578 0.950 . S
H1567 C1579 0.950 . S
C1568 H1560 0.950 . S
C1568 C1569 1.386 . S
C1568 C1570 1.391 . S
C1569 C1568 1.386 . S
C1569 C1573 1.393 . S
C1570 H1562 0.950 . S
C1570 C1568 1.391 . S
C1570 C1571 1.400 . S
C1571 C1570 1.400 . S
C1571 C1572 1.398 . S
C1571 C1577 1.491 . S
C1572 H1563 0.950 . S
C1572 C1571 1.398 . S
C1572 C1573 1.391 . S
C1573 H1561 0.950 . S
C1573 C1569 1.393 . S
C1573 C1572 1.391 . S
C1574 H1564 0.950 . S
C1574 C1575 1.386 . S
C1574 C1576 1.391 . S
C1575 C1574 1.386 . S
C1575 C1579 1.393 . S
C1576 H1565 0.950 . S
C1576 C1574 1.391 . S
C1576 C1577 1.400 . S
C1577 C1571 1.491 . S
C1577 C1576 1.400 . S
C1577 C1578 1.398 . S
C1578 H1566 0.950 . S
C1578 C1577 1.398 . S
C1578 C1579 1.391 . S
C1579 H1567 0.950 . S
C1579 C1575 1.393 . S
C1579 C1578 1.391 . S
H1580 C1588 0.950 . S
H1581 C1593 0.950 . S
H1582 C1590 0.950 . S
H1583 C1592 0.950 . S
H1584 C1594 0.950 . S
H1585 C1596 0.950 . S
H1586 C1598 0.950 1_545 S
H1587 C1599 0.950 . S
C1588 H1580 0.950 . S
C1588 C1589 1.386 . S
C1588 C1590 1.391 . S
C1589 C1588 1.386 . S
C1589 C1593 1.393 . S
C1590 H1582 0.950 . S
C1590 C1588 1.391 . S
C1590 C1591 1.400 . S
C1591 C1590 1.400 . S
C1591 C1592 1.398 . S
C1591 C1597 1.491 . S
C1592 H1583 0.950 . S
C1592 C1591 1.398 . S
C1592 C1593 1.391 . S
C1593 H1581 0.950 . S
C1593 C1589 1.393 . S
C1593 C1592 1.391 . S
C1594 H1584 0.950 . S
C1594 C1595 1.386 . S
C1594 C1596 1.391 . S
C1595 C1594 1.386 . S
C1595 C1599 1.393 1_565 S
C1596 H1585 0.950 . S
C1596 C1594 1.391 . S
C1596 C1597 1.400 . S
C1597 C1591 1.491 . S
C1597 C1596 1.400 . S
C1597 C1598 1.398 . S
C1598 H1586 0.950 1_565 S
C1598 C1597 1.398 . S
C1598 C1599 1.391 1_565 S
C1599 H1587 0.950 . S
C1599 C1595 1.393 1_545 S
C1599 C1598 1.391 1_545 S
C649 C8 0.863 . S
C655 C509 0.863 . S
C669 C229 0.867 . S
C675 C48 0.867 . S
C689 C88 0.803 . S
C695 C589 0.803 . S
C709 C128 0.889 1_455 S
C715 C309 0.889 1_655 S
C729 C189 0.813 . S
C735 C328 0.813 . S
C749 C408 0.861 . S
C755 C269 0.861 . S
C769 C549 0.811 1_455 S
C775 C368 0.811 1_655 S
C789 C448 0.837 . S
C795 C629 0.837 . S
C809 C362 2.173 . S
C815 C29 2.133 . S
C829 C69 2.124 . S
C835 C402 2.170 . S
C849 C109 2.119 . S
C855 C442 2.166 . S
C869 C322 2.173 . S
C875 C149 2.129 . S
C889 C537 2.159 . S
C895 C168 2.121 . S
C909 C577 2.172 . S
C915 C208 2.128 . S
C929 C248 2.134 . S
C935 C617 2.172 . S
C949 C497 2.160 . S
C955 C288 2.122 . S
C969 C349 2.114 . S
C975 C42 2.162 . S
C989 C389 2.131 . S
C995 C82 2.173 . S
C1009 C429 2.128 . S
C1015 C122 2.172 . S
C1029 C2 2.160 . S
C1035 C469 2.113 . S
C1049 C217 2.158 . S
C1055 C488 2.112 . S
C1069 C528 2.112 . S
C1075 C257 2.158 . S
C1089 C297 2.169 . S
C1095 C568 2.132 . S
C1109 C608 2.129 . S
C1115 C177 2.173 . S
C1129 C31 3.128 . S
C1135 C431 3.133 . S
C1149 C71 3.129 . S
C1155 C471 3.133 . S
C1169 C351 3.132 . S
C1175 C111 3.128 . S
C1189 C151 3.128 . S
C1195 C391 3.133 . S
C1209 C172 3.128 . S
C1215 C572 3.131 . S
C1229 C212 3.128 . S
C1235 C612 3.133 . S
C1249 C492 3.133 . S
C1255 C252 3.128 . S
C1269 C292 3.133 . S
C1275 C532 3.128 . S
C1289 C17 1.852 . S
C1295 C311 2.086 . S
C1309 C511 2.074 . S
C1315 C57 1.826 . S
C1329 C97 1.816 . S
C1335 C231 2.074 . S
C1349 C137 1.825 . S
C1355 C591 2.074 . S
C1369 C162 1.821 . S
C1375 C132 2.078 . S
C1389 C332 2.076 . S
C1395 C202 1.818 . S
C1409 C242 1.842 . S
C1415 C52 2.080 . S
C1429 C412 2.083 . S
C1435 C282 1.831 . S
C1449 C337 1.846 . S
C1455 C631 2.087 . S
C1469 C191 2.073 . S
C1475 C377 1.822 1_565 S
C1489 C551 2.079 . S
C1495 C417 1.840 . S
C1509 C457 1.851 1_545 S
C1515 C271 2.087 . S
C1529 C482 1.818 . S
C1535 C452 2.076 . S
C1549 C522 1.821 1_545 S
C1555 C12 2.073 . S
C1569 C372 2.085 . S
C1575 C562 1.850 . S
C1589 C92 2.076 . S
C1595 C602 1.817 1_565 S
