# Generated by pormake.
# Topology snp, (6)-cn, num edge types: 1
# Building blocks:
#     Node 0, Type 0, BuildingBlock: BETDAH_clean_sbu_0, # of connection points: 6
#     Node 1, Type 0, BuildingBlock: BETDAH_clean_sbu_0, # of connection points: 6
#     Node 2, Type 0, BuildingBlock: BETDAH_clean_sbu_0, # of connection points: 6
#     Node 3, Type 0, BuildingBlock: BETDAH_clean_sbu_0, # of connection points: 6
#     Edge 4, Type (0, 0), BuildingBlock: TEMPAE_clean_linker_10, # of connection points: 2
#     Edge 5, Type (0, 0), BuildingBlock: TEMPAE_clean_linker_10, # of connection points: 2
#     Edge 6, Type (0, 0), BuildingBlock: TEMPAE_clean_linker_10, # of connection points: 2
#     Edge 7, Type (0, 0), BuildingBlock: TEMPAE_clean_linker_10, # of connection points: 2
#     Edge 8, Type (0, 0), BuildingBlock: TEMPAE_clean_linker_10, # of connection points: 2
#     Edge 9, Type (0, 0), BuildingBlock: TEMPAE_clean_linker_10, # of connection points: 2
#     Edge 10, Type (0, 0), BuildingBlock: TEMPAE_clean_linker_10, # of connection points: 2
#     Edge 11, Type (0, 0), BuildingBlock: TEMPAE_clean_linker_10, # of connection points: 2
#     Edge 12, Type (0, 0), BuildingBlock: TEMPAE_clean_linker_10, # of connection points: 2
#     Edge 13, Type (0, 0), BuildingBlock: TEMPAE_clean_linker_10, # of connection points: 2
#     Edge 14, Type (0, 0), BuildingBlock: TEMPAE_clean_linker_10, # of connection points: 2
#     Edge 15, Type (0, 0), BuildingBlock: TEMPAE_clean_linker_10, # of connection points: 2
# Relax obj value: 0.709
# Max RMSD: 0.173
# Mean RMSD: 0.173
data_MOF--net-snp--node1-BETDAH_clean_sbu_0--edge1-TEMPAE_clean_linker_10
_symmetry_space_group_name_H-M    P1
_symmetry_Int_Tables_number       1
_symmetry_cell_setting            triclinic
loop_
_symmetry_equiv_pos_as_xyz
'x, y, z'
_cell_length_a     25.690225
_cell_length_b     25.492908
_cell_length_c     29.621202
_cell_angle_alpha  89.729314
_cell_angle_beta   89.585164
_cell_angle_gamma 88.824339
loop_
_atom_site_label
_atom_site_type_symbol
_atom_site_fract_x
_atom_site_fract_y
_atom_site_fract_z
_atom_type_partial_charge
Ho0 Ho 0.23239 0.0027 0.16976 0.0
Ho1 Ho 0.24752 0.11092 1.14061 0.0
C2 C 0.21908 0.09739 0.24913 0.0
C3 C 0.25754 0.91113 0.20072 0.0
C4 C 0.30551 0.89591 0.22418 0.0
C5 C 0.325 0.84427 0.22233 0.0
C6 C 0.37209 0.83091 0.24337 0.0
C7 C 0.40007 0.86906 0.26686 0.0
C8 C 0.38225 0.92168 0.26481 0.0
C9 C 0.33545 0.93483 0.2439 0.0
C10 C 0.14432 0.05634 1.14873 0.0
C11 C 0.21713 0.0183 1.06207 0.0
C12 C 0.24829 0.20432 1.10632 0.0
C13 C 0.26374 0.25841 1.11704 0.0
C14 C 0.3109 0.2772 1.09998 0.0
C15 C 0.31908 0.33099 1.097 0.0
C16 C 0.27955 0.36727 1.10993 0.0
C17 C 0.23669 0.34808 1.13447 0.0
C18 C 0.22829 0.29407 1.13719 0.0
C19 C 0.33856 0.06299 0.16757 0.0
O20 O 0.22615 0.04578 0.24035 0.0
O21 O 0.22354 0.13104 0.21451 0.0
O22 O 0.22548 0.94324 0.22204 0.0
O23 O 0.26575 0.92551 0.15913 0.0
O24 O 0.15042 0.0066 1.13984 0.0
O25 O 0.18275 0.07137 0.16976 0.0
O26 O 0.22552 0.06905 1.07198 0.0
O27 O 0.21977 0.98349 1.09541 0.0
O28 O 0.20816 0.18526 1.12763 0.0
O29 O 0.28549 0.1694 1.09983 0.0
O30 O 0.32397 0.1106 0.17725 0.0
O31 O 0.30312 0.04262 1.14402 0.0
H32 H 0.30345 0.8142 0.2053 0.0
H33 H 0.38516 0.79027 0.24321 0.0
H34 H 0.40213 0.95254 0.28226 0.0
H35 H 0.32212 0.97544 0.24384 0.0
H36 H 0.3395 0.25071 1.08487 0.0
H37 H 0.35346 0.34331 1.07887 0.0
H38 H 0.20657 0.37465 1.14701 0.0
H39 H 0.192 0.28075 1.15164 0.0
Ho40 Ho 0.08813 0.24483 0.6837 0.0
Ho41 Ho 0.98321 0.25707 0.64949 0.0
C42 C 0.99064 0.21652 0.75405 0.0
C43 C 0.17652 0.26689 0.7196 0.0
C44 C 0.19633 0.30214 0.75401 0.0
C45 C 0.16498 0.34276 0.77204 0.0
C46 C 0.18444 0.37503 0.80576 0.0
C47 C 0.23531 0.36679 0.82184 0.0
C48 C 0.26716 0.32756 0.80211 0.0
C49 C 0.24776 0.29548 0.76845 0.0
C50 C 0.05189 0.15383 0.6531 0.0
C51 C 0.07929 0.23322 0.57283 0.0
C52 C 0.89064 0.2663 0.61534 0.0
C53 C 0.84414 0.23605 0.60601 0.0
C54 C 0.83927 0.1837 0.62018 0.0
C55 C 0.79536 0.15543 0.60802 0.0
C56 C 0.75529 0.17996 0.58316 0.0
C57 C 0.75909 0.23327 0.5717 0.0
C58 C 0.80332 0.26094 0.5828 0.0
C59 C 0.0228 0.34857 0.68282 0.0
O60 O 0.03905 0.23534 0.75056 0.0
O61 O 0.96323 0.21343 0.716 0.0
O62 O 0.14756 0.22847 0.73374 0.0
O63 O 0.15797 0.29003 0.68361 0.0
O64 O 0.10104 0.16452 0.656 0.0
O65 O 0.02591 0.18871 0.67354 0.0
O66 O 0.0281 0.24082 0.58089 0.0
O67 O 0.11157 0.23598 0.60794 0.0
O68 O 0.93232 0.25643 0.59113 0.0
O69 O 0.90106 0.27325 0.65772 0.0
O70 O 0.97718 0.33114 0.69066 0.0
O71 O 0.04615 0.31577 0.6576 0.0
H72 H 0.12524 0.34866 0.76077 0.0
H73 H 0.15894 0.40454 0.82085 0.0
H74 H 0.30652 0.32054 0.81391 0.0
H75 H 0.27259 0.26474 0.75434 0.0
H76 H 0.86999 0.16426 0.63912 0.0
H77 H 0.79336 0.11419 0.6167 0.0
H78 H 0.72919 0.25274 0.55172 0.0
H79 H 0.80619 0.30156 0.57226 0.0
Ho80 Ho 0.80214 0.06427 0.17399 0.0
Ho81 Ho 0.83694 0.96362 1.13792 0.0
C82 C 0.85044 0.9816 0.24787 0.0
C83 C 0.73345 0.13658 0.19106 0.0
C84 C 0.69248 0.13532 0.22566 0.0
C85 C 0.66161 0.17972 0.23554 0.0
C86 C 0.62996 0.18021 0.27425 0.0
C87 C 0.62931 0.13636 0.30344 0.0
C88 C 0.65635 0.09032 0.29057 0.0
C89 C 0.68803 0.09007 0.25231 0.0
C90 C 0.90501 0.06403 0.16596 0.0
C91 C 0.83984 0.05778 1.06223 0.0
C92 C 0.8738 0.87035 1.12083 0.0
C93 C 0.86622 0.82887 1.08768 0.0
C94 C 0.84798 0.84101 1.04439 0.0
C95 C 0.84171 0.80119 1.01298 0.0
C96 C 0.85327 0.74862 1.02445 0.0
C97 C 0.86993 0.73633 1.06829 0.0
C98 C 0.87658 0.77639 1.09971 0.0
C99 C 0.73099 0.97876 1.14276 0.0
O100 O 0.81868 0.02346 0.2429 0.0
O101 O 0.86712 0.95679 0.21096 0.0
O102 O 0.78085 0.13711 0.20701 0.0
O103 O 0.7284 0.10244 0.15863 0.0
O104 O 0.87976 0.08765 0.1986 0.0
O105 O 0.87348 0.04019 1.14131 0.0
O106 O 0.85004 0.00696 1.07018 0.0
O107 O 0.8197 0.08668 1.09678 0.0
O108 O 0.83445 0.87966 1.14784 0.0
O109 O 0.89514 0.91336 1.10612 0.0
O110 O 0.75554 0.9607 1.1075 0.0
O111 O 0.76405 0.98862 0.17264 0.0
H112 H 0.66443 0.21488 0.21506 0.0
H113 H 0.60933 0.21616 0.28329 0.0
H114 H 0.65745 0.05613 0.31244 0.0
H115 H 0.71209 0.05566 0.24533 0.0
H116 H 0.839 0.88124 1.03478 0.0
H117 H 0.82802 0.81149 0.97951 0.0
H118 H 0.87907 0.69613 1.0778 0.0
H119 H 0.89022 0.76649 1.13328 0.0
Ho120 Ho 0.97813 0.84494 0.67593 0.0
Ho121 Ho 0.08676 0.83735 0.64494 0.0
C122 C 0.0682 0.88121 0.74802 0.0
C123 C 0.88537 0.81468 0.69677 0.0
C124 C 0.86588 0.76302 0.70977 0.0
C125 C 0.90007 0.72486 0.72746 0.0
C126 C 0.88088 0.67837 0.74528 0.0
C127 C 0.82681 0.66938 0.74625 0.0
C128 C 0.7938 0.70473 0.72265 0.0
C129 C 0.81315 0.75159 0.70509 0.0
C130 C 0.01231 0.93895 0.64446 0.0
C131 C -0.00762 0.84586 0.56493 0.0
C132 C 0.18095 0.83707 0.61508 0.0
C133 C 0.22384 0.85143 0.58494 0.0
C134 C 0.23105 0.90346 0.57089 0.0
C135 C 0.27621 0.91685 0.54727 0.0
C136 C 0.31477 0.87844 0.53754 0.0
C137 C 0.30725 0.82653 0.55188 0.0
C138 C 0.26222 0.81323 0.57537 0.0
C139 C 0.05271 0.7476 0.68775 0.0
O140 O 0.02097 0.86046 0.74394 0.0
O141 O 0.09802 0.88329 0.71114 0.0
O142 O 0.91647 0.83661 0.72551 0.0
O143 O 0.90255 0.818 0.65553 0.0
O144 O 0.97736 0.93401 0.67624 0.0
O145 O 0.02553 0.89365 0.6333 0.0
O146 O 0.04401 0.84211 0.57386 0.0
O147 O 0.95926 0.84696 0.59986 0.0
O148 O 0.14774 0.80138 0.60313 0.0
O149 O 0.161 0.8737 0.64117 0.0
O150 O 0.09665 0.76958 0.69448 0.0
O151 O 0.02846 0.77588 0.65972 0.0
H152 H 0.94129 0.73239 0.73003 0.0
H153 H 0.90827 0.65246 0.76237 0.0
H154 H 0.75234 0.69834 0.72091 0.0
H155 H 0.78653 0.77992 0.68987 0.0
H156 H 0.20222 0.93377 0.57861 0.0
H157 H 0.28088 0.95712 0.53639 0.0
H158 H 0.33554 0.79581 0.54386 0.0
H159 H 0.25767 0.77306 0.58666 0.0
C160 C 0.96907 0.06831 1.10539 0.0
C161 C 0.94209 0.09458 1.13986 0.0
C162 C -0.00854 0.09661 1.07026 0.0
C163 C -0.00217 0.15161 1.07542 0.0
C164 C 0.95967 0.1776 1.10194 0.0
C165 C 0.9343 0.14936 1.13605 0.0
C166 C 0.00454 0.06802 1.02716 0.0
C167 C 0.94644 0.23467 1.0944 0.0
C168 C 0.11273 0.09759 1.07715 0.0
C169 C 0.112 0.09487 1.1245 0.0
C170 C 0.08982 0.14103 1.05521 0.0
C171 C 0.05276 0.17056 1.07974 0.0
C172 C 0.06765 0.17967 1.12499 0.0
C173 C 0.09357 0.13904 1.14828 0.0
C174 C 0.10015 0.15183 1.00625 0.0
C175 C 0.05494 0.23018 1.14891 0.0
H176 H 0.96757 0.02587 1.10317 0.0
H177 H 0.90632 0.16969 0.15764 0.0
H178 H 0.00611 0.09558 0.99842 0.0
H179 H 0.04188 0.04586 1.03021 0.0
H180 H 0.97474 0.03832 1.02003 0.0
H181 H 0.90666 0.23802 1.08014 0.0
H182 H 0.94559 0.25611 1.12694 0.0
H183 H 0.97392 0.2533 1.07036 0.0
H184 H 0.13073 0.0673 1.05729 0.0
H185 H 0.1009 0.14271 0.18415 0.0
H186 H 0.0757 0.18519 0.99387 0.0
H187 H 0.09398 0.11623 0.98579 0.0
H188 H 0.14167 0.16209 1.00195 0.0
H189 H 0.08842 0.24184 0.16989 0.0
H190 H 0.02146 0.22447 0.17218 0.0
H191 H 0.04579 0.26225 1.1246 0.0
C192 C 0.03296 0.96721 0.56587 0.0
C193 C 0.00229 0.97405 0.60554 0.0
C194 C 0.0172 0.99095 0.52509 0.0
C195 C 0.98077 0.03256 0.52793 0.0
C196 C 0.94037 0.02322 0.55971 0.0
C197 C 0.95343 -0.00082 0.60091 0.0
C198 C 0.04326 0.97781 0.48086 0.0
C199 C 0.88455 0.0375 0.55022 0.0
C200 C 0.07043 0.10249 0.58559 0.0
C201 C 0.03322 0.12778 0.6127 0.0
C202 C 0.0579 0.08798 0.54205 0.0
C203 C 0.00451 0.08642 0.52978 0.0
C204 C 0.97293 0.1258 0.54987 0.0
C205 C 0.9843 0.14082 0.59425 0.0
C206 C 0.1019 0.075 0.51041 0.0
C207 C 0.92787 0.15017 0.52476 0.0
H208 H 0.06687 0.94124 0.56596 0.0
H209 H 0.92419 -0.0037 0.62732 0.0
H210 H 0.0423 0.01129 0.45691 0.0
H211 H 0.08329 0.96144 0.48535 0.0
H212 H 0.02044 0.94817 0.46412 0.0
H213 H 0.87019 0.06675 0.57521 0.0
H214 H 0.87924 0.05252 0.5153 0.0
H215 H 0.86036 0.00224 0.5548 0.0
H216 H 0.1105 0.09819 0.59659 0.0
H217 H 0.95743 0.16583 0.6127 0.0
H218 H 0.08911 0.07824 0.475 0.0
H219 H 0.11849 0.03556 0.51815 0.0
H220 H 0.13421 0.10241 0.51565 0.0
H221 H 0.92216 0.13115 0.49155 0.0
H222 H 0.93557 0.19228 0.51875 0.0
H223 H 0.89172 0.14857 0.54513 0.0
C224 C 0.64813 0.98594 0.1898 0.0
C225 C 0.67286 0.98695 1.1473 0.0
C226 C 0.59369 0.99479 0.19468 0.0
C227 C 0.56246 0.00579 0.1562 0.0
C228 C 0.58732 0.00635 1.11314 0.0
C229 C 0.6417 -0.00363 1.1092 0.0
C230 C 0.56982 0.99297 0.24132 0.0
C231 C 0.55661 0.01893 1.07111 0.0
C232 C 0.41213 0.99473 0.15838 0.0
C233 C 0.39548 0.04674 0.16642 0.0
C234 C 0.46591 0.98048 0.1565 0.0
C235 C 0.50462 0.01931 0.161 0.0
C236 C 0.48781 0.07179 0.1693 0.0
C237 C 0.43403 0.08455 0.1725 0.0
C238 C 0.48133 0.92363 1.15 0.0
C239 C 0.52677 0.11496 0.17406 0.0
H240 H 0.67137 0.97759 0.21944 0.0
H241 H 0.66014 -0.0027 1.07619 0.0
H242 H 0.56092 0.03347 0.25296 0.0
H243 H 0.53267 0.97162 0.24088 0.0
H244 H 0.59633 0.97387 0.2662 0.0
H245 H 0.58118 0.01752 1.04011 0.0
H246 H 0.52455 0.99082 1.06745 0.0
H247 H 0.53858 0.05873 1.07399 0.0
H248 H 0.38309 0.96499 1.15393 0.0
H249 H 0.42215 0.12492 0.17873 0.0
H250 H 0.50791 0.91061 0.17742 0.0
H251 H 0.50282 0.91881 1.11762 0.0
H252 H 0.4471 0.89768 1.14987 0.0
H253 H 0.55261 0.10664 0.20316 0.0
H254 H 0.50772 0.15402 0.17909 0.0
H255 H 0.55185 0.11669 1.14344 0.0
C256 C 0.0054 0.43568 0.71943 0.0
C257 C 0.03369 0.4059 0.6874 0.0
C258 C 0.00921 0.49076 0.72177 0.0
C259 C 0.04179 0.51763 0.69096 0.0
C260 C 0.07156 0.48765 0.6592 0.0
C261 C 0.06747 0.43226 0.658 0.0
C262 C 0.97747 0.52033 0.75683 0.0
C263 C 0.10649 0.51432 0.62543 0.0
C264 C 0.00929 0.66306 0.66644 0.0
C265 C 0.04704 0.68919 0.69144 0.0
C266 C 0.00723 0.60765 0.66594 0.0
C267 C 0.04349 0.57699 0.69136 0.0
C268 C 0.0807 0.60331 0.71772 0.0
C269 C 0.08217 0.65875 0.71726 0.0
C270 C 0.9666 0.58184 0.63753 0.0
C271 C 0.1194 0.57282 0.74618 0.0
H272 H 0.97929 0.4158 0.74244 0.0
H273 H 0.08921 0.40986 0.63293 0.0
H274 H 0.00356 0.54295 0.77879 0.0
H275 H 0.95079 0.549 0.74012 0.0
H276 H 0.95401 0.49386 0.7784 0.0
H277 H 0.12823 0.48578 0.6038 0.0
H278 H 0.08281 0.54072 0.60345 0.0
H279 H 0.13486 0.53901 0.64316 0.0
H280 H 0.98194 0.68595 0.64633 0.0
H281 H 0.11146 0.67835 0.73678 0.0
H282 H 0.94129 0.55736 0.65919 0.0
H283 H 0.98579 0.55539 0.61254 0.0
H284 H 0.94169 0.61089 0.61921 0.0
H285 H 0.0986 0.54688 0.77014 0.0
H286 H 0.14499 0.59886 0.7657 0.0
H287 H 0.14416 0.54723 0.72432 0.0
C288 C 0.15474 0.21199 0.51391 0.0
C289 C 0.10069 0.21676 0.52438 0.0
C290 C 0.17495 0.19404 0.47067 0.0
C291 C 0.14156 0.17767 0.43493 0.0
C292 C 0.08695 0.18268 0.44523 0.0
C293 C 0.06781 0.20257 0.48818 0.0
C294 C 0.23303 0.19225 0.46341 0.0
C295 C 0.04789 0.16472 0.41122 0.0
C296 C 0.18635 0.17107 0.30538 0.0
C297 C 0.20129 0.1179 0.29722 0.0
C298 C 0.16804 0.1903 0.34872 0.0
C299 C 0.16324 0.15666 0.38745 0.0
C300 C 0.17975 0.10309 0.37952 0.0
C301 C 0.19726 0.08488 0.33565 0.0
C302 C 0.15441 0.24783 0.35311 0.0
C303 C 0.17882 0.06319 0.417 0.0
H304 H 0.18203 0.22231 0.53995 0.0
H305 H 0.02622 0.2054 0.49382 0.0
H306 H 0.24673 0.15089 0.46006 0.0
H307 H 0.24319 0.21284 0.43153 0.0
H308 H 0.25422 0.21047 0.49167 0.0
H309 H 0.00784 0.16365 0.42555 0.0
H310 H 0.04776 0.19159 0.38169 0.0
H311 H 0.05887 0.12492 0.39885 0.0
H312 H 0.18861 0.19839 0.27734 0.0
H313 H 0.20807 0.04384 0.33163 0.0
H314 H 0.17556 0.26476 0.38198 0.0
H315 H 0.11218 0.25293 0.36018 0.0
H316 H 0.16406 0.27033 0.32206 0.0
H317 H 0.18555 0.08126 0.45025 0.0
H318 H 0.20897 0.0319 0.41169 0.0
H319 H 0.1404 0.04411 0.4172 0.0
C320 C -0.00103 0.18566 0.83833 0.0
C321 C 0.96785 0.19541 0.79984 0.0
C322 C 0.97867 0.16464 0.88004 0.0
C323 C 0.92474 0.15263 0.88593 0.0
C324 C 0.89302 0.16295 0.84721 0.0
C325 C 0.91447 0.18325 0.80558 0.0
C326 C 0.01606 0.15399 0.91773 0.0
C327 C 0.83557 0.15248 0.84966 0.0
C328 C 0.87736 0.05181 0.9799 0.0
C329 C 0.85886 0.08302 1.0165 0.0
C330 C 0.89852 0.07333 0.93869 0.0
C331 C 0.902 0.12869 0.93138 0.0
C332 C 0.88327 0.16053 0.96815 0.0
C333 C 0.86257 0.1379 1.00927 0.0
C334 C 0.91824 0.03609 0.90281 0.0
C335 C 0.88571 0.21934 0.96437 0.0
H336 H 0.04014 0.19366 0.83573 0.0
H337 H 0.88877 0.18988 0.77719 0.0
H338 H -0.00021 0.16948 0.94989 0.0
H339 H 0.02196 0.11097 0.92138 0.0
H340 H 0.05456 0.17176 0.91134 0.0
H341 H 0.8151 0.16394 0.8181 0.0
H342 H 0.82945 0.11014 0.85611 0.0
H343 H 0.81766 0.1744 0.8783 0.0
H344 H 0.87617 0.00956 0.98365 0.0
H345 H 0.84988 0.16372 1.03631 0.0
H346 H 0.95998 0.04325 0.89575 0.0
H347 H 0.89682 0.04323 0.87091 0.0
H348 H 0.91388 0.99436 0.9128 0.0
H349 H 0.927 0.23122 0.96282 0.0
H350 H 0.86647 0.23944 0.9934 0.0
H351 H 0.86689 0.23297 0.93268 0.0
C352 C 0.92152 0.88578 0.51234 0.0
C353 C 0.97056 0.85982 0.51709 0.0
C354 C 0.9008 0.90284 0.4697 0.0
C355 C 0.92953 0.89617 0.42848 0.0
C356 C 0.97825 0.86768 0.43273 0.0
C357 C -0.00244 0.85003 0.47607 0.0
C358 C 0.84715 0.92799 0.46928 0.0
C359 C 0.013 0.8584 0.39223 0.0
C360 C 0.87418 0.90639 0.30393 0.0
C361 C 0.86867 0.96081 0.29494 0.0
C362 C 0.89189 0.88544 0.34642 0.0
C363 C 0.90858 0.91882 0.38212 0.0
C364 C 0.90398 0.9742 0.37272 0.0
C365 C 0.88336 0.99391 0.33064 0.0
C366 C 0.89202 0.82667 0.35232 0.0
C367 C 0.92197 0.01442 0.40605 0.0
H368 H 0.89885 0.89379 0.54261 0.0
H369 H 0.03512 0.83002 0.47773 0.0
H370 H 0.85055 0.97124 0.46918 0.0
H371 H 0.82534 0.91669 0.43872 0.0
H372 H 0.82415 0.91692 0.49964 0.0
H373 H 0.05448 0.86331 0.4014 0.0
H374 H 0.00886 0.8173 0.38088 0.0
H375 H 0.0038 0.88521 0.36367 0.0
H376 H 0.86342 0.87936 0.27761 0.0
H377 H 0.88062 0.03595 0.32522 0.0
H378 H 0.88922 0.81463 0.38828 0.0
H379 H 0.92851 0.80984 0.33769 0.0
H380 H 0.85913 0.80932 0.3338 0.0
H381 H 0.88809 0.03885 0.41735 0.0
H382 H 0.94961 0.04127 0.38918 0.0
H383 H 0.94126 -0.00285 0.43606 0.0
C384 C 0.14279 0.91282 0.80063 0.0
C385 C 0.08925 0.9023 0.79425 0.0
C386 C 0.16368 0.93183 0.84245 0.0
C387 C 0.13121 0.94275 0.88089 0.0
C388 C 0.07695 0.93296 0.87457 0.0
C389 C 0.05717 0.91283 0.83254 0.0
C390 C 0.22151 0.93974 0.84555 0.0
C391 C 0.0391 0.94432 0.91254 0.0
C392 C 0.18991 0.94601 1.00474 0.0
C393 C 0.19783 -0.00019 1.01434 0.0
C394 C 0.16938 0.92756 0.96261 0.0
C395 C 0.15405 0.96286 0.92718 0.0
C396 C 0.16171 0.01732 0.9366 0.0
C397 C 0.18369 0.03464 0.97872 0.0
C398 C 0.16407 0.86934 0.95607 0.0
C399 C 0.14562 0.05803 0.90212 0.0
H400 H 0.16924 0.90545 0.77262 0.0
H401 H 0.01587 0.90592 0.82962 0.0
H402 H 0.22928 0.98137 0.85329 0.0
H403 H 0.23777 0.91567 0.87362 0.0
H404 H 0.24234 0.92897 0.81383 0.0
H405 H 0.04958 0.92036 0.9426 0.0
H406 H 0.04141 0.98614 0.92248 0.0
H407 H -0.00166 0.93595 0.90316 0.0
H408 H 0.19988 0.91745 1.03062 0.0
H409 H 0.18881 0.07617 0.98405 0.0
H410 H 0.18545 0.85678 0.92514 0.0
H411 H 0.12253 0.8599 0.95122 0.0
H412 H 0.17919 0.84624 0.98522 0.0
H413 H 0.167 0.0511 0.86996 0.0
H414 H 0.15302 0.09859 0.91361 0.0
H415 H 0.1035 0.05462 0.89487 0.0
C416 C 0.82069 0.66247 0.99627 0.0
C417 C 0.84981 0.70779 0.98948 0.0
C418 C 0.81033 0.62885 0.96001 0.0
C419 C 0.82908 0.64164 0.9163 0.0
C420 C 0.86301 0.68463 0.91076 0.0
C421 C 0.87296 0.71684 0.94749 0.0
C422 C 0.77706 0.58178 0.96862 0.0
C423 C 0.88557 0.69992 0.86538 0.0
C424 C 0.83696 0.59377 0.80041 0.0
C425 C 0.80541 0.63418 0.78206 0.0
C426 C 0.8381 0.5859 0.84737 0.0
C427 C 0.80643 0.61853 0.87504 0.0
C428 C 0.76385 0.64595 0.85539 0.0
C429 C 0.76363 0.65342 0.80854 0.0
C430 C 0.87962 0.55049 0.86731 0.0
C431 C 0.7251 0.67657 0.88389 0.0
H432 H 0.80365 0.6548 1.02918 0.0
H433 H 0.89697 0.75099 0.94286 0.0
H434 H 0.73629 0.59505 0.97513 0.0
H435 H 0.77767 0.55381 0.94002 0.0
H436 H 0.79057 0.56082 0.99948 0.0
H437 H 0.91309 0.73282 0.86782 0.0
H438 H 0.90683 0.66615 0.85003 0.0
H439 H 0.85378 0.71236 0.84233 0.0
H440 H 0.86639 0.57464 0.7795 0.0
H441 H 0.73601 0.6817 0.79472 0.0
H442 H 0.86892 0.5378 0.90201 0.0
H443 H 0.91678 0.57185 0.86888 0.0
H444 H 0.88626 0.51538 0.84579 0.0
H445 H 0.71245 0.65278 0.91324 0.0
H446 H 0.6902 0.68875 0.86423 0.0
H447 H 0.74365 0.7124 0.89689 0.0
C448 C 0.47397 0.89004 0.31822 0.0
C449 C 0.43793 0.85358 0.30263 0.0
C450 C 0.48347 0.89429 0.36466 0.0
C451 C 0.4561 0.86148 0.39467 0.0
C452 C 0.4337 0.81535 0.37767 0.0
C453 C 0.42494 0.81177 0.33126 0.0
C454 C 0.51464 0.93943 0.38163 0.0
C455 C 0.40932 0.77539 0.40859 0.0
C456 C 0.40858 0.86747 0.51428 0.0
C457 C 0.35899 0.89005 0.50707 0.0
C458 C 0.44562 0.86515 0.4792 0.0
C459 C 0.43175 0.88434 0.43597 0.0
C460 C 0.38466 0.91409 0.43086 0.0
C461 C 0.34904 0.91663 0.46663 0.0
C462 C 0.49736 0.83819 0.48793 0.0
C463 C 0.36796 0.93728 0.38605 0.0
H464 H 0.48791 0.92021 0.2956 0.0
H465 H 0.40005 0.78103 0.3194 0.0
H466 H 0.49001 0.97569 0.38174 0.0
H467 H 0.52872 0.93199 0.41648 0.0
H468 H 0.54843 0.94651 0.35894 0.0
H469 H 0.39896 0.73918 0.39026 0.0
H470 H 0.43644 0.76445 0.43613 0.0
H471 H 0.37329 0.79235 0.42408 0.0
H472 H 0.41725 0.84866 0.54634 0.0
H473 H 0.31104 0.93474 0.46111 0.0
H474 H 0.5252 0.84253 0.4594 0.0
H475 H 0.4914 0.79586 0.49461 0.0
H476 H 0.5149 0.85468 0.5188 0.0
H477 H 0.39947 0.96072 0.37093 0.0
H478 H 0.33283 0.9632 0.3893 0.0
H479 H 0.35861 0.90521 0.36248 0.0
C480 C 0.24631 0.44691 0.87009 0.0
C481 C 0.25209 0.39261 0.86372 0.0
C482 C 0.25664 0.46954 0.91227 0.0
C483 C 0.27105 0.43666 0.94903 0.0
C484 C 0.27918 0.38199 0.94172 0.0
C485 C 0.2701 0.36103 0.89917 0.0
C486 C 0.2502 0.52816 0.9171 0.0
C487 C 0.2941 0.34439 0.97936 0.0
C488 C 0.31959 0.43996 1.06473 0.0
C489 C 0.27502 0.41817 1.08467 0.0
C490 C 0.31764 0.45863 1.02003 0.0
C491 C 0.27022 0.45584 0.9964 0.0
C492 C 0.22353 0.45016 1.02128 0.0
C493 C 0.22641 0.43173 1.06583 0.0
C494 C 0.36753 0.47149 0.99581 0.0
C495 C 0.17123 0.45278 0.9985 0.0
H496 H 0.23295 0.47153 0.84238 0.0
H497 H 0.27411 0.31899 0.89433 0.0
H498 H 0.26672 0.54307 0.94896 0.0
H499 H 0.26937 0.54816 0.88823 0.0
H500 H 0.20819 0.53906 0.91578 0.0
H501 H 0.29862 0.30323 0.96758 0.0
H502 H 0.33152 0.35586 0.99439 0.0
H503 H 0.26378 0.34532 1.00618 0.0
H504 H 0.35714 0.43436 1.0807 0.0
H505 H 0.19074 0.41936 1.08195 0.0
H506 H 0.36015 0.49945 0.9676 0.0
H507 H 0.38516 0.435 0.98156 0.0
H508 H 0.39598 0.48846 1.01943 0.0
H509 H 0.16875 0.48717 0.97553 0.0
H510 H 0.13878 0.45554 1.02343 0.0
H511 H 0.16618 0.41689 0.97802 0.0
C512 C 0.6343 0.18427 0.37547 0.0
C513 C 0.61402 0.14221 0.35153 0.0
C514 C 0.64029 0.18149 0.42226 0.0
C515 C 0.62409 0.136 0.44586 0.0
C516 C 0.59602 0.0973 0.42278 0.0
C517 C 0.59184 0.1005 0.37556 0.0
C518 C 0.67008 0.22437 0.4452 0.0
C519 C 0.57428 0.05018 0.44673 0.0
C520 C 0.73021 0.11284 0.52836 0.0
C521 C 0.71465 0.14935 0.56113 0.0
C522 C 0.69689 0.10079 0.49284 0.0
C523 C 0.6469 0.12536 0.49101 0.0
C524 C 0.62773 0.15332 0.52892 0.0
C525 C 0.66242 0.16631 0.5633 0.0
C526 C 0.71823 0.06849 0.45404 0.0
C527 C 0.57283 0.17528 0.53033 0.0
H528 H 0.65138 0.2167 0.35724 0.0
H529 H 0.57493 0.06836 0.35724 0.0
H530 H 0.64757 0.2402 0.4743 0.0
H531 H 0.70755 0.20821 0.45822 0.0
H532 H 0.67874 0.2575 0.42202 0.0
H533 H 0.53419 0.0431 0.43474 0.0
H534 H 0.59824 0.01484 0.43818 0.0
H535 H 0.57314 0.05482 0.48395 0.0
H536 H 0.77048 0.09919 0.52711 0.0
H537 H 0.65007 0.19364 0.58939 0.0
H538 H 0.72513 0.09436 0.42442 0.0
H539 H 0.68977 0.03869 0.44401 0.0
H540 H 0.75553 0.0481 0.46269 0.0
H541 H 0.57154 0.21451 0.51398 0.0
H542 H 0.55896 0.17997 0.56572 0.0
H543 H 0.5459 0.1495 0.51199 0.0
loop_
_geom_bond_atom_site_label_1
_geom_bond_atom_site_label_2
_geom_bond_distance
_geom_bond_site_symmetry_2
_ccdc_geom_bond_type
Ho0 C3 2.811 1_545 S
Ho0 O20 2.322 . S
Ho0 O22 2.378 1_545 S
Ho0 O23 2.524 . S
Ho0 O24 2.381 . S
Ho0 O25 2.669 1_554 S
Ho0 O27 2.346 1_554 S
Ho0 O31 2.305 . S
Ho1 C12 2.811 . S
Ho1 O21 2.346 1_556 S
Ho1 O25 2.305 . S
Ho1 O26 2.322 . S
Ho1 O28 2.378 . S
Ho1 O29 2.524 . S
Ho1 O30 2.381 . S
Ho1 O31 2.669 1_556 S
C2 O20 1.259 . S
C2 O21 1.268 . S
C3 Ho0 2.811 1_565 S
C3 C4 1.488 . S
C3 O22 1.215 . S
C3 O23 1.289 1_565 S
C4 C3 1.488 . S
C4 C5 1.348 . S
C4 C9 1.413 . S
C5 C4 1.348 . S
C5 C6 1.442 . S
C5 H32 0.930 1_565 S
C6 C5 1.442 . S
C6 C7 1.381 . S
C6 H33 0.931 . S
C7 C6 1.381 . S
C7 C8 1.321 . S
C8 C7 1.321 . S
C8 C9 1.403 . S
C8 H34 0.934 . S
C9 C4 1.413 . S
C9 C8 1.403 . S
C9 H35 0.930 . S
C10 O24 1.275 . S
C10 O25 1.256 1_554 S
C11 O26 1.259 . S
C11 O27 1.268 . S
C12 Ho1 2.811 . S
C12 C13 1.488 . S
C12 O28 1.215 . S
C12 O29 1.289 . S
C13 C12 1.488 . S
C13 C14 1.348 . S
C13 C18 1.413 . S
C14 C13 1.348 . S
C14 C15 1.442 . S
C14 H36 0.930 . S
C15 C14 1.442 . S
C15 C16 1.381 . S
C15 H37 0.931 . S
C16 C15 1.381 . S
C16 C17 1.321 . S
C17 C16 1.321 . S
C17 C18 1.403 . S
C17 H38 0.934 . S
C18 C13 1.413 . S
C18 C17 1.403 . S
C18 H39 0.930 . S
C19 O30 1.275 1_554 S
C19 O31 1.256 . S
O20 Ho0 2.322 . S
O20 C2 1.259 . S
O21 Ho1 2.346 1_554 S
O21 C2 1.268 . S
O22 Ho0 2.378 1_565 S
O22 C3 1.215 . S
O23 Ho0 2.524 . S
O23 C3 1.289 1_545 S
O24 Ho0 2.381 . S
O24 C10 1.275 . S
O25 Ho0 2.669 1_556 S
O25 Ho1 2.305 . S
O25 C10 1.256 1_556 S
O26 Ho1 2.322 . S
O26 C11 1.259 . S
O27 Ho0 2.346 1_556 S
O27 C11 1.268 . S
O28 Ho1 2.378 . S
O28 C12 1.215 . S
O29 Ho1 2.524 . S
O29 C12 1.289 . S
O30 Ho1 2.381 . S
O30 C19 1.275 1_556 S
O31 Ho0 2.305 . S
O31 Ho1 2.669 1_554 S
O31 C19 1.256 . S
H32 C5 0.930 1_545 S
H33 C6 0.931 . S
H34 C8 0.934 . S
H35 C9 0.930 . S
H36 C14 0.930 . S
H37 C15 0.931 . S
H38 C17 0.934 . S
H39 C18 0.930 . S
Ho40 C43 2.811 . S
Ho40 O60 2.322 1_455 S
Ho40 O62 2.378 . S
Ho40 O63 2.524 . S
Ho40 O64 2.381 . S
Ho40 O65 2.669 1_455 S
Ho40 O67 2.346 . S
Ho40 O71 2.305 . S
Ho41 C52 2.811 . S
Ho41 O61 2.346 . S
Ho41 O65 2.305 . S
Ho41 O66 2.322 1_655 S
Ho41 O68 2.378 . S
Ho41 O69 2.524 . S
Ho41 O70 2.381 . S
Ho41 O71 2.669 1_655 S
C42 O60 1.259 . S
C42 O61 1.268 . S
C43 Ho40 2.811 . S
C43 C44 1.488 . S
C43 O62 1.215 . S
C43 O63 1.289 . S
C44 C43 1.488 . S
C44 C45 1.348 . S
C44 C49 1.413 . S
C45 C44 1.348 . S
C45 C46 1.442 . S
C45 H72 0.930 . S
C46 C45 1.442 . S
C46 C47 1.381 . S
C46 H73 0.931 . S
C47 C46 1.381 . S
C47 C48 1.321 . S
C48 C47 1.321 . S
C48 C49 1.403 . S
C48 H74 0.934 . S
C49 C44 1.413 . S
C49 C48 1.403 . S
C49 H75 0.930 . S
C50 O64 1.275 . S
C50 O65 1.256 1_455 S
C51 O66 1.259 . S
C51 O67 1.268 . S
C52 Ho41 2.811 . S
C52 C53 1.488 . S
C52 O68 1.215 . S
C52 O69 1.289 . S
C53 C52 1.488 . S
C53 C54 1.348 . S
C53 C58 1.413 . S
C54 C53 1.348 . S
C54 C55 1.442 . S
C54 H76 0.930 . S
C55 C54 1.442 . S
C55 C56 1.381 . S
C55 H77 0.931 . S
C56 C55 1.381 . S
C56 C57 1.321 . S
C57 C56 1.321 . S
C57 C58 1.403 . S
C57 H78 0.934 . S
C58 C53 1.413 . S
C58 C57 1.403 . S
C58 H79 0.930 . S
C59 O70 1.275 . S
C59 O71 1.256 1_655 S
O60 Ho40 2.322 1_655 S
O60 C42 1.259 . S
O61 Ho41 2.346 . S
O61 C42 1.268 . S
O62 Ho40 2.378 . S
O62 C43 1.215 . S
O63 Ho40 2.524 . S
O63 C43 1.289 . S
O64 Ho40 2.381 . S
O64 C50 1.275 . S
O65 Ho40 2.669 1_655 S
O65 Ho41 2.305 . S
O65 C50 1.256 1_655 S
O66 Ho41 2.322 1_455 S
O66 C51 1.259 . S
O67 Ho40 2.346 . S
O67 C51 1.268 . S
O68 Ho41 2.378 . S
O68 C52 1.215 . S
O69 Ho41 2.524 . S
O69 C52 1.289 . S
O70 Ho41 2.381 . S
O70 C59 1.275 . S
O71 Ho40 2.305 . S
O71 Ho41 2.669 1_455 S
O71 C59 1.256 1_455 S
H72 C45 0.930 . S
H73 C46 0.931 . S
H74 C48 0.934 . S
H75 C49 0.930 . S
H76 C54 0.930 . S
H77 C55 0.931 . S
H78 C57 0.934 . S
H79 C58 0.930 . S
Ho80 C83 2.811 . S
Ho80 O100 2.322 1_545 S
Ho80 O102 2.378 . S
Ho80 O103 2.524 . S
Ho80 O104 2.381 . S
Ho80 O105 2.669 1_544 S
Ho80 O107 2.346 1_554 S
Ho80 O111 2.305 . S
Ho81 C92 2.811 . S
Ho81 O101 2.346 1_556 S
Ho81 O105 2.305 . S
Ho81 O106 2.322 1_565 S
Ho81 O108 2.378 . S
Ho81 O109 2.524 . S
Ho81 O110 2.381 . S
Ho81 O111 2.669 1_566 S
C82 O100 1.259 . S
C82 O101 1.268 . S
C83 Ho80 2.811 . S
C83 C84 1.488 . S
C83 O102 1.215 . S
C83 O103 1.289 . S
C84 C83 1.488 . S
C84 C85 1.348 . S
C84 C89 1.413 . S
C85 C84 1.348 . S
C85 C86 1.442 . S
C85 H112 0.930 . S
C86 C85 1.442 . S
C86 C87 1.381 . S
C86 H113 0.931 . S
C87 C86 1.381 . S
C87 C88 1.321 . S
C88 C87 1.321 . S
C88 C89 1.403 . S
C88 H114 0.934 . S
C89 C84 1.413 . S
C89 C88 1.403 . S
C89 H115 0.930 . S
C90 O104 1.275 . S
C90 O105 1.256 1_544 S
C91 O106 1.259 . S
C91 O107 1.268 . S
C92 Ho81 2.811 . S
C92 C93 1.488 . S
C92 O108 1.215 . S
C92 O109 1.289 . S
C93 C92 1.488 . S
C93 C94 1.348 . S
C93 C98 1.413 . S
C94 C93 1.348 . S
C94 C95 1.442 . S
C94 H116 0.930 . S
C95 C94 1.442 . S
C95 C96 1.381 . S
C95 H117 0.931 . S
C96 C95 1.381 . S
C96 C97 1.321 . S
C97 C96 1.321 . S
C97 C98 1.403 . S
C97 H118 0.934 . S
C98 C93 1.413 . S
C98 C97 1.403 . S
C98 H119 0.930 . S
C99 O110 1.275 1_554 S
C99 O111 1.256 1_565 S
O100 Ho80 2.322 1_565 S
O100 C82 1.259 . S
O101 Ho81 2.346 1_554 S
O101 C82 1.268 . S
O102 Ho80 2.378 . S
O102 C83 1.215 . S
O103 Ho80 2.524 . S
O103 C83 1.289 . S
O104 Ho80 2.381 . S
O104 C90 1.275 . S
O105 Ho80 2.669 1_566 S
O105 Ho81 2.305 . S
O105 C90 1.256 1_566 S
O106 Ho81 2.322 1_545 S
O106 C91 1.259 . S
O107 Ho80 2.346 1_556 S
O107 C91 1.268 . S
O108 Ho81 2.378 . S
O108 C92 1.215 . S
O109 Ho81 2.524 . S
O109 C92 1.289 . S
O110 Ho81 2.381 . S
O110 C99 1.275 1_556 S
O111 Ho80 2.305 . S
O111 Ho81 2.669 1_544 S
O111 C99 1.256 1_545 S
H112 C85 0.930 . S
H113 C86 0.931 . S
H114 C88 0.934 . S
H115 C89 0.930 . S
H116 C94 0.930 . S
H117 C95 0.931 . S
H118 C97 0.934 . S
H119 C98 0.930 . S
Ho120 C123 2.811 1_455 S
Ho120 O140 2.322 . S
Ho120 O142 2.378 1_455 S
Ho120 O143 2.524 . S
Ho120 O144 2.381 . S
Ho120 O145 2.669 . S
Ho120 O147 2.346 . S
Ho120 O151 2.305 . S
Ho121 C132 2.811 . S
Ho121 O141 2.346 . S
Ho121 O145 2.305 . S
Ho121 O146 2.322 . S
Ho121 O148 2.378 . S
Ho121 O149 2.524 . S
Ho121 O150 2.381 . S
Ho121 O151 2.669 . S
C122 O140 1.259 . S
C122 O141 1.268 . S
C123 Ho120 2.811 1_655 S
C123 C124 1.488 . S
C123 O142 1.215 . S
C123 O143 1.289 1_655 S
C124 C123 1.488 . S
C124 C125 1.348 . S
C124 C129 1.413 . S
C125 C124 1.348 . S
C125 C126 1.442 . S
C125 H152 0.927 1_655 S
C126 C125 1.442 . S
C126 C127 1.381 . S
C126 H153 0.931 . S
C127 C126 1.381 . S
C127 C128 1.321 . S
C128 C127 1.321 . S
C128 C129 1.403 . S
C128 H154 0.934 . S
C129 C124 1.413 . S
C129 C128 1.403 . S
C129 H155 0.930 . S
C130 O144 1.275 . S
C130 O145 1.256 . S
C131 O146 1.259 . S
C131 O147 1.268 . S
C132 Ho121 2.811 . S
C132 C133 1.488 . S
C132 O148 1.215 . S
C132 O149 1.289 . S
C133 C132 1.488 . S
C133 C134 1.348 . S
C133 C138 1.413 . S
C134 C133 1.348 . S
C134 C135 1.442 . S
C134 H156 0.930 . S
C135 C134 1.442 . S
C135 C136 1.381 . S
C135 H157 0.931 . S
C136 C135 1.381 . S
C136 C137 1.321 . S
C137 C136 1.321 . S
C137 C138 1.403 . S
C137 H158 0.934 . S
C138 C133 1.413 . S
C138 C137 1.403 . S
C138 H159 0.930 . S
C139 O150 1.275 . S
C139 O151 1.256 . S
O140 Ho120 2.322 . S
O140 C122 1.259 . S
O141 Ho121 2.346 . S
O141 C122 1.268 . S
O142 Ho120 2.378 1_655 S
O142 C123 1.215 . S
O143 Ho120 2.524 . S
O143 C123 1.289 1_455 S
O144 Ho120 2.381 . S
O144 C130 1.275 . S
O145 Ho120 2.669 . S
O145 Ho121 2.305 . S
O145 C130 1.256 . S
O146 Ho121 2.322 . S
O146 C131 1.259 . S
O147 Ho120 2.346 . S
O147 C131 1.268 . S
O148 Ho121 2.378 . S
O148 C132 1.215 . S
O149 Ho121 2.524 . S
O149 C132 1.289 . S
O150 Ho121 2.381 . S
O150 C139 1.275 . S
O151 Ho120 2.305 . S
O151 Ho121 2.669 . S
O151 C139 1.256 . S
H152 C125 0.927 1_455 S
H153 C126 0.931 . S
H154 C128 0.934 . S
H155 C129 0.930 . S
H156 C134 0.930 . S
H157 C135 0.931 . S
H158 C137 0.934 . S
H159 C138 0.930 . S
C160 C161 1.379 1_544 S
C160 C162 1.394 . S
C160 H176 0.931 . S
C161 C160 1.379 1_566 S
C161 C165 1.385 . S
C162 C160 1.394 . S
C162 C163 1.369 1_655 S
C162 C166 1.531 . S
C163 C162 1.369 1_455 S
C163 C164 1.410 1_544 S
C163 C171 1.503 . S
C164 C163 1.410 1_566 S
C164 C165 1.392 1_455 S
C164 C167 1.511 . S
C165 C161 1.385 . S
C165 C164 1.392 1_655 S
C165 H177 0.929 . S
C166 C162 1.531 . S
C166 H178 0.960 1_655 S
C166 H179 0.962 . S
C166 H180 0.960 . S
C167 C164 1.511 . S
C167 H181 0.961 . S
C167 H182 0.961 . S
C167 H183 0.961 1_556 S
C168 C169 1.370 . S
C168 C170 1.363 . S
C168 H184 0.931 . S
C169 C168 1.370 . S
C169 C173 1.408 1_556 S
C170 C168 1.363 . S
C170 C171 1.370 1_556 S
C170 C174 1.524 . S
C171 C163 1.503 . S
C171 C170 1.370 1_554 S
C171 C172 1.403 . S
C172 C171 1.403 . S
C172 C173 1.404 . S
C172 C175 1.539 . S
C173 C169 1.408 1_554 S
C173 C172 1.404 . S
C173 H185 0.930 . S
C174 C170 1.524 . S
C174 H186 0.956 . S
C174 H187 0.961 . S
C174 H188 0.961 . S
C175 C172 1.539 . S
C175 H189 0.958 . S
C175 H190 0.961 1_545 S
C175 H191 0.960 1_545 S
H176 C160 0.931 . S
H177 C165 0.929 . S
H178 C166 0.960 1_455 S
H179 C166 0.962 . S
H180 C166 0.960 . S
H181 C167 0.961 . S
H182 C167 0.961 . S
H183 C167 0.961 1_554 S
H184 C168 0.931 . S
H185 C173 0.930 . S
H186 C174 0.956 . S
H187 C174 0.961 . S
H188 C174 0.961 . S
H189 C175 0.958 . S
H190 C175 0.961 1_565 S
H191 C175 0.960 1_565 S
C192 C193 1.391 . S
C192 C194 1.394 1_565 S
C192 H208 0.931 . S
C193 C192 1.391 . S
C193 C197 1.376 . S
C194 C192 1.394 1_545 S
C194 C195 1.369 . S
C194 C198 1.531 . S
C195 C194 1.369 . S
C195 C196 1.410 1_545 S
C195 C203 1.503 . S
C196 C195 1.410 1_565 S
C196 C197 1.392 . S
C196 C199 1.511 1_455 S
C197 C193 1.376 . S
C197 C196 1.392 . S
C197 H209 0.929 . S
C198 C194 1.531 . S
C198 H210 0.960 . S
C198 H211 0.962 . S
C198 H212 0.960 . S
C199 C196 1.511 1_655 S
C199 H213 0.961 . S
C199 H214 0.961 1_565 S
C199 H215 0.961 . S
C200 C201 1.370 1_455 S
C200 C202 1.363 . S
C200 H216 0.931 . S
C201 C200 1.370 1_655 S
C201 C205 1.408 . S
C202 C200 1.363 . S
C202 C203 1.370 . S
C202 C206 1.524 . S
C203 C195 1.503 . S
C203 C202 1.370 . S
C203 C204 1.403 . S
C204 C203 1.403 . S
C204 C205 1.404 1_455 S
C204 C207 1.539 1_455 S
C205 C201 1.408 . S
C205 C204 1.404 1_655 S
C205 H217 0.930 . S
C206 C202 1.524 . S
C206 H218 0.956 . S
C206 H219 0.961 . S
C206 H220 0.961 . S
C207 C204 1.539 1_655 S
C207 H221 0.958 1_655 S
C207 H222 0.961 . S
C207 H223 0.960 . S
H208 C192 0.931 . S
H209 C197 0.929 . S
H210 C198 0.960 . S
H211 C198 0.962 . S
H212 C198 0.960 . S
H213 C199 0.961 . S
H214 C199 0.961 1_545 S
H215 C199 0.961 . S
H216 C200 0.931 . S
H217 C205 0.930 . S
H218 C206 0.956 . S
H219 C206 0.961 . S
H220 C206 0.961 . S
H221 C207 0.958 1_455 S
H222 C207 0.961 . S
H223 C207 0.960 . S
C224 C225 1.391 . S
C224 C226 1.394 . S
C224 H240 0.931 1_545 S
C225 C224 1.391 . S
C225 C229 1.376 1_554 S
C226 C224 1.394 . S
C226 C227 1.369 . S
C226 C230 1.531 . S
C227 C226 1.369 . S
C227 C228 1.410 1_554 S
C227 C235 1.503 . S
C228 C227 1.410 1_556 S
C228 C229 1.392 . S
C228 C231 1.511 . S
C229 C225 1.376 1_556 S
C229 C228 1.392 . S
C229 H241 0.929 . S
C230 C226 1.531 . S
C230 H242 0.960 . S
C230 H243 0.962 1_545 S
C230 H244 0.960 . S
C231 C228 1.511 . S
C231 H245 0.961 . S
C231 H246 0.961 . S
C231 H247 0.961 . S
C232 C233 1.370 . S
C232 C234 1.363 . S
C232 H248 0.931 1_554 S
C233 C232 1.370 . S
C233 C237 1.408 . S
C234 C232 1.363 . S
C234 C235 1.370 . S
C234 C238 1.524 1_544 S
C235 C227 1.503 . S
C235 C234 1.370 . S
C235 C236 1.403 . S
C236 C235 1.403 . S
C236 C237 1.404 . S
C236 C239 1.539 . S
C237 C233 1.408 . S
C237 C236 1.404 . S
C237 H249 0.930 . S
C238 C234 1.524 1_566 S
C238 H250 0.956 1_556 S
C238 H251 0.961 . S
C238 H252 0.961 . S
C239 C236 1.539 . S
C239 H253 0.958 . S
C239 H254 0.961 . S
C239 H255 0.960 . S
H240 C224 0.931 1_565 S
H241 C229 0.929 . S
H242 C230 0.960 . S
H243 C230 0.962 1_565 S
H244 C230 0.960 . S
H245 C231 0.961 . S
H246 C231 0.961 . S
H247 C231 0.961 . S
H248 C232 0.931 1_556 S
H249 C237 0.930 . S
H250 C238 0.956 1_554 S
H251 C238 0.961 . S
H252 C238 0.961 . S
H253 C239 0.958 . S
H254 C239 0.961 . S
H255 C239 0.960 . S
C256 C257 1.391 . S
C256 C258 1.394 . S
C256 H272 0.931 . S
C257 C256 1.391 . S
C257 C261 1.376 1_655 S
C258 C256 1.394 . S
C258 C259 1.369 1_655 S
C258 C262 1.531 . S
C259 C258 1.369 1_455 S
C259 C260 1.410 . S
C259 C267 1.503 . S
C260 C259 1.410 . S
C260 C261 1.392 . S
C260 C263 1.511 . S
C261 C257 1.376 1_455 S
C261 C260 1.392 . S
C261 H273 0.929 . S
C262 C258 1.531 . S
C262 H274 0.960 . S
C262 H275 0.962 . S
C262 H276 0.960 . S
C263 C260 1.511 . S
C263 H277 0.961 . S
C263 H278 0.961 . S
C263 H279 0.961 . S
C264 C265 1.370 . S
C264 C266 1.363 . S
C264 H280 0.931 . S
C265 C264 1.370 . S
C265 C269 1.408 . S
C266 C264 1.363 . S
C266 C267 1.370 . S
C266 C270 1.524 . S
C267 C259 1.503 . S
C267 C266 1.370 . S
C267 C268 1.403 . S
C268 C267 1.403 . S
C268 C269 1.404 . S
C268 C271 1.539 . S
C269 C265 1.408 . S
C269 C268 1.404 . S
C269 H281 0.930 . S
C270 C266 1.524 . S
C270 H282 0.956 . S
C270 H283 0.961 . S
C270 H284 0.961 . S
C271 C268 1.539 . S
C271 H285 0.958 . S
C271 H286 0.961 . S
C271 H287 0.960 . S
H272 C256 0.931 . S
H273 C261 0.929 . S
H274 C262 0.960 . S
H275 C262 0.962 . S
H276 C262 0.960 . S
H277 C263 0.961 . S
H278 C263 0.961 . S
H279 C263 0.961 . S
H280 C264 0.931 . S
H281 C269 0.930 . S
H282 C270 0.956 . S
H283 C270 0.961 . S
H284 C270 0.961 . S
H285 C271 0.958 . S
H286 C271 0.961 . S
H287 C271 0.960 . S
C288 C289 1.391 . S
C288 C290 1.394 . S
C288 H304 0.931 . S
C289 C288 1.391 . S
C289 C293 1.376 . S
C290 C288 1.394 . S
C290 C291 1.369 . S
C290 C294 1.531 . S
C291 C290 1.369 . S
C291 C292 1.410 . S
C291 C299 1.503 . S
C292 C291 1.410 . S
C292 C293 1.392 . S
C292 C295 1.511 . S
C293 C289 1.376 . S
C293 C292 1.392 . S
C293 H305 0.929 . S
C294 C290 1.531 . S
C294 H306 0.960 . S
C294 H307 0.962 . S
C294 H308 0.960 . S
C295 C292 1.511 . S
C295 H309 0.961 . S
C295 H310 0.961 . S
C295 H311 0.961 . S
C296 C297 1.370 . S
C296 C298 1.363 . S
C296 H312 0.931 . S
C297 C296 1.370 . S
C297 C301 1.408 . S
C298 C296 1.363 . S
C298 C299 1.370 . S
C298 C302 1.524 . S
C299 C291 1.503 . S
C299 C298 1.370 . S
C299 C300 1.403 . S
C300 C299 1.403 . S
C300 C301 1.404 . S
C300 C303 1.539 . S
C301 C297 1.408 . S
C301 C300 1.404 . S
C301 H313 0.930 . S
C302 C298 1.524 . S
C302 H314 0.956 . S
C302 H315 0.961 . S
C302 H316 0.961 . S
C303 C300 1.539 . S
C303 H317 0.958 . S
C303 H318 0.961 . S
C303 H319 0.960 . S
H304 C288 0.931 . S
H305 C293 0.929 . S
H306 C294 0.960 . S
H307 C294 0.962 . S
H308 C294 0.960 . S
H309 C295 0.961 . S
H310 C295 0.961 . S
H311 C295 0.961 . S
H312 C296 0.931 . S
H313 C301 0.930 . S
H314 C302 0.956 . S
H315 C302 0.961 . S
H316 C302 0.961 . S
H317 C303 0.958 . S
H318 C303 0.961 . S
H319 C303 0.960 . S
C320 C321 1.391 . S
C320 C322 1.394 . S
C320 H336 0.931 . S
C321 C320 1.391 . S
C321 C325 1.376 . S
C322 C320 1.394 . S
C322 C323 1.369 . S
C322 C326 1.531 . S
C323 C322 1.369 . S
C323 C324 1.410 . S
C323 C331 1.503 . S
C324 C323 1.410 . S
C324 C325 1.392 . S
C324 C327 1.511 . S
C325 C321 1.376 . S
C325 C324 1.392 . S
C325 H337 0.929 . S
C326 C322 1.531 . S
C326 H338 0.960 . S
C326 H339 0.962 . S
C326 H340 0.960 . S
C327 C324 1.511 . S
C327 H341 0.961 . S
C327 H342 0.961 . S
C327 H343 0.961 . S
C328 C329 1.370 . S
C328 C330 1.363 . S
C328 H344 0.931 . S
C329 C328 1.370 . S
C329 C333 1.408 . S
C330 C328 1.363 . S
C330 C331 1.370 . S
C330 C334 1.524 . S
C331 C323 1.503 . S
C331 C330 1.370 . S
C331 C332 1.403 . S
C332 C331 1.403 . S
C332 C333 1.404 . S
C332 C335 1.539 . S
C333 C329 1.408 . S
C333 C332 1.404 . S
C333 H345 0.930 . S
C334 C330 1.524 . S
C334 H346 0.956 . S
C334 H347 0.961 . S
C334 H348 0.961 . S
C335 C332 1.539 . S
C335 H349 0.958 . S
C335 H350 0.961 . S
C335 H351 0.960 . S
H336 C320 0.931 . S
H337 C325 0.929 . S
H338 C326 0.960 . S
H339 C326 0.962 . S
H340 C326 0.960 . S
H341 C327 0.961 . S
H342 C327 0.961 . S
H343 C327 0.961 . S
H344 C328 0.931 . S
H345 C333 0.930 . S
H346 C334 0.956 . S
H347 C334 0.961 . S
H348 C334 0.961 . S
H349 C335 0.958 . S
H350 C335 0.961 . S
H351 C335 0.960 . S
C352 C353 1.391 . S
C352 C354 1.394 . S
C352 H368 0.931 . S
C353 C352 1.391 . S
C353 C357 1.376 1_655 S
C354 C352 1.394 . S
C354 C355 1.369 . S
C354 C358 1.531 . S
C355 C354 1.369 . S
C355 C356 1.410 . S
C355 C363 1.503 . S
C356 C355 1.410 . S
C356 C357 1.392 1_655 S
C356 C359 1.511 1_655 S
C357 C353 1.376 1_455 S
C357 C356 1.392 1_455 S
C357 H369 0.929 . S
C358 C354 1.531 . S
C358 H370 0.960 . S
C358 H371 0.962 . S
C358 H372 0.960 . S
C359 C356 1.511 1_455 S
C359 H373 0.961 . S
C359 H374 0.969 . S
C359 H375 0.961 . S
C360 C361 1.370 . S
C360 C362 1.363 . S
C360 H376 0.931 . S
C361 C360 1.370 . S
C361 C365 1.408 . S
C362 C360 1.363 . S
C362 C363 1.370 . S
C362 C366 1.524 . S
C363 C355 1.503 . S
C363 C362 1.370 . S
C363 C364 1.403 . S
C364 C363 1.403 . S
C364 C365 1.404 . S
C364 C367 1.539 . S
C365 C361 1.408 . S
C365 C364 1.404 . S
C365 H377 0.930 . S
C366 C362 1.524 . S
C366 H378 0.956 . S
C366 H379 0.961 . S
C366 H380 0.961 . S
C367 C364 1.539 . S
C367 H381 0.958 1_565 S
C367 H382 0.961 1_565 S
C367 H383 0.960 . S
H368 C352 0.931 . S
H369 C357 0.929 . S
H370 C358 0.960 . S
H371 C358 0.962 . S
H372 C358 0.960 . S
H373 C359 0.961 . S
H374 C359 0.969 . S
H375 C359 0.961 . S
H376 C360 0.931 . S
H377 C365 0.930 . S
H378 C366 0.956 . S
H379 C366 0.961 . S
H380 C366 0.961 . S
H381 C367 0.958 1_545 S
H382 C367 0.961 1_545 S
H383 C367 0.960 . S
C384 C385 1.391 . S
C384 C386 1.394 . S
C384 H400 0.931 . S
C385 C384 1.391 . S
C385 C389 1.376 . S
C386 C384 1.394 . S
C386 C387 1.369 . S
C386 C390 1.531 . S
C387 C386 1.369 . S
C387 C388 1.410 . S
C387 C395 1.503 . S
C388 C387 1.410 . S
C388 C389 1.392 . S
C388 C391 1.511 . S
C389 C385 1.376 . S
C389 C388 1.392 . S
C389 H401 0.929 . S
C390 C386 1.531 . S
C390 H402 0.960 . S
C390 H403 0.962 . S
C390 H404 0.960 . S
C391 C388 1.511 . S
C391 H405 0.961 . S
C391 H406 0.961 . S
C391 H407 0.961 . S
C392 C393 1.370 . S
C392 C394 1.363 . S
C392 H408 0.931 . S
C393 C392 1.370 . S
C393 C397 1.408 1_565 S
C394 C392 1.363 . S
C394 C395 1.370 . S
C394 C398 1.524 . S
C395 C387 1.503 . S
C395 C394 1.370 . S
C395 C396 1.403 . S
C396 C395 1.403 . S
C396 C397 1.404 1_565 S
C396 C399 1.539 1_565 S
C397 C393 1.408 1_545 S
C397 C396 1.404 1_545 S
C397 H409 0.930 . S
C398 C394 1.524 . S
C398 H410 0.956 . S
C398 H411 0.961 . S
C398 H412 0.961 . S
C399 C396 1.539 1_545 S
C399 H413 0.958 . S
C399 H414 0.961 . S
C399 H415 0.960 . S
H400 C384 0.931 . S
H401 C389 0.929 . S
H402 C390 0.960 . S
H403 C390 0.962 . S
H404 C390 0.960 . S
H405 C391 0.961 . S
H406 C391 0.961 . S
H407 C391 0.961 . S
H408 C392 0.931 . S
H409 C397 0.930 . S
H410 C398 0.956 . S
H411 C398 0.961 . S
H412 C398 0.961 . S
H413 C399 0.958 . S
H414 C399 0.961 . S
H415 C399 0.960 . S
C416 C417 1.391 . S
C416 C418 1.394 . S
C416 H432 0.931 . S
C417 C416 1.391 . S
C417 C421 1.376 . S
C418 C416 1.394 . S
C418 C419 1.369 . S
C418 C422 1.531 . S
C419 C418 1.369 . S
C419 C420 1.410 . S
C419 C427 1.503 . S
C420 C419 1.410 . S
C420 C421 1.392 . S
C420 C423 1.511 . S
C421 C417 1.376 . S
C421 C420 1.392 . S
C421 H433 0.929 . S
C422 C418 1.531 . S
C422 H434 0.960 . S
C422 H435 0.962 . S
C422 H436 0.960 . S
C423 C420 1.511 . S
C423 H437 0.961 . S
C423 H438 0.961 . S
C423 H439 0.961 . S
C424 C425 1.370 . S
C424 C426 1.363 . S
C424 H440 0.931 . S
C425 C424 1.370 . S
C425 C429 1.408 . S
C426 C424 1.363 . S
C426 C427 1.370 . S
C426 C430 1.524 . S
C427 C419 1.503 . S
C427 C426 1.370 . S
C427 C428 1.403 . S
C428 C427 1.403 . S
C428 C429 1.404 . S
C428 C431 1.539 . S
C429 C425 1.408 . S
C429 C428 1.404 . S
C429 H441 0.930 . S
C430 C426 1.524 . S
C430 H442 0.956 . S
C430 H443 0.961 . S
C430 H444 0.961 . S
C431 C428 1.539 . S
C431 H445 0.958 . S
C431 H446 0.961 . S
C431 H447 0.960 . S
H432 C416 0.931 . S
H433 C421 0.929 . S
H434 C422 0.960 . S
H435 C422 0.962 . S
H436 C422 0.960 . S
H437 C423 0.961 . S
H438 C423 0.961 . S
H439 C423 0.961 . S
H440 C424 0.931 . S
H441 C429 0.930 . S
H442 C430 0.956 . S
H443 C430 0.961 . S
H444 C430 0.961 . S
H445 C431 0.958 . S
H446 C431 0.961 . S
H447 C431 0.960 . S
C448 C449 1.391 . S
C448 C450 1.394 . S
C448 H464 0.931 . S
C449 C448 1.391 . S
C449 C453 1.376 . S
C450 C448 1.394 . S
C450 C451 1.369 . S
C450 C454 1.531 . S
C451 C450 1.369 . S
C451 C452 1.410 . S
C451 C459 1.503 . S
C452 C451 1.410 . S
C452 C453 1.392 . S
C452 C455 1.511 . S
C453 C449 1.376 . S
C453 C452 1.392 . S
C453 H465 0.929 . S
C454 C450 1.531 . S
C454 H466 0.960 . S
C454 H467 0.962 . S
C454 H468 0.960 . S
C455 C452 1.511 . S
C455 H469 0.961 . S
C455 H470 0.961 . S
C455 H471 0.961 . S
C456 C457 1.370 . S
C456 C458 1.363 . S
C456 H472 0.931 . S
C457 C456 1.370 . S
C457 C461 1.408 . S
C458 C456 1.363 . S
C458 C459 1.370 . S
C458 C462 1.524 . S
C459 C451 1.503 . S
C459 C458 1.370 . S
C459 C460 1.403 . S
C460 C459 1.403 . S
C460 C461 1.404 . S
C460 C463 1.539 . S
C461 C457 1.408 . S
C461 C460 1.404 . S
C461 H473 0.930 . S
C462 C458 1.524 . S
C462 H474 0.956 . S
C462 H475 0.961 . S
C462 H476 0.961 . S
C463 C460 1.539 . S
C463 H477 0.958 . S
C463 H478 0.961 . S
C463 H479 0.960 . S
H464 C448 0.931 . S
H465 C453 0.929 . S
H466 C454 0.960 . S
H467 C454 0.962 . S
H468 C454 0.960 . S
H469 C455 0.961 . S
H470 C455 0.961 . S
H471 C455 0.961 . S
H472 C456 0.931 . S
H473 C461 0.930 . S
H474 C462 0.956 . S
H475 C462 0.961 . S
H476 C462 0.961 . S
H477 C463 0.958 . S
H478 C463 0.961 . S
H479 C463 0.960 . S
C480 C481 1.391 . S
C480 C482 1.394 . S
C480 H496 0.931 . S
C481 C480 1.391 . S
C481 C485 1.376 . S
C482 C480 1.394 . S
C482 C483 1.369 . S
C482 C486 1.531 . S
C483 C482 1.369 . S
C483 C484 1.410 . S
C483 C491 1.503 . S
C484 C483 1.410 . S
C484 C485 1.392 . S
C484 C487 1.511 . S
C485 C481 1.376 . S
C485 C484 1.392 . S
C485 H497 0.929 . S
C486 C482 1.531 . S
C486 H498 0.960 . S
C486 H499 0.962 . S
C486 H500 0.960 . S
C487 C484 1.511 . S
C487 H501 0.961 . S
C487 H502 0.961 . S
C487 H503 0.961 . S
C488 C489 1.370 . S
C488 C490 1.363 . S
C488 H504 0.931 . S
C489 C488 1.370 . S
C489 C493 1.408 . S
C490 C488 1.363 . S
C490 C491 1.370 . S
C490 C494 1.524 . S
C491 C483 1.503 . S
C491 C490 1.370 . S
C491 C492 1.403 . S
C492 C491 1.403 . S
C492 C493 1.404 . S
C492 C495 1.539 . S
C493 C489 1.408 . S
C493 C492 1.404 . S
C493 H505 0.930 . S
C494 C490 1.524 . S
C494 H506 0.956 . S
C494 H507 0.961 . S
C494 H508 0.961 . S
C495 C492 1.539 . S
C495 H509 0.958 . S
C495 H510 0.961 . S
C495 H511 0.960 . S
H496 C480 0.931 . S
H497 C485 0.929 . S
H498 C486 0.960 . S
H499 C486 0.962 . S
H500 C486 0.960 . S
H501 C487 0.961 . S
H502 C487 0.961 . S
H503 C487 0.961 . S
H504 C488 0.931 . S
H505 C493 0.930 . S
H506 C494 0.956 . S
H507 C494 0.961 . S
H508 C494 0.961 . S
H509 C495 0.958 . S
H510 C495 0.961 . S
H511 C495 0.960 . S
C512 C513 1.391 . S
C512 C514 1.394 . S
C512 H528 0.931 . S
C513 C512 1.391 . S
C513 C517 1.376 . S
C514 C512 1.394 . S
C514 C515 1.369 . S
C514 C518 1.531 . S
C515 C514 1.369 . S
C515 C516 1.410 . S
C515 C523 1.503 . S
C516 C515 1.410 . S
C516 C517 1.392 . S
C516 C519 1.511 . S
C517 C513 1.376 . S
C517 C516 1.392 . S
C517 H529 0.929 . S
C518 C514 1.531 . S
C518 H530 0.960 . S
C518 H531 0.962 . S
C518 H532 0.960 . S
C519 C516 1.511 . S
C519 H533 0.961 . S
C519 H534 0.961 . S
C519 H535 0.961 . S
C520 C521 1.370 . S
C520 C522 1.363 . S
C520 H536 0.931 . S
C521 C520 1.370 . S
C521 C525 1.408 . S
C522 C520 1.363 . S
C522 C523 1.370 . S
C522 C526 1.524 . S
C523 C515 1.503 . S
C523 C522 1.370 . S
C523 C524 1.403 . S
C524 C523 1.403 . S
C524 C525 1.404 . S
C524 C527 1.539 . S
C525 C521 1.408 . S
C525 C524 1.404 . S
C525 H537 0.930 . S
C526 C522 1.524 . S
C526 H538 0.956 . S
C526 H539 0.961 . S
C526 H540 0.961 . S
C527 C524 1.539 . S
C527 H541 0.958 . S
C527 H542 0.961 . S
C527 H543 0.960 . S
H528 C512 0.931 . S
H529 C517 0.929 . S
H530 C518 0.960 . S
H531 C518 0.962 . S
H532 C518 0.960 . S
H533 C519 0.961 . S
H534 C519 0.961 . S
H535 C519 0.961 . S
H536 C520 0.931 . S
H537 C525 0.930 . S
H538 C526 0.956 . S
H539 C526 0.961 . S
H540 C526 0.961 . S
H541 C527 0.958 . S
H542 C527 0.961 . S
H543 C527 0.960 . S
C161 C90 0.499 1_566 S
C169 C10 0.461 1_556 S
C193 C130 0.521 . S
C201 C50 0.540 1_655 S
C225 C99 0.899 1_545 S
C233 C19 0.892 . S
C257 C59 0.919 . S
C265 C139 0.905 . S
C289 C51 4.644 . S
C297 C2 4.541 . S
C321 C42 4.542 . S
C329 C91 4.650 . S
C353 C131 4.644 1_655 S
C361 C82 4.539 . S
C385 C122 4.523 . S
C393 C11 4.651 1_565 S
C417 C96 1.044 . S
C425 C127 1.008 . S
C449 C7 1.029 . S
C457 C136 1.018 . S
C481 C47 1.081 . S
C489 C16 1.023 . S
C513 C87 1.043 . S
C521 C56 1.048 . S
