# Generated by pormake.
# Topology zfk, (5)-cn, num edge types: 1
# Building blocks:
#     Node 0, Type 0, BuildingBlock: XOMCOT_clean_sbu_1, # of connection points: 5
#     Node 1, Type 0, BuildingBlock: XOMCOT_clean_sbu_1, # of connection points: 5
#     Node 2, Type 0, BuildingBlock: XOMCOT_clean_sbu_1, # of connection points: 5
#     Node 3, Type 0, BuildingBlock: XOMCOT_clean_sbu_1, # of connection points: 5
#     Node 4, Type 0, BuildingBlock: XOMCOT_clean_sbu_1, # of connection points: 5
#     Node 5, Type 0, BuildingBlock: XOMCOT_clean_sbu_1, # of connection points: 5
#     Node 6, Type 0, BuildingBlock: XOMCOT_clean_sbu_1, # of connection points: 5
#     Node 7, Type 0, BuildingBlock: XOMCOT_clean_sbu_1, # of connection points: 5
#     Node 8, Type 0, BuildingBlock: XOMCOT_clean_sbu_1, # of connection points: 5
#     Node 9, Type 0, BuildingBlock: XOMCOT_clean_sbu_1, # of connection points: 5
#     Node 10, Type 0, BuildingBlock: XOMCOT_clean_sbu_1, # of connection points: 5
#     Node 11, Type 0, BuildingBlock: XOMCOT_clean_sbu_1, # of connection points: 5
#     Node 12, Type 0, BuildingBlock: XOMCOT_clean_sbu_1, # of connection points: 5
#     Node 13, Type 0, BuildingBlock: XOMCOT_clean_sbu_1, # of connection points: 5
#     Node 14, Type 0, BuildingBlock: XOMCOT_clean_sbu_1, # of connection points: 5
#     Node 15, Type 0, BuildingBlock: XOMCOT_clean_sbu_1, # of connection points: 5
#     Edge 16, Type (0, 0), BuildingBlock: KIFKEQ_clean_linker_1, # of connection points: 2
#     Edge 17, Type (0, 0), BuildingBlock: KIFKEQ_clean_linker_1, # of connection points: 2
#     Edge 18, Type (0, 0), BuildingBlock: KIFKEQ_clean_linker_1, # of connection points: 2
#     Edge 19, Type (0, 0), BuildingBlock: KIFKEQ_clean_linker_1, # of connection points: 2
#     Edge 20, Type (0, 0), BuildingBlock: KIFKEQ_clean_linker_1, # of connection points: 2
#     Edge 21, Type (0, 0), BuildingBlock: KIFKEQ_clean_linker_1, # of connection points: 2
#     Edge 22, Type (0, 0), BuildingBlock: KIFKEQ_clean_linker_1, # of connection points: 2
#     Edge 23, Type (0, 0), BuildingBlock: KIFKEQ_clean_linker_1, # of connection points: 2
#     Edge 24, Type (0, 0), BuildingBlock: KIFKEQ_clean_linker_1, # of connection points: 2
#     Edge 25, Type (0, 0), BuildingBlock: KIFKEQ_clean_linker_1, # of connection points: 2
#     Edge 26, Type (0, 0), BuildingBlock: KIFKEQ_clean_linker_1, # of connection points: 2
#     Edge 27, Type (0, 0), BuildingBlock: KIFKEQ_clean_linker_1, # of connection points: 2
#     Edge 28, Type (0, 0), BuildingBlock: KIFKEQ_clean_linker_1, # of connection points: 2
#     Edge 29, Type (0, 0), BuildingBlock: KIFKEQ_clean_linker_1, # of connection points: 2
#     Edge 30, Type (0, 0), BuildingBlock: KIFKEQ_clean_linker_1, # of connection points: 2
#     Edge 31, Type (0, 0), BuildingBlock: KIFKEQ_clean_linker_1, # of connection points: 2
#     Edge 32, Type (0, 0), BuildingBlock: KIFKEQ_clean_linker_1, # of connection points: 2
#     Edge 33, Type (0, 0), BuildingBlock: KIFKEQ_clean_linker_1, # of connection points: 2
#     Edge 34, Type (0, 0), BuildingBlock: KIFKEQ_clean_linker_1, # of connection points: 2
#     Edge 35, Type (0, 0), BuildingBlock: KIFKEQ_clean_linker_1, # of connection points: 2
#     Edge 36, Type (0, 0), BuildingBlock: KIFKEQ_clean_linker_1, # of connection points: 2
#     Edge 37, Type (0, 0), BuildingBlock: KIFKEQ_clean_linker_1, # of connection points: 2
#     Edge 38, Type (0, 0), BuildingBlock: KIFKEQ_clean_linker_1, # of connection points: 2
#     Edge 39, Type (0, 0), BuildingBlock: KIFKEQ_clean_linker_1, # of connection points: 2
#     Edge 40, Type (0, 0), BuildingBlock: KIFKEQ_clean_linker_1, # of connection points: 2
#     Edge 41, Type (0, 0), BuildingBlock: KIFKEQ_clean_linker_1, # of connection points: 2
#     Edge 42, Type (0, 0), BuildingBlock: KIFKEQ_clean_linker_1, # of connection points: 2
#     Edge 43, Type (0, 0), BuildingBlock: KIFKEQ_clean_linker_1, # of connection points: 2
#     Edge 44, Type (0, 0), BuildingBlock: KIFKEQ_clean_linker_1, # of connection points: 2
#     Edge 45, Type (0, 0), BuildingBlock: KIFKEQ_clean_linker_1, # of connection points: 2
#     Edge 46, Type (0, 0), BuildingBlock: KIFKEQ_clean_linker_1, # of connection points: 2
#     Edge 47, Type (0, 0), BuildingBlock: KIFKEQ_clean_linker_1, # of connection points: 2
#     Edge 48, Type (0, 0), BuildingBlock: KIFKEQ_clean_linker_1, # of connection points: 2
#     Edge 49, Type (0, 0), BuildingBlock: KIFKEQ_clean_linker_1, # of connection points: 2
#     Edge 50, Type (0, 0), BuildingBlock: KIFKEQ_clean_linker_1, # of connection points: 2
#     Edge 51, Type (0, 0), BuildingBlock: KIFKEQ_clean_linker_1, # of connection points: 2
#     Edge 52, Type (0, 0), BuildingBlock: KIFKEQ_clean_linker_1, # of connection points: 2
#     Edge 53, Type (0, 0), BuildingBlock: KIFKEQ_clean_linker_1, # of connection points: 2
#     Edge 54, Type (0, 0), BuildingBlock: KIFKEQ_clean_linker_1, # of connection points: 2
#     Edge 55, Type (0, 0), BuildingBlock: KIFKEQ_clean_linker_1, # of connection points: 2
# Relax obj value: 0.302
# Max RMSD: 0.176
# Mean RMSD: 0.176
data_MOF--net-zfk--node1-XOMCOT_clean_sbu_1--edge1-KIFKEQ_clean_linker_1
_symmetry_space_group_name_H-M    P1
_symmetry_Int_Tables_number       1
_symmetry_cell_setting            triclinic
loop_
_symmetry_equiv_pos_as_xyz
'x, y, z'
_cell_length_a     29.896359
_cell_length_b     29.908372
_cell_length_c     66.649598
_cell_angle_alpha  89.935396
_cell_angle_beta   89.675748
_cell_angle_gamma 90.212384
loop_
_atom_site_label
_atom_site_type_symbol
_atom_site_fract_x
_atom_site_fract_y
_atom_site_fract_z
_atom_type_partial_charge
C0 C 0.02703 0.47546 0.11858 0.0
C1 C 0.02698 0.45978 0.09916 0.0
N2 N 1.01763 0.41565 0.09943 0.0
N3 N 1.01754 0.44166 0.13133 0.0
C4 C 1.01233 0.40553 0.11917 0.0
H5 H 0.03377 0.50952 0.12302 0.0
Co6 Co 1.013 0.4461 0.15985 0.0
C7 C 0.9505 0.36572 0.17051 0.0
O8 O 0.94766 0.37553 0.18965 0.0
N9 N 1.0083 0.45165 0.1885 0.0
C10 C 0.9791 0.46654 0.21862 0.0
C11 C 0.97058 0.46321 0.19842 0.0
C12 C 0.03992 0.45011 0.20315 0.0
N13 N 0.02275 0.45824 0.22172 0.0
O14 O 0.96902 0.49476 0.15673 0.0
H15 H 0.93851 0.46863 0.19141 0.0
H16 H 0.07487 0.44315 0.20029 0.0
O17 O 0.96961 0.39366 0.15847 0.0
C18 C 0.99112 0.53158 0.15876 0.0
O19 O 0.0341 0.52902 0.16257 0.0
N20 N 0.05959 0.40538 0.16256 0.0
C21 C 0.1343 0.35065 0.16378 0.0
C22 C 0.09557 0.33921 0.17454 0.0
C23 C 0.05862 0.36733 0.17389 0.0
C24 C 0.09783 0.41813 0.15291 0.0
C25 C 0.13534 0.39091 0.15301 0.0
H26 H 0.03024 0.35911 0.18313 0.0
H27 H 0.09912 0.44955 0.14489 0.0
H28 H 1.00573 0.37219 0.12471 0.0
H29 H 0.03273 0.47978 0.08585 0.0
H30 H 0.95502 0.47536 0.23013 0.0
H31 H 0.09408 0.30927 0.18368 0.0
H32 H 0.16462 0.40112 0.14451 0.0
C33 C 0.07465 0.13373 0.61352 0.0
C34 C 0.08894 0.12048 0.59477 0.0
N35 N 0.13218 0.13223 0.5924 0.0
N36 N 0.10847 0.15395 0.62338 0.0
C37 C 0.14324 0.15229 0.61 0.0
H38 H 0.04104 0.12957 0.61919 0.0
Co39 Co 0.10455 0.18361 0.64921 0.0
C40 C 0.18317 0.11831 0.65318 0.0
O41 O 0.16322 0.08753 0.64236 0.0
N42 N 0.10095 0.21262 0.67478 0.0
C43 C 0.09337 0.26489 0.69834 0.0
C44 C 0.09699 0.25693 0.67803 0.0
C45 C 0.09898 0.19432 0.69353 0.0
N46 N 0.09447 0.22553 0.70824 0.0
O47 O 0.05998 0.13909 0.65889 0.0
H48 H 0.09607 0.28201 0.66633 0.0
H49 H 0.1008 0.15872 0.6963 0.0
O50 O 0.1611 0.1533 0.65827 0.0
C51 C 0.02317 0.16028 0.65542 0.0
O52 O 0.02678 0.20087 0.64796 0.0
N53 N 0.13904 0.23045 0.63859 0.0
C54 C 0.18918 0.27791 0.61074 0.0
C55 C 0.20838 0.26417 0.62898 0.0
C56 C 0.18249 0.2402 0.64284 0.0
C57 C 0.11813 0.25091 0.62294 0.0
C58 C 0.14287 0.27412 0.60848 0.0
H59 H 0.19828 0.2264 0.65596 0.0
H60 H 0.08314 0.24409 0.62021 0.0
H61 H 0.17575 0.16691 0.61285 0.0
H62 H 0.06868 0.10366 0.58367 0.0
H63 H 0.08911 0.29735 0.70525 0.0
H64 H 0.24404 0.26708 0.63146 0.0
H65 H 0.1268 0.28475 0.59477 0.0
C66 C 0.52144 0.07691 0.10898 0.0
C67 C 0.52405 0.09797 0.09065 0.0
N68 N 0.54771 0.13619 0.09261 0.0
N69 N 0.54356 0.10104 0.12282 0.0
C70 C 0.5591 0.13725 0.11237 0.0
H71 H 0.50279 0.04669 0.11213 0.0
Co72 Co 0.54298 0.08588 0.15073 0.0
C73 C 0.58373 0.16371 0.17124 0.0
O74 O 0.56027 0.15358 0.18732 0.0
N75 N 0.54223 0.06965 0.17903 0.0
C76 C 0.57022 0.0474 0.20844 0.0
C77 C 0.57971 0.05669 0.18869 0.0
C78 C 0.51018 0.06822 0.19377 0.0
N79 N 0.52646 0.05471 0.21178 0.0
O80 O 0.59188 0.04469 0.14661 0.0
H81 H 0.61268 0.05528 0.182 0.0
H82 H 0.47561 0.07711 0.19163 0.0
O83 O 0.58327 0.13713 0.15614 0.0
C84 C 0.57497 1.00613 0.1432 0.0
O85 O 0.53126 1.0024 0.14222 0.0
N86 N 0.4926 0.1213 0.15365 0.0
C87 C 0.41058 0.16438 0.15414 0.0
C88 C 0.45027 0.18872 0.15133 0.0
C89 C 0.49086 0.16638 0.15057 0.0
C90 C 0.45422 0.09687 0.15524 0.0
C91 C 0.41274 0.1178 0.15593 0.0
H92 H 0.52028 0.18538 0.14667 0.0
H93 H 0.456 0.06079 0.15599 0.0
H94 H 0.5775 0.1644 0.11919 0.0
H95 H 0.50785 0.0867 0.07708 0.0
H96 H 0.59416 0.03725 0.21967 0.0
H97 H 0.45003 0.2247 0.14949 0.0
H98 H 0.38271 0.09767 0.15741 0.0
C99 C 0.45926 0.32905 0.61371 0.0
C100 C 0.4482 0.33896 0.5942 0.0
N101 N 0.41972 0.37373 0.59418 0.0
N102 N 0.43704 0.35634 0.62642 0.0
C103 C 0.41592 0.38523 0.61385 0.0
H104 H 0.48122 0.30232 0.61815 0.0
Co105 Co 0.43299 0.35034 0.65539 0.0
C106 C 0.33602 0.37561 0.64393 0.0
O107 O 0.33938 0.34972 0.6281 0.0
N108 N 0.42883 0.34542 0.68396 0.0
C109 C 0.39753 0.33842 0.71425 0.0
C110 C 0.39072 0.33535 0.69397 0.0
C111 C 0.45858 0.35448 0.69883 0.0
N112 N 0.44019 0.35092 0.71748 0.0
O113 O 0.4695 0.40534 0.65806 0.0
H114 H 0.35909 0.32768 0.6871 0.0
H115 H 0.49253 0.36507 0.69607 0.0
O116 O 0.37032 0.38043 0.65561 0.0
C117 C 0.50979 0.38998 0.65646 0.0
O118 O 0.51464 0.3468 0.65388 0.0
N119 N 0.4083 0.29198 0.65271 0.0
C120 C 0.38987 0.21617 0.63081 0.0
C121 C 0.35502 0.23908 0.64063 0.0
C122 C 0.36513 0.27716 0.65187 0.0
C123 C 0.44194 0.26263 0.64855 0.0
C124 C 0.43367 0.22472 0.63695 0.0
H125 H 0.33787 0.29649 0.65785 0.0
H126 H 0.4762 0.27217 0.65132 0.0
H127 H 0.39595 0.41292 0.61911 0.0
H128 H 0.45846 0.31998 0.58117 0.0
H129 H 0.3725 0.33231 0.72572 0.0
H130 H 0.32031 0.23209 0.63723 0.0
H131 H 0.46151 0.20661 0.63046 0.0
C132 C 0.98371 0.161 0.95617 0.0
C133 C 0.9744 0.17663 0.97519 0.0
N134 N 0.98541 0.22032 0.9761 0.0
N135 N 1.00083 0.19441 0.94482 0.0
C136 C 1.00008 0.23038 0.95734 0.0
H137 H 0.97995 0.12677 0.95145 0.0
Co138 Co 0.02918 0.19102 0.91876 0.0
C139 C 0.96345 0.26872 0.90279 0.0
O140 O 0.93351 0.25043 0.89098 0.0
N141 N 0.05713 0.18849 0.89286 0.0
C142 C 0.11194 0.17844 0.87057 0.0
C143 C 0.10029 0.17662 0.89054 0.0
C144 C 0.04294 0.19667 0.87378 0.0
N145 N 0.07603 0.19109 0.85985 0.0
O146 O 0.98842 0.14232 0.91068 0.0
H147 H 0.12215 0.1675 0.90275 0.0
H148 H 1.00936 0.20729 0.87019 0.0
O149 O 0.99304 0.2436 0.91079 0.0
C150 C 1.01184 0.10749 0.91524 0.0
O151 O 0.05136 0.11416 0.92325 0.0
N152 N 0.07298 0.22993 0.92747 0.0
C153 C 0.13472 0.28442 0.94651 0.0
C154 C 0.11484 0.29794 0.92839 0.0
C155 C 0.08393 0.26997 0.91902 0.0
C156 C 0.09482 0.21463 0.94395 0.0
C157 C 0.12413 0.24207 0.95424 0.0
H158 H 0.06853 0.28051 0.90517 0.0
H159 H 0.08723 0.18174 0.94984 0.0
H160 H 1.01369 0.26263 0.95325 0.0
H161 H 0.96184 0.15668 0.98756 0.0
H162 H 0.14453 0.17066 0.86437 0.0
H163 H 0.1236 0.3293 0.92124 0.0
H164 H 0.13831 0.22987 0.9681 0.0
C165 C 0.33849 0.13714 0.43473 0.0
C166 C 0.3236 0.14801 0.4537 0.0
N167 N 0.30908 0.11054 0.46286 0.0
N168 N 0.33299 0.09292 0.4314 0.0
C169 C 0.31635 0.07747 0.44928 0.0
H170 H 0.35308 0.16037 0.42411 0.0
Co171 Co 0.35265 0.06282 0.40722 0.0
C172 C 0.28922 0.98438 0.42195 0.0
O173 O 0.29558 0.94295 0.42783 0.0
N174 N 0.37462 0.03427 0.3838 0.0
C175 C 0.40346 0.9837 0.3631 0.0
C176 C 0.3881 0.99152 0.38229 0.0
C177 C 0.38263 0.05196 0.36531 0.0
N178 N 0.39997 1.02167 0.35222 0.0
O179 O 0.40812 0.04851 0.42017 0.0
H180 H 0.3875 0.96763 0.39449 0.0
H181 H 0.37557 0.08642 0.36157 0.0
O182 O 0.3244 1.00718 0.41713 0.0
C183 C 0.43831 0.07876 0.4198 0.0
O184 O 0.4281 0.11866 0.41304 0.0
N185 N 0.3006 0.07709 0.39304 0.0
C186 C 0.22602 0.09876 0.37041 0.0
C187 C 0.24004 0.0545 0.37164 0.0
C188 C 0.27843 0.04458 0.38249 0.0
C189 C 0.28925 0.12076 0.39064 0.0
C190 C 0.25169 0.13232 0.37958 0.0
H191 H 0.28973 1.01034 0.38274 0.0
H192 H 0.30925 0.14687 0.39717 0.0
H193 H 0.30928 0.04268 0.45235 0.0
H194 H 0.32281 0.18122 0.46013 0.0
H195 H 0.4172 0.95242 0.35783 0.0
H196 H 0.22111 0.02788 0.36461 0.0
H197 H 0.2418 0.1671 0.37887 0.0
C198 C 0.53142 0.41468 0.95867 0.0
C199 C 0.52957 0.39694 0.97775 0.0
N200 N 0.55885 0.36281 0.97905 0.0
N201 N 0.56165 0.39215 0.94755 0.0
C202 C 0.57831 0.36122 0.96053 0.0
H203 H 0.50988 0.44061 0.95291 0.0
Co204 Co 0.56823 0.39776 0.91889 0.0
C205 C 0.58802 0.30506 0.90558 0.0
O206 O 0.56724 0.31378 0.88876 0.0
N207 N 0.57569 0.40291 0.88997 0.0
C208 C 0.61199 0.4056 0.86054 0.0
C209 C 0.61635 0.40595 0.88106 0.0
C210 C 0.54707 0.40061 0.87408 0.0
N211 N 0.56833 0.40195 0.85602 0.0
O212 O 0.62366 0.43075 0.92245 0.0
H213 H 0.64788 0.40636 0.88891 0.0
H214 H 0.51141 0.39596 0.87555 0.0
O215 O 0.5946 0.33663 0.91833 0.0
C216 C 0.60801 0.4706 0.92418 0.0
O217 O 0.56446 0.4758 0.9245 0.0
N218 N 0.51123 0.37507 0.91631 0.0
C219 C 0.42318 0.37332 0.92906 0.0
C220 C 0.4509 0.3363 0.93236 0.0
C221 C 0.49529 0.33786 0.92587 0.0
C222 C 0.48362 0.40975 0.91182 0.0
C223 C 0.43922 0.40929 0.91777 0.0
H224 H 0.51762 0.31201 0.93088 0.0
H225 H 0.49726 0.44018 0.90548 0.0
H226 H 0.60345 0.33716 0.95631 0.0
H227 H 0.50631 0.40704 0.98935 0.0
H228 H 0.63932 0.40576 0.84982 0.0
H229 H 0.43928 0.30789 0.94107 0.0
H230 H 0.41896 0.43868 0.9152 0.0
C231 C 0.16084 0.49608 0.46401 0.0
C232 C 0.18117 0.49 0.48217 0.0
N233 N 0.21417 0.45988 0.47999 0.0
N234 N 0.17884 0.46861 0.45009 0.0
C235 C 0.2123 0.44763 0.46033 0.0
H236 H 0.13603 0.52135 0.46095 0.0
Co237 Co 0.16741 0.479 0.4221 0.0
C238 C 0.25546 0.445 0.40491 0.0
O239 O 0.23655 0.42124 0.39073 0.0
N240 N 0.15838 0.49461 0.39444 0.0
C241 C 0.14351 0.54176 0.3694 0.0
C242 C 0.15139 0.5378 0.38966 0.0
C243 C 0.1552 0.47293 0.37648 0.0
N244 N 0.14547 0.50085 0.36103 0.0
O245 O 0.10256 0.492 0.42794 0.0
H246 H 0.15091 0.56477 0.40046 0.0
H247 H 0.15896 0.43721 0.37469 0.0
O248 O 0.23115 0.46774 0.41696 0.0
C249 C 0.076 0.46951 0.43947 0.0
O250 O 0.09241 0.43711 0.45052 0.0
N251 N 0.15008 0.41816 0.41671 0.0
C252 C 0.11827 0.33309 0.40636 0.0
C253 C 0.15847 0.33819 0.41704 0.0
C254 C 0.17362 0.38112 0.42222 0.0
C255 C 0.1106 0.41282 0.40655 0.0
C256 C 0.09385 0.37114 0.40171 0.0
H257 H 0.20501 0.38436 0.42991 0.0
H258 H 0.0915 0.44115 0.40148 0.0
H259 H 0.23752 0.42715 0.45323 0.0
H260 H 0.17322 0.50809 0.49577 0.0
H261 H 0.13509 0.57232 0.36159 0.0
H262 H 0.17895 0.30955 0.42067 0.0
H263 H 0.06239 0.36906 0.39377 0.0
C264 C 0.87072 0.70042 0.93795 0.0
C265 C 0.86164 0.71625 0.95698 0.0
N266 N 0.89902 0.73521 0.96438 0.0
N267 N 0.9138 0.70895 0.93319 0.0
C268 C 0.93029 0.72993 0.94974 0.0
H269 H 0.84713 0.68425 0.92806 0.0
Co270 Co 0.94147 0.69355 0.9082 0.0
C271 C 1.00578 0.7694 0.90166 0.0
O272 O 0.9998 0.76273 0.88239 0.0
N273 N 0.96989 0.67457 0.88385 0.0
C274 C 1.02232 0.65216 0.86213 0.0
C275 C 1.01439 0.6726 0.88029 0.0
C276 C 0.95215 0.65083 0.86843 0.0
N277 N 0.9829 0.6388 0.85446 0.0
O278 O 0.96861 0.64012 0.92068 0.0
H279 H 0.03982 0.68443 0.89048 0.0
H280 H 0.91738 0.64108 0.86783 0.0
O281 O 0.99108 0.73936 0.91417 0.0
C282 C 0.93984 0.60872 0.91755 0.0
O283 O 0.90115 0.62061 0.90998 0.0
N284 N 0.91098 0.74207 0.89504 0.0
C285 C 0.89606 0.81875 0.87237 0.0
C286 C 0.90234 0.82158 0.89313 0.0
C287 C 0.90865 0.78282 0.90425 0.0
C288 C 0.89595 0.73848 0.87577 0.0
C289 C 0.88975 0.77647 0.8639 0.0
H290 H 0.91619 0.78656 0.9199 0.0
H291 H 0.88947 0.70664 0.86913 0.0
H292 H 0.96448 0.74147 0.95102 0.0
H293 H 0.82954 0.7151 0.96458 0.0
H294 H 0.05488 0.64644 0.85546 0.0
H295 H 0.90347 0.85358 0.90072 0.0
H296 H 0.88096 0.77269 0.84825 0.0
C297 C 0.8876 0.09821 0.45957 0.0
C298 C 0.87153 0.09889 0.47892 0.0
N299 N 0.83269 0.07611 0.47956 0.0
N300 N 0.86052 0.07334 0.44779 0.0
C301 C 0.82612 0.06223 0.46041 0.0
H302 H 0.91628 0.11701 0.45428 0.0
Co303 Co 0.86607 0.07175 0.419 0.0
C304 C 0.77287 0.04317 0.4083 0.0
O305 O 0.78772 1.01062 0.39691 0.0
N306 N 0.87035 0.07602 0.39057 0.0
C307 C 0.88186 0.11475 0.36241 0.0
C308 C 0.88006 0.11671 0.38299 0.0
C309 C 0.86605 0.04964 0.37402 0.0
N310 N 0.87319 0.07248 0.35667 0.0
O311 O 0.93289 0.07604 0.42052 0.0
H312 H 0.88589 0.14614 0.39204 0.0
H313 H 0.85793 1.0144 0.37453 0.0
O314 O 0.80042 0.06902 0.41728 0.0
C315 C 0.96021 0.05519 0.43201 0.0
O316 O 0.94474 0.02798 0.44591 0.0
N317 N 0.87181 1.00766 0.41828 0.0
C318 C 0.88489 0.91509 0.41648 0.0
C319 C 0.85045 0.93324 0.42822 0.0
C320 C 0.84461 0.97943 0.42895 0.0
C321 C 0.90567 0.99001 0.40686 0.0
C322 C 0.91291 0.94417 0.40584 0.0
H323 H 0.81671 0.99178 0.43737 0.0
H324 H 0.92744 1.01137 0.39814 0.0
H325 H 0.79538 0.04675 0.45555 0.0
H326 H 0.88613 0.11712 0.49129 0.0
H327 H 0.89011 0.14224 0.35247 0.0
H328 H 0.82705 0.91193 0.43623 0.0
H329 H 0.94009 0.93169 0.39663 0.0
C330 C 0.54903 0.88905 0.96311 0.0
C331 C 0.5584 0.87133 0.98153 0.0
N332 N 0.59397 0.84423 0.97967 0.0
N333 N 0.57948 0.87523 0.94944 0.0
C334 C 0.60564 0.84644 0.95996 0.0
H335 H 0.51972 0.90862 0.95967 0.0
Co336 Co 0.56746 0.88381 0.92179 0.0
C337 C 0.61313 0.79916 0.90572 0.0
O338 O 0.63546 0.82004 0.8915 0.0
N339 N 0.55014 0.88962 0.89453 0.0
C340 C 0.50225 0.90213 0.8697 0.0
C341 C 0.50663 0.8947 0.88997 0.0
C342 C 0.57159 0.89308 0.87653 0.0
N343 N 0.54324 0.90164 0.86121 0.0
O344 O 0.54701 0.94697 0.92724 0.0
H345 H 0.47981 0.89478 0.90094 0.0
H346 H 0.60749 0.89137 0.87472 0.0
O347 O 0.58676 0.82126 0.9172 0.0
C348 C 0.56717 0.97553 0.93856 0.0
O349 O 0.60119 0.96221 0.94943 0.0
N350 N 0.62555 0.90878 0.91551 0.0
C351 C 0.70503 0.95038 0.90288 0.0
C352 C 0.70597 0.91066 0.91426 0.0
C353 C 0.66576 0.89062 0.92062 0.0
C354 C 0.62507 0.94815 0.90485 0.0
C355 C 0.66386 0.96978 0.89896 0.0
H356 H 0.66722 0.85949 0.92868 0.0
H357 H 0.59419 0.96308 0.89999 0.0
H358 H 0.63024 0.8248 0.95315 0.0
H359 H 0.53809 0.87522 0.9949 0.0
H360 H 0.4714 0.9098 0.86202 0.0
H361 H 0.73723 0.89391 0.91735 0.0
H362 H 0.6613 1.00057 0.89047 0.0
C363 C 0.64496 0.52802 0.4554 0.0
C364 C 0.6611 0.5323 0.47464 0.0
N365 N 0.70514 0.52274 0.4745 0.0
N366 N 0.67845 0.51564 0.443 0.0
C367 C 0.7148 0.5132 0.45507 0.0
H368 H 0.61073 0.53321 0.45086 0.0
Co369 Co 0.67339 0.5033 0.41515 0.0
C370 C 0.74674 0.43288 0.40855 0.0
O371 O 0.73622 0.42292 0.39 0.0
N372 N 0.66684 0.49072 0.38732 0.0
C373 C 0.64288 0.45595 0.35985 0.0
C374 C 0.65183 0.45144 0.3799 0.0
C375 C 0.66595 0.51895 0.37133 0.0
N376 N 0.65161 0.49842 0.35441 0.0
O377 O 0.62399 0.46263 0.42086 0.0
H378 H 0.6462 0.42151 0.38869 0.0
H379 H 0.67292 0.55442 0.37233 0.0
O380 O 0.72097 0.45812 0.41892 0.0
C381 C 0.58791 0.48329 0.4164 0.0
O382 O 0.59098 0.52481 0.41006 0.0
N383 N 0.71779 0.54593 0.40947 0.0
C384 C 0.78181 0.61226 0.40463 0.0
C385 C 0.78769 0.57085 0.39543 0.0
C386 C 0.75476 0.53811 0.39782 0.0
C387 C 0.71056 0.58725 0.41741 0.0
C388 C 0.74255 0.62085 0.4154 0.0
H389 H 0.75874 0.50708 0.38992 0.0
H390 H 0.68007 0.594 0.42565 0.0
H391 H 0.74793 0.50538 0.44964 0.0
H392 H 0.64148 0.54067 0.48779 0.0
H393 H 0.62971 0.43021 0.35009 0.0
H394 H 0.81716 0.56403 0.38642 0.0
H395 H 0.73678 0.65322 0.42221 0.0
C396 C 0.84508 0.95138 0.11639 0.0
C397 C 0.84373 0.9363 0.09684 0.0
N398 N 0.87985 0.91056 0.0934 0.0
N399 N 0.88211 0.93576 0.12542 0.0
C400 C 0.90275 0.91103 0.11093 0.0
H401 H 0.8201 0.97188 0.12367 0.0
Co402 Co 0.89749 0.94723 0.15274 0.0
C403 C 0.95234 0.86769 0.16482 0.0
O404 O 0.93547 0.87391 0.18283 0.0
N405 N 0.9148 0.96103 0.18003 0.0
C406 C 0.96303 0.97523 0.20482 0.0
C407 C 0.95858 0.9642 0.18493 0.0
C408 C 0.89352 0.97372 0.19728 0.0
N409 N 0.92199 0.98093 0.21273 0.0
O410 O 0.93589 0.99785 0.1444 0.0
H411 H 0.98595 0.95841 0.17459 0.0
H412 H 0.85811 0.97892 0.1987 0.0
O413 O 0.94506 0.89763 0.15112 0.0
C414 C 0.91125 0.03309 0.14408 0.0
O415 O 0.86804 0.02786 0.1469 0.0
N416 N 0.856 0.90234 0.16104 0.0
C417 C 0.82422 0.83167 0.18325 0.0
C418 C 0.84382 0.82397 0.16448 0.0
C419 C 0.85832 0.86028 0.15319 0.0
C420 C 0.82601 0.91035 0.17609 0.0
C421 C 0.81114 0.87508 0.18827 0.0
H422 H 0.87676 0.85384 0.1396 0.0
H423 H 0.81581 0.94401 0.17936 0.0
H424 H 0.93378 0.8933 0.11317 0.0
H425 H 0.81737 0.94264 0.08614 0.0
H426 H 0.99425 0.97951 0.21275 0.0
H427 H 0.85165 0.79039 0.15951 0.0
H428 H 0.7925 0.88181 0.20191 0.0
C429 C 0.57606 0.02943 0.62222 0.0
C430 C 0.59091 0.0296 0.60262 0.0
N431 N 0.63318 0.04552 0.60211 0.0
N432 N 0.6085 0.04533 0.63422 0.0
C433 C 0.64287 0.05499 0.62152 0.0
H434 H 0.54379 1.01767 0.62742 0.0
Co435 Co 0.60353 0.04746 0.66243 0.0
C436 C 0.69084 0.08678 0.6773 0.0
O437 O 0.68461 0.06261 0.69353 0.0
N438 N 0.59698 0.04972 0.69101 0.0
C439 C 0.58827 0.0802 0.72131 0.0
C440 C 0.59247 0.08861 0.70111 0.0
C441 C 0.59452 1.01796 0.70563 0.0
N442 N 0.58967 0.03568 0.72423 0.0
O443 O 0.55893 0.0963 0.66009 0.0
H444 H 0.59287 0.12135 0.69421 0.0
H445 H 0.59697 0.98251 0.70297 0.0
O446 O 0.65967 0.0874 0.66385 0.0
C447 C 0.51979 0.07846 0.66224 0.0
O448 O 0.51754 0.03536 0.6659 0.0
N449 N 0.63903 0.99605 0.66373 0.0
C450 C 0.67919 0.91203 0.66335 0.0
C451 C 0.70429 0.95073 0.65925 0.0
C452 C 0.68332 0.99223 0.6589 0.0
C453 C 0.61368 0.9586 0.66653 0.0
C454 C 0.63309 0.91632 0.66674 0.0
H455 H 0.70278 1.02054 0.65399 0.0
H456 H 0.57792 0.96171 0.66862 0.0
H457 H 0.67495 0.06723 0.62645 0.0
H458 H 0.57182 1.01869 0.58977 0.0
H459 H 0.58405 0.1051 0.73294 0.0
H460 H 0.73982 0.94915 0.65614 0.0
H461 H 0.61196 0.88729 0.66911 0.0
C462 C 0.59026 0.56741 0.1091 0.0
C463 C 0.59416 0.58461 0.0901 0.0
N464 N 0.61933 0.62198 0.09083 0.0
N465 N 0.61422 0.59228 0.12213 0.0
C466 C 0.63029 0.62626 0.11049 0.0
H467 H 0.56791 0.54046 0.11328 0.0
Co468 Co 0.60595 0.58794 0.15051 0.0
C469 C 0.6361 0.68113 0.16277 0.0
O470 O 0.66294 0.66649 0.17681 0.0
N471 N 0.59228 0.58496 0.17828 0.0
C472 C 0.54661 0.57247 0.20418 0.0
C473 C 0.54996 0.5748 0.18365 0.0
C474 C 0.61406 0.58934 0.19606 0.0
N475 N 0.58704 0.58142 0.21209 0.0
O476 O 0.59656 0.52259 0.14875 0.0
H477 H 0.5233 0.56839 0.17312 0.0
H478 H 0.64919 0.5973 0.19735 0.0
O479 O 0.61331 0.65337 0.15233 0.0
C480 C 0.61829 0.49265 0.13903 0.0
O481 O 0.6511 0.50438 0.12689 0.0
N482 N 0.66822 0.57681 0.15561 0.0
C483 C 0.75327 0.57256 0.1723 0.0
C484 C 0.74435 0.60197 0.15637 0.0
C485 C 0.70155 0.60349 0.14821 0.0
C486 C 0.67901 0.54287 0.16858 0.0
C487 C 0.72128 0.54022 0.17713 0.0
H488 H 0.69456 0.62972 0.13774 0.0
H489 H 0.65364 0.52059 0.17443 0.0
H490 H 0.64629 0.65566 0.11651 0.0
H491 H 0.57635 0.57239 0.07712 0.0
H492 H 0.51691 0.56313 0.21257 0.0
H493 H 0.7681 0.62769 0.15201 0.0
H494 H 0.72696 0.51659 0.18918 0.0
C495 C 0.95936 0.50098 0.61793 0.0
C496 C 0.94576 0.50499 0.5983 0.0
N497 N 0.90092 0.49972 0.59755 0.0
N498 N 0.92349 0.49314 0.62974 0.0
C499 C 0.88839 0.49263 0.61691 0.0
H500 H 0.99324 0.50462 0.62329 0.0
Co501 Co 0.92443 0.488 0.65799 0.0
C502 C 0.84511 0.41514 0.65709 0.0
O503 O 0.86447 0.37609 0.65923 0.0
N504 N 0.92529 0.48229 0.68615 0.0
C505 C 0.92416 0.45117 0.71641 0.0
C506 C 0.92063 0.44341 0.69617 0.0
C507 C 0.9321 0.5133 0.70066 0.0
N508 N 0.93123 0.49525 0.71935 0.0
O509 O 0.96971 0.43961 0.65586 0.0
H510 H 0.91584 0.41119 0.68917 0.0
H511 H 0.93728 0.54844 0.6975 0.0
O512 O 0.86937 0.45051 0.65688 0.0
C513 C 1.00748 0.45747 0.66078 0.0
O514 O 1.00735 0.49987 0.66594 0.0
N515 N 0.88737 0.53763 0.66025 0.0
C516 C 0.83957 0.61699 0.66342 0.0
C517 C 0.82339 0.57759 0.67239 0.0
C518 C 0.84798 0.53819 0.67071 0.0
C519 C 0.90415 0.57577 0.65192 0.0
C520 C 0.88049 0.61561 0.65303 0.0
H521 H 0.83591 0.50848 0.67827 0.0
H522 H 0.93626 0.57526 0.64437 0.0
H523 H 0.85425 0.48755 0.62177 0.0
H524 H 0.96745 0.51245 0.58569 0.0
H525 H 0.92268 0.42586 0.72801 0.0
H526 H 0.79257 0.57735 0.681 0.0
H527 H 0.89419 0.645 0.64571 0.0
H528 H 0.987 0.3115 0.97798 0.0
H529 H 0.98961 0.19325 1.01518 0.0
H530 H 0.99407 0.35804 1.00781 0.0
H531 H 0.99698 0.23959 0.04488 0.0
H532 H 0.97056 0.33745 0.09669 0.0
H533 H 0.96089 0.29057 0.06706 0.0
H534 H 0.04576 0.38012 1.03295 0.0
H535 H 0.05503 0.42691 0.06242 0.0
C536 C 0.9892 0.29527 0.99246 0.0
C537 C 0.98759 0.24831 0.99394 0.0
C538 C 0.99342 0.32207 1.00967 0.0
C539 C 0.99629 0.30285 1.02896 0.0
C540 C 0.99417 0.25592 1.03044 0.0
C541 C 0.98989 0.22915 1.01325 0.0
C542 C 0.98747 0.347 0.08294 0.0
C543 C 1.01338 0.38639 0.0821 0.0
C544 C 0.98192 0.32001 0.06585 0.0
C545 C 1.00222 0.33146 0.04736 0.0
C546 C 0.02865 0.37051 0.04666 0.0
C547 C 0.0341 0.39746 0.06369 0.0
H548 H 0.23838 0.05834 0.47393 0.0
H549 H 0.32949 0.15841 0.49617 0.0
H550 H 0.19682 0.06067 0.50582 0.0
H551 H 0.28848 0.16047 0.52807 0.0
H552 H 0.22259 0.12286 0.58966 0.0
H553 H 0.26796 0.11416 0.55899 0.0
H554 H 0.14796 0.11739 0.52343 0.0
H555 H 0.10327 0.12738 0.55378 0.0
C556 C 0.25003 0.08022 0.48575 0.0
C557 C 0.28736 0.10814 0.48243 0.0
C558 C 0.22598 0.08191 0.50399 0.0
C559 C 0.23908 0.11089 0.51962 0.0
C560 C 0.27743 0.13756 0.51653 0.0
C561 C 0.30088 0.13653 0.49816 0.0
C562 C 0.2061 0.12244 0.57527 0.0
C563 C 0.15927 0.12644 0.57433 0.0
C564 C 0.232 0.117 0.55767 0.0
C565 C 0.21174 0.11498 0.53861 0.0
C566 C 0.16485 0.11825 0.53776 0.0
C567 C 0.13911 0.12404 0.55528 0.0
H568 H 0.56518 0.22589 0.09666 0.0
H569 H 0.54825 0.12247 0.05223 0.0
H570 H 0.57324 0.28138 0.06985 0.0
H571 H 0.5542 0.17759 1.02568 0.0
H572 H 0.59671 0.27927 0.97922 0.0
H573 H 0.59943 0.22621 1.00687 0.0
H574 H 0.53301 0.3215 0.04532 0.0
H575 H 0.53204 0.37515 1.01799 0.0
C576 C 0.56337 0.21478 0.08124 0.0
C577 C 0.55558 0.16933 0.07684 0.0
C578 C 0.56749 0.24684 0.06575 0.0
C579 C 0.56416 0.23453 0.04532 0.0
C580 C 0.55753 0.18888 0.04103 0.0
C581 C 0.55344 0.15701 0.05644 0.0
C582 C 0.5831 0.28937 0.99355 0.0
C583 C 0.56359 0.3319 0.99595 0.0
C584 C 0.58424 0.25846 1.00953 0.0
C585 C 0.56597 0.26884 1.02856 0.0
C586 C 0.54777 0.31187 1.03111 0.0
C587 C 0.54669 0.34276 1.01517 0.0
H588 H 0.23937 0.50977 0.5122 0.0
H589 H 0.26442 0.38374 0.48279 0.0
H590 H 0.28939 0.48926 0.53906 0.0
H591 H 0.31547 0.36306 0.51001 0.0
H592 H 0.43551 0.3606 0.55411 0.0
H593 H 0.38726 0.38011 0.52612 0.0
H594 H 0.29313 0.43962 0.5674 0.0
H595 H 0.34111 0.42013 0.59536 0.0
C596 C 0.25513 0.47733 0.51147 0.0
C597 C 0.24682 0.44814 0.49528 0.0
C598 C 0.2841 0.46554 0.52703 0.0
C599 C 0.30624 0.42415 0.52705 0.0
C600 C 0.2992 0.39533 0.51057 0.0
C601 C 0.26989 0.40715 0.4949 0.0
C602 C 0.40456 0.37781 0.55734 0.0
C603 C 0.39274 0.38875 0.57729 0.0
C604 C 0.37665 0.38886 0.54117 0.0
C605 C 0.33605 0.41154 0.54431 0.0
C606 C 0.32438 0.42281 0.56421 0.0
C607 C 0.35219 0.41166 0.58038 0.0
H608 H 0.91112 0.82554 0.09003 0.0
H609 H 0.86907 0.93909 0.05517 0.0
H610 H 0.92008 0.78176 0.05902 0.0
H611 H 0.87907 0.89597 1.02421 0.0
H612 H 0.94251 0.8135 0.97179 0.0
H613 H 0.94238 0.85634 1.00328 0.0
H614 H 0.86366 0.75278 1.03168 0.0
H615 H 0.86291 0.71072 1.00011 0.0
C616 C 0.90457 0.84138 0.07573 0.0
C617 C 0.8894 0.88586 0.0751 0.0
C618 C 0.9094 0.81624 0.05796 0.0
C619 C 0.90035 0.83529 0.03905 0.0
C620 C 0.88666 0.88025 0.03844 0.0
C621 C 0.88074 0.90495 0.0562 0.0
C622 C 0.9257 0.79968 0.98483 0.0
C623 C 0.90278 0.75861 0.98341 0.0
C624 C 0.92534 0.82434 1.00285 0.0
C625 C 0.90304 0.80805 1.0201 0.0
C626 C 0.88144 0.76625 1.01881 0.0
C627 C 0.88084 0.7422 1.00068 0.0
H628 H 0.85696 0.07707 0.51874 0.0
H629 H 0.74212 0.06261 0.48028 0.0
H630 H 0.80901 0.06988 0.54815 0.0
H631 H 0.69388 0.05565 0.5098 0.0
H632 H 0.62658 1.00044 0.56673 0.0
H633 H 0.67408 1.00767 0.5372 0.0
H634 H 0.75344 0.10742 0.56758 0.0
H635 H 0.7059 0.09996 0.59727 0.0
C636 C 0.82139 0.0728 0.5165 0.0
C637 C 0.80365 0.07071 0.49698 0.0
C638 C 0.79373 0.06873 0.53346 0.0
C639 C 0.74728 0.06242 0.53153 0.0
C640 C 0.7295 0.05991 0.512 0.0
C641 C 0.75726 0.06392 0.49498 0.0
C642 C 0.65383 0.02429 0.56715 0.0
C643 C 0.662 0.04973 0.58455 0.0
C644 C 0.68121 0.02848 0.55008 0.0
C645 C 0.71778 0.05825 0.5498 0.0
C646 C 0.72608 0.08363 0.56722 0.0
C647 C 0.69868 0.07939 0.58433 0.0
H648 H 0.63227 0.76193 0.97521 0.0
H649 H 0.59117 0.85843 1.01966 0.0
H650 H 0.64882 0.70849 1.00188 0.0
H651 H 0.60461 0.8047 0.04607 0.0
H652 H 0.64675 0.70953 0.09316 0.0
H653 H 0.65195 0.76323 0.06597 0.0
H654 H 0.61065 0.66135 1.02397 0.0
H655 H 0.60875 0.60699 0.05079 0.0
C656 C 0.62725 0.77199 0.99064 0.0
C657 C 0.60974 0.81438 0.99521 0.0
C658 C 0.63613 0.74108 1.00601 0.0
C659 C 0.62751 0.75169 1.02631 0.0
C660 C 0.6122 0.79498 1.03079 0.0
C661 C 0.60379 0.82582 1.01552 0.0
C662 C 0.63954 0.6981 0.07814 0.0
C663 C 0.6263 0.6536 0.0745 0.0
C664 C 0.64204 0.7293 0.06243 0.0
C665 C 0.63095 0.71721 0.04262 0.0
C666 C 0.61975 0.67228 0.03887 0.0
C667 C 0.61784 0.64099 0.05449 0.0
H668 H 0.69695 0.56832 0.50961 0.0
H669 H 0.78041 0.47271 0.47888 0.0
H670 H 0.7441 0.56274 0.53916 0.0
H671 H 0.82725 0.46639 0.5085 0.0
H672 H 0.92696 0.49483 0.55826 0.0
H673 H 0.88084 0.50224 0.52869 0.0
H674 H 0.7636 0.51586 0.56631 0.0
H675 H 0.81012 0.51086 0.59602 0.0
C676 C 0.72519 0.54582 0.50916 0.0
C677 C 0.73459 0.52087 0.49174 0.0
C678 C 0.75229 0.54246 0.52621 0.0
C679 C 0.78962 0.51385 0.52647 0.0
C680 C 0.79931 0.48929 0.50893 0.0
C681 C 0.77232 0.49288 0.49183 0.0
C682 C 0.89148 0.4999 0.5604 0.0
C683 C 0.87276 0.5025 0.57984 0.0
C684 C 0.86472 0.50358 0.54326 0.0
C685 C 0.81819 0.5097 0.54489 0.0
C686 C 0.79932 0.51187 0.5643 0.0
C687 C 0.82613 0.5084 0.58148 0.0
H688 H 0.94076 0.32793 0.13253 0.0
H689 H 0.9497 0.29236 0.1951 0.0
H690 H 0.93903 0.24817 0.12368 0.0
H691 H 0.94773 0.21353 0.18637 0.0
H692 H 0.97942 0.07253 0.16577 0.0
H693 H 0.99146 0.15317 0.1707 0.0
H694 H 0.89021 0.18149 0.12665 0.0
H695 H 0.87825 0.1014 0.12193 0.0
C696 C 0.94238 0.30333 0.1444 0.0
C697 C 0.94534 0.31723 0.16455 0.0
C698 C 0.94127 0.25738 0.13935 0.0
C699 C 0.94381 0.2238 0.15426 0.0
C700 C 0.94656 0.2379 0.17436 0.0
C701 C 0.94702 0.28356 0.1794 0.0
C702 C 0.961 0.09598 0.15661 0.0
C703 C 0.92844 0.08024 0.14317 0.0
C704 C 0.96727 0.14238 0.15967 0.0
C705 C 0.94151 0.17442 0.14923 0.0
C706 C 0.91099 0.15838 0.1349 0.0
C707 C 0.90425 0.11221 0.13212 0.0
H708 H 0.23957 0.17402 0.67528 0.0
H709 H 0.24207 0.0579 0.63698 0.0
H710 H 0.32158 0.17351 0.6765 0.0
H711 H 0.32321 0.05658 0.63866 0.0
H712 H 0.46888 0.12229 0.69038 0.0
H713 H 0.3879 0.13502 0.68881 0.0
H714 H 0.38869 0.09355 0.62682 0.0
H715 H 0.46922 0.081 0.62859 0.0
C716 C 0.25735 0.14822 0.66718 0.0
C717 C 0.23342 0.11616 0.65593 0.0
C718 C 0.3047 0.14774 0.66798 0.0
C719 C 0.32989 0.1153 0.65749 0.0
C720 C 0.30573 0.0828 0.64664 0.0
C721 C 0.25866 0.08324 0.64587 0.0
C722 C 0.45204 0.118 0.67616 0.0
C723 C 0.47613 0.10203 0.65941 0.0
C724 C 0.40525 0.12472 0.67529 0.0
C725 C 0.38079 0.1146 0.65778 0.0
C726 C 0.40556 0.10096 0.64075 0.0
C727 C 0.45222 0.09469 0.64159 0.0
H728 H 0.59841 0.45566 0.17528 0.0
H729 H 0.6258 0.42185 0.11358 0.0
H730 H 0.59724 0.37702 0.18409 0.0
H731 H 0.62036 0.34259 0.12177 0.0
H732 H 0.64036 0.20084 0.14287 0.0
H733 H 0.6509 0.28026 0.13557 0.0
H734 H 0.55926 0.31285 0.18388 0.0
H735 H 0.55227 0.23496 0.19203 0.0
C736 C 0.60296 0.43117 0.16349 0.0
C737 C 0.61189 0.44479 0.14374 0.0
C738 C 0.6021 0.38575 0.16848 0.0
C739 C 0.60847 0.35255 0.1537 0.0
C740 C 0.61634 0.36659 0.13377 0.0
C741 C 0.61877 0.41213 0.12895 0.0
C742 C 0.62356 0.22528 0.15219 0.0
C743 C 0.59597 0.21141 0.16816 0.0
C744 C 0.62892 0.27095 0.14784 0.0
C745 C 0.60578 0.3038 0.159 0.0
C746 C 0.57879 0.28945 0.17515 0.0
C747 C 0.57456 0.24421 0.17983 0.0
H748 H 0.27475 0.40682 0.6176 0.0
H749 H 0.29108 0.37985 0.68061 0.0
H750 H 0.19487 0.41798 0.62263 0.0
H751 H 0.21048 0.39183 0.68589 0.0
H752 H 0.07245 0.46605 0.68854 0.0
H753 H 0.15116 0.44643 0.68582 0.0
H754 H 0.1249 0.37946 0.62976 0.0
H755 H 0.04537 0.39996 0.6325 0.0
C756 C 0.26134 0.40381 0.63267 0.0
C757 C 0.28982 0.39253 0.64868 0.0
C758 C 0.2151 0.40968 0.63552 0.0
C759 C 0.19528 0.40508 0.65462 0.0
C760 C 0.22409 0.39573 0.6709 0.0
C761 C 0.27063 0.38938 0.66797 0.0
C762 C 0.08311 0.44607 0.67584 0.0
C763 C 0.05211 0.43437 0.66083 0.0
C764 C 0.12861 0.43479 0.67428 0.0
C765 C 0.14528 0.41179 0.65744 0.0
C766 C 0.11383 0.39792 0.64283 0.0
C767 C 0.06788 0.40894 0.64453 0.0
H768 H 1.02059 0.56054 0.91848 0.0
H769 H 0.87728 0.54349 0.9206 0.0
H770 H 0.02905 0.47847 0.91589 0.0
H771 H 0.88565 0.46326 0.91768 0.0
H772 H 0.9113 0.33213 0.88449 0.0
H773 H 0.90953 0.41273 0.8898 0.0
H774 H 1.01319 0.40134 0.93418 0.0
H775 H 1.01386 0.32024 0.92937 0.0
C776 C 0.99102 0.53955 0.91882 0.0
C777 C 0.94823 0.5592 0.91969 0.0
C778 C 0.9958 0.49241 0.91719 0.0
C779 C 0.95794 0.46392 0.91614 0.0
C780 C 0.91559 0.48375 0.91796 0.0
C781 C 0.91088 0.53017 0.91978 0.0
C782 C 0.93382 0.34645 0.89543 0.0
C783 C 0.96317 0.3188 0.90626 0.0
C784 C 0.93279 0.39302 0.89849 0.0
C785 C 0.96133 0.41409 0.91241 0.0
C786 C 0.99111 0.38671 0.92313 0.0
C787 C 0.99161 0.33986 0.92028 0.0
H788 H 0.02646 0.0759 0.45814 0.0
H789 H 1.00374 0.03136 0.39753 0.0
H790 H 0.10704 0.0629 0.45382 0.0
H791 H 0.0837 1.01534 0.39372 0.0
H792 H 0.21528 0.93396 0.41501 0.0
H793 H 0.13663 0.95573 0.41558 0.0
H794 H 0.17473 0.09214 0.42723 0.0
H795 H 0.25254 0.07146 0.42547 0.0
C796 C 0.03887 0.06413 0.44379 0.0
C797 C 1.00899 0.05532 0.42808 0.0
C798 C 0.08482 0.05644 0.44136 0.0
C799 C 0.10156 0.03801 0.42346 0.0
C800 C 0.07172 0.02966 0.40765 0.0
C801 C 0.026 0.03911 0.4098 0.0
C802 C 0.20722 0.96877 0.41759 0.0
C803 C 0.24154 1.0005 0.42073 0.0
C804 C 0.162 0.98115 0.41785 0.0
C805 C 0.14958 0.0255 0.42175 0.0
C806 C 0.18334 0.05749 0.42456 0.0
C807 C 0.22856 0.04527 0.42376 0.0
H808 H 0.5853 0.26851 0.94342 0.0
H809 H 0.59514 0.23282 0.88093 0.0
H810 H 0.5746 0.1904 0.95228 0.0
H811 H 0.58601 0.15421 0.88969 0.0
H812 H 0.52595 1.02113 0.90769 0.0
H813 H 0.532 0.10118 0.90043 0.0
H814 H 0.60679 0.12005 0.95511 0.0
H815 H 0.59893 0.04126 0.96268 0.0
C816 C 0.58677 0.24391 0.93163 0.0
C817 C 0.59152 0.25718 0.9115 0.0
C818 C 0.58021 0.19882 0.93666 0.0
C819 C 0.57875 0.16554 0.9217 0.0
C820 C 0.58563 0.17871 0.90163 0.0
C821 C 0.59167 0.22385 0.89662 0.0
C822 C 0.54254 0.04268 0.9184 0.0
C823 C 0.56199 0.02462 0.93574 0.0
C824 C 0.54678 0.08854 0.91408 0.0
C825 C 0.57064 0.11738 0.92698 0.0
C826 C 0.58794 0.09942 0.94481 0.0
C827 C 0.5835 0.05389 0.94915 0.0
H828 H 0.54018 0.46664 0.3832 0.0
H829 H 0.53412 0.45625 0.44761 0.0
H830 H 0.46015 0.4519 0.38118 0.0
H831 H 0.4534 0.44083 0.44577 0.0
H832 H 0.30592 0.48491 0.43432 0.0
H833 H 0.38711 0.48454 0.43796 0.0
H834 H 0.39876 0.40086 0.38545 0.0
H835 H 0.31772 0.40194 0.38158 0.0
C836 C 0.52183 0.45939 0.39691 0.0
C837 C 0.54347 0.46156 0.41552 0.0
C838 C 0.4758 0.45109 0.39578 0.0
C839 C 0.4499 0.44539 0.41331 0.0
C840 C 0.47209 0.44552 0.43196 0.0
C841 C 0.51844 0.45353 0.43304 0.0
C842 C 0.32575 0.46638 0.42354 0.0
C843 C 0.30506 0.44387 0.4075 0.0
C844 C 0.37243 0.46575 0.42577 0.0
C845 C 0.39984 0.44269 0.41201 0.0
C846 C 0.37898 0.41946 0.39621 0.0
C847 C 0.33234 0.42001 0.39401 0.0
H848 H 0.98032 0.81597 0.93637 0.0
H849 H 0.04776 0.83379 0.87958 0.0
H850 H 0.97338 0.89711 0.93961 0.0
H851 H 0.04323 0.91429 0.88324 0.0
H852 H 0.99345 0.05619 0.88181 0.0
H853 H 0.99427 0.97431 0.8802 0.0
H854 H 1.00418 0.96818 0.94475 0.0
H855 H 1.00298 0.04937 0.94613 0.0
C856 C 0.99484 0.83698 0.92482 0.0
C857 C 1.01385 0.81758 0.90751 0.0
C858 C 0.99069 0.88397 0.92661 0.0
C859 C 1.00634 0.91322 0.91135 0.0
C860 C 0.02893 0.89363 0.89499 0.0
C861 C 0.03236 0.84697 0.89307 0.0
C862 C 0.9937 0.03727 0.89567 0.0
C863 C 0.9966 0.05974 0.91413 0.0
C864 C 0.99524 0.99002 0.8948 0.0
C865 C 0.9998 0.96363 0.91236 0.0
C866 C 1.00017 0.98641 0.93085 0.0
C867 C 0.999 0.03342 0.93167 0.0
H868 H 0.71185 0.97563 0.41027 0.0
H869 H 0.72414 0.11877 0.41542 0.0
H870 H 0.63199 0.98055 0.41677 0.0
H871 H 0.64363 0.12472 0.42023 0.0
H872 H 0.5008 0.12845 0.43916 0.0
H873 H 0.58145 0.11759 0.4392 0.0
H874 H 0.56422 0.99674 0.40429 0.0
H875 H 0.48356 1.00616 0.40597 0.0
C876 C 0.69718 1.00832 0.41253 0.0
C877 C 0.72416 0.04685 0.41222 0.0
C878 C 0.6511 1.0113 0.41613 0.0
C879 C 0.63032 0.05311 0.41893 0.0
C880 C 0.65779 0.09169 0.41864 0.0
C881 C 0.70414 0.08849 0.41565 0.0
C882 C 0.51448 0.09894 0.43203 0.0
C883 C 0.48601 0.06789 0.42278 0.0
C884 C 0.56092 0.09299 0.43169 0.0
C885 C 0.58035 0.05664 0.4214 0.0
C886 C 0.55129 0.02482 0.41269 0.0
C887 C 0.50475 0.03011 0.41361 0.0
H888 H 0.64052 0.51097 0.89071 0.0
H889 H 0.62725 0.52713 0.9546 0.0
H890 H 0.6474 0.59179 0.88671 0.0
H891 H 0.63565 0.60794 0.95092 0.0
H892 H 0.66855 0.74237 0.88485 0.0
H893 H 0.68139 0.66286 0.89047 0.0
H894 H 0.58739 0.66499 0.93993 0.0
H895 H 0.57565 0.74468 0.93465 0.0
C896 C 0.64205 0.53162 0.90405 0.0
C897 C 0.63459 0.51238 0.92303 0.0
C898 C 0.64528 0.57831 0.90176 0.0
C899 C 0.64103 0.60707 0.91844 0.0
C900 C 0.63791 0.58731 0.93762 0.0
C901 C 0.63438 0.54071 0.93984 0.0
C902 C 0.65066 0.72595 0.89698 0.0
C903 C 0.62073 0.75023 0.90918 0.0
C904 C 0.65798 0.68008 0.90018 0.0
C905 C 0.63562 0.65687 0.91571 0.0
C906 C 0.60603 0.6814 0.92804 0.0
C907 C 0.59879 0.72728 0.92486 0.0
H908 H 0.78324 0.43643 0.44625 0.0
H909 H 0.81966 0.42737 0.38369 0.0
H910 H 0.86127 0.45157 0.45474 0.0
H911 H 0.8977 0.43996 0.39214 0.0
H912 H 0.02709 0.50859 0.40915 0.0
H913 H 0.94722 0.49857 0.40256 0.0
H914 H 0.93386 0.42067 0.45691 0.0
H915 H 1.01276 0.43189 0.46374 0.0
C916 C 0.80797 0.43726 0.43435 0.0
C917 C 0.79487 0.43146 0.41431 0.0
C918 C 0.85287 0.44562 0.43919 0.0
C919 C 0.88604 0.44795 0.42409 0.0
C920 C 0.87315 0.43972 0.40415 0.0
C921 C 0.8283 0.43154 0.39934 0.0
C922 C 1.00684 0.49028 0.41992 0.0
C923 C 0.02651 0.47103 0.43696 0.0
C924 C 0.9611 0.48388 0.416 0.0
C925 C 0.9339 0.45812 0.42903 0.0
C926 C 0.95333 0.44086 0.44655 0.0
C927 C 0.99885 0.44724 0.45045 0.0
H928 H 0.94306 0.81755 0.12956 0.0
H929 H 0.99101 0.80894 0.19029 0.0
H930 H 0.94515 0.73587 0.127 0.0
H931 H 0.99541 0.72837 0.18754 0.0
H932 H 0.95856 0.58385 0.18873 0.0
H933 H 0.95242 0.66505 0.18851 0.0
H934 H 0.98213 0.66654 0.125 0.0
H935 H 0.98777 0.5849 0.12548 0.0
C936 C 0.95528 0.79854 0.14219 0.0
C937 C 0.96636 0.82039 0.16024 0.0
C938 C 0.95631 0.75127 0.14079 0.0
C939 C 0.96909 0.72439 0.15729 0.0
C940 C 0.9835 0.74688 0.17469 0.0
C941 C 0.98193 0.79367 0.17615 0.0
C942 C 0.96187 0.60139 0.17456 0.0
C943 C 0.97197 0.57747 0.157 0.0
C944 C 0.9595 0.64841 0.17445 0.0
C945 C 0.96734 0.67351 0.15675 0.0
C946 C 0.9753 0.64918 0.13894 0.0
C947 C 0.97802 0.60202 0.13913 0.0
H948 H 0.73308 0.10802 0.64099 0.0
H949 H 0.75789 0.09816 0.70449 0.0
H950 H 0.81307 0.1187 0.63496 0.0
H951 H 0.83726 0.1104 0.69867 0.0
H952 H 0.98609 0.0989 0.68299 0.0
H953 H 0.90611 0.081 0.68753 0.0
H954 H 0.8743 0.16546 0.63701 0.0
H955 H 0.95278 0.18141 0.63219 0.0
C956 C 0.75527 0.10898 0.65373 0.0
C957 C 0.73829 0.10207 0.67323 0.0
C958 C 0.80164 0.11509 0.65031 0.0
C959 C 0.83278 0.11498 0.66629 0.0
C960 C 0.81533 0.10959 0.68582 0.0
C961 C 0.76922 0.10321 0.68919 0.0
C962 C 0.96202 0.11262 0.67261 0.0
C963 C 0.97638 0.14165 0.65723 0.0
C964 C 0.91582 0.103 0.67535 0.0
C965 C 0.88269 0.12201 0.66276 0.0
C966 C 0.89781 0.14949 0.64698 0.0
C967 C 0.94342 0.15897 0.64429 0.0
H968 H 0.69075 0.74778 0.17689 0.0
H969 H 0.57688 0.72517 0.13864 0.0
H970 H 0.68697 0.82778 0.16998 0.0
H971 H 0.57164 0.80499 0.13242 0.0
H972 H 0.579 0.94525 0.11344 0.0
H973 H 0.60136 0.86729 0.11648 0.0
H974 H 0.64579 0.89264 0.17707 0.0
H975 H 0.62556 0.97127 0.17334 0.0
C976 C 0.6647 0.75991 0.16709 0.0
C977 C 0.63393 0.72995 0.15842 0.0
C978 C 0.66242 0.80596 0.16316 0.0
C979 C 0.62903 0.82343 0.15058 0.0
C980 C 0.59852 0.79317 0.14182 0.0
C981 C 0.60115 0.74717 0.14557 0.0
C982 C 0.59533 0.93441 0.12708 0.0
C983 C 0.60122 0.9644 0.14302 0.0
C984 C 0.60734 0.88945 0.12903 0.0
C985 C 0.62433 0.87289 0.14725 0.0
C986 C 0.63307 0.90381 0.16275 0.0
C987 C 0.62176 0.94913 0.16062 0.0
H988 H 0.56199 0.39435 0.68962 0.0
H989 H 0.55762 0.43617 0.62786 0.0
H990 H 0.64282 0.4044 0.68978 0.0
H991 H 0.63918 0.44743 0.6281 0.0
H992 H 0.79098 0.48456 0.64388 0.0
H993 H 0.70896 0.48896 0.64444 0.0
H994 H 0.70234 0.35802 0.67139 0.0
H995 H 0.78385 0.35306 0.67038 0.0
C996 C 0.57779 0.40809 0.67634 0.0
C997 C 0.55239 0.41585 0.65893 0.0
C998 C 0.62463 0.41301 0.67631 0.0
C999 C 0.64805 0.42616 0.65888 0.0
C1000 C 0.62251 0.43744 0.64187 0.0
C1001 C 0.57546 0.43176 0.64182 0.0
C1002 C 0.77216 0.45657 0.64986 0.0
C1003 C 0.79465 0.41834 0.65704 0.0
C1004 C 0.72491 0.45912 0.65015 0.0
C1005 C 0.69863 0.42403 0.65812 0.0
C1006 C 0.72119 0.386 0.66535 0.0
C1007 C 0.76819 0.38302 0.66464 0.0
H1008 H 0.15933 0.55215 0.32792 0.0
H1009 H 0.10565 0.42497 0.34706 0.0
H1010 H 0.13362 0.53787 0.29379 0.0
H1011 H 0.08015 0.41037 0.3128 0.0
H1012 H 0.98771 0.4335 0.25761 0.0
H1013 H 1.02172 0.44011 0.29063 0.0
H1014 H 0.14277 0.49107 0.26327 0.0
H1015 H 0.10825 0.48456 0.23001 0.0
C1016 C 0.14237 0.52091 0.32481 0.0
C1017 C 0.13445 0.48986 0.34037 0.0
C1018 C 0.1279 0.51252 0.30514 0.0
C1019 C 0.1045 0.47302 0.30039 0.0
C1020 C 0.09764 0.44137 0.31585 0.0
C1021 C 0.11265 0.44953 0.33551 0.0
C1022 C 1.02166 0.44598 0.25858 0.0
C1023 C 0.04504 0.45879 0.24107 0.0
C1024 C 0.0414 0.44939 0.27758 0.0
C1025 C 0.08511 0.46622 0.27979 0.0
C1026 C 0.10894 0.47828 0.26223 0.0
C1027 C 0.08932 0.47423 0.24311 0.0
H1028 H 0.05856 0.15472 0.72904 0.0
H1029 H 0.12217 0.28299 0.73714 0.0
H1030 H 0.05104 0.14693 0.76569 0.0
H1031 H 0.1145 0.27549 0.77337 0.0
H1032 H 0.1432 0.22409 0.83682 0.0
H1033 H 0.14637 0.2308 0.80044 0.0
H1034 H 1.0115 0.1799 0.79648 0.0
H1035 H 1.00849 0.17307 0.83337 0.0
C1036 C 0.07114 0.18115 0.73857 0.0
C1037 C 0.09105 0.21951 0.72995 0.0
C1038 C 0.06639 0.17692 0.75963 0.0
C1039 C 0.08213 0.21056 0.7727 0.0
C1040 C 0.10222 0.24864 0.76397 0.0
C1041 C 0.10639 0.25311 0.74305 0.0
C1042 C 0.11407 0.21435 0.82827 0.0
C1043 C 0.07559 0.19798 0.83819 0.0
C1044 C 0.11579 0.21846 0.8073 0.0
C1045 C 0.07925 0.20591 0.79528 0.0
C1046 C 0.04049 0.18961 0.80514 0.0
C1047 C 0.03852 0.18612 0.82632 0.0
H1048 H 0.41304 0.95688 0.32404 0.0
H1049 H 0.4165 0.10017 0.33198 0.0
H1050 H 0.43983 0.96561 0.28987 0.0
H1051 H 0.44289 0.1088 0.2973 0.0
H1052 H 0.4577 0.10468 0.22693 0.0
H1053 H 0.42349 0.09833 0.26053 0.0
H1054 H 0.51024 0.98724 0.27375 0.0
H1055 H 0.5437 0.99343 0.2405 0.0
C1056 C 0.41968 0.99037 0.31866 0.0
C1057 C 0.41315 0.0277 0.33125 0.0
C1058 C 0.43503 0.99536 0.29887 0.0
C1059 C 0.44415 0.03788 0.29074 0.0
C1060 C 0.43608 0.07549 0.30296 0.0
C1061 C 0.42093 0.07049 0.32294 0.0
C1062 C 0.46899 0.07864 0.23697 0.0
C1063 C 0.50355 0.0496 0.23095 0.0
C1064 C 0.44973 0.07526 0.25632 0.0
C1065 C 0.46397 0.04222 0.26999 0.0
C1066 C 0.49793 1.01282 0.2637 0.0
C1067 C 0.51745 1.01656 0.2446 0.0
H1068 H 0.6048 0.42883 0.82039 0.0
H1069 H 0.48925 0.36225 0.84579 0.0
H1070 H 0.5753 0.41718 0.78681 0.0
H1071 H 0.45972 0.35066 0.8122 0.0
H1072 H 0.39674 0.3767 0.75146 0.0
H1073 H 0.42784 0.38953 0.78444 0.0
H1074 H 0.55999 0.36128 0.7614 0.0
H1075 H 0.52848 0.34834 0.72801 0.0
C1076 C 0.57321 0.41146 0.81889 0.0
C1077 C 0.54959 0.39655 0.83604 0.0
C1078 C 0.55627 0.40467 0.79951 0.0
C1079 C 0.51502 0.38288 0.79659 0.0
C1080 C 0.49126 0.3682 0.81374 0.0
C1081 C 0.50822 0.37494 0.83313 0.0
C1082 C 0.4324 0.37265 0.75331 0.0
C1083 C 0.45986 0.36069 0.73692 0.0
C1084 C 0.45034 0.38007 0.77239 0.0
C1085 C 0.49648 0.37594 0.77586 0.0
C1086 C 0.5243 0.36506 0.75938 0.0
C1087 C 0.50624 0.35758 0.74018 0.0
H1088 H 0.90917 0.59175 0.84244 0.0
H1089 H 0.03879 0.63796 0.82202 0.0
H1090 H 0.89526 0.55978 0.80957 0.0
H1091 H 0.02569 0.60403 0.78948 0.0
H1092 H 0.97222 0.5753 0.7267 0.0
H1093 H 0.9835 0.61089 0.75924 0.0
H1094 H 0.91659 0.50001 0.78836 0.0
H1095 H 0.90348 0.46576 0.75599 0.0
C1096 C 0.93488 0.59509 0.83106 0.0
C1097 C 0.97525 0.61762 0.83516 0.0
C1098 C 0.92703 0.57623 0.81214 0.0
C1099 C 0.95931 0.57915 0.79671 0.0
C1100 C 0.99971 0.60151 0.80081 0.0
C1101 C 1.00753 0.62047 0.8197 0.0
C1102 C 0.95942 0.55876 0.74 0.0
C1103 C 0.93713 0.51736 0.73854 0.0
C1104 C 0.96637 0.57895 0.75875 0.0
C1105 C 0.95117 0.55836 0.77658 0.0
C1106 C 0.92842 0.51728 0.77505 0.0
C1107 C 0.92141 0.49721 0.75637 0.0
H1108 H 0.97065 0.96024 0.24568 0.0
H1109 H 0.84908 0.02544 0.22723 0.0
H1110 H 0.95486 0.9797 0.28047 0.0
H1111 H 0.83265 0.04411 0.26222 0.0
H1112 H 0.852 0.11813 0.32291 0.0
H1113 H 0.86091 0.09373 0.28826 0.0
H1114 H 0.90517 0.96447 0.30894 0.0
H1115 H 0.89702 0.98945 0.34378 0.0
C1116 C 0.94051 0.97879 0.24901 0.0
C1117 C 0.91141 0.99157 0.23348 0.0
C1118 C 0.93112 0.98945 0.26907 0.0
C1119 C 0.89242 1.0135 0.2743 0.0
C1120 C 0.86298 0.02589 0.25881 0.0
C1121 C 0.87222 1.01487 0.2387 0.0
C1122 C 0.86354 0.08444 0.32011 0.0
C1123 C 0.87414 0.05593 0.33621 0.0
C1124 C 0.86825 0.07026 0.30017 0.0
C1125 C 0.88401 0.02714 0.29567 0.0
C1126 C 0.89346 0.9981 0.31179 0.0
C1127 C 0.88835 1.01223 0.33179 0.0
H1128 H 0.49158 0.89122 0.8282 0.0
H1129 H 0.61939 0.94217 0.8477 0.0
H1130 H 0.50578 0.92056 0.79459 0.0
H1131 H 0.63419 0.97047 0.81393 0.0
H1132 H 0.61493 0.06723 0.76061 0.0
H1133 H 0.60656 0.03076 0.79306 0.0
H1134 H 0.55085 0.9143 0.76408 0.0
H1135 H 0.55821 0.95151 0.7315 0.0
C1136 C 0.52294 0.90829 0.82527 0.0
C1137 C 0.55415 0.91449 0.84077 0.0
C1138 C 0.53129 0.92479 0.80591 0.0
C1139 C 0.57104 0.94822 0.80147 0.0
C1140 C 0.60294 0.95314 0.81681 0.0
C1141 C 0.59468 0.9364 0.83617 0.0
C1142 C 0.60072 0.03392 0.7611 0.0
C1143 C 0.5869 1.01258 0.74335 0.0
C1144 C 0.59644 1.01269 0.77975 0.0
C1145 C 0.57802 0.96947 0.78131 0.0
C1146 C 0.56482 0.94774 0.76353 0.0
C1147 C 0.5694 0.96893 0.74479 0.0
H1148 H 0.53195 0.59294 0.24413 0.0
H1149 H 0.66879 0.56328 0.22816 0.0
H1150 H 0.54871 0.57891 0.27925 0.0
H1151 H 0.68582 0.55015 0.26358 0.0
H1152 H 0.70235 0.55829 0.33352 0.0
H1153 H 0.68893 0.58519 0.29908 0.0
H1154 H 0.56671 0.50799 0.29723 0.0
H1155 H 0.58024 0.48145 0.3312 0.0
C1156 C 0.56572 0.58365 0.24807 0.0
C1157 C 0.5988 0.57862 0.23314 0.0
C1158 C 0.57536 0.57576 0.26827 0.0
C1159 C 0.61848 0.56292 0.27423 0.0
C1160 C 0.65231 0.56024 0.25951 0.0
C1161 C 0.64255 0.56785 0.23918 0.0
C1162 C 0.67245 0.54768 0.32574 0.0
C1163 C 0.64243 0.51767 0.33498 0.0
C1164 C 0.66493 0.56271 0.30602 0.0
C1165 C 0.6267 0.54877 0.2954 0.0
C1166 C 0.59624 0.51977 0.30498 0.0
C1167 C 0.60412 0.50428 0.32441 0.0
H1168 H 0.3834 0.23314 0.13039 0.0
H1169 H 0.33989 0.14795 0.17928 0.0
H1170 H 0.31486 0.27637 0.13354 0.0
H1171 H 0.2705 0.19072 0.18195 0.0
H1172 H 0.22207 0.37487 0.16607 0.0
H1173 H 0.28711 0.3265 0.1632 0.0
H1174 H 0.20068 0.21092 0.15923 0.0
H1175 H 0.13513 0.25941 0.16145 0.0
C1176 C 0.35921 0.22366 0.14179 0.0
C1177 C 0.36725 0.18768 0.15482 0.0
C1178 C 0.32003 0.24824 0.14351 0.0
C1179 C 0.28802 0.23694 0.15812 0.0
C1180 C 0.29489 0.1998 0.17055 0.0
C1181 C 0.33441 0.17539 0.16898 0.0
C1182 C 0.21686 0.33921 0.16442 0.0
C1183 C 0.17356 0.32095 0.16372 0.0
C1184 C 0.25401 0.31163 0.16286 0.0
C1185 C 0.24853 0.2653 0.1608 0.0
C1186 C 0.20545 0.24666 0.16086 0.0
C1187 C 0.16814 0.27435 0.1622 0.0
H1188 H 0.43199 0.24119 0.59627 0.0
H1189 H 0.32691 0.15517 0.61842 0.0
H1190 H 0.38628 0.26092 0.56769 0.0
H1191 H 0.28306 0.17203 0.58939 0.0
H1192 H 0.26245 0.33199 0.60625 0.0
H1193 H 0.32819 0.30811 0.58809 0.0
H1194 H 0.24963 0.20918 0.55706 0.0
H1195 H 0.18335 0.23377 0.57511 0.0
C1196 C 0.40064 0.22359 0.59429 0.0
C1197 C 0.38137 0.19926 0.6103 0.0
C1198 C 0.37457 0.23467 0.57766 0.0
C1199 C 0.32977 0.22052 0.57703 0.0
C1200 C 0.3168 0.18494 0.58972 0.0
C1201 C 0.3421 0.17507 0.60665 0.0
C1202 C 0.25858 0.30737 0.59456 0.0
C1203 C 0.21855 0.28325 0.59292 0.0
C1204 C 0.29634 0.29358 0.58389 0.0
C1205 C 0.2945 0.25387 0.57254 0.0
C1206 C 0.25223 0.23826 0.56662 0.0
C1207 C 0.21418 0.25235 0.57711 0.0
H1208 H 0.14259 0.37625 0.94793 0.0
H1209 H 0.20861 0.25441 0.96644 0.0
H1210 H 0.21238 0.41724 0.95301 0.0
H1211 H 0.27591 0.29525 0.97242 0.0
H1212 H 0.34545 0.40095 0.91234 0.0
H1213 H 0.27153 0.3994 0.92747 0.0
H1214 H 0.3282 0.35393 0.98342 0.0
H1215 H 0.40269 0.35546 0.96809 0.0
C1216 C 0.17128 0.35845 0.95368 0.0
C1217 C 0.17047 0.31165 0.95583 0.0
C1218 C 0.21089 0.3821 0.95693 0.0
C1219 C 0.24976 0.35915 0.96254 0.0
C1220 C 0.24659 0.31398 0.96803 0.0
C1221 C 0.20753 0.29029 0.96445 0.0
C1222 C 0.34219 0.39165 0.928 0.0
C1223 C 0.3792 0.37662 0.93886 0.0
C1224 C 0.29997 0.39157 0.93682 0.0
C1225 C 0.29414 0.37623 0.95661 0.0
C1226 C 0.33187 0.36557 0.96809 0.0
C1227 C 0.37417 0.36552 0.95922 0.0
H1228 H 0.12252 0.25075 0.42428 0.0
H1229 H 0.08131 0.31649 0.36964 0.0
H1230 H 0.11525 0.17887 0.40779 0.0
H1231 H 0.07211 0.24455 0.35347 0.0
H1232 H 0.20572 0.15824 0.34092 0.0
H1233 H 0.1424 0.2075 0.34455 0.0
H1234 H 0.08279 0.1165 0.38746 0.0
H1235 H 0.14636 0.06646 0.38318 0.0
C1236 C 0.11061 0.24977 0.40896 0.0
C1237 C 0.10399 0.28934 0.39813 0.0
C1238 C 0.10532 0.20847 0.39958 0.0
C1239 C 0.09373 0.20609 0.37912 0.0
C1240 C 0.08135 0.24539 0.36917 0.0
C1241 C 0.08689 0.28668 0.37849 0.0
C1242 C 0.17753 0.14723 0.34998 0.0
C1243 C 0.18159 0.11024 0.36271 0.0
C1244 C 0.1409 0.17545 0.3521 0.0
C1245 C 0.10924 0.16709 0.36739 0.0
C1246 C 0.10777 0.12437 0.37615 0.0
C1247 C 0.1442 0.09579 0.37376 0.0
H1248 H 0.94724 0.89474 0.87384 0.0
H1249 H 0.83322 0.83726 0.84388 0.0
H1250 H 0.91517 0.9689 0.86992 0.0
H1251 H 0.80237 0.91071 0.83941 0.0
H1252 H 0.71107 0.98409 0.8647 0.0
H1253 H 0.77818 0.98814 0.84438 0.0
H1254 H 0.85753 0.95936 0.89682 0.0
H1255 H 0.79053 0.95657 0.91725 0.0
C1256 C 0.91659 0.89819 0.86545 0.0
C1257 C 0.89077 0.86032 0.86063 0.0
C1258 C 0.89867 0.9408 0.86286 0.0
C1259 C 0.85435 0.94482 0.85631 0.0
C1260 C 0.83546 0.90844 0.84585 0.0
C1261 C 0.85299 0.86577 0.84856 0.0
C1262 C 0.74295 0.98092 0.87219 0.0
C1263 C 0.74547 0.96763 0.89246 0.0
C1264 C 0.78158 0.9837 0.86044 0.0
C1265 C 0.82285 0.97152 0.86865 0.0
C1266 C 0.8261 0.96752 0.88972 0.0
C1267 C 0.78753 0.96488 0.90149 0.0
H1268 H 0.85102 0.62886 0.42951 0.0
H1269 H 0.78589 0.67561 0.37596 0.0
H1270 H 0.895 0.69808 0.43093 0.0
H1271 H 0.82849 0.74507 0.37745 0.0
H1272 H 0.90295 0.86853 0.38212 0.0
H1273 H 0.89678 0.78817 0.37714 0.0
H1274 H 0.86739 0.77098 0.44027 0.0
H1275 H 0.87593 0.85092 0.44543 0.0
C1276 C 0.84734 0.65354 0.41772 0.0
C1277 C 0.81542 0.64762 0.40266 0.0
C1278 C 0.87216 0.69309 0.41856 0.0
C1279 C 0.86483 0.72725 0.40445 0.0
C1280 C 0.83541 0.71931 0.38842 0.0
C1281 C 0.81079 0.67975 0.38757 0.0
C1282 C 0.89677 0.84744 0.39507 0.0
C1283 C 0.88902 0.8661 0.41412 0.0
C1284 C 0.89292 0.80143 0.39217 0.0
C1285 C 0.88091 0.77332 0.40822 0.0
C1286 C 0.87694 0.79161 0.42757 0.0
C1287 C 0.88107 0.83755 0.43049 0.0
H1288 H 0.75062 0.7887 0.19798 0.0
H1289 H 0.89468 0.7907 0.19995 0.0
H1290 H 0.75055 0.71182 0.21012 0.0
H1291 H 0.89504 0.71367 0.21202 0.0
H1292 H 0.8403 0.59822 0.16582 0.0
H1293 H 0.87046 0.66146 0.18378 0.0
H1294 H 0.773 0.64227 0.23097 0.0
H1295 H 0.74172 0.57971 0.21269 0.0
C1296 C 0.78204 0.77338 0.2021 0.0
C1297 C 0.82258 0.79462 0.19766 0.0
C1298 C 0.78221 0.72947 0.20923 0.0
C1299 C 0.823 0.7065 0.21165 0.0
C1300 C 0.86327 0.73049 0.21019 0.0
C1301 C 0.86303 0.77435 0.20316 0.0
C1302 C 0.82728 0.60545 0.18067 0.0
C1303 C 0.78714 0.58587 0.18727 0.0
C1304 C 0.84497 0.6416 0.19117 0.0
C1305 C 0.82306 0.65764 0.20845 0.0
C1306 C 0.78985 0.63108 0.21745 0.0
C1307 C 0.77204 0.59497 0.20691 0.0
H1308 H 0.66057 0.84091 0.6881 0.0
H1309 H 0.74649 0.88186 0.63888 0.0
H1310 H 0.69742 0.76811 0.68869 0.0
H1311 H 0.78429 0.80999 0.64024 0.0
H1312 H 0.74867 0.62914 0.66214 0.0
H1313 H 0.7081 0.69998 0.66301 0.0
H1314 H 0.83298 0.77163 0.66837 0.0
H1315 H 0.87356 0.70122 0.6684 0.0
C1316 C 0.68702 0.8344 0.67734 0.0
C1317 C 0.70079 0.86744 0.66354 0.0
C1318 C 0.70814 0.79284 0.67777 0.0
C1319 C 0.74377 0.7839 0.66463 0.0
C1320 C 0.75726 0.81653 0.65072 0.0
C1321 C 0.73577 0.85774 0.65006 0.0
C1322 C 0.76744 0.65991 0.66388 0.0
C1323 C 0.81444 0.65951 0.66497 0.0
C1324 C 0.74421 0.70035 0.6643 0.0
C1325 C 0.76763 0.74096 0.66554 0.0
C1326 C 0.81436 0.74062 0.66708 0.0
C1327 C 0.83751 0.70031 0.66697 0.0
loop_
_geom_bond_atom_site_label_1
_geom_bond_atom_site_label_2
_geom_bond_distance
_geom_bond_site_symmetry_2
_ccdc_geom_bond_type
C0 C1 1.351 . S
C0 N3 1.368 . S
C0 H5 0.931 . S
C1 C0 1.351 . S
C1 N2 1.373 . S
C1 H29 0.930 . S
N2 C1 1.373 . S
N2 C4 1.340 . S
N3 C0 1.368 . S
N3 C4 1.321 . S
N3 Co6 2.135 . S
C4 N2 1.340 . S
C4 N3 1.321 . S
C4 H28 0.930 1_455 S
H5 C0 0.931 . S
Co6 N3 2.135 . S
Co6 N9 2.121 . S
Co6 O14 2.055 1_455 S
Co6 O17 2.039 1_455 S
Co6 N20 2.140 . S
C7 O8 1.227 1_655 S
C7 O17 1.265 . S
O8 C7 1.227 1_455 S
N9 Co6 2.121 . S
N9 C11 1.375 . S
N9 C12 1.313 . S
C10 C11 1.338 . S
C10 N13 1.377 . S
C10 H30 0.930 . S
C11 N9 1.375 . S
C11 C10 1.338 . S
C11 H15 0.931 . S
C12 N9 1.313 . S
C12 N13 1.344 . S
C12 H16 0.930 . S
N13 C10 1.377 . S
N13 C12 1.344 . S
O14 Co6 2.055 1_655 S
O14 C18 1.238 1_655 S
H15 C11 0.931 . S
H16 C12 0.930 . S
O17 Co6 2.039 1_655 S
O17 C7 1.265 . S
C18 O14 1.238 1_455 S
C18 O19 1.250 . S
O19 C18 1.250 . S
N20 Co6 2.140 . S
N20 C23 1.346 . S
N20 C24 1.345 . S
C21 C22 1.387 . S
C21 C25 1.391 . S
C22 C21 1.387 . S
C22 C23 1.369 . S
C22 H31 0.929 . S
C23 N20 1.346 . S
C23 C22 1.369 . S
C23 H26 0.928 . S
C24 N20 1.345 . S
C24 C25 1.371 . S
C24 H27 0.931 . S
C25 C21 1.391 . S
C25 C24 1.371 . S
C25 H32 0.930 . S
H26 C23 0.928 . S
H27 C24 0.931 . S
H28 C4 0.930 1_655 S
H29 C1 0.930 . S
H30 C10 0.930 . S
H31 C22 0.929 . S
H32 C25 0.930 . S
C33 C34 1.351 . S
C33 N36 1.368 . S
C33 H38 0.931 . S
C34 C33 1.351 . S
C34 N35 1.373 . S
C34 H62 0.930 . S
N35 C34 1.373 . S
N35 C37 1.340 . S
N36 C33 1.368 . S
N36 C37 1.321 . S
N36 Co39 2.135 . S
C37 N35 1.340 . S
C37 N36 1.321 . S
C37 H61 0.930 1_545 S
H38 C33 0.931 . S
Co39 N36 2.135 . S
Co39 N42 2.121 . S
Co39 O47 2.055 1_545 S
Co39 O50 2.039 1_545 S
Co39 N53 2.140 . S
C40 O41 1.227 1_565 S
C40 O50 1.265 . S
O41 C40 1.227 1_545 S
N42 Co39 2.121 . S
N42 C44 1.375 . S
N42 C45 1.313 . S
C43 C44 1.338 . S
C43 N46 1.377 . S
C43 H63 0.930 . S
C44 N42 1.375 . S
C44 C43 1.338 . S
C44 H48 0.931 . S
C45 N42 1.313 . S
C45 N46 1.344 . S
C45 H49 0.930 . S
N46 C43 1.377 . S
N46 C45 1.344 . S
O47 Co39 2.055 1_565 S
O47 C51 1.238 1_565 S
H48 C44 0.931 . S
H49 C45 0.930 . S
O50 Co39 2.039 1_565 S
O50 C40 1.265 . S
C51 O47 1.238 1_545 S
C51 O52 1.249 . S
O52 C51 1.249 . S
N53 Co39 2.140 . S
N53 C56 1.346 . S
N53 C57 1.345 . S
C54 C55 1.387 . S
C54 C58 1.391 . S
C55 C54 1.387 . S
C55 C56 1.369 . S
C55 H64 0.929 . S
C56 N53 1.346 . S
C56 C55 1.369 . S
C56 H59 0.928 . S
C57 N53 1.345 . S
C57 C58 1.371 . S
C57 H60 0.931 . S
C58 C54 1.391 . S
C58 C57 1.371 . S
C58 H65 0.930 . S
H59 C56 0.928 . S
H60 C57 0.931 . S
H61 C37 0.930 1_565 S
H62 C34 0.930 . S
H63 C43 0.930 . S
H64 C55 0.929 . S
H65 C58 0.930 . S
C66 C67 1.351 . S
C66 N69 1.368 . S
C66 H71 0.931 . S
C67 C66 1.351 . S
C67 N68 1.373 . S
C67 H95 0.930 . S
N68 C67 1.373 . S
N68 C70 1.340 . S
N69 C66 1.368 . S
N69 C70 1.321 . S
N69 Co72 2.135 . S
C70 N68 1.340 . S
C70 N69 1.321 . S
C70 H94 0.930 . S
H71 C66 0.931 . S
Co72 N69 2.135 . S
Co72 N75 2.121 . S
Co72 O80 2.055 . S
Co72 O83 2.039 . S
Co72 N86 2.140 . S
C73 O74 1.227 . S
C73 O83 1.265 . S
O74 C73 1.227 . S
N75 Co72 2.121 . S
N75 C77 1.375 . S
N75 C78 1.313 . S
C76 C77 1.338 . S
C76 N79 1.377 . S
C76 H96 0.930 . S
C77 N75 1.375 . S
C77 C76 1.338 . S
C77 H81 0.931 . S
C78 N75 1.313 . S
C78 N79 1.344 . S
C78 H82 0.930 . S
N79 C76 1.377 . S
N79 C78 1.344 . S
O80 Co72 2.055 . S
O80 C84 1.253 . S
H81 C77 0.931 . S
H82 C78 0.930 . S
O83 Co72 2.039 . S
O83 C73 1.265 . S
C84 O80 1.253 . S
C84 O85 1.227 . S
O85 C84 1.227 . S
N86 Co72 2.140 . S
N86 C89 1.346 . S
N86 C90 1.345 . S
C87 C88 1.387 . S
C87 C91 1.391 . S
C88 C87 1.387 . S
C88 C89 1.369 . S
C88 H97 0.929 . S
C89 N86 1.346 . S
C89 C88 1.369 . S
C89 H92 0.928 . S
C90 N86 1.345 . S
C90 C91 1.371 . S
C90 H93 0.931 . S
C91 C87 1.391 . S
C91 C90 1.371 . S
C91 H98 0.930 . S
H92 C89 0.928 . S
H93 C90 0.931 . S
H94 C70 0.930 . S
H95 C67 0.930 . S
H96 C76 0.930 . S
H97 C88 0.929 . S
H98 C91 0.930 . S
C99 C100 1.351 . S
C99 N102 1.368 . S
C99 H104 0.931 . S
C100 C99 1.351 . S
C100 N101 1.373 . S
C100 H128 0.930 . S
N101 C100 1.373 . S
N101 C103 1.340 . S
N102 C99 1.368 . S
N102 C103 1.321 . S
N102 Co105 2.135 . S
C103 N101 1.340 . S
C103 N102 1.321 . S
C103 H127 0.930 . S
H104 C99 0.931 . S
Co105 N102 2.135 . S
Co105 N108 2.121 . S
Co105 O113 2.055 . S
Co105 O116 2.039 . S
Co105 N119 2.140 . S
C106 O107 1.227 . S
C106 O116 1.265 . S
O107 C106 1.227 . S
N108 Co105 2.121 . S
N108 C110 1.375 . S
N108 C111 1.313 . S
C109 C110 1.338 . S
C109 N112 1.377 . S
C109 H129 0.930 . S
C110 N108 1.375 . S
C110 C109 1.338 . S
C110 H114 0.931 . S
C111 N108 1.313 . S
C111 N112 1.344 . S
C111 H115 0.930 . S
N112 C109 1.377 . S
N112 C111 1.344 . S
O113 Co105 2.055 . S
O113 C117 1.253 . S
H114 C110 0.931 . S
H115 C111 0.930 . S
O116 Co105 2.039 . S
O116 C106 1.265 . S
C117 O113 1.253 . S
C117 O118 1.227 . S
O118 C117 1.227 . S
N119 Co105 2.140 . S
N119 C122 1.346 . S
N119 C123 1.345 . S
C120 C121 1.387 . S
C120 C124 1.391 . S
C121 C120 1.387 . S
C121 C122 1.369 . S
C121 H130 0.929 . S
C122 N119 1.346 . S
C122 C121 1.369 . S
C122 H125 0.928 . S
C123 N119 1.345 . S
C123 C124 1.371 . S
C123 H126 0.931 . S
C124 C120 1.391 . S
C124 C123 1.371 . S
C124 H131 0.930 . S
H125 C122 0.928 . S
H126 C123 0.931 . S
H127 C103 0.930 . S
H128 C100 0.930 . S
H129 C109 0.930 . S
H130 C121 0.929 . S
H131 C124 0.930 . S
C132 C133 1.351 . S
C132 N135 1.368 . S
C132 H137 0.931 . S
C133 C132 1.351 . S
C133 N134 1.373 . S
C133 H161 0.930 . S
N134 C133 1.373 . S
N134 C136 1.340 . S
N135 C132 1.368 . S
N135 C136 1.321 . S
N135 Co138 2.135 . S
C136 N134 1.340 . S
C136 N135 1.321 . S
C136 H160 0.930 1_455 S
H137 C132 0.931 . S
Co138 N135 2.135 . S
Co138 N141 2.121 . S
Co138 O146 2.055 1_455 S
Co138 O149 2.039 1_455 S
Co138 N152 2.140 . S
C139 O140 1.227 1_655 S
C139 O149 1.265 . S
O140 C139 1.227 1_455 S
N141 Co138 2.121 . S
N141 C143 1.375 . S
N141 C144 1.313 . S
C142 C143 1.338 . S
C142 N145 1.377 . S
C142 H162 0.930 . S
C143 N141 1.375 . S
C143 C142 1.338 . S
C143 H147 0.931 . S
C144 N141 1.313 . S
C144 N145 1.344 . S
C144 H148 0.930 . S
N145 C142 1.377 . S
N145 C144 1.344 . S
O146 Co138 2.055 1_655 S
O146 C150 1.238 1_655 S
H147 C143 0.931 . S
H148 C144 0.930 . S
O149 Co138 2.039 1_655 S
O149 C139 1.265 . S
C150 O146 1.238 1_455 S
C150 O151 1.249 . S
O151 C150 1.249 . S
N152 Co138 2.140 . S
N152 C155 1.346 . S
N152 C156 1.345 . S
C153 C154 1.387 . S
C153 C157 1.391 . S
C154 C153 1.387 . S
C154 C155 1.369 . S
C154 H163 0.929 . S
C155 N152 1.346 . S
C155 C154 1.369 . S
C155 H158 0.928 . S
C156 N152 1.345 . S
C156 C157 1.371 . S
C156 H159 0.931 . S
C157 C153 1.391 . S
C157 C156 1.371 . S
C157 H164 0.930 . S
H158 C155 0.928 . S
H159 C156 0.931 . S
H160 C136 0.930 1_655 S
H161 C133 0.930 . S
H162 C142 0.930 . S
H163 C154 0.929 . S
H164 C157 0.930 . S
C165 C166 1.351 . S
C165 N168 1.368 . S
C165 H170 0.931 . S
C166 C165 1.351 . S
C166 N167 1.373 . S
C166 H194 0.930 . S
N167 C166 1.373 . S
N167 C169 1.340 . S
N168 C165 1.368 . S
N168 C169 1.321 . S
N168 Co171 2.135 . S
C169 N167 1.340 . S
C169 N168 1.321 . S
C169 H193 0.930 1_545 S
H170 C165 0.931 . S
Co171 N168 2.135 . S
Co171 N174 2.121 . S
Co171 O179 2.055 1_545 S
Co171 O182 2.039 1_545 S
Co171 N185 2.140 . S
C172 O173 1.227 1_565 S
C172 O182 1.265 . S
O173 C172 1.227 1_545 S
N174 Co171 2.121 . S
N174 C176 1.375 . S
N174 C177 1.313 . S
C175 C176 1.338 . S
C175 N178 1.377 . S
C175 H195 0.930 . S
C176 N174 1.375 . S
C176 C175 1.338 . S
C176 H180 0.931 . S
C177 N174 1.313 . S
C177 N178 1.344 . S
C177 H181 0.930 . S
N178 C175 1.377 . S
N178 C177 1.344 . S
O179 Co171 2.055 1_565 S
O179 C183 1.238 1_565 S
H180 C176 0.931 . S
H181 C177 0.930 . S
O182 Co171 2.039 1_565 S
O182 C172 1.265 . S
C183 O179 1.238 1_545 S
C183 O184 1.250 . S
O184 C183 1.250 . S
N185 Co171 2.140 . S
N185 C188 1.346 . S
N185 C189 1.345 . S
C186 C187 1.387 . S
C186 C190 1.391 . S
C187 C186 1.387 . S
C187 C188 1.369 . S
C187 H196 0.929 . S
C188 N185 1.346 . S
C188 C187 1.369 . S
C188 H191 0.928 . S
C189 N185 1.345 . S
C189 C190 1.371 . S
C189 H192 0.931 . S
C190 C186 1.391 . S
C190 C189 1.371 . S
C190 H197 0.930 . S
H191 C188 0.928 . S
H192 C189 0.931 . S
H193 C169 0.930 1_565 S
H194 C166 0.930 . S
H195 C175 0.930 . S
H196 C187 0.929 . S
H197 C190 0.930 . S
C198 C199 1.351 . S
C198 N201 1.368 . S
C198 H203 0.931 . S
C199 C198 1.351 . S
C199 N200 1.373 . S
C199 H227 0.930 . S
N200 C199 1.373 . S
N200 C202 1.340 . S
N201 C198 1.368 . S
N201 C202 1.321 . S
N201 Co204 2.135 . S
C202 N200 1.340 . S
C202 N201 1.321 . S
C202 H226 0.930 . S
H203 C198 0.931 . S
Co204 N201 2.135 . S
Co204 N207 2.121 . S
Co204 O212 2.055 . S
Co204 O215 2.039 . S
Co204 N218 2.140 . S
C205 O206 1.227 . S
C205 O215 1.265 . S
O206 C205 1.227 . S
N207 Co204 2.121 . S
N207 C209 1.375 . S
N207 C210 1.313 . S
C208 C209 1.338 . S
C208 N211 1.377 . S
C208 H228 0.930 . S
C209 N207 1.375 . S
C209 C208 1.338 . S
C209 H213 0.931 . S
C210 N207 1.313 . S
C210 N211 1.344 . S
C210 H214 0.930 . S
N211 C208 1.377 . S
N211 C210 1.344 . S
O212 Co204 2.055 . S
O212 C216 1.253 . S
H213 C209 0.931 . S
H214 C210 0.930 . S
O215 Co204 2.039 . S
O215 C205 1.265 . S
C216 O212 1.253 . S
C216 O217 1.227 . S
O217 C216 1.227 . S
N218 Co204 2.140 . S
N218 C221 1.346 . S
N218 C222 1.345 . S
C219 C220 1.387 . S
C219 C223 1.391 . S
C220 C219 1.387 . S
C220 C221 1.369 . S
C220 H229 0.929 . S
C221 N218 1.346 . S
C221 C220 1.369 . S
C221 H224 0.928 . S
C222 N218 1.345 . S
C222 C223 1.371 . S
C222 H225 0.931 . S
C223 C219 1.391 . S
C223 C222 1.371 . S
C223 H230 0.930 . S
H224 C221 0.928 . S
H225 C222 0.931 . S
H226 C202 0.930 . S
H227 C199 0.930 . S
H228 C208 0.930 . S
H229 C220 0.929 . S
H230 C223 0.930 . S
C231 C232 1.351 . S
C231 N234 1.368 . S
C231 H236 0.931 . S
C232 C231 1.351 . S
C232 N233 1.373 . S
C232 H260 0.930 . S
N233 C232 1.373 . S
N233 C235 1.340 . S
N234 C231 1.368 . S
N234 C235 1.321 . S
N234 Co237 2.135 . S
C235 N233 1.340 . S
C235 N234 1.321 . S
C235 H259 0.930 . S
H236 C231 0.931 . S
Co237 N234 2.135 . S
Co237 N240 2.121 . S
Co237 O245 2.055 . S
Co237 O248 2.039 . S
Co237 N251 2.140 . S
C238 O239 1.227 . S
C238 O248 1.265 . S
O239 C238 1.227 . S
N240 Co237 2.121 . S
N240 C242 1.375 . S
N240 C243 1.313 . S
C241 C242 1.338 . S
C241 N244 1.377 . S
C241 H261 0.930 . S
C242 N240 1.375 . S
C242 C241 1.338 . S
C242 H246 0.931 . S
C243 N240 1.313 . S
C243 N244 1.344 . S
C243 H247 0.930 . S
N244 C241 1.377 . S
N244 C243 1.344 . S
O245 Co237 2.055 . S
O245 C249 1.253 . S
H246 C242 0.931 . S
H247 C243 0.930 . S
O248 Co237 2.039 . S
O248 C238 1.265 . S
C249 O245 1.253 . S
C249 O250 1.227 . S
O250 C249 1.227 . S
N251 Co237 2.140 . S
N251 C254 1.346 . S
N251 C255 1.345 . S
C252 C253 1.387 . S
C252 C256 1.391 . S
C253 C252 1.387 . S
C253 C254 1.369 . S
C253 H262 0.929 . S
C254 N251 1.346 . S
C254 C253 1.369 . S
C254 H257 0.928 . S
C255 N251 1.345 . S
C255 C256 1.371 . S
C255 H258 0.931 . S
C256 C252 1.391 . S
C256 C255 1.371 . S
C256 H263 0.930 . S
H257 C254 0.928 . S
H258 C255 0.931 . S
H259 C235 0.930 . S
H260 C232 0.930 . S
H261 C241 0.930 . S
H262 C253 0.929 . S
H263 C256 0.930 . S
C264 C265 1.351 . S
C264 N267 1.368 . S
C264 H269 0.931 . S
C265 C264 1.351 . S
C265 N266 1.373 . S
C265 H293 0.930 . S
N266 C265 1.373 . S
N266 C268 1.340 . S
N267 C264 1.368 . S
N267 C268 1.321 . S
N267 Co270 2.135 . S
C268 N266 1.340 . S
C268 N267 1.321 . S
C268 H292 0.930 1_655 S
H269 C264 0.931 . S
Co270 N267 2.135 . S
Co270 N273 2.121 . S
Co270 O278 2.055 1_655 S
Co270 O281 2.039 1_655 S
Co270 N284 2.140 . S
C271 O272 1.227 1_455 S
C271 O281 1.265 . S
O272 C271 1.227 1_655 S
N273 Co270 2.121 . S
N273 C275 1.375 . S
N273 C276 1.313 . S
C274 C275 1.338 . S
C274 N277 1.377 . S
C274 H294 0.930 . S
C275 N273 1.375 . S
C275 C274 1.338 . S
C275 H279 0.931 . S
C276 N273 1.313 . S
C276 N277 1.344 . S
C276 H280 0.930 . S
N277 C274 1.377 . S
N277 C276 1.344 . S
O278 Co270 2.055 1_455 S
O278 C282 1.238 1_455 S
H279 C275 0.931 . S
H280 C276 0.930 . S
O281 Co270 2.039 1_455 S
O281 C271 1.265 . S
C282 O278 1.238 1_655 S
C282 O283 1.250 . S
O283 C282 1.250 . S
N284 Co270 2.140 . S
N284 C287 1.346 . S
N284 C288 1.345 . S
C285 C286 1.387 . S
C285 C289 1.391 . S
C286 C285 1.387 . S
C286 C287 1.369 . S
C286 H295 0.929 . S
C287 N284 1.346 . S
C287 C286 1.369 . S
C287 H290 0.928 . S
C288 N284 1.345 . S
C288 C289 1.371 . S
C288 H291 0.931 . S
C289 C285 1.391 . S
C289 C288 1.371 . S
C289 H296 0.930 . S
H290 C287 0.928 . S
H291 C288 0.931 . S
H292 C268 0.930 1_455 S
H293 C265 0.930 . S
H294 C274 0.930 . S
H295 C286 0.929 . S
H296 C289 0.930 . S
C297 C298 1.351 . S
C297 N300 1.368 . S
C297 H302 0.931 . S
C298 C297 1.351 . S
C298 N299 1.373 . S
C298 H326 0.930 . S
N299 C298 1.373 . S
N299 C301 1.340 . S
N300 C297 1.368 . S
N300 C301 1.321 . S
N300 Co303 2.135 . S
C301 N299 1.340 . S
C301 N300 1.321 . S
C301 H325 0.930 1_565 S
H302 C297 0.931 . S
Co303 N300 2.135 . S
Co303 N306 2.121 . S
Co303 O311 2.055 1_565 S
Co303 O314 2.039 1_565 S
Co303 N317 2.140 . S
C304 O305 1.227 1_545 S
C304 O314 1.265 . S
O305 C304 1.227 1_565 S
N306 Co303 2.121 . S
N306 C308 1.375 . S
N306 C309 1.313 . S
C307 C308 1.338 . S
C307 N310 1.377 . S
C307 H327 0.930 . S
C308 N306 1.375 . S
C308 C307 1.338 . S
C308 H312 0.931 . S
C309 N306 1.313 . S
C309 N310 1.344 . S
C309 H313 0.930 . S
N310 C307 1.377 . S
N310 C309 1.344 . S
O311 Co303 2.055 1_545 S
O311 C315 1.238 1_545 S
H312 C308 0.931 . S
H313 C309 0.930 . S
O314 Co303 2.039 1_545 S
O314 C304 1.265 . S
C315 O311 1.238 1_565 S
C315 O316 1.249 . S
O316 C315 1.249 . S
N317 Co303 2.140 . S
N317 C320 1.346 . S
N317 C321 1.345 . S
C318 C319 1.387 . S
C318 C322 1.391 . S
C319 C318 1.387 . S
C319 C320 1.369 . S
C319 H328 0.929 . S
C320 N317 1.346 . S
C320 C319 1.369 . S
C320 H323 0.928 . S
C321 N317 1.345 . S
C321 C322 1.371 . S
C321 H324 0.931 . S
C322 C318 1.391 . S
C322 C321 1.371 . S
C322 H329 0.930 . S
H323 C320 0.928 . S
H324 C321 0.931 . S
H325 C301 0.930 1_545 S
H326 C298 0.930 . S
H327 C307 0.930 . S
H328 C319 0.929 . S
H329 C322 0.930 . S
C330 C331 1.351 . S
C330 N333 1.368 . S
C330 H335 0.931 . S
C331 C330 1.351 . S
C331 N332 1.373 . S
C331 H359 0.930 . S
N332 C331 1.373 . S
N332 C334 1.340 . S
N333 C330 1.368 . S
N333 C334 1.321 . S
N333 Co336 2.135 . S
C334 N332 1.340 . S
C334 N333 1.321 . S
C334 H358 0.930 . S
H335 C330 0.931 . S
Co336 N333 2.135 . S
Co336 N339 2.121 . S
Co336 O344 2.055 . S
Co336 O347 2.039 . S
Co336 N350 2.140 . S
C337 O338 1.227 . S
C337 O347 1.265 . S
O338 C337 1.227 . S
N339 Co336 2.121 . S
N339 C341 1.375 . S
N339 C342 1.313 . S
C340 C341 1.338 . S
C340 N343 1.377 . S
C340 H360 0.930 . S
C341 N339 1.375 . S
C341 C340 1.338 . S
C341 H345 0.931 . S
C342 N339 1.313 . S
C342 N343 1.344 . S
C342 H346 0.930 . S
N343 C340 1.377 . S
N343 C342 1.344 . S
O344 Co336 2.055 . S
O344 C348 1.253 . S
H345 C341 0.931 . S
H346 C342 0.930 . S
O347 Co336 2.039 . S
O347 C337 1.265 . S
C348 O344 1.253 . S
C348 O349 1.227 . S
O349 C348 1.227 . S
N350 Co336 2.140 . S
N350 C353 1.346 . S
N350 C354 1.345 . S
C351 C352 1.387 . S
C351 C355 1.391 . S
C352 C351 1.387 . S
C352 C353 1.369 . S
C352 H361 0.929 . S
C353 N350 1.346 . S
C353 C352 1.369 . S
C353 H356 0.928 . S
C354 N350 1.345 . S
C354 C355 1.371 . S
C354 H357 0.931 . S
C355 C351 1.391 . S
C355 C354 1.371 . S
C355 H362 0.930 . S
H356 C353 0.928 . S
H357 C354 0.931 . S
H358 C334 0.930 . S
H359 C331 0.930 . S
H360 C340 0.930 . S
H361 C352 0.929 . S
H362 C355 0.930 . S
C363 C364 1.351 . S
C363 N366 1.368 . S
C363 H368 0.931 . S
C364 C363 1.351 . S
C364 N365 1.373 . S
C364 H392 0.930 . S
N365 C364 1.373 . S
N365 C367 1.340 . S
N366 C363 1.368 . S
N366 C367 1.321 . S
N366 Co369 2.135 . S
C367 N365 1.340 . S
C367 N366 1.321 . S
C367 H391 0.930 . S
H368 C363 0.931 . S
Co369 N366 2.135 . S
Co369 N372 2.121 . S
Co369 O377 2.055 . S
Co369 O380 2.039 . S
Co369 N383 2.140 . S
C370 O371 1.227 . S
C370 O380 1.265 . S
O371 C370 1.227 . S
N372 Co369 2.121 . S
N372 C374 1.375 . S
N372 C375 1.313 . S
C373 C374 1.338 . S
C373 N376 1.377 . S
C373 H393 0.930 . S
C374 N372 1.375 . S
C374 C373 1.338 . S
C374 H378 0.931 . S
C375 N372 1.313 . S
C375 N376 1.344 . S
C375 H379 0.930 . S
N376 C373 1.377 . S
N376 C375 1.344 . S
O377 Co369 2.055 . S
O377 C381 1.253 . S
H378 C374 0.931 . S
H379 C375 0.930 . S
O380 Co369 2.039 . S
O380 C370 1.265 . S
C381 O377 1.253 . S
C381 O382 1.227 . S
O382 C381 1.227 . S
N383 Co369 2.140 . S
N383 C386 1.346 . S
N383 C387 1.345 . S
C384 C385 1.387 . S
C384 C388 1.391 . S
C385 C384 1.387 . S
C385 C386 1.369 . S
C385 H394 0.929 . S
C386 N383 1.346 . S
C386 C385 1.369 . S
C386 H389 0.928 . S
C387 N383 1.345 . S
C387 C388 1.371 . S
C387 H390 0.931 . S
C388 C384 1.391 . S
C388 C387 1.371 . S
C388 H395 0.930 . S
H389 C386 0.928 . S
H390 C387 0.931 . S
H391 C367 0.930 . S
H392 C364 0.930 . S
H393 C373 0.930 . S
H394 C385 0.929 . S
H395 C388 0.930 . S
C396 C397 1.351 . S
C396 N399 1.368 . S
C396 H401 0.931 . S
C397 C396 1.351 . S
C397 N398 1.373 . S
C397 H425 0.930 . S
N398 C397 1.373 . S
N398 C400 1.340 . S
N399 C396 1.368 . S
N399 C400 1.321 . S
N399 Co402 2.135 . S
C400 N398 1.340 . S
C400 N399 1.321 . S
C400 H424 0.930 1_655 S
H401 C396 0.931 . S
Co402 N399 2.135 . S
Co402 N405 2.121 . S
Co402 O410 2.055 1_655 S
Co402 O413 2.039 1_655 S
Co402 N416 2.140 . S
C403 O404 1.227 1_455 S
C403 O413 1.265 . S
O404 C403 1.227 1_655 S
N405 Co402 2.121 . S
N405 C407 1.375 . S
N405 C408 1.313 . S
C406 C407 1.338 . S
C406 N409 1.377 . S
C406 H426 0.930 . S
C407 N405 1.375 . S
C407 C406 1.338 . S
C407 H411 0.931 . S
C408 N405 1.313 . S
C408 N409 1.344 . S
C408 H412 0.930 . S
N409 C406 1.377 . S
N409 C408 1.344 . S
O410 Co402 2.055 1_455 S
O410 C414 1.238 1_455 S
H411 C407 0.931 . S
H412 C408 0.930 . S
O413 Co402 2.039 1_455 S
O413 C403 1.265 . S
C414 O410 1.238 1_655 S
C414 O415 1.249 . S
O415 C414 1.249 . S
N416 Co402 2.140 . S
N416 C419 1.346 . S
N416 C420 1.345 . S
C417 C418 1.387 . S
C417 C421 1.391 . S
C418 C417 1.387 . S
C418 C419 1.369 . S
C418 H427 0.929 . S
C419 N416 1.346 . S
C419 C418 1.369 . S
C419 H422 0.928 . S
C420 N416 1.345 . S
C420 C421 1.371 . S
C420 H423 0.931 . S
C421 C417 1.391 . S
C421 C420 1.371 . S
C421 H428 0.930 . S
H422 C419 0.928 . S
H423 C420 0.931 . S
H424 C400 0.930 1_455 S
H425 C397 0.930 . S
H426 C406 0.930 . S
H427 C418 0.929 . S
H428 C421 0.930 . S
C429 C430 1.351 . S
C429 N432 1.368 . S
C429 H434 0.931 . S
C430 C429 1.351 . S
C430 N431 1.373 . S
C430 H458 0.930 . S
N431 C430 1.373 . S
N431 C433 1.340 . S
N432 C429 1.368 . S
N432 C433 1.321 . S
N432 Co435 2.135 . S
C433 N431 1.340 . S
C433 N432 1.321 . S
C433 H457 0.930 1_565 S
H434 C429 0.931 . S
Co435 N432 2.135 . S
Co435 N438 2.121 . S
Co435 O443 2.055 1_565 S
Co435 O446 2.039 1_565 S
Co435 N449 2.140 . S
C436 O437 1.227 1_545 S
C436 O446 1.265 . S
O437 C436 1.227 1_565 S
N438 Co435 2.121 . S
N438 C440 1.375 . S
N438 C441 1.313 . S
C439 C440 1.338 . S
C439 N442 1.377 . S
C439 H459 0.930 . S
C440 N438 1.375 . S
C440 C439 1.338 . S
C440 H444 0.931 . S
C441 N438 1.313 . S
C441 N442 1.344 . S
C441 H445 0.930 . S
N442 C439 1.377 . S
N442 C441 1.344 . S
O443 Co435 2.055 1_545 S
O443 C447 1.238 1_545 S
H444 C440 0.931 . S
H445 C441 0.930 . S
O446 Co435 2.039 1_545 S
O446 C436 1.265 . S
C447 O443 1.238 1_565 S
C447 O448 1.250 . S
O448 C447 1.250 . S
N449 Co435 2.140 . S
N449 C452 1.346 . S
N449 C453 1.345 . S
C450 C451 1.387 . S
C450 C454 1.391 . S
C451 C450 1.387 . S
C451 C452 1.369 . S
C451 H460 0.929 . S
C452 N449 1.346 . S
C452 C451 1.369 . S
C452 H455 0.928 . S
C453 N449 1.345 . S
C453 C454 1.371 . S
C453 H456 0.931 . S
C454 C450 1.391 . S
C454 C453 1.371 . S
C454 H461 0.930 . S
H455 C452 0.928 . S
H456 C453 0.931 . S
H457 C433 0.930 1_545 S
H458 C430 0.930 . S
H459 C439 0.930 . S
H460 C451 0.929 . S
H461 C454 0.930 . S
C462 C463 1.351 . S
C462 N465 1.368 . S
C462 H467 0.931 . S
C463 C462 1.351 . S
C463 N464 1.373 . S
C463 H491 0.930 . S
N464 C463 1.373 . S
N464 C466 1.340 . S
N465 C462 1.368 . S
N465 C466 1.321 . S
N465 Co468 2.135 . S
C466 N464 1.340 . S
C466 N465 1.321 . S
C466 H490 0.930 . S
H467 C462 0.931 . S
Co468 N465 2.135 . S
Co468 N471 2.121 . S
Co468 O476 2.055 . S
Co468 O479 2.039 . S
Co468 N482 2.140 . S
C469 O470 1.227 . S
C469 O479 1.265 . S
O470 C469 1.227 . S
N471 Co468 2.121 . S
N471 C473 1.375 . S
N471 C474 1.313 . S
C472 C473 1.338 . S
C472 N475 1.377 . S
C472 H492 0.930 . S
C473 N471 1.375 . S
C473 C472 1.338 . S
C473 H477 0.931 . S
C474 N471 1.313 . S
C474 N475 1.344 . S
C474 H478 0.930 . S
N475 C472 1.377 . S
N475 C474 1.344 . S
O476 Co468 2.055 . S
O476 C480 1.253 . S
H477 C473 0.931 . S
H478 C474 0.930 . S
O479 Co468 2.039 . S
O479 C469 1.265 . S
C480 O476 1.253 . S
C480 O481 1.227 . S
O481 C480 1.227 . S
N482 Co468 2.140 . S
N482 C485 1.346 . S
N482 C486 1.345 . S
C483 C484 1.387 . S
C483 C487 1.391 . S
C484 C483 1.387 . S
C484 C485 1.369 . S
C484 H493 0.929 . S
C485 N482 1.346 . S
C485 C484 1.369 . S
C485 H488 0.928 . S
C486 N482 1.345 . S
C486 C487 1.371 . S
C486 H489 0.931 . S
C487 C483 1.391 . S
C487 C486 1.371 . S
C487 H494 0.930 . S
H488 C485 0.928 . S
H489 C486 0.931 . S
H490 C466 0.930 . S
H491 C463 0.930 . S
H492 C472 0.930 . S
H493 C484 0.929 . S
H494 C487 0.930 . S
C495 C496 1.351 . S
C495 N498 1.368 . S
C495 H500 0.931 . S
C496 C495 1.351 . S
C496 N497 1.373 . S
C496 H524 0.930 . S
N497 C496 1.373 . S
N497 C499 1.340 . S
N498 C495 1.368 . S
N498 C499 1.321 . S
N498 Co501 2.135 . S
C499 N497 1.340 . S
C499 N498 1.321 . S
C499 H523 0.930 . S
H500 C495 0.931 . S
Co501 N498 2.135 . S
Co501 N504 2.121 . S
Co501 O509 2.055 . S
Co501 O512 2.039 . S
Co501 N515 2.140 . S
C502 O503 1.227 . S
C502 O512 1.265 . S
O503 C502 1.227 . S
N504 Co501 2.121 . S
N504 C506 1.375 . S
N504 C507 1.313 . S
C505 C506 1.338 . S
C505 N508 1.377 . S
C505 H525 0.930 . S
C506 N504 1.375 . S
C506 C505 1.338 . S
C506 H510 0.931 . S
C507 N504 1.313 . S
C507 N508 1.344 . S
C507 H511 0.930 . S
N508 C505 1.377 . S
N508 C507 1.344 . S
O509 Co501 2.055 . S
O509 C513 1.253 . S
H510 C506 0.931 . S
H511 C507 0.930 . S
O512 Co501 2.039 . S
O512 C502 1.265 . S
C513 O509 1.253 . S
C513 O514 1.227 . S
O514 C513 1.227 . S
N515 Co501 2.140 . S
N515 C518 1.346 . S
N515 C519 1.345 . S
C516 C517 1.387 . S
C516 C520 1.391 . S
C517 C516 1.387 . S
C517 C518 1.369 . S
C517 H526 0.929 . S
C518 N515 1.346 . S
C518 C517 1.369 . S
C518 H521 0.928 . S
C519 N515 1.345 . S
C519 C520 1.371 . S
C519 H522 0.931 . S
C520 C516 1.391 . S
C520 C519 1.371 . S
C520 H527 0.930 . S
H521 C518 0.928 . S
H522 C519 0.931 . S
H523 C499 0.930 . S
H524 C496 0.930 . S
H525 C505 0.930 . S
H526 C517 0.929 . S
H527 C520 0.930 . S
H528 C536 0.950 . S
H529 C541 0.950 . S
H530 C538 0.950 . S
H531 C540 0.950 . S
H532 C542 0.950 . S
H533 C544 0.950 . S
H534 C546 0.950 . S
H535 C547 0.950 . S
C536 H528 0.950 . S
C536 C537 1.386 . S
C536 C538 1.391 . S
C537 C536 1.386 . S
C537 C541 1.393 1_455 S
C538 H530 0.950 . S
C538 C536 1.391 . S
C538 C539 1.400 . S
C539 C538 1.400 . S
C539 C540 1.398 1_455 S
C539 C545 1.491 1_556 S
C540 H531 0.950 . S
C540 C539 1.398 1_655 S
C540 C541 1.391 . S
C541 H529 0.950 . S
C541 C537 1.393 1_655 S
C541 C540 1.391 . S
C542 H532 0.950 . S
C542 C543 1.386 1_655 S
C542 C544 1.391 . S
C543 C542 1.386 1_455 S
C543 C547 1.393 . S
C544 H533 0.950 . S
C544 C542 1.391 . S
C544 C545 1.400 1_655 S
C545 C539 1.491 1_554 S
C545 C544 1.400 1_455 S
C545 C546 1.398 . S
C546 H534 0.950 . S
C546 C545 1.398 . S
C546 C547 1.391 . S
C547 H535 0.950 . S
C547 C543 1.393 . S
C547 C546 1.391 . S
H548 C556 0.950 . S
H549 C561 0.950 . S
H550 C558 0.950 . S
H551 C560 0.950 . S
H552 C562 0.950 . S
H553 C564 0.950 . S
H554 C566 0.950 . S
H555 C567 0.950 . S
C556 H548 0.950 . S
C556 C557 1.386 . S
C556 C558 1.391 . S
C557 C556 1.386 . S
C557 C561 1.393 1_545 S
C558 H550 0.950 . S
C558 C556 1.391 . S
C558 C559 1.400 . S
C559 C558 1.400 . S
C559 C560 1.398 1_545 S
C559 C565 1.491 . S
C560 H551 0.950 . S
C560 C559 1.398 1_565 S
C560 C561 1.391 . S
C561 H549 0.950 . S
C561 C557 1.393 1_565 S
C561 C560 1.391 . S
C562 H552 0.950 . S
C562 C563 1.386 1_565 S
C562 C564 1.391 . S
C563 C562 1.386 1_545 S
C563 C567 1.393 . S
C564 H553 0.950 . S
C564 C562 1.391 . S
C564 C565 1.400 1_565 S
C565 C559 1.491 . S
C565 C564 1.400 1_545 S
C565 C566 1.398 . S
C566 H554 0.950 . S
C566 C565 1.398 . S
C566 C567 1.391 . S
C567 H555 0.950 . S
C567 C563 1.393 . S
C567 C566 1.391 . S
H568 C576 0.950 . S
H569 C581 0.950 . S
H570 C578 0.950 . S
H571 C580 0.950 . S
H572 C582 0.950 . S
H573 C584 0.950 . S
H574 C586 0.950 . S
H575 C587 0.950 . S
C576 H568 0.950 . S
C576 C577 1.386 . S
C576 C578 1.391 . S
C577 C576 1.386 . S
C577 C581 1.393 . S
C578 H570 0.950 . S
C578 C576 1.391 . S
C578 C579 1.400 . S
C579 C578 1.400 . S
C579 C580 1.398 . S
C579 C585 1.491 1_554 S
C580 H571 0.950 . S
C580 C579 1.398 . S
C580 C581 1.391 . S
C581 H569 0.950 . S
C581 C577 1.393 . S
C581 C580 1.391 . S
C582 H572 0.950 . S
C582 C583 1.386 . S
C582 C584 1.391 . S
C583 C582 1.386 . S
C583 C587 1.393 . S
C584 H573 0.950 . S
C584 C582 1.391 . S
C584 C585 1.400 . S
C585 C579 1.491 1_556 S
C585 C584 1.400 . S
C585 C586 1.398 . S
C586 H574 0.950 . S
C586 C585 1.398 . S
C586 C587 1.391 . S
C587 H575 0.950 . S
C587 C583 1.393 . S
C587 C586 1.391 . S
H588 C596 0.950 . S
H589 C601 0.950 . S
H590 C598 0.950 . S
H591 C600 0.950 . S
H592 C602 0.950 . S
H593 C604 0.950 . S
H594 C606 0.950 . S
H595 C607 0.950 . S
C596 H588 0.950 . S
C596 C597 1.386 . S
C596 C598 1.391 . S
C597 C596 1.386 . S
C597 C601 1.393 . S
C598 H590 0.950 . S
C598 C596 1.391 . S
C598 C599 1.400 . S
C599 C598 1.400 . S
C599 C600 1.398 . S
C599 C605 1.491 . S
C600 H591 0.950 . S
C600 C599 1.398 . S
C600 C601 1.391 . S
C601 H589 0.950 . S
C601 C597 1.393 . S
C601 C600 1.391 . S
C602 H592 0.950 . S
C602 C603 1.386 . S
C602 C604 1.391 . S
C603 C602 1.386 . S
C603 C607 1.393 . S
C604 H593 0.950 . S
C604 C602 1.391 . S
C604 C605 1.400 . S
C605 C599 1.491 . S
C605 C604 1.400 . S
C605 C606 1.398 . S
C606 H594 0.950 . S
C606 C605 1.398 . S
C606 C607 1.391 . S
C607 H595 0.950 . S
C607 C603 1.393 . S
C607 C606 1.391 . S
H608 C616 0.950 . S
H609 C621 0.950 . S
H610 C618 0.950 . S
H611 C620 0.950 . S
H612 C622 0.950 . S
H613 C624 0.950 . S
H614 C626 0.950 . S
H615 C627 0.950 . S
C616 H608 0.950 . S
C616 C617 1.386 . S
C616 C618 1.391 . S
C617 C616 1.386 . S
C617 C621 1.393 1_655 S
C618 H610 0.950 . S
C618 C616 1.391 . S
C618 C619 1.400 . S
C619 C618 1.400 . S
C619 C620 1.398 1_655 S
C619 C625 1.491 1_554 S
C620 H611 0.950 . S
C620 C619 1.398 1_455 S
C620 C621 1.391 . S
C621 H609 0.950 . S
C621 C617 1.393 1_455 S
C621 C620 1.391 . S
C622 H612 0.950 . S
C622 C623 1.386 1_455 S
C622 C624 1.391 . S
C623 C622 1.386 1_655 S
C623 C627 1.393 . S
C624 H613 0.950 . S
C624 C622 1.391 . S
C624 C625 1.400 1_455 S
C625 C619 1.491 1_556 S
C625 C624 1.400 1_655 S
C625 C626 1.398 . S
C626 H614 0.950 . S
C626 C625 1.398 . S
C626 C627 1.391 . S
C627 H615 0.950 . S
C627 C623 1.393 . S
C627 C626 1.391 . S
H628 C636 0.950 . S
H629 C641 0.950 . S
H630 C638 0.950 . S
H631 C640 0.950 . S
H632 C642 0.950 . S
H633 C644 0.950 . S
H634 C646 0.950 . S
H635 C647 0.950 . S
C636 H628 0.950 . S
C636 C637 1.386 1_545 S
C636 C638 1.391 . S
C637 C636 1.386 1_565 S
C637 C641 1.393 . S
C638 H630 0.950 . S
C638 C636 1.391 . S
C638 C639 1.400 1_545 S
C639 C638 1.400 1_565 S
C639 C640 1.398 . S
C639 C645 1.491 . S
C640 H631 0.950 . S
C640 C639 1.398 . S
C640 C641 1.391 . S
C641 H629 0.950 . S
C641 C637 1.393 . S
C641 C640 1.391 . S
C642 H632 0.950 . S
C642 C643 1.386 . S
C642 C644 1.391 . S
C643 C642 1.386 . S
C643 C647 1.393 1_565 S
C644 H633 0.950 . S
C644 C642 1.391 . S
C644 C645 1.400 . S
C645 C639 1.491 . S
C645 C644 1.400 . S
C645 C646 1.398 1_565 S
C646 H634 0.950 . S
C646 C645 1.398 1_545 S
C646 C647 1.391 . S
C647 H635 0.950 . S
C647 C643 1.393 1_545 S
C647 C646 1.391 . S
H648 C656 0.950 . S
H649 C661 0.950 . S
H650 C658 0.950 . S
H651 C660 0.950 . S
H652 C662 0.950 . S
H653 C664 0.950 . S
H654 C666 0.950 . S
H655 C667 0.950 . S
C656 H648 0.950 . S
C656 C657 1.386 . S
C656 C658 1.391 . S
C657 C656 1.386 . S
C657 C661 1.393 . S
C658 H650 0.950 . S
C658 C656 1.391 . S
C658 C659 1.400 . S
C659 C658 1.400 . S
C659 C660 1.398 . S
C659 C665 1.491 1_556 S
C660 H651 0.950 . S
C660 C659 1.398 . S
C660 C661 1.391 . S
C661 H649 0.950 . S
C661 C657 1.393 . S
C661 C660 1.391 . S
C662 H652 0.950 . S
C662 C663 1.386 . S
C662 C664 1.391 . S
C663 C662 1.386 . S
C663 C667 1.393 . S
C664 H653 0.950 . S
C664 C662 1.391 . S
C664 C665 1.400 . S
C665 C659 1.491 1_554 S
C665 C664 1.400 . S
C665 C666 1.398 . S
C666 H654 0.950 . S
C666 C665 1.398 . S
C666 C667 1.391 . S
C667 H655 0.950 . S
C667 C663 1.393 . S
C667 C666 1.391 . S
H668 C676 0.950 . S
H669 C681 0.950 . S
H670 C678 0.950 . S
H671 C680 0.950 . S
H672 C682 0.950 . S
H673 C684 0.950 . S
H674 C686 0.950 . S
H675 C687 0.950 . S
C676 H668 0.950 . S
C676 C677 1.386 . S
C676 C678 1.391 . S
C677 C676 1.386 . S
C677 C681 1.393 . S
C678 H670 0.950 . S
C678 C676 1.391 . S
C678 C679 1.400 . S
C679 C678 1.400 . S
C679 C680 1.398 . S
C679 C685 1.491 . S
C680 H671 0.950 . S
C680 C679 1.398 . S
C680 C681 1.391 . S
C681 H669 0.950 . S
C681 C677 1.393 . S
C681 C680 1.391 . S
C682 H672 0.950 . S
C682 C683 1.386 . S
C682 C684 1.391 . S
C683 C682 1.386 . S
C683 C687 1.393 . S
C684 H673 0.950 . S
C684 C682 1.391 . S
C684 C685 1.400 . S
C685 C679 1.491 . S
C685 C684 1.400 . S
C685 C686 1.398 . S
C686 H674 0.950 . S
C686 C685 1.398 . S
C686 C687 1.391 . S
C687 H675 0.950 . S
C687 C683 1.393 . S
C687 C686 1.391 . S
H688 C696 0.950 . S
H689 C701 0.950 1_455 S
H690 C698 0.950 . S
H691 C700 0.950 . S
H692 C702 0.950 . S
H693 C704 0.950 . S
H694 C706 0.950 . S
H695 C707 0.950 . S
C696 H688 0.950 . S
C696 C697 1.386 . S
C696 C698 1.391 . S
C697 C696 1.386 . S
C697 C701 1.393 . S
C698 H690 0.950 . S
C698 C696 1.391 . S
C698 C699 1.400 . S
C699 C698 1.400 . S
C699 C700 1.398 1_655 S
C699 C705 1.491 . S
C700 H691 0.950 . S
C700 C699 1.398 1_455 S
C700 C701 1.391 1_455 S
C701 H689 0.950 1_655 S
C701 C697 1.393 . S
C701 C700 1.391 1_655 S
C702 H692 0.950 . S
C702 C703 1.386 . S
C702 C704 1.391 1_565 S
C703 C702 1.386 . S
C703 C707 1.393 1_455 S
C704 H693 0.950 . S
C704 C702 1.391 1_545 S
C704 C705 1.400 1_455 S
C705 C699 1.491 . S
C705 C704 1.400 1_655 S
C705 C706 1.398 . S
C706 H694 0.950 . S
C706 C705 1.398 . S
C706 C707 1.391 1_545 S
C707 H695 0.950 . S
C707 C703 1.393 1_655 S
C707 C706 1.391 1_565 S
H708 C716 0.950 . S
H709 C721 0.950 . S
H710 C718 0.950 . S
H711 C720 0.950 . S
H712 C722 0.950 . S
H713 C724 0.950 . S
H714 C726 0.950 . S
H715 C727 0.950 . S
C716 H708 0.950 . S
C716 C717 1.386 1_545 S
C716 C718 1.391 . S
C717 C716 1.386 1_565 S
C717 C721 1.393 . S
C718 H710 0.950 . S
C718 C716 1.391 . S
C718 C719 1.400 1_545 S
C719 C718 1.400 1_565 S
C719 C720 1.398 . S
C719 C725 1.491 . S
C720 H711 0.950 . S
C720 C719 1.398 . S
C720 C721 1.391 . S
C721 H709 0.950 . S
C721 C717 1.393 . S
C721 C720 1.391 . S
C722 H712 0.950 . S
C722 C723 1.386 1_565 S
C722 C724 1.391 . S
C723 C722 1.386 1_545 S
C723 C727 1.393 . S
C724 H713 0.950 . S
C724 C722 1.391 . S
C724 C725 1.400 . S
C725 C719 1.491 . S
C725 C724 1.400 . S
C725 C726 1.398 1_565 S
C726 H714 0.950 . S
C726 C725 1.398 1_545 S
C726 C727 1.391 . S
C727 H715 0.950 . S
C727 C723 1.393 . S
C727 C726 1.391 . S
H728 C736 0.950 . S
H729 C741 0.950 . S
H730 C738 0.950 . S
H731 C740 0.950 . S
H732 C742 0.950 . S
H733 C744 0.950 . S
H734 C746 0.950 . S
H735 C747 0.950 . S
C736 H728 0.950 . S
C736 C737 1.386 . S
C736 C738 1.391 . S
C737 C736 1.386 . S
C737 C741 1.393 . S
C738 H730 0.950 . S
C738 C736 1.391 . S
C738 C739 1.400 . S
C739 C738 1.400 . S
C739 C740 1.398 . S
C739 C745 1.491 . S
C740 H731 0.950 . S
C740 C739 1.398 . S
C740 C741 1.391 . S
C741 H729 0.950 . S
C741 C737 1.393 . S
C741 C740 1.391 . S
C742 H732 0.950 . S
C742 C743 1.386 . S
C742 C744 1.391 . S
C743 C742 1.386 . S
C743 C747 1.393 . S
C744 H733 0.950 . S
C744 C742 1.391 . S
C744 C745 1.400 . S
C745 C739 1.491 . S
C745 C744 1.400 . S
C745 C746 1.398 . S
C746 H734 0.950 . S
C746 C745 1.398 . S
C746 C747 1.391 . S
C747 H735 0.950 . S
C747 C743 1.393 . S
C747 C746 1.391 . S
H748 C756 0.950 . S
H749 C761 0.950 . S
H750 C758 0.950 . S
H751 C760 0.950 . S
H752 C762 0.950 . S
H753 C764 0.950 . S
H754 C766 0.950 . S
H755 C767 0.950 . S
C756 H748 0.950 . S
C756 C757 1.386 . S
C756 C758 1.391 . S
C757 C756 1.386 . S
C757 C761 1.393 . S
C758 H750 0.950 . S
C758 C756 1.391 . S
C758 C759 1.400 . S
C759 C758 1.400 . S
C759 C760 1.398 . S
C759 C765 1.491 . S
C760 H751 0.950 . S
C760 C759 1.398 . S
C760 C761 1.391 . S
C761 H749 0.950 . S
C761 C757 1.393 . S
C761 C760 1.391 . S
C762 H752 0.950 . S
C762 C763 1.386 . S
C762 C764 1.391 1_655 S
C763 C762 1.386 . S
C763 C767 1.393 . S
C764 H753 0.950 . S
C764 C762 1.391 1_455 S
C764 C765 1.400 . S
C765 C759 1.491 . S
C765 C764 1.400 . S
C765 C766 1.398 . S
C766 H754 0.950 . S
C766 C765 1.398 . S
C766 C767 1.391 1_455 S
C767 H755 0.950 . S
C767 C763 1.393 . S
C767 C766 1.391 1_655 S
H768 C776 0.950 . S
H769 C781 0.950 . S
H770 C778 0.950 . S
H771 C780 0.950 . S
H772 C782 0.950 . S
H773 C784 0.950 . S
H774 C786 0.950 . S
H775 C787 0.950 . S
C776 H768 0.950 . S
C776 C777 1.386 1_655 S
C776 C778 1.391 . S
C777 C776 1.386 1_455 S
C777 C781 1.393 . S
C778 H770 0.950 . S
C778 C776 1.391 . S
C778 C779 1.400 . S
C779 C778 1.400 . S
C779 C780 1.398 1_655 S
C779 C785 1.491 . S
C780 H771 0.950 . S
C780 C779 1.398 1_455 S
C780 C781 1.391 . S
C781 H769 0.950 . S
C781 C777 1.393 . S
C781 C780 1.391 . S
C782 H772 0.950 . S
C782 C783 1.386 1_455 S
C782 C784 1.391 . S
C783 C782 1.386 1_655 S
C783 C787 1.393 . S
C784 H773 0.950 . S
C784 C782 1.391 . S
C784 C785 1.400 1_455 S
C785 C779 1.491 . S
C785 C784 1.400 1_655 S
C785 C786 1.398 . S
C786 H774 0.950 . S
C786 C785 1.398 . S
C786 C787 1.391 . S
C787 H775 0.950 . S
C787 C783 1.393 . S
C787 C786 1.391 . S
H788 C796 0.950 . S
H789 C801 0.950 . S
H790 C798 0.950 . S
H791 C800 0.951 . S
H792 C802 0.950 . S
H793 C804 0.950 . S
H794 C806 0.950 . S
H795 C807 0.950 . S
C796 H788 0.950 . S
C796 C797 1.386 1_565 S
C796 C798 1.391 1_655 S
C797 C796 1.386 1_545 S
C797 C801 1.393 . S
C798 H790 0.950 . S
C798 C796 1.391 1_455 S
C798 C799 1.400 . S
C799 C798 1.400 . S
C799 C800 1.395 1_565 S
C799 C805 1.491 . S
C800 H791 0.951 . S
C800 C799 1.395 1_545 S
C800 C801 1.393 1_455 S
C801 H789 0.950 . S
C801 C797 1.393 . S
C801 C800 1.393 1_655 S
C802 H792 0.950 . S
C802 C803 1.386 . S
C802 C804 1.391 . S
C803 C802 1.386 . S
C803 C807 1.393 . S
C804 H793 0.950 . S
C804 C802 1.391 . S
C804 C805 1.400 . S
C805 C799 1.491 . S
C805 C804 1.400 . S
C805 C806 1.398 . S
C806 H794 0.950 . S
C806 C805 1.398 . S
C806 C807 1.391 . S
C807 H795 0.950 . S
C807 C803 1.393 . S
C807 C806 1.391 . S
H808 C816 0.950 . S
H809 C821 0.950 . S
H810 C818 0.950 . S
H811 C820 0.950 . S
H812 C822 0.950 . S
H813 C824 0.950 . S
H814 C826 0.950 . S
H815 C827 0.950 . S
C816 H808 0.950 . S
C816 C817 1.386 . S
C816 C818 1.391 . S
C817 C816 1.386 . S
C817 C821 1.393 . S
C818 H810 0.950 . S
C818 C816 1.391 . S
C818 C819 1.400 . S
C819 C818 1.400 . S
C819 C820 1.398 . S
C819 C825 1.491 . S
C820 H811 0.950 . S
C820 C819 1.398 . S
C820 C821 1.391 . S
C821 H809 0.950 . S
C821 C817 1.393 . S
C821 C820 1.391 . S
C822 H812 0.950 . S
C822 C823 1.386 . S
C822 C824 1.391 1_565 S
C823 C822 1.386 . S
C823 C827 1.393 . S
C824 H813 0.950 . S
C824 C822 1.391 1_545 S
C824 C825 1.400 . S
C825 C819 1.491 . S
C825 C824 1.400 . S
C825 C826 1.398 . S
C826 H814 0.950 . S
C826 C825 1.398 . S
C826 C827 1.391 1_545 S
C827 H815 0.950 . S
C827 C823 1.393 . S
C827 C826 1.391 1_565 S
H828 C836 0.950 . S
H829 C841 0.950 . S
H830 C838 0.950 . S
H831 C840 0.950 . S
H832 C842 0.950 . S
H833 C844 0.950 . S
H834 C846 0.950 . S
H835 C847 0.950 . S
C836 H828 0.950 . S
C836 C837 1.386 . S
C836 C838 1.391 . S
C837 C836 1.386 . S
C837 C841 1.393 . S
C838 H830 0.950 . S
C838 C836 1.391 . S
C838 C839 1.400 . S
C839 C838 1.400 . S
C839 C840 1.398 . S
C839 C845 1.491 . S
C840 H831 0.950 . S
C840 C839 1.398 . S
C840 C841 1.391 . S
C841 H829 0.950 . S
C841 C837 1.393 . S
C841 C840 1.391 . S
C842 H832 0.950 . S
C842 C843 1.386 . S
C842 C844 1.391 . S
C843 C842 1.386 . S
C843 C847 1.393 . S
C844 H833 0.950 . S
C844 C842 1.391 . S
C844 C845 1.400 . S
C845 C839 1.491 . S
C845 C844 1.400 . S
C845 C846 1.398 . S
C846 H834 0.950 . S
C846 C845 1.398 . S
C846 C847 1.391 . S
C847 H835 0.950 . S
C847 C843 1.393 . S
C847 C846 1.391 . S
H848 C856 0.950 . S
H849 C861 0.950 . S
H850 C858 0.950 . S
H851 C860 0.950 1_655 S
H852 C862 0.950 . S
H853 C864 0.950 . S
H854 C866 0.950 . S
H855 C867 0.950 . S
C856 H848 0.950 . S
C856 C857 1.386 . S
C856 C858 1.391 . S
C857 C856 1.386 . S
C857 C861 1.393 . S
C858 H850 0.950 . S
C858 C856 1.391 . S
C858 C859 1.400 . S
C859 C858 1.400 . S
C859 C860 1.398 . S
C859 C865 1.491 . S
C860 H851 0.950 1_455 S
C860 C859 1.398 . S
C860 C861 1.391 . S
C861 H849 0.950 . S
C861 C857 1.393 . S
C861 C860 1.391 . S
C862 H852 0.950 . S
C862 C863 1.386 . S
C862 C864 1.391 1_545 S
C863 C862 1.386 . S
C863 C867 1.393 1_655 S
C864 H853 0.950 . S
C864 C862 1.391 1_565 S
C864 C865 1.400 1_655 S
C865 C859 1.491 . S
C865 C864 1.400 1_455 S
C865 C866 1.398 . S
C866 H854 0.950 . S
C866 C865 1.398 . S
C866 C867 1.391 1_565 S
C867 H855 0.950 . S
C867 C863 1.393 1_455 S
C867 C866 1.391 1_545 S
H868 C876 0.950 . S
H869 C881 0.950 . S
H870 C878 0.950 . S
H871 C880 0.950 . S
H872 C882 0.950 . S
H873 C884 0.950 . S
H874 C886 0.950 . S
H875 C887 0.950 . S
C876 H868 0.950 . S
C876 C877 1.386 1_565 S
C876 C878 1.391 . S
C877 C876 1.386 1_545 S
C877 C881 1.393 . S
C878 H870 0.950 . S
C878 C876 1.391 . S
C878 C879 1.400 1_565 S
C879 C878 1.400 1_545 S
C879 C880 1.398 . S
C879 C885 1.491 . S
C880 H871 0.950 . S
C880 C879 1.398 . S
C880 C881 1.391 . S
C881 H869 0.950 . S
C881 C877 1.393 . S
C881 C880 1.391 . S
C882 H872 0.950 . S
C882 C883 1.386 1_545 S
C882 C884 1.391 . S
C883 C882 1.386 1_565 S
C883 C887 1.393 . S
C884 H873 0.950 . S
C884 C882 1.391 . S
C884 C885 1.400 . S
C885 C879 1.491 . S
C885 C884 1.400 . S
C885 C886 1.398 1_545 S
C886 H874 0.950 . S
C886 C885 1.398 1_565 S
C886 C887 1.391 . S
C887 H875 0.950 . S
C887 C883 1.393 . S
C887 C886 1.391 . S
H888 C896 0.950 . S
H889 C901 0.950 . S
H890 C898 0.950 . S
H891 C900 0.950 . S
H892 C902 0.950 . S
H893 C904 0.950 . S
H894 C906 0.950 . S
H895 C907 0.950 . S
C896 H888 0.950 . S
C896 C897 1.386 . S
C896 C898 1.391 . S
C897 C896 1.386 . S
C897 C901 1.393 . S
C898 H890 0.950 . S
C898 C896 1.391 . S
C898 C899 1.400 . S
C899 C898 1.400 . S
C899 C900 1.398 . S
C899 C905 1.491 . S
C900 H891 0.950 . S
C900 C899 1.398 . S
C900 C901 1.391 . S
C901 H889 0.950 . S
C901 C897 1.393 . S
C901 C900 1.391 . S
C902 H892 0.950 . S
C902 C903 1.386 . S
C902 C904 1.391 . S
C903 C902 1.386 . S
C903 C907 1.393 . S
C904 H893 0.950 . S
C904 C902 1.391 . S
C904 C905 1.400 . S
C905 C899 1.491 . S
C905 C904 1.400 . S
C905 C906 1.398 . S
C906 H894 0.950 . S
C906 C905 1.398 . S
C906 C907 1.391 . S
C907 H895 0.950 . S
C907 C903 1.393 . S
C907 C906 1.391 . S
H908 C916 0.950 . S
H909 C921 0.950 . S
H910 C918 0.950 . S
H911 C920 0.950 . S
H912 C922 0.950 . S
H913 C924 0.950 . S
H914 C926 0.950 . S
H915 C927 0.950 . S
C916 H908 0.950 . S
C916 C917 1.386 . S
C916 C918 1.391 . S
C917 C916 1.386 . S
C917 C921 1.393 . S
C918 H910 0.950 . S
C918 C916 1.391 . S
C918 C919 1.400 . S
C919 C918 1.400 . S
C919 C920 1.398 . S
C919 C925 1.491 . S
C920 H911 0.950 . S
C920 C919 1.398 . S
C920 C921 1.391 . S
C921 H909 0.950 . S
C921 C917 1.393 . S
C921 C920 1.391 . S
C922 H912 0.950 . S
C922 C923 1.386 . S
C922 C924 1.391 1_455 S
C923 C922 1.386 . S
C923 C927 1.393 . S
C924 H913 0.950 . S
C924 C922 1.391 1_655 S
C924 C925 1.400 . S
C925 C919 1.491 . S
C925 C924 1.400 . S
C925 C926 1.398 . S
C926 H914 0.950 . S
C926 C925 1.398 . S
C926 C927 1.391 1_655 S
C927 H915 0.950 . S
C927 C923 1.393 . S
C927 C926 1.391 1_455 S
H928 C936 0.950 . S
H929 C941 0.950 . S
H930 C938 0.950 1_655 S
H931 C940 0.950 . S
H932 C942 0.950 . S
H933 C944 0.950 . S
H934 C946 0.950 . S
H935 C947 0.950 . S
C936 H928 0.950 . S
C936 C937 1.386 . S
C936 C938 1.391 . S
C937 C936 1.386 . S
C937 C941 1.393 . S
C938 H930 0.950 1_455 S
C938 C936 1.391 . S
C938 C939 1.400 . S
C939 C938 1.400 . S
C939 C940 1.398 . S
C939 C945 1.491 . S
C940 H931 0.950 . S
C940 C939 1.398 . S
C940 C941 1.391 . S
C941 H929 0.950 . S
C941 C937 1.393 . S
C941 C940 1.391 . S
C942 H932 0.950 . S
C942 C943 1.386 1_455 S
C942 C944 1.391 . S
C943 C942 1.386 1_655 S
C943 C947 1.393 . S
C944 H933 0.950 . S
C944 C942 1.391 . S
C944 C945 1.400 . S
C945 C939 1.491 . S
C945 C944 1.400 . S
C945 C946 1.398 1_455 S
C946 H934 0.950 . S
C946 C945 1.398 1_655 S
C946 C947 1.391 . S
C947 H935 0.950 . S
C947 C943 1.393 . S
C947 C946 1.391 . S
H948 C956 0.950 . S
H949 C961 0.950 . S
H950 C958 0.950 . S
H951 C960 0.952 . S
H952 C962 0.950 . S
H953 C964 0.950 . S
H954 C966 0.950 . S
H955 C967 0.950 . S
C956 H948 0.950 . S
C956 C957 1.386 . S
C956 C958 1.391 . S
C957 C956 1.386 . S
C957 C961 1.393 . S
C958 H950 0.950 . S
C958 C956 1.391 . S
C958 C959 1.400 . S
C959 C958 1.400 . S
C959 C960 1.398 . S
C959 C965 1.491 . S
C960 H951 0.952 . S
C960 C959 1.398 . S
C960 C961 1.391 . S
C961 H949 0.950 . S
C961 C957 1.393 . S
C961 C960 1.391 . S
C962 H952 0.950 . S
C962 C963 1.386 . S
C962 C964 1.391 1_455 S
C963 C962 1.386 . S
C963 C967 1.393 1_565 S
C964 H953 0.950 . S
C964 C962 1.391 1_655 S
C964 C965 1.400 1_565 S
C965 C959 1.491 . S
C965 C964 1.400 1_545 S
C965 C966 1.398 . S
C966 H954 0.950 . S
C966 C965 1.398 . S
C966 C967 1.391 1_655 S
C967 H955 0.950 . S
C967 C963 1.393 1_545 S
C967 C966 1.391 1_455 S
H968 C976 0.950 . S
H969 C981 0.950 . S
H970 C978 0.950 . S
H971 C980 0.950 . S
H972 C982 0.950 . S
H973 C984 0.950 . S
H974 C986 0.950 . S
H975 C987 0.950 . S
C976 H968 0.950 . S
C976 C977 1.386 . S
C976 C978 1.391 . S
C977 C976 1.386 . S
C977 C981 1.393 . S
C978 H970 0.950 . S
C978 C976 1.391 . S
C978 C979 1.400 . S
C979 C978 1.400 . S
C979 C980 1.398 . S
C979 C985 1.491 . S
C980 H971 0.950 . S
C980 C979 1.398 . S
C980 C981 1.391 . S
C981 H969 0.950 . S
C981 C977 1.393 . S
C981 C980 1.391 . S
C982 H972 0.950 . S
C982 C983 1.386 . S
C982 C984 1.391 1_545 S
C983 C982 1.386 . S
C983 C987 1.393 . S
C984 H973 0.950 . S
C984 C982 1.391 1_565 S
C984 C985 1.400 . S
C985 C979 1.491 . S
C985 C984 1.400 . S
C985 C986 1.398 . S
C986 H974 0.950 . S
C986 C985 1.398 . S
C986 C987 1.391 1_565 S
C987 H975 0.950 . S
C987 C983 1.393 . S
C987 C986 1.391 1_545 S
H988 C996 0.950 . S
H989 C1001 0.950 . S
H990 C998 0.950 . S
H991 C1000 0.950 . S
H992 C1002 0.950 . S
H993 C1004 0.950 . S
H994 C1006 0.950 . S
H995 C1007 0.950 . S
C996 H988 0.950 . S
C996 C997 1.386 . S
C996 C998 1.391 . S
C997 C996 1.386 . S
C997 C1001 1.393 . S
C998 H990 0.950 . S
C998 C996 1.391 . S
C998 C999 1.400 . S
C999 C998 1.400 . S
C999 C1000 1.398 . S
C999 C1005 1.491 . S
C1000 H991 0.950 . S
C1000 C999 1.398 . S
C1000 C1001 1.391 . S
C1001 H989 0.950 . S
C1001 C997 1.393 . S
C1001 C1000 1.391 . S
C1002 H992 0.950 . S
C1002 C1003 1.386 . S
C1002 C1004 1.391 . S
C1003 C1002 1.386 . S
C1003 C1007 1.393 . S
C1004 H993 0.950 . S
C1004 C1002 1.391 . S
C1004 C1005 1.400 . S
C1005 C999 1.491 . S
C1005 C1004 1.400 . S
C1005 C1006 1.398 . S
C1006 H994 0.950 . S
C1006 C1005 1.398 . S
C1006 C1007 1.391 . S
C1007 H995 0.950 . S
C1007 C1003 1.393 . S
C1007 C1006 1.391 . S
H1008 C1016 0.950 . S
H1009 C1021 0.950 . S
H1010 C1018 0.950 . S
H1011 C1020 0.950 . S
H1012 C1022 0.950 . S
H1013 C1024 0.950 . S
H1014 C1026 0.950 . S
H1015 C1027 0.950 . S
C1016 H1008 0.950 . S
C1016 C1017 1.386 . S
C1016 C1018 1.391 . S
C1017 C1016 1.386 . S
C1017 C1021 1.393 . S
C1018 H1010 0.950 . S
C1018 C1016 1.391 . S
C1018 C1019 1.400 . S
C1019 C1018 1.400 . S
C1019 C1020 1.398 . S
C1019 C1025 1.491 . S
C1020 H1011 0.950 . S
C1020 C1019 1.398 . S
C1020 C1021 1.391 . S
C1021 H1009 0.950 . S
C1021 C1017 1.393 . S
C1021 C1020 1.391 . S
C1022 H1012 0.950 . S
C1022 C1023 1.386 . S
C1022 C1024 1.391 . S
C1023 C1022 1.386 . S
C1023 C1027 1.393 . S
C1024 H1013 0.950 . S
C1024 C1022 1.391 . S
C1024 C1025 1.400 . S
C1025 C1019 1.491 . S
C1025 C1024 1.400 . S
C1025 C1026 1.398 . S
C1026 H1014 0.950 . S
C1026 C1025 1.398 . S
C1026 C1027 1.391 . S
C1027 H1015 0.950 . S
C1027 C1023 1.393 . S
C1027 C1026 1.391 . S
H1028 C1036 0.950 . S
H1029 C1041 0.950 . S
H1030 C1038 0.950 . S
H1031 C1040 0.950 . S
H1032 C1042 0.948 . S
H1033 C1044 0.950 . S
H1034 C1046 0.950 . S
H1035 C1047 0.950 . S
C1036 H1028 0.950 . S
C1036 C1037 1.386 . S
C1036 C1038 1.391 . S
C1037 C1036 1.386 . S
C1037 C1041 1.393 . S
C1038 H1030 0.950 . S
C1038 C1036 1.391 . S
C1038 C1039 1.400 . S
C1039 C1038 1.400 . S
C1039 C1040 1.398 . S
C1039 C1045 1.491 . S
C1040 H1031 0.950 . S
C1040 C1039 1.398 . S
C1040 C1041 1.391 . S
C1041 H1029 0.950 . S
C1041 C1037 1.393 . S
C1041 C1040 1.391 . S
C1042 H1032 0.948 . S
C1042 C1043 1.386 . S
C1042 C1044 1.391 . S
C1043 C1042 1.386 . S
C1043 C1047 1.393 . S
C1044 H1033 0.950 . S
C1044 C1042 1.391 . S
C1044 C1045 1.400 . S
C1045 C1039 1.491 . S
C1045 C1044 1.400 . S
C1045 C1046 1.398 . S
C1046 H1034 0.950 . S
C1046 C1045 1.398 . S
C1046 C1047 1.391 . S
C1047 H1035 0.950 . S
C1047 C1043 1.393 . S
C1047 C1046 1.391 . S
H1048 C1056 0.950 . S
H1049 C1061 0.950 . S
H1050 C1058 0.950 . S
H1051 C1060 0.950 . S
H1052 C1062 0.950 . S
H1053 C1064 0.950 . S
H1054 C1066 0.950 . S
H1055 C1067 0.950 . S
C1056 H1048 0.950 . S
C1056 C1057 1.386 . S
C1056 C1058 1.391 . S
C1057 C1056 1.386 . S
C1057 C1061 1.393 . S
C1058 H1050 0.950 . S
C1058 C1056 1.391 . S
C1058 C1059 1.400 . S
C1059 C1058 1.400 . S
C1059 C1060 1.398 . S
C1059 C1065 1.491 . S
C1060 H1051 0.950 . S
C1060 C1059 1.398 . S
C1060 C1061 1.391 . S
C1061 H1049 0.950 . S
C1061 C1057 1.393 . S
C1061 C1060 1.391 . S
C1062 H1052 0.950 . S
C1062 C1063 1.386 . S
C1062 C1064 1.391 . S
C1063 C1062 1.386 . S
C1063 C1067 1.393 . S
C1064 H1053 0.950 . S
C1064 C1062 1.391 . S
C1064 C1065 1.400 . S
C1065 C1059 1.491 . S
C1065 C1064 1.400 . S
C1065 C1066 1.398 . S
C1066 H1054 0.950 . S
C1066 C1065 1.398 . S
C1066 C1067 1.391 . S
C1067 H1055 0.950 . S
C1067 C1063 1.393 . S
C1067 C1066 1.391 . S
H1068 C1076 0.950 . S
H1069 C1081 0.950 . S
H1070 C1078 0.950 . S
H1071 C1080 0.950 . S
H1072 C1082 0.950 . S
H1073 C1084 0.950 . S
H1074 C1086 0.950 . S
H1075 C1087 0.950 . S
C1076 H1068 0.950 . S
C1076 C1077 1.386 . S
C1076 C1078 1.391 . S
C1077 C1076 1.386 . S
C1077 C1081 1.393 . S
C1078 H1070 0.950 . S
C1078 C1076 1.391 . S
C1078 C1079 1.400 . S
C1079 C1078 1.400 . S
C1079 C1080 1.398 . S
C1079 C1085 1.491 . S
C1080 H1071 0.950 . S
C1080 C1079 1.398 . S
C1080 C1081 1.391 . S
C1081 H1069 0.950 . S
C1081 C1077 1.393 . S
C1081 C1080 1.391 . S
C1082 H1072 0.950 . S
C1082 C1083 1.386 . S
C1082 C1084 1.391 . S
C1083 C1082 1.386 . S
C1083 C1087 1.393 . S
C1084 H1073 0.950 . S
C1084 C1082 1.391 . S
C1084 C1085 1.400 . S
C1085 C1079 1.491 . S
C1085 C1084 1.400 . S
C1085 C1086 1.398 . S
C1086 H1074 0.950 . S
C1086 C1085 1.398 . S
C1086 C1087 1.391 . S
C1087 H1075 0.950 . S
C1087 C1083 1.393 . S
C1087 C1086 1.391 . S
H1088 C1096 0.950 . S
H1089 C1101 0.950 1_455 S
H1090 C1098 0.950 . S
H1091 C1100 0.950 . S
H1092 C1102 0.950 . S
H1093 C1104 0.950 . S
H1094 C1106 0.950 . S
H1095 C1107 0.950 . S
C1096 H1088 0.950 . S
C1096 C1097 1.386 . S
C1096 C1098 1.391 . S
C1097 C1096 1.386 . S
C1097 C1101 1.393 . S
C1098 H1090 0.950 . S
C1098 C1096 1.391 . S
C1098 C1099 1.400 . S
C1099 C1098 1.400 . S
C1099 C1100 1.398 . S
C1099 C1105 1.491 . S
C1100 H1091 0.950 . S
C1100 C1099 1.398 . S
C1100 C1101 1.391 . S
C1101 H1089 0.950 1_655 S
C1101 C1097 1.393 . S
C1101 C1100 1.391 . S
C1102 H1092 0.950 . S
C1102 C1103 1.386 . S
C1102 C1104 1.391 . S
C1103 C1102 1.386 . S
C1103 C1107 1.393 . S
C1104 H1093 0.950 . S
C1104 C1102 1.391 . S
C1104 C1105 1.400 . S
C1105 C1099 1.491 . S
C1105 C1104 1.400 . S
C1105 C1106 1.398 . S
C1106 H1094 0.950 . S
C1106 C1105 1.398 . S
C1106 C1107 1.391 . S
C1107 H1095 0.950 . S
C1107 C1103 1.393 . S
C1107 C1106 1.391 . S
H1108 C1116 0.950 . S
H1109 C1121 0.950 . S
H1110 C1118 0.950 . S
H1111 C1120 0.950 . S
H1112 C1122 0.950 1_545 S
H1113 C1124 0.950 . S
H1114 C1126 0.950 . S
H1115 C1127 0.950 . S
C1116 H1108 0.950 . S
C1116 C1117 1.386 . S
C1116 C1118 1.391 . S
C1117 C1116 1.386 . S
C1117 C1121 1.393 . S
C1118 H1110 0.950 . S
C1118 C1116 1.391 . S
C1118 C1119 1.400 . S
C1119 C1118 1.400 . S
C1119 C1120 1.398 . S
C1119 C1125 1.491 . S
C1120 H1111 0.950 . S
C1120 C1119 1.398 . S
C1120 C1121 1.391 . S
C1121 H1109 0.950 . S
C1121 C1117 1.393 . S
C1121 C1120 1.391 . S
C1122 H1112 0.950 1_565 S
C1122 C1123 1.386 . S
C1122 C1124 1.391 . S
C1123 C1122 1.386 . S
C1123 C1127 1.393 . S
C1124 H1113 0.950 . S
C1124 C1122 1.391 . S
C1124 C1125 1.400 . S
C1125 C1119 1.491 . S
C1125 C1124 1.400 . S
C1125 C1126 1.398 . S
C1126 H1114 0.950 . S
C1126 C1125 1.398 . S
C1126 C1127 1.391 . S
C1127 H1115 0.950 . S
C1127 C1123 1.393 . S
C1127 C1126 1.391 . S
H1128 C1136 0.950 . S
H1129 C1141 0.950 . S
H1130 C1138 0.950 . S
H1131 C1140 0.950 . S
H1132 C1142 0.950 . S
H1133 C1144 0.950 . S
H1134 C1146 0.950 . S
H1135 C1147 0.950 . S
C1136 H1128 0.950 . S
C1136 C1137 1.386 . S
C1136 C1138 1.391 . S
C1137 C1136 1.386 . S
C1137 C1141 1.393 . S
C1138 H1130 0.950 . S
C1138 C1136 1.391 . S
C1138 C1139 1.400 . S
C1139 C1138 1.400 . S
C1139 C1140 1.398 . S
C1139 C1145 1.491 . S
C1140 H1131 0.950 . S
C1140 C1139 1.398 . S
C1140 C1141 1.391 . S
C1141 H1129 0.950 . S
C1141 C1137 1.393 . S
C1141 C1140 1.391 . S
C1142 H1132 0.950 . S
C1142 C1143 1.386 . S
C1142 C1144 1.391 . S
C1143 C1142 1.386 . S
C1143 C1147 1.393 . S
C1144 H1133 0.950 . S
C1144 C1142 1.391 . S
C1144 C1145 1.400 . S
C1145 C1139 1.491 . S
C1145 C1144 1.400 . S
C1145 C1146 1.398 . S
C1146 H1134 0.950 . S
C1146 C1145 1.398 . S
C1146 C1147 1.391 . S
C1147 H1135 0.950 . S
C1147 C1143 1.393 . S
C1147 C1146 1.391 . S
H1148 C1156 0.950 . S
H1149 C1161 0.950 . S
H1150 C1158 0.950 . S
H1151 C1160 0.950 . S
H1152 C1162 0.950 . S
H1153 C1164 0.950 . S
H1154 C1166 0.950 . S
H1155 C1167 0.950 . S
C1156 H1148 0.950 . S
C1156 C1157 1.386 . S
C1156 C1158 1.391 . S
C1157 C1156 1.386 . S
C1157 C1161 1.393 . S
C1158 H1150 0.950 . S
C1158 C1156 1.391 . S
C1158 C1159 1.400 . S
C1159 C1158 1.400 . S
C1159 C1160 1.398 . S
C1159 C1165 1.491 . S
C1160 H1151 0.950 . S
C1160 C1159 1.398 . S
C1160 C1161 1.391 . S
C1161 H1149 0.950 . S
C1161 C1157 1.393 . S
C1161 C1160 1.391 . S
C1162 H1152 0.950 . S
C1162 C1163 1.386 . S
C1162 C1164 1.391 . S
C1163 C1162 1.386 . S
C1163 C1167 1.393 . S
C1164 H1153 0.950 . S
C1164 C1162 1.391 . S
C1164 C1165 1.400 . S
C1165 C1159 1.491 . S
C1165 C1164 1.400 . S
C1165 C1166 1.398 . S
C1166 H1154 0.950 . S
C1166 C1165 1.398 . S
C1166 C1167 1.391 . S
C1167 H1155 0.950 . S
C1167 C1163 1.393 . S
C1167 C1166 1.391 . S
H1168 C1176 0.950 . S
H1169 C1181 0.950 . S
H1170 C1178 0.950 . S
H1171 C1180 0.950 . S
H1172 C1182 0.950 . S
H1173 C1184 0.950 . S
H1174 C1186 0.950 . S
H1175 C1187 0.950 . S
C1176 H1168 0.950 . S
C1176 C1177 1.386 . S
C1176 C1178 1.391 . S
C1177 C1176 1.386 . S
C1177 C1181 1.393 . S
C1178 H1170 0.950 . S
C1178 C1176 1.391 . S
C1178 C1179 1.400 . S
C1179 C1178 1.400 . S
C1179 C1180 1.398 . S
C1179 C1185 1.491 . S
C1180 H1171 0.950 . S
C1180 C1179 1.398 . S
C1180 C1181 1.391 . S
C1181 H1169 0.950 . S
C1181 C1177 1.393 . S
C1181 C1180 1.391 . S
C1182 H1172 0.950 . S
C1182 C1183 1.386 . S
C1182 C1184 1.391 . S
C1183 C1182 1.386 . S
C1183 C1187 1.393 . S
C1184 H1173 0.950 . S
C1184 C1182 1.391 . S
C1184 C1185 1.400 . S
C1185 C1179 1.491 . S
C1185 C1184 1.400 . S
C1185 C1186 1.398 . S
C1186 H1174 0.950 . S
C1186 C1185 1.398 . S
C1186 C1187 1.391 . S
C1187 H1175 0.950 . S
C1187 C1183 1.393 . S
C1187 C1186 1.391 . S
H1188 C1196 0.950 . S
H1189 C1201 0.950 . S
H1190 C1198 0.950 . S
H1191 C1200 0.950 . S
H1192 C1202 0.950 . S
H1193 C1204 0.950 . S
H1194 C1206 0.950 . S
H1195 C1207 0.950 . S
C1196 H1188 0.950 . S
C1196 C1197 1.386 . S
C1196 C1198 1.391 . S
C1197 C1196 1.386 . S
C1197 C1201 1.393 . S
C1198 H1190 0.950 . S
C1198 C1196 1.391 . S
C1198 C1199 1.400 . S
C1199 C1198 1.400 . S
C1199 C1200 1.398 . S
C1199 C1205 1.491 . S
C1200 H1191 0.950 . S
C1200 C1199 1.398 . S
C1200 C1201 1.391 . S
C1201 H1189 0.950 . S
C1201 C1197 1.393 . S
C1201 C1200 1.391 . S
C1202 H1192 0.950 . S
C1202 C1203 1.386 . S
C1202 C1204 1.391 . S
C1203 C1202 1.386 . S
C1203 C1207 1.393 . S
C1204 H1193 0.950 . S
C1204 C1202 1.391 . S
C1204 C1205 1.400 . S
C1205 C1199 1.491 . S
C1205 C1204 1.400 . S
C1205 C1206 1.398 . S
C1206 H1194 0.950 . S
C1206 C1205 1.398 . S
C1206 C1207 1.391 . S
C1207 H1195 0.950 . S
C1207 C1203 1.393 . S
C1207 C1206 1.391 . S
H1208 C1216 0.950 . S
H1209 C1221 0.950 . S
H1210 C1218 0.950 . S
H1211 C1220 0.950 . S
H1212 C1222 0.950 . S
H1213 C1224 0.950 . S
H1214 C1226 0.950 . S
H1215 C1227 0.950 . S
C1216 H1208 0.950 . S
C1216 C1217 1.386 . S
C1216 C1218 1.391 . S
C1217 C1216 1.386 . S
C1217 C1221 1.393 . S
C1218 H1210 0.950 . S
C1218 C1216 1.391 . S
C1218 C1219 1.400 . S
C1219 C1218 1.400 . S
C1219 C1220 1.398 . S
C1219 C1225 1.491 . S
C1220 H1211 0.950 . S
C1220 C1219 1.398 . S
C1220 C1221 1.391 . S
C1221 H1209 0.950 . S
C1221 C1217 1.393 . S
C1221 C1220 1.391 . S
C1222 H1212 0.950 . S
C1222 C1223 1.386 . S
C1222 C1224 1.391 . S
C1223 C1222 1.386 . S
C1223 C1227 1.393 . S
C1224 H1213 0.950 . S
C1224 C1222 1.391 . S
C1224 C1225 1.400 . S
C1225 C1219 1.491 . S
C1225 C1224 1.400 . S
C1225 C1226 1.398 . S
C1226 H1214 0.950 . S
C1226 C1225 1.398 . S
C1226 C1227 1.391 . S
C1227 H1215 0.950 . S
C1227 C1223 1.393 . S
C1227 C1226 1.391 . S
H1228 C1236 0.950 . S
H1229 C1241 0.950 . S
H1230 C1238 0.950 . S
H1231 C1240 0.950 . S
H1232 C1242 0.950 . S
H1233 C1244 0.950 . S
H1234 C1246 0.950 . S
H1235 C1247 0.950 . S
C1236 H1228 0.950 . S
C1236 C1237 1.386 . S
C1236 C1238 1.391 . S
C1237 C1236 1.386 . S
C1237 C1241 1.393 . S
C1238 H1230 0.950 . S
C1238 C1236 1.391 . S
C1238 C1239 1.400 . S
C1239 C1238 1.400 . S
C1239 C1240 1.398 . S
C1239 C1245 1.491 . S
C1240 H1231 0.950 . S
C1240 C1239 1.398 . S
C1240 C1241 1.391 . S
C1241 H1229 0.950 . S
C1241 C1237 1.393 . S
C1241 C1240 1.391 . S
C1242 H1232 0.950 . S
C1242 C1243 1.386 . S
C1242 C1244 1.391 . S
C1243 C1242 1.386 . S
C1243 C1247 1.393 . S
C1244 H1233 0.950 . S
C1244 C1242 1.391 . S
C1244 C1245 1.400 . S
C1245 C1239 1.491 . S
C1245 C1244 1.400 . S
C1245 C1246 1.398 . S
C1246 H1234 0.950 . S
C1246 C1245 1.398 . S
C1246 C1247 1.391 . S
C1247 H1235 0.950 . S
C1247 C1243 1.393 . S
C1247 C1246 1.391 . S
H1248 C1256 0.950 . S
H1249 C1261 0.950 . S
H1250 C1258 0.950 . S
H1251 C1260 0.950 . S
H1252 C1262 0.950 . S
H1253 C1264 0.950 . S
H1254 C1266 0.950 . S
H1255 C1267 0.950 . S
C1256 H1248 0.950 . S
C1256 C1257 1.386 . S
C1256 C1258 1.391 . S
C1257 C1256 1.386 . S
C1257 C1261 1.393 . S
C1258 H1250 0.950 . S
C1258 C1256 1.391 . S
C1258 C1259 1.400 . S
C1259 C1258 1.400 . S
C1259 C1260 1.398 . S
C1259 C1265 1.491 . S
C1260 H1251 0.950 . S
C1260 C1259 1.398 . S
C1260 C1261 1.391 . S
C1261 H1249 0.950 . S
C1261 C1257 1.393 . S
C1261 C1260 1.391 . S
C1262 H1252 0.950 . S
C1262 C1263 1.386 . S
C1262 C1264 1.391 . S
C1263 C1262 1.386 . S
C1263 C1267 1.393 . S
C1264 H1253 0.950 . S
C1264 C1262 1.391 . S
C1264 C1265 1.400 . S
C1265 C1259 1.491 . S
C1265 C1264 1.400 . S
C1265 C1266 1.398 . S
C1266 H1254 0.950 . S
C1266 C1265 1.398 . S
C1266 C1267 1.391 . S
C1267 H1255 0.950 . S
C1267 C1263 1.393 . S
C1267 C1266 1.391 . S
H1268 C1276 0.950 . S
H1269 C1281 0.950 . S
H1270 C1278 0.950 . S
H1271 C1280 0.950 . S
H1272 C1282 0.950 . S
H1273 C1284 0.950 . S
H1274 C1286 0.950 . S
H1275 C1287 0.950 . S
C1276 H1268 0.950 . S
C1276 C1277 1.386 . S
C1276 C1278 1.391 . S
C1277 C1276 1.386 . S
C1277 C1281 1.393 . S
C1278 H1270 0.950 . S
C1278 C1276 1.391 . S
C1278 C1279 1.400 . S
C1279 C1278 1.400 . S
C1279 C1280 1.398 . S
C1279 C1285 1.491 . S
C1280 H1271 0.950 . S
C1280 C1279 1.398 . S
C1280 C1281 1.391 . S
C1281 H1269 0.950 . S
C1281 C1277 1.393 . S
C1281 C1280 1.391 . S
C1282 H1272 0.950 . S
C1282 C1283 1.386 . S
C1282 C1284 1.391 . S
C1283 C1282 1.386 . S
C1283 C1287 1.393 . S
C1284 H1273 0.950 . S
C1284 C1282 1.391 . S
C1284 C1285 1.400 . S
C1285 C1279 1.491 . S
C1285 C1284 1.400 . S
C1285 C1286 1.398 . S
C1286 H1274 0.950 . S
C1286 C1285 1.398 . S
C1286 C1287 1.391 . S
C1287 H1275 0.950 . S
C1287 C1283 1.393 . S
C1287 C1286 1.391 . S
H1288 C1296 0.950 . S
H1289 C1301 0.950 . S
H1290 C1298 0.950 . S
H1291 C1300 0.950 . S
H1292 C1302 0.950 . S
H1293 C1304 0.950 . S
H1294 C1306 0.950 . S
H1295 C1307 0.950 . S
C1296 H1288 0.950 . S
C1296 C1297 1.386 . S
C1296 C1298 1.391 . S
C1297 C1296 1.386 . S
C1297 C1301 1.393 . S
C1298 H1290 0.950 . S
C1298 C1296 1.391 . S
C1298 C1299 1.400 . S
C1299 C1298 1.400 . S
C1299 C1300 1.398 . S
C1299 C1305 1.491 . S
C1300 H1291 0.950 . S
C1300 C1299 1.398 . S
C1300 C1301 1.391 . S
C1301 H1289 0.950 . S
C1301 C1297 1.393 . S
C1301 C1300 1.391 . S
C1302 H1292 0.950 . S
C1302 C1303 1.386 . S
C1302 C1304 1.391 . S
C1303 C1302 1.386 . S
C1303 C1307 1.393 . S
C1304 H1293 0.950 . S
C1304 C1302 1.391 . S
C1304 C1305 1.400 . S
C1305 C1299 1.491 . S
C1305 C1304 1.400 . S
C1305 C1306 1.398 . S
C1306 H1294 0.950 . S
C1306 C1305 1.398 . S
C1306 C1307 1.391 . S
C1307 H1295 0.950 . S
C1307 C1303 1.393 . S
C1307 C1306 1.391 . S
H1308 C1316 0.950 . S
H1309 C1321 0.950 . S
H1310 C1318 0.950 . S
H1311 C1320 0.950 . S
H1312 C1322 0.950 . S
H1313 C1324 0.950 . S
H1314 C1326 0.950 . S
H1315 C1327 0.950 . S
C1316 H1308 0.950 . S
C1316 C1317 1.386 . S
C1316 C1318 1.391 . S
C1317 C1316 1.386 . S
C1317 C1321 1.393 . S
C1318 H1310 0.950 . S
C1318 C1316 1.391 . S
C1318 C1319 1.400 . S
C1319 C1318 1.400 . S
C1319 C1320 1.398 . S
C1319 C1325 1.491 . S
C1320 H1311 0.950 . S
C1320 C1319 1.398 . S
C1320 C1321 1.391 . S
C1321 H1309 0.950 . S
C1321 C1317 1.393 . S
C1321 C1320 1.391 . S
C1322 H1312 0.950 . S
C1322 C1323 1.386 . S
C1322 C1324 1.391 . S
C1323 C1322 1.386 . S
C1323 C1327 1.393 . S
C1324 H1313 0.950 . S
C1324 C1322 1.391 . S
C1324 C1325 1.400 . S
C1325 C1319 1.491 . S
C1325 C1324 1.400 . S
C1325 C1326 1.398 . S
C1326 H1314 0.950 . S
C1326 C1325 1.398 . S
C1326 C1327 1.391 . S
C1327 H1315 0.950 . S
C1327 C1323 1.393 . S
C1327 C1326 1.391 . S
C537 N134 1.574 . S
C543 N2 1.572 . S
C557 N167 1.578 . S
C563 N35 1.576 . S
C577 N68 1.578 . S
C583 N200 1.577 . S
C597 N233 1.571 . S
C603 N101 1.573 . S
C617 N398 1.563 . S
C623 N266 1.564 . S
C637 N299 1.577 . S
C643 N431 1.575 . S
C657 N332 1.561 . S
C663 N464 1.562 . S
C677 N365 1.563 . S
C683 N497 1.562 . S
C697 C7 1.597 . S
C703 C414 1.691 1_455 S
C717 C40 1.623 . S
C723 C447 1.705 1_545 S
C737 C480 1.706 . S
C743 C73 1.614 . S
C757 C106 1.600 . S
C763 C513 1.697 . S
C777 C282 1.696 1_455 S
C783 C139 1.601 . S
C797 C315 1.691 1_545 S
C803 C172 1.597 . S
C817 C205 1.597 . S
C823 C348 1.693 . S
C837 C381 1.711 . S
C843 C238 1.623 . S
C857 C271 1.631 . S
C863 C150 1.712 1_655 S
C877 C304 1.613 . S
C883 C183 1.703 1_565 S
C897 C216 1.707 . S
C903 C337 1.623 . S
C917 C370 1.630 . S
C923 C249 1.715 . S
C937 C403 1.628 . S
C943 C18 1.712 1_655 S
C957 C436 1.631 . S
C963 C51 1.712 1_565 S
C977 C469 1.616 . S
C983 C84 1.708 . S
C997 C117 1.694 . S
C1003 C502 1.600 . S
C1017 N244 1.824 . S
C1023 N13 1.833 . S
C1037 N46 1.820 . S
C1043 N145 1.834 . S
C1057 N178 1.820 . S
C1063 N79 1.834 . S
C1077 N211 1.822 . S
C1083 N112 1.835 . S
C1097 N277 1.825 . S
C1103 N508 1.833 . S
C1117 N409 1.833 . S
C1123 N310 1.824 . S
C1137 N343 1.829 . S
C1143 N442 1.823 . S
C1157 N475 1.833 . S
C1163 N376 1.820 . S
C1177 C87 0.852 . S
C1183 C21 0.848 . S
C1197 C120 0.853 . S
C1203 C54 0.854 . S
C1217 C153 0.850 . S
C1223 C219 0.853 . S
C1237 C252 0.850 . S
C1243 C186 0.853 . S
C1257 C285 0.840 . S
C1263 C351 0.846 . S
C1277 C384 0.815 . S
C1283 C318 0.818 . S
C1297 C417 0.829 . S
C1303 C483 0.824 . S
C1317 C450 0.852 . S
C1323 C516 0.848 . S
