# Generated by pormake.
# Topology vmg, (6)-cn, num edge types: 1
# Building blocks:
#     Node 0, Type 0, BuildingBlock: VOLQOD_clean_sbu_1, # of connection points: 6
#     Node 1, Type 0, BuildingBlock: VOLQOD_clean_sbu_1, # of connection points: 6
#     Node 2, Type 0, BuildingBlock: VOLQOD_clean_sbu_1, # of connection points: 6
#     Node 3, Type 0, BuildingBlock: VOLQOD_clean_sbu_1, # of connection points: 6
#     Node 4, Type 0, BuildingBlock: VOLQOD_clean_sbu_1, # of connection points: 6
#     Node 5, Type 0, BuildingBlock: VOLQOD_clean_sbu_1, # of connection points: 6
#     Node 6, Type 0, BuildingBlock: VOLQOD_clean_sbu_1, # of connection points: 6
#     Node 7, Type 0, BuildingBlock: VOLQOD_clean_sbu_1, # of connection points: 6
#     Edge 8, Type (0, 0), BuildingBlock: OJICUG_clean_linker_0, # of connection points: 2
#     Edge 9, Type (0, 0), BuildingBlock: OJICUG_clean_linker_0, # of connection points: 2
#     Edge 10, Type (0, 0), BuildingBlock: OJICUG_clean_linker_0, # of connection points: 2
#     Edge 11, Type (0, 0), BuildingBlock: OJICUG_clean_linker_0, # of connection points: 2
#     Edge 12, Type (0, 0), BuildingBlock: OJICUG_clean_linker_0, # of connection points: 2
#     Edge 13, Type (0, 0), BuildingBlock: OJICUG_clean_linker_0, # of connection points: 2
#     Edge 14, Type (0, 0), BuildingBlock: OJICUG_clean_linker_0, # of connection points: 2
#     Edge 15, Type (0, 0), BuildingBlock: OJICUG_clean_linker_0, # of connection points: 2
#     Edge 16, Type (0, 0), BuildingBlock: OJICUG_clean_linker_0, # of connection points: 2
#     Edge 17, Type (0, 0), BuildingBlock: OJICUG_clean_linker_0, # of connection points: 2
#     Edge 18, Type (0, 0), BuildingBlock: OJICUG_clean_linker_0, # of connection points: 2
#     Edge 19, Type (0, 0), BuildingBlock: OJICUG_clean_linker_0, # of connection points: 2
#     Edge 20, Type (0, 0), BuildingBlock: OJICUG_clean_linker_0, # of connection points: 2
#     Edge 21, Type (0, 0), BuildingBlock: OJICUG_clean_linker_0, # of connection points: 2
#     Edge 22, Type (0, 0), BuildingBlock: OJICUG_clean_linker_0, # of connection points: 2
#     Edge 23, Type (0, 0), BuildingBlock: OJICUG_clean_linker_0, # of connection points: 2
#     Edge 24, Type (0, 0), BuildingBlock: OJICUG_clean_linker_0, # of connection points: 2
#     Edge 25, Type (0, 0), BuildingBlock: OJICUG_clean_linker_0, # of connection points: 2
#     Edge 26, Type (0, 0), BuildingBlock: OJICUG_clean_linker_0, # of connection points: 2
#     Edge 27, Type (0, 0), BuildingBlock: OJICUG_clean_linker_0, # of connection points: 2
#     Edge 28, Type (0, 0), BuildingBlock: OJICUG_clean_linker_0, # of connection points: 2
#     Edge 29, Type (0, 0), BuildingBlock: OJICUG_clean_linker_0, # of connection points: 2
#     Edge 30, Type (0, 0), BuildingBlock: OJICUG_clean_linker_0, # of connection points: 2
#     Edge 31, Type (0, 0), BuildingBlock: OJICUG_clean_linker_0, # of connection points: 2
# Relax obj value: 0.363
# Max RMSD: 0.272
# Mean RMSD: 0.272
data_MOF--net-vmg--node1-VOLQOD_clean_sbu_1--edge1-OJICUG_clean_linker_0
_symmetry_space_group_name_H-M    P1
_symmetry_Int_Tables_number       1
_symmetry_cell_setting            triclinic
loop_
_symmetry_equiv_pos_as_xyz
'x, y, z'
_cell_length_a     21.708821
_cell_length_b     37.122292
_cell_length_c     20.968746
_cell_angle_alpha  90.009567
_cell_angle_beta   96.048237
_cell_angle_gamma 89.950908
loop_
_atom_site_label
_atom_site_type_symbol
_atom_site_fract_x
_atom_site_fract_y
_atom_site_fract_z
_atom_type_partial_charge
O0 O 0.14101 0.44911 0.09551 0.0
Zn1 Zn 0.2293 0.43558 0.12163 0.0
O2 O 0.23327 0.38421 0.12053 0.0
Zn3 Zn 0.24522 0.36416 0.20504 0.0
Zn4 Zn 0.16107 0.36477 0.07331 0.0
Zn5 Zn 0.30009 0.37125 0.07442 0.0
O6 O 0.328 0.33738 0.21516 0.0
O7 O 0.37375 0.36384 0.13669 0.0
O8 O 0.25907 0.4554 0.21078 0.0
O9 O 0.25963 0.40483 0.26769 0.0
O10 O 0.16568 0.33797 0.22636 0.0
O11 O 0.10578 0.34715 0.1352 0.0
O12 O 0.18208 0.3196 0.02496 0.0
O13 O 0.27326 0.45627 0.04924 0.0
O14 O 0.28451 0.32306 0.03739 0.0
O15 O 0.30958 0.40745 0.00458 0.0
C16 C 0.10406 0.43625 0.04975 0.0
C17 C 0.37653 0.34507 0.1879 0.0
C18 C 0.11282 0.3362 0.19286 0.0
C19 C 0.26659 0.43883 0.26454 0.0
C20 C 0.23525 0.30573 0.02022 0.0
C21 C 0.29748 0.44107 0.00325 0.0
O22 O 0.11247 0.40499 0.02629 0.0
O23 O 0.85713 0.44884 0.40455 0.0
Zn24 Zn 0.76886 0.43541 0.37844 0.0
O25 O 0.76493 0.38404 0.37956 0.0
Zn26 Zn 0.75306 0.36402 0.29503 0.0
Zn27 Zn 0.83709 0.36452 0.42689 0.0
Zn28 Zn 0.69803 0.37119 0.42558 0.0
O29 O 0.67032 0.33727 0.28483 0.0
O30 O 0.62445 0.36382 0.36319 0.0
O31 O 0.73909 0.45526 0.2893 0.0
O32 O 0.73861 0.40469 0.23237 0.0
O33 O 0.83268 0.33783 0.27374 0.0
O34 O 0.89245 0.34686 0.36502 0.0
O35 O 0.81593 0.31933 0.47519 0.0
O36 O 0.72491 0.45617 0.45083 0.0
O37 O 0.71351 0.32301 0.46267 0.0
O38 O 0.68844 0.40741 0.4954 0.0
C39 C 0.8941 0.436 0.45034 0.0
C40 C 0.62175 0.34502 0.31201 0.0
C41 C 0.8855 0.33599 0.3073 0.0
C42 C 0.7316 0.4387 0.23553 0.0
C43 C 0.7627 0.30558 0.47991 0.0
C44 C 0.7006 0.44101 0.49676 0.0
O45 O 0.88571 0.40476 0.47387 0.0
O46 O 0.85699 0.50964 0.90452 0.0
Zn47 Zn 0.76867 0.52308 0.87842 0.0
O48 O 0.76457 0.57445 0.87955 0.0
Zn49 Zn 0.75261 0.59448 0.79503 0.0
Zn50 Zn 0.83673 0.59394 0.9268 0.0
Zn51 Zn 0.69772 0.58734 0.92565 0.0
O52 O 0.6698 0.62124 0.78491 0.0
O53 O 0.62406 0.59473 0.86335 0.0
O54 O 0.73894 0.50323 0.78928 0.0
O55 O 0.73825 0.55381 0.73237 0.0
O56 O 0.83213 0.62068 0.7737 0.0
O57 O 0.892 0.61159 0.8649 0.0
O58 O 0.81559 0.6391 0.97516 0.0
O59 O 0.72479 0.50233 0.95083 0.0
O60 O 0.71317 0.63552 0.96276 0.0
O61 O 0.68828 0.5511 0.99547 0.0
C62 C 0.89391 0.5225 0.9503 0.0
C63 C 0.62127 0.61352 0.81215 0.0
C64 C 0.88497 0.6225 0.80722 0.0
C65 C 0.73137 0.5198 0.73552 0.0
C66 C 0.76237 0.6529 0.97995 0.0
C67 C 0.7005 0.5175 0.9968 0.0
O68 O 0.88542 0.55375 0.9738 0.0
O69 O 0.14087 0.50959 0.59548 0.0
Zn70 Zn 0.2291 0.5231 0.62161 0.0
O71 O 0.23292 0.57447 0.62052 0.0
Zn72 Zn 0.24477 0.59451 0.70504 0.0
Zn73 Zn 0.16071 0.59394 0.57321 0.0
Zn74 Zn 0.29977 0.5874 0.57449 0.0
O75 O 0.32748 0.62129 0.71524 0.0
O76 O 0.37336 0.59478 0.63685 0.0
O77 O 0.25891 0.50328 0.71075 0.0
O78 O 0.25928 0.55384 0.76769 0.0
O79 O 0.16513 0.62069 0.72632 0.0
O80 O 0.10534 0.61157 0.63509 0.0
O81 O 0.18174 0.63915 0.52493 0.0
O82 O 0.27314 0.5024 0.54924 0.0
O83 O 0.28417 0.63559 0.53747 0.0
O84 O 0.30942 0.55121 0.50465 0.0
C85 C 0.10387 0.52242 0.54971 0.0
C86 C 0.37606 0.61357 0.68804 0.0
C87 C 0.11229 0.62249 0.69277 0.0
C88 C 0.26636 0.51984 0.76452 0.0
C89 C 0.23493 0.65297 0.52025 0.0
C90 C 0.29738 0.5176 0.50329 0.0
O91 O 0.11218 0.55368 0.52622 0.0
O92 O 0.64033 0.94889 0.09596 0.0
Zn93 Zn 0.72863 0.93543 0.12205 0.0
O94 O 0.73266 0.88406 0.12092 0.0
Zn95 Zn 0.74461 0.86402 0.20544 0.0
Zn96 Zn 0.66049 0.86458 0.07367 0.0
Zn97 Zn 0.79951 0.87115 0.07482 0.0
O98 O 0.82741 0.83726 0.21558 0.0
O99 O 0.87316 0.86375 0.13713 0.0
O100 O 0.75839 0.95526 0.21119 0.0
O101 O 0.75899 0.90469 0.2681 0.0
O102 O 0.66507 0.83784 0.22677 0.0
O103 O 0.60521 0.84695 0.13557 0.0
O104 O 0.6816 0.81941 0.02531 0.0
O105 O 0.77253 0.95616 0.04964 0.0
O106 O 0.78402 0.82297 0.03773 0.0
O107 O 0.80898 0.90738 0.005 0.0
C108 C 0.60339 0.93604 0.05017 0.0
C109 C 0.87595 0.84498 0.18834 0.0
C110 C 0.61222 0.83604 0.19325 0.0
C111 C 0.76593 0.9387 0.26495 0.0
C112 C 0.73481 0.8056 0.02053 0.0
C113 C 0.7968 0.94098 0.00366 0.0
O114 O 0.61184 0.90479 0.02667 0.0
O115 O 0.35644 0.94906 0.405 0.0
Zn116 Zn 0.26819 0.93556 0.37886 0.0
O117 O 0.26432 0.8842 0.37996 0.0
Zn118 Zn 0.25245 0.86416 0.29543 0.0
Zn119 Zn 0.33651 0.86471 0.42726 0.0
Zn120 Zn 0.19745 0.87129 0.42598 0.0
O121 O 0.16974 0.83739 0.28525 0.0
O122 O 0.12385 0.8639 0.36363 0.0
O123 O 0.2384 0.9554 0.28973 0.0
O124 O 0.23796 0.90483 0.23279 0.0
O125 O 0.33207 0.83797 0.27415 0.0
O126 O 0.39187 0.84706 0.36539 0.0
O127 O 0.31545 0.81952 0.47555 0.0
O128 O 0.22417 0.95628 0.45124 0.0
O129 O 0.21302 0.8231 0.46301 0.0
O130 O 0.18783 0.90749 0.49582 0.0
C131 C 0.39343 0.93621 0.45077 0.0
C132 C 0.12116 0.84511 0.31245 0.0
C133 C 0.3849 0.83615 0.3077 0.0
C134 C 0.23092 0.93884 0.23596 0.0
C135 C 0.26226 0.80571 0.48023 0.0
C136 C 0.19991 0.94109 0.49718 0.0
O137 O 0.38508 0.90495 0.47426 0.0
O138 O 0.35638 0.00954 0.90496 0.0
Zn139 Zn 0.26811 0.02309 0.87885 0.0
O140 O 0.26419 0.07446 0.87995 0.0
Zn141 Zn 0.25226 0.09451 0.79544 0.0
Zn142 Zn 0.33641 0.09389 0.92717 0.0
Zn143 Zn 0.1974 0.08744 0.92606 0.0
O144 O 0.16948 0.1213 0.7853 0.0
O145 O 0.12373 0.09485 0.86378 0.0
O146 O 0.23832 0.00327 0.78971 0.0
O147 O 0.23783 0.05384 0.73279 0.0
O148 O 0.33182 0.12068 0.77411 0.0
O149 O 0.39171 0.11148 0.86527 0.0
O150 O 0.31544 0.13907 0.97551 0.0
O151 O 0.22414 0.00242 0.95124 0.0
O152 O 0.21301 0.13563 0.96307 0.0
O153 O 0.18787 0.05125 0.99591 0.0
C154 C 0.39335 0.02239 0.95073 0.0
C155 C 0.12095 0.11361 0.81256 0.0
C156 C 0.38468 0.12244 0.80761 0.0
C157 C 0.23082 0.01984 0.73594 0.0
C158 C 0.26227 0.15295 0.98025 0.0
C159 C 0.19994 0.01763 0.99724 0.0
O160 O 0.38498 0.05365 0.97418 0.0
O161 O 0.64027 0.00968 0.59591 0.0
Zn162 Zn 0.72856 0.02309 0.62203 0.0
O163 O 0.73254 0.07446 0.62091 0.0
Zn164 Zn 0.74442 0.09448 0.70545 0.0
Zn165 Zn 0.66039 0.094 0.57358 0.0
Zn166 Zn 0.79945 0.0873 0.5749 0.0
O167 O 0.82716 0.12123 0.71563 0.0
O168 O 0.87304 0.09467 0.63728 0.0
O169 O 0.7583 0.00324 0.71117 0.0
O170 O 0.75886 0.05381 0.76811 0.0
O171 O 0.66482 0.12069 0.72673 0.0
O172 O 0.60505 0.11167 0.63545 0.0
O173 O 0.68159 0.13917 0.52527 0.0
O174 O 0.7725 0.00232 0.54965 0.0
O175 O 0.78401 0.13548 0.53779 0.0
O176 O 0.80902 0.05106 0.50509 0.0
C177 C 0.60332 0.02254 0.55012 0.0
C178 C 0.87574 0.11348 0.68844 0.0
C179 C 0.612 0.12254 0.69316 0.0
C180 C 0.76582 0.0198 0.76494 0.0
C181 C 0.73483 0.15292 0.52055 0.0
C182 C 0.79683 0.01747 0.50372 0.0
O183 O 0.61174 0.05378 0.5266 0.0
C184 C 0.54962 0.33402 0.21341 0.0
C185 C 0.55994 0.33587 0.28047 0.0
H186 H 0.4824 0.33539 0.13119 0.0
C187 C 0.50909 0.33428 0.31678 0.0
H188 H 0.58795 0.33516 0.1843 0.0
C189 C 0.44871 0.33399 0.28646 0.0
C190 C 0.43838 0.3359 0.21941 0.0
H191 H 0.51593 0.33527 0.36869 0.0
H192 H 0.41038 0.3351 0.31558 0.0
C193 C 0.48923 0.33434 0.18309 0.0
C194 C 0.54909 0.62462 0.7136 0.0
C195 C 0.55942 0.62268 0.78065 0.0
H196 H 0.48188 0.62335 0.63137 0.0
C197 C 0.50857 0.62423 0.81697 0.0
H198 H 0.58743 0.62352 0.68448 0.0
C199 C 0.44818 0.62455 0.78665 0.0
C200 C 0.43787 0.62272 0.7196 0.0
H201 H 0.51541 0.62316 0.86888 0.0
H202 H 0.40986 0.62339 0.81576 0.0
C203 C 0.48871 0.62434 0.68328 0.0
C204 C 0.04904 0.83402 0.21387 0.0
C205 C 0.05935 0.83593 0.28092 0.0
H206 H 0.98181 0.83529 0.13165 0.0
C207 C 0.00851 0.83433 0.31724 0.0
H208 H 0.08737 0.83515 0.18476 0.0
C209 C 0.94813 0.83399 0.28693 0.0
C210 C 0.9378 0.83585 0.21987 0.0
H211 H 0.01534 0.83537 0.36915 0.0
H212 H 0.9098 0.83511 0.31604 0.0
C213 C 0.98865 0.83428 0.18355 0.0
C214 C 0.04877 0.12458 0.71396 0.0
C215 C 0.0591 0.12274 0.78102 0.0
H216 H 0.98156 0.12318 0.63174 0.0
C217 C 0.00825 0.12432 0.81734 0.0
H218 H 0.08711 0.12345 0.68485 0.0
C219 C 0.94786 0.12459 0.78701 0.0
C220 C 0.93755 0.12266 0.71997 0.0
H221 H 0.01509 0.12333 0.86924 0.0
H222 H 0.90953 0.12347 0.81613 0.0
C223 C 0.98839 0.12424 0.68364 0.0
C224 C 0.18973 0.24409 0.00334 0.0
C225 C 0.24125 0.267 0.00549 0.0
H226 H 0.15626 0.19005 0.99609 0.0
C227 C 0.30036 0.2518 0.00221 0.0
H228 H 0.14377 0.25478 0.00687 0.0
C229 C 0.3078 0.21459 0.99712 0.0
C230 C 0.25628 0.19168 0.99497 0.0
H231 H 0.34127 0.26863 0.00438 0.0
H232 H 0.35376 0.2039 0.99359 0.0
C233 C 0.19717 0.20688 0.99825 0.0
C234 C 0.69731 0.25187 0.49818 0.0
C235 C 0.7565 0.26688 0.49478 0.0
H236 H 0.64364 0.20415 0.50708 0.0
C237 C 0.80788 0.24381 0.497 0.0
H238 H 0.6565 0.26882 0.49598 0.0
C239 C 0.80022 0.20662 0.50228 0.0
C240 C 0.74103 0.19162 0.50568 0.0
H241 H 0.85389 0.25435 0.49338 0.0
H242 H 0.84103 0.18967 0.50449 0.0
C243 C 0.68965 0.21469 0.50346 0.0
C244 C 0.8001 0.75178 0.00232 0.0
C245 C 0.74094 0.76689 0.00567 0.0
H246 H 0.85367 0.70396 0.99347 0.0
C247 C 0.6895 0.74391 0.00342 0.0
H248 H 0.84095 0.76866 0.00455 0.0
C249 C 0.69707 0.70672 0.99816 0.0
C250 C 0.75624 0.69161 0.99481 0.0
H251 H 0.6435 0.75454 0.00701 0.0
H252 H 0.65623 0.68984 0.99593 0.0
C253 C 0.80767 0.71458 0.99706 0.0
C254 C 0.18953 0.71469 0.50339 0.0
C255 C 0.24099 0.69169 0.50551 0.0
H256 H 0.15618 0.76879 0.49615 0.0
C257 C 0.30013 0.70678 0.50219 0.0
H258 H 0.14355 0.70408 0.50697 0.0
C259 C 0.30765 0.74398 0.49708 0.0
C260 C 0.25619 0.76699 0.49496 0.0
H261 H 0.34099 0.68988 0.50432 0.0
H262 H 0.35363 0.75459 0.49351 0.0
C263 C 0.19705 0.75189 0.49829 0.0
C264 C 0.99019 0.51361 0.02559 0.0
C265 C 0.94764 0.5005 0.97601 0.0
H266 H 0.07288 0.50371 0.08762 0.0
C267 C 0.95702 0.46604 0.9507 0.0
H268 H 0.98441 0.54003 0.04611 0.0
C269 C 0.0078 0.44516 0.97444 0.0
C270 C 0.05035 0.45827 0.02402 0.0
H271 H 0.92512 0.45506 0.91241 0.0
H272 H 0.01359 0.41875 0.95392 0.0
C273 C 0.04099 0.49274 0.04933 0.0
C274 C 0.00765 0.51342 0.47439 0.0
C275 C 0.05025 0.50036 0.524 0.0
H276 H 0.92502 0.50344 0.41237 0.0
C277 C 0.04104 0.4659 0.54935 0.0
H278 H 0.01331 0.53983 0.45384 0.0
C279 C 0.99035 0.44498 0.52563 0.0
C280 C 0.94774 0.45804 0.47603 0.0
H281 H 0.07298 0.45496 0.58766 0.0
H282 H 0.98469 0.41857 0.54619 0.0
C283 C 0.95696 0.4925 0.45068 0.0
C284 C 0.50711 0.94497 0.97488 0.0
C285 C 0.54968 0.95807 0.02446 0.0
H286 H 0.42444 0.95491 0.91286 0.0
C287 C 0.54036 -0.00746 0.04977 0.0
H288 H 0.51287 0.91856 0.95437 0.0
C289 C 0.4896 0.01344 0.02603 0.0
C290 C 0.44703 0.00034 0.97645 0.0
H291 H 0.57227 0.0035 0.08806 0.0
H292 H 0.48385 0.03985 0.04655 0.0
C293 C 0.45635 0.96587 0.95115 0.0
C294 C 0.45633 -0.0073 0.45113 0.0
C295 C 0.44707 0.95825 0.47648 0.0
H296 H 0.51275 0.04 0.45428 0.0
C297 C 0.48967 0.94517 0.52608 0.0
H298 H 0.4244 0.00365 0.41282 0.0
C299 C 0.54039 0.96606 0.54979 0.0
C300 C 0.54965 0.00052 0.52443 0.0
H301 H 0.48397 0.91876 0.54663 0.0
H302 H 0.57232 0.95511 0.58809 0.0
C303 C 0.50705 0.0136 0.47484 0.0
C304 C 0.99857 0.32427 0.18364 0.0
C305 C 0.05583 0.32629 0.2223 0.0
H306 H 0.89953 0.32544 0.17992 0.0
C307 C 0.05585 0.32436 0.28905 0.0
H308 H 0.99672 0.32509 0.13184 0.0
C309 C -0.00016 0.32421 0.31651 0.0
C310 C 0.94256 0.32617 0.27786 0.0
H311 H 0.09888 0.32553 0.32023 0.0
H312 H 0.00169 0.32499 0.36832 0.0
C313 C 0.94256 0.3243 0.2111 0.0
C314 C 0.99797 0.63431 0.68354 0.0
C315 C 0.05524 0.63235 0.7222 0.0
H316 H 0.89893 0.63304 0.67982 0.0
C317 C 0.05525 0.63429 0.78895 0.0
H318 H 0.99613 0.63348 0.63174 0.0
C319 C -0.00076 0.63439 0.81641 0.0
C320 C 0.94198 0.63236 0.77776 0.0
H321 H 0.09829 0.63316 0.82013 0.0
H322 H 0.00109 0.63361 0.86822 0.0
C323 C 0.94196 0.63422 0.711 0.0
C324 C 0.49921 0.82429 0.31693 0.0
C325 C 0.44195 0.82627 0.27827 0.0
H326 H 0.59826 0.82551 0.32065 0.0
C327 C 0.44193 0.82432 0.21152 0.0
H328 H 0.50106 0.82512 0.36873 0.0
C329 C 0.49795 0.8242 0.18406 0.0
C330 C 0.55521 0.8262 0.22271 0.0
H331 H 0.3989 0.82546 0.18034 0.0
H332 H 0.4961 0.82497 0.13225 0.0
C333 C 0.55523 0.82435 0.28947 0.0
C334 C 0.49767 0.13436 0.68395 0.0
C335 C 0.55495 0.13238 0.7226 0.0
H336 H 0.39863 0.13307 0.68023 0.0
C337 C 0.55496 0.13427 0.78936 0.0
H338 H 0.49583 0.13357 0.63214 0.0
C339 C 0.49894 0.13433 0.81682 0.0
C340 C 0.44168 0.13232 0.77816 0.0
H341 H 0.59799 0.13313 0.82054 0.0
H342 H 0.50079 0.13352 0.86863 0.0
C343 C 0.44166 0.13424 0.71141 0.0
C344 C 0.30244 0.44354 0.88406 0.0
C345 C 0.30091 0.46161 0.94298 0.0
H346 H 0.29202 0.44751 0.78135 0.0
C347 C 0.29325 0.49917 0.94244 0.0
H348 H 0.30785 0.41455 0.88265 0.0
C349 C 0.28418 0.51797 0.88454 0.0
C350 C 0.28195 0.49972 0.82543 0.0
H351 H 0.2919 0.51397 0.98681 0.0
H352 H 0.27674 0.54679 0.88633 0.0
C353 C 0.29277 0.46238 0.82588 0.0
C354 C 0.69555 0.4435 0.61595 0.0
C355 C 0.69711 0.46156 0.55703 0.0
H356 H 0.70587 0.44748 0.71865 0.0
C357 C 0.70471 0.49911 0.55758 0.0
H358 H 0.69019 0.41451 0.61735 0.0
C359 C 0.71369 0.51792 0.61549 0.0
C360 C 0.71588 0.49967 0.6746 0.0
H361 H 0.70608 0.51391 0.51322 0.0
H362 H 0.72109 0.54674 0.61371 0.0
C363 C 0.70514 0.46233 0.67413 0.0
C364 C 0.71391 0.44058 0.11551 0.0
C365 C 0.71605 0.45883 0.17462 0.0
H366 H 0.70624 0.4446 0.01324 0.0
C367 C 0.70518 0.49617 0.17417 0.0
H368 H 0.7214 0.41177 0.11371 0.0
C369 C 0.69551 0.515 0.11599 0.0
C370 C 0.6971 0.49694 0.05707 0.0
H371 H 0.70587 0.51102 0.2187 0.0
H372 H 0.69005 0.54399 0.11742 0.0
C373 C 0.70483 0.45939 0.05761 0.0
C374 C 0.29282 0.4963 0.32592 0.0
C375 C 0.28212 0.45895 0.32545 0.0
H376 H 0.30772 0.54412 0.3827 0.0
C377 C 0.28438 0.4407 0.38455 0.0
H378 H 0.29203 0.51116 0.2814 0.0
C379 C 0.29337 0.4595 0.44246 0.0
C380 C 0.30091 0.49706 0.44302 0.0
H381 H 0.27703 0.41188 0.38633 0.0
H382 H 0.29205 0.4447 0.48682 0.0
C383 C 0.30241 0.51513 0.38411 0.0
C384 C 0.80179 0.94348 0.88447 0.0
C385 C 0.80022 0.96154 0.9434 0.0
H386 H 0.79145 0.94746 0.78177 0.0
C387 C 0.79254 -0.00091 0.94287 0.0
H388 H 0.80722 0.91449 0.88305 0.0
C389 C 0.7835 0.01791 0.88497 0.0
C390 C 0.78134 -0.00034 0.82585 0.0
H391 H 0.79115 0.01389 0.98724 0.0
H392 H 0.77605 0.04673 0.88677 0.0
C393 C 0.79216 0.96232 0.8263 0.0
C394 C 0.21301 0.01799 0.61593 0.0
C395 C 0.21527 -0.00027 0.67503 0.0
H396 H 0.20531 0.01399 0.51366 0.0
C397 C 0.20453 0.96239 0.67456 0.0
H398 H 0.22039 0.04681 0.61415 0.0
C399 C 0.1949 0.94356 0.61637 0.0
C400 C 0.19641 0.96163 0.55746 0.0
H401 H 0.20531 0.94752 0.71908 0.0
H402 H 0.18956 0.91457 0.61777 0.0
C403 C 0.20398 -0.00081 0.55802 0.0
C404 C 0.2046 -0.00368 0.17461 0.0
C405 C 0.21536 0.95897 0.17505 0.0
H406 H 0.1896 0.04415 0.11785 0.0
C407 C 0.21313 0.94072 0.11594 0.0
H408 H 0.20537 0.01118 0.21913 0.0
C409 C 0.20408 0.95952 0.05804 0.0
C410 C 0.19648 -0.00291 0.05751 0.0
H411 H 0.22053 0.91189 0.11414 0.0
H412 H 0.20542 0.94472 0.01367 0.0
C413 C 0.19496 0.01516 0.11643 0.0
C414 C 0.80186 0.01498 0.38453 0.0
C415 C 0.80029 -0.00308 0.44344 0.0
H416 H 0.79152 0.01101 0.28182 0.0
C417 C 0.79264 0.95937 0.44289 0.0
H418 H 0.80726 0.04396 0.38313 0.0
C419 C 0.78362 0.94057 0.38498 0.0
C420 C 0.78144 0.95881 0.32588 0.0
H421 H 0.79125 0.94457 0.48725 0.0
H422 H 0.77618 0.91175 0.38676 0.0
C423 C 0.79224 -0.00385 0.32634 0.0
loop_
_geom_bond_atom_site_label_1
_geom_bond_atom_site_label_2
_geom_bond_distance
_geom_bond_site_symmetry_2
_ccdc_geom_bond_type
O0 Zn1 1.953 . S
O0 C16 1.225 . S
Zn1 O0 1.953 . S
Zn1 O2 1.949 . S
Zn1 O8 1.919 . S
Zn1 O13 1.924 . S
O2 Zn1 1.949 . S
O2 Zn3 1.923 . S
O2 Zn4 1.950 . S
O2 Zn5 1.945 . S
Zn3 O2 1.923 . S
Zn3 O6 1.933 . S
Zn3 O9 1.941 . S
Zn3 O10 1.965 . S
Zn4 O2 1.950 . S
Zn4 O11 1.938 . S
Zn4 O12 1.906 . S
Zn4 O22 1.953 . S
Zn5 O2 1.945 . S
Zn5 O7 1.932 . S
Zn5 O14 1.977 . S
Zn5 O15 1.910 . S
O6 Zn3 1.933 . S
O6 C17 1.226 . S
O7 Zn5 1.932 . S
O7 C17 1.307 . S
O8 Zn1 1.919 . S
O8 C19 1.253 . S
O9 Zn3 1.941 . S
O9 C19 1.283 . S
O10 Zn3 1.965 . S
O10 C18 1.303 . S
O11 Zn4 1.938 . S
O11 C18 1.247 . S
O12 Zn4 1.906 . S
O12 C20 1.304 . S
O13 Zn1 1.924 . S
O13 C21 1.311 1_554 S
O14 Zn5 1.977 . S
O14 C20 1.272 . S
O15 Zn5 1.910 . S
O15 C21 1.231 1_554 S
C16 O0 1.225 . S
C16 O22 1.298 . S
C17 O6 1.226 . S
C17 O7 1.307 . S
C18 O10 1.303 . S
C18 O11 1.247 . S
C19 O8 1.253 . S
C19 O9 1.283 . S
C20 O12 1.304 . S
C20 O14 1.272 . S
C21 O13 1.311 1_556 S
C21 O15 1.231 1_556 S
O22 Zn4 1.953 . S
O22 C16 1.298 . S
O23 Zn24 1.953 . S
O23 C39 1.225 . S
Zn24 O23 1.953 . S
Zn24 O25 1.949 . S
Zn24 O31 1.919 . S
Zn24 O36 1.924 . S
O25 Zn24 1.949 . S
O25 Zn26 1.923 . S
O25 Zn27 1.950 . S
O25 Zn28 1.945 . S
Zn26 O25 1.923 . S
Zn26 O29 1.933 . S
Zn26 O32 1.941 . S
Zn26 O33 1.965 . S
Zn27 O25 1.950 . S
Zn27 O34 1.938 . S
Zn27 O35 1.906 . S
Zn27 O45 1.953 . S
Zn28 O25 1.945 . S
Zn28 O30 1.932 . S
Zn28 O37 1.977 . S
Zn28 O38 1.910 . S
O29 Zn26 1.933 . S
O29 C40 1.226 . S
O30 Zn28 1.932 . S
O30 C40 1.307 . S
O31 Zn24 1.919 . S
O31 C42 1.253 . S
O32 Zn26 1.941 . S
O32 C42 1.283 . S
O33 Zn26 1.965 . S
O33 C41 1.303 . S
O34 Zn27 1.938 . S
O34 C41 1.247 . S
O35 Zn27 1.906 . S
O35 C43 1.304 . S
O36 Zn24 1.924 . S
O36 C44 1.311 . S
O37 Zn28 1.977 . S
O37 C43 1.272 . S
O38 Zn28 1.910 . S
O38 C44 1.231 . S
C39 O23 1.225 . S
C39 O45 1.298 . S
C40 O29 1.226 . S
C40 O30 1.307 . S
C41 O33 1.303 . S
C41 O34 1.247 . S
C42 O31 1.253 . S
C42 O32 1.283 . S
C43 O35 1.304 . S
C43 O37 1.272 . S
C44 O36 1.311 . S
C44 O38 1.231 . S
O45 Zn27 1.953 . S
O45 C39 1.298 . S
O46 Zn47 1.953 . S
O46 C62 1.225 . S
Zn47 O46 1.953 . S
Zn47 O48 1.949 . S
Zn47 O54 1.919 . S
Zn47 O59 1.924 . S
O48 Zn47 1.949 . S
O48 Zn49 1.923 . S
O48 Zn50 1.950 . S
O48 Zn51 1.945 . S
Zn49 O48 1.923 . S
Zn49 O52 1.933 . S
Zn49 O55 1.941 . S
Zn49 O56 1.965 . S
Zn50 O48 1.950 . S
Zn50 O57 1.938 . S
Zn50 O58 1.906 . S
Zn50 O68 1.953 . S
Zn51 O48 1.945 . S
Zn51 O53 1.932 . S
Zn51 O60 1.977 . S
Zn51 O61 1.910 . S
O52 Zn49 1.933 . S
O52 C63 1.226 . S
O53 Zn51 1.932 . S
O53 C63 1.307 . S
O54 Zn47 1.919 . S
O54 C65 1.253 . S
O55 Zn49 1.941 . S
O55 C65 1.283 . S
O56 Zn49 1.965 . S
O56 C64 1.303 . S
O57 Zn50 1.938 . S
O57 C64 1.247 . S
O58 Zn50 1.906 . S
O58 C66 1.304 . S
O59 Zn47 1.924 . S
O59 C67 1.311 1_556 S
O60 Zn51 1.977 . S
O60 C66 1.272 . S
O61 Zn51 1.910 . S
O61 C67 1.231 1_556 S
C62 O46 1.225 . S
C62 O68 1.298 . S
C63 O52 1.226 . S
C63 O53 1.307 . S
C64 O56 1.303 . S
C64 O57 1.247 . S
C65 O54 1.253 . S
C65 O55 1.283 . S
C66 O58 1.304 . S
C66 O60 1.272 . S
C67 O59 1.311 1_554 S
C67 O61 1.231 1_554 S
O68 Zn50 1.953 . S
O68 C62 1.298 . S
O69 Zn70 1.953 . S
O69 C85 1.225 . S
Zn70 O69 1.953 . S
Zn70 O71 1.949 . S
Zn70 O77 1.919 . S
Zn70 O82 1.924 . S
O71 Zn70 1.949 . S
O71 Zn72 1.923 . S
O71 Zn73 1.950 . S
O71 Zn74 1.945 . S
Zn72 O71 1.923 . S
Zn72 O75 1.933 . S
Zn72 O78 1.941 . S
Zn72 O79 1.965 . S
Zn73 O71 1.950 . S
Zn73 O80 1.938 . S
Zn73 O81 1.906 . S
Zn73 O91 1.953 . S
Zn74 O71 1.945 . S
Zn74 O76 1.932 . S
Zn74 O83 1.977 . S
Zn74 O84 1.910 . S
O75 Zn72 1.933 . S
O75 C86 1.226 . S
O76 Zn74 1.932 . S
O76 C86 1.307 . S
O77 Zn70 1.919 . S
O77 C88 1.253 . S
O78 Zn72 1.941 . S
O78 C88 1.283 . S
O79 Zn72 1.965 . S
O79 C87 1.303 . S
O80 Zn73 1.938 . S
O80 C87 1.247 . S
O81 Zn73 1.906 . S
O81 C89 1.304 . S
O82 Zn70 1.924 . S
O82 C90 1.311 . S
O83 Zn74 1.977 . S
O83 C89 1.272 . S
O84 Zn74 1.910 . S
O84 C90 1.231 . S
C85 O69 1.225 . S
C85 O91 1.298 . S
C86 O75 1.226 . S
C86 O76 1.307 . S
C87 O79 1.303 . S
C87 O80 1.247 . S
C88 O77 1.253 . S
C88 O78 1.283 . S
C89 O81 1.304 . S
C89 O83 1.272 . S
C90 O82 1.311 . S
C90 O84 1.231 . S
O91 Zn73 1.953 . S
O91 C85 1.298 . S
O92 Zn93 1.953 . S
O92 C108 1.225 . S
Zn93 O92 1.953 . S
Zn93 O94 1.949 . S
Zn93 O100 1.919 . S
Zn93 O105 1.924 . S
O94 Zn93 1.949 . S
O94 Zn95 1.923 . S
O94 Zn96 1.950 . S
O94 Zn97 1.945 . S
Zn95 O94 1.923 . S
Zn95 O98 1.933 . S
Zn95 O101 1.941 . S
Zn95 O102 1.965 . S
Zn96 O94 1.950 . S
Zn96 O103 1.938 . S
Zn96 O104 1.906 . S
Zn96 O114 1.953 . S
Zn97 O94 1.945 . S
Zn97 O99 1.932 . S
Zn97 O106 1.977 . S
Zn97 O107 1.910 . S
O98 Zn95 1.933 . S
O98 C109 1.226 . S
O99 Zn97 1.932 . S
O99 C109 1.307 . S
O100 Zn93 1.919 . S
O100 C111 1.253 . S
O101 Zn95 1.941 . S
O101 C111 1.283 . S
O102 Zn95 1.965 . S
O102 C110 1.303 . S
O103 Zn96 1.938 . S
O103 C110 1.247 . S
O104 Zn96 1.906 . S
O104 C112 1.304 . S
O105 Zn93 1.924 . S
O105 C113 1.311 1_554 S
O106 Zn97 1.977 . S
O106 C112 1.272 . S
O107 Zn97 1.910 . S
O107 C113 1.231 1_554 S
C108 O92 1.225 . S
C108 O114 1.298 . S
C109 O98 1.226 . S
C109 O99 1.307 . S
C110 O102 1.303 . S
C110 O103 1.247 . S
C111 O100 1.253 . S
C111 O101 1.283 . S
C112 O104 1.304 . S
C112 O106 1.272 . S
C113 O105 1.311 1_556 S
C113 O107 1.231 1_556 S
O114 Zn96 1.953 . S
O114 C108 1.298 . S
O115 Zn116 1.953 . S
O115 C131 1.225 . S
Zn116 O115 1.953 . S
Zn116 O117 1.949 . S
Zn116 O123 1.919 . S
Zn116 O128 1.924 . S
O117 Zn116 1.949 . S
O117 Zn118 1.923 . S
O117 Zn119 1.950 . S
O117 Zn120 1.945 . S
Zn118 O117 1.923 . S
Zn118 O121 1.933 . S
Zn118 O124 1.941 . S
Zn118 O125 1.965 . S
Zn119 O117 1.950 . S
Zn119 O126 1.938 . S
Zn119 O127 1.906 . S
Zn119 O137 1.953 . S
Zn120 O117 1.945 . S
Zn120 O122 1.932 . S
Zn120 O129 1.977 . S
Zn120 O130 1.910 . S
O121 Zn118 1.933 . S
O121 C132 1.226 . S
O122 Zn120 1.932 . S
O122 C132 1.307 . S
O123 Zn116 1.919 . S
O123 C134 1.253 . S
O124 Zn118 1.941 . S
O124 C134 1.283 . S
O125 Zn118 1.965 . S
O125 C133 1.303 . S
O126 Zn119 1.938 . S
O126 C133 1.247 . S
O127 Zn119 1.906 . S
O127 C135 1.304 . S
O128 Zn116 1.924 . S
O128 C136 1.311 . S
O129 Zn120 1.977 . S
O129 C135 1.272 . S
O130 Zn120 1.910 . S
O130 C136 1.231 . S
C131 O115 1.225 . S
C131 O137 1.298 . S
C132 O121 1.226 . S
C132 O122 1.307 . S
C133 O125 1.303 . S
C133 O126 1.247 . S
C134 O123 1.253 . S
C134 O124 1.283 . S
C135 O127 1.304 . S
C135 O129 1.272 . S
C136 O128 1.311 . S
C136 O130 1.231 . S
O137 Zn119 1.953 . S
O137 C131 1.298 . S
O138 Zn139 1.953 . S
O138 C154 1.225 . S
Zn139 O138 1.953 . S
Zn139 O140 1.949 . S
Zn139 O146 1.919 . S
Zn139 O151 1.924 . S
O140 Zn139 1.949 . S
O140 Zn141 1.923 . S
O140 Zn142 1.950 . S
O140 Zn143 1.945 . S
Zn141 O140 1.923 . S
Zn141 O144 1.933 . S
Zn141 O147 1.941 . S
Zn141 O148 1.965 . S
Zn142 O140 1.950 . S
Zn142 O149 1.938 . S
Zn142 O150 1.906 . S
Zn142 O160 1.953 . S
Zn143 O140 1.945 . S
Zn143 O145 1.932 . S
Zn143 O152 1.977 . S
Zn143 O153 1.910 . S
O144 Zn141 1.933 . S
O144 C155 1.226 . S
O145 Zn143 1.932 . S
O145 C155 1.307 . S
O146 Zn139 1.919 . S
O146 C157 1.253 . S
O147 Zn141 1.941 . S
O147 C157 1.283 . S
O148 Zn141 1.965 . S
O148 C156 1.303 . S
O149 Zn142 1.938 . S
O149 C156 1.247 . S
O150 Zn142 1.906 . S
O150 C158 1.304 . S
O151 Zn139 1.924 . S
O151 C159 1.311 1_556 S
O152 Zn143 1.977 . S
O152 C158 1.272 . S
O153 Zn143 1.910 . S
O153 C159 1.231 1_556 S
C154 O138 1.225 . S
C154 O160 1.298 . S
C155 O144 1.226 . S
C155 O145 1.307 . S
C156 O148 1.303 . S
C156 O149 1.247 . S
C157 O146 1.253 . S
C157 O147 1.283 . S
C158 O150 1.304 . S
C158 O152 1.272 . S
C159 O151 1.311 1_554 S
C159 O153 1.231 1_554 S
O160 Zn142 1.953 . S
O160 C154 1.298 . S
O161 Zn162 1.953 . S
O161 C177 1.225 . S
Zn162 O161 1.953 . S
Zn162 O163 1.949 . S
Zn162 O169 1.919 . S
Zn162 O174 1.924 . S
O163 Zn162 1.949 . S
O163 Zn164 1.923 . S
O163 Zn165 1.950 . S
O163 Zn166 1.945 . S
Zn164 O163 1.923 . S
Zn164 O167 1.933 . S
Zn164 O170 1.941 . S
Zn164 O171 1.965 . S
Zn165 O163 1.950 . S
Zn165 O172 1.938 . S
Zn165 O173 1.906 . S
Zn165 O183 1.953 . S
Zn166 O163 1.945 . S
Zn166 O168 1.932 . S
Zn166 O175 1.977 . S
Zn166 O176 1.910 . S
O167 Zn164 1.933 . S
O167 C178 1.226 . S
O168 Zn166 1.932 . S
O168 C178 1.307 . S
O169 Zn162 1.919 . S
O169 C180 1.253 . S
O170 Zn164 1.941 . S
O170 C180 1.283 . S
O171 Zn164 1.965 . S
O171 C179 1.303 . S
O172 Zn165 1.938 . S
O172 C179 1.247 . S
O173 Zn165 1.906 . S
O173 C181 1.304 . S
O174 Zn162 1.924 . S
O174 C182 1.311 . S
O175 Zn166 1.977 . S
O175 C181 1.272 . S
O176 Zn166 1.910 . S
O176 C182 1.231 . S
C177 O161 1.225 . S
C177 O183 1.298 . S
C178 O167 1.226 . S
C178 O168 1.307 . S
C179 O171 1.303 . S
C179 O172 1.247 . S
C180 O169 1.253 . S
C180 O170 1.283 . S
C181 O173 1.304 . S
C181 O175 1.272 . S
C182 O174 1.311 . S
C182 O176 1.231 . S
O183 Zn165 1.953 . S
O183 C177 1.298 . S
C184 C185 1.387 . S
C184 H188 0.950 . S
C184 C193 1.390 . S
C185 C184 1.387 . S
C185 C187 1.387 . S
H186 C193 0.950 . S
C187 C185 1.387 . S
C187 C189 1.390 . S
C187 H191 0.950 . S
H188 C184 0.950 . S
C189 C187 1.390 . S
C189 C190 1.387 . S
C189 H192 0.950 . S
C190 C189 1.387 . S
C190 C193 1.387 . S
H191 C187 0.950 . S
H192 C189 0.950 . S
C193 C184 1.390 . S
C193 H186 0.950 . S
C193 C190 1.387 . S
C194 C195 1.387 . S
C194 H198 0.950 . S
C194 C203 1.390 . S
C195 C194 1.387 . S
C195 C197 1.387 . S
H196 C203 0.950 . S
C197 C195 1.387 . S
C197 C199 1.390 . S
C197 H201 0.950 . S
H198 C194 0.950 . S
C199 C197 1.390 . S
C199 C200 1.387 . S
C199 H202 0.950 . S
C200 C199 1.387 . S
C200 C203 1.387 . S
H201 C197 0.950 . S
H202 C199 0.950 . S
C203 C194 1.390 . S
C203 H196 0.950 . S
C203 C200 1.387 . S
C204 C205 1.387 . S
C204 H208 0.950 . S
C204 C213 1.390 1_455 S
C205 C204 1.387 . S
C205 C207 1.387 . S
H206 C213 0.950 . S
C207 C205 1.387 . S
C207 C209 1.390 1_455 S
C207 H211 0.950 . S
H208 C204 0.950 . S
C209 C207 1.390 1_655 S
C209 C210 1.387 . S
C209 H212 0.950 . S
C210 C209 1.387 . S
C210 C213 1.387 . S
H211 C207 0.950 . S
H212 C209 0.950 . S
C213 C204 1.390 1_655 S
C213 H206 0.950 . S
C213 C210 1.387 . S
C214 C215 1.387 . S
C214 H218 0.950 . S
C214 C223 1.390 1_455 S
C215 C214 1.387 . S
C215 C217 1.387 . S
H216 C223 0.950 . S
C217 C215 1.387 . S
C217 C219 1.390 1_455 S
C217 H221 0.950 . S
H218 C214 0.950 . S
C219 C217 1.390 1_655 S
C219 C220 1.387 . S
C219 H222 0.950 . S
C220 C219 1.387 . S
C220 C223 1.387 . S
H221 C217 0.950 . S
H222 C219 0.950 . S
C223 C214 1.390 1_655 S
C223 H216 0.950 . S
C223 C220 1.387 . S
C224 C225 1.387 . S
C224 H228 0.950 . S
C224 C233 1.390 . S
C225 C224 1.387 . S
C225 C227 1.387 1_554 S
H226 C233 0.950 . S
C227 C225 1.387 1_556 S
C227 C229 1.390 . S
C227 H231 0.950 . S
H228 C224 0.950 . S
C229 C227 1.390 . S
C229 C230 1.387 . S
C229 H232 0.950 . S
C230 C229 1.387 . S
C230 C233 1.387 1_556 S
H231 C227 0.950 . S
H232 C229 0.950 . S
C233 C224 1.390 . S
C233 H226 0.950 . S
C233 C230 1.387 1_554 S
C234 C235 1.387 . S
C234 H238 0.950 . S
C234 C243 1.390 . S
C235 C234 1.387 . S
C235 C237 1.387 . S
H236 C243 0.950 . S
C237 C235 1.387 . S
C237 C239 1.390 . S
C237 H241 0.950 . S
H238 C234 0.950 . S
C239 C237 1.390 . S
C239 C240 1.387 . S
C239 H242 0.950 . S
C240 C239 1.387 . S
C240 C243 1.387 . S
H241 C237 0.950 . S
H242 C239 0.950 . S
C243 C234 1.390 . S
C243 H236 0.950 . S
C243 C240 1.387 . S
C244 C245 1.387 1_556 S
C244 H248 0.950 . S
C244 C253 1.390 . S
C245 C244 1.387 1_554 S
C245 C247 1.387 . S
H246 C253 0.950 . S
C247 C245 1.387 . S
C247 C249 1.390 . S
C247 H251 0.950 . S
H248 C244 0.950 . S
C249 C247 1.390 . S
C249 C250 1.387 1_554 S
C249 H252 0.950 . S
C250 C249 1.387 1_556 S
C250 C253 1.387 . S
H251 C247 0.950 . S
H252 C249 0.950 . S
C253 C244 1.390 . S
C253 H246 0.950 . S
C253 C250 1.387 . S
C254 C255 1.387 . S
C254 H258 0.950 . S
C254 C263 1.390 . S
C255 C254 1.387 . S
C255 C257 1.387 . S
H256 C263 0.950 . S
C257 C255 1.387 . S
C257 C259 1.390 . S
C257 H261 0.950 . S
H258 C254 0.950 . S
C259 C257 1.390 . S
C259 C260 1.387 . S
C259 H262 0.950 . S
C260 C259 1.387 . S
C260 C263 1.387 . S
H261 C257 0.950 . S
H262 C259 0.950 . S
C263 C254 1.390 . S
C263 H256 0.950 . S
C263 C260 1.387 . S
C264 C265 1.387 1_554 S
C264 H268 0.950 . S
C264 C273 1.390 1_655 S
C265 C264 1.387 1_556 S
C265 C267 1.387 . S
H266 C273 0.950 . S
C267 C265 1.387 . S
C267 C269 1.390 1_655 S
C267 H271 0.950 . S
H268 C264 0.950 . S
C269 C267 1.390 1_455 S
C269 C270 1.387 1_556 S
C269 H272 0.950 . S
C270 C269 1.387 1_554 S
C270 C273 1.387 . S
H271 C267 0.950 . S
H272 C269 0.950 . S
C273 C264 1.390 1_455 S
C273 H266 0.950 . S
C273 C270 1.387 . S
C274 C275 1.387 . S
C274 H278 0.950 . S
C274 C283 1.390 1_455 S
C275 C274 1.387 . S
C275 C277 1.387 . S
H276 C283 0.950 . S
C277 C275 1.387 . S
C277 C279 1.390 1_455 S
C277 H281 0.950 . S
H278 C274 0.950 . S
C279 C277 1.390 1_655 S
C279 C280 1.387 . S
C279 H282 0.950 . S
C280 C279 1.387 . S
C280 C283 1.387 . S
H281 C277 0.950 . S
H282 C279 0.950 . S
C283 C274 1.390 1_655 S
C283 H276 0.950 . S
C283 C280 1.387 . S
C284 C285 1.387 1_556 S
C284 H288 0.950 . S
C284 C293 1.390 1_565 S
C285 C284 1.387 1_554 S
C285 C287 1.387 . S
H286 C293 0.950 . S
C287 C285 1.387 . S
C287 C289 1.390 1_565 S
C287 H291 0.950 . S
H288 C284 0.950 . S
C289 C287 1.390 1_545 S
C289 C290 1.387 1_554 S
C289 H292 0.950 . S
C290 C289 1.387 1_556 S
C290 C293 1.387 . S
H291 C287 0.950 . S
H292 C289 0.950 . S
C293 C284 1.390 1_545 S
C293 H286 0.950 . S
C293 C290 1.387 . S
C294 C295 1.387 . S
C294 H298 0.950 . S
C294 C303 1.390 1_565 S
C295 C294 1.387 . S
C295 C297 1.387 . S
H296 C303 0.950 . S
C297 C295 1.387 . S
C297 C299 1.390 1_565 S
C297 H301 0.950 . S
H298 C294 0.950 . S
C299 C297 1.390 1_545 S
C299 C300 1.387 . S
C299 H302 0.950 . S
C300 C299 1.387 . S
C300 C303 1.387 . S
H301 C297 0.950 . S
H302 C299 0.950 . S
C303 C294 1.390 1_545 S
C303 H296 0.950 . S
C303 C300 1.387 . S
C304 C305 1.387 . S
C304 H308 0.950 . S
C304 C313 1.390 1_455 S
C305 C304 1.387 . S
C305 C307 1.387 . S
H306 C313 0.950 . S
C307 C305 1.387 . S
C307 C309 1.390 1_455 S
C307 H311 0.950 . S
H308 C304 0.950 . S
C309 C307 1.390 1_655 S
C309 C310 1.387 . S
C309 H312 0.950 . S
C310 C309 1.387 . S
C310 C313 1.387 . S
H311 C307 0.950 . S
H312 C309 0.950 . S
C313 C304 1.390 1_655 S
C313 H306 0.950 . S
C313 C310 1.387 . S
C314 C315 1.387 . S
C314 H318 0.950 . S
C314 C323 1.390 1_455 S
C315 C314 1.387 . S
C315 C317 1.387 . S
H316 C323 0.950 . S
C317 C315 1.387 . S
C317 C319 1.390 1_455 S
C317 H321 0.950 . S
H318 C314 0.950 . S
C319 C317 1.390 1_655 S
C319 C320 1.387 . S
C319 H322 0.950 . S
C320 C319 1.387 . S
C320 C323 1.387 . S
H321 C317 0.950 . S
H322 C319 0.950 . S
C323 C314 1.390 1_655 S
C323 H316 0.950 . S
C323 C320 1.387 . S
C324 C325 1.387 . S
C324 H328 0.950 . S
C324 C333 1.390 . S
C325 C324 1.387 . S
C325 C327 1.387 . S
H326 C333 0.950 . S
C327 C325 1.387 . S
C327 C329 1.390 . S
C327 H331 0.950 . S
H328 C324 0.950 . S
C329 C327 1.390 . S
C329 C330 1.387 . S
C329 H332 0.950 . S
C330 C329 1.387 . S
C330 C333 1.387 . S
H331 C327 0.950 . S
H332 C329 0.950 . S
C333 C324 1.390 . S
C333 H326 0.950 . S
C333 C330 1.387 . S
C334 C335 1.387 . S
C334 H338 0.950 . S
C334 C343 1.390 . S
C335 C334 1.387 . S
C335 C337 1.387 . S
H336 C343 0.950 . S
C337 C335 1.387 . S
C337 C339 1.390 . S
C337 H341 0.950 . S
H338 C334 0.950 . S
C339 C337 1.390 . S
C339 C340 1.387 . S
C339 H342 0.950 . S
C340 C339 1.387 . S
C340 C343 1.387 . S
H341 C337 0.950 . S
H342 C339 0.950 . S
C343 C334 1.390 . S
C343 H336 0.950 . S
C343 C340 1.387 . S
C344 C345 1.387 . S
C344 H348 0.950 . S
C344 C353 1.390 . S
C345 C344 1.387 . S
C345 C347 1.387 . S
H346 C353 0.950 . S
C347 C345 1.387 . S
C347 C349 1.390 . S
C347 H351 0.950 . S
H348 C344 0.950 . S
C349 C347 1.390 . S
C349 C350 1.387 . S
C349 H352 0.950 . S
C350 C349 1.387 . S
C350 C353 1.387 . S
H351 C347 0.950 . S
H352 C349 0.950 . S
C353 C344 1.390 . S
C353 H346 0.950 . S
C353 C350 1.387 . S
C354 C355 1.387 . S
C354 H358 0.950 . S
C354 C363 1.390 . S
C355 C354 1.387 . S
C355 C357 1.387 . S
H356 C363 0.950 . S
C357 C355 1.387 . S
C357 C359 1.390 . S
C357 H361 0.950 . S
H358 C354 0.950 . S
C359 C357 1.390 . S
C359 C360 1.387 . S
C359 H362 0.950 . S
C360 C359 1.387 . S
C360 C363 1.387 . S
H361 C357 0.950 . S
H362 C359 0.950 . S
C363 C354 1.390 . S
C363 H356 0.950 . S
C363 C360 1.387 . S
C364 C365 1.387 . S
C364 H368 0.950 . S
C364 C373 1.390 . S
C365 C364 1.387 . S
C365 C367 1.387 . S
H366 C373 0.950 . S
C367 C365 1.387 . S
C367 C369 1.390 . S
C367 H371 0.950 . S
H368 C364 0.950 . S
C369 C367 1.390 . S
C369 C370 1.387 . S
C369 H372 0.950 . S
C370 C369 1.387 . S
C370 C373 1.387 . S
H371 C367 0.950 . S
H372 C369 0.950 . S
C373 C364 1.390 . S
C373 H366 0.950 . S
C373 C370 1.387 . S
C374 C375 1.387 . S
C374 H378 0.950 . S
C374 C383 1.390 . S
C375 C374 1.387 . S
C375 C377 1.387 . S
H376 C383 0.950 . S
C377 C375 1.387 . S
C377 C379 1.390 . S
C377 H381 0.950 . S
H378 C374 0.950 . S
C379 C377 1.390 . S
C379 C380 1.387 . S
C379 H382 0.950 . S
C380 C379 1.387 . S
C380 C383 1.387 . S
H381 C377 0.950 . S
H382 C379 0.950 . S
C383 C374 1.390 . S
C383 H376 0.950 . S
C383 C380 1.387 . S
C384 C385 1.387 . S
C384 H388 0.950 . S
C384 C393 1.390 . S
C385 C384 1.387 . S
C385 C387 1.387 1_565 S
H386 C393 0.950 . S
C387 C385 1.387 1_545 S
C387 C389 1.390 . S
C387 H391 0.950 . S
H388 C384 0.950 . S
C389 C387 1.390 . S
C389 C390 1.387 1_545 S
C389 H392 0.950 . S
C390 C389 1.387 1_565 S
C390 C393 1.387 . S
H391 C387 0.950 . S
H392 C389 0.950 . S
C393 C384 1.390 . S
C393 H386 0.950 . S
C393 C390 1.387 . S
C394 C395 1.387 1_545 S
C394 H398 0.950 . S
C394 C403 1.390 . S
C395 C394 1.387 1_565 S
C395 C397 1.387 . S
H396 C403 0.950 . S
C397 C395 1.387 . S
C397 C399 1.390 . S
C397 H401 0.950 . S
H398 C394 0.950 . S
C399 C397 1.390 . S
C399 C400 1.387 . S
C399 H402 0.950 . S
C400 C399 1.387 . S
C400 C403 1.387 1_565 S
H401 C397 0.950 . S
H402 C399 0.950 . S
C403 C394 1.390 . S
C403 H396 0.950 . S
C403 C400 1.387 1_545 S
C404 C405 1.387 . S
C404 H408 0.950 . S
C404 C413 1.390 . S
C405 C404 1.387 . S
C405 C407 1.387 1_545 S
H406 C413 0.950 . S
C407 C405 1.387 1_565 S
C407 C409 1.390 . S
C407 H411 0.950 . S
H408 C404 0.950 . S
C409 C407 1.390 . S
C409 C410 1.387 1_565 S
C409 H412 0.950 . S
C410 C409 1.387 1_545 S
C410 C413 1.387 . S
H411 C407 0.950 . S
H412 C409 0.950 . S
C413 C404 1.390 . S
C413 H406 0.950 . S
C413 C410 1.387 . S
C414 C415 1.387 . S
C414 H418 0.950 . S
C414 C423 1.390 . S
C415 C414 1.387 . S
C415 C417 1.387 . S
H416 C423 0.950 . S
C417 C415 1.387 . S
C417 C419 1.390 1_545 S
C417 H421 0.950 . S
H418 C414 0.950 . S
C419 C417 1.390 1_565 S
C419 C420 1.387 1_565 S
C419 H422 0.950 . S
C420 C419 1.387 1_545 S
C420 C423 1.387 . S
H421 C417 0.950 . S
H422 C419 0.950 . S
C423 C414 1.390 . S
C423 H416 0.950 . S
C423 C420 1.387 . S
C185 C40 1.507 . S
C190 C17 1.507 . S
C195 C63 1.507 . S
C200 C86 1.507 . S
C205 C132 1.507 . S
C210 C109 1.507 . S
C215 C155 1.507 . S
C220 C178 1.507 . S
C225 C20 1.431 . S
C230 C158 1.431 . S
C235 C43 1.430 . S
C240 C181 1.430 . S
C245 C112 1.430 . S
C250 C66 1.430 . S
C255 C89 1.430 . S
C260 C135 1.430 . S
C265 C62 1.334 . S
C270 C16 1.334 . S
C275 C85 1.334 . S
C280 C39 1.334 . S
C285 C108 1.330 . S
C290 C154 1.330 . S
C295 C131 1.334 . S
C300 C177 1.334 . S
C305 C18 1.503 . S
C310 C41 1.503 . S
C315 C87 1.503 . S
C320 C64 1.503 . S
C325 C133 1.506 . S
C330 C110 1.506 . S
C335 C179 1.503 . S
C340 C156 1.503 . S
C345 C21 1.661 . S
C350 C88 1.576 . S
C355 C44 1.661 . S
C360 C65 1.575 . S
C365 C42 1.576 . S
C370 C67 1.661 . S
C375 C19 1.577 . S
C380 C90 1.660 . S
C385 C113 1.662 . S
C390 C180 1.577 1_565 S
C395 C157 1.578 1_565 S
C400 C136 1.660 . S
C405 C134 1.578 1_545 S
C410 C159 1.660 . S
C415 C182 1.661 . S
C420 C111 1.579 1_545 S
