# Generated by pormake.
# Topology rob, (6)-cn, num edge types: 1
# Building blocks:
#     Node 0, Type 0, BuildingBlock: KUMJIN_clean_sbu_0, # of connection points: 6
#     Node 1, Type 0, BuildingBlock: KUMJIN_clean_sbu_0, # of connection points: 6
#     Node 2, Type 0, BuildingBlock: KUMJIN_clean_sbu_0, # of connection points: 6
#     Node 3, Type 0, BuildingBlock: KUMJIN_clean_sbu_0, # of connection points: 6
#     Edge 4, Type (0, 0), BuildingBlock: XIVTED_clean_linker_0, # of connection points: 2
#     Edge 5, Type (0, 0), BuildingBlock: XIVTED_clean_linker_0, # of connection points: 2
#     Edge 6, Type (0, 0), BuildingBlock: XIVTED_clean_linker_0, # of connection points: 2
#     Edge 7, Type (0, 0), BuildingBlock: XIVTED_clean_linker_0, # of connection points: 2
#     Edge 8, Type (0, 0), BuildingBlock: XIVTED_clean_linker_0, # of connection points: 2
#     Edge 9, Type (0, 0), BuildingBlock: XIVTED_clean_linker_0, # of connection points: 2
#     Edge 10, Type (0, 0), BuildingBlock: XIVTED_clean_linker_0, # of connection points: 2
#     Edge 11, Type (0, 0), BuildingBlock: XIVTED_clean_linker_0, # of connection points: 2
#     Edge 12, Type (0, 0), BuildingBlock: XIVTED_clean_linker_0, # of connection points: 2
#     Edge 13, Type (0, 0), BuildingBlock: XIVTED_clean_linker_0, # of connection points: 2
#     Edge 14, Type (0, 0), BuildingBlock: XIVTED_clean_linker_0, # of connection points: 2
#     Edge 15, Type (0, 0), BuildingBlock: XIVTED_clean_linker_0, # of connection points: 2
# Relax obj value: 0.035
# Max RMSD: 0.160
# Mean RMSD: 0.160
data_MOF--net-rob--node1-KUMJIN_clean_sbu_0--edge1-XIVTED_clean_linker_0
_symmetry_space_group_name_H-M    P1
_symmetry_Int_Tables_number       1
_symmetry_cell_setting            triclinic
loop_
_symmetry_equiv_pos_as_xyz
'x, y, z'
_cell_length_a     16.563138
_cell_length_b     25.945798
_cell_length_c     33.827367
_cell_angle_alpha  119.27911
_cell_angle_beta   89.947701
_cell_angle_gamma 90.012791
loop_
_atom_site_label
_atom_site_type_symbol
_atom_site_fract_x
_atom_site_fract_y
_atom_site_fract_z
_atom_type_partial_charge
Eu0 Eu 0.17771 0.31467 0.06952 0.0
C1 C 0.37761 0.08029 0.96265 0.0
C2 C 0.50066 0.09864 1.00609 0.0
C3 C 0.4484 0.99865 0.96328 0.0
C4 C 0.43434 0.11945 0.99176 0.0
C5 C 0.385 0.01922 0.94716 0.0
C6 C 0.50671 0.03817 0.99222 0.0
C7 C 0.27038 1.00312 0.89829 0.0
N8 N 0.31717 0.10168 0.94778 0.0
C9 C 0.26533 0.06412 0.91487 0.0
C10 C 0.32977 0.98061 0.91499 0.0
Eu11 Eu 0.31067 0.20539 0.97834 0.0
N12 N 0.4271 0.17746 1.00407 0.0
C13 C 0.48715 0.21637 0.028 0.0
C14 C 0.55992 0.13901 0.03296 0.0
C15 C 0.55368 0.19799 0.04341 0.0
H16 H 0.21894 0.08147 0.90218 0.0
H17 H 0.59998 0.22939 0.06342 0.0
H18 H 0.557 0.02137 1.00302 0.0
H19 H 0.2284 0.97355 0.87275 0.0
H20 H 0.48308 0.26211 0.03644 0.0
H21 H 0.88923 0.28721 0.9827 0.0
H22 H 0.61155 0.12485 0.04487 0.0
H23 H 0.26798 0.43989 0.1448 0.0
H24 H 0.00595 0.25607 1.01085 0.0
H25 H 0.25797 0.54737 0.17256 0.0
H26 H 0.45384 0.95215 0.95287 0.0
H27 H 0.87668 0.39118 0.99996 0.0
H28 H 0.93013 0.495 0.04087 0.0
H29 H 0.3337 0.93335 0.90205 0.0
H30 H 0.03197 0.56557 0.0913 0.0
N31 N 0.0608 0.34116 0.043 0.0
C32 C 0.00148 0.30162 1.01887 0.0
C33 C 0.92823 0.37775 1.01246 0.0
C34 C 0.98688 0.41875 0.03931 0.0
C35 C 0.93501 0.31909 1.00275 0.0
C36 C 0.05304 0.39888 0.0545 0.0
H37 H 0.15221 0.58593 0.14223 0.0
N38 N 0.16977 0.41818 0.09897 0.0
C39 C 0.21602 0.51726 0.1473 0.0
C40 C 0.10926 0.43869 0.08347 0.0
C41 C 0.22137 0.45649 0.13166 0.0
C42 C 0.15641 0.53884 0.13 0.0
C43 C 0.10146 0.49951 0.09807 0.0
O44 O 0.17824 0.34331 0.14189 0.0
O45 O 0.27728 0.24933 0.05135 0.0
O46 O 0.23009 0.15481 1.00105 0.0
O47 O 0.12352 0.22174 0.03357 0.0
O48 O 0.29122 0.32754 0.11102 0.0
O49 O 0.07538 0.29512 0.10063 0.0
O50 O 0.31293 0.17797 0.90614 0.0
O51 O 0.21158 0.27057 0.9969 0.0
O52 O 0.25753 0.36466 0.04655 0.0
O53 O 0.36496 0.29844 1.01455 0.0
O54 O 0.1978 0.19438 0.93634 0.0
O55 O 0.41433 0.22606 0.94866 0.0
C56 C 0.32257 0.27629 0.08531 0.0
C57 C 0.05243 0.36005 0.1787 0.0
C58 C -0.007 0.38218 0.25147 0.0
C59 C 0.04811 0.35058 0.21598 0.0
C60 C 0.9444 0.42549 0.2496 0.0
C61 C 0.00407 0.40349 0.17744 0.0
C62 C 0.95053 0.43625 0.21298 0.0
C63 C 0.15552 0.16819 1.01698 0.0
C64 C 0.10646 0.32247 0.14125 0.0
C65 C 0.03804 0.51918 0.08127 0.0
C66 C 0.98037 0.47894 0.05231 0.0
C67 C 0.16647 0.24543 0.96278 0.0
C68 C 0.44054 0.1605 0.87106 0.0
C69 C 0.44874 0.16858 0.83313 0.0
C70 C 0.50003 0.13188 0.79679 0.0
C71 C 0.54333 0.08707 0.79974 0.0
C72 C 0.48491 0.11616 0.87342 0.0
C73 C 0.53651 0.07997 0.83799 0.0
C74 C 0.33212 0.35171 0.03085 0.0
C75 C 0.38509 0.19885 0.90761 0.0
H76 H 0.08741 0.31773 0.21682 0.0
H77 H 0.89991 0.44978 0.2756 0.0
H78 H 0.00702 0.4115 0.14891 0.0
H79 H 0.91227 0.46913 0.21161 0.0
H80 H 0.41599 0.20441 0.83267 0.0
H81 H 0.58197 0.05685 0.77238 0.0
H82 H 0.47954 0.10948 0.90249 0.0
H83 H 0.57056 0.04563 0.83984 0.0
Eu84 Eu 0.67421 0.81474 0.0691 0.0
C85 C 0.86815 0.57834 0.95525 0.0
C86 C -0.00465 0.59319 0.99491 0.0
C87 C 0.94244 0.49384 0.94925 0.0
C88 C 0.92733 0.61614 0.98364 0.0
C89 C 0.87577 0.51669 0.93725 0.0
C90 C 0.00217 0.53198 0.9779 0.0
C91 C 0.75407 0.50416 0.89411 0.0
N92 N 0.80473 0.6016 0.94378 0.0
C93 C 0.74921 0.56548 0.91257 0.0
C94 C 0.81723 0.47967 0.90677 0.0
Eu95 Eu 0.80357 0.70577 0.97566 0.0
N96 N 0.92031 0.67501 0.99863 0.0
C97 C 0.98106 0.71288 0.02292 0.0
C98 C 0.05562 0.6323 1.02202 0.0
C99 C 0.04877 0.69234 0.03571 0.0
H100 H 0.70056 0.58391 0.90225 0.0
H101 H 0.0958 0.7228 0.05593 0.0
H102 H 0.05407 0.51359 0.98612 0.0
H103 H 0.70933 0.47582 0.86995 0.0
H104 H 0.97685 0.75929 0.03334 0.0
H105 H 0.37828 0.78469 0.98912 0.0
H106 H 0.10845 0.61644 0.03168 0.0
H107 H 0.76634 0.94037 0.14168 0.0
H108 H 0.50067 0.75448 1.01367 0.0
H109 H 0.75136 0.04803 0.17158 0.0
H110 H 0.94899 0.44668 0.93604 0.0
H111 H 0.35973 0.88905 1.00849 0.0
H112 H 0.40972 0.99379 0.05 0.0
H113 H 0.82115 0.43211 0.89214 0.0
H114 H 0.512 0.06529 0.09887 0.0
N115 N 0.55333 0.84028 0.04512 0.0
C116 C 0.49386 0.80012 1.0223 0.0
C117 C 0.41398 0.87596 1.01917 0.0
C118 C 0.47274 0.9176 0.04503 0.0
C119 C 0.42414 0.81708 1.00828 0.0
C120 C 0.54258 0.89814 0.05773 0.0
H121 H 0.63781 0.08628 0.14585 0.0
N122 N 0.66351 0.9182 0.09891 0.0
C123 C 0.70844 0.01767 0.14721 0.0
C124 C 0.59941 0.93842 0.08563 0.0
C125 C 0.71667 0.95678 0.13031 0.0
C126 C 0.64442 0.03908 0.13251 0.0
C127 C 0.58835 0.99939 0.10175 0.0
O128 O 0.67381 0.84593 0.142 0.0
O129 O 0.77569 0.75086 0.04951 0.0
O130 O 0.72861 0.6548 0.99984 0.0
O131 O 0.62205 0.72105 0.03455 0.0
O132 O 0.7894 0.82831 0.10942 0.0
O133 O 0.57741 0.78937 0.09992 0.0
O134 O 0.79501 0.7013 0.90972 0.0
O135 O 0.70331 0.77072 0.99574 0.0
O136 O 0.75244 0.86463 0.0445 0.0
O137 O 0.85936 0.79803 1.01196 0.0
O138 O 0.68646 0.69182 0.93675 0.0
O139 O 0.91251 0.70307 0.93747 0.0
C140 C 0.82172 0.7776 0.08314 0.0
C141 C 0.54637 0.85627 0.17641 0.0
C142 C 0.48271 0.88211 0.24925 0.0
C143 C 0.53845 0.84832 0.21444 0.0
C144 C 0.43466 0.9237 0.24454 0.0
C145 C 0.4974 0.89745 0.17242 0.0
C146 C 0.44142 0.93062 0.20622 0.0
C147 C 0.65538 0.66783 1.01751 0.0
C148 C 0.60534 0.82055 0.14102 0.0
C149 C 0.52069 0.0188 0.08769 0.0
C150 C 0.46273 0.97802 0.0596 0.0
C151 C 0.65557 0.74327 0.96299 0.0
C152 C 0.89769 0.6527 0.85715 0.0
C153 C 0.91505 0.66928 0.82426 0.0
C154 C 0.92935 0.62613 0.77883 0.0
C155 C 0.92424 0.56614 0.7668 0.0
C156 C 0.89641 0.59265 0.84471 0.0
C157 C 0.90867 0.54963 0.79965 0.0
C158 C 0.82685 0.85137 0.02815 0.0
C159 C 0.87227 0.69817 0.90271 0.0
H160 H 0.5749 0.81481 0.21613 0.0
H161 H 0.39249 0.9518 0.27067 0.0
H162 H 0.50234 0.90388 0.14324 0.0
H163 H 0.40392 0.9626 0.20308 0.0
H164 H 0.9172 0.71581 0.83418 0.0
H165 H 0.93136 0.53207 0.73186 0.0
H166 H 0.88424 0.57889 0.86947 0.0
H167 H 0.90492 0.50335 0.79009 0.0
Eu168 Eu 0.18296 0.7045 0.47595 0.0
C169 C 0.36247 0.94514 0.59241 0.0
C170 C 0.48985 0.9329 0.55333 0.0
C171 C 0.43171 0.0309 0.59739 0.0
C172 C 0.4233 0.90863 0.56465 0.0
C173 C 0.3668 1.00682 0.60969 0.0
C174 C 0.4932 0.99406 0.5694 0.0
C175 C 0.24547 0.01697 0.65267 0.0
N176 N 0.30062 0.92065 0.60396 0.0
C177 C 0.24375 0.95567 0.6348 0.0
C178 C 0.3068 0.04263 0.63974 0.0
Eu179 Eu 0.30373 0.81649 0.57232 0.0
N180 N 0.41944 0.84983 0.55043 0.0
C181 C 0.48226 0.81346 0.52722 0.0
C182 C 0.55219 0.89518 0.52719 0.0
C183 C 0.54879 0.83531 0.51455 0.0
H184 H 0.19643 0.93627 0.64522 0.0
H185 H 0.59748 0.80598 0.49513 0.0
H186 H 0.54382 0.01344 0.56104 0.0
H187 H 0.19966 0.04442 0.67652 0.0
H188 H 0.48051 0.76718 0.51751 0.0
H189 H 0.88185 0.72904 0.54986 0.0
H190 H 0.60402 0.91206 0.51754 0.0
H191 H 0.28277 0.5806 0.40723 0.0
H192 H 0.00412 0.76126 0.52675 0.0
H193 H 0.2735 0.4731 0.37981 0.0
H194 H 0.43563 0.07807 0.60994 0.0
H195 H 0.86799 0.62511 0.5325 0.0
H196 H 0.92406 0.52196 0.4946 0.0
H197 H 0.30821 0.09018 0.65385 0.0
H198 H 0.03103 0.45243 0.44884 0.0
N199 N 0.06098 0.67694 0.4976 0.0
C200 C -0.00073 0.71577 0.51878 0.0
C201 C 0.92208 0.63903 0.52227 0.0
C202 C 0.98343 0.59867 0.49826 0.0
C203 C 0.92961 0.69768 0.53204 0.0
C204 C 0.05287 0.6192 0.48604 0.0
H205 H 0.16016 0.43347 0.40467 0.0
N206 N 0.17674 0.60116 0.44756 0.0
C207 C 0.228 0.50272 0.40256 0.0
C208 C 0.11257 0.58005 0.46012 0.0
C209 C 0.23297 0.56345 0.41798 0.0
C210 C 0.16408 0.48054 0.41676 0.0
C211 C 0.1048 0.5192 0.44547 0.0
O212 O 0.18837 0.66902 0.40258 0.0
O213 O 0.28075 0.77127 0.49815 0.0
O214 O 0.2262 0.86607 0.54802 0.0
O215 O 0.12538 0.79647 0.50818 0.0
O216 O 0.30124 0.6954 0.43849 0.0
O217 O 0.08984 0.72684 0.44143 0.0
O218 O 0.29272 0.82078 0.63811 0.0
O219 O 0.20628 0.74919 0.54999 0.0
O220 O 0.25894 0.65738 0.50332 0.0
O221 O 0.36367 0.72521 0.53752 0.0
O222 O 0.18441 0.82736 0.60876 0.0
O223 O 0.41116 0.82232 0.6124 0.0
C224 C 0.3296 0.74721 0.46561 0.0
C225 C 0.0641 0.65765 0.36486 0.0
C226 C -0.00107 0.63721 0.29377 0.0
C227 C 0.0579 0.66686 0.32745 0.0
C228 C 0.94812 0.5964 0.29777 0.0
C229 C 0.01355 0.61651 0.36798 0.0
C230 C 0.9561 0.58583 0.33437 0.0
C231 C 0.15526 0.85094 0.52765 0.0
C232 C 0.12084 0.69393 0.40124 0.0
C233 C 0.03739 0.49884 0.45903 0.0
C234 C 0.97665 0.53847 0.48524 0.0
C235 C 0.15609 0.7753 0.58175 0.0
C236 C 0.39199 0.87187 0.69238 0.0
C237 C 0.41093 0.85522 0.725 0.0
C238 C 0.42328 0.89828 0.77062 0.0
C239 C 0.41441 0.95824 0.78316 0.0
C240 C 0.38709 0.932 0.70528 0.0
C241 C 0.39724 0.9749 0.75057 0.0
C242 C 0.33199 0.67157 0.52115 0.0
C243 C 0.36959 0.82601 0.64642 0.0
H244 H 0.09867 0.69797 0.32519 0.0
H245 H 0.90048 0.57389 0.27349 0.0
H246 H 0.01758 0.60891 0.39666 0.0
H247 H 0.91619 0.55484 0.3373 0.0
H248 H 0.41613 0.80869 0.71471 0.0
H249 H 0.42015 0.99212 0.81826 0.0
H250 H 0.37398 0.94583 0.68068 0.0
H251 H 0.39092 0.02118 0.7605 0.0
Eu252 Eu 0.67645 0.20889 0.48014 0.0
C253 C 0.87728 0.4406 0.58915 0.0
C254 C -0.00036 0.42204 0.54501 0.0
C255 C 0.94808 0.52219 0.58842 0.0
C256 C 0.93358 0.40134 0.55965 0.0
C257 C 0.88497 0.50169 0.60484 0.0
C258 C 0.00579 0.48253 0.55892 0.0
C259 C 0.77098 0.51787 0.65425 0.0
N260 N 0.8169 0.41925 0.60414 0.0
C261 C 0.76553 0.45683 0.63741 0.0
C262 C 0.83022 0.54037 0.6374 0.0
Eu263 Eu 0.80924 0.31544 0.57274 0.0
N264 N 0.92603 0.34327 0.54712 0.0
C265 C 0.98564 0.30417 0.52274 0.0
C266 C 0.05846 0.38151 0.5177 0.0
C267 C 0.052 0.32246 0.50708 0.0
H268 H 0.71914 0.43945 0.65012 0.0
H269 H 0.09797 0.29094 0.48672 0.0
H270 H 0.05576 0.49923 0.54778 0.0
H271 H 0.72934 0.54749 0.68006 0.0
H272 H 0.98126 0.25837 0.5141 0.0
H273 H 0.3896 0.22641 0.56576 0.0
H274 H 0.10992 0.39558 0.50555 0.0
H275 H 0.77279 0.08681 0.40229 0.0
H276 H 0.50556 0.26251 0.54047 0.0
H277 H 0.76417 0.97856 0.36981 0.0
H278 H 0.95368 0.5687 0.59897 0.0
H279 H 0.37869 0.1203 0.54269 0.0
H280 H 0.43264 0.01732 0.49649 0.0
H281 H 0.83433 0.58764 0.65046 0.0
H282 H 0.53473 0.95006 0.44367 0.0
N283 N 0.56188 0.1782 0.50507 0.0
C284 C 0.50189 0.21617 0.53036 0.0
C285 C 0.43009 0.13597 0.53172 0.0
C286 C 0.48932 0.09671 0.50353 0.0
C287 C 0.43594 0.19586 0.54473 0.0
C288 C 0.55545 0.11943 0.49055 0.0
H289 H 0.65764 0.93512 0.39574 0.0
N290 N 0.67397 0.1046 0.44744 0.0
C291 C 0.72165 1.00703 0.39559 0.0
C292 C 0.61292 0.08149 0.46072 0.0
C293 C 0.72645 0.06836 0.41411 0.0
C294 C 0.66146 0.98267 0.41036 0.0
C295 C 0.60545 0.01985 0.44281 0.0
O296 O 0.6815 0.20285 0.41354 0.0
O297 O 0.7765 0.27421 0.49981 0.0
O298 O 0.73004 0.3673 0.55093 0.0
O299 O 0.62199 0.30187 0.51843 0.0
O300 O 0.79143 0.19591 0.44001 0.0
O301 O 0.56574 0.20996 0.44477 0.0
O302 O 0.8128 0.34292 0.64492 0.0
O303 O 0.70881 0.25116 0.55302 0.0
O304 O 0.75579 0.15583 0.50053 0.0
O305 O 0.86222 0.22201 0.53591 0.0
O306 O 0.69654 0.32557 0.61477 0.0
O307 O 0.91221 0.29264 0.6014 0.0
C308 C 0.82266 0.24725 0.46615 0.0
C309 C 0.57368 0.15709 0.3642 0.0
C310 C 0.53777 0.1283 0.2859 0.0
C311 C 0.55674 0.1723 0.33048 0.0
C312 C 0.538 0.06884 0.27568 0.0
C313 C 0.56955 0.09777 0.35359 0.0
C314 C 0.55284 0.05386 0.30943 0.0
C315 C 0.65529 0.35512 0.53533 0.0
C316 C 0.60382 0.20258 0.40862 0.0
C317 C 0.54112 0.99721 0.45676 0.0
C318 C 0.48308 0.03554 0.48695 0.0
C319 C 0.66415 0.27531 0.58745 0.0
C320 C 0.94165 0.35886 0.67834 0.0
C321 C 0.95222 0.35087 0.71617 0.0
C322 C 0.00522 0.38739 0.75156 0.0
C323 C 0.0478 0.43185 0.74773 0.0
C324 C 0.98537 0.40283 0.6751 0.0
C325 C 0.0386 0.43883 0.70956 0.0
C326 C 0.82955 0.16845 0.5175 0.0
C327 C 0.88444 0.3209 0.64279 0.0
H328 H 0.55844 0.2184 0.33914 0.0
H329 H 0.52757 0.03388 0.24143 0.0
H330 H 0.58087 0.08514 0.37905 0.0
H331 H 0.55259 1.00802 0.30127 0.0
H332 H 0.91993 0.31531 0.71728 0.0
H333 H 0.08761 0.46198 0.77438 0.0
H334 H 0.97827 0.4094 0.64609 0.0
H335 H 0.07197 0.47298 0.70705 0.0
H336 H 0.70833 0.55844 0.99893 0.0
H337 H 0.28004 0.46053 0.04804 0.0
H338 H 0.49575 0.66924 0.03887 0.0
H339 H 0.49311 0.35045 1.01151 0.0
H340 H 0.35869 0.53742 0.04495 0.0
H341 H 0.63037 0.4812 1.00234 0.0
C342 C 0.64508 0.56642 1.00806 0.0
C343 C 0.60831 0.6203 1.01833 0.0
C344 C 0.38841 0.49658 0.03778 0.0
C345 C 0.51917 0.53229 0.02294 0.0
C346 C 0.34362 0.45267 0.03983 0.0
C347 C 0.38025 0.39909 0.03043 0.0
C348 C 0.47039 0.48683 0.02603 0.0
C349 C 0.46246 0.39111 1.01908 0.0
C350 C 0.60075 0.52235 1.01026 0.0
C351 C 0.52657 0.62842 0.03066 0.0
N352 N 0.50486 0.4346 1.01717 0.0
N353 N 0.48471 0.58481 0.03262 0.0
H354 H 0.27984 0.56298 0.50463 0.0
H355 H 0.70743 0.46514 0.55484 0.0
H356 H 0.49171 0.6743 0.54377 0.0
H357 H 0.49463 0.35477 0.51583 0.0
H358 H 0.62905 0.54297 0.55259 0.0
H359 H 0.35773 0.48672 0.50916 0.0
C360 C 0.34301 0.5713 0.51381 0.0
C361 C 0.37955 0.62499 0.52334 0.0
C362 C 0.59939 0.50185 0.54472 0.0
C363 C 0.46888 0.53784 0.52933 0.0
C364 C 0.644 0.45739 0.54626 0.0
C365 C 0.60741 0.40336 0.53582 0.0
C366 C 0.51764 0.49221 0.53246 0.0
C367 C 0.52535 0.39567 0.52417 0.0
C368 C 0.38734 0.52773 0.51667 0.0
C369 C 0.46116 0.63353 0.53598 0.0
N370 N 0.48325 0.43962 0.52275 0.0
N371 N 0.50317 0.5903 0.53856 0.0
H372 H -0.00513 0.17277 0.03779 0.0
H373 H 0.98705 0.84683 1.00678 0.0
H374 H 0.20223 0.05696 0.99763 0.0
H375 H 0.77958 0.96258 0.04752 0.0
H376 H 0.0667 0.92346 1.00328 0.0
H377 H 0.91482 0.09613 0.04113 0.0
C378 C 0.02359 0.13117 0.02945 0.0
C379 C 0.10543 0.12125 1.01717 0.0
C380 C 0.00382 0.93217 1.01312 0.0
C381 C 0.014 0.03338 1.02116 0.0
C382 C 0.95821 0.88842 1.01518 0.0
C383 C 0.87648 0.89831 0.02767 0.0
C384 C 0.96749 0.98622 0.02351 0.0
C385 C 0.84253 0.95312 0.03813 0.0
C386 C 0.97776 0.08742 0.03142 0.0
C387 C 0.13922 0.06644 1.0068 0.0
N388 N 0.8882 0.99499 0.03575 0.0
N389 N 0.09336 0.02462 1.0091 0.0
H390 H 0.77816 0.05781 0.49658 0.0
H391 H 0.20562 0.96125 0.54767 0.0
H392 H -0.01002 0.16927 0.5372 0.0
H393 H -0.00323 0.84686 0.5029 0.0
H394 H 0.12703 0.03788 0.54412 0.0
H395 H 0.85733 0.97959 0.49775 0.0
C396 C 0.84154 0.0657 0.50527 0.0
C397 C 0.87766 0.12012 0.51648 0.0
C398 C 0.09825 0.9961 0.53515 0.0
C399 C 0.96823 0.03095 0.51865 0.0
C400 C 0.14297 0.95234 0.53748 0.0
C401 C 0.10744 0.8977 0.52606 0.0
C402 C 0.01739 0.9852 0.52119 0.0
C403 C 0.02652 0.88838 0.51213 0.0
C404 C 0.88658 0.02105 0.5062 0.0
C405 C 0.95961 0.12807 0.52831 0.0
N406 N 0.9841 0.93183 0.51016 0.0
N407 N 0.00213 0.08395 0.52915 0.0
H408 H 0.42438 0.07648 0.21846 0.0
H409 H 0.44278 0.32545 0.14691 0.0
H410 H 0.60238 0.21591 0.27161 0.0
H411 H 0.30943 0.16334 0.07192 0.0
H412 H 0.50679 0.2844 0.1907 0.0
H413 H 0.38514 0.10574 0.16289 0.0
C414 C 0.45605 0.11283 0.21821 0.0
C415 C 0.51651 0.14404 0.25027 0.0
C416 C 0.46459 0.25736 0.16414 0.0
C417 C 0.47072 0.17832 0.18667 0.0
C418 C 0.42822 0.28076 0.13915 0.0
C419 C 0.37125 0.24761 0.10564 0.0
C420 C 0.44224 0.2009 0.15632 0.0
C421 C 0.35371 0.19015 0.0971 0.0
C422 C 0.43322 0.12968 0.18647 0.0
C423 C 0.55428 0.1913 0.24836 0.0
N424 N 0.38837 0.16886 0.12266 0.0
N425 N 0.53036 0.20725 0.21738 0.0
H426 H 0.59668 0.84543 0.29054 0.0
H427 H 0.29956 0.85904 0.47986 0.0
H428 H 0.3459 0.89721 0.30071 0.0
H429 H 0.45434 0.7082 0.40533 0.0
H430 H 0.34987 0.90193 0.43444 0.0
H431 H 0.57389 0.82109 0.35106 0.0
C432 C 0.53694 0.85185 0.30518 0.0
C433 C 0.47284 0.87262 0.28933 0.0
C434 C 0.374 0.86005 0.4288 0.0
C435 C 0.44833 0.84761 0.36037 0.0
C436 C 0.34586 0.83568 0.45495 0.0
C437 C 0.37269 0.77979 0.44629 0.0
C438 C 0.42983 0.82858 0.39403 0.0
C439 C 0.43206 0.75131 0.41292 0.0
C440 C 0.52455 0.83848 0.3401 0.0
C441 C 0.39784 0.88212 0.31152 0.0
N442 N 0.45844 0.77585 0.38771 0.0
N443 N 0.3878 0.86955 0.34577 0.0
H444 H 0.53477 0.6935 0.90171 0.0
H445 H 0.53533 0.95089 0.83822 0.0
H446 H 0.66524 0.8568 0.97757 0.0
H447 H 0.36627 0.80588 0.78089 0.0
H448 H 0.58065 0.91831 0.89097 0.0
H449 H 0.46733 0.73533 0.85935 0.0
C450 C 0.548 0.73856 0.90996 0.0
C451 C 0.60514 0.77187 0.9433 0.0
C452 C 0.53311 0.89387 0.86714 0.0
C453 C 0.53017 0.81951 0.89438 0.0
C454 C 0.50693 0.91262 0.83708 0.0
C455 C 0.44722 0.88088 0.8048 0.0
C456 C 0.49908 0.84314 0.86526 0.0
C457 C 0.41341 0.83114 0.80467 0.0
C458 C 0.50971 0.7624 0.88579 0.0
C459 C 0.62094 0.82982 0.95251 0.0
N460 N 0.44008 0.81364 0.83427 0.0
N461 N 0.58426 0.8516 0.92785 0.0
H462 H 0.68947 0.16173 0.57018 0.0
H463 H 0.38967 0.17563 0.75883 0.0
H464 H 0.54221 0.31553 0.64936 0.0
H465 H 0.63491 0.11098 0.74292 0.0
H466 H 0.4153 0.20244 0.6999 0.0
H467 H 0.63568 0.11649 0.6133 0.0
C468 C 0.64407 0.18531 0.59566 0.0
C469 C 0.62009 0.24251 0.60618 0.0
C470 C 0.46276 0.1817 0.70923 0.0
C471 C 0.55915 0.19112 0.65582 0.0
C472 C 0.44877 0.16685 0.7432 0.0
C473 C 0.51069 0.14196 0.75709 0.0
C474 C 0.5383 0.17004 0.68796 0.0
C475 C 0.58471 0.12951 0.73367 0.0
C476 C 0.61394 0.15959 0.62047 0.0
C477 C 0.56214 0.27137 0.64031 0.0
N478 N 0.59639 0.14378 0.70043 0.0
N479 N 0.53375 0.24547 0.66416 0.0
H480 H 0.93749 0.82797 0.14694 0.0
H481 H 0.94809 0.56416 0.20545 0.0
H482 H 0.81277 0.66294 0.06743 0.0
H483 H 0.02176 0.74401 0.29647 0.0
H484 H 0.91792 0.59255 0.14796 0.0
H485 H -0.00454 0.78872 0.1932 0.0
C486 C 0.92382 0.78294 0.13862 0.0
C487 C 0.87029 0.74874 0.1034 0.0
C488 C 0.94248 0.62527 0.18021 0.0
C489 C 0.93453 0.70388 0.15686 0.0
C490 C 0.95868 0.60939 0.21343 0.0
C491 C 0.9873 0.65167 0.25642 0.0
C492 C 0.95688 0.68344 0.18945 0.0
C493 C 0.00142 0.70924 0.26391 0.0
C494 C 0.95642 0.76064 0.16518 0.0
C495 C 0.85415 0.69071 0.09408 0.0
N496 N 0.98607 0.72326 0.2309 0.0
N497 N 0.88543 0.67027 0.12102 0.0
H498 H 0.81362 0.36243 0.48309 0.0
H499 H 0.00556 0.27299 0.24514 0.0
H500 H 0.93518 0.1968 0.40031 0.0
H501 H 0.95586 0.45563 0.34216 0.0
H502 H 0.98486 0.24697 0.30395 0.0
H503 H 0.87144 0.40113 0.43618 0.0
C504 C 0.85422 0.33475 0.45583 0.0
C505 C 0.86982 0.27626 0.4455 0.0
C506 C 0.97931 0.29292 0.31267 0.0
C507 C 0.93335 0.31938 0.39074 0.0
C508 C -0.0083 0.30806 0.27897 0.0
C509 C 0.98299 0.36687 0.28838 0.0
C510 C 0.95599 0.33641 0.35622 0.0
C511 C 0.96201 0.40957 0.3329 0.0
C512 C 0.88675 0.35674 0.42885 0.0
C513 C 0.92155 0.24204 0.40926 0.0
N514 N 0.94823 0.39336 0.36502 0.0
N515 N 0.95053 0.26379 0.38284 0.0
H516 H 0.14278 0.40822 0.80334 0.0
H517 H 0.04242 0.2042 0.90243 0.0
H518 H 0.89798 0.34398 0.79135 0.0
H519 H 0.19442 0.35678 0.97598 0.0
H520 H 0.98918 0.24906 0.85839 0.0
H521 H 0.16599 0.38565 0.86408 0.0
C522 C 0.09319 0.39032 0.81364 0.0
C523 C 0.01824 0.37763 0.79125 0.0
C524 C 0.03275 0.27322 0.885 0.0
C525 C 0.04646 0.34936 0.86018 0.0
C526 C 0.0631 0.24769 0.90999 0.0
C527 C 0.12246 0.27698 0.94306 0.0
C528 C 0.06441 0.32727 0.89209 0.0
C529 C 0.14811 0.33293 0.9513 0.0
C530 C 0.10695 0.37712 0.84837 0.0
C531 C 0.95765 0.35289 0.80617 0.0
N532 N 0.12014 0.35576 0.92535 0.0
N533 N 0.97357 0.33849 0.83905 0.0
H534 H 0.16922 0.66147 0.56652 0.0
H535 H 0.86616 0.71642 0.76781 0.0
H536 H 0.03287 0.82216 0.64198 0.0
H537 H 0.04117 0.57517 0.7106 0.0
H538 H 0.90881 0.74734 0.71328 0.0
H539 H 0.10251 0.6199 0.60892 0.0
C540 C 0.12383 0.68753 0.59125 0.0
C541 C 0.1061 0.74527 0.60057 0.0
C542 C 0.93757 0.70943 0.71259 0.0
C543 C 0.03134 0.69867 0.65037 0.0
C544 C 0.91359 0.69194 0.74387 0.0
C545 C 0.95067 0.64346 0.74418 0.0
C546 C -0.00083 0.67831 0.68138 0.0
C547 C 0.01052 0.6126 0.71157 0.0
C548 C 0.0863 0.66397 0.61583 0.0
C549 C 0.04796 0.7774 0.63375 0.0
N550 N 0.03333 0.63085 0.68182 0.0
N551 N 0.013 0.75385 0.65771 0.0
loop_
_geom_bond_atom_site_label_1
_geom_bond_atom_site_label_2
_geom_bond_distance
_geom_bond_site_symmetry_2
_ccdc_geom_bond_type
Eu0 N31 2.657 . S
Eu0 N38 2.609 . S
Eu0 O44 2.558 . S
Eu0 O45 2.612 . S
Eu0 O47 2.339 . S
Eu0 O48 2.563 . S
Eu0 O49 2.419 . S
Eu0 O51 2.380 1_554 S
Eu0 O52 2.432 . S
Eu0 C64 2.848 . S
C1 C4 1.429 . S
C1 C5 1.411 . S
C1 N8 1.377 . S
C2 C4 1.420 1_554 S
C2 C6 1.423 . S
C2 C14 1.392 . S
C3 C5 1.420 . S
C3 C6 1.351 1_556 S
C3 H26 0.931 . S
C4 C1 1.429 . S
C4 C2 1.420 1_556 S
C4 N12 1.362 . S
C5 C1 1.411 . S
C5 C3 1.420 . S
C5 C10 1.382 1_545 S
C6 C2 1.423 . S
C6 C3 1.351 1_554 S
C6 H18 0.930 . S
C7 C9 1.400 1_565 S
C7 C10 1.383 . S
C7 H19 0.930 . S
N8 C1 1.377 . S
N8 C9 1.321 . S
N8 Eu11 2.609 . S
C9 C7 1.400 1_545 S
C9 N8 1.321 . S
C9 H16 0.930 . S
C10 C5 1.382 1_565 S
C10 C7 1.383 . S
C10 H29 0.945 . S
Eu11 N8 2.609 . S
Eu11 N12 2.657 . S
Eu11 O45 2.380 1_556 S
Eu11 O46 2.432 . S
Eu11 O50 2.558 . S
Eu11 O51 2.612 . S
Eu11 O53 2.339 . S
Eu11 O54 2.563 . S
Eu11 O55 2.419 . S
Eu11 C75 2.848 . S
N12 C4 1.362 . S
N12 Eu11 2.657 . S
N12 C13 1.334 1_556 S
C13 N12 1.334 1_554 S
C13 C15 1.413 . S
C13 H20 0.929 . S
C14 C2 1.392 . S
C14 C15 1.367 . S
C14 H22 0.930 . S
C15 C13 1.413 . S
C15 C14 1.367 . S
C15 H17 0.930 . S
H16 C9 0.930 . S
H17 C15 0.930 . S
H18 C6 0.930 . S
H19 C7 0.930 . S
H20 C13 0.929 . S
H21 C35 0.930 . S
H22 C14 0.930 . S
H23 C41 0.930 . S
H24 C32 0.929 1_455 S
H25 C39 0.930 . S
H26 C3 0.931 . S
H27 C33 0.930 . S
H28 C66 0.930 . S
H29 C10 0.945 . S
H30 C65 0.931 . S
N31 Eu0 2.657 . S
N31 C32 1.334 1_454 S
N31 C36 1.362 1_455 S
C32 H24 0.929 1_655 S
C32 N31 1.334 1_656 S
C32 C35 1.413 . S
C33 H27 0.930 . S
C33 C34 1.392 . S
C33 C35 1.367 . S
C34 C33 1.392 . S
C34 C36 1.420 1_556 S
C34 C66 1.423 . S
C35 H21 0.930 . S
C35 C32 1.413 . S
C35 C33 1.367 . S
C36 N31 1.362 1_655 S
C36 C34 1.420 1_554 S
C36 C40 1.429 1_655 S
H37 C42 0.930 1_655 S
N38 Eu0 2.609 . S
N38 C40 1.377 . S
N38 C41 1.321 . S
C39 H25 0.930 . S
C39 C41 1.400 . S
C39 C42 1.386 . S
C40 C36 1.429 1_455 S
C40 N38 1.377 . S
C40 C43 1.411 1_455 S
C41 H23 0.930 . S
C41 N38 1.321 . S
C41 C39 1.400 . S
C42 H37 0.930 1_455 S
C42 C39 1.386 . S
C42 C43 1.395 1_455 S
C43 C40 1.411 1_655 S
C43 C42 1.395 1_655 S
C43 C65 1.420 . S
O44 Eu0 2.558 . S
O44 C64 1.257 . S
O45 Eu0 2.612 . S
O45 Eu11 2.380 1_554 S
O45 C56 1.276 . S
O46 Eu11 2.432 . S
O46 C63 1.264 . S
O47 Eu0 2.339 . S
O47 C63 1.254 1_554 S
O48 Eu0 2.563 . S
O48 C56 1.235 . S
O49 Eu0 2.419 . S
O49 C64 1.249 . S
O50 Eu11 2.558 . S
O50 C75 1.257 . S
O51 Eu0 2.380 1_556 S
O51 Eu11 2.612 . S
O51 C67 1.276 . S
O52 Eu0 2.432 . S
O52 C74 1.264 . S
O53 Eu11 2.339 . S
O53 C74 1.254 1_556 S
O54 Eu11 2.563 . S
O54 C67 1.235 . S
O55 Eu11 2.419 . S
O55 C75 1.249 . S
C56 O45 1.276 . S
C56 O48 1.235 . S
C57 C59 1.393 . S
C57 C61 1.395 . S
C57 C64 1.492 . S
C58 C59 1.392 1_655 S
C58 C60 1.386 . S
C59 C57 1.393 . S
C59 C58 1.392 1_455 S
C59 H76 0.930 . S
C60 C58 1.386 . S
C60 C62 1.395 . S
C60 H77 0.930 . S
C61 C57 1.395 . S
C61 C62 1.379 1_455 S
C61 H78 0.930 . S
C62 C60 1.395 . S
C62 C61 1.379 1_655 S
C62 H79 0.930 . S
C63 O46 1.264 . S
C63 O47 1.254 1_556 S
C64 Eu0 2.848 . S
C64 O44 1.257 . S
C64 O49 1.249 . S
C64 C57 1.492 . S
C65 H30 0.931 . S
C65 C43 1.420 . S
C65 C66 1.351 1_554 S
C66 H28 0.930 . S
C66 C34 1.423 . S
C66 C65 1.351 1_556 S
C67 O51 1.276 . S
C67 O54 1.235 . S
C68 C69 1.393 . S
C68 C72 1.395 . S
C68 C75 1.492 . S
C69 C68 1.393 . S
C69 C70 1.392 . S
C69 H80 0.930 . S
C70 C69 1.392 . S
C70 C71 1.386 . S
C71 C70 1.386 . S
C71 C73 1.395 . S
C71 H81 0.930 . S
C72 C68 1.395 . S
C72 C73 1.379 . S
C72 H82 0.930 . S
C73 C71 1.395 . S
C73 C72 1.379 . S
C73 H83 0.930 . S
C74 O52 1.264 . S
C74 O53 1.254 1_554 S
C75 Eu11 2.848 . S
C75 O50 1.257 . S
C75 O55 1.249 . S
C75 C68 1.492 . S
H76 C59 0.930 . S
H77 C60 0.930 . S
H78 C61 0.930 . S
H79 C62 0.930 . S
H80 C69 0.930 . S
H81 C71 0.930 . S
H82 C72 0.930 . S
H83 C73 0.930 . S
Eu84 N115 2.657 . S
Eu84 N122 2.609 . S
Eu84 O128 2.558 . S
Eu84 O129 2.612 . S
Eu84 O131 2.339 . S
Eu84 O132 2.563 . S
Eu84 O133 2.419 . S
Eu84 O135 2.380 1_554 S
Eu84 O136 2.432 . S
Eu84 C148 2.848 . S
C85 C88 1.429 1_655 S
C85 C89 1.411 1_655 S
C85 N92 1.377 . S
C86 C88 1.420 1_554 S
C86 C90 1.423 . S
C86 C98 1.392 . S
C87 C89 1.420 . S
C87 C90 1.351 1_556 S
C87 H110 0.931 . S
C88 C85 1.429 1_455 S
C88 C86 1.420 1_556 S
C88 N96 1.362 1_455 S
C89 C85 1.411 1_455 S
C89 C87 1.420 . S
C89 C94 1.395 1_455 S
C90 C86 1.423 . S
C90 C87 1.351 1_554 S
C90 H102 0.930 . S
C91 C93 1.400 . S
C91 C94 1.386 . S
C91 H103 0.930 . S
N92 C85 1.377 . S
N92 C93 1.321 . S
N92 Eu95 2.609 . S
C93 C91 1.400 . S
C93 N92 1.321 . S
C93 H100 0.930 . S
C94 C89 1.395 1_655 S
C94 C91 1.386 . S
C94 H113 0.930 1_655 S
Eu95 N92 2.609 . S
Eu95 N96 2.657 . S
Eu95 O129 2.380 1_556 S
Eu95 O130 2.432 . S
Eu95 O134 2.558 . S
Eu95 O135 2.612 . S
Eu95 O137 2.339 . S
Eu95 O138 2.563 . S
Eu95 O139 2.419 . S
Eu95 C159 2.848 . S
N96 C88 1.362 1_655 S
N96 Eu95 2.657 . S
N96 C97 1.334 1_656 S
C97 N96 1.334 1_454 S
C97 C99 1.413 . S
C97 H104 0.929 1_455 S
C98 C86 1.392 . S
C98 C99 1.367 . S
C98 H106 0.930 . S
C99 C97 1.413 . S
C99 C98 1.367 . S
C99 H101 0.930 . S
H100 C93 0.930 . S
H101 C99 0.930 . S
H102 C90 0.930 . S
H103 C91 0.930 . S
H104 C97 0.929 1_655 S
H105 C119 0.930 . S
H106 C98 0.930 . S
H107 C125 0.930 . S
H108 C116 0.929 . S
H109 C123 0.930 . S
H110 C87 0.931 . S
H111 C117 0.930 . S
H112 C150 0.930 . S
H113 C94 0.930 1_455 S
H114 C149 0.931 . S
N115 Eu84 2.657 . S
N115 C116 1.334 1_554 S
N115 C120 1.362 . S
C116 H108 0.929 . S
C116 N115 1.334 1_556 S
C116 C119 1.413 . S
C117 H111 0.930 . S
C117 C118 1.392 . S
C117 C119 1.367 . S
C118 C117 1.392 . S
C118 C120 1.420 1_556 S
C118 C150 1.423 . S
C119 H105 0.930 . S
C119 C116 1.413 . S
C119 C117 1.367 . S
C120 N115 1.362 . S
C120 C118 1.420 1_554 S
C120 C124 1.429 . S
H121 C126 0.945 . S
N122 Eu84 2.609 . S
N122 C124 1.377 . S
N122 C125 1.321 . S
C123 H109 0.930 . S
C123 C125 1.400 1_545 S
C123 C126 1.383 . S
C124 C120 1.429 . S
C124 N122 1.377 . S
C124 C127 1.411 . S
C125 H107 0.930 . S
C125 N122 1.321 . S
C125 C123 1.400 1_565 S
C126 H121 0.945 . S
C126 C123 1.383 . S
C126 C127 1.382 1_545 S
C127 C124 1.411 . S
C127 C126 1.382 1_565 S
C127 C149 1.420 . S
O128 Eu84 2.558 . S
O128 C148 1.257 . S
O129 Eu84 2.612 . S
O129 Eu95 2.380 1_554 S
O129 C140 1.276 . S
O130 Eu95 2.432 . S
O130 C147 1.264 . S
O131 Eu84 2.339 . S
O131 C147 1.254 1_554 S
O132 Eu84 2.563 . S
O132 C140 1.235 . S
O133 Eu84 2.419 . S
O133 C148 1.249 . S
O134 Eu95 2.558 . S
O134 C159 1.257 . S
O135 Eu84 2.380 1_556 S
O135 Eu95 2.612 . S
O135 C151 1.276 . S
O136 Eu84 2.432 . S
O136 C158 1.264 . S
O137 Eu95 2.339 . S
O137 C158 1.254 1_556 S
O138 Eu95 2.563 . S
O138 C151 1.235 . S
O139 Eu95 2.419 . S
O139 C159 1.249 . S
C140 O129 1.276 . S
C140 O132 1.235 . S
C141 C143 1.393 . S
C141 C145 1.395 . S
C141 C148 1.492 . S
C142 C143 1.392 . S
C142 C144 1.386 . S
C143 C141 1.393 . S
C143 C142 1.392 . S
C143 H160 0.930 . S
C144 C142 1.386 . S
C144 C146 1.395 . S
C144 H161 0.930 . S
C145 C141 1.395 . S
C145 C146 1.379 . S
C145 H162 0.930 . S
C146 C144 1.395 . S
C146 C145 1.379 . S
C146 H163 0.930 . S
C147 O130 1.264 . S
C147 O131 1.254 1_556 S
C148 Eu84 2.848 . S
C148 O128 1.257 . S
C148 O133 1.249 . S
C148 C141 1.492 . S
C149 H114 0.931 . S
C149 C127 1.420 . S
C149 C150 1.351 1_554 S
C150 H112 0.930 . S
C150 C118 1.423 . S
C150 C149 1.351 1_556 S
C151 O135 1.276 . S
C151 O138 1.235 . S
C152 C153 1.393 . S
C152 C156 1.395 . S
C152 C159 1.492 . S
C153 C152 1.393 . S
C153 C154 1.392 1_655 S
C153 H164 0.930 . S
C154 C153 1.392 1_455 S
C154 C155 1.386 . S
C155 C154 1.386 . S
C155 C157 1.395 . S
C155 H165 0.930 . S
C156 C152 1.395 . S
C156 C157 1.379 1_655 S
C156 H166 0.930 . S
C157 C155 1.395 . S
C157 C156 1.379 1_455 S
C157 H167 0.930 . S
C158 O136 1.264 . S
C158 O137 1.254 1_554 S
C159 Eu95 2.848 . S
C159 O134 1.257 . S
C159 O139 1.249 . S
C159 C152 1.492 . S
H160 C143 0.930 . S
H161 C144 0.930 . S
H162 C145 0.930 . S
H163 C146 0.930 . S
H164 C153 0.930 . S
H165 C155 0.930 . S
H166 C156 0.930 . S
H167 C157 0.930 . S
Eu168 N199 2.657 . S
Eu168 N206 2.609 . S
Eu168 O212 2.558 . S
Eu168 O213 2.612 . S
Eu168 O215 2.339 . S
Eu168 O216 2.563 . S
Eu168 O217 2.419 . S
Eu168 O219 2.380 . S
Eu168 O220 2.432 . S
Eu168 C232 2.848 . S
C169 C172 1.429 . S
C169 C173 1.411 . S
C169 N176 1.377 . S
C170 C172 1.420 . S
C170 C174 1.423 . S
C170 C182 1.392 . S
C171 C173 1.420 . S
C171 C174 1.351 . S
C171 H194 0.931 . S
C172 C169 1.429 . S
C172 C170 1.420 . S
C172 N180 1.362 . S
C173 C169 1.411 . S
C173 C171 1.420 . S
C173 C178 1.382 1_565 S
C174 C170 1.423 . S
C174 C171 1.351 . S
C174 H186 0.930 . S
C175 C177 1.400 1_545 S
C175 C178 1.383 . S
C175 H187 0.930 . S
N176 C169 1.377 . S
N176 C177 1.321 . S
N176 Eu179 2.609 . S
C177 C175 1.400 1_565 S
C177 N176 1.321 . S
C177 H184 0.930 . S
C178 C173 1.382 1_545 S
C178 C175 1.383 . S
C178 H197 0.945 . S
Eu179 N176 2.609 . S
Eu179 N180 2.657 . S
Eu179 O213 2.380 . S
Eu179 O214 2.432 . S
Eu179 O218 2.558 . S
Eu179 O219 2.612 . S
Eu179 O221 2.339 . S
Eu179 O222 2.563 . S
Eu179 O223 2.419 . S
Eu179 C243 2.848 . S
N180 C172 1.362 . S
N180 Eu179 2.657 . S
N180 C181 1.334 . S
C181 N180 1.334 . S
C181 C183 1.413 . S
C181 H188 0.929 . S
C182 C170 1.392 . S
C182 C183 1.367 . S
C182 H190 0.930 . S
C183 C181 1.413 . S
C183 C182 1.367 . S
C183 H185 0.930 . S
H184 C177 0.930 . S
H185 C183 0.930 . S
H186 C174 0.930 . S
H187 C175 0.930 . S
H188 C181 0.929 . S
H189 C203 0.930 . S
H190 C182 0.930 . S
H191 C209 0.930 . S
H192 C200 0.929 1_455 S
H193 C207 0.930 . S
H194 C171 0.931 . S
H195 C201 0.930 . S
H196 C234 0.930 . S
H197 C178 0.945 . S
H198 C233 0.931 . S
N199 Eu168 2.657 . S
N199 C200 1.334 1_455 S
N199 C204 1.362 1_455 S
C200 H192 0.929 1_655 S
C200 N199 1.334 1_655 S
C200 C203 1.413 . S
C201 H195 0.930 . S
C201 C202 1.392 . S
C201 C203 1.367 . S
C202 C201 1.392 . S
C202 C204 1.420 . S
C202 C234 1.423 . S
C203 H189 0.930 . S
C203 C200 1.413 . S
C203 C201 1.367 . S
C204 N199 1.362 1_655 S
C204 C202 1.420 . S
C204 C208 1.429 1_655 S
H205 C210 0.930 1_655 S
N206 Eu168 2.609 . S
N206 C208 1.377 . S
N206 C209 1.321 . S
C207 H193 0.930 . S
C207 C209 1.400 . S
C207 C210 1.386 . S
C208 C204 1.429 1_455 S
C208 N206 1.377 . S
C208 C211 1.411 1_455 S
C209 H191 0.930 . S
C209 N206 1.321 . S
C209 C207 1.400 . S
C210 H205 0.930 1_455 S
C210 C207 1.386 . S
C210 C211 1.395 1_455 S
C211 C208 1.411 1_655 S
C211 C210 1.395 1_655 S
C211 C233 1.420 . S
O212 Eu168 2.558 . S
O212 C232 1.257 . S
O213 Eu168 2.612 . S
O213 Eu179 2.380 . S
O213 C224 1.276 . S
O214 Eu179 2.432 . S
O214 C231 1.264 . S
O215 Eu168 2.339 . S
O215 C231 1.254 . S
O216 Eu168 2.563 . S
O216 C224 1.235 . S
O217 Eu168 2.419 . S
O217 C232 1.249 . S
O218 Eu179 2.558 . S
O218 C243 1.257 . S
O219 Eu168 2.380 . S
O219 Eu179 2.612 . S
O219 C235 1.276 . S
O220 Eu168 2.432 . S
O220 C242 1.264 . S
O221 Eu179 2.339 . S
O221 C242 1.254 . S
O222 Eu179 2.563 . S
O222 C235 1.235 . S
O223 Eu179 2.419 . S
O223 C243 1.249 . S
C224 O213 1.276 . S
C224 O216 1.235 . S
C225 C227 1.393 . S
C225 C229 1.395 . S
C225 C232 1.492 . S
C226 C227 1.392 1_655 S
C226 C228 1.386 . S
C227 C225 1.393 . S
C227 C226 1.392 1_455 S
C227 H244 0.930 . S
C228 C226 1.386 . S
C228 C230 1.395 . S
C228 H245 0.930 . S
C229 C225 1.395 . S
C229 C230 1.379 1_455 S
C229 H246 0.930 . S
C230 C228 1.395 . S
C230 C229 1.379 1_655 S
C230 H247 0.930 . S
C231 O214 1.264 . S
C231 O215 1.254 . S
C232 Eu168 2.848 . S
C232 O212 1.257 . S
C232 O217 1.249 . S
C232 C225 1.492 . S
C233 H198 0.931 . S
C233 C211 1.420 . S
C233 C234 1.351 . S
C234 H196 0.930 . S
C234 C202 1.423 . S
C234 C233 1.351 . S
C235 O219 1.276 . S
C235 O222 1.235 . S
C236 C237 1.393 . S
C236 C240 1.395 . S
C236 C243 1.492 . S
C237 C236 1.393 . S
C237 C238 1.392 . S
C237 H248 0.930 . S
C238 C237 1.392 . S
C238 C239 1.386 . S
C239 C238 1.386 . S
C239 C241 1.395 . S
C239 H249 0.930 . S
C240 C236 1.395 . S
C240 C241 1.379 . S
C240 H250 0.930 . S
C241 C239 1.395 . S
C241 C240 1.379 . S
C241 H251 0.930 . S
C242 O220 1.264 . S
C242 O221 1.254 . S
C243 Eu179 2.848 . S
C243 O218 1.257 . S
C243 O223 1.249 . S
C243 C236 1.492 . S
H244 C227 0.930 . S
H245 C228 0.930 . S
H246 C229 0.930 . S
H247 C230 0.930 . S
H248 C237 0.930 . S
H249 C239 0.930 . S
H250 C240 0.930 . S
H251 C241 0.930 . S
Eu252 N283 2.657 . S
Eu252 N290 2.609 . S
Eu252 O296 2.558 . S
Eu252 O297 2.612 . S
Eu252 O299 2.339 . S
Eu252 O300 2.563 . S
Eu252 O301 2.419 . S
Eu252 O303 2.380 . S
Eu252 O304 2.432 . S
Eu252 C316 2.848 . S
C253 C256 1.429 1_655 S
C253 C257 1.411 1_655 S
C253 N260 1.377 . S
C254 C256 1.420 . S
C254 C258 1.423 . S
C254 C266 1.392 . S
C255 C257 1.420 . S
C255 C258 1.351 . S
C255 H278 0.931 . S
C256 C253 1.429 1_455 S
C256 C254 1.420 . S
C256 N264 1.362 1_455 S
C257 C253 1.411 1_455 S
C257 C255 1.420 . S
C257 C262 1.395 1_455 S
C258 C254 1.423 . S
C258 C255 1.351 . S
C258 H270 0.930 . S
C259 C261 1.400 . S
C259 C262 1.386 . S
C259 H271 0.930 . S
N260 C253 1.377 . S
N260 C261 1.321 . S
N260 Eu263 2.609 . S
C261 C259 1.400 . S
C261 N260 1.321 . S
C261 H268 0.930 . S
C262 C257 1.395 1_655 S
C262 C259 1.386 . S
C262 H281 0.930 1_655 S
Eu263 N260 2.609 . S
Eu263 N264 2.657 . S
Eu263 O297 2.380 . S
Eu263 O298 2.432 . S
Eu263 O302 2.558 . S
Eu263 O303 2.612 . S
Eu263 O305 2.339 . S
Eu263 O306 2.563 . S
Eu263 O307 2.419 . S
Eu263 C327 2.848 . S
N264 C256 1.362 1_655 S
N264 Eu263 2.657 . S
N264 C265 1.334 1_655 S
C265 N264 1.334 1_455 S
C265 C267 1.413 . S
C265 H272 0.929 1_455 S
C266 C254 1.392 . S
C266 C267 1.367 . S
C266 H274 0.930 . S
C267 C265 1.413 . S
C267 C266 1.367 . S
C267 H269 0.930 . S
H268 C261 0.930 . S
H269 C267 0.930 . S
H270 C258 0.930 . S
H271 C259 0.930 . S
H272 C265 0.929 1_655 S
H273 C287 0.930 . S
H274 C266 0.930 . S
H275 C293 0.930 . S
H276 C284 0.929 . S
H277 C291 0.930 . S
H278 C255 0.931 . S
H279 C285 0.930 . S
H280 C318 0.930 . S
H281 C262 0.930 1_455 S
H282 C317 0.931 . S
N283 Eu252 2.657 . S
N283 C284 1.334 . S
N283 C288 1.362 . S
C284 H276 0.929 . S
C284 N283 1.334 . S
C284 C287 1.413 . S
C285 H279 0.930 . S
C285 C286 1.392 . S
C285 C287 1.367 . S
C286 C285 1.392 . S
C286 C288 1.420 . S
C286 C318 1.423 . S
C287 H273 0.930 . S
C287 C284 1.413 . S
C287 C285 1.367 . S
C288 N283 1.362 . S
C288 C286 1.420 . S
C288 C292 1.429 . S
H289 C294 0.945 . S
N290 Eu252 2.609 . S
N290 C292 1.377 . S
N290 C293 1.321 . S
C291 H277 0.930 . S
C291 C293 1.400 1_565 S
C291 C294 1.383 . S
C292 C288 1.429 . S
C292 N290 1.377 . S
C292 C295 1.411 . S
C293 H275 0.930 . S
C293 N290 1.321 . S
C293 C291 1.400 1_545 S
C294 H289 0.945 . S
C294 C291 1.383 . S
C294 C295 1.382 1_565 S
C295 C292 1.411 . S
C295 C294 1.382 1_545 S
C295 C317 1.420 . S
O296 Eu252 2.558 . S
O296 C316 1.257 . S
O297 Eu252 2.612 . S
O297 Eu263 2.380 . S
O297 C308 1.276 . S
O298 Eu263 2.432 . S
O298 C315 1.264 . S
O299 Eu252 2.339 . S
O299 C315 1.254 . S
O300 Eu252 2.563 . S
O300 C308 1.235 . S
O301 Eu252 2.419 . S
O301 C316 1.249 . S
O302 Eu263 2.558 . S
O302 C327 1.257 . S
O303 Eu252 2.380 . S
O303 Eu263 2.612 . S
O303 C319 1.276 . S
O304 Eu252 2.432 . S
O304 C326 1.264 . S
O305 Eu263 2.339 . S
O305 C326 1.254 . S
O306 Eu263 2.563 . S
O306 C319 1.235 . S
O307 Eu263 2.419 . S
O307 C327 1.249 . S
C308 O297 1.276 . S
C308 O300 1.235 . S
C309 C311 1.393 . S
C309 C313 1.395 . S
C309 C316 1.492 . S
C310 C311 1.392 . S
C310 C312 1.386 . S
C311 C309 1.393 . S
C311 C310 1.392 . S
C311 H328 0.930 . S
C312 C310 1.386 . S
C312 C314 1.395 . S
C312 H329 0.930 . S
C313 C309 1.395 . S
C313 C314 1.379 . S
C313 H330 0.930 . S
C314 C312 1.395 . S
C314 C313 1.379 . S
C314 H331 0.930 . S
C315 O298 1.264 . S
C315 O299 1.254 . S
C316 Eu252 2.848 . S
C316 O296 1.257 . S
C316 O301 1.249 . S
C316 C309 1.492 . S
C317 H282 0.931 . S
C317 C295 1.420 . S
C317 C318 1.351 . S
C318 H280 0.930 . S
C318 C286 1.423 . S
C318 C317 1.351 . S
C319 O303 1.276 . S
C319 O306 1.235 . S
C320 C321 1.393 . S
C320 C324 1.395 . S
C320 C327 1.492 . S
C321 C320 1.393 . S
C321 C322 1.392 1_655 S
C321 H332 0.930 . S
C322 C321 1.392 1_455 S
C322 C323 1.386 . S
C323 C322 1.386 . S
C323 C325 1.395 . S
C323 H333 0.930 . S
C324 C320 1.395 . S
C324 C325 1.379 1_655 S
C324 H334 0.930 . S
C325 C323 1.395 . S
C325 C324 1.379 1_455 S
C325 H335 0.930 . S
C326 O304 1.264 . S
C326 O305 1.254 . S
C327 Eu263 2.848 . S
C327 O302 1.257 . S
C327 O307 1.249 . S
C327 C320 1.492 . S
H328 C311 0.930 . S
H329 C312 0.930 . S
H330 C313 0.930 . S
H331 C314 0.930 . S
H332 C321 0.930 . S
H333 C323 0.930 . S
H334 C324 0.930 . S
H335 C325 0.930 . S
H336 C342 0.930 . S
H337 C346 0.930 . S
H338 C351 0.929 . S
H339 C349 0.929 . S
H340 C344 0.929 . S
H341 C350 0.929 . S
C342 H336 0.930 . S
C342 C343 1.367 . S
C342 C350 1.378 . S
C343 C342 1.367 . S
C343 C351 1.433 1_556 S
C344 H340 0.929 . S
C344 C346 1.378 . S
C344 C348 1.350 . S
C345 C348 1.449 1_556 S
C345 C350 1.381 . S
C345 N353 1.408 1_556 S
C346 H337 0.930 . S
C346 C344 1.378 . S
C346 C347 1.367 . S
C347 C346 1.367 . S
C347 C349 1.433 1_554 S
C348 C344 1.350 . S
C348 C345 1.449 1_554 S
C348 N352 1.427 1_554 S
C349 H339 0.929 . S
C349 C347 1.433 1_556 S
C349 N352 1.384 . S
C350 H341 0.929 . S
C350 C342 1.378 . S
C350 C345 1.381 . S
C351 H338 0.929 . S
C351 C343 1.433 1_554 S
C351 N353 1.384 . S
N352 C348 1.427 1_556 S
N352 C349 1.384 . S
N353 C345 1.408 1_554 S
N353 C351 1.384 . S
H354 C360 0.930 . S
H355 C364 0.930 . S
H356 C369 0.929 . S
H357 C367 0.929 . S
H358 C362 0.929 . S
H359 C368 0.929 . S
C360 H354 0.930 . S
C360 C361 1.367 . S
C360 C368 1.378 . S
C361 C360 1.367 . S
C361 C369 1.433 . S
C362 H358 0.929 . S
C362 C364 1.378 . S
C362 C366 1.350 . S
C363 C366 1.463 . S
C363 C368 1.350 . S
C363 N371 1.427 . S
C364 H355 0.930 . S
C364 C362 1.378 . S
C364 C365 1.367 . S
C365 C364 1.367 . S
C365 C367 1.433 . S
C366 C362 1.350 . S
C366 C363 1.463 . S
C366 N370 1.427 . S
C367 H357 0.929 . S
C367 C365 1.433 . S
C367 N370 1.384 . S
C368 H359 0.929 . S
C368 C360 1.378 . S
C368 C363 1.350 . S
C369 H356 0.929 . S
C369 C361 1.433 . S
C369 N371 1.384 . S
N370 C366 1.427 . S
N370 C367 1.384 . S
N371 C363 1.427 . S
N371 C369 1.384 . S
H372 C378 0.930 . S
H373 C382 0.930 . S
H374 C387 0.929 . S
H375 C385 0.929 . S
H376 C380 0.929 . S
H377 C386 0.929 . S
C378 H372 0.930 . S
C378 C379 1.346 1_554 S
C378 C386 1.378 . S
C379 C378 1.346 1_556 S
C379 C387 1.445 . S
C380 H376 0.929 . S
C380 C382 1.378 . S
C380 C384 1.350 1_556 S
C381 C384 1.463 1_445 S
C381 C386 1.350 . S
C381 N389 1.427 1_554 S
C382 H373 0.930 . S
C382 C380 1.378 . S
C382 C383 1.367 1_556 S
C383 C382 1.367 1_554 S
C383 C385 1.433 . S
C384 C380 1.350 1_554 S
C384 C381 1.463 1_665 S
C384 N388 1.427 . S
C385 H375 0.929 . S
C385 C383 1.433 . S
C385 N388 1.384 . S
C386 H377 0.929 . S
C386 C378 1.378 . S
C386 C381 1.350 . S
C387 H374 0.929 . S
C387 C379 1.445 . S
C387 N389 1.384 . S
N388 C384 1.427 . S
N388 C385 1.384 . S
N389 C381 1.427 1_556 S
N389 C387 1.384 . S
H390 C396 0.930 . S
H391 C400 0.930 . S
H392 C405 0.929 . S
H393 C403 0.929 . S
H394 C398 0.929 1_655 S
H395 C404 0.929 1_455 S
C396 H390 0.930 . S
C396 C397 1.367 . S
C396 C404 1.378 . S
C397 C396 1.367 . S
C397 C405 1.433 . S
C398 H394 0.929 1_455 S
C398 C400 1.378 . S
C398 C402 1.350 . S
C399 C402 1.463 1_645 S
C399 C404 1.350 . S
C399 N407 1.427 . S
C400 H391 0.930 . S
C400 C398 1.378 . S
C400 C401 1.367 . S
C401 C400 1.367 . S
C401 C403 1.433 . S
C402 C398 1.350 . S
C402 C399 1.463 1_465 S
C402 N406 1.427 . S
C403 H393 0.929 . S
C403 C401 1.433 . S
C403 N406 1.384 . S
C404 H395 0.929 1_655 S
C404 C396 1.378 . S
C404 C399 1.350 . S
C405 H392 0.929 . S
C405 C397 1.433 . S
C405 N407 1.384 . S
N406 C402 1.427 . S
N406 C403 1.384 . S
N407 C399 1.427 . S
N407 C405 1.384 . S
H408 C414 0.930 . S
H409 C418 0.930 . S
H410 C423 0.929 . S
H411 C421 0.929 . S
H412 C416 0.929 . S
H413 C422 0.929 . S
C414 H408 0.930 . S
C414 C415 1.367 . S
C414 C422 1.378 . S
C415 C414 1.367 . S
C415 C423 1.433 . S
C416 H412 0.929 . S
C416 C418 1.378 . S
C416 C420 1.350 . S
C417 C420 1.463 . S
C417 C422 1.350 . S
C417 N425 1.427 . S
C418 H409 0.930 . S
C418 C416 1.378 . S
C418 C419 1.367 . S
C419 C418 1.367 . S
C419 C421 1.433 . S
C420 C416 1.350 . S
C420 C417 1.463 . S
C420 N424 1.427 . S
C421 H411 0.929 . S
C421 C419 1.433 . S
C421 N424 1.384 . S
C422 H413 0.929 . S
C422 C414 1.378 . S
C422 C417 1.350 . S
C423 H410 0.929 . S
C423 C415 1.433 . S
C423 N425 1.384 . S
N424 C420 1.427 . S
N424 C421 1.384 . S
N425 C417 1.427 . S
N425 C423 1.384 . S
H426 C432 0.930 . S
H427 C436 0.930 . S
H428 C441 0.929 . S
H429 C439 0.929 . S
H430 C434 0.929 . S
H431 C440 0.929 . S
C432 H426 0.930 . S
C432 C433 1.367 . S
C432 C440 1.378 . S
C433 C432 1.367 . S
C433 C441 1.433 . S
C434 H430 0.929 . S
C434 C436 1.378 . S
C434 C438 1.350 . S
C435 C438 1.463 . S
C435 C440 1.350 . S
C435 N443 1.427 . S
C436 H427 0.930 . S
C436 C434 1.378 . S
C436 C437 1.367 . S
C437 C436 1.367 . S
C437 C439 1.433 . S
C438 C434 1.350 . S
C438 C435 1.463 . S
C438 N442 1.427 . S
C439 H429 0.929 . S
C439 C437 1.433 . S
C439 N442 1.384 . S
C440 H431 0.929 . S
C440 C432 1.378 . S
C440 C435 1.350 . S
C441 H428 0.929 . S
C441 C433 1.433 . S
C441 N443 1.384 . S
N442 C438 1.427 . S
N442 C439 1.384 . S
N443 C435 1.427 . S
N443 C441 1.384 . S
H444 C450 0.930 . S
H445 C454 0.930 . S
H446 C459 0.929 . S
H447 C457 0.929 . S
H448 C452 0.929 . S
H449 C458 0.929 . S
C450 H444 0.930 . S
C450 C451 1.367 . S
C450 C458 1.378 . S
C451 C450 1.367 . S
C451 C459 1.433 . S
C452 H448 0.929 . S
C452 C454 1.378 . S
C452 C456 1.350 . S
C453 C456 1.463 . S
C453 C458 1.350 . S
C453 N461 1.427 . S
C454 H445 0.930 . S
C454 C452 1.378 . S
C454 C455 1.367 . S
C455 C454 1.367 . S
C455 C457 1.433 . S
C456 C452 1.350 . S
C456 C453 1.463 . S
C456 N460 1.427 . S
C457 H447 0.929 . S
C457 C455 1.433 . S
C457 N460 1.384 . S
C458 H449 0.929 . S
C458 C450 1.378 . S
C458 C453 1.350 . S
C459 H446 0.929 . S
C459 C451 1.433 . S
C459 N461 1.384 . S
N460 C456 1.427 . S
N460 C457 1.384 . S
N461 C453 1.427 . S
N461 C459 1.384 . S
H462 C468 0.930 . S
H463 C472 0.930 . S
H464 C477 0.929 . S
H465 C475 0.929 . S
H466 C470 0.929 . S
H467 C476 0.929 . S
C468 H462 0.930 . S
C468 C469 1.367 . S
C468 C476 1.378 . S
C469 C468 1.367 . S
C469 C477 1.433 . S
C470 H466 0.929 . S
C470 C472 1.378 . S
C470 C474 1.350 . S
C471 C474 1.463 . S
C471 C476 1.350 . S
C471 N479 1.427 . S
C472 H463 0.930 . S
C472 C470 1.378 . S
C472 C473 1.367 . S
C473 C472 1.367 . S
C473 C475 1.433 . S
C474 C470 1.350 . S
C474 C471 1.463 . S
C474 N478 1.427 . S
C475 H465 0.929 . S
C475 C473 1.433 . S
C475 N478 1.384 . S
C476 H467 0.929 . S
C476 C468 1.378 . S
C476 C471 1.350 . S
C477 H464 0.929 . S
C477 C469 1.433 . S
C477 N479 1.384 . S
N478 C474 1.427 . S
N478 C475 1.384 . S
N479 C471 1.427 . S
N479 C477 1.384 . S
H480 C486 0.930 . S
H481 C490 0.930 1_455 S
H482 C495 0.929 . S
H483 C493 0.929 . S
H484 C488 0.929 . S
H485 C494 0.929 . S
C486 H480 0.930 . S
C486 C487 1.367 . S
C486 C494 1.378 . S
C487 C486 1.367 . S
C487 C495 1.433 . S
C488 H484 0.929 . S
C488 C490 1.378 . S
C488 C492 1.350 . S
C489 C492 1.463 . S
C489 C494 1.350 . S
C489 N497 1.427 . S
C490 H481 0.930 1_655 S
C490 C488 1.378 . S
C490 C491 1.367 . S
C491 C490 1.367 . S
C491 C493 1.433 . S
C492 C488 1.350 . S
C492 C489 1.463 . S
C492 N496 1.427 . S
C493 H483 0.929 . S
C493 C491 1.433 . S
C493 N496 1.384 . S
C494 H485 0.929 . S
C494 C486 1.378 . S
C494 C489 1.350 . S
C495 H482 0.929 . S
C495 C487 1.433 . S
C495 N497 1.384 . S
N496 C492 1.427 . S
N496 C493 1.384 . S
N497 C489 1.427 . S
N497 C495 1.384 . S
H498 C504 0.930 . S
H499 C508 0.930 . S
H500 C513 0.929 . S
H501 C511 0.935 . S
H502 C506 0.929 . S
H503 C512 0.929 . S
C504 H498 0.930 . S
C504 C505 1.367 . S
C504 C512 1.378 . S
C505 C504 1.367 . S
C505 C513 1.433 . S
C506 H502 0.929 . S
C506 C508 1.378 . S
C506 C510 1.350 . S
C507 C510 1.463 . S
C507 C512 1.350 . S
C507 N515 1.427 . S
C508 H499 0.930 . S
C508 C506 1.378 . S
C508 C509 1.367 . S
C509 C508 1.367 . S
C509 C511 1.430 1_655 S
C510 C506 1.350 . S
C510 C507 1.463 . S
C510 N514 1.427 . S
C511 H501 0.935 . S
C511 C509 1.430 1_455 S
C511 N514 1.380 1_455 S
C512 H503 0.929 . S
C512 C504 1.378 . S
C512 C507 1.350 . S
C513 H500 0.929 . S
C513 C505 1.433 . S
C513 N515 1.384 . S
N514 C510 1.427 . S
N514 C511 1.380 1_655 S
N515 C507 1.427 . S
N515 C513 1.384 . S
H516 C522 0.930 . S
H517 C526 0.930 . S
H518 C531 0.929 . S
H519 C529 0.929 . S
H520 C524 0.929 1_655 S
H521 C530 0.929 . S
C522 H516 0.930 . S
C522 C523 1.367 . S
C522 C530 1.378 . S
C523 C522 1.367 . S
C523 C531 1.433 1_455 S
C524 H520 0.929 1_455 S
C524 C526 1.378 . S
C524 C528 1.350 . S
C525 C528 1.463 . S
C525 C530 1.350 . S
C525 N533 1.427 1_455 S
C526 H517 0.930 . S
C526 C524 1.378 . S
C526 C527 1.367 . S
C527 C526 1.367 . S
C527 C529 1.433 . S
C528 C524 1.350 . S
C528 C525 1.463 . S
C528 N532 1.427 . S
C529 H519 0.929 . S
C529 C527 1.433 . S
C529 N532 1.384 . S
C530 H521 0.929 . S
C530 C522 1.378 . S
C530 C525 1.350 . S
C531 H518 0.929 . S
C531 C523 1.433 1_655 S
C531 N533 1.384 . S
N532 C528 1.427 . S
N532 C529 1.384 . S
N533 C525 1.427 1_655 S
N533 C531 1.384 . S
H534 C540 0.930 . S
H535 C544 0.930 . S
H536 C549 0.929 . S
H537 C547 0.929 . S
H538 C542 0.929 1_655 S
H539 C548 0.929 . S
C540 H534 0.930 . S
C540 C541 1.367 . S
C540 C548 1.378 . S
C541 C540 1.367 . S
C541 C549 1.433 . S
C542 H538 0.929 1_455 S
C542 C544 1.378 1_455 S
C542 C546 1.350 . S
C543 C546 1.463 . S
C543 C548 1.350 . S
C543 N551 1.427 . S
C544 H535 0.930 . S
C544 C542 1.378 1_655 S
C544 C545 1.367 1_655 S
C545 C544 1.367 1_455 S
C545 C547 1.433 . S
C546 C542 1.350 . S
C546 C543 1.463 . S
C546 N550 1.427 . S
C547 H537 0.929 . S
C547 C545 1.433 . S
C547 N550 1.384 . S
C548 H539 0.929 . S
C548 C540 1.378 . S
C548 C543 1.350 . S
C549 H536 0.929 . S
C549 C541 1.433 . S
C549 N551 1.384 . S
N550 C546 1.427 . S
N550 C547 1.384 . S
N551 C543 1.427 . S
N551 C549 1.384 . S
C343 C147 1.499 . S
C347 C74 1.499 . S
C361 C242 1.499 . S
C365 C315 1.499 . S
C379 C63 1.521 . S
C383 C158 1.506 . S
C397 C326 1.498 . S
C401 C231 1.498 . S
C415 C310 1.211 . S
C419 C56 1.209 . S
C433 C142 1.230 . S
C437 C224 1.213 . S
C451 C151 1.203 . S
C455 C238 1.209 . S
C469 C319 1.213 . S
C473 C70 1.230 . S
C487 C140 1.198 . S
C491 C226 1.210 . S
C505 C308 1.219 . S
C509 C58 1.228 . S
C523 C322 1.216 . S
C527 C67 1.214 . S
C541 C235 1.207 . S
C545 C154 1.227 . S
