# Generated by pormake.
# Topology snx, (6)-cn, num edge types: 1
# Building blocks:
#     Node 0, Type 0, BuildingBlock: MIDCAF_clean_sbu_0, # of connection points: 6
#     Node 1, Type 0, BuildingBlock: MIDCAF_clean_sbu_0, # of connection points: 6
#     Node 2, Type 0, BuildingBlock: MIDCAF_clean_sbu_0, # of connection points: 6
#     Node 3, Type 0, BuildingBlock: MIDCAF_clean_sbu_0, # of connection points: 6
#     Node 4, Type 0, BuildingBlock: MIDCAF_clean_sbu_0, # of connection points: 6
#     Node 5, Type 0, BuildingBlock: MIDCAF_clean_sbu_0, # of connection points: 6
#     Edge 6, Type (0, 0), BuildingBlock: UVAHIK_clean_linker_0, # of connection points: 2
#     Edge 7, Type (0, 0), BuildingBlock: UVAHIK_clean_linker_0, # of connection points: 2
#     Edge 8, Type (0, 0), BuildingBlock: UVAHIK_clean_linker_0, # of connection points: 2
#     Edge 9, Type (0, 0), BuildingBlock: UVAHIK_clean_linker_0, # of connection points: 2
#     Edge 10, Type (0, 0), BuildingBlock: UVAHIK_clean_linker_0, # of connection points: 2
#     Edge 11, Type (0, 0), BuildingBlock: UVAHIK_clean_linker_0, # of connection points: 2
#     Edge 12, Type (0, 0), BuildingBlock: UVAHIK_clean_linker_0, # of connection points: 2
#     Edge 13, Type (0, 0), BuildingBlock: UVAHIK_clean_linker_0, # of connection points: 2
#     Edge 14, Type (0, 0), BuildingBlock: UVAHIK_clean_linker_0, # of connection points: 2
#     Edge 15, Type (0, 0), BuildingBlock: UVAHIK_clean_linker_0, # of connection points: 2
#     Edge 16, Type (0, 0), BuildingBlock: UVAHIK_clean_linker_0, # of connection points: 2
#     Edge 17, Type (0, 0), BuildingBlock: UVAHIK_clean_linker_0, # of connection points: 2
#     Edge 18, Type (0, 0), BuildingBlock: UVAHIK_clean_linker_0, # of connection points: 2
#     Edge 19, Type (0, 0), BuildingBlock: UVAHIK_clean_linker_0, # of connection points: 2
#     Edge 20, Type (0, 0), BuildingBlock: UVAHIK_clean_linker_0, # of connection points: 2
#     Edge 21, Type (0, 0), BuildingBlock: UVAHIK_clean_linker_0, # of connection points: 2
#     Edge 22, Type (0, 0), BuildingBlock: UVAHIK_clean_linker_0, # of connection points: 2
#     Edge 23, Type (0, 0), BuildingBlock: UVAHIK_clean_linker_0, # of connection points: 2
# Relax obj value: 0.219
# Max RMSD: 0.238
# Mean RMSD: 0.238
data_MOF--net-snx--node1-MIDCAF_clean_sbu_0--edge1-UVAHIK_clean_linker_0
_symmetry_space_group_name_H-M    P1
_symmetry_Int_Tables_number       1
_symmetry_cell_setting            triclinic
loop_
_symmetry_equiv_pos_as_xyz
'x, y, z'
_cell_length_a     43.888996
_cell_length_b     44.044523
_cell_length_c     28.253794
_cell_angle_alpha  89.839015
_cell_angle_beta   90.195421
_cell_angle_gamma 119.78916
loop_
_atom_site_label
_atom_site_type_symbol
_atom_site_fract_x
_atom_site_fract_y
_atom_site_fract_z
_atom_type_partial_charge
Zn0 Zn 0.11886 0.35262 0.23555 0.0
Zn1 Zn 0.23287 0.36099 0.24231 0.0
Zn2 Zn 0.17381 0.35343 0.23724 0.0
C3 C 0.19836 0.31041 0.17434 0.0
C4 C 0.20251 0.33671 0.32882 0.0
O5 O 0.18203 0.40693 0.24058 0.0
O6 O 0.13038 0.39778 0.26501 0.0
C7 C 0.12712 0.33419 0.14703 0.0
O8 O 0.178 0.3236 0.17714 0.0
O9 O 0.22319 0.31959 0.20363 0.0
O10 O 0.233 0.3562 0.31276 0.0
O11 O 0.17553 0.32914 0.30306 0.0
O12 O 0.11439 0.35132 0.16591 0.0
O13 O 0.14852 0.32797 0.17063 0.0
O14 O 0.14069 0.3205 0.2971 0.0
O15 O 0.08868 0.3083 0.27025 0.0
C16 C 0.10694 0.30264 0.29969 0.0
O17 O 0.21502 0.41011 0.23486 0.0
O18 O 0.26223 0.40795 0.2137 0.0
C19 C 0.1622 0.41865 0.25582 0.0
C20 C 0.24729 0.4256 0.2211 0.0
Zn21 Zn 0.75435 0.11917 0.7478 0.0
Zn22 Zn 0.85945 0.22938 0.75141 0.0
Zn23 Zn 0.80992 0.17216 0.74701 0.0
C24 C 0.8776 0.19639 0.68412 0.0
C25 C 0.85489 0.20045 0.8382 0.0
O26 O 0.76649 0.18371 0.74936 0.0
O27 O 0.72303 0.13414 0.7769 0.0
C28 C 0.78134 0.12525 0.65826 0.0
O29 O 0.84416 0.17547 0.68618 0.0
O30 O 0.89196 0.22053 0.7143 0.0
O31 O 0.86471 0.23041 0.82116 0.0
O32 O 0.83566 0.17304 0.81331 0.0
O33 O 0.75192 0.11359 0.67816 0.0
O34 O 0.8096 0.14632 0.6806 0.0
O35 O 0.80797 0.13814 0.80888 0.0
O36 O 0.7647 0.08732 0.78497 0.0
C37 C 0.78935 0.10457 0.81373 0.0
O38 O 0.79641 0.21592 0.74384 0.0
O39 O 0.84626 0.26225 0.72316 0.0
C40 C 0.73504 0.16576 0.76567 0.0
C41 C 0.81382 0.24834 0.73082 0.0
Zn42 Zn 0.6264 0.86697 0.23348 0.0
Zn43 Zn 0.62736 0.77171 0.29585 0.0
Zn44 Zn 0.63214 0.81736 0.2517 0.0
C45 C 0.69282 0.81936 0.30396 0.0
C46 C 0.62339 0.75747 0.19775 0.0
O47 O 0.58256 0.79448 0.2091 0.0
O48 O 0.58174 0.84377 0.19744 0.0
C49 C 0.62572 0.85996 0.33286 0.0
O50 O 0.68465 0.82215 0.26093 0.0
O51 O 0.66858 0.8047 0.33423 0.0
O52 O 0.63847 0.75413 0.23406 0.0
O53 O 0.60676 0.77462 0.20173 0.0
O54 O 0.62477 0.87958 0.30084 0.0
O55 O 0.62734 0.83285 0.32151 0.0
O56 O 0.68058 0.84824 0.21077 0.0
O57 O 0.6712 0.89239 0.19835 0.0
C58 C 0.68998 0.87837 0.19259 0.0
O59 O 0.57927 0.76767 0.24328 0.0
O60 O 0.57669 0.74765 0.31569 0.0
C61 C 0.56715 0.81099 0.19296 0.0
C62 C 0.56156 0.74587 0.27672 0.0
Zn63 Zn 0.85428 0.62893 0.74588 0.0
Zn64 Zn 0.74388 0.63223 0.73266 0.0
Zn65 Zn 0.80205 0.63391 0.74389 0.0
C66 C 0.78489 0.67849 0.66502 0.0
C67 C 0.76787 0.65498 0.82606 0.0
O68 O 0.79076 0.57779 0.74535 0.0
O69 O 0.83968 0.58252 0.77422 0.0
C70 C 0.85458 0.65368 0.65828 0.0
O71 O 0.80428 0.6659 0.67966 0.0
O72 O 0.75629 0.67 0.68556 0.0
O73 O 0.74088 0.6427 0.80011 0.0
O74 O 0.79652 0.65734 0.81046 0.0
O75 O 0.86458 0.63407 0.67697 0.0
O76 O 0.83283 0.66017 0.68037 0.0
O77 O 0.8317 0.66453 0.80749 0.0
O78 O 0.8826 0.67103 0.78475 0.0
C79 C 0.86532 0.67934 0.81218 0.0
O80 O 0.75913 0.5788 0.74051 0.0
O81 O 0.71393 0.58266 0.71318 0.0
C82 C 0.80829 0.56342 0.76121 0.0
C83 C 0.72706 0.56411 0.72586 0.0
Zn84 Zn 0.25189 0.88631 0.23049 0.0
Zn85 Zn 0.12263 0.74772 0.24222 0.0
Zn86 Zn 0.17414 0.80775 0.24447 0.0
C87 C 0.10877 0.78643 0.17667 0.0
C88 C 0.11882 0.76854 0.3303 0.0
O89 O 0.22437 0.80516 0.23899 0.0
O90 O 0.27339 0.85669 0.22677 0.0
C91 C 0.19567 0.86782 0.16074 0.0
O92 O 0.14155 0.80792 0.18423 0.0
O93 O 0.09308 0.75866 0.20063 0.0
O94 O 0.10855 0.73962 0.30981 0.0
O95 O 0.14207 0.79715 0.31039 0.0
O96 O 0.22732 0.88784 0.173 0.0
O97 O 0.17444 0.83972 0.18363 0.0
O98 O 0.17029 0.83076 0.31063 0.0
O99 O 0.21781 0.87157 0.28002 0.0
C100 C 0.19564 0.86202 0.31231 0.0
O101 O 0.19379 0.771 0.23716 0.0
O102 O 0.14565 0.72327 0.21454 0.0
C103 C 0.25799 0.82385 0.23227 0.0
C104 C 0.17833 0.73939 0.22168 0.0
Zn105 Zn 0.35428 0.22518 0.73735 0.0
Zn106 Zn 0.35644 0.11595 0.73506 0.0
Zn107 Zn 0.35218 0.16892 0.73977 0.0
C108 C 0.30691 0.10502 0.67027 0.0
C109 C 0.33263 0.1162 0.82419 0.0
O110 O 0.40721 0.21344 0.74428 0.0
O111 O 0.40002 0.2573 0.76714 0.0
C112 C 0.33292 0.19881 0.64998 0.0
O113 O 0.32175 0.13818 0.67759 0.0
O114 O 0.3146 0.08637 0.69599 0.0
O115 O 0.35131 0.10578 0.80379 0.0
O116 O 0.32672 0.13892 0.80376 0.0
O117 O 0.35065 0.22892 0.66764 0.0
O118 O 0.32722 0.17171 0.67408 0.0
O119 O 0.32027 0.1674 0.80064 0.0
O120 O 0.31077 0.20931 0.77487 0.0
C121 C 0.30372 0.18459 0.8034 0.0
O122 O 0.40739 0.18188 0.73785 0.0
O123 O 0.40366 0.13417 0.70678 0.0
C124 C 0.42018 0.24528 0.75861 0.0
C125 C 0.42211 0.16539 0.72041 0.0
C126 C 0.19376 0.47995 0.28625 0.0
C127 C 0.17359 0.45571 0.25126 0.0
C128 C 0.20259 0.51503 0.2814 0.0
C129 C 0.16867 0.56667 0.22418 0.0
H130 H 0.26062 0.64734 0.24683 0.0
C131 C 0.19011 0.69869 0.17639 0.0
C132 C 0.19706 0.71992 0.21632 0.0
C133 C 0.19724 0.67125 0.17722 0.0
C134 C 0.23492 0.62492 0.24042 0.0
H135 H 0.14695 0.448 0.18413 0.0
H136 H 0.16211 0.50895 0.1755 0.0
H137 H 0.25173 0.58792 0.2575 0.0
H138 H 0.21929 0.73138 0.28683 0.0
H139 H 0.23218 0.68326 0.28824 0.0
H140 H 0.15165 0.60305 0.20709 0.0
C141 C 0.17118 0.50131 0.20662 0.0
C142 C 0.22977 0.59112 0.24676 0.0
C143 C 0.1626 0.46657 0.21138 0.0
C144 C 0.21454 0.71574 0.25527 0.0
C145 C 0.2217 0.68815 0.25616 0.0
C146 C 0.17384 0.60013 0.21754 0.0
C147 C 0.19076 0.52579 0.24187 0.0
C148 C 0.19664 0.56175 0.23803 0.0
C149 C 0.21104 0.6645 0.21824 0.0
C150 C 0.20705 0.62952 0.2249 0.0
H151 H 0.20198 0.47165 0.31754 0.0
H152 H 0.2175 0.53339 0.3092 0.0
H153 H 0.14263 0.54455 0.21849 0.0
H154 H 0.17647 0.70149 0.14611 0.0
H155 H 0.1891 0.65344 0.14743 0.0
C156 C 0.71133 0.20177 0.73104 0.0
C157 C 0.71202 0.18093 0.7682 0.0
C158 C 0.68496 0.2107 0.72908 0.0
C159 C 0.59406 0.17145 0.76638 0.0
H160 H 0.59818 0.25542 0.71566 0.0
C161 C 0.47904 0.19816 0.76223 0.0
C162 C 0.46032 0.18111 0.7212 0.0
C163 C 0.51445 0.20816 0.76639 0.0
C164 C 0.59699 0.232 0.72992 0.0
H165 H 0.68798 0.15531 0.8342 0.0
H166 H 0.64235 0.17153 0.83155 0.0
H167 H 0.65305 0.25461 0.73148 0.0
H168 H 0.46358 0.16252 0.65157 0.0
H169 H 0.52587 0.17983 0.65918 0.0
H170 H 0.53826 0.14878 0.76441 0.0
C171 C 0.66159 0.18038 0.80339 0.0
C172 C 0.62811 0.23145 0.73889 0.0
C173 C 0.68766 0.17118 0.80504 0.0
C174 C 0.47774 0.17579 0.68339 0.0
C175 C 0.51321 0.18594 0.6875 0.0
C176 C 0.56325 0.17205 0.75746 0.0
C177 C 0.65901 0.19881 0.76431 0.0
C178 C 0.62683 0.2011 0.75727 0.0
C179 C 0.53136 0.20122 0.72954 0.0
C180 C 0.56456 0.20217 0.73908 0.0
H181 H 0.72969 0.20916 0.70195 0.0
H182 H 0.68351 0.22474 0.69842 0.0
H183 H 0.59211 0.14737 0.7793 0.0
H184 H 0.46584 0.20201 0.79201 0.0
H185 H 0.528 0.21919 0.79945 0.0
C186 C 0.27126 0.4835 0.26009 0.0
C187 C 0.26874 0.46399 0.2197 0.0
C188 C 0.29792 0.51839 0.26384 0.0
C189 C 0.36744 0.59519 0.20149 0.0
H190 H 0.42331 0.60386 0.31256 0.0
C191 C 0.51239 0.70549 0.22302 0.0
C192 C 0.52496 0.7176 0.26889 0.0
C193 C 0.47828 0.67757 0.2161 0.0
C194 C 0.40782 0.60245 0.28188 0.0
H195 H 0.29048 0.46571 0.15047 0.0
H196 H 0.33678 0.52706 0.1565 0.0
H197 H 0.36685 0.55145 0.30149 0.0
H198 H 0.51133 0.71094 0.34326 0.0
H199 H 0.45173 0.66312 0.33133 0.0
H200 H 0.40848 0.64635 0.18189 0.0
C201 C 0.31814 0.51552 0.18518 0.0
C202 C 0.37539 0.57225 0.27553 0.0
C203 C 0.29175 0.48047 0.18175 0.0
C204 C 0.5025 0.70189 0.30754 0.0
C205 C 0.46834 0.67433 0.30063 0.0
C206 C 0.39979 0.62581 0.2082 0.0
C207 C 0.32239 0.53432 0.2271 0.0
C208 C 0.35499 0.56813 0.23516 0.0
C209 C 0.45593 0.66127 0.25493 0.0
C210 C 0.42058 0.62969 0.24834 0.0
H211 H 0.25454 0.47098 0.29031 0.0
H212 H 0.30063 0.53233 0.29652 0.0
H213 H 0.3522 0.59259 0.16998 0.0
H214 H 0.52919 0.71707 0.19254 0.0
H215 H 0.46992 0.6681 0.18044 0.0
C216 C 0.80122 0.50851 0.79737 0.0
C217 C 0.79391 0.52514 0.76009 0.0
C218 C 0.79323 0.47367 0.79314 0.0
C219 C 0.80202 0.41982 0.71445 0.0
H220 H 0.73306 0.33609 0.77939 0.0
C221 C 0.80381 0.29203 0.68818 0.0
C222 C 0.79756 0.27065 0.72794 0.0
C223 C 0.79528 0.31867 0.68867 0.0
C224 C 0.75272 0.35922 0.76126 0.0
H225 H 0.77192 0.51832 0.68964 0.0
H226 H 0.75893 0.45744 0.68167 0.0
H227 H 0.73255 0.39116 0.78941 0.0
H228 H 0.77642 0.25929 0.79885 0.0
H229 H 0.76277 0.30672 0.80088 0.0
H230 H 0.82407 0.38956 0.68878 0.0
C231 C 0.76998 0.47123 0.71453 0.0
C232 C 0.75214 0.39062 0.76675 0.0
C233 C 0.77734 0.50592 0.71911 0.0
C234 C 0.78109 0.27525 0.76753 0.0
C235 C 0.77325 0.3025 0.76852 0.0
C236 C 0.80309 0.38881 0.70967 0.0
C237 C 0.77849 0.4551 0.75118 0.0
C238 C 0.77684 0.42111 0.74335 0.0
C239 C 0.7814 0.32544 0.72964 0.0
C240 C 0.77851 0.35792 0.73301 0.0
H241 H 0.81428 0.52289 0.82913 0.0
H242 H 0.80041 0.46185 0.82158 0.0
H243 H 0.8217 0.44323 0.69674 0.0
H244 H 0.81649 0.28892 0.65719 0.0
H245 H 0.80082 0.33474 0.65733 0.0
C246 C 0.51548 0.80109 0.1446 0.0
C247 C 0.52894 0.79285 0.18466 0.0
C248 C 0.48106 0.79533 0.14457 0.0
C249 C 0.3963 0.75521 0.21047 0.0
H250 H 0.39665 0.84007 0.17279 0.0
C251 C 0.28846 0.7915 0.25957 0.0
C252 C 0.27948 0.80744 0.22328 0.0
C253 C 0.31525 0.78334 0.25251 0.0
C254 C 0.39589 0.81595 0.18285 0.0
H255 H 0.51716 0.77362 0.25658 0.0
H256 H 0.45684 0.76107 0.25544 0.0
H257 H 0.44896 0.83535 0.1611 0.0
H258 H 0.29058 0.82694 0.15141 0.0
H259 H 0.3369 0.81271 0.13894 0.0
H260 H 0.34313 0.73628 0.23318 0.0
C261 C 0.47229 0.77098 0.22348 0.0
C262 C 0.42586 0.81318 0.17591 0.0
C263 C 0.50677 0.77727 0.2237 0.0
C264 C 0.29672 0.81409 0.17961 0.0
C265 C 0.32346 0.80628 0.17269 0.0
C266 C 0.36613 0.75798 0.21739 0.0
C267 C 0.45957 0.78146 0.1848 0.0
C268 C 0.42645 0.78275 0.18937 0.0
C269 C 0.33379 0.79178 0.20941 0.0
C270 C 0.36558 0.78834 0.20334 0.0
H271 H 0.53242 0.81449 0.11483 0.0
H272 H 0.47197 0.80363 0.11414 0.0
H273 H 0.39605 0.73151 0.22149 0.0
H274 H 0.27621 0.7872 0.29401 0.0
H275 H 0.32282 0.77237 0.28157 0.0
C276 C 0.67703 0.50953 0.6934 0.0
C277 C 0.70466 0.52572 0.72603 0.0
C278 C 0.65314 0.4738 0.69665 0.0
C279 C 0.61602 0.40342 0.78528 0.0
H280 H 0.56513 0.34919 0.67547 0.0
C281 C 0.47215 0.29632 0.79454 0.0
C282 C 0.45839 0.26905 0.76139 0.0
C283 C 0.5075 0.32206 0.79306 0.0
C284 C 0.57939 0.36342 0.70668 0.0
H285 H 0.72892 0.51742 0.78783 0.0
H286 H 0.68819 0.45453 0.79228 0.0
H287 H 0.61908 0.40427 0.6647 0.0
H288 H 0.4706 0.24736 0.70054 0.0
H289 H 0.53292 0.29083 0.69979 0.0
H290 H 0.57643 0.36245 0.82729 0.0
C291 C 0.68477 0.46946 0.76434 0.0
C292 C 0.61015 0.39539 0.70041 0.0
C293 C 0.70848 0.50537 0.76134 0.0
C294 C 0.48084 0.26735 0.72762 0.0
C295 C 0.5164 0.29274 0.72662 0.0
C296 C 0.5855 0.37119 0.79159 0.0
C297 C 0.65631 0.45337 0.73264 0.0
C298 C 0.628 0.4165 0.73954 0.0
C299 C 0.52998 0.32105 0.75843 0.0
C300 C 0.56597 0.35148 0.75232 0.0
H301 H 0.67331 0.5247 0.66609 0.0
H302 H 0.63122 0.46261 0.67219 0.0
H303 H 0.62897 0.41891 0.81632 0.0
H304 H 0.45525 0.29846 0.82058 0.0
H305 H 0.51662 0.34372 0.81755 0.0
C306 C 0.28446 0.17394 0.88793 0.0
C307 C 0.2776 0.1777 0.8404 0.0
C308 C 0.26392 0.17657 0.92378 0.0
C309 C 0.21843 0.22516 0.94165 0.0
H310 H 0.19242 0.17847 0.0633 0.0
C311 C 0.17888 0.28466 0.09318 0.0
C312 C 0.19409 0.28512 0.13708 0.0
C313 C 0.17855 0.26302 0.05674 0.0
C314 C 0.19963 0.19187 0.02954 0.0
H315 H 0.24236 0.18376 0.79247 0.0
H316 H 0.20635 0.18791 0.8548 0.0
H317 H 0.21156 0.15415 -0.00014 0.0
H318 H 0.2199 0.26256 0.17789 0.0
H319 H 0.22089 0.22635 0.11432 0.0
H320 H 0.209 0.26409 0.97147 0.0
C321 C 0.22775 0.18353 0.8646 0.0
C322 C 0.21044 0.17781 -0.00676 0.0
C323 C 0.24825 0.18104 0.829 0.0
C324 C 0.208 0.26282 0.14435 0.0
C325 C 0.20812 0.24162 0.10794 0.0
C326 C 0.20813 0.23943 0.97796 0.0
C327 C 0.23642 0.18307 0.91235 0.0
C328 C 0.22056 0.19472 0.94923 0.0
C329 C 0.19409 0.24194 0.06328 0.0
C330 C 0.19939 0.22348 0.02279 0.0
H331 H 0.30719 0.17169 0.89746 0.0
H332 H 0.27129 0.17628 0.96033 0.0
H333 H 0.22664 0.23914 0.90833 0.0
H334 H 0.16882 0.30221 0.0862 0.0
H335 H 0.16713 0.26369 0.023 0.0
C336 C 0.88654 0.17491 0.60474 0.0
C337 C 0.90017 0.19536 0.64579 0.0
C338 C 0.90891 0.17872 0.56678 0.0
C339 C -0.00996 0.24753 0.51561 0.0
H340 H -0.00074 0.17624 0.44739 0.0
C341 C 0.10151 0.28783 0.38566 0.0
C342 C 0.08881 0.27853 0.33929 0.0
C343 C 0.07958 0.27051 0.42405 0.0
C344 C -0.00314 0.19628 0.46636 0.0
H345 H 0.9484 0.2342 0.68003 0.0
H346 H 0.98638 0.24096 0.61459 0.0
H347 H 0.95575 0.1591 0.51167 0.0
H348 H 0.04512 0.24152 0.29635 0.0
H349 H 0.00715 0.2107 0.36356 0.0
H350 H 0.0309 0.2847 0.47113 0.0
C351 C 0.95862 0.22221 0.61131 0.0
C352 C 0.97187 0.1865 0.50265 0.0
C353 C 0.93665 0.21821 0.64893 0.0
C354 C 0.05537 0.24928 0.3319 0.0
C355 C 0.03371 0.23155 0.37027 0.0
C356 C 0.01497 0.25722 0.47995 0.0
C357 C 0.94499 0.20335 0.56935 0.0
C358 C 0.96865 0.21219 0.52799 0.0
C359 C 0.04495 0.24328 0.41653 0.0
C360 C 0.01901 0.23183 0.4554 0.0
H361 H 0.85865 0.15721 0.60113 0.0
H362 H 0.8978 0.16378 0.53472 0.0
H363 H 0.98762 0.26783 0.53388 0.0
H364 H 0.12708 0.31039 0.39228 0.0
H365 H 0.08885 0.27988 0.45953 0.0
C366 C 0.78443 0.04983 0.84709 0.0
C367 C 0.79443 0.08525 0.85332 0.0
C368 C 0.78359 0.02922 0.88532 0.0
C369 C 0.7757 0.02563 0.01619 0.0
H370 H 0.78659 0.94399 0.00127 0.0
C371 C 0.745 0.93178 0.17133 0.0
C372 C 0.72025 0.89692 0.16058 0.0
C373 C 0.76381 0.95562 0.13531 0.0
C374 C 0.78355 0.96673 0.00604 0.0
H375 H 0.81157 0.12679 0.90483 0.0
H376 H 0.8121 0.09148 0.97147 0.0
H377 H 0.8019 0.98559 0.93605 0.0
H378 H 0.69751 0.85926 0.10387 0.0
H379 H 0.73084 0.90052 0.04098 0.0
H380 H 0.75701 0.00661 0.08588 0.0
C381 C 0.80433 0.07936 0.93697 0.0
C382 C 0.79216 0.99059 0.96855 0.0
C383 C 0.80482 0.09994 0.89857 0.0
C384 C 0.71725 0.88557 0.11351 0.0
C385 C 0.73607 0.90947 0.07732 0.0
C386 C 0.76749 0.00204 0.05373 0.0
C387 C 0.79285 0.04341 0.93112 0.0
C388 C 0.78772 0.02008 0.97272 0.0
C389 C 0.75807 0.9452 0.08759 0.0
C390 C 0.77077 0.97199 0.04899 0.0
H391 H 0.77601 0.0376 0.81268 0.0
H392 H 0.77402 0.0017 0.8791 0.0
H393 H 0.77111 0.04742 0.02079 0.0
H394 H 0.7473 0.94142 0.20717 0.0
H395 H 0.78102 0.98279 0.14459 0.0
C396 C 0.7345 0.7972 0.30913 0.0
C397 C 0.72717 0.82422 0.31884 0.0
C398 C 0.75366 0.78897 0.3416 0.0
C399 C 0.76214 0.79196 0.4701 0.0
H400 H 0.8215 0.75083 0.45264 0.0
C401 C 0.79537 0.73461 0.63026 0.0
C402 C 0.7949 0.7028 0.6244 0.0
C403 C 0.79657 0.75458 0.59105 0.0
C404 C 0.80472 0.76201 0.45815 0.0
H405 H 0.73751 0.86625 0.36714 0.0
H406 H 0.77224 0.85318 0.42241 0.0
H407 H 0.80865 0.77798 0.38525 0.0
H408 H 0.79689 0.66747 0.57317 0.0
H409 H 0.79758 0.70162 0.50402 0.0
H410 H 0.75622 0.77469 0.54163 0.0
C411 C 0.76255 0.83768 0.39046 0.0
C412 C 0.79753 0.77776 0.41949 0.0
C413 C 0.7433 0.84572 0.35823 0.0
C414 C 0.7976 0.69216 0.57855 0.0
C415 C 0.79798 0.71182 0.53896 0.0
C416 C 0.76891 0.776 0.5083 0.0
C417 C 0.76585 0.80774 0.38424 0.0
C418 C 0.7762 0.79305 0.42508 0.0
C419 C 0.79609 0.74269 0.54463 0.0
C420 C 0.79039 0.76081 0.50321 0.0
H421 H 0.7216 0.7796 0.27976 0.0
H422 H 0.75568 0.76576 0.33559 0.0
H423 H 0.74466 0.80238 0.47558 0.0
H424 H 0.79336 0.74339 0.66531 0.0
H425 H 0.79645 0.77876 0.59728 0.0
C426 C 0.87298 0.6985 0.89716 0.0
C427 C 0.88508 0.70442 0.85034 0.0
C428 C 0.8963 0.71644 0.93441 0.0
C429 C 0.98837 0.78805 0.96232 0.0
H430 H 0.97981 0.72497 0.0638 0.0
C431 C 0.09918 0.80249 0.09445 0.0
C432 C 0.08789 0.79308 0.14139 0.0
C433 C 0.07513 0.79965 0.05927 0.0
C434 C 0.98239 0.74308 0.03597 0.0
H435 H 0.92969 0.736 0.80522 0.0
H436 H 0.96999 0.76697 0.86941 0.0
H437 H 0.93432 0.70546 0.00368 0.0
H438 H 0.04407 0.77679 0.18935 0.0
H439 H 0.00259 0.77218 0.12859 0.0
H440 H 0.0376 0.82508 -0.00572 0.0
C441 C 0.94288 0.74872 0.87806 0.0
C442 C 0.95609 0.73199 0.00165 0.0
C443 C 0.91974 0.7308 0.84112 0.0
C444 C 0.05332 0.78384 0.15329 0.0
C445 C 0.02954 0.78107 0.11853 0.0
C446 C 0.01499 0.79904 -0.00339 0.0
C447 C 0.93199 0.74065 0.92533 0.0
C448 C 0.95863 0.75423 0.96424 0.0
C449 C 0.03968 0.78732 0.07089 0.0
C450 C 0.01215 0.77663 0.03384 0.0
H451 H 0.84642 0.67824 0.90522 0.0
H452 H 0.88678 0.71011 0.97041 0.0
H453 H -0.00881 0.806 0.93418 0.0
H454 H 0.12562 0.80934 0.08437 0.0
H455 H 0.08361 0.80466 0.02273 0.0
C456 C 0.29086 0.10385 0.58535 0.0
C457 C 0.28284 0.0884 0.63038 0.0
C458 C 0.27328 0.08394 0.54557 0.0
C459 C 0.20088 -0.00197 0.5046 0.0
H460 H 0.27344 -0.0013 0.42611 0.0
C461 C 0.18017 0.88039 0.38894 0.0
C462 C 0.19842 0.88864 0.34595 0.0
C463 C 0.18554 0.90728 0.42026 0.0
C464 C 0.25265 -0.00151 0.44691 0.0
H465 H 0.2481 0.04188 0.67029 0.0
H466 H 0.21725 0.00729 0.60116 0.0
H467 H 0.28906 0.0446 0.48388 0.0
H468 H 0.23502 0.93135 0.30077 0.0
H469 H 0.24346 0.97724 0.35403 0.0
H470 H 0.16457 0.95123 0.46797 0.0
C471 C 0.23695 0.0345 0.5962 0.0
C472 C 0.26164 0.02498 0.47988 0.0
C473 C 0.25478 0.05418 0.63572 0.0
C474 C 0.22093 0.92393 0.33406 0.0
C475 C 0.22594 0.95043 0.3647 0.0
C476 C 0.19176 0.97158 0.47111 0.0
C477 C 0.24731 0.0486 0.55065 0.0
C478 C 0.23601 0.02464 0.50974 0.0
C479 C 0.209 0.94253 0.40858 0.0
C480 C 0.2177 0.97124 0.44253 0.0
H481 H 0.31262 0.13012 0.58046 0.0
H482 H 0.28159 0.0954 0.51072 0.0
H483 H 0.18068 -0.0028 0.52738 0.0
H484 H 0.16275 0.85341 0.39885 0.0
H485 H 0.17227 0.90043 0.45411 0.0
C486 C 0.65634 0.77345 0.12276 0.0
C487 C 0.63077 0.74733 0.15163 0.0
C488 C 0.67213 0.76471 0.08637 0.0
C489 C 0.66354 0.6924 0.01169 0.0
H490 H 0.76546 0.74181 0.01375 0.0
C491 C 0.73707 0.64136 0.90241 0.0
C492 C 0.76447 0.66586 0.874 0.0
C493 C 0.72402 0.65232 0.93956 0.0
C494 C 0.73704 0.72799 0.01242 0.0
H495 H 0.60063 0.69169 0.16467 0.0
H496 H 0.62679 0.67599 0.09935 0.0
H497 H 0.73341 0.75959 0.06734 0.0
H498 H 0.80148 0.72081 0.86387 0.0
H499 H 0.77871 0.74033 0.9293 0.0
H500 H 0.66687 0.66101 0.9567 0.0
C501 C 0.63488 0.7033 0.1049 0.0
C502 C 0.71868 0.73823 0.04298 0.0
C503 C 0.6197 0.71216 0.142 0.0
C504 C 0.78072 0.70144 0.88589 0.0
C505 C 0.76743 0.71255 0.92309 0.0
C506 C 0.68183 0.68232 0.98104 0.0
C507 C 0.66219 0.72956 0.07784 0.0
C508 C 0.68171 0.7203 0.04322 0.0
C509 C 0.73773 0.68814 0.94871 0.0
C510 C 0.71881 0.69963 0.98142 0.0
H511 H 0.66594 0.80074 0.13067 0.0
H512 H 0.69292 0.78549 0.06596 0.0
H513 H 0.63511 0.67841 0.0106 0.0
H514 H 0.72394 0.61378 0.89359 0.0
H515 H 0.70183 0.63275 0.95942 0.0
C516 C 0.88029 0.65503 0.57997 0.0
C517 C 0.87198 0.67238 0.61476 0.0
C518 C 0.9053 0.6741 0.54558 0.0
C519 C 0.98781 0.74354 0.54183 0.0
H520 H 0.98357 0.74191 0.40467 0.0
C521 C 0.08409 0.74024 0.40297 0.0
C522 C 0.09948 0.76926 0.37243 0.0
C523 C 0.05903 0.7369 0.43603 0.0
C524 C 0.98503 0.74304 0.44297 0.0
H525 H 0.88105 0.72275 0.63935 0.0
H526 H 0.9262 0.7564 0.57985 0.0
H527 H 0.92914 0.71951 0.45073 0.0
H528 H 0.10174 0.81807 0.35352 0.0
H529 H 0.05705 0.81164 0.41085 0.0
H530 H 0.04332 0.7641 0.53404 0.0
C531 C 0.91272 0.72808 0.57878 0.0
C532 C 0.95409 0.73036 0.46909 0.0
C533 C 0.88689 0.70889 0.61249 0.0
C534 C 0.09075 0.79577 0.37723 0.0
C535 C 0.06509 0.79204 0.40965 0.0
C536 C 0.01866 0.75551 0.51569 0.0
C537 C 0.92285 0.71076 0.54626 0.0
C538 C 0.9553 0.7301 0.51864 0.0
C539 C 0.04853 0.76217 0.43833 0.0
C540 C 0.01733 0.75482 0.46614 0.0
H541 H 0.86915 0.62689 0.58131 0.0
H542 H 0.91301 0.66036 0.52089 0.0
H543 H 0.98907 0.74285 0.5801 0.0
H544 H 0.09015 0.7193 0.39966 0.0
H545 H 0.04626 0.71354 0.45774 0.0
C546 C 0.20127 0.87788 0.07559 0.0
C547 C 0.18453 0.87774 0.11766 0.0
C548 C 0.20475 0.90066 0.03916 0.0
C549 C 0.216 0.98811 0.03241 0.0
H550 H 0.23797 0.97982 0.90196 0.0
C551 C 0.27998 0.09284 0.87653 0.0
C552 C 0.31338 0.09735 0.86691 0.0
C553 C 0.25796 0.0676 0.9092 0.0
C554 C 0.23144 0.98232 0.93818 0.0
H555 H 0.15504 0.89804 0.15365 0.0
H556 H 0.15986 0.93728 0.0889 0.0
H557 H 0.203 0.92698 0.9487 0.0
H558 H 0.35092 0.0809 0.88613 0.0
H559 H 0.31211 0.03645 0.94243 0.0
H560 H 0.24537 0.04372 0.0215 0.0
C561 C 0.17092 0.92032 0.08429 0.0
C562 C 0.21158 0.9522 0.96495 0.0
C563 C 0.1676 0.89749 0.12096 0.0
C564 C 0.32532 0.07801 0.89287 0.0
C565 C 0.30322 0.0526 0.92494 0.0
C566 C 0.23549 0.01825 0.0053 0.0
C567 C 0.19151 0.92372 0.04436 0.0
C568 C 0.20473 0.95474 0.01292 0.0
C569 C 0.26908 0.04651 0.93202 0.0
C570 C 0.24415 0.01541 0.95859 0.0
H571 H 0.21505 0.86323 0.07301 0.0
H572 H 0.22105 0.90265 0.00931 0.0
H573 H 0.21183 -0.00885 0.06943 0.0
H574 H 0.26976 0.10665 0.85615 0.0
H575 H 0.23152 0.06296 0.91424 0.0
C576 C 0.27675 0.1783 0.60858 0.0
C577 C 0.31345 0.19524 0.60654 0.0
C578 C 0.25818 0.18598 0.57501 0.0
C579 C 0.27857 0.26267 0.50156 0.0
H580 H 0.17903 0.21116 0.47333 0.0
C581 C 0.22008 0.3351 0.41154 0.0
C582 C 0.19884 0.31762 0.37264 0.0
C583 C 0.22557 0.31622 0.44686 0.0
C584 C 0.20691 0.22589 0.48071 0.0
H585 H 0.35939 0.22873 0.56504 0.0
H586 H 0.32682 0.23961 0.50367 0.0
H587 H 0.20709 0.18092 0.50924 0.0
H588 H 0.16363 0.26711 0.34184 0.0
H589 H 0.17504 0.23416 0.4014 0.0
H590 H 0.27937 0.30694 0.47062 0.0
C591 C 0.31235 0.22236 0.53267 0.0
C592 C 0.22298 0.20856 0.50156 0.0
C593 C 0.33102 0.21575 0.56721 0.0
C594 C 0.18019 0.28098 0.37178 0.0
C595 C 0.18671 0.26212 0.40612 0.0
C596 C 0.26279 0.27968 0.47992 0.0
C597 C 0.27619 0.21003 0.53847 0.0
C598 C 0.25907 0.22681 0.51224 0.0
C599 C 0.21134 0.27979 0.44231 0.0
C600 C 0.22672 0.26167 0.46938 0.0
H601 H 0.26286 0.1624 0.63896 0.0
H602 H 0.23038 0.17574 0.58063 0.0
H603 H 0.30614 0.2781 0.51053 0.0
H604 H 0.23432 0.36344 0.41293 0.0
H605 H 0.24333 0.33054 0.47555 0.0
C606 C 0.88119 0.22529 0.91593 0.0
C607 C 0.87086 0.19832 0.88276 0.0
C608 C 0.90604 0.23043 0.95031 0.0
C609 C 0.98199 0.21824 0.95822 0.0
H610 H -0.00397 0.2685 0.07597 0.0
C611 C 0.09771 0.27951 0.10039 0.0
C612 C 0.11071 0.31572 0.10306 0.0
C613 C 0.07024 0.25913 0.06935 0.0
C614 C -0.00781 0.25419 0.04328 0.0
H615 H 0.87537 0.15341 0.86201 0.0
H616 H 0.91797 0.16154 0.92352 0.0
H617 H 0.93772 0.23854 0.03998 0.0
H618 H 0.10842 0.35968 0.07239 0.0
H619 H 0.06027 0.32396 0.01834 0.0
H620 H 0.03696 0.23462 0.96184 0.0
C621 C 0.90752 0.17921 0.92226 0.0
C622 C 0.95898 0.23712 0.02271 0.0
C623 C 0.88278 0.17425 0.88753 0.0
C624 C 0.09889 0.3318 0.07061 0.0
C625 C 0.07135 0.31146 0.03995 0.0
C626 C 0.0152 0.23501 0.97924 0.0
C627 C 0.9209 0.20857 0.95211 0.0
C628 C 0.95374 0.21992 0.97914 0.0
C629 C 0.05571 0.27496 0.04117 0.0
C630 C 0.02053 0.25385 0.02108 0.0
H631 H 0.87226 0.24416 0.91282 0.0
H632 H 0.9158 0.25342 0.97249 0.0
H633 H 0.97904 0.20576 0.92424 0.0
H634 H 0.10598 0.26653 0.12574 0.0
H635 H 0.05817 0.2309 0.07074 0.0
C636 C 0.62072 0.89601 0.39572 0.0
C637 C 0.63333 0.87382 0.38131 0.0
C638 C 0.63873 0.92143 0.43002 0.0
C639 C 0.70955 0.95829 0.51796 0.0
H640 H 0.73194 0.04579 0.45613 0.0
C641 C 0.7978 0.0887 0.61039 0.0
C642 C 0.78166 0.10928 0.61304 0.0
C643 C 0.78626 0.06178 0.57699 0.0
C644 C 0.72596 0.02165 0.47395 0.0
H645 H 0.67143 0.85729 0.39584 0.0
H646 H 0.70288 0.90179 0.45631 0.0
H647 H 0.69267 0.99054 0.41752 0.0
H648 H 0.74375 0.12066 0.58068 0.0
H649 H 0.72399 0.07447 0.52218 0.0
H650 H 0.74185 0.98944 0.57528 0.0
C651 C 0.67927 0.89966 0.44084 0.0
C652 C 0.7033 0.99002 0.45199 0.0
C653 C 0.66109 0.87401 0.40652 0.0
C654 C 0.75685 0.10533 0.57873 0.0
C655 C 0.74546 0.07868 0.54534 0.0
C656 C 0.73199 0.99007 0.54032 0.0
C657 C 0.6696 0.92502 0.45028 0.0
C658 C 0.69427 0.95807 0.47421 0.0
C659 C 0.75858 0.05533 0.54587 0.0
C660 C 0.73988 0.0221 0.51892 0.0
H661 H 0.5992 0.89615 0.37698 0.0
H662 H 0.63029 0.94022 0.43766 0.0
H663 H 0.70321 0.93396 0.5355 0.0
H664 H 0.81663 0.09101 0.63707 0.0
H665 H 0.79732 0.04461 0.57764 0.0
loop_
_geom_bond_atom_site_label_1
_geom_bond_atom_site_label_2
_geom_bond_distance
_geom_bond_site_symmetry_2
_ccdc_geom_bond_type
Zn0 O6 1.920 . S
Zn0 O12 1.898 . S
Zn0 O15 1.905 . S
Zn1 O9 1.905 . S
Zn1 O10 1.898 . S
Zn1 O18 1.920 . S
Zn2 O5 2.080 . S
Zn2 O8 2.114 . S
Zn2 O11 2.120 . S
Zn2 O13 2.120 . S
Zn2 O14 2.114 . S
Zn2 O17 2.080 . S
C3 O8 1.166 . S
C3 O9 1.182 . S
C4 O10 1.167 . S
C4 O11 1.299 . S
O5 Zn2 2.080 . S
O5 C19 1.305 . S
O6 Zn0 1.920 . S
O6 C19 1.234 . S
C7 O12 1.167 . S
C7 O13 1.299 . S
O8 Zn2 2.114 . S
O8 C3 1.166 . S
O9 Zn1 1.905 . S
O9 C3 1.182 . S
O10 Zn1 1.898 . S
O10 C4 1.167 . S
O11 Zn2 2.120 . S
O11 C4 1.299 . S
O12 Zn0 1.898 . S
O12 C7 1.167 . S
O13 Zn2 2.120 . S
O13 C7 1.299 . S
O14 Zn2 2.114 . S
O14 C16 1.166 . S
O15 Zn0 1.905 . S
O15 C16 1.182 . S
C16 O14 1.166 . S
C16 O15 1.182 . S
O17 Zn2 2.080 . S
O17 C20 1.305 . S
O18 Zn1 1.920 . S
O18 C20 1.234 . S
C19 O5 1.305 . S
C19 O6 1.234 . S
C20 O17 1.305 . S
C20 O18 1.234 . S
Zn21 O27 1.920 . S
Zn21 O33 1.898 . S
Zn21 O36 1.905 . S
Zn22 O30 1.905 . S
Zn22 O31 1.898 . S
Zn22 O39 1.920 . S
Zn23 O26 2.080 . S
Zn23 O29 2.114 . S
Zn23 O32 2.120 . S
Zn23 O34 2.120 . S
Zn23 O35 2.114 . S
Zn23 O38 2.080 . S
C24 O29 1.166 . S
C24 O30 1.182 . S
C25 O31 1.167 . S
C25 O32 1.299 . S
O26 Zn23 2.080 . S
O26 C40 1.305 . S
O27 Zn21 1.920 . S
O27 C40 1.234 . S
C28 O33 1.167 . S
C28 O34 1.299 . S
O29 Zn23 2.114 . S
O29 C24 1.166 . S
O30 Zn22 1.905 . S
O30 C24 1.182 . S
O31 Zn22 1.898 . S
O31 C25 1.167 . S
O32 Zn23 2.120 . S
O32 C25 1.299 . S
O33 Zn21 1.898 . S
O33 C28 1.167 . S
O34 Zn23 2.120 . S
O34 C28 1.299 . S
O35 Zn23 2.114 . S
O35 C37 1.166 . S
O36 Zn21 1.905 . S
O36 C37 1.182 . S
C37 O35 1.166 . S
C37 O36 1.182 . S
O38 Zn23 2.080 . S
O38 C41 1.305 . S
O39 Zn22 1.920 . S
O39 C41 1.234 . S
C40 O26 1.305 . S
C40 O27 1.234 . S
C41 O38 1.305 . S
C41 O39 1.234 . S
Zn42 O48 1.920 . S
Zn42 O54 1.898 . S
Zn42 O57 1.905 . S
Zn43 O51 1.905 . S
Zn43 O52 1.898 . S
Zn43 O60 1.920 . S
Zn44 O47 2.080 . S
Zn44 O50 2.114 . S
Zn44 O53 2.120 . S
Zn44 O55 2.120 . S
Zn44 O56 2.114 . S
Zn44 O59 2.080 . S
C45 O50 1.166 . S
C45 O51 1.182 . S
C46 O52 1.167 . S
C46 O53 1.299 . S
O47 Zn44 2.080 . S
O47 C61 1.305 . S
O48 Zn42 1.920 . S
O48 C61 1.234 . S
C49 O54 1.167 . S
C49 O55 1.299 . S
O50 Zn44 2.114 . S
O50 C45 1.166 . S
O51 Zn43 1.905 . S
O51 C45 1.182 . S
O52 Zn43 1.898 . S
O52 C46 1.167 . S
O53 Zn44 2.120 . S
O53 C46 1.299 . S
O54 Zn42 1.898 . S
O54 C49 1.167 . S
O55 Zn44 2.120 . S
O55 C49 1.299 . S
O56 Zn44 2.114 . S
O56 C58 1.166 . S
O57 Zn42 1.905 . S
O57 C58 1.182 . S
C58 O56 1.166 . S
C58 O57 1.182 . S
O59 Zn44 2.080 . S
O59 C62 1.305 . S
O60 Zn43 1.920 . S
O60 C62 1.234 . S
C61 O47 1.305 . S
C61 O48 1.234 . S
C62 O59 1.305 . S
C62 O60 1.234 . S
Zn63 O69 1.920 . S
Zn63 O75 1.898 . S
Zn63 O78 1.905 . S
Zn64 O72 1.905 . S
Zn64 O73 1.898 . S
Zn64 O81 1.920 . S
Zn65 O68 2.080 . S
Zn65 O71 2.114 . S
Zn65 O74 2.120 . S
Zn65 O76 2.120 . S
Zn65 O77 2.114 . S
Zn65 O80 2.080 . S
C66 O71 1.166 . S
C66 O72 1.182 . S
C67 O73 1.167 . S
C67 O74 1.299 . S
O68 Zn65 2.080 . S
O68 C82 1.305 . S
O69 Zn63 1.920 . S
O69 C82 1.234 . S
C70 O75 1.167 . S
C70 O76 1.299 . S
O71 Zn65 2.114 . S
O71 C66 1.166 . S
O72 Zn64 1.905 . S
O72 C66 1.182 . S
O73 Zn64 1.898 . S
O73 C67 1.167 . S
O74 Zn65 2.120 . S
O74 C67 1.299 . S
O75 Zn63 1.898 . S
O75 C70 1.167 . S
O76 Zn65 2.120 . S
O76 C70 1.299 . S
O77 Zn65 2.114 . S
O77 C79 1.166 . S
O78 Zn63 1.905 . S
O78 C79 1.182 . S
C79 O77 1.166 . S
C79 O78 1.182 . S
O80 Zn65 2.080 . S
O80 C83 1.305 . S
O81 Zn64 1.920 . S
O81 C83 1.234 . S
C82 O68 1.305 . S
C82 O69 1.234 . S
C83 O80 1.305 . S
C83 O81 1.234 . S
Zn84 O90 1.920 . S
Zn84 O96 1.898 . S
Zn84 O99 1.905 . S
Zn85 O93 1.905 . S
Zn85 O94 1.898 . S
Zn85 O102 1.920 . S
Zn86 O89 2.080 . S
Zn86 O92 2.114 . S
Zn86 O95 2.120 . S
Zn86 O97 2.120 . S
Zn86 O98 2.114 . S
Zn86 O101 2.080 . S
C87 O92 1.166 . S
C87 O93 1.182 . S
C88 O94 1.167 . S
C88 O95 1.299 . S
O89 Zn86 2.080 . S
O89 C103 1.305 . S
O90 Zn84 1.920 . S
O90 C103 1.234 . S
C91 O96 1.167 . S
C91 O97 1.299 . S
O92 Zn86 2.114 . S
O92 C87 1.166 . S
O93 Zn85 1.905 . S
O93 C87 1.182 . S
O94 Zn85 1.898 . S
O94 C88 1.167 . S
O95 Zn86 2.120 . S
O95 C88 1.299 . S
O96 Zn84 1.898 . S
O96 C91 1.167 . S
O97 Zn86 2.120 . S
O97 C91 1.299 . S
O98 Zn86 2.114 . S
O98 C100 1.166 . S
O99 Zn84 1.905 . S
O99 C100 1.182 . S
C100 O98 1.166 . S
C100 O99 1.182 . S
O101 Zn86 2.080 . S
O101 C104 1.305 . S
O102 Zn85 1.920 . S
O102 C104 1.234 . S
C103 O89 1.305 . S
C103 O90 1.234 . S
C104 O101 1.305 . S
C104 O102 1.234 . S
Zn105 O111 1.920 . S
Zn105 O117 1.898 . S
Zn105 O120 1.905 . S
Zn106 O114 1.905 . S
Zn106 O115 1.898 . S
Zn106 O123 1.920 . S
Zn107 O110 2.080 . S
Zn107 O113 2.114 . S
Zn107 O116 2.120 . S
Zn107 O118 2.120 . S
Zn107 O119 2.114 . S
Zn107 O122 2.080 . S
C108 O113 1.166 . S
C108 O114 1.182 . S
C109 O115 1.167 . S
C109 O116 1.299 . S
O110 Zn107 2.080 . S
O110 C124 1.305 . S
O111 Zn105 1.920 . S
O111 C124 1.234 . S
C112 O117 1.167 . S
C112 O118 1.299 . S
O113 Zn107 2.114 . S
O113 C108 1.166 . S
O114 Zn106 1.905 . S
O114 C108 1.182 . S
O115 Zn106 1.898 . S
O115 C109 1.167 . S
O116 Zn107 2.120 . S
O116 C109 1.299 . S
O117 Zn105 1.898 . S
O117 C112 1.167 . S
O118 Zn107 2.120 . S
O118 C112 1.299 . S
O119 Zn107 2.114 . S
O119 C121 1.166 . S
O120 Zn105 1.905 . S
O120 C121 1.182 . S
C121 O119 1.166 . S
C121 O120 1.182 . S
O122 Zn107 2.080 . S
O122 C125 1.305 . S
O123 Zn106 1.920 . S
O123 C125 1.234 . S
C124 O110 1.305 . S
C124 O111 1.234 . S
C125 O122 1.305 . S
C125 O123 1.234 . S
C126 C127 1.349 . S
C126 C128 1.327 . S
C126 H151 0.950 . S
C127 C126 1.349 . S
C127 C143 1.349 . S
C128 C126 1.327 . S
C128 C147 1.429 . S
C128 H152 0.950 . S
C129 C146 1.574 . S
C129 C148 1.368 . S
C129 H153 0.949 . S
H130 C134 0.949 . S
C131 C132 1.349 . S
C131 C133 1.327 . S
C131 H154 0.950 . S
C132 C131 1.349 . S
C132 C144 1.349 . S
C133 C131 1.327 . S
C133 C149 1.429 . S
C133 H155 0.950 . S
C134 H130 0.949 . S
C134 C142 1.574 . S
C134 C150 1.368 . S
H135 C143 0.950 . S
H136 C141 0.950 . S
H137 C142 0.949 . S
H138 C144 0.950 . S
H139 C145 0.950 . S
H140 C146 0.949 . S
C141 H136 0.950 . S
C141 C143 1.327 . S
C141 C147 1.429 . S
C142 C134 1.574 . S
C142 H137 0.949 . S
C142 C148 1.368 . S
C143 C127 1.349 . S
C143 H135 0.950 . S
C143 C141 1.327 . S
C144 C132 1.349 . S
C144 H138 0.950 . S
C144 C145 1.327 . S
C145 H139 0.950 . S
C145 C144 1.327 . S
C145 C149 1.429 . S
C146 C129 1.574 . S
C146 H140 0.949 . S
C146 C150 1.368 . S
C147 C128 1.429 . S
C147 C141 1.429 . S
C147 C148 1.523 . S
C148 C129 1.368 . S
C148 C142 1.368 . S
C148 C147 1.523 . S
C149 C133 1.429 . S
C149 C145 1.429 . S
C149 C150 1.523 . S
C150 C134 1.368 . S
C150 C146 1.368 . S
C150 C149 1.523 . S
H151 C126 0.950 . S
H152 C128 0.950 . S
H153 C129 0.949 . S
H154 C131 0.950 . S
H155 C133 0.950 . S
C156 C157 1.349 . S
C156 C158 1.327 . S
C156 H181 0.950 . S
C157 C156 1.349 . S
C157 C173 1.349 . S
C158 C156 1.327 . S
C158 C177 1.429 . S
C158 H182 0.950 . S
C159 C176 1.574 . S
C159 C178 1.368 . S
C159 H183 0.949 . S
H160 C164 0.949 . S
C161 C162 1.349 . S
C161 C163 1.327 . S
C161 H184 0.950 . S
C162 C161 1.349 . S
C162 C174 1.349 . S
C163 C161 1.327 . S
C163 C179 1.429 . S
C163 H185 0.950 . S
C164 H160 0.949 . S
C164 C172 1.574 . S
C164 C180 1.368 . S
H165 C173 0.950 . S
H166 C171 0.950 . S
H167 C172 0.949 . S
H168 C174 0.950 . S
H169 C175 0.950 . S
H170 C176 0.949 . S
C171 H166 0.950 . S
C171 C173 1.327 . S
C171 C177 1.429 . S
C172 C164 1.574 . S
C172 H167 0.949 . S
C172 C178 1.368 . S
C173 C157 1.349 . S
C173 H165 0.950 . S
C173 C171 1.327 . S
C174 C162 1.349 . S
C174 H168 0.950 . S
C174 C175 1.327 . S
C175 H169 0.950 . S
C175 C174 1.327 . S
C175 C179 1.429 . S
C176 C159 1.574 . S
C176 H170 0.949 . S
C176 C180 1.368 . S
C177 C158 1.429 . S
C177 C171 1.429 . S
C177 C178 1.523 . S
C178 C159 1.368 . S
C178 C172 1.368 . S
C178 C177 1.523 . S
C179 C163 1.429 . S
C179 C175 1.429 . S
C179 C180 1.523 . S
C180 C164 1.368 . S
C180 C176 1.368 . S
C180 C179 1.523 . S
H181 C156 0.950 . S
H182 C158 0.950 . S
H183 C159 0.949 . S
H184 C161 0.950 . S
H185 C163 0.950 . S
C186 C187 1.349 . S
C186 C188 1.327 . S
C186 H211 0.950 . S
C187 C186 1.349 . S
C187 C203 1.349 . S
C188 C186 1.327 . S
C188 C207 1.429 . S
C188 H212 0.950 . S
C189 C206 1.574 . S
C189 C208 1.368 . S
C189 H213 0.949 . S
H190 C194 0.949 . S
C191 C192 1.349 . S
C191 C193 1.327 . S
C191 H214 0.950 . S
C192 C191 1.349 . S
C192 C204 1.349 . S
C193 C191 1.327 . S
C193 C209 1.429 . S
C193 H215 0.950 . S
C194 H190 0.949 . S
C194 C202 1.574 . S
C194 C210 1.368 . S
H195 C203 0.950 . S
H196 C201 0.950 . S
H197 C202 0.949 . S
H198 C204 0.950 . S
H199 C205 0.950 . S
H200 C206 0.949 . S
C201 H196 0.950 . S
C201 C203 1.327 . S
C201 C207 1.429 . S
C202 C194 1.574 . S
C202 H197 0.949 . S
C202 C208 1.368 . S
C203 C187 1.349 . S
C203 H195 0.950 . S
C203 C201 1.327 . S
C204 C192 1.349 . S
C204 H198 0.950 . S
C204 C205 1.327 . S
C205 H199 0.950 . S
C205 C204 1.327 . S
C205 C209 1.429 . S
C206 C189 1.574 . S
C206 H200 0.949 . S
C206 C210 1.368 . S
C207 C188 1.429 . S
C207 C201 1.429 . S
C207 C208 1.523 . S
C208 C189 1.368 . S
C208 C202 1.368 . S
C208 C207 1.523 . S
C209 C193 1.429 . S
C209 C205 1.429 . S
C209 C210 1.523 . S
C210 C194 1.368 . S
C210 C206 1.368 . S
C210 C209 1.523 . S
H211 C186 0.950 . S
H212 C188 0.950 . S
H213 C189 0.949 . S
H214 C191 0.950 . S
H215 C193 0.950 . S
C216 C217 1.349 . S
C216 C218 1.327 . S
C216 H241 0.950 . S
C217 C216 1.349 . S
C217 C233 1.349 . S
C218 C216 1.327 . S
C218 C237 1.429 . S
C218 H242 0.950 . S
C219 C236 1.574 . S
C219 C238 1.368 . S
C219 H243 0.949 . S
H220 C224 0.949 . S
C221 C222 1.349 . S
C221 C223 1.327 . S
C221 H244 0.950 . S
C222 C221 1.349 . S
C222 C234 1.349 . S
C223 C221 1.327 . S
C223 C239 1.429 . S
C223 H245 0.950 . S
C224 H220 0.949 . S
C224 C232 1.574 . S
C224 C240 1.368 . S
H225 C233 0.950 . S
H226 C231 0.950 . S
H227 C232 0.949 . S
H228 C234 0.950 . S
H229 C235 0.950 . S
H230 C236 0.949 . S
C231 H226 0.950 . S
C231 C233 1.327 . S
C231 C237 1.429 . S
C232 C224 1.574 . S
C232 H227 0.949 . S
C232 C238 1.368 . S
C233 C217 1.349 . S
C233 H225 0.950 . S
C233 C231 1.327 . S
C234 C222 1.349 . S
C234 H228 0.950 . S
C234 C235 1.327 . S
C235 H229 0.950 . S
C235 C234 1.327 . S
C235 C239 1.429 . S
C236 C219 1.574 . S
C236 H230 0.949 . S
C236 C240 1.368 . S
C237 C218 1.429 . S
C237 C231 1.429 . S
C237 C238 1.523 . S
C238 C219 1.368 . S
C238 C232 1.368 . S
C238 C237 1.523 . S
C239 C223 1.429 . S
C239 C235 1.429 . S
C239 C240 1.523 . S
C240 C224 1.368 . S
C240 C236 1.368 . S
C240 C239 1.523 . S
H241 C216 0.950 . S
H242 C218 0.950 . S
H243 C219 0.949 . S
H244 C221 0.950 . S
H245 C223 0.950 . S
C246 C247 1.349 . S
C246 C248 1.327 . S
C246 H271 0.950 . S
C247 C246 1.349 . S
C247 C263 1.349 . S
C248 C246 1.327 . S
C248 C267 1.429 . S
C248 H272 0.950 . S
C249 C266 1.574 . S
C249 C268 1.368 . S
C249 H273 0.949 . S
H250 C254 0.949 . S
C251 C252 1.349 . S
C251 C253 1.327 . S
C251 H274 0.950 . S
C252 C251 1.349 . S
C252 C264 1.349 . S
C253 C251 1.327 . S
C253 C269 1.429 . S
C253 H275 0.950 . S
C254 H250 0.949 . S
C254 C262 1.574 . S
C254 C270 1.368 . S
H255 C263 0.950 . S
H256 C261 0.950 . S
H257 C262 0.949 . S
H258 C264 0.950 . S
H259 C265 0.950 . S
H260 C266 0.949 . S
C261 H256 0.950 . S
C261 C263 1.327 . S
C261 C267 1.429 . S
C262 C254 1.574 . S
C262 H257 0.949 . S
C262 C268 1.368 . S
C263 C247 1.349 . S
C263 H255 0.950 . S
C263 C261 1.327 . S
C264 C252 1.349 . S
C264 H258 0.950 . S
C264 C265 1.327 . S
C265 H259 0.950 . S
C265 C264 1.327 . S
C265 C269 1.429 . S
C266 C249 1.574 . S
C266 H260 0.949 . S
C266 C270 1.368 . S
C267 C248 1.429 . S
C267 C261 1.429 . S
C267 C268 1.523 . S
C268 C249 1.368 . S
C268 C262 1.368 . S
C268 C267 1.523 . S
C269 C253 1.429 . S
C269 C265 1.429 . S
C269 C270 1.523 . S
C270 C254 1.368 . S
C270 C266 1.368 . S
C270 C269 1.523 . S
H271 C246 0.950 . S
H272 C248 0.950 . S
H273 C249 0.949 . S
H274 C251 0.950 . S
H275 C253 0.950 . S
C276 C277 1.349 . S
C276 C278 1.327 . S
C276 H301 0.950 . S
C277 C276 1.349 . S
C277 C293 1.349 . S
C278 C276 1.327 . S
C278 C297 1.429 . S
C278 H302 0.950 . S
C279 C296 1.574 . S
C279 C298 1.368 . S
C279 H303 0.949 . S
H280 C284 0.949 . S
C281 C282 1.349 . S
C281 C283 1.327 . S
C281 H304 0.950 . S
C282 C281 1.349 . S
C282 C294 1.349 . S
C283 C281 1.327 . S
C283 C299 1.429 . S
C283 H305 0.950 . S
C284 H280 0.949 . S
C284 C292 1.574 . S
C284 C300 1.368 . S
H285 C293 0.950 . S
H286 C291 0.950 . S
H287 C292 0.949 . S
H288 C294 0.950 . S
H289 C295 0.950 . S
H290 C296 0.949 . S
C291 H286 0.950 . S
C291 C293 1.327 . S
C291 C297 1.429 . S
C292 C284 1.574 . S
C292 H287 0.949 . S
C292 C298 1.368 . S
C293 C277 1.349 . S
C293 H285 0.950 . S
C293 C291 1.327 . S
C294 C282 1.349 . S
C294 H288 0.950 . S
C294 C295 1.327 . S
C295 H289 0.950 . S
C295 C294 1.327 . S
C295 C299 1.429 . S
C296 C279 1.574 . S
C296 H290 0.949 . S
C296 C300 1.368 . S
C297 C278 1.429 . S
C297 C291 1.429 . S
C297 C298 1.523 . S
C298 C279 1.368 . S
C298 C292 1.368 . S
C298 C297 1.523 . S
C299 C283 1.429 . S
C299 C295 1.429 . S
C299 C300 1.523 . S
C300 C284 1.368 . S
C300 C296 1.368 . S
C300 C299 1.523 . S
H301 C276 0.950 . S
H302 C278 0.950 . S
H303 C279 0.949 . S
H304 C281 0.950 . S
H305 C283 0.950 . S
C306 C307 1.349 . S
C306 C308 1.327 . S
C306 H331 0.950 . S
C307 C306 1.349 . S
C307 C323 1.349 . S
C308 C306 1.327 . S
C308 C327 1.429 . S
C308 H332 0.950 . S
C309 C326 1.574 . S
C309 C328 1.368 . S
C309 H333 0.949 . S
H310 C314 0.949 . S
C311 C312 1.349 . S
C311 C313 1.327 . S
C311 H334 0.950 . S
C312 C311 1.349 . S
C312 C324 1.349 . S
C313 C311 1.327 . S
C313 C329 1.429 . S
C313 H335 0.950 . S
C314 H310 0.949 . S
C314 C322 1.574 . S
C314 C330 1.368 . S
H315 C323 0.950 . S
H316 C321 0.950 . S
H317 C322 0.949 . S
H318 C324 0.950 . S
H319 C325 0.950 . S
H320 C326 0.949 . S
C321 H316 0.950 . S
C321 C323 1.327 . S
C321 C327 1.429 . S
C322 C314 1.574 . S
C322 H317 0.949 . S
C322 C328 1.368 1_554 S
C323 C307 1.349 . S
C323 H315 0.950 . S
C323 C321 1.327 . S
C324 C312 1.349 . S
C324 H318 0.950 . S
C324 C325 1.327 . S
C325 H319 0.950 . S
C325 C324 1.327 . S
C325 C329 1.429 . S
C326 C309 1.574 . S
C326 H320 0.949 . S
C326 C330 1.368 1_556 S
C327 C308 1.429 . S
C327 C321 1.429 . S
C327 C328 1.523 . S
C328 C309 1.368 . S
C328 C322 1.368 1_556 S
C328 C327 1.523 . S
C329 C313 1.429 . S
C329 C325 1.429 . S
C329 C330 1.523 . S
C330 C314 1.368 . S
C330 C326 1.368 1_554 S
C330 C329 1.523 . S
H331 C306 0.950 . S
H332 C308 0.950 . S
H333 C309 0.949 . S
H334 C311 0.950 . S
H335 C313 0.950 . S
C336 C337 1.349 . S
C336 C338 1.327 . S
C336 H361 0.950 . S
C337 C336 1.349 . S
C337 C353 1.349 . S
C338 C336 1.327 . S
C338 C357 1.429 . S
C338 H362 0.950 . S
C339 C356 1.574 1_655 S
C339 C358 1.368 . S
C339 H363 0.949 . S
H340 C344 0.949 . S
C341 C342 1.349 . S
C341 C343 1.327 . S
C341 H364 0.950 . S
C342 C341 1.349 . S
C342 C354 1.349 . S
C343 C341 1.327 . S
C343 C359 1.429 . S
C343 H365 0.950 . S
C344 H340 0.949 . S
C344 C352 1.574 1_455 S
C344 C360 1.368 . S
H345 C353 0.950 . S
H346 C351 0.950 . S
H347 C352 0.949 . S
H348 C354 0.950 . S
H349 C355 0.950 . S
H350 C356 0.949 . S
C351 H346 0.950 . S
C351 C353 1.327 . S
C351 C357 1.429 . S
C352 C344 1.574 1_655 S
C352 H347 0.949 . S
C352 C358 1.368 . S
C353 C337 1.349 . S
C353 H345 0.950 . S
C353 C351 1.327 . S
C354 C342 1.349 . S
C354 H348 0.950 . S
C354 C355 1.327 . S
C355 H349 0.950 . S
C355 C354 1.327 . S
C355 C359 1.429 . S
C356 C339 1.574 1_455 S
C356 H350 0.949 . S
C356 C360 1.368 . S
C357 C338 1.429 . S
C357 C351 1.429 . S
C357 C358 1.523 . S
C358 C339 1.368 . S
C358 C352 1.368 . S
C358 C357 1.523 . S
C359 C343 1.429 . S
C359 C355 1.429 . S
C359 C360 1.523 . S
C360 C344 1.368 . S
C360 C356 1.368 . S
C360 C359 1.523 . S
H361 C336 0.950 . S
H362 C338 0.950 . S
H363 C339 0.949 . S
H364 C341 0.950 . S
H365 C343 0.950 . S
C366 C367 1.349 . S
C366 C368 1.327 . S
C366 H391 0.950 . S
C367 C366 1.349 . S
C367 C383 1.349 . S
C368 C366 1.327 . S
C368 C387 1.429 . S
C368 H392 0.950 . S
C369 C386 1.574 . S
C369 C388 1.368 1_554 S
C369 H393 0.949 . S
H370 C374 0.949 . S
C371 C372 1.349 . S
C371 C373 1.327 . S
C371 H394 0.950 . S
C372 C371 1.349 . S
C372 C384 1.349 . S
C373 C371 1.327 . S
C373 C389 1.429 . S
C373 H395 0.950 . S
C374 H370 0.949 . S
C374 C382 1.574 . S
C374 C390 1.368 1_556 S
H375 C383 0.950 . S
H376 C381 0.950 . S
H377 C382 0.949 . S
H378 C384 0.950 . S
H379 C385 0.950 . S
H380 C386 0.949 . S
C381 H376 0.950 . S
C381 C383 1.327 . S
C381 C387 1.429 . S
C382 C374 1.574 . S
C382 H377 0.949 . S
C382 C388 1.368 1_565 S
C383 C367 1.349 . S
C383 H375 0.950 . S
C383 C381 1.327 . S
C384 C372 1.349 . S
C384 H378 0.950 . S
C384 C385 1.327 . S
C385 H379 0.950 . S
C385 C384 1.327 . S
C385 C389 1.429 . S
C386 C369 1.574 . S
C386 H380 0.949 . S
C386 C390 1.368 1_545 S
C387 C368 1.429 . S
C387 C381 1.429 . S
C387 C388 1.523 . S
C388 C369 1.368 1_556 S
C388 C382 1.368 1_545 S
C388 C387 1.523 . S
C389 C373 1.429 . S
C389 C385 1.429 . S
C389 C390 1.523 . S
C390 C374 1.368 1_554 S
C390 C386 1.368 1_565 S
C390 C389 1.523 . S
H391 C366 0.950 . S
H392 C368 0.950 . S
H393 C369 0.949 . S
H394 C371 0.950 . S
H395 C373 0.950 . S
C396 C397 1.349 . S
C396 C398 1.327 . S
C396 H421 0.950 . S
C397 C396 1.349 . S
C397 C413 1.349 . S
C398 C396 1.327 . S
C398 C417 1.429 . S
C398 H422 0.950 . S
C399 C416 1.574 . S
C399 C418 1.368 . S
C399 H423 0.949 . S
H400 C404 0.949 . S
C401 C402 1.349 . S
C401 C403 1.327 . S
C401 H424 0.950 . S
C402 C401 1.349 . S
C402 C414 1.349 . S
C403 C401 1.327 . S
C403 C419 1.429 . S
C403 H425 0.950 . S
C404 H400 0.949 . S
C404 C412 1.574 . S
C404 C420 1.368 . S
H405 C413 0.950 . S
H406 C411 0.950 . S
H407 C412 0.949 . S
H408 C414 0.950 . S
H409 C415 0.950 . S
H410 C416 0.949 . S
C411 H406 0.950 . S
C411 C413 1.327 . S
C411 C417 1.429 . S
C412 C404 1.574 . S
C412 H407 0.949 . S
C412 C418 1.368 . S
C413 C397 1.349 . S
C413 H405 0.950 . S
C413 C411 1.327 . S
C414 C402 1.349 . S
C414 H408 0.950 . S
C414 C415 1.327 . S
C415 H409 0.950 . S
C415 C414 1.327 . S
C415 C419 1.429 . S
C416 C399 1.574 . S
C416 H410 0.949 . S
C416 C420 1.368 . S
C417 C398 1.429 . S
C417 C411 1.429 . S
C417 C418 1.523 . S
C418 C399 1.368 . S
C418 C412 1.368 . S
C418 C417 1.523 . S
C419 C403 1.429 . S
C419 C415 1.429 . S
C419 C420 1.523 . S
C420 C404 1.368 . S
C420 C416 1.368 . S
C420 C419 1.523 . S
H421 C396 0.950 . S
H422 C398 0.950 . S
H423 C399 0.949 . S
H424 C401 0.950 . S
H425 C403 0.950 . S
C426 C427 1.349 . S
C426 C428 1.327 . S
C426 H451 0.950 . S
C427 C426 1.349 . S
C427 C443 1.349 . S
C428 C426 1.327 . S
C428 C447 1.429 . S
C428 H452 0.950 . S
C429 C446 1.575 1_556 S
C429 C448 1.368 1_455 S
C429 H453 0.945 1_455 S
H430 C434 0.945 1_455 S
C431 C432 1.349 . S
C431 C433 1.327 . S
C431 H454 0.950 . S
C432 C431 1.349 . S
C432 C444 1.349 . S
C433 C431 1.327 . S
C433 C449 1.429 . S
C433 H455 0.950 . S
C434 H430 0.945 1_655 S
C434 C442 1.575 1_554 S
C434 C450 1.368 1_655 S
H435 C443 0.950 . S
H436 C441 0.950 . S
H437 C442 0.949 . S
H438 C444 0.950 . S
H439 C445 0.950 . S
H440 C446 0.949 . S
C441 H436 0.950 . S
C441 C443 1.327 . S
C441 C447 1.429 . S
C442 C434 1.575 1_556 S
C442 H437 0.949 . S
C442 C448 1.368 . S
C443 C427 1.349 . S
C443 H435 0.950 . S
C443 C441 1.327 . S
C444 C432 1.349 . S
C444 H438 0.950 . S
C444 C445 1.327 . S
C445 H439 0.950 . S
C445 C444 1.327 . S
C445 C449 1.429 . S
C446 C429 1.575 1_554 S
C446 H440 0.949 . S
C446 C450 1.368 . S
C447 C428 1.429 . S
C447 C441 1.429 . S
C447 C448 1.523 . S
C448 C429 1.368 1_655 S
C448 C442 1.368 . S
C448 C447 1.523 . S
C449 C433 1.429 . S
C449 C445 1.429 . S
C449 C450 1.523 . S
C450 C434 1.368 1_455 S
C450 C446 1.368 . S
C450 C449 1.523 . S
H451 C426 0.950 . S
H452 C428 0.950 . S
H453 C429 0.945 1_655 S
H454 C431 0.950 . S
H455 C433 0.950 . S
C456 C457 1.349 . S
C456 C458 1.327 . S
C456 H481 0.950 . S
C457 C456 1.349 . S
C457 C473 1.349 . S
C458 C456 1.327 . S
C458 C477 1.429 . S
C458 H482 0.950 . S
C459 C476 1.574 . S
C459 C478 1.368 1_565 S
C459 H483 0.949 . S
H460 C464 0.949 . S
C461 C462 1.349 . S
C461 C463 1.327 . S
C461 H484 0.950 . S
C462 C461 1.349 . S
C462 C474 1.349 . S
C463 C461 1.327 . S
C463 C479 1.429 . S
C463 H485 0.950 . S
C464 H460 0.949 . S
C464 C472 1.574 . S
C464 C480 1.368 1_545 S
H465 C473 0.950 . S
H466 C471 0.950 . S
H467 C472 0.949 . S
H468 C474 0.950 . S
H469 C475 0.950 . S
H470 C476 0.949 . S
C471 H466 0.950 . S
C471 C473 1.327 . S
C471 C477 1.429 . S
C472 C464 1.574 . S
C472 H467 0.949 . S
C472 C478 1.368 . S
C473 C457 1.349 . S
C473 H465 0.950 . S
C473 C471 1.327 . S
C474 C462 1.349 . S
C474 H468 0.950 . S
C474 C475 1.327 . S
C475 H469 0.950 . S
C475 C474 1.327 . S
C475 C479 1.429 . S
C476 C459 1.574 . S
C476 H470 0.949 . S
C476 C480 1.368 . S
C477 C458 1.429 . S
C477 C471 1.429 . S
C477 C478 1.523 . S
C478 C459 1.368 1_545 S
C478 C472 1.368 . S
C478 C477 1.523 . S
C479 C463 1.429 . S
C479 C475 1.429 . S
C479 C480 1.523 . S
C480 C464 1.368 1_565 S
C480 C476 1.368 . S
C480 C479 1.523 . S
H481 C456 0.950 . S
H482 C458 0.950 . S
H483 C459 0.949 . S
H484 C461 0.950 . S
H485 C463 0.950 . S
C486 C487 1.349 . S
C486 C488 1.327 . S
C486 H511 0.950 . S
C487 C486 1.349 . S
C487 C503 1.349 . S
C488 C486 1.327 . S
C488 C507 1.429 . S
C488 H512 0.950 . S
C489 C506 1.574 1_554 S
C489 C508 1.368 . S
C489 H513 0.949 . S
H490 C494 0.949 . S
C491 C492 1.349 . S
C491 C493 1.327 . S
C491 H514 0.950 . S
C492 C491 1.349 . S
C492 C504 1.349 . S
C493 C491 1.327 . S
C493 C509 1.429 . S
C493 H515 0.950 . S
C494 H490 0.949 . S
C494 C502 1.574 1_556 S
C494 C510 1.368 . S
H495 C503 0.950 . S
H496 C501 0.950 . S
H497 C502 0.949 . S
H498 C504 0.950 . S
H499 C505 0.950 . S
H500 C506 0.949 . S
C501 H496 0.950 . S
C501 C503 1.327 . S
C501 C507 1.429 . S
C502 C494 1.574 1_554 S
C502 H497 0.949 . S
C502 C508 1.368 . S
C503 C487 1.349 . S
C503 H495 0.950 . S
C503 C501 1.327 . S
C504 C492 1.349 . S
C504 H498 0.950 . S
C504 C505 1.327 . S
C505 H499 0.950 . S
C505 C504 1.327 . S
C505 C509 1.429 . S
C506 C489 1.574 1_556 S
C506 H500 0.949 . S
C506 C510 1.368 . S
C507 C488 1.429 . S
C507 C501 1.429 . S
C507 C508 1.523 . S
C508 C489 1.368 . S
C508 C502 1.368 . S
C508 C507 1.523 . S
C509 C493 1.429 . S
C509 C505 1.429 . S
C509 C510 1.523 . S
C510 C494 1.368 . S
C510 C506 1.368 . S
C510 C509 1.523 . S
H511 C486 0.950 . S
H512 C488 0.950 . S
H513 C489 0.949 . S
H514 C491 0.950 . S
H515 C493 0.950 . S
C516 C517 1.349 . S
C516 C518 1.327 . S
C516 H541 0.950 . S
C517 C516 1.349 . S
C517 C533 1.349 . S
C518 C516 1.327 . S
C518 C537 1.429 . S
C518 H542 0.950 . S
C519 C536 1.574 . S
C519 C538 1.368 1_455 S
C519 H543 0.949 . S
H520 C524 0.949 . S
C521 C522 1.349 . S
C521 C523 1.327 . S
C521 H544 0.950 . S
C522 C521 1.349 . S
C522 C534 1.349 . S
C523 C521 1.327 . S
C523 C539 1.429 . S
C523 H545 0.950 . S
C524 H520 0.949 . S
C524 C532 1.574 . S
C524 C540 1.368 1_655 S
H525 C533 0.950 . S
H526 C531 0.950 . S
H527 C532 0.949 . S
H528 C534 0.950 . S
H529 C535 0.950 . S
H530 C536 0.949 . S
C531 H526 0.950 . S
C531 C533 1.327 . S
C531 C537 1.429 . S
C532 C524 1.574 . S
C532 H527 0.949 . S
C532 C538 1.368 . S
C533 C517 1.349 . S
C533 H525 0.950 . S
C533 C531 1.327 . S
C534 C522 1.349 . S
C534 H528 0.950 . S
C534 C535 1.327 . S
C535 H529 0.950 . S
C535 C534 1.327 . S
C535 C539 1.429 . S
C536 C519 1.574 . S
C536 H530 0.949 . S
C536 C540 1.368 . S
C537 C518 1.429 . S
C537 C531 1.429 . S
C537 C538 1.523 . S
C538 C519 1.368 1_655 S
C538 C532 1.368 . S
C538 C537 1.523 . S
C539 C523 1.429 . S
C539 C535 1.429 . S
C539 C540 1.523 . S
C540 C524 1.368 1_455 S
C540 C536 1.368 . S
C540 C539 1.523 . S
H541 C516 0.950 . S
H542 C518 0.950 . S
H543 C519 0.949 . S
H544 C521 0.950 . S
H545 C523 0.950 . S
C546 C547 1.349 . S
C546 C548 1.327 . S
C546 H571 0.950 . S
C547 C546 1.349 . S
C547 C563 1.349 . S
C548 C546 1.327 . S
C548 C567 1.429 . S
C548 H572 0.950 . S
C549 C566 1.574 . S
C549 C568 1.368 1_545 S
C549 H573 0.949 . S
H550 C554 0.949 . S
C551 C552 1.349 . S
C551 C553 1.327 . S
C551 H574 0.950 . S
C552 C551 1.349 . S
C552 C564 1.349 . S
C553 C551 1.327 . S
C553 C569 1.429 . S
C553 H575 0.950 . S
C554 H550 0.949 . S
C554 C562 1.574 . S
C554 C570 1.368 1_565 S
H555 C563 0.950 . S
H556 C561 0.950 . S
H557 C562 0.949 . S
H558 C564 0.950 . S
H559 C565 0.950 . S
H560 C566 0.949 . S
C561 H556 0.950 . S
C561 C563 1.327 . S
C561 C567 1.429 . S
C562 C554 1.574 . S
C562 H557 0.949 . S
C562 C568 1.368 1_556 S
C563 C547 1.349 . S
C563 H555 0.950 . S
C563 C561 1.327 . S
C564 C552 1.349 . S
C564 H558 0.950 . S
C564 C565 1.327 . S
C565 H559 0.950 . S
C565 C564 1.327 . S
C565 C569 1.429 . S
C566 C549 1.574 . S
C566 H560 0.949 . S
C566 C570 1.368 1_554 S
C567 C548 1.429 . S
C567 C561 1.429 . S
C567 C568 1.523 . S
C568 C549 1.368 1_565 S
C568 C562 1.368 1_554 S
C568 C567 1.523 . S
C569 C553 1.429 . S
C569 C565 1.429 . S
C569 C570 1.523 . S
C570 C554 1.368 1_545 S
C570 C566 1.368 1_556 S
C570 C569 1.523 . S
H571 C546 0.950 . S
H572 C548 0.950 . S
H573 C549 0.949 . S
H574 C551 0.950 . S
H575 C553 0.950 . S
C576 C577 1.349 . S
C576 C578 1.327 . S
C576 H601 0.950 . S
C577 C576 1.349 . S
C577 C593 1.349 . S
C578 C576 1.327 . S
C578 C597 1.429 . S
C578 H602 0.950 . S
C579 C596 1.574 . S
C579 C598 1.368 . S
C579 H603 0.949 . S
H580 C584 0.949 . S
C581 C582 1.349 . S
C581 C583 1.327 . S
C581 H604 0.950 . S
C582 C581 1.349 . S
C582 C594 1.349 . S
C583 C581 1.327 . S
C583 C599 1.429 . S
C583 H605 0.950 . S
C584 H580 0.949 . S
C584 C592 1.574 . S
C584 C600 1.368 . S
H585 C593 0.950 . S
H586 C591 0.950 . S
H587 C592 0.949 . S
H588 C594 0.950 . S
H589 C595 0.950 . S
H590 C596 0.949 . S
C591 H586 0.950 . S
C591 C593 1.327 . S
C591 C597 1.429 . S
C592 C584 1.574 . S
C592 H587 0.949 . S
C592 C598 1.368 . S
C593 C577 1.349 . S
C593 H585 0.950 . S
C593 C591 1.327 . S
C594 C582 1.349 . S
C594 H588 0.950 . S
C594 C595 1.327 . S
C595 H589 0.950 . S
C595 C594 1.327 . S
C595 C599 1.429 . S
C596 C579 1.574 . S
C596 H590 0.949 . S
C596 C600 1.368 . S
C597 C578 1.429 . S
C597 C591 1.429 . S
C597 C598 1.523 . S
C598 C579 1.368 . S
C598 C592 1.368 . S
C598 C597 1.523 . S
C599 C583 1.429 . S
C599 C595 1.429 . S
C599 C600 1.523 . S
C600 C584 1.368 . S
C600 C596 1.368 . S
C600 C599 1.523 . S
H601 C576 0.950 . S
H602 C578 0.950 . S
H603 C579 0.949 . S
H604 C581 0.950 . S
H605 C583 0.950 . S
C606 C607 1.349 . S
C606 C608 1.327 . S
C606 H631 0.950 . S
C607 C606 1.349 . S
C607 C623 1.349 . S
C608 C606 1.327 . S
C608 C627 1.429 . S
C608 H632 0.950 . S
C609 C626 1.574 1_656 S
C609 C628 1.368 . S
C609 H633 0.949 . S
H610 C614 0.949 . S
C611 C612 1.349 . S
C611 C613 1.327 . S
C611 H634 0.950 . S
C612 C611 1.349 . S
C612 C624 1.349 . S
C613 C611 1.327 . S
C613 C629 1.429 . S
C613 H635 0.950 . S
C614 H610 0.949 . S
C614 C622 1.574 1_454 S
C614 C630 1.368 . S
H615 C623 0.950 . S
H616 C621 0.950 . S
H617 C622 0.949 . S
H618 C624 0.950 . S
H619 C625 0.950 . S
H620 C626 0.949 . S
C621 H616 0.950 . S
C621 C623 1.327 . S
C621 C627 1.429 . S
C622 C614 1.574 1_656 S
C622 H617 0.949 . S
C622 C628 1.368 . S
C623 C607 1.349 . S
C623 H615 0.950 . S
C623 C621 1.327 . S
C624 C612 1.349 . S
C624 H618 0.950 . S
C624 C625 1.327 . S
C625 H619 0.950 . S
C625 C624 1.327 . S
C625 C629 1.429 . S
C626 C609 1.574 1_454 S
C626 H620 0.949 . S
C626 C630 1.368 . S
C627 C608 1.429 . S
C627 C621 1.429 . S
C627 C628 1.523 . S
C628 C609 1.368 . S
C628 C622 1.368 . S
C628 C627 1.523 . S
C629 C613 1.429 . S
C629 C625 1.429 . S
C629 C630 1.523 . S
C630 C614 1.368 . S
C630 C626 1.368 . S
C630 C629 1.523 . S
H631 C606 0.950 . S
H632 C608 0.950 . S
H633 C609 0.949 . S
H634 C611 0.950 . S
H635 C613 0.950 . S
C636 C637 1.349 . S
C636 C638 1.327 . S
C636 H661 0.950 . S
C637 C636 1.349 . S
C637 C653 1.349 . S
C638 C636 1.327 . S
C638 C657 1.429 . S
C638 H662 0.950 . S
C639 C656 1.574 1_565 S
C639 C658 1.368 . S
C639 H663 0.949 . S
H640 C644 0.949 . S
C641 C642 1.349 . S
C641 C643 1.327 . S
C641 H664 0.950 . S
C642 C641 1.349 . S
C642 C654 1.349 . S
C643 C641 1.327 . S
C643 C659 1.429 . S
C643 H665 0.950 . S
C644 H640 0.949 . S
C644 C652 1.574 1_545 S
C644 C660 1.368 . S
H645 C653 0.950 . S
H646 C651 0.950 . S
H647 C652 0.949 . S
H648 C654 0.950 . S
H649 C655 0.950 . S
H650 C656 0.949 . S
C651 H646 0.950 . S
C651 C653 1.327 . S
C651 C657 1.429 . S
C652 C644 1.574 1_565 S
C652 H647 0.949 . S
C652 C658 1.368 . S
C653 C637 1.349 . S
C653 H645 0.950 . S
C653 C651 1.327 . S
C654 C642 1.349 . S
C654 H648 0.950 . S
C654 C655 1.327 . S
C655 H649 0.950 . S
C655 C654 1.327 . S
C655 C659 1.429 . S
C656 C639 1.574 1_545 S
C656 H650 0.949 . S
C656 C660 1.368 . S
C657 C638 1.429 . S
C657 C651 1.429 . S
C657 C658 1.523 . S
C658 C639 1.368 . S
C658 C652 1.368 . S
C658 C657 1.523 . S
C659 C643 1.429 . S
C659 C655 1.429 . S
C659 C660 1.523 . S
C660 C644 1.368 . S
C660 C656 1.368 . S
C660 C659 1.523 . S
H661 C636 0.950 . S
H662 C638 0.950 . S
H663 C639 0.949 . S
H664 C641 0.950 . S
H665 C643 0.950 . S
C127 C19 1.350 . S
C132 C104 1.350 . S
C157 C40 1.350 . S
C162 C125 1.350 . S
C187 C20 1.350 . S
C192 C62 1.350 . S
C217 C82 1.350 . S
C222 C41 1.350 . S
C247 C61 1.350 . S
C252 C103 1.350 . S
C277 C83 1.350 . S
C282 C124 1.350 . S
C307 C121 1.363 . S
C312 C3 1.363 . S
C337 C24 1.363 . S
C342 C16 1.363 . S
C367 C37 1.363 . S
C372 C58 1.363 . S
C397 C45 1.363 . S
C402 C66 1.363 . S
C427 C79 1.363 . S
C432 C87 1.363 . S
C457 C108 1.363 . S
C462 C100 1.363 . S
C487 C46 1.175 . S
C492 C67 1.175 . S
C517 C70 1.175 . S
C522 C88 1.175 . S
C547 C91 1.175 . S
C552 C109 1.175 . S
C577 C112 1.175 . S
C582 C4 1.175 . S
C607 C25 1.175 . S
C612 C7 1.175 . S
C637 C49 1.175 . S
C642 C28 1.175 . S
