# Generated by pormake.
# Topology snk, (6)-cn, num edge types: 1
# Building blocks:
#     Node 0, Type 0, BuildingBlock: INOVEN_clean_sbu_0, # of connection points: 6
#     Node 1, Type 0, BuildingBlock: INOVEN_clean_sbu_0, # of connection points: 6
#     Node 2, Type 0, BuildingBlock: INOVEN_clean_sbu_0, # of connection points: 6
#     Node 3, Type 0, BuildingBlock: INOVEN_clean_sbu_0, # of connection points: 6
#     Node 4, Type 0, BuildingBlock: INOVEN_clean_sbu_0, # of connection points: 6
#     Node 5, Type 0, BuildingBlock: INOVEN_clean_sbu_0, # of connection points: 6
#     Node 6, Type 0, BuildingBlock: INOVEN_clean_sbu_0, # of connection points: 6
#     Node 7, Type 0, BuildingBlock: INOVEN_clean_sbu_0, # of connection points: 6
#     Edge 8, Type (0, 0), BuildingBlock: XIVTED_clean_linker_0, # of connection points: 2
#     Edge 9, Type (0, 0), BuildingBlock: XIVTED_clean_linker_0, # of connection points: 2
#     Edge 10, Type (0, 0), BuildingBlock: XIVTED_clean_linker_0, # of connection points: 2
#     Edge 11, Type (0, 0), BuildingBlock: XIVTED_clean_linker_0, # of connection points: 2
#     Edge 12, Type (0, 0), BuildingBlock: XIVTED_clean_linker_0, # of connection points: 2
#     Edge 13, Type (0, 0), BuildingBlock: XIVTED_clean_linker_0, # of connection points: 2
#     Edge 14, Type (0, 0), BuildingBlock: XIVTED_clean_linker_0, # of connection points: 2
#     Edge 15, Type (0, 0), BuildingBlock: XIVTED_clean_linker_0, # of connection points: 2
#     Edge 16, Type (0, 0), BuildingBlock: XIVTED_clean_linker_0, # of connection points: 2
#     Edge 17, Type (0, 0), BuildingBlock: XIVTED_clean_linker_0, # of connection points: 2
#     Edge 18, Type (0, 0), BuildingBlock: XIVTED_clean_linker_0, # of connection points: 2
#     Edge 19, Type (0, 0), BuildingBlock: XIVTED_clean_linker_0, # of connection points: 2
#     Edge 20, Type (0, 0), BuildingBlock: XIVTED_clean_linker_0, # of connection points: 2
#     Edge 21, Type (0, 0), BuildingBlock: XIVTED_clean_linker_0, # of connection points: 2
#     Edge 22, Type (0, 0), BuildingBlock: XIVTED_clean_linker_0, # of connection points: 2
#     Edge 23, Type (0, 0), BuildingBlock: XIVTED_clean_linker_0, # of connection points: 2
#     Edge 24, Type (0, 0), BuildingBlock: XIVTED_clean_linker_0, # of connection points: 2
#     Edge 25, Type (0, 0), BuildingBlock: XIVTED_clean_linker_0, # of connection points: 2
#     Edge 26, Type (0, 0), BuildingBlock: XIVTED_clean_linker_0, # of connection points: 2
#     Edge 27, Type (0, 0), BuildingBlock: XIVTED_clean_linker_0, # of connection points: 2
#     Edge 28, Type (0, 0), BuildingBlock: XIVTED_clean_linker_0, # of connection points: 2
#     Edge 29, Type (0, 0), BuildingBlock: XIVTED_clean_linker_0, # of connection points: 2
#     Edge 30, Type (0, 0), BuildingBlock: XIVTED_clean_linker_0, # of connection points: 2
#     Edge 31, Type (0, 0), BuildingBlock: XIVTED_clean_linker_0, # of connection points: 2
# Relax obj value: 0.071
# Max RMSD: 0.139
# Mean RMSD: 0.115
data_MOF--net-snk--node1-INOVEN_clean_sbu_0--edge1-XIVTED_clean_linker_0
_symmetry_space_group_name_H-M    P1
_symmetry_Int_Tables_number       1
_symmetry_cell_setting            triclinic
loop_
_symmetry_equiv_pos_as_xyz
'x, y, z'
_cell_length_a     38.095579
_cell_length_b     37.915839
_cell_length_c     25.474336
_cell_angle_alpha  96.264937
_cell_angle_beta   96.318105
_cell_angle_gamma 90.683265
loop_
_atom_site_label
_atom_site_type_symbol
_atom_site_fract_x
_atom_site_fract_y
_atom_site_fract_z
_atom_type_partial_charge
Gd0 Gd 0.98766 0.98966 0.46376 0.0
Gd1 Gd 0.01934 0.0221 0.57451 0.0
C2 C 0.05455 0.04607 0.4765 0.0
C3 C 0.95927 0.97861 0.36589 0.0
C4 C 0.96749 0.98358 0.31206 0.0
C5 C 1.00207 0.991 0.30168 0.0
C6 C 0.94009 0.9808 0.27029 0.0
C7 C 0.98169 0.9922 0.2076 0.0
C8 C 0.94707 0.98505 0.2186 0.0
C9 C 0.00912 0.9953 0.24987 0.0
C10 C 0.03715 0.95058 0.51293 0.0
C11 C 0.95232 0.9658 0.56174 0.0
C12 C 0.04771 0.03324 0.67237 0.0
C13 C 0.03955 0.02817 0.72621 0.0
C14 C 0.00498 0.02076 0.73664 0.0
C15 C 0.06699 0.03088 0.76791 0.0
C16 C 0.02544 0.01943 0.83066 0.0
C17 C 0.06005 0.02657 0.8196 0.0
C18 C 0.99798 0.01639 0.78844 0.0
C19 C 0.96999 0.06121 0.52504 0.0
O20 O 0.02707 0.03065 0.44584 0.0
O21 O 0.06012 0.04258 0.52779 0.0
O22 O 0.9774 0.95489 0.39017 0.0
O23 O 0.95476 0.00747 0.39724 0.0
O24 O 0.00981 0.93701 0.48217 0.0
O25 O 0.0382 0.98386 0.51353 0.0
O26 O 0.97983 0.98119 0.5924 0.0
O27 O 0.94682 0.96922 0.51042 0.0
O28 O 0.02944 0.05687 0.64812 0.0
O29 O 0.05238 1.00442 0.641 0.0
O30 O 0.99735 0.07477 0.55578 0.0
O31 O 0.96888 0.02795 0.52476 0.0
H32 H 0.02357 0.99324 0.33352 0.0
H33 H 0.91319 0.9753 0.27768 0.0
H34 H 0.92522 0.98311 0.18733 0.0
H35 H 0.03612 1.00048 0.24281 0.0
H36 H 0.98345 0.01859 0.70484 0.0
H37 H 0.09388 0.03637 0.76049 0.0
H38 H 0.08193 0.02846 0.85083 0.0
H39 H 0.97098 0.01122 0.79555 0.0
Gd40 Gd 0.26423 0.7362 0.71412 0.0
Gd41 Gd 0.24354 0.77464 0.81914 0.0
C42 C 0.21195 0.80425 0.71301 0.0
C43 C 0.26525 0.70419 0.61893 0.0
C44 C 0.26164 0.71318 0.56378 0.0
C45 C 0.261 0.7486 0.55253 0.0
C46 C 0.25964 0.68587 0.52175 0.0
C47 C 0.25743 0.7292 0.45735 0.0
C48 C 0.25753 0.69375 0.46911 0.0
C49 C 0.25892 0.75654 0.4998 0.0
C50 C 0.30908 0.78852 0.76207 0.0
C51 C 0.29596 0.70675 0.8203 0.0
C52 C 0.24232 0.80655 0.91434 0.0
C53 C 0.2461 0.79757 0.9695 0.0
C54 C 0.24681 0.76215 0.98076 0.0
C55 C 0.24814 0.82487 1.01153 0.0
C56 C 0.25048 0.78156 0.07594 0.0
C57 C 0.25032 0.817 0.06418 0.0
C58 C 0.24898 0.75421 0.0335 0.0
C59 C 0.1987 0.72232 0.77083 0.0
O60 O 0.22197 0.77425 0.68778 0.0
O61 O 0.22256 0.81366 0.76391 0.0
O62 O 0.29357 0.71677 0.6492 0.0
O63 O 0.2368 0.70648 0.64347 0.0
O64 O 0.31921 0.75997 0.73573 0.0
O65 O 0.27595 0.78905 0.75857 0.0
O66 O 0.28594 0.73676 0.84546 0.0
O67 O 0.28528 0.69724 0.76944 0.0
O68 O 0.2141 0.79369 0.88411 0.0
O69 O 0.27076 0.8046 0.88975 0.0
O70 O 0.18853 0.7509 0.79705 0.0
O71 O 0.23184 0.72184 0.77471 0.0
H72 H 0.26253 0.77007 0.58453 0.0
H73 H 0.25993 0.65837 0.52967 0.0
H74 H 0.25578 0.67199 0.43757 0.0
H75 H 0.25923 0.78412 0.49241 0.0
H76 H 0.24526 0.74068 0.94877 0.0
H77 H 0.24779 0.85238 1.0036 0.0
H78 H 0.25209 0.83876 0.09571 0.0
H79 H 0.2487 0.72663 0.0409 0.0
Gd80 Gd 0.52178 0.98827 0.08084 0.0
Gd81 Gd 0.48549 0.01092 0.97564 0.0
C82 C 0.45457 0.04105 0.08155 0.0
C83 C 0.55271 0.98541 0.1761 0.0
C84 C 0.54461 0.99171 0.23146 0.0
C85 C 0.50975 0.99576 0.24363 0.0
C86 C 0.57212 0.99212 0.2728 0.0
C87 C 0.52996 0.99889 0.3384 0.0
C88 C 0.56492 0.99571 0.32574 0.0
C89 C 0.50247 0.99932 0.29666 0.0
C90 C 0.47074 0.94373 0.02868 0.0
C91 C 0.55385 0.95879 0.97533 0.0
C92 C 0.45383 0.01278 0.88064 0.0
C93 C 0.46283 0.00988 0.82567 0.0
C94 C 0.49803 0.0076 0.81451 0.0
C95 C 0.43578 0.01013 0.78379 0.0
C96 C 0.47899 0.00665 0.71966 0.0
C97 C 0.44373 0.00851 0.7313 0.0
C98 C 0.50605 0.00597 0.76194 0.0
C99 C 0.53595 0.05595 0.02757 0.0
O100 O 0.48386 0.03032 0.10749 0.0
O101 O 0.44601 0.03135 0.0302 0.0
O102 O 0.5362 0.95835 0.14716 0.0
O103 O 0.55459 0.0133 0.15038 0.0
O104 O 0.49885 0.93311 0.05533 0.0
O105 O 0.47 0.97703 0.03376 0.0
O106 O 0.52612 0.97169 0.94817 0.0
O107 O 0.5606 0.96552 0.0275 0.0
O108 O 0.46617 0.04107 0.9115 0.0
O109 O 0.45634 0.98384 0.90439 0.0
O110 O 0.50801 0.06618 0.99999 0.0
O111 O 0.53712 0.02261 0.02289 0.0
H112 H 0.48814 0.99549 0.21212 0.0
H113 H 0.59921 0.98916 0.26411 0.0
H114 H 0.58679 0.99595 0.35677 0.0
H115 H 0.47523 1.00142 0.30484 0.0
H116 H 0.51928 0.00744 0.84647 0.0
H117 H 0.40844 0.01174 0.7917 0.0
H118 H 0.42219 0.00846 0.69979 0.0
H119 H 0.53349 1.00489 0.75454 0.0
Gd120 Gd 0.26954 0.27025 0.32054 0.0
Gd121 Gd 0.23567 0.23991 0.21024 0.0
C122 C 0.2119 0.2043 0.30808 0.0
C123 C 0.2822 0.29764 0.41866 0.0
C124 C 0.27725 0.28904 0.47245 0.0
C125 C 0.30324 0.29995 0.5146 0.0
C126 C 0.24686 0.27081 0.48264 0.0
C127 C 0.26828 0.27526 0.57703 0.0
C128 C 0.24243 0.26395 0.53445 0.0
C129 C 0.29884 0.29315 0.56634 0.0
C130 C 0.30684 0.21993 0.26985 0.0
C131 C 0.2934 0.30571 0.22262 0.0
C132 C 0.22273 0.21268 0.11207 0.0
C133 C 0.22786 0.2212 0.05831 0.0
C134 C 0.20189 0.21042 1.01608 0.0
C135 C 0.2584 0.23924 0.04824 0.0
C136 C 0.23714 0.23486 0.9538 0.0
C137 C 0.26298 0.24605 0.99646 0.0
C138 C 0.20644 0.21716 0.96437 0.0
C139 C 0.19856 0.29034 0.26128 0.0
O140 O 0.22815 0.23136 0.33892 0.0
O141 O 0.21466 0.1991 0.25657 0.0
O142 O 0.30509 0.27887 0.39371 0.0
O143 O 0.25372 0.30381 0.38767 0.0
O144 O 0.32114 0.24702 0.30057 0.0
O145 O 0.27375 0.21953 0.26995 0.0
O146 O 0.27721 0.27859 0.19187 0.0
O147 O 0.29055 0.31103 0.2741 0.0
O148 O 0.2001 0.2318 0.13705 0.0
O149 O 0.25107 0.20611 0.14305 0.0
O150 O 0.18412 0.26321 0.23078 0.0
O151 O 0.23159 0.29061 0.26071 0.0
H152 H 0.32693 0.31395 0.50752 0.0
H153 H 0.22638 0.26223 0.45072 0.0
H154 H 0.21842 0.25044 0.54127 0.0
H155 H 0.31955 0.30171 0.59795 0.0
H156 H 0.17809 0.19657 0.02308 0.0
H157 H 0.27887 0.2477 0.08023 0.0
H158 H 0.28709 0.25942 0.98972 0.0
H159 H 0.18575 0.2087 0.9327 0.0
Gd160 Gd 0.76137 0.23603 0.2188 0.0
Gd161 Gd 0.74201 0.2746 0.32427 0.0
C162 C 0.70808 0.30317 0.21855 0.0
C163 C 0.7612 0.20361 0.12363 0.0
C164 C 0.75766 0.2126 0.06845 0.0
C165 C 0.75665 0.24802 0.0572 0.0
C166 C 0.75623 0.18533 0.02642 0.0
C167 C 0.75385 0.2287 0.96205 0.0
C168 C 0.75433 0.19325 0.9738 0.0
C169 C 0.75476 0.256 1.00449 0.0
C170 C 0.80578 0.28956 0.2637 0.0
C171 C 0.7954 0.20752 0.32448 0.0
C172 C 0.74186 0.30689 0.41946 0.0
C173 C 0.74538 0.29786 0.47463 0.0
C174 C 0.7464 0.26243 0.48583 0.0
C175 C 0.74672 0.3251 0.51669 0.0
C176 C 0.74902 0.28168 0.58099 0.0
C177 C 0.74854 0.31714 0.56929 0.0
C178 C 0.74821 0.25441 0.53851 0.0
C179 C 0.69775 0.22095 0.279 0.0
O180 O 0.71789 0.27306 0.19343 0.0
O181 O 0.7196 0.31306 0.26901 0.0
O182 O 0.78991 0.21549 0.15356 0.0
O183 O 0.73295 0.20673 0.14858 0.0
O184 O 0.81598 0.26113 0.2372 0.0
O185 O 0.77271 0.28942 0.2619 0.0
O186 O 0.78556 0.23761 0.34965 0.0
O187 O 0.78386 0.19763 0.27404 0.0
O188 O 0.71326 0.29484 0.38942 0.0
O189 O 0.77018 0.30402 0.39462 0.0
O190 O 0.68735 0.24942 0.30521 0.0
O191 O 0.73081 0.2213 0.28128 0.0
H192 H 0.75777 0.26946 0.08919 0.0
H193 H 0.75684 0.15783 0.03433 0.0
H194 H 0.75303 0.17151 0.94227 0.0
H195 H 0.75478 0.28359 0.99713 0.0
H196 H 0.74533 0.24101 0.45382 0.0
H197 H 0.74609 0.35261 0.50883 0.0
H198 H 0.74977 0.33886 0.60084 0.0
H199 H 0.74819 0.22681 0.54583 0.0
Gd200 Gd 0.77188 0.77001 0.82167 0.0
Gd201 Gd 0.7353 0.74007 0.71306 0.0
C202 C 0.71578 0.70267 0.81116 0.0
C203 C 0.78751 0.79536 0.92036 0.0
C204 C 0.78116 0.78753 0.97412 0.0
C205 C 0.80736 0.79675 1.01667 0.0
C206 C 0.74948 0.77141 0.98385 0.0
C207 C 0.77034 0.77422 0.0785 0.0
C208 C 0.74411 0.76484 0.03555 0.0
C209 C 0.80205 0.7902 0.06825 0.0
C210 C 0.80908 0.723 0.76469 0.0
C211 C 0.79151 0.80733 0.72363 0.0
C212 C 0.71949 0.71476 0.61438 0.0
C213 C 0.72594 0.72248 0.56061 0.0
C214 C 0.69979 0.71317 0.518 0.0
C215 C 0.75763 0.7386 0.55091 0.0
C216 C 0.73688 0.73565 0.45621 0.0
C217 C 0.76306 0.7451 0.49921 0.0
C218 C 0.70516 0.71965 0.46642 0.0
C219 C 0.69811 0.78697 0.77033 0.0
O220 O 0.73191 0.73005 0.84141 0.0
O221 O 0.71717 0.69788 0.75929 0.0
O222 O 0.80758 0.77343 0.8947 0.0
O223 O 0.7605 0.80565 0.8898 0.0
O224 O 0.8232 0.75099 0.79347 0.0
O225 O 0.77655 0.72048 0.76888 0.0
O226 O 0.77541 0.77993 0.69335 0.0
O227 O 0.79001 0.81216 0.77545 0.0
O228 O 0.69963 0.73693 0.64003 0.0
O229 O 0.74639 0.70426 0.64493 0.0
O230 O 0.68401 0.75893 0.74162 0.0
O231 O 0.73059 0.78957 0.76581 0.0
H232 H 0.83195 0.80932 1.01006 0.0
H233 H 0.72888 0.76399 0.95158 0.0
H234 H 0.71954 0.75211 0.04177 0.0
H235 H 0.82263 0.7983 0.10027 0.0
H236 H 0.6752 0.70061 0.52459 0.0
H237 H 0.77818 0.74608 0.58323 0.0
H238 H 0.78763 0.75783 0.49302 0.0
H239 H 0.68462 0.71151 0.43437 0.0
Gd240 Gd 0.48791 0.48925 0.96291 0.0
Gd241 Gd 0.5195 0.52246 0.07335 0.0
C242 C 0.55537 0.54504 0.97506 0.0
C243 C 0.45971 0.47791 0.86503 0.0
C244 C 0.46764 0.48333 0.81115 0.0
C245 C 0.5025 0.4856 0.79858 0.0
C246 C 0.43959 0.48593 0.77142 0.0
C247 C 0.48097 0.49181 0.70622 0.0
C248 C 0.44614 0.49016 0.71954 0.0
C249 C 0.50911 0.48977 0.74654 0.0
C250 C 0.53649 0.44999 1.01347 0.0
C251 C 0.45253 0.46622 0.06127 0.0
C252 C 0.54731 0.53434 0.17138 0.0
C253 C 0.53957 0.52833 0.22514 0.0
C254 C 0.50477 0.52572 0.23787 0.0
C255 C 0.56773 0.52562 0.26464 0.0
C256 C 0.52659 0.51909 0.32998 0.0
C257 C 0.56136 0.52101 0.31648 0.0
C258 C 0.49834 0.52119 0.28987 0.0
C259 C 0.47068 0.56142 0.02242 0.0
O260 O 0.52798 0.52938 0.94445 0.0
O261 O 0.56053 0.54243 0.02664 0.0
O262 O 0.47836 0.4545 0.88924 0.0
O263 O 0.45439 0.50649 0.89649 0.0
O264 O 0.50911 0.43655 0.98264 0.0
O265 O 0.53809 0.48324 1.01338 0.0
O266 O 0.48004 0.48172 0.09175 0.0
O267 O 0.44701 0.46929 1.00985 0.0
O268 O 0.5278 0.55716 0.14719 0.0
O269 O 0.55372 0.50618 0.1398 0.0
O270 O 0.49817 0.57505 0.0528 0.0
O271 O 0.46927 0.52824 0.02305 0.0
H272 H 0.52454 0.48382 0.82883 0.0
H273 H 0.41251 0.48454 0.78051 0.0
H274 H 0.42384 0.49237 0.68991 0.0
H275 H 0.53625 0.49067 0.7377 0.0
H276 H 0.48263 0.52757 0.20781 0.0
H277 H 0.59477 0.52727 0.25544 0.0
H278 H 0.58375 0.51877 0.34594 0.0
H279 H 0.47124 0.52008 0.29884 0.0
Gd280 Gd 0.0222 0.50259 0.55444 0.0
Gd281 Gd 0.98597 0.52489 0.4491 0.0
C282 C 0.95412 0.55507 0.55443 0.0
C283 C 0.0541 0.5012 0.6494 0.0
C284 C 0.04528 0.50425 0.70447 0.0
C285 C 0.01022 0.50754 0.71597 0.0
C286 C 0.07236 0.5031 0.74609 0.0
C287 C 0.02946 0.50792 0.81068 0.0
C288 C 0.06457 0.50492 0.79868 0.0
C289 C 1.00235 0.50934 0.76864 0.0
C290 C 0.97142 0.4576 0.50361 0.0
C291 C 0.05265 0.47146 0.44865 0.0
C292 C 0.95522 0.52767 0.3537 0.0
C293 C 0.96376 0.5215 0.29857 0.0
C294 C 0.99862 0.51607 0.28716 0.0
C295 C 0.93683 0.52268 0.25674 0.0
C296 C 0.9796 0.51446 0.19221 0.0
C297 C 0.94462 0.51916 0.20407 0.0
C298 C 0.00649 0.51262 0.23442 0.0
C299 C 0.03755 0.56915 0.50073 0.0
O300 O 0.98184 0.5422 0.58166 0.0
O301 O 0.94727 0.54806 0.50232 0.0
O302 O 0.04182 0.47277 0.61884 0.0
O303 O 0.05134 0.53003 0.6254 0.0
O304 O 0.9993 0.44746 0.53141 0.0
O305 O 0.97033 0.49095 0.50746 0.0
O306 O 0.02342 0.48229 0.42272 0.0
O307 O 0.0614 0.48146 0.49988 0.0
O308 O 0.97141 0.55483 0.38284 0.0
O309 O 0.95344 0.49973 0.37937 0.0
O310 O 0.00948 0.57995 0.47423 0.0
O311 O 0.03787 0.53585 0.4957 0.0
H312 H 0.98896 0.50853 0.68423 0.0
H313 H 0.09957 0.50043 0.73788 0.0
H314 H 0.08605 0.50324 0.82983 0.0
H315 H 0.97509 0.51209 0.77644 0.0
H316 H 0.01977 0.515 0.31904 0.0
H317 H 0.90979 0.527 0.26487 0.0
H318 H 0.92333 0.52114 0.17273 0.0
H319 H 0.03362 0.50855 0.22671 0.0
H320 H 0.11021 0.088 0.52663 0.0
H321 H 0.16669 0.15141 0.25742 0.0
H322 H 0.05619 0.05369 0.37104 0.0
H323 H 0.20779 0.1996 0.41388 0.0
H324 H 0.12985 0.11137 0.29823 0.0
H325 H 0.14999 0.12509 0.48573 0.0
C326 C 0.10678 0.08809 0.48388 0.0
C327 C 0.07971 0.06771 0.45229 0.0
C328 C 0.14696 0.13069 0.32362 0.0
C329 C 0.12522 0.11014 0.40522 0.0
C330 C 0.1681 0.15352 0.30035 0.0
C331 C 0.19028 0.17908 0.33223 0.0
C332 C 0.14812 0.13324 0.37922 0.0
C333 C 0.19092 0.18054 0.38767 0.0
C334 C 0.12947 0.10937 0.46057 0.0
C335 C 0.07657 0.069 0.39706 0.0
N336 N 0.17016 0.15796 0.40938 0.0
N337 N 0.09903 0.08984 0.37533 0.0
H338 H 0.03843 0.87877 0.51135 0.0
H339 H 0.19881 0.87492 0.73825 0.0
H340 H 0.09702 0.97424 0.57803 0.0
H341 H 0.17012 0.78598 0.61982 0.0
H342 H 0.15727 0.91156 0.68844 0.0
H343 H 0.08215 0.84376 0.55922 0.0
C344 C 0.06048 0.89237 0.53618 0.0
C345 C 0.06394 0.92947 0.54119 0.0
C346 C 0.1603 0.88406 0.67338 0.0
C347 C 0.11384 0.88961 0.5965 0.0
C348 C 0.18385 0.86312 0.70181 0.0
C349 C 0.18797 0.82735 0.68312 0.0
C350 C 0.14025 0.86888 0.62662 0.0
C351 C 0.16796 0.81347 0.6356 0.0
C352 C 0.08544 0.87238 0.56339 0.0
C353 C 0.0931 0.94572 0.57378 0.0
N354 N 0.14478 0.83415 0.60928 0.0
N355 N 0.11683 0.9257 0.60064 0.0
H356 H 0.29343 0.85264 0.8126 0.0
H357 H 0.4795 0.8745 0.99275 0.0
H358 H 0.37813 0.7791 0.79668 0.0
H359 H 0.40694 0.96032 0.97889 0.0
H360 H 0.44007 0.83695 0.9267 0.0
H361 H 0.33245 0.89088 0.8787 0.0
C362 C 0.32032 0.8447 0.82289 0.0
C363 C 0.33271 0.8128 0.79935 0.0
C364 C 0.43275 0.86399 0.9381 0.0
C365 C 0.37719 0.85598 0.87489 0.0
C366 C 0.45512 0.88532 0.97597 0.0
C367 C 0.44637 0.92046 0.99102 0.0
C368 C 0.40127 0.87786 0.91559 0.0
C369 C 0.41459 0.93332 0.96808 0.0
C370 C 0.34253 0.86647 0.86051 0.0
C371 C 0.36767 0.8036 0.81387 0.0
N372 N 0.3931 0.91198 0.93146 0.0
N373 N 0.38866 0.82501 0.85098 0.0
H374 H 0.47185 0.0809 0.17679 0.0
H375 H 0.28158 0.16058 0.20439 0.0
H376 H 0.38512 0.05672 0.05346 0.0
H377 H 0.37823 0.21544 0.27403 0.0
H378 H 0.31659 0.11559 0.15802 0.0
H379 H 0.43502 0.12325 0.22334 0.0
C380 C 0.44495 0.08426 0.15966 0.0
C381 C 0.43156 0.06529 0.11102 0.0
C382 C 0.33001 0.13757 0.18337 0.0
C383 C 0.38925 0.11369 0.16442 0.0
C384 C 0.31011 0.16325 0.20966 0.0
C385 C 0.32707 0.192 0.24244 0.0
C386 C 0.36705 0.14032 0.1911 0.0
C387 C 0.3641 0.1938 0.24889 0.0
C388 C 0.42404 0.1086 0.18616 0.0
C389 C 0.39653 0.07093 0.0907 0.0
N390 N 0.38285 0.16823 0.22366 0.0
N391 N 0.37648 0.09457 0.11763 0.0
H392 H 0.95009 0.95917 0.66734 0.0
H393 H 0.79538 0.81119 0.61748 0.0
H394 H 0.89691 0.92343 0.51171 0.0
H395 H 0.8362 0.86097 0.77316 0.0
H396 H 0.83296 0.85114 0.57776 0.0
H397 H 0.90934 0.92242 0.70657 0.0
C398 C 0.92979 0.94369 0.64134 0.0
C399 C 0.92699 0.94442 0.58604 0.0
C400 C 0.83355 0.85343 0.6206 0.0
C401 C 0.88024 0.90201 0.63089 0.0
C402 C 0.81214 0.83057 0.64336 0.0
C403 C 0.81268 0.8326 0.69882 0.0
C404 C 0.85591 0.87837 0.6535 0.0
C405 C 0.83484 0.85841 0.73025 0.0
C406 C 0.90646 0.92272 0.66385 0.0
C407 C 0.90007 0.92376 0.55451 0.0
N408 N 0.8557 0.88011 0.70716 0.0
N409 N 0.87786 0.90327 0.57736 0.0
H410 H 0.9692 0.13294 0.52582 0.0
H411 H 0.80823 0.13675 0.29971 0.0
H412 H 0.90996 0.03764 0.46017 0.0
H413 H 0.83816 0.22616 0.41672 0.0
H414 H 0.8498 0.10013 0.34947 0.0
H415 H 0.92574 0.16801 0.47761 0.0
C416 C 0.94706 0.11939 0.50114 0.0
C417 C 0.94333 0.08231 0.49653 0.0
C418 C 0.84706 0.12774 0.36422 0.0
C419 C 0.89372 0.12226 0.44084 0.0
C420 C 0.8235 0.14867 0.33579 0.0
C421 C 0.8197 0.18456 0.35411 0.0
C422 C 0.86742 0.14304 0.41061 0.0
C423 C 0.84008 0.19859 0.40122 0.0
C424 C 0.92225 0.13942 0.47373 0.0
C425 C 0.91408 0.06613 0.46412 0.0
N426 N 0.86325 0.1779 0.42755 0.0
N427 N 0.89048 0.08619 0.43708 0.0
H428 H 0.71493 0.15706 0.22938 0.0
H429 H 0.52562 0.12491 0.06191 0.0
H430 H 0.6273 0.22629 0.25006 0.0
H431 H 0.60073 0.04139 0.077 0.0
H432 H 0.56496 0.16446 0.12498 0.0
H433 H 0.67563 0.11581 0.16819 0.0
C434 C 0.68736 0.16342 0.22119 0.0
C435 C 0.6742 0.195 0.24458 0.0
C436 C 0.57285 0.13748 0.1146 0.0
C437 C 0.62941 0.14839 0.17466 0.0
C438 C 0.55053 0.11499 0.07841 0.0
C439 C 0.56008 0.07995 0.06442 0.0
C440 C 0.60515 0.12492 0.13645 0.0
C441 C 0.59249 0.06828 0.08703 0.0
C442 C 0.66499 0.13992 0.18641 0.0
C443 C 0.63839 0.20212 0.23285 0.0
N444 N 0.61402 0.09081 0.1219 0.0
N445 N 0.61725 0.17909 0.19838 0.0
H446 H 0.64261 0.77311 0.82389 0.0
H447 H 0.57537 0.96446 0.87754 0.0
H448 H 0.70922 0.85865 0.79019 0.0
H449 H 0.5855 0.89964 1.00715 0.0
H450 H 0.61326 0.92321 0.82909 0.0
H451 H 0.60928 0.81635 0.87679 0.0
C452 C 0.65006 0.80101 0.82757 0.0
C453 C 0.67853 0.81255 0.80288 0.0
C454 C 0.60724 0.91833 0.86829 0.0
C455 C 0.64026 0.8617 0.86153 0.0
C456 C 0.58566 0.94163 0.89574 0.0
C457 C 0.57764 0.93543 0.94643 0.0
C458 C 0.61962 0.88812 0.891 0.0
C459 C 0.59145 0.90546 0.96835 0.0
C460 C 0.63124 0.82548 0.85776 0.0
C461 C 0.68743 0.84888 0.80892 0.0
N462 N 0.61136 0.88252 0.94012 0.0
N463 N 0.66794 0.87239 0.83704 0.0
H464 H 0.55855 0.54974 0.86912 0.0
H465 H 0.7121 0.69903 0.91735 0.0
H466 H 0.61022 0.5883 0.02461 0.0
H467 H 0.67131 0.64867 0.762 0.0
H468 H 0.6748 0.65911 0.95746 0.0
H469 H 0.59932 0.58617 0.8293 0.0
C470 C 0.57852 0.56579 0.89496 0.0
C471 C 0.58086 0.566 0.95041 0.0
C472 C 0.67414 0.65667 0.91461 0.0
C473 C 0.62764 0.60797 0.90487 0.0
C474 C 0.6954 0.67953 0.89162 0.0
C475 C 0.69477 0.67735 0.83613 0.0
C476 C 0.65186 0.63155 0.88194 0.0
C477 C 0.67271 0.65136 0.80492 0.0
C478 C 0.60186 0.58655 0.87212 0.0
C479 C 0.60741 0.58726 0.98172 0.0
N480 N 0.652 0.62964 0.82824 0.0
N481 N 0.62963 0.60753 0.95854 0.0
H482 H 0.69603 0.37423 0.24227 0.0
H483 H 0.53562 0.37843 1.01524 0.0
H484 H 0.66491 0.28425 0.1269 0.0
H485 H 0.59686 0.47309 0.07791 0.0
H486 H 0.57811 0.3432 0.06497 0.0
H487 H 0.65501 0.41096 0.19166 0.0
C488 C 0.68059 0.36221 0.2064 0.0
C489 C 0.68392 0.32614 0.18873 0.0
C490 C 0.58224 0.3717 0.06789 0.0
C491 C 0.63686 0.36777 0.1313 0.0
C492 C 0.55799 0.39182 0.0396 0.0
C493 C 0.56255 0.42877 0.04293 0.0
C494 C 0.61105 0.38866 0.10038 0.0
C495 C 0.59207 0.44472 0.07499 0.0
C496 C 0.65736 0.38319 0.17749 0.0
C497 C 0.66335 0.31196 0.14188 0.0
N498 N 0.61511 0.4246 0.1029 0.0
N499 N 0.64053 0.33272 0.11507 0.0
H500 H 0.98054 0.38794 0.47252 0.0
H501 H 0.78908 0.35379 0.31309 0.0
H502 H 0.90648 0.47211 0.45439 0.0
H503 H 0.87653 0.28473 0.28985 0.0
H504 H 0.82931 0.39589 0.37138 0.0
H505 H 0.9401 0.34763 0.41248 0.0
C506 C 0.95564 0.39786 0.45598 0.0
C507 C 0.94669 0.43328 0.46828 0.0
C508 C 0.83967 0.37161 0.35322 0.0
C509 C 0.90034 0.38741 0.39976 0.0
C510 C 0.81678 0.34763 0.32013 0.0
C511 C 0.82965 0.31587 0.29679 0.0
C512 C 0.87545 0.36343 0.3634 0.0
C513 C 0.86565 0.30901 0.30704 0.0
C514 C 0.93268 0.37492 0.42152 0.0
C515 C 0.91425 0.44491 0.44567 0.0
N516 N 0.88728 0.3325 0.33991 0.0
N517 N 0.89207 0.42193 0.41256 0.0
H518 H 0.79646 0.65168 0.74243 0.0
H519 H 0.92303 0.61446 0.5225 0.0
H520 H 0.86569 0.73637 0.71295 0.0
H521 H 0.93202 0.5494 0.65183 0.0
H522 H 0.8864 0.65561 0.57313 0.0
H523 H 0.83106 0.60913 0.69014 0.0
C524 C 0.81878 0.66125 0.72462 0.0
C525 C 0.82859 0.69736 0.73211 0.0
C526 C 0.89625 0.63213 0.58999 0.0
C527 C 0.8671 0.64948 0.67167 0.0
C528 C 0.91687 0.60864 0.56122 0.0
C529 C 0.93043 0.57862 0.5832 0.0
C530 C 0.88827 0.6248 0.64015 0.0
C531 C 0.92208 0.57238 0.63373 0.0
C532 C 0.83843 0.63708 0.69517 0.0
C533 C 0.85763 0.70862 0.70836 0.0
N534 N 0.90113 0.59515 0.66043 0.0
N535 N 0.87572 0.68476 0.67858 0.0
H536 H 0.29742 0.31011 0.11678 0.0
H537 H 0.45024 0.46017 0.16707 0.0
H538 H 0.3386 0.35879 0.27291 0.0
H539 H 0.39772 0.42304 1.01154 0.0
H540 H 0.41021 0.42266 0.20652 0.0
H541 H 0.33462 0.35052 0.07751 0.0
C542 C 0.31427 0.32928 0.14287 0.0
C543 C 0.31497 0.33089 0.19831 0.0
C544 C 0.40733 0.42283 0.16378 0.0
C545 C 0.35772 0.37736 0.15346 0.0
C546 C 0.43024 0.44422 0.14115 0.0
C547 C 0.42743 0.44473 0.0858 0.0
C548 C 0.38155 0.40152 0.13088 0.0
C549 C 0.40087 0.42355 0.05437 0.0
C550 C 0.33544 0.35246 0.12036 0.0
C551 C 0.33716 0.35655 0.23 0.0
N552 N 0.3791 0.40268 0.07733 0.0
N553 N 0.35777 0.37864 0.20713 0.0
H554 H 0.47038 0.63304 0.02109 0.0
H555 H 0.30876 0.63588 0.79603 0.0
H556 H 0.41018 0.53764 0.95889 0.0
H557 H 0.33844 0.72557 0.91265 0.0
H558 H 0.35042 0.59947 0.84614 0.0
H559 H 0.42681 0.66781 0.97247 0.0
C560 C 0.44802 0.6194 0.99706 0.0
C561 C 0.44405 0.58238 0.99354 0.0
C562 C 0.34758 0.62709 0.86072 0.0
C563 C 0.39433 0.62196 0.93738 0.0
C564 C 0.32397 0.64789 0.83212 0.0
C565 C 0.32007 0.6838 0.85024 0.0
C566 C 0.36792 0.64256 0.90703 0.0
C567 C 0.3404 0.69797 0.89733 0.0
C568 C 0.42315 0.63925 0.96942 0.0
C569 C 0.41451 0.56609 0.96195 0.0
N570 N 0.36364 0.67742 0.92379 0.0
N571 N 0.39087 0.58596 0.93464 0.0
H572 H 0.21427 0.6582 0.72016 0.0
H573 H 0.02914 0.63834 0.53715 0.0
H574 H 0.13004 0.73239 0.73495 0.0
H575 H 0.10119 0.55206 0.5505 0.0
H576 H 0.06853 0.6754 0.60387 0.0
H577 H 0.1755 0.6205 0.65295 0.0
C578 C 0.18753 0.66638 0.70939 0.0
C579 C 0.17521 0.69832 0.73292 0.0
C580 C 0.07576 0.64837 0.59221 0.0
C581 C 0.13101 0.65577 0.65614 0.0
C582 C 0.05341 0.62733 0.55394 0.0
C583 C 0.06201 0.59218 0.53859 0.0
C584 C 0.10706 0.63422 0.61483 0.0
C585 C 0.09366 0.57907 0.56156 0.0
C586 C 0.16546 0.64494 0.67112 0.0
C587 C 0.14045 0.70785 0.71778 0.0
N588 N 0.11512 0.60013 0.59861 0.0
N589 N 0.1196 0.68675 0.68008 0.0
H590 H 0.22431 0.34982 0.32591 0.0
H591 H 0.03483 0.43114 0.35396 0.0
H592 H 0.12721 0.2952 0.25777 0.0
H593 H 0.122 0.45533 0.47655 0.0
H594 H 0.07118 0.38814 0.3077 0.0
H595 H 0.18973 0.3953 0.37207 0.0
C596 C 0.19577 0.34731 0.32093 0.0
C597 C 0.17856 0.31849 0.28863 0.0
C598 C 0.08236 0.40293 0.34466 0.0
C599 C 0.13907 0.37072 0.33974 0.0
C600 C 0.06172 0.42764 0.37099 0.0
C601 C 0.07537 0.44681 0.41934 0.0
C602 C 0.11713 0.39768 0.36626 0.0
C603 C 0.11038 0.44097 0.43953 0.0
C604 C 0.17612 0.37326 0.3471 0.0
C605 C 0.14152 0.31688 0.28255 0.0
N606 N 0.13017 0.41698 0.41276 0.0
N607 N 0.12301 0.34272 0.30764 0.0
H608 H 0.98022 0.97169 0.86437 0.0
H609 H 0.02692 0.03992 0.17389 0.0
H610 H 0.05418 0.05777 0.92352 0.0
H611 H 0.95303 0.95379 0.11475 0.0
H612 H 0.03765 0.04652 0.08255 0.0
H613 H 0.96953 0.96505 0.95572 0.0
C614 C 0.99407 0.98935 0.89648 0.0
C615 C 0.01821 0.0153 0.88604 0.0
C616 C 0.01908 0.02618 0.08955 0.0
C617 C 0.00636 0.00756 0.99106 0.0
C618 C 0.0131 0.02223 0.14179 0.0
C619 C 0.98896 0.99629 0.15222 0.0
C620 C 1.00085 1.00399 0.04721 0.0
C621 C 0.97147 0.97451 0.10874 0.0
C622 C 0.98811 0.9854 0.94872 0.0
C623 C 0.03573 0.03705 0.92953 0.0
N624 N 0.97776 0.97885 0.05829 0.0
N625 N 0.02947 0.03269 0.97998 0.0
H626 H 0.22117 0.7819 0.40984 0.0
H627 H 0.28678 0.72887 0.12345 0.0
H628 H 0.2909 0.69543 0.37629 0.0
H629 H 0.21702 0.81531 0.15702 0.0
H630 H 0.2883 0.71597 0.21564 0.0
H631 H 0.21968 0.7948 0.31766 0.0
C632 C 0.23633 0.76571 0.38326 0.0
C633 C 0.25616 0.73746 0.40115 0.0
C634 C 0.27267 0.73779 0.20286 0.0
C635 C 0.25425 0.75192 0.29495 0.0
C636 C 0.27162 0.74505 0.15003 0.0
C637 C 0.25177 0.77329 0.13215 0.0
C638 C 0.25371 0.75883 0.23835 0.0
C639 C 0.23313 0.79362 0.16896 0.0
C640 C 0.23529 0.77298 0.33044 0.0
C641 C 0.27481 0.71713 0.36435 0.0
N642 N 0.23454 0.78599 0.22011 0.0
N643 N 0.27341 0.72476 0.31319 0.0
H644 H 0.5288 0.96722 0.67076 0.0
H645 H 0.48131 0.03983 0.38782 0.0
H646 H 0.44828 0.04391 0.64067 0.0
H647 H 0.56093 0.96223 0.41781 0.0
H648 H 0.46897 0.04193 0.4803 0.0
H649 H 0.54165 0.96587 0.57865 0.0
C650 C 0.51394 0.98394 0.64494 0.0
C651 C 0.48735 1.00566 0.66369 0.0
C652 C 0.48919 0.02448 0.46666 0.0
C653 C 0.50171 1.00397 0.55769 0.0
C654 C 0.49612 0.02312 0.41371 0.0
C655 C 0.52227 1.00086 0.3948 0.0
C656 C 0.50847 1.00339 0.50115 0.0
C657 C 0.54092 0.98021 0.43063 0.0
C658 C 0.52116 0.983 0.59218 0.0
C659 C 0.46865 0.02635 0.62794 0.0
N660 N 0.53364 0.98195 0.48191 0.0
N661 N 0.47618 0.02498 0.5768 0.0
H662 H 0.26503 0.29428 0.9192 0.0
H663 H 0.24072 0.21572 0.61171 0.0
H664 H 0.22089 0.18999 0.86195 0.0
H665 H 0.28452 0.32016 0.66888 0.0
H666 H 0.23298 0.20591 0.70304 0.0
H667 H 0.27288 0.30405 0.82789 0.0
C668 C 0.25715 0.27334 0.88751 0.0
C669 C 0.24221 0.24126 0.89843 0.0
C670 C 0.24431 0.23098 0.69562 0.0
C671 C 0.25082 0.25244 0.79349 0.0
C672 C 0.24855 0.23668 0.64338 0.0
C673 C 0.26335 0.26882 0.63243 0.0
C674 C 0.25488 0.2576 0.7374 0.0
C675 C 0.27348 0.29477 0.67536 0.0
C676 C 0.26146 0.27903 0.83529 0.0
C677 C 0.23204 0.21533 0.85548 0.0
N678 N 0.26904 0.2886 0.72583 0.0
N679 N 0.23654 0.22148 0.80503 0.0
H680 H 0.71729 0.28104 0.914 0.0
H681 H 0.78554 0.22931 0.62904 0.0
H682 H 0.78822 0.19545 0.88155 0.0
H683 H 0.71455 0.31486 0.66144 0.0
H684 H 0.7865 0.21625 0.72109 0.0
H685 H 0.71626 0.29407 0.82192 0.0
C686 C 0.73281 0.26507 0.88769 0.0
C687 C 0.75284 0.23703 0.90587 0.0
C688 C 0.77073 0.23791 0.70808 0.0
C689 C 0.75148 0.25164 0.79976 0.0
C690 C 0.76999 0.24527 0.65533 0.0
C691 C 0.74997 0.27331 0.63715 0.0
C692 C 0.75126 0.25866 0.74322 0.0
C693 C 0.73081 0.29333 0.6736 0.0
C694 C 0.73204 0.27241 0.83492 0.0
C695 C 0.77196 0.21698 0.86939 0.0
N696 N 0.73193 0.28562 0.7247 0.0
N697 N 0.77081 0.22468 0.81828 0.0
H698 H 0.79766 0.72758 0.40722 0.0
H699 H 0.70959 0.78231 0.12756 0.0
H700 H 0.68905 0.75813 0.37851 0.0
H701 H 0.81819 0.75171 0.15617 0.0
H702 H 0.70142 0.77306 0.21897 0.0
H703 H 0.80585 0.73683 0.3158 0.0
C704 C 0.77558 0.73649 0.38191 0.0
C705 C 0.74258 0.74201 0.40086 0.0
C706 C 0.72705 0.76834 0.20526 0.0
C707 C 0.7517 0.75226 0.29549 0.0
C708 C 0.73168 0.77339 0.15284 0.0
C709 C 0.76466 0.76785 0.13386 0.0
C710 C 0.75557 0.7576 0.23924 0.0
C711 C 0.79241 0.75683 0.16906 0.0
C712 C 0.78022 0.74153 0.32949 0.0
C713 C 0.71484 0.75301 0.36565 0.0
N714 N 0.78724 0.75209 0.21987 0.0
N715 N 0.72002 0.75775 0.31484 0.0
H716 H 0.44455 0.45993 0.61381 0.0
H717 H 0.56316 0.55077 0.42241 0.0
H718 H 0.5328 0.53154 0.67098 0.0
H719 H 0.47501 0.47904 0.36522 0.0
H720 H 0.55267 0.54375 0.51352 0.0
H721 H 0.45518 0.46677 0.52269 0.0
C722 C 0.46607 0.47727 0.6073 0.0
C723 C 0.4877 0.49531 0.65041 0.0
C724 C 0.53559 0.52954 0.48108 0.0
C725 C 0.50033 0.50289 0.54566 0.0
C726 C 0.5417 0.53335 0.42891 0.0
C727 C 0.52003 0.51536 0.3858 0.0
C728 C 0.50756 0.50758 0.49055 0.0
C729 C 0.49219 0.49375 0.39701 0.0
C730 C 0.47225 0.48099 0.55513 0.0
C731 C 0.51563 0.51682 0.6392 0.0
N732 N 0.48681 0.49043 0.4482 0.0
N733 N 0.52107 0.52005 0.58801 0.0
H734 H 0.97398 0.47556 0.84881 0.0
H735 H 0.036 0.54498 0.15409 0.0
H736 H 0.06634 0.54268 0.90072 0.0
H737 H 0.94217 0.48001 0.10232 0.0
H738 H 0.0482 0.54331 0.0617 0.0
H739 H 0.96192 0.47672 0.94126 0.0
C740 C 0.9916 0.49078 0.87954 0.0
C741 C 0.02127 0.50904 0.86675 0.0
C742 C 0.02496 0.52936 0.07051 0.0
C743 C 0.00782 0.51008 0.97308 0.0
C744 C 0.01811 0.53007 0.12339 0.0
C745 C 0.98799 0.5126 0.13619 0.0
C746 C 1.00159 0.51098 0.02988 0.0
C747 C 0.96546 0.49425 0.0944 0.0
C748 C 0.98482 0.49122 0.93243 0.0
C749 C 0.04344 0.52779 0.90858 0.0
N750 N 0.97271 0.49392 0.04324 0.0
N751 N 0.03627 0.52781 0.95972 0.0
loop_
_geom_bond_atom_site_label_1
_geom_bond_atom_site_label_2
_geom_bond_distance
_geom_bond_site_symmetry_2
_ccdc_geom_bond_type
Gd0 C3 2.818 1_655 S
Gd0 O20 2.377 1_665 S
Gd0 O22 2.448 1_655 S
Gd0 O23 2.506 . S
Gd0 O24 2.435 1_655 S
Gd0 O25 2.717 1_655 S
Gd0 O27 2.395 . S
Gd0 O31 2.327 1_565 S
Gd1 C12 2.818 1_455 S
Gd1 O21 2.395 . S
Gd1 O25 2.327 1_545 S
Gd1 O26 2.377 1_445 S
Gd1 O28 2.448 1_455 S
Gd1 O29 2.506 . S
Gd1 O30 2.435 1_455 S
Gd1 O31 2.717 1_455 S
C2 O20 1.240 . S
C2 O21 1.240 . S
C3 Gd0 2.818 1_455 S
C3 C4 1.510 . S
C3 O22 1.249 . S
C3 O23 1.252 1_455 S
C4 C3 1.510 . S
C4 C5 1.404 . S
C4 C6 1.352 1_565 S
C5 C4 1.404 . S
C5 C9 1.389 . S
C5 H32 0.930 . S
C6 C4 1.352 1_545 S
C6 C8 1.374 . S
C6 H33 0.931 1_455 S
C7 C8 1.359 1_565 S
C7 C9 1.364 . S
C8 C6 1.374 . S
C8 C7 1.359 1_545 S
C8 H34 0.937 . S
C9 C5 1.389 . S
C9 C7 1.364 . S
C9 H35 0.931 . S
C10 O24 1.256 . S
C10 O25 1.257 . S
C11 O26 1.240 . S
C11 O27 1.240 . S
C12 Gd1 2.818 1_655 S
C12 C13 1.510 . S
C12 O28 1.249 . S
C12 O29 1.252 1_655 S
C13 C12 1.510 . S
C13 C14 1.404 . S
C13 C15 1.352 1_545 S
C14 C13 1.404 . S
C14 C18 1.389 . S
C14 H36 0.930 . S
C15 C13 1.352 1_565 S
C15 C17 1.374 . S
C15 H37 0.931 1_655 S
C16 C17 1.359 1_545 S
C16 C18 1.364 . S
C17 C15 1.374 . S
C17 C16 1.359 1_565 S
C17 H38 0.935 . S
C18 C14 1.389 . S
C18 C16 1.364 . S
C18 H39 0.931 . S
C19 O30 1.256 . S
C19 O31 1.257 . S
O20 Gd0 2.377 1_445 S
O20 C2 1.240 . S
O21 Gd1 2.395 . S
O21 C2 1.240 . S
O22 Gd0 2.448 1_455 S
O22 C3 1.249 . S
O23 Gd0 2.506 . S
O23 C3 1.252 1_655 S
O24 Gd0 2.435 1_455 S
O24 C10 1.256 . S
O25 Gd0 2.717 1_455 S
O25 Gd1 2.327 1_565 S
O25 C10 1.257 . S
O26 Gd1 2.377 1_665 S
O26 C11 1.240 . S
O27 Gd0 2.395 . S
O27 C11 1.240 . S
O28 Gd1 2.448 1_655 S
O28 C12 1.249 . S
O29 Gd1 2.506 . S
O29 C12 1.252 1_455 S
O30 Gd1 2.435 1_655 S
O30 C19 1.256 . S
O31 Gd0 2.327 1_545 S
O31 Gd1 2.717 1_655 S
O31 C19 1.257 . S
H32 C5 0.930 . S
H33 C6 0.931 1_655 S
H34 C8 0.937 . S
H35 C9 0.931 . S
H36 C14 0.930 . S
H37 C15 0.931 1_455 S
H38 C17 0.935 . S
H39 C18 0.931 . S
Gd40 C43 2.818 . S
Gd40 O60 2.377 . S
Gd40 O62 2.448 . S
Gd40 O63 2.506 . S
Gd40 O64 2.435 . S
Gd40 O65 2.717 . S
Gd40 O67 2.395 . S
Gd40 O71 2.327 . S
Gd41 C52 2.818 . S
Gd41 O61 2.395 . S
Gd41 O65 2.327 . S
Gd41 O66 2.377 . S
Gd41 O68 2.448 . S
Gd41 O69 2.506 . S
Gd41 O70 2.435 . S
Gd41 O71 2.717 . S
C42 O60 1.240 . S
C42 O61 1.240 . S
C43 Gd40 2.818 . S
C43 C44 1.510 . S
C43 O62 1.249 . S
C43 O63 1.252 . S
C44 C43 1.510 . S
C44 C45 1.404 . S
C44 C46 1.352 . S
C45 C44 1.404 . S
C45 C49 1.389 . S
C45 H72 0.930 . S
C46 C44 1.352 . S
C46 C48 1.374 . S
C46 H73 0.931 . S
C47 C48 1.359 . S
C47 C49 1.364 . S
C48 C46 1.374 . S
C48 C47 1.359 . S
C48 H74 0.931 . S
C49 C45 1.389 . S
C49 C47 1.364 . S
C49 H75 0.931 . S
C50 O64 1.256 . S
C50 O65 1.257 . S
C51 O66 1.240 . S
C51 O67 1.240 . S
C52 Gd41 2.818 . S
C52 C53 1.510 . S
C52 O68 1.249 . S
C52 O69 1.252 . S
C53 C52 1.510 . S
C53 C54 1.404 . S
C53 C55 1.352 . S
C54 C53 1.404 . S
C54 C58 1.389 1_556 S
C54 H76 0.930 . S
C55 C53 1.352 . S
C55 C57 1.374 1_556 S
C55 H77 0.931 . S
C56 C57 1.359 . S
C56 C58 1.364 . S
C57 C55 1.374 1_554 S
C57 C56 1.359 . S
C57 H78 0.931 . S
C58 C54 1.389 1_554 S
C58 C56 1.364 . S
C58 H79 0.931 . S
C59 O70 1.256 . S
C59 O71 1.257 . S
O60 Gd40 2.377 . S
O60 C42 1.240 . S
O61 Gd41 2.395 . S
O61 C42 1.240 . S
O62 Gd40 2.448 . S
O62 C43 1.249 . S
O63 Gd40 2.506 . S
O63 C43 1.252 . S
O64 Gd40 2.435 . S
O64 C50 1.256 . S
O65 Gd40 2.717 . S
O65 Gd41 2.327 . S
O65 C50 1.257 . S
O66 Gd41 2.377 . S
O66 C51 1.240 . S
O67 Gd40 2.395 . S
O67 C51 1.240 . S
O68 Gd41 2.448 . S
O68 C52 1.249 . S
O69 Gd41 2.506 . S
O69 C52 1.252 . S
O70 Gd41 2.435 . S
O70 C59 1.256 . S
O71 Gd40 2.327 . S
O71 Gd41 2.717 . S
O71 C59 1.257 . S
H72 C45 0.930 . S
H73 C46 0.931 . S
H74 C48 0.931 . S
H75 C49 0.931 . S
H76 C54 0.930 . S
H77 C55 0.931 . S
H78 C57 0.931 . S
H79 C58 0.931 . S
Gd80 C83 2.818 . S
Gd80 O100 2.377 1_565 S
Gd80 O102 2.448 . S
Gd80 O103 2.506 1_565 S
Gd80 O104 2.435 . S
Gd80 O105 2.717 1_554 S
Gd80 O107 2.395 1_554 S
Gd80 O111 2.327 1_565 S
Gd81 C92 2.818 . S
Gd81 O101 2.395 1_556 S
Gd81 O105 2.327 1_545 S
Gd81 O106 2.377 1_545 S
Gd81 O108 2.448 . S
Gd81 O109 2.506 1_545 S
Gd81 O110 2.435 . S
Gd81 O111 2.717 1_556 S
C82 O100 1.240 . S
C82 O101 1.240 . S
C83 Gd80 2.818 . S
C83 C84 1.510 . S
C83 O102 1.249 . S
C83 O103 1.252 1_565 S
C84 C83 1.510 . S
C84 C85 1.404 . S
C84 C86 1.352 1_565 S
C85 C84 1.404 . S
C85 C89 1.389 . S
C85 H112 0.930 . S
C86 C84 1.352 1_545 S
C86 C88 1.374 . S
C86 H113 0.931 . S
C87 C88 1.359 . S
C87 C89 1.364 1_545 S
C88 C86 1.374 . S
C88 C87 1.359 . S
C88 H114 0.931 . S
C89 C85 1.389 . S
C89 C87 1.364 1_565 S
C89 H115 0.931 . S
C90 O104 1.256 1_556 S
C90 O105 1.257 . S
C91 O106 1.240 . S
C91 O107 1.240 . S
C92 Gd81 2.818 . S
C92 C93 1.510 . S
C92 O108 1.249 . S
C92 O109 1.252 1_545 S
C93 C92 1.510 . S
C93 C94 1.404 . S
C93 C95 1.352 1_545 S
C94 C93 1.404 . S
C94 C98 1.389 . S
C94 H116 0.930 . S
C95 C93 1.352 1_565 S
C95 C97 1.374 . S
C95 H117 0.931 . S
C96 C97 1.359 . S
C96 C98 1.364 1_565 S
C97 C95 1.374 . S
C97 C96 1.359 . S
C97 H118 0.931 . S
C98 C94 1.389 . S
C98 C96 1.364 1_545 S
C98 H119 0.931 . S
C99 O110 1.256 1_554 S
C99 O111 1.257 . S
O100 Gd80 2.377 1_545 S
O100 C82 1.240 . S
O101 Gd81 2.395 1_554 S
O101 C82 1.240 . S
O102 Gd80 2.448 . S
O102 C83 1.249 . S
O103 Gd80 2.506 1_545 S
O103 C83 1.252 1_545 S
O104 Gd80 2.435 . S
O104 C90 1.256 1_554 S
O105 Gd80 2.717 1_556 S
O105 Gd81 2.327 1_565 S
O105 C90 1.257 . S
O106 Gd81 2.377 1_565 S
O106 C91 1.240 . S
O107 Gd80 2.395 1_556 S
O107 C91 1.240 . S
O108 Gd81 2.448 . S
O108 C92 1.249 . S
O109 Gd81 2.506 1_565 S
O109 C92 1.252 1_565 S
O110 Gd81 2.435 . S
O110 C99 1.256 1_556 S
O111 Gd80 2.327 1_545 S
O111 Gd81 2.717 1_554 S
O111 C99 1.257 . S
H112 C85 0.930 . S
H113 C86 0.931 . S
H114 C88 0.931 . S
H115 C89 0.931 . S
H116 C94 0.930 . S
H117 C95 0.931 . S
H118 C97 0.931 . S
H119 C98 0.931 . S
Gd120 C123 2.818 . S
Gd120 O140 2.377 . S
Gd120 O142 2.448 . S
Gd120 O143 2.506 . S
Gd120 O144 2.435 . S
Gd120 O145 2.717 . S
Gd120 O147 2.395 . S
Gd120 O151 2.327 . S
Gd121 C132 2.818 . S
Gd121 O141 2.395 . S
Gd121 O145 2.327 . S
Gd121 O146 2.377 . S
Gd121 O148 2.448 . S
Gd121 O149 2.506 . S
Gd121 O150 2.435 . S
Gd121 O151 2.717 . S
C122 O140 1.240 . S
C122 O141 1.240 . S
C123 Gd120 2.818 . S
C123 C124 1.510 . S
C123 O142 1.249 . S
C123 O143 1.252 . S
C124 C123 1.510 . S
C124 C125 1.404 . S
C124 C126 1.352 . S
C125 C124 1.404 . S
C125 C129 1.389 . S
C125 H152 0.930 . S
C126 C124 1.352 . S
C126 C128 1.374 . S
C126 H153 0.931 . S
C127 C128 1.359 . S
C127 C129 1.364 . S
C128 C126 1.374 . S
C128 C127 1.359 . S
C128 H154 0.931 . S
C129 C125 1.389 . S
C129 C127 1.364 . S
C129 H155 0.931 . S
C130 O144 1.256 . S
C130 O145 1.257 . S
C131 O146 1.240 . S
C131 O147 1.240 . S
C132 Gd121 2.818 . S
C132 C133 1.510 . S
C132 O148 1.249 . S
C132 O149 1.252 . S
C133 C132 1.510 . S
C133 C134 1.404 . S
C133 C135 1.352 . S
C134 C133 1.404 . S
C134 C138 1.389 1_554 S
C134 H156 0.930 . S
C135 C133 1.352 . S
C135 C137 1.374 1_554 S
C135 H157 0.931 . S
C136 C137 1.359 . S
C136 C138 1.364 . S
C137 C135 1.374 1_556 S
C137 C136 1.359 . S
C137 H158 0.931 . S
C138 C134 1.389 1_556 S
C138 C136 1.364 . S
C138 H159 0.931 . S
C139 O150 1.256 . S
C139 O151 1.257 . S
O140 Gd120 2.377 . S
O140 C122 1.240 . S
O141 Gd121 2.395 . S
O141 C122 1.240 . S
O142 Gd120 2.448 . S
O142 C123 1.249 . S
O143 Gd120 2.506 . S
O143 C123 1.252 . S
O144 Gd120 2.435 . S
O144 C130 1.256 . S
O145 Gd120 2.717 . S
O145 Gd121 2.327 . S
O145 C130 1.257 . S
O146 Gd121 2.377 . S
O146 C131 1.240 . S
O147 Gd120 2.395 . S
O147 C131 1.240 . S
O148 Gd121 2.448 . S
O148 C132 1.249 . S
O149 Gd121 2.506 . S
O149 C132 1.252 . S
O150 Gd121 2.435 . S
O150 C139 1.256 . S
O151 Gd120 2.327 . S
O151 Gd121 2.717 . S
O151 C139 1.257 . S
H152 C125 0.930 . S
H153 C126 0.931 . S
H154 C128 0.931 . S
H155 C129 0.931 . S
H156 C134 0.930 . S
H157 C135 0.931 . S
H158 C137 0.931 . S
H159 C138 0.931 . S
Gd160 C163 2.818 . S
Gd160 O180 2.377 . S
Gd160 O182 2.448 . S
Gd160 O183 2.506 . S
Gd160 O184 2.435 . S
Gd160 O185 2.717 . S
Gd160 O187 2.395 . S
Gd160 O191 2.327 . S
Gd161 C172 2.818 . S
Gd161 O181 2.395 . S
Gd161 O185 2.327 . S
Gd161 O186 2.377 . S
Gd161 O188 2.448 . S
Gd161 O189 2.506 . S
Gd161 O190 2.435 . S
Gd161 O191 2.717 . S
C162 O180 1.240 . S
C162 O181 1.240 . S
C163 Gd160 2.818 . S
C163 C164 1.510 . S
C163 O182 1.249 . S
C163 O183 1.252 . S
C164 C163 1.510 . S
C164 C165 1.404 . S
C164 C166 1.352 . S
C165 C164 1.404 . S
C165 C169 1.389 1_554 S
C165 H192 0.930 . S
C166 C164 1.352 . S
C166 C168 1.374 1_554 S
C166 H193 0.931 . S
C167 C168 1.359 . S
C167 C169 1.364 . S
C168 C166 1.374 1_556 S
C168 C167 1.359 . S
C168 H194 0.931 . S
C169 C165 1.389 1_556 S
C169 C167 1.364 . S
C169 H195 0.931 . S
C170 O184 1.256 . S
C170 O185 1.257 . S
C171 O186 1.240 . S
C171 O187 1.240 . S
C172 Gd161 2.818 . S
C172 C173 1.510 . S
C172 O188 1.249 . S
C172 O189 1.252 . S
C173 C172 1.510 . S
C173 C174 1.404 . S
C173 C175 1.352 . S
C174 C173 1.404 . S
C174 C178 1.389 . S
C174 H196 0.930 . S
C175 C173 1.352 . S
C175 C177 1.374 . S
C175 H197 0.931 . S
C176 C177 1.359 . S
C176 C178 1.364 . S
C177 C175 1.374 . S
C177 C176 1.359 . S
C177 H198 0.931 . S
C178 C174 1.389 . S
C178 C176 1.364 . S
C178 H199 0.931 . S
C179 O190 1.256 . S
C179 O191 1.257 . S
O180 Gd160 2.377 . S
O180 C162 1.240 . S
O181 Gd161 2.395 . S
O181 C162 1.240 . S
O182 Gd160 2.448 . S
O182 C163 1.249 . S
O183 Gd160 2.506 . S
O183 C163 1.252 . S
O184 Gd160 2.435 . S
O184 C170 1.256 . S
O185 Gd160 2.717 . S
O185 Gd161 2.327 . S
O185 C170 1.257 . S
O186 Gd161 2.377 . S
O186 C171 1.240 . S
O187 Gd160 2.395 . S
O187 C171 1.240 . S
O188 Gd161 2.448 . S
O188 C172 1.249 . S
O189 Gd161 2.506 . S
O189 C172 1.252 . S
O190 Gd161 2.435 . S
O190 C179 1.256 . S
O191 Gd160 2.327 . S
O191 Gd161 2.717 . S
O191 C179 1.257 . S
H192 C165 0.930 . S
H193 C166 0.931 . S
H194 C168 0.931 . S
H195 C169 0.931 . S
H196 C174 0.930 . S
H197 C175 0.931 . S
H198 C177 0.931 . S
H199 C178 0.931 . S
Gd200 C203 2.818 . S
Gd200 O220 2.377 . S
Gd200 O222 2.448 . S
Gd200 O223 2.506 . S
Gd200 O224 2.435 . S
Gd200 O225 2.717 . S
Gd200 O227 2.395 . S
Gd200 O231 2.327 . S
Gd201 C212 2.818 . S
Gd201 O221 2.395 . S
Gd201 O225 2.327 . S
Gd201 O226 2.377 . S
Gd201 O228 2.448 . S
Gd201 O229 2.506 . S
Gd201 O230 2.435 . S
Gd201 O231 2.717 . S
C202 O220 1.240 . S
C202 O221 1.240 . S
C203 Gd200 2.818 . S
C203 C204 1.510 . S
C203 O222 1.249 . S
C203 O223 1.252 . S
C204 C203 1.510 . S
C204 C205 1.404 . S
C204 C206 1.352 . S
C205 C204 1.404 . S
C205 C209 1.389 1_556 S
C205 H232 0.930 . S
C206 C204 1.352 . S
C206 C208 1.374 1_556 S
C206 H233 0.931 . S
C207 C208 1.359 . S
C207 C209 1.364 . S
C208 C206 1.374 1_554 S
C208 C207 1.359 . S
C208 H234 0.931 . S
C209 C205 1.389 1_554 S
C209 C207 1.364 . S
C209 H235 0.931 . S
C210 O224 1.256 . S
C210 O225 1.257 . S
C211 O226 1.240 . S
C211 O227 1.240 . S
C212 Gd201 2.818 . S
C212 C213 1.510 . S
C212 O228 1.249 . S
C212 O229 1.252 . S
C213 C212 1.510 . S
C213 C214 1.404 . S
C213 C215 1.352 . S
C214 C213 1.404 . S
C214 C218 1.389 . S
C214 H236 0.930 . S
C215 C213 1.352 . S
C215 C217 1.374 . S
C215 H237 0.931 . S
C216 C217 1.359 . S
C216 C218 1.364 . S
C217 C215 1.374 . S
C217 C216 1.359 . S
C217 H238 0.931 . S
C218 C214 1.389 . S
C218 C216 1.364 . S
C218 H239 0.931 . S
C219 O230 1.256 . S
C219 O231 1.257 . S
O220 Gd200 2.377 . S
O220 C202 1.240 . S
O221 Gd201 2.395 . S
O221 C202 1.240 . S
O222 Gd200 2.448 . S
O222 C203 1.249 . S
O223 Gd200 2.506 . S
O223 C203 1.252 . S
O224 Gd200 2.435 . S
O224 C210 1.256 . S
O225 Gd200 2.717 . S
O225 Gd201 2.327 . S
O225 C210 1.257 . S
O226 Gd201 2.377 . S
O226 C211 1.240 . S
O227 Gd200 2.395 . S
O227 C211 1.240 . S
O228 Gd201 2.448 . S
O228 C212 1.249 . S
O229 Gd201 2.506 . S
O229 C212 1.252 . S
O230 Gd201 2.435 . S
O230 C219 1.256 . S
O231 Gd200 2.327 . S
O231 Gd201 2.717 . S
O231 C219 1.257 . S
H232 C205 0.930 . S
H233 C206 0.931 . S
H234 C208 0.931 . S
H235 C209 0.931 . S
H236 C214 0.930 . S
H237 C215 0.931 . S
H238 C217 0.931 . S
H239 C218 0.931 . S
Gd240 C243 2.818 . S
Gd240 O260 2.377 . S
Gd240 O262 2.448 . S
Gd240 O263 2.506 . S
Gd240 O264 2.435 . S
Gd240 O265 2.717 1_556 S
Gd240 O267 2.395 . S
Gd240 O271 2.327 . S
Gd241 C252 2.818 . S
Gd241 O261 2.395 . S
Gd241 O265 2.327 . S
Gd241 O266 2.377 . S
Gd241 O268 2.448 . S
Gd241 O269 2.506 . S
Gd241 O270 2.435 . S
Gd241 O271 2.717 1_554 S
C242 O260 1.240 . S
C242 O261 1.240 1_556 S
C243 Gd240 2.818 . S
C243 C244 1.510 . S
C243 O262 1.249 . S
C243 O263 1.252 . S
C244 C243 1.510 . S
C244 C245 1.404 . S
C244 C246 1.352 . S
C245 C244 1.404 . S
C245 C249 1.389 . S
C245 H272 0.930 . S
C246 C244 1.352 . S
C246 C248 1.374 . S
C246 H273 0.931 . S
C247 C248 1.359 . S
C247 C249 1.364 . S
C248 C246 1.374 . S
C248 C247 1.359 . S
C248 H274 0.931 . S
C249 C245 1.389 . S
C249 C247 1.364 . S
C249 H275 0.931 . S
C250 O264 1.256 1_554 S
C250 O265 1.257 . S
C251 O266 1.240 . S
C251 O267 1.240 1_554 S
C252 Gd241 2.818 . S
C252 C253 1.510 . S
C252 O268 1.249 . S
C252 O269 1.252 . S
C253 C252 1.510 . S
C253 C254 1.404 . S
C253 C255 1.352 . S
C254 C253 1.404 . S
C254 C258 1.389 . S
C254 H276 0.930 . S
C255 C253 1.352 . S
C255 C257 1.374 . S
C255 H277 0.931 . S
C256 C257 1.359 . S
C256 C258 1.364 . S
C257 C255 1.374 . S
C257 C256 1.359 . S
C257 H278 0.931 . S
C258 C254 1.389 . S
C258 C256 1.364 . S
C258 H279 0.931 . S
C259 O270 1.256 1_556 S
C259 O271 1.257 . S
O260 Gd240 2.377 . S
O260 C242 1.240 . S
O261 Gd241 2.395 . S
O261 C242 1.240 1_554 S
O262 Gd240 2.448 . S
O262 C243 1.249 . S
O263 Gd240 2.506 . S
O263 C243 1.252 . S
O264 Gd240 2.435 . S
O264 C250 1.256 1_556 S
O265 Gd240 2.717 1_554 S
O265 Gd241 2.327 . S
O265 C250 1.257 . S
O266 Gd241 2.377 . S
O266 C251 1.240 . S
O267 Gd240 2.395 . S
O267 C251 1.240 1_556 S
O268 Gd241 2.448 . S
O268 C252 1.249 . S
O269 Gd241 2.506 . S
O269 C252 1.252 . S
O270 Gd241 2.435 . S
O270 C259 1.256 1_554 S
O271 Gd240 2.327 . S
O271 Gd241 2.717 1_556 S
O271 C259 1.257 . S
H272 C245 0.930 . S
H273 C246 0.931 . S
H274 C248 0.931 . S
H275 C249 0.931 . S
H276 C254 0.930 . S
H277 C255 0.931 . S
H278 C257 0.931 . S
H279 C258 0.931 . S
Gd280 C283 2.818 1_455 S
Gd280 O300 2.377 1_455 S
Gd280 O302 2.448 1_455 S
Gd280 O303 2.506 . S
Gd280 O304 2.435 1_455 S
Gd280 O305 2.717 1_455 S
Gd280 O307 2.395 . S
Gd280 O311 2.327 . S
Gd281 C292 2.818 1_655 S
Gd281 O301 2.395 . S
Gd281 O305 2.327 . S
Gd281 O306 2.377 1_655 S
Gd281 O308 2.448 1_655 S
Gd281 O309 2.506 . S
Gd281 O310 2.435 1_655 S
Gd281 O311 2.717 1_655 S
C282 O300 1.240 . S
C282 O301 1.240 . S
C283 Gd280 2.818 1_655 S
C283 C284 1.510 . S
C283 O302 1.249 . S
C283 O303 1.252 1_655 S
C284 C283 1.510 . S
C284 C285 1.404 . S
C284 C286 1.356 . S
C285 C284 1.404 . S
C285 C289 1.389 . S
C285 H312 0.930 . S
C286 C284 1.356 . S
C286 C288 1.381 . S
C286 H313 0.920 1_655 S
C287 C288 1.359 . S
C287 C289 1.364 . S
C288 C286 1.381 . S
C288 C287 1.359 . S
C288 H314 0.930 1_655 S
C289 C285 1.389 . S
C289 C287 1.364 . S
C289 H315 0.931 . S
C290 O304 1.256 . S
C290 O305 1.257 . S
C291 O306 1.240 . S
C291 O307 1.240 . S
C292 Gd281 2.818 1_455 S
C292 C293 1.510 . S
C292 O308 1.249 . S
C292 O309 1.252 1_455 S
C293 C292 1.510 . S
C293 C294 1.404 . S
C293 C295 1.357 . S
C294 C293 1.404 . S
C294 C298 1.389 . S
C294 H316 0.930 . S
C295 C293 1.357 . S
C295 C297 1.383 . S
C295 H317 0.916 1_455 S
C296 C297 1.359 . S
C296 C298 1.364 . S
C297 C295 1.383 . S
C297 C296 1.359 . S
C297 H318 0.930 . S
C298 C294 1.389 . S
C298 C296 1.364 . S
C298 H319 0.931 . S
C299 O310 1.256 . S
C299 O311 1.257 . S
O300 Gd280 2.377 1_655 S
O300 C282 1.240 . S
O301 Gd281 2.395 . S
O301 C282 1.240 . S
O302 Gd280 2.448 1_655 S
O302 C283 1.249 . S
O303 Gd280 2.506 . S
O303 C283 1.252 1_455 S
O304 Gd280 2.435 1_655 S
O304 C290 1.256 . S
O305 Gd280 2.717 1_655 S
O305 Gd281 2.327 . S
O305 C290 1.257 . S
O306 Gd281 2.377 1_455 S
O306 C291 1.240 . S
O307 Gd280 2.395 . S
O307 C291 1.240 . S
O308 Gd281 2.448 1_455 S
O308 C292 1.249 . S
O309 Gd281 2.506 . S
O309 C292 1.252 1_655 S
O310 Gd281 2.435 1_455 S
O310 C299 1.256 . S
O311 Gd280 2.327 . S
O311 Gd281 2.717 1_455 S
O311 C299 1.257 . S
H312 C285 0.930 . S
H313 C286 0.920 1_455 S
H314 C288 0.930 1_455 S
H315 C289 0.931 . S
H316 C294 0.930 . S
H317 C295 0.916 1_655 S
H318 C297 0.930 . S
H319 C298 0.931 . S
H320 C326 0.930 . S
H321 C330 0.930 . S
H322 C335 0.929 . S
H323 C333 0.929 . S
H324 C328 0.929 . S
H325 C334 0.929 . S
C326 H320 0.930 . S
C326 C327 1.367 . S
C326 C334 1.378 . S
C327 C326 1.367 . S
C327 C335 1.433 . S
C328 H324 0.929 . S
C328 C330 1.378 . S
C328 C332 1.350 . S
C329 C332 1.463 . S
C329 C334 1.350 . S
C329 N337 1.427 . S
C330 H321 0.930 . S
C330 C328 1.378 . S
C330 C331 1.367 . S
C331 C330 1.367 . S
C331 C333 1.433 . S
C332 C328 1.350 . S
C332 C329 1.463 . S
C332 N336 1.427 . S
C333 H323 0.929 . S
C333 C331 1.433 . S
C333 N336 1.384 . S
C334 H325 0.929 . S
C334 C326 1.378 . S
C334 C329 1.350 . S
C335 H322 0.929 . S
C335 C327 1.433 . S
C335 N337 1.384 . S
N336 C332 1.427 . S
N336 C333 1.384 . S
N337 C329 1.427 . S
N337 C335 1.384 . S
H338 C344 0.930 . S
H339 C348 0.930 . S
H340 C353 0.929 . S
H341 C351 0.929 . S
H342 C346 0.929 . S
H343 C352 0.929 . S
C344 H338 0.930 . S
C344 C345 1.367 . S
C344 C352 1.378 . S
C345 C344 1.367 . S
C345 C353 1.433 . S
C346 H342 0.929 . S
C346 C348 1.378 . S
C346 C350 1.350 . S
C347 C350 1.463 . S
C347 C352 1.350 . S
C347 N355 1.427 . S
C348 H339 0.930 . S
C348 C346 1.378 . S
C348 C349 1.367 . S
C349 C348 1.367 . S
C349 C351 1.433 . S
C350 C346 1.350 . S
C350 C347 1.463 . S
C350 N354 1.427 . S
C351 H341 0.929 . S
C351 C349 1.433 . S
C351 N354 1.384 . S
C352 H343 0.929 . S
C352 C344 1.378 . S
C352 C347 1.350 . S
C353 H340 0.929 . S
C353 C345 1.433 . S
C353 N355 1.384 . S
N354 C350 1.427 . S
N354 C351 1.384 . S
N355 C347 1.427 . S
N355 C353 1.384 . S
H356 C362 0.930 . S
H357 C366 0.930 . S
H358 C371 0.929 . S
H359 C369 0.929 . S
H360 C364 0.929 . S
H361 C370 0.929 . S
C362 H356 0.930 . S
C362 C363 1.367 . S
C362 C370 1.378 . S
C363 C362 1.367 . S
C363 C371 1.433 . S
C364 H360 0.929 . S
C364 C366 1.378 . S
C364 C368 1.350 . S
C365 C368 1.463 . S
C365 C370 1.350 . S
C365 N373 1.427 . S
C366 H357 0.930 . S
C366 C364 1.378 . S
C366 C367 1.367 . S
C367 C366 1.367 . S
C367 C369 1.433 . S
C368 C364 1.350 . S
C368 C365 1.463 . S
C368 N372 1.427 . S
C369 H359 0.929 . S
C369 C367 1.433 . S
C369 N372 1.384 . S
C370 H361 0.929 . S
C370 C362 1.378 . S
C370 C365 1.350 . S
C371 H358 0.929 . S
C371 C363 1.433 . S
C371 N373 1.384 . S
N372 C368 1.427 . S
N372 C369 1.384 . S
N373 C365 1.427 . S
N373 C371 1.384 . S
H374 C380 0.930 . S
H375 C384 0.930 . S
H376 C389 0.929 . S
H377 C387 0.929 . S
H378 C382 0.929 . S
H379 C388 0.929 . S
C380 H374 0.930 . S
C380 C381 1.367 . S
C380 C388 1.378 . S
C381 C380 1.367 . S
C381 C389 1.433 . S
C382 H378 0.929 . S
C382 C384 1.378 . S
C382 C386 1.350 . S
C383 C386 1.463 . S
C383 C388 1.350 . S
C383 N391 1.427 . S
C384 H375 0.930 . S
C384 C382 1.378 . S
C384 C385 1.367 . S
C385 C384 1.367 . S
C385 C387 1.433 . S
C386 C382 1.350 . S
C386 C383 1.463 . S
C386 N390 1.427 . S
C387 H377 0.929 . S
C387 C385 1.433 . S
C387 N390 1.384 . S
C388 H379 0.929 . S
C388 C380 1.378 . S
C388 C383 1.350 . S
C389 H376 0.929 . S
C389 C381 1.433 . S
C389 N391 1.384 . S
N390 C386 1.427 . S
N390 C387 1.384 . S
N391 C383 1.427 . S
N391 C389 1.384 . S
H392 C398 0.930 . S
H393 C402 0.930 . S
H394 C407 0.929 . S
H395 C405 0.929 . S
H396 C400 0.929 . S
H397 C406 0.929 . S
C398 H392 0.930 . S
C398 C399 1.367 . S
C398 C406 1.378 . S
C399 C398 1.367 . S
C399 C407 1.433 . S
C400 H396 0.929 . S
C400 C402 1.378 . S
C400 C404 1.350 . S
C401 C404 1.463 . S
C401 C406 1.350 . S
C401 N409 1.427 . S
C402 H393 0.930 . S
C402 C400 1.378 . S
C402 C403 1.367 . S
C403 C402 1.367 . S
C403 C405 1.433 . S
C404 C400 1.350 . S
C404 C401 1.463 . S
C404 N408 1.427 . S
C405 H395 0.929 . S
C405 C403 1.433 . S
C405 N408 1.384 . S
C406 H397 0.929 . S
C406 C398 1.378 . S
C406 C401 1.350 . S
C407 H394 0.929 . S
C407 C399 1.433 . S
C407 N409 1.384 . S
N408 C404 1.427 . S
N408 C405 1.384 . S
N409 C401 1.427 . S
N409 C407 1.384 . S
H410 C416 0.930 . S
H411 C420 0.930 . S
H412 C425 0.929 . S
H413 C423 0.929 . S
H414 C418 0.929 . S
H415 C424 0.929 . S
C416 H410 0.930 . S
C416 C417 1.367 . S
C416 C424 1.378 . S
C417 C416 1.367 . S
C417 C425 1.433 . S
C418 H414 0.929 . S
C418 C420 1.378 . S
C418 C422 1.350 . S
C419 C422 1.463 . S
C419 C424 1.350 . S
C419 N427 1.427 . S
C420 H411 0.930 . S
C420 C418 1.378 . S
C420 C421 1.367 . S
C421 C420 1.367 . S
C421 C423 1.433 . S
C422 C418 1.350 . S
C422 C419 1.463 . S
C422 N426 1.427 . S
C423 H413 0.929 . S
C423 C421 1.433 . S
C423 N426 1.384 . S
C424 H415 0.929 . S
C424 C416 1.378 . S
C424 C419 1.350 . S
C425 H412 0.929 . S
C425 C417 1.433 . S
C425 N427 1.384 . S
N426 C422 1.427 . S
N426 C423 1.384 . S
N427 C419 1.427 . S
N427 C425 1.384 . S
H428 C434 0.930 . S
H429 C438 0.930 . S
H430 C443 0.929 . S
H431 C441 0.929 . S
H432 C436 0.929 . S
H433 C442 0.929 . S
C434 H428 0.930 . S
C434 C435 1.367 . S
C434 C442 1.378 . S
C435 C434 1.367 . S
C435 C443 1.433 . S
C436 H432 0.929 . S
C436 C438 1.378 . S
C436 C440 1.350 . S
C437 C440 1.463 . S
C437 C442 1.350 . S
C437 N445 1.427 . S
C438 H429 0.930 . S
C438 C436 1.378 . S
C438 C439 1.367 . S
C439 C438 1.367 . S
C439 C441 1.433 . S
C440 C436 1.350 . S
C440 C437 1.463 . S
C440 N444 1.427 . S
C441 H431 0.929 . S
C441 C439 1.433 . S
C441 N444 1.384 . S
C442 H433 0.929 . S
C442 C434 1.378 . S
C442 C437 1.350 . S
C443 H430 0.929 . S
C443 C435 1.433 . S
C443 N445 1.384 . S
N444 C440 1.427 . S
N444 C441 1.384 . S
N445 C437 1.427 . S
N445 C443 1.384 . S
H446 C452 0.930 . S
H447 C456 0.930 . S
H448 C461 0.929 . S
H449 C459 0.929 . S
H450 C454 0.929 . S
H451 C460 0.929 . S
C452 H446 0.930 . S
C452 C453 1.367 . S
C452 C460 1.378 . S
C453 C452 1.367 . S
C453 C461 1.433 . S
C454 H450 0.929 . S
C454 C456 1.378 . S
C454 C458 1.350 . S
C455 C458 1.463 . S
C455 C460 1.350 . S
C455 N463 1.427 . S
C456 H447 0.930 . S
C456 C454 1.378 . S
C456 C457 1.367 . S
C457 C456 1.367 . S
C457 C459 1.433 . S
C458 C454 1.350 . S
C458 C455 1.463 . S
C458 N462 1.427 . S
C459 H449 0.929 . S
C459 C457 1.433 . S
C459 N462 1.384 . S
C460 H451 0.929 . S
C460 C452 1.378 . S
C460 C455 1.350 . S
C461 H448 0.929 . S
C461 C453 1.433 . S
C461 N463 1.384 . S
N462 C458 1.427 . S
N462 C459 1.384 . S
N463 C455 1.427 . S
N463 C461 1.384 . S
H464 C470 0.930 . S
H465 C474 0.930 . S
H466 C479 0.929 . S
H467 C477 0.929 . S
H468 C472 0.929 . S
H469 C478 0.929 . S
C470 H464 0.930 . S
C470 C471 1.367 . S
C470 C478 1.378 . S
C471 C470 1.367 . S
C471 C479 1.433 . S
C472 H468 0.929 . S
C472 C474 1.378 . S
C472 C476 1.350 . S
C473 C476 1.463 . S
C473 C478 1.350 . S
C473 N481 1.427 . S
C474 H465 0.930 . S
C474 C472 1.378 . S
C474 C475 1.367 . S
C475 C474 1.367 . S
C475 C477 1.433 . S
C476 C472 1.350 . S
C476 C473 1.463 . S
C476 N480 1.427 . S
C477 H467 0.929 . S
C477 C475 1.433 . S
C477 N480 1.384 . S
C478 H469 0.929 . S
C478 C470 1.378 . S
C478 C473 1.350 . S
C479 H466 0.929 . S
C479 C471 1.433 . S
C479 N481 1.384 . S
N480 C476 1.427 . S
N480 C477 1.384 . S
N481 C473 1.427 . S
N481 C479 1.384 . S
H482 C488 0.930 . S
H483 C492 0.930 . S
H484 C497 0.929 . S
H485 C495 0.929 . S
H486 C490 0.929 . S
H487 C496 0.929 . S
C488 H482 0.930 . S
C488 C489 1.367 . S
C488 C496 1.378 . S
C489 C488 1.367 . S
C489 C497 1.433 . S
C490 H486 0.929 . S
C490 C492 1.378 . S
C490 C494 1.350 . S
C491 C494 1.463 . S
C491 C496 1.350 . S
C491 N499 1.427 . S
C492 H483 0.930 . S
C492 C490 1.378 . S
C492 C493 1.367 . S
C493 C492 1.367 . S
C493 C495 1.433 . S
C494 C490 1.350 . S
C494 C491 1.463 . S
C494 N498 1.427 . S
C495 H485 0.929 . S
C495 C493 1.433 . S
C495 N498 1.384 . S
C496 H487 0.929 . S
C496 C488 1.378 . S
C496 C491 1.350 . S
C497 H484 0.929 . S
C497 C489 1.433 . S
C497 N499 1.384 . S
N498 C494 1.427 . S
N498 C495 1.384 . S
N499 C491 1.427 . S
N499 C497 1.384 . S
H500 C506 0.930 . S
H501 C510 0.930 . S
H502 C515 0.929 . S
H503 C513 0.929 . S
H504 C508 0.929 . S
H505 C514 0.929 . S
C506 H500 0.930 . S
C506 C507 1.367 . S
C506 C514 1.378 . S
C507 C506 1.367 . S
C507 C515 1.433 . S
C508 H504 0.929 . S
C508 C510 1.378 . S
C508 C512 1.350 . S
C509 C512 1.463 . S
C509 C514 1.350 . S
C509 N517 1.427 . S
C510 H501 0.930 . S
C510 C508 1.378 . S
C510 C511 1.367 . S
C511 C510 1.367 . S
C511 C513 1.433 . S
C512 C508 1.350 . S
C512 C509 1.463 . S
C512 N516 1.427 . S
C513 H503 0.929 . S
C513 C511 1.433 . S
C513 N516 1.384 . S
C514 H505 0.929 . S
C514 C506 1.378 . S
C514 C509 1.350 . S
C515 H502 0.929 . S
C515 C507 1.433 . S
C515 N517 1.384 . S
N516 C512 1.427 . S
N516 C513 1.384 . S
N517 C509 1.427 . S
N517 C515 1.384 . S
H518 C524 0.930 . S
H519 C528 0.930 . S
H520 C533 0.929 . S
H521 C531 0.929 . S
H522 C526 0.929 . S
H523 C532 0.929 . S
C524 H518 0.930 . S
C524 C525 1.367 . S
C524 C532 1.378 . S
C525 C524 1.367 . S
C525 C533 1.433 . S
C526 H522 0.929 . S
C526 C528 1.378 . S
C526 C530 1.350 . S
C527 C530 1.463 . S
C527 C532 1.350 . S
C527 N535 1.427 . S
C528 H519 0.930 . S
C528 C526 1.378 . S
C528 C529 1.367 . S
C529 C528 1.367 . S
C529 C531 1.433 . S
C530 C526 1.350 . S
C530 C527 1.463 . S
C530 N534 1.427 . S
C531 H521 0.929 . S
C531 C529 1.433 . S
C531 N534 1.384 . S
C532 H523 0.929 . S
C532 C524 1.378 . S
C532 C527 1.350 . S
C533 H520 0.929 . S
C533 C525 1.433 . S
C533 N535 1.384 . S
N534 C530 1.427 . S
N534 C531 1.384 . S
N535 C527 1.427 . S
N535 C533 1.384 . S
H536 C542 0.930 . S
H537 C546 0.930 . S
H538 C551 0.929 . S
H539 C549 0.929 . S
H540 C544 0.929 . S
H541 C550 0.929 . S
C542 H536 0.930 . S
C542 C543 1.367 . S
C542 C550 1.378 . S
C543 C542 1.367 . S
C543 C551 1.433 . S
C544 H540 0.929 . S
C544 C546 1.378 . S
C544 C548 1.350 . S
C545 C548 1.463 . S
C545 C550 1.350 . S
C545 N553 1.427 . S
C546 H537 0.930 . S
C546 C544 1.378 . S
C546 C547 1.367 . S
C547 C546 1.367 . S
C547 C549 1.433 . S
C548 C544 1.350 . S
C548 C545 1.463 . S
C548 N552 1.427 . S
C549 H539 0.929 . S
C549 C547 1.433 . S
C549 N552 1.384 . S
C550 H541 0.929 . S
C550 C542 1.378 . S
C550 C545 1.350 . S
C551 H538 0.929 . S
C551 C543 1.433 . S
C551 N553 1.384 . S
N552 C548 1.427 . S
N552 C549 1.384 . S
N553 C545 1.427 . S
N553 C551 1.384 . S
H554 C560 0.930 1_554 S
H555 C564 0.930 . S
H556 C569 0.929 . S
H557 C567 0.929 . S
H558 C562 0.929 . S
H559 C568 0.929 . S
C560 H554 0.930 1_556 S
C560 C561 1.367 . S
C560 C568 1.378 . S
C561 C560 1.367 . S
C561 C569 1.433 . S
C562 H558 0.929 . S
C562 C564 1.378 . S
C562 C566 1.350 . S
C563 C566 1.463 . S
C563 C568 1.350 . S
C563 N571 1.427 . S
C564 H555 0.930 . S
C564 C562 1.378 . S
C564 C565 1.367 . S
C565 C564 1.367 . S
C565 C567 1.433 . S
C566 C562 1.350 . S
C566 C563 1.463 . S
C566 N570 1.427 . S
C567 H557 0.929 . S
C567 C565 1.433 . S
C567 N570 1.384 . S
C568 H559 0.929 . S
C568 C560 1.378 . S
C568 C563 1.350 . S
C569 H556 0.929 . S
C569 C561 1.433 . S
C569 N571 1.384 . S
N570 C566 1.427 . S
N570 C567 1.384 . S
N571 C563 1.427 . S
N571 C569 1.384 . S
H572 C578 0.930 . S
H573 C582 0.930 . S
H574 C587 0.929 . S
H575 C585 0.929 . S
H576 C580 0.929 . S
H577 C586 0.929 . S
C578 H572 0.930 . S
C578 C579 1.367 . S
C578 C586 1.378 . S
C579 C578 1.367 . S
C579 C587 1.433 . S
C580 H576 0.929 . S
C580 C582 1.378 . S
C580 C584 1.350 . S
C581 C584 1.463 . S
C581 C586 1.350 . S
C581 N589 1.427 . S
C582 H573 0.930 . S
C582 C580 1.378 . S
C582 C583 1.367 . S
C583 C582 1.367 . S
C583 C585 1.433 . S
C584 C580 1.350 . S
C584 C581 1.463 . S
C584 N588 1.427 . S
C585 H575 0.929 . S
C585 C583 1.433 . S
C585 N588 1.384 . S
C586 H577 0.929 . S
C586 C578 1.378 . S
C586 C581 1.350 . S
C587 H574 0.929 . S
C587 C579 1.433 . S
C587 N589 1.384 . S
N588 C584 1.427 . S
N588 C585 1.384 . S
N589 C581 1.427 . S
N589 C587 1.384 . S
H590 C596 0.930 . S
H591 C600 0.930 . S
H592 C605 0.929 . S
H593 C603 0.929 . S
H594 C598 0.929 . S
H595 C604 0.929 . S
C596 H590 0.930 . S
C596 C597 1.367 . S
C596 C604 1.378 . S
C597 C596 1.367 . S
C597 C605 1.433 . S
C598 H594 0.929 . S
C598 C600 1.378 . S
C598 C602 1.350 . S
C599 C602 1.463 . S
C599 C604 1.350 . S
C599 N607 1.427 . S
C600 H591 0.930 . S
C600 C598 1.378 . S
C600 C601 1.367 . S
C601 C600 1.367 . S
C601 C603 1.433 . S
C602 C598 1.350 . S
C602 C599 1.463 . S
C602 N606 1.427 . S
C603 H593 0.929 . S
C603 C601 1.433 . S
C603 N606 1.384 . S
C604 H595 0.929 . S
C604 C596 1.378 . S
C604 C599 1.350 . S
C605 H592 0.929 . S
C605 C597 1.433 . S
C605 N607 1.384 . S
N606 C602 1.427 . S
N606 C603 1.384 . S
N607 C599 1.427 . S
N607 C605 1.384 . S
H608 C614 0.930 . S
H609 C618 0.930 . S
H610 C623 0.929 . S
H611 C621 0.929 . S
H612 C616 0.929 1_545 S
H613 C622 0.929 1_565 S
C614 H608 0.930 . S
C614 C615 1.367 . S
C614 C622 1.378 . S
C615 C614 1.367 . S
C615 C623 1.433 1_655 S
C616 H612 0.929 1_565 S
C616 C618 1.378 . S
C616 C620 1.350 . S
C617 C620 1.463 1_646 S
C617 C622 1.350 . S
C617 N625 1.427 1_655 S
C618 H609 0.930 . S
C618 C616 1.378 . S
C618 C619 1.367 . S
C619 C618 1.367 . S
C619 C621 1.433 1_455 S
C620 C616 1.350 . S
C620 C617 1.463 1_464 S
C620 N624 1.427 1_455 S
C621 H611 0.929 . S
C621 C619 1.433 1_655 S
C621 N624 1.384 . S
C622 H613 0.929 1_545 S
C622 C614 1.378 . S
C622 C617 1.350 . S
C623 H610 0.929 . S
C623 C615 1.433 1_455 S
C623 N625 1.384 . S
N624 C620 1.427 1_655 S
N624 C621 1.384 . S
N625 C617 1.427 1_455 S
N625 C623 1.384 . S
H626 C632 0.930 . S
H627 C636 0.930 . S
H628 C641 0.929 . S
H629 C639 0.929 . S
H630 C634 0.929 . S
H631 C640 0.929 . S
C632 H626 0.930 . S
C632 C633 1.367 . S
C632 C640 1.378 . S
C633 C632 1.367 . S
C633 C641 1.433 . S
C634 H630 0.929 . S
C634 C636 1.378 . S
C634 C638 1.350 . S
C635 C638 1.463 . S
C635 C640 1.350 . S
C635 N643 1.427 . S
C636 H627 0.930 . S
C636 C634 1.378 . S
C636 C637 1.367 . S
C637 C636 1.367 . S
C637 C639 1.433 . S
C638 C634 1.350 . S
C638 C635 1.463 . S
C638 N642 1.427 . S
C639 H629 0.929 . S
C639 C637 1.433 . S
C639 N642 1.384 . S
C640 H631 0.929 . S
C640 C632 1.378 . S
C640 C635 1.350 . S
C641 H628 0.929 . S
C641 C633 1.433 . S
C641 N643 1.384 . S
N642 C638 1.427 . S
N642 C639 1.384 . S
N643 C635 1.427 . S
N643 C641 1.384 . S
H644 C650 0.930 . S
H645 C654 0.930 . S
H646 C659 0.929 . S
H647 C657 0.929 . S
H648 C652 0.929 . S
H649 C658 0.929 . S
C650 H644 0.930 . S
C650 C651 1.367 1_545 S
C650 C658 1.378 . S
C651 C650 1.367 1_565 S
C651 C659 1.433 . S
C652 H648 0.929 . S
C652 C654 1.378 . S
C652 C656 1.350 . S
C653 C656 1.464 1_545 S
C653 C658 1.354 . S
C653 N661 1.421 1_545 S
C654 H645 0.930 . S
C654 C652 1.378 . S
C654 C655 1.367 1_565 S
C655 C654 1.367 1_545 S
C655 C657 1.433 . S
C656 C652 1.350 . S
C656 C653 1.464 1_565 S
C656 N660 1.427 1_565 S
C657 H647 0.929 . S
C657 C655 1.433 . S
C657 N660 1.384 . S
C658 H649 0.929 . S
C658 C650 1.378 . S
C658 C653 1.354 . S
C659 H646 0.929 . S
C659 C651 1.433 . S
C659 N661 1.384 . S
N660 C656 1.427 1_545 S
N660 C657 1.384 . S
N661 C653 1.421 1_565 S
N661 C659 1.384 . S
H662 C668 0.930 . S
H663 C672 0.930 . S
H664 C677 0.929 . S
H665 C675 0.929 . S
H666 C670 0.929 . S
H667 C676 0.929 . S
C668 H662 0.930 . S
C668 C669 1.367 . S
C668 C676 1.378 . S
C669 C668 1.367 . S
C669 C677 1.433 . S
C670 H666 0.929 . S
C670 C672 1.378 . S
C670 C674 1.350 . S
C671 C674 1.463 . S
C671 C676 1.350 . S
C671 N679 1.427 . S
C672 H663 0.930 . S
C672 C670 1.378 . S
C672 C673 1.367 . S
C673 C672 1.367 . S
C673 C675 1.433 . S
C674 C670 1.350 . S
C674 C671 1.463 . S
C674 N678 1.427 . S
C675 H665 0.929 . S
C675 C673 1.433 . S
C675 N678 1.384 . S
C676 H667 0.929 . S
C676 C668 1.378 . S
C676 C671 1.350 . S
C677 H664 0.929 . S
C677 C669 1.433 . S
C677 N679 1.384 . S
N678 C674 1.427 . S
N678 C675 1.384 . S
N679 C671 1.427 . S
N679 C677 1.384 . S
H680 C686 0.930 . S
H681 C690 0.930 . S
H682 C695 0.929 . S
H683 C693 0.929 . S
H684 C688 0.929 . S
H685 C694 0.929 . S
C686 H680 0.930 . S
C686 C687 1.367 . S
C686 C694 1.378 . S
C687 C686 1.367 . S
C687 C695 1.433 . S
C688 H684 0.929 . S
C688 C690 1.378 . S
C688 C692 1.350 . S
C689 C692 1.463 . S
C689 C694 1.350 . S
C689 N697 1.427 . S
C690 H681 0.930 . S
C690 C688 1.378 . S
C690 C691 1.367 . S
C691 C690 1.367 . S
C691 C693 1.433 . S
C692 C688 1.350 . S
C692 C689 1.463 . S
C692 N696 1.427 . S
C693 H683 0.929 . S
C693 C691 1.433 . S
C693 N696 1.384 . S
C694 H685 0.929 . S
C694 C686 1.378 . S
C694 C689 1.350 . S
C695 H682 0.929 . S
C695 C687 1.433 . S
C695 N697 1.384 . S
N696 C692 1.427 . S
N696 C693 1.384 . S
N697 C689 1.427 . S
N697 C695 1.384 . S
H698 C704 0.930 . S
H699 C708 0.930 . S
H700 C713 0.929 . S
H701 C711 0.929 . S
H702 C706 0.929 . S
H703 C712 0.929 . S
C704 H698 0.930 . S
C704 C705 1.367 . S
C704 C712 1.378 . S
C705 C704 1.367 . S
C705 C713 1.433 . S
C706 H702 0.929 . S
C706 C708 1.378 . S
C706 C710 1.350 . S
C707 C710 1.463 . S
C707 C712 1.350 . S
C707 N715 1.427 . S
C708 H699 0.930 . S
C708 C706 1.378 . S
C708 C709 1.367 . S
C709 C708 1.367 . S
C709 C711 1.433 . S
C710 C706 1.350 . S
C710 C707 1.463 . S
C710 N714 1.427 . S
C711 H701 0.929 . S
C711 C709 1.433 . S
C711 N714 1.384 . S
C712 H703 0.929 . S
C712 C704 1.378 . S
C712 C707 1.350 . S
C713 H700 0.929 . S
C713 C705 1.433 . S
C713 N715 1.384 . S
N714 C710 1.427 . S
N714 C711 1.384 . S
N715 C707 1.427 . S
N715 C713 1.384 . S
H716 C722 0.930 . S
H717 C726 0.930 . S
H718 C731 0.929 . S
H719 C729 0.929 . S
H720 C724 0.929 . S
H721 C730 0.929 . S
C722 H716 0.930 . S
C722 C723 1.367 . S
C722 C730 1.378 . S
C723 C722 1.367 . S
C723 C731 1.433 . S
C724 H720 0.929 . S
C724 C726 1.378 . S
C724 C728 1.350 . S
C725 C728 1.463 . S
C725 C730 1.350 . S
C725 N733 1.427 . S
C726 H717 0.930 . S
C726 C724 1.378 . S
C726 C727 1.367 . S
C727 C726 1.367 . S
C727 C729 1.433 . S
C728 C724 1.350 . S
C728 C725 1.463 . S
C728 N732 1.427 . S
C729 H719 0.929 . S
C729 C727 1.433 . S
C729 N732 1.384 . S
C730 H721 0.929 . S
C730 C722 1.378 . S
C730 C725 1.350 . S
C731 H718 0.929 . S
C731 C723 1.433 . S
C731 N733 1.384 . S
N732 C728 1.427 . S
N732 C729 1.384 . S
N733 C725 1.427 . S
N733 C731 1.384 . S
H734 C740 0.930 . S
H735 C744 0.930 . S
H736 C749 0.929 . S
H737 C747 0.929 . S
H738 C742 0.929 . S
H739 C748 0.929 . S
C740 H734 0.930 . S
C740 C741 1.367 . S
C740 C748 1.378 1_655 S
C741 C740 1.367 . S
C741 C749 1.433 . S
C742 H738 0.929 . S
C742 C744 1.378 1_655 S
C742 C746 1.350 1_655 S
C743 C746 1.463 1_656 S
C743 C748 1.350 1_655 S
C743 N751 1.427 . S
C744 H735 0.930 . S
C744 C742 1.378 1_455 S
C744 C745 1.367 . S
C745 C744 1.367 . S
C745 C747 1.433 . S
C746 C742 1.350 1_455 S
C746 C743 1.463 1_454 S
C746 N750 1.427 . S
C747 H737 0.929 . S
C747 C745 1.433 . S
C747 N750 1.384 . S
C748 H739 0.929 . S
C748 C740 1.378 1_455 S
C748 C743 1.350 1_455 S
C749 H736 0.929 . S
C749 C741 1.433 . S
C749 N751 1.384 . S
N750 C746 1.427 . S
N750 C747 1.384 . S
N751 C743 1.427 . S
N751 C749 1.384 . S
C327 C2 2.010 . S
C331 C122 2.004 . S
C345 C10 1.512 . S
C349 C42 1.527 . S
C363 C50 0.939 . S
C367 C90 0.935 . S
C381 C82 1.531 . S
C385 C130 1.515 . S
C399 C11 2.011 . S
C403 C211 2.015 . S
C417 C19 1.509 . S
C421 C171 1.526 . S
C435 C179 0.943 . S
C439 C99 0.931 . S
C453 C219 1.513 . S
C457 C91 1.531 . S
C471 C242 2.010 . S
C475 C202 2.010 . S
C489 C162 1.527 . S
C493 C250 1.510 . S
C507 C290 0.933 . S
C511 C170 0.935 . S
C525 C210 1.514 . S
C529 C282 1.530 . S
C543 C131 2.011 . S
C547 C251 2.010 . S
C561 C259 1.509 . S
C565 C51 1.526 . S
C579 C59 0.947 . S
C583 C299 0.942 . S
C597 C139 1.516 . S
C601 C291 1.527 . S
C615 C16 1.587 . S
C619 C7 1.587 . S
C633 C47 1.457 . S
C637 C56 1.457 . S
C651 C96 1.455 . S
C655 C87 1.455 . S
C669 C136 1.583 . S
C673 C127 1.583 . S
C687 C167 1.458 . S
C691 C176 1.458 . S
C705 C216 1.575 . S
C709 C207 1.575 . S
C723 C247 1.576 . S
C727 C256 1.576 . S
C741 C287 1.448 . S
C745 C296 1.448 . S
