# Generated by pormake.
# Topology cha, (4)-cn, num edge types: 1
# Building blocks:
#     Node 0, Type 0, BuildingBlock: QUQFOY_clean_sbu_1, # of connection points: 4
#     Node 1, Type 0, BuildingBlock: QUQFOY_clean_sbu_1, # of connection points: 4
#     Node 2, Type 0, BuildingBlock: QUQFOY_clean_sbu_1, # of connection points: 4
#     Node 3, Type 0, BuildingBlock: QUQFOY_clean_sbu_1, # of connection points: 4
#     Node 4, Type 0, BuildingBlock: QUQFOY_clean_sbu_1, # of connection points: 4
#     Node 5, Type 0, BuildingBlock: QUQFOY_clean_sbu_1, # of connection points: 4
#     Node 6, Type 0, BuildingBlock: QUQFOY_clean_sbu_1, # of connection points: 4
#     Node 7, Type 0, BuildingBlock: QUQFOY_clean_sbu_1, # of connection points: 4
#     Node 8, Type 0, BuildingBlock: QUQFOY_clean_sbu_1, # of connection points: 4
#     Node 9, Type 0, BuildingBlock: QUQFOY_clean_sbu_1, # of connection points: 4
#     Node 10, Type 0, BuildingBlock: QUQFOY_clean_sbu_1, # of connection points: 4
#     Node 11, Type 0, BuildingBlock: QUQFOY_clean_sbu_1, # of connection points: 4
#     Node 12, Type 0, BuildingBlock: QUQFOY_clean_sbu_1, # of connection points: 4
#     Node 13, Type 0, BuildingBlock: QUQFOY_clean_sbu_1, # of connection points: 4
#     Node 14, Type 0, BuildingBlock: QUQFOY_clean_sbu_1, # of connection points: 4
#     Node 15, Type 0, BuildingBlock: QUQFOY_clean_sbu_1, # of connection points: 4
#     Node 16, Type 0, BuildingBlock: QUQFOY_clean_sbu_1, # of connection points: 4
#     Node 17, Type 0, BuildingBlock: QUQFOY_clean_sbu_1, # of connection points: 4
#     Node 18, Type 0, BuildingBlock: QUQFOY_clean_sbu_1, # of connection points: 4
#     Node 19, Type 0, BuildingBlock: QUQFOY_clean_sbu_1, # of connection points: 4
#     Node 20, Type 0, BuildingBlock: QUQFOY_clean_sbu_1, # of connection points: 4
#     Node 21, Type 0, BuildingBlock: QUQFOY_clean_sbu_1, # of connection points: 4
#     Node 22, Type 0, BuildingBlock: QUQFOY_clean_sbu_1, # of connection points: 4
#     Node 23, Type 0, BuildingBlock: QUQFOY_clean_sbu_1, # of connection points: 4
#     Node 24, Type 0, BuildingBlock: QUQFOY_clean_sbu_1, # of connection points: 4
#     Node 25, Type 0, BuildingBlock: QUQFOY_clean_sbu_1, # of connection points: 4
#     Node 26, Type 0, BuildingBlock: QUQFOY_clean_sbu_1, # of connection points: 4
#     Node 27, Type 0, BuildingBlock: QUQFOY_clean_sbu_1, # of connection points: 4
#     Node 28, Type 0, BuildingBlock: QUQFOY_clean_sbu_1, # of connection points: 4
#     Node 29, Type 0, BuildingBlock: QUQFOY_clean_sbu_1, # of connection points: 4
#     Node 30, Type 0, BuildingBlock: QUQFOY_clean_sbu_1, # of connection points: 4
#     Node 31, Type 0, BuildingBlock: QUQFOY_clean_sbu_1, # of connection points: 4
#     Node 32, Type 0, BuildingBlock: QUQFOY_clean_sbu_1, # of connection points: 4
#     Node 33, Type 0, BuildingBlock: QUQFOY_clean_sbu_1, # of connection points: 4
#     Node 34, Type 0, BuildingBlock: QUQFOY_clean_sbu_1, # of connection points: 4
#     Node 35, Type 0, BuildingBlock: QUQFOY_clean_sbu_1, # of connection points: 4
#     Edge 36, Type (0, 0), BuildingBlock: KIFKEQ_clean_linker_1, # of connection points: 2
#     Edge 37, Type (0, 0), BuildingBlock: KIFKEQ_clean_linker_1, # of connection points: 2
#     Edge 38, Type (0, 0), BuildingBlock: KIFKEQ_clean_linker_1, # of connection points: 2
#     Edge 39, Type (0, 0), BuildingBlock: KIFKEQ_clean_linker_1, # of connection points: 2
#     Edge 40, Type (0, 0), BuildingBlock: KIFKEQ_clean_linker_1, # of connection points: 2
#     Edge 41, Type (0, 0), BuildingBlock: KIFKEQ_clean_linker_1, # of connection points: 2
#     Edge 42, Type (0, 0), BuildingBlock: KIFKEQ_clean_linker_1, # of connection points: 2
#     Edge 43, Type (0, 0), BuildingBlock: KIFKEQ_clean_linker_1, # of connection points: 2
#     Edge 44, Type (0, 0), BuildingBlock: KIFKEQ_clean_linker_1, # of connection points: 2
#     Edge 45, Type (0, 0), BuildingBlock: KIFKEQ_clean_linker_1, # of connection points: 2
#     Edge 46, Type (0, 0), BuildingBlock: KIFKEQ_clean_linker_1, # of connection points: 2
#     Edge 47, Type (0, 0), BuildingBlock: KIFKEQ_clean_linker_1, # of connection points: 2
#     Edge 48, Type (0, 0), BuildingBlock: KIFKEQ_clean_linker_1, # of connection points: 2
#     Edge 49, Type (0, 0), BuildingBlock: KIFKEQ_clean_linker_1, # of connection points: 2
#     Edge 50, Type (0, 0), BuildingBlock: KIFKEQ_clean_linker_1, # of connection points: 2
#     Edge 51, Type (0, 0), BuildingBlock: KIFKEQ_clean_linker_1, # of connection points: 2
#     Edge 52, Type (0, 0), BuildingBlock: KIFKEQ_clean_linker_1, # of connection points: 2
#     Edge 53, Type (0, 0), BuildingBlock: KIFKEQ_clean_linker_1, # of connection points: 2
#     Edge 54, Type (0, 0), BuildingBlock: KIFKEQ_clean_linker_1, # of connection points: 2
#     Edge 55, Type (0, 0), BuildingBlock: KIFKEQ_clean_linker_1, # of connection points: 2
#     Edge 56, Type (0, 0), BuildingBlock: KIFKEQ_clean_linker_1, # of connection points: 2
#     Edge 57, Type (0, 0), BuildingBlock: KIFKEQ_clean_linker_1, # of connection points: 2
#     Edge 58, Type (0, 0), BuildingBlock: KIFKEQ_clean_linker_1, # of connection points: 2
#     Edge 59, Type (0, 0), BuildingBlock: KIFKEQ_clean_linker_1, # of connection points: 2
#     Edge 60, Type (0, 0), BuildingBlock: KIFKEQ_clean_linker_1, # of connection points: 2
#     Edge 61, Type (0, 0), BuildingBlock: KIFKEQ_clean_linker_1, # of connection points: 2
#     Edge 62, Type (0, 0), BuildingBlock: KIFKEQ_clean_linker_1, # of connection points: 2
#     Edge 63, Type (0, 0), BuildingBlock: KIFKEQ_clean_linker_1, # of connection points: 2
#     Edge 64, Type (0, 0), BuildingBlock: KIFKEQ_clean_linker_1, # of connection points: 2
#     Edge 65, Type (0, 0), BuildingBlock: KIFKEQ_clean_linker_1, # of connection points: 2
#     Edge 66, Type (0, 0), BuildingBlock: KIFKEQ_clean_linker_1, # of connection points: 2
#     Edge 67, Type (0, 0), BuildingBlock: KIFKEQ_clean_linker_1, # of connection points: 2
#     Edge 68, Type (0, 0), BuildingBlock: KIFKEQ_clean_linker_1, # of connection points: 2
#     Edge 69, Type (0, 0), BuildingBlock: KIFKEQ_clean_linker_1, # of connection points: 2
#     Edge 70, Type (0, 0), BuildingBlock: KIFKEQ_clean_linker_1, # of connection points: 2
#     Edge 71, Type (0, 0), BuildingBlock: KIFKEQ_clean_linker_1, # of connection points: 2
#     Edge 72, Type (0, 0), BuildingBlock: KIFKEQ_clean_linker_1, # of connection points: 2
#     Edge 73, Type (0, 0), BuildingBlock: KIFKEQ_clean_linker_1, # of connection points: 2
#     Edge 74, Type (0, 0), BuildingBlock: KIFKEQ_clean_linker_1, # of connection points: 2
#     Edge 75, Type (0, 0), BuildingBlock: KIFKEQ_clean_linker_1, # of connection points: 2
#     Edge 76, Type (0, 0), BuildingBlock: KIFKEQ_clean_linker_1, # of connection points: 2
#     Edge 77, Type (0, 0), BuildingBlock: KIFKEQ_clean_linker_1, # of connection points: 2
#     Edge 78, Type (0, 0), BuildingBlock: KIFKEQ_clean_linker_1, # of connection points: 2
#     Edge 79, Type (0, 0), BuildingBlock: KIFKEQ_clean_linker_1, # of connection points: 2
#     Edge 80, Type (0, 0), BuildingBlock: KIFKEQ_clean_linker_1, # of connection points: 2
#     Edge 81, Type (0, 0), BuildingBlock: KIFKEQ_clean_linker_1, # of connection points: 2
#     Edge 82, Type (0, 0), BuildingBlock: KIFKEQ_clean_linker_1, # of connection points: 2
#     Edge 83, Type (0, 0), BuildingBlock: KIFKEQ_clean_linker_1, # of connection points: 2
#     Edge 84, Type (0, 0), BuildingBlock: KIFKEQ_clean_linker_1, # of connection points: 2
#     Edge 85, Type (0, 0), BuildingBlock: KIFKEQ_clean_linker_1, # of connection points: 2
#     Edge 86, Type (0, 0), BuildingBlock: KIFKEQ_clean_linker_1, # of connection points: 2
#     Edge 87, Type (0, 0), BuildingBlock: KIFKEQ_clean_linker_1, # of connection points: 2
#     Edge 88, Type (0, 0), BuildingBlock: KIFKEQ_clean_linker_1, # of connection points: 2
#     Edge 89, Type (0, 0), BuildingBlock: KIFKEQ_clean_linker_1, # of connection points: 2
#     Edge 90, Type (0, 0), BuildingBlock: KIFKEQ_clean_linker_1, # of connection points: 2
#     Edge 91, Type (0, 0), BuildingBlock: KIFKEQ_clean_linker_1, # of connection points: 2
#     Edge 92, Type (0, 0), BuildingBlock: KIFKEQ_clean_linker_1, # of connection points: 2
#     Edge 93, Type (0, 0), BuildingBlock: KIFKEQ_clean_linker_1, # of connection points: 2
#     Edge 94, Type (0, 0), BuildingBlock: KIFKEQ_clean_linker_1, # of connection points: 2
#     Edge 95, Type (0, 0), BuildingBlock: KIFKEQ_clean_linker_1, # of connection points: 2
#     Edge 96, Type (0, 0), BuildingBlock: KIFKEQ_clean_linker_1, # of connection points: 2
#     Edge 97, Type (0, 0), BuildingBlock: KIFKEQ_clean_linker_1, # of connection points: 2
#     Edge 98, Type (0, 0), BuildingBlock: KIFKEQ_clean_linker_1, # of connection points: 2
#     Edge 99, Type (0, 0), BuildingBlock: KIFKEQ_clean_linker_1, # of connection points: 2
#     Edge 100, Type (0, 0), BuildingBlock: KIFKEQ_clean_linker_1, # of connection points: 2
#     Edge 101, Type (0, 0), BuildingBlock: KIFKEQ_clean_linker_1, # of connection points: 2
#     Edge 102, Type (0, 0), BuildingBlock: KIFKEQ_clean_linker_1, # of connection points: 2
#     Edge 103, Type (0, 0), BuildingBlock: KIFKEQ_clean_linker_1, # of connection points: 2
#     Edge 104, Type (0, 0), BuildingBlock: KIFKEQ_clean_linker_1, # of connection points: 2
#     Edge 105, Type (0, 0), BuildingBlock: KIFKEQ_clean_linker_1, # of connection points: 2
#     Edge 106, Type (0, 0), BuildingBlock: KIFKEQ_clean_linker_1, # of connection points: 2
#     Edge 107, Type (0, 0), BuildingBlock: KIFKEQ_clean_linker_1, # of connection points: 2
# Relax obj value: 0.045
# Max RMSD: 0.075
# Mean RMSD: 0.075
data_MOF--net-cha--node1-QUQFOY_clean_sbu_1--edge1-KIFKEQ_clean_linker_1
_symmetry_space_group_name_H-M    P1
_symmetry_Int_Tables_number       1
_symmetry_cell_setting            triclinic
loop_
_symmetry_equiv_pos_as_xyz
'x, y, z'
_cell_length_a     64.036481
_cell_length_b     64.067854
_cell_length_c     84.817297
_cell_angle_alpha  89.948571
_cell_angle_beta   89.998859
_cell_angle_gamma 119.97396
loop_
_atom_site_label
_atom_site_type_symbol
_atom_site_fract_x
_atom_site_fract_y
_atom_site_fract_z
_atom_type_partial_charge
O0 O 0.03608 0.27958 0.07567 0.0
Cd1 Cd 0.03454 0.26516 0.09767 0.0
Cd2 Cd 0.01018 0.29057 0.10252 0.0
O3 O 0.01978 0.30243 0.07945 0.0
O4 O 0.05358 0.24892 0.0934 0.0
O5 O 0.06507 0.27802 0.11088 0.0
C6 C 0.06934 0.26295 0.10348 0.0
C7 C 0.01765 0.31582 0.12417 0.0
C8 C 0.0298 0.2942 0.07039 0.0
C9 C 0.98197 0.23665 0.10658 0.0
O10 O 0.98144 0.25618 0.10558 0.0
O11 O 1.00163 0.2366 0.10464 0.0
O12 O 1.00116 0.31207 0.11399 0.0
O13 O 0.03105 0.30637 0.12149 0.0
O14 O 0.77517 0.78231 0.07359 0.0
Cd15 Cd 0.79399 0.799 0.09387 0.0
Cd16 Cd 0.77222 0.75053 0.10316 0.0
O17 O 0.75858 0.74398 0.08041 0.0
O18 O 0.80713 0.83362 0.08852 0.0
O19 O 0.78216 0.81613 0.1084 0.0
C20 C 0.79493 0.83523 0.10004 0.0
C21 C 0.74815 0.73202 0.12527 0.0
C22 C 0.76232 0.76009 0.07023 0.0
C23 C 0.8265 0.7794 0.1033 0.0
O24 O 0.8076 0.75923 0.10573 0.0
O25 O 0.82498 0.79748 0.09867 0.0
O26 O 0.75359 0.72013 0.11543 0.0
O27 O 0.75541 0.75436 0.1221 0.0
O28 O 0.27921 0.02311 0.07308 0.0
Cd29 Cd 0.26504 0.02528 0.09462 0.0
Cd30 Cd 0.31397 0.05057 0.10126 0.0
O31 O 0.31806 0.04115 0.07871 0.0
O32 O 0.22965 0.0058 0.09088 0.0
O33 O 0.24831 0.99517 0.10822 0.0
C34 C 0.22855 0.99066 0.10128 0.0
C35 C 0.33103 0.04338 0.12343 0.0
C36 C 0.30087 0.03028 0.06897 0.0
C37 C 0.28769 0.07807 0.10334 0.0
O38 O 0.30803 0.07916 0.10314 0.0
O39 O 0.26843 0.05808 0.10116 0.0
O40 O 0.34402 0.06002 0.11339 0.0
O41 O 0.3083 0.02989 0.12044 0.0
O42 O 0.28668 0.03729 0.94902 0.0
Cd43 Cd 0.26823 0.03535 0.92859 0.0
Cd44 Cd 0.29118 0.00943 0.91964 0.0
O45 O 0.30438 0.01648 0.94246 0.0
O46 O 0.2542 0.05592 0.93437 0.0
O47 O 0.27977 0.06498 0.91468 0.0
C48 C 0.26659 0.07053 0.92323 0.0
C49 C 0.31579 0.01584 0.89774 0.0
C50 C 0.29993 0.0284 0.95255 0.0
C51 C 0.2369 0.9832 0.91878 0.0
O52 O 0.25611 0.98231 0.91682 0.0
O53 O 0.23786 0.00264 0.92318 0.0
O54 O 0.31058 0.99847 0.90751 0.0
O55 O 0.30798 0.03049 0.90087 0.0
O56 O 0.02752 0.27454 0.94652 0.0
Cd57 Cd 0.02961 0.26408 0.92374 0.0
Cd58 Cd 0.05315 0.31296 0.92081 0.0
O59 O 0.04076 0.31333 0.9433 0.0
O60 O 0.01114 0.22826 0.92543 0.0
O61 O 0.99913 0.24839 0.91043 0.0
C62 C 0.99543 0.22801 0.91588 0.0
C63 C 0.04632 0.33003 0.89854 0.0
C64 C 0.03195 0.29478 0.95211 0.0
C65 C 0.08263 0.28915 0.91656 0.0
O66 O 0.083 0.30881 0.91939 0.0
O67 O 0.0627 0.26942 0.91625 0.0
O68 O 0.06157 0.34324 0.90923 0.0
O69 O 0.03374 0.30706 0.90103 0.0
O70 O 0.78176 0.77256 0.94992 0.0
Cd71 Cd 0.79725 0.79004 0.92888 0.0
Cd72 Cd 0.74801 0.76733 0.92165 0.0
O73 O 0.74295 0.7532 0.94411 0.0
O74 O 0.83209 0.8046 0.93414 0.0
O75 O 0.81506 0.77807 0.91505 0.0
C76 C 0.83408 0.79182 0.9232 0.0
C77 C 0.73035 0.74383 0.89926 0.0
C78 C 0.75993 0.75861 0.95389 0.0
C79 C 0.77578 0.82135 0.9203 0.0
O80 O 0.75526 0.80233 0.92004 0.0
O81 O 0.79476 0.82017 0.92278 0.0
O82 O 0.71781 0.748 0.90936 0.0
O83 O 0.75293 0.75208 0.90231 0.0
O84 O 0.02522 0.77807 0.94795 0.0
Cd85 Cd 0.02772 0.79432 0.92635 0.0
Cd86 Cd 0.05298 0.77092 0.91989 0.0
O87 O 0.04255 0.75664 0.9422 0.0
O88 O 0.00788 0.80995 0.92975 0.0
O89 O 0.99777 0.78057 0.91259 0.0
C90 C 0.99289 0.79564 0.9194 0.0
C91 C 0.04553 0.74782 0.89723 0.0
C92 C 0.0319 0.76317 0.95198 0.0
C93 C 0.08085 0.82452 0.91831 0.0
O94 O 0.08198 0.80528 0.91869 0.0
O95 O 0.06072 0.82371 0.92003 0.0
O96 O 0.06123 0.74962 0.90748 0.0
O97 O 0.03312 0.75825 0.90023 0.0
O98 O 0.28466 0.27777 0.94955 0.0
Cd99 Cd 0.26827 0.26383 0.92808 0.0
Cd100 Cd 0.29289 0.31286 0.92101 0.0
O101 O 0.30525 0.31667 0.94398 0.0
O102 O 0.25224 0.22839 0.93165 0.0
O103 O 0.28154 0.24718 0.91434 0.0
C104 C 0.26629 0.22737 0.92123 0.0
C105 C 0.31792 0.33008 0.89917 0.0
C106 C 0.2989 0.29942 0.95372 0.0
C107 C 0.23904 0.28721 0.91851 0.0
O108 O 0.25862 0.30724 0.91804 0.0
O109 O 0.23918 0.26789 0.92173 0.0
O110 O 0.31409 0.34303 0.90913 0.0
O111 O 0.30863 0.30735 0.90218 0.0
O112 O 0.79212 0.03689 0.94751 0.0
Cd113 Cd 0.80504 0.03449 0.92574 0.0
Cd114 Cd 0.75579 0.00975 0.92046 0.0
O115 O 0.75296 0.01943 0.94337 0.0
O116 O 0.84037 0.05475 0.92939 0.0
O117 O 0.8213 0.06405 0.91158 0.0
C118 C 0.84113 0.06947 0.91879 0.0
C119 C 0.73798 0.01701 0.89872 0.0
C120 C 0.77099 0.03016 0.95254 0.0
C121 C 0.782 0.9818 0.91765 0.0
O122 O 0.76185 0.98119 0.91778 0.0
O123 O 0.80151 1.00152 0.91992 0.0
O124 O 0.7253 1.00041 0.90887 0.0
O125 O 0.7608 0.0305 0.90143 0.0
O126 O 0.78513 0.02691 0.07645 0.0
Cd127 Cd 0.79647 0.02788 0.09943 0.0
Cd128 Cd 0.77069 0.0508 0.10213 0.0
O129 O 0.7588 0.03922 0.07943 0.0
O130 O 0.81365 0.00924 0.09767 0.0
O131 O 0.78082 0.9967 0.11204 0.0
C132 C 0.79754 0.993 0.10666 0.0
C133 C 0.74581 0.04289 0.12399 0.0
C134 C 0.76928 0.03115 0.07067 0.0
C135 C 0.82376 0.08044 0.10745 0.0
O136 O 0.80453 0.08073 0.1042 0.0
O137 O 0.82374 0.06059 0.10777 0.0
O138 O 0.74823 0.05858 0.1135 0.0
O139 O 0.75646 0.03055 0.12152 0.0
O140 O 0.03718 0.78244 0.07232 0.0
Cd141 Cd 0.0354 0.79815 0.09325 0.0
Cd142 Cd 0.00891 0.7492 0.10085 0.0
O143 O 0.01726 0.7437 0.07832 0.0
O144 O 0.05616 0.83287 0.08789 0.0
O145 O 0.06521 0.81554 0.10707 0.0
C146 C 0.07085 0.83458 0.09883 0.0
C147 C 0.01492 0.73136 0.12308 0.0
C148 C 0.02893 0.76053 0.06846 0.0
C149 C 0.98284 0.77727 0.10198 0.0
O150 O 0.98142 0.7568 0.10268 0.0
O151 O 1.00292 0.79613 0.09911 0.0
O152 O 0.99797 0.71896 0.1131 0.0
O153 O 0.02934 0.7539 0.12001 0.0
O154 O 0.27689 0.28166 0.07434 0.0
Cd155 Cd 0.26234 0.26437 0.09548 0.0
Cd156 Cd 0.31125 0.28786 0.1032 0.0
O157 O 0.31568 0.30075 0.0803 0.0
O158 O 0.22694 0.24924 0.09201 0.0
O159 O 0.24629 0.27762 0.1098 0.0
C160 C 0.22631 0.26295 0.10285 0.0
C161 C 0.32982 0.31265 0.12497 0.0
C162 C 0.29878 0.29544 0.07043 0.0
C163 C 0.2844 0.23381 0.10463 0.0
O164 O 0.30452 0.25314 0.10592 0.0
O165 O 0.2655 0.2345 0.10098 0.0
O166 O 0.34196 0.308 0.11483 0.0
O167 O 0.30714 0.30426 0.12224 0.0
O168 O 0.70387 0.61699 0.40836 0.0
Cd169 Cd 0.7024 0.60069 0.42973 0.0
Cd170 Cd 0.67707 0.62453 0.43737 0.0
O171 O 0.68482 0.63675 0.41432 0.0
O172 O 0.72225 0.58522 0.42569 0.0
O173 O 0.73274 0.61436 0.44309 0.0
C174 C 0.73745 0.59936 0.43601 0.0
C175 C 0.6837 0.64972 0.45895 0.0
C176 C 0.69581 0.6308 0.40439 0.0
C177 C 0.65016 0.57059 0.43991 0.0
O178 O 0.64924 0.58991 0.44058 0.0
O179 O 0.66974 0.57119 0.43634 0.0
O180 O 0.66671 0.64488 0.44894 0.0
O181 O 0.698 0.64136 0.45616 0.0
O182 O 0.44568 0.11805 0.40784 0.0
Cd183 Cd 0.4607 0.13092 0.42971 0.0
Cd184 Cd 0.436 0.08165 0.43495 0.0
O185 O 0.4235 0.07896 0.41208 0.0
O186 O 0.47637 0.16627 0.42598 0.0
O187 O 0.44769 0.14766 0.44367 0.0
C188 C 0.46254 0.16739 0.43653 0.0
C189 C 0.41113 0.06405 0.45676 0.0
C190 C 0.43111 0.09696 0.40284 0.0
C191 C 0.48996 0.10748 0.4382 0.0
O192 O 0.47046 0.08735 0.43768 0.0
O193 O 0.48976 0.12703 0.43605 0.0
O194 O 0.41475 0.05124 0.44656 0.0
O195 O 0.42055 0.08687 0.45403 0.0
O196 O 0.93633 0.35663 0.40917 0.0
Cd197 Cd 0.92522 0.35932 0.43153 0.0
Cd198 Cd 0.97432 0.38348 0.43567 0.0
O199 O 0.97551 0.37263 0.41275 0.0
O200 O 0.88945 0.33959 0.42994 0.0
O201 O 0.91061 0.32968 0.44563 0.0
C202 C 0.88993 0.32481 0.44 0.0
C203 C 0.99238 0.37634 0.45732 0.0
C204 C 0.95712 0.36255 0.40381 0.0
C205 C 0.94928 0.41223 0.43917 0.0
O206 O 0.96932 0.41273 0.4382 0.0
O207 O 0.92957 0.39246 0.43772 0.0
O208 O 0.00504 0.39232 0.44683 0.0
O209 O 0.96941 0.36329 0.45498 0.0
O210 O 0.943 0.36609 0.27979 0.0
Cd211 Cd 0.93103 0.36496 0.25705 0.0
Cd212 Cd 0.95715 0.34197 0.25346 0.0
O213 O 0.96807 0.35223 0.27661 0.0
O214 O 0.91397 0.38369 0.25907 0.0
O215 O 0.94629 0.39592 0.24422 0.0
C216 C 0.92977 0.39974 0.24984 0.0
C217 C 0.98287 0.35043 0.23197 0.0
C218 C 0.95824 0.36091 0.28546 0.0
C219 C 0.90385 0.31253 0.24813 0.0
O220 O 0.92338 0.31232 0.25023 0.0
O221 O 0.90346 0.33213 0.24922 0.0
O222 O 0.9799 0.33435 0.2423 0.0
O223 O 0.97243 0.36296 0.23448 0.0
O224 O 0.68927 0.60961 0.28373 0.0
Cd225 Cd 0.69188 0.59457 0.2627 0.0
Cd226 Cd 0.71816 0.64354 0.25546 0.0
O227 O 0.70896 0.64842 0.27793 0.0
O228 O 0.67121 0.55956 0.2673 0.0
O229 O 0.66277 0.57758 0.24825 0.0
C230 C 0.65706 0.55816 0.25607 0.0
C231 C 0.71234 0.66122 0.23305 0.0
C232 C 0.69723 0.63144 0.2877 0.0
C233 C 0.74476 0.61605 0.25456 0.0
O234 O 0.74605 0.63647 0.25393 0.0
O235 O 0.72468 0.59708 0.25718 0.0
O236 O 0.72891 0.67379 0.24321 0.0
O237 O 0.69813 0.63862 0.23605 0.0
O238 O 0.45413 0.11068 0.2802 0.0
Cd239 Cd 0.46729 0.12539 0.25828 0.0
Cd240 Cd 0.41795 0.10058 0.25291 0.0
O241 O 0.41509 0.08822 0.27585 0.0
O242 O 0.50263 0.1409 0.26214 0.0
O243 O 0.484 0.11198 0.24465 0.0
C244 C 0.50371 0.12681 0.2518 0.0
C245 C 0.40007 0.07558 0.23123 0.0
C246 C 0.43301 0.09605 0.28516 0.0
C247 C 0.44393 0.15453 0.24934 0.0
O248 O 0.42379 0.13506 0.25 0.0
O249 O 0.4635 0.15437 0.25154 0.0
O250 O 0.38742 0.07945 0.24141 0.0
O251 O 0.42289 0.0848 0.23391 0.0
O252 O 0.69489 0.11633 0.27931 0.0
Cd253 Cd 0.69578 0.12704 0.25614 0.0
Cd254 Cd 0.71851 0.1012 0.25379 0.0
O255 O 0.70687 0.08971 0.27655 0.0
O256 O 0.67699 0.14415 0.25725 0.0
O257 O 0.66467 0.11081 0.2435 0.0
C258 C 0.66089 0.12771 0.24839 0.0
C259 C 0.71057 0.07622 0.23202 0.0
C260 C 0.69903 0.10049 0.28523 0.0
C261 C 0.74834 0.15398 0.24796 0.0
O262 O 0.74859 0.13486 0.25157 0.0
O263 O 0.7285 0.15398 0.24748 0.0
O264 O 0.72611 0.07851 0.24258 0.0
O265 O 0.69831 0.087 0.23441 0.0
O266 O 0.95258 0.61055 0.2822 0.0
Cd267 Cd 0.93346 0.59387 0.26201 0.0
Cd268 Cd 0.95537 0.64225 0.25269 0.0
O269 O 0.96925 0.64887 0.27534 0.0
O270 O 0.92019 0.55926 0.26743 0.0
O271 O 0.94498 0.57651 0.24744 0.0
C272 C 0.93223 0.5575 0.25588 0.0
C273 C 0.97947 0.66053 0.23059 0.0
C274 C 0.96557 0.63278 0.28551 0.0
C275 C 0.90112 0.61379 0.25278 0.0
O276 O 0.92007 0.63387 0.25027 0.0
O277 O 0.90255 0.59564 0.25737 0.0
O278 O 0.97417 0.67256 0.24039 0.0
O279 O 0.97198 0.63814 0.23376 0.0
O280 O 0.45836 0.36488 0.27925 0.0
Cd281 Cd 0.46831 0.36389 0.25617 0.0
Cd282 Cd 0.4196 0.34091 0.25372 0.0
O283 O 0.41965 0.35244 0.27649 0.0
O284 O 0.50415 0.38297 0.25751 0.0
O285 O 0.48307 0.395 0.24352 0.0
C286 C 0.50375 0.39905 0.24864 0.0
C287 C 0.40202 0.34852 0.23206 0.0
C288 C 0.43831 0.36056 0.28515 0.0
C289 C 0.44308 0.31133 0.24821 0.0
O290 O 0.4236 0.31106 0.25152 0.0
O291 O 0.46291 0.33118 0.24783 0.0
O292 O 0.38905 0.33292 0.24267 0.0
O293 O 0.42507 0.36097 0.2343 0.0
O294 O 0.45504 0.35904 0.40976 0.0
Cd295 Cd 0.46599 0.36045 0.43288 0.0
Cd296 Cd 0.44041 0.38341 0.43517 0.0
O297 O 0.42907 0.37189 0.41237 0.0
O298 O 0.48269 0.34129 0.43201 0.0
O299 O 0.44956 0.32972 0.4459 0.0
C300 C 0.46622 0.32553 0.44104 0.0
C301 C 0.41524 0.37505 0.45691 0.0
C302 C 0.43946 0.36352 0.40379 0.0
C303 C 0.49337 0.4131 0.44072 0.0
O304 O 0.47413 0.41338 0.43749 0.0
O305 O 0.49336 0.39326 0.441 0.0
O306 O 0.41755 0.39074 0.44644 0.0
O307 O 0.42615 0.36295 0.45445 0.0
O308 O 0.70186 0.1196 0.4094 0.0
Cd309 Cd 0.69979 0.13095 0.43188 0.0
Cd310 Cd 0.67571 0.08166 0.4351 0.0
O311 O 0.68728 0.08057 0.41251 0.0
O312 O 0.71868 0.16649 0.42868 0.0
O313 O 0.73008 0.14776 0.44537 0.0
C314 C 0.7343 0.16759 0.43867 0.0
C315 C 0.68252 0.06437 0.45727 0.0
C316 C 0.69673 0.09919 0.40376 0.0
C317 C 0.64678 0.10631 0.43916 0.0
O318 O 0.64632 0.08651 0.43676 0.0
O319 O 0.66671 0.12608 0.43907 0.0
O320 O 0.66689 0.05131 0.44672 0.0
O321 O 0.69544 0.08729 0.4547 0.0
O322 O 0.9474 0.62009 0.40573 0.0
Cd323 Cd 0.93222 0.60282 0.42689 0.0
Cd324 Cd 0.98133 0.62601 0.43383 0.0
O325 O 0.98623 0.64017 0.41144 0.0
O326 O 0.8973 0.58803 0.42177 0.0
O327 O 0.91448 0.61497 0.44063 0.0
C328 C 0.8954 0.60106 0.43258 0.0
C329 C 0.99822 0.64948 0.45628 0.0
C330 C 0.96913 0.63437 0.4017 0.0
C331 C 0.95432 0.5721 0.43548 0.0
O332 O 0.97474 0.59126 0.43542 0.0
O333 O 0.93514 0.573 0.43324 0.0
O334 O 0.01122 0.64581 0.44626 0.0
O335 O 0.97561 0.64075 0.45309 0.0
O336 O 0.37353 0.95384 0.7385 0.0
Cd337 Cd 0.371 0.93455 0.75864 0.0
Cd338 Cd 0.34498 0.95707 0.76796 0.0
O339 O 0.3526 0.97127 0.74539 0.0
O340 O 0.39196 0.92096 0.75291 0.0
O341 O 0.40009 0.94569 0.77298 0.0
C342 C 0.40608 0.93292 0.76435 0.0
C343 C 0.35109 0.98097 0.79019 0.0
C344 C 0.36477 0.96728 0.73521 0.0
C345 C 0.31867 0.90278 0.76793 0.0
O346 O 0.31775 0.92188 0.77027 0.0
O347 O 0.33819 0.90393 0.76347 0.0
O348 O 0.33385 0.97607 0.78038 0.0
O349 O 0.36575 0.97319 0.78695 0.0
O350 O 0.11418 0.45144 0.73966 0.0
Cd351 Cd 0.13063 0.46533 0.7612 0.0
Cd352 Cd 0.10686 0.41635 0.76776 0.0
O353 O 0.09321 0.41256 0.74522 0.0
O354 O 0.14633 0.50078 0.75775 0.0
O355 O 0.11715 0.48165 0.7751 0.0
C356 C 0.13227 0.50157 0.76826 0.0
C357 C 0.08304 0.39896 0.79011 0.0
C358 C 0.09961 0.42985 0.73551 0.0
C359 C 0.16077 0.44249 0.76943 0.0
O360 O 0.14141 0.42223 0.76935 0.0
O361 O 0.16013 0.46183 0.76737 0.0
O362 O 0.08654 0.38613 0.77987 0.0
O363 O 0.09208 0.42169 0.7872 0.0
O364 O 0.60528 0.69268 0.74387 0.0
Cd365 Cd 0.59519 0.69383 0.76687 0.0
Cd366 Cd 0.64389 0.71673 0.76941 0.0
O367 O 0.644 0.70521 0.74666 0.0
O368 O 0.55936 0.67496 0.76535 0.0
O369 O 0.58007 0.66277 0.77959 0.0
C370 C 0.55951 0.65885 0.77432 0.0
C371 C 0.66104 0.70897 0.79123 0.0
C372 C 0.62534 0.69702 0.73799 0.0
C373 C 0.62049 0.74643 0.7747 0.0
O374 O 0.63997 0.74661 0.77153 0.0
O375 O 0.60062 0.72663 0.77503 0.0
O376 O 0.67423 0.72455 0.78067 0.0
O377 O 0.63802 0.69659 0.78883 0.0
O378 O 0.60754 0.70019 0.6138 0.0
Cd379 Cd 0.59574 0.69874 0.59091 0.0
Cd380 Cd 0.62161 0.67592 0.58792 0.0
O381 O 0.63338 0.68728 0.61067 0.0
O382 O 0.57895 0.71778 0.59243 0.0
O383 O 0.6115 0.7295 0.57789 0.0
C384 C 0.59502 0.73361 0.58322 0.0
C385 C 0.64676 0.68388 0.56619 0.0
C386 C 0.62325 0.69567 0.61948 0.0
C387 C 0.56833 0.64608 0.5831 0.0
O388 O 0.58781 0.64599 0.58579 0.0
O389 O 0.56813 0.66582 0.58312 0.0
O390 O 0.64418 0.66814 0.57668 0.0
O391 O 0.63607 0.69621 0.56857 0.0
O392 O 0.35632 0.94523 0.61629 0.0
Cd393 Cd 0.35859 0.92817 0.59625 0.0
Cd394 Cd 0.38489 0.97653 0.58665 0.0
O395 O 0.37775 0.98347 0.60925 0.0
O396 O 0.3375 0.89375 0.6022 0.0
O397 O 0.32941 0.91022 0.582 0.0
C398 C 0.32336 0.89156 0.59075 0.0
C399 C 0.37864 0.99438 0.56447 0.0
C400 C 0.36544 0.96748 0.61949 0.0
C401 C 0.41076 0.94807 0.58679 0.0
O402 O 0.41182 0.96812 0.58422 0.0
O403 O 0.39124 0.92995 0.59149 0.0
O404 O 0.39614 0.00659 0.57412 0.0
O405 O 0.36385 0.97203 0.56781 0.0
O406 O 0.11918 0.44423 0.6147 0.0
Cd407 Cd 0.13401 0.46086 0.59345 0.0
Cd408 Cd 0.08482 0.43737 0.58573 0.0
O409 O 0.08035 0.4251 0.60881 0.0
O410 O 0.16929 0.47596 0.59743 0.0
O411 O 0.15042 0.44726 0.57977 0.0
C412 C 0.17019 0.46197 0.58692 0.0
C413 C 0.06581 0.41229 0.56414 0.0
C414 C 0.09729 0.43067 0.61869 0.0
C415 C 0.11229 0.49144 0.58362 0.0
O416 O 0.09205 0.47217 0.58259 0.0
O417 O 0.13114 0.49069 0.58735 0.0
O418 O 0.05393 0.41734 0.57423 0.0
O419 O 0.08845 0.42037 0.56684 0.0
O420 O 0.35832 0.43802 0.61594 0.0
Cd421 Cd 0.36029 0.45619 0.59533 0.0
Cd422 Cd 0.38636 0.43315 0.58681 0.0
O423 O 0.37886 0.41992 0.60965 0.0
O424 O 0.33999 0.47056 0.60102 0.0
O425 O 0.3306 0.44471 0.5815 0.0
C426 C 0.32528 0.45816 0.58995 0.0
C427 C 0.38002 0.40873 0.56483 0.0
C428 C 0.36697 0.42463 0.61964 0.0
C429 C 0.41256 0.48735 0.58548 0.0
O430 O 0.41362 0.46818 0.58398 0.0
O431 O 0.39298 0.48638 0.58958 0.0
O432 O 0.39725 0.4137 0.57467 0.0
O433 O 0.3654 0.41659 0.56797 0.0
O434 O 0.61879 0.94374 0.61639 0.0
Cd435 Cd 0.60079 0.92855 0.5955 0.0
Cd436 Cd 0.62346 0.97753 0.58815 0.0
O437 O 0.63786 0.98254 0.61054 0.0
O438 O 0.5865 0.8936 0.60027 0.0
O439 O 0.6127 0.91135 0.58105 0.0
C440 C 0.59912 0.89204 0.58903 0.0
C441 C 0.64672 0.99509 0.56561 0.0
C442 C 0.63275 0.96558 0.6203 0.0
C443 C 0.56932 0.95004 0.58756 0.0
O444 O 0.58846 0.97043 0.58681 0.0
O445 O 0.57043 0.93106 0.59017 0.0
O446 O 0.64275 0.00769 0.57576 0.0
O447 O 0.63841 0.97251 0.56867 0.0
O448 O 0.11629 0.70099 0.61505 0.0
Cd449 Cd 0.13058 0.69929 0.59346 0.0
Cd450 Cd 0.08166 0.67366 0.5869 0.0
O451 O 0.07738 0.68257 0.60953 0.0
O452 O 0.16591 0.71892 0.59736 0.0
O453 O 0.14726 0.72965 0.58008 0.0
C454 C 0.16699 0.7342 0.58708 0.0
C455 C 0.06469 0.68104 0.5648 0.0
C456 C 0.0946 0.69351 0.61924 0.0
C457 C 0.10839 0.64666 0.58446 0.0
O458 O 0.08795 0.64535 0.58477 0.0
O459 O 0.12754 0.66672 0.58669 0.0
O460 O 0.05167 0.6642 0.57471 0.0
O461 O 0.08736 0.69464 0.56791 0.0
O462 O 0.11168 0.69004 0.73958 0.0
Cd463 Cd 0.12957 0.69294 0.76053 0.0
Cd464 Cd 0.10635 0.7186 0.76776 0.0
O465 O 0.09158 0.70866 0.74555 0.0
O466 O 0.14452 0.67296 0.75545 0.0
O467 O 0.11803 0.66346 0.77461 0.0
C468 C 0.13181 0.65822 0.76645 0.0
C469 C 0.08342 0.71137 0.79052 0.0
C470 C 0.09718 0.69729 0.73574 0.0
C471 C 0.16025 0.74613 0.76829 0.0
O472 O 0.14097 0.7472 0.76874 0.0
O473 O 0.15942 0.72608 0.76604 0.0
O474 O 0.08558 0.72735 0.78037 0.0
O475 O 0.09348 0.69866 0.78741 0.0
O476 O 0.37391 0.44782 0.73938 0.0
Cd477 Cd 0.37107 0.46383 0.75981 0.0
Cd478 Cd 0.34519 0.41539 0.76866 0.0
O479 O 0.35298 0.40935 0.74597 0.0
O480 O 0.39214 0.49866 0.75489 0.0
O481 O 0.39971 0.48093 0.77457 0.0
C482 C 0.40585 0.5002 0.76645 0.0
C483 C 0.35174 0.39785 0.79089 0.0
C484 C 0.36516 0.42571 0.7359 0.0
C485 C 0.31865 0.4431 0.76895 0.0
O486 O 0.31774 0.42304 0.77111 0.0
O487 O 0.33819 0.46152 0.76461 0.0
O488 O 0.33453 0.38534 0.78111 0.0
O489 O 0.36617 0.4203 0.78759 0.0
O490 O 0.61402 0.95057 0.74103 0.0
Cd491 Cd 0.59938 0.93415 0.76239 0.0
Cd492 Cd 0.64869 0.95812 0.76979 0.0
O493 O 0.6529 0.9704 0.74676 0.0
O494 O 0.56408 0.91833 0.75828 0.0
O495 O 0.58232 0.94741 0.77576 0.0
C496 C 0.56274 0.93229 0.76861 0.0
C497 C 0.66698 0.98324 0.79143 0.0
C498 C 0.63582 0.96443 0.73695 0.0
C499 C 0.6218 0.90422 0.77246 0.0
O500 O 0.64206 0.92354 0.77298 0.0
O501 O 0.60277 0.90479 0.76901 0.0
O502 O 0.6793 0.97865 0.78141 0.0
O503 O 0.64429 0.97467 0.78862 0.0
H504 H 0.10509 0.28649 0.12568 0.0
H505 H 0.08496 0.23809 0.08595 0.0
H506 H 0.14279 0.2856 0.12822 0.0
H507 H 0.12251 0.23799 0.08799 0.0
H508 H 0.18134 0.22457 0.10003 0.0
H509 H 0.14314 0.22363 0.10288 0.0
H510 H 0.1811 0.29894 0.11591 0.0
H511 H 0.21946 0.29935 0.11387 0.0
C512 C 0.10869 0.27566 0.11752 0.0
C513 C 0.09194 0.26223 0.10569 0.0
C514 C 0.13035 0.27526 0.11891 0.0
C515 C 0.13572 0.26154 0.10841 0.0
C516 C 0.11886 0.24824 0.09659 0.0
C517 C 0.09727 0.24844 0.09533 0.0
C518 C 0.1815 0.24084 0.10373 0.0
C519 C 0.20335 0.2621 0.10656 0.0
C520 C 0.15959 0.24038 0.10525 0.0
C521 C 0.15894 0.26137 0.10924 0.0
C522 C 0.18082 0.2824 0.11286 0.0
C523 C 0.20283 0.28269 0.11165 0.0
H524 H 0.83573 0.98587 0.10414 0.0
H525 H 0.75993 0.94897 0.11567 0.0
H526 H 0.83556 0.94788 0.10502 0.0
H527 H 0.75949 0.9105 0.11603 0.0
H528 H 0.77193 0.84588 0.12352 0.0
H529 H 0.77309 0.88431 0.12789 0.0
H530 H 0.81978 0.91449 0.08742 0.0
H531 H 0.81911 0.87679 0.08335 0.0
C532 C 0.81903 0.96961 0.10699 0.0
C533 C 0.79778 0.97036 0.10964 0.0
C534 C 0.81888 0.94777 0.1074 0.0
C535 C 0.79739 0.92602 0.11023 0.0
C536 C 0.77637 0.92691 0.11383 0.0
C537 C 0.77659 0.94892 0.1136 0.0
C538 C 0.78255 0.86083 0.11566 0.0
C539 C 0.79552 0.85829 0.10314 0.0
C540 C 0.78312 0.88279 0.11811 0.0
C541 C 0.79674 0.90261 0.10811 0.0
C542 C 0.80957 0.89987 0.0956 0.0
C543 C 0.80903 0.8781 0.09319 0.0
H544 H 0.08858 0.87473 0.08066 0.0
H545 H 0.10495 0.84646 0.12217 0.0
H546 H 0.12627 0.9121 0.08341 0.0
H547 H 0.14281 0.8847 0.12532 0.0
H548 H 0.22084 0.94712 0.11246 0.0
H549 H 0.18229 0.90925 0.11364 0.0
H550 H 0.14543 0.94704 0.09894 0.0
H551 H 0.18381 0.98426 0.09707 0.0
C552 C 0.10011 0.87661 0.09054 0.0
C553 C 0.09366 0.8576 0.10124 0.0
C554 C 0.12175 0.89822 0.0922 0.0
C555 C 0.13756 0.90167 0.10472 0.0
C556 C 0.13115 0.88265 0.11549 0.0
C557 C 0.10941 0.86079 0.11375 0.0
C558 C 0.20441 0.94727 0.10969 0.0
C559 C 0.20533 0.96852 0.10444 0.0
C560 C 0.1823 0.92561 0.11041 0.0
C561 C 0.16073 0.92493 0.10607 0.0
C562 C 0.16169 0.94665 0.10188 0.0
C563 C 0.1837 0.96807 0.10091 0.0
H564 H 0.28772 0.10448 0.89966 0.0
H565 H 0.24438 0.08803 0.94181 0.0
H566 H 0.28675 0.14207 0.89666 0.0
H567 H 0.2441 0.12546 0.93919 0.0
H568 H 0.22835 0.18251 0.9259 0.0
H569 H 0.22756 0.14431 0.92398 0.0
H570 H 0.30171 0.18154 0.90827 0.0
H571 H 0.30203 0.2199 0.90953 0.0
C572 C 0.278 0.10887 0.90826 0.0
C573 C 0.266 0.09318 0.92091 0.0
C574 C 0.27755 0.13045 0.9066 0.0
C575 C 0.26514 0.13677 0.91759 0.0
C576 C 0.25331 0.12102 0.93024 0.0
C577 C 0.25362 0.09952 0.93182 0.0
C578 C 0.24439 0.18252 0.92183 0.0
C579 C 0.26533 0.20421 0.91804 0.0
C580 C 0.24402 0.16061 0.92083 0.0
C581 C 0.26475 0.15981 0.91633 0.0
C582 C 0.28538 0.18143 0.91174 0.0
C583 C 0.28562 0.20343 0.91251 0.0
H584 H 0.95074 0.22039 0.90752 0.0
H585 H 0.99058 0.18354 0.91605 0.0
H586 H 0.9133 0.18152 0.90597 0.0
H587 H 0.95369 0.14491 0.91377 0.0
H588 H 0.88372 0.08567 0.934 0.0
H589 H 0.92065 0.12361 0.9307 0.0
H590 H 0.88794 0.14315 0.89318 0.0
H591 H 0.8502 0.10496 0.89694 0.0
C592 C 0.95155 0.20396 0.90865 0.0
C593 C 0.97347 0.20495 0.91215 0.0
C594 C 0.93012 0.18168 0.90772 0.0
C595 C 0.93035 0.16001 0.91008 0.0
C596 C 0.95266 0.16117 0.91239 0.0
C597 C 0.97387 0.18333 0.91359 0.0
C598 C 0.88434 0.09789 0.92494 0.0
C599 C 0.86397 0.09221 0.91571 0.0
C600 C 0.90569 0.11969 0.92294 0.0
C601 C 0.90749 0.13646 0.91154 0.0
C602 C 0.88718 0.13073 0.90215 0.0
C603 C 0.8656 0.10881 0.90422 0.0
H604 H 0.87445 0.81522 0.94106 0.0
H605 H 0.84653 0.77028 0.89971 0.0
H606 H 0.91249 0.8163 0.93791 0.0
H607 H 0.8854 0.77204 0.89617 0.0
H608 H 0.94972 0.75899 0.90841 0.0
H609 H 0.91116 0.75834 0.90755 0.0
H610 H 0.94721 0.83299 0.92203 0.0
H611 H 0.98518 0.83317 0.92357 0.0
C612 C 0.87653 0.80578 0.93114 0.0
C613 C 0.85743 0.79273 0.92061 0.0
C614 C 0.89852 0.80656 0.92924 0.0
C615 C 0.90225 0.79453 0.91664 0.0
C616 C 0.88314 0.78142 0.90605 0.0
C617 C 0.86092 0.7805 0.90803 0.0
C618 C 0.94935 0.7753 0.91119 0.0
C619 C 0.97035 0.79602 0.91628 0.0
C620 C 0.92728 0.77498 0.91066 0.0
C621 C 0.92592 0.79547 0.91504 0.0
C622 C 0.94736 0.81663 0.91906 0.0
C623 C 0.96921 0.81682 0.91983 0.0
H624 H 0.78083 0.63556 0.44709 0.0
H625 H 0.74476 0.56167 0.4313 0.0
H626 H 0.81912 0.63567 0.44794 0.0
H627 H 0.78243 0.56129 0.43285 0.0
H628 H 0.85519 0.57803 0.41453 0.0
H629 H 0.81739 0.57752 0.41741 0.0
H630 H 0.84434 0.6215 0.45928 0.0
H631 H 0.88299 0.62274 0.45598 0.0
C632 C 0.78101 0.6192 0.44415 0.0
C633 C 0.75991 0.59872 0.4389 0.0
C634 C 0.80292 0.61921 0.44468 0.0
C635 C 0.80403 0.59862 0.44016 0.0
C636 C 0.78249 0.57772 0.43593 0.0
C637 C 0.7608 0.57785 0.43515 0.0
C638 C 0.85312 0.58752 0.42443 0.0
C639 C 0.87213 0.60036 0.43506 0.0
C640 C 0.83126 0.58708 0.42616 0.0
C641 C 0.82756 0.5992 0.43871 0.0
C642 C 0.84657 0.61207 0.44942 0.0
C643 C 0.86867 0.61268 0.44759 0.0
H644 H 0.50453 0.31845 0.44144 0.0
H645 H 0.42752 0.28145 0.44861 0.0
H646 H 0.50414 0.2804 0.44328 0.0
H647 H 0.42685 0.24291 0.44977 0.0
H648 H 0.43659 0.17721 0.4583 0.0
H649 H 0.43793 0.21575 0.46251 0.0
H650 H 0.49126 0.24787 0.42556 0.0
H651 H 0.49046 0.2101 0.42177 0.0
C652 C 0.48751 0.30213 0.44354 0.0
C653 C 0.46602 0.30286 0.44469 0.0
C654 C 0.48723 0.28026 0.44448 0.0
C655 C 0.46538 0.25845 0.44628 0.0
C656 C 0.44402 0.25933 0.44841 0.0
C657 C 0.44436 0.28139 0.44771 0.0
C658 C 0.44874 0.19263 0.45122 0.0
C659 C 0.46349 0.19059 0.43975 0.0
C660 C 0.44942 0.21466 0.45356 0.0
C661 C 0.46487 0.23504 0.44448 0.0
C662 C 0.47957 0.23283 0.43307 0.0
C663 C 0.47897 0.211 0.4308 0.0
H664 H 0.88411 0.28091 0.44856 0.0
H665 H 0.84485 0.31843 0.44042 0.0
H666 H 0.846 0.24275 0.45052 0.0
H667 H 0.80695 0.28085 0.44319 0.0
H668 H 0.74864 0.21 0.42365 0.0
H669 H 0.78592 0.24764 0.42664 0.0
H670 H 0.8083 0.21626 0.46341 0.0
H671 H 0.77081 0.17777 0.45992 0.0
C672 C 0.86732 0.28106 0.44763 0.0
C673 C 0.86739 0.30252 0.4441 0.0
C674 C 0.84545 0.25921 0.44879 0.0
C675 C 0.82331 0.25856 0.44667 0.0
C676 C 0.82358 0.28046 0.44437 0.0
C677 C 0.84532 0.30208 0.44291 0.0
C678 C 0.76135 0.21105 0.43249 0.0
C679 C 0.75667 0.19083 0.44157 0.0
C680 C 0.78278 0.23283 0.4343 0.0
C681 C 0.80015 0.23523 0.44541 0.0
C682 C 0.79542 0.21505 0.45467 0.0
C683 C 0.77389 0.19304 0.45275 0.0
H684 H 0.96711 0.44365 0.24037 0.0
H685 H 0.89159 0.40683 0.2527 0.0
H686 H 0.96745 0.48207 0.23989 0.0
H687 H 0.89165 0.44475 0.25166 0.0
H688 H 0.90833 0.51618 0.27284 0.0
H689 H 0.90765 0.47845 0.26894 0.0
H690 H 0.9536 0.50802 0.22808 0.0
H691 H 0.9548 0.54649 0.23229 0.0
C692 C 0.95047 0.4437 0.2426 0.0
C693 C 0.92942 0.42232 0.2468 0.0
C694 C 0.95064 0.46568 0.24229 0.0
C695 C 0.92968 0.46659 0.24605 0.0
C696 C 0.90828 0.44486 0.24915 0.0
C697 C 0.9082 0.42306 0.24965 0.0
C698 C 0.91824 0.51473 0.26295 0.0
C699 C 0.93157 0.53438 0.25285 0.0
C700 C 0.91769 0.49293 0.26063 0.0
C701 C 0.93032 0.49002 0.24806 0.0
C702 C 0.94373 0.50967 0.23791 0.0
C703 C 0.94433 0.53166 0.24027 0.0
H704 H 0.64093 0.5159 0.27174 0.0
H705 H 0.62283 0.54783 0.23303 0.0
H706 H 0.60436 0.47795 0.26735 0.0
H707 H 0.58603 0.50915 0.22831 0.0
H708 H 0.5091 0.44296 0.24048 0.0
H709 H 0.5467 0.48181 0.24021 0.0
H710 H 0.58682 0.44527 0.24928 0.0
H711 H 0.54941 0.40689 0.25012 0.0
C712 C 0.62925 0.51477 0.26215 0.0
C713 C 0.63489 0.53494 0.25272 0.0
C714 C 0.60828 0.49285 0.25954 0.0
C715 C 0.59231 0.49032 0.24734 0.0
C716 C 0.59788 0.51049 0.23784 0.0
C717 C 0.619 0.5326 0.2405 0.0
C718 C 0.52603 0.44328 0.24213 0.0
C719 C 0.52631 0.42196 0.24556 0.0
C720 C 0.54758 0.46552 0.24195 0.0
C721 C 0.56978 0.46674 0.24506 0.0
C722 C 0.57003 0.44512 0.24731 0.0
C723 C 0.54858 0.42306 0.24769 0.0
H724 H 0.54617 0.15408 0.26698 0.0
H725 H 0.51355 0.1006 0.23028 0.0
H726 H 0.58371 0.15419 0.26367 0.0
H727 H 0.55187 0.10126 0.22655 0.0
H728 H 0.61651 0.08954 0.2407 0.0
H729 H 0.5783 0.08954 0.23944 0.0
H730 H 0.61669 0.16668 0.24644 0.0
H731 H 0.6544 0.1664 0.24839 0.0
C732 C 0.5471 0.14254 0.25801 0.0
C733 C 0.52682 0.12736 0.24887 0.0
C734 C 0.56879 0.14274 0.25602 0.0
C735 C 0.57102 0.12794 0.2447 0.0
C736 C 0.55078 0.1128 0.23543 0.0
C737 C 0.52887 0.11251 0.2375 0.0
C738 C 0.61672 0.1065 0.24172 0.0
C739 C 0.63836 0.12791 0.24488 0.0
C740 C 0.59485 0.10654 0.24096 0.0
C741 C 0.5943 0.12805 0.24316 0.0
C742 C 0.61627 0.14966 0.24518 0.0
C743 C 0.63795 0.14955 0.24618 0.0
H744 H 0.42434 0.91129 0.7459 0.0
H745 H 0.4391 0.95335 0.78846 0.0
H746 H 0.46167 0.91091 0.74905 0.0
H747 H 0.47658 0.95229 0.79197 0.0
H748 H 0.55493 0.96784 0.7802 0.0
H749 H 0.51655 0.96759 0.7809 0.0
H750 H 0.47978 0.89383 0.76457 0.0
H751 H 0.51801 0.89455 0.76323 0.0
C752 C 0.43544 0.92024 0.75608 0.0
C753 C 0.42865 0.93228 0.76696 0.0
C754 C 0.45686 0.91986 0.75797 0.0
C755 C 0.4721 0.93131 0.77089 0.0
C756 C 0.46535 0.94339 0.78184 0.0
C757 C 0.44383 0.9439 0.77988 0.0
C758 C 0.53854 0.95153 0.77696 0.0
C759 C 0.53948 0.93134 0.77143 0.0
C760 C 0.51654 0.95133 0.77741 0.0
C761 C 0.49507 0.93084 0.77248 0.0
C762 C 0.49599 0.91019 0.76797 0.0
C763 C 0.51791 0.91052 0.76731 0.0
H764 H 0.09607 0.50875 0.7794 0.0
H765 H 0.17051 0.5465 0.76461 0.0
H766 H 0.09642 0.54711 0.78087 0.0
H767 H 0.17134 0.58469 0.76679 0.0
H768 H 0.15552 0.64151 0.74865 0.0
H769 H 0.15581 0.60412 0.75135 0.0
H770 H 0.11062 0.5862 0.79274 0.0
H771 H 0.10962 0.62376 0.78962 0.0
C772 C 0.11264 0.5253 0.77683 0.0
C773 C 0.13315 0.52464 0.77166 0.0
C774 C 0.1129 0.5473 0.77772 0.0
C775 C 0.13378 0.56904 0.77363 0.0
C776 C 0.1547 0.56832 0.76953 0.0
C777 C 0.15431 0.54641 0.76839 0.0
C778 C 0.14573 0.62975 0.75842 0.0
C779 C 0.13261 0.63572 0.76895 0.0
C780 C 0.14605 0.60827 0.76005 0.0
C781 C 0.13349 0.59214 0.77239 0.0
C782 C 0.12039 0.59811 0.78304 0.0
C783 C 0.11993 0.61969 0.78132 0.0
H784 H 0.43943 0.51061 0.78994 0.0
H785 H 0.42262 0.54229 0.75045 0.0
H786 H 0.47627 0.54922 0.79477 0.0
H787 H 0.45922 0.58018 0.75497 0.0
H788 H 0.51399 0.65129 0.77229 0.0
H789 H 0.47644 0.61304 0.773 0.0
H790 H 0.51596 0.57619 0.78305 0.0
H791 H 0.55371 0.6149 0.78288 0.0
C792 C 0.44355 0.52577 0.78233 0.0
C793 C 0.42802 0.52338 0.76986 0.0
C794 C 0.46469 0.54784 0.78504 0.0
C795 C 0.47062 0.56792 0.77536 0.0
C796 C 0.45502 0.56535 0.76292 0.0
C797 C 0.43403 0.54346 0.76024 0.0
C798 C 0.51466 0.63508 0.77491 0.0
C799 C 0.53681 0.63605 0.77734 0.0
C800 C 0.49313 0.6131 0.77522 0.0
C801 C 0.49319 0.59143 0.77771 0.0
C802 C 0.51524 0.59252 0.78112 0.0
C803 C 0.53688 0.61468 0.781 0.0
H804 H 0.55691 0.74098 0.5848 0.0
H805 H 0.6331 0.77749 0.57448 0.0
H806 H 0.55737 0.77909 0.58351 0.0
H807 H 0.63385 0.81609 0.5738 0.0
H808 H 0.62285 0.88142 0.56602 0.0
H809 H 0.62131 0.84281 0.56169 0.0
H810 H 0.57241 0.81225 0.60111 0.0
H811 H 0.57344 0.85011 0.6051 0.0
C812 C 0.57376 0.75719 0.58213 0.0
C813 C 0.59502 0.7563 0.57993 0.0
C814 C 0.57408 0.7791 0.58149 0.0
C815 C 0.59576 0.80079 0.57893 0.0
C816 C 0.61682 0.79975 0.57578 0.0
C817 C 0.61642 0.77765 0.5762 0.0
C818 C 0.61165 0.86634 0.57365 0.0
C819 C 0.59818 0.86883 0.58586 0.0
C820 C 0.61086 0.84427 0.57122 0.0
C821 C 0.59654 0.82429 0.58094 0.0
C822 C 0.58317 0.82697 0.59312 0.0
C823 C 0.58391 0.84884 0.5955 0.0
H824 H 0.17439 0.77747 0.57554 0.0
H825 H 0.21187 0.74139 0.59217 0.0
H826 H 0.21266 0.81568 0.5747 0.0
H827 H 0.24996 0.77898 0.59071 0.0
H828 H 0.30516 0.85182 0.60936 0.0
H829 H 0.26784 0.81413 0.60633 0.0
H830 H 0.25264 0.84041 0.56338 0.0
H831 H 0.29015 0.87893 0.56674 0.0
C832 C 0.19087 0.77762 0.57867 0.0
C833 C 0.19013 0.75656 0.58415 0.0
C834 C 0.2128 0.79948 0.57815 0.0
C835 C 0.23438 0.80055 0.58294 0.0
C836 C 0.23365 0.77904 0.5874 0.0
C837 C 0.21181 0.75741 0.58814 0.0
C838 C 0.294 0.84964 0.5992 0.0
C839 C 0.30073 0.8684 0.58826 0.0
C840 C 0.27258 0.82785 0.59739 0.0
C841 C 0.25728 0.82401 0.58448 0.0
C842 C 0.26394 0.84278 0.57349 0.0
C843 C 0.28547 0.8648 0.57537 0.0
H844 H 0.29156 0.43764 0.56623 0.0
H845 H 0.30803 0.48061 0.60849 0.0
H846 H 0.25443 0.43944 0.563 0.0
H847 H 0.27102 0.48169 0.60565 0.0
H848 H 0.21533 0.49918 0.59194 0.0
H849 H 0.25312 0.49905 0.59031 0.0
H850 H 0.21483 0.42515 0.57429 0.0
H851 H 0.17691 0.42577 0.57526 0.0
C852 C 0.28727 0.44743 0.57481 0.0
C853 C 0.30284 0.45911 0.58755 0.0
C854 C 0.26594 0.44837 0.57302 0.0
C855 C 0.25978 0.46093 0.58396 0.0
C856 C 0.27538 0.47239 0.59673 0.0
C857 C 0.29662 0.47161 0.59844 0.0
C858 C 0.215 0.483 0.58787 0.0
C859 C 0.19315 0.46239 0.5839 0.0
C860 C 0.23667 0.48284 0.58703 0.0
C861 C 0.23705 0.4619 0.58253 0.0
C862 C 0.21528 0.44162 0.57777 0.0
C863 C 0.19353 0.44192 0.57836 0.0
H864 H 0.04799 0.32395 0.14919 0.0
H865 H 0.99035 0.33541 0.13344 0.0
H866 H 0.04564 0.33835 0.17542 0.0
H867 H 0.98749 0.34903 0.15961 0.0
H868 H 0.98962 0.38001 0.20673 0.0
H869 H 1.00392 0.37772 0.18045 0.0
H870 H 0.01762 0.3217 0.19666 0.0
H871 H 1.0041 0.32453 0.22289 0.0
C872 C 0.03508 0.32989 0.15124 0.0
C873 C 0.01921 0.3283 0.13924 0.0
C874 C 0.0336 0.33798 0.16632 0.0
C875 C 0.01617 0.34461 0.16976 0.0
C876 C 1.00131 0.34436 0.15745 0.0
C877 C 1.00285 0.33636 0.14239 0.0
C878 C 0.99621 0.36761 0.20476 0.0
C879 C 0.99547 0.35229 0.21689 0.0
C880 C 1.00425 0.36615 0.18965 0.0
C881 C 0.01165 0.34929 0.18631 0.0
C882 C 0.01231 0.33507 0.19874 0.0
C883 C 0.00437 0.33659 0.21383 0.0
H884 H 0.73001 0.68531 0.13447 0.0
H885 H 0.73932 0.75346 0.1504 0.0
H886 H 0.7164 0.66839 0.1606 0.0
H887 H 0.72513 0.7363 0.17662 0.0
H888 H 0.7394 0.70821 0.22395 0.0
H889 H 0.74278 0.72487 0.19772 0.0
H890 H 0.68644 0.65565 0.18121 0.0
H891 H 0.68342 0.63877 0.20752 0.0
C892 C 0.72866 0.69656 0.14347 0.0
C893 C 0.73602 0.72083 0.14037 0.0
C894 C 0.72066 0.68677 0.15848 0.0
C895 C 0.71983 0.70101 0.1708 0.0
C896 C 0.7259 0.72493 0.16746 0.0
C897 C 0.73388 0.73473 0.15241 0.0
C898 C 0.72743 0.6966 0.21481 0.0
C899 C 0.71132 0.67207 0.21781 0.0
C900 C 0.72925 0.70623 0.19975 0.0
C901 C 0.71502 0.69158 0.18727 0.0
C902 C 0.69794 0.66736 0.19049 0.0
C903 C 0.69609 0.65771 0.2056 0.0
H904 H 0.37786 0.06994 0.13289 0.0
H905 H 0.30815 0.01307 0.14834 0.0
H906 H 0.39407 0.072 0.15907 0.0
H907 H 0.32461 0.01466 0.17459 0.0
H908 H 0.35311 0.0559 0.22214 0.0
H909 H 0.3366 0.04288 0.19589 0.0
H910 H 0.40549 0.05418 0.17971 0.0
H911 H 0.42226 0.06794 0.20601 0.0
C912 C 0.3661 0.05746 0.14179 0.0
C913 C 0.34162 0.04154 0.13855 0.0
C914 C 0.37547 0.05853 0.15683 0.0
C915 C 0.36063 0.04364 0.16904 0.0
C916 C 0.33646 0.02668 0.16554 0.0
C917 C 0.32705 0.02565 0.15046 0.0
C918 C 0.36466 0.0552 0.21308 0.0
C919 C 0.38911 0.06328 0.21614 0.0
C920 C 0.35512 0.04755 0.19799 0.0
C921 C 0.36975 0.0477 0.18558 0.0
C922 C 0.39381 0.05425 0.18891 0.0
C923 C 0.40339 0.06198 0.20403 0.0
H924 H 0.33509 0.98825 0.88862 0.0
H925 H 0.32415 0.04613 0.87267 0.0
H926 H 0.34888 0.98532 0.86247 0.0
H927 H 0.33853 0.04355 0.84645 0.0
H928 H 0.32371 1.00045 0.79941 0.0
H929 H 0.32079 0.0141 0.82559 0.0
H930 H 0.37845 0.00282 0.84161 0.0
H931 H 0.38103 0.98859 0.81534 0.0
C932 C 0.33615 1.00075 0.87962 0.0
C933 C 0.32822 0.01723 0.88269 0.0
C934 C 0.34424 0.99917 0.86461 0.0
C935 C 0.34463 0.01405 0.85228 0.0
C936 C 0.3381 0.03156 0.85561 0.0
C937 C 0.33001 0.03315 0.87067 0.0
C938 C 0.33608 1.00126 0.80842 0.0
C939 C 0.35241 0.99315 0.80532 0.0
C940 C 0.33452 0.00928 0.82345 0.0
C941 C 0.34925 0.0094 0.83578 0.0
C942 C 0.36658 0.00262 0.83244 0.0
C943 C 0.36817 0.99461 0.81736 0.0
H944 H 0.07507 0.4213 0.81511 0.0
H945 H 0.06424 0.35233 0.79973 0.0
H946 H 0.06063 0.4047 0.84139 0.0
H947 H 0.05058 0.336 0.82596 0.0
H948 H 0.01796 0.30715 0.87287 0.0
H949 H 0.02128 0.32369 0.84645 0.0
H950 H 0.07679 0.39335 0.86296 0.0
H951 H 0.07293 0.37705 0.88934 0.0
C952 C 0.06931 0.40253 0.81727 0.0
C953 C 0.07101 0.38822 0.80534 0.0
C954 C 0.06119 0.39303 0.83237 0.0
C955 C 0.05464 0.36903 0.83591 0.0
C956 C 0.05517 0.35445 0.82371 0.0
C957 C 0.06319 0.3639 0.80863 0.0
C958 C 0.03049 0.32611 0.87092 0.0
C959 C 0.04533 0.3407 0.88321 0.0
C960 C 0.03254 0.33557 0.85573 0.0
C961 C 0.04954 0.35982 0.85246 0.0
C962 C 0.06334 0.37468 0.865 0.0
C963 C 0.06122 0.36526 0.88017 0.0
H964 H 0.7082 0.73485 0.80023 0.0
H965 H 0.63814 0.68007 0.81671 0.0
H966 H 0.7246 0.73806 0.8265 0.0
H967 H 0.65476 0.68276 0.84301 0.0
H968 H 0.68379 0.72562 0.88971 0.0
H969 H 0.66735 0.71215 0.86351 0.0
H970 H 0.7357 0.72129 0.84796 0.0
H971 H 0.75243 0.73551 0.87424 0.0
C972 C 0.6964 0.72303 0.80937 0.0
C973 C 0.67177 0.70742 0.80639 0.0
C974 C 0.70588 0.72477 0.82448 0.0
C975 C 0.69098 0.71087 0.83699 0.0
C976 C 0.66667 0.69409 0.83374 0.0
C977 C 0.65716 0.69241 0.81862 0.0
C978 C 0.69525 0.72441 0.8808 0.0
C979 C 0.71952 0.73191 0.88405 0.0
C980 C 0.68574 0.71648 0.86574 0.0
C981 C 0.70021 0.71576 0.85352 0.0
C982 C 0.72414 0.72199 0.85701 0.0
C983 C 0.73369 0.72999 0.87211 0.0
H984 H 0.05272 0.71015 0.89093 0.0
H985 H 0.03536 0.76018 0.8688 0.0
H986 H 0.05586 0.69524 0.86515 0.0
H987 H 0.04046 0.74703 0.84302 0.0
H988 H 0.0458 0.71869 0.79673 0.0
H989 H 0.03049 0.72143 0.82246 0.0
H990 H 0.08182 0.7055 0.84473 0.0
H991 H 0.09537 0.70079 0.81897 0.0
C992 C 0.04944 0.71784 0.88049 0.0
C993 C 0.04384 0.73632 0.88183 0.0
C994 C 0.05155 0.70954 0.86565 0.0
C995 C 0.04894 0.72013 0.85175 0.0
C996 C 0.04228 0.73797 0.85325 0.0
C997 C 0.03945 0.74571 0.8681 0.0
C998 C 0.05332 0.71523 0.80719 0.0
C999 C 0.07178 0.70958 0.80589 0.0
C1000 C 0.04478 0.71709 0.822 0.0
C1001 C 0.05512 0.71421 0.83593 0.0
C1002 C 0.07296 0.70753 0.83447 0.0
C1003 C 0.08093 0.70493 0.81963 0.0
H1004 H 0.32397 0.35131 0.80064 0.0
H1005 H 0.38244 0.4203 0.81569 0.0
H1006 H 0.32138 0.33522 0.82694 0.0
H1007 H 0.38025 0.40395 0.84207 0.0
H1008 H 0.33857 0.37697 0.88973 0.0
H1009 H 0.35189 0.39298 0.86338 0.0
H1010 H 0.33871 0.32326 0.84772 0.0
H1011 H 0.32473 0.30703 0.87413 0.0
C1012 C 0.33666 0.36292 0.80948 0.0
C1013 C 0.35322 0.38719 0.80609 0.0
C1014 C 0.33529 0.35361 0.82459 0.0
C1015 C 0.35047 0.36831 0.83673 0.0
C1016 C 0.36802 0.39222 0.83308 0.0
C1017 C 0.36939 0.40156 0.81793 0.0
C1018 C 0.33892 0.36512 0.88076 0.0
C1019 C 0.33028 0.34063 0.88401 0.0
C1020 C 0.34674 0.37438 0.86562 0.0
C1021 C 0.34616 0.35938 0.85333 0.0
C1022 C 0.339 0.33523 0.85684 0.0
C1023 C 0.33114 0.32595 0.87201 0.0
H1024 H 0.7602 0.04708 0.87359 0.0
H1025 H 0.69089 0.99034 0.88975 0.0
H1026 H 0.74317 0.045 0.84748 0.0
H1027 H 0.67411 0.98782 0.86369 0.0
H1028 H 0.64512 0.99118 0.81674 0.0
H1029 H 0.66225 0.00525 0.84294 0.0
H1030 H 0.73088 0.01626 0.82644 0.0
H1031 H 0.71401 0.00286 0.80031 0.0
C1032 C 0.74125 0.03444 0.87166 0.0
C1033 C 0.72698 0.01871 0.88373 0.0
C1034 C 0.73152 0.03313 0.85665 0.0
C1035 C 0.70731 0.01605 0.85338 0.0
C1036 C 0.69273 1.00136 0.86575 0.0
C1037 C 0.70244 0.0027 0.88073 0.0
C1038 C 0.66401 0.99713 0.81863 0.0
C1039 C 0.67812 0.99565 0.80646 0.0
C1040 C 0.67379 0.00504 0.83368 0.0
C1041 C 0.6979 0.01164 0.8369 0.0
C1042 C 0.71234 0.01157 0.82443 0.0
C1043 C 0.70259 0.0037 0.80942 0.0
H1044 H 0.73861 0.01287 0.14905 0.0
H1045 H 0.72535 0.06936 0.13333 0.0
H1046 H 0.72408 0.01482 0.17531 0.0
H1047 H 0.71169 0.07191 0.15956 0.0
H1048 H 0.73703 0.0557 0.2228 0.0
H1049 H 0.74012 0.04254 0.19653 0.0
H1050 H 0.68344 0.05539 0.1805 0.0
H1051 H 0.68097 0.06942 0.20681 0.0
C1052 C 0.73228 0.02546 0.15112 0.0
C1053 C 0.73337 0.04112 0.13912 0.0
C1054 C 0.7241 0.02672 0.16622 0.0
C1055 C 0.71697 0.04375 0.16969 0.0
C1056 C 0.71676 0.05838 0.15738 0.0
C1057 C 0.72478 0.05703 0.1423 0.0
C1058 C 0.7249 0.05532 0.21377 0.0
C1059 C 0.70896 0.06392 0.21688 0.0
C1060 C 0.72656 0.04759 0.19865 0.0
C1061 C 0.71222 0.04811 0.18626 0.0
C1062 C 0.69512 0.0552 0.18965 0.0
C1063 C 0.69356 0.06308 0.20478 0.0
H1064 H 0.9877 0.68441 0.13216 0.0
H1065 H 0.0445 0.75357 0.14837 0.0
H1066 H 0.98463 0.66766 0.15832 0.0
H1067 H 0.04179 0.7366 0.17461 0.0
H1068 H 0.99825 0.70734 0.22146 0.0
H1069 H 0.01201 0.72422 0.19534 0.0
H1070 H 1.00234 0.65597 0.17927 0.0
H1071 H 0.988 0.63885 0.20547 0.0
C1072 C 0.99993 0.69593 0.14123 0.0
C1073 C 0.01615 0.72042 0.13821 0.0
C1074 C 0.99828 0.68625 0.15625 0.0
C1075 C 0.01282 0.70081 0.16865 0.0
C1076 C 0.03006 0.72497 0.16539 0.0
C1077 C 0.03172 0.73467 0.15033 0.0
C1078 C 0.99944 0.69601 0.21245 0.0
C1079 C 0.99174 0.67165 0.21552 0.0
C1080 C 0.00752 0.70577 0.19746 0.0
C1081 C 0.00811 0.69142 0.18513 0.0
C1082 C 1.00176 0.66742 0.18844 0.0
C1083 C 0.99368 0.65764 0.20348 0.0
H1084 H 0.30861 0.3217 0.15017 0.0
H1085 H 0.37674 0.33126 0.13383 0.0
H1086 H 0.32613 0.33631 0.17622 0.0
H1087 H 0.39396 0.34512 0.15981 0.0
H1088 H 0.35465 0.32276 0.22352 0.0
H1089 H 0.33765 0.31954 0.19745 0.0
H1090 H 0.40719 0.37456 0.18031 0.0
H1091 H 0.42442 0.37725 0.20642 0.0
C1092 C 0.32741 0.32726 0.15206 0.0
C1093 C 0.34119 0.32509 0.13995 0.0
C1094 C 0.33742 0.33548 0.16703 0.0
C1095 C 0.36142 0.34167 0.17023 0.0
C1096 C 0.37553 0.34079 0.15782 0.0
C1097 C 0.36556 0.33265 0.14288 0.0
C1098 C 0.36627 0.33451 0.21428 0.0
C1099 C 0.39098 0.35005 0.21703 0.0
C1100 C 0.35644 0.33277 0.19929 0.0
C1101 C 0.37106 0.3466 0.18666 0.0
C1102 C 0.39548 0.3633 0.18967 0.0
C1103 C 0.40534 0.36498 0.20468 0.0
H1104 H 0.65321 0.71311 0.54082 0.0
H1105 H 0.66859 0.65843 0.55739 0.0
H1106 H 0.66807 0.71106 0.51468 0.0
H1107 H 0.6827 0.65585 0.53129 0.0
H1108 H 0.71411 0.65878 0.48406 0.0
H1109 H 0.71115 0.67312 0.51019 0.0
H1110 H 0.6521 0.68203 0.49395 0.0
H1111 H 0.65553 0.66844 0.46789 0.0
C1112 C 0.6601 0.70093 0.53896 0.0
C1113 C 0.65946 0.68575 0.55116 0.0
C1114 C 0.66847 0.69963 0.52394 0.0
C1115 C 0.67632 0.68307 0.52076 0.0
C1116 C 0.67704 0.66899 0.53326 0.0
C1117 C 0.66877 0.67035 0.54827 0.0
C1118 C 0.70088 0.66434 0.486 0.0
C1119 C 0.6849 0.66223 0.47392 0.0
C1120 C 0.69905 0.67239 0.50101 0.0
C1121 C 0.68119 0.67849 0.50429 0.0
C1122 C 0.66624 0.67776 0.4919 0.0
C1123 C 0.6681 0.66978 0.47692 0.0
H1124 H 0.39029 0.01692 0.46572 0.0
H1125 H 0.40477 0.08668 0.48221 0.0
H1126 H 0.37729 1.00042 0.49201 0.0
H1127 H 0.39112 0.06996 0.50856 0.0
H1128 H 0.40672 0.04094 0.55488 0.0
H1129 H 0.40892 0.05748 0.52878 0.0
H1130 H 0.34928 0.98926 0.51362 0.0
H1131 H 0.34745 0.97246 0.53981 0.0
C1132 C 0.39014 0.02863 0.47488 0.0
C1133 C 0.39888 0.05321 0.4719 0.0
C1134 C 0.38251 0.01909 0.48998 0.0
C1135 C 0.38339 0.0339 0.50249 0.0
C1136 C 0.39062 0.05814 0.49926 0.0
C1137 C 0.39828 0.0677 0.48412 0.0
C1138 C 0.39378 0.02954 0.54608 0.0
C1139 C 0.37709 0.00528 0.54939 0.0
C1140 C 0.39493 0.03911 0.53109 0.0
C1141 C 0.37939 0.02468 0.51901 0.0
C1142 C 0.36176 1.00078 0.52258 0.0
C1143 C 0.36061 0.99118 0.53762 0.0
H1144 H 0.03978 0.40259 0.46575 0.0
H1145 H 0.97041 0.34748 0.48299 0.0
H1146 H 0.05708 0.40584 0.49173 0.0
H1147 H 0.98793 0.35028 0.50902 0.0
H1148 H 0.01876 0.39358 0.55554 0.0
H1149 H 1.00125 0.37979 0.52961 0.0
H1150 H 0.06896 0.38884 0.51273 0.0
H1151 H 0.08674 0.40331 0.53874 0.0
C1152 C 0.02831 0.39073 0.475 0.0
C1153 C 1.00362 0.37498 0.47231 0.0
C1154 C 0.03831 0.39249 0.48993 0.0
C1155 C 0.02389 0.3785 0.50258 0.0
C1156 C 0.99949 0.36165 0.49964 0.0
C1157 C 0.98947 0.35991 0.48467 0.0
C1158 C 0.02985 0.39224 0.5464 0.0
C1159 C 0.05426 0.39983 0.5492 0.0
C1160 C 0.01972 0.38415 0.53149 0.0
C1161 C 0.03371 0.38337 0.51897 0.0
C1162 C 0.05776 0.38959 0.52202 0.0
C1163 C 0.06792 0.39772 0.53697 0.0
H1164 H 0.40852 0.39068 0.5553 0.0
H1165 H 0.34916 0.39966 0.53998 0.0
H1166 H 0.41153 0.37724 0.5291 0.0
H1167 H 0.35173 0.3855 0.51369 0.0
H1168 H 0.39326 0.40024 0.466 0.0
H1169 H 0.37967 0.40283 0.49228 0.0
H1170 H 0.39505 0.34796 0.5085 0.0
H1171 H 0.40938 0.34589 0.4822 0.0
C1172 C 0.39571 0.38925 0.54643 0.0
C1173 C 0.37877 0.39653 0.54971 0.0
C1174 C 0.39733 0.38135 0.53137 0.0
C1175 C 0.382 0.38044 0.51918 0.0
C1176 C 0.36409 0.38635 0.52272 0.0
C1177 C 0.36249 0.39431 0.53782 0.0
C1178 C 0.39334 0.38838 0.47508 0.0
C1179 C 0.40272 0.37308 0.47203 0.0
C1180 C 0.38537 0.38976 0.49018 0.0
C1181 C 0.38649 0.37581 0.50262 0.0
C1182 C 0.39436 0.35932 0.49929 0.0
C1183 C 0.40242 0.35799 0.48417 0.0
H1184 H 0.665 0.04164 0.55599 0.0
H1185 H 0.65472 0.97292 0.54051 0.0
H1186 H 0.67845 0.05806 0.52975 0.0
H1187 H 0.66889 0.9896 0.51421 0.0
H1188 H 0.71112 0.08712 0.48286 0.0
H1189 H 0.70796 0.07049 0.50924 0.0
H1190 H 0.65225 1.00092 0.49275 0.0
H1191 H 0.65591 0.01732 0.46641 0.0
C1192 C 0.6661 0.03015 0.54707 0.0
C1193 C 0.65852 0.00587 0.55033 0.0
C1194 C 0.67401 0.03965 0.53199 0.0
C1195 C 0.67463 0.02515 0.51976 0.0
C1196 C 0.66828 1.00119 0.52326 0.0
C1197 C 0.6603 0.99166 0.53838 0.0
C1198 C 0.69857 0.06816 0.4848 0.0
C1199 C 0.68361 0.05363 0.47255 0.0
C1200 C 0.69662 0.05865 0.49997 0.0
C1201 C 0.67963 0.0344 0.50323 0.0
C1202 C 0.6657 0.01959 0.49071 0.0
C1203 C 0.6677 0.02906 0.47557 0.0
H1204 H 0.97507 0.6563 0.48127 0.0
H1205 H 0.04482 0.6689 0.46606 0.0
H1206 H 0.99103 0.66983 0.50777 0.0
H1207 H 0.06053 0.68174 0.49249 0.0
H1208 H 0.08775 0.71175 0.5401 0.0
H1209 H 0.07172 0.71009 0.51371 0.0
H1210 H 1.00226 0.65213 0.52869 0.0
H1211 H 0.01803 0.65424 0.55503 0.0
C1212 C 0.99389 0.66231 0.4835 0.0
C1213 C 0.00859 0.66127 0.47158 0.0
C1214 C 1.00301 0.66992 0.49873 0.0
C1215 C 0.02702 0.67664 0.50235 0.0
C1216 C 0.04204 0.67695 0.49015 0.0
C1217 C 0.03295 0.6694 0.47497 0.0
C1218 C 0.06892 0.69902 0.53783 0.0
C1219 C 0.05425 0.68295 0.54963 0.0
C1220 C 0.05976 0.69795 0.52267 0.0
C1221 C 0.03575 0.68078 0.51898 0.0
C1222 C 0.02075 0.66575 0.53108 0.0
C1223 C 0.02987 0.66685 0.54621 0.0
H1224 H 0.01188 0.31809 0.0527 0.0
H1225 H 0.05337 0.28187 0.049 0.0
H1226 H 0.01142 0.32062 0.02376 0.0
H1227 H 0.05259 0.28424 0.02048 0.0
H1228 H 0.0144 0.25858 0.97379 0.0
H1229 H 0.01452 0.26189 1.00229 0.0
H1230 H 0.04253 0.33848 0.99844 0.0
H1231 H 0.0427 0.33536 0.96955 0.0
C1232 C 0.02122 0.31106 0.04579 0.0
C1233 C 0.03237 0.29948 0.0532 0.0
C1234 C 0.02092 0.31251 0.02926 0.0
C1235 C 0.0316 0.30223 0.01994 0.0
C1236 C 0.04385 0.29192 0.02739 0.0
C1237 C 0.04432 0.29064 0.04377 0.0
C1238 C 0.02036 0.27616 0.97889 0.0
C1239 C 0.02885 0.29676 0.96932 0.0
C1240 C 0.02047 0.27803 0.99526 0.0
C1241 C 0.02887 0.30048 1.00255 0.0
C1242 C 0.03602 0.32096 0.99308 0.0
C1243 C 0.03612 0.31914 0.97657 0.0
H1244 H 0.72004 0.7497 0.97088 0.0
H1245 H 0.78797 0.75107 0.97466 0.0
H1246 H 0.71485 0.74466 0.99954 0.0
H1247 H 0.78239 0.74536 1.00317 0.0
H1248 H 0.75723 0.72119 0.05376 0.0
H1249 H 0.75176 0.71484 0.02519 0.0
H1250 H 0.74378 0.77761 0.02099 0.0
H1251 H 0.74994 0.78439 0.04939 0.0
C1252 C 0.73348 0.74818 0.97776 0.0
C1253 C 0.75447 0.75089 0.97056 0.0
C1254 C 0.73053 0.7454 0.99413 0.0
C1255 C 0.74822 0.74462 1.00351 0.0
C1256 C 0.76839 0.74569 0.99618 0.0
C1257 C 0.77162 0.74906 0.97989 0.0
C1258 C 0.75369 0.73325 0.04678 0.0
C1259 C 0.75409 0.75334 0.05377 0.0
C1260 C 0.75068 0.72967 0.03046 0.0
C1261 C 0.74736 0.74575 0.02094 0.0
C1262 C 0.74609 0.76484 0.02809 0.0
C1263 C 0.7497 0.76876 0.04432 0.0
H1264 H 0.31215 0.06529 0.97309 0.0
H1265 H 0.30432 0.99451 0.96944 0.0
H1266 H 0.31767 0.06481 1.0016 0.0
H1267 H 0.30908 0.99376 0.99812 0.0
H1268 H 0.27175 0.99547 0.04812 0.0
H1269 H 0.27752 0.99495 0.01964 0.0
H1270 H 0.34662 0.05992 0.02342 0.0
H1271 H 0.34125 0.06011 0.05204 0.0
C1272 C 0.31214 0.04987 0.97836 0.0
C1273 C 0.30781 0.02994 0.96909 0.0
C1274 C 0.31537 0.04963 0.99464 0.0
C1275 C 0.31374 0.02923 1.00199 0.0
C1276 C 0.31045 0.00971 0.99267 0.0
C1277 C 0.30786 0.0102 0.9763 0.0
C1278 C 0.28843 0.00931 0.04293 0.0
C1279 C 0.30602 0.02786 0.05228 0.0
C1280 C 0.29177 0.00894 0.02667 0.0
C1281 C 0.31251 0.0274 0.0194 0.0
C1282 C 0.33053 0.04546 0.02879 0.0
C1283 C 0.32746 0.0455 0.04514 0.0
H1284 H 0.99698 0.75743 0.97278 0.0
H1285 H 0.06159 0.75244 0.96888 0.0
H1286 H 0.99634 0.751 1.00127 0.0
H1287 H 0.06132 0.74682 0.99751 0.0
H1288 H 0.06551 0.78685 0.04795 0.0
H1289 H 0.06541 0.78143 0.01939 0.0
H1290 H 0.99567 0.71715 0.02261 0.0
H1291 H 0.99607 0.72204 0.05132 0.0
C1292 C 0.01077 0.75452 0.97798 0.0
C1293 C 0.02934 0.75546 0.96864 0.0
C1294 C 0.01034 0.75075 0.99424 0.0
C1295 C 0.02878 0.74843 1.00149 0.0
C1296 C 0.04687 0.74847 0.99212 0.0
C1297 C 0.04696 0.75161 0.97578 0.0
C1298 C 0.05048 0.7712 0.04261 0.0
C1299 C 0.03081 0.75486 0.05182 0.0
C1300 C 0.05046 0.76807 0.02631 0.0
C1301 C 0.03052 0.7489 0.01888 0.0
C1302 C 0.01126 0.73201 0.02813 0.0
C1303 C 0.01157 0.73477 0.04451 0.0
H1304 H 0.33801 0.30276 0.05331 0.0
H1305 H 0.27174 0.30472 0.0499 0.0
H1306 H 0.34338 0.30832 0.02467 0.0
H1307 H 0.27758 0.31106 0.02141 0.0
H1308 H 0.30653 0.33839 0.97122 0.0
H1309 H 0.31111 0.34274 0.99996 0.0
H1310 H 0.31192 0.27592 1.00271 0.0
H1311 H 0.30654 0.27111 0.97413 0.0
C1312 C 0.325 0.30511 0.04652 0.0
C1313 C 0.30441 0.30323 0.0538 0.0
C1314 C 0.32805 0.30819 0.03016 0.0
C1315 C 0.31091 0.31015 0.02091 0.0
C1316 C 0.29114 0.30981 0.02832 0.0
C1317 C 0.28777 0.3061 0.04459 0.0
C1318 C 0.30824 0.32493 0.97793 0.0
C1319 C 0.30611 0.30437 0.97047 0.0
C1320 C 0.31076 0.32739 0.99435 0.0
C1321 C 0.3119 0.30968 1.00348 0.0
C1322 C 0.3113 0.28991 0.9959 0.0
C1323 C 0.30814 0.28713 0.97958 0.0
H1324 H 0.80614 0.0553 0.9741 0.0
H1325 H 0.72873 0.01111 0.96976 0.0
H1326 H 0.80234 0.05459 1.00258 0.0
H1327 H 0.72506 0.01071 0.99864 0.0
H1328 H 0.73917 0.04123 0.05295 0.0
H1329 H 0.73672 0.04169 0.02403 0.0
H1330 H 0.78747 0.01623 0.02061 0.0
H1331 H 0.78985 0.01549 0.04914 0.0
C1332 C 0.78824 0.0457 0.97918 0.0
C1333 C 0.76776 0.03294 0.9696 0.0
C1334 C 0.78611 0.04528 0.99553 0.0
C1335 C 0.76346 0.03227 1.00278 0.0
C1336 C 0.74274 0.02082 0.99329 0.0
C1337 C 0.74487 0.02108 0.97679 0.0
C1338 C 0.7495 0.03538 0.04601 0.0
C1339 C 0.76493 0.0286 0.0534 0.0
C1340 C 0.74805 0.03563 0.02949 0.0
C1341 C 0.7622 0.02936 0.02015 0.0
C1342 C 0.77667 0.02152 0.02755 0.0
C1343 C 0.77795 0.02104 0.04393 0.0
H1344 H 0.66127 0.60385 0.30837 0.0
H1345 H 0.72871 0.67086 0.30475 0.0
H1346 H 0.66113 0.60938 0.33691 0.0
H1347 H 0.72889 0.67593 0.33342 0.0
H1348 H 0.73141 0.63921 0.38347 0.0
H1349 H 0.73108 0.64468 0.35494 0.0
H1350 H 0.66273 0.64225 0.35876 0.0
H1351 H 0.66338 0.63757 0.38746 0.0
C1352 C 0.6758 0.61998 0.31364 0.0
C1353 C 0.69501 0.63691 0.30435 0.0
C1354 C 0.67567 0.62318 0.32994 0.0
C1355 C 0.69502 0.64305 0.3373 0.0
C1356 C 0.71375 0.66049 0.32797 0.0
C1357 C 0.71358 0.65762 0.3116 0.0
C1358 C 0.71661 0.64045 0.37827 0.0
C1359 C 0.69742 0.63796 0.38766 0.0
C1360 C 0.71648 0.64367 0.36197 0.0
C1361 C 0.69687 0.64386 0.35471 0.0
C1362 C 0.67806 0.64222 0.36413 0.0
C1363 C 0.67851 0.63965 0.38051 0.0
H1364 H 0.40611 0.05453 0.38605 0.0
H1365 H 0.44346 0.13204 0.38077 0.0
H1366 H 0.40312 0.05025 0.35718 0.0
H1367 H 0.4407 0.12757 0.35229 0.0
H1368 H 0.4679 0.10923 0.30745 0.0
H1369 H 0.46304 0.1063 0.3359 0.0
H1370 H 0.38575 0.06726 0.33063 0.0
H1371 H 0.39041 0.07043 0.30178 0.0
C1372 C 0.41324 0.07059 0.37881 0.0
C1373 C 0.42532 0.09364 0.38575 0.0
C1374 C 0.4115 0.06809 0.36233 0.0
C1375 C 0.42196 0.08861 0.35263 0.0
C1376 C 0.43272 0.1115 0.35957 0.0
C1377 C 0.43426 0.11401 0.3759 0.0
C1378 C 0.4498 0.0997 0.31222 0.0
C1379 C 0.42953 0.09036 0.30227 0.0
C1380 C 0.44707 0.09806 0.32855 0.0
C1381 C 0.42406 0.08681 0.33537 0.0
C1382 C 0.40368 0.07602 0.32557 0.0
C1383 C 0.40639 0.07786 0.3091 0.0
H1384 H 0.99882 0.37819 0.38638 0.0
H1385 H 0.92113 0.34033 0.38227 0.0
H1386 H 1.00213 0.37813 0.3575 0.0
H1387 H 0.92459 0.34054 0.35377 0.0
H1388 H 0.94002 0.37913 0.3069 0.0
H1389 H 0.94214 0.37831 0.33542 0.0
H1390 H 0.98826 0.3473 0.33228 0.0
H1391 H 0.98604 0.34784 0.30333 0.0
C1392 C 0.98249 0.36952 0.37939 0.0
C1393 C 0.95971 0.35956 0.38667 0.0
C1394 C 0.98442 0.36949 0.36289 0.0
C1395 C 0.96362 0.35969 0.35344 0.0
C1396 C 0.94093 0.34858 0.36077 0.0
C1397 C 0.93899 0.34843 0.37713 0.0
C1398 C 0.95084 0.3723 0.31216 0.0
C1399 C 0.96262 0.36326 0.30275 0.0
C1400 C 0.95197 0.37178 0.32855 0.0
C1401 C 0.96504 0.36239 0.33604 0.0
C1402 C 0.978 0.35457 0.32676 0.0
C1403 C 0.9767 0.35488 0.31022 0.0
H1404 H 0.71909 0.13598 0.38275 0.0
H1405 H 0.68104 0.0582 0.38568 0.0
H1406 H 0.71899 0.1336 0.3542 0.0
H1407 H 0.68106 0.05595 0.35677 0.0
H1408 H 0.70938 0.07077 0.30312 0.0
H1409 H 0.70976 0.06841 0.33201 0.0
H1410 H 0.68385 0.11884 0.3352 0.0
H1411 H 0.68337 0.12122 0.30666 0.0
C1412 C 0.71092 0.11833 0.37734 0.0
C1413 C 0.69977 0.09726 0.38656 0.0
C1414 C 0.71079 0.117 0.36094 0.0
C1415 C 0.69961 0.0946 0.35327 0.0
C1416 C 0.68974 0.07346 0.3624 0.0
C1417 C 0.68974 0.07477 0.37894 0.0
C1418 C 0.70347 0.08109 0.31 0.0
C1419 C 0.6966 0.09639 0.30254 0.0
C1420 C 0.70368 0.07971 0.32652 0.0
C1421 C 0.69724 0.09377 0.33582 0.0
C1422 C 0.68937 0.10817 0.32834 0.0
C1423 C 0.68899 0.10942 0.31194 0.0
H1424 H 0.00907 0.64381 0.38462 0.0
H1425 H 0.94061 0.64136 0.38106 0.0
H1426 H 0.01407 0.6489 0.35595 0.0
H1427 H 0.946 0.64716 0.35254 0.0
H1428 H 0.97096 0.67178 0.30197 0.0
H1429 H 0.97678 0.67822 0.33052 0.0
H1430 H 0.9847 0.61541 0.33459 0.0
H1431 H 0.97818 0.60851 0.30621 0.0
C1432 C 0.99547 0.6451 0.37778 0.0
C1433 C 0.97439 0.64207 0.38504 0.0
C1434 C 0.99831 0.64793 0.36141 0.0
C1435 C 0.98043 0.64844 0.3521 0.0
C1436 C 0.96014 0.64705 0.35948 0.0
C1437 C 0.95702 0.64362 0.37578 0.0
C1438 C 0.97458 0.65974 0.30891 0.0
C1439 C 0.97403 0.63959 0.30191 0.0
C1440 C 0.97779 0.66337 0.32522 0.0
C1441 C 0.98118 0.64731 0.33469 0.0
C1442 C 0.98233 0.62817 0.32751 0.0
C1443 C 0.97852 0.62418 0.31131 0.0
H1444 H 0.45774 0.3447 0.38279 0.0
H1445 H 0.41194 0.37632 0.38553 0.0
H1446 H 0.45553 0.34468 0.35424 0.0
H1447 H 0.40982 0.37627 0.35664 0.0
H1448 H 0.39792 0.34802 0.30328 0.0
H1449 H 0.39564 0.34798 0.33217 0.0
H1450 H 0.47283 0.37884 0.33483 0.0
H1451 H 0.47522 0.37891 0.30628 0.0
C1452 C 0.447 0.35147 0.37733 0.0
C1453 C 0.43525 0.36078 0.38651 0.0
C1454 C 0.44585 0.35156 0.36092 0.0
C1455 C 0.43288 0.36088 0.3532 0.0
C1456 C 0.42001 0.36903 0.36229 0.0
C1457 C 0.42125 0.36906 0.37882 0.0
C1458 C 0.41442 0.35509 0.31004 0.0
C1459 C 0.43672 0.3632 0.30244 0.0
C1460 C 0.41309 0.35507 0.32657 0.0
C1461 C 0.434 0.36299 0.33574 0.0
C1462 C 0.45633 0.37213 0.32808 0.0
C1463 C 0.45769 0.37227 0.31168 0.0
H1464 H 0.40117 0.97825 0.71441 0.0
H1465 H 0.33241 0.97495 0.71888 0.0
H1466 H 0.40095 0.98485 0.68606 0.0
H1467 H 0.33195 0.98097 0.69035 0.0
H1468 H 0.32885 0.94282 0.64031 0.0
H1469 H 0.32927 0.94978 0.66864 0.0
H1470 H 0.39909 0.01378 0.66427 0.0
H1471 H 0.39844 0.00716 0.63575 0.0
C1472 C 0.38628 0.97949 0.70937 0.0
C1473 C 0.36676 0.97599 0.71882 0.0
C1474 C 0.38621 0.98339 0.69316 0.0
C1475 C 0.3664 0.98334 0.68604 0.0
C1476 C 0.34743 0.98109 0.69559 0.0
C1477 C 0.34776 0.97775 0.71189 0.0
C1478 C 0.34398 0.95875 0.64532 0.0
C1479 C 0.36365 0.97439 0.63585 0.0
C1480 C 0.34416 0.96279 0.66152 0.0
C1481 C 0.36424 0.98227 0.66862 0.0
C1482 C 0.3834 0.99864 0.65905 0.0
C1483 C 0.38296 0.9949 0.64275 0.0
H1484 H 0.08977 0.38995 0.7183 0.0
H1485 H 0.09346 0.45897 0.71486 0.0
H1486 H 0.08448 0.38506 0.68963 0.0
H1487 H 0.08737 0.45364 0.68633 0.0
H1488 H 0.05904 0.42553 0.63602 0.0
H1489 H 0.0543 0.42116 0.66477 0.0
H1490 H 0.11851 0.41547 0.6678 0.0
H1491 H 0.12376 0.42066 0.63922 0.0
C1492 C 0.08874 0.40372 0.71149 0.0
C1493 C 0.09211 0.42489 0.71879 0.0
C1494 C 0.0858 0.40094 0.69512 0.0
C1495 C 0.08548 0.41895 0.68585 0.0
C1496 C 0.08735 0.43941 0.69326 0.0
C1497 C 0.09092 0.44248 0.70955 0.0
C1498 C 0.0718 0.42277 0.6428 0.0
C1499 C 0.0918 0.42347 0.63542 0.0
C1500 C 0.06913 0.42039 0.65921 0.0
C1501 C 0.08602 0.41795 0.66842 0.0
C1502 C 0.10514 0.41712 0.66093 0.0
C1503 C 0.10817 0.42016 0.64461 0.0
H1504 H 0.66583 0.71021 0.71981 0.0
H1505 H 0.58838 0.67817 0.71693 0.0
H1506 H 0.66806 0.71064 0.69089 0.0
H1507 H 0.59074 0.67868 0.68837 0.0
H1508 H 0.60551 0.71441 0.64092 0.0
H1509 H 0.60808 0.71394 0.66945 0.0
H1510 H 0.6536 0.68224 0.66609 0.0
H1511 H 0.65108 0.68263 0.63721 0.0
C1512 C 0.64929 0.70295 0.71306 0.0
C1513 C 0.62695 0.69444 0.72071 0.0
C1514 C 0.6506 0.7032 0.69653 0.0
C1515 C 0.62962 0.69512 0.68741 0.0
C1516 C 0.60727 0.68551 0.69509 0.0
C1517 C 0.60594 0.68513 0.71149 0.0
C1518 C 0.6163 0.70753 0.64616 0.0
C1519 C 0.62784 0.69828 0.63673 0.0
C1520 C 0.61766 0.70717 0.66255 0.0
C1521 C 0.63066 0.69764 0.66998 0.0
C1522 C 0.64339 0.68961 0.66064 0.0
C1523 C 0.64192 0.68984 0.64413 0.0
H1524 H 0.40155 0.45156 0.71514 0.0
H1525 H 0.33294 0.38595 0.71935 0.0
H1526 H 0.40163 0.44491 0.68677 0.0
H1527 H 0.33276 0.37968 0.69081 0.0
H1528 H 0.39968 0.4183 0.63662 0.0
H1529 H 0.40004 0.41334 0.6653 0.0
H1530 H 0.33057 0.40858 0.66874 0.0
H1531 H 0.33047 0.41421 0.64024 0.0
C1532 C 0.38674 0.43546 0.71004 0.0
C1533 C 0.36722 0.41931 0.71944 0.0
C1534 C 0.38684 0.43161 0.69383 0.0
C1535 C 0.36718 0.41182 0.68663 0.0
C1536 C 0.34814 0.39506 0.6961 0.0
C1537 C 0.34831 0.3986 0.71241 0.0
C1538 C 0.38423 0.41557 0.64347 0.0
C1539 C 0.36508 0.41674 0.63623 0.0
C1540 C 0.3845 0.41285 0.65985 0.0
C1541 C 0.36534 0.41058 0.66919 0.0
C1542 C 0.34547 0.41007 0.6618 0.0
C1543 C 0.34546 0.41339 0.64551 0.0
H1544 H 0.6747 0.97128 0.71959 0.0
H1545 H 0.60831 0.97306 0.71644 0.0
H1546 H 0.67952 0.97616 0.69087 0.0
H1547 H 0.61359 0.97873 0.6879 0.0
H1548 H 0.64083 0.00489 0.63755 0.0
H1549 H 0.64635 0.00991 0.66619 0.0
H1550 H 0.64805 0.94356 0.66914 0.0
H1551 H 0.64177 0.93809 0.64065 0.0
C1552 C 0.66155 0.97343 0.71283 0.0
C1553 C 0.64109 0.97173 0.72022 0.0
C1554 C 0.66427 0.97613 0.69643 0.0
C1555 C 0.64694 0.97786 0.68724 0.0
C1556 C 0.6273 0.97765 0.69475 0.0
C1557 C 0.62425 0.97432 0.71105 0.0
C1558 C 0.64297 0.9917 0.64427 0.0
C1559 C 0.64079 0.97105 0.6369 0.0
C1560 C 0.64603 0.99453 0.66063 0.0
C1561 C 0.64763 0.97713 0.66981 0.0
C1562 C 0.64706 0.95733 0.6623 0.0
C1563 C 0.64339 0.95417 0.64602 0.0
H1564 H 0.08867 0.66107 0.71537 0.0
H1565 H 0.0887 0.72835 0.7186 0.0
H1566 H 0.08258 0.66049 0.68684 0.0
H1567 H 0.08344 0.72811 0.68994 0.0
H1568 H 0.12295 0.72903 0.63987 0.0
H1569 H 0.11752 0.72939 0.66841 0.0
H1570 H 0.05025 0.66233 0.66514 0.0
H1571 H 0.05519 0.66231 0.63645 0.0
C1572 C 0.08687 0.67546 0.71001 0.0
C1573 C 0.08916 0.69475 0.71917 0.0
C1574 C 0.08332 0.67508 0.69373 0.0
C1575 C 0.08259 0.69427 0.68628 0.0
C1576 C 0.08388 0.71309 0.69548 0.0
C1577 C 0.08678 0.71315 0.71184 0.0
C1578 C 0.10671 0.71469 0.64519 0.0
C1579 C 0.0895 0.69564 0.63597 0.0
C1580 C 0.10357 0.71495 0.66148 0.0
C1581 C 0.08347 0.69589 0.66888 0.0
C1582 C 0.06583 0.67725 0.65964 0.0
C1583 C 0.06864 0.67731 0.64327 0.0
H1584 H 0.83249 0.12606 0.10167 0.0
H1585 H 0.86681 0.08687 0.11845 0.0
H1586 H 0.87076 0.16347 0.10312 0.0
H1587 H 0.90503 0.12452 0.12053 0.0
H1588 H 0.97366 0.19087 0.10204 0.0
H1589 H 0.93545 0.15333 0.10396 0.0
H1590 H 0.9007 0.19277 0.1195 0.0
H1591 H 0.93877 0.2304 0.11693 0.0
C1592 C 0.84813 0.12547 0.10595 0.0
C1593 C 0.8466 0.10343 0.10985 0.0
C1594 C 0.87012 0.14701 0.10687 0.0
C1595 C 0.89112 0.14712 0.1119 0.0
C1596 C 0.88938 0.12512 0.11632 0.0
C1597 C 0.86741 0.10352 0.11524 0.0
C1598 C 0.95791 0.19151 0.106 0.0
C1599 C 0.95923 0.21365 0.1092 0.0
C1600 C 0.93596 0.16993 0.10719 0.0
C1601 C 0.91485 0.16993 0.11181 0.0
C1602 C 0.91643 0.19206 0.11559 0.0
C1603 C 0.93831 0.21366 0.11421 0.0
H1604 H 0.97884 0.81785 0.10495 0.0
H1605 H 0.93647 0.74015 0.10309 0.0
H1606 H 0.94189 0.81993 0.10714 0.0
H1607 H 0.89978 0.74222 0.10464 0.0
H1608 H 0.86982 0.81369 0.09107 0.0
H1609 H 0.90816 0.81423 0.09199 0.0
H1610 H 0.87561 0.7505 0.12135 0.0
H1611 H 0.83717 0.74941 0.11982 0.0
C1612 C 0.96167 0.80123 0.105 0.0
C1613 C 0.96064 0.77883 0.10387 0.0
C1614 C 0.94047 0.80242 0.10616 0.0
C1615 C 0.91777 0.78125 0.1061 0.0
C1616 C 0.91687 0.7589 0.10507 0.0
C1617 C 0.93799 0.75771 0.10407 0.0
C1618 C 0.87095 0.79993 0.09783 0.0
C1619 C 0.8504 0.78135 0.10522 0.0
C1620 C 0.89298 0.80029 0.09843 0.0
C1621 C 0.895 0.78224 0.1066 0.0
C1622 C 0.87464 0.76434 0.1146 0.0
C1623 C 0.85259 0.76379 0.11381 0.0
H1624 H 0.32497 0.12443 0.10224 0.0
H1625 H 0.24787 0.08245 0.10899 0.0
H1626 H 0.32312 0.16127 0.10386 0.0
H1627 H 0.24609 0.11948 0.1113 0.0
H1628 H 0.24897 0.18944 0.09478 0.0
H1629 H 0.24922 0.15157 0.09577 0.0
H1630 H 0.31729 0.18708 0.12056 0.0
H1631 H 0.31749 0.2251 0.11891 0.0
C1632 C 0.30764 0.12306 0.10432 0.0
C1633 C 0.28656 0.10046 0.10544 0.0
C1634 C 0.30658 0.14426 0.10536 0.0
C1635 C 0.28445 0.14348 0.10775 0.0
C1636 C 0.26341 0.12083 0.10921 0.0
C1637 C 0.26443 0.09957 0.10799 0.0
C1638 C 0.26388 0.18909 0.10055 0.0
C1639 C 0.28332 0.21032 0.10664 0.0
C1640 C 0.26398 0.16732 0.1012 0.0
C1641 C 0.28338 0.1662 0.10813 0.0
C1642 C 0.30232 0.18731 0.11479 0.0
C1643 C 0.30237 0.20911 0.11395 0.0
H1644 H 0.22784 0.94207 0.90349 0.0
H1645 H 0.19261 0.97401 0.92922 0.0
H1646 H 0.18975 0.90444 0.90155 0.0
H1647 H 0.1546 0.93601 0.92785 0.0
H1648 H 0.12723 0.83352 0.91934 0.0
H1649 H 0.16412 0.87225 0.9182 0.0
H1650 H 0.12241 0.90778 0.91175 0.0
H1651 H 0.08532 0.86892 0.91348 0.0
C1652 C 0.21194 0.94105 0.90874 0.0
C1653 C 0.2133 0.961 0.9166 0.0
C1654 C 0.19009 0.9194 0.90772 0.0
C1655 C 0.16908 0.91701 0.91471 0.0
C1656 C 0.17031 0.93721 0.92217 0.0
C1657 C 0.19215 0.959 0.92304 0.0
C1658 C 0.12588 0.84956 0.91757 0.0
C1659 C 0.10329 0.84809 0.91654 0.0
C1660 C 0.14711 0.87183 0.91682 0.0
C1661 C 0.14634 0.89325 0.91485 0.0
C1662 C 0.12372 0.89173 0.91351 0.0
C1663 C 0.10244 0.86942 0.9144 0.0
H1664 H 0.1935 0.25034 0.9249 0.0
H1665 H 0.23214 0.3229 0.90648 0.0
H1666 H 0.1558 0.2508 0.92288 0.0
H1667 H 0.19438 0.32306 0.90389 0.0
H1668 H 0.12841 0.32635 0.92144 0.0
H1669 H 0.16579 0.32531 0.92044 0.0
H1670 H 0.12637 0.25078 0.90577 0.0
H1671 H 0.08879 0.2516 0.90733 0.0
C1672 C 0.19391 0.26625 0.92018 0.0
C1673 C 0.21586 0.28665 0.91598 0.0
C1674 C 0.17224 0.26648 0.91893 0.0
C1675 C 0.17199 0.28704 0.91331 0.0
C1676 C 0.1939 0.30711 0.90859 0.0
C1677 C 0.21557 0.30696 0.90998 0.0
C1678 C 0.12771 0.30978 0.91787 0.0
C1679 C 0.10556 0.28903 0.91455 0.0
C1680 C 0.14922 0.30921 0.9172 0.0
C1681 C 0.14918 0.28793 0.91305 0.0
C1682 C 0.12707 0.26736 0.90928 0.0
C1683 C 0.10552 0.26788 0.91007 0.0
H1684 H 0.81583 0.86496 0.91379 0.0
H1685 H 0.73926 0.83143 0.92233 0.0
H1686 H 0.8182 0.904 0.91106 0.0
H1687 H 0.74172 0.87036 0.92039 0.0
H1688 H 0.74727 0.93949 0.90487 0.0
H1689 H 0.74672 0.90127 0.90358 0.0
H1690 H 0.81685 0.93427 0.9258 0.0
H1691 H 0.81782 0.97274 0.92631 0.0
C1692 C 0.79953 0.86594 0.91514 0.0
C1693 C 0.77736 0.84508 0.91825 0.0
C1694 C 0.80089 0.88837 0.91367 0.0
C1695 C 0.78016 0.89049 0.9155 0.0
C1696 C 0.75801 0.8695 0.91855 0.0
C1697 C 0.7566 0.84711 0.91979 0.0
C1698 C 0.76267 0.93861 0.90932 0.0
C1699 C 0.78253 0.9591 0.91576 0.0
C1700 C 0.7623 0.91663 0.9087 0.0
C1701 C 0.7816 0.91446 0.91478 0.0
C1702 C 0.80177 0.9352 0.92082 0.0
C1703 C 0.8023 0.95729 0.92119 0.0
H1704 H 0.50137 0.45882 0.43657 0.0
H1705 H 0.53713 0.41948 0.45013 0.0
H1706 H 0.53949 0.49639 0.43807 0.0
H1707 H 0.57525 0.45727 0.45217 0.0
H1708 H 0.64229 0.52542 0.43322 0.0
H1709 H 0.60451 0.48737 0.43519 0.0
H1710 H 0.56999 0.52465 0.45496 0.0
H1711 H 0.60753 0.56277 0.45245 0.0
C1712 C 0.5173 0.45821 0.44013 0.0
C1713 C 0.51619 0.4361 0.44315 0.0
C1714 C 0.5392 0.47982 0.44109 0.0
C1715 C 0.56054 0.47993 0.44521 0.0
C1716 C 0.55928 0.45786 0.4487 0.0
C1717 C 0.53737 0.43619 0.44764 0.0
C1718 C 0.62669 0.52546 0.43812 0.0
C1719 C 0.62789 0.54717 0.44254 0.0
C1720 C 0.60502 0.50359 0.43934 0.0
C1721 C 0.58408 0.50289 0.44514 0.0
C1722 C 0.58558 0.52453 0.45013 0.0
C1723 C 0.60718 0.5464 0.44877 0.0
H1724 H 0.64051 0.14368 0.44872 0.0
H1725 H 0.60111 0.06918 0.43406 0.0
H1726 H 0.6028 0.14424 0.45061 0.0
H1727 H 0.56366 0.06999 0.43529 0.0
H1728 H 0.53541 0.14481 0.43241 0.0
H1729 H 0.57322 0.14456 0.43414 0.0
H1730 H 0.53484 0.07142 0.45171 0.0
H1731 H 0.49694 0.07138 0.44931 0.0
C1732 C 0.62381 0.12742 0.44591 0.0
C1733 C 0.62385 0.1064 0.44122 0.0
C1734 C 0.60217 0.12778 0.44689 0.0
C1735 C 0.58009 0.1072 0.44304 0.0
C1736 C 0.58018 0.08608 0.43862 0.0
C1737 C 0.60175 0.08565 0.43781 0.0
C1738 C 0.53508 0.12874 0.43676 0.0
C1739 C 0.51314 0.10805 0.4406 0.0
C1740 C 0.55681 0.12863 0.43785 0.0
C1741 C 0.55717 0.10791 0.44299 0.0
C1742 C 0.53526 0.08752 0.44738 0.0
C1743 C 0.51351 0.08754 0.44609 0.0
H1744 H 0.98516 0.45532 0.45034 0.0
H1745 H 0.91267 0.42074 0.43186 0.0
H1746 H 0.98566 0.49354 0.45144 0.0
H1747 H 0.91353 0.45912 0.43212 0.0
H1748 H 0.91507 0.52872 0.44349 0.0
H1749 H 0.91328 0.49 0.44657 0.0
H1750 H 0.98892 0.52359 0.43455 0.0
H1751 H 0.99087 0.56227 0.43232 0.0
C1752 C 0.96933 0.45591 0.4465 0.0
C1753 C 0.94892 0.43504 0.44097 0.0
C1754 C 0.96965 0.47789 0.447 0.0
C1755 C 0.94975 0.47964 0.44168 0.0
C1756 C 0.9291 0.45854 0.43652 0.0
C1757 C 0.92863 0.43649 0.43629 0.0
C1758 C 0.93132 0.5278 0.44163 0.0
C1759 C 0.9531 0.54857 0.43768 0.0
C1760 C 0.93029 0.50555 0.44329 0.0
C1761 C 0.95095 0.5035 0.44081 0.0
C1762 C 0.97273 0.52441 0.43692 0.0
C1763 C 0.97383 0.54665 0.4355 0.0
H1764 H 0.79384 0.16321 0.25477 0.0
H1765 H 0.75489 0.1962 0.23535 0.0
H1766 H 0.83123 0.20145 0.25295 0.0
H1767 H 0.79253 0.23434 0.23284 0.0
H1768 H 0.85776 0.30406 0.25089 0.0
H1769 H 0.82051 0.26565 0.24901 0.0
H1770 H 0.86118 0.23076 0.23665 0.0
H1771 H 0.89854 0.2691 0.23925 0.0
C1772 C 0.79332 0.17854 0.24983 0.0
C1773 C 0.77134 0.17668 0.24531 0.0
C1774 C 0.81485 0.20051 0.24868 0.0
C1775 C 0.81501 0.22114 0.24279 0.0
C1776 C 0.79309 0.21901 0.23773 0.0
C1777 C 0.7715 0.19708 0.23906 0.0
C1778 C 0.85874 0.28823 0.24762 0.0
C1779 C 0.88113 0.28961 0.24534 0.0
C1780 C 0.83732 0.26616 0.24645 0.0
C1781 C 0.83773 0.24495 0.24275 0.0
C1782 C 0.86014 0.24657 0.23985 0.0
C1783 C 0.88158 0.2686 0.24124 0.0
H1784 H 0.85775 0.57938 0.26489 0.0
H1785 H 0.89061 0.64434 0.23679 0.0
H1786 H 0.81949 0.57901 0.26421 0.0
H1787 H 0.85225 0.64346 0.23553 0.0
H1788 H 0.79114 0.65328 0.254 0.0
H1789 H 0.82791 0.65131 0.25244 0.0
H1790 H 0.78591 0.57367 0.24904 0.0
H1791 H 0.74892 0.57564 0.25124 0.0
C1792 C 0.85669 0.59334 0.25833 0.0
C1793 C 0.87727 0.61203 0.25104 0.0
C1794 C 0.83471 0.59308 0.25787 0.0
C1795 C 0.83276 0.61136 0.24995 0.0
C1796 C 0.85316 0.62942 0.24208 0.0
C1797 C 0.87516 0.62985 0.24271 0.0
C1798 C 0.78968 0.63577 0.25284 0.0
C1799 C 0.76704 0.61462 0.25277 0.0
C1800 C 0.81084 0.63463 0.25183 0.0
C1801 C 0.80999 0.61233 0.25053 0.0
C1802 C 0.78731 0.59115 0.25023 0.0
C1803 C 0.76607 0.59228 0.2514 0.0
H1804 H 0.47984 0.30477 0.23762 0.0
H1805 H 0.40592 0.26576 0.25364 0.0
H1806 H 0.48023 0.267 0.23564 0.0
H1807 H 0.40658 0.22825 0.25227 0.0
H1808 H 0.40751 0.16125 0.23851 0.0
H1809 H 0.40746 0.19907 0.23586 0.0
H1810 H 0.48116 0.23787 0.25236 0.0
H1811 H 0.48147 0.20013 0.25437 0.0
C1812 C 0.46366 0.28813 0.24068 0.0
C1813 C 0.44288 0.28831 0.24583 0.0
C1814 C 0.46392 0.26647 0.23965 0.0
C1815 C 0.44349 0.24449 0.24388 0.0
C1816 C 0.42255 0.24469 0.24867 0.0
C1817 C 0.42221 0.26629 0.24955 0.0
C1818 C 0.42378 0.17789 0.24143 0.0
C1819 C 0.44445 0.17766 0.24673 0.0
C1820 C 0.42371 0.19959 0.24001 0.0
C1821 C 0.44423 0.2216 0.24403 0.0
C1822 C 0.46512 0.22137 0.24894 0.0
C1823 C 0.46527 0.19968 0.25019 0.0
H1824 H 0.27747 0.89298 0.78349 0.0
H1825 H 0.30959 0.85898 0.75661 0.0
H1826 H 0.23999 0.85472 0.78521 0.0
H1827 H 0.27171 0.82081 0.75774 0.0
H1828 H 0.20499 0.75081 0.77195 0.0
H1829 H 0.24379 0.788 0.77352 0.0
H1830 H 0.20762 0.82938 0.76874 0.0
H1831 H 0.169 0.7924 0.7678 0.0
C1832 C 0.27651 0.87732 0.77792 0.0
C1833 C 0.29647 0.87907 0.76982 0.0
C1834 C 0.25493 0.85537 0.77881 0.0
C1835 C 0.25262 0.83465 0.77145 0.0
C1836 C 0.27284 0.83628 0.7637 0.0
C1837 C 0.29456 0.85821 0.76298 0.0
C1838 C 0.20535 0.76787 0.77135 0.0
C1839 C 0.18386 0.7686 0.76977 0.0
C1840 C 0.22762 0.78922 0.77215 0.0
C1841 C 0.22894 0.81179 0.77127 0.0
C1842 C 0.20738 0.81242 0.76979 0.0
C1843 C 0.18515 0.79113 0.76914 0.0
H1844 H 0.30979 0.47824 0.75816 0.0
H1845 H 0.27728 0.41134 0.78422 0.0
H1846 H 0.27203 0.47876 0.75952 0.0
H1847 H 0.2399 0.41233 0.78618 0.0
H1848 H 0.16918 0.40474 0.76878 0.0
H1849 H 0.20766 0.40603 0.76981 0.0
H1850 H 0.24416 0.4834 0.7755 0.0
H1851 H 0.20551 0.48216 0.77383 0.0
C1852 C 0.29469 0.46384 0.7644 0.0
C1853 C 0.29647 0.44463 0.77095 0.0
C1854 C 0.27304 0.4642 0.76526 0.0
C1855 C 0.25275 0.44547 0.77285 0.0
C1856 C 0.25491 0.42676 0.77991 0.0
C1857 C 0.27643 0.42626 0.77888 0.0
C1858 C 0.18537 0.42204 0.77035 0.0
C1859 C 0.18423 0.44336 0.77118 0.0
C1860 C 0.20751 0.42278 0.77105 0.0
C1861 C 0.22914 0.44482 0.77277 0.0
C1862 C 0.22795 0.46613 0.77393 0.0
C1863 C 0.20576 0.46541 0.77308 0.0
H1864 H 0.58322 0.75315 0.78392 0.0
H1865 H 0.65831 0.79199 0.77035 0.0
H1866 H 0.58307 0.79107 0.78559 0.0
H1867 H 0.65794 0.82966 0.77146 0.0
H1868 H 0.65663 0.89649 0.78508 0.0
H1869 H 0.65589 0.85834 0.78798 0.0
H1870 H 0.58401 0.82091 0.76835 0.0
H1871 H 0.58443 0.859 0.76601 0.0
C1872 C 0.59972 0.76977 0.78135 0.0
C1873 C 0.62075 0.7695 0.77696 0.0
C1874 C 0.59959 0.79151 0.7822 0.0
C1875 C 0.62045 0.81348 0.77858 0.0
C1876 C 0.64162 0.8132 0.77457 0.0
C1877 C 0.6418 0.79151 0.77384 0.0
C1878 C 0.64058 0.88009 0.78151 0.0
C1879 C 0.62064 0.88082 0.77522 0.0
C1880 C 0.6402 0.8582 0.78309 0.0
C1881 C 0.61999 0.8365 0.77827 0.0
C1882 C 0.59978 0.83718 0.77238 0.0
C1883 C 0.60007 0.85907 0.77094 0.0
H1884 H 0.52377 0.63921 0.57529 0.0
H1885 H 0.56113 0.60054 0.58645 0.0
H1886 H 0.48578 0.60115 0.57389 0.0
H1887 H 0.52321 0.56272 0.58559 0.0
H1888 H 0.45483 0.49608 0.57186 0.0
H1889 H 0.49195 0.5345 0.56912 0.0
H1890 H 0.45776 0.57052 0.59121 0.0
H1891 H 0.42033 0.53213 0.59344 0.0
C1892 C 0.52391 0.6226 0.57739 0.0
C1893 C 0.54551 0.62295 0.58102 0.0
C1894 C 0.50209 0.60078 0.5767 0.0
C1895 C 0.50134 0.57881 0.5797 0.0
C1896 C 0.52307 0.57919 0.58297 0.0
C1897 C 0.54487 0.60096 0.58355 0.0
C1898 C 0.45516 0.51222 0.57603 0.0
C1899 C 0.43463 0.51099 0.58297 0.0
C1900 C 0.47652 0.53427 0.57453 0.0
C1901 C 0.47799 0.55565 0.58007 0.0
C1902 C 0.45725 0.5545 0.58664 0.0
C1903 C 0.43579 0.53244 0.58801 0.0
H1904 H 0.45168 0.97856 0.57065 0.0
H1905 H 0.41986 0.91372 0.59885 0.0
H1906 H 0.48911 0.97762 0.56916 0.0
H1907 H 0.45771 0.91329 0.59796 0.0
H1908 H 0.52465 0.90967 0.58454 0.0
H1909 H 0.4857 0.9078 0.58263 0.0
H1910 H 0.52154 0.98546 0.5858 0.0
H1911 H 0.56026 0.98734 0.58708 0.0
C1912 C 0.45269 0.96409 0.57655 0.0
C1913 C 0.43284 0.94632 0.58496 0.0
C1914 C 0.47424 0.96363 0.57579 0.0
C1915 C 0.47665 0.94557 0.58362 0.0
C1916 C 0.45651 0.92735 0.59164 0.0
C1917 C 0.43481 0.92765 0.59223 0.0
C1918 C 0.52418 0.92633 0.58471 0.0
C1919 C 0.5456 0.94865 0.58593 0.0
C1920 C 0.50182 0.92526 0.58371 0.0
C1921 C 0.50038 0.94647 0.58403 0.0
C1922 C 0.52188 0.96876 0.58518 0.0
C1923 C 0.54416 0.96983 0.58603 0.0
H1924 H 0.14846 0.6427 0.57882 0.0
H1925 H 0.07133 0.60021 0.58528 0.0
H1926 H 0.15055 0.60584 0.57642 0.0
H1927 H 0.07349 0.56355 0.58356 0.0
H1928 H 0.07952 0.50004 0.5688 0.0
H1929 H 0.07972 0.53803 0.56685 0.0
H1930 H 0.14747 0.57376 0.59201 0.0
H1931 H 0.14773 0.53591 0.59329 0.0
C1932 C 0.13196 0.62551 0.57973 0.0
C1933 C 0.10973 0.62442 0.58224 0.0
C1934 C 0.13317 0.60435 0.57845 0.0
C1935 C 0.1122 0.58162 0.57981 0.0
C1936 C 0.08997 0.58064 0.58213 0.0
C1937 C 0.08874 0.60173 0.58323 0.0
C1938 C 0.09459 0.51607 0.57376 0.0
C1939 C 0.11353 0.51493 0.58129 0.0
C1940 C 0.09463 0.53786 0.57275 0.0
C1941 C 0.11345 0.559 0.57946 0.0
C1942 C 0.1328 0.55797 0.58654 0.0
C1943 C 0.13291 0.53622 0.58736 0.0
loop_
_geom_bond_atom_site_label_1
_geom_bond_atom_site_label_2
_geom_bond_distance
_geom_bond_site_symmetry_2
_ccdc_geom_bond_type
O0 Cd1 2.223 . S
O0 C8 1.315 . S
Cd1 O0 2.223 . S
Cd1 O4 2.297 . S
Cd1 O5 2.439 . S
Cd1 O11 2.240 1_455 S
Cd2 O3 2.240 . S
Cd2 O10 2.223 1_455 S
Cd2 O12 2.297 1_455 S
Cd2 O13 2.439 . S
O3 Cd2 2.240 . S
O3 C8 1.279 . S
O4 Cd1 2.297 . S
O4 C6 1.247 . S
O5 Cd1 2.439 . S
O5 C6 1.208 . S
C6 O4 1.247 . S
C6 O5 1.208 . S
C7 O12 1.247 1_455 S
C7 O13 1.208 . S
C8 O0 1.315 . S
C8 O3 1.279 . S
C9 O10 1.315 . S
C9 O11 1.279 . S
O10 Cd2 2.223 1_655 S
O10 C9 1.315 . S
O11 Cd1 2.240 1_655 S
O11 C9 1.279 . S
O12 Cd2 2.297 1_655 S
O12 C7 1.247 1_655 S
O13 Cd2 2.439 . S
O13 C7 1.208 . S
O14 Cd15 2.223 . S
O14 C22 1.315 . S
Cd15 O14 2.223 . S
Cd15 O18 2.297 . S
Cd15 O19 2.439 . S
Cd15 O25 2.240 . S
Cd16 O17 2.240 . S
Cd16 O24 2.223 . S
Cd16 O26 2.297 . S
Cd16 O27 2.439 . S
O17 Cd16 2.240 . S
O17 C22 1.279 . S
O18 Cd15 2.297 . S
O18 C20 1.247 . S
O19 Cd15 2.439 . S
O19 C20 1.208 . S
C20 O18 1.247 . S
C20 O19 1.208 . S
C21 O26 1.247 . S
C21 O27 1.208 . S
C22 O14 1.315 . S
C22 O17 1.279 . S
C23 O24 1.315 . S
C23 O25 1.279 . S
O24 Cd16 2.223 . S
O24 C23 1.315 . S
O25 Cd15 2.240 . S
O25 C23 1.279 . S
O26 Cd16 2.297 . S
O26 C21 1.247 . S
O27 Cd16 2.439 . S
O27 C21 1.208 . S
O28 Cd29 2.223 . S
O28 C36 1.315 . S
Cd29 O28 2.223 . S
Cd29 O32 2.297 1_545 S
Cd29 O33 2.439 1_545 S
Cd29 O39 2.240 . S
Cd30 O31 2.240 . S
Cd30 O38 2.223 . S
Cd30 O40 2.297 . S
Cd30 O41 2.439 . S
O31 Cd30 2.240 . S
O31 C36 1.279 . S
O32 Cd29 2.297 1_565 S
O32 C34 1.247 . S
O33 Cd29 2.439 1_565 S
O33 C34 1.208 . S
C34 O32 1.247 . S
C34 O33 1.208 . S
C35 O40 1.247 . S
C35 O41 1.208 . S
C36 O28 1.315 . S
C36 O31 1.279 . S
C37 O38 1.315 . S
C37 O39 1.279 . S
O38 Cd30 2.223 . S
O38 C37 1.315 . S
O39 Cd29 2.240 . S
O39 C37 1.279 . S
O40 Cd30 2.297 . S
O40 C35 1.247 . S
O41 Cd30 2.439 . S
O41 C35 1.208 . S
O42 Cd43 2.223 . S
O42 C50 1.315 . S
Cd43 O42 2.223 . S
Cd43 O46 2.297 . S
Cd43 O47 2.439 . S
Cd43 O53 2.240 1_545 S
Cd44 O45 2.240 . S
Cd44 O52 2.223 1_545 S
Cd44 O54 2.297 1_545 S
Cd44 O55 2.439 . S
O45 Cd44 2.240 . S
O45 C50 1.279 . S
O46 Cd43 2.297 . S
O46 C48 1.247 . S
O47 Cd43 2.439 . S
O47 C48 1.208 . S
C48 O46 1.247 . S
C48 O47 1.208 . S
C49 O54 1.247 1_545 S
C49 O55 1.208 . S
C50 O42 1.315 . S
C50 O45 1.279 . S
C51 O52 1.315 . S
C51 O53 1.279 . S
O52 Cd44 2.223 1_565 S
O52 C51 1.315 . S
O53 Cd43 2.240 1_565 S
O53 C51 1.279 . S
O54 Cd44 2.297 1_565 S
O54 C49 1.247 1_565 S
O55 Cd44 2.439 . S
O55 C49 1.208 . S
O56 Cd57 2.223 . S
O56 C64 1.315 . S
Cd57 O56 2.223 . S
Cd57 O60 2.297 1_455 S
Cd57 O61 2.439 1_455 S
Cd57 O67 2.240 . S
Cd58 O59 2.240 . S
Cd58 O66 2.223 . S
Cd58 O68 2.297 . S
Cd58 O69 2.439 . S
O59 Cd58 2.240 . S
O59 C64 1.279 . S
O60 Cd57 2.297 1_655 S
O60 C62 1.247 . S
O61 Cd57 2.439 1_655 S
O61 C62 1.208 . S
C62 O60 1.247 . S
C62 O61 1.208 . S
C63 O68 1.247 . S
C63 O69 1.208 . S
C64 O56 1.315 . S
C64 O59 1.279 . S
C65 O66 1.315 . S
C65 O67 1.279 . S
O66 Cd58 2.223 . S
O66 C65 1.315 . S
O67 Cd57 2.240 . S
O67 C65 1.279 . S
O68 Cd58 2.297 . S
O68 C63 1.247 . S
O69 Cd58 2.439 . S
O69 C63 1.208 . S
O70 Cd71 2.223 . S
O70 C78 1.315 . S
Cd71 O70 2.223 . S
Cd71 O74 2.297 . S
Cd71 O75 2.439 . S
Cd71 O81 2.240 . S
Cd72 O73 2.240 . S
Cd72 O80 2.223 . S
Cd72 O82 2.297 . S
Cd72 O83 2.439 . S
O73 Cd72 2.240 . S
O73 C78 1.279 . S
O74 Cd71 2.297 . S
O74 C76 1.247 . S
O75 Cd71 2.439 . S
O75 C76 1.208 . S
C76 O74 1.247 . S
C76 O75 1.208 . S
C77 O82 1.247 . S
C77 O83 1.208 . S
C78 O70 1.315 . S
C78 O73 1.279 . S
C79 O80 1.315 . S
C79 O81 1.279 . S
O80 Cd72 2.223 . S
O80 C79 1.315 . S
O81 Cd71 2.240 . S
O81 C79 1.279 . S
O82 Cd72 2.297 . S
O82 C77 1.247 . S
O83 Cd72 2.439 . S
O83 C77 1.208 . S
O84 Cd85 2.223 . S
O84 C92 1.315 . S
Cd85 O84 2.223 . S
Cd85 O88 2.297 1_455 S
Cd85 O89 2.439 1_455 S
Cd85 O95 2.240 . S
Cd86 O87 2.240 . S
Cd86 O94 2.223 . S
Cd86 O96 2.297 . S
Cd86 O97 2.439 . S
O87 Cd86 2.240 . S
O87 C92 1.279 . S
O88 Cd85 2.297 1_655 S
O88 C90 1.247 . S
O89 Cd85 2.439 1_655 S
O89 C90 1.208 . S
C90 O88 1.247 . S
C90 O89 1.208 . S
C91 O96 1.247 . S
C91 O97 1.208 . S
C92 O84 1.315 . S
C92 O87 1.279 . S
C93 O94 1.315 . S
C93 O95 1.279 . S
O94 Cd86 2.223 . S
O94 C93 1.315 . S
O95 Cd85 2.240 . S
O95 C93 1.279 . S
O96 Cd86 2.297 . S
O96 C91 1.247 . S
O97 Cd86 2.439 . S
O97 C91 1.208 . S
O98 Cd99 2.223 . S
O98 C106 1.315 . S
Cd99 O98 2.223 . S
Cd99 O102 2.297 . S
Cd99 O103 2.439 . S
Cd99 O109 2.240 . S
Cd100 O101 2.240 . S
Cd100 O108 2.223 . S
Cd100 O110 2.297 . S
Cd100 O111 2.439 . S
O101 Cd100 2.240 . S
O101 C106 1.279 . S
O102 Cd99 2.297 . S
O102 C104 1.247 . S
O103 Cd99 2.439 . S
O103 C104 1.208 . S
C104 O102 1.247 . S
C104 O103 1.208 . S
C105 O110 1.247 . S
C105 O111 1.208 . S
C106 O98 1.315 . S
C106 O101 1.279 . S
C107 O108 1.315 . S
C107 O109 1.279 . S
O108 Cd100 2.223 . S
O108 C107 1.315 . S
O109 Cd99 2.240 . S
O109 C107 1.279 . S
O110 Cd100 2.297 . S
O110 C105 1.247 . S
O111 Cd100 2.439 . S
O111 C105 1.208 . S
O112 Cd113 2.223 . S
O112 C120 1.315 . S
Cd113 O112 2.223 . S
Cd113 O116 2.297 . S
Cd113 O117 2.439 . S
Cd113 O123 2.240 1_545 S
Cd114 O115 2.240 . S
Cd114 O122 2.223 1_545 S
Cd114 O124 2.297 1_545 S
Cd114 O125 2.439 . S
O115 Cd114 2.240 . S
O115 C120 1.279 . S
O116 Cd113 2.297 . S
O116 C118 1.247 . S
O117 Cd113 2.439 . S
O117 C118 1.208 . S
C118 O116 1.247 . S
C118 O117 1.208 . S
C119 O124 1.247 1_545 S
C119 O125 1.208 . S
C120 O112 1.315 . S
C120 O115 1.279 . S
C121 O122 1.315 . S
C121 O123 1.279 . S
O122 Cd114 2.223 1_565 S
O122 C121 1.315 . S
O123 Cd113 2.240 1_565 S
O123 C121 1.279 . S
O124 Cd114 2.297 1_565 S
O124 C119 1.247 1_565 S
O125 Cd114 2.439 . S
O125 C119 1.208 . S
O126 Cd127 2.223 . S
O126 C134 1.315 . S
Cd127 O126 2.223 . S
Cd127 O130 2.297 1_545 S
Cd127 O131 2.439 1_545 S
Cd127 O137 2.240 . S
Cd128 O129 2.240 . S
Cd128 O136 2.223 . S
Cd128 O138 2.297 . S
Cd128 O139 2.439 . S
O129 Cd128 2.240 . S
O129 C134 1.279 . S
O130 Cd127 2.297 1_565 S
O130 C132 1.247 . S
O131 Cd127 2.439 1_565 S
O131 C132 1.208 . S
C132 O130 1.247 . S
C132 O131 1.208 . S
C133 O138 1.247 . S
C133 O139 1.208 . S
C134 O126 1.315 . S
C134 O129 1.279 . S
C135 O136 1.315 . S
C135 O137 1.279 . S
O136 Cd128 2.223 . S
O136 C135 1.315 . S
O137 Cd127 2.240 . S
O137 C135 1.279 . S
O138 Cd128 2.297 . S
O138 C133 1.247 . S
O139 Cd128 2.439 . S
O139 C133 1.208 . S
O140 Cd141 2.223 . S
O140 C148 1.315 . S
Cd141 O140 2.223 . S
Cd141 O144 2.297 . S
Cd141 O145 2.439 . S
Cd141 O151 2.240 1_455 S
Cd142 O143 2.240 . S
Cd142 O150 2.223 1_455 S
Cd142 O152 2.297 1_455 S
Cd142 O153 2.439 . S
O143 Cd142 2.240 . S
O143 C148 1.279 . S
O144 Cd141 2.297 . S
O144 C146 1.247 . S
O145 Cd141 2.439 . S
O145 C146 1.208 . S
C146 O144 1.247 . S
C146 O145 1.208 . S
C147 O152 1.247 1_455 S
C147 O153 1.208 . S
C148 O140 1.315 . S
C148 O143 1.279 . S
C149 O150 1.315 . S
C149 O151 1.279 . S
O150 Cd142 2.223 1_655 S
O150 C149 1.315 . S
O151 Cd141 2.240 1_655 S
O151 C149 1.279 . S
O152 Cd142 2.297 1_655 S
O152 C147 1.247 1_655 S
O153 Cd142 2.439 . S
O153 C147 1.208 . S
O154 Cd155 2.223 . S
O154 C162 1.315 . S
Cd155 O154 2.223 . S
Cd155 O158 2.297 . S
Cd155 O159 2.439 . S
Cd155 O165 2.240 . S
Cd156 O157 2.240 . S
Cd156 O164 2.223 . S
Cd156 O166 2.297 . S
Cd156 O167 2.439 . S
O157 Cd156 2.240 . S
O157 C162 1.279 . S
O158 Cd155 2.297 . S
O158 C160 1.247 . S
O159 Cd155 2.439 . S
O159 C160 1.208 . S
C160 O158 1.247 . S
C160 O159 1.208 . S
C161 O166 1.247 . S
C161 O167 1.208 . S
C162 O154 1.315 . S
C162 O157 1.279 . S
C163 O164 1.315 . S
C163 O165 1.279 . S
O164 Cd156 2.223 . S
O164 C163 1.315 . S
O165 Cd155 2.240 . S
O165 C163 1.279 . S
O166 Cd156 2.297 . S
O166 C161 1.247 . S
O167 Cd156 2.439 . S
O167 C161 1.208 . S
O168 Cd169 2.223 . S
O168 C176 1.315 . S
Cd169 O168 2.223 . S
Cd169 O172 2.297 . S
Cd169 O173 2.439 . S
Cd169 O179 2.240 . S
Cd170 O171 2.240 . S
Cd170 O178 2.223 . S
Cd170 O180 2.297 . S
Cd170 O181 2.439 . S
O171 Cd170 2.240 . S
O171 C176 1.279 . S
O172 Cd169 2.297 . S
O172 C174 1.247 . S
O173 Cd169 2.439 . S
O173 C174 1.208 . S
C174 O172 1.247 . S
C174 O173 1.208 . S
C175 O180 1.247 . S
C175 O181 1.208 . S
C176 O168 1.315 . S
C176 O171 1.279 . S
C177 O178 1.315 . S
C177 O179 1.279 . S
O178 Cd170 2.223 . S
O178 C177 1.315 . S
O179 Cd169 2.240 . S
O179 C177 1.279 . S
O180 Cd170 2.297 . S
O180 C175 1.247 . S
O181 Cd170 2.439 . S
O181 C175 1.208 . S
O182 Cd183 2.223 . S
O182 C190 1.315 . S
Cd183 O182 2.223 . S
Cd183 O186 2.297 . S
Cd183 O187 2.439 . S
Cd183 O193 2.240 . S
Cd184 O185 2.240 . S
Cd184 O192 2.223 . S
Cd184 O194 2.297 . S
Cd184 O195 2.439 . S
O185 Cd184 2.240 . S
O185 C190 1.279 . S
O186 Cd183 2.297 . S
O186 C188 1.247 . S
O187 Cd183 2.439 . S
O187 C188 1.208 . S
C188 O186 1.247 . S
C188 O187 1.208 . S
C189 O194 1.247 . S
C189 O195 1.208 . S
C190 O182 1.315 . S
C190 O185 1.279 . S
C191 O192 1.315 . S
C191 O193 1.279 . S
O192 Cd184 2.223 . S
O192 C191 1.315 . S
O193 Cd183 2.240 . S
O193 C191 1.279 . S
O194 Cd184 2.297 . S
O194 C189 1.247 . S
O195 Cd184 2.439 . S
O195 C189 1.208 . S
O196 Cd197 2.223 . S
O196 C204 1.315 . S
Cd197 O196 2.223 . S
Cd197 O200 2.297 . S
Cd197 O201 2.439 . S
Cd197 O207 2.240 . S
Cd198 O199 2.240 . S
Cd198 O206 2.223 . S
Cd198 O208 2.297 1_655 S
Cd198 O209 2.439 . S
O199 Cd198 2.240 . S
O199 C204 1.279 . S
O200 Cd197 2.297 . S
O200 C202 1.247 . S
O201 Cd197 2.439 . S
O201 C202 1.208 . S
C202 O200 1.247 . S
C202 O201 1.208 . S
C203 O208 1.247 1_655 S
C203 O209 1.208 . S
C204 O196 1.315 . S
C204 O199 1.279 . S
C205 O206 1.315 . S
C205 O207 1.279 . S
O206 Cd198 2.223 . S
O206 C205 1.315 . S
O207 Cd197 2.240 . S
O207 C205 1.279 . S
O208 Cd198 2.297 1_455 S
O208 C203 1.247 1_455 S
O209 Cd198 2.439 . S
O209 C203 1.208 . S
O210 Cd211 2.223 . S
O210 C218 1.315 . S
Cd211 O210 2.223 . S
Cd211 O214 2.297 . S
Cd211 O215 2.439 . S
Cd211 O221 2.240 . S
Cd212 O213 2.240 . S
Cd212 O220 2.223 . S
Cd212 O222 2.297 . S
Cd212 O223 2.439 . S
O213 Cd212 2.240 . S
O213 C218 1.279 . S
O214 Cd211 2.297 . S
O214 C216 1.247 . S
O215 Cd211 2.439 . S
O215 C216 1.208 . S
C216 O214 1.247 . S
C216 O215 1.208 . S
C217 O222 1.247 . S
C217 O223 1.208 . S
C218 O210 1.315 . S
C218 O213 1.279 . S
C219 O220 1.315 . S
C219 O221 1.279 . S
O220 Cd212 2.223 . S
O220 C219 1.315 . S
O221 Cd211 2.240 . S
O221 C219 1.279 . S
O222 Cd212 2.297 . S
O222 C217 1.247 . S
O223 Cd212 2.439 . S
O223 C217 1.208 . S
O224 Cd225 2.223 . S
O224 C232 1.315 . S
Cd225 O224 2.223 . S
Cd225 O228 2.297 . S
Cd225 O229 2.439 . S
Cd225 O235 2.240 . S
Cd226 O227 2.240 . S
Cd226 O234 2.223 . S
Cd226 O236 2.297 . S
Cd226 O237 2.439 . S
O227 Cd226 2.240 . S
O227 C232 1.279 . S
O228 Cd225 2.297 . S
O228 C230 1.247 . S
O229 Cd225 2.439 . S
O229 C230 1.208 . S
C230 O228 1.247 . S
C230 O229 1.208 . S
C231 O236 1.247 . S
C231 O237 1.208 . S
C232 O224 1.315 . S
C232 O227 1.279 . S
C233 O234 1.315 . S
C233 O235 1.279 . S
O234 Cd226 2.223 . S
O234 C233 1.315 . S
O235 Cd225 2.240 . S
O235 C233 1.279 . S
O236 Cd226 2.297 . S
O236 C231 1.247 . S
O237 Cd226 2.439 . S
O237 C231 1.208 . S
O238 Cd239 2.223 . S
O238 C246 1.315 . S
Cd239 O238 2.223 . S
Cd239 O242 2.297 . S
Cd239 O243 2.439 . S
Cd239 O249 2.240 . S
Cd240 O241 2.240 . S
Cd240 O248 2.223 . S
Cd240 O250 2.297 . S
Cd240 O251 2.439 . S
O241 Cd240 2.240 . S
O241 C246 1.279 . S
O242 Cd239 2.297 . S
O242 C244 1.247 . S
O243 Cd239 2.439 . S
O243 C244 1.208 . S
C244 O242 1.247 . S
C244 O243 1.208 . S
C245 O250 1.247 . S
C245 O251 1.208 . S
C246 O238 1.315 . S
C246 O241 1.279 . S
C247 O248 1.315 . S
C247 O249 1.279 . S
O248 Cd240 2.223 . S
O248 C247 1.315 . S
O249 Cd239 2.240 . S
O249 C247 1.279 . S
O250 Cd240 2.297 . S
O250 C245 1.247 . S
O251 Cd240 2.439 . S
O251 C245 1.208 . S
O252 Cd253 2.223 . S
O252 C260 1.315 . S
Cd253 O252 2.223 . S
Cd253 O256 2.297 . S
Cd253 O257 2.439 . S
Cd253 O263 2.240 . S
Cd254 O255 2.240 . S
Cd254 O262 2.223 . S
Cd254 O264 2.297 . S
Cd254 O265 2.439 . S
O255 Cd254 2.240 . S
O255 C260 1.279 . S
O256 Cd253 2.297 . S
O256 C258 1.247 . S
O257 Cd253 2.439 . S
O257 C258 1.208 . S
C258 O256 1.247 . S
C258 O257 1.208 . S
C259 O264 1.247 . S
C259 O265 1.208 . S
C260 O252 1.315 . S
C260 O255 1.279 . S
C261 O262 1.315 . S
C261 O263 1.279 . S
O262 Cd254 2.223 . S
O262 C261 1.315 . S
O263 Cd253 2.240 . S
O263 C261 1.279 . S
O264 Cd254 2.297 . S
O264 C259 1.247 . S
O265 Cd254 2.439 . S
O265 C259 1.208 . S
O266 Cd267 2.223 . S
O266 C274 1.315 . S
Cd267 O266 2.223 . S
Cd267 O270 2.297 . S
Cd267 O271 2.439 . S
Cd267 O277 2.240 . S
Cd268 O269 2.240 . S
Cd268 O276 2.223 . S
Cd268 O278 2.297 . S
Cd268 O279 2.439 . S
O269 Cd268 2.240 . S
O269 C274 1.279 . S
O270 Cd267 2.297 . S
O270 C272 1.247 . S
O271 Cd267 2.439 . S
O271 C272 1.208 . S
C272 O270 1.247 . S
C272 O271 1.208 . S
C273 O278 1.247 . S
C273 O279 1.208 . S
C274 O266 1.315 . S
C274 O269 1.279 . S
C275 O276 1.315 . S
C275 O277 1.279 . S
O276 Cd268 2.223 . S
O276 C275 1.315 . S
O277 Cd267 2.240 . S
O277 C275 1.279 . S
O278 Cd268 2.297 . S
O278 C273 1.247 . S
O279 Cd268 2.439 . S
O279 C273 1.208 . S
O280 Cd281 2.223 . S
O280 C288 1.315 . S
Cd281 O280 2.223 . S
Cd281 O284 2.297 . S
Cd281 O285 2.439 . S
Cd281 O291 2.240 . S
Cd282 O283 2.240 . S
Cd282 O290 2.223 . S
Cd282 O292 2.297 . S
Cd282 O293 2.439 . S
O283 Cd282 2.240 . S
O283 C288 1.279 . S
O284 Cd281 2.297 . S
O284 C286 1.247 . S
O285 Cd281 2.439 . S
O285 C286 1.208 . S
C286 O284 1.247 . S
C286 O285 1.208 . S
C287 O292 1.247 . S
C287 O293 1.208 . S
C288 O280 1.315 . S
C288 O283 1.279 . S
C289 O290 1.315 . S
C289 O291 1.279 . S
O290 Cd282 2.223 . S
O290 C289 1.315 . S
O291 Cd281 2.240 . S
O291 C289 1.279 . S
O292 Cd282 2.297 . S
O292 C287 1.247 . S
O293 Cd282 2.439 . S
O293 C287 1.208 . S
O294 Cd295 2.223 . S
O294 C302 1.315 . S
Cd295 O294 2.223 . S
Cd295 O298 2.297 . S
Cd295 O299 2.439 . S
Cd295 O305 2.240 . S
Cd296 O297 2.240 . S
Cd296 O304 2.223 . S
Cd296 O306 2.297 . S
Cd296 O307 2.439 . S
O297 Cd296 2.240 . S
O297 C302 1.279 . S
O298 Cd295 2.297 . S
O298 C300 1.247 . S
O299 Cd295 2.439 . S
O299 C300 1.208 . S
C300 O298 1.247 . S
C300 O299 1.208 . S
C301 O306 1.247 . S
C301 O307 1.208 . S
C302 O294 1.315 . S
C302 O297 1.279 . S
C303 O304 1.315 . S
C303 O305 1.279 . S
O304 Cd296 2.223 . S
O304 C303 1.315 . S
O305 Cd295 2.240 . S
O305 C303 1.279 . S
O306 Cd296 2.297 . S
O306 C301 1.247 . S
O307 Cd296 2.439 . S
O307 C301 1.208 . S
O308 Cd309 2.223 . S
O308 C316 1.315 . S
Cd309 O308 2.223 . S
Cd309 O312 2.297 . S
Cd309 O313 2.439 . S
Cd309 O319 2.240 . S
Cd310 O311 2.240 . S
Cd310 O318 2.223 . S
Cd310 O320 2.297 . S
Cd310 O321 2.439 . S
O311 Cd310 2.240 . S
O311 C316 1.279 . S
O312 Cd309 2.297 . S
O312 C314 1.247 . S
O313 Cd309 2.439 . S
O313 C314 1.208 . S
C314 O312 1.247 . S
C314 O313 1.208 . S
C315 O320 1.247 . S
C315 O321 1.208 . S
C316 O308 1.315 . S
C316 O311 1.279 . S
C317 O318 1.315 . S
C317 O319 1.279 . S
O318 Cd310 2.223 . S
O318 C317 1.315 . S
O319 Cd309 2.240 . S
O319 C317 1.279 . S
O320 Cd310 2.297 . S
O320 C315 1.247 . S
O321 Cd310 2.439 . S
O321 C315 1.208 . S
O322 Cd323 2.223 . S
O322 C330 1.315 . S
Cd323 O322 2.223 . S
Cd323 O326 2.297 . S
Cd323 O327 2.439 . S
Cd323 O333 2.240 . S
Cd324 O325 2.240 . S
Cd324 O332 2.223 . S
Cd324 O334 2.297 1_655 S
Cd324 O335 2.439 . S
O325 Cd324 2.240 . S
O325 C330 1.279 . S
O326 Cd323 2.297 . S
O326 C328 1.247 . S
O327 Cd323 2.439 . S
O327 C328 1.208 . S
C328 O326 1.247 . S
C328 O327 1.208 . S
C329 O334 1.247 1_655 S
C329 O335 1.208 . S
C330 O322 1.315 . S
C330 O325 1.279 . S
C331 O332 1.315 . S
C331 O333 1.279 . S
O332 Cd324 2.223 . S
O332 C331 1.315 . S
O333 Cd323 2.240 . S
O333 C331 1.279 . S
O334 Cd324 2.297 1_455 S
O334 C329 1.247 1_455 S
O335 Cd324 2.439 . S
O335 C329 1.208 . S
O336 Cd337 2.223 . S
O336 C344 1.315 . S
Cd337 O336 2.223 . S
Cd337 O340 2.297 . S
Cd337 O341 2.439 . S
Cd337 O347 2.240 . S
Cd338 O339 2.240 . S
Cd338 O346 2.223 . S
Cd338 O348 2.297 . S
Cd338 O349 2.439 . S
O339 Cd338 2.240 . S
O339 C344 1.279 . S
O340 Cd337 2.297 . S
O340 C342 1.247 . S
O341 Cd337 2.439 . S
O341 C342 1.208 . S
C342 O340 1.247 . S
C342 O341 1.208 . S
C343 O348 1.247 . S
C343 O349 1.208 . S
C344 O336 1.315 . S
C344 O339 1.279 . S
C345 O346 1.315 . S
C345 O347 1.279 . S
O346 Cd338 2.223 . S
O346 C345 1.315 . S
O347 Cd337 2.240 . S
O347 C345 1.279 . S
O348 Cd338 2.297 . S
O348 C343 1.247 . S
O349 Cd338 2.439 . S
O349 C343 1.208 . S
O350 Cd351 2.223 . S
O350 C358 1.315 . S
Cd351 O350 2.223 . S
Cd351 O354 2.297 . S
Cd351 O355 2.439 . S
Cd351 O361 2.240 . S
Cd352 O353 2.240 . S
Cd352 O360 2.223 . S
Cd352 O362 2.297 . S
Cd352 O363 2.439 . S
O353 Cd352 2.240 . S
O353 C358 1.279 . S
O354 Cd351 2.297 . S
O354 C356 1.247 . S
O355 Cd351 2.439 . S
O355 C356 1.208 . S
C356 O354 1.247 . S
C356 O355 1.208 . S
C357 O362 1.247 . S
C357 O363 1.208 . S
C358 O350 1.315 . S
C358 O353 1.279 . S
C359 O360 1.315 . S
C359 O361 1.279 . S
O360 Cd352 2.223 . S
O360 C359 1.315 . S
O361 Cd351 2.240 . S
O361 C359 1.279 . S
O362 Cd352 2.297 . S
O362 C357 1.247 . S
O363 Cd352 2.439 . S
O363 C357 1.208 . S
O364 Cd365 2.223 . S
O364 C372 1.315 . S
Cd365 O364 2.223 . S
Cd365 O368 2.297 . S
Cd365 O369 2.439 . S
Cd365 O375 2.240 . S
Cd366 O367 2.240 . S
Cd366 O374 2.223 . S
Cd366 O376 2.297 . S
Cd366 O377 2.439 . S
O367 Cd366 2.240 . S
O367 C372 1.279 . S
O368 Cd365 2.297 . S
O368 C370 1.247 . S
O369 Cd365 2.439 . S
O369 C370 1.208 . S
C370 O368 1.247 . S
C370 O369 1.208 . S
C371 O376 1.247 . S
C371 O377 1.208 . S
C372 O364 1.315 . S
C372 O367 1.279 . S
C373 O374 1.315 . S
C373 O375 1.279 . S
O374 Cd366 2.223 . S
O374 C373 1.315 . S
O375 Cd365 2.240 . S
O375 C373 1.279 . S
O376 Cd366 2.297 . S
O376 C371 1.247 . S
O377 Cd366 2.439 . S
O377 C371 1.208 . S
O378 Cd379 2.223 . S
O378 C386 1.315 . S
Cd379 O378 2.223 . S
Cd379 O382 2.297 . S
Cd379 O383 2.439 . S
Cd379 O389 2.240 . S
Cd380 O381 2.240 . S
Cd380 O388 2.223 . S
Cd380 O390 2.297 . S
Cd380 O391 2.439 . S
O381 Cd380 2.240 . S
O381 C386 1.279 . S
O382 Cd379 2.297 . S
O382 C384 1.247 . S
O383 Cd379 2.439 . S
O383 C384 1.208 . S
C384 O382 1.247 . S
C384 O383 1.208 . S
C385 O390 1.247 . S
C385 O391 1.208 . S
C386 O378 1.315 . S
C386 O381 1.279 . S
C387 O388 1.315 . S
C387 O389 1.279 . S
O388 Cd380 2.223 . S
O388 C387 1.315 . S
O389 Cd379 2.240 . S
O389 C387 1.279 . S
O390 Cd380 2.297 . S
O390 C385 1.247 . S
O391 Cd380 2.439 . S
O391 C385 1.208 . S
O392 Cd393 2.223 . S
O392 C400 1.315 . S
Cd393 O392 2.223 . S
Cd393 O396 2.297 . S
Cd393 O397 2.439 . S
Cd393 O403 2.240 . S
Cd394 O395 2.240 . S
Cd394 O402 2.223 . S
Cd394 O404 2.297 1_565 S
Cd394 O405 2.439 . S
O395 Cd394 2.240 . S
O395 C400 1.279 . S
O396 Cd393 2.297 . S
O396 C398 1.247 . S
O397 Cd393 2.439 . S
O397 C398 1.208 . S
C398 O396 1.247 . S
C398 O397 1.208 . S
C399 O404 1.247 1_565 S
C399 O405 1.208 . S
C400 O392 1.315 . S
C400 O395 1.279 . S
C401 O402 1.315 . S
C401 O403 1.279 . S
O402 Cd394 2.223 . S
O402 C401 1.315 . S
O403 Cd393 2.240 . S
O403 C401 1.279 . S
O404 Cd394 2.297 1_545 S
O404 C399 1.247 1_545 S
O405 Cd394 2.439 . S
O405 C399 1.208 . S
O406 Cd407 2.223 . S
O406 C414 1.315 . S
Cd407 O406 2.223 . S
Cd407 O410 2.297 . S
Cd407 O411 2.439 . S
Cd407 O417 2.240 . S
Cd408 O409 2.240 . S
Cd408 O416 2.223 . S
Cd408 O418 2.297 . S
Cd408 O419 2.439 . S
O409 Cd408 2.240 . S
O409 C414 1.279 . S
O410 Cd407 2.297 . S
O410 C412 1.247 . S
O411 Cd407 2.439 . S
O411 C412 1.208 . S
C412 O410 1.247 . S
C412 O411 1.208 . S
C413 O418 1.247 . S
C413 O419 1.208 . S
C414 O406 1.315 . S
C414 O409 1.279 . S
C415 O416 1.315 . S
C415 O417 1.279 . S
O416 Cd408 2.223 . S
O416 C415 1.315 . S
O417 Cd407 2.240 . S
O417 C415 1.279 . S
O418 Cd408 2.297 . S
O418 C413 1.247 . S
O419 Cd408 2.439 . S
O419 C413 1.208 . S
O420 Cd421 2.223 . S
O420 C428 1.315 . S
Cd421 O420 2.223 . S
Cd421 O424 2.297 . S
Cd421 O425 2.439 . S
Cd421 O431 2.240 . S
Cd422 O423 2.240 . S
Cd422 O430 2.223 . S
Cd422 O432 2.297 . S
Cd422 O433 2.439 . S
O423 Cd422 2.240 . S
O423 C428 1.279 . S
O424 Cd421 2.297 . S
O424 C426 1.247 . S
O425 Cd421 2.439 . S
O425 C426 1.208 . S
C426 O424 1.247 . S
C426 O425 1.208 . S
C427 O432 1.247 . S
C427 O433 1.208 . S
C428 O420 1.315 . S
C428 O423 1.279 . S
C429 O430 1.315 . S
C429 O431 1.279 . S
O430 Cd422 2.223 . S
O430 C429 1.315 . S
O431 Cd421 2.240 . S
O431 C429 1.279 . S
O432 Cd422 2.297 . S
O432 C427 1.247 . S
O433 Cd422 2.439 . S
O433 C427 1.208 . S
O434 Cd435 2.223 . S
O434 C442 1.315 . S
Cd435 O434 2.223 . S
Cd435 O438 2.297 . S
Cd435 O439 2.439 . S
Cd435 O445 2.240 . S
Cd436 O437 2.240 . S
Cd436 O444 2.223 . S
Cd436 O446 2.297 1_565 S
Cd436 O447 2.439 . S
O437 Cd436 2.240 . S
O437 C442 1.279 . S
O438 Cd435 2.297 . S
O438 C440 1.247 . S
O439 Cd435 2.439 . S
O439 C440 1.208 . S
C440 O438 1.247 . S
C440 O439 1.208 . S
C441 O446 1.247 1_565 S
C441 O447 1.208 . S
C442 O434 1.315 . S
C442 O437 1.279 . S
C443 O444 1.315 . S
C443 O445 1.279 . S
O444 Cd436 2.223 . S
O444 C443 1.315 . S
O445 Cd435 2.240 . S
O445 C443 1.279 . S
O446 Cd436 2.297 1_545 S
O446 C441 1.247 1_545 S
O447 Cd436 2.439 . S
O447 C441 1.208 . S
O448 Cd449 2.223 . S
O448 C456 1.315 . S
Cd449 O448 2.223 . S
Cd449 O452 2.297 . S
Cd449 O453 2.439 . S
Cd449 O459 2.240 . S
Cd450 O451 2.240 . S
Cd450 O458 2.223 . S
Cd450 O460 2.297 . S
Cd450 O461 2.439 . S
O451 Cd450 2.240 . S
O451 C456 1.279 . S
O452 Cd449 2.297 . S
O452 C454 1.247 . S
O453 Cd449 2.439 . S
O453 C454 1.208 . S
C454 O452 1.247 . S
C454 O453 1.208 . S
C455 O460 1.247 . S
C455 O461 1.208 . S
C456 O448 1.315 . S
C456 O451 1.279 . S
C457 O458 1.315 . S
C457 O459 1.279 . S
O458 Cd450 2.223 . S
O458 C457 1.315 . S
O459 Cd449 2.240 . S
O459 C457 1.279 . S
O460 Cd450 2.297 . S
O460 C455 1.247 . S
O461 Cd450 2.439 . S
O461 C455 1.208 . S
O462 Cd463 2.223 . S
O462 C470 1.315 . S
Cd463 O462 2.223 . S
Cd463 O466 2.297 . S
Cd463 O467 2.439 . S
Cd463 O473 2.240 . S
Cd464 O465 2.240 . S
Cd464 O472 2.223 . S
Cd464 O474 2.297 . S
Cd464 O475 2.439 . S
O465 Cd464 2.240 . S
O465 C470 1.279 . S
O466 Cd463 2.297 . S
O466 C468 1.247 . S
O467 Cd463 2.439 . S
O467 C468 1.208 . S
C468 O466 1.247 . S
C468 O467 1.208 . S
C469 O474 1.247 . S
C469 O475 1.208 . S
C470 O462 1.315 . S
C470 O465 1.279 . S
C471 O472 1.315 . S
C471 O473 1.279 . S
O472 Cd464 2.223 . S
O472 C471 1.315 . S
O473 Cd463 2.240 . S
O473 C471 1.279 . S
O474 Cd464 2.297 . S
O474 C469 1.247 . S
O475 Cd464 2.439 . S
O475 C469 1.208 . S
O476 Cd477 2.223 . S
O476 C484 1.315 . S
Cd477 O476 2.223 . S
Cd477 O480 2.297 . S
Cd477 O481 2.439 . S
Cd477 O487 2.240 . S
Cd478 O479 2.240 . S
Cd478 O486 2.223 . S
Cd478 O488 2.297 . S
Cd478 O489 2.439 . S
O479 Cd478 2.240 . S
O479 C484 1.279 . S
O480 Cd477 2.297 . S
O480 C482 1.247 . S
O481 Cd477 2.439 . S
O481 C482 1.208 . S
C482 O480 1.247 . S
C482 O481 1.208 . S
C483 O488 1.247 . S
C483 O489 1.208 . S
C484 O476 1.315 . S
C484 O479 1.279 . S
C485 O486 1.315 . S
C485 O487 1.279 . S
O486 Cd478 2.223 . S
O486 C485 1.315 . S
O487 Cd477 2.240 . S
O487 C485 1.279 . S
O488 Cd478 2.297 . S
O488 C483 1.247 . S
O489 Cd478 2.439 . S
O489 C483 1.208 . S
O490 Cd491 2.223 . S
O490 C498 1.315 . S
Cd491 O490 2.223 . S
Cd491 O494 2.297 . S
Cd491 O495 2.439 . S
Cd491 O501 2.240 . S
Cd492 O493 2.240 . S
Cd492 O500 2.223 . S
Cd492 O502 2.297 . S
Cd492 O503 2.439 . S
O493 Cd492 2.240 . S
O493 C498 1.279 . S
O494 Cd491 2.297 . S
O494 C496 1.247 . S
O495 Cd491 2.439 . S
O495 C496 1.208 . S
C496 O494 1.247 . S
C496 O495 1.208 . S
C497 O502 1.247 . S
C497 O503 1.208 . S
C498 O490 1.315 . S
C498 O493 1.279 . S
C499 O500 1.315 . S
C499 O501 1.279 . S
O500 Cd492 2.223 . S
O500 C499 1.315 . S
O501 Cd491 2.240 . S
O501 C499 1.279 . S
O502 Cd492 2.297 . S
O502 C497 1.247 . S
O503 Cd492 2.439 . S
O503 C497 1.208 . S
H504 C512 0.950 . S
H505 C517 0.950 . S
H506 C514 0.950 . S
H507 C516 0.950 . S
H508 C518 0.950 . S
H509 C520 0.950 . S
H510 C522 0.950 . S
H511 C523 0.950 . S
C512 H504 0.950 . S
C512 C513 1.386 . S
C512 C514 1.391 . S
C513 C512 1.386 . S
C513 C517 1.393 . S
C514 H506 0.950 . S
C514 C512 1.391 . S
C514 C515 1.400 . S
C515 C514 1.400 . S
C515 C516 1.398 . S
C515 C521 1.491 . S
C516 H507 0.950 . S
C516 C515 1.398 . S
C516 C517 1.391 . S
C517 H505 0.950 . S
C517 C513 1.393 . S
C517 C516 1.391 . S
C518 H508 0.950 . S
C518 C519 1.386 . S
C518 C520 1.391 . S
C519 C518 1.386 . S
C519 C523 1.393 . S
C520 H509 0.950 . S
C520 C518 1.391 . S
C520 C521 1.400 . S
C521 C515 1.491 . S
C521 C520 1.400 . S
C521 C522 1.398 . S
C522 H510 0.950 . S
C522 C521 1.398 . S
C522 C523 1.391 . S
C523 H511 0.950 . S
C523 C519 1.393 . S
C523 C522 1.391 . S
H524 C532 0.950 . S
H525 C537 0.950 . S
H526 C534 0.950 . S
H527 C536 0.950 . S
H528 C538 0.950 . S
H529 C540 0.950 . S
H530 C542 0.950 . S
H531 C543 0.950 . S
C532 H524 0.950 . S
C532 C533 1.386 . S
C532 C534 1.391 . S
C533 C532 1.386 . S
C533 C537 1.393 . S
C534 H526 0.950 . S
C534 C532 1.391 . S
C534 C535 1.400 . S
C535 C534 1.400 . S
C535 C536 1.398 . S
C535 C541 1.491 . S
C536 H527 0.950 . S
C536 C535 1.398 . S
C536 C537 1.391 . S
C537 H525 0.950 . S
C537 C533 1.393 . S
C537 C536 1.391 . S
C538 H528 0.950 . S
C538 C539 1.386 . S
C538 C540 1.391 . S
C539 C538 1.386 . S
C539 C543 1.393 . S
C540 H529 0.950 . S
C540 C538 1.391 . S
C540 C541 1.400 . S
C541 C535 1.491 . S
C541 C540 1.400 . S
C541 C542 1.398 . S
C542 H530 0.950 . S
C542 C541 1.398 . S
C542 C543 1.391 . S
C543 H531 0.950 . S
C543 C539 1.393 . S
C543 C542 1.391 . S
H544 C552 0.950 . S
H545 C557 0.950 . S
H546 C554 0.950 . S
H547 C556 0.950 . S
H548 C558 0.950 . S
H549 C560 0.950 . S
H550 C562 0.950 . S
H551 C563 0.950 . S
C552 H544 0.950 . S
C552 C553 1.386 . S
C552 C554 1.391 . S
C553 C552 1.386 . S
C553 C557 1.393 . S
C554 H546 0.950 . S
C554 C552 1.391 . S
C554 C555 1.400 . S
C555 C554 1.400 . S
C555 C556 1.398 . S
C555 C561 1.491 . S
C556 H547 0.950 . S
C556 C555 1.398 . S
C556 C557 1.391 . S
C557 H545 0.950 . S
C557 C553 1.393 . S
C557 C556 1.391 . S
C558 H548 0.950 . S
C558 C559 1.386 . S
C558 C560 1.391 . S
C559 C558 1.386 . S
C559 C563 1.393 . S
C560 H549 0.950 . S
C560 C558 1.391 . S
C560 C561 1.400 . S
C561 C555 1.491 . S
C561 C560 1.400 . S
C561 C562 1.398 . S
C562 H550 0.950 . S
C562 C561 1.398 . S
C562 C563 1.391 . S
C563 H551 0.950 . S
C563 C559 1.393 . S
C563 C562 1.391 . S
H564 C572 0.950 . S
H565 C577 0.950 . S
H566 C574 0.950 . S
H567 C576 0.950 . S
H568 C578 0.950 . S
H569 C580 0.950 . S
H570 C582 0.950 . S
H571 C583 0.950 . S
C572 H564 0.950 . S
C572 C573 1.386 . S
C572 C574 1.391 . S
C573 C572 1.386 . S
C573 C577 1.393 . S
C574 H566 0.950 . S
C574 C572 1.391 . S
C574 C575 1.400 . S
C575 C574 1.400 . S
C575 C576 1.398 . S
C575 C581 1.491 . S
C576 H567 0.950 . S
C576 C575 1.398 . S
C576 C577 1.391 . S
C577 H565 0.950 . S
C577 C573 1.393 . S
C577 C576 1.391 . S
C578 H568 0.950 . S
C578 C579 1.386 . S
C578 C580 1.391 . S
C579 C578 1.386 . S
C579 C583 1.393 . S
C580 H569 0.950 . S
C580 C578 1.391 . S
C580 C581 1.400 . S
C581 C575 1.491 . S
C581 C580 1.400 . S
C581 C582 1.398 . S
C582 H570 0.950 . S
C582 C581 1.398 . S
C582 C583 1.391 . S
C583 H571 0.950 . S
C583 C579 1.393 . S
C583 C582 1.391 . S
H584 C592 0.950 . S
H585 C597 0.950 . S
H586 C594 0.950 . S
H587 C596 0.950 . S
H588 C598 0.950 . S
H589 C600 0.950 . S
H590 C602 0.950 . S
H591 C603 0.950 . S
C592 H584 0.950 . S
C592 C593 1.386 . S
C592 C594 1.391 . S
C593 C592 1.386 . S
C593 C597 1.393 . S
C594 H586 0.950 . S
C594 C592 1.391 . S
C594 C595 1.400 . S
C595 C594 1.400 . S
C595 C596 1.398 . S
C595 C601 1.491 . S
C596 H587 0.950 . S
C596 C595 1.398 . S
C596 C597 1.391 . S
C597 H585 0.950 . S
C597 C593 1.393 . S
C597 C596 1.391 . S
C598 H588 0.950 . S
C598 C599 1.386 . S
C598 C600 1.391 . S
C599 C598 1.386 . S
C599 C603 1.393 . S
C600 H589 0.950 . S
C600 C598 1.391 . S
C600 C601 1.400 . S
C601 C595 1.491 . S
C601 C600 1.400 . S
C601 C602 1.398 . S
C602 H590 0.950 . S
C602 C601 1.398 . S
C602 C603 1.391 . S
C603 H591 0.950 . S
C603 C599 1.393 . S
C603 C602 1.391 . S
H604 C612 0.950 . S
H605 C617 0.950 . S
H606 C614 0.950 . S
H607 C616 0.950 . S
H608 C618 0.950 . S
H609 C620 0.950 . S
H610 C622 0.950 . S
H611 C623 0.950 . S
C612 H604 0.950 . S
C612 C613 1.386 . S
C612 C614 1.391 . S
C613 C612 1.386 . S
C613 C617 1.393 . S
C614 H606 0.950 . S
C614 C612 1.391 . S
C614 C615 1.400 . S
C615 C614 1.400 . S
C615 C616 1.398 . S
C615 C621 1.491 . S
C616 H607 0.950 . S
C616 C615 1.398 . S
C616 C617 1.391 . S
C617 H605 0.950 . S
C617 C613 1.393 . S
C617 C616 1.391 . S
C618 H608 0.950 . S
C618 C619 1.386 . S
C618 C620 1.391 . S
C619 C618 1.386 . S
C619 C623 1.393 . S
C620 H609 0.950 . S
C620 C618 1.391 . S
C620 C621 1.400 . S
C621 C615 1.491 . S
C621 C620 1.400 . S
C621 C622 1.398 . S
C622 H610 0.950 . S
C622 C621 1.398 . S
C622 C623 1.391 . S
C623 H611 0.950 . S
C623 C619 1.393 . S
C623 C622 1.391 . S
H624 C632 0.950 . S
H625 C637 0.950 . S
H626 C634 0.950 . S
H627 C636 0.950 . S
H628 C638 0.950 . S
H629 C640 0.950 . S
H630 C642 0.950 . S
H631 C643 0.950 . S
C632 H624 0.950 . S
C632 C633 1.386 . S
C632 C634 1.391 . S
C633 C632 1.386 . S
C633 C637 1.393 . S
C634 H626 0.950 . S
C634 C632 1.391 . S
C634 C635 1.400 . S
C635 C634 1.400 . S
C635 C636 1.398 . S
C635 C641 1.491 . S
C636 H627 0.950 . S
C636 C635 1.398 . S
C636 C637 1.391 . S
C637 H625 0.950 . S
C637 C633 1.393 . S
C637 C636 1.391 . S
C638 H628 0.950 . S
C638 C639 1.386 . S
C638 C640 1.391 . S
C639 C638 1.386 . S
C639 C643 1.393 . S
C640 H629 0.950 . S
C640 C638 1.391 . S
C640 C641 1.400 . S
C641 C635 1.491 . S
C641 C640 1.400 . S
C641 C642 1.398 . S
C642 H630 0.950 . S
C642 C641 1.398 . S
C642 C643 1.391 . S
C643 H631 0.950 . S
C643 C639 1.393 . S
C643 C642 1.391 . S
H644 C652 0.950 . S
H645 C657 0.950 . S
H646 C654 0.950 . S
H647 C656 0.950 . S
H648 C658 0.950 . S
H649 C660 0.950 . S
H650 C662 0.950 . S
H651 C663 0.950 . S
C652 H644 0.950 . S
C652 C653 1.386 . S
C652 C654 1.391 . S
C653 C652 1.386 . S
C653 C657 1.393 . S
C654 H646 0.950 . S
C654 C652 1.391 . S
C654 C655 1.400 . S
C655 C654 1.400 . S
C655 C656 1.398 . S
C655 C661 1.491 . S
C656 H647 0.950 . S
C656 C655 1.398 . S
C656 C657 1.391 . S
C657 H645 0.950 . S
C657 C653 1.393 . S
C657 C656 1.391 . S
C658 H648 0.950 . S
C658 C659 1.386 . S
C658 C660 1.391 . S
C659 C658 1.386 . S
C659 C663 1.393 . S
C660 H649 0.950 . S
C660 C658 1.391 . S
C660 C661 1.400 . S
C661 C655 1.491 . S
C661 C660 1.400 . S
C661 C662 1.398 . S
C662 H650 0.950 . S
C662 C661 1.398 . S
C662 C663 1.391 . S
C663 H651 0.950 . S
C663 C659 1.393 . S
C663 C662 1.391 . S
H664 C672 0.950 . S
H665 C677 0.950 . S
H666 C674 0.950 . S
H667 C676 0.950 . S
H668 C678 0.950 . S
H669 C680 0.950 . S
H670 C682 0.950 . S
H671 C683 0.950 . S
C672 H664 0.950 . S
C672 C673 1.386 . S
C672 C674 1.391 . S
C673 C672 1.386 . S
C673 C677 1.393 . S
C674 H666 0.950 . S
C674 C672 1.391 . S
C674 C675 1.400 . S
C675 C674 1.400 . S
C675 C676 1.398 . S
C675 C681 1.491 . S
C676 H667 0.950 . S
C676 C675 1.398 . S
C676 C677 1.391 . S
C677 H665 0.950 . S
C677 C673 1.393 . S
C677 C676 1.391 . S
C678 H668 0.950 . S
C678 C679 1.386 . S
C678 C680 1.391 . S
C679 C678 1.386 . S
C679 C683 1.393 . S
C680 H669 0.950 . S
C680 C678 1.391 . S
C680 C681 1.400 . S
C681 C675 1.491 . S
C681 C680 1.400 . S
C681 C682 1.398 . S
C682 H670 0.950 . S
C682 C681 1.398 . S
C682 C683 1.391 . S
C683 H671 0.950 . S
C683 C679 1.393 . S
C683 C682 1.391 . S
H684 C692 0.950 . S
H685 C697 0.950 . S
H686 C694 0.950 . S
H687 C696 0.950 . S
H688 C698 0.950 . S
H689 C700 0.950 . S
H690 C702 0.950 . S
H691 C703 0.950 . S
C692 H684 0.950 . S
C692 C693 1.386 . S
C692 C694 1.391 . S
C693 C692 1.386 . S
C693 C697 1.393 . S
C694 H686 0.950 . S
C694 C692 1.391 . S
C694 C695 1.400 . S
C695 C694 1.400 . S
C695 C696 1.398 . S
C695 C701 1.491 . S
C696 H687 0.950 . S
C696 C695 1.398 . S
C696 C697 1.391 . S
C697 H685 0.950 . S
C697 C693 1.393 . S
C697 C696 1.391 . S
C698 H688 0.950 . S
C698 C699 1.386 . S
C698 C700 1.391 . S
C699 C698 1.386 . S
C699 C703 1.393 . S
C700 H689 0.950 . S
C700 C698 1.391 . S
C700 C701 1.400 . S
C701 C695 1.491 . S
C701 C700 1.400 . S
C701 C702 1.398 . S
C702 H690 0.950 . S
C702 C701 1.398 . S
C702 C703 1.391 . S
C703 H691 0.950 . S
C703 C699 1.393 . S
C703 C702 1.391 . S
H704 C712 0.950 . S
H705 C717 0.950 . S
H706 C714 0.950 . S
H707 C716 0.950 . S
H708 C718 0.950 . S
H709 C720 0.950 . S
H710 C722 0.950 . S
H711 C723 0.950 . S
C712 H704 0.950 . S
C712 C713 1.386 . S
C712 C714 1.391 . S
C713 C712 1.386 . S
C713 C717 1.393 . S
C714 H706 0.950 . S
C714 C712 1.391 . S
C714 C715 1.400 . S
C715 C714 1.400 . S
C715 C716 1.398 . S
C715 C721 1.491 . S
C716 H707 0.950 . S
C716 C715 1.398 . S
C716 C717 1.391 . S
C717 H705 0.950 . S
C717 C713 1.393 . S
C717 C716 1.391 . S
C718 H708 0.950 . S
C718 C719 1.386 . S
C718 C720 1.391 . S
C719 C718 1.386 . S
C719 C723 1.393 . S
C720 H709 0.950 . S
C720 C718 1.391 . S
C720 C721 1.400 . S
C721 C715 1.491 . S
C721 C720 1.400 . S
C721 C722 1.398 . S
C722 H710 0.950 . S
C722 C721 1.398 . S
C722 C723 1.391 . S
C723 H711 0.950 . S
C723 C719 1.393 . S
C723 C722 1.391 . S
H724 C732 0.950 . S
H725 C737 0.950 . S
H726 C734 0.950 . S
H727 C736 0.950 . S
H728 C738 0.950 . S
H729 C740 0.950 . S
H730 C742 0.950 . S
H731 C743 0.950 . S
C732 H724 0.950 . S
C732 C733 1.386 . S
C732 C734 1.391 . S
C733 C732 1.386 . S
C733 C737 1.393 . S
C734 H726 0.950 . S
C734 C732 1.391 . S
C734 C735 1.400 . S
C735 C734 1.400 . S
C735 C736 1.398 . S
C735 C741 1.491 . S
C736 H727 0.950 . S
C736 C735 1.398 . S
C736 C737 1.391 . S
C737 H725 0.950 . S
C737 C733 1.393 . S
C737 C736 1.391 . S
C738 H728 0.950 . S
C738 C739 1.386 . S
C738 C740 1.391 . S
C739 C738 1.386 . S
C739 C743 1.393 . S
C740 H729 0.950 . S
C740 C738 1.391 . S
C740 C741 1.400 . S
C741 C735 1.491 . S
C741 C740 1.400 . S
C741 C742 1.398 . S
C742 H730 0.950 . S
C742 C741 1.398 . S
C742 C743 1.391 . S
C743 H731 0.950 . S
C743 C739 1.393 . S
C743 C742 1.391 . S
H744 C752 0.950 . S
H745 C757 0.950 . S
H746 C754 0.950 . S
H747 C756 0.950 . S
H748 C758 0.950 . S
H749 C760 0.950 . S
H750 C762 0.950 . S
H751 C763 0.950 . S
C752 H744 0.950 . S
C752 C753 1.386 . S
C752 C754 1.391 . S
C753 C752 1.386 . S
C753 C757 1.393 . S
C754 H746 0.950 . S
C754 C752 1.391 . S
C754 C755 1.400 . S
C755 C754 1.400 . S
C755 C756 1.398 . S
C755 C761 1.491 . S
C756 H747 0.950 . S
C756 C755 1.398 . S
C756 C757 1.391 . S
C757 H745 0.950 . S
C757 C753 1.393 . S
C757 C756 1.391 . S
C758 H748 0.950 . S
C758 C759 1.386 . S
C758 C760 1.391 . S
C759 C758 1.386 . S
C759 C763 1.393 . S
C760 H749 0.950 . S
C760 C758 1.391 . S
C760 C761 1.400 . S
C761 C755 1.491 . S
C761 C760 1.400 . S
C761 C762 1.398 . S
C762 H750 0.950 . S
C762 C761 1.398 . S
C762 C763 1.391 . S
C763 H751 0.950 . S
C763 C759 1.393 . S
C763 C762 1.391 . S
H764 C772 0.950 . S
H765 C777 0.950 . S
H766 C774 0.950 . S
H767 C776 0.950 . S
H768 C778 0.950 . S
H769 C780 0.950 . S
H770 C782 0.950 . S
H771 C783 0.950 . S
C772 H764 0.950 . S
C772 C773 1.386 . S
C772 C774 1.391 . S
C773 C772 1.386 . S
C773 C777 1.393 . S
C774 H766 0.950 . S
C774 C772 1.391 . S
C774 C775 1.400 . S
C775 C774 1.400 . S
C775 C776 1.398 . S
C775 C781 1.491 . S
C776 H767 0.950 . S
C776 C775 1.398 . S
C776 C777 1.391 . S
C777 H765 0.950 . S
C777 C773 1.393 . S
C777 C776 1.391 . S
C778 H768 0.950 . S
C778 C779 1.386 . S
C778 C780 1.391 . S
C779 C778 1.386 . S
C779 C783 1.393 . S
C780 H769 0.950 . S
C780 C778 1.391 . S
C780 C781 1.400 . S
C781 C775 1.491 . S
C781 C780 1.400 . S
C781 C782 1.398 . S
C782 H770 0.950 . S
C782 C781 1.398 . S
C782 C783 1.391 . S
C783 H771 0.950 . S
C783 C779 1.393 . S
C783 C782 1.391 . S
H784 C792 0.950 . S
H785 C797 0.950 . S
H786 C794 0.950 . S
H787 C796 0.950 . S
H788 C798 0.950 . S
H789 C800 0.950 . S
H790 C802 0.950 . S
H791 C803 0.950 . S
C792 H784 0.950 . S
C792 C793 1.386 . S
C792 C794 1.391 . S
C793 C792 1.386 . S
C793 C797 1.393 . S
C794 H786 0.950 . S
C794 C792 1.391 . S
C794 C795 1.400 . S
C795 C794 1.400 . S
C795 C796 1.398 . S
C795 C801 1.491 . S
C796 H787 0.950 . S
C796 C795 1.398 . S
C796 C797 1.391 . S
C797 H785 0.950 . S
C797 C793 1.393 . S
C797 C796 1.391 . S
C798 H788 0.950 . S
C798 C799 1.386 . S
C798 C800 1.391 . S
C799 C798 1.386 . S
C799 C803 1.393 . S
C800 H789 0.950 . S
C800 C798 1.391 . S
C800 C801 1.400 . S
C801 C795 1.491 . S
C801 C800 1.400 . S
C801 C802 1.398 . S
C802 H790 0.950 . S
C802 C801 1.398 . S
C802 C803 1.391 . S
C803 H791 0.950 . S
C803 C799 1.393 . S
C803 C802 1.391 . S
H804 C812 0.950 . S
H805 C817 0.950 . S
H806 C814 0.950 . S
H807 C816 0.950 . S
H808 C818 0.950 . S
H809 C820 0.950 . S
H810 C822 0.950 . S
H811 C823 0.950 . S
C812 H804 0.950 . S
C812 C813 1.386 . S
C812 C814 1.391 . S
C813 C812 1.386 . S
C813 C817 1.393 . S
C814 H806 0.950 . S
C814 C812 1.391 . S
C814 C815 1.400 . S
C815 C814 1.400 . S
C815 C816 1.398 . S
C815 C821 1.491 . S
C816 H807 0.950 . S
C816 C815 1.398 . S
C816 C817 1.391 . S
C817 H805 0.950 . S
C817 C813 1.393 . S
C817 C816 1.391 . S
C818 H808 0.950 . S
C818 C819 1.386 . S
C818 C820 1.391 . S
C819 C818 1.386 . S
C819 C823 1.393 . S
C820 H809 0.950 . S
C820 C818 1.391 . S
C820 C821 1.400 . S
C821 C815 1.491 . S
C821 C820 1.400 . S
C821 C822 1.398 . S
C822 H810 0.950 . S
C822 C821 1.398 . S
C822 C823 1.391 . S
C823 H811 0.950 . S
C823 C819 1.393 . S
C823 C822 1.391 . S
H824 C832 0.950 . S
H825 C837 0.950 . S
H826 C834 0.950 . S
H827 C836 0.950 . S
H828 C838 0.950 . S
H829 C840 0.950 . S
H830 C842 0.950 . S
H831 C843 0.950 . S
C832 H824 0.950 . S
C832 C833 1.386 . S
C832 C834 1.391 . S
C833 C832 1.386 . S
C833 C837 1.393 . S
C834 H826 0.950 . S
C834 C832 1.391 . S
C834 C835 1.400 . S
C835 C834 1.400 . S
C835 C836 1.398 . S
C835 C841 1.491 . S
C836 H827 0.950 . S
C836 C835 1.398 . S
C836 C837 1.391 . S
C837 H825 0.950 . S
C837 C833 1.393 . S
C837 C836 1.391 . S
C838 H828 0.950 . S
C838 C839 1.386 . S
C838 C840 1.391 . S
C839 C838 1.386 . S
C839 C843 1.393 . S
C840 H829 0.950 . S
C840 C838 1.391 . S
C840 C841 1.400 . S
C841 C835 1.491 . S
C841 C840 1.400 . S
C841 C842 1.398 . S
C842 H830 0.950 . S
C842 C841 1.398 . S
C842 C843 1.391 . S
C843 H831 0.950 . S
C843 C839 1.393 . S
C843 C842 1.391 . S
H844 C852 0.950 . S
H845 C857 0.950 . S
H846 C854 0.950 . S
H847 C856 0.950 . S
H848 C858 0.950 . S
H849 C860 0.950 . S
H850 C862 0.950 . S
H851 C863 0.950 . S
C852 H844 0.950 . S
C852 C853 1.386 . S
C852 C854 1.391 . S
C853 C852 1.386 . S
C853 C857 1.393 . S
C854 H846 0.950 . S
C854 C852 1.391 . S
C854 C855 1.400 . S
C855 C854 1.400 . S
C855 C856 1.398 . S
C855 C861 1.491 . S
C856 H847 0.950 . S
C856 C855 1.398 . S
C856 C857 1.391 . S
C857 H845 0.950 . S
C857 C853 1.393 . S
C857 C856 1.391 . S
C858 H848 0.950 . S
C858 C859 1.386 . S
C858 C860 1.391 . S
C859 C858 1.386 . S
C859 C863 1.393 . S
C860 H849 0.950 . S
C860 C858 1.391 . S
C860 C861 1.400 . S
C861 C855 1.491 . S
C861 C860 1.400 . S
C861 C862 1.398 . S
C862 H850 0.950 . S
C862 C861 1.398 . S
C862 C863 1.391 . S
C863 H851 0.950 . S
C863 C859 1.393 . S
C863 C862 1.391 . S
H864 C872 0.950 . S
H865 C877 0.950 . S
H866 C874 0.950 . S
H867 C876 0.950 . S
H868 C878 0.950 . S
H869 C880 0.950 . S
H870 C882 0.950 . S
H871 C883 0.950 1_455 S
C872 H864 0.950 . S
C872 C873 1.386 . S
C872 C874 1.391 . S
C873 C872 1.386 . S
C873 C877 1.393 1_455 S
C874 H866 0.950 . S
C874 C872 1.391 . S
C874 C875 1.400 1_455 S
C875 C874 1.400 1_655 S
C875 C876 1.398 . S
C875 C881 1.491 . S
C876 H867 0.950 . S
C876 C875 1.398 . S
C876 C877 1.391 . S
C877 H865 0.950 . S
C877 C873 1.393 1_655 S
C877 C876 1.391 . S
C878 H868 0.950 . S
C878 C879 1.386 . S
C878 C880 1.391 . S
C879 C878 1.386 . S
C879 C883 1.393 . S
C880 H869 0.950 . S
C880 C878 1.391 . S
C880 C881 1.400 . S
C881 C875 1.491 . S
C881 C880 1.400 . S
C881 C882 1.398 1_655 S
C882 H870 0.950 . S
C882 C881 1.398 1_455 S
C882 C883 1.391 1_455 S
C883 H871 0.950 1_655 S
C883 C879 1.393 . S
C883 C882 1.391 1_655 S
H884 C892 0.950 . S
H885 C897 0.950 . S
H886 C894 0.950 . S
H887 C896 0.950 . S
H888 C898 0.950 . S
H889 C900 0.950 . S
H890 C902 0.950 . S
H891 C903 0.950 . S
C892 H884 0.950 . S
C892 C893 1.386 . S
C892 C894 1.391 . S
C893 C892 1.386 . S
C893 C897 1.393 . S
C894 H886 0.950 . S
C894 C892 1.391 . S
C894 C895 1.400 . S
C895 C894 1.400 . S
C895 C896 1.398 . S
C895 C901 1.491 . S
C896 H887 0.950 . S
C896 C895 1.398 . S
C896 C897 1.391 . S
C897 H885 0.950 . S
C897 C893 1.393 . S
C897 C896 1.391 . S
C898 H888 0.950 . S
C898 C899 1.386 . S
C898 C900 1.391 . S
C899 C898 1.386 . S
C899 C903 1.393 . S
C900 H889 0.950 . S
C900 C898 1.391 . S
C900 C901 1.400 . S
C901 C895 1.491 . S
C901 C900 1.400 . S
C901 C902 1.398 . S
C902 H890 0.950 . S
C902 C901 1.398 . S
C902 C903 1.391 . S
C903 H891 0.950 . S
C903 C899 1.393 . S
C903 C902 1.391 . S
H904 C912 0.950 . S
H905 C917 0.950 . S
H906 C914 0.950 . S
H907 C916 0.950 . S
H908 C918 0.950 . S
H909 C920 0.950 . S
H910 C922 0.950 . S
H911 C923 0.950 . S
C912 H904 0.950 . S
C912 C913 1.386 . S
C912 C914 1.391 . S
C913 C912 1.386 . S
C913 C917 1.393 . S
C914 H906 0.950 . S
C914 C912 1.391 . S
C914 C915 1.400 . S
C915 C914 1.400 . S
C915 C916 1.398 . S
C915 C921 1.491 . S
C916 H907 0.950 . S
C916 C915 1.398 . S
C916 C917 1.391 . S
C917 H905 0.950 . S
C917 C913 1.393 . S
C917 C916 1.391 . S
C918 H908 0.950 . S
C918 C919 1.386 . S
C918 C920 1.391 . S
C919 C918 1.386 . S
C919 C923 1.393 . S
C920 H909 0.950 . S
C920 C918 1.391 . S
C920 C921 1.400 . S
C921 C915 1.491 . S
C921 C920 1.400 . S
C921 C922 1.398 . S
C922 H910 0.950 . S
C922 C921 1.398 . S
C922 C923 1.391 . S
C923 H911 0.950 . S
C923 C919 1.393 . S
C923 C922 1.391 . S
H924 C932 0.950 . S
H925 C937 0.950 . S
H926 C934 0.950 . S
H927 C936 0.950 . S
H928 C938 0.950 . S
H929 C940 0.950 1_545 S
H930 C942 0.950 . S
H931 C943 0.950 . S
C932 H924 0.950 . S
C932 C933 1.386 1_565 S
C932 C934 1.391 . S
C933 C932 1.386 1_545 S
C933 C937 1.393 . S
C934 H926 0.950 . S
C934 C932 1.391 . S
C934 C935 1.400 . S
C935 C934 1.400 . S
C935 C936 1.398 1_565 S
C935 C941 1.491 . S
C936 H927 0.950 . S
C936 C935 1.398 1_545 S
C936 C937 1.391 . S
C937 H925 0.950 . S
C937 C933 1.393 . S
C937 C936 1.391 . S
C938 H928 0.950 . S
C938 C939 1.386 . S
C938 C940 1.391 . S
C939 C938 1.386 . S
C939 C943 1.393 . S
C940 H929 0.950 1_565 S
C940 C938 1.391 . S
C940 C941 1.400 . S
C941 C935 1.491 . S
C941 C940 1.400 . S
C941 C942 1.398 . S
C942 H930 0.950 . S
C942 C941 1.398 . S
C942 C943 1.391 . S
C943 H931 0.950 . S
C943 C939 1.393 . S
C943 C942 1.391 . S
H944 C952 0.950 . S
H945 C957 0.950 . S
H946 C954 0.950 . S
H947 C956 0.950 . S
H948 C958 0.950 . S
H949 C960 0.950 . S
H950 C962 0.950 . S
H951 C963 0.950 . S
C952 H944 0.950 . S
C952 C953 1.386 . S
C952 C954 1.391 . S
C953 C952 1.386 . S
C953 C957 1.393 . S
C954 H946 0.950 . S
C954 C952 1.391 . S
C954 C955 1.400 . S
C955 C954 1.400 . S
C955 C956 1.398 . S
C955 C961 1.491 . S
C956 H947 0.950 . S
C956 C955 1.398 . S
C956 C957 1.391 . S
C957 H945 0.950 . S
C957 C953 1.393 . S
C957 C956 1.391 . S
C958 H948 0.950 . S
C958 C959 1.386 . S
C958 C960 1.391 . S
C959 C958 1.386 . S
C959 C963 1.393 . S
C960 H949 0.950 . S
C960 C958 1.391 . S
C960 C961 1.400 . S
C961 C955 1.491 . S
C961 C960 1.400 . S
C961 C962 1.398 . S
C962 H950 0.950 . S
C962 C961 1.398 . S
C962 C963 1.391 . S
C963 H951 0.950 . S
C963 C959 1.393 . S
C963 C962 1.391 . S
H964 C972 0.950 . S
H965 C977 0.950 . S
H966 C974 0.950 . S
H967 C976 0.950 . S
H968 C978 0.950 . S
H969 C980 0.950 . S
H970 C982 0.950 . S
H971 C983 0.950 . S
C972 H964 0.950 . S
C972 C973 1.386 . S
C972 C974 1.391 . S
C973 C972 1.386 . S
C973 C977 1.393 . S
C974 H966 0.950 . S
C974 C972 1.391 . S
C974 C975 1.400 . S
C975 C974 1.400 . S
C975 C976 1.398 . S
C975 C981 1.491 . S
C976 H967 0.950 . S
C976 C975 1.398 . S
C976 C977 1.391 . S
C977 H965 0.950 . S
C977 C973 1.393 . S
C977 C976 1.391 . S
C978 H968 0.950 . S
C978 C979 1.386 . S
C978 C980 1.391 . S
C979 C978 1.386 . S
C979 C983 1.393 . S
C980 H969 0.950 . S
C980 C978 1.391 . S
C980 C981 1.400 . S
C981 C975 1.491 . S
C981 C980 1.400 . S
C981 C982 1.398 . S
C982 H970 0.950 . S
C982 C981 1.398 . S
C982 C983 1.391 . S
C983 H971 0.950 . S
C983 C979 1.393 . S
C983 C982 1.391 . S
H984 C992 0.950 . S
H985 C997 0.950 . S
H986 C994 0.950 . S
H987 C996 0.950 . S
H988 C998 0.950 . S
H989 C1000 0.950 . S
H990 C1002 0.950 . S
H991 C1003 0.950 . S
C992 H984 0.950 . S
C992 C993 1.386 . S
C992 C994 1.391 . S
C993 C992 1.386 . S
C993 C997 1.393 . S
C994 H986 0.950 . S
C994 C992 1.391 . S
C994 C995 1.400 . S
C995 C994 1.400 . S
C995 C996 1.398 . S
C995 C1001 1.491 . S
C996 H987 0.950 . S
C996 C995 1.398 . S
C996 C997 1.391 . S
C997 H985 0.950 . S
C997 C993 1.393 . S
C997 C996 1.391 . S
C998 H988 0.950 . S
C998 C999 1.386 . S
C998 C1000 1.391 . S
C999 C998 1.386 . S
C999 C1003 1.393 . S
C1000 H989 0.950 . S
C1000 C998 1.391 . S
C1000 C1001 1.400 . S
C1001 C995 1.491 . S
C1001 C1000 1.400 . S
C1001 C1002 1.398 . S
C1002 H990 0.950 . S
C1002 C1001 1.398 . S
C1002 C1003 1.391 . S
C1003 H991 0.950 . S
C1003 C999 1.393 . S
C1003 C1002 1.391 . S
H1004 C1012 0.950 . S
H1005 C1017 0.950 . S
H1006 C1014 0.950 . S
H1007 C1016 0.950 . S
H1008 C1018 0.950 . S
H1009 C1020 0.950 . S
H1010 C1022 0.950 . S
H1011 C1023 0.950 . S
C1012 H1004 0.950 . S
C1012 C1013 1.386 . S
C1012 C1014 1.391 . S
C1013 C1012 1.386 . S
C1013 C1017 1.393 . S
C1014 H1006 0.950 . S
C1014 C1012 1.391 . S
C1014 C1015 1.400 . S
C1015 C1014 1.400 . S
C1015 C1016 1.398 . S
C1015 C1021 1.491 . S
C1016 H1007 0.950 . S
C1016 C1015 1.398 . S
C1016 C1017 1.391 . S
C1017 H1005 0.950 . S
C1017 C1013 1.393 . S
C1017 C1016 1.391 . S
C1018 H1008 0.950 . S
C1018 C1019 1.386 . S
C1018 C1020 1.391 . S
C1019 C1018 1.386 . S
C1019 C1023 1.393 . S
C1020 H1009 0.950 . S
C1020 C1018 1.391 . S
C1020 C1021 1.400 . S
C1021 C1015 1.491 . S
C1021 C1020 1.400 . S
C1021 C1022 1.398 . S
C1022 H1010 0.950 . S
C1022 C1021 1.398 . S
C1022 C1023 1.391 . S
C1023 H1011 0.950 . S
C1023 C1019 1.393 . S
C1023 C1022 1.391 . S
H1024 C1032 0.950 . S
H1025 C1037 0.950 . S
H1026 C1034 0.950 . S
H1027 C1036 0.950 . S
H1028 C1038 0.950 . S
H1029 C1040 0.950 1_545 S
H1030 C1042 0.950 . S
H1031 C1043 0.950 . S
C1032 H1024 0.950 . S
C1032 C1033 1.386 1_565 S
C1032 C1034 1.391 . S
C1033 C1032 1.386 1_545 S
C1033 C1037 1.393 . S
C1034 H1026 0.950 . S
C1034 C1032 1.391 . S
C1034 C1035 1.400 . S
C1035 C1034 1.400 . S
C1035 C1036 1.398 1_565 S
C1035 C1041 1.491 . S
C1036 H1027 0.950 . S
C1036 C1035 1.398 1_545 S
C1036 C1037 1.391 . S
C1037 H1025 0.950 . S
C1037 C1033 1.393 . S
C1037 C1036 1.391 . S
C1038 H1028 0.950 . S
C1038 C1039 1.386 . S
C1038 C1040 1.391 . S
C1039 C1038 1.386 . S
C1039 C1043 1.393 . S
C1040 H1029 0.950 1_565 S
C1040 C1038 1.391 . S
C1040 C1041 1.400 . S
C1041 C1035 1.491 . S
C1041 C1040 1.400 . S
C1041 C1042 1.398 . S
C1042 H1030 0.950 . S
C1042 C1041 1.398 . S
C1042 C1043 1.391 . S
C1043 H1031 0.950 . S
C1043 C1039 1.393 . S
C1043 C1042 1.391 . S
H1044 C1052 0.950 . S
H1045 C1057 0.950 . S
H1046 C1054 0.950 . S
H1047 C1056 0.950 . S
H1048 C1058 0.950 . S
H1049 C1060 0.950 . S
H1050 C1062 0.950 . S
H1051 C1063 0.950 . S
C1052 H1044 0.950 . S
C1052 C1053 1.386 . S
C1052 C1054 1.391 . S
C1053 C1052 1.386 . S
C1053 C1057 1.393 . S
C1054 H1046 0.950 . S
C1054 C1052 1.391 . S
C1054 C1055 1.400 . S
C1055 C1054 1.400 . S
C1055 C1056 1.398 . S
C1055 C1061 1.491 . S
C1056 H1047 0.950 . S
C1056 C1055 1.398 . S
C1056 C1057 1.391 . S
C1057 H1045 0.950 . S
C1057 C1053 1.393 . S
C1057 C1056 1.391 . S
C1058 H1048 0.950 . S
C1058 C1059 1.386 . S
C1058 C1060 1.391 . S
C1059 C1058 1.386 . S
C1059 C1063 1.393 . S
C1060 H1049 0.950 . S
C1060 C1058 1.391 . S
C1060 C1061 1.400 . S
C1061 C1055 1.491 . S
C1061 C1060 1.400 . S
C1061 C1062 1.398 . S
C1062 H1050 0.950 . S
C1062 C1061 1.398 . S
C1062 C1063 1.391 . S
C1063 H1051 0.950 . S
C1063 C1059 1.393 . S
C1063 C1062 1.391 . S
H1064 C1072 0.955 . S
H1065 C1077 0.950 . S
H1066 C1074 0.950 . S
H1067 C1076 0.955 . S
H1068 C1078 0.950 . S
H1069 C1080 0.950 . S
H1070 C1082 0.950 . S
H1071 C1083 0.950 . S
C1072 H1064 0.955 . S
C1072 C1073 1.381 . S
C1072 C1074 1.391 1_455 S
C1073 C1072 1.381 . S
C1073 C1077 1.393 . S
C1074 H1066 0.950 . S
C1074 C1072 1.391 1_655 S
C1074 C1075 1.400 . S
C1075 C1074 1.400 . S
C1075 C1076 1.386 . S
C1075 C1081 1.491 . S
C1076 H1067 0.955 . S
C1076 C1075 1.386 . S
C1076 C1077 1.392 1_655 S
C1077 H1065 0.950 . S
C1077 C1073 1.393 . S
C1077 C1076 1.392 1_455 S
C1078 H1068 0.950 . S
C1078 C1079 1.386 . S
C1078 C1080 1.391 . S
C1079 C1078 1.386 . S
C1079 C1083 1.393 . S
C1080 H1069 0.950 . S
C1080 C1078 1.391 . S
C1080 C1081 1.400 . S
C1081 C1075 1.491 . S
C1081 C1080 1.400 . S
C1081 C1082 1.398 . S
C1082 H1070 0.950 . S
C1082 C1081 1.398 . S
C1082 C1083 1.391 . S
C1083 H1071 0.950 . S
C1083 C1079 1.393 . S
C1083 C1082 1.391 . S
H1084 C1092 0.950 . S
H1085 C1097 0.950 . S
H1086 C1094 0.950 . S
H1087 C1096 0.950 . S
H1088 C1098 0.950 . S
H1089 C1100 0.950 . S
H1090 C1102 0.950 . S
H1091 C1103 0.950 . S
C1092 H1084 0.950 . S
C1092 C1093 1.386 . S
C1092 C1094 1.391 . S
C1093 C1092 1.386 . S
C1093 C1097 1.393 . S
C1094 H1086 0.950 . S
C1094 C1092 1.391 . S
C1094 C1095 1.400 . S
C1095 C1094 1.400 . S
C1095 C1096 1.398 . S
C1095 C1101 1.491 . S
C1096 H1087 0.950 . S
C1096 C1095 1.398 . S
C1096 C1097 1.391 . S
C1097 H1085 0.950 . S
C1097 C1093 1.393 . S
C1097 C1096 1.391 . S
C1098 H1088 0.950 . S
C1098 C1099 1.386 . S
C1098 C1100 1.391 . S
C1099 C1098 1.386 . S
C1099 C1103 1.393 . S
C1100 H1089 0.950 . S
C1100 C1098 1.391 . S
C1100 C1101 1.400 . S
C1101 C1095 1.491 . S
C1101 C1100 1.400 . S
C1101 C1102 1.398 . S
C1102 H1090 0.950 . S
C1102 C1101 1.398 . S
C1102 C1103 1.391 . S
C1103 H1091 0.950 . S
C1103 C1099 1.393 . S
C1103 C1102 1.391 . S
H1104 C1112 0.950 . S
H1105 C1117 0.950 . S
H1106 C1114 0.950 . S
H1107 C1116 0.950 . S
H1108 C1118 0.950 . S
H1109 C1120 0.950 . S
H1110 C1122 0.950 . S
H1111 C1123 0.950 . S
C1112 H1104 0.950 . S
C1112 C1113 1.386 . S
C1112 C1114 1.391 . S
C1113 C1112 1.386 . S
C1113 C1117 1.393 . S
C1114 H1106 0.950 . S
C1114 C1112 1.391 . S
C1114 C1115 1.400 . S
C1115 C1114 1.400 . S
C1115 C1116 1.398 . S
C1115 C1121 1.491 . S
C1116 H1107 0.950 . S
C1116 C1115 1.398 . S
C1116 C1117 1.391 . S
C1117 H1105 0.950 . S
C1117 C1113 1.393 . S
C1117 C1116 1.391 . S
C1118 H1108 0.950 . S
C1118 C1119 1.386 . S
C1118 C1120 1.391 . S
C1119 C1118 1.386 . S
C1119 C1123 1.393 . S
C1120 H1109 0.950 . S
C1120 C1118 1.391 . S
C1120 C1121 1.400 . S
C1121 C1115 1.491 . S
C1121 C1120 1.400 . S
C1121 C1122 1.398 . S
C1122 H1110 0.950 . S
C1122 C1121 1.398 . S
C1122 C1123 1.391 . S
C1123 H1111 0.950 . S
C1123 C1119 1.393 . S
C1123 C1122 1.391 . S
H1124 C1132 0.950 . S
H1125 C1137 0.950 . S
H1126 C1134 0.950 . S
H1127 C1136 0.950 . S
H1128 C1138 0.950 . S
H1129 C1140 0.950 . S
H1130 C1142 0.950 . S
H1131 C1143 0.950 . S
C1132 H1124 0.950 . S
C1132 C1133 1.386 . S
C1132 C1134 1.391 . S
C1133 C1132 1.386 . S
C1133 C1137 1.393 . S
C1134 H1126 0.950 . S
C1134 C1132 1.391 . S
C1134 C1135 1.400 . S
C1135 C1134 1.400 . S
C1135 C1136 1.398 . S
C1135 C1141 1.491 . S
C1136 H1127 0.950 . S
C1136 C1135 1.398 . S
C1136 C1137 1.391 . S
C1137 H1125 0.950 . S
C1137 C1133 1.393 . S
C1137 C1136 1.391 . S
C1138 H1128 0.950 . S
C1138 C1139 1.386 1_545 S
C1138 C1140 1.391 . S
C1139 C1138 1.386 1_565 S
C1139 C1143 1.393 . S
C1140 H1129 0.950 . S
C1140 C1138 1.391 . S
C1140 C1141 1.400 . S
C1141 C1135 1.491 . S
C1141 C1140 1.400 . S
C1141 C1142 1.398 1_545 S
C1142 H1130 0.950 . S
C1142 C1141 1.398 1_565 S
C1142 C1143 1.391 . S
C1143 H1131 0.950 . S
C1143 C1139 1.393 . S
C1143 C1142 1.391 . S
H1144 C1152 0.950 . S
H1145 C1157 0.950 . S
H1146 C1154 0.950 . S
H1147 C1156 0.950 1_655 S
H1148 C1158 0.950 . S
H1149 C1160 0.950 . S
H1150 C1162 0.950 . S
H1151 C1163 0.950 . S
C1152 H1144 0.950 . S
C1152 C1153 1.368 1_455 S
C1152 C1154 1.391 . S
C1153 C1152 1.368 1_655 S
C1153 C1157 1.403 . S
C1154 H1146 0.950 . S
C1154 C1152 1.391 . S
C1154 C1155 1.400 . S
C1155 C1154 1.400 . S
C1155 C1156 1.398 . S
C1155 C1161 1.491 . S
C1156 H1147 0.950 1_455 S
C1156 C1155 1.398 . S
C1156 C1157 1.391 1_455 S
C1157 H1145 0.950 . S
C1157 C1153 1.403 . S
C1157 C1156 1.391 1_655 S
C1158 H1148 0.950 . S
C1158 C1159 1.386 . S
C1158 C1160 1.391 . S
C1159 C1158 1.386 . S
C1159 C1163 1.393 . S
C1160 H1149 0.950 . S
C1160 C1158 1.391 . S
C1160 C1161 1.400 . S
C1161 C1155 1.491 . S
C1161 C1160 1.400 . S
C1161 C1162 1.398 . S
C1162 H1150 0.950 . S
C1162 C1161 1.398 . S
C1162 C1163 1.391 . S
C1163 H1151 0.950 . S
C1163 C1159 1.393 . S
C1163 C1162 1.391 . S
H1164 C1172 0.950 . S
H1165 C1177 0.950 . S
H1166 C1174 0.950 . S
H1167 C1176 0.950 . S
H1168 C1178 0.950 . S
H1169 C1180 0.950 . S
H1170 C1182 0.950 . S
H1171 C1183 0.950 . S
C1172 H1164 0.950 . S
C1172 C1173 1.386 . S
C1172 C1174 1.391 . S
C1173 C1172 1.386 . S
C1173 C1177 1.393 . S
C1174 H1166 0.950 . S
C1174 C1172 1.391 . S
C1174 C1175 1.400 . S
C1175 C1174 1.400 . S
C1175 C1176 1.398 . S
C1175 C1181 1.491 . S
C1176 H1167 0.950 . S
C1176 C1175 1.398 . S
C1176 C1177 1.391 . S
C1177 H1165 0.950 . S
C1177 C1173 1.393 . S
C1177 C1176 1.391 . S
C1178 H1168 0.950 . S
C1178 C1179 1.386 . S
C1178 C1180 1.391 . S
C1179 C1178 1.386 . S
C1179 C1183 1.393 . S
C1180 H1169 0.950 . S
C1180 C1178 1.391 . S
C1180 C1181 1.400 . S
C1181 C1175 1.491 . S
C1181 C1180 1.400 . S
C1181 C1182 1.398 . S
C1182 H1170 0.950 . S
C1182 C1181 1.398 . S
C1182 C1183 1.391 . S
C1183 H1171 0.950 . S
C1183 C1179 1.393 . S
C1183 C1182 1.391 . S
H1184 C1192 0.950 . S
H1185 C1197 0.950 . S
H1186 C1194 0.950 . S
H1187 C1196 0.950 . S
H1188 C1198 0.950 . S
H1189 C1200 0.950 . S
H1190 C1202 0.950 . S
H1191 C1203 0.950 . S
C1192 H1184 0.950 . S
C1192 C1193 1.386 1_545 S
C1192 C1194 1.391 . S
C1193 C1192 1.386 1_565 S
C1193 C1197 1.393 . S
C1194 H1186 0.950 . S
C1194 C1192 1.391 . S
C1194 C1195 1.400 . S
C1195 C1194 1.400 . S
C1195 C1196 1.398 . S
C1195 C1201 1.491 . S
C1196 H1187 0.950 . S
C1196 C1195 1.398 . S
C1196 C1197 1.391 1_545 S
C1197 H1185 0.950 . S
C1197 C1193 1.393 . S
C1197 C1196 1.391 1_565 S
C1198 H1188 0.950 . S
C1198 C1199 1.386 . S
C1198 C1200 1.391 . S
C1199 C1198 1.386 . S
C1199 C1203 1.393 . S
C1200 H1189 0.950 . S
C1200 C1198 1.391 . S
C1200 C1201 1.400 . S
C1201 C1195 1.491 . S
C1201 C1200 1.400 . S
C1201 C1202 1.398 . S
C1202 H1190 0.950 . S
C1202 C1201 1.398 . S
C1202 C1203 1.391 . S
C1203 H1191 0.950 . S
C1203 C1199 1.393 . S
C1203 C1202 1.391 . S
H1204 C1212 0.950 . S
H1205 C1217 0.950 . S
H1206 C1214 0.980 . S
H1207 C1216 0.950 . S
H1208 C1218 0.950 . S
H1209 C1220 0.950 . S
H1210 C1222 0.950 . S
H1211 C1223 0.950 . S
C1212 H1204 0.950 . S
C1212 C1213 1.386 . S
C1212 C1214 1.410 . S
C1213 C1212 1.386 . S
C1213 C1217 1.393 1_655 S
C1214 H1206 0.980 . S
C1214 C1212 1.410 . S
C1214 C1215 1.353 1_655 S
C1215 C1214 1.353 1_455 S
C1215 C1216 1.398 . S
C1215 C1221 1.491 . S
C1216 H1207 0.950 . S
C1216 C1215 1.398 . S
C1216 C1217 1.391 . S
C1217 H1205 0.950 . S
C1217 C1213 1.393 1_455 S
C1217 C1216 1.391 . S
C1218 H1208 0.950 . S
C1218 C1219 1.386 . S
C1218 C1220 1.391 . S
C1219 C1218 1.386 . S
C1219 C1223 1.393 . S
C1220 H1209 0.950 . S
C1220 C1218 1.391 . S
C1220 C1221 1.400 . S
C1221 C1215 1.491 . S
C1221 C1220 1.400 . S
C1221 C1222 1.398 . S
C1222 H1210 0.950 . S
C1222 C1221 1.398 . S
C1222 C1223 1.391 . S
C1223 H1211 0.950 . S
C1223 C1219 1.393 . S
C1223 C1222 1.391 . S
H1224 C1232 0.950 1_655 S
H1225 C1237 0.950 . S
H1226 C1234 0.950 1_655 S
H1227 C1236 0.950 . S
H1228 C1238 0.950 . S
H1229 C1240 0.950 . S
H1230 C1242 0.950 1_655 S
H1231 C1243 0.950 . S
C1232 H1224 0.950 1_455 S
C1232 C1233 1.386 . S
C1232 C1234 1.391 . S
C1233 C1232 1.386 . S
C1233 C1237 1.393 . S
C1234 H1226 0.950 1_455 S
C1234 C1232 1.391 . S
C1234 C1235 1.400 . S
C1235 C1234 1.400 . S
C1235 C1236 1.398 . S
C1235 C1241 1.491 1_554 S
C1236 H1227 0.950 . S
C1236 C1235 1.398 . S
C1236 C1237 1.391 . S
C1237 H1225 0.950 . S
C1237 C1233 1.393 . S
C1237 C1236 1.391 . S
C1238 H1228 0.950 . S
C1238 C1239 1.386 . S
C1238 C1240 1.391 . S
C1239 C1238 1.386 . S
C1239 C1243 1.393 . S
C1240 H1229 0.950 . S
C1240 C1238 1.391 . S
C1240 C1241 1.400 . S
C1241 C1235 1.491 1_556 S
C1241 C1240 1.400 . S
C1241 C1242 1.398 . S
C1242 H1230 0.950 1_455 S
C1242 C1241 1.398 . S
C1242 C1243 1.391 . S
C1243 H1231 0.950 . S
C1243 C1239 1.393 . S
C1243 C1242 1.391 . S
H1244 C1252 0.950 . S
H1245 C1257 0.950 . S
H1246 C1254 0.950 . S
H1247 C1256 0.950 . S
H1248 C1258 0.950 . S
H1249 C1260 0.950 . S
H1250 C1262 0.950 . S
H1251 C1263 0.950 . S
C1252 H1244 0.950 . S
C1252 C1253 1.386 . S
C1252 C1254 1.391 . S
C1253 C1252 1.386 . S
C1253 C1257 1.393 . S
C1254 H1246 0.950 . S
C1254 C1252 1.391 . S
C1254 C1255 1.400 . S
C1255 C1254 1.400 . S
C1255 C1256 1.398 . S
C1255 C1261 1.491 1_556 S
C1256 H1247 0.950 . S
C1256 C1255 1.398 . S
C1256 C1257 1.391 . S
C1257 H1245 0.950 . S
C1257 C1253 1.393 . S
C1257 C1256 1.391 . S
C1258 H1248 0.950 . S
C1258 C1259 1.386 . S
C1258 C1260 1.391 . S
C1259 C1258 1.386 . S
C1259 C1263 1.393 . S
C1260 H1249 0.950 . S
C1260 C1258 1.391 . S
C1260 C1261 1.400 . S
C1261 C1255 1.491 1_554 S
C1261 C1260 1.400 . S
C1261 C1262 1.398 . S
C1262 H1250 0.950 . S
C1262 C1261 1.398 . S
C1262 C1263 1.391 . S
C1263 H1251 0.950 . S
C1263 C1259 1.393 . S
C1263 C1262 1.391 . S
H1264 C1272 0.950 . S
H1265 C1277 0.950 1_565 S
H1266 C1274 0.950 . S
H1267 C1276 0.950 1_565 S
H1268 C1278 0.950 1_565 S
H1269 C1280 0.950 1_565 S
H1270 C1282 0.950 . S
H1271 C1283 0.950 . S
C1272 H1264 0.950 . S
C1272 C1273 1.386 . S
C1272 C1274 1.391 . S
C1273 C1272 1.386 . S
C1273 C1277 1.393 . S
C1274 H1266 0.950 . S
C1274 C1272 1.391 . S
C1274 C1275 1.400 . S
C1275 C1274 1.400 . S
C1275 C1276 1.398 . S
C1275 C1281 1.491 1_556 S
C1276 H1267 0.950 1_545 S
C1276 C1275 1.398 . S
C1276 C1277 1.391 . S
C1277 H1265 0.950 1_545 S
C1277 C1273 1.393 . S
C1277 C1276 1.391 . S
C1278 H1268 0.950 1_545 S
C1278 C1279 1.386 . S
C1278 C1280 1.391 . S
C1279 C1278 1.386 . S
C1279 C1283 1.393 . S
C1280 H1269 0.950 1_545 S
C1280 C1278 1.391 . S
C1280 C1281 1.400 . S
C1281 C1275 1.491 1_554 S
C1281 C1280 1.400 . S
C1281 C1282 1.398 . S
C1282 H1270 0.950 . S
C1282 C1281 1.398 . S
C1282 C1283 1.391 . S
C1283 H1271 0.950 . S
C1283 C1279 1.393 . S
C1283 C1282 1.391 . S
H1284 C1292 0.950 1_655 S
H1285 C1297 0.950 . S
H1286 C1294 0.950 1_655 S
H1287 C1296 0.950 . S
H1288 C1298 0.950 . S
H1289 C1300 0.950 . S
H1290 C1302 0.950 1_655 S
H1291 C1303 0.950 1_655 S
C1292 H1284 0.950 1_455 S
C1292 C1293 1.386 . S
C1292 C1294 1.391 . S
C1293 C1292 1.386 . S
C1293 C1297 1.393 . S
C1294 H1286 0.950 1_455 S
C1294 C1292 1.391 . S
C1294 C1295 1.400 . S
C1295 C1294 1.400 . S
C1295 C1296 1.398 . S
C1295 C1301 1.491 1_556 S
C1296 H1287 0.950 . S
C1296 C1295 1.398 . S
C1296 C1297 1.391 . S
C1297 H1285 0.950 . S
C1297 C1293 1.393 . S
C1297 C1296 1.391 . S
C1298 H1288 0.950 . S
C1298 C1299 1.386 . S
C1298 C1300 1.391 . S
C1299 C1298 1.386 . S
C1299 C1303 1.393 . S
C1300 H1289 0.950 . S
C1300 C1298 1.391 . S
C1300 C1301 1.400 . S
C1301 C1295 1.491 1_554 S
C1301 C1300 1.400 . S
C1301 C1302 1.398 . S
C1302 H1290 0.950 1_455 S
C1302 C1301 1.398 . S
C1302 C1303 1.391 . S
C1303 H1291 0.950 1_455 S
C1303 C1299 1.393 . S
C1303 C1302 1.391 . S
H1304 C1312 0.950 . S
H1305 C1317 0.950 . S
H1306 C1314 0.950 . S
H1307 C1316 0.950 . S
H1308 C1318 0.950 . S
H1309 C1320 0.950 . S
H1310 C1322 0.950 . S
H1311 C1323 0.950 . S
C1312 H1304 0.950 . S
C1312 C1313 1.386 . S
C1312 C1314 1.391 . S
C1313 C1312 1.386 . S
C1313 C1317 1.393 . S
C1314 H1306 0.950 . S
C1314 C1312 1.391 . S
C1314 C1315 1.400 . S
C1315 C1314 1.400 . S
C1315 C1316 1.398 . S
C1315 C1321 1.491 1_554 S
C1316 H1307 0.950 . S
C1316 C1315 1.398 . S
C1316 C1317 1.391 . S
C1317 H1305 0.950 . S
C1317 C1313 1.393 . S
C1317 C1316 1.391 . S
C1318 H1308 0.950 . S
C1318 C1319 1.386 . S
C1318 C1320 1.391 . S
C1319 C1318 1.386 . S
C1319 C1323 1.393 . S
C1320 H1309 0.950 . S
C1320 C1318 1.391 . S
C1320 C1321 1.400 . S
C1321 C1315 1.491 1_556 S
C1321 C1320 1.400 . S
C1321 C1322 1.398 . S
C1322 H1310 0.950 . S
C1322 C1321 1.398 . S
C1322 C1323 1.391 . S
C1323 H1311 0.950 . S
C1323 C1319 1.393 . S
C1323 C1322 1.391 . S
H1324 C1332 0.950 1_565 S
H1325 C1337 0.950 . S
H1326 C1334 0.950 1_565 S
H1327 C1336 0.950 . S
H1328 C1338 0.950 . S
H1329 C1340 0.950 . S
H1330 C1342 0.950 1_565 S
H1331 C1343 0.950 1_565 S
C1332 H1324 0.950 1_545 S
C1332 C1333 1.386 . S
C1332 C1334 1.391 . S
C1333 C1332 1.386 . S
C1333 C1337 1.393 . S
C1334 H1326 0.950 1_545 S
C1334 C1332 1.391 . S
C1334 C1335 1.400 . S
C1335 C1334 1.400 . S
C1335 C1336 1.398 . S
C1335 C1341 1.491 1_556 S
C1336 H1327 0.950 . S
C1336 C1335 1.398 . S
C1336 C1337 1.391 . S
C1337 H1325 0.950 . S
C1337 C1333 1.393 . S
C1337 C1336 1.391 . S
C1338 H1328 0.950 . S
C1338 C1339 1.386 . S
C1338 C1340 1.391 . S
C1339 C1338 1.386 . S
C1339 C1343 1.393 . S
C1340 H1329 0.950 . S
C1340 C1338 1.391 . S
C1340 C1341 1.400 . S
C1341 C1335 1.491 1_554 S
C1341 C1340 1.400 . S
C1341 C1342 1.398 . S
C1342 H1330 0.950 1_545 S
C1342 C1341 1.398 . S
C1342 C1343 1.391 . S
C1343 H1331 0.950 1_545 S
C1343 C1339 1.393 . S
C1343 C1342 1.391 . S
H1344 C1352 0.950 . S
H1345 C1357 0.950 . S
H1346 C1354 0.950 . S
H1347 C1356 0.950 . S
H1348 C1358 0.950 . S
H1349 C1360 0.950 . S
H1350 C1362 0.950 . S
H1351 C1363 0.950 . S
C1352 H1344 0.950 . S
C1352 C1353 1.386 . S
C1352 C1354 1.391 . S
C1353 C1352 1.386 . S
C1353 C1357 1.393 . S
C1354 H1346 0.950 . S
C1354 C1352 1.391 . S
C1354 C1355 1.400 . S
C1355 C1354 1.400 . S
C1355 C1356 1.398 . S
C1355 C1361 1.491 . S
C1356 H1347 0.950 . S
C1356 C1355 1.398 . S
C1356 C1357 1.391 . S
C1357 H1345 0.950 . S
C1357 C1353 1.393 . S
C1357 C1356 1.391 . S
C1358 H1348 0.950 . S
C1358 C1359 1.386 . S
C1358 C1360 1.391 . S
C1359 C1358 1.386 . S
C1359 C1363 1.393 . S
C1360 H1349 0.950 . S
C1360 C1358 1.391 . S
C1360 C1361 1.400 . S
C1361 C1355 1.491 . S
C1361 C1360 1.400 . S
C1361 C1362 1.398 . S
C1362 H1350 0.950 . S
C1362 C1361 1.398 . S
C1362 C1363 1.391 . S
C1363 H1351 0.950 . S
C1363 C1359 1.393 . S
C1363 C1362 1.391 . S
H1364 C1372 0.950 . S
H1365 C1377 0.950 . S
H1366 C1374 0.950 . S
H1367 C1376 0.950 . S
H1368 C1378 0.950 . S
H1369 C1380 0.950 . S
H1370 C1382 0.950 . S
H1371 C1383 0.950 . S
C1372 H1364 0.950 . S
C1372 C1373 1.386 . S
C1372 C1374 1.391 . S
C1373 C1372 1.386 . S
C1373 C1377 1.393 . S
C1374 H1366 0.950 . S
C1374 C1372 1.391 . S
C1374 C1375 1.400 . S
C1375 C1374 1.400 . S
C1375 C1376 1.398 . S
C1375 C1381 1.491 . S
C1376 H1367 0.950 . S
C1376 C1375 1.398 . S
C1376 C1377 1.391 . S
C1377 H1365 0.950 . S
C1377 C1373 1.393 . S
C1377 C1376 1.391 . S
C1378 H1368 0.950 . S
C1378 C1379 1.386 . S
C1378 C1380 1.391 . S
C1379 C1378 1.386 . S
C1379 C1383 1.393 . S
C1380 H1369 0.950 . S
C1380 C1378 1.391 . S
C1380 C1381 1.400 . S
C1381 C1375 1.491 . S
C1381 C1380 1.400 . S
C1381 C1382 1.398 . S
C1382 H1370 0.950 . S
C1382 C1381 1.398 . S
C1382 C1383 1.391 . S
C1383 H1371 0.950 . S
C1383 C1379 1.393 . S
C1383 C1382 1.391 . S
H1384 C1392 0.950 . S
H1385 C1397 0.950 . S
H1386 C1394 0.950 . S
H1387 C1396 0.950 . S
H1388 C1398 0.950 . S
H1389 C1400 0.950 . S
H1390 C1402 0.950 . S
H1391 C1403 0.950 . S
C1392 H1384 0.950 . S
C1392 C1393 1.386 . S
C1392 C1394 1.391 . S
C1393 C1392 1.386 . S
C1393 C1397 1.393 . S
C1394 H1386 0.950 . S
C1394 C1392 1.391 . S
C1394 C1395 1.400 . S
C1395 C1394 1.400 . S
C1395 C1396 1.398 . S
C1395 C1401 1.491 . S
C1396 H1387 0.950 . S
C1396 C1395 1.398 . S
C1396 C1397 1.391 . S
C1397 H1385 0.950 . S
C1397 C1393 1.393 . S
C1397 C1396 1.391 . S
C1398 H1388 0.950 . S
C1398 C1399 1.386 . S
C1398 C1400 1.391 . S
C1399 C1398 1.386 . S
C1399 C1403 1.393 . S
C1400 H1389 0.950 . S
C1400 C1398 1.391 . S
C1400 C1401 1.400 . S
C1401 C1395 1.491 . S
C1401 C1400 1.400 . S
C1401 C1402 1.398 . S
C1402 H1390 0.950 . S
C1402 C1401 1.398 . S
C1402 C1403 1.391 . S
C1403 H1391 0.950 . S
C1403 C1399 1.393 . S
C1403 C1402 1.391 . S
H1404 C1412 0.950 . S
H1405 C1417 0.950 . S
H1406 C1414 0.950 . S
H1407 C1416 0.950 . S
H1408 C1418 0.950 . S
H1409 C1420 0.950 . S
H1410 C1422 0.950 . S
H1411 C1423 0.950 . S
C1412 H1404 0.950 . S
C1412 C1413 1.386 . S
C1412 C1414 1.391 . S
C1413 C1412 1.386 . S
C1413 C1417 1.393 . S
C1414 H1406 0.950 . S
C1414 C1412 1.391 . S
C1414 C1415 1.400 . S
C1415 C1414 1.400 . S
C1415 C1416 1.398 . S
C1415 C1421 1.491 . S
C1416 H1407 0.950 . S
C1416 C1415 1.398 . S
C1416 C1417 1.391 . S
C1417 H1405 0.950 . S
C1417 C1413 1.393 . S
C1417 C1416 1.391 . S
C1418 H1408 0.950 . S
C1418 C1419 1.386 . S
C1418 C1420 1.391 . S
C1419 C1418 1.386 . S
C1419 C1423 1.393 . S
C1420 H1409 0.950 . S
C1420 C1418 1.391 . S
C1420 C1421 1.400 . S
C1421 C1415 1.491 . S
C1421 C1420 1.400 . S
C1421 C1422 1.398 . S
C1422 H1410 0.950 . S
C1422 C1421 1.398 . S
C1422 C1423 1.391 . S
C1423 H1411 0.950 . S
C1423 C1419 1.393 . S
C1423 C1422 1.391 . S
H1424 C1432 0.950 . S
H1425 C1437 0.950 . S
H1426 C1434 0.950 . S
H1427 C1436 0.950 . S
H1428 C1438 0.950 . S
H1429 C1440 0.950 . S
H1430 C1442 0.950 . S
H1431 C1443 0.950 . S
C1432 H1424 0.950 . S
C1432 C1433 1.386 . S
C1432 C1434 1.391 . S
C1433 C1432 1.386 . S
C1433 C1437 1.393 . S
C1434 H1426 0.950 . S
C1434 C1432 1.391 . S
C1434 C1435 1.400 . S
C1435 C1434 1.400 . S
C1435 C1436 1.398 . S
C1435 C1441 1.491 . S
C1436 H1427 0.950 . S
C1436 C1435 1.398 . S
C1436 C1437 1.391 . S
C1437 H1425 0.950 . S
C1437 C1433 1.393 . S
C1437 C1436 1.391 . S
C1438 H1428 0.950 . S
C1438 C1439 1.386 . S
C1438 C1440 1.391 . S
C1439 C1438 1.386 . S
C1439 C1443 1.393 . S
C1440 H1429 0.950 . S
C1440 C1438 1.391 . S
C1440 C1441 1.400 . S
C1441 C1435 1.491 . S
C1441 C1440 1.400 . S
C1441 C1442 1.398 . S
C1442 H1430 0.950 . S
C1442 C1441 1.398 . S
C1442 C1443 1.391 . S
C1443 H1431 0.950 . S
C1443 C1439 1.393 . S
C1443 C1442 1.391 . S
H1444 C1452 0.950 . S
H1445 C1457 0.950 . S
H1446 C1454 0.950 . S
H1447 C1456 0.950 . S
H1448 C1458 0.950 . S
H1449 C1460 0.950 . S
H1450 C1462 0.950 . S
H1451 C1463 0.950 . S
C1452 H1444 0.950 . S
C1452 C1453 1.386 . S
C1452 C1454 1.391 . S
C1453 C1452 1.386 . S
C1453 C1457 1.393 . S
C1454 H1446 0.950 . S
C1454 C1452 1.391 . S
C1454 C1455 1.400 . S
C1455 C1454 1.400 . S
C1455 C1456 1.398 . S
C1455 C1461 1.491 . S
C1456 H1447 0.950 . S
C1456 C1455 1.398 . S
C1456 C1457 1.391 . S
C1457 H1445 0.950 . S
C1457 C1453 1.393 . S
C1457 C1456 1.391 . S
C1458 H1448 0.950 . S
C1458 C1459 1.386 . S
C1458 C1460 1.391 . S
C1459 C1458 1.386 . S
C1459 C1463 1.393 . S
C1460 H1449 0.950 . S
C1460 C1458 1.391 . S
C1460 C1461 1.400 . S
C1461 C1455 1.491 . S
C1461 C1460 1.400 . S
C1461 C1462 1.398 . S
C1462 H1450 0.950 . S
C1462 C1461 1.398 . S
C1462 C1463 1.391 . S
C1463 H1451 0.950 . S
C1463 C1459 1.393 . S
C1463 C1462 1.391 . S
H1464 C1472 0.950 . S
H1465 C1477 0.950 . S
H1466 C1474 0.950 . S
H1467 C1476 0.950 . S
H1468 C1478 0.950 . S
H1469 C1480 0.950 . S
H1470 C1482 0.950 . S
H1471 C1483 0.950 . S
C1472 H1464 0.950 . S
C1472 C1473 1.386 . S
C1472 C1474 1.391 . S
C1473 C1472 1.386 . S
C1473 C1477 1.393 . S
C1474 H1466 0.950 . S
C1474 C1472 1.391 . S
C1474 C1475 1.400 . S
C1475 C1474 1.400 . S
C1475 C1476 1.398 . S
C1475 C1481 1.491 . S
C1476 H1467 0.950 . S
C1476 C1475 1.398 . S
C1476 C1477 1.391 . S
C1477 H1465 0.950 . S
C1477 C1473 1.393 . S
C1477 C1476 1.391 . S
C1478 H1468 0.950 . S
C1478 C1479 1.386 . S
C1478 C1480 1.391 . S
C1479 C1478 1.386 . S
C1479 C1483 1.393 . S
C1480 H1469 0.950 . S
C1480 C1478 1.391 . S
C1480 C1481 1.400 . S
C1481 C1475 1.491 . S
C1481 C1480 1.400 . S
C1481 C1482 1.398 . S
C1482 H1470 0.950 . S
C1482 C1481 1.398 . S
C1482 C1483 1.391 . S
C1483 H1471 0.950 . S
C1483 C1479 1.393 . S
C1483 C1482 1.391 . S
H1484 C1492 0.950 . S
H1485 C1497 0.950 . S
H1486 C1494 0.950 . S
H1487 C1496 0.950 . S
H1488 C1498 0.950 . S
H1489 C1500 0.950 . S
H1490 C1502 0.950 . S
H1491 C1503 0.950 . S
C1492 H1484 0.950 . S
C1492 C1493 1.386 . S
C1492 C1494 1.391 . S
C1493 C1492 1.386 . S
C1493 C1497 1.393 . S
C1494 H1486 0.950 . S
C1494 C1492 1.391 . S
C1494 C1495 1.400 . S
C1495 C1494 1.400 . S
C1495 C1496 1.398 . S
C1495 C1501 1.491 . S
C1496 H1487 0.950 . S
C1496 C1495 1.398 . S
C1496 C1497 1.391 . S
C1497 H1485 0.950 . S
C1497 C1493 1.393 . S
C1497 C1496 1.391 . S
C1498 H1488 0.950 . S
C1498 C1499 1.386 . S
C1498 C1500 1.391 . S
C1499 C1498 1.386 . S
C1499 C1503 1.393 . S
C1500 H1489 0.950 . S
C1500 C1498 1.391 . S
C1500 C1501 1.400 . S
C1501 C1495 1.491 . S
C1501 C1500 1.400 . S
C1501 C1502 1.398 . S
C1502 H1490 0.950 . S
C1502 C1501 1.398 . S
C1502 C1503 1.391 . S
C1503 H1491 0.950 . S
C1503 C1499 1.393 . S
C1503 C1502 1.391 . S
H1504 C1512 0.950 . S
H1505 C1517 0.950 . S
H1506 C1514 0.950 . S
H1507 C1516 0.950 . S
H1508 C1518 0.950 . S
H1509 C1520 0.950 . S
H1510 C1522 0.950 . S
H1511 C1523 0.950 . S
C1512 H1504 0.950 . S
C1512 C1513 1.386 . S
C1512 C1514 1.391 . S
C1513 C1512 1.386 . S
C1513 C1517 1.393 . S
C1514 H1506 0.950 . S
C1514 C1512 1.391 . S
C1514 C1515 1.400 . S
C1515 C1514 1.400 . S
C1515 C1516 1.398 . S
C1515 C1521 1.491 . S
C1516 H1507 0.950 . S
C1516 C1515 1.398 . S
C1516 C1517 1.391 . S
C1517 H1505 0.950 . S
C1517 C1513 1.393 . S
C1517 C1516 1.391 . S
C1518 H1508 0.950 . S
C1518 C1519 1.386 . S
C1518 C1520 1.391 . S
C1519 C1518 1.386 . S
C1519 C1523 1.393 . S
C1520 H1509 0.950 . S
C1520 C1518 1.391 . S
C1520 C1521 1.400 . S
C1521 C1515 1.491 . S
C1521 C1520 1.400 . S
C1521 C1522 1.398 . S
C1522 H1510 0.950 . S
C1522 C1521 1.398 . S
C1522 C1523 1.391 . S
C1523 H1511 0.950 . S
C1523 C1519 1.393 . S
C1523 C1522 1.391 . S
H1524 C1532 0.950 . S
H1525 C1537 0.950 . S
H1526 C1534 0.950 . S
H1527 C1536 0.950 . S
H1528 C1538 0.950 . S
H1529 C1540 0.950 . S
H1530 C1542 0.950 . S
H1531 C1543 0.950 . S
C1532 H1524 0.950 . S
C1532 C1533 1.386 . S
C1532 C1534 1.391 . S
C1533 C1532 1.386 . S
C1533 C1537 1.393 . S
C1534 H1526 0.950 . S
C1534 C1532 1.391 . S
C1534 C1535 1.400 . S
C1535 C1534 1.400 . S
C1535 C1536 1.398 . S
C1535 C1541 1.491 . S
C1536 H1527 0.950 . S
C1536 C1535 1.398 . S
C1536 C1537 1.391 . S
C1537 H1525 0.950 . S
C1537 C1533 1.393 . S
C1537 C1536 1.391 . S
C1538 H1528 0.950 . S
C1538 C1539 1.386 . S
C1538 C1540 1.391 . S
C1539 C1538 1.386 . S
C1539 C1543 1.393 . S
C1540 H1529 0.950 . S
C1540 C1538 1.391 . S
C1540 C1541 1.400 . S
C1541 C1535 1.491 . S
C1541 C1540 1.400 . S
C1541 C1542 1.398 . S
C1542 H1530 0.950 . S
C1542 C1541 1.398 . S
C1542 C1543 1.391 . S
C1543 H1531 0.950 . S
C1543 C1539 1.393 . S
C1543 C1542 1.391 . S
H1544 C1552 0.950 . S
H1545 C1557 0.950 . S
H1546 C1554 0.950 . S
H1547 C1556 0.950 . S
H1548 C1558 0.950 . S
H1549 C1560 0.950 . S
H1550 C1562 0.950 . S
H1551 C1563 0.950 . S
C1552 H1544 0.950 . S
C1552 C1553 1.386 . S
C1552 C1554 1.391 . S
C1553 C1552 1.386 . S
C1553 C1557 1.393 . S
C1554 H1546 0.950 . S
C1554 C1552 1.391 . S
C1554 C1555 1.400 . S
C1555 C1554 1.400 . S
C1555 C1556 1.398 . S
C1555 C1561 1.491 . S
C1556 H1547 0.950 . S
C1556 C1555 1.398 . S
C1556 C1557 1.391 . S
C1557 H1545 0.950 . S
C1557 C1553 1.393 . S
C1557 C1556 1.391 . S
C1558 H1548 0.950 . S
C1558 C1559 1.386 . S
C1558 C1560 1.391 . S
C1559 C1558 1.386 . S
C1559 C1563 1.393 . S
C1560 H1549 0.950 . S
C1560 C1558 1.391 . S
C1560 C1561 1.400 . S
C1561 C1555 1.491 . S
C1561 C1560 1.400 . S
C1561 C1562 1.398 . S
C1562 H1550 0.950 . S
C1562 C1561 1.398 . S
C1562 C1563 1.391 . S
C1563 H1551 0.950 . S
C1563 C1559 1.393 . S
C1563 C1562 1.391 . S
H1564 C1572 0.950 . S
H1565 C1577 0.950 . S
H1566 C1574 0.950 . S
H1567 C1576 0.950 . S
H1568 C1578 0.950 . S
H1569 C1580 0.950 . S
H1570 C1582 0.950 . S
H1571 C1583 0.950 . S
C1572 H1564 0.950 . S
C1572 C1573 1.386 . S
C1572 C1574 1.391 . S
C1573 C1572 1.386 . S
C1573 C1577 1.393 . S
C1574 H1566 0.950 . S
C1574 C1572 1.391 . S
C1574 C1575 1.400 . S
C1575 C1574 1.400 . S
C1575 C1576 1.398 . S
C1575 C1581 1.491 . S
C1576 H1567 0.950 . S
C1576 C1575 1.398 . S
C1576 C1577 1.391 . S
C1577 H1565 0.950 . S
C1577 C1573 1.393 . S
C1577 C1576 1.391 . S
C1578 H1568 0.950 . S
C1578 C1579 1.386 . S
C1578 C1580 1.391 . S
C1579 C1578 1.386 . S
C1579 C1583 1.393 . S
C1580 H1569 0.950 . S
C1580 C1578 1.391 . S
C1580 C1581 1.400 . S
C1581 C1575 1.491 . S
C1581 C1580 1.400 . S
C1581 C1582 1.398 . S
C1582 H1570 0.950 . S
C1582 C1581 1.398 . S
C1582 C1583 1.391 . S
C1583 H1571 0.950 . S
C1583 C1579 1.393 . S
C1583 C1582 1.391 . S
H1584 C1592 0.950 . S
H1585 C1597 0.950 . S
H1586 C1594 0.950 . S
H1587 C1596 0.950 . S
H1588 C1598 0.950 . S
H1589 C1600 0.950 . S
H1590 C1602 0.950 . S
H1591 C1603 0.950 . S
C1592 H1584 0.950 . S
C1592 C1593 1.386 . S
C1592 C1594 1.391 . S
C1593 C1592 1.386 . S
C1593 C1597 1.393 . S
C1594 H1586 0.950 . S
C1594 C1592 1.391 . S
C1594 C1595 1.400 . S
C1595 C1594 1.400 . S
C1595 C1596 1.398 . S
C1595 C1601 1.491 . S
C1596 H1587 0.950 . S
C1596 C1595 1.398 . S
C1596 C1597 1.391 . S
C1597 H1585 0.950 . S
C1597 C1593 1.393 . S
C1597 C1596 1.391 . S
C1598 H1588 0.950 . S
C1598 C1599 1.386 . S
C1598 C1600 1.391 . S
C1599 C1598 1.386 . S
C1599 C1603 1.393 . S
C1600 H1589 0.950 . S
C1600 C1598 1.391 . S
C1600 C1601 1.400 . S
C1601 C1595 1.491 . S
C1601 C1600 1.400 . S
C1601 C1602 1.398 . S
C1602 H1590 0.950 . S
C1602 C1601 1.398 . S
C1602 C1603 1.391 . S
C1603 H1591 0.950 . S
C1603 C1599 1.393 . S
C1603 C1602 1.391 . S
H1604 C1612 0.950 . S
H1605 C1617 0.950 . S
H1606 C1614 0.950 . S
H1607 C1616 0.950 . S
H1608 C1618 0.950 . S
H1609 C1620 0.950 . S
H1610 C1622 0.950 . S
H1611 C1623 0.950 . S
C1612 H1604 0.950 . S
C1612 C1613 1.386 . S
C1612 C1614 1.391 . S
C1613 C1612 1.386 . S
C1613 C1617 1.393 . S
C1614 H1606 0.950 . S
C1614 C1612 1.391 . S
C1614 C1615 1.400 . S
C1615 C1614 1.400 . S
C1615 C1616 1.398 . S
C1615 C1621 1.491 . S
C1616 H1607 0.950 . S
C1616 C1615 1.398 . S
C1616 C1617 1.391 . S
C1617 H1605 0.950 . S
C1617 C1613 1.393 . S
C1617 C1616 1.391 . S
C1618 H1608 0.950 . S
C1618 C1619 1.386 . S
C1618 C1620 1.391 . S
C1619 C1618 1.386 . S
C1619 C1623 1.393 . S
C1620 H1609 0.950 . S
C1620 C1618 1.391 . S
C1620 C1621 1.400 . S
C1621 C1615 1.491 . S
C1621 C1620 1.400 . S
C1621 C1622 1.398 . S
C1622 H1610 0.950 . S
C1622 C1621 1.398 . S
C1622 C1623 1.391 . S
C1623 H1611 0.950 . S
C1623 C1619 1.393 . S
C1623 C1622 1.391 . S
H1624 C1632 0.950 . S
H1625 C1637 0.950 . S
H1626 C1634 0.950 . S
H1627 C1636 0.950 . S
H1628 C1638 0.950 . S
H1629 C1640 0.950 . S
H1630 C1642 0.950 . S
H1631 C1643 0.950 . S
C1632 H1624 0.950 . S
C1632 C1633 1.386 . S
C1632 C1634 1.391 . S
C1633 C1632 1.386 . S
C1633 C1637 1.393 . S
C1634 H1626 0.950 . S
C1634 C1632 1.391 . S
C1634 C1635 1.400 . S
C1635 C1634 1.400 . S
C1635 C1636 1.398 . S
C1635 C1641 1.491 . S
C1636 H1627 0.950 . S
C1636 C1635 1.398 . S
C1636 C1637 1.391 . S
C1637 H1625 0.950 . S
C1637 C1633 1.393 . S
C1637 C1636 1.391 . S
C1638 H1628 0.950 . S
C1638 C1639 1.386 . S
C1638 C1640 1.391 . S
C1639 C1638 1.386 . S
C1639 C1643 1.393 . S
C1640 H1629 0.950 . S
C1640 C1638 1.391 . S
C1640 C1641 1.400 . S
C1641 C1635 1.491 . S
C1641 C1640 1.400 . S
C1641 C1642 1.398 . S
C1642 H1630 0.950 . S
C1642 C1641 1.398 . S
C1642 C1643 1.391 . S
C1643 H1631 0.950 . S
C1643 C1639 1.393 . S
C1643 C1642 1.391 . S
H1644 C1652 0.950 . S
H1645 C1657 0.950 . S
H1646 C1654 0.950 . S
H1647 C1656 0.950 . S
H1648 C1658 0.950 . S
H1649 C1660 0.950 . S
H1650 C1662 0.950 . S
H1651 C1663 0.950 . S
C1652 H1644 0.950 . S
C1652 C1653 1.386 . S
C1652 C1654 1.391 . S
C1653 C1652 1.386 . S
C1653 C1657 1.393 . S
C1654 H1646 0.950 . S
C1654 C1652 1.391 . S
C1654 C1655 1.400 . S
C1655 C1654 1.400 . S
C1655 C1656 1.398 . S
C1655 C1661 1.491 . S
C1656 H1647 0.950 . S
C1656 C1655 1.398 . S
C1656 C1657 1.391 . S
C1657 H1645 0.950 . S
C1657 C1653 1.393 . S
C1657 C1656 1.391 . S
C1658 H1648 0.950 . S
C1658 C1659 1.386 . S
C1658 C1660 1.391 . S
C1659 C1658 1.386 . S
C1659 C1663 1.393 . S
C1660 H1649 0.950 . S
C1660 C1658 1.391 . S
C1660 C1661 1.400 . S
C1661 C1655 1.491 . S
C1661 C1660 1.400 . S
C1661 C1662 1.398 . S
C1662 H1650 0.950 . S
C1662 C1661 1.398 . S
C1662 C1663 1.391 . S
C1663 H1651 0.950 . S
C1663 C1659 1.393 . S
C1663 C1662 1.391 . S
H1664 C1672 0.950 . S
H1665 C1677 0.950 . S
H1666 C1674 0.950 . S
H1667 C1676 0.950 . S
H1668 C1678 0.950 . S
H1669 C1680 0.950 . S
H1670 C1682 0.950 . S
H1671 C1683 0.950 . S
C1672 H1664 0.950 . S
C1672 C1673 1.386 . S
C1672 C1674 1.391 . S
C1673 C1672 1.386 . S
C1673 C1677 1.393 . S
C1674 H1666 0.950 . S
C1674 C1672 1.391 . S
C1674 C1675 1.400 . S
C1675 C1674 1.400 . S
C1675 C1676 1.398 . S
C1675 C1681 1.491 . S
C1676 H1667 0.950 . S
C1676 C1675 1.398 . S
C1676 C1677 1.391 . S
C1677 H1665 0.950 . S
C1677 C1673 1.393 . S
C1677 C1676 1.391 . S
C1678 H1668 0.950 . S
C1678 C1679 1.386 . S
C1678 C1680 1.391 . S
C1679 C1678 1.386 . S
C1679 C1683 1.393 . S
C1680 H1669 0.950 . S
C1680 C1678 1.391 . S
C1680 C1681 1.400 . S
C1681 C1675 1.491 . S
C1681 C1680 1.400 . S
C1681 C1682 1.398 . S
C1682 H1670 0.950 . S
C1682 C1681 1.398 . S
C1682 C1683 1.391 . S
C1683 H1671 0.950 . S
C1683 C1679 1.393 . S
C1683 C1682 1.391 . S
H1684 C1692 0.950 . S
H1685 C1697 0.950 . S
H1686 C1694 0.950 . S
H1687 C1696 0.950 . S
H1688 C1698 0.950 . S
H1689 C1700 0.950 . S
H1690 C1702 0.950 . S
H1691 C1703 0.950 . S
C1692 H1684 0.950 . S
C1692 C1693 1.386 . S
C1692 C1694 1.391 . S
C1693 C1692 1.386 . S
C1693 C1697 1.393 . S
C1694 H1686 0.950 . S
C1694 C1692 1.391 . S
C1694 C1695 1.400 . S
C1695 C1694 1.400 . S
C1695 C1696 1.398 . S
C1695 C1701 1.491 . S
C1696 H1687 0.950 . S
C1696 C1695 1.398 . S
C1696 C1697 1.391 . S
C1697 H1685 0.950 . S
C1697 C1693 1.393 . S
C1697 C1696 1.391 . S
C1698 H1688 0.950 . S
C1698 C1699 1.386 . S
C1698 C1700 1.391 . S
C1699 C1698 1.386 . S
C1699 C1703 1.393 . S
C1700 H1689 0.950 . S
C1700 C1698 1.391 . S
C1700 C1701 1.400 . S
C1701 C1695 1.491 . S
C1701 C1700 1.400 . S
C1701 C1702 1.398 . S
C1702 H1690 0.950 . S
C1702 C1701 1.398 . S
C1702 C1703 1.391 . S
C1703 H1691 0.950 . S
C1703 C1699 1.393 . S
C1703 C1702 1.391 . S
H1704 C1712 0.950 . S
H1705 C1717 0.950 . S
H1706 C1714 0.950 . S
H1707 C1716 0.950 . S
H1708 C1718 0.950 . S
H1709 C1720 0.950 . S
H1710 C1722 0.950 . S
H1711 C1723 0.950 . S
C1712 H1704 0.950 . S
C1712 C1713 1.386 . S
C1712 C1714 1.391 . S
C1713 C1712 1.386 . S
C1713 C1717 1.393 . S
C1714 H1706 0.950 . S
C1714 C1712 1.391 . S
C1714 C1715 1.400 . S
C1715 C1714 1.400 . S
C1715 C1716 1.398 . S
C1715 C1721 1.491 . S
C1716 H1707 0.950 . S
C1716 C1715 1.398 . S
C1716 C1717 1.391 . S
C1717 H1705 0.950 . S
C1717 C1713 1.393 . S
C1717 C1716 1.391 . S
C1718 H1708 0.950 . S
C1718 C1719 1.386 . S
C1718 C1720 1.391 . S
C1719 C1718 1.386 . S
C1719 C1723 1.393 . S
C1720 H1709 0.950 . S
C1720 C1718 1.391 . S
C1720 C1721 1.400 . S
C1721 C1715 1.491 . S
C1721 C1720 1.400 . S
C1721 C1722 1.398 . S
C1722 H1710 0.950 . S
C1722 C1721 1.398 . S
C1722 C1723 1.391 . S
C1723 H1711 0.950 . S
C1723 C1719 1.393 . S
C1723 C1722 1.391 . S
H1724 C1732 0.950 . S
H1725 C1737 0.950 . S
H1726 C1734 0.950 . S
H1727 C1736 0.950 . S
H1728 C1738 0.950 . S
H1729 C1740 0.950 . S
H1730 C1742 0.950 . S
H1731 C1743 0.950 . S
C1732 H1724 0.950 . S
C1732 C1733 1.386 . S
C1732 C1734 1.391 . S
C1733 C1732 1.386 . S
C1733 C1737 1.393 . S
C1734 H1726 0.950 . S
C1734 C1732 1.391 . S
C1734 C1735 1.400 . S
C1735 C1734 1.400 . S
C1735 C1736 1.398 . S
C1735 C1741 1.491 . S
C1736 H1727 0.950 . S
C1736 C1735 1.398 . S
C1736 C1737 1.391 . S
C1737 H1725 0.950 . S
C1737 C1733 1.393 . S
C1737 C1736 1.391 . S
C1738 H1728 0.950 . S
C1738 C1739 1.386 . S
C1738 C1740 1.391 . S
C1739 C1738 1.386 . S
C1739 C1743 1.393 . S
C1740 H1729 0.950 . S
C1740 C1738 1.391 . S
C1740 C1741 1.400 . S
C1741 C1735 1.491 . S
C1741 C1740 1.400 . S
C1741 C1742 1.398 . S
C1742 H1730 0.950 . S
C1742 C1741 1.398 . S
C1742 C1743 1.391 . S
C1743 H1731 0.950 . S
C1743 C1739 1.393 . S
C1743 C1742 1.391 . S
H1744 C1752 0.950 . S
H1745 C1757 0.950 . S
H1746 C1754 0.950 . S
H1747 C1756 0.950 . S
H1748 C1758 0.950 . S
H1749 C1760 0.950 . S
H1750 C1762 0.950 . S
H1751 C1763 0.950 . S
C1752 H1744 0.950 . S
C1752 C1753 1.386 . S
C1752 C1754 1.391 . S
C1753 C1752 1.386 . S
C1753 C1757 1.393 . S
C1754 H1746 0.950 . S
C1754 C1752 1.391 . S
C1754 C1755 1.400 . S
C1755 C1754 1.400 . S
C1755 C1756 1.398 . S
C1755 C1761 1.491 . S
C1756 H1747 0.950 . S
C1756 C1755 1.398 . S
C1756 C1757 1.391 . S
C1757 H1745 0.950 . S
C1757 C1753 1.393 . S
C1757 C1756 1.391 . S
C1758 H1748 0.950 . S
C1758 C1759 1.386 . S
C1758 C1760 1.391 . S
C1759 C1758 1.386 . S
C1759 C1763 1.393 . S
C1760 H1749 0.950 . S
C1760 C1758 1.391 . S
C1760 C1761 1.400 . S
C1761 C1755 1.491 . S
C1761 C1760 1.400 . S
C1761 C1762 1.398 . S
C1762 H1750 0.950 . S
C1762 C1761 1.398 . S
C1762 C1763 1.391 . S
C1763 H1751 0.950 . S
C1763 C1759 1.393 . S
C1763 C1762 1.391 . S
H1764 C1772 0.950 . S
H1765 C1777 0.950 . S
H1766 C1774 0.950 . S
H1767 C1776 0.950 . S
H1768 C1778 0.950 . S
H1769 C1780 0.950 . S
H1770 C1782 0.950 . S
H1771 C1783 0.950 . S
C1772 H1764 0.950 . S
C1772 C1773 1.386 . S
C1772 C1774 1.391 . S
C1773 C1772 1.386 . S
C1773 C1777 1.393 . S
C1774 H1766 0.950 . S
C1774 C1772 1.391 . S
C1774 C1775 1.400 . S
C1775 C1774 1.400 . S
C1775 C1776 1.398 . S
C1775 C1781 1.491 . S
C1776 H1767 0.950 . S
C1776 C1775 1.398 . S
C1776 C1777 1.391 . S
C1777 H1765 0.950 . S
C1777 C1773 1.393 . S
C1777 C1776 1.391 . S
C1778 H1768 0.950 . S
C1778 C1779 1.386 . S
C1778 C1780 1.391 . S
C1779 C1778 1.386 . S
C1779 C1783 1.393 . S
C1780 H1769 0.950 . S
C1780 C1778 1.391 . S
C1780 C1781 1.400 . S
C1781 C1775 1.491 . S
C1781 C1780 1.400 . S
C1781 C1782 1.398 . S
C1782 H1770 0.950 . S
C1782 C1781 1.398 . S
C1782 C1783 1.391 . S
C1783 H1771 0.950 . S
C1783 C1779 1.393 . S
C1783 C1782 1.391 . S
H1784 C1792 0.950 . S
H1785 C1797 0.950 . S
H1786 C1794 0.950 . S
H1787 C1796 0.950 . S
H1788 C1798 0.950 . S
H1789 C1800 0.950 . S
H1790 C1802 0.950 . S
H1791 C1803 0.950 . S
C1792 H1784 0.950 . S
C1792 C1793 1.386 . S
C1792 C1794 1.391 . S
C1793 C1792 1.386 . S
C1793 C1797 1.393 . S
C1794 H1786 0.950 . S
C1794 C1792 1.391 . S
C1794 C1795 1.400 . S
C1795 C1794 1.400 . S
C1795 C1796 1.398 . S
C1795 C1801 1.491 . S
C1796 H1787 0.950 . S
C1796 C1795 1.398 . S
C1796 C1797 1.391 . S
C1797 H1785 0.950 . S
C1797 C1793 1.393 . S
C1797 C1796 1.391 . S
C1798 H1788 0.950 . S
C1798 C1799 1.386 . S
C1798 C1800 1.391 . S
C1799 C1798 1.386 . S
C1799 C1803 1.393 . S
C1800 H1789 0.950 . S
C1800 C1798 1.391 . S
C1800 C1801 1.400 . S
C1801 C1795 1.491 . S
C1801 C1800 1.400 . S
C1801 C1802 1.398 . S
C1802 H1790 0.950 . S
C1802 C1801 1.398 . S
C1802 C1803 1.391 . S
C1803 H1791 0.950 . S
C1803 C1799 1.393 . S
C1803 C1802 1.391 . S
H1804 C1812 0.950 . S
H1805 C1817 0.950 . S
H1806 C1814 0.950 . S
H1807 C1816 0.950 . S
H1808 C1818 0.950 . S
H1809 C1820 0.950 . S
H1810 C1822 0.950 . S
H1811 C1823 0.950 . S
C1812 H1804 0.950 . S
C1812 C1813 1.386 . S
C1812 C1814 1.391 . S
C1813 C1812 1.386 . S
C1813 C1817 1.393 . S
C1814 H1806 0.950 . S
C1814 C1812 1.391 . S
C1814 C1815 1.400 . S
C1815 C1814 1.400 . S
C1815 C1816 1.398 . S
C1815 C1821 1.491 . S
C1816 H1807 0.950 . S
C1816 C1815 1.398 . S
C1816 C1817 1.391 . S
C1817 H1805 0.950 . S
C1817 C1813 1.393 . S
C1817 C1816 1.391 . S
C1818 H1808 0.950 . S
C1818 C1819 1.386 . S
C1818 C1820 1.391 . S
C1819 C1818 1.386 . S
C1819 C1823 1.393 . S
C1820 H1809 0.950 . S
C1820 C1818 1.391 . S
C1820 C1821 1.400 . S
C1821 C1815 1.491 . S
C1821 C1820 1.400 . S
C1821 C1822 1.398 . S
C1822 H1810 0.950 . S
C1822 C1821 1.398 . S
C1822 C1823 1.391 . S
C1823 H1811 0.950 . S
C1823 C1819 1.393 . S
C1823 C1822 1.391 . S
H1824 C1832 0.950 . S
H1825 C1837 0.950 . S
H1826 C1834 0.950 . S
H1827 C1836 0.950 . S
H1828 C1838 0.950 . S
H1829 C1840 0.950 . S
H1830 C1842 0.950 . S
H1831 C1843 0.950 . S
C1832 H1824 0.950 . S
C1832 C1833 1.386 . S
C1832 C1834 1.391 . S
C1833 C1832 1.386 . S
C1833 C1837 1.393 . S
C1834 H1826 0.950 . S
C1834 C1832 1.391 . S
C1834 C1835 1.400 . S
C1835 C1834 1.400 . S
C1835 C1836 1.398 . S
C1835 C1841 1.491 . S
C1836 H1827 0.950 . S
C1836 C1835 1.398 . S
C1836 C1837 1.391 . S
C1837 H1825 0.950 . S
C1837 C1833 1.393 . S
C1837 C1836 1.391 . S
C1838 H1828 0.950 . S
C1838 C1839 1.386 . S
C1838 C1840 1.391 . S
C1839 C1838 1.386 . S
C1839 C1843 1.393 . S
C1840 H1829 0.950 . S
C1840 C1838 1.391 . S
C1840 C1841 1.400 . S
C1841 C1835 1.491 . S
C1841 C1840 1.400 . S
C1841 C1842 1.398 . S
C1842 H1830 0.950 . S
C1842 C1841 1.398 . S
C1842 C1843 1.391 . S
C1843 H1831 0.950 . S
C1843 C1839 1.393 . S
C1843 C1842 1.391 . S
H1844 C1852 0.950 . S
H1845 C1857 0.950 . S
H1846 C1854 0.950 . S
H1847 C1856 0.950 . S
H1848 C1858 0.950 . S
H1849 C1860 0.950 . S
H1850 C1862 0.950 . S
H1851 C1863 0.950 . S
C1852 H1844 0.950 . S
C1852 C1853 1.386 . S
C1852 C1854 1.391 . S
C1853 C1852 1.386 . S
C1853 C1857 1.393 . S
C1854 H1846 0.950 . S
C1854 C1852 1.391 . S
C1854 C1855 1.400 . S
C1855 C1854 1.400 . S
C1855 C1856 1.398 . S
C1855 C1861 1.491 . S
C1856 H1847 0.950 . S
C1856 C1855 1.398 . S
C1856 C1857 1.391 . S
C1857 H1845 0.950 . S
C1857 C1853 1.393 . S
C1857 C1856 1.391 . S
C1858 H1848 0.950 . S
C1858 C1859 1.386 . S
C1858 C1860 1.391 . S
C1859 C1858 1.386 . S
C1859 C1863 1.393 . S
C1860 H1849 0.950 . S
C1860 C1858 1.391 . S
C1860 C1861 1.400 . S
C1861 C1855 1.491 . S
C1861 C1860 1.400 . S
C1861 C1862 1.398 . S
C1862 H1850 0.950 . S
C1862 C1861 1.398 . S
C1862 C1863 1.391 . S
C1863 H1851 0.950 . S
C1863 C1859 1.393 . S
C1863 C1862 1.391 . S
H1864 C1872 0.950 . S
H1865 C1877 0.950 . S
H1866 C1874 0.950 . S
H1867 C1876 0.950 . S
H1868 C1878 0.950 . S
H1869 C1880 0.950 . S
H1870 C1882 0.950 . S
H1871 C1883 0.950 . S
C1872 H1864 0.950 . S
C1872 C1873 1.386 . S
C1872 C1874 1.391 . S
C1873 C1872 1.386 . S
C1873 C1877 1.393 . S
C1874 H1866 0.950 . S
C1874 C1872 1.391 . S
C1874 C1875 1.400 . S
C1875 C1874 1.400 . S
C1875 C1876 1.398 . S
C1875 C1881 1.491 . S
C1876 H1867 0.950 . S
C1876 C1875 1.398 . S
C1876 C1877 1.391 . S
C1877 H1865 0.950 . S
C1877 C1873 1.393 . S
C1877 C1876 1.391 . S
C1878 H1868 0.950 . S
C1878 C1879 1.386 . S
C1878 C1880 1.391 . S
C1879 C1878 1.386 . S
C1879 C1883 1.393 . S
C1880 H1869 0.950 . S
C1880 C1878 1.391 . S
C1880 C1881 1.400 . S
C1881 C1875 1.491 . S
C1881 C1880 1.400 . S
C1881 C1882 1.398 . S
C1882 H1870 0.950 . S
C1882 C1881 1.398 . S
C1882 C1883 1.391 . S
C1883 H1871 0.950 . S
C1883 C1879 1.393 . S
C1883 C1882 1.391 . S
H1884 C1892 0.950 . S
H1885 C1897 0.950 . S
H1886 C1894 0.950 . S
H1887 C1896 0.950 . S
H1888 C1898 0.950 . S
H1889 C1900 0.950 . S
H1890 C1902 0.950 . S
H1891 C1903 0.950 . S
C1892 H1884 0.950 . S
C1892 C1893 1.386 . S
C1892 C1894 1.391 . S
C1893 C1892 1.386 . S
C1893 C1897 1.393 . S
C1894 H1886 0.950 . S
C1894 C1892 1.391 . S
C1894 C1895 1.400 . S
C1895 C1894 1.400 . S
C1895 C1896 1.398 . S
C1895 C1901 1.491 . S
C1896 H1887 0.950 . S
C1896 C1895 1.398 . S
C1896 C1897 1.391 . S
C1897 H1885 0.950 . S
C1897 C1893 1.393 . S
C1897 C1896 1.391 . S
C1898 H1888 0.950 . S
C1898 C1899 1.386 . S
C1898 C1900 1.391 . S
C1899 C1898 1.386 . S
C1899 C1903 1.393 . S
C1900 H1889 0.950 . S
C1900 C1898 1.391 . S
C1900 C1901 1.400 . S
C1901 C1895 1.491 . S
C1901 C1900 1.400 . S
C1901 C1902 1.398 . S
C1902 H1890 0.950 . S
C1902 C1901 1.398 . S
C1902 C1903 1.391 . S
C1903 H1891 0.950 . S
C1903 C1899 1.393 . S
C1903 C1902 1.391 . S
H1904 C1912 0.950 . S
H1905 C1917 0.950 . S
H1906 C1914 0.950 . S
H1907 C1916 0.950 . S
H1908 C1918 0.950 . S
H1909 C1920 0.950 . S
H1910 C1922 0.950 . S
H1911 C1923 0.950 . S
C1912 H1904 0.950 . S
C1912 C1913 1.386 . S
C1912 C1914 1.391 . S
C1913 C1912 1.386 . S
C1913 C1917 1.393 . S
C1914 H1906 0.950 . S
C1914 C1912 1.391 . S
C1914 C1915 1.400 . S
C1915 C1914 1.400 . S
C1915 C1916 1.398 . S
C1915 C1921 1.491 . S
C1916 H1907 0.950 . S
C1916 C1915 1.398 . S
C1916 C1917 1.391 . S
C1917 H1905 0.950 . S
C1917 C1913 1.393 . S
C1917 C1916 1.391 . S
C1918 H1908 0.950 . S
C1918 C1919 1.386 . S
C1918 C1920 1.391 . S
C1919 C1918 1.386 . S
C1919 C1923 1.393 . S
C1920 H1909 0.950 . S
C1920 C1918 1.391 . S
C1920 C1921 1.400 . S
C1921 C1915 1.491 . S
C1921 C1920 1.400 . S
C1921 C1922 1.398 . S
C1922 H1910 0.950 . S
C1922 C1921 1.398 . S
C1922 C1923 1.391 . S
C1923 H1911 0.950 . S
C1923 C1919 1.393 . S
C1923 C1922 1.391 . S
H1924 C1932 0.950 . S
H1925 C1937 0.950 . S
H1926 C1934 0.950 . S
H1927 C1936 0.950 . S
H1928 C1938 0.950 . S
H1929 C1940 0.950 . S
H1930 C1942 0.950 . S
H1931 C1943 0.950 . S
C1932 H1924 0.950 . S
C1932 C1933 1.386 . S
C1932 C1934 1.391 . S
C1933 C1932 1.386 . S
C1933 C1937 1.393 . S
C1934 H1926 0.950 . S
C1934 C1932 1.391 . S
C1934 C1935 1.400 . S
C1935 C1934 1.400 . S
C1935 C1936 1.398 . S
C1935 C1941 1.491 . S
C1936 H1927 0.950 . S
C1936 C1935 1.398 . S
C1936 C1937 1.391 . S
C1937 H1925 0.950 . S
C1937 C1933 1.393 . S
C1937 C1936 1.391 . S
C1938 H1928 0.950 . S
C1938 C1939 1.386 . S
C1938 C1940 1.391 . S
C1939 C1938 1.386 . S
C1939 C1943 1.393 . S
C1940 H1929 0.950 . S
C1940 C1938 1.391 . S
C1940 C1941 1.400 . S
C1941 C1935 1.491 . S
C1941 C1940 1.400 . S
C1941 C1942 1.398 . S
C1942 H1930 0.950 . S
C1942 C1941 1.398 . S
C1942 C1943 1.391 . S
C1943 H1931 0.950 . S
C1943 C1939 1.393 . S
C1943 C1942 1.391 . S
C513 C6 1.416 . S
C519 C160 1.441 . S
C533 C132 1.437 . S
C539 C20 1.420 . S
C553 C146 1.416 . S
C559 C34 1.441 . S
C573 C48 1.415 . S
C579 C104 1.441 . S
C593 C62 1.419 . S
C599 C118 1.438 . S
C613 C76 1.423 . S
C619 C90 1.434 . S
C633 C174 1.426 . S
C639 C328 1.431 . S
C653 C300 1.440 . S
C659 C188 1.417 . S
C673 C202 1.428 . S
C679 C314 1.429 . S
C693 C216 1.422 . S
C699 C272 1.434 . S
C713 C230 1.436 . S
C719 C286 1.420 . S
C733 C244 1.437 . S
C739 C258 1.419 . S
C753 C342 1.422 . S
C759 C496 1.434 . S
C773 C356 1.433 . S
C779 C468 1.423 . S
C793 C482 1.438 . S
C799 C370 1.418 . S
C813 C384 1.440 . S
C819 C440 1.416 . S
C833 C454 1.441 . S
C839 C398 1.416 . S
C853 C426 1.438 . S
C859 C412 1.419 . S
C873 C7 1.349 . S
C879 C217 1.344 . S
C893 C21 1.353 . S
C899 C231 1.357 . S
C913 C35 1.343 . S
C919 C245 1.349 . S
C933 C49 1.347 . S
C939 C343 1.355 . S
C953 C357 1.357 . S
C959 C63 1.352 . S
C973 C371 1.354 . S
C979 C77 1.357 . S
C993 C91 1.348 . S
C999 C469 1.343 . S
C1013 C483 1.354 . S
C1019 C105 1.346 . S
C1033 C119 1.343 . S
C1039 C497 1.346 . S
C1053 C133 1.356 . S
C1059 C259 1.356 . S
C1073 C147 1.356 . S
C1079 C273 1.350 . S
C1093 C161 1.356 . S
C1099 C287 1.355 . S
C1113 C385 1.353 . S
C1119 C175 1.345 . S
C1133 C189 1.351 . S
C1139 C399 1.357 . S
C1153 C203 1.350 . S
C1159 C413 1.350 . S
C1173 C427 1.353 . S
C1179 C301 1.346 . S
C1193 C441 1.347 . S
C1199 C315 1.343 . S
C1213 C329 1.349 . S
C1219 C455 1.356 . S
C1233 C8 1.293 . S
C1239 C64 1.274 . S
C1253 C78 1.298 . S
C1259 C22 1.274 . S
C1273 C50 1.279 . S
C1279 C36 1.302 . S
C1293 C92 1.302 . S
C1299 C148 1.278 . S
C1313 C162 1.274 . S
C1319 C106 1.296 . S
C1333 C120 1.274 . S
C1339 C134 1.295 . S
C1353 C232 1.275 . S
C1359 C176 1.300 . S
C1373 C190 1.274 . S
C1379 C246 1.296 . S
C1393 C204 1.291 . S
C1399 C218 1.275 . S
C1413 C316 1.274 . S
C1419 C260 1.292 . S
C1433 C330 1.286 . S
C1439 C274 1.301 . S
C1453 C302 1.277 . S
C1459 C288 1.286 . S
C1473 C344 1.292 . S
C1479 C400 1.298 . S
C1493 C358 1.301 . S
C1499 C414 1.285 . S
C1513 C372 1.290 . S
C1519 C386 1.275 . S
C1533 C484 1.280 . S
C1539 C428 1.283 . S
C1553 C498 1.278 . S
C1559 C442 1.302 . S
C1573 C470 1.298 . S
C1579 C456 1.274 . S
C1593 C135 1.980 . S
C1599 C9 1.982 . S
C1613 C149 1.985 . S
C1619 C23 1.976 . S
C1633 C37 1.978 . S
C1639 C163 1.984 . S
C1653 C51 1.977 . S
C1659 C93 1.985 . S
C1673 C107 1.984 . S
C1679 C65 1.977 . S
C1693 C79 1.977 . S
C1699 C121 1.985 . S
C1713 C303 1.976 . S
C1719 C177 1.985 . S
C1733 C317 1.985 . S
C1739 C191 1.977 . S
C1753 C205 1.985 . S
C1759 C331 1.976 . S
C1773 C261 1.976 . S
C1779 C219 1.985 . S
C1793 C275 1.984 . S
C1799 C233 1.978 . S
C1813 C289 1.978 . S
C1819 C247 1.984 . S
C1833 C345 1.986 . S
C1839 C471 1.976 . S
C1853 C485 1.985 . S
C1859 C359 1.976 . S
C1873 C373 1.976 . S
C1879 C499 1.985 . S
C1893 C387 1.978 . S
C1899 C429 1.983 . S
C1913 C401 1.985 . S
C1919 C443 1.976 . S
C1933 C457 1.978 . S
C1939 C415 1.983 . S
